# Generated by pormake.
# Topology llk, (3,12)-cn, num edge types: 1
# Building blocks:
#     Node 0, Type 0, BuildingBlock: WUSLED_clean_sbu_0, # of connection points: 3
#     Node 1, Type 0, BuildingBlock: WUSLED_clean_sbu_0, # of connection points: 3
#     Node 2, Type 0, BuildingBlock: WUSLED_clean_sbu_0, # of connection points: 3
#     Node 3, Type 0, BuildingBlock: WUSLED_clean_sbu_0, # of connection points: 3
#     Node 4, Type 0, BuildingBlock: WUSLED_clean_sbu_0, # of connection points: 3
#     Node 5, Type 0, BuildingBlock: WUSLED_clean_sbu_0, # of connection points: 3
#     Node 6, Type 0, BuildingBlock: WUSLED_clean_sbu_0, # of connection points: 3
#     Node 7, Type 0, BuildingBlock: WUSLED_clean_sbu_0, # of connection points: 3
#     Node 8, Type 0, BuildingBlock: WUSLED_clean_sbu_0, # of connection points: 3
#     Node 9, Type 0, BuildingBlock: WUSLED_clean_sbu_0, # of connection points: 3
#     Node 10, Type 0, BuildingBlock: WUSLED_clean_sbu_0, # of connection points: 3
#     Node 11, Type 0, BuildingBlock: WUSLED_clean_sbu_0, # of connection points: 3
#     Node 12, Type 0, BuildingBlock: WUSLED_clean_sbu_0, # of connection points: 3
#     Node 13, Type 0, BuildingBlock: WUSLED_clean_sbu_0, # of connection points: 3
#     Node 14, Type 0, BuildingBlock: WUSLED_clean_sbu_0, # of connection points: 3
#     Node 15, Type 0, BuildingBlock: WUSLED_clean_sbu_0, # of connection points: 3
#     Node 16, Type 0, BuildingBlock: WUSLED_clean_sbu_0, # of connection points: 3
#     Node 17, Type 0, BuildingBlock: WUSLED_clean_sbu_0, # of connection points: 3
#     Node 18, Type 0, BuildingBlock: WUSLED_clean_sbu_0, # of connection points: 3
#     Node 19, Type 0, BuildingBlock: WUSLED_clean_sbu_0, # of connection points: 3
#     Node 20, Type 0, BuildingBlock: WUSLED_clean_sbu_0, # of connection points: 3
#     Node 21, Type 0, BuildingBlock: WUSLED_clean_sbu_0, # of connection points: 3
#     Node 22, Type 0, BuildingBlock: WUSLED_clean_sbu_0, # of connection points: 3
#     Node 23, Type 0, BuildingBlock: WUSLED_clean_sbu_0, # of connection points: 3
#     Node 24, Type 1, BuildingBlock: QEWDON_clean_sbu_0, # of connection points: 12
#     Node 25, Type 1, BuildingBlock: QEWDON_clean_sbu_0, # of connection points: 12
#     Node 26, Type 1, BuildingBlock: QEWDON_clean_sbu_0, # of connection points: 12
#     Node 27, Type 1, BuildingBlock: QEWDON_clean_sbu_0, # of connection points: 12
#     Node 28, Type 1, BuildingBlock: QEWDON_clean_sbu_0, # of connection points: 12
#     Node 29, Type 1, BuildingBlock: QEWDON_clean_sbu_0, # of connection points: 12
#     Edge 30, Type (0, 1), BuildingBlock: XIVTED_clean_linker_0, # of connection points: 2
#     Edge 31, Type (0, 1), BuildingBlock: XIVTED_clean_linker_0, # of connection points: 2
#     Edge 32, Type (0, 1), BuildingBlock: XIVTED_clean_linker_0, # of connection points: 2
#     Edge 33, Type (0, 1), BuildingBlock: XIVTED_clean_linker_0, # of connection points: 2
#     Edge 34, Type (0, 1), BuildingBlock: XIVTED_clean_linker_0, # of connection points: 2
#     Edge 35, Type (0, 1), BuildingBlock: XIVTED_clean_linker_0, # of connection points: 2
#     Edge 36, Type (0, 1), BuildingBlock: XIVTED_clean_linker_0, # of connection points: 2
#     Edge 37, Type (0, 1), BuildingBlock: XIVTED_clean_linker_0, # of connection points: 2
#     Edge 38, Type (0, 1), BuildingBlock: XIVTED_clean_linker_0, # of connection points: 2
#     Edge 39, Type (0, 1), BuildingBlock: XIVTED_clean_linker_0, # of connection points: 2
#     Edge 40, Type (0, 1), BuildingBlock: XIVTED_clean_linker_0, # of connection points: 2
#     Edge 41, Type (0, 1), BuildingBlock: XIVTED_clean_linker_0, # of connection points: 2
#     Edge 42, Type (0, 1), BuildingBlock: XIVTED_clean_linker_0, # of connection points: 2
#     Edge 43, Type (0, 1), BuildingBlock: XIVTED_clean_linker_0, # of connection points: 2
#     Edge 44, Type (0, 1), BuildingBlock: XIVTED_clean_linker_0, # of connection points: 2
#     Edge 45, Type (0, 1), BuildingBlock: XIVTED_clean_linker_0, # of connection points: 2
#     Edge 46, Type (0, 1), BuildingBlock: XIVTED_clean_linker_0, # of connection points: 2
#     Edge 47, Type (0, 1), BuildingBlock: XIVTED_clean_linker_0, # of connection points: 2
#     Edge 48, Type (0, 1), BuildingBlock: XIVTED_clean_linker_0, # of connection points: 2
#     Edge 49, Type (0, 1), BuildingBlock: XIVTED_clean_linker_0, # of connection points: 2
#     Edge 50, Type (0, 1), BuildingBlock: XIVTED_clean_linker_0, # of connection points: 2
#     Edge 51, Type (0, 1), BuildingBlock: XIVTED_clean_linker_0, # of connection points: 2
#     Edge 52, Type (0, 1), BuildingBlock: XIVTED_clean_linker_0, # of connection points: 2
#     Edge 53, Type (0, 1), BuildingBlock: XIVTED_clean_linker_0, # of connection points: 2
#     Edge 54, Type (0, 1), BuildingBlock: XIVTED_clean_linker_0, # of connection points: 2
#     Edge 55, Type (0, 1), BuildingBlock: XIVTED_clean_linker_0, # of connection points: 2
#     Edge 56, Type (0, 1), BuildingBlock: XIVTED_clean_linker_0, # of connection points: 2
#     Edge 57, Type (0, 1), BuildingBlock: XIVTED_clean_linker_0, # of connection points: 2
#     Edge 58, Type (0, 1), BuildingBlock: XIVTED_clean_linker_0, # of connection points: 2
#     Edge 59, Type (0, 1), BuildingBlock: XIVTED_clean_linker_0, # of connection points: 2
#     Edge 60, Type (0, 1), BuildingBlock: XIVTED_clean_linker_0, # of connection points: 2
#     Edge 61, Type (0, 1), BuildingBlock: XIVTED_clean_linker_0, # of connection points: 2
#     Edge 62, Type (0, 1), BuildingBlock: XIVTED_clean_linker_0, # of connection points: 2
#     Edge 63, Type (0, 1), BuildingBlock: XIVTED_clean_linker_0, # of connection points: 2
#     Edge 64, Type (0, 1), BuildingBlock: XIVTED_clean_linker_0, # of connection points: 2
#     Edge 65, Type (0, 1), BuildingBlock: XIVTED_clean_linker_0, # of connection points: 2
#     Edge 66, Type (0, 1), BuildingBlock: XIVTED_clean_linker_0, # of connection points: 2
#     Edge 67, Type (0, 1), BuildingBlock: XIVTED_clean_linker_0, # of connection points: 2
#     Edge 68, Type (0, 1), BuildingBlock: XIVTED_clean_linker_0, # of connection points: 2
#     Edge 69, Type (0, 1), BuildingBlock: XIVTED_clean_linker_0, # of connection points: 2
#     Edge 70, Type (0, 1), BuildingBlock: XIVTED_clean_linker_0, # of connection points: 2
#     Edge 71, Type (0, 1), BuildingBlock: XIVTED_clean_linker_0, # of connection points: 2
#     Edge 72, Type (0, 1), BuildingBlock: XIVTED_clean_linker_0, # of connection points: 2
#     Edge 73, Type (0, 1), BuildingBlock: XIVTED_clean_linker_0, # of connection points: 2
#     Edge 74, Type (0, 1), BuildingBlock: XIVTED_clean_linker_0, # of connection points: 2
#     Edge 75, Type (0, 1), BuildingBlock: XIVTED_clean_linker_0, # of connection points: 2
#     Edge 76, Type (0, 1), BuildingBlock: XIVTED_clean_linker_0, # of connection points: 2
#     Edge 77, Type (0, 1), BuildingBlock: XIVTED_clean_linker_0, # of connection points: 2
#     Edge 78, Type (0, 1), BuildingBlock: XIVTED_clean_linker_0, # of connection points: 2
#     Edge 79, Type (0, 1), BuildingBlock: XIVTED_clean_linker_0, # of connection points: 2
#     Edge 80, Type (0, 1), BuildingBlock: XIVTED_clean_linker_0, # of connection points: 2
#     Edge 81, Type (0, 1), BuildingBlock: XIVTED_clean_linker_0, # of connection points: 2
#     Edge 82, Type (0, 1), BuildingBlock: XIVTED_clean_linker_0, # of connection points: 2
#     Edge 83, Type (0, 1), BuildingBlock: XIVTED_clean_linker_0, # of connection points: 2
#     Edge 84, Type (0, 1), BuildingBlock: XIVTED_clean_linker_0, # of connection points: 2
#     Edge 85, Type (0, 1), BuildingBlock: XIVTED_clean_linker_0, # of connection points: 2
#     Edge 86, Type (0, 1), BuildingBlock: XIVTED_clean_linker_0, # of connection points: 2
#     Edge 87, Type (0, 1), BuildingBlock: XIVTED_clean_linker_0, # of connection points: 2
#     Edge 88, Type (0, 1), BuildingBlock: XIVTED_clean_linker_0, # of connection points: 2
#     Edge 89, Type (0, 1), BuildingBlock: XIVTED_clean_linker_0, # of connection points: 2
#     Edge 90, Type (0, 1), BuildingBlock: XIVTED_clean_linker_0, # of connection points: 2
#     Edge 91, Type (0, 1), BuildingBlock: XIVTED_clean_linker_0, # of connection points: 2
#     Edge 92, Type (0, 1), BuildingBlock: XIVTED_clean_linker_0, # of connection points: 2
#     Edge 93, Type (0, 1), BuildingBlock: XIVTED_clean_linker_0, # of connection points: 2
#     Edge 94, Type (0, 1), BuildingBlock: XIVTED_clean_linker_0, # of connection points: 2
#     Edge 95, Type (0, 1), BuildingBlock: XIVTED_clean_linker_0, # of connection points: 2
#     Edge 96, Type (0, 1), BuildingBlock: XIVTED_clean_linker_0, # of connection points: 2
#     Edge 97, Type (0, 1), BuildingBlock: XIVTED_clean_linker_0, # of connection points: 2
#     Edge 98, Type (0, 1), BuildingBlock: XIVTED_clean_linker_0, # of connection points: 2
#     Edge 99, Type (0, 1), BuildingBlock: XIVTED_clean_linker_0, # of connection points: 2
#     Edge 100, Type (0, 1), BuildingBlock: XIVTED_clean_linker_0, # of connection points: 2
#     Edge 101, Type (0, 1), BuildingBlock: XIVTED_clean_linker_0, # of connection points: 2
# Relax obj value: 0.122
# Max RMSD: 0.156
# Mean RMSD: 0.140
data_MOF--net-llk--node1-WUSLED_clean_sbu_0--node2-QEWDON_clean_sbu_0--edge1-XIVTED_clean_linker_0
_symmetry_space_group_name_H-M    P1
_symmetry_Int_Tables_number       1
_symmetry_cell_setting            triclinic
loop_
_symmetry_equiv_pos_as_xyz
'x, y, z'
_cell_length_a     58.940641
_cell_length_b     61.135708
_cell_length_c     60.003645
_cell_angle_alpha  90.073618
_cell_angle_beta   89.898816
_cell_angle_gamma 89.645258
loop_
_atom_site_label
_atom_site_type_symbol
_atom_site_fract_x
_atom_site_fract_y
_atom_site_fract_z
_atom_type_partial_charge
C0 C 0.02906 0.29702 0.20054 0.0
C1 C 0.02471 0.31847 0.20772 0.0
C2 C 0.02739 0.33163 0.16932 0.0
C3 C 0.02383 0.33561 0.19224 0.0
C4 C 0.03166 0.31001 0.16233 0.0
C5 C 0.03247 0.29292 0.17779 0.0
U6 U 0.03305 0.27107 0.2594 0.0
O7 O 0.01585 0.24113 0.27062 0.0
O8 O 0.0531 0.24189 0.26851 0.0
C9 C 0.03498 0.23018 0.2728 0.0
C10 C 0.03021 0.27858 0.21628 0.0
C11 C 0.03641 0.214 0.29086 0.0
C12 C 0.03542 0.17562 0.30159 0.0
C13 C 0.03492 0.19178 0.28513 0.0
C14 C 0.03907 0.20375 0.32984 0.0
C15 C 0.03726 0.1815 0.32407 0.0
C16 C 0.03879 0.21995 0.3133 0.0
C17 C 0.03504 0.3189 0.30589 0.0
C18 C 0.03413 0.32505 0.346 0.0
C19 C 0.03543 0.35583 0.32064 0.0
C20 C 0.03585 0.34153 0.30259 0.0
C21 C 0.03416 0.34784 0.34253 0.0
C22 C 0.03442 0.31059 0.3277 0.0
C23 C 0.03408 0.3051 0.28583 0.0
O24 O 0.04953 0.276 0.22683 0.0
O25 O 0.01244 0.27576 0.22919 0.0
O26 O 0.01512 0.29513 0.28057 0.0
O27 O 0.05262 0.29577 0.27802 0.0
H28 H 0.02198 0.32195 0.22523 0.0
H29 H 0.02015 0.35196 0.19824 0.0
H30 H 0.03479 0.3063 0.14494 0.0
H31 H 0.0359 0.27644 0.17197 0.0
H32 H 0.03358 0.15862 0.29682 0.0
H33 H 0.03299 0.18692 0.26786 0.0
H34 H 0.04029 0.20856 0.34717 0.0
H35 H 0.04 0.23701 0.31801 0.0
H36 H 0.03308 0.31849 0.36273 0.0
H37 H 0.03576 0.37326 0.31743 0.0
H38 H 0.0364 0.34824 0.28588 0.0
H39 H 0.0338 0.29311 0.33054 0.0
C40 C 0.82495 0.05193 0.27819 0.0
C41 C 0.81737 0.0572 0.2997 0.0
C42 C 0.85476 0.04903 0.31432 0.0
C43 C 0.83225 0.05591 0.31765 0.0
C44 C 0.86241 0.04399 0.29275 0.0
C45 C 0.84755 0.04556 0.27471 0.0
U46 U 0.76446 0.05179 0.25834 0.0
O47 O 0.74899 0.03122 0.23245 0.0
O48 O 0.74973 0.06721 0.22851 0.0
C49 C 0.74488 0.04817 0.21956 0.0
C50 C 0.80885 0.05133 0.25977 0.0
C51 C 0.72645 0.04697 0.20337 0.0
C52 C 0.71561 0.04895 0.16448 0.0
C53 C 0.73216 0.04998 0.18093 0.0
C54 C 0.68721 0.04173 0.1928 0.0
C55 C 0.69293 0.04496 0.17021 0.0
C56 C 0.70394 0.04266 0.20934 0.0
C57 C 0.72149 0.05506 0.30848 0.0
C58 C 0.68106 0.04815 0.30995 0.0
C59 C 0.70228 0.05325 0.34415 0.0
C60 C 0.72194 0.05659 0.33176 0.0
C61 C 0.68181 0.04835 0.33339 0.0
C62 C 0.70089 0.05134 0.29752 0.0
C63 C 0.74326 0.05511 0.29669 0.0
O64 O 0.79659 0.03349 0.25907 0.0
O65 O 0.79689 0.0693 0.25683 0.0
O66 O 0.74806 0.07215 0.28424 0.0
O67 O 0.74971 0.03636 0.28793 0.0
H68 H 0.79983 0.0618 0.30267 0.0
H69 H 0.82598 0.05952 0.33425 0.0
H70 H 0.87973 0.03863 0.28994 0.0
H71 H 0.85351 0.0413 0.25816 0.0
H72 H 0.72051 0.05171 0.14731 0.0
H73 H 0.74956 0.05323 0.17611 0.0
H74 H 0.66986 0.03835 0.19761 0.0
H75 H 0.69935 0.04011 0.22663 0.0
H76 H 0.66545 0.04436 0.30131 0.0
H77 H 0.70321 0.05381 0.36218 0.0
H78 H 0.73776 0.05948 0.34045 0.0
H79 H 0.70033 0.05006 0.27952 0.0
C80 C 0.01466 0.83008 0.28631 0.0
C81 C 0.009 0.82385 0.30812 0.0
C82 C 0.01775 0.86054 0.32151 0.0
C83 C 0.01045 0.839 0.32559 0.0
C84 C 0.02357 0.86647 0.29957 0.0
C85 C 0.02194 0.85142 0.28218 0.0
U86 U 0.01399 0.77195 0.26265 0.0
O87 O 0.99524 0.75969 0.23351 0.0
O88 O 0.03265 0.75954 0.23332 0.0
C89 C 0.01391 0.75585 0.2221 0.0
C90 C 0.01382 0.81458 0.26764 0.0
C91 C 0.01382 0.73795 0.20573 0.0
C92 C 0.01107 0.72748 0.16674 0.0
C93 C 0.0119 0.74361 0.18318 0.0
C94 C 0.01437 0.69958 0.19521 0.0
C95 C 0.01209 0.70522 0.17251 0.0
C96 C 0.01525 0.71584 0.21173 0.0
C97 C 0.01607 0.73076 0.31491 0.0
C98 C 0.01806 0.69201 0.3235 0.0
C99 C 0.01959 0.71883 0.35325 0.0
C100 C 0.01765 0.73555 0.33766 0.0
C101 C 0.01984 0.69683 0.34643 0.0
C102 C 0.01619 0.70892 0.30778 0.0
C103 C 0.01509 0.74934 0.29954 0.0
O104 O 0.0324 0.80305 0.26448 0.0
O105 O 0.9952 0.80299 0.26584 0.0
O106 O 0.996 0.75421 0.28932 0.0
O107 O 0.03356 0.75513 0.28881 0.0
H108 H 0.00347 0.80733 0.31162 0.0
H109 H 0.0056 0.83391 0.3422 0.0
H110 H 0.02972 0.8827 0.2958 0.0
H111 H 0.02657 0.85641 0.26547 0.0
H112 H 0.0091 0.73247 0.14954 0.0
H113 H 0.01079 0.76064 0.17826 0.0
H114 H 0.01558 0.68259 0.20017 0.0
H115 H 0.01691 0.7112 0.22907 0.0
H116 H 0.01794 0.67521 0.31776 0.0
H117 H 0.02132 0.72322 0.37065 0.0
H118 H 0.01769 0.75237 0.3434 0.0
H119 H 0.01496 0.705 0.29022 0.0
C120 C 0.20587 0.99823 0.2647 0.0
C121 C 0.21213 0.99719 0.28721 0.0
C122 C 0.17272 0.99963 0.29854 0.0
C123 C 0.19581 0.99791 0.30392 0.0
C124 C 0.16631 1.00078 0.27596 0.0
C125 C 0.18285 1.00001 0.25908 0.0
U126 U 0.26716 0.99606 0.25746 0.0
O127 O 0.29133 0.97901 0.23538 0.0
O128 O 0.29219 0.01499 0.23856 0.0
C129 C 0.30131 0.99736 0.22963 0.0
C130 C 0.22403 0.99799 0.24788 0.0
C131 C 0.31005 0.99924 0.20692 0.0
C132 C 0.30612 1.00071 0.16662 0.0
C133 C 0.29627 0.99843 0.18785 0.0
C134 C 0.34313 0.00457 0.18377 0.0
C135 C 0.32963 0.00391 0.16462 0.0
C136 C 0.33343 1.00222 0.2047 0.0
C137 C 0.29792 0.99405 0.31316 0.0
C138 C 0.33894 0.9958 0.31633 0.0
C139 C 0.31522 0.99734 0.34944 0.0
C140 C 0.29591 0.99549 0.33632 0.0
C141 C 0.33674 0.99771 0.33952 0.0
C142 C 0.31949 0.99404 0.30312 0.0
C143 C 0.27721 0.99406 0.29987 0.0
O144 O 0.23698 0.01544 0.2484 0.0
O145 O 0.23575 0.97961 0.24708 0.0
O146 O 0.27378 0.97659 0.28759 0.0
O147 O 0.27299 0.01249 0.28943 0.0
H148 H 0.22979 0.99598 0.29191 0.0
H149 H 0.20135 0.99747 0.32112 0.0
H150 H 0.14858 1.00208 0.27141 0.0
H151 H 0.17772 1.00089 0.24178 0.0
H152 H 0.29549 1.00023 0.15192 0.0
H153 H 0.27813 0.99617 0.1894 0.0
H154 H 0.3613 0.00698 0.1825 0.0
H155 H 0.34427 1.00286 0.21927 0.0
H156 H 0.35552 0.99618 0.30853 0.0
H157 H 0.31337 0.99885 0.36735 0.0
H158 H 0.27937 0.99566 0.34423 0.0
H159 H 0.32119 0.9931 0.28516 0.0
C160 C 0.99381 0.74501 0.82305 0.0
C161 C 0.99272 0.72324 0.81583 0.0
C162 C -0.00176 0.71051 0.85406 0.0
C163 C 0.99492 0.70616 0.83119 0.0
C164 C -0.00097 0.73244 0.86115 0.0
C165 C 0.99684 0.7495 0.84576 0.0
U166 U 0.99038 0.77008 0.76395 0.0
O167 O 0.00974 0.79853 0.75241 0.0
O168 O 0.97244 0.80038 0.75442 0.0
C169 C 0.99144 0.81071 0.75008 0.0
C170 C 0.9928 0.76327 0.80718 0.0
C171 C 0.99131 0.82681 0.73203 0.0
C172 C 0.98971 0.86515 0.72173 0.0
C173 C 0.98884 0.84887 0.73793 0.0
C174 C 0.99528 0.8374 0.6933 0.0
C175 C 0.99303 0.85964 0.69924 0.0
C176 C 0.99449 0.82105 0.70963 0.0
C177 C 0.98696 0.72276 0.71725 0.0
C178 C 0.98617 0.71798 0.67691 0.0
C179 C 0.98939 0.68644 0.70115 0.0
C180 C 0.98852 0.70005 0.71972 0.0
C181 C 0.98862 0.6952 0.67959 0.0
C182 C 0.98543 0.73179 0.69575 0.0
C183 C 0.98799 0.73584 0.73782 0.0
O184 O 0.01066 0.76545 0.7943 0.0
O185 O 0.97356 0.76603 0.79649 0.0
O186 O 0.96986 0.74638 0.74496 0.0
O187 O 0.00736 0.74468 0.74373 0.0
H188 H 0.99053 0.71949 0.79832 0.0
H189 H 0.99457 0.68951 0.82502 0.0
H190 H 0.00125 0.73645 0.87859 0.0
H191 H -0.00228 0.76626 0.85158 0.0
H192 H 0.98768 0.88206 0.72683 0.0
H193 H 0.98645 0.85356 0.75521 0.0
H194 H -0.00186 0.8327 0.67611 0.0
H195 H 0.99661 0.80407 0.70486 0.0
H196 H 0.98576 0.72507 0.66039 0.0
H197 H 0.99132 0.66897 0.70363 0.0
H198 H 0.98969 0.69279 0.73615 0.0
H199 H 0.98422 0.74934 0.69355 0.0
C200 C 0.21473 0.01892 0.7536 0.0
C201 C 0.22274 0.0237 0.73214 0.0
C202 C 0.18494 0.02004 0.717 0.0
C203 C 0.20807 0.02425 0.71408 0.0
C204 C 0.17675 0.01491 0.73841 0.0
C205 C 0.19162 0.01441 0.75671 0.0
U206 U 0.27507 0.01834 0.76449 0.0
O207 O 0.29882 0.03215 0.78887 0.0
O208 O 0.29838 0.99657 0.78261 0.0
C209 C 0.30741 0.01282 0.79379 0.0
C210 C 0.23147 0.01745 0.77169 0.0
C211 C 0.31369 0.0085 0.81702 0.0
C212 C 0.31261 0.01713 0.85656 0.0
C213 C 0.3032 0.01902 0.83518 0.0
C214 C 0.3419 0.99309 0.84185 0.0
C215 C 0.33237 0.00451 0.8599 0.0
C216 C 0.33272 0.99517 0.82063 0.0
C217 C 0.30806 0.02058 0.70989 0.0
C218 C 0.34897 0.02314 0.70674 0.0
C219 C 0.32695 0.00702 0.67687 0.0
C220 C 0.30714 0.01086 0.68883 0.0
C221 C 0.34809 0.01319 0.6856 0.0
C222 C 0.32904 0.02668 0.71891 0.0
C223 C 0.28705 0.02207 0.72269 0.0
O224 O 0.24398 0.99959 0.77086 0.0
O225 O 0.24357 0.03528 0.77456 0.0
O226 O 0.28453 0.03905 0.73597 0.0
O227 O 0.2809 0.00352 0.73176 0.0
H228 H 0.2405 0.02691 0.72928 0.0
H229 H 0.2149 0.02779 0.69769 0.0
H230 H 0.15891 0.01153 0.74097 0.0
H231 H 0.18518 0.01042 0.77312 0.0
H232 H 0.30512 0.02624 0.87024 0.0
H233 H 0.28848 0.02942 0.83268 0.0
H234 H 0.35748 0.98379 0.84382 0.0
H235 H 0.34125 0.98723 0.80676 0.0
H236 H 0.36497 0.02829 0.71381 0.0
H237 H 0.32567 0.99883 0.66091 0.0
H238 H 0.29108 0.00572 0.68186 0.0
H239 H 0.33004 0.03391 0.73537 0.0
C240 C 0.01159 0.21023 0.73685 0.0
C241 C 0.00737 0.21654 0.71474 0.0
C242 C 0.01103 0.17865 0.70272 0.0
C243 C 0.00703 0.20079 0.69776 0.0
C244 C 0.01524 0.17241 0.72481 0.0
C245 C 0.01539 0.1881 0.74178 0.0
U246 U 0.01428 0.26909 0.75962 0.0
O247 O -0.00267 0.28207 0.78971 0.0
O248 O 0.03469 0.28065 0.788 0.0
C249 C 0.01665 0.28494 0.80021 0.0
C250 C 0.01257 0.22636 0.755 0.0
C251 C 0.01802 0.30218 0.81726 0.0
C252 C 0.01826 0.31129 0.85676 0.0
C253 C 0.01722 0.29576 0.8397 0.0
C254 C 0.02109 0.34004 0.82913 0.0
C255 C 0.02015 0.33353 0.8516 0.0
C256 C 0.02008 0.32442 0.81199 0.0
C257 C 0.01399 0.31074 0.70756 0.0
C258 C 0.01038 0.34944 0.69895 0.0
C259 C 0.0165 0.32316 0.66924 0.0
C260 C 0.01686 0.3063 0.68483 0.0
C261 C 0.01332 0.34496 0.67605 0.0
C262 C 0.01071 0.3324 0.71465 0.0
C263 C 0.01382 0.29195 0.72279 0.0
O264 O 0.03163 0.23725 0.7566 0.0
O265 O 0.99449 0.23875 0.75768 0.0
O266 O 0.99528 0.28743 0.73407 0.0
O267 O 0.03276 0.28553 0.73239 0.0
H268 H 0.00461 0.2336 0.71061 0.0
H269 H 0.0042 0.20591 0.68071 0.0
H270 H 0.01868 0.15545 0.72888 0.0
H271 H 0.01877 0.183 0.75874 0.0
H272 H 0.01729 0.30598 0.87396 0.0
H273 H 0.01563 0.27863 0.84406 0.0
H274 H 0.02235 0.35721 0.82491 0.0
H275 H 0.02072 0.32966 0.79476 0.0
H276 H 0.00808 0.3661 0.70473 0.0
H277 H 0.01837 0.31903 0.65178 0.0
H278 H 0.01919 0.28963 0.67904 0.0
H279 H 0.00839 0.33608 0.73217 0.0
C280 C 0.75481 0.04885 0.83241 0.0
C281 C 0.7327 0.05338 0.82505 0.0
C282 C 0.71756 0.04586 0.86196 0.0
C283 C 0.71436 0.05197 0.83961 0.0
C284 C 0.73984 0.04191 0.86957 0.0
C285 C 0.75835 0.04326 0.85481 0.0
U286 U 0.76761 0.04805 0.77268 0.0
O287 O 0.79223 0.06403 0.75044 0.0
O288 O 0.7895 0.02803 0.75102 0.0
C289 C 0.79917 0.04524 0.74209 0.0
C290 C 0.77326 0.0483 0.81583 0.0
C291 C 0.82293 0.04309 0.73537 0.0
C292 C 0.86349 0.04089 0.74251 0.0
C293 C 0.84118 0.04362 0.75042 0.0
C294 C 0.84904 0.03712 0.70486 0.0
C295 C 0.86736 0.03746 0.71966 0.0
C296 C 0.82706 0.03994 0.71264 0.0
C297 C 0.71555 0.04765 0.73603 0.0
C298 C 0.71918 0.04151 0.69621 0.0
C299 C 0.68199 0.04673 0.7129 0.0
C300 C 0.69196 0.04899 0.73383 0.0
C301 C 0.69553 0.04284 0.69402 0.0
C302 C 0.72917 0.04404 0.71714 0.0
C303 C 0.72573 0.04902 0.75819 0.0
O304 O 0.77394 0.03023 0.80393 0.0
O305 O 0.77497 0.06609 0.8036 0.0
O306 O 0.73746 0.0668 0.76219 0.0
O307 O 0.736 0.03104 0.76472 0.0
H308 H 0.72954 0.0576 0.80781 0.0
H309 H 0.69754 0.0555 0.83325 0.0
H310 H 0.74284 0.03708 0.88667 0.0
H311 H 0.77528 0.0395 0.86074 0.0
H312 H 0.87757 0.04133 0.75407 0.0
H313 H 0.83816 0.04605 0.76806 0.0
H314 H 0.8518 0.03471 0.68715 0.0
H315 H 0.81316 0.03954 0.70083 0.0
H316 H 0.72985 0.03874 0.68174 0.0
H317 H 0.66369 0.04775 0.71144 0.0
H318 H 0.68126 0.05162 0.7483 0.0
H319 H 0.74747 0.04298 0.71865 0.0
C320 C 0.19125 0.29536 0.03224 0.0
C321 C 0.19783 0.31672 0.0376 0.0
C322 C 0.15972 0.32966 0.02956 0.0
C323 C 0.18205 0.3338 0.03643 0.0
C324 C 0.15325 0.30828 0.02415 0.0
C325 C 0.16892 0.29119 0.02563 0.0
U326 U 0.25169 0.27203 0.03204 0.0
O327 O 0.26248 0.24362 0.01239 0.0
O328 O 0.26417 0.24241 0.04912 0.0
C329 C 0.2667 0.23179 0.03019 0.0
C330 C 0.20755 0.27731 0.03245 0.0
C331 C 0.28493 0.21574 0.02839 0.0
C332 C 0.29522 0.17745 0.02516 0.0
C333 C 0.27893 0.19361 0.02894 0.0
C334 C 0.32376 0.20555 0.02052 0.0
C335 C 0.3177 0.18331 0.02065 0.0
C336 C 0.30741 0.22176 0.02437 0.0
C337 C 0.29877 0.31861 0.03125 0.0
C338 C 0.33956 0.32034 0.02533 0.0
C339 C 0.31769 0.35368 0.03045 0.0
C340 C 0.29805 0.34143 0.03298 0.0
C341 C 0.33857 0.34336 0.02616 0.0
C342 C 0.31966 0.30797 0.0277 0.0
C343 C 0.27693 0.30719 0.03194 0.0
O344 O 0.21945 0.27509 0.01408 0.0
O345 O 0.21969 0.27512 0.05067 0.0
O346 O 0.27108 0.29703 0.05037 0.0
O347 O 0.26986 0.29762 0.01361 0.0
H348 H 0.21516 0.32018 0.04241 0.0
H349 H 0.18739 0.3503 0.04028 0.0
H350 H 0.13611 0.30485 0.01872 0.0
H351 H 0.16372 0.27475 0.0213 0.0
H352 H 0.29016 0.16044 0.02526 0.0
H353 H 0.26149 0.18884 0.03182 0.0
H354 H 0.34115 0.21037 0.01746 0.0
H355 H 0.31218 0.23883 0.02385 0.0
H356 H 0.35551 0.31203 0.02208 0.0
H357 H 0.31647 0.37135 0.03157 0.0
H358 H 0.28208 0.3499 0.03579 0.0
H359 H 0.32049 0.29032 0.02632 0.0
C360 C 0.26844 0.84209 0.02382 0.0
C361 C 0.29081 0.8343 0.02284 0.0
C362 C 0.30453 0.87168 0.02182 0.0
C363 C 0.30875 0.849 0.02185 0.0
C364 C 0.28203 0.87937 0.0225 0.0
C365 C 0.26408 0.86461 0.02355 0.0
U366 U 0.24589 0.78414 0.02527 0.0
O367 O 0.21596 0.77186 0.00755 0.0
O368 O 0.2168 0.77159 0.04435 0.0
C369 C 0.20482 0.76831 0.02619 0.0
C370 C 0.24957 0.82681 0.02487 0.0
C371 C 0.18785 0.75103 0.02631 0.0
C372 C 0.14788 0.74164 0.02604 0.0
C373 C 0.16492 0.75734 0.02688 0.0
C374 C 0.17667 0.71313 0.02421 0.0
C375 C 0.15371 0.7195 0.02458 0.0
C376 C 0.19375 0.72887 0.02513 0.0
C377 C 0.29711 0.74111 0.0228 0.0
C378 C 0.30155 0.70164 0.02574 0.0
C379 C 0.33386 0.72414 0.01624 0.0
C380 C 0.32022 0.74277 0.01762 0.0
C381 C 0.32469 0.70335 0.0201 0.0
C382 C 0.28776 0.72045 0.02699 0.0
C383 C 0.28388 0.76155 0.02377 0.0
O384 O 0.24666 0.81507 0.00679 0.0
O385 O 0.24827 0.81533 0.04331 0.0
O386 O 0.27367 0.76683 0.04255 0.0
O387 O 0.27273 0.7676 0.00582 0.0
H388 H 0.29436 0.81688 0.02287 0.0
H389 H 0.32592 0.84264 0.02101 0.0
H390 H 0.27835 0.89675 0.02265 0.0
H391 H 0.24681 0.87076 0.02424 0.0
H392 H 0.13025 0.74678 0.02601 0.0
H393 H 0.16019 0.77449 0.02762 0.0
H394 H 0.18132 0.69601 0.02288 0.0
H395 H 0.21139 0.72381 0.0246 0.0
H396 H 0.29409 0.68577 0.02878 0.0
H397 H 0.35169 0.72601 0.01229 0.0
H398 H 0.32778 0.75862 0.01458 0.0
H399 H 0.26995 0.7189 0.03109 0.0
C400 C 0.77508 0.20384 0.01555 0.0
C401 C 0.75235 0.21067 0.01483 0.0
C402 C 0.74061 0.17284 0.01157 0.0
C403 C 0.73518 0.19521 0.0128 0.0
C404 C 0.76336 0.16607 0.01294 0.0
C405 C 0.78052 0.18155 0.01481 0.0
U406 U 0.79597 0.26237 0.0114 0.0
O407 O 0.82458 0.27347 0.99093 0.0
O408 O 0.82577 0.27701 0.02762 0.0
C409 C 0.83664 0.27874 0.00853 0.0
C410 C 0.79331 0.2198 0.01512 0.0
C411 C 0.85406 0.29541 0.00614 0.0
C412 C 0.89416 0.30396 0.00704 0.0
C413 C 0.87671 0.28882 0.0089 0.0
C414 C 0.86646 0.33238 0.99895 0.0
C415 C 0.88912 0.3258 0.00213 0.0
C416 C 0.84891 0.3172 1.00096 0.0
C417 C 0.74447 0.30472 0.00721 0.0
C418 C 0.73744 0.34326 0.0149 0.0
C419 C 0.70786 0.32097 0.99871 0.0
C420 C 0.72243 0.30297 0.99875 0.0
C421 C 0.71497 0.34121 0.00724 0.0
C422 C 0.75211 0.32504 0.01501 0.0
C423 C 0.75769 0.28436 0.0094 0.0
O424 O 0.79558 0.2299 0.99598 0.0
O425 O 0.79449 0.23294 0.03242 0.0
O426 O 0.76868 0.28084 0.02814 0.0
O427 O 0.76801 0.27656 0.99163 0.0
H428 H 0.74797 0.22791 0.0153 0.0
H429 H 0.71769 0.20071 0.01202 0.0
H430 H 0.76787 0.1489 0.01189 0.0
H431 H 0.79807 0.17615 0.01513 0.0
H432 H 0.91153 0.29873 0.00983 0.0
H433 H 0.88087 0.27196 0.01279 0.0
H434 H 0.86236 0.34936 0.99559 0.0
H435 H 0.83146 0.32244 0.99877 0.0
H436 H 0.74336 0.35865 0.02161 0.0
H437 H 0.69083 0.31892 0.99231 0.0
H438 H 0.71619 0.28739 0.99275 0.0
H439 H 0.76906 0.32667 0.0217 0.0
C440 C 0.84479 0.75238 0.01086 0.0
C441 C 0.83826 0.73049 0.01293 0.0
C442 C 0.877 0.71903 0.00545 0.0
C443 C 0.85436 0.71388 0.01034 0.0
C444 C 0.88349 0.7409 0.00318 0.0
C445 C 0.86739 0.75754 0.00589 0.0
U446 U 0.78386 0.7744 0.01391 0.0
O447 O 0.77123 0.80315 0.03253 0.0
O448 O 0.77224 0.80338 0.99574 0.0
C449 C 0.76828 0.81448 0.01412 0.0
C450 C 0.82813 0.77002 0.01283 0.0
C451 C 0.7501 0.83068 0.01338 0.0
C452 C 0.73988 0.86913 0.01225 0.0
C453 C 0.7562 0.85276 0.01482 0.0
C454 C 0.71117 0.84133 0.00678 0.0
C455 C 0.71732 0.8635 0.00797 0.0
C456 C 0.72752 0.82492 0.00952 0.0
C457 C 0.73769 0.72672 0.01089 0.0
C458 C 0.69738 0.72151 0.01803 0.0
C459 C 0.71984 0.69218 0.0019 0.0
C460 C 0.73895 0.7054 0.00244 0.0
C461 C 0.69885 0.69985 0.00999 0.0
C462 C 0.71675 0.73488 0.01857 0.0
C463 C 0.75912 0.73892 0.01214 0.0
O464 O 0.81568 0.77304 0.99501 0.0
O465 O 0.8164 0.77073 0.03148 0.0
O466 O 0.76475 0.74841 0.03101 0.0
O467 O 0.76616 0.74927 0.99425 0.0
H468 H 0.8208 0.72631 0.01657 0.0
H469 H 0.84924 0.697 0.01236 0.0
H470 H 0.90098 0.74505 0.99972 0.0
H471 H 0.87256 0.77443 0.00413 0.0
H472 H 0.74492 0.88613 0.01315 0.0
H473 H 0.77372 0.85735 0.01751 0.0
H474 H 0.69371 0.83677 0.00376 0.0
H475 H 0.72266 0.80791 0.00828 0.0
H476 H 0.68147 0.7279 0.02442 0.0
H477 H 0.72159 0.67582 0.99512 0.0
H478 H 0.75495 0.69879 0.99646 0.0
H479 H 0.71545 0.75132 0.02521 0.0
C480 C 0.52519 0.79292 0.68783 0.0
C481 C 0.52499 0.81463 0.69537 0.0
C482 C 0.52475 0.82787 0.65693 0.0
C483 C 0.52479 0.83193 0.68007 0.0
C484 C 0.52459 0.80604 0.6495 0.0
C485 C 0.52489 0.78875 0.66482 0.0
U486 U 0.52962 0.76765 0.74679 0.0
O487 O 0.54908 0.73817 0.75644 0.0
O488 O 0.51189 0.73845 0.75919 0.0
C489 C 0.53073 0.72702 0.7613 0.0
C490 C 0.52608 0.77438 0.70354 0.0
C491 C 0.53193 0.71089 0.77955 0.0
C492 C 0.53217 0.67247 0.79049 0.0
C493 C 0.5325 0.68857 0.77392 0.0
C494 C 0.53091 0.70085 0.81868 0.0
C495 C 0.531 0.67846 0.81303 0.0
C496 C 0.53147 0.71697 0.80207 0.0
C497 C 0.53373 0.81631 0.79219 0.0
C498 C 0.52578 0.82428 0.83116 0.0
C499 C 0.54091 0.85258 0.80726 0.0
C500 C 0.54129 0.83785 0.78946 0.0
C501 C 0.53286 0.84609 0.82824 0.0
C502 C 0.5262 0.80946 0.81324 0.0
C503 C 0.5321 0.80255 0.77208 0.0
O504 O 0.54552 0.77134 0.71377 0.0
O505 O 0.50852 0.77217 0.71684 0.0
O506 O 0.51286 0.7927 0.76757 0.0
O507 O 0.55022 0.79259 0.76413 0.0
H508 H 0.52512 0.81819 0.71307 0.0
H509 H 0.52458 0.84854 0.68638 0.0
H510 H 0.52476 0.80232 0.63184 0.0
H511 H 0.5251 0.77207 0.65869 0.0
H512 H 0.53198 0.65538 0.78568 0.0
H513 H 0.53272 0.68355 0.75658 0.0
H514 H 0.53008 0.70583 0.836 0.0
H515 H 0.53106 0.73409 0.80676 0.0
H516 H 0.51962 0.8188 0.84722 0.0
H517 H 0.54608 0.86931 0.80434 0.0
H518 H 0.54684 0.84354 0.77325 0.0
H519 H 0.52021 0.79292 0.81568 0.0
C520 C 0.35522 0.54766 0.77369 0.0
C521 C 0.3481 0.55291 0.79541 0.0
C522 C 0.38617 0.54605 0.8095 0.0
C523 C 0.36349 0.55229 0.81312 0.0
C524 C 0.39322 0.54048 0.78782 0.0
C525 C 0.37787 0.54143 0.77001 0.0
U526 U 0.29431 0.54751 0.75523 0.0
O527 O 0.27561 0.56505 0.72866 0.0
O528 O 0.27679 0.52864 0.72926 0.0
C529 C 0.26888 0.5465 0.71981 0.0
C530 C 0.3388 0.54785 0.75515 0.0
C531 C 0.25867 0.54557 0.6976 0.0
C532 C 0.26053 0.5394 0.65756 0.0
C533 C 0.27153 0.54242 0.6781 0.0
C534 C 0.2241 0.54309 0.67611 0.0
C535 C 0.23671 0.53932 0.65666 0.0
C536 C 0.23498 0.54625 0.69638 0.0
C537 C 0.25176 0.54528 0.80463 0.0
C538 C 0.21048 0.54613 0.80361 0.0
C539 C 0.23021 0.53988 0.83847 0.0
C540 C 0.25094 0.54129 0.82752 0.0
C541 C 0.20977 0.54255 0.82677 0.0
C542 C 0.23145 0.54757 0.79255 0.0
C543 C 0.27425 0.54662 0.79426 0.0
O544 O 0.32692 0.52986 0.75305 0.0
O545 O 0.32636 0.56572 0.75342 0.0
O546 O 0.27921 0.56488 0.78384 0.0
O547 O 0.28129 0.52897 0.7838 0.0
H548 H 0.33059 0.5574 0.79869 0.0
H549 H 0.35758 0.55634 0.82974 0.0
H550 H 0.41063 0.5356 0.78466 0.0
H551 H 0.38363 0.53715 0.7534 0.0
H552 H 0.27048 0.53653 0.64264 0.0
H553 H 0.28988 0.54181 0.67886 0.0
H554 H 0.20571 0.5431 0.67567 0.0
H555 H 0.22483 0.54857 0.71129 0.0
H556 H 0.19493 0.54826 0.79424 0.0
H557 H 0.2302 0.53668 0.85623 0.0
H558 H 0.26643 0.53928 0.83702 0.0
H559 H 0.23185 0.55055 0.77476 0.0
C560 C 0.48422 0.3341 0.78135 0.0
C561 C 0.48535 0.32748 0.80369 0.0
C562 C 0.48928 0.36553 0.8157 0.0
C563 C 0.48789 0.34304 0.82068 0.0
C564 C 0.48731 0.37213 0.79335 0.0
C565 C 0.48492 0.35654 0.77635 0.0
U566 U 0.48434 0.27547 0.75546 0.0
O567 O 0.5034 0.26565 0.72534 0.0
O568 O 0.46616 0.2648 0.7252 0.0
C569 C 0.48495 0.26195 0.71369 0.0
C570 C 0.48364 0.31807 0.76289 0.0
C571 C 0.48569 0.24421 0.69693 0.0
C572 C 0.48763 0.23396 0.65766 0.0
C573 C 0.48673 0.25001 0.67431 0.0
C574 C 0.48632 0.20586 0.68599 0.0
C575 C 0.48742 0.21162 0.66323 0.0
C576 C 0.48551 0.222 0.7027 0.0
C577 C 0.48597 0.23033 0.80517 0.0
C578 C 0.48516 0.19114 0.81264 0.0
C579 C 0.48907 0.21672 0.84318 0.0
C580 C 0.4883 0.23411 0.82809 0.0
C581 C 0.48752 0.19494 0.83578 0.0
C582 C 0.48433 0.20871 0.79746 0.0
C583 C 0.48531 0.2496 0.79029 0.0
O584 O 0.5023 0.30665 0.75975 0.0
O585 O 0.46522 0.30623 0.76091 0.0
O586 O 0.46631 0.25542 0.7804 0.0
O587 O 0.50384 0.2565 0.78038 0.0
H588 H 0.48476 0.31027 0.80793 0.0
H589 H 0.48907 0.33747 0.83777 0.0
H590 H 0.48847 0.38926 0.78893 0.0
H591 H 0.48416 0.36198 0.75919 0.0
H592 H 0.48827 0.23908 0.6404 0.0
H593 H 0.48685 0.26709 0.66948 0.0
H594 H 0.48649 0.18883 0.69093 0.0
H595 H 0.48485 0.21717 0.72005 0.0
H596 H 0.48376 0.17463 0.80629 0.0
H597 H 0.49137 0.22042 0.86068 0.0
H598 H 0.48965 0.25067 0.8344 0.0
H599 H 0.48246 0.20542 0.77982 0.0
C600 C 0.68684 0.49909 0.77893 0.0
C601 C 0.69318 0.49041 0.79968 0.0
C602 C 0.65694 0.50146 0.81584 0.0
C603 C 0.67841 0.49147 0.81786 0.0
C604 C 0.65043 0.50976 0.79486 0.0
C605 C 0.6653 0.50864 0.77658 0.0
U606 U 0.74781 0.49882 0.76611 0.0
O607 O 0.7702 0.48448 0.74053 0.0
O608 O 0.77027 0.52012 0.74657 0.0
C609 C 0.77883 0.5036 0.73523 0.0
C610 C 0.70387 0.5003 0.76092 0.0
C611 C 0.78595 0.50753 0.71204 0.0
C612 C 0.79174 0.49471 0.674 0.0
C613 C 0.78009 0.4935 0.69439 0.0
C614 C 0.81379 0.52497 0.68826 0.0
C615 C 0.80908 0.51013 0.67108 0.0
C616 C 0.80243 0.5236 0.70855 0.0
C617 C 0.78359 0.49423 0.81881 0.0
C618 C 0.82449 0.49879 0.81924 0.0
C619 C 0.8036 0.49474 0.85389 0.0
C620 C 0.78343 0.49305 0.84206 0.0
C621 C 0.82415 0.49778 0.84258 0.0
C622 C 0.8042 0.4969 0.80732 0.0
C623 C 0.76188 0.49422 0.80718 0.0
O624 O 0.71642 0.51798 0.76162 0.0
O625 O 0.71584 0.48231 0.75763 0.0
O626 O 0.75814 0.47753 0.79389 0.0
O627 O 0.756 0.51313 0.79857 0.0
H628 H 0.70985 0.4832 0.802 0.0
H629 H 0.68392 0.48455 0.83355 0.0
H630 H 0.63415 0.51777 0.79273 0.0
H631 H 0.66022 0.51575 0.76082 0.0
H632 H 0.78799 0.48304 0.66094 0.0
H633 H 0.7675 0.48087 0.69673 0.0
H634 H 0.82747 0.53662 0.68658 0.0
H635 H 0.80763 0.53424 0.72205 0.0
H636 H 0.84031 0.50118 0.81036 0.0
H637 H 0.80312 0.4942 0.87194 0.0
H638 H 0.76762 0.49126 0.85111 0.0
H639 H 0.80447 0.49798 0.7893 0.0
C640 C 0.49926 0.24889 0.33069 0.0
C641 C 0.49394 0.22721 0.32531 0.0
C642 C 0.50256 0.21569 0.36348 0.0
C643 C 0.49548 0.21079 0.34158 0.0
C644 C 0.50779 0.23748 0.36877 0.0
C645 C 0.50603 0.2539 0.35255 0.0
U646 U 0.49635 0.2759 0.2711 0.0
O647 O 0.51552 0.30528 0.26155 0.0
O648 O 0.47838 0.3067 0.26301 0.0
C649 C 0.49721 0.31733 0.25879 0.0
C650 C 0.4982 0.26671 0.31406 0.0
C651 C 0.49708 0.33281 0.23984 0.0
C652 C 0.49491 0.3707 0.22727 0.0
C653 C 0.49439 0.3552 0.24443 0.0
C654 C 0.50063 0.34165 0.20039 0.0
C655 C 0.49801 0.36419 0.20497 0.0
C656 C 0.50024 0.3261 0.21766 0.0
C657 C 0.49408 0.22653 0.22528 0.0
C658 C 0.49046 0.21321 0.18722 0.0
C659 C 0.50013 0.18798 0.21687 0.0
C660 C 0.49907 0.20517 0.23236 0.0
C661 C 0.49605 0.19193 0.19415 0.0
C662 C 0.48954 0.23039 0.20267 0.0
C663 C 0.49465 0.24509 0.24097 0.0
O664 O 0.51623 0.26932 0.30148 0.0
O665 O 0.47909 0.2694 0.30309 0.0
O666 O 0.47617 0.25383 0.24958 0.0
O667 O 0.51393 0.25247 0.24892 0.0
H668 H 0.48873 0.22296 0.30856 0.0
H669 H 0.49151 0.19413 0.33691 0.0
H670 H 0.513 0.24186 0.38548 0.0
H671 H 0.51008 0.27059 0.35708 0.0
H672 H 0.49261 0.3878 0.23149 0.0
H673 H 0.49199 0.36075 0.26144 0.0
H674 H 0.50337 0.33604 0.18347 0.0
H675 H 0.50254 0.30893 0.21374 0.0
H676 H 0.48757 0.21668 0.16975 0.0
H677 H 0.50445 0.17167 0.22255 0.0
H678 H 0.50254 0.20187 0.24976 0.0
H679 H 0.48585 0.2468 0.19688 0.0
C680 C 0.68465 0.51718 0.24937 0.0
C681 C 0.69133 0.52003 0.22715 0.0
C682 C 0.65273 0.51341 0.21487 0.0
C683 C 0.67546 0.51828 0.21005 0.0
C684 C 0.646 0.51043 0.23709 0.0
C685 C 0.66192 0.51238 0.2543 0.0
U686 U 0.74613 0.519 0.26719 0.0
O687 O 0.76327 0.50001 0.29352 0.0
O688 O 0.76244 0.53652 0.29504 0.0
C689 C 0.76855 0.51794 0.30437 0.0
C690 C 0.7016 0.51818 0.26721 0.0
C691 C 0.78137 0.51728 0.32515 0.0
C692 C 0.7826 0.5193 0.36556 0.0
C693 C 0.77053 0.52138 0.3456 0.0
C694 C 0.81628 0.50914 0.34455 0.0
C695 C 0.8055 0.51293 0.3651 0.0
C696 C 0.80428 0.51128 0.32471 0.0
C697 C 0.79002 0.51758 0.21845 0.0
C698 C 0.83107 0.52143 0.2196 0.0
C699 C 0.8126 0.5105 0.18533 0.0
C700 C 0.79157 0.51165 0.19595 0.0
C701 C 0.83254 0.51543 0.19699 0.0
C702 C 0.8099 0.52235 0.23036 0.0
C703 C 0.76731 0.5186 0.22861 0.0
O704 O 0.7143 0.50057 0.269 0.0
O705 O 0.71333 0.53639 0.26826 0.0
O706 O 0.76168 0.53672 0.23916 0.0
O707 O 0.76051 0.50081 0.23881 0.0
H708 H 0.70885 0.52352 0.22303 0.0
H709 H 0.68092 0.52065 0.19297 0.0
H710 H 0.62848 0.50685 0.2411 0.0
H711 H 0.65655 0.51005 0.27141 0.0
H712 H 0.77406 0.52238 0.38126 0.0
H713 H 0.75271 0.52583 0.34611 0.0
H714 H 0.8341 0.50469 0.34386 0.0
H715 H 0.81284 0.50816 0.30901 0.0
H716 H 0.84627 0.52523 0.22893 0.0
H717 H 0.81323 0.50615 0.16783 0.0
H718 H 0.7764 0.50799 0.18649 0.0
H719 H 0.80903 0.52684 0.24781 0.0
C720 C 0.54493 0.71332 0.24222 0.0
C721 C 0.54491 0.71945 0.21971 0.0
C722 C 0.54375 0.68094 0.20848 0.0
C723 C 0.54437 0.70337 0.20297 0.0
C724 C 0.54377 0.67503 0.23112 0.0
C725 C 0.54437 0.69105 0.24775 0.0
U726 U 0.54693 0.77037 0.27393 0.0
O727 O 0.56573 0.77531 0.30525 0.0
O728 O 0.52859 0.77588 0.30546 0.0
C729 C 0.54723 0.77837 0.31711 0.0
C730 C 0.54553 0.72936 0.26057 0.0
C731 C 0.54731 0.79687 0.33292 0.0
C732 C 0.54349 0.80981 0.37116 0.0
C733 C 0.54448 0.79263 0.35573 0.0
C734 C 0.5485 0.83579 0.34115 0.0
C735 C 0.5452 0.83164 0.36406 0.0
C736 C 0.54954 0.81856 0.32572 0.0
C737 C 0.54762 0.819 0.22792 0.0
C738 C 0.54611 0.85659 0.21476 0.0
C739 C 0.5468 0.82672 0.1882 0.0
C740 C 0.54773 0.8116 0.2058 0.0
C741 C 0.54576 0.84942 0.1925 0.0
C742 C 0.54701 0.84154 0.23222 0.0
C743 C 0.54754 0.80408 0.24716 0.0
O744 O 0.56455 0.74001 0.26382 0.0
O745 O 0.52729 0.74137 0.26403 0.0
O746 O 0.52854 0.79512 0.25402 0.0
O747 O 0.56617 0.79385 0.25337 0.0
H748 H 0.54524 0.73658 0.21512 0.0
H749 H 0.54404 0.7085 0.18571 0.0
H750 H 0.54353 0.65799 0.23603 0.0
H751 H 0.54441 0.686 0.26506 0.0
H752 H 0.54072 0.806 0.38858 0.0
H753 H 0.54268 0.77597 0.36159 0.0
H754 H 0.55022 0.85239 0.33514 0.0
H755 H 0.55182 0.82217 0.30819 0.0
H756 H 0.545 0.87384 0.21876 0.0
H757 H 0.54682 0.82066 0.17123 0.0
H758 H 0.54829 0.79424 0.20216 0.0
H759 H 0.54686 0.84753 0.24922 0.0
C760 C 0.27096 0.54689 0.32262 0.0
C761 C 0.24888 0.55255 0.31591 0.0
C762 C 0.2343 0.54373 0.35256 0.0
C763 C 0.23079 0.55112 0.33075 0.0
C764 C 0.25633 0.53789 0.35941 0.0
C765 C 0.27465 0.53956 0.34448 0.0
U766 U 0.28237 0.54702 0.26285 0.0
O767 O 0.30492 0.56489 0.24003 0.0
O768 O 0.30504 0.52873 0.24035 0.0
C769 C 0.31293 0.5467 0.23124 0.0
C770 C 0.28916 0.54698 0.30578 0.0
C771 C 0.33625 0.5465 0.22281 0.0
C772 C 0.37705 0.5412 0.22635 0.0
C773 C 0.3554 0.54264 0.23622 0.0
C774 C 0.36021 0.54793 0.19012 0.0
C775 C 0.3794 0.54376 0.20318 0.0
C776 C 0.33887 0.54928 0.19984 0.0
C777 C 0.2279 0.54552 0.22891 0.0
C778 C 0.2277 0.5444 0.18844 0.0
C779 C 0.19247 0.54166 0.20922 0.0
C780 C 0.20435 0.54324 0.22915 0.0
C781 C 0.204 0.54235 0.18871 0.0
C782 C 0.23964 0.54606 0.20851 0.0
C783 C 0.23989 0.54651 0.25015 0.0
O784 O 0.29023 0.52904 0.2937 0.0
O785 O 0.29011 0.56494 0.29373 0.0
O786 O 0.25102 0.56467 0.25407 0.0
O787 O 0.25138 0.52878 0.25529 0.0
H788 H 0.24553 0.55781 0.29901 0.0
H789 H 0.2139 0.55539 0.32503 0.0
H790 H 0.25931 0.53209 0.3762 0.0
H791 H 0.29151 0.53484 0.34985 0.0
H792 H 0.39174 0.53776 0.23661 0.0
H793 H 0.35355 0.54037 0.25403 0.0
H794 H 0.36169 0.54961 0.17219 0.0
H795 H 0.32425 0.55205 0.18924 0.0
H796 H 0.23687 0.54505 0.17279 0.0
H797 H 0.17421 0.53978 0.20983 0.0
H798 H 0.19513 0.54259 0.24478 0.0
H799 H 0.25793 0.54771 0.20817 0.0
C800 C 0.79095 0.71127 0.49357 0.0
C801 C 0.81334 0.71642 0.48753 0.0
C802 C 0.82503 0.67843 0.493 0.0
C803 C 0.83019 0.70012 0.48712 0.0
C804 C 0.80254 0.6734 0.49895 0.0
C805 C 0.78568 0.68965 0.49918 0.0
U806 U 0.77402 0.77132 0.49534 0.0
O807 O 0.74543 0.78884 0.47932 0.0
O808 O 0.74875 0.78873 0.51629 0.0
C809 C 0.7371 0.79495 0.49871 0.0
C810 C 0.77317 0.72836 0.49471 0.0
C811 C 0.71614 0.80815 0.50058 0.0
C812 C 0.67489 0.81141 0.49942 0.0
C813 C 0.69472 0.79867 0.49737 0.0
C814 C 0.69777 0.84312 0.50787 0.0
C815 C 0.67634 0.83373 0.50475 0.0
C816 C 0.7175 0.83044 0.50583 0.0
C817 C 0.82841 0.80877 0.49367 0.0
C818 C 0.83396 0.84805 0.49052 0.0
C819 C 0.86581 0.82421 0.49892 0.0
C820 C 0.85158 0.80615 0.49804 0.0
C821 C 0.85718 0.84535 0.49535 0.0
C822 C 0.81956 0.82981 0.4898 0.0
C823 C 0.81451 0.78891 0.49331 0.0
O824 O 0.77279 0.73989 0.51319 0.0
O825 O 0.77074 0.74044 0.47675 0.0
O826 O 0.80202 0.78518 0.4756 0.0
O827 O 0.80472 0.78327 0.5121 0.0
H828 H 0.81782 0.73309 0.48336 0.0
H829 H 0.8474 0.70462 0.48281 0.0
H830 H 0.79796 0.65685 0.50347 0.0
H831 H 0.76854 0.68536 0.50394 0.0
H832 H 0.6585 0.80386 0.49696 0.0
H833 H 0.69334 0.78143 0.49341 0.0
H834 H 0.69923 0.86036 0.51179 0.0
H835 H 0.73386 0.83807 0.50826 0.0
H836 H 0.82691 0.86424 0.48783 0.0
H837 H 0.88366 0.82164 0.50242 0.0
H838 H 0.85872 0.79002 0.50091 0.0
H839 H 0.80166 0.83211 0.4864 0.0
C840 C 0.79056 0.3332 0.50584 0.0
C841 C 0.81327 0.3264 0.50747 0.0
C842 C 0.8261 0.36402 0.50413 0.0
C843 C 0.83082 0.34159 0.50663 0.0
C844 C 0.80328 0.37083 0.50227 0.0
C845 C 0.78563 0.35551 0.50315 0.0
U846 U 0.77777 0.2741 0.50657 0.0
O847 O 0.75377 0.25335 0.52508 0.0
O848 O 0.75402 0.25293 0.48825 0.0
C849 C 0.74544 0.24484 0.50671 0.0
C850 C 0.77248 0.31664 0.50647 0.0
C851 C 0.72197 0.23664 0.50656 0.0
C852 C 0.68153 0.23855 0.51534 0.0
C853 C 0.70312 0.24841 0.51479 0.0
C854 C 0.69769 0.20558 0.49926 0.0
C855 C 0.67877 0.21699 0.50754 0.0
C856 C 0.71896 0.21526 0.49881 0.0
C857 C 0.83338 0.24001 0.50378 0.0
C858 C 0.83643 0.2004 0.50344 0.0
C859 C 0.87004 0.22249 0.49832 0.0
C860 C 0.85682 0.24142 0.50027 0.0
C861 C 0.86003 0.20174 0.49984 0.0
C862 C 0.82318 0.21942 0.50536 0.0
C863 C 0.8201 0.26035 0.50512 0.0
O864 O 0.77096 0.30467 0.48832 0.0
O865 O 0.77189 0.3049 0.52483 0.0
O866 O 0.80908 0.26401 0.52384 0.0
O867 O 0.80822 0.26525 0.48732 0.0
H868 H 0.81747 0.30923 0.50933 0.0
H869 H 0.84815 0.33569 0.5077 0.0
H870 H 0.79904 0.388 0.50049 0.0
H871 H 0.7682 0.36106 0.50176 0.0
H872 H 0.6671 0.24767 0.52173 0.0
H873 H 0.70511 0.26496 0.52091 0.0
H874 H 0.69606 0.18888 0.4934 0.0
H875 H 0.73329 0.20581 0.49266 0.0
H876 H 0.82816 0.18467 0.50454 0.0
H877 H 0.88817 0.22415 0.49599 0.0
H878 H 0.86494 0.25723 0.49903 0.0
H879 H 0.80505 0.21807 0.50795 0.0
C880 C 0.24742 0.70861 0.5302 0.0
C881 C 0.22477 0.71577 0.53071 0.0
C882 C 0.2117 0.67811 0.5285 0.0
C883 C 0.2071 0.70068 0.52978 0.0
C884 C 0.23439 0.67089 0.52873 0.0
C885 C 0.25215 0.68608 0.52943 0.0
U886 U 0.26612 0.7677 0.52844 0.0
O887 O 0.29509 0.78414 0.54489 0.0
O888 O 0.29244 0.78351 0.50796 0.0
C889 C 0.30445 0.78886 0.52558 0.0
C890 C 0.26592 0.72469 0.52943 0.0
C891 C 0.32391 0.80382 0.52366 0.0
C892 C 0.36484 0.8093 0.5251 0.0
C893 C 0.34597 0.79555 0.52684 0.0
C894 C 0.33984 0.83977 0.51669 0.0
C895 C 0.3619 0.83153 0.52003 0.0
C896 C 0.32095 0.82602 0.51849 0.0
C897 C 0.21134 0.80604 0.52964 0.0
C898 C 0.20485 0.84534 0.53158 0.0
C899 C 0.17321 0.82084 0.52583 0.0
C900 C 0.18799 0.80297 0.52666 0.0
C901 C 0.18149 0.84214 0.5282 0.0
C902 C 0.21979 0.82732 0.5322 0.0
C903 C 0.22588 0.78641 0.52991 0.0
O904 O 0.26702 0.73607 0.51092 0.0
O905 O 0.26817 0.73686 0.54734 0.0
O906 O 0.23816 0.78258 0.54778 0.0
O907 O 0.23598 0.78077 0.51121 0.0
H908 H 0.22077 0.73309 0.53133 0.0
H909 H 0.18975 0.70665 0.52973 0.0
H910 H 0.23837 0.6536 0.52754 0.0
H911 H 0.26955 0.68028 0.52894 0.0
H912 H 0.38168 0.80262 0.52775 0.0
H913 H 0.3486 0.77841 0.5307 0.0
H914 H 0.33725 0.85694 0.51294 0.0
H915 H 0.30409 0.83272 0.51598 0.0
H916 H 0.21154 0.86172 0.53325 0.0
H917 H 0.15527 0.81804 0.52324 0.0
H918 H 0.18115 0.78665 0.52478 0.0
H919 H 0.23779 0.82997 0.5345 0.0
C920 C 0.33208 0.24732 0.5279 0.0
C921 C 0.32539 0.22559 0.53084 0.0
C922 C 0.36428 0.21334 0.52467 0.0
C923 C 0.34136 0.20875 0.52927 0.0
C924 C 0.37091 0.23516 0.52164 0.0
C925 C 0.35487 0.25207 0.52334 0.0
U926 U 0.27087 0.26874 0.52945 0.0
O927 O 0.25782 0.29763 0.51173 0.0
O928 O 0.25785 0.29692 0.54859 0.0
C929 C 0.25418 0.30838 0.5304 0.0
C930 C 0.31533 0.26507 0.5289 0.0
C931 C 0.23673 0.32541 0.53072 0.0
C932 C 0.2285 0.36425 0.53216 0.0
C933 C 0.24407 0.34707 0.53254 0.0
C934 C 0.19784 0.3382 0.52844 0.0
C935 C 0.20525 0.36001 0.53004 0.0
C936 C 0.21356 0.32091 0.52868 0.0
C937 C 0.22589 0.21985 0.52823 0.0
C938 C 0.18545 0.21482 0.53481 0.0
C939 C 0.20917 0.18379 0.52494 0.0
C940 C 0.22793 0.19748 0.52359 0.0
C941 C 0.18776 0.19214 0.53093 0.0
C942 C 0.20448 0.22861 0.53364 0.0
C943 C 0.24701 0.23265 0.52846 0.0
O944 O 0.30303 0.26754 0.51086 0.0
O945 O 0.30332 0.26625 0.54734 0.0
O946 O 0.25302 0.24236 0.54709 0.0
O947 O 0.25311 0.24315 0.51033 0.0
H948 H 0.3078 0.22167 0.53418 0.0
H949 H 0.3357 0.19206 0.53135 0.0
H950 H 0.38845 0.23915 0.51822 0.0
H951 H 0.36023 0.26883 0.52099 0.0
H952 H 0.23465 0.38085 0.53359 0.0
H953 H 0.26197 0.35073 0.53408 0.0
H954 H 0.17998 0.33458 0.52651 0.0
H955 H 0.20772 0.30422 0.5271 0.0
H956 H 0.16913 0.22174 0.53938 0.0
H957 H 0.21148 0.16655 0.52133 0.0
H958 H 0.24429 0.19042 0.51933 0.0
H959 H 0.20257 0.24587 0.5373 0.0
Zn960 Zn 0.98486 0.99845 0.47043 0.0
Zn961 Zn 0.98084 0.0515 0.47457 0.0
O962 O 0.00284 0.02612 0.47498 0.0
H963 H 0.01762 0.02626 0.46812 0.0
C964 C 0.96031 0.97289 0.51633 0.0
O965 O 0.95715 0.99096 0.50491 0.0
Zn966 Zn 0.06454 0.04987 0.54975 0.0
Zn967 Zn 0.05476 0.99784 0.55716 0.0
O968 O 0.04048 0.02668 0.54947 0.0
H969 H 0.02531 0.02859 0.55513 0.0
Zn970 Zn 0.98231 1.00211 0.54999 0.0
O971 O 0.99122 0.029 0.53216 0.0
Zn972 Zn 0.98777 0.05462 0.55324 0.0
H973 H 0.00108 0.02855 0.5193 0.0
Zn974 Zn 0.05483 0.99903 0.47406 0.0
O975 O 0.05176 0.02715 0.49169 0.0
H976 H 0.04235 0.02826 0.50484 0.0
Zn977 Zn 0.0573 0.05173 0.46976 0.0
C978 C 0.07471 0.96808 0.50755 0.0
O979 O 0.07713 0.98559 0.52 0.0
O980 O 0.95539 0.0062 0.45408 0.0
O981 O 0.95165 0.04194 0.46044 0.0
O982 O 0.08559 1.00278 0.5712 0.0
O983 O 0.09201 0.03835 0.56677 0.0
O984 O 0.96814 0.00918 0.58056 0.0
O985 O 0.97151 0.04539 0.58099 0.0
C986 C 0.01337 0.07642 0.44985 0.0
O987 O 0.07089 0.00436 0.44442 0.0
O988 O 0.07381 0.04067 0.44213 0.0
O989 O 0.03667 0.9795 0.57976 0.0
C990 C 0.94457 0.02415 0.45184 0.0
O991 O 0.00151 0.97213 0.45554 0.0
C992 C 0.03265 0.07822 0.57226 0.0
O993 O 0.97083 0.97374 0.53478 0.0
C994 C 0.0975 0.01969 0.57478 0.0
O995 O 0.06502 0.96982 0.48873 0.0
C996 C 0.96632 0.07714 0.51733 0.0
O997 O 0.99238 0.07477 0.4541 0.0
O998 O 0.02698 0.06419 0.46063 0.0
C999 C 0.96498 0.02764 0.58996 0.0
O1000 O 0.05357 0.07519 0.56815 0.0
O1001 O 0.01849 0.06653 0.56169 0.0
C1002 C 0.07707 0.07519 0.50672 0.0
O1003 O 0.96891 0.07737 0.53832 0.0
O1004 O 0.97743 0.06314 0.50592 0.0
C1005 C 0.07743 0.02151 0.43436 0.0
O1006 O 0.07467 0.07542 0.48563 0.0
O1007 O 0.0696 0.05889 0.51761 0.0
C1008 C 0.02154 0.96528 0.57617 0.0
O1009 O 0.01539 0.96097 0.55561 0.0
C1010 C 0.01319 0.97657 0.43832 0.0
O1011 O 0.01577 0.99718 0.43272 0.0
Zn1012 Zn 0.4826 0.05457 0.03451 0.0
Zn1013 Zn 0.48639 0.06206 0.9808 0.0
O1014 O 0.49356 0.04068 0.00571 0.0
H1015 H 0.49693 0.02527 0.00449 0.0
C1016 C 0.52883 0.08807 0.06827 0.0
O1017 O 0.51259 0.08132 0.05503 0.0
Zn1018 Zn 0.55156 0.98661 0.97048 0.0
Zn1019 Zn 0.55348 0.99535 0.02338 0.0
O1020 O 0.54035 0.00683 0.99431 0.0
H1021 H 0.53364 0.02107 0.99198 0.0
Zn1022 Zn 0.56195 0.0692 0.03367 0.0
O1023 O 0.54209 0.06507 0.00624 0.0
Zn1024 Zn 0.56241 0.06516 0.97881 0.0
H1025 H 0.52614 0.06865 0.00685 0.0
Zn1026 Zn 0.48864 0.97504 0.03223 0.0
O1027 O 0.50388 0.9786 0.00194 0.0
H1028 H 0.51817 0.97131 0.99903 0.0
Zn1029 Zn 0.47919 0.98205 0.97885 0.0
C1030 C 0.5185 0.96103 0.07195 0.0
O1031 O 0.52767 0.98056 0.07192 0.0
O1032 O 0.46063 0.07943 0.02773 0.0
O1033 O 0.46483 0.0857 0.99146 0.0
O1034 O 0.57262 0.96746 0.01994 0.0
O1035 O 0.57294 0.9639 0.98312 0.0
O1036 O 0.59461 0.0772 0.02448 0.0
O1037 O 0.59281 0.07727 0.98729 0.0
C1038 C 0.46479 0.02652 0.95681 0.0
O1039 O 0.45572 0.96554 0.02773 0.0
O1040 O 0.44981 0.96956 0.9913 0.0
O1041 O 0.57503 0.01538 0.04066 0.0
C1042 C 0.45527 0.08972 0.01011 0.0
O1043 O 0.46756 0.03663 0.05974 0.0
C1044 C 0.57651 0.02322 0.95208 0.0
O1045 O 0.54945 0.08464 0.06278 0.0
C1046 C 0.57984 0.95812 0.00235 0.0
O1047 O 0.50372 0.95623 0.05732 0.0
C1048 C 0.52667 0.0846 0.95313 0.0
O1049 O 0.46851 0.04692 0.95758 0.0
O1050 O 0.47547 0.01406 0.9703 0.0
C1051 C 0.6036 0.08045 0.00542 0.0
O1052 O 0.57153 1.00319 0.94932 0.0
O1053 O 0.56586 0.03408 0.96701 0.0
C1054 C 0.50904 0.96189 0.94517 0.0
O1055 O 0.54819 0.08381 0.95441 0.0
O1056 O 0.51543 0.07372 0.96741 0.0
C1057 C 0.44303 0.964 0.01066 0.0
O1058 O 0.48869 0.96453 0.95192 0.0
O1059 O 0.52511 0.97162 0.9552 0.0
C1060 C 0.5706 0.02664 0.05788 0.0
O1061 O 0.54957 0.02802 0.06508 0.0
C1062 C 0.45373 0.02132 0.05548 0.0
O1063 O 0.45233 0.01388 0.03499 0.0
Zn1064 Zn 0.98604 0.50162 0.97103 0.0
Zn1065 Zn 0.97703 0.55491 0.97628 0.0
O1066 O 0.00102 0.53087 0.97862 0.0
H1067 H 0.01265 0.53167 0.98984 0.0
C1068 C 0.97791 0.46152 0.01851 0.0
O1069 O 0.98808 0.47183 0.00219 0.0
Zn1070 Zn 0.05578 0.5564 0.04422 0.0
Zn1071 Zn 0.05028 0.50309 0.05181 0.0
O1072 O 0.03376 0.53116 0.04192 0.0
H1073 H 0.02258 0.53101 0.03023 0.0
Zn1074 Zn 0.98383 0.50108 0.05032 0.0
O1075 O 0.98118 0.52809 0.03112 0.0
Zn1076 Zn 0.97962 0.55279 0.05363 0.0
H1077 H 0.97432 0.52735 0.01654 0.0
Zn1078 Zn 0.06096 0.50253 0.96972 0.0
O1079 O 0.0543 0.52941 0.98834 0.0
H1080 H 0.05612 0.5292 0.00431 0.0
Zn1081 Zn 0.05442 0.55513 0.96709 0.0
C1082 C 0.07393 0.46771 0.0042 0.0
O1083 O 0.06524 0.48021 0.01984 0.0
O1084 O 0.95384 0.50692 0.96061 0.0
O1085 O 0.94899 0.54306 0.96143 0.0
O1086 O 0.08224 0.50959 0.06376 0.0
O1087 O 0.0835 0.54586 0.05991 0.0
O1088 O 0.96778 0.50615 0.0803 0.0
O1089 O 0.96474 0.54241 0.08195 0.0
C1090 C 0.00922 0.58071 0.95303 0.0
O1091 O 0.07636 0.51034 0.9402 0.0
O1092 O 0.07133 0.54653 0.93937 0.0
O1093 O 0.03522 0.47748 0.06996 0.0
C1094 C 0.94199 0.52392 0.95669 0.0
O1095 O -0.00064 0.47469 0.95294 0.0
C1096 C 0.02203 0.58157 0.06589 0.0
O1097 O 0.97543 0.47079 0.03734 0.0
C1098 C 0.09221 0.52781 0.06631 0.0
O1099 O 0.07396 0.47423 0.9841 0.0
C1100 C 0.95979 0.57975 0.02032 0.0
O1101 O 0.98819 0.57905 0.95695 0.0
O1102 O 0.02258 0.5668 0.96196 0.0
C1103 C 0.96106 0.5235 0.09012 0.0
O1104 O 0.04317 0.58118 0.06222 0.0
O1105 O 0.0105 0.56551 0.0587 0.0
C1106 C 0.07254 0.5817 1.00122 0.0
O1107 O 0.96133 0.57669 0.04116 0.0
O1108 O 0.96969 0.56623 0.00731 0.0
C1109 C 0.07904 0.52883 0.93092 0.0
O1110 O 0.07161 0.57944 0.98027 0.0
O1111 O 0.0629 0.5674 0.01331 0.0
C1112 C 0.0288 0.4589 0.06276 0.0
O1113 O 0.02846 0.45522 0.0412 0.0
C1114 C 0.01633 0.46192 0.95532 0.0
O1115 O 0.03092 0.46558 0.97132 0.0
Zn1116 Zn 0.47757 0.49679 0.99177 0.0
Zn1117 Zn 0.48592 0.48698 0.04426 0.0
O1118 O 0.49499 0.5076 0.01897 0.0
H1119 H 0.49942 0.5227 0.02038 0.0
C1120 C 0.52162 0.46327 0.94754 0.0
O1121 O 0.50985 0.48116 0.95139 0.0
Zn1122 Zn 0.55379 0.55865 0.04592 0.0
Zn1123 Zn 0.55203 0.54833 0.99255 0.0
O1124 O 0.54202 0.53723 0.02318 0.0
H1125 H 0.53787 0.52229 0.02623 0.0
Zn1126 Zn 0.55192 0.47286 0.9899 0.0
O1127 O 0.53532 0.47802 0.01975 0.0
Zn1128 Zn 0.55845 0.47848 0.04553 0.0
H1129 H 0.51997 0.47271 0.02086 0.0
Zn1130 Zn 0.48895 0.57454 0.99181 0.0
O1131 O 0.50684 0.57053 0.02088 0.0
H1132 H 0.52195 0.57636 0.02239 0.0
Zn1133 Zn 0.48344 0.56803 0.04603 0.0
C1134 C 0.51769 0.58247 0.94792 0.0
O1135 O 0.53223 0.56703 0.95325 0.0
O1136 O 0.45985 0.4688 0.99701 0.0
O1137 O 0.46681 0.46198 0.03281 0.0
O1138 O 0.56894 0.57765 0.99437 0.0
O1139 O 0.57205 0.58231 0.03109 0.0
O1140 O 0.58299 0.4594 0.9976 0.0
O1141 O 0.58657 0.46231 0.03465 0.0
C1142 C 0.46728 0.52429 0.06818 0.0
O1143 O 0.45738 0.58694 0.99938 0.0
O1144 O 0.45419 0.58299 0.03618 0.0
O1145 O 0.56803 0.52825 0.96896 0.0
C1146 C 0.45764 0.45695 0.01427 0.0
O1147 O 0.47414 0.51075 0.96003 0.0
C1148 C 0.57565 0.52229 0.06929 0.0
O1149 O 0.53748 0.4578 0.96094 0.0
C1150 C 0.57597 0.58835 0.01115 0.0
O1151 O 0.50143 0.58714 0.9612 0.0
C1152 C 0.52461 0.46414 0.07576 0.0
O1153 O 0.46795 0.5036 0.06646 0.0
O1154 O 0.47778 0.5359 0.05382 0.0
C1155 C 0.59401 0.45624 0.01558 0.0
O1156 O 0.57354 0.54289 0.06725 0.0
O1157 O 0.56552 0.5099 0.05533 0.0
C1158 C 0.51581 0.58305 0.07799 0.0
O1159 O 0.54586 0.46301 0.07263 0.0
O1160 O 0.51281 0.47401 0.06105 0.0
C1161 C 0.44631 0.58948 0.01747 0.0
O1162 O 0.4948 0.58347 0.07341 0.0
O1163 O 0.52917 0.57322 0.06457 0.0
C1164 C 0.55862 0.52036 0.95169 0.0
O1165 O 0.5365 0.52195 0.94956 0.0
C1166 C 0.46791 0.52978 0.95394 0.0
O1167 O 0.46426 0.54495 0.96906 0.0
Zn1168 Zn 0.98315 0.49887 0.47666 0.0
Zn1169 Zn 0.9768 0.55168 0.4763 0.0
O1170 O 0.0001 0.5275 0.48037 0.0
H1171 H 0.01357 0.52878 0.48941 0.0
C1172 C 0.94883 0.4752 0.51749 0.0
O1173 O 0.94312 0.49536 0.51232 0.0
Zn1174 Zn 0.0617 0.55391 0.54571 0.0
Zn1175 Zn 0.05758 0.50196 0.55228 0.0
O1176 O 0.04022 0.52877 0.54188 0.0
H1177 H 0.02778 0.52863 0.53144 0.0
Zn1178 Zn 0.97746 0.49869 0.54904 0.0
O1179 O 0.9834 0.52671 0.53222 0.0
Zn1180 Zn 0.97993 0.55182 0.55378 0.0
H1181 H 0.98003 0.52714 0.51654 0.0
Zn1182 Zn 0.06548 0.50232 0.46985 0.0
O1183 O 0.05834 0.52887 0.48842 0.0
H1184 H 0.0612 0.52882 0.50423 0.0
Zn1185 Zn 0.05805 0.55439 0.46751 0.0
C1186 C 0.08521 0.47194 0.50452 0.0
O1187 O 0.06809 0.4767 0.5177 0.0
O1188 O 0.951 0.50379 0.4646 0.0
O1189 O 0.94816 0.54008 0.46229 0.0
O1190 O 0.08972 0.50778 0.56391 0.0
O1191 O 0.09174 0.54381 0.55921 0.0
O1192 O 0.95703 0.50563 0.57562 0.0
O1193 O 0.96003 0.54176 0.57979 0.0
C1194 C 0.01218 0.57642 0.45488 0.0
O1195 O 0.08241 0.51086 0.44166 0.0
O1196 O 0.07748 0.5469 0.44019 0.0
O1197 O 0.0423 0.47296 0.56189 0.0
C1198 C 0.93996 0.52101 0.45941 0.0
O1199 O -0.00176 0.47064 0.46385 0.0
C1200 C 0.02499 0.57657 0.56991 0.0
O1201 O 0.96453 0.47209 0.53167 0.0
C1202 C 0.10057 0.52567 0.56535 0.0
O1203 O 0.08608 0.47995 0.48507 0.0
C1204 C 0.956 0.57584 0.5194 0.0
O1205 O 0.99083 0.57538 0.45786 0.0
O1206 O 0.02475 0.56132 0.46271 0.0
C1207 C 0.95149 0.52337 0.58537 0.0
O1208 O 0.04628 0.57561 0.56609 0.0
O1209 O 0.01197 0.56326 0.55979 0.0
C1210 C 0.07797 0.58053 0.50268 0.0
O1211 O 0.96019 0.57486 0.54009 0.0
O1212 O 0.9683 0.56428 0.50641 0.0
C1213 C 0.08654 0.52927 0.43277 0.0
O1214 O 0.07441 0.57948 0.48184 0.0
O1215 O 0.06774 0.5669 0.51516 0.0
C1216 C 0.02374 0.47174 0.57262 0.0
O1217 O 0.01235 0.48976 0.57703 0.0
C1218 C 0.01706 0.46925 0.4536 0.0
O1219 O 0.02938 0.48686 0.45098 0.0
Zn1220 Zn 0.49259 1.00126 0.47819 0.0
Zn1221 Zn 0.47913 0.05481 0.48121 0.0
O1222 O 0.50451 0.03206 0.48403 0.0
H1223 H 0.5202 0.03463 0.48731 0.0
C1224 C 0.46689 0.95921 0.51627 0.0
O1225 O 0.47403 0.96711 0.49722 0.0
Zn1226 Zn 0.55839 0.06086 0.54444 0.0
Zn1227 Zn 0.55129 0.00677 0.55025 0.0
O1228 O 0.53635 0.03552 0.53893 0.0
H1229 H 0.5238 0.03623 0.52867 0.0
Zn1230 Zn 0.48936 0.99858 0.54159 0.0
O1231 O 0.48244 0.02807 0.52691 0.0
Zn1232 Zn 0.48167 0.05134 0.55177 0.0
H1233 H 0.47223 0.02733 0.51436 0.0
Zn1234 Zn 0.55507 0.00396 0.48738 0.0
O1235 O 0.55867 0.03486 0.50127 0.0
H1236 H 0.55737 0.01975 0.49676 0.0
Zn1237 Zn 0.55463 0.05718 0.47627 0.0
C1238 C 0.57626 0.96424 0.51548 0.0
O1239 O 0.57386 0.974 0.53481 0.0
O1240 O 0.46059 0.00449 0.46543 0.0
O1241 O 0.45323 0.04036 0.46543 0.0
O1242 O 0.58315 0.01276 0.56275 0.0
O1243 O 0.58556 0.04906 0.56063 0.0
O1244 O 0.49006 1.00245 0.5755 0.0
O1245 O 0.47252 0.03475 0.57862 0.0
C1246 C 0.50968 0.08417 0.46159 0.0
O1247 O 0.5595 0.00607 0.45355 0.0
O1248 O 0.56291 0.04204 0.4482 0.0
O1249 O 0.53662 0.97931 0.56674 0.0
C1250 C 0.44785 0.02071 0.46063 0.0
O1251 O 0.51058 0.9765 0.46056 0.0
C1252 C 0.52192 0.08389 0.56496 0.0
O1253 O 0.47101 0.96956 0.53426 0.0
C1254 C 0.59377 0.0305 0.5662 0.0
O1255 O 0.57019 0.97404 0.49772 0.0
C1256 C 0.45789 0.07869 0.52407 0.0
O1257 O 0.48867 0.08064 0.46375 0.0
O1258 O 0.52329 0.07051 0.4707 0.0
C1259 C 0.47831 0.0162 0.58656 0.0
O1260 O 0.54331 0.0839 0.56284 0.0
O1261 O 0.51131 0.0672 0.55759 0.0
C1262 C 0.57784 0.08932 0.50107 0.0
O1263 O 0.45913 0.07469 0.54472 0.0
O1264 O 0.46903 0.0663 0.51098 0.0
C1265 C 0.56322 0.02243 0.44101 0.0
O1266 O 0.57458 0.08204 0.48156 0.0
O1267 O 0.5704 0.07844 0.51769 0.0
C1268 C 0.52705 0.96214 0.5592 0.0
O1269 O 0.52196 0.96096 0.53795 0.0
C1270 C 0.52041 0.95937 0.46806 0.0
O1271 O 0.52241 0.95676 0.48968 0.0
H1272 H 0.18729 0.1522 0.55139 0.0
H1273 H 0.06995 0.11796 0.49758 0.0
H1274 H 0.14395 0.19708 0.51564 0.0
H1275 H 0.10924 0.07514 0.53968 0.0
H1276 H 0.09386 0.14858 0.50867 0.0
H1277 H 0.15691 0.12526 0.55122 0.0
C1278 C 0.17129 0.15645 0.54362 0.0
C1279 C 0.1683 0.17685 0.53321 0.0
C1280 C 0.09711 0.13261 0.51581 0.0
C1281 C 0.13328 0.14598 0.53305 0.0
C1282 C 0.08342 0.11515 0.50953 0.0
C1283 C 0.08788 0.09404 0.51756 0.0
C1284 C 0.11577 0.12882 0.52982 0.0
C1285 C 0.10532 0.09121 0.53313 0.0
C1286 C 0.15388 0.14108 0.54366 0.0
C1287 C 0.14703 0.18159 0.52383 0.0
N1288 N 0.11898 0.10835 0.53841 0.0
N1289 N 0.13046 0.16616 0.5237 0.0
H1290 H 0.89616 0.19325 0.47182 0.0
H1291 H 0.92328 0.07902 0.5308 0.0
H1292 H 0.85684 0.16456 0.52491 0.0
H1293 H 0.96964 0.10837 0.48417 0.0
H1294 H 0.89592 0.10793 0.52346 0.0
H1295 H 0.92091 0.16082 0.47177 0.0
C1296 C 0.89268 0.18013 0.48342 0.0
C1297 C 0.87437 0.18168 0.49844 0.0
C1298 C 0.91186 0.10801 0.51446 0.0
C1299 C 0.90243 0.1445 0.49822 0.0
C1300 C 0.92739 0.09136 0.5185 0.0
C1301 C 0.94857 0.09132 0.50796 0.0
C1302 C 0.91759 0.12508 0.49995 0.0
C1303 C 0.95329 0.10777 0.49239 0.0
C1304 C 0.90675 0.16161 0.48327 0.0
C1305 C 0.87049 0.16404 0.51283 0.0
N1306 N 0.93796 0.12428 0.48903 0.0
N1307 N 0.88443 0.14631 0.5124 0.0
H1308 H 0.8853 0.8542 0.52986 0.0
H1309 H 0.93538 0.96451 0.47852 0.0
H1310 H 0.86442 0.87911 0.46588 0.0
H1311 H 0.9582 0.93474 0.5398 0.0
H1312 H 0.91114 0.93268 0.47181 0.0
H1313 H 0.9128 0.8836 0.53282 0.0
C1314 C 0.88657 0.86593 0.51641 0.0
C1315 C 0.87262 0.86425 0.4976 0.0
C1316 C 0.92158 0.93311 0.48664 0.0
C1317 C 0.90427 0.89801 0.50074 0.0
C1318 C 0.93546 0.95123 0.49045 0.0
C1319 C 0.94848 0.95252 0.51 0.0
C1320 C 0.92064 0.91631 0.50257 0.0
C1321 C 0.94822 0.93467 0.52467 0.0
C1322 C 0.90233 0.8827 0.51805 0.0
C1323 C 0.87476 0.88 0.48074 0.0
N1324 N 0.93432 0.91749 0.52079 0.0
N1325 N 0.89036 0.89626 0.48267 0.0
H1326 H 0.15932 0.85476 0.49091 0.0
H1327 H 0.09604 0.9571 0.54677 0.0
H1328 H 0.16706 0.87099 0.56034 0.0
H1329 H 0.08128 0.93225 0.48103 0.0
H1330 H 0.12107 0.92548 0.55307 0.0
H1331 H 0.13085 0.88378 0.4873 0.0
C1332 C 0.155 0.86458 0.50537 0.0
C1333 C 0.16558 0.86075 0.52586 0.0
C1334 C 0.1122 0.92691 0.53735 0.0
C1335 C 0.13272 0.8937 0.5221 0.0
C1336 C 0.09787 0.94491 0.53376 0.0
C1337 C 0.08684 0.94754 0.5132 0.0
C1338 C 0.11568 0.91162 0.52015 0.0
C1339 C 0.08959 0.93108 0.49706 0.0
C1340 C 0.13866 0.88103 0.50339 0.0
C1341 C 0.15943 0.87377 0.54418 0.0
N1342 N 0.10394 0.91403 0.50077 0.0
N1343 N 0.14334 0.88972 0.54189 0.0
H1344 H 0.46448 0.17315 0.16667 0.0
H1345 H 0.55808 0.10275 0.10031 0.0
H1346 H 0.53547 0.17127 0.18345 0.0
H1347 H 0.48702 0.10248 0.08308 0.0
H1348 H 0.54934 0.12593 0.13233 0.0
H1349 H 0.47147 0.14548 0.13754 0.0
C1350 C 0.48151 0.1668 0.16421 0.0
C1351 C 0.49945 0.17435 0.17742 0.0
C1352 C 0.5356 0.12076 0.12163 0.0
C1353 C 0.50769 0.14314 0.14405 0.0
C1354 C 0.5406 0.1075 0.10328 0.0
C1355 C 0.52333 0.10083 0.08874 0.0
C1356 C 0.51313 0.12759 0.12557 0.0
C1357 C 0.50094 0.10735 0.09369 0.0
C1358 C 0.48551 0.15105 0.14764 0.0
C1359 C 0.52118 0.16568 0.17371 0.0
N1360 N 0.49651 0.12049 0.11157 0.0
N1361 N 0.52472 0.15069 0.15729 0.0
H1362 H 0.84996 0.48233 0.17153 0.0
H1363 H 0.94635 0.55606 0.11812 0.0
H1364 H 0.86473 0.54741 0.19488 0.0
H1365 H 0.94127 0.48651 0.10654 0.0
H1366 H 0.91739 0.55311 0.14712 0.0
H1367 H 0.8841 0.48325 0.14832 0.0
C1368 C 0.86057 0.49673 0.1719 0.0
C1369 C 0.85456 0.51484 0.18507 0.0
C1370 C 0.92285 0.53845 0.13845 0.0
C1371 C 0.89346 0.51617 0.1584 0.0
C1372 C 0.9394 0.54012 0.1219 0.0
C1373 C 0.94621 0.52153 0.10984 0.0
C1374 C 0.91285 0.51809 0.14278 0.0
C1375 C 0.93659 0.50129 0.11543 0.0
C1376 C 0.88006 0.49725 0.15871 0.0
C1377 C 0.86889 0.53307 0.18506 0.0
N1378 N 0.92021 0.50017 0.13131 0.0
N1379 N 0.88755 0.53338 0.1717 0.0
H1380 H 0.51928 0.84607 0.15526 0.0
H1381 H 0.55045 0.96392 0.10546 0.0
H1382 H 0.56576 0.88992 0.18791 0.0
H1383 H 0.49879 0.9214 0.07906 0.0
H1384 H 0.55806 0.93689 0.13486 0.0
H1385 H 0.51358 0.87317 0.12606 0.0
C1386 C 0.52852 0.86129 0.15617 0.0
C1387 C 0.54312 0.86558 0.17406 0.0
C1388 C 0.54509 0.93353 0.12259 0.0
C1389 C 0.53638 0.89706 0.14065 0.0
C1390 C 0.54075 0.94893 0.10579 0.0
C1391 C 0.52401 0.94491 0.08966 0.0
C1392 C 0.53259 0.91401 0.12322 0.0
C1393 C 0.51196 0.92521 0.09097 0.0
C1394 C 0.5251 0.8769 0.13955 0.0
C1395 C 0.55421 0.88592 0.17452 0.0
N1396 N 0.51648 0.91059 0.10739 0.0
N1397 N 0.55064 0.90089 0.15806 0.0
H1398 H 0.21069 0.51586 0.15206 0.0
H1399 H 0.08934 0.54929 0.10448 0.0
H1400 H 0.16721 0.56674 0.17836 0.0
H1401 H 0.1349 0.50872 0.06598 0.0
H1402 H 0.11801 0.55296 0.13298 0.0
H1403 H 0.18444 0.51157 0.12039 0.0
C1404 C 0.19582 0.5263 0.15096 0.0
C1405 C 0.19077 0.54142 0.16793 0.0
C1406 C 0.12208 0.54348 0.11823 0.0
C1407 C 0.16095 0.53648 0.13237 0.0
C1408 C 0.10569 0.5414 0.10199 0.0
C1409 C 0.11018 0.52918 0.08282 0.0
C1410 C 0.14333 0.53343 0.11525 0.0
C1411 C 0.13117 0.51855 0.08056 0.0
C1412 C 0.18087 0.52377 0.13304 0.0
C1413 C 0.17144 0.5546 0.16585 0.0
N1414 N 0.14726 0.52106 0.09665 0.0
N1415 N 0.15719 0.55168 0.14853 0.0
H1416 H 0.49633 0.85289 0.85542 0.0
H1417 H 0.55028 0.95037 0.92638 0.0
H1418 H 0.56354 0.87712 0.84194 0.0
H1419 H 0.47852 0.93701 0.92261 0.0
H1420 H 0.55709 0.92203 0.89796 0.0
H1421 H 0.49126 0.88152 0.8834 0.0
C1422 C 0.51015 0.86407 0.85858 0.0
C1423 C 0.53041 0.86253 0.84641 0.0
C1424 C 0.53988 0.92546 0.90333 0.0
C1425 C 0.52465 0.89561 0.87833 0.0
C1426 C 0.53597 0.94163 0.9195 0.0
C1427 C 0.51378 0.94607 0.92695 0.0
C1428 C 0.5215 0.91355 0.89479 0.0
C1429 C 0.49591 0.93418 0.91748 0.0
C1430 C 0.50717 0.88057 0.8744 0.0
C1431 C 0.5476 0.87778 0.85091 0.0
N1432 N 0.50018 0.91844 0.90206 0.0
N1433 N 0.54437 0.89367 0.86657 0.0
H1434 H 0.17032 0.52031 0.81697 0.0
H1435 H 0.11896 0.54762 0.93719 0.0
H1436 H 0.2002 0.56369 0.86535 0.0
H1437 H 0.07988 0.51333 0.88778 0.0
H1438 H 0.14993 0.55105 0.91075 0.0
H1439 H 0.13701 0.51642 0.84156 0.0
C1440 C 0.16973 0.5292 0.83259 0.0
C1441 C 0.18816 0.54207 0.83935 0.0
C1442 C 0.13454 0.54304 0.90539 0.0
C1443 C 0.15064 0.53749 0.8674 0.0
C1444 C 0.11689 0.54113 0.92049 0.0
C1445 C 0.09687 0.53073 0.91425 0.0
C1446 C 0.13207 0.53467 0.88373 0.0
C1447 C 0.0951 0.5218 0.89284 0.0
C1448 C 0.15086 0.52686 0.84662 0.0
C1449 C 0.18661 0.55324 0.85969 0.0
N1450 N 0.11254 0.52413 0.87811 0.0
N1451 N 0.16832 0.55055 0.87301 0.0
H1452 H 0.46982 0.19266 0.87838 0.0
H1453 H 0.53846 0.08395 0.90957 0.0
H1454 H 0.50913 0.15503 0.83105 0.0
H1455 H 0.49144 0.11462 0.95508 0.0
H1456 H 0.5258 0.10871 0.88014 0.0
H1457 H 0.4759 0.16396 0.90617 0.0
C1458 C 0.47967 0.17836 0.87374 0.0
C1459 C 0.48916 0.17651 0.85223 0.0
C1460 C 0.518 0.10998 0.89644 0.0
C1461 C 0.49599 0.14329 0.88417 0.0
C1462 C 0.5252 0.09578 0.91325 0.0
C1463 C 0.51597 0.09722 0.93477 0.0
C1464 C 0.50179 0.12627 0.90121 0.0
C1465 C 0.49885 0.11285 0.93865 0.0
C1466 C 0.48299 0.16187 0.88964 0.0
C1467 C 0.50135 0.15728 0.84724 0.0
N1468 N 0.49255 0.12701 0.92212 0.0
N1469 N 0.50456 0.14161 0.86309 0.0
H1470 H 0.84668 0.46703 0.86624 0.0
H1471 H 0.91894 0.55548 0.93335 0.0
H1472 H 0.84683 0.53562 0.84988 0.0
H1473 H 0.91989 0.48612 0.94708 0.0
H1474 H 0.89161 0.54904 0.90349 0.0
H1475 H 0.87491 0.47378 0.89518 0.0
C1476 C 0.85317 0.48343 0.8685 0.0
C1477 C 0.84474 0.50081 0.85581 0.0
C1478 C 0.89772 0.53528 0.91317 0.0
C1479 C 0.87611 0.50889 0.88925 0.0
C1480 C 0.91306 0.53898 0.93041 0.0
C1481 C 0.92185 0.52128 0.94256 0.0
C1482 C 0.89119 0.51378 0.90818 0.0
C1483 C 0.91372 0.50023 0.93798 0.0
C1484 C 0.86902 0.48736 0.88513 0.0
C1485 C 0.85325 0.52184 0.85934 0.0
N1486 N 0.89901 0.49705 0.92102 0.0
N1487 N 0.86837 0.52539 0.87598 0.0
H1488 H 0.65375 0.70867 1.00037 0.0
H1489 H 0.62021 0.58249 0.00301 0.0
H1490 H 0.69883 0.65644 0.02065 0.0
H1491 H 0.56947 0.63274 0.01207 0.0
H1492 H 0.64954 0.61057 0.00181 0.0
H1493 H 0.62251 0.68215 0.99869 0.0
C1494 C 0.65708 0.69174 0.0046 0.0
C1495 C 0.67909 0.68476 0.01034 0.0
C1496 C 0.63199 0.61554 0.00389 0.0
C1497 C 0.64369 0.65449 0.008 0.0
C1498 C 0.61532 0.59957 0.0044 0.0
C1499 C 0.59266 0.60554 0.00764 0.0
C1500 C 0.62587 0.63763 0.00653 0.0
C1501 C 0.58694 0.62773 0.00956 0.0
C1502 C 0.6393 0.67665 0.00351 0.0
C1503 C 0.68238 0.66256 0.01554 0.0
N1504 N 0.60353 0.64313 0.00898 0.0
N1505 N 0.66498 0.64827 0.01407 0.0
H1506 H 0.35402 0.69345 0.98637 0.0
H1507 H 0.41565 0.59664 0.05133 0.0
H1508 H 0.32946 0.66901 0.04927 0.0
H1509 H 0.42867 0.61227 0.98232 0.0
H1510 H 0.3834 0.62208 0.05096 0.0
H1511 H 0.38115 0.6632 0.98463 0.0
C1512 C 0.35426 0.68158 0.99976 0.0
C1513 C 0.33955 0.68377 0.01804 0.0
C1514 C 0.39318 0.61971 0.03585 0.0
C1515 C 0.37067 0.64908 0.01624 0.0
C1516 C 0.41159 0.6052 0.03604 0.0
C1517 C 0.42502 0.60242 0.01689 0.0
C1518 C 0.38835 0.6317 0.01645 0.0
C1519 C 0.41888 0.61389 0.99752 0.0
C1520 C 0.36969 0.66426 0.99872 0.0
C1521 C 0.34043 0.66783 0.03483 0.0
N1522 N 0.40119 0.6282 0.99789 0.0
N1523 N 0.35594 0.65126 0.03366 0.0
H1524 H 0.38139 0.33994 0.04417 0.0
H1525 H 0.42271 0.45037 0.98563 0.0
H1526 H 0.34142 0.37796 0.99798 0.0
H1527 H 0.45861 0.42022 0.04032 0.0
H1528 H 0.3958 0.42032 0.98594 0.0
H1529 H 0.41295 0.36559 0.03891 0.0
C1530 C 0.37939 0.3535 0.03273 0.0
C1531 C 0.35874 0.35702 0.02168 0.0
C1532 C 0.40968 0.42011 0.99775 0.0
C1533 C 0.39447 0.38626 0.01565 0.0
C1534 C 0.4251 0.43722 0.99751 0.0
C1535 C 0.44274 0.43781 0.01312 0.0
C1536 C 0.412 0.40335 0.01358 0.0
C1537 C 0.44499 0.42045 0.02822 0.0
C1538 C 0.3973 0.36816 0.02983 0.0
C1539 C 0.35695 0.37486 0.00709 0.0
N1540 N 0.42971 0.4039 0.02814 0.0
N1541 N 0.37451 0.38884 0.00459 0.0
H1542 H 0.72092 0.38501 0.99774 0.0
H1543 H 0.58967 0.41293 0.01624 0.0
H1544 H 0.67108 0.33899 0.02125 0.0
H1545 H 0.63986 0.46369 0.01228 0.0
H1546 H 0.61968 0.3854 0.01398 0.0
H1547 H 0.69198 0.41416 0.99969 0.0
C1548 C 0.70399 0.38108 0.00344 0.0
C1549 C 0.69835 0.35949 0.00911 0.0
C1550 C 0.62429 0.40252 0.01376 0.0
C1551 C 0.66533 0.39252 0.01119 0.0
C1552 C 0.60717 0.41816 0.01505 0.0
C1553 C 0.61256 0.44037 0.01477 0.0
C1554 C 0.64699 0.40915 0.01206 0.0
C1555 C 0.63529 0.44657 0.01283 0.0
C1556 C 0.68751 0.39766 0.00447 0.0
C1557 C 0.67611 0.35526 0.01624 0.0
N1558 N 0.65184 0.43095 0.01153 0.0
N1559 N 0.66047 0.37156 0.01698 0.0
H1560 H 0.96069 0.68436 0.64419 0.0
H1561 H 0.04758 0.59016 0.60598 0.0
H1562 H 0.02655 0.67161 0.67254 0.0
H1563 H 0.98444 0.60034 0.57117 0.0
H1564 H 0.03818 0.61986 0.6309 0.0
H1565 H 0.96762 0.65477 0.61673 0.0
C1566 C 0.97671 0.67559 0.64434 0.0
C1567 C 0.99311 0.68031 0.66059 0.0
C1568 C 0.02619 0.61577 0.61792 0.0
C1569 C 0.00093 0.64653 0.62986 0.0
C1570 C 0.03156 0.59866 0.60367 0.0
C1571 C 0.01685 0.59283 0.58639 0.0
C1572 C 0.00591 0.62755 0.615 0.0
C1573 C 0.9962 0.60429 0.58439 0.0
C1574 C 0.98057 0.65865 0.62887 0.0
C1575 C 0.01346 0.66843 0.66033 0.0
N1576 N 0.99136 0.62132 0.59847 0.0
N1577 N 0.0167 0.65213 0.64536 0.0
H1578 H 0.39061 1.0008 0.70025 0.0
H1579 H 0.43932 0.99743 0.57681 0.0
H1580 H 0.35309 0.01719 0.64064 0.0
H1581 H 0.48164 0.01589 0.63215 0.0
H1582 H 0.40797 0.99107 0.60246 0.0
H1583 H 0.42463 0.99503 0.67722 0.0
C1584 C 0.38947 1.00316 0.68241 0.0
C1585 C 0.36891 0.00944 0.67235 0.0
C1586 C 0.42427 0.99591 0.6091 0.0
C1587 C 0.40726 1.00211 0.64623 0.0
C1588 C 0.44211 0.99937 0.59457 0.0
C1589 C 0.46273 0.00722 0.60269 0.0
C1590 C 0.42721 1.00039 0.63181 0.0
C1591 C 0.46575 0.00989 0.62558 0.0
C1592 C 0.40877 0.99965 0.66937 0.0
C1593 C 0.36834 0.0119 0.64913 0.0
N1594 N 0.44791 0.00668 0.63954 0.0
N1595 N 0.38722 0.00819 0.63688 0.0
H1596 H 0.04102 0.3492 0.63964 0.0
H1597 H 0.988 0.46358 0.60083 0.0
H1598 H 0.98522 0.38102 0.67356 0.0
H1599 H 0.04575 0.43232 0.56955 0.0
H1600 H 0.98303 0.43115 0.62419 0.0
H1601 H 0.03996 0.37759 0.61124 0.0
C1602 C 0.02842 0.3621 0.64106 0.0
C1603 C 0.01317 0.36269 0.65908 0.0
C1604 C 0.99666 0.43135 0.61207 0.0
C1605 C 0.01201 0.39552 0.62655 0.0
C1606 C -0.00054 0.44982 0.59866 0.0
C1607 C 0.01768 0.45091 0.58361 0.0
C1608 C 0.01222 0.41391 0.61042 0.0
C1609 C 0.03173 0.43242 0.58123 0.0
C1610 C 0.02786 0.37836 0.62482 0.0
C1611 C -0.00251 0.38006 0.66016 0.0
N1612 N 0.02889 0.41483 0.59471 0.0
N1613 N -0.00265 0.3958 0.64415 0.0
H1614 H 0.66986 0.07311 0.67295 0.0
H1615 H 0.61315 0.99564 0.58819 0.0
H1616 H 0.69672 0.00773 0.66577 0.0
H1617 H 0.62238 0.06436 0.57429 0.0
H1618 H 0.64296 0.99786 0.61653 0.0
H1619 H 0.65008 0.06901 0.63746 0.0
C1620 C 0.67169 0.05797 0.6637 0.0
C1621 C 0.68484 0.04075 0.67204 0.0
C1622 C 0.63874 0.01226 0.60684 0.0
C1623 C 0.66225 0.03582 0.63177 0.0
C1624 C 0.62175 0.01105 0.59071 0.0
C1625 C 0.61484 0.03002 0.57934 0.0
C1626 C 0.64849 0.03259 0.61165 0.0
C1627 C 0.62673 0.04947 0.58309 0.0
C1628 C 0.66059 0.05566 0.64346 0.0
C1629 C 0.68673 0.02136 0.65962 0.0
N1630 N 0.64265 0.05036 0.59928 0.0
N1631 N 0.6752 0.01923 0.64013 0.0
H1632 H 0.05757 0.35024 0.38245 0.0
H1633 H 0.99315 0.46134 0.41678 0.0
H1634 H 0.00438 0.38165 0.34474 0.0
H1635 H 0.04821 0.43539 0.45597 0.0
H1636 H 0.99707 0.43079 0.39107 0.0
H1637 H 0.0541 0.37933 0.41089 0.0
C1638 C 0.04505 0.3631 0.38029 0.0
C1639 C 0.03138 0.36369 0.36113 0.0
C1640 C 0.00835 0.43156 0.40526 0.0
C1641 C 0.02741 0.39682 0.39327 0.0
C1642 C 0.00608 0.44903 0.41991 0.0
C1643 C 0.02036 0.45072 0.43835 0.0
C1644 C 0.02497 0.41542 0.40911 0.0
C1645 C 0.03695 0.43452 0.44176 0.0
C1646 C 0.04318 0.37973 0.3964 0.0
C1647 C 0.0155 0.38072 0.35906 0.0
N1648 N 0.03881 0.41738 0.42724 0.0
N1649 N 0.01404 0.39653 0.37482 0.0
H1650 H 0.681 0.01921 0.36758 0.0
H1651 H 0.55608 0.04643 0.40375 0.0
H1652 H 0.63756 0.06181 0.3291 0.0
H1653 H 0.59376 0.99125 0.4293 0.0
H1654 H 0.58331 0.04947 0.37322 0.0
H1655 H 0.64817 0.00748 0.38912 0.0
C1656 C 0.6645 0.02612 0.36371 0.0
C1657 C 0.66193 0.04156 0.34662 0.0
C1658 C 0.5853 0.0363 0.38512 0.0
C1659 C 0.62425 0.02795 0.3709 0.0
C1660 C 0.56966 0.03446 0.40236 0.0
C1661 C 0.57304 0.01881 0.41903 0.0
C1662 C 0.60456 0.02269 0.38503 0.0
C1663 C 0.59071 0.00359 0.41669 0.0
C1664 C 0.64573 0.01919 0.37579 0.0
C1665 C 0.64018 0.04978 0.34207 0.0
N1666 N 0.60629 0.0063 0.40031 0.0
N1667 N 0.62215 0.04301 0.35432 0.0
H1668 H 0.04478 0.65861 0.34409 0.0
H1669 H 0.00172 0.61846 0.46326 0.0
H1670 H 0.0001 0.69511 0.38769 0.0
H1671 H 0.04211 0.57764 0.41988 0.0
H1672 H 0.00764 0.64927 0.43831 0.0
H1673 H 0.0487 0.63056 0.37307 0.0
C1674 C 0.03574 0.66071 0.35968 0.0
C1675 C 0.02208 0.67927 0.36342 0.0
C1676 C 0.01556 0.63372 0.4343 0.0
C1677 C 0.0269 0.64755 0.39673 0.0
C1678 C 0.01233 0.61621 0.44865 0.0
C1679 C 0.0213 0.59559 0.4434 0.0
C1680 C 0.02741 0.63046 0.41423 0.0
C1681 C 0.03496 0.59339 0.42439 0.0
C1682 C 0.0382 0.64482 0.37629 0.0
C1683 C 0.01108 0.68128 0.3841 0.0
N1684 N 0.03725 0.61057 0.41015 0.0
N1685 N 0.0137 0.66564 0.39988 0.0
H1686 H 0.36553 0.96691 0.35598 0.0
H1687 H 0.41861 0.05111 0.44328 0.0
H1688 H 0.35103 0.03604 0.35651 0.0
H1689 H 0.43375 0.98183 0.44301 0.0
H1690 H 0.39295 0.04564 0.41206 0.0
H1691 H 0.39205 0.97211 0.38699 0.0
C1692 C 0.36848 0.98324 0.36234 0.0
C1693 C 0.35641 1.00113 0.35387 0.0
C1694 C 0.40179 0.03161 0.41892 0.0
C1695 C 0.38573 0.00716 0.38949 0.0
C1696 C 0.41628 0.03469 0.43691 0.0
C1697 C 0.42862 0.01696 0.44554 0.0
C1698 C 0.39966 0.01068 0.40954 0.0
C1699 C 0.42477 0.99603 0.43672 0.0
C1700 C 0.3833 0.9862 0.38015 0.0
C1701 C 0.36028 0.02195 0.36269 0.0
N1702 N 0.41079 0.9935 0.41901 0.0
N1703 N 0.37453 0.0244 0.38019 0.0
H1704 H 0.00118 0.17615 0.35096 0.0
H1705 H 0.05027 0.07445 0.42085 0.0
H1706 H 0.06696 0.14861 0.33631 0.0
H1707 H 0.99171 0.11354 0.43835 0.0
H1708 H 0.05686 0.09879 0.38858 0.0
H1709 H 0.99653 0.14967 0.3809 0.0
C1710 C 0.01472 0.16453 0.35427 0.0
C1711 C 0.03462 0.16477 0.34161 0.0
C1712 C 0.04275 0.10207 0.3997 0.0
C1713 C 0.02971 0.13444 0.3761 0.0
C1714 C 0.03914 0.08834 0.41819 0.0
C1715 C 0.02049 0.09207 0.43237 0.0
C1716 C 0.02756 0.11948 0.39555 0.0
C1717 C 0.00627 0.10999 0.42789 0.0
C1718 C 0.01213 0.14939 0.37135 0.0
C1719 C 0.05148 0.14902 0.34605 0.0
N1720 N 0.01007 0.12287 0.40996 0.0
N1721 N 0.04877 0.13453 0.36314 0.0
H1722 H 0.86561 0.07899 0.34592 0.0
H1723 H 0.93195 0.99261 0.42194 0.0
H1724 H 0.8768 0.01179 0.32677 0.0
H1725 H 0.91788 0.05941 0.44146 0.0
H1726 H 0.91083 0.99869 0.38759 0.0
H1727 H 0.88589 0.07215 0.38075 0.0
C1728 C 0.87253 0.06283 0.34909 0.0
C1729 C 0.86956 0.04588 0.33372 0.0
C1730 C 0.91212 0.01192 0.39954 0.0
C1731 C 0.89212 0.03772 0.37354 0.0
C1732 C 0.92394 0.00839 0.41931 0.0
C1733 C 0.92687 0.0256 0.43456 0.0
C1734 C 0.90312 0.03275 0.39505 0.0
C1735 C 0.9162 0.0457 0.43015 0.0
C1736 C 0.88395 0.05887 0.36896 0.0
C1737 C 0.87891 0.02526 0.33831 0.0
N1738 N 0.90501 0.04879 0.41068 0.0
N1739 N 0.88965 0.02167 0.35798 0.0
H1740 H 0.03087 0.85426 0.36524 0.0
H1741 H 0.0256 0.98126 0.39485 0.0
H1742 H 0.00787 0.90436 0.31969 0.0
H1743 H 0.01468 0.93208 0.44526 0.0
H1744 H 0.02921 0.95245 0.36694 0.0
H1745 H 0.03336 0.88204 0.39469 0.0
C1746 C 0.02626 0.871 0.3614 0.0
C1747 C 0.01921 0.87692 0.33983 0.0
C1748 C 0.02627 0.94796 0.38416 0.0
C1749 C 0.02269 0.90871 0.37326 0.0
C1750 C 0.02436 0.96438 0.40016 0.0
C1751 C 0.01945 0.95908 0.42238 0.0
C1752 C 0.02361 0.92604 0.39043 0.0
C1753 C 0.01814 0.93687 0.42824 0.0
C1754 C 0.02786 0.88682 0.37818 0.0
C1755 C 0.01386 0.899 0.33583 0.0
N1756 N 0.02008 0.92109 0.4123 0.0
N1757 N 0.0158 0.91405 0.35233 0.0
H1758 H 0.17086 0.97399 0.33558 0.0
H1759 H 0.07285 0.04407 0.39526 0.0
H1760 H 0.13647 0.02775 0.30329 0.0
H1761 H 0.11102 0.99229 0.42671 0.0
H1762 H 0.0939 0.03728 0.36045 0.0
H1763 H 0.14658 0.97892 0.36806 0.0
C1764 C 0.15804 0.98676 0.3353 0.0
C1765 C 0.15583 1.00065 0.31683 0.0
C1766 C 0.09772 0.0275 0.37501 0.0
C1767 C 0.12793 0.00648 0.35405 0.0
C1768 C 0.08585 0.03146 0.39481 0.0
C1769 C 0.09036 0.01871 0.41368 0.0
C1770 C 0.11435 0.01091 0.37436 0.0
C1771 C 0.10701 1.00234 0.41237 0.0
C1772 C 0.14417 0.98959 0.35385 0.0
C1773 C 0.13868 0.01668 0.31719 0.0
N1774 N 0.11848 0.99898 0.39308 0.0
N1775 N 0.12548 0.01931 0.33564 0.0
H1776 H 0.01555 0.89863 0.70203 0.0
H1777 H 0.99132 0.93126 0.5753 0.0
H1778 H 0.97377 0.86053 0.65774 0.0
H1779 H 0.03244 0.96942 0.6202 0.0
H1780 H 0.98126 0.90729 0.60637 0.0
H1781 H 0.01878 0.92667 0.67331 0.0
C1782 C 0.00688 0.89625 0.68631 0.0
C1783 C 0.99453 0.8771 0.68218 0.0
C1784 C 0.99235 0.92101 0.60943 0.0
C1785 C -0.00169 0.90909 0.64913 0.0
C1786 C -0.00193 0.93471 0.5917 0.0
C1787 C 0.01303 0.95214 0.59506 0.0
C1788 C 0.00175 0.92474 0.6306 0.0
C1789 C 0.02108 0.956 0.61674 0.0
C1790 C 0.00878 0.91225 0.66989 0.0
C1791 C 0.98383 0.87483 0.66145 0.0
N1792 N 0.01552 0.94228 0.63362 0.0
N1793 N 0.98605 0.89058 0.64566 0.0
H1794 H 0.18056 0.0536 0.68776 0.0
H1795 H 0.10707 0.98456 0.60135 0.0
H1796 H 0.15611 0.98863 0.70119 0.0
H1797 H 0.12462 0.05237 0.59129 0.0
H1798 H 0.12671 0.98515 0.63689 0.0
H1799 H 0.16056 0.05334 0.65215 0.0
C1800 C 0.1707 0.03937 0.68324 0.0
C1801 C 0.16995 0.02109 0.69732 0.0
C1802 C 0.12652 0.99983 0.6268 0.0
C1803 C 0.14744 0.02046 0.65643 0.0
C1804 C 0.11553 0.99947 0.60629 0.0
C1805 C 0.11415 0.0185 0.59317 0.0
C1806 C 0.1365 0.01925 0.63425 0.0
C1807 C 0.12529 0.03731 0.60074 0.0
C1808 C 0.15939 0.03918 0.6629 0.0
C1809 C 0.15695 1.00308 0.69082 0.0
N1810 N 0.1359 0.03723 0.62084 0.0
N1811 N 0.14634 1.00312 0.6707 0.0
H1812 H 0.04961 0.16238 0.68488 0.0
H1813 H 0.99178 0.0828 0.59548 0.0
H1814 H 0.9769 0.15818 0.67984 0.0
H1815 H 0.05981 0.10826 0.59128 0.0
H1816 H 0.98521 0.10599 0.62872 0.0
H1817 H 0.05335 0.13707 0.65353 0.0
C1818 C 0.03444 0.15595 0.67714 0.0
C1819 C 0.01297 0.16241 0.68462 0.0
C1820 C 0.00147 0.1065 0.6203 0.0
C1821 C 0.01694 0.1335 0.64871 0.0
C1822 C 0.00516 0.0934 0.60129 0.0
C1823 C 0.02637 0.09357 0.5905 0.0
C1824 C 0.01918 0.1196 0.62848 0.0
C1825 C 0.04321 0.10744 0.59897 0.0
C1826 C 0.03651 0.14158 0.65922 0.0
C1827 C 0.99374 0.15363 0.67422 0.0
N1828 N 0.03928 0.11969 0.61738 0.0
N1829 N 0.99614 0.13957 0.65668 0.0
H1830 H 0.88787 0.99948 0.70776 0.0
H1831 H 0.95458 0.06415 0.61416 0.0
H1832 H 0.8966 0.06934 0.70773 0.0
H1833 H 0.95003 0.99364 0.61589 0.0
H1834 H 0.93704 0.06587 0.65078 0.0
H1835 H 0.91618 0.99624 0.67805 0.0
C1836 C 0.8966 0.01402 0.70215 0.0
C1837 C 0.89011 0.03468 0.7101 0.0
C1838 C 0.9401 0.04999 0.64331 0.0
C1839 C 0.92146 0.03133 0.67555 0.0
C1840 C 0.95002 0.04898 0.6223 0.0
C1841 C 0.95393 0.02869 0.61199 0.0
C1842 C 0.93387 0.03059 0.65412 0.0
C1843 C 0.94742 0.00964 0.62327 0.0
C1844 C 0.91245 0.01224 0.68496 0.0
C1845 C 0.9014 0.05312 0.70207 0.0
N1846 N 0.93761 0.01106 0.64372 0.0
N1847 N 0.91623 0.05107 0.68487 0.0
H1848 H 0.34465 0.04194 0.14758 0.0
H1849 H 0.4257 0.98553 0.05704 0.0
H1850 H 0.34225 0.97273 0.13447 0.0
H1851 H 0.43938 0.04682 0.09004 0.0
H1852 H 0.39182 0.98124 0.08055 0.0
H1853 H 0.37449 0.0456 0.1195 0.0
C1854 C 0.3499 0.02766 0.13812 0.0
C1855 C 0.34102 0.00706 0.14307 0.0
C1856 C 0.40234 0.99556 0.08261 0.0
C1857 C 0.37569 0.01086 0.11173 0.0
C1858 C 0.42172 0.99795 0.06934 0.0
C1859 C 0.43541 0.01654 0.07159 0.0
C1860 C 0.39639 0.01215 0.09778 0.0
C1861 C 0.42946 0.03214 0.08779 0.0
C1862 C 0.36717 0.02965 0.12241 0.0
C1863 C 0.34861 0.98891 0.1308 0.0
N1864 N 0.41029 0.0297 0.10006 0.0
N1865 N 0.36578 0.99116 0.11579 0.0
H1866 H 0.01052 0.33185 0.12634 0.0
H1867 H 0.03748 0.45877 0.10747 0.0
H1868 H 0.04358 0.3733 0.17452 0.0
H1869 H 0.01404 0.41689 0.05441 0.0
H1870 H 0.03695 0.42771 0.13274 0.0
H1871 H 0.00984 0.3625 0.10005 0.0
C1872 C 0.01772 0.34732 0.13142 0.0
C1873 C 0.02694 0.34996 0.15288 0.0
C1874 C 0.03179 0.42526 0.11561 0.0
C1875 C 0.02586 0.38524 0.12288 0.0
C1876 C 0.03194 0.44309 0.10115 0.0
C1877 C 0.02585 0.44051 0.0787 0.0
C1878 C 0.02534 0.40456 0.10777 0.0
C1879 C 0.01896 0.41965 0.07156 0.0
C1880 C 0.01719 0.36485 0.1164 0.0
C1881 C 0.0358 0.37052 0.15845 0.0
N1882 N 0.01892 0.40246 0.08603 0.0
N1883 N 0.03498 0.38729 0.14362 0.0
H1884 H 0.65112 0.06443 0.17108 0.0
H1885 H 0.61599 0.02047 0.05057 0.0
H1886 H 0.69502 0.02538 0.12911 0.0
H1887 H 0.56872 0.04993 0.09698 0.0
H1888 H 0.64677 0.02763 0.07657 0.0
H1889 H 0.62231 0.06401 0.14183 0.0
C1890 C 0.65461 0.05563 0.15576 0.0
C1891 C 0.67534 0.0447 0.15262 0.0
C1892 C 0.62971 0.03273 0.08098 0.0
C1893 C 0.64261 0.04436 0.119 0.0
C1894 C 0.61209 0.02875 0.0661 0.0
C1895 C 0.58963 0.03431 0.07178 0.0
C1896 C 0.62488 0.04242 0.10167 0.0
C1897 C 0.58571 0.04512 0.09205 0.0
C1898 C 0.63825 0.05554 0.13901 0.0
C1899 C 0.67925 0.03405 0.13221 0.0
N1900 N 0.60315 0.04864 0.10636 0.0
N1901 N 0.66297 0.03403 0.11621 0.0
H1902 H 0.03169 0.7048 0.13087 0.0
H1903 H 0.99185 0.58331 0.10107 0.0
H1904 H 0.98832 0.66675 0.17371 0.0
H1905 H 0.03159 0.62398 0.05754 0.0
H1906 H 0.98601 0.61502 0.12584 0.0
H1907 H 0.02864 0.67654 0.10228 0.0
C1908 C 0.02138 0.69057 0.13424 0.0
C1909 C 0.0104 0.6881 0.15488 0.0
C1910 C 0.99566 0.61707 0.11063 0.0
C1911 C 0.00688 0.65546 0.12209 0.0
C1912 C -0.00128 0.59904 0.09638 0.0
C1913 C 0.01239 0.60098 0.07736 0.0
C1914 C 0.00642 0.63704 0.10577 0.0
C1915 C 0.02121 0.62168 0.07221 0.0
C1916 C 0.01965 0.67438 0.11787 0.0
C1917 C -0.00254 0.66915 0.15826 0.0
N1918 N 0.01834 0.63877 0.08642 0.0
N1919 N 0.99615 0.65355 0.14212 0.0
H1920 H 0.34955 0.9714 0.88577 0.0
H1921 H 0.4501 0.04718 0.91976 0.0
H1922 H 0.34712 0.04162 0.87965 0.0
H1923 H 0.43714 0.99004 0.95961 0.0
H1924 H 0.41446 0.04151 0.90044 0.0
H1925 H 0.38194 0.97484 0.91133 0.0
C1926 C 0.35539 0.98754 0.89042 0.0
C1927 C 0.34585 0.00626 0.88053 0.0
C1928 C 0.41942 0.03013 0.91341 0.0
C1929 C 0.38314 0.01018 0.9087 0.0
C1930 C 0.43993 0.03315 0.92427 0.0
C1931 C 0.44656 0.01915 0.94165 0.0
C1932 C 0.4054 0.01277 0.91963 0.0
C1933 C 0.43274 1.00115 0.94645 0.0
C1934 C 0.3739 0.98946 0.90481 0.0
C1935 C 0.35398 0.0268 0.88694 0.0
N1936 N 0.41265 0.99846 0.93554 0.0
N1937 N 0.37253 0.02819 0.90021 0.0
H1938 H 0.98321 0.35382 0.86891 0.0
H1939 H 0.05301 0.43409 0.94929 0.0
H1940 H 0.05588 0.35013 0.87522 0.0
H1941 H 0.98287 0.44311 0.93074 0.0
H1942 H 0.0542 0.40044 0.9267 0.0
H1943 H 0.98237 0.38312 0.89676 0.0
C1944 C -0.00102 0.35925 0.87628 0.0
C1945 C 0.01966 0.35003 0.86958 0.0
C1946 C 0.03857 0.40982 0.92765 0.0
C1947 C 0.019 0.38358 0.90129 0.0
C1948 C 0.03789 0.42903 0.9405 0.0
C1949 C 0.01788 0.44165 0.94167 0.0
C1950 C 0.01903 0.40309 0.91616 0.0
C1951 C -0.00123 0.43418 0.93007 0.0
C1952 C -0.00145 0.37595 0.89214 0.0
C1953 C 0.03966 0.35722 0.87981 0.0
N1954 N -0.00016 0.41548 0.91788 0.0
N1955 N 0.03888 0.37375 0.89508 0.0
H1956 H 0.71134 0.05919 0.90567 0.0
H1957 H 0.58231 0.01787 0.90785 0.0
H1958 H 0.67772 0.02586 0.85173 0.0
H1959 H 0.61396 0.04655 0.96542 0.0
H1960 H 0.61688 0.02385 0.88654 0.0
H1961 H 0.67628 0.05649 0.92792 0.0
C1962 C 0.69667 0.0512 0.89857 0.0
C1963 C 0.69738 0.04304 0.87666 0.0
C1964 C 0.61627 0.0293 0.90371 0.0
C1965 C 0.65725 0.04015 0.90183 0.0
C1966 C 0.59636 0.02613 0.9158 0.0
C1967 C 0.59499 0.03231 0.93825 0.0
C1968 C 0.63529 0.0385 0.91414 0.0
C1969 C 0.61398 0.04235 0.94792 0.0
C1970 C 0.67664 0.04982 0.9112 0.0
C1971 C 0.67786 0.03287 0.86831 0.0
N1972 N 0.63346 0.045 0.93586 0.0
N1973 N 0.6587 0.03181 0.88082 0.0
H1974 H 0.02684 0.70803 0.89054 0.0
H1975 H 0.00117 0.58133 0.90923 0.0
H1976 H 0.97638 0.6711 0.85477 0.0
H1977 H 0.02994 0.62002 0.96197 0.0
H1978 H -0.00062 0.61374 0.88571 0.0
H1979 H 0.03329 0.67629 0.91487 0.0
C1980 C 0.017 0.69337 0.88785 0.0
C1981 C 0.0013 0.69217 0.87021 0.0
C1982 C 0.00657 0.61517 0.90224 0.0
C1983 C 0.0091 0.65571 0.89765 0.0
C1984 C 0.00803 0.59655 0.9155 0.0
C1985 C 0.01627 0.59789 0.93732 0.0
C1986 C 0.01327 0.63548 0.91082 0.0
C1987 C 0.02408 0.61823 0.94498 0.0
C1988 C 0.02083 0.67524 0.90168 0.0
C1989 C 0.98915 0.67267 0.8676 0.0
N1990 N 0.02227 0.63636 0.93177 0.0
N1991 N 0.99345 0.65526 0.88099 0.0
H1992 H 0.13814 0.34178 0.9917 0.0
H1993 H 0.07985 0.44822 0.04536 0.0
H1994 H 0.14494 0.35858 0.06114 0.0
H1995 H 0.08928 0.43724 0.9748 0.0
H1996 H 0.09738 0.41234 0.05265 0.0
H1997 H 0.11363 0.37375 0.98643 0.0
C1998 C 0.13416 0.35214 0.00587 0.0
C1999 C 0.14356 0.34785 0.02681 0.0
C2000 C 0.09549 0.41787 0.03561 0.0
C2001 C 0.1157 0.3843 0.02103 0.0
C2002 C 0.08551 0.4383 0.03143 0.0
C2003 C 0.0834 0.44588 0.00943 0.0
C2004 C 0.10321 0.40505 0.01763 0.0
C2005 C 0.09078 0.43224 0.99203 0.0
C2006 C 0.12028 0.37037 0.00289 0.0
C2007 C 0.13811 0.36167 0.0447 0.0
N2008 N 0.10042 0.41259 0.99651 0.0
N2009 N 0.12453 0.37941 0.0414 0.0
H2010 H 0.14157 0.7001 0.98622 0.0
H2011 H 0.06082 0.60888 0.03617 0.0
H2012 H 0.12642 0.70146 0.05647 0.0
H2013 H 0.11032 0.59914 0.98421 0.0
H2014 H 0.07632 0.64585 0.04277 0.0
H2015 H 0.11842 0.66728 0.98235 0.0
C2016 C 0.13299 0.69358 1.00073 0.0
C2017 C 0.13613 0.7029 0.02173 0.0
C2018 C 0.08387 0.63536 0.03018 0.0
C2019 C 0.1103 0.66537 0.01767 0.0
C2020 C 0.07534 0.61424 0.02675 0.0
C2021 C 0.08445 0.60098 0.00985 0.0
C2022 C 0.10123 0.64304 0.01621 0.0
C2023 C 0.10279 0.60886 0.99742 0.0
C2024 C 0.11994 0.67488 0.9986 0.0
C2025 C 0.12451 0.69426 0.04009 0.0
N2026 N 0.11037 0.62941 1.00067 0.0
N2027 N 0.11226 0.67559 0.03775 0.0
H2028 H 0.32586 0.14617 0.04464 0.0
H2029 H 0.4405 0.11886 0.97852 0.0
H2030 H 0.34839 0.1818 0.98676 0.0
H2031 H 0.42267 0.09108 0.04233 0.0
H2032 H 0.4042 0.13847 0.97826 0.0
H2033 H 0.358 0.12102 0.04011 0.0
C2034 C 0.33745 0.14849 0.03082 0.0
C2035 C 0.33498 0.16634 0.01638 0.0
C2036 C 0.40831 0.12809 0.99231 0.0
C2037 C 0.37168 0.13798 0.01124 0.0
C2038 C 0.42908 0.11707 0.99255 0.0
C2039 C 0.43481 0.10365 0.01063 0.0
C2040 C 0.39314 0.12551 0.01019 0.0
C2041 C 0.41921 0.10163 0.02824 0.0
C2042 C 0.35582 0.13425 0.02831 0.0
C2043 C 0.35022 0.16857 0.99861 0.0
N2044 N 0.39908 0.11242 0.02756 0.0
N2045 N 0.36811 0.15467 0.99665 0.0
H2046 H 0.91054 0.34643 0.96759 0.0
H2047 H 0.95915 0.43578 0.0502 0.0
H2048 H 0.90812 0.34216 0.03918 0.0
H2049 H 0.97568 0.43647 0.98002 0.0
H2050 H 0.94209 0.40028 0.04568 0.0
H2051 H 0.93691 0.37745 0.97078 0.0
C2052 C 0.9158 0.35199 0.98392 0.0
C2053 C 0.90707 0.34225 0.00319 0.0
C2054 C 0.94965 0.40796 0.03123 0.0
C2055 C 0.93654 0.37744 0.00702 0.0
C2056 C 0.95935 0.42839 0.03378 0.0
C2057 C 0.96877 0.43926 0.01544 0.0
C2058 C 0.94904 0.39815 0.0101 0.0
C2059 C 0.96851 0.4287 0.99461 0.0
C2060 C 0.93079 0.36956 0.98576 0.0
C2061 C 0.91444 0.34953 0.024 0.0
N2062 N 0.95856 0.40874 0.99243 0.0
N2063 N 0.92851 0.36689 0.02537 0.0
H2064 H 0.68977 0.86949 0.97233 0.0
H2065 H 0.60992 0.95446 0.03676 0.0
H2066 H 0.70588 0.89619 0.03685 0.0
H2067 H 0.59589 0.9296 0.97084 0.0
H2068 H 0.64602 0.93472 0.03651 0.0
H2069 H 0.65718 0.89432 0.96998 0.0
C2070 C 0.68641 0.88075 0.98592 0.0
C2071 C 0.69999 0.88059 0.00501 0.0
C2072 C 0.63498 0.93347 0.02217 0.0
C2073 C 0.6627 0.90856 0.00278 0.0
C2074 C 0.6142 0.94447 0.02241 0.0
C2075 C 0.59972 0.94345 0.00386 0.0
C2076 C 0.64122 0.92116 0.00335 0.0
C2077 C 0.60645 0.93072 0.98553 0.0
C2078 C 0.66786 0.89487 0.98463 0.0
C2079 C 0.69548 0.89574 0.022 0.0
N2080 N 0.6267 0.92004 0.98576 0.0
N2081 N 0.67692 0.90893 0.02066 0.0
H2082 H 0.89536 0.69875 0.96886 0.0
H2083 H 0.92433 0.59717 0.04189 0.0
H2084 H 0.89621 0.69936 0.04064 0.0
H2085 H 0.9654 0.6063 0.98302 0.0
H2086 H 0.90786 0.63303 0.0366 0.0
H2087 H 0.91774 0.66438 0.96926 0.0
C2088 C 0.90078 0.69186 0.98461 0.0
C2089 C 0.89394 0.70145 0.00478 0.0
C2090 C 0.92033 0.62719 0.02467 0.0
C2091 C 0.91865 0.66267 0.00534 0.0
C2092 C 0.92959 0.6066 0.02751 0.0
C2093 C 0.9464 0.59879 0.01294 0.0
C2094 C 0.92758 0.6402 0.00692 0.0
C2095 C 0.95236 0.6117 0.9945 0.0
C2096 C 0.91345 0.67241 0.98482 0.0
C2097 C 0.9011 0.69218 0.02481 0.0
N2098 N 0.94296 0.63203 0.99199 0.0
N2099 N 0.91282 0.6731 0.0246 0.0
H2100 H 0.34298 0.8696 0.04662 0.0
H2101 H 0.40304 0.97176 0.98825 0.0
H2102 H 0.30952 0.9089 0.99669 0.0
H2103 H 0.43362 0.9307 0.03847 0.0
H2104 H 0.36758 0.95097 0.99216 0.0
H2105 H 0.37552 0.89374 0.04491 0.0
C2106 C 0.34255 0.88334 0.03523 0.0
C2107 C 0.3237 0.88712 0.02158 0.0
C2108 C 0.38207 0.94662 0.00233 0.0
C2109 C 0.36091 0.91503 0.01956 0.0
C2110 C 0.40222 0.95843 1.0001 0.0
C2111 C 0.42112 0.95294 0.01317 0.0
C2112 C 0.38116 0.92905 0.01742 0.0
C2113 C 0.41931 0.93565 0.02833 0.0
C2114 C 0.36109 0.89721 0.03432 0.0
C2115 C 0.32378 0.90546 0.0075 0.0
N2116 N 0.39978 0.92424 0.02989 0.0
N2117 N 0.34223 0.9187 0.00671 0.0
H2118 H 0.70761 0.17311 0.98001 0.0
H2119 H 0.63692 0.07874 0.03701 0.0
H2120 H 0.73296 0.13587 0.03575 0.0
H2121 H 0.62204 0.10379 0.97135 0.0
H2122 H 0.6729 0.09844 0.03646 0.0
H2123 H 0.67647 0.14718 0.97609 0.0
C2124 C 0.70655 0.1594 0.99138 0.0
C2125 C 0.72257 0.15664 0.00837 0.0
C2126 C 0.66187 0.09941 0.02207 0.0
C2127 C 0.68717 0.12705 0.0041 0.0
C2128 C 0.64134 0.08824 0.02242 0.0
C2129 C 0.62644 0.08988 0.00431 0.0
C2130 C 0.66724 0.11259 0.00368 0.0
C2131 C 0.63304 0.10215 0.98569 0.0
C2132 C 0.68894 0.14454 0.98906 0.0
C2133 C 0.72082 0.13849 0.02248 0.0
N2134 N 0.65283 0.11333 0.986 0.0
N2135 N 0.70321 0.12448 0.02021 0.0
H2136 H 0.49631 0.67535 0.84237 0.0
H2137 H 0.5491 0.57656 0.91389 0.0
H2138 H 0.55849 0.64303 0.82315 0.0
H2139 H 0.49022 0.61495 0.93217 0.0
H2140 H 0.55149 0.59721 0.87872 0.0
H2141 H 0.49199 0.64945 0.87289 0.0
C2142 C 0.50913 0.66278 0.84472 0.0
C2143 C 0.52801 0.66162 0.83061 0.0
C2144 C 0.53807 0.60103 0.89047 0.0
C2145 C 0.52342 0.63187 0.86583 0.0
C2146 C 0.53671 0.58931 0.91058 0.0
C2147 C 0.51959 0.59422 0.92626 0.0
C2148 C 0.52216 0.61771 0.88604 0.0
C2149 C 0.50385 0.61067 0.92085 0.0
C2150 C 0.50667 0.64793 0.86212 0.0
C2151 C 0.54382 0.64461 0.83393 0.0
N2152 N 0.5056 0.62178 0.90136 0.0
N2153 N 0.54136 0.63053 0.85143 0.0
H2154 H 0.39735 0.57887 0.83824 0.0
H2155 H 0.46405 0.49924 0.92097 0.0
H2156 H 0.4111 0.51098 0.824 0.0
H2157 H 0.45538 0.56831 0.93334 0.0
H2158 H 0.44789 0.50404 0.88398 0.0
H2159 H 0.42139 0.57625 0.87146 0.0
C2160 C 0.40556 0.56344 0.84212 0.0
C2161 C 0.40219 0.54508 0.82851 0.0
C2162 C 0.44976 0.51824 0.89462 0.0
C2163 C 0.42942 0.54181 0.86661 0.0
C2164 C 0.45914 0.51552 0.91577 0.0
C2165 C 0.46098 0.53336 0.93043 0.0
C2166 C 0.44199 0.53896 0.88795 0.0
C2167 C 0.45407 0.55404 0.92274 0.0
C2168 C 0.41929 0.56194 0.86103 0.0
C2169 C 0.41334 0.52552 0.83407 0.0
N2170 N 0.44469 0.55624 0.90211 0.0
N2171 N 0.42624 0.52432 0.85283 0.0
H2172 H 0.46848 0.40544 0.82428 0.0
H2173 H 0.54618 0.42841 0.93171 0.0
H2174 H 0.52172 0.36273 0.8478 0.0
H2175 H 0.48727 0.46776 0.91644 0.0
H2176 H 0.53911 0.40657 0.8985 0.0
H2177 H 0.47666 0.43075 0.85525 0.0
C2178 C 0.48192 0.40143 0.83589 0.0
C2179 C 0.49419 0.38172 0.83368 0.0
C2180 C 0.52763 0.41995 0.90236 0.0
C2181 C 0.50375 0.41062 0.86896 0.0
C2182 C 0.53166 0.43245 0.92144 0.0
C2183 C 0.5172 0.4499 0.92714 0.0
C2184 C 0.5089 0.42471 0.88869 0.0
C2185 C 0.49882 0.45443 0.91283 0.0
C2186 C 0.48654 0.41584 0.85358 0.0
C2187 C 0.51149 0.37744 0.84913 0.0
N2188 N 0.49514 0.44188 0.89434 0.0
N2189 N 0.5157 0.39168 0.866 0.0
H2190 H 0.61037 0.49768 0.81798 0.0
H2191 H 0.60475 0.51468 0.9504 0.0
H2192 H 0.66885 0.51019 0.85922 0.0
H2193 H 0.54519 0.51198 0.90873 0.0
H2194 H 0.62846 0.50941 0.9174 0.0
H2195 H 0.58619 0.50053 0.85107 0.0
C2196 C 0.61816 0.50111 0.83393 0.0
C2197 C 0.64178 0.50352 0.83572 0.0
C2198 C 0.6102 0.50986 0.91546 0.0
C2199 C 0.61415 0.50643 0.87381 0.0
C2200 C 0.59662 0.51274 0.93434 0.0
C2201 C 0.57291 0.51389 0.93237 0.0
C2202 C 0.60007 0.50812 0.89436 0.0
C2203 C 0.56338 0.51119 0.91109 0.0
C2204 C 0.60433 0.50258 0.85286 0.0
C2205 C 0.65083 0.50771 0.85697 0.0
N2206 N 0.57699 0.50858 0.89291 0.0
N2207 N 0.63705 0.50898 0.87512 0.0
H2208 H 0.47858 0.36197 0.16338 0.0
H2209 H 0.53611 0.47183 0.11889 0.0
H2210 H 0.51853 0.40467 0.20475 0.0
H2211 H 0.4921 0.43212 0.07866 0.0
H2212 H 0.52669 0.44959 0.15145 0.0
H2213 H 0.48085 0.38875 0.13318 0.0
C2214 C 0.4879 0.37694 0.16612 0.0
C2215 C 0.49859 0.38084 0.18665 0.0
C2216 C 0.51882 0.44583 0.13561 0.0
C2217 C 0.50115 0.41184 0.15197 0.0
C2218 C 0.52413 0.45861 0.11701 0.0
C2219 C 0.51486 0.45384 0.09602 0.0
C2220 C 0.5045 0.42769 0.13321 0.0
C2221 C 0.49944 0.43651 0.09457 0.0
C2222 C 0.48904 0.39234 0.14888 0.0
C2223 C 0.50996 0.40087 0.18929 0.0
N2224 N 0.49501 0.42386 0.11281 0.0
N2225 N 0.51111 0.41545 0.17215 0.0
H2226 H 0.63188 0.47737 0.19701 0.0
H2227 H 0.61336 0.54081 0.08505 0.0
H2228 H 0.63733 0.54728 0.19038 0.0
H2229 H 0.5672 0.48817 0.09883 0.0
H2230 H 0.62859 0.53749 0.1224 0.0
H2231 H 0.6117 0.47606 0.1609 0.0
C2232 C 0.62825 0.49244 0.18821 0.0
C2233 C 0.63632 0.51247 0.19638 0.0
C2234 C 0.61537 0.52636 0.11721 0.0
C2235 C 0.61411 0.51102 0.15538 0.0
C2236 C 0.60688 0.528 0.09575 0.0
C2237 C 0.58898 0.51466 0.08871 0.0
C2238 C 0.60625 0.51101 0.13195 0.0
C2239 C 0.58119 0.49849 0.10345 0.0
C2240 C 0.61688 0.49167 0.16768 0.0
C2241 C 0.63151 0.53154 0.18445 0.0
N2242 N 0.58982 0.49712 0.12457 0.0
N2243 N 0.62101 0.53032 0.16442 0.0
H2244 H 0.51809 0.64356 0.2081 0.0
H2245 H 0.55642 0.6041 0.08594 0.0
H2246 H 0.56686 0.67889 0.16857 0.0
H2247 H 0.49307 0.58699 0.11721 0.0
H2248 H 0.56621 0.62575 0.11929 0.0
H2249 H 0.51484 0.61661 0.17818 0.0
C2250 C 0.5283 0.64558 0.19323 0.0
C2251 C 0.54256 0.66376 0.19078 0.0
C2252 C 0.55032 0.61695 0.11888 0.0
C2253 C 0.53881 0.63287 0.1563 0.0
C2254 C 0.5448 0.60453 0.09994 0.0
C2255 C 0.52382 0.59384 0.09872 0.0
C2256 C 0.53496 0.61822 0.13683 0.0
C2257 C 0.50934 0.59504 0.11732 0.0
C2258 C 0.52635 0.63021 0.17609 0.0
C2259 C 0.55529 0.66543 0.17101 0.0
N2260 N 0.51516 0.60696 0.13552 0.0
N2261 N 0.55306 0.65025 0.1545 0.0
H2262 H 0.39583 0.50582 0.1868 0.0
H2263 H 0.48224 0.55365 0.09931 0.0
H2264 H 0.40997 0.57473 0.19067 0.0
H2265 H 0.42621 0.51199 0.08268 0.0
H2266 H 0.46575 0.5592 0.13678 0.0
H2267 H 0.42031 0.50314 0.15388 0.0
C2268 C 0.40505 0.52014 0.18136 0.0
C2269 C 0.40102 0.5405 0.19133 0.0
C2270 C 0.45693 0.54927 0.12465 0.0
C2271 C 0.42826 0.53775 0.15352 0.0
C2272 C 0.46592 0.54671 0.10313 0.0
C2273 C 0.45506 0.53319 0.08762 0.0
C2274 C 0.43758 0.5374 0.1307 0.0
C2275 C 0.43486 0.52293 0.09401 0.0
C2276 C 0.41864 0.51871 0.1624 0.0
C2277 C 0.41289 0.55875 0.18339 0.0
N2278 N 0.42698 0.52496 0.11513 0.0
N2279 N 0.4258 0.55706 0.16462 0.0
H2280 H 0.83745 0.47658 0.6608 0.0
H2281 H 0.91629 0.55228 0.58469 0.0
H2282 H 0.81823 0.54151 0.64004 0.0
H2283 H 0.93864 0.49204 0.61509 0.0
H2284 H 0.87852 0.54686 0.60074 0.0
H2285 H 0.87201 0.47929 0.63829 0.0
C2286 C 0.84015 0.49108 0.65079 0.0
C2287 C 0.82513 0.50888 0.65223 0.0
C2288 C 0.89179 0.53502 0.60423 0.0
C2289 C 0.86484 0.51244 0.62712 0.0
C2290 C 0.91345 0.53831 0.59543 0.0
C2291 C 0.93076 0.52288 0.59913 0.0
C2292 C 0.88744 0.51621 0.61694 0.0
C2293 C 0.92585 0.50451 0.61221 0.0
C2294 C 0.86002 0.49278 0.63825 0.0
C2295 C 0.82952 0.52749 0.63933 0.0
N2296 N 0.90467 0.50172 0.6207 0.0
N2297 N 0.84914 0.5289 0.62748 0.0
H2298 H 0.50065 0.83337 0.61775 0.0
H2299 H 0.5495 0.9541 0.59805 0.0
H2300 H 0.55082 0.86458 0.65902 0.0
H2301 H 0.5022 0.92437 0.55251 0.0
H2302 H 0.5498 0.92075 0.62003 0.0
H2303 H 0.50106 0.86535 0.59287 0.0
C2304 C 0.51184 0.84687 0.62153 0.0
C2305 C 0.52544 0.84643 0.64078 0.0
C2306 C 0.53919 0.92144 0.60533 0.0
C2307 C 0.52592 0.88307 0.61244 0.0
C2308 C 0.53888 0.94065 0.59281 0.0
C2309 C 0.52563 0.94224 0.57347 0.0
C2310 C 0.52596 0.90351 0.59878 0.0
C2311 C 0.51261 0.92394 0.56736 0.0
C2312 C 0.51199 0.86514 0.60736 0.0
C2313 C 0.53961 0.86437 0.64476 0.0
N2314 N 0.51302 0.90537 0.58002 0.0
N2315 N 0.5394 0.88187 0.63083 0.0
H2316 H 0.2271 0.56652 0.62189 0.0
H2317 H 0.12061 0.49366 0.59042 0.0
H2318 H 0.2165 0.50116 0.64625 0.0
H2319 H 0.13347 0.55696 0.56143 0.0
H2320 H 0.15824 0.49425 0.60723 0.0
H2321 H 0.19645 0.56115 0.59481 0.0
C2322 C 0.21883 0.55077 0.62091 0.0
C2323 C 0.22419 0.53421 0.63613 0.0
C2324 C 0.15299 0.5079 0.59694 0.0
C2325 C 0.18873 0.5282 0.60608 0.0
C2326 C 0.13145 0.50759 0.58737 0.0
C2327 C 0.12378 0.5254 0.57466 0.0
C2328 C 0.16702 0.52615 0.59379 0.0
C2329 C 0.13854 0.54304 0.57136 0.0
C2330 C 0.20119 0.54776 0.60568 0.0
C2331 C 0.21279 0.51424 0.63463 0.0
N2332 N 0.1594 0.54303 0.58098 0.0
N2333 N 0.19534 0.51189 0.62012 0.0
H2334 H 0.51385 0.21123 0.62532 0.0
H2335 H 0.48225 0.08803 0.59028 0.0
H2336 H 0.46408 0.17282 0.66032 0.0
H2337 H 0.53731 0.12529 0.56241 0.0
H2338 H 0.47028 0.12086 0.61147 0.0
H2339 H 0.51778 0.1819 0.59786 0.0
C2340 C 0.50354 0.19673 0.62714 0.0
C2341 C 0.48885 0.19442 0.64546 0.0
C2342 C 0.48484 0.12182 0.6005 0.0
C2343 C 0.49339 0.16047 0.61394 0.0
C2344 C 0.49155 0.10312 0.58831 0.0
C2345 C 0.51106 0.10374 0.5749 0.0
C2346 C 0.49767 0.14119 0.59908 0.0
C2347 C 0.52242 0.12385 0.57291 0.0
C2348 C 0.50586 0.17989 0.61145 0.0
C2349 C 0.47603 0.17513 0.64683 0.0
N2350 N 0.51573 0.14157 0.58495 0.0
N2351 N 0.47869 0.15888 0.63142 0.0
H2352 H 0.82938 0.47763 0.37966 0.0
H2353 H 0.90729 0.55264 0.45487 0.0
H2354 H 0.81256 0.54431 0.3966 0.0
H2355 H 0.92052 0.48413 0.4424 0.0
H2356 H 0.86996 0.54868 0.43784 0.0
H2357 H 0.85924 0.47787 0.40783 0.0
C2358 C 0.83173 0.49215 0.38974 0.0
C2359 C 0.81893 0.5111 0.38567 0.0
C2360 C 0.88093 0.53446 0.43903 0.0
C2361 C 0.8533 0.5118 0.41736 0.0
C2362 C 0.90231 0.53675 0.4486 0.0
C2363 C 0.91709 0.51874 0.44986 0.0
C2364 C 0.87441 0.51408 0.43042 0.0
C2365 C 0.90968 0.49848 0.44172 0.0
C2366 C 0.84879 0.49235 0.40574 0.0
C2367 C 0.82229 0.52945 0.39922 0.0
N2368 N 0.88894 0.49676 0.43214 0.0
N2369 N 0.83954 0.52952 0.4142 0.0
H2370 H 0.56254 0.83555 0.40671 0.0
H2371 H 0.51062 0.95605 0.4237 0.0
H2372 H 0.52122 0.86962 0.35851 0.0
H2373 H 0.54293 0.92063 0.47726 0.0
H2374 H 0.51698 0.92488 0.39921 0.0
H2375 H 0.55757 0.86647 0.43257 0.0
C2376 C 0.5524 0.84948 0.40156 0.0
C2377 C 0.54252 0.85007 0.38023 0.0
C2378 C 0.52283 0.92388 0.41628 0.0
C2379 C 0.53686 0.88551 0.40969 0.0
C2380 C 0.51932 0.94181 0.43029 0.0
C2381 C 0.52627 0.94109 0.45263 0.0
C2382 C 0.53357 0.90495 0.42444 0.0
C2383 C 0.5373 0.92197 0.46015 0.0
C2384 C 0.54963 0.86714 0.41632 0.0
C2385 C 0.52962 0.86859 0.3745 0.0
N2386 N 0.54061 0.90466 0.4461 0.0
N2387 N 0.52722 0.88547 0.38908 0.0
H2388 H 0.20677 0.5765 0.36694 0.0
H2389 H 0.11426 0.49579 0.41869 0.0
H2390 H 0.21635 0.50671 0.37085 0.0
H2391 H 0.10498 0.56574 0.4133 0.0
H2392 H 0.15142 0.49919 0.40124 0.0
H2393 H 0.17014 0.57282 0.38574 0.0
C2394 C 0.20121 0.56043 0.37213 0.0
C2395 C 0.21448 0.54189 0.36749 0.0
C2396 C 0.14115 0.51376 0.40363 0.0
C2397 C 0.17232 0.53738 0.38827 0.0
C2398 C 0.11974 0.51185 0.41338 0.0
C2399 C 0.10631 0.53055 0.41751 0.0
C2400 C 0.14925 0.53452 0.39782 0.0
C2401 C 0.11461 0.55086 0.41043 0.0
C2402 C 0.18026 0.55828 0.38267 0.0
C2403 C 0.20662 0.52139 0.37438 0.0
N2404 N 0.13557 0.5523 0.40108 0.0
N2405 N 0.18589 0.51964 0.38426 0.0
H2406 H 0.47199 0.18364 0.37265 0.0
H2407 H 0.53785 0.11998 0.46887 0.0
H2408 H 0.53724 0.2076 0.39354 0.0
H2409 H 0.49407 0.09015 0.42025 0.0
H2410 H 0.53702 0.1542 0.44665 0.0
H2411 H 0.47683 0.15223 0.39724 0.0
C2412 C 0.4874 0.18224 0.38237 0.0
C2413 C 0.50449 0.19796 0.38051 0.0
C2414 C 0.52803 0.13995 0.44073 0.0
C2415 C 0.51027 0.16179 0.40881 0.0
C2416 C 0.5288 0.12035 0.45318 0.0
C2417 C 0.51624 0.10207 0.44621 0.0
C2418 C 0.51422 0.14119 0.4216 0.0
C2419 C 0.50417 0.10372 0.42614 0.0
C2420 C 0.49019 0.16429 0.39643 0.0
C2421 C 0.52375 0.19569 0.39426 0.0
N2422 N 0.50322 0.12287 0.41482 0.0
N2423 N 0.52627 0.17779 0.4077 0.0
H2424 H 0.65572 0.848 0.5428 0.0
H2425 H 0.5864 0.9407 0.47789 0.0
H2426 H 0.65132 0.85191 0.47131 0.0
H2427 H 0.58971 0.93694 0.54965 0.0
H2428 H 0.60577 0.90544 0.4754 0.0
H2429 H 0.62688 0.87702 0.54591 0.0
C2430 C 0.64829 0.85474 0.52778 0.0
C2431 C 0.65586 0.84773 0.50678 0.0
C2432 C 0.60215 0.91221 0.49172 0.0
C2433 C 0.62344 0.88128 0.5101 0.0
C2434 C 0.5911 0.93243 0.49317 0.0
C2435 C 0.58673 0.94207 0.51401 0.0
C2436 C 0.60908 0.90143 0.51125 0.0
C2437 C 0.59304 0.93035 0.5332 0.0
C2438 C 0.63194 0.87136 0.52953 0.0
C2439 C 0.64586 0.85692 0.48779 0.0
N2440 N 0.60407 0.91077 0.53135 0.0
N2441 N 0.63038 0.87343 0.48989 0.0
H2442 H 0.65332 0.20427 0.54371 0.0
H2443 H 0.59526 0.11388 0.46776 0.0
H2444 H 0.6552 0.20227 0.472 0.0
H2445 H 0.58659 0.11408 0.53926 0.0
H2446 H 0.61362 0.14885 0.46995 0.0
H2447 H 0.62439 0.17527 0.54338 0.0
C2448 C 0.64706 0.19824 0.52791 0.0
C2449 C 0.65672 0.20547 0.50784 0.0
C2450 C 0.6077 0.14147 0.48527 0.0
C2451 C 0.6244 0.17207 0.50732 0.0
C2452 C 0.59723 0.12125 0.48406 0.0
C2453 C 0.58953 0.1107 0.5034 0.0
C2454 C 0.61094 0.15153 0.50603 0.0
C2455 C 0.59255 0.12143 0.52394 0.0
C2456 C 0.63078 0.18154 0.52773 0.0
C2457 C 0.64824 0.19706 0.48783 0.0
N2458 N 0.60323 0.14123 0.52475 0.0
N2459 N 0.63287 0.18065 0.4881 0.0
H2460 H 0.8594 0.6696 0.46283 0.0
H2461 H 0.91947 0.58464 0.54485 0.0
H2462 H 0.83227 0.64844 0.52596 0.0
H2463 H 0.9451 0.59521 0.47834 0.0
H2464 H 0.88695 0.6073 0.53657 0.0
H2465 H 0.89015 0.64238 0.46655 0.0
C2466 C 0.85988 0.65922 0.47744 0.0
C2467 C 0.84322 0.66137 0.49415 0.0
C2468 C 0.89949 0.60473 0.52361 0.0
C2469 C 0.87835 0.6303 0.49851 0.0
C2470 C 0.91828 0.59177 0.52836 0.0
C2471 C 0.93541 0.58827 0.5124 0.0
C2472 C 0.89755 0.61475 0.50271 0.0
C2473 C 0.93244 0.59763 0.49121 0.0
C2474 C 0.87736 0.64363 0.47947 0.0
C2475 C 0.84454 0.64731 0.51255 0.0
N2476 N 0.91398 0.61073 0.48704 0.0
N2477 N 0.86181 0.63259 0.51428 0.0
H2478 H 0.38413 0.84667 0.48316 0.0
H2479 H 0.45118 0.9373 0.55298 0.0
H2480 H 0.38398 0.85039 0.5548 0.0
H2481 H 0.45415 0.93278 0.48124 0.0
H2482 H 0.42953 0.90342 0.55393 0.0
H2483 H 0.41316 0.8754 0.482 0.0
C2484 C 0.39043 0.85346 0.49863 0.0
C2485 C 0.38156 0.84648 0.51909 0.0
C2486 C 0.43499 0.90974 0.53796 0.0
C2487 C 0.41431 0.87952 0.51799 0.0
C2488 C 0.44731 0.92919 0.53739 0.0
C2489 C 0.45429 0.93816 0.51698 0.0
C2490 C 0.42937 0.89908 0.51796 0.0
C2491 C 0.44894 0.92666 0.49737 0.0
C2492 C 0.40693 0.86984 0.498 0.0
C2493 C 0.39034 0.85552 0.53871 0.0
N2494 N 0.43667 0.90785 0.49834 0.0
N2495 N 0.40602 0.87174 0.53767 0.0
H2496 H 0.20872 0.39716 0.50521 0.0
H2497 H 0.08635 0.44346 0.54002 0.0
H2498 H 0.165 0.3648 0.55238 0.0
H2499 H 0.12703 0.46845 0.48592 0.0
H2500 H 0.11732 0.41799 0.54933 0.0
H2501 H 0.18117 0.42695 0.50244 0.0
C2502 C 0.19337 0.39644 0.51514 0.0
C2503 C 0.18896 0.37843 0.52888 0.0
C2504 C 0.11943 0.42918 0.53552 0.0
C2505 C 0.15729 0.41236 0.52573 0.0
C2506 C 0.10182 0.44369 0.53024 0.0
C2507 C 0.10398 0.45771 0.51191 0.0
C2508 C 0.13926 0.42894 0.52245 0.0
C2509 C 0.12444 0.45757 0.49991 0.0
C2510 C 0.17761 0.41341 0.51351 0.0
C2511 C 0.16878 0.37824 0.54129 0.0
N2512 N 0.1412 0.44333 0.50532 0.0
N2513 N 0.1536 0.39494 0.53935 0.0
H2514 H 0.39773 0.20629 0.49309 0.0
H2515 H 0.41416 0.084 0.53485 0.0
H2516 H 0.36876 0.179 0.55291 0.0
H2517 H 0.46832 0.11451 0.49819 0.0
H2518 H 0.39248 0.11792 0.5331 0.0
H2519 H 0.42118 0.17293 0.48878 0.0
C2520 C 0.3965 0.19343 0.50541 0.0
C2521 C 0.38089 0.19511 0.52311 0.0
C2522 C 0.40897 0.11721 0.52514 0.0
C2523 C 0.40704 0.15716 0.518 0.0
C2524 C 0.42117 0.09776 0.52585 0.0
C2525 C 0.44292 0.09652 0.5166 0.0
C2526 C 0.41865 0.13578 0.51536 0.0
C2527 C 0.45142 0.11487 0.5053 0.0
C2528 C 0.40975 0.17443 0.50286 0.0
C2529 C 0.38003 0.1781 0.53866 0.0
N2530 N 0.43933 0.13401 0.50522 0.0
N2531 N 0.39268 0.1598 0.5356 0.0
H2532 H 0.83124 0.40037 0.47742 0.0
H2533 H 0.95052 0.43274 0.53187 0.0
H2534 H 0.86432 0.36423 0.53002 0.0
H2535 H 0.91316 0.47577 0.4881 0.0
H2536 H 0.92182 0.40472 0.52625 0.0
H2537 H 0.8631 0.42602 0.47713 0.0
C2538 C 0.84512 0.39786 0.48896 0.0
C2539 C 0.84506 0.38006 0.50376 0.0
C2540 C 0.91998 0.42021 0.51769 0.0
C2541 C 0.8817 0.40916 0.50327 0.0
C2542 C 0.93647 0.4362 0.52078 0.0
C2543 C 0.93405 0.45681 0.51076 0.0
C2544 C 0.90091 0.42478 0.50442 0.0
C2545 C 0.91554 0.46023 0.49641 0.0
C2546 C 0.86338 0.41241 0.48866 0.0
C2547 C 0.86372 0.37748 0.51809 0.0
N2548 N 0.89954 0.44446 0.49385 0.0
N2549 N 0.88119 0.39184 0.5175 0.0
H2550 H 0.18002 0.67938 0.49602 0.0
H2551 H 0.10692 0.57725 0.53893 0.0
H2552 H 0.2003 0.6417 0.55333 0.0
H2553 H 0.08972 0.6187 0.48344 0.0
H2554 H 0.14061 0.60004 0.54596 0.0
H2555 H 0.14712 0.65598 0.4915 0.0
C2556 C 0.17743 0.66613 0.50771 0.0
C2557 C 0.19269 0.66262 0.52521 0.0
C2558 C 0.12926 0.60423 0.53243 0.0
C2559 C 0.15469 0.63568 0.52039 0.0
C2560 C 0.10992 0.59138 0.52861 0.0
C2561 C 0.09545 0.59606 0.51064 0.0
C2562 C 0.13398 0.62192 0.51816 0.0
C2563 C 0.10036 0.61439 0.49749 0.0
C2564 C 0.15861 0.65273 0.50518 0.0
C2565 C 0.18881 0.64494 0.53965 0.0
N2566 N 0.11914 0.62647 0.50144 0.0
N2567 N 0.17005 0.63217 0.53704 0.0
loop_
_geom_bond_atom_site_label_1
_geom_bond_atom_site_label_2
_geom_bond_distance
_geom_bond_site_symmetry_2
_ccdc_geom_bond_type
C0 C1 1.264 . S
C0 C5 1.479 . S
C0 C10 1.465 . S
C1 C0 1.264 . S
C1 C3 1.339 . S
C1 H28 0.931 . S
C2 C3 1.395 . S
C2 C4 1.320 . S
C3 C1 1.339 . S
C3 C2 1.395 . S
C3 H29 0.929 . S
C4 C2 1.320 . S
C4 C5 1.405 . S
C4 H30 0.930 . S
C5 C0 1.479 . S
C5 C4 1.405 . S
C5 H31 0.931 . S
U6 O7 2.454 . S
U6 O8 2.458 . S
U6 C9 2.984 . S
U6 C10 2.847 . S
U6 C23 2.882 . S
U6 O24 2.441 . S
U6 O25 2.420 . S
U6 O26 2.455 . S
U6 O27 2.449 . S
O7 U6 2.454 . S
O7 C9 1.353 . S
O8 U6 2.458 . S
O8 C9 1.286 . S
C9 U6 2.984 . S
C9 O7 1.353 . S
C9 O8 1.286 . S
C9 C11 1.363 . S
C10 C0 1.465 . S
C10 U6 2.847 . S
C10 O24 1.249 . S
C10 O25 1.202 . S
C11 C9 1.363 . S
C11 C13 1.408 . S
C11 C16 1.342 . S
C12 C13 1.310 . S
C12 C15 1.461 . S
C12 H32 0.932 . S
C13 C11 1.408 . S
C13 C12 1.310 . S
C13 H33 0.930 . S
C14 C15 1.474 . S
C14 C16 1.285 . S
C14 H34 0.929 . S
C15 C12 1.461 . S
C15 C14 1.474 . S
C16 C11 1.342 . S
C16 C14 1.285 . S
C16 H35 0.930 . S
C17 C20 1.424 . S
C17 C22 1.245 . S
C17 C23 1.428 . S
C18 C21 1.260 . S
C18 C22 1.477 . S
C18 H36 0.932 . S
C19 C20 1.384 . S
C19 C21 1.479 . S
C19 H37 0.929 . S
C20 C17 1.424 . S
C20 C19 1.384 . S
C20 H38 0.928 . S
C21 C18 1.260 . S
C21 C19 1.479 . S
C22 C17 1.245 . S
C22 C18 1.477 . S
C22 H39 0.932 . S
C23 U6 2.882 . S
C23 C17 1.428 . S
C23 O26 1.301 . S
C23 O27 1.282 . S
O24 U6 2.441 . S
O24 C10 1.249 . S
O25 U6 2.420 . S
O25 C10 1.202 . S
O26 U6 2.455 . S
O26 C23 1.301 . S
O27 U6 2.449 . S
O27 C23 1.282 . S
H28 C1 0.931 . S
H29 C3 0.929 . S
H30 C4 0.930 . S
H31 C5 0.931 . S
H32 C12 0.932 . S
H33 C13 0.930 . S
H34 C14 0.929 . S
H35 C16 0.930 . S
H36 C18 0.932 . S
H37 C19 0.929 . S
H38 C20 0.928 . S
H39 C22 0.932 . S
C40 C41 1.264 . S
C40 C45 1.479 . S
C40 C50 1.465 . S
C41 C40 1.264 . S
C41 C43 1.339 . S
C41 H68 0.931 . S
C42 C43 1.395 . S
C42 C44 1.320 . S
C43 C41 1.339 . S
C43 C42 1.395 . S
C43 H69 0.929 . S
C44 C42 1.320 . S
C44 C45 1.405 . S
C44 H70 0.930 . S
C45 C40 1.479 . S
C45 C44 1.405 . S
C45 H71 0.931 . S
U46 O47 2.454 . S
U46 O48 2.458 . S
U46 C49 2.984 . S
U46 C50 2.847 . S
U46 C63 2.882 . S
U46 O64 2.441 . S
U46 O65 2.420 . S
U46 O66 2.455 . S
U46 O67 2.449 . S
O47 U46 2.454 . S
O47 C49 1.353 . S
O48 U46 2.458 . S
O48 C49 1.286 . S
C49 U46 2.984 . S
C49 O47 1.353 . S
C49 O48 1.286 . S
C49 C51 1.363 . S
C50 C40 1.465 . S
C50 U46 2.847 . S
C50 O64 1.249 . S
C50 O65 1.202 . S
C51 C49 1.363 . S
C51 C53 1.408 . S
C51 C56 1.342 . S
C52 C53 1.310 . S
C52 C55 1.461 . S
C52 H72 0.932 . S
C53 C51 1.408 . S
C53 C52 1.310 . S
C53 H73 0.930 . S
C54 C55 1.474 . S
C54 C56 1.285 . S
C54 H74 0.929 . S
C55 C52 1.461 . S
C55 C54 1.474 . S
C56 C51 1.342 . S
C56 C54 1.285 . S
C56 H75 0.930 . S
C57 C60 1.424 . S
C57 C62 1.245 . S
C57 C63 1.428 . S
C58 C61 1.260 . S
C58 C62 1.477 . S
C58 H76 0.932 . S
C59 C60 1.384 . S
C59 C61 1.479 . S
C59 H77 0.929 . S
C60 C57 1.424 . S
C60 C59 1.384 . S
C60 H78 0.928 . S
C61 C58 1.260 . S
C61 C59 1.479 . S
C62 C57 1.245 . S
C62 C58 1.477 . S
C62 H79 0.932 . S
C63 U46 2.882 . S
C63 C57 1.428 . S
C63 O66 1.301 . S
C63 O67 1.282 . S
O64 U46 2.441 . S
O64 C50 1.249 . S
O65 U46 2.420 . S
O65 C50 1.202 . S
O66 U46 2.455 . S
O66 C63 1.301 . S
O67 U46 2.449 . S
O67 C63 1.282 . S
H68 C41 0.931 . S
H69 C43 0.929 . S
H70 C44 0.930 . S
H71 C45 0.931 . S
H72 C52 0.932 . S
H73 C53 0.930 . S
H74 C54 0.929 . S
H75 C56 0.930 . S
H76 C58 0.932 . S
H77 C59 0.929 . S
H78 C60 0.928 . S
H79 C62 0.932 . S
C80 C81 1.264 . S
C80 C85 1.479 . S
C80 C90 1.465 . S
C81 C80 1.264 . S
C81 C83 1.339 . S
C81 H108 0.931 . S
C82 C83 1.395 . S
C82 C84 1.320 . S
C83 C81 1.339 . S
C83 C82 1.395 . S
C83 H109 0.929 . S
C84 C82 1.320 . S
C84 C85 1.405 . S
C84 H110 0.930 . S
C85 C80 1.479 . S
C85 C84 1.405 . S
C85 H111 0.931 . S
U86 O87 2.454 . S
U86 O88 2.458 . S
U86 C89 2.984 . S
U86 C90 2.847 . S
U86 C103 2.882 . S
U86 O104 2.441 . S
U86 O105 2.420 . S
U86 O106 2.455 . S
U86 O107 2.449 . S
O87 U86 2.454 . S
O87 C89 1.353 . S
O88 U86 2.458 . S
O88 C89 1.286 . S
C89 U86 2.984 . S
C89 O87 1.353 . S
C89 O88 1.286 . S
C89 C91 1.363 . S
C90 C80 1.465 . S
C90 U86 2.847 . S
C90 O104 1.249 . S
C90 O105 1.202 . S
C91 C89 1.363 . S
C91 C93 1.408 . S
C91 C96 1.342 . S
C92 C93 1.310 . S
C92 C95 1.461 . S
C92 H112 0.932 . S
C93 C91 1.408 . S
C93 C92 1.310 . S
C93 H113 0.930 . S
C94 C95 1.474 . S
C94 C96 1.285 . S
C94 H114 0.929 . S
C95 C92 1.461 . S
C95 C94 1.474 . S
C96 C91 1.342 . S
C96 C94 1.285 . S
C96 H115 0.930 . S
C97 C100 1.424 . S
C97 C102 1.245 . S
C97 C103 1.428 . S
C98 C101 1.260 . S
C98 C102 1.477 . S
C98 H116 0.932 . S
C99 C100 1.384 . S
C99 C101 1.479 . S
C99 H117 0.929 . S
C100 C97 1.424 . S
C100 C99 1.384 . S
C100 H118 0.928 . S
C101 C98 1.260 . S
C101 C99 1.479 . S
C102 C97 1.245 . S
C102 C98 1.477 . S
C102 H119 0.932 . S
C103 U86 2.882 . S
C103 C97 1.428 . S
C103 O106 1.301 . S
C103 O107 1.282 . S
O104 U86 2.441 . S
O104 C90 1.249 . S
O105 U86 2.420 . S
O105 C90 1.202 . S
O106 U86 2.455 . S
O106 C103 1.301 . S
O107 U86 2.449 . S
O107 C103 1.282 . S
H108 C81 0.931 . S
H109 C83 0.929 . S
H110 C84 0.930 . S
H111 C85 0.931 . S
H112 C92 0.932 . S
H113 C93 0.930 . S
H114 C94 0.929 . S
H115 C96 0.930 . S
H116 C98 0.932 . S
H117 C99 0.929 . S
H118 C100 0.928 . S
H119 C102 0.932 . S
C120 C121 1.264 . S
C120 C125 1.479 . S
C120 C130 1.465 . S
C121 C120 1.264 . S
C121 C123 1.339 . S
C121 H148 0.931 . S
C122 C123 1.394 . S
C122 C124 1.320 1_565 S
C123 C121 1.339 . S
C123 C122 1.394 . S
C123 H149 0.929 . S
C124 C122 1.320 1_545 S
C124 C125 1.405 1_545 S
C124 H150 0.930 . S
C125 C120 1.479 . S
C125 C124 1.405 1_565 S
C125 H151 0.931 . S
U126 O127 2.454 . S
U126 O128 2.458 . S
U126 C129 2.984 . S
U126 C130 2.847 . S
U126 C143 2.882 . S
U126 O144 2.441 . S
U126 O145 2.420 . S
U126 O146 2.455 . S
U126 O147 2.449 . S
O127 U126 2.454 . S
O127 C129 1.353 . S
O128 U126 2.458 . S
O128 C129 1.286 . S
C129 U126 2.984 . S
C129 O127 1.353 . S
C129 O128 1.286 . S
C129 C131 1.363 . S
C130 C120 1.465 . S
C130 U126 2.847 . S
C130 O144 1.249 . S
C130 O145 1.202 . S
C131 C129 1.363 . S
C131 C133 1.409 . S
C131 C136 1.342 1_565 S
C132 C133 1.307 1_545 S
C132 C135 1.461 . S
C132 H152 0.932 . S
C133 C131 1.409 . S
C133 C132 1.307 1_565 S
C133 H153 0.935 . S
C134 C135 1.474 . S
C134 C136 1.285 . S
C134 H154 0.929 . S
C135 C132 1.461 . S
C135 C134 1.474 . S
C136 C131 1.342 1_545 S
C136 C134 1.285 . S
C136 H155 0.930 . S
C137 C140 1.424 . S
C137 C142 1.245 . S
C137 C143 1.428 . S
C138 C141 1.258 1_565 S
C138 C142 1.477 . S
C138 H156 0.932 . S
C139 C140 1.384 . S
C139 C141 1.478 1_565 S
C139 H157 0.929 . S
C140 C137 1.424 . S
C140 C139 1.384 . S
C140 H158 0.928 . S
C141 C138 1.258 1_545 S
C141 C139 1.478 1_545 S
C142 C137 1.245 . S
C142 C138 1.477 . S
C142 H159 0.932 . S
C143 U126 2.882 . S
C143 C137 1.428 . S
C143 O146 1.301 . S
C143 O147 1.282 . S
O144 U126 2.441 . S
O144 C130 1.249 . S
O145 U126 2.420 . S
O145 C130 1.202 . S
O146 U126 2.455 . S
O146 C143 1.301 . S
O147 U126 2.449 . S
O147 C143 1.282 . S
H148 C121 0.931 . S
H149 C123 0.929 . S
H150 C124 0.930 . S
H151 C125 0.931 . S
H152 C132 0.932 . S
H153 C133 0.935 . S
H154 C134 0.929 . S
H155 C136 0.930 . S
H156 C138 0.932 . S
H157 C139 0.929 . S
H158 C140 0.928 . S
H159 C142 0.932 . S
C160 C161 1.264 . S
C160 C165 1.479 . S
C160 C170 1.465 . S
C161 C160 1.264 . S
C161 C163 1.339 . S
C161 H188 0.931 . S
C162 C163 1.395 . S
C162 C164 1.320 . S
C163 C161 1.339 . S
C163 C162 1.395 . S
C163 H189 0.929 . S
C164 C162 1.320 . S
C164 C165 1.405 . S
C164 H190 0.930 1_655 S
C165 C160 1.479 . S
C165 C164 1.405 . S
C165 H191 0.931 . S
U166 O167 2.454 . S
U166 O168 2.458 . S
U166 C169 2.984 . S
U166 C170 2.847 . S
U166 C183 2.882 . S
U166 O184 2.441 . S
U166 O185 2.420 . S
U166 O186 2.455 . S
U166 O187 2.449 . S
O167 U166 2.454 . S
O167 C169 1.353 . S
O168 U166 2.458 . S
O168 C169 1.286 . S
C169 U166 2.984 . S
C169 O167 1.353 . S
C169 O168 1.286 . S
C169 C171 1.363 . S
C170 C160 1.465 . S
C170 U166 2.847 . S
C170 O184 1.249 . S
C170 O185 1.202 . S
C171 C169 1.363 . S
C171 C173 1.408 . S
C171 C176 1.342 . S
C172 C173 1.310 . S
C172 C175 1.460 1_655 S
C172 H192 0.934 . S
C173 C171 1.408 . S
C173 C172 1.310 . S
C173 H193 0.930 . S
C174 C175 1.474 . S
C174 C176 1.283 1_455 S
C174 H194 0.933 . S
C175 C172 1.460 1_455 S
C175 C174 1.474 . S
C176 C171 1.342 . S
C176 C174 1.283 1_655 S
C176 H195 0.931 . S
C177 C180 1.424 . S
C177 C182 1.245 . S
C177 C183 1.428 . S
C178 C181 1.260 . S
C178 C182 1.477 . S
C178 H196 0.932 . S
C179 C180 1.384 . S
C179 C181 1.479 . S
C179 H197 0.929 . S
C180 C177 1.424 . S
C180 C179 1.384 . S
C180 H198 0.928 . S
C181 C178 1.260 . S
C181 C179 1.479 . S
C182 C177 1.245 . S
C182 C178 1.477 . S
C182 H199 0.932 . S
C183 U166 2.882 . S
C183 C177 1.428 . S
C183 O186 1.301 . S
C183 O187 1.282 . S
O184 U166 2.441 . S
O184 C170 1.249 . S
O185 U166 2.420 . S
O185 C170 1.202 . S
O186 U166 2.455 . S
O186 C183 1.301 . S
O187 U166 2.449 . S
O187 C183 1.282 . S
H188 C161 0.931 . S
H189 C163 0.929 . S
H190 C164 0.930 1_455 S
H191 C165 0.931 . S
H192 C172 0.934 . S
H193 C173 0.930 . S
H194 C174 0.933 . S
H195 C176 0.931 . S
H196 C178 0.932 . S
H197 C179 0.929 . S
H198 C180 0.928 . S
H199 C182 0.932 . S
C200 C201 1.264 . S
C200 C205 1.479 . S
C200 C210 1.465 . S
C201 C200 1.264 . S
C201 C203 1.339 . S
C201 H228 0.931 . S
C202 C203 1.395 . S
C202 C204 1.320 . S
C203 C201 1.339 . S
C203 C202 1.395 . S
C203 H229 0.929 . S
C204 C202 1.320 . S
C204 C205 1.405 . S
C204 H230 0.930 . S
C205 C200 1.479 . S
C205 C204 1.405 . S
C205 H231 0.931 . S
U206 O207 2.454 . S
U206 O208 2.458 . S
U206 C209 2.984 . S
U206 C210 2.847 . S
U206 C223 2.882 . S
U206 O224 2.441 . S
U206 O225 2.420 . S
U206 O226 2.455 . S
U206 O227 2.449 . S
O207 U206 2.454 . S
O207 C209 1.353 . S
O208 U206 2.458 . S
O208 C209 1.286 . S
C209 U206 2.984 . S
C209 O207 1.353 . S
C209 O208 1.286 . S
C209 C211 1.363 . S
C210 C200 1.465 . S
C210 U206 2.847 . S
C210 O224 1.249 . S
C210 O225 1.202 . S
C211 C209 1.363 . S
C211 C213 1.408 . S
C211 C216 1.342 . S
C212 C213 1.310 . S
C212 C215 1.461 . S
C212 H232 0.932 . S
C213 C211 1.408 . S
C213 C212 1.310 . S
C213 H233 0.930 . S
C214 C215 1.474 . S
C214 C216 1.285 . S
C214 H234 0.929 . S
C215 C212 1.461 . S
C215 C214 1.474 . S
C216 C211 1.342 . S
C216 C214 1.285 . S
C216 H235 0.930 . S
C217 C220 1.424 . S
C217 C222 1.245 . S
C217 C223 1.428 . S
C218 C221 1.260 . S
C218 C222 1.477 . S
C218 H236 0.932 . S
C219 C220 1.384 . S
C219 C221 1.479 . S
C219 H237 0.929 . S
C220 C217 1.424 . S
C220 C219 1.384 . S
C220 H238 0.928 . S
C221 C218 1.260 . S
C221 C219 1.479 . S
C222 C217 1.245 . S
C222 C218 1.477 . S
C222 H239 0.932 . S
C223 U206 2.882 . S
C223 C217 1.428 . S
C223 O226 1.301 . S
C223 O227 1.282 . S
O224 U206 2.441 . S
O224 C210 1.249 . S
O225 U206 2.420 . S
O225 C210 1.202 . S
O226 U206 2.455 . S
O226 C223 1.301 . S
O227 U206 2.449 . S
O227 C223 1.282 . S
H228 C201 0.931 . S
H229 C203 0.929 . S
H230 C204 0.930 . S
H231 C205 0.931 . S
H232 C212 0.932 . S
H233 C213 0.930 . S
H234 C214 0.929 . S
H235 C216 0.930 . S
H236 C218 0.932 . S
H237 C219 0.929 . S
H238 C220 0.928 . S
H239 C222 0.932 . S
C240 C241 1.264 . S
C240 C245 1.479 . S
C240 C250 1.465 . S
C241 C240 1.264 . S
C241 C243 1.339 . S
C241 H268 0.931 . S
C242 C243 1.395 . S
C242 C244 1.320 . S
C243 C241 1.339 . S
C243 C242 1.395 . S
C243 H269 0.929 . S
C244 C242 1.320 . S
C244 C245 1.405 . S
C244 H270 0.930 . S
C245 C240 1.479 . S
C245 C244 1.405 . S
C245 H271 0.931 . S
U246 O247 2.454 . S
U246 O248 2.458 . S
U246 C249 2.984 . S
U246 C250 2.847 . S
U246 C263 2.882 . S
U246 O264 2.441 . S
U246 O265 2.420 . S
U246 O266 2.455 . S
U246 O267 2.449 . S
O247 U246 2.454 . S
O247 C249 1.353 . S
O248 U246 2.458 . S
O248 C249 1.286 . S
C249 U246 2.984 . S
C249 O247 1.353 . S
C249 O248 1.286 . S
C249 C251 1.363 . S
C250 C240 1.465 . S
C250 U246 2.847 . S
C250 O264 1.249 . S
C250 O265 1.202 . S
C251 C249 1.363 . S
C251 C253 1.408 . S
C251 C256 1.342 . S
C252 C253 1.310 . S
C252 C255 1.461 . S
C252 H272 0.932 . S
C253 C251 1.408 . S
C253 C252 1.310 . S
C253 H273 0.930 . S
C254 C255 1.474 . S
C254 C256 1.285 . S
C254 H274 0.929 . S
C255 C252 1.461 . S
C255 C254 1.474 . S
C256 C251 1.342 . S
C256 C254 1.285 . S
C256 H275 0.930 . S
C257 C260 1.424 . S
C257 C262 1.245 . S
C257 C263 1.428 . S
C258 C261 1.260 . S
C258 C262 1.477 . S
C258 H276 0.932 . S
C259 C260 1.384 . S
C259 C261 1.479 . S
C259 H277 0.929 . S
C260 C257 1.424 . S
C260 C259 1.384 . S
C260 H278 0.928 . S
C261 C258 1.260 . S
C261 C259 1.479 . S
C262 C257 1.245 . S
C262 C258 1.477 . S
C262 H279 0.932 . S
C263 U246 2.882 . S
C263 C257 1.428 . S
C263 O266 1.301 . S
C263 O267 1.282 . S
O264 U246 2.441 . S
O264 C250 1.249 . S
O265 U246 2.420 . S
O265 C250 1.202 . S
O266 U246 2.455 . S
O266 C263 1.301 . S
O267 U246 2.449 . S
O267 C263 1.282 . S
H268 C241 0.931 . S
H269 C243 0.929 . S
H270 C244 0.930 . S
H271 C245 0.931 . S
H272 C252 0.932 . S
H273 C253 0.930 . S
H274 C254 0.929 . S
H275 C256 0.930 . S
H276 C258 0.932 . S
H277 C259 0.929 . S
H278 C260 0.928 . S
H279 C262 0.932 . S
C280 C281 1.264 . S
C280 C285 1.479 . S
C280 C290 1.465 . S
C281 C280 1.264 . S
C281 C283 1.339 . S
C281 H308 0.931 . S
C282 C283 1.395 . S
C282 C284 1.320 . S
C283 C281 1.339 . S
C283 C282 1.395 . S
C283 H309 0.929 . S
C284 C282 1.320 . S
C284 C285 1.405 . S
C284 H310 0.930 . S
C285 C280 1.479 . S
C285 C284 1.405 . S
C285 H311 0.931 . S
U286 O287 2.454 . S
U286 O288 2.458 . S
U286 C289 2.984 . S
U286 C290 2.847 . S
U286 C303 2.882 . S
U286 O304 2.441 . S
U286 O305 2.420 . S
U286 O306 2.455 . S
U286 O307 2.449 . S
O287 U286 2.454 . S
O287 C289 1.353 . S
O288 U286 2.458 . S
O288 C289 1.286 . S
C289 U286 2.984 . S
C289 O287 1.353 . S
C289 O288 1.286 . S
C289 C291 1.363 . S
C290 C280 1.465 . S
C290 U286 2.847 . S
C290 O304 1.249 . S
C290 O305 1.202 . S
C291 C289 1.363 . S
C291 C293 1.408 . S
C291 C296 1.342 . S
C292 C293 1.310 . S
C292 C295 1.461 . S
C292 H312 0.932 . S
C293 C291 1.408 . S
C293 C292 1.310 . S
C293 H313 0.930 . S
C294 C295 1.474 . S
C294 C296 1.285 . S
C294 H314 0.929 . S
C295 C292 1.461 . S
C295 C294 1.474 . S
C296 C291 1.342 . S
C296 C294 1.285 . S
C296 H315 0.930 . S
C297 C300 1.424 . S
C297 C302 1.245 . S
C297 C303 1.428 . S
C298 C301 1.260 . S
C298 C302 1.477 . S
C298 H316 0.932 . S
C299 C300 1.384 . S
C299 C301 1.479 . S
C299 H317 0.929 . S
C300 C297 1.424 . S
C300 C299 1.384 . S
C300 H318 0.928 . S
C301 C298 1.260 . S
C301 C299 1.479 . S
C302 C297 1.245 . S
C302 C298 1.477 . S
C302 H319 0.932 . S
C303 U286 2.882 . S
C303 C297 1.428 . S
C303 O306 1.301 . S
C303 O307 1.282 . S
O304 U286 2.441 . S
O304 C290 1.249 . S
O305 U286 2.420 . S
O305 C290 1.202 . S
O306 U286 2.455 . S
O306 C303 1.301 . S
O307 U286 2.449 . S
O307 C303 1.282 . S
H308 C281 0.931 . S
H309 C283 0.929 . S
H310 C284 0.930 . S
H311 C285 0.931 . S
H312 C292 0.932 . S
H313 C293 0.930 . S
H314 C294 0.929 . S
H315 C296 0.930 . S
H316 C298 0.932 . S
H317 C299 0.929 . S
H318 C300 0.928 . S
H319 C302 0.932 . S
C320 C321 1.264 . S
C320 C325 1.479 . S
C320 C330 1.465 . S
C321 C320 1.264 . S
C321 C323 1.339 . S
C321 H348 0.931 . S
C322 C323 1.395 . S
C322 C324 1.320 . S
C323 C321 1.339 . S
C323 C322 1.395 . S
C323 H349 0.929 . S
C324 C322 1.320 . S
C324 C325 1.405 . S
C324 H350 0.930 . S
C325 C320 1.479 . S
C325 C324 1.405 . S
C325 H351 0.931 . S
U326 O327 2.454 . S
U326 O328 2.458 . S
U326 C329 2.984 . S
U326 C330 2.847 . S
U326 C343 2.882 . S
U326 O344 2.441 . S
U326 O345 2.420 . S
U326 O346 2.455 . S
U326 O347 2.449 . S
O327 U326 2.454 . S
O327 C329 1.353 . S
O328 U326 2.458 . S
O328 C329 1.286 . S
C329 U326 2.984 . S
C329 O327 1.353 . S
C329 O328 1.286 . S
C329 C331 1.363 . S
C330 C320 1.465 . S
C330 U326 2.847 . S
C330 O344 1.249 . S
C330 O345 1.202 . S
C331 C329 1.363 . S
C331 C333 1.408 . S
C331 C336 1.342 . S
C332 C333 1.310 . S
C332 C335 1.461 . S
C332 H352 0.932 . S
C333 C331 1.408 . S
C333 C332 1.310 . S
C333 H353 0.930 . S
C334 C335 1.474 . S
C334 C336 1.285 . S
C334 H354 0.929 . S
C335 C332 1.461 . S
C335 C334 1.474 . S
C336 C331 1.342 . S
C336 C334 1.285 . S
C336 H355 0.930 . S
C337 C340 1.424 . S
C337 C342 1.245 . S
C337 C343 1.428 . S
C338 C341 1.260 . S
C338 C342 1.477 . S
C338 H356 0.932 . S
C339 C340 1.384 . S
C339 C341 1.479 . S
C339 H357 0.929 . S
C340 C337 1.424 . S
C340 C339 1.384 . S
C340 H358 0.928 . S
C341 C338 1.260 . S
C341 C339 1.479 . S
C342 C337 1.245 . S
C342 C338 1.477 . S
C342 H359 0.932 . S
C343 U326 2.882 . S
C343 C337 1.428 . S
C343 O346 1.301 . S
C343 O347 1.282 . S
O344 U326 2.441 . S
O344 C330 1.249 . S
O345 U326 2.420 . S
O345 C330 1.202 . S
O346 U326 2.455 . S
O346 C343 1.301 . S
O347 U326 2.449 . S
O347 C343 1.282 . S
H348 C321 0.931 . S
H349 C323 0.929 . S
H350 C324 0.930 . S
H351 C325 0.931 . S
H352 C332 0.932 . S
H353 C333 0.930 . S
H354 C334 0.929 . S
H355 C336 0.930 . S
H356 C338 0.932 . S
H357 C339 0.929 . S
H358 C340 0.928 . S
H359 C342 0.932 . S
C360 C361 1.264 . S
C360 C365 1.479 . S
C360 C370 1.465 . S
C361 C360 1.264 . S
C361 C363 1.339 . S
C361 H388 0.931 . S
C362 C363 1.395 . S
C362 C364 1.320 . S
C363 C361 1.339 . S
C363 C362 1.395 . S
C363 H389 0.929 . S
C364 C362 1.320 . S
C364 C365 1.405 . S
C364 H390 0.930 . S
C365 C360 1.479 . S
C365 C364 1.405 . S
C365 H391 0.931 . S
U366 O367 2.454 . S
U366 O368 2.458 . S
U366 C369 2.984 . S
U366 C370 2.847 . S
U366 C383 2.882 . S
U366 O384 2.441 . S
U366 O385 2.420 . S
U366 O386 2.455 . S
U366 O387 2.449 . S
O367 U366 2.454 . S
O367 C369 1.353 . S
O368 U366 2.458 . S
O368 C369 1.286 . S
C369 U366 2.984 . S
C369 O367 1.353 . S
C369 O368 1.286 . S
C369 C371 1.363 . S
C370 C360 1.465 . S
C370 U366 2.847 . S
C370 O384 1.249 . S
C370 O385 1.202 . S
C371 C369 1.363 . S
C371 C373 1.408 . S
C371 C376 1.342 . S
C372 C373 1.310 . S
C372 C375 1.461 . S
C372 H392 0.932 . S
C373 C371 1.408 . S
C373 C372 1.310 . S
C373 H393 0.930 . S
C374 C375 1.474 . S
C374 C376 1.285 . S
C374 H394 0.929 . S
C375 C372 1.461 . S
C375 C374 1.474 . S
C376 C371 1.342 . S
C376 C374 1.285 . S
C376 H395 0.930 . S
C377 C380 1.424 . S
C377 C382 1.245 . S
C377 C383 1.428 . S
C378 C381 1.260 . S
C378 C382 1.477 . S
C378 H396 0.932 . S
C379 C380 1.384 . S
C379 C381 1.479 . S
C379 H397 0.929 . S
C380 C377 1.424 . S
C380 C379 1.384 . S
C380 H398 0.928 . S
C381 C378 1.260 . S
C381 C379 1.479 . S
C382 C377 1.245 . S
C382 C378 1.477 . S
C382 H399 0.932 . S
C383 U366 2.882 . S
C383 C377 1.428 . S
C383 O386 1.301 . S
C383 O387 1.282 . S
O384 U366 2.441 . S
O384 C370 1.249 . S
O385 U366 2.420 . S
O385 C370 1.202 . S
O386 U366 2.455 . S
O386 C383 1.301 . S
O387 U366 2.449 . S
O387 C383 1.282 . S
H388 C361 0.931 . S
H389 C363 0.929 . S
H390 C364 0.930 . S
H391 C365 0.931 . S
H392 C372 0.932 . S
H393 C373 0.930 . S
H394 C374 0.929 . S
H395 C376 0.930 . S
H396 C378 0.932 . S
H397 C379 0.929 . S
H398 C380 0.928 . S
H399 C382 0.932 . S
C400 C401 1.264 . S
C400 C405 1.479 . S
C400 C410 1.465 . S
C401 C400 1.264 . S
C401 C403 1.339 . S
C401 H428 0.931 . S
C402 C403 1.395 . S
C402 C404 1.320 . S
C403 C401 1.339 . S
C403 C402 1.395 . S
C403 H429 0.929 . S
C404 C402 1.320 . S
C404 C405 1.405 . S
C404 H430 0.940 . S
C405 C400 1.479 . S
C405 C404 1.405 . S
C405 H431 0.931 . S
U406 O407 2.454 . S
U406 O408 2.458 . S
U406 C409 2.984 . S
U406 C410 2.847 . S
U406 C423 2.882 . S
U406 O424 2.441 . S
U406 O425 2.420 . S
U406 O426 2.455 . S
U406 O427 2.449 . S
O407 U406 2.454 . S
O407 C409 1.353 . S
O408 U406 2.458 . S
O408 C409 1.286 . S
C409 U406 2.984 . S
C409 O407 1.353 . S
C409 O408 1.286 . S
C409 C411 1.363 . S
C410 C400 1.465 . S
C410 U406 2.847 . S
C410 O424 1.249 . S
C410 O425 1.202 . S
C411 C409 1.363 . S
C411 C413 1.408 . S
C411 C416 1.342 . S
C412 C413 1.310 . S
C412 C415 1.461 . S
C412 H432 0.932 . S
C413 C411 1.408 . S
C413 C412 1.310 . S
C413 H433 0.930 . S
C414 C415 1.474 . S
C414 C416 1.285 . S
C414 H434 0.932 . S
C415 C412 1.461 . S
C415 C414 1.474 . S
C416 C411 1.342 . S
C416 C414 1.285 . S
C416 H435 0.930 . S
C417 C420 1.424 . S
C417 C422 1.245 . S
C417 C423 1.428 . S
C418 C421 1.260 . S
C418 C422 1.477 . S
C418 H436 0.932 . S
C419 C420 1.384 . S
C419 C421 1.479 . S
C419 H437 0.929 . S
C420 C417 1.424 . S
C420 C419 1.384 . S
C420 H438 0.928 . S
C421 C418 1.260 . S
C421 C419 1.479 . S
C422 C417 1.245 . S
C422 C418 1.477 . S
C422 H439 0.932 . S
C423 U406 2.882 . S
C423 C417 1.428 . S
C423 O426 1.301 . S
C423 O427 1.282 . S
O424 U406 2.441 . S
O424 C410 1.249 . S
O425 U406 2.420 . S
O425 C410 1.202 . S
O426 U406 2.455 . S
O426 C423 1.301 . S
O427 U406 2.449 . S
O427 C423 1.282 . S
H428 C401 0.931 . S
H429 C403 0.929 . S
H430 C404 0.940 . S
H431 C405 0.931 . S
H432 C412 0.932 . S
H433 C413 0.930 . S
H434 C414 0.932 . S
H435 C416 0.930 . S
H436 C418 0.932 . S
H437 C419 0.929 . S
H438 C420 0.928 . S
H439 C422 0.932 . S
C440 C441 1.264 . S
C440 C445 1.479 . S
C440 C450 1.465 . S
C441 C440 1.264 . S
C441 C443 1.339 . S
C441 H468 0.931 . S
C442 C443 1.395 . S
C442 C444 1.320 . S
C443 C441 1.339 . S
C443 C442 1.395 . S
C443 H469 0.929 . S
C444 C442 1.320 . S
C444 C445 1.405 . S
C444 H470 0.930 . S
C445 C440 1.479 . S
C445 C444 1.405 . S
C445 H471 0.931 . S
U446 O447 2.454 . S
U446 O448 2.458 . S
U446 C449 2.984 . S
U446 C450 2.847 . S
U446 C463 2.882 . S
U446 O464 2.441 . S
U446 O465 2.420 . S
U446 O466 2.455 . S
U446 O467 2.449 . S
O447 U446 2.454 . S
O447 C449 1.353 . S
O448 U446 2.458 . S
O448 C449 1.286 . S
C449 U446 2.984 . S
C449 O447 1.353 . S
C449 O448 1.286 . S
C449 C451 1.363 . S
C450 C440 1.465 . S
C450 U446 2.847 . S
C450 O464 1.249 . S
C450 O465 1.202 . S
C451 C449 1.363 . S
C451 C453 1.408 . S
C451 C456 1.342 . S
C452 C453 1.310 . S
C452 C455 1.461 . S
C452 H472 0.932 . S
C453 C451 1.408 . S
C453 C452 1.310 . S
C453 H473 0.930 . S
C454 C455 1.474 . S
C454 C456 1.285 . S
C454 H474 0.929 . S
C455 C452 1.461 . S
C455 C454 1.474 . S
C456 C451 1.342 . S
C456 C454 1.285 . S
C456 H475 0.930 . S
C457 C460 1.424 . S
C457 C462 1.245 . S
C457 C463 1.428 . S
C458 C461 1.260 . S
C458 C462 1.477 . S
C458 H476 0.932 . S
C459 C460 1.384 . S
C459 C461 1.479 . S
C459 H477 0.929 . S
C460 C457 1.424 . S
C460 C459 1.384 . S
C460 H478 0.928 . S
C461 C458 1.260 . S
C461 C459 1.479 . S
C462 C457 1.245 . S
C462 C458 1.477 . S
C462 H479 0.932 . S
C463 U446 2.882 . S
C463 C457 1.428 . S
C463 O466 1.301 . S
C463 O467 1.282 . S
O464 U446 2.441 . S
O464 C450 1.249 . S
O465 U446 2.420 . S
O465 C450 1.202 . S
O466 U446 2.455 . S
O466 C463 1.301 . S
O467 U446 2.449 . S
O467 C463 1.282 . S
H468 C441 0.931 . S
H469 C443 0.929 . S
H470 C444 0.930 . S
H471 C445 0.931 . S
H472 C452 0.932 . S
H473 C453 0.930 . S
H474 C454 0.929 . S
H475 C456 0.930 . S
H476 C458 0.932 . S
H477 C459 0.929 . S
H478 C460 0.928 . S
H479 C462 0.932 . S
C480 C481 1.264 . S
C480 C485 1.479 . S
C480 C490 1.465 . S
C481 C480 1.264 . S
C481 C483 1.339 . S
C481 H508 0.931 . S
C482 C483 1.395 . S
C482 C484 1.320 . S
C483 C481 1.339 . S
C483 C482 1.395 . S
C483 H509 0.929 . S
C484 C482 1.320 . S
C484 C485 1.405 . S
C484 H510 0.930 . S
C485 C480 1.479 . S
C485 C484 1.405 . S
C485 H511 0.931 . S
U486 O487 2.454 . S
U486 O488 2.458 . S
U486 C489 2.984 . S
U486 C490 2.847 . S
U486 C503 2.882 . S
U486 O504 2.441 . S
U486 O505 2.420 . S
U486 O506 2.455 . S
U486 O507 2.449 . S
O487 U486 2.454 . S
O487 C489 1.353 . S
O488 U486 2.458 . S
O488 C489 1.286 . S
C489 U486 2.984 . S
C489 O487 1.353 . S
C489 O488 1.286 . S
C489 C491 1.363 . S
C490 C480 1.465 . S
C490 U486 2.847 . S
C490 O504 1.249 . S
C490 O505 1.202 . S
C491 C489 1.363 . S
C491 C493 1.408 . S
C491 C496 1.342 . S
C492 C493 1.310 . S
C492 C495 1.461 . S
C492 H512 0.932 . S
C493 C491 1.408 . S
C493 C492 1.310 . S
C493 H513 0.930 . S
C494 C495 1.474 . S
C494 C496 1.285 . S
C494 H514 0.929 . S
C495 C492 1.461 . S
C495 C494 1.474 . S
C496 C491 1.342 . S
C496 C494 1.285 . S
C496 H515 0.930 . S
C497 C500 1.424 . S
C497 C502 1.245 . S
C497 C503 1.428 . S
C498 C501 1.260 . S
C498 C502 1.477 . S
C498 H516 0.932 . S
C499 C500 1.384 . S
C499 C501 1.479 . S
C499 H517 0.929 . S
C500 C497 1.424 . S
C500 C499 1.384 . S
C500 H518 0.928 . S
C501 C498 1.260 . S
C501 C499 1.479 . S
C502 C497 1.245 . S
C502 C498 1.477 . S
C502 H519 0.932 . S
C503 U486 2.882 . S
C503 C497 1.428 . S
C503 O506 1.301 . S
C503 O507 1.282 . S
O504 U486 2.441 . S
O504 C490 1.249 . S
O505 U486 2.420 . S
O505 C490 1.202 . S
O506 U486 2.455 . S
O506 C503 1.301 . S
O507 U486 2.449 . S
O507 C503 1.282 . S
H508 C481 0.931 . S
H509 C483 0.929 . S
H510 C484 0.930 . S
H511 C485 0.931 . S
H512 C492 0.932 . S
H513 C493 0.930 . S
H514 C494 0.929 . S
H515 C496 0.930 . S
H516 C498 0.932 . S
H517 C499 0.929 . S
H518 C500 0.928 . S
H519 C502 0.932 . S
C520 C521 1.264 . S
C520 C525 1.479 . S
C520 C530 1.465 . S
C521 C520 1.264 . S
C521 C523 1.339 . S
C521 H548 0.931 . S
C522 C523 1.395 . S
C522 C524 1.320 . S
C523 C521 1.339 . S
C523 C522 1.395 . S
C523 H549 0.929 . S
C524 C522 1.320 . S
C524 C525 1.405 . S
C524 H550 0.930 . S
C525 C520 1.479 . S
C525 C524 1.405 . S
C525 H551 0.931 . S
U526 O527 2.454 . S
U526 O528 2.458 . S
U526 C529 2.984 . S
U526 C530 2.847 . S
U526 C543 2.882 . S
U526 O544 2.441 . S
U526 O545 2.420 . S
U526 O546 2.455 . S
U526 O547 2.449 . S
O527 U526 2.454 . S
O527 C529 1.353 . S
O528 U526 2.458 . S
O528 C529 1.286 . S
C529 U526 2.984 . S
C529 O527 1.353 . S
C529 O528 1.286 . S
C529 C531 1.363 . S
C530 C520 1.465 . S
C530 U526 2.847 . S
C530 O544 1.249 . S
C530 O545 1.202 . S
C531 C529 1.363 . S
C531 C533 1.408 . S
C531 C536 1.342 . S
C532 C533 1.310 . S
C532 C535 1.461 . S
C532 H552 0.932 . S
C533 C531 1.408 . S
C533 C532 1.310 . S
C533 H553 0.930 . S
C534 C535 1.474 . S
C534 C536 1.285 . S
C534 H554 0.929 . S
C535 C532 1.461 . S
C535 C534 1.474 . S
C536 C531 1.342 . S
C536 C534 1.285 . S
C536 H555 0.930 . S
C537 C540 1.424 . S
C537 C542 1.245 . S
C537 C543 1.428 . S
C538 C541 1.260 . S
C538 C542 1.477 . S
C538 H556 0.932 . S
C539 C540 1.384 . S
C539 C541 1.479 . S
C539 H557 0.929 . S
C540 C537 1.424 . S
C540 C539 1.384 . S
C540 H558 0.928 . S
C541 C538 1.260 . S
C541 C539 1.479 . S
C542 C537 1.245 . S
C542 C538 1.477 . S
C542 H559 0.932 . S
C543 U526 2.882 . S
C543 C537 1.428 . S
C543 O546 1.301 . S
C543 O547 1.282 . S
O544 U526 2.441 . S
O544 C530 1.249 . S
O545 U526 2.420 . S
O545 C530 1.202 . S
O546 U526 2.455 . S
O546 C543 1.301 . S
O547 U526 2.449 . S
O547 C543 1.282 . S
H548 C521 0.931 . S
H549 C523 0.929 . S
H550 C524 0.930 . S
H551 C525 0.931 . S
H552 C532 0.932 . S
H553 C533 0.930 . S
H554 C534 0.929 . S
H555 C536 0.930 . S
H556 C538 0.932 . S
H557 C539 0.929 . S
H558 C540 0.928 . S
H559 C542 0.932 . S
C560 C561 1.264 . S
C560 C565 1.479 . S
C560 C570 1.465 . S
C561 C560 1.264 . S
C561 C563 1.339 . S
C561 H588 0.931 . S
C562 C563 1.395 . S
C562 C564 1.320 . S
C563 C561 1.339 . S
C563 C562 1.395 . S
C563 H589 0.929 . S
C564 C562 1.320 . S
C564 C565 1.405 . S
C564 H590 0.930 . S
C565 C560 1.479 . S
C565 C564 1.405 . S
C565 H591 0.931 . S
U566 O567 2.454 . S
U566 O568 2.458 . S
U566 C569 2.984 . S
U566 C570 2.847 . S
U566 C583 2.882 . S
U566 O584 2.441 . S
U566 O585 2.420 . S
U566 O586 2.455 . S
U566 O587 2.449 . S
O567 U566 2.454 . S
O567 C569 1.353 . S
O568 U566 2.458 . S
O568 C569 1.286 . S
C569 U566 2.984 . S
C569 O567 1.353 . S
C569 O568 1.286 . S
C569 C571 1.363 . S
C570 C560 1.465 . S
C570 U566 2.847 . S
C570 O584 1.249 . S
C570 O585 1.202 . S
C571 C569 1.363 . S
C571 C573 1.408 . S
C571 C576 1.342 . S
C572 C573 1.310 . S
C572 C575 1.461 . S
C572 H592 0.932 . S
C573 C571 1.408 . S
C573 C572 1.310 . S
C573 H593 0.930 . S
C574 C575 1.474 . S
C574 C576 1.285 . S
C574 H594 0.929 . S
C575 C572 1.461 . S
C575 C574 1.474 . S
C576 C571 1.342 . S
C576 C574 1.285 . S
C576 H595 0.930 . S
C577 C580 1.424 . S
C577 C582 1.245 . S
C577 C583 1.428 . S
C578 C581 1.260 . S
C578 C582 1.477 . S
C578 H596 0.932 . S
C579 C580 1.384 . S
C579 C581 1.479 . S
C579 H597 0.929 . S
C580 C577 1.424 . S
C580 C579 1.384 . S
C580 H598 0.928 . S
C581 C578 1.260 . S
C581 C579 1.479 . S
C582 C577 1.245 . S
C582 C578 1.477 . S
C582 H599 0.932 . S
C583 U566 2.882 . S
C583 C577 1.428 . S
C583 O586 1.301 . S
C583 O587 1.282 . S
O584 U566 2.441 . S
O584 C570 1.249 . S
O585 U566 2.420 . S
O585 C570 1.202 . S
O586 U566 2.455 . S
O586 C583 1.301 . S
O587 U566 2.449 . S
O587 C583 1.282 . S
H588 C561 0.931 . S
H589 C563 0.929 . S
H590 C564 0.930 . S
H591 C565 0.931 . S
H592 C572 0.932 . S
H593 C573 0.930 . S
H594 C574 0.929 . S
H595 C576 0.930 . S
H596 C578 0.932 . S
H597 C579 0.929 . S
H598 C580 0.928 . S
H599 C582 0.932 . S
C600 C601 1.264 . S
C600 C605 1.479 . S
C600 C610 1.465 . S
C601 C600 1.264 . S
C601 C603 1.339 . S
C601 H628 0.931 . S
C602 C603 1.395 . S
C602 C604 1.320 . S
C603 C601 1.339 . S
C603 C602 1.395 . S
C603 H629 0.929 . S
C604 C602 1.320 . S
C604 C605 1.405 . S
C604 H630 0.930 . S
C605 C600 1.479 . S
C605 C604 1.405 . S
C605 H631 0.931 . S
U606 O607 2.454 . S
U606 O608 2.458 . S
U606 C609 2.984 . S
U606 C610 2.847 . S
U606 C623 2.882 . S
U606 O624 2.441 . S
U606 O625 2.420 . S
U606 O626 2.455 . S
U606 O627 2.449 . S
O607 U606 2.454 . S
O607 C609 1.353 . S
O608 U606 2.458 . S
O608 C609 1.286 . S
C609 U606 2.984 . S
C609 O607 1.353 . S
C609 O608 1.286 . S
C609 C611 1.363 . S
C610 C600 1.465 . S
C610 U606 2.847 . S
C610 O624 1.249 . S
C610 O625 1.202 . S
C611 C609 1.363 . S
C611 C613 1.408 . S
C611 C616 1.342 . S
C612 C613 1.310 . S
C612 C615 1.461 . S
C612 H632 0.932 . S
C613 C611 1.408 . S
C613 C612 1.310 . S
C613 H633 0.930 . S
C614 C615 1.474 . S
C614 C616 1.285 . S
C614 H634 0.929 . S
C615 C612 1.461 . S
C615 C614 1.474 . S
C616 C611 1.342 . S
C616 C614 1.285 . S
C616 H635 0.930 . S
C617 C620 1.424 . S
C617 C622 1.245 . S
C617 C623 1.428 . S
C618 C621 1.260 . S
C618 C622 1.477 . S
C618 H636 0.932 . S
C619 C620 1.384 . S
C619 C621 1.479 . S
C619 H637 0.929 . S
C620 C617 1.424 . S
C620 C619 1.384 . S
C620 H638 0.928 . S
C621 C618 1.260 . S
C621 C619 1.479 . S
C622 C617 1.245 . S
C622 C618 1.477 . S
C622 H639 0.932 . S
C623 U606 2.882 . S
C623 C617 1.428 . S
C623 O626 1.301 . S
C623 O627 1.282 . S
O624 U606 2.441 . S
O624 C610 1.249 . S
O625 U606 2.420 . S
O625 C610 1.202 . S
O626 U606 2.455 . S
O626 C623 1.301 . S
O627 U606 2.449 . S
O627 C623 1.282 . S
H628 C601 0.931 . S
H629 C603 0.929 . S
H630 C604 0.930 . S
H631 C605 0.931 . S
H632 C612 0.932 . S
H633 C613 0.930 . S
H634 C614 0.929 . S
H635 C616 0.930 . S
H636 C618 0.932 . S
H637 C619 0.929 . S
H638 C620 0.928 . S
H639 C622 0.932 . S
C640 C641 1.264 . S
C640 C645 1.479 . S
C640 C650 1.465 . S
C641 C640 1.264 . S
C641 C643 1.339 . S
C641 H668 0.931 . S
C642 C643 1.395 . S
C642 C644 1.320 . S
C643 C641 1.339 . S
C643 C642 1.395 . S
C643 H669 0.929 . S
C644 C642 1.320 . S
C644 C645 1.405 . S
C644 H670 0.930 . S
C645 C640 1.479 . S
C645 C644 1.405 . S
C645 H671 0.931 . S
U646 O647 2.454 . S
U646 O648 2.458 . S
U646 C649 2.984 . S
U646 C650 2.847 . S
U646 C663 2.882 . S
U646 O664 2.441 . S
U646 O665 2.420 . S
U646 O666 2.455 . S
U646 O667 2.449 . S
O647 U646 2.454 . S
O647 C649 1.353 . S
O648 U646 2.458 . S
O648 C649 1.286 . S
C649 U646 2.984 . S
C649 O647 1.353 . S
C649 O648 1.286 . S
C649 C651 1.363 . S
C650 C640 1.465 . S
C650 U646 2.847 . S
C650 O664 1.249 . S
C650 O665 1.202 . S
C651 C649 1.363 . S
C651 C653 1.408 . S
C651 C656 1.342 . S
C652 C653 1.310 . S
C652 C655 1.461 . S
C652 H672 0.932 . S
C653 C651 1.408 . S
C653 C652 1.310 . S
C653 H673 0.930 . S
C654 C655 1.474 . S
C654 C656 1.285 . S
C654 H674 0.929 . S
C655 C652 1.461 . S
C655 C654 1.474 . S
C656 C651 1.342 . S
C656 C654 1.285 . S
C656 H675 0.930 . S
C657 C660 1.424 . S
C657 C662 1.245 . S
C657 C663 1.428 . S
C658 C661 1.260 . S
C658 C662 1.477 . S
C658 H676 0.932 . S
C659 C660 1.384 . S
C659 C661 1.479 . S
C659 H677 0.929 . S
C660 C657 1.424 . S
C660 C659 1.384 . S
C660 H678 0.928 . S
C661 C658 1.260 . S
C661 C659 1.479 . S
C662 C657 1.245 . S
C662 C658 1.477 . S
C662 H679 0.932 . S
C663 U646 2.882 . S
C663 C657 1.428 . S
C663 O666 1.301 . S
C663 O667 1.282 . S
O664 U646 2.441 . S
O664 C650 1.249 . S
O665 U646 2.420 . S
O665 C650 1.202 . S
O666 U646 2.455 . S
O666 C663 1.301 . S
O667 U646 2.449 . S
O667 C663 1.282 . S
H668 C641 0.931 . S
H669 C643 0.929 . S
H670 C644 0.930 . S
H671 C645 0.931 . S
H672 C652 0.932 . S
H673 C653 0.930 . S
H674 C654 0.929 . S
H675 C656 0.930 . S
H676 C658 0.932 . S
H677 C659 0.929 . S
H678 C660 0.928 . S
H679 C662 0.932 . S
C680 C681 1.264 . S
C680 C685 1.479 . S
C680 C690 1.465 . S
C681 C680 1.264 . S
C681 C683 1.339 . S
C681 H708 0.931 . S
C682 C683 1.395 . S
C682 C684 1.320 . S
C683 C681 1.339 . S
C683 C682 1.395 . S
C683 H709 0.929 . S
C684 C682 1.320 . S
C684 C685 1.405 . S
C684 H710 0.930 . S
C685 C680 1.479 . S
C685 C684 1.405 . S
C685 H711 0.931 . S
U686 O687 2.454 . S
U686 O688 2.458 . S
U686 C689 2.984 . S
U686 C690 2.847 . S
U686 C703 2.882 . S
U686 O704 2.441 . S
U686 O705 2.420 . S
U686 O706 2.455 . S
U686 O707 2.449 . S
O687 U686 2.454 . S
O687 C689 1.353 . S
O688 U686 2.458 . S
O688 C689 1.286 . S
C689 U686 2.984 . S
C689 O687 1.353 . S
C689 O688 1.286 . S
C689 C691 1.363 . S
C690 C680 1.465 . S
C690 U686 2.847 . S
C690 O704 1.249 . S
C690 O705 1.202 . S
C691 C689 1.363 . S
C691 C693 1.408 . S
C691 C696 1.342 . S
C692 C693 1.310 . S
C692 C695 1.461 . S
C692 H712 0.932 . S
C693 C691 1.408 . S
C693 C692 1.310 . S
C693 H713 0.930 . S
C694 C695 1.474 . S
C694 C696 1.285 . S
C694 H714 0.929 . S
C695 C692 1.461 . S
C695 C694 1.474 . S
C696 C691 1.342 . S
C696 C694 1.285 . S
C696 H715 0.930 . S
C697 C700 1.424 . S
C697 C702 1.245 . S
C697 C703 1.428 . S
C698 C701 1.260 . S
C698 C702 1.477 . S
C698 H716 0.932 . S
C699 C700 1.384 . S
C699 C701 1.479 . S
C699 H717 0.929 . S
C700 C697 1.424 . S
C700 C699 1.384 . S
C700 H718 0.928 . S
C701 C698 1.260 . S
C701 C699 1.479 . S
C702 C697 1.245 . S
C702 C698 1.477 . S
C702 H719 0.932 . S
C703 U686 2.882 . S
C703 C697 1.428 . S
C703 O706 1.301 . S
C703 O707 1.282 . S
O704 U686 2.441 . S
O704 C690 1.249 . S
O705 U686 2.420 . S
O705 C690 1.202 . S
O706 U686 2.455 . S
O706 C703 1.301 . S
O707 U686 2.449 . S
O707 C703 1.282 . S
H708 C681 0.931 . S
H709 C683 0.929 . S
H710 C684 0.930 . S
H711 C685 0.931 . S
H712 C692 0.932 . S
H713 C693 0.930 . S
H714 C694 0.929 . S
H715 C696 0.930 . S
H716 C698 0.932 . S
H717 C699 0.929 . S
H718 C700 0.928 . S
H719 C702 0.932 . S
C720 C721 1.264 . S
C720 C725 1.479 . S
C720 C730 1.465 . S
C721 C720 1.264 . S
C721 C723 1.339 . S
C721 H748 0.931 . S
C722 C723 1.395 . S
C722 C724 1.320 . S
C723 C721 1.339 . S
C723 C722 1.395 . S
C723 H749 0.929 . S
C724 C722 1.320 . S
C724 C725 1.405 . S
C724 H750 0.930 . S
C725 C720 1.479 . S
C725 C724 1.405 . S
C725 H751 0.931 . S
U726 O727 2.454 . S
U726 O728 2.458 . S
U726 C729 2.984 . S
U726 C730 2.847 . S
U726 C743 2.882 . S
U726 O744 2.441 . S
U726 O745 2.420 . S
U726 O746 2.455 . S
U726 O747 2.449 . S
O727 U726 2.454 . S
O727 C729 1.353 . S
O728 U726 2.458 . S
O728 C729 1.286 . S
C729 U726 2.984 . S
C729 O727 1.353 . S
C729 O728 1.286 . S
C729 C731 1.363 . S
C730 C720 1.465 . S
C730 U726 2.847 . S
C730 O744 1.249 . S
C730 O745 1.202 . S
C731 C729 1.363 . S
C731 C733 1.408 . S
C731 C736 1.342 . S
C732 C733 1.310 . S
C732 C735 1.461 . S
C732 H752 0.932 . S
C733 C731 1.408 . S
C733 C732 1.310 . S
C733 H753 0.930 . S
C734 C735 1.474 . S
C734 C736 1.285 . S
C734 H754 0.929 . S
C735 C732 1.461 . S
C735 C734 1.474 . S
C736 C731 1.342 . S
C736 C734 1.285 . S
C736 H755 0.930 . S
C737 C740 1.424 . S
C737 C742 1.245 . S
C737 C743 1.428 . S
C738 C741 1.260 . S
C738 C742 1.477 . S
C738 H756 0.932 . S
C739 C740 1.384 . S
C739 C741 1.479 . S
C739 H757 0.929 . S
C740 C737 1.424 . S
C740 C739 1.384 . S
C740 H758 0.928 . S
C741 C738 1.260 . S
C741 C739 1.479 . S
C742 C737 1.245 . S
C742 C738 1.477 . S
C742 H759 0.932 . S
C743 U726 2.882 . S
C743 C737 1.428 . S
C743 O746 1.301 . S
C743 O747 1.282 . S
O744 U726 2.441 . S
O744 C730 1.249 . S
O745 U726 2.420 . S
O745 C730 1.202 . S
O746 U726 2.455 . S
O746 C743 1.301 . S
O747 U726 2.449 . S
O747 C743 1.282 . S
H748 C721 0.931 . S
H749 C723 0.929 . S
H750 C724 0.930 . S
H751 C725 0.931 . S
H752 C732 0.932 . S
H753 C733 0.930 . S
H754 C734 0.929 . S
H755 C736 0.930 . S
H756 C738 0.932 . S
H757 C739 0.929 . S
H758 C740 0.928 . S
H759 C742 0.932 . S
C760 C761 1.264 . S
C760 C765 1.479 . S
C760 C770 1.465 . S
C761 C760 1.264 . S
C761 C763 1.339 . S
C761 H788 0.931 . S
C762 C763 1.395 . S
C762 C764 1.320 . S
C763 C761 1.339 . S
C763 C762 1.395 . S
C763 H789 0.929 . S
C764 C762 1.320 . S
C764 C765 1.405 . S
C764 H790 0.930 . S
C765 C760 1.479 . S
C765 C764 1.405 . S
C765 H791 0.931 . S
U766 O767 2.454 . S
U766 O768 2.458 . S
U766 C769 2.984 . S
U766 C770 2.847 . S
U766 C783 2.882 . S
U766 O784 2.441 . S
U766 O785 2.420 . S
U766 O786 2.455 . S
U766 O787 2.449 . S
O767 U766 2.454 . S
O767 C769 1.353 . S
O768 U766 2.458 . S
O768 C769 1.286 . S
C769 U766 2.984 . S
C769 O767 1.353 . S
C769 O768 1.286 . S
C769 C771 1.363 . S
C770 C760 1.465 . S
C770 U766 2.847 . S
C770 O784 1.249 . S
C770 O785 1.202 . S
C771 C769 1.363 . S
C771 C773 1.408 . S
C771 C776 1.342 . S
C772 C773 1.310 . S
C772 C775 1.461 . S
C772 H792 0.932 . S
C773 C771 1.408 . S
C773 C772 1.310 . S
C773 H793 0.930 . S
C774 C775 1.474 . S
C774 C776 1.285 . S
C774 H794 0.929 . S
C775 C772 1.461 . S
C775 C774 1.474 . S
C776 C771 1.342 . S
C776 C774 1.285 . S
C776 H795 0.930 . S
C777 C780 1.424 . S
C777 C782 1.245 . S
C777 C783 1.428 . S
C778 C781 1.260 . S
C778 C782 1.477 . S
C778 H796 0.932 . S
C779 C780 1.384 . S
C779 C781 1.479 . S
C779 H797 0.929 . S
C780 C777 1.424 . S
C780 C779 1.384 . S
C780 H798 0.928 . S
C781 C778 1.260 . S
C781 C779 1.479 . S
C782 C777 1.245 . S
C782 C778 1.477 . S
C782 H799 0.932 . S
C783 U766 2.882 . S
C783 C777 1.428 . S
C783 O786 1.301 . S
C783 O787 1.282 . S
O784 U766 2.441 . S
O784 C770 1.249 . S
O785 U766 2.420 . S
O785 C770 1.202 . S
O786 U766 2.455 . S
O786 C783 1.301 . S
O787 U766 2.449 . S
O787 C783 1.282 . S
H788 C761 0.931 . S
H789 C763 0.929 . S
H790 C764 0.930 . S
H791 C765 0.931 . S
H792 C772 0.932 . S
H793 C773 0.930 . S
H794 C774 0.929 . S
H795 C776 0.930 . S
H796 C778 0.932 . S
H797 C779 0.929 . S
H798 C780 0.928 . S
H799 C782 0.932 . S
C800 C801 1.264 . S
C800 C805 1.479 . S
C800 C810 1.465 . S
C801 C800 1.264 . S
C801 C803 1.339 . S
C801 H828 0.931 . S
C802 C803 1.395 . S
C802 C804 1.320 . S
C803 C801 1.339 . S
C803 C802 1.395 . S
C803 H829 0.929 . S
C804 C802 1.320 . S
C804 C805 1.405 . S
C804 H830 0.930 . S
C805 C800 1.479 . S
C805 C804 1.405 . S
C805 H831 0.931 . S
U806 O807 2.454 . S
U806 O808 2.458 . S
U806 C809 2.984 . S
U806 C810 2.847 . S
U806 C823 2.882 . S
U806 O824 2.441 . S
U806 O825 2.420 . S
U806 O826 2.455 . S
U806 O827 2.449 . S
O807 U806 2.454 . S
O807 C809 1.353 . S
O808 U806 2.458 . S
O808 C809 1.286 . S
C809 U806 2.984 . S
C809 O807 1.353 . S
C809 O808 1.286 . S
C809 C811 1.363 . S
C810 C800 1.465 . S
C810 U806 2.847 . S
C810 O824 1.249 . S
C810 O825 1.202 . S
C811 C809 1.363 . S
C811 C813 1.408 . S
C811 C816 1.342 . S
C812 C813 1.310 . S
C812 C815 1.461 . S
C812 H832 0.932 . S
C813 C811 1.408 . S
C813 C812 1.310 . S
C813 H833 0.930 . S
C814 C815 1.474 . S
C814 C816 1.285 . S
C814 H834 0.929 . S
C815 C812 1.461 . S
C815 C814 1.474 . S
C816 C811 1.342 . S
C816 C814 1.285 . S
C816 H835 0.930 . S
C817 C820 1.424 . S
C817 C822 1.245 . S
C817 C823 1.428 . S
C818 C821 1.260 . S
C818 C822 1.477 . S
C818 H836 0.932 . S
C819 C820 1.384 . S
C819 C821 1.479 . S
C819 H837 0.929 . S
C820 C817 1.424 . S
C820 C819 1.384 . S
C820 H838 0.928 . S
C821 C818 1.260 . S
C821 C819 1.479 . S
C822 C817 1.245 . S
C822 C818 1.477 . S
C822 H839 0.932 . S
C823 U806 2.882 . S
C823 C817 1.428 . S
C823 O826 1.301 . S
C823 O827 1.282 . S
O824 U806 2.441 . S
O824 C810 1.249 . S
O825 U806 2.420 . S
O825 C810 1.202 . S
O826 U806 2.455 . S
O826 C823 1.301 . S
O827 U806 2.449 . S
O827 C823 1.282 . S
H828 C801 0.931 . S
H829 C803 0.929 . S
H830 C804 0.930 . S
H831 C805 0.931 . S
H832 C812 0.932 . S
H833 C813 0.930 . S
H834 C814 0.929 . S
H835 C816 0.930 . S
H836 C818 0.932 . S
H837 C819 0.929 . S
H838 C820 0.928 . S
H839 C822 0.932 . S
C840 C841 1.264 . S
C840 C845 1.479 . S
C840 C850 1.465 . S
C841 C840 1.264 . S
C841 C843 1.339 . S
C841 H868 0.931 . S
C842 C843 1.395 . S
C842 C844 1.320 . S
C843 C841 1.339 . S
C843 C842 1.395 . S
C843 H869 0.929 . S
C844 C842 1.320 . S
C844 C845 1.405 . S
C844 H870 0.930 . S
C845 C840 1.479 . S
C845 C844 1.405 . S
C845 H871 0.931 . S
U846 O847 2.454 . S
U846 O848 2.458 . S
U846 C849 2.984 . S
U846 C850 2.847 . S
U846 C863 2.882 . S
U846 O864 2.441 . S
U846 O865 2.420 . S
U846 O866 2.455 . S
U846 O867 2.449 . S
O847 U846 2.454 . S
O847 C849 1.353 . S
O848 U846 2.458 . S
O848 C849 1.286 . S
C849 U846 2.984 . S
C849 O847 1.353 . S
C849 O848 1.286 . S
C849 C851 1.363 . S
C850 C840 1.465 . S
C850 U846 2.847 . S
C850 O864 1.249 . S
C850 O865 1.202 . S
C851 C849 1.363 . S
C851 C853 1.408 . S
C851 C856 1.342 . S
C852 C853 1.310 . S
C852 C855 1.461 . S
C852 H872 0.932 . S
C853 C851 1.408 . S
C853 C852 1.310 . S
C853 H873 0.930 . S
C854 C855 1.474 . S
C854 C856 1.285 . S
C854 H874 0.929 . S
C855 C852 1.461 . S
C855 C854 1.474 . S
C856 C851 1.342 . S
C856 C854 1.285 . S
C856 H875 0.930 . S
C857 C860 1.424 . S
C857 C862 1.245 . S
C857 C863 1.428 . S
C858 C861 1.260 . S
C858 C862 1.477 . S
C858 H876 0.932 . S
C859 C860 1.384 . S
C859 C861 1.479 . S
C859 H877 0.929 . S
C860 C857 1.424 . S
C860 C859 1.384 . S
C860 H878 0.928 . S
C861 C858 1.260 . S
C861 C859 1.479 . S
C862 C857 1.245 . S
C862 C858 1.477 . S
C862 H879 0.932 . S
C863 U846 2.882 . S
C863 C857 1.428 . S
C863 O866 1.301 . S
C863 O867 1.282 . S
O864 U846 2.441 . S
O864 C850 1.249 . S
O865 U846 2.420 . S
O865 C850 1.202 . S
O866 U846 2.455 . S
O866 C863 1.301 . S
O867 U846 2.449 . S
O867 C863 1.282 . S
H868 C841 0.931 . S
H869 C843 0.929 . S
H870 C844 0.930 . S
H871 C845 0.931 . S
H872 C852 0.932 . S
H873 C853 0.930 . S
H874 C854 0.929 . S
H875 C856 0.930 . S
H876 C858 0.932 . S
H877 C859 0.929 . S
H878 C860 0.928 . S
H879 C862 0.932 . S
C880 C881 1.264 . S
C880 C885 1.479 . S
C880 C890 1.465 . S
C881 C880 1.264 . S
C881 C883 1.339 . S
C881 H908 0.931 . S
C882 C883 1.395 . S
C882 C884 1.320 . S
C883 C881 1.339 . S
C883 C882 1.395 . S
C883 H909 0.929 . S
C884 C882 1.320 . S
C884 C885 1.405 . S
C884 H910 0.930 . S
C885 C880 1.479 . S
C885 C884 1.405 . S
C885 H911 0.931 . S
U886 O887 2.454 . S
U886 O888 2.458 . S
U886 C889 2.984 . S
U886 C890 2.847 . S
U886 C903 2.882 . S
U886 O904 2.441 . S
U886 O905 2.420 . S
U886 O906 2.455 . S
U886 O907 2.449 . S
O887 U886 2.454 . S
O887 C889 1.353 . S
O888 U886 2.458 . S
O888 C889 1.286 . S
C889 U886 2.984 . S
C889 O887 1.353 . S
C889 O888 1.286 . S
C889 C891 1.363 . S
C890 C880 1.465 . S
C890 U886 2.847 . S
C890 O904 1.249 . S
C890 O905 1.202 . S
C891 C889 1.363 . S
C891 C893 1.408 . S
C891 C896 1.342 . S
C892 C893 1.310 . S
C892 C895 1.461 . S
C892 H912 0.932 . S
C893 C891 1.408 . S
C893 C892 1.310 . S
C893 H913 0.930 . S
C894 C895 1.474 . S
C894 C896 1.285 . S
C894 H914 0.929 . S
C895 C892 1.461 . S
C895 C894 1.474 . S
C896 C891 1.342 . S
C896 C894 1.285 . S
C896 H915 0.930 . S
C897 C900 1.424 . S
C897 C902 1.245 . S
C897 C903 1.428 . S
C898 C901 1.260 . S
C898 C902 1.477 . S
C898 H916 0.932 . S
C899 C900 1.384 . S
C899 C901 1.479 . S
C899 H917 0.929 . S
C900 C897 1.424 . S
C900 C899 1.384 . S
C900 H918 0.928 . S
C901 C898 1.260 . S
C901 C899 1.479 . S
C902 C897 1.245 . S
C902 C898 1.477 . S
C902 H919 0.932 . S
C903 U886 2.882 . S
C903 C897 1.428 . S
C903 O906 1.301 . S
C903 O907 1.282 . S
O904 U886 2.441 . S
O904 C890 1.249 . S
O905 U886 2.420 . S
O905 C890 1.202 . S
O906 U886 2.455 . S
O906 C903 1.301 . S
O907 U886 2.449 . S
O907 C903 1.282 . S
H908 C881 0.931 . S
H909 C883 0.929 . S
H910 C884 0.930 . S
H911 C885 0.931 . S
H912 C892 0.932 . S
H913 C893 0.930 . S
H914 C894 0.929 . S
H915 C896 0.930 . S
H916 C898 0.932 . S
H917 C899 0.929 . S
H918 C900 0.928 . S
H919 C902 0.932 . S
C920 C921 1.264 . S
C920 C925 1.479 . S
C920 C930 1.465 . S
C921 C920 1.264 . S
C921 C923 1.339 . S
C921 H948 0.931 . S
C922 C923 1.395 . S
C922 C924 1.320 . S
C923 C921 1.339 . S
C923 C922 1.395 . S
C923 H949 0.929 . S
C924 C922 1.320 . S
C924 C925 1.405 . S
C924 H950 0.930 . S
C925 C920 1.479 . S
C925 C924 1.405 . S
C925 H951 0.931 . S
U926 O927 2.454 . S
U926 O928 2.458 . S
U926 C929 2.984 . S
U926 C930 2.847 . S
U926 C943 2.882 . S
U926 O944 2.441 . S
U926 O945 2.420 . S
U926 O946 2.455 . S
U926 O947 2.449 . S
O927 U926 2.454 . S
O927 C929 1.353 . S
O928 U926 2.458 . S
O928 C929 1.286 . S
C929 U926 2.984 . S
C929 O927 1.353 . S
C929 O928 1.286 . S
C929 C931 1.363 . S
C930 C920 1.465 . S
C930 U926 2.847 . S
C930 O944 1.249 . S
C930 O945 1.202 . S
C931 C929 1.363 . S
C931 C933 1.408 . S
C931 C936 1.342 . S
C932 C933 1.310 . S
C932 C935 1.461 . S
C932 H952 0.932 . S
C933 C931 1.408 . S
C933 C932 1.310 . S
C933 H953 0.930 . S
C934 C935 1.474 . S
C934 C936 1.285 . S
C934 H954 0.929 . S
C935 C932 1.461 . S
C935 C934 1.474 . S
C936 C931 1.342 . S
C936 C934 1.285 . S
C936 H955 0.930 . S
C937 C940 1.424 . S
C937 C942 1.245 . S
C937 C943 1.428 . S
C938 C941 1.260 . S
C938 C942 1.477 . S
C938 H956 0.932 . S
C939 C940 1.384 . S
C939 C941 1.479 . S
C939 H957 0.929 . S
C940 C937 1.424 . S
C940 C939 1.384 . S
C940 H958 0.928 . S
C941 C938 1.260 . S
C941 C939 1.479 . S
C942 C937 1.245 . S
C942 C938 1.477 . S
C942 H959 0.932 . S
C943 U926 2.882 . S
C943 C937 1.428 . S
C943 O946 1.301 . S
C943 O947 1.282 . S
O944 U926 2.441 . S
O944 C930 1.249 . S
O945 U926 2.420 . S
O945 C930 1.202 . S
O946 U926 2.455 . S
O946 C943 1.301 . S
O947 U926 2.449 . S
O947 C943 1.282 . S
H948 C921 0.931 . S
H949 C923 0.929 . S
H950 C924 0.930 . S
H951 C925 0.931 . S
H952 C932 0.932 . S
H953 C933 0.930 . S
H954 C934 0.929 . S
H955 C936 0.930 . S
H956 C938 0.932 . S
H957 C939 0.929 . S
H958 C940 0.928 . S
H959 C942 0.932 . S
Zn960 O962 1.933 1_665 S
Zn960 O980 1.985 1_565 S
Zn960 O991 1.955 1_655 S
Zn961 O962 1.911 1_655 S
Zn961 O981 1.970 . S
Zn961 O997 1.945 1_655 S
Zn961 O1004 1.981 . S
O962 Zn960 1.933 1_445 S
O962 Zn961 1.911 1_455 S
O962 H963 0.841 . S
H963 O962 0.841 . S
C964 O965 1.246 . S
C964 O993 1.276 . S
O965 C964 1.246 . S
Zn966 O968 1.911 . S
Zn966 O983 1.970 . S
Zn966 O1000 1.945 . S
Zn966 O1007 1.981 . S
Zn967 O968 1.933 1_565 S
Zn967 O982 1.990 . S
Zn967 O989 1.955 . S
O968 Zn966 1.911 . S
O968 Zn967 1.933 1_545 S
O968 H969 0.841 . S
H969 O968 0.841 . S
Zn970 O971 1.933 1_565 S
Zn970 O984 1.985 1_565 S
Zn970 O993 1.955 . S
O971 Zn970 1.933 1_545 S
O971 Zn972 1.911 . S
O971 H973 0.841 . S
Zn972 O971 1.911 . S
Zn972 O985 1.970 . S
Zn972 O1001 1.981 1_655 S
Zn972 O1003 1.945 . S
H973 O971 0.841 . S
Zn974 O975 1.933 1_565 S
Zn974 O987 1.992 . S
Zn974 O995 1.955 . S
O975 Zn974 1.933 1_545 S
O975 H976 0.841 . S
O975 Zn977 1.911 . S
H976 O975 0.841 . S
Zn977 O975 1.911 . S
Zn977 O988 1.970 . S
Zn977 O998 1.981 . S
Zn977 O1006 1.945 . S
C978 O979 1.246 . S
C978 O995 1.276 . S
O979 C978 1.246 . S
O980 Zn960 1.985 1_545 S
O980 C990 1.245 . S
O981 Zn961 1.970 . S
O981 C990 1.263 . S
O982 Zn967 1.990 . S
O982 C994 1.224 1_565 S
O983 Zn966 1.970 . S
O983 C994 1.263 . S
O984 Zn970 1.985 1_545 S
O984 C999 1.245 . S
O985 Zn972 1.970 . S
O985 C999 1.263 . S
C986 O997 1.262 . S
C986 O998 1.245 . S
O987 Zn974 1.992 . S
O987 C1005 1.215 1_565 S
O988 Zn977 1.970 . S
O988 C1005 1.263 . S
O989 Zn967 1.955 . S
O989 C1008 1.276 . S
C990 O980 1.245 . S
C990 O981 1.263 . S
O991 Zn960 1.955 1_455 S
O991 C1010 1.276 . S
C992 O1000 1.262 . S
C992 O1001 1.245 . S
O993 C964 1.276 . S
O993 Zn970 1.955 . S
C994 O982 1.224 1_545 S
C994 O983 1.263 . S
O995 Zn974 1.955 . S
O995 C978 1.276 . S
C996 O1003 1.262 . S
C996 O1004 1.245 . S
O997 Zn961 1.945 1_455 S
O997 C986 1.262 . S
O998 Zn977 1.981 . S
O998 C986 1.245 . S
C999 O984 1.245 . S
C999 O985 1.263 . S
O1000 Zn966 1.945 . S
O1000 C992 1.262 . S
O1001 Zn972 1.981 1_455 S
O1001 C992 1.245 . S
C1002 O1006 1.262 . S
C1002 O1007 1.245 . S
O1003 Zn972 1.945 . S
O1003 C996 1.262 . S
O1004 Zn961 1.981 . S
O1004 C996 1.245 . S
C1005 O987 1.215 1_545 S
C1005 O988 1.263 . S
O1006 Zn977 1.945 . S
O1006 C1002 1.262 . S
O1007 Zn966 1.981 . S
O1007 C1002 1.245 . S
C1008 O989 1.276 . S
C1008 O1009 1.246 . S
O1009 C1008 1.246 . S
C1010 O991 1.276 . S
C1010 O1011 1.246 . S
O1011 C1010 1.246 . S
Zn1012 O1014 1.933 . S
Zn1012 O1032 1.985 . S
Zn1012 O1043 1.955 . S
Zn1013 O1014 1.911 1_556 S
Zn1013 O1033 1.970 . S
Zn1013 O1049 1.945 . S
Zn1013 O1056 1.981 . S
O1014 Zn1012 1.933 . S
O1014 Zn1013 1.911 1_554 S
O1014 H1015 0.841 . S
H1015 O1014 0.841 . S
C1016 O1017 1.246 . S
C1016 O1045 1.276 . S
O1017 C1016 1.246 . S
Zn1018 O1020 1.911 1_566 S
Zn1018 O1035 1.970 . S
Zn1018 O1052 1.947 1_565 S
Zn1018 O1059 1.981 . S
Zn1019 O1020 1.933 1_565 S
Zn1019 O1034 1.985 . S
Zn1019 O1041 1.955 1_565 S
O1020 Zn1018 1.911 1_544 S
O1020 Zn1019 1.933 1_545 S
O1020 H1021 0.841 . S
H1021 O1020 0.841 . S
Zn1022 O1023 1.933 . S
Zn1022 O1036 1.985 . S
Zn1022 O1045 1.955 . S
O1023 Zn1022 1.933 . S
O1023 Zn1024 1.911 1_554 S
O1023 H1025 0.841 . S
Zn1024 O1023 1.911 1_556 S
Zn1024 O1037 1.970 . S
Zn1024 O1053 1.981 . S
Zn1024 O1055 1.945 . S
H1025 O1023 0.841 . S
Zn1026 O1027 1.933 . S
Zn1026 O1039 1.985 . S
Zn1026 O1047 1.955 . S
O1027 Zn1026 1.933 . S
O1027 H1028 0.841 . S
O1027 Zn1029 1.911 1_554 S
H1028 O1027 0.841 . S
Zn1029 O1027 1.911 1_556 S
Zn1029 O1040 1.970 . S
Zn1029 O1050 1.981 1_565 S
Zn1029 O1058 1.945 . S
C1030 O1031 1.246 . S
C1030 O1047 1.276 . S
O1031 C1030 1.246 . S
O1032 Zn1012 1.985 . S
O1032 C1042 1.245 . S
O1033 Zn1013 1.970 . S
O1033 C1042 1.263 1_556 S
O1034 Zn1019 1.985 . S
O1034 C1046 1.245 . S
O1035 Zn1018 1.970 . S
O1035 C1046 1.263 1_556 S
O1036 Zn1022 1.985 . S
O1036 C1051 1.245 . S
O1037 Zn1024 1.970 . S
O1037 C1051 1.263 1_556 S
C1038 O1049 1.262 . S
C1038 O1050 1.245 . S
O1039 Zn1026 1.985 . S
O1039 C1057 1.245 . S
O1040 Zn1029 1.970 . S
O1040 C1057 1.263 1_556 S
O1041 Zn1019 1.955 1_545 S
O1041 C1060 1.276 . S
C1042 O1032 1.245 . S
C1042 O1033 1.263 1_554 S
O1043 Zn1012 1.955 . S
O1043 C1062 1.276 . S
C1044 O1052 1.257 . S
C1044 O1053 1.245 . S
O1045 C1016 1.276 . S
O1045 Zn1022 1.955 . S
C1046 O1034 1.245 . S
C1046 O1035 1.263 1_554 S
O1047 Zn1026 1.955 . S
O1047 C1030 1.276 . S
C1048 O1055 1.262 . S
C1048 O1056 1.245 . S
O1049 Zn1013 1.945 . S
O1049 C1038 1.262 . S
O1050 Zn1029 1.981 1_545 S
O1050 C1038 1.245 . S
C1051 O1036 1.245 . S
C1051 O1037 1.263 1_554 S
O1052 Zn1018 1.947 1_545 S
O1052 C1044 1.257 . S
O1053 Zn1024 1.981 . S
O1053 C1044 1.245 . S
C1054 O1058 1.262 . S
C1054 O1059 1.245 . S
O1055 Zn1024 1.945 . S
O1055 C1048 1.262 . S
O1056 Zn1013 1.981 . S
O1056 C1048 1.245 . S
C1057 O1039 1.245 . S
C1057 O1040 1.263 1_554 S
O1058 Zn1029 1.945 . S
O1058 C1054 1.262 . S
O1059 Zn1018 1.981 . S
O1059 C1054 1.245 . S
C1060 O1041 1.276 . S
C1060 O1061 1.246 . S
O1061 C1060 1.246 . S
C1062 O1043 1.276 . S
C1062 O1063 1.246 . S
O1063 C1062 1.246 . S
Zn1064 O1066 1.933 1_655 S
Zn1064 O1084 1.985 . S
Zn1064 O1095 1.955 1_655 S
Zn1065 O1066 1.911 1_655 S
Zn1065 O1085 1.970 . S
Zn1065 O1101 1.945 . S
Zn1065 O1108 2.013 . S
O1066 Zn1064 1.933 1_455 S
O1066 Zn1065 1.911 1_455 S
O1066 H1067 0.841 . S
H1067 O1066 0.841 . S
C1068 O1069 1.246 1_554 S
C1068 O1097 1.276 . S
O1069 C1068 1.246 1_556 S
Zn1070 O1072 1.911 . S
Zn1070 O1087 1.970 . S
Zn1070 O1104 1.945 . S
Zn1070 O1111 1.981 . S
Zn1071 O1072 1.933 . S
Zn1071 O1086 1.985 . S
Zn1071 O1093 1.955 . S
O1072 Zn1070 1.911 . S
O1072 Zn1071 1.933 . S
O1072 H1073 0.841 . S
H1073 O1072 0.841 . S
Zn1074 O1075 1.933 . S
Zn1074 O1088 1.985 . S
Zn1074 O1097 1.955 . S
O1075 Zn1074 1.933 . S
O1075 Zn1076 1.911 . S
O1075 H1077 0.841 . S
Zn1076 O1075 1.911 . S
Zn1076 O1089 1.970 . S
Zn1076 O1105 1.981 1_655 S
Zn1076 O1107 1.945 . S
H1077 O1075 0.841 . S
Zn1078 O1079 1.933 . S
Zn1078 O1091 1.985 . S
Zn1078 O1099 1.955 . S
O1079 Zn1078 1.933 . S
O1079 H1080 0.841 1_556 S
O1079 Zn1081 1.911 . S
H1080 O1079 0.841 1_554 S
Zn1081 O1079 1.911 . S
Zn1081 O1092 1.970 . S
Zn1081 O1102 1.981 . S
Zn1081 O1110 1.945 . S
C1082 O1083 1.246 . S
C1082 O1099 1.276 1_554 S
O1083 C1082 1.246 . S
O1084 Zn1064 1.985 . S
O1084 C1094 1.245 . S
O1085 Zn1065 1.970 . S
O1085 C1094 1.263 . S
O1086 Zn1071 1.985 . S
O1086 C1098 1.245 . S
O1087 Zn1070 1.970 . S
O1087 C1098 1.263 . S
O1088 Zn1074 1.985 . S
O1088 C1103 1.245 . S
O1089 Zn1076 1.970 . S
O1089 C1103 1.263 . S
C1090 O1101 1.262 1_455 S
C1090 O1102 1.245 . S
O1091 Zn1078 1.985 . S
O1091 C1109 1.245 . S
O1092 Zn1081 1.970 . S
O1092 C1109 1.263 . S
O1093 Zn1071 1.955 . S
O1093 C1112 1.276 . S
C1094 O1084 1.245 . S
C1094 O1085 1.263 . S
O1095 Zn1064 1.955 1_455 S
O1095 C1114 1.276 . S
C1096 O1104 1.262 . S
C1096 O1105 1.245 . S
O1097 C1068 1.276 . S
O1097 Zn1074 1.955 . S
C1098 O1086 1.245 . S
C1098 O1087 1.263 . S
O1099 Zn1078 1.955 . S
O1099 C1082 1.276 1_556 S
C1100 O1107 1.262 . S
C1100 O1108 1.224 1_554 S
O1101 Zn1065 1.945 . S
O1101 C1090 1.262 1_655 S
O1102 Zn1081 1.981 . S
O1102 C1090 1.245 . S
C1103 O1088 1.245 . S
C1103 O1089 1.263 . S
O1104 Zn1070 1.945 . S
O1104 C1096 1.262 . S
O1105 Zn1076 1.981 1_455 S
O1105 C1096 1.245 . S
C1106 O1110 1.262 1_554 S
C1106 O1111 1.245 . S
O1107 Zn1076 1.945 . S
O1107 C1100 1.262 . S
O1108 Zn1065 2.013 . S
O1108 C1100 1.224 1_556 S
C1109 O1091 1.245 . S
C1109 O1092 1.263 . S
O1110 Zn1081 1.945 . S
O1110 C1106 1.262 1_556 S
O1111 Zn1070 1.981 . S
O1111 C1106 1.245 . S
C1112 O1093 1.276 . S
C1112 O1113 1.246 . S
O1113 C1112 1.246 . S
C1114 O1095 1.276 . S
C1114 O1115 1.246 . S
O1115 C1114 1.246 . S
Zn1116 O1118 1.933 1_556 S
Zn1116 O1136 1.985 . S
Zn1116 O1147 1.955 . S
Zn1117 O1118 1.911 . S
Zn1117 O1137 1.970 . S
Zn1117 O1153 1.945 . S
Zn1117 O1160 1.981 . S
O1118 Zn1116 1.933 1_554 S
O1118 Zn1117 1.911 . S
O1118 H1119 0.841 . S
H1119 O1118 0.841 . S
C1120 O1121 1.246 . S
C1120 O1149 1.276 . S
O1121 C1120 1.246 . S
Zn1122 O1124 1.911 . S
Zn1122 O1139 1.970 . S
Zn1122 O1156 1.945 . S
Zn1122 O1163 1.981 . S
Zn1123 O1124 1.933 1_556 S
Zn1123 O1138 1.985 . S
Zn1123 O1145 1.955 . S
O1124 Zn1122 1.911 . S
O1124 Zn1123 1.933 1_554 S
O1124 H1125 0.841 . S
H1125 O1124 0.841 . S
Zn1126 O1127 1.933 1_556 S
Zn1126 O1140 1.985 . S
Zn1126 O1149 1.955 . S
O1127 Zn1126 1.933 1_554 S
O1127 Zn1128 1.911 . S
O1127 H1129 0.841 . S
Zn1128 O1127 1.911 . S
Zn1128 O1141 1.970 . S
Zn1128 O1157 1.981 . S
Zn1128 O1159 1.945 . S
H1129 O1127 0.841 . S
Zn1130 O1131 1.933 1_556 S
Zn1130 O1143 1.985 . S
Zn1130 O1151 1.955 . S
O1131 Zn1130 1.933 1_554 S
O1131 H1132 0.841 . S
O1131 Zn1133 1.911 . S
H1132 O1131 0.841 . S
Zn1133 O1131 1.911 . S
Zn1133 O1144 1.970 . S
Zn1133 O1154 1.981 . S
Zn1133 O1162 1.945 . S
C1134 O1135 1.246 . S
C1134 O1151 1.276 . S
O1135 C1134 1.246 . S
O1136 Zn1116 1.985 . S
O1136 C1146 1.245 1_556 S
O1137 Zn1117 1.970 . S
O1137 C1146 1.263 . S
O1138 Zn1123 1.985 . S
O1138 C1150 1.245 1_556 S
O1139 Zn1122 1.970 . S
O1139 C1150 1.263 . S
O1140 Zn1126 1.985 . S
O1140 C1155 1.245 1_556 S
O1141 Zn1128 1.970 . S
O1141 C1155 1.263 . S
C1142 O1153 1.262 . S
C1142 O1154 1.245 . S
O1143 Zn1130 1.985 . S
O1143 C1161 1.245 1_556 S
O1144 Zn1133 1.970 . S
O1144 C1161 1.263 . S
O1145 Zn1123 1.955 . S
O1145 C1164 1.276 . S
C1146 O1136 1.245 1_554 S
C1146 O1137 1.263 . S
O1147 Zn1116 1.955 . S
O1147 C1166 1.276 . S
C1148 O1156 1.262 . S
C1148 O1157 1.245 . S
O1149 C1120 1.276 . S
O1149 Zn1126 1.955 . S
C1150 O1138 1.245 1_554 S
C1150 O1139 1.263 . S
O1151 Zn1130 1.955 . S
O1151 C1134 1.276 . S
C1152 O1159 1.262 . S
C1152 O1160 1.245 . S
O1153 Zn1117 1.945 . S
O1153 C1142 1.262 . S
O1154 Zn1133 1.981 . S
O1154 C1142 1.245 . S
C1155 O1140 1.245 1_554 S
C1155 O1141 1.263 . S
O1156 Zn1122 1.945 . S
O1156 C1148 1.262 . S
O1157 Zn1128 1.981 . S
O1157 C1148 1.245 . S
C1158 O1162 1.262 . S
C1158 O1163 1.245 . S
O1159 Zn1128 1.945 . S
O1159 C1152 1.262 . S
O1160 Zn1117 1.981 . S
O1160 C1152 1.245 . S
C1161 O1143 1.245 1_554 S
C1161 O1144 1.263 . S
O1162 Zn1133 1.945 . S
O1162 C1158 1.262 . S
O1163 Zn1122 1.981 . S
O1163 C1158 1.245 . S
C1164 O1145 1.276 . S
C1164 O1165 1.246 . S
O1165 C1164 1.246 . S
C1166 O1147 1.276 . S
C1166 O1167 1.246 . S
O1167 C1166 1.246 . S
Zn1168 O1170 1.933 1_655 S
Zn1168 O1188 1.985 . S
Zn1168 O1199 1.955 1_655 S
Zn1169 O1170 1.911 1_655 S
Zn1169 O1189 1.970 . S
Zn1169 O1205 1.949 . S
Zn1169 O1212 1.981 . S
O1170 Zn1168 1.933 1_455 S
O1170 Zn1169 1.911 1_455 S
O1170 H1171 0.841 . S
H1171 O1170 0.841 . S
C1172 O1173 1.246 . S
C1172 O1201 1.276 . S
O1173 C1172 1.246 . S
Zn1174 O1176 1.911 . S
Zn1174 O1191 1.970 . S
Zn1174 O1208 1.945 . S
Zn1174 O1215 1.981 . S
Zn1175 O1176 1.933 . S
Zn1175 O1190 1.985 . S
Zn1175 O1197 1.955 . S
O1176 Zn1174 1.911 . S
O1176 Zn1175 1.933 . S
O1176 H1177 0.841 . S
H1177 O1176 0.841 . S
Zn1178 O1179 1.933 . S
Zn1178 O1192 1.985 . S
Zn1178 O1201 1.955 . S
O1179 Zn1178 1.933 . S
O1179 Zn1180 1.911 . S
O1179 H1181 0.841 . S
Zn1180 O1179 1.911 . S
Zn1180 O1193 1.970 . S
Zn1180 O1209 1.981 1_655 S
Zn1180 O1211 1.945 . S
H1181 O1179 0.841 . S
Zn1182 O1183 1.933 . S
Zn1182 O1195 1.985 . S
Zn1182 O1203 1.955 . S
O1183 Zn1182 1.933 . S
O1183 H1184 0.841 . S
O1183 Zn1185 1.911 . S
H1184 O1183 0.841 . S
Zn1185 O1183 1.911 . S
Zn1185 O1196 1.970 . S
Zn1185 O1206 1.981 . S
Zn1185 O1214 1.945 . S
C1186 O1187 1.246 . S
C1186 O1203 1.276 . S
O1187 C1186 1.246 . S
O1188 Zn1168 1.985 . S
O1188 C1198 1.245 . S
O1189 Zn1169 1.970 . S
O1189 C1198 1.263 . S
O1190 Zn1175 1.985 . S
O1190 C1202 1.245 . S
O1191 Zn1174 1.970 . S
O1191 C1202 1.263 . S
O1192 Zn1178 1.985 . S
O1192 C1207 1.245 . S
O1193 Zn1180 1.970 . S
O1193 C1207 1.263 . S
C1194 O1205 1.249 1_455 S
C1194 O1206 1.245 . S
O1195 Zn1182 1.985 . S
O1195 C1213 1.245 . S
O1196 Zn1185 1.970 . S
O1196 C1213 1.263 . S
O1197 Zn1175 1.955 . S
O1197 C1216 1.276 . S
C1198 O1188 1.245 . S
C1198 O1189 1.263 . S
O1199 Zn1168 1.955 1_455 S
O1199 C1218 1.276 . S
C1200 O1208 1.262 . S
C1200 O1209 1.245 . S
O1201 C1172 1.276 . S
O1201 Zn1178 1.955 . S
C1202 O1190 1.245 . S
C1202 O1191 1.263 . S
O1203 Zn1182 1.955 . S
O1203 C1186 1.276 . S
C1204 O1211 1.262 . S
C1204 O1212 1.245 . S
O1205 Zn1169 1.949 . S
O1205 C1194 1.249 1_655 S
O1206 Zn1185 1.981 . S
O1206 C1194 1.245 . S
C1207 O1192 1.245 . S
C1207 O1193 1.263 . S
O1208 Zn1174 1.945 . S
O1208 C1200 1.262 . S
O1209 Zn1180 1.981 1_455 S
O1209 C1200 1.245 . S
C1210 O1214 1.262 . S
C1210 O1215 1.245 . S
O1211 Zn1180 1.945 . S
O1211 C1204 1.262 . S
O1212 Zn1169 1.981 . S
O1212 C1204 1.245 . S
C1213 O1195 1.245 . S
C1213 O1196 1.263 . S
O1214 Zn1185 1.945 . S
O1214 C1210 1.262 . S
O1215 Zn1174 1.981 . S
O1215 C1210 1.245 . S
C1216 O1197 1.276 . S
C1216 O1217 1.246 . S
O1217 C1216 1.246 . S
C1218 O1199 1.276 . S
C1218 O1219 1.246 . S
O1219 C1218 1.246 . S
Zn1220 O1222 1.933 1_565 S
Zn1220 O1240 1.985 1_565 S
Zn1220 O1251 1.955 . S
Zn1221 O1222 1.911 . S
Zn1221 O1241 1.970 . S
Zn1221 O1257 1.945 . S
Zn1221 O1264 1.981 . S
O1222 Zn1220 1.933 1_545 S
O1222 Zn1221 1.911 . S
O1222 H1223 0.841 . S
H1223 O1222 0.841 . S
C1224 O1225 1.246 . S
C1224 O1253 1.276 . S
O1225 C1224 1.246 . S
Zn1226 O1228 1.911 . S
Zn1226 O1243 1.970 . S
Zn1226 O1260 1.945 . S
Zn1226 O1267 1.981 . S
Zn1227 O1228 1.933 1_565 S
Zn1227 O1242 1.985 1_565 S
Zn1227 O1249 1.955 . S
O1228 Zn1226 1.911 . S
O1228 Zn1227 1.933 1_545 S
O1228 H1229 0.841 . S
H1229 O1228 0.841 . S
Zn1230 O1231 1.933 1_565 S
Zn1230 O1244 1.985 1_565 S
Zn1230 O1253 1.955 . S
O1231 Zn1230 1.933 1_545 S
O1231 Zn1232 1.911 . S
O1231 H1233 0.841 . S
Zn1232 O1231 1.911 . S
Zn1232 O1245 1.970 . S
Zn1232 O1261 1.981 . S
Zn1232 O1263 1.945 . S
H1233 O1231 0.841 . S
Zn1234 O1235 1.933 1_565 S
Zn1234 O1247 1.985 1_565 S
Zn1234 O1255 1.955 . S
O1235 Zn1234 1.933 1_545 S
O1235 H1236 0.841 . S
O1235 Zn1237 1.911 . S
H1236 O1235 0.841 . S
Zn1237 O1235 1.911 . S
Zn1237 O1248 1.970 . S
Zn1237 O1258 1.981 . S
Zn1237 O1266 1.945 . S
C1238 O1239 1.246 . S
C1238 O1255 1.276 . S
O1239 C1238 1.246 . S
O1240 Zn1220 1.985 1_545 S
O1240 C1250 1.244 . S
O1241 Zn1221 1.970 . S
O1241 C1250 1.263 . S
O1242 Zn1227 1.985 1_545 S
O1242 C1254 1.245 . S
O1243 Zn1226 1.970 . S
O1243 C1254 1.263 . S
O1244 Zn1230 1.985 1_545 S
O1244 C1259 1.243 . S
O1245 Zn1232 1.970 . S
O1245 C1259 1.263 . S
C1246 O1257 1.262 . S
C1246 O1258 1.245 . S
O1247 Zn1234 1.985 1_545 S
O1247 C1265 1.245 . S
O1248 Zn1237 1.970 . S
O1248 C1265 1.263 . S
O1249 Zn1227 1.955 . S
O1249 C1268 1.276 . S
C1250 O1240 1.244 . S
C1250 O1241 1.263 . S
O1251 Zn1220 1.955 . S
O1251 C1270 1.276 . S
C1252 O1260 1.262 . S
C1252 O1261 1.245 . S
O1253 C1224 1.276 . S
O1253 Zn1230 1.955 . S
C1254 O1242 1.245 . S
C1254 O1243 1.263 . S
O1255 Zn1234 1.955 . S
O1255 C1238 1.276 . S
C1256 O1263 1.262 . S
C1256 O1264 1.245 . S
O1257 Zn1221 1.945 . S
O1257 C1246 1.262 . S
O1258 Zn1237 1.981 . S
O1258 C1246 1.245 . S
C1259 O1244 1.243 . S
C1259 O1245 1.263 . S
O1260 Zn1226 1.945 . S
O1260 C1252 1.262 . S
O1261 Zn1232 1.981 . S
O1261 C1252 1.245 . S
C1262 O1266 1.262 . S
C1262 O1267 1.245 . S
O1263 Zn1232 1.945 . S
O1263 C1256 1.262 . S
O1264 Zn1221 1.981 . S
O1264 C1256 1.245 . S
C1265 O1247 1.245 . S
C1265 O1248 1.263 . S
O1266 Zn1237 1.945 . S
O1266 C1262 1.262 . S
O1267 Zn1226 1.981 . S
O1267 C1262 1.245 . S
C1268 O1249 1.276 . S
C1268 O1269 1.246 . S
O1269 C1268 1.246 . S
C1270 O1251 1.276 . S
C1270 O1271 1.246 . S
O1271 C1270 1.246 . S
H1272 C1278 0.930 . S
H1273 C1282 0.930 . S
H1274 C1287 0.929 . S
H1275 C1285 0.929 . S
H1276 C1280 0.929 . S
H1277 C1286 0.929 . S
C1278 H1272 0.930 . S
C1278 C1279 1.367 . S
C1278 C1286 1.378 . S
C1279 C1278 1.367 . S
C1279 C1287 1.433 . S
C1280 H1276 0.929 . S
C1280 C1282 1.378 . S
C1280 C1284 1.350 . S
C1281 C1284 1.463 . S
C1281 C1286 1.350 . S
C1281 N1289 1.427 . S
C1282 H1273 0.930 . S
C1282 C1280 1.378 . S
C1282 C1283 1.367 . S
C1283 C1282 1.367 . S
C1283 C1285 1.433 . S
C1284 C1280 1.350 . S
C1284 C1281 1.463 . S
C1284 N1288 1.427 . S
C1285 H1275 0.929 . S
C1285 C1283 1.433 . S
C1285 N1288 1.384 . S
C1286 H1277 0.929 . S
C1286 C1278 1.378 . S
C1286 C1281 1.350 . S
C1287 H1274 0.929 . S
C1287 C1279 1.433 . S
C1287 N1289 1.384 . S
N1288 C1284 1.427 . S
N1288 C1285 1.384 . S
N1289 C1281 1.427 . S
N1289 C1287 1.384 . S
H1290 C1296 0.930 . S
H1291 C1300 0.930 . S
H1292 C1305 0.929 . S
H1293 C1303 0.929 . S
H1294 C1298 0.929 . S
H1295 C1304 0.929 . S
C1296 H1290 0.930 . S
C1296 C1297 1.367 . S
C1296 C1304 1.378 . S
C1297 C1296 1.367 . S
C1297 C1305 1.433 . S
C1298 H1294 0.929 . S
C1298 C1300 1.378 . S
C1298 C1302 1.350 . S
C1299 C1302 1.463 . S
C1299 C1304 1.350 . S
C1299 N1307 1.427 . S
C1300 H1291 0.930 . S
C1300 C1298 1.378 . S
C1300 C1301 1.367 . S
C1301 C1300 1.367 . S
C1301 C1303 1.433 . S
C1302 C1298 1.350 . S
C1302 C1299 1.463 . S
C1302 N1306 1.427 . S
C1303 H1293 0.929 . S
C1303 C1301 1.433 . S
C1303 N1306 1.384 . S
C1304 H1295 0.929 . S
C1304 C1296 1.378 . S
C1304 C1299 1.350 . S
C1305 H1292 0.929 . S
C1305 C1297 1.433 . S
C1305 N1307 1.384 . S
N1306 C1302 1.427 . S
N1306 C1303 1.384 . S
N1307 C1299 1.427 . S
N1307 C1305 1.384 . S
H1308 C1314 0.930 . S
H1309 C1318 0.930 . S
H1310 C1323 0.929 . S
H1311 C1321 0.929 . S
H1312 C1316 0.929 . S
H1313 C1322 0.929 . S
C1314 H1308 0.930 . S
C1314 C1315 1.367 . S
C1314 C1322 1.378 . S
C1315 C1314 1.367 . S
C1315 C1323 1.433 . S
C1316 H1312 0.929 . S
C1316 C1318 1.378 . S
C1316 C1320 1.350 . S
C1317 C1320 1.463 . S
C1317 C1322 1.350 . S
C1317 N1325 1.427 . S
C1318 H1309 0.930 . S
C1318 C1316 1.378 . S
C1318 C1319 1.367 . S
C1319 C1318 1.367 . S
C1319 C1321 1.433 . S
C1320 C1316 1.350 . S
C1320 C1317 1.463 . S
C1320 N1324 1.427 . S
C1321 H1311 0.929 . S
C1321 C1319 1.433 . S
C1321 N1324 1.384 . S
C1322 H1313 0.929 . S
C1322 C1314 1.378 . S
C1322 C1317 1.350 . S
C1323 H1310 0.929 . S
C1323 C1315 1.433 . S
C1323 N1325 1.384 . S
N1324 C1320 1.427 . S
N1324 C1321 1.384 . S
N1325 C1317 1.427 . S
N1325 C1323 1.384 . S
H1326 C1332 0.930 . S
H1327 C1336 0.930 . S
H1328 C1341 0.929 . S
H1329 C1339 0.929 . S
H1330 C1334 0.929 . S
H1331 C1340 0.929 . S
C1332 H1326 0.930 . S
C1332 C1333 1.367 . S
C1332 C1340 1.378 . S
C1333 C1332 1.367 . S
C1333 C1341 1.433 . S
C1334 H1330 0.929 . S
C1334 C1336 1.378 . S
C1334 C1338 1.350 . S
C1335 C1338 1.463 . S
C1335 C1340 1.350 . S
C1335 N1343 1.427 . S
C1336 H1327 0.930 . S
C1336 C1334 1.378 . S
C1336 C1337 1.367 . S
C1337 C1336 1.367 . S
C1337 C1339 1.433 . S
C1338 C1334 1.350 . S
C1338 C1335 1.463 . S
C1338 N1342 1.427 . S
C1339 H1329 0.929 . S
C1339 C1337 1.433 . S
C1339 N1342 1.384 . S
C1340 H1331 0.929 . S
C1340 C1332 1.378 . S
C1340 C1335 1.350 . S
C1341 H1328 0.929 . S
C1341 C1333 1.433 . S
C1341 N1343 1.384 . S
N1342 C1338 1.427 . S
N1342 C1339 1.384 . S
N1343 C1335 1.427 . S
N1343 C1341 1.384 . S
H1344 C1350 0.930 . S
H1345 C1354 0.930 . S
H1346 C1359 0.929 . S
H1347 C1357 0.929 . S
H1348 C1352 0.929 . S
H1349 C1358 0.929 . S
C1350 H1344 0.930 . S
C1350 C1351 1.367 . S
C1350 C1358 1.378 . S
C1351 C1350 1.367 . S
C1351 C1359 1.433 . S
C1352 H1348 0.929 . S
C1352 C1354 1.378 . S
C1352 C1356 1.350 . S
C1353 C1356 1.463 . S
C1353 C1358 1.350 . S
C1353 N1361 1.427 . S
C1354 H1345 0.930 . S
C1354 C1352 1.378 . S
C1354 C1355 1.367 . S
C1355 C1354 1.367 . S
C1355 C1357 1.433 . S
C1356 C1352 1.350 . S
C1356 C1353 1.463 . S
C1356 N1360 1.427 . S
C1357 H1347 0.929 . S
C1357 C1355 1.433 . S
C1357 N1360 1.384 . S
C1358 H1349 0.929 . S
C1358 C1350 1.378 . S
C1358 C1353 1.350 . S
C1359 H1346 0.929 . S
C1359 C1351 1.433 . S
C1359 N1361 1.384 . S
N1360 C1356 1.427 . S
N1360 C1357 1.384 . S
N1361 C1353 1.427 . S
N1361 C1359 1.384 . S
H1362 C1368 0.930 . S
H1363 C1372 0.930 . S
H1364 C1377 0.929 . S
H1365 C1375 0.929 . S
H1366 C1370 0.929 . S
H1367 C1376 0.929 . S
C1368 H1362 0.930 . S
C1368 C1369 1.367 . S
C1368 C1376 1.378 . S
C1369 C1368 1.367 . S
C1369 C1377 1.433 . S
C1370 H1366 0.929 . S
C1370 C1372 1.378 . S
C1370 C1374 1.350 . S
C1371 C1374 1.463 . S
C1371 C1376 1.350 . S
C1371 N1379 1.427 . S
C1372 H1363 0.930 . S
C1372 C1370 1.378 . S
C1372 C1373 1.367 . S
C1373 C1372 1.367 . S
C1373 C1375 1.433 . S
C1374 C1370 1.350 . S
C1374 C1371 1.463 . S
C1374 N1378 1.427 . S
C1375 H1365 0.929 . S
C1375 C1373 1.433 . S
C1375 N1378 1.384 . S
C1376 H1367 0.929 . S
C1376 C1368 1.378 . S
C1376 C1371 1.350 . S
C1377 H1364 0.929 . S
C1377 C1369 1.433 . S
C1377 N1379 1.384 . S
N1378 C1374 1.427 . S
N1378 C1375 1.384 . S
N1379 C1371 1.427 . S
N1379 C1377 1.384 . S
H1380 C1386 0.930 . S
H1381 C1390 0.930 . S
H1382 C1395 0.929 . S
H1383 C1393 0.929 . S
H1384 C1388 0.929 . S
H1385 C1394 0.929 . S
C1386 H1380 0.930 . S
C1386 C1387 1.367 . S
C1386 C1394 1.378 . S
C1387 C1386 1.367 . S
C1387 C1395 1.433 . S
C1388 H1384 0.929 . S
C1388 C1390 1.378 . S
C1388 C1392 1.350 . S
C1389 C1392 1.463 . S
C1389 C1394 1.350 . S
C1389 N1397 1.427 . S
C1390 H1381 0.930 . S
C1390 C1388 1.378 . S
C1390 C1391 1.367 . S
C1391 C1390 1.367 . S
C1391 C1393 1.433 . S
C1392 C1388 1.350 . S
C1392 C1389 1.463 . S
C1392 N1396 1.427 . S
C1393 H1383 0.929 . S
C1393 C1391 1.433 . S
C1393 N1396 1.384 . S
C1394 H1385 0.929 . S
C1394 C1386 1.378 . S
C1394 C1389 1.350 . S
C1395 H1382 0.929 . S
C1395 C1387 1.433 . S
C1395 N1397 1.384 . S
N1396 C1392 1.427 . S
N1396 C1393 1.384 . S
N1397 C1389 1.427 . S
N1397 C1395 1.384 . S
H1398 C1404 0.930 . S
H1399 C1408 0.930 . S
H1400 C1413 0.929 . S
H1401 C1411 0.929 . S
H1402 C1406 0.929 . S
H1403 C1412 0.929 . S
C1404 H1398 0.930 . S
C1404 C1405 1.367 . S
C1404 C1412 1.378 . S
C1405 C1404 1.367 . S
C1405 C1413 1.433 . S
C1406 H1402 0.929 . S
C1406 C1408 1.378 . S
C1406 C1410 1.350 . S
C1407 C1410 1.463 . S
C1407 C1412 1.350 . S
C1407 N1415 1.427 . S
C1408 H1399 0.930 . S
C1408 C1406 1.378 . S
C1408 C1409 1.367 . S
C1409 C1408 1.367 . S
C1409 C1411 1.433 . S
C1410 C1406 1.350 . S
C1410 C1407 1.463 . S
C1410 N1414 1.427 . S
C1411 H1401 0.929 . S
C1411 C1409 1.433 . S
C1411 N1414 1.384 . S
C1412 H1403 0.929 . S
C1412 C1404 1.378 . S
C1412 C1407 1.350 . S
C1413 H1400 0.929 . S
C1413 C1405 1.433 . S
C1413 N1415 1.384 . S
N1414 C1410 1.427 . S
N1414 C1411 1.384 . S
N1415 C1407 1.427 . S
N1415 C1413 1.384 . S
H1416 C1422 0.930 . S
H1417 C1426 0.930 . S
H1418 C1431 0.929 . S
H1419 C1429 0.929 . S
H1420 C1424 0.929 . S
H1421 C1430 0.929 . S
C1422 H1416 0.930 . S
C1422 C1423 1.367 . S
C1422 C1430 1.378 . S
C1423 C1422 1.367 . S
C1423 C1431 1.433 . S
C1424 H1420 0.929 . S
C1424 C1426 1.378 . S
C1424 C1428 1.350 . S
C1425 C1428 1.463 . S
C1425 C1430 1.350 . S
C1425 N1433 1.427 . S
C1426 H1417 0.930 . S
C1426 C1424 1.378 . S
C1426 C1427 1.367 . S
C1427 C1426 1.367 . S
C1427 C1429 1.433 . S
C1428 C1424 1.350 . S
C1428 C1425 1.463 . S
C1428 N1432 1.427 . S
C1429 H1419 0.929 . S
C1429 C1427 1.433 . S
C1429 N1432 1.384 . S
C1430 H1421 0.929 . S
C1430 C1422 1.378 . S
C1430 C1425 1.350 . S
C1431 H1418 0.929 . S
C1431 C1423 1.433 . S
C1431 N1433 1.384 . S
N1432 C1428 1.427 . S
N1432 C1429 1.384 . S
N1433 C1425 1.427 . S
N1433 C1431 1.384 . S
H1434 C1440 0.930 . S
H1435 C1444 0.930 . S
H1436 C1449 0.929 . S
H1437 C1447 0.929 . S
H1438 C1442 0.929 . S
H1439 C1448 0.929 . S
C1440 H1434 0.930 . S
C1440 C1441 1.367 . S
C1440 C1448 1.378 . S
C1441 C1440 1.367 . S
C1441 C1449 1.433 . S
C1442 H1438 0.929 . S
C1442 C1444 1.378 . S
C1442 C1446 1.350 . S
C1443 C1446 1.463 . S
C1443 C1448 1.350 . S
C1443 N1451 1.427 . S
C1444 H1435 0.930 . S
C1444 C1442 1.378 . S
C1444 C1445 1.367 . S
C1445 C1444 1.367 . S
C1445 C1447 1.433 . S
C1446 C1442 1.350 . S
C1446 C1443 1.463 . S
C1446 N1450 1.427 . S
C1447 H1437 0.929 . S
C1447 C1445 1.433 . S
C1447 N1450 1.384 . S
C1448 H1439 0.929 . S
C1448 C1440 1.378 . S
C1448 C1443 1.350 . S
C1449 H1436 0.929 . S
C1449 C1441 1.433 . S
C1449 N1451 1.384 . S
N1450 C1446 1.427 . S
N1450 C1447 1.384 . S
N1451 C1443 1.427 . S
N1451 C1449 1.384 . S
H1452 C1458 0.930 . S
H1453 C1462 0.930 . S
H1454 C1467 0.929 . S
H1455 C1465 0.929 . S
H1456 C1460 0.929 . S
H1457 C1466 0.929 . S
C1458 H1452 0.930 . S
C1458 C1459 1.367 . S
C1458 C1466 1.378 . S
C1459 C1458 1.367 . S
C1459 C1467 1.433 . S
C1460 H1456 0.929 . S
C1460 C1462 1.378 . S
C1460 C1464 1.350 . S
C1461 C1464 1.463 . S
C1461 C1466 1.350 . S
C1461 N1469 1.427 . S
C1462 H1453 0.930 . S
C1462 C1460 1.378 . S
C1462 C1463 1.367 . S
C1463 C1462 1.367 . S
C1463 C1465 1.433 . S
C1464 C1460 1.350 . S
C1464 C1461 1.463 . S
C1464 N1468 1.427 . S
C1465 H1455 0.929 . S
C1465 C1463 1.433 . S
C1465 N1468 1.384 . S
C1466 H1457 0.929 . S
C1466 C1458 1.378 . S
C1466 C1461 1.350 . S
C1467 H1454 0.929 . S
C1467 C1459 1.433 . S
C1467 N1469 1.384 . S
N1468 C1464 1.427 . S
N1468 C1465 1.384 . S
N1469 C1461 1.427 . S
N1469 C1467 1.384 . S
H1470 C1476 0.930 . S
H1471 C1480 0.930 . S
H1472 C1485 0.929 . S
H1473 C1483 0.929 . S
H1474 C1478 0.929 . S
H1475 C1484 0.929 . S
C1476 H1470 0.930 . S
C1476 C1477 1.367 . S
C1476 C1484 1.378 . S
C1477 C1476 1.367 . S
C1477 C1485 1.433 . S
C1478 H1474 0.929 . S
C1478 C1480 1.378 . S
C1478 C1482 1.350 . S
C1479 C1482 1.463 . S
C1479 C1484 1.350 . S
C1479 N1487 1.427 . S
C1480 H1471 0.930 . S
C1480 C1478 1.378 . S
C1480 C1481 1.367 . S
C1481 C1480 1.367 . S
C1481 C1483 1.433 . S
C1482 C1478 1.350 . S
C1482 C1479 1.463 . S
C1482 N1486 1.427 . S
C1483 H1473 0.929 . S
C1483 C1481 1.433 . S
C1483 N1486 1.384 . S
C1484 H1475 0.929 . S
C1484 C1476 1.378 . S
C1484 C1479 1.350 . S
C1485 H1472 0.929 . S
C1485 C1477 1.433 . S
C1485 N1487 1.384 . S
N1486 C1482 1.427 . S
N1486 C1483 1.384 . S
N1487 C1479 1.427 . S
N1487 C1485 1.384 . S
H1488 C1494 0.930 . S
H1489 C1498 0.930 . S
H1490 C1503 0.929 . S
H1491 C1501 0.929 . S
H1492 C1496 0.929 . S
H1493 C1502 0.929 . S
C1494 H1488 0.930 . S
C1494 C1495 1.367 . S
C1494 C1502 1.378 . S
C1495 C1494 1.367 . S
C1495 C1503 1.433 . S
C1496 H1492 0.929 . S
C1496 C1498 1.378 . S
C1496 C1500 1.350 . S
C1497 C1500 1.463 . S
C1497 C1502 1.350 . S
C1497 N1505 1.427 . S
C1498 H1489 0.930 . S
C1498 C1496 1.378 . S
C1498 C1499 1.367 . S
C1499 C1498 1.367 . S
C1499 C1501 1.433 . S
C1500 C1496 1.350 . S
C1500 C1497 1.463 . S
C1500 N1504 1.427 . S
C1501 H1491 0.929 . S
C1501 C1499 1.433 . S
C1501 N1504 1.384 . S
C1502 H1493 0.929 . S
C1502 C1494 1.378 . S
C1502 C1497 1.350 . S
C1503 H1490 0.929 . S
C1503 C1495 1.433 . S
C1503 N1505 1.384 . S
N1504 C1500 1.427 . S
N1504 C1501 1.384 . S
N1505 C1497 1.427 . S
N1505 C1503 1.384 . S
H1506 C1512 0.930 . S
H1507 C1516 0.930 . S
H1508 C1521 0.929 . S
H1509 C1519 0.929 . S
H1510 C1514 0.929 . S
H1511 C1520 0.929 . S
C1512 H1506 0.930 . S
C1512 C1513 1.367 1_556 S
C1512 C1520 1.378 . S
C1513 C1512 1.367 1_554 S
C1513 C1521 1.433 . S
C1514 H1510 0.929 . S
C1514 C1516 1.378 . S
C1514 C1518 1.350 . S
C1515 C1518 1.463 . S
C1515 C1520 1.350 1_554 S
C1515 N1523 1.427 . S
C1516 H1507 0.930 . S
C1516 C1514 1.378 . S
C1516 C1517 1.367 . S
C1517 C1516 1.367 . S
C1517 C1519 1.433 1_554 S
C1518 C1514 1.350 . S
C1518 C1515 1.463 . S
C1518 N1522 1.427 1_554 S
C1519 H1509 0.929 . S
C1519 C1517 1.433 1_556 S
C1519 N1522 1.384 . S
C1520 H1511 0.929 . S
C1520 C1512 1.378 . S
C1520 C1515 1.350 1_556 S
C1521 H1508 0.929 . S
C1521 C1513 1.433 . S
C1521 N1523 1.384 . S
N1522 C1518 1.427 1_556 S
N1522 C1519 1.384 . S
N1523 C1515 1.427 . S
N1523 C1521 1.384 . S
H1524 C1530 0.930 . S
H1525 C1534 0.930 1_556 S
H1526 C1539 0.929 . S
H1527 C1537 0.929 . S
H1528 C1532 0.914 1_556 S
H1529 C1538 0.929 . S
C1530 H1524 0.930 . S
C1530 C1531 1.367 . S
C1530 C1538 1.378 . S
C1531 C1530 1.367 . S
C1531 C1539 1.433 . S
C1532 H1528 0.914 1_554 S
C1532 C1534 1.378 . S
C1532 C1536 1.350 . S
C1533 C1536 1.463 . S
C1533 C1538 1.350 . S
C1533 N1541 1.427 . S
C1534 H1525 0.930 1_554 S
C1534 C1532 1.378 . S
C1534 C1535 1.367 . S
C1535 C1534 1.367 . S
C1535 C1537 1.433 . S
C1536 C1532 1.350 . S
C1536 C1533 1.463 . S
C1536 N1540 1.427 . S
C1537 H1527 0.929 . S
C1537 C1535 1.433 . S
C1537 N1540 1.384 . S
C1538 H1529 0.929 . S
C1538 C1530 1.378 . S
C1538 C1533 1.350 . S
C1539 H1526 0.929 . S
C1539 C1531 1.433 . S
C1539 N1541 1.384 . S
N1540 C1536 1.427 . S
N1540 C1537 1.384 . S
N1541 C1533 1.427 . S
N1541 C1539 1.384 . S
H1542 C1548 0.930 . S
H1543 C1552 0.930 . S
H1544 C1557 0.929 . S
H1545 C1555 0.929 . S
H1546 C1550 0.929 . S
H1547 C1556 0.929 . S
C1548 H1542 0.930 . S
C1548 C1549 1.367 . S
C1548 C1556 1.378 . S
C1549 C1548 1.367 . S
C1549 C1557 1.433 . S
C1550 H1546 0.929 . S
C1550 C1552 1.378 . S
C1550 C1554 1.350 . S
C1551 C1554 1.463 . S
C1551 C1556 1.350 . S
C1551 N1559 1.427 . S
C1552 H1543 0.930 . S
C1552 C1550 1.378 . S
C1552 C1553 1.367 . S
C1553 C1552 1.367 . S
C1553 C1555 1.433 . S
C1554 C1550 1.350 . S
C1554 C1551 1.463 . S
C1554 N1558 1.427 . S
C1555 H1545 0.929 . S
C1555 C1553 1.433 . S
C1555 N1558 1.384 . S
C1556 H1547 0.929 . S
C1556 C1548 1.378 . S
C1556 C1551 1.350 . S
C1557 H1544 0.929 . S
C1557 C1549 1.433 . S
C1557 N1559 1.384 . S
N1558 C1554 1.427 . S
N1558 C1555 1.384 . S
N1559 C1551 1.427 . S
N1559 C1557 1.384 . S
H1560 C1566 0.930 . S
H1561 C1570 0.930 . S
H1562 C1575 0.929 . S
H1563 C1573 0.929 . S
H1564 C1568 0.929 . S
H1565 C1574 0.929 . S
C1566 H1560 0.930 . S
C1566 C1567 1.341 1_655 S
C1566 C1574 1.378 . S
C1567 C1566 1.341 1_455 S
C1567 C1575 1.464 . S
C1568 H1564 0.929 . S
C1568 C1570 1.378 . S
C1568 C1572 1.350 . S
C1569 C1572 1.463 . S
C1569 C1574 1.350 1_455 S
C1569 N1577 1.427 . S
C1570 H1561 0.930 . S
C1570 C1568 1.378 . S
C1570 C1571 1.367 . S
C1571 C1570 1.367 . S
C1571 C1573 1.433 1_455 S
C1572 C1568 1.350 . S
C1572 C1569 1.463 . S
C1572 N1576 1.427 1_455 S
C1573 H1563 0.929 . S
C1573 C1571 1.433 1_655 S
C1573 N1576 1.384 . S
C1574 H1565 0.929 . S
C1574 C1566 1.378 . S
C1574 C1569 1.350 1_655 S
C1575 H1562 0.929 . S
C1575 C1567 1.464 . S
C1575 N1577 1.384 . S
N1576 C1572 1.427 1_655 S
N1576 C1573 1.384 . S
N1577 C1569 1.427 . S
N1577 C1575 1.384 . S
H1578 C1584 0.930 . S
H1579 C1588 0.930 . S
H1580 C1593 0.929 . S
H1581 C1591 0.929 . S
H1582 C1586 0.929 . S
H1583 C1592 0.929 . S
C1584 H1578 0.930 . S
C1584 C1585 1.367 . S
C1584 C1592 1.378 . S
C1585 C1584 1.367 . S
C1585 C1593 1.433 . S
C1586 H1582 0.929 . S
C1586 C1588 1.378 . S
C1586 C1590 1.350 . S
C1587 C1590 1.463 . S
C1587 C1592 1.350 . S
C1587 N1595 1.427 . S
C1588 H1579 0.930 . S
C1588 C1586 1.378 . S
C1588 C1589 1.367 . S
C1589 C1588 1.367 . S
C1589 C1591 1.433 . S
C1590 C1586 1.350 . S
C1590 C1587 1.463 . S
C1590 N1594 1.427 . S
C1591 H1581 0.929 . S
C1591 C1589 1.433 . S
C1591 N1594 1.384 . S
C1592 H1583 0.929 . S
C1592 C1584 1.378 . S
C1592 C1587 1.350 . S
C1593 H1580 0.929 . S
C1593 C1585 1.433 . S
C1593 N1595 1.384 . S
N1594 C1590 1.427 . S
N1594 C1591 1.384 . S
N1595 C1587 1.427 . S
N1595 C1593 1.384 . S
H1596 C1602 0.930 . S
H1597 C1606 0.913 1_655 S
H1598 C1611 0.929 1_655 S
H1599 C1609 0.929 . S
H1600 C1604 0.929 1_655 S
H1601 C1610 0.929 . S
C1602 H1596 0.930 . S
C1602 C1603 1.367 . S
C1602 C1610 1.378 . S
C1603 C1602 1.367 . S
C1603 C1611 1.433 . S
C1604 H1600 0.929 1_455 S
C1604 C1606 1.379 . S
C1604 C1608 1.350 . S
C1605 C1608 1.463 . S
C1605 C1610 1.350 . S
C1605 N1613 1.427 . S
C1606 H1597 0.913 1_455 S
C1606 C1604 1.379 . S
C1606 C1607 1.383 . S
C1607 C1606 1.383 . S
C1607 C1609 1.433 . S
C1608 C1604 1.350 . S
C1608 C1605 1.463 . S
C1608 N1612 1.427 . S
C1609 H1599 0.929 . S
C1609 C1607 1.433 . S
C1609 N1612 1.384 . S
C1610 H1601 0.929 . S
C1610 C1602 1.378 . S
C1610 C1605 1.350 . S
C1611 H1598 0.929 1_455 S
C1611 C1603 1.433 . S
C1611 N1613 1.384 . S
N1612 C1608 1.427 . S
N1612 C1609 1.384 . S
N1613 C1605 1.427 . S
N1613 C1611 1.384 . S
H1614 C1620 0.930 . S
H1615 C1624 0.930 1_565 S
H1616 C1629 0.929 . S
H1617 C1627 0.929 . S
H1618 C1622 0.929 1_565 S
H1619 C1628 0.929 . S
C1620 H1614 0.930 . S
C1620 C1621 1.367 . S
C1620 C1628 1.378 . S
C1621 C1620 1.367 . S
C1621 C1629 1.433 . S
C1622 H1618 0.929 1_545 S
C1622 C1624 1.378 . S
C1622 C1626 1.350 . S
C1623 C1626 1.463 . S
C1623 C1628 1.350 . S
C1623 N1631 1.427 . S
C1624 H1615 0.930 1_545 S
C1624 C1622 1.378 . S
C1624 C1625 1.367 . S
C1625 C1624 1.367 . S
C1625 C1627 1.433 . S
C1626 C1622 1.350 . S
C1626 C1623 1.463 . S
C1626 N1630 1.427 . S
C1627 H1617 0.929 . S
C1627 C1625 1.433 . S
C1627 N1630 1.384 . S
C1628 H1619 0.929 . S
C1628 C1620 1.378 . S
C1628 C1623 1.350 . S
C1629 H1616 0.929 . S
C1629 C1621 1.433 . S
C1629 N1631 1.384 . S
N1630 C1626 1.427 . S
N1630 C1627 1.384 . S
N1631 C1623 1.427 . S
N1631 C1629 1.384 . S
H1632 C1638 0.930 . S
H1633 C1642 0.930 . S
H1634 C1647 0.929 . S
H1635 C1645 0.929 . S
H1636 C1640 0.929 . S
H1637 C1646 0.929 . S
C1638 H1632 0.930 . S
C1638 C1639 1.367 . S
C1638 C1646 1.378 . S
C1639 C1638 1.367 . S
C1639 C1647 1.433 . S
C1640 H1636 0.929 . S
C1640 C1642 1.378 . S
C1640 C1644 1.350 . S
C1641 C1644 1.463 . S
C1641 C1646 1.350 . S
C1641 N1649 1.427 . S
C1642 H1633 0.930 . S
C1642 C1640 1.378 . S
C1642 C1643 1.367 . S
C1643 C1642 1.367 . S
C1643 C1645 1.433 . S
C1644 C1640 1.350 . S
C1644 C1641 1.463 . S
C1644 N1648 1.427 . S
C1645 H1635 0.929 . S
C1645 C1643 1.433 . S
C1645 N1648 1.384 . S
C1646 H1637 0.929 . S
C1646 C1638 1.378 . S
C1646 C1641 1.350 . S
C1647 H1634 0.929 . S
C1647 C1639 1.433 . S
C1647 N1649 1.384 . S
N1648 C1644 1.427 . S
N1648 C1645 1.384 . S
N1649 C1641 1.427 . S
N1649 C1647 1.384 . S
H1650 C1656 0.930 . S
H1651 C1660 0.930 . S
H1652 C1665 0.929 . S
H1653 C1663 0.929 . S
H1654 C1658 0.929 . S
H1655 C1664 0.929 . S
C1656 H1650 0.930 . S
C1656 C1657 1.367 . S
C1656 C1664 1.378 . S
C1657 C1656 1.367 . S
C1657 C1665 1.433 . S
C1658 H1654 0.929 . S
C1658 C1660 1.378 . S
C1658 C1662 1.350 . S
C1659 C1662 1.463 . S
C1659 C1664 1.350 . S
C1659 N1667 1.427 . S
C1660 H1651 0.930 . S
C1660 C1658 1.378 . S
C1660 C1661 1.367 . S
C1661 C1660 1.367 . S
C1661 C1663 1.433 . S
C1662 C1658 1.350 . S
C1662 C1659 1.463 . S
C1662 N1666 1.427 . S
C1663 H1653 0.929 . S
C1663 C1661 1.433 . S
C1663 N1666 1.384 . S
C1664 H1655 0.929 . S
C1664 C1656 1.378 . S
C1664 C1659 1.350 . S
C1665 H1652 0.929 . S
C1665 C1657 1.433 . S
C1665 N1667 1.384 . S
N1666 C1662 1.427 . S
N1666 C1663 1.384 . S
N1667 C1659 1.427 . S
N1667 C1665 1.384 . S
H1668 C1674 0.930 . S
H1669 C1678 0.930 . S
H1670 C1683 0.929 . S
H1671 C1681 0.929 . S
H1672 C1676 0.929 . S
H1673 C1682 0.929 . S
C1674 H1668 0.930 . S
C1674 C1675 1.367 . S
C1674 C1682 1.378 . S
C1675 C1674 1.367 . S
C1675 C1683 1.433 . S
C1676 H1672 0.929 . S
C1676 C1678 1.378 . S
C1676 C1680 1.350 . S
C1677 C1680 1.463 . S
C1677 C1682 1.350 . S
C1677 N1685 1.427 . S
C1678 H1669 0.930 . S
C1678 C1676 1.378 . S
C1678 C1679 1.367 . S
C1679 C1678 1.367 . S
C1679 C1681 1.433 . S
C1680 C1676 1.350 . S
C1680 C1677 1.463 . S
C1680 N1684 1.427 . S
C1681 H1671 0.929 . S
C1681 C1679 1.433 . S
C1681 N1684 1.384 . S
C1682 H1673 0.929 . S
C1682 C1674 1.378 . S
C1682 C1677 1.350 . S
C1683 H1670 0.929 . S
C1683 C1675 1.433 . S
C1683 N1685 1.384 . S
N1684 C1680 1.427 . S
N1684 C1681 1.384 . S
N1685 C1677 1.427 . S
N1685 C1683 1.384 . S
H1686 C1692 0.930 . S
H1687 C1696 0.930 . S
H1688 C1701 0.929 . S
H1689 C1699 0.929 . S
H1690 C1694 0.929 . S
H1691 C1700 0.929 . S
C1692 H1686 0.930 . S
C1692 C1693 1.367 1_565 S
C1692 C1700 1.378 . S
C1693 C1692 1.367 1_545 S
C1693 C1701 1.433 . S
C1694 H1690 0.929 . S
C1694 C1696 1.378 . S
C1694 C1698 1.350 . S
C1695 C1698 1.463 . S
C1695 C1700 1.350 1_545 S
C1695 N1703 1.427 . S
C1696 H1687 0.930 . S
C1696 C1694 1.378 . S
C1696 C1697 1.367 . S
C1697 C1696 1.367 . S
C1697 C1699 1.433 1_545 S
C1698 C1694 1.350 . S
C1698 C1695 1.463 . S
C1698 N1702 1.427 1_545 S
C1699 H1689 0.929 . S
C1699 C1697 1.433 1_565 S
C1699 N1702 1.384 . S
C1700 H1691 0.929 . S
C1700 C1692 1.378 . S
C1700 C1695 1.350 1_565 S
C1701 H1688 0.929 . S
C1701 C1693 1.433 . S
C1701 N1703 1.384 . S
N1702 C1698 1.427 1_565 S
N1702 C1699 1.384 . S
N1703 C1695 1.427 . S
N1703 C1701 1.384 . S
H1704 C1710 0.930 . S
H1705 C1714 0.930 . S
H1706 C1719 0.929 . S
H1707 C1717 0.929 . S
H1708 C1712 0.929 . S
H1709 C1718 0.929 . S
C1710 H1704 0.930 . S
C1710 C1711 1.367 . S
C1710 C1718 1.378 . S
C1711 C1710 1.367 . S
C1711 C1719 1.433 . S
C1712 H1708 0.929 . S
C1712 C1714 1.378 . S
C1712 C1716 1.350 . S
C1713 C1716 1.463 . S
C1713 C1718 1.350 . S
C1713 N1721 1.427 . S
C1714 H1705 0.930 . S
C1714 C1712 1.378 . S
C1714 C1715 1.367 . S
C1715 C1714 1.367 . S
C1715 C1717 1.433 . S
C1716 C1712 1.350 . S
C1716 C1713 1.463 . S
C1716 N1720 1.427 . S
C1717 H1707 0.929 . S
C1717 C1715 1.433 . S
C1717 N1720 1.384 . S
C1718 H1709 0.929 . S
C1718 C1710 1.378 . S
C1718 C1713 1.350 . S
C1719 H1706 0.929 . S
C1719 C1711 1.433 . S
C1719 N1721 1.384 . S
N1720 C1716 1.427 . S
N1720 C1717 1.384 . S
N1721 C1713 1.427 . S
N1721 C1719 1.384 . S
H1722 C1728 0.930 . S
H1723 C1732 0.930 1_565 S
H1724 C1737 0.929 . S
H1725 C1735 0.929 . S
H1726 C1730 0.929 1_565 S
H1727 C1736 0.929 . S
C1728 H1722 0.930 . S
C1728 C1729 1.367 . S
C1728 C1736 1.378 . S
C1729 C1728 1.367 . S
C1729 C1737 1.433 . S
C1730 H1726 0.929 1_545 S
C1730 C1732 1.378 . S
C1730 C1734 1.350 . S
C1731 C1734 1.463 . S
C1731 C1736 1.350 . S
C1731 N1739 1.427 . S
C1732 H1723 0.930 1_545 S
C1732 C1730 1.378 . S
C1732 C1733 1.367 . S
C1733 C1732 1.367 . S
C1733 C1735 1.433 . S
C1734 C1730 1.350 . S
C1734 C1731 1.463 . S
C1734 N1738 1.427 . S
C1735 H1725 0.929 . S
C1735 C1733 1.433 . S
C1735 N1738 1.384 . S
C1736 H1727 0.929 . S
C1736 C1728 1.378 . S
C1736 C1731 1.350 . S
C1737 H1724 0.929 . S
C1737 C1729 1.433 . S
C1737 N1739 1.384 . S
N1738 C1734 1.427 . S
N1738 C1735 1.384 . S
N1739 C1731 1.427 . S
N1739 C1737 1.384 . S
H1740 C1746 0.930 . S
H1741 C1750 0.930 . S
H1742 C1755 0.929 . S
H1743 C1753 0.929 . S
H1744 C1748 0.929 . S
H1745 C1754 0.929 . S
C1746 H1740 0.930 . S
C1746 C1747 1.367 . S
C1746 C1754 1.378 . S
C1747 C1746 1.367 . S
C1747 C1755 1.433 . S
C1748 H1744 0.929 . S
C1748 C1750 1.378 . S
C1748 C1752 1.350 . S
C1749 C1752 1.463 . S
C1749 C1754 1.350 . S
C1749 N1757 1.427 . S
C1750 H1741 0.930 . S
C1750 C1748 1.378 . S
C1750 C1751 1.367 . S
C1751 C1750 1.367 . S
C1751 C1753 1.433 . S
C1752 C1748 1.350 . S
C1752 C1749 1.463 . S
C1752 N1756 1.427 . S
C1753 H1743 0.929 . S
C1753 C1751 1.433 . S
C1753 N1756 1.384 . S
C1754 H1745 0.929 . S
C1754 C1746 1.378 . S
C1754 C1749 1.350 . S
C1755 H1742 0.929 . S
C1755 C1747 1.433 . S
C1755 N1757 1.384 . S
N1756 C1752 1.427 . S
N1756 C1753 1.384 . S
N1757 C1749 1.427 . S
N1757 C1755 1.384 . S
H1758 C1764 0.930 . S
H1759 C1768 0.930 . S
H1760 C1773 0.929 . S
H1761 C1771 0.929 . S
H1762 C1766 0.929 . S
H1763 C1772 0.939 . S
C1764 H1758 0.930 . S
C1764 C1765 1.367 1_565 S
C1764 C1772 1.381 . S
C1765 C1764 1.367 1_545 S
C1765 C1773 1.433 . S
C1766 H1762 0.929 . S
C1766 C1768 1.378 . S
C1766 C1770 1.350 . S
C1767 C1770 1.463 . S
C1767 C1772 1.337 1_545 S
C1767 N1775 1.427 . S
C1768 H1759 0.930 . S
C1768 C1766 1.378 . S
C1768 C1769 1.367 . S
C1769 C1768 1.367 . S
C1769 C1771 1.433 . S
C1770 C1766 1.350 . S
C1770 C1767 1.463 . S
C1770 N1774 1.427 . S
C1771 H1761 0.929 . S
C1771 C1769 1.433 . S
C1771 N1774 1.384 . S
C1772 H1763 0.939 . S
C1772 C1764 1.381 . S
C1772 C1767 1.337 1_565 S
C1773 H1760 0.929 . S
C1773 C1765 1.433 . S
C1773 N1775 1.384 . S
N1774 C1770 1.427 . S
N1774 C1771 1.384 . S
N1775 C1767 1.427 . S
N1775 C1773 1.384 . S
H1776 C1782 0.930 . S
H1777 C1786 0.929 1_655 S
H1778 C1791 0.929 . S
H1779 C1789 0.929 . S
H1780 C1784 0.929 . S
H1781 C1790 0.929 . S
C1782 H1776 0.930 . S
C1782 C1783 1.367 . S
C1782 C1790 1.378 . S
C1783 C1782 1.367 . S
C1783 C1791 1.433 1_455 S
C1784 H1780 0.929 . S
C1784 C1786 1.377 1_655 S
C1784 C1788 1.350 1_655 S
C1785 C1788 1.463 . S
C1785 C1790 1.350 . S
C1785 N1793 1.427 1_455 S
C1786 H1777 0.929 1_455 S
C1786 C1784 1.377 1_455 S
C1786 C1787 1.369 . S
C1787 C1786 1.369 . S
C1787 C1789 1.433 . S
C1788 C1784 1.350 1_455 S
C1788 C1785 1.463 . S
C1788 N1792 1.427 . S
C1789 H1779 0.929 . S
C1789 C1787 1.433 . S
C1789 N1792 1.384 . S
C1790 H1781 0.929 . S
C1790 C1782 1.378 . S
C1790 C1785 1.350 . S
C1791 H1778 0.929 . S
C1791 C1783 1.433 1_655 S
C1791 N1793 1.384 . S
N1792 C1788 1.427 . S
N1792 C1789 1.384 . S
N1793 C1785 1.427 1_655 S
N1793 C1791 1.384 . S
H1794 C1800 0.930 . S
H1795 C1804 0.930 . S
H1796 C1809 0.929 . S
H1797 C1807 0.929 . S
H1798 C1802 0.929 . S
H1799 C1808 0.929 . S
C1800 H1794 0.930 . S
C1800 C1801 1.367 . S
C1800 C1808 1.378 . S
C1801 C1800 1.367 . S
C1801 C1809 1.433 1_545 S
C1802 H1798 0.929 . S
C1802 C1804 1.378 . S
C1802 C1806 1.350 1_565 S
C1803 C1806 1.463 . S
C1803 C1808 1.350 . S
C1803 N1811 1.427 1_545 S
C1804 H1795 0.930 . S
C1804 C1802 1.378 . S
C1804 C1805 1.367 1_565 S
C1805 C1804 1.367 1_545 S
C1805 C1807 1.433 . S
C1806 C1802 1.350 1_545 S
C1806 C1803 1.463 . S
C1806 N1810 1.427 . S
C1807 H1797 0.929 . S
C1807 C1805 1.433 . S
C1807 N1810 1.384 . S
C1808 H1799 0.929 . S
C1808 C1800 1.378 . S
C1808 C1803 1.350 . S
C1809 H1796 0.929 . S
C1809 C1801 1.433 1_565 S
C1809 N1811 1.384 . S
N1810 C1806 1.427 . S
N1810 C1807 1.384 . S
N1811 C1803 1.427 1_565 S
N1811 C1809 1.384 . S
H1812 C1818 0.930 . S
H1813 C1822 0.970 . S
H1814 C1827 0.929 1_655 S
H1815 C1825 0.929 . S
H1816 C1820 0.928 . S
H1817 C1826 0.929 . S
C1818 H1812 0.930 . S
C1818 C1819 1.367 . S
C1818 C1826 1.378 . S
C1819 C1818 1.367 . S
C1819 C1827 1.433 . S
C1820 H1816 0.928 . S
C1820 C1822 1.377 . S
C1820 C1824 1.351 1_655 S
C1821 C1824 1.463 . S
C1821 C1826 1.350 . S
C1821 N1829 1.427 . S
C1822 H1813 0.970 . S
C1822 C1820 1.377 . S
C1822 C1823 1.329 1_655 S
C1823 C1822 1.329 1_455 S
C1823 C1825 1.433 . S
C1824 C1820 1.351 1_455 S
C1824 C1821 1.463 . S
C1824 N1828 1.427 . S
C1825 H1815 0.929 . S
C1825 C1823 1.433 . S
C1825 N1828 1.384 . S
C1826 H1817 0.929 . S
C1826 C1818 1.378 . S
C1826 C1821 1.350 . S
C1827 H1814 0.929 1_455 S
C1827 C1819 1.433 . S
C1827 N1829 1.384 . S
N1828 C1824 1.427 . S
N1828 C1825 1.384 . S
N1829 C1821 1.427 . S
N1829 C1827 1.384 . S
H1830 C1836 0.968 . S
H1831 C1840 0.930 . S
H1832 C1845 0.929 . S
H1833 C1843 0.929 1_565 S
H1834 C1838 0.929 . S
H1835 C1844 0.929 1_565 S
C1836 H1830 0.968 . S
C1836 C1837 1.367 . S
C1836 C1844 1.378 . S
C1837 C1836 1.367 . S
C1837 C1845 1.433 . S
C1838 H1834 0.929 . S
C1838 C1840 1.378 . S
C1838 C1842 1.350 . S
C1839 C1842 1.463 . S
C1839 C1844 1.350 . S
C1839 N1847 1.427 . S
C1840 H1831 0.930 . S
C1840 C1838 1.378 . S
C1840 C1841 1.367 . S
C1841 C1840 1.367 . S
C1841 C1843 1.433 . S
C1842 C1838 1.350 . S
C1842 C1839 1.463 . S
C1842 N1846 1.427 . S
C1843 H1833 0.929 1_545 S
C1843 C1841 1.433 . S
C1843 N1846 1.384 . S
C1844 H1835 0.929 1_545 S
C1844 C1836 1.378 . S
C1844 C1839 1.350 . S
C1845 H1832 0.929 . S
C1845 C1837 1.433 . S
C1845 N1847 1.384 . S
N1846 C1842 1.427 . S
N1846 C1843 1.384 . S
N1847 C1839 1.427 . S
N1847 C1845 1.384 . S
H1848 C1854 0.930 . S
H1849 C1858 0.930 . S
H1850 C1863 0.929 . S
H1851 C1861 0.929 . S
H1852 C1856 0.929 . S
H1853 C1862 0.929 . S
C1854 H1848 0.930 . S
C1854 C1855 1.367 . S
C1854 C1862 1.378 . S
C1855 C1854 1.367 . S
C1855 C1863 1.433 1_545 S
C1856 H1852 0.929 . S
C1856 C1858 1.378 . S
C1856 C1860 1.350 1_565 S
C1857 C1860 1.463 . S
C1857 C1862 1.350 . S
C1857 N1865 1.427 1_545 S
C1858 H1849 0.930 . S
C1858 C1856 1.378 . S
C1858 C1859 1.367 1_565 S
C1859 C1858 1.367 1_545 S
C1859 C1861 1.433 . S
C1860 C1856 1.350 1_545 S
C1860 C1857 1.463 . S
C1860 N1864 1.427 . S
C1861 H1851 0.929 . S
C1861 C1859 1.433 . S
C1861 N1864 1.384 . S
C1862 H1853 0.929 . S
C1862 C1854 1.378 . S
C1862 C1857 1.350 . S
C1863 H1850 0.929 . S
C1863 C1855 1.433 1_565 S
C1863 N1865 1.384 . S
N1864 C1860 1.427 . S
N1864 C1861 1.384 . S
N1865 C1857 1.427 1_565 S
N1865 C1863 1.384 . S
H1866 C1872 0.930 . S
H1867 C1876 0.930 . S
H1868 C1881 0.929 . S
H1869 C1879 0.929 . S
H1870 C1874 0.929 . S
H1871 C1880 0.929 . S
C1872 H1866 0.930 . S
C1872 C1873 1.367 . S
C1872 C1880 1.378 . S
C1873 C1872 1.367 . S
C1873 C1881 1.433 . S
C1874 H1870 0.929 . S
C1874 C1876 1.378 . S
C1874 C1878 1.350 . S
C1875 C1878 1.463 . S
C1875 C1880 1.350 . S
C1875 N1883 1.427 . S
C1876 H1867 0.930 . S
C1876 C1874 1.378 . S
C1876 C1877 1.367 . S
C1877 C1876 1.367 . S
C1877 C1879 1.433 . S
C1878 C1874 1.350 . S
C1878 C1875 1.463 . S
C1878 N1882 1.427 . S
C1879 H1869 0.929 . S
C1879 C1877 1.433 . S
C1879 N1882 1.384 . S
C1880 H1871 0.929 . S
C1880 C1872 1.378 . S
C1880 C1875 1.350 . S
C1881 H1868 0.929 . S
C1881 C1873 1.433 . S
C1881 N1883 1.384 . S
N1882 C1878 1.427 . S
N1882 C1879 1.384 . S
N1883 C1875 1.427 . S
N1883 C1881 1.384 . S
H1884 C1890 0.930 . S
H1885 C1894 0.930 . S
H1886 C1899 0.929 . S
H1887 C1897 0.929 . S
H1888 C1892 0.929 . S
H1889 C1898 0.929 . S
C1890 H1884 0.930 . S
C1890 C1891 1.367 . S
C1890 C1898 1.378 . S
C1891 C1890 1.367 . S
C1891 C1899 1.433 . S
C1892 H1888 0.929 . S
C1892 C1894 1.378 . S
C1892 C1896 1.350 . S
C1893 C1896 1.463 . S
C1893 C1898 1.350 . S
C1893 N1901 1.427 . S
C1894 H1885 0.930 . S
C1894 C1892 1.378 . S
C1894 C1895 1.367 . S
C1895 C1894 1.367 . S
C1895 C1897 1.433 . S
C1896 C1892 1.350 . S
C1896 C1893 1.463 . S
C1896 N1900 1.427 . S
C1897 H1887 0.929 . S
C1897 C1895 1.433 . S
C1897 N1900 1.384 . S
C1898 H1889 0.929 . S
C1898 C1890 1.378 . S
C1898 C1893 1.350 . S
C1899 H1886 0.929 . S
C1899 C1891 1.433 . S
C1899 N1901 1.384 . S
N1900 C1896 1.427 . S
N1900 C1897 1.384 . S
N1901 C1893 1.427 . S
N1901 C1899 1.384 . S
H1902 C1908 0.930 . S
H1903 C1912 0.930 1_655 S
H1904 C1917 0.953 . S
H1905 C1915 0.929 . S
H1906 C1910 0.929 1_655 S
H1907 C1916 0.929 . S
C1908 H1902 0.930 . S
C1908 C1909 1.367 . S
C1908 C1916 1.378 . S
C1909 C1908 1.367 . S
C1909 C1917 1.433 . S
C1910 H1906 0.929 1_455 S
C1910 C1912 1.378 . S
C1910 C1914 1.350 . S
C1911 C1914 1.463 . S
C1911 C1916 1.350 . S
C1911 N1919 1.427 . S
C1912 H1903 0.930 1_455 S
C1912 C1910 1.378 . S
C1912 C1913 1.367 . S
C1913 C1912 1.367 . S
C1913 C1915 1.433 . S
C1914 C1910 1.350 . S
C1914 C1911 1.463 . S
C1914 N1918 1.427 . S
C1915 H1905 0.929 . S
C1915 C1913 1.433 . S
C1915 N1918 1.384 . S
C1916 H1907 0.929 . S
C1916 C1908 1.378 . S
C1916 C1911 1.350 . S
C1917 H1904 0.953 . S
C1917 C1909 1.433 . S
C1917 N1919 1.384 . S
N1918 C1914 1.427 . S
N1918 C1915 1.384 . S
N1919 C1911 1.427 . S
N1919 C1917 1.384 . S
H1920 C1926 0.930 . S
H1921 C1930 0.930 . S
H1922 C1935 0.929 . S
H1923 C1933 0.929 . S
H1924 C1928 0.929 . S
H1925 C1934 0.929 . S
C1926 H1920 0.930 . S
C1926 C1927 1.367 1_565 S
C1926 C1934 1.378 . S
C1927 C1926 1.367 1_545 S
C1927 C1935 1.433 . S
C1928 H1924 0.929 . S
C1928 C1930 1.378 . S
C1928 C1932 1.350 . S
C1929 C1932 1.463 . S
C1929 C1934 1.350 1_545 S
C1929 N1937 1.427 . S
C1930 H1921 0.930 . S
C1930 C1928 1.378 . S
C1930 C1931 1.367 . S
C1931 C1930 1.367 . S
C1931 C1933 1.433 1_545 S
C1932 C1928 1.350 . S
C1932 C1929 1.463 . S
C1932 N1936 1.427 1_545 S
C1933 H1923 0.929 . S
C1933 C1931 1.433 1_565 S
C1933 N1936 1.384 . S
C1934 H1925 0.929 . S
C1934 C1926 1.378 . S
C1934 C1929 1.350 1_565 S
C1935 H1922 0.929 . S
C1935 C1927 1.433 . S
C1935 N1937 1.384 . S
N1936 C1932 1.427 1_565 S
N1936 C1933 1.384 . S
N1937 C1929 1.427 . S
N1937 C1935 1.384 . S
H1938 C1944 0.930 1_655 S
H1939 C1948 0.930 . S
H1940 C1953 0.929 . S
H1941 C1951 0.929 1_655 S
H1942 C1946 0.929 . S
H1943 C1952 0.929 1_655 S
C1944 H1938 0.930 1_455 S
C1944 C1945 1.367 . S
C1944 C1952 1.378 . S
C1945 C1944 1.367 . S
C1945 C1953 1.433 . S
C1946 H1942 0.929 . S
C1946 C1948 1.378 . S
C1946 C1950 1.350 . S
C1947 C1950 1.463 . S
C1947 C1952 1.350 . S
C1947 N1955 1.427 . S
C1948 H1939 0.930 . S
C1948 C1946 1.378 . S
C1948 C1949 1.367 . S
C1949 C1948 1.367 . S
C1949 C1951 1.433 . S
C1950 C1946 1.350 . S
C1950 C1947 1.463 . S
C1950 N1954 1.427 . S
C1951 H1941 0.929 1_455 S
C1951 C1949 1.433 . S
C1951 N1954 1.384 . S
C1952 H1943 0.929 1_455 S
C1952 C1944 1.378 . S
C1952 C1947 1.350 . S
C1953 H1940 0.929 . S
C1953 C1945 1.433 . S
C1953 N1955 1.384 . S
N1954 C1950 1.427 . S
N1954 C1951 1.384 . S
N1955 C1947 1.427 . S
N1955 C1953 1.384 . S
H1956 C1962 0.930 . S
H1957 C1966 0.930 . S
H1958 C1971 0.929 . S
H1959 C1969 0.929 . S
H1960 C1964 0.929 . S
H1961 C1970 0.929 . S
C1962 H1956 0.930 . S
C1962 C1963 1.367 . S
C1962 C1970 1.378 . S
C1963 C1962 1.367 . S
C1963 C1971 1.433 . S
C1964 H1960 0.929 . S
C1964 C1966 1.378 . S
C1964 C1968 1.350 . S
C1965 C1968 1.463 . S
C1965 C1970 1.350 . S
C1965 N1973 1.427 . S
C1966 H1957 0.930 . S
C1966 C1964 1.378 . S
C1966 C1967 1.367 . S
C1967 C1966 1.367 . S
C1967 C1969 1.433 . S
C1968 C1964 1.350 . S
C1968 C1965 1.463 . S
C1968 N1972 1.427 . S
C1969 H1959 0.929 . S
C1969 C1967 1.433 . S
C1969 N1972 1.384 . S
C1970 H1961 0.929 . S
C1970 C1962 1.378 . S
C1970 C1965 1.350 . S
C1971 H1958 0.929 . S
C1971 C1963 1.433 . S
C1971 N1973 1.384 . S
N1972 C1968 1.427 . S
N1972 C1969 1.384 . S
N1973 C1965 1.427 . S
N1973 C1971 1.384 . S
H1974 C1980 0.930 . S
H1975 C1984 0.945 . S
H1976 C1989 0.929 . S
H1977 C1987 0.929 . S
H1978 C1982 0.929 1_655 S
H1979 C1988 0.929 . S
C1980 H1974 0.930 . S
C1980 C1981 1.367 . S
C1980 C1988 1.378 . S
C1981 C1980 1.367 . S
C1981 C1989 1.433 1_455 S
C1982 H1978 0.929 1_455 S
C1982 C1984 1.378 . S
C1982 C1986 1.350 . S
C1983 C1986 1.463 . S
C1983 C1988 1.350 . S
C1983 N1991 1.427 1_455 S
C1984 H1975 0.945 . S
C1984 C1982 1.378 . S
C1984 C1985 1.367 . S
C1985 C1984 1.367 . S
C1985 C1987 1.433 . S
C1986 C1982 1.350 . S
C1986 C1983 1.463 . S
C1986 N1990 1.427 . S
C1987 H1977 0.929 . S
C1987 C1985 1.433 . S
C1987 N1990 1.384 . S
C1988 H1979 0.929 . S
C1988 C1980 1.378 . S
C1988 C1983 1.350 . S
C1989 H1976 0.929 . S
C1989 C1981 1.433 1_655 S
C1989 N1991 1.384 . S
N1990 C1986 1.427 . S
N1990 C1987 1.384 . S
N1991 C1983 1.427 1_655 S
N1991 C1989 1.384 . S
H1992 C1998 0.930 . S
H1993 C2002 0.930 . S
H1994 C2007 0.929 . S
H1995 C2005 0.929 . S
H1996 C2000 0.929 . S
H1997 C2006 0.929 . S
C1998 H1992 0.930 . S
C1998 C1999 1.367 1_556 S
C1998 C2006 1.378 . S
C1999 C1998 1.367 1_554 S
C1999 C2007 1.433 . S
C2000 H1996 0.929 . S
C2000 C2002 1.378 . S
C2000 C2004 1.350 . S
C2001 C2004 1.463 . S
C2001 C2006 1.350 1_554 S
C2001 N2009 1.427 . S
C2002 H1993 0.930 . S
C2002 C2000 1.378 . S
C2002 C2003 1.367 . S
C2003 C2002 1.367 . S
C2003 C2005 1.433 1_554 S
C2004 C2000 1.350 . S
C2004 C2001 1.463 . S
C2004 N2008 1.427 1_554 S
C2005 H1995 0.929 . S
C2005 C2003 1.433 1_556 S
C2005 N2008 1.384 . S
C2006 H1997 0.929 . S
C2006 C1998 1.378 . S
C2006 C2001 1.350 1_556 S
C2007 H1994 0.929 . S
C2007 C1999 1.433 . S
C2007 N2009 1.384 . S
N2008 C2004 1.427 1_556 S
N2008 C2005 1.384 . S
N2009 C2001 1.427 . S
N2009 C2007 1.384 . S
H2010 C2016 0.939 . S
H2011 C2020 0.930 . S
H2012 C2025 0.929 . S
H2013 C2023 0.962 . S
H2014 C2018 0.929 . S
H2015 C2024 0.941 . S
C2016 H2010 0.939 . S
C2016 C2017 1.358 1_556 S
C2016 C2024 1.378 . S
C2017 C2016 1.358 1_554 S
C2017 C2025 1.433 . S
C2018 H2014 0.929 . S
C2018 C2020 1.378 . S
C2018 C2022 1.350 . S
C2019 C2022 1.463 . S
C2019 C2024 1.338 1_554 S
C2019 N2027 1.427 . S
C2020 H2011 0.930 . S
C2020 C2018 1.378 . S
C2020 C2021 1.367 . S
C2021 C2020 1.367 . S
C2021 C2023 1.401 1_554 S
C2022 C2018 1.350 . S
C2022 C2019 1.463 . S
C2022 N2026 1.407 1_554 S
C2023 H2013 0.962 . S
C2023 C2021 1.401 1_556 S
C2023 N2026 1.383 . S
C2024 H2015 0.941 . S
C2024 C2016 1.378 . S
C2024 C2019 1.338 1_556 S
C2025 H2012 0.929 . S
C2025 C2017 1.433 . S
C2025 N2027 1.384 . S
N2026 C2022 1.407 1_556 S
N2026 C2023 1.383 . S
N2027 C2019 1.427 . S
N2027 C2025 1.384 . S
H2028 C2034 0.930 . S
H2029 C2038 0.930 . S
H2030 C2043 0.929 1_556 S
H2031 C2041 0.929 . S
H2032 C2036 0.929 . S
H2033 C2042 0.929 . S
C2034 H2028 0.930 . S
C2034 C2035 1.367 . S
C2034 C2042 1.378 . S
C2035 C2034 1.367 . S
C2035 C2043 1.433 . S
C2036 H2032 0.929 . S
C2036 C2038 1.378 . S
C2036 C2040 1.350 1_556 S
C2037 C2040 1.463 . S
C2037 C2042 1.350 . S
C2037 N2045 1.427 . S
C2038 H2029 0.930 . S
C2038 C2036 1.378 . S
C2038 C2039 1.367 1_556 S
C2039 C2038 1.367 1_554 S
C2039 C2041 1.433 . S
C2040 C2036 1.350 1_554 S
C2040 C2037 1.463 . S
C2040 N2044 1.427 . S
C2041 H2031 0.929 . S
C2041 C2039 1.433 . S
C2041 N2044 1.384 . S
C2042 H2033 0.929 . S
C2042 C2034 1.378 . S
C2042 C2037 1.350 . S
C2043 H2030 0.929 1_554 S
C2043 C2035 1.433 . S
C2043 N2045 1.384 . S
N2044 C2040 1.427 . S
N2044 C2041 1.384 . S
N2045 C2037 1.427 . S
N2045 C2043 1.384 . S
H2046 C2052 0.930 . S
H2047 C2056 0.930 . S
H2048 C2061 0.929 . S
H2049 C2059 0.929 . S
H2050 C2054 0.929 . S
H2051 C2060 0.929 . S
C2052 H2046 0.930 . S
C2052 C2053 1.367 1_556 S
C2052 C2060 1.378 . S
C2053 C2052 1.367 1_554 S
C2053 C2061 1.433 . S
C2054 H2050 0.929 . S
C2054 C2056 1.378 . S
C2054 C2058 1.350 . S
C2055 C2058 1.463 . S
C2055 C2060 1.350 1_554 S
C2055 N2063 1.427 . S
C2056 H2047 0.930 . S
C2056 C2054 1.378 . S
C2056 C2057 1.367 . S
C2057 C2056 1.367 . S
C2057 C2059 1.433 1_554 S
C2058 C2054 1.350 . S
C2058 C2055 1.463 . S
C2058 N2062 1.427 1_554 S
C2059 H2049 0.929 . S
C2059 C2057 1.433 1_556 S
C2059 N2062 1.384 . S
C2060 H2051 0.929 . S
C2060 C2052 1.378 . S
C2060 C2055 1.350 1_556 S
C2061 H2048 0.929 . S
C2061 C2053 1.433 . S
C2061 N2063 1.384 . S
N2062 C2058 1.427 1_556 S
N2062 C2059 1.384 . S
N2063 C2055 1.427 . S
N2063 C2061 1.384 . S
H2064 C2070 0.930 . S
H2065 C2074 0.930 . S
H2066 C2079 0.929 . S
H2067 C2077 0.929 . S
H2068 C2072 0.929 . S
H2069 C2078 0.929 . S
C2070 H2064 0.930 . S
C2070 C2071 1.367 1_556 S
C2070 C2078 1.378 . S
C2071 C2070 1.367 1_554 S
C2071 C2079 1.433 . S
C2072 H2068 0.929 . S
C2072 C2074 1.378 . S
C2072 C2076 1.350 . S
C2073 C2076 1.463 . S
C2073 C2078 1.350 1_554 S
C2073 N2081 1.427 . S
C2074 H2065 0.930 . S
C2074 C2072 1.378 . S
C2074 C2075 1.367 . S
C2075 C2074 1.367 . S
C2075 C2077 1.433 1_554 S
C2076 C2072 1.350 . S
C2076 C2073 1.463 . S
C2076 N2080 1.427 1_554 S
C2077 H2067 0.929 . S
C2077 C2075 1.433 1_556 S
C2077 N2080 1.384 . S
C2078 H2069 0.929 . S
C2078 C2070 1.378 . S
C2078 C2073 1.350 1_556 S
C2079 H2066 0.929 . S
C2079 C2071 1.433 . S
C2079 N2081 1.384 . S
N2080 C2076 1.427 1_556 S
N2080 C2077 1.384 . S
N2081 C2073 1.427 . S
N2081 C2079 1.384 . S
H2082 C2088 0.930 . S
H2083 C2092 0.930 . S
H2084 C2097 0.929 . S
H2085 C2095 0.929 . S
H2086 C2090 0.929 . S
H2087 C2096 0.929 . S
C2088 H2082 0.930 . S
C2088 C2089 1.367 1_556 S
C2088 C2096 1.378 . S
C2089 C2088 1.367 1_554 S
C2089 C2097 1.433 . S
C2090 H2086 0.929 . S
C2090 C2092 1.378 . S
C2090 C2094 1.350 . S
C2091 C2094 1.463 . S
C2091 C2096 1.350 1_554 S
C2091 N2099 1.427 . S
C2092 H2083 0.930 . S
C2092 C2090 1.378 . S
C2092 C2093 1.367 . S
C2093 C2092 1.367 . S
C2093 C2095 1.433 1_554 S
C2094 C2090 1.350 . S
C2094 C2091 1.463 . S
C2094 N2098 1.427 1_554 S
C2095 H2085 0.929 . S
C2095 C2093 1.433 1_556 S
C2095 N2098 1.384 . S
C2096 H2087 0.929 . S
C2096 C2088 1.378 . S
C2096 C2091 1.350 1_556 S
C2097 H2084 0.929 . S
C2097 C2089 1.433 . S
C2097 N2099 1.384 . S
N2098 C2094 1.427 1_556 S
N2098 C2095 1.384 . S
N2099 C2091 1.427 . S
N2099 C2097 1.384 . S
H2100 C2106 0.930 . S
H2101 C2110 0.920 1_556 S
H2102 C2115 0.929 . S
H2103 C2113 0.929 . S
H2104 C2108 0.939 . S
H2105 C2114 0.929 . S
C2106 H2100 0.930 . S
C2106 C2107 1.367 . S
C2106 C2114 1.378 . S
C2107 C2106 1.367 . S
C2107 C2115 1.433 . S
C2108 H2104 0.939 . S
C2108 C2110 1.378 . S
C2108 C2112 1.350 . S
C2109 C2112 1.463 . S
C2109 C2114 1.350 . S
C2109 N2117 1.427 . S
C2110 H2101 0.920 1_554 S
C2110 C2108 1.378 . S
C2110 C2111 1.367 . S
C2111 C2110 1.367 . S
C2111 C2113 1.433 . S
C2112 C2108 1.350 . S
C2112 C2109 1.463 . S
C2112 N2116 1.427 . S
C2113 H2103 0.929 . S
C2113 C2111 1.433 . S
C2113 N2116 1.384 . S
C2114 H2105 0.929 . S
C2114 C2106 1.378 . S
C2114 C2109 1.350 . S
C2115 H2102 0.929 . S
C2115 C2107 1.433 . S
C2115 N2117 1.384 . S
N2116 C2112 1.427 . S
N2116 C2113 1.384 . S
N2117 C2109 1.427 . S
N2117 C2115 1.384 . S
H2118 C2124 0.930 . S
H2119 C2128 0.930 . S
H2120 C2133 0.929 . S
H2121 C2131 0.929 . S
H2122 C2126 0.929 . S
H2123 C2132 0.929 . S
C2124 H2118 0.930 . S
C2124 C2125 1.367 1_556 S
C2124 C2132 1.378 . S
C2125 C2124 1.367 1_554 S
C2125 C2133 1.433 . S
C2126 H2122 0.929 . S
C2126 C2128 1.378 . S
C2126 C2130 1.350 . S
C2127 C2130 1.463 . S
C2127 C2132 1.350 1_554 S
C2127 N2135 1.427 . S
C2128 H2119 0.930 . S
C2128 C2126 1.378 . S
C2128 C2129 1.367 . S
C2129 C2128 1.367 . S
C2129 C2131 1.433 1_554 S
C2130 C2126 1.350 . S
C2130 C2127 1.463 . S
C2130 N2134 1.427 1_554 S
C2131 H2121 0.929 . S
C2131 C2129 1.433 1_556 S
C2131 N2134 1.384 . S
C2132 H2123 0.929 . S
C2132 C2124 1.378 . S
C2132 C2127 1.350 1_556 S
C2133 H2120 0.929 . S
C2133 C2125 1.433 . S
C2133 N2135 1.384 . S
N2134 C2130 1.427 1_556 S
N2134 C2131 1.384 . S
N2135 C2127 1.427 . S
N2135 C2133 1.384 . S
H2136 C2142 0.930 . S
H2137 C2146 0.930 . S
H2138 C2151 0.929 . S
H2139 C2149 0.929 . S
H2140 C2144 0.929 . S
H2141 C2150 0.929 . S
C2142 H2136 0.930 . S
C2142 C2143 1.367 . S
C2142 C2150 1.378 . S
C2143 C2142 1.367 . S
C2143 C2151 1.433 . S
C2144 H2140 0.929 . S
C2144 C2146 1.378 . S
C2144 C2148 1.350 . S
C2145 C2148 1.463 . S
C2145 C2150 1.350 . S
C2145 N2153 1.427 . S
C2146 H2137 0.930 . S
C2146 C2144 1.378 . S
C2146 C2147 1.367 . S
C2147 C2146 1.367 . S
C2147 C2149 1.433 . S
C2148 C2144 1.350 . S
C2148 C2145 1.463 . S
C2148 N2152 1.427 . S
C2149 H2139 0.929 . S
C2149 C2147 1.433 . S
C2149 N2152 1.384 . S
C2150 H2141 0.929 . S
C2150 C2142 1.378 . S
C2150 C2145 1.350 . S
C2151 H2138 0.929 . S
C2151 C2143 1.433 . S
C2151 N2153 1.384 . S
N2152 C2148 1.427 . S
N2152 C2149 1.384 . S
N2153 C2145 1.427 . S
N2153 C2151 1.384 . S
H2154 C2160 0.930 . S
H2155 C2164 0.930 . S
H2156 C2169 0.929 . S
H2157 C2167 0.929 . S
H2158 C2162 0.929 . S
H2159 C2168 0.929 . S
C2160 H2154 0.930 . S
C2160 C2161 1.367 . S
C2160 C2168 1.378 . S
C2161 C2160 1.367 . S
C2161 C2169 1.433 . S
C2162 H2158 0.929 . S
C2162 C2164 1.378 . S
C2162 C2166 1.350 . S
C2163 C2166 1.463 . S
C2163 C2168 1.350 . S
C2163 N2171 1.427 . S
C2164 H2155 0.930 . S
C2164 C2162 1.378 . S
C2164 C2165 1.367 . S
C2165 C2164 1.367 . S
C2165 C2167 1.433 . S
C2166 C2162 1.350 . S
C2166 C2163 1.463 . S
C2166 N2170 1.427 . S
C2167 H2157 0.929 . S
C2167 C2165 1.433 . S
C2167 N2170 1.384 . S
C2168 H2159 0.929 . S
C2168 C2160 1.378 . S
C2168 C2163 1.350 . S
C2169 H2156 0.929 . S
C2169 C2161 1.433 . S
C2169 N2171 1.384 . S
N2170 C2166 1.427 . S
N2170 C2167 1.384 . S
N2171 C2163 1.427 . S
N2171 C2169 1.384 . S
H2172 C2178 0.930 . S
H2173 C2182 0.930 . S
H2174 C2187 0.929 . S
H2175 C2185 0.929 . S
H2176 C2180 0.929 . S
H2177 C2186 0.929 . S
C2178 H2172 0.930 . S
C2178 C2179 1.367 . S
C2178 C2186 1.378 . S
C2179 C2178 1.367 . S
C2179 C2187 1.433 . S
C2180 H2176 0.929 . S
C2180 C2182 1.378 . S
C2180 C2184 1.350 . S
C2181 C2184 1.463 . S
C2181 C2186 1.350 . S
C2181 N2189 1.427 . S
C2182 H2173 0.930 . S
C2182 C2180 1.378 . S
C2182 C2183 1.367 . S
C2183 C2182 1.367 . S
C2183 C2185 1.433 . S
C2184 C2180 1.350 . S
C2184 C2181 1.463 . S
C2184 N2188 1.427 . S
C2185 H2175 0.929 . S
C2185 C2183 1.433 . S
C2185 N2188 1.384 . S
C2186 H2177 0.929 . S
C2186 C2178 1.378 . S
C2186 C2181 1.350 . S
C2187 H2174 0.929 . S
C2187 C2179 1.433 . S
C2187 N2189 1.384 . S
N2188 C2184 1.427 . S
N2188 C2185 1.384 . S
N2189 C2181 1.427 . S
N2189 C2187 1.384 . S
H2190 C2196 0.930 . S
H2191 C2200 0.930 . S
H2192 C2205 0.929 . S
H2193 C2203 0.929 . S
H2194 C2198 0.929 . S
H2195 C2204 0.929 . S
C2196 H2190 0.930 . S
C2196 C2197 1.367 . S
C2196 C2204 1.378 . S
C2197 C2196 1.367 . S
C2197 C2205 1.433 . S
C2198 H2194 0.929 . S
C2198 C2200 1.378 . S
C2198 C2202 1.350 . S
C2199 C2202 1.463 . S
C2199 C2204 1.350 . S
C2199 N2207 1.427 . S
C2200 H2191 0.930 . S
C2200 C2198 1.378 . S
C2200 C2201 1.367 . S
C2201 C2200 1.367 . S
C2201 C2203 1.433 . S
C2202 C2198 1.350 . S
C2202 C2199 1.463 . S
C2202 N2206 1.427 . S
C2203 H2193 0.929 . S
C2203 C2201 1.433 . S
C2203 N2206 1.384 . S
C2204 H2195 0.929 . S
C2204 C2196 1.378 . S
C2204 C2199 1.350 . S
C2205 H2192 0.929 . S
C2205 C2197 1.433 . S
C2205 N2207 1.384 . S
N2206 C2202 1.427 . S
N2206 C2203 1.384 . S
N2207 C2199 1.427 . S
N2207 C2205 1.384 . S
H2208 C2214 0.930 . S
H2209 C2218 0.930 . S
H2210 C2223 0.929 . S
H2211 C2221 0.929 . S
H2212 C2216 0.929 . S
H2213 C2222 0.929 . S
C2214 H2208 0.930 . S
C2214 C2215 1.367 . S
C2214 C2222 1.378 . S
C2215 C2214 1.367 . S
C2215 C2223 1.433 . S
C2216 H2212 0.929 . S
C2216 C2218 1.378 . S
C2216 C2220 1.350 . S
C2217 C2220 1.463 . S
C2217 C2222 1.350 . S
C2217 N2225 1.427 . S
C2218 H2209 0.930 . S
C2218 C2216 1.378 . S
C2218 C2219 1.367 . S
C2219 C2218 1.367 . S
C2219 C2221 1.433 . S
C2220 C2216 1.350 . S
C2220 C2217 1.463 . S
C2220 N2224 1.427 . S
C2221 H2211 0.929 . S
C2221 C2219 1.433 . S
C2221 N2224 1.384 . S
C2222 H2213 0.929 . S
C2222 C2214 1.378 . S
C2222 C2217 1.350 . S
C2223 H2210 0.929 . S
C2223 C2215 1.433 . S
C2223 N2225 1.384 . S
N2224 C2220 1.427 . S
N2224 C2221 1.384 . S
N2225 C2217 1.427 . S
N2225 C2223 1.384 . S
H2226 C2232 0.930 . S
H2227 C2236 0.930 . S
H2228 C2241 0.929 . S
H2229 C2239 0.929 . S
H2230 C2234 0.929 . S
H2231 C2240 0.929 . S
C2232 H2226 0.930 . S
C2232 C2233 1.367 . S
C2232 C2240 1.378 . S
C2233 C2232 1.367 . S
C2233 C2241 1.433 . S
C2234 H2230 0.929 . S
C2234 C2236 1.378 . S
C2234 C2238 1.350 . S
C2235 C2238 1.463 . S
C2235 C2240 1.350 . S
C2235 N2243 1.427 . S
C2236 H2227 0.930 . S
C2236 C2234 1.378 . S
C2236 C2237 1.367 . S
C2237 C2236 1.367 . S
C2237 C2239 1.433 . S
C2238 C2234 1.350 . S
C2238 C2235 1.463 . S
C2238 N2242 1.427 . S
C2239 H2229 0.929 . S
C2239 C2237 1.433 . S
C2239 N2242 1.384 . S
C2240 H2231 0.929 . S
C2240 C2232 1.378 . S
C2240 C2235 1.350 . S
C2241 H2228 0.929 . S
C2241 C2233 1.433 . S
C2241 N2243 1.384 . S
N2242 C2238 1.427 . S
N2242 C2239 1.384 . S
N2243 C2235 1.427 . S
N2243 C2241 1.384 . S
H2244 C2250 0.930 . S
H2245 C2254 0.930 . S
H2246 C2259 0.929 . S
H2247 C2257 0.929 . S
H2248 C2252 0.929 . S
H2249 C2258 0.929 . S
C2250 H2244 0.930 . S
C2250 C2251 1.367 . S
C2250 C2258 1.378 . S
C2251 C2250 1.367 . S
C2251 C2259 1.433 . S
C2252 H2248 0.929 . S
C2252 C2254 1.378 . S
C2252 C2256 1.350 . S
C2253 C2256 1.463 . S
C2253 C2258 1.350 . S
C2253 N2261 1.427 . S
C2254 H2245 0.930 . S
C2254 C2252 1.378 . S
C2254 C2255 1.367 . S
C2255 C2254 1.367 . S
C2255 C2257 1.433 . S
C2256 C2252 1.350 . S
C2256 C2253 1.463 . S
C2256 N2260 1.427 . S
C2257 H2247 0.929 . S
C2257 C2255 1.433 . S
C2257 N2260 1.384 . S
C2258 H2249 0.929 . S
C2258 C2250 1.378 . S
C2258 C2253 1.350 . S
C2259 H2246 0.929 . S
C2259 C2251 1.433 . S
C2259 N2261 1.384 . S
N2260 C2256 1.427 . S
N2260 C2257 1.384 . S
N2261 C2253 1.427 . S
N2261 C2259 1.384 . S
H2262 C2268 0.930 . S
H2263 C2272 0.930 . S
H2264 C2277 0.929 . S
H2265 C2275 0.929 . S
H2266 C2270 0.929 . S
H2267 C2276 0.929 . S
C2268 H2262 0.930 . S
C2268 C2269 1.367 . S
C2268 C2276 1.378 . S
C2269 C2268 1.367 . S
C2269 C2277 1.433 . S
C2270 H2266 0.929 . S
C2270 C2272 1.378 . S
C2270 C2274 1.350 . S
C2271 C2274 1.463 . S
C2271 C2276 1.350 . S
C2271 N2279 1.427 . S
C2272 H2263 0.930 . S
C2272 C2270 1.378 . S
C2272 C2273 1.367 . S
C2273 C2272 1.367 . S
C2273 C2275 1.433 . S
C2274 C2270 1.350 . S
C2274 C2271 1.463 . S
C2274 N2278 1.427 . S
C2275 H2265 0.929 . S
C2275 C2273 1.433 . S
C2275 N2278 1.384 . S
C2276 H2267 0.929 . S
C2276 C2268 1.378 . S
C2276 C2271 1.350 . S
C2277 H2264 0.929 . S
C2277 C2269 1.433 . S
C2277 N2279 1.384 . S
N2278 C2274 1.427 . S
N2278 C2275 1.384 . S
N2279 C2271 1.427 . S
N2279 C2277 1.384 . S
H2280 C2286 0.930 . S
H2281 C2290 0.930 . S
H2282 C2295 0.929 . S
H2283 C2293 0.929 . S
H2284 C2288 0.929 . S
H2285 C2294 0.929 . S
C2286 H2280 0.930 . S
C2286 C2287 1.367 . S
C2286 C2294 1.378 . S
C2287 C2286 1.367 . S
C2287 C2295 1.433 . S
C2288 H2284 0.929 . S
C2288 C2290 1.378 . S
C2288 C2292 1.350 . S
C2289 C2292 1.463 . S
C2289 C2294 1.350 . S
C2289 N2297 1.427 . S
C2290 H2281 0.930 . S
C2290 C2288 1.378 . S
C2290 C2291 1.367 . S
C2291 C2290 1.367 . S
C2291 C2293 1.433 . S
C2292 C2288 1.350 . S
C2292 C2289 1.463 . S
C2292 N2296 1.427 . S
C2293 H2283 0.929 . S
C2293 C2291 1.433 . S
C2293 N2296 1.384 . S
C2294 H2285 0.929 . S
C2294 C2286 1.378 . S
C2294 C2289 1.350 . S
C2295 H2282 0.929 . S
C2295 C2287 1.433 . S
C2295 N2297 1.384 . S
N2296 C2292 1.427 . S
N2296 C2293 1.384 . S
N2297 C2289 1.427 . S
N2297 C2295 1.384 . S
H2298 C2304 0.930 . S
H2299 C2308 0.930 . S
H2300 C2313 0.929 . S
H2301 C2311 0.929 . S
H2302 C2306 0.929 . S
H2303 C2312 0.929 . S
C2304 H2298 0.930 . S
C2304 C2305 1.367 . S
C2304 C2312 1.378 . S
C2305 C2304 1.367 . S
C2305 C2313 1.433 . S
C2306 H2302 0.929 . S
C2306 C2308 1.378 . S
C2306 C2310 1.350 . S
C2307 C2310 1.463 . S
C2307 C2312 1.350 . S
C2307 N2315 1.427 . S
C2308 H2299 0.930 . S
C2308 C2306 1.378 . S
C2308 C2309 1.367 . S
C2309 C2308 1.367 . S
C2309 C2311 1.433 . S
C2310 C2306 1.350 . S
C2310 C2307 1.463 . S
C2310 N2314 1.427 . S
C2311 H2301 0.929 . S
C2311 C2309 1.433 . S
C2311 N2314 1.384 . S
C2312 H2303 0.929 . S
C2312 C2304 1.378 . S
C2312 C2307 1.350 . S
C2313 H2300 0.929 . S
C2313 C2305 1.433 . S
C2313 N2315 1.384 . S
N2314 C2310 1.427 . S
N2314 C2311 1.384 . S
N2315 C2307 1.427 . S
N2315 C2313 1.384 . S
H2316 C2322 0.930 . S
H2317 C2326 0.930 . S
H2318 C2331 0.929 . S
H2319 C2329 0.929 . S
H2320 C2324 0.929 . S
H2321 C2330 0.929 . S
C2322 H2316 0.930 . S
C2322 C2323 1.367 . S
C2322 C2330 1.378 . S
C2323 C2322 1.367 . S
C2323 C2331 1.433 . S
C2324 H2320 0.929 . S
C2324 C2326 1.378 . S
C2324 C2328 1.350 . S
C2325 C2328 1.463 . S
C2325 C2330 1.350 . S
C2325 N2333 1.427 . S
C2326 H2317 0.930 . S
C2326 C2324 1.378 . S
C2326 C2327 1.367 . S
C2327 C2326 1.367 . S
C2327 C2329 1.433 . S
C2328 C2324 1.350 . S
C2328 C2325 1.463 . S
C2328 N2332 1.427 . S
C2329 H2319 0.929 . S
C2329 C2327 1.433 . S
C2329 N2332 1.384 . S
C2330 H2321 0.929 . S
C2330 C2322 1.378 . S
C2330 C2325 1.350 . S
C2331 H2318 0.929 . S
C2331 C2323 1.433 . S
C2331 N2333 1.384 . S
N2332 C2328 1.427 . S
N2332 C2329 1.384 . S
N2333 C2325 1.427 . S
N2333 C2331 1.384 . S
H2334 C2340 0.930 . S
H2335 C2344 0.930 . S
H2336 C2349 0.929 . S
H2337 C2347 0.929 . S
H2338 C2342 0.929 . S
H2339 C2348 0.929 . S
C2340 H2334 0.930 . S
C2340 C2341 1.367 . S
C2340 C2348 1.378 . S
C2341 C2340 1.367 . S
C2341 C2349 1.433 . S
C2342 H2338 0.929 . S
C2342 C2344 1.378 . S
C2342 C2346 1.350 . S
C2343 C2346 1.463 . S
C2343 C2348 1.350 . S
C2343 N2351 1.427 . S
C2344 H2335 0.930 . S
C2344 C2342 1.378 . S
C2344 C2345 1.367 . S
C2345 C2344 1.367 . S
C2345 C2347 1.433 . S
C2346 C2342 1.350 . S
C2346 C2343 1.463 . S
C2346 N2350 1.427 . S
C2347 H2337 0.929 . S
C2347 C2345 1.433 . S
C2347 N2350 1.384 . S
C2348 H2339 0.929 . S
C2348 C2340 1.378 . S
C2348 C2343 1.350 . S
C2349 H2336 0.929 . S
C2349 C2341 1.433 . S
C2349 N2351 1.384 . S
N2350 C2346 1.427 . S
N2350 C2347 1.384 . S
N2351 C2343 1.427 . S
N2351 C2349 1.384 . S
H2352 C2358 0.930 . S
H2353 C2362 0.930 . S
H2354 C2367 0.929 . S
H2355 C2365 0.929 . S
H2356 C2360 0.929 . S
H2357 C2366 0.929 . S
C2358 H2352 0.930 . S
C2358 C2359 1.367 . S
C2358 C2366 1.378 . S
C2359 C2358 1.367 . S
C2359 C2367 1.433 . S
C2360 H2356 0.929 . S
C2360 C2362 1.378 . S
C2360 C2364 1.350 . S
C2361 C2364 1.463 . S
C2361 C2366 1.350 . S
C2361 N2369 1.427 . S
C2362 H2353 0.930 . S
C2362 C2360 1.378 . S
C2362 C2363 1.367 . S
C2363 C2362 1.367 . S
C2363 C2365 1.433 . S
C2364 C2360 1.350 . S
C2364 C2361 1.463 . S
C2364 N2368 1.427 . S
C2365 H2355 0.929 . S
C2365 C2363 1.433 . S
C2365 N2368 1.384 . S
C2366 H2357 0.929 . S
C2366 C2358 1.378 . S
C2366 C2361 1.350 . S
C2367 H2354 0.929 . S
C2367 C2359 1.433 . S
C2367 N2369 1.384 . S
N2368 C2364 1.427 . S
N2368 C2365 1.384 . S
N2369 C2361 1.427 . S
N2369 C2367 1.384 . S
H2370 C2376 0.930 . S
H2371 C2380 0.930 . S
H2372 C2385 0.929 . S
H2373 C2383 0.929 . S
H2374 C2378 0.929 . S
H2375 C2384 0.929 . S
C2376 H2370 0.930 . S
C2376 C2377 1.367 . S
C2376 C2384 1.378 . S
C2377 C2376 1.367 . S
C2377 C2385 1.433 . S
C2378 H2374 0.929 . S
C2378 C2380 1.378 . S
C2378 C2382 1.350 . S
C2379 C2382 1.463 . S
C2379 C2384 1.350 . S
C2379 N2387 1.427 . S
C2380 H2371 0.930 . S
C2380 C2378 1.378 . S
C2380 C2381 1.367 . S
C2381 C2380 1.367 . S
C2381 C2383 1.433 . S
C2382 C2378 1.350 . S
C2382 C2379 1.463 . S
C2382 N2386 1.427 . S
C2383 H2373 0.929 . S
C2383 C2381 1.433 . S
C2383 N2386 1.384 . S
C2384 H2375 0.929 . S
C2384 C2376 1.378 . S
C2384 C2379 1.350 . S
C2385 H2372 0.929 . S
C2385 C2377 1.433 . S
C2385 N2387 1.384 . S
N2386 C2382 1.427 . S
N2386 C2383 1.384 . S
N2387 C2379 1.427 . S
N2387 C2385 1.384 . S
H2388 C2394 0.930 . S
H2389 C2398 0.930 . S
H2390 C2403 0.929 . S
H2391 C2401 0.929 . S
H2392 C2396 0.929 . S
H2393 C2402 0.929 . S
C2394 H2388 0.930 . S
C2394 C2395 1.367 . S
C2394 C2402 1.378 . S
C2395 C2394 1.367 . S
C2395 C2403 1.433 . S
C2396 H2392 0.929 . S
C2396 C2398 1.378 . S
C2396 C2400 1.350 . S
C2397 C2400 1.463 . S
C2397 C2402 1.350 . S
C2397 N2405 1.427 . S
C2398 H2389 0.930 . S
C2398 C2396 1.378 . S
C2398 C2399 1.367 . S
C2399 C2398 1.367 . S
C2399 C2401 1.433 . S
C2400 C2396 1.350 . S
C2400 C2397 1.463 . S
C2400 N2404 1.427 . S
C2401 H2391 0.929 . S
C2401 C2399 1.433 . S
C2401 N2404 1.384 . S
C2402 H2393 0.929 . S
C2402 C2394 1.378 . S
C2402 C2397 1.350 . S
C2403 H2390 0.929 . S
C2403 C2395 1.433 . S
C2403 N2405 1.384 . S
N2404 C2400 1.427 . S
N2404 C2401 1.384 . S
N2405 C2397 1.427 . S
N2405 C2403 1.384 . S
H2406 C2412 0.930 . S
H2407 C2416 0.930 . S
H2408 C2421 0.929 . S
H2409 C2419 0.929 . S
H2410 C2414 0.929 . S
H2411 C2420 0.929 . S
C2412 H2406 0.930 . S
C2412 C2413 1.367 . S
C2412 C2420 1.378 . S
C2413 C2412 1.367 . S
C2413 C2421 1.433 . S
C2414 H2410 0.929 . S
C2414 C2416 1.378 . S
C2414 C2418 1.350 . S
C2415 C2418 1.463 . S
C2415 C2420 1.350 . S
C2415 N2423 1.427 . S
C2416 H2407 0.930 . S
C2416 C2414 1.378 . S
C2416 C2417 1.367 . S
C2417 C2416 1.367 . S
C2417 C2419 1.433 . S
C2418 C2414 1.350 . S
C2418 C2415 1.463 . S
C2418 N2422 1.427 . S
C2419 H2409 0.929 . S
C2419 C2417 1.433 . S
C2419 N2422 1.384 . S
C2420 H2411 0.929 . S
C2420 C2412 1.378 . S
C2420 C2415 1.350 . S
C2421 H2408 0.929 . S
C2421 C2413 1.433 . S
C2421 N2423 1.384 . S
N2422 C2418 1.427 . S
N2422 C2419 1.384 . S
N2423 C2415 1.427 . S
N2423 C2421 1.384 . S
H2424 C2430 0.930 . S
H2425 C2434 0.930 . S
H2426 C2439 0.929 . S
H2427 C2437 0.929 . S
H2428 C2432 0.929 . S
H2429 C2438 0.929 . S
C2430 H2424 0.930 . S
C2430 C2431 1.367 . S
C2430 C2438 1.378 . S
C2431 C2430 1.367 . S
C2431 C2439 1.433 . S
C2432 H2428 0.929 . S
C2432 C2434 1.378 . S
C2432 C2436 1.350 . S
C2433 C2436 1.463 . S
C2433 C2438 1.350 . S
C2433 N2441 1.427 . S
C2434 H2425 0.930 . S
C2434 C2432 1.378 . S
C2434 C2435 1.367 . S
C2435 C2434 1.367 . S
C2435 C2437 1.433 . S
C2436 C2432 1.350 . S
C2436 C2433 1.463 . S
C2436 N2440 1.427 . S
C2437 H2427 0.929 . S
C2437 C2435 1.433 . S
C2437 N2440 1.384 . S
C2438 H2429 0.929 . S
C2438 C2430 1.378 . S
C2438 C2433 1.350 . S
C2439 H2426 0.929 . S
C2439 C2431 1.433 . S
C2439 N2441 1.384 . S
N2440 C2436 1.427 . S
N2440 C2437 1.384 . S
N2441 C2433 1.427 . S
N2441 C2439 1.384 . S
H2442 C2448 0.930 . S
H2443 C2452 0.930 . S
H2444 C2457 0.929 . S
H2445 C2455 0.929 . S
H2446 C2450 0.929 . S
H2447 C2456 0.929 . S
C2448 H2442 0.930 . S
C2448 C2449 1.367 . S
C2448 C2456 1.378 . S
C2449 C2448 1.367 . S
C2449 C2457 1.433 . S
C2450 H2446 0.929 . S
C2450 C2452 1.378 . S
C2450 C2454 1.350 . S
C2451 C2454 1.463 . S
C2451 C2456 1.350 . S
C2451 N2459 1.427 . S
C2452 H2443 0.930 . S
C2452 C2450 1.378 . S
C2452 C2453 1.367 . S
C2453 C2452 1.367 . S
C2453 C2455 1.433 . S
C2454 C2450 1.350 . S
C2454 C2451 1.463 . S
C2454 N2458 1.427 . S
C2455 H2445 0.929 . S
C2455 C2453 1.433 . S
C2455 N2458 1.384 . S
C2456 H2447 0.929 . S
C2456 C2448 1.378 . S
C2456 C2451 1.350 . S
C2457 H2444 0.929 . S
C2457 C2449 1.433 . S
C2457 N2459 1.384 . S
N2458 C2454 1.427 . S
N2458 C2455 1.384 . S
N2459 C2451 1.427 . S
N2459 C2457 1.384 . S
H2460 C2466 0.930 . S
H2461 C2470 0.930 . S
H2462 C2475 0.929 . S
H2463 C2473 0.929 . S
H2464 C2468 0.929 . S
H2465 C2474 0.929 . S
C2466 H2460 0.930 . S
C2466 C2467 1.367 . S
C2466 C2474 1.378 . S
C2467 C2466 1.367 . S
C2467 C2475 1.433 . S
C2468 H2464 0.929 . S
C2468 C2470 1.378 . S
C2468 C2472 1.350 . S
C2469 C2472 1.463 . S
C2469 C2474 1.350 . S
C2469 N2477 1.427 . S
C2470 H2461 0.930 . S
C2470 C2468 1.378 . S
C2470 C2471 1.367 . S
C2471 C2470 1.367 . S
C2471 C2473 1.433 . S
C2472 C2468 1.350 . S
C2472 C2469 1.463 . S
C2472 N2476 1.427 . S
C2473 H2463 0.929 . S
C2473 C2471 1.433 . S
C2473 N2476 1.384 . S
C2474 H2465 0.929 . S
C2474 C2466 1.378 . S
C2474 C2469 1.350 . S
C2475 H2462 0.929 . S
C2475 C2467 1.433 . S
C2475 N2477 1.384 . S
N2476 C2472 1.427 . S
N2476 C2473 1.384 . S
N2477 C2469 1.427 . S
N2477 C2475 1.384 . S
H2478 C2484 0.930 . S
H2479 C2488 0.930 . S
H2480 C2493 0.929 . S
H2481 C2491 0.929 . S
H2482 C2486 0.929 . S
H2483 C2492 0.929 . S
C2484 H2478 0.930 . S
C2484 C2485 1.367 . S
C2484 C2492 1.378 . S
C2485 C2484 1.367 . S
C2485 C2493 1.433 . S
C2486 H2482 0.929 . S
C2486 C2488 1.378 . S
C2486 C2490 1.350 . S
C2487 C2490 1.463 . S
C2487 C2492 1.350 . S
C2487 N2495 1.427 . S
C2488 H2479 0.930 . S
C2488 C2486 1.378 . S
C2488 C2489 1.367 . S
C2489 C2488 1.367 . S
C2489 C2491 1.433 . S
C2490 C2486 1.350 . S
C2490 C2487 1.463 . S
C2490 N2494 1.427 . S
C2491 H2481 0.929 . S
C2491 C2489 1.433 . S
C2491 N2494 1.384 . S
C2492 H2483 0.929 . S
C2492 C2484 1.378 . S
C2492 C2487 1.350 . S
C2493 H2480 0.929 . S
C2493 C2485 1.433 . S
C2493 N2495 1.384 . S
N2494 C2490 1.427 . S
N2494 C2491 1.384 . S
N2495 C2487 1.427 . S
N2495 C2493 1.384 . S
H2496 C2502 0.930 . S
H2497 C2506 0.930 . S
H2498 C2511 0.929 . S
H2499 C2509 0.929 . S
H2500 C2504 0.929 . S
H2501 C2510 0.929 . S
C2502 H2496 0.930 . S
C2502 C2503 1.367 . S
C2502 C2510 1.378 . S
C2503 C2502 1.367 . S
C2503 C2511 1.433 . S
C2504 H2500 0.929 . S
C2504 C2506 1.378 . S
C2504 C2508 1.350 . S
C2505 C2508 1.463 . S
C2505 C2510 1.350 . S
C2505 N2513 1.427 . S
C2506 H2497 0.930 . S
C2506 C2504 1.378 . S
C2506 C2507 1.367 . S
C2507 C2506 1.367 . S
C2507 C2509 1.433 . S
C2508 C2504 1.350 . S
C2508 C2505 1.463 . S
C2508 N2512 1.427 . S
C2509 H2499 0.929 . S
C2509 C2507 1.433 . S
C2509 N2512 1.384 . S
C2510 H2501 0.929 . S
C2510 C2502 1.378 . S
C2510 C2505 1.350 . S
C2511 H2498 0.929 . S
C2511 C2503 1.433 . S
C2511 N2513 1.384 . S
N2512 C2508 1.427 . S
N2512 C2509 1.384 . S
N2513 C2505 1.427 . S
N2513 C2511 1.384 . S
H2514 C2520 0.930 . S
H2515 C2524 0.930 . S
H2516 C2529 0.929 . S
H2517 C2527 0.929 . S
H2518 C2522 0.929 . S
H2519 C2528 0.929 . S
C2520 H2514 0.930 . S
C2520 C2521 1.367 . S
C2520 C2528 1.378 . S
C2521 C2520 1.367 . S
C2521 C2529 1.433 . S
C2522 H2518 0.929 . S
C2522 C2524 1.378 . S
C2522 C2526 1.350 . S
C2523 C2526 1.463 . S
C2523 C2528 1.350 . S
C2523 N2531 1.427 . S
C2524 H2515 0.930 . S
C2524 C2522 1.378 . S
C2524 C2525 1.367 . S
C2525 C2524 1.367 . S
C2525 C2527 1.433 . S
C2526 C2522 1.350 . S
C2526 C2523 1.463 . S
C2526 N2530 1.427 . S
C2527 H2517 0.929 . S
C2527 C2525 1.433 . S
C2527 N2530 1.384 . S
C2528 H2519 0.929 . S
C2528 C2520 1.378 . S
C2528 C2523 1.350 . S
C2529 H2516 0.929 . S
C2529 C2521 1.433 . S
C2529 N2531 1.384 . S
N2530 C2526 1.427 . S
N2530 C2527 1.384 . S
N2531 C2523 1.427 . S
N2531 C2529 1.384 . S
H2532 C2538 0.930 . S
H2533 C2542 0.930 . S
H2534 C2547 0.929 . S
H2535 C2545 0.929 . S
H2536 C2540 0.929 . S
H2537 C2546 0.929 . S
C2538 H2532 0.930 . S
C2538 C2539 1.367 . S
C2538 C2546 1.378 . S
C2539 C2538 1.367 . S
C2539 C2547 1.433 . S
C2540 H2536 0.929 . S
C2540 C2542 1.378 . S
C2540 C2544 1.350 . S
C2541 C2544 1.463 . S
C2541 C2546 1.350 . S
C2541 N2549 1.427 . S
C2542 H2533 0.930 . S
C2542 C2540 1.378 . S
C2542 C2543 1.367 . S
C2543 C2542 1.367 . S
C2543 C2545 1.433 . S
C2544 C2540 1.350 . S
C2544 C2541 1.463 . S
C2544 N2548 1.427 . S
C2545 H2535 0.929 . S
C2545 C2543 1.433 . S
C2545 N2548 1.384 . S
C2546 H2537 0.929 . S
C2546 C2538 1.378 . S
C2546 C2541 1.350 . S
C2547 H2534 0.929 . S
C2547 C2539 1.433 . S
C2547 N2549 1.384 . S
N2548 C2544 1.427 . S
N2548 C2545 1.384 . S
N2549 C2541 1.427 . S
N2549 C2547 1.384 . S
H2550 C2556 0.930 . S
H2551 C2560 0.930 . S
H2552 C2565 0.929 . S
H2553 C2563 0.929 . S
H2554 C2558 0.929 . S
H2555 C2564 0.929 . S
C2556 H2550 0.930 . S
C2556 C2557 1.367 . S
C2556 C2564 1.378 . S
C2557 C2556 1.367 . S
C2557 C2565 1.433 . S
C2558 H2554 0.929 . S
C2558 C2560 1.378 . S
C2558 C2562 1.350 . S
C2559 C2562 1.463 . S
C2559 C2564 1.350 . S
C2559 N2567 1.427 . S
C2560 H2551 0.930 . S
C2560 C2558 1.378 . S
C2560 C2561 1.367 . S
C2561 C2560 1.367 . S
C2561 C2563 1.433 . S
C2562 C2558 1.350 . S
C2562 C2559 1.463 . S
C2562 N2566 1.427 . S
C2563 H2553 0.929 . S
C2563 C2561 1.433 . S
C2563 N2566 1.384 . S
C2564 H2555 0.929 . S
C2564 C2556 1.378 . S
C2564 C2559 1.350 . S
C2565 H2552 0.929 . S
C2565 C2557 1.433 . S
C2565 N2567 1.384 . S
N2566 C2562 1.427 . S
N2566 C2563 1.384 . S
N2567 C2559 1.427 . S
N2567 C2565 1.384 . S
C1283 C1002 0.999 . S
C1279 C941 1.018 . S
C1297 C861 1.074 . S
C1301 C996 1.030 . S
C1319 C964 1.176 . S
C1315 C821 1.223 . S
C1333 C901 1.232 . S
C1337 C978 1.179 . S
C1355 C1016 1.637 . S
C1351 C661 1.726 . S
C1373 C1103 1.114 . S
C1369 C701 1.132 . S
C1387 C741 1.770 . S
C1391 C1030 1.731 . S
C1409 C1098 0.730 . S
C1405 C781 0.742 . S
C1423 C501 1.771 . S
C1427 C1054 1.715 . S
C1445 C1109 1.181 . S
C1441 C541 1.220 . S
C1459 C581 1.737 . S
C1463 C1048 1.667 . S
C1477 C621 0.794 . S
C1481 C1094 0.795 . S
C1499 C1150 0.780 . S
C1495 C461 0.791 . S
C1513 C381 1.263 . S
C1517 C1161 1.242 . S
C1531 C341 0.874 . S
C1535 C1146 0.863 . S
C1553 C1155 1.300 . S
C1549 C421 1.318 . S
C1567 C181 1.180 1_455 S
C1571 C1200 1.136 . S
C1585 C221 0.319 . S
C1589 C1259 0.317 . S
C1603 C261 1.346 . S
C1607 C1216 1.276 . S
C1621 C301 0.725 . S
C1625 C1254 0.735 . S
C1643 C1218 1.295 . S
C1639 C21 1.368 . S
C1661 C1265 0.343 . S
C1657 C61 0.211 . S
C1675 C101 1.152 . S
C1679 C1194 1.108 . S
C1697 C1250 0.685 . S
C1693 C141 0.669 . S
C1715 C986 2.019 . S
C1711 C15 2.026 . S
C1729 C42 1.764 . S
C1733 C990 1.762 . S
C1747 C82 2.085 . S
C1751 C1010 1.991 . S
C1765 C122 1.416 1_545 S
C1769 C1005 1.516 . S
C1783 C175 2.087 . S
C1787 C1008 2.061 . S
C1805 C994 1.733 . S
C1801 C202 1.716 . S
C1819 C242 2.045 . S
C1823 C992 1.979 . S
C1841 C999 1.528 . S
C1837 C295 1.386 . S
C1859 C1062 2.036 . S
C1855 C135 2.066 . S
C1873 C2 2.347 . S
C1877 C1112 2.377 . S
C1895 C1060 1.605 . S
C1891 C55 1.632 . S
C1913 C1096 2.265 . S
C1909 C95 2.195 . S
C1927 C215 1.577 . S
C1931 C1038 1.557 . S
C1949 C1114 2.367 . S
C1945 C255 2.294 . S
C1967 C1044 1.994 . S
C1963 C282 2.058 . S
C1985 C1090 2.286 . S
C1981 C162 2.280 1_455 S
C2003 C1082 2.112 . S
C1999 C322 2.030 . S
C2017 C375 1.865 . S
C2021 C1106 2.044 . S
C2039 C1042 1.731 . S
C2035 C335 1.678 . S
C2057 C1068 2.081 . S
C2053 C415 1.926 . S
C2071 C455 1.594 . S
C2075 C1046 1.647 . S
C2089 C442 1.965 . S
C2093 C1100 2.049 . S
C2111 C1057 2.083 . S
C2107 C362 1.950 . S
C2129 C1051 2.149 . S
C2125 C402 2.004 . S
C2147 C1134 2.555 . S
C2143 C495 2.424 . S
C2165 C1166 2.187 . S
C2161 C522 2.084 . S
C2179 C562 2.443 . S
C2183 C1120 2.506 . S
C2201 C1164 1.736 . S
C2197 C602 1.678 . S
C2219 C1152 2.488 . S
C2215 C655 2.354 . S
C2233 C682 2.001 . S
C2237 C1148 2.110 . S
C2251 C722 2.456 . S
C2255 C1158 2.573 . S
C2273 C1142 1.692 . S
C2269 C775 1.559 . S
C2291 C1207 1.973 . S
C2287 C615 1.918 . S
C2305 C482 2.147 . S
C2309 C1268 2.233 . S
C2327 C1202 1.763 . S
C2323 C535 1.592 . S
C2345 C1252 2.243 . S
C2341 C575 2.073 . S
C2363 C1198 1.669 . S
C2359 C695 1.498 . S
C2377 C735 2.022 . S
C2381 C1270 2.163 . S
C2399 C1213 1.891 . S
C2395 C762 1.890 . S
C2417 C1246 2.063 . S
C2413 C642 1.992 . S
C2435 C1238 2.215 . S
C2431 C815 2.129 . S
C2449 C855 2.191 . S
C2453 C1262 2.257 . S
C2471 C1204 1.831 . S
C2467 C802 1.886 . S
C2485 C895 2.277 . S
C2489 C1224 2.339 . S
C2507 C1186 1.888 . S
C2503 C935 1.914 . S
C2525 C1256 2.099 . S
C2521 C922 2.066 . S
C2543 C1172 1.869 . S
C2539 C842 1.955 . S
C2557 C882 1.899 . S
C2561 C1210 1.830 . S
