# Generated by pormake.
# Topology gar, (4,6)-cn, num edge types: 1
# Building blocks:
#     Node 0, Type 0, BuildingBlock: QUQFOY_clean_sbu_1, # of connection points: 4
#     Node 1, Type 0, BuildingBlock: QUQFOY_clean_sbu_1, # of connection points: 4
#     Node 2, Type 0, BuildingBlock: QUQFOY_clean_sbu_1, # of connection points: 4
#     Node 3, Type 0, BuildingBlock: QUQFOY_clean_sbu_1, # of connection points: 4
#     Node 4, Type 0, BuildingBlock: QUQFOY_clean_sbu_1, # of connection points: 4
#     Node 5, Type 0, BuildingBlock: QUQFOY_clean_sbu_1, # of connection points: 4
#     Node 6, Type 0, BuildingBlock: QUQFOY_clean_sbu_1, # of connection points: 4
#     Node 7, Type 0, BuildingBlock: QUQFOY_clean_sbu_1, # of connection points: 4
#     Node 8, Type 0, BuildingBlock: QUQFOY_clean_sbu_1, # of connection points: 4
#     Node 9, Type 0, BuildingBlock: QUQFOY_clean_sbu_1, # of connection points: 4
#     Node 10, Type 0, BuildingBlock: QUQFOY_clean_sbu_1, # of connection points: 4
#     Node 11, Type 0, BuildingBlock: QUQFOY_clean_sbu_1, # of connection points: 4
#     Node 12, Type 0, BuildingBlock: QUQFOY_clean_sbu_1, # of connection points: 4
#     Node 13, Type 0, BuildingBlock: QUQFOY_clean_sbu_1, # of connection points: 4
#     Node 14, Type 0, BuildingBlock: QUQFOY_clean_sbu_1, # of connection points: 4
#     Node 15, Type 0, BuildingBlock: QUQFOY_clean_sbu_1, # of connection points: 4
#     Node 16, Type 0, BuildingBlock: QUQFOY_clean_sbu_1, # of connection points: 4
#     Node 17, Type 0, BuildingBlock: QUQFOY_clean_sbu_1, # of connection points: 4
#     Node 18, Type 0, BuildingBlock: QUQFOY_clean_sbu_1, # of connection points: 4
#     Node 19, Type 0, BuildingBlock: QUQFOY_clean_sbu_1, # of connection points: 4
#     Node 20, Type 0, BuildingBlock: QUQFOY_clean_sbu_1, # of connection points: 4
#     Node 21, Type 0, BuildingBlock: QUQFOY_clean_sbu_1, # of connection points: 4
#     Node 22, Type 0, BuildingBlock: QUQFOY_clean_sbu_1, # of connection points: 4
#     Node 23, Type 0, BuildingBlock: QUQFOY_clean_sbu_1, # of connection points: 4
#     Node 24, Type 1, BuildingBlock: BETDIP_clean_sbu_0, # of connection points: 6
#     Node 25, Type 1, BuildingBlock: BETDIP_clean_sbu_0, # of connection points: 6
#     Node 26, Type 1, BuildingBlock: BETDIP_clean_sbu_0, # of connection points: 6
#     Node 27, Type 1, BuildingBlock: BETDIP_clean_sbu_0, # of connection points: 6
#     Node 28, Type 1, BuildingBlock: BETDIP_clean_sbu_0, # of connection points: 6
#     Node 29, Type 1, BuildingBlock: BETDIP_clean_sbu_0, # of connection points: 6
#     Node 30, Type 1, BuildingBlock: BETDIP_clean_sbu_0, # of connection points: 6
#     Node 31, Type 1, BuildingBlock: BETDIP_clean_sbu_0, # of connection points: 6
#     Node 32, Type 1, BuildingBlock: BETDIP_clean_sbu_0, # of connection points: 6
#     Node 33, Type 1, BuildingBlock: BETDIP_clean_sbu_0, # of connection points: 6
#     Node 34, Type 1, BuildingBlock: BETDIP_clean_sbu_0, # of connection points: 6
#     Node 35, Type 1, BuildingBlock: BETDIP_clean_sbu_0, # of connection points: 6
#     Node 36, Type 1, BuildingBlock: BETDIP_clean_sbu_0, # of connection points: 6
#     Node 37, Type 1, BuildingBlock: BETDIP_clean_sbu_0, # of connection points: 6
#     Node 38, Type 1, BuildingBlock: BETDIP_clean_sbu_0, # of connection points: 6
#     Node 39, Type 1, BuildingBlock: BETDIP_clean_sbu_0, # of connection points: 6
#     Edge 40, Type (0, 1), BuildingBlock: XUDNAN_clean_linker_2, # of connection points: 2
#     Edge 41, Type (0, 1), BuildingBlock: XUDNAN_clean_linker_2, # of connection points: 2
#     Edge 42, Type (0, 1), BuildingBlock: XUDNAN_clean_linker_2, # of connection points: 2
#     Edge 43, Type (0, 1), BuildingBlock: XUDNAN_clean_linker_2, # of connection points: 2
#     Edge 44, Type (0, 1), BuildingBlock: XUDNAN_clean_linker_2, # of connection points: 2
#     Edge 45, Type (0, 1), BuildingBlock: XUDNAN_clean_linker_2, # of connection points: 2
#     Edge 46, Type (0, 1), BuildingBlock: XUDNAN_clean_linker_2, # of connection points: 2
#     Edge 47, Type (0, 1), BuildingBlock: XUDNAN_clean_linker_2, # of connection points: 2
#     Edge 48, Type (0, 1), BuildingBlock: XUDNAN_clean_linker_2, # of connection points: 2
#     Edge 49, Type (0, 1), BuildingBlock: XUDNAN_clean_linker_2, # of connection points: 2
#     Edge 50, Type (0, 1), BuildingBlock: XUDNAN_clean_linker_2, # of connection points: 2
#     Edge 51, Type (0, 1), BuildingBlock: XUDNAN_clean_linker_2, # of connection points: 2
#     Edge 52, Type (0, 1), BuildingBlock: XUDNAN_clean_linker_2, # of connection points: 2
#     Edge 53, Type (0, 1), BuildingBlock: XUDNAN_clean_linker_2, # of connection points: 2
#     Edge 54, Type (0, 1), BuildingBlock: XUDNAN_clean_linker_2, # of connection points: 2
#     Edge 55, Type (0, 1), BuildingBlock: XUDNAN_clean_linker_2, # of connection points: 2
#     Edge 56, Type (0, 1), BuildingBlock: XUDNAN_clean_linker_2, # of connection points: 2
#     Edge 57, Type (0, 1), BuildingBlock: XUDNAN_clean_linker_2, # of connection points: 2
#     Edge 58, Type (0, 1), BuildingBlock: XUDNAN_clean_linker_2, # of connection points: 2
#     Edge 59, Type (0, 1), BuildingBlock: XUDNAN_clean_linker_2, # of connection points: 2
#     Edge 60, Type (0, 1), BuildingBlock: XUDNAN_clean_linker_2, # of connection points: 2
#     Edge 61, Type (0, 1), BuildingBlock: XUDNAN_clean_linker_2, # of connection points: 2
#     Edge 62, Type (0, 1), BuildingBlock: XUDNAN_clean_linker_2, # of connection points: 2
#     Edge 63, Type (0, 1), BuildingBlock: XUDNAN_clean_linker_2, # of connection points: 2
#     Edge 64, Type (0, 1), BuildingBlock: XUDNAN_clean_linker_2, # of connection points: 2
#     Edge 65, Type (0, 1), BuildingBlock: XUDNAN_clean_linker_2, # of connection points: 2
#     Edge 66, Type (0, 1), BuildingBlock: XUDNAN_clean_linker_2, # of connection points: 2
#     Edge 67, Type (0, 1), BuildingBlock: XUDNAN_clean_linker_2, # of connection points: 2
#     Edge 68, Type (0, 1), BuildingBlock: XUDNAN_clean_linker_2, # of connection points: 2
#     Edge 69, Type (0, 1), BuildingBlock: XUDNAN_clean_linker_2, # of connection points: 2
#     Edge 70, Type (0, 1), BuildingBlock: XUDNAN_clean_linker_2, # of connection points: 2
#     Edge 71, Type (0, 1), BuildingBlock: XUDNAN_clean_linker_2, # of connection points: 2
#     Edge 72, Type (0, 1), BuildingBlock: XUDNAN_clean_linker_2, # of connection points: 2
#     Edge 73, Type (0, 1), BuildingBlock: XUDNAN_clean_linker_2, # of connection points: 2
#     Edge 74, Type (0, 1), BuildingBlock: XUDNAN_clean_linker_2, # of connection points: 2
#     Edge 75, Type (0, 1), BuildingBlock: XUDNAN_clean_linker_2, # of connection points: 2
#     Edge 76, Type (0, 1), BuildingBlock: XUDNAN_clean_linker_2, # of connection points: 2
#     Edge 77, Type (0, 1), BuildingBlock: XUDNAN_clean_linker_2, # of connection points: 2
#     Edge 78, Type (0, 1), BuildingBlock: XUDNAN_clean_linker_2, # of connection points: 2
#     Edge 79, Type (0, 1), BuildingBlock: XUDNAN_clean_linker_2, # of connection points: 2
#     Edge 80, Type (0, 1), BuildingBlock: XUDNAN_clean_linker_2, # of connection points: 2
#     Edge 81, Type (0, 1), BuildingBlock: XUDNAN_clean_linker_2, # of connection points: 2
#     Edge 82, Type (0, 1), BuildingBlock: XUDNAN_clean_linker_2, # of connection points: 2
#     Edge 83, Type (0, 1), BuildingBlock: XUDNAN_clean_linker_2, # of connection points: 2
#     Edge 84, Type (0, 1), BuildingBlock: XUDNAN_clean_linker_2, # of connection points: 2
#     Edge 85, Type (0, 1), BuildingBlock: XUDNAN_clean_linker_2, # of connection points: 2
#     Edge 86, Type (0, 1), BuildingBlock: XUDNAN_clean_linker_2, # of connection points: 2
#     Edge 87, Type (0, 1), BuildingBlock: XUDNAN_clean_linker_2, # of connection points: 2
#     Edge 88, Type (0, 1), BuildingBlock: XUDNAN_clean_linker_2, # of connection points: 2
#     Edge 89, Type (0, 1), BuildingBlock: XUDNAN_clean_linker_2, # of connection points: 2
#     Edge 90, Type (0, 1), BuildingBlock: XUDNAN_clean_linker_2, # of connection points: 2
#     Edge 91, Type (0, 1), BuildingBlock: XUDNAN_clean_linker_2, # of connection points: 2
#     Edge 92, Type (0, 1), BuildingBlock: XUDNAN_clean_linker_2, # of connection points: 2
#     Edge 93, Type (0, 1), BuildingBlock: XUDNAN_clean_linker_2, # of connection points: 2
#     Edge 94, Type (0, 1), BuildingBlock: XUDNAN_clean_linker_2, # of connection points: 2
#     Edge 95, Type (0, 1), BuildingBlock: XUDNAN_clean_linker_2, # of connection points: 2
#     Edge 96, Type (0, 1), BuildingBlock: XUDNAN_clean_linker_2, # of connection points: 2
#     Edge 97, Type (0, 1), BuildingBlock: XUDNAN_clean_linker_2, # of connection points: 2
#     Edge 98, Type (0, 1), BuildingBlock: XUDNAN_clean_linker_2, # of connection points: 2
#     Edge 99, Type (0, 1), BuildingBlock: XUDNAN_clean_linker_2, # of connection points: 2
#     Edge 100, Type (0, 1), BuildingBlock: XUDNAN_clean_linker_2, # of connection points: 2
#     Edge 101, Type (0, 1), BuildingBlock: XUDNAN_clean_linker_2, # of connection points: 2
#     Edge 102, Type (0, 1), BuildingBlock: XUDNAN_clean_linker_2, # of connection points: 2
#     Edge 103, Type (0, 1), BuildingBlock: XUDNAN_clean_linker_2, # of connection points: 2
#     Edge 104, Type (0, 1), BuildingBlock: XUDNAN_clean_linker_2, # of connection points: 2
#     Edge 105, Type (0, 1), BuildingBlock: XUDNAN_clean_linker_2, # of connection points: 2
#     Edge 106, Type (0, 1), BuildingBlock: XUDNAN_clean_linker_2, # of connection points: 2
#     Edge 107, Type (0, 1), BuildingBlock: XUDNAN_clean_linker_2, # of connection points: 2
#     Edge 108, Type (0, 1), BuildingBlock: XUDNAN_clean_linker_2, # of connection points: 2
#     Edge 109, Type (0, 1), BuildingBlock: XUDNAN_clean_linker_2, # of connection points: 2
#     Edge 110, Type (0, 1), BuildingBlock: XUDNAN_clean_linker_2, # of connection points: 2
#     Edge 111, Type (0, 1), BuildingBlock: XUDNAN_clean_linker_2, # of connection points: 2
#     Edge 112, Type (0, 1), BuildingBlock: XUDNAN_clean_linker_2, # of connection points: 2
#     Edge 113, Type (0, 1), BuildingBlock: XUDNAN_clean_linker_2, # of connection points: 2
#     Edge 114, Type (0, 1), BuildingBlock: XUDNAN_clean_linker_2, # of connection points: 2
#     Edge 115, Type (0, 1), BuildingBlock: XUDNAN_clean_linker_2, # of connection points: 2
#     Edge 116, Type (0, 1), BuildingBlock: XUDNAN_clean_linker_2, # of connection points: 2
#     Edge 117, Type (0, 1), BuildingBlock: XUDNAN_clean_linker_2, # of connection points: 2
#     Edge 118, Type (0, 1), BuildingBlock: XUDNAN_clean_linker_2, # of connection points: 2
#     Edge 119, Type (0, 1), BuildingBlock: XUDNAN_clean_linker_2, # of connection points: 2
#     Edge 120, Type (0, 1), BuildingBlock: XUDNAN_clean_linker_2, # of connection points: 2
#     Edge 121, Type (0, 1), BuildingBlock: XUDNAN_clean_linker_2, # of connection points: 2
#     Edge 122, Type (0, 1), BuildingBlock: XUDNAN_clean_linker_2, # of connection points: 2
#     Edge 123, Type (0, 1), BuildingBlock: XUDNAN_clean_linker_2, # of connection points: 2
#     Edge 124, Type (0, 1), BuildingBlock: XUDNAN_clean_linker_2, # of connection points: 2
#     Edge 125, Type (0, 1), BuildingBlock: XUDNAN_clean_linker_2, # of connection points: 2
#     Edge 126, Type (0, 1), BuildingBlock: XUDNAN_clean_linker_2, # of connection points: 2
#     Edge 127, Type (0, 1), BuildingBlock: XUDNAN_clean_linker_2, # of connection points: 2
#     Edge 128, Type (0, 1), BuildingBlock: XUDNAN_clean_linker_2, # of connection points: 2
#     Edge 129, Type (0, 1), BuildingBlock: XUDNAN_clean_linker_2, # of connection points: 2
#     Edge 130, Type (0, 1), BuildingBlock: XUDNAN_clean_linker_2, # of connection points: 2
#     Edge 131, Type (0, 1), BuildingBlock: XUDNAN_clean_linker_2, # of connection points: 2
#     Edge 132, Type (0, 1), BuildingBlock: XUDNAN_clean_linker_2, # of connection points: 2
#     Edge 133, Type (0, 1), BuildingBlock: XUDNAN_clean_linker_2, # of connection points: 2
#     Edge 134, Type (0, 1), BuildingBlock: XUDNAN_clean_linker_2, # of connection points: 2
#     Edge 135, Type (0, 1), BuildingBlock: XUDNAN_clean_linker_2, # of connection points: 2
# Relax obj value: 0.198
# Max RMSD: 0.314
# Mean RMSD: 0.176
data_MOF--net-gar--node1-QUQFOY_clean_sbu_1--node2-BETDIP_clean_sbu_0--edge1-XUDNAN_clean_linker_2
_symmetry_space_group_name_H-M    P1
_symmetry_Int_Tables_number       1
_symmetry_cell_setting            triclinic
loop_
_symmetry_equiv_pos_as_xyz
'x, y, z'
_cell_length_a     65.16448
_cell_length_b     58.404603
_cell_length_c     55.968411
_cell_angle_alpha  97.773038
_cell_angle_beta   98.870551
_cell_angle_gamma 103.78046
loop_
_atom_site_label
_atom_site_type_symbol
_atom_site_fract_x
_atom_site_fract_y
_atom_site_fract_z
_atom_type_partial_charge
O0 O 0.04052 0.27799 0.40453 0.0
Cd1 Cd 0.03892 0.30485 0.38509 0.0
Cd2 Cd 0.02547 0.32254 0.43195 0.0
O3 O 0.03546 0.29356 0.44063 0.0
O4 O 0.04367 0.28914 0.35355 0.0
O5 O 0.06653 0.32196 0.37588 0.0
C6 C 0.06161 0.30523 0.35676 0.0
C7 C 0.03145 0.35377 0.46475 0.0
C8 C 0.03986 0.27703 0.42687 0.0
C9 C 0.99503 0.31428 0.38343 0.0
O10 O 0.99775 0.31784 0.40671 0.0
O11 O 1.0099 0.31063 0.37247 0.0
O12 O 0.01728 0.33382 0.46323 0.0
O13 O 0.04243 0.35614 0.44749 0.0
O14 O 0.04464 0.71214 0.71912 0.0
Cd15 Cd 0.05795 0.73535 0.75166 0.0
Cd16 Cd 0.07227 0.76752 0.72333 0.0
O17 O 0.05508 0.73912 0.69641 0.0
O18 O 0.03838 0.7344 0.77582 0.0
O19 O 0.04874 0.76506 0.75691 0.0
C20 C 0.03768 0.75559 0.772 0.0
C21 C 0.07079 0.80379 0.71169 0.0
C22 C 0.04546 0.71803 0.6982 0.0
C23 C 0.10491 0.75222 0.75817 0.0
O24 O 0.10095 0.7653 0.74259 0.0
O25 O 0.0897 0.73832 0.76512 0.0
O26 O 0.08169 0.79067 0.702 0.0
O27 O 0.06144 0.79699 0.72915 0.0
O28 O 0.57424 0.82147 0.8988 0.0
Cd29 Cd 0.55105 0.81908 0.91988 0.0
Cd30 Cd 0.53721 0.84758 0.88991 0.0
O31 O 0.56128 0.84124 0.87194 0.0
O32 O 0.55891 0.79707 0.94106 0.0
O33 O 0.52788 0.78814 0.91476 0.0
C34 C 0.54056 0.7822 0.93149 0.0
C35 C 0.50259 0.84032 0.86745 0.0
C36 C 0.57506 0.83035 0.87941 0.0
C37 C 0.54834 0.86725 0.94364 0.0
O38 O 0.54385 0.87203 0.92229 0.0
O39 O 0.55125 0.84699 0.94623 0.0
O40 O 0.51751 0.8591 0.86681 0.0
O41 O 0.50756 0.82502 0.88043 0.0
O42 O 0.54663 0.20906 0.22167 0.0
Cd43 Cd 0.55983 0.23432 0.25321 0.0
Cd44 Cd 0.56227 0.26577 0.22003 0.0
O45 O 0.54467 0.23516 0.19691 0.0
O46 O 0.54226 0.23328 0.27985 0.0
O47 O 0.54715 0.26171 0.25715 0.0
C48 C 0.53862 0.25293 0.27427 0.0
C49 C 0.55769 0.30078 0.20772 0.0
C50 C 0.5412 0.21371 0.20041 0.0
C51 C 0.60338 0.25948 0.25067 0.0
O52 O 0.59353 0.26837 0.23449 0.0
O53 O 0.59299 0.24471 0.26212 0.0
O54 O 0.56683 0.28699 0.19587 0.0
O55 O 0.55064 0.29456 0.2268 0.0
O56 O 0.07227 0.76074 0.16249 0.0
Cd57 Cd 0.07717 0.78926 0.19123 0.0
Cd58 Cd 0.09616 0.81488 0.15332 0.0
O59 O 0.08529 0.77882 0.13349 0.0
O60 O 0.06011 0.77342 0.21469 0.0
O61 O 0.05198 0.80317 0.19879 0.0
C62 C 0.04739 0.78714 0.21231 0.0
C63 C 0.09229 0.84998 0.13465 0.0
C64 C 0.07698 0.75959 0.14116 0.0
C65 C 0.12615 0.81057 0.20128 0.0
O66 O 0.12366 0.8179 0.18068 0.0
O67 O 0.1097 0.80054 0.20963 0.0
O68 O 0.10605 0.83815 0.13005 0.0
O69 O 0.08019 0.84193 0.14955 0.0
O70 O 0.55712 0.76258 0.45562 0.0
Cd71 Cd 0.53831 0.75993 0.48295 0.0
Cd72 Cd 0.51672 0.78468 0.43844 0.0
O73 O 0.54262 0.77643 0.42372 0.0
O74 O 0.55588 0.74708 0.50893 0.0
O75 O 0.52436 0.72541 0.48849 0.0
C76 C 0.54134 0.72695 0.50456 0.0
C77 C 0.48277 0.78539 0.41489 0.0
C78 C 0.55761 0.7685 0.43447 0.0
C79 C 0.53132 0.81123 0.49305 0.0
O80 O 0.52578 0.81046 0.47007 0.0
O81 O 0.53471 0.79288 0.50165 0.0
O82 O 0.50048 0.80115 0.41523 0.0
O83 O 0.48431 0.76796 0.42641 0.0
O84 O 0.57919 0.25499 0.67286 0.0
Cd85 Cd 0.58472 0.28467 0.70058 0.0
Cd86 Cd 0.60306 0.30895 0.66401 0.0
O87 O 0.59207 0.27325 0.64396 0.0
O88 O 0.56284 0.27613 0.72258 0.0
O89 O 0.56339 0.30502 0.70093 0.0
C90 C 0.55424 0.2925 0.71564 0.0
C91 C 0.59876 0.34337 0.64487 0.0
C92 C 0.58378 0.25396 0.65147 0.0
C93 C 0.63344 0.30527 0.71161 0.0
O94 O 0.63093 0.31209 0.69075 0.0
O95 O 0.61697 0.29565 0.72015 0.0
O96 O 0.61222 0.33126 0.63991 0.0
O97 O 0.58734 0.33612 0.66066 0.0
O98 O 0.02052 0.21988 0.96162 0.0
Cd99 Cd 0.02083 0.24383 0.93666 0.0
Cd100 Cd 1.0083 0.27237 0.97874 0.0
O101 O 1.01504 0.24237 0.9941 0.0
O102 O 0.03928 0.23583 0.9118 0.0
O103 O 0.04896 0.26917 0.93912 0.0
C104 C 0.05356 0.25572 0.92148 0.0
C105 C 0.02226 0.31338 0.99873 0.0
C106 C 0.01874 0.22293 0.98417 0.0
C107 C 0.97737 0.25773 0.92808 0.0
O108 O 0.98131 0.2674 0.95071 0.0
O109 O 0.99084 0.24791 0.91921 0.0
O110 O 1.0059 0.29956 1.0046 0.0
O111 O 0.03141 0.30365 0.9827 0.0
O112 O 0.42754 0.05861 0.2632 0.0
Cd113 Cd 0.40199 0.06147 0.28572 0.0
Cd114 Cd 0.44258 0.03687 0.32062 0.0
O115 O 0.45265 0.0456 0.28613 0.0
O116 O 0.37821 0.07805 0.26926 0.0
O117 O 0.3991 0.09643 0.30339 0.0
C118 C 0.38347 0.09695 0.28629 0.0
C119 C 0.46478 0.04146 0.36313 0.0
C120 C 0.44551 0.05218 0.26579 0.0
C121 C 0.39272 1.00783 0.30371 0.0
O122 O 0.41256 1.01049 0.31326 0.0
O123 O 0.38659 0.02516 0.29458 0.0
O124 O 0.46476 0.02501 0.34516 0.0
O125 O 0.4535 0.05599 0.35697 0.0
O126 O 0.29582 0.1799 0.58737 0.0
Cd127 Cd 0.28977 0.14911 0.56119 0.0
Cd128 Cd 0.26782 0.1805 0.53172 0.0
O129 O 0.27928 0.20242 0.56671 0.0
O130 O 0.30443 0.12889 0.58122 0.0
O131 O 0.31476 0.13844 0.54771 0.0
C132 C 0.3177 0.12821 0.56651 0.0
C133 C 0.2743 0.19531 0.49453 0.0
C134 C 0.28949 0.19887 0.58672 0.0
C135 C 0.2395 0.13486 0.5431 0.0
O136 O 0.24042 0.15264 0.53182 0.0
O137 O 0.25673 0.1308 0.55404 0.0
O138 O 0.26096 0.202 0.50695 0.0
O139 O 0.284 0.18037 0.50308 0.0
O140 O 0.14332 0.05039 0.786 0.0
Cd141 Cd 0.16861 0.0543 0.81412 0.0
Cd142 Cd 0.1419 0.07416 0.84213 0.0
O143 O 0.12149 0.06451 0.80715 0.0
O144 O 0.18655 0.03427 0.80082 0.0
O145 O 0.1714 0.02775 0.83287 0.0
C146 C 0.18313 0.02173 0.81776 0.0
C147 C 0.12748 0.06851 0.87809 0.0
C148 C 0.12565 0.05571 0.78686 0.0
C149 C 0.18574 0.10568 0.83792 0.0
O150 O 0.1689 0.10355 0.84727 0.0
O151 O 0.18868 0.08811 0.82417 0.0
O152 O 0.12498 0.08546 0.86633 0.0
O153 O 0.13757 0.05392 0.86906 0.0
O154 O 0.24883 0.85898 0.07103 0.0
Cd155 Cd 0.23808 0.8857 0.05911 0.0
Cd156 Cd 0.24695 0.86506 0.01486 0.0
O157 O 0.24823 0.83831 0.03491 0.0
O158 O 0.2222 0.89475 0.0842 0.0
O159 O 0.20772 0.88314 0.04438 0.0
C160 C 0.2059 0.89088 0.06651 0.0
C161 C 0.24833 0.85034 0.97461 0.0
C162 C 0.251 0.84059 0.05803 0.0
C163 C 0.27251 0.91626 0.04232 0.0
O164 O 0.2689 0.89829 0.02526 0.0
O165 O 0.26116 0.91584 0.05874 0.0
O166 O 0.26386 0.85283 0.9926 0.0
O167 O 0.23134 0.85632 0.97918 0.0
O168 O 0.33024 0.40476 0.13099 0.0
Cd169 Cd 0.33198 0.42751 0.10491 0.0
Cd170 Cd 0.33852 0.38292 0.07937 0.0
O171 O 0.33003 0.36942 0.11059 0.0
O172 O 0.3219 0.45545 0.11979 0.0
O173 O 0.30331 0.4308 0.08612 0.0
C174 C 0.30484 0.44908 0.10276 0.0
C175 C 0.32467 0.36406 0.03804 0.0
C176 C 0.32877 0.38245 0.1303 0.0
C177 C 0.37491 0.42973 0.08861 0.0
O178 O 0.36824 0.407 0.08301 0.0
O179 O 0.36266 0.44195 0.09648 0.0
O180 O 0.33878 0.35681 0.05171 0.0
O181 O 0.31724 0.38072 0.04838 0.0
O182 O 0.87429 0.19495 0.15899 0.0
Cd183 Cd 0.86136 0.16401 0.13344 0.0
Cd184 Cd 0.83158 0.19954 0.11012 0.0
O185 O 0.86315 0.20658 0.12595 0.0
O186 O 0.87963 0.14237 0.12887 0.0
O187 O 0.86981 0.16356 0.10088 0.0
C188 C 0.87932 0.14757 0.10706 0.0
C189 C 0.81679 0.22555 0.09109 0.0
C190 C 0.86764 0.21075 0.14922 0.0
C191 C 0.81202 0.14838 0.12019 0.0
O192 O 0.81103 0.16724 0.11148 0.0
O193 O 0.8297 0.14524 0.13063 0.0
O194 O 0.81877 0.22708 0.11464 0.0
O195 O 0.82411 0.20991 0.07878 0.0
O196 O 0.16742 0.50723 0.29045 0.0
Cd197 Cd 0.19592 0.50733 0.31729 0.0
Cd198 Cd 0.15936 0.53881 0.34637 0.0
O199 O 0.14447 0.52572 0.3067 0.0
O200 O 0.21438 0.48393 0.30161 0.0
O201 O 0.20375 0.47886 0.33542 0.0
C202 C 0.21381 0.47136 0.319 0.0
C203 C 0.14011 0.54114 0.38375 0.0
C204 C 0.15037 0.5153 0.28777 0.0
C205 C 0.20719 0.56608 0.33788 0.0
O206 O 0.18951 0.56512 0.34611 0.0
O207 O 0.21181 0.54653 0.32863 0.0
O208 O 0.14126 0.55623 0.36875 0.0
O209 O 0.14932 0.52441 0.37795 0.0
O210 O 0.82922 0.90374 0.63105 0.0
Cd211 Cd 0.83083 0.92492 0.60345 0.0
Cd212 Cd 0.83782 0.88177 0.58015 0.0
O213 O 0.82885 0.86821 0.61105 0.0
O214 O 0.81372 0.94946 0.61036 0.0
O215 O 0.80325 0.91996 0.57851 0.0
C216 C 0.79933 0.93809 0.59123 0.0
C217 C 0.82357 0.86327 0.53888 0.0
C218 C 0.82761 0.88142 0.63062 0.0
C219 C 0.87452 0.92801 0.58943 0.0
O220 O 0.86795 0.90525 0.58448 0.0
O221 O 0.8618 0.94029 0.59592 0.0
O222 O 0.83765 0.85575 0.55227 0.0
O223 O 0.81654 0.88018 0.54938 0.0
O224 O 0.95554 0.01704 0.24353 0.0
Cd225 Cd 0.93446 0.01428 0.26744 0.0
Cd226 Cd 0.96389 0.99367 0.29347 0.0
O227 O 0.97811 0.99944 0.26253 0.0
O228 O 0.91416 0.03268 0.25544 0.0
O229 O 0.93534 0.043 0.29219 0.0
C230 C 0.92074 0.04715 0.27622 0.0
C231 C 0.98525 1.00347 0.33353 0.0
C232 C 0.97228 1.00942 0.24462 0.0
C233 C 0.91775 0.96413 0.27798 0.0
O234 O 0.9365 0.96535 0.28948 0.0
O235 O 0.91422 0.98136 0.26781 0.0
O236 O 0.98585 0.98559 0.31765 0.0
O237 O 0.973 0.0167 0.32648 0.0
O238 O 0.38247 0.6842 0.63075 0.0
Cd239 Cd 0.35924 0.65779 0.60616 0.0
Cd240 Cd 0.33503 0.70286 0.60464 0.0
O241 O 0.36689 0.70439 0.60847 0.0
O242 O 0.37003 0.6295 0.60127 0.0
O243 O 0.36328 0.65022 0.57174 0.0
C244 C 0.36961 0.63239 0.57874 0.0
C245 C 0.31629 0.71884 0.57656 0.0
C246 C 0.37578 0.70264 0.62968 0.0
C247 C 0.31432 0.65609 0.61995 0.0
O248 O 0.31566 0.67817 0.61976 0.0
O249 O 0.32876 0.6463 0.61396 0.0
O250 O 0.32451 0.73109 0.59842 0.0
O251 O 0.32014 0.69837 0.57038 0.0
O252 O 0.4574 0.51383 0.74729 0.0
Cd253 Cd 0.43535 0.51129 0.77019 0.0
Cd254 Cd 0.46331 0.49067 0.79778 0.0
O255 O 0.47877 0.49583 0.7677 0.0
O256 O 0.41673 0.53218 0.76001 0.0
O257 O 0.43769 0.53908 0.79673 0.0
C258 C 0.42384 0.54528 0.78154 0.0
C259 C 0.48415 0.50006 0.83816 0.0
C260 C 0.47395 0.50582 0.74945 0.0
C261 C 0.41699 0.46145 0.78019 0.0
O262 O 0.43535 0.46278 0.79284 0.0
O263 O 0.4141 0.47856 0.76938 0.0
O264 O 0.4843 0.48181 0.82248 0.0
O265 O 0.47252 0.51378 0.8308 0.0
O266 O 0.66872 1.00729 0.78943 0.0
Cd267 Cd 0.69718 1.00916 0.81694 0.0
Cd268 Cd 0.65851 0.03693 0.84554 0.0
O269 O 0.6448 0.02392 0.80578 0.0
O270 O 0.71873 0.99023 0.80236 0.0
O271 O 0.70298 0.97718 0.8307 0.0
C272 C 0.71594 0.97392 0.816 0.0
C273 C 0.63704 0.03901 0.88077 0.0
C274 C 0.65104 0.01413 0.78683 0.0
C275 C 0.70649 0.06704 0.83979 0.0
O276 O 0.68827 0.06403 0.84715 0.0
O277 O 0.71242 0.04877 0.82968 0.0
O278 O 0.63678 0.05193 0.86374 0.0
O279 O 0.64901 0.02443 0.87824 0.0
O280 O 0.79589 0.687 0.08943 0.0
Cd281 Cd 0.79078 0.65609 0.06374 0.0
Cd282 Cd 0.76821 0.68551 0.03347 0.0
O283 O 0.77834 0.70808 0.06792 0.0
O284 O 0.80617 0.63694 0.08434 0.0
O285 O 0.81595 0.64592 0.05036 0.0
C286 C 0.81931 0.63625 0.06948 0.0
C287 C 0.77509 0.70018 0.99657 0.0
C288 C 0.78867 0.70533 0.08821 0.0
C289 C 0.74084 0.63985 0.0453 0.0
O290 O 0.74136 0.6571 0.03334 0.0
O291 O 0.7582 0.6367 0.0569 0.0
O292 O 0.76102 0.70623 1.0082 0.0
O293 O 0.78522 0.68585 1.00571 0.0
O294 O 0.92538 0.55859 0.76473 0.0
Cd295 Cd 0.90031 0.56085 0.78749 0.0
Cd296 Cd 0.94342 0.53765 0.8195 0.0
O297 O 0.95284 0.5463 0.78404 0.0
O298 O 0.87694 0.5804 0.77415 0.0
O299 O 0.89994 0.59508 0.80781 0.0
C300 C 0.88424 0.59821 0.79241 0.0
C301 C 0.96552 0.54301 0.86224 0.0
C302 C 0.94358 0.55289 0.76472 0.0
C303 C 0.89345 0.50708 0.80478 0.0
O304 O 0.9136 0.5106 0.81362 0.0
O305 O 0.8863 0.52387 0.79569 0.0
O306 O 0.9666 0.52725 0.8442 0.0
O307 O 0.95339 0.5567 0.85602 0.0
O308 O 0.75127 0.37997 0.55577 0.0
Cd309 Cd 0.73842 0.40388 0.53938 0.0
Cd310 Cd 0.74007 0.36504 0.50356 0.0
O311 O 0.72541 0.35267 0.53097 0.0
O312 O 0.73894 0.42707 0.56854 0.0
O313 O 0.70881 0.40411 0.54431 0.0
C314 C 0.71825 0.41964 0.564 0.0
C315 C 0.74369 0.33402 0.47551 0.0
C316 C 0.73811 0.35948 0.55154 0.0
C317 C 0.76934 0.41583 0.51083 0.0
O318 O 0.76739 0.39343 0.50806 0.0
O319 O 0.75499 0.4243 0.51859 0.0
O320 O 0.73018 0.34616 0.46932 0.0
O321 O 0.75431 0.33905 0.49769 0.0
O322 O 0.64394 0.55018 0.2932 0.0
Cd323 Cd 0.67034 0.55445 0.3209 0.0
Cd324 Cd 0.64256 0.57422 0.34773 0.0
O325 O 0.62171 0.56426 0.31352 0.0
O326 O 0.68833 0.53945 0.30141 0.0
O327 O 0.67811 0.52611 0.33385 0.0
C328 C 0.68827 0.5242 0.31594 0.0
C329 C 0.63028 0.56815 0.3849 0.0
C330 C 0.62608 0.55535 0.29341 0.0
C331 C 0.68534 0.60691 0.3427 0.0
O332 O 0.66735 0.60473 0.34959 0.0
O333 O 0.69019 0.5888 0.33223 0.0
O334 O 0.62625 0.58459 0.37316 0.0
O335 O 0.64079 0.55436 0.37526 0.0
Tb336 Tb 0.03549 0.02266 0.04604 0.0
Tb337 Tb 0.07234 0.05391 0.08121 0.0
C338 C 0.99762 1.00401 0.02357 0.0
C339 C 0.9796 0.01488 0.0243 0.0
C340 C 0.97846 0.02838 0.04656 0.0
C341 C 0.96312 0.04111 0.04738 0.0
C342 C 0.94859 0.04076 0.02599 0.0
C343 C 0.94973 0.02755 1.00357 0.0
C344 C 0.9652 0.01454 1.00275 0.0
C345 C 0.07051 0.03337 0.02681 0.0
C346 C 0.04238 0.08059 0.05488 0.0
C347 C 0.10998 0.07259 0.10402 0.0
C348 C 0.12744 0.06082 0.10334 0.0
C349 C 0.12887 0.04832 0.08068 0.0
C350 C 0.13853 0.02963 0.07987 0.0
C351 C 0.14761 0.02334 0.10169 0.0
C352 C 0.14844 0.03775 0.12431 0.0
C353 C 0.13822 0.05627 0.12514 0.0
C354 C 0.03707 0.04252 0.10035 0.0
C355 C 0.06603 0.99649 0.07267 0.0
O356 O 1.00554 0.99873 0.04441 0.0
O357 O 1.0127 0.01503 0.01308 0.0
O358 O 0.06427 0.04695 0.04199 0.0
O359 O 0.05653 1.01256 0.02185 0.0
O360 O 0.02886 0.05884 0.04702 0.0
O361 O 0.06154 0.08321 0.06829 0.0
O362 O 0.10229 0.07812 0.08318 0.0
O363 O 0.09468 0.06183 0.11444 0.0
O364 O 0.0437 0.0294 0.08522 0.0
O365 O 0.05088 0.06339 0.10528 0.0
O366 O 0.07979 0.01822 0.07822 0.0
O367 O 0.04611 0.99371 0.06107 0.0
H368 H 0.9898 0.02966 0.06334 0.0
H369 H 0.96291 0.05169 0.06478 0.0
H370 H 0.93873 0.02729 0.98686 0.0
H371 H 0.96623 1.00468 0.98533 0.0
H372 H 0.12053 0.05114 0.06347 0.0
H373 H 0.13707 0.01895 0.06202 0.0
H374 H 0.15587 0.03393 0.14146 0.0
H375 H 0.13719 0.06565 0.14281 0.0
Tb376 Tb 0.30645 0.77845 0.29794 0.0
Tb377 Tb 0.29152 0.79636 0.34015 0.0
C378 C 0.31689 0.76398 0.25846 0.0
C379 C 0.31824 0.76988 0.23438 0.0
C380 C 0.31227 0.78998 0.22793 0.0
C381 C 0.31105 0.79369 0.20383 0.0
C382 C 0.31581 0.77733 0.18601 0.0
C383 C 0.32243 0.7576 0.1928 0.0
C384 C 0.32367 0.75393 0.21698 0.0
C385 C 0.33286 0.78064 0.33998 0.0
C386 C 0.31539 0.83597 0.3119 0.0
C387 C 0.29182 0.81045 0.3845 0.0
C388 C 0.279 0.80269 0.40257 0.0
C389 C 0.26868 0.77839 0.40083 0.0
C390 C 0.26097 0.77027 0.42085 0.0
C391 C 0.26324 0.78642 0.44277 0.0
C392 C 0.27127 0.81112 0.44324 0.0
C393 C 0.27932 0.81917 0.42331 0.0
C394 C 0.25899 0.79181 0.30321 0.0
C395 C 0.27854 0.73872 0.32263 0.0
O396 O 0.29736 0.75775 0.26277 0.0
O397 O 0.33048 0.77858 0.277 0.0
O398 O 0.3233 0.79612 0.33404 0.0
O399 O 0.32608 0.76233 0.32249 0.0
O400 O 0.31513 0.81749 0.29483 0.0
O401 O 0.30753 0.83169 0.33186 0.0
O402 O 0.30282 0.79578 0.37688 0.0
O403 O 0.28245 0.81899 0.36667 0.0
O404 O 0.27672 0.7868 0.30115 0.0
O405 O 0.25883 0.7978 0.32621 0.0
O406 O 0.27973 0.75675 0.34061 0.0
O407 O 0.28648 0.74377 0.30298 0.0
H408 H 0.30778 0.8022 0.24126 0.0
H409 H 0.3054 0.80876 0.19892 0.0
H410 H 0.32611 0.74481 0.17933 0.0
H411 H 0.32817 0.73823 0.22192 0.0
H412 H 0.26806 0.76543 0.38476 0.0
H413 H 0.25504 0.75112 0.41977 0.0
H414 H 0.27277 0.82405 0.45965 0.0
H415 H 0.287 0.83805 0.42472 0.0
Tb416 Tb 0.57819 0.03207 0.56877 0.0
Tb417 Tb 0.53713 0.03037 0.58397 0.0
C418 C 0.6182 0.03737 0.56957 0.0
C419 C 0.63496 0.02383 0.57201 0.0
C420 C 0.63009 0.99893 0.56399 0.0
C421 C 0.64655 0.98703 0.56497 0.0
C422 C 0.66841 0.99965 0.57393 0.0
C423 C 0.67304 0.02449 0.58264 0.0
C424 C 0.65657 0.03634 0.58167 0.0
C425 C 0.54674 0.0319 0.53081 0.0
C426 C 0.5477 0.98096 0.56324 0.0
C427 C 0.49715 0.02503 0.58332 0.0
C428 C 0.47987 0.0379 0.58377 0.0
C429 C 0.47827 0.05646 0.57044 0.0
C430 C 0.46082 0.067 0.57051 0.0
C431 C 0.44456 0.05922 0.58389 0.0
C432 C 0.44625 0.04038 0.5968 0.0
C433 C 0.46359 0.03005 0.59682 0.0
C434 C 0.56864 0.02985 0.62172 0.0
C435 C 0.56756 0.08165 0.58936 0.0
O436 O 0.61011 0.04243 0.58898 0.0
O437 O 0.6034 0.03113 0.54952 0.0
O438 O 0.54992 0.04283 0.55305 0.0
O439 O 0.56236 0.02183 0.52951 0.0
O440 O 0.56764 0.9933 0.56412 0.0
O441 O 0.53302 0.99182 0.56939 0.0
O442 O 0.50559 0.02332 0.56365 0.0
O443 O 0.51155 0.02831 0.60337 0.0
O444 O 0.56528 0.01923 0.59937 0.0
O445 O 0.55323 0.04024 0.62327 0.0
O446 O 0.54788 0.06925 0.58969 0.0
O447 O 0.58195 0.07075 0.58235 0.0
H448 H 0.61358 0.98872 0.55664 0.0
H449 H 0.64208 0.96785 0.55855 0.0
H450 H 0.68951 0.03502 0.58947 0.0
H451 H 0.66083 0.05554 0.58802 0.0
H452 H 0.49044 0.06279 0.55995 0.0
H453 H 0.46027 0.08145 0.56039 0.0
H454 H 0.43396 0.03323 0.60679 0.0
H455 H 0.46411 0.01553 0.60688 0.0
Tb456 Tb 0.27716 0.28364 0.80577 0.0
Tb457 Tb 0.32493 0.28286 0.81493 0.0
C458 C 0.23742 0.27607 0.80742 0.0
C459 C 0.22146 0.27637 0.82411 0.0
C460 C 0.20852 0.25477 0.82825 0.0
C461 C 0.19163 0.25468 0.84129 0.0
C462 C 0.18705 0.27622 0.85057 0.0
C463 C 0.20017 0.29781 0.84651 0.0
C464 C 0.21702 0.29789 0.83354 0.0
C465 C 0.30425 0.32037 0.79507 0.0
C466 C 0.30661 0.30248 0.85999 0.0
C467 C 0.36467 0.28741 0.81518 0.0
C468 C 0.38182 0.2872 0.80035 0.0
C469 C 0.38257 0.29791 0.77937 0.0
C470 C 0.40036 0.29965 0.76759 0.0
C471 C 0.41805 0.29101 0.77661 0.0
C472 C 0.4168 0.27971 0.79726 0.0
C473 C 0.39898 0.27782 0.80886 0.0
C474 C 0.29715 0.24685 0.82559 0.0
C475 C 0.29538 0.26648 0.76012 0.0
O476 O 0.24783 0.25942 0.8074 0.0
O477 O 0.24963 0.29659 0.80483 0.0
O478 O 0.30793 0.30974 0.81283 0.0
O479 O 0.28424 0.31184 0.78404 0.0
O480 O 0.28723 0.29446 0.84569 0.0
O481 O 0.32449 0.30184 0.85153 0.0
O482 O 0.35559 0.30516 0.81551 0.0
O483 O 0.35092 0.26704 0.81531 0.0
O484 O 0.29437 0.25713 0.80749 0.0
O485 O 0.31659 0.25591 0.83807 0.0
O486 O 0.31498 0.27347 0.77428 0.0
O487 O 0.27769 0.26648 0.76906 0.0
H488 H 0.21118 0.2378 0.82095 0.0
H489 H 0.1822 0.23767 0.84412 0.0
H490 H 0.1971 0.31481 0.85278 0.0
H491 H 0.22623 0.31488 0.83038 0.0
H492 H 0.36962 0.30534 0.77233 0.0
H493 H 0.40025 0.30801 0.75147 0.0
H494 H 0.42998 0.27306 0.80516 0.0
H495 H 0.39894 0.26964 0.82513 0.0
Tb496 Tb 0.05036 0.06075 0.56644 0.0
Tb497 Tb 0.05978 1.00933 0.55795 0.0
C498 C 0.05532 0.10495 0.57234 0.0
C499 C 0.05933 0.12329 0.55716 0.0
C500 C 0.0726 0.12236 0.53975 0.0
C501 C 0.07387 0.1384 0.52335 0.0
C502 C 0.06162 0.15523 0.52397 0.0
C503 C 0.04856 0.15613 0.54169 0.0
C504 C 0.04757 0.1404 0.55824 0.0
C505 C 1.01666 0.02618 0.5713 0.0
C506 C 0.04239 0.03034 0.51194 0.0
C507 C 0.05785 0.96582 0.55372 0.0
C508 C 0.05341 0.94844 0.56988 0.0
C509 C 0.04072 0.95129 0.58759 0.0
C510 C 0.03936 0.93667 0.60533 0.0
C511 C 0.05138 0.91964 0.60618 0.0
C512 C 0.06421 0.91713 0.58841 0.0
C513 C 0.06496 0.93118 0.57025 0.0
C514 C 0.09342 0.04499 0.55399 0.0
C515 C 0.06546 0.03779 0.61214 0.0
O516 O 0.07104 0.09518 0.57882 0.0
O517 O 0.03652 0.08928 0.56497 0.0
O518 O 0.03465 0.02451 0.56653 0.0
O519 O 0.01751 0.04876 0.57391 0.0
O520 O 0.04459 0.05161 0.5258 0.0
O521 O 0.04559 1.01139 0.52105 0.0
O522 O 0.04178 0.97384 0.54426 0.0
O523 O 0.07566 0.98281 0.56241 0.0
O524 O 0.0749 0.04545 0.55742 0.0
O525 O 0.09344 0.02276 0.5528 0.0
O526 O 0.06172 0.01671 0.59762 0.0
O527 O 0.06443 0.05777 0.60374 0.0
H528 H 0.08153 0.10893 0.53844 0.0
H529 H 0.08419 0.13742 0.51003 0.0
H530 H 0.03848 0.16842 0.54227 0.0
H531 H 0.03694 0.14097 0.57129 0.0
H532 H 0.03251 0.96533 0.58832 0.0
H533 H 0.02924 0.93905 0.61858 0.0
H534 H 0.07437 0.90493 0.58891 0.0
H535 H 0.07544 0.92938 0.55723 0.0
Tb536 Tb 0.30477 0.7594 0.79603 0.0
Tb537 Tb 0.30088 0.80736 0.78178 0.0
C538 C 0.30509 0.71655 0.79702 0.0
C539 C 0.32101 0.70223 0.79795 0.0
C540 C 0.32935 0.69556 0.7771 0.0
C541 C 0.34361 0.68106 0.77811 0.0
C542 C 0.34981 0.67294 0.79994 0.0
C543 C 0.34154 0.67973 0.82075 0.0
C544 C 0.32725 0.69413 0.81973 0.0
C545 C 0.30016 0.79175 0.8309 0.0
C546 C 0.34721 0.79982 0.80271 0.0
C547 C 0.30041 0.85053 0.7857 0.0
C548 C 0.28531 0.86489 0.79154 0.0
C549 C 0.28364 0.87223 0.816 0.0
C550 C 0.27011 0.88673 0.82138 0.0
C551 C 0.25808 0.89441 0.80246 0.0
C552 C 0.25957 0.88682 0.77799 0.0
C553 C 0.27308 0.8723 0.77261 0.0
C554 C 0.30354 0.77538 0.74587 0.0
C555 C 0.25853 0.76636 0.77514 0.0
O556 O 0.30075 0.72487 0.77683 0.0
O557 O 0.30665 0.73227 0.81669 0.0
O558 O 0.2915 0.78742 0.80873 0.0
O559 O 0.31082 0.77609 0.83491 0.0
O560 O 0.33883 0.77649 0.80049 0.0
O561 O 0.33531 0.81471 0.79746 0.0
O562 O 0.30909 0.84144 0.80362 0.0
O563 O 0.29481 0.83553 0.76468 0.0
O564 O 0.31306 0.77877 0.76787 0.0
O565 O 0.29523 0.79305 0.74251 0.0
O566 O 0.26711 0.78978 0.77847 0.0
O567 O 0.27041 0.75119 0.7792 0.0
H568 H 0.32477 0.70137 0.75995 0.0
H569 H 0.34983 0.67628 0.76181 0.0
H570 H 0.34571 0.67345 0.83772 0.0
H571 H 0.32085 0.6987 0.83596 0.0
H572 H 0.29302 0.86712 0.8311 0.0
H573 H 0.26958 0.8925 0.84045 0.0
H574 H 0.25032 0.89214 0.76295 0.0
H575 H 0.27412 0.86709 0.75361 0.0
Tb576 Tb 0.51793 0.03575 0.05464 0.0
Tb577 Tb 0.55946 0.04326 0.08762 0.0
C578 C 0.48069 0.0169 0.03045 0.0
C579 C 0.45878 0.01513 0.03444 0.0
C580 C 0.45366 0.01406 0.05779 0.0
C581 C 0.43243 1.01127 0.06085 0.0
C582 C 0.4161 1.00953 0.04061 0.0
C583 C 0.4215 1.01169 0.0175 0.0
C584 C 0.44271 0.01443 0.01445 0.0
C585 C 0.53674 0.08086 0.07355 0.0
C586 C 0.5184 0.03906 0.11441 0.0
C587 C 0.59649 0.06158 0.1125 0.0
C588 C 0.61888 0.06341 0.11007 0.0
C589 C 0.63236 0.08603 0.11019 0.0
C590 C 0.65394 0.08863 0.10914 0.0
C591 C 0.66246 0.06865 0.10811 0.0
C592 C 0.64898 0.04595 0.10788 0.0
C593 C 0.62728 0.04331 0.10878 0.0
C594 C 0.54063 0.99804 0.06793 0.0
C595 C 0.55953 0.04222 0.02849 0.0
O596 O 0.49187 1.00534 0.04352 0.0
O597 O 0.49185 0.0384 0.02923 0.0
O598 O 0.53634 0.06299 0.08382 0.0
O599 O 0.52499 0.07362 0.05165 0.0
O600 O 0.50653 0.03423 0.09149 0.0
O601 O 0.53978 0.04425 0.11684 0.0
O602 O 0.58605 0.07316 0.0986 0.0
O603 O 0.58471 0.0404 0.1139 0.0
O604 O 0.54122 0.01612 0.05801 0.0
O605 O 0.55209 1.00513 0.08998 0.0
O606 O 0.57118 0.04625 0.05141 0.0
O607 O 0.53806 0.03671 0.02554 0.0
H608 H 0.46589 0.01472 0.0735 0.0
H609 H 0.42869 1.00937 0.0788 0.0
H610 H 0.40923 1.01067 1.00166 0.0
H611 H 0.4465 0.01553 0.99638 0.0
H612 H 0.62628 0.10179 0.11147 0.0
H613 H 0.66411 0.10642 0.10982 0.0
H614 H 0.65524 0.03032 0.10706 0.0
H615 H 0.61722 0.02562 0.10874 0.0
Tb616 Tb 0.27889 0.26993 0.29457 0.0
Tb617 Tb 0.3196 0.29884 0.32239 0.0
C618 C 0.23962 0.2487 0.28629 0.0
C619 C 0.22009 0.25696 0.28811 0.0
C620 C 0.21474 0.26264 0.31119 0.0
C621 C 0.19633 0.27035 0.31304 0.0
C622 C 0.1828 0.27261 0.2919 0.0
C623 C 0.18819 0.26712 0.26881 0.0
C624 C 0.20665 0.2593 0.26693 0.0
C625 C 0.30273 0.29308 0.26686 0.0
C626 C 0.28216 0.32675 0.31676 0.0
C627 C 0.35891 0.32059 0.33211 0.0
C628 C 0.37919 0.31361 0.33284 0.0
C629 C 0.38028 0.29328 0.317 0.0
C630 C 0.40008 0.28851 0.31562 0.0
C631 C 0.41916 0.30412 0.32988 0.0
C632 C 0.41792 0.32381 0.34658 0.0
C633 C 0.39806 0.3285 0.34804 0.0
C634 C 0.29576 0.27548 0.3503 0.0
C635 C 0.31604 0.24217 0.29843 0.0
O636 O 0.25271 0.25077 0.30716 0.0
O637 O 0.24992 0.255 0.26888 0.0
O638 O 0.30081 0.30072 0.28845 0.0
O639 O 0.2903 0.27138 0.25973 0.0
O640 O 0.26978 0.30507 0.30511 0.0
O641 O 0.30295 0.3286 0.32538 0.0
O642 O 0.34674 0.31658 0.31028 0.0
O643 O 0.34784 0.31476 0.34902 0.0
O644 O 0.29787 0.26787 0.32872 0.0
O645 O 0.30766 0.29743 0.35694 0.0
O646 O 0.32841 0.26359 0.31088 0.0
O647 O 0.29529 0.24045 0.29007 0.0
H648 H 0.22463 0.26093 0.32793 0.0
H649 H 0.19243 0.27392 0.33107 0.0
H650 H 0.17812 0.26882 0.2522 0.0
H651 H 0.21037 0.25503 0.24892 0.0
H652 H 0.36601 0.28168 0.30482 0.0
H653 H 0.40052 0.27336 0.30239 0.0
H654 H 0.43237 0.33597 0.35801 0.0
H655 H 0.39753 0.34424 0.36038 0.0
Tb656 Tb 0.55002 0.56228 0.07041 0.0
Tb657 Tb 0.56295 0.51906 0.06517 0.0
C658 C 0.54527 0.60358 0.06938 0.0
C659 C 0.5394 0.61764 0.05117 0.0
C660 C 0.53673 0.60908 0.02592 0.0
C661 C 0.53219 0.62351 0.00897 0.0
C662 C 0.53039 0.6466 0.01723 0.0
C663 C 0.53235 0.65468 0.0425 0.0
C664 C 0.53686 0.64027 0.05935 0.0
C665 C 0.52018 0.5258 0.07796 0.0
C666 C 0.54323 0.53113 0.01654 0.0
C667 C 0.57038 0.47952 0.06877 0.0
C668 C 0.56966 0.46584 0.08867 0.0
C669 C 0.55404 0.4658 0.1034 0.0
C670 C 0.55333 0.45231 0.12209 0.0
C671 C 0.56835 0.43895 0.12637 0.0
C672 C 0.5847 0.4402 0.11247 0.0
C673 C 0.58525 0.45345 0.09362 0.0
C674 C 0.59251 0.55636 0.05803 0.0
C675 C 0.56733 0.54754 0.11878 0.0
O676 O 0.56367 0.5983 0.06939 0.0
O677 O 0.52998 0.58542 0.07152 0.0
O678 O 0.53162 0.52528 0.06163 0.0
O679 O 0.52498 0.54743 0.09012 0.0
O680 O 0.5443 0.55221 0.02967 0.0
O681 O 0.54791 0.51389 0.0273 0.0
O682 O 0.55182 0.48172 0.05804 0.0
O683 O 0.58547 0.49965 0.07362 0.0
O684 O 0.58136 0.55594 0.07468 0.0
O685 O 0.58693 0.53522 0.04468 0.0
O686 O 0.5642 0.52633 0.10505 0.0
O687 O 0.56526 0.56608 0.10855 0.0
H688 H 0.53862 0.59158 0.01935 0.0
H689 H 0.53089 0.617 0.98959 0.0
H690 H 0.53077 0.67234 0.04925 0.0
H691 H 0.53874 0.64698 0.07881 0.0
H692 H 0.54213 0.47576 0.10014 0.0
H693 H 0.54051 0.45156 0.13244 0.0
H694 H 0.59676 0.43044 0.11578 0.0
H695 H 0.59769 0.45384 0.08275 0.0
Tb696 Tb 0.79852 0.25496 0.29068 0.0
Tb697 Tb 0.80195 0.30898 0.30555 0.0
C698 C 0.79595 0.21324 0.27027 0.0
C699 C 0.81017 0.19726 0.27381 0.0
C700 C 0.81735 0.18703 0.25363 0.0
C701 C 0.83171 0.17284 0.25689 0.0
C702 C 0.8391 0.16852 0.28042 0.0
C703 C 0.83175 0.17872 0.30058 0.0
C704 C 0.81755 0.19304 0.29734 0.0
C705 C 0.79661 0.26979 0.33633 0.0
C706 C 0.84332 0.28924 0.3151 0.0
C707 C 0.80475 0.35033 0.32729 0.0
C708 C 0.79084 0.3665 0.32406 0.0
C709 C 0.79313 0.38635 0.34233 0.0
C710 C 0.78041 0.40227 0.33878 0.0
C711 C 0.7653 0.39856 0.31683 0.0
C712 C 0.7626 0.37816 0.29892 0.0
C713 C 0.77521 0.36223 0.30255 0.0
C714 C 0.80273 0.29403 0.25969 0.0
C715 C 0.75748 0.2754 0.27908 0.0
O716 O 0.8038 0.23226 0.26119 0.0
O717 O 0.78616 0.21805 0.28837 0.0
O718 O 0.78885 0.27674 0.31762 0.0
O719 O 0.80504 0.25248 0.32979 0.0
O720 O 0.83298 0.26874 0.30041 0.0
O721 O 0.83373 0.3059 0.32217 0.0
O722 O 0.79639 0.33089 0.33544 0.0
O723 O 0.81445 0.346 0.30896 0.0
O724 O 0.81086 0.28704 0.27815 0.0
O725 O 0.79556 0.31228 0.26647 0.0
O726 O 0.76772 0.29628 0.29313 0.0
O727 O 0.76656 0.25769 0.27422 0.0
H728 H 0.81207 0.1903 0.23537 0.0
H729 H 0.8373 0.16559 0.24101 0.0
H730 H 0.83683 0.17549 0.31889 0.0
H731 H 0.81247 0.20089 0.31333 0.0
H732 H 0.80499 0.38974 0.35914 0.0
H733 H 0.78291 0.41789 0.35283 0.0
H734 H 0.75084 0.37464 0.28201 0.0
H735 H 0.773 0.34676 0.28838 0.0
Tb736 Tb 0.0231 0.53595 0.55527 0.0
Tb737 Tb 0.06236 0.54921 0.59431 0.0
C738 C 0.98815 0.5131 0.52788 0.0
C739 C 0.96503 0.50914 0.52793 0.0
C740 C 0.95519 0.49556 0.54396 0.0
C741 C 0.93295 0.49036 0.54224 0.0
C742 C 0.92028 0.49878 0.52461 0.0
C743 C 0.93018 0.51309 0.50924 0.0
C744 C 0.9524 0.5181 0.51078 0.0
C745 C 0.03729 0.58191 0.57372 0.0
C746 C 0.01777 0.54037 0.61418 0.0
C747 C 0.09695 0.57163 0.62288 0.0
C748 C 0.11997 0.57623 0.62327 0.0
C749 C 0.13425 0.59312 0.64238 0.0
C750 C 0.15635 0.59756 0.64347 0.0
C751 C 0.16445 0.58515 0.62541 0.0
C752 C 0.15004 0.5681 0.60628 0.0
C753 C 0.12787 0.56369 0.60518 0.0
C754 C 0.04761 0.50327 0.57641 0.0
C755 C 0.06747 0.54616 0.53554 0.0
O756 O 0.99921 0.50367 0.54365 0.0
O757 O 0.99847 0.53478 0.52603 0.0
O758 O 0.037 0.56458 0.58466 0.0
O759 O 0.02764 0.57368 0.55102 0.0
O760 O 1.00859 0.53345 0.59006 0.0
O761 O 0.03916 0.54867 0.62014 0.0
O762 O 0.08624 0.58148 0.60728 0.0
O763 O 0.08696 0.5494 0.62306 0.0
O764 O 0.04848 0.52028 0.56489 0.0
O765 O 0.05696 0.51167 0.59912 0.0
O766 O 0.07656 0.55405 0.55958 0.0
O767 O 0.04631 0.53612 0.52965 0.0
H768 H 0.96452 0.48849 0.55746 0.0
H769 H 0.92559 0.47944 0.55442 0.0
H770 H 0.92066 0.51958 0.49537 0.0
H771 H 0.95965 0.52852 0.49817 0.0
H772 H 0.12828 0.6028 0.65651 0.0
H773 H 0.16713 0.61062 0.65853 0.0
H774 H 0.15589 0.55852 0.59198 0.0
H775 H 0.11691 0.55057 0.5903 0.0
Tb776 Tb 0.77337 0.79268 0.30674 0.0
Tb777 Tb 0.82004 0.78754 0.31402 0.0
C778 C 0.73495 0.79277 0.30987 0.0
C779 C 0.71862 0.78848 0.32599 0.0
C780 C 0.7111 0.76595 0.33246 0.0
C781 C 0.69424 0.76178 0.34561 0.0
C782 C 0.68435 0.78 0.35276 0.0
C783 C 0.69206 0.80258 0.3464 0.0
C784 C 0.7089 0.80671 0.33321 0.0
C785 C 0.80254 0.8287 0.29836 0.0
C786 C 0.80199 0.80297 0.36026 0.0
C787 C 0.85965 0.79415 0.31216 0.0
C788 C 0.87657 0.78808 0.29905 0.0
C789 C 0.88095 0.79701 0.27765 0.0
C790 C 0.89895 0.79394 0.26771 0.0
C791 C 0.9132 0.782 0.27898 0.0
C792 C 0.90863 0.7731 0.30035 0.0
C793 C 0.89067 0.77605 0.31013 0.0
C794 C 0.79007 0.74968 0.31873 0.0
C795 C 0.78977 0.77423 0.25958 0.0
O796 O 0.74049 0.77434 0.29936 0.0
O797 O 0.7514 0.8117 0.31705 0.0
O798 O 0.80534 0.81663 0.31514 0.0
O799 O 0.78255 0.82199 0.28734 0.0
O800 O 0.78275 0.79347 0.3461 0.0
O801 O 0.81981 0.80561 0.35101 0.0
O802 O 0.84727 0.8064 0.30226 0.0
O803 O 0.84931 0.77842 0.32376 0.0
O804 O 0.7884 0.76421 0.30443 0.0
O805 O 0.81009 0.75467 0.32977 0.0
O806 O 0.80903 0.77735 0.27368 0.0
O807 O 0.77278 0.77744 0.26872 0.0
H808 H 0.71796 0.75136 0.32702 0.0
H809 H 0.68868 0.74401 0.3497 0.0
H810 H 0.68521 0.81719 0.35176 0.0
H811 H 0.71415 0.8242 0.3283 0.0
H812 H 0.87074 0.80683 0.26882 0.0
H813 H 0.90167 0.80093 0.25119 0.0
H814 H 0.91931 0.76436 0.31012 0.0
H815 H 0.88822 0.76954 0.32698 0.0
Tb816 Tb 0.80847 0.27452 0.79629 0.0
Tb817 Tb 0.80425 0.29701 0.84902 0.0
C818 C 0.80112 0.25825 0.75135 0.0
C819 C 0.79138 0.26544 0.72948 0.0
C820 C 0.78979 0.28899 0.73042 0.0
C821 C 0.77917 0.2955 0.71008 0.0
C822 C 0.77079 0.27882 0.68811 0.0
C823 C 0.77263 0.25523 0.68717 0.0
C824 C 0.78275 0.24853 0.70789 0.0
C825 C 0.84285 0.2745 0.82992 0.0
C826 C 0.82377 0.33263 0.81399 0.0
C827 C 0.81214 0.31234 0.89423 0.0
C828 C 0.80188 0.30653 0.91502 0.0
C829 C 0.79908 0.2837 0.92127 0.0
C830 C 0.79137 0.27909 0.94241 0.0
C831 C 0.7859 0.29709 0.9576 0.0
C832 C 0.78753 0.31954 0.9505 0.0
C833 C 0.7956 0.32426 0.92944 0.0
C834 C 0.76908 0.2943 0.81501 0.0
C835 C 0.78524 0.23917 0.8307 0.0
O836 O 0.78782 0.25114 0.76588 0.0
O837 O 0.81951 0.27293 0.76323 0.0
O838 O 0.82713 0.28323 0.8325 0.0
O839 O 0.83919 0.26555 0.80678 0.0
O840 O 0.81622 0.31404 0.79516 0.0
O841 O 0.82335 0.3291 0.837 0.0
O842 O 0.82051 0.29614 0.88386 0.0
O843 O 0.80173 0.32206 0.87825 0.0
O844 O 0.78643 0.28897 0.81279 0.0
O845 O 0.77099 0.30127 0.83848 0.0
O846 O 0.78938 0.25826 0.84876 0.0
O847 O 0.79089 0.24164 0.80894 0.0
H848 H 0.79639 0.30224 0.74704 0.0
H849 H 0.77759 0.31366 0.71161 0.0
H850 H 0.76664 0.2421 0.67038 0.0
H851 H 0.78394 0.23026 0.70705 0.0
H852 H 0.80359 0.26956 0.91039 0.0
H853 H 0.7909 0.26174 0.94743 0.0
H854 H 0.78323 0.33368 0.9616 0.0
H855 H 0.79746 0.34195 0.92477 0.0
Tb856 Tb 0.77941 0.77044 0.79716 0.0
Tb857 Tb 0.8206 0.80229 0.82324 0.0
C858 C 0.74016 0.74993 0.79153 0.0
C859 C 0.72228 0.76005 0.7968 0.0
C860 C 0.72496 0.77658 0.81856 0.0
C861 C 0.70823 0.78631 0.82364 0.0
C862 C 0.68844 0.77981 0.80709 0.0
C863 C 0.68585 0.76367 0.78509 0.0
C864 C 0.70265 0.75382 0.78001 0.0
C865 C 0.80198 0.79285 0.76787 0.0
C866 C 0.78255 0.82839 0.81658 0.0
C867 C 0.85964 0.82485 0.83144 0.0
C868 C 0.88014 0.81836 0.83242 0.0
C869 C 0.88141 0.79772 0.81724 0.0
C870 C 0.90132 0.7933 0.81589 0.0
C871 C 0.92035 0.80954 0.82954 0.0
C872 C 0.91896 0.82962 0.84556 0.0
C873 C 0.89897 0.83397 0.84698 0.0
C874 C 0.79768 0.77979 0.85255 0.0
C875 C 0.81829 0.74504 0.80213 0.0
O876 O 0.75439 0.7501 0.81084 0.0
O877 O 0.74916 0.75679 0.77341 0.0
O878 O 0.80028 0.80098 0.78937 0.0
O879 O 0.78971 0.77096 0.76148 0.0
O880 O 0.77016 0.80579 0.80819 0.0
O881 O 0.80375 0.8314 0.82273 0.0
O882 O 0.8471 0.81938 0.80971 0.0
O883 O 0.84904 0.81996 0.84899 0.0
O884 O 0.79982 0.77166 0.83123 0.0
O885 O 0.8093 0.80194 0.85839 0.0
O886 O 0.82974 0.76752 0.81257 0.0
O887 O 0.79705 0.74131 0.79424 0.0
H888 H 0.74001 0.78202 0.83177 0.0
H889 H 0.71081 0.79901 0.84053 0.0
H890 H 0.67069 0.7583 0.77207 0.0
H891 H 0.7003 0.74127 0.76307 0.0
H892 H 0.86717 0.78557 0.80551 0.0
H893 H 0.90185 0.77785 0.80313 0.0
H894 H 0.93338 0.84228 0.85649 0.0
H895 H 0.89829 0.84998 0.85878 0.0
Tb896 Tb 0.54715 0.52031 0.55759 0.0
Tb897 Tb 0.58433 0.54838 0.59309 0.0
C898 C 0.50922 0.50299 0.53429 0.0
C899 C 0.49156 0.51433 0.53012 0.0
C900 C 0.49029 0.53285 0.54814 0.0
C901 C 0.47346 0.54352 0.54472 0.0
C902 C 0.45765 0.53594 0.5232 0.0
C903 C 0.45922 0.51806 0.50469 0.0
C904 C 0.47616 0.50719 0.5082 0.0
C905 C 0.58191 0.53092 0.53782 0.0
C906 C 0.55793 0.57831 0.56672 0.0
C907 C 0.62099 0.56609 0.61934 0.0
C908 C 0.63395 0.555 0.63559 0.0
C909 C 0.65521 0.55665 0.63306 0.0
C910 C 0.66539 0.5398 0.64087 0.0
C911 C 0.65443 0.52113 0.65154 0.0
C912 C 0.63429 0.52176 0.65724 0.0
C913 C 0.62397 0.5384 0.64902 0.0
C914 C 0.54874 0.53757 0.61184 0.0
C915 C 0.57519 0.49069 0.5838 0.0
O916 O 0.51553 0.50131 0.55716 0.0
O917 O 0.52541 0.51069 0.52371 0.0
O918 O 0.57639 0.54433 0.55392 0.0
O919 O 0.56778 0.51023 0.53291 0.0
O920 O 0.54257 0.55768 0.56002 0.0
O921 O 0.57734 0.57821 0.57752 0.0
O922 O 0.61777 0.55665 0.59604 0.0
O923 O 0.60339 0.56937 0.62601 0.0
O924 O 0.55511 0.5243 0.5966 0.0
O925 O 0.56285 0.55815 0.61703 0.0
O926 O 0.58918 0.51185 0.59277 0.0
O927 O 0.55639 0.48934 0.56997 0.0
H928 H 0.50211 0.53886 0.56511 0.0
H929 H 0.47257 0.55749 0.55909 0.0
H930 H 0.44709 0.51207 0.48799 0.0
H931 H 0.47711 0.4931 0.49403 0.0
H932 H 0.66311 0.5693 0.62268 0.0
H933 H 0.68083 0.53999 0.63592 0.0
H934 H 0.62563 0.50803 0.66593 0.0
H935 H 0.60748 0.53679 0.65121 0.0
Tb936 Tb 0.081 0.54023 0.07023 0.0
Tb937 Tb 0.03683 0.53338 0.08539 0.0
C938 C 0.12021 0.54186 0.06961 0.0
C939 C 0.13798 0.53037 0.0768 0.0
C940 C 0.14973 0.53494 0.101 0.0
C941 C 0.16798 0.52633 0.10666 0.0
C942 C 0.17554 0.51345 0.08819 0.0
C943 C 0.1634 0.5084 0.06407 0.0
C944 C 0.14495 0.51669 0.05851 0.0
C945 C 0.0503 0.53975 0.03038 0.0
C946 C 0.05126 0.4879 0.06541 0.0
C947 C 0.99841 0.53313 0.08885 0.0
C948 C 0.98114 0.54599 0.08791 0.0
C949 C 0.97949 0.56359 0.07331 0.0
C950 C 0.96224 0.57449 0.07294 0.0
C951 C 0.94634 0.56803 0.08716 0.0
C952 C 0.94805 0.55002 0.1012 0.0
C953 C 0.96515 0.53936 0.10166 0.0
C954 C 0.06783 0.5269 0.12047 0.0
C955 C 0.06649 0.58694 0.08657 0.0
O956 O 0.11389 0.55481 0.08661 0.0
O957 O 0.10405 0.52935 0.0523 0.0
O958 O 0.04857 0.53763 0.0524 0.0
O959 O 0.07066 0.54251 0.03069 0.0
O960 O 0.07098 0.50224 0.07169 0.0
O961 O 0.03426 0.49647 0.06693 0.0
O962 O 1.00417 0.52577 0.06837 0.0
O963 O 1.01471 0.54028 0.10741 0.0
O964 O 0.07008 0.54161 0.10534 0.0
O965 O 0.04733 0.51654 0.11665 0.0
O966 O 0.04799 0.57292 0.08944 0.0
O967 O 0.08204 0.5781 0.07954 0.0
H968 H 0.14526 0.54576 0.11556 0.0
H969 H 0.17636 0.53023 0.1256 0.0
H970 H 0.16858 0.49888 0.04916 0.0
H971 H 0.13655 0.51313 0.03957 0.0
H972 H 0.99151 0.56895 0.06233 0.0
H973 H 0.9616 0.58827 0.06191 0.0
H974 H 0.93599 0.5439 0.1119 0.0
H975 H 0.96579 0.52562 0.11276 0.0
H976 H 1.01489 0.17431 0.96799 0.0
H977 H 0.02947 0.22764 0.03447 0.0
H978 H 0.03579 0.1971 0.05922 0.0
H979 H 0.98619 0.12472 0.99424 0.0
H980 H 0.99612 0.10251 0.97739 0.0
H981 H 0.99288 0.12848 0.96468 0.0
H982 H 0.03286 0.13876 0.96032 0.0
H983 H 0.0362 0.11282 0.973 0.0
H984 H 0.05355 0.14205 0.98691 0.0
H985 H 0.04284 0.16105 0.07696 0.0
H986 H 0.04771 0.12227 0.08629 0.0
H987 H 0.02588 0.09044 0.00923 0.0
C988 C 0.01934 0.17959 0.98778 0.0
C989 C 0.02167 0.20373 0.99913 0.0
C990 C 0.02743 0.20952 0.02515 0.0
C991 C 0.03113 0.19219 0.03943 0.0
C992 C 0.0287 0.16871 0.0277 0.0
C993 C 0.02269 0.16229 1.00244 0.0
C994 C 0.02084 0.13562 0.99454 0.0
C995 C 0.99763 0.12203 0.98196 0.0
C996 C 0.03681 0.13211 0.97769 0.0
C997 C 0.02699 0.1281 0.01921 0.0
C998 C 0.03163 0.14761 0.03806 0.0
C999 C 0.03885 0.14564 0.06233 0.0
C1000 C 0.04152 0.12343 0.06751 0.0
C1001 C 0.03663 0.10295 0.04874 0.0
C1002 C 0.02909 0.10543 0.02419 0.0
H1003 H 0.14011 0.80229 0.24847 0.0
H1004 H 0.16311 0.81806 0.18222 0.0
H1005 H 0.19869 0.81341 0.19983 0.0
H1006 H 0.19066 0.83469 0.29081 0.0
H1007 H 0.18792 0.81343 0.31141 0.0
H1008 H 0.16427 0.81803 0.29352 0.0
H1009 H 0.15117 0.77264 0.27575 0.0
H1010 H 0.17491 0.76792 0.29335 0.0
H1011 H 0.16842 0.75828 0.26047 0.0
H1012 H 0.23204 0.80431 0.22419 0.0
H1013 H 0.26063 0.79726 0.25502 0.0
H1014 H 0.21704 0.79011 0.30636 0.0
C1015 C 0.15268 0.80507 0.23774 0.0
C1016 C 0.14849 0.81065 0.21379 0.0
C1017 C 0.16564 0.81401 0.20059 0.0
C1018 C 0.18601 0.8112 0.21042 0.0
C1019 C 0.18945 0.80531 0.2338 0.0
C1020 C 0.17335 0.80275 0.24749 0.0
C1021 C 0.18143 0.7971 0.27248 0.0
C1022 C 0.18105 0.817 0.29328 0.0
C1023 C 0.16819 0.77252 0.27569 0.0
C1024 C 0.20446 0.79668 0.27064 0.0
C1025 C 0.20874 0.80113 0.24805 0.0
C1026 C 0.22881 0.801 0.24199 0.0
C1027 C 0.24498 0.79678 0.25956 0.0
C1028 C 0.24122 0.79305 0.28317 0.0
C1029 C 0.22053 0.79288 0.2885 0.0
H1030 H 0.55254 0.85599 0.48764 0.0
H1031 H 0.51452 0.81918 0.53482 0.0
H1032 H 0.51386 0.85847 0.55777 0.0
H1033 H 0.58535 0.90572 0.53651 0.0
H1034 H 0.58673 0.92727 0.51621 0.0
H1035 H 0.58435 0.89633 0.50421 0.0
H1036 H 0.55039 0.89521 0.47271 0.0
H1037 H 0.55246 0.92602 0.48484 0.0
H1038 H 0.52794 0.90328 0.48349 0.0
H1039 H 0.5144 0.90276 0.57264 0.0
H1040 H 0.5212 0.947 0.58245 0.0
H1041 H 0.56194 0.95454 0.52818 0.0
C1042 C 0.54437 0.85622 0.50309 0.0
C1043 C 0.5336 0.83447 0.50948 0.0
C1044 C 0.52307 0.83555 0.52977 0.0
C1045 C 0.52248 0.85783 0.54275 0.0
C1046 C 0.5329 0.87895 0.53561 0.0
C1047 C 0.54415 0.87826 0.51661 0.0
C1048 C 0.55451 0.90339 0.51284 0.0
C1049 C 0.5792 0.90847 0.51774 0.0
C1050 C 0.5458 0.90719 0.48693 0.0
C1051 C 0.54711 0.91843 0.53237 0.0
C1052 C 0.53435 0.90407 0.54509 0.0
C1053 C 0.52468 0.91407 0.56303 0.0
C1054 C 0.52851 0.93924 0.5684 0.0
C1055 C 0.54226 0.95428 0.55629 0.0
C1056 C 0.55158 0.94356 0.53801 0.0
H1057 H 0.5265 0.26401 0.73955 0.0
H1058 H 0.53624 0.32973 0.70969 0.0
H1059 H 0.50291 0.33623 0.72178 0.0
H1060 H 0.46851 0.24529 0.71982 0.0
H1061 H 0.46361 0.23302 0.74691 0.0
H1062 H 0.48852 0.23365 0.7365 0.0
H1063 H 0.50994 0.25698 0.77919 0.0
H1064 H 0.48508 0.25641 0.78971 0.0
H1065 H 0.50461 0.28459 0.79175 0.0
H1066 H 0.46856 0.33604 0.73759 0.0
H1067 H 0.43575 0.32898 0.75514 0.0
H1068 H 0.44658 0.26215 0.77305 0.0
C1069 C 0.5217 0.27986 0.73569 0.0
C1070 C 0.53424 0.29646 0.72373 0.0
C1071 C 0.52711 0.31677 0.71883 0.0
C1072 C 0.50812 0.32063 0.72565 0.0
C1073 C 0.49614 0.30394 0.73727 0.0
C1074 C 0.50259 0.28389 0.74219 0.0
C1075 C 0.48645 0.26854 0.75449 0.0
C1076 C 0.47617 0.24365 0.73847 0.0
C1077 C 0.49716 0.26652 0.78032 0.0
C1078 C 0.47004 0.28316 0.75582 0.0
C1079 C 0.47601 0.30353 0.74582 0.0
C1080 C 0.46365 0.32 0.74524 0.0
C1081 C 0.44479 0.31565 0.75511 0.0
C1082 C 0.43804 0.29482 0.76541 0.0
C1083 C 0.45106 0.27838 0.7656 0.0
H1084 H 0.07124 0.80945 0.66487 0.0
H1085 H 0.06173 0.84393 0.73442 0.0
H1086 H 0.05459 0.87776 0.71491 0.0
H1087 H 0.09692 0.86184 0.64384 0.0
H1088 H 0.08351 0.85061 0.6123 0.0
H1089 H 0.08865 0.83004 0.63222 0.0
H1090 H 0.04798 0.80775 0.62252 0.0
H1091 H 0.04272 0.82829 0.6026 0.0
H1092 H 0.02849 0.82433 0.62755 0.0
H1093 H 0.05066 0.90862 0.68753 0.0
H1094 H 0.04807 0.93253 0.65458 0.0
H1095 H 0.05502 0.87371 0.60263 0.0
C1096 C 0.06791 0.82425 0.67611 0.0
C1097 C 0.06738 0.82449 0.70116 0.0
C1098 C 0.06238 0.84374 0.71518 0.0
C1099 C 0.0583 0.86289 0.70427 0.0
C1100 C 0.05884 0.86201 0.67935 0.0
C1101 C 0.06328 0.84299 0.66545 0.0
C1102 C 0.06214 0.84563 0.63892 0.0
C1103 C 0.08411 0.84713 0.63139 0.0
C1104 C 0.04426 0.8253 0.62191 0.0
C1105 C 0.05656 0.86926 0.64001 0.0
C1106 C 0.05499 0.87868 0.66345 0.0
C1107 C 0.05146 0.90122 0.66899 0.0
C1108 C 0.0498 0.91456 0.65007 0.0
C1109 C 0.05131 0.90505 0.62587 0.0
C1110 C 0.05417 0.88183 0.62089 0.0
H1111 H 0.46722 0.80193 0.86292 0.0
H1112 H 0.48749 0.87221 0.84331 0.0
H1113 H 0.45008 0.86908 0.82425 0.0
H1114 H 0.42661 0.77523 0.80709 0.0
H1115 H 0.40817 0.75795 0.82299 0.0
H1116 H 0.43676 0.76524 0.83454 0.0
H1117 H 0.43122 0.78461 0.87672 0.0
H1118 H 0.40266 0.77753 0.86523 0.0
H1119 H 0.41752 0.80803 0.87814 0.0
H1120 H 0.41061 0.85974 0.80951 0.0
H1121 H 0.37126 0.84331 0.7973 0.0
H1122 H 0.37631 0.77851 0.82508 0.0
C1123 C 0.4638 0.81654 0.85441 0.0
C1124 C 0.48029 0.83732 0.85461 0.0
C1125 C 0.47516 0.85609 0.84334 0.0
C1126 C 0.45394 0.85452 0.83249 0.0
C1127 C 0.43805 0.834 0.83287 0.0
C1128 C 0.44267 0.81521 0.84329 0.0
C1129 C 0.42242 0.79526 0.84128 0.0
C1130 C 0.42357 0.77205 0.82553 0.0
C1131 C 0.41821 0.79113 0.86686 0.0
C1132 C 0.40576 0.80593 0.82831 0.0
C1133 C 0.41515 0.82833 0.82377 0.0
C1134 C 0.40305 0.84211 0.81272 0.0
C1135 C 0.38071 0.83265 0.80593 0.0
C1136 C 0.37075 0.80957 0.81006 0.0
C1137 C 0.3835 0.79609 0.8214 0.0
H1138 H 0.54449 0.1677 0.19768 0.0
H1139 H 0.52397 0.21699 0.15373 0.0
H1140 H 0.52104 0.18838 0.11594 0.0
H1141 H 0.57776 0.15011 0.1612 0.0
H1142 H 0.5713 0.11908 0.16454 0.0
H1143 H 0.5688 0.14159 0.18843 0.0
H1144 H 0.52871 0.11926 0.18558 0.0
H1145 H 0.53136 0.09631 0.1622 0.0
H1146 H 0.51058 0.1115 0.15619 0.0
H1147 H 0.5237 0.15623 0.08292 0.0
H1148 H 0.52773 0.1202 0.05711 0.0
H1149 H 0.5483 0.09364 0.12308 0.0
C1150 C 0.53864 0.17213 0.18017 0.0
C1151 C 0.5344 0.1945 0.17864 0.0
C1152 C 0.52723 0.19986 0.15532 0.0
C1153 C 0.5256 0.1838 0.13374 0.0
C1154 C 0.53107 0.16246 0.13586 0.0
C1155 C 0.53703 0.15637 0.15847 0.0
C1156 C 0.54314 0.13291 0.15569 0.0
C1157 C 0.56665 0.13614 0.16821 0.0
C1158 C 0.52751 0.11388 0.16548 0.0
C1159 C 0.54026 0.12719 0.12806 0.0
C1160 C 0.53312 0.14429 0.11689 0.0
C1161 C 0.52916 0.1426 0.09142 0.0
C1162 C 0.5317 0.12228 0.07694 0.0
C1163 C 0.5383 0.10425 0.08813 0.0
C1164 C 0.54327 0.10719 0.11399 0.0
H1165 H 0.10507 0.3255 0.36562 0.0
H1166 H 0.05201 0.27849 0.31081 0.0
H1167 H 0.07761 0.26913 0.28536 0.0
H1168 H 0.14066 0.34702 0.32219 0.0
H1169 H 0.16454 0.3465 0.34298 0.0
H1170 H 0.1419 0.35274 0.35493 0.0
H1171 H 0.14087 0.31793 0.37933 0.0
H1172 H 0.16335 0.31148 0.36738 0.0
H1173 H 0.1386 0.28828 0.36317 0.0
H1174 H 0.10862 0.26051 0.26879 0.0
H1175 H 0.14319 0.25315 0.2622 0.0
H1176 H 0.17639 0.30625 0.32721 0.0
C1177 C 0.09883 0.31395 0.34785 0.0
C1178 C 0.0766 0.30297 0.33999 0.0
C1179 C 0.06902 0.28726 0.31704 0.0
C1180 C 0.08341 0.28187 0.30242 0.0
C1181 C 0.1053 0.29242 0.311 0.0
C1182 C 0.11302 0.30823 0.3331 0.0
C1183 C 0.13738 0.31503 0.33931 0.0
C1184 C 0.14667 0.34192 0.33988 0.0
C1185 C 0.14551 0.30773 0.36373 0.0
C1186 C 0.14207 0.30001 0.31762 0.0
C1187 C 0.12336 0.28734 0.30137 0.0
C1188 C 0.12345 0.27076 0.28103 0.0
C1189 C 0.14318 0.26678 0.27738 0.0
C1190 C 0.16251 0.27925 0.29407 0.0
C1191 C 0.16189 0.29644 0.31411 0.0
H1192 H 0.97592 0.04329 0.21464 0.0
H1193 H 0.99529 0.97925 0.22768 0.0
H1194 H 1.0123 0.9799 0.19109 0.0
H1195 H 0.96445 0.03018 0.14872 0.0
H1196 H 0.97564 0.06052 0.14498 0.0
H1197 H 0.96457 0.05492 0.17186 0.0
H1198 H 1.00064 0.07966 0.19988 0.0
H1199 H 1.01176 0.08553 0.17309 0.0
H1200 H 0.02525 0.07206 0.19571 0.0
H1201 H 0.02499 0.98594 0.15148 0.0
H1202 H 0.03785 1.0004 0.11566 0.0
H1203 H 1.01353 0.06285 0.13007 0.0
C1204 C 0.98384 0.02946 0.20984 0.0
C1205 C 0.98419 1.01111 0.22399 0.0
C1206 C 0.9949 0.99351 0.21724 0.0
C1207 C 1.00446 0.99365 0.19636 0.0
C1208 C 1.00354 1.01176 0.18263 0.0
C1209 C 0.99392 0.02966 0.18937 0.0
C1210 C 0.9961 0.04771 0.17208 0.0
C1211 C 0.97386 0.04836 0.15862 0.0
C1212 C 1.00923 0.07272 0.18602 0.0
C1213 C 1.00833 0.03708 0.15444 0.0
C1214 C 1.01206 0.01608 0.16063 0.0
C1215 C 0.02234 1.00247 0.14663 0.0
C1216 C 0.02944 1.01076 0.12616 0.0
C1217 C 0.02667 0.03276 0.12001 0.0
C1218 C 1.01585 0.04599 0.13433 0.0
H1219 H 0.32214 0.76378 0.56611 0.0
H1220 H 0.27857 0.69251 0.54771 0.0
H1221 H 0.2549 0.70591 0.51675 0.0
H1222 H 0.28167 0.7991 0.55267 0.0
H1223 H 0.29975 0.81918 0.53869 0.0
H1224 H 0.31036 0.80585 0.56342 0.0
H1225 H 0.33387 0.7888 0.53595 0.0
H1226 H 0.32353 0.80231 0.51145 0.0
H1227 H 0.32114 0.77056 0.50631 0.0
H1228 H 0.23855 0.72526 0.48484 0.0
H1229 H 0.23386 0.74676 0.45023 0.0
H1230 H 0.29001 0.80414 0.48723 0.0
C1231 C 0.30726 0.75131 0.55602 0.0
C1232 C 0.30186 0.72733 0.55929 0.0
C1233 C 0.28277 0.71105 0.54533 0.0
C1234 C 0.26915 0.71856 0.52798 0.0
C1235 C 0.27505 0.74231 0.52475 0.0
C1236 C 0.29382 0.75837 0.53814 0.0
C1237 C 0.29859 0.78138 0.52807 0.0
C1238 C 0.29752 0.80263 0.54684 0.0
C1239 C 0.32056 0.78601 0.51995 0.0
C1240 C 0.28006 0.77539 0.50636 0.0
C1241 C 0.26624 0.75314 0.50527 0.0
C1242 C 0.24908 0.74286 0.48563 0.0
C1243 C 0.2466 0.75514 0.46601 0.0
C1244 C 0.26157 0.77713 0.46595 0.0
C1245 C 0.27789 0.78775 0.48692 0.0
H1246 H 0.61828 0.03608 0.76821 0.0
H1247 H 0.65615 0.98891 0.74376 0.0
H1248 H 0.63996 0.98789 0.70071 0.0
H1249 H 0.56957 1.00854 0.72005 0.0
H1250 H 0.56368 0.03662 0.71634 0.0
H1251 H 0.57768 0.0333 0.74553 0.0
H1252 H 0.60867 0.07 0.74468 0.0
H1253 H 0.5948 0.07335 0.71544 0.0
H1254 H 0.62194 0.07036 0.7187 0.0
H1255 H 0.61984 0.9926 0.65835 0.0
H1256 H 0.59761 1.00184 0.62267 0.0
H1257 H 0.572 0.04599 0.67256 0.0
C1258 C 0.62299 0.02521 0.75389 0.0
C1259 C 0.63873 1.01234 0.76028 0.0
C1260 C 0.6443 0.99888 0.74023 0.0
C1261 C 0.63511 0.99821 0.71534 0.0
C1262 C 0.62 1.01116 0.70976 0.0
C1263 C 0.61389 0.02438 0.72854 0.0
C1264 C 0.59745 0.03693 0.71726 0.0
C1265 C 0.57581 0.02834 0.72528 0.0
C1266 C 0.60624 0.06429 0.72446 0.0
C1267 C 0.5953 0.02875 0.68942 0.0
C1268 C 0.60852 1.01387 0.68554 0.0
C1269 C 0.60944 1.0042 0.66144 0.0
C1270 C 0.59665 1.0096 0.64104 0.0
C1271 C 0.58272 0.02468 0.64415 0.0
C1272 C 0.58229 0.03436 0.66904 0.0
H1273 H 0.34528 0.33937 1.00779 0.0
H1274 H 0.28989 0.3686 1.00697 0.0
H1275 H 0.28021 0.35636 0.96192 0.0
H1276 H 0.35914 0.35815 0.95229 0.0
H1277 H 0.36716 0.33171 0.94156 0.0
H1278 H 0.36959 0.34163 0.97403 0.0
H1279 H 0.3464 0.30009 0.97767 0.0
H1280 H 0.34405 0.28999 0.94524 0.0
H1281 H 0.32016 0.28801 0.95821 0.0
H1282 H 0.27631 0.34161 0.91758 0.0
H1283 H 0.27797 0.32475 0.87557 0.0
H1284 H 0.33657 0.30562 0.90292 0.0
C1285 C 0.33095 0.34289 0.99813 0.0
C1286 C 0.3182 0.35481 0.01105 0.0
C1287 C 0.29984 0.35945 0.99762 0.0
C1288 C 0.29423 0.35258 0.97198 0.0
C1289 C 0.30721 0.34122 0.95981 0.0
C1290 C 0.3252 0.33635 0.97231 0.0
C1291 C 0.33654 0.32436 0.95436 0.0
C1292 C 0.35947 0.3399 0.95564 0.0
C1293 C 0.3368 0.29911 0.95916 0.0
C1294 C 0.32203 0.32325 0.92987 0.0
C1295 C 0.30522 0.33307 0.93369 0.0
C1296 C 0.28939 0.33388 0.91435 0.0
C1297 C 0.29049 0.32418 0.89048 0.0
C1298 C 0.30739 0.31381 0.88578 0.0
C1299 C 0.32357 0.31361 0.90583 0.0
H1300 H 0.98218 0.03351 0.37533 0.0
H1301 H 1.01624 0.98233 0.34986 0.0
H1302 H 0.03545 0.98599 0.3921 0.0
H1303 H 0.0274 0.0716 0.42351 0.0
H1304 H 1.01038 0.07683 0.44504 0.0
H1305 H 0.99994 0.07171 0.41245 0.0
H1306 H 0.96879 0.03668 0.41712 0.0
H1307 H 0.97916 0.04165 0.44967 0.0
H1308 H 0.97496 1.01252 0.43125 0.0
H1309 H 0.04953 0.99277 0.43632 0.0
H1310 H 0.05826 1.00253 0.48131 0.0
H1311 H 1.01606 0.04997 0.48067 0.0
C1312 C 0.99395 0.02341 0.37864 0.0
C1313 C 0.99774 1.00769 0.3591 0.0
C1314 C 1.01302 0.9945 0.36434 0.0
C1315 C 0.02409 0.99648 0.38834 0.0
C1316 C 0.01984 1.01179 0.40714 0.0
C1317 C 1.00523 0.02513 0.40275 0.0
C1318 C 1.0033 0.03946 0.42682 0.0
C1319 C 1.01069 0.06651 0.42695 0.0
C1320 C 0.98018 0.03213 0.43148 0.0
C1321 C 0.01888 0.03177 0.4453 0.0
C1322 C 0.02821 0.01585 0.43329 0.0
C1323 C 0.04248 1.00535 0.44594 0.0
C1324 C 0.04728 1.01099 0.47158 0.0
C1325 C 0.03791 0.02706 0.48463 0.0
C1326 C 0.02371 0.0379 0.47124 0.0
H1327 H 0.37174 0.74719 0.64532 0.0
H1328 H 0.35615 0.67422 0.659 0.0
H1329 H 0.33256 0.68453 0.68676 0.0
H1330 H 0.37516 0.77399 0.70921 0.0
H1331 H 0.36467 0.79834 0.70093 0.0
H1332 H 0.37956 0.78481 0.68124 0.0
H1333 H 0.34732 0.7765 0.64473 0.0
H1334 H 0.33221 0.7896 0.66453 0.0
H1335 H 0.32112 0.75946 0.64761 0.0
H1336 H 0.30759 0.70144 0.70886 0.0
H1337 H 0.29088 0.72694 0.73434 0.0
H1338 H 0.32753 0.79007 0.71253 0.0
C1339 C 0.36364 0.73358 0.65456 0.0
C1340 C 0.36555 0.70995 0.64995 0.0
C1341 C 0.35492 0.6925 0.6624 0.0
C1342 C 0.34127 0.69807 0.67792 0.0
C1343 C 0.33907 0.72131 0.68134 0.0
C1344 C 0.35058 0.73905 0.67086 0.0
C1345 C 0.34674 0.76309 0.67942 0.0
C1346 C 0.36778 0.78112 0.69355 0.0
C1347 C 0.33622 0.77272 0.65778 0.0
C1348 C 0.33119 0.756 0.69625 0.0
C1349 C 0.32647 0.73167 0.69642 0.0
C1350 C 0.31176 0.72064 0.70965 0.0
C1351 C 0.30266 0.73518 0.72434 0.0
C1352 C 0.309 0.76027 0.72628 0.0
C1353 C 0.32274 0.77082 0.71142 0.0
H1354 H 0.64045 0.02441 0.92868 0.0
H1355 H 0.60238 0.05814 0.88124 0.0
H1356 H 0.57984 0.06201 0.91235 0.0
H1357 H 0.59602 0.99194 0.95529 0.0
H1358 H 0.61155 0.99701 0.98598 0.0
H1359 H 0.62473 0.99584 0.95994 0.0
H1360 H 0.65036 0.03765 0.97843 0.0
H1361 H 0.6373 0.03889 1.00456 0.0
H1362 H 0.63924 0.06243 0.98659 0.0
H1363 H 0.55938 0.06106 0.94867 0.0
H1364 H 0.54545 0.05849 0.98704 0.0
H1365 H 0.59709 0.02859 0.01527 0.0
C1366 C 0.62733 0.03256 0.92469 0.0
C1367 C 0.62354 0.04077 0.90154 0.0
C1368 C 0.6061 0.05153 0.89812 0.0
C1369 C 0.59298 0.05381 0.91596 0.0
C1370 C 0.5971 0.04567 0.93823 0.0
C1371 C 0.61406 0.03546 0.94287 0.0
C1372 C 0.61516 0.02899 0.96895 0.0
C1373 C 0.61167 1.00183 0.96745 0.0
C1374 C 0.63681 0.04281 0.98562 0.0
C1375 C 0.59634 0.03711 0.97816 0.0
C1376 C 0.58601 0.04636 0.95978 0.0
C1377 C 0.56768 0.05409 0.96311 0.0
C1378 C 0.55975 0.05253 0.98531 0.0
C1379 C 0.56995 0.04377 1.00517 0.0
C1380 C 0.5888 0.03595 1.00117 0.0
H1381 H 0.31633 0.33445 0.13631 0.0
H1382 H 0.3356 0.40748 0.17685 0.0
H1383 H 0.33224 0.39234 0.21531 0.0
H1384 H 0.27643 0.31193 0.17216 0.0
H1385 H 0.28205 0.2831 0.17134 0.0
H1386 H 0.28653 0.29935 0.14663 0.0
H1387 H 0.3261 0.29697 0.15312 0.0
H1388 H 0.32176 0.28078 0.17791 0.0
H1389 H 0.34313 0.30801 0.18307 0.0
H1390 H 0.32744 0.36994 0.24986 0.0
H1391 H 0.31903 0.34151 0.27796 0.0
H1392 H 0.30126 0.28224 0.21637 0.0
C1393 C 0.31992 0.34724 0.1533 0.0
C1394 C 0.32635 0.3723 0.15331 0.0
C1395 C 0.33064 0.38828 0.17606 0.0
C1396 C 0.32884 0.37984 0.19816 0.0
C1397 C 0.32253 0.35522 0.19755 0.0
C1398 C 0.31793 0.33907 0.17574 0.0
C1399 C 0.31079 0.3135 0.18046 0.0
C1400 C 0.28757 0.30125 0.16684 0.0
C1401 C 0.32638 0.29896 0.17321 0.0
C1402 C 0.3122 0.3179 0.20825 0.0
C1403 C 0.31919 0.34216 0.21764 0.0
C1404 C 0.32192 0.3509 0.24269 0.0
C1405 C 0.31715 0.33454 0.25858 0.0
C1406 C 0.30949 0.30956 0.24954 0.0
C1407 C 0.30715 0.30118 0.22394 0.0
H1408 H 0.18794 0.91743 0.03898 0.0
H1409 H 0.18618 0.88825 0.10592 0.0
H1410 H 0.16643 0.91688 0.1207 0.0
H1411 H 0.20453 0.97337 0.06735 0.0
H1412 H 0.19041 0.98666 0.0451 0.0
H1413 H 0.19692 0.95913 0.03545 0.0
H1414 H 0.15673 0.93798 0.01703 0.0
H1415 H 0.15009 0.96578 0.02586 0.0
H1416 H 0.13673 0.93902 0.03582 0.0
H1417 H 0.15277 0.95303 0.13093 0.0
H1418 H 0.14526 0.99262 0.1353 0.0
H1419 H 0.16377 1.00161 0.06503 0.0
C1420 C 0.1821 0.91607 0.05598 0.0
C1421 C 0.18788 0.9004 0.07109 0.0
C1422 C 0.18126 0.89988 0.09394 0.0
C1423 C 0.17021 0.91614 0.10249 0.0
C1424 C 0.16636 0.93288 0.08805 0.0
C1425 C 0.17195 0.93281 0.06514 0.0
C1426 C 0.17007 0.95521 0.05534 0.0
C1427 C 0.19177 0.96941 0.05056 0.0
C1428 C 0.15234 0.94913 0.03214 0.0
C1429 C 0.16352 0.96833 0.07673 0.0
C1430 C 0.16079 0.95497 0.09507 0.0
C1431 C 0.15488 0.96369 0.11667 0.0
C1432 C 0.15106 0.98644 0.11917 0.0
C1433 C 0.15392 1.00049 0.10052 0.0
C1434 C 0.16078 0.99131 0.07939 0.0
H1435 H 0.70073 0.62041 0.01363 0.0
H1436 H 0.7333 0.6301 0.08942 0.0
H1437 H 0.69879 0.61248 0.10107 0.0
H1438 H 0.65062 0.63136 0.02499 0.0
H1439 H 0.63369 0.6078 1.00086 0.0
H1440 H 0.66076 0.62208 0.99811 0.0
H1441 H 0.66933 0.58086 0.99195 0.0
H1442 H 0.64222 0.56645 0.9944 0.0
H1443 H 0.66473 0.56177 0.01442 0.0
H1444 H 0.66035 0.59639 0.1054 0.0
H1445 H 0.62173 0.57572 0.10071 0.0
H1446 H 0.61389 0.57129 0.02176 0.0
C1447 C 0.70056 0.61861 0.03261 0.0
C1448 C 0.71985 0.62666 0.05061 0.0
C1449 C 0.71888 0.62388 0.07523 0.0
C1450 C 0.69928 0.61408 0.08211 0.0
C1451 C 0.68058 0.60651 0.0641 0.0
C1452 C 0.68107 0.60801 0.03973 0.0
C1453 C 0.65871 0.59693 0.02391 0.0
C1454 C 0.65046 0.61566 0.01122 0.0
C1455 C 0.65876 0.57521 1.00505 0.0
C1456 C 0.64567 0.58928 0.04323 0.0
C1457 C 0.65857 0.59552 0.06637 0.0
C1458 C 0.65015 0.59119 0.08732 0.0
C1459 C 0.62813 0.57962 0.08453 0.0
C1460 C 0.61478 0.57195 0.06092 0.0
C1461 C 0.62372 0.57701 0.04004 0.0
H1462 H 0.69948 0.49494 0.34767 0.0
H1463 H 0.70229 0.51061 0.27438 0.0
H1464 H 0.72127 0.47947 0.2665 0.0
H1465 H 0.75228 0.48536 0.35964 0.0
H1466 H 0.7447 0.46136 0.37634 0.0
H1467 H 0.73048 0.48428 0.37613 0.0
H1468 H 0.69437 0.45179 0.35964 0.0
H1469 H 0.7085 0.42877 0.3598 0.0
H1470 H 0.69151 0.43066 0.3319 0.0
H1471 H 0.74 0.44719 0.26631 0.0
H1472 H 0.75891 0.41637 0.27455 0.0
H1473 H 0.7449 0.42164 0.34816 0.0
C1474 C 0.70398 0.49167 0.32994 0.0
C1475 C 0.69934 0.50514 0.31161 0.0
C1476 C 0.70569 0.50055 0.28872 0.0
C1477 C 0.71643 0.48285 0.28402 0.0
C1478 C 0.72084 0.46997 0.30244 0.0
C1479 C 0.71495 0.47417 0.32499 0.0
C1480 C 0.72236 0.4582 0.3418 0.0
C1481 C 0.73841 0.4732 0.36484 0.0
C1482 C 0.70303 0.44135 0.34868 0.0
C1483 C 0.73331 0.44446 0.32514 0.0
C1484 C 0.73209 0.45146 0.30247 0.0
C1485 C 0.74102 0.44147 0.28396 0.0
C1486 C 0.75161 0.42389 0.28876 0.0
C1487 C 0.75328 0.41655 0.31193 0.0
C1488 C 0.74396 0.427 0.33032 0.0
H1489 H 0.80731 0.40464 0.50879 0.0
H1490 H 0.77774 0.4639 0.50963 0.0
H1491 H 0.81325 0.49174 0.51113 0.0
H1492 H 0.8535 0.4354 0.55215 0.0
H1493 H 0.87144 0.42129 0.53793 0.0
H1494 H 0.84345 0.40567 0.534 0.0
H1495 H 0.83982 0.40008 0.48665 0.0
H1496 H 0.86789 0.41551 0.49043 0.0
H1497 H 0.8477 0.42591 0.47245 0.0
H1498 H 0.8523 0.51325 0.51491 0.0
H1499 H 0.89212 0.52682 0.52125 0.0
H1500 H 0.89547 0.45335 0.5195 0.0
C1501 C 0.80816 0.42337 0.50869 0.0
C1502 C 0.78978 0.43212 0.50882 0.0
C1503 C 0.79166 0.45685 0.50933 0.0
C1504 C 0.81171 0.47276 0.51018 0.0
C1505 C 0.82961 0.46358 0.5106 0.0
C1506 C 0.828 0.43946 0.50986 0.0
C1507 C 0.84979 0.43431 0.51232 0.0
C1508 C 0.85483 0.42354 0.53548 0.0
C1509 C 0.85139 0.418 0.48907 0.0
C1510 C 0.86396 0.45938 0.51484 0.0
C1511 C 0.85207 0.47601 0.51357 0.0
C1512 C 0.86179 0.5004 0.51581 0.0
C1513 C 0.88431 0.50793 0.51941 0.0
C1514 C 0.89666 0.4911 0.52103 0.0
C1515 C 0.88633 0.46658 0.51864 0.0
H1516 H 0.39391 0.14619 0.31394 0.0
H1517 H 0.34472 0.09571 0.25754 0.0
H1518 H 0.32392 0.12574 0.25503 0.0
H1519 H 0.35747 0.1749 0.34407 0.0
H1520 H 0.37479 0.20494 0.34962 0.0
H1521 H 0.38623 0.17967 0.34776 0.0
H1522 H 0.4055 0.19462 0.31365 0.0
H1523 H 0.39407 0.2199 0.31538 0.0
H1524 H 0.38997 0.20005 0.28646 0.0
H1525 H 0.30669 0.16181 0.25878 0.0
H1526 H 0.2961 0.1994 0.26695 0.0
H1527 H 0.35578 0.23056 0.31979 0.0
C1528 C 0.37874 0.1413 0.30102 0.0
C1529 C 0.37138 0.11749 0.28595 0.0
C1530 C 0.3513 0.11302 0.26942 0.0
C1531 C 0.33913 0.1303 0.26785 0.0
C1532 C 0.34673 0.15317 0.28269 0.0
C1533 C 0.36625 0.15888 0.2989 0.0
C1534 C 0.37067 0.18527 0.31228 0.0
C1535 C 0.3724 0.18626 0.34009 0.0
C1536 C 0.39129 0.20088 0.30662 0.0
C1537 C 0.35064 0.19332 0.30133 0.0
C1538 C 0.33708 0.17424 0.28433 0.0
C1539 C 0.31746 0.1767 0.27201 0.0
C1540 C 0.31146 0.19858 0.27689 0.0
C1541 C 0.32468 0.21908 0.29402 0.0
C1542 C 0.34489 0.21594 0.30635 0.0
H1543 H 0.34707 0.11787 0.53734 0.0
H1544 H 0.33059 0.11385 0.60922 0.0
H1545 H 0.36129 0.09747 0.62105 0.0
H1546 H 0.36338 0.06197 0.53101 0.0
H1547 H 0.38527 0.07288 0.51583 0.0
H1548 H 0.36215 0.08488 0.51265 0.0
H1549 H 0.38707 0.12768 0.52844 0.0
H1550 H 0.41025 0.11577 0.53178 0.0
H1551 H 0.40527 0.13412 0.5577 0.0
H1552 H 0.39424 0.08297 0.62634 0.0
H1553 H 0.42583 0.06759 0.62366 0.0
H1554 H 0.42138 0.07763 0.54767 0.0
C1555 C 0.34992 0.11349 0.55554 0.0
C1556 C 0.33619 0.1173 0.57233 0.0
C1557 C 0.3406 0.11116 0.59591 0.0
C1558 C 0.35815 0.10188 0.6029 0.0
C1559 C 0.37135 0.09848 0.58614 0.0
C1560 C 0.36742 0.1038 0.56283 0.0
C1561 C 0.38406 0.09761 0.54836 0.0
C1562 C 0.37306 0.07818 0.52561 0.0
C1563 C 0.39746 0.12014 0.54114 0.0
C1564 C 0.39785 0.08808 0.56724 0.0
C1565 C 0.3902 0.08904 0.58892 0.0
C1566 C 0.40017 0.08178 0.60931 0.0
C1567 C 0.41813 0.07283 0.60749 0.0
C1568 C 0.42612 0.07067 0.58529 0.0
C1569 C 0.41587 0.07887 0.56496 0.0
H1570 H 0.72893 0.62856 0.36 0.0
H1571 H 0.67017 0.63869 0.32002 0.0
H1572 H 0.69091 0.67594 0.30968 0.0
H1573 H 0.75259 0.69375 0.38579 0.0
H1574 H 0.7797 0.69239 0.3842 0.0
H1575 H 0.76036 0.66651 0.38895 0.0
H1576 H 0.76753 0.64123 0.35098 0.0
H1577 H 0.78669 0.66707 0.34591 0.0
H1578 H 0.76426 0.65092 0.32171 0.0
H1579 H 0.71817 0.70669 0.29706 0.0
H1580 H 0.74967 0.73704 0.29193 0.0
H1581 H 0.7906 0.71408 0.34713 0.0
C1582 C 0.7205 0.63901 0.34956 0.0
C1583 C 0.69796 0.63093 0.34084 0.0
C1584 C 0.68737 0.64482 0.32709 0.0
C1585 C 0.69902 0.66585 0.32096 0.0
C1586 C 0.72122 0.67315 0.32935 0.0
C1587 C 0.73185 0.66076 0.34409 0.0
C1588 C 0.75579 0.67343 0.35127 0.0
C1589 C 0.7625 0.68203 0.37922 0.0
C1590 C 0.76936 0.65719 0.34191 0.0
C1591 C 0.75689 0.69444 0.3377 0.0
C1592 C 0.73675 0.69338 0.3247 0.0
C1593 C 0.7338 0.70864 0.30824 0.0
C1594 C 0.75173 0.72616 0.30576 0.0
C1595 C 0.77218 0.7293 0.32057 0.0
C1596 C 0.77493 0.71282 0.3364 0.0
H1597 H 0.89709 0.47311 0.83579 0.0
H1598 H 0.85636 0.48178 0.77063 0.0
H1599 H 0.83526 0.43944 0.76565 0.0
H1600 H 0.89777 0.41201 0.81617 0.0
H1601 H 0.89611 0.40311 0.84557 0.0
H1602 H 0.90805 0.43393 0.84404 0.0
H1603 H 0.88147 0.44738 0.86899 0.0
H1604 H 0.86952 0.4166 0.87072 0.0
H1605 H 0.85292 0.43453 0.85838 0.0
H1606 H 0.81991 0.39318 0.76586 0.0
H1607 H 0.8092 0.35189 0.77429 0.0
H1608 H 0.8567 0.37307 0.842 0.0
C1609 C 0.88356 0.46629 0.82057 0.0
C1610 C 0.87868 0.48162 0.80361 0.0
C1611 C 0.86067 0.47122 0.78412 0.0
C1612 C 0.84857 0.44683 0.78104 0.0
C1613 C 0.85399 0.43233 0.79783 0.0
C1614 C 0.87084 0.44197 0.81761 0.0
C1615 C 0.87285 0.42281 0.83362 0.0
C1616 C 0.89502 0.41767 0.83493 0.0
C1617 C 0.86896 0.43081 0.85947 0.0
C1618 C 0.8548 0.40075 0.81971 0.0
C1619 C 0.84434 0.40657 0.79885 0.0
C1620 C 0.82794 0.38885 0.78239 0.0
C1621 C 0.82194 0.36511 0.78733 0.0
C1622 C 0.83169 0.35847 0.80895 0.0
C1623 C 0.84847 0.37704 0.82536 0.0
H1624 H 0.06039 0.87558 0.1324 0.0
H1625 H 0.12184 0.87548 0.11168 0.0
H1626 H 0.12155 0.91177 0.09384 0.0
H1627 H 0.03799 0.89543 0.07713 0.0
H1628 H 0.02393 0.91389 0.09295 0.0
H1629 H 0.0288 0.88797 0.10458 0.0
H1630 H 0.04775 0.9146 0.14665 0.0
H1631 H 0.04295 0.94059 0.13511 0.0
H1632 H 0.06996 0.94028 0.14805 0.0
H1633 H 0.11542 0.94945 0.07882 0.0
H1634 H 0.10345 0.98436 0.06747 0.0
H1635 H 0.04465 0.95981 0.09444 0.0
C1636 C 0.07382 0.8832 0.12415 0.0
C1637 C 0.09123 0.87228 0.12369 0.0
C1638 C 0.10829 0.88308 0.11243 0.0
C1639 C 0.10833 0.90392 0.10224 0.0
C1640 C 0.09109 0.91418 0.103 0.0
C1641 C 0.07401 0.90408 0.11349 0.0
C1642 C 0.05725 0.91857 0.11124 0.0
C1643 C 0.03572 0.90304 0.09554 0.0
C1644 C 0.0543 0.92913 0.13678 0.0
C1645 C 0.06768 0.9384 0.09815 0.0
C1646 C 0.0873 0.93556 0.09375 0.0
C1647 C 0.10022 0.9519 0.0825 0.0
C1648 C 0.09324 0.97175 0.07599 0.0
C1649 C 0.07307 0.97504 0.07984 0.0
C1650 C 0.06008 0.95783 0.09095 0.0
H1651 H 0.9538 0.29201 0.92788 0.0
H1652 H 0.95272 0.22086 0.89231 0.0
H1653 H 0.91687 0.21697 0.86754 0.0
H1654 H 0.89654 0.28162 0.92881 0.0
H1655 H 0.89455 0.31003 0.92091 0.0
H1656 H 0.91969 0.30723 0.93724 0.0
H1657 H 0.93917 0.3231 0.90351 0.0
H1658 H 0.91417 0.32623 0.88726 0.0
H1659 H 0.92914 0.30861 0.87189 0.0
H1660 H 0.88091 0.21966 0.84769 0.0
H1661 H 0.84968 0.23115 0.82753 0.0
H1662 H 0.87364 0.30249 0.87164 0.0
C1663 C 0.94594 0.27559 0.9149 0.0
C1664 C 0.95612 0.25655 0.91229 0.0
C1665 C 0.94541 0.23563 0.89474 0.0
C1666 C 0.9249 0.2332 0.88068 0.0
C1667 C 0.91524 0.25206 0.88385 0.0
C1668 C 0.92555 0.27313 0.90003 0.0
C1669 C 0.91203 0.29123 0.89816 0.0
C1670 C 0.90531 0.29793 0.92275 0.0
C1671 C 0.92436 0.31362 0.8897 0.0
C1672 C 0.89247 0.27694 0.87849 0.0
C1673 C 0.89469 0.25422 0.87105 0.0
C1674 C 0.87909 0.23742 0.8533 0.0
C1675 C 0.86123 0.24414 0.84204 0.0
C1676 C 0.85882 0.26762 0.84804 0.0
C1677 C 0.87457 0.28421 0.867 0.0
H1678 H 0.55869 0.20953 0.65532 0.0
H1679 H 0.60564 0.24331 0.61498 0.0
H1680 H 0.60697 0.20334 0.59509 0.0
H1681 H 0.58049 0.16096 0.66636 0.0
H1682 H 0.55488 0.13907 0.66183 0.0
H1683 H 0.55701 0.17023 0.67235 0.0
H1684 H 0.52703 0.16959 0.63585 0.0
H1685 H 0.52463 0.13833 0.62539 0.0
H1686 H 0.5298 0.15944 0.60492 0.0
H1687 H 0.60557 0.15895 0.58231 0.0
H1688 H 0.59781 0.11467 0.57353 0.0
H1689 H 0.54981 0.10957 0.61968 0.0
C1690 C 0.569 0.20856 0.642 0.0
C1691 C 0.58202 0.22981 0.63674 0.0
C1692 C 0.59532 0.22751 0.61921 0.0
C1693 C 0.59631 0.20478 0.60793 0.0
C1694 C 0.58364 0.18427 0.61394 0.0
C1695 C 0.56988 0.18597 0.63018 0.0
C1696 C 0.5577 0.16116 0.63322 0.0
C1697 C 0.56283 0.15766 0.66003 0.0
C1698 C 0.53334 0.15688 0.62431 0.0
C1699 C 0.56692 0.14523 0.61641 0.0
C1700 C 0.58208 0.1589 0.60569 0.0
C1701 C 0.59349 0.14815 0.59037 0.0
C1702 C 0.58905 0.12292 0.58557 0.0
C1703 C 0.57306 0.10848 0.59567 0.0
C1704 C 0.56194 0.11999 0.61137 0.0
H1705 H 0.57331 0.79038 0.39683 0.0
H1706 H 0.58562 0.74208 0.44658 0.0
H1707 H 0.61846 0.7399 0.43102 0.0
H1708 H 0.59314 0.7623 0.34561 0.0
H1709 H 0.60548 0.7903 0.33711 0.0
H1710 H 0.58227 0.7877 0.3514 0.0
H1711 H 0.60353 0.8238 0.3854 0.0
H1712 H 0.62683 0.82641 0.37127 0.0
H1713 H 0.6289 0.82304 0.40302 0.0
H1714 H 0.65071 0.74356 0.41155 0.0
H1715 H 0.68001 0.75217 0.38848 0.0
H1716 H 0.64787 0.79771 0.35012 0.0
C1717 C 0.58276 0.7791 0.4042 0.0
C1718 C 0.57661 0.76633 0.423 0.0
C1719 C 0.58977 0.75209 0.43229 0.0
C1720 C 0.60857 0.75071 0.42354 0.0
C1721 C 0.61433 0.76369 0.4054 0.0
C1722 C 0.60186 0.77759 0.39571 0.0
C1723 C 0.61225 0.79008 0.37662 0.0
C1724 C 0.5974 0.78211 0.35117 0.0
C1725 C 0.61823 0.81746 0.38456 0.0
C1726 C 0.63237 0.78093 0.37717 0.0
C1727 C 0.63315 0.76576 0.39397 0.0
C1728 C 0.65016 0.75524 0.39815 0.0
C1729 C 0.66674 0.76015 0.38474 0.0
C1730 C 0.66641 0.77543 0.36708 0.0
C1731 C 0.64887 0.78604 0.36347 0.0
H1732 H 0.04483 0.27164 0.47495 0.0
H1733 H 0.04545 0.23608 0.40175 0.0
H1734 H 0.05315 0.20163 0.41898 0.0
H1735 H 0.08802 0.25211 0.50725 0.0
H1736 H 0.07549 0.24823 0.5335 0.0
H1737 H 0.07051 0.27032 0.51544 0.0
H1738 H 0.02939 0.25098 0.50864 0.0
H1739 H 0.03425 0.22884 0.52667 0.0
H1740 H 0.01881 0.21955 0.49576 0.0
H1741 H 0.05877 0.1703 0.44384 0.0
H1742 H 0.06214 0.14439 0.4748 0.0
H1743 H 0.06024 0.20197 0.53167 0.0
C1744 C 0.04664 0.25666 0.46251 0.0
C1745 C 0.04453 0.2565 0.43703 0.0
C1746 C 0.04704 0.23657 0.42138 0.0
C1747 C 0.05143 0.21695 0.43096 0.0
C1748 C 0.05342 0.21772 0.45618 0.0
C1749 C 0.05117 0.23708 0.47174 0.0
C1750 C 0.05363 0.23329 0.49806 0.0
C1751 C 0.07308 0.2521 0.51452 0.0
C1752 C 0.03278 0.23315 0.50784 0.0
C1753 C 0.05753 0.20872 0.49483 0.0
C1754 C 0.05728 0.19997 0.47057 0.0
C1755 C 0.05934 0.17706 0.46299 0.0
C1756 C 0.06143 0.16257 0.48072 0.0
C1757 C 0.06156 0.17121 0.50567 0.0
C1758 C 0.06002 0.19476 0.51274 0.0
H1759 H 0.6315 0.23777 0.2753 0.0
H1760 H 0.62875 0.29486 0.23339 0.0
H1761 H 0.6673 0.30218 0.23339 0.0
H1762 H 0.68456 0.26836 0.31335 0.0
H1763 H 0.69273 0.24104 0.31406 0.0
H1764 H 0.66467 0.24039 0.31114 0.0
H1765 H 0.65596 0.20837 0.27146 0.0
H1766 H 0.68408 0.20941 0.27399 0.0
H1767 H 0.66932 0.21484 0.24628 0.0
H1768 H 0.70523 0.3035 0.23686 0.0
H1769 H 0.74287 0.3018 0.24842 0.0
H1770 H 0.72233 0.24407 0.2878 0.0
C1771 C 0.63911 0.25198 0.26643 0.0
C1772 C 0.62704 0.26553 0.25413 0.0
C1773 C 0.63756 0.28403 0.24273 0.0
C1774 C 0.65947 0.28832 0.24251 0.0
C1775 C 0.67072 0.27412 0.25393 0.0
C1776 C 0.66116 0.25666 0.26611 0.0
C1777 C 0.67743 0.24459 0.27751 0.0
C1778 C 0.68 0.24886 0.30568 0.0
C1779 C 0.67132 0.2177 0.26665 0.0
C1780 C 0.69747 0.25796 0.26959 0.0
C1781 C 0.69307 0.27482 0.25588 0.0
C1782 C 0.70895 0.29028 0.24739 0.0
C1783 C 0.73015 0.28912 0.25386 0.0
C1784 C 0.73507 0.27249 0.26839 0.0
C1785 C 0.71862 0.25636 0.27597 0.0
H1786 H 0.54185 0.91226 0.94581 0.0
H1787 H 0.555 0.86088 0.99143 0.0
H1788 H 0.55246 0.88784 0.02803 0.0
H1789 H 0.57235 0.96538 0.99028 0.0
H1790 H 0.55355 0.98246 0.98192 0.0
H1791 H 0.55691 0.95921 0.95942 0.0
H1792 H 0.51584 0.93906 0.95147 0.0
H1793 H 0.51246 0.96208 0.97424 0.0
H1794 H 0.50335 0.93101 0.97682 0.0
H1795 H 0.54835 0.92022 0.05978 0.0
H1796 H 0.54519 0.95725 0.08464 0.0
H1797 H 0.5336 0.9865 0.01807 0.0
C1798 C 0.54436 0.90675 0.9635 0.0
C1799 C 0.5486 0.88444 0.9657 0.0
C1800 C 0.55177 0.87791 0.98924 0.0
C1801 C 0.55028 0.89304 0.01016 0.0
C1802 C 0.54566 0.91468 1.00729 0.0
C1803 C 0.54297 0.92166 0.98461 0.0
C1804 C 0.53839 0.94597 0.98662 0.0
C1805 C 0.55636 0.96433 0.97912 0.0
C1806 C 0.51618 0.94442 0.97138 0.0
C1807 C 0.53867 0.95136 0.0139 0.0
C1808 C 0.54296 0.93316 0.02553 0.0
C1809 C 0.54487 0.93459 0.05089 0.0
C1810 C 0.54294 0.95555 0.06484 0.0
C1811 C 0.53903 0.97458 0.05326 0.0
C1812 C 0.53635 0.97213 0.02743 0.0
H1813 H 1.00225 0.73656 0.79048 0.0
H1814 H 0.0419 0.80367 0.7789 0.0
H1815 H 0.01762 0.82526 0.79592 0.0
H1816 H 0.95271 0.74933 0.77132 0.0
H1817 H 0.93928 0.7346 0.79312 0.0
H1818 H 0.961 0.72477 0.78252 0.0
H1819 H 0.98125 0.73103 0.82754 0.0
H1820 H 0.95954 0.74085 0.83829 0.0
H1821 H 0.98669 0.75981 0.84715 0.0
H1822 H 0.98825 0.83917 0.81188 0.0
H1823 H 0.95451 0.84435 0.82372 0.0
H1824 H 0.93348 0.76809 0.82425 0.0
C1825 C 1.00605 0.75586 0.79205 0.0
C1826 C 0.02406 0.76854 0.78376 0.0
C1827 C 0.02822 0.79368 0.78536 0.0
C1828 C 1.01459 0.8061 0.79504 0.0
C1829 C 0.99682 0.79304 0.80284 0.0
C1830 C 0.99243 0.76848 0.80133 0.0
C1831 C 0.97133 0.7585 0.80908 0.0
C1832 C 0.95513 0.74076 0.78774 0.0
C1833 C 0.97493 0.74687 0.83188 0.0
C1834 C 0.96451 0.78129 0.81509 0.0
C1835 C 0.97955 0.80102 0.81158 0.0
C1836 C 0.97646 0.82392 0.81501 0.0
C1837 C 0.95732 0.82671 0.82191 0.0
C1838 C 0.94149 0.80667 0.82515 0.0
C1839 C 0.94533 0.78374 0.82197 0.0
H1840 H 0.11501 0.02865 0.89999 0.0
H1841 H 0.12321 0.10549 0.91013 0.0
H1842 H 0.11199 0.10484 0.95017 0.0
H1843 H 0.06662 0.01612 0.9257 0.0
H1844 H 0.07293 0.99214 0.94 0.0
H1845 H 0.08286 0.9986 0.91268 0.0
H1846 H 0.12184 1.00356 0.93544 0.0
H1847 H 0.112 0.99724 0.96287 0.0
H1848 H 0.1323 0.02459 0.96392 0.0
H1849 H 0.10085 0.09647 0.98951 0.0
H1850 H 0.08584 0.08019 0.02337 0.0
H1851 H 0.08165 1.00811 0.98737 0.0
C1852 C 0.11454 0.04531 0.91075 0.0
C1853 C 0.12018 0.06719 0.90195 0.0
C1854 C 0.11898 0.08854 0.9164 0.0
C1855 C 0.11273 0.08838 0.93928 0.0
C1856 C 0.10734 0.06665 0.94748 0.0
C1857 C 0.1078 0.0454 0.93354 0.0
C1858 C 0.09981 0.02437 0.94615 0.0
C1859 C 0.07934 1.00677 0.93018 0.0
C1860 C 0.11755 1.01169 0.95246 0.0
C1861 C 0.09495 0.03718 0.96932 0.0
C1862 C 0.09977 0.06161 0.9698 0.0
C1863 C 0.09693 0.07736 0.98929 0.0
C1864 C 0.08848 0.06791 0.00855 0.0
C1865 C 0.08253 0.04286 1.00811 0.0
C1866 C 0.08611 0.02734 0.98831 0.0
H1867 H 0.76493 0.36898 0.59587 0.0
H1868 H 0.71189 0.31433 0.54812 0.0
H1869 H 0.71335 0.28769 0.5788 0.0
H1870 H 0.79485 0.32999 0.61579 0.0
H1871 H 0.80412 0.34681 0.64664 0.0
H1872 H 0.79781 0.36185 0.62158 0.0
H1873 H 0.77094 0.37843 0.64406 0.0
H1874 H 0.77717 0.36335 0.66916 0.0
H1875 H 0.74966 0.3579 0.65355 0.0
H1876 H 0.72123 0.26705 0.61468 0.0
H1877 H 0.73576 0.25362 0.65226 0.0
H1878 H 0.78479 0.32154 0.67385 0.0
C1879 C 0.75347 0.3515 0.59189 0.0
C1880 C 0.73824 0.34369 0.56976 0.0
C1881 C 0.72364 0.32063 0.56511 0.0
C1882 C 0.72431 0.30543 0.58238 0.0
C1883 C 0.73966 0.3137 0.60402 0.0
C1884 C 0.75399 0.33618 0.60874 0.0
C1885 C 0.76953 0.34057 0.6328 0.0
C1886 C 0.79295 0.34505 0.62895 0.0
C1887 C 0.76664 0.36129 0.65096 0.0
C1888 C 0.76194 0.31687 0.64071 0.0
C1889 C 0.74455 0.30167 0.62414 0.0
C1890 C 0.73488 0.27877 0.62779 0.0
C1891 C 0.74332 0.27126 0.64904 0.0
C1892 C 0.76134 0.28659 0.666 0.0
C1893 C 0.77071 0.30958 0.66158 0.0
H1894 H 0.49336 0.01564 0.38391 0.0
H1895 H 0.46234 0.07121 0.40458 0.0
H1896 H 0.47871 0.07433 0.4481 0.0
H1897 H 0.48855 0.98708 0.43772 0.0
H1898 H 0.51464 0.98112 0.44074 0.0
H1899 H 0.50047 0.98287 0.411 0.0
H1900 H 0.53318 0.01557 0.40586 0.0
H1901 H 0.54745 1.01384 0.43554 0.0
H1902 H 0.54378 0.04218 0.42911 0.0
H1903 H 0.49834 0.07093 0.49142 0.0
H1904 H 0.52031 0.06287 0.52807 0.0
H1905 H 0.54044 1.01068 0.48095 0.0
C1906 C 0.49002 0.02856 0.39752 0.0
C1907 C 0.4762 0.04322 0.39001 0.0
C1908 C 0.47265 0.05973 0.40908 0.0
C1909 C 0.48195 0.06162 0.43419 0.0
C1910 C 0.49529 0.04701 0.44091 0.0
C1911 C 0.49949 0.03088 0.42302 0.0
C1912 C 0.51478 0.0176 0.43534 0.0
C1913 C 0.50397 0.99056 0.43093 0.0
C1914 C 0.53606 0.02259 0.42589 0.0
C1915 C 0.51845 0.02864 0.46275 0.0
C1916 C 0.50691 0.0455 0.46556 0.0
C1917 C 0.50747 0.05781 0.48915 0.0
C1918 C 0.52008 0.05307 0.51012 0.0
C1919 C 0.53247 0.03617 0.50803 0.0
C1920 C 0.53139 0.02381 0.48366 0.0
H1921 H 0.81228 0.70819 0.13462 0.0
H1922 H 0.76492 0.73776 0.09514 0.0
H1923 H 0.76032 0.75863 0.13449 0.0
H1924 H 0.78668 0.69757 0.18454 0.0
H1925 H 0.81098 0.7062 0.20767 0.0
H1926 H 0.81178 0.69465 0.17643 0.0
H1927 H 0.84129 0.73279 0.17522 0.0
H1928 H 0.8408 0.74433 0.2066 0.0
H1929 H 0.83659 0.76184 0.18302 0.0
H1930 H 0.75783 0.77275 0.17838 0.0
H1931 H 0.76148 0.78377 0.22337 0.0
H1932 H 0.81206 0.74745 0.23468 0.0
C1933 C 0.8013 0.7195 0.13417 0.0
C1934 C 0.78905 0.72135 0.11157 0.0
C1935 C 0.7747 0.73618 0.11201 0.0
C1936 C 0.77183 0.748 0.13436 0.0
C1937 C 0.78365 0.7452 0.15625 0.0
C1938 C 0.79846 0.73174 0.15634 0.0
C1939 C 0.80902 0.73159 0.1825 0.0
C1940 C 0.80433 0.70598 0.1881 0.0
C1941 C 0.83337 0.74334 0.1871 0.0
C1942 C 0.79765 0.74681 0.19707 0.0
C1943 C 0.78289 0.75423 0.18155 0.0
C1944 C 0.7696 0.76736 0.19068 0.0
C1945 C 0.77169 0.77342 0.21628 0.0
C1946 C 0.78717 0.76669 0.23257 0.0
C1947 C 0.80029 0.75317 0.22272 0.0
H1948 H 0.13021 0.08218 0.75077 0.0
H1949 H 0.08831 0.0206 0.76962 0.0
H1950 H 0.06688 1.01054 0.72711 0.0
H1951 H 0.08733 0.09781 0.70874 0.0
H1952 H 0.1051 0.107 0.6881 0.0
H1953 H 0.11577 0.11035 0.72044 0.0
H1954 H 0.14247 0.08573 0.71022 0.0
H1955 H 0.13179 0.0821 0.67791 0.0
H1956 H 0.13227 0.05611 0.69185 0.0
H1957 H 0.05347 1.00427 0.68142 0.0
H1958 H 0.04609 1.00454 0.63681 0.0
H1959 H 0.09489 0.07205 0.64794 0.0
C1960 C 0.11608 0.06704 0.74605 0.0
C1961 C 0.11052 0.05236 0.76342 0.0
C1962 C 0.0924 0.03229 0.75663 0.0
C1963 C 0.08029 0.02642 0.73253 0.0
C1964 C 0.0864 0.04101 0.71563 0.0
C1965 C 0.10362 0.0612 0.72221 0.0
C1966 C 0.10722 0.07345 0.70036 0.0
C1967 C 0.10363 0.09865 0.70467 0.0
C1968 C 0.12977 0.07439 0.69476 0.0
C1969 C 0.08973 0.05663 0.68026 0.0
C1970 C 0.07801 0.03795 0.68947 0.0
C1971 C 0.06221 0.01907 0.67413 0.0
C1972 C 0.05822 0.01931 0.64881 0.0
C1973 C 0.06972 0.03846 0.63903 0.0
C1974 C 0.08554 0.05747 0.65503 0.0
H1975 H 0.73426 0.32947 0.42579 0.0
H1976 H 0.76637 0.30137 0.48447 0.0
H1977 H 0.7818 0.27903 0.45445 0.0
H1978 H 0.72369 0.27596 0.37641 0.0
H1979 H 0.72927 0.29457 0.35374 0.0
H1980 H 0.71787 0.30477 0.37921 0.0
H1981 H 0.74941 0.34354 0.3905 0.0
H1982 H 0.76106 0.33321 0.36541 0.0
H1983 H 0.77674 0.34113 0.39622 0.0
H1984 H 0.79755 0.2642 0.41893 0.0
H1985 H 0.81023 0.25601 0.37977 0.0
H1986 H 0.76786 0.2945 0.3456 0.0
C1987 C 0.74386 0.31791 0.43218 0.0
C1988 C 0.74902 0.31695 0.45731 0.0
C1989 C 0.76215 0.30219 0.46516 0.0
C1990 C 0.771 0.28946 0.4483 0.0
C1991 C 0.76644 0.29169 0.42375 0.0
C1992 C 0.75294 0.30531 0.41566 0.0
C1993 C 0.75218 0.30663 0.38882 0.0
C1994 C 0.7294 0.29476 0.37366 0.0
C1995 C 0.76034 0.33266 0.38505 0.0
C1996 C 0.7677 0.29212 0.38329 0.0
C1997 C 0.77571 0.28349 0.4035 0.0
C1998 C 0.79115 0.27056 0.40284 0.0
C1999 C 0.79834 0.26612 0.3807 0.0
C2000 C 0.79013 0.27483 0.35993 0.0
C2001 C 0.77463 0.28787 0.36132 0.0
H2002 H 0.43455 0.05177 0.2129 0.0
H2003 H 0.48751 0.04995 0.26942 0.0
H2004 H 0.50977 0.0465 0.23816 0.0
H2005 H 0.44481 1.00845 0.16492 0.0
H2006 H 0.43842 0.02347 0.13978 0.0
H2007 H 0.42606 0.02662 0.16631 0.0
H2008 H 0.44011 0.07264 0.17227 0.0
H2009 H 0.45241 0.06954 0.14569 0.0
H2010 H 0.46849 0.08603 0.1748 0.0
H2011 H 0.52763 0.04309 0.20062 0.0
H2012 H 0.53907 0.03955 0.16089 0.0
H2013 H 0.47603 0.04217 0.1246 0.0
C2014 C 0.4509 0.05089 0.21885 0.0
C2015 C 0.45883 0.0514 0.24466 0.0
C2016 C 0.48045 0.04975 0.25055 0.0
C2017 C 0.49347 0.04774 0.2326 0.0
C2018 C 0.48525 0.04712 0.20778 0.0
C2019 C 0.4644 0.04862 0.20072 0.0
C2020 C 0.45984 0.04709 0.17235 0.0
C2021 C 0.44116 0.02511 0.16011 0.0
C2022 C 0.45491 0.0702 0.16589 0.0
C2023 C 0.48119 0.04441 0.16473 0.0
C2024 C 0.49554 0.04466 0.18578 0.0
C2025 C 0.51634 0.04283 0.18418 0.0
C2026 C 0.52278 0.04078 0.16105 0.0
C2027 C 0.50887 0.04032 0.13854 0.0
C2028 C 0.48744 0.04214 0.14083 0.0
H2029 H 0.77277 0.74352 0.98214 0.0
H2030 H 0.78639 0.67597 0.95773 0.0
H2031 H 0.79202 0.68844 0.91825 0.0
H2032 H 0.74573 0.7514 0.92327 0.0
H2033 H 0.75793 0.78319 0.92793 0.0
H2034 H 0.75386 0.76875 0.95396 0.0
H2035 H 0.79443 0.78526 0.97303 0.0
H2036 H 0.7986 0.79981 0.9471 0.0
H2037 H 0.81409 0.7793 0.95536 0.0
H2038 H 0.79455 0.7073 0.88048 0.0
H2039 H 0.79862 0.7331 0.8492 0.0
H2040 H 0.78729 0.79076 0.89858 0.0
C2041 C 0.77686 0.73134 0.96841 0.0
C2042 C 0.77892 0.70855 0.97304 0.0
C2043 C 0.78468 0.69341 0.95472 0.0
C2044 C 0.78782 0.70033 0.93214 0.0
C2045 C 0.78563 0.72278 0.9281 0.0
C2046 C 0.78068 0.73829 0.94588 0.0
C2047 C 0.78059 0.76199 0.93722 0.0
C2048 C 0.75819 0.7666 0.9355 0.0
C2049 C 0.79796 0.78282 0.95419 0.0
C2050 C 0.78606 0.75725 0.91178 0.0
C2051 C 0.78853 0.73433 0.90683 0.0
C2052 C 0.79285 0.72535 0.8843 0.0
C2053 C 0.79504 0.74018 0.86653 0.0
C2054 C 0.79338 0.76408 0.8713 0.0
C2055 C 0.78876 0.77265 0.89434 0.0
H2056 H 0.88665 0.10436 0.10927 0.0
H2057 H 0.89075 0.15943 0.06406 0.0
H2058 H 0.90448 0.13476 0.0338 0.0
H2059 H 0.93394 0.08957 0.1009 0.0
H2060 H 0.92321 0.05807 0.10062 0.0
H2061 H 0.91254 0.07966 0.11712 0.0
H2062 H 0.87417 0.05783 0.09222 0.0
H2063 H 0.88483 0.03632 0.07536 0.0
H2064 H 0.86931 0.05317 0.05911 0.0
H2065 H 0.92167 0.10551 0.0113 0.0
H2066 H 0.94116 0.0753 0.99963 0.0
H2067 H 0.92195 0.03877 0.05822 0.0
C2068 C 0.89041 0.1113 0.09301 0.0
C2069 C 0.88794 0.13383 0.08904 0.0
C2070 C 0.89271 0.14216 0.0674 0.0
C2071 C 0.90034 0.12824 0.0501 0.0
C2072 C 0.90254 0.10594 0.05461 0.0
C2073 C 0.89755 0.09756 0.07552 0.0
C2074 C 0.90216 0.0737 0.07701 0.0
C2075 C 0.91896 0.07537 0.10027 0.0
C2076 C 0.88137 0.0541 0.07584 0.0
C2077 C 0.91116 0.07013 0.05399 0.0
C2078 C 0.91123 0.08877 0.04113 0.0
C2079 C 0.92119 0.09052 0.02083 0.0
C2080 C 0.93205 0.07325 0.0142 0.0
C2081 C 0.93273 0.05474 0.02795 0.0
C2082 C 0.92132 0.05262 0.04725 0.0
H2083 H 0.40144 0.47637 0.107 0.0
H2084 H 0.39867 0.40925 0.06074 0.0
H2085 H 0.43489 0.42627 0.05349 0.0
H2086 H 0.43103 0.51551 0.07131 0.0
H2087 H 0.44742 0.53671 0.09775 0.0
H2088 H 0.42086 0.51964 0.09933 0.0
H2089 H 0.43688 0.50406 0.13717 0.0
H2090 H 0.46349 0.52106 0.13569 0.0
H2091 H 0.458 0.48923 0.13508 0.0
H2092 H 0.47146 0.45014 0.05044 0.0
H2093 H 0.50626 0.47968 0.05264 0.0
H2094 H 0.48705 0.53131 0.10169 0.0
C2095 C 0.40844 0.46532 0.09529 0.0
C2096 C 0.39696 0.44133 0.08452 0.0
C2097 C 0.40693 0.42755 0.06941 0.0
C2098 C 0.42761 0.43708 0.06508 0.0
C2099 C 0.43853 0.46054 0.07603 0.0
C2100 C 0.4294 0.47454 0.0909 0.0
C2101 C 0.44503 0.49917 0.10062 0.0
C2102 C 0.43552 0.51892 0.09172 0.0
C2103 C 0.45121 0.50364 0.12881 0.0
C2104 C 0.46418 0.4967 0.08883 0.0
C2105 C 0.45999 0.47426 0.07464 0.0
C2106 C 0.47497 0.46776 0.06158 0.0
C2107 C 0.49473 0.48464 0.06294 0.0
C2108 C 0.4995 0.50776 0.07738 0.0
C2109 C 0.48398 0.51372 0.0906 0.0
H2110 H 0.39231 0.56027 0.75465 0.0
H2111 H 0.43778 0.57846 0.82413 0.0
H2112 H 0.4246 0.61392 0.83573 0.0
H2113 H 0.39613 0.62087 0.74453 0.0
H2114 H 0.36787 0.61484 0.73167 0.0
H2115 H 0.38125 0.59125 0.72848 0.0
H2116 H 0.35328 0.56498 0.74859 0.0
H2117 H 0.33978 0.58845 0.75176 0.0
H2118 H 0.34896 0.57665 0.77837 0.0
H2119 H 0.40623 0.64701 0.83998 0.0
H2120 H 0.38325 0.67497 0.83711 0.0
H2121 H 0.34927 0.63462 0.76521 0.0
C2122 C 0.3996 0.57176 0.77227 0.0
C2123 C 0.41615 0.56665 0.78848 0.0
C2124 C 0.42512 0.58204 0.81142 0.0
C2125 C 0.41776 0.60224 0.81815 0.0
C2126 C 0.40143 0.60674 0.80174 0.0
C2127 C 0.39241 0.59192 0.7793 0.0
C2128 C 0.37467 0.60044 0.7653 0.0
C2129 C 0.38033 0.60726 0.74106 0.0
C2130 C 0.35289 0.5815 0.76075 0.0
C2131 C 0.37508 0.62233 0.78345 0.0
C2132 C 0.39069 0.6257 0.80429 0.0
C2133 C 0.39393 0.64454 0.82378 0.0
C2134 C 0.38074 0.66025 0.82202 0.0
C2135 C 0.36444 0.65696 0.80098 0.0
C2136 C 0.36177 0.63782 0.7814 0.0
H2137 H 0.28029 0.67075 0.63327 0.0
H2138 H 0.3029 0.60722 0.61694 0.0
H2139 H 0.26735 0.58183 0.61929 0.0
H2140 H 0.24518 0.64819 0.67527 0.0
H2141 H 0.22513 0.66266 0.66375 0.0
H2142 H 0.25314 0.67572 0.6638 0.0
H2143 H 0.24373 0.67558 0.61701 0.0
H2144 H 0.21578 0.66234 0.61678 0.0
H2145 H 0.22966 0.64784 0.59648 0.0
H2146 H 0.22818 0.56337 0.61889 0.0
H2147 H 0.18893 0.55351 0.61813 0.0
H2148 H 0.19259 0.62933 0.634 0.0
C2149 C 0.278 0.65153 0.63073 0.0
C2150 C 0.2944 0.64099 0.62498 0.0
C2151 C 0.29061 0.61573 0.62153 0.0
C2152 C 0.27047 0.60115 0.62279 0.0
C2153 C 0.25444 0.61215 0.62768 0.0
C2154 C 0.25807 0.63678 0.63184 0.0
C2155 C 0.23786 0.64419 0.63508 0.0
C2156 C 0.24049 0.65853 0.66102 0.0
C2157 C 0.23139 0.65831 0.61515 0.0
C2158 C 0.22216 0.61985 0.63163 0.0
C2159 C 0.23198 0.60156 0.62748 0.0
C2160 C 0.22036 0.57753 0.62247 0.0
C2161 C 0.19811 0.57211 0.62187 0.0
C2162 C 0.18787 0.59068 0.62622 0.0
C2163 C 0.20011 0.61478 0.63116 0.0
H2164 H 0.70666 0.92659 0.83064 0.0
H2165 H 0.75307 0.97291 0.79854 0.0
H2166 H 0.77355 0.94248 0.79598 0.0
H2167 H 0.74507 0.89999 0.86588 0.0
H2168 H 0.72745 0.87008 0.85987 0.0
H2169 H 0.71628 0.89554 0.86023 0.0
H2170 H 0.69415 0.87771 0.81656 0.0
H2171 H 0.70526 0.85221 0.81614 0.0
H2172 H 0.70772 0.86987 0.79217 0.0
H2173 H 0.79117 0.90689 0.79839 0.0
H2174 H 0.8018 0.86957 0.80178 0.0
H2175 H 0.7436 0.8413 0.82855 0.0
C2176 C 0.72117 0.9305 0.8231 0.0
C2177 C 0.72791 0.95328 0.815 0.0
C2178 C 0.74705 0.95644 0.80506 0.0
C2179 C 0.75903 0.93892 0.80353 0.0
C2180 C 0.75206 0.91707 0.81155 0.0
C2181 C 0.73333 0.91256 0.82087 0.0
C2182 C 0.72929 0.88692 0.82734 0.0
C2183 C 0.72952 0.88821 0.85497 0.0
C2184 C 0.70782 0.87071 0.81216 0.0
C2185 C 0.74852 0.87783 0.82026 0.0
C2186 C 0.76156 0.89594 0.81157 0.0
C2187 C 0.78075 0.89272 0.80494 0.0
C2188 C 0.78678 0.87104 0.80701 0.0
C2189 C 0.77389 0.85137 0.81518 0.0
C2190 C 0.75413 0.85523 0.82182 0.0
H2191 H 0.78421 0.97339 0.61621 0.0
H2192 H 0.76713 0.91799 0.55107 0.0
H2193 H 0.73238 0.92754 0.54008 0.0
H2194 H 0.73088 0.96337 0.63063 0.0
H2195 H 0.73307 0.99465 0.64076 0.0
H2196 H 0.75689 0.98387 0.64358 0.0
H2197 H 0.774 0.01503 0.61867 0.0
H2198 H 0.75024 0.0259 0.6158 0.0
H2199 H 0.75972 0.01589 0.58868 0.0
H2200 H 0.69916 0.94281 0.53592 0.0
H2201 H 0.67022 0.96293 0.53854 0.0
H2202 H 0.70767 1.00831 0.60678 0.0
C2203 C 0.77322 0.96336 0.59954 0.0
C2204 C 0.77864 0.94491 0.58446 0.0
C2205 C 0.76358 0.9322 0.56294 0.0
C2206 C 0.7437 0.93749 0.55653 0.0
C2207 C 0.73884 0.95561 0.57177 0.0
C2208 C 0.75315 0.96841 0.59284 0.0
C2209 C 0.74374 0.98691 0.60602 0.0
C2210 C 0.74098 0.98189 0.63177 0.0
C2211 C 0.75776 1.01244 0.60737 0.0
C2212 C 0.72196 0.9825 0.58906 0.0
C2213 C 0.71952 0.96433 0.56945 0.0
C2214 C 0.70088 0.95698 0.55129 0.0
C2215 C 0.68435 0.96846 0.5531 0.0
C2216 C 0.68625 0.98723 0.57298 0.0
C2217 C 0.70551 0.99423 0.59119 0.0
H2218 H 0.41258 0.42626 0.80918 0.0
H2219 H 0.37949 0.44841 0.74646 0.0
H2220 H 0.34814 0.41408 0.743 0.0
H2221 H 0.39119 0.3613 0.7872 0.0
H2222 H 0.38837 0.35479 0.81726 0.0
H2223 H 0.40908 0.38026 0.81414 0.0
H2224 H 0.39441 0.40813 0.84322 0.0
H2225 H 0.37371 0.38274 0.84642 0.0
H2226 H 0.36648 0.40822 0.83613 0.0
H2227 H 0.32028 0.37801 0.74609 0.0
H2228 H 0.29648 0.34301 0.75691 0.0
H2229 H 0.34579 0.34495 0.81942 0.0
C2230 C 0.39883 0.4237 0.79455 0.0
C2231 C 0.39861 0.44004 0.77798 0.0
C2232 C 0.38013 0.43622 0.75936 0.0
C2233 C 0.36222 0.41669 0.75717 0.0
C2234 C 0.36288 0.40108 0.77382 0.0
C2235 C 0.38061 0.40432 0.79224 0.0
C2236 C 0.37653 0.38531 0.80833 0.0
C2237 C 0.39223 0.36949 0.80663 0.0
C2238 C 0.37786 0.3968 0.83511 0.0
C2239 C 0.35364 0.37124 0.79626 0.0
C2240 C 0.34631 0.38049 0.77615 0.0
C2241 C 0.32582 0.3706 0.7618 0.0
C2242 C 0.3124 0.35072 0.76814 0.0
C2243 C 0.31932 0.34104 0.78884 0.0
C2244 C 0.34022 0.35157 0.80317 0.0
H2245 H 0.20535 0.61383 0.35628 0.0
H2246 H 0.24152 0.57607 0.31393 0.0
H2247 H 0.26239 0.6146 0.30631 0.0
H2248 H 0.2032 0.65992 0.3191 0.0
H2249 H 0.207 0.68407 0.34446 0.0
H2250 H 0.19474 0.65369 0.34728 0.0
H2251 H 0.22342 0.65758 0.38603 0.0
H2252 H 0.23572 0.68801 0.38338 0.0
H2253 H 0.25158 0.66663 0.38452 0.0
H2254 H 0.27855 0.65773 0.3006 0.0
H2255 H 0.29051 0.70088 0.30028 0.0
H2256 H 0.24679 0.71421 0.34837 0.0
C2257 C 0.21786 0.61357 0.34567 0.0
C2258 C 0.2215 0.59099 0.33595 0.0
C2259 C 0.23811 0.59235 0.32198 0.0
C2260 C 0.25014 0.61447 0.31737 0.0
C2261 C 0.24602 0.63604 0.32692 0.0
C2262 C 0.23046 0.63588 0.34113 0.0
C2263 C 0.22964 0.66198 0.34935 0.0
C2264 C 0.20731 0.6651 0.33947 0.0
C2265 C 0.23543 0.66896 0.3775 0.0
C2266 C 0.24698 0.67675 0.33746 0.0
C2267 C 0.25598 0.66114 0.32441 0.0
C2268 C 0.27165 0.66993 0.31103 0.0
C2269 C 0.27838 0.69485 0.31092 0.0
C2270 C 0.27004 0.71188 0.32435 0.0
C2271 C 0.25398 0.70228 0.33801 0.0
H2272 H 0.52006 0.6775 0.49276 0.0
H2273 H 0.57063 0.73019 0.54593 0.0
H2274 H 0.57807 0.69834 0.56768 0.0
H2275 H 0.50118 0.63851 0.5358 0.0
H2276 H 0.49686 0.61091 0.5146 0.0
H2277 H 0.49436 0.63774 0.50318 0.0
H2278 H 0.5225 0.63339 0.47614 0.0
H2279 H 0.525 0.60651 0.48741 0.0
H2280 H 0.54855 0.63103 0.49023 0.0
H2281 H 0.58087 0.66168 0.58393 0.0
H2282 H 0.58058 0.62167 0.59269 0.0
H2283 H 0.52908 0.58978 0.52936 0.0
C2284 C 0.53252 0.68234 0.50915 0.0
C2285 C 0.54459 0.70672 0.51766 0.0
C2286 C 0.56102 0.71195 0.53894 0.0
C2287 C 0.56538 0.69388 0.55154 0.0
C2288 C 0.55334 0.67024 0.54277 0.0
C2289 C 0.53732 0.66423 0.52199 0.0
C2290 C 0.5276 0.63698 0.51623 0.0
C2291 C 0.50357 0.63066 0.51752 0.0
C2292 C 0.53112 0.62635 0.491 0.0
C2293 C 0.54068 0.62878 0.53702 0.0
C2294 C 0.5553 0.64851 0.55206 0.0
C2295 C 0.56949 0.64612 0.57227 0.0
C2296 C 0.56916 0.62311 0.57709 0.0
C2297 C 0.55483 0.60221 0.56188 0.0
C2298 C 0.54008 0.60522 0.54163 0.0
H2299 H 0.64996 0.30656 0.76138 0.0
H2300 H 0.66764 0.30289 0.68962 0.0
H2301 H 0.70311 0.29823 0.70758 0.0
H2302 H 0.70379 0.34205 0.79487 0.0
H2303 H 0.70223 0.32763 0.8213 0.0
H2304 H 0.67801 0.33027 0.80275 0.0
H2305 H 0.66212 0.28438 0.7965 0.0
H2306 H 0.68637 0.28154 0.81481 0.0
H2307 H 0.67686 0.2647 0.78398 0.0
H2308 H 0.73634 0.29076 0.73308 0.0
H2309 H 0.76597 0.28754 0.7651 0.0
H2310 H 0.7291 0.30017 0.82101 0.0
C2311 C 0.66136 0.305 0.74949 0.0
C2312 C 0.65574 0.30515 0.72391 0.0
C2313 C 0.67137 0.3031 0.7092 0.0
C2314 C 0.69163 0.30023 0.71925 0.0
C2315 C 0.69656 0.2999 0.74434 0.0
C2316 C 0.68206 0.30279 0.7594 0.0
C2317 C 0.69189 0.30289 0.78601 0.0
C2318 C 0.69411 0.32715 0.80219 0.0
C2319 C 0.67851 0.28214 0.7959 0.0
C2320 C 0.71394 0.29919 0.78348 0.0
C2321 C 0.71618 0.29716 0.7592 0.0
C2322 C 0.73479 0.29274 0.75218 0.0
C2323 C 0.75162 0.29089 0.77042 0.0
C2324 C 0.7502 0.29389 0.79552 0.0
C2325 C 0.73089 0.29793 0.80199 0.0
H2326 H 1.0004 0.3435 0.02119 0.0
H2327 H 0.06155 0.3432 0.99962 0.0
H2328 H 0.07467 0.3867 0.01474 0.0
H2329 H 0.99762 0.40018 1.00317 0.0
H2330 H 0.9858 0.41008 0.02841 0.0
H2331 H 0.98104 0.37851 0.01709 0.0
H2332 H 0.99548 0.37216 0.06071 0.0
H2333 H 1.00021 0.40371 0.07217 0.0
H2334 H 0.02192 0.38959 0.07677 0.0
H2335 H 0.08162 0.42957 0.03161 0.0
H2336 H 0.08225 0.47054 0.04846 0.0
H2337 H 1.01626 0.44627 0.05874 0.0
C2338 C 1.01664 0.35259 0.01993 0.0
C2339 C 0.03003 0.33967 0.00931 0.0
C2340 C 0.05099 0.35244 1.00765 0.0
C2341 C 0.05861 0.37724 0.01623 0.0
C2342 C 0.04507 0.38941 0.02632 0.0
C2343 C 0.02449 0.37768 0.02819 0.0
C2344 C 1.01324 0.39565 0.03917 0.0
C2345 C 0.99324 0.39613 0.02087 0.0
C2346 C 1.00737 0.38993 0.06366 0.0
C2347 C 0.03079 0.41922 0.04319 0.0
C2348 C 0.04897 0.41486 0.0357 0.0
C2349 C 0.06749 0.43319 0.03756 0.0
C2350 C 0.06764 0.45659 0.04735 0.0
C2351 C 0.04937 0.46206 0.05526 0.0
C2352 C 0.03053 0.44292 0.05294 0.0
H2353 H 0.0186 0.81573 0.21642 0.0
H2354 H 0.03117 0.74952 0.23386 0.0
H2355 H 0.99832 0.74103 0.25124 0.0
H2356 H 0.99816 0.83086 0.27199 0.0
H2357 H 0.97781 0.84309 0.25692 0.0
H2358 H 1.00223 0.84415 0.24526 0.0
H2359 H 0.97973 0.82217 0.20257 0.0
H2360 H 0.95526 0.82096 0.21417 0.0
H2361 H 0.96036 0.79377 0.20007 0.0
H2362 H 0.9636 0.73845 0.2655 0.0
H2363 H 0.93059 0.74349 0.27896 0.0
H2364 H 0.94029 0.81256 0.25541 0.0
C2365 C 1.01445 0.79949 0.22395 0.0
C2366 C 0.02768 0.7833 0.22365 0.0
C2367 C 0.02156 0.7623 0.23383 0.0
C2368 C 1.00279 0.75723 0.24371 0.0
C2369 C 0.99011 0.77335 0.24363 0.0
C2370 C 0.99572 0.79421 0.23428 0.0
C2371 C 0.97929 0.80866 0.2372 0.0
C2372 C 0.99002 0.83314 0.25383 0.0
C2373 C 0.96799 0.81156 0.212 0.0
C2374 C 0.96366 0.7926 0.24954 0.0
C2375 C 0.97023 0.77226 0.25282 0.0
C2376 C 0.95846 0.75448 0.26335 0.0
C2377 C 0.9397 0.75765 0.27116 0.0
C2378 C 0.93272 0.77865 0.26886 0.0
C2379 C 0.94491 0.79623 0.25752 0.0
H2380 H 0.5651 0.31343 0.16457 0.0
H2381 H 0.54716 0.33884 0.23286 0.0
H2382 H 0.54759 0.37777 0.2196 0.0
H2383 H 0.60162 0.36735 0.16086 0.0
H2384 H 0.59432 0.36361 0.1279 0.0
H2385 H 0.59164 0.33772 0.14249 0.0
H2386 H 0.55126 0.32249 0.12163 0.0
H2387 H 0.55387 0.34824 0.1068 0.0
H2388 H 0.53373 0.34182 0.12547 0.0
H2389 H 0.55193 0.4146 0.19909 0.0
H2390 H 0.55803 0.44517 0.17234 0.0
H2391 H 0.57195 0.39355 0.11798 0.0
C2392 C 0.56109 0.32707 0.17674 0.0
C2393 C 0.55612 0.32327 0.19972 0.0
C2394 C 0.55091 0.3415 0.21508 0.0
C2395 C 0.55119 0.36361 0.20776 0.0
C2396 C 0.55657 0.36688 0.18506 0.0
C2397 C 0.56123 0.34897 0.16975 0.0
C2398 C 0.56676 0.35674 0.14644 0.0
C2399 C 0.58996 0.35633 0.14432 0.0
C2400 C 0.55042 0.34142 0.12375 0.0
C2401 C 0.56464 0.38196 0.15102 0.0
C2402 C 0.55882 0.38765 0.17335 0.0
C2403 C 0.55635 0.41029 0.1815 0.0
C2404 C 0.55981 0.42747 0.16624 0.0
C2405 C 0.56565 0.4217 0.14326 0.0
C2406 C 0.56797 0.39865 0.13568 0.0
H2407 H 0.95955 0.32313 0.39979 0.0
H2408 H 0.98271 0.30184 0.33362 0.0
H2409 H 0.94674 0.29633 0.3089 0.0
H2410 H 0.90911 0.28141 0.38399 0.0
H2411 H 0.8945 0.30112 0.39671 0.0
H2412 H 0.92259 0.3056 0.40924 0.0
H2413 H 0.93058 0.34935 0.40158 0.0
H2414 H 0.90246 0.345 0.38901 0.0
H2415 H 0.92252 0.3551 0.37116 0.0
H2416 H 0.90832 0.28869 0.29203 0.0
H2417 H 0.86883 0.28129 0.28327 0.0
H2418 H 0.87015 0.30924 0.35952 0.0
C2419 C 0.95714 0.3177 0.38006 0.0
C2420 C 0.97394 0.31298 0.36863 0.0
C2421 C 0.97012 0.3057 0.34279 0.0
C2422 C 0.94976 0.30253 0.32856 0.0
C2423 C 0.9335 0.30698 0.34041 0.0
C2424 C 0.93692 0.31461 0.3655 0.0
C2425 C 0.9163 0.31699 0.37366 0.0
C2426 C 0.91028 0.30028 0.39197 0.0
C2427 C 0.91807 0.34317 0.38448 0.0
C2428 C 0.9007 0.30882 0.34926 0.0
C2429 C 0.91107 0.30319 0.33038 0.0
C2430 C 0.90001 0.29341 0.30651 0.0
C2431 C 0.87766 0.28911 0.30177 0.0
C2432 C 0.86676 0.29482 0.32078 0.0
C2433 C 0.87835 0.30514 0.34472 0.0
H2434 H 0.04312 0.6708 0.69516 0.0
H2435 H 0.03374 0.72431 0.65092 0.0
H2436 H 0.0293 0.69477 0.6131 0.0
H2437 H 0.07623 0.64887 0.66138 0.0
H2438 H 0.06658 0.61807 0.6646 0.0
H2439 H 0.06505 0.64175 0.68784 0.0
H2440 H 0.02386 0.62355 0.68269 0.0
H2441 H 0.02543 0.59946 0.65989 0.0
H2442 H 1.00704 0.6173 0.65257 0.0
H2443 H 0.02854 0.65965 0.58013 0.0
H2444 H 0.03093 0.6219 0.55551 0.0
H2445 H 0.04494 0.5948 0.62295 0.0
C2446 C 0.03931 0.67605 0.67751 0.0
C2447 C 0.0384 0.69961 0.67585 0.0
C2448 C 0.03422 0.70615 0.65246 0.0
C2449 C 0.03174 0.68955 0.63093 0.0
C2450 C 0.03369 0.66669 0.63325 0.0
C2451 C 0.03729 0.65995 0.656 0.0
C2452 C 0.04099 0.63531 0.65388 0.0
C2453 C 0.06355 0.63607 0.66774 0.0
C2454 C 0.02327 0.61788 0.66277 0.0
C2455 C 0.0392 0.62937 0.62646 0.0
C2456 C 0.03466 0.64738 0.61469 0.0
C2457 C 0.03205 0.64539 0.58917 0.0
C2458 C 0.03361 0.62408 0.57536 0.0
C2459 C 0.03812 0.60553 0.58734 0.0
C2460 C 0.04142 0.6086 0.61319 0.0
H2461 H 0.60959 0.81291 0.89321 0.0
H2462 H 0.5773 0.83856 0.83259 0.0
H2463 H 0.6032 0.82899 0.80741 0.0
H2464 H 0.66389 0.83507 0.88323 0.0
H2465 H 0.67216 0.80943 0.89161 0.0
H2466 H 0.65153 0.81912 0.90498 0.0
H2467 H 0.62556 0.7767 0.88981 0.0
H2468 H 0.64606 0.76688 0.87634 0.0
H2469 H 0.62006 0.76366 0.85764 0.0
H2470 H 0.63166 0.81465 0.78826 0.0
H2471 H 0.66151 0.79844 0.77738 0.0
H2472 H 0.67484 0.78269 0.85086 0.0
C2473 C 0.60804 0.81676 0.87472 0.0
C2474 C 0.59145 0.82656 0.86487 0.0
C2475 C 0.58998 0.83124 0.84057 0.0
C2476 C 0.60456 0.82578 0.82611 0.0
C2477 C 0.62055 0.81584 0.83632 0.0
C2478 C 0.62245 0.81155 0.86014 0.0
C2479 C 0.64083 0.80047 0.86673 0.0
C2480 C 0.65813 0.81702 0.88789 0.0
C2481 C 0.63263 0.77544 0.87299 0.0
C2482 C 0.64889 0.79899 0.8428 0.0
C2483 C 0.63699 0.80788 0.82545 0.0
C2484 C 0.64116 0.80777 0.80174 0.0
C2485 C 0.65802 0.79842 0.79568 0.0
C2486 C 0.67049 0.78944 0.81331 0.0
C2487 C 0.66577 0.78976 0.83712 0.0
H2488 H 0.48024 0.53972 0.71959 0.0
H2489 H 0.49692 0.4748 0.73466 0.0
H2490 H 0.51632 0.47506 0.69998 0.0
H2491 H 0.47271 0.52699 0.65375 0.0
H2492 H 0.48512 0.55726 0.65075 0.0
H2493 H 0.47204 0.5518 0.67633 0.0
H2494 H 0.50708 0.5757 0.70675 0.0
H2495 H 0.52022 0.58141 0.68129 0.0
H2496 H 0.53181 0.56743 0.70483 0.0
H2497 H 0.53205 0.48102 0.66212 0.0
H2498 H 0.54776 0.49545 0.62776 0.0
H2499 H 0.52408 0.55862 0.6392 0.0
C2500 C 0.48804 0.5256 0.71561 0.0
C2501 C 0.48696 0.50712 0.72978 0.0
C2502 C 0.49758 0.48914 0.72416 0.0
C2503 C 0.50852 0.48907 0.70438 0.0
C2504 C 0.50906 0.50736 0.69062 0.0
C2505 C 0.4995 0.52558 0.69628 0.0
C2506 C 0.50341 0.54375 0.67928 0.0
C2507 C 0.48205 0.54501 0.66413 0.0
C2508 C 0.51641 0.56854 0.69391 0.0
C2509 C 0.51656 0.53281 0.66307 0.0
C2510 C 0.51926 0.51157 0.66968 0.0
C2511 C 0.53017 0.49772 0.65694 0.0
C2512 C 0.5389 0.50596 0.6373 0.0
C2513 C 0.5371 0.5281 0.63075 0.0
C2514 C 0.5257 0.54164 0.64381 0.0
H2515 H 0.7878 0.21185 0.04866 0.0
H2516 H 0.82233 0.27362 0.10437 0.0
H2517 H 0.80898 0.30016 0.07837 0.0
H2518 H 0.79973 0.2335 1.00031 0.0
H2519 H 0.77424 0.22065 0.97952 0.0
H2520 H 0.78154 0.20659 1.00485 0.0
H2521 H 0.74647 0.20937 0.02012 0.0
H2522 H 0.739 0.22349 0.9946 0.0
H2523 H 0.74042 0.23796 0.0256 0.0
H2524 H 0.80145 0.31929 0.04245 0.0
H2525 H 0.79902 0.32924 1.00109 0.0
H2526 H 0.76415 0.25555 0.96985 0.0
C2527 C 0.79183 0.23092 0.05564 0.0
C2528 C 0.80606 0.24093 0.07819 0.0
C2529 C 0.81128 0.26581 0.08705 0.0
C2530 C 0.80367 0.28092 0.07249 0.0
C2531 C 0.79027 0.2706 0.0497 0.0
C2532 C 0.78388 0.24605 0.04164 0.0
C2533 C 0.77182 0.23955 0.01531 0.0
C2534 C 0.78249 0.22421 0.99908 0.0
C2535 C 0.74801 0.22684 0.01383 0.0
C2536 C 0.7743 0.26429 0.009 0.0
C2537 C 0.78459 0.28201 0.02919 0.0
C2538 C 0.79254 0.30577 0.02673 0.0
C2539 C 0.79099 0.31129 1.00305 0.0
C2540 C 0.78145 0.29311 0.98214 0.0
C2541 C 0.77164 0.2698 0.98546 0.0
H2542 H 0.10668 0.5136 0.26493 0.0
H2543 H 0.17068 0.52068 0.2489 0.0
H2544 H 0.15753 0.52569 0.20683 0.0
H2545 H 0.07871 0.47826 0.20349 0.0
H2546 H 0.05629 0.49145 0.20178 0.0
H2547 H 0.07064 0.48929 0.23127 0.0
H2548 H 0.07763 0.5349 0.24531 0.0
H2549 H 0.06341 0.5372 0.21581 0.0
H2550 H 0.09067 0.5552 0.22731 0.0
H2551 H 0.13761 0.53247 0.16524 0.0
H2552 H 0.11212 0.53464 0.12826 0.0
H2553 H 0.05963 0.51906 0.16739 0.0
C2554 C 0.11796 0.51609 0.2526 0.0
C2555 C 0.14011 0.51661 0.26114 0.0
C2556 C 0.15379 0.51987 0.24361 0.0
C2557 C 0.14642 0.52295 0.21933 0.0
C2558 C 0.1248 0.52236 0.21159 0.0
C2559 C 0.1106 0.51849 0.22758 0.0
C2560 C 0.08787 0.51738 0.21383 0.0
C2561 C 0.07246 0.49262 0.21252 0.0
C2562 C 0.07939 0.53736 0.22632 0.0
C2563 C 0.09158 0.52148 0.18797 0.0
C2564 C 0.11315 0.52471 0.18727 0.0
C2565 C 0.12068 0.52969 0.16578 0.0
C2566 C 0.10603 0.53106 0.14464 0.0
C2567 C 0.08364 0.52707 0.14421 0.0
C2568 C 0.07653 0.52215 0.16656 0.0
H2569 H 0.84512 0.84184 0.50727 0.0
H2570 H 0.78636 0.86406 0.50963 0.0
H2571 H 0.77502 0.85069 0.46476 0.0
H2572 H 0.85381 0.86171 0.45053 0.0
H2573 H 0.86417 0.8372 0.43926 0.0
H2574 H 0.86745 0.84712 0.47187 0.0
H2575 H 0.84875 0.80416 0.47684 0.0
H2576 H 0.84553 0.79409 0.44426 0.0
H2577 H 0.82238 0.78922 0.45874 0.0
H2578 H 0.76966 0.83501 0.42037 0.0
H2579 H 0.77083 0.81924 0.37787 0.0
H2580 H 0.83407 0.80883 0.40199 0.0
C2581 C 0.82973 0.84356 0.49834 0.0
C2582 C 0.81645 0.85375 0.51205 0.0
C2583 C 0.7967 0.85621 0.4996 0.0
C2584 C 0.79014 0.84866 0.4741 0.0
C2585 C 0.80361 0.83895 0.46111 0.0
C2586 C 0.82306 0.83647 0.47266 0.0
C2587 C 0.83477 0.8263 0.45392 0.0
C2588 C 0.85633 0.84415 0.4539 0.0
C2589 C 0.83804 0.802 0.45873 0.0
C2590 C 0.81876 0.82339 0.43008 0.0
C2591 C 0.80088 0.83067 0.43491 0.0
C2592 C 0.78358 0.82932 0.41634 0.0
C2593 C 0.78441 0.82021 0.39219 0.0
C2594 C 0.80252 0.81271 0.38644 0.0
C2595 C 0.82007 0.81454 0.40573 0.0
H2596 H 0.48322 0.53258 0.87922 0.0
H2597 H 0.51285 0.47646 0.85537 0.0
H2598 H 0.53194 0.4803 0.89766 0.0
H2599 H 0.53024 0.56903 0.9261 0.0
H2600 H 0.51416 0.57705 0.94768 0.0
H2601 H 0.50341 0.57128 0.91513 0.0
H2602 H 0.4706 0.53918 0.92134 0.0
H2603 H 0.48128 0.54483 0.95387 0.0
H2604 H 0.47499 0.51489 0.93645 0.0
H2605 H 0.54627 0.48786 0.94181 0.0
H2606 H 0.55596 0.49929 0.98663 0.0
H2607 H 0.51823 0.55137 0.98446 0.0
C2608 C 0.49397 0.52137 0.8829 0.0
C2609 C 0.49653 0.50422 0.86378 0.0
C2610 C 0.51056 0.48971 0.86949 0.0
C2611 C 0.52154 0.49177 0.89353 0.0
C2612 C 0.51851 0.50852 0.9119 0.0
C2613 C 0.50519 0.5232 0.90705 0.0
C2614 C 0.50448 0.53908 0.93077 0.0
C2615 C 0.51362 0.56569 0.92986 0.0
C2616 C 0.48147 0.53419 0.9359 0.0
C2617 C 0.51924 0.53071 0.94957 0.0
C2618 C 0.5271 0.51309 0.93802 0.0
C2619 C 0.54037 0.50175 0.95107 0.0
C2620 C 0.54571 0.50836 0.97663 0.0
C2621 C 0.5379 0.52625 0.9892 0.0
C2622 C 0.52465 0.53783 0.97539 0.0
H2623 H 0.87437 0.25746 0.17044 0.0
H2624 H 0.82923 0.18748 0.15769 0.0
H2625 H 0.80315 0.20499 0.17605 0.0
H2626 H 0.86568 0.27221 0.23008 0.0
H2627 H 0.86958 0.30375 0.22964 0.0
H2628 H 0.88241 0.28655 0.21063 0.0
H2629 H 0.86448 0.30038 0.17235 0.0
H2630 H 0.85112 0.31715 0.19131 0.0
H2631 H 0.83559 0.29479 0.1653 0.0
H2632 H 0.78314 0.22903 0.19763 0.0
H2633 H 0.77433 0.2552 0.23066 0.0
H2634 H 0.83414 0.30862 0.23471 0.0
C2635 C 0.85881 0.24606 0.17121 0.0
C2636 C 0.85322 0.22137 0.16185 0.0
C2637 C 0.83323 0.20659 0.16396 0.0
C2638 C 0.81835 0.21641 0.17422 0.0
C2639 C 0.82403 0.24098 0.18287 0.0
C2640 C 0.84406 0.2555 0.18228 0.0
C2641 C 0.84772 0.28025 0.19711 0.0
C2642 C 0.8675 0.28601 0.21811 0.0
C2643 C 0.84985 0.29927 0.18052 0.0
C2644 C 0.82693 0.2771 0.20673 0.0
C2645 C 0.81313 0.25463 0.19737 0.0
C2646 C 0.79363 0.2468 0.20486 0.0
C2647 C 0.7887 0.26179 0.22354 0.0
C2648 C 0.80349 0.28388 0.23475 0.0
C2649 C 0.82235 0.2921 0.22566 0.0
H2650 H 0.1059 0.51131 0.40243 0.0
H2651 H 0.15342 0.58006 0.42139 0.0
H2652 H 0.1414 0.58787 0.46083 0.0
H2653 H 0.06387 0.53354 0.42861 0.0
H2654 H 0.05289 0.50633 0.43936 0.0
H2655 H 0.06576 0.5052 0.41309 0.0
H2656 H 0.09184 0.48363 0.43442 0.0
H2657 H 0.07848 0.48446 0.46028 0.0
H2658 H 0.1072 0.49689 0.46486 0.0
H2659 H 0.12509 0.5876 0.50127 0.0
H2660 H 0.10378 0.58178 0.53402 0.0
H2661 H 0.06293 0.51566 0.48894 0.0
C2662 C 0.11391 0.52801 0.41488 0.0
C2663 C 0.13123 0.54491 0.40811 0.0
C2664 C 0.14046 0.56658 0.42541 0.0
C2665 C 0.13365 0.5712 0.44822 0.0
C2666 C 0.11682 0.55437 0.4543 0.0
C2667 C 0.10672 0.53332 0.43781 0.0
C2668 C 0.08807 0.51897 0.44842 0.0
C2669 C 0.06636 0.51581 0.43135 0.0
C2670 C 0.09162 0.49453 0.45222 0.0
C2671 C 0.08943 0.53491 0.47342 0.0
C2672 C 0.10645 0.5551 0.47654 0.0
C2673 C 0.11162 0.57192 0.49854 0.0
C2674 C 0.0993 0.5684 0.5174 0.0
C2675 C 0.08114 0.54843 0.51482 0.0
C2676 C 0.07635 0.53145 0.49204 0.0
H2677 H 0.8141 0.83358 0.63662 0.0
H2678 H 0.83549 0.90659 0.67725 0.0
H2679 H 0.83235 0.89153 0.71583 0.0
H2680 H 0.77453 0.81239 0.67351 0.0
H2681 H 0.7793 0.78313 0.6723 0.0
H2682 H 0.78373 0.79929 0.6475 0.0
H2683 H 0.82286 0.79547 0.65284 0.0
H2684 H 0.81856 0.77936 0.6777 0.0
H2685 H 0.84049 0.80604 0.68249 0.0
H2686 H 0.82781 0.86919 0.75039 0.0
H2687 H 0.81951 0.84097 0.77862 0.0
H2688 H 0.79912 0.78163 0.71698 0.0
C2689 C 0.81818 0.84638 0.65365 0.0
C2690 C 0.82516 0.87141 0.65369 0.0
C2691 C 0.83009 0.88743 0.67648 0.0
C2692 C 0.82842 0.87902 0.69863 0.0
C2693 C 0.82158 0.85442 0.69799 0.0
C2694 C 0.8163 0.83825 0.67613 0.0
C2695 C 0.80865 0.81274 0.68086 0.0
C2696 C 0.78515 0.80121 0.66776 0.0
C2697 C 0.82353 0.7975 0.673 0.0
C2698 C 0.81063 0.81717 0.70873 0.0
C2699 C 0.81829 0.8414 0.71811 0.0
C2700 C 0.82172 0.85019 0.74322 0.0
C2701 C 0.81698 0.83393 0.75918 0.0
C2702 C 0.80861 0.80899 0.7502 0.0
C2703 C 0.80555 0.80053 0.72452 0.0
H2704 H 0.73274 0.45823 0.60096 0.0
H2705 H 0.67618 0.40048 0.56639 0.0
H2706 H 0.65584 0.41563 0.59577 0.0
H2707 H 0.72176 0.46402 0.66568 0.0
H2708 H 0.73129 0.49621 0.67036 0.0
H2709 H 0.74291 0.47781 0.65079 0.0
H2710 H 0.73399 0.49991 0.61492 0.0
H2711 H 0.72274 0.51849 0.63442 0.0
H2712 H 0.70668 0.50143 0.60553 0.0
H2713 H 0.64024 0.44005 0.62306 0.0
H2714 H 0.62896 0.4749 0.63974 0.0
H2715 H 0.69581 0.51663 0.6595 0.0
C2716 C 0.7162 0.4484 0.6 0.0
C2717 C 0.706 0.42817 0.58156 0.0
C2718 C 0.68425 0.41607 0.58041 0.0
C2719 C 0.67268 0.4243 0.59726 0.0
C2720 C 0.68314 0.44446 0.61517 0.0
C2721 C 0.70441 0.45646 0.61653 0.0
C2722 C 0.71085 0.47996 0.6344 0.0
C2723 C 0.7277 0.47945 0.65663 0.0
C2724 C 0.71902 0.50117 0.62154 0.0
C2725 C 0.68945 0.48007 0.64165 0.0
C2726 C 0.67389 0.45903 0.63105 0.0
C2727 C 0.65225 0.45642 0.63184 0.0
C2728 C 0.64604 0.47641 0.64174 0.0
C2729 C 0.66154 0.49876 0.65079 0.0
C2730 C 0.68361 0.49987 0.65257 0.0
H2731 H 0.19843 0.11992 0.51245 0.0
H2732 H 0.23233 0.12033 0.58566 0.0
H2733 H 0.19796 0.1023 0.59724 0.0
H2734 H 0.14941 0.13118 0.52893 0.0
H2735 H 0.13143 0.11021 0.50334 0.0
H2736 H 0.15847 0.1246 0.50055 0.0
H2737 H 0.16559 0.08327 0.48828 0.0
H2738 H 0.13846 0.06881 0.49058 0.0
H2739 H 0.16086 0.06132 0.50796 0.0
H2740 H 0.16001 0.08512 0.60184 0.0
H2741 H 0.12186 0.06261 0.59665 0.0
H2742 H 0.11157 0.06907 0.51983 0.0
C2743 C 0.19857 0.11611 0.53086 0.0
C2744 C 0.21829 0.12166 0.54814 0.0
C2745 C 0.21765 0.11614 0.57198 0.0
C2746 C 0.1981 0.1061 0.57886 0.0
C2747 C 0.17901 0.10108 0.56164 0.0
C2748 C 0.17905 0.10527 0.53791 0.0
C2749 C 0.15627 0.09614 0.52255 0.0
C2750 C 0.14844 0.11677 0.51329 0.0
C2751 C 0.15524 0.0762 0.50107 0.0
C2752 C 0.14355 0.08633 0.5414 0.0
C2753 C 0.15702 0.08993 0.56397 0.0
C2754 C 0.1493 0.08229 0.58427 0.0
C2755 C 0.12751 0.06976 0.58125 0.0
C2756 C 0.11352 0.06474 0.55811 0.0
C2757 C 0.12165 0.07343 0.53798 0.0
H2758 H 0.21008 1.00674 0.78987 0.0
H2759 H 0.17712 0.98995 0.8496 0.0
H2760 H 0.19235 0.95518 0.85198 0.0
H2761 H 0.20294 0.94616 0.76027 0.0
H2762 H 0.22913 0.95206 0.75205 0.0
H2763 H 0.21563 0.97555 0.75504 0.0
H2764 H 0.24864 1.00256 0.78676 0.0
H2765 H 0.26227 0.97919 0.7838 0.0
H2766 H 0.2586 0.99159 0.81363 0.0
H2767 H 0.21107 0.92199 0.84752 0.0
H2768 H 0.23237 0.89354 0.83714 0.0
H2769 H 0.25358 0.93297 0.78104 0.0
C2770 C 0.20603 0.99577 0.80347 0.0
C2771 C 0.19236 1.00104 0.81954 0.0
C2772 C 0.18755 0.98626 0.8371 0.0
C2773 C 0.1961 0.96646 0.83857 0.0
C2774 C 0.20946 0.96175 0.82238 0.0
C2775 C 0.21445 0.97604 0.80522 0.0
C2776 C 0.22934 0.96728 0.7901 0.0
C2777 C 0.21861 0.95982 0.76275 0.0
C2778 C 0.25099 0.98629 0.79381 0.0
C2779 C 0.23194 0.94579 0.80141 0.0
C2780 C 0.22033 0.94284 0.81996 0.0
C2781 C 0.22028 0.92418 0.83308 0.0
C2782 C 0.23252 0.90818 0.82713 0.0
C2783 C 0.24466 0.91098 0.80826 0.0
C2784 C 0.24424 0.93007 0.79529 0.0
H2785 H 0.29971 0.92188 0.01001 0.0
H2786 H 0.28814 0.95634 0.07854 0.0
H2787 H 0.32238 0.98751 0.08332 0.0
H2788 H 0.35353 0.92832 0.03036 0.0
H2789 H 0.36153 0.9333 1.00166 0.0
H2790 H 0.3347 0.91617 1.00171 0.0
H2791 H 0.3189 0.94489 0.97744 0.0
H2792 H 0.34578 0.96211 0.97724 0.0
H2793 H 0.3271 0.97664 0.9893 0.0
H2794 H 0.36002 1.01161 0.08316 0.0
H2795 H 0.3975 0.02695 0.07756 0.0
H2796 H 0.38365 0.97576 0.00955 0.0
C2797 C 0.30403 0.93629 0.02574 0.0
C2798 C 0.29123 0.93675 0.04386 0.0
C2799 C 0.29766 0.95574 0.06434 0.0
C2800 C 0.31705 0.97353 0.06719 0.0
C2801 C 0.32961 0.97208 0.0493 0.0
C2802 C 0.32324 0.95401 0.02888 0.0
C2803 C 0.34041 0.95496 0.01349 0.0
C2804 C 0.34798 0.93183 0.01173 0.0
C2805 C 0.33257 0.95996 0.98785 0.0
C2806 C 0.35768 0.97608 0.02872 0.0
C2807 C 0.35117 0.9859 0.0492 0.0
C2808 C 0.36515 1.00438 0.06694 0.0
C2809 C 0.38639 1.01287 0.0637 0.0
C2810 C 0.39329 1.00276 0.04294 0.0
C2811 C 0.37862 0.98437 0.02518 0.0
H2812 H 0.84499 0.61027 0.7699 0.0
H2813 H 0.90463 0.64153 0.82272 0.0
H2814 H 0.89465 0.67967 0.8295 0.0
H2815 H 0.84204 0.66505 0.7444 0.0
H2816 H 0.81336 0.66024 0.7418 0.0
H2817 H 0.82489 0.63503 0.74008 0.0
H2818 H 0.80704 0.62109 0.77549 0.0
H2819 H 0.79545 0.64626 0.77728 0.0
H2820 H 0.81188 0.64152 0.80419 0.0
H2821 H 0.87883 0.71673 0.83048 0.0
H2822 H 0.85837 0.74686 0.82777 0.0
H2823 H 0.80624 0.69449 0.77642 0.0
C2824 C 0.85607 0.62509 0.78292 0.0
C2825 C 0.87615 0.62184 0.79562 0.0
C2826 C 0.88941 0.64245 0.81251 0.0
C2827 C 0.88377 0.66465 0.81653 0.0
C2828 C 0.86425 0.66718 0.80396 0.0
C2829 C 0.85038 0.64782 0.78759 0.0
C2830 C 0.83002 0.65568 0.77718 0.0
C2831 C 0.82741 0.65388 0.74919 0.0
C2832 C 0.8099 0.64021 0.78392 0.0
C2833 C 0.83466 0.68228 0.79004 0.0
C2834 C 0.85473 0.68836 0.80524 0.0
C2835 C 0.86309 0.71177 0.81866 0.0
C2836 C 0.85109 0.72917 0.81688 0.0
C2837 C 0.83014 0.72419 0.80194 0.0
C2838 C 0.82197 0.69978 0.78828 0.0
H2839 H 0.84727 0.62373 0.03948 0.0
H2840 H 0.83434 0.62559 0.11346 0.0
H2841 H 0.86566 0.61028 0.1255 0.0
H2842 H 0.86381 0.56807 0.03664 0.0
H2843 H 0.88462 0.57727 0.01945 0.0
H2844 H 0.86142 0.58912 0.01628 0.0
H2845 H 0.8864 0.63224 0.02802 0.0
H2846 H 0.90968 0.6205 0.03135 0.0
H2847 H 0.90579 0.64077 0.0565 0.0
H2848 H 0.89877 0.59626 0.13066 0.0
H2849 H 0.92998 0.58025 0.12774 0.0
H2850 H 0.92183 0.58391 0.04994 0.0
C2851 C 0.85106 0.6209 0.05819 0.0
C2852 C 0.83817 0.62603 0.07551 0.0
C2853 C 0.84372 0.62184 0.09975 0.0
C2854 C 0.86163 0.6132 0.10687 0.0
C2855 C 0.87399 0.60846 0.08956 0.0
C2856 C 0.8689 0.61182 0.06562 0.0
C2857 C 0.88474 0.60432 0.05068 0.0
C2858 C 0.87294 0.58345 0.02951 0.0
C2859 C 0.8974 0.62574 0.04107 0.0
C2860 C 0.89943 0.59633 0.07002 0.0
C2861 C 0.89291 0.5992 0.09232 0.0
C2862 C 0.90383 0.59359 0.11319 0.0
C2863 C 0.92156 0.58428 0.11126 0.0
C2864 C 0.92834 0.58011 0.0885 0.0
C2865 C 0.91721 0.58672 0.06764 0.0
H2866 H 0.20185 0.12754 0.80254 0.0
H2867 H 0.20502 0.13653 0.88125 0.0
H2868 H 0.2334 0.17479 0.88687 0.0
H2869 H 0.25679 0.15052 0.80236 0.0
H2870 H 0.25257 0.16594 0.77697 0.0
H2871 H 0.23239 0.13976 0.77938 0.0
H2872 H 0.20382 0.164 0.77774 0.0
H2873 H 0.22393 0.1903 0.77532 0.0
H2874 H 0.20869 0.19135 0.79952 0.0
H2875 H 0.26414 0.20972 0.88369 0.0
H2876 H 0.29175 0.24105 0.87185 0.0
H2877 H 0.26539 0.21135 0.79494 0.0
C2878 C 0.20847 0.1377 0.82094 0.0
C2879 C 0.20154 0.12917 0.84154 0.0
C2880 C 0.21023 0.14292 0.86531 0.0
C2881 C 0.22633 0.16457 0.86863 0.0
C2882 C 0.23301 0.17241 0.84789 0.0
C2883 C 0.224 0.15962 0.82446 0.0
C2884 C 0.23362 0.17209 0.80517 0.0
C2885 C 0.24449 0.15612 0.79009 0.0
C2886 C 0.21649 0.1799 0.78845 0.0
C2887 C 0.25003 0.19351 0.82139 0.0
C2888 C 0.24955 0.19331 0.846 0.0
C2889 C 0.26437 0.2103 0.86449 0.0
C2890 C 0.28002 0.22791 0.85764 0.0
C2891 C 0.28043 0.2286 0.83256 0.0
C2892 C 0.26511 0.21137 0.81425 0.0
H2893 H 0.40128 0.96307 0.30625 0.0
H2894 H 0.34788 0.99552 0.30005 0.0
H2895 H 0.32309 0.95627 0.30112 0.0
H2896 H 0.37152 0.90559 0.26674 0.0
H2897 H 0.38521 0.88812 0.28441 0.0
H2898 H 0.39866 0.9187 0.28359 0.0
H2899 H 0.40571 0.92859 0.331 0.0
H2900 H 0.39222 0.89806 0.33196 0.0
H2901 H 0.38338 0.92238 0.34671 0.0
H2902 H 0.30376 0.91216 0.30555 0.0
H2903 H 0.29216 0.86929 0.30887 0.0
H2904 H 0.35711 0.86347 0.30865 0.0
C2905 C 0.38435 0.96208 0.30508 0.0
C2906 C 0.37691 0.98321 0.3032 0.0
C2907 C 0.3544 0.98026 0.30147 0.0
C2908 C 0.34009 0.95776 0.30216 0.0
C2909 C 0.34802 0.93754 0.30414 0.0
C2910 C 0.3697 0.9395 0.30521 0.0
C2911 C 0.37412 0.9149 0.30654 0.0
C2912 C 0.38291 0.90632 0.28398 0.0
C2913 C 0.38979 0.91605 0.33048 0.0
C2914 C 0.35168 0.89871 0.30633 0.0
C2915 C 0.33688 0.91226 0.30522 0.0
C2916 C 0.31535 0.9016 0.30601 0.0
C2917 C 0.3088 0.87696 0.30789 0.0
C2918 C 0.32331 0.86222 0.30847 0.0
C2919 C 0.34522 0.87364 0.30762 0.0
H2920 H 0.57159 0.37427 0.65019 0.0
H2921 H 0.62176 0.36138 0.61158 0.0
H2922 H 0.62014 0.396 0.59144 0.0
H2923 H 0.54141 0.39354 0.59909 0.0
H2924 H 0.53393 0.41616 0.61854 0.0
H2925 H 0.53842 0.39 0.62998 0.0
H2926 H 0.56668 0.41718 0.66674 0.0
H2927 H 0.5622 0.44335 0.65535 0.0
H2928 H 0.58899 0.43933 0.66098 0.0
H2929 H 0.61646 0.43507 0.57846 0.0
H2930 H 0.60652 0.47172 0.56904 0.0
H2931 H 0.55691 0.45906 0.61272 0.0
C2932 C 0.58236 0.37882 0.63763 0.0
C2933 C 0.59701 0.36482 0.63283 0.0
C2934 C 0.61054 0.37157 0.61596 0.0
C2935 C 0.6099 0.39148 0.60448 0.0
C2936 C 0.59577 0.40511 0.60993 0.0
C2937 C 0.58198 0.39892 0.62585 0.0
C2938 C 0.56789 0.41642 0.62775 0.0
C2939 C 0.54399 0.40324 0.61828 0.0
C2940 C 0.57167 0.42986 0.65429 0.0
C2941 C 0.57617 0.43346 0.61076 0.0
C2942 C 0.59244 0.42667 0.6009 0.0
C2943 C 0.60346 0.44024 0.58577 0.0
C2944 C 0.59775 0.46113 0.58052 0.0
C2945 C 0.58075 0.46823 0.58973 0.0
C2946 C 0.56978 0.45402 0.60504 0.0
H2947 H 0.44294 0.75147 0.39851 0.0
H2948 H 0.47408 0.82721 0.40606 0.0
H2949 H 0.43916 0.83451 0.39032 0.0
H2950 H 0.40655 0.74799 0.34082 0.0
H2951 H 0.38449 0.72656 0.34796 0.0
H2952 H 0.41183 0.72732 0.36065 0.0
H2953 H 0.40339 0.73264 0.40446 0.0
H2954 H 0.37607 0.73213 0.3919 0.0
H2955 H 0.39262 0.75714 0.41473 0.0
H2956 H 0.40017 0.8341 0.37515 0.0
H2957 H 0.36146 0.825 0.3565 0.0
H2958 H 0.35548 0.74933 0.35553 0.0
C2959 C 0.4424 0.76957 0.39679 0.0
C2960 C 0.46144 0.78877 0.40369 0.0
C2961 C 0.45991 0.81214 0.40088 0.0
C2962 C 0.44004 0.81653 0.39207 0.0
C2963 C 0.4216 0.79734 0.38564 0.0
C2964 C 0.42264 0.77423 0.38743 0.0
C2965 C 0.40052 0.75668 0.37802 0.0
C2966 C 0.40087 0.73857 0.35552 0.0
C2967 C 0.39269 0.74389 0.3985 0.0
C2968 C 0.38692 0.77352 0.37092 0.0
C2969 C 0.39935 0.79696 0.37581 0.0
C2970 C 0.39034 0.81576 0.37115 0.0
C2971 C 0.36824 0.81046 0.3607 0.0
C2972 C 0.3553 0.78648 0.35461 0.0
C2973 C 0.36487 0.76787 0.36008 0.0
H2974 H 0.05346 0.71519 0.14732 0.0
H2975 H 0.09763 0.74823 0.10356 0.0
H2976 H 0.09947 0.70807 0.0848 0.0
H2977 H 0.07775 0.66879 0.15963 0.0
H2978 H 0.05288 0.64618 0.15706 0.0
H2979 H 0.05411 0.67732 0.16624 0.0
H2980 H 0.02249 0.67386 0.13056 0.0
H2981 H 0.02101 0.64262 0.12142 0.0
H2982 H 0.02432 0.66258 0.09956 0.0
H2983 H 0.09912 0.66398 0.07356 0.0
H2984 H 0.09338 0.62004 0.0672 0.0
H2985 H 0.04761 0.61488 0.11616 0.0
C2986 C 0.06322 0.71403 0.13344 0.0
C2987 C 0.07532 0.73518 0.12689 0.0
C2988 C 0.08798 0.73255 0.10876 0.0
C2989 C 0.08925 0.70971 0.0981 0.0
C2990 C 0.07753 0.68937 0.10539 0.0
C2991 C 0.06441 0.69129 0.12232 0.0
C2992 C 0.05345 0.6666 0.12699 0.0
C2993 C 0.05994 0.66462 0.15409 0.0
C2994 C 0.02886 0.66109 0.11916 0.0
C2995 C 0.0626 0.65046 0.11028 0.0
C2996 C 0.07665 0.664 0.09818 0.0
C2997 C 0.0879 0.65326 0.0827 0.0
C2998 C 0.08458 0.62819 0.07926 0.0
C2999 C 0.06987 0.61372 0.09092 0.0
C3000 C 0.05874 0.62522 0.10664 0.0
H3001 H 0.06886 0.23135 0.88449 0.0
H3002 H 0.08679 0.2958 0.94013 0.0
H3003 H 0.12228 0.3073 0.92843 0.0
H3004 H 0.12134 0.21932 0.89218 0.0
H3005 H 0.11971 0.20915 0.8599 0.0
H3006 H 0.09548 0.20566 0.87236 0.0
H3007 H 0.08026 0.22881 0.8407 0.0
H3008 H 0.10443 0.23227 0.82811 0.0
H3009 H 0.09575 0.25828 0.83875 0.0
H3010 H 0.15635 0.31175 0.91156 0.0
H3011 H 0.18602 0.30971 0.88973 0.0
H3012 H 0.14662 0.24316 0.84348 0.0
C3013 C 0.08021 0.24793 0.89416 0.0
C3014 C 0.0748 0.26266 0.91334 0.0
C3015 C 0.09031 0.28417 0.92543 0.0
C3016 C 0.11063 0.29086 0.91892 0.0
C3017 C 0.11548 0.27598 0.90014 0.0
C3018 C 0.10071 0.25499 0.8878 0.0
C3019 C 0.11016 0.2424 0.86818 0.0
C3020 C 0.11176 0.21766 0.87348 0.0
C3021 C 0.09686 0.24032 0.84241 0.0
C3022 C 0.13247 0.2596 0.87144 0.0
C3023 C 0.13514 0.27877 0.89007 0.0
C3024 C 0.15433 0.29691 0.89677 0.0
C3025 C 0.17113 0.29565 0.88403 0.0
C3026 C 0.1689 0.27646 0.86446 0.0
C3027 C 0.14916 0.25808 0.85834 0.0
H3028 H 0.55924 0.77117 0.9734 0.0
H3029 H 0.50854 0.74166 0.90892 0.0
H3030 H 0.50026 0.70276 0.92344 0.0
H3031 H 0.57827 0.71948 0.97671 0.0
H3032 H 0.58333 0.72417 0.00982 0.0
H3033 H 0.5849 0.74939 0.99429 0.0
H3034 H 0.5569 0.76264 0.01743 0.0
H3035 H 0.55535 0.7375 0.03311 0.0
H3036 H 0.53123 0.74171 0.01581 0.0
H3037 H 0.49869 0.66674 0.94496 0.0
H3038 H 0.50236 0.63777 0.97294 0.0
H3039 H 0.5539 0.69244 0.02259 0.0
C3040 C 0.54638 0.75656 0.96225 0.0
C3041 C 0.53459 0.75924 0.93998 0.0
C3042 C 0.51773 0.73984 0.92608 0.0
C3043 C 0.51299 0.71774 0.93413 0.0
C3044 C 0.52516 0.71566 0.95613 0.0
C3045 C 0.54137 0.73468 0.97006 0.0
C3046 C 0.55197 0.72822 0.99316 0.0
C3047 C 0.57604 0.73044 0.99349 0.0
C3048 C 0.54865 0.74342 0.01623 0.0
C3049 C 0.53934 0.70247 0.99001 0.0
C3050 C 0.52398 0.6954 0.96857 0.0
C3051 C 0.51058 0.67213 0.96186 0.0
C3052 C 0.51281 0.65583 0.97772 0.0
C3053 C 0.52819 0.66311 0.99995 0.0
C3054 C 0.54171 0.6866 1.00592 0.0
H3055 H 0.14109 0.78387 0.75228 0.0
H3056 H 0.11926 0.71814 0.78002 0.0
H3057 H 0.15635 0.71347 0.78595 0.0
H3058 H 0.17668 0.76449 0.71832 0.0
H3059 H 0.19682 0.79285 0.72537 0.0
H3060 H 0.16895 0.79199 0.72482 0.0
H3061 H 0.17855 0.81576 0.76947 0.0
H3062 H 0.20651 0.81716 0.76995 0.0
H3063 H 0.19348 0.80492 0.79332 0.0
H3064 H 0.19545 0.71476 0.78608 0.0
H3065 H 0.23449 0.72484 0.78564 0.0
H3066 H 0.22963 0.78945 0.75749 0.0
C3067 C 0.14412 0.76866 0.75998 0.0
C3068 C 0.12733 0.75133 0.76567 0.0
C3069 C 0.13196 0.73171 0.7757 0.0
C3070 C 0.1529 0.72881 0.77893 0.0
C3071 C 0.16891 0.74577 0.7722 0.0
C3072 C 0.16481 0.76553 0.76335 0.0
C3073 C 0.18469 0.78116 0.75733 0.0
C3074 C 0.18158 0.78269 0.72983 0.0
C3075 C 0.19119 0.80623 0.77349 0.0
C3076 C 0.20061 0.76701 0.76403 0.0
C3077 C 0.19126 0.74657 0.77241 0.0
C3078 C 0.20299 0.73076 0.77965 0.0
C3079 C 0.22506 0.7365 0.77912 0.0
C3080 C 0.23499 0.75792 0.77155 0.0
C3081 C 0.22246 0.77297 0.7634 0.0
H3082 H 0.04487 0.40187 0.46525 0.0
H3083 H 0.02397 0.34957 0.51063 0.0
H3084 H 0.02675 0.38227 0.54496 0.0
H3085 H 0.08236 0.44706 0.51367 0.0
H3086 H 0.07519 0.47181 0.50167 0.0
H3087 H 0.07319 0.44448 0.48109 0.0
H3088 H 0.03309 0.44098 0.46419 0.0
H3089 H 0.03494 0.46839 0.48445 0.0
H3090 H 1.01477 0.44148 0.48522 0.0
H3091 H 0.03193 0.42075 0.57436 0.0
H3092 H 0.03703 0.46243 0.59569 0.0
H3093 H 0.05146 0.48873 0.52968 0.0
C3094 C 0.04123 0.39737 0.48256 0.0
C3095 C 0.03444 0.37333 0.48551 0.0
C3096 C 0.02928 0.36798 0.50815 0.0
C3097 C 0.03085 0.38638 0.52772 0.0
C3098 C 0.03731 0.40995 0.52416 0.0
C3099 C 0.04227 0.4155 0.50209 0.0
C3100 C 0.04757 0.44222 0.50255 0.0
C3101 C 0.07097 0.45196 0.49957 0.0
C3102 C 0.03163 0.44863 0.48294 0.0
C3103 C 0.04464 0.45074 0.52821 0.0
C3104 C 0.03907 0.43195 0.54057 0.0
C3105 C 0.03617 0.43563 0.56485 0.0
C3106 C 0.03908 0.45923 0.5768 0.0
C3107 C 0.04438 0.47853 0.56418 0.0
C3108 C 0.04709 0.47418 0.53962 0.0
H3109 H 0.50277 0.2325 0.29159 0.0
H3110 H 0.5425 0.30064 0.28264 0.0
H3111 H 0.51746 0.32139 0.29911 0.0
H3112 H 0.45322 0.24518 0.27101 0.0
H3113 H 0.43899 0.22968 0.29178 0.0
H3114 H 0.46124 0.22036 0.28195 0.0
H3115 H 0.48011 0.22565 0.3274 0.0
H3116 H 0.45784 0.23491 0.33732 0.0
H3117 H 0.48486 0.254 0.34754 0.0
H3118 H 0.48766 0.33449 0.31428 0.0
H3119 H 0.45356 0.33918 0.32533 0.0
H3120 H 0.43209 0.26248 0.32328 0.0
C3121 C 0.50642 0.25184 0.29375 0.0
C3122 C 0.5247 0.26511 0.28638 0.0
C3123 C 0.52865 0.29027 0.28851 0.0
C3124 C 0.51457 0.30219 0.29785 0.0
C3125 C 0.49651 0.28862 0.30468 0.0
C3126 C 0.49225 0.264 0.3026 0.0
C3127 C 0.47071 0.25355 0.30925 0.0
C3128 C 0.45513 0.23617 0.28718 0.0
C3129 C 0.47356 0.24131 0.33172 0.0
C3130 C 0.46358 0.27616 0.31535 0.0
C3131 C 0.47882 0.29617 0.3128 0.0
C3132 C 0.47569 0.31902 0.31664 0.0
C3133 C 0.45633 0.32152 0.32309 0.0
C3134 C 0.44031 0.30125 0.32547 0.0
C3135 C 0.4441 0.27831 0.32169 0.0
H3136 H 0.62008 0.52811 0.40715 0.0
H3137 H 0.62641 0.60463 0.41794 0.0
H3138 H 0.61714 0.60349 0.45891 0.0
H3139 H 0.57337 0.5142 0.4358 0.0
H3140 H 0.58101 0.49046 0.44942 0.0
H3141 H 0.58938 0.49728 0.4214 0.0
H3142 H 0.62916 0.50317 0.44194 0.0
H3143 H 0.62089 0.4965 0.47007 0.0
H3144 H 0.64038 0.52424 0.47028 0.0
H3145 H 0.60829 0.59467 0.49918 0.0
H3146 H 0.59564 0.57796 0.534 0.0
H3147 H 0.59165 0.50634 0.49687 0.0
C3148 C 0.61962 0.54461 0.41824 0.0
C3149 C 0.62418 0.56654 0.40936 0.0
C3150 C 0.62301 0.58764 0.42427 0.0
C3151 C 0.61785 0.58721 0.44767 0.0
C3152 C 0.61351 0.56542 0.45594 0.0
C3153 C 0.61393 0.54439 0.44157 0.0
C3154 C 0.60718 0.52321 0.45444 0.0
C3155 C 0.5865 0.50523 0.43937 0.0
C3156 C 0.6255 0.51106 0.45947 0.0
C3157 C 0.6031 0.53569 0.47827 0.0
C3158 C 0.6072 0.5601 0.47882 0.0
C3159 C 0.60493 0.57557 0.4989 0.0
C3160 C 0.59783 0.56587 0.51873 0.0
C3161 C 0.59264 0.5408 0.51832 0.0
C3162 C 0.59558 0.52558 0.49784 0.0
H3163 H 0.28474 0.85553 0.09486 0.0
H3164 H 0.24188 0.79135 0.04833 0.0
H3165 H 0.26039 0.76645 0.07204 0.0
H3166 H 0.33369 0.8324 0.10484 0.0
H3167 H 0.34149 0.84847 0.13608 0.0
H3168 H 0.32735 0.86056 0.11268 0.0
H3169 H 0.29802 0.86303 0.13874 0.0
H3170 H 0.31209 0.85121 0.16215 0.0
H3171 H 0.2843 0.83644 0.14872 0.0
H3172 H 0.27838 0.74978 0.10595 0.0
H3173 H 0.29376 0.74269 0.14656 0.0
H3174 H 0.32722 0.81807 0.16796 0.0
C3175 C 0.27947 0.8362 0.08946 0.0
C3176 C 0.26182 0.82509 0.07031 0.0
C3177 C 0.25539 0.79992 0.06325 0.0
C3178 C 0.26591 0.7858 0.07641 0.0
C3179 C 0.28313 0.79741 0.09573 0.0
C3180 C 0.29 0.82211 0.10192 0.0
C3181 C 0.30711 0.8305 0.1249 0.0
C3182 C 0.32869 0.84376 0.11927 0.0
C3183 C 0.29993 0.84618 0.14478 0.0
C3184 C 0.30798 0.80664 0.13168 0.0
C3185 C 0.29431 0.78768 0.11452 0.0
C3186 C 0.28974 0.76431 0.11906 0.0
C3187 C 0.2986 0.76043 0.14211 0.0
C3188 C 0.31172 0.77991 0.16012 0.0
C3189 C 0.31741 0.80292 0.15428 0.0
H3190 H 1.00277 0.52913 0.88311 0.0
H3191 H 0.95225 0.55952 0.90405 0.0
H3192 H 0.96667 0.56043 0.94778 0.0
H3193 H 1.00649 0.49277 0.93093 0.0
H3194 H 0.03544 0.49912 0.93649 0.0
H3195 H 0.02081 0.49982 0.90663 0.0
H3196 H 0.04345 0.54316 0.90887 0.0
H3197 H 0.05821 0.54249 0.93867 0.0
H3198 H 0.04481 0.56579 0.93483 0.0
H3199 H 0.98637 0.55622 0.9913 0.0
H3200 H 1.01128 0.5523 0.02803 0.0
H3201 H 0.05151 0.52863 0.98051 0.0
C3202 C 0.99469 0.53601 0.89684 0.0
C3203 C 0.97596 0.54417 0.88936 0.0
C3204 C 0.96644 0.55318 0.90858 0.0
C3205 C 0.97456 0.55367 0.93379 0.0
C3206 C 0.99284 0.54552 0.94049 0.0
C3207 C 1.00305 0.53727 0.92248 0.0
C3208 C 0.02316 0.53077 0.93481 0.0
C3209 C 0.02137 0.50403 0.92673 0.0
C3210 C 0.04362 0.54649 0.92894 0.0
C3211 C 0.02259 0.53641 0.96234 0.0
C3212 C 1.00473 0.54454 0.96524 0.0
C3213 C 1.00045 0.55006 0.98895 0.0
C3214 C 1.01472 0.54763 0.00996 0.0
C3215 C 0.03365 0.54015 1.00776 0.0
C3216 C 0.03735 0.53448 0.98328 0.0
H3217 H 0.31428 0.20096 0.63237 0.0
H3218 H 0.26689 0.23213 0.59546 0.0
H3219 H 0.264 0.25322 0.63555 0.0
H3220 H 0.29059 0.19101 0.68374 0.0
H3221 H 0.31545 0.19907 0.70595 0.0
H3222 H 0.31507 0.18748 0.67435 0.0
H3223 H 0.34477 0.22513 0.6723 0.0
H3224 H 0.34543 0.23673 0.70402 0.0
H3225 H 0.3408 0.25444 0.68075 0.0
H3226 H 0.26291 0.26705 0.67985 0.0
H3227 H 0.26745 0.27734 0.72498 0.0
H3228 H 0.31762 0.24023 0.73392 0.0
C3229 C 0.30366 0.21266 0.63264 0.0
C3230 C 0.29089 0.2149 0.61051 0.0
C3231 C 0.27705 0.23025 0.61191 0.0
C3232 C 0.27517 0.2422 0.6347 0.0
C3233 C 0.2875 0.23907 0.6561 0.0
C3234 C 0.30185 0.22511 0.65528 0.0
C3235 C 0.3131 0.22468 0.68112 0.0
C3236 C 0.30825 0.19904 0.6866 0.0
C3237 C 0.33747 0.23592 0.68476 0.0
C3238 C 0.30258 0.24026 0.69658 0.0
C3239 C 0.28767 0.24811 0.68171 0.0
C3240 C 0.27483 0.26138 0.69162 0.0
C3241 C 0.27744 0.26703 0.71731 0.0
C3242 C 0.29302 0.25982 0.733 0.0
C3243 C 0.30583 0.24634 0.7224 0.0
H3244 H 0.62364 0.52692 0.24898 0.0
H3245 H 0.59719 0.58155 0.28331 0.0
H3246 H 0.57835 0.5845 0.24247 0.0
H3247 H 0.63331 0.55155 0.19696 0.0
H3248 H 0.62536 0.52358 0.17556 0.0
H3249 H 0.63552 0.52424 0.2075 0.0
H3250 H 0.60089 0.49246 0.20976 0.0
H3251 H 0.59069 0.49151 0.17772 0.0
H3252 H 0.57497 0.49783 0.20037 0.0
H3253 H 0.5662 0.5852 0.1976 0.0
H3254 H 0.55753 0.57973 0.15227 0.0
H3255 H 0.58932 0.52242 0.1468 0.0
C3256 C 0.61347 0.5391 0.24796 0.0
C3257 C 0.61182 0.55394 0.26945 0.0
C3258 C 0.59849 0.56978 0.26724 0.0
C3259 C 0.58784 0.5717 0.24406 0.0
C3260 C 0.59026 0.55729 0.22323 0.0
C3261 C 0.60233 0.54087 0.22498 0.0
C3262 C 0.60249 0.52771 0.19965 0.0
C3263 C 0.62554 0.53204 0.19463 0.0
C3264 C 0.59161 0.50078 0.19671 0.0
C3265 C 0.58908 0.53973 0.18339 0.0
C3266 C 0.58234 0.55688 0.19737 0.0
C3267 C 0.57102 0.57149 0.1865 0.0
C3268 C 0.56627 0.56834 0.16073 0.0
C3269 C 0.57254 0.5505 0.146 0.0
C3270 C 0.58399 0.53593 0.15757 0.0
H3271 H 0.2752 0.82385 0.96303 0.0
H3272 H 0.22785 0.8576 0.93062 0.0
H3273 H 0.23696 0.84724 0.88975 0.0
H3274 H 0.31477 0.84363 0.92918 0.0
H3275 H 0.32316 0.81629 0.92607 0.0
H3276 H 0.31196 0.82494 0.95225 0.0
H3277 H 0.28272 0.78432 0.94208 0.0
H3278 H 0.29412 0.77533 0.91618 0.0
H3279 H 0.26603 0.7749 0.91181 0.0
H3280 H 0.25314 0.83539 0.85344 0.0
H3281 H 0.27184 0.81864 0.82312 0.0
H3282 H 0.30857 0.79311 0.88032 0.0
C3283 C 0.26654 0.82885 0.9473 0.0
C3284 C 0.25091 0.84159 0.94978 0.0
C3285 C 0.23979 0.84769 0.92888 0.0
C3286 C 0.24498 0.84205 0.90575 0.0
C3287 C 0.26109 0.83021 0.90416 0.0
C3288 C 0.27143 0.82333 0.92432 0.0
C3289 C 0.28818 0.81086 0.91796 0.0
C3290 C 0.31085 0.82477 0.93221 0.0
C3291 C 0.28241 0.78481 0.92225 0.0
C3292 C 0.2859 0.812 0.89099 0.0
C3293 C 0.27028 0.8233 0.88337 0.0
C3294 C 0.26529 0.8264 0.85917 0.0
C3295 C 0.27609 0.81697 0.84216 0.0
C3296 C 0.29161 0.80466 0.84955 0.0
C3297 C 0.29687 0.80259 0.87431 0.0
H3298 H 0.98623 0.55255 0.75423 0.0
H3299 H 0.92182 0.5501 0.7177 0.0
H3300 H 0.93314 0.54614 0.67772 0.0
H3301 H 1.01385 0.58843 0.71234 0.0
H3302 H 0.03511 0.57356 0.71239 0.0
H3303 H 0.0223 0.57581 0.73865 0.0
H3304 H 1.0131 0.52985 0.7353 0.0
H3305 H 0.02587 0.5275 0.70903 0.0
H3306 H 0.9983 0.51091 0.70672 0.0
H3307 H 0.95107 0.54032 0.63938 0.0
H3308 H 0.97408 0.53715 0.60856 0.0
H3309 H 0.0288 0.54633 0.66722 0.0
C3310 C 0.97442 0.55128 0.7379 0.0
C3311 C 0.95265 0.5517 0.74017 0.0
C3312 C 0.93839 0.55003 0.71755 0.0
C3313 C 0.94476 0.54764 0.69429 0.0
C3314 C 0.96596 0.54722 0.69273 0.0
C3315 C 0.98076 0.5494 0.71404 0.0
C3316 C 1.00281 0.54929 0.70686 0.0
C3317 C 0.01952 0.57319 0.71825 0.0
C3318 C 1.01048 0.52813 0.71497 0.0
C3319 C 0.99801 0.54629 0.67841 0.0
C3320 C 0.97649 0.54496 0.67077 0.0
C3321 C 0.96794 0.54156 0.6455 0.0
C3322 C 0.98133 0.53966 0.6278 0.0
C3323 C 1.00371 0.54138 0.63453 0.0
C3324 C 1.01194 0.54486 0.6607 0.0
H3325 H 0.27291 0.23915 0.48056 0.0
H3326 H 0.28381 0.17048 0.45464 0.0
H3327 H 0.28865 0.1828 0.41488 0.0
H3328 H 0.24497 0.24817 0.42271 0.0
H3329 H 0.25802 0.27975 0.42732 0.0
H3330 H 0.2543 0.26534 0.45343 0.0
H3331 H 0.29523 0.28035 0.47103 0.0
H3332 H 0.29905 0.29488 0.44503 0.0
H3333 H 0.31394 0.27356 0.45233 0.0
H3334 H 0.29077 0.2019 0.37684 0.0
H3335 H 0.2949 0.22802 0.34574 0.0
H3336 H 0.28648 0.28632 0.39682 0.0
C3337 C 0.27623 0.22669 0.46646 0.0
C3338 C 0.27775 0.20363 0.47079 0.0
C3339 C 0.28252 0.18813 0.45191 0.0
C3340 C 0.28522 0.19497 0.42915 0.0
C3341 C 0.28357 0.21769 0.42542 0.0
C3342 C 0.2796 0.23353 0.44372 0.0
C3343 C 0.27996 0.25744 0.43534 0.0
C3344 C 0.258 0.263 0.43467 0.0
C3345 C 0.29813 0.27776 0.45192 0.0
C3346 C 0.28453 0.25247 0.40947 0.0
C3347 C 0.28619 0.22926 0.40403 0.0
C3348 C 0.28968 0.22016 0.38105 0.0
C3349 C 0.2919 0.23516 0.36337 0.0
C3350 C 0.29107 0.25933 0.36867 0.0
C3351 C 0.28725 0.26798 0.39213 0.0
H3352 H 0.37929 0.59156 0.5878 0.0
H3353 H 0.37754 0.63675 0.53244 0.0
H3354 H 0.39484 0.61145 0.50743 0.0
H3355 H 0.43004 0.58725 0.58706 0.0
H3356 H 0.42535 0.55685 0.59241 0.0
H3357 H 0.40904 0.57535 0.60305 0.0
H3358 H 0.37452 0.54369 0.57871 0.0
H3359 H 0.39078 0.52497 0.56796 0.0
H3360 H 0.37199 0.53372 0.5462 0.0
H3361 H 0.41773 0.58538 0.49232 0.0
H3362 H 0.44442 0.56157 0.48913 0.0
H3363 H 0.43036 0.53411 0.55454 0.0
C3364 C 0.38199 0.59582 0.57011 0.0
C3365 C 0.3771 0.61601 0.56198 0.0
C3366 C 0.38108 0.62118 0.53887 0.0
C3367 C 0.39082 0.60688 0.52455 0.0
C3368 C 0.39611 0.58747 0.53356 0.0
C3369 C 0.39166 0.5819 0.55578 0.0
C3370 C 0.40126 0.56224 0.56314 0.0
C3371 C 0.41737 0.57096 0.58785 0.0
C3372 C 0.38357 0.53982 0.56404 0.0
C3373 C 0.41247 0.55808 0.542 0.0
C3374 C 0.40914 0.57248 0.52486 0.0
C3375 C 0.41999 0.57355 0.50522 0.0
C3376 C 0.43501 0.56 0.50347 0.0
C3377 C 0.43901 0.54597 0.52144 0.0
C3378 C 0.42714 0.54445 0.54037 0.0
H3379 H 0.89665 0.97677 0.59595 0.0
H3380 H 0.90411 0.90501 0.57663 0.0
H3381 H 0.94076 0.9219 0.57058 0.0
H3382 H 0.92605 1.00268 0.5522 0.0
H3383 H 0.93876 0.03102 0.57231 0.0
H3384 H 0.91293 1.01356 0.57574 0.0
H3385 H 0.9283 0.0141 0.62137 0.0
H3386 H 0.95416 0.03162 0.61808 0.0
H3387 H 0.95198 1.00369 0.62908 0.0
H3388 H 0.97658 0.94626 0.56456 0.0
H3389 H 1.0089 0.9769 0.56073 0.0
H3390 H 0.9799 0.03289 0.58552 0.0
C3391 C 0.90601 0.96462 0.59058 0.0
C3392 C 0.89715 0.93942 0.58679 0.0
C3393 C 0.91019 0.92432 0.57968 0.0
C3394 C 0.9312 0.93375 0.57616 0.0
C3395 C 0.93936 0.95849 0.57983 0.0
C3396 C 0.92727 0.97379 0.587 0.0
C3397 C 0.94009 0.99974 0.5895 0.0
C3398 C 0.92878 1.0125 0.57136 0.0
C3399 C 0.94385 1.01307 0.61609 0.0
C3400 C 0.96109 0.99651 0.58259 0.0
C3401 C 0.9603 0.97255 0.57699 0.0
C3402 C 0.97748 0.96511 0.5693 0.0
C3403 C 0.99596 0.9826 0.56739 0.0
C3404 C 0.99738 1.00726 0.57346 0.0
C3405 C 0.97954 0.01415 0.58106 0.0
H3406 H 0.88726 0.05736 0.24763 0.0
H3407 H 0.93348 0.08337 0.31639 0.0
H3408 H 0.91804 0.11776 0.32466 0.0
H3409 H 0.88722 0.11495 0.23149 0.0
H3410 H 0.85877 0.10648 0.21881 0.0
H3411 H 0.87367 0.08416 0.21809 0.0
H3412 H 0.84726 0.05899 0.24083 0.0
H3413 H 0.83225 0.08118 0.24153 0.0
H3414 H 0.84269 0.0726 0.26973 0.0
H3415 H 0.89768 0.14939 0.32517 0.0
H3416 H 0.87322 0.17531 0.31863 0.0
H3417 H 0.83951 0.12744 0.25026 0.0
C3418 C 0.89421 0.07031 0.26441 0.0
C3419 C 0.91163 0.06775 0.28136 0.0
C3420 C 0.92015 0.085 0.30316 0.0
C3421 C 0.91151 0.1046 0.30798 0.0
C3422 C 0.89435 0.10657 0.29086 0.0
C3423 C 0.88574 0.08985 0.26955 0.0
C3424 C 0.86706 0.09584 0.25435 0.0
C3425 C 0.87198 0.10065 0.2292 0.0
C3426 C 0.84608 0.07597 0.25146 0.0
C3427 C 0.86646 0.11854 0.27049 0.0
C3428 C 0.88239 0.12451 0.29138 0.0
C3429 C 0.88506 0.14482 0.30895 0.0
C3430 C 0.87098 0.15934 0.30514 0.0
C3431 C 0.85432 0.15338 0.28399 0.0
C3432 C 0.85219 0.1327 0.26647 0.0
H3433 H 0.77392 0.14337 0.08963 0.0
H3434 H 0.80433 0.11209 0.14679 0.0
H3435 H 0.76929 0.08347 0.1456 0.0
H3436 H 0.72778 0.14289 0.11174 0.0
H3437 H 0.70996 0.1357 0.08218 0.0
H3438 H 0.73782 0.15108 0.08496 0.0
H3439 H 0.7419 0.11786 0.05166 0.0
H3440 H 0.71394 0.10234 0.04878 0.0
H3441 H 0.73451 0.08701 0.05555 0.0
H3442 H 0.73031 0.06236 0.1421 0.0
H3443 H 0.6906 0.05081 0.1368 0.0
H3444 H 0.68646 0.09512 0.08094 0.0
C3445 C 0.77333 0.13024 0.10163 0.0
C3446 C 0.79178 0.12991 0.11834 0.0
C3447 C 0.79036 0.1125 0.13375 0.0
C3448 C 0.77057 0.09616 0.13314 0.0
C3449 C 0.75259 0.09728 0.11672 0.0
C3450 C 0.75387 0.11376 0.10109 0.0
C3451 C 0.73201 0.11276 0.08665 0.0
C3452 C 0.72659 0.13704 0.09171 0.0
C3453 C 0.73051 0.10449 0.05902 0.0
C3454 C 0.71808 0.09389 0.09741 0.0
C3455 C 0.7302 0.08487 0.11444 0.0
C3456 C 0.72066 0.06884 0.12839 0.0
C3457 C 0.69814 0.06232 0.12521 0.0
C3458 C 0.68562 0.07205 0.1084 0.0
C3459 C 0.69573 0.0874 0.09386 0.0
H3460 H 0.21416 0.42864 0.28487 0.0
H3461 H 0.24082 0.46583 0.35964 0.0
H3462 H 0.26048 0.43517 0.36635 0.0
H3463 H 0.20631 0.36776 0.30072 0.0
H3464 H 0.21272 0.3543 0.27287 0.0
H3465 H 0.20153 0.37973 0.27294 0.0
H3466 H 0.23382 0.40253 0.25644 0.0
H3467 H 0.2451 0.37717 0.25635 0.0
H3468 H 0.26081 0.40628 0.27289 0.0
H3469 H 0.27988 0.39999 0.36477 0.0
H3470 H 0.29257 0.36353 0.35687 0.0
H3471 H 0.25113 0.34379 0.2849 0.0
C3472 C 0.22421 0.43054 0.3027 0.0
C3473 C 0.22573 0.45085 0.32165 0.0
C3474 C 0.239 0.45131 0.34457 0.0
C3475 C 0.25046 0.43365 0.34859 0.0
C3476 C 0.24862 0.41418 0.32984 0.0
C3477 C 0.23544 0.41224 0.30736 0.0
C3478 C 0.23547 0.38853 0.29087 0.0
C3479 C 0.21265 0.37158 0.28392 0.0
C3480 C 0.24431 0.39395 0.26775 0.0
C3481 C 0.25075 0.37763 0.3073 0.0
C3482 C 0.25841 0.39312 0.32961 0.0
C3483 C 0.27352 0.38782 0.3474 0.0
C3484 C 0.28079 0.36667 0.34268 0.0
C3485 C 0.27301 0.34955 0.32043 0.0
C3486 C 0.25749 0.35561 0.30248 0.0
H3487 H 0.26365 0.43735 0.07341 0.0
H3488 H 0.30671 0.4904 0.13327 0.0
H3489 H 0.2787 0.51192 0.1358 0.0
H3490 H 0.23846 0.47884 0.04453 0.0
H3491 H 0.21196 0.45833 0.03647 0.0
H3492 H 0.23546 0.44697 0.03876 0.0
H3493 H 0.22154 0.42149 0.07023 0.0
H3494 H 0.198 0.43277 0.06801 0.0
H3495 H 0.215 0.43591 0.09754 0.0
H3496 H 0.24639 0.52824 0.13202 0.0
H3497 H 0.21185 0.53813 0.12255 0.0
H3498 H 0.18794 0.47399 0.06624 0.0
C3499 C 0.26723 0.45359 0.08693 0.0
C3500 C 0.28762 0.46216 0.10308 0.0
C3501 C 0.29141 0.48338 0.12063 0.0
C3502 C 0.27553 0.4958 0.12224 0.0
C3503 C 0.25568 0.48688 0.10624 0.0
C3504 C 0.25139 0.46626 0.08891 0.0
C3505 C 0.22846 0.46055 0.07421 0.0
C3506 C 0.2286 0.46121 0.04687 0.0
C3507 C 0.21495 0.43623 0.07771 0.0
C3508 C 0.22063 0.48115 0.08606 0.0
C3509 C 0.2367 0.49611 0.10442 0.0
C3510 C 0.23361 0.5165 0.11783 0.0
C3511 C 0.21367 0.52183 0.11242 0.0
C3512 C 0.19662 0.50678 0.09384 0.0
C3513 C 0.2004 0.48609 0.0805 0.0
H3514 H 0.91347 0.93009 0.3084 0.0
H3515 H 0.88057 0.95016 0.24411 0.0
H3516 H 0.84904 0.91649 0.24181 0.0
H3517 H 0.89085 0.86442 0.28889 0.0
H3518 H 0.88797 0.85941 0.3194 0.0
H3519 H 0.90911 0.88393 0.31525 0.0
H3520 H 0.89531 0.91367 0.34319 0.0
H3521 H 0.87418 0.88924 0.34741 0.0
H3522 H 0.86759 0.91449 0.33588 0.0
H3523 H 0.82091 0.88244 0.24655 0.0
H3524 H 0.79612 0.84967 0.25907 0.0
H3525 H 0.84521 0.85109 0.32173 0.0
C3526 C 0.89974 0.9271 0.29363 0.0
C3527 C 0.89957 0.94274 0.27631 0.0
C3528 C 0.88114 0.93851 0.25756 0.0
C3529 C 0.86315 0.91935 0.25603 0.0
C3530 C 0.86369 0.90451 0.27344 0.0
C3531 C 0.88139 0.90804 0.29195 0.0
C3532 C 0.87694 0.88993 0.309 0.0
C3533 C 0.89213 0.87345 0.30808 0.0
C3534 C 0.8786 0.9026 0.33543 0.0
C3535 C 0.85385 0.87616 0.29738 0.0
C3536 C 0.84682 0.88479 0.27667 0.0
C3537 C 0.82619 0.87545 0.26269 0.0
C3538 C 0.81221 0.85684 0.27004 0.0
C3539 C 0.81871 0.84776 0.29135 0.0
C3540 C 0.83988 0.85752 0.30522 0.0
H3541 H 0.73192 0.09135 0.80809 0.0
H3542 H 0.71136 0.104 0.87764 0.0
H3543 H 0.72892 0.14711 0.88244 0.0
H3544 H 0.78449 0.13794 0.8253 0.0
H3545 H 0.78275 0.14724 0.7958 0.0
H3546 H 0.76971 0.11689 0.79797 0.0
H3547 H 0.73354 0.12174 0.77606 0.0
H3548 H 0.74647 0.15213 0.77394 0.0
H3549 H 0.72338 0.14601 0.78844 0.0
H3550 H 0.74848 0.19022 0.88015 0.0
H3551 H 0.76745 0.2287 0.87078 0.0
H3552 H 0.77564 0.19165 0.80172 0.0
C3553 C 0.7315 0.10307 0.82463 0.0
C3554 C 0.72026 0.09334 0.8428 0.0
C3555 C 0.71982 0.11015 0.86353 0.0
C3556 C 0.72982 0.13502 0.86642 0.0
C3557 C 0.74042 0.14395 0.84832 0.0
C3558 C 0.74134 0.12851 0.82771 0.0
C3559 C 0.75321 0.14342 0.81069 0.0
C3560 C 0.77376 0.13592 0.80723 0.0
C3561 C 0.73826 0.14065 0.7858 0.0
C3562 C 0.75882 0.16942 0.82494 0.0
C3563 C 0.75126 0.16906 0.84667 0.0
C3564 C 0.75439 0.19048 0.86313 0.0
C3565 C 0.76537 0.21259 0.85755 0.0
C3566 C 0.77346 0.21416 0.83542 0.0
C3567 C 0.76989 0.19177 0.81886 0.0
loop_
_geom_bond_atom_site_label_1
_geom_bond_atom_site_label_2
_geom_bond_distance
_geom_bond_site_symmetry_2
_ccdc_geom_bond_type
O0 Cd1 2.223 1_655 S
O0 C8 1.315 . S
Cd1 O0 2.223 1_455 S
Cd1 O4 2.297 . S
Cd1 O5 2.439 . S
Cd1 O11 2.240 1_455 S
Cd2 O3 2.240 1_655 S
Cd2 O10 2.223 . S
Cd2 O12 2.297 . S
Cd2 O13 2.439 1_655 S
O3 Cd2 2.240 1_455 S
O3 C8 1.279 1_455 S
O4 Cd1 2.297 . S
O4 C6 1.247 . S
O5 Cd1 2.439 . S
O5 C6 1.208 . S
C6 O4 1.247 . S
C6 O5 1.208 . S
C7 O12 1.247 1_455 S
C7 O13 1.208 . S
C8 O0 1.315 . S
C8 O3 1.279 1_655 S
C9 O10 1.315 . S
C9 O11 1.279 . S
O10 Cd2 2.223 . S
O10 C9 1.315 . S
O11 Cd1 2.240 1_655 S
O11 C9 1.279 . S
O12 Cd2 2.297 . S
O12 C7 1.247 1_655 S
O13 Cd2 2.439 1_455 S
O13 C7 1.208 . S
O14 Cd15 2.223 . S
O14 C22 1.315 . S
Cd15 O14 2.223 . S
Cd15 O18 2.297 . S
Cd15 O19 2.439 . S
Cd15 O25 2.240 . S
Cd16 O17 2.240 . S
Cd16 O24 2.223 . S
Cd16 O26 2.297 . S
Cd16 O27 2.439 . S
O17 Cd16 2.240 . S
O17 C22 1.279 . S
O18 Cd15 2.297 . S
O18 C20 1.247 . S
O19 Cd15 2.439 . S
O19 C20 1.208 . S
C20 O18 1.247 . S
C20 O19 1.208 . S
C21 O26 1.247 . S
C21 O27 1.208 . S
C22 O14 1.315 . S
C22 O17 1.279 . S
C23 O24 1.315 . S
C23 O25 1.279 . S
O24 Cd16 2.223 . S
O24 C23 1.315 . S
O25 Cd15 2.240 . S
O25 C23 1.279 . S
O26 Cd16 2.297 . S
O26 C21 1.247 . S
O27 Cd16 2.439 . S
O27 C21 1.208 . S
O28 Cd29 2.223 . S
O28 C36 1.315 . S
Cd29 O28 2.223 . S
Cd29 O32 2.297 . S
Cd29 O33 2.439 . S
Cd29 O39 2.240 . S
Cd30 O31 2.240 . S
Cd30 O38 2.223 . S
Cd30 O40 2.297 . S
Cd30 O41 2.439 . S
O31 Cd30 2.240 . S
O31 C36 1.279 . S
O32 Cd29 2.297 . S
O32 C34 1.247 . S
O33 Cd29 2.439 . S
O33 C34 1.208 . S
C34 O32 1.247 . S
C34 O33 1.208 . S
C35 O40 1.247 . S
C35 O41 1.208 . S
C36 O28 1.315 . S
C36 O31 1.279 . S
C37 O38 1.315 . S
C37 O39 1.279 . S
O38 Cd30 2.223 . S
O38 C37 1.315 . S
O39 Cd29 2.240 . S
O39 C37 1.279 . S
O40 Cd30 2.297 . S
O40 C35 1.247 . S
O41 Cd30 2.439 . S
O41 C35 1.208 . S
O42 Cd43 2.223 . S
O42 C50 1.315 . S
Cd43 O42 2.223 . S
Cd43 O46 2.297 . S
Cd43 O47 2.439 . S
Cd43 O53 2.240 . S
Cd44 O45 2.240 . S
Cd44 O52 2.223 . S
Cd44 O54 2.297 . S
Cd44 O55 2.439 . S
O45 Cd44 2.240 . S
O45 C50 1.279 . S
O46 Cd43 2.297 . S
O46 C48 1.247 . S
O47 Cd43 2.439 . S
O47 C48 1.208 . S
C48 O46 1.247 . S
C48 O47 1.208 . S
C49 O54 1.247 . S
C49 O55 1.208 . S
C50 O42 1.315 . S
C50 O45 1.279 . S
C51 O52 1.315 . S
C51 O53 1.279 . S
O52 Cd44 2.223 . S
O52 C51 1.315 . S
O53 Cd43 2.240 . S
O53 C51 1.279 . S
O54 Cd44 2.297 . S
O54 C49 1.247 . S
O55 Cd44 2.439 . S
O55 C49 1.208 . S
O56 Cd57 2.223 . S
O56 C64 1.315 . S
Cd57 O56 2.223 . S
Cd57 O60 2.297 . S
Cd57 O61 2.439 . S
Cd57 O67 2.240 . S
Cd58 O59 2.240 . S
Cd58 O66 2.223 . S
Cd58 O68 2.297 . S
Cd58 O69 2.439 . S
O59 Cd58 2.240 . S
O59 C64 1.279 . S
O60 Cd57 2.297 . S
O60 C62 1.247 . S
O61 Cd57 2.439 . S
O61 C62 1.208 . S
C62 O60 1.247 . S
C62 O61 1.208 . S
C63 O68 1.247 . S
C63 O69 1.208 . S
C64 O56 1.315 . S
C64 O59 1.279 . S
C65 O66 1.315 . S
C65 O67 1.279 . S
O66 Cd58 2.223 . S
O66 C65 1.315 . S
O67 Cd57 2.240 . S
O67 C65 1.279 . S
O68 Cd58 2.297 . S
O68 C63 1.247 . S
O69 Cd58 2.439 . S
O69 C63 1.208 . S
O70 Cd71 2.223 . S
O70 C78 1.315 . S
Cd71 O70 2.223 . S
Cd71 O74 2.297 . S
Cd71 O75 2.439 . S
Cd71 O81 2.240 . S
Cd72 O73 2.240 . S
Cd72 O80 2.223 . S
Cd72 O82 2.297 . S
Cd72 O83 2.439 . S
O73 Cd72 2.240 . S
O73 C78 1.279 . S
O74 Cd71 2.297 . S
O74 C76 1.247 . S
O75 Cd71 2.439 . S
O75 C76 1.208 . S
C76 O74 1.247 . S
C76 O75 1.208 . S
C77 O82 1.247 . S
C77 O83 1.208 . S
C78 O70 1.315 . S
C78 O73 1.279 . S
C79 O80 1.315 . S
C79 O81 1.279 . S
O80 Cd72 2.223 . S
O80 C79 1.315 . S
O81 Cd71 2.240 . S
O81 C79 1.279 . S
O82 Cd72 2.297 . S
O82 C77 1.247 . S
O83 Cd72 2.439 . S
O83 C77 1.208 . S
O84 Cd85 2.223 . S
O84 C92 1.315 . S
Cd85 O84 2.223 . S
Cd85 O88 2.297 . S
Cd85 O89 2.439 . S
Cd85 O95 2.240 . S
Cd86 O87 2.240 . S
Cd86 O94 2.223 . S
Cd86 O96 2.297 . S
Cd86 O97 2.439 . S
O87 Cd86 2.240 . S
O87 C92 1.279 . S
O88 Cd85 2.297 . S
O88 C90 1.247 . S
O89 Cd85 2.439 . S
O89 C90 1.208 . S
C90 O88 1.247 . S
C90 O89 1.208 . S
C91 O96 1.247 . S
C91 O97 1.208 . S
C92 O84 1.315 . S
C92 O87 1.279 . S
C93 O94 1.315 . S
C93 O95 1.279 . S
O94 Cd86 2.223 . S
O94 C93 1.315 . S
O95 Cd85 2.240 . S
O95 C93 1.279 . S
O96 Cd86 2.297 . S
O96 C91 1.247 . S
O97 Cd86 2.439 . S
O97 C91 1.208 . S
O98 Cd99 2.223 . S
O98 C106 1.315 . S
Cd99 O98 2.223 . S
Cd99 O102 2.297 . S
Cd99 O103 2.439 . S
Cd99 O109 2.240 1_455 S
Cd100 O101 2.240 . S
Cd100 O108 2.223 1_455 S
Cd100 O110 2.300 . S
Cd100 O111 2.439 . S
O101 Cd100 2.240 . S
O101 C106 1.279 . S
O102 Cd99 2.297 . S
O102 C104 1.247 . S
O103 Cd99 2.439 . S
O103 C104 1.208 . S
C104 O102 1.247 . S
C104 O103 1.208 . S
C105 O110 1.251 . S
C105 O111 1.208 . S
C106 O98 1.315 . S
C106 O101 1.279 . S
C107 O108 1.315 . S
C107 O109 1.279 . S
O108 Cd100 2.223 1_655 S
O108 C107 1.315 . S
O109 Cd99 2.240 1_655 S
O109 C107 1.279 . S
O110 Cd100 2.300 . S
O110 C105 1.251 . S
O111 Cd100 2.439 . S
O111 C105 1.208 . S
O112 Cd113 2.223 . S
O112 C120 1.315 . S
Cd113 O112 2.223 . S
Cd113 O116 2.297 . S
Cd113 O117 2.439 . S
Cd113 O123 2.240 . S
Cd114 O115 2.240 . S
Cd114 O122 2.223 1_545 S
Cd114 O124 2.297 . S
Cd114 O125 2.439 . S
O115 Cd114 2.240 . S
O115 C120 1.279 . S
O116 Cd113 2.297 . S
O116 C118 1.247 . S
O117 Cd113 2.439 . S
O117 C118 1.208 . S
C118 O116 1.247 . S
C118 O117 1.208 . S
C119 O124 1.247 . S
C119 O125 1.208 . S
C120 O112 1.315 . S
C120 O115 1.279 . S
C121 O122 1.315 . S
C121 O123 1.279 1_565 S
O122 Cd114 2.223 1_565 S
O122 C121 1.315 . S
O123 Cd113 2.240 . S
O123 C121 1.279 1_545 S
O124 Cd114 2.297 . S
O124 C119 1.247 . S
O125 Cd114 2.439 . S
O125 C119 1.208 . S
O126 Cd127 2.223 . S
O126 C134 1.315 . S
Cd127 O126 2.223 . S
Cd127 O130 2.297 . S
Cd127 O131 2.439 . S
Cd127 O137 2.240 . S
Cd128 O129 2.240 . S
Cd128 O136 2.223 . S
Cd128 O138 2.297 . S
Cd128 O139 2.439 . S
O129 Cd128 2.240 . S
O129 C134 1.279 . S
O130 Cd127 2.297 . S
O130 C132 1.247 . S
O131 Cd127 2.439 . S
O131 C132 1.208 . S
C132 O130 1.247 . S
C132 O131 1.208 . S
C133 O138 1.247 . S
C133 O139 1.208 . S
C134 O126 1.315 . S
C134 O129 1.279 . S
C135 O136 1.315 . S
C135 O137 1.279 . S
O136 Cd128 2.223 . S
O136 C135 1.315 . S
O137 Cd127 2.240 . S
O137 C135 1.279 . S
O138 Cd128 2.297 . S
O138 C133 1.247 . S
O139 Cd128 2.439 . S
O139 C133 1.208 . S
O140 Cd141 2.223 . S
O140 C148 1.315 . S
Cd141 O140 2.223 . S
Cd141 O144 2.297 1_545 S
Cd141 O145 2.439 1_545 S
Cd141 O151 2.240 . S
Cd142 O143 2.240 . S
Cd142 O150 2.223 . S
Cd142 O152 2.297 . S
Cd142 O153 2.439 . S
O143 Cd142 2.240 . S
O143 C148 1.279 . S
O144 Cd141 2.297 1_565 S
O144 C146 1.247 . S
O145 Cd141 2.439 1_565 S
O145 C146 1.208 . S
C146 O144 1.247 . S
C146 O145 1.208 . S
C147 O152 1.247 . S
C147 O153 1.208 . S
C148 O140 1.315 . S
C148 O143 1.279 . S
C149 O150 1.315 . S
C149 O151 1.279 . S
O150 Cd142 2.223 . S
O150 C149 1.315 . S
O151 Cd141 2.240 . S
O151 C149 1.279 . S
O152 Cd142 2.297 . S
O152 C147 1.247 . S
O153 Cd142 2.439 . S
O153 C147 1.208 . S
O154 Cd155 2.223 . S
O154 C162 1.315 . S
Cd155 O154 2.223 . S
Cd155 O158 2.297 . S
Cd155 O159 2.439 1_554 S
Cd155 O165 2.218 1_554 S
Cd156 O157 2.240 1_556 S
Cd156 O164 2.223 1_556 S
Cd156 O166 2.297 . S
Cd156 O167 2.439 . S
O157 Cd156 2.240 1_554 S
O157 C162 1.279 . S
O158 Cd155 2.297 . S
O158 C160 1.247 . S
O159 Cd155 2.439 1_556 S
O159 C160 1.208 1_556 S
C160 O158 1.247 . S
C160 O159 1.208 1_554 S
C161 O166 1.247 . S
C161 O167 1.208 . S
C162 O154 1.315 . S
C162 O157 1.279 . S
C163 O164 1.315 . S
C163 O165 1.268 1_554 S
O164 Cd156 2.223 1_554 S
O164 C163 1.315 . S
O165 Cd155 2.218 1_556 S
O165 C163 1.268 1_556 S
O166 Cd156 2.297 . S
O166 C161 1.247 . S
O167 Cd156 2.439 . S
O167 C161 1.208 . S
O168 Cd169 2.223 . S
O168 C176 1.315 . S
Cd169 O168 2.223 . S
Cd169 O172 2.297 . S
Cd169 O173 2.439 . S
Cd169 O179 2.240 . S
Cd170 O171 2.240 . S
Cd170 O178 2.223 . S
Cd170 O180 2.297 . S
Cd170 O181 2.439 . S
O171 Cd170 2.240 . S
O171 C176 1.279 . S
O172 Cd169 2.297 . S
O172 C174 1.247 . S
O173 Cd169 2.439 . S
O173 C174 1.208 . S
C174 O172 1.247 . S
C174 O173 1.208 . S
C175 O180 1.247 . S
C175 O181 1.208 . S
C176 O168 1.315 . S
C176 O171 1.279 . S
C177 O178 1.315 . S
C177 O179 1.279 . S
O178 Cd170 2.223 . S
O178 C177 1.315 . S
O179 Cd169 2.240 . S
O179 C177 1.279 . S
O180 Cd170 2.297 . S
O180 C175 1.247 . S
O181 Cd170 2.439 . S
O181 C175 1.208 . S
O182 Cd183 2.223 . S
O182 C190 1.315 . S
Cd183 O182 2.223 . S
Cd183 O186 2.297 . S
Cd183 O187 2.439 . S
Cd183 O193 2.240 . S
Cd184 O185 2.240 . S
Cd184 O192 2.223 . S
Cd184 O194 2.297 . S
Cd184 O195 2.439 . S
O185 Cd184 2.240 . S
O185 C190 1.279 . S
O186 Cd183 2.297 . S
O186 C188 1.247 . S
O187 Cd183 2.439 . S
O187 C188 1.208 . S
C188 O186 1.247 . S
C188 O187 1.208 . S
C189 O194 1.247 . S
C189 O195 1.208 . S
C190 O182 1.315 . S
C190 O185 1.279 . S
C191 O192 1.315 . S
C191 O193 1.279 . S
O192 Cd184 2.223 . S
O192 C191 1.315 . S
O193 Cd183 2.240 . S
O193 C191 1.279 . S
O194 Cd184 2.297 . S
O194 C189 1.247 . S
O195 Cd184 2.439 . S
O195 C189 1.208 . S
O196 Cd197 2.223 . S
O196 C204 1.315 . S
Cd197 O196 2.223 . S
Cd197 O200 2.297 . S
Cd197 O201 2.439 . S
Cd197 O207 2.240 . S
Cd198 O199 2.240 . S
Cd198 O206 2.223 . S
Cd198 O208 2.297 . S
Cd198 O209 2.439 . S
O199 Cd198 2.240 . S
O199 C204 1.279 . S
O200 Cd197 2.297 . S
O200 C202 1.247 . S
O201 Cd197 2.439 . S
O201 C202 1.208 . S
C202 O200 1.247 . S
C202 O201 1.208 . S
C203 O208 1.247 . S
C203 O209 1.208 . S
C204 O196 1.315 . S
C204 O199 1.279 . S
C205 O206 1.315 . S
C205 O207 1.279 . S
O206 Cd198 2.223 . S
O206 C205 1.315 . S
O207 Cd197 2.240 . S
O207 C205 1.279 . S
O208 Cd198 2.297 . S
O208 C203 1.247 . S
O209 Cd198 2.439 . S
O209 C203 1.208 . S
O210 Cd211 2.223 . S
O210 C218 1.315 . S
Cd211 O210 2.223 . S
Cd211 O214 2.297 . S
Cd211 O215 2.439 . S
Cd211 O221 2.240 . S
Cd212 O213 2.240 . S
Cd212 O220 2.223 . S
Cd212 O222 2.297 . S
Cd212 O223 2.439 . S
O213 Cd212 2.240 . S
O213 C218 1.279 . S
O214 Cd211 2.297 . S
O214 C216 1.247 . S
O215 Cd211 2.439 . S
O215 C216 1.208 . S
C216 O214 1.247 . S
C216 O215 1.208 . S
C217 O222 1.247 . S
C217 O223 1.208 . S
C218 O210 1.315 . S
C218 O213 1.279 . S
C219 O220 1.315 . S
C219 O221 1.279 . S
O220 Cd212 2.223 . S
O220 C219 1.315 . S
O221 Cd211 2.240 . S
O221 C219 1.279 . S
O222 Cd212 2.297 . S
O222 C217 1.247 . S
O223 Cd212 2.439 . S
O223 C217 1.208 . S
O224 Cd225 2.230 . S
O224 C232 1.315 . S
Cd225 O224 2.230 . S
Cd225 O228 2.271 1_565 S
Cd225 O229 2.418 1_565 S
Cd225 O235 2.263 . S
Cd226 O227 2.240 1_565 S
Cd226 O234 2.223 . S
Cd226 O236 2.297 . S
Cd226 O237 2.439 1_565 S
O227 Cd226 2.240 1_545 S
O227 C232 1.279 1_545 S
O228 Cd225 2.271 1_545 S
O228 C230 1.247 . S
O229 Cd225 2.418 1_545 S
O229 C230 1.208 . S
C230 O228 1.247 . S
C230 O229 1.208 . S
C231 O236 1.206 1_545 S
C231 O237 1.249 . S
C232 O224 1.315 . S
C232 O227 1.279 1_565 S
C233 O234 1.315 . S
C233 O235 1.279 . S
O234 Cd226 2.223 . S
O234 C233 1.315 . S
O235 Cd225 2.263 . S
O235 C233 1.279 . S
O236 Cd226 2.297 . S
O236 C231 1.206 1_565 S
O237 Cd226 2.439 1_545 S
O237 C231 1.249 . S
O238 Cd239 2.223 . S
O238 C246 1.315 . S
Cd239 O238 2.223 . S
Cd239 O242 2.297 . S
Cd239 O243 2.439 . S
Cd239 O249 2.240 . S
Cd240 O241 2.240 . S
Cd240 O248 2.223 . S
Cd240 O250 2.297 . S
Cd240 O251 2.439 . S
O241 Cd240 2.240 . S
O241 C246 1.279 . S
O242 Cd239 2.297 . S
O242 C244 1.247 . S
O243 Cd239 2.439 . S
O243 C244 1.208 . S
C244 O242 1.247 . S
C244 O243 1.208 . S
C245 O250 1.247 . S
C245 O251 1.208 . S
C246 O238 1.315 . S
C246 O241 1.279 . S
C247 O248 1.315 . S
C247 O249 1.279 . S
O248 Cd240 2.223 . S
O248 C247 1.315 . S
O249 Cd239 2.240 . S
O249 C247 1.279 . S
O250 Cd240 2.297 . S
O250 C245 1.247 . S
O251 Cd240 2.439 . S
O251 C245 1.208 . S
O252 Cd253 2.223 . S
O252 C260 1.315 . S
Cd253 O252 2.223 . S
Cd253 O256 2.297 . S
Cd253 O257 2.439 . S
Cd253 O263 2.240 . S
Cd254 O255 2.240 . S
Cd254 O262 2.223 . S
Cd254 O264 2.297 . S
Cd254 O265 2.439 . S
O255 Cd254 2.240 . S
O255 C260 1.279 . S
O256 Cd253 2.297 . S
O256 C258 1.247 . S
O257 Cd253 2.439 . S
O257 C258 1.208 . S
C258 O256 1.247 . S
C258 O257 1.208 . S
C259 O264 1.247 . S
C259 O265 1.208 . S
C260 O252 1.315 . S
C260 O255 1.279 . S
C261 O262 1.315 . S
C261 O263 1.279 . S
O262 Cd254 2.223 . S
O262 C261 1.315 . S
O263 Cd253 2.240 . S
O263 C261 1.279 . S
O264 Cd254 2.297 . S
O264 C259 1.247 . S
O265 Cd254 2.439 . S
O265 C259 1.208 . S
O266 Cd267 2.223 . S
O266 C274 1.315 . S
Cd267 O266 2.223 . S
Cd267 O270 2.297 1_545 S
Cd267 O271 2.439 1_545 S
Cd267 O277 2.240 . S
Cd268 O269 2.240 . S
Cd268 O276 2.223 . S
Cd268 O278 2.297 . S
Cd268 O279 2.439 . S
O269 Cd268 2.240 . S
O269 C274 1.279 . S
O270 Cd267 2.297 1_565 S
O270 C272 1.247 . S
O271 Cd267 2.439 1_565 S
O271 C272 1.208 . S
C272 O270 1.247 . S
C272 O271 1.208 . S
C273 O278 1.247 . S
C273 O279 1.208 . S
C274 O266 1.315 . S
C274 O269 1.279 . S
C275 O276 1.315 . S
C275 O277 1.279 . S
O276 Cd268 2.223 . S
O276 C275 1.315 . S
O277 Cd267 2.240 . S
O277 C275 1.279 . S
O278 Cd268 2.297 . S
O278 C273 1.247 . S
O279 Cd268 2.439 . S
O279 C273 1.208 . S
O280 Cd281 2.223 . S
O280 C288 1.315 . S
Cd281 O280 2.223 . S
Cd281 O284 2.297 . S
Cd281 O285 2.439 . S
Cd281 O291 2.240 . S
Cd282 O283 2.240 . S
Cd282 O290 2.223 . S
Cd282 O292 2.297 . S
Cd282 O293 2.439 . S
O283 Cd282 2.240 . S
O283 C288 1.279 . S
O284 Cd281 2.297 . S
O284 C286 1.247 . S
O285 Cd281 2.439 . S
O285 C286 1.208 . S
C286 O284 1.247 . S
C286 O285 1.208 . S
C287 O292 1.247 . S
C287 O293 1.208 . S
C288 O280 1.315 . S
C288 O283 1.279 . S
C289 O290 1.315 . S
C289 O291 1.279 . S
O290 Cd282 2.223 . S
O290 C289 1.315 . S
O291 Cd281 2.240 . S
O291 C289 1.279 . S
O292 Cd282 2.297 . S
O292 C287 1.247 . S
O293 Cd282 2.439 . S
O293 C287 1.208 . S
O294 Cd295 2.223 . S
O294 C302 1.315 . S
Cd295 O294 2.223 . S
Cd295 O298 2.297 . S
Cd295 O299 2.439 . S
Cd295 O305 2.240 . S
Cd296 O297 2.240 . S
Cd296 O304 2.223 . S
Cd296 O306 2.297 . S
Cd296 O307 2.439 . S
O297 Cd296 2.240 . S
O297 C302 1.279 . S
O298 Cd295 2.297 . S
O298 C300 1.247 . S
O299 Cd295 2.439 . S
O299 C300 1.208 . S
C300 O298 1.247 . S
C300 O299 1.208 . S
C301 O306 1.247 . S
C301 O307 1.208 . S
C302 O294 1.315 . S
C302 O297 1.279 . S
C303 O304 1.315 . S
C303 O305 1.279 . S
O304 Cd296 2.223 . S
O304 C303 1.315 . S
O305 Cd295 2.240 . S
O305 C303 1.279 . S
O306 Cd296 2.297 . S
O306 C301 1.247 . S
O307 Cd296 2.439 . S
O307 C301 1.208 . S
O308 Cd309 2.223 . S
O308 C316 1.315 . S
Cd309 O308 2.223 . S
Cd309 O312 2.297 . S
Cd309 O313 2.439 . S
Cd309 O319 2.240 . S
Cd310 O311 2.240 . S
Cd310 O318 2.223 . S
Cd310 O320 2.297 . S
Cd310 O321 2.439 . S
O311 Cd310 2.240 . S
O311 C316 1.279 . S
O312 Cd309 2.297 . S
O312 C314 1.247 . S
O313 Cd309 2.439 . S
O313 C314 1.208 . S
C314 O312 1.247 . S
C314 O313 1.208 . S
C315 O320 1.247 . S
C315 O321 1.208 . S
C316 O308 1.315 . S
C316 O311 1.279 . S
C317 O318 1.315 . S
C317 O319 1.279 . S
O318 Cd310 2.223 . S
O318 C317 1.315 . S
O319 Cd309 2.240 . S
O319 C317 1.279 . S
O320 Cd310 2.297 . S
O320 C315 1.247 . S
O321 Cd310 2.439 . S
O321 C315 1.208 . S
O322 Cd323 2.223 . S
O322 C330 1.315 . S
Cd323 O322 2.223 . S
Cd323 O326 2.297 . S
Cd323 O327 2.439 . S
Cd323 O333 2.240 . S
Cd324 O325 2.240 . S
Cd324 O332 2.223 . S
Cd324 O334 2.297 . S
Cd324 O335 2.439 . S
O325 Cd324 2.240 . S
O325 C330 1.279 . S
O326 Cd323 2.297 . S
O326 C328 1.247 . S
O327 Cd323 2.439 . S
O327 C328 1.208 . S
C328 O326 1.247 . S
C328 O327 1.208 . S
C329 O334 1.247 . S
C329 O335 1.208 . S
C330 O322 1.315 . S
C330 O325 1.279 . S
C331 O332 1.315 . S
C331 O333 1.279 . S
O332 Cd324 2.223 . S
O332 C331 1.315 . S
O333 Cd323 2.240 . S
O333 C331 1.279 . S
O334 Cd324 2.297 . S
O334 C329 1.247 . S
O335 Cd324 2.439 . S
O335 C329 1.208 . S
Tb336 C338 2.809 1_455 S
Tb336 O356 2.484 1_455 S
Tb336 O357 2.440 1_455 S
Tb336 O358 2.658 . S
Tb336 O359 2.409 . S
Tb336 O360 2.378 . S
Tb336 O364 2.325 . S
Tb336 O367 2.341 1_545 S
Tb337 C347 2.809 . S
Tb337 O358 2.325 . S
Tb337 O361 2.341 . S
Tb337 O362 2.484 . S
Tb337 O363 2.440 . S
Tb337 O364 2.658 . S
Tb337 O365 2.409 . S
Tb337 O366 2.378 . S
C338 Tb336 2.809 1_655 S
C338 C339 1.514 . S
C338 O356 1.248 . S
C338 O357 1.266 . S
C339 C338 1.514 . S
C339 C340 1.359 . S
C339 C344 1.348 . S
C340 C339 1.359 . S
C340 C341 1.380 . S
C340 H368 0.929 . S
C341 C340 1.380 . S
C341 C342 1.347 . S
C341 H369 0.931 . S
C342 C341 1.347 . S
C342 C343 1.369 . S
C343 C342 1.369 . S
C343 C344 1.408 . S
C343 H370 0.930 . S
C344 C339 1.348 . S
C344 C343 1.408 . S
C344 H371 0.930 . S
C345 O358 1.281 . S
C345 O359 1.254 . S
C346 O360 1.236 . S
C346 O361 1.266 . S
C347 Tb337 2.809 . S
C347 C348 1.514 . S
C347 O362 1.248 . S
C347 O363 1.266 . S
C348 C347 1.514 . S
C348 C349 1.359 1_545 S
C348 C353 1.348 . S
C349 C348 1.359 1_565 S
C349 C350 1.380 . S
C349 H372 0.929 . S
C350 C349 1.380 . S
C350 C351 1.347 . S
C350 H373 0.931 . S
C351 C350 1.347 . S
C351 C352 1.369 . S
C352 C351 1.369 . S
C352 C353 1.408 1_565 S
C352 H374 0.930 . S
C353 C348 1.348 . S
C353 C352 1.408 1_545 S
C353 H375 0.930 . S
C354 O364 1.281 . S
C354 O365 1.254 . S
C355 O366 1.236 1_565 S
C355 O367 1.266 . S
O356 Tb336 2.484 1_655 S
O356 C338 1.248 . S
O357 Tb336 2.440 1_655 S
O357 C338 1.266 . S
O358 Tb336 2.658 . S
O358 Tb337 2.325 . S
O358 C345 1.281 . S
O359 Tb336 2.409 . S
O359 C345 1.254 . S
O360 Tb336 2.378 . S
O360 C346 1.236 . S
O361 Tb337 2.341 . S
O361 C346 1.266 . S
O362 Tb337 2.484 . S
O362 C347 1.248 . S
O363 Tb337 2.440 . S
O363 C347 1.266 . S
O364 Tb336 2.325 . S
O364 Tb337 2.658 . S
O364 C354 1.281 . S
O365 Tb337 2.409 . S
O365 C354 1.254 . S
O366 Tb337 2.378 . S
O366 C355 1.236 1_545 S
O367 Tb336 2.341 1_565 S
O367 C355 1.266 . S
H368 C340 0.929 . S
H369 C341 0.931 . S
H370 C343 0.930 . S
H371 C344 0.930 . S
H372 C349 0.929 . S
H373 C350 0.931 . S
H374 C352 0.930 . S
H375 C353 0.930 . S
Tb376 C378 2.809 . S
Tb376 O396 2.484 . S
Tb376 O397 2.440 . S
Tb376 O398 2.658 . S
Tb376 O399 2.409 . S
Tb376 O400 2.378 . S
Tb376 O404 2.325 . S
Tb376 O407 2.341 . S
Tb377 C387 2.809 . S
Tb377 O398 2.325 . S
Tb377 O401 2.341 . S
Tb377 O402 2.484 . S
Tb377 O403 2.440 . S
Tb377 O404 2.658 . S
Tb377 O405 2.409 . S
Tb377 O406 2.378 . S
C378 Tb376 2.809 . S
C378 C379 1.514 . S
C378 O396 1.248 . S
C378 O397 1.266 . S
C379 C378 1.514 . S
C379 C380 1.359 . S
C379 C384 1.348 . S
C380 C379 1.359 . S
C380 C381 1.380 . S
C380 H408 0.929 . S
C381 C380 1.380 . S
C381 C382 1.347 . S
C381 H409 0.931 . S
C382 C381 1.347 . S
C382 C383 1.369 . S
C383 C382 1.369 . S
C383 C384 1.408 . S
C383 H410 0.930 . S
C384 C379 1.348 . S
C384 C383 1.408 . S
C384 H411 0.930 . S
C385 O398 1.281 . S
C385 O399 1.254 . S
C386 O400 1.236 . S
C386 O401 1.266 . S
C387 Tb377 2.809 . S
C387 C388 1.514 . S
C387 O402 1.248 . S
C387 O403 1.266 . S
C388 C387 1.514 . S
C388 C389 1.359 . S
C388 C393 1.348 . S
C389 C388 1.359 . S
C389 C390 1.380 . S
C389 H412 0.929 . S
C390 C389 1.380 . S
C390 C391 1.347 . S
C390 H413 0.931 . S
C391 C390 1.347 . S
C391 C392 1.369 . S
C392 C391 1.369 . S
C392 C393 1.408 . S
C392 H414 0.930 . S
C393 C388 1.348 . S
C393 C392 1.408 . S
C393 H415 0.930 . S
C394 O404 1.281 . S
C394 O405 1.254 . S
C395 O406 1.236 . S
C395 O407 1.266 . S
O396 Tb376 2.484 . S
O396 C378 1.248 . S
O397 Tb376 2.440 . S
O397 C378 1.266 . S
O398 Tb376 2.658 . S
O398 Tb377 2.325 . S
O398 C385 1.281 . S
O399 Tb376 2.409 . S
O399 C385 1.254 . S
O400 Tb376 2.378 . S
O400 C386 1.236 . S
O401 Tb377 2.341 . S
O401 C386 1.266 . S
O402 Tb377 2.484 . S
O402 C387 1.248 . S
O403 Tb377 2.440 . S
O403 C387 1.266 . S
O404 Tb376 2.325 . S
O404 Tb377 2.658 . S
O404 C394 1.281 . S
O405 Tb377 2.409 . S
O405 C394 1.254 . S
O406 Tb377 2.378 . S
O406 C395 1.236 . S
O407 Tb376 2.341 . S
O407 C395 1.266 . S
H408 C380 0.929 . S
H409 C381 0.931 . S
H410 C383 0.930 . S
H411 C384 0.930 . S
H412 C389 0.929 . S
H413 C390 0.931 . S
H414 C392 0.930 . S
H415 C393 0.930 . S
Tb416 C418 2.809 . S
Tb416 O436 2.484 . S
Tb416 O437 2.440 . S
Tb416 O438 2.658 . S
Tb416 O439 2.409 . S
Tb416 O440 2.378 1_545 S
Tb416 O444 2.325 . S
Tb416 O447 2.341 . S
Tb417 C427 2.809 . S
Tb417 O438 2.325 . S
Tb417 O441 2.341 1_545 S
Tb417 O442 2.484 . S
Tb417 O443 2.440 . S
Tb417 O444 2.658 . S
Tb417 O445 2.409 . S
Tb417 O446 2.378 . S
C418 Tb416 2.809 . S
C418 C419 1.514 1_545 S
C418 O436 1.248 . S
C418 O437 1.266 . S
C419 C418 1.514 1_565 S
C419 C420 1.359 . S
C419 C424 1.348 . S
C420 C419 1.359 . S
C420 C421 1.380 . S
C420 H448 0.929 . S
C421 C420 1.380 . S
C421 C422 1.347 . S
C421 H449 0.931 . S
C422 C421 1.347 . S
C422 C423 1.369 . S
C423 C422 1.369 . S
C423 C424 1.408 . S
C423 H450 0.930 . S
C424 C419 1.348 . S
C424 C423 1.408 . S
C424 H451 0.930 . S
C425 O438 1.281 . S
C425 O439 1.254 . S
C426 O440 1.236 . S
C426 O441 1.266 . S
C427 Tb417 2.809 . S
C427 C428 1.514 . S
C427 O442 1.248 . S
C427 O443 1.266 . S
C428 C427 1.514 . S
C428 C429 1.359 . S
C428 C433 1.348 . S
C429 C428 1.359 . S
C429 C430 1.380 . S
C429 H452 0.929 . S
C430 C429 1.380 . S
C430 C431 1.347 . S
C430 H453 0.931 . S
C431 C430 1.347 . S
C431 C432 1.369 . S
C432 C431 1.369 . S
C432 C433 1.408 . S
C432 H454 0.930 . S
C433 C428 1.348 . S
C433 C432 1.408 . S
C433 H455 0.930 . S
C434 O444 1.281 . S
C434 O445 1.254 . S
C435 O446 1.236 . S
C435 O447 1.266 . S
O436 Tb416 2.484 . S
O436 C418 1.248 . S
O437 Tb416 2.440 . S
O437 C418 1.266 . S
O438 Tb416 2.658 . S
O438 Tb417 2.325 . S
O438 C425 1.281 . S
O439 Tb416 2.409 . S
O439 C425 1.254 . S
O440 Tb416 2.378 1_565 S
O440 C426 1.236 . S
O441 Tb417 2.341 1_565 S
O441 C426 1.266 . S
O442 Tb417 2.484 . S
O442 C427 1.248 . S
O443 Tb417 2.440 . S
O443 C427 1.266 . S
O444 Tb416 2.325 . S
O444 Tb417 2.658 . S
O444 C434 1.281 . S
O445 Tb417 2.409 . S
O445 C434 1.254 . S
O446 Tb417 2.378 . S
O446 C435 1.236 . S
O447 Tb416 2.341 . S
O447 C435 1.266 . S
H448 C420 0.929 . S
H449 C421 0.931 . S
H450 C423 0.930 . S
H451 C424 0.930 . S
H452 C429 0.929 . S
H453 C430 0.931 . S
H454 C432 0.930 . S
H455 C433 0.930 . S
Tb456 C458 2.809 . S
Tb456 O476 2.484 . S
Tb456 O477 2.440 . S
Tb456 O478 2.658 . S
Tb456 O479 2.409 . S
Tb456 O480 2.378 . S
Tb456 O484 2.325 . S
Tb456 O487 2.341 . S
Tb457 C467 2.809 . S
Tb457 O478 2.325 . S
Tb457 O481 2.341 . S
Tb457 O482 2.484 . S
Tb457 O483 2.440 . S
Tb457 O484 2.658 . S
Tb457 O485 2.409 . S
Tb457 O486 2.378 . S
C458 Tb456 2.809 . S
C458 C459 1.514 . S
C458 O476 1.248 . S
C458 O477 1.266 . S
C459 C458 1.514 . S
C459 C460 1.359 . S
C459 C464 1.348 . S
C460 C459 1.359 . S
C460 C461 1.380 . S
C460 H488 0.929 . S
C461 C460 1.380 . S
C461 C462 1.347 . S
C461 H489 0.931 . S
C462 C461 1.347 . S
C462 C463 1.369 . S
C463 C462 1.369 . S
C463 C464 1.408 . S
C463 H490 0.930 . S
C464 C459 1.348 . S
C464 C463 1.408 . S
C464 H491 0.930 . S
C465 O478 1.281 . S
C465 O479 1.254 . S
C466 O480 1.236 . S
C466 O481 1.266 . S
C467 Tb457 2.809 . S
C467 C468 1.514 . S
C467 O482 1.248 . S
C467 O483 1.266 . S
C468 C467 1.514 . S
C468 C469 1.359 . S
C468 C473 1.348 . S
C469 C468 1.359 . S
C469 C470 1.380 . S
C469 H492 0.929 . S
C470 C469 1.380 . S
C470 C471 1.347 . S
C470 H493 0.931 . S
C471 C470 1.347 . S
C471 C472 1.369 . S
C472 C471 1.369 . S
C472 C473 1.408 . S
C472 H494 0.930 . S
C473 C468 1.348 . S
C473 C472 1.408 . S
C473 H495 0.930 . S
C474 O484 1.281 . S
C474 O485 1.254 . S
C475 O486 1.236 . S
C475 O487 1.266 . S
O476 Tb456 2.484 . S
O476 C458 1.248 . S
O477 Tb456 2.440 . S
O477 C458 1.266 . S
O478 Tb456 2.658 . S
O478 Tb457 2.325 . S
O478 C465 1.281 . S
O479 Tb456 2.409 . S
O479 C465 1.254 . S
O480 Tb456 2.378 . S
O480 C466 1.236 . S
O481 Tb457 2.341 . S
O481 C466 1.266 . S
O482 Tb457 2.484 . S
O482 C467 1.248 . S
O483 Tb457 2.440 . S
O483 C467 1.266 . S
O484 Tb456 2.325 . S
O484 Tb457 2.658 . S
O484 C474 1.281 . S
O485 Tb457 2.409 . S
O485 C474 1.254 . S
O486 Tb457 2.378 . S
O486 C475 1.236 . S
O487 Tb456 2.341 . S
O487 C475 1.266 . S
H488 C460 0.929 . S
H489 C461 0.931 . S
H490 C463 0.930 . S
H491 C464 0.930 . S
H492 C469 0.929 . S
H493 C470 0.931 . S
H494 C472 0.930 . S
H495 C473 0.930 . S
Tb496 C498 2.809 . S
Tb496 O516 2.484 . S
Tb496 O517 2.440 . S
Tb496 O518 2.658 . S
Tb496 O519 2.408 1_455 S
Tb496 O520 2.378 . S
Tb496 O524 2.325 . S
Tb496 O527 2.341 . S
Tb497 C507 2.809 . S
Tb497 O518 2.325 1_565 S
Tb497 O521 2.341 1_565 S
Tb497 O522 2.484 . S
Tb497 O523 2.440 . S
Tb497 O524 2.658 1_565 S
Tb497 O525 2.409 1_565 S
Tb497 O526 2.378 1_565 S
C498 Tb496 2.809 . S
C498 C499 1.514 . S
C498 O516 1.248 . S
C498 O517 1.266 . S
C499 C498 1.514 . S
C499 C500 1.359 . S
C499 C504 1.348 . S
C500 C499 1.359 . S
C500 C501 1.380 . S
C500 H528 0.929 . S
C501 C500 1.380 . S
C501 C502 1.347 . S
C501 H529 0.931 . S
C502 C501 1.347 . S
C502 C503 1.369 1_455 S
C503 C502 1.369 1_655 S
C503 C504 1.408 1_655 S
C503 H530 0.930 . S
C504 C499 1.348 . S
C504 C503 1.408 1_455 S
C504 H531 0.930 1_455 S
C505 O518 1.281 . S
C505 O519 1.253 1_455 S
C506 O520 1.236 . S
C506 O521 1.266 . S
C507 Tb497 2.809 . S
C507 C508 1.514 . S
C507 O522 1.248 . S
C507 O523 1.266 . S
C508 C507 1.514 . S
C508 C509 1.359 . S
C508 C513 1.348 . S
C509 C508 1.359 . S
C509 C510 1.380 . S
C509 H532 0.929 . S
C510 C509 1.380 . S
C510 C511 1.347 . S
C510 H533 0.931 . S
C511 C510 1.347 . S
C511 C512 1.369 . S
C512 C511 1.369 . S
C512 C513 1.408 . S
C512 H534 0.930 . S
C513 C508 1.348 . S
C513 C512 1.408 . S
C513 H535 0.930 . S
C514 O524 1.281 . S
C514 O525 1.254 . S
C515 O526 1.236 . S
C515 O527 1.266 . S
O516 Tb496 2.484 . S
O516 C498 1.248 . S
O517 Tb496 2.440 . S
O517 C498 1.266 . S
O518 Tb496 2.658 . S
O518 Tb497 2.325 1_545 S
O518 C505 1.281 . S
O519 Tb496 2.408 1_655 S
O519 C505 1.253 1_655 S
O520 Tb496 2.378 . S
O520 C506 1.236 . S
O521 Tb497 2.341 1_545 S
O521 C506 1.266 . S
O522 Tb497 2.484 . S
O522 C507 1.248 . S
O523 Tb497 2.440 . S
O523 C507 1.266 . S
O524 Tb496 2.325 . S
O524 Tb497 2.658 1_545 S
O524 C514 1.281 . S
O525 Tb497 2.409 1_545 S
O525 C514 1.254 . S
O526 Tb497 2.378 1_545 S
O526 C515 1.236 . S
O527 Tb496 2.341 . S
O527 C515 1.266 . S
H528 C500 0.929 . S
H529 C501 0.931 . S
H530 C503 0.930 . S
H531 C504 0.930 1_655 S
H532 C509 0.929 . S
H533 C510 0.931 . S
H534 C512 0.930 . S
H535 C513 0.930 . S
Tb536 C538 2.809 . S
Tb536 O556 2.484 . S
Tb536 O557 2.440 . S
Tb536 O558 2.658 . S
Tb536 O559 2.409 . S
Tb536 O560 2.378 . S
Tb536 O564 2.325 . S
Tb536 O567 2.341 . S
Tb537 C547 2.809 . S
Tb537 O558 2.325 . S
Tb537 O561 2.341 . S
Tb537 O562 2.484 . S
Tb537 O563 2.440 . S
Tb537 O564 2.658 . S
Tb537 O565 2.409 . S
Tb537 O566 2.378 . S
C538 Tb536 2.809 . S
C538 C539 1.514 . S
C538 O556 1.248 . S
C538 O557 1.266 . S
C539 C538 1.514 . S
C539 C540 1.359 . S
C539 C544 1.348 . S
C540 C539 1.359 . S
C540 C541 1.380 . S
C540 H568 0.929 . S
C541 C540 1.380 . S
C541 C542 1.347 . S
C541 H569 0.931 . S
C542 C541 1.347 . S
C542 C543 1.369 . S
C543 C542 1.369 . S
C543 C544 1.408 . S
C543 H570 0.930 . S
C544 C539 1.348 . S
C544 C543 1.408 . S
C544 H571 0.930 . S
C545 O558 1.281 . S
C545 O559 1.254 . S
C546 O560 1.236 . S
C546 O561 1.266 . S
C547 Tb537 2.809 . S
C547 C548 1.514 . S
C547 O562 1.248 . S
C547 O563 1.266 . S
C548 C547 1.514 . S
C548 C549 1.359 . S
C548 C553 1.348 . S
C549 C548 1.359 . S
C549 C550 1.380 . S
C549 H572 0.929 . S
C550 C549 1.380 . S
C550 C551 1.347 . S
C550 H573 0.931 . S
C551 C550 1.347 . S
C551 C552 1.369 . S
C552 C551 1.369 . S
C552 C553 1.408 . S
C552 H574 0.930 . S
C553 C548 1.348 . S
C553 C552 1.408 . S
C553 H575 0.930 . S
C554 O564 1.281 . S
C554 O565 1.254 . S
C555 O566 1.236 . S
C555 O567 1.266 . S
O556 Tb536 2.484 . S
O556 C538 1.248 . S
O557 Tb536 2.440 . S
O557 C538 1.266 . S
O558 Tb536 2.658 . S
O558 Tb537 2.325 . S
O558 C545 1.281 . S
O559 Tb536 2.409 . S
O559 C545 1.254 . S
O560 Tb536 2.378 . S
O560 C546 1.236 . S
O561 Tb537 2.341 . S
O561 C546 1.266 . S
O562 Tb537 2.484 . S
O562 C547 1.248 . S
O563 Tb537 2.440 . S
O563 C547 1.266 . S
O564 Tb536 2.325 . S
O564 Tb537 2.658 . S
O564 C554 1.281 . S
O565 Tb537 2.409 . S
O565 C554 1.254 . S
O566 Tb537 2.378 . S
O566 C555 1.236 . S
O567 Tb536 2.341 . S
O567 C555 1.266 . S
H568 C540 0.929 . S
H569 C541 0.931 . S
H570 C543 0.930 . S
H571 C544 0.930 . S
H572 C549 0.929 . S
H573 C550 0.931 . S
H574 C552 0.930 . S
H575 C553 0.930 . S
Tb576 C578 2.809 1_545 S
Tb576 O596 2.484 1_545 S
Tb576 O597 2.440 . S
Tb576 O598 2.658 . S
Tb576 O599 2.409 . S
Tb576 O600 2.378 . S
Tb576 O604 2.325 1_545 S
Tb576 O607 2.341 . S
Tb577 C587 2.809 . S
Tb577 O598 2.325 . S
Tb577 O601 2.341 . S
Tb577 O602 2.484 . S
Tb577 O603 2.440 . S
Tb577 O604 2.658 1_545 S
Tb577 O605 2.409 1_545 S
Tb577 O606 2.378 . S
C578 Tb576 2.809 1_565 S
C578 C579 1.514 . S
C578 O596 1.248 . S
C578 O597 1.266 1_565 S
C579 C578 1.514 . S
C579 C580 1.359 . S
C579 C584 1.348 1_565 S
C580 C579 1.359 . S
C580 C581 1.380 . S
C580 H608 0.929 . S
C581 C580 1.380 . S
C581 C582 1.347 . S
C581 H609 0.931 . S
C582 C581 1.347 . S
C582 C583 1.369 . S
C583 C582 1.369 . S
C583 C584 1.408 1_565 S
C583 H610 0.930 1_565 S
C584 C579 1.348 1_545 S
C584 C583 1.408 1_545 S
C584 H611 0.930 . S
C585 O598 1.281 . S
C585 O599 1.254 . S
C586 O600 1.236 . S
C586 O601 1.266 . S
C587 Tb577 2.809 . S
C587 C588 1.514 . S
C587 O602 1.248 . S
C587 O603 1.266 . S
C588 C587 1.514 . S
C588 C589 1.359 . S
C588 C593 1.348 . S
C589 C588 1.359 . S
C589 C590 1.380 . S
C589 H612 0.929 . S
C590 C589 1.380 . S
C590 C591 1.347 . S
C590 H613 0.931 . S
C591 C590 1.347 . S
C591 C592 1.369 . S
C592 C591 1.369 . S
C592 C593 1.408 . S
C592 H614 0.930 . S
C593 C588 1.348 . S
C593 C592 1.408 . S
C593 H615 0.930 . S
C594 O604 1.281 . S
C594 O605 1.254 . S
C595 O606 1.236 . S
C595 O607 1.266 . S
O596 Tb576 2.484 1_565 S
O596 C578 1.248 . S
O597 Tb576 2.440 . S
O597 C578 1.266 1_545 S
O598 Tb576 2.658 . S
O598 Tb577 2.325 . S
O598 C585 1.281 . S
O599 Tb576 2.409 . S
O599 C585 1.254 . S
O600 Tb576 2.378 . S
O600 C586 1.236 . S
O601 Tb577 2.341 . S
O601 C586 1.266 . S
O602 Tb577 2.484 . S
O602 C587 1.248 . S
O603 Tb577 2.440 . S
O603 C587 1.266 . S
O604 Tb576 2.325 1_565 S
O604 Tb577 2.658 1_565 S
O604 C594 1.281 . S
O605 Tb577 2.409 1_565 S
O605 C594 1.254 . S
O606 Tb577 2.378 . S
O606 C595 1.236 . S
O607 Tb576 2.341 . S
O607 C595 1.266 . S
H608 C580 0.929 . S
H609 C581 0.931 . S
H610 C583 0.930 1_545 S
H611 C584 0.930 . S
H612 C589 0.929 . S
H613 C590 0.931 . S
H614 C592 0.930 . S
H615 C593 0.930 . S
Tb616 C618 2.809 . S
Tb616 O636 2.484 . S
Tb616 O637 2.440 . S
Tb616 O638 2.658 . S
Tb616 O639 2.409 . S
Tb616 O640 2.378 . S
Tb616 O644 2.325 . S
Tb616 O647 2.341 . S
Tb617 C627 2.809 . S
Tb617 O638 2.325 . S
Tb617 O641 2.341 . S
Tb617 O642 2.484 . S
Tb617 O643 2.440 . S
Tb617 O644 2.658 . S
Tb617 O645 2.409 . S
Tb617 O646 2.378 . S
C618 Tb616 2.809 . S
C618 C619 1.514 . S
C618 O636 1.248 . S
C618 O637 1.266 . S
C619 C618 1.514 . S
C619 C620 1.359 . S
C619 C624 1.348 . S
C620 C619 1.359 . S
C620 C621 1.380 . S
C620 H648 0.929 . S
C621 C620 1.380 . S
C621 C622 1.347 . S
C621 H649 0.931 . S
C622 C621 1.347 . S
C622 C623 1.369 . S
C623 C622 1.369 . S
C623 C624 1.408 . S
C623 H650 0.930 . S
C624 C619 1.348 . S
C624 C623 1.408 . S
C624 H651 0.930 . S
C625 O638 1.281 . S
C625 O639 1.254 . S
C626 O640 1.236 . S
C626 O641 1.266 . S
C627 Tb617 2.809 . S
C627 C628 1.514 . S
C627 O642 1.248 . S
C627 O643 1.266 . S
C628 C627 1.514 . S
C628 C629 1.359 . S
C628 C633 1.348 . S
C629 C628 1.359 . S
C629 C630 1.380 . S
C629 H652 0.929 . S
C630 C629 1.380 . S
C630 C631 1.347 . S
C630 H653 0.931 . S
C631 C630 1.347 . S
C631 C632 1.369 . S
C632 C631 1.369 . S
C632 C633 1.408 . S
C632 H654 0.930 . S
C633 C628 1.348 . S
C633 C632 1.408 . S
C633 H655 0.930 . S
C634 O644 1.281 . S
C634 O645 1.254 . S
C635 O646 1.236 . S
C635 O647 1.266 . S
O636 Tb616 2.484 . S
O636 C618 1.248 . S
O637 Tb616 2.440 . S
O637 C618 1.266 . S
O638 Tb616 2.658 . S
O638 Tb617 2.325 . S
O638 C625 1.281 . S
O639 Tb616 2.409 . S
O639 C625 1.254 . S
O640 Tb616 2.378 . S
O640 C626 1.236 . S
O641 Tb617 2.341 . S
O641 C626 1.266 . S
O642 Tb617 2.484 . S
O642 C627 1.248 . S
O643 Tb617 2.440 . S
O643 C627 1.266 . S
O644 Tb616 2.325 . S
O644 Tb617 2.658 . S
O644 C634 1.281 . S
O645 Tb617 2.409 . S
O645 C634 1.254 . S
O646 Tb617 2.378 . S
O646 C635 1.236 . S
O647 Tb616 2.341 . S
O647 C635 1.266 . S
H648 C620 0.929 . S
H649 C621 0.931 . S
H650 C623 0.930 . S
H651 C624 0.930 . S
H652 C629 0.929 . S
H653 C630 0.931 . S
H654 C632 0.930 . S
H655 C633 0.930 . S
Tb656 C658 2.809 . S
Tb656 O676 2.484 . S
Tb656 O677 2.440 . S
Tb656 O678 2.658 . S
Tb656 O679 2.409 . S
Tb656 O680 2.378 . S
Tb656 O684 2.325 . S
Tb656 O687 2.341 . S
Tb657 C667 2.809 . S
Tb657 O678 2.325 . S
Tb657 O681 2.341 . S
Tb657 O682 2.484 . S
Tb657 O683 2.440 . S
Tb657 O684 2.658 . S
Tb657 O685 2.409 . S
Tb657 O686 2.378 . S
C658 Tb656 2.809 . S
C658 C659 1.514 . S
C658 O676 1.248 . S
C658 O677 1.266 . S
C659 C658 1.514 . S
C659 C660 1.359 . S
C659 C664 1.348 . S
C660 C659 1.359 . S
C660 C661 1.380 . S
C660 H688 0.929 . S
C661 C660 1.380 . S
C661 C662 1.345 . S
C661 H689 0.931 1_554 S
C662 C661 1.345 . S
C662 C663 1.387 . S
C663 C662 1.387 . S
C663 C664 1.408 . S
C663 H690 0.930 . S
C664 C659 1.348 . S
C664 C663 1.408 . S
C664 H691 0.930 . S
C665 O678 1.281 . S
C665 O679 1.254 . S
C666 O680 1.236 . S
C666 O681 1.266 . S
C667 Tb657 2.809 . S
C667 C668 1.514 . S
C667 O682 1.248 . S
C667 O683 1.266 . S
C668 C667 1.514 . S
C668 C669 1.359 . S
C668 C673 1.348 . S
C669 C668 1.359 . S
C669 C670 1.380 . S
C669 H692 0.929 . S
C670 C669 1.380 . S
C670 C671 1.347 . S
C670 H693 0.931 . S
C671 C670 1.347 . S
C671 C672 1.369 . S
C672 C671 1.369 . S
C672 C673 1.408 . S
C672 H694 0.930 . S
C673 C668 1.348 . S
C673 C672 1.408 . S
C673 H695 0.930 . S
C674 O684 1.281 . S
C674 O685 1.254 . S
C675 O686 1.236 . S
C675 O687 1.266 . S
O676 Tb656 2.484 . S
O676 C658 1.248 . S
O677 Tb656 2.440 . S
O677 C658 1.266 . S
O678 Tb656 2.658 . S
O678 Tb657 2.325 . S
O678 C665 1.281 . S
O679 Tb656 2.409 . S
O679 C665 1.254 . S
O680 Tb656 2.378 . S
O680 C666 1.236 . S
O681 Tb657 2.341 . S
O681 C666 1.266 . S
O682 Tb657 2.484 . S
O682 C667 1.248 . S
O683 Tb657 2.440 . S
O683 C667 1.266 . S
O684 Tb656 2.325 . S
O684 Tb657 2.658 . S
O684 C674 1.281 . S
O685 Tb657 2.409 . S
O685 C674 1.254 . S
O686 Tb657 2.378 . S
O686 C675 1.236 . S
O687 Tb656 2.341 . S
O687 C675 1.266 . S
H688 C660 0.929 . S
H689 C661 0.931 1_556 S
H690 C663 0.930 . S
H691 C664 0.930 . S
H692 C669 0.929 . S
H693 C670 0.931 . S
H694 C672 0.930 . S
H695 C673 0.930 . S
Tb696 C698 2.809 . S
Tb696 O716 2.484 . S
Tb696 O717 2.440 . S
Tb696 O718 2.658 . S
Tb696 O719 2.409 . S
Tb696 O720 2.378 . S
Tb696 O724 2.325 . S
Tb696 O727 2.341 . S
Tb697 C707 2.809 . S
Tb697 O718 2.325 . S
Tb697 O721 2.341 . S
Tb697 O722 2.484 . S
Tb697 O723 2.440 . S
Tb697 O724 2.658 . S
Tb697 O725 2.409 . S
Tb697 O726 2.378 . S
C698 Tb696 2.809 . S
C698 C699 1.514 . S
C698 O716 1.248 . S
C698 O717 1.266 . S
C699 C698 1.514 . S
C699 C700 1.359 . S
C699 C704 1.348 . S
C700 C699 1.359 . S
C700 C701 1.380 . S
C700 H728 0.929 . S
C701 C700 1.380 . S
C701 C702 1.347 . S
C701 H729 0.931 . S
C702 C701 1.347 . S
C702 C703 1.369 . S
C703 C702 1.369 . S
C703 C704 1.408 . S
C703 H730 0.930 . S
C704 C699 1.348 . S
C704 C703 1.408 . S
C704 H731 0.930 . S
C705 O718 1.281 . S
C705 O719 1.254 . S
C706 O720 1.236 . S
C706 O721 1.266 . S
C707 Tb697 2.809 . S
C707 C708 1.514 . S
C707 O722 1.248 . S
C707 O723 1.266 . S
C708 C707 1.514 . S
C708 C709 1.359 . S
C708 C713 1.348 . S
C709 C708 1.359 . S
C709 C710 1.380 . S
C709 H732 0.929 . S
C710 C709 1.380 . S
C710 C711 1.347 . S
C710 H733 0.931 . S
C711 C710 1.347 . S
C711 C712 1.369 . S
C712 C711 1.369 . S
C712 C713 1.408 . S
C712 H734 0.930 . S
C713 C708 1.348 . S
C713 C712 1.408 . S
C713 H735 0.930 . S
C714 O724 1.281 . S
C714 O725 1.254 . S
C715 O726 1.236 . S
C715 O727 1.266 . S
O716 Tb696 2.484 . S
O716 C698 1.248 . S
O717 Tb696 2.440 . S
O717 C698 1.266 . S
O718 Tb696 2.658 . S
O718 Tb697 2.325 . S
O718 C705 1.281 . S
O719 Tb696 2.409 . S
O719 C705 1.254 . S
O720 Tb696 2.378 . S
O720 C706 1.236 . S
O721 Tb697 2.341 . S
O721 C706 1.266 . S
O722 Tb697 2.484 . S
O722 C707 1.248 . S
O723 Tb697 2.440 . S
O723 C707 1.266 . S
O724 Tb696 2.325 . S
O724 Tb697 2.658 . S
O724 C714 1.281 . S
O725 Tb697 2.409 . S
O725 C714 1.254 . S
O726 Tb697 2.378 . S
O726 C715 1.236 . S
O727 Tb696 2.341 . S
O727 C715 1.266 . S
H728 C700 0.929 . S
H729 C701 0.931 . S
H730 C703 0.930 . S
H731 C704 0.930 . S
H732 C709 0.929 . S
H733 C710 0.931 . S
H734 C712 0.930 . S
H735 C713 0.930 . S
Tb736 C738 2.774 1_455 S
Tb736 O756 2.461 1_455 S
Tb736 O757 2.401 1_455 S
Tb736 O758 2.683 . S
Tb736 O759 2.404 . S
Tb736 O760 2.370 1_455 S
Tb736 O764 2.351 . S
Tb736 O767 2.374 . S
Tb737 C747 2.809 . S
Tb737 O758 2.325 . S
Tb737 O761 2.341 . S
Tb737 O762 2.484 . S
Tb737 O763 2.440 . S
Tb737 O764 2.658 . S
Tb737 O765 2.409 . S
Tb737 O766 2.378 . S
C738 Tb736 2.774 1_655 S
C738 C739 1.514 . S
C738 O756 1.248 . S
C738 O757 1.266 . S
C739 C738 1.514 . S
C739 C740 1.359 . S
C739 C744 1.348 . S
C740 C739 1.359 . S
C740 C741 1.380 . S
C740 H768 0.929 . S
C741 C740 1.380 . S
C741 C742 1.347 . S
C741 H769 0.931 . S
C742 C741 1.347 . S
C742 C743 1.369 . S
C743 C742 1.369 . S
C743 C744 1.408 . S
C743 H770 0.930 . S
C744 C739 1.348 . S
C744 C743 1.408 . S
C744 H771 0.930 . S
C745 O758 1.281 . S
C745 O759 1.254 . S
C746 O760 1.236 1_455 S
C746 O761 1.266 . S
C747 Tb737 2.809 . S
C747 C748 1.514 . S
C747 O762 1.248 . S
C747 O763 1.266 . S
C748 C747 1.514 . S
C748 C749 1.359 . S
C748 C753 1.348 . S
C749 C748 1.359 . S
C749 C750 1.380 . S
C749 H772 0.929 . S
C750 C749 1.380 . S
C750 C751 1.347 . S
C750 H773 0.931 . S
C751 C750 1.347 . S
C751 C752 1.369 . S
C752 C751 1.369 . S
C752 C753 1.408 . S
C752 H774 0.930 . S
C753 C748 1.348 . S
C753 C752 1.408 . S
C753 H775 0.930 . S
C754 O764 1.281 . S
C754 O765 1.254 . S
C755 O766 1.236 . S
C755 O767 1.266 . S
O756 Tb736 2.461 1_655 S
O756 C738 1.248 . S
O757 Tb736 2.401 1_655 S
O757 C738 1.266 . S
O758 Tb736 2.683 . S
O758 Tb737 2.325 . S
O758 C745 1.281 . S
O759 Tb736 2.404 . S
O759 C745 1.254 . S
O760 Tb736 2.370 1_655 S
O760 C746 1.236 1_655 S
O761 Tb737 2.341 . S
O761 C746 1.266 . S
O762 Tb737 2.484 . S
O762 C747 1.248 . S
O763 Tb737 2.440 . S
O763 C747 1.266 . S
O764 Tb736 2.351 . S
O764 Tb737 2.658 . S
O764 C754 1.281 . S
O765 Tb737 2.409 . S
O765 C754 1.254 . S
O766 Tb737 2.378 . S
O766 C755 1.236 . S
O767 Tb736 2.374 . S
O767 C755 1.266 . S
H768 C740 0.929 . S
H769 C741 0.931 . S
H770 C743 0.930 . S
H771 C744 0.930 . S
H772 C749 0.929 . S
H773 C750 0.931 . S
H774 C752 0.930 . S
H775 C753 0.930 . S
Tb776 C778 2.809 . S
Tb776 O796 2.484 . S
Tb776 O797 2.440 . S
Tb776 O798 2.658 . S
Tb776 O799 2.409 . S
Tb776 O800 2.378 . S
Tb776 O804 2.325 . S
Tb776 O807 2.341 . S
Tb777 C787 2.809 . S
Tb777 O798 2.325 . S
Tb777 O801 2.341 . S
Tb777 O802 2.484 . S
Tb777 O803 2.440 . S
Tb777 O804 2.658 . S
Tb777 O805 2.409 . S
Tb777 O806 2.378 . S
C778 Tb776 2.809 . S
C778 C779 1.514 . S
C778 O796 1.248 . S
C778 O797 1.266 . S
C779 C778 1.514 . S
C779 C780 1.359 . S
C779 C784 1.348 . S
C780 C779 1.359 . S
C780 C781 1.380 . S
C780 H808 0.929 . S
C781 C780 1.380 . S
C781 C782 1.347 . S
C781 H809 0.931 . S
C782 C781 1.347 . S
C782 C783 1.369 . S
C783 C782 1.369 . S
C783 C784 1.408 . S
C783 H810 0.930 . S
C784 C779 1.348 . S
C784 C783 1.408 . S
C784 H811 0.930 . S
C785 O798 1.281 . S
C785 O799 1.254 . S
C786 O800 1.236 . S
C786 O801 1.266 . S
C787 Tb777 2.809 . S
C787 C788 1.514 . S
C787 O802 1.248 . S
C787 O803 1.266 . S
C788 C787 1.514 . S
C788 C789 1.359 . S
C788 C793 1.348 . S
C789 C788 1.359 . S
C789 C790 1.380 . S
C789 H812 0.929 . S
C790 C789 1.380 . S
C790 C791 1.347 . S
C790 H813 0.931 . S
C791 C790 1.347 . S
C791 C792 1.369 . S
C792 C791 1.369 . S
C792 C793 1.408 . S
C792 H814 0.930 . S
C793 C788 1.348 . S
C793 C792 1.408 . S
C793 H815 0.930 . S
C794 O804 1.281 . S
C794 O805 1.254 . S
C795 O806 1.236 . S
C795 O807 1.266 . S
O796 Tb776 2.484 . S
O796 C778 1.248 . S
O797 Tb776 2.440 . S
O797 C778 1.266 . S
O798 Tb776 2.658 . S
O798 Tb777 2.325 . S
O798 C785 1.281 . S
O799 Tb776 2.409 . S
O799 C785 1.254 . S
O800 Tb776 2.378 . S
O800 C786 1.236 . S
O801 Tb777 2.341 . S
O801 C786 1.266 . S
O802 Tb777 2.484 . S
O802 C787 1.248 . S
O803 Tb777 2.440 . S
O803 C787 1.266 . S
O804 Tb776 2.325 . S
O804 Tb777 2.658 . S
O804 C794 1.281 . S
O805 Tb777 2.409 . S
O805 C794 1.254 . S
O806 Tb777 2.378 . S
O806 C795 1.236 . S
O807 Tb776 2.341 . S
O807 C795 1.266 . S
H808 C780 0.929 . S
H809 C781 0.931 . S
H810 C783 0.930 . S
H811 C784 0.930 . S
H812 C789 0.929 . S
H813 C790 0.931 . S
H814 C792 0.930 . S
H815 C793 0.930 . S
Tb816 C818 2.809 . S
Tb816 O836 2.484 . S
Tb816 O837 2.440 . S
Tb816 O838 2.658 . S
Tb816 O839 2.409 . S
Tb816 O840 2.378 . S
Tb816 O844 2.325 . S
Tb816 O847 2.341 . S
Tb817 C827 2.809 . S
Tb817 O838 2.325 . S
Tb817 O841 2.341 . S
Tb817 O842 2.484 . S
Tb817 O843 2.440 . S
Tb817 O844 2.658 . S
Tb817 O845 2.409 . S
Tb817 O846 2.378 . S
C818 Tb816 2.809 . S
C818 C819 1.514 . S
C818 O836 1.248 . S
C818 O837 1.266 . S
C819 C818 1.514 . S
C819 C820 1.359 . S
C819 C824 1.348 . S
C820 C819 1.359 . S
C820 C821 1.380 . S
C820 H848 0.929 . S
C821 C820 1.380 . S
C821 C822 1.347 . S
C821 H849 0.931 . S
C822 C821 1.347 . S
C822 C823 1.369 . S
C823 C822 1.369 . S
C823 C824 1.408 . S
C823 H850 0.930 . S
C824 C819 1.348 . S
C824 C823 1.408 . S
C824 H851 0.930 . S
C825 O838 1.281 . S
C825 O839 1.254 . S
C826 O840 1.236 . S
C826 O841 1.266 . S
C827 Tb817 2.809 . S
C827 C828 1.514 . S
C827 O842 1.248 . S
C827 O843 1.266 . S
C828 C827 1.514 . S
C828 C829 1.359 . S
C828 C833 1.348 . S
C829 C828 1.359 . S
C829 C830 1.380 . S
C829 H852 0.929 . S
C830 C829 1.380 . S
C830 C831 1.347 . S
C830 H853 0.931 . S
C831 C830 1.347 . S
C831 C832 1.369 . S
C832 C831 1.369 . S
C832 C833 1.408 . S
C832 H854 0.930 . S
C833 C828 1.348 . S
C833 C832 1.408 . S
C833 H855 0.930 . S
C834 O844 1.281 . S
C834 O845 1.254 . S
C835 O846 1.236 . S
C835 O847 1.266 . S
O836 Tb816 2.484 . S
O836 C818 1.248 . S
O837 Tb816 2.440 . S
O837 C818 1.266 . S
O838 Tb816 2.658 . S
O838 Tb817 2.325 . S
O838 C825 1.281 . S
O839 Tb816 2.409 . S
O839 C825 1.254 . S
O840 Tb816 2.378 . S
O840 C826 1.236 . S
O841 Tb817 2.341 . S
O841 C826 1.266 . S
O842 Tb817 2.484 . S
O842 C827 1.248 . S
O843 Tb817 2.440 . S
O843 C827 1.266 . S
O844 Tb816 2.325 . S
O844 Tb817 2.658 . S
O844 C834 1.281 . S
O845 Tb817 2.409 . S
O845 C834 1.254 . S
O846 Tb817 2.378 . S
O846 C835 1.236 . S
O847 Tb816 2.341 . S
O847 C835 1.266 . S
H848 C820 0.929 . S
H849 C821 0.931 . S
H850 C823 0.930 . S
H851 C824 0.930 . S
H852 C829 0.929 . S
H853 C830 0.931 . S
H854 C832 0.930 . S
H855 C833 0.930 . S
Tb856 C858 2.809 . S
Tb856 O876 2.484 . S
Tb856 O877 2.440 . S
Tb856 O878 2.658 . S
Tb856 O879 2.409 . S
Tb856 O880 2.378 . S
Tb856 O884 2.325 . S
Tb856 O887 2.341 . S
Tb857 C867 2.809 . S
Tb857 O878 2.325 . S
Tb857 O881 2.341 . S
Tb857 O882 2.484 . S
Tb857 O883 2.440 . S
Tb857 O884 2.658 . S
Tb857 O885 2.409 . S
Tb857 O886 2.378 . S
C858 Tb856 2.809 . S
C858 C859 1.514 . S
C858 O876 1.248 . S
C858 O877 1.266 . S
C859 C858 1.514 . S
C859 C860 1.359 . S
C859 C864 1.348 . S
C860 C859 1.359 . S
C860 C861 1.380 . S
C860 H888 0.929 . S
C861 C860 1.380 . S
C861 C862 1.347 . S
C861 H889 0.931 . S
C862 C861 1.347 . S
C862 C863 1.369 . S
C863 C862 1.369 . S
C863 C864 1.408 . S
C863 H890 0.930 . S
C864 C859 1.348 . S
C864 C863 1.408 . S
C864 H891 0.930 . S
C865 O878 1.281 . S
C865 O879 1.254 . S
C866 O880 1.236 . S
C866 O881 1.266 . S
C867 Tb857 2.809 . S
C867 C868 1.514 . S
C867 O882 1.248 . S
C867 O883 1.266 . S
C868 C867 1.514 . S
C868 C869 1.359 . S
C868 C873 1.348 . S
C869 C868 1.359 . S
C869 C870 1.380 . S
C869 H892 0.929 . S
C870 C869 1.380 . S
C870 C871 1.347 . S
C870 H893 0.931 . S
C871 C870 1.347 . S
C871 C872 1.369 . S
C872 C871 1.369 . S
C872 C873 1.408 . S
C872 H894 0.930 . S
C873 C868 1.348 . S
C873 C872 1.408 . S
C873 H895 0.930 . S
C874 O884 1.281 . S
C874 O885 1.254 . S
C875 O886 1.236 . S
C875 O887 1.266 . S
O876 Tb856 2.484 . S
O876 C858 1.248 . S
O877 Tb856 2.440 . S
O877 C858 1.266 . S
O878 Tb856 2.658 . S
O878 Tb857 2.325 . S
O878 C865 1.281 . S
O879 Tb856 2.409 . S
O879 C865 1.254 . S
O880 Tb856 2.378 . S
O880 C866 1.236 . S
O881 Tb857 2.341 . S
O881 C866 1.266 . S
O882 Tb857 2.484 . S
O882 C867 1.248 . S
O883 Tb857 2.440 . S
O883 C867 1.266 . S
O884 Tb856 2.325 . S
O884 Tb857 2.658 . S
O884 C874 1.281 . S
O885 Tb857 2.409 . S
O885 C874 1.254 . S
O886 Tb857 2.378 . S
O886 C875 1.236 . S
O887 Tb856 2.341 . S
O887 C875 1.266 . S
H888 C860 0.929 . S
H889 C861 0.931 . S
H890 C863 0.930 . S
H891 C864 0.930 . S
H892 C869 0.929 . S
H893 C870 0.931 . S
H894 C872 0.930 . S
H895 C873 0.930 . S
Tb896 C898 2.809 . S
Tb896 O916 2.484 . S
Tb896 O917 2.440 . S
Tb896 O918 2.658 . S
Tb896 O919 2.409 . S
Tb896 O920 2.378 . S
Tb896 O924 2.325 . S
Tb896 O927 2.341 . S
Tb897 C907 2.809 . S
Tb897 O918 2.325 . S
Tb897 O921 2.341 . S
Tb897 O922 2.484 . S
Tb897 O923 2.440 . S
Tb897 O924 2.658 . S
Tb897 O925 2.409 . S
Tb897 O926 2.378 . S
C898 Tb896 2.809 . S
C898 C899 1.514 . S
C898 O916 1.248 . S
C898 O917 1.266 . S
C899 C898 1.514 . S
C899 C900 1.359 . S
C899 C904 1.348 . S
C900 C899 1.359 . S
C900 C901 1.380 . S
C900 H928 0.929 . S
C901 C900 1.380 . S
C901 C902 1.347 . S
C901 H929 0.931 . S
C902 C901 1.347 . S
C902 C903 1.369 . S
C903 C902 1.369 . S
C903 C904 1.408 . S
C903 H930 0.930 . S
C904 C899 1.348 . S
C904 C903 1.408 . S
C904 H931 0.930 . S
C905 O918 1.281 . S
C905 O919 1.254 . S
C906 O920 1.236 . S
C906 O921 1.266 . S
C907 Tb897 2.809 . S
C907 C908 1.514 . S
C907 O922 1.248 . S
C907 O923 1.266 . S
C908 C907 1.514 . S
C908 C909 1.359 . S
C908 C913 1.348 . S
C909 C908 1.359 . S
C909 C910 1.380 . S
C909 H932 0.929 . S
C910 C909 1.380 . S
C910 C911 1.347 . S
C910 H933 0.931 . S
C911 C910 1.347 . S
C911 C912 1.369 . S
C912 C911 1.369 . S
C912 C913 1.408 . S
C912 H934 0.930 . S
C913 C908 1.348 . S
C913 C912 1.408 . S
C913 H935 0.930 . S
C914 O924 1.281 . S
C914 O925 1.254 . S
C915 O926 1.236 . S
C915 O927 1.266 . S
O916 Tb896 2.484 . S
O916 C898 1.248 . S
O917 Tb896 2.440 . S
O917 C898 1.266 . S
O918 Tb896 2.658 . S
O918 Tb897 2.325 . S
O918 C905 1.281 . S
O919 Tb896 2.409 . S
O919 C905 1.254 . S
O920 Tb896 2.378 . S
O920 C906 1.236 . S
O921 Tb897 2.341 . S
O921 C906 1.266 . S
O922 Tb897 2.484 . S
O922 C907 1.248 . S
O923 Tb897 2.440 . S
O923 C907 1.266 . S
O924 Tb896 2.325 . S
O924 Tb897 2.658 . S
O924 C914 1.281 . S
O925 Tb897 2.409 . S
O925 C914 1.254 . S
O926 Tb897 2.378 . S
O926 C915 1.236 . S
O927 Tb896 2.341 . S
O927 C915 1.266 . S
H928 C900 0.929 . S
H929 C901 0.931 . S
H930 C903 0.930 . S
H931 C904 0.930 . S
H932 C909 0.929 . S
H933 C910 0.931 . S
H934 C912 0.930 . S
H935 C913 0.930 . S
Tb936 C938 2.809 . S
Tb936 O956 2.484 . S
Tb936 O957 2.440 . S
Tb936 O958 2.658 . S
Tb936 O959 2.409 . S
Tb936 O960 2.378 . S
Tb936 O964 2.325 . S
Tb936 O967 2.341 . S
Tb937 C947 2.809 1_455 S
Tb937 O958 2.325 . S
Tb937 O961 2.341 . S
Tb937 O962 2.484 1_455 S
Tb937 O963 2.440 1_455 S
Tb937 O964 2.658 . S
Tb937 O965 2.409 . S
Tb937 O966 2.378 . S
C938 Tb936 2.809 . S
C938 C939 1.514 . S
C938 O956 1.248 . S
C938 O957 1.266 . S
C939 C938 1.514 . S
C939 C940 1.359 . S
C939 C944 1.348 . S
C940 C939 1.359 . S
C940 C941 1.380 . S
C940 H968 0.929 . S
C941 C940 1.380 . S
C941 C942 1.347 . S
C941 H969 0.931 . S
C942 C941 1.347 . S
C942 C943 1.369 . S
C943 C942 1.369 . S
C943 C944 1.408 . S
C943 H970 0.930 . S
C944 C939 1.348 . S
C944 C943 1.408 . S
C944 H971 0.930 . S
C945 O958 1.281 . S
C945 O959 1.254 . S
C946 O960 1.236 . S
C946 O961 1.266 . S
C947 Tb937 2.809 1_655 S
C947 C948 1.514 . S
C947 O962 1.248 . S
C947 O963 1.266 . S
C948 C947 1.514 . S
C948 C949 1.359 . S
C948 C953 1.348 . S
C949 C948 1.359 . S
C949 C950 1.380 . S
C949 H972 0.929 . S
C950 C949 1.380 . S
C950 C951 1.347 . S
C950 H973 0.931 . S
C951 C950 1.347 . S
C951 C952 1.369 . S
C952 C951 1.369 . S
C952 C953 1.408 . S
C952 H974 0.930 . S
C953 C948 1.348 . S
C953 C952 1.408 . S
C953 H975 0.930 . S
C954 O964 1.281 . S
C954 O965 1.254 . S
C955 O966 1.236 . S
C955 O967 1.266 . S
O956 Tb936 2.484 . S
O956 C938 1.248 . S
O957 Tb936 2.440 . S
O957 C938 1.266 . S
O958 Tb936 2.658 . S
O958 Tb937 2.325 . S
O958 C945 1.281 . S
O959 Tb936 2.409 . S
O959 C945 1.254 . S
O960 Tb936 2.378 . S
O960 C946 1.236 . S
O961 Tb937 2.341 . S
O961 C946 1.266 . S
O962 Tb937 2.484 1_655 S
O962 C947 1.248 . S
O963 Tb937 2.440 1_655 S
O963 C947 1.266 . S
O964 Tb936 2.325 . S
O964 Tb937 2.658 . S
O964 C954 1.281 . S
O965 Tb937 2.409 . S
O965 C954 1.254 . S
O966 Tb937 2.378 . S
O966 C955 1.236 . S
O967 Tb936 2.341 . S
O967 C955 1.266 . S
H968 C940 0.929 . S
H969 C941 0.931 . S
H970 C943 0.930 . S
H971 C944 0.930 . S
H972 C949 0.929 . S
H973 C950 0.931 . S
H974 C952 0.930 . S
H975 C953 0.930 . S
H976 C988 0.930 . S
H977 C990 0.930 . S
H978 C991 0.930 . S
H979 C995 0.959 . S
H980 C995 0.959 . S
H981 C995 0.961 . S
H982 C996 0.960 . S
H983 C996 0.961 . S
H984 C996 0.959 . S
H985 C999 0.929 1_556 S
H986 C1000 0.931 . S
H987 C1002 0.930 . S
C988 H976 0.930 . S
C988 C989 1.399 1_554 S
C988 C993 1.399 . S
C989 C988 1.399 1_556 S
C989 C990 1.376 . S
C990 H977 0.930 . S
C990 C989 1.376 . S
C990 C991 1.388 . S
C991 H978 0.930 . S
C991 C990 1.388 . S
C991 C992 1.387 . S
C992 C991 1.387 . S
C992 C993 1.396 1_556 S
C992 C998 1.467 1_556 S
C993 C988 1.399 . S
C993 C992 1.396 1_554 S
C993 C994 1.516 . S
C994 C993 1.516 . S
C994 C995 1.502 . S
C994 C996 1.561 1_455 S
C994 C997 1.526 . S
C995 H979 0.959 . S
C995 H980 0.959 . S
C995 H981 0.961 . S
C995 C994 1.502 . S
C996 H982 0.960 . S
C996 H983 0.961 . S
C996 H984 0.959 . S
C996 C994 1.561 1_655 S
C997 C994 1.526 . S
C997 C998 1.396 . S
C997 C1002 1.390 . S
C998 C992 1.467 1_554 S
C998 C997 1.396 . S
C998 C999 1.399 . S
C999 H985 0.929 1_554 S
C999 C998 1.399 . S
C999 C1000 1.385 . S
C1000 H986 0.931 . S
C1000 C999 1.385 . S
C1000 C1001 1.389 . S
C1001 C1000 1.389 . S
C1001 C1002 1.387 . S
C1002 H987 0.930 . S
C1002 C997 1.390 . S
C1002 C1001 1.387 . S
H1003 C1015 0.930 . S
H1004 C1017 0.930 . S
H1005 C1018 0.930 . S
H1006 C1022 0.959 . S
H1007 C1022 0.959 . S
H1008 C1022 0.961 . S
H1009 C1023 0.960 . S
H1010 C1023 0.961 . S
H1011 C1023 0.959 . S
H1012 C1026 0.929 . S
H1013 C1027 0.931 . S
H1014 C1029 0.930 . S
C1015 H1003 0.930 . S
C1015 C1016 1.399 . S
C1015 C1020 1.399 . S
C1016 C1015 1.399 . S
C1016 C1017 1.376 . S
C1017 H1004 0.930 . S
C1017 C1016 1.376 . S
C1017 C1018 1.388 . S
C1018 H1005 0.930 . S
C1018 C1017 1.388 . S
C1018 C1019 1.390 . S
C1019 C1018 1.390 . S
C1019 C1020 1.394 . S
C1019 C1025 1.465 . S
C1020 C1015 1.399 . S
C1020 C1019 1.394 . S
C1020 C1021 1.516 . S
C1021 C1020 1.516 . S
C1021 C1022 1.502 . S
C1021 C1023 1.561 . S
C1021 C1024 1.526 . S
C1022 H1006 0.959 . S
C1022 H1007 0.959 . S
C1022 H1008 0.961 . S
C1022 C1021 1.502 . S
C1023 H1009 0.960 . S
C1023 H1010 0.961 . S
C1023 H1011 0.959 . S
C1023 C1021 1.561 . S
C1024 C1021 1.526 . S
C1024 C1025 1.396 . S
C1024 C1029 1.390 . S
C1025 C1019 1.465 . S
C1025 C1024 1.396 . S
C1025 C1026 1.399 . S
C1026 H1012 0.929 . S
C1026 C1025 1.399 . S
C1026 C1027 1.385 . S
C1027 H1013 0.931 . S
C1027 C1026 1.385 . S
C1027 C1028 1.389 . S
C1028 C1027 1.389 . S
C1028 C1029 1.387 . S
C1029 H1014 0.930 . S
C1029 C1024 1.390 . S
C1029 C1028 1.387 . S
H1030 C1042 0.930 . S
H1031 C1044 0.930 . S
H1032 C1045 0.930 . S
H1033 C1049 0.959 . S
H1034 C1049 0.959 . S
H1035 C1049 0.961 . S
H1036 C1050 0.960 . S
H1037 C1050 0.961 . S
H1038 C1050 0.959 . S
H1039 C1053 0.929 . S
H1040 C1054 0.931 . S
H1041 C1056 0.930 . S
C1042 H1030 0.930 . S
C1042 C1043 1.399 . S
C1042 C1047 1.399 . S
C1043 C1042 1.399 . S
C1043 C1044 1.376 . S
C1044 H1031 0.930 . S
C1044 C1043 1.376 . S
C1044 C1045 1.388 . S
C1045 H1032 0.930 . S
C1045 C1044 1.388 . S
C1045 C1046 1.390 . S
C1046 C1045 1.390 . S
C1046 C1047 1.394 . S
C1046 C1052 1.465 . S
C1047 C1042 1.399 . S
C1047 C1046 1.394 . S
C1047 C1048 1.516 . S
C1048 C1047 1.516 . S
C1048 C1049 1.502 . S
C1048 C1050 1.561 . S
C1048 C1051 1.526 . S
C1049 H1033 0.959 . S
C1049 H1034 0.959 . S
C1049 H1035 0.961 . S
C1049 C1048 1.502 . S
C1050 H1036 0.960 . S
C1050 H1037 0.961 . S
C1050 H1038 0.959 . S
C1050 C1048 1.561 . S
C1051 C1048 1.526 . S
C1051 C1052 1.396 . S
C1051 C1056 1.390 . S
C1052 C1046 1.465 . S
C1052 C1051 1.396 . S
C1052 C1053 1.399 . S
C1053 H1039 0.929 . S
C1053 C1052 1.399 . S
C1053 C1054 1.385 . S
C1054 H1040 0.931 . S
C1054 C1053 1.385 . S
C1054 C1055 1.389 . S
C1055 C1054 1.389 . S
C1055 C1056 1.387 . S
C1056 H1041 0.930 . S
C1056 C1051 1.390 . S
C1056 C1055 1.387 . S
H1057 C1069 0.930 . S
H1058 C1071 0.930 . S
H1059 C1072 0.930 . S
H1060 C1076 0.959 . S
H1061 C1076 0.959 . S
H1062 C1076 0.961 . S
H1063 C1077 0.960 . S
H1064 C1077 0.961 . S
H1065 C1077 0.959 . S
H1066 C1080 0.929 . S
H1067 C1081 0.931 . S
H1068 C1083 0.930 . S
C1069 H1057 0.930 . S
C1069 C1070 1.399 . S
C1069 C1074 1.399 . S
C1070 C1069 1.399 . S
C1070 C1071 1.376 . S
C1071 H1058 0.930 . S
C1071 C1070 1.376 . S
C1071 C1072 1.388 . S
C1072 H1059 0.930 . S
C1072 C1071 1.388 . S
C1072 C1073 1.390 . S
C1073 C1072 1.390 . S
C1073 C1074 1.394 . S
C1073 C1079 1.465 . S
C1074 C1069 1.399 . S
C1074 C1073 1.394 . S
C1074 C1075 1.516 . S
C1075 C1074 1.516 . S
C1075 C1076 1.502 . S
C1075 C1077 1.561 . S
C1075 C1078 1.526 . S
C1076 H1060 0.959 . S
C1076 H1061 0.959 . S
C1076 H1062 0.961 . S
C1076 C1075 1.502 . S
C1077 H1063 0.960 . S
C1077 H1064 0.961 . S
C1077 H1065 0.959 . S
C1077 C1075 1.561 . S
C1078 C1075 1.526 . S
C1078 C1079 1.396 . S
C1078 C1083 1.390 . S
C1079 C1073 1.465 . S
C1079 C1078 1.396 . S
C1079 C1080 1.399 . S
C1080 H1066 0.929 . S
C1080 C1079 1.399 . S
C1080 C1081 1.385 . S
C1081 H1067 0.931 . S
C1081 C1080 1.385 . S
C1081 C1082 1.389 . S
C1082 C1081 1.389 . S
C1082 C1083 1.387 . S
C1083 H1068 0.930 . S
C1083 C1078 1.390 . S
C1083 C1082 1.387 . S
H1084 C1096 0.930 . S
H1085 C1098 0.930 . S
H1086 C1099 0.930 . S
H1087 C1103 0.959 . S
H1088 C1103 0.959 . S
H1089 C1103 0.961 . S
H1090 C1104 0.960 . S
H1091 C1104 0.961 . S
H1092 C1104 0.959 . S
H1093 C1107 0.929 . S
H1094 C1108 0.931 . S
H1095 C1110 0.930 . S
C1096 H1084 0.930 . S
C1096 C1097 1.399 . S
C1096 C1101 1.399 . S
C1097 C1096 1.399 . S
C1097 C1098 1.376 . S
C1098 H1085 0.930 . S
C1098 C1097 1.376 . S
C1098 C1099 1.388 . S
C1099 H1086 0.930 . S
C1099 C1098 1.388 . S
C1099 C1100 1.390 . S
C1100 C1099 1.390 . S
C1100 C1101 1.394 . S
C1100 C1106 1.465 . S
C1101 C1096 1.399 . S
C1101 C1100 1.394 . S
C1101 C1102 1.516 . S
C1102 C1101 1.516 . S
C1102 C1103 1.502 . S
C1102 C1104 1.561 . S
C1102 C1105 1.526 . S
C1103 H1087 0.959 . S
C1103 H1088 0.959 . S
C1103 H1089 0.961 . S
C1103 C1102 1.502 . S
C1104 H1090 0.960 . S
C1104 H1091 0.961 . S
C1104 H1092 0.959 . S
C1104 C1102 1.561 . S
C1105 C1102 1.526 . S
C1105 C1106 1.396 . S
C1105 C1110 1.390 . S
C1106 C1100 1.465 . S
C1106 C1105 1.396 . S
C1106 C1107 1.399 . S
C1107 H1093 0.929 . S
C1107 C1106 1.399 . S
C1107 C1108 1.385 . S
C1108 H1094 0.931 . S
C1108 C1107 1.385 . S
C1108 C1109 1.389 . S
C1109 C1108 1.389 . S
C1109 C1110 1.387 . S
C1110 H1095 0.930 . S
C1110 C1105 1.390 . S
C1110 C1109 1.387 . S
H1111 C1123 0.930 . S
H1112 C1125 0.930 . S
H1113 C1126 0.930 . S
H1114 C1130 0.959 . S
H1115 C1130 0.959 . S
H1116 C1130 0.961 . S
H1117 C1131 0.960 . S
H1118 C1131 0.961 . S
H1119 C1131 0.959 . S
H1120 C1134 0.929 . S
H1121 C1135 0.931 . S
H1122 C1137 0.930 . S
C1123 H1111 0.930 . S
C1123 C1124 1.399 . S
C1123 C1128 1.399 . S
C1124 C1123 1.399 . S
C1124 C1125 1.376 . S
C1125 H1112 0.930 . S
C1125 C1124 1.376 . S
C1125 C1126 1.388 . S
C1126 H1113 0.930 . S
C1126 C1125 1.388 . S
C1126 C1127 1.390 . S
C1127 C1126 1.390 . S
C1127 C1128 1.394 . S
C1127 C1133 1.465 . S
C1128 C1123 1.399 . S
C1128 C1127 1.394 . S
C1128 C1129 1.516 . S
C1129 C1128 1.516 . S
C1129 C1130 1.502 . S
C1129 C1131 1.561 . S
C1129 C1132 1.526 . S
C1130 H1114 0.959 . S
C1130 H1115 0.959 . S
C1130 H1116 0.961 . S
C1130 C1129 1.502 . S
C1131 H1117 0.960 . S
C1131 H1118 0.961 . S
C1131 H1119 0.959 . S
C1131 C1129 1.561 . S
C1132 C1129 1.526 . S
C1132 C1133 1.396 . S
C1132 C1137 1.390 . S
C1133 C1127 1.465 . S
C1133 C1132 1.396 . S
C1133 C1134 1.399 . S
C1134 H1120 0.929 . S
C1134 C1133 1.399 . S
C1134 C1135 1.385 . S
C1135 H1121 0.931 . S
C1135 C1134 1.385 . S
C1135 C1136 1.389 . S
C1136 C1135 1.389 . S
C1136 C1137 1.387 . S
C1137 H1122 0.930 . S
C1137 C1132 1.390 . S
C1137 C1136 1.387 . S
H1138 C1150 0.930 . S
H1139 C1152 0.930 . S
H1140 C1153 0.930 . S
H1141 C1157 0.959 . S
H1142 C1157 0.959 . S
H1143 C1157 0.961 . S
H1144 C1158 0.960 . S
H1145 C1158 0.961 . S
H1146 C1158 0.959 . S
H1147 C1161 0.929 . S
H1148 C1162 0.931 . S
H1149 C1164 0.930 . S
C1150 H1138 0.930 . S
C1150 C1151 1.399 . S
C1150 C1155 1.399 . S
C1151 C1150 1.399 . S
C1151 C1152 1.376 . S
C1152 H1139 0.930 . S
C1152 C1151 1.376 . S
C1152 C1153 1.388 . S
C1153 H1140 0.930 . S
C1153 C1152 1.388 . S
C1153 C1154 1.390 . S
C1154 C1153 1.390 . S
C1154 C1155 1.394 . S
C1154 C1160 1.465 . S
C1155 C1150 1.399 . S
C1155 C1154 1.394 . S
C1155 C1156 1.516 . S
C1156 C1155 1.516 . S
C1156 C1157 1.502 . S
C1156 C1158 1.561 . S
C1156 C1159 1.526 . S
C1157 H1141 0.959 . S
C1157 H1142 0.959 . S
C1157 H1143 0.961 . S
C1157 C1156 1.502 . S
C1158 H1144 0.960 . S
C1158 H1145 0.961 . S
C1158 H1146 0.959 . S
C1158 C1156 1.561 . S
C1159 C1156 1.526 . S
C1159 C1160 1.396 . S
C1159 C1164 1.390 . S
C1160 C1154 1.465 . S
C1160 C1159 1.396 . S
C1160 C1161 1.399 . S
C1161 H1147 0.929 . S
C1161 C1160 1.399 . S
C1161 C1162 1.385 . S
C1162 H1148 0.931 . S
C1162 C1161 1.385 . S
C1162 C1163 1.389 . S
C1163 C1162 1.389 . S
C1163 C1164 1.387 . S
C1164 H1149 0.930 . S
C1164 C1159 1.390 . S
C1164 C1163 1.387 . S
H1165 C1177 0.930 . S
H1166 C1179 0.930 . S
H1167 C1180 0.930 . S
H1168 C1184 0.959 . S
H1169 C1184 0.959 . S
H1170 C1184 0.961 . S
H1171 C1185 0.960 . S
H1172 C1185 0.961 . S
H1173 C1185 0.959 . S
H1174 C1188 0.929 . S
H1175 C1189 0.931 . S
H1176 C1191 0.930 . S
C1177 H1165 0.930 . S
C1177 C1178 1.399 . S
C1177 C1182 1.399 . S
C1178 C1177 1.399 . S
C1178 C1179 1.376 . S
C1179 H1166 0.930 . S
C1179 C1178 1.376 . S
C1179 C1180 1.388 . S
C1180 H1167 0.930 . S
C1180 C1179 1.388 . S
C1180 C1181 1.390 . S
C1181 C1180 1.390 . S
C1181 C1182 1.394 . S
C1181 C1187 1.465 . S
C1182 C1177 1.399 . S
C1182 C1181 1.394 . S
C1182 C1183 1.516 . S
C1183 C1182 1.516 . S
C1183 C1184 1.502 . S
C1183 C1185 1.561 . S
C1183 C1186 1.526 . S
C1184 H1168 0.959 . S
C1184 H1169 0.959 . S
C1184 H1170 0.961 . S
C1184 C1183 1.502 . S
C1185 H1171 0.960 . S
C1185 H1172 0.961 . S
C1185 H1173 0.959 . S
C1185 C1183 1.561 . S
C1186 C1183 1.526 . S
C1186 C1187 1.396 . S
C1186 C1191 1.390 . S
C1187 C1181 1.465 . S
C1187 C1186 1.396 . S
C1187 C1188 1.399 . S
C1188 H1174 0.929 . S
C1188 C1187 1.399 . S
C1188 C1189 1.385 . S
C1189 H1175 0.931 . S
C1189 C1188 1.385 . S
C1189 C1190 1.389 . S
C1190 C1189 1.389 . S
C1190 C1191 1.387 . S
C1191 H1176 0.930 . S
C1191 C1186 1.390 . S
C1191 C1190 1.387 . S
H1192 C1204 0.930 . S
H1193 C1206 0.930 . S
H1194 C1207 0.930 . S
H1195 C1211 0.959 . S
H1196 C1211 0.959 . S
H1197 C1211 0.961 . S
H1198 C1212 0.931 1_655 S
H1199 C1212 0.971 . S
H1200 C1212 0.995 . S
H1201 C1215 0.929 . S
H1202 C1216 0.931 1_565 S
H1203 C1218 0.930 . S
C1204 H1192 0.930 . S
C1204 C1205 1.399 1_545 S
C1204 C1209 1.399 . S
C1205 C1204 1.399 1_565 S
C1205 C1206 1.376 . S
C1206 H1193 0.930 . S
C1206 C1205 1.376 . S
C1206 C1207 1.388 . S
C1207 H1194 0.930 . S
C1207 C1206 1.388 . S
C1207 C1208 1.390 1_565 S
C1208 C1207 1.390 1_545 S
C1208 C1209 1.394 . S
C1208 C1214 1.465 . S
C1209 C1204 1.399 . S
C1209 C1208 1.394 . S
C1209 C1210 1.516 . S
C1210 C1209 1.516 . S
C1210 C1211 1.502 . S
C1210 C1212 1.546 1_655 S
C1210 C1213 1.526 . S
C1211 H1195 0.959 . S
C1211 H1196 0.959 . S
C1211 H1197 0.961 . S
C1211 C1210 1.502 . S
C1212 H1198 0.931 1_455 S
C1212 H1199 0.971 . S
C1212 H1200 0.995 . S
C1212 C1210 1.546 1_455 S
C1213 C1210 1.526 . S
C1213 C1214 1.396 . S
C1213 C1218 1.390 1_655 S
C1214 C1208 1.465 . S
C1214 C1213 1.396 . S
C1214 C1215 1.399 1_645 S
C1215 H1201 0.929 . S
C1215 C1214 1.399 1_465 S
C1215 C1216 1.385 1_565 S
C1216 H1202 0.931 1_545 S
C1216 C1215 1.385 1_545 S
C1216 C1217 1.389 . S
C1217 C1216 1.389 . S
C1217 C1218 1.387 . S
C1218 H1203 0.930 . S
C1218 C1213 1.390 1_455 S
C1218 C1217 1.387 . S
H1219 C1231 0.930 . S
H1220 C1233 0.930 . S
H1221 C1234 0.930 . S
H1222 C1238 0.959 . S
H1223 C1238 0.959 . S
H1224 C1238 0.961 . S
H1225 C1239 0.960 . S
H1226 C1239 0.961 . S
H1227 C1239 0.959 . S
H1228 C1242 0.929 . S
H1229 C1243 0.931 . S
H1230 C1245 0.930 . S
C1231 H1219 0.930 . S
C1231 C1232 1.399 . S
C1231 C1236 1.399 . S
C1232 C1231 1.399 . S
C1232 C1233 1.376 . S
C1233 H1220 0.930 . S
C1233 C1232 1.376 . S
C1233 C1234 1.388 . S
C1234 H1221 0.930 . S
C1234 C1233 1.388 . S
C1234 C1235 1.390 . S
C1235 C1234 1.390 . S
C1235 C1236 1.394 . S
C1235 C1241 1.465 . S
C1236 C1231 1.399 . S
C1236 C1235 1.394 . S
C1236 C1237 1.516 . S
C1237 C1236 1.516 . S
C1237 C1238 1.502 . S
C1237 C1239 1.561 . S
C1237 C1240 1.526 . S
C1238 H1222 0.959 . S
C1238 H1223 0.959 . S
C1238 H1224 0.961 . S
C1238 C1237 1.502 . S
C1239 H1225 0.960 . S
C1239 H1226 0.961 . S
C1239 H1227 0.959 . S
C1239 C1237 1.561 . S
C1240 C1237 1.526 . S
C1240 C1241 1.396 . S
C1240 C1245 1.390 . S
C1241 C1235 1.465 . S
C1241 C1240 1.396 . S
C1241 C1242 1.399 . S
C1242 H1228 0.929 . S
C1242 C1241 1.399 . S
C1242 C1243 1.385 . S
C1243 H1229 0.931 . S
C1243 C1242 1.385 . S
C1243 C1244 1.389 . S
C1244 C1243 1.389 . S
C1244 C1245 1.387 . S
C1245 H1230 0.930 . S
C1245 C1240 1.390 . S
C1245 C1244 1.387 . S
H1246 C1258 0.930 . S
H1247 C1260 0.930 . S
H1248 C1261 0.930 . S
H1249 C1265 0.959 . S
H1250 C1265 0.959 . S
H1251 C1265 0.961 . S
H1252 C1266 0.960 . S
H1253 C1266 0.961 . S
H1254 C1266 0.959 . S
H1255 C1269 0.929 . S
H1256 C1270 0.931 . S
H1257 C1272 0.930 . S
C1258 H1246 0.930 . S
C1258 C1259 1.399 . S
C1258 C1263 1.399 . S
C1259 C1258 1.399 . S
C1259 C1260 1.376 1_545 S
C1260 H1247 0.930 . S
C1260 C1259 1.376 1_565 S
C1260 C1261 1.388 . S
C1261 H1248 0.930 . S
C1261 C1260 1.388 . S
C1261 C1262 1.390 1_565 S
C1262 C1261 1.390 1_545 S
C1262 C1263 1.394 . S
C1262 C1268 1.465 . S
C1263 C1258 1.399 . S
C1263 C1262 1.394 . S
C1263 C1264 1.516 . S
C1264 C1263 1.516 . S
C1264 C1265 1.502 . S
C1264 C1266 1.561 . S
C1264 C1267 1.526 . S
C1265 H1249 0.959 . S
C1265 H1250 0.959 . S
C1265 H1251 0.961 . S
C1265 C1264 1.502 . S
C1266 H1252 0.960 . S
C1266 H1253 0.961 . S
C1266 H1254 0.959 . S
C1266 C1264 1.561 . S
C1267 C1264 1.526 . S
C1267 C1268 1.396 . S
C1267 C1272 1.390 . S
C1268 C1262 1.465 . S
C1268 C1267 1.396 . S
C1268 C1269 1.399 1_545 S
C1269 H1255 0.929 . S
C1269 C1268 1.399 1_565 S
C1269 C1270 1.385 . S
C1270 H1256 0.931 . S
C1270 C1269 1.385 . S
C1270 C1271 1.389 1_565 S
C1271 C1270 1.389 1_545 S
C1271 C1272 1.387 . S
C1272 H1257 0.930 . S
C1272 C1267 1.390 . S
C1272 C1271 1.387 . S
H1273 C1285 0.930 . S
H1274 C1287 0.930 . S
H1275 C1288 0.930 . S
H1276 C1292 0.959 . S
H1277 C1292 0.959 . S
H1278 C1292 0.961 . S
H1279 C1293 0.960 . S
H1280 C1293 0.961 . S
H1281 C1293 0.959 . S
H1282 C1296 0.929 . S
H1283 C1297 0.931 . S
H1284 C1299 0.930 . S
C1285 H1273 0.930 . S
C1285 C1286 1.399 . S
C1285 C1290 1.399 . S
C1286 C1285 1.399 . S
C1286 C1287 1.376 . S
C1287 H1274 0.930 . S
C1287 C1286 1.376 . S
C1287 C1288 1.388 . S
C1288 H1275 0.930 . S
C1288 C1287 1.388 . S
C1288 C1289 1.390 . S
C1289 C1288 1.390 . S
C1289 C1290 1.394 . S
C1289 C1295 1.465 . S
C1290 C1285 1.399 . S
C1290 C1289 1.394 . S
C1290 C1291 1.516 . S
C1291 C1290 1.516 . S
C1291 C1292 1.502 . S
C1291 C1293 1.561 . S
C1291 C1294 1.526 . S
C1292 H1276 0.959 . S
C1292 H1277 0.959 . S
C1292 H1278 0.961 . S
C1292 C1291 1.502 . S
C1293 H1279 0.960 . S
C1293 H1280 0.961 . S
C1293 H1281 0.959 . S
C1293 C1291 1.561 . S
C1294 C1291 1.526 . S
C1294 C1295 1.396 . S
C1294 C1299 1.390 . S
C1295 C1289 1.465 . S
C1295 C1294 1.396 . S
C1295 C1296 1.399 . S
C1296 H1282 0.929 . S
C1296 C1295 1.399 . S
C1296 C1297 1.385 . S
C1297 H1283 0.931 . S
C1297 C1296 1.385 . S
C1297 C1298 1.389 . S
C1298 C1297 1.389 . S
C1298 C1299 1.387 . S
C1299 H1284 0.930 . S
C1299 C1294 1.390 . S
C1299 C1298 1.387 . S
H1300 C1312 0.930 . S
H1301 C1314 0.930 . S
H1302 C1315 0.930 . S
H1303 C1319 0.959 . S
H1304 C1319 0.959 . S
H1305 C1319 0.961 . S
H1306 C1320 0.960 . S
H1307 C1320 0.961 . S
H1308 C1320 0.959 . S
H1309 C1323 0.929 . S
H1310 C1324 0.931 . S
H1311 C1326 0.930 . S
C1312 H1300 0.930 . S
C1312 C1313 1.399 . S
C1312 C1317 1.399 . S
C1313 C1312 1.399 . S
C1313 C1314 1.376 1_545 S
C1314 H1301 0.930 . S
C1314 C1313 1.376 1_565 S
C1314 C1315 1.388 . S
C1315 H1302 0.930 . S
C1315 C1314 1.388 . S
C1315 C1316 1.395 . S
C1316 C1315 1.395 . S
C1316 C1317 1.385 1_565 S
C1316 C1322 1.466 1_565 S
C1317 C1312 1.399 . S
C1317 C1316 1.385 1_545 S
C1317 C1318 1.522 . S
C1318 C1317 1.522 . S
C1318 C1319 1.488 1_655 S
C1318 C1320 1.575 . S
C1318 C1321 1.522 1_655 S
C1319 H1303 0.959 . S
C1319 H1304 0.959 . S
C1319 H1305 0.961 . S
C1319 C1318 1.488 1_455 S
C1320 H1306 0.960 . S
C1320 H1307 0.961 . S
C1320 H1308 0.959 . S
C1320 C1318 1.575 . S
C1321 C1318 1.522 1_455 S
C1321 C1322 1.396 1_455 S
C1321 C1326 1.390 . S
C1322 C1316 1.466 1_545 S
C1322 C1321 1.396 1_655 S
C1322 C1323 1.399 1_545 S
C1323 H1309 0.929 . S
C1323 C1322 1.399 1_565 S
C1323 C1324 1.385 1_655 S
C1324 H1310 0.931 . S
C1324 C1323 1.385 1_455 S
C1324 C1325 1.389 1_565 S
C1325 C1324 1.389 1_545 S
C1325 C1326 1.387 . S
C1326 H1311 0.930 . S
C1326 C1321 1.390 . S
C1326 C1325 1.387 . S
H1327 C1339 0.930 . S
H1328 C1341 0.930 . S
H1329 C1342 0.930 . S
H1330 C1346 0.959 . S
H1331 C1346 0.959 . S
H1332 C1346 0.961 . S
H1333 C1347 0.960 . S
H1334 C1347 0.961 . S
H1335 C1347 0.959 . S
H1336 C1350 0.929 . S
H1337 C1351 0.931 . S
H1338 C1353 0.930 . S
C1339 H1327 0.930 . S
C1339 C1340 1.399 . S
C1339 C1344 1.399 . S
C1340 C1339 1.399 . S
C1340 C1341 1.376 . S
C1341 H1328 0.930 . S
C1341 C1340 1.376 . S
C1341 C1342 1.388 . S
C1342 H1329 0.930 . S
C1342 C1341 1.388 . S
C1342 C1343 1.390 . S
C1343 C1342 1.390 . S
C1343 C1344 1.394 . S
C1343 C1349 1.465 . S
C1344 C1339 1.399 . S
C1344 C1343 1.394 . S
C1344 C1345 1.516 . S
C1345 C1344 1.516 . S
C1345 C1346 1.502 . S
C1345 C1347 1.561 . S
C1345 C1348 1.526 . S
C1346 H1330 0.959 . S
C1346 H1331 0.959 . S
C1346 H1332 0.961 . S
C1346 C1345 1.502 . S
C1347 H1333 0.960 . S
C1347 H1334 0.961 . S
C1347 H1335 0.959 . S
C1347 C1345 1.561 . S
C1348 C1345 1.526 . S
C1348 C1349 1.396 . S
C1348 C1353 1.390 . S
C1349 C1343 1.465 . S
C1349 C1348 1.396 . S
C1349 C1350 1.399 . S
C1350 H1336 0.929 . S
C1350 C1349 1.399 . S
C1350 C1351 1.385 . S
C1351 H1337 0.931 . S
C1351 C1350 1.385 . S
C1351 C1352 1.389 . S
C1352 C1351 1.389 . S
C1352 C1353 1.387 . S
C1353 H1338 0.930 . S
C1353 C1348 1.390 . S
C1353 C1352 1.387 . S
H1354 C1366 0.943 . S
H1355 C1368 0.930 . S
H1356 C1369 0.930 . S
H1357 C1373 0.959 . S
H1358 C1373 0.959 . S
H1359 C1373 0.961 . S
H1360 C1374 0.960 . S
H1361 C1374 0.961 . S
H1362 C1374 0.946 1_545 S
H1363 C1377 0.929 . S
H1364 C1378 0.931 . S
H1365 C1380 0.930 . S
C1366 H1354 0.943 . S
C1366 C1367 1.399 . S
C1366 C1371 1.399 . S
C1367 C1366 1.399 . S
C1367 C1368 1.376 . S
C1368 H1355 0.930 . S
C1368 C1367 1.376 . S
C1368 C1369 1.388 . S
C1369 H1356 0.930 . S
C1369 C1368 1.388 . S
C1369 C1370 1.390 . S
C1370 C1369 1.390 . S
C1370 C1371 1.394 . S
C1370 C1376 1.465 . S
C1371 C1366 1.399 . S
C1371 C1370 1.394 . S
C1371 C1372 1.516 . S
C1372 C1371 1.516 . S
C1372 C1373 1.502 1_545 S
C1372 C1374 1.561 1_545 S
C1372 C1375 1.526 . S
C1373 H1357 0.959 . S
C1373 H1358 0.959 . S
C1373 H1359 0.961 . S
C1373 C1372 1.502 1_565 S
C1374 H1360 0.960 . S
C1374 H1361 0.961 . S
C1374 H1362 0.946 1_565 S
C1374 C1372 1.561 1_565 S
C1375 C1372 1.526 . S
C1375 C1376 1.396 . S
C1375 C1380 1.390 . S
C1376 C1370 1.465 . S
C1376 C1375 1.396 . S
C1376 C1377 1.399 . S
C1377 H1363 0.929 . S
C1377 C1376 1.399 . S
C1377 C1378 1.385 1_556 S
C1378 H1364 0.931 . S
C1378 C1377 1.385 1_554 S
C1378 C1379 1.389 . S
C1379 C1378 1.389 . S
C1379 C1380 1.387 1_554 S
C1380 H1365 0.930 . S
C1380 C1375 1.390 . S
C1380 C1379 1.387 1_556 S
H1381 C1393 0.930 . S
H1382 C1395 0.930 . S
H1383 C1396 0.930 . S
H1384 C1400 0.959 . S
H1385 C1400 0.959 . S
H1386 C1400 0.961 . S
H1387 C1401 0.960 . S
H1388 C1401 0.961 . S
H1389 C1401 0.959 . S
H1390 C1404 0.929 . S
H1391 C1405 0.931 . S
H1392 C1407 0.930 . S
C1393 H1381 0.930 . S
C1393 C1394 1.399 . S
C1393 C1398 1.399 . S
C1394 C1393 1.399 . S
C1394 C1395 1.376 . S
C1395 H1382 0.930 . S
C1395 C1394 1.376 . S
C1395 C1396 1.388 . S
C1396 H1383 0.930 . S
C1396 C1395 1.388 . S
C1396 C1397 1.390 . S
C1397 C1396 1.390 . S
C1397 C1398 1.394 . S
C1397 C1403 1.465 . S
C1398 C1393 1.399 . S
C1398 C1397 1.394 . S
C1398 C1399 1.516 . S
C1399 C1398 1.516 . S
C1399 C1400 1.502 . S
C1399 C1401 1.561 . S
C1399 C1402 1.526 . S
C1400 H1384 0.959 . S
C1400 H1385 0.959 . S
C1400 H1386 0.961 . S
C1400 C1399 1.502 . S
C1401 H1387 0.960 . S
C1401 H1388 0.961 . S
C1401 H1389 0.959 . S
C1401 C1399 1.561 . S
C1402 C1399 1.526 . S
C1402 C1403 1.396 . S
C1402 C1407 1.390 . S
C1403 C1397 1.465 . S
C1403 C1402 1.396 . S
C1403 C1404 1.399 . S
C1404 H1390 0.929 . S
C1404 C1403 1.399 . S
C1404 C1405 1.385 . S
C1405 H1391 0.931 . S
C1405 C1404 1.385 . S
C1405 C1406 1.389 . S
C1406 C1405 1.389 . S
C1406 C1407 1.387 . S
C1407 H1392 0.930 . S
C1407 C1402 1.390 . S
C1407 C1406 1.387 . S
H1408 C1420 0.930 1_556 S
H1409 C1422 0.930 . S
H1410 C1423 0.930 . S
H1411 C1427 0.959 . S
H1412 C1427 0.959 . S
H1413 C1427 0.961 1_556 S
H1414 C1428 0.960 . S
H1415 C1428 0.961 . S
H1416 C1428 0.959 . S
H1417 C1431 0.929 . S
H1418 C1432 0.931 . S
H1419 C1434 0.930 . S
C1420 H1408 0.930 1_554 S
C1420 C1421 1.399 . S
C1420 C1425 1.399 . S
C1421 C1420 1.399 . S
C1421 C1422 1.376 . S
C1422 H1409 0.930 . S
C1422 C1421 1.376 . S
C1422 C1423 1.388 . S
C1423 H1410 0.930 . S
C1423 C1422 1.388 . S
C1423 C1424 1.390 . S
C1424 C1423 1.390 . S
C1424 C1425 1.394 . S
C1424 C1430 1.465 . S
C1425 C1420 1.399 . S
C1425 C1424 1.394 . S
C1425 C1426 1.516 . S
C1426 C1425 1.516 . S
C1426 C1427 1.502 . S
C1426 C1428 1.561 . S
C1426 C1429 1.526 . S
C1427 H1411 0.959 . S
C1427 H1412 0.959 . S
C1427 H1413 0.961 1_554 S
C1427 C1426 1.502 . S
C1428 H1414 0.960 . S
C1428 H1415 0.961 . S
C1428 H1416 0.959 . S
C1428 C1426 1.561 . S
C1429 C1426 1.526 . S
C1429 C1430 1.396 . S
C1429 C1434 1.390 . S
C1430 C1424 1.465 . S
C1430 C1429 1.396 . S
C1430 C1431 1.399 . S
C1431 H1417 0.929 . S
C1431 C1430 1.399 . S
C1431 C1432 1.385 . S
C1432 H1418 0.931 . S
C1432 C1431 1.385 . S
C1432 C1433 1.389 . S
C1433 C1432 1.389 . S
C1433 C1434 1.387 . S
C1434 H1419 0.930 . S
C1434 C1429 1.390 . S
C1434 C1433 1.387 . S
H1435 C1447 0.930 . S
H1436 C1449 0.930 . S
H1437 C1450 0.930 . S
H1438 C1454 0.959 . S
H1439 C1454 0.959 . S
H1440 C1454 0.961 . S
H1441 C1455 0.960 . S
H1442 C1455 0.963 . S
H1443 C1455 0.959 . S
H1444 C1458 0.929 . S
H1445 C1459 0.931 . S
H1446 C1461 0.930 . S
C1447 H1435 0.930 . S
C1447 C1448 1.399 . S
C1447 C1452 1.399 . S
C1448 C1447 1.399 . S
C1448 C1449 1.376 . S
C1449 H1436 0.930 . S
C1449 C1448 1.376 . S
C1449 C1450 1.388 . S
C1450 H1437 0.930 . S
C1450 C1449 1.388 . S
C1450 C1451 1.390 . S
C1451 C1450 1.390 . S
C1451 C1452 1.394 . S
C1451 C1457 1.465 . S
C1452 C1447 1.399 . S
C1452 C1451 1.394 . S
C1452 C1453 1.516 . S
C1453 C1452 1.516 . S
C1453 C1454 1.502 . S
C1453 C1455 1.561 . S
C1453 C1456 1.526 . S
C1454 H1438 0.959 . S
C1454 H1439 0.959 . S
C1454 H1440 0.961 . S
C1454 C1453 1.502 . S
C1455 H1441 0.960 . S
C1455 H1442 0.963 . S
C1455 H1443 0.959 . S
C1455 C1453 1.561 . S
C1456 C1453 1.526 . S
C1456 C1457 1.396 . S
C1456 C1461 1.390 . S
C1457 C1451 1.465 . S
C1457 C1456 1.396 . S
C1457 C1458 1.399 . S
C1458 H1444 0.929 . S
C1458 C1457 1.399 . S
C1458 C1459 1.385 . S
C1459 H1445 0.931 . S
C1459 C1458 1.385 . S
C1459 C1460 1.389 . S
C1460 C1459 1.389 . S
C1460 C1461 1.387 . S
C1461 H1446 0.930 . S
C1461 C1456 1.390 . S
C1461 C1460 1.387 . S
H1462 C1474 0.930 . S
H1463 C1476 0.930 . S
H1464 C1477 0.930 . S
H1465 C1481 0.959 . S
H1466 C1481 0.959 . S
H1467 C1481 0.961 . S
H1468 C1482 0.960 . S
H1469 C1482 0.961 . S
H1470 C1482 0.959 . S
H1471 C1485 0.929 . S
H1472 C1486 0.931 . S
H1473 C1488 0.930 . S
C1474 H1462 0.930 . S
C1474 C1475 1.399 . S
C1474 C1479 1.399 . S
C1475 C1474 1.399 . S
C1475 C1476 1.376 . S
C1476 H1463 0.930 . S
C1476 C1475 1.376 . S
C1476 C1477 1.388 . S
C1477 H1464 0.930 . S
C1477 C1476 1.388 . S
C1477 C1478 1.390 . S
C1478 C1477 1.390 . S
C1478 C1479 1.394 . S
C1478 C1484 1.465 . S
C1479 C1474 1.399 . S
C1479 C1478 1.394 . S
C1479 C1480 1.516 . S
C1480 C1479 1.516 . S
C1480 C1481 1.502 . S
C1480 C1482 1.561 . S
C1480 C1483 1.526 . S
C1481 H1465 0.959 . S
C1481 H1466 0.959 . S
C1481 H1467 0.961 . S
C1481 C1480 1.502 . S
C1482 H1468 0.960 . S
C1482 H1469 0.961 . S
C1482 H1470 0.959 . S
C1482 C1480 1.561 . S
C1483 C1480 1.526 . S
C1483 C1484 1.396 . S
C1483 C1488 1.390 . S
C1484 C1478 1.465 . S
C1484 C1483 1.396 . S
C1484 C1485 1.399 . S
C1485 H1471 0.929 . S
C1485 C1484 1.399 . S
C1485 C1486 1.385 . S
C1486 H1472 0.931 . S
C1486 C1485 1.385 . S
C1486 C1487 1.389 . S
C1487 C1486 1.389 . S
C1487 C1488 1.387 . S
C1488 H1473 0.930 . S
C1488 C1483 1.390 . S
C1488 C1487 1.387 . S
H1489 C1501 0.930 . S
H1490 C1503 0.930 . S
H1491 C1504 0.930 . S
H1492 C1508 0.959 . S
H1493 C1508 0.959 . S
H1494 C1508 0.961 . S
H1495 C1509 0.960 . S
H1496 C1509 0.961 . S
H1497 C1509 0.959 . S
H1498 C1512 0.929 . S
H1499 C1513 0.931 . S
H1500 C1515 0.930 . S
C1501 H1489 0.930 . S
C1501 C1502 1.399 . S
C1501 C1506 1.399 . S
C1502 C1501 1.399 . S
C1502 C1503 1.376 . S
C1503 H1490 0.930 . S
C1503 C1502 1.376 . S
C1503 C1504 1.388 . S
C1504 H1491 0.930 . S
C1504 C1503 1.388 . S
C1504 C1505 1.390 . S
C1505 C1504 1.390 . S
C1505 C1506 1.394 . S
C1505 C1511 1.465 . S
C1506 C1501 1.399 . S
C1506 C1505 1.394 . S
C1506 C1507 1.516 . S
C1507 C1506 1.516 . S
C1507 C1508 1.502 . S
C1507 C1509 1.561 . S
C1507 C1510 1.526 . S
C1508 H1492 0.959 . S
C1508 H1493 0.959 . S
C1508 H1494 0.961 . S
C1508 C1507 1.502 . S
C1509 H1495 0.960 . S
C1509 H1496 0.961 . S
C1509 H1497 0.959 . S
C1509 C1507 1.561 . S
C1510 C1507 1.526 . S
C1510 C1511 1.396 . S
C1510 C1515 1.390 . S
C1511 C1505 1.465 . S
C1511 C1510 1.396 . S
C1511 C1512 1.399 . S
C1512 H1498 0.929 . S
C1512 C1511 1.399 . S
C1512 C1513 1.385 . S
C1513 H1499 0.931 . S
C1513 C1512 1.385 . S
C1513 C1514 1.389 . S
C1514 C1513 1.389 . S
C1514 C1515 1.387 . S
C1515 H1500 0.930 . S
C1515 C1510 1.390 . S
C1515 C1514 1.387 . S
H1516 C1528 0.930 . S
H1517 C1530 0.930 . S
H1518 C1531 0.930 . S
H1519 C1535 0.959 . S
H1520 C1535 0.959 . S
H1521 C1535 0.961 . S
H1522 C1536 0.960 . S
H1523 C1536 0.961 . S
H1524 C1536 0.959 . S
H1525 C1539 0.929 . S
H1526 C1540 0.931 . S
H1527 C1542 0.930 . S
C1528 H1516 0.930 . S
C1528 C1529 1.399 . S
C1528 C1533 1.399 . S
C1529 C1528 1.399 . S
C1529 C1530 1.376 . S
C1530 H1517 0.930 . S
C1530 C1529 1.376 . S
C1530 C1531 1.388 . S
C1531 H1518 0.930 . S
C1531 C1530 1.388 . S
C1531 C1532 1.390 . S
C1532 C1531 1.390 . S
C1532 C1533 1.394 . S
C1532 C1538 1.465 . S
C1533 C1528 1.399 . S
C1533 C1532 1.394 . S
C1533 C1534 1.516 . S
C1534 C1533 1.516 . S
C1534 C1535 1.502 . S
C1534 C1536 1.561 . S
C1534 C1537 1.526 . S
C1535 H1519 0.959 . S
C1535 H1520 0.959 . S
C1535 H1521 0.961 . S
C1535 C1534 1.502 . S
C1536 H1522 0.960 . S
C1536 H1523 0.961 . S
C1536 H1524 0.959 . S
C1536 C1534 1.561 . S
C1537 C1534 1.526 . S
C1537 C1538 1.396 . S
C1537 C1542 1.390 . S
C1538 C1532 1.465 . S
C1538 C1537 1.396 . S
C1538 C1539 1.399 . S
C1539 H1525 0.929 . S
C1539 C1538 1.399 . S
C1539 C1540 1.385 . S
C1540 H1526 0.931 . S
C1540 C1539 1.385 . S
C1540 C1541 1.389 . S
C1541 C1540 1.389 . S
C1541 C1542 1.387 . S
C1542 H1527 0.930 . S
C1542 C1537 1.390 . S
C1542 C1541 1.387 . S
H1543 C1555 0.930 . S
H1544 C1557 0.930 . S
H1545 C1558 0.930 . S
H1546 C1562 0.959 . S
H1547 C1562 0.959 . S
H1548 C1562 0.961 . S
H1549 C1563 0.960 . S
H1550 C1563 0.961 . S
H1551 C1563 0.959 . S
H1552 C1566 0.929 . S
H1553 C1567 0.931 . S
H1554 C1569 0.930 . S
C1555 H1543 0.930 . S
C1555 C1556 1.399 . S
C1555 C1560 1.399 . S
C1556 C1555 1.399 . S
C1556 C1557 1.376 . S
C1557 H1544 0.930 . S
C1557 C1556 1.376 . S
C1557 C1558 1.388 . S
C1558 H1545 0.930 . S
C1558 C1557 1.388 . S
C1558 C1559 1.390 . S
C1559 C1558 1.390 . S
C1559 C1560 1.394 . S
C1559 C1565 1.465 . S
C1560 C1555 1.399 . S
C1560 C1559 1.394 . S
C1560 C1561 1.516 . S
C1561 C1560 1.516 . S
C1561 C1562 1.502 . S
C1561 C1563 1.561 . S
C1561 C1564 1.526 . S
C1562 H1546 0.959 . S
C1562 H1547 0.959 . S
C1562 H1548 0.961 . S
C1562 C1561 1.502 . S
C1563 H1549 0.960 . S
C1563 H1550 0.961 . S
C1563 H1551 0.959 . S
C1563 C1561 1.561 . S
C1564 C1561 1.526 . S
C1564 C1565 1.396 . S
C1564 C1569 1.390 . S
C1565 C1559 1.465 . S
C1565 C1564 1.396 . S
C1565 C1566 1.399 . S
C1566 H1552 0.929 . S
C1566 C1565 1.399 . S
C1566 C1567 1.385 . S
C1567 H1553 0.931 . S
C1567 C1566 1.385 . S
C1567 C1568 1.389 . S
C1568 C1567 1.389 . S
C1568 C1569 1.387 . S
C1569 H1554 0.930 . S
C1569 C1564 1.390 . S
C1569 C1568 1.387 . S
H1570 C1582 0.930 . S
H1571 C1584 0.930 . S
H1572 C1585 0.930 . S
H1573 C1589 0.959 . S
H1574 C1589 0.959 . S
H1575 C1589 0.961 . S
H1576 C1590 0.960 . S
H1577 C1590 0.961 . S
H1578 C1590 0.959 . S
H1579 C1593 0.929 . S
H1580 C1594 0.931 . S
H1581 C1596 0.930 . S
C1582 H1570 0.930 . S
C1582 C1583 1.399 . S
C1582 C1587 1.399 . S
C1583 C1582 1.399 . S
C1583 C1584 1.376 . S
C1584 H1571 0.930 . S
C1584 C1583 1.376 . S
C1584 C1585 1.388 . S
C1585 H1572 0.930 . S
C1585 C1584 1.388 . S
C1585 C1586 1.390 . S
C1586 C1585 1.390 . S
C1586 C1587 1.394 . S
C1586 C1592 1.465 . S
C1587 C1582 1.399 . S
C1587 C1586 1.394 . S
C1587 C1588 1.516 . S
C1588 C1587 1.516 . S
C1588 C1589 1.502 . S
C1588 C1590 1.561 . S
C1588 C1591 1.526 . S
C1589 H1573 0.959 . S
C1589 H1574 0.959 . S
C1589 H1575 0.961 . S
C1589 C1588 1.502 . S
C1590 H1576 0.960 . S
C1590 H1577 0.961 . S
C1590 H1578 0.959 . S
C1590 C1588 1.561 . S
C1591 C1588 1.526 . S
C1591 C1592 1.396 . S
C1591 C1596 1.390 . S
C1592 C1586 1.465 . S
C1592 C1591 1.396 . S
C1592 C1593 1.399 . S
C1593 H1579 0.929 . S
C1593 C1592 1.399 . S
C1593 C1594 1.385 . S
C1594 H1580 0.931 . S
C1594 C1593 1.385 . S
C1594 C1595 1.389 . S
C1595 C1594 1.389 . S
C1595 C1596 1.387 . S
C1596 H1581 0.930 . S
C1596 C1591 1.390 . S
C1596 C1595 1.387 . S
H1597 C1609 0.930 . S
H1598 C1611 0.930 . S
H1599 C1612 0.930 . S
H1600 C1616 0.959 . S
H1601 C1616 0.959 . S
H1602 C1616 0.961 . S
H1603 C1617 0.960 . S
H1604 C1617 0.961 . S
H1605 C1617 0.959 . S
H1606 C1620 0.929 . S
H1607 C1621 0.931 . S
H1608 C1623 0.930 . S
C1609 H1597 0.930 . S
C1609 C1610 1.399 . S
C1609 C1614 1.399 . S
C1610 C1609 1.399 . S
C1610 C1611 1.376 . S
C1611 H1598 0.930 . S
C1611 C1610 1.376 . S
C1611 C1612 1.388 . S
C1612 H1599 0.930 . S
C1612 C1611 1.388 . S
C1612 C1613 1.390 . S
C1613 C1612 1.390 . S
C1613 C1614 1.394 . S
C1613 C1619 1.465 . S
C1614 C1609 1.399 . S
C1614 C1613 1.394 . S
C1614 C1615 1.516 . S
C1615 C1614 1.516 . S
C1615 C1616 1.502 . S
C1615 C1617 1.561 . S
C1615 C1618 1.526 . S
C1616 H1600 0.959 . S
C1616 H1601 0.959 . S
C1616 H1602 0.961 . S
C1616 C1615 1.502 . S
C1617 H1603 0.960 . S
C1617 H1604 0.961 . S
C1617 H1605 0.959 . S
C1617 C1615 1.561 . S
C1618 C1615 1.526 . S
C1618 C1619 1.396 . S
C1618 C1623 1.390 . S
C1619 C1613 1.465 . S
C1619 C1618 1.396 . S
C1619 C1620 1.399 . S
C1620 H1606 0.929 . S
C1620 C1619 1.399 . S
C1620 C1621 1.385 . S
C1621 H1607 0.931 . S
C1621 C1620 1.385 . S
C1621 C1622 1.389 . S
C1622 C1621 1.389 . S
C1622 C1623 1.387 . S
C1623 H1608 0.930 . S
C1623 C1618 1.390 . S
C1623 C1622 1.387 . S
H1624 C1636 0.930 . S
H1625 C1638 0.930 . S
H1626 C1639 0.930 . S
H1627 C1643 0.959 . S
H1628 C1643 0.992 . S
H1629 C1643 0.961 . S
H1630 C1644 0.960 . S
H1631 C1644 0.961 . S
H1632 C1644 0.959 . S
H1633 C1647 0.929 . S
H1634 C1648 0.931 . S
H1635 C1650 0.930 . S
C1636 H1624 0.930 . S
C1636 C1637 1.399 . S
C1636 C1641 1.399 . S
C1637 C1636 1.399 . S
C1637 C1638 1.376 . S
C1638 H1625 0.930 . S
C1638 C1637 1.376 . S
C1638 C1639 1.388 . S
C1639 H1626 0.930 . S
C1639 C1638 1.388 . S
C1639 C1640 1.390 . S
C1640 C1639 1.390 . S
C1640 C1641 1.394 . S
C1640 C1646 1.465 . S
C1641 C1636 1.399 . S
C1641 C1640 1.394 . S
C1641 C1642 1.516 . S
C1642 C1641 1.516 . S
C1642 C1643 1.502 . S
C1642 C1644 1.561 . S
C1642 C1645 1.526 . S
C1643 H1627 0.959 . S
C1643 H1628 0.992 . S
C1643 H1629 0.961 . S
C1643 C1642 1.502 . S
C1644 H1630 0.960 . S
C1644 H1631 0.961 . S
C1644 H1632 0.959 . S
C1644 C1642 1.561 . S
C1645 C1642 1.526 . S
C1645 C1646 1.396 . S
C1645 C1650 1.390 . S
C1646 C1640 1.465 . S
C1646 C1645 1.396 . S
C1646 C1647 1.399 . S
C1647 H1633 0.929 . S
C1647 C1646 1.399 . S
C1647 C1648 1.385 . S
C1648 H1634 0.931 . S
C1648 C1647 1.385 . S
C1648 C1649 1.389 . S
C1649 C1648 1.389 . S
C1649 C1650 1.387 . S
C1650 H1635 0.930 . S
C1650 C1645 1.390 . S
C1650 C1649 1.387 . S
H1651 C1663 0.930 . S
H1652 C1665 0.930 . S
H1653 C1666 0.930 . S
H1654 C1670 0.959 . S
H1655 C1670 0.959 . S
H1656 C1670 0.961 . S
H1657 C1671 0.960 . S
H1658 C1671 0.961 . S
H1659 C1671 0.959 . S
H1660 C1674 0.929 . S
H1661 C1675 0.931 . S
H1662 C1677 0.930 . S
C1663 H1651 0.930 . S
C1663 C1664 1.399 . S
C1663 C1668 1.399 . S
C1664 C1663 1.399 . S
C1664 C1665 1.376 . S
C1665 H1652 0.930 . S
C1665 C1664 1.376 . S
C1665 C1666 1.388 . S
C1666 H1653 0.930 . S
C1666 C1665 1.388 . S
C1666 C1667 1.390 . S
C1667 C1666 1.390 . S
C1667 C1668 1.394 . S
C1667 C1673 1.465 . S
C1668 C1663 1.399 . S
C1668 C1667 1.394 . S
C1668 C1669 1.516 . S
C1669 C1668 1.516 . S
C1669 C1670 1.502 . S
C1669 C1671 1.561 . S
C1669 C1672 1.526 . S
C1670 H1654 0.959 . S
C1670 H1655 0.959 . S
C1670 H1656 0.961 . S
C1670 C1669 1.502 . S
C1671 H1657 0.960 . S
C1671 H1658 0.961 . S
C1671 H1659 0.959 . S
C1671 C1669 1.561 . S
C1672 C1669 1.526 . S
C1672 C1673 1.396 . S
C1672 C1677 1.390 . S
C1673 C1667 1.465 . S
C1673 C1672 1.396 . S
C1673 C1674 1.399 . S
C1674 H1660 0.929 . S
C1674 C1673 1.399 . S
C1674 C1675 1.385 . S
C1675 H1661 0.931 . S
C1675 C1674 1.385 . S
C1675 C1676 1.389 . S
C1676 C1675 1.389 . S
C1676 C1677 1.387 . S
C1677 H1662 0.930 . S
C1677 C1672 1.390 . S
C1677 C1676 1.387 . S
H1678 C1690 0.930 . S
H1679 C1692 0.930 . S
H1680 C1693 0.930 . S
H1681 C1697 0.959 . S
H1682 C1697 0.959 . S
H1683 C1697 0.961 . S
H1684 C1698 0.960 . S
H1685 C1698 0.961 . S
H1686 C1698 0.959 . S
H1687 C1701 0.929 . S
H1688 C1702 0.931 . S
H1689 C1704 0.930 . S
C1690 H1678 0.930 . S
C1690 C1691 1.399 . S
C1690 C1695 1.399 . S
C1691 C1690 1.399 . S
C1691 C1692 1.376 . S
C1692 H1679 0.930 . S
C1692 C1691 1.376 . S
C1692 C1693 1.388 . S
C1693 H1680 0.930 . S
C1693 C1692 1.388 . S
C1693 C1694 1.390 . S
C1694 C1693 1.390 . S
C1694 C1695 1.394 . S
C1694 C1700 1.465 . S
C1695 C1690 1.399 . S
C1695 C1694 1.394 . S
C1695 C1696 1.516 . S
C1696 C1695 1.516 . S
C1696 C1697 1.502 . S
C1696 C1698 1.561 . S
C1696 C1699 1.526 . S
C1697 H1681 0.959 . S
C1697 H1682 0.959 . S
C1697 H1683 0.961 . S
C1697 C1696 1.502 . S
C1698 H1684 0.960 . S
C1698 H1685 0.961 . S
C1698 H1686 0.959 . S
C1698 C1696 1.561 . S
C1699 C1696 1.526 . S
C1699 C1700 1.396 . S
C1699 C1704 1.390 . S
C1700 C1694 1.465 . S
C1700 C1699 1.396 . S
C1700 C1701 1.399 . S
C1701 H1687 0.929 . S
C1701 C1700 1.399 . S
C1701 C1702 1.385 . S
C1702 H1688 0.931 . S
C1702 C1701 1.385 . S
C1702 C1703 1.389 . S
C1703 C1702 1.389 . S
C1703 C1704 1.387 . S
C1704 H1689 0.930 . S
C1704 C1699 1.390 . S
C1704 C1703 1.387 . S
H1705 C1717 0.930 . S
H1706 C1719 0.930 . S
H1707 C1720 0.930 . S
H1708 C1724 0.959 . S
H1709 C1724 0.959 . S
H1710 C1724 0.961 . S
H1711 C1725 0.960 . S
H1712 C1725 0.961 . S
H1713 C1725 0.959 . S
H1714 C1728 0.929 . S
H1715 C1729 0.931 . S
H1716 C1731 0.930 . S
C1717 H1705 0.930 . S
C1717 C1718 1.399 . S
C1717 C1722 1.399 . S
C1718 C1717 1.399 . S
C1718 C1719 1.376 . S
C1719 H1706 0.930 . S
C1719 C1718 1.376 . S
C1719 C1720 1.388 . S
C1720 H1707 0.930 . S
C1720 C1719 1.388 . S
C1720 C1721 1.390 . S
C1721 C1720 1.390 . S
C1721 C1722 1.394 . S
C1721 C1727 1.465 . S
C1722 C1717 1.399 . S
C1722 C1721 1.394 . S
C1722 C1723 1.516 . S
C1723 C1722 1.516 . S
C1723 C1724 1.502 . S
C1723 C1725 1.561 . S
C1723 C1726 1.526 . S
C1724 H1708 0.959 . S
C1724 H1709 0.959 . S
C1724 H1710 0.961 . S
C1724 C1723 1.502 . S
C1725 H1711 0.960 . S
C1725 H1712 0.961 . S
C1725 H1713 0.959 . S
C1725 C1723 1.561 . S
C1726 C1723 1.526 . S
C1726 C1727 1.396 . S
C1726 C1731 1.390 . S
C1727 C1721 1.465 . S
C1727 C1726 1.396 . S
C1727 C1728 1.399 . S
C1728 H1714 0.929 . S
C1728 C1727 1.399 . S
C1728 C1729 1.385 . S
C1729 H1715 0.931 . S
C1729 C1728 1.385 . S
C1729 C1730 1.389 . S
C1730 C1729 1.389 . S
C1730 C1731 1.387 . S
C1731 H1716 0.930 . S
C1731 C1726 1.390 . S
C1731 C1730 1.387 . S
H1732 C1744 0.930 . S
H1733 C1746 0.930 . S
H1734 C1747 0.905 1_455 S
H1735 C1751 0.959 . S
H1736 C1751 0.959 . S
H1737 C1751 0.961 . S
H1738 C1752 0.960 . S
H1739 C1752 0.961 . S
H1740 C1752 0.959 . S
H1741 C1755 0.929 . S
H1742 C1756 0.931 . S
H1743 C1758 0.930 . S
C1744 H1732 0.930 . S
C1744 C1745 1.399 . S
C1744 C1749 1.399 . S
C1745 C1744 1.399 . S
C1745 C1746 1.376 . S
C1746 H1733 0.930 . S
C1746 C1745 1.376 . S
C1746 C1747 1.392 . S
C1747 H1734 0.905 1_655 S
C1747 C1746 1.392 . S
C1747 C1748 1.394 1_655 S
C1748 C1747 1.394 1_455 S
C1748 C1749 1.384 1_455 S
C1748 C1754 1.472 . S
C1749 C1744 1.399 . S
C1749 C1748 1.384 1_655 S
C1749 C1750 1.516 . S
C1750 C1749 1.516 . S
C1750 C1751 1.502 1_655 S
C1750 C1752 1.561 . S
C1750 C1753 1.526 1_655 S
C1751 H1735 0.959 . S
C1751 H1736 0.959 . S
C1751 H1737 0.961 . S
C1751 C1750 1.502 1_455 S
C1752 H1738 0.960 . S
C1752 H1739 0.961 . S
C1752 H1740 0.959 . S
C1752 C1750 1.561 . S
C1753 C1750 1.526 1_455 S
C1753 C1754 1.396 . S
C1753 C1758 1.390 . S
C1754 C1748 1.472 . S
C1754 C1753 1.396 . S
C1754 C1755 1.399 . S
C1755 H1741 0.929 . S
C1755 C1754 1.399 . S
C1755 C1756 1.385 . S
C1756 H1742 0.931 . S
C1756 C1755 1.385 . S
C1756 C1757 1.389 . S
C1757 C1756 1.389 . S
C1757 C1758 1.387 . S
C1758 H1743 0.930 . S
C1758 C1753 1.390 . S
C1758 C1757 1.387 . S
H1759 C1771 0.930 . S
H1760 C1773 0.930 . S
H1761 C1774 0.930 . S
H1762 C1778 0.959 . S
H1763 C1778 0.959 . S
H1764 C1778 0.961 . S
H1765 C1779 0.960 . S
H1766 C1779 0.961 . S
H1767 C1779 0.959 . S
H1768 C1782 0.929 . S
H1769 C1783 0.931 . S
H1770 C1785 0.930 . S
C1771 H1759 0.930 . S
C1771 C1772 1.399 . S
C1771 C1776 1.399 . S
C1772 C1771 1.399 . S
C1772 C1773 1.376 . S
C1773 H1760 0.930 . S
C1773 C1772 1.376 . S
C1773 C1774 1.388 . S
C1774 H1761 0.930 . S
C1774 C1773 1.388 . S
C1774 C1775 1.390 . S
C1775 C1774 1.390 . S
C1775 C1776 1.394 . S
C1775 C1781 1.465 . S
C1776 C1771 1.399 . S
C1776 C1775 1.394 . S
C1776 C1777 1.516 . S
C1777 C1776 1.516 . S
C1777 C1778 1.502 . S
C1777 C1779 1.561 . S
C1777 C1780 1.526 . S
C1778 H1762 0.959 . S
C1778 H1763 0.959 . S
C1778 H1764 0.961 . S
C1778 C1777 1.502 . S
C1779 H1765 0.960 . S
C1779 H1766 0.961 . S
C1779 H1767 0.959 . S
C1779 C1777 1.561 . S
C1780 C1777 1.526 . S
C1780 C1781 1.396 . S
C1780 C1785 1.390 . S
C1781 C1775 1.465 . S
C1781 C1780 1.396 . S
C1781 C1782 1.399 . S
C1782 H1768 0.929 . S
C1782 C1781 1.399 . S
C1782 C1783 1.385 . S
C1783 H1769 0.931 . S
C1783 C1782 1.385 . S
C1783 C1784 1.389 . S
C1784 C1783 1.389 . S
C1784 C1785 1.387 . S
C1785 H1770 0.930 . S
C1785 C1780 1.390 . S
C1785 C1784 1.387 . S
H1786 C1798 0.930 . S
H1787 C1800 0.930 . S
H1788 C1801 0.930 . S
H1789 C1805 0.959 . S
H1790 C1805 0.959 . S
H1791 C1805 0.961 . S
H1792 C1806 0.960 . S
H1793 C1806 0.961 . S
H1794 C1806 0.959 . S
H1795 C1809 0.929 . S
H1796 C1810 0.931 . S
H1797 C1812 0.930 . S
C1798 H1786 0.930 . S
C1798 C1799 1.399 . S
C1798 C1803 1.399 . S
C1799 C1798 1.399 . S
C1799 C1800 1.376 . S
C1800 H1787 0.930 . S
C1800 C1799 1.376 . S
C1800 C1801 1.388 . S
C1801 H1788 0.930 . S
C1801 C1800 1.388 . S
C1801 C1802 1.390 . S
C1802 C1801 1.390 . S
C1802 C1803 1.394 . S
C1802 C1808 1.465 1_556 S
C1803 C1798 1.399 . S
C1803 C1802 1.394 . S
C1803 C1804 1.516 . S
C1804 C1803 1.516 . S
C1804 C1805 1.502 . S
C1804 C1806 1.561 . S
C1804 C1807 1.526 . S
C1805 H1789 0.959 . S
C1805 H1790 0.959 . S
C1805 H1791 0.961 . S
C1805 C1804 1.502 . S
C1806 H1792 0.960 . S
C1806 H1793 0.961 . S
C1806 H1794 0.959 . S
C1806 C1804 1.561 . S
C1807 C1804 1.526 . S
C1807 C1808 1.396 1_556 S
C1807 C1812 1.390 1_556 S
C1808 C1802 1.465 1_554 S
C1808 C1807 1.396 1_554 S
C1808 C1809 1.399 . S
C1809 H1795 0.929 . S
C1809 C1808 1.399 . S
C1809 C1810 1.385 . S
C1810 H1796 0.931 . S
C1810 C1809 1.385 . S
C1810 C1811 1.389 . S
C1811 C1810 1.389 . S
C1811 C1812 1.387 . S
C1812 H1797 0.930 . S
C1812 C1807 1.390 1_554 S
C1812 C1811 1.387 . S
H1813 C1825 0.930 . S
H1814 C1827 0.932 1_455 S
H1815 C1828 0.930 . S
H1816 C1832 0.959 . S
H1817 C1832 0.959 . S
H1818 C1832 0.961 . S
H1819 C1833 0.960 . S
H1820 C1833 0.961 . S
H1821 C1833 0.959 . S
H1822 C1836 0.929 . S
H1823 C1837 0.931 . S
H1824 C1839 0.930 . S
C1825 H1813 0.930 . S
C1825 C1826 1.419 . S
C1825 C1830 1.399 . S
C1826 C1825 1.419 . S
C1826 C1827 1.383 . S
C1827 H1814 0.932 1_655 S
C1827 C1826 1.383 . S
C1827 C1828 1.387 . S
C1828 H1815 0.930 . S
C1828 C1827 1.387 . S
C1828 C1829 1.390 . S
C1829 C1828 1.390 . S
C1829 C1830 1.394 . S
C1829 C1835 1.465 . S
C1830 C1825 1.399 . S
C1830 C1829 1.394 . S
C1830 C1831 1.516 . S
C1831 C1830 1.516 . S
C1831 C1832 1.502 . S
C1831 C1833 1.561 . S
C1831 C1834 1.526 . S
C1832 H1816 0.959 . S
C1832 H1817 0.959 . S
C1832 H1818 0.961 . S
C1832 C1831 1.502 . S
C1833 H1819 0.960 . S
C1833 H1820 0.961 . S
C1833 H1821 0.959 . S
C1833 C1831 1.561 . S
C1834 C1831 1.526 . S
C1834 C1835 1.396 . S
C1834 C1839 1.390 . S
C1835 C1829 1.465 . S
C1835 C1834 1.396 . S
C1835 C1836 1.399 . S
C1836 H1822 0.929 . S
C1836 C1835 1.399 . S
C1836 C1837 1.385 . S
C1837 H1823 0.931 . S
C1837 C1836 1.385 . S
C1837 C1838 1.389 . S
C1838 C1837 1.389 . S
C1838 C1839 1.387 . S
C1839 H1824 0.930 . S
C1839 C1834 1.390 . S
C1839 C1838 1.387 . S
H1840 C1852 0.930 . S
H1841 C1854 0.930 . S
H1842 C1855 0.930 . S
H1843 C1859 0.959 . S
H1844 C1859 0.959 . S
H1845 C1859 0.961 . S
H1846 C1860 0.960 . S
H1847 C1860 0.961 . S
H1848 C1860 0.959 . S
H1849 C1863 0.929 . S
H1850 C1864 0.931 . S
H1851 C1866 0.930 . S
C1852 H1840 0.930 . S
C1852 C1853 1.399 . S
C1852 C1857 1.399 . S
C1853 C1852 1.399 . S
C1853 C1854 1.376 . S
C1854 H1841 0.930 . S
C1854 C1853 1.376 . S
C1854 C1855 1.388 . S
C1855 H1842 0.930 . S
C1855 C1854 1.388 . S
C1855 C1856 1.390 . S
C1856 C1855 1.390 . S
C1856 C1857 1.394 . S
C1856 C1862 1.465 . S
C1857 C1852 1.399 . S
C1857 C1856 1.394 . S
C1857 C1858 1.516 . S
C1858 C1857 1.516 . S
C1858 C1859 1.502 1_545 S
C1858 C1860 1.561 . S
C1858 C1861 1.526 . S
C1859 H1843 0.959 . S
C1859 H1844 0.959 . S
C1859 H1845 0.961 . S
C1859 C1858 1.502 1_565 S
C1860 H1846 0.960 . S
C1860 H1847 0.961 . S
C1860 H1848 0.959 . S
C1860 C1858 1.561 . S
C1861 C1858 1.526 . S
C1861 C1862 1.396 . S
C1861 C1866 1.390 . S
C1862 C1856 1.465 . S
C1862 C1861 1.396 . S
C1862 C1863 1.399 . S
C1863 H1849 0.929 . S
C1863 C1862 1.399 . S
C1863 C1864 1.385 . S
C1864 H1850 0.931 . S
C1864 C1863 1.385 . S
C1864 C1865 1.389 . S
C1865 C1864 1.389 . S
C1865 C1866 1.387 . S
C1866 H1851 0.930 . S
C1866 C1861 1.390 . S
C1866 C1865 1.387 . S
H1867 C1879 0.930 . S
H1868 C1881 0.930 . S
H1869 C1882 0.930 . S
H1870 C1886 0.959 . S
H1871 C1886 0.959 . S
H1872 C1886 0.961 . S
H1873 C1887 0.960 . S
H1874 C1887 0.961 . S
H1875 C1887 0.959 . S
H1876 C1890 0.929 . S
H1877 C1891 0.931 . S
H1878 C1893 0.930 . S
C1879 H1867 0.930 . S
C1879 C1880 1.399 . S
C1879 C1884 1.399 . S
C1880 C1879 1.399 . S
C1880 C1881 1.376 . S
C1881 H1868 0.930 . S
C1881 C1880 1.376 . S
C1881 C1882 1.388 . S
C1882 H1869 0.930 . S
C1882 C1881 1.388 . S
C1882 C1883 1.390 . S
C1883 C1882 1.390 . S
C1883 C1884 1.394 . S
C1883 C1889 1.465 . S
C1884 C1879 1.399 . S
C1884 C1883 1.394 . S
C1884 C1885 1.516 . S
C1885 C1884 1.516 . S
C1885 C1886 1.502 . S
C1885 C1887 1.561 . S
C1885 C1888 1.526 . S
C1886 H1870 0.959 . S
C1886 H1871 0.959 . S
C1886 H1872 0.961 . S
C1886 C1885 1.502 . S
C1887 H1873 0.960 . S
C1887 H1874 0.961 . S
C1887 H1875 0.959 . S
C1887 C1885 1.561 . S
C1888 C1885 1.526 . S
C1888 C1889 1.396 . S
C1888 C1893 1.390 . S
C1889 C1883 1.465 . S
C1889 C1888 1.396 . S
C1889 C1890 1.399 . S
C1890 H1876 0.929 . S
C1890 C1889 1.399 . S
C1890 C1891 1.385 . S
C1891 H1877 0.931 . S
C1891 C1890 1.385 . S
C1891 C1892 1.389 . S
C1892 C1891 1.389 . S
C1892 C1893 1.387 . S
C1893 H1878 0.930 . S
C1893 C1888 1.390 . S
C1893 C1892 1.387 . S
H1894 C1906 0.905 1_565 S
H1895 C1908 0.930 . S
H1896 C1909 0.930 . S
H1897 C1913 0.959 . S
H1898 C1913 0.959 . S
H1899 C1913 0.961 . S
H1900 C1914 0.960 . S
H1901 C1914 0.961 . S
H1902 C1914 0.959 1_545 S
H1903 C1917 0.929 . S
H1904 C1918 0.931 . S
H1905 C1920 0.930 1_565 S
C1906 H1894 0.905 1_545 S
C1906 C1907 1.399 . S
C1906 C1911 1.399 . S
C1907 C1906 1.399 . S
C1907 C1908 1.376 . S
C1908 H1895 0.930 . S
C1908 C1907 1.376 . S
C1908 C1909 1.388 . S
C1909 H1896 0.930 . S
C1909 C1908 1.388 . S
C1909 C1910 1.390 . S
C1910 C1909 1.390 . S
C1910 C1911 1.394 . S
C1910 C1916 1.465 . S
C1911 C1906 1.399 . S
C1911 C1910 1.394 . S
C1911 C1912 1.516 . S
C1912 C1911 1.516 . S
C1912 C1913 1.502 1_545 S
C1912 C1914 1.561 1_545 S
C1912 C1915 1.526 . S
C1913 H1897 0.959 . S
C1913 H1898 0.959 . S
C1913 H1899 0.961 . S
C1913 C1912 1.502 1_565 S
C1914 H1900 0.960 . S
C1914 H1901 0.961 . S
C1914 H1902 0.959 1_565 S
C1914 C1912 1.561 1_565 S
C1915 C1912 1.526 . S
C1915 C1916 1.396 . S
C1915 C1920 1.390 . S
C1916 C1910 1.465 . S
C1916 C1915 1.396 . S
C1916 C1917 1.399 . S
C1917 H1903 0.929 . S
C1917 C1916 1.399 . S
C1917 C1918 1.385 . S
C1918 H1904 0.931 . S
C1918 C1917 1.385 . S
C1918 C1919 1.389 . S
C1919 C1918 1.389 . S
C1919 C1920 1.387 . S
C1920 H1905 0.930 1_545 S
C1920 C1915 1.390 . S
C1920 C1919 1.387 . S
H1921 C1933 0.930 . S
H1922 C1935 0.930 . S
H1923 C1936 0.930 . S
H1924 C1940 0.959 . S
H1925 C1940 0.959 . S
H1926 C1940 0.961 . S
H1927 C1941 0.960 . S
H1928 C1941 0.961 . S
H1929 C1941 0.959 . S
H1930 C1944 0.929 . S
H1931 C1945 0.931 . S
H1932 C1947 0.930 . S
C1933 H1921 0.930 . S
C1933 C1934 1.399 . S
C1933 C1938 1.399 . S
C1934 C1933 1.399 . S
C1934 C1935 1.376 . S
C1935 H1922 0.930 . S
C1935 C1934 1.376 . S
C1935 C1936 1.388 . S
C1936 H1923 0.930 . S
C1936 C1935 1.388 . S
C1936 C1937 1.390 . S
C1937 C1936 1.390 . S
C1937 C1938 1.394 . S
C1937 C1943 1.465 . S
C1938 C1933 1.399 . S
C1938 C1937 1.394 . S
C1938 C1939 1.516 . S
C1939 C1938 1.516 . S
C1939 C1940 1.502 . S
C1939 C1941 1.561 . S
C1939 C1942 1.526 . S
C1940 H1924 0.959 . S
C1940 H1925 0.959 . S
C1940 H1926 0.961 . S
C1940 C1939 1.502 . S
C1941 H1927 0.960 . S
C1941 H1928 0.961 . S
C1941 H1929 0.959 . S
C1941 C1939 1.561 . S
C1942 C1939 1.526 . S
C1942 C1943 1.396 . S
C1942 C1947 1.390 . S
C1943 C1937 1.465 . S
C1943 C1942 1.396 . S
C1943 C1944 1.399 . S
C1944 H1930 0.929 . S
C1944 C1943 1.399 . S
C1944 C1945 1.385 . S
C1945 H1931 0.931 . S
C1945 C1944 1.385 . S
C1945 C1946 1.389 . S
C1946 C1945 1.389 . S
C1946 C1947 1.387 . S
C1947 H1932 0.930 . S
C1947 C1942 1.390 . S
C1947 C1946 1.387 . S
H1948 C1960 0.930 . S
H1949 C1962 0.913 1_565 S
H1950 C1963 0.930 1_565 S
H1951 C1967 0.959 . S
H1952 C1967 0.959 . S
H1953 C1967 0.961 . S
H1954 C1968 0.960 . S
H1955 C1968 0.961 . S
H1956 C1968 0.959 . S
H1957 C1971 0.965 . S
H1958 C1972 0.931 1_565 S
H1959 C1974 0.930 . S
C1960 H1948 0.930 . S
C1960 C1961 1.399 . S
C1960 C1965 1.399 . S
C1961 C1960 1.399 . S
C1961 C1962 1.376 . S
C1962 H1949 0.913 1_545 S
C1962 C1961 1.376 . S
C1962 C1963 1.388 . S
C1963 H1950 0.930 1_545 S
C1963 C1962 1.388 . S
C1963 C1964 1.390 . S
C1964 C1963 1.390 . S
C1964 C1965 1.394 . S
C1964 C1970 1.465 . S
C1965 C1960 1.399 . S
C1965 C1964 1.394 . S
C1965 C1966 1.516 . S
C1966 C1965 1.516 . S
C1966 C1967 1.502 . S
C1966 C1968 1.561 . S
C1966 C1969 1.526 . S
C1967 H1951 0.959 . S
C1967 H1952 0.959 . S
C1967 H1953 0.961 . S
C1967 C1966 1.502 . S
C1968 H1954 0.960 . S
C1968 H1955 0.961 . S
C1968 H1956 0.959 . S
C1968 C1966 1.561 . S
C1969 C1966 1.526 . S
C1969 C1970 1.396 . S
C1969 C1974 1.390 . S
C1970 C1964 1.465 . S
C1970 C1969 1.396 . S
C1970 C1971 1.376 1_545 S
C1971 H1957 0.965 . S
C1971 C1970 1.376 1_565 S
C1971 C1972 1.372 1_565 S
C1972 H1958 0.931 1_545 S
C1972 C1971 1.372 1_545 S
C1972 C1973 1.389 . S
C1973 C1972 1.389 . S
C1973 C1974 1.387 . S
C1974 H1959 0.930 . S
C1974 C1969 1.390 . S
C1974 C1973 1.387 . S
H1975 C1987 0.930 . S
H1976 C1989 0.930 . S
H1977 C1990 0.930 . S
H1978 C1994 0.959 . S
H1979 C1994 0.959 . S
H1980 C1994 0.961 . S
H1981 C1995 0.960 . S
H1982 C1995 0.961 . S
H1983 C1995 0.959 . S
H1984 C1998 0.929 . S
H1985 C1999 0.931 . S
H1986 C2001 0.930 . S
C1987 H1975 0.930 . S
C1987 C1988 1.399 . S
C1987 C1992 1.399 . S
C1988 C1987 1.399 . S
C1988 C1989 1.376 . S
C1989 H1976 0.930 . S
C1989 C1988 1.376 . S
C1989 C1990 1.388 . S
C1990 H1977 0.930 . S
C1990 C1989 1.388 . S
C1990 C1991 1.390 . S
C1991 C1990 1.390 . S
C1991 C1992 1.394 . S
C1991 C1997 1.465 . S
C1992 C1987 1.399 . S
C1992 C1991 1.394 . S
C1992 C1993 1.516 . S
C1993 C1992 1.516 . S
C1993 C1994 1.502 . S
C1993 C1995 1.561 . S
C1993 C1996 1.526 . S
C1994 H1978 0.959 . S
C1994 H1979 0.959 . S
C1994 H1980 0.961 . S
C1994 C1993 1.502 . S
C1995 H1981 0.960 . S
C1995 H1982 0.961 . S
C1995 H1983 0.959 . S
C1995 C1993 1.561 . S
C1996 C1993 1.526 . S
C1996 C1997 1.396 . S
C1996 C2001 1.390 . S
C1997 C1991 1.465 . S
C1997 C1996 1.396 . S
C1997 C1998 1.399 . S
C1998 H1984 0.929 . S
C1998 C1997 1.399 . S
C1998 C1999 1.385 . S
C1999 H1985 0.931 . S
C1999 C1998 1.385 . S
C1999 C2000 1.389 . S
C2000 C1999 1.389 . S
C2000 C2001 1.387 . S
C2001 H1986 0.930 . S
C2001 C1996 1.390 . S
C2001 C2000 1.387 . S
H2002 C2014 0.930 . S
H2003 C2016 0.930 . S
H2004 C2017 0.930 . S
H2005 C2021 0.959 . S
H2006 C2021 0.959 . S
H2007 C2021 0.961 . S
H2008 C2022 0.960 . S
H2009 C2022 0.961 . S
H2010 C2022 0.959 . S
H2011 C2025 0.929 . S
H2012 C2026 0.931 . S
H2013 C2028 0.930 . S
C2014 H2002 0.930 . S
C2014 C2015 1.399 . S
C2014 C2019 1.399 . S
C2015 C2014 1.399 . S
C2015 C2016 1.376 . S
C2016 H2003 0.930 . S
C2016 C2015 1.376 . S
C2016 C2017 1.388 . S
C2017 H2004 0.930 . S
C2017 C2016 1.388 . S
C2017 C2018 1.390 . S
C2018 C2017 1.390 . S
C2018 C2019 1.394 . S
C2018 C2024 1.465 . S
C2019 C2014 1.399 . S
C2019 C2018 1.394 . S
C2019 C2020 1.516 . S
C2020 C2019 1.516 . S
C2020 C2021 1.502 1_545 S
C2020 C2022 1.561 . S
C2020 C2023 1.526 . S
C2021 H2005 0.959 . S
C2021 H2006 0.959 . S
C2021 H2007 0.961 . S
C2021 C2020 1.502 1_565 S
C2022 H2008 0.960 . S
C2022 H2009 0.961 . S
C2022 H2010 0.959 . S
C2022 C2020 1.561 . S
C2023 C2020 1.526 . S
C2023 C2024 1.396 . S
C2023 C2028 1.390 . S
C2024 C2018 1.465 . S
C2024 C2023 1.396 . S
C2024 C2025 1.399 . S
C2025 H2011 0.929 . S
C2025 C2024 1.399 . S
C2025 C2026 1.385 . S
C2026 H2012 0.931 . S
C2026 C2025 1.385 . S
C2026 C2027 1.389 . S
C2027 C2026 1.389 . S
C2027 C2028 1.387 . S
C2028 H2013 0.930 . S
C2028 C2023 1.390 . S
C2028 C2027 1.387 . S
H2029 C2041 0.930 . S
H2030 C2043 0.930 . S
H2031 C2044 0.930 . S
H2032 C2048 0.959 . S
H2033 C2048 0.959 . S
H2034 C2048 0.961 . S
H2035 C2049 0.960 . S
H2036 C2049 0.961 . S
H2037 C2049 0.959 . S
H2038 C2052 0.929 . S
H2039 C2053 0.931 . S
H2040 C2055 0.930 . S
C2041 H2029 0.930 . S
C2041 C2042 1.399 . S
C2041 C2046 1.399 . S
C2042 C2041 1.399 . S
C2042 C2043 1.376 . S
C2043 H2030 0.930 . S
C2043 C2042 1.376 . S
C2043 C2044 1.388 . S
C2044 H2031 0.930 . S
C2044 C2043 1.388 . S
C2044 C2045 1.390 . S
C2045 C2044 1.390 . S
C2045 C2046 1.394 . S
C2045 C2051 1.465 . S
C2046 C2041 1.399 . S
C2046 C2045 1.394 . S
C2046 C2047 1.516 . S
C2047 C2046 1.516 . S
C2047 C2048 1.502 . S
C2047 C2049 1.561 . S
C2047 C2050 1.526 . S
C2048 H2032 0.959 . S
C2048 H2033 0.959 . S
C2048 H2034 0.961 . S
C2048 C2047 1.502 . S
C2049 H2035 0.960 . S
C2049 H2036 0.961 . S
C2049 H2037 0.959 . S
C2049 C2047 1.561 . S
C2050 C2047 1.526 . S
C2050 C2051 1.396 . S
C2050 C2055 1.390 . S
C2051 C2045 1.465 . S
C2051 C2050 1.396 . S
C2051 C2052 1.399 . S
C2052 H2038 0.929 . S
C2052 C2051 1.399 . S
C2052 C2053 1.385 . S
C2053 H2039 0.931 . S
C2053 C2052 1.385 . S
C2053 C2054 1.389 . S
C2054 C2053 1.389 . S
C2054 C2055 1.387 . S
C2055 H2040 0.930 . S
C2055 C2050 1.390 . S
C2055 C2054 1.387 . S
H2056 C2068 0.930 . S
H2057 C2070 0.930 . S
H2058 C2071 0.930 . S
H2059 C2075 0.959 . S
H2060 C2075 0.959 . S
H2061 C2075 0.961 . S
H2062 C2076 0.960 . S
H2063 C2076 0.961 . S
H2064 C2076 0.959 . S
H2065 C2079 0.929 . S
H2066 C2080 0.931 . S
H2067 C2082 0.930 . S
C2068 H2056 0.930 . S
C2068 C2069 1.399 . S
C2068 C2073 1.399 . S
C2069 C2068 1.399 . S
C2069 C2070 1.376 . S
C2070 H2057 0.930 . S
C2070 C2069 1.376 . S
C2070 C2071 1.388 . S
C2071 H2058 0.930 . S
C2071 C2070 1.388 . S
C2071 C2072 1.390 . S
C2072 C2071 1.390 . S
C2072 C2073 1.394 . S
C2072 C2078 1.465 . S
C2073 C2068 1.399 . S
C2073 C2072 1.394 . S
C2073 C2074 1.516 . S
C2074 C2073 1.516 . S
C2074 C2075 1.502 . S
C2074 C2076 1.561 . S
C2074 C2077 1.526 . S
C2075 H2059 0.959 . S
C2075 H2060 0.959 . S
C2075 H2061 0.961 . S
C2075 C2074 1.502 . S
C2076 H2062 0.960 . S
C2076 H2063 0.961 . S
C2076 H2064 0.959 . S
C2076 C2074 1.561 . S
C2077 C2074 1.526 . S
C2077 C2078 1.396 . S
C2077 C2082 1.390 . S
C2078 C2072 1.465 . S
C2078 C2077 1.396 . S
C2078 C2079 1.399 . S
C2079 H2065 0.929 . S
C2079 C2078 1.399 . S
C2079 C2080 1.385 . S
C2080 H2066 0.931 . S
C2080 C2079 1.385 . S
C2080 C2081 1.389 . S
C2081 C2080 1.389 . S
C2081 C2082 1.387 . S
C2082 H2067 0.930 . S
C2082 C2077 1.390 . S
C2082 C2081 1.387 . S
H2083 C2095 0.930 . S
H2084 C2097 0.930 . S
H2085 C2098 0.930 . S
H2086 C2102 0.959 . S
H2087 C2102 0.959 . S
H2088 C2102 0.961 . S
H2089 C2103 0.960 . S
H2090 C2103 0.961 . S
H2091 C2103 0.959 . S
H2092 C2106 0.929 . S
H2093 C2107 0.931 . S
H2094 C2109 0.930 . S
C2095 H2083 0.930 . S
C2095 C2096 1.399 . S
C2095 C2100 1.399 . S
C2096 C2095 1.399 . S
C2096 C2097 1.376 . S
C2097 H2084 0.930 . S
C2097 C2096 1.376 . S
C2097 C2098 1.388 . S
C2098 H2085 0.930 . S
C2098 C2097 1.388 . S
C2098 C2099 1.390 . S
C2099 C2098 1.390 . S
C2099 C2100 1.394 . S
C2099 C2105 1.465 . S
C2100 C2095 1.399 . S
C2100 C2099 1.394 . S
C2100 C2101 1.516 . S
C2101 C2100 1.516 . S
C2101 C2102 1.502 . S
C2101 C2103 1.561 . S
C2101 C2104 1.526 . S
C2102 H2086 0.959 . S
C2102 H2087 0.959 . S
C2102 H2088 0.961 . S
C2102 C2101 1.502 . S
C2103 H2089 0.960 . S
C2103 H2090 0.961 . S
C2103 H2091 0.959 . S
C2103 C2101 1.561 . S
C2104 C2101 1.526 . S
C2104 C2105 1.396 . S
C2104 C2109 1.390 . S
C2105 C2099 1.465 . S
C2105 C2104 1.396 . S
C2105 C2106 1.399 . S
C2106 H2092 0.929 . S
C2106 C2105 1.399 . S
C2106 C2107 1.385 . S
C2107 H2093 0.931 . S
C2107 C2106 1.385 . S
C2107 C2108 1.389 . S
C2108 C2107 1.389 . S
C2108 C2109 1.387 . S
C2109 H2094 0.930 . S
C2109 C2104 1.390 . S
C2109 C2108 1.387 . S
H2110 C2122 0.930 . S
H2111 C2124 0.930 . S
H2112 C2125 0.930 . S
H2113 C2129 0.959 . S
H2114 C2129 0.959 . S
H2115 C2129 0.961 . S
H2116 C2130 0.960 . S
H2117 C2130 0.961 . S
H2118 C2130 0.959 . S
H2119 C2133 0.929 . S
H2120 C2134 0.931 . S
H2121 C2136 0.930 . S
C2122 H2110 0.930 . S
C2122 C2123 1.399 . S
C2122 C2127 1.399 . S
C2123 C2122 1.399 . S
C2123 C2124 1.376 . S
C2124 H2111 0.930 . S
C2124 C2123 1.376 . S
C2124 C2125 1.388 . S
C2125 H2112 0.930 . S
C2125 C2124 1.388 . S
C2125 C2126 1.390 . S
C2126 C2125 1.390 . S
C2126 C2127 1.394 . S
C2126 C2132 1.465 . S
C2127 C2122 1.399 . S
C2127 C2126 1.394 . S
C2127 C2128 1.516 . S
C2128 C2127 1.516 . S
C2128 C2129 1.502 . S
C2128 C2130 1.561 . S
C2128 C2131 1.526 . S
C2129 H2113 0.959 . S
C2129 H2114 0.959 . S
C2129 H2115 0.961 . S
C2129 C2128 1.502 . S
C2130 H2116 0.960 . S
C2130 H2117 0.961 . S
C2130 H2118 0.959 . S
C2130 C2128 1.561 . S
C2131 C2128 1.526 . S
C2131 C2132 1.396 . S
C2131 C2136 1.390 . S
C2132 C2126 1.465 . S
C2132 C2131 1.396 . S
C2132 C2133 1.399 . S
C2133 H2119 0.929 . S
C2133 C2132 1.399 . S
C2133 C2134 1.385 . S
C2134 H2120 0.931 . S
C2134 C2133 1.385 . S
C2134 C2135 1.389 . S
C2135 C2134 1.389 . S
C2135 C2136 1.387 . S
C2136 H2121 0.930 . S
C2136 C2131 1.390 . S
C2136 C2135 1.387 . S
H2137 C2149 0.930 . S
H2138 C2151 0.930 . S
H2139 C2152 0.930 . S
H2140 C2156 0.959 . S
H2141 C2156 0.959 . S
H2142 C2156 0.961 . S
H2143 C2157 0.960 . S
H2144 C2157 0.961 . S
H2145 C2157 0.959 . S
H2146 C2160 0.929 . S
H2147 C2161 0.931 . S
H2148 C2163 0.930 . S
C2149 H2137 0.930 . S
C2149 C2150 1.399 . S
C2149 C2154 1.399 . S
C2150 C2149 1.399 . S
C2150 C2151 1.376 . S
C2151 H2138 0.930 . S
C2151 C2150 1.376 . S
C2151 C2152 1.388 . S
C2152 H2139 0.930 . S
C2152 C2151 1.388 . S
C2152 C2153 1.390 . S
C2153 C2152 1.390 . S
C2153 C2154 1.394 . S
C2153 C2159 1.465 . S
C2154 C2149 1.399 . S
C2154 C2153 1.394 . S
C2154 C2155 1.516 . S
C2155 C2154 1.516 . S
C2155 C2156 1.502 . S
C2155 C2157 1.561 . S
C2155 C2158 1.526 . S
C2156 H2140 0.959 . S
C2156 H2141 0.959 . S
C2156 H2142 0.961 . S
C2156 C2155 1.502 . S
C2157 H2143 0.960 . S
C2157 H2144 0.961 . S
C2157 H2145 0.959 . S
C2157 C2155 1.561 . S
C2158 C2155 1.526 . S
C2158 C2159 1.396 . S
C2158 C2163 1.390 . S
C2159 C2153 1.465 . S
C2159 C2158 1.396 . S
C2159 C2160 1.399 . S
C2160 H2146 0.929 . S
C2160 C2159 1.399 . S
C2160 C2161 1.385 . S
C2161 H2147 0.931 . S
C2161 C2160 1.385 . S
C2161 C2162 1.389 . S
C2162 C2161 1.389 . S
C2162 C2163 1.387 . S
C2163 H2148 0.930 . S
C2163 C2158 1.390 . S
C2163 C2162 1.387 . S
H2164 C2176 0.930 . S
H2165 C2178 0.930 . S
H2166 C2179 0.930 . S
H2167 C2183 0.959 . S
H2168 C2183 0.959 . S
H2169 C2183 0.961 . S
H2170 C2184 0.960 . S
H2171 C2184 0.961 . S
H2172 C2184 0.959 . S
H2173 C2187 0.929 . S
H2174 C2188 0.931 . S
H2175 C2190 0.930 . S
C2176 H2164 0.930 . S
C2176 C2177 1.399 . S
C2176 C2181 1.399 . S
C2177 C2176 1.399 . S
C2177 C2178 1.376 . S
C2178 H2165 0.930 . S
C2178 C2177 1.376 . S
C2178 C2179 1.388 . S
C2179 H2166 0.930 . S
C2179 C2178 1.388 . S
C2179 C2180 1.390 . S
C2180 C2179 1.390 . S
C2180 C2181 1.394 . S
C2180 C2186 1.465 . S
C2181 C2176 1.399 . S
C2181 C2180 1.394 . S
C2181 C2182 1.516 . S
C2182 C2181 1.516 . S
C2182 C2183 1.502 . S
C2182 C2184 1.561 . S
C2182 C2185 1.526 . S
C2183 H2167 0.959 . S
C2183 H2168 0.959 . S
C2183 H2169 0.961 . S
C2183 C2182 1.502 . S
C2184 H2170 0.960 . S
C2184 H2171 0.961 . S
C2184 H2172 0.959 . S
C2184 C2182 1.561 . S
C2185 C2182 1.526 . S
C2185 C2186 1.396 . S
C2185 C2190 1.390 . S
C2186 C2180 1.465 . S
C2186 C2185 1.396 . S
C2186 C2187 1.399 . S
C2187 H2173 0.929 . S
C2187 C2186 1.399 . S
C2187 C2188 1.385 . S
C2188 H2174 0.931 . S
C2188 C2187 1.385 . S
C2188 C2189 1.389 . S
C2189 C2188 1.389 . S
C2189 C2190 1.387 . S
C2190 H2175 0.930 . S
C2190 C2185 1.390 . S
C2190 C2189 1.387 . S
H2191 C2203 0.930 . S
H2192 C2205 0.930 . S
H2193 C2206 0.930 . S
H2194 C2210 0.959 . S
H2195 C2210 0.959 . S
H2196 C2210 0.961 . S
H2197 C2211 0.960 . S
H2198 C2211 0.961 . S
H2199 C2211 0.959 . S
H2200 C2214 0.929 . S
H2201 C2215 0.931 . S
H2202 C2217 0.930 . S
C2203 H2191 0.930 . S
C2203 C2204 1.399 . S
C2203 C2208 1.399 . S
C2204 C2203 1.399 . S
C2204 C2205 1.376 . S
C2205 H2192 0.930 . S
C2205 C2204 1.376 . S
C2205 C2206 1.388 . S
C2206 H2193 0.930 . S
C2206 C2205 1.388 . S
C2206 C2207 1.390 . S
C2207 C2206 1.390 . S
C2207 C2208 1.394 . S
C2207 C2213 1.465 . S
C2208 C2203 1.399 . S
C2208 C2207 1.394 . S
C2208 C2209 1.516 . S
C2209 C2208 1.516 . S
C2209 C2210 1.502 . S
C2209 C2211 1.561 . S
C2209 C2212 1.526 . S
C2210 H2194 0.959 . S
C2210 H2195 0.959 . S
C2210 H2196 0.961 . S
C2210 C2209 1.502 . S
C2211 H2197 0.960 . S
C2211 H2198 0.961 . S
C2211 H2199 0.959 . S
C2211 C2209 1.561 . S
C2212 C2209 1.526 . S
C2212 C2213 1.396 . S
C2212 C2217 1.390 . S
C2213 C2207 1.465 . S
C2213 C2212 1.396 . S
C2213 C2214 1.399 . S
C2214 H2200 0.929 . S
C2214 C2213 1.399 . S
C2214 C2215 1.385 . S
C2215 H2201 0.931 . S
C2215 C2214 1.385 . S
C2215 C2216 1.389 . S
C2216 C2215 1.389 . S
C2216 C2217 1.387 . S
C2217 H2202 0.930 . S
C2217 C2212 1.390 . S
C2217 C2216 1.387 . S
H2218 C2230 0.930 . S
H2219 C2232 0.930 . S
H2220 C2233 0.930 . S
H2221 C2237 0.959 . S
H2222 C2237 0.959 . S
H2223 C2237 0.961 . S
H2224 C2238 0.960 . S
H2225 C2238 0.961 . S
H2226 C2238 0.959 . S
H2227 C2241 0.929 . S
H2228 C2242 0.931 . S
H2229 C2244 0.930 . S
C2230 H2218 0.930 . S
C2230 C2231 1.399 . S
C2230 C2235 1.399 . S
C2231 C2230 1.399 . S
C2231 C2232 1.376 . S
C2232 H2219 0.930 . S
C2232 C2231 1.376 . S
C2232 C2233 1.388 . S
C2233 H2220 0.930 . S
C2233 C2232 1.388 . S
C2233 C2234 1.390 . S
C2234 C2233 1.390 . S
C2234 C2235 1.394 . S
C2234 C2240 1.465 . S
C2235 C2230 1.399 . S
C2235 C2234 1.394 . S
C2235 C2236 1.516 . S
C2236 C2235 1.516 . S
C2236 C2237 1.502 . S
C2236 C2238 1.561 . S
C2236 C2239 1.526 . S
C2237 H2221 0.959 . S
C2237 H2222 0.959 . S
C2237 H2223 0.961 . S
C2237 C2236 1.502 . S
C2238 H2224 0.960 . S
C2238 H2225 0.961 . S
C2238 H2226 0.959 . S
C2238 C2236 1.561 . S
C2239 C2236 1.526 . S
C2239 C2240 1.396 . S
C2239 C2244 1.390 . S
C2240 C2234 1.465 . S
C2240 C2239 1.396 . S
C2240 C2241 1.399 . S
C2241 H2227 0.929 . S
C2241 C2240 1.399 . S
C2241 C2242 1.385 . S
C2242 H2228 0.931 . S
C2242 C2241 1.385 . S
C2242 C2243 1.389 . S
C2243 C2242 1.389 . S
C2243 C2244 1.387 . S
C2244 H2229 0.930 . S
C2244 C2239 1.390 . S
C2244 C2243 1.387 . S
H2245 C2257 0.930 . S
H2246 C2259 0.930 . S
H2247 C2260 0.930 . S
H2248 C2264 0.959 . S
H2249 C2264 0.959 . S
H2250 C2264 0.961 . S
H2251 C2265 0.960 . S
H2252 C2265 0.961 . S
H2253 C2265 0.959 . S
H2254 C2268 0.929 . S
H2255 C2269 0.931 . S
H2256 C2271 0.930 . S
C2257 H2245 0.930 . S
C2257 C2258 1.399 . S
C2257 C2262 1.399 . S
C2258 C2257 1.399 . S
C2258 C2259 1.376 . S
C2259 H2246 0.930 . S
C2259 C2258 1.376 . S
C2259 C2260 1.388 . S
C2260 H2247 0.930 . S
C2260 C2259 1.388 . S
C2260 C2261 1.390 . S
C2261 C2260 1.390 . S
C2261 C2262 1.394 . S
C2261 C2267 1.465 . S
C2262 C2257 1.399 . S
C2262 C2261 1.394 . S
C2262 C2263 1.516 . S
C2263 C2262 1.516 . S
C2263 C2264 1.502 . S
C2263 C2265 1.561 . S
C2263 C2266 1.526 . S
C2264 H2248 0.959 . S
C2264 H2249 0.959 . S
C2264 H2250 0.961 . S
C2264 C2263 1.502 . S
C2265 H2251 0.960 . S
C2265 H2252 0.961 . S
C2265 H2253 0.959 . S
C2265 C2263 1.561 . S
C2266 C2263 1.526 . S
C2266 C2267 1.396 . S
C2266 C2271 1.390 . S
C2267 C2261 1.465 . S
C2267 C2266 1.396 . S
C2267 C2268 1.399 . S
C2268 H2254 0.929 . S
C2268 C2267 1.399 . S
C2268 C2269 1.385 . S
C2269 H2255 0.931 . S
C2269 C2268 1.385 . S
C2269 C2270 1.389 . S
C2270 C2269 1.389 . S
C2270 C2271 1.387 . S
C2271 H2256 0.930 . S
C2271 C2266 1.390 . S
C2271 C2270 1.387 . S
H2272 C2284 0.930 . S
H2273 C2286 0.930 . S
H2274 C2287 0.930 . S
H2275 C2291 0.959 . S
H2276 C2291 0.959 . S
H2277 C2291 0.961 . S
H2278 C2292 0.960 . S
H2279 C2292 0.961 . S
H2280 C2292 0.959 . S
H2281 C2295 0.929 . S
H2282 C2296 0.931 . S
H2283 C2298 0.930 . S
C2284 H2272 0.930 . S
C2284 C2285 1.399 . S
C2284 C2289 1.399 . S
C2285 C2284 1.399 . S
C2285 C2286 1.376 . S
C2286 H2273 0.930 . S
C2286 C2285 1.376 . S
C2286 C2287 1.388 . S
C2287 H2274 0.930 . S
C2287 C2286 1.388 . S
C2287 C2288 1.390 . S
C2288 C2287 1.390 . S
C2288 C2289 1.394 . S
C2288 C2294 1.465 . S
C2289 C2284 1.399 . S
C2289 C2288 1.394 . S
C2289 C2290 1.516 . S
C2290 C2289 1.516 . S
C2290 C2291 1.502 . S
C2290 C2292 1.561 . S
C2290 C2293 1.526 . S
C2291 H2275 0.959 . S
C2291 H2276 0.959 . S
C2291 H2277 0.961 . S
C2291 C2290 1.502 . S
C2292 H2278 0.960 . S
C2292 H2279 0.961 . S
C2292 H2280 0.959 . S
C2292 C2290 1.561 . S
C2293 C2290 1.526 . S
C2293 C2294 1.396 . S
C2293 C2298 1.390 . S
C2294 C2288 1.465 . S
C2294 C2293 1.396 . S
C2294 C2295 1.399 . S
C2295 H2281 0.929 . S
C2295 C2294 1.399 . S
C2295 C2296 1.385 . S
C2296 H2282 0.931 . S
C2296 C2295 1.385 . S
C2296 C2297 1.389 . S
C2297 C2296 1.389 . S
C2297 C2298 1.387 . S
C2298 H2283 0.930 . S
C2298 C2293 1.390 . S
C2298 C2297 1.387 . S
H2299 C2311 0.930 . S
H2300 C2313 0.930 . S
H2301 C2314 0.930 . S
H2302 C2318 0.959 . S
H2303 C2318 0.959 . S
H2304 C2318 0.961 . S
H2305 C2319 0.960 . S
H2306 C2319 0.961 . S
H2307 C2319 0.959 . S
H2308 C2322 0.929 . S
H2309 C2323 0.931 . S
H2310 C2325 0.930 . S
C2311 H2299 0.930 . S
C2311 C2312 1.399 . S
C2311 C2316 1.399 . S
C2312 C2311 1.399 . S
C2312 C2313 1.376 . S
C2313 H2300 0.930 . S
C2313 C2312 1.376 . S
C2313 C2314 1.388 . S
C2314 H2301 0.930 . S
C2314 C2313 1.388 . S
C2314 C2315 1.390 . S
C2315 C2314 1.390 . S
C2315 C2316 1.394 . S
C2315 C2321 1.465 . S
C2316 C2311 1.399 . S
C2316 C2315 1.394 . S
C2316 C2317 1.516 . S
C2317 C2316 1.516 . S
C2317 C2318 1.502 . S
C2317 C2319 1.561 . S
C2317 C2320 1.526 . S
C2318 H2302 0.959 . S
C2318 H2303 0.959 . S
C2318 H2304 0.961 . S
C2318 C2317 1.502 . S
C2319 H2305 0.960 . S
C2319 H2306 0.961 . S
C2319 H2307 0.959 . S
C2319 C2317 1.561 . S
C2320 C2317 1.526 . S
C2320 C2321 1.396 . S
C2320 C2325 1.390 . S
C2321 C2315 1.465 . S
C2321 C2320 1.396 . S
C2321 C2322 1.399 . S
C2322 H2308 0.929 . S
C2322 C2321 1.399 . S
C2322 C2323 1.385 . S
C2323 H2309 0.931 . S
C2323 C2322 1.385 . S
C2323 C2324 1.389 . S
C2324 C2323 1.389 . S
C2324 C2325 1.387 . S
C2325 H2310 0.930 . S
C2325 C2320 1.390 . S
C2325 C2324 1.387 . S
H2326 C2338 0.930 1_656 S
H2327 C2340 0.949 . S
H2328 C2341 0.930 . S
H2329 C2345 0.959 1_556 S
H2330 C2345 0.959 . S
H2331 C2345 0.961 . S
H2332 C2346 0.960 . S
H2333 C2346 0.961 . S
H2334 C2346 0.959 1_455 S
H2335 C2349 0.929 . S
H2336 C2350 0.931 . S
H2337 C2352 0.930 . S
C2338 H2326 0.930 1_454 S
C2338 C2339 1.399 1_554 S
C2338 C2343 1.399 . S
C2339 C2338 1.399 1_556 S
C2339 C2340 1.377 . S
C2340 H2327 0.949 . S
C2340 C2339 1.377 . S
C2340 C2341 1.373 1_556 S
C2341 H2328 0.930 . S
C2341 C2340 1.373 1_554 S
C2341 C2342 1.390 . S
C2342 C2341 1.390 . S
C2342 C2343 1.394 . S
C2342 C2348 1.465 . S
C2343 C2338 1.399 . S
C2343 C2342 1.394 . S
C2343 C2344 1.558 . S
C2344 C2343 1.558 . S
C2344 C2345 1.462 1_455 S
C2344 C2346 1.542 1_455 S
C2344 C2347 1.551 . S
C2345 H2329 0.959 1_554 S
C2345 H2330 0.959 . S
C2345 H2331 0.961 . S
C2345 C2344 1.462 1_655 S
C2346 H2332 0.960 . S
C2346 H2333 0.961 . S
C2346 H2334 0.959 1_655 S
C2346 C2344 1.542 1_655 S
C2347 C2344 1.551 . S
C2347 C2348 1.396 . S
C2347 C2352 1.390 . S
C2348 C2342 1.465 . S
C2348 C2347 1.396 . S
C2348 C2349 1.399 . S
C2349 H2335 0.929 . S
C2349 C2348 1.399 . S
C2349 C2350 1.385 . S
C2350 H2336 0.931 . S
C2350 C2349 1.385 . S
C2350 C2351 1.389 . S
C2351 C2350 1.389 . S
C2351 C2352 1.387 . S
C2352 H2337 0.930 . S
C2352 C2347 1.390 . S
C2352 C2351 1.387 . S
H2353 C2365 0.930 . S
H2354 C2367 0.930 . S
H2355 C2368 0.930 . S
H2356 C2372 0.959 . S
H2357 C2372 0.959 . S
H2358 C2372 0.961 . S
H2359 C2373 0.960 . S
H2360 C2373 0.961 . S
H2361 C2373 0.959 . S
H2362 C2376 0.929 . S
H2363 C2377 0.931 . S
H2364 C2379 0.930 . S
C2365 H2353 0.930 . S
C2365 C2366 1.399 . S
C2365 C2370 1.399 . S
C2366 C2365 1.399 . S
C2366 C2367 1.376 . S
C2367 H2354 0.930 . S
C2367 C2366 1.376 . S
C2367 C2368 1.388 . S
C2368 H2355 0.930 . S
C2368 C2367 1.388 . S
C2368 C2369 1.390 . S
C2369 C2368 1.390 . S
C2369 C2370 1.394 . S
C2369 C2375 1.465 . S
C2370 C2365 1.399 . S
C2370 C2369 1.394 . S
C2370 C2371 1.516 . S
C2371 C2370 1.516 . S
C2371 C2372 1.502 . S
C2371 C2373 1.561 . S
C2371 C2374 1.526 . S
C2372 H2356 0.959 . S
C2372 H2357 0.959 . S
C2372 H2358 0.961 . S
C2372 C2371 1.502 . S
C2373 H2359 0.960 . S
C2373 H2360 0.961 . S
C2373 H2361 0.959 . S
C2373 C2371 1.561 . S
C2374 C2371 1.526 . S
C2374 C2375 1.396 . S
C2374 C2379 1.390 . S
C2375 C2369 1.465 . S
C2375 C2374 1.396 . S
C2375 C2376 1.399 . S
C2376 H2362 0.929 . S
C2376 C2375 1.399 . S
C2376 C2377 1.385 . S
C2377 H2363 0.931 . S
C2377 C2376 1.385 . S
C2377 C2378 1.389 . S
C2378 C2377 1.389 . S
C2378 C2379 1.387 . S
C2379 H2364 0.930 . S
C2379 C2374 1.390 . S
C2379 C2378 1.387 . S
H2380 C2392 0.930 . S
H2381 C2394 0.930 . S
H2382 C2395 0.930 . S
H2383 C2399 0.959 . S
H2384 C2399 0.959 . S
H2385 C2399 0.961 . S
H2386 C2400 0.960 . S
H2387 C2400 0.961 . S
H2388 C2400 0.959 . S
H2389 C2403 0.929 . S
H2390 C2404 0.931 . S
H2391 C2406 0.930 . S
C2392 H2380 0.930 . S
C2392 C2393 1.399 . S
C2392 C2397 1.399 . S
C2393 C2392 1.399 . S
C2393 C2394 1.376 . S
C2394 H2381 0.930 . S
C2394 C2393 1.376 . S
C2394 C2395 1.388 . S
C2395 H2382 0.930 . S
C2395 C2394 1.388 . S
C2395 C2396 1.390 . S
C2396 C2395 1.390 . S
C2396 C2397 1.394 . S
C2396 C2402 1.465 . S
C2397 C2392 1.399 . S
C2397 C2396 1.394 . S
C2397 C2398 1.516 . S
C2398 C2397 1.516 . S
C2398 C2399 1.502 . S
C2398 C2400 1.561 . S
C2398 C2401 1.526 . S
C2399 H2383 0.959 . S
C2399 H2384 0.959 . S
C2399 H2385 0.961 . S
C2399 C2398 1.502 . S
C2400 H2386 0.960 . S
C2400 H2387 0.961 . S
C2400 H2388 0.959 . S
C2400 C2398 1.561 . S
C2401 C2398 1.526 . S
C2401 C2402 1.396 . S
C2401 C2406 1.390 . S
C2402 C2396 1.465 . S
C2402 C2401 1.396 . S
C2402 C2403 1.399 . S
C2403 H2389 0.929 . S
C2403 C2402 1.399 . S
C2403 C2404 1.385 . S
C2404 H2390 0.931 . S
C2404 C2403 1.385 . S
C2404 C2405 1.389 . S
C2405 C2404 1.389 . S
C2405 C2406 1.387 . S
C2406 H2391 0.930 . S
C2406 C2401 1.390 . S
C2406 C2405 1.387 . S
H2407 C2419 0.930 . S
H2408 C2421 0.930 . S
H2409 C2422 0.930 . S
H2410 C2426 0.959 . S
H2411 C2426 0.959 . S
H2412 C2426 0.961 . S
H2413 C2427 0.960 . S
H2414 C2427 0.961 . S
H2415 C2427 0.959 . S
H2416 C2430 0.929 . S
H2417 C2431 0.931 . S
H2418 C2433 0.930 . S
C2419 H2407 0.930 . S
C2419 C2420 1.399 . S
C2419 C2424 1.399 . S
C2420 C2419 1.399 . S
C2420 C2421 1.376 . S
C2421 H2408 0.930 . S
C2421 C2420 1.376 . S
C2421 C2422 1.388 . S
C2422 H2409 0.930 . S
C2422 C2421 1.388 . S
C2422 C2423 1.390 . S
C2423 C2422 1.390 . S
C2423 C2424 1.394 . S
C2423 C2429 1.465 . S
C2424 C2419 1.399 . S
C2424 C2423 1.394 . S
C2424 C2425 1.516 . S
C2425 C2424 1.516 . S
C2425 C2426 1.502 . S
C2425 C2427 1.561 . S
C2425 C2428 1.526 . S
C2426 H2410 0.959 . S
C2426 H2411 0.959 . S
C2426 H2412 0.961 . S
C2426 C2425 1.502 . S
C2427 H2413 0.960 . S
C2427 H2414 0.961 . S
C2427 H2415 0.959 . S
C2427 C2425 1.561 . S
C2428 C2425 1.526 . S
C2428 C2429 1.396 . S
C2428 C2433 1.390 . S
C2429 C2423 1.465 . S
C2429 C2428 1.396 . S
C2429 C2430 1.399 . S
C2430 H2416 0.929 . S
C2430 C2429 1.399 . S
C2430 C2431 1.385 . S
C2431 H2417 0.931 . S
C2431 C2430 1.385 . S
C2431 C2432 1.389 . S
C2432 C2431 1.389 . S
C2432 C2433 1.387 . S
C2433 H2418 0.930 . S
C2433 C2428 1.390 . S
C2433 C2432 1.387 . S
H2434 C2446 0.930 . S
H2435 C2448 0.930 . S
H2436 C2449 0.930 . S
H2437 C2453 0.959 . S
H2438 C2453 0.959 . S
H2439 C2453 0.961 . S
H2440 C2454 0.960 . S
H2441 C2454 0.961 . S
H2442 C2454 0.959 . S
H2443 C2457 0.929 . S
H2444 C2458 0.931 . S
H2445 C2460 0.930 . S
C2446 H2434 0.930 . S
C2446 C2447 1.399 . S
C2446 C2451 1.399 . S
C2447 C2446 1.399 . S
C2447 C2448 1.376 . S
C2448 H2435 0.930 . S
C2448 C2447 1.376 . S
C2448 C2449 1.388 . S
C2449 H2436 0.930 . S
C2449 C2448 1.388 . S
C2449 C2450 1.390 . S
C2450 C2449 1.390 . S
C2450 C2451 1.394 . S
C2450 C2456 1.465 . S
C2451 C2446 1.399 . S
C2451 C2450 1.394 . S
C2451 C2452 1.516 . S
C2452 C2451 1.516 . S
C2452 C2453 1.502 . S
C2452 C2454 1.561 . S
C2452 C2455 1.526 . S
C2453 H2437 0.959 . S
C2453 H2438 0.959 . S
C2453 H2439 0.961 . S
C2453 C2452 1.502 . S
C2454 H2440 0.960 . S
C2454 H2441 0.961 . S
C2454 H2442 0.959 . S
C2454 C2452 1.561 . S
C2455 C2452 1.526 . S
C2455 C2456 1.396 . S
C2455 C2460 1.390 . S
C2456 C2450 1.465 . S
C2456 C2455 1.396 . S
C2456 C2457 1.399 . S
C2457 H2443 0.929 . S
C2457 C2456 1.399 . S
C2457 C2458 1.385 . S
C2458 H2444 0.931 . S
C2458 C2457 1.385 . S
C2458 C2459 1.389 . S
C2459 C2458 1.389 . S
C2459 C2460 1.387 . S
C2460 H2445 0.930 . S
C2460 C2455 1.390 . S
C2460 C2459 1.387 . S
H2461 C2473 0.930 . S
H2462 C2475 0.930 . S
H2463 C2476 0.930 . S
H2464 C2480 0.959 . S
H2465 C2480 0.959 . S
H2466 C2480 0.961 . S
H2467 C2481 0.960 . S
H2468 C2481 0.961 . S
H2469 C2481 0.959 . S
H2470 C2484 0.929 . S
H2471 C2485 0.931 . S
H2472 C2487 0.930 . S
C2473 H2461 0.930 . S
C2473 C2474 1.399 . S
C2473 C2478 1.399 . S
C2474 C2473 1.399 . S
C2474 C2475 1.376 . S
C2475 H2462 0.930 . S
C2475 C2474 1.376 . S
C2475 C2476 1.388 . S
C2476 H2463 0.930 . S
C2476 C2475 1.388 . S
C2476 C2477 1.390 . S
C2477 C2476 1.390 . S
C2477 C2478 1.394 . S
C2477 C2483 1.465 . S
C2478 C2473 1.399 . S
C2478 C2477 1.394 . S
C2478 C2479 1.516 . S
C2479 C2478 1.516 . S
C2479 C2480 1.502 . S
C2479 C2481 1.561 . S
C2479 C2482 1.526 . S
C2480 H2464 0.959 . S
C2480 H2465 0.959 . S
C2480 H2466 0.961 . S
C2480 C2479 1.502 . S
C2481 H2467 0.960 . S
C2481 H2468 0.961 . S
C2481 H2469 0.959 . S
C2481 C2479 1.561 . S
C2482 C2479 1.526 . S
C2482 C2483 1.396 . S
C2482 C2487 1.390 . S
C2483 C2477 1.465 . S
C2483 C2482 1.396 . S
C2483 C2484 1.399 . S
C2484 H2470 0.929 . S
C2484 C2483 1.399 . S
C2484 C2485 1.385 . S
C2485 H2471 0.931 . S
C2485 C2484 1.385 . S
C2485 C2486 1.389 . S
C2486 C2485 1.389 . S
C2486 C2487 1.387 . S
C2487 H2472 0.930 . S
C2487 C2482 1.390 . S
C2487 C2486 1.387 . S
H2488 C2500 0.930 . S
H2489 C2502 0.930 . S
H2490 C2503 0.930 . S
H2491 C2507 0.959 . S
H2492 C2507 0.959 . S
H2493 C2507 0.961 . S
H2494 C2508 0.960 . S
H2495 C2508 0.961 . S
H2496 C2508 0.959 . S
H2497 C2511 0.929 . S
H2498 C2512 0.931 . S
H2499 C2514 0.930 . S
C2500 H2488 0.930 . S
C2500 C2501 1.399 . S
C2500 C2505 1.399 . S
C2501 C2500 1.399 . S
C2501 C2502 1.376 . S
C2502 H2489 0.930 . S
C2502 C2501 1.376 . S
C2502 C2503 1.388 . S
C2503 H2490 0.930 . S
C2503 C2502 1.388 . S
C2503 C2504 1.390 . S
C2504 C2503 1.390 . S
C2504 C2505 1.394 . S
C2504 C2510 1.465 . S
C2505 C2500 1.399 . S
C2505 C2504 1.394 . S
C2505 C2506 1.516 . S
C2506 C2505 1.516 . S
C2506 C2507 1.502 . S
C2506 C2508 1.561 . S
C2506 C2509 1.526 . S
C2507 H2491 0.959 . S
C2507 H2492 0.959 . S
C2507 H2493 0.961 . S
C2507 C2506 1.502 . S
C2508 H2494 0.960 . S
C2508 H2495 0.961 . S
C2508 H2496 0.959 . S
C2508 C2506 1.561 . S
C2509 C2506 1.526 . S
C2509 C2510 1.396 . S
C2509 C2514 1.390 . S
C2510 C2504 1.465 . S
C2510 C2509 1.396 . S
C2510 C2511 1.399 . S
C2511 H2497 0.929 . S
C2511 C2510 1.399 . S
C2511 C2512 1.385 . S
C2512 H2498 0.931 . S
C2512 C2511 1.385 . S
C2512 C2513 1.389 . S
C2513 C2512 1.389 . S
C2513 C2514 1.387 . S
C2514 H2499 0.930 . S
C2514 C2509 1.390 . S
C2514 C2513 1.387 . S
H2515 C2527 0.930 . S
H2516 C2529 0.930 . S
H2517 C2530 0.930 . S
H2518 C2534 0.959 . S
H2519 C2534 0.959 . S
H2520 C2534 0.961 . S
H2521 C2535 0.960 . S
H2522 C2535 0.961 . S
H2523 C2535 0.959 . S
H2524 C2538 0.929 . S
H2525 C2539 0.931 . S
H2526 C2541 0.930 . S
C2527 H2515 0.930 . S
C2527 C2528 1.399 . S
C2527 C2532 1.399 . S
C2528 C2527 1.399 . S
C2528 C2529 1.376 . S
C2529 H2516 0.930 . S
C2529 C2528 1.376 . S
C2529 C2530 1.388 . S
C2530 H2517 0.930 . S
C2530 C2529 1.388 . S
C2530 C2531 1.390 . S
C2531 C2530 1.390 . S
C2531 C2532 1.394 . S
C2531 C2537 1.465 1_554 S
C2532 C2527 1.399 . S
C2532 C2531 1.394 . S
C2532 C2533 1.516 1_554 S
C2533 C2532 1.516 1_556 S
C2533 C2534 1.502 . S
C2533 C2535 1.561 . S
C2533 C2536 1.526 . S
C2534 H2518 0.959 . S
C2534 H2519 0.959 . S
C2534 H2520 0.961 . S
C2534 C2533 1.502 . S
C2535 H2521 0.960 . S
C2535 H2522 0.961 . S
C2535 H2523 0.959 . S
C2535 C2533 1.561 . S
C2536 C2533 1.526 . S
C2536 C2537 1.396 . S
C2536 C2541 1.390 . S
C2537 C2531 1.465 1_556 S
C2537 C2536 1.396 . S
C2537 C2538 1.399 . S
C2538 H2524 0.929 . S
C2538 C2537 1.399 . S
C2538 C2539 1.385 . S
C2539 H2525 0.931 . S
C2539 C2538 1.385 . S
C2539 C2540 1.389 . S
C2540 C2539 1.389 . S
C2540 C2541 1.387 . S
C2541 H2526 0.930 . S
C2541 C2536 1.390 . S
C2541 C2540 1.387 . S
H2542 C2554 0.930 . S
H2543 C2556 0.930 . S
H2544 C2557 0.930 . S
H2545 C2561 0.959 . S
H2546 C2561 0.959 . S
H2547 C2561 0.961 . S
H2548 C2562 0.960 . S
H2549 C2562 0.961 . S
H2550 C2562 0.959 . S
H2551 C2565 0.929 . S
H2552 C2566 0.931 . S
H2553 C2568 0.930 . S
C2554 H2542 0.930 . S
C2554 C2555 1.399 . S
C2554 C2559 1.399 . S
C2555 C2554 1.399 . S
C2555 C2556 1.376 . S
C2556 H2543 0.930 . S
C2556 C2555 1.376 . S
C2556 C2557 1.388 . S
C2557 H2544 0.930 . S
C2557 C2556 1.388 . S
C2557 C2558 1.390 . S
C2558 C2557 1.390 . S
C2558 C2559 1.394 . S
C2558 C2564 1.465 . S
C2559 C2554 1.399 . S
C2559 C2558 1.394 . S
C2559 C2560 1.516 . S
C2560 C2559 1.516 . S
C2560 C2561 1.502 . S
C2560 C2562 1.561 . S
C2560 C2563 1.526 . S
C2561 H2545 0.959 . S
C2561 H2546 0.959 . S
C2561 H2547 0.961 . S
C2561 C2560 1.502 . S
C2562 H2548 0.960 . S
C2562 H2549 0.961 . S
C2562 H2550 0.959 . S
C2562 C2560 1.561 . S
C2563 C2560 1.526 . S
C2563 C2564 1.396 . S
C2563 C2568 1.390 . S
C2564 C2558 1.465 . S
C2564 C2563 1.396 . S
C2564 C2565 1.399 . S
C2565 H2551 0.929 . S
C2565 C2564 1.399 . S
C2565 C2566 1.385 . S
C2566 H2552 0.931 . S
C2566 C2565 1.385 . S
C2566 C2567 1.389 . S
C2567 C2566 1.389 . S
C2567 C2568 1.387 . S
C2568 H2553 0.930 . S
C2568 C2563 1.390 . S
C2568 C2567 1.387 . S
H2569 C2581 0.930 . S
H2570 C2583 0.930 . S
H2571 C2584 0.930 . S
H2572 C2588 0.959 . S
H2573 C2588 0.959 . S
H2574 C2588 0.961 . S
H2575 C2589 0.960 . S
H2576 C2589 0.961 . S
H2577 C2589 0.959 . S
H2578 C2592 0.929 . S
H2579 C2593 0.931 . S
H2580 C2595 0.930 . S
C2581 H2569 0.930 . S
C2581 C2582 1.399 . S
C2581 C2586 1.399 . S
C2582 C2581 1.399 . S
C2582 C2583 1.376 . S
C2583 H2570 0.930 . S
C2583 C2582 1.376 . S
C2583 C2584 1.388 . S
C2584 H2571 0.930 . S
C2584 C2583 1.388 . S
C2584 C2585 1.390 . S
C2585 C2584 1.390 . S
C2585 C2586 1.394 . S
C2585 C2591 1.465 . S
C2586 C2581 1.399 . S
C2586 C2585 1.394 . S
C2586 C2587 1.516 . S
C2587 C2586 1.516 . S
C2587 C2588 1.502 . S
C2587 C2589 1.561 . S
C2587 C2590 1.526 . S
C2588 H2572 0.959 . S
C2588 H2573 0.959 . S
C2588 H2574 0.961 . S
C2588 C2587 1.502 . S
C2589 H2575 0.960 . S
C2589 H2576 0.961 . S
C2589 H2577 0.959 . S
C2589 C2587 1.561 . S
C2590 C2587 1.526 . S
C2590 C2591 1.396 . S
C2590 C2595 1.390 . S
C2591 C2585 1.465 . S
C2591 C2590 1.396 . S
C2591 C2592 1.399 . S
C2592 H2578 0.929 . S
C2592 C2591 1.399 . S
C2592 C2593 1.385 . S
C2593 H2579 0.931 . S
C2593 C2592 1.385 . S
C2593 C2594 1.389 . S
C2594 C2593 1.389 . S
C2594 C2595 1.387 . S
C2595 H2580 0.930 . S
C2595 C2590 1.390 . S
C2595 C2594 1.387 . S
H2596 C2608 0.930 . S
H2597 C2610 0.930 . S
H2598 C2611 0.930 . S
H2599 C2615 0.959 . S
H2600 C2615 0.959 . S
H2601 C2615 0.961 . S
H2602 C2616 0.960 . S
H2603 C2616 0.961 . S
H2604 C2616 0.959 . S
H2605 C2619 0.929 . S
H2606 C2620 0.931 . S
H2607 C2622 0.930 . S
C2608 H2596 0.930 . S
C2608 C2609 1.399 . S
C2608 C2613 1.399 . S
C2609 C2608 1.399 . S
C2609 C2610 1.376 . S
C2610 H2597 0.930 . S
C2610 C2609 1.376 . S
C2610 C2611 1.388 . S
C2611 H2598 0.930 . S
C2611 C2610 1.388 . S
C2611 C2612 1.390 . S
C2612 C2611 1.390 . S
C2612 C2613 1.394 . S
C2612 C2618 1.465 . S
C2613 C2608 1.399 . S
C2613 C2612 1.394 . S
C2613 C2614 1.516 . S
C2614 C2613 1.516 . S
C2614 C2615 1.502 . S
C2614 C2616 1.561 . S
C2614 C2617 1.526 . S
C2615 H2599 0.959 . S
C2615 H2600 0.959 . S
C2615 H2601 0.961 . S
C2615 C2614 1.502 . S
C2616 H2602 0.960 . S
C2616 H2603 0.961 . S
C2616 H2604 0.959 . S
C2616 C2614 1.561 . S
C2617 C2614 1.526 . S
C2617 C2618 1.396 . S
C2617 C2622 1.390 . S
C2618 C2612 1.465 . S
C2618 C2617 1.396 . S
C2618 C2619 1.399 . S
C2619 H2605 0.929 . S
C2619 C2618 1.399 . S
C2619 C2620 1.385 . S
C2620 H2606 0.931 . S
C2620 C2619 1.385 . S
C2620 C2621 1.389 . S
C2621 C2620 1.389 . S
C2621 C2622 1.387 . S
C2622 H2607 0.930 . S
C2622 C2617 1.390 . S
C2622 C2621 1.387 . S
H2623 C2635 0.930 . S
H2624 C2637 0.930 . S
H2625 C2638 0.930 . S
H2626 C2642 0.959 . S
H2627 C2642 0.959 . S
H2628 C2642 0.961 . S
H2629 C2643 0.960 . S
H2630 C2643 0.961 . S
H2631 C2643 0.959 . S
H2632 C2646 0.929 . S
H2633 C2647 0.931 . S
H2634 C2649 0.930 . S
C2635 H2623 0.930 . S
C2635 C2636 1.399 . S
C2635 C2640 1.399 . S
C2636 C2635 1.399 . S
C2636 C2637 1.376 . S
C2637 H2624 0.930 . S
C2637 C2636 1.376 . S
C2637 C2638 1.388 . S
C2638 H2625 0.930 . S
C2638 C2637 1.388 . S
C2638 C2639 1.390 . S
C2639 C2638 1.390 . S
C2639 C2640 1.394 . S
C2639 C2645 1.465 . S
C2640 C2635 1.399 . S
C2640 C2639 1.394 . S
C2640 C2641 1.516 . S
C2641 C2640 1.516 . S
C2641 C2642 1.502 . S
C2641 C2643 1.561 . S
C2641 C2644 1.526 . S
C2642 H2626 0.959 . S
C2642 H2627 0.959 . S
C2642 H2628 0.961 . S
C2642 C2641 1.502 . S
C2643 H2629 0.960 . S
C2643 H2630 0.961 . S
C2643 H2631 0.959 . S
C2643 C2641 1.561 . S
C2644 C2641 1.526 . S
C2644 C2645 1.396 . S
C2644 C2649 1.390 . S
C2645 C2639 1.465 . S
C2645 C2644 1.396 . S
C2645 C2646 1.399 . S
C2646 H2632 0.929 . S
C2646 C2645 1.399 . S
C2646 C2647 1.385 . S
C2647 H2633 0.931 . S
C2647 C2646 1.385 . S
C2647 C2648 1.389 . S
C2648 C2647 1.389 . S
C2648 C2649 1.387 . S
C2649 H2634 0.930 . S
C2649 C2644 1.390 . S
C2649 C2648 1.387 . S
H2650 C2662 0.930 . S
H2651 C2664 0.930 . S
H2652 C2665 0.930 . S
H2653 C2669 0.959 . S
H2654 C2669 0.959 . S
H2655 C2669 0.961 . S
H2656 C2670 0.960 . S
H2657 C2670 0.961 . S
H2658 C2670 0.959 . S
H2659 C2673 0.929 . S
H2660 C2674 0.931 . S
H2661 C2676 0.930 . S
C2662 H2650 0.930 . S
C2662 C2663 1.399 . S
C2662 C2667 1.399 . S
C2663 C2662 1.399 . S
C2663 C2664 1.376 . S
C2664 H2651 0.930 . S
C2664 C2663 1.376 . S
C2664 C2665 1.388 . S
C2665 H2652 0.930 . S
C2665 C2664 1.388 . S
C2665 C2666 1.390 . S
C2666 C2665 1.390 . S
C2666 C2667 1.394 . S
C2666 C2672 1.465 . S
C2667 C2662 1.399 . S
C2667 C2666 1.394 . S
C2667 C2668 1.516 . S
C2668 C2667 1.516 . S
C2668 C2669 1.502 . S
C2668 C2670 1.561 . S
C2668 C2671 1.526 . S
C2669 H2653 0.959 . S
C2669 H2654 0.959 . S
C2669 H2655 0.961 . S
C2669 C2668 1.502 . S
C2670 H2656 0.960 . S
C2670 H2657 0.961 . S
C2670 H2658 0.959 . S
C2670 C2668 1.561 . S
C2671 C2668 1.526 . S
C2671 C2672 1.396 . S
C2671 C2676 1.390 . S
C2672 C2666 1.465 . S
C2672 C2671 1.396 . S
C2672 C2673 1.399 . S
C2673 H2659 0.929 . S
C2673 C2672 1.399 . S
C2673 C2674 1.385 . S
C2674 H2660 0.931 . S
C2674 C2673 1.385 . S
C2674 C2675 1.389 . S
C2675 C2674 1.389 . S
C2675 C2676 1.387 . S
C2676 H2661 0.930 . S
C2676 C2671 1.390 . S
C2676 C2675 1.387 . S
H2677 C2689 0.930 . S
H2678 C2691 0.930 . S
H2679 C2692 0.930 . S
H2680 C2696 0.959 . S
H2681 C2696 0.959 . S
H2682 C2696 0.961 . S
H2683 C2697 0.960 . S
H2684 C2697 0.961 . S
H2685 C2697 0.959 . S
H2686 C2700 0.929 . S
H2687 C2701 0.931 . S
H2688 C2703 0.930 . S
C2689 H2677 0.930 . S
C2689 C2690 1.399 . S
C2689 C2694 1.399 . S
C2690 C2689 1.399 . S
C2690 C2691 1.376 . S
C2691 H2678 0.930 . S
C2691 C2690 1.376 . S
C2691 C2692 1.388 . S
C2692 H2679 0.930 . S
C2692 C2691 1.388 . S
C2692 C2693 1.390 . S
C2693 C2692 1.390 . S
C2693 C2694 1.394 . S
C2693 C2699 1.465 . S
C2694 C2689 1.399 . S
C2694 C2693 1.394 . S
C2694 C2695 1.516 . S
C2695 C2694 1.516 . S
C2695 C2696 1.502 . S
C2695 C2697 1.561 . S
C2695 C2698 1.526 . S
C2696 H2680 0.959 . S
C2696 H2681 0.959 . S
C2696 H2682 0.961 . S
C2696 C2695 1.502 . S
C2697 H2683 0.960 . S
C2697 H2684 0.961 . S
C2697 H2685 0.959 . S
C2697 C2695 1.561 . S
C2698 C2695 1.526 . S
C2698 C2699 1.396 . S
C2698 C2703 1.390 . S
C2699 C2693 1.465 . S
C2699 C2698 1.396 . S
C2699 C2700 1.399 . S
C2700 H2686 0.929 . S
C2700 C2699 1.399 . S
C2700 C2701 1.385 . S
C2701 H2687 0.931 . S
C2701 C2700 1.385 . S
C2701 C2702 1.389 . S
C2702 C2701 1.389 . S
C2702 C2703 1.387 . S
C2703 H2688 0.930 . S
C2703 C2698 1.390 . S
C2703 C2702 1.387 . S
H2704 C2716 0.930 . S
H2705 C2718 0.930 . S
H2706 C2719 0.930 . S
H2707 C2723 0.959 . S
H2708 C2723 0.959 . S
H2709 C2723 0.961 . S
H2710 C2724 0.960 . S
H2711 C2724 0.961 . S
H2712 C2724 0.959 . S
H2713 C2727 0.929 . S
H2714 C2728 0.931 . S
H2715 C2730 0.930 . S
C2716 H2704 0.930 . S
C2716 C2717 1.399 . S
C2716 C2721 1.399 . S
C2717 C2716 1.399 . S
C2717 C2718 1.376 . S
C2718 H2705 0.930 . S
C2718 C2717 1.376 . S
C2718 C2719 1.388 . S
C2719 H2706 0.930 . S
C2719 C2718 1.388 . S
C2719 C2720 1.390 . S
C2720 C2719 1.390 . S
C2720 C2721 1.394 . S
C2720 C2726 1.465 . S
C2721 C2716 1.399 . S
C2721 C2720 1.394 . S
C2721 C2722 1.516 . S
C2722 C2721 1.516 . S
C2722 C2723 1.502 . S
C2722 C2724 1.561 . S
C2722 C2725 1.526 . S
C2723 H2707 0.959 . S
C2723 H2708 0.959 . S
C2723 H2709 0.961 . S
C2723 C2722 1.502 . S
C2724 H2710 0.960 . S
C2724 H2711 0.961 . S
C2724 H2712 0.959 . S
C2724 C2722 1.561 . S
C2725 C2722 1.526 . S
C2725 C2726 1.396 . S
C2725 C2730 1.390 . S
C2726 C2720 1.465 . S
C2726 C2725 1.396 . S
C2726 C2727 1.399 . S
C2727 H2713 0.929 . S
C2727 C2726 1.399 . S
C2727 C2728 1.385 . S
C2728 H2714 0.931 . S
C2728 C2727 1.385 . S
C2728 C2729 1.389 . S
C2729 C2728 1.389 . S
C2729 C2730 1.387 . S
C2730 H2715 0.930 . S
C2730 C2725 1.390 . S
C2730 C2729 1.387 . S
H2731 C2743 0.930 . S
H2732 C2745 0.930 . S
H2733 C2746 0.930 . S
H2734 C2750 0.959 . S
H2735 C2750 0.959 . S
H2736 C2750 0.961 . S
H2737 C2751 0.960 . S
H2738 C2751 0.961 . S
H2739 C2751 0.959 . S
H2740 C2754 0.929 . S
H2741 C2755 0.931 . S
H2742 C2757 0.930 . S
C2743 H2731 0.930 . S
C2743 C2744 1.399 . S
C2743 C2748 1.399 . S
C2744 C2743 1.399 . S
C2744 C2745 1.376 . S
C2745 H2732 0.930 . S
C2745 C2744 1.376 . S
C2745 C2746 1.388 . S
C2746 H2733 0.930 . S
C2746 C2745 1.388 . S
C2746 C2747 1.390 . S
C2747 C2746 1.390 . S
C2747 C2748 1.394 . S
C2747 C2753 1.465 . S
C2748 C2743 1.399 . S
C2748 C2747 1.394 . S
C2748 C2749 1.516 . S
C2749 C2748 1.516 . S
C2749 C2750 1.502 . S
C2749 C2751 1.561 . S
C2749 C2752 1.526 . S
C2750 H2734 0.959 . S
C2750 H2735 0.959 . S
C2750 H2736 0.961 . S
C2750 C2749 1.502 . S
C2751 H2737 0.960 . S
C2751 H2738 0.961 . S
C2751 H2739 0.959 . S
C2751 C2749 1.561 . S
C2752 C2749 1.526 . S
C2752 C2753 1.396 . S
C2752 C2757 1.390 . S
C2753 C2747 1.465 . S
C2753 C2752 1.396 . S
C2753 C2754 1.399 . S
C2754 H2740 0.929 . S
C2754 C2753 1.399 . S
C2754 C2755 1.385 . S
C2755 H2741 0.931 . S
C2755 C2754 1.385 . S
C2755 C2756 1.389 . S
C2756 C2755 1.389 . S
C2756 C2757 1.387 . S
C2757 H2742 0.930 . S
C2757 C2752 1.390 . S
C2757 C2756 1.387 . S
H2758 C2770 0.930 . S
H2759 C2772 0.930 . S
H2760 C2773 0.930 . S
H2761 C2777 0.959 . S
H2762 C2777 0.959 . S
H2763 C2777 0.961 . S
H2764 C2778 0.960 . S
H2765 C2778 0.961 . S
H2766 C2778 0.959 . S
H2767 C2781 0.929 . S
H2768 C2782 0.931 . S
H2769 C2784 0.930 . S
C2770 H2758 0.930 . S
C2770 C2771 1.399 . S
C2770 C2775 1.399 . S
C2771 C2770 1.399 . S
C2771 C2772 1.376 . S
C2772 H2759 0.930 . S
C2772 C2771 1.376 . S
C2772 C2773 1.388 . S
C2773 H2760 0.930 . S
C2773 C2772 1.388 . S
C2773 C2774 1.390 . S
C2774 C2773 1.390 . S
C2774 C2775 1.394 . S
C2774 C2780 1.465 . S
C2775 C2770 1.399 . S
C2775 C2774 1.394 . S
C2775 C2776 1.516 . S
C2776 C2775 1.516 . S
C2776 C2777 1.502 . S
C2776 C2778 1.561 . S
C2776 C2779 1.526 . S
C2777 H2761 0.959 . S
C2777 H2762 0.959 . S
C2777 H2763 0.961 . S
C2777 C2776 1.502 . S
C2778 H2764 0.960 . S
C2778 H2765 0.961 . S
C2778 H2766 0.959 . S
C2778 C2776 1.561 . S
C2779 C2776 1.526 . S
C2779 C2780 1.396 . S
C2779 C2784 1.390 . S
C2780 C2774 1.465 . S
C2780 C2779 1.396 . S
C2780 C2781 1.399 . S
C2781 H2767 0.929 . S
C2781 C2780 1.399 . S
C2781 C2782 1.385 . S
C2782 H2768 0.931 . S
C2782 C2781 1.385 . S
C2782 C2783 1.389 . S
C2783 C2782 1.389 . S
C2783 C2784 1.387 . S
C2784 H2769 0.930 . S
C2784 C2779 1.390 . S
C2784 C2783 1.387 . S
H2785 C2797 0.930 1_556 S
H2786 C2799 0.930 . S
H2787 C2800 0.930 . S
H2788 C2804 0.959 1_554 S
H2789 C2804 0.959 . S
H2790 C2804 0.961 . S
H2791 C2805 0.960 . S
H2792 C2805 0.961 . S
H2793 C2805 0.959 . S
H2794 C2808 0.929 . S
H2795 C2809 0.931 . S
H2796 C2811 0.930 . S
C2797 H2785 0.930 1_554 S
C2797 C2798 1.399 . S
C2797 C2802 1.399 . S
C2798 C2797 1.399 . S
C2798 C2799 1.376 . S
C2799 H2786 0.930 . S
C2799 C2798 1.376 . S
C2799 C2800 1.388 . S
C2800 H2787 0.930 . S
C2800 C2799 1.388 . S
C2800 C2801 1.390 . S
C2801 C2800 1.390 . S
C2801 C2802 1.394 . S
C2801 C2807 1.465 . S
C2802 C2797 1.399 . S
C2802 C2801 1.394 . S
C2802 C2803 1.516 . S
C2803 C2802 1.516 . S
C2803 C2804 1.502 1_554 S
C2803 C2805 1.561 1_554 S
C2803 C2806 1.526 . S
C2804 H2788 0.959 1_556 S
C2804 H2789 0.959 . S
C2804 H2790 0.961 . S
C2804 C2803 1.502 1_556 S
C2805 H2791 0.960 . S
C2805 H2792 0.961 . S
C2805 H2793 0.959 . S
C2805 C2803 1.561 1_556 S
C2806 C2803 1.526 . S
C2806 C2807 1.396 . S
C2806 C2811 1.390 . S
C2807 C2801 1.465 . S
C2807 C2806 1.396 . S
C2807 C2808 1.399 . S
C2808 H2794 0.929 . S
C2808 C2807 1.399 . S
C2808 C2809 1.385 . S
C2809 H2795 0.931 . S
C2809 C2808 1.385 . S
C2809 C2810 1.389 . S
C2810 C2809 1.389 . S
C2810 C2811 1.387 . S
C2811 H2796 0.930 . S
C2811 C2806 1.390 . S
C2811 C2810 1.387 . S
H2812 C2824 0.930 . S
H2813 C2826 0.930 . S
H2814 C2827 0.930 . S
H2815 C2831 0.959 . S
H2816 C2831 0.959 . S
H2817 C2831 0.961 . S
H2818 C2832 0.960 . S
H2819 C2832 0.961 . S
H2820 C2832 0.959 . S
H2821 C2835 0.929 . S
H2822 C2836 0.931 . S
H2823 C2838 0.930 . S
C2824 H2812 0.930 . S
C2824 C2825 1.399 . S
C2824 C2829 1.399 . S
C2825 C2824 1.399 . S
C2825 C2826 1.376 . S
C2826 H2813 0.930 . S
C2826 C2825 1.376 . S
C2826 C2827 1.388 . S
C2827 H2814 0.930 . S
C2827 C2826 1.388 . S
C2827 C2828 1.390 . S
C2828 C2827 1.390 . S
C2828 C2829 1.394 . S
C2828 C2834 1.465 . S
C2829 C2824 1.399 . S
C2829 C2828 1.394 . S
C2829 C2830 1.516 . S
C2830 C2829 1.516 . S
C2830 C2831 1.502 . S
C2830 C2832 1.561 . S
C2830 C2833 1.526 . S
C2831 H2815 0.959 . S
C2831 H2816 0.959 . S
C2831 H2817 0.961 . S
C2831 C2830 1.502 . S
C2832 H2818 0.960 . S
C2832 H2819 0.961 . S
C2832 H2820 0.959 . S
C2832 C2830 1.561 . S
C2833 C2830 1.526 . S
C2833 C2834 1.396 . S
C2833 C2838 1.390 . S
C2834 C2828 1.465 . S
C2834 C2833 1.396 . S
C2834 C2835 1.399 . S
C2835 H2821 0.929 . S
C2835 C2834 1.399 . S
C2835 C2836 1.385 . S
C2836 H2822 0.931 . S
C2836 C2835 1.385 . S
C2836 C2837 1.389 . S
C2837 C2836 1.389 . S
C2837 C2838 1.387 . S
C2838 H2823 0.930 . S
C2838 C2833 1.390 . S
C2838 C2837 1.387 . S
H2839 C2851 0.930 . S
H2840 C2853 0.930 . S
H2841 C2854 0.930 . S
H2842 C2858 0.959 . S
H2843 C2858 0.959 . S
H2844 C2858 0.961 . S
H2845 C2859 0.960 . S
H2846 C2859 0.961 . S
H2847 C2859 0.959 . S
H2848 C2862 0.929 . S
H2849 C2863 0.931 . S
H2850 C2865 0.930 . S
C2851 H2839 0.930 . S
C2851 C2852 1.399 . S
C2851 C2856 1.399 . S
C2852 C2851 1.399 . S
C2852 C2853 1.376 . S
C2853 H2840 0.930 . S
C2853 C2852 1.376 . S
C2853 C2854 1.388 . S
C2854 H2841 0.930 . S
C2854 C2853 1.388 . S
C2854 C2855 1.390 . S
C2855 C2854 1.390 . S
C2855 C2856 1.394 . S
C2855 C2861 1.465 . S
C2856 C2851 1.399 . S
C2856 C2855 1.394 . S
C2856 C2857 1.516 . S
C2857 C2856 1.516 . S
C2857 C2858 1.502 . S
C2857 C2859 1.561 . S
C2857 C2860 1.526 . S
C2858 H2842 0.959 . S
C2858 H2843 0.959 . S
C2858 H2844 0.961 . S
C2858 C2857 1.502 . S
C2859 H2845 0.960 . S
C2859 H2846 0.961 . S
C2859 H2847 0.959 . S
C2859 C2857 1.561 . S
C2860 C2857 1.526 . S
C2860 C2861 1.396 . S
C2860 C2865 1.390 . S
C2861 C2855 1.465 . S
C2861 C2860 1.396 . S
C2861 C2862 1.399 . S
C2862 H2848 0.929 . S
C2862 C2861 1.399 . S
C2862 C2863 1.385 . S
C2863 H2849 0.931 . S
C2863 C2862 1.385 . S
C2863 C2864 1.389 . S
C2864 C2863 1.389 . S
C2864 C2865 1.387 . S
C2865 H2850 0.930 . S
C2865 C2860 1.390 . S
C2865 C2864 1.387 . S
H2866 C2878 0.930 . S
H2867 C2880 0.930 . S
H2868 C2881 0.930 . S
H2869 C2885 0.959 . S
H2870 C2885 0.959 . S
H2871 C2885 0.961 . S
H2872 C2886 0.960 . S
H2873 C2886 0.961 . S
H2874 C2886 0.959 . S
H2875 C2889 0.929 . S
H2876 C2890 0.931 . S
H2877 C2892 0.930 . S
C2878 H2866 0.930 . S
C2878 C2879 1.399 . S
C2878 C2883 1.399 . S
C2879 C2878 1.399 . S
C2879 C2880 1.376 . S
C2880 H2867 0.930 . S
C2880 C2879 1.376 . S
C2880 C2881 1.388 . S
C2881 H2868 0.930 . S
C2881 C2880 1.388 . S
C2881 C2882 1.390 . S
C2882 C2881 1.390 . S
C2882 C2883 1.394 . S
C2882 C2888 1.465 . S
C2883 C2878 1.399 . S
C2883 C2882 1.394 . S
C2883 C2884 1.516 . S
C2884 C2883 1.516 . S
C2884 C2885 1.502 . S
C2884 C2886 1.561 . S
C2884 C2887 1.526 . S
C2885 H2869 0.959 . S
C2885 H2870 0.959 . S
C2885 H2871 0.961 . S
C2885 C2884 1.502 . S
C2886 H2872 0.960 . S
C2886 H2873 0.961 . S
C2886 H2874 0.959 . S
C2886 C2884 1.561 . S
C2887 C2884 1.526 . S
C2887 C2888 1.396 . S
C2887 C2892 1.390 . S
C2888 C2882 1.465 . S
C2888 C2887 1.396 . S
C2888 C2889 1.399 . S
C2889 H2875 0.929 . S
C2889 C2888 1.399 . S
C2889 C2890 1.385 . S
C2890 H2876 0.931 . S
C2890 C2889 1.385 . S
C2890 C2891 1.389 . S
C2891 C2890 1.389 . S
C2891 C2892 1.387 . S
C2892 H2877 0.930 . S
C2892 C2887 1.390 . S
C2892 C2891 1.387 . S
H2893 C2905 0.930 . S
H2894 C2907 0.930 . S
H2895 C2908 0.930 . S
H2896 C2912 0.959 . S
H2897 C2912 0.959 . S
H2898 C2912 0.961 . S
H2899 C2913 0.960 . S
H2900 C2913 0.961 . S
H2901 C2913 0.959 . S
H2902 C2916 0.929 . S
H2903 C2917 0.931 . S
H2904 C2919 0.930 . S
C2905 H2893 0.930 . S
C2905 C2906 1.399 . S
C2905 C2910 1.399 . S
C2906 C2905 1.399 . S
C2906 C2907 1.376 . S
C2907 H2894 0.930 . S
C2907 C2906 1.376 . S
C2907 C2908 1.388 . S
C2908 H2895 0.930 . S
C2908 C2907 1.388 . S
C2908 C2909 1.390 . S
C2909 C2908 1.390 . S
C2909 C2910 1.394 . S
C2909 C2915 1.465 . S
C2910 C2905 1.399 . S
C2910 C2909 1.394 . S
C2910 C2911 1.516 . S
C2911 C2910 1.516 . S
C2911 C2912 1.502 . S
C2911 C2913 1.561 . S
C2911 C2914 1.526 . S
C2912 H2896 0.959 . S
C2912 H2897 0.959 . S
C2912 H2898 0.961 . S
C2912 C2911 1.502 . S
C2913 H2899 0.960 . S
C2913 H2900 0.961 . S
C2913 H2901 0.959 . S
C2913 C2911 1.561 . S
C2914 C2911 1.526 . S
C2914 C2915 1.396 . S
C2914 C2919 1.390 . S
C2915 C2909 1.465 . S
C2915 C2914 1.396 . S
C2915 C2916 1.399 . S
C2916 H2902 0.929 . S
C2916 C2915 1.399 . S
C2916 C2917 1.385 . S
C2917 H2903 0.931 . S
C2917 C2916 1.385 . S
C2917 C2918 1.389 . S
C2918 C2917 1.389 . S
C2918 C2919 1.387 . S
C2919 H2904 0.930 . S
C2919 C2914 1.390 . S
C2919 C2918 1.387 . S
H2920 C2932 0.930 . S
H2921 C2934 0.930 . S
H2922 C2935 0.930 . S
H2923 C2939 0.959 . S
H2924 C2939 0.959 . S
H2925 C2939 0.961 . S
H2926 C2940 0.960 . S
H2927 C2940 0.961 . S
H2928 C2940 0.959 . S
H2929 C2943 0.929 . S
H2930 C2944 0.931 . S
H2931 C2946 0.930 . S
C2932 H2920 0.930 . S
C2932 C2933 1.399 . S
C2932 C2937 1.399 . S
C2933 C2932 1.399 . S
C2933 C2934 1.376 . S
C2934 H2921 0.930 . S
C2934 C2933 1.376 . S
C2934 C2935 1.388 . S
C2935 H2922 0.930 . S
C2935 C2934 1.388 . S
C2935 C2936 1.390 . S
C2936 C2935 1.390 . S
C2936 C2937 1.394 . S
C2936 C2942 1.465 . S
C2937 C2932 1.399 . S
C2937 C2936 1.394 . S
C2937 C2938 1.516 . S
C2938 C2937 1.516 . S
C2938 C2939 1.502 . S
C2938 C2940 1.561 . S
C2938 C2941 1.526 . S
C2939 H2923 0.959 . S
C2939 H2924 0.959 . S
C2939 H2925 0.961 . S
C2939 C2938 1.502 . S
C2940 H2926 0.960 . S
C2940 H2927 0.961 . S
C2940 H2928 0.959 . S
C2940 C2938 1.561 . S
C2941 C2938 1.526 . S
C2941 C2942 1.396 . S
C2941 C2946 1.390 . S
C2942 C2936 1.465 . S
C2942 C2941 1.396 . S
C2942 C2943 1.399 . S
C2943 H2929 0.929 . S
C2943 C2942 1.399 . S
C2943 C2944 1.385 . S
C2944 H2930 0.931 . S
C2944 C2943 1.385 . S
C2944 C2945 1.389 . S
C2945 C2944 1.389 . S
C2945 C2946 1.387 . S
C2946 H2931 0.930 . S
C2946 C2941 1.390 . S
C2946 C2945 1.387 . S
H2947 C2959 0.930 . S
H2948 C2961 0.930 . S
H2949 C2962 0.930 . S
H2950 C2966 0.959 . S
H2951 C2966 0.959 . S
H2952 C2966 0.961 . S
H2953 C2967 0.960 . S
H2954 C2967 0.961 . S
H2955 C2967 0.959 . S
H2956 C2970 0.929 . S
H2957 C2971 0.931 . S
H2958 C2973 0.930 . S
C2959 H2947 0.930 . S
C2959 C2960 1.399 . S
C2959 C2964 1.399 . S
C2960 C2959 1.399 . S
C2960 C2961 1.376 . S
C2961 H2948 0.930 . S
C2961 C2960 1.376 . S
C2961 C2962 1.388 . S
C2962 H2949 0.930 . S
C2962 C2961 1.388 . S
C2962 C2963 1.390 . S
C2963 C2962 1.390 . S
C2963 C2964 1.394 . S
C2963 C2969 1.465 . S
C2964 C2959 1.399 . S
C2964 C2963 1.394 . S
C2964 C2965 1.516 . S
C2965 C2964 1.516 . S
C2965 C2966 1.502 . S
C2965 C2967 1.561 . S
C2965 C2968 1.526 . S
C2966 H2950 0.959 . S
C2966 H2951 0.959 . S
C2966 H2952 0.961 . S
C2966 C2965 1.502 . S
C2967 H2953 0.960 . S
C2967 H2954 0.961 . S
C2967 H2955 0.959 . S
C2967 C2965 1.561 . S
C2968 C2965 1.526 . S
C2968 C2969 1.396 . S
C2968 C2973 1.390 . S
C2969 C2963 1.465 . S
C2969 C2968 1.396 . S
C2969 C2970 1.399 . S
C2970 H2956 0.929 . S
C2970 C2969 1.399 . S
C2970 C2971 1.385 . S
C2971 H2957 0.931 . S
C2971 C2970 1.385 . S
C2971 C2972 1.389 . S
C2972 C2971 1.389 . S
C2972 C2973 1.387 . S
C2973 H2958 0.930 . S
C2973 C2968 1.390 . S
C2973 C2972 1.387 . S
H2974 C2986 0.930 . S
H2975 C2988 0.930 . S
H2976 C2989 0.930 . S
H2977 C2993 0.959 . S
H2978 C2993 0.959 . S
H2979 C2993 0.961 . S
H2980 C2994 0.960 . S
H2981 C2994 0.961 . S
H2982 C2994 0.959 . S
H2983 C2997 0.929 . S
H2984 C2998 0.931 . S
H2985 C3000 0.930 . S
C2986 H2974 0.930 . S
C2986 C2987 1.399 . S
C2986 C2991 1.399 . S
C2987 C2986 1.399 . S
C2987 C2988 1.376 . S
C2988 H2975 0.930 . S
C2988 C2987 1.376 . S
C2988 C2989 1.388 . S
C2989 H2976 0.930 . S
C2989 C2988 1.388 . S
C2989 C2990 1.390 . S
C2990 C2989 1.390 . S
C2990 C2991 1.394 . S
C2990 C2996 1.465 . S
C2991 C2986 1.399 . S
C2991 C2990 1.394 . S
C2991 C2992 1.516 . S
C2992 C2991 1.516 . S
C2992 C2993 1.502 . S
C2992 C2994 1.561 . S
C2992 C2995 1.526 . S
C2993 H2977 0.959 . S
C2993 H2978 0.959 . S
C2993 H2979 0.961 . S
C2993 C2992 1.502 . S
C2994 H2980 0.960 . S
C2994 H2981 0.961 . S
C2994 H2982 0.959 . S
C2994 C2992 1.561 . S
C2995 C2992 1.526 . S
C2995 C2996 1.396 . S
C2995 C3000 1.390 . S
C2996 C2990 1.465 . S
C2996 C2995 1.396 . S
C2996 C2997 1.399 . S
C2997 H2983 0.929 . S
C2997 C2996 1.399 . S
C2997 C2998 1.385 . S
C2998 H2984 0.931 . S
C2998 C2997 1.385 . S
C2998 C2999 1.389 . S
C2999 C2998 1.389 . S
C2999 C3000 1.387 . S
C3000 H2985 0.930 . S
C3000 C2995 1.390 . S
C3000 C2999 1.387 . S
H3001 C3013 0.930 . S
H3002 C3015 0.930 . S
H3003 C3016 0.930 . S
H3004 C3020 0.959 . S
H3005 C3020 0.959 . S
H3006 C3020 0.961 . S
H3007 C3021 0.960 . S
H3008 C3021 0.961 . S
H3009 C3021 0.959 . S
H3010 C3024 0.929 . S
H3011 C3025 0.931 . S
H3012 C3027 0.930 . S
C3013 H3001 0.930 . S
C3013 C3014 1.399 . S
C3013 C3018 1.399 . S
C3014 C3013 1.399 . S
C3014 C3015 1.376 . S
C3015 H3002 0.930 . S
C3015 C3014 1.376 . S
C3015 C3016 1.388 . S
C3016 H3003 0.930 . S
C3016 C3015 1.388 . S
C3016 C3017 1.390 . S
C3017 C3016 1.390 . S
C3017 C3018 1.394 . S
C3017 C3023 1.465 . S
C3018 C3013 1.399 . S
C3018 C3017 1.394 . S
C3018 C3019 1.516 . S
C3019 C3018 1.516 . S
C3019 C3020 1.502 . S
C3019 C3021 1.561 . S
C3019 C3022 1.526 . S
C3020 H3004 0.959 . S
C3020 H3005 0.959 . S
C3020 H3006 0.961 . S
C3020 C3019 1.502 . S
C3021 H3007 0.960 . S
C3021 H3008 0.961 . S
C3021 H3009 0.959 . S
C3021 C3019 1.561 . S
C3022 C3019 1.526 . S
C3022 C3023 1.396 . S
C3022 C3027 1.390 . S
C3023 C3017 1.465 . S
C3023 C3022 1.396 . S
C3023 C3024 1.399 . S
C3024 H3010 0.929 . S
C3024 C3023 1.399 . S
C3024 C3025 1.385 . S
C3025 H3011 0.931 . S
C3025 C3024 1.385 . S
C3025 C3026 1.389 . S
C3026 C3025 1.389 . S
C3026 C3027 1.387 . S
C3027 H3012 0.930 . S
C3027 C3022 1.390 . S
C3027 C3026 1.387 . S
H3028 C3040 0.930 . S
H3029 C3042 0.930 . S
H3030 C3043 0.930 . S
H3031 C3047 0.959 . S
H3032 C3047 0.959 . S
H3033 C3047 0.961 . S
H3034 C3048 0.960 . S
H3035 C3048 0.961 . S
H3036 C3048 0.959 . S
H3037 C3051 0.929 . S
H3038 C3052 0.931 . S
H3039 C3054 0.930 1_554 S
C3040 H3028 0.930 . S
C3040 C3041 1.399 . S
C3040 C3045 1.399 . S
C3041 C3040 1.399 . S
C3041 C3042 1.376 . S
C3042 H3029 0.930 . S
C3042 C3041 1.376 . S
C3042 C3043 1.388 . S
C3043 H3030 0.930 . S
C3043 C3042 1.388 . S
C3043 C3044 1.390 . S
C3044 C3043 1.390 . S
C3044 C3045 1.394 . S
C3044 C3050 1.465 . S
C3045 C3040 1.399 . S
C3045 C3044 1.394 . S
C3045 C3046 1.516 . S
C3046 C3045 1.516 . S
C3046 C3047 1.502 1_556 S
C3046 C3048 1.561 . S
C3046 C3049 1.526 . S
C3047 H3031 0.959 . S
C3047 H3032 0.959 . S
C3047 H3033 0.961 . S
C3047 C3046 1.502 1_554 S
C3048 H3034 0.960 . S
C3048 H3035 0.961 . S
C3048 H3036 0.959 . S
C3048 C3046 1.561 . S
C3049 C3046 1.526 . S
C3049 C3050 1.396 . S
C3049 C3054 1.390 . S
C3050 C3044 1.465 . S
C3050 C3049 1.396 . S
C3050 C3051 1.399 . S
C3051 H3037 0.929 . S
C3051 C3050 1.399 . S
C3051 C3052 1.385 . S
C3052 H3038 0.931 . S
C3052 C3051 1.385 . S
C3052 C3053 1.389 . S
C3053 C3052 1.389 . S
C3053 C3054 1.387 . S
C3054 H3039 0.930 1_556 S
C3054 C3049 1.390 . S
C3054 C3053 1.387 . S
H3055 C3067 0.930 . S
H3056 C3069 0.930 . S
H3057 C3070 0.930 . S
H3058 C3074 0.959 . S
H3059 C3074 0.959 . S
H3060 C3074 0.961 . S
H3061 C3075 0.960 . S
H3062 C3075 0.961 . S
H3063 C3075 0.959 . S
H3064 C3078 0.929 . S
H3065 C3079 0.931 . S
H3066 C3081 0.930 . S
C3067 H3055 0.930 . S
C3067 C3068 1.399 . S
C3067 C3072 1.399 . S
C3068 C3067 1.399 . S
C3068 C3069 1.376 . S
C3069 H3056 0.930 . S
C3069 C3068 1.376 . S
C3069 C3070 1.388 . S
C3070 H3057 0.930 . S
C3070 C3069 1.388 . S
C3070 C3071 1.390 . S
C3071 C3070 1.390 . S
C3071 C3072 1.394 . S
C3071 C3077 1.465 . S
C3072 C3067 1.399 . S
C3072 C3071 1.394 . S
C3072 C3073 1.516 . S
C3073 C3072 1.516 . S
C3073 C3074 1.502 . S
C3073 C3075 1.561 . S
C3073 C3076 1.526 . S
C3074 H3058 0.959 . S
C3074 H3059 0.959 . S
C3074 H3060 0.961 . S
C3074 C3073 1.502 . S
C3075 H3061 0.960 . S
C3075 H3062 0.961 . S
C3075 H3063 0.959 . S
C3075 C3073 1.561 . S
C3076 C3073 1.526 . S
C3076 C3077 1.396 . S
C3076 C3081 1.390 . S
C3077 C3071 1.465 . S
C3077 C3076 1.396 . S
C3077 C3078 1.399 . S
C3078 H3064 0.929 . S
C3078 C3077 1.399 . S
C3078 C3079 1.385 . S
C3079 H3065 0.931 . S
C3079 C3078 1.385 . S
C3079 C3080 1.389 . S
C3080 C3079 1.389 . S
C3080 C3081 1.387 . S
C3081 H3066 0.930 . S
C3081 C3076 1.390 . S
C3081 C3080 1.387 . S
H3082 C3094 0.930 . S
H3083 C3096 0.930 . S
H3084 C3097 0.930 . S
H3085 C3101 0.959 . S
H3086 C3101 0.959 . S
H3087 C3101 0.961 . S
H3088 C3102 0.960 . S
H3089 C3102 0.961 . S
H3090 C3102 0.959 . S
H3091 C3105 0.929 1_655 S
H3092 C3106 0.931 . S
H3093 C3108 0.930 . S
C3094 H3082 0.930 . S
C3094 C3095 1.399 . S
C3094 C3099 1.399 . S
C3095 C3094 1.399 . S
C3095 C3096 1.376 1_455 S
C3096 H3083 0.930 . S
C3096 C3095 1.376 1_655 S
C3096 C3097 1.388 . S
C3097 H3084 0.930 . S
C3097 C3096 1.388 . S
C3097 C3098 1.390 1_655 S
C3098 C3097 1.390 1_455 S
C3098 C3099 1.394 . S
C3098 C3104 1.465 . S
C3099 C3094 1.399 . S
C3099 C3098 1.394 . S
C3099 C3100 1.516 . S
C3100 C3099 1.516 . S
C3100 C3101 1.502 . S
C3100 C3102 1.561 . S
C3100 C3103 1.526 . S
C3101 H3085 0.959 . S
C3101 H3086 0.959 . S
C3101 H3087 0.961 . S
C3101 C3100 1.502 . S
C3102 H3088 0.960 . S
C3102 H3089 0.961 . S
C3102 H3090 0.959 . S
C3102 C3100 1.561 . S
C3103 C3100 1.526 . S
C3103 C3104 1.396 . S
C3103 C3108 1.390 . S
C3104 C3098 1.465 . S
C3104 C3103 1.396 . S
C3104 C3105 1.399 . S
C3105 H3091 0.929 1_455 S
C3105 C3104 1.399 . S
C3105 C3106 1.385 . S
C3106 H3092 0.931 . S
C3106 C3105 1.385 . S
C3106 C3107 1.389 . S
C3107 C3106 1.389 . S
C3107 C3108 1.387 . S
C3108 H3093 0.930 . S
C3108 C3103 1.390 . S
C3108 C3107 1.387 . S
H3109 C3121 0.930 . S
H3110 C3123 0.930 . S
H3111 C3124 0.930 . S
H3112 C3128 0.959 . S
H3113 C3128 0.959 . S
H3114 C3128 0.961 . S
H3115 C3129 0.960 . S
H3116 C3129 0.961 . S
H3117 C3129 0.959 . S
H3118 C3132 0.929 . S
H3119 C3133 0.931 . S
H3120 C3135 0.930 . S
C3121 H3109 0.930 . S
C3121 C3122 1.399 . S
C3121 C3126 1.399 . S
C3122 C3121 1.399 . S
C3122 C3123 1.376 . S
C3123 H3110 0.930 . S
C3123 C3122 1.376 . S
C3123 C3124 1.388 . S
C3124 H3111 0.930 . S
C3124 C3123 1.388 . S
C3124 C3125 1.390 . S
C3125 C3124 1.390 . S
C3125 C3126 1.394 . S
C3125 C3131 1.465 . S
C3126 C3121 1.399 . S
C3126 C3125 1.394 . S
C3126 C3127 1.516 . S
C3127 C3126 1.516 . S
C3127 C3128 1.502 . S
C3127 C3129 1.561 . S
C3127 C3130 1.526 . S
C3128 H3112 0.959 . S
C3128 H3113 0.959 . S
C3128 H3114 0.961 . S
C3128 C3127 1.502 . S
C3129 H3115 0.960 . S
C3129 H3116 0.961 . S
C3129 H3117 0.959 . S
C3129 C3127 1.561 . S
C3130 C3127 1.526 . S
C3130 C3131 1.396 . S
C3130 C3135 1.390 . S
C3131 C3125 1.465 . S
C3131 C3130 1.396 . S
C3131 C3132 1.399 . S
C3132 H3118 0.929 . S
C3132 C3131 1.399 . S
C3132 C3133 1.385 . S
C3133 H3119 0.931 . S
C3133 C3132 1.385 . S
C3133 C3134 1.389 . S
C3134 C3133 1.389 . S
C3134 C3135 1.387 . S
C3135 H3120 0.930 . S
C3135 C3130 1.390 . S
C3135 C3134 1.387 . S
H3136 C3148 0.930 . S
H3137 C3150 0.930 . S
H3138 C3151 0.930 . S
H3139 C3155 0.959 . S
H3140 C3155 0.959 . S
H3141 C3155 0.961 . S
H3142 C3156 0.960 . S
H3143 C3156 0.961 . S
H3144 C3156 0.959 . S
H3145 C3159 0.929 . S
H3146 C3160 0.931 . S
H3147 C3162 0.930 . S
C3148 H3136 0.930 . S
C3148 C3149 1.399 . S
C3148 C3153 1.399 . S
C3149 C3148 1.399 . S
C3149 C3150 1.376 . S
C3150 H3137 0.930 . S
C3150 C3149 1.376 . S
C3150 C3151 1.388 . S
C3151 H3138 0.930 . S
C3151 C3150 1.388 . S
C3151 C3152 1.390 . S
C3152 C3151 1.390 . S
C3152 C3153 1.394 . S
C3152 C3158 1.465 . S
C3153 C3148 1.399 . S
C3153 C3152 1.394 . S
C3153 C3154 1.516 . S
C3154 C3153 1.516 . S
C3154 C3155 1.502 . S
C3154 C3156 1.561 . S
C3154 C3157 1.526 . S
C3155 H3139 0.959 . S
C3155 H3140 0.959 . S
C3155 H3141 0.961 . S
C3155 C3154 1.502 . S
C3156 H3142 0.960 . S
C3156 H3143 0.961 . S
C3156 H3144 0.959 . S
C3156 C3154 1.561 . S
C3157 C3154 1.526 . S
C3157 C3158 1.396 . S
C3157 C3162 1.390 . S
C3158 C3152 1.465 . S
C3158 C3157 1.396 . S
C3158 C3159 1.399 . S
C3159 H3145 0.929 . S
C3159 C3158 1.399 . S
C3159 C3160 1.385 . S
C3160 H3146 0.931 . S
C3160 C3159 1.385 . S
C3160 C3161 1.389 . S
C3161 C3160 1.389 . S
C3161 C3162 1.387 . S
C3162 H3147 0.930 . S
C3162 C3157 1.390 . S
C3162 C3161 1.387 . S
H3163 C3175 0.930 . S
H3164 C3177 0.930 . S
H3165 C3178 0.930 . S
H3166 C3182 0.959 . S
H3167 C3182 0.959 . S
H3168 C3182 0.961 . S
H3169 C3183 0.960 . S
H3170 C3183 0.961 . S
H3171 C3183 0.959 . S
H3172 C3186 0.929 . S
H3173 C3187 0.931 . S
H3174 C3189 0.930 . S
C3175 H3163 0.930 . S
C3175 C3176 1.399 . S
C3175 C3180 1.399 . S
C3176 C3175 1.399 . S
C3176 C3177 1.376 . S
C3177 H3164 0.930 . S
C3177 C3176 1.376 . S
C3177 C3178 1.388 . S
C3178 H3165 0.930 . S
C3178 C3177 1.388 . S
C3178 C3179 1.390 . S
C3179 C3178 1.390 . S
C3179 C3180 1.394 . S
C3179 C3185 1.465 . S
C3180 C3175 1.399 . S
C3180 C3179 1.394 . S
C3180 C3181 1.516 . S
C3181 C3180 1.516 . S
C3181 C3182 1.502 . S
C3181 C3183 1.561 . S
C3181 C3184 1.526 . S
C3182 H3166 0.959 . S
C3182 H3167 0.959 . S
C3182 H3168 0.961 . S
C3182 C3181 1.502 . S
C3183 H3169 0.960 . S
C3183 H3170 0.961 . S
C3183 H3171 0.959 . S
C3183 C3181 1.561 . S
C3184 C3181 1.526 . S
C3184 C3185 1.396 . S
C3184 C3189 1.390 . S
C3185 C3179 1.465 . S
C3185 C3184 1.396 . S
C3185 C3186 1.399 . S
C3186 H3172 0.929 . S
C3186 C3185 1.399 . S
C3186 C3187 1.385 . S
C3187 H3173 0.931 . S
C3187 C3186 1.385 . S
C3187 C3188 1.389 . S
C3188 C3187 1.389 . S
C3188 C3189 1.387 . S
C3189 H3174 0.930 . S
C3189 C3184 1.390 . S
C3189 C3188 1.387 . S
H3190 C3202 0.930 . S
H3191 C3204 0.930 . S
H3192 C3205 0.930 . S
H3193 C3209 0.959 . S
H3194 C3209 0.959 . S
H3195 C3209 0.961 . S
H3196 C3210 0.960 . S
H3197 C3210 0.961 . S
H3198 C3210 0.959 . S
H3199 C3213 0.929 . S
H3200 C3214 0.931 1_554 S
H3201 C3216 0.930 . S
C3202 H3190 0.930 . S
C3202 C3203 1.399 . S
C3202 C3207 1.399 . S
C3203 C3202 1.399 . S
C3203 C3204 1.376 . S
C3204 H3191 0.930 . S
C3204 C3203 1.376 . S
C3204 C3205 1.388 . S
C3205 H3192 0.930 . S
C3205 C3204 1.388 . S
C3205 C3206 1.390 . S
C3206 C3205 1.390 . S
C3206 C3207 1.394 . S
C3206 C3212 1.465 . S
C3207 C3202 1.399 . S
C3207 C3206 1.394 . S
C3207 C3208 1.516 . S
C3208 C3207 1.516 . S
C3208 C3209 1.502 . S
C3208 C3210 1.561 . S
C3208 C3211 1.526 . S
C3209 H3193 0.959 . S
C3209 H3194 0.959 . S
C3209 H3195 0.961 . S
C3209 C3208 1.502 . S
C3210 H3196 0.960 . S
C3210 H3197 0.961 . S
C3210 H3198 0.959 . S
C3210 C3208 1.561 . S
C3211 C3208 1.526 . S
C3211 C3212 1.396 . S
C3211 C3216 1.390 . S
C3212 C3206 1.465 . S
C3212 C3211 1.396 . S
C3212 C3213 1.399 1_655 S
C3213 H3199 0.929 . S
C3213 C3212 1.399 1_455 S
C3213 C3214 1.385 . S
C3214 H3200 0.931 1_556 S
C3214 C3213 1.385 . S
C3214 C3215 1.389 . S
C3215 C3214 1.389 . S
C3215 C3216 1.387 1_455 S
C3216 H3201 0.930 . S
C3216 C3211 1.390 . S
C3216 C3215 1.387 1_655 S
H3217 C3229 0.930 . S
H3218 C3231 0.930 . S
H3219 C3232 0.930 . S
H3220 C3236 0.959 . S
H3221 C3236 0.959 . S
H3222 C3236 0.961 . S
H3223 C3237 0.960 . S
H3224 C3237 0.961 . S
H3225 C3237 0.959 . S
H3226 C3240 0.929 . S
H3227 C3241 0.931 . S
H3228 C3243 0.930 . S
C3229 H3217 0.930 . S
C3229 C3230 1.399 . S
C3229 C3234 1.399 . S
C3230 C3229 1.399 . S
C3230 C3231 1.376 . S
C3231 H3218 0.930 . S
C3231 C3230 1.376 . S
C3231 C3232 1.388 . S
C3232 H3219 0.930 . S
C3232 C3231 1.388 . S
C3232 C3233 1.390 . S
C3233 C3232 1.390 . S
C3233 C3234 1.394 . S
C3233 C3239 1.465 . S
C3234 C3229 1.399 . S
C3234 C3233 1.394 . S
C3234 C3235 1.516 . S
C3235 C3234 1.516 . S
C3235 C3236 1.502 . S
C3235 C3237 1.561 . S
C3235 C3238 1.526 . S
C3236 H3220 0.959 . S
C3236 H3221 0.959 . S
C3236 H3222 0.961 . S
C3236 C3235 1.502 . S
C3237 H3223 0.960 . S
C3237 H3224 0.961 . S
C3237 H3225 0.959 . S
C3237 C3235 1.561 . S
C3238 C3235 1.526 . S
C3238 C3239 1.396 . S
C3238 C3243 1.390 . S
C3239 C3233 1.465 . S
C3239 C3238 1.396 . S
C3239 C3240 1.399 . S
C3240 H3226 0.929 . S
C3240 C3239 1.399 . S
C3240 C3241 1.385 . S
C3241 H3227 0.931 . S
C3241 C3240 1.385 . S
C3241 C3242 1.389 . S
C3242 C3241 1.389 . S
C3242 C3243 1.387 . S
C3243 H3228 0.930 . S
C3243 C3238 1.390 . S
C3243 C3242 1.387 . S
H3244 C3256 0.930 . S
H3245 C3258 0.930 . S
H3246 C3259 0.930 . S
H3247 C3263 0.959 . S
H3248 C3263 0.959 . S
H3249 C3263 0.961 . S
H3250 C3264 0.960 . S
H3251 C3264 0.961 . S
H3252 C3264 0.959 . S
H3253 C3267 0.929 . S
H3254 C3268 0.931 . S
H3255 C3270 0.930 . S
C3256 H3244 0.930 . S
C3256 C3257 1.399 . S
C3256 C3261 1.399 . S
C3257 C3256 1.399 . S
C3257 C3258 1.376 . S
C3258 H3245 0.930 . S
C3258 C3257 1.376 . S
C3258 C3259 1.388 . S
C3259 H3246 0.930 . S
C3259 C3258 1.388 . S
C3259 C3260 1.390 . S
C3260 C3259 1.390 . S
C3260 C3261 1.394 . S
C3260 C3266 1.465 . S
C3261 C3256 1.399 . S
C3261 C3260 1.394 . S
C3261 C3262 1.516 . S
C3262 C3261 1.516 . S
C3262 C3263 1.502 . S
C3262 C3264 1.561 . S
C3262 C3265 1.526 . S
C3263 H3247 0.959 . S
C3263 H3248 0.959 . S
C3263 H3249 0.961 . S
C3263 C3262 1.502 . S
C3264 H3250 0.960 . S
C3264 H3251 0.961 . S
C3264 H3252 0.959 . S
C3264 C3262 1.561 . S
C3265 C3262 1.526 . S
C3265 C3266 1.396 . S
C3265 C3270 1.390 . S
C3266 C3260 1.465 . S
C3266 C3265 1.396 . S
C3266 C3267 1.399 . S
C3267 H3253 0.929 . S
C3267 C3266 1.399 . S
C3267 C3268 1.385 . S
C3268 H3254 0.931 . S
C3268 C3267 1.385 . S
C3268 C3269 1.389 . S
C3269 C3268 1.389 . S
C3269 C3270 1.387 . S
C3270 H3255 0.930 . S
C3270 C3265 1.390 . S
C3270 C3269 1.387 . S
H3271 C3283 0.930 . S
H3272 C3285 0.930 . S
H3273 C3286 0.930 . S
H3274 C3290 0.959 . S
H3275 C3290 0.959 . S
H3276 C3290 0.961 . S
H3277 C3291 0.960 . S
H3278 C3291 0.961 . S
H3279 C3291 0.959 . S
H3280 C3294 0.929 . S
H3281 C3295 0.931 . S
H3282 C3297 0.930 . S
C3283 H3271 0.930 . S
C3283 C3284 1.399 . S
C3283 C3288 1.399 . S
C3284 C3283 1.399 . S
C3284 C3285 1.376 . S
C3285 H3272 0.930 . S
C3285 C3284 1.376 . S
C3285 C3286 1.388 . S
C3286 H3273 0.930 . S
C3286 C3285 1.388 . S
C3286 C3287 1.390 . S
C3287 C3286 1.390 . S
C3287 C3288 1.394 . S
C3287 C3293 1.465 . S
C3288 C3283 1.399 . S
C3288 C3287 1.394 . S
C3288 C3289 1.516 . S
C3289 C3288 1.516 . S
C3289 C3290 1.502 . S
C3289 C3291 1.561 . S
C3289 C3292 1.526 . S
C3290 H3274 0.959 . S
C3290 H3275 0.959 . S
C3290 H3276 0.961 . S
C3290 C3289 1.502 . S
C3291 H3277 0.960 . S
C3291 H3278 0.961 . S
C3291 H3279 0.959 . S
C3291 C3289 1.561 . S
C3292 C3289 1.526 . S
C3292 C3293 1.396 . S
C3292 C3297 1.390 . S
C3293 C3287 1.465 . S
C3293 C3292 1.396 . S
C3293 C3294 1.399 . S
C3294 H3280 0.929 . S
C3294 C3293 1.399 . S
C3294 C3295 1.385 . S
C3295 H3281 0.931 . S
C3295 C3294 1.385 . S
C3295 C3296 1.389 . S
C3296 C3295 1.389 . S
C3296 C3297 1.387 . S
C3297 H3282 0.930 . S
C3297 C3292 1.390 . S
C3297 C3296 1.387 . S
H3298 C3310 0.930 . S
H3299 C3312 0.930 . S
H3300 C3313 0.930 . S
H3301 C3317 0.959 . S
H3302 C3317 0.959 1_455 S
H3303 C3317 0.961 . S
H3304 C3318 0.960 . S
H3305 C3318 0.961 1_455 S
H3306 C3318 0.959 . S
H3307 C3321 0.929 . S
H3308 C3322 0.931 . S
H3309 C3324 0.930 1_455 S
C3310 H3298 0.930 . S
C3310 C3311 1.399 . S
C3310 C3315 1.399 . S
C3311 C3310 1.399 . S
C3311 C3312 1.376 . S
C3312 H3299 0.930 . S
C3312 C3311 1.376 . S
C3312 C3313 1.388 . S
C3313 H3300 0.930 . S
C3313 C3312 1.388 . S
C3313 C3314 1.390 . S
C3314 C3313 1.390 . S
C3314 C3315 1.394 . S
C3314 C3320 1.465 . S
C3315 C3310 1.399 . S
C3315 C3314 1.394 . S
C3315 C3316 1.516 . S
C3316 C3315 1.516 . S
C3316 C3317 1.502 . S
C3316 C3318 1.561 . S
C3316 C3319 1.526 . S
C3317 H3301 0.959 . S
C3317 H3302 0.959 1_655 S
C3317 H3303 0.961 . S
C3317 C3316 1.502 . S
C3318 H3304 0.960 . S
C3318 H3305 0.961 1_655 S
C3318 H3306 0.959 . S
C3318 C3316 1.561 . S
C3319 C3316 1.526 . S
C3319 C3320 1.396 . S
C3319 C3324 1.390 . S
C3320 C3314 1.465 . S
C3320 C3319 1.396 . S
C3320 C3321 1.399 . S
C3321 H3307 0.929 . S
C3321 C3320 1.399 . S
C3321 C3322 1.385 . S
C3322 H3308 0.931 . S
C3322 C3321 1.385 . S
C3322 C3323 1.389 . S
C3323 C3322 1.389 . S
C3323 C3324 1.387 . S
C3324 H3309 0.930 1_655 S
C3324 C3319 1.390 . S
C3324 C3323 1.387 . S
H3325 C3337 0.930 . S
H3326 C3339 0.930 . S
H3327 C3340 0.930 . S
H3328 C3344 0.959 . S
H3329 C3344 0.959 . S
H3330 C3344 0.961 . S
H3331 C3345 0.960 . S
H3332 C3345 0.961 . S
H3333 C3345 0.959 . S
H3334 C3348 0.929 . S
H3335 C3349 0.931 . S
H3336 C3351 0.930 . S
C3337 H3325 0.930 . S
C3337 C3338 1.399 . S
C3337 C3342 1.399 . S
C3338 C3337 1.399 . S
C3338 C3339 1.376 . S
C3339 H3326 0.930 . S
C3339 C3338 1.376 . S
C3339 C3340 1.388 . S
C3340 H3327 0.930 . S
C3340 C3339 1.388 . S
C3340 C3341 1.390 . S
C3341 C3340 1.390 . S
C3341 C3342 1.394 . S
C3341 C3347 1.465 . S
C3342 C3337 1.399 . S
C3342 C3341 1.394 . S
C3342 C3343 1.516 . S
C3343 C3342 1.516 . S
C3343 C3344 1.502 . S
C3343 C3345 1.561 . S
C3343 C3346 1.526 . S
C3344 H3328 0.959 . S
C3344 H3329 0.959 . S
C3344 H3330 0.961 . S
C3344 C3343 1.502 . S
C3345 H3331 0.960 . S
C3345 H3332 0.961 . S
C3345 H3333 0.959 . S
C3345 C3343 1.561 . S
C3346 C3343 1.526 . S
C3346 C3347 1.396 . S
C3346 C3351 1.390 . S
C3347 C3341 1.465 . S
C3347 C3346 1.396 . S
C3347 C3348 1.399 . S
C3348 H3334 0.929 . S
C3348 C3347 1.399 . S
C3348 C3349 1.385 . S
C3349 H3335 0.931 . S
C3349 C3348 1.385 . S
C3349 C3350 1.389 . S
C3350 C3349 1.389 . S
C3350 C3351 1.387 . S
C3351 H3336 0.930 . S
C3351 C3346 1.390 . S
C3351 C3350 1.387 . S
H3352 C3364 0.930 . S
H3353 C3366 0.930 . S
H3354 C3367 0.930 . S
H3355 C3371 0.959 . S
H3356 C3371 0.959 . S
H3357 C3371 0.961 . S
H3358 C3372 0.960 . S
H3359 C3372 0.961 . S
H3360 C3372 0.959 . S
H3361 C3375 0.929 . S
H3362 C3376 0.931 . S
H3363 C3378 0.930 . S
C3364 H3352 0.930 . S
C3364 C3365 1.399 . S
C3364 C3369 1.399 . S
C3365 C3364 1.399 . S
C3365 C3366 1.376 . S
C3366 H3353 0.930 . S
C3366 C3365 1.376 . S
C3366 C3367 1.388 . S
C3367 H3354 0.930 . S
C3367 C3366 1.388 . S
C3367 C3368 1.390 . S
C3368 C3367 1.390 . S
C3368 C3369 1.394 . S
C3368 C3374 1.465 . S
C3369 C3364 1.399 . S
C3369 C3368 1.394 . S
C3369 C3370 1.516 . S
C3370 C3369 1.516 . S
C3370 C3371 1.502 . S
C3370 C3372 1.561 . S
C3370 C3373 1.526 . S
C3371 H3355 0.959 . S
C3371 H3356 0.959 . S
C3371 H3357 0.961 . S
C3371 C3370 1.502 . S
C3372 H3358 0.960 . S
C3372 H3359 0.961 . S
C3372 H3360 0.959 . S
C3372 C3370 1.561 . S
C3373 C3370 1.526 . S
C3373 C3374 1.396 . S
C3373 C3378 1.390 . S
C3374 C3368 1.465 . S
C3374 C3373 1.396 . S
C3374 C3375 1.399 . S
C3375 H3361 0.929 . S
C3375 C3374 1.399 . S
C3375 C3376 1.385 . S
C3376 H3362 0.931 . S
C3376 C3375 1.385 . S
C3376 C3377 1.389 . S
C3377 C3376 1.389 . S
C3377 C3378 1.387 . S
C3378 H3363 0.930 . S
C3378 C3373 1.390 . S
C3378 C3377 1.387 . S
H3379 C3391 0.930 . S
H3380 C3393 0.930 . S
H3381 C3394 0.930 . S
H3382 C3398 0.959 . S
H3383 C3398 0.959 . S
H3384 C3398 0.961 . S
H3385 C3399 0.960 . S
H3386 C3399 0.961 . S
H3387 C3399 0.959 . S
H3388 C3402 0.929 . S
H3389 C3403 0.931 . S
H3390 C3405 0.930 . S
C3391 H3379 0.930 . S
C3391 C3392 1.399 . S
C3391 C3396 1.399 . S
C3392 C3391 1.399 . S
C3392 C3393 1.376 . S
C3393 H3380 0.930 . S
C3393 C3392 1.376 . S
C3393 C3394 1.388 . S
C3394 H3381 0.930 . S
C3394 C3393 1.388 . S
C3394 C3395 1.390 . S
C3395 C3394 1.390 . S
C3395 C3396 1.394 . S
C3395 C3401 1.465 . S
C3396 C3391 1.399 . S
C3396 C3395 1.394 . S
C3396 C3397 1.516 . S
C3397 C3396 1.516 . S
C3397 C3398 1.502 . S
C3397 C3399 1.561 . S
C3397 C3400 1.526 . S
C3398 H3382 0.959 . S
C3398 H3383 0.959 . S
C3398 H3384 0.961 . S
C3398 C3397 1.502 . S
C3399 H3385 0.960 . S
C3399 H3386 0.961 . S
C3399 H3387 0.959 . S
C3399 C3397 1.561 . S
C3400 C3397 1.526 . S
C3400 C3401 1.396 . S
C3400 C3405 1.390 . S
C3401 C3395 1.465 . S
C3401 C3400 1.396 . S
C3401 C3402 1.399 . S
C3402 H3388 0.929 . S
C3402 C3401 1.399 . S
C3402 C3403 1.385 . S
C3403 H3389 0.931 . S
C3403 C3402 1.385 . S
C3403 C3404 1.389 . S
C3404 C3403 1.389 . S
C3404 C3405 1.387 . S
C3405 H3390 0.930 . S
C3405 C3400 1.390 . S
C3405 C3404 1.387 . S
H3406 C3418 0.930 . S
H3407 C3420 0.930 . S
H3408 C3421 0.930 . S
H3409 C3425 0.959 . S
H3410 C3425 0.959 . S
H3411 C3425 0.961 . S
H3412 C3426 0.960 . S
H3413 C3426 0.961 . S
H3414 C3426 0.959 . S
H3415 C3429 0.929 . S
H3416 C3430 0.931 . S
H3417 C3432 0.930 . S
C3418 H3406 0.930 . S
C3418 C3419 1.399 . S
C3418 C3423 1.399 . S
C3419 C3418 1.399 . S
C3419 C3420 1.376 . S
C3420 H3407 0.930 . S
C3420 C3419 1.376 . S
C3420 C3421 1.388 . S
C3421 H3408 0.930 . S
C3421 C3420 1.388 . S
C3421 C3422 1.390 . S
C3422 C3421 1.390 . S
C3422 C3423 1.394 . S
C3422 C3428 1.465 . S
C3423 C3418 1.399 . S
C3423 C3422 1.394 . S
C3423 C3424 1.516 . S
C3424 C3423 1.516 . S
C3424 C3425 1.502 . S
C3424 C3426 1.561 . S
C3424 C3427 1.526 . S
C3425 H3409 0.959 . S
C3425 H3410 0.959 . S
C3425 H3411 0.961 . S
C3425 C3424 1.502 . S
C3426 H3412 0.960 . S
C3426 H3413 0.961 . S
C3426 H3414 0.959 . S
C3426 C3424 1.561 . S
C3427 C3424 1.526 . S
C3427 C3428 1.396 . S
C3427 C3432 1.390 . S
C3428 C3422 1.465 . S
C3428 C3427 1.396 . S
C3428 C3429 1.399 . S
C3429 H3415 0.929 . S
C3429 C3428 1.399 . S
C3429 C3430 1.385 . S
C3430 H3416 0.931 . S
C3430 C3429 1.385 . S
C3430 C3431 1.389 . S
C3431 C3430 1.389 . S
C3431 C3432 1.387 . S
C3432 H3417 0.930 . S
C3432 C3427 1.390 . S
C3432 C3431 1.387 . S
H3433 C3445 0.930 . S
H3434 C3447 0.930 . S
H3435 C3448 0.930 . S
H3436 C3452 0.959 . S
H3437 C3452 0.959 . S
H3438 C3452 0.961 . S
H3439 C3453 0.960 . S
H3440 C3453 0.961 . S
H3441 C3453 0.959 . S
H3442 C3456 0.929 . S
H3443 C3457 0.931 . S
H3444 C3459 0.930 . S
C3445 H3433 0.930 . S
C3445 C3446 1.399 . S
C3445 C3450 1.399 . S
C3446 C3445 1.399 . S
C3446 C3447 1.376 . S
C3447 H3434 0.930 . S
C3447 C3446 1.376 . S
C3447 C3448 1.388 . S
C3448 H3435 0.930 . S
C3448 C3447 1.388 . S
C3448 C3449 1.390 . S
C3449 C3448 1.390 . S
C3449 C3450 1.394 . S
C3449 C3455 1.465 . S
C3450 C3445 1.399 . S
C3450 C3449 1.394 . S
C3450 C3451 1.516 . S
C3451 C3450 1.516 . S
C3451 C3452 1.502 . S
C3451 C3453 1.561 . S
C3451 C3454 1.526 . S
C3452 H3436 0.959 . S
C3452 H3437 0.959 . S
C3452 H3438 0.961 . S
C3452 C3451 1.502 . S
C3453 H3439 0.960 . S
C3453 H3440 0.961 . S
C3453 H3441 0.959 . S
C3453 C3451 1.561 . S
C3454 C3451 1.526 . S
C3454 C3455 1.396 . S
C3454 C3459 1.390 . S
C3455 C3449 1.465 . S
C3455 C3454 1.396 . S
C3455 C3456 1.399 . S
C3456 H3442 0.929 . S
C3456 C3455 1.399 . S
C3456 C3457 1.385 . S
C3457 H3443 0.931 . S
C3457 C3456 1.385 . S
C3457 C3458 1.389 . S
C3458 C3457 1.389 . S
C3458 C3459 1.387 . S
C3459 H3444 0.930 . S
C3459 C3454 1.390 . S
C3459 C3458 1.387 . S
H3460 C3472 0.930 . S
H3461 C3474 0.930 . S
H3462 C3475 0.930 . S
H3463 C3479 0.959 . S
H3464 C3479 0.959 . S
H3465 C3479 0.961 . S
H3466 C3480 0.960 . S
H3467 C3480 0.961 . S
H3468 C3480 0.959 . S
H3469 C3483 0.929 . S
H3470 C3484 0.931 . S
H3471 C3486 0.930 . S
C3472 H3460 0.930 . S
C3472 C3473 1.399 . S
C3472 C3477 1.399 . S
C3473 C3472 1.399 . S
C3473 C3474 1.376 . S
C3474 H3461 0.930 . S
C3474 C3473 1.376 . S
C3474 C3475 1.388 . S
C3475 H3462 0.930 . S
C3475 C3474 1.388 . S
C3475 C3476 1.390 . S
C3476 C3475 1.390 . S
C3476 C3477 1.394 . S
C3476 C3482 1.465 . S
C3477 C3472 1.399 . S
C3477 C3476 1.394 . S
C3477 C3478 1.516 . S
C3478 C3477 1.516 . S
C3478 C3479 1.502 . S
C3478 C3480 1.561 . S
C3478 C3481 1.526 . S
C3479 H3463 0.959 . S
C3479 H3464 0.959 . S
C3479 H3465 0.961 . S
C3479 C3478 1.502 . S
C3480 H3466 0.960 . S
C3480 H3467 0.961 . S
C3480 H3468 0.959 . S
C3480 C3478 1.561 . S
C3481 C3478 1.526 . S
C3481 C3482 1.396 . S
C3481 C3486 1.390 . S
C3482 C3476 1.465 . S
C3482 C3481 1.396 . S
C3482 C3483 1.399 . S
C3483 H3469 0.929 . S
C3483 C3482 1.399 . S
C3483 C3484 1.385 . S
C3484 H3470 0.931 . S
C3484 C3483 1.385 . S
C3484 C3485 1.389 . S
C3485 C3484 1.389 . S
C3485 C3486 1.387 . S
C3486 H3471 0.930 . S
C3486 C3481 1.390 . S
C3486 C3485 1.387 . S
H3487 C3499 0.930 . S
H3488 C3501 0.930 . S
H3489 C3502 0.930 . S
H3490 C3506 0.959 . S
H3491 C3506 0.959 . S
H3492 C3506 0.961 . S
H3493 C3507 0.960 . S
H3494 C3507 0.926 1_556 S
H3495 C3507 0.959 . S
H3496 C3510 0.929 . S
H3497 C3511 0.931 . S
H3498 C3513 0.930 . S
C3499 H3487 0.930 . S
C3499 C3500 1.399 . S
C3499 C3504 1.399 . S
C3500 C3499 1.399 . S
C3500 C3501 1.376 . S
C3501 H3488 0.930 . S
C3501 C3500 1.376 . S
C3501 C3502 1.388 . S
C3502 H3489 0.930 . S
C3502 C3501 1.388 . S
C3502 C3503 1.390 . S
C3503 C3502 1.390 . S
C3503 C3504 1.394 . S
C3503 C3509 1.465 . S
C3504 C3499 1.399 . S
C3504 C3503 1.394 . S
C3504 C3505 1.516 . S
C3505 C3504 1.516 . S
C3505 C3506 1.502 . S
C3505 C3507 1.561 . S
C3505 C3508 1.526 . S
C3506 H3490 0.959 . S
C3506 H3491 0.959 . S
C3506 H3492 0.961 . S
C3506 C3505 1.502 . S
C3507 H3493 0.960 . S
C3507 H3494 0.926 1_554 S
C3507 H3495 0.959 . S
C3507 C3505 1.561 . S
C3508 C3505 1.526 . S
C3508 C3509 1.396 . S
C3508 C3513 1.390 . S
C3509 C3503 1.465 . S
C3509 C3508 1.396 . S
C3509 C3510 1.399 . S
C3510 H3496 0.929 . S
C3510 C3509 1.399 . S
C3510 C3511 1.385 . S
C3511 H3497 0.931 . S
C3511 C3510 1.385 . S
C3511 C3512 1.389 . S
C3512 C3511 1.389 . S
C3512 C3513 1.387 . S
C3513 H3498 0.930 . S
C3513 C3508 1.390 . S
C3513 C3512 1.387 . S
H3514 C3526 0.930 . S
H3515 C3528 0.930 . S
H3516 C3529 0.930 . S
H3517 C3533 0.959 . S
H3518 C3533 0.959 . S
H3519 C3533 0.961 . S
H3520 C3534 0.960 . S
H3521 C3534 0.961 . S
H3522 C3534 0.959 . S
H3523 C3537 0.929 . S
H3524 C3538 0.931 . S
H3525 C3540 0.930 . S
C3526 H3514 0.930 . S
C3526 C3527 1.399 . S
C3526 C3531 1.399 . S
C3527 C3526 1.399 . S
C3527 C3528 1.376 . S
C3528 H3515 0.930 . S
C3528 C3527 1.376 . S
C3528 C3529 1.388 . S
C3529 H3516 0.930 . S
C3529 C3528 1.388 . S
C3529 C3530 1.390 . S
C3530 C3529 1.390 . S
C3530 C3531 1.394 . S
C3530 C3536 1.465 . S
C3531 C3526 1.399 . S
C3531 C3530 1.394 . S
C3531 C3532 1.516 . S
C3532 C3531 1.516 . S
C3532 C3533 1.502 . S
C3532 C3534 1.561 . S
C3532 C3535 1.526 . S
C3533 H3517 0.959 . S
C3533 H3518 0.959 . S
C3533 H3519 0.961 . S
C3533 C3532 1.502 . S
C3534 H3520 0.960 . S
C3534 H3521 0.961 . S
C3534 H3522 0.959 . S
C3534 C3532 1.561 . S
C3535 C3532 1.526 . S
C3535 C3536 1.396 . S
C3535 C3540 1.390 . S
C3536 C3530 1.465 . S
C3536 C3535 1.396 . S
C3536 C3537 1.399 . S
C3537 H3523 0.929 . S
C3537 C3536 1.399 . S
C3537 C3538 1.385 . S
C3538 H3524 0.931 . S
C3538 C3537 1.385 . S
C3538 C3539 1.389 . S
C3539 C3538 1.389 . S
C3539 C3540 1.387 . S
C3540 H3525 0.930 . S
C3540 C3535 1.390 . S
C3540 C3539 1.387 . S
H3541 C3553 0.930 . S
H3542 C3555 0.930 . S
H3543 C3556 0.930 . S
H3544 C3560 0.959 . S
H3545 C3560 0.959 . S
H3546 C3560 0.961 . S
H3547 C3561 0.960 . S
H3548 C3561 0.961 . S
H3549 C3561 0.959 . S
H3550 C3564 0.929 . S
H3551 C3565 0.931 . S
H3552 C3567 0.930 . S
C3553 H3541 0.930 . S
C3553 C3554 1.399 . S
C3553 C3558 1.399 . S
C3554 C3553 1.399 . S
C3554 C3555 1.376 . S
C3555 H3542 0.930 . S
C3555 C3554 1.376 . S
C3555 C3556 1.388 . S
C3556 H3543 0.930 . S
C3556 C3555 1.388 . S
C3556 C3557 1.390 . S
C3557 C3556 1.390 . S
C3557 C3558 1.394 . S
C3557 C3563 1.465 . S
C3558 C3553 1.399 . S
C3558 C3557 1.394 . S
C3558 C3559 1.516 . S
C3559 C3558 1.516 . S
C3559 C3560 1.502 . S
C3559 C3561 1.561 . S
C3559 C3562 1.526 . S
C3560 H3544 0.959 . S
C3560 H3545 0.959 . S
C3560 H3546 0.961 . S
C3560 C3559 1.502 . S
C3561 H3547 0.960 . S
C3561 H3548 0.961 . S
C3561 H3549 0.959 . S
C3561 C3559 1.561 . S
C3562 C3559 1.526 . S
C3562 C3563 1.396 . S
C3562 C3567 1.390 . S
C3563 C3557 1.465 . S
C3563 C3562 1.396 . S
C3563 C3564 1.399 . S
C3564 H3550 0.929 . S
C3564 C3563 1.399 . S
C3564 C3565 1.385 . S
C3565 H3551 0.931 . S
C3565 C3564 1.385 . S
C3565 C3566 1.389 . S
C3566 C3565 1.389 . S
C3566 C3567 1.387 . S
C3567 H3552 0.930 . S
C3567 C3562 1.390 . S
C3567 C3566 1.387 . S
C989 C106 2.641 . S
C1001 C346 2.556 . S
C1016 C65 1.999 . S
C1028 C394 1.984 . S
C1043 C79 1.631 . S
C1055 C426 1.643 . S
C1082 C471 1.358 . S
C1070 C90 1.373 . S
C1097 C21 0.750 . S
C1109 C511 0.690 . S
C1136 C546 1.017 . S
C1124 C35 1.043 . S
C1163 C585 1.275 . S
C1151 C50 1.284 . S
C1178 C6 1.232 . S
C1190 C622 1.251 . S
C1217 C354 2.320 . S
C1205 C232 2.313 . S
C1232 C245 0.595 . S
C1244 C391 0.462 . S
C1271 C434 2.443 . S
C1259 C274 2.459 . S
C1298 C466 1.058 . S
C1286 C175 1.128 1_556 S
C1313 C231 1.101 . S
C1325 C506 1.053 . S
C1352 C554 0.459 . S
C1340 C246 0.153 . S
C1379 C595 1.938 . S
C1367 C273 1.903 . S
C1406 C625 2.210 . S
C1394 C176 2.190 . S
C1433 C351 1.578 . S
C1421 C160 1.438 . S
C1448 C289 2.133 . S
C1460 C674 2.114 . S
C1487 C711 1.315 . S
C1475 C328 1.207 . S
C1514 C742 0.961 . S
C1502 C317 0.874 . S
C1529 C118 2.664 . S
C1541 C635 2.695 . S
C1556 C132 1.436 . S
C1568 C431 1.448 . S
C1583 C331 1.798 . S
C1595 C794 1.802 . S
C1622 C826 1.944 . S
C1610 C303 1.947 . S
C1649 C355 2.145 . S
C1637 C63 2.188 . S
C1676 C825 2.449 . S
C1664 C107 2.441 . S
C1691 C92 1.421 . S
C1703 C435 1.414 . S
C1718 C78 1.806 . S
C1730 C782 1.784 . S
C1757 C502 1.202 . S
C1745 C8 1.170 . S
C1772 C51 1.056 . S
C1784 C715 1.111 . S
C1811 C594 1.557 . S
C1799 C37 1.536 . S
C1838 C871 1.245 . S
C1826 C20 1.176 1_655 S
C1865 C345 2.044 1_556 S
C1853 C147 2.014 . S
C1892 C822 0.453 . S
C1880 C316 0.597 . S
C1907 C119 2.339 . S
C1919 C425 2.385 . S
C1934 C288 1.207 . S
C1946 C795 1.187 . S
C1961 C148 1.406 . S
C1973 C515 1.430 . S
C2000 C705 0.434 . S
C1988 C315 0.373 . S
C2015 C120 2.302 . S
C2027 C586 2.198 . S
C2042 C287 1.940 1_556 S
C2054 C874 1.934 . S
C2069 C188 1.179 . S
C2081 C342 1.294 . S
C2096 C177 2.478 . S
C2108 C665 2.509 . S
C2123 C258 1.232 . S
C2135 C542 1.291 . S
C2150 C247 0.759 . S
C2162 C751 0.807 . S
C2189 C866 2.608 . S
C2177 C272 2.632 . S
C2204 C216 1.348 . S
C2216 C422 1.327 . S
C2243 C465 2.046 . S
C2231 C261 2.047 . S
C2270 C395 2.109 . S
C2258 C205 2.118 . S
C2285 C76 2.234 . S
C2297 C906 2.252 . S
C2324 C834 2.064 . S
C2312 C93 2.074 . S
C2339 C105 1.246 . S
C2351 C946 1.254 . S
C2366 C62 1.421 1_655 S
C2378 C791 1.436 . S
C2393 C49 0.747 . S
C2405 C671 0.685 . S
C2432 C706 1.425 . S
C2420 C9 1.431 . S
C2459 C745 1.201 . S
C2447 C22 1.198 . S
C2486 C862 1.584 . S
C2474 C36 1.555 . S
C2513 C914 2.258 . S
C2501 C260 2.250 . S
C2528 C189 0.351 . S
C2540 C831 0.539 . S
C2567 C954 2.367 . S
C2555 C204 2.376 . S
C2594 C786 0.891 . S
C2582 C217 0.967 . S
C2621 C666 1.235 1_556 S
C2609 C259 1.234 . S
C2636 C190 0.185 . S
C2648 C714 0.455 . S
C2675 C755 2.118 . S
C2663 C203 2.088 . S
C2690 C218 2.277 . S
C2702 C865 2.303 . S
C2729 C911 1.537 . S
C2717 C314 1.510 . S
C2744 C135 2.203 . S
C2756 C514 2.171 . S
C2783 C551 1.247 . S
C2771 C146 1.270 . S
C2810 C582 0.893 . S
C2798 C163 0.852 . S
C2837 C875 2.725 . S
C2825 C300 2.707 . S
C2852 C286 1.385 . S
C2864 C951 1.409 . S
C2891 C474 1.717 . S
C2879 C149 1.733 . S
C2918 C386 1.906 . S
C2906 C121 1.883 . S
C2933 C91 2.160 . S
C2945 C915 2.134 . S
C2972 C385 2.057 . S
C2960 C77 1.988 . S
C2987 C64 1.428 . S
C2999 C955 1.444 . S
C3014 C104 1.511 . S
C3026 C462 1.551 . S
C3041 C34 0.919 . S
C3053 C662 0.850 1_556 S
C3080 C555 1.087 . S
C3068 C23 1.059 . S
C3095 C7 1.062 . S
C3107 C754 1.178 . S
C3122 C48 1.193 . S
C3134 C631 1.224 . S
C3161 C905 2.011 . S
C3149 C329 1.996 . S
C3176 C162 0.594 . S
C3188 C382 0.428 . S
C3215 C945 2.362 1_556 S
C3203 C301 2.318 . S
C3230 C134 1.240 . S
C3242 C475 1.256 . S
C3257 C330 1.464 . S
C3269 C675 1.438 . S
C3296 C545 0.456 . S
C3284 C161 0.627 . S
C3311 C302 2.264 . S
C3323 C746 2.182 1_655 S
C3350 C634 1.905 . S
C3338 C133 1.914 . S
C3377 C902 1.407 . S
C3365 C244 1.293 . S
C3404 C505 2.495 1_665 S
C3392 C219 2.449 . S
C3419 C230 1.013 . S
C3431 C702 1.117 . S
C3458 C591 0.869 . S
C3446 C191 0.849 . S
C3473 C202 2.856 . S
C3485 C626 2.890 . S
C3500 C174 1.516 . S
C3512 C942 1.488 . S
C3539 C785 2.028 . S
C3527 C233 2.017 . S
C3566 C835 2.062 . S
C3554 C275 2.085 . S
