# Generated by pormake.
# Topology pts, (4,4)-cn, num edge types: 1
# Building blocks:
#     Node 0, Type 0, BuildingBlock: NAWXER_clean_sbu_0, # of connection points: 4
#     Node 1, Type 0, BuildingBlock: NAWXER_clean_sbu_0, # of connection points: 4
#     Node 2, Type 1, BuildingBlock: AZAVOO_clean_sbu_0, # of connection points: 4
#     Node 3, Type 1, BuildingBlock: AZAVOO_clean_sbu_0, # of connection points: 4
#     Edge 4, Type (0, 1), BuildingBlock: TEMPAE_clean_linker_10, # of connection points: 2
#     Edge 5, Type (0, 1), BuildingBlock: TEMPAE_clean_linker_10, # of connection points: 2
#     Edge 6, Type (0, 1), BuildingBlock: TEMPAE_clean_linker_10, # of connection points: 2
#     Edge 7, Type (0, 1), BuildingBlock: TEMPAE_clean_linker_10, # of connection points: 2
#     Edge 8, Type (0, 1), BuildingBlock: TEMPAE_clean_linker_10, # of connection points: 2
#     Edge 9, Type (0, 1), BuildingBlock: TEMPAE_clean_linker_10, # of connection points: 2
#     Edge 10, Type (0, 1), BuildingBlock: TEMPAE_clean_linker_10, # of connection points: 2
#     Edge 11, Type (0, 1), BuildingBlock: TEMPAE_clean_linker_10, # of connection points: 2
# Relax obj value: 0.010
# Max RMSD: 0.058
# Mean RMSD: 0.046
data_MOF--net-pts--node1-NAWXER_clean_sbu_0--node2-AZAVOO_clean_sbu_0--edge1-TEMPAE_clean_linker_10
_symmetry_space_group_name_H-M    P1
_symmetry_Int_Tables_number       1
_symmetry_cell_setting            triclinic
loop_
_symmetry_equiv_pos_as_xyz
'x, y, z'
_cell_length_a     23.091551
_cell_length_b     24.103133
_cell_length_c     38.007415
_cell_angle_alpha  90.036323
_cell_angle_beta   96.412732
_cell_angle_gamma 89.966813
loop_
_atom_site_label
_atom_site_type_symbol
_atom_site_fract_x
_atom_site_fract_y
_atom_site_fract_z
_atom_type_partial_charge
C0 C 0.47374 0.07085 0.96558 0.0
C1 C 0.64224 0.0698 0.05743 0.0
O2 O 0.49267 0.02286 0.97563 0.0
Zn3 Zn 0.55736 0.98489 0.0115 0.0
O4 O 0.49845 0.11402 0.97963 0.0
Zn5 Zn 0.55777 0.07506 0.01168 0.0
O6 O 0.60937 0.03692 0.97525 0.0
O7 O 0.60431 0.94576 0.97978 0.0
O8 O 0.61756 0.11327 0.0438 0.0
O9 O 0.62279 0.02205 0.04725 0.0
O10 O 0.5099 0.94619 0.0431 0.0
O11 O 0.50581 0.03735 0.04795 0.0
C12 C 0.62406 0.98852 0.96546 0.0
C13 C 0.49059 0.98907 0.05756 0.0
C14 C 0.0222 0.58057 0.46258 0.0
C15 C 0.01006 0.4381 0.55235 0.0
O16 O 0.97653 0.55761 0.47155 0.0
Zn17 Zn 0.01525 0.50911 0.50701 0.0
O18 O 0.07233 0.56641 0.478 0.0
Zn19 Zn 0.10767 0.509 0.51817 0.0
O20 O 0.15469 0.46027 0.49239 0.0
O21 O 0.06042 0.454 0.47523 0.0
O22 O 0.06261 0.45278 0.54921 0.0
O23 O 0.96836 0.45976 0.53234 0.0
O24 O 0.05042 0.56581 0.54756 0.0
O25 O 0.1462 0.55697 0.55412 0.0
C26 C 0.11298 0.43942 0.47198 0.0
C27 C 0.10046 0.5798 0.56315 0.0
Mg28 Mg 0.10247 0.98731 0.28187 0.0
O29 O 0.01814 0.01582 0.24827 0.0
O30 O 0.94949 0.02046 0.28522 0.0
Mg31 Mg 0.98644 0.9917 0.34049 0.0
C32 C 0.96599 0.02669 0.25449 0.0
C33 C 0.20808 0.98252 0.24235 0.0
O34 O 0.22129 0.95406 0.27164 0.0
O35 O 0.11351 0.07404 0.30745 0.0
O36 O 0.04641 0.06693 0.3454 0.0
O37 O 0.08052 0.89682 0.27321 0.0
O38 O 0.05465 0.94682 0.31725 0.0
C39 C 0.08799 0.09295 0.33319 0.0
C40 C 0.05422 0.89973 0.30148 0.0
O41 O 0.15873 0.00656 0.23764 0.0
Mg42 Mg 0.01387 0.98598 0.7423 0.0
O43 O 0.09747 0.01637 0.77576 0.0
O44 O 0.16578 0.02252 0.73866 0.0
Mg45 Mg 0.12962 0.99199 0.68358 0.0
C46 C 0.14922 0.02854 0.7694 0.0
C47 C 0.90753 0.9812 0.78127 0.0
O48 O 0.89437 0.95324 0.75176 0.0
O49 O 1.00101 0.07225 0.71632 0.0
O50 O 0.06765 0.06579 0.67798 0.0
O51 O 0.03782 0.89604 0.75151 0.0
O52 O 0.06271 0.94594 0.70721 0.0
C53 C 0.02566 0.09113 0.69026 0.0
C54 C 0.06421 0.89908 0.72328 0.0
O55 O 0.95704 0.00484 0.78631 0.0
C56 C 0.41779 0.93664 0.08935 0.0
C57 C 0.45014 0.98492 0.08513 0.0
C58 C 0.37704 0.93456 0.11426 0.0
C59 C 0.36923 0.98154 0.13572 0.0
C60 C 0.40258 0.02993 0.13193 0.0
C61 C 0.44226 0.03111 0.10662 0.0
C62 C 0.34189 0.88238 0.11738 0.0
C63 C 0.39639 0.0806 0.15465 0.0
C64 C 0.23096 0.00124 0.18036 0.0
C65 C 0.24903 0.98329 0.21494 0.0
C66 C 0.26918 -0.0004 0.15403 0.0
C67 C 0.327 0.98025 0.16263 0.0
C68 C 0.34547 0.96233 0.19753 0.0
C69 C 0.30623 0.9638 0.22316 0.0
C70 C 0.24778 0.01873 0.11704 0.0
C71 C 0.40699 0.94229 0.20795 0.0
H72 H 0.42341 0.90096 0.0727 0.0
H73 H 0.46737 0.0685 0.10374 0.0
H74 H 0.34979 0.86574 0.1447 0.0
H75 H 0.2947 0.89198 0.11224 0.0
H76 H 0.35269 0.84966 0.09857 0.0
H77 H 0.42613 0.1147 0.14868 0.0
H78 H 0.35093 0.09618 0.15055 0.0
H79 H 0.40578 0.06957 0.18305 0.0
H80 H 0.18671 0.01592 0.17373 0.0
H81 H 0.32063 0.94991 0.24983 0.0
H82 H 0.25446 0.98551 0.09767 0.0
H83 H 0.27331 0.05528 0.11002 0.0
H84 H 0.20088 0.03017 0.11422 0.0
H85 H 0.4171 0.90711 0.19082 0.0
H86 H 0.41413 0.92868 0.23602 0.0
H87 H 0.43832 0.97598 0.20397 0.0
C88 C 0.94519 0.3682 0.57752 0.0
C89 C 0.99937 0.39482 0.57849 0.0
C90 C 0.93779 0.32234 0.59945 0.0
C91 C 0.98571 0.30286 0.62269 0.0
C92 C 0.039 0.33239 0.62568 0.0
C93 C 0.04516 0.37788 0.60355 0.0
C94 C 0.88006 0.29244 0.59588 0.0
C95 C 0.09118 0.31332 0.65024 0.0
C96 C 0.98271 0.18728 0.69065 0.0
C97 C 1.00571 0.14333 0.67242 0.0
C98 C 0.97207 0.23921 0.67414 0.0
C99 C 0.98456 0.24671 0.63875 0.0
C100 C 1.00369 0.20113 0.61963 0.0
C101 C 0.01403 0.15022 0.6367 0.0
C102 C 0.95091 0.28669 0.69519 0.0
C103 C 0.0171 0.20692 0.58176 0.0
H104 H 0.90936 0.38148 0.55853 0.0
H105 H 0.08685 0.39891 0.60501 0.0
H106 H 0.88341 0.25421 0.57996 0.0
H107 H 0.8682 0.27975 0.6222 0.0
H108 H 0.8445 0.31854 0.58252 0.0
H109 H 0.12677 0.34455 0.65271 0.0
H110 H 0.07856 0.30457 0.67699 0.0
H111 H 0.10836 0.27422 0.63996 0.0
H112 H 0.97587 0.18198 0.71821 0.0
H113 H 0.03056 0.11597 0.62222 0.0
H114 H 0.91758 0.31149 0.6788 0.0
H115 H 0.988 0.31465 0.70372 0.0
H116 H 0.9322 0.27191 0.71919 0.0
H117 H 0.97991 0.22633 0.56526 0.0
H118 H 0.02674 0.16636 0.56978 0.0
H119 H 0.05548 0.23437 0.58083 0.0
C120 C 0.71784 0.12251 0.09769 0.0
C121 C 0.69311 0.07216 0.08504 0.0
C122 C 0.76548 0.12319 0.12439 0.0
C123 C 0.78844 0.07241 0.13875 0.0
C124 C 0.7641 0.02166 0.12563 0.0
C125 C 0.71708 0.02219 0.09905 0.0
C126 C 0.79069 0.17807 0.1376 0.0
C127 C 0.78689 0.96649 0.14021 0.0
C128 C 0.93716 0.05118 0.1905 0.0
C129 C 0.9223 0.04542 0.22515 0.0
C130 C 0.89463 0.06413 0.16226 0.0
C131 C 0.83583 0.07116 0.16876 0.0
C132 C 0.82122 0.06845 0.20389 0.0
C133 C 0.86453 0.05575 0.23159 0.0
C134 C 0.91207 0.06712 0.1252 0.0
C135 C 0.75907 0.07536 0.21203 0.0
H136 H 0.69983 0.16126 0.08693 0.0
H137 H 0.69869 0.9829 0.08951 0.0
H138 H 0.78381 0.18373 0.1658 0.0
H139 H 0.83841 0.17866 0.13618 0.0
H140 H 0.77057 0.21364 0.12217 0.0
H141 H 0.76403 0.93072 0.12644 0.0
H142 H 0.83412 0.96275 0.13767 0.0
H143 H 0.78153 0.96376 0.16881 0.0
H144 H 0.9817 0.04396 0.18521 0.0
H145 H 0.85246 0.05209 0.25824 0.0
H146 H 0.89204 0.10381 0.11102 0.0
H147 H 0.89593 0.02971 0.11015 0.0
H148 H 0.96011 0.06929 0.12513 0.0
H149 H 0.73917 0.11286 0.1988 0.0
H150 H 0.75597 0.07869 0.24091 0.0
H151 H 0.73292 0.03909 0.20164 0.0
C152 C 0.05424 0.65373 0.59631 0.0
C153 C 0.10396 0.62264 0.59123 0.0
C154 C 0.05622 0.6956 0.62193 0.0
C155 C 0.10914 0.70644 0.64339 0.0
C156 C 0.15919 0.67422 0.63919 0.0
C157 C 0.15614 0.63285 0.61292 0.0
C158 C 1.0019 0.72935 0.62527 0.0
C159 C 0.21608 0.68417 0.66194 0.0
C160 C 0.11244 0.85465 0.675 0.0
C161 C 0.08908 0.84962 0.70738 0.0
C162 C 0.12402 0.80778 0.65517 0.0
C163 C 0.11213 0.75445 0.66808 0.0
C164 C 0.09382 0.7488 0.70224 0.0
C165 C 0.08229 0.79659 0.72152 0.0
C166 C 0.14357 0.81579 0.61888 0.0
C167 C 0.08173 0.69254 0.71719 0.0
H168 H 0.01372 0.64616 0.57971 0.0
H169 H 0.19461 0.60862 0.60936 0.0
H170 H 0.99066 0.72777 0.65287 0.0
H171 H 0.00985 0.77345 0.61897 0.0
H172 H 0.96382 0.71444 0.60731 0.0
H173 H 0.24922 0.6521 0.65778 0.0
H174 H 0.23369 0.72538 0.65573 0.0
H175 H 0.20904 0.68461 0.69035 0.0
H176 H 0.11815 0.8953 0.66383 0.0
H177 H 0.06468 0.79229 0.74664 0.0
H178 H 0.10667 0.80671 0.59839 0.0
H179 H 0.17939 0.78675 0.61465 0.0
H180 H 0.1586 0.85887 0.61484 0.0
H181 H 0.03963 0.67667 0.70409 0.0
H182 H 0.07897 0.69439 0.74617 0.0
H183 H 0.11606 0.66237 0.71198 0.0
C184 C 0.3961 0.12406 0.92716 0.0
C185 C 0.42351 0.07379 0.93758 0.0
C186 C 0.34826 0.1252 0.90059 0.0
C187 C 0.3279 0.07501 0.88407 0.0
C188 C 0.35537 0.02435 0.89467 0.0
C189 C 0.40249 0.02439 0.92117 0.0
C190 C 0.31974 0.17992 0.89004 0.0
C191 C 0.33549 0.96983 0.87768 0.0
C192 C 0.17891 0.04994 0.83374 0.0
C193 C 0.19251 0.04826 0.79866 0.0
C194 C 0.22168 0.06295 0.86183 0.0
C195 C 0.2794 0.0744 0.85471 0.0
C196 C 0.29241 0.07625 0.81922 0.0
C197 C 0.24892 0.0632 0.79169 0.0
C198 C 0.20593 0.06088 0.8993 0.0
C199 C 0.35335 0.08818 0.81039 0.0
H200 H 0.41187 0.16234 0.93976 0.0
H201 H 0.42319 0.9852 0.92884 0.0
H202 H 0.32401 0.18858 0.86178 0.0
H203 H 0.27247 0.17797 0.89282 0.0
H204 H 0.33926 0.21494 0.90629 0.0
H205 H 0.36102 0.93397 0.88941 0.0
H206 H 0.28883 0.96271 0.88066 0.0
H207 H 0.33975 0.9711 0.84891 0.0
H208 H 0.13539 0.0391 0.83946 0.0
H209 H 0.25989 0.06289 0.7647 0.0
H210 H 0.22448 0.09703 0.91473 0.0
H211 H 0.22476 0.02289 0.91253 0.0
H212 H 0.158 0.06021 0.90018 0.0
H213 H 0.3717 0.12499 0.82519 0.0
H214 H 0.35463 0.0955 0.78163 0.0
H215 H 0.38202 0.05236 0.81845 0.0
C216 C 0.07944 0.38509 0.41787 0.0
C217 C 0.12354 0.39709 0.44524 0.0
C218 C 0.08413 0.33982 0.39529 0.0
C219 C 0.13398 0.30534 0.40036 0.0
C220 C 0.1809 0.32003 0.42591 0.0
C221 C 0.17517 0.36596 0.44811 0.0
C222 C 0.03329 0.3261 0.36814 0.0
C223 C 0.23505 0.2847 0.43182 0.0
C224 C 0.09304 0.15521 0.3854 0.0
C225 C 0.10679 0.14575 0.35086 0.0
C226 C 0.10475 0.20604 0.40233 0.0
C227 C 0.13098 0.24898 0.38434 0.0
C228 C 0.14803 0.239 0.35019 0.0
C229 C 0.13577 0.18721 0.33377 0.0
C230 C 0.08618 0.21453 0.43888 0.0
C231 C 0.17656 0.28369 0.33037 0.0
H232 H 0.03993 0.40979 0.41497 0.0
H233 H 0.20971 0.37544 0.46896 0.0
H234 H 0.04867 0.31514 0.34241 0.0
H235 H 0.00976 0.28959 0.37723 0.0
H236 H 1.00199 0.36113 0.36392 0.0
H237 H 0.27164 0.30727 0.44702 0.0
H238 H 0.22557 0.24706 0.44696 0.0
H239 H 0.249 0.27081 0.40623 0.0
H240 H 0.07181 0.12299 0.39916 0.0
H241 H 0.14686 0.18 0.30718 0.0
H242 H 0.05088 0.24596 0.43769 0.0
H243 H 0.12315 0.23038 0.45727 0.0
H244 H 0.07002 0.17569 0.45011 0.0
H245 H 0.14332 0.31471 0.32023 0.0
H246 H 0.19689 0.26658 0.30753 0.0
H247 H 0.21032 0.30579 0.34816 0.0
C248 C 0.69614 0.93548 0.93338 0.0
C249 C 0.66444 0.98411 0.93787 0.0
C250 C 0.73691 0.93314 0.90848 0.0
C251 C 0.74541 0.98026 0.88733 0.0
C252 C 0.71266 0.029 0.89135 0.0
C253 C 0.67294 0.0304 0.91664 0.0
C254 C 0.77139 0.88058 0.90509 0.0
C255 C 0.71961 0.07984 0.86896 0.0
C256 C 0.88433 -0.00087 0.84329 0.0
C257 C 0.86634 0.98189 0.80854 0.0
C258 C 0.84587 -0.00254 0.86948 0.0
C259 C 0.78787 0.97883 0.86056 0.0
C260 C 0.76949 0.9616 0.82549 0.0
C261 C 0.80898 0.96306 0.80001 0.0
C262 C 0.86718 0.01584 0.90666 0.0
C263 C 0.7078 0.94234 0.81475 0.0
H264 H 0.69002 0.8997 0.94983 0.0
H265 H 0.64832 0.06807 0.91971 0.0
H266 H 0.76355 0.86444 0.87763 0.0
H267 H 0.81869 0.88951 0.91049 0.0
H268 H 0.75994 0.84772 0.92359 0.0
H269 H 0.69018 0.11417 0.87503 0.0
H270 H 0.76523 0.09491 0.8733 0.0
H271 H 0.71035 0.06921 0.84048 0.0
H272 H 0.9287 0.01328 0.85017 0.0
H273 H 0.79465 0.94972 0.77321 0.0
H274 H 0.85988 0.98245 0.92575 0.0
H275 H 0.84204 0.0526 0.91383 0.0
H276 H 0.91423 0.02668 0.90971 0.0
H277 H 0.6971 0.90709 0.83162 0.0
H278 H 0.70077 0.92912 0.78659 0.0
H279 H 0.67681 0.97634 0.81881 0.0
C280 C 0.96633 0.63332 0.4128 0.0
C281 C 0.01849 0.62354 0.43461 0.0
C282 C 0.96306 0.67459 0.38651 0.0
C283 C 0.01285 0.70715 0.3824 0.0
C284 C 0.06575 0.6968 0.40401 0.0
C285 C 0.06796 0.65502 0.42967 0.0
C286 C 0.90621 0.68403 0.3636 0.0
C287 C 0.11977 0.73097 0.40076 0.0
C288 C 0.03842 0.79695 0.3039 0.0
C289 C 0.03061 0.85003 0.31777 0.0
C290 C 0.02788 0.74921 0.32344 0.0
C291 C 0.00953 0.75498 0.3576 0.0
C292 C 0.99681 0.80827 0.37029 0.0
C293 C 0.00741 0.85507 0.3502 0.0
C294 C 0.0409 0.69297 0.30874 0.0
C295 C 0.97722 0.81637 0.40657 0.0
H296 H 0.92806 0.60877 0.41626 0.0
H297 H 0.10845 0.64776 0.44636 0.0
H298 H 0.88836 0.72531 0.36951 0.0
H299 H 0.91341 0.684 0.33522 0.0
H300 H 0.87319 0.65196 0.36789 0.0
H301 H 0.15788 0.71642 0.41884 0.0
H302 H 0.13123 0.72937 0.37321 0.0
H303 H 0.11132 0.77503 0.40697 0.0
H304 H 0.05598 0.79264 0.27875 0.0
H305 H 1.00098 0.89575 0.36117 0.0
H306 H 0.0069 0.66248 0.31393 0.0
H307 H 0.08309 0.67764 0.32205 0.0
H308 H 0.04394 0.69459 0.27979 0.0
H309 H 0.94167 0.78709 0.41087 0.0
H310 H 0.96177 0.85936 0.41052 0.0
H311 H 0.0142 0.80767 0.42707 0.0
loop_
_geom_bond_atom_site_label_1
_geom_bond_atom_site_label_2
_geom_bond_distance
_geom_bond_site_symmetry_2
_ccdc_geom_bond_type
C0 O2 1.247 1_545 S
C0 O4 1.258 . S
C1 O8 1.247 . S
C1 O9 1.258 1_545 S
O2 C0 1.247 1_565 S
O2 Zn3 2.028 1_556 S
Zn3 O2 2.028 1_554 S
Zn3 O7 2.035 1_554 S
Zn3 O9 2.035 . S
Zn3 O10 2.028 . S
O4 C0 1.258 . S
O4 Zn5 2.035 1_556 S
Zn5 O4 2.035 1_554 S
Zn5 O6 2.028 1_554 S
Zn5 O8 2.028 . S
Zn5 O11 2.035 . S
O6 Zn5 2.028 1_556 S
O6 C12 1.247 . S
O7 Zn3 2.035 1_556 S
O7 C12 1.258 1_565 S
O8 C1 1.247 . S
O8 Zn5 2.028 . S
O9 C1 1.258 1_565 S
O9 Zn3 2.035 . S
O10 Zn3 2.028 . S
O10 C13 1.247 1_565 S
O11 Zn5 2.035 . S
O11 C13 1.258 . S
C12 O6 1.247 . S
C12 O7 1.258 1_545 S
C13 O10 1.247 1_545 S
C13 O11 1.258 . S
C14 O16 1.247 . S
C14 O18 1.258 . S
C15 O22 1.247 . S
C15 O23 1.258 1_455 S
O16 C14 1.247 . S
O16 Zn17 2.028 1_455 S
Zn17 O16 2.028 1_655 S
Zn17 O21 2.035 1_655 S
Zn17 O23 2.035 . S
Zn17 O24 2.028 . S
O18 C14 1.258 . S
O18 Zn19 2.035 . S
Zn19 O18 2.035 . S
Zn19 O20 2.028 . S
Zn19 O22 2.028 . S
Zn19 O25 2.035 . S
O20 Zn19 2.028 . S
O20 C26 1.247 . S
O21 Zn17 2.035 1_455 S
O21 C26 1.258 . S
O22 C15 1.247 . S
O22 Zn19 2.028 . S
O23 C15 1.258 1_655 S
O23 Zn17 2.035 . S
O24 Zn17 2.028 . S
O24 C27 1.247 1_655 S
O25 Zn19 2.035 . S
O25 C27 1.258 . S
C26 O20 1.247 . S
C26 O21 1.258 . S
C27 O24 1.247 1_455 S
C27 O25 1.258 . S
Mg28 O29 2.028 . S
Mg28 O35 1.986 . S
Mg28 O37 2.114 1_545 S
Mg28 O38 2.251 1_545 S
Mg28 O41 2.010 . S
O29 Mg28 2.028 . S
O29 C32 1.250 1_455 S
O30 Mg31 2.028 . S
O30 C32 1.248 . S
Mg31 O30 2.028 . S
Mg31 O36 2.032 1_655 S
Mg31 O38 2.079 1_645 S
C32 O29 1.250 1_655 S
C32 O30 1.248 . S
C33 O34 1.264 . S
C33 O41 1.249 . S
O34 C33 1.264 . S
O35 Mg28 1.986 . S
O35 C39 1.246 . S
O36 Mg31 2.032 1_455 S
O36 C39 1.259 . S
O37 Mg28 2.114 1_565 S
O37 C40 1.252 . S
O38 Mg28 2.251 1_565 S
O38 Mg31 2.079 1_465 S
O38 C40 1.273 . S
C39 O35 1.246 . S
C39 O36 1.259 . S
C40 O37 1.252 . S
C40 O38 1.273 . S
O41 Mg28 2.010 . S
O41 C33 1.249 . S
Mg42 O43 2.028 1_655 S
Mg42 O49 1.986 1_655 S
Mg42 O51 2.114 1_545 S
Mg42 O52 2.251 1_645 S
Mg42 O55 2.010 . S
O43 Mg42 2.028 1_455 S
O43 C46 1.250 . S
O44 Mg45 2.028 . S
O44 C46 1.248 . S
Mg45 O44 2.028 . S
Mg45 O50 2.032 . S
Mg45 O52 2.079 1_545 S
C46 O43 1.250 . S
C46 O44 1.248 . S
C47 O48 1.264 . S
C47 O55 1.249 . S
O48 C47 1.264 . S
O49 Mg42 1.986 1_455 S
O49 C53 1.246 . S
O50 Mg45 2.032 . S
O50 C53 1.259 . S
O51 Mg42 2.114 1_565 S
O51 C54 1.252 1_655 S
O52 Mg42 2.251 1_465 S
O52 Mg45 2.079 1_565 S
O52 C54 1.273 . S
C53 O49 1.246 . S
C53 O50 1.259 . S
C54 O51 1.252 1_455 S
C54 O52 1.273 . S
O55 Mg42 2.010 . S
O55 C47 1.249 . S
C56 C57 1.391 1_565 S
C56 C58 1.394 . S
C56 H72 0.931 . S
C57 C56 1.391 1_545 S
C57 C61 1.376 . S
C58 C56 1.394 . S
C58 C59 1.369 1_565 S
C58 C62 1.531 . S
C59 C58 1.369 1_545 S
C59 C60 1.410 . S
C59 C67 1.503 . S
C60 C59 1.410 . S
C60 C61 1.392 . S
C60 C63 1.511 . S
C61 C57 1.376 . S
C61 C60 1.392 . S
C61 H73 0.929 . S
C62 C58 1.531 . S
C62 H74 0.960 . S
C62 H75 0.962 . S
C62 H76 0.960 . S
C63 C60 1.511 . S
C63 H77 0.961 . S
C63 H78 0.961 . S
C63 H79 0.961 . S
C64 C65 1.370 . S
C64 C66 1.363 . S
C64 H80 0.931 . S
C65 C64 1.370 . S
C65 C69 1.408 . S
C66 C64 1.363 . S
C66 C67 1.370 . S
C66 C70 1.524 . S
C67 C59 1.503 . S
C67 C66 1.370 . S
C67 C68 1.403 . S
C68 C67 1.403 . S
C68 C69 1.404 . S
C68 C71 1.539 . S
C69 C65 1.408 . S
C69 C68 1.404 . S
C69 H81 0.930 . S
C70 C66 1.524 . S
C70 H82 0.956 1_545 S
C70 H83 0.961 . S
C70 H84 0.961 . S
C71 C68 1.539 . S
C71 H85 0.958 1_545 S
C71 H86 0.961 . S
C71 H87 0.960 . S
H72 C56 0.931 . S
H73 C61 0.929 . S
H74 C62 0.960 . S
H75 C62 0.962 . S
H76 C62 0.960 . S
H77 C63 0.961 . S
H78 C63 0.961 . S
H79 C63 0.961 . S
H80 C64 0.931 . S
H81 C69 0.930 . S
H82 C70 0.956 1_565 S
H83 C70 0.961 . S
H84 C70 0.961 . S
H85 C71 0.958 1_565 S
H86 C71 0.961 . S
H87 C71 0.960 . S
C88 C89 1.391 . S
C88 C90 1.394 . S
C88 H104 0.931 1_455 S
C89 C88 1.391 . S
C89 C93 1.376 . S
C90 C88 1.394 . S
C90 C91 1.369 . S
C90 C94 1.531 1_455 S
C91 C90 1.369 . S
C91 C92 1.410 . S
C91 C99 1.503 . S
C92 C91 1.410 . S
C92 C93 1.392 . S
C92 C95 1.511 . S
C93 C89 1.376 . S
C93 C92 1.392 . S
C93 H105 0.929 . S
C94 C90 1.531 1_655 S
C94 H106 0.960 1_655 S
C94 H107 0.962 . S
C94 H108 0.960 . S
C95 C92 1.511 . S
C95 H109 0.961 . S
C95 H110 0.961 . S
C95 H111 0.961 . S
C96 C97 1.370 1_655 S
C96 C98 1.363 . S
C96 H112 0.931 . S
C97 C96 1.370 1_455 S
C97 C101 1.408 . S
C98 C96 1.363 . S
C98 C99 1.370 1_655 S
C98 C102 1.524 . S
C99 C91 1.503 . S
C99 C98 1.370 1_455 S
C99 C100 1.403 . S
C100 C99 1.403 . S
C100 C101 1.404 . S
C100 C103 1.539 . S
C101 C97 1.408 . S
C101 C100 1.404 . S
C101 H113 0.930 . S
C102 C98 1.524 . S
C102 H114 0.956 . S
C102 H115 0.961 . S
C102 H116 0.961 . S
C103 C100 1.539 . S
C103 H117 0.958 . S
C103 H118 0.961 . S
C103 H119 0.960 . S
H104 C88 0.931 1_655 S
H105 C93 0.929 . S
H106 C94 0.960 1_455 S
H107 C94 0.962 . S
H108 C94 0.960 . S
H109 C95 0.961 . S
H110 C95 0.961 . S
H111 C95 0.961 . S
H112 C96 0.931 . S
H113 C101 0.930 . S
H114 C102 0.956 . S
H115 C102 0.961 . S
H116 C102 0.961 . S
H117 C103 0.958 . S
H118 C103 0.961 . S
H119 C103 0.960 . S
C120 C121 1.391 . S
C120 C122 1.394 . S
C120 H136 0.931 . S
C121 C120 1.391 . S
C121 C125 1.376 1_545 S
C122 C120 1.394 . S
C122 C123 1.369 . S
C122 C126 1.531 . S
C123 C122 1.369 . S
C123 C124 1.410 1_545 S
C123 C131 1.503 . S
C124 C123 1.410 1_565 S
C124 C125 1.392 . S
C124 C127 1.511 . S
C125 C121 1.376 1_565 S
C125 C124 1.392 . S
C125 H137 0.929 . S
C126 C122 1.531 . S
C126 H138 0.960 . S
C126 H139 0.962 . S
C126 H140 0.960 . S
C127 C124 1.511 . S
C127 H141 0.961 . S
C127 H142 0.961 . S
C127 H143 0.961 . S
C128 C129 1.370 . S
C128 C130 1.363 . S
C128 H144 0.931 . S
C129 C128 1.370 . S
C129 C133 1.408 1_545 S
C130 C128 1.363 . S
C130 C131 1.370 . S
C130 C134 1.524 . S
C131 C123 1.503 . S
C131 C130 1.370 . S
C131 C132 1.403 1_545 S
C132 C131 1.403 1_565 S
C132 C133 1.404 . S
C132 C135 1.539 . S
C133 C129 1.408 1_565 S
C133 C132 1.404 . S
C133 H145 0.930 . S
C134 C130 1.524 . S
C134 H146 0.956 . S
C134 H147 0.961 . S
C134 H148 0.961 . S
C135 C132 1.539 . S
C135 H149 0.943 1_565 S
C135 H150 0.961 . S
C135 H151 0.960 . S
H136 C120 0.931 . S
H137 C125 0.929 . S
H138 C126 0.960 . S
H139 C126 0.962 . S
H140 C126 0.960 . S
H141 C127 0.961 . S
H142 C127 0.961 . S
H143 C127 0.961 . S
H144 C128 0.931 . S
H145 C133 0.930 . S
H146 C134 0.956 . S
H147 C134 0.961 . S
H148 C134 0.961 . S
H149 C135 0.943 1_545 S
H150 C135 0.961 . S
H151 C135 0.960 . S
C152 C153 1.391 1_655 S
C152 C154 1.394 . S
C152 H168 0.931 . S
C153 C152 1.391 1_455 S
C153 C157 1.376 . S
C154 C152 1.394 . S
C154 C155 1.369 1_655 S
C154 C158 1.531 . S
C155 C154 1.369 1_455 S
C155 C156 1.410 . S
C155 C163 1.503 . S
C156 C155 1.410 . S
C156 C157 1.392 . S
C156 C159 1.511 . S
C157 C153 1.376 . S
C157 C156 1.392 . S
C157 H169 0.929 . S
C158 C154 1.531 . S
C158 H170 0.960 . S
C158 H171 0.962 . S
C158 H172 0.960 . S
C159 C156 1.511 . S
C159 H173 0.961 . S
C159 H174 0.961 . S
C159 H175 0.961 . S
C160 C161 1.370 . S
C160 C162 1.363 . S
C160 H176 0.931 . S
C161 C160 1.370 . S
C161 C165 1.408 . S
C162 C160 1.363 . S
C162 C163 1.370 . S
C162 C166 1.524 . S
C163 C155 1.503 . S
C163 C162 1.370 . S
C163 C164 1.403 . S
C164 C163 1.403 . S
C164 C165 1.404 . S
C164 C167 1.539 . S
C165 C161 1.408 . S
C165 C164 1.404 . S
C165 H177 0.930 . S
C166 C162 1.524 . S
C166 H178 0.956 . S
C166 H179 0.961 . S
C166 H180 0.961 . S
C167 C164 1.539 . S
C167 H181 0.958 1_455 S
C167 H182 0.961 . S
C167 H183 0.960 . S
H168 C152 0.931 . S
H169 C157 0.929 . S
H170 C158 0.960 . S
H171 C158 0.962 . S
H172 C158 0.960 . S
H173 C159 0.961 . S
H174 C159 0.961 . S
H175 C159 0.961 . S
H176 C160 0.931 . S
H177 C165 0.930 . S
H178 C166 0.956 . S
H179 C166 0.961 . S
H180 C166 0.961 . S
H181 C167 0.958 1_655 S
H182 C167 0.961 . S
H183 C167 0.960 . S
C184 C185 1.391 . S
C184 C186 1.394 . S
C184 H200 0.931 . S
C185 C184 1.391 . S
C185 C189 1.376 1_545 S
C186 C184 1.394 . S
C186 C187 1.369 . S
C186 C190 1.531 . S
C187 C186 1.369 . S
C187 C188 1.410 1_545 S
C187 C195 1.503 . S
C188 C187 1.410 1_565 S
C188 C189 1.392 . S
C188 C191 1.511 . S
C189 C185 1.376 1_565 S
C189 C188 1.392 . S
C189 H201 0.929 . S
C190 C186 1.531 . S
C190 H202 0.960 . S
C190 H203 0.962 . S
C190 H204 0.960 . S
C191 C188 1.511 . S
C191 H205 0.961 . S
C191 H206 0.961 . S
C191 H207 0.961 . S
C192 C193 1.370 1_565 S
C192 C194 1.363 . S
C192 H208 0.931 . S
C193 C192 1.370 1_545 S
C193 C197 1.408 . S
C194 C192 1.363 . S
C194 C195 1.370 1_565 S
C194 C198 1.524 . S
C195 C187 1.503 . S
C195 C194 1.370 1_545 S
C195 C196 1.403 . S
C196 C195 1.403 . S
C196 C197 1.404 . S
C196 C199 1.539 . S
C197 C193 1.408 . S
C197 C196 1.404 . S
C197 H209 0.930 . S
C198 C194 1.524 . S
C198 H210 0.956 . S
C198 H211 0.961 . S
C198 H212 0.961 . S
C199 C196 1.539 . S
C199 H213 0.958 . S
C199 H214 0.961 . S
C199 H215 0.960 . S
H200 C184 0.931 . S
H201 C189 0.929 . S
H202 C190 0.960 . S
H203 C190 0.962 . S
H204 C190 0.960 . S
H205 C191 0.961 . S
H206 C191 0.961 . S
H207 C191 0.961 . S
H208 C192 0.931 . S
H209 C197 0.930 . S
H210 C198 0.956 . S
H211 C198 0.961 . S
H212 C198 0.961 . S
H213 C199 0.958 . S
H214 C199 0.961 . S
H215 C199 0.960 . S
C216 C217 1.391 . S
C216 C218 1.394 . S
C216 H232 0.931 . S
C217 C216 1.391 . S
C217 C221 1.376 . S
C218 C216 1.394 . S
C218 C219 1.369 . S
C218 C222 1.531 . S
C219 C218 1.369 . S
C219 C220 1.410 . S
C219 C227 1.503 . S
C220 C219 1.410 . S
C220 C221 1.392 . S
C220 C223 1.511 . S
C221 C217 1.376 . S
C221 C220 1.392 . S
C221 H233 0.929 . S
C222 C218 1.531 . S
C222 H234 0.960 . S
C222 H235 0.962 . S
C222 H236 0.960 . S
C223 C220 1.511 . S
C223 H237 0.961 . S
C223 H238 0.961 . S
C223 H239 0.961 . S
C224 C225 1.370 . S
C224 C226 1.363 . S
C224 H240 0.931 1_455 S
C225 C224 1.370 . S
C225 C229 1.408 . S
C226 C224 1.363 . S
C226 C227 1.370 . S
C226 C230 1.524 1_455 S
C227 C219 1.503 . S
C227 C226 1.370 . S
C227 C228 1.403 . S
C228 C227 1.403 . S
C228 C229 1.404 . S
C228 C231 1.539 . S
C229 C225 1.408 . S
C229 C228 1.404 . S
C229 H241 0.930 . S
C230 C226 1.524 1_655 S
C230 H242 0.956 . S
C230 H243 0.961 . S
C230 H244 0.961 . S
C231 C228 1.539 . S
C231 H245 0.958 . S
C231 H246 0.961 . S
C231 H247 0.960 . S
H232 C216 0.931 . S
H233 C221 0.929 . S
H234 C222 0.960 . S
H235 C222 0.962 . S
H236 C222 0.960 . S
H237 C223 0.961 . S
H238 C223 0.961 . S
H239 C223 0.961 . S
H240 C224 0.931 1_655 S
H241 C229 0.930 . S
H242 C230 0.956 . S
H243 C230 0.961 . S
H244 C230 0.961 . S
H245 C231 0.958 . S
H246 C231 0.961 . S
H247 C231 0.960 . S
C248 C249 1.391 1_565 S
C248 C250 1.394 . S
C248 H264 0.931 . S
C249 C248 1.391 1_545 S
C249 C253 1.376 . S
C250 C248 1.394 . S
C250 C251 1.369 1_565 S
C250 C254 1.531 . S
C251 C250 1.369 1_545 S
C251 C252 1.410 . S
C251 C259 1.503 . S
C252 C251 1.410 . S
C252 C253 1.392 . S
C252 C255 1.511 . S
C253 C249 1.376 . S
C253 C252 1.392 . S
C253 H265 0.929 . S
C254 C250 1.531 . S
C254 H266 0.960 . S
C254 H267 0.962 . S
C254 H268 0.960 . S
C255 C252 1.511 . S
C255 H269 0.961 . S
C255 H270 0.961 . S
C255 H271 0.961 . S
C256 C257 1.370 . S
C256 C258 1.363 . S
C256 H272 0.931 1_545 S
C257 C256 1.370 . S
C257 C261 1.408 . S
C258 C256 1.363 . S
C258 C259 1.370 . S
C258 C262 1.524 1_545 S
C259 C251 1.503 . S
C259 C258 1.370 . S
C259 C260 1.403 . S
C260 C259 1.403 . S
C260 C261 1.404 . S
C260 C263 1.539 . S
C261 C257 1.408 . S
C261 C260 1.404 . S
C261 H273 0.930 . S
C262 C258 1.524 1_565 S
C262 H274 0.956 . S
C262 H275 0.961 1_565 S
C262 H276 0.961 . S
C263 C260 1.539 . S
C263 H277 0.958 . S
C263 H278 0.961 . S
C263 H279 0.960 . S
H264 C248 0.931 . S
H265 C253 0.929 . S
H266 C254 0.960 . S
H267 C254 0.962 . S
H268 C254 0.960 . S
H269 C255 0.961 . S
H270 C255 0.961 . S
H271 C255 0.961 . S
H272 C256 0.931 1_565 S
H273 C261 0.930 . S
H274 C262 0.956 . S
H275 C262 0.961 1_545 S
H276 C262 0.961 . S
H277 C263 0.958 . S
H278 C263 0.961 . S
H279 C263 0.960 . S
C280 C281 1.391 . S
C280 C282 1.394 . S
C280 H296 0.931 1_455 S
C281 C280 1.391 . S
C281 C285 1.376 . S
C282 C280 1.394 . S
C282 C283 1.369 . S
C282 C286 1.531 1_455 S
C283 C282 1.369 . S
C283 C284 1.410 . S
C283 C291 1.503 . S
C284 C283 1.410 . S
C284 C285 1.392 . S
C284 C287 1.511 . S
C285 C281 1.376 . S
C285 C284 1.392 . S
C285 H297 0.929 . S
C286 C282 1.531 1_655 S
C286 H298 0.960 . S
C286 H299 0.962 . S
C286 H300 0.960 . S
C287 C284 1.511 . S
C287 H301 0.961 . S
C287 H302 0.961 . S
C287 H303 0.961 . S
C288 C289 1.370 . S
C288 C290 1.363 . S
C288 H304 0.931 . S
C289 C288 1.370 . S
C289 C293 1.408 . S
C290 C288 1.363 . S
C290 C291 1.370 . S
C290 C294 1.524 . S
C291 C283 1.503 . S
C291 C290 1.370 . S
C291 C292 1.403 . S
C292 C291 1.403 . S
C292 C293 1.404 . S
C292 C295 1.539 . S
C293 C289 1.408 . S
C293 C292 1.404 . S
C293 H305 0.930 . S
C294 C290 1.524 . S
C294 H306 0.956 1_455 S
C294 H307 0.961 . S
C294 H308 0.961 . S
C295 C292 1.539 . S
C295 H309 0.958 . S
C295 H310 0.961 . S
C295 H311 0.960 . S
H296 C280 0.931 1_655 S
H297 C285 0.929 . S
H298 C286 0.960 . S
H299 C286 0.962 . S
H300 C286 0.960 . S
H301 C287 0.961 . S
H302 C287 0.961 . S
H303 C287 0.961 . S
H304 C288 0.931 . S
H305 C293 0.930 . S
H306 C294 0.956 1_655 S
H307 C294 0.961 . S
H308 C294 0.961 . S
H309 C295 0.958 . S
H310 C295 0.961 . S
H311 C295 0.960 . S
C65 C33 1.226 . S
C57 C13 1.457 . S
C97 C53 1.421 . S
C89 C15 1.461 . S
C129 C32 1.434 . S
C121 C1 1.469 . S
C161 C54 1.480 . S
C153 C27 1.471 . S
C193 C46 1.435 . S
C185 C0 1.468 . S
C225 C39 1.439 . S
C217 C26 1.458 . S
C257 C47 1.230 . S
C249 C12 1.456 . S
C281 C14 1.479 . S
C289 C40 1.477 . S
