# Generated by pormake.
# Topology dag, (6,3)-cn, num edge types: 1
# Building blocks:
#     Node 0, Type 0, BuildingBlock: OJICUG_clean_sbu_0, # of connection points: 6
#     Node 1, Type 0, BuildingBlock: OJICUG_clean_sbu_0, # of connection points: 6
#     Node 2, Type 0, BuildingBlock: OJICUG_clean_sbu_0, # of connection points: 6
#     Node 3, Type 0, BuildingBlock: OJICUG_clean_sbu_0, # of connection points: 6
#     Node 4, Type 1, BuildingBlock: WUSLED_clean_sbu_0, # of connection points: 3
#     Node 5, Type 1, BuildingBlock: WUSLED_clean_sbu_0, # of connection points: 3
#     Node 6, Type 1, BuildingBlock: WUSLED_clean_sbu_0, # of connection points: 3
#     Node 7, Type 1, BuildingBlock: WUSLED_clean_sbu_0, # of connection points: 3
#     Node 8, Type 1, BuildingBlock: WUSLED_clean_sbu_0, # of connection points: 3
#     Node 9, Type 1, BuildingBlock: WUSLED_clean_sbu_0, # of connection points: 3
#     Node 10, Type 1, BuildingBlock: WUSLED_clean_sbu_0, # of connection points: 3
#     Node 11, Type 1, BuildingBlock: WUSLED_clean_sbu_0, # of connection points: 3
#     Edge 12, Type (0, 1), BuildingBlock: KIFKEQ_clean_linker_1, # of connection points: 2
#     Edge 13, Type (0, 1), BuildingBlock: KIFKEQ_clean_linker_1, # of connection points: 2
#     Edge 14, Type (0, 1), BuildingBlock: KIFKEQ_clean_linker_1, # of connection points: 2
#     Edge 15, Type (0, 1), BuildingBlock: KIFKEQ_clean_linker_1, # of connection points: 2
#     Edge 16, Type (0, 1), BuildingBlock: KIFKEQ_clean_linker_1, # of connection points: 2
#     Edge 17, Type (0, 1), BuildingBlock: KIFKEQ_clean_linker_1, # of connection points: 2
#     Edge 18, Type (0, 1), BuildingBlock: KIFKEQ_clean_linker_1, # of connection points: 2
#     Edge 19, Type (0, 1), BuildingBlock: KIFKEQ_clean_linker_1, # of connection points: 2
#     Edge 20, Type (0, 1), BuildingBlock: KIFKEQ_clean_linker_1, # of connection points: 2
#     Edge 21, Type (0, 1), BuildingBlock: KIFKEQ_clean_linker_1, # of connection points: 2
#     Edge 22, Type (0, 1), BuildingBlock: KIFKEQ_clean_linker_1, # of connection points: 2
#     Edge 23, Type (0, 1), BuildingBlock: KIFKEQ_clean_linker_1, # of connection points: 2
#     Edge 24, Type (0, 1), BuildingBlock: KIFKEQ_clean_linker_1, # of connection points: 2
#     Edge 25, Type (0, 1), BuildingBlock: KIFKEQ_clean_linker_1, # of connection points: 2
#     Edge 26, Type (0, 1), BuildingBlock: KIFKEQ_clean_linker_1, # of connection points: 2
#     Edge 27, Type (0, 1), BuildingBlock: KIFKEQ_clean_linker_1, # of connection points: 2
#     Edge 28, Type (0, 1), BuildingBlock: KIFKEQ_clean_linker_1, # of connection points: 2
#     Edge 29, Type (0, 1), BuildingBlock: KIFKEQ_clean_linker_1, # of connection points: 2
#     Edge 30, Type (0, 1), BuildingBlock: KIFKEQ_clean_linker_1, # of connection points: 2
#     Edge 31, Type (0, 1), BuildingBlock: KIFKEQ_clean_linker_1, # of connection points: 2
#     Edge 32, Type (0, 1), BuildingBlock: KIFKEQ_clean_linker_1, # of connection points: 2
#     Edge 33, Type (0, 1), BuildingBlock: KIFKEQ_clean_linker_1, # of connection points: 2
#     Edge 34, Type (0, 1), BuildingBlock: KIFKEQ_clean_linker_1, # of connection points: 2
#     Edge 35, Type (0, 1), BuildingBlock: KIFKEQ_clean_linker_1, # of connection points: 2
# Relax obj value: 0.245
# Max RMSD: 0.197
# Mean RMSD: 0.163
data_MOF--net-dag--node1-OJICUG_clean_sbu_0--node2-WUSLED_clean_sbu_0--edge1-KIFKEQ_clean_linker_1
_symmetry_space_group_name_H-M    P1
_symmetry_Int_Tables_number       1
_symmetry_cell_setting            triclinic
loop_
_symmetry_equiv_pos_as_xyz
'x, y, z'
_cell_length_a     47.736036
_cell_length_b     50.03323
_cell_length_c     49.084361
_cell_angle_alpha  95.018046
_cell_angle_beta   90.267862
_cell_angle_gamma 90.142444
loop_
_atom_site_label
_atom_site_type_symbol
_atom_site_fract_x
_atom_site_fract_y
_atom_site_fract_z
_atom_type_partial_charge
Sc0 Sc 0.12713 0.85475 0.0455 0.0
Sc1 Sc 0.14509 0.78653 0.04523 0.0
Sc2 Sc 0.19186 0.8373 0.07271 0.0
O3 O 0.15473 0.82611 0.05444 0.0
C4 C 0.18469 0.88152 0.02981 0.0
C5 C 0.12053 0.81229 0.99326 0.0
C6 C 0.21021 0.78904 0.02982 0.0
C7 C 0.08628 0.81079 0.06663 0.0
C8 C 0.15016 0.87858 0.104 0.0
C9 C 0.17466 0.78578 0.10355 0.0
O10 O 0.15852 0.8776 0.02658 0.0
O11 O 0.13155 0.79261 0.00404 0.0
O12 O 0.21512 0.81096 0.04421 0.0
O13 O 0.09311 0.83483 0.06332 0.0
O14 O 0.17244 0.86469 0.10338 0.0
O15 O 0.15762 0.77599 0.08529 0.0
O16 O 0.13285 0.87755 0.08422 0.0
O17 O 0.10239 0.79095 0.06033 0.0
O18 O 0.18867 0.80711 0.10119 0.0
O19 O 0.11725 0.83524 0.00602 0.0
O20 O 0.19935 0.86917 0.0464 0.0
O21 O 0.18631 0.77763 0.02888 0.0
Sc22 Sc 0.69749 0.65848 0.48446 0.0
Sc23 Sc 0.64895 0.70788 0.51026 0.0
Sc24 Sc 0.63407 0.63932 0.51319 0.0
O25 O 0.66019 0.66863 0.50259 0.0
C26 C 0.65481 0.61625 0.4541 0.0
C27 C 0.67825 0.70816 0.452 0.0
C28 C 0.5902 0.68174 0.49283 0.0
C29 C 0.71426 0.70872 0.52596 0.0
C30 C 0.69345 0.6143 0.52721 0.0
C31 C 0.62959 0.6821 0.56472 0.0
O32 O 0.67807 0.62887 0.45549 0.0
O33 O 0.66126 0.71787 0.47011 0.0
O34 O 0.59715 0.65877 0.49966 0.0
O35 O 0.72014 0.68708 0.51157 0.0
O36 O 0.667 0.61589 0.52897 0.0
O37 O 0.63507 0.70227 0.55147 0.0
O38 O 0.70763 0.62857 0.5121 0.0
O39 O 0.68971 0.71866 0.52719 0.0
O40 O 0.62937 0.65812 0.55378 0.0
O41 O 0.69267 0.68722 0.45466 0.0
O42 O 0.63678 0.61828 0.47319 0.0
O43 O 0.60698 0.70157 0.49415 0.0
Sc44 Sc 0.8566 0.20657 0.00647 0.0
Sc45 Sc 0.80774 0.15626 0.98261 0.0
Sc46 Sc 0.87365 0.1382 0.00694 0.0
O47 O 0.84598 0.16707 0.99863 0.0
C48 C 0.91435 0.18218 0.98421 0.0
C49 C 0.82374 0.20625 0.94943 0.0
C50 C 0.84875 0.11439 0.94968 0.0
C51 C 0.79264 0.20603 0.02539 0.0
C52 C 0.88084 0.18036 0.05887 0.0
C53 C 0.81591 0.11215 0.02475 0.0
O54 O 0.89726 0.20163 0.98761 0.0
O55 O 0.811 0.1843 0.95208 0.0
O56 O 0.86859 0.11726 0.96708 0.0
O57 O 0.81729 0.21579 0.02642 0.0
O58 O 0.88081 0.15652 0.04756 0.0
O59 O 0.80012 0.12686 0.0115 0.0
O60 O 0.87406 0.20065 0.04635 0.0
O61 O 0.78597 0.18507 0.01016 0.0
O62 O 0.84244 0.11373 0.02407 0.0
O63 O 0.84035 0.21711 0.96755 0.0
O64 O 0.90867 0.15884 0.99095 0.0
O65 O 0.82535 0.12636 0.95304 0.0
Sc66 Sc 0.36804 0.36156 0.54545 0.0
Sc67 Sc 0.30588 0.34093 0.57501 0.0
Sc68 Sc 0.35478 0.29293 0.54808 0.0
O69 O 0.34285 0.33175 0.55624 0.0
C70 C 0.37331 0.31989 0.49386 0.0
C71 C 0.3075 0.38553 0.53339 0.0
C72 C 0.28983 0.29028 0.53339 0.0
C73 C 0.3483 0.38457 0.60423 0.0
C74 C 0.41298 0.31915 0.56443 0.0
C75 C 0.32654 0.2921 0.60713 0.0
O76 O 0.3703 0.344 0.50396 0.0
O77 O 0.29363 0.36855 0.54565 0.0
O78 O 0.31494 0.28249 0.5293 0.0
O79 O 0.3674 0.38111 0.58625 0.0
O80 O 0.39587 0.29984 0.56596 0.0
O81 O 0.31399 0.31439 0.6063 0.0
O82 O 0.4059 0.34138 0.55577 0.0
O83 O 0.32455 0.37287 0.60185 0.0
O84 O 0.34067 0.28131 0.58719 0.0
O85 O 0.33409 0.38617 0.53336 0.0
O86 O 0.37058 0.29978 0.50788 0.0
O87 O 0.28339 0.31002 0.55031 0.0
C88 C 0.0148 0.18194 0.28496 0.0
C89 C 0.01801 0.16512 0.2608 0.0
C90 C 0.9776 0.18547 0.2406 0.0
C91 C 0.9998 0.167 0.23884 0.0
C92 C 0.97449 0.20252 0.26481 0.0
C93 C 0.99298 0.20071 0.28689 0.0
U94 U 0.06638 0.13799 0.31552 0.0
O95 O 0.10915 0.1442 0.33101 0.0
O96 O 0.07676 0.12962 0.35783 0.0
C97 C 0.10268 0.13819 0.35576 0.0
C98 C 0.03401 0.17885 0.30798 0.0
C99 C 0.11319 0.15709 0.37807 0.0
C100 C 0.12892 0.20182 0.39452 0.0
C101 C 0.11448 0.18474 0.37522 0.0
C102 C 0.13913 0.16411 0.42074 0.0
C103 C 0.14204 0.19153 0.41707 0.0
C104 C 0.1249 0.14701 0.4013 0.0
C105 C 0.07818 0.07076 0.27182 0.0
C106 C 0.1126 0.04497 0.24428 0.0
C107 C 0.07787 0.02195 0.26945 0.0
C108 C 0.06677 0.04668 0.27963 0.0
C109 C 0.10043 0.02081 0.25103 0.0
C110 C 0.10159 0.0696 0.25448 0.0
C111 C 0.06387 0.09666 0.27882 0.0
O112 O 0.0269 0.15997 0.32368 0.0
O113 O 0.06064 0.17804 0.30124 0.0
O114 O 0.07862 0.11839 0.27575 0.0
O115 O 0.04816 0.09876 0.30087 0.0
H116 H 0.03467 0.15043 0.2589 0.0
H117 H 0.00329 0.15398 0.22037 0.0
H118 H 0.95751 0.21686 0.26686 0.0
H119 H 0.99012 0.21375 0.30548 0.0
H120 H 0.13059 0.22293 0.39139 0.0
H121 H 0.1054 0.19294 0.35748 0.0
H122 H 0.14921 0.1556 0.4378 0.0
H123 H 0.12415 0.12571 0.40377 0.0
H124 H 0.12963 0.04494 0.22978 0.0
H125 H 0.06818 0.00372 0.27529 0.0
H126 H 0.0486 0.04686 0.29277 0.0
H127 H 0.11072 0.08771 0.24772 0.0
C128 C 0.38802 0.56986 0.80025 0.0
C129 C 0.41062 0.56031 0.78406 0.0
C130 C 0.38125 0.52487 0.76203 0.0
C131 C 0.40731 0.53797 0.76523 0.0
C132 C 0.3589 0.53394 0.779 0.0
C133 C 0.36226 0.55635 0.79792 0.0
U134 U 0.42716 0.63431 0.81511 0.0
O135 O 0.41287 0.676 0.82207 0.0
O136 O 0.4383 0.65842 0.85331 0.0
C137 C 0.42294 0.67885 0.84713 0.0
C138 C 0.39065 0.5954 0.81725 0.0
C139 C 0.40277 0.68876 0.86804 0.0
C140 C 0.35818 0.68471 0.89089 0.0
C141 C 0.37795 0.67453 0.87184 0.0
C142 C 0.38816 0.72315 0.90292 0.0
C143 C 0.36294 0.70926 0.90651 0.0
C144 C 0.40789 0.71298 0.8838 0.0
C145 C 0.49022 0.64289 0.76751 0.0
C146 C 0.50865 0.68282 0.74896 0.0
C147 C 0.53459 0.64114 0.74358 0.0
C148 C 0.51399 0.62866 0.7581 0.0
C149 C 0.53174 0.66814 0.73809 0.0
C150 C 0.48805 0.67031 0.76362 0.0
C151 C 0.46683 0.62793 0.77839 0.0
O152 O 0.41301 0.59782 0.83305 0.0
O153 O 0.38605 0.61663 0.80393 0.0
O154 O 0.44158 0.63657 0.77308 0.0
O155 O 0.46972 0.62071 0.80336 0.0
H156 H 0.43063 0.57063 0.78542 0.0
H157 H 0.42504 0.53126 0.75277 0.0
H158 H 0.3385 0.52443 0.77685 0.0
H159 H 0.34452 0.56365 0.81006 0.0
H160 H 0.33886 0.67366 0.89288 0.0
H161 H 0.3737 0.65577 0.85976 0.0
H162 H 0.39267 0.7419 0.91489 0.0
H163 H 0.42702 0.72414 0.88114 0.0
H164 H 0.50603 0.70371 0.74532 0.0
H165 H 0.55186 0.62912 0.73521 0.0
H166 H 0.51597 0.60748 0.76082 0.0
H167 H 0.46991 0.68173 0.77089 0.0
C168 C 0.73937 0.91882 0.16207 0.0
C169 C 0.76611 0.92579 0.15321 0.0
C170 C 0.7474 0.96598 0.13561 0.0
C171 C 0.77011 0.94919 0.14032 0.0
C172 C 0.72042 0.95867 0.1437 0.0
C173 C 0.71646 0.93526 0.15705 0.0
U174 U 0.76591 0.85047 0.17281 0.0
O175 O 0.77744 0.83138 0.20968 0.0
O176 O 0.74545 0.81258 0.18179 0.0
C177 C 0.75844 0.81238 0.20548 0.0
C178 C 0.73583 0.8943 0.17626 0.0
C179 C 0.74121 0.80721 0.22933 0.0
C180 C 0.72697 0.81919 0.2763 0.0
C181 C 0.73927 0.82618 0.25213 0.0
C182 C 0.71641 0.77493 0.2546 0.0
C183 C 0.71612 0.79327 0.27798 0.0
C184 C 0.729 0.78182 0.23052 0.0
C185 C 0.83082 0.82972 0.12908 0.0
C186 C 0.87593 0.81053 0.1397 0.0
C187 C 0.8616 0.81235 0.09251 0.0
C188 C 0.83618 0.82388 0.10115 0.0
C189 C 0.88231 0.80672 0.11168 0.0
C190 C 0.85038 0.82189 0.14833 0.0
C191 C 0.80692 0.84717 0.13734 0.0
O192 O 0.72864 0.87267 0.16059 0.0
O193 O 0.7561 0.88996 0.19353 0.0
O194 O 0.80878 0.86037 0.16164 0.0
O195 O 0.78165 0.83779 0.13142 0.0
H196 H 0.78404 0.91318 0.15641 0.0
H197 H 0.79102 0.95411 0.13383 0.0
H198 H 0.70259 0.97128 0.14017 0.0
H199 H 0.69563 0.93006 0.16353 0.0
H200 H 0.72676 0.83377 0.29397 0.0
H201 H 0.7483 0.84602 0.25172 0.0
H202 H 0.70838 0.75474 0.25541 0.0
H203 H 0.73032 0.76689 0.2132 0.0
H204 H 0.8914 0.80656 0.15503 0.0
H205 H 0.86564 0.80917 0.07077 0.0
H206 H 0.82133 0.82962 0.08595 0.0
H207 H 0.84671 0.82598 0.17005 0.0
C208 C 0.7739 0.42399 0.66432 0.0
C209 C 0.76534 0.42166 0.63679 0.0
C210 C 0.77198 0.46963 0.63441 0.0
C211 C 0.76455 0.44421 0.62195 0.0
C212 C 0.78174 0.4717 0.66163 0.0
C213 C 0.78269 0.44904 0.67645 0.0
U214 U 0.73046 0.36465 0.67804 0.0
O215 O 0.73963 0.32445 0.69051 0.0
O216 O 0.71237 0.35176 0.71591 0.0
C217 C 0.72564 0.32869 0.71353 0.0
C218 C 0.76964 0.40146 0.68128 0.0
C219 C 0.73912 0.3206 0.73861 0.0
C220 C 0.77908 0.30412 0.76311 0.0
C221 C 0.76779 0.31438 0.73979 0.0
C222 C 0.73352 0.30722 0.78465 0.0
C223 C 0.76191 0.29991 0.78558 0.0
C224 C 0.72226 0.31733 0.76139 0.0
C225 C 0.66767 0.35151 0.62987 0.0
C226 C 0.62893 0.32199 0.63889 0.0
C227 C 0.62884 0.34578 0.59794 0.0
C228 C 0.65472 0.35723 0.60545 0.0
C229 C 0.6154 0.32833 0.61474 0.0
C230 C 0.65492 0.3335 0.6464 0.0
C231 C 0.69337 0.366 0.63858 0.0
O232 O 0.74675 0.40342 0.69606 0.0
O233 O 0.77339 0.3773 0.66895 0.0
O234 O 0.71681 0.35232 0.63585 0.0
O235 O 0.69162 0.38073 0.662 0.0
H236 H 0.75794 0.40265 0.62711 0.0
H237 H 0.75651 0.44196 0.60121 0.0
H238 H 0.78777 0.49099 0.67172 0.0
H239 H 0.78907 0.4513 0.69774 0.0
H240 H 0.80099 0.29856 0.76313 0.0
H241 H 0.7813 0.31675 0.72251 0.0
H242 H 0.71983 0.30473 0.80178 0.0
H243 H 0.70012 0.32204 0.76096 0.0
H244 H 0.61926 0.30847 0.65215 0.0
H245 H 0.61886 0.35153 0.57948 0.0
H246 H 0.66423 0.37122 0.59257 0.0
H247 H 0.66473 0.32889 0.66537 0.0
C248 C 0.51938 0.31139 0.2765 0.0
C249 C 0.52156 0.32839 0.3007 0.0
C250 C 0.4789 0.30952 0.31803 0.0
C251 C 0.50173 0.32733 0.32127 0.0
C252 C 0.47685 0.29221 0.29385 0.0
C253 C 0.49696 0.2932 0.27318 0.0
U254 U 0.57043 0.35616 0.24666 0.0
O255 O 0.61422 0.35174 0.23398 0.0
O256 O 0.58252 0.36319 0.20452 0.0
C257 C 0.60865 0.35613 0.20849 0.0
C258 C 0.53985 0.31412 0.25457 0.0
C259 C 0.621 0.33697 0.18747 0.0
C260 C 0.64142 0.29345 0.17374 0.0
C261 C 0.6264 0.31028 0.19262 0.0
C262 C 0.64433 0.32923 0.14363 0.0
C263 C 0.65101 0.30293 0.14931 0.0
C264 C 0.62954 0.34612 0.16262 0.0
C265 C 0.57396 0.42588 0.28726 0.0
C266 C 0.61355 0.4565 0.29311 0.0
C267 C 0.56814 0.46985 0.31145 0.0
C268 C 0.55689 0.44527 0.30105 0.0
C269 C 0.59678 0.47549 0.30827 0.0
C270 C 0.60221 0.43186 0.28265 0.0
C271 C 0.56248 0.39883 0.2807 0.0
O272 O 0.53281 0.33138 0.23703 0.0
O273 O 0.56596 0.31689 0.26304 0.0
O274 O 0.57903 0.37897 0.28596 0.0
O275 O 0.54873 0.39451 0.25746 0.0
H276 H 0.53858 0.34272 0.30367 0.0
H277 H 0.50439 0.34051 0.33981 0.0
H278 H 0.45944 0.27836 0.29068 0.0
H279 H 0.4948 0.2801 0.25452 0.0
H280 H 0.646 0.27317 0.17848 0.0
H281 H 0.6198 0.30269 0.21158 0.0
H282 H 0.65164 0.33714 0.12508 0.0
H283 H 0.6256 0.36666 0.15831 0.0
H284 H 0.63559 0.46037 0.29004 0.0
H285 H 0.55469 0.48378 0.32332 0.0
H286 H 0.53508 0.44093 0.30489 0.0
H287 H 0.6157 0.41711 0.27192 0.0
C288 C 0.16191 0.19769 0.88363 0.0
C289 C 0.15932 0.19606 0.91193 0.0
C290 C 0.10902 0.20349 0.90894 0.0
C291 C 0.13319 0.19915 0.92448 0.0
C292 C 0.11192 0.20614 0.88078 0.0
C293 C 0.13814 0.2033 0.86828 0.0
U294 U 0.22586 0.15356 0.87561 0.0
O295 O 0.24532 0.13331 0.839 0.0
O296 O 0.26971 0.16239 0.86559 0.0
C297 C 0.26822 0.14798 0.8419 0.0
C298 C 0.18843 0.19082 0.86952 0.0
C299 C 0.27589 0.16226 0.818 0.0
C300 C 0.26223 0.18676 0.77949 0.0
C301 C 0.25501 0.17265 0.80173 0.0
C302 C 0.31141 0.18075 0.78964 0.0
C303 C 0.29052 0.19121 0.77325 0.0
C304 C 0.30412 0.16637 0.81181 0.0
C305 C 0.22895 0.09765 0.92571 0.0
C306 C 0.24716 0.05224 0.91897 0.0
C307 C 0.22909 0.0691 0.9632 0.0
C308 C 0.22359 0.09379 0.95311 0.0
C309 C 0.24007 0.0477 0.94602 0.0
C310 C 0.24162 0.07703 0.90888 0.0
C311 C 0.21758 0.12174 0.91457 0.0
O312 O 0.21151 0.19523 0.88399 0.0
O313 O 0.18824 0.16745 0.85508 0.0
O314 O 0.20608 0.11798 0.89015 0.0
O315 O 0.23245 0.14394 0.91825 0.0
H316 H 0.17732 0.19156 0.92424 0.0
H317 H 0.13184 0.19747 0.94628 0.0
H318 H 0.09377 0.20915 0.8681 0.0
H319 H 0.13967 0.2044 0.84638 0.0
H320 H 0.24556 0.19405 0.76709 0.0
H321 H 0.23304 0.16992 0.80623 0.0
H322 H 0.33338 0.18408 0.78569 0.0
H323 H 0.32053 0.1587 0.8243 0.0
H324 H 0.256 0.03631 0.90532 0.0
H325 H 0.22302 0.06632 0.98399 0.0
H326 H 0.21367 0.10942 0.96635 0.0
H327 H 0.24601 0.07965 0.88764 0.0
C328 C 0.23254 0.57535 0.39432 0.0
C329 C 0.25094 0.57606 0.41671 0.0
C330 C 0.23425 0.53241 0.42796 0.0
C331 C 0.2518 0.5549 0.43331 0.0
C332 C 0.2156 0.53179 0.40556 0.0
C333 C 0.21475 0.55316 0.38884 0.0
U334 U 0.27183 0.63484 0.3757 0.0
O335 O 0.28436 0.64965 0.33674 0.0
O336 O 0.25975 0.67546 0.36624 0.0
C337 C 0.27099 0.6725 0.34177 0.0
C338 C 0.23366 0.59724 0.37621 0.0
C339 C 0.25391 0.68148 0.31932 0.0
C340 C 0.2243 0.67263 0.27908 0.0
C341 C 0.23868 0.66342 0.30137 0.0
C342 C 0.23963 0.718 0.29303 0.0
C343 C 0.22485 0.70003 0.27453 0.0
C344 C 0.25398 0.70879 0.31516 0.0
C345 C 0.33845 0.64813 0.41968 0.0
C346 C 0.37758 0.67697 0.41003 0.0
C347 C 0.37633 0.65564 0.45248 0.0
C348 C 0.35068 0.64383 0.44485 0.0
C349 C 0.39031 0.67211 0.43505 0.0
C350 C 0.35176 0.66508 0.4024 0.0
C351 C 0.31267 0.63347 0.41151 0.0
O352 O 0.23044 0.62138 0.38869 0.0
O353 O 0.25488 0.59574 0.35918 0.0
O354 O 0.31304 0.61998 0.38732 0.0
O355 O 0.28905 0.64625 0.41681 0.0
H356 H 0.26513 0.59284 0.42105 0.0
H357 H 0.26693 0.55585 0.44988 0.0
H358 H 0.20179 0.51478 0.40092 0.0
H359 H 0.20056 0.55221 0.3715 0.0
H360 H 0.21292 0.65833 0.26533 0.0
H361 H 0.23827 0.64222 0.30434 0.0
H362 H 0.24092 0.73914 0.28993 0.0
H363 H 0.26572 0.72299 0.32875 0.0
H364 H 0.38769 0.68969 0.39624 0.0
H365 H 0.38571 0.65096 0.47162 0.0
H366 H 0.34072 0.63069 0.45836 0.0
H367 H 0.3425 0.66866 0.38286 0.0
C368 C 0.89279 0.93539 0.75038 0.0
C369 C 0.91347 0.94477 0.76927 0.0
C370 C 0.88263 0.98073 0.78721 0.0
C371 C 0.90848 0.96728 0.78746 0.0
C372 C 0.86227 0.97165 0.76769 0.0
C373 C 0.86733 0.94913 0.74943 0.0
U374 U 0.93352 0.87138 0.73625 0.0
O375 O 0.91908 0.82965 0.72943 0.0
O376 O 0.94407 0.84722 0.69804 0.0
C377 C 0.92871 0.8268 0.70431 0.0
C378 C 0.89672 0.9099 0.73367 0.0
C379 C 0.90805 0.81696 0.6836 0.0
C380 C 0.86307 0.82136 0.6612 0.0
C381 C 0.8835 0.83155 0.67979 0.0
C382 C 0.89189 0.78223 0.64954 0.0
C383 C 0.86692 0.79647 0.64606 0.0
C384 C 0.91227 0.7924 0.66824 0.0
C385 C 0.99581 0.86109 0.78406 0.0
C386 C 0.01187 0.81897 0.7997 0.0
C387 C 0.03775 0.86002 0.81202 0.0
C388 C 0.01883 0.87421 0.79703 0.0
C389 C 0.03384 0.83244 0.81442 0.0
C390 C 0.99303 0.83319 0.78456 0.0
C391 C 0.97332 0.87726 0.77329 0.0
O392 O 0.91949 0.90812 0.71864 0.0
O393 O 0.89233 0.88859 0.74691 0.0
O394 O 0.94775 0.86942 0.77847 0.0
O395 O 0.97641 0.88438 0.74832 0.0
H396 H 0.93313 0.93415 0.77052 0.0
H397 H 0.92444 0.97345 0.80248 0.0
H398 H 0.84227 0.98173 0.7668 0.0
H399 H 0.85108 0.94202 0.73508 0.0
H400 H 0.84423 0.83294 0.65871 0.0
H401 H 0.87999 0.85063 0.69148 0.0
H402 H 0.89533 0.76289 0.63838 0.0
H403 H 0.9311 0.78088 0.67104 0.0
H404 H 0.00849 0.7977 0.80098 0.0
H405 H 0.05423 0.87106 0.82335 0.0
H406 H 0.02127 0.89574 0.79689 0.0
H407 H 0.97547 0.82264 0.77448 0.0
H408 H 0.18111 0.88781 0.15145 0.0
H409 H 0.10411 0.91021 0.1127 0.0
H410 H 0.16966 0.91807 0.19173 0.0
H411 H 0.09314 0.94044 0.15234 0.0
H412 H 0.06683 0.97919 0.23124 0.0
H413 H 0.07961 0.94109 0.19973 0.0
H414 H 0.16614 0.96667 0.20386 0.0
H415 H 0.15359 0.00414 0.23663 0.0
C416 C 0.16179 0.89911 0.15148 0.0
C417 C 0.1436 0.8966 0.12875 0.0
C418 C 0.15526 0.91645 0.17454 0.0
C419 C 0.13037 0.93148 0.17535 0.0
C420 C 0.11218 0.92874 0.1527 0.0
C421 C 0.11866 0.91155 0.12976 0.0
C422 C 0.08874 0.97626 0.22624 0.0
C423 C 0.10912 0.995 0.2362 0.0
C424 C 0.09601 0.95457 0.20784 0.0
C425 C 0.12378 0.95121 0.1988 0.0
C426 C 0.14454 0.96871 0.21036 0.0
C427 C 0.13729 0.99036 0.22892 0.0
H428 H 0.63428 0.64637 0.60304 0.0
H429 H 0.60713 0.72711 0.5923 0.0
H430 H 0.61538 0.65011 0.64901 0.0
H431 H 0.58817 0.73094 0.63881 0.0
H432 H 0.5179 0.6987 0.69662 0.0
H433 H 0.54706 0.70847 0.65821 0.0
H434 H 0.61802 0.67246 0.69566 0.0
H435 H 0.58879 0.66274 0.73431 0.0
C436 C 0.62467 0.66513 0.6107 0.0
C437 C 0.62186 0.68632 0.59392 0.0
C438 C 0.61408 0.66738 0.6372 0.0
C439 C 0.60022 0.69082 0.64755 0.0
C440 C 0.59862 0.71258 0.6313 0.0
C441 C 0.60956 0.71043 0.60475 0.0
C442 C 0.53995 0.69372 0.69719 0.0
C443 C 0.55092 0.67954 0.71832 0.0
C444 C 0.5567 0.69934 0.67512 0.0
C445 C 0.58473 0.69086 0.67371 0.0
C446 C 0.59633 0.6788 0.69597 0.0
C447 C 0.5796 0.6732 0.71806 0.0
H448 H 0.75998 0.10258 0.03413 0.0
H449 H 0.8433 0.07648 0.05418 0.0
H450 H 0.74008 0.06982 0.06295 0.0
H451 H 0.82354 0.04381 0.08217 0.0
H452 H 0.78569 0.0047 0.15031 0.0
H453 H 0.79941 0.04231 0.12496 0.0
H454 H 0.73506 0.02071 0.06476 0.0
H455 H 0.72088 0.98325 0.09076 0.0
C456 C 0.77404 0.0899 0.04459 0.0
C457 C 0.80327 0.0923 0.04187 0.0
C458 C 0.76262 0.07108 0.06102 0.0
C459 C 0.78022 0.05441 0.07511 0.0
C460 C 0.80936 0.05674 0.07215 0.0
C461 C 0.82071 0.07542 0.05585 0.0
C462 C 0.77425 0.00824 0.13185 0.0
C463 C 0.7525 0.99094 0.12226 0.0
C464 C 0.78217 0.02968 0.11725 0.0
C465 C 0.76872 0.03417 0.09253 0.0
C466 C 0.7458 0.01782 0.08376 0.0
C467 C 0.73769 0.99639 0.09858 0.0
H468 H 0.43562 0.28564 0.60029 0.0
H469 H 0.45764 0.34485 0.54495 0.0
H470 H 0.48534 0.28171 0.61275 0.0
H471 H 0.50673 0.34061 0.55702 0.0
H472 H 0.59406 0.31115 0.56435 0.0
H473 H 0.54487 0.30396 0.55204 0.0
H474 H 0.52202 0.31608 0.63716 0.0
H475 H 0.57116 0.32401 0.64958 0.0
C476 C 0.45104 0.2976 0.59067 0.0
C477 C 0.44274 0.31568 0.57179 0.0
C478 C 0.47938 0.29538 0.59781 0.0
C479 C 0.49981 0.31069 0.58565 0.0
C480 C 0.49147 0.3283 0.56643 0.0
C481 C 0.4633 0.3309 0.55973 0.0
C482 C 0.57861 0.31204 0.5805 0.0
C483 C 0.5865 0.31868 0.60789 0.0
C484 C 0.5505 0.30778 0.57344 0.0
C485 C 0.52971 0.30978 0.59364 0.0
C486 C 0.5377 0.31428 0.62122 0.0
C487 C 0.56586 0.31879 0.6283 0.0
H488 H 0.69078 0.59563 0.41411 0.0
H489 H 0.60358 0.59672 0.4376 0.0
H490 H 0.67936 0.56473 0.3741 0.0
H491 H 0.59237 0.56604 0.39791 0.0
H492 H 0.57512 0.52634 0.31483 0.0
H493 H 0.59118 0.56338 0.3468 0.0
H494 H 0.66273 0.51656 0.36778 0.0
H495 H 0.64654 0.47939 0.33621 0.0
C496 C 0.6692 0.58947 0.41066 0.0
C497 C 0.64813 0.59847 0.42918 0.0
C498 C 0.6627 0.57176 0.3878 0.0
C499 C 0.63497 0.56309 0.38283 0.0
C500 C 0.61387 0.57266 0.40096 0.0
C501 C 0.62037 0.59004 0.4239 0.0
C502 C 0.59446 0.52406 0.32602 0.0
C503 C 0.60932 0.49975 0.32325 0.0
C504 C 0.60365 0.54527 0.34429 0.0
C505 C 0.62799 0.5427 0.36004 0.0
C506 C 0.64398 0.51919 0.3558 0.0
C507 C 0.63471 0.4979 0.33763 0.0
H508 H 0.93932 0.23013 0.97482 0.0
H509 H 0.95288 0.14439 0.96679 0.0
H510 H 0.98656 0.23704 0.95766 0.0
H511 H 0.99946 0.15128 0.94917 0.0
H512 H 0.09069 0.17102 0.94715 0.0
H513 H 0.04399 0.1679 0.96586 0.0
H514 H 0.01571 0.23033 0.91687 0.0
H515 H 0.0631 0.23451 0.89911 0.0
C516 C 0.95223 0.21277 0.9692 0.0
C517 C 0.94234 0.18672 0.97241 0.0
C518 C 0.97927 0.21673 0.95929 0.0
C519 C 0.99692 0.19474 0.95234 0.0
C520 C 0.9867 0.16872 0.95495 0.0
C521 C 0.95985 0.16477 0.96491 0.0
C522 C 0.07476 0.18455 0.94076 0.0
C523 C 0.08075 0.20303 0.92158 0.0
C524 C 0.0478 0.18245 0.9512 0.0
C525 C 0.02598 0.19859 0.94258 0.0
C526 C 0.03205 0.21764 0.924 0.0
C527 C 0.05915 0.21983 0.9136 0.0
H528 H 0.32599 0.43546 0.52537 0.0
H529 H 0.25531 0.3822 0.50926 0.0
H530 H 0.30248 0.4697 0.50143 0.0
H531 H 0.23189 0.4167 0.48454 0.0
H532 H 0.23357 0.47848 0.41129 0.0
H533 H 0.24648 0.44157 0.43848 0.0
H534 H 0.25512 0.49746 0.51007 0.0
H535 H 0.24133 0.53418 0.48339 0.0
C536 C 0.30542 0.43105 0.51666 0.0
C537 C 0.2925 0.40613 0.51916 0.0
C538 C 0.29191 0.45073 0.50312 0.0
C539 C 0.26536 0.44583 0.49132 0.0
C540 C 0.25236 0.42089 0.49356 0.0
C541 C 0.26569 0.40128 0.50772 0.0
C542 C 0.23732 0.48279 0.433 0.0
C543 C 0.23693 0.50938 0.44505 0.0
C544 C 0.24476 0.46165 0.44852 0.0
C545 C 0.2521 0.46682 0.47621 0.0
C546 C 0.24987 0.49305 0.48865 0.0
C547 C 0.24214 0.51406 0.4733 0.0
H548 H 0.14314 0.78406 0.948 0.0
H549 H 0.07193 0.83191 0.97569 0.0
H550 H 0.12428 0.78123 0.9009 0.0
H551 H 0.05297 0.82843 0.92941 0.0
H552 H 0.01288 0.80039 0.85144 0.0
H553 H 0.03577 0.78815 0.89301 0.0
H554 H 0.11308 0.8232 0.86793 0.0
H555 H 0.09022 0.8355 0.82599 0.0
C556 C 0.12333 0.79356 0.94406 0.0
C557 C 0.10901 0.80835 0.9653 0.0
C558 C 0.11264 0.79197 0.91726 0.0
C559 C 0.08711 0.80442 0.91174 0.0
C560 C 0.07251 0.81839 0.93323 0.0
C561 C 0.08346 0.82055 0.95963 0.0
C562 C 0.03504 0.80456 0.85416 0.0
C563 C 0.04968 0.81918 0.83556 0.0
C564 C 0.04808 0.79764 0.87803 0.0
C565 C 0.07605 0.80492 0.88364 0.0
C566 C 0.09151 0.81725 0.86393 0.0
C567 C 0.07838 0.82445 0.84009 0.0
H568 H 0.89606 0.08619 0.93456 0.0
H569 H 0.81177 0.10169 0.90744 0.0
H570 H 0.90337 0.05597 0.89375 0.0
H571 H 0.8194 0.07168 0.86624 0.0
H572 H 0.83413 0.98975 0.81596 0.0
H573 H 0.82548 0.02365 0.85369 0.0
H574 H 0.90863 0.05579 0.84441 0.0
H575 H 0.9173 0.02184 0.80665 0.0
C576 C 0.8791 0.0833 0.91986 0.0
C577 C 0.85325 0.09634 0.92444 0.0
C578 C 0.88341 0.0661 0.8963 0.0
C579 C 0.86201 0.06147 0.87668 0.0
C580 C 0.83622 0.07463 0.8811 0.0
C581 C 0.8319 0.0919 0.90468 0.0
C582 C 0.85038 0.00437 0.82161 0.0
C583 C 0.87647 0.003 0.80838 0.0
C584 C 0.84542 0.02379 0.84327 0.0
C585 C 0.86644 0.0423 0.8522 0.0
C586 C 0.89219 0.0415 0.83836 0.0
C587 C 0.89715 0.02208 0.81671 0.0
H588 H 0.36387 0.35178 0.45246 0.0
H589 H 0.40339 0.27772 0.47027 0.0
H590 H 0.38344 0.34703 0.40658 0.0
H591 H 0.42427 0.27361 0.42497 0.0
H592 H 0.45247 0.26623 0.33769 0.0
H593 H 0.4211 0.26652 0.37691 0.0
H594 H 0.42747 0.35304 0.38812 0.0
H595 H 0.45694 0.35275 0.34819 0.0
C596 C 0.37668 0.33442 0.44649 0.0
C597 C 0.38235 0.31529 0.46505 0.0
C598 C 0.38807 0.33175 0.42024 0.0
C599 C 0.40594 0.31019 0.4121 0.0
C600 C 0.41043 0.29035 0.43028 0.0
C601 C 0.39858 0.29277 0.45639 0.0
C602 C 0.44657 0.28531 0.34818 0.0
C603 C 0.45758 0.30943 0.34004 0.0
C604 C 0.42886 0.28548 0.37089 0.0
C605 C 0.42186 0.30978 0.38598 0.0
C606 C 0.43198 0.33391 0.37699 0.0
C607 C 0.44937 0.33374 0.35425 0.0
H608 H 0.1625 0.90623 0.9873 0.0
H609 H 0.23709 0.90409 0.03736 0.0
H610 H 0.18187 0.94339 0.96495 0.0
H611 H 0.25678 0.94132 0.01444 0.0
H612 H 0.25522 0.0326 0.99654 0.0
H613 H 0.2464 0.9894 0.01439 0.0
H614 H 0.2179 0.95715 0.93452 0.0
H615 H 0.22548 0.00055 0.91698 0.0
C616 C 0.18323 0.91344 0.99332 0.0
C617 C 0.19809 0.90228 0.01436 0.0
C618 C 0.19448 0.93465 0.98027 0.0
C619 C 0.22091 0.94535 0.98788 0.0
C620 C 0.23627 0.93366 0.00827 0.0
C621 C 0.22503 0.91225 0.0213 0.0
C622 C 0.24737 0.01619 0.98271 0.0
C623 C 0.24065 0.02022 0.95543 0.0
C624 C 0.24259 0.99133 0.99288 0.0
C625 C 0.23103 0.96993 0.97597 0.0
C626 C 0.22635 0.97338 0.9482 0.0
C627 C 0.23105 0.99822 0.93805 0.0
H628 H 0.54461 0.65564 0.50966 0.0
H629 H 0.56954 0.71603 0.45677 0.0
H630 H 0.49611 0.66014 0.4954 0.0
H631 H 0.52047 0.72007 0.44191 0.0
H632 H 0.43589 0.67497 0.4015 0.0
H633 H 0.48459 0.68333 0.41548 0.0
H634 H 0.45842 0.69935 0.49929 0.0
H635 H 0.40968 0.69194 0.4854 0.0
C636 C 0.5397 0.66989 0.49494 0.0
C637 C 0.56086 0.68542 0.48424 0.0
C638 C 0.5119 0.6726 0.48697 0.0
C639 C 0.50462 0.69057 0.46773 0.0
C640 C 0.52566 0.70615 0.45687 0.0
C641 C 0.55359 0.70387 0.46537 0.0
C642 C 0.44036 0.68119 0.42276 0.0
C643 C 0.41892 0.68227 0.44243 0.0
C644 C 0.46827 0.68594 0.43073 0.0
C645 C 0.47516 0.69163 0.45846 0.0
C646 C 0.45359 0.69468 0.4778 0.0
C647 C 0.42575 0.69025 0.46985 0.0
H648 H 0.31169 0.40146 0.64505 0.0
H649 H 0.39739 0.41042 0.61907 0.0
H650 H 0.32018 0.43418 0.68397 0.0
H651 H 0.40596 0.4426 0.6583 0.0
H652 H 0.40006 0.52309 0.70958 0.0
H653 H 0.39268 0.48806 0.67274 0.0
H654 H 0.34529 0.44208 0.72723 0.0
H655 H 0.35261 0.47743 0.76426 0.0
C656 C 0.33241 0.4102 0.64773 0.0
C657 C 0.35377 0.40344 0.62873 0.0
C658 C 0.33731 0.42885 0.67018 0.0
C659 C 0.3637 0.44113 0.67418 0.0
C660 C 0.38524 0.43387 0.65555 0.0
C661 C 0.38034 0.41531 0.6331 0.0
C662 C 0.3884 0.50535 0.71385 0.0
C663 C 0.37708 0.50297 0.73992 0.0
C664 C 0.38416 0.48524 0.6927 0.0
C665 C 0.36852 0.46217 0.69705 0.0
C666 C 0.35719 0.45973 0.72313 0.0
C667 C 0.3614 0.47994 0.74434 0.0
H668 H 0.04961 0.84856 0.08761 0.0
H669 H 0.05741 0.76291 0.06794 0.0
H670 H 0.00041 0.84296 0.09756 0.0
H671 H 0.00747 0.75745 0.07843 0.0
H672 H 0.92024 0.77147 0.13146 0.0
H673 H 0.97064 0.76873 0.12156 0.0
H674 H 0.96069 0.82683 0.06231 0.0
H675 H 0.91103 0.83001 0.07228 0.0
C676 C 0.04096 0.82845 0.08564 0.0
C677 C 0.05746 0.80622 0.07649 0.0
C678 C 0.0127 0.8253 0.09132 0.0
C679 C 0.00014 0.79986 0.08825 0.0
C680 C 0.01676 0.77729 0.08079 0.0
C681 C 0.04527 0.78045 0.07484 0.0
C682 C 0.92881 0.78333 0.11604 0.0
C683 C 0.91159 0.80103 0.10275 0.0
C684 C 0.95754 0.78161 0.1103 0.0
C685 C 0.96944 0.7978 0.09142 0.0
C686 C 0.952 0.8143 0.07712 0.0
C687 C 0.92345 0.81589 0.08267 0.0
H688 H 0.748 0.59676 0.52304 0.0
H689 H 0.6719 0.58835 0.569 0.0
H690 H 0.77109 0.56421 0.55008 0.0
H691 H 0.69484 0.556 0.59562 0.0
H692 H 0.74808 0.51649 0.65515 0.0
H693 H 0.73258 0.55378 0.63014 0.0
H694 H 0.76655 0.51474 0.55562 0.0
H695 H 0.78272 0.47759 0.58082 0.0
C696 C 0.73624 0.5881 0.53893 0.0
C697 C 0.70805 0.59511 0.54375 0.0
C698 C 0.74944 0.56941 0.55432 0.0
C699 C 0.73483 0.55768 0.57507 0.0
C700 C 0.70681 0.56499 0.58008 0.0
C701 C 0.69358 0.58338 0.5646 0.0
C702 C 0.75294 0.51615 0.63359 0.0
C703 C 0.76651 0.49399 0.61994 0.0
C704 C 0.74377 0.5374 0.61921 0.0
C705 C 0.74804 0.53703 0.59086 0.0
C706 C 0.76302 0.51563 0.57747 0.0
C707 C 0.77208 0.49428 0.59185 0.0
H708 H 0.91137 0.22179 0.08414 0.0
H709 H 0.8697 0.14782 0.0988 0.0
H710 H 0.93074 0.2248 0.13047 0.0
H711 H 0.88736 0.15153 0.14551 0.0
H712 H 0.95632 0.14331 0.20801 0.0
H713 H 0.92987 0.14442 0.16609 0.0
H714 H 0.92598 0.23101 0.17844 0.0
H715 H 0.95454 0.22986 0.21978 0.0
C716 C 0.90584 0.20654 0.09755 0.0
C717 C 0.88949 0.18434 0.08783 0.0
C718 C 0.91678 0.2083 0.12418 0.0
C719 C 0.91106 0.18816 0.14175 0.0
C720 C 0.89303 0.16697 0.1324 0.0
C721 C 0.88273 0.16489 0.10566 0.0
C722 C 0.94999 0.16264 0.20177 0.0
C723 C 0.95805 0.18652 0.21702 0.0
C724 C 0.9343 0.16329 0.17785 0.0
C725 C 0.92568 0.18784 0.16865 0.0
C726 C 0.9326 0.21174 0.1846 0.0
C727 C 0.94867 0.21109 0.20852 0.0
H728 H 0.19876 0.80612 0.15142 0.0
H729 H 0.15916 0.73448 0.1132 0.0
H730 H 0.20643 0.78373 0.19275 0.0
H731 H 0.16687 0.71203 0.15498 0.0
H732 H 0.22499 0.67655 0.22193 0.0
H733 H 0.20893 0.69607 0.18072 0.0
H734 H 0.17907 0.7657 0.23018 0.0
H735 H 0.19477 0.74613 0.27137 0.0
C736 C 0.1916 0.78559 0.15183 0.0
C737 C 0.17844 0.77207 0.1289 0.0
C738 C 0.19579 0.77284 0.17566 0.0
C739 C 0.18712 0.74617 0.17716 0.0
C740 C 0.17384 0.73258 0.15434 0.0
C741 C 0.16935 0.74547 0.13049 0.0
C742 C 0.21438 0.69572 0.22407 0.0
C743 C 0.21151 0.70995 0.24991 0.0
C744 C 0.20521 0.7069 0.20045 0.0
C745 C 0.1931 0.73257 0.20222 0.0
C746 C 0.18883 0.74611 0.22816 0.0
C747 C 0.19786 0.73491 0.25173 0.0
H748 H 0.76798 0.69155 0.53327 0.0
H749 H 0.71201 0.75752 0.55601 0.0
H750 H 0.80469 0.71363 0.56148 0.0
H751 H 0.74906 0.77989 0.5837 0.0
H752 H 0.81066 0.79521 0.65556 0.0
H753 H 0.77405 0.77496 0.62573 0.0
H754 H 0.83609 0.75159 0.56442 0.0
H755 H 0.87278 0.77161 0.59449 0.0
C756 C 0.76354 0.71088 0.54406 0.0
C757 C 0.73694 0.72269 0.54239 0.0
C758 C 0.7847 0.72362 0.56014 0.0
C759 C 0.77985 0.74854 0.57487 0.0
C760 C 0.75338 0.76052 0.57293 0.0
C761 C 0.73217 0.74774 0.55693 0.0
C762 C 0.81643 0.78602 0.63558 0.0
C763 C 0.8446 0.78499 0.62737 0.0
C764 C 0.79544 0.77444 0.61845 0.0
C765 C 0.80212 0.76163 0.59267 0.0
C766 C 0.83028 0.76091 0.58432 0.0
C767 C 0.85129 0.77241 0.60151 0.0
H768 H 0.73559 0.19998 0.02153 0.0
H769 H 0.80051 0.24252 0.06949 0.0
H770 H 0.70002 0.22202 0.05132 0.0
H771 H 0.76499 0.26434 0.09911 0.0
H772 H 0.69632 0.27421 0.16353 0.0
H773 H 0.72961 0.24965 0.13325 0.0
H774 H 0.68195 0.27002 0.06304 0.0
H775 H 0.64842 0.29455 0.09343 0.0
C776 C 0.74228 0.21398 0.0384 0.0
C777 C 0.77091 0.21948 0.04312 0.0
C778 C 0.72191 0.22666 0.05534 0.0
C779 C 0.72979 0.24477 0.07756 0.0
C780 C 0.75836 0.25023 0.0823 0.0
C781 C 0.77867 0.23786 0.06519 0.0
C782 C 0.6927 0.27309 0.14165 0.0
C783 C 0.66977 0.28627 0.13082 0.0
C784 C 0.71189 0.25926 0.12434 0.0
C785 C 0.70843 0.25809 0.09583 0.0
C786 C 0.68504 0.27053 0.08496 0.0
C787 C 0.66598 0.28467 0.10231 0.0
H788 H 0.336 0.23894 0.61303 0.0
H789 H 0.31146 0.31314 0.65815 0.0
H790 H 0.32887 0.21517 0.6537 0.0
H791 H 0.30547 0.28967 0.69907 0.0
H792 H 0.26408 0.23551 0.75657 0.0
H793 H 0.27418 0.25952 0.71694 0.0
H794 H 0.34522 0.20787 0.69812 0.0
H795 H 0.33388 0.18257 0.73686 0.0
C796 C 0.32946 0.25025 0.63174 0.0
C797 C 0.32404 0.27789 0.63227 0.0
C798 C 0.32552 0.23664 0.65514 0.0
C799 C 0.31639 0.25042 0.67972 0.0
C800 C 0.31187 0.27825 0.68039 0.0
C801 C 0.31545 0.29177 0.65693 0.0
C802 C 0.28167 0.229 0.74383 0.0
C803 C 0.29796 0.20687 0.74984 0.0
C804 C 0.28777 0.24311 0.72128 0.0
C805 C 0.31058 0.23573 0.70424 0.0
C806 C 0.32726 0.21393 0.71054 0.0
C807 C 0.32098 0.19962 0.73301 0.0
H808 H 0.64134 0.74125 0.42832 0.0
H809 H 0.72392 0.70649 0.41898 0.0
H810 H 0.64836 0.76407 0.38657 0.0
H811 H 0.73093 0.72959 0.37782 0.0
H812 H 0.74479 0.79996 0.32597 0.0
H813 H 0.73389 0.78096 0.36885 0.0
H814 H 0.65753 0.74696 0.33326 0.0
H815 H 0.66856 0.76585 0.29001 0.0
C816 C 0.66097 0.73858 0.41745 0.0
C817 C 0.68208 0.72208 0.42691 0.0
C818 C 0.66489 0.75153 0.39358 0.0
C819 C 0.69022 0.74864 0.3792 0.0
C820 C 0.71131 0.73229 0.38872 0.0
C821 C 0.70721 0.71897 0.41218 0.0
C822 C 0.7254 0.78888 0.32744 0.0
C823 C 0.70749 0.78437 0.3047 0.0
C824 C 0.7193 0.77787 0.35188 0.0
C825 C 0.69497 0.76246 0.3542 0.0
C826 C 0.67637 0.75889 0.33192 0.0
C827 C 0.68272 0.76955 0.30724 0.0
H828 H 0.83501 0.25855 0.93993 0.0
H829 H 0.80017 0.18458 0.90186 0.0
H830 H 0.82194 0.28136 0.89967 0.0
H831 H 0.78786 0.20709 0.86166 0.0
H832 H 0.73616 0.2614 0.81247 0.0
H833 H 0.75322 0.23947 0.85142 0.0
H834 H 0.83033 0.28481 0.85068 0.0
H835 H 0.81261 0.30778 0.81207 0.0
C836 C 0.82491 0.24708 0.92287 0.0
C837 C 0.81825 0.21984 0.9243 0.0
C838 C 0.81754 0.26013 0.89976 0.0
C839 C 0.8035 0.24614 0.87761 0.0
C840 C 0.79802 0.21863 0.87863 0.0
C841 C 0.80518 0.20569 0.90169 0.0
C842 C 0.75662 0.267 0.82077 0.0
C843 C 0.77292 0.28652 0.80927 0.0
C844 C 0.76659 0.25411 0.84289 0.0
C845 C 0.79325 0.26021 0.85406 0.0
C846 C 0.80964 0.27976 0.84264 0.0
C847 C 0.7996 0.29273 0.82039 0.0
H848 H 0.29491 0.25691 0.4866 0.0
H849 H 0.23341 0.29175 0.54348 0.0
H850 H 0.25757 0.23459 0.45919 0.0
H851 H 0.19606 0.26919 0.51592 0.0
H852 H 0.14527 0.19556 0.47305 0.0
H853 H 0.18029 0.22035 0.502 0.0
H854 H 0.21712 0.25015 0.43036 0.0
H855 H 0.18237 0.22539 0.40151 0.0
C856 C 0.27346 0.25972 0.49334 0.0
C857 C 0.26715 0.27615 0.51722 0.0
C858 C 0.25208 0.24709 0.47753 0.0
C859 C 0.22396 0.25032 0.4854 0.0
C860 C 0.21759 0.26633 0.50948 0.0
C861 C 0.23897 0.2793 0.52514 0.0
C862 C 0.16072 0.20762 0.46359 0.0
C863 C 0.1611 0.2086 0.43506 0.0
C864 C 0.18062 0.22187 0.48012 0.0
C865 C 0.20147 0.23697 0.46834 0.0
C866 C 0.20141 0.23844 0.43991 0.0
C867 C 0.18136 0.22451 0.42345 0.0
H868 H 0.26329 0.8085 0.02379 0.0
H869 H 0.20943 0.74136 0.99761 0.0
H870 H 0.3007 0.78875 0.99523 0.0
H871 H 0.24687 0.72188 0.96876 0.0
H872 H 0.33024 0.68276 0.94129 0.0
H873 H 0.29376 0.70151 0.97193 0.0
H874 H 0.31035 0.78033 0.94609 0.0
H875 H 0.34657 0.76163 0.91532 0.0
C876 C 0.25938 0.78952 0.01201 0.0
C877 C 0.23325 0.77658 0.013 0.0
C878 C 0.28082 0.77829 0.99551 0.0
C879 C 0.27671 0.75381 0.97967 0.0
C880 C 0.25077 0.74064 0.98094 0.0
C881 C 0.22926 0.75191 0.99738 0.0
C882 C 0.32599 0.70406 0.94203 0.0
C883 C 0.34135 0.7207 0.92586 0.0
C884 C 0.30511 0.71479 0.95959 0.0
C885 C 0.2992 0.74239 0.96144 0.0
C886 C 0.31471 0.75904 0.94545 0.0
C887 C 0.3355 0.74832 0.92784 0.0
loop_
_geom_bond_atom_site_label_1
_geom_bond_atom_site_label_2
_geom_bond_distance
_geom_bond_site_symmetry_2
_ccdc_geom_bond_type
Sc0 O3 2.025 . S
Sc0 O10 2.105 . S
Sc0 O13 2.105 . S
Sc0 O16 2.105 . S
Sc0 O19 2.105 . S
Sc1 O3 2.025 . S
Sc1 O11 2.105 . S
Sc1 O15 2.105 . S
Sc1 O17 2.105 . S
Sc1 O21 2.105 . S
Sc2 O3 2.025 . S
Sc2 O12 2.105 . S
Sc2 O14 2.105 . S
Sc2 O18 2.105 . S
Sc2 O20 2.105 . S
O3 Sc0 2.025 . S
O3 Sc1 2.025 . S
O3 Sc2 2.025 . S
C4 O10 1.268 . S
C4 O20 1.268 . S
C5 O11 1.268 1_556 S
C5 O19 1.268 1_556 S
C6 O12 1.268 . S
C6 O21 1.268 . S
C7 O13 1.268 . S
C7 O17 1.268 . S
C8 O14 1.268 . S
C8 O16 1.268 . S
C9 O15 1.268 . S
C9 O18 1.268 . S
O10 Sc0 2.105 . S
O10 C4 1.268 . S
O11 Sc1 2.105 . S
O11 C5 1.268 1_554 S
O12 Sc2 2.105 . S
O12 C6 1.268 . S
O13 Sc0 2.105 . S
O13 C7 1.268 . S
O14 Sc2 2.105 . S
O14 C8 1.268 . S
O15 Sc1 2.105 . S
O15 C9 1.268 . S
O16 Sc0 2.105 . S
O16 C8 1.268 . S
O17 Sc1 2.105 . S
O17 C7 1.268 . S
O18 Sc2 2.105 . S
O18 C9 1.268 . S
O19 Sc0 2.105 . S
O19 C5 1.268 1_554 S
O20 Sc2 2.105 . S
O20 C4 1.268 . S
O21 Sc1 2.105 . S
O21 C6 1.268 . S
Sc22 O25 2.025 . S
Sc22 O32 2.105 . S
Sc22 O35 2.105 . S
Sc22 O38 2.105 . S
Sc22 O41 2.105 . S
Sc23 O25 2.025 . S
Sc23 O33 2.105 . S
Sc23 O37 2.105 . S
Sc23 O39 2.105 . S
Sc23 O43 2.105 . S
Sc24 O25 2.025 . S
Sc24 O34 2.105 . S
Sc24 O36 2.105 . S
Sc24 O40 2.105 . S
Sc24 O42 2.105 . S
O25 Sc22 2.025 . S
O25 Sc23 2.025 . S
O25 Sc24 2.025 . S
C26 O32 1.268 . S
C26 O42 1.268 . S
C27 O33 1.268 . S
C27 O41 1.268 . S
C28 O34 1.268 . S
C28 O43 1.268 . S
C29 O35 1.268 . S
C29 O39 1.268 . S
C30 O36 1.268 . S
C30 O38 1.268 . S
C31 O37 1.268 . S
C31 O40 1.268 . S
O32 Sc22 2.105 . S
O32 C26 1.268 . S
O33 Sc23 2.105 . S
O33 C27 1.268 . S
O34 Sc24 2.105 . S
O34 C28 1.268 . S
O35 Sc22 2.105 . S
O35 C29 1.268 . S
O36 Sc24 2.105 . S
O36 C30 1.268 . S
O37 Sc23 2.105 . S
O37 C31 1.268 . S
O38 Sc22 2.105 . S
O38 C30 1.268 . S
O39 Sc23 2.105 . S
O39 C29 1.268 . S
O40 Sc24 2.105 . S
O40 C31 1.268 . S
O41 Sc22 2.105 . S
O41 C27 1.268 . S
O42 Sc24 2.105 . S
O42 C26 1.268 . S
O43 Sc23 2.105 . S
O43 C28 1.268 . S
Sc44 O47 2.025 . S
Sc44 O54 2.105 1_554 S
Sc44 O57 2.105 . S
Sc44 O60 2.105 . S
Sc44 O63 2.105 1_554 S
Sc45 O47 2.025 1_556 S
Sc45 O55 2.105 . S
Sc45 O59 2.105 1_556 S
Sc45 O61 2.105 1_556 S
Sc45 O65 2.105 . S
Sc46 O47 2.025 . S
Sc46 O56 2.105 1_554 S
Sc46 O58 2.105 . S
Sc46 O62 2.105 . S
Sc46 O64 2.105 1_554 S
O47 Sc44 2.025 . S
O47 Sc45 2.025 1_554 S
O47 Sc46 2.025 . S
C48 O54 1.268 . S
C48 O64 1.268 . S
C49 O55 1.268 . S
C49 O63 1.268 . S
C50 O56 1.268 . S
C50 O65 1.268 . S
C51 O57 1.268 . S
C51 O61 1.268 . S
C52 O58 1.268 . S
C52 O60 1.268 . S
C53 O59 1.268 . S
C53 O62 1.268 . S
O54 Sc44 2.105 1_556 S
O54 C48 1.268 . S
O55 Sc45 2.105 . S
O55 C49 1.268 . S
O56 Sc46 2.105 1_556 S
O56 C50 1.268 . S
O57 Sc44 2.105 . S
O57 C51 1.268 . S
O58 Sc46 2.105 . S
O58 C52 1.268 . S
O59 Sc45 2.105 1_554 S
O59 C53 1.268 . S
O60 Sc44 2.105 . S
O60 C52 1.268 . S
O61 Sc45 2.105 1_554 S
O61 C51 1.268 . S
O62 Sc46 2.105 . S
O62 C53 1.268 . S
O63 Sc44 2.105 1_556 S
O63 C49 1.268 . S
O64 Sc46 2.105 1_556 S
O64 C48 1.268 . S
O65 Sc45 2.105 . S
O65 C50 1.268 . S
Sc66 O69 2.025 . S
Sc66 O76 2.105 . S
Sc66 O79 2.105 . S
Sc66 O82 2.105 . S
Sc66 O85 2.105 . S
Sc67 O69 2.025 . S
Sc67 O77 2.105 . S
Sc67 O81 2.105 . S
Sc67 O83 2.105 . S
Sc67 O87 2.105 . S
Sc68 O69 2.025 . S
Sc68 O78 2.105 . S
Sc68 O80 2.105 . S
Sc68 O84 2.105 . S
Sc68 O86 2.105 . S
O69 Sc66 2.025 . S
O69 Sc67 2.025 . S
O69 Sc68 2.025 . S
C70 O76 1.268 . S
C70 O86 1.268 . S
C71 O77 1.268 . S
C71 O85 1.268 . S
C72 O78 1.268 . S
C72 O87 1.268 . S
C73 O79 1.268 . S
C73 O83 1.268 . S
C74 O80 1.268 . S
C74 O82 1.268 . S
C75 O81 1.268 . S
C75 O84 1.268 . S
O76 Sc66 2.105 . S
O76 C70 1.268 . S
O77 Sc67 2.105 . S
O77 C71 1.268 . S
O78 Sc68 2.105 . S
O78 C72 1.268 . S
O79 Sc66 2.105 . S
O79 C73 1.268 . S
O80 Sc68 2.105 . S
O80 C74 1.268 . S
O81 Sc67 2.105 . S
O81 C75 1.268 . S
O82 Sc66 2.105 . S
O82 C74 1.268 . S
O83 Sc67 2.105 . S
O83 C73 1.268 . S
O84 Sc68 2.105 . S
O84 C75 1.268 . S
O85 Sc66 2.105 . S
O85 C71 1.268 . S
O86 Sc68 2.105 . S
O86 C70 1.268 . S
O87 Sc67 2.105 . S
O87 C72 1.268 . S
C88 C89 1.264 . S
C88 C93 1.479 . S
C88 C98 1.465 1_655 S
C89 C88 1.264 . S
C89 C91 1.339 . S
C89 H116 0.931 . S
C90 C91 1.395 . S
C90 C92 1.320 . S
C91 C89 1.339 . S
C91 C90 1.395 . S
C91 H117 0.929 . S
C92 C90 1.320 . S
C92 C93 1.405 . S
C92 H118 0.930 . S
C93 C88 1.479 . S
C93 C92 1.405 . S
C93 H119 0.931 . S
U94 O95 2.454 . S
U94 O96 2.458 . S
U94 C97 2.984 . S
U94 C98 2.847 . S
U94 C111 2.882 . S
U94 O112 2.441 . S
U94 O113 2.420 . S
U94 O114 2.455 . S
U94 O115 2.449 . S
O95 U94 2.454 . S
O95 C97 1.353 . S
O96 U94 2.458 . S
O96 C97 1.286 . S
C97 U94 2.984 . S
C97 O95 1.353 . S
C97 O96 1.286 . S
C97 C99 1.363 . S
C98 C88 1.465 1_455 S
C98 U94 2.847 . S
C98 O112 1.249 . S
C98 O113 1.202 . S
C99 C97 1.363 . S
C99 C101 1.408 . S
C99 C104 1.342 . S
C100 C101 1.310 . S
C100 C103 1.461 . S
C100 H120 0.932 . S
C101 C99 1.408 . S
C101 C100 1.310 . S
C101 H121 0.930 . S
C102 C103 1.474 . S
C102 C104 1.285 . S
C102 H122 0.929 . S
C103 C100 1.461 . S
C103 C102 1.474 . S
C104 C99 1.342 . S
C104 C102 1.285 . S
C104 H123 0.930 . S
C105 C108 1.424 . S
C105 C110 1.245 . S
C105 C111 1.428 . S
C106 C109 1.260 1_545 S
C106 C110 1.477 . S
C106 H124 0.932 . S
C107 C108 1.384 . S
C107 C109 1.479 1_545 S
C107 H125 0.929 . S
C108 C105 1.424 . S
C108 C107 1.384 . S
C108 H126 0.928 . S
C109 C106 1.260 1_565 S
C109 C107 1.479 1_565 S
C110 C105 1.245 . S
C110 C106 1.477 . S
C110 H127 0.932 . S
C111 U94 2.882 . S
C111 C105 1.428 . S
C111 O114 1.301 . S
C111 O115 1.282 . S
O112 U94 2.441 . S
O112 C98 1.249 . S
O113 U94 2.420 . S
O113 C98 1.202 . S
O114 U94 2.455 . S
O114 C111 1.301 . S
O115 U94 2.449 . S
O115 C111 1.282 . S
H116 C89 0.931 . S
H117 C91 0.929 . S
H118 C92 0.930 . S
H119 C93 0.931 . S
H120 C100 0.932 . S
H121 C101 0.930 . S
H122 C102 0.929 . S
H123 C104 0.930 . S
H124 C106 0.932 . S
H125 C107 0.929 . S
H126 C108 0.928 . S
H127 C110 0.932 . S
C128 C129 1.264 . S
C128 C133 1.479 . S
C128 C138 1.465 . S
C129 C128 1.264 . S
C129 C131 1.339 . S
C129 H156 0.931 . S
C130 C131 1.395 . S
C130 C132 1.320 . S
C131 C129 1.339 . S
C131 C130 1.395 . S
C131 H157 0.929 . S
C132 C130 1.320 . S
C132 C133 1.405 . S
C132 H158 0.930 . S
C133 C128 1.479 . S
C133 C132 1.405 . S
C133 H159 0.931 . S
U134 O135 2.454 . S
U134 O136 2.458 . S
U134 C137 2.984 . S
U134 C138 2.847 . S
U134 C151 2.882 . S
U134 O152 2.441 . S
U134 O153 2.420 . S
U134 O154 2.455 . S
U134 O155 2.449 . S
O135 U134 2.454 . S
O135 C137 1.353 . S
O136 U134 2.458 . S
O136 C137 1.286 . S
C137 U134 2.984 . S
C137 O135 1.353 . S
C137 O136 1.286 . S
C137 C139 1.363 . S
C138 C128 1.465 . S
C138 U134 2.847 . S
C138 O152 1.249 . S
C138 O153 1.202 . S
C139 C137 1.363 . S
C139 C141 1.408 . S
C139 C144 1.342 . S
C140 C141 1.310 . S
C140 C143 1.461 . S
C140 H160 0.932 . S
C141 C139 1.408 . S
C141 C140 1.310 . S
C141 H161 0.930 . S
C142 C143 1.474 . S
C142 C144 1.285 . S
C142 H162 0.929 . S
C143 C140 1.461 . S
C143 C142 1.474 . S
C144 C139 1.342 . S
C144 C142 1.285 . S
C144 H163 0.930 . S
C145 C148 1.424 . S
C145 C150 1.245 . S
C145 C151 1.428 . S
C146 C149 1.260 . S
C146 C150 1.477 . S
C146 H164 0.932 . S
C147 C148 1.384 . S
C147 C149 1.479 . S
C147 H165 0.929 . S
C148 C145 1.424 . S
C148 C147 1.384 . S
C148 H166 0.928 . S
C149 C146 1.260 . S
C149 C147 1.479 . S
C150 C145 1.245 . S
C150 C146 1.477 . S
C150 H167 0.932 . S
C151 U134 2.882 . S
C151 C145 1.428 . S
C151 O154 1.301 . S
C151 O155 1.282 . S
O152 U134 2.441 . S
O152 C138 1.249 . S
O153 U134 2.420 . S
O153 C138 1.202 . S
O154 U134 2.455 . S
O154 C151 1.301 . S
O155 U134 2.449 . S
O155 C151 1.282 . S
H156 C129 0.931 . S
H157 C131 0.929 . S
H158 C132 0.930 . S
H159 C133 0.931 . S
H160 C140 0.932 . S
H161 C141 0.930 . S
H162 C142 0.929 . S
H163 C144 0.930 . S
H164 C146 0.932 . S
H165 C147 0.929 . S
H166 C148 0.928 . S
H167 C150 0.932 . S
C168 C169 1.264 . S
C168 C173 1.479 . S
C168 C178 1.465 . S
C169 C168 1.264 . S
C169 C171 1.339 . S
C169 H196 0.931 . S
C170 C171 1.395 . S
C170 C172 1.320 . S
C171 C169 1.339 . S
C171 C170 1.395 . S
C171 H197 0.929 . S
C172 C170 1.320 . S
C172 C173 1.405 . S
C172 H198 0.930 . S
C173 C168 1.479 . S
C173 C172 1.405 . S
C173 H199 0.931 . S
U174 O175 2.454 . S
U174 O176 2.458 . S
U174 C177 2.984 . S
U174 C178 2.847 . S
U174 C191 2.882 . S
U174 O192 2.441 . S
U174 O193 2.420 . S
U174 O194 2.455 . S
U174 O195 2.449 . S
O175 U174 2.454 . S
O175 C177 1.353 . S
O176 U174 2.458 . S
O176 C177 1.286 . S
C177 U174 2.984 . S
C177 O175 1.353 . S
C177 O176 1.286 . S
C177 C179 1.363 . S
C178 C168 1.465 . S
C178 U174 2.847 . S
C178 O192 1.249 . S
C178 O193 1.202 . S
C179 C177 1.363 . S
C179 C181 1.408 . S
C179 C184 1.342 . S
C180 C181 1.310 . S
C180 C183 1.461 . S
C180 H200 0.932 . S
C181 C179 1.408 . S
C181 C180 1.310 . S
C181 H201 0.930 . S
C182 C183 1.474 . S
C182 C184 1.285 . S
C182 H202 0.929 . S
C183 C180 1.461 . S
C183 C182 1.474 . S
C184 C179 1.342 . S
C184 C182 1.285 . S
C184 H203 0.930 . S
C185 C188 1.424 . S
C185 C190 1.245 . S
C185 C191 1.428 . S
C186 C189 1.260 . S
C186 C190 1.477 . S
C186 H204 0.932 . S
C187 C188 1.384 . S
C187 C189 1.479 . S
C187 H205 0.929 . S
C188 C185 1.424 . S
C188 C187 1.384 . S
C188 H206 0.928 . S
C189 C186 1.260 . S
C189 C187 1.479 . S
C190 C185 1.245 . S
C190 C186 1.477 . S
C190 H207 0.932 . S
C191 U174 2.882 . S
C191 C185 1.428 . S
C191 O194 1.301 . S
C191 O195 1.282 . S
O192 U174 2.441 . S
O192 C178 1.249 . S
O193 U174 2.420 . S
O193 C178 1.202 . S
O194 U174 2.455 . S
O194 C191 1.301 . S
O195 U174 2.449 . S
O195 C191 1.282 . S
H196 C169 0.931 . S
H197 C171 0.929 . S
H198 C172 0.930 . S
H199 C173 0.931 . S
H200 C180 0.932 . S
H201 C181 0.930 . S
H202 C182 0.929 . S
H203 C184 0.930 . S
H204 C186 0.932 . S
H205 C187 0.929 . S
H206 C188 0.928 . S
H207 C190 0.932 . S
C208 C209 1.264 . S
C208 C213 1.479 . S
C208 C218 1.465 . S
C209 C208 1.264 . S
C209 C211 1.339 . S
C209 H236 0.931 . S
C210 C211 1.395 . S
C210 C212 1.320 . S
C211 C209 1.339 . S
C211 C210 1.395 . S
C211 H237 0.929 . S
C212 C210 1.320 . S
C212 C213 1.405 . S
C212 H238 0.930 . S
C213 C208 1.479 . S
C213 C212 1.405 . S
C213 H239 0.931 . S
U214 O215 2.454 . S
U214 O216 2.458 . S
U214 C217 2.984 . S
U214 C218 2.847 . S
U214 C231 2.882 . S
U214 O232 2.441 . S
U214 O233 2.420 . S
U214 O234 2.455 . S
U214 O235 2.449 . S
O215 U214 2.454 . S
O215 C217 1.353 . S
O216 U214 2.458 . S
O216 C217 1.286 . S
C217 U214 2.984 . S
C217 O215 1.353 . S
C217 O216 1.286 . S
C217 C219 1.363 . S
C218 C208 1.465 . S
C218 U214 2.847 . S
C218 O232 1.249 . S
C218 O233 1.202 . S
C219 C217 1.363 . S
C219 C221 1.408 . S
C219 C224 1.342 . S
C220 C221 1.310 . S
C220 C223 1.461 . S
C220 H240 0.932 . S
C221 C219 1.408 . S
C221 C220 1.310 . S
C221 H241 0.930 . S
C222 C223 1.474 . S
C222 C224 1.285 . S
C222 H242 0.929 . S
C223 C220 1.461 . S
C223 C222 1.474 . S
C224 C219 1.342 . S
C224 C222 1.285 . S
C224 H243 0.930 . S
C225 C228 1.424 . S
C225 C230 1.245 . S
C225 C231 1.428 . S
C226 C229 1.260 . S
C226 C230 1.477 . S
C226 H244 0.932 . S
C227 C228 1.384 . S
C227 C229 1.479 . S
C227 H245 0.929 . S
C228 C225 1.424 . S
C228 C227 1.384 . S
C228 H246 0.928 . S
C229 C226 1.260 . S
C229 C227 1.479 . S
C230 C225 1.245 . S
C230 C226 1.477 . S
C230 H247 0.932 . S
C231 U214 2.882 . S
C231 C225 1.428 . S
C231 O234 1.301 . S
C231 O235 1.282 . S
O232 U214 2.441 . S
O232 C218 1.249 . S
O233 U214 2.420 . S
O233 C218 1.202 . S
O234 U214 2.455 . S
O234 C231 1.301 . S
O235 U214 2.449 . S
O235 C231 1.282 . S
H236 C209 0.931 . S
H237 C211 0.929 . S
H238 C212 0.930 . S
H239 C213 0.931 . S
H240 C220 0.932 . S
H241 C221 0.930 . S
H242 C222 0.929 . S
H243 C224 0.930 . S
H244 C226 0.932 . S
H245 C227 0.929 . S
H246 C228 0.928 . S
H247 C230 0.932 . S
C248 C249 1.264 . S
C248 C253 1.479 . S
C248 C258 1.465 . S
C249 C248 1.264 . S
C249 C251 1.339 . S
C249 H276 0.931 . S
C250 C251 1.395 . S
C250 C252 1.320 . S
C251 C249 1.339 . S
C251 C250 1.395 . S
C251 H277 0.929 . S
C252 C250 1.320 . S
C252 C253 1.405 . S
C252 H278 0.930 . S
C253 C248 1.479 . S
C253 C252 1.405 . S
C253 H279 0.931 . S
U254 O255 2.454 . S
U254 O256 2.458 . S
U254 C257 2.984 . S
U254 C258 2.847 . S
U254 C271 2.882 . S
U254 O272 2.441 . S
U254 O273 2.420 . S
U254 O274 2.455 . S
U254 O275 2.449 . S
O255 U254 2.454 . S
O255 C257 1.353 . S
O256 U254 2.458 . S
O256 C257 1.286 . S
C257 U254 2.984 . S
C257 O255 1.353 . S
C257 O256 1.286 . S
C257 C259 1.363 . S
C258 C248 1.465 . S
C258 U254 2.847 . S
C258 O272 1.249 . S
C258 O273 1.202 . S
C259 C257 1.363 . S
C259 C261 1.408 . S
C259 C264 1.342 . S
C260 C261 1.310 . S
C260 C263 1.461 . S
C260 H280 0.932 . S
C261 C259 1.408 . S
C261 C260 1.310 . S
C261 H281 0.930 . S
C262 C263 1.474 . S
C262 C264 1.285 . S
C262 H282 0.929 . S
C263 C260 1.461 . S
C263 C262 1.474 . S
C264 C259 1.342 . S
C264 C262 1.285 . S
C264 H283 0.930 . S
C265 C268 1.424 . S
C265 C270 1.245 . S
C265 C271 1.428 . S
C266 C269 1.260 . S
C266 C270 1.477 . S
C266 H284 0.932 . S
C267 C268 1.384 . S
C267 C269 1.479 . S
C267 H285 0.929 . S
C268 C265 1.424 . S
C268 C267 1.384 . S
C268 H286 0.928 . S
C269 C266 1.260 . S
C269 C267 1.479 . S
C270 C265 1.245 . S
C270 C266 1.477 . S
C270 H287 0.932 . S
C271 U254 2.882 . S
C271 C265 1.428 . S
C271 O274 1.301 . S
C271 O275 1.282 . S
O272 U254 2.441 . S
O272 C258 1.249 . S
O273 U254 2.420 . S
O273 C258 1.202 . S
O274 U254 2.455 . S
O274 C271 1.301 . S
O275 U254 2.449 . S
O275 C271 1.282 . S
H276 C249 0.931 . S
H277 C251 0.929 . S
H278 C252 0.930 . S
H279 C253 0.931 . S
H280 C260 0.932 . S
H281 C261 0.930 . S
H282 C262 0.929 . S
H283 C264 0.930 . S
H284 C266 0.932 . S
H285 C267 0.929 . S
H286 C268 0.928 . S
H287 C270 0.932 . S
C288 C289 1.264 . S
C288 C293 1.479 . S
C288 C298 1.465 . S
C289 C288 1.264 . S
C289 C291 1.339 . S
C289 H316 0.931 . S
C290 C291 1.395 . S
C290 C292 1.320 . S
C291 C289 1.339 . S
C291 C290 1.395 . S
C291 H317 0.929 . S
C292 C290 1.320 . S
C292 C293 1.405 . S
C292 H318 0.930 . S
C293 C288 1.479 . S
C293 C292 1.405 . S
C293 H319 0.931 . S
U294 O295 2.454 . S
U294 O296 2.458 . S
U294 C297 2.984 . S
U294 C298 2.847 . S
U294 C311 2.882 . S
U294 O312 2.441 . S
U294 O313 2.420 . S
U294 O314 2.455 . S
U294 O315 2.449 . S
O295 U294 2.454 . S
O295 C297 1.353 . S
O296 U294 2.458 . S
O296 C297 1.286 . S
C297 U294 2.984 . S
C297 O295 1.353 . S
C297 O296 1.286 . S
C297 C299 1.363 . S
C298 C288 1.465 . S
C298 U294 2.847 . S
C298 O312 1.249 . S
C298 O313 1.202 . S
C299 C297 1.363 . S
C299 C301 1.408 . S
C299 C304 1.342 . S
C300 C301 1.310 . S
C300 C303 1.461 . S
C300 H320 0.932 . S
C301 C299 1.408 . S
C301 C300 1.310 . S
C301 H321 0.930 . S
C302 C303 1.474 . S
C302 C304 1.285 . S
C302 H322 0.929 . S
C303 C300 1.461 . S
C303 C302 1.474 . S
C304 C299 1.342 . S
C304 C302 1.285 . S
C304 H323 0.930 . S
C305 C308 1.424 . S
C305 C310 1.245 . S
C305 C311 1.428 . S
C306 C309 1.260 . S
C306 C310 1.477 . S
C306 H324 0.932 . S
C307 C308 1.384 . S
C307 C309 1.479 . S
C307 H325 0.929 . S
C308 C305 1.424 . S
C308 C307 1.384 . S
C308 H326 0.928 . S
C309 C306 1.260 . S
C309 C307 1.479 . S
C310 C305 1.245 . S
C310 C306 1.477 . S
C310 H327 0.932 . S
C311 U294 2.882 . S
C311 C305 1.428 . S
C311 O314 1.301 . S
C311 O315 1.282 . S
O312 U294 2.441 . S
O312 C298 1.249 . S
O313 U294 2.420 . S
O313 C298 1.202 . S
O314 U294 2.455 . S
O314 C311 1.301 . S
O315 U294 2.449 . S
O315 C311 1.282 . S
H316 C289 0.931 . S
H317 C291 0.929 . S
H318 C292 0.930 . S
H319 C293 0.931 . S
H320 C300 0.932 . S
H321 C301 0.930 . S
H322 C302 0.929 . S
H323 C304 0.930 . S
H324 C306 0.932 . S
H325 C307 0.929 . S
H326 C308 0.928 . S
H327 C310 0.932 . S
C328 C329 1.264 . S
C328 C333 1.479 . S
C328 C338 1.465 . S
C329 C328 1.264 . S
C329 C331 1.339 . S
C329 H356 0.931 . S
C330 C331 1.395 . S
C330 C332 1.320 . S
C331 C329 1.339 . S
C331 C330 1.395 . S
C331 H357 0.929 . S
C332 C330 1.320 . S
C332 C333 1.405 . S
C332 H358 0.930 . S
C333 C328 1.479 . S
C333 C332 1.405 . S
C333 H359 0.931 . S
U334 O335 2.454 . S
U334 O336 2.458 . S
U334 C337 2.984 . S
U334 C338 2.847 . S
U334 C351 2.882 . S
U334 O352 2.441 . S
U334 O353 2.420 . S
U334 O354 2.455 . S
U334 O355 2.449 . S
O335 U334 2.454 . S
O335 C337 1.353 . S
O336 U334 2.458 . S
O336 C337 1.286 . S
C337 U334 2.984 . S
C337 O335 1.353 . S
C337 O336 1.286 . S
C337 C339 1.363 . S
C338 C328 1.465 . S
C338 U334 2.847 . S
C338 O352 1.249 . S
C338 O353 1.202 . S
C339 C337 1.363 . S
C339 C341 1.408 . S
C339 C344 1.342 . S
C340 C341 1.310 . S
C340 C343 1.461 . S
C340 H360 0.932 . S
C341 C339 1.408 . S
C341 C340 1.310 . S
C341 H361 0.930 . S
C342 C343 1.474 . S
C342 C344 1.285 . S
C342 H362 0.929 . S
C343 C340 1.461 . S
C343 C342 1.474 . S
C344 C339 1.342 . S
C344 C342 1.285 . S
C344 H363 0.930 . S
C345 C348 1.424 . S
C345 C350 1.245 . S
C345 C351 1.428 . S
C346 C349 1.260 . S
C346 C350 1.477 . S
C346 H364 0.932 . S
C347 C348 1.384 . S
C347 C349 1.479 . S
C347 H365 0.929 . S
C348 C345 1.424 . S
C348 C347 1.384 . S
C348 H366 0.928 . S
C349 C346 1.260 . S
C349 C347 1.479 . S
C350 C345 1.245 . S
C350 C346 1.477 . S
C350 H367 0.932 . S
C351 U334 2.882 . S
C351 C345 1.428 . S
C351 O354 1.301 . S
C351 O355 1.282 . S
O352 U334 2.441 . S
O352 C338 1.249 . S
O353 U334 2.420 . S
O353 C338 1.202 . S
O354 U334 2.455 . S
O354 C351 1.301 . S
O355 U334 2.449 . S
O355 C351 1.282 . S
H356 C329 0.931 . S
H357 C331 0.929 . S
H358 C332 0.930 . S
H359 C333 0.931 . S
H360 C340 0.932 . S
H361 C341 0.930 . S
H362 C342 0.929 . S
H363 C344 0.930 . S
H364 C346 0.932 . S
H365 C347 0.929 . S
H366 C348 0.928 . S
H367 C350 0.932 . S
C368 C369 1.264 . S
C368 C373 1.479 . S
C368 C378 1.465 . S
C369 C368 1.264 . S
C369 C371 1.339 . S
C369 H396 0.931 . S
C370 C371 1.395 1_545 S
C370 C372 1.320 1_545 S
C371 C369 1.339 . S
C371 C370 1.395 1_565 S
C371 H397 0.925 1_565 S
C372 C370 1.320 1_565 S
C372 C373 1.405 . S
C372 H398 0.930 1_565 S
C373 C368 1.479 . S
C373 C372 1.405 . S
C373 H399 0.931 . S
U374 O375 2.454 . S
U374 O376 2.458 . S
U374 C377 2.984 . S
U374 C378 2.847 . S
U374 C391 2.882 . S
U374 O392 2.441 . S
U374 O393 2.420 . S
U374 O394 2.455 . S
U374 O395 2.449 . S
O375 U374 2.454 . S
O375 C377 1.353 . S
O376 U374 2.458 . S
O376 C377 1.286 . S
C377 U374 2.984 . S
C377 O375 1.353 . S
C377 O376 1.286 . S
C377 C379 1.363 . S
C378 C368 1.465 . S
C378 U374 2.847 . S
C378 O392 1.249 . S
C378 O393 1.202 . S
C379 C377 1.363 . S
C379 C381 1.408 . S
C379 C384 1.342 . S
C380 C381 1.310 . S
C380 C383 1.461 . S
C380 H400 0.932 . S
C381 C379 1.408 . S
C381 C380 1.310 . S
C381 H401 0.930 . S
C382 C383 1.474 . S
C382 C384 1.285 . S
C382 H402 0.929 . S
C383 C380 1.461 . S
C383 C382 1.474 . S
C384 C379 1.342 . S
C384 C382 1.285 . S
C384 H403 0.930 . S
C385 C388 1.424 1_655 S
C385 C390 1.245 1_655 S
C385 C391 1.428 . S
C386 C389 1.260 . S
C386 C390 1.477 . S
C386 H404 0.932 . S
C387 C388 1.384 . S
C387 C389 1.479 . S
C387 H405 0.929 . S
C388 C385 1.424 1_455 S
C388 C387 1.384 . S
C388 H406 0.928 . S
C389 C386 1.260 . S
C389 C387 1.479 . S
C390 C385 1.245 1_455 S
C390 C386 1.477 . S
C390 H407 0.932 1_455 S
C391 U374 2.882 . S
C391 C385 1.428 . S
C391 O394 1.301 . S
C391 O395 1.282 . S
O392 U374 2.441 . S
O392 C378 1.249 . S
O393 U374 2.420 . S
O393 C378 1.202 . S
O394 U374 2.455 . S
O394 C391 1.301 . S
O395 U374 2.449 . S
O395 C391 1.282 . S
H396 C369 0.931 . S
H397 C371 0.925 1_545 S
H398 C372 0.930 1_545 S
H399 C373 0.931 . S
H400 C380 0.932 . S
H401 C381 0.930 . S
H402 C382 0.929 . S
H403 C384 0.930 . S
H404 C386 0.932 . S
H405 C387 0.929 . S
H406 C388 0.928 . S
H407 C390 0.932 1_655 S
H408 C416 0.950 . S
H409 C421 0.950 . S
H410 C418 0.950 . S
H411 C420 0.950 . S
H412 C422 0.950 . S
H413 C424 0.950 . S
H414 C426 0.950 . S
H415 C427 0.950 . S
C416 H408 0.950 . S
C416 C417 1.386 . S
C416 C418 1.391 . S
C417 C416 1.386 . S
C417 C421 1.393 . S
C418 H410 0.950 . S
C418 C416 1.391 . S
C418 C419 1.400 . S
C419 C418 1.400 . S
C419 C420 1.398 . S
C419 C425 1.491 . S
C420 H411 0.950 . S
C420 C419 1.398 . S
C420 C421 1.391 . S
C421 H409 0.950 . S
C421 C417 1.393 . S
C421 C420 1.391 . S
C422 H412 0.950 . S
C422 C423 1.386 . S
C422 C424 1.391 . S
C423 C422 1.386 . S
C423 C427 1.393 . S
C424 H413 0.950 . S
C424 C422 1.391 . S
C424 C425 1.400 . S
C425 C419 1.491 . S
C425 C424 1.400 . S
C425 C426 1.398 . S
C426 H414 0.950 . S
C426 C425 1.398 . S
C426 C427 1.391 . S
C427 H415 0.950 . S
C427 C423 1.393 . S
C427 C426 1.391 . S
H428 C436 0.950 . S
H429 C441 0.950 . S
H430 C438 0.950 . S
H431 C440 0.950 . S
H432 C442 0.950 . S
H433 C444 0.950 . S
H434 C446 0.950 . S
H435 C447 0.950 . S
C436 H428 0.950 . S
C436 C437 1.386 . S
C436 C438 1.391 . S
C437 C436 1.386 . S
C437 C441 1.393 . S
C438 H430 0.950 . S
C438 C436 1.391 . S
C438 C439 1.400 . S
C439 C438 1.400 . S
C439 C440 1.398 . S
C439 C445 1.491 . S
C440 H431 0.950 . S
C440 C439 1.398 . S
C440 C441 1.391 . S
C441 H429 0.950 . S
C441 C437 1.393 . S
C441 C440 1.391 . S
C442 H432 0.950 . S
C442 C443 1.386 . S
C442 C444 1.391 . S
C443 C442 1.386 . S
C443 C447 1.393 . S
C444 H433 0.950 . S
C444 C442 1.391 . S
C444 C445 1.400 . S
C445 C439 1.491 . S
C445 C444 1.400 . S
C445 C446 1.398 . S
C446 H434 0.950 . S
C446 C445 1.398 . S
C446 C447 1.391 . S
C447 H435 0.950 . S
C447 C443 1.393 . S
C447 C446 1.391 . S
H448 C456 0.950 . S
H449 C461 0.950 . S
H450 C458 0.950 . S
H451 C460 0.950 . S
H452 C462 0.950 . S
H453 C464 0.950 . S
H454 C466 0.950 . S
H455 C467 0.950 . S
C456 H448 0.950 . S
C456 C457 1.386 . S
C456 C458 1.391 . S
C457 C456 1.386 . S
C457 C461 1.393 . S
C458 H450 0.950 . S
C458 C456 1.391 . S
C458 C459 1.400 . S
C459 C458 1.400 . S
C459 C460 1.398 . S
C459 C465 1.491 . S
C460 H451 0.950 . S
C460 C459 1.398 . S
C460 C461 1.391 . S
C461 H449 0.950 . S
C461 C457 1.393 . S
C461 C460 1.391 . S
C462 H452 0.950 . S
C462 C463 1.386 . S
C462 C464 1.391 1_565 S
C463 C462 1.386 . S
C463 C467 1.393 1_565 S
C464 H453 0.950 . S
C464 C462 1.391 1_545 S
C464 C465 1.400 . S
C465 C459 1.491 . S
C465 C464 1.400 . S
C465 C466 1.398 . S
C466 H454 0.950 . S
C466 C465 1.398 . S
C466 C467 1.391 . S
C467 H455 0.950 . S
C467 C463 1.393 1_545 S
C467 C466 1.391 . S
H468 C476 0.950 . S
H469 C481 0.950 . S
H470 C478 0.950 . S
H471 C480 0.950 . S
H472 C482 0.950 . S
H473 C484 0.950 . S
H474 C486 0.950 . S
H475 C487 0.950 . S
C476 H468 0.950 . S
C476 C477 1.386 . S
C476 C478 1.391 . S
C477 C476 1.386 . S
C477 C481 1.393 . S
C478 H470 0.950 . S
C478 C476 1.391 . S
C478 C479 1.400 . S
C479 C478 1.400 . S
C479 C480 1.398 . S
C479 C485 1.491 . S
C480 H471 0.950 . S
C480 C479 1.398 . S
C480 C481 1.391 . S
C481 H469 0.950 . S
C481 C477 1.393 . S
C481 C480 1.391 . S
C482 H472 0.950 . S
C482 C483 1.386 . S
C482 C484 1.391 . S
C483 C482 1.386 . S
C483 C487 1.393 . S
C484 H473 0.950 . S
C484 C482 1.391 . S
C484 C485 1.400 . S
C485 C479 1.491 . S
C485 C484 1.400 . S
C485 C486 1.398 . S
C486 H474 0.950 . S
C486 C485 1.398 . S
C486 C487 1.391 . S
C487 H475 0.950 . S
C487 C483 1.393 . S
C487 C486 1.391 . S
H488 C496 0.950 . S
H489 C501 0.950 . S
H490 C498 0.950 . S
H491 C500 0.950 . S
H492 C502 0.950 . S
H493 C504 0.950 . S
H494 C506 0.950 . S
H495 C507 0.950 . S
C496 H488 0.950 . S
C496 C497 1.386 . S
C496 C498 1.391 . S
C497 C496 1.386 . S
C497 C501 1.393 . S
C498 H490 0.950 . S
C498 C496 1.391 . S
C498 C499 1.400 . S
C499 C498 1.400 . S
C499 C500 1.398 . S
C499 C505 1.491 . S
C500 H491 0.950 . S
C500 C499 1.398 . S
C500 C501 1.391 . S
C501 H489 0.950 . S
C501 C497 1.393 . S
C501 C500 1.391 . S
C502 H492 0.950 . S
C502 C503 1.386 . S
C502 C504 1.391 . S
C503 C502 1.386 . S
C503 C507 1.393 . S
C504 H493 0.950 . S
C504 C502 1.391 . S
C504 C505 1.400 . S
C505 C499 1.491 . S
C505 C504 1.400 . S
C505 C506 1.398 . S
C506 H494 0.950 . S
C506 C505 1.398 . S
C506 C507 1.391 . S
C507 H495 0.950 . S
C507 C503 1.393 . S
C507 C506 1.391 . S
H508 C516 0.950 . S
H509 C521 0.950 . S
H510 C518 0.950 . S
H511 C520 0.950 1_455 S
H512 C522 0.950 . S
H513 C524 0.950 . S
H514 C526 0.950 . S
H515 C527 0.950 . S
C516 H508 0.950 . S
C516 C517 1.386 . S
C516 C518 1.391 . S
C517 C516 1.386 . S
C517 C521 1.393 . S
C518 H510 0.950 . S
C518 C516 1.391 . S
C518 C519 1.400 . S
C519 C518 1.400 . S
C519 C520 1.398 . S
C519 C525 1.491 1_655 S
C520 H511 0.950 1_655 S
C520 C519 1.398 . S
C520 C521 1.391 . S
C521 H509 0.950 . S
C521 C517 1.393 . S
C521 C520 1.391 . S
C522 H512 0.950 . S
C522 C523 1.386 . S
C522 C524 1.391 . S
C523 C522 1.386 . S
C523 C527 1.393 . S
C524 H513 0.950 . S
C524 C522 1.391 . S
C524 C525 1.400 . S
C525 C519 1.491 1_455 S
C525 C524 1.400 . S
C525 C526 1.398 . S
C526 H514 0.950 . S
C526 C525 1.398 . S
C526 C527 1.391 . S
C527 H515 0.950 . S
C527 C523 1.393 . S
C527 C526 1.391 . S
H528 C536 0.950 . S
H529 C541 0.950 . S
H530 C538 0.950 . S
H531 C540 0.950 . S
H532 C542 0.950 . S
H533 C544 0.950 . S
H534 C546 0.950 . S
H535 C547 0.950 . S
C536 H528 0.950 . S
C536 C537 1.386 . S
C536 C538 1.391 . S
C537 C536 1.386 . S
C537 C541 1.393 . S
C538 H530 0.950 . S
C538 C536 1.391 . S
C538 C539 1.400 . S
C539 C538 1.400 . S
C539 C540 1.398 . S
C539 C545 1.491 . S
C540 H531 0.950 . S
C540 C539 1.398 . S
C540 C541 1.391 . S
C541 H529 0.950 . S
C541 C537 1.393 . S
C541 C540 1.391 . S
C542 H532 0.950 . S
C542 C543 1.386 . S
C542 C544 1.391 . S
C543 C542 1.386 . S
C543 C547 1.393 . S
C544 H533 0.950 . S
C544 C542 1.391 . S
C544 C545 1.400 . S
C545 C539 1.491 . S
C545 C544 1.400 . S
C545 C546 1.398 . S
C546 H534 0.950 . S
C546 C545 1.398 . S
C546 C547 1.391 . S
C547 H535 0.950 . S
C547 C543 1.393 . S
C547 C546 1.391 . S
H548 C556 0.950 . S
H549 C561 0.950 . S
H550 C558 0.950 . S
H551 C560 0.950 . S
H552 C562 0.950 . S
H553 C564 0.950 . S
H554 C566 0.950 . S
H555 C567 0.950 . S
C556 H548 0.950 . S
C556 C557 1.386 . S
C556 C558 1.391 . S
C557 C556 1.386 . S
C557 C561 1.393 . S
C558 H550 0.950 . S
C558 C556 1.391 . S
C558 C559 1.400 . S
C559 C558 1.400 . S
C559 C560 1.398 . S
C559 C565 1.491 . S
C560 H551 0.950 . S
C560 C559 1.398 . S
C560 C561 1.391 . S
C561 H549 0.950 . S
C561 C557 1.393 . S
C561 C560 1.391 . S
C562 H552 0.950 . S
C562 C563 1.386 . S
C562 C564 1.391 . S
C563 C562 1.386 . S
C563 C567 1.393 . S
C564 H553 0.950 . S
C564 C562 1.391 . S
C564 C565 1.400 . S
C565 C559 1.491 . S
C565 C564 1.400 . S
C565 C566 1.398 . S
C566 H554 0.950 . S
C566 C565 1.398 . S
C566 C567 1.391 . S
C567 H555 0.950 . S
C567 C563 1.393 . S
C567 C566 1.391 . S
H568 C576 0.950 . S
H569 C581 0.950 . S
H570 C578 0.950 . S
H571 C580 0.950 . S
H572 C582 0.950 . S
H573 C584 0.950 . S
H574 C586 0.950 . S
H575 C587 0.950 . S
C576 H568 0.950 . S
C576 C577 1.386 . S
C576 C578 1.391 . S
C577 C576 1.386 . S
C577 C581 1.393 . S
C578 H570 0.950 . S
C578 C576 1.391 . S
C578 C579 1.400 . S
C579 C578 1.400 . S
C579 C580 1.398 . S
C579 C585 1.491 . S
C580 H571 0.950 . S
C580 C579 1.398 . S
C580 C581 1.391 . S
C581 H569 0.950 . S
C581 C577 1.393 . S
C581 C580 1.391 . S
C582 H572 0.950 . S
C582 C583 1.386 . S
C582 C584 1.391 . S
C583 C582 1.386 . S
C583 C587 1.393 . S
C584 H573 0.950 . S
C584 C582 1.391 . S
C584 C585 1.400 . S
C585 C579 1.491 . S
C585 C584 1.400 . S
C585 C586 1.398 . S
C586 H574 0.950 . S
C586 C585 1.398 . S
C586 C587 1.391 . S
C587 H575 0.950 . S
C587 C583 1.393 . S
C587 C586 1.391 . S
H588 C596 0.950 . S
H589 C601 0.950 . S
H590 C598 0.950 . S
H591 C600 0.950 . S
H592 C602 0.950 . S
H593 C604 0.950 . S
H594 C606 0.950 . S
H595 C607 0.950 . S
C596 H588 0.950 . S
C596 C597 1.386 . S
C596 C598 1.391 . S
C597 C596 1.386 . S
C597 C601 1.393 . S
C598 H590 0.950 . S
C598 C596 1.391 . S
C598 C599 1.400 . S
C599 C598 1.400 . S
C599 C600 1.398 . S
C599 C605 1.491 . S
C600 H591 0.950 . S
C600 C599 1.398 . S
C600 C601 1.391 . S
C601 H589 0.950 . S
C601 C597 1.393 . S
C601 C600 1.391 . S
C602 H592 0.950 . S
C602 C603 1.386 . S
C602 C604 1.391 . S
C603 C602 1.386 . S
C603 C607 1.393 . S
C604 H593 0.950 . S
C604 C602 1.391 . S
C604 C605 1.400 . S
C605 C599 1.491 . S
C605 C604 1.400 . S
C605 C606 1.398 . S
C606 H594 0.950 . S
C606 C605 1.398 . S
C606 C607 1.391 . S
C607 H595 0.950 . S
C607 C603 1.393 . S
C607 C606 1.391 . S
H608 C616 0.949 . S
H609 C621 0.950 . S
H610 C618 0.950 . S
H611 C620 0.951 . S
H612 C622 0.950 . S
H613 C624 0.950 . S
H614 C626 0.950 . S
H615 C627 0.950 . S
C616 H608 0.949 . S
C616 C617 1.376 1_556 S
C616 C618 1.402 . S
C617 C616 1.376 1_554 S
C617 C621 1.393 . S
C618 H610 0.950 . S
C618 C616 1.402 . S
C618 C619 1.400 . S
C619 C618 1.400 . S
C619 C620 1.398 . S
C619 C625 1.491 . S
C620 H611 0.951 . S
C620 C619 1.398 . S
C620 C621 1.391 1_556 S
C621 H609 0.950 . S
C621 C617 1.393 . S
C621 C620 1.391 1_554 S
C622 H612 0.950 . S
C622 C623 1.386 1_565 S
C622 C624 1.391 . S
C623 C622 1.386 1_545 S
C623 C627 1.393 . S
C624 H613 0.950 . S
C624 C622 1.391 . S
C624 C625 1.400 . S
C625 C619 1.491 . S
C625 C624 1.400 . S
C625 C626 1.398 . S
C626 H614 0.950 . S
C626 C625 1.398 . S
C626 C627 1.391 1_565 S
C627 H615 0.950 . S
C627 C623 1.393 . S
C627 C626 1.391 1_545 S
H628 C636 0.950 . S
H629 C641 0.950 . S
H630 C638 0.950 . S
H631 C640 0.950 . S
H632 C642 0.950 . S
H633 C644 0.950 . S
H634 C646 0.950 . S
H635 C647 0.950 . S
C636 H628 0.950 . S
C636 C637 1.386 . S
C636 C638 1.391 . S
C637 C636 1.386 . S
C637 C641 1.393 . S
C638 H630 0.950 . S
C638 C636 1.391 . S
C638 C639 1.400 . S
C639 C638 1.400 . S
C639 C640 1.398 . S
C639 C645 1.491 . S
C640 H631 0.950 . S
C640 C639 1.398 . S
C640 C641 1.391 . S
C641 H629 0.950 . S
C641 C637 1.393 . S
C641 C640 1.391 . S
C642 H632 0.950 . S
C642 C643 1.386 . S
C642 C644 1.391 . S
C643 C642 1.386 . S
C643 C647 1.393 . S
C644 H633 0.950 . S
C644 C642 1.391 . S
C644 C645 1.400 . S
C645 C639 1.491 . S
C645 C644 1.400 . S
C645 C646 1.398 . S
C646 H634 0.950 . S
C646 C645 1.398 . S
C646 C647 1.391 . S
C647 H635 0.950 . S
C647 C643 1.393 . S
C647 C646 1.391 . S
H648 C656 0.950 . S
H649 C661 0.950 . S
H650 C658 0.950 . S
H651 C660 0.950 . S
H652 C662 0.950 . S
H653 C664 0.950 . S
H654 C666 0.950 . S
H655 C667 0.950 . S
C656 H648 0.950 . S
C656 C657 1.386 . S
C656 C658 1.391 . S
C657 C656 1.386 . S
C657 C661 1.393 . S
C658 H650 0.950 . S
C658 C656 1.391 . S
C658 C659 1.400 . S
C659 C658 1.400 . S
C659 C660 1.398 . S
C659 C665 1.491 . S
C660 H651 0.950 . S
C660 C659 1.398 . S
C660 C661 1.391 . S
C661 H649 0.950 . S
C661 C657 1.393 . S
C661 C660 1.391 . S
C662 H652 0.950 . S
C662 C663 1.386 . S
C662 C664 1.391 . S
C663 C662 1.386 . S
C663 C667 1.393 . S
C664 H653 0.950 . S
C664 C662 1.391 . S
C664 C665 1.400 . S
C665 C659 1.491 . S
C665 C664 1.400 . S
C665 C666 1.398 . S
C666 H654 0.950 . S
C666 C665 1.398 . S
C666 C667 1.391 . S
C667 H655 0.950 . S
C667 C663 1.393 . S
C667 C666 1.391 . S
H668 C676 0.950 . S
H669 C681 0.950 . S
H670 C678 0.950 1_655 S
H671 C680 0.950 . S
H672 C682 0.950 . S
H673 C684 0.950 . S
H674 C686 0.950 . S
H675 C687 0.950 . S
C676 H668 0.950 . S
C676 C677 1.386 . S
C676 C678 1.391 . S
C677 C676 1.386 . S
C677 C681 1.393 . S
C678 H670 0.950 1_455 S
C678 C676 1.391 . S
C678 C679 1.405 . S
C679 C678 1.405 . S
C679 C680 1.409 . S
C679 C685 1.476 1_455 S
C680 H671 0.950 . S
C680 C679 1.409 . S
C680 C681 1.391 . S
C681 H669 0.950 . S
C681 C677 1.393 . S
C681 C680 1.391 . S
C682 H672 0.950 . S
C682 C683 1.386 . S
C682 C684 1.391 . S
C683 C682 1.386 . S
C683 C687 1.393 . S
C684 H673 0.950 . S
C684 C682 1.391 . S
C684 C685 1.400 . S
C685 C679 1.476 1_655 S
C685 C684 1.400 . S
C685 C686 1.398 . S
C686 H674 0.950 . S
C686 C685 1.398 . S
C686 C687 1.391 . S
C687 H675 0.950 . S
C687 C683 1.393 . S
C687 C686 1.391 . S
H688 C696 0.950 . S
H689 C701 0.950 . S
H690 C698 0.950 . S
H691 C700 0.950 . S
H692 C702 0.950 . S
H693 C704 0.950 . S
H694 C706 0.950 . S
H695 C707 0.950 . S
C696 H688 0.950 . S
C696 C697 1.386 . S
C696 C698 1.391 . S
C697 C696 1.386 . S
C697 C701 1.393 . S
C698 H690 0.950 . S
C698 C696 1.391 . S
C698 C699 1.400 . S
C699 C698 1.400 . S
C699 C700 1.398 . S
C699 C705 1.491 . S
C700 H691 0.950 . S
C700 C699 1.398 . S
C700 C701 1.391 . S
C701 H689 0.950 . S
C701 C697 1.393 . S
C701 C700 1.391 . S
C702 H692 0.950 . S
C702 C703 1.386 . S
C702 C704 1.391 . S
C703 C702 1.386 . S
C703 C707 1.393 . S
C704 H693 0.950 . S
C704 C702 1.391 . S
C704 C705 1.400 . S
C705 C699 1.491 . S
C705 C704 1.400 . S
C705 C706 1.398 . S
C706 H694 0.950 . S
C706 C705 1.398 . S
C706 C707 1.391 . S
C707 H695 0.950 . S
C707 C703 1.393 . S
C707 C706 1.391 . S
H708 C716 0.950 . S
H709 C721 0.950 . S
H710 C718 0.950 . S
H711 C720 0.950 . S
H712 C722 0.950 . S
H713 C724 0.950 . S
H714 C726 0.950 . S
H715 C727 0.950 . S
C716 H708 0.950 . S
C716 C717 1.386 . S
C716 C718 1.391 . S
C717 C716 1.386 . S
C717 C721 1.393 . S
C718 H710 0.950 . S
C718 C716 1.391 . S
C718 C719 1.400 . S
C719 C718 1.400 . S
C719 C720 1.398 . S
C719 C725 1.491 . S
C720 H711 0.950 . S
C720 C719 1.398 . S
C720 C721 1.391 . S
C721 H709 0.950 . S
C721 C717 1.393 . S
C721 C720 1.391 . S
C722 H712 0.950 . S
C722 C723 1.386 . S
C722 C724 1.391 . S
C723 C722 1.386 . S
C723 C727 1.393 . S
C724 H713 0.950 . S
C724 C722 1.391 . S
C724 C725 1.400 . S
C725 C719 1.491 . S
C725 C724 1.400 . S
C725 C726 1.398 . S
C726 H714 0.950 . S
C726 C725 1.398 . S
C726 C727 1.391 . S
C727 H715 0.950 . S
C727 C723 1.393 . S
C727 C726 1.391 . S
H728 C736 0.950 . S
H729 C741 0.950 . S
H730 C738 0.950 . S
H731 C740 0.950 . S
H732 C742 0.950 . S
H733 C744 0.950 . S
H734 C746 0.950 . S
H735 C747 0.950 . S
C736 H728 0.950 . S
C736 C737 1.386 . S
C736 C738 1.391 . S
C737 C736 1.386 . S
C737 C741 1.393 . S
C738 H730 0.950 . S
C738 C736 1.391 . S
C738 C739 1.400 . S
C739 C738 1.400 . S
C739 C740 1.398 . S
C739 C745 1.491 . S
C740 H731 0.950 . S
C740 C739 1.398 . S
C740 C741 1.391 . S
C741 H729 0.950 . S
C741 C737 1.393 . S
C741 C740 1.391 . S
C742 H732 0.950 . S
C742 C743 1.386 . S
C742 C744 1.391 . S
C743 C742 1.386 . S
C743 C747 1.393 . S
C744 H733 0.950 . S
C744 C742 1.391 . S
C744 C745 1.400 . S
C745 C739 1.491 . S
C745 C744 1.400 . S
C745 C746 1.398 . S
C746 H734 0.950 . S
C746 C745 1.398 . S
C746 C747 1.391 . S
C747 H735 0.950 . S
C747 C743 1.393 . S
C747 C746 1.391 . S
H748 C756 0.950 . S
H749 C761 0.950 . S
H750 C758 0.950 . S
H751 C760 0.950 . S
H752 C762 0.950 . S
H753 C764 0.950 . S
H754 C766 0.950 . S
H755 C767 0.950 . S
C756 H748 0.950 . S
C756 C757 1.386 . S
C756 C758 1.391 . S
C757 C756 1.386 . S
C757 C761 1.393 . S
C758 H750 0.950 . S
C758 C756 1.391 . S
C758 C759 1.400 . S
C759 C758 1.400 . S
C759 C760 1.398 . S
C759 C765 1.491 . S
C760 H751 0.950 . S
C760 C759 1.398 . S
C760 C761 1.391 . S
C761 H749 0.950 . S
C761 C757 1.393 . S
C761 C760 1.391 . S
C762 H752 0.950 . S
C762 C763 1.386 . S
C762 C764 1.391 . S
C763 C762 1.386 . S
C763 C767 1.393 . S
C764 H753 0.950 . S
C764 C762 1.391 . S
C764 C765 1.400 . S
C765 C759 1.491 . S
C765 C764 1.400 . S
C765 C766 1.398 . S
C766 H754 0.950 . S
C766 C765 1.398 . S
C766 C767 1.391 . S
C767 H755 0.950 . S
C767 C763 1.393 . S
C767 C766 1.391 . S
H768 C776 0.950 . S
H769 C781 0.950 . S
H770 C778 0.950 . S
H771 C780 0.950 . S
H772 C782 0.950 . S
H773 C784 0.950 . S
H774 C786 0.950 . S
H775 C787 0.950 . S
C776 H768 0.950 . S
C776 C777 1.386 . S
C776 C778 1.391 . S
C777 C776 1.386 . S
C777 C781 1.393 . S
C778 H770 0.950 . S
C778 C776 1.391 . S
C778 C779 1.400 . S
C779 C778 1.400 . S
C779 C780 1.398 . S
C779 C785 1.491 . S
C780 H771 0.950 . S
C780 C779 1.398 . S
C780 C781 1.391 . S
C781 H769 0.950 . S
C781 C777 1.393 . S
C781 C780 1.391 . S
C782 H772 0.950 . S
C782 C783 1.386 . S
C782 C784 1.391 . S
C783 C782 1.386 . S
C783 C787 1.393 . S
C784 H773 0.950 . S
C784 C782 1.391 . S
C784 C785 1.400 . S
C785 C779 1.491 . S
C785 C784 1.400 . S
C785 C786 1.398 . S
C786 H774 0.950 . S
C786 C785 1.398 . S
C786 C787 1.391 . S
C787 H775 0.950 . S
C787 C783 1.393 . S
C787 C786 1.391 . S
H788 C796 0.950 . S
H789 C801 0.950 . S
H790 C798 0.950 . S
H791 C800 0.950 . S
H792 C802 0.950 . S
H793 C804 0.950 . S
H794 C806 0.950 . S
H795 C807 0.950 . S
C796 H788 0.950 . S
C796 C797 1.386 . S
C796 C798 1.391 . S
C797 C796 1.386 . S
C797 C801 1.393 . S
C798 H790 0.950 . S
C798 C796 1.391 . S
C798 C799 1.400 . S
C799 C798 1.400 . S
C799 C800 1.398 . S
C799 C805 1.491 . S
C800 H791 0.950 . S
C800 C799 1.398 . S
C800 C801 1.391 . S
C801 H789 0.950 . S
C801 C797 1.393 . S
C801 C800 1.391 . S
C802 H792 0.950 . S
C802 C803 1.386 . S
C802 C804 1.391 . S
C803 C802 1.386 . S
C803 C807 1.393 . S
C804 H793 0.950 . S
C804 C802 1.391 . S
C804 C805 1.400 . S
C805 C799 1.491 . S
C805 C804 1.400 . S
C805 C806 1.398 . S
C806 H794 0.950 . S
C806 C805 1.398 . S
C806 C807 1.391 . S
C807 H795 0.950 . S
C807 C803 1.393 . S
C807 C806 1.391 . S
H808 C816 0.950 . S
H809 C821 0.950 . S
H810 C818 0.950 . S
H811 C820 0.950 . S
H812 C822 0.950 . S
H813 C824 0.950 . S
H814 C826 0.950 . S
H815 C827 0.950 . S
C816 H808 0.950 . S
C816 C817 1.386 . S
C816 C818 1.391 . S
C817 C816 1.386 . S
C817 C821 1.393 . S
C818 H810 0.950 . S
C818 C816 1.391 . S
C818 C819 1.400 . S
C819 C818 1.400 . S
C819 C820 1.398 . S
C819 C825 1.491 . S
C820 H811 0.950 . S
C820 C819 1.398 . S
C820 C821 1.391 . S
C821 H809 0.950 . S
C821 C817 1.393 . S
C821 C820 1.391 . S
C822 H812 0.950 . S
C822 C823 1.386 . S
C822 C824 1.391 . S
C823 C822 1.386 . S
C823 C827 1.393 . S
C824 H813 0.950 . S
C824 C822 1.391 . S
C824 C825 1.400 . S
C825 C819 1.491 . S
C825 C824 1.400 . S
C825 C826 1.398 . S
C826 H814 0.950 . S
C826 C825 1.398 . S
C826 C827 1.391 . S
C827 H815 0.950 . S
C827 C823 1.393 . S
C827 C826 1.391 . S
H828 C836 0.950 . S
H829 C841 0.950 . S
H830 C838 0.950 . S
H831 C840 0.950 . S
H832 C842 0.950 . S
H833 C844 0.950 . S
H834 C846 0.950 . S
H835 C847 0.950 . S
C836 H828 0.950 . S
C836 C837 1.386 . S
C836 C838 1.391 . S
C837 C836 1.386 . S
C837 C841 1.393 . S
C838 H830 0.950 . S
C838 C836 1.391 . S
C838 C839 1.400 . S
C839 C838 1.400 . S
C839 C840 1.398 . S
C839 C845 1.491 . S
C840 H831 0.950 . S
C840 C839 1.398 . S
C840 C841 1.391 . S
C841 H829 0.950 . S
C841 C837 1.393 . S
C841 C840 1.391 . S
C842 H832 0.950 . S
C842 C843 1.386 . S
C842 C844 1.391 . S
C843 C842 1.386 . S
C843 C847 1.393 . S
C844 H833 0.950 . S
C844 C842 1.391 . S
C844 C845 1.400 . S
C845 C839 1.491 . S
C845 C844 1.400 . S
C845 C846 1.398 . S
C846 H834 0.950 . S
C846 C845 1.398 . S
C846 C847 1.391 . S
C847 H835 0.950 . S
C847 C843 1.393 . S
C847 C846 1.391 . S
H848 C856 0.950 . S
H849 C861 0.950 . S
H850 C858 0.950 . S
H851 C860 0.950 . S
H852 C862 0.950 . S
H853 C864 0.950 . S
H854 C866 0.950 . S
H855 C867 0.950 . S
C856 H848 0.950 . S
C856 C857 1.386 . S
C856 C858 1.391 . S
C857 C856 1.386 . S
C857 C861 1.393 . S
C858 H850 0.950 . S
C858 C856 1.391 . S
C858 C859 1.400 . S
C859 C858 1.400 . S
C859 C860 1.398 . S
C859 C865 1.491 . S
C860 H851 0.950 . S
C860 C859 1.398 . S
C860 C861 1.391 . S
C861 H849 0.950 . S
C861 C857 1.393 . S
C861 C860 1.391 . S
C862 H852 0.950 . S
C862 C863 1.386 . S
C862 C864 1.391 . S
C863 C862 1.386 . S
C863 C867 1.393 . S
C864 H853 0.950 . S
C864 C862 1.391 . S
C864 C865 1.400 . S
C865 C859 1.491 . S
C865 C864 1.400 . S
C865 C866 1.398 . S
C866 H854 0.950 . S
C866 C865 1.398 . S
C866 C867 1.391 . S
C867 H855 0.950 . S
C867 C863 1.393 . S
C867 C866 1.391 . S
H868 C876 0.950 . S
H869 C881 0.950 . S
H870 C878 0.950 . S
H871 C880 0.956 . S
H872 C882 0.950 . S
H873 C884 0.950 . S
H874 C886 0.950 . S
H875 C887 0.950 . S
C876 H868 0.950 . S
C876 C877 1.386 1_556 S
C876 C878 1.391 . S
C877 C876 1.386 1_554 S
C877 C881 1.393 . S
C878 H870 0.950 . S
C878 C876 1.391 . S
C878 C879 1.400 . S
C879 C878 1.400 . S
C879 C880 1.386 1_556 S
C879 C885 1.491 . S
C880 H871 0.956 . S
C880 C879 1.386 1_554 S
C880 C881 1.397 . S
C881 H869 0.950 . S
C881 C877 1.393 . S
C881 C880 1.397 . S
C882 H872 0.950 . S
C882 C883 1.386 . S
C882 C884 1.391 . S
C883 C882 1.386 . S
C883 C887 1.393 . S
C884 H873 0.950 . S
C884 C882 1.391 . S
C884 C885 1.400 . S
C885 C879 1.491 . S
C885 C884 1.400 . S
C885 C886 1.398 . S
C886 H874 0.950 . S
C886 C885 1.398 . S
C886 C887 1.391 . S
C887 H875 0.950 . S
C887 C883 1.393 . S
C887 C886 1.391 . S
C417 C8 1.718 . S
C423 C109 1.571 . S
C437 C31 1.682 . S
C443 C149 1.448 . S
C457 C53 1.910 . S
C463 C170 1.769 . S
C483 C229 1.483 . S
C477 C74 1.481 . S
C503 C269 1.559 . S
C497 C26 1.697 . S
C517 C48 1.466 . S
C523 C290 1.417 . S
C537 C71 1.961 . S
C543 C330 1.826 . S
C557 C5 1.684 . S
C563 C389 1.478 . S
C577 C50 1.661 . S
C583 C370 1.553 . S
C603 C250 1.458 . S
C597 C70 1.594 . S
C623 C309 1.756 . S
C617 C4 1.965 . S
C637 C28 1.487 . S
C643 C349 1.401 . S
C663 C130 1.514 . S
C657 C73 1.646 . S
C677 C7 1.541 . S
C683 C189 1.455 . S
C703 C210 1.873 . S
C697 C30 1.937 . S
C723 C90 1.449 . S
C717 C52 1.622 . S
C743 C343 1.530 . S
C737 C9 1.618 . S
C763 C383 1.428 . S
C757 C29 1.445 . S
C777 C51 1.390 . S
C783 C263 1.367 . S
C803 C303 1.551 . S
C797 C75 1.646 . S
C823 C183 1.553 . S
C817 C27 1.634 . S
C837 C49 1.594 . S
C843 C223 1.517 . S
C863 C103 1.404 . S
C857 C72 1.418 . S
C883 C143 1.406 . S
C877 C6 1.431 . S
