# Generated by pormake.
# Topology anh, (6,3)-cn, num edge types: 1
# Building blocks:
#     Node 0, Type 0, BuildingBlock: CUWYAW_clean_sbu_0, # of connection points: 6
#     Node 1, Type 0, BuildingBlock: CUWYAW_clean_sbu_0, # of connection points: 6
#     Node 2, Type 0, BuildingBlock: CUWYAW_clean_sbu_0, # of connection points: 6
#     Node 3, Type 1, BuildingBlock: OLANEW_clean_sbu_2, # of connection points: 3
#     Node 4, Type 1, BuildingBlock: OLANEW_clean_sbu_2, # of connection points: 3
#     Node 5, Type 1, BuildingBlock: OLANEW_clean_sbu_2, # of connection points: 3
#     Node 6, Type 1, BuildingBlock: OLANEW_clean_sbu_2, # of connection points: 3
#     Node 7, Type 1, BuildingBlock: OLANEW_clean_sbu_2, # of connection points: 3
#     Node 8, Type 1, BuildingBlock: OLANEW_clean_sbu_2, # of connection points: 3
#     Edge 9, Type (0, 1), BuildingBlock: ZUJKAS_clean_linker_0, # of connection points: 2
#     Edge 10, Type (0, 1), BuildingBlock: ZUJKAS_clean_linker_0, # of connection points: 2
#     Edge 11, Type (0, 1), BuildingBlock: ZUJKAS_clean_linker_0, # of connection points: 2
#     Edge 12, Type (0, 1), BuildingBlock: ZUJKAS_clean_linker_0, # of connection points: 2
#     Edge 13, Type (0, 1), BuildingBlock: ZUJKAS_clean_linker_0, # of connection points: 2
#     Edge 14, Type (0, 1), BuildingBlock: ZUJKAS_clean_linker_0, # of connection points: 2
#     Edge 15, Type (0, 1), BuildingBlock: ZUJKAS_clean_linker_0, # of connection points: 2
#     Edge 16, Type (0, 1), BuildingBlock: ZUJKAS_clean_linker_0, # of connection points: 2
#     Edge 17, Type (0, 1), BuildingBlock: ZUJKAS_clean_linker_0, # of connection points: 2
#     Edge 18, Type (0, 1), BuildingBlock: ZUJKAS_clean_linker_0, # of connection points: 2
#     Edge 19, Type (0, 1), BuildingBlock: ZUJKAS_clean_linker_0, # of connection points: 2
#     Edge 20, Type (0, 1), BuildingBlock: ZUJKAS_clean_linker_0, # of connection points: 2
#     Edge 21, Type (0, 1), BuildingBlock: ZUJKAS_clean_linker_0, # of connection points: 2
#     Edge 22, Type (0, 1), BuildingBlock: ZUJKAS_clean_linker_0, # of connection points: 2
#     Edge 23, Type (0, 1), BuildingBlock: ZUJKAS_clean_linker_0, # of connection points: 2
#     Edge 24, Type (0, 1), BuildingBlock: ZUJKAS_clean_linker_0, # of connection points: 2
#     Edge 25, Type (0, 1), BuildingBlock: ZUJKAS_clean_linker_0, # of connection points: 2
#     Edge 26, Type (0, 1), BuildingBlock: ZUJKAS_clean_linker_0, # of connection points: 2
# Relax obj value: 0.169
# Max RMSD: 0.122
# Mean RMSD: 0.109
data_MOF--net-anh--node1-CUWYAW_clean_sbu_0--node2-OLANEW_clean_sbu_2--edge1-ZUJKAS_clean_linker_0
_symmetry_space_group_name_H-M    P1
_symmetry_Int_Tables_number       1
_symmetry_cell_setting            triclinic
loop_
_symmetry_equiv_pos_as_xyz
'x, y, z'
_cell_length_a     45.530725
_cell_length_b     45.733467
_cell_length_c     64.840012
_cell_angle_alpha  89.321238
_cell_angle_beta   90.059167
_cell_angle_gamma 120.0259
loop_
_atom_site_label
_atom_site_type_symbol
_atom_site_fract_x
_atom_site_fract_y
_atom_site_fract_z
_atom_type_partial_charge
C0 C 0.99984 0.44031 0.14745 0.0
Eu1 Eu 0.0307 0.49474 0.16913 0.0
C2 C 0.96594 0.41031 0.1483 0.0
C3 C 0.94129 0.40909 0.16179 0.0
C4 C 0.90896 0.38054 0.16261 0.0
C5 C 0.90078 0.35272 0.14997 0.0
C6 C 0.92565 0.35417 0.13644 0.0
C7 C 0.95799 0.38281 0.13561 0.0
C8 C 0.02503 0.50066 0.21091 0.0
C9 C 0.98769 0.53383 0.17502 0.0
C10 C 0.10165 0.62804 0.20385 0.0
Eu11 Eu 0.06844 0.57265 0.18309 0.0
C12 C 0.1347 0.65942 0.20478 0.0
C13 C 0.14995 0.67945 0.18711 0.0
C14 C 0.17919 0.7111 0.18886 0.0
C15 C 0.19378 0.72313 0.20828 0.0
C16 C 0.17925 0.70233 0.22578 0.0
C17 C 0.14994 0.67082 0.22404 0.0
C18 C 0.0604 0.56129 0.14218 0.0
C19 C 0.11373 0.53556 0.17332 0.0
O20 O 1.0006 0.46857 0.14242 0.0
O21 O 0.01991 0.44365 0.1629 0.0
O22 O 1.01291 0.4718 0.20178 0.0
O23 O 0.03876 0.52314 0.19729 0.0
O24 O 0.99073 0.5102 0.16519 0.0
O25 O 1.01276 0.55732 0.18615 0.0
O26 O 0.10074 0.59984 0.20914 0.0
O27 O 0.08218 0.62474 0.18811 0.0
O28 O 0.06265 0.5881 0.15047 0.0
O29 O 0.06616 0.54455 0.15542 0.0
O30 O 0.11315 0.5629 0.17976 0.0
O31 O 0.08573 0.50746 0.16793 0.0
H32 H 0.94712 0.43018 0.17173 0.0
H33 H 0.89055 0.38004 0.17339 0.0
H34 H 0.92001 0.3333 0.12637 0.0
H35 H 0.97677 0.38349 0.12506 0.0
H36 H 0.13878 0.67111 0.17203 0.0
H37 H 0.19007 0.72642 0.17508 0.0
H38 H 0.18966 0.71102 0.24098 0.0
H39 H 0.13849 0.65579 0.23786 0.0
C40 C 0.50333 0.10326 0.47867 0.0
Eu41 Eu 0.52434 0.06688 0.49785 0.0
C42 C 0.51663 0.1397 0.477 0.0
C43 C 0.54177 0.16163 0.4906 0.0
C44 C 0.55479 0.1964 0.48891 0.0
C45 C 0.54302 0.20985 0.4735 0.0
C46 C 0.51813 0.1877 0.4597 0.0
C47 C 0.50504 0.15285 0.46145 0.0
C48 C 0.52614 0.06097 0.53957 0.0
C49 C 0.60675 0.11322 0.50342 0.0
C50 C 0.5848 0.99862 0.53183 0.0
Eu51 Eu 0.56326 0.03429 0.51239 0.0
C52 C 0.57681 0.96336 0.53067 0.0
C53 C 0.60297 0.95587 0.53275 0.0
C54 C 0.59669 0.92314 0.5294 0.0
C55 C 0.56408 0.89736 0.52392 0.0
C56 C 0.53769 0.90475 0.52236 0.0
C57 C 0.54404 0.93754 0.52561 0.0
C58 C 0.56145 0.03961 0.4708 0.0
C59 C 0.48149 0.98693 0.50221 0.0
O60 O 0.52202 0.09258 0.46993 0.0
O61 O 0.49237 0.08976 0.49695 0.0
O62 O 0.49962 0.05641 0.52946 0.0
O63 O 0.55087 0.06972 0.52744 0.0
O64 O 0.57918 0.10926 0.4941 0.0
O65 O 0.60576 0.08854 0.51477 0.0
O66 O 0.56106 1.00391 0.53913 0.0
O67 O 0.59978 0.01706 0.51547 0.0
O68 O 0.5874 0.04229 0.48067 0.0
O69 O 0.53719 0.03169 0.48305 0.0
O70 O 0.50794 0.98991 0.51268 0.0
O71 O 0.48325 0.01327 0.49247 0.0
H72 H 0.55115 0.15184 0.50263 0.0
H73 H 0.57353 0.21264 0.5 0.0
H74 H 0.50884 0.1973 0.44751 0.0
H75 H 0.48592 0.13618 0.45068 0.0
H76 H 0.62845 0.97554 0.5365 0.0
H77 H 0.6174 0.91804 0.53098 0.0
H78 H 0.51239 0.88545 0.51801 0.0
H79 H 0.52353 0.94282 0.52368 0.0
C80 C 0.63371 0.56918 0.82044 0.0
Eu81 Eu 0.57348 0.54715 0.83598 0.0
C82 C 0.65523 0.55398 0.81794 0.0
C83 C 0.65409 0.5305 0.8325 0.0
C84 C 0.67381 0.51535 0.82974 0.0
C85 C 0.69471 0.52298 0.8122 0.0
C86 C 0.69534 0.54618 0.79748 0.0
C87 C 0.67578 0.56158 0.80037 0.0
C88 C 0.55838 0.54257 0.87678 0.0
C89 C 0.53642 0.46422 0.83947 0.0
C90 C 0.44005 0.48456 0.86319 0.0
Eu91 Eu 0.49914 0.5066 0.84609 0.0
C92 C 0.414 0.49438 0.86189 0.0
C93 C 0.41264 0.51264 0.84472 0.0
C94 C 0.38697 0.52081 0.84322 0.0
C95 C 0.3626 0.51119 0.85899 0.0
C96 C 0.36465 0.49369 0.87641 0.0
C97 C 0.39015 0.48527 0.87781 0.0
C98 C 0.51349 0.51114 0.80547 0.0
C99 C 0.53486 0.58929 0.83684 0.0
O100 O 0.60615 0.55579 0.80935 0.0
O101 O 0.62839 0.57509 0.83937 0.0
O102 O 0.58196 0.56966 0.86778 0.0
O103 O 0.54477 0.51864 0.86415 0.0
O104 O 0.5618 0.4928 0.83202 0.0
O105 O 0.51047 0.46378 0.84894 0.0
O106 O 0.46848 0.50628 0.87201 0.0
O107 O 0.4448 0.47178 0.84643 0.0
O108 O 0.4884 0.48456 0.81399 0.0
O109 O 0.52758 0.53453 0.81829 0.0
O110 O 0.50853 0.56118 0.84437 0.0
O111 O 0.56256 0.58952 0.83052 0.0
H112 H 0.63797 0.52387 0.84605 0.0
H113 H 0.67305 0.49807 0.84157 0.0
H114 H 0.71071 0.55226 0.78365 0.0
H115 H 0.67651 0.57924 0.78881 0.0
H116 H 0.43118 0.52024 0.83239 0.0
H117 H 0.38613 0.53459 0.82974 0.0
H118 H 0.34599 0.4857 0.88869 0.0
H119 H 0.39099 0.47129 0.89119 0.0
O120 O 0.53596 0.99199 0.24153 0.0
Cd121 Cd 0.53178 0.98954 0.20401 0.0
O122 O 0.5079 0.0193 0.24077 0.0
Cd123 Cd 0.48661 0.04919 0.25305 0.0
O124 O 0.46225 0.07919 0.25914 0.0
C125 C 0.43075 0.06768 0.25611 0.0
O126 O 0.41819 0.08785 0.2581 0.0
C127 C 0.52315 1.00708 0.25107 0.0
C128 C 0.58656 0.04781 0.18751 0.0
O129 O 0.58822 0.02092 0.19052 0.0
O130 O 0.55865 0.04687 0.19187 0.0
O131 O 0.61599 0.57258 0.58281 0.0
Cd132 Cd 0.63243 0.59384 0.54712 0.0
O133 O 0.56694 0.52569 0.57857 0.0
Cd134 Cd 0.56157 0.53898 0.54724 0.0
O135 O 0.55488 0.57244 0.5262 0.0
C136 C 0.52769 0.57356 0.52792 0.0
O137 O 0.50409 0.55243 0.54078 0.0
C138 C 0.59099 0.54567 0.5902 0.0
C139 C 0.63178 0.54461 0.52183 0.0
O140 O 0.65679 0.56171 0.5339 0.0
O141 O 0.608 0.55177 0.52117 0.0
O142 O 0.98781 0.48957 0.91688 0.0
Cd143 Cd 0.98258 0.48587 0.87932 0.0
O144 O 0.98699 0.44162 0.92296 0.0
Cd145 Cd 0.97064 0.42502 0.89159 0.0
O146 O 0.94217 0.4222 0.86401 0.0
C147 C 0.91059 0.40111 0.86353 0.0
O148 O 0.89686 0.37904 0.87872 0.0
C149 C 0.99048 0.46936 0.92939 0.0
C150 C 0.04451 0.49802 0.86333 0.0
O151 O 0.01994 0.46789 0.8663 0.0
O152 O 0.03942 0.52256 0.86717 0.0
O153 O 0.0846 0.57801 0.43426 0.0
Cd154 Cd 0.11583 0.59919 0.46742 0.0
O155 O 0.03967 0.5304 0.44472 0.0
Cd156 Cd 0.99006 0.48141 0.44506 0.0
O157 O 0.9437 0.43198 0.45331 0.0
C158 C 0.91357 0.42556 0.44942 0.0
O159 O 0.90943 0.4487 0.43983 0.0
C160 C 0.05684 0.55099 0.43011 0.0
C161 C 0.17471 0.66446 0.46947 0.0
O162 O 0.17617 0.63929 0.46217 0.0
O163 O 0.14547 0.65936 0.47503 0.0
O164 O 0.53296 0.99401 0.76544 0.0
Cd165 Cd 0.53075 0.96427 0.79876 0.0
O166 O 0.53257 0.04034 0.77468 0.0
Cd167 Cd 0.53447 0.09074 0.77524 0.0
O168 O 0.53914 0.14039 0.78464 0.0
C169 C 0.51876 0.15045 0.77889 0.0
O170 O 0.4938 0.1312 0.76649 0.0
C171 C 0.53352 0.02154 0.76047 0.0
C172 C 0.52916 0.90086 0.79959 0.0
O173 O 0.50179 0.90238 0.79932 0.0
O174 O 0.55724 0.92897 0.79857 0.0
O175 O 0.58542 0.53655 0.10345 0.0
Cd176 Cd 0.61007 0.53415 0.13751 0.0
O177 O 0.53752 0.53524 0.1115 0.0
Cd178 Cd 0.48812 0.53543 0.11042 0.0
O179 O 0.4379 0.53227 0.11664 0.0
C180 C 0.4358 0.55658 0.12461 0.0
O181 O 0.46402 0.58454 0.12889 0.0
C182 C 0.55837 0.53642 0.09779 0.0
C183 C 0.67398 0.53669 0.13916 0.0
O184 O 0.64625 0.50877 0.13655 0.0
O185 O 0.67191 0.56359 0.14021 0.0
H186 H 0.17852 0.58974 0.17841 0.0
H187 H 0.23263 0.59271 0.17037 0.0
H188 H 0.17897 0.48823 0.15264 0.0
H189 H 0.12503 0.48507 0.16037 0.0
H190 H 0.26262 0.55652 0.18564 0.0
H191 H 0.2379 0.53324 0.10201 0.0
H192 H 0.21254 0.54369 0.11839 0.0
H193 H 0.20547 0.50132 0.11819 0.0
C194 C 0.17816 0.56732 0.17287 0.0
C195 C 0.14712 0.53723 0.16995 0.0
C196 C 0.20922 0.56908 0.16824 0.0
C197 C 0.21005 0.54091 0.16044 0.0
C198 C 0.17918 0.51062 0.15811 0.0
H199 H 0.37131 0.50165 0.12004 0.0
H200 H 0.31694 0.49746 0.12911 0.0
C201 C 0.14821 0.50881 0.16272 0.0
C202 C 0.24304 0.54298 0.15489 0.0
H203 H 0.28631 0.53261 0.11506 0.0
C204 C 0.26784 0.55147 0.17017 0.0
C205 C 0.25001 0.53624 0.13473 0.0
C206 C 0.22524 0.52841 0.11732 0.0
C207 C 0.2989 0.55277 0.166 0.0
C208 C 0.30593 0.54614 0.14581 0.0
C209 C 0.28109 0.5376 0.13054 0.0
C210 C 0.3391 0.54865 0.14015 0.0
C211 C 0.32354 0.56044 0.18345 0.0
C212 C 0.36985 0.57894 0.14289 0.0
C213 C 0.40093 0.58136 0.13776 0.0
C214 C 0.40226 0.55366 0.12953 0.0
C215 C 0.3714 0.52349 0.12639 0.0
C216 C 0.34022 0.52107 0.13157 0.0
H217 H 0.31061 0.55479 0.19871 0.0
H218 H 0.33679 0.5457 0.18214 0.0
H219 H 0.34286 0.5877 0.18297 0.0
H220 H 0.36986 0.60092 0.14892 0.0
H221 H 0.424 0.60513 0.14027 0.0
H222 H 0.61662 0.17075 0.48358 0.0
H223 H 0.67007 0.22257 0.47631 0.0
H224 H 0.72462 0.18185 0.50871 0.0
H225 H 0.6711 0.12955 0.51591 0.0
H226 H 0.71904 0.2691 0.50241 0.0
H227 H 0.77456 0.21012 0.45333 0.0
H228 H 0.73027 0.1885 0.46054 0.0
H229 H 0.7616 0.19171 0.47866 0.0
C230 C 0.63992 0.17269 0.48924 0.0
C231 C 0.63938 0.14568 0.50028 0.0
C232 C 0.67057 0.20248 0.48505 0.0
C233 C 0.70163 0.20608 0.4916 0.0
C234 C 0.70117 0.17952 0.50306 0.0
H235 H 0.91146 0.3721 0.47105 0.0
H236 H 0.86111 0.3193 0.48223 0.0
C237 C 0.67044 0.14967 0.50733 0.0
C238 C 0.73421 0.23774 0.48649 0.0
H239 H 0.80934 0.26825 0.46015 0.0
C240 C 0.73877 0.26885 0.49319 0.0
C241 C 0.76018 0.23762 0.47449 0.0
C242 C 0.75645 0.20528 0.46616 0.0
C243 C 0.76836 0.29962 0.48833 0.0
C244 C 0.79405 0.29959 0.47599 0.0
C245 C 0.78978 0.26844 0.46957 0.0
C246 C 0.82491 0.33165 0.46904 0.0
C247 C 0.77198 0.33186 0.49676 0.0
C248 C 0.82162 0.35608 0.45754 0.0
C249 C 0.85032 0.38627 0.45117 0.0
C250 C 0.88326 0.39285 0.45595 0.0
C251 C 0.88659 0.36805 0.46713 0.0
C252 C 0.85776 0.33778 0.47353 0.0
H253 H 0.7559 0.32695 0.5107 0.0
H254 H 0.79873 0.35 0.50078 0.0
H255 H 0.76368 0.34385 0.4849 0.0
H256 H 0.79673 0.35175 0.45336 0.0
H257 H 0.8466 0.40449 0.44246 0.0
H258 H 0.58574 0.65264 0.82581 0.0
H259 H 0.58236 0.70363 0.81975 0.0
H260 H 0.47549 0.64848 0.83417 0.0
H261 H 0.47887 0.59734 0.8408 0.0
H262 H 0.54825 0.71762 0.79183 0.0
H263 H 0.50433 0.72993 0.86923 0.0
H264 H 0.51942 0.70095 0.86427 0.0
H265 H 0.47686 0.6901 0.85743 0.0
C266 C 0.56149 0.65127 0.8279 0.0
C267 C 0.53262 0.62069 0.83395 0.0
C268 C 0.55959 0.68061 0.82436 0.0
C269 C 0.52879 0.68039 0.82674 0.0
C270 C 0.49981 0.64983 0.83271 0.0
H271 H 0.47388 0.83757 0.80608 0.0
H272 H 0.47312 0.7841 0.81185 0.0
C273 C 0.50174 0.62042 0.8364 0.0
C274 C 0.52715 0.71191 0.82231 0.0
H275 H 0.50552 0.76723 0.84307 0.0
C276 C 0.53898 0.72844 0.80311 0.0
C277 C 0.51501 0.72631 0.8369 0.0
C278 C 0.50348 0.71113 0.85818 0.0
C279 C 0.53882 0.75847 0.79809 0.0
C280 C 0.52688 0.77293 0.81271 0.0
C281 C 0.51465 0.75626 0.8318 0.0
C282 C 0.52737 0.80555 0.80861 0.0
C283 C 0.551 0.77419 0.77699 0.0
C284 C 0.5581 0.83573 0.80493 0.0
C285 C 0.55863 0.86644 0.80166 0.0
C286 C 0.52842 0.86785 0.80198 0.0
C287 C 0.49765 0.83755 0.80558 0.0
C288 C 0.49717 0.80688 0.80896 0.0
H289 H 0.55069 0.75576 0.76585 0.0
H290 H 0.53511 0.78439 0.77082 0.0
H291 H 0.57749 0.7954 0.77812 0.0
H292 H 0.58185 0.83568 0.80493 0.0
H293 H 0.58283 0.88917 0.79909 0.0
H294 H 0.97385 0.58398 0.18568 0.0
H295 H 0.92114 0.58525 0.18004 0.0
H296 H 0.87538 0.48638 0.15322 0.0
H297 H 0.92768 0.48483 0.15874 0.0
H298 H 0.88668 0.57837 0.14096 0.0
H299 H 0.8052 0.47765 0.1972 0.0
H300 H 0.85096 0.49912 0.19807 0.0
H301 H 0.82834 0.46659 0.17953 0.0
C302 C 0.95248 0.56234 0.17877 0.0
C303 C 0.95517 0.53425 0.17276 0.0
C304 C 0.92236 0.56318 0.17546 0.0
C305 C 0.89405 0.53578 0.16637 0.0
C306 C 0.8966 0.50765 0.16052 0.0
H307 H 0.68744 0.48482 0.13478 0.0
H308 H 0.74109 0.48584 0.14059 0.0
C309 C 0.92671 0.50689 0.16364 0.0
C310 C 0.86215 0.5368 0.16247 0.0
H311 H 0.7776 0.49715 0.17462 0.0
C312 C 0.86286 0.56077 0.14842 0.0
C313 C 0.83094 0.51367 0.17204 0.0
C314 C 0.82866 0.48794 0.18769 0.0
C315 C 0.8332 0.56174 0.14332 0.0
C316 C 0.80192 0.53869 0.15298 0.0
C317 C 0.80135 0.51484 0.16713 0.0
C318 C 0.76949 0.53868 0.14864 0.0
C319 C 0.83559 0.58677 0.12709 0.0
C320 C 0.76714 0.56796 0.15122 0.0
C321 C 0.73647 0.56752 0.14768 0.0
C322 C 0.70711 0.53764 0.14176 0.0
C323 C 0.70946 0.50833 0.13925 0.0
C324 C 0.74021 0.50886 0.14264 0.0
H325 H 0.85797 0.59483 0.11685 0.0
H326 H 0.81244 0.57601 0.11742 0.0
H327 H 0.83846 0.60962 0.13474 0.0
H328 H 0.78888 0.59111 0.15638 0.0
H329 H 0.73561 0.59049 0.15001 0.0
H330 H 0.45806 0.92949 0.52653 0.0
H331 H 0.40641 0.87472 0.52171 0.0
H332 H 0.38455 0.91289 0.46611 0.0
H333 H 0.43477 0.9678 0.4715 0.0
H334 H 0.32942 0.87934 0.4855 0.0
H335 H 0.38861 0.79922 0.4854 0.0
H336 H 0.3962 0.82168 0.50906 0.0
H337 H 0.41347 0.84467 0.48522 0.0
C338 C 0.44221 0.92612 0.51328 0.0
C339 C 0.45059 0.95316 0.49946 0.0
C340 C 0.41276 0.8946 0.51039 0.0
C341 C 0.39153 0.88906 0.49327 0.0
C342 C 0.40017 0.91615 0.47946 0.0
H343 H 0.23699 0.68886 0.45088 0.0
H344 H 0.28856 0.74334 0.45623 0.0
C345 C 0.42906 0.94771 0.48258 0.0
C346 C 0.35978 0.85573 0.48988 0.0
H347 H 0.32826 0.77042 0.48687 0.0
C348 C 0.32936 0.85559 0.4857 0.0
C349 C 0.35932 0.82447 0.48974 0.0
C350 C 0.39121 0.82248 0.49237 0.0
C351 C 0.2989 0.82557 0.48147 0.0
C352 C 0.29805 0.79414 0.48234 0.0
C353 C 0.32848 0.79424 0.48641 0.0
C354 C 0.26614 0.76104 0.47879 0.0
C355 C 0.26832 0.82828 0.47538 0.0
C356 C 0.23604 0.75227 0.48967 0.0
C357 C 0.20626 0.72143 0.48622 0.0
C358 C 0.20597 0.69798 0.47225 0.0
C359 C 0.23622 0.70636 0.46168 0.0
C360 C 0.26584 0.73754 0.46481 0.0
H361 H 0.27591 0.85352 0.4686 0.0
H362 H 0.25239 0.80878 0.46401 0.0
H363 H 0.25276 0.82495 0.48931 0.0
H364 H 0.23557 0.7691 0.50109 0.0
H365 H 0.18364 0.71561 0.49491 0.0
H366 H 0.48642 0.39873 0.84851 0.0
H367 H 0.48549 0.34623 0.83987 0.0
H368 H 0.58572 0.40377 0.81347 0.0
H369 H 0.5867 0.45622 0.82177 0.0
H370 H 0.54363 0.35399 0.7879 0.0
H371 H 0.53209 0.29952 0.86623 0.0
H372 H 0.49972 0.30983 0.86053 0.0
H373 H 0.54332 0.34296 0.86189 0.0
C374 C 0.50848 0.40029 0.84111 0.0
C375 C 0.53666 0.43196 0.83594 0.0
C376 C 0.50798 0.37011 0.83624 0.0
C377 C 0.5357 0.37074 0.82618 0.0
C378 C 0.56399 0.40235 0.82124 0.0
H379 H 0.56494 0.19614 0.80647 0.0
H380 H 0.57012 0.24958 0.81792 0.0
C381 C 0.56452 0.43247 0.82608 0.0
C382 C 0.5347 0.3387 0.81987 0.0
H383 H 0.52357 0.26307 0.83807 0.0
C384 C 0.53936 0.33422 0.79894 0.0
C385 C 0.5296 0.31283 0.83417 0.0
C386 C 0.52623 0.31655 0.85699 0.0
C387 C 0.53833 0.30463 0.79191 0.0
C388 C 0.53198 0.27824 0.80609 0.0
C389 C 0.52812 0.283 0.8271 0.0
C390 C 0.52876 0.24544 0.79931 0.0
C391 C 0.54454 0.30214 0.76932 0.0
C392 C 0.50354 0.22482 0.78523 0.0
C393 C 0.50051 0.19428 0.77868 0.0
C394 C 0.52254 0.18326 0.78605 0.0
C395 C 0.54761 0.20375 0.80035 0.0
C396 C 0.55055 0.23435 0.80696 0.0
H397 H 0.55829 0.32745 0.76174 0.0
H398 H 0.55941 0.2892 0.76709 0.0
H399 H 0.51981 0.28731 0.76144 0.0
H400 H 0.48592 0.23224 0.77936 0.0
H401 H 0.48073 0.17927 0.76779 0.0
H402 H 0.51076 0.83682 0.5368 0.0
H403 H 0.50219 0.78032 0.53062 0.0
H404 H 0.59436 0.824 0.49452 0.0
H405 H 0.60317 0.88052 0.50067 0.0
H406 H 0.49747 0.74494 0.4935 0.0
H407 H 0.61 0.77081 0.54056 0.0
H408 H 0.59144 0.79761 0.54101 0.0
H409 H 0.61819 0.80038 0.51984 0.0
C410 C 0.529 0.83433 0.52738 0.0
C411 C 0.55788 0.86305 0.51945 0.0
C412 C 0.52407 0.8021 0.52386 0.0
C413 C 0.5479 0.79814 0.51236 0.0
C414 C 0.57603 0.82665 0.50375 0.0
H415 H 0.57314 0.62307 0.50193 0.0
H416 H 0.57574 0.67645 0.49325 0.0
C417 C 0.58109 0.85886 0.50735 0.0
C418 C 0.54424 0.76434 0.51032 0.0
H419 H 0.58096 0.71806 0.5245 0.0
C420 C 0.51576 0.739 0.50016 0.0
C421 C 0.5682 0.75682 0.51906 0.0
C422 C 0.59855 0.78269 0.53089 0.0
C423 C 0.51056 0.70614 0.49856 0.0
C424 C 0.53424 0.69853 0.50761 0.0
C425 C 0.56302 0.72408 0.5174 0.0
C426 C 0.52872 0.66381 0.50876 0.0
C427 C 0.47985 0.67994 0.48722 0.0
C428 C 0.50082 0.6386 0.51976 0.0
C429 C 0.4992 0.60803 0.5247 0.0
C430 C 0.5257 0.60237 0.51895 0.0
C431 C 0.55243 0.62675 0.50671 0.0
C432 C 0.55396 0.65725 0.50171 0.0
H433 H 0.47058 0.69183 0.47587 0.0
H434 H 0.48547 0.66211 0.47902 0.0
H435 H 0.45909 0.66528 0.49848 0.0
H436 H 0.4814 0.64337 0.5257 0.0
H437 H 0.47824 0.58977 0.53413 0.0
H438 H 0.67939 0.45834 0.82204 0.0
H439 H 0.71799 0.43584 0.82255 0.0
H440 H 0.79722 0.52911 0.79606 0.0
H441 H 0.75956 0.55268 0.79672 0.0
H442 H 0.75582 0.42499 0.79391 0.0
H443 H 0.83913 0.52302 0.84973 0.0
H444 H 0.79789 0.51631 0.84278 0.0
H445 H 0.83356 0.5396 0.82576 0.0
C446 C 0.70509 0.4742 0.81643 0.0
C447 C 0.71656 0.50762 0.80978 0.0
C448 C 0.72698 0.46112 0.81649 0.0
C449 C 0.76066 0.48108 0.80976 0.0
C450 C 0.77152 0.51356 0.80175 0.0
H451 H 0.93056 0.44936 0.83312 0.0
H452 H 0.89458 0.46639 0.81474 0.0
C453 C 0.74979 0.52685 0.80193 0.0
C454 C 0.7849 0.46876 0.81268 0.0
H455 H 0.85601 0.48473 0.83923 0.0
C456 C 0.7779 0.43816 0.80367 0.0
C457 C 0.81357 0.48591 0.82555 0.0
C458 C 0.82141 0.51785 0.83668 0.0
C459 C 0.79867 0.42407 0.80739 0.0
C460 C 0.82696 0.44101 0.82048 0.0
C461 C 0.83446 0.47202 0.829 0.0
C462 C 0.84753 0.42597 0.82732 0.0
C463 C 0.79007 0.39108 0.79749 0.0
C464 C 0.83284 0.39689 0.83992 0.0
C465 C 0.85332 0.38711 0.85052 0.0
C466 C 0.88884 0.40646 0.8488 0.0
C467 C 0.90329 0.43401 0.83488 0.0
C468 C 0.88279 0.44378 0.82433 0.0
H469 H 0.77404 0.38633 0.7836 0.0
H470 H 0.81341 0.39069 0.79303 0.0
H471 H 0.77568 0.37012 0.80869 0.0
H472 H 0.80572 0.38313 0.84271 0.0
H473 H 0.84139 0.36571 0.86106 0.0
H474 H 0.2507 0.74474 0.23191 0.0
H475 H 0.29461 0.80318 0.23852 0.0
H476 H 0.24516 0.83894 0.19688 0.0
H477 H 0.20133 0.78067 0.19011 0.0
H478 H 0.31575 0.8741 0.19275 0.0
H479 H 0.27613 0.86479 0.27472 0.0
H480 H 0.28716 0.83381 0.26725 0.0
H481 H 0.25079 0.83328 0.256 0.0
C482 C 0.2493 0.76508 0.2241 0.0
C483 C 0.22243 0.75814 0.21061 0.0
C484 C 0.27433 0.79841 0.22792 0.0
C485 C 0.27271 0.82536 0.2185 0.0
C486 C 0.24678 0.81848 0.20436 0.0
H487 H 0.37836 0.04353 0.2289 0.0
H488 H 0.34111 0.98455 0.21899 0.0
C489 C 0.22185 0.78517 0.20044 0.0
C490 C 0.29722 0.86074 0.22395 0.0
H491 H 0.32453 0.91569 0.2641 0.0
C492 C 0.31771 0.88324 0.20834 0.0
C493 C 0.29957 0.87257 0.2443 0.0
C494 C 0.27706 0.84999 0.26152 0.0
C495 C 0.34082 0.91724 0.21259 0.0
C496 C 0.34306 0.92902 0.23292 0.0
C497 C 0.32275 0.90649 0.24854 0.0
C498 C 0.36608 0.96475 0.23835 0.0
C499 C 0.36296 0.94015 0.19539 0.0
C500 C 0.39179 0.97297 0.2529 0.0
C501 C 0.41284 1.0065 0.25862 0.0
C502 C 0.4086 0.03236 0.24989 0.0
C503 C 0.38242 0.02406 0.23564 0.0
C504 C 0.36136 0.99049 0.22986 0.0
H505 H 0.36413 0.9256 0.18213 0.0
H506 H 0.35238 0.95601 0.18982 0.0
H507 H 0.38915 0.95723 0.20091 0.0
H508 H 0.39543 0.9534 0.25991 0.0
H509 H 0.43181 0.01213 0.27031 0.0
H510 H 0.50622 0.24118 0.46624 0.0
H511 H 0.52564 0.30141 0.46814 0.0
H512 H 0.62689 0.32191 0.48185 0.0
H513 H 0.60803 0.26182 0.47905 0.0
H514 H 0.55078 0.33677 0.50342 0.0
H515 H 0.64533 0.39645 0.44021 0.0
H516 H 0.61529 0.35167 0.44131 0.0
H517 H 0.65289 0.36929 0.45687 0.0
C518 C 0.53284 0.25856 0.46904 0.0
C519 C 0.55556 0.24668 0.47256 0.0
C520 C 0.54385 0.29296 0.47024 0.0
C521 C 0.57775 0.31614 0.47494 0.0
C522 C 0.60076 0.30455 0.47781 0.0
H523 H 0.6743 0.51845 0.52305 0.0
H524 H 0.66314 0.46427 0.5091 0.0
C525 C 0.58982 0.27014 0.47651 0.0
C526 C 0.58797 0.3517 0.47912 0.0
H527 H 0.64383 0.43355 0.46534 0.0
C528 C 0.5709 0.35789 0.49495 0.0
C529 C 0.61446 0.37918 0.46816 0.0
C530 C 0.63288 0.3739 0.45056 0.0
C531 C 0.57982 0.39084 0.50031 0.0
C532 C 0.60626 0.4183 0.48939 0.0
C533 C 0.62351 0.41229 0.47359 0.0
C534 C 0.61607 0.45333 0.4945 0.0
C535 C 0.56126 0.39615 0.51785 0.0
C536 C 0.59384 0.4654 0.4902 0.0
C537 C 0.60004 0.49617 0.49814 0.0
C538 C 0.62861 0.51534 0.51051 0.0
C539 C 0.65203 0.5042 0.51363 0.0
C540 C 0.64576 0.47334 0.50566 0.0
H541 H 0.54578 0.37264 0.52704 0.0
H542 H 0.57946 0.41608 0.52829 0.0
H543 H 0.54405 0.40462 0.51153 0.0
H544 H 0.57087 0.45024 0.48151 0.0
H545 H 0.58162 0.50415 0.49534 0.0
H546 H 0.32213 0.5 0.82556 0.0
H547 H 0.27137 0.50531 0.82344 0.0
H548 H 0.2881 0.54279 0.88562 0.0
H549 H 0.33858 0.53693 0.88793 0.0
H550 H 0.22538 0.49111 0.88065 0.0
H551 H 0.25461 0.58374 0.81704 0.0
H552 H 0.26056 0.5493 0.80979 0.0
H553 H 0.28685 0.57788 0.82946 0.0
C554 C 0.31537 0.51008 0.8386 0.0
C555 C 0.33417 0.51797 0.85694 0.0
C556 C 0.28647 0.51326 0.83734 0.0
C557 C 0.27621 0.52489 0.85427 0.0
C558 C 0.29565 0.53388 0.87234 0.0
H559 H 0.10437 0.55817 0.8625 0.0
H560 H 0.16147 0.56624 0.85856 0.0
C561 C 0.32435 0.5304 0.87368 0.0
C562 C 0.24331 0.52412 0.85398 0.0
H563 H 0.19611 0.55074 0.8272 0.0
C564 C 0.21914 0.50442 0.86906 0.0
C565 C 0.23527 0.54166 0.83894 0.0
C566 C 0.26082 0.56461 0.82302 0.0
C567 C 0.18691 0.50119 0.86929 0.0
C568 C 0.17832 0.51745 0.85371 0.0
C569 C 0.20269 0.53788 0.83891 0.0
C570 C 0.14411 0.51356 0.8529 0.0
C571 C 0.16242 0.48057 0.88635 0.0
C572 C 0.11559 0.48153 0.85014 0.0
C573 C 0.08303 0.47679 0.85251 0.0
C574 C 0.07848 0.5041 0.85747 0.0
C575 C 0.10707 0.53662 0.85876 0.0
C576 C 0.1397 0.5413 0.8565 0.0
H577 H 0.17566 0.47712 0.89975 0.0
H578 H 0.14796 0.49269 0.89174 0.0
H579 H 0.14405 0.45519 0.88045 0.0
H580 H 0.11856 0.45995 0.84698 0.0
H581 H 0.06151 0.4515 0.8512 0.0
H582 H 0.83921 0.34951 0.15262 0.0
H583 H 0.7832 0.29894 0.15624 0.0
H584 H 0.82905 0.23629 0.15369 0.0
H585 H 0.88514 0.28667 0.15017 0.0
H586 H 0.77035 0.21351 0.12901 0.0
H587 H 0.74895 0.24095 0.20919 0.0
H588 H 0.75897 0.27411 0.1906 0.0
H589 H 0.79017 0.26242 0.19694 0.0
C590 C 0.83738 0.32497 0.15295 0.0
C591 C 0.86663 0.32209 0.15125 0.0
C592 C 0.80538 0.29614 0.155 0.0
C593 C 0.8021 0.26396 0.15552 0.0
C594 C 0.83111 0.26094 0.15334 0.0
H595 H 0.6487 0.0573 0.17659 0.0
H596 H 0.69936 0.11035 0.1669 0.0
C597 C 0.8631 0.28973 0.15126 0.0
C598 C 0.76852 0.23335 0.15863 0.0
H599 H 0.70433 0.19276 0.19372 0.0
C600 C 0.75583 0.20896 0.14312 0.0
C601 C 0.74966 0.22763 0.17704 0.0
C602 C 0.76264 0.25247 0.1945 0.0
C603 C 0.72474 0.17885 0.14557 0.0
C604 C 0.70623 0.17283 0.16415 0.0
C605 C 0.71858 0.19753 0.17947 0.0
C606 C 0.67485 0.1404 0.16851 0.0
C607 C 0.71188 0.15383 0.12823 0.0
C608 C 0.64437 0.13979 0.17283 0.0
C609 C 0.61536 0.10951 0.17847 0.0
C610 C 0.61646 0.07937 0.18006 0.0
C611 C 0.64695 0.08003 0.17543 0.0
C612 C 0.67589 0.11029 0.16976 0.0
H613 H 0.72363 0.16606 0.11322 0.0
H614 H 0.71845 0.1339 0.13142 0.0
H615 H 0.68388 0.14153 0.12685 0.0
H616 H 0.64315 0.16284 0.17208 0.0
H617 H 0.5923 0.10987 0.18199 0.0
H618 H 0.04324 0.59243 0.11234 0.0
H619 H 0.03135 0.5768 0.07598 0.0
H620 H 0.04969 0.49397 0.08658 0.0
H621 H 0.06253 0.51008 0.12273 0.0
H622 H 0.0813 0.53086 0.05154 0.0
H623 H 0.94592 0.49678 0.05312 0.0
H624 H 0.97455 0.53863 0.06201 0.0
H625 H 0.97013 0.5027 0.07631 0.0
C626 C 0.0447 0.5709 0.10687 0.0
C627 C 0.05343 0.55222 0.12031 0.0
C628 C 0.03767 0.56185 0.08617 0.0
C629 C 0.03901 0.53384 0.0787 0.0
C630 C 0.04826 0.51551 0.09208 0.0
H631 H 1.00242 0.43492 0.96007 0.0
H632 H 1.01474 0.45047 0.99636 0.0
C633 C 0.05544 0.52464 0.11272 0.0
C634 C 0.03152 0.524 0.05684 0.0
H635 H 0.96992 0.499 0.02022 0.0
C636 C 0.0569 0.52373 0.0447 0.0
C637 C 0.99963 0.51464 0.04801 0.0
C638 C 0.97086 0.51285 0.06056 0.0
C639 C 0.05144 0.51492 0.02383 0.0
C640 C 0.01967 0.50585 0.01499 0.0
C641 C 0.99427 0.50605 0.0271 0.0
C642 C 1.01238 0.49639 0.9931 0.0
C643 C 0.07986 0.51601 0.01127 0.0
C644 C 1.00646 0.51681 0.97942 0.0
C645 C 0.9994 0.50802 0.95873 0.0
C646 C 0.99785 0.47846 0.95137 0.0
C647 C 1.0035 0.45786 0.96521 0.0
C648 C 1.0107 0.46679 0.98592 0.0
H649 H 0.1047 0.53012 0.01917 0.0
H650 H 0.0745 0.48985 0.00873 0.0
H651 H 0.08181 0.52796 0.99593 0.0
H652 H 1.00752 0.53968 0.98475 0.0
H653 H 0.9951 0.52442 0.94851 0.0
H654 H 0.60923 0.04831 0.44234 0.0
H655 H 0.60312 0.0448 0.40473 0.0
H656 H 0.50056 0.02547 0.41069 0.0
H657 H 0.5065 0.02899 0.44827 0.0
H658 H 0.55253 0.98728 0.38269 0.0
H659 H 0.54486 0.10308 0.36717 0.0
H660 H 0.56175 0.09646 0.39087 0.0
H661 H 0.51672 0.07525 0.38691 0.0
C662 C 0.58549 0.04355 0.4356 0.0
C663 C 0.55834 0.03892 0.44816 0.0
C664 C 0.58203 0.04155 0.41416 0.0
C665 C 0.55153 0.03524 0.40497 0.0
C666 C 0.52448 0.03091 0.41749 0.0
H667 H 0.47818 1.00654 0.27908 0.0
H668 H 0.48522 0.0135 0.31648 0.0
C669 C 0.52787 0.03278 0.43893 0.0
C670 C 0.54746 0.03161 0.38235 0.0
H671 H 0.53386 0.06635 0.3391 0.0
C672 C 0.54861 1.00463 0.37311 0.0
C673 C 0.5421 0.05417 0.37 0.0
C674 C 0.54152 0.08406 0.37915 0.0
C675 C 0.54403 0.99926 0.3518 0.0
C676 C 0.53899 0.02201 0.33938 0.0
C677 C 0.53777 0.04898 0.34865 0.0
C678 C 0.53499 0.0183 0.31671 0.0
C679 C 0.54379 0.96879 0.3429 0.0
C680 C 0.56074 0.01908 0.30442 0.0
C681 C 0.55673 0.01522 0.28308 0.0
C682 C 0.52718 0.0112 0.27362 0.0
C683 C 0.50156 0.01067 0.28591 0.0
C684 C 0.50546 0.0143 0.30727 0.0
H685 H 0.53828 0.94914 0.35491 0.0
H686 H 0.52466 0.95743 0.33048 0.0
H687 H 0.56913 0.97661 0.33623 0.0
H688 H 0.58403 0.02283 0.31132 0.0
H689 H 0.57694 0.01585 0.27394 0.0
H690 H 0.56292 0.56663 0.78545 0.0
H691 H 0.58016 0.57131 0.74931 0.0
H692 H 0.50281 0.4676 0.73987 0.0
H693 H 0.48635 0.4624 0.7763 0.0
H694 H 0.56342 0.48292 0.72192 0.0
H695 H 0.52885 0.57979 0.70092 0.0
H696 H 0.55834 0.59208 0.72183 0.0
H697 H 0.51615 0.55662 0.72504 0.0
C698 C 0.54971 0.5448 0.77568 0.0
C699 C 0.52331 0.51416 0.7836 0.0
C700 C 0.55939 0.54759 0.75501 0.0
C701 C 0.54237 0.51998 0.74184 0.0
C702 C 0.51616 0.48924 0.74978 0.0
H703 H 0.5437 0.48924 0.61107 0.0
H704 H 0.53502 0.48182 0.64839 0.0
C705 C 0.50669 0.48635 0.77052 0.0
C706 C 0.55188 0.52316 0.71977 0.0
H707 H 0.55896 0.56784 0.67571 0.0
C708 C 0.56236 0.5014 0.71178 0.0
C709 C 0.55037 0.54726 0.70659 0.0
C710 C 0.53751 0.57005 0.71395 0.0
C711 C 0.57177 0.50341 0.69098 0.0
C712 C 0.5705 0.52767 0.67793 0.0
C713 C 0.56017 0.54948 0.68589 0.0
C714 C 0.57849 0.53021 0.65569 0.0
C715 C 0.58329 0.47986 0.6831 0.0
C716 C 0.606 0.55974 0.64753 0.0
C717 C 0.61109 0.56407 0.62623 0.0
C718 C 0.58843 0.5391 0.61272 0.0
C719 C 0.56159 0.50898 0.62103 0.0
C720 C 0.55667 0.5046 0.64235 0.0
H721 H 0.58952 0.46754 0.6959 0.0
H722 H 0.56269 0.45981 0.67385 0.0
H723 H 0.60589 0.49368 0.67294 0.0
H724 H 0.62297 0.57983 0.65765 0.0
H725 H 0.632 0.58759 0.62035 0.0
H726 H 0.58079 0.07313 0.5634 0.0
H727 H 0.58277 0.06944 0.60117 0.0
H728 H 0.47736 0.04154 0.60492 0.0
H729 H 0.47517 0.0449 0.56728 0.0
H730 H 0.56835 0.10405 0.63238 0.0
H731 H 0.48102 0.96543 0.63707 0.0
H732 H 0.50076 0.98706 0.61321 0.0
H733 H 0.46453 0.98823 0.62315 0.0
C734 C 0.55806 0.0662 0.5723 0.0
C735 C 0.52778 0.05916 0.56237 0.0
C736 C 0.55924 0.06419 0.59387 0.0
C737 C 0.53012 0.05485 0.6059 0.0
C738 C 0.50001 0.04827 0.59599 0.0
H739 H 0.51847 0.0669 0.74105 0.0
H740 H 0.51866 0.07751 0.70383 0.0
C741 C 0.49883 0.05031 0.57446 0.0
C742 C 0.53104 0.05158 0.62877 0.0
H743 H 0.49685 0.99465 0.66865 0.0
C744 C 0.55273 0.08015 0.64034 0.0
C745 C 0.51085 0.02033 0.63914 0.0
C746 C 0.48817 0.98841 0.62754 0.0
C747 C 0.55459 0.07833 0.66198 0.0
C748 C 0.53398 0.04717 0.67236 0.0
C749 C 0.51242 0.01862 0.66074 0.0
C750 C 0.53572 0.04287 0.69509 0.0
C751 C 0.5792 0.10952 0.67352 0.0
C752 C 0.54507 0.01985 0.70263 0.0
C753 C 0.54502 0.0138 0.7238 0.0
C754 C 0.53551 0.03054 0.73812 0.0
C755 C 0.52657 0.05403 0.7306 0.0
C756 C 0.52661 0.06008 0.70927 0.0
H757 H 0.59816 0.12938 0.66304 0.0
H758 H 0.56499 0.12003 0.68144 0.0
H759 H 0.59281 0.10329 0.68544 0.0
H760 H 0.55219 1.00624 0.69206 0.0
H761 H 0.55218 0.99561 0.72891 0.0
H762 H 0.58854 0.59175 0.9054 0.0
H763 H 0.57968 0.58681 0.94276 0.0
H764 H 0.50339 0.48195 0.93654 0.0
H765 H 0.51258 0.48666 0.89901 0.0
H766 H 0.52243 0.56844 0.9672 0.0
H767 H 0.56978 0.47825 0.97759 0.0
H768 H 0.57553 0.50143 0.95381 0.0
H769 H 0.53501 0.46537 0.96004 0.0
C770 C 0.56983 0.56762 0.91197 0.0
C771 C 0.55152 0.53949 0.89929 0.0
C772 C 0.56469 0.56487 0.93333 0.0
C773 C 0.54119 0.53392 0.94255 0.0
C774 C 0.5221 0.50596 0.92985 0.0
H775 H 0.49818 0.51827 0.07721 0.0
H776 H 0.48959 0.51633 0.03972 0.0
C777 C 0.52728 0.50869 0.90841 0.0
C778 C 0.53785 0.53105 0.96546 0.0
H779 H 0.55305 0.49479 0.00746 0.0
C780 C 0.52875 0.55206 0.97602 0.0
C781 C 0.54635 0.50986 0.97698 0.0
C782 C 0.55749 0.4876 0.96661 0.0
C783 C 0.52869 0.553 0.99773 0.0
C784 C 0.53773 0.53221 0.0092 0.0
C785 C 0.54593 0.51058 0.99865 0.0
C786 C 0.5423 0.53489 0.03199 0.0
C787 C 0.52046 0.57729 0.00825 0.0
C788 C 0.57466 0.54598 0.04013 0.0
C789 C 0.57963 0.54727 0.06142 0.0
C790 C 0.55234 0.53738 0.07525 0.0
C791 C 0.51989 0.52673 0.06711 0.0
C792 C 0.51491 0.52547 0.04564 0.0
H793 H 0.51903 0.59523 0.99714 0.0
H794 H 0.49558 0.56287 0.01623 0.0
H795 H 0.53986 0.59194 0.02005 0.0
H796 H 0.59619 0.55345 0.02994 0.0
H797 H 0.60502 0.55572 0.06702 0.0
H798 H 1.0003 0.45198 0.24079 0.0
H799 H 1.00007 0.45911 0.27812 0.0
H800 H 0.04892 0.56711 0.26932 0.0
H801 H 0.04806 0.55988 0.23186 0.0
H802 H 0.0532 0.49156 0.30361 0.0
H803 H 0.97274 0.55056 0.30816 0.0
H804 H 0.97607 0.53076 0.28505 0.0
H805 H 1.00863 0.57296 0.29127 0.0
C806 C 1.01075 0.47724 0.24681 0.0
C807 C 0.02446 0.50543 0.23343 0.0
C808 C 1.01064 0.48129 0.26816 0.0
C809 C 0.0241 0.51361 0.27661 0.0
C810 C 0.03774 0.54185 0.26322 0.0
H811 H 0.07411 0.59669 0.39867 0.0
H812 H 0.06321 0.58575 0.36188 0.0
C813 C 0.03768 0.53777 0.24181 0.0
C814 C 0.02522 0.51766 0.29944 0.0
H815 H 1.00229 0.55147 0.33879 0.0
C816 C 0.04177 0.50438 0.31131 0.0
C817 C 1.0103 0.53438 0.30954 0.0
C818 C 0.99064 0.5477 0.29789 0.0
C819 C 0.04464 0.50814 0.33283 0.0
C820 C 0.03014 0.52524 0.34288 0.0
C821 C 1.01331 0.53828 0.33108 0.0
C822 C 0.03387 0.53145 0.36548 0.0
C823 C 0.06416 0.49472 0.34456 0.0
C824 C 0.02021 0.50458 0.37988 0.0
C825 C 0.02638 0.51076 0.40104 0.0
C826 C 0.04624 0.54395 0.40818 0.0
C827 C 0.05877 0.5708 0.39373 0.0
C828 C 0.05251 0.56462 0.37266 0.0
H829 H 0.07972 0.48869 0.33415 0.0
H830 H 0.08112 0.51327 0.35609 0.0
H831 H 0.04604 0.47121 0.35294 0.0
H832 H 1.0054 0.47877 0.3747 0.0
H833 H 1.01687 0.48947 0.41161 0.0
loop_
_geom_bond_atom_site_label_1
_geom_bond_atom_site_label_2
_geom_bond_distance
_geom_bond_site_symmetry_2
_ccdc_geom_bond_type
C0 Eu1 2.835 . S
C0 C2 1.500 . S
C0 O20 1.257 . S
C0 O21 1.260 . S
Eu1 C0 2.835 . S
Eu1 O20 2.473 . S
Eu1 O21 2.480 . S
Eu1 O22 2.430 . S
Eu1 O23 2.670 1_655 S
Eu1 O24 2.394 . S
Eu1 O29 2.355 1_655 S
Eu1 O31 2.374 1_655 S
C2 C0 1.500 . S
C2 C3 1.377 . S
C2 C7 1.377 . S
C3 C2 1.377 . S
C3 C4 1.395 . S
C3 H32 0.931 . S
C4 C3 1.395 . S
C4 C5 1.383 . S
C4 H33 0.931 . S
C5 C4 1.383 . S
C5 C6 1.394 . S
C6 C5 1.394 . S
C6 C7 1.378 . S
C6 H34 0.931 . S
C7 C2 1.377 . S
C7 C6 1.378 . S
C7 H35 0.931 . S
C8 O22 1.259 1_455 S
C8 O23 1.270 . S
C9 O24 1.251 . S
C9 O25 1.251 . S
C10 Eu11 2.835 . S
C10 C12 1.500 . S
C10 O26 1.257 . S
C10 O27 1.260 . S
Eu11 C10 2.835 . S
Eu11 O23 2.355 . S
Eu11 O25 2.374 1_455 S
Eu11 O26 2.473 . S
Eu11 O27 2.480 . S
Eu11 O28 2.430 . S
Eu11 O29 2.670 . S
Eu11 O30 2.394 . S
C12 C10 1.500 . S
C12 C13 1.377 . S
C12 C17 1.377 . S
C13 C12 1.377 . S
C13 C14 1.395 . S
C13 H36 0.931 . S
C14 C13 1.395 . S
C14 C15 1.383 . S
C14 H37 0.931 . S
C15 C14 1.383 . S
C15 C16 1.394 . S
C16 C15 1.394 . S
C16 C17 1.378 . S
C16 H38 0.931 . S
C17 C12 1.377 . S
C17 C16 1.378 . S
C17 H39 0.931 . S
C18 O28 1.259 . S
C18 O29 1.270 . S
C19 O30 1.251 . S
C19 O31 1.251 . S
O20 C0 1.257 . S
O20 Eu1 2.473 . S
O21 C0 1.260 . S
O21 Eu1 2.480 . S
O22 Eu1 2.430 . S
O22 C8 1.259 1_655 S
O23 Eu1 2.670 1_455 S
O23 C8 1.270 . S
O23 Eu11 2.355 . S
O24 Eu1 2.394 . S
O24 C9 1.251 . S
O25 C9 1.251 . S
O25 Eu11 2.374 1_655 S
O26 C10 1.257 . S
O26 Eu11 2.473 . S
O27 C10 1.260 . S
O27 Eu11 2.480 . S
O28 Eu11 2.430 . S
O28 C18 1.259 . S
O29 Eu1 2.355 1_455 S
O29 Eu11 2.670 . S
O29 C18 1.270 . S
O30 Eu11 2.394 . S
O30 C19 1.251 . S
O31 Eu1 2.374 1_455 S
O31 C19 1.251 . S
H32 C3 0.931 . S
H33 C4 0.931 . S
H34 C6 0.931 . S
H35 C7 0.931 . S
H36 C13 0.931 . S
H37 C14 0.931 . S
H38 C16 0.931 . S
H39 C17 0.931 . S
C40 Eu41 2.835 . S
C40 C42 1.500 . S
C40 O60 1.257 . S
C40 O61 1.260 . S
Eu41 C40 2.835 . S
Eu41 O60 2.473 . S
Eu41 O61 2.480 . S
Eu41 O62 2.430 . S
Eu41 O63 2.670 . S
Eu41 O64 2.394 . S
Eu41 O69 2.355 . S
Eu41 O71 2.374 1_545 S
C42 C40 1.500 . S
C42 C43 1.377 . S
C42 C47 1.377 . S
C43 C42 1.377 . S
C43 C44 1.395 . S
C43 H72 0.931 . S
C44 C43 1.395 . S
C44 C45 1.383 . S
C44 H73 0.931 . S
C45 C44 1.383 . S
C45 C46 1.394 . S
C46 C45 1.394 . S
C46 C47 1.378 . S
C46 H74 0.931 . S
C47 C42 1.377 . S
C47 C46 1.378 . S
C47 H75 0.931 . S
C48 O62 1.259 . S
C48 O63 1.270 . S
C49 O64 1.251 . S
C49 O65 1.251 . S
C50 Eu51 2.835 1_565 S
C50 C52 1.500 . S
C50 O66 1.257 . S
C50 O67 1.260 . S
Eu51 C50 2.835 1_545 S
Eu51 O63 2.355 . S
Eu51 O65 2.374 . S
Eu51 O66 2.473 1_545 S
Eu51 O67 2.480 1_545 S
Eu51 O68 2.430 . S
Eu51 O69 2.670 . S
Eu51 O70 2.394 1_545 S
C52 C50 1.500 . S
C52 C53 1.377 . S
C52 C57 1.377 . S
C53 C52 1.377 . S
C53 C54 1.395 . S
C53 H76 0.931 . S
C54 C53 1.395 . S
C54 C55 1.383 . S
C54 H77 0.931 . S
C55 C54 1.383 . S
C55 C56 1.394 . S
C56 C55 1.394 . S
C56 C57 1.378 . S
C56 H78 0.931 . S
C57 C52 1.377 . S
C57 C56 1.378 . S
C57 H79 0.931 . S
C58 O68 1.259 . S
C58 O69 1.270 . S
C59 O70 1.251 . S
C59 O71 1.251 . S
O60 C40 1.257 . S
O60 Eu41 2.473 . S
O61 C40 1.260 . S
O61 Eu41 2.480 . S
O62 Eu41 2.430 . S
O62 C48 1.259 . S
O63 Eu41 2.670 . S
O63 C48 1.270 . S
O63 Eu51 2.355 . S
O64 Eu41 2.394 . S
O64 C49 1.251 . S
O65 C49 1.251 . S
O65 Eu51 2.374 . S
O66 C50 1.257 . S
O66 Eu51 2.473 1_565 S
O67 C50 1.260 . S
O67 Eu51 2.480 1_565 S
O68 Eu51 2.430 . S
O68 C58 1.259 . S
O69 Eu41 2.355 . S
O69 Eu51 2.670 . S
O69 C58 1.270 . S
O70 Eu51 2.394 1_565 S
O70 C59 1.251 . S
O71 Eu41 2.374 1_565 S
O71 C59 1.251 . S
H72 C43 0.931 . S
H73 C44 0.931 . S
H74 C46 0.931 . S
H75 C47 0.931 . S
H76 C53 0.931 . S
H77 C54 0.931 . S
H78 C56 0.931 . S
H79 C57 0.931 . S
C80 Eu81 2.835 . S
C80 C82 1.500 . S
C80 O100 1.257 . S
C80 O101 1.260 . S
Eu81 C80 2.835 . S
Eu81 O100 2.473 . S
Eu81 O101 2.480 . S
Eu81 O102 2.430 . S
Eu81 O103 2.670 . S
Eu81 O104 2.394 . S
Eu81 O109 2.355 . S
Eu81 O111 2.374 . S
C82 C80 1.500 . S
C82 C83 1.377 . S
C82 C87 1.377 . S
C83 C82 1.377 . S
C83 C84 1.395 . S
C83 H112 0.931 . S
C84 C83 1.395 . S
C84 C85 1.383 . S
C84 H113 0.931 . S
C85 C84 1.383 . S
C85 C86 1.394 . S
C86 C85 1.394 . S
C86 C87 1.378 . S
C86 H114 0.931 . S
C87 C82 1.377 . S
C87 C86 1.378 . S
C87 H115 0.931 . S
C88 O102 1.259 . S
C88 O103 1.270 . S
C89 O104 1.251 . S
C89 O105 1.251 . S
C90 Eu91 2.835 . S
C90 C92 1.500 . S
C90 O106 1.257 . S
C90 O107 1.260 . S
Eu91 C90 2.835 . S
Eu91 O103 2.355 . S
Eu91 O105 2.374 . S
Eu91 O106 2.473 . S
Eu91 O107 2.480 . S
Eu91 O108 2.430 . S
Eu91 O109 2.670 . S
Eu91 O110 2.394 . S
C92 C90 1.500 . S
C92 C93 1.377 . S
C92 C97 1.377 . S
C93 C92 1.377 . S
C93 C94 1.395 . S
C93 H116 0.931 . S
C94 C93 1.395 . S
C94 C95 1.383 . S
C94 H117 0.931 . S
C95 C94 1.383 . S
C95 C96 1.394 . S
C96 C95 1.394 . S
C96 C97 1.378 . S
C96 H118 0.931 . S
C97 C92 1.377 . S
C97 C96 1.378 . S
C97 H119 0.931 . S
C98 O108 1.259 . S
C98 O109 1.270 . S
C99 O110 1.251 . S
C99 O111 1.251 . S
O100 C80 1.257 . S
O100 Eu81 2.473 . S
O101 C80 1.260 . S
O101 Eu81 2.480 . S
O102 Eu81 2.430 . S
O102 C88 1.259 . S
O103 Eu81 2.670 . S
O103 C88 1.270 . S
O103 Eu91 2.355 . S
O104 Eu81 2.394 . S
O104 C89 1.251 . S
O105 C89 1.251 . S
O105 Eu91 2.374 . S
O106 C90 1.257 . S
O106 Eu91 2.473 . S
O107 C90 1.260 . S
O107 Eu91 2.480 . S
O108 Eu91 2.430 . S
O108 C98 1.259 . S
O109 Eu81 2.355 . S
O109 Eu91 2.670 . S
O109 C98 1.270 . S
O110 Eu91 2.394 . S
O110 C99 1.251 . S
O111 Eu81 2.374 . S
O111 C99 1.251 . S
H112 C83 0.931 . S
H113 C84 0.931 . S
H114 C86 0.931 . S
H115 C87 0.931 . S
H116 C93 0.931 . S
H117 C94 0.931 . S
H118 C96 0.931 . S
H119 C97 0.931 . S
O120 Cd121 2.300 . S
O120 C127 1.275 . S
Cd121 O120 2.300 . S
Cd121 O129 2.381 . S
Cd121 O130 2.378 . S
O122 Cd123 2.385 1_545 S
O122 C127 1.255 . S
Cd123 O122 2.385 1_565 S
Cd123 O124 2.317 . S
O124 Cd123 2.317 . S
O124 C125 1.232 . S
C125 O124 1.232 . S
C125 O126 1.218 . S
O126 C125 1.218 . S
C127 O120 1.275 . S
C127 O122 1.255 . S
C128 O129 1.258 . S
C128 O130 1.256 . S
O129 Cd121 2.381 . S
O129 C128 1.258 . S
O130 Cd121 2.378 . S
O130 C128 1.256 . S
O131 Cd132 2.300 . S
O131 C138 1.275 . S
Cd132 O131 2.300 . S
Cd132 O140 2.381 . S
Cd132 O141 2.378 . S
O133 Cd134 2.385 . S
O133 C138 1.255 . S
Cd134 O133 2.385 . S
Cd134 O135 2.317 . S
O135 Cd134 2.317 . S
O135 C136 1.232 . S
C136 O135 1.232 . S
C136 O137 1.218 . S
O137 C136 1.218 . S
C138 O131 1.275 . S
C138 O133 1.255 . S
C139 O140 1.258 . S
C139 O141 1.256 . S
O140 Cd132 2.381 . S
O140 C139 1.258 . S
O141 Cd132 2.378 . S
O141 C139 1.256 . S
O142 Cd143 2.300 . S
O142 C149 1.277 1_455 S
Cd143 O142 2.300 . S
Cd143 O151 2.381 . S
Cd143 O152 2.378 . S
O144 Cd145 2.385 . S
O144 C149 1.254 . S
Cd145 O144 2.385 . S
Cd145 O146 2.317 . S
O146 Cd145 2.317 . S
O146 C147 1.232 . S
C147 O146 1.232 . S
C147 O148 1.218 . S
O148 C147 1.218 . S
C149 O142 1.277 1_655 S
C149 O144 1.254 . S
C150 O151 1.258 . S
C150 O152 1.256 . S
O151 Cd143 2.381 . S
O151 C150 1.258 . S
O152 Cd143 2.378 . S
O152 C150 1.256 . S
O153 Cd154 2.300 . S
O153 C160 1.275 . S
Cd154 O153 2.300 . S
Cd154 O162 2.381 . S
Cd154 O163 2.378 . S
O155 Cd156 2.385 1_455 S
O155 C160 1.255 . S
Cd156 O155 2.385 1_655 S
Cd156 O157 2.317 . S
O157 Cd156 2.317 . S
O157 C158 1.232 . S
C158 O157 1.232 . S
C158 O159 1.218 . S
O159 C158 1.218 . S
C160 O153 1.275 . S
C160 O155 1.255 . S
C161 O162 1.258 . S
C161 O163 1.256 . S
O162 Cd154 2.381 . S
O162 C161 1.258 . S
O163 Cd154 2.378 . S
O163 C161 1.256 . S
O164 Cd165 2.300 . S
O164 C171 1.275 1_565 S
Cd165 O164 2.300 . S
Cd165 O173 2.381 . S
Cd165 O174 2.378 . S
O166 Cd167 2.385 . S
O166 C171 1.255 . S
Cd167 O166 2.385 . S
Cd167 O168 2.317 . S
O168 Cd167 2.317 . S
O168 C169 1.232 . S
C169 O168 1.232 . S
C169 O170 1.218 . S
O170 C169 1.218 . S
C171 O164 1.275 1_545 S
C171 O166 1.255 . S
C172 O173 1.258 . S
C172 O174 1.256 . S
O173 Cd165 2.381 . S
O173 C172 1.258 . S
O174 Cd165 2.378 . S
O174 C172 1.256 . S
O175 Cd176 2.300 . S
O175 C182 1.275 . S
Cd176 O175 2.300 . S
Cd176 O184 2.381 . S
Cd176 O185 2.378 . S
O177 Cd178 2.385 . S
O177 C182 1.255 . S
Cd178 O177 2.385 . S
Cd178 O179 2.317 . S
O179 Cd178 2.317 . S
O179 C180 1.232 . S
C180 O179 1.232 . S
C180 O181 1.218 . S
O181 C180 1.218 . S
C182 O175 1.275 . S
C182 O177 1.255 . S
C183 O184 1.258 . S
C183 O185 1.256 . S
O184 Cd176 2.381 . S
O184 C183 1.258 . S
O185 Cd176 2.378 . S
O185 C183 1.256 . S
H186 C194 0.929 . S
H187 C196 0.930 . S
H188 C198 0.930 . S
H189 C201 0.929 . S
H190 C204 0.930 . S
H191 C206 0.960 . S
H192 C206 0.960 . S
H193 C206 0.960 . S
C194 H186 0.929 . S
C194 C195 1.377 . S
C194 C196 1.384 . S
C195 C194 1.377 . S
C195 C201 1.390 . S
C196 H187 0.930 . S
C196 C194 1.384 . S
C196 C197 1.372 . S
C197 C196 1.372 . S
C197 C198 1.400 . S
C197 C202 1.490 . S
C198 H188 0.930 . S
C198 C197 1.400 . S
C198 C201 1.386 . S
H199 C215 0.930 . S
H200 C216 0.931 . S
C201 H189 0.929 . S
C201 C195 1.390 . S
C201 C198 1.386 . S
C202 C197 1.490 . S
C202 C204 1.395 . S
C202 C205 1.403 . S
H203 C209 0.930 . S
C204 H190 0.930 . S
C204 C202 1.395 . S
C204 C207 1.403 . S
C205 C202 1.403 . S
C205 C206 1.524 . S
C205 C209 1.400 . S
C206 H191 0.960 . S
C206 H192 0.960 . S
C206 H193 0.960 . S
C206 C205 1.524 . S
C207 C204 1.403 . S
C207 C208 1.392 . S
C207 C211 1.495 . S
C208 C207 1.392 . S
C208 C209 1.385 . S
C208 C210 1.478 . S
C209 H203 0.930 . S
C209 C205 1.400 . S
C209 C208 1.385 . S
C210 C208 1.478 . S
C210 C212 1.381 . S
C210 C216 1.383 . S
C211 C207 1.495 . S
C211 H217 0.959 . S
C211 H218 0.961 . S
C211 H219 0.960 . S
C212 C210 1.381 . S
C212 C213 1.394 . S
C212 H220 0.930 . S
C213 C212 1.394 . S
C213 C214 1.383 . S
C213 H221 0.929 . S
C214 C213 1.383 . S
C214 C215 1.377 . S
C215 H199 0.930 . S
C215 C214 1.377 . S
C215 C216 1.379 . S
C216 H200 0.931 . S
C216 C210 1.383 . S
C216 C215 1.379 . S
H217 C211 0.959 . S
H218 C211 0.961 . S
H219 C211 0.960 . S
H220 C212 0.930 . S
H221 C213 0.929 . S
H222 C230 0.929 . S
H223 C232 0.930 . S
H224 C234 0.930 . S
H225 C237 0.929 . S
H226 C240 0.930 . S
H227 C242 0.960 . S
H228 C242 0.960 . S
H229 C242 0.960 . S
C230 H222 0.929 . S
C230 C231 1.377 . S
C230 C232 1.384 . S
C231 C230 1.377 . S
C231 C237 1.390 . S
C232 H223 0.930 . S
C232 C230 1.384 . S
C232 C233 1.372 . S
C233 C232 1.372 . S
C233 C234 1.400 . S
C233 C238 1.490 . S
C234 H224 0.930 . S
C234 C233 1.400 . S
C234 C237 1.386 . S
H235 C251 0.930 . S
H236 C252 0.931 . S
C237 H225 0.929 . S
C237 C231 1.390 . S
C237 C234 1.386 . S
C238 C233 1.490 . S
C238 C240 1.395 . S
C238 C241 1.403 . S
H239 C245 0.930 . S
C240 H226 0.930 . S
C240 C238 1.395 . S
C240 C243 1.403 . S
C241 C238 1.403 . S
C241 C242 1.524 . S
C241 C245 1.400 . S
C242 H227 0.960 . S
C242 H228 0.960 . S
C242 H229 0.960 . S
C242 C241 1.524 . S
C243 C240 1.403 . S
C243 C244 1.392 . S
C243 C247 1.495 . S
C244 C243 1.392 . S
C244 C245 1.385 . S
C244 C246 1.478 . S
C245 H239 0.930 . S
C245 C241 1.400 . S
C245 C244 1.385 . S
C246 C244 1.478 . S
C246 C248 1.381 . S
C246 C252 1.383 . S
C247 C243 1.495 . S
C247 H253 0.959 . S
C247 H254 0.961 . S
C247 H255 0.960 . S
C248 C246 1.381 . S
C248 C249 1.394 . S
C248 H256 0.930 . S
C249 C248 1.394 . S
C249 C250 1.383 . S
C249 H257 0.929 . S
C250 C249 1.383 . S
C250 C251 1.377 . S
C251 H235 0.930 . S
C251 C250 1.377 . S
C251 C252 1.379 . S
C252 H236 0.931 . S
C252 C246 1.383 . S
C252 C251 1.379 . S
H253 C247 0.959 . S
H254 C247 0.961 . S
H255 C247 0.960 . S
H256 C248 0.930 . S
H257 C249 0.929 . S
H258 C266 0.929 . S
H259 C268 0.930 . S
H260 C270 0.930 . S
H261 C273 0.929 . S
H262 C276 0.930 . S
H263 C278 0.960 . S
H264 C278 0.960 . S
H265 C278 0.960 . S
C266 H258 0.929 . S
C266 C267 1.377 . S
C266 C268 1.384 . S
C267 C266 1.377 . S
C267 C273 1.390 . S
C268 H259 0.930 . S
C268 C266 1.384 . S
C268 C269 1.372 . S
C269 C268 1.372 . S
C269 C270 1.400 . S
C269 C274 1.490 . S
C270 H260 0.930 . S
C270 C269 1.400 . S
C270 C273 1.386 . S
H271 C287 0.930 . S
H272 C288 0.931 . S
C273 H261 0.929 . S
C273 C267 1.390 . S
C273 C270 1.386 . S
C274 C269 1.490 . S
C274 C276 1.395 . S
C274 C277 1.403 . S
H275 C281 0.930 . S
C276 H262 0.930 . S
C276 C274 1.395 . S
C276 C279 1.403 . S
C277 C274 1.403 . S
C277 C278 1.524 . S
C277 C281 1.400 . S
C278 H263 0.960 . S
C278 H264 0.960 . S
C278 H265 0.960 . S
C278 C277 1.524 . S
C279 C276 1.403 . S
C279 C280 1.392 . S
C279 C283 1.495 . S
C280 C279 1.392 . S
C280 C281 1.385 . S
C280 C282 1.478 . S
C281 H275 0.930 . S
C281 C277 1.400 . S
C281 C280 1.385 . S
C282 C280 1.478 . S
C282 C284 1.381 . S
C282 C288 1.383 . S
C283 C279 1.495 . S
C283 H289 0.959 . S
C283 H290 0.961 . S
C283 H291 0.960 . S
C284 C282 1.381 . S
C284 C285 1.394 . S
C284 H292 0.930 . S
C285 C284 1.394 . S
C285 C286 1.383 . S
C285 H293 0.929 . S
C286 C285 1.383 . S
C286 C287 1.377 . S
C287 H271 0.930 . S
C287 C286 1.377 . S
C287 C288 1.379 . S
C288 H272 0.931 . S
C288 C282 1.383 . S
C288 C287 1.379 . S
H289 C283 0.959 . S
H290 C283 0.961 . S
H291 C283 0.960 . S
H292 C284 0.930 . S
H293 C285 0.929 . S
H294 C302 0.929 . S
H295 C304 0.930 . S
H296 C306 0.930 . S
H297 C309 0.929 . S
H298 C312 0.930 . S
H299 C314 0.960 . S
H300 C314 0.960 . S
H301 C314 0.960 . S
C302 H294 0.929 . S
C302 C303 1.377 . S
C302 C304 1.384 . S
C303 C302 1.377 . S
C303 C309 1.390 . S
C304 H295 0.930 . S
C304 C302 1.384 . S
C304 C305 1.372 . S
C305 C304 1.372 . S
C305 C306 1.400 . S
C305 C310 1.490 . S
C306 H296 0.930 . S
C306 C305 1.400 . S
C306 C309 1.386 . S
H307 C323 0.930 . S
H308 C324 0.931 . S
C309 H297 0.929 . S
C309 C303 1.390 . S
C309 C306 1.386 . S
C310 C305 1.490 . S
C310 C312 1.395 . S
C310 C313 1.403 . S
H311 C317 0.930 . S
C312 H298 0.930 . S
C312 C310 1.395 . S
C312 C315 1.403 . S
C313 C310 1.403 . S
C313 C314 1.524 . S
C313 C317 1.400 . S
C314 H299 0.960 . S
C314 H300 0.960 . S
C314 H301 0.960 . S
C314 C313 1.524 . S
C315 C312 1.403 . S
C315 C316 1.392 . S
C315 C319 1.495 . S
C316 C315 1.392 . S
C316 C317 1.385 . S
C316 C318 1.478 . S
C317 H311 0.930 . S
C317 C313 1.400 . S
C317 C316 1.385 . S
C318 C316 1.478 . S
C318 C320 1.381 . S
C318 C324 1.383 . S
C319 C315 1.495 . S
C319 H325 0.959 . S
C319 H326 0.961 . S
C319 H327 0.960 . S
C320 C318 1.381 . S
C320 C321 1.394 . S
C320 H328 0.930 . S
C321 C320 1.394 . S
C321 C322 1.383 . S
C321 H329 0.929 . S
C322 C321 1.383 . S
C322 C323 1.377 . S
C323 H307 0.930 . S
C323 C322 1.377 . S
C323 C324 1.379 . S
C324 H308 0.931 . S
C324 C318 1.383 . S
C324 C323 1.379 . S
H325 C319 0.959 . S
H326 C319 0.961 . S
H327 C319 0.960 . S
H328 C320 0.930 . S
H329 C321 0.929 . S
H330 C338 0.929 . S
H331 C340 0.930 . S
H332 C342 0.930 . S
H333 C345 0.929 . S
H334 C348 0.930 . S
H335 C350 0.960 . S
H336 C350 0.960 . S
H337 C350 0.960 . S
C338 H330 0.929 . S
C338 C339 1.377 . S
C338 C340 1.384 . S
C339 C338 1.377 . S
C339 C345 1.390 . S
C340 H331 0.930 . S
C340 C338 1.384 . S
C340 C341 1.372 . S
C341 C340 1.372 . S
C341 C342 1.400 . S
C341 C346 1.490 . S
C342 H332 0.930 . S
C342 C341 1.400 . S
C342 C345 1.386 . S
H343 C359 0.930 . S
H344 C360 0.931 . S
C345 H333 0.929 . S
C345 C339 1.390 . S
C345 C342 1.386 . S
C346 C341 1.490 . S
C346 C348 1.395 . S
C346 C349 1.403 . S
H347 C353 0.930 . S
C348 H334 0.930 . S
C348 C346 1.395 . S
C348 C351 1.403 . S
C349 C346 1.403 . S
C349 C350 1.524 . S
C349 C353 1.400 . S
C350 H335 0.960 . S
C350 H336 0.960 . S
C350 H337 0.960 . S
C350 C349 1.524 . S
C351 C348 1.403 . S
C351 C352 1.392 . S
C351 C355 1.495 . S
C352 C351 1.392 . S
C352 C353 1.385 . S
C352 C354 1.478 . S
C353 H347 0.930 . S
C353 C349 1.400 . S
C353 C352 1.385 . S
C354 C352 1.478 . S
C354 C356 1.381 . S
C354 C360 1.383 . S
C355 C351 1.495 . S
C355 H361 0.959 . S
C355 H362 0.961 . S
C355 H363 0.960 . S
C356 C354 1.381 . S
C356 C357 1.394 . S
C356 H364 0.930 . S
C357 C356 1.394 . S
C357 C358 1.383 . S
C357 H365 0.929 . S
C358 C357 1.383 . S
C358 C359 1.377 . S
C359 H343 0.930 . S
C359 C358 1.377 . S
C359 C360 1.379 . S
C360 H344 0.931 . S
C360 C354 1.383 . S
C360 C359 1.379 . S
H361 C355 0.959 . S
H362 C355 0.961 . S
H363 C355 0.960 . S
H364 C356 0.930 . S
H365 C357 0.929 . S
H366 C374 0.929 . S
H367 C376 0.930 . S
H368 C378 0.930 . S
H369 C381 0.929 . S
H370 C384 0.930 . S
H371 C386 0.960 . S
H372 C386 0.960 . S
H373 C386 0.960 . S
C374 H366 0.929 . S
C374 C375 1.377 . S
C374 C376 1.384 . S
C375 C374 1.377 . S
C375 C381 1.390 . S
C376 H367 0.930 . S
C376 C374 1.384 . S
C376 C377 1.372 . S
C377 C376 1.372 . S
C377 C378 1.400 . S
C377 C382 1.490 . S
C378 H368 0.930 . S
C378 C377 1.400 . S
C378 C381 1.386 . S
H379 C395 0.930 . S
H380 C396 0.931 . S
C381 H369 0.929 . S
C381 C375 1.390 . S
C381 C378 1.386 . S
C382 C377 1.490 . S
C382 C384 1.395 . S
C382 C385 1.403 . S
H383 C389 0.930 . S
C384 H370 0.930 . S
C384 C382 1.395 . S
C384 C387 1.403 . S
C385 C382 1.403 . S
C385 C386 1.524 . S
C385 C389 1.400 . S
C386 H371 0.960 . S
C386 H372 0.960 . S
C386 H373 0.960 . S
C386 C385 1.524 . S
C387 C384 1.403 . S
C387 C388 1.392 . S
C387 C391 1.495 . S
C388 C387 1.392 . S
C388 C389 1.385 . S
C388 C390 1.478 . S
C389 H383 0.930 . S
C389 C385 1.400 . S
C389 C388 1.385 . S
C390 C388 1.478 . S
C390 C392 1.381 . S
C390 C396 1.383 . S
C391 C387 1.495 . S
C391 H397 0.959 . S
C391 H398 0.961 . S
C391 H399 0.960 . S
C392 C390 1.381 . S
C392 C393 1.394 . S
C392 H400 0.930 . S
C393 C392 1.394 . S
C393 C394 1.383 . S
C393 H401 0.929 . S
C394 C393 1.383 . S
C394 C395 1.377 . S
C395 H379 0.930 . S
C395 C394 1.377 . S
C395 C396 1.379 . S
C396 H380 0.931 . S
C396 C390 1.383 . S
C396 C395 1.379 . S
H397 C391 0.959 . S
H398 C391 0.961 . S
H399 C391 0.960 . S
H400 C392 0.930 . S
H401 C393 0.929 . S
H402 C410 0.929 . S
H403 C412 0.930 . S
H404 C414 0.930 . S
H405 C417 0.929 . S
H406 C420 0.930 . S
H407 C422 0.960 . S
H408 C422 0.960 . S
H409 C422 0.960 . S
C410 H402 0.929 . S
C410 C411 1.377 . S
C410 C412 1.384 . S
C411 C410 1.377 . S
C411 C417 1.390 . S
C412 H403 0.930 . S
C412 C410 1.384 . S
C412 C413 1.372 . S
C413 C412 1.372 . S
C413 C414 1.400 . S
C413 C418 1.490 . S
C414 H404 0.930 . S
C414 C413 1.400 . S
C414 C417 1.386 . S
H415 C431 0.930 . S
H416 C432 0.931 . S
C417 H405 0.929 . S
C417 C411 1.390 . S
C417 C414 1.386 . S
C418 C413 1.490 . S
C418 C420 1.395 . S
C418 C421 1.403 . S
H419 C425 0.930 . S
C420 H406 0.930 . S
C420 C418 1.395 . S
C420 C423 1.403 . S
C421 C418 1.403 . S
C421 C422 1.524 . S
C421 C425 1.400 . S
C422 H407 0.960 . S
C422 H408 0.960 . S
C422 H409 0.960 . S
C422 C421 1.524 . S
C423 C420 1.403 . S
C423 C424 1.392 . S
C423 C427 1.495 . S
C424 C423 1.392 . S
C424 C425 1.385 . S
C424 C426 1.478 . S
C425 H419 0.930 . S
C425 C421 1.400 . S
C425 C424 1.385 . S
C426 C424 1.478 . S
C426 C428 1.381 . S
C426 C432 1.383 . S
C427 C423 1.495 . S
C427 H433 0.959 . S
C427 H434 0.961 . S
C427 H435 0.960 . S
C428 C426 1.381 . S
C428 C429 1.394 . S
C428 H436 0.930 . S
C429 C428 1.394 . S
C429 C430 1.383 . S
C429 H437 0.929 . S
C430 C429 1.383 . S
C430 C431 1.377 . S
C431 H415 0.930 . S
C431 C430 1.377 . S
C431 C432 1.379 . S
C432 H416 0.931 . S
C432 C426 1.383 . S
C432 C431 1.379 . S
H433 C427 0.959 . S
H434 C427 0.961 . S
H435 C427 0.960 . S
H436 C428 0.930 . S
H437 C429 0.929 . S
H438 C446 0.929 . S
H439 C448 0.930 . S
H440 C450 0.930 . S
H441 C453 0.929 . S
H442 C456 0.930 . S
H443 C458 0.960 . S
H444 C458 0.960 . S
H445 C458 0.960 . S
C446 H438 0.929 . S
C446 C447 1.377 . S
C446 C448 1.384 . S
C447 C446 1.377 . S
C447 C453 1.390 . S
C448 H439 0.930 . S
C448 C446 1.384 . S
C448 C449 1.372 . S
C449 C448 1.372 . S
C449 C450 1.400 . S
C449 C454 1.490 . S
C450 H440 0.930 . S
C450 C449 1.400 . S
C450 C453 1.386 . S
H451 C467 0.930 . S
H452 C468 0.931 . S
C453 H441 0.929 . S
C453 C447 1.390 . S
C453 C450 1.386 . S
C454 C449 1.490 . S
C454 C456 1.395 . S
C454 C457 1.403 . S
H455 C461 0.930 . S
C456 H442 0.930 . S
C456 C454 1.395 . S
C456 C459 1.403 . S
C457 C454 1.403 . S
C457 C458 1.524 . S
C457 C461 1.400 . S
C458 H443 0.960 . S
C458 H444 0.960 . S
C458 H445 0.960 . S
C458 C457 1.524 . S
C459 C456 1.403 . S
C459 C460 1.392 . S
C459 C463 1.495 . S
C460 C459 1.392 . S
C460 C461 1.385 . S
C460 C462 1.478 . S
C461 H455 0.930 . S
C461 C457 1.400 . S
C461 C460 1.385 . S
C462 C460 1.478 . S
C462 C464 1.381 . S
C462 C468 1.383 . S
C463 C459 1.495 . S
C463 H469 0.959 . S
C463 H470 0.961 . S
C463 H471 0.960 . S
C464 C462 1.381 . S
C464 C465 1.394 . S
C464 H472 0.930 . S
C465 C464 1.394 . S
C465 C466 1.383 . S
C465 H473 0.929 . S
C466 C465 1.383 . S
C466 C467 1.377 . S
C467 H451 0.930 . S
C467 C466 1.377 . S
C467 C468 1.379 . S
C468 H452 0.931 . S
C468 C462 1.383 . S
C468 C467 1.379 . S
H469 C463 0.959 . S
H470 C463 0.961 . S
H471 C463 0.960 . S
H472 C464 0.930 . S
H473 C465 0.929 . S
H474 C482 0.929 . S
H475 C484 0.930 . S
H476 C486 0.930 . S
H477 C489 0.929 . S
H478 C492 0.930 . S
H479 C494 0.960 . S
H480 C494 0.960 . S
H481 C494 0.960 . S
C482 H474 0.929 . S
C482 C483 1.377 . S
C482 C484 1.384 . S
C483 C482 1.377 . S
C483 C489 1.390 . S
C484 H475 0.930 . S
C484 C482 1.384 . S
C484 C485 1.372 . S
C485 C484 1.372 . S
C485 C486 1.400 . S
C485 C490 1.490 . S
C486 H476 0.930 . S
C486 C485 1.400 . S
C486 C489 1.386 . S
H487 C503 0.930 . S
H488 C504 0.931 . S
C489 H477 0.929 . S
C489 C483 1.390 . S
C489 C486 1.386 . S
C490 C485 1.490 . S
C490 C492 1.395 . S
C490 C493 1.403 . S
H491 C497 0.930 . S
C492 H478 0.930 . S
C492 C490 1.395 . S
C492 C495 1.403 . S
C493 C490 1.403 . S
C493 C494 1.524 . S
C493 C497 1.400 . S
C494 H479 0.960 . S
C494 H480 0.960 . S
C494 H481 0.960 . S
C494 C493 1.524 . S
C495 C492 1.403 . S
C495 C496 1.392 . S
C495 C499 1.495 . S
C496 C495 1.392 . S
C496 C497 1.385 . S
C496 C498 1.478 . S
C497 H491 0.930 . S
C497 C493 1.400 . S
C497 C496 1.385 . S
C498 C496 1.478 . S
C498 C500 1.381 . S
C498 C504 1.383 . S
C499 C495 1.495 . S
C499 H505 0.959 . S
C499 H506 0.961 . S
C499 H507 0.960 . S
C500 C498 1.381 . S
C500 C501 1.394 . S
C500 H508 0.930 . S
C501 C500 1.394 . S
C501 C502 1.383 . S
C501 H509 0.929 . S
C502 C501 1.383 . S
C502 C503 1.377 . S
C503 H487 0.930 . S
C503 C502 1.377 . S
C503 C504 1.379 . S
C504 H488 0.931 . S
C504 C498 1.383 . S
C504 C503 1.379 . S
H505 C499 0.959 . S
H506 C499 0.961 . S
H507 C499 0.960 . S
H508 C500 0.930 . S
H509 C501 0.929 . S
H510 C518 0.929 . S
H511 C520 0.930 . S
H512 C522 0.930 . S
H513 C525 0.929 . S
H514 C528 0.930 . S
H515 C530 0.960 . S
H516 C530 0.960 . S
H517 C530 0.960 . S
C518 H510 0.929 . S
C518 C519 1.377 . S
C518 C520 1.384 . S
C519 C518 1.377 . S
C519 C525 1.390 . S
C520 H511 0.930 . S
C520 C518 1.384 . S
C520 C521 1.372 . S
C521 C520 1.372 . S
C521 C522 1.400 . S
C521 C526 1.490 . S
C522 H512 0.930 . S
C522 C521 1.400 . S
C522 C525 1.386 . S
H523 C539 0.930 . S
H524 C540 0.931 . S
C525 H513 0.929 . S
C525 C519 1.390 . S
C525 C522 1.386 . S
C526 C521 1.490 . S
C526 C528 1.395 . S
C526 C529 1.403 . S
H527 C533 0.930 . S
C528 H514 0.930 . S
C528 C526 1.395 . S
C528 C531 1.403 . S
C529 C526 1.403 . S
C529 C530 1.524 . S
C529 C533 1.400 . S
C530 H515 0.960 . S
C530 H516 0.960 . S
C530 H517 0.960 . S
C530 C529 1.524 . S
C531 C528 1.403 . S
C531 C532 1.392 . S
C531 C535 1.495 . S
C532 C531 1.392 . S
C532 C533 1.385 . S
C532 C534 1.478 . S
C533 H527 0.930 . S
C533 C529 1.400 . S
C533 C532 1.385 . S
C534 C532 1.478 . S
C534 C536 1.381 . S
C534 C540 1.383 . S
C535 C531 1.495 . S
C535 H541 0.959 . S
C535 H542 0.961 . S
C535 H543 0.960 . S
C536 C534 1.381 . S
C536 C537 1.394 . S
C536 H544 0.930 . S
C537 C536 1.394 . S
C537 C538 1.383 . S
C537 H545 0.929 . S
C538 C537 1.383 . S
C538 C539 1.377 . S
C539 H523 0.930 . S
C539 C538 1.377 . S
C539 C540 1.379 . S
C540 H524 0.931 . S
C540 C534 1.383 . S
C540 C539 1.379 . S
H541 C535 0.959 . S
H542 C535 0.961 . S
H543 C535 0.960 . S
H544 C536 0.930 . S
H545 C537 0.929 . S
H546 C554 0.929 . S
H547 C556 0.930 . S
H548 C558 0.930 . S
H549 C561 0.929 . S
H550 C564 0.930 . S
H551 C566 0.960 . S
H552 C566 0.960 . S
H553 C566 0.960 . S
C554 H546 0.929 . S
C554 C555 1.377 . S
C554 C556 1.384 . S
C555 C554 1.377 . S
C555 C561 1.390 . S
C556 H547 0.930 . S
C556 C554 1.384 . S
C556 C557 1.372 . S
C557 C556 1.372 . S
C557 C558 1.400 . S
C557 C562 1.490 . S
C558 H548 0.930 . S
C558 C557 1.400 . S
C558 C561 1.386 . S
H559 C575 0.930 . S
H560 C576 0.931 . S
C561 H549 0.929 . S
C561 C555 1.390 . S
C561 C558 1.386 . S
C562 C557 1.490 . S
C562 C564 1.395 . S
C562 C565 1.403 . S
H563 C569 0.930 . S
C564 H550 0.930 . S
C564 C562 1.395 . S
C564 C567 1.403 . S
C565 C562 1.403 . S
C565 C566 1.524 . S
C565 C569 1.400 . S
C566 H551 0.960 . S
C566 H552 0.960 . S
C566 H553 0.960 . S
C566 C565 1.524 . S
C567 C564 1.403 . S
C567 C568 1.392 . S
C567 C571 1.495 . S
C568 C567 1.392 . S
C568 C569 1.385 . S
C568 C570 1.478 . S
C569 H563 0.930 . S
C569 C565 1.400 . S
C569 C568 1.385 . S
C570 C568 1.478 . S
C570 C572 1.381 . S
C570 C576 1.383 . S
C571 C567 1.495 . S
C571 H577 0.959 . S
C571 H578 0.961 . S
C571 H579 0.960 . S
C572 C570 1.381 . S
C572 C573 1.394 . S
C572 H580 0.930 . S
C573 C572 1.394 . S
C573 C574 1.383 . S
C573 H581 0.929 . S
C574 C573 1.383 . S
C574 C575 1.377 . S
C575 H559 0.930 . S
C575 C574 1.377 . S
C575 C576 1.379 . S
C576 H560 0.931 . S
C576 C570 1.383 . S
C576 C575 1.379 . S
H577 C571 0.959 . S
H578 C571 0.961 . S
H579 C571 0.960 . S
H580 C572 0.930 . S
H581 C573 0.929 . S
H582 C590 0.929 . S
H583 C592 0.930 . S
H584 C594 0.930 . S
H585 C597 0.929 . S
H586 C600 0.930 . S
H587 C602 0.960 . S
H588 C602 0.960 . S
H589 C602 0.960 . S
C590 H582 0.929 . S
C590 C591 1.377 . S
C590 C592 1.384 . S
C591 C590 1.377 . S
C591 C597 1.390 . S
C592 H583 0.930 . S
C592 C590 1.384 . S
C592 C593 1.372 . S
C593 C592 1.372 . S
C593 C594 1.400 . S
C593 C598 1.490 . S
C594 H584 0.930 . S
C594 C593 1.400 . S
C594 C597 1.386 . S
H595 C611 0.930 . S
H596 C612 0.931 . S
C597 H585 0.929 . S
C597 C591 1.390 . S
C597 C594 1.386 . S
C598 C593 1.490 . S
C598 C600 1.395 . S
C598 C601 1.403 . S
H599 C605 0.930 . S
C600 H586 0.930 . S
C600 C598 1.395 . S
C600 C603 1.403 . S
C601 C598 1.403 . S
C601 C602 1.524 . S
C601 C605 1.400 . S
C602 H587 0.960 . S
C602 H588 0.960 . S
C602 H589 0.960 . S
C602 C601 1.524 . S
C603 C600 1.403 . S
C603 C604 1.392 . S
C603 C607 1.495 . S
C604 C603 1.392 . S
C604 C605 1.385 . S
C604 C606 1.478 . S
C605 H599 0.930 . S
C605 C601 1.400 . S
C605 C604 1.385 . S
C606 C604 1.478 . S
C606 C608 1.381 . S
C606 C612 1.383 . S
C607 C603 1.495 . S
C607 H613 0.959 . S
C607 H614 0.961 . S
C607 H615 0.960 . S
C608 C606 1.381 . S
C608 C609 1.394 . S
C608 H616 0.930 . S
C609 C608 1.394 . S
C609 C610 1.383 . S
C609 H617 0.929 . S
C610 C609 1.383 . S
C610 C611 1.377 . S
C611 H595 0.930 . S
C611 C610 1.377 . S
C611 C612 1.379 . S
C612 H596 0.931 . S
C612 C606 1.383 . S
C612 C611 1.379 . S
H613 C607 0.959 . S
H614 C607 0.961 . S
H615 C607 0.960 . S
H616 C608 0.930 . S
H617 C609 0.929 . S
H618 C626 0.929 . S
H619 C628 0.930 . S
H620 C630 0.930 . S
H621 C633 0.929 . S
H622 C636 0.930 . S
H623 C638 0.960 . S
H624 C638 0.960 . S
H625 C638 0.960 . S
C626 H618 0.929 . S
C626 C627 1.377 . S
C626 C628 1.384 . S
C627 C626 1.377 . S
C627 C633 1.390 1_455 S
C628 H619 0.930 . S
C628 C626 1.384 . S
C628 C629 1.372 . S
C629 C628 1.372 . S
C629 C630 1.400 1_455 S
C629 C634 1.490 . S
C630 H620 0.930 . S
C630 C629 1.400 1_655 S
C630 C633 1.386 . S
H631 C647 0.930 . S
H632 C648 0.931 . S
C633 H621 0.929 . S
C633 C627 1.390 1_655 S
C633 C630 1.386 . S
C634 C629 1.490 . S
C634 C636 1.395 . S
C634 C637 1.403 1_455 S
H635 C641 0.932 1_556 S
C636 H622 0.930 . S
C636 C634 1.395 . S
C636 C639 1.403 . S
C637 C634 1.403 1_655 S
C637 C638 1.524 . S
C637 C641 1.400 . S
C638 H623 0.960 . S
C638 H624 0.960 . S
C638 H625 0.960 . S
C638 C637 1.524 . S
C639 C636 1.403 . S
C639 C640 1.392 1_554 S
C639 C643 1.495 1_554 S
C640 C639 1.392 1_556 S
C640 C641 1.385 1_456 S
C640 C642 1.478 . S
C641 H635 0.932 1_554 S
C641 C637 1.400 . S
C641 C640 1.385 1_654 S
C642 C640 1.478 . S
C642 C644 1.381 . S
C642 C648 1.383 1_455 S
C643 C639 1.495 1_556 S
C643 H649 0.959 1_556 S
C643 H650 0.961 . S
C643 H651 0.960 . S
C644 C642 1.381 . S
C644 C645 1.394 . S
C644 H652 0.930 . S
C645 C644 1.394 . S
C645 C646 1.382 1_455 S
C645 H653 0.929 . S
C646 C645 1.382 1_655 S
C646 C647 1.377 . S
C647 H631 0.930 . S
C647 C646 1.377 . S
C647 C648 1.379 . S
C648 H632 0.931 . S
C648 C642 1.383 1_655 S
C648 C647 1.379 . S
H649 C643 0.959 1_554 S
H650 C643 0.961 . S
H651 C643 0.960 . S
H652 C644 0.930 . S
H653 C645 0.929 . S
H654 C662 0.929 . S
H655 C664 0.930 . S
H656 C666 0.930 1_565 S
H657 C669 0.929 1_565 S
H658 C672 0.930 . S
H659 C674 0.960 . S
H660 C674 0.960 1_545 S
H661 C674 0.960 . S
C662 H654 0.929 . S
C662 C663 1.377 . S
C662 C664 1.384 . S
C663 C662 1.377 . S
C663 C669 1.390 . S
C664 H655 0.930 . S
C664 C662 1.384 . S
C664 C665 1.372 . S
C665 C664 1.372 . S
C665 C666 1.400 . S
C665 C670 1.490 . S
C666 H656 0.930 1_545 S
C666 C665 1.400 . S
C666 C669 1.386 . S
H667 C683 0.957 . S
H668 C684 0.931 . S
C669 H657 0.929 1_545 S
C669 C663 1.390 . S
C669 C666 1.386 . S
C670 C665 1.490 . S
C670 C672 1.395 . S
C670 C673 1.403 . S
H671 C677 0.930 . S
C672 H658 0.930 . S
C672 C670 1.395 . S
C672 C675 1.403 . S
C673 C670 1.403 . S
C673 C674 1.524 1_545 S
C673 C677 1.400 . S
C674 H659 0.960 . S
C674 H660 0.960 1_565 S
C674 H661 0.960 . S
C674 C673 1.524 1_565 S
C675 C672 1.403 . S
C675 C676 1.392 . S
C675 C679 1.495 . S
C676 C675 1.392 . S
C676 C677 1.385 . S
C676 C678 1.478 . S
C677 H671 0.930 . S
C677 C673 1.400 . S
C677 C676 1.385 . S
C678 C676 1.478 . S
C678 C680 1.381 . S
C678 C684 1.383 . S
C679 C675 1.495 . S
C679 H685 0.959 . S
C679 H686 0.961 . S
C679 H687 0.960 . S
C680 C678 1.381 . S
C680 C681 1.394 . S
C680 H688 0.930 . S
C681 C680 1.394 . S
C681 C682 1.383 . S
C681 H689 0.929 . S
C682 C681 1.383 . S
C682 C683 1.377 . S
C683 H667 0.957 . S
C683 C682 1.377 . S
C683 C684 1.379 . S
C684 H668 0.931 . S
C684 C678 1.383 . S
C684 C683 1.379 . S
H685 C679 0.959 . S
H686 C679 0.961 . S
H687 C679 0.960 . S
H688 C680 0.930 . S
H689 C681 0.929 . S
H690 C698 0.929 . S
H691 C700 0.930 . S
H692 C702 0.930 . S
H693 C705 0.929 . S
H694 C708 0.930 . S
H695 C710 0.960 . S
H696 C710 0.960 . S
H697 C710 0.960 . S
C698 H690 0.929 . S
C698 C699 1.377 . S
C698 C700 1.384 . S
C699 C698 1.377 . S
C699 C705 1.390 . S
C700 H691 0.930 . S
C700 C698 1.384 . S
C700 C701 1.372 . S
C701 C700 1.372 . S
C701 C702 1.400 . S
C701 C706 1.490 . S
C702 H692 0.930 . S
C702 C701 1.400 . S
C702 C705 1.386 . S
H703 C719 0.930 . S
H704 C720 0.931 . S
C705 H693 0.929 . S
C705 C699 1.390 . S
C705 C702 1.386 . S
C706 C701 1.490 . S
C706 C708 1.395 . S
C706 C709 1.403 . S
H707 C713 0.930 . S
C708 H694 0.930 . S
C708 C706 1.395 . S
C708 C711 1.403 . S
C709 C706 1.403 . S
C709 C710 1.524 . S
C709 C713 1.400 . S
C710 H695 0.960 . S
C710 H696 0.960 . S
C710 H697 0.960 . S
C710 C709 1.524 . S
C711 C708 1.403 . S
C711 C712 1.392 . S
C711 C715 1.495 . S
C712 C711 1.392 . S
C712 C713 1.385 . S
C712 C714 1.478 . S
C713 H707 0.930 . S
C713 C709 1.400 . S
C713 C712 1.385 . S
C714 C712 1.478 . S
C714 C716 1.381 . S
C714 C720 1.383 . S
C715 C711 1.495 . S
C715 H721 0.959 . S
C715 H722 0.961 . S
C715 H723 0.960 . S
C716 C714 1.381 . S
C716 C717 1.394 . S
C716 H724 0.930 . S
C717 C716 1.394 . S
C717 C718 1.383 . S
C717 H725 0.929 . S
C718 C717 1.383 . S
C718 C719 1.377 . S
C719 H703 0.930 . S
C719 C718 1.377 . S
C719 C720 1.379 . S
C720 H704 0.931 . S
C720 C714 1.383 . S
C720 C719 1.379 . S
H721 C715 0.959 . S
H722 C715 0.961 . S
H723 C715 0.960 . S
H724 C716 0.930 . S
H725 C717 0.929 . S
H726 C734 0.929 1_565 S
H727 C736 0.930 1_565 S
H728 C738 0.930 . S
H729 C741 0.929 . S
H730 C744 0.930 . S
H731 C746 0.960 . S
H732 C746 0.960 . S
H733 C746 0.960 . S
C734 H726 0.929 1_545 S
C734 C735 1.377 . S
C734 C736 1.384 . S
C735 C734 1.377 . S
C735 C741 1.390 . S
C736 H727 0.930 1_545 S
C736 C734 1.384 . S
C736 C737 1.372 . S
C737 C736 1.372 . S
C737 C738 1.400 . S
C737 C742 1.490 . S
C738 H728 0.930 . S
C738 C737 1.400 . S
C738 C741 1.386 . S
H739 C755 0.930 . S
H740 C756 0.931 . S
C741 H729 0.929 . S
C741 C735 1.390 . S
C741 C738 1.386 . S
C742 C737 1.490 . S
C742 C744 1.395 . S
C742 C745 1.400 1_545 S
H743 C749 0.930 1_565 S
C744 H730 0.930 . S
C744 C742 1.395 . S
C744 C747 1.403 . S
C745 C742 1.400 1_565 S
C745 C746 1.528 . S
C745 C749 1.399 1_565 S
C746 H731 0.960 . S
C746 H732 0.960 . S
C746 H733 0.960 . S
C746 C745 1.528 . S
C747 C744 1.403 . S
C747 C748 1.392 . S
C747 C751 1.495 . S
C748 C747 1.392 . S
C748 C749 1.385 . S
C748 C750 1.478 . S
C749 H743 0.930 1_545 S
C749 C745 1.399 1_545 S
C749 C748 1.385 . S
C750 C748 1.478 . S
C750 C752 1.381 . S
C750 C756 1.383 . S
C751 C747 1.495 . S
C751 H757 0.959 . S
C751 H758 0.961 . S
C751 H759 0.960 . S
C752 C750 1.381 . S
C752 C753 1.394 . S
C752 H760 0.930 1_545 S
C753 C752 1.394 . S
C753 C754 1.383 . S
C753 H761 0.929 1_545 S
C754 C753 1.383 . S
C754 C755 1.377 . S
C755 H739 0.930 . S
C755 C754 1.377 . S
C755 C756 1.379 . S
C756 H740 0.931 . S
C756 C750 1.383 . S
C756 C755 1.379 . S
H757 C751 0.959 . S
H758 C751 0.961 . S
H759 C751 0.960 . S
H760 C752 0.930 1_565 S
H761 C753 0.929 1_565 S
H762 C770 0.929 . S
H763 C772 0.930 . S
H764 C774 0.930 . S
H765 C777 0.929 . S
H766 C780 0.930 . S
H767 C782 0.960 . S
H768 C782 0.960 . S
H769 C782 0.960 . S
C770 H762 0.929 . S
C770 C771 1.377 . S
C770 C772 1.384 . S
C771 C770 1.377 . S
C771 C777 1.390 . S
C772 H763 0.930 . S
C772 C770 1.384 . S
C772 C773 1.372 . S
C773 C772 1.372 . S
C773 C774 1.400 . S
C773 C778 1.490 . S
C774 H764 0.930 . S
C774 C773 1.400 . S
C774 C777 1.386 . S
H775 C791 0.930 . S
H776 C792 0.931 . S
C777 H765 0.929 . S
C777 C771 1.390 . S
C777 C774 1.386 . S
C778 C773 1.490 . S
C778 C780 1.395 . S
C778 C781 1.403 . S
H779 C785 0.958 . S
C780 H766 0.930 . S
C780 C778 1.395 . S
C780 C783 1.403 . S
C781 C778 1.403 . S
C781 C782 1.524 . S
C781 C785 1.400 . S
C782 H767 0.960 . S
C782 H768 0.960 . S
C782 H769 0.960 . S
C782 C781 1.524 . S
C783 C780 1.403 . S
C783 C784 1.389 1_556 S
C783 C787 1.495 . S
C784 C783 1.389 1_554 S
C784 C785 1.382 1_554 S
C784 C786 1.484 . S
C785 H779 0.958 . S
C785 C781 1.400 . S
C785 C784 1.382 1_556 S
C786 C784 1.484 . S
C786 C788 1.381 . S
C786 C792 1.383 . S
C787 C783 1.495 . S
C787 H793 0.959 . S
C787 H794 0.961 1_556 S
C787 H795 0.960 1_556 S
C788 C786 1.381 . S
C788 C789 1.394 . S
C788 H796 0.930 . S
C789 C788 1.394 . S
C789 C790 1.383 . S
C789 H797 0.929 . S
C790 C789 1.383 . S
C790 C791 1.377 . S
C791 H775 0.930 . S
C791 C790 1.377 . S
C791 C792 1.379 . S
C792 H776 0.931 . S
C792 C786 1.383 . S
C792 C791 1.379 . S
H793 C787 0.959 . S
H794 C787 0.961 1_554 S
H795 C787 0.960 1_554 S
H796 C788 0.930 . S
H797 C789 0.929 . S
H798 C806 0.929 . S
H799 C808 0.930 . S
H800 C810 0.930 . S
H801 C813 0.929 . S
H802 C816 0.930 . S
H803 C818 0.960 . S
H804 C818 0.960 1_655 S
H805 C818 0.960 . S
C806 H798 0.929 . S
C806 C807 1.377 1_655 S
C806 C808 1.384 . S
C807 C806 1.377 1_455 S
C807 C813 1.390 . S
C808 H799 0.930 . S
C808 C806 1.384 . S
C808 C809 1.372 1_655 S
C809 C808 1.372 1_455 S
C809 C810 1.400 . S
C809 C814 1.490 . S
C810 H800 0.930 . S
C810 C809 1.400 . S
C810 C813 1.386 . S
H811 C827 0.930 . S
H812 C828 0.931 . S
C813 H801 0.929 . S
C813 C807 1.390 . S
C813 C810 1.386 . S
C814 C809 1.490 . S
C814 C816 1.395 . S
C814 C817 1.403 . S
H815 C821 0.930 . S
C816 H802 0.930 . S
C816 C814 1.395 . S
C816 C819 1.403 . S
C817 C814 1.403 . S
C817 C818 1.524 . S
C817 C821 1.400 . S
C818 H803 0.960 . S
C818 H804 0.960 1_455 S
C818 H805 0.960 . S
C818 C817 1.524 . S
C819 C816 1.403 . S
C819 C820 1.392 . S
C819 C823 1.495 . S
C820 C819 1.392 . S
C820 C821 1.385 . S
C820 C822 1.478 . S
C821 H815 0.930 . S
C821 C817 1.400 . S
C821 C820 1.385 . S
C822 C820 1.478 . S
C822 C824 1.381 1_455 S
C822 C828 1.383 . S
C823 C819 1.495 . S
C823 H829 0.959 . S
C823 H830 0.961 . S
C823 H831 0.960 . S
C824 C822 1.381 1_655 S
C824 C825 1.394 . S
C824 H832 0.930 . S
C825 C824 1.394 . S
C825 C826 1.383 1_655 S
C825 H833 0.929 . S
C826 C825 1.383 1_455 S
C826 C827 1.377 . S
C827 H811 0.930 . S
C827 C826 1.377 . S
C827 C828 1.379 . S
C828 H812 0.931 . S
C828 C822 1.383 . S
C828 C827 1.379 . S
H829 C823 0.959 . S
H830 C823 0.961 . S
H831 C823 0.960 . S
H832 C824 0.930 . S
H833 C825 0.929 . S
C195 C19 3.155 . S
C214 C180 2.805 . S
C231 C49 3.248 . S
C250 C158 2.887 . S
C267 C99 2.788 . S
C286 C172 2.724 . S
C303 C9 2.876 . S
C322 C183 2.800 . S
C358 C161 2.731 . S
C339 C59 2.786 . S
C394 C169 2.890 . S
C375 C89 3.245 . S
C411 C55 0.452 . S
C430 C136 0.608 . S
C447 C85 0.355 . S
C466 C147 0.536 . S
C483 C15 0.443 . S
C502 C125 0.682 . S
C538 C139 0.269 . S
C519 C45 0.271 . S
C574 C150 0.167 . S
C555 C95 0.116 . S
C591 C5 0.235 . S
C610 C128 0.430 . S
C646 C149 1.193 . S
C627 C18 1.226 . S
C663 C58 1.253 . S
C682 C127 1.179 . S
C699 C98 1.253 . S
C718 C138 1.198 . S
C754 C171 1.636 . S
C735 C48 1.643 . S
C790 C182 1.634 . S
C771 C88 1.667 . S
C807 C8 1.643 . S
C826 C160 1.675 . S
