# Generated by pormake.
# Topology ocu, (6,8)-cn, num edge types: 1
# Building blocks:
#     Node 0, Type 0, BuildingBlock: KUMJIN_clean_sbu_0, # of connection points: 6
#     Node 1, Type 0, BuildingBlock: KUMJIN_clean_sbu_0, # of connection points: 6
#     Node 2, Type 0, BuildingBlock: KUMJIN_clean_sbu_0, # of connection points: 6
#     Node 3, Type 0, BuildingBlock: KUMJIN_clean_sbu_0, # of connection points: 6
#     Node 4, Type 0, BuildingBlock: KUMJIN_clean_sbu_0, # of connection points: 6
#     Node 5, Type 0, BuildingBlock: KUMJIN_clean_sbu_0, # of connection points: 6
#     Node 6, Type 0, BuildingBlock: KUMJIN_clean_sbu_0, # of connection points: 6
#     Node 7, Type 0, BuildingBlock: KUMJIN_clean_sbu_0, # of connection points: 6
#     Node 8, Type 1, BuildingBlock: TAGTUT_clean_sbu_1, # of connection points: 8
#     Node 9, Type 1, BuildingBlock: TAGTUT_clean_sbu_1, # of connection points: 8
#     Node 10, Type 1, BuildingBlock: TAGTUT_clean_sbu_1, # of connection points: 8
#     Node 11, Type 1, BuildingBlock: TAGTUT_clean_sbu_1, # of connection points: 8
#     Node 12, Type 1, BuildingBlock: TAGTUT_clean_sbu_1, # of connection points: 8
#     Node 13, Type 1, BuildingBlock: TAGTUT_clean_sbu_1, # of connection points: 8
#     Edge 14, Type (0, 1), BuildingBlock: XIVTED_clean_linker_0, # of connection points: 2
#     Edge 15, Type (0, 1), BuildingBlock: XIVTED_clean_linker_0, # of connection points: 2
#     Edge 16, Type (0, 1), BuildingBlock: XIVTED_clean_linker_0, # of connection points: 2
#     Edge 17, Type (0, 1), BuildingBlock: XIVTED_clean_linker_0, # of connection points: 2
#     Edge 18, Type (0, 1), BuildingBlock: XIVTED_clean_linker_0, # of connection points: 2
#     Edge 19, Type (0, 1), BuildingBlock: XIVTED_clean_linker_0, # of connection points: 2
#     Edge 20, Type (0, 1), BuildingBlock: XIVTED_clean_linker_0, # of connection points: 2
#     Edge 21, Type (0, 1), BuildingBlock: XIVTED_clean_linker_0, # of connection points: 2
#     Edge 22, Type (0, 1), BuildingBlock: XIVTED_clean_linker_0, # of connection points: 2
#     Edge 23, Type (0, 1), BuildingBlock: XIVTED_clean_linker_0, # of connection points: 2
#     Edge 24, Type (0, 1), BuildingBlock: XIVTED_clean_linker_0, # of connection points: 2
#     Edge 25, Type (0, 1), BuildingBlock: XIVTED_clean_linker_0, # of connection points: 2
#     Edge 26, Type (0, 1), BuildingBlock: XIVTED_clean_linker_0, # of connection points: 2
#     Edge 27, Type (0, 1), BuildingBlock: XIVTED_clean_linker_0, # of connection points: 2
#     Edge 28, Type (0, 1), BuildingBlock: XIVTED_clean_linker_0, # of connection points: 2
#     Edge 29, Type (0, 1), BuildingBlock: XIVTED_clean_linker_0, # of connection points: 2
#     Edge 30, Type (0, 1), BuildingBlock: XIVTED_clean_linker_0, # of connection points: 2
#     Edge 31, Type (0, 1), BuildingBlock: XIVTED_clean_linker_0, # of connection points: 2
#     Edge 32, Type (0, 1), BuildingBlock: XIVTED_clean_linker_0, # of connection points: 2
#     Edge 33, Type (0, 1), BuildingBlock: XIVTED_clean_linker_0, # of connection points: 2
#     Edge 34, Type (0, 1), BuildingBlock: XIVTED_clean_linker_0, # of connection points: 2
#     Edge 35, Type (0, 1), BuildingBlock: XIVTED_clean_linker_0, # of connection points: 2
#     Edge 36, Type (0, 1), BuildingBlock: XIVTED_clean_linker_0, # of connection points: 2
#     Edge 37, Type (0, 1), BuildingBlock: XIVTED_clean_linker_0, # of connection points: 2
#     Edge 38, Type (0, 1), BuildingBlock: XIVTED_clean_linker_0, # of connection points: 2
#     Edge 39, Type (0, 1), BuildingBlock: XIVTED_clean_linker_0, # of connection points: 2
#     Edge 40, Type (0, 1), BuildingBlock: XIVTED_clean_linker_0, # of connection points: 2
#     Edge 41, Type (0, 1), BuildingBlock: XIVTED_clean_linker_0, # of connection points: 2
#     Edge 42, Type (0, 1), BuildingBlock: XIVTED_clean_linker_0, # of connection points: 2
#     Edge 43, Type (0, 1), BuildingBlock: XIVTED_clean_linker_0, # of connection points: 2
#     Edge 44, Type (0, 1), BuildingBlock: XIVTED_clean_linker_0, # of connection points: 2
#     Edge 45, Type (0, 1), BuildingBlock: XIVTED_clean_linker_0, # of connection points: 2
#     Edge 46, Type (0, 1), BuildingBlock: XIVTED_clean_linker_0, # of connection points: 2
#     Edge 47, Type (0, 1), BuildingBlock: XIVTED_clean_linker_0, # of connection points: 2
#     Edge 48, Type (0, 1), BuildingBlock: XIVTED_clean_linker_0, # of connection points: 2
#     Edge 49, Type (0, 1), BuildingBlock: XIVTED_clean_linker_0, # of connection points: 2
#     Edge 50, Type (0, 1), BuildingBlock: XIVTED_clean_linker_0, # of connection points: 2
#     Edge 51, Type (0, 1), BuildingBlock: XIVTED_clean_linker_0, # of connection points: 2
#     Edge 52, Type (0, 1), BuildingBlock: XIVTED_clean_linker_0, # of connection points: 2
#     Edge 53, Type (0, 1), BuildingBlock: XIVTED_clean_linker_0, # of connection points: 2
#     Edge 54, Type (0, 1), BuildingBlock: XIVTED_clean_linker_0, # of connection points: 2
#     Edge 55, Type (0, 1), BuildingBlock: XIVTED_clean_linker_0, # of connection points: 2
#     Edge 56, Type (0, 1), BuildingBlock: XIVTED_clean_linker_0, # of connection points: 2
#     Edge 57, Type (0, 1), BuildingBlock: XIVTED_clean_linker_0, # of connection points: 2
#     Edge 58, Type (0, 1), BuildingBlock: XIVTED_clean_linker_0, # of connection points: 2
#     Edge 59, Type (0, 1), BuildingBlock: XIVTED_clean_linker_0, # of connection points: 2
#     Edge 60, Type (0, 1), BuildingBlock: XIVTED_clean_linker_0, # of connection points: 2
#     Edge 61, Type (0, 1), BuildingBlock: XIVTED_clean_linker_0, # of connection points: 2
# Relax obj value: 0.099
# Max RMSD: 0.264
# Mean RMSD: 0.150
data_MOF--net-ocu--node1-KUMJIN_clean_sbu_0--node2-TAGTUT_clean_sbu_1--edge1-XIVTED_clean_linker_0
_symmetry_space_group_name_H-M    P1
_symmetry_Int_Tables_number       1
_symmetry_cell_setting            triclinic
loop_
_symmetry_equiv_pos_as_xyz
'x, y, z'
_cell_length_a     39.398933
_cell_length_b     37.631491
_cell_length_c     43.597582
_cell_angle_alpha  78.703322
_cell_angle_beta   101.796
_cell_angle_gamma 113.90401
loop_
_atom_site_label
_atom_site_type_symbol
_atom_site_fract_x
_atom_site_fract_y
_atom_site_fract_z
_atom_type_partial_charge
Eu0 Eu 0.25464 0.21421 0.22192 0.0
C1 C 0.38973 0.32055 0.30848 0.0
C2 C 0.39592 0.27804 0.357 0.0
C3 C 0.45059 0.3337 0.34084 0.0
C4 C 0.37378 0.28802 0.32964 0.0
C5 C 0.42814 0.34429 0.31422 0.0
C6 C 0.43453 0.30059 0.36216 0.0
C7 C 0.41866 0.38894 0.26837 0.0
N8 N 0.36725 0.33012 0.28309 0.0
C9 C 0.38075 0.36443 0.26364 0.0
C10 C 0.44258 0.37857 0.29353 0.0
Eu11 Eu 0.30342 0.28764 0.27709 0.0
N12 N 0.33635 0.26702 0.32412 0.0
C13 C 0.31885 0.23726 0.346 0.0
C14 C 0.37843 0.24623 0.37873 0.0
C15 C 0.33966 0.22605 0.37337 0.0
H16 H 0.36239 0.37253 0.24412 0.0
H17 H 0.32576 0.20182 0.39027 0.0
H18 H 0.45203 0.29319 0.38291 0.0
H19 H 0.42941 0.41574 0.25259 0.0
H20 H 0.2889 0.22142 0.34211 0.0
H21 H 0.22717 0.29822 0.10924 0.0
H22 H 0.39447 0.23754 0.39998 0.0
H23 H 0.19846 0.1276 0.25543 0.0
H24 H 0.26595 0.27995 0.15666 0.0
H25 H 0.13221 0.08227 0.24782 0.0
H26 H 0.48023 0.35138 0.34552 0.0
H27 H 0.1587 0.26054 0.10079 0.0
H28 H 0.10273 0.20317 0.11864 0.0
H29 H 0.47193 0.39763 0.29718 0.0
H30 H 0.07695 0.14426 0.15618 0.0
N31 N 0.21976 0.23335 0.17554 0.0
C32 C 0.2361 0.26334 0.15331 0.0
C33 C 0.17558 0.25249 0.12173 0.0
C34 C 0.15936 0.22031 0.14368 0.0
C35 C 0.21422 0.27377 0.12637 0.0
C36 C 0.18256 0.21119 0.17062 0.0
H37 H 0.08784 0.0986 0.20405 0.0
N38 N 0.19151 0.16952 0.21674 0.0
C39 C 0.14186 0.10925 0.232 0.0
C40 C 0.16799 0.17819 0.1918 0.0
C41 C 0.17938 0.13501 0.23624 0.0
C42 C 0.11689 0.11862 0.2073 0.0
C43 C 0.12991 0.1532 0.18658 0.0
O44 O 0.2631 0.16133 0.21842 0.0
O45 O 0.29869 0.23107 0.26397 0.0
O46 O 0.34661 0.28774 0.24984 0.0
O47 O 0.30621 0.26429 0.20499 0.0
O48 O 0.26475 0.1728 0.26528 0.0
O49 O 0.27469 0.20908 0.18033 0.0
O50 O 0.29821 0.34232 0.28037 0.0
O51 O 0.25919 0.27087 0.23511 0.0
O52 O 0.21119 0.213 0.24908 0.0
O53 O 0.25077 0.23863 0.29375 0.0
O54 O 0.29403 0.32903 0.23359 0.0
O55 O 0.2825 0.29406 0.31775 0.0
C56 C 0.29321 0.19792 0.28026 0.0
C57 C 0.25578 0.14502 0.16707 0.0
C58 C 0.26335 0.11015 0.1285 0.0
C59 C 0.27875 0.13866 0.14964 0.0
C60 C 0.22435 0.08853 0.12504 0.0
C61 C 0.21704 0.12335 0.16286 0.0
C62 C 0.20148 0.09534 0.14192 0.0
C63 C 0.34038 0.28053 0.22026 0.0
C64 C 0.27285 0.17344 0.1902 0.0
C65 C 0.10636 0.16293 0.16044 0.0
C66 C 0.12104 0.19646 0.13907 0.0
C67 C 0.26517 0.30412 0.21878 0.0
C68 C 0.30509 0.35834 0.33175 0.0
C69 C 0.28286 0.36703 0.34836 0.0
C70 C 0.29944 0.39505 0.36992 0.0
C71 C 0.33881 0.41378 0.37464 0.0
C72 C 0.34419 0.37724 0.33719 0.0
C73 C 0.36088 0.4047 0.35855 0.0
C74 C 0.21698 0.2202 0.27859 0.0
C75 C 0.28707 0.33057 0.30812 0.0
H76 H 0.30857 0.15608 0.15263 0.0
H77 H 0.2114 0.06577 0.10971 0.0
H78 H 0.19885 0.12768 0.17598 0.0
H79 H 0.17158 0.07844 0.13905 0.0
H80 H 0.25269 0.35184 0.3444 0.0
H81 H 0.35272 0.43609 0.39032 0.0
H82 H 0.36185 0.37123 0.32467 0.0
H83 H 0.39109 0.41942 0.36236 0.0
Eu84 Eu 0.80953 0.2175 0.24786 0.0
C85 C 0.67937 0.27557 0.22516 0.0
C86 C 0.6867 0.32327 0.17831 0.0
C87 C 0.62431 0.28114 0.1906 0.0
C88 C 0.70256 0.30507 0.20562 0.0
C89 C 0.64002 0.2636 0.21802 0.0
C90 C 0.6476 0.31096 0.17084 0.0
C91 C 0.63449 0.21907 0.26643 0.0
N92 N 0.69527 0.25826 0.25108 0.0
C93 C 0.67353 0.23172 0.27234 0.0
C94 C 0.61759 0.23459 0.23885 0.0
Eu95 Eu 0.76169 0.27976 0.25949 0.0
N96 N 0.74042 0.31577 0.21311 0.0
C97 C 0.76361 0.34504 0.194 0.0
C98 C 0.71051 0.35318 0.15906 0.0
C99 C 0.7491 0.36409 0.16699 0.0
H100 H 0.68615 0.2209 0.2943 0.0
H101 H 0.76783 0.38718 0.15218 0.0
H102 H 0.6351 0.3244 0.14982 0.0
H103 H 0.61751 0.19763 0.28331 0.0
H104 H 0.7935 0.35452 0.19878 0.0
H105 H 0.81837 0.12727 0.36265 0.0
H106 H 0.69941 0.36794 0.13803 0.0
H107 H 0.87854 0.27358 0.20476 0.0
H108 H 0.78745 0.15624 0.31655 0.0
H109 H 0.94694 0.29594 0.2084 0.0
H110 H 0.59418 0.27223 0.1847 0.0
H111 H 0.88656 0.14358 0.36872 0.0
H112 H 0.94766 0.18243 0.3483 0.0
H113 H 0.58731 0.22478 0.2343 0.0
H114 H 0.9828 0.22908 0.30707 0.0
N115 N 0.83686 0.188 0.29456 0.0
C116 C 0.81692 0.16336 0.31782 0.0
C117 C 0.87298 0.1562 0.34789 0.0
C118 C 0.89361 0.18229 0.32465 0.0
C119 C 0.83452 0.1469 0.34451 0.0
C120 C 0.87458 0.19779 0.29786 0.0
H121 H 0.98287 0.27174 0.2551 0.0
N122 N 0.87552 0.23966 0.24979 0.0
C123 C 0.93266 0.27625 0.22751 0.0
C124 C 0.89449 0.22449 0.27487 0.0
C125 C 0.89386 0.26417 0.22578 0.0
C126 C 0.95279 0.26239 0.2538 0.0
C127 C 0.93374 0.23595 0.2778 0.0
O128 O 0.79145 0.16122 0.23052 0.0
O129 O 0.76641 0.22143 0.27187 0.0
O130 O 0.79463 0.25456 0.30008 0.0
O131 O 0.84718 0.2597 0.28272 0.0
O132 O 0.75719 0.16618 0.26489 0.0
O133 O 0.8192 0.21458 0.20093 0.0
O134 O 0.77356 0.33226 0.2807 0.0
O135 O 0.8046 0.27621 0.23456 0.0
O136 O 0.77749 0.24306 0.20677 0.0
O137 O 0.72488 0.23695 0.2249 0.0
O138 O 0.81689 0.33 0.24726 0.0
O139 O 0.74817 0.27505 0.3066 0.0
C140 C 0.74343 0.18645 0.27551 0.0
C141 C 0.82894 0.15847 0.19606 0.0
C142 C 0.87763 0.13186 0.21196 0.0
C143 C 0.85638 0.15064 0.21892 0.0
C144 C 0.87143 0.12086 0.18177 0.0
C145 C 0.82324 0.14811 0.16568 0.0
C146 C 0.84451 0.12941 0.15858 0.0
C147 C 0.83135 0.26692 0.30333 0.0
C148 C 0.80574 0.17647 0.20422 0.0
C149 C 0.95268 0.22059 0.3044 0.0
C150 C 0.93266 0.19383 0.32777 0.0
C151 C 0.82909 0.3106 0.23385 0.0
C152 C 0.73057 0.32456 0.31457 0.0
C153 C 0.70517 0.33517 0.29113 0.0
C154 C 0.67832 0.34592 0.29914 0.0
C155 C 0.67676 0.34613 0.3309 0.0
C156 C 0.72869 0.32425 0.34642 0.0
C157 C 0.70185 0.33504 0.35451 0.0
C158 C 0.74074 0.23117 0.20355 0.0
C159 C 0.75806 0.3126 0.30582 0.0
H160 H 0.86029 0.15781 0.24259 0.0
H161 H 0.88718 0.10564 0.17627 0.0
H162 H 0.80211 0.15404 0.14767 0.0
H163 H 0.83978 0.12107 0.13521 0.0
H164 H 0.7066 0.33568 0.26647 0.0
H165 H 0.65638 0.35486 0.33732 0.0
H166 H 0.74791 0.31569 0.36492 0.0
H167 H 0.7006 0.33493 0.3791 0.0
Eu168 Eu 0.75431 0.73414 0.27266 0.0
C169 C 0.85291 0.89177 0.19637 0.0
C170 C 0.81263 0.90205 0.14844 0.0
C171 C 0.8633 0.9579 0.17016 0.0
C172 C 0.82266 0.8768 0.17374 0.0
C173 C 0.87399 0.93246 0.1946 0.0
C174 C 0.83266 0.94271 0.14711 0.0
C175 C 0.91596 0.91964 0.24011 0.0
N176 N 0.86257 0.86636 0.21953 0.0
C177 C 0.89418 0.87955 0.24086 0.0
C178 C 0.90562 0.94628 0.21707 0.0
Eu179 Eu 0.82348 0.79902 0.22013 0.0
N180 N 0.80411 0.8374 0.17564 0.0
C181 C 0.77704 0.82113 0.15172 0.0
C182 C 0.7834 0.88559 0.12481 0.0
C183 C 0.76589 0.84491 0.12625 0.0
H184 H 0.90234 0.85935 0.25894 0.0
H185 H 0.74374 0.83182 0.1078 0.0
H186 H 0.82517 0.96259 0.12801 0.0
H187 H 0.94062 0.92996 0.25738 0.0
H188 H 0.76321 0.78975 0.15248 0.0
H189 H 0.83708 0.71097 0.38613 0.0
H190 H 0.77476 0.90395 0.10504 0.0
H191 H 0.67797 0.66938 0.2359 0.0
H192 H 0.81483 0.74938 0.34017 0.0
H193 H 0.6431 0.59769 0.23944 0.0
H194 H 0.87896 0.98927 0.16853 0.0
H195 H 0.81036 0.63856 0.39088 0.0
H196 H 0.76303 0.57724 0.36948 0.0
H197 H 0.92254 0.97732 0.21654 0.0
H198 H 0.71002 0.54638 0.32969 0.0
N199 N 0.7767 0.69945 0.31817 0.0
C200 C 0.80286 0.71787 0.34175 0.0
C201 C 0.80051 0.65532 0.37052 0.0
C202 C 0.77204 0.63657 0.34727 0.0
C203 C 0.81559 0.69616 0.36796 0.0
C204 C 0.76037 0.65978 0.32118 0.0
H205 H 0.66473 0.55377 0.28142 0.0
N206 N 0.71913 0.6659 0.2751 0.0
C207 C 0.66775 0.60987 0.25627 0.0
C208 C 0.73064 0.64245 0.2989 0.0
C209 C 0.68749 0.65043 0.25437 0.0
C210 C 0.68011 0.58518 0.27994 0.0
C211 C 0.71163 0.60139 0.3019 0.0
O212 O 0.69864 0.72703 0.28075 0.0
O213 O 0.76658 0.7838 0.23333 0.0
O214 O 0.81827 0.83716 0.25164 0.0
O215 O 0.79798 0.78849 0.2934 0.0
O216 O 0.71231 0.74303 0.2307 0.0
O217 O 0.74814 0.75977 0.3107 0.0
O218 O 0.87645 0.79579 0.21558 0.0
O219 O 0.81056 0.74873 0.25918 0.0
O220 O 0.75905 0.69724 0.23928 0.0
O221 O 0.77823 0.74707 0.19824 0.0
O222 O 0.86455 0.78968 0.26285 0.0
O223 O 0.82947 0.7795 0.17835 0.0
C224 C 0.73424 0.7756 0.21727 0.0
C225 C 0.69244 0.73035 0.33315 0.0
C226 C 0.66657 0.74128 0.37528 0.0
C227 C 0.68411 0.75539 0.34784 0.0
C228 C 0.65785 0.70166 0.38789 0.0
C229 C 0.68366 0.69108 0.34613 0.0
C230 C 0.6664 0.67686 0.3734 0.0
C231 C 0.81125 0.82584 0.28117 0.0
C232 C 0.71176 0.74642 0.30514 0.0
C233 C 0.72407 0.578 0.32711 0.0
C234 C 0.75425 0.59557 0.34975 0.0
C235 C 0.84248 0.75687 0.27585 0.0
C236 C 0.88952 0.79582 0.16463 0.0
C237 C 0.89115 0.76781 0.14844 0.0
C238 C 0.91637 0.77881 0.12636 0.0
C239 C 0.93976 0.81869 0.12076 0.0
C240 C 0.91271 0.83531 0.15844 0.0
C241 C 0.93773 0.84661 0.13655 0.0
C242 C 0.76565 0.70955 0.20964 0.0
C243 C 0.86384 0.78251 0.1883 0.0
H244 H 0.69089 0.78574 0.33762 0.0
H245 H 0.64477 0.68988 0.40917 0.0
H246 H 0.69032 0.67156 0.33531 0.0
H247 H 0.65971 0.64652 0.38342 0.0
H248 H 0.87252 0.73745 0.15303 0.0
H249 H 0.96013 0.82839 0.10452 0.0
H250 H 0.91163 0.85721 0.17066 0.0
H251 H 0.95589 0.8771 0.13199 0.0
Eu252 Eu 0.30902 0.71621 0.2637 0.0
C253 C 0.25715 0.83146 0.15766 0.0
C254 C 0.31378 0.88818 0.14861 0.0
C255 C 0.26193 0.87031 0.10596 0.0
C256 C 0.29297 0.85571 0.16864 0.0
C257 C 0.24095 0.83876 0.12632 0.0
C258 C 0.2983 0.89498 0.11708 0.0
C259 C 0.18381 0.78445 0.13814 0.0
N260 N 0.23767 0.80137 0.17796 0.0
C261 C 0.20108 0.77853 0.16902 0.0
C262 C 0.20394 0.8145 0.11659 0.0
Eu263 Eu 0.26906 0.79174 0.22937 0.0
N264 N 0.30707 0.84822 0.19919 0.0
C265 C 0.34091 0.87357 0.21182 0.0
C266 C 0.34926 0.91318 0.16104 0.0
C267 C 0.36268 0.90608 0.19289 0.0
H268 H 0.18551 0.75509 0.18555 0.0
H269 H 0.38985 0.92556 0.20287 0.0
H270 H 0.31397 0.91959 0.10128 0.0
H271 H 0.15503 0.76583 0.13097 0.0
H272 H 0.35176 0.86846 0.23634 0.0
H273 H 0.18948 0.58349 0.29469 0.0
H274 H 0.3662 0.93836 0.14642 0.0
H275 H 0.39374 0.75491 0.30551 0.0
H276 H 0.22648 0.63931 0.25947 0.0
H277 H 0.42588 0.74618 0.35975 0.0
H278 H 0.25008 0.87626 0.08173 0.0
H279 H 0.21495 0.57283 0.35097 0.0
H280 H 0.2686 0.5932 0.39483 0.0
H281 H 0.19048 0.8191 0.0927 0.0
H282 H 0.33295 0.63724 0.41247 0.0
N283 N 0.2722 0.66087 0.29551 0.0
C284 C 0.23804 0.63507 0.28392 0.0
C285 C 0.23136 0.59745 0.33559 0.0
C286 C 0.26717 0.62289 0.34693 0.0
C287 C 0.21692 0.60333 0.30384 0.0
C288 C 0.28727 0.65458 0.32595 0.0
H289 H 0.39192 0.69411 0.3995 0.0
N290 N 0.34214 0.70859 0.31469 0.0
C291 C 0.39702 0.72718 0.35336 0.0
C292 C 0.32341 0.67918 0.33585 0.0
C293 C 0.37881 0.73196 0.32266 0.0
C294 C 0.37774 0.69779 0.37574 0.0
C295 C 0.34057 0.67308 0.36704 0.0
O296 O 0.35492 0.70424 0.25291 0.0
O297 O 0.31263 0.76871 0.22867 0.0
O298 O 0.25965 0.75348 0.19189 0.0
O299 O 0.26013 0.69662 0.22434 0.0
O300 O 0.36305 0.76565 0.2495 0.0
O301 O 0.29715 0.66667 0.23893 0.0
O302 O 0.22239 0.80352 0.23881 0.0
O303 O 0.26494 0.73892 0.26418 0.0
O304 O 0.3172 0.75323 0.30154 0.0
O305 O 0.31746 0.81054 0.26954 0.0
O306 O 0.2148 0.74212 0.24236 0.0
O307 O 0.27974 0.83914 0.25612 0.0
C308 C 0.34751 0.78587 0.22862 0.0
C309 C 0.34278 0.63933 0.24502 0.0
C310 C 0.36431 0.59747 0.22437 0.0
C311 C 0.35537 0.6308 0.22058 0.0
C312 C 0.36023 0.5726 0.25319 0.0
C313 C 0.33904 0.61448 0.27366 0.0
C314 C 0.34778 0.5812 0.27766 0.0
C315 C 0.25353 0.71567 0.19629 0.0
C316 C 0.33239 0.67354 0.23918 0.0
C317 C 0.32033 0.64227 0.38834 0.0
C318 C 0.28369 0.61722 0.3783 0.0
C319 C 0.22989 0.72176 0.26357 0.0
C320 C 0.23484 0.86737 0.24968 0.0
C321 C 0.22168 0.87447 0.27442 0.0
C322 C 0.2139 0.90827 0.27207 0.0
C323 C 0.21973 0.93513 0.24438 0.0
C324 C 0.24034 0.89416 0.22211 0.0
C325 C 0.23273 0.92794 0.21953 0.0
C326 C 0.32323 0.79095 0.29757 0.0
C327 C 0.24439 0.83276 0.2544 0.0
H328 H 0.35753 0.64987 0.19831 0.0
H329 H 0.36716 0.54686 0.25696 0.0
H330 H 0.32916 0.62065 0.29268 0.0
H331 H 0.34487 0.56198 0.29979 0.0
H332 H 0.21824 0.85391 0.2959 0.0
H333 H 0.21379 0.96134 0.24179 0.0
H334 H 0.25078 0.88912 0.20289 0.0
H335 H 0.23702 0.94869 0.19826 0.0
Eu336 Eu 0.30305 0.73697 0.73744 0.0
C337 C 0.18149 0.7421 0.80326 0.0
C338 C 0.12568 0.69897 0.77415 0.0
C339 C 0.12376 0.70911 0.8269 0.0
C340 C 0.16351 0.72558 0.77586 0.0
C341 C 0.16181 0.73386 0.82918 0.0
C342 C 0.10573 0.69168 0.79943 0.0
C343 C 0.21869 0.77498 0.85801 0.0
N344 N 0.21861 0.76485 0.80513 0.0
C345 C 0.23684 0.78252 0.8317 0.0
C346 C 0.18101 0.7504 0.85682 0.0
Eu347 Eu 0.24595 0.78294 0.75755 0.0
N348 N 0.18406 0.73214 0.75232 0.0
C349 C 0.16963 0.70823 0.72898 0.0
C350 C 0.1097 0.6785 0.74798 0.0
C351 C 0.13213 0.68234 0.72574 0.0
H352 H 0.26542 0.80336 0.83267 0.0
H353 H 0.12097 0.66439 0.70666 0.0
H354 H 0.0767 0.67154 0.79839 0.0
H355 H 0.23367 0.78872 0.87901 0.0
H356 H 0.18708 0.70717 0.71355 0.0
H357 H 0.43613 0.84841 0.78613 0.0
H358 H 0.08088 0.65776 0.74585 0.0
H359 H 0.27919 0.71395 0.66304 0.0
H360 H 0.36874 0.81119 0.78022 0.0
H361 H 0.30836 0.72439 0.61585 0.0
H362 H 0.10828 0.70254 0.84654 0.0
H363 H 0.47285 0.85017 0.74587 0.0
H364 H 0.47268 0.8343 0.69285 0.0
H365 H 0.16694 0.74465 0.87722 0.0
H366 H 0.4372 0.80382 0.6452 0.0
N367 N 0.36713 0.78355 0.74137 0.0
C368 C 0.38444 0.80744 0.7646 0.0
C369 C 0.44332 0.83161 0.74428 0.0
C370 C 0.42471 0.81152 0.7182 0.0
C371 C 0.42279 0.83044 0.76714 0.0
C372 C 0.38605 0.78783 0.71722 0.0
H373 H 0.37591 0.76449 0.61585 0.0
N374 N 0.32852 0.75127 0.68921 0.0
C375 C 0.32491 0.7383 0.63642 0.0
C376 C 0.36599 0.77166 0.69013 0.0
C377 C 0.30831 0.73314 0.66322 0.0
C378 C 0.36301 0.76068 0.63659 0.0
C379 C 0.38418 0.77729 0.66374 0.0
O380 O 0.27049 0.68172 0.71804 0.0
O381 O 0.24975 0.72674 0.75472 0.0
O382 O 0.28824 0.77357 0.79995 0.0
O383 O 0.32677 0.74475 0.78875 0.0
O384 O 0.27831 0.69128 0.77839 0.0
O385 O 0.32932 0.69616 0.738 0.0
O386 O 0.27136 0.8373 0.77876 0.0
O387 O 0.29996 0.79293 0.74186 0.0
O388 O 0.26394 0.75112 0.69466 0.0
O389 O 0.22339 0.77714 0.70583 0.0
O390 O 0.2748 0.83142 0.71936 0.0
O391 O 0.21417 0.81959 0.75397 0.0
C392 C 0.24828 0.69824 0.77627 0.0
C393 C 0.2892 0.62885 0.74026 0.0
C394 C 0.30501 0.58127 0.78041 0.0
C395 C 0.31054 0.6201 0.76817 0.0
C396 C 0.27707 0.55062 0.76498 0.0
C397 C 0.26088 0.59814 0.72506 0.0
C398 C 0.25469 0.55915 0.73756 0.0
C399 C 0.31562 0.75989 0.80814 0.0
C400 C 0.29828 0.66971 0.72585 0.0
C401 C 0.42284 0.79927 0.6652 0.0
C402 C 0.44308 0.81636 0.69239 0.0
C403 C 0.30416 0.82323 0.7219 0.0
C404 C 0.24751 0.88763 0.75975 0.0
C405 C 0.21988 0.89771 0.73883 0.0
C406 C 0.22334 0.93688 0.7312 0.0
C407 C 0.25509 0.96636 0.74469 0.0
C408 C 0.27893 0.91734 0.77347 0.0
C409 C 0.28268 0.9565 0.76584 0.0
C410 C 0.23637 0.76434 0.68619 0.0
C411 C 0.24167 0.84606 0.76959 0.0
H412 H 0.33286 0.64362 0.7798 0.0
H413 H 0.27277 0.5204 0.77402 0.0
H414 H 0.24408 0.60432 0.70329 0.0
H415 H 0.23306 0.53556 0.72563 0.0
H416 H 0.19573 0.87499 0.72799 0.0
H417 H 0.2585 0.99684 0.73889 0.0
H418 H 0.30034 0.91027 0.79032 0.0
H419 H 0.30699 0.97924 0.77641 0.0
Eu420 Eu 0.24842 0.22485 0.76869 0.0
C421 C 0.35026 0.39182 0.71761 0.0
C422 C 0.31083 0.41259 0.6736 0.0
C423 C 0.36023 0.46093 0.70417 0.0
C424 C 0.32008 0.38245 0.69361 0.0
C425 C 0.37134 0.43134 0.72241 0.0
C426 C 0.33007 0.45158 0.67977 0.0
C427 C 0.41606 0.41027 0.75968 0.0
N428 N 0.36103 0.36278 0.73439 0.0
C429 C 0.3944 0.37158 0.75408 0.0
C430 C 0.40407 0.44018 0.74431 0.0
Eu431 Eu 0.32113 0.29813 0.72456 0.0
N432 N 0.30214 0.3445 0.68791 0.0
C433 C 0.27808 0.3356 0.66056 0.0
C434 C 0.2839 0.40297 0.64695 0.0
C435 C 0.26818 0.36447 0.63999 0.0
H436 H 0.40405 0.34882 0.76617 0.0
H437 H 0.24822 0.35691 0.61889 0.0
H438 H 0.32288 0.47494 0.66497 0.0
H439 H 0.44194 0.41695 0.77594 0.0
H440 H 0.26557 0.3062 0.65453 0.0
H441 H 0.31926 0.17033 0.87864 0.0
H442 H 0.27613 0.42526 0.63099 0.0
H443 H 0.17149 0.17184 0.72213 0.0
H444 H 0.30183 0.21945 0.84129 0.0
H445 H 0.13749 0.10326 0.71196 0.0
H446 H 0.37578 0.49135 0.70785 0.0
H447 H 0.2935 0.10157 0.86793 0.0
H448 H 0.24996 0.0506 0.83379 0.0
H449 H 0.42101 0.47016 0.7486 0.0
H450 H 0.20058 0.03232 0.7885 0.0
N451 N 0.26708 0.18003 0.80792 0.0
C452 C 0.29021 0.18998 0.83557 0.0
C453 C 0.28562 0.12318 0.8511 0.0
C454 C 0.26001 0.1125 0.82391 0.0
C455 C 0.30018 0.16194 0.85724 0.0
C456 C 0.2506 0.14179 0.80271 0.0
H457 H 0.15801 0.05152 0.74351 0.0
N458 N 0.21177 0.1595 0.75867 0.0
C459 C 0.16139 0.11075 0.73031 0.0
C460 C 0.22237 0.13131 0.77732 0.0
C461 C 0.18074 0.14964 0.73623 0.0
C462 C 0.17316 0.08167 0.74809 0.0
C463 C 0.20346 0.09159 0.77232 0.0
O464 O 0.20001 0.19729 0.79439 0.0
O465 O 0.26251 0.28137 0.7356 0.0
O466 O 0.32394 0.32286 0.76946 0.0
O467 O 0.2924 0.26577 0.80113 0.0
O468 O 0.20831 0.24016 0.72823 0.0
O469 O 0.23011 0.25975 0.79151 0.0
O470 O 0.36099 0.32478 0.6903 0.0
O471 O 0.30663 0.24201 0.75764 0.0
O472 O 0.25171 0.19986 0.72627 0.0
O473 O 0.27626 0.25698 0.69252 0.0
O474 O 0.36153 0.28177 0.76432 0.0
O475 O 0.34423 0.26327 0.7066 0.0
C476 C 0.23054 0.27503 0.7188 0.0
C477 C 0.20398 0.22819 0.83837 0.0
C478 C 0.19203 0.25306 0.88127 0.0
C479 C 0.19327 0.25478 0.84889 0.0
C480 C 0.2027 0.22522 0.90299 0.0
C481 C 0.2142 0.20048 0.86059 0.0
C482 C 0.21385 0.1993 0.89269 0.0
C483 C 0.31323 0.3036 0.79702 0.0
C484 C 0.20428 0.22953 0.80431 0.0
C485 C 0.21449 0.06287 0.79223 0.0
C486 C 0.24263 0.07329 0.818 0.0
C487 C 0.33854 0.24745 0.77425 0.0
C488 C 0.35515 0.2827 0.65354 0.0
C489 C 0.36601 0.25395 0.64682 0.0
C490 C 0.35818 0.24375 0.61591 0.0
C491 C 0.33915 0.26259 0.59194 0.0
C492 C 0.33703 0.30168 0.62889 0.0
C493 C 0.32887 0.29143 0.59841 0.0
C494 C 0.25949 0.21853 0.69795 0.0
C495 C 0.36174 0.29172 0.68635 0.0
H496 H 0.18493 0.27596 0.83185 0.0
H497 H 0.20231 0.22344 0.92803 0.0
H498 H 0.22218 0.17949 0.8532 0.0
H499 H 0.22187 0.1779 0.90964 0.0
H500 H 0.3802 0.23932 0.66567 0.0
H501 H 0.33308 0.25577 0.56791 0.0
H502 H 0.32893 0.32432 0.63312 0.0
H503 H 0.31466 0.30607 0.57966 0.0
Eu504 Eu 0.80806 0.22227 0.76304 0.0
C505 C 0.75459 0.336 0.65699 0.0
C506 C 0.81047 0.39427 0.64966 0.0
C507 C 0.7603 0.37597 0.60578 0.0
C508 C 0.78962 0.36092 0.66895 0.0
C509 C 0.73923 0.34348 0.6254 0.0
C510 C 0.79587 0.40132 0.61789 0.0
C511 C 0.68264 0.28737 0.63546 0.0
N512 N 0.73501 0.30499 0.67657 0.0
C513 C 0.69906 0.28129 0.66663 0.0
C514 C 0.70293 0.31842 0.61465 0.0
Eu515 Eu 0.76513 0.29494 0.72842 0.0
N516 N 0.80287 0.35318 0.69971 0.0
C517 C 0.83572 0.37911 0.71326 0.0
C518 C 0.84504 0.41989 0.66304 0.0
C519 C 0.85749 0.4125 0.69509 0.0
H520 H 0.68341 0.25705 0.68258 0.0
H521 H 0.88393 0.43245 0.7058 0.0
H522 H 0.81159 0.42662 0.60265 0.0
H523 H 0.65441 0.26809 0.62749 0.0
H524 H 0.84588 0.37382 0.73793 0.0
H525 H 0.69068 0.0859 0.79115 0.0
H526 H 0.86198 0.44576 0.64902 0.0
H527 H 0.8916 0.26239 0.8063 0.0
H528 H 0.72725 0.14345 0.75699 0.0
H529 H 0.92298 0.25327 0.86074 0.0
H530 H 0.7491 0.38208 0.58137 0.0
H531 H 0.71527 0.07464 0.84758 0.0
H532 H 0.76773 0.09542 0.89227 0.0
H533 H 0.69015 0.32313 0.59053 0.0
H534 H 0.83097 0.14074 0.91114 0.0
N535 N 0.77179 0.16534 0.7938 0.0
C536 C 0.73841 0.13894 0.78153 0.0
C537 C 0.73148 0.10001 0.83268 0.0
C538 C 0.76658 0.12612 0.84472 0.0
C539 C 0.71754 0.10622 0.80083 0.0
C540 C 0.78644 0.15879 0.82434 0.0
H541 H 0.88919 0.19943 0.89949 0.0
N542 N 0.8405 0.21457 0.81435 0.0
C543 C 0.89451 0.23368 0.85382 0.0
C544 C 0.82193 0.18418 0.83494 0.0
C545 C 0.87671 0.2387 0.82299 0.0
C546 C 0.87532 0.20329 0.87563 0.0
C547 C 0.8387 0.17781 0.86624 0.0
O548 O 0.85614 0.21601 0.75094 0.0
O549 O 0.81057 0.27459 0.72801 0.0
O550 O 0.75885 0.25838 0.6907 0.0
O551 O 0.76106 0.20164 0.72234 0.0
O552 O 0.86139 0.27418 0.75084 0.0
O553 O 0.80017 0.17225 0.74021 0.0
O554 O 0.71629 0.30449 0.73573 0.0
O555 O 0.76194 0.24211 0.76283 0.0
O556 O 0.81387 0.25785 0.8012 0.0
O557 O 0.81191 0.31473 0.76964 0.0
O558 O 0.71145 0.24312 0.73991 0.0
O559 O 0.77232 0.33949 0.75682 0.0
C560 C 0.84547 0.29343 0.72929 0.0
C561 C 0.85145 0.15311 0.74504 0.0
C562 C 0.87658 0.11549 0.72345 0.0
C563 C 0.85865 0.14189 0.7191 0.0
C564 C 0.88674 0.09977 0.75425 0.0
C565 C 0.86114 0.13699 0.77573 0.0
C566 C 0.87861 0.11019 0.78024 0.0
C567 C 0.75395 0.22094 0.69454 0.0
C568 C 0.83585 0.18344 0.73895 0.0
C569 C 0.81866 0.14599 0.88694 0.0
C570 C 0.78265 0.1202 0.8762 0.0
C571 C 0.72699 0.22347 0.76142 0.0
C572 C 0.72581 0.36526 0.75155 0.0
C573 C 0.71402 0.36937 0.77828 0.0
C574 C 0.7061 0.40215 0.77937 0.0
C575 C 0.71009 0.43108 0.753 0.0
C576 C 0.72955 0.39397 0.72522 0.0
C577 C 0.72151 0.42678 0.72597 0.0
C578 C 0.81849 0.29518 0.79751 0.0
C579 C 0.73656 0.33197 0.75356 0.0
H580 H 0.8516 0.15497 0.69544 0.0
H581 H 0.90088 0.07954 0.75815 0.0
H582 H 0.85572 0.14553 0.796 0.0
H583 H 0.88638 0.09792 0.80392 0.0
H584 H 0.71218 0.34739 0.79881 0.0
H585 H 0.70418 0.45673 0.75323 0.0
H586 H 0.73909 0.39126 0.70449 0.0
H587 H 0.72449 0.4491 0.70571 0.0
Eu588 Eu 0.7541 0.71564 0.72408 0.0
C589 C 0.89679 0.8253 0.80268 0.0
C590 C 0.90919 0.78398 0.85004 0.0
C591 C 0.9605 0.84063 0.82986 0.0
C592 C 0.884 0.79275 0.82466 0.0
C593 C 0.93504 0.8502 0.80548 0.0
C594 C 0.9476 0.80754 0.85208 0.0
C595 C 0.91955 0.89406 0.76173 0.0
N596 N 0.87142 0.83395 0.77966 0.0
C597 C 0.88193 0.86844 0.75993 0.0
C598 C 0.94633 0.88463 0.78432 0.0
Eu599 Eu 0.80828 0.78931 0.77797 0.0
N600 N 0.84666 0.77094 0.82225 0.0
C601 C 0.83234 0.74181 0.84578 0.0
C602 C 0.89486 0.75257 0.87317 0.0
C603 C 0.8562 0.73177 0.87126 0.0
H604 H 0.86141 0.87581 0.7423 0.0
H605 H 0.84474 0.70794 0.88936 0.0
H606 H 0.96741 0.80105 0.87124 0.0
H607 H 0.92787 0.92096 0.74564 0.0
H608 H 0.80255 0.72542 0.84469 0.0
H609 H 0.721 0.80031 0.61334 0.0
H610 H 0.91328 0.7448 0.89297 0.0
H611 H 0.70006 0.62753 0.75613 0.0
H612 H 0.76185 0.78118 0.65825 0.0
H613 H 0.63354 0.58237 0.75087 0.0
H614 H 0.99006 0.85919 0.83222 0.0
H615 H 0.65227 0.76426 0.60834 0.0
H616 H 0.59719 0.70767 0.62843 0.0
H617 H 0.97544 0.90455 0.78571 0.0
H618 H 0.5733 0.6481 0.66586 0.0
N619 N 0.71684 0.73554 0.67957 0.0
C620 C 0.73198 0.7651 0.65658 0.0
C621 C 0.67011 0.75576 0.62826 0.0
C622 C 0.65496 0.72378 0.6507 0.0
C623 C 0.70887 0.77609 0.63095 0.0
C624 C 0.67943 0.71408 0.67627 0.0
H625 H 0.58676 0.60065 0.71114 0.0
N626 N 0.69081 0.67117 0.72027 0.0
C627 C 0.64222 0.61008 0.73578 0.0
C628 C 0.66596 0.68081 0.69733 0.0
C629 C 0.67986 0.63568 0.73867 0.0
C630 C 0.61589 0.62057 0.71341 0.0
C631 C 0.62771 0.65599 0.69344 0.0
O632 O 0.75789 0.66144 0.71714 0.0
O633 O 0.80221 0.73297 0.76334 0.0
O634 O 0.84766 0.79153 0.74595 0.0
O635 O 0.80292 0.76669 0.70362 0.0
O636 O 0.76807 0.6744 0.76559 0.0
O637 O 0.77626 0.71289 0.68295 0.0
O638 O 0.80428 0.84377 0.78383 0.0
O639 O 0.7593 0.77149 0.73922 0.0
O640 O 0.71525 0.70953 0.75859 0.0
O641 O 0.76043 0.73882 0.79941 0.0
O642 O 0.79404 0.82988 0.73604 0.0
O643 O 0.78917 0.794 0.82009 0.0
C644 C 0.79775 0.69965 0.7792 0.0
C645 C 0.75371 0.65153 0.66431 0.0
C646 C 0.76181 0.62111 0.62306 0.0
C647 C 0.77705 0.64403 0.6482 0.0
C648 C 0.72265 0.6057 0.61446 0.0
C649 C 0.71479 0.63602 0.6553 0.0
C650 C 0.6994 0.61316 0.63051 0.0
C651 C 0.83802 0.78569 0.71595 0.0
C652 C 0.77066 0.67589 0.69021 0.0
C653 C 0.60286 0.66656 0.66903 0.0
C654 C 0.61646 0.70045 0.64771 0.0
C655 C 0.76377 0.80468 0.7231 0.0
C656 C 0.81204 0.85681 0.83627 0.0
C657 C 0.78975 0.86582 0.85238 0.0
C658 C 0.8062 0.89073 0.87613 0.0
C659 C 0.84552 0.90663 0.88336 0.0
C660 C 0.85115 0.87281 0.84386 0.0
C661 C 0.86775 0.89765 0.8673 0.0
C662 C 0.72563 0.7173 0.78823 0.0
C663 C 0.79372 0.83064 0.81171 0.0
H664 H 0.80709 0.65579 0.65553 0.0
H665 H 0.70997 0.58841 0.59499 0.0
H666 H 0.69636 0.64155 0.66737 0.0
H667 H 0.66933 0.60133 0.62359 0.0
H668 H 0.75954 0.85372 0.84607 0.0
H669 H 0.85907 0.92552 0.90173 0.0
H670 H 0.8688 0.86623 0.83171 0.0
H671 H 0.89797 0.90989 0.87312 0.0
C672 C 0.95492 0.08054 0.53125 0.0
C673 C 0.97446 0.0815 0.43322 0.0
C674 C 0.96182 0.95213 0.44817 0.0
Mg675 Mg 1.02275 0.09438 0.4978 0.0
O676 O 1.0055 0.03968 0.51004 0.0
Mg677 Mg 0.95186 0.00882 0.49361 0.0
Mg678 Mg 1.0298 0.01007 0.49516 0.0
O679 O 0.05594 0.9806 0.48007 0.0
Mg680 Mg 1.03009 0.92535 0.47033 0.0
Mg681 Mg 0.11284 0.018 0.49304 0.0
C682 C 0.10166 0.08529 0.52239 0.0
C683 C 0.06901 0.06206 0.43583 0.0
O684 O 0.93732 0.04722 0.52068 0.0
O685 O 0.98785 0.1035 0.52508 0.0
O686 O 0.95267 0.04991 0.44731 0.0
O687 O 1.00514 0.10353 0.44769 0.0
O688 O 0.0821 0.10682 0.51549 0.0
O689 O 0.08759 0.04887 0.51852 0.0
C690 C 0.98227 0.95499 0.5512 0.0
O691 O 1.0134 0.96693 0.54018 0.0
O692 O 0.95572 0.96667 0.53807 0.0
O693 O 0.12817 0.98344 0.46216 0.0
O694 O 0.07669 0.93053 0.4475 0.0
O695 O 0.06855 0.96064 0.50688 0.0
C696 C 0.11142 0.95328 0.44695 0.0
O697 O 0.03353 0.90059 0.52085 0.0
O698 O 0.97945 0.93177 0.44396 0.0
C699 C 0.0604 0.93177 0.52881 0.0
O700 O 0.97321 0.97383 0.47025 0.0
O701 O 0.04134 0.05244 0.4506 0.0
O702 O 0.09629 0.05117 0.4468 0.0
C703 C 0.43241 0.0589 0.0124 0.0
C704 C 0.46735 0.083 0.92225 0.0
C705 C 0.47765 0.93076 0.9615 0.0
Mg706 Mg 0.51041 0.08566 0.99085 0.0
O707 O 0.49809 0.03198 0.99612 0.0
Mg708 Mg 0.44916 0.99794 0.97435 0.0
Mg709 Mg 0.53357 0.00717 0.99375 0.0
O710 O 0.56951 0.98244 0.99171 0.0
Mg711 Mg 0.55723 0.92878 0.00047 0.0
Mg712 Mg 0.61773 0.01692 0.01455 0.0
C713 C 0.58917 0.08229 0.029 0.0
C714 C 0.59694 0.06837 0.94889 0.0
O715 O 0.42035 0.0289 0.99722 0.0
O716 O 0.46663 0.08312 0.01446 0.0
O717 O 0.45048 0.04574 0.92922 0.0
O718 O 0.49407 0.10339 0.94154 0.0
O719 O 0.5678 0.1012 0.01626 0.0
O720 O 0.57975 0.04568 0.02745 0.0
C721 C 0.47098 0.94593 0.03919 0.0
O722 O 0.50603 0.96165 0.03609 0.0
O723 O 0.4465 0.95477 0.01868 0.0
O724 O 0.64728 0.98554 0.9939 0.0
O725 O 0.60224 0.92891 0.97963 0.0
O726 O 0.6166 0.97089 0.06024 0.0
C727 C 0.63624 0.95381 0.98118 0.0
O728 O 0.57226 0.91283 0.05041 0.0
O729 O 0.49988 0.91316 0.97521 0.0
C730 C 0.59966 0.93407 0.06867 0.0
O731 O 0.48649 0.96793 0.9604 0.0
O732 O 0.56168 0.05282 0.95137 0.0
O733 O 0.62097 0.05948 0.96991 0.0
C734 C 0.96773 0.59618 0.01931 0.0
C735 C 0.97055 0.58242 0.92794 0.0
C736 C 0.95722 0.42929 0.97825 0.0
Mg737 Mg 1.03028 0.59268 0.98731 0.0
O738 O 1.00973 0.54044 0.00579 0.0
Mg739 Mg 0.95472 0.5117 0.99296 0.0
Mg740 Mg 1.03177 0.50301 -0.00038 0.0
O741 O 0.05387 0.46574 0.99328 0.0
Mg742 Mg 0.0334 0.41259 0.00929 0.0
Mg743 Mg 0.10889 0.49442 0.0059 0.0
C744 C 0.1064 0.57673 0.01973 0.0
C745 C 0.08501 0.54639 0.94239 0.0
O746 O 0.94638 0.56059 0.01445 0.0
O747 O 1.00098 0.61301 0.01182 0.0
O748 O 0.95182 0.55052 0.94408 0.0
O749 O 1.00464 0.60252 0.93824 0.0
O750 O 0.08905 0.59961 0.00599 0.0
O751 O 0.08983 0.53906 0.02326 0.0
C752 C 0.9786 0.46012 0.05716 0.0
O753 O 1.00974 0.46627 0.04776 0.0
O754 O 0.95528 0.47443 0.04066 0.0
O755 O 0.11784 0.44697 0.98323 0.0
O756 O 0.06286 0.39498 0.98252 0.0
O757 O 0.11157 0.45468 0.0543 0.0
C758 C 0.09654 0.41232 0.976 0.0
O759 O 0.05943 0.40113 0.05799 0.0
O760 O 0.97449 0.40604 0.99105 0.0
C761 C 0.09299 0.4217 0.0693 0.0
O762 O 0.97387 0.46691 0.97585 0.0
O763 O 0.0537 0.53991 0.95162 0.0
O764 O 0.10834 0.53213 0.95881 0.0
C765 C 0.46573 0.54078 0.05411 0.0
C766 C 0.4918 0.55358 0.95808 0.0
C767 C 0.48262 0.40936 0.98203 0.0
Mg768 Mg 0.53738 0.56229 0.02319 0.0
O769 O 0.52213 0.50739 0.03143 0.0
Mg770 Mg 0.47018 0.47467 0.01345 0.0
Mg771 Mg 0.54967 0.48226 0.01554 0.0
O772 O 0.57719 0.45683 2e-05 0.0
Mg773 Mg 0.56138 0.40185 0.00965 0.0
Mg774 Mg 0.629 0.48918 0.01929 0.0
C775 C 0.61627 0.55489 0.04862 0.0
C776 C 0.59929 0.54457 0.96316 0.0
O777 O 0.45082 0.50805 0.04236 0.0
O778 O 0.49868 0.56571 0.04975 0.0
O779 O 0.47178 0.51946 0.97001 0.0
O780 O 0.52075 0.57639 0.97377 0.0
O781 O 0.59654 0.57622 0.04218 0.0
O782 O 0.60283 0.51913 0.04333 0.0
C783 C 0.50159 0.42043 0.06859 0.0
O784 O 0.53318 0.4354 0.05814 0.0
O785 O 0.47401 0.43052 0.05587 0.0
O786 O 0.64838 0.45603 0.99114 0.0
O787 O 0.60088 0.39807 0.98403 0.0
O788 O 0.62692 0.44495 0.06373 0.0
C789 C 0.63356 0.42344 0.9793 0.0
O790 O 0.57553 0.39034 0.06005 0.0
O791 O 0.50242 0.38806 0.98878 0.0
C792 C 0.60498 0.41208 0.07608 0.0
O793 O 0.49598 0.44488 0.98816 0.0
O794 O 0.56706 0.52971 0.97273 0.0
O795 O 0.6263 0.53383 0.9767 0.0
C796 C 0.93359 0.56869 0.51136 0.0
C797 C 0.97091 0.59123 0.42328 0.0
C798 C 0.98027 0.44093 0.46273 0.0
Mg799 Mg 1.0126 0.5946 0.49183 0.0
O800 O 1.00061 0.54103 0.49899 0.0
Mg801 Mg 0.9522 0.50697 0.47621 0.0
Mg802 Mg 0.03648 0.5159 0.49753 0.0
O803 O 0.07164 0.49033 0.496 0.0
Mg804 Mg 0.05822 0.43646 0.50223 0.0
Mg805 Mg 0.12041 0.52362 0.51854 0.0
C806 C 0.09196 0.59167 0.53081 0.0
C807 C 0.10075 0.57603 0.45311 0.0
O808 O 0.92261 0.53772 0.49763 0.0
O809 O 0.96762 0.5935 0.5134 0.0
O810 O 0.95384 0.55418 0.43088 0.0
O811 O 0.99793 0.61187 0.44216 0.0
O812 O 0.06969 0.60924 0.51719 0.0
O813 O 0.08326 0.55454 0.53165 0.0
C814 C 0.97233 0.45469 0.54165 0.0
O815 O 1.00763 0.47033 0.53945 0.0
O816 O 0.94847 0.46373 0.52053 0.0
O817 O 0.14882 0.49141 0.49637 0.0
O818 O 0.10177 0.43756 0.47924 0.0
O819 O 0.11795 0.476 0.56392 0.0
C820 C 0.1362 0.46117 0.48138 0.0
O821 O 0.07383 0.41863 0.55174 0.0
O822 O 1.00117 0.42179 0.47635 0.0
C823 C 0.10062 0.43888 0.57107 0.0
O824 O 0.99015 0.47785 0.4633 0.0
O825 O 0.06548 0.5611 0.45549 0.0
O826 O 0.12447 0.56672 0.47419 0.0
C827 C 0.45765 0.08627 0.52514 0.0
C828 C 0.46509 0.08135 0.43117 0.0
C829 C 0.45435 0.92613 0.4798 0.0
Mg830 Mg 0.52321 0.09073 0.49292 0.0
O831 O 0.50374 0.03696 0.50655 0.0
Mg832 Mg 0.44919 0.00718 0.49294 0.0
Mg833 Mg 0.52762 1.00053 0.50169 0.0
O834 O 0.55096 0.96374 0.49702 0.0
Mg835 Mg 0.53027 0.911 0.51404 0.0
Mg836 Mg 0.60565 0.99277 0.51043 0.0
C837 C 0.60045 0.07495 0.5237 0.0
C838 C 0.58273 0.04382 0.44558 0.0
O839 O 0.43741 0.05284 0.51519 0.0
O840 O 0.49212 0.10472 0.52093 0.0
O841 O 0.44724 0.04698 0.44463 0.0
O842 O 0.49727 0.1031 0.44419 0.0
O843 O 0.58223 0.09742 0.51124 0.0
O844 O 0.58475 0.03721 0.52649 0.0
C845 C 0.47264 0.957 0.55767 0.0
O846 O 0.50467 0.96408 0.54953 0.0
O847 O 0.44906 0.97004 0.54008 0.0
O848 O 0.61525 0.94475 0.48856 0.0
O849 O 0.55996 0.89316 0.48812 0.0
O850 O 0.60792 0.95341 0.55921 0.0
C851 C 0.59362 0.91003 0.48157 0.0
O852 O 0.55595 0.89973 0.56298 0.0
O853 O 0.47151 0.90332 0.49424 0.0
C854 C 0.58943 0.92047 0.57433 0.0
O855 O 0.4707 0.96379 0.47675 0.0
O856 O 0.55084 0.03709 0.45387 0.0
O857 O 0.60598 0.0301 0.46298 0.0
H858 H 0.14376 0.17381 0.25936 0.0
H859 H 0.08957 0.14015 0.43167 0.0
H860 H 0.21592 0.23298 0.33791 0.0
H861 H 0.05838 0.04639 0.3757 0.0
H862 H 0.11533 0.18754 0.38673 0.0
H863 H 0.09396 0.14016 0.2927 0.0
C864 C 0.14918 0.17984 0.28349 0.0
C865 C 0.18473 0.20466 0.29636 0.0
C866 C 0.10159 0.1567 0.38397 0.0
C867 C 0.12729 0.16837 0.33369 0.0
C868 C 0.08681 0.12983 0.40941 0.0
C869 C 0.07227 0.08971 0.40704 0.0
C870 C 0.10169 0.143 0.3563 0.0
C871 C 0.06957 0.07731 0.37812 0.0
C872 C 0.12056 0.16109 0.30227 0.0
C873 C 0.1894 0.2131 0.32726 0.0
N874 N 0.08474 0.10395 0.35381 0.0
N875 N 0.16111 0.19465 0.345 0.0
H876 H 0.86875 0.05921 0.24196 0.0
H877 H 1.01474 0.14272 0.39217 0.0
H878 H 0.9428 0.18049 0.24159 0.0
H879 H 0.91408 0.03768 0.39508 0.0
H880 H 1.00027 0.15174 0.33435 0.0
H881 H 0.89927 0.04469 0.29505 0.0
C882 C 0.89245 0.08243 0.25269 0.0
C883 C 0.90337 0.12104 0.23782 0.0
C884 C 0.98163 0.12663 0.34782 0.0
C885 C 0.93746 0.10516 0.29842 0.0
C886 C 0.98967 0.12163 0.38076 0.0
C887 C 0.96551 0.08952 0.39859 0.0
C888 C 0.94935 0.09925 0.33275 0.0
C889 C 0.93351 0.06298 0.38247 0.0
C890 C 0.90951 0.07432 0.28305 0.0
C891 C 0.93374 0.15038 0.25265 0.0
N892 N 0.9264 0.06847 0.35055 0.0
N893 N 0.94953 0.14196 0.28244 0.0
H894 H 0.85023 0.90579 0.27054 0.0
H895 H 0.88823 0.9111 0.45464 0.0
H896 H 0.79489 0.8139 0.34117 0.0
H897 H 0.96237 0.99036 0.38937 0.0
H898 H 0.83804 0.89199 0.41019 0.0
H899 H 0.87605 0.95105 0.31053 0.0
C900 C 0.84314 0.89517 0.29422 0.0
C901 C 0.82175 0.8555 0.30279 0.0
C902 C 0.86491 0.9146 0.40565 0.0
C903 C 0.84996 0.9072 0.34816 0.0
C904 C 0.89331 0.92562 0.43102 0.0
C905 C 0.92915 0.95175 0.42523 0.0
C906 C 0.87311 0.92921 0.37459 0.0
C907 C 0.93488 0.96966 0.3944 0.0
C908 C 0.85752 0.92112 0.31692 0.0
C909 C 0.81213 0.84381 0.3335 0.0
N910 N 0.90733 0.9574 0.36999 0.0
N911 N 0.82674 0.86936 0.35513 0.0
H912 H 0.16057 0.85493 0.30698 0.0
H913 H 0.1751 1.00433 0.42173 0.0
H914 H 0.23516 0.97661 0.29787 0.0
H915 H 0.09317 0.8858 0.42185 0.0
H916 H 0.20203 0.99365 0.38001 0.0
H917 H 0.13936 0.86501 0.35208 0.0
C918 C 0.1726 0.8838 0.31456 0.0
C919 C 0.19978 0.91495 0.29866 0.0
C920 C 0.17833 0.96994 0.38939 0.0
C921 C 0.17539 0.92683 0.3504 0.0
C922 C 0.16314 0.9759 0.41338 0.0
C923 C 0.13165 0.946 0.42521 0.0
C924 C 0.16204 0.93378 0.37731 0.0
C925 C 0.1172 0.90985 0.4133 0.0
C926 C 0.16038 0.88958 0.34029 0.0
C927 C 0.21391 0.95187 0.30926 0.0
N928 N 0.13238 0.90486 0.38998 0.0
N929 N 0.20161 0.9568 0.33454 0.0
H930 H 0.14691 0.90037 0.72578 0.0
H931 H 0.12869 0.98683 0.54467 0.0
H932 H 0.23581 0.99378 0.68069 0.0
H933 H 0.04097 0.88641 0.58506 0.0
H934 H 0.16386 0.99643 0.59674 0.0
H935 H 0.10308 0.90329 0.67764 0.0
C936 C 0.15697 0.9221 0.70595 0.0
C937 C 0.19517 0.94621 0.70679 0.0
C938 C 0.13687 0.97235 0.59442 0.0
C939 C 0.14549 0.9495 0.65194 0.0
C940 C 0.11671 0.96676 0.56458 0.0
C941 C 0.08197 0.9356 0.56053 0.0
C942 C 0.12236 0.94648 0.62062 0.0
C943 C 0.068 0.91043 0.58723 0.0
C944 C 0.132 0.92363 0.67852 0.0
C945 C 0.20667 0.97446 0.68092 0.0
N946 N 0.08842 0.91632 0.6163 0.0
N947 N 0.18202 0.97484 0.65429 0.0
H948 H 0.22958 0.13851 0.69762 0.0
H949 H 0.15376 0.15975 0.51561 0.0
H950 H 0.26049 0.2477 0.6355 0.0
H951 H 0.13176 0.04818 0.57353 0.0
H952 H 0.20342 0.19077 0.55685 0.0
H953 H 0.2025 0.1033 0.6513 0.0
C954 C 0.23078 0.1551 0.67431 0.0
C955 C 0.24632 0.19622 0.67053 0.0
C956 C 0.18849 0.1593 0.56032 0.0
C957 C 0.21614 0.15617 0.61745 0.0
C958 C 0.16034 0.14161 0.53663 0.0
C959 C 0.13868 0.10143 0.54132 0.0
C960 C 0.1942 0.13677 0.58922 0.0
C961 C 0.14815 0.07918 0.56896 0.0
C962 C 0.21569 0.13497 0.64785 0.0
C963 C 0.24827 0.21609 0.63972 0.0
N964 N 0.17461 0.09728 0.59229 0.0
N965 N 0.23293 0.19594 0.61445 0.0
H966 H 0.94572 0.12406 0.71371 0.0
H967 H 0.88312 0.04667 0.54647 0.0
H968 H 0.83053 0.08915 0.6698 0.0
H969 H 0.9925 0.13383 0.573 0.0
H970 H 0.86251 0.0542 0.59344 0.0
H971 H 0.96329 0.11769 0.66483 0.0
C972 C 0.9241 0.11442 0.69391 0.0
C973 C 0.88668 0.10698 0.69565 0.0
C974 C 0.89086 0.07192 0.58864 0.0
C975 C 0.90645 0.09997 0.63986 0.0
C976 C 0.9026 0.06779 0.56182 0.0
C977 C 0.93963 0.08959 0.55576 0.0
C978 C 0.91658 0.09733 0.6098 0.0
C979 C 0.96368 0.11646 0.57658 0.0
C980 C 0.93414 0.11126 0.66598 0.0
C981 C 0.85971 0.09514 0.66923 0.0
N982 N 0.95191 0.11912 0.60289 0.0
N983 N 0.87008 0.09182 0.64237 0.0
H984 H 0.91318 0.83101 0.7297 0.0
H985 H 0.94109 0.87869 0.54781 0.0
H986 H 0.82897 0.78082 0.65289 0.0
H987 H 1.00316 0.96148 0.61425 0.0
H988 H 0.91268 0.83008 0.59094 0.0
H989 H 0.95736 0.86763 0.69169 0.0
C990 C 0.9039 0.8277 0.70495 0.0
C991 C 0.86676 0.80404 0.69437 0.0
C992 C 0.93317 0.85856 0.59626 0.0
C993 C 0.91765 0.84414 0.6512 0.0
C994 C 0.94953 0.88607 0.57176 0.0
C995 C 0.97426 0.92379 0.57778 0.0
C996 C 0.94132 0.86916 0.62685 0.0
C997 C 0.98421 0.93243 0.60897 0.0
C998 C 0.92927 0.84827 0.68338 0.0
C999 C 0.85695 0.79937 0.66217 0.0
N1000 N 0.96722 0.90538 0.63247 0.0
N1001 N 0.88214 0.81943 0.64176 0.0
H1002 H 0.24679 0.08827 0.06852 0.0
H1003 H 0.45172 0.10208 0.06113 0.0
H1004 H 0.33586 0.11378 0.14734 0.0
H1005 H 0.3549 0.031 0.00263 0.0
H1006 H 0.41043 0.11386 0.08907 0.0
H1007 H 0.28655 0.07376 0.04057 0.0
C1008 C 0.27452 0.09064 0.08016 0.0
C1009 C 0.28772 0.10231 0.1106 0.0
C1010 C 0.39816 0.09562 0.07018 0.0
C1011 C 0.33377 0.08658 0.07806 0.0
C1012 C 0.42172 0.08899 0.05403 0.0
C1013 C 0.4068 0.06554 0.02935 0.0
C1014 C 0.35923 0.07925 0.0614 0.0
C1015 C 0.36763 0.04917 0.02153 0.0
C1016 C 0.29725 0.08247 0.06401 0.0
C1017 C 0.32443 0.10569 0.12382 0.0
N1018 N 0.34516 0.05659 0.03734 0.0
N1019 N 0.34612 0.09806 0.10744 0.0
H1020 H 0.89998 0.36779 0.24097 0.0
H1021 H 0.92505 0.38727 0.05885 0.0
H1022 H 0.81755 0.29957 0.17164 0.0
H1023 H 0.9998 0.47239 0.11994 0.0
H1024 H 0.89153 0.34862 0.1032 0.0
H1025 H 0.94171 0.40145 0.20015 0.0
C1026 C 0.89087 0.35953 0.21731 0.0
C1027 C 0.85565 0.32986 0.21007 0.0
C1028 C 0.91565 0.37535 0.10724 0.0
C1029 C 0.90298 0.36856 0.16308 0.0
C1030 C 0.93513 0.39717 0.08196 0.0
C1031 C 0.9658 0.43265 0.08583 0.0
C1032 C 0.9264 0.38919 0.13686 0.0
C1033 C 0.97688 0.44473 0.1161 0.0
C1034 C 0.91466 0.37876 0.19402 0.0
C1035 C 0.84484 0.32114 0.17876 0.0
N1036 N 0.95708 0.4232 0.1404 0.0
N1037 N 0.86836 0.34014 0.15665 0.0
H1038 H 0.67417 0.75353 0.17262 0.0
H1039 H 0.66699 0.96535 0.10763 0.0
H1040 H 0.75628 0.85702 0.21093 0.0
H1041 H 0.57509 0.85567 0.09163 0.0
H1042 H 0.70187 0.92896 0.1439 0.0
H1043 H 0.64095 0.79293 0.13969 0.0
C1044 C 0.68554 0.7848 0.17376 0.0
C1045 C 0.71843 0.80195 0.19427 0.0
C1046 C 0.67387 0.91297 0.13276 0.0
C1047 C 0.6797 0.84774 0.15673 0.0
C1048 C 0.65366 0.93376 0.1122 0.0
C1049 C 0.61772 0.91379 0.09626 0.0
C1050 C 0.65832 0.87177 0.13734 0.0
C1051 C 0.60251 0.87268 0.10311 0.0
C1052 C 0.66633 0.80732 0.15507 0.0
C1053 C 0.73145 0.84264 0.19502 0.0
N1054 N 0.62291 0.85326 0.12268 0.0
N1055 N 0.71212 0.86417 0.17648 0.0
H1056 H 0.23186 0.63684 0.1962 0.0
H1057 H 0.14503 0.54102 0.06625 0.0
H1058 H 0.24419 0.74424 0.13359 0.0
H1059 H 0.15167 0.65449 0.01709 0.0
H1060 H 0.19136 0.57288 0.10853 0.0
H1061 H 0.20902 0.60089 0.15117 0.0
C1062 C 0.22998 0.65296 0.17286 0.0
C1063 C 0.23947 0.69362 0.16878 0.0
C1064 C 0.18288 0.59108 0.08866 0.0
C1065 C 0.21377 0.65241 0.1163 0.0
C1066 C 0.15681 0.57273 0.06403 0.0
C1067 C 0.14319 0.59502 0.03872 0.0
C1068 C 0.19489 0.63191 0.08802 0.0
C1069 C 0.16031 0.63601 0.03674 0.0
C1070 C 0.21719 0.63229 0.14684 0.0
C1071 C 0.2366 0.71282 0.13795 0.0
N1072 N 0.1845 0.65307 0.06147 0.0
N1073 N 0.22372 0.69198 0.11296 0.0
H1074 H 0.3913 0.77711 0.82612 0.0
H1075 H 0.41618 0.86949 0.97998 0.0
H1076 H 0.29182 0.75987 0.86333 0.0
H1077 H 0.46878 0.93655 0.89844 0.0
H1078 H 0.3754 0.8169 0.94756 0.0
H1079 H 0.42889 0.8201 0.86634 0.0
C1080 C 0.37726 0.78194 0.84282 0.0
C1081 C 0.33806 0.76814 0.83942 0.0
C1082 C 0.39546 0.84351 0.93681 0.0
C1083 C 0.38071 0.81498 0.88624 0.0
C1084 C 0.418 0.87365 0.95497 0.0
C1085 C 0.44489 0.90756 0.94141 0.0
C1086 C 0.40137 0.84701 0.90556 0.0
C1087 C 0.44756 0.91121 0.90935 0.0
C1088 C 0.39874 0.80642 0.86571 0.0
C1089 C 0.32172 0.77259 0.86349 0.0
N1090 N 0.42653 0.88088 0.89257 0.0
N1091 N 0.34305 0.79641 0.88564 0.0
H1092 H 0.21339 0.3334 0.86906 0.0
H1093 H 0.06436 0.3349 0.96823 0.0
H1094 H 0.13863 0.23061 0.91967 0.0
H1095 H 0.16129 0.43925 0.94798 0.0
H1096 H 0.08719 0.29806 0.94354 0.0
H1097 H 0.19083 0.37425 0.89098 0.0
C1098 C 0.19208 0.31948 0.88458 0.0
C1099 C 0.17794 0.2786 0.8927 0.0
C1100 C 0.10358 0.32901 0.94445 0.0
C1101 C 0.15202 0.32484 0.91757 0.0
C1102 C 0.09048 0.35026 0.95851 0.0
C1103 C 0.11093 0.39043 0.96037 0.0
C1104 C 0.13739 0.34781 0.93172 0.0
C1105 C 0.14467 0.40835 0.94726 0.0
C1106 C 0.17944 0.34275 0.8972 0.0
C1107 C 0.15056 0.26201 0.91303 0.0
N1108 N 0.15683 0.38692 0.93339 0.0
N1109 N 0.13847 0.28511 0.92462 0.0
H1110 H 0.65414 0.17184 0.75918 0.0
H1111 H 0.66509 0.12735 0.94787 0.0
H1112 H 0.75355 0.22028 0.82494 0.0
H1113 H 0.56427 0.07105 0.88596 0.0
H1114 H 0.69587 0.16419 0.9022 0.0
H1115 H 0.61954 0.13591 0.80399 0.0
C1116 C 0.66881 0.1745 0.78304 0.0
C1117 C 0.70708 0.19846 0.78825 0.0
C1118 C 0.66692 0.1441 0.89836 0.0
C1119 C 0.66746 0.1583 0.83964 0.0
C1120 C 0.64916 0.12313 0.92455 0.0
C1121 C 0.61196 0.09589 0.92085 0.0
C1122 C 0.64766 0.13797 0.86781 0.0
C1123 C 0.59284 0.09192 0.88996 0.0
C1124 C 0.64901 0.15416 0.80857 0.0
C1125 C 0.72448 0.20149 0.81961 0.0
N1126 N 0.61102 0.11246 0.86458 0.0
N1127 N 0.70461 0.18172 0.84397 0.0
H1128 H 0.78307 0.63548 0.8225 0.0
H1129 H 0.99404 0.6568 0.89327 0.0
H1130 H 0.87644 0.7317 0.7858 0.0
H1131 H 0.89707 0.54901 0.90141 0.0
H1132 H 0.95418 0.68767 0.85667 0.0
H1133 H 0.82637 0.6075 0.85551 0.0
C1134 C 0.81286 0.65105 0.82167 0.0
C1135 C 0.82596 0.68644 0.80166 0.0
C1136 C 0.94183 0.65713 0.86619 0.0
C1137 C 0.87646 0.65385 0.83953 0.0
C1138 C 0.96466 0.63928 0.88696 0.0
C1139 C 0.94922 0.59992 0.90072 0.0
C1140 C 0.90305 0.63575 0.85929 0.0
C1141 C 0.91065 0.57926 0.8917 0.0
C1142 C 0.83768 0.63486 0.84046 0.0
C1143 C 0.86503 0.70485 0.80136 0.0
N1144 N 0.88913 0.5974 0.87205 0.0
N1145 N 0.88889 0.68848 0.82009 0.0
H1146 H 0.28064 0.37043 0.17749 0.0
H1147 H 0.06998 0.34632 0.10223 0.0
H1148 H 0.18654 0.27084 0.20955 0.0
H1149 H 0.16575 0.45563 0.09738 0.0
H1150 H 0.10987 0.31557 0.13885 0.0
H1151 H 0.23748 0.39844 0.14416 0.0
C1152 C 0.25076 0.35415 0.17725 0.0
C1153 C 0.23742 0.31784 0.19609 0.0
C1154 C 0.12195 0.3464 0.13003 0.0
C1155 C 0.18709 0.35037 0.15782 0.0
C1156 C 0.09908 0.36417 0.10925 0.0
C1157 C 0.11418 0.40394 0.09643 0.0
C1158 C 0.16046 0.36829 0.13789 0.0
C1159 C 0.15243 0.42504 0.10636 0.0
C1160 C 0.22602 0.37034 0.15827 0.0
C1161 C 0.19821 0.29849 0.19497 0.0
N1162 N 0.17403 0.40699 0.126 0.0
N1163 N 0.17447 0.31486 0.1761 0.0
H1164 H 0.25851 0.70547 0.83888 0.0
H1165 H 0.0662 0.534 0.87986 0.0
H1166 H 0.17754 0.64146 0.76716 0.0
H1167 H 0.13722 0.61985 0.94163 0.0
H1168 H 0.10365 0.57307 0.83721 0.0
H1169 H 0.2138 0.67343 0.87658 0.0
C1170 C 0.23084 0.68565 0.83079 0.0
C1171 C 0.22073 0.67884 0.79915 0.0
C1172 C 0.11047 0.58385 0.85986 0.0
C1173 C 0.16952 0.63932 0.84286 0.0
C1174 C 0.08873 0.56183 0.88404 0.0
C1175 C 0.09811 0.57419 0.9141 0.0
C1176 C 0.1423 0.61793 0.86609 0.0
C1177 C 0.12857 0.60969 0.91862 0.0
C1178 C 0.20527 0.66685 0.85244 0.0
C1179 C 0.1855 0.64971 0.79079 0.0
N1180 N 0.14971 0.62997 0.89512 0.0
N1181 N 0.16106 0.63117 0.81239 0.0
H1182 H 0.31902 0.16778 0.77178 0.0
H1183 H 0.49461 0.16173 0.90111 0.0
H1184 H 0.39325 0.26302 0.82391 0.0
H1185 H 0.4009 0.05473 0.88107 0.0
H1186 H 0.46172 0.19896 0.8646 0.0
H1187 H 0.35068 0.12546 0.80485 0.0
C1188 C 0.34142 0.17955 0.79052 0.0
C1189 C 0.35279 0.21876 0.79567 0.0
C1190 C 0.44837 0.1673 0.86789 0.0
C1191 C 0.39037 0.17124 0.83242 0.0
C1192 C 0.4674 0.14581 0.88864 0.0
C1193 C 0.45073 0.1047 0.8946 0.0
C1194 C 0.41219 0.14797 0.85239 0.0
C1195 C 0.41514 0.08626 0.87736 0.0
C1196 C 0.35975 0.15554 0.80915 0.0
C1197 C 0.38305 0.23286 0.81943 0.0
N1198 N 0.39702 0.10795 0.85724 0.0
N1199 N 0.40067 0.20935 0.83669 0.0
H1200 H 0.83708 0.37327 0.8002 0.0
H1201 H 0.90673 0.3537 0.98472 0.0
H1202 H 0.82702 0.26404 0.85948 0.0
H1203 H 0.92617 0.46442 0.92548 0.0
H1204 H 0.86273 0.32038 0.94159 0.0
H1205 H 0.85764 0.40652 0.8474 0.0
C1206 C 0.8391 0.35621 0.8231 0.0
C1207 C 0.83093 0.31586 0.82579 0.0
C1208 C 0.87596 0.35205 0.9382 0.0
C1209 C 0.85409 0.35379 0.87995 0.0
C1210 C 0.90082 0.37114 0.96296 0.0
C1211 C 0.92097 0.41177 0.95837 0.0
C1212 C 0.87152 0.37375 0.90863 0.0
C1213 C 0.91173 0.43296 0.9299 0.0
C1214 C 0.85064 0.37523 0.85006 0.0
C1215 C 0.83368 0.29529 0.85615 0.0
N1216 N 0.8884 0.41358 0.90575 0.0
N1217 N 0.84529 0.31454 0.88198 0.0
H1218 H 0.73995 0.84078 0.89705 0.0
H1219 H 0.70819 1.00253 0.97038 0.0
H1220 H 0.81791 0.96116 0.89468 0.0
H1221 H 0.6259 0.88564 0.96056 0.0
H1222 H 0.75097 0.98746 0.94612 0.0
H1223 H 0.69989 0.85627 0.92364 0.0
C1224 C 0.74859 0.87057 0.90197 0.0
C1225 C 0.78227 0.89976 0.89333 0.0
C1226 C 0.72355 0.96516 0.94937 0.0
C1227 C 0.73656 0.91768 0.9243 0.0
C1228 C 0.69914 0.9737 0.96328 0.0
C1229 C 0.66328 0.94538 0.96746 0.0
C1230 C 0.71208 0.92797 0.93978 0.0
C1231 C 0.65312 0.90854 0.95771 0.0
C1232 C 0.72576 0.87936 0.91734 0.0
C1233 C 0.79235 0.93764 0.90108 0.0
N1234 N 0.67733 0.90097 0.94438 0.0
N1235 N 0.76955 0.94554 0.91604 0.0
H1236 H 0.90801 0.70197 0.14866 0.0
H1237 H 0.98255 0.67355 0.00314 0.0
H1238 H 0.92986 0.78697 0.06535 0.0
H1239 H 0.92227 0.57421 0.06607 0.0
H1240 H 0.96575 0.71582 0.02768 0.0
H1241 H 0.91467 0.65494 0.121 0.0
C1242 C 0.91379 0.71077 0.1245 0.0
C1243 C 0.91868 0.74893 0.10954 0.0
C1244 C 0.95584 0.68476 0.03605 0.0
C1245 C 0.92705 0.69515 0.07799 0.0
C1246 C 0.96553 0.66058 0.02209 0.0
C1247 C 0.95391 0.6203 0.03267 0.0
C1248 C 0.93489 0.66891 0.06133 0.0
C1249 C 0.93166 0.60509 0.05716 0.0
C1250 C 0.91771 0.68382 0.10878 0.0
C1251 C 0.92673 0.75844 0.0783 0.0
N1252 N 0.92327 0.62954 0.07102 0.0
N1253 N 0.93096 0.73196 0.06377 0.0
H1254 H 0.3174 0.78905 0.16609 0.0
H1255 H 0.50796 0.93967 0.10036 0.0
H1256 H 0.42078 0.83617 0.22801 0.0
H1257 H 0.40129 0.89014 0.04279 0.0
H1258 H 0.47895 0.90061 0.14746 0.0
H1259 H 0.34916 0.82585 0.12092 0.0
C1260 C 0.34669 0.80767 0.17029 0.0
C1261 C 0.3661 0.81037 0.20104 0.0
C1262 C 0.46208 0.89816 0.12442 0.0
C1263 C 0.4036 0.85187 0.14886 0.0
C1264 C 0.47873 0.92014 0.09753 0.0
C1265 C 0.45702 0.91839 0.06755 0.0
C1266 C 0.42358 0.87421 0.12118 0.0
C1267 C 0.41913 0.89283 0.06538 0.0
C1268 C 0.36509 0.82847 0.14433 0.0
C1269 C 0.40461 0.83385 0.20469 0.0
N1270 N 0.40374 0.87209 0.09167 0.0
N1271 N 0.42211 0.85384 0.17896 0.0
H1272 H 0.67371 0.16932 0.20172 0.0
H1273 H 0.63882 0.15767 0.02139 0.0
H1274 H 0.75945 0.24605 0.14484 0.0
H1275 H 0.61089 0.05199 0.08758 0.0
H1276 H 0.6795 0.19471 0.06443 0.0
H1277 H 0.64271 0.12994 0.15772 0.0
C1278 C 0.6855 0.17815 0.17977 0.0
C1279 C 0.71882 0.2108 0.17652 0.0
C1280 C 0.6651 0.16326 0.06927 0.0
C1281 C 0.68427 0.16639 0.12695 0.0
C1282 C 0.64226 0.1422 0.04482 0.0
C1283 C 0.62173 0.10194 0.05118 0.0
C1284 C 0.66614 0.14393 0.10018 0.0
C1285 C 0.62659 0.08303 0.08184 0.0
C1286 C 0.66831 0.15549 0.15504 0.0
C1287 C 0.73365 0.22095 0.14799 0.0
N1288 N 0.64764 0.10444 0.10554 0.0
N1289 N 0.71605 0.19894 0.12405 0.0
H1290 H 0.73509 0.73463 0.84791 0.0
H1291 H 0.5618 0.54547 0.90256 0.0
H1292 H 0.65399 0.65925 0.78193 0.0
H1293 H 0.65581 0.6149 0.964 0.0
H1294 H 0.58565 0.59398 0.85706 0.0
H1295 H 0.69632 0.69935 0.88884 0.0
C1296 C 0.70907 0.71058 0.84185 0.0
C1297 C 0.6987 0.69892 0.8115 0.0
C1298 C 0.60052 0.59891 0.88061 0.0
C1299 C 0.6539 0.65766 0.85902 0.0
C1300 C 0.58682 0.57148 0.90647 0.0
C1301 C 0.60722 0.57633 0.93678 0.0
C1302 C 0.63444 0.63127 0.88551 0.0
C1303 C 0.63955 0.61011 0.94086 0.0
C1304 C 0.6868 0.69036 0.86542 0.0
C1305 C 0.66389 0.66825 0.80521 0.0
N1306 N 0.65227 0.63608 0.91553 0.0
N1307 N 0.643 0.64806 0.82897 0.0
H1308 H 0.32268 0.60979 0.8365 0.0
H1309 H 0.48349 0.62298 0.93737 0.0
H1310 H 0.34857 0.53927 0.78495 0.0
H1311 H 0.46731 0.51408 0.90727 0.0
H1312 H 0.43986 0.63369 0.89122 0.0
H1313 H 0.37646 0.61123 0.87623 0.0
C1314 C 0.33965 0.59428 0.83386 0.0
C1315 C 0.33147 0.57442 0.8076 0.0
C1316 C 0.44591 0.60746 0.89469 0.0
C1317 C 0.39402 0.57765 0.85181 0.0
C1318 C 0.47148 0.60191 0.92051 0.0
C1319 C 0.47787 0.56713 0.92626 0.0
C1320 C 0.42676 0.57773 0.87506 0.0
C1321 C 0.46195 0.54069 0.90388 0.0
C1322 C 0.37083 0.59592 0.85605 0.0
C1323 C 0.35395 0.55459 0.80511 0.0
N1324 N 0.43649 0.54617 0.8794 0.0
N1325 N 0.3844 0.55673 0.82703 0.0
H1326 H 0.29337 0.27409 0.85606 0.0
H1327 H 0.43457 0.33338 0.97866 0.0
H1328 H 0.36554 0.37851 0.80477 0.0
H1329 H 0.44956 0.45176 0.93765 0.0
H1330 H 0.38415 0.30917 0.93579 0.0
H1331 H 0.32505 0.30068 0.90528 0.0
C1332 C 0.3161 0.30256 0.855 0.0
C1333 C 0.32831 0.32312 0.8261 0.0
C1334 C 0.39758 0.34046 0.93665 0.0
C1335 C 0.36454 0.35374 0.88277 0.0
C1336 C 0.42646 0.35426 0.96109 0.0
C1337 C 0.44632 0.39463 0.96157 0.0
C1338 C 0.38902 0.36726 0.91216 0.0
C1339 C 0.43485 0.42044 0.93811 0.0
C1340 C 0.33412 0.31766 0.88326 0.0
C1341 C 0.35646 0.3608 0.82645 0.0
N1342 N 0.40759 0.40636 0.9138 0.0
N1343 N 0.37407 0.37474 0.85444 0.0
H1344 H 0.65467 0.34596 0.81425 0.0
H1345 H 0.69331 0.47742 0.95076 0.0
H1346 H 0.73274 0.4662 0.81149 0.0
H1347 H 0.61354 0.35786 0.95066 0.0
H1348 H 0.71236 0.47251 0.90234 0.0
H1349 H 0.64159 0.34937 0.86561 0.0
C1350 C 0.66895 0.37318 0.82447 0.0
C1351 C 0.69492 0.40582 0.80867 0.0
C1352 C 0.691 0.44724 0.91314 0.0
C1353 C 0.68023 0.40994 0.86767 0.0
C1354 C 0.68034 0.44984 0.94101 0.0
C1355 C 0.65145 0.4181 0.95472 0.0
C1356 C 0.67268 0.41266 0.89891 0.0
C1357 C 0.63567 0.38322 0.94085 0.0
C1358 C 0.66155 0.3751 0.85385 0.0
C1359 C 0.7123 0.44049 0.8228 0.0
N1360 N 0.64622 0.38159 0.91358 0.0
N1361 N 0.70474 0.44161 0.85161 0.0
H1362 H 0.68762 0.42056 0.27505 0.0
H1363 H 0.66746 0.44843 0.11587 0.0
H1364 H 0.61653 0.30066 0.26359 0.0
H1365 H 0.55841 0.35424 0.11531 0.0
H1366 H 0.67716 0.4371 0.17298 0.0
H1367 H 0.66373 0.44077 0.221 0.0
C1368 C 0.66593 0.39873 0.26139 0.0
C1369 C 0.65412 0.35899 0.27327 0.0
C1370 C 0.65067 0.41949 0.16053 0.0
C1371 C 0.6287 0.38119 0.21125 0.0
C1372 C 0.64539 0.42542 0.12777 0.0
C1373 C 0.612 0.4023 0.11068 0.0
C1374 C 0.62236 0.39026 0.1766 0.0
C1375 C 0.58464 0.37266 0.12754 0.0
C1376 C 0.65295 0.41006 0.23039 0.0
C1377 C 0.62633 0.33158 0.25482 0.0
N1378 N 0.59053 0.3673 0.15969 0.0
N1379 N 0.61489 0.34312 0.22436 0.0
H1380 H 0.78217 0.72564 0.14951 0.0
H1381 H 0.64286 0.51778 0.102 0.0
H1382 H 0.72813 0.62882 0.21755 0.0
H1383 H 0.67089 0.6271 0.04026 0.0
H1384 H 0.69201 0.55091 0.14322 0.0
H1385 H 0.76052 0.68206 0.10983 0.0
C1386 C 0.76603 0.69512 0.15643 0.0
C1387 C 0.75598 0.68129 0.18694 0.0
C1388 C 0.68817 0.56724 0.12029 0.0
C1389 C 0.73021 0.63103 0.14068 0.0
C1390 C 0.66049 0.54837 0.0967 0.0
C1391 C 0.65277 0.57014 0.06804 0.0
C1392 C 0.70829 0.60777 0.11465 0.0
C1393 C 0.6759 0.60959 0.06226 0.0
C1394 C 0.75366 0.67015 0.13351 0.0
C1395 C 0.73546 0.64105 0.19411 0.0
N1396 N 0.70236 0.6273 0.08556 0.0
N1397 N 0.72241 0.61734 0.17086 0.0
H1398 H 0.41462 0.6494 0.186 0.0
H1399 H 0.40504 0.48973 0.08336 0.0
H1400 H 0.34514 0.52665 0.20305 0.0
H1401 H 0.4819 0.61064 0.07478 0.0
H1402 H 0.37838 0.50317 0.12387 0.0
H1403 H 0.43574 0.63602 0.14232 0.0
C1404 C 0.40363 0.61961 0.18045 0.0
C1405 C 0.37797 0.58913 0.19822 0.0
C1406 C 0.40092 0.52676 0.11293 0.0
C1407 C 0.40235 0.57345 0.14814 0.0
C1408 C 0.41598 0.51919 0.08964 0.0
C1409 C 0.44593 0.54904 0.0757 0.0
C1410 C 0.41578 0.56448 0.12221 0.0
C1411 C 0.45907 0.58659 0.08497 0.0
C1412 C 0.41584 0.61194 0.15554 0.0
C1413 C 0.36523 0.55098 0.1902 0.0
N1414 N 0.44404 0.59315 0.10765 0.0
N1415 N 0.3775 0.54423 0.16571 0.0
H1416 H 0.33941 0.25914 0.16385 0.0
H1417 H 0.52583 0.4306 0.13039 0.0
H1418 H 0.41483 0.32582 0.23743 0.0
H1419 H 0.46133 0.34329 0.06813 0.0
H1420 H 0.49464 0.38579 0.17418 0.0
H1421 H 0.39018 0.28191 0.13278 0.0
C1422 C 0.36669 0.27865 0.17358 0.0
C1423 C 0.37239 0.29186 0.20283 0.0
C1424 C 0.48829 0.37581 0.15125 0.0
C1425 C 0.43109 0.31861 0.16692 0.0
C1426 C 0.50629 0.40126 0.12639 0.0
C1427 C 0.49559 0.39038 0.09589 0.0
C1428 C 0.4591 0.33992 0.14499 0.0
C1429 C 0.46997 0.35252 0.09148 0.0
C1430 C 0.39593 0.29146 0.15583 0.0
C1431 C 0.40878 0.31619 0.21446 0.0
N1432 N 0.45197 0.32885 0.11566 0.0
N1433 N 0.43664 0.32964 0.1961 0.0
H1434 H 0.8298 0.67223 0.60566 0.0
H1435 H 0.86141 0.51932 0.5209 0.0
H1436 H 0.75066 0.55314 0.60057 0.0
H1437 H 0.94411 0.63465 0.53577 0.0
H1438 H 0.81877 0.53183 0.54729 0.0
H1439 H 0.87059 0.65948 0.57777 0.0
C1440 C 0.82105 0.64329 0.59888 0.0
C1441 C 0.78673 0.61368 0.60569 0.0
C1442 C 0.84624 0.55438 0.54468 0.0
C1443 C 0.83328 0.59899 0.57316 0.0
C1444 C 0.87058 0.54731 0.52953 0.0
C1445 C 0.90653 0.57591 0.52612 0.0
C1446 C 0.85784 0.59039 0.55636 0.0
C1447 C 0.91681 0.61159 0.53791 0.0
C1448 C 0.84431 0.63609 0.58273 0.0
C1449 C 0.77665 0.577 0.59559 0.0
N1450 N 0.89266 0.61775 0.55246 0.0
N1451 N 0.79982 0.57068 0.5799 0.0
H1452 H 0.37655 0.87631 0.73391 0.0
H1453 H 0.42261 0.88241 0.56149 0.0
H1454 H 0.29569 0.82008 0.65893 0.0
H1455 H 0.4888 0.97519 0.61842 0.0
H1456 H 0.38362 0.84874 0.60356 0.0
H1457 H 0.42396 0.90573 0.69736 0.0
C1458 C 0.36911 0.8689 0.71001 0.0
C1459 C 0.33303 0.84227 0.70012 0.0
C1460 C 0.40719 0.87602 0.60725 0.0
C1461 C 0.38645 0.8769 0.65792 0.0
C1462 C 0.42991 0.89486 0.58348 0.0
C1463 C 0.45955 0.93119 0.58675 0.0
C1464 C 0.41383 0.89366 0.63461 0.0
C1465 C 0.46684 0.94673 0.6153 0.0
C1466 C 0.396 0.88608 0.68909 0.0
C1467 C 0.32391 0.83695 0.66819 0.0
N1468 N 0.44398 0.92804 0.63808 0.0
N1469 N 0.35042 0.85328 0.64841 0.0
H1470 H 0.24806 0.35413 0.7227 0.0
H1471 H 0.07316 0.36004 0.59206 0.0
H1472 H 0.175 0.25926 0.66972 0.0
H1473 H 0.16639 0.46701 0.61303 0.0
H1474 H 0.10561 0.32276 0.62912 0.0
H1475 H 0.21562 0.39603 0.69012 0.0
C1476 C 0.22564 0.3423 0.70399 0.0
C1477 C 0.21494 0.30336 0.69836 0.0
C1478 C 0.11893 0.35443 0.62593 0.0
C1479 C 0.17661 0.35047 0.66204 0.0
C1480 C 0.10015 0.37595 0.60485 0.0
C1481 C 0.11683 0.41708 0.59898 0.0
C1482 C 0.15487 0.37374 0.64186 0.0
C1483 C 0.15214 0.43547 0.61664 0.0
C1484 C 0.20691 0.3661 0.68559 0.0
C1485 C 0.18471 0.28922 0.67457 0.0
N1486 N 0.17002 0.41376 0.63707 0.0
N1487 N 0.16678 0.31254 0.65749 0.0
H1488 H 0.74459 0.25129 0.63245 0.0
H1489 H 0.63639 0.04195 0.5745 0.0
H1490 H 0.7329 0.14234 0.69269 0.0
H1491 H 0.64875 0.15117 0.5147 0.0
H1492 H 0.68433 0.07826 0.61445 0.0
H1493 H 0.72004 0.21551 0.58671 0.0
C1494 C 0.73684 0.21983 0.6361 0.0
C1495 C 0.74004 0.19969 0.66656 0.0
C1496 C 0.6772 0.09423 0.59228 0.0
C1497 C 0.71227 0.15851 0.61412 0.0
C1498 C 0.6501 0.07344 0.56927 0.0
C1499 C 0.63777 0.09373 0.54166 0.0
C1500 C 0.69182 0.13542 0.58751 0.0
C1501 C 0.65674 0.13448 0.53607 0.0
C1502 C 0.72313 0.19943 0.6099 0.0
C1503 C 0.73039 0.15903 0.6697 0.0
N1504 N 0.6822 0.15409 0.55913 0.0
N1505 N 0.71652 0.13972 0.64384 0.0
H1506 H 0.898 0.32937 0.30108 0.0
H1507 H 0.92586 0.36962 0.47529 0.0
H1508 H 0.81237 0.26173 0.36055 0.0
H1509 H 0.96334 0.46452 0.40098 0.0
H1510 H 0.88582 0.32699 0.43543 0.0
H1511 H 0.92794 0.3763 0.33997 0.0
C1512 C 0.88601 0.32414 0.32258 0.0
C1513 C 0.85305 0.29178 0.32797 0.0
C1514 C 0.90207 0.35743 0.42792 0.0
C1515 C 0.88632 0.34492 0.37177 0.0
C1516 C 0.92449 0.38173 0.45059 0.0
C1517 C 0.94751 0.42041 0.44117 0.0
C1518 C 0.90391 0.37179 0.39584 0.0
C1519 C 0.94552 0.43486 0.40899 0.0
C1520 C 0.90258 0.3511 0.34437 0.0
C1521 C 0.83795 0.28641 0.35577 0.0
N1522 N 0.92477 0.41016 0.38726 0.0
N1523 N 0.85488 0.31263 0.37684 0.0
H1524 H 0.60196 0.72394 0.39918 0.0
H1525 H 0.66228 0.93198 0.46038 0.0
H1526 H 0.7083 0.81819 0.3858 0.0
H1527 H 0.55495 0.83611 0.46583 0.0
H1528 H 0.68135 0.89218 0.43391 0.0
H1529 H 0.58589 0.76583 0.42472 0.0
C1530 C 0.62209 0.75344 0.40179 0.0
C1531 C 0.65664 0.76737 0.39046 0.0
C1532 C 0.65365 0.88008 0.44095 0.0
C1533 C 0.6382 0.81614 0.41965 0.0
C1534 C 0.64276 0.90275 0.45608 0.0
C1535 C 0.60693 0.88756 0.46547 0.0
C1536 C 0.62852 0.84199 0.4353 0.0
C1537 C 0.58286 0.84941 0.45918 0.0
C1538 C 0.61281 0.77755 0.41626 0.0
C1539 C 0.68123 0.80628 0.394 0.0
N1540 N 0.59409 0.82818 0.44464 0.0
N1541 N 0.67161 0.82928 0.40838 0.0
H1542 H 0.15652 0.67238 0.26237 0.0
H1543 H 0.16973 0.6335 0.45123 0.0
H1544 H 0.25777 0.71869 0.32684 0.0
H1545 H 0.06753 0.57799 0.39044 0.0
H1546 H 0.20048 0.66794 0.40503 0.0
H1547 H 0.1223 0.63893 0.30774 0.0
C1548 C 0.17166 0.67503 0.28607 0.0
C1549 C 0.21029 0.69769 0.29076 0.0
C1550 C 0.17125 0.64855 0.40158 0.0
C1551 C 0.17115 0.66046 0.34279 0.0
C1552 C 0.1535 0.62901 0.42805 0.0
C1553 C 0.11592 0.60266 0.4248 0.0
C1554 C 0.15153 0.64186 0.37123 0.0
C1555 C 0.09642 0.59823 0.39408 0.0
C1556 C 0.15208 0.65612 0.31193 0.0
C1557 C 0.22835 0.70081 0.32194 0.0
N1558 N 0.11455 0.61735 0.36844 0.0
N1559 N 0.20868 0.6825 0.34663 0.0
H1560 H 0.37156 0.23345 0.28926 0.0
H1561 H 0.39469 0.0447 0.39985 0.0
H1562 H 0.27969 0.1307 0.32075 0.0
H1563 H 0.48547 0.15798 0.40052 0.0
H1564 H 0.35515 0.07465 0.36334 0.0
H1565 H 0.41583 0.20643 0.32382 0.0
C1566 C 0.36064 0.20559 0.30378 0.0
C1567 C 0.32164 0.18486 0.30264 0.0
C1568 C 0.38382 0.09304 0.37119 0.0
C1569 C 0.37229 0.15271 0.34102 0.0
C1570 C 0.40674 0.07581 0.39196 0.0
C1571 C 0.44386 0.09859 0.40368 0.0
C1572 C 0.39772 0.13362 0.36141 0.0
C1573 C 0.45725 0.13896 0.39223 0.0
C1574 C 0.38598 0.18997 0.32328 0.0
C1575 C 0.30937 0.14809 0.32111 0.0
N1576 N 0.43426 0.15515 0.37191 0.0
N1577 N 0.33438 0.13329 0.33925 0.0
H1578 H 0.7778 0.86982 0.68074 0.0
H1579 H 0.56669 0.84526 0.60782 0.0
H1580 H 0.68494 0.77203 0.71661 0.0
H1581 H 0.66219 0.95474 0.60233 0.0
H1582 H 0.60682 0.81495 0.64472 0.0
H1583 H 0.73406 0.89733 0.64793 0.0
C1584 C 0.74804 0.85383 0.6815 0.0
C1585 C 0.73524 0.81811 0.70119 0.0
C1586 C 0.61877 0.84573 0.63573 0.0
C1587 C 0.68418 0.85012 0.6634 0.0
C1588 C 0.59577 0.86325 0.61476 0.0
C1589 C 0.61072 0.90295 0.60166 0.0
C1590 C 0.65727 0.86777 0.64347 0.0
C1591 C 0.64896 0.92421 0.61151 0.0
C1592 C 0.72296 0.86975 0.66278 0.0
C1593 C 0.69617 0.79917 0.70131 0.0
N1594 N 0.67068 0.90639 0.6313 0.0
N1595 N 0.67204 0.81524 0.6826 0.0
H1596 H 0.75207 0.20332 0.33578 0.0
H1597 H 0.56193 0.03026 0.38322 0.0
H1598 H 0.6734 0.12792 0.26901 0.0
H1599 H 0.63749 0.116 0.4435 0.0
H1600 H 0.59838 0.06745 0.33953 0.0
H1601 H 0.70805 0.17327 0.37406 0.0
C1602 C 0.72519 0.18098 0.32885 0.0
C1603 C 0.71598 0.16918 0.29859 0.0
C1604 C 0.60647 0.07864 0.3621 0.0
C1605 C 0.66536 0.13306 0.34327 0.0
C1606 C 0.58531 0.05769 0.38689 0.0
C1607 C 0.59617 0.07057 0.41683 0.0
C1608 C 0.63907 0.11238 0.36746 0.0
C1609 C 0.62767 0.10546 0.42063 0.0
C1610 C 0.69998 0.16348 0.35094 0.0
C1611 C 0.68131 0.13845 0.29184 0.0
N1612 N 0.64803 0.12485 0.39647 0.0
N1613 N 0.65727 0.1215 0.31391 0.0
H1614 H 0.9033 0.77707 0.32021 0.0
H1615 H 0.90341 0.56214 0.38386 0.0
H1616 H 0.81934 0.67544 0.28062 0.0
H1617 H 0.99772 0.66976 0.4009 0.0
H1618 H 0.87039 0.60044 0.34751 0.0
H1619 H 0.93504 0.73597 0.35273 0.0
C1620 C 0.89124 0.74588 0.31865 0.0
C1621 C 0.85817 0.72973 0.298 0.0
C1622 C 0.89852 0.61554 0.3589 0.0
C1623 C 0.89513 0.68194 0.33514 0.0
C1624 C 0.91764 0.59365 0.37951 0.0
C1625 C 0.95372 0.61248 0.39574 0.0
C1626 C 0.9153 0.65672 0.35458 0.0
C1627 C 0.97013 0.65358 0.38919 0.0
C1628 C 0.90958 0.72237 0.33713 0.0
C1629 C 0.84427 0.68908 0.29671 0.0
N1630 N 0.95078 0.67408 0.36957 0.0
N1631 N 0.8627 0.66656 0.31509 0.0
H1632 H 0.34284 0.86929 0.29985 0.0
H1633 H 0.40509 0.84987 0.4854 0.0
H1634 H 0.33011 0.75984 0.35967 0.0
H1635 H 0.42407 0.96048 0.42605 0.0
H1636 H 0.36342 0.81616 0.44155 0.0
H1637 H 0.3614 0.90248 0.3469 0.0
C1638 C 0.3439 0.85218 0.32283 0.0
C1639 C 0.33541 0.81175 0.32574 0.0
C1640 C 0.37604 0.84786 0.43827 0.0
C1641 C 0.35632 0.84962 0.37975 0.0
C1642 C 0.39957 0.86717 0.46343 0.0
C1643 C 0.41901 0.90794 0.45907 0.0
C1644 C 0.37222 0.8695 0.40855 0.0
C1645 C 0.41023 0.92892 0.43031 0.0
C1646 C 0.35428 0.87116 0.34972 0.0
C1647 C 0.33699 0.79114 0.3562 0.0
N1648 N 0.38824 0.90937 0.40581 0.0
N1649 N 0.3475 0.81036 0.38197 0.0
H1650 H 0.31557 0.41602 0.43017 0.0
H1651 H 0.11595 0.42024 0.43126 0.0
H1652 H 0.22963 0.39828 0.34882 0.0
H1653 H 0.2134 0.48413 0.49315 0.0
H1654 H 0.15599 0.40534 0.40423 0.0
H1655 H 0.27761 0.4349 0.45672 0.0
C1656 C 0.28891 0.41627 0.41769 0.0
C1657 C 0.27603 0.40547 0.38696 0.0
C1658 C 0.16871 0.42272 0.42364 0.0
C1659 C 0.232 0.42627 0.41786 0.0
C1660 C 0.14584 0.43113 0.43926 0.0
C1661 C 0.16129 0.45339 0.46467 0.0
C1662 C 0.20743 0.43604 0.43371 0.0
C1663 C 0.20031 0.46695 0.47366 0.0
C1664 C 0.26721 0.42696 0.43303 0.0
C1665 C 0.24068 0.40556 0.37261 0.0
N1666 N 0.22206 0.45775 0.45837 0.0
N1667 N 0.21993 0.41558 0.3882 0.0
H1668 H 0.427 0.23839 0.63363 0.0
H1669 H 0.38299 0.06927 0.52697 0.0
H1670 H 0.31896 0.18398 0.57949 0.0
H1671 H 0.49456 0.14558 0.56189 0.0
H1672 H 0.35719 0.1033 0.55283 0.0
H1673 H 0.45006 0.19616 0.61492 0.0
C1674 C 0.40795 0.21713 0.61821 0.0
C1675 C 0.37109 0.21497 0.60792 0.0
C1676 C 0.38731 0.1124 0.55491 0.0
C1677 C 0.3974 0.16672 0.58611 0.0
C1678 C 0.40206 0.09292 0.54023 0.0
C1679 C 0.44104 0.10473 0.54198 0.0
C1680 C 0.4117 0.14359 0.5718 0.0
C1681 C 0.46435 0.13564 0.55954 0.0
C1682 C 0.42121 0.19325 0.6073 0.0
C1683 C 0.34776 0.18704 0.58765 0.0
N1684 N 0.44935 0.15393 0.57369 0.0
N1685 N 0.36132 0.16415 0.57732 0.0
H1686 H 0.91814 0.34566 0.73126 0.0
H1687 H 0.90297 0.39771 0.54275 0.0
H1688 H 0.81818 0.29733 0.66601 0.0
H1689 H 1.00609 0.44887 0.60409 0.0
H1690 H 0.87306 0.35937 0.58842 0.0
H1691 H 0.95177 0.38331 0.68625 0.0
C1692 C 0.90316 0.34334 0.70749 0.0
C1693 C 0.865 0.31899 0.70247 0.0
C1694 C 0.9023 0.37866 0.59212 0.0
C1695 C 0.90345 0.36117 0.65086 0.0
C1696 C 0.91956 0.40057 0.56592 0.0
C1697 C 0.95717 0.42679 0.56948 0.0
C1698 C 0.92253 0.38279 0.62256 0.0
C1699 C 0.97713 0.42889 0.60018 0.0
C1700 C 0.9224 0.36467 0.68184 0.0
C1701 C 0.84717 0.31643 0.6712 0.0
N1702 N 0.95946 0.40744 0.6256 0.0
N1703 N 0.86647 0.33722 0.64673 0.0
H1704 H 0.26441 0.77217 0.63121 0.0
H1705 H 0.10157 0.57968 0.59416 0.0
H1706 H 0.16016 0.73808 0.66737 0.0
H1707 H 0.15039 0.65801 0.51453 0.0
H1708 H 0.13553 0.63243 0.62743 0.0
H1709 H 0.23193 0.73011 0.59024 0.0
C1710 C 0.23456 0.75671 0.63032 0.0
C1711 C 0.21552 0.75678 0.6543 0.0
C1712 C 0.13932 0.63767 0.60278 0.0
C1713 C 0.17864 0.70768 0.6079 0.0
C1714 C 0.12096 0.6074 0.58412 0.0
C1715 C 0.12382 0.6146 0.55184 0.0
C1716 C 0.16115 0.67487 0.58906 0.0
C1717 C 0.14816 0.6514 0.53953 0.0
C1718 C 0.21613 0.73237 0.60691 0.0
C1719 C 0.17647 0.73708 0.65067 0.0
N1720 N 0.16603 0.68045 0.55823 0.0
N1721 N 0.15942 0.71177 0.62875 0.0
loop_
_geom_bond_atom_site_label_1
_geom_bond_atom_site_label_2
_geom_bond_distance
_geom_bond_site_symmetry_2
_ccdc_geom_bond_type
Eu0 N31 2.657 . S
Eu0 N38 2.609 . S
Eu0 O44 2.558 . S
Eu0 O45 2.612 . S
Eu0 O47 2.339 . S
Eu0 O48 2.563 . S
Eu0 O49 2.419 . S
Eu0 O51 2.380 . S
Eu0 O52 2.432 . S
Eu0 C64 2.848 . S
C1 C4 1.429 . S
C1 C5 1.411 . S
C1 N8 1.377 . S
C2 C4 1.420 . S
C2 C6 1.423 . S
C2 C14 1.392 . S
C3 C5 1.420 . S
C3 C6 1.351 . S
C3 H26 0.931 . S
C4 C1 1.429 . S
C4 C2 1.420 . S
C4 N12 1.362 . S
C5 C1 1.411 . S
C5 C3 1.420 . S
C5 C10 1.395 . S
C6 C2 1.423 . S
C6 C3 1.351 . S
C6 H18 0.930 . S
C7 C9 1.400 . S
C7 C10 1.386 . S
C7 H19 0.930 . S
N8 C1 1.377 . S
N8 C9 1.321 . S
N8 Eu11 2.609 . S
C9 C7 1.400 . S
C9 N8 1.321 . S
C9 H16 0.930 . S
C10 C5 1.395 . S
C10 C7 1.386 . S
C10 H29 0.930 . S
Eu11 N8 2.609 . S
Eu11 N12 2.657 . S
Eu11 O45 2.380 . S
Eu11 O46 2.432 . S
Eu11 O50 2.558 . S
Eu11 O51 2.612 . S
Eu11 O53 2.339 . S
Eu11 O54 2.563 . S
Eu11 O55 2.419 . S
Eu11 C75 2.848 . S
N12 C4 1.362 . S
N12 Eu11 2.657 . S
N12 C13 1.334 . S
C13 N12 1.334 . S
C13 C15 1.413 . S
C13 H20 0.929 . S
C14 C2 1.392 . S
C14 C15 1.367 . S
C14 H22 0.930 . S
C15 C13 1.413 . S
C15 C14 1.367 . S
C15 H17 0.930 . S
H16 C9 0.930 . S
H17 C15 0.930 . S
H18 C6 0.930 . S
H19 C7 0.930 . S
H20 C13 0.929 . S
H21 C35 0.930 . S
H22 C14 0.930 . S
H23 C41 0.930 . S
H24 C32 0.929 . S
H25 C39 0.930 . S
H26 C3 0.931 . S
H27 C33 0.930 . S
H28 C66 0.930 . S
H29 C10 0.930 . S
H30 C65 0.931 . S
N31 Eu0 2.657 . S
N31 C32 1.334 . S
N31 C36 1.362 . S
C32 H24 0.929 . S
C32 N31 1.334 . S
C32 C35 1.413 . S
C33 H27 0.930 . S
C33 C34 1.392 . S
C33 C35 1.367 . S
C34 C33 1.392 . S
C34 C36 1.420 . S
C34 C66 1.423 . S
C35 H21 0.930 . S
C35 C32 1.413 . S
C35 C33 1.367 . S
C36 N31 1.362 . S
C36 C34 1.420 . S
C36 C40 1.429 . S
H37 C42 0.930 . S
N38 Eu0 2.609 . S
N38 C40 1.377 . S
N38 C41 1.321 . S
C39 H25 0.930 . S
C39 C41 1.400 . S
C39 C42 1.386 . S
C40 C36 1.429 . S
C40 N38 1.377 . S
C40 C43 1.411 . S
C41 H23 0.930 . S
C41 N38 1.321 . S
C41 C39 1.400 . S
C42 H37 0.930 . S
C42 C39 1.386 . S
C42 C43 1.395 . S
C43 C40 1.411 . S
C43 C42 1.395 . S
C43 C65 1.420 . S
O44 Eu0 2.558 . S
O44 C64 1.257 . S
O45 Eu0 2.612 . S
O45 Eu11 2.380 . S
O45 C56 1.276 . S
O46 Eu11 2.432 . S
O46 C63 1.264 . S
O47 Eu0 2.339 . S
O47 C63 1.254 . S
O48 Eu0 2.563 . S
O48 C56 1.235 . S
O49 Eu0 2.419 . S
O49 C64 1.249 . S
O50 Eu11 2.558 . S
O50 C75 1.257 . S
O51 Eu0 2.380 . S
O51 Eu11 2.612 . S
O51 C67 1.276 . S
O52 Eu0 2.432 . S
O52 C74 1.264 . S
O53 Eu11 2.339 . S
O53 C74 1.254 . S
O54 Eu11 2.563 . S
O54 C67 1.235 . S
O55 Eu11 2.419 . S
O55 C75 1.249 . S
C56 O45 1.276 . S
C56 O48 1.235 . S
C57 C59 1.393 . S
C57 C61 1.395 . S
C57 C64 1.492 . S
C58 C59 1.392 . S
C58 C60 1.386 . S
C59 C57 1.393 . S
C59 C58 1.392 . S
C59 H76 0.930 . S
C60 C58 1.386 . S
C60 C62 1.395 . S
C60 H77 0.930 . S
C61 C57 1.395 . S
C61 C62 1.379 . S
C61 H78 0.930 . S
C62 C60 1.395 . S
C62 C61 1.379 . S
C62 H79 0.930 . S
C63 O46 1.264 . S
C63 O47 1.254 . S
C64 Eu0 2.848 . S
C64 O44 1.257 . S
C64 O49 1.249 . S
C64 C57 1.492 . S
C65 H30 0.931 . S
C65 C43 1.420 . S
C65 C66 1.351 . S
C66 H28 0.930 . S
C66 C34 1.423 . S
C66 C65 1.351 . S
C67 O51 1.276 . S
C67 O54 1.235 . S
C68 C69 1.393 . S
C68 C72 1.395 . S
C68 C75 1.492 . S
C69 C68 1.393 . S
C69 C70 1.392 . S
C69 H80 0.930 . S
C70 C69 1.392 . S
C70 C71 1.386 . S
C71 C70 1.386 . S
C71 C73 1.395 . S
C71 H81 0.930 . S
C72 C68 1.395 . S
C72 C73 1.379 . S
C72 H82 0.930 . S
C73 C71 1.395 . S
C73 C72 1.379 . S
C73 H83 0.930 . S
C74 O52 1.264 . S
C74 O53 1.254 . S
C75 Eu11 2.848 . S
C75 O50 1.257 . S
C75 O55 1.249 . S
C75 C68 1.492 . S
H76 C59 0.930 . S
H77 C60 0.930 . S
H78 C61 0.930 . S
H79 C62 0.930 . S
H80 C69 0.930 . S
H81 C71 0.930 . S
H82 C72 0.930 . S
H83 C73 0.930 . S
Eu84 N115 2.657 . S
Eu84 N122 2.609 . S
Eu84 O128 2.558 . S
Eu84 O129 2.612 . S
Eu84 O131 2.339 . S
Eu84 O132 2.563 . S
Eu84 O133 2.419 . S
Eu84 O135 2.380 . S
Eu84 O136 2.432 . S
Eu84 C148 2.848 . S
C85 C88 1.429 . S
C85 C89 1.411 . S
C85 N92 1.377 . S
C86 C88 1.420 . S
C86 C90 1.423 . S
C86 C98 1.392 . S
C87 C89 1.420 . S
C87 C90 1.351 . S
C87 H110 0.931 . S
C88 C85 1.429 . S
C88 C86 1.420 . S
C88 N96 1.362 . S
C89 C85 1.411 . S
C89 C87 1.420 . S
C89 C94 1.395 . S
C90 C86 1.423 . S
C90 C87 1.351 . S
C90 H102 0.930 . S
C91 C93 1.400 . S
C91 C94 1.386 . S
C91 H103 0.930 . S
N92 C85 1.377 . S
N92 C93 1.321 . S
N92 Eu95 2.609 . S
C93 C91 1.400 . S
C93 N92 1.321 . S
C93 H100 0.930 . S
C94 C89 1.395 . S
C94 C91 1.386 . S
C94 H113 0.930 . S
Eu95 N92 2.609 . S
Eu95 N96 2.657 . S
Eu95 O129 2.380 . S
Eu95 O130 2.432 . S
Eu95 O134 2.558 . S
Eu95 O135 2.612 . S
Eu95 O137 2.339 . S
Eu95 O138 2.563 . S
Eu95 O139 2.419 . S
Eu95 C159 2.848 . S
N96 C88 1.362 . S
N96 Eu95 2.657 . S
N96 C97 1.334 . S
C97 N96 1.334 . S
C97 C99 1.413 . S
C97 H104 0.929 . S
C98 C86 1.392 . S
C98 C99 1.367 . S
C98 H106 0.930 . S
C99 C97 1.413 . S
C99 C98 1.367 . S
C99 H101 0.930 . S
H100 C93 0.930 . S
H101 C99 0.930 . S
H102 C90 0.930 . S
H103 C91 0.930 . S
H104 C97 0.929 . S
H105 C119 0.930 . S
H106 C98 0.930 . S
H107 C125 0.930 . S
H108 C116 0.929 . S
H109 C123 0.930 . S
H110 C87 0.931 . S
H111 C117 0.930 . S
H112 C150 0.930 . S
H113 C94 0.930 . S
H114 C149 0.931 . S
N115 Eu84 2.657 . S
N115 C116 1.334 . S
N115 C120 1.362 . S
C116 H108 0.929 . S
C116 N115 1.334 . S
C116 C119 1.413 . S
C117 H111 0.930 . S
C117 C118 1.392 . S
C117 C119 1.367 . S
C118 C117 1.392 . S
C118 C120 1.420 . S
C118 C150 1.423 . S
C119 H105 0.930 . S
C119 C116 1.413 . S
C119 C117 1.367 . S
C120 N115 1.362 . S
C120 C118 1.420 . S
C120 C124 1.429 . S
H121 C126 0.930 . S
N122 Eu84 2.609 . S
N122 C124 1.377 . S
N122 C125 1.321 . S
C123 H109 0.930 . S
C123 C125 1.400 . S
C123 C126 1.386 . S
C124 C120 1.429 . S
C124 N122 1.377 . S
C124 C127 1.411 . S
C125 H107 0.930 . S
C125 N122 1.321 . S
C125 C123 1.400 . S
C126 H121 0.930 . S
C126 C123 1.386 . S
C126 C127 1.395 . S
C127 C124 1.411 . S
C127 C126 1.395 . S
C127 C149 1.420 . S
O128 Eu84 2.558 . S
O128 C148 1.257 . S
O129 Eu84 2.612 . S
O129 Eu95 2.380 . S
O129 C140 1.276 . S
O130 Eu95 2.432 . S
O130 C147 1.264 . S
O131 Eu84 2.339 . S
O131 C147 1.254 . S
O132 Eu84 2.563 . S
O132 C140 1.235 . S
O133 Eu84 2.419 . S
O133 C148 1.249 . S
O134 Eu95 2.558 . S
O134 C159 1.257 . S
O135 Eu84 2.380 . S
O135 Eu95 2.612 . S
O135 C151 1.276 . S
O136 Eu84 2.432 . S
O136 C158 1.264 . S
O137 Eu95 2.339 . S
O137 C158 1.254 . S
O138 Eu95 2.563 . S
O138 C151 1.235 . S
O139 Eu95 2.419 . S
O139 C159 1.249 . S
C140 O129 1.276 . S
C140 O132 1.235 . S
C141 C143 1.393 . S
C141 C145 1.395 . S
C141 C148 1.492 . S
C142 C143 1.392 . S
C142 C144 1.386 . S
C143 C141 1.393 . S
C143 C142 1.392 . S
C143 H160 0.930 . S
C144 C142 1.386 . S
C144 C146 1.395 . S
C144 H161 0.930 . S
C145 C141 1.395 . S
C145 C146 1.379 . S
C145 H162 0.930 . S
C146 C144 1.395 . S
C146 C145 1.379 . S
C146 H163 0.930 . S
C147 O130 1.264 . S
C147 O131 1.254 . S
C148 Eu84 2.848 . S
C148 O128 1.257 . S
C148 O133 1.249 . S
C148 C141 1.492 . S
C149 H114 0.931 . S
C149 C127 1.420 . S
C149 C150 1.351 . S
C150 H112 0.930 . S
C150 C118 1.423 . S
C150 C149 1.351 . S
C151 O135 1.276 . S
C151 O138 1.235 . S
C152 C153 1.393 . S
C152 C156 1.395 . S
C152 C159 1.492 . S
C153 C152 1.393 . S
C153 C154 1.392 . S
C153 H164 0.930 . S
C154 C153 1.392 . S
C154 C155 1.386 . S
C155 C154 1.386 . S
C155 C157 1.395 . S
C155 H165 0.930 . S
C156 C152 1.395 . S
C156 C157 1.379 . S
C156 H166 0.930 . S
C157 C155 1.395 . S
C157 C156 1.379 . S
C157 H167 0.930 . S
C158 O136 1.264 . S
C158 O137 1.254 . S
C159 Eu95 2.848 . S
C159 O134 1.257 . S
C159 O139 1.249 . S
C159 C152 1.492 . S
H160 C143 0.930 . S
H161 C144 0.930 . S
H162 C145 0.930 . S
H163 C146 0.930 . S
H164 C153 0.930 . S
H165 C155 0.930 . S
H166 C156 0.930 . S
H167 C157 0.930 . S
Eu168 N199 2.657 . S
Eu168 N206 2.609 . S
Eu168 O212 2.558 . S
Eu168 O213 2.612 . S
Eu168 O215 2.339 . S
Eu168 O216 2.563 . S
Eu168 O217 2.419 . S
Eu168 O219 2.380 . S
Eu168 O220 2.432 . S
Eu168 C232 2.848 . S
C169 C172 1.429 . S
C169 C173 1.411 . S
C169 N176 1.377 . S
C170 C172 1.420 . S
C170 C174 1.423 . S
C170 C182 1.392 . S
C171 C173 1.420 . S
C171 C174 1.351 . S
C171 H194 0.931 . S
C172 C169 1.429 . S
C172 C170 1.420 . S
C172 N180 1.362 . S
C173 C169 1.411 . S
C173 C171 1.420 . S
C173 C178 1.395 . S
C174 C170 1.423 . S
C174 C171 1.351 . S
C174 H186 0.930 . S
C175 C177 1.400 . S
C175 C178 1.386 . S
C175 H187 0.930 . S
N176 C169 1.377 . S
N176 C177 1.321 . S
N176 Eu179 2.609 . S
C177 C175 1.400 . S
C177 N176 1.321 . S
C177 H184 0.930 . S
C178 C173 1.395 . S
C178 C175 1.386 . S
C178 H197 0.930 . S
Eu179 N176 2.609 . S
Eu179 N180 2.657 . S
Eu179 O213 2.380 . S
Eu179 O214 2.432 . S
Eu179 O218 2.558 . S
Eu179 O219 2.612 . S
Eu179 O221 2.339 . S
Eu179 O222 2.563 . S
Eu179 O223 2.419 . S
Eu179 C243 2.848 . S
N180 C172 1.362 . S
N180 Eu179 2.657 . S
N180 C181 1.334 . S
C181 N180 1.334 . S
C181 C183 1.413 . S
C181 H188 0.929 . S
C182 C170 1.392 . S
C182 C183 1.367 . S
C182 H190 0.930 . S
C183 C181 1.413 . S
C183 C182 1.367 . S
C183 H185 0.930 . S
H184 C177 0.930 . S
H185 C183 0.930 . S
H186 C174 0.930 . S
H187 C175 0.930 . S
H188 C181 0.929 . S
H189 C203 0.930 . S
H190 C182 0.930 . S
H191 C209 0.930 . S
H192 C200 0.929 . S
H193 C207 0.930 . S
H194 C171 0.931 . S
H195 C201 0.930 . S
H196 C234 0.930 . S
H197 C178 0.930 . S
H198 C233 0.931 . S
N199 Eu168 2.657 . S
N199 C200 1.334 . S
N199 C204 1.362 . S
C200 H192 0.929 . S
C200 N199 1.334 . S
C200 C203 1.413 . S
C201 H195 0.930 . S
C201 C202 1.392 . S
C201 C203 1.367 . S
C202 C201 1.392 . S
C202 C204 1.420 . S
C202 C234 1.423 . S
C203 H189 0.930 . S
C203 C200 1.413 . S
C203 C201 1.367 . S
C204 N199 1.362 . S
C204 C202 1.420 . S
C204 C208 1.429 . S
H205 C210 0.930 . S
N206 Eu168 2.609 . S
N206 C208 1.377 . S
N206 C209 1.321 . S
C207 H193 0.930 . S
C207 C209 1.400 . S
C207 C210 1.386 . S
C208 C204 1.429 . S
C208 N206 1.377 . S
C208 C211 1.411 . S
C209 H191 0.930 . S
C209 N206 1.321 . S
C209 C207 1.400 . S
C210 H205 0.930 . S
C210 C207 1.386 . S
C210 C211 1.395 . S
C211 C208 1.411 . S
C211 C210 1.395 . S
C211 C233 1.420 . S
O212 Eu168 2.558 . S
O212 C232 1.257 . S
O213 Eu168 2.612 . S
O213 Eu179 2.380 . S
O213 C224 1.276 . S
O214 Eu179 2.432 . S
O214 C231 1.264 . S
O215 Eu168 2.339 . S
O215 C231 1.254 . S
O216 Eu168 2.563 . S
O216 C224 1.235 . S
O217 Eu168 2.419 . S
O217 C232 1.249 . S
O218 Eu179 2.558 . S
O218 C243 1.257 . S
O219 Eu168 2.380 . S
O219 Eu179 2.612 . S
O219 C235 1.276 . S
O220 Eu168 2.432 . S
O220 C242 1.264 . S
O221 Eu179 2.339 . S
O221 C242 1.254 . S
O222 Eu179 2.563 . S
O222 C235 1.235 . S
O223 Eu179 2.419 . S
O223 C243 1.249 . S
C224 O213 1.276 . S
C224 O216 1.235 . S
C225 C227 1.393 . S
C225 C229 1.395 . S
C225 C232 1.492 . S
C226 C227 1.392 . S
C226 C228 1.386 . S
C227 C225 1.393 . S
C227 C226 1.392 . S
C227 H244 0.930 . S
C228 C226 1.386 . S
C228 C230 1.395 . S
C228 H245 0.930 . S
C229 C225 1.395 . S
C229 C230 1.379 . S
C229 H246 0.930 . S
C230 C228 1.395 . S
C230 C229 1.379 . S
C230 H247 0.930 . S
C231 O214 1.264 . S
C231 O215 1.254 . S
C232 Eu168 2.848 . S
C232 O212 1.257 . S
C232 O217 1.249 . S
C232 C225 1.492 . S
C233 H198 0.931 . S
C233 C211 1.420 . S
C233 C234 1.351 . S
C234 H196 0.930 . S
C234 C202 1.423 . S
C234 C233 1.351 . S
C235 O219 1.276 . S
C235 O222 1.235 . S
C236 C237 1.393 . S
C236 C240 1.395 . S
C236 C243 1.492 . S
C237 C236 1.393 . S
C237 C238 1.392 . S
C237 H248 0.930 . S
C238 C237 1.392 . S
C238 C239 1.386 . S
C239 C238 1.386 . S
C239 C241 1.395 . S
C239 H249 0.930 . S
C240 C236 1.395 . S
C240 C241 1.379 . S
C240 H250 0.930 . S
C241 C239 1.395 . S
C241 C240 1.379 . S
C241 H251 0.930 . S
C242 O220 1.264 . S
C242 O221 1.254 . S
C243 Eu179 2.848 . S
C243 O218 1.257 . S
C243 O223 1.249 . S
C243 C236 1.492 . S
H244 C227 0.930 . S
H245 C228 0.930 . S
H246 C229 0.930 . S
H247 C230 0.930 . S
H248 C237 0.930 . S
H249 C239 0.930 . S
H250 C240 0.930 . S
H251 C241 0.930 . S
Eu252 N283 2.657 . S
Eu252 N290 2.609 . S
Eu252 O296 2.558 . S
Eu252 O297 2.612 . S
Eu252 O299 2.339 . S
Eu252 O300 2.563 . S
Eu252 O301 2.419 . S
Eu252 O303 2.380 . S
Eu252 O304 2.432 . S
Eu252 C316 2.848 . S
C253 C256 1.429 . S
C253 C257 1.411 . S
C253 N260 1.377 . S
C254 C256 1.420 . S
C254 C258 1.423 . S
C254 C266 1.392 . S
C255 C257 1.420 . S
C255 C258 1.351 . S
C255 H278 0.931 . S
C256 C253 1.429 . S
C256 C254 1.420 . S
C256 N264 1.362 . S
C257 C253 1.411 . S
C257 C255 1.420 . S
C257 C262 1.395 . S
C258 C254 1.423 . S
C258 C255 1.351 . S
C258 H270 0.930 . S
C259 C261 1.400 . S
C259 C262 1.386 . S
C259 H271 0.930 . S
N260 C253 1.377 . S
N260 C261 1.321 . S
N260 Eu263 2.609 . S
C261 C259 1.400 . S
C261 N260 1.321 . S
C261 H268 0.930 . S
C262 C257 1.395 . S
C262 C259 1.386 . S
C262 H281 0.930 . S
Eu263 N260 2.609 . S
Eu263 N264 2.657 . S
Eu263 O297 2.380 . S
Eu263 O298 2.432 . S
Eu263 O302 2.558 . S
Eu263 O303 2.612 . S
Eu263 O305 2.339 . S
Eu263 O306 2.563 . S
Eu263 O307 2.419 . S
Eu263 C327 2.848 . S
N264 C256 1.362 . S
N264 Eu263 2.657 . S
N264 C265 1.334 . S
C265 N264 1.334 . S
C265 C267 1.413 . S
C265 H272 0.929 . S
C266 C254 1.392 . S
C266 C267 1.367 . S
C266 H274 0.930 . S
C267 C265 1.413 . S
C267 C266 1.367 . S
C267 H269 0.930 . S
H268 C261 0.930 . S
H269 C267 0.930 . S
H270 C258 0.930 . S
H271 C259 0.930 . S
H272 C265 0.929 . S
H273 C287 0.930 . S
H274 C266 0.930 . S
H275 C293 0.930 . S
H276 C284 0.929 . S
H277 C291 0.930 . S
H278 C255 0.931 . S
H279 C285 0.930 . S
H280 C318 0.930 . S
H281 C262 0.930 . S
H282 C317 0.931 . S
N283 Eu252 2.657 . S
N283 C284 1.334 . S
N283 C288 1.362 . S
C284 H276 0.929 . S
C284 N283 1.334 . S
C284 C287 1.413 . S
C285 H279 0.930 . S
C285 C286 1.392 . S
C285 C287 1.367 . S
C286 C285 1.392 . S
C286 C288 1.420 . S
C286 C318 1.423 . S
C287 H273 0.930 . S
C287 C284 1.413 . S
C287 C285 1.367 . S
C288 N283 1.362 . S
C288 C286 1.420 . S
C288 C292 1.429 . S
H289 C294 0.930 . S
N290 Eu252 2.609 . S
N290 C292 1.377 . S
N290 C293 1.321 . S
C291 H277 0.930 . S
C291 C293 1.400 . S
C291 C294 1.386 . S
C292 C288 1.429 . S
C292 N290 1.377 . S
C292 C295 1.411 . S
C293 H275 0.930 . S
C293 N290 1.321 . S
C293 C291 1.400 . S
C294 H289 0.930 . S
C294 C291 1.386 . S
C294 C295 1.395 . S
C295 C292 1.411 . S
C295 C294 1.395 . S
C295 C317 1.420 . S
O296 Eu252 2.558 . S
O296 C316 1.257 . S
O297 Eu252 2.612 . S
O297 Eu263 2.380 . S
O297 C308 1.276 . S
O298 Eu263 2.432 . S
O298 C315 1.264 . S
O299 Eu252 2.339 . S
O299 C315 1.254 . S
O300 Eu252 2.563 . S
O300 C308 1.235 . S
O301 Eu252 2.419 . S
O301 C316 1.249 . S
O302 Eu263 2.558 . S
O302 C327 1.257 . S
O303 Eu252 2.380 . S
O303 Eu263 2.612 . S
O303 C319 1.276 . S
O304 Eu252 2.432 . S
O304 C326 1.264 . S
O305 Eu263 2.339 . S
O305 C326 1.254 . S
O306 Eu263 2.563 . S
O306 C319 1.235 . S
O307 Eu263 2.419 . S
O307 C327 1.249 . S
C308 O297 1.276 . S
C308 O300 1.235 . S
C309 C311 1.393 . S
C309 C313 1.395 . S
C309 C316 1.492 . S
C310 C311 1.392 . S
C310 C312 1.386 . S
C311 C309 1.393 . S
C311 C310 1.392 . S
C311 H328 0.930 . S
C312 C310 1.386 . S
C312 C314 1.395 . S
C312 H329 0.930 . S
C313 C309 1.395 . S
C313 C314 1.379 . S
C313 H330 0.930 . S
C314 C312 1.395 . S
C314 C313 1.379 . S
C314 H331 0.930 . S
C315 O298 1.264 . S
C315 O299 1.254 . S
C316 Eu252 2.848 . S
C316 O296 1.257 . S
C316 O301 1.249 . S
C316 C309 1.492 . S
C317 H282 0.931 . S
C317 C295 1.420 . S
C317 C318 1.351 . S
C318 H280 0.930 . S
C318 C286 1.423 . S
C318 C317 1.351 . S
C319 O303 1.276 . S
C319 O306 1.235 . S
C320 C321 1.393 . S
C320 C324 1.395 . S
C320 C327 1.492 . S
C321 C320 1.393 . S
C321 C322 1.392 . S
C321 H332 0.930 . S
C322 C321 1.392 . S
C322 C323 1.386 . S
C323 C322 1.386 . S
C323 C325 1.395 . S
C323 H333 0.930 . S
C324 C320 1.395 . S
C324 C325 1.379 . S
C324 H334 0.930 . S
C325 C323 1.395 . S
C325 C324 1.379 . S
C325 H335 0.930 . S
C326 O304 1.264 . S
C326 O305 1.254 . S
C327 Eu263 2.848 . S
C327 O302 1.257 . S
C327 O307 1.249 . S
C327 C320 1.492 . S
H328 C311 0.930 . S
H329 C312 0.930 . S
H330 C313 0.930 . S
H331 C314 0.930 . S
H332 C321 0.930 . S
H333 C323 0.930 . S
H334 C324 0.930 . S
H335 C325 0.930 . S
Eu336 N367 2.657 . S
Eu336 N374 2.609 . S
Eu336 O380 2.558 . S
Eu336 O381 2.612 . S
Eu336 O383 2.339 . S
Eu336 O384 2.563 . S
Eu336 O385 2.419 . S
Eu336 O387 2.380 . S
Eu336 O388 2.432 . S
Eu336 C400 2.848 . S
C337 C340 1.429 . S
C337 C341 1.411 . S
C337 N344 1.377 . S
C338 C340 1.420 . S
C338 C342 1.423 . S
C338 C350 1.392 . S
C339 C341 1.420 . S
C339 C342 1.351 . S
C339 H362 0.931 . S
C340 C337 1.429 . S
C340 C338 1.420 . S
C340 N348 1.362 . S
C341 C337 1.411 . S
C341 C339 1.420 . S
C341 C346 1.395 . S
C342 C338 1.423 . S
C342 C339 1.351 . S
C342 H354 0.930 . S
C343 C345 1.400 . S
C343 C346 1.386 . S
C343 H355 0.930 . S
N344 C337 1.377 . S
N344 C345 1.321 . S
N344 Eu347 2.609 . S
C345 C343 1.400 . S
C345 N344 1.321 . S
C345 H352 0.930 . S
C346 C341 1.395 . S
C346 C343 1.386 . S
C346 H365 0.930 . S
Eu347 N344 2.609 . S
Eu347 N348 2.657 . S
Eu347 O381 2.380 . S
Eu347 O382 2.432 . S
Eu347 O386 2.558 . S
Eu347 O387 2.612 . S
Eu347 O389 2.339 . S
Eu347 O390 2.563 . S
Eu347 O391 2.419 . S
Eu347 C411 2.848 . S
N348 C340 1.362 . S
N348 Eu347 2.657 . S
N348 C349 1.334 . S
C349 N348 1.334 . S
C349 C351 1.413 . S
C349 H356 0.929 . S
C350 C338 1.392 . S
C350 C351 1.367 . S
C350 H358 0.930 . S
C351 C349 1.413 . S
C351 C350 1.367 . S
C351 H353 0.930 . S
H352 C345 0.930 . S
H353 C351 0.930 . S
H354 C342 0.930 . S
H355 C343 0.930 . S
H356 C349 0.929 . S
H357 C371 0.930 . S
H358 C350 0.930 . S
H359 C377 0.930 . S
H360 C368 0.929 . S
H361 C375 0.930 . S
H362 C339 0.931 . S
H363 C369 0.930 . S
H364 C402 0.930 . S
H365 C346 0.930 . S
H366 C401 0.931 . S
N367 Eu336 2.657 . S
N367 C368 1.334 . S
N367 C372 1.362 . S
C368 H360 0.929 . S
C368 N367 1.334 . S
C368 C371 1.413 . S
C369 H363 0.930 . S
C369 C370 1.392 . S
C369 C371 1.367 . S
C370 C369 1.392 . S
C370 C372 1.420 . S
C370 C402 1.423 . S
C371 H357 0.930 . S
C371 C368 1.413 . S
C371 C369 1.367 . S
C372 N367 1.362 . S
C372 C370 1.420 . S
C372 C376 1.429 . S
H373 C378 0.930 . S
N374 Eu336 2.609 . S
N374 C376 1.377 . S
N374 C377 1.321 . S
C375 H361 0.930 . S
C375 C377 1.400 . S
C375 C378 1.386 . S
C376 C372 1.429 . S
C376 N374 1.377 . S
C376 C379 1.411 . S
C377 H359 0.930 . S
C377 N374 1.321 . S
C377 C375 1.400 . S
C378 H373 0.930 . S
C378 C375 1.386 . S
C378 C379 1.395 . S
C379 C376 1.411 . S
C379 C378 1.395 . S
C379 C401 1.420 . S
O380 Eu336 2.558 . S
O380 C400 1.257 . S
O381 Eu336 2.612 . S
O381 Eu347 2.380 . S
O381 C392 1.276 . S
O382 Eu347 2.432 . S
O382 C399 1.264 . S
O383 Eu336 2.339 . S
O383 C399 1.254 . S
O384 Eu336 2.563 . S
O384 C392 1.235 . S
O385 Eu336 2.419 . S
O385 C400 1.249 . S
O386 Eu347 2.558 . S
O386 C411 1.257 . S
O387 Eu336 2.380 . S
O387 Eu347 2.612 . S
O387 C403 1.276 . S
O388 Eu336 2.432 . S
O388 C410 1.264 . S
O389 Eu347 2.339 . S
O389 C410 1.254 . S
O390 Eu347 2.563 . S
O390 C403 1.235 . S
O391 Eu347 2.419 . S
O391 C411 1.249 . S
C392 O381 1.276 . S
C392 O384 1.235 . S
C393 C395 1.393 . S
C393 C397 1.395 . S
C393 C400 1.492 . S
C394 C395 1.392 . S
C394 C396 1.386 . S
C395 C393 1.393 . S
C395 C394 1.392 . S
C395 H412 0.930 . S
C396 C394 1.386 . S
C396 C398 1.395 . S
C396 H413 0.930 . S
C397 C393 1.395 . S
C397 C398 1.379 . S
C397 H414 0.930 . S
C398 C396 1.395 . S
C398 C397 1.379 . S
C398 H415 0.930 . S
C399 O382 1.264 . S
C399 O383 1.254 . S
C400 Eu336 2.848 . S
C400 O380 1.257 . S
C400 O385 1.249 . S
C400 C393 1.492 . S
C401 H366 0.931 . S
C401 C379 1.420 . S
C401 C402 1.351 . S
C402 H364 0.930 . S
C402 C370 1.423 . S
C402 C401 1.351 . S
C403 O387 1.276 . S
C403 O390 1.235 . S
C404 C405 1.393 . S
C404 C408 1.395 . S
C404 C411 1.492 . S
C405 C404 1.393 . S
C405 C406 1.392 . S
C405 H416 0.930 . S
C406 C405 1.392 . S
C406 C407 1.386 . S
C407 C406 1.386 . S
C407 C409 1.395 . S
C407 H417 0.930 . S
C408 C404 1.395 . S
C408 C409 1.379 . S
C408 H418 0.930 . S
C409 C407 1.395 . S
C409 C408 1.379 . S
C409 H419 0.930 . S
C410 O388 1.264 . S
C410 O389 1.254 . S
C411 Eu347 2.848 . S
C411 O386 1.257 . S
C411 O391 1.249 . S
C411 C404 1.492 . S
H412 C395 0.930 . S
H413 C396 0.930 . S
H414 C397 0.930 . S
H415 C398 0.930 . S
H416 C405 0.930 . S
H417 C407 0.930 . S
H418 C408 0.930 . S
H419 C409 0.930 . S
Eu420 N451 2.657 . S
Eu420 N458 2.609 . S
Eu420 O464 2.558 . S
Eu420 O465 2.612 . S
Eu420 O467 2.339 . S
Eu420 O468 2.563 . S
Eu420 O469 2.419 . S
Eu420 O471 2.380 . S
Eu420 O472 2.432 . S
Eu420 C484 2.848 . S
C421 C424 1.429 . S
C421 C425 1.411 . S
C421 N428 1.377 . S
C422 C424 1.420 . S
C422 C426 1.423 . S
C422 C434 1.392 . S
C423 C425 1.420 . S
C423 C426 1.351 . S
C423 H446 0.931 . S
C424 C421 1.429 . S
C424 C422 1.420 . S
C424 N432 1.362 . S
C425 C421 1.411 . S
C425 C423 1.420 . S
C425 C430 1.395 . S
C426 C422 1.423 . S
C426 C423 1.351 . S
C426 H438 0.930 . S
C427 C429 1.400 . S
C427 C430 1.386 . S
C427 H439 0.930 . S
N428 C421 1.377 . S
N428 C429 1.321 . S
N428 Eu431 2.609 . S
C429 C427 1.400 . S
C429 N428 1.321 . S
C429 H436 0.930 . S
C430 C425 1.395 . S
C430 C427 1.386 . S
C430 H449 0.930 . S
Eu431 N428 2.609 . S
Eu431 N432 2.657 . S
Eu431 O465 2.380 . S
Eu431 O466 2.432 . S
Eu431 O470 2.558 . S
Eu431 O471 2.612 . S
Eu431 O473 2.339 . S
Eu431 O474 2.563 . S
Eu431 O475 2.419 . S
Eu431 C495 2.848 . S
N432 C424 1.362 . S
N432 Eu431 2.657 . S
N432 C433 1.334 . S
C433 N432 1.334 . S
C433 C435 1.413 . S
C433 H440 0.929 . S
C434 C422 1.392 . S
C434 C435 1.367 . S
C434 H442 0.930 . S
C435 C433 1.413 . S
C435 C434 1.367 . S
C435 H437 0.930 . S
H436 C429 0.930 . S
H437 C435 0.930 . S
H438 C426 0.930 . S
H439 C427 0.930 . S
H440 C433 0.929 . S
H441 C455 0.930 . S
H442 C434 0.930 . S
H443 C461 0.930 . S
H444 C452 0.929 . S
H445 C459 0.930 . S
H446 C423 0.931 . S
H447 C453 0.930 . S
H448 C486 0.930 . S
H449 C430 0.930 . S
H450 C485 0.931 . S
N451 Eu420 2.657 . S
N451 C452 1.334 . S
N451 C456 1.362 . S
C452 H444 0.929 . S
C452 N451 1.334 . S
C452 C455 1.413 . S
C453 H447 0.930 . S
C453 C454 1.392 . S
C453 C455 1.367 . S
C454 C453 1.392 . S
C454 C456 1.420 . S
C454 C486 1.423 . S
C455 H441 0.930 . S
C455 C452 1.413 . S
C455 C453 1.367 . S
C456 N451 1.362 . S
C456 C454 1.420 . S
C456 C460 1.429 . S
H457 C462 0.930 . S
N458 Eu420 2.609 . S
N458 C460 1.377 . S
N458 C461 1.321 . S
C459 H445 0.930 . S
C459 C461 1.400 . S
C459 C462 1.386 . S
C460 C456 1.429 . S
C460 N458 1.377 . S
C460 C463 1.411 . S
C461 H443 0.930 . S
C461 N458 1.321 . S
C461 C459 1.400 . S
C462 H457 0.930 . S
C462 C459 1.386 . S
C462 C463 1.395 . S
C463 C460 1.411 . S
C463 C462 1.395 . S
C463 C485 1.420 . S
O464 Eu420 2.558 . S
O464 C484 1.257 . S
O465 Eu420 2.612 . S
O465 Eu431 2.380 . S
O465 C476 1.276 . S
O466 Eu431 2.432 . S
O466 C483 1.264 . S
O467 Eu420 2.339 . S
O467 C483 1.254 . S
O468 Eu420 2.563 . S
O468 C476 1.235 . S
O469 Eu420 2.419 . S
O469 C484 1.249 . S
O470 Eu431 2.558 . S
O470 C495 1.257 . S
O471 Eu420 2.380 . S
O471 Eu431 2.612 . S
O471 C487 1.276 . S
O472 Eu420 2.432 . S
O472 C494 1.264 . S
O473 Eu431 2.339 . S
O473 C494 1.254 . S
O474 Eu431 2.563 . S
O474 C487 1.235 . S
O475 Eu431 2.419 . S
O475 C495 1.249 . S
C476 O465 1.276 . S
C476 O468 1.235 . S
C477 C479 1.393 . S
C477 C481 1.395 . S
C477 C484 1.492 . S
C478 C479 1.392 . S
C478 C480 1.386 . S
C479 C477 1.393 . S
C479 C478 1.392 . S
C479 H496 0.930 . S
C480 C478 1.386 . S
C480 C482 1.395 . S
C480 H497 0.930 . S
C481 C477 1.395 . S
C481 C482 1.379 . S
C481 H498 0.930 . S
C482 C480 1.395 . S
C482 C481 1.379 . S
C482 H499 0.930 . S
C483 O466 1.264 . S
C483 O467 1.254 . S
C484 Eu420 2.848 . S
C484 O464 1.257 . S
C484 O469 1.249 . S
C484 C477 1.492 . S
C485 H450 0.931 . S
C485 C463 1.420 . S
C485 C486 1.351 . S
C486 H448 0.930 . S
C486 C454 1.423 . S
C486 C485 1.351 . S
C487 O471 1.276 . S
C487 O474 1.235 . S
C488 C489 1.393 . S
C488 C492 1.395 . S
C488 C495 1.492 . S
C489 C488 1.393 . S
C489 C490 1.392 . S
C489 H500 0.930 . S
C490 C489 1.392 . S
C490 C491 1.386 . S
C491 C490 1.386 . S
C491 C493 1.395 . S
C491 H501 0.930 . S
C492 C488 1.395 . S
C492 C493 1.379 . S
C492 H502 0.930 . S
C493 C491 1.395 . S
C493 C492 1.379 . S
C493 H503 0.930 . S
C494 O472 1.264 . S
C494 O473 1.254 . S
C495 Eu431 2.848 . S
C495 O470 1.257 . S
C495 O475 1.249 . S
C495 C488 1.492 . S
H496 C479 0.930 . S
H497 C480 0.930 . S
H498 C481 0.930 . S
H499 C482 0.930 . S
H500 C489 0.930 . S
H501 C491 0.930 . S
H502 C492 0.930 . S
H503 C493 0.930 . S
Eu504 N535 2.657 . S
Eu504 N542 2.609 . S
Eu504 O548 2.558 . S
Eu504 O549 2.612 . S
Eu504 O551 2.339 . S
Eu504 O552 2.563 . S
Eu504 O553 2.419 . S
Eu504 O555 2.380 . S
Eu504 O556 2.432 . S
Eu504 C568 2.848 . S
C505 C508 1.429 . S
C505 C509 1.411 . S
C505 N512 1.377 . S
C506 C508 1.420 . S
C506 C510 1.423 . S
C506 C518 1.392 . S
C507 C509 1.420 . S
C507 C510 1.351 . S
C507 H530 0.931 . S
C508 C505 1.429 . S
C508 C506 1.420 . S
C508 N516 1.362 . S
C509 C505 1.411 . S
C509 C507 1.420 . S
C509 C514 1.395 . S
C510 C506 1.423 . S
C510 C507 1.351 . S
C510 H522 0.930 . S
C511 C513 1.400 . S
C511 C514 1.386 . S
C511 H523 0.930 . S
N512 C505 1.377 . S
N512 C513 1.321 . S
N512 Eu515 2.609 . S
C513 C511 1.400 . S
C513 N512 1.321 . S
C513 H520 0.930 . S
C514 C509 1.395 . S
C514 C511 1.386 . S
C514 H533 0.930 . S
Eu515 N512 2.609 . S
Eu515 N516 2.657 . S
Eu515 O549 2.380 . S
Eu515 O550 2.432 . S
Eu515 O554 2.558 . S
Eu515 O555 2.612 . S
Eu515 O557 2.339 . S
Eu515 O558 2.563 . S
Eu515 O559 2.419 . S
Eu515 C579 2.848 . S
N516 C508 1.362 . S
N516 Eu515 2.657 . S
N516 C517 1.334 . S
C517 N516 1.334 . S
C517 C519 1.413 . S
C517 H524 0.929 . S
C518 C506 1.392 . S
C518 C519 1.367 . S
C518 H526 0.930 . S
C519 C517 1.413 . S
C519 C518 1.367 . S
C519 H521 0.930 . S
H520 C513 0.930 . S
H521 C519 0.930 . S
H522 C510 0.930 . S
H523 C511 0.930 . S
H524 C517 0.929 . S
H525 C539 0.930 . S
H526 C518 0.930 . S
H527 C545 0.930 . S
H528 C536 0.929 . S
H529 C543 0.930 . S
H530 C507 0.931 . S
H531 C537 0.930 . S
H532 C570 0.930 . S
H533 C514 0.930 . S
H534 C569 0.931 . S
N535 Eu504 2.657 . S
N535 C536 1.334 . S
N535 C540 1.362 . S
C536 H528 0.929 . S
C536 N535 1.334 . S
C536 C539 1.413 . S
C537 H531 0.930 . S
C537 C538 1.392 . S
C537 C539 1.367 . S
C538 C537 1.392 . S
C538 C540 1.420 . S
C538 C570 1.423 . S
C539 H525 0.930 . S
C539 C536 1.413 . S
C539 C537 1.367 . S
C540 N535 1.362 . S
C540 C538 1.420 . S
C540 C544 1.429 . S
H541 C546 0.930 . S
N542 Eu504 2.609 . S
N542 C544 1.377 . S
N542 C545 1.321 . S
C543 H529 0.930 . S
C543 C545 1.400 . S
C543 C546 1.386 . S
C544 C540 1.429 . S
C544 N542 1.377 . S
C544 C547 1.411 . S
C545 H527 0.930 . S
C545 N542 1.321 . S
C545 C543 1.400 . S
C546 H541 0.930 . S
C546 C543 1.386 . S
C546 C547 1.395 . S
C547 C544 1.411 . S
C547 C546 1.395 . S
C547 C569 1.420 . S
O548 Eu504 2.558 . S
O548 C568 1.257 . S
O549 Eu504 2.612 . S
O549 Eu515 2.380 . S
O549 C560 1.276 . S
O550 Eu515 2.432 . S
O550 C567 1.264 . S
O551 Eu504 2.339 . S
O551 C567 1.254 . S
O552 Eu504 2.563 . S
O552 C560 1.235 . S
O553 Eu504 2.419 . S
O553 C568 1.249 . S
O554 Eu515 2.558 . S
O554 C579 1.257 . S
O555 Eu504 2.380 . S
O555 Eu515 2.612 . S
O555 C571 1.276 . S
O556 Eu504 2.432 . S
O556 C578 1.264 . S
O557 Eu515 2.339 . S
O557 C578 1.254 . S
O558 Eu515 2.563 . S
O558 C571 1.235 . S
O559 Eu515 2.419 . S
O559 C579 1.249 . S
C560 O549 1.276 . S
C560 O552 1.235 . S
C561 C563 1.393 . S
C561 C565 1.395 . S
C561 C568 1.492 . S
C562 C563 1.392 . S
C562 C564 1.386 . S
C563 C561 1.393 . S
C563 C562 1.392 . S
C563 H580 0.930 . S
C564 C562 1.386 . S
C564 C566 1.395 . S
C564 H581 0.930 . S
C565 C561 1.395 . S
C565 C566 1.379 . S
C565 H582 0.930 . S
C566 C564 1.395 . S
C566 C565 1.379 . S
C566 H583 0.930 . S
C567 O550 1.264 . S
C567 O551 1.254 . S
C568 Eu504 2.848 . S
C568 O548 1.257 . S
C568 O553 1.249 . S
C568 C561 1.492 . S
C569 H534 0.931 . S
C569 C547 1.420 . S
C569 C570 1.351 . S
C570 H532 0.930 . S
C570 C538 1.423 . S
C570 C569 1.351 . S
C571 O555 1.276 . S
C571 O558 1.235 . S
C572 C573 1.393 . S
C572 C576 1.395 . S
C572 C579 1.492 . S
C573 C572 1.393 . S
C573 C574 1.392 . S
C573 H584 0.930 . S
C574 C573 1.392 . S
C574 C575 1.386 . S
C575 C574 1.386 . S
C575 C577 1.395 . S
C575 H585 0.930 . S
C576 C572 1.395 . S
C576 C577 1.379 . S
C576 H586 0.930 . S
C577 C575 1.395 . S
C577 C576 1.379 . S
C577 H587 0.930 . S
C578 O556 1.264 . S
C578 O557 1.254 . S
C579 Eu515 2.848 . S
C579 O554 1.257 . S
C579 O559 1.249 . S
C579 C572 1.492 . S
H580 C563 0.930 . S
H581 C564 0.930 . S
H582 C565 0.930 . S
H583 C566 0.930 . S
H584 C573 0.930 . S
H585 C575 0.930 . S
H586 C576 0.930 . S
H587 C577 0.930 . S
Eu588 N619 2.657 . S
Eu588 N626 2.609 . S
Eu588 O632 2.558 . S
Eu588 O633 2.612 . S
Eu588 O635 2.339 . S
Eu588 O636 2.563 . S
Eu588 O637 2.419 . S
Eu588 O639 2.380 . S
Eu588 O640 2.432 . S
Eu588 C652 2.848 . S
C589 C592 1.429 . S
C589 C593 1.411 . S
C589 N596 1.377 . S
C590 C592 1.420 . S
C590 C594 1.423 . S
C590 C602 1.392 . S
C591 C593 1.420 . S
C591 C594 1.351 . S
C591 H614 0.931 . S
C592 C589 1.429 . S
C592 C590 1.420 . S
C592 N600 1.362 . S
C593 C589 1.411 . S
C593 C591 1.420 . S
C593 C598 1.395 . S
C594 C590 1.423 . S
C594 C591 1.351 . S
C594 H606 0.930 . S
C595 C597 1.400 . S
C595 C598 1.386 . S
C595 H607 0.930 . S
N596 C589 1.377 . S
N596 C597 1.321 . S
N596 Eu599 2.609 . S
C597 C595 1.400 . S
C597 N596 1.321 . S
C597 H604 0.930 . S
C598 C593 1.395 . S
C598 C595 1.386 . S
C598 H617 0.930 . S
Eu599 N596 2.609 . S
Eu599 N600 2.657 . S
Eu599 O633 2.380 . S
Eu599 O634 2.432 . S
Eu599 O638 2.558 . S
Eu599 O639 2.612 . S
Eu599 O641 2.339 . S
Eu599 O642 2.563 . S
Eu599 O643 2.419 . S
Eu599 C663 2.848 . S
N600 C592 1.362 . S
N600 Eu599 2.657 . S
N600 C601 1.334 . S
C601 N600 1.334 . S
C601 C603 1.413 . S
C601 H608 0.929 . S
C602 C590 1.392 . S
C602 C603 1.367 . S
C602 H610 0.930 . S
C603 C601 1.413 . S
C603 C602 1.367 . S
C603 H605 0.930 . S
H604 C597 0.930 . S
H605 C603 0.930 . S
H606 C594 0.930 . S
H607 C595 0.930 . S
H608 C601 0.929 . S
H609 C623 0.930 . S
H610 C602 0.930 . S
H611 C629 0.930 . S
H612 C620 0.929 . S
H613 C627 0.930 . S
H614 C591 0.931 . S
H615 C621 0.930 . S
H616 C654 0.930 . S
H617 C598 0.930 . S
H618 C653 0.931 . S
N619 Eu588 2.657 . S
N619 C620 1.334 . S
N619 C624 1.362 . S
C620 H612 0.929 . S
C620 N619 1.334 . S
C620 C623 1.413 . S
C621 H615 0.930 . S
C621 C622 1.392 . S
C621 C623 1.367 . S
C622 C621 1.392 . S
C622 C624 1.420 . S
C622 C654 1.423 . S
C623 H609 0.930 . S
C623 C620 1.413 . S
C623 C621 1.367 . S
C624 N619 1.362 . S
C624 C622 1.420 . S
C624 C628 1.429 . S
H625 C630 0.930 . S
N626 Eu588 2.609 . S
N626 C628 1.377 . S
N626 C629 1.321 . S
C627 H613 0.930 . S
C627 C629 1.400 . S
C627 C630 1.386 . S
C628 C624 1.429 . S
C628 N626 1.377 . S
C628 C631 1.411 . S
C629 H611 0.930 . S
C629 N626 1.321 . S
C629 C627 1.400 . S
C630 H625 0.930 . S
C630 C627 1.386 . S
C630 C631 1.395 . S
C631 C628 1.411 . S
C631 C630 1.395 . S
C631 C653 1.420 . S
O632 Eu588 2.558 . S
O632 C652 1.257 . S
O633 Eu588 2.612 . S
O633 Eu599 2.380 . S
O633 C644 1.276 . S
O634 Eu599 2.432 . S
O634 C651 1.264 . S
O635 Eu588 2.339 . S
O635 C651 1.254 . S
O636 Eu588 2.563 . S
O636 C644 1.235 . S
O637 Eu588 2.419 . S
O637 C652 1.249 . S
O638 Eu599 2.558 . S
O638 C663 1.257 . S
O639 Eu588 2.380 . S
O639 Eu599 2.612 . S
O639 C655 1.276 . S
O640 Eu588 2.432 . S
O640 C662 1.264 . S
O641 Eu599 2.339 . S
O641 C662 1.254 . S
O642 Eu599 2.563 . S
O642 C655 1.235 . S
O643 Eu599 2.419 . S
O643 C663 1.249 . S
C644 O633 1.276 . S
C644 O636 1.235 . S
C645 C647 1.393 . S
C645 C649 1.395 . S
C645 C652 1.492 . S
C646 C647 1.392 . S
C646 C648 1.386 . S
C647 C645 1.393 . S
C647 C646 1.392 . S
C647 H664 0.930 . S
C648 C646 1.386 . S
C648 C650 1.395 . S
C648 H665 0.930 . S
C649 C645 1.395 . S
C649 C650 1.379 . S
C649 H666 0.930 . S
C650 C648 1.395 . S
C650 C649 1.379 . S
C650 H667 0.930 . S
C651 O634 1.264 . S
C651 O635 1.254 . S
C652 Eu588 2.848 . S
C652 O632 1.257 . S
C652 O637 1.249 . S
C652 C645 1.492 . S
C653 H618 0.931 . S
C653 C631 1.420 . S
C653 C654 1.351 . S
C654 H616 0.930 . S
C654 C622 1.423 . S
C654 C653 1.351 . S
C655 O639 1.276 . S
C655 O642 1.235 . S
C656 C657 1.393 . S
C656 C660 1.395 . S
C656 C663 1.492 . S
C657 C656 1.393 . S
C657 C658 1.392 . S
C657 H668 0.930 . S
C658 C657 1.392 . S
C658 C659 1.386 . S
C659 C658 1.386 . S
C659 C661 1.395 . S
C659 H669 0.930 . S
C660 C656 1.395 . S
C660 C661 1.379 . S
C660 H670 0.930 . S
C661 C659 1.395 . S
C661 C660 1.379 . S
C661 H671 0.930 . S
C662 O640 1.264 . S
C662 O641 1.254 . S
C663 Eu599 2.848 . S
C663 O638 1.257 . S
C663 O643 1.249 . S
C663 C656 1.492 . S
H664 C647 0.930 . S
H665 C648 0.930 . S
H666 C649 0.930 . S
H667 C650 0.930 . S
H668 C657 0.930 . S
H669 C659 0.930 . S
H670 C660 0.930 . S
H671 C661 0.930 . S
C672 O684 1.241 . S
C672 O685 1.280 . S
C673 O686 1.277 . S
C673 O687 1.245 . S
C674 O698 1.247 . S
C674 O700 1.289 . S
Mg675 O676 1.924 . S
Mg675 O685 2.013 . S
Mg675 O687 1.998 . S
Mg675 O688 2.032 1_655 S
O676 Mg675 1.924 . S
O676 Mg677 1.986 1_545 S
O676 Mg678 1.900 1_655 S
Mg677 O676 1.986 1_565 S
Mg677 O684 2.042 1_565 S
Mg677 O686 2.041 1_565 S
Mg677 O692 2.038 . S
Mg677 O700 2.238 . S
Mg678 O676 1.900 1_455 S
Mg678 O679 1.934 1_545 S
Mg678 O689 2.125 . S
Mg678 O691 2.069 1_445 S
Mg678 O700 2.088 1_445 S
Mg678 O701 2.088 . S
O679 Mg678 1.934 1_565 S
O679 Mg680 1.926 . S
O679 Mg681 1.986 1_565 S
Mg680 O679 1.926 . S
Mg680 O694 1.984 . S
Mg680 O697 1.988 . S
Mg680 O698 2.061 1_455 S
Mg681 O679 1.986 1_545 S
Mg681 O689 2.238 . S
Mg681 O693 2.042 1_545 S
Mg681 O695 2.041 1_545 S
Mg681 O702 2.038 . S
C682 O688 1.247 . S
C682 O689 1.289 . S
C683 O701 1.245 . S
C683 O702 1.274 . S
O684 C672 1.241 . S
O684 Mg677 2.042 1_545 S
O685 C672 1.280 . S
O685 Mg675 2.013 . S
O686 C673 1.277 . S
O686 Mg677 2.041 1_545 S
O687 C673 1.245 . S
O687 Mg675 1.998 . S
O688 Mg675 2.032 1_455 S
O688 C682 1.247 . S
O689 Mg678 2.125 . S
O689 Mg681 2.238 . S
O689 C682 1.289 . S
C690 O691 1.245 . S
C690 O692 1.274 . S
O691 Mg678 2.069 1_665 S
O691 C690 1.245 . S
O692 Mg677 2.038 . S
O692 C690 1.274 . S
O693 Mg681 2.042 1_565 S
O693 C696 1.241 . S
O694 Mg680 1.984 . S
O694 C696 1.280 . S
O695 Mg681 2.041 1_565 S
O695 C699 1.277 . S
C696 O693 1.241 . S
C696 O694 1.280 . S
O697 Mg680 1.988 . S
O697 C699 1.245 . S
O698 C674 1.247 . S
O698 Mg680 2.061 1_655 S
C699 O695 1.277 . S
C699 O697 1.245 . S
O700 C674 1.289 . S
O700 Mg677 2.238 . S
O700 Mg678 2.088 1_665 S
O701 Mg678 2.088 . S
O701 C683 1.245 . S
O702 Mg681 2.038 . S
O702 C683 1.274 . S
C703 O715 1.241 . S
C703 O716 1.280 . S
C704 O717 1.277 . S
C704 O718 1.245 . S
C705 O729 1.247 . S
C705 O731 1.289 . S
Mg706 O707 1.926 . S
Mg706 O716 1.984 . S
Mg706 O718 1.988 1_554 S
Mg706 O719 2.061 . S
O707 Mg706 1.926 . S
O707 Mg708 1.986 1_544 S
O707 Mg709 1.923 . S
Mg708 O707 1.986 1_566 S
Mg708 O715 2.042 1_566 S
Mg708 O717 2.041 1_565 S
Mg708 O723 2.038 1_556 S
Mg708 O731 2.238 . S
Mg709 O707 1.923 . S
Mg709 O710 1.910 1_544 S
Mg709 O720 2.109 . S
Mg709 O722 2.079 1_545 S
Mg709 O731 2.104 1_544 S
Mg709 O732 2.078 1_554 S
O710 Mg709 1.910 1_566 S
O710 Mg711 1.926 . S
O710 Mg712 1.986 1_566 S
Mg711 O710 1.926 . S
Mg711 O725 1.984 . S
Mg711 O728 1.988 1_556 S
Mg711 O729 2.061 . S
Mg712 O710 1.986 1_544 S
Mg712 O720 2.238 . S
Mg712 O724 2.042 1_544 S
Mg712 O726 2.041 1_545 S
Mg712 O733 2.038 1_554 S
C713 O719 1.247 . S
C713 O720 1.289 . S
C714 O732 1.245 . S
C714 O733 1.274 . S
O715 C703 1.241 . S
O715 Mg708 2.042 1_544 S
O716 C703 1.280 . S
O716 Mg706 1.984 . S
O717 C704 1.277 . S
O717 Mg708 2.041 1_545 S
O718 C704 1.245 . S
O718 Mg706 1.988 1_556 S
O719 Mg706 2.061 . S
O719 C713 1.247 . S
O720 Mg709 2.109 . S
O720 Mg712 2.238 . S
O720 C713 1.289 . S
C721 O722 1.245 . S
C721 O723 1.274 . S
O722 Mg709 2.079 1_565 S
O722 C721 1.245 . S
O723 Mg708 2.038 1_554 S
O723 C721 1.274 . S
O724 Mg712 2.042 1_566 S
O724 C727 1.241 . S
O725 Mg711 1.984 . S
O725 C727 1.280 . S
O726 Mg712 2.041 1_565 S
O726 C730 1.277 . S
C727 O724 1.241 . S
C727 O725 1.280 . S
O728 Mg711 1.988 1_554 S
O728 C730 1.245 . S
O729 C705 1.247 . S
O729 Mg711 2.061 . S
C730 O726 1.277 . S
C730 O728 1.245 . S
O731 C705 1.289 . S
O731 Mg708 2.238 . S
O731 Mg709 2.104 1_566 S
O732 Mg709 2.078 1_556 S
O732 C714 1.245 . S
O733 Mg712 2.038 1_556 S
O733 C714 1.274 . S
C734 O746 1.241 . S
C734 O747 1.280 . S
C735 O748 1.277 . S
C735 O749 1.245 . S
C736 O760 1.247 . S
C736 O762 1.289 . S
Mg737 O738 1.924 . S
Mg737 O747 2.013 . S
Mg737 O749 1.999 1_554 S
Mg737 O750 2.032 1_655 S
O738 Mg737 1.924 . S
O738 Mg739 1.986 1_554 S
O738 Mg740 1.895 1_655 S
Mg739 O738 1.986 1_556 S
Mg739 O746 2.042 1_556 S
Mg739 O748 2.041 . S
Mg739 O754 2.038 1_556 S
Mg739 O762 2.238 . S
Mg740 O738 1.895 1_455 S
Mg740 O741 1.939 1_554 S
Mg740 O751 2.126 . S
Mg740 O753 2.075 1_455 S
Mg740 O762 2.087 1_454 S
Mg740 O763 2.082 1_554 S
O741 Mg740 1.939 1_556 S
O741 Mg742 1.926 . S
O741 Mg743 1.986 1_556 S
Mg742 O741 1.926 . S
Mg742 O756 1.984 . S
Mg742 O759 1.988 1_556 S
Mg742 O760 2.061 1_455 S
Mg743 O741 1.986 1_554 S
Mg743 O751 2.238 . S
Mg743 O755 2.042 1_554 S
Mg743 O757 2.041 . S
Mg743 O764 2.038 1_554 S
C744 O750 1.247 . S
C744 O751 1.289 . S
C745 O763 1.245 . S
C745 O764 1.274 . S
O746 C734 1.241 . S
O746 Mg739 2.042 1_554 S
O747 C734 1.280 . S
O747 Mg737 2.013 . S
O748 C735 1.277 . S
O748 Mg739 2.041 . S
O749 C735 1.245 . S
O749 Mg737 1.999 1_556 S
O750 Mg737 2.032 1_455 S
O750 C744 1.247 . S
O751 Mg740 2.126 . S
O751 Mg743 2.238 . S
O751 C744 1.289 . S
C752 O753 1.245 . S
C752 O754 1.274 . S
O753 Mg740 2.075 1_655 S
O753 C752 1.245 . S
O754 Mg739 2.038 1_554 S
O754 C752 1.274 . S
O755 Mg743 2.042 1_556 S
O755 C758 1.241 . S
O756 Mg742 1.984 . S
O756 C758 1.280 . S
O757 Mg743 2.041 . S
O757 C761 1.277 . S
C758 O755 1.241 . S
C758 O756 1.280 . S
O759 Mg742 1.988 1_554 S
O759 C761 1.245 . S
O760 C736 1.247 . S
O760 Mg742 2.061 1_655 S
C761 O757 1.277 . S
C761 O759 1.245 . S
O762 C736 1.289 . S
O762 Mg739 2.238 . S
O762 Mg740 2.087 1_656 S
O763 Mg740 2.082 1_556 S
O763 C745 1.245 . S
O764 Mg743 2.038 1_556 S
O764 C745 1.274 . S
C765 O777 1.241 . S
C765 O778 1.280 . S
C766 O779 1.277 . S
C766 O780 1.245 . S
C767 O791 1.247 . S
C767 O793 1.289 . S
Mg768 O769 1.926 . S
Mg768 O778 1.984 . S
Mg768 O780 1.988 1_554 S
Mg768 O781 2.061 . S
O769 Mg768 1.926 . S
O769 Mg770 1.986 1_554 S
O769 Mg771 1.918 . S
Mg770 O769 1.986 1_556 S
Mg770 O777 2.042 1_556 S
Mg770 O779 2.041 . S
Mg770 O785 2.038 1_556 S
Mg770 O793 2.238 . S
Mg771 O769 1.918 . S
Mg771 O772 1.916 1_554 S
Mg771 O782 2.108 . S
Mg771 O784 2.082 . S
Mg771 O793 2.105 1_554 S
Mg771 O794 2.076 1_554 S
O772 Mg771 1.916 1_556 S
O772 Mg773 1.926 . S
O772 Mg774 1.986 1_556 S
Mg773 O772 1.926 . S
Mg773 O787 1.984 . S
Mg773 O790 1.988 1_556 S
Mg773 O791 2.061 . S
Mg774 O772 1.986 1_554 S
Mg774 O782 2.238 . S
Mg774 O786 2.042 1_554 S
Mg774 O788 2.041 . S
Mg774 O795 2.038 1_554 S
C775 O781 1.247 . S
C775 O782 1.289 . S
C776 O794 1.245 . S
C776 O795 1.274 . S
O777 C765 1.241 . S
O777 Mg770 2.042 1_554 S
O778 C765 1.280 . S
O778 Mg768 1.984 . S
O779 C766 1.277 . S
O779 Mg770 2.041 . S
O780 C766 1.245 . S
O780 Mg768 1.988 1_556 S
O781 Mg768 2.061 . S
O781 C775 1.247 . S
O782 Mg771 2.108 . S
O782 Mg774 2.238 . S
O782 C775 1.289 . S
C783 O784 1.245 . S
C783 O785 1.274 . S
O784 Mg771 2.082 . S
O784 C783 1.245 . S
O785 Mg770 2.038 1_554 S
O785 C783 1.274 . S
O786 Mg774 2.042 1_556 S
O786 C789 1.241 . S
O787 Mg773 1.984 . S
O787 C789 1.280 . S
O788 Mg774 2.041 . S
O788 C792 1.277 . S
C789 O786 1.241 . S
C789 O787 1.280 . S
O790 Mg773 1.988 1_554 S
O790 C792 1.245 . S
O791 C767 1.247 . S
O791 Mg773 2.061 . S
C792 O788 1.277 . S
C792 O790 1.245 . S
O793 C767 1.289 . S
O793 Mg770 2.238 . S
O793 Mg771 2.105 1_556 S
O794 Mg771 2.076 1_556 S
O794 C776 1.245 . S
O795 Mg774 2.038 1_556 S
O795 C776 1.274 . S
C796 O808 1.241 . S
C796 O809 1.280 . S
C797 O810 1.277 . S
C797 O811 1.245 . S
C798 O822 1.247 . S
C798 O824 1.289 . S
Mg799 O800 1.924 . S
Mg799 O809 2.013 . S
Mg799 O811 1.998 . S
Mg799 O812 2.032 1_655 S
O800 Mg799 1.924 . S
O800 Mg801 1.986 . S
O800 Mg802 1.893 1_655 S
Mg801 O800 1.986 . S
Mg801 O808 2.042 . S
Mg801 O810 2.041 . S
Mg801 O816 2.038 . S
Mg801 O824 2.238 . S
Mg802 O800 1.893 1_455 S
Mg802 O803 1.941 . S
Mg802 O813 2.124 . S
Mg802 O815 2.073 1_455 S
Mg802 O824 2.089 1_455 S
Mg802 O825 2.085 . S
O803 Mg802 1.941 . S
O803 Mg804 1.926 . S
O803 Mg805 1.986 . S
Mg804 O803 1.926 . S
Mg804 O818 1.984 . S
Mg804 O821 1.988 . S
Mg804 O822 2.061 1_455 S
Mg805 O803 1.986 . S
Mg805 O813 2.238 . S
Mg805 O817 2.042 . S
Mg805 O819 2.041 . S
Mg805 O826 2.038 . S
C806 O812 1.247 . S
C806 O813 1.289 . S
C807 O825 1.245 . S
C807 O826 1.274 . S
O808 C796 1.241 . S
O808 Mg801 2.042 . S
O809 C796 1.280 . S
O809 Mg799 2.013 . S
O810 C797 1.277 . S
O810 Mg801 2.041 . S
O811 C797 1.245 . S
O811 Mg799 1.998 . S
O812 Mg799 2.032 1_455 S
O812 C806 1.247 . S
O813 Mg802 2.124 . S
O813 Mg805 2.238 . S
O813 C806 1.289 . S
C814 O815 1.245 . S
C814 O816 1.274 . S
O815 Mg802 2.073 1_655 S
O815 C814 1.245 . S
O816 Mg801 2.038 . S
O816 C814 1.274 . S
O817 Mg805 2.042 . S
O817 C820 1.241 . S
O818 Mg804 1.984 . S
O818 C820 1.280 . S
O819 Mg805 2.041 . S
O819 C823 1.277 . S
C820 O817 1.241 . S
C820 O818 1.280 . S
O821 Mg804 1.988 . S
O821 C823 1.245 . S
O822 C798 1.247 . S
O822 Mg804 2.061 1_655 S
C823 O819 1.277 . S
C823 O821 1.245 . S
O824 C798 1.289 . S
O824 Mg801 2.238 . S
O824 Mg802 2.089 1_655 S
O825 Mg802 2.085 . S
O825 C807 1.245 . S
O826 Mg805 2.038 . S
O826 C807 1.274 . S
C827 O839 1.241 . S
C827 O840 1.280 . S
C828 O841 1.277 . S
C828 O842 1.245 . S
C829 O853 1.247 . S
C829 O855 1.289 . S
Mg830 O831 1.926 . S
Mg830 O840 1.984 . S
Mg830 O842 1.988 . S
Mg830 O843 2.061 . S
O831 Mg830 1.926 . S
O831 Mg832 1.986 1_545 S
O831 Mg833 1.922 . S
Mg832 O831 1.986 1_565 S
Mg832 O839 2.042 1_565 S
Mg832 O841 2.041 1_565 S
Mg832 O847 2.038 . S
Mg832 O855 2.238 . S
Mg833 O831 1.922 . S
Mg833 O834 1.912 1_545 S
Mg833 O844 2.107 . S
Mg833 O846 2.076 1_545 S
Mg833 O855 2.105 1_545 S
Mg833 O856 2.081 . S
O834 Mg833 1.912 1_565 S
O834 Mg835 1.926 . S
O834 Mg836 1.986 1_565 S
Mg835 O834 1.926 . S
Mg835 O849 1.984 . S
Mg835 O852 1.988 . S
Mg835 O853 2.061 . S
Mg836 O834 1.986 1_545 S
Mg836 O844 2.238 . S
Mg836 O848 2.042 1_545 S
Mg836 O850 2.041 1_545 S
Mg836 O857 2.038 . S
C837 O843 1.247 . S
C837 O844 1.289 . S
C838 O856 1.245 . S
C838 O857 1.274 . S
O839 C827 1.241 . S
O839 Mg832 2.042 1_545 S
O840 C827 1.280 . S
O840 Mg830 1.984 . S
O841 C828 1.277 . S
O841 Mg832 2.041 1_545 S
O842 C828 1.245 . S
O842 Mg830 1.988 . S
O843 Mg830 2.061 . S
O843 C837 1.247 . S
O844 Mg833 2.107 . S
O844 Mg836 2.238 . S
O844 C837 1.289 . S
C845 O846 1.245 . S
C845 O847 1.274 . S
O846 Mg833 2.076 1_565 S
O846 C845 1.245 . S
O847 Mg832 2.038 . S
O847 C845 1.274 . S
O848 Mg836 2.042 1_565 S
O848 C851 1.241 . S
O849 Mg835 1.984 . S
O849 C851 1.280 . S
O850 Mg836 2.041 1_565 S
O850 C854 1.277 . S
C851 O848 1.241 . S
C851 O849 1.280 . S
O852 Mg835 1.988 . S
O852 C854 1.245 . S
O853 C829 1.247 . S
O853 Mg835 2.061 . S
C854 O850 1.277 . S
C854 O852 1.245 . S
O855 C829 1.289 . S
O855 Mg832 2.238 . S
O855 Mg833 2.105 1_565 S
O856 Mg833 2.081 . S
O856 C838 1.245 . S
O857 Mg836 2.038 . S
O857 C838 1.274 . S
H858 C864 0.930 . S
H859 C868 0.930 . S
H860 C873 0.929 . S
H861 C871 0.929 . S
H862 C866 0.929 . S
H863 C872 0.929 . S
C864 H858 0.930 . S
C864 C865 1.367 . S
C864 C872 1.378 . S
C865 C864 1.367 . S
C865 C873 1.433 . S
C866 H862 0.929 . S
C866 C868 1.378 . S
C866 C870 1.350 . S
C867 C870 1.463 . S
C867 C872 1.350 . S
C867 N875 1.427 . S
C868 H859 0.930 . S
C868 C866 1.378 . S
C868 C869 1.367 . S
C869 C868 1.367 . S
C869 C871 1.433 . S
C870 C866 1.350 . S
C870 C867 1.463 . S
C870 N874 1.427 . S
C871 H861 0.929 . S
C871 C869 1.433 . S
C871 N874 1.384 . S
C872 H863 0.929 . S
C872 C864 1.378 . S
C872 C867 1.350 . S
C873 H860 0.929 . S
C873 C865 1.433 . S
C873 N875 1.384 . S
N874 C870 1.427 . S
N874 C871 1.384 . S
N875 C867 1.427 . S
N875 C873 1.384 . S
H876 C882 0.930 . S
H877 C886 0.930 . S
H878 C891 0.929 . S
H879 C889 0.929 . S
H880 C884 0.929 . S
H881 C890 0.929 . S
C882 H876 0.930 . S
C882 C883 1.367 . S
C882 C890 1.378 . S
C883 C882 1.367 . S
C883 C891 1.433 . S
C884 H880 0.929 . S
C884 C886 1.378 . S
C884 C888 1.350 . S
C885 C888 1.463 . S
C885 C890 1.350 . S
C885 N893 1.427 . S
C886 H877 0.930 . S
C886 C884 1.378 . S
C886 C887 1.367 . S
C887 C886 1.367 . S
C887 C889 1.433 . S
C888 C884 1.350 . S
C888 C885 1.463 . S
C888 N892 1.427 . S
C889 H879 0.929 . S
C889 C887 1.433 . S
C889 N892 1.384 . S
C890 H881 0.929 . S
C890 C882 1.378 . S
C890 C885 1.350 . S
C891 H878 0.929 . S
C891 C883 1.433 . S
C891 N893 1.384 . S
N892 C888 1.427 . S
N892 C889 1.384 . S
N893 C885 1.427 . S
N893 C891 1.384 . S
H894 C900 0.930 . S
H895 C904 0.930 . S
H896 C909 0.929 . S
H897 C907 0.929 . S
H898 C902 0.929 . S
H899 C908 0.929 . S
C900 H894 0.930 . S
C900 C901 1.367 . S
C900 C908 1.378 . S
C901 C900 1.367 . S
C901 C909 1.433 . S
C902 H898 0.929 . S
C902 C904 1.378 . S
C902 C906 1.350 . S
C903 C906 1.463 . S
C903 C908 1.350 . S
C903 N911 1.427 . S
C904 H895 0.930 . S
C904 C902 1.378 . S
C904 C905 1.367 . S
C905 C904 1.367 . S
C905 C907 1.433 . S
C906 C902 1.350 . S
C906 C903 1.463 . S
C906 N910 1.427 . S
C907 H897 0.929 . S
C907 C905 1.433 . S
C907 N910 1.384 . S
C908 H899 0.929 . S
C908 C900 1.378 . S
C908 C903 1.350 . S
C909 H896 0.929 . S
C909 C901 1.433 . S
C909 N911 1.384 . S
N910 C906 1.427 . S
N910 C907 1.384 . S
N911 C903 1.427 . S
N911 C909 1.384 . S
H912 C918 0.930 . S
H913 C922 0.930 . S
H914 C927 0.929 . S
H915 C925 0.929 . S
H916 C920 0.929 . S
H917 C926 0.929 . S
C918 H912 0.930 . S
C918 C919 1.367 . S
C918 C926 1.378 . S
C919 C918 1.367 . S
C919 C927 1.433 . S
C920 H916 0.929 . S
C920 C922 1.378 . S
C920 C924 1.350 . S
C921 C924 1.463 . S
C921 C926 1.350 . S
C921 N929 1.427 . S
C922 H913 0.930 . S
C922 C920 1.378 . S
C922 C923 1.367 . S
C923 C922 1.367 . S
C923 C925 1.433 . S
C924 C920 1.350 . S
C924 C921 1.463 . S
C924 N928 1.427 . S
C925 H915 0.929 . S
C925 C923 1.433 . S
C925 N928 1.384 . S
C926 H917 0.929 . S
C926 C918 1.378 . S
C926 C921 1.350 . S
C927 H914 0.929 . S
C927 C919 1.433 . S
C927 N929 1.384 . S
N928 C924 1.427 . S
N928 C925 1.384 . S
N929 C921 1.427 . S
N929 C927 1.384 . S
H930 C936 0.930 . S
H931 C940 0.930 . S
H932 C945 0.929 . S
H933 C943 0.929 . S
H934 C938 0.929 . S
H935 C944 0.929 . S
C936 H930 0.930 . S
C936 C937 1.367 . S
C936 C944 1.378 . S
C937 C936 1.367 . S
C937 C945 1.433 . S
C938 H934 0.929 . S
C938 C940 1.378 . S
C938 C942 1.350 . S
C939 C942 1.463 . S
C939 C944 1.350 . S
C939 N947 1.427 . S
C940 H931 0.930 . S
C940 C938 1.378 . S
C940 C941 1.367 . S
C941 C940 1.367 . S
C941 C943 1.433 . S
C942 C938 1.350 . S
C942 C939 1.463 . S
C942 N946 1.427 . S
C943 H933 0.929 . S
C943 C941 1.433 . S
C943 N946 1.384 . S
C944 H935 0.929 . S
C944 C936 1.378 . S
C944 C939 1.350 . S
C945 H932 0.929 . S
C945 C937 1.433 . S
C945 N947 1.384 . S
N946 C942 1.427 . S
N946 C943 1.384 . S
N947 C939 1.427 . S
N947 C945 1.384 . S
H948 C954 0.930 . S
H949 C958 0.930 . S
H950 C963 0.929 . S
H951 C961 0.929 . S
H952 C956 0.929 . S
H953 C962 0.929 . S
C954 H948 0.930 . S
C954 C955 1.367 . S
C954 C962 1.378 . S
C955 C954 1.367 . S
C955 C963 1.433 . S
C956 H952 0.929 . S
C956 C958 1.378 . S
C956 C960 1.350 . S
C957 C960 1.463 . S
C957 C962 1.350 . S
C957 N965 1.427 . S
C958 H949 0.930 . S
C958 C956 1.378 . S
C958 C959 1.367 . S
C959 C958 1.367 . S
C959 C961 1.433 . S
C960 C956 1.350 . S
C960 C957 1.463 . S
C960 N964 1.427 . S
C961 H951 0.929 . S
C961 C959 1.433 . S
C961 N964 1.384 . S
C962 H953 0.929 . S
C962 C954 1.378 . S
C962 C957 1.350 . S
C963 H950 0.929 . S
C963 C955 1.433 . S
C963 N965 1.384 . S
N964 C960 1.427 . S
N964 C961 1.384 . S
N965 C957 1.427 . S
N965 C963 1.384 . S
H966 C972 0.930 . S
H967 C976 0.930 . S
H968 C981 0.929 . S
H969 C979 0.929 . S
H970 C974 0.929 . S
H971 C980 0.929 . S
C972 H966 0.930 . S
C972 C973 1.367 . S
C972 C980 1.378 . S
C973 C972 1.367 . S
C973 C981 1.433 . S
C974 H970 0.929 . S
C974 C976 1.378 . S
C974 C978 1.350 . S
C975 C978 1.463 . S
C975 C980 1.350 . S
C975 N983 1.427 . S
C976 H967 0.930 . S
C976 C974 1.378 . S
C976 C977 1.367 . S
C977 C976 1.367 . S
C977 C979 1.433 . S
C978 C974 1.350 . S
C978 C975 1.463 . S
C978 N982 1.427 . S
C979 H969 0.929 . S
C979 C977 1.433 . S
C979 N982 1.384 . S
C980 H971 0.929 . S
C980 C972 1.378 . S
C980 C975 1.350 . S
C981 H968 0.929 . S
C981 C973 1.433 . S
C981 N983 1.384 . S
N982 C978 1.427 . S
N982 C979 1.384 . S
N983 C975 1.427 . S
N983 C981 1.384 . S
H984 C990 0.930 . S
H985 C994 0.930 . S
H986 C999 0.929 . S
H987 C997 0.929 . S
H988 C992 0.929 . S
H989 C998 0.929 . S
C990 H984 0.930 . S
C990 C991 1.367 . S
C990 C998 1.378 . S
C991 C990 1.367 . S
C991 C999 1.433 . S
C992 H988 0.929 . S
C992 C994 1.378 . S
C992 C996 1.350 . S
C993 C996 1.463 . S
C993 C998 1.350 . S
C993 N1001 1.427 . S
C994 H985 0.930 . S
C994 C992 1.378 . S
C994 C995 1.367 . S
C995 C994 1.367 . S
C995 C997 1.433 . S
C996 C992 1.350 . S
C996 C993 1.463 . S
C996 N1000 1.427 . S
C997 H987 0.929 . S
C997 C995 1.433 . S
C997 N1000 1.384 . S
C998 H989 0.929 . S
C998 C990 1.378 . S
C998 C993 1.350 . S
C999 H986 0.929 . S
C999 C991 1.433 . S
C999 N1001 1.384 . S
N1000 C996 1.427 . S
N1000 C997 1.384 . S
N1001 C993 1.427 . S
N1001 C999 1.384 . S
H1002 C1008 0.930 . S
H1003 C1012 0.930 . S
H1004 C1017 0.929 . S
H1005 C1015 0.929 . S
H1006 C1010 0.929 . S
H1007 C1016 0.929 . S
C1008 H1002 0.930 . S
C1008 C1009 1.367 . S
C1008 C1016 1.378 . S
C1009 C1008 1.367 . S
C1009 C1017 1.433 . S
C1010 H1006 0.929 . S
C1010 C1012 1.378 . S
C1010 C1014 1.350 . S
C1011 C1014 1.463 . S
C1011 C1016 1.350 . S
C1011 N1019 1.427 . S
C1012 H1003 0.930 . S
C1012 C1010 1.378 . S
C1012 C1013 1.367 . S
C1013 C1012 1.367 . S
C1013 C1015 1.433 . S
C1014 C1010 1.350 . S
C1014 C1011 1.463 . S
C1014 N1018 1.427 . S
C1015 H1005 0.929 . S
C1015 C1013 1.433 . S
C1015 N1018 1.384 . S
C1016 H1007 0.929 . S
C1016 C1008 1.378 . S
C1016 C1011 1.350 . S
C1017 H1004 0.929 . S
C1017 C1009 1.433 . S
C1017 N1019 1.384 . S
N1018 C1014 1.427 . S
N1018 C1015 1.384 . S
N1019 C1011 1.427 . S
N1019 C1017 1.384 . S
H1020 C1026 0.930 . S
H1021 C1030 0.930 . S
H1022 C1035 0.929 . S
H1023 C1033 0.929 . S
H1024 C1028 0.929 . S
H1025 C1034 0.929 . S
C1026 H1020 0.930 . S
C1026 C1027 1.367 . S
C1026 C1034 1.378 . S
C1027 C1026 1.367 . S
C1027 C1035 1.433 . S
C1028 H1024 0.929 . S
C1028 C1030 1.378 . S
C1028 C1032 1.350 . S
C1029 C1032 1.463 . S
C1029 C1034 1.350 . S
C1029 N1037 1.427 . S
C1030 H1021 0.930 . S
C1030 C1028 1.378 . S
C1030 C1031 1.367 . S
C1031 C1030 1.367 . S
C1031 C1033 1.433 . S
C1032 C1028 1.350 . S
C1032 C1029 1.463 . S
C1032 N1036 1.427 . S
C1033 H1023 0.929 . S
C1033 C1031 1.433 . S
C1033 N1036 1.384 . S
C1034 H1025 0.929 . S
C1034 C1026 1.378 . S
C1034 C1029 1.350 . S
C1035 H1022 0.929 . S
C1035 C1027 1.433 . S
C1035 N1037 1.384 . S
N1036 C1032 1.427 . S
N1036 C1033 1.384 . S
N1037 C1029 1.427 . S
N1037 C1035 1.384 . S
H1038 C1044 0.930 . S
H1039 C1048 0.930 . S
H1040 C1053 0.929 . S
H1041 C1051 0.929 . S
H1042 C1046 0.929 . S
H1043 C1052 0.929 . S
C1044 H1038 0.930 . S
C1044 C1045 1.367 . S
C1044 C1052 1.378 . S
C1045 C1044 1.367 . S
C1045 C1053 1.433 . S
C1046 H1042 0.929 . S
C1046 C1048 1.378 . S
C1046 C1050 1.350 . S
C1047 C1050 1.463 . S
C1047 C1052 1.350 . S
C1047 N1055 1.427 . S
C1048 H1039 0.930 . S
C1048 C1046 1.378 . S
C1048 C1049 1.367 . S
C1049 C1048 1.367 . S
C1049 C1051 1.433 . S
C1050 C1046 1.350 . S
C1050 C1047 1.463 . S
C1050 N1054 1.427 . S
C1051 H1041 0.929 . S
C1051 C1049 1.433 . S
C1051 N1054 1.384 . S
C1052 H1043 0.929 . S
C1052 C1044 1.378 . S
C1052 C1047 1.350 . S
C1053 H1040 0.929 . S
C1053 C1045 1.433 . S
C1053 N1055 1.384 . S
N1054 C1050 1.427 . S
N1054 C1051 1.384 . S
N1055 C1047 1.427 . S
N1055 C1053 1.384 . S
H1056 C1062 0.930 . S
H1057 C1066 0.930 . S
H1058 C1071 0.929 . S
H1059 C1069 0.929 . S
H1060 C1064 0.929 . S
H1061 C1070 0.929 . S
C1062 H1056 0.930 . S
C1062 C1063 1.367 . S
C1062 C1070 1.378 . S
C1063 C1062 1.367 . S
C1063 C1071 1.433 . S
C1064 H1060 0.929 . S
C1064 C1066 1.378 . S
C1064 C1068 1.350 . S
C1065 C1068 1.463 . S
C1065 C1070 1.350 . S
C1065 N1073 1.427 . S
C1066 H1057 0.930 . S
C1066 C1064 1.378 . S
C1066 C1067 1.367 . S
C1067 C1066 1.367 . S
C1067 C1069 1.433 . S
C1068 C1064 1.350 . S
C1068 C1065 1.463 . S
C1068 N1072 1.427 . S
C1069 H1059 0.929 . S
C1069 C1067 1.433 . S
C1069 N1072 1.384 . S
C1070 H1061 0.929 . S
C1070 C1062 1.378 . S
C1070 C1065 1.350 . S
C1071 H1058 0.929 . S
C1071 C1063 1.433 . S
C1071 N1073 1.384 . S
N1072 C1068 1.427 . S
N1072 C1069 1.384 . S
N1073 C1065 1.427 . S
N1073 C1071 1.384 . S
H1074 C1080 0.930 . S
H1075 C1084 0.930 . S
H1076 C1089 0.929 . S
H1077 C1087 0.929 . S
H1078 C1082 0.929 . S
H1079 C1088 0.929 . S
C1080 H1074 0.930 . S
C1080 C1081 1.367 . S
C1080 C1088 1.378 . S
C1081 C1080 1.367 . S
C1081 C1089 1.433 . S
C1082 H1078 0.929 . S
C1082 C1084 1.378 . S
C1082 C1086 1.350 . S
C1083 C1086 1.463 . S
C1083 C1088 1.350 . S
C1083 N1091 1.427 . S
C1084 H1075 0.930 . S
C1084 C1082 1.378 . S
C1084 C1085 1.367 . S
C1085 C1084 1.367 . S
C1085 C1087 1.433 . S
C1086 C1082 1.350 . S
C1086 C1083 1.463 . S
C1086 N1090 1.427 . S
C1087 H1077 0.929 . S
C1087 C1085 1.433 . S
C1087 N1090 1.384 . S
C1088 H1079 0.929 . S
C1088 C1080 1.378 . S
C1088 C1083 1.350 . S
C1089 H1076 0.929 . S
C1089 C1081 1.433 . S
C1089 N1091 1.384 . S
N1090 C1086 1.427 . S
N1090 C1087 1.384 . S
N1091 C1083 1.427 . S
N1091 C1089 1.384 . S
H1092 C1098 0.930 . S
H1093 C1102 0.930 . S
H1094 C1107 0.929 . S
H1095 C1105 0.929 . S
H1096 C1100 0.929 . S
H1097 C1106 0.929 . S
C1098 H1092 0.930 . S
C1098 C1099 1.367 . S
C1098 C1106 1.378 . S
C1099 C1098 1.367 . S
C1099 C1107 1.433 . S
C1100 H1096 0.929 . S
C1100 C1102 1.378 . S
C1100 C1104 1.350 . S
C1101 C1104 1.463 . S
C1101 C1106 1.350 . S
C1101 N1109 1.427 . S
C1102 H1093 0.930 . S
C1102 C1100 1.378 . S
C1102 C1103 1.367 . S
C1103 C1102 1.367 . S
C1103 C1105 1.433 . S
C1104 C1100 1.350 . S
C1104 C1101 1.463 . S
C1104 N1108 1.427 . S
C1105 H1095 0.929 . S
C1105 C1103 1.433 . S
C1105 N1108 1.384 . S
C1106 H1097 0.929 . S
C1106 C1098 1.378 . S
C1106 C1101 1.350 . S
C1107 H1094 0.929 . S
C1107 C1099 1.433 . S
C1107 N1109 1.384 . S
N1108 C1104 1.427 . S
N1108 C1105 1.384 . S
N1109 C1101 1.427 . S
N1109 C1107 1.384 . S
H1110 C1116 0.930 . S
H1111 C1120 0.930 . S
H1112 C1125 0.929 . S
H1113 C1123 0.929 . S
H1114 C1118 0.929 . S
H1115 C1124 0.929 . S
C1116 H1110 0.930 . S
C1116 C1117 1.367 . S
C1116 C1124 1.378 . S
C1117 C1116 1.367 . S
C1117 C1125 1.433 . S
C1118 H1114 0.929 . S
C1118 C1120 1.378 . S
C1118 C1122 1.350 . S
C1119 C1122 1.463 . S
C1119 C1124 1.350 . S
C1119 N1127 1.427 . S
C1120 H1111 0.930 . S
C1120 C1118 1.378 . S
C1120 C1121 1.367 . S
C1121 C1120 1.367 . S
C1121 C1123 1.433 . S
C1122 C1118 1.350 . S
C1122 C1119 1.463 . S
C1122 N1126 1.427 . S
C1123 H1113 0.929 . S
C1123 C1121 1.433 . S
C1123 N1126 1.384 . S
C1124 H1115 0.929 . S
C1124 C1116 1.378 . S
C1124 C1119 1.350 . S
C1125 H1112 0.929 . S
C1125 C1117 1.433 . S
C1125 N1127 1.384 . S
N1126 C1122 1.427 . S
N1126 C1123 1.384 . S
N1127 C1119 1.427 . S
N1127 C1125 1.384 . S
H1128 C1134 0.930 . S
H1129 C1138 0.930 . S
H1130 C1143 0.929 . S
H1131 C1141 0.929 . S
H1132 C1136 0.929 . S
H1133 C1142 0.929 . S
C1134 H1128 0.930 . S
C1134 C1135 1.367 . S
C1134 C1142 1.378 . S
C1135 C1134 1.367 . S
C1135 C1143 1.433 . S
C1136 H1132 0.929 . S
C1136 C1138 1.378 . S
C1136 C1140 1.350 . S
C1137 C1140 1.463 . S
C1137 C1142 1.350 . S
C1137 N1145 1.427 . S
C1138 H1129 0.930 . S
C1138 C1136 1.378 . S
C1138 C1139 1.367 . S
C1139 C1138 1.367 . S
C1139 C1141 1.433 . S
C1140 C1136 1.350 . S
C1140 C1137 1.463 . S
C1140 N1144 1.427 . S
C1141 H1131 0.929 . S
C1141 C1139 1.433 . S
C1141 N1144 1.384 . S
C1142 H1133 0.929 . S
C1142 C1134 1.378 . S
C1142 C1137 1.350 . S
C1143 H1130 0.929 . S
C1143 C1135 1.433 . S
C1143 N1145 1.384 . S
N1144 C1140 1.427 . S
N1144 C1141 1.384 . S
N1145 C1137 1.427 . S
N1145 C1143 1.384 . S
H1146 C1152 0.930 . S
H1147 C1156 0.930 . S
H1148 C1161 0.929 . S
H1149 C1159 0.929 . S
H1150 C1154 0.929 . S
H1151 C1160 0.929 . S
C1152 H1146 0.930 . S
C1152 C1153 1.367 . S
C1152 C1160 1.378 . S
C1153 C1152 1.367 . S
C1153 C1161 1.433 . S
C1154 H1150 0.929 . S
C1154 C1156 1.378 . S
C1154 C1158 1.350 . S
C1155 C1158 1.463 . S
C1155 C1160 1.350 . S
C1155 N1163 1.427 . S
C1156 H1147 0.930 . S
C1156 C1154 1.378 . S
C1156 C1157 1.367 . S
C1157 C1156 1.367 . S
C1157 C1159 1.433 . S
C1158 C1154 1.350 . S
C1158 C1155 1.463 . S
C1158 N1162 1.427 . S
C1159 H1149 0.929 . S
C1159 C1157 1.433 . S
C1159 N1162 1.384 . S
C1160 H1151 0.929 . S
C1160 C1152 1.378 . S
C1160 C1155 1.350 . S
C1161 H1148 0.929 . S
C1161 C1153 1.433 . S
C1161 N1163 1.384 . S
N1162 C1158 1.427 . S
N1162 C1159 1.384 . S
N1163 C1155 1.427 . S
N1163 C1161 1.384 . S
H1164 C1170 0.930 . S
H1165 C1174 0.930 . S
H1166 C1179 0.929 . S
H1167 C1177 0.929 . S
H1168 C1172 0.929 . S
H1169 C1178 0.929 . S
C1170 H1164 0.930 . S
C1170 C1171 1.367 . S
C1170 C1178 1.378 . S
C1171 C1170 1.367 . S
C1171 C1179 1.433 . S
C1172 H1168 0.929 . S
C1172 C1174 1.378 . S
C1172 C1176 1.350 . S
C1173 C1176 1.463 . S
C1173 C1178 1.350 . S
C1173 N1181 1.427 . S
C1174 H1165 0.930 . S
C1174 C1172 1.378 . S
C1174 C1175 1.367 . S
C1175 C1174 1.367 . S
C1175 C1177 1.433 . S
C1176 C1172 1.350 . S
C1176 C1173 1.463 . S
C1176 N1180 1.427 . S
C1177 H1167 0.929 . S
C1177 C1175 1.433 . S
C1177 N1180 1.384 . S
C1178 H1169 0.929 . S
C1178 C1170 1.378 . S
C1178 C1173 1.350 . S
C1179 H1166 0.929 . S
C1179 C1171 1.433 . S
C1179 N1181 1.384 . S
N1180 C1176 1.427 . S
N1180 C1177 1.384 . S
N1181 C1173 1.427 . S
N1181 C1179 1.384 . S
H1182 C1188 0.930 . S
H1183 C1192 0.930 . S
H1184 C1197 0.929 . S
H1185 C1195 0.929 . S
H1186 C1190 0.929 . S
H1187 C1196 0.929 . S
C1188 H1182 0.930 . S
C1188 C1189 1.367 . S
C1188 C1196 1.378 . S
C1189 C1188 1.367 . S
C1189 C1197 1.433 . S
C1190 H1186 0.929 . S
C1190 C1192 1.378 . S
C1190 C1194 1.350 . S
C1191 C1194 1.463 . S
C1191 C1196 1.350 . S
C1191 N1199 1.427 . S
C1192 H1183 0.930 . S
C1192 C1190 1.378 . S
C1192 C1193 1.367 . S
C1193 C1192 1.367 . S
C1193 C1195 1.433 . S
C1194 C1190 1.350 . S
C1194 C1191 1.463 . S
C1194 N1198 1.427 . S
C1195 H1185 0.929 . S
C1195 C1193 1.433 . S
C1195 N1198 1.384 . S
C1196 H1187 0.929 . S
C1196 C1188 1.378 . S
C1196 C1191 1.350 . S
C1197 H1184 0.929 . S
C1197 C1189 1.433 . S
C1197 N1199 1.384 . S
N1198 C1194 1.427 . S
N1198 C1195 1.384 . S
N1199 C1191 1.427 . S
N1199 C1197 1.384 . S
H1200 C1206 0.930 . S
H1201 C1210 0.930 . S
H1202 C1215 0.929 . S
H1203 C1213 0.929 . S
H1204 C1208 0.929 . S
H1205 C1214 0.929 . S
C1206 H1200 0.930 . S
C1206 C1207 1.367 . S
C1206 C1214 1.378 . S
C1207 C1206 1.367 . S
C1207 C1215 1.433 . S
C1208 H1204 0.929 . S
C1208 C1210 1.378 . S
C1208 C1212 1.350 . S
C1209 C1212 1.463 . S
C1209 C1214 1.350 . S
C1209 N1217 1.427 . S
C1210 H1201 0.930 . S
C1210 C1208 1.378 . S
C1210 C1211 1.367 . S
C1211 C1210 1.367 . S
C1211 C1213 1.433 . S
C1212 C1208 1.350 . S
C1212 C1209 1.463 . S
C1212 N1216 1.427 . S
C1213 H1203 0.929 . S
C1213 C1211 1.433 . S
C1213 N1216 1.384 . S
C1214 H1205 0.929 . S
C1214 C1206 1.378 . S
C1214 C1209 1.350 . S
C1215 H1202 0.929 . S
C1215 C1207 1.433 . S
C1215 N1217 1.384 . S
N1216 C1212 1.427 . S
N1216 C1213 1.384 . S
N1217 C1209 1.427 . S
N1217 C1215 1.384 . S
H1218 C1224 0.930 . S
H1219 C1228 0.930 . S
H1220 C1233 0.929 . S
H1221 C1231 0.929 . S
H1222 C1226 0.929 . S
H1223 C1232 0.929 . S
C1224 H1218 0.930 . S
C1224 C1225 1.367 . S
C1224 C1232 1.378 . S
C1225 C1224 1.367 . S
C1225 C1233 1.433 . S
C1226 H1222 0.929 . S
C1226 C1228 1.378 . S
C1226 C1230 1.350 . S
C1227 C1230 1.463 . S
C1227 C1232 1.350 . S
C1227 N1235 1.427 . S
C1228 H1219 0.930 . S
C1228 C1226 1.378 . S
C1228 C1229 1.367 . S
C1229 C1228 1.367 . S
C1229 C1231 1.433 . S
C1230 C1226 1.350 . S
C1230 C1227 1.463 . S
C1230 N1234 1.427 . S
C1231 H1221 0.929 . S
C1231 C1229 1.433 . S
C1231 N1234 1.384 . S
C1232 H1223 0.929 . S
C1232 C1224 1.378 . S
C1232 C1227 1.350 . S
C1233 H1220 0.929 . S
C1233 C1225 1.433 . S
C1233 N1235 1.384 . S
N1234 C1230 1.427 . S
N1234 C1231 1.384 . S
N1235 C1227 1.427 . S
N1235 C1233 1.384 . S
H1236 C1242 0.930 . S
H1237 C1246 0.930 . S
H1238 C1251 0.929 . S
H1239 C1249 0.929 . S
H1240 C1244 0.929 . S
H1241 C1250 0.929 . S
C1242 H1236 0.930 . S
C1242 C1243 1.367 . S
C1242 C1250 1.378 . S
C1243 C1242 1.367 . S
C1243 C1251 1.433 . S
C1244 H1240 0.929 . S
C1244 C1246 1.378 . S
C1244 C1248 1.350 . S
C1245 C1248 1.463 . S
C1245 C1250 1.350 . S
C1245 N1253 1.427 . S
C1246 H1237 0.930 . S
C1246 C1244 1.378 . S
C1246 C1247 1.367 . S
C1247 C1246 1.367 . S
C1247 C1249 1.433 . S
C1248 C1244 1.350 . S
C1248 C1245 1.463 . S
C1248 N1252 1.427 . S
C1249 H1239 0.929 . S
C1249 C1247 1.433 . S
C1249 N1252 1.384 . S
C1250 H1241 0.929 . S
C1250 C1242 1.378 . S
C1250 C1245 1.350 . S
C1251 H1238 0.929 . S
C1251 C1243 1.433 . S
C1251 N1253 1.384 . S
N1252 C1248 1.427 . S
N1252 C1249 1.384 . S
N1253 C1245 1.427 . S
N1253 C1251 1.384 . S
H1254 C1260 0.930 . S
H1255 C1264 0.930 . S
H1256 C1269 0.929 . S
H1257 C1267 0.929 . S
H1258 C1262 0.929 . S
H1259 C1268 0.929 . S
C1260 H1254 0.930 . S
C1260 C1261 1.367 . S
C1260 C1268 1.378 . S
C1261 C1260 1.367 . S
C1261 C1269 1.433 . S
C1262 H1258 0.929 . S
C1262 C1264 1.378 . S
C1262 C1266 1.350 . S
C1263 C1266 1.463 . S
C1263 C1268 1.350 . S
C1263 N1271 1.427 . S
C1264 H1255 0.930 . S
C1264 C1262 1.378 . S
C1264 C1265 1.367 . S
C1265 C1264 1.367 . S
C1265 C1267 1.433 . S
C1266 C1262 1.350 . S
C1266 C1263 1.463 . S
C1266 N1270 1.427 . S
C1267 H1257 0.929 . S
C1267 C1265 1.433 . S
C1267 N1270 1.384 . S
C1268 H1259 0.929 . S
C1268 C1260 1.378 . S
C1268 C1263 1.350 . S
C1269 H1256 0.929 . S
C1269 C1261 1.433 . S
C1269 N1271 1.384 . S
N1270 C1266 1.427 . S
N1270 C1267 1.384 . S
N1271 C1263 1.427 . S
N1271 C1269 1.384 . S
H1272 C1278 0.930 . S
H1273 C1282 0.930 . S
H1274 C1287 0.929 . S
H1275 C1285 0.929 . S
H1276 C1280 0.929 . S
H1277 C1286 0.929 . S
C1278 H1272 0.930 . S
C1278 C1279 1.367 . S
C1278 C1286 1.378 . S
C1279 C1278 1.367 . S
C1279 C1287 1.433 . S
C1280 H1276 0.929 . S
C1280 C1282 1.378 . S
C1280 C1284 1.350 . S
C1281 C1284 1.463 . S
C1281 C1286 1.350 . S
C1281 N1289 1.427 . S
C1282 H1273 0.930 . S
C1282 C1280 1.378 . S
C1282 C1283 1.367 . S
C1283 C1282 1.367 . S
C1283 C1285 1.433 . S
C1284 C1280 1.350 . S
C1284 C1281 1.463 . S
C1284 N1288 1.427 . S
C1285 H1275 0.929 . S
C1285 C1283 1.433 . S
C1285 N1288 1.384 . S
C1286 H1277 0.929 . S
C1286 C1278 1.378 . S
C1286 C1281 1.350 . S
C1287 H1274 0.929 . S
C1287 C1279 1.433 . S
C1287 N1289 1.384 . S
N1288 C1284 1.427 . S
N1288 C1285 1.384 . S
N1289 C1281 1.427 . S
N1289 C1287 1.384 . S
H1290 C1296 0.930 . S
H1291 C1300 0.930 . S
H1292 C1305 0.929 . S
H1293 C1303 0.929 . S
H1294 C1298 0.929 . S
H1295 C1304 0.929 . S
C1296 H1290 0.930 . S
C1296 C1297 1.367 . S
C1296 C1304 1.378 . S
C1297 C1296 1.367 . S
C1297 C1305 1.433 . S
C1298 H1294 0.929 . S
C1298 C1300 1.378 . S
C1298 C1302 1.350 . S
C1299 C1302 1.463 . S
C1299 C1304 1.350 . S
C1299 N1307 1.427 . S
C1300 H1291 0.930 . S
C1300 C1298 1.378 . S
C1300 C1301 1.367 . S
C1301 C1300 1.367 . S
C1301 C1303 1.433 . S
C1302 C1298 1.350 . S
C1302 C1299 1.463 . S
C1302 N1306 1.427 . S
C1303 H1293 0.929 . S
C1303 C1301 1.433 . S
C1303 N1306 1.384 . S
C1304 H1295 0.929 . S
C1304 C1296 1.378 . S
C1304 C1299 1.350 . S
C1305 H1292 0.929 . S
C1305 C1297 1.433 . S
C1305 N1307 1.384 . S
N1306 C1302 1.427 . S
N1306 C1303 1.384 . S
N1307 C1299 1.427 . S
N1307 C1305 1.384 . S
H1308 C1314 0.930 . S
H1309 C1318 0.930 . S
H1310 C1323 0.929 . S
H1311 C1321 0.929 . S
H1312 C1316 0.929 . S
H1313 C1322 0.929 . S
C1314 H1308 0.930 . S
C1314 C1315 1.367 . S
C1314 C1322 1.378 . S
C1315 C1314 1.367 . S
C1315 C1323 1.433 . S
C1316 H1312 0.929 . S
C1316 C1318 1.378 . S
C1316 C1320 1.350 . S
C1317 C1320 1.463 . S
C1317 C1322 1.350 . S
C1317 N1325 1.427 . S
C1318 H1309 0.930 . S
C1318 C1316 1.378 . S
C1318 C1319 1.367 . S
C1319 C1318 1.367 . S
C1319 C1321 1.433 . S
C1320 C1316 1.350 . S
C1320 C1317 1.463 . S
C1320 N1324 1.427 . S
C1321 H1311 0.929 . S
C1321 C1319 1.433 . S
C1321 N1324 1.384 . S
C1322 H1313 0.929 . S
C1322 C1314 1.378 . S
C1322 C1317 1.350 . S
C1323 H1310 0.929 . S
C1323 C1315 1.433 . S
C1323 N1325 1.384 . S
N1324 C1320 1.427 . S
N1324 C1321 1.384 . S
N1325 C1317 1.427 . S
N1325 C1323 1.384 . S
H1326 C1332 0.930 . S
H1327 C1336 0.930 . S
H1328 C1341 0.929 . S
H1329 C1339 0.929 . S
H1330 C1334 0.929 . S
H1331 C1340 0.929 . S
C1332 H1326 0.930 . S
C1332 C1333 1.367 . S
C1332 C1340 1.378 . S
C1333 C1332 1.367 . S
C1333 C1341 1.433 . S
C1334 H1330 0.929 . S
C1334 C1336 1.378 . S
C1334 C1338 1.350 . S
C1335 C1338 1.463 . S
C1335 C1340 1.350 . S
C1335 N1343 1.427 . S
C1336 H1327 0.930 . S
C1336 C1334 1.378 . S
C1336 C1337 1.367 . S
C1337 C1336 1.367 . S
C1337 C1339 1.433 . S
C1338 C1334 1.350 . S
C1338 C1335 1.463 . S
C1338 N1342 1.427 . S
C1339 H1329 0.929 . S
C1339 C1337 1.433 . S
C1339 N1342 1.384 . S
C1340 H1331 0.929 . S
C1340 C1332 1.378 . S
C1340 C1335 1.350 . S
C1341 H1328 0.929 . S
C1341 C1333 1.433 . S
C1341 N1343 1.384 . S
N1342 C1338 1.427 . S
N1342 C1339 1.384 . S
N1343 C1335 1.427 . S
N1343 C1341 1.384 . S
H1344 C1350 0.930 . S
H1345 C1354 0.930 . S
H1346 C1359 0.929 . S
H1347 C1357 0.929 . S
H1348 C1352 0.929 . S
H1349 C1358 0.929 . S
C1350 H1344 0.930 . S
C1350 C1351 1.367 . S
C1350 C1358 1.378 . S
C1351 C1350 1.367 . S
C1351 C1359 1.433 . S
C1352 H1348 0.929 . S
C1352 C1354 1.378 . S
C1352 C1356 1.350 . S
C1353 C1356 1.463 . S
C1353 C1358 1.350 . S
C1353 N1361 1.427 . S
C1354 H1345 0.930 . S
C1354 C1352 1.378 . S
C1354 C1355 1.367 . S
C1355 C1354 1.367 . S
C1355 C1357 1.433 . S
C1356 C1352 1.350 . S
C1356 C1353 1.463 . S
C1356 N1360 1.427 . S
C1357 H1347 0.929 . S
C1357 C1355 1.433 . S
C1357 N1360 1.384 . S
C1358 H1349 0.929 . S
C1358 C1350 1.378 . S
C1358 C1353 1.350 . S
C1359 H1346 0.929 . S
C1359 C1351 1.433 . S
C1359 N1361 1.384 . S
N1360 C1356 1.427 . S
N1360 C1357 1.384 . S
N1361 C1353 1.427 . S
N1361 C1359 1.384 . S
H1362 C1368 0.930 . S
H1363 C1372 0.930 . S
H1364 C1377 0.929 . S
H1365 C1375 0.929 . S
H1366 C1370 0.929 . S
H1367 C1376 0.929 . S
C1368 H1362 0.930 . S
C1368 C1369 1.367 . S
C1368 C1376 1.378 . S
C1369 C1368 1.367 . S
C1369 C1377 1.433 . S
C1370 H1366 0.929 . S
C1370 C1372 1.378 . S
C1370 C1374 1.350 . S
C1371 C1374 1.463 . S
C1371 C1376 1.350 . S
C1371 N1379 1.427 . S
C1372 H1363 0.930 . S
C1372 C1370 1.378 . S
C1372 C1373 1.367 . S
C1373 C1372 1.367 . S
C1373 C1375 1.433 . S
C1374 C1370 1.350 . S
C1374 C1371 1.463 . S
C1374 N1378 1.427 . S
C1375 H1365 0.929 . S
C1375 C1373 1.433 . S
C1375 N1378 1.384 . S
C1376 H1367 0.929 . S
C1376 C1368 1.378 . S
C1376 C1371 1.350 . S
C1377 H1364 0.929 . S
C1377 C1369 1.433 . S
C1377 N1379 1.384 . S
N1378 C1374 1.427 . S
N1378 C1375 1.384 . S
N1379 C1371 1.427 . S
N1379 C1377 1.384 . S
H1380 C1386 0.930 . S
H1381 C1390 0.930 . S
H1382 C1395 0.929 . S
H1383 C1393 0.929 . S
H1384 C1388 0.929 . S
H1385 C1394 0.929 . S
C1386 H1380 0.930 . S
C1386 C1387 1.367 . S
C1386 C1394 1.378 . S
C1387 C1386 1.367 . S
C1387 C1395 1.433 . S
C1388 H1384 0.929 . S
C1388 C1390 1.378 . S
C1388 C1392 1.350 . S
C1389 C1392 1.463 . S
C1389 C1394 1.350 . S
C1389 N1397 1.427 . S
C1390 H1381 0.930 . S
C1390 C1388 1.378 . S
C1390 C1391 1.367 . S
C1391 C1390 1.367 . S
C1391 C1393 1.433 . S
C1392 C1388 1.350 . S
C1392 C1389 1.463 . S
C1392 N1396 1.427 . S
C1393 H1383 0.929 . S
C1393 C1391 1.433 . S
C1393 N1396 1.384 . S
C1394 H1385 0.929 . S
C1394 C1386 1.378 . S
C1394 C1389 1.350 . S
C1395 H1382 0.929 . S
C1395 C1387 1.433 . S
C1395 N1397 1.384 . S
N1396 C1392 1.427 . S
N1396 C1393 1.384 . S
N1397 C1389 1.427 . S
N1397 C1395 1.384 . S
H1398 C1404 0.930 . S
H1399 C1408 0.930 . S
H1400 C1413 0.929 . S
H1401 C1411 0.929 . S
H1402 C1406 0.929 . S
H1403 C1412 0.929 . S
C1404 H1398 0.930 . S
C1404 C1405 1.367 . S
C1404 C1412 1.378 . S
C1405 C1404 1.367 . S
C1405 C1413 1.433 . S
C1406 H1402 0.929 . S
C1406 C1408 1.378 . S
C1406 C1410 1.350 . S
C1407 C1410 1.463 . S
C1407 C1412 1.350 . S
C1407 N1415 1.427 . S
C1408 H1399 0.930 . S
C1408 C1406 1.378 . S
C1408 C1409 1.367 . S
C1409 C1408 1.367 . S
C1409 C1411 1.433 . S
C1410 C1406 1.350 . S
C1410 C1407 1.463 . S
C1410 N1414 1.427 . S
C1411 H1401 0.929 . S
C1411 C1409 1.433 . S
C1411 N1414 1.384 . S
C1412 H1403 0.929 . S
C1412 C1404 1.378 . S
C1412 C1407 1.350 . S
C1413 H1400 0.929 . S
C1413 C1405 1.433 . S
C1413 N1415 1.384 . S
N1414 C1410 1.427 . S
N1414 C1411 1.384 . S
N1415 C1407 1.427 . S
N1415 C1413 1.384 . S
H1416 C1422 0.930 . S
H1417 C1426 0.930 . S
H1418 C1431 0.929 . S
H1419 C1429 0.929 . S
H1420 C1424 0.929 . S
H1421 C1430 0.929 . S
C1422 H1416 0.930 . S
C1422 C1423 1.367 . S
C1422 C1430 1.378 . S
C1423 C1422 1.367 . S
C1423 C1431 1.433 . S
C1424 H1420 0.929 . S
C1424 C1426 1.378 . S
C1424 C1428 1.350 . S
C1425 C1428 1.463 . S
C1425 C1430 1.350 . S
C1425 N1433 1.427 . S
C1426 H1417 0.930 . S
C1426 C1424 1.378 . S
C1426 C1427 1.367 . S
C1427 C1426 1.367 . S
C1427 C1429 1.433 . S
C1428 C1424 1.350 . S
C1428 C1425 1.463 . S
C1428 N1432 1.427 . S
C1429 H1419 0.929 . S
C1429 C1427 1.433 . S
C1429 N1432 1.384 . S
C1430 H1421 0.929 . S
C1430 C1422 1.378 . S
C1430 C1425 1.350 . S
C1431 H1418 0.929 . S
C1431 C1423 1.433 . S
C1431 N1433 1.384 . S
N1432 C1428 1.427 . S
N1432 C1429 1.384 . S
N1433 C1425 1.427 . S
N1433 C1431 1.384 . S
H1434 C1440 0.930 . S
H1435 C1444 0.930 . S
H1436 C1449 0.929 . S
H1437 C1447 0.929 . S
H1438 C1442 0.929 . S
H1439 C1448 0.929 . S
C1440 H1434 0.930 . S
C1440 C1441 1.367 . S
C1440 C1448 1.378 . S
C1441 C1440 1.367 . S
C1441 C1449 1.433 . S
C1442 H1438 0.929 . S
C1442 C1444 1.378 . S
C1442 C1446 1.350 . S
C1443 C1446 1.463 . S
C1443 C1448 1.350 . S
C1443 N1451 1.427 . S
C1444 H1435 0.930 . S
C1444 C1442 1.378 . S
C1444 C1445 1.367 . S
C1445 C1444 1.367 . S
C1445 C1447 1.433 . S
C1446 C1442 1.350 . S
C1446 C1443 1.463 . S
C1446 N1450 1.427 . S
C1447 H1437 0.929 . S
C1447 C1445 1.433 . S
C1447 N1450 1.384 . S
C1448 H1439 0.929 . S
C1448 C1440 1.378 . S
C1448 C1443 1.350 . S
C1449 H1436 0.929 . S
C1449 C1441 1.433 . S
C1449 N1451 1.384 . S
N1450 C1446 1.427 . S
N1450 C1447 1.384 . S
N1451 C1443 1.427 . S
N1451 C1449 1.384 . S
H1452 C1458 0.930 . S
H1453 C1462 0.930 . S
H1454 C1467 0.929 . S
H1455 C1465 0.929 . S
H1456 C1460 0.929 . S
H1457 C1466 0.929 . S
C1458 H1452 0.930 . S
C1458 C1459 1.367 . S
C1458 C1466 1.378 . S
C1459 C1458 1.367 . S
C1459 C1467 1.433 . S
C1460 H1456 0.929 . S
C1460 C1462 1.378 . S
C1460 C1464 1.350 . S
C1461 C1464 1.463 . S
C1461 C1466 1.350 . S
C1461 N1469 1.427 . S
C1462 H1453 0.930 . S
C1462 C1460 1.378 . S
C1462 C1463 1.367 . S
C1463 C1462 1.367 . S
C1463 C1465 1.433 . S
C1464 C1460 1.350 . S
C1464 C1461 1.463 . S
C1464 N1468 1.427 . S
C1465 H1455 0.929 . S
C1465 C1463 1.433 . S
C1465 N1468 1.384 . S
C1466 H1457 0.929 . S
C1466 C1458 1.378 . S
C1466 C1461 1.350 . S
C1467 H1454 0.929 . S
C1467 C1459 1.433 . S
C1467 N1469 1.384 . S
N1468 C1464 1.427 . S
N1468 C1465 1.384 . S
N1469 C1461 1.427 . S
N1469 C1467 1.384 . S
H1470 C1476 0.930 . S
H1471 C1480 0.930 . S
H1472 C1485 0.929 . S
H1473 C1483 0.929 . S
H1474 C1478 0.929 . S
H1475 C1484 0.929 . S
C1476 H1470 0.930 . S
C1476 C1477 1.367 . S
C1476 C1484 1.378 . S
C1477 C1476 1.367 . S
C1477 C1485 1.433 . S
C1478 H1474 0.929 . S
C1478 C1480 1.378 . S
C1478 C1482 1.350 . S
C1479 C1482 1.463 . S
C1479 C1484 1.350 . S
C1479 N1487 1.427 . S
C1480 H1471 0.930 . S
C1480 C1478 1.378 . S
C1480 C1481 1.367 . S
C1481 C1480 1.367 . S
C1481 C1483 1.433 . S
C1482 C1478 1.350 . S
C1482 C1479 1.463 . S
C1482 N1486 1.427 . S
C1483 H1473 0.929 . S
C1483 C1481 1.433 . S
C1483 N1486 1.384 . S
C1484 H1475 0.929 . S
C1484 C1476 1.378 . S
C1484 C1479 1.350 . S
C1485 H1472 0.929 . S
C1485 C1477 1.433 . S
C1485 N1487 1.384 . S
N1486 C1482 1.427 . S
N1486 C1483 1.384 . S
N1487 C1479 1.427 . S
N1487 C1485 1.384 . S
H1488 C1494 0.930 . S
H1489 C1498 0.930 . S
H1490 C1503 0.929 . S
H1491 C1501 0.929 . S
H1492 C1496 0.929 . S
H1493 C1502 0.929 . S
C1494 H1488 0.930 . S
C1494 C1495 1.367 . S
C1494 C1502 1.378 . S
C1495 C1494 1.367 . S
C1495 C1503 1.433 . S
C1496 H1492 0.929 . S
C1496 C1498 1.378 . S
C1496 C1500 1.350 . S
C1497 C1500 1.463 . S
C1497 C1502 1.350 . S
C1497 N1505 1.427 . S
C1498 H1489 0.930 . S
C1498 C1496 1.378 . S
C1498 C1499 1.367 . S
C1499 C1498 1.367 . S
C1499 C1501 1.433 . S
C1500 C1496 1.350 . S
C1500 C1497 1.463 . S
C1500 N1504 1.427 . S
C1501 H1491 0.929 . S
C1501 C1499 1.433 . S
C1501 N1504 1.384 . S
C1502 H1493 0.929 . S
C1502 C1494 1.378 . S
C1502 C1497 1.350 . S
C1503 H1490 0.929 . S
C1503 C1495 1.433 . S
C1503 N1505 1.384 . S
N1504 C1500 1.427 . S
N1504 C1501 1.384 . S
N1505 C1497 1.427 . S
N1505 C1503 1.384 . S
H1506 C1512 0.930 . S
H1507 C1516 0.930 . S
H1508 C1521 0.929 . S
H1509 C1519 0.929 . S
H1510 C1514 0.929 . S
H1511 C1520 0.929 . S
C1512 H1506 0.930 . S
C1512 C1513 1.367 . S
C1512 C1520 1.378 . S
C1513 C1512 1.367 . S
C1513 C1521 1.433 . S
C1514 H1510 0.929 . S
C1514 C1516 1.378 . S
C1514 C1518 1.350 . S
C1515 C1518 1.463 . S
C1515 C1520 1.350 . S
C1515 N1523 1.427 . S
C1516 H1507 0.930 . S
C1516 C1514 1.378 . S
C1516 C1517 1.367 . S
C1517 C1516 1.367 . S
C1517 C1519 1.433 . S
C1518 C1514 1.350 . S
C1518 C1515 1.463 . S
C1518 N1522 1.427 . S
C1519 H1509 0.929 . S
C1519 C1517 1.433 . S
C1519 N1522 1.384 . S
C1520 H1511 0.929 . S
C1520 C1512 1.378 . S
C1520 C1515 1.350 . S
C1521 H1508 0.929 . S
C1521 C1513 1.433 . S
C1521 N1523 1.384 . S
N1522 C1518 1.427 . S
N1522 C1519 1.384 . S
N1523 C1515 1.427 . S
N1523 C1521 1.384 . S
H1524 C1530 0.930 . S
H1525 C1534 0.930 . S
H1526 C1539 0.929 . S
H1527 C1537 0.929 . S
H1528 C1532 0.929 . S
H1529 C1538 0.929 . S
C1530 H1524 0.930 . S
C1530 C1531 1.367 . S
C1530 C1538 1.378 . S
C1531 C1530 1.367 . S
C1531 C1539 1.433 . S
C1532 H1528 0.929 . S
C1532 C1534 1.378 . S
C1532 C1536 1.350 . S
C1533 C1536 1.463 . S
C1533 C1538 1.350 . S
C1533 N1541 1.427 . S
C1534 H1525 0.930 . S
C1534 C1532 1.378 . S
C1534 C1535 1.367 . S
C1535 C1534 1.367 . S
C1535 C1537 1.433 . S
C1536 C1532 1.350 . S
C1536 C1533 1.463 . S
C1536 N1540 1.427 . S
C1537 H1527 0.929 . S
C1537 C1535 1.433 . S
C1537 N1540 1.384 . S
C1538 H1529 0.929 . S
C1538 C1530 1.378 . S
C1538 C1533 1.350 . S
C1539 H1526 0.929 . S
C1539 C1531 1.433 . S
C1539 N1541 1.384 . S
N1540 C1536 1.427 . S
N1540 C1537 1.384 . S
N1541 C1533 1.427 . S
N1541 C1539 1.384 . S
H1542 C1548 0.930 . S
H1543 C1552 0.930 . S
H1544 C1557 0.929 . S
H1545 C1555 0.929 . S
H1546 C1550 0.929 . S
H1547 C1556 0.929 . S
C1548 H1542 0.930 . S
C1548 C1549 1.367 . S
C1548 C1556 1.378 . S
C1549 C1548 1.367 . S
C1549 C1557 1.433 . S
C1550 H1546 0.929 . S
C1550 C1552 1.378 . S
C1550 C1554 1.350 . S
C1551 C1554 1.463 . S
C1551 C1556 1.350 . S
C1551 N1559 1.427 . S
C1552 H1543 0.930 . S
C1552 C1550 1.378 . S
C1552 C1553 1.367 . S
C1553 C1552 1.367 . S
C1553 C1555 1.433 . S
C1554 C1550 1.350 . S
C1554 C1551 1.463 . S
C1554 N1558 1.427 . S
C1555 H1545 0.929 . S
C1555 C1553 1.433 . S
C1555 N1558 1.384 . S
C1556 H1547 0.929 . S
C1556 C1548 1.378 . S
C1556 C1551 1.350 . S
C1557 H1544 0.929 . S
C1557 C1549 1.433 . S
C1557 N1559 1.384 . S
N1558 C1554 1.427 . S
N1558 C1555 1.384 . S
N1559 C1551 1.427 . S
N1559 C1557 1.384 . S
H1560 C1566 0.930 . S
H1561 C1570 0.930 . S
H1562 C1575 0.929 . S
H1563 C1573 0.929 . S
H1564 C1568 0.929 . S
H1565 C1574 0.929 . S
C1566 H1560 0.930 . S
C1566 C1567 1.367 . S
C1566 C1574 1.378 . S
C1567 C1566 1.367 . S
C1567 C1575 1.433 . S
C1568 H1564 0.929 . S
C1568 C1570 1.378 . S
C1568 C1572 1.350 . S
C1569 C1572 1.463 . S
C1569 C1574 1.350 . S
C1569 N1577 1.427 . S
C1570 H1561 0.930 . S
C1570 C1568 1.378 . S
C1570 C1571 1.367 . S
C1571 C1570 1.367 . S
C1571 C1573 1.433 . S
C1572 C1568 1.350 . S
C1572 C1569 1.463 . S
C1572 N1576 1.427 . S
C1573 H1563 0.929 . S
C1573 C1571 1.433 . S
C1573 N1576 1.384 . S
C1574 H1565 0.929 . S
C1574 C1566 1.378 . S
C1574 C1569 1.350 . S
C1575 H1562 0.929 . S
C1575 C1567 1.433 . S
C1575 N1577 1.384 . S
N1576 C1572 1.427 . S
N1576 C1573 1.384 . S
N1577 C1569 1.427 . S
N1577 C1575 1.384 . S
H1578 C1584 0.930 . S
H1579 C1588 0.930 . S
H1580 C1593 0.929 . S
H1581 C1591 0.929 . S
H1582 C1586 0.929 . S
H1583 C1592 0.929 . S
C1584 H1578 0.930 . S
C1584 C1585 1.367 . S
C1584 C1592 1.378 . S
C1585 C1584 1.367 . S
C1585 C1593 1.433 . S
C1586 H1582 0.929 . S
C1586 C1588 1.378 . S
C1586 C1590 1.350 . S
C1587 C1590 1.463 . S
C1587 C1592 1.350 . S
C1587 N1595 1.427 . S
C1588 H1579 0.930 . S
C1588 C1586 1.378 . S
C1588 C1589 1.367 . S
C1589 C1588 1.367 . S
C1589 C1591 1.433 . S
C1590 C1586 1.350 . S
C1590 C1587 1.463 . S
C1590 N1594 1.427 . S
C1591 H1581 0.929 . S
C1591 C1589 1.433 . S
C1591 N1594 1.384 . S
C1592 H1583 0.929 . S
C1592 C1584 1.378 . S
C1592 C1587 1.350 . S
C1593 H1580 0.929 . S
C1593 C1585 1.433 . S
C1593 N1595 1.384 . S
N1594 C1590 1.427 . S
N1594 C1591 1.384 . S
N1595 C1587 1.427 . S
N1595 C1593 1.384 . S
H1596 C1602 0.930 . S
H1597 C1606 0.930 . S
H1598 C1611 0.929 . S
H1599 C1609 0.929 . S
H1600 C1604 0.929 . S
H1601 C1610 0.929 . S
C1602 H1596 0.930 . S
C1602 C1603 1.367 . S
C1602 C1610 1.378 . S
C1603 C1602 1.367 . S
C1603 C1611 1.433 . S
C1604 H1600 0.929 . S
C1604 C1606 1.378 . S
C1604 C1608 1.350 . S
C1605 C1608 1.463 . S
C1605 C1610 1.350 . S
C1605 N1613 1.427 . S
C1606 H1597 0.930 . S
C1606 C1604 1.378 . S
C1606 C1607 1.367 . S
C1607 C1606 1.367 . S
C1607 C1609 1.433 . S
C1608 C1604 1.350 . S
C1608 C1605 1.463 . S
C1608 N1612 1.427 . S
C1609 H1599 0.929 . S
C1609 C1607 1.433 . S
C1609 N1612 1.384 . S
C1610 H1601 0.929 . S
C1610 C1602 1.378 . S
C1610 C1605 1.350 . S
C1611 H1598 0.929 . S
C1611 C1603 1.433 . S
C1611 N1613 1.384 . S
N1612 C1608 1.427 . S
N1612 C1609 1.384 . S
N1613 C1605 1.427 . S
N1613 C1611 1.384 . S
H1614 C1620 0.930 . S
H1615 C1624 0.930 . S
H1616 C1629 0.929 . S
H1617 C1627 0.929 . S
H1618 C1622 0.929 . S
H1619 C1628 0.929 . S
C1620 H1614 0.930 . S
C1620 C1621 1.367 . S
C1620 C1628 1.378 . S
C1621 C1620 1.367 . S
C1621 C1629 1.433 . S
C1622 H1618 0.929 . S
C1622 C1624 1.378 . S
C1622 C1626 1.350 . S
C1623 C1626 1.463 . S
C1623 C1628 1.350 . S
C1623 N1631 1.427 . S
C1624 H1615 0.930 . S
C1624 C1622 1.378 . S
C1624 C1625 1.367 . S
C1625 C1624 1.367 . S
C1625 C1627 1.433 . S
C1626 C1622 1.350 . S
C1626 C1623 1.463 . S
C1626 N1630 1.427 . S
C1627 H1617 0.929 . S
C1627 C1625 1.433 . S
C1627 N1630 1.384 . S
C1628 H1619 0.929 . S
C1628 C1620 1.378 . S
C1628 C1623 1.350 . S
C1629 H1616 0.929 . S
C1629 C1621 1.433 . S
C1629 N1631 1.384 . S
N1630 C1626 1.427 . S
N1630 C1627 1.384 . S
N1631 C1623 1.427 . S
N1631 C1629 1.384 . S
H1632 C1638 0.930 . S
H1633 C1642 0.930 . S
H1634 C1647 0.929 . S
H1635 C1645 0.929 . S
H1636 C1640 0.929 . S
H1637 C1646 0.929 . S
C1638 H1632 0.930 . S
C1638 C1639 1.367 . S
C1638 C1646 1.378 . S
C1639 C1638 1.367 . S
C1639 C1647 1.433 . S
C1640 H1636 0.929 . S
C1640 C1642 1.378 . S
C1640 C1644 1.350 . S
C1641 C1644 1.463 . S
C1641 C1646 1.350 . S
C1641 N1649 1.427 . S
C1642 H1633 0.930 . S
C1642 C1640 1.378 . S
C1642 C1643 1.367 . S
C1643 C1642 1.367 . S
C1643 C1645 1.433 . S
C1644 C1640 1.350 . S
C1644 C1641 1.463 . S
C1644 N1648 1.427 . S
C1645 H1635 0.929 . S
C1645 C1643 1.433 . S
C1645 N1648 1.384 . S
C1646 H1637 0.929 . S
C1646 C1638 1.378 . S
C1646 C1641 1.350 . S
C1647 H1634 0.929 . S
C1647 C1639 1.433 . S
C1647 N1649 1.384 . S
N1648 C1644 1.427 . S
N1648 C1645 1.384 . S
N1649 C1641 1.427 . S
N1649 C1647 1.384 . S
H1650 C1656 0.930 . S
H1651 C1660 0.930 . S
H1652 C1665 0.929 . S
H1653 C1663 0.929 . S
H1654 C1658 0.929 . S
H1655 C1664 0.929 . S
C1656 H1650 0.930 . S
C1656 C1657 1.367 . S
C1656 C1664 1.378 . S
C1657 C1656 1.367 . S
C1657 C1665 1.433 . S
C1658 H1654 0.929 . S
C1658 C1660 1.378 . S
C1658 C1662 1.350 . S
C1659 C1662 1.463 . S
C1659 C1664 1.350 . S
C1659 N1667 1.427 . S
C1660 H1651 0.930 . S
C1660 C1658 1.378 . S
C1660 C1661 1.367 . S
C1661 C1660 1.367 . S
C1661 C1663 1.433 . S
C1662 C1658 1.350 . S
C1662 C1659 1.463 . S
C1662 N1666 1.427 . S
C1663 H1653 0.929 . S
C1663 C1661 1.433 . S
C1663 N1666 1.384 . S
C1664 H1655 0.929 . S
C1664 C1656 1.378 . S
C1664 C1659 1.350 . S
C1665 H1652 0.929 . S
C1665 C1657 1.433 . S
C1665 N1667 1.384 . S
N1666 C1662 1.427 . S
N1666 C1663 1.384 . S
N1667 C1659 1.427 . S
N1667 C1665 1.384 . S
H1668 C1674 0.930 . S
H1669 C1678 0.930 . S
H1670 C1683 0.929 . S
H1671 C1681 0.929 . S
H1672 C1676 0.929 . S
H1673 C1682 0.929 . S
C1674 H1668 0.930 . S
C1674 C1675 1.367 . S
C1674 C1682 1.378 . S
C1675 C1674 1.367 . S
C1675 C1683 1.433 . S
C1676 H1672 0.929 . S
C1676 C1678 1.378 . S
C1676 C1680 1.350 . S
C1677 C1680 1.463 . S
C1677 C1682 1.350 . S
C1677 N1685 1.427 . S
C1678 H1669 0.930 . S
C1678 C1676 1.378 . S
C1678 C1679 1.367 . S
C1679 C1678 1.367 . S
C1679 C1681 1.433 . S
C1680 C1676 1.350 . S
C1680 C1677 1.463 . S
C1680 N1684 1.427 . S
C1681 H1671 0.929 . S
C1681 C1679 1.433 . S
C1681 N1684 1.384 . S
C1682 H1673 0.929 . S
C1682 C1674 1.378 . S
C1682 C1677 1.350 . S
C1683 H1670 0.929 . S
C1683 C1675 1.433 . S
C1683 N1685 1.384 . S
N1684 C1680 1.427 . S
N1684 C1681 1.384 . S
N1685 C1677 1.427 . S
N1685 C1683 1.384 . S
H1686 C1692 0.930 . S
H1687 C1696 0.930 . S
H1688 C1701 0.929 . S
H1689 C1699 0.929 . S
H1690 C1694 0.929 . S
H1691 C1700 0.929 . S
C1692 H1686 0.930 . S
C1692 C1693 1.367 . S
C1692 C1700 1.378 . S
C1693 C1692 1.367 . S
C1693 C1701 1.433 . S
C1694 H1690 0.929 . S
C1694 C1696 1.378 . S
C1694 C1698 1.350 . S
C1695 C1698 1.463 . S
C1695 C1700 1.350 . S
C1695 N1703 1.427 . S
C1696 H1687 0.930 . S
C1696 C1694 1.378 . S
C1696 C1697 1.367 . S
C1697 C1696 1.367 . S
C1697 C1699 1.433 . S
C1698 C1694 1.350 . S
C1698 C1695 1.463 . S
C1698 N1702 1.427 . S
C1699 H1689 0.929 . S
C1699 C1697 1.433 . S
C1699 N1702 1.384 . S
C1700 H1691 0.929 . S
C1700 C1692 1.378 . S
C1700 C1695 1.350 . S
C1701 H1688 0.929 . S
C1701 C1693 1.433 . S
C1701 N1703 1.384 . S
N1702 C1698 1.427 . S
N1702 C1699 1.384 . S
N1703 C1695 1.427 . S
N1703 C1701 1.384 . S
H1704 C1710 0.930 . S
H1705 C1714 0.930 . S
H1706 C1719 0.929 . S
H1707 C1717 0.929 . S
H1708 C1712 0.929 . S
H1709 C1718 0.929 . S
C1710 H1704 0.930 . S
C1710 C1711 1.367 . S
C1710 C1718 1.378 . S
C1711 C1710 1.367 . S
C1711 C1719 1.433 . S
C1712 H1708 0.929 . S
C1712 C1714 1.378 . S
C1712 C1716 1.350 . S
C1713 C1716 1.463 . S
C1713 C1718 1.350 . S
C1713 N1721 1.427 . S
C1714 H1705 0.930 . S
C1714 C1712 1.378 . S
C1714 C1715 1.367 . S
C1715 C1714 1.367 . S
C1715 C1717 1.433 . S
C1716 C1712 1.350 . S
C1716 C1713 1.463 . S
C1716 N1720 1.427 . S
C1717 H1707 0.929 . S
C1717 C1715 1.433 . S
C1717 N1720 1.384 . S
C1718 H1709 0.929 . S
C1718 C1710 1.378 . S
C1718 C1713 1.350 . S
C1719 H1706 0.929 . S
C1719 C1711 1.433 . S
C1719 N1721 1.384 . S
N1720 C1716 1.427 . S
N1720 C1717 1.384 . S
N1721 C1713 1.427 . S
N1721 C1719 1.384 . S
C869 C683 1.513 . S
C865 C74 1.463 . S
C887 C673 0.592 . S
C883 C142 0.860 . S
C905 C674 1.165 . S
C901 C231 1.092 . S
C919 C322 1.325 . S
C923 C696 1.420 . S
C937 C406 0.845 . S
C941 C699 0.556 . S
C959 C682 1.162 . S
C955 C494 1.098 . S
C973 C562 1.322 . S
C977 C672 1.417 . S
C991 C651 1.453 . S
C995 C690 1.519 . S
C1013 C703 1.454 . S
C1009 C58 1.381 . S
C1027 C151 1.551 . S
C1031 C752 1.536 . S
C1049 C730 2.637 . S
C1045 C224 2.525 . S
C1067 C744 1.054 . S
C1063 C315 1.048 . S
C1081 C399 1.054 . S
C1085 C705 1.059 . S
C1103 C758 1.462 . S
C1099 C478 1.433 . S
C1117 C571 1.488 . S
C1121 C714 1.516 . S
C1135 C644 2.520 . S
C1139 C735 2.607 . S
C1153 C67 2.515 . S
C1157 C761 2.604 . S
C1171 C392 1.562 . S
C1175 C745 1.539 . S
C1193 C704 2.639 . S
C1189 C487 2.532 . S
C1211 C736 1.043 . S
C1207 C578 1.055 . S
C1225 C658 1.394 . S
C1229 C727 1.461 . S
C1243 C238 1.438 . S
C1247 C734 1.448 . S
C1265 C721 1.530 . S
C1261 C308 1.505 . S
C1279 C158 1.050 . S
C1283 C713 1.042 . S
C1297 C662 1.463 . S
C1301 C776 1.514 . S
C1315 C394 0.821 . S
C1319 C766 0.550 . S
C1337 C767 1.154 . S
C1333 C483 1.112 . S
C1355 C789 1.425 . S
C1351 C574 1.345 . S
C1369 C154 0.839 . S
C1373 C792 0.575 . S
C1391 C775 1.165 . S
C1387 C242 1.091 . S
C1405 C310 1.342 . S
C1409 C765 1.427 . S
C1423 C63 1.462 . S
C1427 C783 1.514 . S
C1441 C646 1.397 . S
C1445 C796 1.461 . S
C1463 C845 1.527 . S
C1459 C403 1.558 . S
C1477 C476 2.533 . S
C1481 C823 2.639 . S
C1495 C567 1.066 . S
C1499 C837 1.060 . S
C1517 C798 1.053 . S
C1513 C147 1.049 . S
C1531 C226 1.430 . S
C1535 C851 1.452 . S
C1553 C807 1.517 . S
C1549 C319 1.488 . S
C1571 C828 2.600 . S
C1567 C56 2.522 . S
C1589 C854 2.601 . S
C1585 C655 2.514 . S
C1603 C140 1.563 . S
C1607 C838 1.530 . S
C1621 C235 2.524 . S
C1625 C797 2.631 . S
C1643 C829 1.043 . S
C1639 C326 1.056 . S
C1657 C70 1.383 . S
C1661 C820 1.457 . S
C1675 C490 1.424 . S
C1679 C827 1.458 . S
C1697 C814 1.526 . S
C1693 C560 1.502 . S
C1715 C806 1.051 . S
C1711 C410 1.061 . S
