# Generated by pormake.
# Topology tsx, (6,3)-cn, num edge types: 1
# Building blocks:
#     Node 0, Type 0, BuildingBlock: MIDCAF_clean_sbu_0, # of connection points: 6
#     Node 1, Type 0, BuildingBlock: MIDCAF_clean_sbu_0, # of connection points: 6
#     Node 2, Type 1, BuildingBlock: WUSLED_clean_sbu_0, # of connection points: 3
#     Node 3, Type 1, BuildingBlock: WUSLED_clean_sbu_0, # of connection points: 3
#     Node 4, Type 1, BuildingBlock: WUSLED_clean_sbu_0, # of connection points: 3
#     Node 5, Type 1, BuildingBlock: WUSLED_clean_sbu_0, # of connection points: 3
#     Edge 6, Type (0, 1), BuildingBlock: OJICUG_clean_linker_0, # of connection points: 2
#     Edge 7, Type (0, 1), BuildingBlock: OJICUG_clean_linker_0, # of connection points: 2
#     Edge 8, Type (0, 1), BuildingBlock: OJICUG_clean_linker_0, # of connection points: 2
#     Edge 9, Type (0, 1), BuildingBlock: OJICUG_clean_linker_0, # of connection points: 2
#     Edge 10, Type (0, 1), BuildingBlock: OJICUG_clean_linker_0, # of connection points: 2
#     Edge 11, Type (0, 1), BuildingBlock: OJICUG_clean_linker_0, # of connection points: 2
#     Edge 12, Type (0, 1), BuildingBlock: OJICUG_clean_linker_0, # of connection points: 2
#     Edge 13, Type (0, 1), BuildingBlock: OJICUG_clean_linker_0, # of connection points: 2
#     Edge 14, Type (0, 1), BuildingBlock: OJICUG_clean_linker_0, # of connection points: 2
#     Edge 15, Type (0, 1), BuildingBlock: OJICUG_clean_linker_0, # of connection points: 2
#     Edge 16, Type (0, 1), BuildingBlock: OJICUG_clean_linker_0, # of connection points: 2
#     Edge 17, Type (0, 1), BuildingBlock: OJICUG_clean_linker_0, # of connection points: 2
# Relax obj value: 0.113
# Max RMSD: 0.179
# Mean RMSD: 0.109
data_MOF--net-tsx--node1-MIDCAF_clean_sbu_0--node2-WUSLED_clean_sbu_0--edge1-OJICUG_clean_linker_0
_symmetry_space_group_name_H-M    P1
_symmetry_Int_Tables_number       1
_symmetry_cell_setting            triclinic
loop_
_symmetry_equiv_pos_as_xyz
'x, y, z'
_cell_length_a     19.791005
_cell_length_b     20.668827
_cell_length_c     39.07192
_cell_angle_alpha  92.155538
_cell_angle_beta   95.889293
_cell_angle_gamma 90.88939
loop_
_atom_site_label
_atom_site_type_symbol
_atom_site_fract_x
_atom_site_fract_y
_atom_site_fract_z
_atom_type_partial_charge
Zn0 Zn 0.03759 0.96494 0.9813 0.0
Zn1 Zn 0.20644 0.0371 0.05818 0.0
Zn2 Zn 0.10586 0.01828 0.02099 0.0
C3 C 0.17488 0.15517 0.02485 0.0
C4 C 0.23486 0.93266 0.01528 0.0
O5 O 0.02233 0.96711 0.04376 0.0
O6 O 0.02511 0.88439 0.00696 0.0
C7 C 0.98575 0.09101 0.98853 0.0
O8 O 0.12404 0.12161 0.00974 0.0
O9 O 0.2174 0.12918 0.0462 0.0
O10 O 0.26424 0.9699 0.03878 0.0
O11 O 0.17277 0.94242 1.00452 0.0
O12 O 0.96256 0.03339 0.98463 0.0
O13 O 0.05076 0.0991 0.99537 0.0
O14 O 0.10606 0.07406 0.97325 0.0
O15 O 0.10278 0.97956 0.94532 0.0
C16 C 0.11425 0.0401 0.9456 0.0
O17 O 0.06596 1.01163 0.07097 0.0
O18 O 0.16577 0.01934 0.10168 0.0
C19 C 1.00454 0.90832 0.03427 0.0
C20 C 0.10198 1.01202 0.10026 0.0
Zn21 Zn 0.69785 0.53623 0.56062 0.0
Zn22 Zn 0.53274 0.46646 0.48 0.0
Zn23 Zn 0.60042 0.51958 0.52018 0.0
C24 C 0.61196 0.54092 0.44514 0.0
C25 C 0.48259 0.59373 0.48689 0.0
O26 O 0.55589 0.51255 0.56894 0.0
O27 O 0.65257 0.51663 0.60263 0.0
C28 C 0.72948 0.4332 0.51708 0.0
O29 O 0.60328 0.5751 0.47264 0.0
O30 O 0.59987 0.48044 0.44483 0.0
O31 O 0.459 0.53629 0.48271 0.0
O32 O 0.54757 0.60135 0.49421 0.0
O33 O 0.75668 0.46911 0.54176 0.0
O34 O 0.66847 0.44388 0.50476 0.0
O35 O 0.62132 0.62253 0.5096 0.0
O36 O 0.70995 0.62881 0.54916 0.0
C37 C 0.67082 0.65538 0.52643 0.0
O38 O 0.51455 0.46898 0.54144 0.0
O39 O 0.51574 0.38564 0.50487 0.0
C40 C 0.58855 0.51097 0.59903 0.0
C41 C 0.49509 0.41062 0.53194 0.0
C42 C 0.9699 0.10589 0.46537 0.0
C43 C 0.92335 0.12956 0.43944 0.0
C44 C 0.88406 0.20901 0.48028 0.0
C45 C 0.88064 0.18059 0.44684 0.0
C46 C 0.92936 0.18347 0.50635 0.0
C47 C 0.97206 0.13269 0.4989 0.0
U48 U 0.0509 1.00485 0.39872 0.0
O49 O 0.08528 0.90425 0.39673 0.0
O50 O 0.15859 0.98418 0.39354 0.0
C51 C 0.14919 0.92131 0.39513 0.0
C52 C 1.01924 0.05645 0.45719 0.0
C53 C 0.20177 0.8855 0.41609 0.0
C54 C 0.2345 0.80675 0.45929 0.0
C55 C 0.18617 0.84823 0.44369 0.0
C56 C 0.31583 0.84154 0.42124 0.0
C57 C 0.29937 0.80152 0.44763 0.0
C58 C 0.2675 0.88286 0.40563 0.0
C59 C 0.98653 0.02671 0.30442 0.0
C60 C 1.0211 0.95798 0.25781 0.0
C61 C 0.97554 0.06386 0.24589 0.0
C62 C 0.96676 0.07385 0.28074 0.0
C63 C 1.00432 1.0064 0.23414 0.0
C64 C 1.01271 0.96821 0.29268 0.0
C65 C 0.98358 0.04104 0.34137 0.0
O66 O 0.99325 1.00094 0.44397 0.0
O67 O 0.06958 0.07808 0.44105 0.0
O68 O 0.03646 0.07328 0.35691 0.0
O69 O 0.9634 0.99312 0.35931 0.0
H70 H 0.92133 0.10968 0.41329 0.0
H71 H 0.84684 0.19932 0.42613 0.0
H72 H 0.93253 0.20338 0.53252 0.0
H73 H 1.00774 0.11517 0.51921 0.0
H74 H 0.22041 0.77742 0.47993 0.0
H75 H 0.13599 0.84937 0.45243 0.0
H76 H 0.36486 0.83846 0.41133 0.0
H77 H 0.28064 0.91079 0.38426 0.0
H78 H 0.04255 0.91283 0.24956 0.0
H79 H 0.96294 0.10251 0.22853 0.0
H80 H 0.94666 0.1194 0.28941 0.0
H81 H 0.02836 0.93119 0.31058 0.0
C82 C 0.91203 0.99208 0.56745 0.0
C83 C 0.8763 0.96028 0.59132 0.0
C84 C 0.81068 0.89669 0.54476 0.0
C85 C 0.82622 0.91318 0.58013 0.0
C86 C 0.84575 0.92997 0.52096 0.0
C87 C 0.89582 0.97702 0.53221 0.0
U88 U 0.02911 0.08528 0.63805 0.0
O89 O 0.07093 0.18512 0.64039 0.0
O90 O 0.13972 0.10261 0.64237 0.0
C91 C 0.13419 0.16591 0.64299 0.0
C92 C 0.96825 0.03858 0.57888 0.0
C93 C 0.18331 0.20306 0.62527 0.0
C94 C 0.24001 0.22862 0.57499 0.0
C95 C 0.18968 0.19415 0.59001 0.0
C96 C 0.27728 0.28126 0.63028 0.0
C97 C 0.28483 0.27237 0.59504 0.0
C98 C 0.2271 0.24706 0.64514 0.0
C99 C 1.01396 0.06699 0.73325 0.0
C100 C 0.1073 0.08816 0.77819 0.0
C101 C 0.99186 0.08025 0.79321 0.0
C102 C 0.96824 0.06944 0.75838 0.0
C103 C 0.06183 0.08839 0.8036 0.0
C104 C 0.08358 0.078 0.74335 0.0
C105 C 0.98881 0.05144 0.69687 0.0
O106 O 0.95132 0.09327 0.59377 0.0
O107 O 0.02287 0.0134 0.59474 0.0
O108 O 0.02913 0.0161 0.6794 0.0
O109 O 0.96224 0.09968 0.67947 0.0
H110 H 0.88823 0.97084 0.61867 0.0
H111 H 0.8015 0.88799 0.59936 0.0
H112 H 0.83504 0.91921 0.49359 0.0
H113 H 0.92283 1.00081 0.51332 0.0
H114 H 0.24366 0.22115 0.54767 0.0
H115 H 0.15628 0.16035 0.57425 0.0
H116 H 0.31123 0.31353 0.64668 0.0
H117 H 0.22322 0.25424 0.67249 0.0
H118 H 0.16139 0.09464 0.78533 0.0
H119 H 0.95556 0.07926 0.81213 0.0
H120 H 0.91435 0.06142 0.75116 0.0
H121 H 0.11985 0.07728 0.72437 0.0
C122 C 0.47032 0.60108 0.96579 0.0
C123 C 0.42162 0.62221 0.94009 0.0
C124 C 0.38546 0.70543 0.97978 0.0
C125 C 0.37933 0.67382 0.94706 0.0
C126 C 0.43279 0.68237 1.00571 0.0
C127 C 0.475 0.63096 0.9987 0.0
U128 U 0.553 0.50059 0.89953 0.0
O129 O 0.58829 0.40034 0.89766 0.0
O130 O 0.66111 0.48084 0.89488 0.0
C131 C 0.65214 0.41789 0.89635 0.0
C132 C 0.51978 0.55165 0.9578 0.0
C133 C 0.70461 0.38225 0.91746 0.0
C134 C 0.73699 0.30338 0.96064 0.0
C135 C 0.68878 0.3449 0.94498 0.0
C136 C 0.81866 0.33833 0.9228 0.0
C137 C 0.80198 0.29822 0.94911 0.0
C138 C 0.77045 0.37969 0.90714 0.0
C139 C 0.49177 0.52173 0.8051 0.0
C140 C 0.55894 0.48944 0.75905 0.0
C141 C 0.44266 0.52257 0.74547 0.0
C142 C 0.43658 0.53269 0.78066 0.0
C143 C 0.50427 0.50154 0.73419 0.0
C144 C 0.55258 0.49902 0.7941 0.0
C145 C 0.48652 0.53608 0.84184 0.0
O146 O 0.49415 0.49616 0.94434 0.0
O147 O 0.57056 0.5735 0.94206 0.0
O148 O 0.53799 0.56938 0.8581 0.0
O149 O 0.46668 0.48746 0.85933 0.0
H150 H 0.4177 0.6 0.91438 0.0
H151 H 0.34383 0.69062 0.92649 0.0
H152 H 0.43805 0.70485 0.03136 0.0
H153 H 0.51234 0.61543 0.01882 0.0
H154 H 0.72274 0.27397 0.98122 0.0
H155 H 0.6385 0.34598 0.9536 0.0
H156 H 0.86778 0.33531 0.91299 0.0
H157 H 0.78375 0.40766 0.88581 0.0
H158 H 0.60766 0.47459 0.7515 0.0
H159 H 0.39935 0.53169 0.72715 0.0
H160 H 0.3891 0.54993 0.78878 0.0
H161 H 0.59576 0.49017 0.8126 0.0
C162 C 0.40986 0.49302 0.0671 0.0
C163 C 0.37424 0.46059 0.09078 0.0
C164 C 0.30802 0.39863 0.04382 0.0
C165 C 0.32387 0.41394 0.07928 0.0
C166 C 0.34265 0.4329 0.02023 0.0
C167 C 0.393 0.4794 0.03178 0.0
U168 U 0.52926 0.58548 0.13741 0.0
O169 O 0.57563 0.68328 0.13808 0.0
O170 O 0.64039 0.59805 0.14176 0.0
C171 C 0.63792 0.66139 0.13997 0.0
C172 C 0.46722 0.53807 0.07866 0.0
C173 C 0.68762 0.69374 0.11988 0.0
C174 C 0.80124 0.69785 0.10098 0.0
C175 C 0.74913 0.6637 0.1145 0.0
C176 C 0.73138 0.7928 0.09732 0.0
C177 C 0.7935 0.76316 0.09266 0.0
C178 C 0.67922 0.75861 0.11088 0.0
C179 C 0.51333 0.57202 0.23299 0.0
C180 C 0.60736 0.58989 0.27789 0.0
C181 C 0.49172 0.58668 0.29294 0.0
C182 C 0.46774 0.57657 0.25813 0.0
C183 C 0.56192 0.59201 0.30332 0.0
C184 C 0.58329 0.5804 0.24305 0.0
C185 C 0.48764 0.55636 0.1967 0.0
O186 O 0.45182 0.59382 0.09297 0.0
O187 O 0.52055 0.51165 0.09505 0.0
O188 O 0.52623 0.51847 0.17957 0.0
O189 O 0.46352 0.60507 0.17884 0.0
H190 H 0.3867 0.47005 0.11819 0.0
H191 H 0.29941 0.38798 0.09833 0.0
H192 H 0.33165 0.42305 0.99279 0.0
H193 H 0.41995 0.50364 0.01304 0.0
H194 H 0.84857 0.67357 0.0982 0.0
H195 H 0.75817 0.61435 0.12191 0.0
H196 H 0.72314 0.84269 0.09073 0.0
H197 H 0.63307 0.78372 0.11528 0.0
H198 H 0.66163 0.5942 0.28501 0.0
H199 H 0.4554 0.58721 0.31188 0.0
H200 H 0.4136 0.57052 0.25093 0.0
H201 H 0.6195 0.57795 0.22406 0.0
C202 C 0.24045 0.24023 0.99938 0.0
C203 C 0.18743 0.22412 0.01895 0.0
H204 H 0.32037 0.30745 0.99193 0.0
C205 C 0.16709 0.27053 0.04279 0.0
H206 H 0.2586 0.20449 0.98166 0.0
C207 C 0.20305 0.32953 0.04916 0.0
C208 C 0.26045 0.34323 0.03192 0.0
H209 H 0.12762 0.25863 0.05891 0.0
H210 H 0.18837 0.36268 0.06909 0.0
C211 C 0.27639 0.29919 1.00565 0.0
C212 C 0.24022 0.82464 0.98294 0.0
C213 C 0.27278 0.87651 1.00277 0.0
H214 H 0.25007 0.72919 0.96031 0.0
C215 C 0.34277 0.87263 0.01317 0.0
H216 H 0.18638 0.82605 0.97459 0.0
C217 C 0.3788 0.81767 1.00518 0.0
C218 C 0.34615 0.76468 0.98654 0.0
H219 H 0.36993 0.91183 0.02813 0.0
H220 H 0.43257 0.81667 0.0138 0.0
C221 C 0.27667 0.7692 0.97483 0.0
C222 C 0.91608 0.90024 0.07604 0.0
C223 C 0.95524 0.87048 0.05212 0.0
H224 H 0.83483 0.88989 0.10787 0.0
C225 C 0.94229 0.80474 0.04263 0.0
H226 H 0.92399 0.95094 0.08348 0.0
C227 C 0.8905 0.77009 0.05601 0.0
C228 C 0.85013 0.80006 0.07934 0.0
H229 H 0.97118 0.78021 0.02413 0.0
H230 H 0.88091 0.72015 0.04723 0.0
C231 C 0.86417 0.86544 0.08955 0.0
C232 C 0.96496 0.20887 0.97698 0.0
C233 C 0.93969 0.14588 0.98084 0.0
H234 H 0.94142 0.30674 0.96424 0.0
C235 C 0.86902 0.13468 0.97612 0.0
H236 H 1.01909 0.21918 0.98052 0.0
C237 C 0.82471 0.18454 0.96694 0.0
C238 C 0.8497 0.2472 0.96207 0.0
H239 H 0.84766 0.08683 0.97901 0.0
H240 H 0.77084 0.17326 0.96248 0.0
C241 C 0.92042 0.25893 0.96752 0.0
C242 C 0.6673 0.77114 0.54449 0.0
C243 C 0.68622 0.72394 0.52068 0.0
H244 H 0.69066 0.86328 0.57039 0.0
C245 C 0.73972 0.73843 0.50109 0.0
H246 H 0.6275 0.76049 0.56064 0.0
C247 C 0.77716 0.79668 0.50717 0.0
C248 C 0.76226 0.84162 0.53326 0.0
H249 H 0.75686 0.70202 0.48343 0.0
H250 H 0.82125 0.80377 0.49338 0.0
C251 C 0.70464 0.82943 0.55061 0.0
C252 C 0.83754 0.37255 0.51724 0.0
C253 C 0.76865 0.37771 0.50475 0.0
H254 H 0.92741 0.31652 0.51906 0.0
C255 C 0.73817 0.32785 0.48264 0.0
H256 H 0.86315 0.41018 0.53403 0.0
C257 C 0.77551 0.2732 0.47418 0.0
C258 C 0.84386 0.26741 0.48777 0.0
H259 H 0.68521 0.33025 0.47262 0.0
H260 H 0.75039 0.23478 0.45778 0.0
C261 C 0.87448 0.31837 0.50888 0.0
C262 C 0.42768 0.30967 0.54012 0.0
C263 C 0.44488 0.37448 0.55008 0.0
H264 H 0.3648 0.22676 0.54652 0.0
C265 C 0.40998 0.4052 0.57551 0.0
H266 H 0.45359 0.28434 0.52066 0.0
C267 C 0.35818 0.37224 0.59007 0.0
C268 C 0.34011 0.30768 0.57963 0.0
H269 H 0.42135 0.45523 0.58353 0.0
H270 H 0.33126 0.39797 0.60898 0.0
C271 C 0.37612 0.27674 0.5547 0.0
C272 C 0.46232 0.71176 0.47528 0.0
C273 C 0.43687 0.64885 0.47918 0.0
H274 H 0.43898 0.80968 0.46251 0.0
C275 C 0.36615 0.63787 0.47454 0.0
H276 H 0.5165 0.72187 0.47876 0.0
C277 C 0.32198 0.68784 0.4654 0.0
C278 C 0.34709 0.75041 0.4605 0.0
H279 H 0.34463 0.59013 0.47747 0.0
H280 H 0.26806 0.67669 0.46102 0.0
C281 C 0.41789 0.76195 0.46584 0.0
C282 C 0.11111 0.97668 0.16051 0.0
C283 C 0.0715 1.00303 0.13274 0.0
H284 H 0.12123 0.95733 0.21394 0.0
C285 C 1.00644 0.02541 0.13761 0.0
H286 H 0.16144 0.95883 0.15749 0.0
C287 C 0.98288 0.02415 0.17025 0.0
C288 C 0.02399 1.00024 0.19842 0.0
H289 H 0.97521 0.04656 0.11669 0.0
H290 H 0.93329 0.04333 0.17363 0.0
C291 C 0.0877 0.97522 0.19287 0.0
C292 C 0.06963 0.1155 0.90075 0.0
C293 C 0.11733 0.06916 0.91188 0.0
H294 H 1.014 0.15786 0.85734 0.0
C295 C 0.15426 0.03773 0.88754 0.0
H296 H 0.03963 0.13958 0.91892 0.0
C297 C 0.13987 0.04822 0.85244 0.0
C298 C 0.0873 0.08954 0.84087 0.0
H299 H 0.19063 1.00114 0.89546 0.0
H300 H 0.16607 0.01976 0.83426 0.0
C301 C 0.05428 0.12519 0.86547 0.0
C302 C 0.50601 0.54357 0.64036 0.0
C303 C 0.55381 0.49981 0.62977 0.0
H304 H 0.45354 0.57943 0.6822 0.0
C305 C 0.57714 0.45102 0.6517 0.0
H306 H 0.48786 0.58187 0.6238 0.0
C307 C 0.55663 0.4485 0.6847 0.0
C308 C 0.51385 0.49598 0.69685 0.0
H309 H 0.61376 0.41648 0.64381 0.0
H310 H 0.57697 0.41109 0.70126 0.0
C311 C 0.48644 0.54197 0.67379 0.0
C312 C 0.65177 0.53725 0.38701 0.0
C313 C 0.61613 0.56991 0.41147 0.0
H314 H 0.66299 0.51918 0.33368 0.0
C315 C 0.57056 0.61821 0.40053 0.0
H316 H 0.68654 0.49923 0.39476 0.0
C317 C 0.5558 0.62875 0.36531 0.0
C318 C 0.58734 0.59199 0.34057 0.0
H319 H 0.5416 0.64337 0.41879 0.0
H320 H 0.51705 0.66307 0.35732 0.0
C321 C 0.63799 0.54854 0.35197 0.0
loop_
_geom_bond_atom_site_label_1
_geom_bond_atom_site_label_2
_geom_bond_distance
_geom_bond_site_symmetry_2
_ccdc_geom_bond_type
Zn0 O6 1.920 1_545 S
Zn0 O12 1.898 . S
Zn0 O15 1.905 1_545 S
Zn1 O9 1.905 . S
Zn1 O10 1.898 1_545 S
Zn1 O18 1.920 1_545 S
Zn2 O5 2.080 1_445 S
Zn2 O8 2.114 . S
Zn2 O11 2.120 1_545 S
Zn2 O13 2.120 1_455 S
Zn2 O14 2.114 1_554 S
Zn2 O17 2.080 . S
C3 O8 1.166 . S
C3 O9 1.182 . S
C4 O10 1.167 . S
C4 O11 1.299 . S
O5 Zn2 2.080 1_665 S
O5 C19 1.305 . S
O6 Zn0 1.920 1_565 S
O6 C19 1.234 1_556 S
C7 O12 1.167 . S
C7 O13 1.299 1_556 S
O8 Zn2 2.114 . S
O8 C3 1.166 . S
O9 Zn1 1.905 . S
O9 C3 1.182 . S
O10 Zn1 1.898 1_565 S
O10 C4 1.167 . S
O11 Zn2 2.120 1_565 S
O11 C4 1.299 . S
O12 Zn0 1.898 . S
O12 C7 1.167 . S
O13 Zn2 2.120 1_655 S
O13 C7 1.299 1_554 S
O14 Zn2 2.114 1_556 S
O14 C16 1.166 1_545 S
O15 Zn0 1.905 1_565 S
O15 C16 1.182 1_655 S
C16 O14 1.166 1_565 S
C16 O15 1.182 1_455 S
O17 Zn2 2.080 . S
O17 C20 1.305 1_545 S
O18 Zn1 1.920 1_565 S
O18 C20 1.234 . S
C19 O5 1.305 . S
C19 O6 1.234 1_554 S
C20 O17 1.305 1_565 S
C20 O18 1.234 . S
Zn21 O27 1.920 . S
Zn21 O33 1.898 . S
Zn21 O36 1.905 . S
Zn22 O30 1.905 . S
Zn22 O31 1.898 . S
Zn22 O39 1.920 . S
Zn23 O26 2.080 . S
Zn23 O29 2.114 . S
Zn23 O32 2.120 . S
Zn23 O34 2.120 . S
Zn23 O35 2.114 . S
Zn23 O38 2.080 . S
C24 O29 1.166 . S
C24 O30 1.182 . S
C25 O31 1.167 . S
C25 O32 1.299 . S
O26 Zn23 2.080 . S
O26 C40 1.305 . S
O27 Zn21 1.920 . S
O27 C40 1.234 . S
C28 O33 1.167 . S
C28 O34 1.299 . S
O29 Zn23 2.114 . S
O29 C24 1.166 . S
O30 Zn22 1.905 . S
O30 C24 1.182 . S
O31 Zn22 1.898 . S
O31 C25 1.167 . S
O32 Zn23 2.120 . S
O32 C25 1.299 . S
O33 Zn21 1.898 . S
O33 C28 1.167 . S
O34 Zn23 2.120 . S
O34 C28 1.299 . S
O35 Zn23 2.114 . S
O35 C37 1.166 . S
O36 Zn21 1.905 . S
O36 C37 1.182 . S
C37 O35 1.166 . S
C37 O36 1.182 . S
O38 Zn23 2.080 . S
O38 C41 1.305 . S
O39 Zn22 1.920 . S
O39 C41 1.234 . S
C40 O26 1.305 . S
C40 O27 1.234 . S
C41 O38 1.305 . S
C41 O39 1.234 . S
C42 C43 1.264 . S
C42 C47 1.479 . S
C42 C52 1.465 1_655 S
C43 C42 1.264 . S
C43 C45 1.339 . S
C43 H70 0.931 . S
C44 C45 1.395 . S
C44 C46 1.320 . S
C45 C43 1.339 . S
C45 C44 1.395 . S
C45 H71 0.929 . S
C46 C44 1.320 . S
C46 C47 1.405 . S
C46 H72 0.930 . S
C47 C42 1.479 . S
C47 C46 1.405 . S
C47 H73 0.931 . S
U48 O49 2.454 . S
U48 O50 2.458 1_545 S
U48 C51 2.984 1_545 S
U48 C52 2.847 . S
U48 C65 2.882 . S
U48 O66 2.441 . S
U48 O67 2.420 . S
U48 O68 2.455 . S
U48 O69 2.449 . S
O49 U48 2.454 . S
O49 C51 1.353 1_545 S
O50 U48 2.458 1_565 S
O50 C51 1.286 . S
C51 U48 2.984 1_565 S
C51 O49 1.353 1_565 S
C51 O50 1.286 . S
C51 C53 1.363 . S
C52 C42 1.465 1_455 S
C52 U48 2.847 . S
C52 O66 1.249 . S
C52 O67 1.202 . S
C53 C51 1.363 . S
C53 C55 1.408 . S
C53 C58 1.342 . S
C54 C55 1.310 . S
C54 C57 1.461 . S
C54 H74 0.932 . S
C55 C53 1.408 . S
C55 C54 1.310 . S
C55 H75 0.930 . S
C56 C57 1.474 . S
C56 C58 1.285 . S
C56 H76 0.929 . S
C57 C54 1.461 . S
C57 C56 1.474 . S
C58 C53 1.342 . S
C58 C56 1.285 . S
C58 H77 0.930 . S
C59 C62 1.424 . S
C59 C64 1.245 . S
C59 C65 1.428 . S
C60 C63 1.260 . S
C60 C64 1.477 . S
C60 H78 0.925 1_545 S
C61 C62 1.384 . S
C61 C63 1.479 . S
C61 H79 0.929 . S
C62 C59 1.424 . S
C62 C61 1.384 . S
C62 H80 0.928 . S
C63 C60 1.260 . S
C63 C61 1.479 . S
C64 C59 1.245 . S
C64 C60 1.477 . S
C64 H81 0.932 1_545 S
C65 U48 2.882 . S
C65 C59 1.428 . S
C65 O68 1.301 . S
C65 O69 1.282 . S
O66 U48 2.441 . S
O66 C52 1.249 . S
O67 U48 2.420 . S
O67 C52 1.202 . S
O68 U48 2.455 . S
O68 C65 1.301 . S
O69 U48 2.449 . S
O69 C65 1.282 . S
H70 C43 0.931 . S
H71 C45 0.929 . S
H72 C46 0.930 . S
H73 C47 0.931 . S
H74 C54 0.932 . S
H75 C55 0.930 . S
H76 C56 0.929 . S
H77 C58 0.930 . S
H78 C60 0.925 1_565 S
H79 C61 0.929 . S
H80 C62 0.928 . S
H81 C64 0.932 1_565 S
C82 C83 1.264 . S
C82 C87 1.479 . S
C82 C92 1.465 . S
C83 C82 1.264 . S
C83 C85 1.339 . S
C83 H110 0.931 . S
C84 C85 1.395 . S
C84 C86 1.320 . S
C85 C83 1.339 . S
C85 C84 1.395 . S
C85 H111 0.929 . S
C86 C84 1.320 . S
C86 C87 1.405 . S
C86 H112 0.930 . S
C87 C82 1.479 . S
C87 C86 1.405 . S
C87 H113 0.931 . S
U88 O89 2.454 . S
U88 O90 2.458 . S
U88 C91 2.984 . S
U88 C92 2.847 1_445 S
U88 C105 2.882 . S
U88 O106 2.441 1_445 S
U88 O107 2.420 1_445 S
U88 O108 2.455 . S
U88 O109 2.449 1_545 S
O89 U88 2.454 . S
O89 C91 1.353 . S
O90 U88 2.458 . S
O90 C91 1.286 . S
C91 U88 2.984 . S
C91 O89 1.353 . S
C91 O90 1.286 . S
C91 C93 1.363 . S
C92 C82 1.465 . S
C92 U88 2.847 1_665 S
C92 O106 1.249 . S
C92 O107 1.202 . S
C93 C91 1.363 . S
C93 C95 1.408 . S
C93 C98 1.342 . S
C94 C95 1.310 . S
C94 C97 1.461 . S
C94 H114 0.932 . S
C95 C93 1.408 . S
C95 C94 1.310 . S
C95 H115 0.930 . S
C96 C97 1.474 . S
C96 C98 1.285 . S
C96 H116 0.929 . S
C97 C94 1.461 . S
C97 C96 1.474 . S
C98 C93 1.342 . S
C98 C96 1.285 . S
C98 H117 0.930 . S
C99 C102 1.424 1_445 S
C99 C104 1.245 . S
C99 C105 1.428 . S
C100 C103 1.260 . S
C100 C104 1.477 . S
C100 H118 0.932 . S
C101 C102 1.384 . S
C101 C103 1.479 1_665 S
C101 H119 0.929 . S
C102 C99 1.424 1_665 S
C102 C101 1.384 . S
C102 H120 0.928 . S
C103 C100 1.260 . S
C103 C101 1.479 1_445 S
C104 C99 1.245 . S
C104 C100 1.477 . S
C104 H121 0.932 . S
C105 U88 2.882 . S
C105 C99 1.428 . S
C105 O108 1.301 . S
C105 O109 1.282 1_545 S
O106 U88 2.441 1_665 S
O106 C92 1.249 . S
O107 U88 2.420 1_665 S
O107 C92 1.202 . S
O108 U88 2.455 . S
O108 C105 1.301 . S
O109 U88 2.449 1_565 S
O109 C105 1.282 1_565 S
H110 C83 0.931 . S
H111 C85 0.929 . S
H112 C86 0.930 . S
H113 C87 0.931 . S
H114 C94 0.932 . S
H115 C95 0.930 . S
H116 C96 0.929 . S
H117 C98 0.930 . S
H118 C100 0.932 . S
H119 C101 0.929 . S
H120 C102 0.928 . S
H121 C104 0.932 . S
C122 C123 1.264 . S
C122 C127 1.479 . S
C122 C132 1.465 . S
C123 C122 1.264 . S
C123 C125 1.339 . S
C123 H150 0.931 . S
C124 C125 1.395 . S
C124 C126 1.320 1_556 S
C125 C123 1.339 . S
C125 C124 1.395 . S
C125 H151 0.929 . S
C126 C124 1.320 1_554 S
C126 C127 1.405 1_554 S
C126 H152 0.930 . S
C127 C122 1.479 . S
C127 C126 1.405 1_556 S
C127 H153 0.931 1_556 S
U128 O129 2.454 . S
U128 O130 2.458 . S
U128 C131 2.984 . S
U128 C132 2.847 . S
U128 C145 2.882 . S
U128 O146 2.441 . S
U128 O147 2.420 . S
U128 O148 2.455 . S
U128 O149 2.449 . S
O129 U128 2.454 . S
O129 C131 1.353 . S
O130 U128 2.458 . S
O130 C131 1.286 . S
C131 U128 2.984 . S
C131 O129 1.353 . S
C131 O130 1.286 . S
C131 C133 1.363 . S
C132 C122 1.465 . S
C132 U128 2.847 . S
C132 O146 1.249 . S
C132 O147 1.202 . S
C133 C131 1.363 . S
C133 C135 1.408 . S
C133 C138 1.342 . S
C134 C135 1.310 1_554 S
C134 C137 1.461 1_554 S
C134 H154 0.932 . S
C135 C133 1.408 . S
C135 C134 1.310 1_556 S
C135 H155 0.930 1_556 S
C136 C137 1.474 . S
C136 C138 1.285 . S
C136 H156 0.929 . S
C137 C134 1.461 1_556 S
C137 C136 1.474 . S
C138 C133 1.342 . S
C138 C136 1.285 . S
C138 H157 0.930 . S
C139 C142 1.424 . S
C139 C144 1.245 . S
C139 C145 1.428 . S
C140 C143 1.260 . S
C140 C144 1.477 . S
C140 H158 0.932 . S
C141 C142 1.384 . S
C141 C143 1.479 . S
C141 H159 0.929 . S
C142 C139 1.424 . S
C142 C141 1.384 . S
C142 H160 0.928 . S
C143 C140 1.260 . S
C143 C141 1.479 . S
C144 C139 1.245 . S
C144 C140 1.477 . S
C144 H161 0.932 . S
C145 U128 2.882 . S
C145 C139 1.428 . S
C145 O148 1.301 . S
C145 O149 1.282 . S
O146 U128 2.441 . S
O146 C132 1.249 . S
O147 U128 2.420 . S
O147 C132 1.202 . S
O148 U128 2.455 . S
O148 C145 1.301 . S
O149 U128 2.449 . S
O149 C145 1.282 . S
H150 C123 0.931 . S
H151 C125 0.929 . S
H152 C126 0.930 . S
H153 C127 0.931 1_554 S
H154 C134 0.932 . S
H155 C135 0.930 1_554 S
H156 C136 0.929 . S
H157 C138 0.930 . S
H158 C140 0.932 . S
H159 C141 0.929 . S
H160 C142 0.928 . S
H161 C144 0.932 . S
C162 C163 1.264 . S
C162 C167 1.479 . S
C162 C172 1.465 . S
C163 C162 1.264 . S
C163 C165 1.339 . S
C163 H190 0.931 . S
C164 C165 1.395 . S
C164 C166 1.320 . S
C165 C163 1.339 . S
C165 C164 1.395 . S
C165 H191 0.929 . S
C166 C164 1.320 . S
C166 C167 1.405 . S
C166 H192 0.930 1_554 S
C167 C162 1.479 . S
C167 C166 1.405 . S
C167 H193 0.931 . S
U168 O169 2.454 . S
U168 O170 2.458 . S
U168 C171 2.984 . S
U168 C172 2.847 . S
U168 C185 2.882 . S
U168 O186 2.441 . S
U168 O187 2.420 . S
U168 O188 2.455 . S
U168 O189 2.449 . S
O169 U168 2.454 . S
O169 C171 1.353 . S
O170 U168 2.458 . S
O170 C171 1.286 . S
C171 U168 2.984 . S
C171 O169 1.353 . S
C171 O170 1.286 . S
C171 C173 1.363 . S
C172 C162 1.465 . S
C172 U168 2.847 . S
C172 O186 1.249 . S
C172 O187 1.202 . S
C173 C171 1.363 . S
C173 C175 1.408 . S
C173 C178 1.342 . S
C174 C175 1.310 . S
C174 C177 1.461 . S
C174 H194 0.932 1_554 S
C175 C173 1.408 . S
C175 C174 1.310 . S
C175 H195 0.930 . S
C176 C177 1.474 . S
C176 C178 1.285 . S
C176 H196 0.929 . S
C177 C174 1.461 . S
C177 C176 1.474 . S
C178 C173 1.342 . S
C178 C176 1.285 . S
C178 H197 0.930 . S
C179 C182 1.424 . S
C179 C184 1.245 . S
C179 C185 1.428 . S
C180 C183 1.260 . S
C180 C184 1.477 . S
C180 H198 0.932 . S
C181 C182 1.384 . S
C181 C183 1.479 . S
C181 H199 0.929 . S
C182 C179 1.424 . S
C182 C181 1.384 . S
C182 H200 0.928 . S
C183 C180 1.260 . S
C183 C181 1.479 . S
C184 C179 1.245 . S
C184 C180 1.477 . S
C184 H201 0.932 . S
C185 U168 2.882 . S
C185 C179 1.428 . S
C185 O188 1.301 . S
C185 O189 1.282 . S
O186 U168 2.441 . S
O186 C172 1.249 . S
O187 U168 2.420 . S
O187 C172 1.202 . S
O188 U168 2.455 . S
O188 C185 1.301 . S
O189 U168 2.449 . S
O189 C185 1.282 . S
H190 C163 0.931 . S
H191 C165 0.929 . S
H192 C166 0.930 1_556 S
H193 C167 0.931 . S
H194 C174 0.932 1_556 S
H195 C175 0.930 . S
H196 C176 0.929 . S
H197 C178 0.930 . S
H198 C180 0.932 . S
H199 C181 0.929 . S
H200 C182 0.928 . S
H201 C184 0.932 . S
C202 C203 1.387 1_556 S
C202 H206 0.950 . S
C202 C211 1.390 . S
C203 C202 1.387 1_554 S
C203 C205 1.387 . S
H204 C211 0.950 . S
C205 C203 1.387 . S
C205 C207 1.390 . S
C205 H209 0.950 . S
H206 C202 0.950 . S
C207 C205 1.390 . S
C207 C208 1.387 . S
C207 H210 0.950 . S
C208 C207 1.387 . S
C208 C211 1.387 1_554 S
H209 C205 0.950 . S
H210 C207 0.950 . S
C211 C202 1.390 . S
C211 H204 0.950 . S
C211 C208 1.387 1_556 S
C212 C213 1.387 . S
C212 H216 0.950 . S
C212 C221 1.390 . S
C213 C212 1.387 . S
C213 C215 1.387 1_556 S
H214 C221 0.950 . S
C215 C213 1.387 1_554 S
C215 C217 1.390 . S
C215 H219 0.950 . S
H216 C212 0.950 . S
C217 C215 1.390 . S
C217 C218 1.387 1_554 S
C217 H220 0.950 . S
C218 C217 1.387 1_556 S
C218 C221 1.387 . S
H219 C215 0.950 . S
H220 C217 0.950 . S
C221 C212 1.390 . S
C221 H214 0.950 . S
C221 C218 1.387 . S
C222 C223 1.387 . S
C222 H226 0.950 . S
C222 C231 1.390 . S
C223 C222 1.387 . S
C223 C225 1.387 1_554 S
H224 C231 0.950 . S
C225 C223 1.387 1_556 S
C225 C227 1.390 . S
C225 H229 0.950 . S
H226 C222 0.950 . S
C227 C225 1.390 . S
C227 C228 1.387 1_556 S
C227 H230 0.950 . S
C228 C227 1.387 1_554 S
C228 C231 1.387 . S
H229 C225 0.950 . S
H230 C227 0.950 . S
C231 C222 1.390 . S
C231 H224 0.950 . S
C231 C228 1.387 . S
C232 C233 1.408 . S
C232 H236 0.950 . S
C232 C241 1.390 . S
C233 C232 1.408 . S
C233 C235 1.366 1_556 S
H234 C241 0.950 . S
C235 C233 1.366 1_554 S
C235 C237 1.390 . S
C235 H239 0.950 . S
H236 C232 0.950 . S
C237 C235 1.390 . S
C237 C238 1.399 . S
C237 H240 0.950 . S
C238 C237 1.399 . S
C238 C241 1.375 1_554 S
H239 C235 0.950 . S
H240 C237 0.950 . S
C241 C232 1.390 . S
C241 H234 0.950 . S
C241 C238 1.375 1_556 S
C242 C243 1.387 . S
C242 H246 0.950 . S
C242 C251 1.390 . S
C243 C242 1.387 . S
C243 C245 1.387 . S
H244 C251 0.950 . S
C245 C243 1.387 . S
C245 C247 1.390 . S
C245 H249 0.950 . S
H246 C242 0.950 . S
C247 C245 1.390 . S
C247 C248 1.387 . S
C247 H250 0.950 . S
C248 C247 1.387 . S
C248 C251 1.387 . S
H249 C245 0.950 . S
H250 C247 0.950 . S
C251 C242 1.390 . S
C251 H244 0.950 . S
C251 C248 1.387 . S
C252 C253 1.387 . S
C252 H256 0.950 . S
C252 C261 1.390 . S
C253 C252 1.387 . S
C253 C255 1.387 . S
H254 C261 0.950 . S
C255 C253 1.387 . S
C255 C257 1.390 . S
C255 H259 0.950 . S
H256 C252 0.950 . S
C257 C255 1.390 . S
C257 C258 1.387 . S
C257 H260 0.950 . S
C258 C257 1.387 . S
C258 C261 1.387 . S
H259 C255 0.950 . S
H260 C257 0.950 . S
C261 C252 1.390 . S
C261 H254 0.950 . S
C261 C258 1.387 . S
C262 C263 1.387 . S
C262 H266 0.950 . S
C262 C271 1.390 . S
C263 C262 1.387 . S
C263 C265 1.387 . S
H264 C271 0.950 . S
C265 C263 1.387 . S
C265 C267 1.390 . S
C265 H269 0.950 . S
H266 C262 0.950 . S
C267 C265 1.390 . S
C267 C268 1.387 . S
C267 H270 0.950 . S
C268 C267 1.387 . S
C268 C271 1.387 . S
H269 C265 0.950 . S
H270 C267 0.950 . S
C271 C262 1.390 . S
C271 H264 0.950 . S
C271 C268 1.387 . S
C272 C273 1.387 . S
C272 H276 0.950 . S
C272 C281 1.390 . S
C273 C272 1.387 . S
C273 C275 1.387 . S
H274 C281 0.950 . S
C275 C273 1.387 . S
C275 C277 1.390 . S
C275 H279 0.950 . S
H276 C272 0.950 . S
C277 C275 1.390 . S
C277 C278 1.387 . S
C277 H280 0.950 . S
C278 C277 1.387 . S
C278 C281 1.387 . S
H279 C275 0.950 . S
H280 C277 0.950 . S
C281 C272 1.390 . S
C281 H274 0.950 . S
C281 C278 1.387 . S
C282 C283 1.387 . S
C282 H286 0.950 . S
C282 C291 1.390 1_565 S
C283 C282 1.387 . S
C283 C285 1.387 1_465 S
H284 C291 0.950 . S
C285 C283 1.387 1_645 S
C285 C287 1.390 1_655 S
C285 H289 0.950 . S
H286 C282 0.950 . S
C287 C285 1.390 1_455 S
C287 C288 1.387 . S
C287 H290 0.950 1_455 S
C288 C287 1.387 . S
C288 C291 1.387 . S
H289 C285 0.950 . S
H290 C287 0.950 1_655 S
C291 C282 1.390 1_545 S
C291 H284 0.950 . S
C291 C288 1.387 . S
C292 C293 1.387 1_655 S
C292 H296 0.950 . S
C292 C301 1.390 . S
C293 C292 1.387 1_455 S
C293 C295 1.387 1_565 S
H294 C301 0.950 . S
C295 C293 1.387 1_545 S
C295 C297 1.390 . S
C295 H299 0.950 . S
H296 C292 0.950 . S
C297 C295 1.390 . S
C297 C298 1.387 . S
C297 H300 0.950 . S
C298 C297 1.387 . S
C298 C301 1.387 1_445 S
H299 C295 0.950 . S
H300 C297 0.950 . S
C301 C292 1.390 . S
C301 H294 0.950 . S
C301 C298 1.387 1_665 S
C302 C303 1.387 . S
C302 H306 0.950 . S
C302 C311 1.390 . S
C303 C302 1.387 . S
C303 C305 1.387 . S
H304 C311 0.950 . S
C305 C303 1.387 . S
C305 C307 1.390 . S
C305 H309 0.950 . S
H306 C302 0.950 . S
C307 C305 1.390 . S
C307 C308 1.387 . S
C307 H310 0.950 . S
C308 C307 1.387 . S
C308 C311 1.387 . S
H309 C305 0.950 . S
H310 C307 0.950 . S
C311 C302 1.390 . S
C311 H304 0.950 . S
C311 C308 1.387 . S
C312 C313 1.387 . S
C312 H316 0.950 . S
C312 C321 1.390 . S
C313 C312 1.387 . S
C313 C315 1.387 . S
H314 C321 0.950 . S
C315 C313 1.387 . S
C315 C317 1.390 . S
C315 H319 0.950 . S
H316 C312 0.950 . S
C317 C315 1.390 . S
C317 C318 1.387 . S
C317 H320 0.950 . S
C318 C317 1.387 . S
C318 C321 1.387 . S
H319 C315 0.950 . S
H320 C317 0.950 . S
C321 C312 1.390 . S
C321 H314 0.950 . S
C321 C318 1.387 . S
C208 C164 1.355 . S
C203 C3 1.280 . S
C213 C4 1.514 1_556 S
C218 C124 1.673 . S
C223 C19 1.542 . S
C228 C177 1.667 . S
C233 C7 1.299 . S
C238 C137 1.355 1_554 S
C243 C37 1.284 . S
C248 C84 1.353 . S
C253 C28 1.512 . S
C258 C44 1.674 . S
C268 C97 1.666 . S
C263 C41 1.540 . S
C278 C57 1.358 . S
C273 C25 1.294 . S
C283 C20 1.325 . S
C288 C63 1.533 . S
C293 C16 1.361 . S
C298 C103 1.511 . S
C308 C143 1.533 . S
C303 C40 1.321 . S
C313 C24 1.361 . S
C318 C183 1.511 . S
