# Generated by pormake.
# Topology ocu, (6,8)-cn, num edge types: 1
# Building blocks:
#     Node 0, Type 0, BuildingBlock: FUNLAD_clean_sbu_0, # of connection points: 6
#     Node 1, Type 0, BuildingBlock: FUNLAD_clean_sbu_0, # of connection points: 6
#     Node 2, Type 0, BuildingBlock: FUNLAD_clean_sbu_0, # of connection points: 6
#     Node 3, Type 0, BuildingBlock: FUNLAD_clean_sbu_0, # of connection points: 6
#     Node 4, Type 0, BuildingBlock: FUNLAD_clean_sbu_0, # of connection points: 6
#     Node 5, Type 0, BuildingBlock: FUNLAD_clean_sbu_0, # of connection points: 6
#     Node 6, Type 0, BuildingBlock: FUNLAD_clean_sbu_0, # of connection points: 6
#     Node 7, Type 0, BuildingBlock: FUNLAD_clean_sbu_0, # of connection points: 6
#     Node 8, Type 1, BuildingBlock: VETTIZ_charged_sbu_0, # of connection points: 8
#     Node 9, Type 1, BuildingBlock: VETTIZ_charged_sbu_0, # of connection points: 8
#     Node 10, Type 1, BuildingBlock: VETTIZ_charged_sbu_0, # of connection points: 8
#     Node 11, Type 1, BuildingBlock: VETTIZ_charged_sbu_0, # of connection points: 8
#     Node 12, Type 1, BuildingBlock: VETTIZ_charged_sbu_0, # of connection points: 8
#     Node 13, Type 1, BuildingBlock: VETTIZ_charged_sbu_0, # of connection points: 8
#     Edge 14, Type (0, 1), BuildingBlock: CIFDUS_clean_linker_0, # of connection points: 2
#     Edge 15, Type (0, 1), BuildingBlock: CIFDUS_clean_linker_0, # of connection points: 2
#     Edge 16, Type (0, 1), BuildingBlock: CIFDUS_clean_linker_0, # of connection points: 2
#     Edge 17, Type (0, 1), BuildingBlock: CIFDUS_clean_linker_0, # of connection points: 2
#     Edge 18, Type (0, 1), BuildingBlock: CIFDUS_clean_linker_0, # of connection points: 2
#     Edge 19, Type (0, 1), BuildingBlock: CIFDUS_clean_linker_0, # of connection points: 2
#     Edge 20, Type (0, 1), BuildingBlock: CIFDUS_clean_linker_0, # of connection points: 2
#     Edge 21, Type (0, 1), BuildingBlock: CIFDUS_clean_linker_0, # of connection points: 2
#     Edge 22, Type (0, 1), BuildingBlock: CIFDUS_clean_linker_0, # of connection points: 2
#     Edge 23, Type (0, 1), BuildingBlock: CIFDUS_clean_linker_0, # of connection points: 2
#     Edge 24, Type (0, 1), BuildingBlock: CIFDUS_clean_linker_0, # of connection points: 2
#     Edge 25, Type (0, 1), BuildingBlock: CIFDUS_clean_linker_0, # of connection points: 2
#     Edge 26, Type (0, 1), BuildingBlock: CIFDUS_clean_linker_0, # of connection points: 2
#     Edge 27, Type (0, 1), BuildingBlock: CIFDUS_clean_linker_0, # of connection points: 2
#     Edge 28, Type (0, 1), BuildingBlock: CIFDUS_clean_linker_0, # of connection points: 2
#     Edge 29, Type (0, 1), BuildingBlock: CIFDUS_clean_linker_0, # of connection points: 2
#     Edge 30, Type (0, 1), BuildingBlock: CIFDUS_clean_linker_0, # of connection points: 2
#     Edge 31, Type (0, 1), BuildingBlock: CIFDUS_clean_linker_0, # of connection points: 2
#     Edge 32, Type (0, 1), BuildingBlock: CIFDUS_clean_linker_0, # of connection points: 2
#     Edge 33, Type (0, 1), BuildingBlock: CIFDUS_clean_linker_0, # of connection points: 2
#     Edge 34, Type (0, 1), BuildingBlock: CIFDUS_clean_linker_0, # of connection points: 2
#     Edge 35, Type (0, 1), BuildingBlock: CIFDUS_clean_linker_0, # of connection points: 2
#     Edge 36, Type (0, 1), BuildingBlock: CIFDUS_clean_linker_0, # of connection points: 2
#     Edge 37, Type (0, 1), BuildingBlock: CIFDUS_clean_linker_0, # of connection points: 2
#     Edge 38, Type (0, 1), BuildingBlock: CIFDUS_clean_linker_0, # of connection points: 2
#     Edge 39, Type (0, 1), BuildingBlock: CIFDUS_clean_linker_0, # of connection points: 2
#     Edge 40, Type (0, 1), BuildingBlock: CIFDUS_clean_linker_0, # of connection points: 2
#     Edge 41, Type (0, 1), BuildingBlock: CIFDUS_clean_linker_0, # of connection points: 2
#     Edge 42, Type (0, 1), BuildingBlock: CIFDUS_clean_linker_0, # of connection points: 2
#     Edge 43, Type (0, 1), BuildingBlock: CIFDUS_clean_linker_0, # of connection points: 2
#     Edge 44, Type (0, 1), BuildingBlock: CIFDUS_clean_linker_0, # of connection points: 2
#     Edge 45, Type (0, 1), BuildingBlock: CIFDUS_clean_linker_0, # of connection points: 2
#     Edge 46, Type (0, 1), BuildingBlock: CIFDUS_clean_linker_0, # of connection points: 2
#     Edge 47, Type (0, 1), BuildingBlock: CIFDUS_clean_linker_0, # of connection points: 2
#     Edge 48, Type (0, 1), BuildingBlock: CIFDUS_clean_linker_0, # of connection points: 2
#     Edge 49, Type (0, 1), BuildingBlock: CIFDUS_clean_linker_0, # of connection points: 2
#     Edge 50, Type (0, 1), BuildingBlock: CIFDUS_clean_linker_0, # of connection points: 2
#     Edge 51, Type (0, 1), BuildingBlock: CIFDUS_clean_linker_0, # of connection points: 2
#     Edge 52, Type (0, 1), BuildingBlock: CIFDUS_clean_linker_0, # of connection points: 2
#     Edge 53, Type (0, 1), BuildingBlock: CIFDUS_clean_linker_0, # of connection points: 2
#     Edge 54, Type (0, 1), BuildingBlock: CIFDUS_clean_linker_0, # of connection points: 2
#     Edge 55, Type (0, 1), BuildingBlock: CIFDUS_clean_linker_0, # of connection points: 2
#     Edge 56, Type (0, 1), BuildingBlock: CIFDUS_clean_linker_0, # of connection points: 2
#     Edge 57, Type (0, 1), BuildingBlock: CIFDUS_clean_linker_0, # of connection points: 2
#     Edge 58, Type (0, 1), BuildingBlock: CIFDUS_clean_linker_0, # of connection points: 2
#     Edge 59, Type (0, 1), BuildingBlock: CIFDUS_clean_linker_0, # of connection points: 2
#     Edge 60, Type (0, 1), BuildingBlock: CIFDUS_clean_linker_0, # of connection points: 2
#     Edge 61, Type (0, 1), BuildingBlock: CIFDUS_clean_linker_0, # of connection points: 2
# Relax obj value: 0.161
# Max RMSD: 0.264
# Mean RMSD: 0.158
data_MOF--net-ocu--node1-FUNLAD_clean_sbu_0--node2-VETTIZ_charged_sbu_0--edge1-CIFDUS_clean_linker_0
_symmetry_space_group_name_H-M    P1
_symmetry_Int_Tables_number       1
_symmetry_cell_setting            triclinic
loop_
_symmetry_equiv_pos_as_xyz
'x, y, z'
_cell_length_a     34.684832
_cell_length_b     34.527909
_cell_length_c     34.831842
_cell_angle_alpha  83.054804
_cell_angle_beta   83.953983
_cell_angle_gamma 80.713921
loop_
_atom_site_label
_atom_site_type_symbol
_atom_site_fract_x
_atom_site_fract_y
_atom_site_fract_z
_atom_type_partial_charge
C0 C 0.21757 0.29049 0.31193 0.0
N1 N 0.20168 0.19975 0.2451 0.0
C2 C 0.16539 0.21668 0.23509 0.0
C3 C 0.13653 0.19348 0.23317 0.0
C4 C 0.14402 0.15274 0.24466 0.0
C5 C 0.18286 0.13569 0.2509 0.0
C6 C 0.21143 0.15986 0.25049 0.0
Zn7 Zn 0.24255 0.23439 0.25102 0.0
C8 C 0.22884 0.31035 0.19822 0.0
N9 N 0.32777 0.30765 0.25819 0.0
C10 C 0.33442 0.32042 0.29214 0.0
C11 C 0.34835 0.31799 0.22419 0.0
C12 C 0.3768 0.34188 0.22326 0.0
C13 C 0.38301 0.35707 0.25725 0.0
C14 C 0.36173 0.34621 0.29219 0.0
Zn15 Zn 0.2865 0.2733 0.25454 0.0
O16 O 0.2057 0.26248 0.29789 0.0
C17 C 0.301 0.19818 0.30704 0.0
O18 O 0.25021 0.30084 0.29825 0.0
H19 H 0.34188 0.30894 0.19728 0.0
H20 H 0.15792 0.24835 0.2303 0.0
H21 H 0.31771 0.3117 0.31889 0.0
O22 O 0.27117 0.19087 0.29244 0.0
O23 O 0.31305 0.23106 0.29701 0.0
H24 H 0.24088 0.14672 0.25661 0.0
O25 O 0.32271 0.2446 0.21063 0.0
O26 O 0.27915 0.20669 0.20545 0.0
O27 O 0.25981 0.31652 0.21149 0.0
O28 O 0.21564 0.27837 0.20974 0.0
C29 C 0.31232 0.21735 0.19467 0.0
H30 H 0.10754 0.20791 0.22651 0.0
H31 H 0.19065 0.10448 0.25963 0.0
H32 H 0.39187 0.35087 0.19553 0.0
H33 H 0.36527 0.35839 0.31861 0.0
C34 C 0.69801 0.29986 0.23644 0.0
N35 N 0.7489 0.19232 0.20054 0.0
C36 C 0.70992 0.18992 0.20779 0.0
C37 C 0.69142 0.16872 0.18602 0.0
C38 C 0.7125 0.14983 0.15534 0.0
C39 C 0.75302 0.15153 0.14849 0.0
C40 C 0.77082 0.17326 0.17165 0.0
Zn41 Zn 0.7661 0.22788 0.23776 0.0
C42 C 0.8092 0.29033 0.20562 0.0
N43 N 0.7739 0.30562 0.32072 0.0
C44 C 0.74913 0.32985 0.34362 0.0
C45 C 0.81335 0.30547 0.31829 0.0
C46 C 0.82944 0.32953 0.33925 0.0
C47 C 0.80505 0.35473 0.36319 0.0
C48 C 0.76424 0.35506 0.36518 0.0
Zn49 Zn 0.75855 0.26956 0.28356 0.0
O50 O 0.717 0.26948 0.22234 0.0
C51 C 0.71626 0.20811 0.31668 0.0
O52 O 0.70935 0.31119 0.26622 0.0
H53 H 0.83282 0.28731 0.29912 0.0
H54 H 0.69226 0.20515 0.23033 0.0
H55 H 0.71781 0.33011 0.34472 0.0
O56 O 0.73152 0.19884 0.2836 0.0
O57 O 0.7215 0.24065 0.32749 0.0
H58 H 0.80174 0.17532 0.16616 0.0
O59 O 0.80712 0.22583 0.3001 0.0
O60 O 0.81442 0.18619 0.25411 0.0
O61 O 0.79443 0.29825 0.23924 0.0
O62 O 0.80294 0.25869 0.19333 0.0
C63 C 0.82491 0.19509 0.28541 0.0
H64 H 0.66041 0.16759 0.19302 0.0
H65 H 0.77037 0.13722 0.12504 0.0
H66 H 0.86092 0.32909 0.33583 0.0
H67 H 0.74443 0.37441 0.38315 0.0
C68 C 0.79579 0.68803 0.30652 0.0
N69 N 0.81163 0.80628 0.28633 0.0
C70 C 0.80955 0.79897 0.32564 0.0
C71 C 0.82058 0.82481 0.34821 0.0
C72 C 0.83739 0.85779 0.33092 0.0
C73 C 0.84186 0.8634 0.28981 0.0
C74 C 0.8279 0.83762 0.26798 0.0
Zn75 Zn 0.77953 0.77101 0.26313 0.0
C76 C 0.80988 0.73216 0.19901 0.0
N77 N 0.7018 0.69643 0.23711 0.0
C78 C 0.69021 0.66278 0.25607 0.0
C79 C 0.69687 0.70638 0.19869 0.0
C80 C 0.68073 0.68215 0.17768 0.0
C81 C 0.66939 0.64678 0.19594 0.0
C82 C 0.67384 0.63738 0.23591 0.0
Zn83 Zn 0.7356 0.73098 0.25977 0.0
O84 O 0.80614 0.72193 0.29892 0.0
C85 C 0.70501 0.77223 0.32342 0.0
O86 O 0.76572 0.68086 0.29229 0.0
H87 H 0.70742 0.73228 0.18341 0.0
H88 H 0.79638 0.77436 0.34033 0.0
H89 H 0.69499 0.65485 0.28639 0.0
O90 O 0.73571 0.78531 0.30793 0.0
O91 O 0.69402 0.74377 0.30938 0.0
H92 H 0.82906 0.84332 0.23668 0.0
O93 O 0.70655 0.78167 0.22871 0.0
O94 O 0.75222 0.81948 0.22666 0.0
O95 O 0.77736 0.72026 0.21087 0.0
O96 O 0.82256 0.7563 0.21763 0.0
C97 C 0.71892 0.81425 0.21784 0.0
H98 H 0.81395 0.81895 0.37911 0.0
H99 H 0.85521 0.88763 0.27437 0.0
H100 H 0.67892 0.6903 0.14683 0.0
H101 H 0.66537 0.61044 0.25126 0.0
C102 C 0.19337 0.81892 0.27907 0.0
N103 N 0.30315 0.77808 0.31944 0.0
C104 C 0.2978 0.81772 0.32171 0.0
C105 C 0.32022 0.83402 0.3443 0.0
C106 C 0.34973 0.80972 0.3639 0.0
C107 C 0.35506 0.76883 0.36148 0.0
C108 C 0.33086 0.75339 0.33919 0.0
Zn109 Zn 0.27167 0.76156 0.27904 0.0
C110 C 0.21857 0.70692 0.30516 0.0
N111 N 0.20415 0.74795 0.1892 0.0
C112 C 0.17761 0.7705 0.16639 0.0
C113 C 0.21046 0.70794 0.18994 0.0
C114 C 0.19009 0.68902 0.16781 0.0
C115 C 0.16279 0.71102 0.14377 0.0
C116 C 0.15635 0.75242 0.14316 0.0
Zn117 Zn 0.23427 0.76577 0.22999 0.0
O118 O 0.22435 0.80425 0.29521 0.0
C119 C 0.28728 0.82087 0.20563 0.0
O120 O 0.1864 0.80654 0.24805 0.0
H121 H 0.23057 0.69002 0.2089 0.0
H122 H 0.27758 0.83744 0.30425 0.0
H123 H 0.17237 0.80221 0.16675 0.0
O124 O 0.29588 0.80417 0.23882 0.0
O125 O 0.25834 0.81153 0.19085 0.0
H126 H 0.33533 0.7221 0.33635 0.0
O127 O 0.28373 0.72715 0.21099 0.0
O128 O 0.31968 0.71899 0.26033 0.0
O129 O 0.21088 0.7206 0.27074 0.0
O130 O 0.24612 0.7188 0.31979 0.0
C131 C 0.31522 0.71246 0.22605 0.0
H132 H 0.31611 0.8658 0.34443 0.0
H133 H 0.37812 0.74933 0.37585 0.0
H134 H 0.19516 0.65705 0.17036 0.0
H135 H 0.13527 0.77043 0.12511 0.0
C136 C 0.1874 0.81213 0.72224 0.0
N137 N 0.23795 0.69865 0.69859 0.0
C138 C 0.19923 0.69478 0.70266 0.0
C139 C 0.18475 0.67026 0.68076 0.0
C140 C 0.20992 0.6496 0.65355 0.0
C141 C 0.24967 0.65449 0.64886 0.0
C142 C 0.26329 0.67919 0.67213 0.0
Zn143 Zn 0.25166 0.73811 0.73343 0.0
C144 C 0.29649 0.79727 0.69425 0.0
N145 N 0.26393 0.82456 0.8077 0.0
C146 C 0.2427 0.83835 0.8398 0.0
C147 C 0.30223 0.82981 0.79971 0.0
C148 C 0.32047 0.84924 0.82362 0.0
C149 C 0.29995 0.86292 0.85727 0.0
C150 C 0.26034 0.85756 0.86529 0.0
Zn151 Zn 0.24739 0.78593 0.77281 0.0
O152 O 0.20421 0.77894 0.71214 0.0
C153 C 0.19953 0.72881 0.81161 0.0
O154 O 0.19888 0.8259 0.75076 0.0
H155 H 0.32009 0.81673 0.77602 0.0
H156 H 0.179 0.71124 0.72267 0.0
H157 H 0.21275 0.83296 0.84664 0.0
O158 O 0.21294 0.71462 0.77995 0.0
O159 O 0.20994 0.76077 0.81875 0.0
H160 H 0.29384 0.68305 0.66882 0.0
O161 O 0.29588 0.74553 0.79289 0.0
O162 O 0.29973 0.69788 0.75578 0.0
O163 O 0.28208 0.81042 0.7259 0.0
O164 O 0.29054 0.76336 0.68751 0.0
C165 C 0.31249 0.71214 0.78316 0.0
H166 H 0.15375 0.66798 0.68466 0.0
H167 H 0.26989 0.63916 0.62787 0.0
H168 H 0.35132 0.85138 0.81688 0.0
H169 H 0.24355 0.86734 0.89128 0.0
C170 C 0.28065 0.19654 0.80448 0.0
N171 N 0.29941 0.31251 0.78584 0.0
C172 C 0.29634 0.30748 0.8254 0.0
C173 C 0.3162 0.32842 0.84638 0.0
C174 C 0.34003 0.35488 0.82683 0.0
C175 C 0.34352 0.35931 0.78595 0.0
C176 C 0.32258 0.3378 0.76584 0.0
Zn177 Zn 0.26728 0.27804 0.76145 0.0
C178 C 0.30491 0.23665 0.69674 0.0
N179 N 0.19817 0.20056 0.72718 0.0
C180 C 0.18804 0.16774 0.74912 0.0
C181 C 0.19667 0.20547 0.68806 0.0
C182 C 0.18678 0.1759 0.66923 0.0
C183 C 0.17906 0.14045 0.69064 0.0
C184 C 0.17845 0.13694 0.73125 0.0
Zn185 Zn 0.22769 0.23752 0.74873 0.0
O186 O 0.29177 0.2301 0.79855 0.0
C187 C 0.18815 0.27769 0.81166 0.0
O188 O 0.25308 0.18974 0.78645 0.0
H189 H 0.20548 0.23133 0.67097 0.0
H190 H 0.27856 0.28681 0.84112 0.0
H191 H 0.18949 0.16447 0.78022 0.0
O192 O 0.22012 0.29191 0.80498 0.0
O193 O 0.18162 0.25177 0.79129 0.0
H194 H 0.32489 0.34123 0.73443 0.0
O195 O 0.20287 0.2856 0.71139 0.0
O196 O 0.2412 0.32656 0.7241 0.0
O197 O 0.2727 0.22363 0.7057 0.0
O198 O 0.31385 0.26231 0.71636 0.0
C199 C 0.21328 0.3196 0.70621 0.0
H200 H 0.31334 0.32344 0.8778 0.0
H201 H 0.36177 0.37946 0.76983 0.0
H202 H 0.18596 0.18059 0.63799 0.0
H203 H 0.17201 0.11028 0.74881 0.0
C204 C 0.70355 0.31221 0.78505 0.0
N205 N 0.81827 0.2767 0.81471 0.0
C206 C 0.81688 0.31655 0.80887 0.0
C207 C 0.83829 0.33551 0.83001 0.0
C208 C 0.86134 0.31358 0.85804 0.0
C209 C 0.86328 0.2723 0.86324 0.0
C210 C 0.84115 0.25424 0.84105 0.0
Zn211 Zn 0.78393 0.25635 0.78002 0.0
C212 C 0.73298 0.20071 0.81782 0.0
N213 N 0.70764 0.23136 0.70254 0.0
C214 C 0.68246 0.25289 0.67772 0.0
C215 C 0.71421 0.19124 0.70479 0.0
C216 C 0.69585 0.17121 0.68178 0.0
C217 C 0.66877 0.19208 0.65684 0.0
C218 C 0.66239 0.23363 0.65446 0.0
Zn219 Zn 0.74013 0.25251 0.73918 0.0
O220 O 0.73805 0.30209 0.79558 0.0
C221 C 0.79273 0.3063 0.70027 0.0
O222 O 0.69253 0.29476 0.7589 0.0
H223 H 0.73388 0.17416 0.72468 0.0
H224 H 0.79885 0.33407 0.78773 0.0
H225 H 0.67767 0.28476 0.67624 0.0
O226 O 0.80758 0.29379 0.73209 0.0
O227 O 0.76051 0.29572 0.69422 0.0
H228 H 0.84197 0.22257 0.84503 0.0
O229 O 0.78814 0.21078 0.72074 0.0
O230 O 0.82873 0.21102 0.7648 0.0
O231 O 0.7208 0.21005 0.78428 0.0
O232 O 0.76065 0.21719 0.82681 0.0
C233 C 0.82035 0.19728 0.73508 0.0
H234 H 0.83659 0.36729 0.82458 0.0
H235 H 0.88086 0.25448 0.8847 0.0
H236 H 0.70273 0.13933 0.68393 0.0
H237 H 0.64164 0.2509 0.63558 0.0
C238 C 0.72567 0.81184 0.81951 0.0
N239 N 0.70942 0.71307 0.77086 0.0
C240 C 0.69792 0.69896 0.80759 0.0
C241 C 0.67021 0.67377 0.81389 0.0
C242 C 0.65467 0.66262 0.78209 0.0
C243 C 0.66684 0.67721 0.74438 0.0
C244 C 0.69455 0.70299 0.73937 0.0
Zn245 Zn 0.7472 0.75179 0.76536 0.0
C246 C 0.71738 0.82169 0.71111 0.0
N247 N 0.82423 0.83521 0.75143 0.0
C248 C 0.8403 0.8395 0.78452 0.0
C249 C 0.83005 0.85913 0.71819 0.0
C250 C 0.85373 0.88811 0.71711 0.0
C251 C 0.87214 0.89178 0.75028 0.0
C252 C 0.86524 0.86736 0.78438 0.0
Zn253 Zn 0.78808 0.79471 0.75397 0.0
O254 O 0.7153 0.78024 0.81194 0.0
C255 C 0.81667 0.72329 0.80956 0.0
O256 O 0.75584 0.82328 0.80075 0.0
H257 H 0.81683 0.85533 0.69241 0.0
H258 H 0.71022 0.70736 0.83205 0.0
H259 H 0.83422 0.82098 0.81105 0.0
O260 O 0.78414 0.7135 0.80389 0.0
O261 O 0.82549 0.75584 0.79268 0.0
H262 H 0.70414 0.71497 0.71045 0.0
O263 O 0.82048 0.76631 0.70589 0.0
O264 O 0.7784 0.72438 0.71815 0.0
O265 O 0.74978 0.83297 0.71499 0.0
O266 O 0.71011 0.78892 0.72839 0.0
C267 C 0.80805 0.73568 0.69794 0.0
H268 H 0.6614 0.66243 0.84337 0.0
H269 H 0.65544 0.66855 0.71946 0.0
H270 H 0.85957 0.90598 0.68995 0.0
H271 H 0.87978 0.86905 0.81003 0.0
Fe272 Fe 0.0091 0.10381 0.51124 0.0
O273 O 0.01146 0.04696 0.52072 0.0
Fe274 Fe 0.05602 0.0104 0.49184 0.0
Fe275 Fe 0.96702 0.0197 0.51349 0.0
O276 O 0.01528 0.04615 0.5208 0.0
O277 O 0.012 0.98147 0.48691 0.0
O278 O 0.00816 0.98245 0.48635 0.0
Fe279 Fe 0.01584 0.9244 0.49952 0.0
C280 C 0.94034 0.08542 0.56743 0.0
O281 O 0.95903 0.11157 0.48295 0.0
O282 O 0.95631 0.05416 0.4614 0.0
O283 O 0.05194 0.92525 0.44929 0.0
O284 O 0.09242 0.96936 0.45931 0.0
O285 O 0.04402 0.04321 0.44052 0.0
O286 O 0.0413 0.10366 0.45823 0.0
O287 O 0.92566 0.98522 0.50187 0.0
O288 O 0.96363 0.93187 0.47493 0.0
C289 C 0.04256 0.08023 0.43236 0.0
O290 O 0.0659 0.91815 0.52899 0.0
O291 O 0.06898 0.97826 0.54357 0.0
O292 O 0.97228 0.10128 0.56132 0.0
O293 O 0.93038 0.06102 0.54571 0.0
C294 C 0.95026 0.09183 0.45743 0.0
C295 C 0.93078 0.95477 0.48208 0.0
C296 C 0.98009 0.95138 0.57621 0.0
O297 O 0.97681 0.98796 0.56545 0.0
O298 O 0.98377 0.92561 0.55242 0.0
C299 C 0.08256 0.94274 0.44026 0.0
O300 O 0.09765 0.04466 0.50151 0.0
O301 O 0.0612 0.09306 0.53609 0.0
C302 C 0.0762 0.94107 0.55078 0.0
C303 C 0.09343 0.07009 0.52676 0.0
Fe304 Fe 0.51026 0.91913 0.03521 0.0
O305 O 0.5115 0.97645 0.02994 0.0
Fe306 Fe 0.46321 0.01183 1.00591 0.0
Fe307 Fe 0.5547 1.00299 1.00004 0.0
O308 O 0.50734 0.97648 0.02994 0.0
O309 O 0.50599 0.03911 0.97695 0.0
O310 O 0.51011 0.03861 0.97618 0.0
Fe311 Fe 0.50442 0.09654 0.97206 0.0
C312 C 0.58825 0.93564 0.0602 0.0
O313 O 0.55289 0.90876 0.99073 0.0
O314 O 0.55973 0.96669 0.95625 0.0
O315 O 0.4597 0.09503 0.93819 0.0
O316 O 0.42235 0.0529 0.97648 0.0
O317 O 0.46609 0.97713 0.96166 0.0
O318 O 0.4674 0.9192 0.99729 0.0
O319 O 0.59353 0.03711 0.96419 0.0
O320 O 0.55184 0.08643 0.9314 0.0
C321 C 0.45746 0.94242 0.96743 0.0
O322 O 0.46063 0.10537 0.01695 0.0
O323 O 0.45798 0.04648 0.05038 0.0
O324 O 0.55594 0.92042 0.06864 0.0
O325 O 0.59489 0.96171 0.03079 0.0
C326 C 0.56449 0.92907 0.96002 0.0
C327 C 0.58623 0.06612 0.93673 0.0
C328 C 0.55815 0.07468 0.03868 0.0
O329 O 0.55422 0.03837 0.04376 0.0
O330 O 0.54563 0.09767 0.00987 0.0
C331 C 0.4274 0.08058 0.94844 0.0
O332 O 0.42344 0.9782 0.04002 0.0
O333 O 0.46333 0.93083 0.07602 0.0
C334 C 0.4498 0.08387 0.04731 0.0
C335 C 0.42913 0.95016 0.06846 0.0
Fe336 Fe 0.00832 0.55363 1.00179 0.0
O337 O 0.9799 0.51379 0.0354 0.0
Fe338 Fe 0.09675 0.49625 0.97353 0.0
Fe339 Fe 0.92241 0.5182 0.04285 0.0
O340 O 0.03902 0.50564 0.98007 0.0
O341 O 0.03955 0.50135 0.98147 0.0
O342 O 0.97998 0.50945 0.03614 0.0
Fe343 Fe 0.011 0.46162 0.01456 0.0
C344 C 0.94598 0.59492 0.0611 0.0
O345 O 0.96938 0.56028 0.95934 0.0
O346 O 0.91305 0.56113 0.99687 0.0
O347 O 0.04787 0.41664 0.9869 0.0
O348 O 0.08997 0.44987 0.94406 0.0
O349 O 0.08676 0.54214 0.93009 0.0
O350 O 0.04361 0.58845 0.96236 0.0
O351 O 0.91641 0.47667 1.00719 0.0
O352 O 0.9738 0.46445 0.97211 0.0
C353 C 0.06987 0.57812 0.93407 0.0
O354 O 0.04884 0.45562 0.05739 0.0
O355 O 0.106 0.45462 0.02114 0.0
O356 O 0.97196 0.59794 0.03125 0.0
O357 O 0.92943 0.56388 0.07338 0.0
C358 C 0.93217 0.56901 0.96439 0.0
C359 C 0.93726 0.46311 0.97811 0.0
C360 C 0.94739 0.43457 0.07923 0.0
O361 O 0.93149 0.47045 0.08516 0.0
O362 O 0.97544 0.42604 0.05208 0.0
C363 C 0.07426 0.41875 0.95751 0.0
O364 O 0.10312 0.53933 1.00695 0.0
O365 O 0.04672 0.55129 0.04343 0.0
C366 C 0.08603 0.4464 0.05316 0.0
C367 C 0.08298 0.55372 0.03592 0.0
Fe368 Fe 0.50067 0.49754 0.96775 0.0
O369 O 0.53026 0.46887 0.01177 0.0
Fe370 Fe 0.41767 0.54889 0.01537 0.0
Fe371 Fe 0.58802 0.45528 0.00878 0.0
O372 O 0.47453 0.53352 1.00674 0.0
O373 O 0.47497 0.53417 0.00989 0.0
O374 O 0.53095 0.46981 0.015 0.0
Fe375 Fe 0.50523 0.50629 0.05338 0.0
C376 C 0.55887 0.42508 0.93989 0.0
O377 O 0.54205 0.53372 0.95331 0.0
O378 O 0.59687 0.49067 0.95799 0.0
O379 O 0.4746 0.54751 0.08893 0.0
O380 O 0.43155 0.58865 0.05035 0.0
O381 O 0.42626 0.57952 0.96094 0.0
O382 O 0.46605 0.53276 0.92629 0.0
O383 O 0.59953 0.49851 0.04146 0.0
O384 O 0.54612 0.54313 0.03874 0.0
C385 C 0.44166 0.56562 0.9287 0.0
O386 O 0.46391 0.47038 0.0688 0.0
O387 O 0.41011 0.51466 0.06768 0.0
O388 O 0.53293 0.45619 0.93227 0.0
O389 O 0.57638 0.4163 0.97188 0.0
C390 C 0.57727 0.52139 0.94159 0.0
C391 C 0.58148 0.53305 0.04623 0.0
C392 C 0.56308 0.43898 0.09397 0.0
O393 O 0.578 0.42379 0.06228 0.0
O394 O 0.53976 0.47245 0.09522 0.0
C395 C 0.44943 0.5792 0.08207 0.0
O396 O 0.40473 0.50517 0.98507 0.0
O397 O 0.45908 0.46103 0.97985 0.0
C398 C 0.43023 0.48394 0.08358 0.0
C399 C 0.42269 0.4717 0.97641 0.0
Fe400 Fe 1.00497 0.46145 0.50847 0.0
O401 O 0.98196 0.50705 0.53802 0.0
Fe402 Fe 0.03064 0.50677 0.41734 0.0
Fe403 Fe 0.98062 0.5047 0.59461 0.0
O404 O 0.03114 0.5021 0.47404 0.0
O405 O 0.03184 0.50613 0.47397 0.0
O406 O 0.98224 0.51121 0.53775 0.0
Fe407 Fe 0.00956 0.55176 0.50419 0.0
C408 C 0.94545 0.4339 0.57666 0.0
O409 O 0.05245 0.44888 0.54048 0.0
O410 O 0.02265 0.45488 0.59997 0.0
O411 O 0.04288 0.58763 0.46373 0.0
O412 O 0.06951 0.54674 0.4167 0.0
O413 O 0.06946 0.4554 0.4244 0.0
O414 O 0.03469 0.41866 0.4718 0.0
O415 O 0.02465 0.53796 0.59594 0.0
O416 O 0.05716 0.54042 0.53714 0.0
C417 C 0.06256 0.42223 0.44368 0.0
O418 O 0.96177 0.566 0.47213 0.0
O419 O 0.98699 0.55463 0.41209 0.0
O420 O 0.97292 0.42477 0.54907 0.0
O421 O 0.94006 0.46679 0.59254 0.0
C422 C 0.05215 0.44261 0.57719 0.0
C423 C 0.05562 0.54212 0.57364 0.0
C424 C 0.95231 0.59105 0.56886 0.0
O425 O 0.94402 0.55796 0.58746 0.0
O426 O 0.9806 0.59418 0.54114 0.0
C427 C 0.06748 0.57862 0.43374 0.0
O428 O 0.98848 0.47006 0.41846 0.0
O429 O 0.95701 0.47246 0.47699 0.0
C430 C 0.95961 0.56946 0.43563 0.0
C431 C 0.95833 0.46592 0.44189 0.0
Fe432 Fe 0.5055 0.96036 0.5127 0.0
O433 O 0.47984 1.00522 0.54205 0.0
Fe434 Fe 0.53127 1.00599 0.42175 0.0
Fe435 Fe 0.4778 1.00199 0.59868 0.0
O436 O 0.53033 1.0018 0.47847 0.0
O437 O 0.53047 1.00562 0.47835 0.0
O438 O 0.47947 0.00929 0.54166 0.0
Fe439 Fe 0.5058 0.05068 0.50837 0.0
C440 C 0.4465 0.93013 0.57875 0.0
O441 O 0.55298 0.95055 0.54534 0.0
O442 O 0.52058 0.95261 0.60376 0.0
O443 O 0.53782 0.08777 0.4688 0.0
O444 O 0.5685 0.04718 0.42289 0.0
O445 O 0.57093 0.95434 0.42935 0.0
O446 O 0.53592 0.91819 0.4769 0.0
O447 O 0.52035 0.03641 0.60081 0.0
O448 O 0.5525 0.04148 0.54179 0.0
C449 C 0.56313 0.92122 0.44836 0.0
O450 O 0.45876 0.06363 0.47528 0.0
O451 O 0.48674 0.05348 0.41572 0.0
O452 O 0.47511 0.92223 0.55213 0.0
O453 O 0.43908 0.96282 0.59513 0.0
C454 C 0.55196 0.94358 0.58209 0.0
C455 C 0.54976 0.04467 0.57804 0.0
C456 C 0.44918 0.08865 0.57443 0.0
O457 O 0.44042 0.05541 0.59242 0.0
O458 O 0.47602 0.0921 0.54546 0.0
C459 C 0.56406 0.07936 0.44 0.0
O460 O 0.49062 0.96816 0.42181 0.0
O461 O 0.45835 0.96886 0.48026 0.0
C462 C 0.4585 0.06835 0.4385 0.0
C463 C 0.46136 0.96099 0.44536 0.0
H464 H 0.07446 0.1837 0.28036 0.0
H465 H 0.13898 0.07287 0.24807 0.0
H466 H 0.10502 0.03783 0.30324 0.0
H467 H 0.07305 0.04191 0.3697 0.0
H468 H 0.01606 0.15494 0.40343 0.0
H469 H 0.03065 0.18587 0.33818 0.0
C470 C 0.08027 0.15175 0.28393 0.0
C471 C 0.11127 0.13122 0.26149 0.0
C472 C 0.06272 0.1323 0.31693 0.0
C473 C 0.11673 0.08966 0.26621 0.0
C474 C 0.09754 0.06961 0.29795 0.0
C475 C 0.06312 0.07313 0.36242 0.0
C476 C 0.0449 0.09655 0.39147 0.0
C477 C 0.07322 0.09109 0.32528 0.0
C478 C 0.03131 0.13669 0.3817 0.0
C479 C 0.03946 0.15433 0.34438 0.0
H480 H 0.87122 0.21749 0.33247 0.0
H481 H 0.84408 0.11414 0.28937 0.0
H482 H 0.88276 0.07166 0.33791 0.0
H483 H 0.91858 0.06487 0.39761 0.0
H484 H 0.94212 0.17095 0.43952 0.0
H485 H 0.91061 0.211 0.3867 0.0
C486 C 0.87428 0.18562 0.33324 0.0
C487 C 0.85469 0.16895 0.30769 0.0
C488 C 0.89546 0.16177 0.36157 0.0
C489 C 0.85918 0.12765 0.30868 0.0
C490 C 0.88091 0.10341 0.33672 0.0
C491 C 0.91691 0.09669 0.39501 0.0
C492 C 0.93214 0.11465 0.42321 0.0
C493 C 0.89821 0.12022 0.36419 0.0
C494 C 0.9301 0.15602 0.41897 0.0
C495 C 0.91222 0.17921 0.38851 0.0
H496 H 0.85203 0.84348 0.4082 0.0
H497 H 0.85097 0.93576 0.31197 0.0
H498 H 0.87363 0.97809 0.35311 0.0
H499 H 0.89989 0.98586 0.41513 0.0
H500 H 0.89193 0.89555 0.51122 0.0
H501 H 0.86194 0.8569 0.47183 0.0
C502 C 0.85436 0.87329 0.39578 0.0
C503 C 0.84935 0.88551 0.35615 0.0
C504 C 0.8647 0.89851 0.4201 0.0
C505 C 0.85543 0.92427 0.34169 0.0
C506 C 0.86779 0.94904 0.36549 0.0
C507 C 0.88954 0.95873 0.42786 0.0
C508 C 0.89757 0.94351 0.46598 0.0
C509 C 0.87314 0.93617 0.40462 0.0
C510 C 0.8852 0.90796 0.48215 0.0
C511 C 0.86889 0.88554 0.45937 0.0
H512 H 0.21317 0.87135 0.32104 0.0
H513 H 0.11347 0.8348 0.27907 0.0
H514 H 0.06921 0.87587 0.32282 0.0
H515 H 0.06045 0.9129 0.37956 0.0
H516 H 0.16093 0.94581 0.4239 0.0
H517 H 0.20387 0.91545 0.37192 0.0
C518 C 0.18172 0.87279 0.32111 0.0
C519 C 0.16637 0.84951 0.29784 0.0
C520 C 0.15694 0.89529 0.34689 0.0
C521 C 0.12571 0.85236 0.29711 0.0
C522 C 0.10057 0.87551 0.32226 0.0
C523 C 0.09175 0.91366 0.3777 0.0
C524 C 0.10784 0.93038 0.40607 0.0
C525 C 0.11608 0.89558 0.34841 0.0
C526 C 0.14809 0.93254 0.40265 0.0
C527 C 0.17256 0.91514 0.37307 0.0
H528 H 0.1769 0.89082 0.69567 0.0
H529 H 0.13196 0.78212 0.69176 0.0
H530 H 0.09321 0.81245 0.63853 0.0
H531 H 0.07752 0.86731 0.58859 0.0
H532 H 0.12121 0.97675 0.59174 0.0
H533 H 0.15534 0.94876 0.64905 0.0
C534 C 0.15763 0.8743 0.68392 0.0
C535 C 0.15712 0.83436 0.69776 0.0
C536 C 0.13605 0.89172 0.65238 0.0
C537 C 0.13269 0.81298 0.68169 0.0
C538 C 0.11082 0.83017 0.65098 0.0
C539 C 0.09429 0.88516 0.60192 0.0
C540 C 0.0969 0.92404 0.58566 0.0
C541 C 0.11329 0.86905 0.63523 0.0
C542 C 0.11864 0.94675 0.60359 0.0
C543 C 0.13816 0.93074 0.63646 0.0
H544 H 0.21444 0.11621 0.62264 0.0
H545 H 0.12263 0.09338 0.71241 0.0
H546 H 0.09395 0.05774 0.66922 0.0
H547 H 0.08464 0.05091 0.60225 0.0
H548 H 0.16934 0.08388 0.50955 0.0
H549 H 0.21133 0.09808 0.55716 0.0
C550 C 0.18847 0.10286 0.63286 0.0
C551 C 0.16964 0.10878 0.66997 0.0
C552 C 0.1705 0.08518 0.60698 0.0
C553 C 0.13728 0.08977 0.68375 0.0
C554 C 0.12062 0.06978 0.65892 0.0
C555 C 0.11291 0.06018 0.59273 0.0
C556 C 0.12393 0.06744 0.55298 0.0
C557 C 0.13534 0.07006 0.61986 0.0
C558 C 0.16055 0.0786 0.54027 0.0
C559 C 0.18421 0.08689 0.56742 0.0
H560 H 0.80337 0.14949 0.6858 0.0
H561 H 0.90003 0.18162 0.73725 0.0
H562 H 0.9465 0.14541 0.69144 0.0
H563 H 0.95861 0.11302 0.63155 0.0
H564 H 0.86148 0.08322 0.57884 0.0
H565 H 0.81591 0.11015 0.63083 0.0
C566 C 0.83465 0.14806 0.68739 0.0
C567 C 0.8484 0.16873 0.71425 0.0
C568 C 0.86089 0.12819 0.6605 0.0
C569 C 0.88888 0.16603 0.71665 0.0
C570 C 0.91535 0.14565 0.69029 0.0
C571 C 0.92746 0.11225 0.63151 0.0
C572 C 0.91323 0.09717 0.60089 0.0
C573 C 0.90154 0.12806 0.66117 0.0
C574 C 0.87304 0.09516 0.60184 0.0
C575 C 0.84702 0.11058 0.63149 0.0
H576 H 0.94681 0.86264 0.73725 0.0
H577 H 0.86898 0.97167 0.74823 0.0
H578 H 0.90737 1.00483 0.69513 0.0
H579 H 0.94501 0.99518 0.63283 0.0
H580 H 0.00846 0.88007 0.61306 0.0
H581 H 0.99398 0.85628 0.68101 0.0
C582 C 0.93992 0.89423 0.72932 0.0
C583 C 0.90468 0.91456 0.74497 0.0
C584 C 0.95828 0.91107 0.69525 0.0
C585 C 0.89583 0.95549 0.73574 0.0
C586 C 0.91711 0.97405 0.70464 0.0
C587 C 0.9564 0.96514 0.64367 0.0
C588 C 0.97672 0.93893 0.618 0.0
C589 C 0.94549 0.95098 0.68185 0.0
C590 C 0.99187 0.90035 0.63227 0.0
C591 C 0.98377 0.88685 0.67111 0.0
H592 H 0.32132 0.14081 0.17962 0.0
H593 H 0.36451 0.25093 0.14296 0.0
H594 H 0.4112 0.21945 0.09432 0.0
H595 H 0.4399 0.16057 0.06225 0.0
H596 H 0.39971 0.04933 0.10168 0.0
H597 H 0.35224 0.08107 0.14941 0.0
C598 C 0.34078 0.15787 0.16072 0.0
C599 C 0.33925 0.19815 0.16449 0.0
C600 C 0.36839 0.13929 0.13359 0.0
C601 C 0.36513 0.21986 0.14045 0.0
C602 C 0.39185 0.20188 0.1127 0.0
C603 C 0.42085 0.14325 0.08138 0.0
C604 C 0.42335 0.10268 0.07828 0.0
C605 C 0.39384 0.16159 0.10908 0.0
C606 C 0.39864 0.08058 0.10356 0.0
C607 C 0.37126 0.09875 0.13074 0.0
H608 H 0.87348 0.28018 0.1502 0.0
H609 H 0.79445 0.36858 0.20892 0.0
H610 H 0.83108 0.4196 0.17757 0.0
H611 H 0.88522 0.44016 0.13423 0.0
H612 H 0.96565 0.35417 0.0739 0.0
H613 H 0.92951 0.30178 0.10537 0.0
C614 C 0.86412 0.31067 0.15566 0.0
C615 C 0.83101 0.32029 0.18198 0.0
C616 C 0.88596 0.34051 0.13767 0.0
C617 C 0.81974 0.36004 0.18902 0.0
C618 C 0.84078 0.38943 0.17114 0.0
C619 C 0.89531 0.40998 0.12802 0.0
C620 C 0.9285 0.40153 0.10165 0.0
C621 C 0.87407 0.38008 0.14571 0.0
C622 C 0.94051 0.36191 0.09421 0.0
C623 C 0.91959 0.33181 0.11204 0.0
H624 H 0.73581 0.85762 0.14887 0.0
H625 H 0.64344 0.83871 0.23893 0.0
H626 H 0.59509 0.8788 0.19904 0.0
H627 H 0.57798 0.91151 0.13622 0.0
H628 H 0.66831 0.9291 0.04368 0.0
H629 H 0.7187 0.89774 0.08682 0.0
C630 C 0.70524 0.86336 0.15993 0.0
C631 C 0.69294 0.84541 0.19658 0.0
C632 C 0.67727 0.88552 0.13619 0.0
C633 C 0.65331 0.85233 0.21068 0.0
C634 C 0.62569 0.87503 0.18786 0.0
C635 C 0.60873 0.90872 0.12548 0.0
C636 C 0.61942 0.92172 0.08666 0.0
C637 C 0.63714 0.89044 0.15012 0.0
C638 C 0.65938 0.91894 0.07345 0.0
C639 C 0.68814 0.90092 0.09806 0.0
H640 H 0.19355 0.64978 0.1036 0.0
H641 H 0.08399 0.72312 0.13282 0.0
H642 H 0.04861 0.67959 0.10348 0.0
H643 H 0.04932 0.61867 0.0717 0.0
H644 H 0.1598 0.54455 0.04723 0.0
H645 H 0.19426 0.58955 0.07426 0.0
C646 C 0.16186 0.65626 0.10372 0.0
C647 C 0.14139 0.68936 0.12072 0.0
C648 C 0.14187 0.6304 0.08854 0.0
C649 C 0.10047 0.69795 0.11966 0.0
C650 C 0.08023 0.67276 0.10341 0.0
C651 C 0.08079 0.61208 0.07312 0.0
C652 C 0.10198 0.57819 0.05782 0.0
C653 C 0.10062 0.63842 0.08844 0.0
C654 C 0.14288 0.57039 0.05892 0.0
C655 C 0.16264 0.59622 0.0741 0.0
H656 H 0.34998 0.91681 0.8399 0.0
H657 H 0.30024 0.84436 0.93599 0.0
H658 H 0.34534 0.86171 0.97853 0.0
H659 H 0.4019 0.89426 0.98725 0.0
H660 H 0.45048 0.96752 0.89099 0.0
H661 H 0.40349 0.95236 0.84946 0.0
C662 C 0.34876 0.9051 0.87026 0.0
C663 C 0.32186 0.87917 0.88468 0.0
C664 C 0.37521 0.91464 0.89428 0.0
C665 C 0.32033 0.86467 0.92421 0.0
C666 C 0.34649 0.87417 0.94841 0.0
C667 C 0.40245 0.90652 0.95705 0.0
C668 C 0.43023 0.93133 0.94197 0.0
C669 C 0.37467 0.89841 0.93354 0.0
C670 C 0.42976 0.94798 0.90314 0.0
C671 C 0.40277 0.93948 0.87944 0.0
H672 H 0.20076 0.29696 0.88118 0.0
H673 H 0.10901 0.29524 0.80742 0.0
H674 H 0.0621 0.33498 0.85031 0.0
H675 H 0.05059 0.3789 0.90335 0.0
H676 H 0.14322 0.37909 0.97657 0.0
H677 H 0.18626 0.33062 0.94001 0.0
C678 C 0.17025 0.30459 0.87506 0.0
C679 C 0.15829 0.29382 0.84116 0.0
C680 C 0.14372 0.32726 0.89972 0.0
C681 C 0.11872 0.30334 0.83351 0.0
C682 C 0.09202 0.32625 0.85786 0.0
C683 C 0.07971 0.36712 0.91193 0.0
C684 C 0.09398 0.38217 0.94242 0.0
C685 C 0.10456 0.33959 0.89031 0.0
C686 C 0.13183 0.36744 0.95324 0.0
C687 C 0.1565 0.34005 0.93219 0.0
H688 H 0.68481 0.15156 0.8012 0.0
H689 H 0.73783 0.184 0.89688 0.0
H690 H 0.70105 0.14026 0.94227 0.0
H691 H 0.64844 0.09763 0.95523 0.0
H692 H 0.59461 0.06831 0.85875 0.0
H693 H 0.63747 0.10522 0.81327 0.0
C694 C 0.68866 0.14894 0.83196 0.0
C695 C 0.71381 0.17155 0.84555 0.0
C696 C 0.6673 0.12395 0.85781 0.0
C697 C 0.71862 0.16719 0.88553 0.0
C698 C 0.69751 0.14216 0.91153 0.0
C699 C 0.64715 0.09831 0.92418 0.0
C700 C 0.61888 0.07965 0.91025 0.0
C701 C 0.67115 0.12091 0.89811 0.0
C702 C 0.61655 0.08184 0.87004 0.0
C703 C 0.64079 0.1033 0.84407 0.0
H704 H 0.80467 0.65456 0.85358 0.0
H705 H 0.89098 0.73268 0.82279 0.0
H706 H 0.93609 0.68997 0.86478 0.0
H707 H 0.95014 0.63153 0.913 0.0
H708 H 0.862 0.55595 0.94583 0.0
H709 H 0.81907 0.59592 0.9001 0.0
C710 C 0.83338 0.66225 0.85591 0.0
C711 C 0.8442 0.69698 0.83503 0.0
C712 C 0.85912 0.63772 0.88046 0.0
C713 C 0.88164 0.7063 0.83858 0.0
C714 C 0.90759 0.68178 0.86257 0.0
C715 C 0.92183 0.62351 0.90952 0.0
C716 C 0.90937 0.59066 0.93259 0.0
C717 C 0.8966 0.6475 0.88391 0.0
C718 C 0.87227 0.58105 0.92836 0.0
C719 C 0.84762 0.604 0.90232 0.0
H720 H 0.15121 0.32156 0.18807 0.0
H721 H 0.25879 0.3661 0.14596 0.0
H722 H 0.22399 0.41296 0.09796 0.0
H723 H 0.1632 0.43959 0.06642 0.0
H724 H 0.0551 0.39729 0.11151 0.0
H725 H 0.08976 0.35163 0.16008 0.0
C726 C 0.16705 0.34155 0.16839 0.0
C727 C 0.20765 0.34001 0.17025 0.0
C728 C 0.14669 0.36892 0.14147 0.0
C729 C 0.22759 0.36661 0.14504 0.0
C730 C 0.20769 0.39336 0.11756 0.0
C731 C 0.14719 0.42055 0.08706 0.0
C732 C 0.10658 0.42177 0.08511 0.0
C733 C 0.16728 0.39457 0.11529 0.0
C734 C 0.08625 0.39719 0.11238 0.0
C735 C 0.10612 0.37085 0.14006 0.0
H736 H 0.1613 0.67026 0.79708 0.0
H737 H 0.17457 0.74056 0.88777 0.0
H738 H 0.13121 0.70336 0.93294 0.0
H739 H 0.09342 0.6469 0.94791 0.0
H740 H 0.08266 0.57661 0.85646 0.0
H741 H 0.12034 0.61815 0.81032 0.0
C742 C 0.1547 0.67766 0.8267 0.0
C743 C 0.1717 0.70794 0.83904 0.0
C744 C 0.1298 0.65621 0.8524 0.0
C745 C 0.16217 0.7173 0.87745 0.0
C746 C 0.13731 0.69601 0.90332 0.0
C747 C 0.09843 0.64149 0.91763 0.0
C748 C 0.08493 0.60889 0.90552 0.0
C749 C 0.12131 0.66499 0.89128 0.0
C750 C 0.09248 0.60163 0.8664 0.0
C751 C 0.11431 0.6252 0.84006 0.0
H752 H 0.30725 0.21023 0.8697 0.0
H753 H 0.29651 0.11636 0.80231 0.0
H754 H 0.33798 0.06923 0.84508 0.0
H755 H 0.38433 0.05753 0.89673 0.0
H756 H 0.39484 0.15338 0.96171 0.0
H757 H 0.34581 0.19712 0.92522 0.0
C758 C 0.31364 0.17932 0.86469 0.0
C759 C 0.29978 0.16666 0.83276 0.0
C760 C 0.33743 0.15295 0.88893 0.0
C761 C 0.30729 0.12656 0.8268 0.0
C762 C 0.33107 0.09977 0.85107 0.0
C763 C 0.37495 0.08772 0.90327 0.0
C764 C 0.39284 0.10271 0.93138 0.0
C765 C 0.34732 0.11295 0.88152 0.0
C766 C 0.38116 0.14172 0.9399 0.0
C767 C 0.35337 0.16665 0.91905 0.0
H768 H 0.82992 0.37718 0.89406 0.0
H769 H 0.93816 0.2981 0.87523 0.0
H770 H 0.9724 0.33921 0.90889 0.0
H771 H 0.97109 0.39862 0.94259 0.0
H772 H 0.86183 0.47672 0.9607 0.0
H773 H 0.82849 0.43559 0.92702 0.0
C774 C 0.86106 0.36897 0.89727 0.0
C775 C 0.88166 0.33497 0.88204 0.0
C776 C 0.88035 0.39292 0.91581 0.0
C777 C 0.92174 0.3241 0.88702 0.0
C778 C 0.94131 0.34778 0.90584 0.0
C779 C 0.94013 0.40686 0.93855 0.0
C780 C 0.91888 0.44074 0.95371 0.0
C781 C 0.92094 0.38254 0.91994 0.0
C782 C 0.87868 0.4508 0.9491 0.0
C783 C 0.8596 0.42723 0.93009 0.0
H784 H 0.65326 0.80262 0.85395 0.0
H785 H 0.74094 0.87979 0.84379 0.0
H786 H 0.69697 0.92544 0.88286 0.0
H787 H 0.63378 0.94291 0.9212 0.0
H788 H 0.54752 0.86432 0.93292 0.0
H789 H 0.59027 0.82031 0.89118 0.0
C790 C 0.66294 0.82923 0.86054 0.0
C791 C 0.70048 0.83754 0.84621 0.0
C792 C 0.63742 0.85552 0.88273 0.0
C793 C 0.7123 0.87246 0.8547 0.0
C794 C 0.68707 0.89876 0.87682 0.0
C795 C 0.62415 0.91657 0.91381 0.0
C796 C 0.58751 0.90697 0.92957 0.0
C797 C 0.64949 0.89069 0.89089 0.0
C798 C 0.57558 0.87232 0.92074 0.0
C799 C 0.6001 0.84703 0.89718 0.0
H800 H 0.88979 0.71701 0.18239 0.0
H801 H 0.77948 0.71031 0.13849 0.0
H802 H 0.81338 0.67182 0.08766 0.0
H803 H 0.87269 0.63199 0.06179 0.0
H804 H 0.9834 0.63477 0.10585 0.0
H805 H 0.95153 0.68324 0.14998 0.0
C806 C 0.87344 0.70792 0.16104 0.0
C807 C 0.83217 0.71606 0.16444 0.0
C808 C 0.89319 0.68477 0.13216 0.0
C809 C 0.81122 0.70398 0.13676 0.0
C810 C 0.83055 0.68192 0.10768 0.0
C811 C 0.8899 0.64409 0.08041 0.0
C812 C 0.93011 0.63018 0.08076 0.0
C813 C 0.87125 0.67092 0.10604 0.0
C814 C 0.95239 0.64559 0.10494 0.0
C815 C 0.93406 0.67294 0.13039 0.0
H816 H 0.28322 0.86452 0.13289 0.0
H817 H 0.35068 0.84082 0.23299 0.0
H818 H 0.39782 0.88101 0.20096 0.0
H819 H 0.42358 0.91903 0.14338 0.0
H820 H 0.35789 0.94571 0.04276 0.0
H821 H 0.30661 0.90929 0.07614 0.0
C822 C 0.30802 0.86849 0.14774 0.0
C823 C 0.31325 0.84893 0.18527 0.0
C824 C 0.33562 0.89239 0.12909 0.0
C825 C 0.34562 0.85488 0.20406 0.0
C826 C 0.37288 0.87806 0.18578 0.0
C827 C 0.39772 0.91745 0.12895 0.0
C828 C 0.39465 0.93502 0.09068 0.0
C829 C 0.36862 0.89637 0.14815 0.0
C830 C 0.36083 0.93282 0.07244 0.0
C831 C 0.33166 0.9116 0.0914 0.0
H832 H 0.64347 0.17929 0.12655 0.0
H833 H 0.73202 0.07613 0.12943 0.0
H834 H 0.69051 0.04186 0.09611 0.0
H835 H 0.62782 0.04146 0.06709 0.0
H836 H 0.54048 0.14574 0.06574 0.0
H837 H 0.58205 0.17884 0.09916 0.0
C838 C 0.65372 0.14919 0.12006 0.0
C839 C 0.69062 0.13014 0.13076 0.0
C840 C 0.62947 0.12964 0.102 0.0
C841 C 0.70384 0.09153 0.12127 0.0
C842 C 0.6799 0.07182 0.10267 0.0
C843 C 0.61772 0.07109 0.07495 0.0
C844 C 0.58095 0.09105 0.06454 0.0
C845 C 0.64237 0.09044 0.09335 0.0
C846 C 0.56851 0.12979 0.07383 0.0
C847 C 0.59237 0.14881 0.09261 0.0
H848 H 0.67663 0.58569 0.79497 0.0
H849 H 0.57515 0.67545 0.79123 0.0
H850 H 0.53875 0.63498 0.84018 0.0
H851 H 0.54259 0.58291 0.89467 0.0
H852 H 0.64897 0.49891 0.90427 0.0
H853 H 0.67723 0.52868 0.84324 0.0
C854 C 0.64584 0.59518 0.8035 0.0
C855 C 0.6284 0.63315 0.79025 0.0
C856 C 0.62693 0.57384 0.83433 0.0
C857 C 0.58878 0.64597 0.80121 0.0
C858 C 0.56846 0.62334 0.82989 0.0
C859 C 0.57192 0.57105 0.88339 0.0
C860 C 0.59408 0.53954 0.90459 0.0
C861 C 0.58839 0.5888 0.84866 0.0
C862 C 0.63163 0.52383 0.88906 0.0
C863 C 0.64771 0.54053 0.85393 0.0
H864 H 0.3458 0.63359 0.78523 0.0
H865 H 0.35134 0.74201 0.83335 0.0
H866 H 0.39547 0.70672 0.87966 0.0
H867 H 0.42614 0.64451 0.91203 0.0
H868 H 0.42262 0.53534 0.86527 0.0
H869 H 0.38496 0.57134 0.81276 0.0
C870 C 0.35727 0.64952 0.80537 0.0
C871 C 0.34448 0.69033 0.80616 0.0
C872 C 0.38292 0.62888 0.83247 0.0
C873 C 0.35995 0.71052 0.83237 0.0
C874 C 0.38533 0.69039 0.859 0.0
C875 C 0.41777 0.6287 0.88988 0.0
C876 C 0.42681 0.58742 0.89264 0.0
C877 C 0.39598 0.64948 0.86015 0.0
C878 C 0.41616 0.56724 0.8636 0.0
C879 C 0.39429 0.58779 0.83379 0.0
H880 H 0.31007 0.394 0.88873 0.0
H881 H 0.41738 0.36447 0.81683 0.0
H882 H 0.45316 0.39535 0.85889 0.0
H883 H 0.45372 0.43038 0.91634 0.0
H884 H 0.34562 0.46252 0.98626 0.0
H885 H 0.31036 0.42998 0.94528 0.0
C886 C 0.34131 0.39434 0.88229 0.0
C887 C 0.36113 0.37689 0.84982 0.0
C888 C 0.36154 0.412 0.90658 0.0
C889 C 0.40145 0.37804 0.84144 0.0
C890 C 0.42194 0.39533 0.86568 0.0
C891 C 0.42256 0.42961 0.92299 0.0
C892 C 0.40233 0.44813 0.9547 0.0
C893 C 0.40232 0.41211 0.8985 0.0
C894 C 0.3618 0.44803 0.96229 0.0
C895 C 0.34164 0.42968 0.93874 0.0
H896 H 0.62471 0.31535 0.80745 0.0
H897 H 0.72395 0.37534 0.81138 0.0
H898 H 0.68677 0.4166 0.85856 0.0
H899 H 0.62924 0.43065 0.90399 0.0
H900 H 0.52862 0.37291 0.90163 0.0
H901 H 0.56293 0.33546 0.84884 0.0
C902 C 0.63765 0.33822 0.81789 0.0
C903 C 0.67707 0.34224 0.80604 0.0
C904 C 0.61621 0.36149 0.84596 0.0
C905 C 0.69373 0.37163 0.82016 0.0
C906 C 0.6726 0.39507 0.84734 0.0
C907 C 0.6148 0.41002 0.89164 0.0
C908 C 0.57702 0.40375 0.90685 0.0
C909 C 0.63442 0.38932 0.86137 0.0
C910 C 0.55805 0.37761 0.89049 0.0
C911 C 0.57764 0.35638 0.86034 0.0
H912 H 0.66542 0.37844 0.23331 0.0
H913 H 0.65319 0.26708 0.19488 0.0
H914 H 0.60576 0.30011 0.15079 0.0
H915 H 0.57551 0.36094 0.11585 0.0
H916 H 0.5858 0.47311 0.15288 0.0
H917 H 0.62544 0.43975 0.20493 0.0
C918 C 0.6516 0.36148 0.21595 0.0
C919 C 0.66356 0.3205 0.21673 0.0
C920 C 0.62426 0.38084 0.18999 0.0
C921 C 0.64522 0.29879 0.19423 0.0
C922 C 0.61799 0.3176 0.16893 0.0
C923 C 0.58571 0.37795 0.13593 0.0
C924 C 0.57834 0.4192 0.13039 0.0
C925 C 0.60855 0.35867 0.16541 0.0
C926 C 0.5912 0.44114 0.15672 0.0
C927 C 0.61413 0.4221 0.18627 0.0
H928 H 0.62052 0.66612 0.13801 0.0
H929 H 0.68664 0.5659 0.20035 0.0
H930 H 0.66766 0.52204 0.15783 0.0
H931 H 0.63268 0.51229 0.10221 0.0
H932 H 0.56625 0.61302 0.04093 0.0
H933 H 0.58627 0.65667 0.08278 0.0
C934 C 0.63107 0.63471 0.14221 0.0
C935 C 0.65514 0.61948 0.17236 0.0
C936 C 0.6206 0.6098 0.1173 0.0
C937 C 0.66771 0.57851 0.17777 0.0
C938 C 0.65725 0.55342 0.15313 0.0
C939 C 0.62323 0.54388 0.09759 0.0
C940 C 0.59843 0.55947 0.06813 0.0
C941 C 0.63398 0.56878 0.12256 0.0
C942 C 0.58561 0.60035 0.06315 0.0
C943 C 0.59682 0.6253 0.08725 0.0
H944 H 0.36558 0.64239 0.23627 0.0
H945 H 0.33704 0.7458 0.15586 0.0
H946 H 0.38011 0.71558 0.10449 0.0
H947 H 0.41834 0.65661 0.07985 0.0
H948 H 0.44747 0.55235 0.15904 0.0
H949 H 0.4125 0.5859 0.2131 0.0
C950 C 0.36974 0.65846 0.20777 0.0
C951 C 0.34786 0.69584 0.19955 0.0
C952 C 0.3943 0.64058 0.17787 0.0
C953 C 0.35329 0.71659 0.16254 0.0
C954 C 0.37783 0.69938 0.1331 0.0
C955 C 0.41765 0.64154 0.10907 0.0
C956 C 0.43512 0.6021 0.11529 0.0
C957 C 0.39726 0.66084 0.13999 0.0
C958 C 0.43436 0.58294 0.15341 0.0
C959 C 0.41409 0.60198 0.1844 0.0
H960 H 0.35315 0.43299 0.24819 0.0
H961 H 0.4626 0.35452 0.25096 0.0
H962 H 0.49001 0.39291 0.19402 0.0
H963 H 0.47495 0.43427 0.13365 0.0
H964 H 0.36102 0.50567 0.12602 0.0
H965 H 0.34221 0.48326 0.19344 0.0
C966 C 0.38377 0.42589 0.23758 0.0
C967 C 0.40532 0.39017 0.25207 0.0
C968 C 0.39719 0.44487 0.20209 0.0
C969 C 0.44525 0.38155 0.23941 0.0
C970 C 0.46038 0.40266 0.20602 0.0
C971 C 0.446 0.44504 0.14666 0.0
C972 C 0.41884 0.47036 0.12434 0.0
C973 C 0.43524 0.43178 0.18523 0.0
C974 C 0.38201 0.4851 0.14217 0.0
C975 C 0.37141 0.47276 0.18088 0.0
H976 H 0.88091 0.73857 0.65779 0.0
H977 H 0.7803 0.67746 0.6688 0.0
H978 H 0.81471 0.63041 0.62594 0.0
H979 H 0.87525 0.60183 0.59135 0.0
H980 H 0.97699 0.66065 0.57911 0.0
H981 H 0.94021 0.71362 0.6155 0.0
C982 C 0.86637 0.71534 0.65027 0.0
C983 C 0.82822 0.71131 0.66719 0.0
C984 C 0.88659 0.68778 0.62544 0.0
C985 C 0.80979 0.68109 0.65686 0.0
C986 C 0.82943 0.65404 0.63222 0.0
C987 C 0.88919 0.62664 0.59606 0.0
C988 C 0.9288 0.6272 0.58291 0.0
C989 C 0.86812 0.6564 0.61731 0.0
C990 C 0.94642 0.65967 0.58881 0.0
C991 C 0.92547 0.68973 0.60995 0.0
H992 H 0.36602 0.78116 0.64825 0.0
H993 H 0.27282 0.87446 0.67759 0.0
H994 H 0.30992 0.92366 0.64254 0.0
H995 H 0.37114 0.94117 0.60959 0.0
H996 H 0.4655 0.84967 0.57891 0.0
H997 H 0.42588 0.7991 0.60796 0.0
C998 C 0.35361 0.81216 0.64602 0.0
C999 C 0.31686 0.82417 0.66572 0.0
C1000 C 0.37559 0.84079 0.62612 0.0
C1001 C 0.30121 0.86452 0.66292 0.0
C1002 C 0.32244 0.89276 0.64301 0.0
C1003 C 0.38302 0.91016 0.60903 0.0
C1004 C 0.42144 0.89929 0.59268 0.0
C1005 C 0.36012 0.88138 0.6256 0.0
C1006 C 0.43603 0.85892 0.5915 0.0
C1007 C 0.4134 0.82994 0.60821 0.0
H1008 H 0.18724 0.31284 0.6377 0.0
H1009 H 0.18667 0.39538 0.72124 0.0
H1010 H 0.13649 0.44185 0.68792 0.0
H1011 H 0.08805 0.45539 0.63884 0.0
H1012 H 0.0926 0.37488 0.55254 0.0
H1013 H 0.14592 0.33078 0.5832 0.0
C1014 C 0.17666 0.3414 0.64803 0.0
C1015 C 0.19026 0.35081 0.68183 0.0
C1016 C 0.14816 0.36782 0.62867 0.0
C1017 C 0.17671 0.38782 0.69504 0.0
C1018 C 0.14777 0.41411 0.67627 0.0
C1019 C 0.10111 0.4284 0.62664 0.0
C1020 C 0.08625 0.41794 0.59397 0.0
C1021 C 0.13249 0.40388 0.64373 0.0
C1022 C 0.10357 0.38326 0.57786 0.0
C1023 C 0.13397 0.35811 0.59535 0.0
H1024 H 0.63972 0.12508 0.68381 0.0
H1025 H 0.6482 0.20822 0.58143 0.0
H1026 H 0.61539 0.16745 0.546 0.0
H1027 H 0.58323 0.10823 0.54514 0.0
H1028 H 0.5775 0.02562 0.64822 0.0
H1029 H 0.61257 0.06518 0.68186 0.0
C1030 C 0.63518 0.1341 0.65349 0.0
C1031 C 0.64686 0.16946 0.63519 0.0
C1032 C 0.61754 0.11016 0.63327 0.0
C1033 C 0.63927 0.18128 0.59632 0.0
C1034 C 0.62093 0.15775 0.57595 0.0
C1035 C 0.5907 0.09849 0.57459 0.0
C1036 C 0.57817 0.06401 0.59424 0.0
C1037 C 0.61007 0.122 0.59415 0.0
C1038 C 0.5871 0.052 0.63263 0.0
C1039 C 0.60678 0.07474 0.65193 0.0
H1040 H 0.86792 0.33389 0.40455 0.0
H1041 H 0.78414 0.43441 0.36796 0.0
H1042 H 0.82341 0.47864 0.39106 0.0
H1043 H 0.88569 0.48874 0.41573 0.0
H1044 H 0.97021 0.38718 0.4479 0.0
H1045 H 0.92712 0.34326 0.43176 0.0
C1046 C 0.85804 0.36548 0.40197 0.0
C1047 C 0.82345 0.38092 0.38422 0.0
C1048 C 0.88141 0.39053 0.41381 0.0
C1049 C 0.81059 0.42181 0.38171 0.0
C1050 C 0.83329 0.4471 0.39446 0.0
C1051 C 0.89433 0.45698 0.41918 0.0
C1052 C 0.93106 0.4409 0.43237 0.0
C1053 C 0.8694 0.43186 0.40949 0.0
C1054 C 0.94219 0.39989 0.43724 0.0
C1055 C 0.91753 0.37486 0.42824 0.0
H1056 H 0.62611 0.77807 0.35095 0.0
H1057 H 0.73587 0.81325 0.37025 0.0
H1058 H 0.70222 0.86073 0.41249 0.0
H1059 H 0.6412 0.89913 0.43717 0.0
H1060 H 0.5311 0.86151 0.4255 0.0
H1061 H 0.5648 0.80852 0.3876 0.0
C1062 C 0.64263 0.79537 0.36524 0.0
C1063 C 0.68347 0.79274 0.35627 0.0
C1064 C 0.62291 0.8229 0.39046 0.0
C1065 C 0.70438 0.81523 0.37553 0.0
C1066 C 0.68517 0.8426 0.39988 0.0
C1067 C 0.62476 0.87876 0.42698 0.0
C1068 C 0.58384 0.88462 0.43319 0.0
C1069 C 0.64439 0.84781 0.40634 0.0
C1070 C 0.56272 0.85781 0.42045 0.0
C1071 C 0.582 0.82751 0.39877 0.0
H1072 H 0.18594 0.70339 0.3813 0.0
H1073 H 0.19565 0.64614 0.27656 0.0
H1074 H 0.15058 0.60186 0.30709 0.0
H1075 H 0.10652 0.58082 0.36186 0.0
H1076 H 0.09236 0.6387 0.46658 0.0
H1077 H 0.14036 0.68147 0.43773 0.0
C1078 C 0.17864 0.68073 0.36554 0.0
C1079 C 0.1947 0.67772 0.32677 0.0
C1080 C 0.15135 0.65588 0.38305 0.0
C1081 C 0.18408 0.64889 0.30641 0.0
C1082 C 0.1581 0.62365 0.32382 0.0
C1083 C 0.11386 0.60262 0.3787 0.0
C1084 C 0.09559 0.60624 0.41658 0.0
C1085 C 0.14119 0.62715 0.36187 0.0
C1086 C 0.10554 0.63522 0.43736 0.0
C1087 C 0.13324 0.65959 0.42088 0.0
H1088 H 0.33739 0.2088 0.36933 0.0
H1089 H 0.31713 0.11934 0.30079 0.0
H1090 H 0.36381 0.07046 0.33594 0.0
H1091 H 0.41435 0.05458 0.38304 0.0
H1092 H 0.4299 0.14259 0.45549 0.0
H1093 H 0.38106 0.19061 0.42228 0.0
C1094 C 0.34281 0.17843 0.36258 0.0
C1095 C 0.32413 0.16765 0.33242 0.0
C1096 C 0.36906 0.15037 0.38343 0.0
C1097 C 0.33104 0.12821 0.32407 0.0
C1098 C 0.35793 0.10035 0.34396 0.0
C1099 C 0.40661 0.08419 0.3917 0.0
C1100 C 0.42584 0.09534 0.42126 0.0
C1101 C 0.37772 0.11129 0.37317 0.0
C1102 C 0.41537 0.13349 0.43277 0.0
C1103 C 0.38759 0.16095 0.41371 0.0
H1104 H 0.71703 0.85857 0.63649 0.0
H1105 H 0.64515 0.84233 0.74422 0.0
H1106 H 0.58804 0.87956 0.71442 0.0
H1107 H 0.55758 0.91378 0.65743 0.0
H1108 H 0.62719 0.92784 0.54787 0.0
H1109 H 0.68578 0.89442 0.57841 0.0
C1110 C 0.68893 0.86381 0.65335 0.0
C1111 C 0.6852 0.84805 0.69249 0.0
C1112 C 0.65566 0.8844 0.6356 0.0
C1113 C 0.64859 0.85433 0.71403 0.0
C1114 C 0.61591 0.87549 0.69701 0.0
C1115 C 0.58552 0.90969 0.64012 0.0
C1116 C 0.58776 0.92322 0.60033 0.0
C1117 C 0.61893 0.89013 0.65771 0.0
C1118 C 0.62441 0.9175 0.57851 0.0
C1119 C 0.65803 0.89848 0.596 0.0
H1120 H 0.65819 0.22173 0.37694 0.0
H1121 H 0.72298 0.13025 0.31106 0.0
H1122 H 0.68319 0.08292 0.34449 0.0
H1123 H 0.62839 0.06751 0.38912 0.0
H1124 H 0.56087 0.15675 0.45577 0.0
H1125 H 0.60346 0.20447 0.4258 0.0
C1126 C 0.66378 0.19134 0.37035 0.0
C1127 C 0.69344 0.17982 0.34117 0.0
C1128 C 0.64015 0.16377 0.38961 0.0
C1129 C 0.70019 0.14025 0.33295 0.0
C1130 C 0.67742 0.11297 0.35211 0.0
C1131 C 0.6227 0.09735 0.39734 0.0
C1132 C 0.59092 0.10843 0.42441 0.0
C1133 C 0.64696 0.12451 0.37991 0.0
C1134 C 0.58488 0.14725 0.43487 0.0
C1135 C 0.60924 0.17463 0.41765 0.0
H1136 H 0.82623 0.69891 0.37144 0.0
H1137 H 0.81974 0.61028 0.29622 0.0
H1138 H 0.86946 0.56443 0.33093 0.0
H1139 H 0.91927 0.55246 0.37879 0.0
H1140 H 0.92207 0.64 0.45647 0.0
H1141 H 0.86907 0.68359 0.4248 0.0
C1142 C 0.8353 0.66929 0.36312 0.0
C1143 C 0.81981 0.65791 0.33123 0.0
C1144 C 0.86344 0.64325 0.38334 0.0
C1145 C 0.83128 0.61946 0.32082 0.0
C1146 C 0.85988 0.59347 0.34044 0.0
C1147 C 0.90791 0.58097 0.3889 0.0
C1148 C 0.92479 0.59347 0.4194 0.0
C1149 C 0.8769 0.60546 0.37107 0.0
C1150 C 0.90952 0.62999 0.43291 0.0
C1151 C 0.87936 0.65489 0.41477 0.0
H1152 H 0.33169 0.86077 0.4185 0.0
H1153 H 0.42865 0.80282 0.34826 0.0
H1154 H 0.47157 0.84634 0.36597 0.0
H1155 H 0.47961 0.90446 0.39666 0.0
H1156 H 0.3844 0.95954 0.47102 0.0
H1157 H 0.34194 0.91439 0.45538 0.0
C1158 C 0.36247 0.8572 0.40788 0.0
C1159 C 0.37718 0.82874 0.38224 0.0
C1160 C 0.38673 0.88252 0.41788 0.0
C1161 C 0.41696 0.82421 0.36846 0.0
C1162 C 0.44127 0.84946 0.37808 0.0
C1163 C 0.44961 0.90649 0.40954 0.0
C1164 C 0.4349 0.93554 0.4345 0.0
C1165 C 0.42613 0.87939 0.40186 0.0
C1166 C 0.39612 0.93764 0.45134 0.0
C1167 C 0.37201 0.9117 0.44265 0.0
H1168 H 0.1418 0.28528 0.34457 0.0
H1169 H 0.24112 0.345 0.3502 0.0
H1170 H 0.20326 0.38666 0.39613 0.0
H1171 H 0.1405 0.41172 0.42907 0.0
H1172 H 0.0397 0.35477 0.42466 0.0
H1173 H 0.07954 0.30605 0.38503 0.0
C1174 C 0.15521 0.30707 0.35624 0.0
C1175 C 0.19419 0.31227 0.34316 0.0
C1176 C 0.13301 0.33151 0.38305 0.0
C1177 C 0.21112 0.34053 0.359 0.0
C1178 C 0.18951 0.36447 0.3855 0.0
C1179 C 0.12751 0.38798 0.42026 0.0
C1180 C 0.08734 0.38677 0.42972 0.0
C1181 C 0.15026 0.36094 0.39693 0.0
C1182 C 0.07073 0.35599 0.41813 0.0
C1183 C 0.09343 0.32848 0.39501 0.0
H1184 H 0.38548 0.21686 0.6885 0.0
H1185 H 0.28061 0.21745 0.63184 0.0
H1186 H 0.31689 0.17447 0.58577 0.0
H1187 H 0.37603 0.12866 0.56749 0.0
H1188 H 0.48156 0.12732 0.6227 0.0
H1189 H 0.44798 0.17841 0.66295 0.0
C1190 C 0.37102 0.2086 0.66526 0.0
C1191 C 0.33034 0.22007 0.66386 0.0
C1192 C 0.39209 0.18304 0.63891 0.0
C1193 C 0.31186 0.20877 0.63377 0.0
C1194 C 0.33252 0.18396 0.60744 0.0
C1195 C 0.39178 0.14041 0.58765 0.0
C1196 C 0.43099 0.12455 0.59227 0.0
C1197 C 0.37225 0.16964 0.61067 0.0
C1198 C 0.45128 0.13953 0.61863 0.0
C1199 C 0.43203 0.16855 0.64176 0.0
H1200 H 0.86809 0.2922 0.66931 0.0
H1201 H 0.7648 0.38009 0.66738 0.0
H1202 H 0.80252 0.42735 0.62783 0.0
H1203 H 0.86651 0.44507 0.59788 0.0
H1204 H 0.96825 0.35509 0.59505 0.0
H1205 H 0.9297 0.3072 0.63183 0.0
C1206 C 0.85375 0.32153 0.65961 0.0
C1207 C 0.8137 0.33272 0.67131 0.0
C1208 C 0.8755 0.3482 0.63617 0.0
C1209 C 0.79544 0.37071 0.65851 0.0
C1210 C 0.81712 0.39779 0.63611 0.0
C1211 C 0.88006 0.41481 0.60486 0.0
C1212 C 0.92038 0.40377 0.5939 0.0
C1213 C 0.85738 0.38711 0.62535 0.0
C1214 C 0.93736 0.36435 0.60289 0.0
C1215 C 0.91533 0.337 0.62417 0.0
H1216 H 0.16912 0.59104 0.68164 0.0
H1217 H 0.21189 0.65185 0.57429 0.0
H1218 H 0.17072 0.61991 0.5383 0.0
H1219 H 0.11547 0.58165 0.53921 0.0
H1220 H 0.07117 0.52512 0.64874 0.0
H1221 H 0.12007 0.54793 0.68181 0.0
C1222 C 0.17003 0.59659 0.65024 0.0
C1223 C 0.1932 0.62383 0.63062 0.0
C1224 C 0.14553 0.5792 0.63017 0.0
C1225 C 0.19439 0.63075 0.58995 0.0
C1226 C 0.17053 0.61281 0.56948 0.0
C1227 C 0.11708 0.57376 0.57015 0.0
C1228 C 0.08939 0.55191 0.59145 0.0
C1229 C 0.14488 0.58803 0.58949 0.0
C1230 C 0.09183 0.54208 0.6316 0.0
C1231 C 0.1198 0.55517 0.65066 0.0
loop_
_geom_bond_atom_site_label_1
_geom_bond_atom_site_label_2
_geom_bond_distance
_geom_bond_site_symmetry_2
_ccdc_geom_bond_type
C0 O16 1.251 . S
C0 O18 1.254 . S
N1 C2 1.333 . S
N1 C6 1.307 . S
N1 Zn7 2.020 . S
C2 N1 1.333 . S
C2 C3 1.379 . S
C2 H20 0.952 . S
C3 C2 1.379 . S
C3 C4 1.390 . S
C3 H30 0.949 . S
C4 C3 1.390 . S
C4 C5 1.357 . S
C5 C4 1.357 . S
C5 C6 1.370 . S
C5 H31 0.950 . S
C6 N1 1.307 . S
C6 C5 1.370 . S
C6 H24 0.948 . S
Zn7 N1 2.020 . S
Zn7 O16 2.039 . S
Zn7 O22 2.034 . S
Zn7 O26 2.025 . S
Zn7 O28 2.024 . S
C8 O27 1.246 . S
C8 O28 1.249 . S
N9 C10 1.307 . S
N9 C11 1.333 . S
N9 Zn15 2.020 . S
C10 N9 1.307 . S
C10 C14 1.370 . S
C10 H21 0.948 . S
C11 N9 1.333 . S
C11 C12 1.379 . S
C11 H19 0.952 . S
C12 C11 1.379 . S
C12 C13 1.390 . S
C12 H32 0.949 . S
C13 C12 1.390 . S
C13 C14 1.357 . S
C14 C10 1.370 . S
C14 C13 1.357 . S
C14 H33 0.950 . S
Zn15 N9 2.020 . S
Zn15 O18 2.025 . S
Zn15 O23 2.024 . S
Zn15 O25 2.039 . S
Zn15 O27 2.034 . S
O16 C0 1.251 . S
O16 Zn7 2.039 . S
C17 O22 1.246 . S
C17 O23 1.249 . S
O18 C0 1.254 . S
O18 Zn15 2.025 . S
H19 C11 0.952 . S
H20 C2 0.952 . S
H21 C10 0.948 . S
O22 Zn7 2.034 . S
O22 C17 1.246 . S
O23 Zn15 2.024 . S
O23 C17 1.249 . S
H24 C6 0.948 . S
O25 Zn15 2.039 . S
O25 C29 1.251 . S
O26 Zn7 2.025 . S
O26 C29 1.254 . S
O27 C8 1.246 . S
O27 Zn15 2.034 . S
O28 Zn7 2.024 . S
O28 C8 1.249 . S
C29 O25 1.251 . S
C29 O26 1.254 . S
H30 C3 0.949 . S
H31 C5 0.950 . S
H32 C12 0.949 . S
H33 C14 0.950 . S
C34 O50 1.251 . S
C34 O52 1.254 . S
N35 C36 1.333 . S
N35 C40 1.307 . S
N35 Zn41 2.020 . S
C36 N35 1.333 . S
C36 C37 1.379 . S
C36 H54 0.952 . S
C37 C36 1.379 . S
C37 C38 1.390 . S
C37 H64 0.949 . S
C38 C37 1.390 . S
C38 C39 1.357 . S
C39 C38 1.357 . S
C39 C40 1.370 . S
C39 H65 0.950 . S
C40 N35 1.307 . S
C40 C39 1.370 . S
C40 H58 0.948 . S
Zn41 N35 2.020 . S
Zn41 O50 2.039 . S
Zn41 O56 2.034 . S
Zn41 O60 2.025 . S
Zn41 O62 2.024 . S
C42 O61 1.246 . S
C42 O62 1.249 . S
N43 C44 1.307 . S
N43 C45 1.333 . S
N43 Zn49 2.020 . S
C44 N43 1.307 . S
C44 C48 1.370 . S
C44 H55 0.948 . S
C45 N43 1.333 . S
C45 C46 1.379 . S
C45 H53 0.952 . S
C46 C45 1.379 . S
C46 C47 1.390 . S
C46 H66 0.949 . S
C47 C46 1.390 . S
C47 C48 1.357 . S
C48 C44 1.370 . S
C48 C47 1.357 . S
C48 H67 0.950 . S
Zn49 N43 2.020 . S
Zn49 O52 2.025 . S
Zn49 O57 2.024 . S
Zn49 O59 2.039 . S
Zn49 O61 2.034 . S
O50 C34 1.251 . S
O50 Zn41 2.039 . S
C51 O56 1.246 . S
C51 O57 1.249 . S
O52 C34 1.254 . S
O52 Zn49 2.025 . S
H53 C45 0.952 . S
H54 C36 0.952 . S
H55 C44 0.948 . S
O56 Zn41 2.034 . S
O56 C51 1.246 . S
O57 Zn49 2.024 . S
O57 C51 1.249 . S
H58 C40 0.948 . S
O59 Zn49 2.039 . S
O59 C63 1.251 . S
O60 Zn41 2.025 . S
O60 C63 1.254 . S
O61 C42 1.246 . S
O61 Zn49 2.034 . S
O62 Zn41 2.024 . S
O62 C42 1.249 . S
C63 O59 1.251 . S
C63 O60 1.254 . S
H64 C37 0.949 . S
H65 C39 0.950 . S
H66 C46 0.949 . S
H67 C48 0.950 . S
C68 O84 1.251 . S
C68 O86 1.254 . S
N69 C70 1.333 . S
N69 C74 1.307 . S
N69 Zn75 2.020 . S
C70 N69 1.333 . S
C70 C71 1.379 . S
C70 H88 0.952 . S
C71 C70 1.379 . S
C71 C72 1.390 . S
C71 H98 0.949 . S
C72 C71 1.390 . S
C72 C73 1.357 . S
C73 C72 1.357 . S
C73 C74 1.370 . S
C73 H99 0.950 . S
C74 N69 1.307 . S
C74 C73 1.370 . S
C74 H92 0.948 . S
Zn75 N69 2.020 . S
Zn75 O84 2.039 . S
Zn75 O90 2.034 . S
Zn75 O94 2.025 . S
Zn75 O96 2.024 . S
C76 O95 1.246 . S
C76 O96 1.249 . S
N77 C78 1.307 . S
N77 C79 1.333 . S
N77 Zn83 2.020 . S
C78 N77 1.307 . S
C78 C82 1.370 . S
C78 H89 0.948 . S
C79 N77 1.333 . S
C79 C80 1.379 . S
C79 H87 0.952 . S
C80 C79 1.379 . S
C80 C81 1.390 . S
C80 H100 0.949 . S
C81 C80 1.390 . S
C81 C82 1.357 . S
C82 C78 1.370 . S
C82 C81 1.357 . S
C82 H101 0.950 . S
Zn83 N77 2.020 . S
Zn83 O86 2.025 . S
Zn83 O91 2.024 . S
Zn83 O93 2.039 . S
Zn83 O95 2.034 . S
O84 C68 1.251 . S
O84 Zn75 2.039 . S
C85 O90 1.246 . S
C85 O91 1.249 . S
O86 C68 1.254 . S
O86 Zn83 2.025 . S
H87 C79 0.952 . S
H88 C70 0.952 . S
H89 C78 0.948 . S
O90 Zn75 2.034 . S
O90 C85 1.246 . S
O91 Zn83 2.024 . S
O91 C85 1.249 . S
H92 C74 0.948 . S
O93 Zn83 2.039 . S
O93 C97 1.251 . S
O94 Zn75 2.025 . S
O94 C97 1.254 . S
O95 C76 1.246 . S
O95 Zn83 2.034 . S
O96 Zn75 2.024 . S
O96 C76 1.249 . S
C97 O93 1.251 . S
C97 O94 1.254 . S
H98 C71 0.949 . S
H99 C73 0.950 . S
H100 C80 0.949 . S
H101 C82 0.950 . S
C102 O118 1.251 . S
C102 O120 1.254 . S
N103 C104 1.333 . S
N103 C108 1.307 . S
N103 Zn109 2.020 . S
C104 N103 1.333 . S
C104 C105 1.379 . S
C104 H122 0.952 . S
C105 C104 1.379 . S
C105 C106 1.390 . S
C105 H132 0.949 . S
C106 C105 1.390 . S
C106 C107 1.357 . S
C107 C106 1.357 . S
C107 C108 1.370 . S
C107 H133 0.950 . S
C108 N103 1.307 . S
C108 C107 1.370 . S
C108 H126 0.948 . S
Zn109 N103 2.020 . S
Zn109 O118 2.039 . S
Zn109 O124 2.034 . S
Zn109 O128 2.025 . S
Zn109 O130 2.024 . S
C110 O129 1.246 . S
C110 O130 1.249 . S
N111 C112 1.307 . S
N111 C113 1.333 . S
N111 Zn117 2.020 . S
C112 N111 1.307 . S
C112 C116 1.370 . S
C112 H123 0.948 . S
C113 N111 1.333 . S
C113 C114 1.379 . S
C113 H121 0.952 . S
C114 C113 1.379 . S
C114 C115 1.390 . S
C114 H134 0.949 . S
C115 C114 1.390 . S
C115 C116 1.357 . S
C116 C112 1.370 . S
C116 C115 1.357 . S
C116 H135 0.950 . S
Zn117 N111 2.020 . S
Zn117 O120 2.025 . S
Zn117 O125 2.024 . S
Zn117 O127 2.039 . S
Zn117 O129 2.034 . S
O118 C102 1.251 . S
O118 Zn109 2.039 . S
C119 O124 1.246 . S
C119 O125 1.249 . S
O120 C102 1.254 . S
O120 Zn117 2.025 . S
H121 C113 0.952 . S
H122 C104 0.952 . S
H123 C112 0.948 . S
O124 Zn109 2.034 . S
O124 C119 1.246 . S
O125 Zn117 2.024 . S
O125 C119 1.249 . S
H126 C108 0.948 . S
O127 Zn117 2.039 . S
O127 C131 1.251 . S
O128 Zn109 2.025 . S
O128 C131 1.254 . S
O129 C110 1.246 . S
O129 Zn117 2.034 . S
O130 Zn109 2.024 . S
O130 C110 1.249 . S
C131 O127 1.251 . S
C131 O128 1.254 . S
H132 C105 0.949 . S
H133 C107 0.950 . S
H134 C114 0.949 . S
H135 C116 0.950 . S
C136 O152 1.251 . S
C136 O154 1.254 . S
N137 C138 1.333 . S
N137 C142 1.307 . S
N137 Zn143 2.020 . S
C138 N137 1.333 . S
C138 C139 1.379 . S
C138 H156 0.952 . S
C139 C138 1.379 . S
C139 C140 1.390 . S
C139 H166 0.949 . S
C140 C139 1.390 . S
C140 C141 1.357 . S
C141 C140 1.357 . S
C141 C142 1.370 . S
C141 H167 0.950 . S
C142 N137 1.307 . S
C142 C141 1.370 . S
C142 H160 0.948 . S
Zn143 N137 2.020 . S
Zn143 O152 2.039 . S
Zn143 O158 2.034 . S
Zn143 O162 2.025 . S
Zn143 O164 2.024 . S
C144 O163 1.246 . S
C144 O164 1.249 . S
N145 C146 1.307 . S
N145 C147 1.333 . S
N145 Zn151 2.020 . S
C146 N145 1.307 . S
C146 C150 1.370 . S
C146 H157 0.948 . S
C147 N145 1.333 . S
C147 C148 1.379 . S
C147 H155 0.952 . S
C148 C147 1.379 . S
C148 C149 1.390 . S
C148 H168 0.949 . S
C149 C148 1.390 . S
C149 C150 1.357 . S
C150 C146 1.370 . S
C150 C149 1.357 . S
C150 H169 0.950 . S
Zn151 N145 2.020 . S
Zn151 O154 2.025 . S
Zn151 O159 2.024 . S
Zn151 O161 2.039 . S
Zn151 O163 2.034 . S
O152 C136 1.251 . S
O152 Zn143 2.039 . S
C153 O158 1.246 . S
C153 O159 1.249 . S
O154 C136 1.254 . S
O154 Zn151 2.025 . S
H155 C147 0.952 . S
H156 C138 0.952 . S
H157 C146 0.948 . S
O158 Zn143 2.034 . S
O158 C153 1.246 . S
O159 Zn151 2.024 . S
O159 C153 1.249 . S
H160 C142 0.948 . S
O161 Zn151 2.039 . S
O161 C165 1.251 . S
O162 Zn143 2.025 . S
O162 C165 1.254 . S
O163 C144 1.246 . S
O163 Zn151 2.034 . S
O164 Zn143 2.024 . S
O164 C144 1.249 . S
C165 O161 1.251 . S
C165 O162 1.254 . S
H166 C139 0.949 . S
H167 C141 0.950 . S
H168 C148 0.949 . S
H169 C150 0.950 . S
C170 O186 1.251 . S
C170 O188 1.254 . S
N171 C172 1.333 . S
N171 C176 1.307 . S
N171 Zn177 2.020 . S
C172 N171 1.333 . S
C172 C173 1.379 . S
C172 H190 0.952 . S
C173 C172 1.379 . S
C173 C174 1.390 . S
C173 H200 0.949 . S
C174 C173 1.390 . S
C174 C175 1.357 . S
C175 C174 1.357 . S
C175 C176 1.370 . S
C175 H201 0.950 . S
C176 N171 1.307 . S
C176 C175 1.370 . S
C176 H194 0.948 . S
Zn177 N171 2.020 . S
Zn177 O186 2.039 . S
Zn177 O192 2.034 . S
Zn177 O196 2.025 . S
Zn177 O198 2.024 . S
C178 O197 1.246 . S
C178 O198 1.249 . S
N179 C180 1.307 . S
N179 C181 1.333 . S
N179 Zn185 2.020 . S
C180 N179 1.307 . S
C180 C184 1.370 . S
C180 H191 0.948 . S
C181 N179 1.333 . S
C181 C182 1.379 . S
C181 H189 0.952 . S
C182 C181 1.379 . S
C182 C183 1.390 . S
C182 H202 0.949 . S
C183 C182 1.390 . S
C183 C184 1.357 . S
C184 C180 1.370 . S
C184 C183 1.357 . S
C184 H203 0.950 . S
Zn185 N179 2.020 . S
Zn185 O188 2.025 . S
Zn185 O193 2.024 . S
Zn185 O195 2.039 . S
Zn185 O197 2.034 . S
O186 C170 1.251 . S
O186 Zn177 2.039 . S
C187 O192 1.246 . S
C187 O193 1.249 . S
O188 C170 1.254 . S
O188 Zn185 2.025 . S
H189 C181 0.952 . S
H190 C172 0.952 . S
H191 C180 0.948 . S
O192 Zn177 2.034 . S
O192 C187 1.246 . S
O193 Zn185 2.024 . S
O193 C187 1.249 . S
H194 C176 0.948 . S
O195 Zn185 2.039 . S
O195 C199 1.251 . S
O196 Zn177 2.025 . S
O196 C199 1.254 . S
O197 C178 1.246 . S
O197 Zn185 2.034 . S
O198 Zn177 2.024 . S
O198 C178 1.249 . S
C199 O195 1.251 . S
C199 O196 1.254 . S
H200 C173 0.949 . S
H201 C175 0.950 . S
H202 C182 0.949 . S
H203 C184 0.950 . S
C204 O220 1.251 . S
C204 O222 1.254 . S
N205 C206 1.333 . S
N205 C210 1.307 . S
N205 Zn211 2.020 . S
C206 N205 1.333 . S
C206 C207 1.379 . S
C206 H224 0.952 . S
C207 C206 1.379 . S
C207 C208 1.390 . S
C207 H234 0.949 . S
C208 C207 1.390 . S
C208 C209 1.357 . S
C209 C208 1.357 . S
C209 C210 1.370 . S
C209 H235 0.950 . S
C210 N205 1.307 . S
C210 C209 1.370 . S
C210 H228 0.948 . S
Zn211 N205 2.020 . S
Zn211 O220 2.039 . S
Zn211 O226 2.034 . S
Zn211 O230 2.025 . S
Zn211 O232 2.024 . S
C212 O231 1.246 . S
C212 O232 1.249 . S
N213 C214 1.307 . S
N213 C215 1.333 . S
N213 Zn219 2.020 . S
C214 N213 1.307 . S
C214 C218 1.370 . S
C214 H225 0.948 . S
C215 N213 1.333 . S
C215 C216 1.379 . S
C215 H223 0.952 . S
C216 C215 1.379 . S
C216 C217 1.390 . S
C216 H236 0.949 . S
C217 C216 1.390 . S
C217 C218 1.357 . S
C218 C214 1.370 . S
C218 C217 1.357 . S
C218 H237 0.950 . S
Zn219 N213 2.020 . S
Zn219 O222 2.025 . S
Zn219 O227 2.024 . S
Zn219 O229 2.039 . S
Zn219 O231 2.034 . S
O220 C204 1.251 . S
O220 Zn211 2.039 . S
C221 O226 1.246 . S
C221 O227 1.249 . S
O222 C204 1.254 . S
O222 Zn219 2.025 . S
H223 C215 0.952 . S
H224 C206 0.952 . S
H225 C214 0.948 . S
O226 Zn211 2.034 . S
O226 C221 1.246 . S
O227 Zn219 2.024 . S
O227 C221 1.249 . S
H228 C210 0.948 . S
O229 Zn219 2.039 . S
O229 C233 1.251 . S
O230 Zn211 2.025 . S
O230 C233 1.254 . S
O231 C212 1.246 . S
O231 Zn219 2.034 . S
O232 Zn211 2.024 . S
O232 C212 1.249 . S
C233 O229 1.251 . S
C233 O230 1.254 . S
H234 C207 0.949 . S
H235 C209 0.950 . S
H236 C216 0.949 . S
H237 C218 0.950 . S
C238 O254 1.251 . S
C238 O256 1.254 . S
N239 C240 1.333 . S
N239 C244 1.307 . S
N239 Zn245 2.020 . S
C240 N239 1.333 . S
C240 C241 1.379 . S
C240 H258 0.952 . S
C241 C240 1.379 . S
C241 C242 1.390 . S
C241 H268 0.949 . S
C242 C241 1.390 . S
C242 C243 1.357 . S
C243 C242 1.357 . S
C243 C244 1.370 . S
C243 H269 0.950 . S
C244 N239 1.307 . S
C244 C243 1.370 . S
C244 H262 0.948 . S
Zn245 N239 2.020 . S
Zn245 O254 2.039 . S
Zn245 O260 2.034 . S
Zn245 O264 2.025 . S
Zn245 O266 2.024 . S
C246 O265 1.246 . S
C246 O266 1.249 . S
N247 C248 1.307 . S
N247 C249 1.333 . S
N247 Zn253 2.020 . S
C248 N247 1.307 . S
C248 C252 1.370 . S
C248 H259 0.948 . S
C249 N247 1.333 . S
C249 C250 1.379 . S
C249 H257 0.952 . S
C250 C249 1.379 . S
C250 C251 1.390 . S
C250 H270 0.949 . S
C251 C250 1.390 . S
C251 C252 1.357 . S
C252 C248 1.370 . S
C252 C251 1.357 . S
C252 H271 0.950 . S
Zn253 N247 2.020 . S
Zn253 O256 2.025 . S
Zn253 O261 2.024 . S
Zn253 O263 2.039 . S
Zn253 O265 2.034 . S
O254 C238 1.251 . S
O254 Zn245 2.039 . S
C255 O260 1.246 . S
C255 O261 1.249 . S
O256 C238 1.254 . S
O256 Zn253 2.025 . S
H257 C249 0.952 . S
H258 C240 0.952 . S
H259 C248 0.948 . S
O260 Zn245 2.034 . S
O260 C255 1.246 . S
O261 Zn253 2.024 . S
O261 C255 1.249 . S
H262 C244 0.948 . S
O263 Zn253 2.039 . S
O263 C267 1.251 . S
O264 Zn245 2.025 . S
O264 C267 1.254 . S
O265 C246 1.246 . S
O265 Zn253 2.034 . S
O266 Zn245 2.024 . S
O266 C246 1.249 . S
C267 O263 1.251 . S
C267 O264 1.254 . S
H268 C241 0.949 . S
H269 C243 0.950 . S
H270 C250 0.949 . S
H271 C252 0.950 . S
Fe272 O273 1.886 . S
Fe272 O276 1.715 1_655 S
Fe272 O281 2.077 . S
Fe272 O286 1.935 1_655 S
Fe272 O292 2.077 . S
Fe272 O301 1.935 1_655 S
O273 Fe272 1.886 . S
O273 Fe275 1.715 . S
Fe274 O276 1.886 1_565 S
Fe274 O277 1.715 . S
Fe274 O284 1.935 . S
Fe274 O285 2.077 1_565 S
Fe274 O291 1.935 . S
Fe274 O300 2.077 1_565 S
Fe275 O273 1.715 . S
Fe275 O278 1.886 1_545 S
Fe275 O282 1.935 . S
Fe275 O287 2.077 1_545 S
Fe275 O293 1.935 . S
Fe275 O297 2.077 1_545 S
O276 Fe272 1.715 1_455 S
O276 Fe274 1.886 1_545 S
O277 Fe274 1.715 . S
O277 Fe279 1.886 . S
O278 Fe275 1.886 1_565 S
O278 Fe279 1.715 1_655 S
Fe279 O277 1.886 . S
Fe279 O278 1.715 1_455 S
Fe279 O283 2.077 . S
Fe279 O288 1.935 1_455 S
Fe279 O290 2.077 . S
Fe279 O298 1.935 1_455 S
C280 O292 1.381 . S
C280 O293 1.421 . S
O281 Fe272 2.077 . S
O281 C294 1.381 . S
O282 Fe275 1.935 . S
O282 C294 1.421 . S
O283 Fe279 2.077 . S
O283 C299 1.381 . S
O284 Fe274 1.935 . S
O284 C299 1.421 . S
O285 Fe274 2.077 1_545 S
O285 C289 1.381 . S
O286 Fe272 1.935 1_455 S
O286 C289 1.421 . S
O287 Fe275 2.077 1_565 S
O287 C295 1.381 . S
O288 Fe279 1.935 1_655 S
O288 C295 1.421 . S
C289 O285 1.381 . S
C289 O286 1.421 . S
O290 Fe279 2.077 . S
O290 C302 1.381 . S
O291 Fe274 1.935 . S
O291 C302 1.421 . S
O292 Fe272 2.077 . S
O292 C280 1.381 . S
O293 Fe275 1.935 . S
O293 C280 1.421 . S
C294 O281 1.381 . S
C294 O282 1.421 . S
C295 O287 1.381 . S
C295 O288 1.421 . S
C296 O297 1.381 . S
C296 O298 1.421 . S
O297 Fe275 2.077 1_565 S
O297 C296 1.381 . S
O298 Fe279 1.935 1_655 S
O298 C296 1.421 . S
C299 O283 1.381 . S
C299 O284 1.421 . S
O300 Fe274 2.077 1_545 S
O300 C303 1.381 . S
O301 Fe272 1.935 1_455 S
O301 C303 1.421 . S
C302 O290 1.381 . S
C302 O291 1.421 . S
C303 O300 1.381 . S
C303 O301 1.421 . S
Fe304 O305 1.885 1_554 S
Fe304 O308 1.715 . S
Fe304 O313 2.077 1_554 S
Fe304 O318 1.935 1_554 S
Fe304 O324 2.077 . S
Fe304 O333 1.935 . S
O305 Fe304 1.885 1_556 S
O305 Fe307 1.715 . S
Fe306 O308 1.886 1_545 S
Fe306 O309 1.715 . S
Fe306 O316 1.935 1_554 S
Fe306 O317 2.077 1_544 S
Fe306 O323 1.935 . S
Fe306 O332 2.077 1_545 S
Fe307 O305 1.715 . S
Fe307 O310 1.886 1_565 S
Fe307 O314 1.935 . S
Fe307 O319 2.077 1_565 S
Fe307 O325 1.935 1_556 S
Fe307 O329 2.077 1_566 S
O308 Fe304 1.715 . S
O308 Fe306 1.886 1_565 S
O309 Fe306 1.715 . S
O309 Fe311 1.886 1_554 S
O310 Fe307 1.886 1_545 S
O310 Fe311 1.715 . S
Fe311 O309 1.886 1_556 S
Fe311 O310 1.715 . S
Fe311 O315 2.077 . S
Fe311 O320 1.935 . S
Fe311 O322 2.077 1_556 S
Fe311 O330 1.935 1_556 S
C312 O324 1.381 . S
C312 O325 1.421 . S
O313 Fe304 2.077 1_556 S
O313 C326 1.381 . S
O314 Fe307 1.935 . S
O314 C326 1.421 . S
O315 Fe311 2.077 . S
O315 C331 1.381 . S
O316 Fe306 1.935 1_556 S
O316 C331 1.421 . S
O317 Fe306 2.077 1_566 S
O317 C321 1.381 . S
O318 Fe304 1.935 1_556 S
O318 C321 1.421 . S
O319 Fe307 2.077 1_545 S
O319 C327 1.381 . S
O320 Fe311 1.935 . S
O320 C327 1.421 . S
C321 O317 1.381 . S
C321 O318 1.421 . S
O322 Fe311 2.077 1_554 S
O322 C334 1.381 . S
O323 Fe306 1.935 . S
O323 C334 1.421 . S
O324 Fe304 2.077 . S
O324 C312 1.381 . S
O325 Fe307 1.935 1_554 S
O325 C312 1.421 . S
C326 O313 1.381 . S
C326 O314 1.421 . S
C327 O319 1.381 . S
C327 O320 1.421 . S
C328 O329 1.381 . S
C328 O330 1.421 . S
O329 Fe307 2.077 1_544 S
O329 C328 1.381 . S
O330 Fe311 1.935 1_554 S
O330 C328 1.421 . S
C331 O315 1.381 . S
C331 O316 1.421 . S
O332 Fe306 2.077 1_565 S
O332 C335 1.381 . S
O333 Fe304 1.935 . S
O333 C335 1.421 . S
C334 O322 1.381 . S
C334 O323 1.421 . S
C335 O332 1.381 . S
C335 O333 1.421 . S
Fe336 O337 1.886 1_556 S
Fe336 O340 1.715 1_655 S
Fe336 O345 2.077 . S
Fe336 O350 1.935 1_655 S
Fe336 O356 2.077 1_556 S
Fe336 O365 1.935 1_656 S
O337 Fe336 1.886 1_554 S
O337 Fe339 1.715 . S
Fe338 O340 1.886 . S
Fe338 O341 1.715 . S
Fe338 O348 1.935 . S
Fe338 O349 2.077 . S
Fe338 O355 1.935 1_556 S
Fe338 O364 2.077 1_556 S
Fe339 O337 1.715 . S
Fe339 O342 1.886 . S
Fe339 O346 1.935 1_554 S
Fe339 O351 2.077 1_554 S
Fe339 O357 1.935 . S
Fe339 O361 2.077 . S
O340 Fe336 1.715 1_455 S
O340 Fe338 1.886 . S
O341 Fe338 1.715 . S
O341 Fe343 1.885 1_556 S
O342 Fe339 1.886 . S
O342 Fe343 1.715 1_655 S
Fe343 O341 1.885 1_554 S
Fe343 O342 1.715 1_455 S
Fe343 O347 2.077 1_554 S
Fe343 O352 1.935 1_454 S
Fe343 O354 2.077 . S
Fe343 O362 1.935 1_455 S
C344 O356 1.381 . S
C344 O357 1.421 . S
O345 Fe336 2.077 . S
O345 C358 1.381 . S
O346 Fe339 1.935 1_556 S
O346 C358 1.421 . S
O347 Fe343 2.077 1_556 S
O347 C363 1.381 . S
O348 Fe338 1.935 . S
O348 C363 1.421 . S
O349 Fe338 2.077 . S
O349 C353 1.381 . S
O350 Fe336 1.935 1_455 S
O350 C353 1.421 . S
O351 Fe339 2.077 1_556 S
O351 C359 1.381 . S
O352 Fe343 1.935 1_656 S
O352 C359 1.421 . S
C353 O349 1.381 . S
C353 O350 1.421 . S
O354 Fe343 2.077 . S
O354 C366 1.381 . S
O355 Fe338 1.935 1_554 S
O355 C366 1.421 . S
O356 Fe336 2.077 1_554 S
O356 C344 1.381 . S
O357 Fe339 1.935 . S
O357 C344 1.421 . S
C358 O345 1.381 . S
C358 O346 1.421 . S
C359 O351 1.381 . S
C359 O352 1.421 . S
C360 O361 1.381 . S
C360 O362 1.421 . S
O361 Fe339 2.077 . S
O361 C360 1.381 . S
O362 Fe343 1.935 1_655 S
O362 C360 1.421 . S
C363 O347 1.381 . S
C363 O348 1.421 . S
O364 Fe338 2.077 1_554 S
O364 C367 1.381 . S
O365 Fe336 1.935 1_454 S
O365 C367 1.421 . S
C366 O354 1.381 . S
C366 O355 1.421 . S
C367 O364 1.381 . S
C367 O365 1.421 . S
Fe368 O369 1.886 . S
Fe368 O372 1.715 . S
Fe368 O377 2.077 . S
Fe368 O382 1.935 . S
Fe368 O388 2.077 . S
Fe368 O397 1.935 . S
O369 Fe368 1.886 . S
O369 Fe371 1.715 . S
Fe370 O372 1.886 1_554 S
Fe370 O373 1.715 . S
Fe370 O380 1.935 . S
Fe370 O381 2.077 1_554 S
Fe370 O387 1.935 . S
Fe370 O396 2.077 1_554 S
Fe371 O369 1.715 . S
Fe371 O374 1.886 1_556 S
Fe371 O378 1.935 . S
Fe371 O383 2.077 1_556 S
Fe371 O389 1.935 . S
Fe371 O393 2.077 1_556 S
O372 Fe368 1.715 . S
O372 Fe370 1.886 1_556 S
O373 Fe370 1.715 . S
O373 Fe375 1.886 . S
O374 Fe371 1.886 1_554 S
O374 Fe375 1.715 . S
Fe375 O373 1.886 . S
Fe375 O374 1.715 . S
Fe375 O379 2.077 . S
Fe375 O384 1.935 . S
Fe375 O386 2.077 . S
Fe375 O394 1.935 . S
C376 O388 1.381 . S
C376 O389 1.421 . S
O377 Fe368 2.077 . S
O377 C390 1.381 . S
O378 Fe371 1.935 . S
O378 C390 1.421 . S
O379 Fe375 2.077 . S
O379 C395 1.381 . S
O380 Fe370 1.935 . S
O380 C395 1.421 . S
O381 Fe370 2.077 1_556 S
O381 C385 1.381 . S
O382 Fe368 1.935 . S
O382 C385 1.421 . S
O383 Fe371 2.077 1_554 S
O383 C391 1.381 . S
O384 Fe375 1.935 . S
O384 C391 1.421 . S
C385 O381 1.381 . S
C385 O382 1.421 . S
O386 Fe375 2.077 . S
O386 C398 1.381 . S
O387 Fe370 1.935 . S
O387 C398 1.421 . S
O388 Fe368 2.077 . S
O388 C376 1.381 . S
O389 Fe371 1.935 . S
O389 C376 1.421 . S
C390 O377 1.381 . S
C390 O378 1.421 . S
C391 O383 1.381 . S
C391 O384 1.421 . S
C392 O393 1.381 . S
C392 O394 1.421 . S
O393 Fe371 2.077 1_554 S
O393 C392 1.381 . S
O394 Fe375 1.935 . S
O394 C392 1.421 . S
C395 O379 1.381 . S
C395 O380 1.421 . S
O396 Fe370 2.077 1_556 S
O396 C399 1.381 . S
O397 Fe368 1.935 . S
O397 C399 1.421 . S
C398 O386 1.381 . S
C398 O387 1.421 . S
C399 O396 1.381 . S
C399 O397 1.421 . S
Fe400 O401 1.886 . S
Fe400 O404 1.715 . S
Fe400 O409 2.077 . S
Fe400 O414 1.935 . S
Fe400 O420 2.077 1_455 S
Fe400 O429 1.935 1_455 S
O401 Fe400 1.886 . S
O401 Fe403 1.715 1_455 S
Fe402 O404 1.886 . S
Fe402 O405 1.715 1_455 S
Fe402 O412 1.935 . S
Fe402 O413 2.077 . S
Fe402 O419 1.935 1_455 S
Fe402 O428 2.077 1_455 S
Fe403 O401 1.715 1_655 S
Fe403 O406 1.886 . S
Fe403 O410 1.935 1_655 S
Fe403 O415 2.077 1_655 S
Fe403 O421 1.935 . S
Fe403 O425 2.077 . S
O404 Fe400 1.715 . S
O404 Fe402 1.886 . S
O405 Fe402 1.715 1_655 S
O405 Fe407 1.886 . S
O406 Fe403 1.886 . S
O406 Fe407 1.715 . S
Fe407 O405 1.886 . S
Fe407 O406 1.715 . S
Fe407 O411 2.077 1_655 S
Fe407 O416 1.935 1_655 S
Fe407 O418 2.077 . S
Fe407 O426 1.935 . S
C408 O420 1.381 . S
C408 O421 1.421 . S
O409 Fe400 2.077 . S
O409 C422 1.381 . S
O410 Fe403 1.935 1_455 S
O410 C422 1.421 . S
O411 Fe407 2.077 1_455 S
O411 C427 1.381 . S
O412 Fe402 1.935 . S
O412 C427 1.421 . S
O413 Fe402 2.077 . S
O413 C417 1.381 . S
O414 Fe400 1.935 . S
O414 C417 1.421 . S
O415 Fe403 2.077 1_455 S
O415 C423 1.381 . S
O416 Fe407 1.935 1_455 S
O416 C423 1.421 . S
C417 O413 1.381 . S
C417 O414 1.421 . S
O418 Fe407 2.077 . S
O418 C430 1.381 . S
O419 Fe402 1.935 1_655 S
O419 C430 1.421 . S
O420 Fe400 2.077 1_655 S
O420 C408 1.381 . S
O421 Fe403 1.935 . S
O421 C408 1.421 . S
C422 O409 1.381 . S
C422 O410 1.421 . S
C423 O415 1.381 . S
C423 O416 1.421 . S
C424 O425 1.381 . S
C424 O426 1.421 . S
O425 Fe403 2.077 . S
O425 C424 1.381 . S
O426 Fe407 1.935 . S
O426 C424 1.421 . S
C427 O411 1.381 . S
C427 O412 1.421 . S
O428 Fe402 2.077 1_655 S
O428 C431 1.381 . S
O429 Fe400 1.935 1_655 S
O429 C431 1.421 . S
C430 O418 1.381 . S
C430 O419 1.421 . S
C431 O428 1.381 . S
C431 O429 1.421 . S
Fe432 O433 1.886 . S
Fe432 O436 1.715 . S
Fe432 O441 2.077 . S
Fe432 O446 1.935 . S
Fe432 O452 2.077 . S
Fe432 O461 1.935 . S
O433 Fe432 1.886 . S
O433 Fe435 1.715 . S
Fe434 O436 1.886 1_545 S
Fe434 O437 1.715 . S
Fe434 O444 1.935 . S
Fe434 O445 2.077 1_545 S
Fe434 O451 1.935 . S
Fe434 O460 2.077 1_545 S
Fe435 O433 1.715 . S
Fe435 O438 1.886 1_565 S
Fe435 O442 1.935 . S
Fe435 O447 2.077 1_565 S
Fe435 O453 1.935 . S
Fe435 O457 2.077 1_565 S
O436 Fe432 1.715 . S
O436 Fe434 1.886 1_565 S
O437 Fe434 1.715 . S
O437 Fe439 1.886 . S
O438 Fe435 1.886 1_545 S
O438 Fe439 1.715 . S
Fe439 O437 1.886 . S
Fe439 O438 1.715 . S
Fe439 O443 2.077 . S
Fe439 O448 1.935 . S
Fe439 O450 2.077 . S
Fe439 O458 1.935 . S
C440 O452 1.381 . S
C440 O453 1.421 . S
O441 Fe432 2.077 . S
O441 C454 1.381 . S
O442 Fe435 1.935 . S
O442 C454 1.421 . S
O443 Fe439 2.077 . S
O443 C459 1.381 . S
O444 Fe434 1.935 . S
O444 C459 1.421 . S
O445 Fe434 2.077 1_565 S
O445 C449 1.381 . S
O446 Fe432 1.935 . S
O446 C449 1.421 . S
O447 Fe435 2.077 1_545 S
O447 C455 1.381 . S
O448 Fe439 1.935 . S
O448 C455 1.421 . S
C449 O445 1.381 . S
C449 O446 1.421 . S
O450 Fe439 2.077 . S
O450 C462 1.381 . S
O451 Fe434 1.935 . S
O451 C462 1.421 . S
O452 Fe432 2.077 . S
O452 C440 1.381 . S
O453 Fe435 1.935 . S
O453 C440 1.421 . S
C454 O441 1.381 . S
C454 O442 1.421 . S
C455 O447 1.381 . S
C455 O448 1.421 . S
C456 O457 1.381 . S
C456 O458 1.421 . S
O457 Fe435 2.077 1_545 S
O457 C456 1.381 . S
O458 Fe439 1.935 . S
O458 C456 1.421 . S
C459 O443 1.381 . S
C459 O444 1.421 . S
O460 Fe434 2.077 1_565 S
O460 C463 1.381 . S
O461 Fe432 1.935 . S
O461 C463 1.421 . S
C462 O450 1.381 . S
C462 O451 1.421 . S
C463 O460 1.381 . S
C463 O461 1.421 . S
H464 C470 0.930 . S
H465 C473 0.930 . S
H466 C474 0.930 . S
H467 C475 0.930 . S
H468 C478 0.930 . S
H469 C479 0.930 . S
C470 H464 0.930 . S
C470 C471 1.355 . S
C470 C472 1.415 . S
C471 C470 1.355 . S
C471 C473 1.419 . S
C472 C470 1.415 . S
C472 C477 1.425 . S
C472 C479 1.409 . S
C473 H465 0.930 . S
C473 C471 1.419 . S
C473 C474 1.362 . S
C474 H466 0.930 . S
C474 C473 1.362 . S
C474 C477 1.409 . S
C475 H467 0.930 . S
C475 C476 1.355 . S
C475 C477 1.415 . S
C476 C475 1.355 . S
C476 C478 1.419 . S
C477 C472 1.425 . S
C477 C474 1.409 . S
C477 C475 1.415 . S
C478 H468 0.930 . S
C478 C476 1.419 . S
C478 C479 1.362 . S
C479 H469 0.930 . S
C479 C472 1.409 . S
C479 C478 1.362 . S
H480 C486 0.930 . S
H481 C489 0.930 . S
H482 C490 0.930 . S
H483 C491 0.930 . S
H484 C494 0.930 . S
H485 C495 0.930 . S
C486 H480 0.930 . S
C486 C487 1.355 . S
C486 C488 1.415 . S
C487 C486 1.355 . S
C487 C489 1.419 . S
C488 C486 1.415 . S
C488 C493 1.425 . S
C488 C495 1.409 . S
C489 H481 0.930 . S
C489 C487 1.419 . S
C489 C490 1.362 . S
C490 H482 0.930 . S
C490 C489 1.362 . S
C490 C493 1.409 . S
C491 H483 0.930 . S
C491 C492 1.355 . S
C491 C493 1.415 . S
C492 C491 1.355 . S
C492 C494 1.419 . S
C493 C488 1.425 . S
C493 C490 1.409 . S
C493 C491 1.415 . S
C494 H484 0.930 . S
C494 C492 1.419 . S
C494 C495 1.362 . S
C495 H485 0.930 . S
C495 C488 1.409 . S
C495 C494 1.362 . S
H496 C502 0.930 . S
H497 C505 0.930 . S
H498 C506 0.930 . S
H499 C507 0.930 . S
H500 C510 0.930 . S
H501 C511 0.930 . S
C502 H496 0.930 . S
C502 C503 1.355 . S
C502 C504 1.415 . S
C503 C502 1.355 . S
C503 C505 1.419 . S
C504 C502 1.415 . S
C504 C509 1.425 . S
C504 C511 1.409 . S
C505 H497 0.930 . S
C505 C503 1.419 . S
C505 C506 1.362 . S
C506 H498 0.930 . S
C506 C505 1.362 . S
C506 C509 1.409 . S
C507 H499 0.930 . S
C507 C508 1.355 . S
C507 C509 1.415 . S
C508 C507 1.355 . S
C508 C510 1.419 . S
C509 C504 1.425 . S
C509 C506 1.409 . S
C509 C507 1.415 . S
C510 H500 0.930 . S
C510 C508 1.419 . S
C510 C511 1.362 . S
C511 H501 0.930 . S
C511 C504 1.409 . S
C511 C510 1.362 . S
H512 C518 0.930 . S
H513 C521 0.930 . S
H514 C522 0.930 . S
H515 C523 0.930 . S
H516 C526 0.930 . S
H517 C527 0.930 . S
C518 H512 0.930 . S
C518 C519 1.355 . S
C518 C520 1.415 . S
C519 C518 1.355 . S
C519 C521 1.419 . S
C520 C518 1.415 . S
C520 C525 1.425 . S
C520 C527 1.409 . S
C521 H513 0.930 . S
C521 C519 1.419 . S
C521 C522 1.362 . S
C522 H514 0.930 . S
C522 C521 1.362 . S
C522 C525 1.409 . S
C523 H515 0.930 . S
C523 C524 1.355 . S
C523 C525 1.415 . S
C524 C523 1.355 . S
C524 C526 1.419 . S
C525 C520 1.425 . S
C525 C522 1.409 . S
C525 C523 1.415 . S
C526 H516 0.930 . S
C526 C524 1.419 . S
C526 C527 1.362 . S
C527 H517 0.930 . S
C527 C520 1.409 . S
C527 C526 1.362 . S
H528 C534 0.930 . S
H529 C537 0.930 . S
H530 C538 0.930 . S
H531 C539 0.930 . S
H532 C542 0.930 . S
H533 C543 0.930 . S
C534 H528 0.930 . S
C534 C535 1.355 . S
C534 C536 1.415 . S
C535 C534 1.355 . S
C535 C537 1.419 . S
C536 C534 1.415 . S
C536 C541 1.425 . S
C536 C543 1.409 . S
C537 H529 0.930 . S
C537 C535 1.419 . S
C537 C538 1.362 . S
C538 H530 0.930 . S
C538 C537 1.362 . S
C538 C541 1.409 . S
C539 H531 0.930 . S
C539 C540 1.355 . S
C539 C541 1.415 . S
C540 C539 1.355 . S
C540 C542 1.419 . S
C541 C536 1.425 . S
C541 C538 1.409 . S
C541 C539 1.415 . S
C542 H532 0.930 . S
C542 C540 1.419 . S
C542 C543 1.362 . S
C543 H533 0.930 . S
C543 C536 1.409 . S
C543 C542 1.362 . S
H544 C550 0.930 . S
H545 C553 0.930 . S
H546 C554 0.930 . S
H547 C555 0.930 . S
H548 C558 0.930 . S
H549 C559 0.930 . S
C550 H544 0.930 . S
C550 C551 1.355 . S
C550 C552 1.415 . S
C551 C550 1.355 . S
C551 C553 1.419 . S
C552 C550 1.415 . S
C552 C557 1.425 . S
C552 C559 1.409 . S
C553 H545 0.930 . S
C553 C551 1.419 . S
C553 C554 1.362 . S
C554 H546 0.930 . S
C554 C553 1.362 . S
C554 C557 1.409 . S
C555 H547 0.930 . S
C555 C556 1.355 . S
C555 C557 1.415 . S
C556 C555 1.355 . S
C556 C558 1.419 . S
C557 C552 1.425 . S
C557 C554 1.409 . S
C557 C555 1.415 . S
C558 H548 0.930 . S
C558 C556 1.419 . S
C558 C559 1.362 . S
C559 H549 0.930 . S
C559 C552 1.409 . S
C559 C558 1.362 . S
H560 C566 0.930 . S
H561 C569 0.930 . S
H562 C570 0.930 . S
H563 C571 0.930 . S
H564 C574 0.930 . S
H565 C575 0.930 . S
C566 H560 0.930 . S
C566 C567 1.355 . S
C566 C568 1.415 . S
C567 C566 1.355 . S
C567 C569 1.419 . S
C568 C566 1.415 . S
C568 C573 1.425 . S
C568 C575 1.409 . S
C569 H561 0.930 . S
C569 C567 1.419 . S
C569 C570 1.362 . S
C570 H562 0.930 . S
C570 C569 1.362 . S
C570 C573 1.409 . S
C571 H563 0.930 . S
C571 C572 1.355 . S
C571 C573 1.415 . S
C572 C571 1.355 . S
C572 C574 1.419 . S
C573 C568 1.425 . S
C573 C570 1.409 . S
C573 C571 1.415 . S
C574 H564 0.930 . S
C574 C572 1.419 . S
C574 C575 1.362 . S
C575 H565 0.930 . S
C575 C568 1.409 . S
C575 C574 1.362 . S
H576 C582 0.930 . S
H577 C585 0.930 . S
H578 C586 0.930 . S
H579 C587 0.930 . S
H580 C590 0.930 . S
H581 C591 0.930 . S
C582 H576 0.930 . S
C582 C583 1.355 . S
C582 C584 1.415 . S
C583 C582 1.355 . S
C583 C585 1.419 . S
C584 C582 1.415 . S
C584 C589 1.425 . S
C584 C591 1.409 . S
C585 H577 0.930 . S
C585 C583 1.419 . S
C585 C586 1.362 . S
C586 H578 0.930 . S
C586 C585 1.362 . S
C586 C589 1.409 . S
C587 H579 0.930 . S
C587 C588 1.355 . S
C587 C589 1.415 . S
C588 C587 1.355 . S
C588 C590 1.419 . S
C589 C584 1.425 . S
C589 C586 1.409 . S
C589 C587 1.415 . S
C590 H580 0.930 . S
C590 C588 1.419 . S
C590 C591 1.362 . S
C591 H581 0.930 . S
C591 C584 1.409 . S
C591 C590 1.362 . S
H592 C598 0.930 . S
H593 C601 0.930 . S
H594 C602 0.930 . S
H595 C603 0.930 . S
H596 C606 0.930 . S
H597 C607 0.930 . S
C598 H592 0.930 . S
C598 C599 1.355 . S
C598 C600 1.415 . S
C599 C598 1.355 . S
C599 C601 1.419 . S
C600 C598 1.415 . S
C600 C605 1.425 . S
C600 C607 1.409 . S
C601 H593 0.930 . S
C601 C599 1.419 . S
C601 C602 1.362 . S
C602 H594 0.930 . S
C602 C601 1.362 . S
C602 C605 1.409 . S
C603 H595 0.930 . S
C603 C604 1.355 . S
C603 C605 1.415 . S
C604 C603 1.355 . S
C604 C606 1.419 . S
C605 C600 1.425 . S
C605 C602 1.409 . S
C605 C603 1.415 . S
C606 H596 0.930 . S
C606 C604 1.419 . S
C606 C607 1.362 . S
C607 H597 0.930 . S
C607 C600 1.409 . S
C607 C606 1.362 . S
H608 C614 0.930 . S
H609 C617 0.930 . S
H610 C618 0.930 . S
H611 C619 0.930 . S
H612 C622 0.930 . S
H613 C623 0.930 . S
C614 H608 0.930 . S
C614 C615 1.355 . S
C614 C616 1.415 . S
C615 C614 1.355 . S
C615 C617 1.419 . S
C616 C614 1.415 . S
C616 C621 1.425 . S
C616 C623 1.409 . S
C617 H609 0.930 . S
C617 C615 1.419 . S
C617 C618 1.362 . S
C618 H610 0.930 . S
C618 C617 1.362 . S
C618 C621 1.409 . S
C619 H611 0.930 . S
C619 C620 1.355 . S
C619 C621 1.415 . S
C620 C619 1.355 . S
C620 C622 1.419 . S
C621 C616 1.425 . S
C621 C618 1.409 . S
C621 C619 1.415 . S
C622 H612 0.930 . S
C622 C620 1.419 . S
C622 C623 1.362 . S
C623 H613 0.930 . S
C623 C616 1.409 . S
C623 C622 1.362 . S
H624 C630 0.930 . S
H625 C633 0.930 . S
H626 C634 0.930 . S
H627 C635 0.930 . S
H628 C638 0.930 . S
H629 C639 0.930 . S
C630 H624 0.930 . S
C630 C631 1.355 . S
C630 C632 1.415 . S
C631 C630 1.355 . S
C631 C633 1.419 . S
C632 C630 1.415 . S
C632 C637 1.425 . S
C632 C639 1.409 . S
C633 H625 0.930 . S
C633 C631 1.419 . S
C633 C634 1.362 . S
C634 H626 0.930 . S
C634 C633 1.362 . S
C634 C637 1.409 . S
C635 H627 0.930 . S
C635 C636 1.355 . S
C635 C637 1.415 . S
C636 C635 1.355 . S
C636 C638 1.419 . S
C637 C632 1.425 . S
C637 C634 1.409 . S
C637 C635 1.415 . S
C638 H628 0.930 . S
C638 C636 1.419 . S
C638 C639 1.362 . S
C639 H629 0.930 . S
C639 C632 1.409 . S
C639 C638 1.362 . S
H640 C646 0.930 . S
H641 C649 0.930 . S
H642 C650 0.930 . S
H643 C651 0.930 . S
H644 C654 0.930 . S
H645 C655 0.930 . S
C646 H640 0.930 . S
C646 C647 1.355 . S
C646 C648 1.415 . S
C647 C646 1.355 . S
C647 C649 1.419 . S
C648 C646 1.415 . S
C648 C653 1.425 . S
C648 C655 1.409 . S
C649 H641 0.930 . S
C649 C647 1.419 . S
C649 C650 1.362 . S
C650 H642 0.930 . S
C650 C649 1.362 . S
C650 C653 1.409 . S
C651 H643 0.930 . S
C651 C652 1.355 . S
C651 C653 1.415 . S
C652 C651 1.355 . S
C652 C654 1.419 . S
C653 C648 1.425 . S
C653 C650 1.409 . S
C653 C651 1.415 . S
C654 H644 0.930 . S
C654 C652 1.419 . S
C654 C655 1.362 . S
C655 H645 0.930 . S
C655 C648 1.409 . S
C655 C654 1.362 . S
H656 C662 0.930 . S
H657 C665 0.930 . S
H658 C666 0.930 . S
H659 C667 0.930 . S
H660 C670 0.930 . S
H661 C671 0.930 . S
C662 H656 0.930 . S
C662 C663 1.355 . S
C662 C664 1.415 . S
C663 C662 1.355 . S
C663 C665 1.419 . S
C664 C662 1.415 . S
C664 C669 1.425 . S
C664 C671 1.409 . S
C665 H657 0.930 . S
C665 C663 1.419 . S
C665 C666 1.362 . S
C666 H658 0.930 . S
C666 C665 1.362 . S
C666 C669 1.409 . S
C667 H659 0.930 . S
C667 C668 1.355 . S
C667 C669 1.415 . S
C668 C667 1.355 . S
C668 C670 1.419 . S
C669 C664 1.425 . S
C669 C666 1.409 . S
C669 C667 1.415 . S
C670 H660 0.930 . S
C670 C668 1.419 . S
C670 C671 1.362 . S
C671 H661 0.930 . S
C671 C664 1.409 . S
C671 C670 1.362 . S
H672 C678 0.930 . S
H673 C681 0.930 . S
H674 C682 0.930 . S
H675 C683 0.930 . S
H676 C686 0.930 . S
H677 C687 0.930 . S
C678 H672 0.930 . S
C678 C679 1.355 . S
C678 C680 1.415 . S
C679 C678 1.355 . S
C679 C681 1.419 . S
C680 C678 1.415 . S
C680 C685 1.425 . S
C680 C687 1.409 . S
C681 H673 0.930 . S
C681 C679 1.419 . S
C681 C682 1.362 . S
C682 H674 0.930 . S
C682 C681 1.362 . S
C682 C685 1.409 . S
C683 H675 0.930 . S
C683 C684 1.355 . S
C683 C685 1.415 . S
C684 C683 1.355 . S
C684 C686 1.419 . S
C685 C680 1.425 . S
C685 C682 1.409 . S
C685 C683 1.415 . S
C686 H676 0.930 . S
C686 C684 1.419 . S
C686 C687 1.362 . S
C687 H677 0.930 . S
C687 C680 1.409 . S
C687 C686 1.362 . S
H688 C694 0.930 . S
H689 C697 0.930 . S
H690 C698 0.930 . S
H691 C699 0.930 . S
H692 C702 0.930 . S
H693 C703 0.930 . S
C694 H688 0.930 . S
C694 C695 1.355 . S
C694 C696 1.415 . S
C695 C694 1.355 . S
C695 C697 1.419 . S
C696 C694 1.415 . S
C696 C701 1.425 . S
C696 C703 1.409 . S
C697 H689 0.930 . S
C697 C695 1.419 . S
C697 C698 1.362 . S
C698 H690 0.930 . S
C698 C697 1.362 . S
C698 C701 1.409 . S
C699 H691 0.930 . S
C699 C700 1.355 . S
C699 C701 1.415 . S
C700 C699 1.355 . S
C700 C702 1.419 . S
C701 C696 1.425 . S
C701 C698 1.409 . S
C701 C699 1.415 . S
C702 H692 0.930 . S
C702 C700 1.419 . S
C702 C703 1.362 . S
C703 H693 0.930 . S
C703 C696 1.409 . S
C703 C702 1.362 . S
H704 C710 0.930 . S
H705 C713 0.930 . S
H706 C714 0.930 . S
H707 C715 0.930 . S
H708 C718 0.930 . S
H709 C719 0.930 . S
C710 H704 0.930 . S
C710 C711 1.355 . S
C710 C712 1.415 . S
C711 C710 1.355 . S
C711 C713 1.419 . S
C712 C710 1.415 . S
C712 C717 1.425 . S
C712 C719 1.409 . S
C713 H705 0.930 . S
C713 C711 1.419 . S
C713 C714 1.362 . S
C714 H706 0.930 . S
C714 C713 1.362 . S
C714 C717 1.409 . S
C715 H707 0.930 . S
C715 C716 1.355 . S
C715 C717 1.415 . S
C716 C715 1.355 . S
C716 C718 1.419 . S
C717 C712 1.425 . S
C717 C714 1.409 . S
C717 C715 1.415 . S
C718 H708 0.930 . S
C718 C716 1.419 . S
C718 C719 1.362 . S
C719 H709 0.930 . S
C719 C712 1.409 . S
C719 C718 1.362 . S
H720 C726 0.930 . S
H721 C729 0.930 . S
H722 C730 0.930 . S
H723 C731 0.930 . S
H724 C734 0.930 . S
H725 C735 0.930 . S
C726 H720 0.930 . S
C726 C727 1.355 . S
C726 C728 1.415 . S
C727 C726 1.355 . S
C727 C729 1.419 . S
C728 C726 1.415 . S
C728 C733 1.425 . S
C728 C735 1.409 . S
C729 H721 0.930 . S
C729 C727 1.419 . S
C729 C730 1.362 . S
C730 H722 0.930 . S
C730 C729 1.362 . S
C730 C733 1.409 . S
C731 H723 0.930 . S
C731 C732 1.355 . S
C731 C733 1.415 . S
C732 C731 1.355 . S
C732 C734 1.419 . S
C733 C728 1.425 . S
C733 C730 1.409 . S
C733 C731 1.415 . S
C734 H724 0.930 . S
C734 C732 1.419 . S
C734 C735 1.362 . S
C735 H725 0.930 . S
C735 C728 1.409 . S
C735 C734 1.362 . S
H736 C742 0.930 . S
H737 C745 0.930 . S
H738 C746 0.930 . S
H739 C747 0.930 . S
H740 C750 0.930 . S
H741 C751 0.930 . S
C742 H736 0.930 . S
C742 C743 1.355 . S
C742 C744 1.415 . S
C743 C742 1.355 . S
C743 C745 1.419 . S
C744 C742 1.415 . S
C744 C749 1.425 . S
C744 C751 1.409 . S
C745 H737 0.930 . S
C745 C743 1.419 . S
C745 C746 1.362 . S
C746 H738 0.930 . S
C746 C745 1.362 . S
C746 C749 1.409 . S
C747 H739 0.930 . S
C747 C748 1.355 . S
C747 C749 1.415 . S
C748 C747 1.355 . S
C748 C750 1.419 . S
C749 C744 1.425 . S
C749 C746 1.409 . S
C749 C747 1.415 . S
C750 H740 0.930 . S
C750 C748 1.419 . S
C750 C751 1.362 . S
C751 H741 0.930 . S
C751 C744 1.409 . S
C751 C750 1.362 . S
H752 C758 0.930 . S
H753 C761 0.930 . S
H754 C762 0.930 . S
H755 C763 0.930 . S
H756 C766 0.930 . S
H757 C767 0.930 . S
C758 H752 0.930 . S
C758 C759 1.355 . S
C758 C760 1.415 . S
C759 C758 1.355 . S
C759 C761 1.419 . S
C760 C758 1.415 . S
C760 C765 1.425 . S
C760 C767 1.409 . S
C761 H753 0.930 . S
C761 C759 1.419 . S
C761 C762 1.362 . S
C762 H754 0.930 . S
C762 C761 1.362 . S
C762 C765 1.409 . S
C763 H755 0.930 . S
C763 C764 1.355 . S
C763 C765 1.415 . S
C764 C763 1.355 . S
C764 C766 1.419 . S
C765 C760 1.425 . S
C765 C762 1.409 . S
C765 C763 1.415 . S
C766 H756 0.930 . S
C766 C764 1.419 . S
C766 C767 1.362 . S
C767 H757 0.930 . S
C767 C760 1.409 . S
C767 C766 1.362 . S
H768 C774 0.930 . S
H769 C777 0.930 . S
H770 C778 0.930 . S
H771 C779 0.930 . S
H772 C782 0.930 . S
H773 C783 0.930 . S
C774 H768 0.930 . S
C774 C775 1.355 . S
C774 C776 1.415 . S
C775 C774 1.355 . S
C775 C777 1.419 . S
C776 C774 1.415 . S
C776 C781 1.425 . S
C776 C783 1.409 . S
C777 H769 0.930 . S
C777 C775 1.419 . S
C777 C778 1.362 . S
C778 H770 0.930 . S
C778 C777 1.362 . S
C778 C781 1.409 . S
C779 H771 0.930 . S
C779 C780 1.355 . S
C779 C781 1.415 . S
C780 C779 1.355 . S
C780 C782 1.419 . S
C781 C776 1.425 . S
C781 C778 1.409 . S
C781 C779 1.415 . S
C782 H772 0.930 . S
C782 C780 1.419 . S
C782 C783 1.362 . S
C783 H773 0.930 . S
C783 C776 1.409 . S
C783 C782 1.362 . S
H784 C790 0.930 . S
H785 C793 0.930 . S
H786 C794 0.930 . S
H787 C795 0.930 . S
H788 C798 0.930 . S
H789 C799 0.930 . S
C790 H784 0.930 . S
C790 C791 1.355 . S
C790 C792 1.415 . S
C791 C790 1.355 . S
C791 C793 1.419 . S
C792 C790 1.415 . S
C792 C797 1.425 . S
C792 C799 1.409 . S
C793 H785 0.930 . S
C793 C791 1.419 . S
C793 C794 1.362 . S
C794 H786 0.930 . S
C794 C793 1.362 . S
C794 C797 1.409 . S
C795 H787 0.930 . S
C795 C796 1.355 . S
C795 C797 1.415 . S
C796 C795 1.355 . S
C796 C798 1.419 . S
C797 C792 1.425 . S
C797 C794 1.409 . S
C797 C795 1.415 . S
C798 H788 0.930 . S
C798 C796 1.419 . S
C798 C799 1.362 . S
C799 H789 0.930 . S
C799 C792 1.409 . S
C799 C798 1.362 . S
H800 C806 0.930 . S
H801 C809 0.930 . S
H802 C810 0.930 . S
H803 C811 0.930 . S
H804 C814 0.930 . S
H805 C815 0.930 . S
C806 H800 0.930 . S
C806 C807 1.355 . S
C806 C808 1.415 . S
C807 C806 1.355 . S
C807 C809 1.419 . S
C808 C806 1.415 . S
C808 C813 1.425 . S
C808 C815 1.409 . S
C809 H801 0.930 . S
C809 C807 1.419 . S
C809 C810 1.362 . S
C810 H802 0.930 . S
C810 C809 1.362 . S
C810 C813 1.409 . S
C811 H803 0.930 . S
C811 C812 1.355 . S
C811 C813 1.415 . S
C812 C811 1.355 . S
C812 C814 1.419 . S
C813 C808 1.425 . S
C813 C810 1.409 . S
C813 C811 1.415 . S
C814 H804 0.930 . S
C814 C812 1.419 . S
C814 C815 1.362 . S
C815 H805 0.930 . S
C815 C808 1.409 . S
C815 C814 1.362 . S
H816 C822 0.930 . S
H817 C825 0.930 . S
H818 C826 0.930 . S
H819 C827 0.930 . S
H820 C830 0.930 . S
H821 C831 0.930 . S
C822 H816 0.930 . S
C822 C823 1.355 . S
C822 C824 1.415 . S
C823 C822 1.355 . S
C823 C825 1.419 . S
C824 C822 1.415 . S
C824 C829 1.425 . S
C824 C831 1.409 . S
C825 H817 0.930 . S
C825 C823 1.419 . S
C825 C826 1.362 . S
C826 H818 0.930 . S
C826 C825 1.362 . S
C826 C829 1.409 . S
C827 H819 0.930 . S
C827 C828 1.355 . S
C827 C829 1.415 . S
C828 C827 1.355 . S
C828 C830 1.419 . S
C829 C824 1.425 . S
C829 C826 1.409 . S
C829 C827 1.415 . S
C830 H820 0.930 . S
C830 C828 1.419 . S
C830 C831 1.362 . S
C831 H821 0.930 . S
C831 C824 1.409 . S
C831 C830 1.362 . S
H832 C838 0.930 . S
H833 C841 0.930 . S
H834 C842 0.930 . S
H835 C843 0.930 . S
H836 C846 0.930 . S
H837 C847 0.930 . S
C838 H832 0.930 . S
C838 C839 1.355 . S
C838 C840 1.415 . S
C839 C838 1.355 . S
C839 C841 1.419 . S
C840 C838 1.415 . S
C840 C845 1.425 . S
C840 C847 1.409 . S
C841 H833 0.930 . S
C841 C839 1.419 . S
C841 C842 1.362 . S
C842 H834 0.930 . S
C842 C841 1.362 . S
C842 C845 1.409 . S
C843 H835 0.930 . S
C843 C844 1.355 . S
C843 C845 1.415 . S
C844 C843 1.355 . S
C844 C846 1.419 . S
C845 C840 1.425 . S
C845 C842 1.409 . S
C845 C843 1.415 . S
C846 H836 0.930 . S
C846 C844 1.419 . S
C846 C847 1.362 . S
C847 H837 0.930 . S
C847 C840 1.409 . S
C847 C846 1.362 . S
H848 C854 0.930 . S
H849 C857 0.930 . S
H850 C858 0.930 . S
H851 C859 0.930 . S
H852 C862 0.930 . S
H853 C863 0.930 . S
C854 H848 0.930 . S
C854 C855 1.355 . S
C854 C856 1.415 . S
C855 C854 1.355 . S
C855 C857 1.419 . S
C856 C854 1.415 . S
C856 C861 1.425 . S
C856 C863 1.409 . S
C857 H849 0.930 . S
C857 C855 1.419 . S
C857 C858 1.362 . S
C858 H850 0.930 . S
C858 C857 1.362 . S
C858 C861 1.409 . S
C859 H851 0.930 . S
C859 C860 1.355 . S
C859 C861 1.415 . S
C860 C859 1.355 . S
C860 C862 1.419 . S
C861 C856 1.425 . S
C861 C858 1.409 . S
C861 C859 1.415 . S
C862 H852 0.930 . S
C862 C860 1.419 . S
C862 C863 1.362 . S
C863 H853 0.930 . S
C863 C856 1.409 . S
C863 C862 1.362 . S
H864 C870 0.930 . S
H865 C873 0.930 . S
H866 C874 0.930 . S
H867 C875 0.930 . S
H868 C878 0.930 . S
H869 C879 0.930 . S
C870 H864 0.930 . S
C870 C871 1.355 . S
C870 C872 1.415 . S
C871 C870 1.355 . S
C871 C873 1.419 . S
C872 C870 1.415 . S
C872 C877 1.425 . S
C872 C879 1.409 . S
C873 H865 0.930 . S
C873 C871 1.419 . S
C873 C874 1.362 . S
C874 H866 0.930 . S
C874 C873 1.362 . S
C874 C877 1.409 . S
C875 H867 0.930 . S
C875 C876 1.355 . S
C875 C877 1.415 . S
C876 C875 1.355 . S
C876 C878 1.419 . S
C877 C872 1.425 . S
C877 C874 1.409 . S
C877 C875 1.415 . S
C878 H868 0.930 . S
C878 C876 1.419 . S
C878 C879 1.362 . S
C879 H869 0.930 . S
C879 C872 1.409 . S
C879 C878 1.362 . S
H880 C886 0.930 . S
H881 C889 0.930 . S
H882 C890 0.930 . S
H883 C891 0.930 . S
H884 C894 0.930 . S
H885 C895 0.930 . S
C886 H880 0.930 . S
C886 C887 1.355 . S
C886 C888 1.415 . S
C887 C886 1.355 . S
C887 C889 1.419 . S
C888 C886 1.415 . S
C888 C893 1.425 . S
C888 C895 1.409 . S
C889 H881 0.930 . S
C889 C887 1.419 . S
C889 C890 1.362 . S
C890 H882 0.930 . S
C890 C889 1.362 . S
C890 C893 1.409 . S
C891 H883 0.930 . S
C891 C892 1.355 . S
C891 C893 1.415 . S
C892 C891 1.355 . S
C892 C894 1.419 . S
C893 C888 1.425 . S
C893 C890 1.409 . S
C893 C891 1.415 . S
C894 H884 0.930 . S
C894 C892 1.419 . S
C894 C895 1.362 . S
C895 H885 0.930 . S
C895 C888 1.409 . S
C895 C894 1.362 . S
H896 C902 0.930 . S
H897 C905 0.930 . S
H898 C906 0.930 . S
H899 C907 0.930 . S
H900 C910 0.930 . S
H901 C911 0.930 . S
C902 H896 0.930 . S
C902 C903 1.355 . S
C902 C904 1.415 . S
C903 C902 1.355 . S
C903 C905 1.419 . S
C904 C902 1.415 . S
C904 C909 1.425 . S
C904 C911 1.409 . S
C905 H897 0.930 . S
C905 C903 1.419 . S
C905 C906 1.362 . S
C906 H898 0.930 . S
C906 C905 1.362 . S
C906 C909 1.409 . S
C907 H899 0.930 . S
C907 C908 1.355 . S
C907 C909 1.415 . S
C908 C907 1.355 . S
C908 C910 1.419 . S
C909 C904 1.425 . S
C909 C906 1.409 . S
C909 C907 1.415 . S
C910 H900 0.930 . S
C910 C908 1.419 . S
C910 C911 1.362 . S
C911 H901 0.930 . S
C911 C904 1.409 . S
C911 C910 1.362 . S
H912 C918 0.930 . S
H913 C921 0.930 . S
H914 C922 0.930 . S
H915 C923 0.930 . S
H916 C926 0.930 . S
H917 C927 0.930 . S
C918 H912 0.930 . S
C918 C919 1.355 . S
C918 C920 1.415 . S
C919 C918 1.355 . S
C919 C921 1.419 . S
C920 C918 1.415 . S
C920 C925 1.425 . S
C920 C927 1.409 . S
C921 H913 0.930 . S
C921 C919 1.419 . S
C921 C922 1.362 . S
C922 H914 0.930 . S
C922 C921 1.362 . S
C922 C925 1.409 . S
C923 H915 0.930 . S
C923 C924 1.355 . S
C923 C925 1.415 . S
C924 C923 1.355 . S
C924 C926 1.419 . S
C925 C920 1.425 . S
C925 C922 1.409 . S
C925 C923 1.415 . S
C926 H916 0.930 . S
C926 C924 1.419 . S
C926 C927 1.362 . S
C927 H917 0.930 . S
C927 C920 1.409 . S
C927 C926 1.362 . S
H928 C934 0.930 . S
H929 C937 0.930 . S
H930 C938 0.930 . S
H931 C939 0.930 . S
H932 C942 0.930 . S
H933 C943 0.930 . S
C934 H928 0.930 . S
C934 C935 1.355 . S
C934 C936 1.415 . S
C935 C934 1.355 . S
C935 C937 1.419 . S
C936 C934 1.415 . S
C936 C941 1.425 . S
C936 C943 1.409 . S
C937 H929 0.930 . S
C937 C935 1.419 . S
C937 C938 1.362 . S
C938 H930 0.930 . S
C938 C937 1.362 . S
C938 C941 1.409 . S
C939 H931 0.930 . S
C939 C940 1.355 . S
C939 C941 1.415 . S
C940 C939 1.355 . S
C940 C942 1.419 . S
C941 C936 1.425 . S
C941 C938 1.409 . S
C941 C939 1.415 . S
C942 H932 0.930 . S
C942 C940 1.419 . S
C942 C943 1.362 . S
C943 H933 0.930 . S
C943 C936 1.409 . S
C943 C942 1.362 . S
H944 C950 0.930 . S
H945 C953 0.930 . S
H946 C954 0.930 . S
H947 C955 0.930 . S
H948 C958 0.930 . S
H949 C959 0.930 . S
C950 H944 0.930 . S
C950 C951 1.355 . S
C950 C952 1.415 . S
C951 C950 1.355 . S
C951 C953 1.419 . S
C952 C950 1.415 . S
C952 C957 1.425 . S
C952 C959 1.409 . S
C953 H945 0.930 . S
C953 C951 1.419 . S
C953 C954 1.362 . S
C954 H946 0.930 . S
C954 C953 1.362 . S
C954 C957 1.409 . S
C955 H947 0.930 . S
C955 C956 1.355 . S
C955 C957 1.415 . S
C956 C955 1.355 . S
C956 C958 1.419 . S
C957 C952 1.425 . S
C957 C954 1.409 . S
C957 C955 1.415 . S
C958 H948 0.930 . S
C958 C956 1.419 . S
C958 C959 1.362 . S
C959 H949 0.930 . S
C959 C952 1.409 . S
C959 C958 1.362 . S
H960 C966 0.930 . S
H961 C969 0.930 . S
H962 C970 0.930 . S
H963 C971 0.930 . S
H964 C974 0.930 . S
H965 C975 0.930 . S
C966 H960 0.930 . S
C966 C967 1.355 . S
C966 C968 1.415 . S
C967 C966 1.355 . S
C967 C969 1.419 . S
C968 C966 1.415 . S
C968 C973 1.425 . S
C968 C975 1.409 . S
C969 H961 0.930 . S
C969 C967 1.419 . S
C969 C970 1.362 . S
C970 H962 0.930 . S
C970 C969 1.362 . S
C970 C973 1.409 . S
C971 H963 0.930 . S
C971 C972 1.355 . S
C971 C973 1.415 . S
C972 C971 1.355 . S
C972 C974 1.419 . S
C973 C968 1.425 . S
C973 C970 1.409 . S
C973 C971 1.415 . S
C974 H964 0.930 . S
C974 C972 1.419 . S
C974 C975 1.362 . S
C975 H965 0.930 . S
C975 C968 1.409 . S
C975 C974 1.362 . S
H976 C982 0.930 . S
H977 C985 0.930 . S
H978 C986 0.930 . S
H979 C987 0.930 . S
H980 C990 0.930 . S
H981 C991 0.930 . S
C982 H976 0.930 . S
C982 C983 1.355 . S
C982 C984 1.415 . S
C983 C982 1.355 . S
C983 C985 1.419 . S
C984 C982 1.415 . S
C984 C989 1.425 . S
C984 C991 1.409 . S
C985 H977 0.930 . S
C985 C983 1.419 . S
C985 C986 1.362 . S
C986 H978 0.930 . S
C986 C985 1.362 . S
C986 C989 1.409 . S
C987 H979 0.930 . S
C987 C988 1.355 . S
C987 C989 1.415 . S
C988 C987 1.355 . S
C988 C990 1.419 . S
C989 C984 1.425 . S
C989 C986 1.409 . S
C989 C987 1.415 . S
C990 H980 0.930 . S
C990 C988 1.419 . S
C990 C991 1.362 . S
C991 H981 0.930 . S
C991 C984 1.409 . S
C991 C990 1.362 . S
H992 C998 0.930 . S
H993 C1001 0.930 . S
H994 C1002 0.930 . S
H995 C1003 0.930 . S
H996 C1006 0.930 . S
H997 C1007 0.930 . S
C998 H992 0.930 . S
C998 C999 1.355 . S
C998 C1000 1.415 . S
C999 C998 1.355 . S
C999 C1001 1.419 . S
C1000 C998 1.415 . S
C1000 C1005 1.425 . S
C1000 C1007 1.409 . S
C1001 H993 0.930 . S
C1001 C999 1.419 . S
C1001 C1002 1.362 . S
C1002 H994 0.930 . S
C1002 C1001 1.362 . S
C1002 C1005 1.409 . S
C1003 H995 0.930 . S
C1003 C1004 1.355 . S
C1003 C1005 1.415 . S
C1004 C1003 1.355 . S
C1004 C1006 1.419 . S
C1005 C1000 1.425 . S
C1005 C1002 1.409 . S
C1005 C1003 1.415 . S
C1006 H996 0.930 . S
C1006 C1004 1.419 . S
C1006 C1007 1.362 . S
C1007 H997 0.930 . S
C1007 C1000 1.409 . S
C1007 C1006 1.362 . S
H1008 C1014 0.930 . S
H1009 C1017 0.930 . S
H1010 C1018 0.930 . S
H1011 C1019 0.930 . S
H1012 C1022 0.930 . S
H1013 C1023 0.930 . S
C1014 H1008 0.930 . S
C1014 C1015 1.355 . S
C1014 C1016 1.415 . S
C1015 C1014 1.355 . S
C1015 C1017 1.419 . S
C1016 C1014 1.415 . S
C1016 C1021 1.425 . S
C1016 C1023 1.409 . S
C1017 H1009 0.930 . S
C1017 C1015 1.419 . S
C1017 C1018 1.362 . S
C1018 H1010 0.930 . S
C1018 C1017 1.362 . S
C1018 C1021 1.409 . S
C1019 H1011 0.930 . S
C1019 C1020 1.355 . S
C1019 C1021 1.415 . S
C1020 C1019 1.355 . S
C1020 C1022 1.419 . S
C1021 C1016 1.425 . S
C1021 C1018 1.409 . S
C1021 C1019 1.415 . S
C1022 H1012 0.930 . S
C1022 C1020 1.419 . S
C1022 C1023 1.362 . S
C1023 H1013 0.930 . S
C1023 C1016 1.409 . S
C1023 C1022 1.362 . S
H1024 C1030 0.930 . S
H1025 C1033 0.930 . S
H1026 C1034 0.930 . S
H1027 C1035 0.930 . S
H1028 C1038 0.930 . S
H1029 C1039 0.930 . S
C1030 H1024 0.930 . S
C1030 C1031 1.355 . S
C1030 C1032 1.415 . S
C1031 C1030 1.355 . S
C1031 C1033 1.419 . S
C1032 C1030 1.415 . S
C1032 C1037 1.425 . S
C1032 C1039 1.409 . S
C1033 H1025 0.930 . S
C1033 C1031 1.419 . S
C1033 C1034 1.362 . S
C1034 H1026 0.930 . S
C1034 C1033 1.362 . S
C1034 C1037 1.409 . S
C1035 H1027 0.930 . S
C1035 C1036 1.355 . S
C1035 C1037 1.415 . S
C1036 C1035 1.355 . S
C1036 C1038 1.419 . S
C1037 C1032 1.425 . S
C1037 C1034 1.409 . S
C1037 C1035 1.415 . S
C1038 H1028 0.930 . S
C1038 C1036 1.419 . S
C1038 C1039 1.362 . S
C1039 H1029 0.930 . S
C1039 C1032 1.409 . S
C1039 C1038 1.362 . S
H1040 C1046 0.930 . S
H1041 C1049 0.930 . S
H1042 C1050 0.930 . S
H1043 C1051 0.930 . S
H1044 C1054 0.930 . S
H1045 C1055 0.930 . S
C1046 H1040 0.930 . S
C1046 C1047 1.355 . S
C1046 C1048 1.415 . S
C1047 C1046 1.355 . S
C1047 C1049 1.419 . S
C1048 C1046 1.415 . S
C1048 C1053 1.425 . S
C1048 C1055 1.409 . S
C1049 H1041 0.930 . S
C1049 C1047 1.419 . S
C1049 C1050 1.362 . S
C1050 H1042 0.930 . S
C1050 C1049 1.362 . S
C1050 C1053 1.409 . S
C1051 H1043 0.930 . S
C1051 C1052 1.355 . S
C1051 C1053 1.415 . S
C1052 C1051 1.355 . S
C1052 C1054 1.419 . S
C1053 C1048 1.425 . S
C1053 C1050 1.409 . S
C1053 C1051 1.415 . S
C1054 H1044 0.930 . S
C1054 C1052 1.419 . S
C1054 C1055 1.362 . S
C1055 H1045 0.930 . S
C1055 C1048 1.409 . S
C1055 C1054 1.362 . S
H1056 C1062 0.930 . S
H1057 C1065 0.930 . S
H1058 C1066 0.930 . S
H1059 C1067 0.930 . S
H1060 C1070 0.930 . S
H1061 C1071 0.930 . S
C1062 H1056 0.930 . S
C1062 C1063 1.355 . S
C1062 C1064 1.415 . S
C1063 C1062 1.355 . S
C1063 C1065 1.419 . S
C1064 C1062 1.415 . S
C1064 C1069 1.425 . S
C1064 C1071 1.409 . S
C1065 H1057 0.930 . S
C1065 C1063 1.419 . S
C1065 C1066 1.362 . S
C1066 H1058 0.930 . S
C1066 C1065 1.362 . S
C1066 C1069 1.409 . S
C1067 H1059 0.930 . S
C1067 C1068 1.355 . S
C1067 C1069 1.415 . S
C1068 C1067 1.355 . S
C1068 C1070 1.419 . S
C1069 C1064 1.425 . S
C1069 C1066 1.409 . S
C1069 C1067 1.415 . S
C1070 H1060 0.930 . S
C1070 C1068 1.419 . S
C1070 C1071 1.362 . S
C1071 H1061 0.930 . S
C1071 C1064 1.409 . S
C1071 C1070 1.362 . S
H1072 C1078 0.930 . S
H1073 C1081 0.930 . S
H1074 C1082 0.930 . S
H1075 C1083 0.930 . S
H1076 C1086 0.930 . S
H1077 C1087 0.930 . S
C1078 H1072 0.930 . S
C1078 C1079 1.355 . S
C1078 C1080 1.415 . S
C1079 C1078 1.355 . S
C1079 C1081 1.419 . S
C1080 C1078 1.415 . S
C1080 C1085 1.425 . S
C1080 C1087 1.409 . S
C1081 H1073 0.930 . S
C1081 C1079 1.419 . S
C1081 C1082 1.362 . S
C1082 H1074 0.930 . S
C1082 C1081 1.362 . S
C1082 C1085 1.409 . S
C1083 H1075 0.930 . S
C1083 C1084 1.355 . S
C1083 C1085 1.415 . S
C1084 C1083 1.355 . S
C1084 C1086 1.419 . S
C1085 C1080 1.425 . S
C1085 C1082 1.409 . S
C1085 C1083 1.415 . S
C1086 H1076 0.930 . S
C1086 C1084 1.419 . S
C1086 C1087 1.362 . S
C1087 H1077 0.930 . S
C1087 C1080 1.409 . S
C1087 C1086 1.362 . S
H1088 C1094 0.930 . S
H1089 C1097 0.930 . S
H1090 C1098 0.930 . S
H1091 C1099 0.930 . S
H1092 C1102 0.930 . S
H1093 C1103 0.930 . S
C1094 H1088 0.930 . S
C1094 C1095 1.355 . S
C1094 C1096 1.415 . S
C1095 C1094 1.355 . S
C1095 C1097 1.419 . S
C1096 C1094 1.415 . S
C1096 C1101 1.425 . S
C1096 C1103 1.409 . S
C1097 H1089 0.930 . S
C1097 C1095 1.419 . S
C1097 C1098 1.362 . S
C1098 H1090 0.930 . S
C1098 C1097 1.362 . S
C1098 C1101 1.409 . S
C1099 H1091 0.930 . S
C1099 C1100 1.355 . S
C1099 C1101 1.415 . S
C1100 C1099 1.355 . S
C1100 C1102 1.419 . S
C1101 C1096 1.425 . S
C1101 C1098 1.409 . S
C1101 C1099 1.415 . S
C1102 H1092 0.930 . S
C1102 C1100 1.419 . S
C1102 C1103 1.362 . S
C1103 H1093 0.930 . S
C1103 C1096 1.409 . S
C1103 C1102 1.362 . S
H1104 C1110 0.930 . S
H1105 C1113 0.930 . S
H1106 C1114 0.930 . S
H1107 C1115 0.930 . S
H1108 C1118 0.930 . S
H1109 C1119 0.930 . S
C1110 H1104 0.930 . S
C1110 C1111 1.355 . S
C1110 C1112 1.415 . S
C1111 C1110 1.355 . S
C1111 C1113 1.419 . S
C1112 C1110 1.415 . S
C1112 C1117 1.425 . S
C1112 C1119 1.409 . S
C1113 H1105 0.930 . S
C1113 C1111 1.419 . S
C1113 C1114 1.362 . S
C1114 H1106 0.930 . S
C1114 C1113 1.362 . S
C1114 C1117 1.409 . S
C1115 H1107 0.930 . S
C1115 C1116 1.355 . S
C1115 C1117 1.415 . S
C1116 C1115 1.355 . S
C1116 C1118 1.419 . S
C1117 C1112 1.425 . S
C1117 C1114 1.409 . S
C1117 C1115 1.415 . S
C1118 H1108 0.930 . S
C1118 C1116 1.419 . S
C1118 C1119 1.362 . S
C1119 H1109 0.930 . S
C1119 C1112 1.409 . S
C1119 C1118 1.362 . S
H1120 C1126 0.930 . S
H1121 C1129 0.930 . S
H1122 C1130 0.930 . S
H1123 C1131 0.930 . S
H1124 C1134 0.930 . S
H1125 C1135 0.930 . S
C1126 H1120 0.930 . S
C1126 C1127 1.355 . S
C1126 C1128 1.415 . S
C1127 C1126 1.355 . S
C1127 C1129 1.419 . S
C1128 C1126 1.415 . S
C1128 C1133 1.425 . S
C1128 C1135 1.409 . S
C1129 H1121 0.930 . S
C1129 C1127 1.419 . S
C1129 C1130 1.362 . S
C1130 H1122 0.930 . S
C1130 C1129 1.362 . S
C1130 C1133 1.409 . S
C1131 H1123 0.930 . S
C1131 C1132 1.355 . S
C1131 C1133 1.415 . S
C1132 C1131 1.355 . S
C1132 C1134 1.419 . S
C1133 C1128 1.425 . S
C1133 C1130 1.409 . S
C1133 C1131 1.415 . S
C1134 H1124 0.930 . S
C1134 C1132 1.419 . S
C1134 C1135 1.362 . S
C1135 H1125 0.930 . S
C1135 C1128 1.409 . S
C1135 C1134 1.362 . S
H1136 C1142 0.930 . S
H1137 C1145 0.930 . S
H1138 C1146 0.930 . S
H1139 C1147 0.930 . S
H1140 C1150 0.930 . S
H1141 C1151 0.930 . S
C1142 H1136 0.930 . S
C1142 C1143 1.355 . S
C1142 C1144 1.415 . S
C1143 C1142 1.355 . S
C1143 C1145 1.419 . S
C1144 C1142 1.415 . S
C1144 C1149 1.425 . S
C1144 C1151 1.409 . S
C1145 H1137 0.930 . S
C1145 C1143 1.419 . S
C1145 C1146 1.362 . S
C1146 H1138 0.930 . S
C1146 C1145 1.362 . S
C1146 C1149 1.409 . S
C1147 H1139 0.930 . S
C1147 C1148 1.355 . S
C1147 C1149 1.415 . S
C1148 C1147 1.355 . S
C1148 C1150 1.419 . S
C1149 C1144 1.425 . S
C1149 C1146 1.409 . S
C1149 C1147 1.415 . S
C1150 H1140 0.930 . S
C1150 C1148 1.419 . S
C1150 C1151 1.362 . S
C1151 H1141 0.930 . S
C1151 C1144 1.409 . S
C1151 C1150 1.362 . S
H1152 C1158 0.930 . S
H1153 C1161 0.930 . S
H1154 C1162 0.930 . S
H1155 C1163 0.930 . S
H1156 C1166 0.930 . S
H1157 C1167 0.930 . S
C1158 H1152 0.930 . S
C1158 C1159 1.355 . S
C1158 C1160 1.415 . S
C1159 C1158 1.355 . S
C1159 C1161 1.419 . S
C1160 C1158 1.415 . S
C1160 C1165 1.425 . S
C1160 C1167 1.409 . S
C1161 H1153 0.930 . S
C1161 C1159 1.419 . S
C1161 C1162 1.362 . S
C1162 H1154 0.930 . S
C1162 C1161 1.362 . S
C1162 C1165 1.409 . S
C1163 H1155 0.930 . S
C1163 C1164 1.355 . S
C1163 C1165 1.415 . S
C1164 C1163 1.355 . S
C1164 C1166 1.419 . S
C1165 C1160 1.425 . S
C1165 C1162 1.409 . S
C1165 C1163 1.415 . S
C1166 H1156 0.930 . S
C1166 C1164 1.419 . S
C1166 C1167 1.362 . S
C1167 H1157 0.930 . S
C1167 C1160 1.409 . S
C1167 C1166 1.362 . S
H1168 C1174 0.930 . S
H1169 C1177 0.930 . S
H1170 C1178 0.930 . S
H1171 C1179 0.930 . S
H1172 C1182 0.930 . S
H1173 C1183 0.930 . S
C1174 H1168 0.930 . S
C1174 C1175 1.355 . S
C1174 C1176 1.415 . S
C1175 C1174 1.355 . S
C1175 C1177 1.419 . S
C1176 C1174 1.415 . S
C1176 C1181 1.425 . S
C1176 C1183 1.409 . S
C1177 H1169 0.930 . S
C1177 C1175 1.419 . S
C1177 C1178 1.362 . S
C1178 H1170 0.930 . S
C1178 C1177 1.362 . S
C1178 C1181 1.409 . S
C1179 H1171 0.930 . S
C1179 C1180 1.355 . S
C1179 C1181 1.415 . S
C1180 C1179 1.355 . S
C1180 C1182 1.419 . S
C1181 C1176 1.425 . S
C1181 C1178 1.409 . S
C1181 C1179 1.415 . S
C1182 H1172 0.930 . S
C1182 C1180 1.419 . S
C1182 C1183 1.362 . S
C1183 H1173 0.930 . S
C1183 C1176 1.409 . S
C1183 C1182 1.362 . S
H1184 C1190 0.930 . S
H1185 C1193 0.930 . S
H1186 C1194 0.930 . S
H1187 C1195 0.930 . S
H1188 C1198 0.930 . S
H1189 C1199 0.930 . S
C1190 H1184 0.930 . S
C1190 C1191 1.355 . S
C1190 C1192 1.415 . S
C1191 C1190 1.355 . S
C1191 C1193 1.419 . S
C1192 C1190 1.415 . S
C1192 C1197 1.425 . S
C1192 C1199 1.409 . S
C1193 H1185 0.930 . S
C1193 C1191 1.419 . S
C1193 C1194 1.362 . S
C1194 H1186 0.930 . S
C1194 C1193 1.362 . S
C1194 C1197 1.409 . S
C1195 H1187 0.930 . S
C1195 C1196 1.355 . S
C1195 C1197 1.415 . S
C1196 C1195 1.355 . S
C1196 C1198 1.419 . S
C1197 C1192 1.425 . S
C1197 C1194 1.409 . S
C1197 C1195 1.415 . S
C1198 H1188 0.930 . S
C1198 C1196 1.419 . S
C1198 C1199 1.362 . S
C1199 H1189 0.930 . S
C1199 C1192 1.409 . S
C1199 C1198 1.362 . S
H1200 C1206 0.930 . S
H1201 C1209 0.930 . S
H1202 C1210 0.930 . S
H1203 C1211 0.930 . S
H1204 C1214 0.930 . S
H1205 C1215 0.930 . S
C1206 H1200 0.930 . S
C1206 C1207 1.355 . S
C1206 C1208 1.415 . S
C1207 C1206 1.355 . S
C1207 C1209 1.419 . S
C1208 C1206 1.415 . S
C1208 C1213 1.425 . S
C1208 C1215 1.409 . S
C1209 H1201 0.930 . S
C1209 C1207 1.419 . S
C1209 C1210 1.362 . S
C1210 H1202 0.930 . S
C1210 C1209 1.362 . S
C1210 C1213 1.409 . S
C1211 H1203 0.930 . S
C1211 C1212 1.355 . S
C1211 C1213 1.415 . S
C1212 C1211 1.355 . S
C1212 C1214 1.419 . S
C1213 C1208 1.425 . S
C1213 C1210 1.409 . S
C1213 C1211 1.415 . S
C1214 H1204 0.930 . S
C1214 C1212 1.419 . S
C1214 C1215 1.362 . S
C1215 H1205 0.930 . S
C1215 C1208 1.409 . S
C1215 C1214 1.362 . S
H1216 C1222 0.930 . S
H1217 C1225 0.930 . S
H1218 C1226 0.930 . S
H1219 C1227 0.930 . S
H1220 C1230 0.930 . S
H1221 C1231 0.930 . S
C1222 H1216 0.930 . S
C1222 C1223 1.355 . S
C1222 C1224 1.415 . S
C1223 C1222 1.355 . S
C1223 C1225 1.419 . S
C1224 C1222 1.415 . S
C1224 C1229 1.425 . S
C1224 C1231 1.409 . S
C1225 H1217 0.930 . S
C1225 C1223 1.419 . S
C1225 C1226 1.362 . S
C1226 H1218 0.930 . S
C1226 C1225 1.362 . S
C1226 C1229 1.409 . S
C1227 H1219 0.930 . S
C1227 C1228 1.355 . S
C1227 C1229 1.415 . S
C1228 C1227 1.355 . S
C1228 C1230 1.419 . S
C1229 C1224 1.425 . S
C1229 C1226 1.409 . S
C1229 C1227 1.415 . S
C1230 H1220 0.930 . S
C1230 C1228 1.419 . S
C1230 C1231 1.362 . S
C1231 H1221 0.930 . S
C1231 C1224 1.409 . S
C1231 C1230 1.362 . S
C476 C289 0.415 . S
C471 C4 0.274 . S
C492 C294 1.578 . S
C487 C63 1.540 . S
C508 C295 1.213 . S
C503 C72 1.216 . S
C519 C102 1.535 . S
C524 C299 1.584 . S
C535 C136 1.528 . S
C540 C302 1.569 . S
C556 C303 1.247 . S
C551 C183 1.173 . S
C567 C233 1.580 . S
C572 C280 1.549 . S
C583 C251 0.319 . S
C588 C296 0.321 . S
C604 C334 1.469 . S
C599 C29 1.491 . S
C615 C42 1.983 . S
C620 C360 1.893 . S
C636 C312 1.468 . S
C631 C97 1.522 . S
C652 C367 1.186 . S
C647 C115 1.237 . S
C663 C149 1.274 . S
C668 C321 1.261 . S
C684 C363 1.501 . S
C679 C187 1.557 . S
C695 C212 2.018 . S
C700 C327 1.935 . S
C711 C255 1.516 . S
C716 C358 1.450 . S
C727 C8 1.509 . S
C732 C366 1.497 . S
C743 C153 2.007 . S
C748 C353 1.939 . S
C764 C331 1.511 . S
C759 C170 1.554 . S
C780 C359 1.107 . S
C775 C208 1.178 . S
C791 C238 1.520 . S
C796 C326 1.490 . S
C807 C76 1.553 . S
C812 C344 1.541 . S
C828 C335 1.906 . S
C823 C119 1.992 . S
C839 C38 1.213 . S
C844 C328 1.150 . S
C855 C242 0.461 . S
C860 C390 0.512 . S
C871 C165 1.520 . S
C876 C385 1.467 . S
C892 C399 1.085 . S
C887 C174 1.161 . S
C908 C376 1.511 . S
C903 C204 1.515 . S
C919 C34 1.545 . S
C924 C392 1.470 . S
C940 C391 1.124 . S
C935 C81 1.131 . S
C951 C131 1.533 . S
C956 C395 1.471 . S
C967 C13 0.373 . S
C972 C398 0.310 . S
C983 C267 1.503 . S
C988 C424 1.459 . S
C1004 C440 2.013 . S
C999 C144 2.018 . S
C1015 C199 1.515 . S
C1020 C422 1.538 . S
C1031 C217 1.215 . S
C1036 C455 1.147 . S
C1052 C431 1.278 . S
C1047 C47 1.287 . S
C1063 C85 1.535 . S
C1068 C449 1.439 . S
C1084 C427 2.027 . S
C1079 C110 1.995 . S
C1100 C462 1.457 . S
C1095 C17 1.515 . S
C1116 C454 1.506 . S
C1111 C246 1.534 . S
C1127 C51 2.018 . S
C1132 C459 1.966 . S
C1143 C68 1.548 . S
C1148 C430 1.502 . S
C1164 C463 1.219 . S
C1159 C106 1.218 . S
C1175 C0 1.494 . S
C1180 C417 1.475 . S
C1191 C178 1.566 . S
C1196 C456 1.502 . S
C1212 C408 2.003 . S
C1207 C221 2.020 . S
C1228 C423 1.288 . S
C1223 C140 1.278 . S
