# Generated by pormake.
# Topology gar, (4,6)-cn, num edge types: 1
# Building blocks:
#     Node 0, Type 0, BuildingBlock: NAHDIM_clean_sbu_0, # of connection points: 4
#     Node 1, Type 0, BuildingBlock: NAHDIM_clean_sbu_0, # of connection points: 4
#     Node 2, Type 0, BuildingBlock: NAHDIM_clean_sbu_0, # of connection points: 4
#     Node 3, Type 0, BuildingBlock: NAHDIM_clean_sbu_0, # of connection points: 4
#     Node 4, Type 0, BuildingBlock: NAHDIM_clean_sbu_0, # of connection points: 4
#     Node 5, Type 0, BuildingBlock: NAHDIM_clean_sbu_0, # of connection points: 4
#     Node 6, Type 0, BuildingBlock: NAHDIM_clean_sbu_0, # of connection points: 4
#     Node 7, Type 0, BuildingBlock: NAHDIM_clean_sbu_0, # of connection points: 4
#     Node 8, Type 0, BuildingBlock: NAHDIM_clean_sbu_0, # of connection points: 4
#     Node 9, Type 0, BuildingBlock: NAHDIM_clean_sbu_0, # of connection points: 4
#     Node 10, Type 0, BuildingBlock: NAHDIM_clean_sbu_0, # of connection points: 4
#     Node 11, Type 0, BuildingBlock: NAHDIM_clean_sbu_0, # of connection points: 4
#     Node 12, Type 0, BuildingBlock: NAHDIM_clean_sbu_0, # of connection points: 4
#     Node 13, Type 0, BuildingBlock: NAHDIM_clean_sbu_0, # of connection points: 4
#     Node 14, Type 0, BuildingBlock: NAHDIM_clean_sbu_0, # of connection points: 4
#     Node 15, Type 0, BuildingBlock: NAHDIM_clean_sbu_0, # of connection points: 4
#     Node 16, Type 0, BuildingBlock: NAHDIM_clean_sbu_0, # of connection points: 4
#     Node 17, Type 0, BuildingBlock: NAHDIM_clean_sbu_0, # of connection points: 4
#     Node 18, Type 0, BuildingBlock: NAHDIM_clean_sbu_0, # of connection points: 4
#     Node 19, Type 0, BuildingBlock: NAHDIM_clean_sbu_0, # of connection points: 4
#     Node 20, Type 0, BuildingBlock: NAHDIM_clean_sbu_0, # of connection points: 4
#     Node 21, Type 0, BuildingBlock: NAHDIM_clean_sbu_0, # of connection points: 4
#     Node 22, Type 0, BuildingBlock: NAHDIM_clean_sbu_0, # of connection points: 4
#     Node 23, Type 0, BuildingBlock: NAHDIM_clean_sbu_0, # of connection points: 4
#     Node 24, Type 1, BuildingBlock: PAMTOO_clean_sbu_0, # of connection points: 6
#     Node 25, Type 1, BuildingBlock: PAMTOO_clean_sbu_0, # of connection points: 6
#     Node 26, Type 1, BuildingBlock: PAMTOO_clean_sbu_0, # of connection points: 6
#     Node 27, Type 1, BuildingBlock: PAMTOO_clean_sbu_0, # of connection points: 6
#     Node 28, Type 1, BuildingBlock: PAMTOO_clean_sbu_0, # of connection points: 6
#     Node 29, Type 1, BuildingBlock: PAMTOO_clean_sbu_0, # of connection points: 6
#     Node 30, Type 1, BuildingBlock: PAMTOO_clean_sbu_0, # of connection points: 6
#     Node 31, Type 1, BuildingBlock: PAMTOO_clean_sbu_0, # of connection points: 6
#     Node 32, Type 1, BuildingBlock: PAMTOO_clean_sbu_0, # of connection points: 6
#     Node 33, Type 1, BuildingBlock: PAMTOO_clean_sbu_0, # of connection points: 6
#     Node 34, Type 1, BuildingBlock: PAMTOO_clean_sbu_0, # of connection points: 6
#     Node 35, Type 1, BuildingBlock: PAMTOO_clean_sbu_0, # of connection points: 6
#     Node 36, Type 1, BuildingBlock: PAMTOO_clean_sbu_0, # of connection points: 6
#     Node 37, Type 1, BuildingBlock: PAMTOO_clean_sbu_0, # of connection points: 6
#     Node 38, Type 1, BuildingBlock: PAMTOO_clean_sbu_0, # of connection points: 6
#     Node 39, Type 1, BuildingBlock: PAMTOO_clean_sbu_0, # of connection points: 6
#     Edge 40, Type (0, 1), BuildingBlock: OJICUG_clean_linker_0, # of connection points: 2
#     Edge 41, Type (0, 1), BuildingBlock: OJICUG_clean_linker_0, # of connection points: 2
#     Edge 42, Type (0, 1), BuildingBlock: OJICUG_clean_linker_0, # of connection points: 2
#     Edge 43, Type (0, 1), BuildingBlock: OJICUG_clean_linker_0, # of connection points: 2
#     Edge 44, Type (0, 1), BuildingBlock: OJICUG_clean_linker_0, # of connection points: 2
#     Edge 45, Type (0, 1), BuildingBlock: OJICUG_clean_linker_0, # of connection points: 2
#     Edge 46, Type (0, 1), BuildingBlock: OJICUG_clean_linker_0, # of connection points: 2
#     Edge 47, Type (0, 1), BuildingBlock: OJICUG_clean_linker_0, # of connection points: 2
#     Edge 48, Type (0, 1), BuildingBlock: OJICUG_clean_linker_0, # of connection points: 2
#     Edge 49, Type (0, 1), BuildingBlock: OJICUG_clean_linker_0, # of connection points: 2
#     Edge 50, Type (0, 1), BuildingBlock: OJICUG_clean_linker_0, # of connection points: 2
#     Edge 51, Type (0, 1), BuildingBlock: OJICUG_clean_linker_0, # of connection points: 2
#     Edge 52, Type (0, 1), BuildingBlock: OJICUG_clean_linker_0, # of connection points: 2
#     Edge 53, Type (0, 1), BuildingBlock: OJICUG_clean_linker_0, # of connection points: 2
#     Edge 54, Type (0, 1), BuildingBlock: OJICUG_clean_linker_0, # of connection points: 2
#     Edge 55, Type (0, 1), BuildingBlock: OJICUG_clean_linker_0, # of connection points: 2
#     Edge 56, Type (0, 1), BuildingBlock: OJICUG_clean_linker_0, # of connection points: 2
#     Edge 57, Type (0, 1), BuildingBlock: OJICUG_clean_linker_0, # of connection points: 2
#     Edge 58, Type (0, 1), BuildingBlock: OJICUG_clean_linker_0, # of connection points: 2
#     Edge 59, Type (0, 1), BuildingBlock: OJICUG_clean_linker_0, # of connection points: 2
#     Edge 60, Type (0, 1), BuildingBlock: OJICUG_clean_linker_0, # of connection points: 2
#     Edge 61, Type (0, 1), BuildingBlock: OJICUG_clean_linker_0, # of connection points: 2
#     Edge 62, Type (0, 1), BuildingBlock: OJICUG_clean_linker_0, # of connection points: 2
#     Edge 63, Type (0, 1), BuildingBlock: OJICUG_clean_linker_0, # of connection points: 2
#     Edge 64, Type (0, 1), BuildingBlock: OJICUG_clean_linker_0, # of connection points: 2
#     Edge 65, Type (0, 1), BuildingBlock: OJICUG_clean_linker_0, # of connection points: 2
#     Edge 66, Type (0, 1), BuildingBlock: OJICUG_clean_linker_0, # of connection points: 2
#     Edge 67, Type (0, 1), BuildingBlock: OJICUG_clean_linker_0, # of connection points: 2
#     Edge 68, Type (0, 1), BuildingBlock: OJICUG_clean_linker_0, # of connection points: 2
#     Edge 69, Type (0, 1), BuildingBlock: OJICUG_clean_linker_0, # of connection points: 2
#     Edge 70, Type (0, 1), BuildingBlock: OJICUG_clean_linker_0, # of connection points: 2
#     Edge 71, Type (0, 1), BuildingBlock: OJICUG_clean_linker_0, # of connection points: 2
#     Edge 72, Type (0, 1), BuildingBlock: OJICUG_clean_linker_0, # of connection points: 2
#     Edge 73, Type (0, 1), BuildingBlock: OJICUG_clean_linker_0, # of connection points: 2
#     Edge 74, Type (0, 1), BuildingBlock: OJICUG_clean_linker_0, # of connection points: 2
#     Edge 75, Type (0, 1), BuildingBlock: OJICUG_clean_linker_0, # of connection points: 2
#     Edge 76, Type (0, 1), BuildingBlock: OJICUG_clean_linker_0, # of connection points: 2
#     Edge 77, Type (0, 1), BuildingBlock: OJICUG_clean_linker_0, # of connection points: 2
#     Edge 78, Type (0, 1), BuildingBlock: OJICUG_clean_linker_0, # of connection points: 2
#     Edge 79, Type (0, 1), BuildingBlock: OJICUG_clean_linker_0, # of connection points: 2
#     Edge 80, Type (0, 1), BuildingBlock: OJICUG_clean_linker_0, # of connection points: 2
#     Edge 81, Type (0, 1), BuildingBlock: OJICUG_clean_linker_0, # of connection points: 2
#     Edge 82, Type (0, 1), BuildingBlock: OJICUG_clean_linker_0, # of connection points: 2
#     Edge 83, Type (0, 1), BuildingBlock: OJICUG_clean_linker_0, # of connection points: 2
#     Edge 84, Type (0, 1), BuildingBlock: OJICUG_clean_linker_0, # of connection points: 2
#     Edge 85, Type (0, 1), BuildingBlock: OJICUG_clean_linker_0, # of connection points: 2
#     Edge 86, Type (0, 1), BuildingBlock: OJICUG_clean_linker_0, # of connection points: 2
#     Edge 87, Type (0, 1), BuildingBlock: OJICUG_clean_linker_0, # of connection points: 2
#     Edge 88, Type (0, 1), BuildingBlock: OJICUG_clean_linker_0, # of connection points: 2
#     Edge 89, Type (0, 1), BuildingBlock: OJICUG_clean_linker_0, # of connection points: 2
#     Edge 90, Type (0, 1), BuildingBlock: OJICUG_clean_linker_0, # of connection points: 2
#     Edge 91, Type (0, 1), BuildingBlock: OJICUG_clean_linker_0, # of connection points: 2
#     Edge 92, Type (0, 1), BuildingBlock: OJICUG_clean_linker_0, # of connection points: 2
#     Edge 93, Type (0, 1), BuildingBlock: OJICUG_clean_linker_0, # of connection points: 2
#     Edge 94, Type (0, 1), BuildingBlock: OJICUG_clean_linker_0, # of connection points: 2
#     Edge 95, Type (0, 1), BuildingBlock: OJICUG_clean_linker_0, # of connection points: 2
#     Edge 96, Type (0, 1), BuildingBlock: OJICUG_clean_linker_0, # of connection points: 2
#     Edge 97, Type (0, 1), BuildingBlock: OJICUG_clean_linker_0, # of connection points: 2
#     Edge 98, Type (0, 1), BuildingBlock: OJICUG_clean_linker_0, # of connection points: 2
#     Edge 99, Type (0, 1), BuildingBlock: OJICUG_clean_linker_0, # of connection points: 2
#     Edge 100, Type (0, 1), BuildingBlock: OJICUG_clean_linker_0, # of connection points: 2
#     Edge 101, Type (0, 1), BuildingBlock: OJICUG_clean_linker_0, # of connection points: 2
#     Edge 102, Type (0, 1), BuildingBlock: OJICUG_clean_linker_0, # of connection points: 2
#     Edge 103, Type (0, 1), BuildingBlock: OJICUG_clean_linker_0, # of connection points: 2
#     Edge 104, Type (0, 1), BuildingBlock: OJICUG_clean_linker_0, # of connection points: 2
#     Edge 105, Type (0, 1), BuildingBlock: OJICUG_clean_linker_0, # of connection points: 2
#     Edge 106, Type (0, 1), BuildingBlock: OJICUG_clean_linker_0, # of connection points: 2
#     Edge 107, Type (0, 1), BuildingBlock: OJICUG_clean_linker_0, # of connection points: 2
#     Edge 108, Type (0, 1), BuildingBlock: OJICUG_clean_linker_0, # of connection points: 2
#     Edge 109, Type (0, 1), BuildingBlock: OJICUG_clean_linker_0, # of connection points: 2
#     Edge 110, Type (0, 1), BuildingBlock: OJICUG_clean_linker_0, # of connection points: 2
#     Edge 111, Type (0, 1), BuildingBlock: OJICUG_clean_linker_0, # of connection points: 2
#     Edge 112, Type (0, 1), BuildingBlock: OJICUG_clean_linker_0, # of connection points: 2
#     Edge 113, Type (0, 1), BuildingBlock: OJICUG_clean_linker_0, # of connection points: 2
#     Edge 114, Type (0, 1), BuildingBlock: OJICUG_clean_linker_0, # of connection points: 2
#     Edge 115, Type (0, 1), BuildingBlock: OJICUG_clean_linker_0, # of connection points: 2
#     Edge 116, Type (0, 1), BuildingBlock: OJICUG_clean_linker_0, # of connection points: 2
#     Edge 117, Type (0, 1), BuildingBlock: OJICUG_clean_linker_0, # of connection points: 2
#     Edge 118, Type (0, 1), BuildingBlock: OJICUG_clean_linker_0, # of connection points: 2
#     Edge 119, Type (0, 1), BuildingBlock: OJICUG_clean_linker_0, # of connection points: 2
#     Edge 120, Type (0, 1), BuildingBlock: OJICUG_clean_linker_0, # of connection points: 2
#     Edge 121, Type (0, 1), BuildingBlock: OJICUG_clean_linker_0, # of connection points: 2
#     Edge 122, Type (0, 1), BuildingBlock: OJICUG_clean_linker_0, # of connection points: 2
#     Edge 123, Type (0, 1), BuildingBlock: OJICUG_clean_linker_0, # of connection points: 2
#     Edge 124, Type (0, 1), BuildingBlock: OJICUG_clean_linker_0, # of connection points: 2
#     Edge 125, Type (0, 1), BuildingBlock: OJICUG_clean_linker_0, # of connection points: 2
#     Edge 126, Type (0, 1), BuildingBlock: OJICUG_clean_linker_0, # of connection points: 2
#     Edge 127, Type (0, 1), BuildingBlock: OJICUG_clean_linker_0, # of connection points: 2
#     Edge 128, Type (0, 1), BuildingBlock: OJICUG_clean_linker_0, # of connection points: 2
#     Edge 129, Type (0, 1), BuildingBlock: OJICUG_clean_linker_0, # of connection points: 2
#     Edge 130, Type (0, 1), BuildingBlock: OJICUG_clean_linker_0, # of connection points: 2
#     Edge 131, Type (0, 1), BuildingBlock: OJICUG_clean_linker_0, # of connection points: 2
#     Edge 132, Type (0, 1), BuildingBlock: OJICUG_clean_linker_0, # of connection points: 2
#     Edge 133, Type (0, 1), BuildingBlock: OJICUG_clean_linker_0, # of connection points: 2
#     Edge 134, Type (0, 1), BuildingBlock: OJICUG_clean_linker_0, # of connection points: 2
#     Edge 135, Type (0, 1), BuildingBlock: OJICUG_clean_linker_0, # of connection points: 2
# Relax obj value: 0.201
# Max RMSD: 0.275
# Mean RMSD: 0.190
data_MOF--net-gar--node1-NAHDIM_clean_sbu_0--node2-PAMTOO_clean_sbu_0--edge1-OJICUG_clean_linker_0
_symmetry_space_group_name_H-M    P1
_symmetry_Int_Tables_number       1
_symmetry_cell_setting            triclinic
loop_
_symmetry_equiv_pos_as_xyz
'x, y, z'
_cell_length_a     45.254696
_cell_length_b     44.726628
_cell_length_c     41.923027
_cell_angle_alpha  98.155265
_cell_angle_beta   97.506196
_cell_angle_gamma 106.18481
loop_
_atom_site_label
_atom_site_type_symbol
_atom_site_fract_x
_atom_site_fract_y
_atom_site_fract_z
_atom_type_partial_charge
C0 C 0.13859 0.3437 0.35127 0.0
O1 O 0.12574 0.32101 0.36647 0.0
O2 O 0.07912 0.33287 0.40007 0.0
Zn3 Zn 0.08413 0.36675 0.3717 0.0
O4 O 0.09261 0.40963 0.40357 0.0
C5 C 1.01653 0.3633 0.36121 0.0
O6 O 1.02587 0.37706 0.39212 0.0
O7 O 0.12501 0.36535 0.3485 0.0
C8 C 0.08415 0.43308 0.39604 0.0
O9 O 0.07242 0.43186 0.36534 0.0
C10 C 0.07456 0.33738 0.42946 0.0
O11 O 0.07387 0.36547 0.44297 0.0
O12 O 0.037 0.35641 0.34515 0.0
C13 C 0.97884 0.77549 0.74158 0.0
O14 O 0.97399 0.76153 0.71078 0.0
O15 O 0.0389 0.73458 0.70452 0.0
Zn16 Zn 0.04615 0.77929 0.73284 0.0
O17 O 0.0469 0.80836 0.69974 0.0
C18 C 0.111 0.77622 0.76371 0.0
O19 O 0.09656 0.74571 0.75965 0.0
O20 O 1.00725 0.78428 0.75752 0.0
C21 C 0.05482 0.83818 0.70959 0.0
O22 O 0.06125 0.84942 0.74125 0.0
C23 C 0.05841 0.73465 0.685 0.0
O24 O 0.07946 0.76174 0.68519 0.0
O25 O 0.09452 0.79465 0.75734 0.0
C26 C 0.63698 0.8429 0.84898 0.0
O27 O 0.62109 0.81709 0.85799 0.0
O28 O 0.57699 0.82818 0.89772 0.0
Zn29 Zn 0.58367 0.8652 0.87295 0.0
O30 O 0.5917 0.9059 0.90806 0.0
C31 C 0.5134 0.84307 0.8522 0.0
O32 O 0.51691 0.82652 0.87511 0.0
O33 O 0.6256 0.86644 0.85105 0.0
C34 C 0.57494 0.9047 0.93045 0.0
O35 O 0.55412 0.87764 0.93076 0.0
C36 C 0.59347 0.82965 0.92528 0.0
O37 O 0.61656 0.85558 0.93808 0.0
O38 O 0.53835 0.86042 0.84439 0.0
C39 C 0.48044 0.27595 0.24426 0.0
O40 O 0.47572 0.26191 0.2135 0.0
O41 O 0.54084 0.2337 0.2102 0.0
Zn42 Zn 0.54781 0.27976 0.23594 0.0
O43 O 0.54907 0.30908 0.20205 0.0
C44 C 0.61103 0.27433 0.26724 0.0
O45 O 0.59632 0.24381 0.25925 0.0
O46 O 0.50881 0.28486 0.26029 0.0
C47 C 0.57069 0.33528 0.20557 0.0
O48 O 0.5925 0.3441 0.23192 0.0
C49 C 0.54458 0.22922 0.18034 0.0
O50 O 0.55018 0.25359 0.16543 0.0
O51 O 0.5952 0.2937 0.26262 0.0
C52 C 0.05445 0.82073 0.1477 0.0
O53 O 0.04724 0.80319 0.11823 0.0
O54 O 0.10205 0.79835 0.09819 0.0
Zn55 Zn 0.1134 0.84572 0.1258 0.0
O56 O 0.10755 0.88451 0.10145 0.0
C57 C 0.15704 0.83845 0.17893 0.0
O58 O 0.13041 0.81816 0.1811 0.0
O59 O 0.08131 0.84134 0.15646 0.0
C60 C 0.1216 0.91425 0.1127 0.0
O61 O 0.14303 0.92181 0.1393 0.0
C62 C 0.12143 0.78228 0.09552 0.0
O63 O 0.15127 0.79689 0.10662 0.0
O64 O 0.15701 0.85488 0.15627 0.0
C65 C 0.58602 0.82566 0.45248 0.0
O66 O 0.59254 0.84552 0.48051 0.0
O67 O 0.52429 0.75793 0.4946 0.0
Zn68 Zn 0.52625 0.80055 0.47406 0.0
O69 O 0.53862 0.84724 0.50282 0.0
C70 C 0.45786 0.79209 0.44723 0.0
O71 O 0.45226 0.78636 0.47609 0.0
O72 O 0.55975 0.80395 0.44498 0.0
C73 C 0.52051 0.86299 0.51223 0.0
O74 O 0.49059 0.84807 0.50917 0.0
C75 C 0.548 0.75113 0.50879 0.0
O76 O 0.57544 0.7728 0.51427 0.0
O77 O 0.48565 0.79657 0.44148 0.0
C78 C 0.55863 0.31676 0.64223 0.0
O79 O 0.55035 0.29798 0.61341 0.0
O80 O 0.6027 0.29193 0.59039 0.0
Zn81 Zn 0.6157 0.34004 0.6168 0.0
O82 O 0.61364 0.38083 0.59411 0.0
C83 C 0.66044 0.32963 0.66589 0.0
O84 O 0.63398 0.30924 0.66838 0.0
O85 O 0.58544 0.33756 0.64927 0.0
C86 C 0.59013 0.39189 0.59354 0.0
O87 O 0.56565 0.37594 0.60437 0.0
C88 C 0.62171 0.27532 0.58852 0.0
O89 O 0.65178 0.29004 0.59772 0.0
O90 O 0.65964 0.34762 0.64488 0.0
C91 C 0.08934 0.32356 0.95232 0.0
O92 O 0.09821 0.34004 0.98232 0.0
O93 O 1.02556 0.2625 0.99346 0.0
Zn94 Zn 1.02757 0.30452 0.97155 0.0
O95 O 0.0385 0.35136 1.00012 0.0
C96 C 0.96721 0.31396 0.94436 0.0
O97 O 0.97117 0.33071 0.97384 0.0
O98 O 0.06095 0.3066 0.94292 0.0
C99 C 0.04497 0.37433 0.98425 0.0
O100 O 0.04493 0.36714 0.95275 0.0
C101 C 0.04975 0.25552 0.00615 0.0
O102 O 0.07728 0.27649 0.0089 0.0
O103 O 0.98687 0.29912 0.93828 0.0
C104 C 0.38749 0.10247 0.30106 0.0
O105 O 0.41288 0.10198 0.28928 0.0
O106 O 0.4393 0.06283 0.3231 0.0
Zn107 Zn 0.41474 0.07891 0.35371 0.0
O108 O 0.44499 0.10905 0.39115 0.0
C109 C 0.40431 0.02297 0.38039 0.0
O110 O 0.43492 0.03349 0.3886 0.0
O111 O 0.38459 0.09586 0.32918 0.0
C112 C 0.43919 0.10688 0.41961 0.0
O113 O 0.41006 0.09405 0.42272 0.0
C114 C 0.46733 0.06299 0.33163 0.0
O115 O 0.48209 0.07565 0.36171 0.0
O116 O 0.38996 0.04026 0.3677 0.0
C117 C 0.33652 0.18527 0.56228 0.0
O118 O 0.3201 0.19068 0.58487 0.0
O119 O 0.31205 0.25288 0.5734 0.0
Zn120 Zn 0.3011 0.21927 0.5319 0.0
O121 O 0.30007 0.23489 0.48849 0.0
C122 C 0.2341 0.18936 0.51831 0.0
O123 O 0.23421 0.2116 0.5009 0.0
O124 O 0.33269 0.1957 0.53587 0.0
C125 C 0.32432 0.25272 0.48088 0.0
O126 O 0.35042 0.26307 0.50248 0.0
C127 C 0.29182 0.26232 0.58695 0.0
O128 O 0.26282 0.25384 0.57126 0.0
O129 O 0.25988 0.18796 0.53303 0.0
C130 C 0.18125 0.03907 0.77812 0.0
O131 O 0.16828 0.04788 0.75264 0.0
O132 O 0.12527 0.07948 0.77231 0.0
Zn133 Zn 0.15787 0.08533 0.81319 0.0
O134 O 0.14122 0.08596 0.85617 0.0
C135 C 0.20156 0.13413 0.79087 0.0
O136 O 0.18953 0.11482 0.76263 0.0
O137 O 0.17881 0.05099 0.80672 0.0
C138 C 0.13005 0.06112 0.86762 0.0
O139 O 0.12709 0.03329 0.85016 0.0
C140 C 0.11909 0.10252 0.76109 0.0
O141 O 0.1307 0.13121 0.77881 0.0
O142 O 0.19172 0.12669 0.81659 0.0
C143 C 0.3035 0.01438 0.07344 0.0
O144 O 0.31804 1.00331 0.09601 0.0
O145 O 0.29313 0.92653 0.05506 0.0
Zn146 Zn 0.3102 0.96208 0.03224 0.0
O147 O 0.30037 0.94614 0.98402 0.0
C148 C 0.37459 0.96184 0.03805 0.0
O149 O 0.36297 0.93409 0.0185 0.0
O150 O 0.29583 0.99932 0.04409 0.0
C151 C 0.32022 0.9556 0.96608 0.0
O152 O 0.3456 0.97935 0.97841 0.0
C153 C 0.29257 0.8988 0.04224 0.0
O154 O 0.29948 0.89391 0.01286 0.0
O155 O 0.35645 0.97715 0.04713 0.0
C156 C 0.29924 0.4397 0.03208 0.0
O157 O 0.31567 0.4352 0.00921 0.0
O158 O 0.32875 0.38046 0.10043 0.0
Zn159 Zn 0.33073 0.39967 0.05908 0.0
O160 O 0.32158 0.36896 0.0153 0.0
C161 C 0.38299 0.45873 0.07257 0.0
O162 O 0.36339 0.47222 0.08441 0.0
O163 O 0.30122 0.42611 0.05658 0.0
C164 C 0.3442 0.36414 1.00228 0.0
O165 O 0.37261 0.37505 0.01963 0.0
C166 C 0.30352 0.37075 0.11142 0.0
O167 O 0.277 0.37037 0.09409 0.0
O168 O 0.37419 0.42897 0.06217 0.0
C169 C 0.8349 0.13377 0.03941 0.0
O170 O 0.81524 0.14242 0.01952 0.0
O171 O 0.83227 0.19633 0.13203 0.0
Zn172 Zn 0.82097 0.17837 0.0843 0.0
O173 O 0.82754 0.21356 0.0596 0.0
C174 C 0.76297 0.1354 0.08935 0.0
O175 O 0.78099 0.12611 0.11048 0.0
O176 O 0.84212 0.14694 0.06945 0.0
C177 C 0.81017 0.2311 0.06437 0.0
O178 O 0.79126 0.22568 0.08559 0.0
C179 C 0.85017 0.22444 0.14244 0.0
O180 O 0.86565 0.23973 0.12226 0.0
O181 O 0.77526 0.15712 0.07451 0.0
C182 C 0.27734 0.56677 0.29617 0.0
O183 O 0.2677 0.58565 0.31647 0.0
O184 O 0.19846 0.54727 0.21238 0.0
Zn185 Zn 0.22358 0.56769 0.25629 0.0
O186 O 0.19523 0.56112 0.28865 0.0
C187 C 0.26195 0.63203 0.25388 0.0
O188 O 0.28181 0.61937 0.24141 0.0
O189 O 0.26118 0.5546 0.26782 0.0
C190 C 0.174 0.57427 0.28331 0.0
O191 O 0.17119 0.58596 0.25642 0.0
C192 C 0.2075 0.55698 0.18732 0.0
O193 O 0.23611 0.57583 0.1902 0.0
O194 O 0.23704 0.6145 0.26031 0.0
C195 C 0.77324 0.92262 0.53357 0.0
O196 O 0.7644 0.89316 0.51773 0.0
O197 O 0.82585 0.88852 0.60122 0.0
Zn198 Zn 0.82866 0.90693 0.55924 0.0
O199 O 0.82075 0.87547 0.51621 0.0
C200 C 0.88028 0.9662 0.57322 0.0
O201 O 0.85954 0.97944 0.58258 0.0
O202 O 0.7991 0.93313 0.55354 0.0
C203 C 0.8433 0.87174 0.5024 0.0
O204 O 0.87206 0.88451 0.51859 0.0
C205 C 0.80082 0.87864 0.61253 0.0
O206 O 0.77403 0.87776 0.59538 0.0
O207 O 0.87227 0.93636 0.56362 0.0
C208 C 0.9623 0.11546 0.30634 0.0
O209 O 0.99187 0.12829 0.31999 0.0
O210 O 0.99771 0.0593 0.24655 0.0
Zn211 Zn 0.97954 0.05825 0.28859 0.0
O212 O 1.00937 0.06932 0.33231 0.0
C213 C 0.94872 0.98951 0.27087 0.0
O214 O 0.97055 0.98842 0.25332 0.0
O215 O 0.95294 0.08702 0.29094 0.0
C216 C 1.01664 0.04814 0.34617 0.0
O217 O 1.00891 0.01904 0.3296 0.0
C218 C 1.01297 0.08492 0.23876 0.0
O219 O 1.01979 0.11166 0.25975 0.0
O220 O 0.94892 0.01589 0.28681 0.0
C221 C 0.32946 0.60956 0.54489 0.0
O222 O 0.31094 0.62087 0.5266 0.0
O223 O 0.33182 0.67464 0.63747 0.0
Zn224 Zn 0.31815 0.65313 0.59079 0.0
O225 O 0.31976 0.68549 0.56217 0.0
C226 C 0.25757 0.62067 0.60565 0.0
O227 O 0.2709 0.62749 0.63665 0.0
O228 O 0.33845 0.62151 0.57517 0.0
C229 C 0.30083 0.70152 0.56576 0.0
O230 O 0.2835 0.69707 0.58851 0.0
C231 C 0.34876 0.70336 0.64393 0.0
O232 O 0.36221 0.7157 0.62088 0.0
O233 O 0.27357 0.62914 0.58406 0.0
C234 C 0.43342 0.59407 0.81465 0.0
O235 O 0.43941 0.57794 0.83725 0.0
O236 O 0.49031 0.56359 0.74394 0.0
Zn237 Zn 0.46907 0.56004 0.78397 0.0
O238 O 0.49843 0.56801 0.82764 0.0
C239 C 0.44027 0.49152 0.76497 0.0
O240 O 0.46419 0.49206 0.75009 0.0
O241 O 0.44439 0.59091 0.78838 0.0
C242 C 0.50723 0.54638 0.83913 0.0
O243 O 0.50086 0.51842 0.82041 0.0
C244 C 0.47412 0.5603 0.71564 0.0
O245 O 0.44368 0.55435 0.71275 0.0
O246 O 0.43782 0.51732 0.77959 0.0
C247 C 0.77346 0.06509 0.81712 0.0
O248 O 0.76385 0.08362 0.83784 0.0
O249 O 0.70249 0.05542 0.7285 0.0
Zn250 Zn 0.72313 0.07079 0.77523 0.0
O251 O 0.69206 0.06514 0.80515 0.0
C252 C 0.7588 0.12947 0.76178 0.0
O253 O 0.76285 0.11169 0.73596 0.0
O254 O 0.75807 0.05434 0.78822 0.0
C255 C 0.6738 0.08207 0.80266 0.0
O256 O 0.67544 0.09967 0.77998 0.0
C257 C 0.67436 0.03776 0.72108 0.0
O258 O 0.66042 0.02581 0.74402 0.0
O259 O 0.74235 0.11677 0.78129 0.0
C260 C 0.83664 0.68931 0.05848 0.0
O261 O 0.81942 0.69049 0.08128 0.0
O262 O 0.80699 0.75574 0.07411 0.0
Zn263 Zn 0.79807 0.72327 0.0317 0.0
O264 O 0.79573 0.73982 0.98858 0.0
C265 C 0.73266 0.68556 0.01344 0.0
O266 O 0.7318 0.70477 0.9926 0.0
O267 O 0.83211 0.7024 0.03407 0.0
C268 C 0.82066 0.753 0.97852 0.0
O269 O 0.84775 0.75828 0.99758 0.0
C270 C 0.78617 0.76465 0.08716 0.0
O271 O 0.75741 0.75591 0.07077 0.0
O272 O 0.75828 0.68906 0.03214 0.0
C273 C 0.89682 0.619 0.79755 0.0
O274 O 0.92055 0.61727 0.78318 0.0
O275 O 0.93385 0.56363 0.79758 0.0
Zn276 Zn 0.91658 0.57893 0.83577 0.0
O277 O 0.95039 0.59587 0.87446 0.0
C278 C 0.86674 0.52606 0.8141 0.0
O279 O 0.86781 0.54011 0.78861 0.0
O280 O 0.89343 0.60794 0.8235 0.0
C281 C 0.94679 0.58484 0.90037 0.0
O282 O 0.91939 0.56578 0.90229 0.0
C283 C 0.94243 0.53882 0.79599 0.0
O284 O 0.9437 0.52492 0.8215 0.0
O285 O 0.88499 0.54017 0.84089 0.0
C286 C 0.81045 0.52771 0.57787 0.0
O287 O 0.8245 0.51512 0.59932 0.0
O288 O 0.85123 0.47431 0.56967 0.0
Zn289 Zn 0.83005 0.4875 0.53141 0.0
O290 O 0.80356 0.45032 0.49727 0.0
C291 C 0.87476 0.53944 0.51254 0.0
O292 O 0.86224 0.55836 0.52916 0.0
O293 O 0.80825 0.51806 0.5474 0.0
C294 C 0.80816 0.42353 0.49709 0.0
O295 O 0.82558 0.41934 0.52265 0.0
C296 C 0.87931 0.47345 0.57309 0.0
O297 O 0.89568 0.47993 0.54992 0.0
O298 O 0.86344 0.5097 0.50973 0.0
C299 C 0.66786 0.53005 0.30371 0.0
O300 O 0.64067 0.51752 0.31187 0.0
O301 O 0.62555 0.59102 0.26953 0.0
Zn302 Zn 0.65313 0.59031 0.31176 0.0
O303 O 0.63139 0.58164 0.35045 0.0
C304 C 0.67942 0.65653 0.31655 0.0
O305 O 0.64996 0.6541 0.30648 0.0
O306 O 0.6766 0.55927 0.30227 0.0
C307 C 0.64883 0.58789 0.37848 0.0
O308 O 0.6792 0.59988 0.38071 0.0
C309 C 0.61105 0.56614 0.24842 0.0
O310 O 0.61085 0.53845 0.2556 0.0
O311 O 0.68639 0.6322 0.32289 0.0
Dy312 Dy 0.10815 0.10168 0.07302 0.0
Dy313 Dy 0.04012 0.05598 0.03378 0.0
C314 C 0.09751 0.07044 0.99749 0.0
O315 O 0.08084 0.13615 0.06702 0.0
O316 O 0.04229 0.10599 0.02453 0.0
O317 O 0.1481 0.14246 0.07559 0.0
O318 O 0.14666 0.11447 0.11365 0.0
O319 O 0.03028 0.07003 0.08396 0.0
O320 O 0.07984 0.0974 0.11249 0.0
O321 O 0.06056 0.02087 0.05545 0.0
O322 O 0.11186 0.05158 0.07208 0.0
O323 O 0.99529 0.02093 0.02964 0.0
O324 O 1.00885 0.03955 0.98711 0.0
C325 C 0.0585 0.13406 0.04253 0.0
O326 O 0.11016 0.09647 0.01941 0.0
O327 O 0.07491 0.04753 1.00332 0.0
C328 C 0.19452 0.13323 0.09735 0.0
C329 C 0.2469 0.11198 0.09333 0.0
C330 C 0.22452 0.10798 0.06516 0.0
C331 C 0.19855 0.11841 0.06718 0.0
C332 C 0.21794 0.13968 0.12501 0.0
C333 C 0.24408 0.12915 0.123 0.0
C334 C 0.16387 0.1366 0.101 0.0
C335 C 0.04983 0.08465 0.1114 0.0
C336 C 0.0899 0.02381 0.06751 0.0
C337 C 0.95585 0.02943 0.99305 0.0
C338 C 0.90318 0.05061 0.99509 0.0
C339 C 0.92687 0.06532 0.97886 0.0
C340 C 0.9531 0.0549 0.97795 0.0
C341 C 0.9306 1.01262 0.00607 0.0
C342 C 0.90449 0.02323 0.00724 0.0
C343 C 0.98608 0.02303 0.99947 0.0
H344 H 0.22551 0.09438 0.04201 0.0
H345 H 0.18054 0.11281 0.0456 0.0
H346 H 0.21505 0.15097 0.14854 0.0
H347 H 0.26109 0.13279 0.14499 0.0
H348 H 0.92649 0.08657 0.96943 0.0
H349 H 0.97205 0.06821 0.96743 0.0
H350 H 0.93204 0.99266 0.01745 0.0
H351 H 0.88629 1.01133 0.01958 0.0
Dy352 Dy 0.33593 0.83231 0.28663 0.0
Dy353 Dy 0.29238 0.82698 0.34293 0.0
C354 C 0.34141 0.8905 0.34048 0.0
O355 O 0.36313 0.81487 0.32485 0.0
O356 O 0.33781 0.82291 0.36808 0.0
O357 O 0.36221 0.8606 0.25631 0.0
O358 O 0.35864 0.81071 0.25189 0.0
O359 O 0.29342 0.7782 0.32466 0.0
O360 O 0.29991 0.78534 0.27297 0.0
O361 O 0.25942 0.8248 0.29735 0.0
O362 O 0.29455 0.8475 0.26641 0.0
O363 O 0.24981 0.8061 0.36014 0.0
O364 O 0.28629 0.84569 0.39116 0.0
C365 C 0.36095 0.81566 0.356 0.0
O366 O 0.35763 0.87382 0.32701 0.0
O367 O 0.31152 0.87779 0.33974 0.0
C368 C 0.35213 0.83083 0.20385 0.0
C369 C 0.32357 0.83384 0.14147 0.0
C370 C 0.35639 0.84363 0.15019 0.0
C371 C 0.37062 0.84232 0.18139 0.0
C372 C 0.3195 0.81868 0.19426 0.0
C373 C 0.30529 0.82028 0.16329 0.0
C374 C 0.36568 0.8358 0.23848 0.0
C375 C 0.29219 0.76672 0.29384 0.0
C376 C 0.26562 0.83765 0.27169 0.0
C377 C 0.26246 0.80397 0.41574 0.0
C378 C 0.275 0.77292 0.46733 0.0
C379 C 0.27725 0.76079 0.43526 0.0
C380 C 0.27124 0.77626 0.40977 0.0
C381 C 0.25923 0.81572 0.44747 0.0
C382 C 0.26538 0.80023 0.47315 0.0
C383 C 0.26088 0.8225 0.38978 0.0
H384 H 0.37094 0.8546 0.13389 0.0
H385 H 0.39578 0.852 0.1886 0.0
H386 H 0.30488 0.80983 0.21145 0.0
H387 H 0.27999 0.81265 0.1571 0.0
H388 H 0.28401 0.73947 0.42987 0.0
H389 H 0.27433 0.76701 0.38553 0.0
H390 H 0.253 0.83739 0.45256 0.0
H391 H 0.26363 0.8102 0.49768 0.0
Dy392 Dy 0.54089 0.06647 0.57343 0.0
Dy393 Dy 0.59861 0.07098 0.53215 0.0
C394 C 0.53344 0.07621 0.50176 0.0
O395 O 0.54437 0.0166 0.56612 0.0
O396 O 0.57025 0.01891 0.5224 0.0
O397 O 0.49214 0.04513 0.57495 0.0
O398 O 0.52088 0.08353 0.61362 0.0
O399 O 0.61385 0.05554 0.57819 0.0
O400 O 0.58067 0.06843 0.61121 0.0
O401 O 0.60718 0.12146 0.55781 0.0
O402 O 0.55787 0.11812 0.56799 0.0
O403 O 0.64784 0.08728 0.53024 0.0
O404 O 0.61475 0.05842 0.48731 0.0
C405 C 0.55422 1.00239 0.54168 0.0
O406 O 0.52313 0.05601 0.52025 0.0
O407 O 0.5636 0.08868 0.50374 0.0
C408 C 0.46963 0.08327 0.59525 0.0
C409 C 0.42524 0.11564 0.58396 0.0
C410 C 0.45317 0.12367 0.57142 0.0
C411 C 0.47511 0.10758 0.57696 0.0
C412 C 0.4419 0.07506 0.60781 0.0
C413 C 0.41983 0.09113 0.60222 0.0
C414 C 0.49254 0.06604 0.60016 0.0
C415 C 0.60512 0.05922 0.60676 0.0
C416 C 0.58613 0.13527 0.56552 0.0
C417 C 0.66228 0.04705 0.50045 0.0
C418 C 0.69877 1.00566 0.50706 0.0
C419 C 0.66717 0.99624 0.51033 0.0
C420 C 0.64924 0.01683 0.50732 0.0
C421 C 0.69361 0.05639 0.49643 0.0
C422 C 0.71176 0.03585 0.49977 0.0
C423 C 0.64415 0.06974 0.50148 0.0
H424 H 0.45829 0.14265 0.55763 0.0
H425 H 0.49636 0.11408 0.56689 0.0
H426 H 0.43723 0.05613 0.62171 0.0
H427 H 0.39835 0.08409 0.61182 0.0
H428 H 0.65661 0.9734 0.51651 0.0
H429 H 0.62542 1.00956 0.51146 0.0
H430 H 0.70423 0.07981 0.49163 0.0
H431 H 0.73603 0.04369 0.49698 0.0
Dy432 Dy 0.35416 0.30395 0.79716 0.0
Dy433 Dy 0.29213 0.32989 0.79294 0.0
C434 C 0.35895 0.37319 0.78434 0.0
O435 O 0.35455 0.32907 0.84761 0.0
O436 O 0.30191 0.32 0.84329 0.0
O437 O 0.4029 0.31247 0.81666 0.0
O438 O 0.37683 0.2685 0.78342 0.0
O439 O 0.275 0.27711 0.7812 0.0
O440 O 0.31621 0.26587 0.80973 0.0
O441 O 0.30023 0.32459 0.74119 0.0
O442 O 0.3308 0.2911 0.74443 0.0
O443 O 0.24366 0.32536 0.77535 0.0
O444 O 0.272 0.36557 0.81233 0.0
C445 C 0.32973 0.32725 0.8613 0.0
O446 O 0.36715 0.3477 0.77646 0.0
O447 O 0.33404 0.37232 0.79761 0.0
C448 C 0.4289 0.29235 0.77715 0.0
C449 C 0.47325 0.30079 0.73489 0.0
C450 C 0.46368 0.32641 0.74832 0.0
C451 C 0.44161 0.32221 0.76906 0.0
C452 C 0.43875 0.26685 0.76415 0.0
C453 C 0.46063 0.27098 0.74315 0.0
C454 C 0.40445 0.28729 0.79779 0.0
C455 C 0.28683 0.25759 0.79527 0.0
C456 C 0.31378 0.30493 0.7273 0.0
C457 C 0.21939 0.34456 0.81757 0.0
C458 C 0.17597 0.33669 0.86085 0.0
C459 C 0.18188 0.31023 0.8436 0.0
C460 C 0.20353 0.31412 0.82233 0.0
C461 C 0.2131 0.37092 0.83432 0.0
C462 C 0.19172 0.36706 0.85582 0.0
C463 C 0.24384 0.34954 0.79693 0.0
H464 H 0.47263 0.34955 0.7421 0.0
H465 H 0.43422 0.34229 0.77838 0.0
H466 H 0.42921 0.24361 0.76993 0.0
H467 H 0.46771 0.25083 0.73338 0.0
H468 H 0.17035 0.28656 0.8472 0.0
H469 H 0.20819 0.29336 0.81007 0.0
H470 H 0.22513 0.39461 0.83114 0.0
H471 H 0.18744 0.38788 0.86847 0.0
Dy472 Dy 0.07296 0.04436 0.55286 0.0
Dy473 Dy 0.05022 0.1091 0.55759 0.0
C474 C 1.00318 0.04263 0.56149 0.0
O475 O 0.06741 0.05198 0.50115 0.0
O476 O 0.03618 0.08486 0.50484 0.0
O477 O 0.06609 0.99474 0.53441 0.0
O478 O 0.1064 0.02187 0.5712 0.0
O479 O 0.0929 0.11982 0.53551 0.0
O480 O 0.116 0.08535 0.556 0.0
O481 O 0.07666 0.11041 0.6073 0.0
O482 O 0.06635 0.05706 0.60419 0.0
O483 O 0.06075 0.15904 0.5764 0.0
O484 O 1.01608 0.13319 0.54543 0.0
C485 C 0.04899 0.06658 0.48748 0.0
O486 O 1.02089 0.02855 0.54666 0.0
O487 O 1.01254 0.07322 0.57311 0.0
C488 C 0.08226 0.96946 0.57607 0.0
C489 C 0.07099 0.92501 0.61808 0.0
C490 C 0.08861 0.9216 0.59324 0.0
C491 C 0.09428 0.94373 0.57247 0.0
C492 C 0.06412 0.97258 0.60033 0.0
C493 C 0.0586 0.95064 0.62118 0.0
C494 C 0.0895 0.9937 0.55552 0.0
C495 C 0.11751 0.11052 0.54266 0.0
C496 C 0.07497 0.08578 0.62155 0.0
C497 C 0.03979 0.1856 0.5392 0.0
C498 C 0.05043 0.23438 0.50213 0.0
C499 C 0.06507 0.21051 0.49785 0.0
C500 C 0.05973 0.18632 0.51615 0.0
C501 C 1.02479 0.20898 0.54329 0.0
C502 C 0.02999 0.23313 0.52489 0.0
C503 C 0.03524 0.16099 0.5595 0.0
H504 H 0.0987 0.9023 0.5904 0.0
H505 H 0.1084 0.94101 0.55394 0.0
H506 H 0.0545 0.99222 0.60336 0.0
H507 H 0.04459 0.95373 0.63973 0.0
H508 H 0.08121 0.21086 0.48087 0.0
H509 H 0.0715 0.16839 0.51262 0.0
H510 H 1.00921 0.20869 0.56087 0.0
H511 H 1.01788 0.25075 0.52843 0.0
Dy512 Dy 0.31865 0.85128 0.78191 0.0
Dy513 Dy 0.31059 0.79306 0.82211 0.0
C514 C 0.31357 0.86142 0.85593 0.0
O515 O 0.36884 0.85573 0.8058 0.0
O516 O 0.36045 0.80485 0.81458 0.0
O517 O 0.33727 0.90138 0.78275 0.0
O518 O 0.30774 0.87025 0.73879 0.0
O519 O 0.30676 0.77193 0.7697 0.0
O520 O 0.33242 0.8154 0.75012 0.0
O521 O 0.26252 0.79942 0.81498 0.0
O522 O 0.26635 0.82458 0.771 0.0
O523 O 0.28678 0.74498 0.8261 0.0
O524 O 0.32559 0.77393 0.86367 0.0
C525 C 0.37985 0.83244 0.81303 0.0
O526 O 0.30176 0.865 0.82727 0.0
O527 O 0.3249 0.83792 0.85919 0.0
C528 C 0.29887 0.91887 0.75528 0.0
C529 C 0.2592 0.95721 0.76097 0.0
C530 C 0.25428 0.93002 0.77515 0.0
C531 C 0.27387 0.91102 0.77226 0.0
C532 C 0.3037 0.94568 0.74062 0.0
C533 C 0.28388 0.96469 0.74332 0.0
C534 C 0.32024 0.8995 0.75444 0.0
C535 C 0.32234 0.78467 0.74821 0.0
C536 C 0.24917 0.80923 0.7903 0.0
C537 C 0.32405 0.7216 0.84545 0.0
C538 C 0.3576 0.67774 0.83474 0.0
C539 C 0.3609 0.7028 0.81737 0.0
C540 C 0.34414 0.7243 0.82251 0.0
C541 C 0.32044 0.69671 0.86285 0.0
C542 C 0.33703 0.67483 0.85747 0.0
C543 C 0.30756 0.74531 0.85093 0.0
H544 H 0.23522 0.9234 0.78847 0.0
H545 H 0.26971 0.89031 0.78366 0.0
H546 H 0.32296 0.95212 0.72753 0.0
H547 H 0.28832 0.98564 0.73231 0.0
H548 H 0.37687 0.70624 0.80015 0.0
H549 H 0.34709 0.74328 0.80867 0.0
H550 H 0.30489 0.69422 0.88054 0.0
H551 H 0.33361 0.65556 0.87095 0.0
Dy552 Dy 0.56049 0.07952 0.03476 0.0
Dy553 Dy 0.57063 0.04627 0.09773 0.0
C554 C 0.57473 0.01379 0.02491 0.0
O555 O 0.51698 0.04006 0.03309 0.0
O556 O 0.5204 0.04285 0.08809 0.0
O557 O 0.53759 0.07577 0.98526 0.0
O558 O 0.56857 0.12094 0.01227 0.0
O559 O 0.57134 0.09608 0.11883 0.0
O560 O 0.54351 0.10608 0.07407 0.0
O561 O 0.61716 0.06069 0.08385 0.0
O562 O 0.61094 0.10083 0.05798 0.0
O563 O 0.595 0.04718 0.14585 0.0
O564 O 0.55788 1.00518 0.1202 0.0
C565 C 0.50402 0.03384 0.05851 0.0
O566 O 0.58132 0.04187 0.01675 0.0
O567 O 0.56463 1.00938 0.05254 0.0
C568 C 0.5715 0.10636 0.95707 0.0
C569 C 0.60305 0.09933 0.9045 0.0
C570 C 0.6176 0.10062 0.93659 0.0
C571 C 0.6019 0.10393 0.96261 0.0
C572 C 0.55724 0.10629 0.92533 0.0
C573 C 0.57299 0.10291 0.89913 0.0
C574 C 0.55351 0.10449 0.98364 0.0
C575 C 0.55529 0.11311 0.10553 0.0
C576 C 0.62887 0.08632 0.07247 0.0
C577 C 0.55978 0.02092 0.17595 0.0
C578 C 0.52917 0.02599 0.22942 0.0
C579 C 0.51909 0.0354 0.20044 0.0
C580 C 0.53432 0.03298 0.17401 0.0
C581 C 0.57005 1.01137 0.2047 0.0
C582 C 0.55484 0.01402 0.23149 0.0
C583 C 0.57595 0.01996 0.14811 0.0
H584 H 0.64097 0.09851 0.94152 0.0
H585 H 0.61314 0.1035 0.98695 0.0
H586 H 0.53357 0.10766 0.92066 0.0
H587 H 0.5612 0.10184 0.87459 0.0
H588 H 0.49987 0.04544 0.19847 0.0
H589 H 0.52645 0.04097 0.15216 0.0
H590 H 0.58991 1.00227 0.20652 0.0
H591 H 0.56304 1.00676 0.25371 0.0
Dy592 Dy 0.29043 0.28184 0.27776 0.0
Dy593 Dy 0.33376 0.35073 0.31752 0.0
C594 C 0.31919 0.29097 0.3544 0.0
O595 O 0.25681 0.30077 0.30318 0.0
O596 O 0.28328 0.35378 0.31414 0.0
O597 O 0.2526 0.23852 0.27173 0.0
O598 O 0.27727 0.24853 0.23187 0.0
O599 O 0.33086 0.35299 0.26424 0.0
O600 O 0.283 0.3168 0.24687 0.0
O601 O 0.36932 0.32401 0.31116 0.0
O602 O 0.33972 0.28441 0.26895 0.0
O603 O 0.37617 0.38969 0.32446 0.0
O604 O 0.34226 0.39151 0.35585 0.0
C605 C 0.25718 0.33028 0.31229 0.0
O606 O 0.30752 0.27106 0.32633 0.0
O607 O 0.32803 0.32178 0.35639 0.0
C608 C 0.26319 0.19585 0.24024 0.0
C609 C 0.29084 0.14725 0.24394 0.0
C610 C 0.27387 0.15506 0.26797 0.0
C611 C 0.26005 0.17902 0.26605 0.0
C612 C 0.27641 0.18522 0.21401 0.0
C613 C 0.29021 0.16109 0.21589 0.0
C614 C 0.25777 0.22706 0.24334 0.0
C615 C 0.30602 0.33963 0.24152 0.0
C616 C 0.36732 0.30084 0.28687 0.0
C617 C 0.36763 0.4384 0.33988 0.0
C618 C 0.35768 0.49544 0.32855 0.0
C619 C 0.34976 0.46907 0.3029 0.0
C620 C 0.35464 0.44084 0.30855 0.0
C621 C 0.37738 0.46501 0.36518 0.0
C622 C 0.37252 0.49349 0.35953 0.0
C623 C 0.36752 0.40725 0.34664 0.0
H624 H 0.27375 0.14499 0.28998 0.0
H625 H 0.24932 0.18609 0.28631 0.0
H626 H 0.27834 0.19725 0.19334 0.0
H627 H 0.30237 0.15494 0.19655 0.0
H628 H 0.33763 0.46931 0.27894 0.0
H629 H 0.34665 0.42039 0.28881 0.0
H630 H 0.38737 0.46334 0.38955 0.0
H631 H 0.37901 0.51344 0.3797 0.0
Dy632 Dy 0.57261 0.5336 0.04136 0.0
Dy633 Dy 0.55272 0.60009 0.05127 0.0
C634 C 0.50361 0.53389 0.0532 0.0
O635 O 0.56451 0.54271 0.99034 0.0
O636 O 0.53501 0.57689 0.99849 0.0
O637 O 0.56468 0.48385 0.02227 0.0
O638 O 0.60671 0.51069 0.05701 0.0
O639 O 0.59319 0.60858 0.02577 0.0
O640 O 0.6163 0.57469 0.04681 0.0
O641 O 0.57773 0.59686 0.10038 0.0
O642 O 0.56473 0.54296 0.09235 0.0
O643 O 0.56784 0.65031 0.07108 0.0
O644 O 0.52097 0.62768 0.04337 0.0
C645 C 0.546 0.55841 0.97901 0.0
O646 O 0.52066 0.51922 0.03781 0.0
O647 O 0.51355 0.56451 0.06503 0.0
C648 C 0.58402 0.45797 0.06254 0.0
C649 C 0.57781 0.41541 0.10707 0.0
C650 C 0.55284 0.42671 0.09643 0.0
C651 C 0.55598 0.44797 0.07458 0.0
C652 C 0.60864 0.44611 0.07248 0.0
C653 C 0.60562 0.42514 0.09453 0.0
C654 C 0.58902 0.48261 0.04194 0.0
C655 C 0.6179 0.59961 0.03307 0.0
C656 C 0.57407 0.57049 0.11203 0.0
C657 C 0.54754 0.67931 0.03614 0.0
C658 C 0.56154 0.7279 0.99895 0.0
C659 C 0.55717 0.69617 0.9847 0.0
C660 C 0.55044 0.67215 1.00319 0.0
C661 C 0.55148 0.7108 0.05033 0.0
C662 C 0.55845 0.73488 0.03195 0.0
C663 C 0.54246 0.6545 0.05637 0.0
H664 H 0.53124 0.41995 0.10587 0.0
H665 H 0.53677 0.45714 0.0677 0.0
H666 H 0.63053 0.45364 0.06372 0.0
H667 H 0.62519 0.41668 0.10197 0.0
H668 H 0.55976 0.69002 0.95951 0.0
H669 H 0.54801 0.64805 0.9919 0.0
H670 H 0.54957 0.71685 0.07577 0.0
H671 H 0.56136 0.75899 0.04358 0.0
Dy672 Dy 0.81812 0.35397 0.30006 0.0
Dy673 Dy 0.81077 0.28846 0.32772 0.0
C674 C 0.80611 0.34968 0.3729 0.0
O675 O 0.86719 0.35885 0.32549 0.0
O676 O 0.86193 0.30614 0.32292 0.0
O677 O 0.83466 0.40496 0.30701 0.0
O678 O 0.80884 0.3772 0.25981 0.0
O679 O 0.80508 0.27646 0.27368 0.0
O680 O 0.83501 0.32344 0.26458 0.0
O681 O 0.76143 0.29204 0.32149 0.0
O682 O 0.76633 0.32699 0.2859 0.0
O683 O 0.79046 0.23771 0.32146 0.0
O684 O 0.8249 0.26346 0.36442 0.0
C685 C 0.8799 0.33571 0.32695 0.0
O686 O 0.8002 0.36123 0.34663 0.0
O687 O 0.8164 0.32501 0.37182 0.0
C688 C 0.7966 0.42295 0.27954 0.0
C689 C 0.75237 0.45625 0.28263 0.0
C690 C 0.75095 0.43104 0.29951 0.0
C691 C 0.77276 0.41447 0.29784 0.0
C692 C 0.79804 0.44774 0.26229 0.0
C693 C 0.77603 0.46428 0.26376 0.0
C694 C 0.81935 0.40527 0.27846 0.0
C695 C 0.82313 0.29264 0.25619 0.0
C696 C 0.74868 0.30659 0.30078 0.0
C697 C 0.8298 0.21593 0.33866 0.0
C698 C 0.87218 0.18196 0.32722 0.0
C699 C 0.8723 0.20803 0.31216 0.0
C700 C 0.85111 0.22472 0.31763 0.0
C701 C 0.82919 0.1896 0.35336 0.0
C702 C 0.85015 0.17249 0.34745 0.0
C703 C 0.80992 0.23578 0.34635 0.0
H704 H 0.73343 0.4245 0.31466 0.0
H705 H 0.77117 0.39517 0.31112 0.0
H706 H 0.81614 0.4543 0.24778 0.0
H707 H 0.7775 0.4833 0.2501 0.0
H708 H 0.88877 0.21547 0.29612 0.0
H709 H 0.85168 0.24483 0.30582 0.0
H710 H 0.81292 0.18262 0.36971 0.0
H711 H 0.84974 0.15243 0.35932 0.0
Dy712 Dy 0.07363 0.60425 0.51945 0.0
Dy713 Dy 0.05459 0.55213 0.56572 0.0
C714 C 0.0714 0.53172 0.49603 0.0
O715 O 1.02468 0.59946 0.52481 0.0
O716 O 1.01388 0.54734 0.52705 0.0
O717 O 0.06016 0.62163 0.47623 0.0
O718 O 0.10496 0.64584 0.50799 0.0
O719 O 0.04515 0.59581 0.59136 0.0
O720 O 0.07957 0.63219 0.56981 0.0
O721 O 0.10536 0.57691 0.58284 0.0
O722 O 0.11652 0.59133 0.53452 0.0
O723 O 0.06125 0.53357 0.60996 0.0
O724 O 1.02315 0.50741 0.57045 0.0
C725 C 1.00467 0.57136 0.52044 0.0
O726 O 0.06419 0.55638 0.48737 0.0
O727 O 0.07475 0.52854 0.52688 0.0
C728 C 0.10293 0.63844 0.45064 0.0
C729 C 0.12437 0.61799 0.39397 0.0
C730 C 0.14133 0.61995 0.42517 0.0
C731 C 0.1306 0.62984 0.45324 0.0
C732 C 0.08696 0.63831 0.4196 0.0
C733 C 0.09751 0.62806 0.39145 0.0
C734 C 0.08778 0.64206 0.47924 0.0
C735 C 0.06184 0.62534 0.59193 0.0
C736 C 0.12537 0.58594 0.5636 0.0
C737 C 1.01458 0.50575 0.62407 0.0
C738 C 0.97971 0.50356 0.67484 0.0
C739 C 0.98181 0.52731 0.65574 0.0
C740 C 0.99904 0.52834 0.63056 0.0
C741 C 1.01137 0.48107 0.64175 0.0
C742 C 0.99396 0.47992 0.66699 0.0
C743 C 0.03595 0.50954 0.60068 0.0
H744 H 0.16257 0.61317 0.42793 0.0
H745 H 0.14331 0.62944 0.47685 0.0
H746 H 0.06536 0.64449 0.41709 0.0
H747 H 0.08384 0.6267 0.36778 0.0
H748 H 0.97169 0.54627 0.66136 0.0
H749 H 1.00137 0.54757 0.61705 0.0
H750 H 1.02315 0.46334 0.63676 0.0
H751 H 0.99233 0.46104 0.68087 0.0
Dy752 Dy 0.84538 0.80497 0.29647 0.0
Dy753 Dy 0.78793 0.83798 0.29362 0.0
C754 C 0.85669 0.87572 0.28528 0.0
O755 O 0.84891 0.83188 0.34697 0.0
O756 O 0.79729 0.82803 0.34407 0.0
O757 O 0.8929 0.80873 0.31657 0.0
O758 O 0.86524 0.76783 0.28 0.0
O759 O 0.76651 0.78583 0.28471 0.0
O760 O 0.80576 0.77035 0.3113 0.0
O761 O 0.79515 0.83059 0.2414 0.0
O762 O 0.82043 0.79252 0.24446 0.0
O763 O 0.74106 0.83829 0.27541 0.0
O764 O 0.77038 0.87489 0.31541 0.0
C765 C 0.82503 0.83287 0.36139 0.0
O766 O 0.86174 0.84864 0.27619 0.0
O767 O 0.83241 0.87738 0.29872 0.0
C768 C 0.91838 0.78986 0.27587 0.0
C769 C 0.96452 0.79995 0.23561 0.0
C770 C 0.9558 0.82548 0.25079 0.0
C771 C 0.9329 0.82049 0.27054 0.0
C772 C 0.92726 0.76437 0.26103 0.0
C773 C 0.95003 0.76932 0.24104 0.0
C774 C 0.89324 0.78429 0.2957 0.0
C775 C 0.77598 0.76563 0.29997 0.0
C776 C 0.80596 0.80849 0.22738 0.0
C777 C 0.71725 0.85495 0.31895 0.0
C778 C 0.67315 0.84446 0.36142 0.0
C779 C 0.68424 0.8198 0.34834 0.0
C780 C 0.70625 0.82507 0.32755 0.0
C781 C 0.70594 0.87949 0.33159 0.0
C782 C 0.68417 0.87434 0.35268 0.0
C783 C 0.74211 0.86127 0.29894 0.0
H784 H 0.96613 0.84927 0.24676 0.0
H785 H 0.92634 0.84063 0.28134 0.0
H786 H 0.91635 0.74055 0.26467 0.0
H787 H 0.95639 0.74918 0.2299 0.0
H788 H 0.67658 0.79666 0.35491 0.0
H789 H 0.71512 0.80593 0.31867 0.0
H790 H 0.71432 0.90279 0.32556 0.0
H791 H 0.67592 0.89376 0.36216 0.0
Dy792 Dy 0.84516 0.3296 0.76965 0.0
Dy793 Dy 0.80108 0.32928 0.82547 0.0
C794 C 0.83377 0.39245 0.80321 0.0
O795 O 0.86878 0.31396 0.81226 0.0
O796 O 0.85002 0.33908 0.85246 0.0
O797 O 0.89234 0.34125 0.76032 0.0
O798 O 0.85336 0.32044 0.72002 0.0
O799 O 0.80583 0.28085 0.81536 0.0
O800 O 0.81556 0.27972 0.76294 0.0
O801 O 0.76821 0.31743 0.77778 0.0
O802 O 0.80192 0.33935 0.74502 0.0
O803 O 0.76041 0.30767 0.8453 0.0
O804 O 0.79267 0.3532 0.87017 0.0
C805 C 0.87039 0.32515 0.8434 0.0
O806 O 0.85472 0.37962 0.79401 0.0
O807 O 0.80793 0.37586 0.81077 0.0
C808 C 0.89614 0.3601 0.71105 0.0
C809 C 0.90951 0.40768 0.67332 0.0
C810 C 0.90863 0.41563 0.70674 0.0
C811 C 0.90181 0.39199 0.72543 0.0
C812 C 0.89956 0.35243 0.67848 0.0
C813 C 0.90626 0.37606 0.65971 0.0
C814 C 0.88335 0.33469 0.72863 0.0
C815 C 0.80635 0.26522 0.78658 0.0
C816 C 0.77323 0.32826 0.75078 0.0
C817 C 0.77394 0.31657 0.90235 0.0
C818 C 0.78944 0.29731 0.96141 0.0
C819 C 0.79702 0.28391 0.9324 0.0
C820 C 0.78955 0.29362 0.90322 0.0
C821 C 0.76583 0.32978 0.931 0.0
C822 C 0.77347 0.32011 0.96046 0.0
C823 C 0.76957 0.3289 0.87227 0.0
H824 H 0.91135 0.43985 0.71791 0.0
H825 H 0.89939 0.39848 0.75063 0.0
H826 H 0.89526 0.32795 0.66703 0.0
H827 H 0.90645 0.36916 0.63392 0.0
H828 H 0.80863 0.26574 0.93215 0.0
H829 H 0.79644 0.28352 0.8814 0.0
H830 H 0.75426 0.34796 0.9307 0.0
H831 H 0.76743 0.33083 0.98251 0.0
Dy832 Dy 0.78932 0.78407 0.77493 0.0
Dy833 Dy 0.83371 0.85177 0.81671 0.0
C834 C 0.81689 0.79055 0.85165 0.0
O835 O 0.75589 0.80283 0.8005 0.0
O836 O 0.78352 0.85554 0.8151 0.0
O837 O 0.7511 0.74085 0.76729 0.0
O838 O 0.77539 0.75289 0.7277 0.0
O839 O 0.83042 0.8563 0.76386 0.0
O840 O 0.78232 0.82066 0.74608 0.0
O841 O 0.86861 0.82453 0.80898 0.0
O842 O 0.8385 0.78548 0.76651 0.0
O843 O 0.87607 0.89078 0.8237 0.0
O844 O 0.84398 0.89059 0.85759 0.0
C845 C 0.75693 0.83218 0.8116 0.0
O846 O 0.80371 0.77136 0.82341 0.0
O847 O 0.82807 0.82131 0.85425 0.0
C848 C 0.76172 0.69958 0.73372 0.0
C849 C 0.79399 0.65496 0.73873 0.0
C850 C 0.77428 0.65942 0.76107 0.0
C851 C 0.75806 0.6814 0.75843 0.0
C852 C 0.77709 0.69132 0.70838 0.0
C853 C 0.79322 0.66911 0.71091 0.0
C854 C 0.75602 0.73063 0.73835 0.0
C855 C 0.80535 0.84377 0.74124 0.0
C856 C 0.86622 0.80143 0.78448 0.0
C857 C 0.86951 0.93924 0.84515 0.0
C858 C 0.85891 0.99754 0.84133 0.0
C859 C 0.8525 0.97407 0.81303 0.0
C860 C 0.85765 0.94517 0.81496 0.0
C861 C 0.8782 0.96326 0.87304 0.0
C862 C 0.87299 0.99237 0.87116 0.0
C863 C 0.86882 0.90697 0.84818 0.0
H864 H 0.77397 0.64876 0.7827 0.0
H865 H 0.74551 0.68649 0.7778 0.0
H866 H 0.77933 0.70424 0.68839 0.0
H867 H 0.80722 0.66512 0.69261 0.0
H868 H 0.84105 0.97683 0.78977 0.0
H869 H 0.8505 0.92677 0.79321 0.0
H870 H 0.88737 0.9589 0.89655 0.0
H871 H 0.87834 1.0101 0.89329 0.0
Dy872 Dy 0.59803 0.59001 0.57299 0.0
Dy873 Dy 0.53307 0.54915 0.52468 0.0
C874 C 0.59609 0.56943 0.49565 0.0
O875 O 0.57233 0.62602 0.56523 0.0
O876 O 0.53807 0.59992 0.51796 0.0
O877 O 0.63613 0.63355 0.58786 0.0
O878 O 0.63237 0.59645 0.61633 0.0
O879 O 0.51752 0.56454 0.57139 0.0
O880 O 0.56421 0.57505 0.60599 0.0
O881 O 0.55007 0.51433 0.5506 0.0
O882 O 0.60243 0.53992 0.56403 0.0
O883 O 0.49713 0.50411 0.50853 0.0
O884 O 0.49633 0.54287 0.48353 0.0
C885 C 0.55304 0.62649 0.53893 0.0
O886 O 0.60988 0.5898 0.52285 0.0
O887 O 0.56912 0.5479 0.49353 0.0
C888 C 0.68228 0.62415 0.60986 0.0
C889 C 0.73889 0.61081 0.60674 0.0
C890 C 0.71871 0.60999 0.57788 0.0
C891 C 0.69065 0.61651 0.57945 0.0
C892 C 0.70334 0.62763 0.63876 0.0
C893 C 0.7316 0.62104 0.63722 0.0
C894 C 0.64995 0.62318 0.61122 0.0
C895 C 0.53383 0.56955 0.60106 0.0
C896 C 0.5788 0.51364 0.55992 0.0
C897 C 0.44861 0.51127 0.49163 0.0
C898 C 0.39228 0.52254 0.50148 0.0
C899 C 0.41416 0.52172 0.52824 0.0
C900 C 0.44202 0.51613 0.52333 0.0
C901 C 0.4257 0.50877 0.46462 0.0
C902 C 0.39749 0.51411 0.4695 0.0
C903 C 0.48089 0.5148 0.4875 0.0
H904 H 0.72314 0.60167 0.55397 0.0
H905 H 0.67454 0.61336 0.55684 0.0
H906 H 0.6971 0.63345 0.66244 0.0
H907 H 0.74677 0.62209 0.65982 0.0
H908 H 0.41141 0.52843 0.55326 0.0
H909 H 0.45944 0.51824 0.54455 0.0
H910 H 0.4305 0.50495 0.43996 0.0
H911 H 0.38083 0.51388 0.44835 0.0
Dy912 Dy 0.04687 0.57096 0.06283 0.0
Dy913 Dy 0.11384 0.58426 0.02344 0.0
C914 C 0.05553 0.58386 0.98541 0.0
O915 O 0.04858 0.52132 0.0456 0.0
O916 O 0.09181 0.53096 0.0193 0.0
O917 O 0.997 0.5524 0.04642 0.0
O918 O 1.01607 0.57728 0.09673 0.0
O919 O 0.11756 0.59284 0.07753 0.0
O920 O 0.08095 0.55851 0.09683 0.0
O921 O 0.10637 0.63244 0.0356 0.0
O922 O 0.06998 0.6247 0.07117 0.0
O923 O 0.16395 0.60341 0.03845 0.0
O924 O 0.14438 0.57624 0.9897 0.0
C925 C 0.06808 0.51135 0.0289 0.0
O926 O 0.05242 0.57904 0.01446 0.0
O927 O 0.08359 0.58914 0.97918 0.0
C928 C 0.96884 0.58329 0.07112 0.0
C929 C 0.92608 0.61854 0.06612 0.0
C930 C 0.95567 0.6296 0.0574 0.0
C931 C 0.97688 0.61209 0.05986 0.0
C932 C 0.93925 0.57193 0.07932 0.0
C933 C 0.91805 0.58938 0.07688 0.0
C934 C 0.99096 0.56476 0.07407 0.0
C935 C 0.11027 0.57048 0.09466 0.0
C936 C 0.09031 0.64339 0.0565 0.0
C937 C 0.18945 0.56825 0.01693 0.0
C938 C 0.22616 0.52715 0.02413 0.0
C939 C 0.19706 0.521 0.03449 0.0
C940 C 0.1789 0.54139 0.03094 0.0
C941 C 0.21865 0.57491 0.00719 0.0
C942 C 0.2369 0.55456 0.01079 0.0
C943 C 0.16958 0.58876 0.0119 0.0
H944 H 0.96267 0.65203 0.04924 0.0
H945 H 0.9996 0.6211 0.05319 0.0
H946 H 0.93253 0.54956 0.08766 0.0
H947 H 0.89526 0.5799 0.08319 0.0
H948 H 0.18792 0.50001 0.04457 0.0
H949 H 0.15638 0.53594 0.03871 0.0
H950 H 0.22722 0.59567 0.99654 0.0
H951 H 0.25944 0.56031 1.00311 0.0
C952 C 0.07315 0.22301 0.04101 0.0
C953 C 0.04859 0.22415 0.01716 0.0
H954 H 0.09515 0.19517 0.06774 0.0
C955 C 1.02587 0.19489 1.00252 0.0
H956 H 0.09126 0.24466 0.05299 0.0
C957 C 1.02843 0.16569 0.01075 0.0
C958 C 0.05351 0.16477 0.03434 0.0
H959 H 1.00675 0.19437 0.98379 0.0
H960 H 1.01097 0.14379 0.99828 0.0
C961 C 0.0754 0.19423 0.04956 0.0
C962 C 0.21647 0.85335 0.19705 0.0
C963 C 0.1858 0.84093 0.20284 0.0
H964 H 0.26581 0.86184 0.21378 0.0
C965 C 0.18219 0.82878 0.23176 0.0
H966 H 0.22023 0.86272 0.17497 0.0
C967 C 0.20801 0.82845 0.2539 0.0
C968 C 0.23869 0.84005 0.24804 0.0
H969 H 0.15911 0.81914 0.23736 0.0
H970 H 0.20369 0.81854 0.27558 0.0
C971 C 0.24261 0.85275 0.21931 0.0
C972 C 0.51511 0.9142 0.54188 0.0
C973 C 0.53159 0.89863 0.52244 0.0
H974 H 0.5094 0.95833 0.56357 0.0
C975 C 0.55625 0.9177 0.5101 0.0
H976 H 0.49583 0.90049 0.55167 0.0
C977 C 0.56347 0.9511 0.51615 0.0
C978 C 0.54684 0.96667 0.53546 0.0
H979 H 0.56922 0.90678 0.49463 0.0
H980 H 0.58202 0.96466 0.50542 0.0
C981 C 0.52286 0.94755 0.54864 0.0
C982 C 0.5101 0.28658 0.6601 0.0
C983 C 0.53706 0.31299 0.6662 0.0
H984 H 0.46899 0.26206 0.67689 0.0
C985 C 0.54307 0.33534 0.6953 0.0
H986 H 0.50474 0.26885 0.63797 0.0
C987 C 0.52241 0.33144 0.71763 0.0
C988 C 0.49552 0.30492 0.71152 0.0
H989 H 0.56363 0.35593 0.70075 0.0
H990 H 0.52765 0.34901 0.73986 0.0
C991 C 0.48968 0.28252 0.68253 0.0
C992 C 0.05487 0.84871 0.6522 0.0
C993 C 0.05806 0.86012 0.68591 0.0
H994 H 0.05633 0.86017 0.60434 0.0
C995 C 0.06519 0.89292 0.69699 0.0
H996 H 0.04943 0.82358 0.64284 0.0
C997 C 0.06915 0.91383 0.67496 0.0
C998 C 0.06622 0.90251 0.64129 0.0
H999 H 0.06791 0.90256 0.72278 0.0
H1000 H 0.07508 0.939 0.68442 0.0
C1001 C 0.05902 0.86968 0.63016 0.0
C1002 C 0.47093 0.86648 0.82803 0.0
C1003 C 0.48017 0.8408 0.83744 0.0
H1004 H 0.43252 0.88462 0.81332 0.0
C1005 C 0.45616 0.81271 0.83693 0.0
H1006 H 0.48851 0.88872 0.8285 0.0
C1007 C 0.42441 0.81033 0.82833 0.0
C1008 C 0.41473 0.83608 0.82006 0.0
H1009 H 0.4619 0.79232 0.84395 0.0
H1010 H 0.40733 0.78808 0.82894 0.0
C1011 C 0.43867 0.86419 0.81958 0.0
C1012 C 0.55322 0.17505 0.17835 0.0
C1013 C 0.5446 0.19781 0.16229 0.0
H1014 H 0.56389 0.13068 0.17328 0.0
C1015 C 0.5385 0.19163 0.12784 0.0
H1016 H 0.55839 0.17913 0.20484 0.0
C1017 C 0.54134 0.16399 0.10988 0.0
C1018 C 0.55093 0.14162 0.12566 0.0
H1019 H 0.53182 0.2085 0.11454 0.0
H1020 H 0.53672 0.16061 0.0834 0.0
C1021 C 0.55662 0.1474 0.16023 0.0
C1022 C 0.19309 0.36898 0.33588 0.0
C1023 C 0.16833 0.34223 0.3382 0.0
H1024 H 0.24041 0.38689 0.3266 0.0
C1025 C 0.1734 0.31246 0.331 0.0
H1026 H 0.19065 0.39245 0.34156 0.0
C1027 C 0.20159 0.30925 0.3224 0.0
C1028 C 0.22683 0.33568 0.3208 0.0
H1029 H 0.1554 0.2911 0.33238 0.0
H1030 H 0.20364 0.28555 0.31751 0.0
C1031 C 0.22192 0.36577 0.32753 0.0
C1032 C 0.04569 0.11042 0.20039 0.0
C1033 C 1.0217 0.08498 0.20581 0.0
H1034 H 0.07332 0.1302 0.16637 0.0
C1035 C 1.00574 0.06016 0.1793 0.0
H1036 H 0.05836 0.12996 0.22022 0.0
C1037 C 1.0138 0.06071 0.14812 0.0
C1038 C 0.03844 0.08573 0.14303 0.0
H1039 H 0.98693 0.04037 0.18261 0.0
H1040 H 1.00146 0.04104 0.12831 0.0
C1041 C 0.0542 0.1106 0.1695 0.0
C1042 C 0.27102 0.73524 0.54263 0.0
C1043 C 0.29609 0.72245 0.54269 0.0
H1044 H 0.2444 0.76092 0.51843 0.0
C1045 C 0.31541 0.72827 0.51925 0.0
H1046 H 0.25571 0.73115 0.56043 0.0
C1047 C 0.30908 0.74554 0.49543 0.0
C1048 C 0.28317 0.75713 0.49443 0.0
H1049 H 0.3351 0.719 0.51888 0.0
H1050 H 0.32429 0.74948 0.47752 0.0
C1051 C 0.26458 0.75239 0.51867 0.0
C1052 C 0.6238 0.03492 0.6876 0.0
C1053 C 0.65579 0.03818 0.68974 0.0
H1054 H 0.58287 0.03972 0.6598 0.0
C1055 C 0.67059 0.04637 0.66339 0.0
H1056 H 0.61184 0.02885 0.70763 0.0
C1057 C 0.65392 0.05242 0.63587 0.0
C1058 C 0.62242 0.05102 0.63467 0.0
H1059 H 0.69527 0.04907 0.66451 0.0
H1060 H 0.66597 0.05933 0.61614 0.0
C1061 C 0.60734 0.04159 0.66043 0.0
C1062 C 0.36556 0.34952 0.95192 0.0
C1063 C 0.33968 0.35123 0.96665 0.0
H1064 H 0.38285 0.34077 0.90741 0.0
C1065 C 0.31019 0.34322 0.94649 0.0
H1066 H 0.38866 0.35553 0.96662 0.0
C1067 C 0.30688 0.33474 0.91242 0.0
C1068 C 0.33299 0.33416 0.89761 0.0
H1069 H 0.28976 0.34433 0.95691 0.0
H1070 H 0.2839 0.32938 0.89764 0.0
C1071 C 0.36228 0.34115 0.91787 0.0
C1072 C 1.02528 0.08127 0.40216 0.0
C1073 C 1.02826 0.05467 0.38206 0.0
H1074 H 0.02907 0.10564 0.45105 0.0
C1075 C 0.03953 0.03275 0.39695 0.0
H1076 H 1.01652 0.09854 0.39156 0.0
C1077 C 0.04694 0.03694 0.43114 0.0
C1078 C 0.04271 0.06285 0.45123 0.0
H1079 H 0.04207 1.01199 0.38219 0.0
H1080 H 0.05513 0.01938 0.44182 0.0
C1081 C 0.03219 0.08517 0.43632 0.0
C1082 C 0.35609 0.75727 0.67564 0.0
C1083 C 0.34583 0.72422 0.67312 0.0
H1084 H 0.3562 0.80226 0.70093 0.0
C1085 C 0.32895 0.71128 0.69635 0.0
H1086 H 0.36905 0.76798 0.65806 0.0
C1087 C 0.32133 0.73091 0.72077 0.0
C1088 C 0.33039 0.76388 0.7224 0.0
H1089 H 0.32074 0.68588 0.69508 0.0
H1090 H 0.30797 0.72015 0.73806 0.0
C1091 C 0.34838 0.7769 0.7 0.0
C1092 C 0.63628 0.10631 0.82671 0.0
C1093 C 0.65329 0.08437 0.82682 0.0
H1094 H 0.60725 0.12853 0.85151 0.0
C1095 C 0.65201 0.06605 0.85144 0.0
H1096 H 0.6368 0.12076 0.808 0.0
C1097 C 0.63501 0.07042 0.87617 0.0
C1098 C 0.61905 0.09327 0.87684 0.0
H1099 H 0.66464 0.04876 0.85203 0.0
H1100 H 0.63463 0.05612 0.89501 0.0
C1101 C 0.6193 0.11073 0.85153 0.0
C1102 C 0.33233 0.3719 0.16735 0.0
C1103 C 0.30421 0.36239 0.14456 0.0
H1104 H 0.35483 0.37285 0.2159 0.0
C1105 C 0.27651 0.34594 0.15424 0.0
H1106 H 0.35404 0.38484 0.16083 0.0
C1107 C 0.27699 0.33883 0.18578 0.0
C1108 C 0.30509 0.34849 0.20861 0.0
H1109 H 0.25443 0.33833 0.13734 0.0
H1110 H 0.25531 0.32578 0.19227 0.0
C1111 C 0.33272 0.36527 0.19905 0.0
C1112 C 0.28661 0.05137 0.11197 0.0
C1113 C 0.29541 0.04368 0.08179 0.0
H1114 H 0.26399 0.07941 0.13941 0.0
C1115 C 0.29413 0.06295 0.05834 0.0
H1116 H 0.28773 0.03693 0.13051 0.0
C1117 C 0.28163 0.08793 0.06381 0.0
C1118 C 0.26928 0.09339 0.09237 0.0
H1119 H 0.30163 0.05789 0.03519 0.0
H1120 H 0.27962 0.10155 0.04466 0.0
C1121 C 0.27335 0.07594 0.11716 0.0
C1122 C 0.6748 0.66063 0.99912 0.0
C1123 C 0.70373 0.6615 0.01664 0.0
H1124 H 0.62523 0.64028 0.99045 0.0
C1125 C 0.70449 0.64002 0.03807 0.0
H1126 H 0.67335 0.67666 0.9823 0.0
C1127 C 0.67671 0.61882 0.04262 0.0
C1128 C 0.64774 0.619 0.02607 0.0
H1129 H 0.72647 0.63999 0.05181 0.0
H1130 H 0.67785 0.60314 0.05989 0.0
C1131 C 0.64717 0.63975 1.00387 0.0
C1132 C 0.71997 0.52569 0.29439 0.0
C1133 C 0.68883 0.5108 0.2969 0.0
H1134 H 0.76447 0.5203 0.28849 0.0
C1135 C 0.67826 0.47767 0.29323 0.0
H1136 H 0.72889 0.55122 0.29719 0.0
C1137 C 0.69862 0.45983 0.28764 0.0
C1138 C 0.73002 0.47481 0.28596 0.0
H1139 H 0.65431 0.46551 0.29471 0.0
H1140 H 0.68975 0.43429 0.28476 0.0
C1141 C 0.74036 0.50793 0.28912 0.0
C1142 C 0.92554 0.58221 0.52016 0.0
C1143 C 0.90647 0.55145 0.50556 0.0
H1144 H 0.97254 0.61284 0.5362 0.0
C1145 C 0.91985 0.5299 0.4899 0.0
H1146 H 0.91581 0.59938 0.53216 0.0
C1147 C 0.9521 0.53733 0.49289 0.0
C1148 C 0.97131 0.56671 0.51071 0.0
H1149 H 0.90566 0.50622 0.47783 0.0
H1150 H 0.96207 0.51942 0.48293 0.0
C1151 C 0.95794 0.58988 0.52258 0.0
C1152 C 0.33105 0.09672 0.28605 0.0
C1153 C 0.36192 0.10981 0.2817 0.0
H1154 H 0.28359 0.09667 0.27546 0.0
C1155 C 0.36811 0.13083 0.25991 0.0
H1156 H 0.32562 0.07972 0.30208 0.0
C1157 C 0.34418 0.14107 0.24518 0.0
C1158 C 0.31361 0.12993 0.25159 0.0
H1159 H 0.39174 0.14094 0.25596 0.0
H1160 H 0.35026 0.15948 0.23084 0.0
C1161 C 0.30701 0.10634 0.27073 0.0
C1162 C 0.37447 0.15876 0.54248 0.0
C1163 C 0.35899 0.16724 0.56762 0.0
H1164 H 0.40697 0.13521 0.52766 0.0
C1165 C 0.36512 0.15828 0.59801 0.0
H1166 H 0.37011 0.16514 0.51872 0.0
C1167 C 0.38645 0.14139 0.60324 0.0
C1168 C 0.40205 0.13298 0.57816 0.0
H1169 H 0.35365 0.16454 0.61793 0.0
H1170 H 0.39113 0.13542 0.62715 0.0
C1171 C 0.39571 0.14174 0.54767 0.0
C1172 C 0.69664 0.70986 0.30178 0.0
C1173 C 0.70439 0.68544 0.31512 0.0
H1174 H 0.71296 0.7537 0.28596 0.0
C1175 C 0.73614 0.68783 0.32437 0.0
H1176 H 0.67246 0.70875 0.29432 0.0
C1177 C 0.75965 0.7139 0.31965 0.0
C1178 C 0.75176 0.73784 0.30537 0.0
H1179 H 0.74283 0.66932 0.33471 0.0
H1180 H 0.78389 0.71507 0.32677 0.0
C1181 C 0.72 0.73562 0.2968 0.0
C1182 C 0.85829 0.47306 0.7816 0.0
C1183 C 0.85344 0.49176 0.80908 0.0
H1184 H 0.85643 0.4265 0.75877 0.0
C1185 C 0.84034 0.47746 0.83371 0.0
H1186 H 0.86893 0.48379 0.76262 0.0
C1187 C 0.8327 0.44469 0.83117 0.0
C1188 C 0.83925 0.4263 0.80462 0.0
H1189 H 0.83683 0.49169 0.85521 0.0
H1190 H 0.82306 0.43392 0.85062 0.0
C1191 C 0.85162 0.44051 0.77962 0.0
C1192 C 0.08469 0.93744 0.07828 0.0
C1193 C 0.11372 0.9411 0.09802 0.0
H1194 H 0.05425 0.95991 0.05361 0.0
C1195 C 0.13503 0.97212 0.10625 0.0
H1196 H 0.06739 0.91429 0.07149 0.0
C1197 C 0.12767 0.99831 0.09573 0.0
C1198 C 0.09837 0.99498 0.07685 0.0
H1199 H 0.15765 0.97638 0.12135 0.0
H1200 H 0.14489 0.02147 0.10319 0.0
C1201 C 0.07709 0.96388 0.06812 0.0
C1202 C 0.91934 0.32992 0.9265 0.0
C1203 C 0.94159 0.31491 0.91825 0.0
H1204 H 0.87988 0.34483 0.90992 0.0
C1205 C 0.93985 0.30268 0.88495 0.0
H1206 H 0.91974 0.33963 0.95179 0.0
C1207 C 0.91685 0.3059 0.86064 0.0
C1208 C 0.89491 0.32136 0.86897 0.0
H1209 H 0.95658 0.2911 0.87756 0.0
H1210 H 0.91643 0.29643 0.83528 0.0
C1211 C 0.89639 0.33302 0.90233 0.0
C1212 C 0.58015 0.22081 0.57982 0.0
C1213 C 0.61103 0.2394 0.57993 0.0
H1214 H 0.54806 0.17396 0.57562 0.0
C1215 C 0.63309 0.22311 0.57462 0.0
H1216 H 0.56245 0.2322 0.58413 0.0
C1217 C 0.62493 0.1898 0.56983 0.0
C1218 C 0.59432 0.17112 0.57037 0.0
H1219 H 0.65713 0.2362 0.57454 0.0
H1220 H 0.64294 0.1787 0.56607 0.0
C1221 C 0.57196 0.18725 0.5752 0.0
C1222 C 0.60385 0.80725 0.4007 0.0
C1223 C 0.60851 0.82982 0.42936 0.0
H1224 H 0.62056 0.79414 0.35679 0.0
C1225 C 0.6347 0.85706 0.43553 0.0
H1226 H 0.58394 0.78602 0.39517 0.0
C1227 C 0.65549 0.8618 0.41346 0.0
C1228 C 0.65083 0.8393 0.38477 0.0
H1229 H 0.63909 0.87498 0.45733 0.0
H1230 H 0.67546 0.88299 0.41907 0.0
C1231 C 0.62488 0.81185 0.37876 0.0
C1232 C 0.06639 0.28006 0.43293 0.0
C1233 C 0.06901 0.31106 0.44803 0.0
H1234 H 0.05788 0.23151 0.43783 0.0
C1235 C 0.06567 0.31665 0.48102 0.0
H1236 H 0.0687 0.27489 0.40751 0.0
C1237 C 0.05974 0.29185 0.49848 0.0
C1238 C 0.05684 0.26076 0.48339 0.0
H1239 H 0.06768 0.34025 0.49348 0.0
H1240 H 0.05779 0.29718 0.524 0.0
C1241 C 0.06032 0.25519 0.45039 0.0
C1242 C 0.6606 0.26448 0.29291 0.0
C1243 C 0.64619 0.28488 0.27871 0.0
H1244 H 0.70318 0.2552 0.31125 0.0
C1245 C 0.66607 0.31325 0.2728 0.0
H1246 H 0.64636 0.24236 0.29781 0.0
C1247 C 0.69909 0.32033 0.2799 0.0
C1248 C 0.7134 0.29961 0.29375 0.0
H1249 H 0.65614 0.32947 0.26159 0.0
H1250 H 0.71344 0.3421 0.2744 0.0
C1251 C 0.69343 0.27184 0.30062 0.0
C1252 C 0.59143 0.96414 0.9511 0.0
C1253 C 0.57747 0.93305 0.9555 0.0
H1254 H 0.60135 0.01398 0.96927 0.0
C1255 C 0.56406 0.92899 0.98369 0.0
H1256 H 0.60188 0.96819 0.92968 0.0
C1257 C 0.56399 0.9551 0.00649 0.0
C1258 C 0.57701 0.98619 1.00168 0.0
H1259 H 0.5532 0.90545 0.98806 0.0
H1260 H 0.55299 0.9508 0.02754 0.0
C1261 C 0.59101 0.99039 0.9738 0.0
C1262 C 0.9532 0.80395 0.78356 0.0
C1263 C 0.95075 0.78107 0.75555 0.0
H1264 H 0.92933 0.82852 0.81456 0.0
C1265 C 0.92008 0.76429 0.73856 0.0
H1266 H 0.97607 0.81766 0.79739 0.0
C1267 C 0.89327 0.77037 0.74843 0.0
C1268 C 0.89553 0.79379 0.77576 0.0
H1269 H 0.91661 0.74637 0.71698 0.0
H1270 H 0.87058 0.75687 0.73401 0.0
C1271 C 0.92615 0.81026 0.79337 0.0
C1272 C 0.10461 0.03649 0.91137 0.0
C1273 C 0.12189 0.06354 0.90094 0.0
H1274 H 0.08336 0.01739 0.94984 0.0
C1275 C 0.13191 0.09271 0.92296 0.0
H1276 H 0.09658 0.01362 0.8951 0.0
C1277 C 0.12475 0.09478 0.95458 0.0
C1278 C 0.10703 0.06782 0.96482 0.0
H1279 H 0.14547 0.11398 0.91585 0.0
H1280 H 0.13265 0.11768 0.97079 0.0
C1281 C 0.09708 0.03864 0.94282 0.0
C1282 C 0.87813 0.46302 0.62958 0.0
C1283 C 0.89198 0.46215 0.60156 0.0
H1284 H 0.87335 0.44687 0.6746 0.0
C1285 C 0.91581 0.44779 0.59998 0.0
H1286 H 0.86008 0.47444 0.63167 0.0
C1287 C 0.92339 0.43178 0.62464 0.0
C1288 C 0.90768 0.43052 0.65144 0.0
H1289 H 0.92714 0.44716 0.57879 0.0
H1290 H 0.94046 0.41918 0.62204 0.0
C1291 C 0.88601 0.4475 0.65436 0.0
C1292 C 0.45764 0.09091 0.47114 0.0
C1293 C 0.46484 0.10586 0.4447 0.0
H1294 H 0.47344 0.06914 0.50913 0.0
C1295 C 0.49591 0.11404 0.43915 0.0
H1296 H 0.4341 0.0845 0.47634 0.0
C1297 C 0.51867 0.10506 0.45804 0.0
C1298 C 0.51062 0.08766 0.48258 0.0
H1299 H 0.50226 0.12585 0.41909 0.0
H1300 H 0.54214 0.11063 0.4526 0.0
C1301 C 0.48019 0.08167 0.48966 0.0
C1302 C 0.77177 0.79304 0.13647 0.0
C1303 C 0.793 0.7798 0.12241 0.0
H1304 H 0.7594 0.81308 0.18069 0.0
C1305 C 0.81953 0.77846 0.14302 0.0
H1306 H 0.7511 0.79446 0.12129 0.0
C1307 C 0.82389 0.78851 0.17691 0.0
C1308 C 0.80219 0.80075 0.19113 0.0
H1309 H 0.83634 0.76838 0.13316 0.0
H1310 H 0.84415 0.78623 0.1921 0.0
C1311 C 0.7765 0.80374 0.17048 0.0
C1312 C 0.09375 0.06762 0.70638 0.0
C1313 C 0.10436 0.09797 0.72618 0.0
H1314 H 0.07616 0.03998 0.65817 0.0
C1315 C 0.10345 0.12423 0.71152 0.0
H1316 H 0.09413 0.04686 0.71676 0.0
C1317 C 0.0933 0.12033 0.6777 0.0
C1318 C 0.0837 0.09007 0.65775 0.0
H1319 H 0.11154 0.14799 0.72597 0.0
H1320 H 0.09363 0.14113 0.66712 0.0
C1321 C 0.08351 0.06371 0.67265 0.0
C1322 C 0.81136 0.37378 0.46414 0.0
C1323 C 0.80158 0.40106 0.46572 0.0
H1324 H 0.82054 0.33612 0.43354 0.0
C1325 C 0.78985 0.40906 0.43645 0.0
H1326 H 0.82035 0.36685 0.48624 0.0
C1327 C 0.7902 0.39159 0.40623 0.0
C1328 C 0.80213 0.36568 0.40467 0.0
H1329 H 0.78196 0.42983 0.43679 0.0
H1330 H 0.78219 0.39917 0.38414 0.0
C1331 C 0.81163 0.35624 0.4339 0.0
C1332 C 0.51582 0.0561 0.31327 0.0
C1333 C 0.4832 0.04982 0.30731 0.0
H1334 H 0.5562 0.05324 0.29286 0.0
C1335 C 0.46572 0.03192 0.27708 0.0
H1336 H 0.52981 0.06964 0.33649 0.0
C1337 C 0.48071 0.02225 0.25248 0.0
C1338 C 0.51345 0.03048 0.25755 0.0
H1339 H 0.44047 0.02616 0.27201 0.0
H1340 H 0.46675 1.00941 0.22898 0.0
C1341 C 0.53089 0.04652 0.28847 0.0
C1342 C 0.84518 0.78439 0.93874 0.0
C1343 C 0.81962 0.76146 0.94543 0.0
H1344 H 0.86425 0.81137 0.90389 0.0
C1345 C 0.79379 0.74637 0.92005 0.0
H1346 H 0.86548 0.79638 0.95763 0.0
C1347 C 0.79348 0.75437 0.88877 0.0
C1348 C 0.81868 0.77811 0.88258 0.0
H1349 H 0.77386 0.72836 0.92435 0.0
H1350 H 0.77307 0.74292 0.86987 0.0
C1351 C 0.84454 0.79287 0.90788 0.0
C1352 C 0.84952 0.10187 0.99348 0.0
C1353 C 0.84899 0.10952 0.02706 0.0
H1354 H 0.86711 0.07667 0.95672 0.0
C1355 C 0.86315 0.09463 0.04913 0.0
H1356 H 0.8386 0.11291 0.97593 0.0
C1357 C 0.87887 0.07365 0.03811 0.0
C1358 C 0.88103 0.06739 0.00485 0.0
H1359 H 0.8628 0.09981 0.07509 0.0
H1360 H 0.89089 0.06374 0.05596 0.0
C1361 C 0.8657 0.08115 0.98248 0.0
C1362 C 0.43417 0.46353 0.05407 0.0
C1363 C 0.41423 0.47808 0.06876 0.0
H1364 H 0.47775 0.46962 0.03751 0.0
C1365 C 0.42397 0.51122 0.07849 0.0
H1366 H 0.42741 0.43805 0.04624 0.0
C1367 C 0.45295 0.52943 0.07338 0.0
C1368 C 0.47273 0.51487 0.05836 0.0
H1369 H 0.40912 0.52315 0.08982 0.0
H1370 H 0.45975 0.55493 0.08109 0.0
C1371 C 0.46304 0.4817 0.04891 0.0
C1372 C 0.40725 0.62377 0.85093 0.0
C1373 C 0.41373 0.61507 0.81966 0.0
H1374 H 0.38505 0.65078 0.88038 0.0
C1375 C 0.40093 0.62634 0.79324 0.0
H1376 H 0.41687 0.61551 0.87181 0.0
C1377 C 0.38214 0.64601 0.79801 0.0
C1378 C 0.37609 0.65528 0.82942 0.0
H1379 H 0.40519 0.61973 0.76877 0.0
H1380 H 0.37226 0.65386 0.77698 0.0
C1381 C 0.38878 0.64378 0.85579 0.0
C1382 C 0.21062 0.59956 0.562 0.0
C1383 C 0.22353 0.60712 0.59555 0.0
H1384 H 0.16943 0.58693 0.52571 0.0
C1385 C 0.20358 0.60441 0.61867 0.0
H1386 H 0.22536 0.60094 0.54352 0.0
C1387 C 0.17125 0.59613 0.60831 0.0
C1388 C 0.1587 0.59072 0.57479 0.0
H1389 H 0.21293 0.60999 0.64467 0.0
H1390 H 0.15629 0.59539 0.62654 0.0
C1391 C 0.17856 0.5916 0.55174 0.0
C1392 C 0.82081 0.05195 0.8049 0.0
C1393 C 0.80111 0.05564 0.82731 0.0
H1394 H 0.85691 0.03251 0.79306 0.0
C1395 C 0.80615 0.04702 0.85793 0.0
H1396 H 0.81774 0.0593 0.78146 0.0
C1397 C 0.82799 0.03094 0.86429 0.0
C1398 C 0.84528 0.0239 0.84022 0.0
H1399 H 0.79132 0.05007 0.87566 0.0
H1400 H 0.829 0.02143 0.88662 0.0
C1401 C 0.84321 0.03674 0.8116 0.0
C1402 C 0.76572 0.9765 0.53981 0.0
C1403 C 0.75415 0.94383 0.52684 0.0
H1404 H 0.75737 0.02161 0.54355 0.0
C1405 C 0.72451 0.93178 0.50665 0.0
H1406 H 0.78852 0.98658 0.55533 0.0
C1407 C 0.70671 0.95189 0.49988 0.0
C1408 C 0.71827 0.98454 0.51291 0.0
H1409 H 0.71495 0.90677 0.49612 0.0
H1410 H 0.68393 0.9419 0.48429 0.0
C1411 C 0.74802 0.99664 0.53281 0.0
C1412 C 0.423 0.43228 0.7559 0.0
C1413 C 0.41812 0.46113 0.76784 0.0
H1414 H 0.40821 0.38201 0.75175 0.0
C1415 C 0.39277 0.46078 0.78416 0.0
H1416 H 0.44226 0.43171 0.74322 0.0
C1417 C 0.37317 0.43222 0.78912 0.0
C1418 C 0.3786 0.40345 0.77797 0.0
H1419 H 0.38832 0.48263 0.79361 0.0
H1420 H 0.35415 0.43278 0.80219 0.0
C1421 C 0.4035 0.40378 0.76095 0.0
C1422 C 0.25678 0.67918 0.28907 0.0
C1423 C 0.26928 0.66652 0.26325 0.0
H1424 H 0.25466 0.72103 0.31928 0.0
C1425 C 0.28881 0.68701 0.24706 0.0
H1426 H 0.24175 0.66382 0.30208 0.0
C1427 C 0.2956 0.71975 0.25647 0.0
C1428 C 0.28357 0.73234 0.28272 0.0
H1429 H 0.29862 0.67774 0.22705 0.0
H1430 H 0.31083 0.73521 0.24372 0.0
C1431 C 0.26419 0.71184 0.29899 0.0
C1432 C 0.56976 0.71653 0.54247 0.0
C1433 C 0.54631 0.71898 0.51807 0.0
H1434 H 0.58994 0.68674 0.56836 0.0
C1435 C 0.52388 0.69031 0.50137 0.0
H1436 H 0.5876 0.73771 0.55599 0.0
C1437 C 0.52561 0.66045 0.50816 0.0
C1438 C 0.54946 0.65816 0.53236 0.0
H1439 H 0.50561 0.69082 0.48219 0.0
H1440 H 0.50838 0.63908 0.49414 0.0
C1441 C 0.57112 0.68696 0.54966 0.0
C1442 C 0.72001 0.34771 0.6826 0.0
C1443 C 0.69012 0.33003 0.68677 0.0
H1444 H 0.76993 0.3609 0.69914 0.0
C1445 C 0.68836 0.31144 0.71126 0.0
H1446 H 0.72232 0.36216 0.66388 0.0
C1447 C 0.7153 0.31071 0.7312 0.0
C1448 C 0.74523 0.32841 0.72745 0.0
H1449 H 0.66596 0.29737 0.71533 0.0
H1450 H 0.7125 0.29612 0.7498 0.0
C1451 C 0.74731 0.34681 0.70266 0.0
C1452 C 0.07351 0.43174 0.98601 0.0
C1453 C 0.05285 0.40899 0.99936 0.0
H1454 H 0.09471 0.48069 0.98475 0.0
C1455 C 0.03795 0.42031 0.02385 0.0
H1456 H 0.08546 0.42418 0.96709 0.0
C1457 C 0.04282 0.45331 0.03368 0.0
C1458 C 0.06316 0.476 0.01973 0.0
H1459 H 1.02159 0.40368 0.03447 0.0
H1460 H 0.03039 0.46101 0.05202 0.0
C1461 C 0.0788 0.46444 0.99617 0.0
C1462 C 0.03717 0.8362 0.20076 0.0
C1463 C 0.03172 0.81565 0.17048 0.0
H1464 H 1.02034 0.84732 0.24511 0.0
C1465 C 1.00421 0.78977 0.16206 0.0
H1466 H 0.05814 0.8563 0.20805 0.0
C1467 C 0.98269 0.78454 0.18332 0.0
C1468 C 0.98797 0.80517 0.21348 0.0
H1469 H 0.99923 0.7734 0.13898 0.0
H1470 H 0.9616 0.76458 0.17586 0.0
C1471 C 1.01546 0.83111 0.22194 0.0
C1472 C 0.59857 0.38167 0.18225 0.0
C1473 C 0.57198 0.35557 0.18021 0.0
H1474 H 0.62117 0.42081 0.16102 0.0
C1475 C 0.54706 0.34931 0.15385 0.0
H1476 H 0.61822 0.3873 0.20217 0.0
C1477 C 0.54874 0.36878 0.13021 0.0
C1478 C 0.57553 0.39467 0.13215 0.0
H1479 H 0.52622 0.32944 0.15153 0.0
H1480 H 0.52925 0.36331 0.11014 0.0
C1481 C 0.60038 0.40083 0.1585 0.0
C1482 C 0.96284 0.32613 0.33183 0.0
C1483 C 0.98235 0.35669 0.34704 0.0
H1484 H 0.91564 0.29532 0.31422 0.0
C1485 C 0.96775 0.3803 0.35427 0.0
H1486 H 0.97294 0.30709 0.3266 0.0
C1487 C 0.93498 0.37374 0.3469 0.0
C1488 C 0.91524 0.34298 0.33288 0.0
H1489 H 0.9818 0.40398 0.36649 0.0
H1490 H 0.92504 0.39269 0.35331 0.0
C1491 C 0.92981 0.31932 0.32514 0.0
C1492 C 0.03765 0.67522 0.66072 0.0
C1493 C 0.05851 0.70563 0.66216 0.0
H1494 H 1.02225 0.62578 0.63769 0.0
C1495 C 0.08047 0.70868 0.64102 0.0
H1496 H 1.02046 0.67187 0.67665 0.0
C1497 C 0.0815 0.68263 0.61897 0.0
C1498 C 0.06065 0.65224 0.61707 0.0
H1499 H 0.09707 0.73148 0.64123 0.0
H1500 H 0.09881 0.68653 0.60321 0.0
C1501 C 0.03876 0.64878 0.63845 0.0
C1502 C 0.69341 0.86992 0.839 0.0
C1503 C 0.66751 0.84271 0.83703 0.0
H1504 H 0.7418 0.88861 0.8332 0.0
C1505 C 0.67175 0.8132 0.82583 0.0
H1506 H 0.69157 0.89318 0.84778 0.0
C1507 C 0.70018 0.81058 0.81752 0.0
C1508 C 0.72651 0.83732 0.82011 0.0
H1509 H 0.65287 0.7915 0.8237 0.0
H1510 H 0.70145 0.78696 0.8094 0.0
C1511 C 0.72247 0.86726 0.83082 0.0
C1512 C 0.52181 0.57037 0.68923 0.0
C1513 C 0.48921 0.5631 0.68624 0.0
H1514 H 0.56124 0.57829 0.66511 0.0
C1515 C 0.47121 0.55853 0.65484 0.0
H1516 H 0.53644 0.57412 0.71294 0.0
C1517 C 0.48548 0.56092 0.62711 0.0
C1518 C 0.51812 0.56798 0.63016 0.0
H1519 H 0.446 0.55293 0.65159 0.0
H1520 H 0.47093 0.55702 0.60333 0.0
C1521 C 0.53604 0.57281 0.66164 0.0
C1522 C 0.7804 0.26282 0.03779 0.0
C1523 C 0.80764 0.25359 0.04265 0.0
H1524 H 0.75303 0.28371 0.00768 0.0
C1525 C 0.83083 0.26316 0.02389 0.0
H1526 H 0.76219 0.25581 0.05205 0.0
C1527 C 0.82583 0.27958 0.99893 0.0
C1528 C 0.79733 0.28622 0.99199 0.0
H1529 H 0.85228 0.2568 0.02758 0.0
H1530 H 0.84368 0.28578 0.98405 0.0
C1531 C 0.7752 0.2789 0.01248 0.0
C1532 C 0.19055 0.57646 0.13762 0.0
C1533 C 0.18354 0.55548 0.15937 0.0
H1534 H 0.17275 0.59821 0.10076 0.0
C1535 C 0.15233 0.53716 0.15756 0.0
H1536 H 0.21432 0.59092 0.13841 0.0
C1537 C 0.12835 0.54146 0.13597 0.0
C1538 C 0.13528 0.56416 0.116 0.0
H1539 H 0.14628 0.52061 0.17392 0.0
H1540 H 0.10442 0.52772 0.13565 0.0
C1541 C 0.16662 0.58085 0.11624 0.0
C1542 C 0.86318 0.85598 0.45135 0.0
C1543 C 0.83786 0.8581 0.46686 0.0
H1544 H 0.87911 0.8464 0.40615 0.0
C1545 C 0.80796 0.84996 0.44749 0.0
H1546 H 0.88655 0.86205 0.46546 0.0
C1547 C 0.80373 0.8411 0.41338 0.0
C1548 C 0.82927 0.84011 0.39776 0.0
H1549 H 0.78793 0.85139 0.45853 0.0
H1550 H 0.78047 0.83571 0.39922 0.0
C1551 C 0.85895 0.84708 0.41725 0.0
C1552 C 0.53248 0.52864 0.88704 0.0
C1553 C 0.5199 0.55098 0.87461 0.0
H1554 H 0.55077 0.51349 0.92965 0.0
C1555 C 0.51709 0.57632 0.89677 0.0
H1556 H 0.53493 0.50881 0.87066 0.0
C1557 C 0.52565 0.57868 0.93055 0.0
C1558 C 0.53766 0.55603 0.94305 0.0
H1559 H 0.50734 0.59386 0.88811 0.0
H1560 H 0.52266 0.59825 0.94686 0.0
C1561 C 0.54149 0.53128 0.92087 0.0
C1562 C 0.85831 0.27509 0.18127 0.0
C1563 C 0.84709 0.24182 0.17381 0.0
H1564 H 0.85911 0.3174 0.21296 0.0
C1565 C 0.82929 0.22549 0.19453 0.0
H1566 H 0.87201 0.28836 0.16569 0.0
C1567 C 0.82165 0.24209 0.2213 0.0
C1568 C 0.83167 0.27538 0.22796 0.0
H1569 H 0.8204 0.19985 0.18952 0.0
H1570 H 0.80754 0.22871 0.2365 0.0
C1571 C 0.85064 0.29175 0.20813 0.0
C1572 C 0.1581 0.56799 0.33731 0.0
C1573 C 0.15754 0.58234 0.30969 0.0
H1574 H 0.14722 0.56747 0.38532 0.0
C1575 C 0.14396 0.60698 0.30896 0.0
H1576 H 0.16821 0.54879 0.33838 0.0
C1577 C 0.13268 0.61823 0.3361 0.0
C1578 C 0.1344 0.60478 0.36432 0.0
H1579 H 0.14337 0.61864 0.28804 0.0
H1580 H 0.12371 0.63824 0.33539 0.0
C1581 C 0.14642 0.57896 0.36429 0.0
C1582 C 0.83035 0.87904 0.66796 0.0
C1583 C 0.80199 0.86985 0.64555 0.0
H1584 H 0.85355 0.8787 0.71584 0.0
C1585 C 0.77457 0.8529 0.65534 0.0
H1586 H 0.85187 0.89235 0.66137 0.0
C1587 C 0.77558 0.84484 0.68651 0.0
C1588 C 0.80393 0.854 0.70892 0.0
H1589 H 0.75232 0.8455 0.63876 0.0
H1590 H 0.75408 0.83134 0.693 0.0
C1591 C 0.83126 0.87144 0.69934 0.0
C1592 C 0.79573 0.57582 0.56967 0.0
C1593 C 0.79719 0.55288 0.58888 0.0
H1594 H 0.77787 0.61408 0.56174 0.0
C1595 C 0.78454 0.55332 0.61765 0.0
H1596 H 0.80617 0.57645 0.54784 0.0
C1597 C 0.76773 0.57437 0.62525 0.0
C1598 C 0.76388 0.59561 0.60444 0.0
H1599 H 0.78576 0.53599 0.633 0.0
H1600 H 0.75577 0.57219 0.64595 0.0
C1601 C 0.77965 0.59738 0.5777 0.0
C1602 C 0.20408 0.14374 0.54138 0.0
C1603 C 0.20429 0.16776 0.52295 0.0
H1604 H 0.17646 0.10661 0.56201 0.0
C1605 C 0.17576 0.1718 0.51007 0.0
H1606 H 0.22572 0.13997 0.55158 0.0
C1607 C 0.14769 0.15285 0.51618 0.0
C1608 C 0.14743 0.12928 0.53519 0.0
H1609 H 0.17507 0.19 0.49573 0.0
H1610 H 0.12617 0.15695 0.50614 0.0
C1611 C 0.17589 0.12459 0.54735 0.0
C1612 C 0.2076 1.00871 0.74263 0.0
C1613 C 0.20033 0.0173 0.77357 0.0
H1614 H 0.232 0.98308 0.71441 0.0
C1615 C 0.21238 1.00577 0.80023 0.0
H1616 H 0.19876 0.01725 0.72158 0.0
C1617 C 0.23137 0.98618 0.79606 0.0
C1618 C 0.23891 0.97789 0.7652 0.0
H1619 H 0.20728 1.012 0.82439 0.0
H1620 H 0.24058 0.97792 0.81714 0.0
C1621 C 0.22683 0.98935 0.73853 0.0
C1622 C 0.42202 1.00048 0.07343 0.0
C1623 C 0.4083 0.97804 0.04456 0.0
H1624 H 0.46353 0.03561 0.10065 0.0
C1625 C 0.42637 0.97354 0.02061 0.0
H1626 H 0.40839 1.00436 0.09216 0.0
C1627 C 0.45752 0.99206 0.02498 0.0
C1628 C 0.47116 0.0147 0.05373 0.0
H1629 H 0.41614 0.95659 0.99799 0.0
H1630 H 0.47096 0.98855 0.00597 0.0
C1631 C 0.45339 0.01837 0.07821 0.0
C1632 C 0.87543 0.64891 0.75953 0.0
C1633 C 0.87053 0.62657 0.78003 0.0
H1634 H 0.85482 0.67572 0.73041 0.0
C1635 C 0.83992 0.61026 0.78293 0.0
H1636 H 0.89887 0.66135 0.75664 0.0
C1637 C 0.81458 0.61734 0.76683 0.0
C1638 C 0.81945 0.6415 0.74831 0.0
H1639 H 0.83553 0.5921 0.7978 0.0
H1640 H 0.79127 0.60481 0.77003 0.0
C1641 C 0.85009 0.65661 0.74406 0.0
C1642 C 0.87803 0.66978 0.03595 0.0
C1643 C 0.86017 0.67204 0.06073 0.0
H1644 H 0.91258 0.65087 0.01801 0.0
C1645 C 0.86457 0.6571 0.08749 0.0
H1646 H 0.87517 0.68098 0.01497 0.0
C1647 C 0.88606 0.63997 0.08929 0.0
C1648 C 0.9037 0.63737 0.06437 0.0
H1649 H 0.8513 0.65847 0.10708 0.0
H1650 H 0.88901 0.62893 0.11037 0.0
C1651 C 0.89958 0.65265 0.03777 0.0
C1652 C 0.22291 0.18023 0.76492 0.0
C1653 C 0.22429 0.16522 0.79203 0.0
H1654 H 0.24149 0.2216 0.74506 0.0
C1655 C 0.24711 0.18036 0.82008 0.0
H1656 H 0.20543 0.16911 0.74307 0.0
C1657 C 0.26832 0.21011 0.82088 0.0
C1658 C 0.26628 0.22541 0.79403 0.0
H1659 H 0.24864 0.16913 0.84124 0.0
H1660 H 0.28568 0.22151 0.84275 0.0
C1661 C 0.24343 0.21025 0.76609 0.0
C1662 C 0.35504 0.97776 0.36967 0.0
C1663 C 0.38788 0.98898 0.37703 0.0
H1664 H 0.31441 0.93747 0.35242 0.0
C1665 C 0.40495 0.96714 0.37595 0.0
H1666 H 0.34131 0.99411 0.37047 0.0
C1667 C 0.38963 0.93491 0.36503 0.0
C1668 C 0.35696 0.92393 0.35558 0.0
H1669 H 0.43027 0.97503 0.3815 0.0
H1670 H 0.40347 0.91871 0.36303 0.0
C1671 C 0.33966 0.94541 0.35924 0.0
C1672 C 0.55974 0.42726 0.5732 0.0
C1673 C 0.58909 0.42261 0.58214 0.0
H1674 H 0.53363 0.45801 0.5593 0.0
C1675 C 0.61582 0.44843 0.58266 0.0
H1676 H 0.53842 0.40837 0.57234 0.0
C1677 C 0.613 0.47789 0.57537 0.0
C1678 C 0.58337 0.48241 0.56695 0.0
H1679 H 0.63891 0.44627 0.58969 0.0
H1680 H 0.63407 0.4972 0.57668 0.0
C1681 C 0.55695 0.45618 0.56566 0.0
C1682 C 0.40375 0.79688 0.43179 0.0
C1683 C 0.43263 0.79641 0.42294 0.0
H1684 H 0.35894 0.80333 0.4181 0.0
C1685 C 0.4374 0.80155 0.39135 0.0
H1686 H 0.39908 0.7931 0.45583 0.0
C1687 C 0.41409 0.80728 0.36945 0.0
C1688 C 0.38549 0.80841 0.37864 0.0
H1689 H 0.45927 0.80142 0.3836 0.0
H1690 H 0.41876 0.81138 0.3455 0.0
C1691 C 0.38065 0.80292 0.41009 0.0
C1692 C 0.08206 0.72647 0.08539 0.0
C1693 C 0.11128 0.7469 0.08259 0.0
H1694 H 0.0526 0.67818 0.08011 0.0
C1695 C 0.13266 0.73274 0.07012 0.0
H1696 H 0.06504 0.73625 0.09519 0.0
C1697 C 0.12541 0.69961 0.06107 0.0
C1698 C 0.09673 0.679 0.06483 0.0
H1699 H 0.15544 0.74739 0.06766 0.0
H1700 H 0.14288 0.6901 0.05195 0.0
C1701 C 0.07503 0.69304 0.07699 0.0
C1702 C 0.10378 0.30607 0.89834 0.0
C1703 C 0.11175 0.32617 0.9292 0.0
H1704 H 0.11778 0.2936 0.85259 0.0
C1705 C 0.14116 0.34939 0.93752 0.0
H1706 H 0.08132 0.28793 0.89115 0.0
C1707 C 0.16192 0.35275 0.91536 0.0
C1708 C 0.15391 0.33278 0.88445 0.0
H1709 H 0.14807 0.3653 0.96105 0.0
H1710 H 0.18439 0.37087 0.92254 0.0
C1711 C 0.1247 0.30922 0.87629 0.0
C1712 C 0.60109 0.80681 0.976 0.0
C1713 C 0.58573 0.80321 0.94364 0.0
H1714 H 0.60561 0.786 0.01865 0.0
C1715 C 0.56252 0.77443 0.92944 0.0
H1716 H 0.61908 0.82861 0.98775 0.0
C1717 C 0.55481 0.74992 0.94722 0.0
C1718 C 0.56992 0.75371 0.97973 0.0
H1719 H 0.55018 0.77085 0.90459 0.0
H1720 H 0.53662 0.72818 0.93569 0.0
C1721 C 0.59321 0.78244 0.99384 0.0
C1722 C 0.16191 0.77013 0.79083 0.0
C1723 C 0.14644 0.78749 0.77285 0.0
H1724 H 0.20531 0.76336 0.81064 0.0
C1725 C 0.1654 0.8129 0.76107 0.0
H1726 H 0.14843 0.75029 0.8002 0.0
C1727 C 0.19851 0.81997 0.76639 0.0
C1728 C 0.21383 0.80231 0.78426 0.0
H1729 H 0.1546 0.82663 0.74673 0.0
H1730 H 0.21211 0.83933 0.75649 0.0
C1731 C 0.1948 0.77761 0.79677 0.0
C1732 C 0.07465 0.48553 0.41324 0.0
C1733 C 0.08329 0.45943 0.42193 0.0
H1734 H 0.06426 0.52856 0.42937 0.0
C1735 C 0.08887 0.45787 0.4554 0.0
H1736 H 0.07014 0.48764 0.38777 0.0
C1737 C 0.08522 0.48133 0.47936 0.0
C1738 C 0.07601 0.50712 0.47058 0.0
H1739 H 0.09541 0.43813 0.4631 0.0
H1740 H 0.08937 0.47903 0.5048 0.0
C1741 C 0.07117 0.50905 0.43718 0.0
C1742 C 0.45452 0.30409 0.28622 0.0
C1743 C 0.45226 0.2814 0.2581 0.0
H1744 H 0.43036 0.32827 0.31728 0.0
C1745 C 0.42168 0.2646 0.24094 0.0
H1746 H 0.47733 0.31782 0.30019 0.0
C1747 C 0.39477 0.27043 0.25076 0.0
C1748 C 0.39682 0.29362 0.27822 0.0
H1749 H 0.41834 0.24684 0.21925 0.0
H1750 H 0.37216 0.25691 0.23619 0.0
C1751 C 0.42735 0.31017 0.29599 0.0
C1752 C 0.60436 0.56356 0.40615 0.0
C1753 C 0.6355 0.58208 0.40837 0.0
H1754 H 0.56769 0.54453 0.43191 0.0
C1755 C 0.65401 0.59514 0.4396 0.0
H1756 H 0.58954 0.553 0.38249 0.0
C1757 C 0.64146 0.59049 0.46795 0.0
C1758 C 0.61022 0.57226 0.46576 0.0
H1759 H 0.67812 0.60949 0.44221 0.0
H1760 H 0.6562 0.60142 0.49157 0.0
C1761 C 0.59193 0.55852 0.43452 0.0
C1762 C 0.28095 0.8779 0.09257 0.0
C1763 C 0.29304 0.87544 0.06351 0.0
H1764 H 0.28085 0.86585 0.14007 0.0
C1765 C 0.31047 0.85426 0.05786 0.0
H1766 H 0.26732 0.89394 0.09739 0.0
C1767 C 0.31862 0.83853 0.08247 0.0
C1768 C 0.30883 0.84325 0.11266 0.0
H1769 H 0.3201 0.85192 0.03563 0.0
H1770 H 0.33409 0.82424 0.07868 0.0
C1771 C 0.2886 0.86172 0.1169 0.0
C1772 C 1.00427 0.60635 0.92117 0.0
C1773 C 0.97452 0.58762 0.9244 0.0
H1774 H 0.05389 0.61949 0.93791 0.0
C1775 C 0.97196 0.56854 0.9483 0.0
H1776 H 1.00686 0.62144 0.90302 0.0
C1777 C 0.9987 0.5672 0.96759 0.0
C1778 C 1.02838 0.58497 0.96348 0.0
H1779 H 0.94945 0.55369 0.95129 0.0
H1780 H 0.99614 0.55153 0.98516 0.0
C1781 C 0.03115 0.60497 0.94062 0.0
C1782 C 0.32632 0.27592 0.64214 0.0
C1783 C 0.2994 0.27729 0.6222 0.0
H1784 H 0.35177 0.28331 0.6908 0.0
C1785 C 0.27832 0.29012 0.63698 0.0
H1786 H 0.34302 0.2661 0.63167 0.0
C1787 C 0.28351 0.30031 0.67103 0.0
C1788 C 0.3096 0.29733 0.69104 0.0
H1789 H 0.25735 0.29153 0.62234 0.0
H1790 H 0.26645 0.30931 0.68176 0.0
C1791 C 0.33122 0.28557 0.67613 0.0
C1792 C 0.60477 0.5976 0.20383 0.0
C1793 C 0.59845 0.56835 0.21459 0.0
H1794 H 0.60209 0.62144 0.16291 0.0
C1795 C 0.5821 0.54058 0.19184 0.0
H1796 H 0.61738 0.61949 0.22075 0.0
C1797 C 0.57345 0.54172 0.15897 0.0
C1798 C 0.58092 0.57069 0.14775 0.0
H1799 H 0.57665 0.51768 0.1992 0.0
H1800 H 0.56147 0.51956 0.1422 0.0
C1801 C 0.59608 0.59876 0.17069 0.0
C1802 C 0.29127 0.92017 0.91373 0.0
C1803 C 0.31928 0.93389 0.93621 0.0
H1804 H 0.26778 0.88636 0.86994 0.0
C1805 C 0.34534 0.92342 0.93241 0.0
H1806 H 0.27084 0.92769 0.91665 0.0
C1807 C 0.34315 0.89887 0.90683 0.0
C1808 C 0.3152 0.88531 0.88425 0.0
H1809 H 0.36699 0.93337 0.94993 0.0
H1810 H 0.36338 0.89086 0.90434 0.0
C1811 C 0.28945 0.89644 0.88744 0.0
C1812 C 0.97196 0.5097 0.76401 0.0
C1813 C 0.94879 0.52489 0.7648 0.0
H1814 H 1.00037 0.49129 0.73465 0.0
C1815 C 0.93237 0.52807 0.73534 0.0
H1816 H 0.98462 0.50668 0.7865 0.0
C1817 C 0.94055 0.51834 0.70562 0.0
C1818 C 0.9659 0.50608 0.7049 0.0
H1819 H 0.91368 0.53885 0.73536 0.0
H1820 H 0.92797 0.52186 0.68334 0.0
C1821 C 0.98069 0.50061 0.73426 0.0
C1822 C 0.3463 0.28801 0.4429 0.0
C1823 C 0.32344 0.26142 0.44794 0.0
H1824 H 0.36278 0.31807 0.40945 0.0
C1825 C 0.30012 0.24325 0.42121 0.0
H1826 H 0.36463 0.30245 0.46289 0.0
C1827 C 0.2995 0.2518 0.39021 0.0
C1828 C 0.32178 0.27908 0.3856 0.0
H1829 H 0.28233 0.22244 0.42425 0.0
H1830 H 0.28097 0.23777 0.37022 0.0
C1831 C 0.34527 0.29692 0.41223 0.0
C1832 C 0.34855 0.58259 0.4997 0.0
C1833 C 0.33972 0.58332 0.5305 0.0
H1834 H 0.37253 0.56263 0.46617 0.0
C1835 C 0.34221 0.55962 0.54828 0.0
H1836 H 0.34637 0.60054 0.48547 0.0
C1837 C 0.35577 0.53688 0.53658 0.0
C1838 C 0.36833 0.53842 0.50766 0.0
H1839 H 0.33458 0.55931 0.57171 0.0
H1840 H 0.35842 0.5195 0.55138 0.0
C1841 C 0.36311 0.56051 0.48847 0.0
C1842 C 0.92133 0.01898 0.58135 0.0
C1843 C 0.91212 0.98585 0.57161 0.0
H1844 H 0.95729 0.06297 0.5858 0.0
C1845 C 0.93331 0.97161 0.55914 0.0
H1846 H 0.90556 0.03068 0.59107 0.0
C1847 C 0.96284 0.99007 0.55598 0.0
C1848 C 0.97195 0.02323 0.56531 0.0
H1849 H 0.92701 0.94615 0.55141 0.0
H1850 H 0.97846 0.97825 0.54612 0.0
C1851 C 0.95098 0.03749 0.57829 0.0
C1852 C 0.94918 0.16577 0.32154 0.0
C1853 C 0.93936 0.13275 0.31106 0.0
H1854 H 0.93532 0.20729 0.33469 0.0
C1855 C 0.90729 0.11604 0.30603 0.0
H1856 H 0.97372 0.17921 0.32564 0.0
C1857 C 0.88549 0.132 0.3117 0.0
C1858 C 0.89529 0.16498 0.32194 0.0
H1859 H 0.89904 0.09054 0.29816 0.0
H1860 H 0.86092 0.11862 0.30769 0.0
C1861 C 0.92727 0.18179 0.32665 0.0
C1862 C 0.70955 0.13501 0.06448 0.0
C1863 C 0.72868 0.12222 0.08416 0.0
H1864 H 0.6629 0.13377 0.04539 0.0
C1865 C 0.71475 0.0974 0.09952 0.0
H1866 H 0.71966 0.15423 0.05233 0.0
C1867 C 0.6823 0.08571 0.09551 0.0
C1868 C 0.66314 0.09872 0.07617 0.0
H1869 H 0.72886 0.08707 0.11481 0.0
H1870 H 0.67231 0.06664 0.10788 0.0
C1871 C 0.67705 0.12341 0.06059 0.0
C1872 C 0.32193 0.54769 0.2846 0.0
C1873 C 0.30422 0.55638 0.30725 0.0
H1874 H 0.35496 0.52322 0.27452 0.0
C1875 C 0.30988 0.55128 0.3394 0.0
H1876 H 0.31837 0.55211 0.25985 0.0
C1877 C 0.33016 0.53402 0.3476 0.0
C1878 C 0.34537 0.52218 0.32382 0.0
H1879 H 0.29655 0.55804 0.3573 0.0
H1880 H 0.33152 0.5275 0.37154 0.0
C1881 C 0.3428 0.53118 0.29303 0.0
C1882 C 0.27777 0.47611 1.00259 0.0
C1883 C 0.28002 0.46152 0.02999 0.0
H1884 H 0.2588 0.50779 0.97908 0.0
C1885 C 0.26432 0.46856 0.05551 0.0
H1886 H 0.28948 0.47114 0.98243 0.0
C1887 C 0.24692 0.48989 0.05372 0.0
C1888 C 0.24482 0.50462 0.02635 0.0
H1889 H 0.26567 0.45782 0.07703 0.0
H1890 H 0.23548 0.49517 0.074 0.0
C1891 C 0.26037 0.49735 1.00078 0.0
C1892 C 0.92571 0.93045 0.25919 0.0
C1893 C 0.92449 0.96036 0.27328 0.0
H1894 H 0.9052 0.88028 0.25181 0.0
C1895 C 0.90015 0.96227 0.29045 0.0
H1896 H 0.94412 0.92818 0.24578 0.0
C1897 C 0.87777 0.93484 0.2939 0.0
C1898 C 0.87936 0.9049 0.28039 0.0
H1899 H 0.89846 0.98501 0.30151 0.0
H1900 H 0.85956 0.93712 0.3076 0.0
C1901 C 0.90341 0.903 0.26275 0.0
C1902 C 0.77184 0.1817 0.79852 0.0
C1903 C 0.77263 0.16403 0.76831 0.0
H1904 H 0.78206 0.22745 0.82804 0.0
C1905 C 0.78586 0.17976 0.74455 0.0
H1906 H 0.76199 0.17018 0.81746 0.0
C1907 C 0.79735 0.21277 0.75062 0.0
C1908 C 0.7959 0.23042 0.78061 0.0
H1909 H 0.78678 0.16666 0.72108 0.0
H1910 H 0.80697 0.22441 0.73167 0.0
C1911 C 0.78343 0.21455 0.80465 0.0
loop_
_geom_bond_atom_site_label_1
_geom_bond_atom_site_label_2
_geom_bond_distance
_geom_bond_site_symmetry_2
_ccdc_geom_bond_type
C0 O1 1.160 . S
C0 O7 1.185 . S
O1 C0 1.160 . S
O2 Zn3 1.899 . S
O2 C10 1.284 . S
Zn3 O2 1.899 . S
Zn3 O4 2.032 . S
Zn3 O7 2.086 . S
Zn3 O12 1.977 . S
O4 Zn3 2.032 . S
O4 C8 1.278 . S
C5 O6 1.203 . S
C5 O12 1.267 1_655 S
O6 C5 1.203 . S
O7 C0 1.185 . S
O7 Zn3 2.086 . S
C8 O4 1.278 . S
C8 O9 1.211 . S
O9 C8 1.211 . S
C10 O2 1.284 . S
C10 O11 1.273 . S
O11 C10 1.273 . S
O12 Zn3 1.977 . S
O12 C5 1.267 1_455 S
C13 O14 1.160 . S
C13 O20 1.185 1_655 S
O14 C13 1.160 . S
O15 Zn16 1.899 . S
O15 C23 1.284 . S
Zn16 O15 1.899 . S
Zn16 O17 2.032 . S
Zn16 O20 2.086 . S
Zn16 O25 1.977 . S
O17 Zn16 2.032 . S
O17 C21 1.278 . S
C18 O19 1.203 . S
C18 O25 1.267 . S
O19 C18 1.203 . S
O20 C13 1.185 1_455 S
O20 Zn16 2.086 . S
C21 O17 1.278 . S
C21 O22 1.211 . S
O22 C21 1.211 . S
C23 O15 1.284 . S
C23 O24 1.273 . S
O24 C23 1.273 . S
O25 Zn16 1.977 . S
O25 C18 1.267 . S
C26 O27 1.160 . S
C26 O33 1.185 . S
O27 C26 1.160 . S
O28 Zn29 1.899 . S
O28 C36 1.284 . S
Zn29 O28 1.899 . S
Zn29 O30 2.032 . S
Zn29 O33 2.086 . S
Zn29 O38 1.977 . S
O30 Zn29 2.032 . S
O30 C34 1.278 . S
C31 O32 1.203 . S
C31 O38 1.267 . S
O32 C31 1.203 . S
O33 C26 1.185 . S
O33 Zn29 2.086 . S
C34 O30 1.278 . S
C34 O35 1.211 . S
O35 C34 1.211 . S
C36 O28 1.284 . S
C36 O37 1.273 . S
O37 C36 1.273 . S
O38 Zn29 1.977 . S
O38 C31 1.267 . S
C39 O40 1.160 . S
C39 O46 1.185 . S
O40 C39 1.160 . S
O41 Zn42 1.899 . S
O41 C49 1.284 . S
Zn42 O41 1.899 . S
Zn42 O43 2.032 . S
Zn42 O46 2.086 . S
Zn42 O51 1.977 . S
O43 Zn42 2.032 . S
O43 C47 1.278 . S
C44 O45 1.203 . S
C44 O51 1.267 . S
O45 C44 1.203 . S
O46 C39 1.185 . S
O46 Zn42 2.086 . S
C47 O43 1.278 . S
C47 O48 1.211 . S
O48 C47 1.211 . S
C49 O41 1.284 . S
C49 O50 1.273 . S
O50 C49 1.273 . S
O51 Zn42 1.977 . S
O51 C44 1.267 . S
C52 O53 1.160 . S
C52 O59 1.185 . S
O53 C52 1.160 . S
O54 Zn55 1.899 . S
O54 C62 1.284 . S
Zn55 O54 1.899 . S
Zn55 O56 2.032 . S
Zn55 O59 2.086 . S
Zn55 O64 1.977 . S
O56 Zn55 2.032 . S
O56 C60 1.278 . S
C57 O58 1.203 . S
C57 O64 1.267 . S
O58 C57 1.203 . S
O59 C52 1.185 . S
O59 Zn55 2.086 . S
C60 O56 1.278 . S
C60 O61 1.211 . S
O61 C60 1.211 . S
C62 O54 1.284 . S
C62 O63 1.273 . S
O63 C62 1.273 . S
O64 Zn55 1.977 . S
O64 C57 1.267 . S
C65 O66 1.160 . S
C65 O72 1.185 . S
O66 C65 1.160 . S
O67 Zn68 1.899 . S
O67 C75 1.284 . S
Zn68 O67 1.899 . S
Zn68 O69 2.032 . S
Zn68 O72 2.086 . S
Zn68 O77 1.977 . S
O69 Zn68 2.032 . S
O69 C73 1.278 . S
C70 O71 1.203 . S
C70 O77 1.267 . S
O71 C70 1.203 . S
O72 C65 1.185 . S
O72 Zn68 2.086 . S
C73 O69 1.278 . S
C73 O74 1.211 . S
O74 C73 1.211 . S
C75 O67 1.284 . S
C75 O76 1.273 . S
O76 C75 1.273 . S
O77 Zn68 1.977 . S
O77 C70 1.267 . S
C78 O79 1.160 . S
C78 O85 1.185 . S
O79 C78 1.160 . S
O80 Zn81 1.899 . S
O80 C88 1.284 . S
Zn81 O80 1.899 . S
Zn81 O82 2.032 . S
Zn81 O85 2.086 . S
Zn81 O90 1.977 . S
O82 Zn81 2.032 . S
O82 C86 1.278 . S
C83 O84 1.203 . S
C83 O90 1.267 . S
O84 C83 1.203 . S
O85 C78 1.185 . S
O85 Zn81 2.086 . S
C86 O82 1.278 . S
C86 O87 1.211 . S
O87 C86 1.211 . S
C88 O80 1.284 . S
C88 O89 1.273 . S
O89 C88 1.273 . S
O90 Zn81 1.977 . S
O90 C83 1.267 . S
C91 O92 1.160 . S
C91 O98 1.185 . S
O92 C91 1.160 . S
O93 Zn94 1.903 1_655 S
O93 C101 1.290 1_556 S
Zn94 O93 1.903 1_455 S
Zn94 O95 2.032 1_556 S
Zn94 O98 2.086 . S
Zn94 O103 1.977 1_455 S
O95 Zn94 2.032 1_554 S
O95 C99 1.278 . S
C96 O97 1.203 . S
C96 O103 1.267 . S
O97 C96 1.203 . S
O98 C91 1.185 . S
O98 Zn94 2.086 . S
C99 O95 1.278 . S
C99 O100 1.211 1_455 S
O100 C99 1.211 1_655 S
C101 O93 1.290 1_554 S
C101 O102 1.273 . S
O102 C101 1.273 . S
O103 Zn94 1.977 1_655 S
O103 C96 1.267 . S
C104 O105 1.160 . S
C104 O111 1.185 . S
O105 C104 1.160 . S
O106 Zn107 1.899 . S
O106 C114 1.284 . S
Zn107 O106 1.899 . S
Zn107 O108 2.032 . S
Zn107 O111 2.086 . S
Zn107 O116 1.977 1_545 S
O108 Zn107 2.032 . S
O108 C112 1.278 . S
C109 O110 1.203 . S
C109 O116 1.267 . S
O110 C109 1.203 . S
O111 C104 1.185 . S
O111 Zn107 2.086 . S
C112 O108 1.278 . S
C112 O113 1.211 1_545 S
O113 C112 1.211 1_565 S
C114 O106 1.284 . S
C114 O115 1.273 1_545 S
O115 C114 1.273 1_565 S
O116 Zn107 1.977 1_565 S
O116 C109 1.267 . S
C117 O118 1.160 . S
C117 O124 1.185 . S
O118 C117 1.160 . S
O119 Zn120 1.899 . S
O119 C127 1.284 . S
Zn120 O119 1.899 . S
Zn120 O121 2.032 . S
Zn120 O124 2.086 . S
Zn120 O129 1.977 . S
O121 Zn120 2.032 . S
O121 C125 1.278 . S
C122 O123 1.203 . S
C122 O129 1.267 . S
O123 C122 1.203 . S
O124 C117 1.185 . S
O124 Zn120 2.086 . S
C125 O121 1.278 . S
C125 O126 1.211 . S
O126 C125 1.211 . S
C127 O119 1.284 . S
C127 O128 1.273 . S
O128 C127 1.273 . S
O129 Zn120 1.977 . S
O129 C122 1.267 . S
C130 O131 1.160 . S
C130 O137 1.185 . S
O131 C130 1.160 . S
O132 Zn133 1.899 . S
O132 C140 1.284 . S
Zn133 O132 1.899 . S
Zn133 O134 2.032 . S
Zn133 O137 2.086 . S
Zn133 O142 1.977 . S
O134 Zn133 2.032 . S
O134 C138 1.278 . S
C135 O136 1.203 . S
C135 O142 1.267 . S
O136 C135 1.203 . S
O137 C130 1.185 . S
O137 Zn133 2.086 . S
C138 O134 1.278 . S
C138 O139 1.211 . S
O139 C138 1.211 . S
C140 O132 1.284 . S
C140 O141 1.273 . S
O141 C140 1.273 . S
O142 Zn133 1.977 . S
O142 C135 1.267 . S
C143 O144 1.160 . S
C143 O150 1.185 1_554 S
O144 C143 1.160 . S
O145 Zn146 1.899 . S
O145 C153 1.284 . S
Zn146 O145 1.899 . S
Zn146 O147 2.032 1_554 S
Zn146 O150 2.086 1_554 S
Zn146 O155 1.977 . S
O147 Zn146 2.032 1_556 S
O147 C151 1.278 . S
C148 O149 1.203 . S
C148 O155 1.267 . S
O149 C148 1.203 . S
O150 C143 1.185 1_556 S
O150 Zn146 2.086 1_556 S
C151 O147 1.278 . S
C151 O152 1.211 . S
O152 C151 1.211 . S
C153 O145 1.284 . S
C153 O154 1.273 . S
O154 C153 1.273 . S
O155 Zn146 1.977 . S
O155 C148 1.267 . S
C156 O157 1.160 . S
C156 O163 1.185 . S
O157 C156 1.160 . S
O158 Zn159 1.899 . S
O158 C166 1.284 . S
Zn159 O158 1.899 . S
Zn159 O160 2.032 . S
Zn159 O163 2.086 . S
Zn159 O168 1.977 . S
O160 Zn159 2.032 . S
O160 C164 1.278 1_554 S
C161 O162 1.203 . S
C161 O168 1.267 . S
O162 C161 1.203 . S
O163 C156 1.185 . S
O163 Zn159 2.086 . S
C164 O160 1.278 1_556 S
C164 O165 1.211 1_556 S
O165 C164 1.211 1_554 S
C166 O158 1.284 . S
C166 O167 1.273 . S
O167 C166 1.273 . S
O168 Zn159 1.977 . S
O168 C161 1.267 . S
C169 O170 1.160 . S
C169 O176 1.185 . S
O170 C169 1.160 . S
O171 Zn172 1.899 . S
O171 C179 1.284 . S
Zn172 O171 1.899 . S
Zn172 O173 2.032 . S
Zn172 O176 2.086 . S
Zn172 O181 1.977 . S
O173 Zn172 2.032 . S
O173 C177 1.278 . S
C174 O175 1.203 . S
C174 O181 1.267 . S
O175 C174 1.203 . S
O176 C169 1.185 . S
O176 Zn172 2.086 . S
C177 O173 1.278 . S
C177 O178 1.211 . S
O178 C177 1.211 . S
C179 O171 1.284 . S
C179 O180 1.273 . S
O180 C179 1.273 . S
O181 Zn172 1.977 . S
O181 C174 1.267 . S
C182 O183 1.160 . S
C182 O189 1.185 . S
O183 C182 1.160 . S
O184 Zn185 1.899 . S
O184 C192 1.284 . S
Zn185 O184 1.899 . S
Zn185 O186 2.032 . S
Zn185 O189 2.086 . S
Zn185 O194 1.977 . S
O186 Zn185 2.032 . S
O186 C190 1.278 . S
C187 O188 1.203 . S
C187 O194 1.267 . S
O188 C187 1.203 . S
O189 C182 1.185 . S
O189 Zn185 2.086 . S
C190 O186 1.278 . S
C190 O191 1.211 . S
O191 C190 1.211 . S
C192 O184 1.284 . S
C192 O193 1.273 . S
O193 C192 1.273 . S
O194 Zn185 1.977 . S
O194 C187 1.267 . S
C195 O196 1.160 . S
C195 O202 1.185 . S
O196 C195 1.160 . S
O197 Zn198 1.899 . S
O197 C205 1.284 . S
Zn198 O197 1.899 . S
Zn198 O199 2.032 . S
Zn198 O202 2.086 . S
Zn198 O207 1.977 . S
O199 Zn198 2.032 . S
O199 C203 1.278 . S
C200 O201 1.203 . S
C200 O207 1.267 . S
O201 C200 1.203 . S
O202 C195 1.185 . S
O202 Zn198 2.086 . S
C203 O199 1.278 . S
C203 O204 1.211 . S
O204 C203 1.211 . S
C205 O197 1.284 . S
C205 O206 1.273 . S
O206 C205 1.273 . S
O207 Zn198 1.977 . S
O207 C200 1.267 . S
C208 O209 1.160 . S
C208 O215 1.185 . S
O209 C208 1.160 . S
O210 Zn211 1.899 . S
O210 C218 1.284 . S
Zn211 O210 1.899 . S
Zn211 O212 2.032 . S
Zn211 O215 2.086 . S
Zn211 O220 1.951 1_545 S
O212 Zn211 2.032 . S
O212 C216 1.278 . S
C213 O214 1.203 . S
C213 O220 1.302 . S
O214 C213 1.203 . S
O215 C208 1.185 . S
O215 Zn211 2.086 . S
C216 O212 1.278 . S
C216 O217 1.211 . S
O217 C216 1.211 . S
C218 O210 1.284 . S
C218 O219 1.273 1_655 S
O219 C218 1.273 1_455 S
O220 Zn211 1.951 1_565 S
O220 C213 1.302 . S
C221 O222 1.160 . S
C221 O228 1.185 . S
O222 C221 1.160 . S
O223 Zn224 1.899 . S
O223 C231 1.284 . S
Zn224 O223 1.899 . S
Zn224 O225 2.032 . S
Zn224 O228 2.086 . S
Zn224 O233 1.977 . S
O225 Zn224 2.032 . S
O225 C229 1.278 . S
C226 O227 1.203 . S
C226 O233 1.267 . S
O227 C226 1.203 . S
O228 C221 1.185 . S
O228 Zn224 2.086 . S
C229 O225 1.278 . S
C229 O230 1.211 . S
O230 C229 1.211 . S
C231 O223 1.284 . S
C231 O232 1.273 . S
O232 C231 1.273 . S
O233 Zn224 1.977 . S
O233 C226 1.267 . S
C234 O235 1.160 . S
C234 O241 1.185 . S
O235 C234 1.160 . S
O236 Zn237 1.899 . S
O236 C244 1.284 . S
Zn237 O236 1.899 . S
Zn237 O238 2.032 . S
Zn237 O241 2.086 . S
Zn237 O246 1.977 . S
O238 Zn237 2.032 . S
O238 C242 1.278 . S
C239 O240 1.203 . S
C239 O246 1.267 . S
O240 C239 1.203 . S
O241 C234 1.185 . S
O241 Zn237 2.086 . S
C242 O238 1.278 . S
C242 O243 1.211 . S
O243 C242 1.211 . S
C244 O236 1.284 . S
C244 O245 1.273 . S
O245 C244 1.273 . S
O246 Zn237 1.977 . S
O246 C239 1.267 . S
C247 O248 1.160 . S
C247 O254 1.185 . S
O248 C247 1.160 . S
O249 Zn250 1.899 . S
O249 C257 1.284 . S
Zn250 O249 1.899 . S
Zn250 O251 2.032 . S
Zn250 O254 2.086 . S
Zn250 O259 1.977 . S
O251 Zn250 2.032 . S
O251 C255 1.278 . S
C252 O253 1.203 . S
C252 O259 1.267 . S
O253 C252 1.203 . S
O254 C247 1.185 . S
O254 Zn250 2.086 . S
C255 O251 1.278 . S
C255 O256 1.211 . S
O256 C255 1.211 . S
C257 O249 1.284 . S
C257 O258 1.273 . S
O258 C257 1.273 . S
O259 Zn250 1.977 . S
O259 C252 1.267 . S
C260 O261 1.160 . S
C260 O267 1.185 . S
O261 C260 1.160 . S
O262 Zn263 1.899 . S
O262 C270 1.284 . S
Zn263 O262 1.899 . S
Zn263 O264 2.032 . S
Zn263 O267 2.086 . S
Zn263 O272 1.977 . S
O264 Zn263 2.032 . S
O264 C268 1.278 1_554 S
C265 O266 1.203 . S
C265 O272 1.267 . S
O266 C265 1.203 . S
O267 C260 1.185 . S
O267 Zn263 2.086 . S
C268 O264 1.278 1_556 S
C268 O269 1.211 . S
O269 C268 1.211 . S
C270 O262 1.284 . S
C270 O271 1.273 . S
O271 C270 1.273 . S
O272 Zn263 1.977 . S
O272 C265 1.267 . S
C273 O274 1.160 . S
C273 O280 1.185 . S
O274 C273 1.160 . S
O275 Zn276 1.899 . S
O275 C283 1.284 . S
Zn276 O275 1.899 . S
Zn276 O277 2.032 . S
Zn276 O280 2.086 . S
Zn276 O285 1.977 . S
O277 Zn276 2.032 . S
O277 C281 1.278 . S
C278 O279 1.203 . S
C278 O285 1.267 . S
O279 C278 1.203 . S
O280 C273 1.185 . S
O280 Zn276 2.086 . S
C281 O277 1.278 . S
C281 O282 1.211 . S
O282 C281 1.211 . S
C283 O275 1.284 . S
C283 O284 1.273 . S
O284 C283 1.273 . S
O285 Zn276 1.977 . S
O285 C278 1.267 . S
C286 O287 1.160 . S
C286 O293 1.185 . S
O287 C286 1.160 . S
O288 Zn289 1.899 . S
O288 C296 1.284 . S
Zn289 O288 1.899 . S
Zn289 O290 2.032 . S
Zn289 O293 2.086 . S
Zn289 O298 1.977 . S
O290 Zn289 2.032 . S
O290 C294 1.278 . S
C291 O292 1.203 . S
C291 O298 1.267 . S
O292 C291 1.203 . S
O293 C286 1.185 . S
O293 Zn289 2.086 . S
C294 O290 1.278 . S
C294 O295 1.211 . S
O295 C294 1.211 . S
C296 O288 1.284 . S
C296 O297 1.273 . S
O297 C296 1.273 . S
O298 Zn289 1.977 . S
O298 C291 1.267 . S
C299 O300 1.160 . S
C299 O306 1.185 . S
O300 C299 1.160 . S
O301 Zn302 1.899 . S
O301 C309 1.284 . S
Zn302 O301 1.899 . S
Zn302 O303 2.032 . S
Zn302 O306 2.086 . S
Zn302 O311 1.977 . S
O303 Zn302 2.032 . S
O303 C307 1.278 . S
C304 O305 1.203 . S
C304 O311 1.267 . S
O305 C304 1.203 . S
O306 C299 1.185 . S
O306 Zn302 2.086 . S
C307 O303 1.278 . S
C307 O308 1.211 . S
O308 C307 1.211 . S
C309 O301 1.284 . S
C309 O310 1.273 . S
O310 C309 1.273 . S
O311 Zn302 1.977 . S
O311 C304 1.267 . S
Dy312 O315 2.307 . S
Dy312 O317 2.395 . S
Dy312 O318 2.379 . S
Dy312 O320 2.339 . S
Dy312 O322 2.298 . S
Dy312 O326 2.275 . S
Dy312 C334 2.738 . S
Dy313 O316 2.298 1_655 S
Dy313 O319 2.275 1_655 S
Dy313 O321 2.338 1_655 S
Dy313 O323 2.395 . S
Dy313 O324 2.379 1_554 S
Dy313 O327 2.339 1_654 S
Dy313 C343 2.738 . S
C314 O326 1.254 1_556 S
C314 O327 1.257 . S
O315 Dy312 2.307 . S
O315 C325 1.266 . S
O316 Dy313 2.298 1_455 S
O316 C325 1.236 . S
O317 Dy312 2.395 . S
O317 C334 1.255 . S
O318 Dy312 2.379 . S
O318 C334 1.249 . S
O319 Dy313 2.275 1_455 S
O319 C335 1.254 . S
O320 Dy312 2.339 . S
O320 C335 1.257 . S
O321 Dy313 2.338 1_455 S
O321 C336 1.251 1_545 S
O322 Dy312 2.298 . S
O322 C336 1.236 1_545 S
O323 Dy313 2.395 . S
O323 C343 1.255 . S
O324 Dy313 2.379 1_556 S
O324 C343 1.249 1_556 S
C325 O315 1.266 . S
C325 O316 1.236 . S
O326 Dy312 2.275 . S
O326 C314 1.254 1_554 S
O327 Dy313 2.339 1_456 S
O327 C314 1.257 . S
C328 C331 1.344 . S
C328 C332 1.328 . S
C328 C334 1.516 . S
C329 C330 1.304 . S
C329 C333 1.323 . S
C330 C329 1.304 . S
C330 C331 1.371 . S
C330 H344 0.930 . S
C331 C328 1.344 . S
C331 C330 1.371 . S
C331 H345 0.931 . S
C332 C328 1.328 . S
C332 C333 1.433 . S
C332 H346 0.931 . S
C333 C329 1.323 . S
C333 C332 1.433 . S
C333 H347 0.933 . S
C334 Dy312 2.738 . S
C334 O317 1.255 . S
C334 O318 1.249 . S
C334 C328 1.516 . S
C335 O319 1.254 . S
C335 O320 1.257 . S
C336 O321 1.251 1_565 S
C336 O322 1.236 1_565 S
C337 C340 1.344 . S
C337 C341 1.328 1_554 S
C337 C343 1.516 . S
C338 C339 1.304 . S
C338 C342 1.323 1_554 S
C339 C338 1.304 . S
C339 C340 1.371 . S
C339 H348 0.930 . S
C340 C337 1.344 . S
C340 C339 1.371 . S
C340 H349 0.931 . S
C341 C337 1.328 1_556 S
C341 C342 1.433 . S
C341 H350 0.931 . S
C342 C338 1.323 1_556 S
C342 C341 1.433 . S
C342 H351 0.933 . S
C343 Dy313 2.738 . S
C343 O323 1.255 . S
C343 O324 1.249 1_554 S
C343 C337 1.516 . S
H344 C330 0.930 . S
H345 C331 0.931 . S
H346 C332 0.931 . S
H347 C333 0.933 . S
H348 C339 0.930 . S
H349 C340 0.931 . S
H350 C341 0.931 . S
H351 C342 0.933 . S
Dy352 O355 2.307 . S
Dy352 O357 2.395 . S
Dy352 O358 2.379 . S
Dy352 O360 2.339 . S
Dy352 O362 2.298 . S
Dy352 O366 2.275 . S
Dy352 C374 2.738 . S
Dy353 O356 2.298 . S
Dy353 O359 2.275 . S
Dy353 O361 2.307 . S
Dy353 O363 2.395 . S
Dy353 O364 2.379 . S
Dy353 O367 2.339 . S
Dy353 C383 2.738 . S
C354 O366 1.254 . S
C354 O367 1.257 . S
O355 Dy352 2.307 . S
O355 C365 1.266 . S
O356 Dy353 2.298 . S
O356 C365 1.236 . S
O357 Dy352 2.395 . S
O357 C374 1.255 . S
O358 Dy352 2.379 . S
O358 C374 1.249 . S
O359 Dy353 2.275 . S
O359 C375 1.254 . S
O360 Dy352 2.339 . S
O360 C375 1.257 . S
O361 Dy353 2.307 . S
O361 C376 1.266 . S
O362 Dy352 2.298 . S
O362 C376 1.236 . S
O363 Dy353 2.395 . S
O363 C383 1.255 . S
O364 Dy353 2.379 . S
O364 C383 1.249 . S
C365 O355 1.266 . S
C365 O356 1.236 . S
O366 Dy352 2.275 . S
O366 C354 1.254 . S
O367 Dy353 2.339 . S
O367 C354 1.257 . S
C368 C371 1.344 . S
C368 C372 1.328 . S
C368 C374 1.516 . S
C369 C370 1.304 . S
C369 C373 1.323 . S
C370 C369 1.304 . S
C370 C371 1.371 . S
C370 H384 0.930 . S
C371 C368 1.344 . S
C371 C370 1.371 . S
C371 H385 0.931 . S
C372 C368 1.328 . S
C372 C373 1.433 . S
C372 H386 0.931 . S
C373 C369 1.323 . S
C373 C372 1.433 . S
C373 H387 0.933 . S
C374 Dy352 2.738 . S
C374 O357 1.255 . S
C374 O358 1.249 . S
C374 C368 1.516 . S
C375 O359 1.254 . S
C375 O360 1.257 . S
C376 O361 1.266 . S
C376 O362 1.236 . S
C377 C380 1.344 . S
C377 C381 1.328 . S
C377 C383 1.516 . S
C378 C379 1.304 . S
C378 C382 1.323 . S
C379 C378 1.304 . S
C379 C380 1.371 . S
C379 H388 0.930 . S
C380 C377 1.344 . S
C380 C379 1.371 . S
C380 H389 0.931 . S
C381 C377 1.328 . S
C381 C382 1.433 . S
C381 H390 0.931 . S
C382 C378 1.323 . S
C382 C381 1.433 . S
C382 H391 0.933 . S
C383 Dy353 2.738 . S
C383 O363 1.255 . S
C383 O364 1.249 . S
C383 C377 1.516 . S
H384 C370 0.930 . S
H385 C371 0.931 . S
H386 C372 0.931 . S
H387 C373 0.933 . S
H388 C379 0.930 . S
H389 C380 0.931 . S
H390 C381 0.931 . S
H391 C382 0.933 . S
Dy392 O395 2.307 . S
Dy392 O397 2.395 . S
Dy392 O398 2.379 . S
Dy392 O400 2.339 . S
Dy392 O402 2.298 . S
Dy392 O406 2.275 . S
Dy392 C414 2.738 . S
Dy393 O396 2.298 . S
Dy393 O399 2.275 . S
Dy393 O401 2.307 . S
Dy393 O403 2.395 . S
Dy393 O404 2.379 . S
Dy393 O407 2.339 . S
Dy393 C423 2.738 . S
C394 O406 1.254 . S
C394 O407 1.257 . S
O395 Dy392 2.307 . S
O395 C405 1.277 . S
O396 Dy393 2.298 . S
O396 C405 1.242 . S
O397 Dy392 2.395 . S
O397 C414 1.255 . S
O398 Dy392 2.379 . S
O398 C414 1.249 . S
O399 Dy393 2.275 . S
O399 C415 1.254 . S
O400 Dy392 2.339 . S
O400 C415 1.257 . S
O401 Dy393 2.307 . S
O401 C416 1.266 . S
O402 Dy392 2.298 . S
O402 C416 1.236 . S
O403 Dy393 2.395 . S
O403 C423 1.255 . S
O404 Dy393 2.379 . S
O404 C423 1.249 . S
C405 O395 1.277 . S
C405 O396 1.242 . S
O406 Dy392 2.275 . S
O406 C394 1.254 . S
O407 Dy393 2.339 . S
O407 C394 1.257 . S
C408 C411 1.344 . S
C408 C412 1.328 . S
C408 C414 1.516 . S
C409 C410 1.304 . S
C409 C413 1.323 . S
C410 C409 1.304 . S
C410 C411 1.371 . S
C410 H424 0.930 . S
C411 C408 1.344 . S
C411 C410 1.371 . S
C411 H425 0.931 . S
C412 C408 1.328 . S
C412 C413 1.433 . S
C412 H426 0.931 . S
C413 C409 1.323 . S
C413 C412 1.433 . S
C413 H427 0.933 . S
C414 Dy392 2.738 . S
C414 O397 1.255 . S
C414 O398 1.249 . S
C414 C408 1.516 . S
C415 O399 1.254 . S
C415 O400 1.257 . S
C416 O401 1.266 . S
C416 O402 1.236 . S
C417 C420 1.344 . S
C417 C421 1.328 . S
C417 C423 1.516 . S
C418 C419 1.304 . S
C418 C422 1.323 . S
C419 C418 1.304 . S
C419 C420 1.371 1_565 S
C419 H428 0.930 . S
C420 C417 1.344 . S
C420 C419 1.371 1_545 S
C420 H429 0.931 . S
C421 C417 1.328 . S
C421 C422 1.433 1_545 S
C421 H430 0.931 . S
C422 C418 1.323 . S
C422 C421 1.433 1_565 S
C422 H431 0.933 . S
C423 Dy393 2.738 . S
C423 O403 1.255 . S
C423 O404 1.249 . S
C423 C417 1.516 . S
H424 C410 0.930 . S
H425 C411 0.931 . S
H426 C412 0.931 . S
H427 C413 0.933 . S
H428 C419 0.930 . S
H429 C420 0.931 . S
H430 C421 0.931 . S
H431 C422 0.933 . S
Dy432 O435 2.307 . S
Dy432 O437 2.395 . S
Dy432 O438 2.379 . S
Dy432 O440 2.339 . S
Dy432 O442 2.298 . S
Dy432 O446 2.275 . S
Dy432 C454 2.738 . S
Dy433 O436 2.298 . S
Dy433 O439 2.275 . S
Dy433 O441 2.307 . S
Dy433 O443 2.395 . S
Dy433 O444 2.379 . S
Dy433 O447 2.339 . S
Dy433 C463 2.738 . S
C434 O446 1.254 . S
C434 O447 1.257 . S
O435 Dy432 2.307 . S
O435 C445 1.266 . S
O436 Dy433 2.298 . S
O436 C445 1.236 . S
O437 Dy432 2.395 . S
O437 C454 1.255 . S
O438 Dy432 2.379 . S
O438 C454 1.249 . S
O439 Dy433 2.275 . S
O439 C455 1.254 . S
O440 Dy432 2.339 . S
O440 C455 1.257 . S
O441 Dy433 2.307 . S
O441 C456 1.266 . S
O442 Dy432 2.298 . S
O442 C456 1.236 . S
O443 Dy433 2.395 . S
O443 C463 1.255 . S
O444 Dy433 2.379 . S
O444 C463 1.249 . S
C445 O435 1.266 . S
C445 O436 1.236 . S
O446 Dy432 2.275 . S
O446 C434 1.254 . S
O447 Dy433 2.339 . S
O447 C434 1.257 . S
C448 C451 1.344 . S
C448 C452 1.328 . S
C448 C454 1.516 . S
C449 C450 1.304 . S
C449 C453 1.323 . S
C450 C449 1.304 . S
C450 C451 1.371 . S
C450 H464 0.930 . S
C451 C448 1.344 . S
C451 C450 1.371 . S
C451 H465 0.931 . S
C452 C448 1.328 . S
C452 C453 1.433 . S
C452 H466 0.931 . S
C453 C449 1.323 . S
C453 C452 1.433 . S
C453 H467 0.933 . S
C454 Dy432 2.738 . S
C454 O437 1.255 . S
C454 O438 1.249 . S
C454 C448 1.516 . S
C455 O439 1.254 . S
C455 O440 1.257 . S
C456 O441 1.266 . S
C456 O442 1.236 . S
C457 C460 1.344 . S
C457 C461 1.328 . S
C457 C463 1.516 . S
C458 C459 1.304 . S
C458 C462 1.323 . S
C459 C458 1.304 . S
C459 C460 1.371 . S
C459 H468 0.930 . S
C460 C457 1.344 . S
C460 C459 1.371 . S
C460 H469 0.931 . S
C461 C457 1.328 . S
C461 C462 1.433 . S
C461 H470 0.931 . S
C462 C458 1.323 . S
C462 C461 1.433 . S
C462 H471 0.933 . S
C463 Dy433 2.738 . S
C463 O443 1.255 . S
C463 O444 1.249 . S
C463 C457 1.516 . S
H464 C450 0.930 . S
H465 C451 0.931 . S
H466 C452 0.931 . S
H467 C453 0.933 . S
H468 C459 0.930 . S
H469 C460 0.931 . S
H470 C461 0.931 . S
H471 C462 0.933 . S
Dy472 O475 2.307 . S
Dy472 O477 2.395 1_545 S
Dy472 O478 2.379 1_545 S
Dy472 O480 2.339 . S
Dy472 O482 2.298 . S
Dy472 O486 2.275 . S
Dy472 C494 2.738 1_545 S
Dy473 O476 2.298 . S
Dy473 O479 2.275 . S
Dy473 O481 2.307 . S
Dy473 O483 2.395 . S
Dy473 O484 2.379 1_455 S
Dy473 O487 2.339 1_455 S
Dy473 C503 2.738 . S
C474 O486 1.254 1_655 S
C474 O487 1.257 . S
O475 Dy472 2.307 . S
O475 C485 1.266 . S
O476 Dy473 2.298 . S
O476 C485 1.236 . S
O477 Dy472 2.395 1_565 S
O477 C494 1.255 . S
O478 Dy472 2.379 1_565 S
O478 C494 1.249 . S
O479 Dy473 2.275 . S
O479 C495 1.254 . S
O480 Dy472 2.339 . S
O480 C495 1.257 . S
O481 Dy473 2.307 . S
O481 C496 1.266 . S
O482 Dy472 2.298 . S
O482 C496 1.236 . S
O483 Dy473 2.395 . S
O483 C503 1.255 . S
O484 Dy473 2.379 1_655 S
O484 C503 1.249 1_655 S
C485 O475 1.266 . S
C485 O476 1.236 . S
O486 Dy472 2.275 . S
O486 C474 1.254 1_455 S
O487 Dy473 2.339 1_655 S
O487 C474 1.257 . S
C488 C491 1.344 . S
C488 C492 1.328 . S
C488 C494 1.516 . S
C489 C490 1.304 . S
C489 C493 1.323 . S
C490 C489 1.304 . S
C490 C491 1.371 . S
C490 H504 0.930 . S
C491 C488 1.344 . S
C491 C490 1.371 . S
C491 H505 0.931 . S
C492 C488 1.328 . S
C492 C493 1.433 . S
C492 H506 0.931 . S
C493 C489 1.323 . S
C493 C492 1.433 . S
C493 H507 0.933 . S
C494 Dy472 2.738 1_565 S
C494 O477 1.255 . S
C494 O478 1.249 . S
C494 C488 1.516 . S
C495 O479 1.254 . S
C495 O480 1.257 . S
C496 O481 1.266 . S
C496 O482 1.236 . S
C497 C500 1.344 . S
C497 C501 1.328 1_455 S
C497 C503 1.516 . S
C498 C499 1.304 . S
C498 C502 1.323 1_455 S
C499 C498 1.304 . S
C499 C500 1.371 . S
C499 H508 0.930 . S
C500 C497 1.344 . S
C500 C499 1.371 . S
C500 H509 0.931 . S
C501 C497 1.328 1_655 S
C501 C502 1.433 . S
C501 H510 0.931 . S
C502 C498 1.323 1_655 S
C502 C501 1.433 . S
C502 H511 0.933 . S
C503 Dy473 2.738 . S
C503 O483 1.255 . S
C503 O484 1.249 1_455 S
C503 C497 1.516 . S
H504 C490 0.930 . S
H505 C491 0.931 . S
H506 C492 0.931 . S
H507 C493 0.933 . S
H508 C499 0.930 . S
H509 C500 0.931 . S
H510 C501 0.931 . S
H511 C502 0.933 . S
Dy512 O515 2.307 . S
Dy512 O517 2.395 . S
Dy512 O518 2.379 . S
Dy512 O520 2.339 . S
Dy512 O522 2.298 . S
Dy512 O526 2.275 . S
Dy512 C534 2.738 . S
Dy513 O516 2.298 . S
Dy513 O519 2.275 . S
Dy513 O521 2.307 . S
Dy513 O523 2.395 . S
Dy513 O524 2.379 . S
Dy513 O527 2.339 . S
Dy513 C543 2.738 . S
C514 O526 1.254 . S
C514 O527 1.257 . S
O515 Dy512 2.307 . S
O515 C525 1.266 . S
O516 Dy513 2.298 . S
O516 C525 1.236 . S
O517 Dy512 2.395 . S
O517 C534 1.255 . S
O518 Dy512 2.379 . S
O518 C534 1.249 . S
O519 Dy513 2.275 . S
O519 C535 1.254 . S
O520 Dy512 2.339 . S
O520 C535 1.257 . S
O521 Dy513 2.307 . S
O521 C536 1.266 . S
O522 Dy512 2.298 . S
O522 C536 1.236 . S
O523 Dy513 2.395 . S
O523 C543 1.255 . S
O524 Dy513 2.379 . S
O524 C543 1.249 . S
C525 O515 1.266 . S
C525 O516 1.236 . S
O526 Dy512 2.275 . S
O526 C514 1.254 . S
O527 Dy513 2.339 . S
O527 C514 1.257 . S
C528 C531 1.344 . S
C528 C532 1.328 . S
C528 C534 1.516 . S
C529 C530 1.304 . S
C529 C533 1.323 . S
C530 C529 1.304 . S
C530 C531 1.371 . S
C530 H544 0.930 . S
C531 C528 1.344 . S
C531 C530 1.371 . S
C531 H545 0.931 . S
C532 C528 1.328 . S
C532 C533 1.433 . S
C532 H546 0.931 . S
C533 C529 1.323 . S
C533 C532 1.433 . S
C533 H547 0.933 . S
C534 Dy512 2.738 . S
C534 O517 1.255 . S
C534 O518 1.249 . S
C534 C528 1.516 . S
C535 O519 1.254 . S
C535 O520 1.257 . S
C536 O521 1.266 . S
C536 O522 1.236 . S
C537 C540 1.344 . S
C537 C541 1.328 . S
C537 C543 1.516 . S
C538 C539 1.304 . S
C538 C542 1.323 . S
C539 C538 1.304 . S
C539 C540 1.371 . S
C539 H548 0.930 . S
C540 C537 1.344 . S
C540 C539 1.371 . S
C540 H549 0.931 . S
C541 C537 1.328 . S
C541 C542 1.433 . S
C541 H550 0.931 . S
C542 C538 1.323 . S
C542 C541 1.433 . S
C542 H551 0.933 . S
C543 Dy513 2.738 . S
C543 O523 1.255 . S
C543 O524 1.249 . S
C543 C537 1.516 . S
H544 C530 0.930 . S
H545 C531 0.931 . S
H546 C532 0.931 . S
H547 C533 0.933 . S
H548 C539 0.930 . S
H549 C540 0.931 . S
H550 C541 0.931 . S
H551 C542 0.933 . S
Dy552 O555 2.307 . S
Dy552 O557 2.395 1_554 S
Dy552 O558 2.379 1_554 S
Dy552 O560 2.339 . S
Dy552 O562 2.298 . S
Dy552 O566 2.275 . S
Dy552 C574 2.738 1_554 S
Dy553 O556 2.298 . S
Dy553 O559 2.275 . S
Dy553 O561 2.307 . S
Dy553 O563 2.395 . S
Dy553 O564 2.379 1_545 S
Dy553 O567 2.339 1_545 S
Dy553 C583 2.738 . S
C554 O566 1.254 . S
C554 O567 1.257 1_545 S
O555 Dy552 2.307 . S
O555 C565 1.266 . S
O556 Dy553 2.298 . S
O556 C565 1.236 . S
O557 Dy552 2.395 1_556 S
O557 C574 1.255 . S
O558 Dy552 2.379 1_556 S
O558 C574 1.249 . S
O559 Dy553 2.275 . S
O559 C575 1.254 . S
O560 Dy552 2.339 . S
O560 C575 1.257 . S
O561 Dy553 2.307 . S
O561 C576 1.266 . S
O562 Dy552 2.298 . S
O562 C576 1.236 . S
O563 Dy553 2.395 . S
O563 C583 1.255 . S
O564 Dy553 2.379 1_565 S
O564 C583 1.249 1_565 S
C565 O555 1.266 . S
C565 O556 1.236 . S
O566 Dy552 2.275 . S
O566 C554 1.254 . S
O567 Dy553 2.339 1_565 S
O567 C554 1.257 1_565 S
C568 C571 1.344 . S
C568 C572 1.328 . S
C568 C574 1.516 . S
C569 C570 1.304 . S
C569 C573 1.323 . S
C570 C569 1.304 . S
C570 C571 1.371 . S
C570 H584 0.930 . S
C571 C568 1.344 . S
C571 C570 1.371 . S
C571 H585 0.931 . S
C572 C568 1.328 . S
C572 C573 1.433 . S
C572 H586 0.931 . S
C573 C569 1.323 . S
C573 C572 1.433 . S
C573 H587 0.933 . S
C574 Dy552 2.738 1_556 S
C574 O557 1.255 . S
C574 O558 1.249 . S
C574 C568 1.516 . S
C575 O559 1.254 . S
C575 O560 1.257 . S
C576 O561 1.266 . S
C576 O562 1.236 . S
C577 C580 1.344 . S
C577 C581 1.328 1_545 S
C577 C583 1.516 . S
C578 C579 1.304 1_565 S
C578 C582 1.323 . S
C579 C578 1.304 1_545 S
C579 C580 1.371 . S
C579 H588 0.930 . S
C580 C577 1.344 . S
C580 C579 1.371 . S
C580 H589 0.931 . S
C581 C577 1.328 1_565 S
C581 C582 1.433 . S
C581 H590 0.931 . S
C582 C578 1.323 . S
C582 C581 1.433 . S
C582 H591 0.933 . S
C583 Dy553 2.738 . S
C583 O563 1.255 . S
C583 O564 1.249 1_545 S
C583 C577 1.516 . S
H584 C570 0.930 . S
H585 C571 0.931 . S
H586 C572 0.931 . S
H587 C573 0.933 . S
H588 C579 0.930 . S
H589 C580 0.931 . S
H590 C581 0.931 . S
H591 C582 0.933 . S
Dy592 O595 2.307 . S
Dy592 O597 2.395 . S
Dy592 O598 2.379 . S
Dy592 O600 2.339 . S
Dy592 O602 2.298 . S
Dy592 O606 2.275 . S
Dy592 C614 2.738 . S
Dy593 O596 2.298 . S
Dy593 O599 2.275 . S
Dy593 O601 2.307 . S
Dy593 O603 2.395 . S
Dy593 O604 2.379 . S
Dy593 O607 2.339 . S
Dy593 C623 2.738 . S
C594 O606 1.254 . S
C594 O607 1.257 . S
O595 Dy592 2.307 . S
O595 C605 1.266 . S
O596 Dy593 2.298 . S
O596 C605 1.236 . S
O597 Dy592 2.395 . S
O597 C614 1.255 . S
O598 Dy592 2.379 . S
O598 C614 1.249 . S
O599 Dy593 2.275 . S
O599 C615 1.254 . S
O600 Dy592 2.339 . S
O600 C615 1.257 . S
O601 Dy593 2.307 . S
O601 C616 1.266 . S
O602 Dy592 2.298 . S
O602 C616 1.236 . S
O603 Dy593 2.395 . S
O603 C623 1.255 . S
O604 Dy593 2.379 . S
O604 C623 1.249 . S
C605 O595 1.266 . S
C605 O596 1.236 . S
O606 Dy592 2.275 . S
O606 C594 1.254 . S
O607 Dy593 2.339 . S
O607 C594 1.257 . S
C608 C611 1.344 . S
C608 C612 1.328 . S
C608 C614 1.516 . S
C609 C610 1.304 . S
C609 C613 1.323 . S
C610 C609 1.304 . S
C610 C611 1.371 . S
C610 H624 0.930 . S
C611 C608 1.344 . S
C611 C610 1.371 . S
C611 H625 0.931 . S
C612 C608 1.328 . S
C612 C613 1.433 . S
C612 H626 0.931 . S
C613 C609 1.323 . S
C613 C612 1.433 . S
C613 H627 0.933 . S
C614 Dy592 2.738 . S
C614 O597 1.255 . S
C614 O598 1.249 . S
C614 C608 1.516 . S
C615 O599 1.254 . S
C615 O600 1.257 . S
C616 O601 1.266 . S
C616 O602 1.236 . S
C617 C620 1.344 . S
C617 C621 1.328 . S
C617 C623 1.516 . S
C618 C619 1.304 . S
C618 C622 1.323 . S
C619 C618 1.304 . S
C619 C620 1.371 . S
C619 H628 0.930 . S
C620 C617 1.344 . S
C620 C619 1.371 . S
C620 H629 0.931 . S
C621 C617 1.328 . S
C621 C622 1.433 . S
C621 H630 0.931 . S
C622 C618 1.323 . S
C622 C621 1.433 . S
C622 H631 0.933 . S
C623 Dy593 2.738 . S
C623 O603 1.255 . S
C623 O604 1.249 . S
C623 C617 1.516 . S
H624 C610 0.930 . S
H625 C611 0.931 . S
H626 C612 0.931 . S
H627 C613 0.933 . S
H628 C619 0.930 . S
H629 C620 0.931 . S
H630 C621 0.931 . S
H631 C622 0.933 . S
Dy632 O635 2.307 1_554 S
Dy632 O637 2.395 . S
Dy632 O638 2.379 . S
Dy632 O640 2.339 . S
Dy632 O642 2.298 . S
Dy632 O646 2.275 . S
Dy632 C654 2.738 . S
Dy633 O636 2.324 . S
Dy633 O639 2.275 . S
Dy633 O641 2.307 . S
Dy633 O643 2.395 . S
Dy633 O644 2.379 . S
Dy633 O647 2.339 . S
Dy633 C663 2.738 . S
C634 O646 1.254 . S
C634 O647 1.257 . S
O635 Dy632 2.307 1_556 S
O635 C645 1.266 . S
O636 Dy633 2.324 . S
O636 C645 1.221 1_554 S
O637 Dy632 2.395 . S
O637 C654 1.255 . S
O638 Dy632 2.379 . S
O638 C654 1.249 . S
O639 Dy633 2.275 . S
O639 C655 1.254 . S
O640 Dy632 2.339 . S
O640 C655 1.257 . S
O641 Dy633 2.307 . S
O641 C656 1.266 . S
O642 Dy632 2.298 . S
O642 C656 1.236 . S
O643 Dy633 2.395 . S
O643 C663 1.255 . S
O644 Dy633 2.379 . S
O644 C663 1.249 . S
C645 O635 1.266 . S
C645 O636 1.221 1_556 S
O646 Dy632 2.275 . S
O646 C634 1.254 . S
O647 Dy633 2.339 . S
O647 C634 1.257 . S
C648 C651 1.344 . S
C648 C652 1.328 . S
C648 C654 1.516 . S
C649 C650 1.304 . S
C649 C653 1.323 . S
C650 C649 1.304 . S
C650 C651 1.371 . S
C650 H664 0.930 . S
C651 C648 1.344 . S
C651 C650 1.371 . S
C651 H665 0.931 . S
C652 C648 1.328 . S
C652 C653 1.433 . S
C652 H666 0.931 . S
C653 C649 1.323 . S
C653 C652 1.433 . S
C653 H667 0.933 . S
C654 Dy632 2.738 . S
C654 O637 1.255 . S
C654 O638 1.249 . S
C654 C648 1.516 . S
C655 O639 1.254 . S
C655 O640 1.257 . S
C656 O641 1.266 . S
C656 O642 1.236 . S
C657 C660 1.323 1_554 S
C657 C661 1.328 . S
C657 C663 1.534 . S
C658 C659 1.304 . S
C658 C662 1.323 . S
C659 C658 1.304 . S
C659 C660 1.371 . S
C659 H668 0.930 . S
C660 C657 1.323 1_556 S
C660 C659 1.371 . S
C660 H669 0.931 . S
C661 C657 1.328 . S
C661 C662 1.420 1_554 S
C661 H670 0.945 . S
C662 C658 1.323 . S
C662 C661 1.420 1_556 S
C662 H671 0.933 . S
C663 Dy633 2.738 . S
C663 O643 1.255 . S
C663 O644 1.249 . S
C663 C657 1.534 . S
H664 C650 0.930 . S
H665 C651 0.931 . S
H666 C652 0.931 . S
H667 C653 0.933 . S
H668 C659 0.930 . S
H669 C660 0.931 . S
H670 C661 0.945 . S
H671 C662 0.933 . S
Dy672 O675 2.307 . S
Dy672 O677 2.395 . S
Dy672 O678 2.379 . S
Dy672 O680 2.339 . S
Dy672 O682 2.298 . S
Dy672 O686 2.275 . S
Dy672 C694 2.738 . S
Dy673 O676 2.298 . S
Dy673 O679 2.275 . S
Dy673 O681 2.307 . S
Dy673 O683 2.395 . S
Dy673 O684 2.379 . S
Dy673 O687 2.339 . S
Dy673 C703 2.738 . S
C674 O686 1.254 . S
C674 O687 1.257 . S
O675 Dy672 2.307 . S
O675 C685 1.266 . S
O676 Dy673 2.298 . S
O676 C685 1.236 . S
O677 Dy672 2.395 . S
O677 C694 1.255 . S
O678 Dy672 2.379 . S
O678 C694 1.249 . S
O679 Dy673 2.275 . S
O679 C695 1.254 . S
O680 Dy672 2.339 . S
O680 C695 1.257 . S
O681 Dy673 2.307 . S
O681 C696 1.266 . S
O682 Dy672 2.298 . S
O682 C696 1.236 . S
O683 Dy673 2.395 . S
O683 C703 1.255 . S
O684 Dy673 2.379 . S
O684 C703 1.249 . S
C685 O675 1.266 . S
C685 O676 1.236 . S
O686 Dy672 2.275 . S
O686 C674 1.254 . S
O687 Dy673 2.339 . S
O687 C674 1.257 . S
C688 C691 1.344 . S
C688 C692 1.328 . S
C688 C694 1.516 . S
C689 C690 1.304 . S
C689 C693 1.323 . S
C690 C689 1.304 . S
C690 C691 1.371 . S
C690 H704 0.930 . S
C691 C688 1.344 . S
C691 C690 1.371 . S
C691 H705 0.931 . S
C692 C688 1.328 . S
C692 C693 1.433 . S
C692 H706 0.931 . S
C693 C689 1.323 . S
C693 C692 1.433 . S
C693 H707 0.933 . S
C694 Dy672 2.738 . S
C694 O677 1.255 . S
C694 O678 1.249 . S
C694 C688 1.516 . S
C695 O679 1.254 . S
C695 O680 1.257 . S
C696 O681 1.266 . S
C696 O682 1.236 . S
C697 C700 1.344 . S
C697 C701 1.328 . S
C697 C703 1.516 . S
C698 C699 1.304 . S
C698 C702 1.323 . S
C699 C698 1.304 . S
C699 C700 1.371 . S
C699 H708 0.930 . S
C700 C697 1.344 . S
C700 C699 1.371 . S
C700 H709 0.931 . S
C701 C697 1.328 . S
C701 C702 1.433 . S
C701 H710 0.931 . S
C702 C698 1.323 . S
C702 C701 1.433 . S
C702 H711 0.933 . S
C703 Dy673 2.738 . S
C703 O683 1.255 . S
C703 O684 1.249 . S
C703 C697 1.516 . S
H704 C690 0.930 . S
H705 C691 0.931 . S
H706 C692 0.931 . S
H707 C693 0.933 . S
H708 C699 0.930 . S
H709 C700 0.931 . S
H710 C701 0.931 . S
H711 C702 0.933 . S
Dy712 O715 2.307 1_455 S
Dy712 O717 2.395 . S
Dy712 O718 2.379 . S
Dy712 O720 2.339 . S
Dy712 O722 2.298 . S
Dy712 O726 2.275 . S
Dy712 C734 2.738 . S
Dy713 O716 2.298 1_455 S
Dy713 O719 2.275 . S
Dy713 O721 2.307 . S
Dy713 O723 2.395 . S
Dy713 O724 2.379 . S
Dy713 O727 2.339 . S
Dy713 C743 2.738 . S
C714 O726 1.254 . S
C714 O727 1.257 . S
O715 Dy712 2.307 1_655 S
O715 C725 1.266 . S
O716 Dy713 2.298 1_655 S
O716 C725 1.236 . S
O717 Dy712 2.395 . S
O717 C734 1.255 . S
O718 Dy712 2.379 . S
O718 C734 1.249 . S
O719 Dy713 2.275 . S
O719 C735 1.254 . S
O720 Dy712 2.339 . S
O720 C735 1.257 . S
O721 Dy713 2.307 . S
O721 C736 1.266 . S
O722 Dy712 2.298 . S
O722 C736 1.236 . S
O723 Dy713 2.395 . S
O723 C743 1.255 . S
O724 Dy713 2.379 . S
O724 C743 1.249 . S
C725 O715 1.266 . S
C725 O716 1.236 . S
O726 Dy712 2.275 . S
O726 C714 1.254 . S
O727 Dy713 2.339 . S
O727 C714 1.257 . S
C728 C731 1.344 . S
C728 C732 1.328 . S
C728 C734 1.516 . S
C729 C730 1.304 . S
C729 C733 1.323 . S
C730 C729 1.304 . S
C730 C731 1.371 . S
C730 H744 0.930 . S
C731 C728 1.344 . S
C731 C730 1.371 . S
C731 H745 0.931 . S
C732 C728 1.328 . S
C732 C733 1.433 . S
C732 H746 0.931 . S
C733 C729 1.323 . S
C733 C732 1.433 . S
C733 H747 0.933 . S
C734 Dy712 2.738 . S
C734 O717 1.255 . S
C734 O718 1.249 . S
C734 C728 1.516 . S
C735 O719 1.254 . S
C735 O720 1.257 . S
C736 O721 1.266 . S
C736 O722 1.236 . S
C737 C740 1.344 . S
C737 C741 1.328 . S
C737 C743 1.516 1_655 S
C738 C739 1.304 . S
C738 C742 1.323 . S
C739 C738 1.304 . S
C739 C740 1.371 . S
C739 H748 0.930 . S
C740 C737 1.344 . S
C740 C739 1.371 . S
C740 H749 0.931 . S
C741 C737 1.328 . S
C741 C742 1.433 . S
C741 H750 0.931 . S
C742 C738 1.323 . S
C742 C741 1.433 . S
C742 H751 0.933 . S
C743 Dy713 2.738 . S
C743 O723 1.255 . S
C743 O724 1.249 . S
C743 C737 1.516 1_455 S
H744 C730 0.930 . S
H745 C731 0.931 . S
H746 C732 0.931 . S
H747 C733 0.933 . S
H748 C739 0.930 . S
H749 C740 0.931 . S
H750 C741 0.931 . S
H751 C742 0.933 . S
Dy752 O755 2.307 . S
Dy752 O757 2.395 . S
Dy752 O758 2.379 . S
Dy752 O760 2.339 . S
Dy752 O762 2.298 . S
Dy752 O766 2.275 . S
Dy752 C774 2.738 . S
Dy753 O756 2.298 . S
Dy753 O759 2.275 . S
Dy753 O761 2.307 . S
Dy753 O763 2.395 . S
Dy753 O764 2.379 . S
Dy753 O767 2.339 . S
Dy753 C783 2.738 . S
C754 O766 1.254 . S
C754 O767 1.257 . S
O755 Dy752 2.307 . S
O755 C765 1.266 . S
O756 Dy753 2.298 . S
O756 C765 1.236 . S
O757 Dy752 2.395 . S
O757 C774 1.255 . S
O758 Dy752 2.379 . S
O758 C774 1.249 . S
O759 Dy753 2.275 . S
O759 C775 1.254 . S
O760 Dy752 2.339 . S
O760 C775 1.257 . S
O761 Dy753 2.307 . S
O761 C776 1.266 . S
O762 Dy752 2.298 . S
O762 C776 1.236 . S
O763 Dy753 2.395 . S
O763 C783 1.255 . S
O764 Dy753 2.379 . S
O764 C783 1.249 . S
C765 O755 1.266 . S
C765 O756 1.236 . S
O766 Dy752 2.275 . S
O766 C754 1.254 . S
O767 Dy753 2.339 . S
O767 C754 1.257 . S
C768 C771 1.344 . S
C768 C772 1.328 . S
C768 C774 1.516 . S
C769 C770 1.304 . S
C769 C773 1.323 . S
C770 C769 1.304 . S
C770 C771 1.371 . S
C770 H784 0.930 . S
C771 C768 1.344 . S
C771 C770 1.371 . S
C771 H785 0.931 . S
C772 C768 1.328 . S
C772 C773 1.433 . S
C772 H786 0.931 . S
C773 C769 1.323 . S
C773 C772 1.433 . S
C773 H787 0.933 . S
C774 Dy752 2.738 . S
C774 O757 1.255 . S
C774 O758 1.249 . S
C774 C768 1.516 . S
C775 O759 1.254 . S
C775 O760 1.257 . S
C776 O761 1.266 . S
C776 O762 1.236 . S
C777 C780 1.344 . S
C777 C781 1.328 . S
C777 C783 1.516 . S
C778 C779 1.304 . S
C778 C782 1.323 . S
C779 C778 1.304 . S
C779 C780 1.371 . S
C779 H788 0.930 . S
C780 C777 1.344 . S
C780 C779 1.371 . S
C780 H789 0.931 . S
C781 C777 1.328 . S
C781 C782 1.433 . S
C781 H790 0.931 . S
C782 C778 1.323 . S
C782 C781 1.433 . S
C782 H791 0.933 . S
C783 Dy753 2.738 . S
C783 O763 1.255 . S
C783 O764 1.249 . S
C783 C777 1.516 . S
H784 C770 0.930 . S
H785 C771 0.931 . S
H786 C772 0.931 . S
H787 C773 0.933 . S
H788 C779 0.930 . S
H789 C780 0.931 . S
H790 C781 0.931 . S
H791 C782 0.933 . S
Dy792 O795 2.307 . S
Dy792 O797 2.395 . S
Dy792 O798 2.379 . S
Dy792 O800 2.339 . S
Dy792 O802 2.298 . S
Dy792 O806 2.275 . S
Dy792 C814 2.738 . S
Dy793 O796 2.298 . S
Dy793 O799 2.275 . S
Dy793 O801 2.307 . S
Dy793 O803 2.395 . S
Dy793 O804 2.379 . S
Dy793 O807 2.339 . S
Dy793 C823 2.738 . S
C794 O806 1.254 . S
C794 O807 1.257 . S
O795 Dy792 2.307 . S
O795 C805 1.266 . S
O796 Dy793 2.298 . S
O796 C805 1.236 . S
O797 Dy792 2.395 . S
O797 C814 1.255 . S
O798 Dy792 2.379 . S
O798 C814 1.249 . S
O799 Dy793 2.275 . S
O799 C815 1.254 . S
O800 Dy792 2.339 . S
O800 C815 1.257 . S
O801 Dy793 2.307 . S
O801 C816 1.266 . S
O802 Dy792 2.298 . S
O802 C816 1.236 . S
O803 Dy793 2.395 . S
O803 C823 1.255 . S
O804 Dy793 2.379 . S
O804 C823 1.249 . S
C805 O795 1.266 . S
C805 O796 1.236 . S
O806 Dy792 2.275 . S
O806 C794 1.254 . S
O807 Dy793 2.339 . S
O807 C794 1.257 . S
C808 C811 1.344 . S
C808 C812 1.328 . S
C808 C814 1.516 . S
C809 C810 1.304 . S
C809 C813 1.323 . S
C810 C809 1.304 . S
C810 C811 1.371 . S
C810 H824 0.930 . S
C811 C808 1.344 . S
C811 C810 1.371 . S
C811 H825 0.931 . S
C812 C808 1.328 . S
C812 C813 1.433 . S
C812 H826 0.931 . S
C813 C809 1.323 . S
C813 C812 1.433 . S
C813 H827 0.933 . S
C814 Dy792 2.738 . S
C814 O797 1.255 . S
C814 O798 1.249 . S
C814 C808 1.516 . S
C815 O799 1.254 . S
C815 O800 1.257 . S
C816 O801 1.266 . S
C816 O802 1.236 . S
C817 C820 1.344 . S
C817 C821 1.328 . S
C817 C823 1.516 . S
C818 C819 1.304 . S
C818 C822 1.323 . S
C819 C818 1.304 . S
C819 C820 1.371 . S
C819 H828 0.930 . S
C820 C817 1.344 . S
C820 C819 1.371 . S
C820 H829 0.931 . S
C821 C817 1.328 . S
C821 C822 1.433 . S
C821 H830 0.931 . S
C822 C818 1.323 . S
C822 C821 1.433 . S
C822 H831 0.933 . S
C823 Dy793 2.738 . S
C823 O803 1.255 . S
C823 O804 1.249 . S
C823 C817 1.516 . S
H824 C810 0.930 . S
H825 C811 0.931 . S
H826 C812 0.931 . S
H827 C813 0.933 . S
H828 C819 0.930 . S
H829 C820 0.931 . S
H830 C821 0.931 . S
H831 C822 0.933 . S
Dy832 O835 2.307 . S
Dy832 O837 2.395 . S
Dy832 O838 2.379 . S
Dy832 O840 2.339 . S
Dy832 O842 2.298 . S
Dy832 O846 2.275 . S
Dy832 C854 2.738 . S
Dy833 O836 2.298 . S
Dy833 O839 2.275 . S
Dy833 O841 2.307 . S
Dy833 O843 2.395 . S
Dy833 O844 2.379 . S
Dy833 O847 2.339 . S
Dy833 C863 2.738 . S
C834 O846 1.254 . S
C834 O847 1.257 . S
O835 Dy832 2.307 . S
O835 C845 1.266 . S
O836 Dy833 2.298 . S
O836 C845 1.236 . S
O837 Dy832 2.395 . S
O837 C854 1.255 . S
O838 Dy832 2.379 . S
O838 C854 1.249 . S
O839 Dy833 2.275 . S
O839 C855 1.254 . S
O840 Dy832 2.339 . S
O840 C855 1.257 . S
O841 Dy833 2.307 . S
O841 C856 1.266 . S
O842 Dy832 2.298 . S
O842 C856 1.236 . S
O843 Dy833 2.395 . S
O843 C863 1.255 . S
O844 Dy833 2.379 . S
O844 C863 1.249 . S
C845 O835 1.266 . S
C845 O836 1.236 . S
O846 Dy832 2.275 . S
O846 C834 1.254 . S
O847 Dy833 2.339 . S
O847 C834 1.257 . S
C848 C851 1.344 . S
C848 C852 1.328 . S
C848 C854 1.516 . S
C849 C850 1.304 . S
C849 C853 1.323 . S
C850 C849 1.304 . S
C850 C851 1.371 . S
C850 H864 0.930 . S
C851 C848 1.344 . S
C851 C850 1.371 . S
C851 H865 0.931 . S
C852 C848 1.328 . S
C852 C853 1.433 . S
C852 H866 0.931 . S
C853 C849 1.323 . S
C853 C852 1.433 . S
C853 H867 0.933 . S
C854 Dy832 2.738 . S
C854 O837 1.255 . S
C854 O838 1.249 . S
C854 C848 1.516 . S
C855 O839 1.254 . S
C855 O840 1.257 . S
C856 O841 1.266 . S
C856 O842 1.236 . S
C857 C860 1.344 . S
C857 C861 1.328 . S
C857 C863 1.516 . S
C858 C859 1.304 . S
C858 C862 1.323 . S
C859 C858 1.304 . S
C859 C860 1.371 . S
C859 H868 0.930 . S
C860 C857 1.344 . S
C860 C859 1.371 . S
C860 H869 0.931 . S
C861 C857 1.328 . S
C861 C862 1.433 . S
C861 H870 0.931 . S
C862 C858 1.323 . S
C862 C861 1.433 . S
C862 H871 0.932 1_565 S
C863 Dy833 2.738 . S
C863 O843 1.255 . S
C863 O844 1.249 . S
C863 C857 1.516 . S
H864 C850 0.930 . S
H865 C851 0.931 . S
H866 C852 0.931 . S
H867 C853 0.933 . S
H868 C859 0.930 . S
H869 C860 0.931 . S
H870 C861 0.931 . S
H871 C862 0.932 1_545 S
Dy872 O875 2.307 . S
Dy872 O877 2.395 . S
Dy872 O878 2.379 . S
Dy872 O880 2.339 . S
Dy872 O882 2.298 . S
Dy872 O886 2.275 . S
Dy872 C894 2.738 . S
Dy873 O876 2.298 . S
Dy873 O879 2.275 . S
Dy873 O881 2.307 . S
Dy873 O883 2.395 . S
Dy873 O884 2.379 . S
Dy873 O887 2.339 . S
Dy873 C903 2.738 . S
C874 O886 1.254 . S
C874 O887 1.257 . S
O875 Dy872 2.307 . S
O875 C885 1.266 . S
O876 Dy873 2.298 . S
O876 C885 1.236 . S
O877 Dy872 2.395 . S
O877 C894 1.255 . S
O878 Dy872 2.379 . S
O878 C894 1.249 . S
O879 Dy873 2.275 . S
O879 C895 1.254 . S
O880 Dy872 2.339 . S
O880 C895 1.257 . S
O881 Dy873 2.307 . S
O881 C896 1.266 . S
O882 Dy872 2.298 . S
O882 C896 1.236 . S
O883 Dy873 2.395 . S
O883 C903 1.255 . S
O884 Dy873 2.379 . S
O884 C903 1.249 . S
C885 O875 1.266 . S
C885 O876 1.236 . S
O886 Dy872 2.275 . S
O886 C874 1.254 . S
O887 Dy873 2.339 . S
O887 C874 1.257 . S
C888 C891 1.344 . S
C888 C892 1.328 . S
C888 C894 1.516 . S
C889 C890 1.304 . S
C889 C893 1.323 . S
C890 C889 1.304 . S
C890 C891 1.371 . S
C890 H904 0.930 . S
C891 C888 1.344 . S
C891 C890 1.371 . S
C891 H905 0.931 . S
C892 C888 1.328 . S
C892 C893 1.433 . S
C892 H906 0.931 . S
C893 C889 1.323 . S
C893 C892 1.433 . S
C893 H907 0.933 . S
C894 Dy872 2.738 . S
C894 O877 1.255 . S
C894 O878 1.249 . S
C894 C888 1.516 . S
C895 O879 1.254 . S
C895 O880 1.257 . S
C896 O881 1.266 . S
C896 O882 1.236 . S
C897 C900 1.344 . S
C897 C901 1.328 . S
C897 C903 1.516 . S
C898 C899 1.304 . S
C898 C902 1.323 . S
C899 C898 1.304 . S
C899 C900 1.371 . S
C899 H908 0.930 . S
C900 C897 1.344 . S
C900 C899 1.371 . S
C900 H909 0.931 . S
C901 C897 1.328 . S
C901 C902 1.433 . S
C901 H910 0.931 . S
C902 C898 1.323 . S
C902 C901 1.433 . S
C902 H911 0.933 . S
C903 Dy873 2.738 . S
C903 O883 1.255 . S
C903 O884 1.249 . S
C903 C897 1.516 . S
H904 C890 0.930 . S
H905 C891 0.931 . S
H906 C892 0.931 . S
H907 C893 0.933 . S
H908 C899 0.930 . S
H909 C900 0.931 . S
H910 C901 0.931 . S
H911 C902 0.933 . S
Dy912 O915 2.307 . S
Dy912 O917 2.395 1_455 S
Dy912 O918 2.379 1_455 S
Dy912 O920 2.339 . S
Dy912 O922 2.298 . S
Dy912 O926 2.275 . S
Dy912 C934 2.738 1_455 S
Dy913 O916 2.298 . S
Dy913 O919 2.275 . S
Dy913 O921 2.307 . S
Dy913 O923 2.395 . S
Dy913 O924 2.379 1_554 S
Dy913 O927 2.339 1_554 S
Dy913 C943 2.738 . S
C914 O926 1.254 1_556 S
C914 O927 1.257 . S
O915 Dy912 2.307 . S
O915 C925 1.266 . S
O916 Dy913 2.298 . S
O916 C925 1.236 . S
O917 Dy912 2.395 1_655 S
O917 C934 1.255 . S
O918 Dy912 2.379 1_655 S
O918 C934 1.249 . S
O919 Dy913 2.275 . S
O919 C935 1.254 . S
O920 Dy912 2.339 . S
O920 C935 1.257 . S
O921 Dy913 2.307 . S
O921 C936 1.266 . S
O922 Dy912 2.298 . S
O922 C936 1.236 . S
O923 Dy913 2.395 . S
O923 C943 1.255 . S
O924 Dy913 2.379 1_556 S
O924 C943 1.249 1_556 S
C925 O915 1.266 . S
C925 O916 1.236 . S
O926 Dy912 2.275 . S
O926 C914 1.254 1_554 S
O927 Dy913 2.339 1_556 S
O927 C914 1.257 . S
C928 C931 1.344 . S
C928 C932 1.328 . S
C928 C934 1.516 . S
C929 C930 1.304 . S
C929 C933 1.323 . S
C930 C929 1.304 . S
C930 C931 1.371 . S
C930 H944 0.930 . S
C931 C928 1.344 . S
C931 C930 1.371 . S
C931 H945 0.931 . S
C932 C928 1.328 . S
C932 C933 1.433 . S
C932 H946 0.931 . S
C933 C929 1.323 . S
C933 C932 1.433 . S
C933 H947 0.933 . S
C934 Dy912 2.738 1_655 S
C934 O917 1.255 . S
C934 O918 1.249 . S
C934 C928 1.516 . S
C935 O919 1.254 . S
C935 O920 1.257 . S
C936 O921 1.266 . S
C936 O922 1.236 . S
C937 C940 1.344 . S
C937 C941 1.328 1_554 S
C937 C943 1.516 . S
C938 C939 1.304 1_556 S
C938 C942 1.323 . S
C939 C938 1.304 1_554 S
C939 C940 1.371 . S
C939 H948 0.930 . S
C940 C937 1.344 . S
C940 C939 1.371 . S
C940 H949 0.931 . S
C941 C937 1.328 1_556 S
C941 C942 1.433 . S
C941 H950 0.931 . S
C942 C938 1.323 . S
C942 C941 1.433 . S
C942 H951 0.933 . S
C943 Dy913 2.738 . S
C943 O923 1.255 . S
C943 O924 1.249 1_554 S
C943 C937 1.516 . S
H944 C930 0.930 . S
H945 C931 0.931 . S
H946 C932 0.931 . S
H947 C933 0.933 . S
H948 C939 0.930 . S
H949 C940 0.931 . S
H950 C941 0.931 . S
H951 C942 0.933 . S
C952 C953 1.387 . S
C952 H956 0.950 . S
C952 C961 1.390 . S
C953 C952 1.387 . S
C953 C955 1.387 . S
H954 C961 0.950 . S
C955 C953 1.387 . S
C955 C957 1.390 . S
C955 H959 0.950 1_554 S
H956 C952 0.950 . S
C957 C955 1.390 . S
C957 C958 1.387 . S
C957 H960 0.950 1_554 S
C958 C957 1.387 . S
C958 C961 1.387 . S
H959 C955 0.950 1_556 S
H960 C957 0.950 1_556 S
C961 C952 1.390 . S
C961 H954 0.950 . S
C961 C958 1.387 . S
C962 C963 1.387 . S
C962 H966 0.950 . S
C962 C971 1.390 . S
C963 C962 1.387 . S
C963 C965 1.387 . S
H964 C971 0.950 . S
C965 C963 1.387 . S
C965 C967 1.390 . S
C965 H969 0.950 . S
H966 C962 0.950 . S
C967 C965 1.390 . S
C967 C968 1.387 . S
C967 H970 0.950 . S
C968 C967 1.387 . S
C968 C971 1.387 . S
H969 C965 0.950 . S
H970 C967 0.950 . S
C971 C962 1.390 . S
C971 H964 0.950 . S
C971 C968 1.387 . S
C972 C973 1.387 . S
C972 H976 0.950 . S
C972 C981 1.390 . S
C973 C972 1.387 . S
C973 C975 1.387 . S
H974 C981 0.950 . S
C975 C973 1.387 . S
C975 C977 1.390 . S
C975 H979 0.950 . S
H976 C972 0.950 . S
C977 C975 1.390 . S
C977 C978 1.387 . S
C977 H980 0.950 . S
C978 C977 1.387 . S
C978 C981 1.387 . S
H979 C975 0.950 . S
H980 C977 0.950 . S
C981 C972 1.390 . S
C981 H974 0.950 . S
C981 C978 1.387 . S
C982 C983 1.387 . S
C982 H986 0.950 . S
C982 C991 1.390 . S
C983 C982 1.387 . S
C983 C985 1.387 . S
H984 C991 0.950 . S
C985 C983 1.387 . S
C985 C987 1.390 . S
C985 H989 0.950 . S
H986 C982 0.950 . S
C987 C985 1.390 . S
C987 C988 1.387 . S
C987 H990 0.950 . S
C988 C987 1.387 . S
C988 C991 1.387 . S
H989 C985 0.950 . S
H990 C987 0.950 . S
C991 C982 1.390 . S
C991 H984 0.950 . S
C991 C988 1.387 . S
C992 C993 1.387 . S
C992 H996 0.950 . S
C992 C1001 1.390 . S
C993 C992 1.387 . S
C993 C995 1.387 . S
H994 C1001 0.950 . S
C995 C993 1.387 . S
C995 C997 1.390 . S
C995 H999 0.950 . S
H996 C992 0.950 . S
C997 C995 1.390 . S
C997 C998 1.387 . S
C997 H1000 0.950 . S
C998 C997 1.387 . S
C998 C1001 1.387 . S
H999 C995 0.950 . S
H1000 C997 0.950 . S
C1001 C992 1.390 . S
C1001 H994 0.950 . S
C1001 C998 1.387 . S
C1002 C1003 1.387 . S
C1002 H1006 0.950 . S
C1002 C1011 1.390 . S
C1003 C1002 1.387 . S
C1003 C1005 1.387 . S
H1004 C1011 0.950 . S
C1005 C1003 1.387 . S
C1005 C1007 1.390 . S
C1005 H1009 0.950 . S
H1006 C1002 0.950 . S
C1007 C1005 1.390 . S
C1007 C1008 1.387 . S
C1007 H1010 0.950 . S
C1008 C1007 1.387 . S
C1008 C1011 1.387 . S
H1009 C1005 0.950 . S
H1010 C1007 0.950 . S
C1011 C1002 1.390 . S
C1011 H1004 0.950 . S
C1011 C1008 1.387 . S
C1012 C1013 1.387 . S
C1012 H1016 0.950 . S
C1012 C1021 1.390 . S
C1013 C1012 1.387 . S
C1013 C1015 1.387 . S
H1014 C1021 0.950 . S
C1015 C1013 1.387 . S
C1015 C1017 1.390 . S
C1015 H1019 0.950 . S
H1016 C1012 0.950 . S
C1017 C1015 1.390 . S
C1017 C1018 1.387 . S
C1017 H1020 0.950 . S
C1018 C1017 1.387 . S
C1018 C1021 1.387 . S
H1019 C1015 0.950 . S
H1020 C1017 0.950 . S
C1021 C1012 1.390 . S
C1021 H1014 0.950 . S
C1021 C1018 1.387 . S
C1022 C1023 1.387 . S
C1022 H1026 0.950 . S
C1022 C1031 1.390 . S
C1023 C1022 1.387 . S
C1023 C1025 1.387 . S
H1024 C1031 0.950 . S
C1025 C1023 1.387 . S
C1025 C1027 1.390 . S
C1025 H1029 0.950 . S
H1026 C1022 0.950 . S
C1027 C1025 1.390 . S
C1027 C1028 1.387 . S
C1027 H1030 0.950 . S
C1028 C1027 1.387 . S
C1028 C1031 1.387 . S
H1029 C1025 0.950 . S
H1030 C1027 0.950 . S
C1031 C1022 1.390 . S
C1031 H1024 0.950 . S
C1031 C1028 1.387 . S
C1032 C1033 1.373 1_455 S
C1032 H1036 0.950 . S
C1032 C1041 1.390 . S
C1033 C1032 1.373 1_655 S
C1033 C1035 1.392 1_655 S
H1034 C1041 0.950 . S
C1035 C1033 1.392 1_455 S
C1035 C1037 1.390 . S
C1035 H1039 0.950 1_455 S
H1036 C1032 0.950 . S
C1037 C1035 1.390 . S
C1037 C1038 1.387 . S
C1037 H1040 0.950 . S
C1038 C1037 1.387 . S
C1038 C1041 1.387 . S
H1039 C1035 0.950 1_655 S
H1040 C1037 0.950 . S
C1041 C1032 1.390 . S
C1041 H1034 0.950 . S
C1041 C1038 1.387 . S
C1042 C1043 1.387 . S
C1042 H1046 0.950 . S
C1042 C1051 1.390 . S
C1043 C1042 1.387 . S
C1043 C1045 1.387 . S
H1044 C1051 0.950 . S
C1045 C1043 1.387 . S
C1045 C1047 1.390 . S
C1045 H1049 0.950 . S
H1046 C1042 0.950 . S
C1047 C1045 1.390 . S
C1047 C1048 1.387 . S
C1047 H1050 0.950 . S
C1048 C1047 1.387 . S
C1048 C1051 1.387 . S
H1049 C1045 0.950 . S
H1050 C1047 0.950 . S
C1051 C1042 1.390 . S
C1051 H1044 0.950 . S
C1051 C1048 1.387 . S
C1052 C1053 1.387 . S
C1052 H1056 0.950 . S
C1052 C1061 1.390 . S
C1053 C1052 1.387 . S
C1053 C1055 1.387 . S
H1054 C1061 0.950 . S
C1055 C1053 1.387 . S
C1055 C1057 1.390 . S
C1055 H1059 0.950 . S
H1056 C1052 0.950 . S
C1057 C1055 1.390 . S
C1057 C1058 1.387 . S
C1057 H1060 0.950 . S
C1058 C1057 1.387 . S
C1058 C1061 1.387 . S
H1059 C1055 0.950 . S
H1060 C1057 0.950 . S
C1061 C1052 1.390 . S
C1061 H1054 0.950 . S
C1061 C1058 1.387 . S
C1062 C1063 1.387 . S
C1062 H1066 0.950 . S
C1062 C1071 1.390 . S
C1063 C1062 1.387 . S
C1063 C1065 1.387 . S
H1064 C1071 0.950 . S
C1065 C1063 1.387 . S
C1065 C1067 1.390 . S
C1065 H1069 0.950 . S
H1066 C1062 0.950 . S
C1067 C1065 1.390 . S
C1067 C1068 1.387 . S
C1067 H1070 0.950 . S
C1068 C1067 1.387 . S
C1068 C1071 1.387 . S
H1069 C1065 0.950 . S
H1070 C1067 0.950 . S
C1071 C1062 1.390 . S
C1071 H1064 0.950 . S
C1071 C1068 1.387 . S
C1072 C1073 1.387 . S
C1072 H1076 0.950 1_455 S
C1072 C1081 1.390 . S
C1073 C1072 1.387 . S
C1073 C1075 1.387 . S
H1074 C1081 0.950 . S
C1075 C1073 1.387 . S
C1075 C1077 1.390 . S
C1075 H1079 0.950 . S
H1076 C1072 0.950 1_655 S
C1077 C1075 1.390 . S
C1077 C1078 1.387 . S
C1077 H1080 0.950 . S
C1078 C1077 1.387 . S
C1078 C1081 1.387 . S
H1079 C1075 0.950 . S
H1080 C1077 0.950 . S
C1081 C1072 1.390 . S
C1081 H1074 0.950 . S
C1081 C1078 1.387 . S
C1082 C1083 1.387 . S
C1082 H1086 0.950 . S
C1082 C1091 1.390 . S
C1083 C1082 1.387 . S
C1083 C1085 1.387 . S
H1084 C1091 0.950 . S
C1085 C1083 1.387 . S
C1085 C1087 1.390 . S
C1085 H1089 0.950 . S
H1086 C1082 0.950 . S
C1087 C1085 1.390 . S
C1087 C1088 1.387 . S
C1087 H1090 0.950 . S
C1088 C1087 1.387 . S
C1088 C1091 1.387 . S
H1089 C1085 0.950 . S
H1090 C1087 0.950 . S
C1091 C1082 1.390 . S
C1091 H1084 0.950 . S
C1091 C1088 1.387 . S
C1092 C1093 1.387 . S
C1092 H1096 0.950 . S
C1092 C1101 1.390 . S
C1093 C1092 1.387 . S
C1093 C1095 1.387 . S
H1094 C1101 0.950 . S
C1095 C1093 1.387 . S
C1095 C1097 1.390 . S
C1095 H1099 0.950 . S
H1096 C1092 0.950 . S
C1097 C1095 1.390 . S
C1097 C1098 1.387 . S
C1097 H1100 0.950 . S
C1098 C1097 1.387 . S
C1098 C1101 1.387 . S
H1099 C1095 0.950 . S
H1100 C1097 0.950 . S
C1101 C1092 1.390 . S
C1101 H1094 0.950 . S
C1101 C1098 1.387 . S
C1102 C1103 1.387 . S
C1102 H1106 0.950 . S
C1102 C1111 1.390 . S
C1103 C1102 1.387 . S
C1103 C1105 1.387 . S
H1104 C1111 0.950 . S
C1105 C1103 1.387 . S
C1105 C1107 1.390 . S
C1105 H1109 0.950 . S
H1106 C1102 0.950 . S
C1107 C1105 1.390 . S
C1107 C1108 1.387 . S
C1107 H1110 0.950 . S
C1108 C1107 1.387 . S
C1108 C1111 1.387 . S
H1109 C1105 0.950 . S
H1110 C1107 0.950 . S
C1111 C1102 1.390 . S
C1111 H1104 0.950 . S
C1111 C1108 1.387 . S
C1112 C1113 1.387 . S
C1112 H1116 0.950 1_554 S
C1112 C1121 1.390 . S
C1113 C1112 1.387 . S
C1113 C1115 1.387 1_565 S
H1114 C1121 0.950 . S
C1115 C1113 1.387 1_545 S
C1115 C1117 1.390 . S
C1115 H1119 0.950 . S
H1116 C1112 0.950 1_556 S
C1117 C1115 1.390 . S
C1117 C1118 1.387 . S
C1117 H1120 0.950 . S
C1118 C1117 1.387 . S
C1118 C1121 1.387 1_545 S
H1119 C1115 0.950 . S
H1120 C1117 0.950 . S
C1121 C1112 1.390 . S
C1121 H1114 0.950 . S
C1121 C1118 1.387 1_565 S
C1122 C1123 1.387 . S
C1122 H1126 0.950 . S
C1122 C1131 1.390 . S
C1123 C1122 1.387 . S
C1123 C1125 1.387 . S
H1124 C1131 0.950 . S
C1125 C1123 1.387 . S
C1125 C1127 1.390 . S
C1125 H1129 0.950 1_554 S
H1126 C1122 0.950 . S
C1127 C1125 1.390 . S
C1127 C1128 1.387 . S
C1127 H1130 0.950 1_554 S
C1128 C1127 1.387 . S
C1128 C1131 1.387 . S
H1129 C1125 0.950 1_556 S
H1130 C1127 0.950 1_556 S
C1131 C1122 1.390 . S
C1131 H1124 0.950 . S
C1131 C1128 1.387 . S
C1132 C1133 1.387 . S
C1132 H1136 0.950 . S
C1132 C1141 1.390 . S
C1133 C1132 1.387 . S
C1133 C1135 1.387 . S
H1134 C1141 0.950 . S
C1135 C1133 1.387 . S
C1135 C1137 1.390 . S
C1135 H1139 0.950 . S
H1136 C1132 0.950 . S
C1137 C1135 1.390 . S
C1137 C1138 1.387 . S
C1137 H1140 0.950 . S
C1138 C1137 1.387 . S
C1138 C1141 1.387 . S
H1139 C1135 0.950 . S
H1140 C1137 0.950 . S
C1141 C1132 1.390 . S
C1141 H1134 0.950 . S
C1141 C1138 1.387 . S
C1142 C1143 1.387 . S
C1142 H1146 0.950 . S
C1142 C1151 1.390 . S
C1143 C1142 1.387 . S
C1143 C1145 1.387 . S
H1144 C1151 0.950 . S
C1145 C1143 1.387 . S
C1145 C1147 1.390 . S
C1145 H1149 0.950 . S
H1146 C1142 0.950 . S
C1147 C1145 1.390 . S
C1147 C1148 1.387 . S
C1147 H1150 0.950 . S
C1148 C1147 1.387 . S
C1148 C1151 1.387 . S
H1149 C1145 0.950 . S
H1150 C1147 0.950 . S
C1151 C1142 1.390 . S
C1151 H1144 0.950 . S
C1151 C1148 1.387 . S
C1152 C1153 1.387 . S
C1152 H1156 0.950 . S
C1152 C1161 1.390 . S
C1153 C1152 1.387 . S
C1153 C1155 1.387 . S
H1154 C1161 0.950 . S
C1155 C1153 1.387 . S
C1155 C1157 1.390 . S
C1155 H1159 0.950 . S
H1156 C1152 0.950 . S
C1157 C1155 1.390 . S
C1157 C1158 1.387 . S
C1157 H1160 0.950 . S
C1158 C1157 1.387 . S
C1158 C1161 1.387 . S
H1159 C1155 0.950 . S
H1160 C1157 0.950 . S
C1161 C1152 1.390 . S
C1161 H1154 0.950 . S
C1161 C1158 1.387 . S
C1162 C1163 1.387 . S
C1162 H1166 0.950 . S
C1162 C1171 1.390 . S
C1163 C1162 1.387 . S
C1163 C1165 1.387 . S
H1164 C1171 0.950 . S
C1165 C1163 1.387 . S
C1165 C1167 1.390 . S
C1165 H1169 0.950 . S
H1166 C1162 0.950 . S
C1167 C1165 1.390 . S
C1167 C1168 1.387 . S
C1167 H1170 0.950 . S
C1168 C1167 1.387 . S
C1168 C1171 1.387 . S
H1169 C1165 0.950 . S
H1170 C1167 0.950 . S
C1171 C1162 1.390 . S
C1171 H1164 0.950 . S
C1171 C1168 1.387 . S
C1172 C1173 1.387 . S
C1172 H1176 0.950 . S
C1172 C1181 1.390 . S
C1173 C1172 1.387 . S
C1173 C1175 1.387 . S
H1174 C1181 0.950 . S
C1175 C1173 1.387 . S
C1175 C1177 1.390 . S
C1175 H1179 0.950 . S
H1176 C1172 0.950 . S
C1177 C1175 1.390 . S
C1177 C1178 1.387 . S
C1177 H1180 0.950 . S
C1178 C1177 1.387 . S
C1178 C1181 1.387 . S
H1179 C1175 0.950 . S
H1180 C1177 0.950 . S
C1181 C1172 1.390 . S
C1181 H1174 0.950 . S
C1181 C1178 1.387 . S
C1182 C1183 1.387 . S
C1182 H1186 0.950 . S
C1182 C1191 1.390 . S
C1183 C1182 1.387 . S
C1183 C1185 1.387 . S
H1184 C1191 0.950 . S
C1185 C1183 1.387 . S
C1185 C1187 1.390 . S
C1185 H1189 0.950 . S
H1186 C1182 0.950 . S
C1187 C1185 1.390 . S
C1187 C1188 1.387 . S
C1187 H1190 0.950 . S
C1188 C1187 1.387 . S
C1188 C1191 1.387 . S
H1189 C1185 0.950 . S
H1190 C1187 0.950 . S
C1191 C1182 1.390 . S
C1191 H1184 0.950 . S
C1191 C1188 1.387 . S
C1192 C1193 1.387 . S
C1192 H1196 0.950 . S
C1192 C1201 1.390 . S
C1193 C1192 1.387 . S
C1193 C1195 1.387 . S
H1194 C1201 0.950 . S
C1195 C1193 1.387 . S
C1195 C1197 1.390 . S
C1195 H1199 0.950 . S
H1196 C1192 0.950 . S
C1197 C1195 1.390 . S
C1197 C1198 1.387 . S
C1197 H1200 0.950 . S
C1198 C1197 1.387 . S
C1198 C1201 1.387 . S
H1199 C1195 0.950 . S
H1200 C1197 0.950 . S
C1201 C1192 1.390 . S
C1201 H1194 0.950 . S
C1201 C1198 1.387 . S
C1202 C1203 1.387 . S
C1202 H1206 0.950 . S
C1202 C1211 1.390 . S
C1203 C1202 1.387 . S
C1203 C1205 1.387 . S
H1204 C1211 0.950 . S
C1205 C1203 1.387 . S
C1205 C1207 1.390 . S
C1205 H1209 0.950 . S
H1206 C1202 0.950 . S
C1207 C1205 1.390 . S
C1207 C1208 1.387 . S
C1207 H1210 0.950 . S
C1208 C1207 1.387 . S
C1208 C1211 1.387 . S
H1209 C1205 0.950 . S
H1210 C1207 0.950 . S
C1211 C1202 1.390 . S
C1211 H1204 0.950 . S
C1211 C1208 1.387 . S
C1212 C1213 1.387 . S
C1212 H1216 0.950 . S
C1212 C1221 1.390 . S
C1213 C1212 1.387 . S
C1213 C1215 1.387 . S
H1214 C1221 0.950 . S
C1215 C1213 1.387 . S
C1215 C1217 1.390 . S
C1215 H1219 0.950 . S
H1216 C1212 0.950 . S
C1217 C1215 1.390 . S
C1217 C1218 1.387 . S
C1217 H1220 0.950 . S
C1218 C1217 1.387 . S
C1218 C1221 1.387 . S
H1219 C1215 0.950 . S
H1220 C1217 0.950 . S
C1221 C1212 1.390 . S
C1221 H1214 0.950 . S
C1221 C1218 1.387 . S
C1222 C1223 1.387 . S
C1222 H1226 0.950 . S
C1222 C1231 1.390 . S
C1223 C1222 1.387 . S
C1223 C1225 1.387 . S
H1224 C1231 0.950 . S
C1225 C1223 1.387 . S
C1225 C1227 1.390 . S
C1225 H1229 0.950 . S
H1226 C1222 0.950 . S
C1227 C1225 1.390 . S
C1227 C1228 1.387 . S
C1227 H1230 0.950 . S
C1228 C1227 1.387 . S
C1228 C1231 1.387 . S
H1229 C1225 0.950 . S
H1230 C1227 0.950 . S
C1231 C1222 1.390 . S
C1231 H1224 0.950 . S
C1231 C1228 1.387 . S
C1232 C1233 1.387 . S
C1232 H1236 0.950 . S
C1232 C1241 1.390 . S
C1233 C1232 1.387 . S
C1233 C1235 1.387 . S
H1234 C1241 0.950 1_655 S
C1235 C1233 1.387 . S
C1235 C1237 1.390 . S
C1235 H1239 0.950 . S
H1236 C1232 0.950 . S
C1237 C1235 1.390 . S
C1237 C1238 1.387 . S
C1237 H1240 0.950 . S
C1238 C1237 1.387 . S
C1238 C1241 1.387 . S
H1239 C1235 0.950 . S
H1240 C1237 0.950 . S
C1241 C1232 1.390 . S
C1241 H1234 0.950 1_455 S
C1241 C1238 1.387 . S
C1242 C1243 1.387 . S
C1242 H1246 0.950 . S
C1242 C1251 1.390 . S
C1243 C1242 1.387 . S
C1243 C1245 1.387 . S
H1244 C1251 0.950 . S
C1245 C1243 1.387 . S
C1245 C1247 1.390 . S
C1245 H1249 0.950 . S
H1246 C1242 0.950 . S
C1247 C1245 1.390 . S
C1247 C1248 1.387 . S
C1247 H1250 0.950 . S
C1248 C1247 1.387 . S
C1248 C1251 1.387 . S
H1249 C1245 0.950 . S
H1250 C1247 0.950 . S
C1251 C1242 1.390 . S
C1251 H1244 0.950 . S
C1251 C1248 1.387 . S
C1252 C1253 1.387 . S
C1252 H1256 0.950 . S
C1252 C1261 1.390 . S
C1253 C1252 1.387 . S
C1253 C1255 1.387 . S
H1254 C1261 0.950 1_545 S
C1255 C1253 1.387 . S
C1255 C1257 1.390 . S
C1255 H1259 0.950 . S
H1256 C1252 0.950 . S
C1257 C1255 1.390 . S
C1257 C1258 1.387 . S
C1257 H1260 0.950 1_556 S
C1258 C1257 1.387 . S
C1258 C1261 1.387 . S
H1259 C1255 0.950 . S
H1260 C1257 0.950 1_554 S
C1261 C1252 1.390 . S
C1261 H1254 0.950 1_565 S
C1261 C1258 1.387 . S
C1262 C1263 1.387 . S
C1262 H1266 0.950 . S
C1262 C1271 1.390 . S
C1263 C1262 1.387 . S
C1263 C1265 1.387 . S
H1264 C1271 0.950 . S
C1265 C1263 1.387 . S
C1265 C1267 1.390 . S
C1265 H1269 0.950 . S
H1266 C1262 0.950 . S
C1267 C1265 1.390 . S
C1267 C1268 1.387 . S
C1267 H1270 0.950 . S
C1268 C1267 1.387 . S
C1268 C1271 1.387 . S
H1269 C1265 0.950 . S
H1270 C1267 0.950 . S
C1271 C1262 1.390 . S
C1271 H1264 0.950 . S
C1271 C1268 1.387 . S
C1272 C1273 1.387 . S
C1272 H1276 0.950 . S
C1272 C1281 1.390 . S
C1273 C1272 1.387 . S
C1273 C1275 1.387 . S
H1274 C1281 0.950 . S
C1275 C1273 1.387 . S
C1275 C1277 1.390 . S
C1275 H1279 0.950 . S
H1276 C1272 0.950 . S
C1277 C1275 1.390 . S
C1277 C1278 1.387 . S
C1277 H1280 0.950 . S
C1278 C1277 1.387 . S
C1278 C1281 1.387 . S
H1279 C1275 0.950 . S
H1280 C1277 0.950 . S
C1281 C1272 1.390 . S
C1281 H1274 0.950 . S
C1281 C1278 1.387 . S
C1282 C1283 1.387 . S
C1282 H1286 0.950 . S
C1282 C1291 1.390 . S
C1283 C1282 1.387 . S
C1283 C1285 1.387 . S
H1284 C1291 0.950 . S
C1285 C1283 1.387 . S
C1285 C1287 1.390 . S
C1285 H1289 0.950 . S
H1286 C1282 0.950 . S
C1287 C1285 1.390 . S
C1287 C1288 1.387 . S
C1287 H1290 0.950 . S
C1288 C1287 1.387 . S
C1288 C1291 1.387 . S
H1289 C1285 0.950 . S
H1290 C1287 0.950 . S
C1291 C1282 1.390 . S
C1291 H1284 0.950 . S
C1291 C1288 1.387 . S
C1292 C1293 1.387 . S
C1292 H1296 0.950 1_545 S
C1292 C1301 1.390 . S
C1293 C1292 1.387 . S
C1293 C1295 1.387 . S
H1294 C1301 0.950 . S
C1295 C1293 1.387 . S
C1295 C1297 1.390 . S
C1295 H1299 0.950 . S
H1296 C1292 0.950 1_565 S
C1297 C1295 1.390 . S
C1297 C1298 1.387 . S
C1297 H1300 0.950 . S
C1298 C1297 1.387 . S
C1298 C1301 1.387 . S
H1299 C1295 0.950 . S
H1300 C1297 0.950 . S
C1301 C1292 1.390 . S
C1301 H1294 0.950 . S
C1301 C1298 1.387 . S
C1302 C1303 1.387 . S
C1302 H1306 0.950 . S
C1302 C1311 1.390 . S
C1303 C1302 1.387 . S
C1303 C1305 1.387 . S
H1304 C1311 0.950 . S
C1305 C1303 1.387 . S
C1305 C1307 1.390 . S
C1305 H1309 0.950 . S
H1306 C1302 0.950 . S
C1307 C1305 1.390 . S
C1307 C1308 1.387 . S
C1307 H1310 0.950 . S
C1308 C1307 1.387 . S
C1308 C1311 1.387 . S
H1309 C1305 0.950 . S
H1310 C1307 0.950 . S
C1311 C1302 1.390 . S
C1311 H1304 0.950 . S
C1311 C1308 1.387 . S
C1312 C1313 1.387 . S
C1312 H1316 0.950 . S
C1312 C1321 1.390 . S
C1313 C1312 1.387 . S
C1313 C1315 1.387 . S
H1314 C1321 0.950 . S
C1315 C1313 1.387 . S
C1315 C1317 1.390 . S
C1315 H1319 0.950 . S
H1316 C1312 0.950 . S
C1317 C1315 1.390 . S
C1317 C1318 1.387 . S
C1317 H1320 0.950 . S
C1318 C1317 1.387 . S
C1318 C1321 1.387 . S
H1319 C1315 0.950 . S
H1320 C1317 0.950 . S
C1321 C1312 1.390 . S
C1321 H1314 0.950 . S
C1321 C1318 1.387 . S
C1322 C1323 1.387 . S
C1322 H1326 0.950 . S
C1322 C1331 1.390 . S
C1323 C1322 1.387 . S
C1323 C1325 1.387 . S
H1324 C1331 0.950 . S
C1325 C1323 1.387 . S
C1325 C1327 1.390 . S
C1325 H1329 0.950 . S
H1326 C1322 0.950 . S
C1327 C1325 1.390 . S
C1327 C1328 1.387 . S
C1327 H1330 0.950 . S
C1328 C1327 1.387 . S
C1328 C1331 1.387 . S
H1329 C1325 0.950 . S
H1330 C1327 0.950 . S
C1331 C1322 1.390 . S
C1331 H1324 0.950 . S
C1331 C1328 1.387 . S
C1332 C1333 1.387 . S
C1332 H1336 0.950 . S
C1332 C1341 1.390 . S
C1333 C1332 1.387 . S
C1333 C1335 1.387 1_565 S
H1334 C1341 0.950 . S
C1335 C1333 1.387 1_545 S
C1335 C1337 1.390 . S
C1335 H1339 0.950 . S
H1336 C1332 0.950 . S
C1337 C1335 1.390 . S
C1337 C1338 1.387 1_545 S
C1337 H1340 0.950 . S
C1338 C1337 1.387 1_565 S
C1338 C1341 1.387 . S
H1339 C1335 0.950 . S
H1340 C1337 0.950 . S
C1341 C1332 1.390 . S
C1341 H1334 0.950 . S
C1341 C1338 1.387 . S
C1342 C1343 1.387 . S
C1342 H1346 0.950 . S
C1342 C1351 1.390 . S
C1343 C1342 1.387 . S
C1343 C1345 1.387 . S
H1344 C1351 0.950 . S
C1345 C1343 1.387 . S
C1345 C1347 1.390 . S
C1345 H1349 0.950 . S
H1346 C1342 0.950 . S
C1347 C1345 1.390 . S
C1347 C1348 1.387 . S
C1347 H1350 0.950 . S
C1348 C1347 1.387 . S
C1348 C1351 1.387 . S
H1349 C1345 0.950 . S
H1350 C1347 0.950 . S
C1351 C1342 1.390 . S
C1351 H1344 0.950 . S
C1351 C1348 1.387 . S
C1352 C1353 1.387 . S
C1352 H1356 0.950 . S
C1352 C1361 1.390 . S
C1353 C1352 1.387 . S
C1353 C1355 1.387 . S
H1354 C1361 0.950 . S
C1355 C1353 1.387 . S
C1355 C1357 1.390 . S
C1355 H1359 0.950 . S
H1356 C1352 0.950 . S
C1357 C1355 1.390 . S
C1357 C1358 1.387 . S
C1357 H1360 0.950 . S
C1358 C1357 1.387 . S
C1358 C1361 1.387 . S
H1359 C1355 0.950 . S
H1360 C1357 0.950 . S
C1361 C1352 1.390 . S
C1361 H1354 0.950 . S
C1361 C1358 1.387 . S
C1362 C1363 1.387 . S
C1362 H1366 0.950 . S
C1362 C1371 1.390 . S
C1363 C1362 1.387 . S
C1363 C1365 1.387 . S
H1364 C1371 0.950 . S
C1365 C1363 1.387 . S
C1365 C1367 1.390 . S
C1365 H1369 0.950 . S
H1366 C1362 0.950 . S
C1367 C1365 1.390 . S
C1367 C1368 1.387 . S
C1367 H1370 0.950 . S
C1368 C1367 1.387 . S
C1368 C1371 1.387 . S
H1369 C1365 0.950 . S
H1370 C1367 0.950 . S
C1371 C1362 1.390 . S
C1371 H1364 0.950 . S
C1371 C1368 1.387 . S
C1372 C1373 1.387 . S
C1372 H1376 0.950 . S
C1372 C1381 1.390 . S
C1373 C1372 1.387 . S
C1373 C1375 1.387 . S
H1374 C1381 0.950 . S
C1375 C1373 1.387 . S
C1375 C1377 1.390 . S
C1375 H1379 0.950 . S
H1376 C1372 0.950 . S
C1377 C1375 1.390 . S
C1377 C1378 1.387 . S
C1377 H1380 0.950 . S
C1378 C1377 1.387 . S
C1378 C1381 1.387 . S
H1379 C1375 0.950 . S
H1380 C1377 0.950 . S
C1381 C1372 1.390 . S
C1381 H1374 0.950 . S
C1381 C1378 1.387 . S
C1382 C1383 1.387 . S
C1382 H1386 0.950 . S
C1382 C1391 1.390 . S
C1383 C1382 1.387 . S
C1383 C1385 1.387 . S
H1384 C1391 0.950 . S
C1385 C1383 1.387 . S
C1385 C1387 1.390 . S
C1385 H1389 0.950 . S
H1386 C1382 0.950 . S
C1387 C1385 1.390 . S
C1387 C1388 1.387 . S
C1387 H1390 0.950 . S
C1388 C1387 1.387 . S
C1388 C1391 1.387 . S
H1389 C1385 0.950 . S
H1390 C1387 0.950 . S
C1391 C1382 1.390 . S
C1391 H1384 0.950 . S
C1391 C1388 1.387 . S
C1392 C1393 1.387 . S
C1392 H1396 0.950 . S
C1392 C1401 1.390 . S
C1393 C1392 1.387 . S
C1393 C1395 1.387 . S
H1394 C1401 0.950 . S
C1395 C1393 1.387 . S
C1395 C1397 1.390 1_545 S
C1395 H1399 0.951 . S
H1396 C1392 0.950 . S
C1397 C1395 1.390 1_565 S
C1397 C1398 1.387 1_565 S
C1397 H1400 0.950 . S
C1398 C1397 1.387 1_545 S
C1398 C1401 1.387 . S
H1399 C1395 0.951 . S
H1400 C1397 0.950 . S
C1401 C1392 1.390 . S
C1401 H1394 0.950 . S
C1401 C1398 1.387 . S
C1402 C1403 1.387 . S
C1402 H1406 0.950 . S
C1402 C1411 1.390 . S
C1403 C1402 1.387 . S
C1403 C1405 1.387 . S
H1404 C1411 0.950 1_545 S
C1405 C1403 1.387 . S
C1405 C1407 1.390 . S
C1405 H1409 0.950 . S
H1406 C1402 0.950 . S
C1407 C1405 1.390 . S
C1407 C1408 1.387 . S
C1407 H1410 0.950 . S
C1408 C1407 1.387 . S
C1408 C1411 1.387 . S
H1409 C1405 0.950 . S
H1410 C1407 0.950 . S
C1411 C1402 1.390 . S
C1411 H1404 0.950 1_565 S
C1411 C1408 1.387 . S
C1412 C1413 1.387 . S
C1412 H1416 0.950 . S
C1412 C1421 1.390 . S
C1413 C1412 1.387 . S
C1413 C1415 1.387 . S
H1414 C1421 0.950 . S
C1415 C1413 1.387 . S
C1415 C1417 1.390 . S
C1415 H1419 0.950 . S
H1416 C1412 0.950 . S
C1417 C1415 1.390 . S
C1417 C1418 1.387 . S
C1417 H1420 0.950 . S
C1418 C1417 1.387 . S
C1418 C1421 1.387 . S
H1419 C1415 0.950 . S
H1420 C1417 0.950 . S
C1421 C1412 1.390 . S
C1421 H1414 0.950 . S
C1421 C1418 1.387 . S
C1422 C1423 1.387 . S
C1422 H1426 0.950 . S
C1422 C1431 1.390 . S
C1423 C1422 1.387 . S
C1423 C1425 1.387 . S
H1424 C1431 0.950 . S
C1425 C1423 1.387 . S
C1425 C1427 1.390 . S
C1425 H1429 0.950 . S
H1426 C1422 0.950 . S
C1427 C1425 1.390 . S
C1427 C1428 1.387 . S
C1427 H1430 0.950 . S
C1428 C1427 1.387 . S
C1428 C1431 1.387 . S
H1429 C1425 0.950 . S
H1430 C1427 0.950 . S
C1431 C1422 1.390 . S
C1431 H1424 0.950 . S
C1431 C1428 1.387 . S
C1432 C1433 1.387 . S
C1432 H1436 0.950 . S
C1432 C1441 1.390 . S
C1433 C1432 1.387 . S
C1433 C1435 1.387 . S
H1434 C1441 0.950 . S
C1435 C1433 1.387 . S
C1435 C1437 1.390 . S
C1435 H1439 0.950 . S
H1436 C1432 0.950 . S
C1437 C1435 1.390 . S
C1437 C1438 1.387 . S
C1437 H1440 0.950 . S
C1438 C1437 1.387 . S
C1438 C1441 1.387 . S
H1439 C1435 0.950 . S
H1440 C1437 0.950 . S
C1441 C1432 1.390 . S
C1441 H1434 0.950 . S
C1441 C1438 1.387 . S
C1442 C1443 1.387 . S
C1442 H1446 0.950 . S
C1442 C1451 1.390 . S
C1443 C1442 1.387 . S
C1443 C1445 1.387 . S
H1444 C1451 0.950 . S
C1445 C1443 1.387 . S
C1445 C1447 1.390 . S
C1445 H1449 0.950 . S
H1446 C1442 0.950 . S
C1447 C1445 1.390 . S
C1447 C1448 1.387 . S
C1447 H1450 0.950 . S
C1448 C1447 1.387 . S
C1448 C1451 1.387 . S
H1449 C1445 0.950 . S
H1450 C1447 0.950 . S
C1451 C1442 1.390 . S
C1451 H1444 0.950 . S
C1451 C1448 1.387 . S
C1452 C1453 1.387 . S
C1452 H1456 0.950 1_554 S
C1452 C1461 1.390 . S
C1453 C1452 1.387 . S
C1453 C1455 1.387 . S
H1454 C1461 0.950 1_556 S
C1455 C1453 1.387 . S
C1455 C1457 1.390 . S
C1455 H1459 0.950 . S
H1456 C1452 0.950 1_556 S
C1457 C1455 1.390 . S
C1457 C1458 1.387 . S
C1457 H1460 0.950 . S
C1458 C1457 1.387 . S
C1458 C1461 1.387 . S
H1459 C1455 0.950 . S
H1460 C1457 0.950 . S
C1461 C1452 1.390 . S
C1461 H1454 0.950 1_554 S
C1461 C1458 1.387 . S
C1462 C1463 1.402 . S
C1462 H1466 0.950 1_655 S
C1462 C1471 1.390 . S
C1463 C1462 1.402 . S
C1463 C1465 1.392 . S
H1464 C1471 0.950 . S
C1465 C1463 1.392 . S
C1465 C1467 1.390 . S
C1465 H1469 0.950 . S
H1466 C1462 0.950 1_455 S
C1467 C1465 1.390 . S
C1467 C1468 1.387 . S
C1467 H1470 0.950 . S
C1468 C1467 1.387 . S
C1468 C1471 1.387 . S
H1469 C1465 0.950 . S
H1470 C1467 0.950 . S
C1471 C1462 1.390 . S
C1471 H1464 0.950 . S
C1471 C1468 1.387 . S
C1472 C1473 1.387 . S
C1472 H1476 0.950 . S
C1472 C1481 1.390 . S
C1473 C1472 1.387 . S
C1473 C1475 1.387 . S
H1474 C1481 0.950 . S
C1475 C1473 1.387 . S
C1475 C1477 1.390 . S
C1475 H1479 0.950 . S
H1476 C1472 0.950 . S
C1477 C1475 1.390 . S
C1477 C1478 1.387 . S
C1477 H1480 0.950 . S
C1478 C1477 1.387 . S
C1478 C1481 1.387 . S
H1479 C1475 0.950 . S
H1480 C1477 0.950 . S
C1481 C1472 1.390 . S
C1481 H1474 0.950 . S
C1481 C1478 1.387 . S
C1482 C1483 1.387 . S
C1482 H1486 0.950 . S
C1482 C1491 1.390 . S
C1483 C1482 1.387 . S
C1483 C1485 1.387 . S
H1484 C1491 0.950 . S
C1485 C1483 1.387 . S
C1485 C1487 1.390 . S
C1485 H1489 0.950 . S
H1486 C1482 0.950 . S
C1487 C1485 1.390 . S
C1487 C1488 1.387 . S
C1487 H1490 0.950 . S
C1488 C1487 1.387 . S
C1488 C1491 1.387 . S
H1489 C1485 0.950 . S
H1490 C1487 0.950 . S
C1491 C1482 1.390 . S
C1491 H1484 0.950 . S
C1491 C1488 1.387 . S
C1492 C1493 1.387 . S
C1492 H1496 0.950 1_455 S
C1492 C1501 1.390 . S
C1493 C1492 1.387 . S
C1493 C1495 1.387 . S
H1494 C1501 0.950 1_655 S
C1495 C1493 1.387 . S
C1495 C1497 1.390 . S
C1495 H1499 0.950 . S
H1496 C1492 0.950 1_655 S
C1497 C1495 1.390 . S
C1497 C1498 1.387 . S
C1497 H1500 0.950 . S
C1498 C1497 1.387 . S
C1498 C1501 1.387 . S
H1499 C1495 0.950 . S
H1500 C1497 0.950 . S
C1501 C1492 1.390 . S
C1501 H1494 0.950 1_455 S
C1501 C1498 1.387 . S
C1502 C1503 1.387 . S
C1502 H1506 0.950 . S
C1502 C1511 1.390 . S
C1503 C1502 1.387 . S
C1503 C1505 1.387 . S
H1504 C1511 0.950 . S
C1505 C1503 1.387 . S
C1505 C1507 1.390 . S
C1505 H1509 0.950 . S
H1506 C1502 0.950 . S
C1507 C1505 1.390 . S
C1507 C1508 1.387 . S
C1507 H1510 0.950 . S
C1508 C1507 1.387 . S
C1508 C1511 1.387 . S
H1509 C1505 0.950 . S
H1510 C1507 0.950 . S
C1511 C1502 1.390 . S
C1511 H1504 0.950 . S
C1511 C1508 1.387 . S
C1512 C1513 1.387 . S
C1512 H1516 0.950 . S
C1512 C1521 1.390 . S
C1513 C1512 1.387 . S
C1513 C1515 1.387 . S
H1514 C1521 0.950 . S
C1515 C1513 1.387 . S
C1515 C1517 1.390 . S
C1515 H1519 0.950 . S
H1516 C1512 0.950 . S
C1517 C1515 1.390 . S
C1517 C1518 1.387 . S
C1517 H1520 0.950 . S
C1518 C1517 1.387 . S
C1518 C1521 1.387 . S
H1519 C1515 0.950 . S
H1520 C1517 0.950 . S
C1521 C1512 1.390 . S
C1521 H1514 0.950 . S
C1521 C1518 1.387 . S
C1522 C1523 1.387 . S
C1522 H1526 0.950 . S
C1522 C1531 1.375 1_554 S
C1523 C1522 1.387 . S
C1523 C1525 1.387 . S
H1524 C1531 0.960 . S
C1525 C1523 1.387 . S
C1525 C1527 1.390 . S
C1525 H1529 0.950 . S
H1526 C1522 0.950 . S
C1527 C1525 1.390 . S
C1527 C1528 1.382 1_554 S
C1527 H1530 0.950 . S
C1528 C1527 1.382 1_556 S
C1528 C1531 1.389 . S
H1529 C1525 0.950 . S
H1530 C1527 0.950 . S
C1531 C1522 1.375 1_556 S
C1531 H1524 0.960 . S
C1531 C1528 1.389 . S
C1532 C1533 1.387 . S
C1532 H1536 0.950 . S
C1532 C1541 1.390 . S
C1533 C1532 1.387 . S
C1533 C1535 1.387 . S
H1534 C1541 0.950 . S
C1535 C1533 1.387 . S
C1535 C1537 1.390 . S
C1535 H1539 0.950 . S
H1536 C1532 0.950 . S
C1537 C1535 1.390 . S
C1537 C1538 1.387 . S
C1537 H1540 0.950 . S
C1538 C1537 1.387 . S
C1538 C1541 1.387 . S
H1539 C1535 0.950 . S
H1540 C1537 0.950 . S
C1541 C1532 1.390 . S
C1541 H1534 0.950 . S
C1541 C1538 1.387 . S
C1542 C1543 1.387 . S
C1542 H1546 0.950 . S
C1542 C1551 1.390 . S
C1543 C1542 1.387 . S
C1543 C1545 1.387 . S
H1544 C1551 0.950 . S
C1545 C1543 1.387 . S
C1545 C1547 1.390 . S
C1545 H1549 0.950 . S
H1546 C1542 0.950 . S
C1547 C1545 1.390 . S
C1547 C1548 1.387 . S
C1547 H1550 0.950 . S
C1548 C1547 1.387 . S
C1548 C1551 1.387 . S
H1549 C1545 0.950 . S
H1550 C1547 0.950 . S
C1551 C1542 1.390 . S
C1551 H1544 0.950 . S
C1551 C1548 1.387 . S
C1552 C1553 1.387 . S
C1552 H1556 0.950 . S
C1552 C1561 1.390 . S
C1553 C1552 1.387 . S
C1553 C1555 1.387 . S
H1554 C1561 0.950 . S
C1555 C1553 1.387 . S
C1555 C1557 1.390 . S
C1555 H1559 0.950 . S
H1556 C1552 0.950 . S
C1557 C1555 1.390 . S
C1557 C1558 1.387 . S
C1557 H1560 0.950 . S
C1558 C1557 1.387 . S
C1558 C1561 1.387 . S
H1559 C1555 0.950 . S
H1560 C1557 0.950 . S
C1561 C1552 1.390 . S
C1561 H1554 0.950 . S
C1561 C1558 1.387 . S
C1562 C1563 1.387 . S
C1562 H1566 0.950 . S
C1562 C1571 1.390 . S
C1563 C1562 1.387 . S
C1563 C1565 1.387 . S
H1564 C1571 0.950 . S
C1565 C1563 1.387 . S
C1565 C1567 1.390 . S
C1565 H1569 0.950 . S
H1566 C1562 0.950 . S
C1567 C1565 1.390 . S
C1567 C1568 1.387 . S
C1567 H1570 0.950 . S
C1568 C1567 1.387 . S
C1568 C1571 1.387 . S
H1569 C1565 0.950 . S
H1570 C1567 0.950 . S
C1571 C1562 1.390 . S
C1571 H1564 0.950 . S
C1571 C1568 1.387 . S
C1572 C1573 1.387 . S
C1572 H1576 0.950 . S
C1572 C1581 1.390 . S
C1573 C1572 1.387 . S
C1573 C1575 1.387 . S
H1574 C1581 0.950 . S
C1575 C1573 1.387 . S
C1575 C1577 1.390 . S
C1575 H1579 0.950 . S
H1576 C1572 0.950 . S
C1577 C1575 1.390 . S
C1577 C1578 1.387 . S
C1577 H1580 0.950 . S
C1578 C1577 1.387 . S
C1578 C1581 1.387 . S
H1579 C1575 0.950 . S
H1580 C1577 0.950 . S
C1581 C1572 1.390 . S
C1581 H1574 0.950 . S
C1581 C1578 1.387 . S
C1582 C1583 1.387 . S
C1582 H1586 0.950 . S
C1582 C1591 1.390 . S
C1583 C1582 1.387 . S
C1583 C1585 1.387 . S
H1584 C1591 0.950 . S
C1585 C1583 1.387 . S
C1585 C1587 1.390 . S
C1585 H1589 0.950 . S
H1586 C1582 0.950 . S
C1587 C1585 1.390 . S
C1587 C1588 1.387 . S
C1587 H1590 0.950 . S
C1588 C1587 1.387 . S
C1588 C1591 1.387 . S
H1589 C1585 0.950 . S
H1590 C1587 0.950 . S
C1591 C1582 1.390 . S
C1591 H1584 0.950 . S
C1591 C1588 1.387 . S
C1592 C1593 1.387 . S
C1592 H1596 0.950 . S
C1592 C1601 1.390 . S
C1593 C1592 1.387 . S
C1593 C1595 1.387 . S
H1594 C1601 0.950 . S
C1595 C1593 1.387 . S
C1595 C1597 1.390 . S
C1595 H1599 0.950 . S
H1596 C1592 0.950 . S
C1597 C1595 1.390 . S
C1597 C1598 1.387 . S
C1597 H1600 0.950 . S
C1598 C1597 1.387 . S
C1598 C1601 1.387 . S
H1599 C1595 0.950 . S
H1600 C1597 0.950 . S
C1601 C1592 1.390 . S
C1601 H1594 0.950 . S
C1601 C1598 1.387 . S
C1602 C1603 1.387 . S
C1602 H1606 0.950 . S
C1602 C1611 1.390 . S
C1603 C1602 1.387 . S
C1603 C1605 1.387 . S
H1604 C1611 0.950 . S
C1605 C1603 1.387 . S
C1605 C1607 1.390 . S
C1605 H1609 0.950 . S
H1606 C1602 0.950 . S
C1607 C1605 1.390 . S
C1607 C1608 1.387 . S
C1607 H1610 0.950 . S
C1608 C1607 1.387 . S
C1608 C1611 1.387 . S
H1609 C1605 0.950 . S
H1610 C1607 0.950 . S
C1611 C1602 1.390 . S
C1611 H1604 0.950 . S
C1611 C1608 1.387 . S
C1612 C1613 1.387 . S
C1612 H1616 0.950 . S
C1612 C1621 1.390 1_545 S
C1613 C1612 1.387 . S
C1613 C1615 1.387 1_545 S
H1614 C1621 0.950 . S
C1615 C1613 1.387 1_565 S
C1615 C1617 1.390 . S
C1615 H1619 0.950 . S
H1616 C1612 0.950 . S
C1617 C1615 1.390 . S
C1617 C1618 1.387 . S
C1617 H1620 0.950 . S
C1618 C1617 1.387 . S
C1618 C1621 1.387 . S
H1619 C1615 0.950 . S
H1620 C1617 0.950 . S
C1621 C1612 1.390 1_565 S
C1621 H1614 0.950 . S
C1621 C1618 1.387 . S
C1622 C1623 1.387 1_545 S
C1622 H1626 0.950 . S
C1622 C1631 1.390 . S
C1623 C1622 1.387 1_565 S
C1623 C1625 1.387 . S
H1624 C1631 0.950 . S
C1625 C1623 1.387 . S
C1625 C1627 1.390 . S
C1625 H1629 0.950 1_554 S
H1626 C1622 0.950 . S
C1627 C1625 1.390 . S
C1627 C1628 1.387 1_565 S
C1627 H1630 0.950 . S
C1628 C1627 1.387 1_545 S
C1628 C1631 1.387 . S
H1629 C1625 0.950 1_556 S
H1630 C1627 0.950 . S
C1631 C1622 1.390 . S
C1631 H1624 0.950 . S
C1631 C1628 1.387 . S
C1632 C1633 1.387 . S
C1632 H1636 0.950 . S
C1632 C1641 1.390 . S
C1633 C1632 1.387 . S
C1633 C1635 1.387 . S
H1634 C1641 0.950 . S
C1635 C1633 1.387 . S
C1635 C1637 1.390 . S
C1635 H1639 0.950 . S
H1636 C1632 0.950 . S
C1637 C1635 1.390 . S
C1637 C1638 1.387 . S
C1637 H1640 0.950 . S
C1638 C1637 1.387 . S
C1638 C1641 1.387 . S
H1639 C1635 0.950 . S
H1640 C1637 0.950 . S
C1641 C1632 1.390 . S
C1641 H1634 0.950 . S
C1641 C1638 1.387 . S
C1642 C1643 1.387 . S
C1642 H1646 0.950 . S
C1642 C1651 1.390 . S
C1643 C1642 1.387 . S
C1643 C1645 1.387 . S
H1644 C1651 0.950 . S
C1645 C1643 1.387 . S
C1645 C1647 1.390 . S
C1645 H1649 0.950 . S
H1646 C1642 0.950 . S
C1647 C1645 1.390 . S
C1647 C1648 1.387 . S
C1647 H1650 0.950 . S
C1648 C1647 1.387 . S
C1648 C1651 1.387 . S
H1649 C1645 0.950 . S
H1650 C1647 0.950 . S
C1651 C1642 1.390 . S
C1651 H1644 0.950 . S
C1651 C1648 1.387 . S
C1652 C1653 1.387 . S
C1652 H1656 0.950 . S
C1652 C1661 1.390 . S
C1653 C1652 1.387 . S
C1653 C1655 1.387 . S
H1654 C1661 0.950 . S
C1655 C1653 1.387 . S
C1655 C1657 1.390 . S
C1655 H1659 0.950 . S
H1656 C1652 0.950 . S
C1657 C1655 1.390 . S
C1657 C1658 1.387 . S
C1657 H1660 0.950 . S
C1658 C1657 1.387 . S
C1658 C1661 1.387 . S
H1659 C1655 0.950 . S
H1660 C1657 0.950 . S
C1661 C1652 1.390 . S
C1661 H1654 0.950 . S
C1661 C1658 1.387 . S
C1662 C1663 1.387 . S
C1662 H1666 0.950 . S
C1662 C1671 1.390 . S
C1663 C1662 1.387 . S
C1663 C1665 1.387 . S
H1664 C1671 0.950 . S
C1665 C1663 1.387 . S
C1665 C1667 1.390 . S
C1665 H1669 0.950 . S
H1666 C1662 0.950 . S
C1667 C1665 1.390 . S
C1667 C1668 1.387 . S
C1667 H1670 0.950 . S
C1668 C1667 1.387 . S
C1668 C1671 1.387 . S
H1669 C1665 0.950 . S
H1670 C1667 0.950 . S
C1671 C1662 1.390 . S
C1671 H1664 0.950 . S
C1671 C1668 1.387 . S
C1672 C1673 1.387 . S
C1672 H1676 0.950 . S
C1672 C1681 1.390 . S
C1673 C1672 1.387 . S
C1673 C1675 1.387 . S
H1674 C1681 0.950 . S
C1675 C1673 1.387 . S
C1675 C1677 1.390 . S
C1675 H1679 0.950 . S
H1676 C1672 0.950 . S
C1677 C1675 1.390 . S
C1677 C1678 1.387 . S
C1677 H1680 0.950 . S
C1678 C1677 1.387 . S
C1678 C1681 1.387 . S
H1679 C1675 0.950 . S
H1680 C1677 0.950 . S
C1681 C1672 1.390 . S
C1681 H1674 0.950 . S
C1681 C1678 1.387 . S
C1682 C1683 1.387 . S
C1682 H1686 0.950 . S
C1682 C1691 1.390 . S
C1683 C1682 1.387 . S
C1683 C1685 1.387 . S
H1684 C1691 0.950 . S
C1685 C1683 1.387 . S
C1685 C1687 1.390 . S
C1685 H1689 0.950 . S
H1686 C1682 0.950 . S
C1687 C1685 1.390 . S
C1687 C1688 1.387 . S
C1687 H1690 0.950 . S
C1688 C1687 1.387 . S
C1688 C1691 1.387 . S
H1689 C1685 0.950 . S
H1690 C1687 0.950 . S
C1691 C1682 1.390 . S
C1691 H1684 0.950 . S
C1691 C1688 1.387 . S
C1692 C1693 1.387 . S
C1692 H1696 0.950 . S
C1692 C1701 1.390 . S
C1693 C1692 1.387 . S
C1693 C1695 1.387 . S
H1694 C1701 0.950 . S
C1695 C1693 1.387 . S
C1695 C1697 1.390 . S
C1695 H1699 0.950 . S
H1696 C1692 0.950 . S
C1697 C1695 1.390 . S
C1697 C1698 1.387 . S
C1697 H1700 0.950 1_554 S
C1698 C1697 1.387 . S
C1698 C1701 1.387 . S
H1699 C1695 0.950 . S
H1700 C1697 0.950 1_556 S
C1701 C1692 1.390 . S
C1701 H1694 0.950 . S
C1701 C1698 1.387 . S
C1702 C1703 1.387 . S
C1702 H1706 0.950 . S
C1702 C1711 1.390 . S
C1703 C1702 1.387 . S
C1703 C1705 1.387 . S
H1704 C1711 0.950 . S
C1705 C1703 1.387 . S
C1705 C1707 1.390 . S
C1705 H1709 0.950 . S
H1706 C1702 0.950 . S
C1707 C1705 1.390 . S
C1707 C1708 1.387 . S
C1707 H1710 0.950 . S
C1708 C1707 1.387 . S
C1708 C1711 1.387 . S
H1709 C1705 0.950 . S
H1710 C1707 0.950 . S
C1711 C1702 1.390 . S
C1711 H1704 0.950 . S
C1711 C1708 1.387 . S
C1712 C1713 1.387 . S
C1712 H1716 0.950 . S
C1712 C1721 1.390 . S
C1713 C1712 1.387 . S
C1713 C1715 1.387 . S
H1714 C1721 0.950 . S
C1715 C1713 1.387 . S
C1715 C1717 1.390 . S
C1715 H1719 0.950 . S
H1716 C1712 0.950 . S
C1717 C1715 1.390 . S
C1717 C1718 1.387 . S
C1717 H1720 0.950 . S
C1718 C1717 1.387 . S
C1718 C1721 1.387 . S
H1719 C1715 0.950 . S
H1720 C1717 0.950 . S
C1721 C1712 1.390 . S
C1721 H1714 0.950 . S
C1721 C1718 1.387 . S
C1722 C1723 1.387 . S
C1722 H1726 0.950 . S
C1722 C1731 1.390 . S
C1723 C1722 1.387 . S
C1723 C1725 1.387 . S
H1724 C1731 0.950 . S
C1725 C1723 1.387 . S
C1725 C1727 1.390 . S
C1725 H1729 0.950 . S
H1726 C1722 0.950 . S
C1727 C1725 1.390 . S
C1727 C1728 1.387 . S
C1727 H1730 0.950 . S
C1728 C1727 1.387 . S
C1728 C1731 1.387 . S
H1729 C1725 0.950 . S
H1730 C1727 0.950 . S
C1731 C1722 1.390 . S
C1731 H1724 0.950 . S
C1731 C1728 1.387 . S
C1732 C1733 1.387 . S
C1732 H1736 0.950 . S
C1732 C1741 1.390 . S
C1733 C1732 1.387 . S
C1733 C1735 1.387 . S
H1734 C1741 0.950 . S
C1735 C1733 1.387 . S
C1735 C1737 1.390 . S
C1735 H1739 0.950 . S
H1736 C1732 0.950 . S
C1737 C1735 1.390 . S
C1737 C1738 1.387 . S
C1737 H1740 0.950 . S
C1738 C1737 1.387 . S
C1738 C1741 1.387 . S
H1739 C1735 0.950 . S
H1740 C1737 0.950 . S
C1741 C1732 1.390 . S
C1741 H1734 0.950 . S
C1741 C1738 1.387 . S
C1742 C1743 1.387 . S
C1742 H1746 0.950 . S
C1742 C1751 1.390 . S
C1743 C1742 1.387 . S
C1743 C1745 1.387 . S
H1744 C1751 0.950 . S
C1745 C1743 1.387 . S
C1745 C1747 1.390 . S
C1745 H1749 0.950 . S
H1746 C1742 0.950 . S
C1747 C1745 1.390 . S
C1747 C1748 1.387 . S
C1747 H1750 0.950 . S
C1748 C1747 1.387 . S
C1748 C1751 1.387 . S
H1749 C1745 0.950 . S
H1750 C1747 0.950 . S
C1751 C1742 1.390 . S
C1751 H1744 0.950 . S
C1751 C1748 1.387 . S
C1752 C1753 1.387 . S
C1752 H1756 0.950 . S
C1752 C1761 1.390 . S
C1753 C1752 1.387 . S
C1753 C1755 1.387 . S
H1754 C1761 0.950 . S
C1755 C1753 1.387 . S
C1755 C1757 1.390 . S
C1755 H1759 0.950 . S
H1756 C1752 0.950 . S
C1757 C1755 1.390 . S
C1757 C1758 1.387 . S
C1757 H1760 0.950 . S
C1758 C1757 1.387 . S
C1758 C1761 1.387 . S
H1759 C1755 0.950 . S
H1760 C1757 0.950 . S
C1761 C1752 1.390 . S
C1761 H1754 0.950 . S
C1761 C1758 1.387 . S
C1762 C1763 1.387 . S
C1762 H1766 0.950 . S
C1762 C1771 1.390 . S
C1763 C1762 1.387 . S
C1763 C1765 1.387 . S
H1764 C1771 0.950 . S
C1765 C1763 1.387 . S
C1765 C1767 1.390 . S
C1765 H1769 0.950 . S
H1766 C1762 0.950 . S
C1767 C1765 1.390 . S
C1767 C1768 1.387 . S
C1767 H1770 0.950 . S
C1768 C1767 1.387 . S
C1768 C1771 1.387 . S
H1769 C1765 0.950 . S
H1770 C1767 0.950 . S
C1771 C1762 1.390 . S
C1771 H1764 0.950 . S
C1771 C1768 1.387 . S
C1772 C1773 1.387 . S
C1772 H1776 0.950 . S
C1772 C1781 1.390 . S
C1773 C1772 1.387 . S
C1773 C1775 1.387 . S
H1774 C1781 0.950 1_455 S
C1775 C1773 1.387 . S
C1775 C1777 1.390 . S
C1775 H1779 0.950 . S
H1776 C1772 0.950 . S
C1777 C1775 1.390 . S
C1777 C1778 1.387 . S
C1777 H1780 0.950 . S
C1778 C1777 1.387 . S
C1778 C1781 1.387 . S
H1779 C1775 0.950 . S
H1780 C1777 0.950 . S
C1781 C1772 1.390 . S
C1781 H1774 0.950 1_655 S
C1781 C1778 1.387 . S
C1782 C1783 1.387 . S
C1782 H1786 0.950 . S
C1782 C1791 1.390 . S
C1783 C1782 1.387 . S
C1783 C1785 1.387 . S
H1784 C1791 0.950 . S
C1785 C1783 1.387 . S
C1785 C1787 1.390 . S
C1785 H1789 0.950 . S
H1786 C1782 0.950 . S
C1787 C1785 1.390 . S
C1787 C1788 1.387 . S
C1787 H1790 0.950 . S
C1788 C1787 1.387 . S
C1788 C1791 1.387 . S
H1789 C1785 0.950 . S
H1790 C1787 0.950 . S
C1791 C1782 1.390 . S
C1791 H1784 0.950 . S
C1791 C1788 1.387 . S
C1792 C1793 1.387 . S
C1792 H1796 0.950 . S
C1792 C1801 1.390 . S
C1793 C1792 1.387 . S
C1793 C1795 1.387 . S
H1794 C1801 0.950 . S
C1795 C1793 1.387 . S
C1795 C1797 1.390 . S
C1795 H1799 0.950 . S
H1796 C1792 0.950 . S
C1797 C1795 1.390 . S
C1797 C1798 1.387 . S
C1797 H1800 0.950 . S
C1798 C1797 1.387 . S
C1798 C1801 1.387 . S
H1799 C1795 0.950 . S
H1800 C1797 0.950 . S
C1801 C1792 1.390 . S
C1801 H1794 0.950 . S
C1801 C1798 1.387 . S
C1802 C1803 1.387 . S
C1802 H1806 0.950 . S
C1802 C1811 1.390 . S
C1803 C1802 1.387 . S
C1803 C1805 1.387 . S
H1804 C1811 0.950 . S
C1805 C1803 1.387 . S
C1805 C1807 1.390 . S
C1805 H1809 0.950 . S
H1806 C1802 0.950 . S
C1807 C1805 1.390 . S
C1807 C1808 1.387 . S
C1807 H1810 0.950 . S
C1808 C1807 1.387 . S
C1808 C1811 1.387 . S
H1809 C1805 0.950 . S
H1810 C1807 0.950 . S
C1811 C1802 1.390 . S
C1811 H1804 0.950 . S
C1811 C1808 1.387 . S
C1812 C1813 1.387 . S
C1812 H1816 0.950 . S
C1812 C1821 1.390 . S
C1813 C1812 1.387 . S
C1813 C1815 1.387 . S
H1814 C1821 0.950 . S
C1815 C1813 1.387 . S
C1815 C1817 1.390 . S
C1815 H1819 0.950 . S
H1816 C1812 0.950 . S
C1817 C1815 1.390 . S
C1817 C1818 1.387 . S
C1817 H1820 0.950 . S
C1818 C1817 1.387 . S
C1818 C1821 1.387 . S
H1819 C1815 0.950 . S
H1820 C1817 0.950 . S
C1821 C1812 1.390 . S
C1821 H1814 0.950 . S
C1821 C1818 1.387 . S
C1822 C1823 1.387 . S
C1822 H1826 0.950 . S
C1822 C1831 1.390 . S
C1823 C1822 1.387 . S
C1823 C1825 1.387 . S
H1824 C1831 0.950 . S
C1825 C1823 1.387 . S
C1825 C1827 1.390 . S
C1825 H1829 0.950 . S
H1826 C1822 0.950 . S
C1827 C1825 1.390 . S
C1827 C1828 1.387 . S
C1827 H1830 0.950 . S
C1828 C1827 1.387 . S
C1828 C1831 1.387 . S
H1829 C1825 0.950 . S
H1830 C1827 0.950 . S
C1831 C1822 1.390 . S
C1831 H1824 0.950 . S
C1831 C1828 1.387 . S
C1832 C1833 1.387 . S
C1832 H1836 0.950 . S
C1832 C1841 1.390 . S
C1833 C1832 1.387 . S
C1833 C1835 1.387 . S
H1834 C1841 0.950 . S
C1835 C1833 1.387 . S
C1835 C1837 1.390 . S
C1835 H1839 0.950 . S
H1836 C1832 0.950 . S
C1837 C1835 1.390 . S
C1837 C1838 1.387 . S
C1837 H1840 0.950 . S
C1838 C1837 1.387 . S
C1838 C1841 1.387 . S
H1839 C1835 0.950 . S
H1840 C1837 0.950 . S
C1841 C1832 1.390 . S
C1841 H1834 0.950 . S
C1841 C1838 1.387 . S
C1842 C1843 1.387 . S
C1842 H1846 0.950 . S
C1842 C1851 1.390 1_565 S
C1843 C1842 1.387 . S
C1843 C1845 1.387 . S
H1844 C1851 0.950 . S
C1845 C1843 1.387 . S
C1845 C1847 1.390 . S
C1845 H1849 0.950 . S
H1846 C1842 0.950 . S
C1847 C1845 1.390 . S
C1847 C1848 1.387 1_565 S
C1847 H1850 0.950 . S
C1848 C1847 1.387 1_545 S
C1848 C1851 1.387 . S
H1849 C1845 0.950 . S
H1850 C1847 0.950 . S
C1851 C1842 1.390 1_545 S
C1851 H1844 0.950 . S
C1851 C1848 1.387 . S
C1852 C1853 1.387 . S
C1852 H1856 0.950 . S
C1852 C1861 1.390 . S
C1853 C1852 1.387 . S
C1853 C1855 1.387 . S
H1854 C1861 0.950 . S
C1855 C1853 1.387 . S
C1855 C1857 1.390 . S
C1855 H1859 0.950 . S
H1856 C1852 0.950 . S
C1857 C1855 1.390 . S
C1857 C1858 1.387 . S
C1857 H1860 0.950 . S
C1858 C1857 1.387 . S
C1858 C1861 1.387 . S
H1859 C1855 0.950 . S
H1860 C1857 0.950 . S
C1861 C1852 1.390 . S
C1861 H1854 0.950 . S
C1861 C1858 1.387 . S
C1862 C1863 1.387 . S
C1862 H1866 0.950 . S
C1862 C1871 1.390 . S
C1863 C1862 1.387 . S
C1863 C1865 1.387 . S
H1864 C1871 0.950 . S
C1865 C1863 1.387 . S
C1865 C1867 1.390 . S
C1865 H1869 0.950 . S
H1866 C1862 0.950 . S
C1867 C1865 1.390 . S
C1867 C1868 1.387 . S
C1867 H1870 0.950 . S
C1868 C1867 1.387 . S
C1868 C1871 1.387 . S
H1869 C1865 0.950 . S
H1870 C1867 0.950 . S
C1871 C1862 1.390 . S
C1871 H1864 0.950 . S
C1871 C1868 1.387 . S
C1872 C1873 1.387 . S
C1872 H1876 0.950 . S
C1872 C1881 1.390 . S
C1873 C1872 1.387 . S
C1873 C1875 1.387 . S
H1874 C1881 0.950 . S
C1875 C1873 1.387 . S
C1875 C1877 1.390 . S
C1875 H1879 0.950 . S
H1876 C1872 0.950 . S
C1877 C1875 1.390 . S
C1877 C1878 1.387 . S
C1877 H1880 0.950 . S
C1878 C1877 1.387 . S
C1878 C1881 1.387 . S
H1879 C1875 0.950 . S
H1880 C1877 0.950 . S
C1881 C1872 1.390 . S
C1881 H1874 0.950 . S
C1881 C1878 1.387 . S
C1882 C1883 1.387 . S
C1882 H1886 0.950 1_554 S
C1882 C1891 1.390 1_554 S
C1883 C1882 1.387 . S
C1883 C1885 1.387 . S
H1884 C1891 0.950 . S
C1885 C1883 1.387 . S
C1885 C1887 1.390 . S
C1885 H1889 0.950 . S
H1886 C1882 0.950 1_556 S
C1887 C1885 1.390 . S
C1887 C1888 1.387 . S
C1887 H1890 0.950 . S
C1888 C1887 1.387 . S
C1888 C1891 1.387 1_554 S
H1889 C1885 0.950 . S
H1890 C1887 0.950 . S
C1891 C1882 1.390 1_556 S
C1891 H1884 0.950 . S
C1891 C1888 1.387 1_556 S
C1892 C1893 1.387 . S
C1892 H1896 0.950 . S
C1892 C1901 1.390 . S
C1893 C1892 1.387 . S
C1893 C1895 1.387 . S
H1894 C1901 0.950 . S
C1895 C1893 1.387 . S
C1895 C1897 1.390 . S
C1895 H1899 0.950 . S
H1896 C1892 0.950 . S
C1897 C1895 1.390 . S
C1897 C1898 1.387 . S
C1897 H1900 0.950 . S
C1898 C1897 1.387 . S
C1898 C1901 1.387 . S
H1899 C1895 0.950 . S
H1900 C1897 0.950 . S
C1901 C1892 1.390 . S
C1901 H1894 0.950 . S
C1901 C1898 1.387 . S
C1902 C1903 1.387 . S
C1902 H1906 0.950 . S
C1902 C1911 1.390 . S
C1903 C1902 1.387 . S
C1903 C1905 1.387 . S
H1904 C1911 0.950 . S
C1905 C1903 1.387 . S
C1905 C1907 1.390 . S
C1905 H1909 0.950 . S
H1906 C1902 0.950 . S
C1907 C1905 1.390 . S
C1907 C1908 1.387 . S
C1907 H1910 0.950 . S
C1908 C1907 1.387 . S
C1908 C1911 1.387 . S
H1909 C1905 0.950 . S
H1910 C1907 0.950 . S
C1911 C1902 1.390 . S
C1911 H1904 0.950 . S
C1911 C1908 1.387 . S
C953 C101 2.491 1_455 S
C958 C325 2.515 . S
C963 C57 2.103 . S
C968 C376 2.136 . S
C973 C73 1.820 . S
C978 C405 1.954 1_565 S
C988 C449 1.401 . S
C983 C78 1.418 . S
C993 C21 1.359 . S
C998 C489 1.352 . S
C1008 C525 1.875 . S
C1003 C31 1.747 . S
C1018 C575 2.005 . S
C1013 C49 1.945 . S
C1023 C0 2.316 . S
C1028 C605 2.489 . S
C1038 C335 2.080 . S
C1033 C218 2.126 . S
C1043 C229 0.794 . S
C1048 C378 0.789 . S
C1058 C415 1.336 . S
C1053 C257 1.308 . S
C1068 C445 1.574 . S
C1063 C164 1.461 . S
C1073 C216 1.493 1_455 S
C1078 C485 1.592 . S
C1088 C535 0.969 . S
C1083 C231 0.960 . S
C1098 C569 0.968 . S
C1093 C255 0.970 . S
C1108 C615 2.048 . S
C1103 C166 2.088 . S
C1118 C329 1.384 . S
C1113 C143 1.339 . S
C1123 C265 1.724 . S
C1128 C655 1.752 . S
C1138 C689 1.468 . S
C1133 C299 1.472 . S
C1148 C725 0.838 . S
C1143 C291 0.829 . S
C1153 C104 1.420 . S
C1158 C609 1.493 . S
C1163 C117 1.525 . S
C1168 C409 1.526 . S
C1173 C304 1.612 . S
C1178 C775 1.640 . S
C1188 C794 0.328 . S
C1183 C278 0.477 . S
C1198 C336 2.466 . S
C1193 C60 2.470 . S
C1208 C805 2.055 . S
C1203 C96 2.077 . S
C1213 C88 1.854 . S
C1218 C416 1.860 . S
C1223 C65 1.497 . S
C1228 C778 1.369 . S
C1238 C498 1.308 . S
C1233 C10 1.368 . S
C1243 C44 1.679 . S
C1248 C696 1.784 . S
C1258 C554 1.946 1_566 S
C1253 C34 1.841 . S
C1268 C856 2.433 . S
C1263 C13 2.445 . S
C1278 C314 2.022 . S
C1273 C138 2.047 . S
C1288 C809 0.804 . S
C1283 C296 0.811 . S
C1293 C112 1.301 . S
C1298 C394 1.295 . S
C1303 C270 1.483 . S
C1308 C776 1.482 . S
C1313 C140 1.497 . S
C1318 C496 1.494 . S
C1328 C674 0.920 . S
C1323 C294 0.914 . S
C1333 C114 0.992 1_565 S
C1338 C578 0.948 . S
C1343 C268 2.016 . S
C1348 C834 1.994 . S
C1353 C169 1.606 . S
C1358 C338 1.398 . S
C1363 C161 1.705 . S
C1368 C634 1.705 . S
C1373 C234 1.661 . S
C1378 C538 1.494 . S
C1383 C226 0.784 . S
C1388 C736 0.787 . S
C1398 C858 1.496 1_545 S
C1393 C247 1.670 . S
C1403 C195 1.724 . S
C1408 C418 1.551 . S
C1418 C434 1.591 . S
C1413 C239 1.591 . S
C1428 C375 0.263 . S
C1423 C187 0.296 . S
C1433 C75 2.491 . S
C1438 C885 2.515 . S
C1448 C816 2.135 . S
C1443 C83 2.103 . S
C1453 C99 1.823 . S
C1458 C925 1.973 . S
C1463 C52 1.394 1_655 S
C1468 C769 1.397 . S
C1473 C47 1.358 . S
C1478 C649 1.352 . S
C1488 C685 1.875 . S
C1483 C5 1.749 . S
C1498 C735 2.005 . S
C1493 C23 1.947 . S
C1508 C845 2.489 . S
C1503 C26 2.316 . S
C1518 C895 2.079 . S
C1513 C244 2.115 . S
C1523 C177 0.794 . S
C1528 C818 0.802 . S
C1538 C935 1.336 . S
C1533 C192 1.308 . S
C1548 C765 1.574 . S
C1543 C203 1.460 . S
C1558 C645 1.592 . S
C1553 C242 1.490 . S
C1563 C179 0.959 . S
C1568 C695 0.970 . S
C1578 C729 0.967 . S
C1573 C190 0.971 . S
C1583 C205 2.088 . S
C1588 C855 2.048 . S
C1598 C889 1.381 . S
C1593 C286 1.338 . S
C1603 C122 1.724 . S
C1608 C495 1.751 . S
C1618 C529 1.469 . S
C1613 C130 1.473 . S
C1628 C565 0.839 . S
C1623 C148 0.830 . S
C1638 C849 1.495 . S
C1633 C273 1.422 . S
C1643 C260 1.526 . S
C1648 C929 1.527 . S
C1658 C455 1.640 . S
C1653 C135 1.612 . S
C1668 C354 0.327 . S
C1663 C109 0.469 . S
C1673 C86 2.470 . S
C1678 C896 2.467 . S
C1688 C365 2.054 . S
C1683 C70 2.077 . S
C1693 C62 1.854 . S
C1698 C936 1.860 . S
C1703 C91 1.497 . S
C1708 C458 1.369 . S
C1713 C36 1.369 . S
C1718 C658 1.312 . S
C1728 C536 1.784 . S
C1723 C18 1.679 . S
C1733 C8 1.841 . S
C1738 C714 1.945 . S
C1743 C39 2.445 . S
C1748 C616 2.433 . S
C1758 C874 2.022 . S
C1753 C307 2.049 . S
C1763 C153 0.811 . S
C1768 C369 0.800 . S
C1778 C914 1.297 1_655 S
C1773 C281 1.299 . S
C1783 C127 1.482 . S
C1788 C456 1.482 . S
C1793 C309 1.497 . S
C1798 C656 1.493 . S
C1808 C514 0.920 . S
C1803 C151 0.919 . S
C1813 C283 0.992 . S
C1818 C738 0.948 . S
C1828 C594 1.994 . S
C1823 C125 2.016 . S
C1838 C898 1.399 . S
C1833 C221 1.606 . S
C1848 C474 1.705 . S
C1843 C200 1.706 . S
C1853 C208 1.661 . S
C1858 C698 1.494 . S
C1868 C576 0.786 . S
C1863 C174 0.784 . S
C1873 C182 1.671 . S
C1878 C618 1.496 . S
C1883 C156 1.724 . S
C1888 C938 1.547 1_554 S
C1898 C754 1.591 . S
C1893 C213 1.591 . S
C1908 C815 0.263 . S
C1903 C252 0.296 . S
