# Generated by pormake.
# Topology soc, (4,6)-cn, num edge types: 1
# Building blocks:
#     Node 0, Type 0, BuildingBlock: ESEHIV_clean_sbu_0, # of connection points: 4
#     Node 1, Type 0, BuildingBlock: ESEHIV_clean_sbu_0, # of connection points: 4
#     Node 2, Type 0, BuildingBlock: ESEHIV_clean_sbu_0, # of connection points: 4
#     Node 3, Type 0, BuildingBlock: ESEHIV_clean_sbu_0, # of connection points: 4
#     Node 4, Type 0, BuildingBlock: ESEHIV_clean_sbu_0, # of connection points: 4
#     Node 5, Type 0, BuildingBlock: ESEHIV_clean_sbu_0, # of connection points: 4
#     Node 6, Type 0, BuildingBlock: ESEHIV_clean_sbu_0, # of connection points: 4
#     Node 7, Type 0, BuildingBlock: ESEHIV_clean_sbu_0, # of connection points: 4
#     Node 8, Type 0, BuildingBlock: ESEHIV_clean_sbu_0, # of connection points: 4
#     Node 9, Type 0, BuildingBlock: ESEHIV_clean_sbu_0, # of connection points: 4
#     Node 10, Type 0, BuildingBlock: ESEHIV_clean_sbu_0, # of connection points: 4
#     Node 11, Type 0, BuildingBlock: ESEHIV_clean_sbu_0, # of connection points: 4
#     Node 12, Type 1, BuildingBlock: BETFAJ_clean_sbu_0, # of connection points: 6
#     Node 13, Type 1, BuildingBlock: BETFAJ_clean_sbu_0, # of connection points: 6
#     Node 14, Type 1, BuildingBlock: BETFAJ_clean_sbu_0, # of connection points: 6
#     Node 15, Type 1, BuildingBlock: BETFAJ_clean_sbu_0, # of connection points: 6
#     Node 16, Type 1, BuildingBlock: BETFAJ_clean_sbu_0, # of connection points: 6
#     Node 17, Type 1, BuildingBlock: BETFAJ_clean_sbu_0, # of connection points: 6
#     Node 18, Type 1, BuildingBlock: BETFAJ_clean_sbu_0, # of connection points: 6
#     Node 19, Type 1, BuildingBlock: BETFAJ_clean_sbu_0, # of connection points: 6
#     Edge 20, Type (0, 1), BuildingBlock: KIFKEQ_clean_linker_1, # of connection points: 2
#     Edge 21, Type (0, 1), BuildingBlock: KIFKEQ_clean_linker_1, # of connection points: 2
#     Edge 22, Type (0, 1), BuildingBlock: KIFKEQ_clean_linker_1, # of connection points: 2
#     Edge 23, Type (0, 1), BuildingBlock: KIFKEQ_clean_linker_1, # of connection points: 2
#     Edge 24, Type (0, 1), BuildingBlock: KIFKEQ_clean_linker_1, # of connection points: 2
#     Edge 25, Type (0, 1), BuildingBlock: KIFKEQ_clean_linker_1, # of connection points: 2
#     Edge 26, Type (0, 1), BuildingBlock: KIFKEQ_clean_linker_1, # of connection points: 2
#     Edge 27, Type (0, 1), BuildingBlock: KIFKEQ_clean_linker_1, # of connection points: 2
#     Edge 28, Type (0, 1), BuildingBlock: KIFKEQ_clean_linker_1, # of connection points: 2
#     Edge 29, Type (0, 1), BuildingBlock: KIFKEQ_clean_linker_1, # of connection points: 2
#     Edge 30, Type (0, 1), BuildingBlock: KIFKEQ_clean_linker_1, # of connection points: 2
#     Edge 31, Type (0, 1), BuildingBlock: KIFKEQ_clean_linker_1, # of connection points: 2
#     Edge 32, Type (0, 1), BuildingBlock: KIFKEQ_clean_linker_1, # of connection points: 2
#     Edge 33, Type (0, 1), BuildingBlock: KIFKEQ_clean_linker_1, # of connection points: 2
#     Edge 34, Type (0, 1), BuildingBlock: KIFKEQ_clean_linker_1, # of connection points: 2
#     Edge 35, Type (0, 1), BuildingBlock: KIFKEQ_clean_linker_1, # of connection points: 2
#     Edge 36, Type (0, 1), BuildingBlock: KIFKEQ_clean_linker_1, # of connection points: 2
#     Edge 37, Type (0, 1), BuildingBlock: KIFKEQ_clean_linker_1, # of connection points: 2
#     Edge 38, Type (0, 1), BuildingBlock: KIFKEQ_clean_linker_1, # of connection points: 2
#     Edge 39, Type (0, 1), BuildingBlock: KIFKEQ_clean_linker_1, # of connection points: 2
#     Edge 40, Type (0, 1), BuildingBlock: KIFKEQ_clean_linker_1, # of connection points: 2
#     Edge 41, Type (0, 1), BuildingBlock: KIFKEQ_clean_linker_1, # of connection points: 2
#     Edge 42, Type (0, 1), BuildingBlock: KIFKEQ_clean_linker_1, # of connection points: 2
#     Edge 43, Type (0, 1), BuildingBlock: KIFKEQ_clean_linker_1, # of connection points: 2
#     Edge 44, Type (0, 1), BuildingBlock: KIFKEQ_clean_linker_1, # of connection points: 2
#     Edge 45, Type (0, 1), BuildingBlock: KIFKEQ_clean_linker_1, # of connection points: 2
#     Edge 46, Type (0, 1), BuildingBlock: KIFKEQ_clean_linker_1, # of connection points: 2
#     Edge 47, Type (0, 1), BuildingBlock: KIFKEQ_clean_linker_1, # of connection points: 2
#     Edge 48, Type (0, 1), BuildingBlock: KIFKEQ_clean_linker_1, # of connection points: 2
#     Edge 49, Type (0, 1), BuildingBlock: KIFKEQ_clean_linker_1, # of connection points: 2
#     Edge 50, Type (0, 1), BuildingBlock: KIFKEQ_clean_linker_1, # of connection points: 2
#     Edge 51, Type (0, 1), BuildingBlock: KIFKEQ_clean_linker_1, # of connection points: 2
#     Edge 52, Type (0, 1), BuildingBlock: KIFKEQ_clean_linker_1, # of connection points: 2
#     Edge 53, Type (0, 1), BuildingBlock: KIFKEQ_clean_linker_1, # of connection points: 2
#     Edge 54, Type (0, 1), BuildingBlock: KIFKEQ_clean_linker_1, # of connection points: 2
#     Edge 55, Type (0, 1), BuildingBlock: KIFKEQ_clean_linker_1, # of connection points: 2
#     Edge 56, Type (0, 1), BuildingBlock: KIFKEQ_clean_linker_1, # of connection points: 2
#     Edge 57, Type (0, 1), BuildingBlock: KIFKEQ_clean_linker_1, # of connection points: 2
#     Edge 58, Type (0, 1), BuildingBlock: KIFKEQ_clean_linker_1, # of connection points: 2
#     Edge 59, Type (0, 1), BuildingBlock: KIFKEQ_clean_linker_1, # of connection points: 2
#     Edge 60, Type (0, 1), BuildingBlock: KIFKEQ_clean_linker_1, # of connection points: 2
#     Edge 61, Type (0, 1), BuildingBlock: KIFKEQ_clean_linker_1, # of connection points: 2
#     Edge 62, Type (0, 1), BuildingBlock: KIFKEQ_clean_linker_1, # of connection points: 2
#     Edge 63, Type (0, 1), BuildingBlock: KIFKEQ_clean_linker_1, # of connection points: 2
#     Edge 64, Type (0, 1), BuildingBlock: KIFKEQ_clean_linker_1, # of connection points: 2
#     Edge 65, Type (0, 1), BuildingBlock: KIFKEQ_clean_linker_1, # of connection points: 2
#     Edge 66, Type (0, 1), BuildingBlock: KIFKEQ_clean_linker_1, # of connection points: 2
#     Edge 67, Type (0, 1), BuildingBlock: KIFKEQ_clean_linker_1, # of connection points: 2
# Relax obj value: 0.185
# Max RMSD: 0.281
# Mean RMSD: 0.174
data_MOF--net-soc--node1-ESEHIV_clean_sbu_0--node2-BETFAJ_clean_sbu_0--edge1-KIFKEQ_clean_linker_1
_symmetry_space_group_name_H-M    P1
_symmetry_Int_Tables_number       1
_symmetry_cell_setting            triclinic
loop_
_symmetry_equiv_pos_as_xyz
'x, y, z'
_cell_length_a     52.171439
_cell_length_b     50.927806
_cell_length_c     43.95074
_cell_angle_alpha  81.542333
_cell_angle_beta   82.536121
_cell_angle_gamma 69.348374
loop_
_atom_site_label
_atom_site_type_symbol
_atom_site_fract_x
_atom_site_fract_y
_atom_site_fract_z
_atom_type_partial_charge
Cu0 Cu 0.0431 0.02733 0.39984 0.0
N1 N 0.05469 0.05065 0.41998 0.0
N2 N 0.07614 0.0799 0.42802 0.0
C3 C 0.07656 0.05923 0.4116 0.0
C4 C 0.05324 0.08414 0.44768 0.0
C5 C 0.04001 0.06637 0.44246 0.0
O6 O 0.07451 0.99839 0.38153 0.0
C7 C 1.01456 0.076 0.36016 0.0
O8 O 0.03584 0.08395 0.36075 0.0
H9 H 0.09141 0.05181 0.39246 0.0
H10 H 1.0202 0.06616 0.45309 0.0
N11 N 0.02446 1.00735 0.42754 0.0
N12 N 0.99937 0.97941 0.44264 0.0
C13 C 1.01323 0.98988 0.41879 0.0
C14 C 1.01771 1.00772 0.45817 0.0
C15 C 1.00198 0.99063 0.46751 0.0
C16 C 0.09195 1.00122 0.35936 0.0
O17 O 0.08888 0.02632 0.34446 0.0
H18 H 1.01455 0.98559 0.39512 0.0
H19 H 0.02359 0.0196 0.47274 0.0
O20 O 1.01551 0.05142 0.37236 0.0
H21 H 0.04593 0.09964 0.46406 0.0
H22 H 0.99328 0.98664 0.49072 0.0
Cu23 Cu 0.04892 0.05637 0.74395 0.0
N24 N 0.03472 0.03614 0.72246 0.0
N25 N 1.01192 1.00796 0.71515 0.0
C26 C 1.01749 0.02237 0.73541 0.0
C27 C 0.02626 0.01286 0.68839 0.0
C28 C 0.04047 0.03005 0.69303 0.0
O29 O 1.01816 0.08285 0.7664 0.0
C30 C 0.09897 0.01572 0.7531 0.0
O31 O 0.10049 0.02188 0.72297 0.0
H32 H 1.00943 0.02275 0.75937 0.0
H33 H 0.05468 0.03674 0.67637 0.0
N34 N 0.06682 0.07876 0.71872 0.0
N35 N 0.0916 0.10747 0.70837 0.0
C36 C 0.08182 0.09109 0.73026 0.0
C37 C 0.06701 0.08764 0.6883 0.0
C38 C 0.08247 0.10526 0.68181 0.0
C39 C 1.00287 0.10285 0.74878 0.0
O40 O 1.0082 0.10252 0.71877 0.0
H41 H 0.08544 0.08796 0.75443 0.0
H42 H 0.05609 0.08247 0.67212 0.0
O43 O 0.07686 0.02862 0.7688 0.0
H44 H 0.02723 1.00383 0.66728 0.0
H45 H 0.08602 0.11618 0.65949 0.0
Cu46 Cu 0.3242 0.04346 0.11879 0.0
N47 N 0.34352 1.00627 0.1115 0.0
N48 N 0.35201 0.96243 0.10066 0.0
C49 C 0.3328 0.98804 0.10367 0.0
C50 C 0.37588 0.9648 0.10624 0.0
C51 C 0.37057 0.99193 0.11289 0.0
O52 O 0.28612 0.04771 0.13358 0.0
C53 C 0.3047 0.08922 0.07125 0.0
O54 O 0.28127 0.09374 0.08834 0.0
H55 H 0.3114 0.99369 0.09961 0.0
H56 H 0.38542 1.00065 0.11814 0.0
N57 N 0.33957 0.05364 0.1493 0.0
N58 N 0.34599 0.07986 0.18222 0.0
C59 C 0.33304 0.07982 0.15752 0.0
C60 C 0.35726 0.03654 0.16943 0.0
C61 C 0.36129 0.05263 0.18971 0.0
C62 C 0.27238 0.03275 0.1485 0.0
O63 O 0.24557 0.0449 0.15228 0.0
H64 H 0.3182 0.09826 0.14638 0.0
H65 H 0.36597 0.01384 0.17005 0.0
O66 O 0.3257 0.06865 0.08018 0.0
H67 H 0.39575 0.9482 0.10545 0.0
H68 H 0.37422 0.04481 0.20873 0.0
Cu69 Cu 0.06982 0.3153 0.10673 0.0
N70 N 0.07927 0.33808 0.07283 0.0
N71 N 0.10258 0.34884 0.02923 0.0
C72 C 0.10391 0.33218 0.05631 0.0
C73 C 0.07615 0.36614 0.0289 0.0
C74 C 0.06185 0.35949 0.05585 0.0
O75 O 0.10053 0.29968 0.13396 0.0
C76 C 0.06161 0.28348 0.06178 0.0
O77 O 0.08322 0.28751 0.0458 0.0
H78 H 0.12182 0.31435 0.06274 0.0
H79 H 0.03993 0.36827 0.06167 0.0
N80 N 0.03905 0.33623 0.13046 0.0
N81 N 0.99898 0.34539 0.15944 0.0
C82 C 1.01698 0.32831 0.13977 0.0
C83 C 0.03492 0.35927 0.14461 0.0
C84 C 1.01019 0.36493 0.16261 0.0
C85 C 0.11243 0.31662 0.13882 0.0
O86 O 0.10447 0.34242 0.12476 0.0
H87 H 1.01484 0.30948 0.13344 0.0
H88 H 0.04922 0.37058 0.14276 0.0
O89 O 0.05593 0.28965 0.08958 0.0
H90 H 0.06753 0.38159 1.00992 0.0
H91 H 1.00139 0.38182 0.17724 0.0
Cu92 Cu 0.79314 1.00688 0.02542 0.0
N93 N 0.81515 0.02499 1.00115 0.0
N94 N 0.82326 0.06177 0.97278 0.0
C95 C 0.80412 0.05145 0.98801 0.0
C96 C 0.84756 0.04071 0.97672 0.0
C97 C 0.84247 0.01796 0.9944 0.0
O98 O 0.77219 0.03455 0.05416 0.0
C99 C 0.78897 0.98243 0.97537 0.0
O100 O 0.81496 0.98034 0.97235 0.0
H101 H 0.78233 0.06313 0.99076 0.0
H102 H 0.85753 0.99801 1.00212 0.0
N103 N 0.81285 0.97458 0.04947 0.0
N104 N 0.81955 0.94183 0.09002 0.0
C105 C 0.80429 0.9679 0.07877 0.0
C106 C 0.83435 0.95187 0.04175 0.0
C107 C 0.83847 0.93144 0.06684 0.0
C108 C 0.78796 0.03891 0.07135 0.0
O109 O 0.81443 0.02463 0.06827 0.0
H110 H 0.78611 0.98127 0.091 0.0
H111 H 0.84542 0.94979 1.01916 0.0
O112 O 0.7736 0.99469 0.9979 0.0
H113 H 0.86756 0.04162 0.96769 0.0
H114 H 0.85357 0.91039 0.06772 0.0
Cu115 Cu 0.03581 0.74727 1.01867 0.0
N116 N 1.01997 0.7313 0.99365 0.0
N117 N 0.99142 0.72773 0.96155 0.0
C118 C 0.99813 0.74518 0.97707 0.0
C119 C 1.00991 0.70184 0.96886 0.0
C120 C 0.02741 0.70412 0.98856 0.0
O121 O 1.00471 0.76966 0.04516 0.0
C122 C 0.0736 0.77881 0.99774 0.0
O123 O 0.06887 0.78746 0.02532 0.0
H124 H 0.98756 0.76772 0.97633 0.0
H125 H 0.04426 0.68713 0.99864 0.0
N126 N 0.05859 0.71946 0.04575 0.0
N127 N 0.08874 0.7032 0.0819 0.0
C128 C 0.08114 0.72102 0.05615 0.0
C129 C 0.05199 0.69939 0.06522 0.0
C130 C 0.07054 0.6893 0.08752 0.0
C131 C 1.00674 0.77384 0.07257 0.0
O132 O 0.03121 0.76924 0.08138 0.0
H133 H 0.09012 0.73694 0.04698 0.0
H134 H 0.03361 0.69425 0.06484 0.0
O135 O 0.05962 0.76478 0.99066 0.0
H136 H 1.01056 0.68242 0.96106 0.0
H137 H 0.06957 0.67427 0.1074 0.0
Cu138 Cu 0.53845 0.53812 0.88739 0.0
N139 N 0.54858 0.56114 0.90944 0.0
N140 N 0.5687 0.59093 0.91895 0.0
C141 C 0.56724 0.5738 0.89903 0.0
C142 C 0.5502 0.58889 0.9429 0.0
C143 C 0.53783 0.57047 0.93696 0.0
O144 O 0.57096 0.51439 0.86429 0.0
C145 C 0.50377 0.58752 0.85304 0.0
O146 O 0.52401 0.59746 0.85143 0.0
H147 H 0.57876 0.57124 0.87669 0.0
H148 H 0.52175 0.56472 0.95135 0.0
N149 N 0.52484 0.51273 0.91291 0.0
N150 N 0.50493 0.47969 0.92245 0.0
C151 C 0.50807 0.50161 0.90293 0.0
C152 C 0.53256 0.49765 0.94 0.0
C153 C 0.52013 0.47728 0.94607 0.0
C154 C 0.59217 0.50281 0.8794 0.0
O155 O 0.59112 0.50889 0.90766 0.0
H156 H 0.49937 0.50889 0.88093 0.0
H157 H 0.54735 0.50017 0.95341 0.0
O158 O 0.50745 0.56208 0.86428 0.0
H159 H 0.54578 0.60002 0.96318 0.0
H160 H 0.5234 0.46101 0.96543 0.0
Cu161 Cu 0.55536 0.5455 0.25763 0.0
N162 N 0.54368 0.52305 0.23648 0.0
N163 N 0.52182 0.49423 0.22862 0.0
C164 C 0.52485 0.51093 0.2481 0.0
C165 C 0.53954 0.49599 0.20373 0.0
C166 C 0.55303 0.51374 0.20868 0.0
O167 O 0.52297 0.57241 0.2772 0.0
C168 C 0.60573 0.50723 0.27024 0.0
O169 O 0.60884 0.51295 0.24015 0.0
H170 H 0.51425 0.51366 0.27089 0.0
H171 H 0.56891 0.51899 0.19338 0.0
N172 N 0.57293 0.56756 0.23154 0.0
N173 N 0.59981 0.59393 0.2185 0.0
C174 C 0.59001 0.5784 0.24141 0.0
C175 C 0.57152 0.57672 0.20128 0.0
C176 C 0.58813 0.59306 0.19314 0.0
C177 C 0.50504 0.58653 0.25839 0.0
O178 O 0.50967 0.58084 0.22956 0.0
H179 H 0.59477 0.57519 0.26521 0.0
H180 H 0.55921 0.57204 0.18627 0.0
O181 O 0.5826 0.51946 0.28459 0.0
H182 H 0.54265 0.48519 0.1834 0.0
H183 H 0.5915 0.60325 0.17033 0.0
Cu184 Cu 0.79707 0.58109 0.59598 0.0
N185 N 0.77885 0.604 0.56311 0.0
N186 N 0.77518 0.62517 0.51489 0.0
C187 C 0.79237 0.60945 0.53622 0.0
C188 C 0.74963 0.63005 0.52917 0.0
C189 C 0.75197 0.61672 0.55901 0.0
O190 O 0.81234 0.60407 0.61496 0.0
C191 C 0.83245 0.5231 0.58777 0.0
O192 O 0.8319 0.51715 0.61792 0.0
H193 H 0.81457 0.60213 0.53265 0.0
H194 H 0.73536 0.6161 0.57629 0.0
N195 N 0.77257 0.56985 0.62505 0.0
N196 N 0.75755 0.53956 0.65793 0.0
C197 C 0.77047 0.54398 0.63003 0.0
C198 C 0.75938 0.58283 0.64999 0.0
C199 C 0.75015 0.56416 0.67038 0.0
C200 C 0.82142 0.59802 0.64159 0.0
O201 O 0.82487 0.57277 0.65628 0.0
H202 H 0.78059 0.52774 0.61491 0.0
H203 H 0.75878 0.60342 0.65427 0.0
O204 O 0.82255 0.54868 0.57618 0.0
H205 H 0.73066 0.64204 0.51876 0.0
H206 H 0.74064 0.56773 0.6935 0.0
Cu207 Cu 0.5787 0.79861 0.60153 0.0
N208 N 0.60843 0.77739 0.57554 0.0
N209 N 0.6433 0.7695 0.53809 0.0
C210 C 0.6193 0.78811 0.54901 0.0
C211 C 0.64758 0.7461 0.55847 0.0
C212 C 0.62616 0.75099 0.58141 0.0
O213 O 0.59538 0.81454 0.62868 0.0
C214 C 0.54258 0.81237 0.55848 0.0
O215 O 0.55159 0.78464 0.56183 0.0
H216 H 0.61056 0.80972 0.53889 0.0
H217 H 0.62444 0.73668 0.60167 0.0
N218 N 0.55755 0.77841 0.62651 0.0
N219 N 0.52093 0.77074 0.65449 0.0
C220 C 0.53048 0.78961 0.63598 0.0
C221 C 0.5652 0.75137 0.63929 0.0
C222 C 0.54283 0.74668 0.65665 0.0
C223 C 0.61041 0.79663 0.64839 0.0
O224 O 0.61208 0.77015 0.64992 0.0
H225 H 0.51816 0.81142 0.62992 0.0
H226 H 0.58566 0.7361 0.63657 0.0
O227 O 0.55256 0.82524 0.57396 0.0
H228 H 0.66526 0.72696 0.55728 0.0
H229 H 0.54268 0.727 0.66978 0.0
Cu230 Cu 0.28796 0.50258 0.53445 0.0
N231 N 0.30863 0.52052 0.50558 0.0
N232 N 0.31649 0.55594 0.47312 0.0
C233 C 0.29949 0.5485 0.49591 0.0
C234 C 0.33724 0.53165 0.46819 0.0
C235 C 0.33245 0.50991 0.48829 0.0
O236 O 0.26746 0.53207 0.56028 0.0
C237 C 0.282 0.47096 0.49349 0.0
O238 O 0.30862 0.46166 0.49592 0.0
H239 H 0.28014 0.56302 0.50471 0.0
H240 H 0.34516 0.48787 0.4896 0.0
N241 N 0.30806 0.4713 0.56099 0.0
N242 N 0.31638 0.43716 0.60114 0.0
C243 C 0.29702 0.45808 0.58535 0.0
C244 C 0.33538 0.45838 0.56128 0.0
C245 C 0.34056 0.43742 0.58584 0.0
C246 C 0.28426 0.53923 0.57294 0.0
O247 O 0.3106 0.52448 0.56956 0.0
H248 H 0.2751 0.4639 0.59128 0.0
H249 H 0.35053 0.46411 0.54513 0.0
O250 O 0.26668 0.4898 0.51035 0.0
H251 H 0.3546 0.5297 0.45117 0.0
H252 H 0.36075 0.42393 0.59221 0.0
Cu253 Cu 0.51478 0.26579 0.52954 0.0
N254 N 0.546 0.24795 0.50368 0.0
N255 N 0.58706 0.24077 0.47683 0.0
C256 C 0.56616 0.25866 0.49322 0.0
C257 C 0.57955 0.21798 0.47669 0.0
C258 C 0.55427 0.22247 0.49319 0.0
O259 O 0.52677 0.2902 0.55132 0.0
C260 C 0.47658 0.26554 0.49077 0.0
O261 O 0.49073 0.23855 0.49608 0.0
H262 H 0.56585 0.27886 0.4985 0.0
H263 H 0.543 0.20793 0.49746 0.0
N264 N 0.50604 0.24037 0.56103 0.0
N265 N 0.48853 0.2258 0.60707 0.0
C266 C 0.48824 0.24806 0.5859 0.0
C267 C 0.51806 0.21223 0.5665 0.0
C268 C 0.50725 0.20318 0.59473 0.0
C269 C 0.54794 0.27597 0.56597 0.0
O270 O 0.55761 0.24844 0.56556 0.0
H271 H 0.47588 0.26979 0.58856 0.0
H272 H 0.53446 0.19929 0.55183 0.0
O273 O 0.48304 0.28295 0.50389 0.0
H274 H 0.59141 0.19934 0.46548 0.0
H275 H 0.51367 0.18173 0.60578 0.0
Sm276 Sm 0.26857 0.28766 0.3509 0.0
Sm277 Sm 0.30254 0.3135 0.29941 0.0
C278 C 0.2382 0.26132 0.38666 0.0
C279 C 0.22528 0.23959 0.38807 0.0
C280 C 0.2117 0.23737 0.36347 0.0
C281 C 0.19776 0.21793 0.36672 0.0
C282 C 0.19715 0.20045 0.39461 0.0
C283 C 0.21162 0.20217 0.41869 0.0
C284 C 0.22547 0.22155 0.41544 0.0
C285 C 0.31327 0.29597 0.37074 0.0
C286 C 0.30693 0.24884 0.29627 0.0
C287 C 0.34059 0.33233 0.26774 0.0
C288 C 0.35864 0.34912 0.26747 0.0
C289 C 0.37699 0.34409 0.29016 0.0
C290 C 0.39499 0.35945 0.28762 0.0
C291 C 0.39502 0.37994 0.26229 0.0
C292 C 0.37613 0.38525 0.24014 0.0
C293 C 0.35824 0.36999 0.24269 0.0
C294 C 0.25507 0.31558 0.27484 0.0
C295 C 0.25924 0.35351 0.34916 0.0
O296 O 0.22777 0.28517 0.36932 0.0
O297 O 0.26505 0.25263 0.38601 0.0
O298 O 0.31302 0.28696 0.3454 0.0
O299 O 0.28991 0.2995 0.38684 0.0
O300 O 0.2877 0.25187 0.31957 0.0
O301 O 0.31757 0.26868 0.28549 0.0
O302 O 0.34642 0.30764 0.28424 0.0
O303 O 0.3142 0.3462 0.26749 0.0
O304 O 0.26162 0.30603 0.30201 0.0
O305 O 0.27365 0.32515 0.2601 0.0
O306 O 0.28262 0.34844 0.3315 0.0
O307 O 0.24662 0.33474 0.35581 0.0
H308 H 0.21135 0.25103 0.34205 0.0
H309 H 0.18671 0.21728 0.34778 0.0
H310 H 0.21203 0.18869 0.44025 0.0
H311 H 0.23593 0.22282 0.43464 0.0
H312 H 0.3777 0.3281 0.30954 0.0
H313 H 0.40936 0.35476 0.30501 0.0
H314 H 0.37517 0.40123 0.22069 0.0
H315 H 0.34426 0.37425 0.22493 0.0
Sm316 Sm 0.80748 0.29689 0.35302 0.0
Sm317 Sm 0.79326 0.27387 0.30229 0.0
C318 C 0.82206 0.32667 0.38827 0.0
C319 C 0.81795 0.34744 0.41055 0.0
C320 C 0.81518 0.37564 0.39978 0.0
C321 C 0.81665 0.39403 0.41973 0.0
C322 C 0.82104 0.38473 0.45102 0.0
C323 C 0.82263 0.35686 0.4621 0.0
C324 C 0.82125 0.33841 0.44208 0.0
C325 C 0.83841 0.24045 0.34832 0.0
C326 C 0.75876 0.27232 0.37062 0.0
C327 C 0.77908 0.24352 0.26753 0.0
C328 C 0.78231 0.22379 0.24445 0.0
C329 C 0.79678 0.19474 0.25034 0.0
C330 C 0.79541 0.17572 0.2311 0.0
C331 C 0.77945 0.18524 0.20557 0.0
C332 C 0.76594 0.21444 0.19899 0.0
C333 C 0.76729 0.23345 0.21826 0.0
C334 C 0.76382 0.33051 0.30533 0.0
C335 C 0.84019 0.30054 0.28375 0.0
O336 O 0.81541 0.33564 0.35996 0.0
O337 O 0.82035 0.30174 0.39785 0.0
O338 O 0.83239 0.25954 0.32612 0.0
O339 O 0.82823 0.25091 0.37415 0.0
O340 O 0.76708 0.29247 0.37671 0.0
O341 O 0.76948 0.25911 0.34584 0.0
O342 O 0.78892 0.23367 0.29441 0.0
O343 O 0.77756 0.26967 0.2588 0.0
O344 O 0.76864 0.31202 0.32832 0.0
O345 O 0.77408 0.31927 0.27993 0.0
O346 O 0.83274 0.27973 0.27786 0.0
O347 O 0.82975 0.3132 0.30898 0.0
H348 H 0.81295 0.38328 0.37559 0.0
H349 H 0.81488 0.41546 0.41047 0.0
H350 H 0.82621 0.34888 0.48597 0.0
H351 H 0.82395 0.31672 0.45108 0.0
H352 H 0.80843 0.18655 0.27041 0.0
H353 H 0.80651 0.15344 0.23656 0.0
H354 H 0.7533 0.22256 0.17973 0.0
H355 H 0.75556 0.25566 0.21341 0.0
Sm356 Sm 0.80457 0.76458 0.28617 0.0
Sm357 Sm 0.8351 0.79239 0.32112 0.0
C358 C 0.78899 0.73195 0.2561 0.0
C359 C 0.76661 0.72077 0.25472 0.0
C360 C 0.76357 0.69821 0.27573 0.0
C361 C 0.74403 0.6861 0.27217 0.0
C362 C 0.72714 0.69624 0.24749 0.0
C363 C 0.72982 0.71922 0.22694 0.0
C364 C 0.7494 0.73124 0.23044 0.0
C365 C 0.78769 0.82261 0.27683 0.0
C366 C 0.7759 0.78675 0.35256 0.0
C367 C 0.86031 0.82441 0.33716 0.0
C368 C 0.87157 0.83524 0.35985 0.0
C369 C 0.90021 0.82752 0.35942 0.0
C370 C 0.91189 0.8406 0.37664 0.0
C371 C 0.89525 0.86182 0.3949 0.0
C372 C 0.86648 0.86883 0.3963 0.0
C373 C 0.85474 0.85575 0.37882 0.0
C374 C 0.83914 0.73886 0.34601 0.0
C375 C 0.86273 0.77182 0.25259 0.0
O376 O 0.80438 0.72227 0.2793 0.0
O377 O 0.78403 0.75887 0.24768 0.0
O378 O 0.81196 0.80592 0.27891 0.0
O379 O 0.77095 0.80838 0.27958 0.0
O380 O 0.77807 0.76897 0.33243 0.0
O381 O 0.79269 0.80166 0.35024 0.0
O382 O 0.87298 0.79823 0.33122 0.0
O383 O 0.8337 0.83349 0.33445 0.0
O384 O 0.83906 0.74732 0.31744 0.0
O385 O 0.84072 0.75778 0.36177 0.0
O386 O 0.86509 0.78231 0.27743 0.0
O387 O 0.84166 0.76367 0.25039 0.0
H388 H 0.7767 0.68942 0.29453 0.0
H389 H 0.74278 0.66821 0.28821 0.0
H390 H 0.7169 0.72783 0.20795 0.0
H391 H 0.75142 0.74844 0.21373 0.0
H392 H 0.91371 0.81219 0.34455 0.0
H393 H 0.93404 0.83499 0.37428 0.0
H394 H 0.85302 0.88485 0.41035 0.0
H395 H 0.83256 0.86232 0.37944 0.0
Sm396 Sm 0.28034 0.79291 0.29419 0.0
Sm397 Sm 0.32289 0.79816 0.33284 0.0
C398 C 0.23891 0.79993 0.26109 0.0
C399 C 0.22457 0.78423 0.24836 0.0
C400 C 0.19713 0.79793 0.24184 0.0
C401 C 0.18368 0.78457 0.22713 0.0
C402 C 0.19745 0.75717 0.21858 0.0
C403 C 0.22483 0.74319 0.22589 0.0
C404 C 0.23826 0.75659 0.24069 0.0
C405 C 0.33066 0.7513 0.28802 0.0
C406 C 0.31043 0.84144 0.27087 0.0
C407 C 0.36386 0.79123 0.36662 0.0
C408 C 0.3798 0.80514 0.37968 0.0
C409 C 0.40827 0.79168 0.38025 0.0
C410 C 0.42365 0.80208 0.39598 0.0
C411 C 0.41089 0.82628 0.41157 0.0
C412 C 0.38244 0.84045 0.40987 0.0
C413 C 0.36703 0.82998 0.39408 0.0
C414 C 0.27183 0.83926 0.33894 0.0
C415 C 0.29493 0.74769 0.35451 0.0
O416 O 0.26393 0.79712 0.2491 0.0
O417 O 0.23583 0.80092 0.29101 0.0
O418 O 0.32722 0.77692 0.28996 0.0
O419 O 0.30748 0.74793 0.28588 0.0
O420 O 0.28948 0.83274 0.26989 0.0
O421 O 0.32874 0.82952 0.29139 0.0
O422 O 0.33846 0.79543 0.37813 0.0
O423 O 0.36742 0.7894 0.33684 0.0
O424 O 0.27609 0.81344 0.33741 0.0
O425 O 0.29476 0.84352 0.34004 0.0
O426 O 0.31533 0.7571 0.35599 0.0
O427 O 0.27606 0.76008 0.33469 0.0
H428 H 0.18627 0.81932 0.2474 0.0
H429 H 0.16277 0.79616 0.22152 0.0
H430 H 0.23594 0.72197 0.22 0.0
H431 H 0.25947 0.7456 0.2456 0.0
H432 H 0.41852 0.77239 0.3695 0.0
H433 H 0.44537 0.7903 0.39712 0.0
H434 H 0.37198 0.85932 0.42125 0.0
H435 H 0.34506 0.84083 0.3939 0.0
Sm436 Sm 0.29933 0.80234 0.83892 0.0
Sm437 Sm 0.27868 0.77934 0.79425 0.0
C438 C 0.31554 0.83117 0.87318 0.0
C439 C 0.31747 0.83345 0.90571 0.0
C440 C 0.29453 0.83788 0.92751 0.0
C441 C 0.29644 0.84282 0.95746 0.0
C442 C 0.32132 0.84321 0.96608 0.0
C443 C 0.34451 0.83741 0.94459 0.0
C444 C 0.34255 0.83265 0.91468 0.0
C445 C 0.32154 0.74384 0.84237 0.0
C446 C 0.24835 0.78085 0.86323 0.0
C447 C 0.26403 0.7549 0.75396 0.0
C448 C 0.26994 0.73633 0.72952 0.0
C449 C 0.28907 0.70883 0.73252 0.0
C450 C 0.29041 0.68985 0.71193 0.0
C451 C 0.2726 0.69809 0.68814 0.0
C452 C 0.25451 0.72607 0.68433 0.0
C453 C 0.2532 0.74501 0.70487 0.0
C454 C 0.24565 0.83348 0.80507 0.0
C455 C 0.33407 0.79636 0.77124 0.0
O456 O 0.29099 0.83996 0.86332 0.0
O457 O 0.3321 0.80821 0.86193 0.0
O458 O 0.31759 0.76074 0.81815 0.0
O459 O 0.31256 0.75775 0.86634 0.0
O460 O 0.25887 0.80043 0.8656 0.0
O461 O 0.25783 0.76474 0.84042 0.0
O462 O 0.26988 0.74318 0.78199 0.0
O463 O 0.26648 0.77989 0.74731 0.0
O464 O 0.27157 0.82529 0.80081 0.0
O465 O 0.23677 0.81318 0.80341 0.0
O466 O 0.31819 0.78288 0.76483 0.0
O467 O 0.32902 0.80831 0.79705 0.0
H468 H 0.27498 0.83831 0.92122 0.0
H469 H 0.2783 0.84707 0.97362 0.0
H470 H 0.36384 0.83802 0.95034 0.0
H471 H 0.36046 0.82928 0.8982 0.0
H472 H 0.30211 0.70165 0.75149 0.0
H473 H 0.30448 0.66837 0.71553 0.0
H474 H 0.24091 0.73313 0.66589 0.0
H475 H 0.23821 0.76613 0.70231 0.0
Sm476 Sm 0.2997 0.25059 0.82177 0.0
Sm477 Sm 0.32316 0.28202 0.85389 0.0
C478 C 0.28567 0.2124 0.79938 0.0
C479 C 0.26385 0.20637 0.78684 0.0
C480 C 0.26799 0.17839 0.78278 0.0
C481 C 0.24805 0.17165 0.7705 0.0
C482 C 0.22349 0.19283 0.76194 0.0
C483 C 0.2193 0.22098 0.76624 0.0
C484 C 0.2394 0.22772 0.77857 0.0
C485 C 0.29405 0.30388 0.79077 0.0
C486 C 0.25815 0.29643 0.86479 0.0
C487 C 0.34741 0.30978 0.8796 0.0
C488 C 0.36783 0.32356 0.87987 0.0
C489 C 0.37419 0.34092 0.85436 0.0
C490 C 0.39156 0.35598 0.85695 0.0
C491 C 0.40268 0.354 0.88514 0.0
C492 C 0.3967 0.33594 0.91026 0.0
C493 C 0.37953 0.32088 0.90759 0.0
C494 C 0.31212 0.23779 0.89151 0.0
C495 C 0.36404 0.24258 0.80288 0.0
O496 O 0.28271 0.21556 0.82877 0.0
O497 O 0.29655 0.22965 0.78226 0.0
O498 O 0.31495 0.28735 0.80367 0.0
O499 O 0.27498 0.2925 0.79427 0.0
O500 O 0.26313 0.27135 0.85585 0.0
O501 O 0.27725 0.30836 0.85986 0.0
O502 O 0.3264 0.32237 0.86299 0.0
O503 O 0.35576 0.28219 0.88174 0.0
O504 O 0.3237 0.23622 0.86435 0.0
O505 O 0.30549 0.26308 0.89881 0.0
O506 O 0.36012 0.26386 0.81886 0.0
O507 O 0.3449 0.23113 0.8038 0.0
H508 H 0.28674 0.16164 0.78917 0.0
H509 H 0.25174 0.14971 0.76814 0.0
H510 H 0.20065 0.23779 0.75977 0.0
H511 H 0.23593 0.24949 0.78155 0.0
H512 H 0.36535 0.34325 0.83271 0.0
H513 H 0.39603 0.36938 0.837 0.0
H514 H 0.40443 0.3342 0.93245 0.0
H515 H 0.37465 0.30776 0.92763 0.0
Sm516 Sm 0.77118 0.29305 0.79621 0.0
Sm517 Sm 0.81831 0.30373 0.83151 0.0
C518 C 0.72989 0.29201 0.76764 0.0
C519 C 0.70654 0.30296 0.74784 0.0
C520 C 0.68349 0.29456 0.75647 0.0
C521 C 0.66335 0.29989 0.73592 0.0
C522 C 0.66569 0.31386 0.70608 0.0
C523 C 0.68813 0.32363 0.69813 0.0
C524 C 0.70837 0.31814 0.7187 0.0
C525 C 0.82421 0.25605 0.78963 0.0
C526 C 0.79411 0.34563 0.77019 0.0
C527 C 0.86676 0.29858 0.84966 0.0
C528 C 0.88438 0.29369 0.87535 0.0
C529 C 0.91287 0.28067 0.86974 0.0
C530 C 0.9306 0.27689 0.89263 0.0
C531 C 0.92035 0.28592 0.92201 0.0
C532 C 0.89161 0.29874 0.9277 0.0
C533 C 0.87382 0.3026 0.90461 0.0
C534 C 0.76521 0.33651 0.85093 0.0
C535 C 0.78958 0.25607 0.86161 0.0
O536 O 0.72673 0.29774 0.79638 0.0
O537 O 0.75492 0.28752 0.75451 0.0
O538 O 0.81757 0.2824 0.79011 0.0
O539 O 0.80259 0.24893 0.79023 0.0
O540 O 0.77415 0.33496 0.77182 0.0
O541 O 0.81539 0.33468 0.78723 0.0
O542 O 0.86082 0.27722 0.84304 0.0
O543 O 0.84668 0.32279 0.84576 0.0
O544 O 0.77281 0.31839 0.83218 0.0
O545 O 0.78694 0.33654 0.86255 0.0
O546 O 0.81061 0.26524 0.86017 0.0
O547 O 0.76948 0.26682 0.84293 0.0
H548 H 0.68173 0.28253 0.77864 0.0
H549 H 0.64674 0.29165 0.74295 0.0
H550 H 0.69048 0.33492 0.67567 0.0
H551 H 0.72593 0.32488 0.71137 0.0
H552 H 0.92156 0.27379 0.8473 0.0
H553 H 0.95248 0.26748 0.88689 0.0
H554 H 0.88278 0.30571 0.95004 0.0
H555 H 0.8519 0.31269 0.90957 0.0
Sm556 Sm 0.77139 0.78558 0.83149 0.0
Sm557 Sm 0.80743 0.81303 0.78159 0.0
C558 C 0.73301 0.77143 0.86877 0.0
C559 C 0.71652 0.75262 0.87229 0.0
C560 C 0.70063 0.75217 0.84901 0.0
C561 C 0.68456 0.7347 0.85368 0.0
C562 C 0.68408 0.71732 0.88168 0.0
C563 C 0.70033 0.71765 0.9047 0.0
C564 C 0.71626 0.73515 0.90007 0.0
C565 C 0.82604 0.77077 0.84162 0.0
C566 C 0.80203 0.75239 0.77209 0.0
C567 C 0.84851 0.8284 0.75256 0.0
C568 C 0.86561 0.84553 0.75569 0.0
C569 C 0.89406 0.83497 0.74786 0.0
C570 C 0.9101 0.85216 0.74682 0.0
C571 C 0.89792 0.88039 0.7533 0.0
C572 C 0.86957 0.89058 0.76228 0.0
C573 C 0.85361 0.87332 0.76361 0.0
C574 C 0.75727 0.82098 0.75925 0.0
C575 C 0.77277 0.8492 0.83909 0.0
O576 O 0.72743 0.79286 0.84719 0.0
O577 O 0.75934 0.75931 0.87182 0.0
O578 O 0.81062 0.79518 0.83197 0.0
O579 O 0.81245 0.75327 0.84662 0.0
O580 O 0.77991 0.758 0.79195 0.0
O581 O 0.81867 0.76747 0.76838 0.0
O582 O 0.85251 0.80444 0.77033 0.0
O583 O 0.82256 0.84225 0.74835 0.0
O584 O 0.76578 0.8091 0.78496 0.0
O585 O 0.77597 0.83015 0.74387 0.0
O586 O 0.78992 0.84804 0.81391 0.0
O587 O 0.76288 0.82861 0.84981 0.0
H588 H 0.70042 0.76543 0.82733 0.0
H589 H 0.67212 0.73521 0.83555 0.0
H590 H 0.70091 0.70422 0.92631 0.0
H591 H 0.72837 0.73511 0.91834 0.0
H592 H 0.90375 0.81368 0.74154 0.0
H593 H 0.93184 0.84372 0.73967 0.0
H594 H 0.85966 0.91208 0.76786 0.0
H595 H 0.83173 0.88202 0.76996 0.0
H596 H 0.065 0.13278 0.44364 0.0
H597 H 0.12854 0.06493 0.40082 0.0
H598 H 0.09501 0.16065 0.43529 0.0
H599 H 0.15865 0.09326 0.39217 0.0
H600 H 0.19166 0.16689 0.3539 0.0
H601 H 0.163 0.13697 0.36172 0.0
H602 H 0.13684 0.16079 0.45407 0.0
H603 H 0.16461 0.19119 0.44599 0.0
C604 C 0.08546 0.12355 0.43278 0.0
C605 C 0.09429 0.09634 0.42318 0.0
C606 C 0.10272 0.13967 0.42791 0.0
C607 C 0.12931 0.12916 0.41321 0.0
C608 C 0.13817 0.10209 0.40331 0.0
C609 C 0.12089 0.08583 0.40831 0.0
C610 C 0.17967 0.16581 0.3758 0.0
C611 C 0.18047 0.18146 0.3993 0.0
C612 C 0.16348 0.14845 0.3804 0.0
C613 C 0.14756 0.14653 0.4085 0.0
C614 C 0.14859 0.162 0.43203 0.0
C615 C 0.16479 0.17921 0.4275 0.0
H616 H 1.00535 0.12879 0.32913 0.0
H617 H 0.96314 0.072 0.37285 0.0
H618 H 0.96117 0.16655 0.32299 0.0
H619 H 0.91901 0.10987 0.36683 0.0
H620 H 0.85501 0.19685 0.39364 0.0
H621 H 0.89651 0.15501 0.39209 0.0
H622 H 0.91675 0.18203 0.29706 0.0
H623 H 0.87509 0.22377 0.29855 0.0
C624 C 0.98666 0.12418 0.3369 0.0
C625 C 0.98786 0.09735 0.35159 0.0
C626 C 0.96132 0.14583 0.33331 0.0
C627 C 0.93658 0.14127 0.34467 0.0
C628 C 0.93772 0.11412 0.35814 0.0
C629 C 0.96304 0.09236 0.36136 0.0
C630 C 0.86812 0.19362 0.37231 0.0
C631 C 0.86186 0.21364 0.34629 0.0
C632 C 0.89183 0.16961 0.37135 0.0
C633 C 0.90999 0.16525 0.34447 0.0
C634 C 0.90329 0.1849 0.31817 0.0
C635 C 0.87936 0.20872 0.31899 0.0
H636 H 1.01446 0.93565 0.40876 0.0
H637 H 0.95012 0.98156 0.47277 0.0
H638 H 0.9878 0.90586 0.40324 0.0
H639 H 0.92305 0.95193 0.46691 0.0
H640 H 0.87607 0.91858 0.40134 0.0
H641 H 0.90067 0.94582 0.41853 0.0
H642 H 0.96879 0.86933 0.43824 0.0
H643 H 0.94389 0.84177 0.42243 0.0
C644 C 0.99464 0.93922 0.42173 0.0
C645 C 0.9843 0.96086 0.44113 0.0
C646 C 0.97949 0.9221 0.41877 0.0
C647 C 0.95342 0.92659 0.43472 0.0
C648 C 0.94311 0.94807 0.45438 0.0
C649 C 0.95859 0.96486 0.45785 0.0
C650 C 0.89589 0.90737 0.41027 0.0
C651 C 0.9081 0.87793 0.41003 0.0
C652 C 0.91001 0.92306 0.41999 0.0
C653 C 0.93673 0.90968 0.42932 0.0
C654 C 0.94835 0.88018 0.43072 0.0
C655 C 0.9341 0.86445 0.42149 0.0
H656 H 0.10401 0.94645 0.38553 0.0
H657 H 0.13659 0.99989 0.31809 0.0
H658 H 0.14653 0.90691 0.37828 0.0
H659 H 0.17901 0.9601 0.31043 0.0
H660 H 0.22042 0.83494 0.34164 0.0
H661 H 0.17595 0.87345 0.34319 0.0
H662 H 0.21792 0.9335 0.33972 0.0
H663 H 0.26195 0.89531 0.33764 0.0
C664 C 0.1201 0.94972 0.36885 0.0
C665 C 0.11688 0.97651 0.35257 0.0
C666 C 0.14448 0.92692 0.36455 0.0
C667 C 0.16636 0.93027 0.34392 0.0
C668 C 0.16278 0.95683 0.32688 0.0
C669 C 0.13836 0.97964 0.33113 0.0
C670 C 0.22003 0.8564 0.34107 0.0
C671 C 0.24465 0.86208 0.33965 0.0
C672 C 0.19459 0.87847 0.34208 0.0
C673 C 0.19328 0.90668 0.3415 0.0
C674 C 0.21804 0.91219 0.33972 0.0
C675 C 0.24334 0.89021 0.33882 0.0
H676 H 0.15087 0.99395 0.72668 0.0
H677 H 0.10045 0.98646 0.81132 0.0
H678 H 0.18811 0.95306 0.74574 0.0
H679 H 0.13831 0.94537 0.83088 0.0
H680 H 0.19162 0.85031 0.82369 0.0
H681 H 0.15795 0.89749 0.81728 0.0
H682 H 0.22287 0.93082 0.78195 0.0
H683 H 0.25679 0.88295 0.78801 0.0
C684 C 0.14787 0.98382 0.74966 0.0
C685 C 0.12248 0.99323 0.76729 0.0
C686 C 0.16945 0.96047 0.76076 0.0
C687 C 0.16628 0.94574 0.78981 0.0
C688 C 0.14135 0.95604 0.80822 0.0
C689 C 0.11969 0.97964 0.79712 0.0
C690 C 0.19879 0.86777 0.815 0.0
C691 C 0.22676 0.86294 0.80584 0.0
C692 C 0.17946 0.89493 0.81161 0.0
C693 C 0.18758 0.91802 0.79884 0.0
C694 C 0.21587 0.91342 0.79147 0.0
C695 C 0.23533 0.88609 0.79507 0.0
H696 H 0.09219 0.12953 0.76059 0.0
H697 H 0.12827 0.12301 0.66664 0.0
H698 H 0.12256 0.15365 0.77009 0.0
H699 H 0.15811 0.14831 0.67579 0.0
H700 H 0.2314 0.15524 0.72018 0.0
H701 H 0.19762 0.13803 0.70463 0.0
H702 H 0.13351 0.19641 0.75869 0.0
H703 H 0.1676 0.21279 0.77534 0.0
C704 C 0.10653 0.13336 0.74187 0.0
C705 C 0.10806 0.12393 0.71297 0.0
C706 C 0.1237 0.14762 0.7472 0.0
C707 C 0.14285 0.15292 0.72374 0.0
C708 C 0.1438 0.1443 0.69448 0.0
C709 C 0.12654 0.13002 0.68914 0.0
C710 C 0.21008 0.16444 0.72873 0.0
C711 C 0.20227 0.1851 0.74938 0.0
C712 C 0.19063 0.15482 0.71948 0.0
C713 C 0.16285 0.16566 0.73058 0.0
C714 C 0.15482 0.18729 0.75008 0.0
C715 C 0.17431 0.19691 0.75937 0.0
H716 H 0.98134 0.15513 0.71905 0.0
H717 H 0.97214 0.10474 0.80504 0.0
H718 H 0.94051 0.19343 0.73461 0.0
H719 H 0.93073 0.14351 0.82078 0.0
H720 H 0.83834 0.19963 0.80499 0.0
H721 H 0.88392 0.1639 0.801 0.0
H722 H 0.91945 0.22929 0.77174 0.0
H723 H 0.87345 0.26527 0.77573 0.0
C724 C 0.97072 0.15235 0.74152 0.0
C725 C 0.97979 0.12676 0.76069 0.0
C726 C 0.94743 0.17449 0.75056 0.0
C727 C 0.93232 0.17157 0.77891 0.0
C728 C 0.9419 0.14633 0.7987 0.0
C729 C 0.96561 0.12419 0.78978 0.0
C730 C 0.85592 0.20643 0.79803 0.0
C731 C 0.85236 0.2352 0.79023 0.0
C732 C 0.88208 0.18594 0.79607 0.0
C733 C 0.90533 0.1937 0.78594 0.0
C734 C 0.90189 0.22263 0.77939 0.0
C735 C 0.87563 0.24323 0.7817 0.0
H736 H 1.00379 0.97734 0.76917 0.0
H737 H 0.98245 0.99762 0.67483 0.0
H738 H 0.97592 0.94669 0.77923 0.0
H739 H 0.9548 0.96676 0.68478 0.0
H740 H 0.88407 0.93422 0.72452 0.0
H741 H 0.91143 0.96531 0.71591 0.0
H742 H 0.97663 0.90086 0.76331 0.0
H743 H 0.9491 0.86977 0.77216 0.0
C744 C 0.99303 0.97539 0.75063 0.0
C745 C 0.9953 0.99 0.7212 0.0
C746 C 0.97728 0.95761 0.75632 0.0
C747 C 0.96314 0.95429 0.73282 0.0
C748 C 0.96526 0.96904 0.70345 0.0
C749 C 0.98128 0.98654 0.69766 0.0
C750 C 0.90413 0.92678 0.73339 0.0
C751 C 0.91438 0.89954 0.7491 0.0
C752 C 0.91991 0.94449 0.72818 0.0
C753 C 0.94623 0.93553 0.73884 0.0
C754 C 0.95635 0.90845 0.75497 0.0
C755 C 0.94068 0.89058 0.75986 0.0
H756 H 0.33319 0.13474 0.1586 0.0
H757 H 0.35091 0.0789 0.24305 0.0
H758 H 0.3256 0.17513 0.18679 0.0
H759 H 0.34398 0.11911 0.27102 0.0
H760 H 0.29335 0.20136 0.31441 0.0
H761 H 0.30449 0.16016 0.28674 0.0
H762 H 0.35087 0.19612 0.21478 0.0
H763 H 0.33958 0.23759 0.2423 0.0
C764 C 0.33552 0.13108 0.18314 0.0
C765 C 0.34259 0.1036 0.19856 0.0
C766 C 0.33146 0.15417 0.19922 0.0
C767 C 0.33418 0.15029 0.23114 0.0
C768 C 0.34152 0.1228 0.24649 0.0
C769 C 0.34576 0.09972 0.23038 0.0
C770 C 0.30611 0.20045 0.29282 0.0
C771 C 0.31553 0.22285 0.28059 0.0
C772 C 0.31259 0.17674 0.27702 0.0
C773 C 0.3285 0.17492 0.24854 0.0
C774 C 0.33832 0.19707 0.23652 0.0
C775 C 0.332 0.22073 0.25243 0.0
H776 H 0.96509 0.32342 0.1387 0.0
H777 H 0.97738 0.35827 0.21709 0.0
H778 H 0.9252 0.31421 0.16702 0.0
H779 H 0.93802 0.34842 0.24588 0.0
H780 H 0.85326 0.34809 0.28271 0.0
H781 H 0.88985 0.36087 0.2511 0.0
H782 H 0.91326 0.28386 0.20787 0.0
H783 H 0.87589 0.27169 0.23873 0.0
C784 C 0.9593 0.32902 0.16207 0.0
C785 C 0.97444 0.34154 0.17566 0.0
C786 C 0.93648 0.32363 0.1784 0.0
C787 C 0.92832 0.33037 0.20892 0.0
C788 C 0.94329 0.34332 0.2223 0.0
C789 C 0.96594 0.34897 0.20582 0.0
C790 C 0.8661 0.33396 0.2663 0.0
C791 C 0.86165 0.30884 0.26328 0.0
C792 C 0.88727 0.34121 0.24828 0.0
C793 C 0.90479 0.32336 0.22697 0.0
C794 C 0.90002 0.2984 0.22366 0.0
C795 C 0.87863 0.2913 0.24148 0.0
H796 H 0.82098 0.88787 0.10117 0.0
H797 H 0.80418 0.96364 0.1444 0.0
H798 H 0.80685 0.86473 0.15006 0.0
H799 H 0.79046 0.94034 0.19356 0.0
H800 H 0.81392 0.86018 0.27475 0.0
H801 H 0.81882 0.8935 0.23015 0.0
H802 H 0.75844 0.87564 0.18613 0.0
H803 H 0.75297 0.84288 0.23101 0.0
C804 C 0.8146 0.89937 0.12126 0.0
C805 C 0.81372 0.9274 0.11921 0.0
C806 C 0.80617 0.88636 0.14901 0.0
C807 C 0.79721 0.90102 0.17527 0.0
C808 C 0.79706 0.92878 0.17349 0.0
C809 C 0.80495 0.94199 0.14555 0.0
C810 C 0.80076 0.86443 0.25617 0.0
C811 C 0.7831 0.84903 0.25625 0.0
C812 C 0.8037 0.88331 0.23063 0.0
C813 C 0.78935 0.8866 0.20468 0.0
C814 C 0.76988 0.87314 0.20588 0.0
C815 C 0.76653 0.85469 0.23168 0.0
H816 H 0.0863 0.69186 0.1445 0.0
H817 H 0.13426 0.71775 0.06603 0.0
H818 H 0.11486 0.70011 0.17918 0.0
H819 H 0.16213 0.72705 0.10065 0.0
H820 H 0.21934 0.72605 0.16962 0.0
H821 H 0.19568 0.70767 0.13816 0.0
H822 H 0.12007 0.74123 0.19501 0.0
H823 H 0.14396 0.75855 0.22716 0.0
C824 C 0.1032 0.69885 0.13458 0.0
C825 C 0.10782 0.70432 0.10239 0.0
C826 C 0.11938 0.70395 0.15452 0.0
C827 C 0.14065 0.71458 0.1428 0.0
C828 C 0.14609 0.71871 0.11059 0.0
C829 C 0.12991 0.71363 0.09068 0.0
C830 C 0.1978 0.729 0.17582 0.0
C831 C 0.18356 0.74394 0.20088 0.0
C832 C 0.18414 0.71873 0.15753 0.0
C833 C 0.15589 0.72309 0.16387 0.0
C834 C 0.14188 0.73721 0.18956 0.0
C835 C 0.15552 0.74748 0.20781 0.0
H836 H 0.38883 0.92257 0.06771 0.0
H837 H 0.30597 0.94837 0.11106 0.0
H838 H 0.37972 0.887 0.04391 0.0
H839 H 0.29676 0.91248 0.08738 0.0
H840 H 0.36175 0.82126 1.00604 0.0
H841 H 0.36858 0.8442 0.04788 0.0
H842 H 0.29083 0.9109 0.03395 0.0
H843 H 0.28399 0.88795 0.99259 0.0
C844 C 0.36889 0.9201 0.07285 0.0
C845 C 0.34795 0.93862 0.09073 0.0
C846 C 0.36366 0.8996 0.05931 0.0
C847 C 0.3374 0.89708 0.06351 0.0
C848 C 0.31705 0.91424 0.08327 0.0
C849 C 0.32228 0.93484 0.09673 0.0
C850 C 0.34588 0.8405 1.01247 0.0
C851 C 0.32255 0.85305 0.99576 0.0
C852 C 0.34979 0.85363 0.03636 0.0
C853 C 0.33048 0.8796 0.04389 0.0
C854 C 0.30603 0.8908 0.02897 0.0
C855 C 0.30209 0.87763 1.00516 0.0
H856 H 0.096 0.35429 0.96821 0.0
H857 H 0.15711 0.33472 0.0332 0.0
H858 H 0.13229 0.34494 0.92577 0.0
H859 H 0.19345 0.32557 0.99075 0.0
H860 H 0.24861 0.33698 0.90337 0.0
H861 H 0.20986 0.35255 0.94199 0.0
H862 H 0.17179 0.29972 0.91082 0.0
H863 H 0.21072 0.28377 0.8724 0.0
C864 C 0.11716 0.34844 0.97335 0.0
C865 C 0.12375 0.34531 1.00402 0.0
C866 C 0.13792 0.34287 0.9491 0.0
C867 C 0.16568 0.33457 0.95495 0.0
C868 C 0.17221 0.33217 0.98552 0.0
C869 C 0.15149 0.33723 1.00981 0.0
C870 C 0.23177 0.32904 0.90433 0.0
C871 C 0.23278 0.30909 0.88479 0.0
C872 C 0.20969 0.33781 0.92664 0.0
C873 C 0.1879 0.32722 0.92954 0.0
C874 C 0.18824 0.30834 0.90902 0.0
C875 C 0.21055 0.29918 0.88706 0.0
H876 H 0.77485 0.09809 0.95276 0.0
H877 H 0.85978 0.0898 0.95681 0.0
H878 H 0.76495 0.14627 0.93019 0.0
H879 H 0.85022 0.13779 0.93163 0.0
H880 H 0.8201 0.23288 0.91113 0.0
H881 H 0.82777 0.18614 0.93924 0.0
H882 H 0.77171 0.17255 0.88395 0.0
H883 H 0.76317 0.21949 0.85705 0.0
C884 C 0.79153 0.10643 0.9489 0.0
C885 C 0.81813 0.08991 0.95715 0.0
C886 C 0.78587 0.13414 0.9354 0.0
C887 C 0.80673 0.14605 0.92902 0.0
C888 C 0.83349 0.12948 0.93671 0.0
C889 C 0.83911 0.10175 0.95073 0.0
C890 C 0.80902 0.22007 0.90547 0.0
C891 C 0.79092 0.22994 0.88198 0.0
C892 C 0.81367 0.19314 0.9213 0.0
C893 C 0.80059 0.17539 0.91371 0.0
C894 C 0.78186 0.18571 0.89083 0.0
C895 C 0.77691 0.21273 0.87535 0.0
H896 H 0.94512 0.7746 0.95995 0.0
H897 H 0.98647 0.69737 0.91785 0.0
H898 H 0.90696 0.78561 0.92814 0.0
H899 H 0.94824 0.70832 0.88634 0.0
H900 H 0.85983 0.72004 0.86617 0.0
H901 H 0.90065 0.71046 0.89323 0.0
H902 H 0.893 0.79847 0.87503 0.0
H903 H 0.85181 0.80807 0.84808 0.0
C904 C 0.94634 0.76006 0.94376 0.0
C905 C 0.96905 0.73491 0.94186 0.0
C906 C 0.92436 0.76644 0.92541 0.0
C907 C 0.92436 0.74782 0.90469 0.0
C908 C 0.94725 0.72295 0.90238 0.0
C909 C 0.96925 0.71663 0.9206 0.0
C910 C 0.86702 0.73731 0.86764 0.0
C911 C 0.85251 0.76482 0.85505 0.0
C912 C 0.89053 0.7318 0.88309 0.0
C913 C 0.90017 0.75368 0.88651 0.0
C914 C 0.886 0.78115 0.87322 0.0
C915 C 0.86251 0.78664 0.85755 0.0
H916 H 0.1617 0.32328 0.12458 0.0
H917 H 0.11368 0.29389 0.20006 0.0
H918 H 0.19542 0.32042 0.15931 0.0
H919 H 0.14701 0.29226 0.23581 0.0
H920 H 0.22623 0.27788 0.28741 0.0
H921 H 0.19259 0.27371 0.25544 0.0
H922 H 0.19729 0.34779 0.1962 0.0
H923 H 0.23112 0.351 0.22696 0.0
C924 C 0.1586 0.31577 0.14868 0.0
C925 C 0.13512 0.30865 0.15946 0.0
C926 C 0.17775 0.31455 0.16885 0.0
C927 C 0.17375 0.30696 0.20083 0.0
C928 C 0.15093 0.29827 0.21146 0.0
C929 C 0.13185 0.29905 0.19096 0.0
C930 C 0.21968 0.29339 0.26775 0.0
C931 C 0.23147 0.31469 0.25962 0.0
C932 C 0.20045 0.29099 0.24931 0.0
C933 C 0.19257 0.30993 0.22249 0.0
C934 C 0.20342 0.33206 0.21577 0.0
C935 C 0.22267 0.33418 0.23375 0.0
H936 H 0.08939 0.76473 0.93825 0.0
H937 H 0.11413 0.7972 1.01057 0.0
H938 H 0.13128 0.765 0.90636 0.0
H939 H 0.15636 0.79649 0.97938 0.0
H940 H 0.21878 0.81659 0.90601 0.0
H941 H 0.17648 0.81731 0.9369 0.0
H942 H 0.17923 0.74249 0.89932 0.0
H943 H 0.22122 0.74251 0.86738 0.0
C944 C 0.10369 0.77204 0.94735 0.0
C945 C 0.0981 0.78113 0.97703 0.0
C946 C 0.128 0.77189 0.92914 0.0
C947 C 0.14765 0.78062 0.94008 0.0
C948 C 0.14179 0.79001 0.96967 0.0
C949 C 0.11742 0.79037 0.98775 0.0
C950 C 0.21056 0.8001 0.90443 0.0
C951 C 0.22369 0.7794 0.88415 0.0
C952 C 0.18615 0.80045 0.92237 0.0
C953 C 0.17403 0.77997 0.92089 0.0
C954 C 0.18744 0.75897 0.90089 0.0
C955 C 0.21181 0.75876 0.88273 0.0
H956 H 0.35 0.08951 0.03058 0.0
H957 H 0.26268 0.13295 0.04613 0.0
H958 H 0.35177 0.12338 0.98506 0.0
H959 H 0.26438 0.16612 1.00088 0.0
H960 H 0.28272 0.2417 0.94689 0.0
H961 H 0.28167 0.20462 0.98801 0.0
H962 H 0.33714 0.14216 0.93141 0.0
H963 H 0.33837 0.17998 0.88975 0.0
C964 C 0.33117 0.10608 1.02423 0.0
C965 C 0.30625 0.10856 0.0424 0.0
C966 C 0.33215 0.12542 0.99797 0.0
C967 C 0.30827 0.14779 0.98931 0.0
C968 C 0.28332 0.14961 1.00703 0.0
C969 C 0.28234 0.1304 0.03307 0.0
C970 C 0.29461 0.22007 0.94299 0.0
C971 C 0.31061 0.21388 0.91494 0.0
C972 C 0.29389 0.19867 0.96664 0.0
C973 C 0.30922 0.17021 0.9632 0.0
C974 C 0.3252 0.16384 0.93501 0.0
C975 C 0.32574 0.18545 0.91102 0.0
H976 H 0.06931 0.26353 1.00562 0.0
H977 H 1.00683 0.29232 0.07964 0.0
H978 H 0.03454 0.262 0.97453 0.0
H979 H 0.97191 0.29071 0.04843 0.0
H980 H 0.91649 0.32182 0.96519 0.0
H981 H 0.94972 0.31765 1.00151 0.0
H982 H 1.00199 0.23841 0.96947 0.0
H983 H 0.96864 0.24218 0.93364 0.0
C984 C 0.04822 0.26902 1.01554 0.0
C985 C 0.04101 0.27798 0.04525 0.0
C986 C 0.0282 0.26811 0.99766 0.0
C987 C 1.00027 0.27641 1.00878 0.0
C988 C 0.99314 0.28448 0.03892 0.0
C989 C 1.01326 0.28509 0.05699 0.0
C990 C 0.93479 0.30321 0.9662 0.0
C991 C 0.93977 0.28251 0.94601 0.0
C992 C 0.95394 0.30084 0.9871 0.0
C993 C 0.97875 0.27778 0.98838 0.0
C994 C 0.98339 0.25672 0.96883 0.0
C995 C 0.9642 0.25898 0.94812 0.0
H996 H 0.74418 0.964 0.98256 0.0
H997 H 0.81303 0.96914 0.9189 0.0
H998 H 0.73398 0.93549 0.94828 0.0
H999 H 0.80357 0.94055 0.88565 0.0
H1000 H 0.77742 0.90088 0.81949 0.0
H1001 H 0.77451 0.9376 0.85079 0.0
H1002 H 0.75342 0.8882 0.93236 0.0
H1003 H 0.75522 0.85189 0.90066 0.0
C1004 C 0.75681 0.95949 0.96109 0.0
C1005 C 0.77947 0.96878 0.95355 0.0
C1006 C 0.75117 0.94292 0.94158 0.0
C1007 C 0.76793 0.9356 0.91405 0.0
C1008 C 0.78983 0.94601 0.9062 0.0
C1009 C 0.79544 0.96231 0.92555 0.0
C1010 C 0.77169 0.89804 0.84403 0.0
C1011 C 0.76688 0.87325 0.85757 0.0
C1012 C 0.77016 0.91907 0.86208 0.0
C1013 C 0.76429 0.91573 0.89434 0.0
C1014 C 0.75786 0.89167 0.90764 0.0
C1015 C 0.75901 0.87074 0.88944 0.0
H1016 H 0.99869 0.79712 0.12679 0.0
H1017 H 0.96143 0.75821 0.073 0.0
H1018 H 0.96325 0.79786 0.16882 0.0
H1019 H 0.92693 0.75707 0.11568 0.0
H1020 H 0.85615 0.77399 0.19116 0.0
H1021 H 0.88854 0.7776 0.14686 0.0
H1022 H 0.94907 0.77114 0.20876 0.0
H1023 H 0.91596 0.76942 0.25265 0.0
C1024 C 0.98279 0.78882 0.1239 0.0
C1025 C 0.98289 0.77778 0.09638 0.0
C1026 C 0.96256 0.7888 0.14831 0.0
C1027 C 0.94211 0.77702 0.14639 0.0
C1028 C 0.94186 0.76669 0.11835 0.0
C1029 C 0.96178 0.7673 0.09366 0.0
C1030 C 0.87646 0.77319 0.19525 0.0
C1031 C 0.8834 0.77137 0.22555 0.0
C1032 C 0.89522 0.77519 0.16972 0.0
C1033 C 0.92177 0.77489 0.17369 0.0
C1034 C 0.92878 0.77232 0.20423 0.0
C1035 C 0.90982 0.77094 0.22965 0.0
H1036 H 0.32112 1.00443 0.17642 0.0
H1037 H 0.24927 0.99296 0.15046 0.0
H1038 H 0.3357 0.95598 0.20256 0.0
H1039 H 0.26254 0.94595 0.17739 0.0
H1040 H 0.29407 0.85644 0.21262 0.0
H1041 H 0.29098 0.8997 0.1791 0.0
H1042 H 0.32496 0.92785 0.24752 0.0
H1043 H 0.32955 0.88339 0.28031 0.0
C1044 C 0.30878 0.99141 0.17575 0.0
C1045 C 0.28427 1.00247 0.16094 0.0
C1046 C 0.31684 0.96374 0.19115 0.0
C1047 C 0.30042 0.94662 0.19225 0.0
C1048 C 0.27625 0.9578 0.17673 0.0
C1049 C 0.26841 0.9851 0.16138 0.0
C1050 C 0.30128 0.87167 0.22033 0.0
C1051 C 0.31185 0.8665 0.24927 0.0
C1052 C 0.29929 0.89673 0.20117 0.0
C1053 C 0.30704 0.91795 0.21067 0.0
C1054 C 0.31886 0.91216 0.23912 0.0
C1055 C 0.32142 0.88666 0.25807 0.0
H1056 H 0.805 0.03214 0.12797 0.0
H1057 H 0.75091 0.09321 0.06504 0.0
H1058 H 0.79887 0.06839 0.16114 0.0
H1059 H 0.74439 0.13007 0.0987 0.0
H1060 H 0.77821 0.18943 0.14251 0.0
H1061 H 0.77393 0.15496 0.11202 0.0
H1062 H 0.7679 0.10036 0.19562 0.0
H1063 H 0.77222 0.13467 0.22601 0.0
C1064 C 0.79112 0.05329 0.12172 0.0
C1065 C 0.77831 0.05983 0.09404 0.0
C1066 C 0.78755 0.07413 0.14079 0.0
C1067 C 0.77125 0.10227 0.1326 0.0
C1068 C 0.7573 0.10864 0.10555 0.0
C1069 C 0.76067 0.08753 0.0865 0.0
C1070 C 0.77566 0.17021 0.15442 0.0
C1071 C 0.776 0.1647 0.18674 0.0
C1072 C 0.77305 0.15049 0.13692 0.0
C1073 C 0.77068 0.12477 0.1513 0.0
C1074 C 0.77015 0.11971 0.18369 0.0
C1075 C 0.77279 0.13935 0.20113 0.0
H1076 H 0.61792 0.58164 0.88555 0.0
H1077 H 0.55752 0.64074 0.94205 0.0
H1078 H 0.64561 0.61226 0.87657 0.0
H1079 H 0.585 0.6716 0.93283 0.0
H1080 H 0.65414 0.70646 0.93503 0.0
H1081 H 0.627 0.67538 0.94457 0.0
H1082 H 0.64611 0.65669 0.8498 0.0
H1083 H 0.67444 0.6867 0.84067 0.0
C1084 C 0.61044 0.60128 0.89588 0.0
C1085 C 0.58545 0.60873 0.91448 0.0
C1086 C 0.62629 0.61891 0.89067 0.0
C1087 C 0.61753 0.64452 0.90384 0.0
C1088 C 0.59262 0.65187 0.92265 0.0
C1089 C 0.57682 0.63416 0.92797 0.0
C1090 C 0.65284 0.69549 0.91628 0.0
C1091 C 0.66667 0.69902 0.8871 0.0
C1092 C 0.63694 0.67792 0.92167 0.0
C1093 C 0.63431 0.66346 0.89799 0.0
C1094 C 0.64793 0.66718 0.86871 0.0
C1095 C 0.66391 0.68471 0.86335 0.0
H1096 H 0.48893 0.6391 0.81872 0.0
H1097 H 0.45478 0.58087 0.87589 0.0
H1098 H 0.44272 0.6739 0.81506 0.0
H1099 H 0.40861 0.61599 0.8727 0.0
H1100 H 0.34222 0.70666 0.89262 0.0
H1101 H 0.38512 0.66597 0.89299 0.0
H1102 H 0.39662 0.67964 0.79369 0.0
H1103 H 0.35375 0.71969 0.79316 0.0
C1104 C 0.47155 0.63358 0.83015 0.0
C1105 C 0.47557 0.60717 0.84748 0.0
C1106 C 0.44509 0.6535 0.82805 0.0
C1107 C 0.42207 0.64768 0.84372 0.0
C1108 C 0.42598 0.62109 0.86054 0.0
C1109 C 0.45241 0.60093 0.86212 0.0
C1110 C 0.3536 0.70056 0.87087 0.0
C1111 C 0.34466 0.71653 0.84292 0.0
C1112 C 0.37814 0.6773 0.87106 0.0
C1113 C 0.39435 0.66986 0.84336 0.0
C1114 C 0.38473 0.68507 0.81539 0.0
C1115 C 0.36007 0.70794 0.81514 0.0
H1116 H 0.48702 0.44398 0.96502 0.0
H1117 H 0.49104 0.47246 0.86739 0.0
H1118 H 0.46324 0.4127 0.95549 0.0
H1119 H 0.46692 0.44193 0.85829 0.0
H1120 H 0.39471 0.40894 0.86161 0.0
H1121 H 0.41993 0.43881 0.87079 0.0
H1122 H 0.47264 0.36956 0.92782 0.0
H1123 H 0.4479 0.33934 0.91809 0.0
C1124 C 0.48297 0.4436 0.9416 0.0
C1125 C 0.49081 0.46111 0.91712 0.0
C1126 C 0.46934 0.42568 0.93615 0.0
C1127 C 0.46308 0.42503 0.90615 0.0
C1128 C 0.47103 0.44234 0.88172 0.0
C1129 C 0.48481 0.46001 0.88708 0.0
C1130 C 0.41199 0.39986 0.87563 0.0
C1131 C 0.41922 0.37168 0.88908 0.0
C1132 C 0.42633 0.41706 0.88104 0.0
C1133 C 0.44814 0.40656 0.90019 0.0
C1134 C 0.45562 0.37835 0.91338 0.0
C1135 C 0.44144 0.36106 0.90776 0.0
H1136 H 0.59583 0.45861 0.84797 0.0
H1137 H 0.64464 0.49672 0.88595 0.0
H1138 H 0.63676 0.41682 0.8401 0.0
H1139 H 0.68555 0.45611 0.87682 0.0
H1140 H 0.74542 0.36985 0.8971 0.0
H1141 H 0.70313 0.41006 0.90055 0.0
H1142 H 0.68141 0.39451 0.8149 0.0
H1143 H 0.72352 0.35317 0.81242 0.0
C1144 C 0.6155 0.45841 0.85364 0.0
C1145 C 0.61713 0.4808 0.86764 0.0
C1146 C 0.63896 0.43444 0.84928 0.0
C1147 C 0.66447 0.43263 0.85859 0.0
C1148 C 0.66619 0.45613 0.87042 0.0
C1149 C 0.6428 0.47967 0.87525 0.0
C1150 C 0.73141 0.37478 0.87926 0.0
C1151 C 0.73776 0.35843 0.85453 0.0
C1152 C 0.70727 0.39811 0.88095 0.0
C1153 C 0.68901 0.40616 0.85757 0.0
C1154 C 0.69488 0.38904 0.83335 0.0
C1155 C 0.71899 0.36532 0.83192 0.0
H1156 H 0.65888 0.50293 0.25954 0.0
H1157 H 0.60517 0.46302 0.31422 0.0
H1158 H 0.69875 0.46234 0.27385 0.0
H1159 H 0.64526 0.42151 0.32789 0.0
H1160 H 0.72746 0.35305 0.35375 0.0
H1161 H 0.6897 0.39866 0.35204 0.0
H1162 H 0.71428 0.41655 0.25572 0.0
H1163 H 0.75174 0.37167 0.25762 0.0
C1164 C 0.65571 0.48562 0.27523 0.0
C1165 C 0.62902 0.48597 0.28565 0.0
C1166 C 0.67852 0.46224 0.28323 0.0
C1167 C 0.6752 0.43833 0.30136 0.0
C1168 C 0.64856 0.43959 0.31389 0.0
C1169 C 0.62559 0.46333 0.30616 0.0
C1170 C 0.72491 0.36702 0.3324 0.0
C1171 C 0.74251 0.35884 0.30578 0.0
C1172 C 0.70322 0.39301 0.33137 0.0
C1173 C 0.699 0.41139 0.3038 0.0
C1174 C 0.71714 0.40327 0.27752 0.0
C1175 C 0.73856 0.3774 0.27851 0.0
H1176 H 0.63758 0.58026 0.26027 0.0
H1177 H 0.60485 0.6405 0.18281 0.0
H1178 H 0.6676 0.60587 0.26681 0.0
H1179 H 0.63523 0.66611 0.18925 0.0
H1180 H 0.71564 0.68486 0.19275 0.0
H1181 H 0.6846 0.66064 0.18485 0.0
H1182 H 0.66345 0.65139 0.28319 0.0
H1183 H 0.69425 0.67587 0.29113 0.0
C1184 C 0.6366 0.59911 0.24476 0.0
C1185 C 0.61853 0.60848 0.22121 0.0
C1186 C 0.65385 0.61379 0.24852 0.0
C1187 C 0.6536 0.63818 0.22876 0.0
C1188 C 0.63601 0.64727 0.20474 0.0
C1189 C 0.61864 0.63258 0.20102 0.0
C1190 C 0.70408 0.67804 0.21267 0.0
C1191 C 0.7075 0.6823 0.24261 0.0
C1192 C 0.68632 0.66411 0.20811 0.0
C1193 C 0.67167 0.65398 0.23339 0.0
C1194 C 0.67481 0.65853 0.26327 0.0
C1195 C 0.69248 0.67254 0.26783 0.0
H1196 H 0.49504 0.61995 0.30583 0.0
H1197 H 0.45784 0.60574 0.23038 0.0
H1198 H 0.45342 0.66079 0.31634 0.0
H1199 H 0.4169 0.64581 0.24086 0.0
H1200 H 0.33729 0.69642 0.28797 0.0
H1201 H 0.3797 0.6564 0.28525 0.0
H1202 H 0.42652 0.71124 0.28593 0.0
H1203 H 0.38344 0.75198 0.28871 0.0
C1204 C 0.47792 0.62531 0.29181 0.0
C1205 C 0.47964 0.60958 0.26738 0.0
C1206 C 0.45431 0.64878 0.2976 0.0
C1207 C 0.43194 0.65642 0.27942 0.0
C1208 C 0.43368 0.64033 0.25542 0.0
C1209 C 0.4572 0.61736 0.2494 0.0
C1210 C 0.35656 0.70011 0.28762 0.0
C1211 C 0.35705 0.72746 0.28801 0.0
C1212 C 0.38087 0.6771 0.28615 0.0
C1213 C 0.40642 0.68072 0.28509 0.0
C1214 C 0.40706 0.70787 0.28683 0.0
C1215 C 0.38249 0.73115 0.2882 0.0
H1216 H 0.4746 0.50341 0.26625 0.0
H1217 H 0.5289 0.44636 0.20326 0.0
H1218 H 0.44498 0.47476 0.27543 0.0
H1219 H 0.49931 0.41771 0.21245 0.0
H1220 H 0.42376 0.39261 0.20905 0.0
H1221 H 0.4544 0.42002 0.2015 0.0
H1222 H 0.44301 0.42901 0.29904 0.0
H1223 H 0.41139 0.40235 0.30641 0.0
C1224 C 0.4804 0.48463 0.25457 0.0
C1225 C 0.50418 0.47728 0.23395 0.0
C1226 C 0.4634 0.46815 0.25988 0.0
C1227 C 0.46972 0.44389 0.2447 0.0
C1228 C 0.49356 0.43648 0.22419 0.0
C1229 C 0.51055 0.45296 0.21887 0.0
C1230 C 0.42761 0.40059 0.22889 0.0
C1231 C 0.4149 0.39546 0.25831 0.0
C1232 C 0.44547 0.41604 0.22461 0.0
C1233 C 0.45121 0.42677 0.24964 0.0
C1234 C 0.43881 0.42134 0.27918 0.0
C1235 C 0.42093 0.40579 0.28348 0.0
H1236 H 0.84884 0.59276 0.6927 0.0
H1237 H 0.79695 0.65498 0.62839 0.0
H1238 H 0.84661 0.63037 0.7232 0.0
H1239 H 0.79419 0.69216 0.65934 0.0
H1240 H 0.76411 0.73449 0.75289 0.0
H1241 H 0.77175 0.69758 0.71953 0.0
H1242 H 0.85912 0.681 0.7134 0.0
H1243 H 0.85147 0.71876 0.74622 0.0
C1244 C 0.83728 0.61443 0.68485 0.0
C1245 C 0.82311 0.62082 0.65806 0.0
C1246 C 0.83606 0.63591 0.70228 0.0
C1247 C 0.82013 0.6641 0.69366 0.0
C1248 C 0.80656 0.67058 0.66652 0.0
C1249 C 0.80828 0.64926 0.64874 0.0
C1250 C 0.78499 0.72298 0.74451 0.0
C1251 C 0.80721 0.72951 0.75226 0.0
C1252 C 0.78931 0.70196 0.72528 0.0
C1253 C 0.816 0.68649 0.71389 0.0
C1254 C 0.83834 0.69263 0.72194 0.0
C1255 C 0.83395 0.71424 0.7406 0.0
H1256 H 0.47189 0.80312 0.63219 0.0
H1257 H 0.50768 0.74867 0.71171 0.0
H1258 H 0.42562 0.81022 0.65841 0.0
H1259 H 0.46175 0.75621 0.73804 0.0
H1260 H 0.37829 0.80671 0.78697 0.0
H1261 H 0.42254 0.80095 0.7577 0.0
H1262 H 0.39412 0.77762 0.68136 0.0
H1263 H 0.34958 0.78265 0.71114 0.0
C1264 C 0.46989 0.7928 0.65529 0.0
C1265 C 0.49354 0.77532 0.66984 0.0
C1266 C 0.4434 0.79669 0.67021 0.0
C1267 C 0.43994 0.7838 0.70036 0.0
C1268 C 0.46363 0.76653 0.7149 0.0
C1269 C 0.48997 0.76211 0.69975 0.0
C1270 C 0.38117 0.8006 0.76384 0.0
C1271 C 0.36009 0.79524 0.7515 0.0
C1272 C 0.40673 0.79714 0.74711 0.0
C1273 C 0.41199 0.78874 0.71721 0.0
C1274 C 0.39071 0.78422 0.7043 0.0
C1275 C 0.36519 0.78708 0.72139 0.0
H1276 H 0.27007 0.44432 0.64108 0.0
H1277 H 0.35338 0.38773 0.62481 0.0
H1278 H 0.2638 0.41384 0.68755 0.0
H1279 H 0.34708 0.35755 0.67123 0.0
H1280 H 0.33726 0.32257 0.77169 0.0
H1281 H 0.34197 0.35548 0.72678 0.0
H1282 H 0.25962 0.36791 0.70583 0.0
H1283 H 0.25485 0.33515 0.75112 0.0
C1284 C 0.28706 0.42539 0.6471 0.0
C1285 C 0.31234 0.41885 0.62878 0.0
C1286 C 0.28342 0.40781 0.67395 0.0
C1287 C 0.30495 0.38317 0.6835 0.0
C1288 C 0.33014 0.37657 0.66513 0.0
C1289 C 0.33375 0.39403 0.63826 0.0
C1290 C 0.32004 0.33252 0.75769 0.0
C1291 C 0.29568 0.32611 0.76505 0.0
C1292 C 0.32282 0.35127 0.73169 0.0
C1293 C 0.3013 0.3643 0.71226 0.0
C1294 C 0.2766 0.35853 0.72023 0.0
C1295 C 0.27386 0.33965 0.74622 0.0
H1296 H 0.60263 0.25723 0.56926 0.0
H1297 H 0.5287 0.32274 0.59898 0.0
H1298 H 0.6291 0.27158 0.60067 0.0
H1299 H 0.55566 0.33768 0.6308 0.0
H1300 H 0.60988 0.32257 0.71505 0.0
H1301 H 0.58024 0.31889 0.67836 0.0
H1302 H 0.64722 0.30723 0.60703 0.0
H1303 H 0.67713 0.30945 0.64381 0.0
C1304 C 0.59206 0.27513 0.5822 0.0
C1305 C 0.56351 0.28879 0.58164 0.0
C1306 C 0.60737 0.28353 0.60014 0.0
C1307 C 0.59467 0.30587 0.61839 0.0
C1308 C 0.56612 0.32027 0.61718 0.0
C1309 C 0.5507 0.31195 0.59875 0.0
C1310 C 0.61833 0.31927 0.69153 0.0
C1311 C 0.6462 0.31593 0.68273 0.0
C1312 C 0.60114 0.31754 0.67033 0.0
C1313 C 0.61132 0.31242 0.63971 0.0
C1314 C 0.6387 0.31071 0.63051 0.0
C1315 C 0.65586 0.31235 0.65165 0.0
H1316 H 0.84032 0.46682 0.60497 0.0
H1317 H 0.83428 0.52822 0.52475 0.0
H1318 H 0.84011 0.43198 0.57237 0.0
H1319 H 0.83332 0.49382 0.49245 0.0
H1320 H 0.85087 0.42036 0.43707 0.0
H1321 H 0.85781 0.45133 0.47001 0.0
H1322 H 0.80788 0.4229 0.54455 0.0
H1323 H 0.80122 0.39161 0.51158 0.0
C1324 C 0.83943 0.47279 0.58034 0.0
C1325 C 0.83732 0.50041 0.56757 0.0
C1326 C 0.83894 0.45288 0.56166 0.0
C1327 C 0.83638 0.46005 0.52971 0.0
C1328 C 0.83556 0.4873 0.51683 0.0
C1329 C 0.83606 0.50715 0.53545 0.0
C1330 C 0.84118 0.42084 0.46042 0.0
C1331 C 0.82525 0.40361 0.47151 0.0
C1332 C 0.84522 0.43862 0.47939 0.0
C1333 C 0.83337 0.43981 0.51004 0.0
C1334 C 0.81772 0.4223 0.52128 0.0
C1335 C 0.81377 0.4044 0.5023 0.0
H1336 H 0.62934 0.80081 0.48326 0.0
H1337 H 0.69911 0.74886 0.53293 0.0
H1338 H 0.66049 0.80754 0.43821 0.0
H1339 H 0.7302 0.7559 0.48821 0.0
H1340 H 0.77668 0.79977 0.41103 0.0
H1341 H 0.74424 0.7971 0.45622 0.0
H1342 H 0.69504 0.77442 0.40004 0.0
H1343 H 0.72763 0.77642 0.35521 0.0
C1344 C 0.6513 0.79103 0.48466 0.0
C1345 C 0.66166 0.77419 0.51171 0.0
C1346 C 0.66916 0.79477 0.45882 0.0
C1347 C 0.69789 0.78234 0.45959 0.0
C1348 C 0.70824 0.76597 0.48687 0.0
C1349 C 0.69039 0.76174 0.51243 0.0
C1350 C 0.75875 0.7946 0.40823 0.0
C1351 C 0.75476 0.78844 0.37938 0.0
C1352 C 0.74027 0.79284 0.43419 0.0
C1353 C 0.71699 0.78554 0.43179 0.0
C1354 C 0.71258 0.7803 0.40271 0.0
C1355 C 0.73134 0.78141 0.37699 0.0
H1356 H 0.295 0.60627 0.49672 0.0
H1357 H 0.32884 0.5688 0.41214 0.0
H1358 H 0.28827 0.65339 0.46889 0.0
H1359 H 0.32159 0.61589 0.38416 0.0
H1360 H 0.27446 0.70801 0.34187 0.0
H1361 H 0.27913 0.66173 0.37075 0.0
H1362 H 0.32089 0.68001 0.43912 0.0
H1363 H 0.31689 0.72592 0.4099 0.0
C1364 C 0.30085 0.60813 0.47216 0.0
C1365 C 0.31252 0.58376 0.45667 0.0
C1366 C 0.29711 0.63509 0.45624 0.0
C1367 C 0.30429 0.63844 0.42426 0.0
C1368 C 0.31565 0.61408 0.40872 0.0
C1369 C 0.32 0.58709 0.42478 0.0
C1370 C 0.28434 0.70231 0.36325 0.0
C1371 C 0.29516 0.72081 0.37362 0.0
C1372 C 0.28722 0.67569 0.37966 0.0
C1373 C 0.30042 0.66713 0.40724 0.0
C1374 C 0.31049 0.68598 0.41808 0.0
C1375 C 0.30822 0.71229 0.40129 0.0
H1376 H 0.43271 0.31611 0.48368 0.0
H1377 H 0.46875 0.23434 0.45007 0.0
H1378 H 0.39422 0.32717 0.4515 0.0
H1379 H 0.43075 0.24513 0.41855 0.0
H1380 H 0.36788 0.27646 0.34814 0.0
H1381 H 0.40809 0.27303 0.37399 0.0
H1382 H 0.35451 0.31254 0.45013 0.0
H1383 H 0.31463 0.3162 0.4242 0.0
C1384 C 0.43262 0.30063 0.46927 0.0
C1385 C 0.45387 0.27427 0.46973 0.0
C1386 C 0.41046 0.30687 0.45091 0.0
C1387 C 0.4092 0.28706 0.43224 0.0
C1388 C 0.43097 0.26114 0.43212 0.0
C1389 C 0.45279 0.25484 0.45057 0.0
C1390 C 0.36474 0.28469 0.37021 0.0
C1391 C 0.33801 0.29627 0.38422 0.0
C1392 C 0.38779 0.28261 0.38518 0.0
C1393 C 0.38473 0.29227 0.41445 0.0
C1394 C 0.35787 0.30505 0.42763 0.0
C1395 C 0.33492 0.30694 0.4128 0.0
H1396 H 0.63996 0.76275 0.69461 0.0
H1397 H 0.62071 0.84672 0.6464 0.0
H1398 H 0.67234 0.77131 0.72317 0.0
H1399 H 0.65293 0.85575 0.676 0.0
H1400 H 0.73953 0.84518 0.70301 0.0
H1401 H 0.70135 0.84229 0.67879 0.0
H1402 H 0.67984 0.79479 0.76183 0.0
H1403 H 0.71882 0.79703 0.78559 0.0
C1404 C 0.64231 0.78331 0.69037 0.0
C1405 C 0.62774 0.80398 0.66791 0.0
C1406 C 0.66085 0.78831 0.70709 0.0
C1407 C 0.66549 0.81423 0.70206 0.0
C1408 C 0.65025 0.83535 0.68029 0.0
C1409 C 0.63158 0.8303 0.66344 0.0
C1410 C 0.72648 0.83434 0.71622 0.0
C1411 C 0.73225 0.82126 0.74623 0.0
C1412 C 0.70437 0.83286 0.70237 0.0
C1413 C 0.68733 0.81825 0.71815 0.0
C1414 C 0.69266 0.8059 0.74866 0.0
C1415 C 0.71488 0.80734 0.76248 0.0
H1416 H 0.59587 0.29055 0.45905 0.0
H1417 H 0.6362 0.20016 0.46423 0.0
H1418 H 0.63848 0.29729 0.43608 0.0
H1419 H 0.67881 0.2069 0.44134 0.0
H1420 H 0.73839 0.23084 0.36518 0.0
H1421 H 0.69762 0.22304 0.39228 0.0
H1422 H 0.68502 0.29172 0.44607 0.0
H1423 H 0.72574 0.29997 0.41832 0.0
C1424 C 0.61386 0.27208 0.45562 0.0
C1425 C 0.61243 0.24479 0.46341 0.0
C1426 C 0.63838 0.27596 0.44248 0.0
C1427 C 0.66215 0.25265 0.43678 0.0
C1428 C 0.66082 0.22536 0.44491 0.0
C1429 C 0.6363 0.22148 0.45802 0.0
C1430 C 0.72711 0.24419 0.38295 0.0
C1431 C 0.73537 0.2661 0.38948 0.0
C1432 C 0.70374 0.23959 0.39865 0.0
C1433 C 0.68791 0.25677 0.42136 0.0
C1434 C 0.69651 0.27832 0.42843 0.0
C1435 C 0.72 0.2829 0.41271 0.0
H1436 H 0.74632 0.67219 0.47946 0.0
H1437 H 0.82247 0.60137 0.48014 0.0
H1438 H 0.76355 0.69313 0.43105 0.0
H1439 H 0.83985 0.62285 0.43254 0.0
H1440 H 0.86558 0.70463 0.393 0.0
H1441 H 0.84981 0.67101 0.4288 0.0
H1442 H 0.7839 0.68388 0.37209 0.0
H1443 H 0.80034 0.71676 0.33576 0.0
C1444 C 0.76641 0.66078 0.46902 0.0
C1445 C 0.78325 0.63544 0.48411 0.0
C1446 C 0.77624 0.67274 0.44128 0.0
C1447 C 0.80307 0.6596 0.42832 0.0
C1448 C 0.81918 0.63343 0.44227 0.0
C1449 C 0.80928 0.62135 0.4697 0.0
C1450 C 0.84844 0.69935 0.38751 0.0
C1451 C 0.8343 0.71317 0.36146 0.0
C1452 C 0.83937 0.6802 0.40801 0.0
C1453 C 0.81554 0.67508 0.40322 0.0
C1454 C 0.80232 0.68756 0.37623 0.0
C1455 C 0.81192 0.70618 0.35524 0.0
H1456 H 0.5398 0.84838 0.50518 0.0
H1457 H 0.493 0.80674 0.56958 0.0
H1458 H 0.50453 0.86079 0.46841 0.0
H1459 H 0.45814 0.8186 0.53335 0.0
H1460 H 0.39435 0.8455 0.46852 0.0
H1461 H 0.42256 0.8525 0.50445 0.0
H1462 H 0.49248 0.83212 0.43675 0.0
H1463 H 0.46394 0.82646 0.40027 0.0
C1464 C 0.52145 0.84288 0.51186 0.0
C1465 C 0.51884 0.82692 0.5402 0.0
C1466 C 0.50145 0.8496 0.49074 0.0
C1467 C 0.47852 0.84054 0.49777 0.0
C1468 C 0.47519 0.82632 0.52716 0.0
C1469 C 0.4952 0.81946 0.548 0.0
C1470 C 0.41551 0.84336 0.46087 0.0
C1471 C 0.42692 0.83498 0.43156 0.0
C1472 C 0.43179 0.8471 0.48166 0.0
C1473 C 0.45995 0.84247 0.47375 0.0
C1474 C 0.47088 0.83602 0.44368 0.0
C1475 C 0.45457 0.83236 0.42285 0.0
H1476 H 0.30988 0.45091 0.44113 0.0
H1477 H 0.2305 0.46709 0.49255 0.0
H1478 H 0.29586 0.42925 0.40393 0.0
H1479 H 0.21614 0.44496 0.4546 0.0
H1480 H 0.23235 0.35963 0.40685 0.0
H1481 H 0.23073 0.39478 0.44011 0.0
H1482 H 0.26473 0.43908 0.36335 0.0
H1483 H 0.26709 0.40359 0.33048 0.0
C1484 C 0.28922 0.45009 0.4443 0.0
C1485 C 0.27136 0.46051 0.4699 0.0
C1486 C 0.28104 0.43792 0.4227 0.0
C1487 C 0.25477 0.43556 0.4261 0.0
C1488 C 0.2365 0.44654 0.45137 0.0
C1489 C 0.24464 0.45924 0.47297 0.0
C1490 C 0.23853 0.37745 0.39683 0.0
C1491 C 0.2503 0.37863 0.36622 0.0
C1492 C 0.23758 0.39762 0.4159 0.0
C1493 C 0.24819 0.41934 0.40453 0.0
C1494 C 0.25698 0.42222 0.37296 0.0
C1495 C 0.25824 0.40195 0.35409 0.0
H1496 H 0.46327 0.27114 0.63961 0.0
H1497 H 0.47917 0.18149 0.64376 0.0
H1498 H 0.4367 0.27215 0.68919 0.0
H1499 H 0.45385 0.18228 0.69428 0.0
H1500 H 0.37577 0.20328 0.7622 0.0
H1501 H 0.40804 0.1978 0.71661 0.0
H1502 H 0.43831 0.25915 0.74334 0.0
H1503 H 0.40519 0.26539 0.78859 0.0
C1504 C 0.46125 0.25157 0.65098 0.0
C1505 C 0.47335 0.22626 0.63719 0.0
C1506 C 0.4463 0.25208 0.67986 0.0
C1507 C 0.4431 0.22728 0.69599 0.0
C1508 C 0.45557 0.20188 0.68248 0.0
C1509 C 0.47039 0.20139 0.65349 0.0
C1510 C 0.38962 0.21527 0.75875 0.0
C1511 C 0.38765 0.23497 0.77905 0.0
C1512 C 0.40828 0.21204 0.73251 0.0
C1513 C 0.42564 0.2283 0.7259 0.0
C1514 C 0.42485 0.24673 0.74725 0.0
C1515 C 0.40605 0.25007 0.77346 0.0
H1516 H 0.76285 0.5226 0.71892 0.0
H1517 H 0.75748 0.49417 0.63286 0.0
H1518 H 0.77253 0.47471 0.74428 0.0
H1519 H 0.76788 0.44596 0.65815 0.0
H1520 H 0.75823 0.37011 0.72579 0.0
H1521 H 0.74805 0.41723 0.69823 0.0
H1522 H 0.81182 0.42948 0.74204 0.0
H1523 H 0.8219 0.38236 0.77004 0.0
C1524 C 0.76323 0.50626 0.70551 0.0
C1525 C 0.75933 0.51222 0.67384 0.0
C1526 C 0.76925 0.47871 0.71994 0.0
C1527 C 0.77138 0.45653 0.70309 0.0
C1528 C 0.76639 0.46263 0.67173 0.0
C1529 C 0.76049 0.49018 0.65725 0.0
C1530 C 0.77033 0.38268 0.72934 0.0
C1531 C 0.79081 0.3725 0.75028 0.0
C1532 C 0.76451 0.40967 0.71345 0.0
C1533 C 0.7789 0.42715 0.71826 0.0
C1534 C 0.80007 0.41662 0.73829 0.0
C1535 C 0.80604 0.38951 0.75407 0.0
H1536 H 0.24302 0.56171 0.61712 0.0
H1537 H 0.30855 0.57789 0.55556 0.0
H1538 H 0.23769 0.60309 0.64328 0.0
H1539 H 0.3029 0.61924 0.58073 0.0
H1540 H 0.3162 0.65784 0.66183 0.0
H1541 H 0.31509 0.62197 0.63156 0.0
H1542 H 0.2263 0.65542 0.63912 0.0
H1543 H 0.2274 0.69088 0.67041 0.0
C1544 C 0.25565 0.57462 0.60872 0.0
C1545 C 0.27639 0.56665 0.58478 0.0
C1546 C 0.25268 0.5982 0.62359 0.0
C1547 C 0.27034 0.61398 0.61443 0.0
C1548 C 0.28953 0.60706 0.58884 0.0
C1549 C 0.29264 0.58353 0.57433 0.0
C1550 C 0.29645 0.65751 0.6571 0.0
C1551 C 0.27192 0.6772 0.6684 0.0
C1552 C 0.29579 0.63717 0.63949 0.0
C1553 C 0.27057 0.63606 0.63276 0.0
C1554 C 0.246 0.65575 0.64402 0.0
C1555 C 0.24667 0.6762 0.66161 0.0
loop_
_geom_bond_atom_site_label_1
_geom_bond_atom_site_label_2
_geom_bond_distance
_geom_bond_site_symmetry_2
_ccdc_geom_bond_type
Cu0 N1 1.999 . S
Cu0 O6 1.974 1_545 S
Cu0 N11 1.985 1_545 S
Cu0 O20 1.971 . S
N1 Cu0 1.999 . S
N1 C3 1.263 . S
N1 C5 1.389 . S
N2 C3 1.358 . S
N2 C4 1.400 . S
C3 N1 1.263 . S
C3 N2 1.358 . S
C3 H9 0.930 . S
C4 N2 1.400 . S
C4 C5 1.351 . S
C4 H21 0.930 . S
C5 N1 1.389 . S
C5 C4 1.351 . S
C5 H10 0.930 . S
O6 Cu0 1.974 1_565 S
O6 C16 1.282 . S
C7 O8 1.261 1_655 S
C7 O20 1.246 1_655 S
O8 C7 1.261 1_455 S
H9 C3 0.930 . S
H10 C5 0.930 . S
N11 Cu0 1.985 1_565 S
N11 C13 1.335 1_455 S
N11 C14 1.390 . S
N12 C13 1.345 . S
N12 C15 1.336 1_655 S
C13 N11 1.335 1_655 S
C13 N12 1.345 . S
C13 H18 0.930 . S
C14 N11 1.390 . S
C14 C15 1.346 . S
C14 H19 0.930 . S
C15 N12 1.336 1_455 S
C15 C14 1.346 . S
C15 H22 0.929 . S
C16 O6 1.282 . S
C16 O17 1.216 . S
O17 C16 1.216 . S
H18 C13 0.930 . S
H19 C14 0.930 . S
O20 Cu0 1.971 . S
O20 C7 1.246 1_455 S
H21 C4 0.930 . S
H22 C15 0.929 . S
Cu23 N24 1.999 1_455 S
Cu23 O29 1.974 1_455 S
Cu23 N34 1.985 . S
Cu23 O43 1.959 . S
N24 Cu23 1.999 1_655 S
N24 C26 1.263 . S
N24 C28 1.389 1_645 S
N25 C26 1.388 . S
N25 C27 1.387 1_545 S
C26 N24 1.263 . S
C26 N25 1.388 . S
C26 H32 0.930 . S
C27 N25 1.387 1_565 S
C27 C28 1.351 1_655 S
C27 H44 0.930 . S
C28 N24 1.389 1_465 S
C28 C27 1.351 1_455 S
C28 H33 0.930 . S
O29 Cu23 1.974 1_655 S
O29 C39 1.282 . S
C30 O31 1.261 . S
C30 O43 1.251 . S
O31 C30 1.261 . S
H32 C26 0.930 . S
H33 C28 0.930 . S
N34 Cu23 1.985 . S
N34 C36 1.335 . S
N34 C37 1.390 . S
N35 C36 1.345 . S
N35 C38 1.336 . S
C36 N34 1.335 . S
C36 N35 1.345 . S
C36 H41 0.930 . S
C37 N34 1.390 . S
C37 C38 1.346 . S
C37 H42 0.930 . S
C38 N35 1.336 . S
C38 C37 1.346 . S
C38 H45 0.929 . S
C39 O29 1.282 . S
C39 O40 1.216 . S
O40 C39 1.216 . S
H41 C36 0.930 . S
H42 C37 0.930 . S
O43 Cu23 1.959 . S
O43 C30 1.251 . S
H44 C27 0.930 . S
H45 C38 0.929 . S
Cu46 N47 1.999 . S
Cu46 O52 1.974 . S
Cu46 N57 1.985 . S
Cu46 O66 1.959 . S
N47 Cu46 1.999 . S
N47 C49 1.263 . S
N47 C51 1.389 . S
N48 C49 1.358 1_565 S
N48 C50 1.400 1_565 S
C49 N47 1.263 . S
C49 N48 1.358 1_545 S
C49 H55 0.930 . S
C50 N48 1.400 1_545 S
C50 C51 1.351 . S
C50 H67 0.930 1_554 S
C51 N47 1.389 . S
C51 C50 1.351 . S
C51 H56 0.930 . S
O52 Cu46 1.974 . S
O52 C62 1.282 . S
C53 O54 1.261 . S
C53 O66 1.251 . S
O54 C53 1.261 . S
H55 C49 0.930 . S
H56 C51 0.930 . S
N57 Cu46 1.985 . S
N57 C59 1.335 . S
N57 C60 1.390 . S
N58 C59 1.345 . S
N58 C61 1.336 . S
C59 N57 1.335 . S
C59 N58 1.345 . S
C59 H64 0.930 . S
C60 N57 1.390 . S
C60 C61 1.346 . S
C60 H65 0.930 . S
C61 N58 1.336 . S
C61 C60 1.346 . S
C61 H68 0.929 . S
C62 O52 1.282 . S
C62 O63 1.216 . S
O63 C62 1.216 . S
H64 C59 0.930 . S
H65 C60 0.930 . S
O66 Cu46 1.959 . S
O66 C53 1.251 . S
H67 C50 0.930 1_556 S
H68 C61 0.929 . S
Cu69 N70 1.999 . S
Cu69 O75 1.974 . S
Cu69 N80 1.985 . S
Cu69 O89 1.959 . S
N70 Cu69 1.999 . S
N70 C72 1.263 . S
N70 C74 1.389 . S
N71 C72 1.358 . S
N71 C73 1.400 1_554 S
C72 N70 1.263 . S
C72 N71 1.358 . S
C72 H78 0.930 . S
C73 N71 1.400 1_556 S
C73 C74 1.351 1_556 S
C73 H90 0.930 . S
C74 N70 1.389 . S
C74 C73 1.351 1_554 S
C74 H79 0.928 . S
O75 Cu69 1.974 . S
O75 C85 1.282 . S
C76 O77 1.261 . S
C76 O89 1.251 . S
O77 C76 1.261 . S
H78 C72 0.930 . S
H79 C74 0.928 . S
N80 Cu69 1.985 . S
N80 C82 1.335 1_455 S
N80 C83 1.390 . S
N81 C82 1.345 . S
N81 C84 1.336 1_655 S
C82 N80 1.335 1_655 S
C82 N81 1.345 . S
C82 H87 0.930 . S
C83 N80 1.390 . S
C83 C84 1.346 . S
C83 H88 0.930 . S
C84 N81 1.336 1_455 S
C84 C83 1.346 . S
C84 H91 0.929 . S
C85 O75 1.282 . S
C85 O86 1.216 . S
O86 C85 1.216 . S
H87 C82 0.930 . S
H88 C83 0.930 . S
O89 Cu69 1.959 . S
O89 C76 1.251 . S
H90 C73 0.930 . S
H91 C84 0.929 . S
Cu92 N93 1.999 1_554 S
Cu92 O98 1.974 . S
Cu92 N103 1.985 1_545 S
Cu92 O112 1.959 1_544 S
N93 Cu92 1.999 1_556 S
N93 C95 1.263 . S
N93 C97 1.389 . S
N94 C95 1.358 . S
N94 C96 1.400 . S
C95 N93 1.263 . S
C95 N94 1.358 . S
C95 H101 0.930 . S
C96 N94 1.400 . S
C96 C97 1.351 . S
C96 H113 0.930 . S
C97 N93 1.389 . S
C97 C96 1.351 . S
C97 H102 0.930 . S
O98 Cu92 1.974 . S
O98 C108 1.282 . S
C99 O100 1.261 . S
C99 O112 1.251 . S
O100 C99 1.261 . S
H101 C95 0.930 . S
H102 C97 0.930 . S
N103 Cu92 1.985 1_565 S
N103 C105 1.335 . S
N103 C106 1.390 . S
N104 C105 1.345 . S
N104 C107 1.336 . S
C105 N103 1.335 . S
C105 N104 1.345 . S
C105 H110 0.930 . S
C106 N103 1.390 . S
C106 C107 1.346 . S
C106 H111 0.930 . S
C107 N104 1.336 . S
C107 C106 1.346 . S
C107 H114 0.929 . S
C108 O98 1.282 . S
C108 O109 1.216 . S
O109 C108 1.216 . S
H110 C105 0.930 . S
H111 C106 0.930 . S
O112 Cu92 1.959 1_566 S
O112 C99 1.251 . S
H113 C96 0.930 . S
H114 C107 0.929 . S
Cu115 N116 1.999 1_454 S
Cu115 O121 1.974 1_455 S
Cu115 N126 1.985 . S
Cu115 O135 1.959 1_554 S
N116 Cu115 1.999 1_656 S
N116 C118 1.263 . S
N116 C120 1.391 . S
N117 C118 1.358 . S
N117 C119 1.400 . S
C118 N116 1.263 . S
C118 N117 1.358 . S
C118 H124 0.943 . S
C119 N117 1.400 . S
C119 C120 1.366 . S
C119 H136 0.930 . S
C120 N116 1.391 . S
C120 C119 1.366 . S
C120 H125 0.915 1_655 S
O121 Cu115 1.974 1_655 S
O121 C131 1.282 . S
C122 O123 1.261 . S
C122 O135 1.251 . S
O123 C122 1.261 . S
H124 C118 0.943 . S
H125 C120 0.915 1_455 S
N126 Cu115 1.985 . S
N126 C128 1.335 . S
N126 C129 1.390 . S
N127 C128 1.345 . S
N127 C130 1.336 . S
C128 N126 1.335 . S
C128 N127 1.345 . S
C128 H133 0.930 . S
C129 N126 1.390 . S
C129 C130 1.346 . S
C129 H134 0.930 . S
C130 N127 1.336 . S
C130 C129 1.346 . S
C130 H137 0.929 . S
C131 O121 1.282 . S
C131 O132 1.216 . S
O132 C131 1.216 . S
H133 C128 0.930 . S
H134 C129 0.930 . S
O135 Cu115 1.959 1_556 S
O135 C122 1.251 . S
H136 C119 0.930 . S
H137 C130 0.929 . S
Cu138 N139 1.999 . S
Cu138 O144 1.974 . S
Cu138 N149 1.985 . S
Cu138 O158 1.959 . S
N139 Cu138 1.999 . S
N139 C141 1.263 . S
N139 C143 1.389 . S
N140 C141 1.358 . S
N140 C142 1.400 . S
C141 N139 1.263 . S
C141 N140 1.358 . S
C141 H147 0.930 . S
C142 N140 1.400 . S
C142 C143 1.351 . S
C142 H159 0.930 . S
C143 N139 1.389 . S
C143 C142 1.351 . S
C143 H148 0.930 . S
O144 Cu138 1.974 . S
O144 C154 1.282 . S
C145 O146 1.261 . S
C145 O158 1.251 . S
O146 C145 1.261 . S
H147 C141 0.930 . S
H148 C143 0.930 . S
N149 Cu138 1.985 . S
N149 C151 1.335 . S
N149 C152 1.390 . S
N150 C151 1.345 . S
N150 C153 1.336 . S
C151 N149 1.335 . S
C151 N150 1.345 . S
C151 H156 0.930 . S
C152 N149 1.390 . S
C152 C153 1.346 . S
C152 H157 0.930 . S
C153 N150 1.336 . S
C153 C152 1.346 . S
C153 H160 0.929 . S
C154 O144 1.282 . S
C154 O155 1.216 . S
O155 C154 1.216 . S
H156 C151 0.930 . S
H157 C152 0.930 . S
O158 Cu138 1.959 . S
O158 C145 1.251 . S
H159 C142 0.930 . S
H160 C153 0.929 . S
Cu161 N162 1.999 . S
Cu161 O167 1.974 . S
Cu161 N172 1.985 . S
Cu161 O181 1.959 . S
N162 Cu161 1.999 . S
N162 C164 1.263 . S
N162 C166 1.389 . S
N163 C164 1.358 . S
N163 C165 1.400 . S
C164 N162 1.263 . S
C164 N163 1.358 . S
C164 H170 0.930 . S
C165 N163 1.400 . S
C165 C166 1.351 . S
C165 H182 0.930 . S
C166 N162 1.389 . S
C166 C165 1.351 . S
C166 H171 0.930 . S
O167 Cu161 1.974 . S
O167 C177 1.282 . S
C168 O169 1.261 . S
C168 O181 1.251 . S
O169 C168 1.261 . S
H170 C164 0.930 . S
H171 C166 0.930 . S
N172 Cu161 1.985 . S
N172 C174 1.335 . S
N172 C175 1.390 . S
N173 C174 1.345 . S
N173 C176 1.336 . S
C174 N172 1.335 . S
C174 N173 1.345 . S
C174 H179 0.930 . S
C175 N172 1.390 . S
C175 C176 1.346 . S
C175 H180 0.930 . S
C176 N173 1.336 . S
C176 C175 1.346 . S
C176 H183 0.929 . S
C177 O167 1.282 . S
C177 O178 1.216 . S
O178 C177 1.216 . S
H179 C174 0.930 . S
H180 C175 0.930 . S
O181 Cu161 1.959 . S
O181 C168 1.251 . S
H182 C165 0.930 . S
H183 C176 0.929 . S
Cu184 N185 1.999 . S
Cu184 O190 1.974 . S
Cu184 N195 1.985 . S
Cu184 O204 1.959 . S
N185 Cu184 1.999 . S
N185 C187 1.263 . S
N185 C189 1.389 . S
N186 C187 1.358 . S
N186 C188 1.400 . S
C187 N185 1.263 . S
C187 N186 1.358 . S
C187 H193 0.930 . S
C188 N186 1.400 . S
C188 C189 1.351 . S
C188 H205 0.930 . S
C189 N185 1.389 . S
C189 C188 1.351 . S
C189 H194 0.930 . S
O190 Cu184 1.974 . S
O190 C200 1.282 . S
C191 O192 1.261 . S
C191 O204 1.251 . S
O192 C191 1.261 . S
H193 C187 0.930 . S
H194 C189 0.930 . S
N195 Cu184 1.985 . S
N195 C197 1.335 . S
N195 C198 1.390 . S
N196 C197 1.345 . S
N196 C199 1.336 . S
C197 N195 1.335 . S
C197 N196 1.345 . S
C197 H202 0.930 . S
C198 N195 1.390 . S
C198 C199 1.346 . S
C198 H203 0.930 . S
C199 N196 1.336 . S
C199 C198 1.346 . S
C199 H206 0.929 . S
C200 O190 1.282 . S
C200 O201 1.216 . S
O201 C200 1.216 . S
H202 C197 0.930 . S
H203 C198 0.930 . S
O204 Cu184 1.959 . S
O204 C191 1.251 . S
H205 C188 0.930 . S
H206 C199 0.929 . S
Cu207 N208 1.999 . S
Cu207 O213 1.974 . S
Cu207 N218 1.985 . S
Cu207 O227 1.959 . S
N208 Cu207 1.999 . S
N208 C210 1.263 . S
N208 C212 1.389 . S
N209 C210 1.358 . S
N209 C211 1.400 . S
C210 N208 1.263 . S
C210 N209 1.358 . S
C210 H216 0.930 . S
C211 N209 1.400 . S
C211 C212 1.351 . S
C211 H228 0.930 . S
C212 N208 1.389 . S
C212 C211 1.351 . S
C212 H217 0.930 . S
O213 Cu207 1.974 . S
O213 C223 1.282 . S
C214 O215 1.261 . S
C214 O227 1.251 . S
O215 C214 1.261 . S
H216 C210 0.930 . S
H217 C212 0.930 . S
N218 Cu207 1.985 . S
N218 C220 1.335 . S
N218 C221 1.390 . S
N219 C220 1.345 . S
N219 C222 1.336 . S
C220 N218 1.335 . S
C220 N219 1.345 . S
C220 H225 0.930 . S
C221 N218 1.390 . S
C221 C222 1.346 . S
C221 H226 0.930 . S
C222 N219 1.336 . S
C222 C221 1.346 . S
C222 H229 0.929 . S
C223 O213 1.282 . S
C223 O224 1.216 . S
O224 C223 1.216 . S
H225 C220 0.930 . S
H226 C221 0.930 . S
O227 Cu207 1.959 . S
O227 C214 1.251 . S
H228 C211 0.930 . S
H229 C222 0.929 . S
Cu230 N231 1.999 . S
Cu230 O236 1.974 . S
Cu230 N241 1.985 . S
Cu230 O250 1.959 . S
N231 Cu230 1.999 . S
N231 C233 1.263 . S
N231 C235 1.389 . S
N232 C233 1.358 . S
N232 C234 1.400 . S
C233 N231 1.263 . S
C233 N232 1.358 . S
C233 H239 0.930 . S
C234 N232 1.400 . S
C234 C235 1.351 . S
C234 H251 0.930 . S
C235 N231 1.389 . S
C235 C234 1.351 . S
C235 H240 0.930 . S
O236 Cu230 1.974 . S
O236 C246 1.282 . S
C237 O238 1.261 . S
C237 O250 1.251 . S
O238 C237 1.261 . S
H239 C233 0.930 . S
H240 C235 0.930 . S
N241 Cu230 1.985 . S
N241 C243 1.335 . S
N241 C244 1.390 . S
N242 C243 1.345 . S
N242 C245 1.336 . S
C243 N241 1.335 . S
C243 N242 1.345 . S
C243 H248 0.930 . S
C244 N241 1.390 . S
C244 C245 1.346 . S
C244 H249 0.930 . S
C245 N242 1.336 . S
C245 C244 1.346 . S
C245 H252 0.929 . S
C246 O236 1.282 . S
C246 O247 1.216 . S
O247 C246 1.216 . S
H248 C243 0.930 . S
H249 C244 0.930 . S
O250 Cu230 1.959 . S
O250 C237 1.251 . S
H251 C234 0.930 . S
H252 C245 0.929 . S
Cu253 N254 1.999 . S
Cu253 O259 1.974 . S
Cu253 N264 1.985 . S
Cu253 O273 1.959 . S
N254 Cu253 1.999 . S
N254 C256 1.263 . S
N254 C258 1.389 . S
N255 C256 1.358 . S
N255 C257 1.400 . S
C256 N254 1.263 . S
C256 N255 1.358 . S
C256 H262 0.930 . S
C257 N255 1.400 . S
C257 C258 1.351 . S
C257 H274 0.930 . S
C258 N254 1.389 . S
C258 C257 1.351 . S
C258 H263 0.930 . S
O259 Cu253 1.974 . S
O259 C269 1.282 . S
C260 O261 1.261 . S
C260 O273 1.251 . S
O261 C260 1.261 . S
H262 C256 0.930 . S
H263 C258 0.930 . S
N264 Cu253 1.985 . S
N264 C266 1.335 . S
N264 C267 1.390 . S
N265 C266 1.345 . S
N265 C268 1.336 . S
C266 N264 1.335 . S
C266 N265 1.345 . S
C266 H271 0.930 . S
C267 N264 1.390 . S
C267 C268 1.346 . S
C267 H272 0.930 . S
C268 N265 1.336 . S
C268 C267 1.346 . S
C268 H275 0.929 . S
C269 O259 1.282 . S
C269 O270 1.216 . S
O270 C269 1.216 . S
H271 C266 0.930 . S
H272 C267 0.930 . S
O273 Cu253 1.959 . S
O273 C260 1.251 . S
H274 C257 0.930 . S
H275 C268 0.929 . S
Sm276 C278 2.846 . S
Sm276 O296 2.543 . S
Sm276 O297 2.450 . S
Sm276 O298 2.681 . S
Sm276 O299 2.464 . S
Sm276 O300 2.396 . S
Sm276 O304 2.386 . S
Sm276 O307 2.408 . S
Sm277 C287 2.846 . S
Sm277 O298 2.386 . S
Sm277 O301 2.408 . S
Sm277 O302 2.543 . S
Sm277 O303 2.450 . S
Sm277 O304 2.681 . S
Sm277 O305 2.464 . S
Sm277 O306 2.396 . S
C278 Sm276 2.846 . S
C278 C279 1.506 . S
C278 O296 1.261 . S
C278 O297 1.242 . S
C279 C278 1.506 . S
C279 C280 1.358 . S
C279 C284 1.382 . S
C280 C279 1.358 . S
C280 C281 1.385 . S
C280 H308 0.930 . S
C281 C280 1.385 . S
C281 C282 1.395 . S
C281 H309 0.929 . S
C282 C281 1.395 . S
C282 C283 1.335 . S
C283 C282 1.335 . S
C283 C284 1.398 . S
C283 H310 0.930 . S
C284 C279 1.382 . S
C284 C283 1.398 . S
C284 H311 0.929 . S
C285 O298 1.271 . S
C285 O299 1.251 . S
C286 O300 1.252 . S
C286 O301 1.272 . S
C287 Sm277 2.846 . S
C287 C288 1.506 . S
C287 O302 1.261 . S
C287 O303 1.242 . S
C288 C287 1.506 . S
C288 C289 1.358 . S
C288 C293 1.382 . S
C289 C288 1.358 . S
C289 C290 1.385 . S
C289 H312 0.930 . S
C290 C289 1.385 . S
C290 C291 1.395 . S
C290 H313 0.929 . S
C291 C290 1.395 . S
C291 C292 1.335 . S
C292 C291 1.335 . S
C292 C293 1.398 . S
C292 H314 0.930 . S
C293 C288 1.382 . S
C293 C292 1.398 . S
C293 H315 0.929 . S
C294 O304 1.271 . S
C294 O305 1.251 . S
C295 O306 1.252 . S
C295 O307 1.272 . S
O296 Sm276 2.543 . S
O296 C278 1.261 . S
O297 Sm276 2.450 . S
O297 C278 1.242 . S
O298 Sm276 2.681 . S
O298 Sm277 2.386 . S
O298 C285 1.271 . S
O299 Sm276 2.464 . S
O299 C285 1.251 . S
O300 Sm276 2.396 . S
O300 C286 1.252 . S
O301 Sm277 2.408 . S
O301 C286 1.272 . S
O302 Sm277 2.543 . S
O302 C287 1.261 . S
O303 Sm277 2.450 . S
O303 C287 1.242 . S
O304 Sm276 2.386 . S
O304 Sm277 2.681 . S
O304 C294 1.271 . S
O305 Sm277 2.464 . S
O305 C294 1.251 . S
O306 Sm277 2.396 . S
O306 C295 1.252 . S
O307 Sm276 2.408 . S
O307 C295 1.272 . S
H308 C280 0.930 . S
H309 C281 0.929 . S
H310 C283 0.930 . S
H311 C284 0.929 . S
H312 C289 0.930 . S
H313 C290 0.929 . S
H314 C292 0.930 . S
H315 C293 0.929 . S
Sm316 C318 2.846 . S
Sm316 O336 2.543 . S
Sm316 O337 2.450 . S
Sm316 O338 2.681 . S
Sm316 O339 2.464 . S
Sm316 O340 2.396 . S
Sm316 O344 2.386 . S
Sm316 O347 2.408 . S
Sm317 C327 2.846 . S
Sm317 O338 2.386 . S
Sm317 O341 2.408 . S
Sm317 O342 2.543 . S
Sm317 O343 2.450 . S
Sm317 O344 2.681 . S
Sm317 O345 2.464 . S
Sm317 O346 2.396 . S
C318 Sm316 2.846 . S
C318 C319 1.506 . S
C318 O336 1.261 . S
C318 O337 1.242 . S
C319 C318 1.506 . S
C319 C320 1.358 . S
C319 C324 1.382 . S
C320 C319 1.358 . S
C320 C321 1.385 . S
C320 H348 0.930 . S
C321 C320 1.385 . S
C321 C322 1.395 . S
C321 H349 0.929 . S
C322 C321 1.395 . S
C322 C323 1.335 . S
C323 C322 1.335 . S
C323 C324 1.398 . S
C323 H350 0.930 . S
C324 C319 1.382 . S
C324 C323 1.398 . S
C324 H351 0.929 . S
C325 O338 1.271 . S
C325 O339 1.251 . S
C326 O340 1.252 . S
C326 O341 1.272 . S
C327 Sm317 2.846 . S
C327 C328 1.506 . S
C327 O342 1.261 . S
C327 O343 1.242 . S
C328 C327 1.506 . S
C328 C329 1.358 . S
C328 C333 1.382 . S
C329 C328 1.358 . S
C329 C330 1.385 . S
C329 H352 0.930 . S
C330 C329 1.385 . S
C330 C331 1.395 . S
C330 H353 0.929 . S
C331 C330 1.395 . S
C331 C332 1.335 . S
C332 C331 1.335 . S
C332 C333 1.398 . S
C332 H354 0.930 . S
C333 C328 1.382 . S
C333 C332 1.398 . S
C333 H355 0.929 . S
C334 O344 1.271 . S
C334 O345 1.251 . S
C335 O346 1.252 . S
C335 O347 1.272 . S
O336 Sm316 2.543 . S
O336 C318 1.261 . S
O337 Sm316 2.450 . S
O337 C318 1.242 . S
O338 Sm316 2.681 . S
O338 Sm317 2.386 . S
O338 C325 1.271 . S
O339 Sm316 2.464 . S
O339 C325 1.251 . S
O340 Sm316 2.396 . S
O340 C326 1.252 . S
O341 Sm317 2.408 . S
O341 C326 1.272 . S
O342 Sm317 2.543 . S
O342 C327 1.261 . S
O343 Sm317 2.450 . S
O343 C327 1.242 . S
O344 Sm316 2.386 . S
O344 Sm317 2.681 . S
O344 C334 1.271 . S
O345 Sm317 2.464 . S
O345 C334 1.251 . S
O346 Sm317 2.396 . S
O346 C335 1.252 . S
O347 Sm316 2.408 . S
O347 C335 1.272 . S
H348 C320 0.930 . S
H349 C321 0.929 . S
H350 C323 0.930 . S
H351 C324 0.929 . S
H352 C329 0.930 . S
H353 C330 0.929 . S
H354 C332 0.930 . S
H355 C333 0.929 . S
Sm356 C358 2.846 . S
Sm356 O376 2.543 . S
Sm356 O377 2.450 . S
Sm356 O378 2.681 . S
Sm356 O379 2.464 . S
Sm356 O380 2.396 . S
Sm356 O384 2.386 . S
Sm356 O387 2.408 . S
Sm357 C367 2.846 . S
Sm357 O378 2.386 . S
Sm357 O381 2.408 . S
Sm357 O382 2.543 . S
Sm357 O383 2.450 . S
Sm357 O384 2.681 . S
Sm357 O385 2.464 . S
Sm357 O386 2.396 . S
C358 Sm356 2.846 . S
C358 C359 1.506 . S
C358 O376 1.261 . S
C358 O377 1.242 . S
C359 C358 1.506 . S
C359 C360 1.358 . S
C359 C364 1.382 . S
C360 C359 1.358 . S
C360 C361 1.385 . S
C360 H388 0.930 . S
C361 C360 1.385 . S
C361 C362 1.395 . S
C361 H389 0.929 . S
C362 C361 1.395 . S
C362 C363 1.335 . S
C363 C362 1.335 . S
C363 C364 1.398 . S
C363 H390 0.930 . S
C364 C359 1.382 . S
C364 C363 1.398 . S
C364 H391 0.929 . S
C365 O378 1.271 . S
C365 O379 1.251 . S
C366 O380 1.252 . S
C366 O381 1.272 . S
C367 Sm357 2.846 . S
C367 C368 1.506 . S
C367 O382 1.261 . S
C367 O383 1.242 . S
C368 C367 1.506 . S
C368 C369 1.358 . S
C368 C373 1.382 . S
C369 C368 1.358 . S
C369 C370 1.385 . S
C369 H392 0.930 . S
C370 C369 1.385 . S
C370 C371 1.395 . S
C370 H393 0.929 . S
C371 C370 1.395 . S
C371 C372 1.335 . S
C372 C371 1.335 . S
C372 C373 1.398 . S
C372 H394 0.930 . S
C373 C368 1.382 . S
C373 C372 1.398 . S
C373 H395 0.929 . S
C374 O384 1.271 . S
C374 O385 1.251 . S
C375 O386 1.252 . S
C375 O387 1.272 . S
O376 Sm356 2.543 . S
O376 C358 1.261 . S
O377 Sm356 2.450 . S
O377 C358 1.242 . S
O378 Sm356 2.681 . S
O378 Sm357 2.386 . S
O378 C365 1.271 . S
O379 Sm356 2.464 . S
O379 C365 1.251 . S
O380 Sm356 2.396 . S
O380 C366 1.252 . S
O381 Sm357 2.408 . S
O381 C366 1.272 . S
O382 Sm357 2.543 . S
O382 C367 1.261 . S
O383 Sm357 2.450 . S
O383 C367 1.242 . S
O384 Sm356 2.386 . S
O384 Sm357 2.681 . S
O384 C374 1.271 . S
O385 Sm357 2.464 . S
O385 C374 1.251 . S
O386 Sm357 2.396 . S
O386 C375 1.252 . S
O387 Sm356 2.408 . S
O387 C375 1.272 . S
H388 C360 0.930 . S
H389 C361 0.929 . S
H390 C363 0.930 . S
H391 C364 0.929 . S
H392 C369 0.930 . S
H393 C370 0.929 . S
H394 C372 0.930 . S
H395 C373 0.929 . S
Sm396 C398 2.846 . S
Sm396 O416 2.543 . S
Sm396 O417 2.450 . S
Sm396 O418 2.681 . S
Sm396 O419 2.464 . S
Sm396 O420 2.396 . S
Sm396 O424 2.386 . S
Sm396 O427 2.408 . S
Sm397 C407 2.846 . S
Sm397 O418 2.386 . S
Sm397 O421 2.408 . S
Sm397 O422 2.543 . S
Sm397 O423 2.450 . S
Sm397 O424 2.681 . S
Sm397 O425 2.464 . S
Sm397 O426 2.396 . S
C398 Sm396 2.846 . S
C398 C399 1.506 . S
C398 O416 1.261 . S
C398 O417 1.242 . S
C399 C398 1.506 . S
C399 C400 1.358 . S
C399 C404 1.382 . S
C400 C399 1.358 . S
C400 C401 1.385 . S
C400 H428 0.930 . S
C401 C400 1.385 . S
C401 C402 1.395 . S
C401 H429 0.929 . S
C402 C401 1.395 . S
C402 C403 1.335 . S
C403 C402 1.335 . S
C403 C404 1.398 . S
C403 H430 0.930 . S
C404 C399 1.382 . S
C404 C403 1.398 . S
C404 H431 0.929 . S
C405 O418 1.271 . S
C405 O419 1.251 . S
C406 O420 1.252 . S
C406 O421 1.272 . S
C407 Sm397 2.846 . S
C407 C408 1.506 . S
C407 O422 1.261 . S
C407 O423 1.242 . S
C408 C407 1.506 . S
C408 C409 1.358 . S
C408 C413 1.382 . S
C409 C408 1.358 . S
C409 C410 1.385 . S
C409 H432 0.930 . S
C410 C409 1.385 . S
C410 C411 1.395 . S
C410 H433 0.929 . S
C411 C410 1.395 . S
C411 C412 1.335 . S
C412 C411 1.335 . S
C412 C413 1.398 . S
C412 H434 0.930 . S
C413 C408 1.382 . S
C413 C412 1.398 . S
C413 H435 0.929 . S
C414 O424 1.271 . S
C414 O425 1.251 . S
C415 O426 1.252 . S
C415 O427 1.272 . S
O416 Sm396 2.543 . S
O416 C398 1.261 . S
O417 Sm396 2.450 . S
O417 C398 1.242 . S
O418 Sm396 2.681 . S
O418 Sm397 2.386 . S
O418 C405 1.271 . S
O419 Sm396 2.464 . S
O419 C405 1.251 . S
O420 Sm396 2.396 . S
O420 C406 1.252 . S
O421 Sm397 2.408 . S
O421 C406 1.272 . S
O422 Sm397 2.543 . S
O422 C407 1.261 . S
O423 Sm397 2.450 . S
O423 C407 1.242 . S
O424 Sm396 2.386 . S
O424 Sm397 2.681 . S
O424 C414 1.271 . S
O425 Sm397 2.464 . S
O425 C414 1.251 . S
O426 Sm397 2.396 . S
O426 C415 1.252 . S
O427 Sm396 2.408 . S
O427 C415 1.272 . S
H428 C400 0.930 . S
H429 C401 0.929 . S
H430 C403 0.930 . S
H431 C404 0.929 . S
H432 C409 0.930 . S
H433 C410 0.929 . S
H434 C412 0.930 . S
H435 C413 0.929 . S
Sm436 C438 2.846 . S
Sm436 O456 2.543 . S
Sm436 O457 2.450 . S
Sm436 O458 2.681 . S
Sm436 O459 2.464 . S
Sm436 O460 2.396 . S
Sm436 O464 2.386 . S
Sm436 O467 2.408 . S
Sm437 C447 2.846 . S
Sm437 O458 2.386 . S
Sm437 O461 2.408 . S
Sm437 O462 2.543 . S
Sm437 O463 2.450 . S
Sm437 O464 2.681 . S
Sm437 O465 2.464 . S
Sm437 O466 2.396 . S
C438 Sm436 2.846 . S
C438 C439 1.506 . S
C438 O456 1.261 . S
C438 O457 1.242 . S
C439 C438 1.506 . S
C439 C440 1.358 . S
C439 C444 1.382 . S
C440 C439 1.358 . S
C440 C441 1.385 . S
C440 H468 0.930 . S
C441 C440 1.385 . S
C441 C442 1.395 . S
C441 H469 0.929 . S
C442 C441 1.395 . S
C442 C443 1.335 . S
C443 C442 1.335 . S
C443 C444 1.398 . S
C443 H470 0.930 . S
C444 C439 1.382 . S
C444 C443 1.398 . S
C444 H471 0.929 . S
C445 O458 1.271 . S
C445 O459 1.251 . S
C446 O460 1.252 . S
C446 O461 1.272 . S
C447 Sm437 2.846 . S
C447 C448 1.506 . S
C447 O462 1.261 . S
C447 O463 1.242 . S
C448 C447 1.506 . S
C448 C449 1.358 . S
C448 C453 1.382 . S
C449 C448 1.358 . S
C449 C450 1.385 . S
C449 H472 0.930 . S
C450 C449 1.385 . S
C450 C451 1.395 . S
C450 H473 0.929 . S
C451 C450 1.395 . S
C451 C452 1.335 . S
C452 C451 1.335 . S
C452 C453 1.398 . S
C452 H474 0.930 . S
C453 C448 1.382 . S
C453 C452 1.398 . S
C453 H475 0.929 . S
C454 O464 1.271 . S
C454 O465 1.251 . S
C455 O466 1.252 . S
C455 O467 1.272 . S
O456 Sm436 2.543 . S
O456 C438 1.261 . S
O457 Sm436 2.450 . S
O457 C438 1.242 . S
O458 Sm436 2.681 . S
O458 Sm437 2.386 . S
O458 C445 1.271 . S
O459 Sm436 2.464 . S
O459 C445 1.251 . S
O460 Sm436 2.396 . S
O460 C446 1.252 . S
O461 Sm437 2.408 . S
O461 C446 1.272 . S
O462 Sm437 2.543 . S
O462 C447 1.261 . S
O463 Sm437 2.450 . S
O463 C447 1.242 . S
O464 Sm436 2.386 . S
O464 Sm437 2.681 . S
O464 C454 1.271 . S
O465 Sm437 2.464 . S
O465 C454 1.251 . S
O466 Sm437 2.396 . S
O466 C455 1.252 . S
O467 Sm436 2.408 . S
O467 C455 1.272 . S
H468 C440 0.930 . S
H469 C441 0.929 . S
H470 C443 0.930 . S
H471 C444 0.929 . S
H472 C449 0.930 . S
H473 C450 0.929 . S
H474 C452 0.930 . S
H475 C453 0.929 . S
Sm476 C478 2.846 . S
Sm476 O496 2.543 . S
Sm476 O497 2.450 . S
Sm476 O498 2.681 . S
Sm476 O499 2.464 . S
Sm476 O500 2.396 . S
Sm476 O504 2.386 . S
Sm476 O507 2.408 . S
Sm477 C487 2.846 . S
Sm477 O498 2.386 . S
Sm477 O501 2.408 . S
Sm477 O502 2.543 . S
Sm477 O503 2.450 . S
Sm477 O504 2.681 . S
Sm477 O505 2.464 . S
Sm477 O506 2.396 . S
C478 Sm476 2.846 . S
C478 C479 1.506 . S
C478 O496 1.261 . S
C478 O497 1.242 . S
C479 C478 1.506 . S
C479 C480 1.358 . S
C479 C484 1.382 . S
C480 C479 1.358 . S
C480 C481 1.385 . S
C480 H508 0.930 . S
C481 C480 1.385 . S
C481 C482 1.395 . S
C481 H509 0.929 . S
C482 C481 1.395 . S
C482 C483 1.335 . S
C483 C482 1.335 . S
C483 C484 1.398 . S
C483 H510 0.930 . S
C484 C479 1.382 . S
C484 C483 1.398 . S
C484 H511 0.929 . S
C485 O498 1.271 . S
C485 O499 1.251 . S
C486 O500 1.252 . S
C486 O501 1.272 . S
C487 Sm477 2.846 . S
C487 C488 1.506 . S
C487 O502 1.261 . S
C487 O503 1.242 . S
C488 C487 1.506 . S
C488 C489 1.358 . S
C488 C493 1.382 . S
C489 C488 1.358 . S
C489 C490 1.385 . S
C489 H512 0.930 . S
C490 C489 1.385 . S
C490 C491 1.395 . S
C490 H513 0.929 . S
C491 C490 1.395 . S
C491 C492 1.335 . S
C492 C491 1.335 . S
C492 C493 1.398 . S
C492 H514 0.930 . S
C493 C488 1.382 . S
C493 C492 1.398 . S
C493 H515 0.929 . S
C494 O504 1.271 . S
C494 O505 1.251 . S
C495 O506 1.252 . S
C495 O507 1.272 . S
O496 Sm476 2.543 . S
O496 C478 1.261 . S
O497 Sm476 2.450 . S
O497 C478 1.242 . S
O498 Sm476 2.681 . S
O498 Sm477 2.386 . S
O498 C485 1.271 . S
O499 Sm476 2.464 . S
O499 C485 1.251 . S
O500 Sm476 2.396 . S
O500 C486 1.252 . S
O501 Sm477 2.408 . S
O501 C486 1.272 . S
O502 Sm477 2.543 . S
O502 C487 1.261 . S
O503 Sm477 2.450 . S
O503 C487 1.242 . S
O504 Sm476 2.386 . S
O504 Sm477 2.681 . S
O504 C494 1.271 . S
O505 Sm477 2.464 . S
O505 C494 1.251 . S
O506 Sm477 2.396 . S
O506 C495 1.252 . S
O507 Sm476 2.408 . S
O507 C495 1.272 . S
H508 C480 0.930 . S
H509 C481 0.929 . S
H510 C483 0.930 . S
H511 C484 0.929 . S
H512 C489 0.930 . S
H513 C490 0.929 . S
H514 C492 0.930 . S
H515 C493 0.929 . S
Sm516 C518 2.846 . S
Sm516 O536 2.543 . S
Sm516 O537 2.450 . S
Sm516 O538 2.681 . S
Sm516 O539 2.464 . S
Sm516 O540 2.396 . S
Sm516 O544 2.386 . S
Sm516 O547 2.408 . S
Sm517 C527 2.846 . S
Sm517 O538 2.386 . S
Sm517 O541 2.408 . S
Sm517 O542 2.543 . S
Sm517 O543 2.450 . S
Sm517 O544 2.681 . S
Sm517 O545 2.464 . S
Sm517 O546 2.396 . S
C518 Sm516 2.846 . S
C518 C519 1.506 . S
C518 O536 1.261 . S
C518 O537 1.242 . S
C519 C518 1.506 . S
C519 C520 1.358 . S
C519 C524 1.382 . S
C520 C519 1.358 . S
C520 C521 1.385 . S
C520 H548 0.930 . S
C521 C520 1.385 . S
C521 C522 1.395 . S
C521 H549 0.929 . S
C522 C521 1.395 . S
C522 C523 1.335 . S
C523 C522 1.335 . S
C523 C524 1.398 . S
C523 H550 0.930 . S
C524 C519 1.382 . S
C524 C523 1.398 . S
C524 H551 0.929 . S
C525 O538 1.271 . S
C525 O539 1.251 . S
C526 O540 1.252 . S
C526 O541 1.272 . S
C527 Sm517 2.846 . S
C527 C528 1.506 . S
C527 O542 1.261 . S
C527 O543 1.242 . S
C528 C527 1.506 . S
C528 C529 1.358 . S
C528 C533 1.382 . S
C529 C528 1.358 . S
C529 C530 1.385 . S
C529 H552 0.930 . S
C530 C529 1.385 . S
C530 C531 1.395 . S
C530 H553 0.929 . S
C531 C530 1.395 . S
C531 C532 1.335 . S
C532 C531 1.335 . S
C532 C533 1.398 . S
C532 H554 0.930 . S
C533 C528 1.382 . S
C533 C532 1.398 . S
C533 H555 0.929 . S
C534 O544 1.271 . S
C534 O545 1.251 . S
C535 O546 1.252 . S
C535 O547 1.272 . S
O536 Sm516 2.543 . S
O536 C518 1.261 . S
O537 Sm516 2.450 . S
O537 C518 1.242 . S
O538 Sm516 2.681 . S
O538 Sm517 2.386 . S
O538 C525 1.271 . S
O539 Sm516 2.464 . S
O539 C525 1.251 . S
O540 Sm516 2.396 . S
O540 C526 1.252 . S
O541 Sm517 2.408 . S
O541 C526 1.272 . S
O542 Sm517 2.543 . S
O542 C527 1.261 . S
O543 Sm517 2.450 . S
O543 C527 1.242 . S
O544 Sm516 2.386 . S
O544 Sm517 2.681 . S
O544 C534 1.271 . S
O545 Sm517 2.464 . S
O545 C534 1.251 . S
O546 Sm517 2.396 . S
O546 C535 1.252 . S
O547 Sm516 2.408 . S
O547 C535 1.272 . S
H548 C520 0.930 . S
H549 C521 0.929 . S
H550 C523 0.930 . S
H551 C524 0.929 . S
H552 C529 0.930 . S
H553 C530 0.929 . S
H554 C532 0.930 . S
H555 C533 0.929 . S
Sm556 C558 2.846 . S
Sm556 O576 2.543 . S
Sm556 O577 2.450 . S
Sm556 O578 2.681 . S
Sm556 O579 2.464 . S
Sm556 O580 2.396 . S
Sm556 O584 2.386 . S
Sm556 O587 2.408 . S
Sm557 C567 2.846 . S
Sm557 O578 2.386 . S
Sm557 O581 2.408 . S
Sm557 O582 2.543 . S
Sm557 O583 2.450 . S
Sm557 O584 2.681 . S
Sm557 O585 2.464 . S
Sm557 O586 2.396 . S
C558 Sm556 2.846 . S
C558 C559 1.506 . S
C558 O576 1.261 . S
C558 O577 1.242 . S
C559 C558 1.506 . S
C559 C560 1.358 . S
C559 C564 1.382 . S
C560 C559 1.358 . S
C560 C561 1.385 . S
C560 H588 0.930 . S
C561 C560 1.385 . S
C561 C562 1.395 . S
C561 H589 0.929 . S
C562 C561 1.395 . S
C562 C563 1.335 . S
C563 C562 1.335 . S
C563 C564 1.398 . S
C563 H590 0.930 . S
C564 C559 1.382 . S
C564 C563 1.398 . S
C564 H591 0.929 . S
C565 O578 1.271 . S
C565 O579 1.251 . S
C566 O580 1.252 . S
C566 O581 1.272 . S
C567 Sm557 2.846 . S
C567 C568 1.506 . S
C567 O582 1.261 . S
C567 O583 1.242 . S
C568 C567 1.506 . S
C568 C569 1.358 . S
C568 C573 1.382 . S
C569 C568 1.358 . S
C569 C570 1.385 . S
C569 H592 0.930 . S
C570 C569 1.385 . S
C570 C571 1.395 . S
C570 H593 0.929 . S
C571 C570 1.395 . S
C571 C572 1.335 . S
C572 C571 1.335 . S
C572 C573 1.398 . S
C572 H594 0.930 . S
C573 C568 1.382 . S
C573 C572 1.398 . S
C573 H595 0.929 . S
C574 O584 1.271 . S
C574 O585 1.251 . S
C575 O586 1.252 . S
C575 O587 1.272 . S
O576 Sm556 2.543 . S
O576 C558 1.261 . S
O577 Sm556 2.450 . S
O577 C558 1.242 . S
O578 Sm556 2.681 . S
O578 Sm557 2.386 . S
O578 C565 1.271 . S
O579 Sm556 2.464 . S
O579 C565 1.251 . S
O580 Sm556 2.396 . S
O580 C566 1.252 . S
O581 Sm557 2.408 . S
O581 C566 1.272 . S
O582 Sm557 2.543 . S
O582 C567 1.261 . S
O583 Sm557 2.450 . S
O583 C567 1.242 . S
O584 Sm556 2.386 . S
O584 Sm557 2.681 . S
O584 C574 1.271 . S
O585 Sm557 2.464 . S
O585 C574 1.251 . S
O586 Sm557 2.396 . S
O586 C575 1.252 . S
O587 Sm556 2.408 . S
O587 C575 1.272 . S
H588 C560 0.930 . S
H589 C561 0.929 . S
H590 C563 0.930 . S
H591 C564 0.929 . S
H592 C569 0.930 . S
H593 C570 0.929 . S
H594 C572 0.930 . S
H595 C573 0.929 . S
H596 C604 0.950 . S
H597 C609 0.950 . S
H598 C606 0.950 . S
H599 C608 0.950 . S
H600 C610 0.950 . S
H601 C612 0.950 . S
H602 C614 0.950 . S
H603 C615 0.950 . S
C604 H596 0.950 . S
C604 C605 1.386 . S
C604 C606 1.391 . S
C605 C604 1.386 . S
C605 C609 1.393 . S
C606 H598 0.950 . S
C606 C604 1.391 . S
C606 C607 1.400 . S
C607 C606 1.400 . S
C607 C608 1.398 . S
C607 C613 1.491 . S
C608 H599 0.950 . S
C608 C607 1.398 . S
C608 C609 1.391 . S
C609 H597 0.950 . S
C609 C605 1.393 . S
C609 C608 1.391 . S
C610 H600 0.950 . S
C610 C611 1.386 . S
C610 C612 1.391 . S
C611 C610 1.386 . S
C611 C615 1.393 . S
C612 H601 0.950 . S
C612 C610 1.391 . S
C612 C613 1.400 . S
C613 C607 1.491 . S
C613 C612 1.400 . S
C613 C614 1.398 . S
C614 H602 0.950 . S
C614 C613 1.398 . S
C614 C615 1.391 . S
C615 H603 0.950 . S
C615 C611 1.393 . S
C615 C614 1.391 . S
H616 C624 0.950 . S
H617 C629 0.950 . S
H618 C626 0.950 . S
H619 C628 0.950 . S
H620 C630 0.950 . S
H621 C632 0.950 . S
H622 C634 0.950 . S
H623 C635 0.950 . S
C624 H616 0.950 . S
C624 C625 1.386 . S
C624 C626 1.391 . S
C625 C624 1.386 . S
C625 C629 1.393 . S
C626 H618 0.950 . S
C626 C624 1.391 . S
C626 C627 1.400 . S
C627 C626 1.400 . S
C627 C628 1.398 . S
C627 C633 1.491 . S
C628 H619 0.950 . S
C628 C627 1.398 . S
C628 C629 1.391 . S
C629 H617 0.950 . S
C629 C625 1.393 . S
C629 C628 1.391 . S
C630 H620 0.950 . S
C630 C631 1.386 . S
C630 C632 1.391 . S
C631 C630 1.386 . S
C631 C635 1.393 . S
C632 H621 0.950 . S
C632 C630 1.391 . S
C632 C633 1.400 . S
C633 C627 1.491 . S
C633 C632 1.400 . S
C633 C634 1.398 . S
C634 H622 0.950 . S
C634 C633 1.398 . S
C634 C635 1.391 . S
C635 H623 0.950 . S
C635 C631 1.393 . S
C635 C634 1.391 . S
H636 C644 0.950 . S
H637 C649 0.950 . S
H638 C646 0.950 . S
H639 C648 0.950 . S
H640 C650 0.950 . S
H641 C652 0.950 . S
H642 C654 0.950 . S
H643 C655 0.950 . S
C644 H636 0.950 . S
C644 C645 1.386 . S
C644 C646 1.391 . S
C645 C644 1.386 . S
C645 C649 1.393 . S
C646 H638 0.950 . S
C646 C644 1.391 . S
C646 C647 1.400 . S
C647 C646 1.400 . S
C647 C648 1.398 . S
C647 C653 1.491 . S
C648 H639 0.950 . S
C648 C647 1.398 . S
C648 C649 1.391 . S
C649 H637 0.950 . S
C649 C645 1.393 . S
C649 C648 1.391 . S
C650 H640 0.950 . S
C650 C651 1.386 . S
C650 C652 1.391 . S
C651 C650 1.386 . S
C651 C655 1.393 . S
C652 H641 0.950 . S
C652 C650 1.391 . S
C652 C653 1.400 . S
C653 C647 1.491 . S
C653 C652 1.400 . S
C653 C654 1.398 . S
C654 H642 0.950 . S
C654 C653 1.398 . S
C654 C655 1.391 . S
C655 H643 0.950 . S
C655 C651 1.393 . S
C655 C654 1.391 . S
H656 C664 0.950 . S
H657 C669 0.950 . S
H658 C666 0.950 . S
H659 C668 0.950 . S
H660 C670 0.950 . S
H661 C672 0.950 . S
H662 C674 0.950 . S
H663 C675 0.950 . S
C664 H656 0.950 . S
C664 C665 1.386 . S
C664 C666 1.391 . S
C665 C664 1.386 . S
C665 C669 1.393 . S
C666 H658 0.950 . S
C666 C664 1.391 . S
C666 C667 1.400 . S
C667 C666 1.400 . S
C667 C668 1.398 . S
C667 C673 1.491 . S
C668 H659 0.950 . S
C668 C667 1.398 . S
C668 C669 1.391 . S
C669 H657 0.950 . S
C669 C665 1.393 . S
C669 C668 1.391 . S
C670 H660 0.950 . S
C670 C671 1.386 . S
C670 C672 1.391 . S
C671 C670 1.386 . S
C671 C675 1.393 . S
C672 H661 0.950 . S
C672 C670 1.391 . S
C672 C673 1.400 . S
C673 C667 1.491 . S
C673 C672 1.400 . S
C673 C674 1.398 . S
C674 H662 0.950 . S
C674 C673 1.398 . S
C674 C675 1.391 . S
C675 H663 0.950 . S
C675 C671 1.393 . S
C675 C674 1.391 . S
H676 C684 0.950 . S
H677 C689 0.950 . S
H678 C686 0.950 . S
H679 C688 0.950 . S
H680 C690 0.950 . S
H681 C692 0.950 . S
H682 C694 0.950 . S
H683 C695 0.950 . S
C684 H676 0.950 . S
C684 C685 1.386 . S
C684 C686 1.391 . S
C685 C684 1.386 . S
C685 C689 1.393 . S
C686 H678 0.950 . S
C686 C684 1.391 . S
C686 C687 1.400 . S
C687 C686 1.400 . S
C687 C688 1.398 . S
C687 C693 1.491 . S
C688 H679 0.950 . S
C688 C687 1.398 . S
C688 C689 1.391 . S
C689 H677 0.950 . S
C689 C685 1.393 . S
C689 C688 1.391 . S
C690 H680 0.950 . S
C690 C691 1.386 . S
C690 C692 1.391 . S
C691 C690 1.386 . S
C691 C695 1.393 . S
C692 H681 0.950 . S
C692 C690 1.391 . S
C692 C693 1.400 . S
C693 C687 1.491 . S
C693 C692 1.400 . S
C693 C694 1.398 . S
C694 H682 0.950 . S
C694 C693 1.398 . S
C694 C695 1.391 . S
C695 H683 0.950 . S
C695 C691 1.393 . S
C695 C694 1.391 . S
H696 C704 0.950 . S
H697 C709 0.950 . S
H698 C706 0.950 . S
H699 C708 0.950 . S
H700 C710 0.950 . S
H701 C712 0.950 . S
H702 C714 0.950 . S
H703 C715 0.950 . S
C704 H696 0.950 . S
C704 C705 1.386 . S
C704 C706 1.391 . S
C705 C704 1.386 . S
C705 C709 1.393 . S
C706 H698 0.950 . S
C706 C704 1.391 . S
C706 C707 1.400 . S
C707 C706 1.400 . S
C707 C708 1.398 . S
C707 C713 1.491 . S
C708 H699 0.950 . S
C708 C707 1.398 . S
C708 C709 1.391 . S
C709 H697 0.950 . S
C709 C705 1.393 . S
C709 C708 1.391 . S
C710 H700 0.950 . S
C710 C711 1.386 . S
C710 C712 1.391 . S
C711 C710 1.386 . S
C711 C715 1.393 . S
C712 H701 0.950 . S
C712 C710 1.391 . S
C712 C713 1.400 . S
C713 C707 1.491 . S
C713 C712 1.400 . S
C713 C714 1.398 . S
C714 H702 0.950 . S
C714 C713 1.398 . S
C714 C715 1.391 . S
C715 H703 0.950 . S
C715 C711 1.393 . S
C715 C714 1.391 . S
H716 C724 0.950 . S
H717 C729 0.950 . S
H718 C726 0.950 . S
H719 C728 0.950 . S
H720 C730 0.950 . S
H721 C732 0.950 . S
H722 C734 0.950 . S
H723 C735 0.950 . S
C724 H716 0.950 . S
C724 C725 1.386 . S
C724 C726 1.391 . S
C725 C724 1.386 . S
C725 C729 1.393 . S
C726 H718 0.950 . S
C726 C724 1.391 . S
C726 C727 1.400 . S
C727 C726 1.400 . S
C727 C728 1.398 . S
C727 C733 1.491 . S
C728 H719 0.950 . S
C728 C727 1.398 . S
C728 C729 1.391 . S
C729 H717 0.950 . S
C729 C725 1.393 . S
C729 C728 1.391 . S
C730 H720 0.950 . S
C730 C731 1.386 . S
C730 C732 1.391 . S
C731 C730 1.386 . S
C731 C735 1.393 . S
C732 H721 0.950 . S
C732 C730 1.391 . S
C732 C733 1.400 . S
C733 C727 1.491 . S
C733 C732 1.400 . S
C733 C734 1.398 . S
C734 H722 0.950 . S
C734 C733 1.398 . S
C734 C735 1.391 . S
C735 H723 0.950 . S
C735 C731 1.393 . S
C735 C734 1.391 . S
H736 C744 0.950 . S
H737 C749 0.950 . S
H738 C746 0.950 . S
H739 C748 0.950 . S
H740 C750 0.950 . S
H741 C752 0.950 . S
H742 C754 0.950 . S
H743 C755 0.950 . S
C744 H736 0.950 . S
C744 C745 1.386 . S
C744 C746 1.391 . S
C745 C744 1.386 . S
C745 C749 1.393 . S
C746 H738 0.950 . S
C746 C744 1.391 . S
C746 C747 1.400 . S
C747 C746 1.400 . S
C747 C748 1.398 . S
C747 C753 1.491 . S
C748 H739 0.950 . S
C748 C747 1.398 . S
C748 C749 1.391 . S
C749 H737 0.950 . S
C749 C745 1.393 . S
C749 C748 1.391 . S
C750 H740 0.950 . S
C750 C751 1.386 . S
C750 C752 1.391 . S
C751 C750 1.386 . S
C751 C755 1.393 . S
C752 H741 0.950 . S
C752 C750 1.391 . S
C752 C753 1.400 . S
C753 C747 1.491 . S
C753 C752 1.400 . S
C753 C754 1.398 . S
C754 H742 0.950 . S
C754 C753 1.398 . S
C754 C755 1.391 . S
C755 H743 0.950 . S
C755 C751 1.393 . S
C755 C754 1.391 . S
H756 C764 0.950 . S
H757 C769 0.950 . S
H758 C766 0.950 . S
H759 C768 0.950 . S
H760 C770 0.950 . S
H761 C772 0.950 . S
H762 C774 0.950 . S
H763 C775 0.950 . S
C764 H756 0.950 . S
C764 C765 1.386 . S
C764 C766 1.391 . S
C765 C764 1.386 . S
C765 C769 1.393 . S
C766 H758 0.950 . S
C766 C764 1.391 . S
C766 C767 1.400 . S
C767 C766 1.400 . S
C767 C768 1.398 . S
C767 C773 1.491 . S
C768 H759 0.950 . S
C768 C767 1.398 . S
C768 C769 1.391 . S
C769 H757 0.950 . S
C769 C765 1.393 . S
C769 C768 1.391 . S
C770 H760 0.950 . S
C770 C771 1.386 . S
C770 C772 1.391 . S
C771 C770 1.386 . S
C771 C775 1.393 . S
C772 H761 0.950 . S
C772 C770 1.391 . S
C772 C773 1.400 . S
C773 C767 1.491 . S
C773 C772 1.400 . S
C773 C774 1.398 . S
C774 H762 0.950 . S
C774 C773 1.398 . S
C774 C775 1.391 . S
C775 H763 0.950 . S
C775 C771 1.393 . S
C775 C774 1.391 . S
H776 C784 0.950 . S
H777 C789 0.950 . S
H778 C786 0.950 . S
H779 C788 0.950 . S
H780 C790 0.950 . S
H781 C792 0.950 . S
H782 C794 0.950 . S
H783 C795 0.950 . S
C784 H776 0.950 . S
C784 C785 1.386 . S
C784 C786 1.391 . S
C785 C784 1.386 . S
C785 C789 1.393 . S
C786 H778 0.950 . S
C786 C784 1.391 . S
C786 C787 1.400 . S
C787 C786 1.400 . S
C787 C788 1.398 . S
C787 C793 1.491 . S
C788 H779 0.950 . S
C788 C787 1.398 . S
C788 C789 1.391 . S
C789 H777 0.950 . S
C789 C785 1.393 . S
C789 C788 1.391 . S
C790 H780 0.950 . S
C790 C791 1.386 . S
C790 C792 1.391 . S
C791 C790 1.386 . S
C791 C795 1.393 . S
C792 H781 0.950 . S
C792 C790 1.391 . S
C792 C793 1.400 . S
C793 C787 1.491 . S
C793 C792 1.400 . S
C793 C794 1.398 . S
C794 H782 0.950 . S
C794 C793 1.398 . S
C794 C795 1.391 . S
C795 H783 0.950 . S
C795 C791 1.393 . S
C795 C794 1.391 . S
H796 C804 0.950 . S
H797 C809 0.950 . S
H798 C806 0.950 . S
H799 C808 0.950 . S
H800 C810 0.950 . S
H801 C812 0.950 . S
H802 C814 0.950 . S
H803 C815 0.950 . S
C804 H796 0.950 . S
C804 C805 1.386 . S
C804 C806 1.391 . S
C805 C804 1.386 . S
C805 C809 1.393 . S
C806 H798 0.950 . S
C806 C804 1.391 . S
C806 C807 1.400 . S
C807 C806 1.400 . S
C807 C808 1.398 . S
C807 C813 1.491 . S
C808 H799 0.950 . S
C808 C807 1.398 . S
C808 C809 1.391 . S
C809 H797 0.950 . S
C809 C805 1.393 . S
C809 C808 1.391 . S
C810 H800 0.950 . S
C810 C811 1.386 . S
C810 C812 1.391 . S
C811 C810 1.386 . S
C811 C815 1.393 . S
C812 H801 0.950 . S
C812 C810 1.391 . S
C812 C813 1.400 . S
C813 C807 1.491 . S
C813 C812 1.400 . S
C813 C814 1.398 . S
C814 H802 0.950 . S
C814 C813 1.398 . S
C814 C815 1.391 . S
C815 H803 0.950 . S
C815 C811 1.393 . S
C815 C814 1.391 . S
H816 C824 0.950 . S
H817 C829 0.950 . S
H818 C826 0.950 . S
H819 C828 0.950 . S
H820 C830 0.950 . S
H821 C832 0.950 . S
H822 C834 0.950 . S
H823 C835 0.950 . S
C824 H816 0.950 . S
C824 C825 1.386 . S
C824 C826 1.391 . S
C825 C824 1.386 . S
C825 C829 1.393 . S
C826 H818 0.950 . S
C826 C824 1.391 . S
C826 C827 1.400 . S
C827 C826 1.400 . S
C827 C828 1.398 . S
C827 C833 1.491 . S
C828 H819 0.950 . S
C828 C827 1.398 . S
C828 C829 1.391 . S
C829 H817 0.950 . S
C829 C825 1.393 . S
C829 C828 1.391 . S
C830 H820 0.950 . S
C830 C831 1.386 . S
C830 C832 1.391 . S
C831 C830 1.386 . S
C831 C835 1.393 . S
C832 H821 0.950 . S
C832 C830 1.391 . S
C832 C833 1.400 . S
C833 C827 1.491 . S
C833 C832 1.400 . S
C833 C834 1.398 . S
C834 H822 0.950 . S
C834 C833 1.398 . S
C834 C835 1.391 . S
C835 H823 0.950 . S
C835 C831 1.393 . S
C835 C834 1.391 . S
H836 C844 0.950 . S
H837 C849 0.950 . S
H838 C846 0.950 . S
H839 C848 0.950 . S
H840 C850 0.950 . S
H841 C852 0.927 1_554 S
H842 C854 0.950 . S
H843 C855 0.950 . S
C844 H836 0.950 . S
C844 C845 1.386 1_556 S
C844 C846 1.391 . S
C845 C844 1.386 1_554 S
C845 C849 1.393 . S
C846 H838 0.950 . S
C846 C844 1.391 . S
C846 C847 1.412 . S
C847 C846 1.412 . S
C847 C848 1.370 1_556 S
C847 C853 1.507 . S
C848 H839 0.950 . S
C848 C847 1.370 1_554 S
C848 C849 1.391 . S
C849 H837 0.950 . S
C849 C845 1.393 . S
C849 C848 1.391 . S
C850 H840 0.950 . S
C850 C851 1.386 . S
C850 C852 1.405 . S
C851 C850 1.386 . S
C851 C855 1.393 . S
C852 H841 0.927 1_556 S
C852 C850 1.405 . S
C852 C853 1.410 . S
C853 C847 1.507 . S
C853 C852 1.410 . S
C853 C854 1.398 . S
C854 H842 0.950 . S
C854 C853 1.398 . S
C854 C855 1.391 . S
C855 H843 0.950 . S
C855 C851 1.393 . S
C855 C854 1.391 . S
H856 C864 0.950 . S
H857 C869 0.950 1_554 S
H858 C866 0.950 . S
H859 C868 0.950 . S
H860 C870 0.950 . S
H861 C872 0.950 . S
H862 C874 0.950 . S
H863 C875 0.950 . S
C864 H856 0.950 . S
C864 C865 1.386 . S
C864 C866 1.391 . S
C865 C864 1.386 . S
C865 C869 1.393 . S
C866 H858 0.950 . S
C866 C864 1.391 . S
C866 C867 1.400 . S
C867 C866 1.400 . S
C867 C868 1.398 . S
C867 C873 1.491 . S
C868 H859 0.950 . S
C868 C867 1.398 . S
C868 C869 1.391 . S
C869 H857 0.950 1_556 S
C869 C865 1.393 . S
C869 C868 1.391 . S
C870 H860 0.950 . S
C870 C871 1.386 . S
C870 C872 1.391 . S
C871 C870 1.386 . S
C871 C875 1.393 . S
C872 H861 0.950 . S
C872 C870 1.391 . S
C872 C873 1.400 . S
C873 C867 1.491 . S
C873 C872 1.400 . S
C873 C874 1.398 . S
C874 H862 0.950 . S
C874 C873 1.398 . S
C874 C875 1.391 . S
C875 H863 0.950 . S
C875 C871 1.393 . S
C875 C874 1.391 . S
H876 C884 0.950 . S
H877 C889 0.950 . S
H878 C886 0.950 . S
H879 C888 0.950 . S
H880 C890 0.950 . S
H881 C892 0.950 . S
H882 C894 0.950 . S
H883 C895 0.950 . S
C884 H876 0.950 . S
C884 C885 1.386 . S
C884 C886 1.391 . S
C885 C884 1.386 . S
C885 C889 1.393 . S
C886 H878 0.950 . S
C886 C884 1.391 . S
C886 C887 1.400 . S
C887 C886 1.400 . S
C887 C888 1.398 . S
C887 C893 1.491 . S
C888 H879 0.950 . S
C888 C887 1.398 . S
C888 C889 1.391 . S
C889 H877 0.950 . S
C889 C885 1.393 . S
C889 C888 1.391 . S
C890 H880 0.950 . S
C890 C891 1.386 . S
C890 C892 1.391 . S
C891 C890 1.386 . S
C891 C895 1.393 . S
C892 H881 0.950 . S
C892 C890 1.391 . S
C892 C893 1.400 . S
C893 C887 1.491 . S
C893 C892 1.400 . S
C893 C894 1.398 . S
C894 H882 0.950 . S
C894 C893 1.398 . S
C894 C895 1.391 . S
C895 H883 0.950 . S
C895 C891 1.393 . S
C895 C894 1.391 . S
H896 C904 0.950 . S
H897 C909 0.950 . S
H898 C906 0.950 . S
H899 C908 0.950 . S
H900 C910 0.950 . S
H901 C912 0.950 . S
H902 C914 0.950 . S
H903 C915 0.950 . S
C904 H896 0.950 . S
C904 C905 1.386 . S
C904 C906 1.391 . S
C905 C904 1.386 . S
C905 C909 1.393 . S
C906 H898 0.950 . S
C906 C904 1.391 . S
C906 C907 1.400 . S
C907 C906 1.400 . S
C907 C908 1.398 . S
C907 C913 1.491 . S
C908 H899 0.950 . S
C908 C907 1.398 . S
C908 C909 1.391 . S
C909 H897 0.950 . S
C909 C905 1.393 . S
C909 C908 1.391 . S
C910 H900 0.950 . S
C910 C911 1.386 . S
C910 C912 1.391 . S
C911 C910 1.386 . S
C911 C915 1.393 . S
C912 H901 0.950 . S
C912 C910 1.391 . S
C912 C913 1.400 . S
C913 C907 1.491 . S
C913 C912 1.400 . S
C913 C914 1.398 . S
C914 H902 0.950 . S
C914 C913 1.398 . S
C914 C915 1.391 . S
C915 H903 0.950 . S
C915 C911 1.393 . S
C915 C914 1.391 . S
H916 C924 0.950 . S
H917 C929 0.950 . S
H918 C926 0.950 . S
H919 C928 0.950 . S
H920 C930 0.950 . S
H921 C932 0.950 . S
H922 C934 0.950 . S
H923 C935 0.950 . S
C924 H916 0.950 . S
C924 C925 1.386 . S
C924 C926 1.391 . S
C925 C924 1.386 . S
C925 C929 1.393 . S
C926 H918 0.950 . S
C926 C924 1.391 . S
C926 C927 1.400 . S
C927 C926 1.400 . S
C927 C928 1.398 . S
C927 C933 1.491 . S
C928 H919 0.950 . S
C928 C927 1.398 . S
C928 C929 1.391 . S
C929 H917 0.950 . S
C929 C925 1.393 . S
C929 C928 1.391 . S
C930 H920 0.950 . S
C930 C931 1.386 . S
C930 C932 1.391 . S
C931 C930 1.386 . S
C931 C935 1.393 . S
C932 H921 0.950 . S
C932 C930 1.391 . S
C932 C933 1.400 . S
C933 C927 1.491 . S
C933 C932 1.400 . S
C933 C934 1.398 . S
C934 H922 0.950 . S
C934 C933 1.398 . S
C934 C935 1.391 . S
C935 H923 0.950 . S
C935 C931 1.393 . S
C935 C934 1.391 . S
H936 C944 0.950 . S
H937 C949 0.950 . S
H938 C946 0.950 . S
H939 C948 0.950 . S
H940 C950 0.950 . S
H941 C952 0.950 . S
H942 C954 0.950 . S
H943 C955 0.950 . S
C944 H936 0.950 . S
C944 C945 1.386 . S
C944 C946 1.391 . S
C945 C944 1.386 . S
C945 C949 1.393 . S
C946 H938 0.950 . S
C946 C944 1.391 . S
C946 C947 1.400 . S
C947 C946 1.400 . S
C947 C948 1.398 . S
C947 C953 1.491 . S
C948 H939 0.950 . S
C948 C947 1.398 . S
C948 C949 1.391 . S
C949 H937 0.950 . S
C949 C945 1.393 . S
C949 C948 1.391 . S
C950 H940 0.950 . S
C950 C951 1.386 . S
C950 C952 1.391 . S
C951 C950 1.386 . S
C951 C955 1.393 . S
C952 H941 0.950 . S
C952 C950 1.391 . S
C952 C953 1.400 . S
C953 C947 1.491 . S
C953 C952 1.400 . S
C953 C954 1.398 . S
C954 H942 0.950 . S
C954 C953 1.398 . S
C954 C955 1.391 . S
C955 H943 0.950 . S
C955 C951 1.393 . S
C955 C954 1.391 . S
H956 C964 0.950 . S
H957 C969 0.950 . S
H958 C966 0.950 . S
H959 C968 0.950 . S
H960 C970 0.950 . S
H961 C972 0.950 . S
H962 C974 0.950 . S
H963 C975 0.950 . S
C964 H956 0.950 . S
C964 C965 1.386 1_556 S
C964 C966 1.391 . S
C965 C964 1.386 1_554 S
C965 C969 1.393 . S
C966 H958 0.950 . S
C966 C964 1.391 . S
C966 C967 1.400 . S
C967 C966 1.400 . S
C967 C968 1.398 . S
C967 C973 1.491 . S
C968 H959 0.950 . S
C968 C967 1.398 . S
C968 C969 1.391 1_556 S
C969 H957 0.950 . S
C969 C965 1.393 . S
C969 C968 1.391 1_554 S
C970 H960 0.950 . S
C970 C971 1.386 . S
C970 C972 1.391 . S
C971 C970 1.386 . S
C971 C975 1.393 . S
C972 H961 0.950 . S
C972 C970 1.391 . S
C972 C973 1.400 . S
C973 C967 1.491 . S
C973 C972 1.400 . S
C973 C974 1.398 . S
C974 H962 0.950 . S
C974 C973 1.398 . S
C974 C975 1.391 . S
C975 H963 0.950 . S
C975 C971 1.393 . S
C975 C974 1.391 . S
H976 C984 0.950 1_455 S
H977 C989 0.950 . S
H978 C986 0.950 . S
H979 C988 0.950 . S
H980 C990 0.950 . S
H981 C992 0.950 . S
H982 C994 0.950 . S
H983 C995 0.950 . S
C984 H976 0.950 1_655 S
C984 C985 1.386 . S
C984 C986 1.391 . S
C985 C984 1.386 . S
C985 C989 1.393 . S
C986 H978 0.950 . S
C986 C984 1.391 . S
C986 C987 1.400 1_554 S
C987 C986 1.400 1_556 S
C987 C988 1.398 . S
C987 C993 1.491 . S
C988 H979 0.950 . S
C988 C987 1.398 . S
C988 C989 1.391 1_556 S
C989 H977 0.950 . S
C989 C985 1.393 . S
C989 C988 1.391 1_554 S
C990 H980 0.950 . S
C990 C991 1.386 . S
C990 C992 1.391 . S
C991 C990 1.386 . S
C991 C995 1.393 . S
C992 H981 0.950 . S
C992 C990 1.391 . S
C992 C993 1.400 . S
C993 C987 1.491 . S
C993 C992 1.400 . S
C993 C994 1.398 . S
C994 H982 0.950 . S
C994 C993 1.398 . S
C994 C995 1.391 . S
C995 H983 0.950 . S
C995 C991 1.393 . S
C995 C994 1.391 . S
H996 C1004 0.950 . S
H997 C1009 0.950 . S
H998 C1006 0.950 . S
H999 C1008 0.950 . S
H1000 C1010 0.950 . S
H1001 C1012 0.950 . S
H1002 C1014 0.950 . S
H1003 C1015 0.950 . S
C1004 H996 0.950 . S
C1004 C1005 1.386 . S
C1004 C1006 1.391 . S
C1005 C1004 1.386 . S
C1005 C1009 1.393 . S
C1006 H998 0.950 . S
C1006 C1004 1.391 . S
C1006 C1007 1.400 . S
C1007 C1006 1.400 . S
C1007 C1008 1.398 . S
C1007 C1013 1.491 . S
C1008 H999 0.950 . S
C1008 C1007 1.398 . S
C1008 C1009 1.391 . S
C1009 H997 0.950 . S
C1009 C1005 1.393 . S
C1009 C1008 1.391 . S
C1010 H1000 0.950 . S
C1010 C1011 1.386 . S
C1010 C1012 1.391 . S
C1011 C1010 1.386 . S
C1011 C1015 1.393 . S
C1012 H1001 0.950 . S
C1012 C1010 1.391 . S
C1012 C1013 1.400 . S
C1013 C1007 1.491 . S
C1013 C1012 1.400 . S
C1013 C1014 1.398 . S
C1014 H1002 0.950 . S
C1014 C1013 1.398 . S
C1014 C1015 1.391 . S
C1015 H1003 0.950 . S
C1015 C1011 1.393 . S
C1015 C1014 1.391 . S
H1016 C1024 0.950 . S
H1017 C1029 0.950 . S
H1018 C1026 0.950 . S
H1019 C1028 0.950 . S
H1020 C1030 0.950 . S
H1021 C1032 0.950 . S
H1022 C1034 0.950 . S
H1023 C1035 0.950 . S
C1024 H1016 0.950 . S
C1024 C1025 1.386 . S
C1024 C1026 1.391 . S
C1025 C1024 1.386 . S
C1025 C1029 1.393 . S
C1026 H1018 0.950 . S
C1026 C1024 1.391 . S
C1026 C1027 1.400 . S
C1027 C1026 1.400 . S
C1027 C1028 1.398 . S
C1027 C1033 1.491 . S
C1028 H1019 0.950 . S
C1028 C1027 1.398 . S
C1028 C1029 1.391 . S
C1029 H1017 0.950 . S
C1029 C1025 1.393 . S
C1029 C1028 1.391 . S
C1030 H1020 0.950 . S
C1030 C1031 1.386 . S
C1030 C1032 1.391 . S
C1031 C1030 1.386 . S
C1031 C1035 1.393 . S
C1032 H1021 0.950 . S
C1032 C1030 1.391 . S
C1032 C1033 1.400 . S
C1033 C1027 1.491 . S
C1033 C1032 1.400 . S
C1033 C1034 1.398 . S
C1034 H1022 0.950 . S
C1034 C1033 1.398 . S
C1034 C1035 1.391 . S
C1035 H1023 0.950 . S
C1035 C1031 1.393 . S
C1035 C1034 1.391 . S
H1036 C1044 0.950 . S
H1037 C1049 0.950 . S
H1038 C1046 0.950 . S
H1039 C1048 0.950 . S
H1040 C1050 0.950 . S
H1041 C1052 0.950 . S
H1042 C1054 0.950 . S
H1043 C1055 0.950 . S
C1044 H1036 0.950 . S
C1044 C1045 1.386 . S
C1044 C1046 1.391 . S
C1045 C1044 1.386 . S
C1045 C1049 1.393 . S
C1046 H1038 0.950 . S
C1046 C1044 1.391 . S
C1046 C1047 1.400 . S
C1047 C1046 1.400 . S
C1047 C1048 1.398 . S
C1047 C1053 1.491 . S
C1048 H1039 0.950 . S
C1048 C1047 1.398 . S
C1048 C1049 1.391 . S
C1049 H1037 0.950 . S
C1049 C1045 1.393 . S
C1049 C1048 1.391 . S
C1050 H1040 0.950 . S
C1050 C1051 1.386 . S
C1050 C1052 1.391 . S
C1051 C1050 1.386 . S
C1051 C1055 1.393 . S
C1052 H1041 0.950 . S
C1052 C1050 1.391 . S
C1052 C1053 1.400 . S
C1053 C1047 1.491 . S
C1053 C1052 1.400 . S
C1053 C1054 1.398 . S
C1054 H1042 0.950 . S
C1054 C1053 1.398 . S
C1054 C1055 1.391 . S
C1055 H1043 0.950 . S
C1055 C1051 1.393 . S
C1055 C1054 1.391 . S
H1056 C1064 0.950 . S
H1057 C1069 0.950 . S
H1058 C1066 0.950 . S
H1059 C1068 0.950 . S
H1060 C1070 0.950 . S
H1061 C1072 0.950 . S
H1062 C1074 0.950 . S
H1063 C1075 0.950 . S
C1064 H1056 0.950 . S
C1064 C1065 1.386 . S
C1064 C1066 1.391 . S
C1065 C1064 1.386 . S
C1065 C1069 1.393 . S
C1066 H1058 0.950 . S
C1066 C1064 1.391 . S
C1066 C1067 1.400 . S
C1067 C1066 1.400 . S
C1067 C1068 1.398 . S
C1067 C1073 1.491 . S
C1068 H1059 0.950 . S
C1068 C1067 1.398 . S
C1068 C1069 1.391 . S
C1069 H1057 0.950 . S
C1069 C1065 1.393 . S
C1069 C1068 1.391 . S
C1070 H1060 0.950 . S
C1070 C1071 1.386 . S
C1070 C1072 1.391 . S
C1071 C1070 1.386 . S
C1071 C1075 1.393 . S
C1072 H1061 0.950 . S
C1072 C1070 1.391 . S
C1072 C1073 1.400 . S
C1073 C1067 1.491 . S
C1073 C1072 1.400 . S
C1073 C1074 1.398 . S
C1074 H1062 0.950 . S
C1074 C1073 1.398 . S
C1074 C1075 1.391 . S
C1075 H1063 0.950 . S
C1075 C1071 1.393 . S
C1075 C1074 1.391 . S
H1076 C1084 0.950 . S
H1077 C1089 0.950 . S
H1078 C1086 0.950 . S
H1079 C1088 0.950 . S
H1080 C1090 0.950 . S
H1081 C1092 0.950 . S
H1082 C1094 0.950 . S
H1083 C1095 0.950 . S
C1084 H1076 0.950 . S
C1084 C1085 1.386 . S
C1084 C1086 1.391 . S
C1085 C1084 1.386 . S
C1085 C1089 1.393 . S
C1086 H1078 0.950 . S
C1086 C1084 1.391 . S
C1086 C1087 1.400 . S
C1087 C1086 1.400 . S
C1087 C1088 1.398 . S
C1087 C1093 1.491 . S
C1088 H1079 0.950 . S
C1088 C1087 1.398 . S
C1088 C1089 1.391 . S
C1089 H1077 0.950 . S
C1089 C1085 1.393 . S
C1089 C1088 1.391 . S
C1090 H1080 0.950 . S
C1090 C1091 1.386 . S
C1090 C1092 1.391 . S
C1091 C1090 1.386 . S
C1091 C1095 1.393 . S
C1092 H1081 0.950 . S
C1092 C1090 1.391 . S
C1092 C1093 1.400 . S
C1093 C1087 1.491 . S
C1093 C1092 1.400 . S
C1093 C1094 1.398 . S
C1094 H1082 0.950 . S
C1094 C1093 1.398 . S
C1094 C1095 1.391 . S
C1095 H1083 0.950 . S
C1095 C1091 1.393 . S
C1095 C1094 1.391 . S
H1096 C1104 0.950 . S
H1097 C1109 0.950 . S
H1098 C1106 0.950 . S
H1099 C1108 0.950 . S
H1100 C1110 0.950 . S
H1101 C1112 0.950 . S
H1102 C1114 0.950 . S
H1103 C1115 0.950 . S
C1104 H1096 0.950 . S
C1104 C1105 1.386 . S
C1104 C1106 1.391 . S
C1105 C1104 1.386 . S
C1105 C1109 1.393 . S
C1106 H1098 0.950 . S
C1106 C1104 1.391 . S
C1106 C1107 1.400 . S
C1107 C1106 1.400 . S
C1107 C1108 1.398 . S
C1107 C1113 1.491 . S
C1108 H1099 0.950 . S
C1108 C1107 1.398 . S
C1108 C1109 1.391 . S
C1109 H1097 0.950 . S
C1109 C1105 1.393 . S
C1109 C1108 1.391 . S
C1110 H1100 0.950 . S
C1110 C1111 1.386 . S
C1110 C1112 1.391 . S
C1111 C1110 1.386 . S
C1111 C1115 1.393 . S
C1112 H1101 0.950 . S
C1112 C1110 1.391 . S
C1112 C1113 1.400 . S
C1113 C1107 1.491 . S
C1113 C1112 1.400 . S
C1113 C1114 1.398 . S
C1114 H1102 0.950 . S
C1114 C1113 1.398 . S
C1114 C1115 1.391 . S
C1115 H1103 0.950 . S
C1115 C1111 1.393 . S
C1115 C1114 1.391 . S
H1116 C1124 0.950 . S
H1117 C1129 0.950 . S
H1118 C1126 0.950 . S
H1119 C1128 0.950 . S
H1120 C1130 0.950 . S
H1121 C1132 0.950 . S
H1122 C1134 0.950 . S
H1123 C1135 0.950 . S
C1124 H1116 0.950 . S
C1124 C1125 1.386 . S
C1124 C1126 1.391 . S
C1125 C1124 1.386 . S
C1125 C1129 1.393 . S
C1126 H1118 0.950 . S
C1126 C1124 1.391 . S
C1126 C1127 1.400 . S
C1127 C1126 1.400 . S
C1127 C1128 1.398 . S
C1127 C1133 1.491 . S
C1128 H1119 0.950 . S
C1128 C1127 1.398 . S
C1128 C1129 1.391 . S
C1129 H1117 0.950 . S
C1129 C1125 1.393 . S
C1129 C1128 1.391 . S
C1130 H1120 0.950 . S
C1130 C1131 1.386 . S
C1130 C1132 1.391 . S
C1131 C1130 1.386 . S
C1131 C1135 1.393 . S
C1132 H1121 0.950 . S
C1132 C1130 1.391 . S
C1132 C1133 1.400 . S
C1133 C1127 1.491 . S
C1133 C1132 1.400 . S
C1133 C1134 1.398 . S
C1134 H1122 0.950 . S
C1134 C1133 1.398 . S
C1134 C1135 1.391 . S
C1135 H1123 0.950 . S
C1135 C1131 1.393 . S
C1135 C1134 1.391 . S
H1136 C1144 0.950 . S
H1137 C1149 0.950 . S
H1138 C1146 0.950 . S
H1139 C1148 0.950 . S
H1140 C1150 0.950 . S
H1141 C1152 0.950 . S
H1142 C1154 0.950 . S
H1143 C1155 0.950 . S
C1144 H1136 0.950 . S
C1144 C1145 1.386 . S
C1144 C1146 1.391 . S
C1145 C1144 1.386 . S
C1145 C1149 1.393 . S
C1146 H1138 0.950 . S
C1146 C1144 1.391 . S
C1146 C1147 1.400 . S
C1147 C1146 1.400 . S
C1147 C1148 1.398 . S
C1147 C1153 1.491 . S
C1148 H1139 0.950 . S
C1148 C1147 1.398 . S
C1148 C1149 1.391 . S
C1149 H1137 0.950 . S
C1149 C1145 1.393 . S
C1149 C1148 1.391 . S
C1150 H1140 0.950 . S
C1150 C1151 1.386 . S
C1150 C1152 1.391 . S
C1151 C1150 1.386 . S
C1151 C1155 1.393 . S
C1152 H1141 0.950 . S
C1152 C1150 1.391 . S
C1152 C1153 1.400 . S
C1153 C1147 1.491 . S
C1153 C1152 1.400 . S
C1153 C1154 1.398 . S
C1154 H1142 0.950 . S
C1154 C1153 1.398 . S
C1154 C1155 1.391 . S
C1155 H1143 0.950 . S
C1155 C1151 1.393 . S
C1155 C1154 1.391 . S
H1156 C1164 0.950 . S
H1157 C1169 0.950 . S
H1158 C1166 0.950 . S
H1159 C1168 0.950 . S
H1160 C1170 0.950 . S
H1161 C1172 0.950 . S
H1162 C1174 0.950 . S
H1163 C1175 0.950 . S
C1164 H1156 0.950 . S
C1164 C1165 1.386 . S
C1164 C1166 1.391 . S
C1165 C1164 1.386 . S
C1165 C1169 1.393 . S
C1166 H1158 0.950 . S
C1166 C1164 1.391 . S
C1166 C1167 1.400 . S
C1167 C1166 1.400 . S
C1167 C1168 1.398 . S
C1167 C1173 1.491 . S
C1168 H1159 0.950 . S
C1168 C1167 1.398 . S
C1168 C1169 1.391 . S
C1169 H1157 0.950 . S
C1169 C1165 1.393 . S
C1169 C1168 1.391 . S
C1170 H1160 0.950 . S
C1170 C1171 1.386 . S
C1170 C1172 1.391 . S
C1171 C1170 1.386 . S
C1171 C1175 1.393 . S
C1172 H1161 0.950 . S
C1172 C1170 1.391 . S
C1172 C1173 1.400 . S
C1173 C1167 1.491 . S
C1173 C1172 1.400 . S
C1173 C1174 1.398 . S
C1174 H1162 0.950 . S
C1174 C1173 1.398 . S
C1174 C1175 1.391 . S
C1175 H1163 0.950 . S
C1175 C1171 1.393 . S
C1175 C1174 1.391 . S
H1176 C1184 0.950 . S
H1177 C1189 0.950 . S
H1178 C1186 0.950 . S
H1179 C1188 0.950 . S
H1180 C1190 0.950 . S
H1181 C1192 0.950 . S
H1182 C1194 0.950 . S
H1183 C1195 0.950 . S
C1184 H1176 0.950 . S
C1184 C1185 1.386 . S
C1184 C1186 1.391 . S
C1185 C1184 1.386 . S
C1185 C1189 1.393 . S
C1186 H1178 0.950 . S
C1186 C1184 1.391 . S
C1186 C1187 1.400 . S
C1187 C1186 1.400 . S
C1187 C1188 1.398 . S
C1187 C1193 1.491 . S
C1188 H1179 0.950 . S
C1188 C1187 1.398 . S
C1188 C1189 1.391 . S
C1189 H1177 0.950 . S
C1189 C1185 1.393 . S
C1189 C1188 1.391 . S
C1190 H1180 0.950 . S
C1190 C1191 1.386 . S
C1190 C1192 1.391 . S
C1191 C1190 1.386 . S
C1191 C1195 1.393 . S
C1192 H1181 0.950 . S
C1192 C1190 1.391 . S
C1192 C1193 1.400 . S
C1193 C1187 1.491 . S
C1193 C1192 1.400 . S
C1193 C1194 1.398 . S
C1194 H1182 0.950 . S
C1194 C1193 1.398 . S
C1194 C1195 1.391 . S
C1195 H1183 0.950 . S
C1195 C1191 1.393 . S
C1195 C1194 1.391 . S
H1196 C1204 0.950 . S
H1197 C1209 0.950 . S
H1198 C1206 0.950 . S
H1199 C1208 0.950 . S
H1200 C1210 0.950 . S
H1201 C1212 0.950 . S
H1202 C1214 0.950 . S
H1203 C1215 0.950 . S
C1204 H1196 0.950 . S
C1204 C1205 1.386 . S
C1204 C1206 1.391 . S
C1205 C1204 1.386 . S
C1205 C1209 1.393 . S
C1206 H1198 0.950 . S
C1206 C1204 1.391 . S
C1206 C1207 1.400 . S
C1207 C1206 1.400 . S
C1207 C1208 1.398 . S
C1207 C1213 1.491 . S
C1208 H1199 0.950 . S
C1208 C1207 1.398 . S
C1208 C1209 1.391 . S
C1209 H1197 0.950 . S
C1209 C1205 1.393 . S
C1209 C1208 1.391 . S
C1210 H1200 0.950 . S
C1210 C1211 1.386 . S
C1210 C1212 1.391 . S
C1211 C1210 1.386 . S
C1211 C1215 1.393 . S
C1212 H1201 0.950 . S
C1212 C1210 1.391 . S
C1212 C1213 1.400 . S
C1213 C1207 1.491 . S
C1213 C1212 1.400 . S
C1213 C1214 1.398 . S
C1214 H1202 0.950 . S
C1214 C1213 1.398 . S
C1214 C1215 1.391 . S
C1215 H1203 0.950 . S
C1215 C1211 1.393 . S
C1215 C1214 1.391 . S
H1216 C1224 0.950 . S
H1217 C1229 0.950 . S
H1218 C1226 0.950 . S
H1219 C1228 0.950 . S
H1220 C1230 0.950 . S
H1221 C1232 0.950 . S
H1222 C1234 0.950 . S
H1223 C1235 0.950 . S
C1224 H1216 0.950 . S
C1224 C1225 1.386 . S
C1224 C1226 1.391 . S
C1225 C1224 1.386 . S
C1225 C1229 1.393 . S
C1226 H1218 0.950 . S
C1226 C1224 1.391 . S
C1226 C1227 1.400 . S
C1227 C1226 1.400 . S
C1227 C1228 1.398 . S
C1227 C1233 1.491 . S
C1228 H1219 0.950 . S
C1228 C1227 1.398 . S
C1228 C1229 1.391 . S
C1229 H1217 0.950 . S
C1229 C1225 1.393 . S
C1229 C1228 1.391 . S
C1230 H1220 0.950 . S
C1230 C1231 1.386 . S
C1230 C1232 1.391 . S
C1231 C1230 1.386 . S
C1231 C1235 1.393 . S
C1232 H1221 0.950 . S
C1232 C1230 1.391 . S
C1232 C1233 1.400 . S
C1233 C1227 1.491 . S
C1233 C1232 1.400 . S
C1233 C1234 1.398 . S
C1234 H1222 0.950 . S
C1234 C1233 1.398 . S
C1234 C1235 1.391 . S
C1235 H1223 0.950 . S
C1235 C1231 1.393 . S
C1235 C1234 1.391 . S
H1236 C1244 0.950 . S
H1237 C1249 0.950 . S
H1238 C1246 0.950 . S
H1239 C1248 0.950 . S
H1240 C1250 0.950 . S
H1241 C1252 0.950 . S
H1242 C1254 0.950 . S
H1243 C1255 0.950 . S
C1244 H1236 0.950 . S
C1244 C1245 1.386 . S
C1244 C1246 1.391 . S
C1245 C1244 1.386 . S
C1245 C1249 1.393 . S
C1246 H1238 0.950 . S
C1246 C1244 1.391 . S
C1246 C1247 1.400 . S
C1247 C1246 1.400 . S
C1247 C1248 1.398 . S
C1247 C1253 1.491 . S
C1248 H1239 0.950 . S
C1248 C1247 1.398 . S
C1248 C1249 1.391 . S
C1249 H1237 0.950 . S
C1249 C1245 1.393 . S
C1249 C1248 1.391 . S
C1250 H1240 0.950 . S
C1250 C1251 1.386 . S
C1250 C1252 1.391 . S
C1251 C1250 1.386 . S
C1251 C1255 1.393 . S
C1252 H1241 0.950 . S
C1252 C1250 1.391 . S
C1252 C1253 1.400 . S
C1253 C1247 1.491 . S
C1253 C1252 1.400 . S
C1253 C1254 1.398 . S
C1254 H1242 0.950 . S
C1254 C1253 1.398 . S
C1254 C1255 1.391 . S
C1255 H1243 0.950 . S
C1255 C1251 1.393 . S
C1255 C1254 1.391 . S
H1256 C1264 0.950 . S
H1257 C1269 0.950 . S
H1258 C1266 0.950 . S
H1259 C1268 0.950 . S
H1260 C1270 0.950 . S
H1261 C1272 0.950 . S
H1262 C1274 0.950 . S
H1263 C1275 0.950 . S
C1264 H1256 0.950 . S
C1264 C1265 1.386 . S
C1264 C1266 1.391 . S
C1265 C1264 1.386 . S
C1265 C1269 1.393 . S
C1266 H1258 0.950 . S
C1266 C1264 1.391 . S
C1266 C1267 1.400 . S
C1267 C1266 1.400 . S
C1267 C1268 1.398 . S
C1267 C1273 1.491 . S
C1268 H1259 0.950 . S
C1268 C1267 1.398 . S
C1268 C1269 1.391 . S
C1269 H1257 0.950 . S
C1269 C1265 1.393 . S
C1269 C1268 1.391 . S
C1270 H1260 0.950 . S
C1270 C1271 1.386 . S
C1270 C1272 1.391 . S
C1271 C1270 1.386 . S
C1271 C1275 1.393 . S
C1272 H1261 0.950 . S
C1272 C1270 1.391 . S
C1272 C1273 1.400 . S
C1273 C1267 1.491 . S
C1273 C1272 1.400 . S
C1273 C1274 1.398 . S
C1274 H1262 0.950 . S
C1274 C1273 1.398 . S
C1274 C1275 1.391 . S
C1275 H1263 0.950 . S
C1275 C1271 1.393 . S
C1275 C1274 1.391 . S
H1276 C1284 0.950 . S
H1277 C1289 0.950 . S
H1278 C1286 0.950 . S
H1279 C1288 0.950 . S
H1280 C1290 0.950 . S
H1281 C1292 0.950 . S
H1282 C1294 0.950 . S
H1283 C1295 0.950 . S
C1284 H1276 0.950 . S
C1284 C1285 1.386 . S
C1284 C1286 1.391 . S
C1285 C1284 1.386 . S
C1285 C1289 1.393 . S
C1286 H1278 0.950 . S
C1286 C1284 1.391 . S
C1286 C1287 1.400 . S
C1287 C1286 1.400 . S
C1287 C1288 1.398 . S
C1287 C1293 1.491 . S
C1288 H1279 0.950 . S
C1288 C1287 1.398 . S
C1288 C1289 1.391 . S
C1289 H1277 0.950 . S
C1289 C1285 1.393 . S
C1289 C1288 1.391 . S
C1290 H1280 0.950 . S
C1290 C1291 1.386 . S
C1290 C1292 1.391 . S
C1291 C1290 1.386 . S
C1291 C1295 1.393 . S
C1292 H1281 0.950 . S
C1292 C1290 1.391 . S
C1292 C1293 1.400 . S
C1293 C1287 1.491 . S
C1293 C1292 1.400 . S
C1293 C1294 1.398 . S
C1294 H1282 0.950 . S
C1294 C1293 1.398 . S
C1294 C1295 1.391 . S
C1295 H1283 0.950 . S
C1295 C1291 1.393 . S
C1295 C1294 1.391 . S
H1296 C1304 0.950 . S
H1297 C1309 0.950 . S
H1298 C1306 0.950 . S
H1299 C1308 0.950 . S
H1300 C1310 0.950 . S
H1301 C1312 0.950 . S
H1302 C1314 0.950 . S
H1303 C1315 0.950 . S
C1304 H1296 0.950 . S
C1304 C1305 1.386 . S
C1304 C1306 1.391 . S
C1305 C1304 1.386 . S
C1305 C1309 1.393 . S
C1306 H1298 0.950 . S
C1306 C1304 1.391 . S
C1306 C1307 1.400 . S
C1307 C1306 1.400 . S
C1307 C1308 1.398 . S
C1307 C1313 1.491 . S
C1308 H1299 0.950 . S
C1308 C1307 1.398 . S
C1308 C1309 1.391 . S
C1309 H1297 0.950 . S
C1309 C1305 1.393 . S
C1309 C1308 1.391 . S
C1310 H1300 0.950 . S
C1310 C1311 1.386 . S
C1310 C1312 1.391 . S
C1311 C1310 1.386 . S
C1311 C1315 1.393 . S
C1312 H1301 0.950 . S
C1312 C1310 1.391 . S
C1312 C1313 1.400 . S
C1313 C1307 1.491 . S
C1313 C1312 1.400 . S
C1313 C1314 1.398 . S
C1314 H1302 0.950 . S
C1314 C1313 1.398 . S
C1314 C1315 1.391 . S
C1315 H1303 0.950 . S
C1315 C1311 1.393 . S
C1315 C1314 1.391 . S
H1316 C1324 0.950 . S
H1317 C1329 0.950 . S
H1318 C1326 0.950 . S
H1319 C1328 0.950 . S
H1320 C1330 0.950 . S
H1321 C1332 0.950 . S
H1322 C1334 0.950 . S
H1323 C1335 0.950 . S
C1324 H1316 0.950 . S
C1324 C1325 1.386 . S
C1324 C1326 1.391 . S
C1325 C1324 1.386 . S
C1325 C1329 1.393 . S
C1326 H1318 0.950 . S
C1326 C1324 1.391 . S
C1326 C1327 1.400 . S
C1327 C1326 1.400 . S
C1327 C1328 1.398 . S
C1327 C1333 1.491 . S
C1328 H1319 0.950 . S
C1328 C1327 1.398 . S
C1328 C1329 1.391 . S
C1329 H1317 0.950 . S
C1329 C1325 1.393 . S
C1329 C1328 1.391 . S
C1330 H1320 0.950 . S
C1330 C1331 1.386 . S
C1330 C1332 1.391 . S
C1331 C1330 1.386 . S
C1331 C1335 1.393 . S
C1332 H1321 0.950 . S
C1332 C1330 1.391 . S
C1332 C1333 1.400 . S
C1333 C1327 1.491 . S
C1333 C1332 1.400 . S
C1333 C1334 1.398 . S
C1334 H1322 0.950 . S
C1334 C1333 1.398 . S
C1334 C1335 1.391 . S
C1335 H1323 0.950 . S
C1335 C1331 1.393 . S
C1335 C1334 1.391 . S
H1336 C1344 0.950 . S
H1337 C1349 0.950 . S
H1338 C1346 0.950 . S
H1339 C1348 0.950 . S
H1340 C1350 0.950 . S
H1341 C1352 0.950 . S
H1342 C1354 0.950 . S
H1343 C1355 0.950 . S
C1344 H1336 0.950 . S
C1344 C1345 1.386 . S
C1344 C1346 1.391 . S
C1345 C1344 1.386 . S
C1345 C1349 1.393 . S
C1346 H1338 0.950 . S
C1346 C1344 1.391 . S
C1346 C1347 1.400 . S
C1347 C1346 1.400 . S
C1347 C1348 1.398 . S
C1347 C1353 1.491 . S
C1348 H1339 0.950 . S
C1348 C1347 1.398 . S
C1348 C1349 1.391 . S
C1349 H1337 0.950 . S
C1349 C1345 1.393 . S
C1349 C1348 1.391 . S
C1350 H1340 0.950 . S
C1350 C1351 1.386 . S
C1350 C1352 1.391 . S
C1351 C1350 1.386 . S
C1351 C1355 1.393 . S
C1352 H1341 0.950 . S
C1352 C1350 1.391 . S
C1352 C1353 1.400 . S
C1353 C1347 1.491 . S
C1353 C1352 1.400 . S
C1353 C1354 1.398 . S
C1354 H1342 0.950 . S
C1354 C1353 1.398 . S
C1354 C1355 1.391 . S
C1355 H1343 0.950 . S
C1355 C1351 1.393 . S
C1355 C1354 1.391 . S
H1356 C1364 0.950 . S
H1357 C1369 0.950 . S
H1358 C1366 0.950 . S
H1359 C1368 0.950 . S
H1360 C1370 0.950 . S
H1361 C1372 0.950 . S
H1362 C1374 0.950 . S
H1363 C1375 0.950 . S
C1364 H1356 0.950 . S
C1364 C1365 1.386 . S
C1364 C1366 1.391 . S
C1365 C1364 1.386 . S
C1365 C1369 1.393 . S
C1366 H1358 0.950 . S
C1366 C1364 1.391 . S
C1366 C1367 1.400 . S
C1367 C1366 1.400 . S
C1367 C1368 1.398 . S
C1367 C1373 1.491 . S
C1368 H1359 0.950 . S
C1368 C1367 1.398 . S
C1368 C1369 1.391 . S
C1369 H1357 0.950 . S
C1369 C1365 1.393 . S
C1369 C1368 1.391 . S
C1370 H1360 0.950 . S
C1370 C1371 1.386 . S
C1370 C1372 1.391 . S
C1371 C1370 1.386 . S
C1371 C1375 1.393 . S
C1372 H1361 0.950 . S
C1372 C1370 1.391 . S
C1372 C1373 1.400 . S
C1373 C1367 1.491 . S
C1373 C1372 1.400 . S
C1373 C1374 1.398 . S
C1374 H1362 0.950 . S
C1374 C1373 1.398 . S
C1374 C1375 1.391 . S
C1375 H1363 0.950 . S
C1375 C1371 1.393 . S
C1375 C1374 1.391 . S
H1376 C1384 0.950 . S
H1377 C1389 0.950 . S
H1378 C1386 0.950 . S
H1379 C1388 0.950 . S
H1380 C1390 0.950 . S
H1381 C1392 0.950 . S
H1382 C1394 0.950 . S
H1383 C1395 0.950 . S
C1384 H1376 0.950 . S
C1384 C1385 1.386 . S
C1384 C1386 1.391 . S
C1385 C1384 1.386 . S
C1385 C1389 1.393 . S
C1386 H1378 0.950 . S
C1386 C1384 1.391 . S
C1386 C1387 1.400 . S
C1387 C1386 1.400 . S
C1387 C1388 1.398 . S
C1387 C1393 1.491 . S
C1388 H1379 0.950 . S
C1388 C1387 1.398 . S
C1388 C1389 1.391 . S
C1389 H1377 0.950 . S
C1389 C1385 1.393 . S
C1389 C1388 1.391 . S
C1390 H1380 0.950 . S
C1390 C1391 1.386 . S
C1390 C1392 1.391 . S
C1391 C1390 1.386 . S
C1391 C1395 1.393 . S
C1392 H1381 0.950 . S
C1392 C1390 1.391 . S
C1392 C1393 1.400 . S
C1393 C1387 1.491 . S
C1393 C1392 1.400 . S
C1393 C1394 1.398 . S
C1394 H1382 0.950 . S
C1394 C1393 1.398 . S
C1394 C1395 1.391 . S
C1395 H1383 0.950 . S
C1395 C1391 1.393 . S
C1395 C1394 1.391 . S
H1396 C1404 0.950 . S
H1397 C1409 0.950 . S
H1398 C1406 0.950 . S
H1399 C1408 0.950 . S
H1400 C1410 0.950 . S
H1401 C1412 0.950 . S
H1402 C1414 0.950 . S
H1403 C1415 0.950 . S
C1404 H1396 0.950 . S
C1404 C1405 1.386 . S
C1404 C1406 1.391 . S
C1405 C1404 1.386 . S
C1405 C1409 1.393 . S
C1406 H1398 0.950 . S
C1406 C1404 1.391 . S
C1406 C1407 1.400 . S
C1407 C1406 1.400 . S
C1407 C1408 1.398 . S
C1407 C1413 1.491 . S
C1408 H1399 0.950 . S
C1408 C1407 1.398 . S
C1408 C1409 1.391 . S
C1409 H1397 0.950 . S
C1409 C1405 1.393 . S
C1409 C1408 1.391 . S
C1410 H1400 0.950 . S
C1410 C1411 1.386 . S
C1410 C1412 1.391 . S
C1411 C1410 1.386 . S
C1411 C1415 1.393 . S
C1412 H1401 0.950 . S
C1412 C1410 1.391 . S
C1412 C1413 1.400 . S
C1413 C1407 1.491 . S
C1413 C1412 1.400 . S
C1413 C1414 1.398 . S
C1414 H1402 0.950 . S
C1414 C1413 1.398 . S
C1414 C1415 1.391 . S
C1415 H1403 0.950 . S
C1415 C1411 1.393 . S
C1415 C1414 1.391 . S
H1416 C1424 0.950 . S
H1417 C1429 0.950 . S
H1418 C1426 0.950 . S
H1419 C1428 0.950 . S
H1420 C1430 0.950 . S
H1421 C1432 0.950 . S
H1422 C1434 0.950 . S
H1423 C1435 0.950 . S
C1424 H1416 0.950 . S
C1424 C1425 1.386 . S
C1424 C1426 1.391 . S
C1425 C1424 1.386 . S
C1425 C1429 1.393 . S
C1426 H1418 0.950 . S
C1426 C1424 1.391 . S
C1426 C1427 1.400 . S
C1427 C1426 1.400 . S
C1427 C1428 1.398 . S
C1427 C1433 1.491 . S
C1428 H1419 0.950 . S
C1428 C1427 1.398 . S
C1428 C1429 1.391 . S
C1429 H1417 0.950 . S
C1429 C1425 1.393 . S
C1429 C1428 1.391 . S
C1430 H1420 0.950 . S
C1430 C1431 1.386 . S
C1430 C1432 1.391 . S
C1431 C1430 1.386 . S
C1431 C1435 1.393 . S
C1432 H1421 0.950 . S
C1432 C1430 1.391 . S
C1432 C1433 1.400 . S
C1433 C1427 1.491 . S
C1433 C1432 1.400 . S
C1433 C1434 1.398 . S
C1434 H1422 0.950 . S
C1434 C1433 1.398 . S
C1434 C1435 1.391 . S
C1435 H1423 0.950 . S
C1435 C1431 1.393 . S
C1435 C1434 1.391 . S
H1436 C1444 0.950 . S
H1437 C1449 0.950 . S
H1438 C1446 0.950 . S
H1439 C1448 0.950 . S
H1440 C1450 0.950 . S
H1441 C1452 0.950 . S
H1442 C1454 0.950 . S
H1443 C1455 0.950 . S
C1444 H1436 0.950 . S
C1444 C1445 1.386 . S
C1444 C1446 1.391 . S
C1445 C1444 1.386 . S
C1445 C1449 1.393 . S
C1446 H1438 0.950 . S
C1446 C1444 1.391 . S
C1446 C1447 1.400 . S
C1447 C1446 1.400 . S
C1447 C1448 1.398 . S
C1447 C1453 1.491 . S
C1448 H1439 0.950 . S
C1448 C1447 1.398 . S
C1448 C1449 1.391 . S
C1449 H1437 0.950 . S
C1449 C1445 1.393 . S
C1449 C1448 1.391 . S
C1450 H1440 0.950 . S
C1450 C1451 1.386 . S
C1450 C1452 1.391 . S
C1451 C1450 1.386 . S
C1451 C1455 1.393 . S
C1452 H1441 0.950 . S
C1452 C1450 1.391 . S
C1452 C1453 1.400 . S
C1453 C1447 1.491 . S
C1453 C1452 1.400 . S
C1453 C1454 1.398 . S
C1454 H1442 0.950 . S
C1454 C1453 1.398 . S
C1454 C1455 1.391 . S
C1455 H1443 0.950 . S
C1455 C1451 1.393 . S
C1455 C1454 1.391 . S
H1456 C1464 0.950 . S
H1457 C1469 0.950 . S
H1458 C1466 0.950 . S
H1459 C1468 0.950 . S
H1460 C1470 0.950 . S
H1461 C1472 0.950 . S
H1462 C1474 0.950 . S
H1463 C1475 0.950 . S
C1464 H1456 0.950 . S
C1464 C1465 1.386 . S
C1464 C1466 1.391 . S
C1465 C1464 1.386 . S
C1465 C1469 1.393 . S
C1466 H1458 0.950 . S
C1466 C1464 1.391 . S
C1466 C1467 1.400 . S
C1467 C1466 1.400 . S
C1467 C1468 1.398 . S
C1467 C1473 1.491 . S
C1468 H1459 0.950 . S
C1468 C1467 1.398 . S
C1468 C1469 1.391 . S
C1469 H1457 0.950 . S
C1469 C1465 1.393 . S
C1469 C1468 1.391 . S
C1470 H1460 0.950 . S
C1470 C1471 1.386 . S
C1470 C1472 1.391 . S
C1471 C1470 1.386 . S
C1471 C1475 1.393 . S
C1472 H1461 0.950 . S
C1472 C1470 1.391 . S
C1472 C1473 1.400 . S
C1473 C1467 1.491 . S
C1473 C1472 1.400 . S
C1473 C1474 1.398 . S
C1474 H1462 0.950 . S
C1474 C1473 1.398 . S
C1474 C1475 1.391 . S
C1475 H1463 0.950 . S
C1475 C1471 1.393 . S
C1475 C1474 1.391 . S
H1476 C1484 0.950 . S
H1477 C1489 0.950 . S
H1478 C1486 0.950 . S
H1479 C1488 0.950 . S
H1480 C1490 0.950 . S
H1481 C1492 0.950 . S
H1482 C1494 0.950 . S
H1483 C1495 0.950 . S
C1484 H1476 0.950 . S
C1484 C1485 1.386 . S
C1484 C1486 1.391 . S
C1485 C1484 1.386 . S
C1485 C1489 1.393 . S
C1486 H1478 0.950 . S
C1486 C1484 1.391 . S
C1486 C1487 1.400 . S
C1487 C1486 1.400 . S
C1487 C1488 1.398 . S
C1487 C1493 1.491 . S
C1488 H1479 0.950 . S
C1488 C1487 1.398 . S
C1488 C1489 1.391 . S
C1489 H1477 0.950 . S
C1489 C1485 1.393 . S
C1489 C1488 1.391 . S
C1490 H1480 0.950 . S
C1490 C1491 1.386 . S
C1490 C1492 1.391 . S
C1491 C1490 1.386 . S
C1491 C1495 1.393 . S
C1492 H1481 0.950 . S
C1492 C1490 1.391 . S
C1492 C1493 1.400 . S
C1493 C1487 1.491 . S
C1493 C1492 1.400 . S
C1493 C1494 1.398 . S
C1494 H1482 0.950 . S
C1494 C1493 1.398 . S
C1494 C1495 1.391 . S
C1495 H1483 0.950 . S
C1495 C1491 1.393 . S
C1495 C1494 1.391 . S
H1496 C1504 0.950 . S
H1497 C1509 0.950 . S
H1498 C1506 0.950 . S
H1499 C1508 0.950 . S
H1500 C1510 0.950 . S
H1501 C1512 0.950 . S
H1502 C1514 0.950 . S
H1503 C1515 0.950 . S
C1504 H1496 0.950 . S
C1504 C1505 1.386 . S
C1504 C1506 1.391 . S
C1505 C1504 1.386 . S
C1505 C1509 1.393 . S
C1506 H1498 0.950 . S
C1506 C1504 1.391 . S
C1506 C1507 1.400 . S
C1507 C1506 1.400 . S
C1507 C1508 1.398 . S
C1507 C1513 1.491 . S
C1508 H1499 0.950 . S
C1508 C1507 1.398 . S
C1508 C1509 1.391 . S
C1509 H1497 0.950 . S
C1509 C1505 1.393 . S
C1509 C1508 1.391 . S
C1510 H1500 0.950 . S
C1510 C1511 1.386 . S
C1510 C1512 1.391 . S
C1511 C1510 1.386 . S
C1511 C1515 1.393 . S
C1512 H1501 0.950 . S
C1512 C1510 1.391 . S
C1512 C1513 1.400 . S
C1513 C1507 1.491 . S
C1513 C1512 1.400 . S
C1513 C1514 1.398 . S
C1514 H1502 0.950 . S
C1514 C1513 1.398 . S
C1514 C1515 1.391 . S
C1515 H1503 0.950 . S
C1515 C1511 1.393 . S
C1515 C1514 1.391 . S
H1516 C1524 0.950 . S
H1517 C1529 0.950 . S
H1518 C1526 0.950 . S
H1519 C1528 0.950 . S
H1520 C1530 0.950 . S
H1521 C1532 0.950 . S
H1522 C1534 0.950 . S
H1523 C1535 0.950 . S
C1524 H1516 0.950 . S
C1524 C1525 1.386 . S
C1524 C1526 1.391 . S
C1525 C1524 1.386 . S
C1525 C1529 1.393 . S
C1526 H1518 0.950 . S
C1526 C1524 1.391 . S
C1526 C1527 1.400 . S
C1527 C1526 1.400 . S
C1527 C1528 1.398 . S
C1527 C1533 1.491 . S
C1528 H1519 0.950 . S
C1528 C1527 1.398 . S
C1528 C1529 1.391 . S
C1529 H1517 0.950 . S
C1529 C1525 1.393 . S
C1529 C1528 1.391 . S
C1530 H1520 0.950 . S
C1530 C1531 1.386 . S
C1530 C1532 1.391 . S
C1531 C1530 1.386 . S
C1531 C1535 1.393 . S
C1532 H1521 0.950 . S
C1532 C1530 1.391 . S
C1532 C1533 1.400 . S
C1533 C1527 1.491 . S
C1533 C1532 1.400 . S
C1533 C1534 1.398 . S
C1534 H1522 0.950 . S
C1534 C1533 1.398 . S
C1534 C1535 1.391 . S
C1535 H1523 0.950 . S
C1535 C1531 1.393 . S
C1535 C1534 1.391 . S
H1536 C1544 0.950 . S
H1537 C1549 0.950 . S
H1538 C1546 0.950 . S
H1539 C1548 0.950 . S
H1540 C1550 0.950 . S
H1541 C1552 0.950 . S
H1542 C1554 0.950 . S
H1543 C1555 0.950 . S
C1544 H1536 0.950 . S
C1544 C1545 1.386 . S
C1544 C1546 1.391 . S
C1545 C1544 1.386 . S
C1545 C1549 1.393 . S
C1546 H1538 0.950 . S
C1546 C1544 1.391 . S
C1546 C1547 1.400 . S
C1547 C1546 1.400 . S
C1547 C1548 1.398 . S
C1547 C1553 1.491 . S
C1548 H1539 0.950 . S
C1548 C1547 1.398 . S
C1548 C1549 1.391 . S
C1549 H1537 0.950 . S
C1549 C1545 1.393 . S
C1549 C1548 1.391 . S
C1550 H1540 0.950 . S
C1550 C1551 1.386 . S
C1550 C1552 1.391 . S
C1551 C1550 1.386 . S
C1551 C1555 1.393 . S
C1552 H1541 0.950 . S
C1552 C1550 1.391 . S
C1552 C1553 1.400 . S
C1553 C1547 1.491 . S
C1553 C1552 1.400 . S
C1553 C1554 1.398 . S
C1554 H1542 0.950 . S
C1554 C1553 1.398 . S
C1554 C1555 1.391 . S
C1555 H1543 0.950 . S
C1555 C1551 1.393 . S
C1555 C1554 1.391 . S
C611 C282 1.338 . S
C605 N2 1.338 . S
C631 C325 2.630 . S
C625 C7 2.668 . S
C651 C371 1.727 . S
C645 N12 1.609 . S
C665 C16 1.848 . S
C671 C414 1.876 . S
C691 C454 2.736 . S
C685 C30 2.741 1_565 S
C711 C482 1.494 . S
C705 N35 1.461 . S
C725 C39 2.067 . S
C731 C525 2.024 . S
C751 C571 1.202 . S
C745 N25 1.141 1_565 S
C771 C286 1.219 . S
C765 N58 1.170 . S
C785 N81 1.956 . S
C791 C335 1.929 . S
C811 C365 1.434 . S
C805 N104 1.413 . S
C825 N127 1.238 . S
C831 C402 1.217 . S
C851 C442 0.900 . S
C845 N48 0.908 . S
C871 C486 1.568 . S
C865 N71 1.522 1_556 S
C885 N94 1.325 . S
C891 C535 1.285 . S
C911 C565 1.919 . S
C905 N117 1.937 . S
C925 C85 2.550 . S
C931 C294 2.457 . S
C945 C122 2.437 . S
C951 C446 2.395 . S
C965 C53 2.102 . S
C971 C494 2.021 . S
C991 C531 1.381 . S
C985 C76 1.432 1_655 S
C1011 C575 1.851 . S
C1005 C99 1.852 . S
C1031 C375 2.001 . S
C1025 C131 1.991 . S
C1051 C406 1.690 . S
C1045 C62 1.717 1_565 S
C1065 C108 1.132 . S
C1071 C331 1.099 . S
C1091 C562 1.414 . S
C1085 N140 1.390 . S
C1105 C145 2.661 . S
C1111 C445 2.620 . S
C1131 C491 1.623 . S
C1125 N150 1.518 . S
C1145 C154 1.853 . S
C1151 C534 1.894 . S
C1171 C334 2.739 . S
C1165 C168 2.757 . S
C1185 N173 1.348 . S
C1191 C362 1.384 . S
C1211 C405 2.021 . S
C1205 C177 2.072 . S
C1231 C291 1.268 . S
C1225 N163 1.210 . S
C1251 C566 1.692 . S
C1245 C200 1.683 . S
C1271 C455 2.219 . S
C1265 N219 2.236 . S
C1285 N242 1.678 . S
C1291 C485 1.697 . S
C1311 C522 1.410 . S
C1305 C269 1.498 . S
C1331 C322 1.140 . S
C1325 C191 1.199 . S
C1345 N209 1.770 . S
C1351 C366 1.821 . S
C1365 N232 1.625 . S
C1371 C415 1.589 . S
C1385 C260 2.500 . S
C1391 C285 2.439 . S
C1405 C223 2.252 . S
C1411 C574 2.181 . S
C1425 N255 1.984 . S
C1431 C326 1.978 . S
C1445 N186 1.610 . S
C1451 C374 1.575 . S
C1471 C411 1.092 . S
C1465 C214 1.132 . S
C1491 C295 1.545 . S
C1485 C237 1.542 . S
C1511 C495 1.585 . S
C1505 N265 1.516 . S
C1531 C526 1.326 . S
C1525 N196 1.322 . S
C1551 C451 0.858 . S
C1545 C246 0.850 . S
