# Generated by pormake.
# Topology zzz, (3,6)-cn, num edge types: 1
# Building blocks:
#     Node 0, Type 0, BuildingBlock: OLANEW_clean_sbu_2, # of connection points: 3
#     Node 1, Type 0, BuildingBlock: OLANEW_clean_sbu_2, # of connection points: 3
#     Node 2, Type 0, BuildingBlock: OLANEW_clean_sbu_2, # of connection points: 3
#     Node 3, Type 0, BuildingBlock: OLANEW_clean_sbu_2, # of connection points: 3
#     Node 4, Type 0, BuildingBlock: OLANEW_clean_sbu_2, # of connection points: 3
#     Node 5, Type 0, BuildingBlock: OLANEW_clean_sbu_2, # of connection points: 3
#     Node 6, Type 0, BuildingBlock: OLANEW_clean_sbu_2, # of connection points: 3
#     Node 7, Type 0, BuildingBlock: OLANEW_clean_sbu_2, # of connection points: 3
#     Node 8, Type 1, BuildingBlock: BETDIP_clean_sbu_0, # of connection points: 6
#     Node 9, Type 1, BuildingBlock: BETDIP_clean_sbu_0, # of connection points: 6
#     Node 10, Type 1, BuildingBlock: BETDIP_clean_sbu_0, # of connection points: 6
#     Node 11, Type 1, BuildingBlock: BETDIP_clean_sbu_0, # of connection points: 6
#     Edge 12, Type (0, 1), BuildingBlock: UVAHIK_clean_linker_0, # of connection points: 2
#     Edge 13, Type (0, 1), BuildingBlock: UVAHIK_clean_linker_0, # of connection points: 2
#     Edge 14, Type (0, 1), BuildingBlock: UVAHIK_clean_linker_0, # of connection points: 2
#     Edge 15, Type (0, 1), BuildingBlock: UVAHIK_clean_linker_0, # of connection points: 2
#     Edge 16, Type (0, 1), BuildingBlock: UVAHIK_clean_linker_0, # of connection points: 2
#     Edge 17, Type (0, 1), BuildingBlock: UVAHIK_clean_linker_0, # of connection points: 2
#     Edge 18, Type (0, 1), BuildingBlock: UVAHIK_clean_linker_0, # of connection points: 2
#     Edge 19, Type (0, 1), BuildingBlock: UVAHIK_clean_linker_0, # of connection points: 2
#     Edge 20, Type (0, 1), BuildingBlock: UVAHIK_clean_linker_0, # of connection points: 2
#     Edge 21, Type (0, 1), BuildingBlock: UVAHIK_clean_linker_0, # of connection points: 2
#     Edge 22, Type (0, 1), BuildingBlock: UVAHIK_clean_linker_0, # of connection points: 2
#     Edge 23, Type (0, 1), BuildingBlock: UVAHIK_clean_linker_0, # of connection points: 2
#     Edge 24, Type (0, 1), BuildingBlock: UVAHIK_clean_linker_0, # of connection points: 2
#     Edge 25, Type (0, 1), BuildingBlock: UVAHIK_clean_linker_0, # of connection points: 2
#     Edge 26, Type (0, 1), BuildingBlock: UVAHIK_clean_linker_0, # of connection points: 2
#     Edge 27, Type (0, 1), BuildingBlock: UVAHIK_clean_linker_0, # of connection points: 2
#     Edge 28, Type (0, 1), BuildingBlock: UVAHIK_clean_linker_0, # of connection points: 2
#     Edge 29, Type (0, 1), BuildingBlock: UVAHIK_clean_linker_0, # of connection points: 2
#     Edge 30, Type (0, 1), BuildingBlock: UVAHIK_clean_linker_0, # of connection points: 2
#     Edge 31, Type (0, 1), BuildingBlock: UVAHIK_clean_linker_0, # of connection points: 2
#     Edge 32, Type (0, 1), BuildingBlock: UVAHIK_clean_linker_0, # of connection points: 2
#     Edge 33, Type (0, 1), BuildingBlock: UVAHIK_clean_linker_0, # of connection points: 2
#     Edge 34, Type (0, 1), BuildingBlock: UVAHIK_clean_linker_0, # of connection points: 2
#     Edge 35, Type (0, 1), BuildingBlock: UVAHIK_clean_linker_0, # of connection points: 2
# Relax obj value: 0.212
# Max RMSD: 0.157
# Mean RMSD: 0.156
data_MOF--net-zzz--node1-OLANEW_clean_sbu_2--node2-BETDIP_clean_sbu_0--edge1-UVAHIK_clean_linker_0
_symmetry_space_group_name_H-M    P1
_symmetry_Int_Tables_number       1
_symmetry_cell_setting            triclinic
loop_
_symmetry_equiv_pos_as_xyz
'x, y, z'
_cell_length_a     71.24702
_cell_length_b     71.50792
_cell_length_c     19.615429
_cell_angle_alpha  89.916916
_cell_angle_beta   89.709148
_cell_angle_gamma 90.037448
loop_
_atom_site_label
_atom_site_type_symbol
_atom_site_fract_x
_atom_site_fract_y
_atom_site_fract_z
_atom_type_partial_charge
O0 O 0.73358 0.52441 0.26929 0.0
Cd1 Cd 0.70326 0.53091 0.32258 0.0
O2 O 0.73052 0.49439 0.29049 0.0
Cd3 Cd 0.74453 0.46752 0.30203 0.0
O4 O 0.77309 0.46331 0.33675 0.0
C5 C 0.77608 0.46756 0.39857 0.0
O6 O 0.76176 0.47207 0.43765 0.0
C7 C 0.74008 0.50789 0.26618 0.0
C8 C 0.67425 0.52603 0.23006 0.0
O9 O 0.68318 0.54156 0.23371 0.0
O10 O 0.67895 0.5128 0.27069 0.0
O11 O 0.97951 0.72702 0.22707 0.0
Cd12 Cd 0.97676 0.70028 0.30361 0.0
O13 O 0.00655 0.73151 0.27649 0.0
Cd14 Cd 0.02898 0.7498 0.31128 0.0
O15 O 0.03106 0.77574 0.36818 0.0
C16 C 0.01743 0.78666 0.35606 0.0
O17 O 0.00478 0.78157 0.31138 0.0
C18 C 0.99435 0.73669 0.23326 0.0
C19 C 0.98011 0.66767 0.22876 0.0
O20 O 0.96392 0.6745 0.24286 0.0
O21 O 0.99467 0.6761 0.25146 0.0
O22 O 0.75702 0.97539 0.26603 0.0
Cd23 Cd 0.78719 0.96637 0.31553 0.0
O24 O 0.75094 0.99341 0.35355 0.0
Cd25 Cd 0.73636 0.01502 0.41279 0.0
O26 O 0.7332 0.04108 0.47913 0.0
C27 C 0.72093 0.04407 0.52585 0.0
O28 O 0.73366 0.04161 0.4788 0.0
C29 C 0.746 0.98663 0.29644 0.0
C30 C 0.81738 0.97202 0.22627 0.0
O31 O 0.80763 0.95696 0.22441 0.0
O32 O 0.81283 0.98449 0.27022 0.0
O33 O 0.52133 0.76256 0.27679 0.0
Cd34 Cd 0.52555 0.79196 0.33787 0.0
O35 O 0.49091 0.76363 0.29449 0.0
Cd36 Cd 0.46453 0.74836 0.30213 0.0
O37 O 0.46145 0.71973 0.3371 0.0
C38 C 0.46604 0.71692 0.39873 0.0
O39 O 0.47015 0.73136 0.43723 0.0
C40 C 0.50519 0.75525 0.27016 0.0
C41 C 0.52241 0.82214 0.24945 0.0
O42 O 0.53808 0.81363 0.25719 0.0
O43 O 0.50821 0.81648 0.28421 0.0
O44 O 0.27016 0.53344 0.12761 0.0
Cd45 Cd 0.30067 0.53749 0.0729 0.0
O46 O 0.26781 0.50631 0.07643 0.0
Cd47 Cd 0.25228 0.48088 0.05291 0.0
O48 O 0.22698 0.46803 0.01324 0.0
C49 C 0.2245 0.46915 0.94932 0.0
O50 O 0.23792 0.47633 0.91122 0.0
C51 C 0.26082 0.51873 0.11532 0.0
C52 C 0.32876 0.52711 0.16283 0.0
O53 O 0.32239 0.54387 0.16166 0.0
O54 O 0.32202 0.51527 0.12047 0.0
O55 O 0.9692 0.26893 0.12596 0.0
Cd56 Cd 0.97074 0.29717 0.05645 0.0
O57 O 0.999 0.26743 0.10054 0.0
Cd58 Cd 0.02536 0.25293 0.08136 0.0
O59 O 0.03329 0.22843 0.02327 0.0
C60 C 0.01919 0.22154 0.99296 0.0
O61 O 0.00282 0.2298 0.00011 0.0
C62 C 0.98471 0.26026 0.12979 0.0
C63 C 0.98321 0.32696 0.13435 0.0
O64 O 0.96567 0.32454 0.12304 0.0
O65 O 0.9949 0.3154 0.10799 0.0
O66 O 0.23336 0.98497 0.10826 0.0
Cd67 Cd 0.20184 0.98713 0.05978 0.0
O68 O 0.24207 0.00332 0.02485 0.0
Cd69 Cd 0.25911 0.0229 0.96514 0.0
O70 O 0.25995 0.04844 0.89506 0.0
C71 C 0.27128 0.05175 0.84554 0.0
O72 O 0.25947 0.04894 0.89544 0.0
C73 C 0.24626 0.99418 0.07832 0.0
C74 C 0.17368 0.98982 0.15873 0.0
O75 O 0.17778 0.97405 0.13144 0.0
O76 O 0.18295 0.00428 0.13956 0.0
O77 O 0.52654 0.2256 0.13164 0.0
Cd78 Cd 0.52943 0.19627 0.06958 0.0
O79 O 0.4975 0.22705 0.09661 0.0
Cd80 Cd 0.47197 0.242 0.06958 0.0
O81 O 0.46507 0.26784 0.01775 0.0
C82 C 0.47977 0.2759 -0.00442 0.0
O83 O 0.49611 0.26789 0.00603 0.0
C84 C 0.51105 0.23434 0.12927 0.0
C85 C 0.5221 0.16635 0.15576 0.0
O86 O 0.5387 0.17309 0.14962 0.0
O87 O 0.50894 0.17366 0.12029 0.0
Tb88 Tb 0.00437 0.99475 0.7714 0.0
Tb89 Tb 0.98908 0.00611 0.63381 0.0
C90 C 0.00797 0.97971 0.88639 0.0
C91 C 0.00848 0.96021 0.91096 0.0
C92 C 0.99855 0.95535 0.97027 0.0
C93 C 0.99816 0.93681 0.99291 0.0
C94 C 0.00777 0.92277 0.95673 0.0
C95 C 0.01784 0.9277 0.89753 0.0
C96 C 0.01812 0.94624 0.87466 0.0
C97 C 0.02947 -0.00068 0.67414 0.0
C98 C 0.99021 0.96365 0.66494 0.0
C99 C 0.98512 0.02099 0.51868 0.0
C100 C 0.98614 0.04023 0.49124 0.0
C101 C 0.99807 0.04411 0.43591 0.0
C102 C -0.00086 0.06216 0.40863 0.0
C103 C 0.98814 0.07675 0.43574 0.0
C104 C 0.97628 0.07282 0.4916 0.0
C105 C 0.97535 0.0548 0.51925 0.0
C106 C 0.96399 0.00084 0.73017 0.0
C107 C 0.00432 0.0369 0.73915 0.0
O108 O 0.99183 0.9853 0.86218 0.0
O109 O 0.02216 0.98529 0.84886 0.0
O110 O 0.01347 0.99215 0.66834 0.0
O111 O 0.03258 0.00312 0.73774 0.0
O112 O 0.99444 0.96816 0.7286 0.0
O113 O 0.98937 0.9763 0.61578 0.0
O114 O 0.00098 0.01379 0.53964 0.0
O115 O 0.97111 0.01716 0.55989 0.0
O116 O 0.97978 0.00848 0.73689 0.0
O117 O 0.96119 0.99691 0.66651 0.0
O118 O 0.00054 0.03227 0.67526 0.0
O119 O 0.00396 0.0245 0.7891 0.0
H120 H 0.99096 0.96591 -0.00117 0.0
H121 H 0.99042 0.93347 0.03901 0.0
H122 H 0.02517 0.91715 0.8681 0.0
H123 H 0.02569 0.94958 0.82818 0.0
H124 H 0.00661 0.03313 0.41375 0.0
H125 H 0.0087 0.06468 0.36652 0.0
H126 H 0.9674 0.08357 0.51336 0.0
H127 H 0.96608 0.05229 0.56222 0.0
Tb128 Tb 0.50139 -0.00245 0.75357 0.0
Tb129 Tb 0.49262 0.98052 0.61525 0.0
C130 C 0.5136 0.00269 0.87208 0.0
C131 C 0.53205 0.00468 0.90446 0.0
C132 C 0.53427 -0.00124 0.97199 0.0
C133 C 0.55176 -3e-05 0.00353 0.0
C134 C 0.5674 0.00719 0.9681 0.0
C135 C 0.56508 0.01314 0.90018 0.0
C136 C 0.54756 0.01187 0.86859 0.0
C137 C 0.49596 0.02154 0.65407 0.0
C138 C 0.53489 0.98492 0.65226 0.0
C139 C 0.48004 0.97396 0.498 0.0
C140 C 0.46219 0.97708 0.46242 0.0
C141 C 0.44959 0.99093 0.48438 0.0
C142 C 0.43246 0.99342 0.45112 0.0
C143 C 0.42775 0.98226 0.39474 0.0
C144 C 0.44054 0.96858 0.37237 0.0
C145 C 0.45758 0.96596 0.40619 0.0
C146 C 0.49865 0.95694 0.71504 0.0
C147 C 0.45961 0.99436 0.71522 0.0
O148 O 0.50995 0.98616 0.84689 0.0
O149 O 0.50834 0.01627 0.83158 0.0
O150 O 0.50417 0.00606 0.65017 0.0
O151 O 0.49165 0.0249 0.71724 0.0
O152 O 0.52932 0.9896 0.71473 0.0
O153 O 0.52283 0.98219 0.60207 0.0
O154 O 0.48959 0.98898 0.51369 0.0
O155 O 0.47957 0.96182 0.54798 0.0
O156 O 0.48982 0.97208 0.71846 0.0
O157 O 0.50374 0.95382 0.65249 0.0
O158 O 0.4654 0.99163 0.65153 0.0
O159 O 0.47145 0.99448 0.76678 0.0
H160 H 0.52249 0.993 0.00019 0.0
H161 H 0.55307 0.99491 0.05534 0.0
H162 H 0.57677 0.01891 0.87155 0.0
H163 H 0.54614 0.01644 0.81619 0.0
H164 H 0.45302 -0.00015 0.52706 0.0
H165 H 0.42299 0.00422 0.46901 0.0
H166 H 0.43722 0.95967 0.32946 0.0
H167 H 0.46713 0.9552 0.38857 0.0
Tb168 Tb 0.49618 0.50305 0.7535 0.0
Tb169 Tb 0.51092 0.48967 0.61597 0.0
C170 C 0.49352 0.51825 0.86873 0.0
C171 C 0.49395 0.53729 0.89694 0.0
C172 C 0.49987 0.53989 0.96422 0.0
C173 C 0.50052 0.55781 0.99239 0.0
C174 C 0.49527 0.57353 0.95367 0.0
C175 C 0.48935 0.57085 0.88598 0.0
C176 C 0.48872 0.55288 0.85782 0.0
C177 C 0.47056 0.4967 0.66077 0.0
C178 C 0.50918 0.53269 0.63885 0.0
C179 C 0.51561 0.47414 0.50201 0.0
C180 C 0.51272 0.45544 0.47262 0.0
C181 C 0.49934 0.44306 0.49988 0.0
C182 C 0.49731 0.42509 0.47276 0.0
C183 C 0.5084 0.41934 0.41714 0.0
C184 C 0.52154 0.43192 0.38922 0.0
C185 C 0.52373 0.44978 0.417 0.0
C186 C 0.5361 0.49633 0.70993 0.0
C187 C 0.4953 0.46051 0.72704 0.0
O188 O 0.50935 0.51214 0.84295 0.0
O189 O 0.47905 0.51394 0.83095 0.0
O190 O 0.48653 0.5037 0.65115 0.0
O191 O 0.46773 0.4944 0.72567 0.0
O192 O 0.50551 0.52917 0.7041 0.0
O193 O 0.5102 0.51923 0.59278 0.0
O194 O 0.50046 0.48342 0.51902 0.0
O195 O 0.52874 0.47542 0.54816 0.0
O196 O 0.52037 0.48875 0.71842 0.0
O197 O 0.53877 0.4998 0.6457 0.0
O198 O 0.49861 0.46437 0.66189 0.0
O199 O 0.49627 0.47344 0.77492 0.0
H200 H 0.50396 0.52802 -0.00485 0.0
H201 H 0.50489 0.55932 0.04489 0.0
H202 H 0.48543 0.58267 0.85453 0.0
H203 H 0.48418 0.55116 0.8056 0.0
H204 H 0.49047 0.4473 0.54205 0.0
H205 H 0.48695 0.41575 0.49485 0.0
H206 H 0.53039 0.42781 0.34676 0.0
H207 H 0.53413 0.45915 0.39527 0.0
Tb208 Tb 0.99261 0.48635 0.75014 0.0
Tb209 Tb 0.00582 0.5031 0.61482 0.0
C210 C 0.97734 0.48117 0.86459 0.0
C211 C 0.95845 0.48269 0.89479 0.0
C212 C 0.95664 0.48786 0.96336 0.0
C213 C 0.9389 0.48952 0.99342 0.0
C214 C 0.92258 0.48605 0.95537 0.0
C215 C 0.92445 0.4809 0.8864 0.0
C216 C 0.94224 0.47925 0.85635 0.0
C217 C -0.00034 0.46255 0.65205 0.0
C218 C 0.96276 0.50095 0.63969 0.0
C219 C 0.02081 0.50869 0.5001 0.0
C220 C 0.03967 0.50756 0.46963 0.0
C221 C 0.05348 0.49581 0.49708 0.0
C222 C 0.07151 0.49538 0.46856 0.0
C223 C 0.07587 0.50644 0.41129 0.0
C224 C 0.06188 0.51794 0.38328 0.0
C225 C 0.04396 0.51856 0.4125 0.0
C226 C 0.99894 0.52696 0.71306 0.0
C227 C 0.03551 0.48701 0.72326 0.0
O228 O 0.98519 0.49695 0.84622 0.0
O229 O 0.97995 0.46789 0.8196 0.0
O230 O 0.99207 0.47828 0.64623 0.0
O231 O 0.00252 0.45885 0.71595 0.0
O232 O 0.96643 0.49686 0.70438 0.0
O233 O 0.97616 0.50215 0.59304 0.0
O234 O 0.01309 0.49281 0.51834 0.0
O235 O 0.01834 0.52181 0.54569 0.0
O236 O 0.00649 0.51119 0.71894 0.0
O237 O 0.99594 0.53052 0.64917 0.0
O238 O 0.03173 0.49171 0.65924 0.0
O239 O 0.02236 0.48624 0.77102 0.0
H240 H 0.96899 0.49058 0.9938 0.0
H241 H 0.93798 0.49328 0.0468 0.0
H242 H 0.91218 0.47835 0.85543 0.0
H243 H 0.94333 0.47531 0.8032 0.0
H244 H 0.0503 0.48694 0.54032 0.0
H245 H 0.08197 0.48625 0.4907 0.0
H246 H 0.06491 0.5267 0.33947 0.0
H247 H 0.03346 0.5277 0.3906 0.0
C248 C 0.1579 0.00669 0.25493 0.0
C249 C 0.15863 0.99131 0.2106 0.0
C250 C 0.14377 0.008 0.30443 0.0
C251 C 0.10739 0.97923 0.39384 0.0
H252 H 0.08835 0.02779 0.44839 0.0
C253 C 0.04101 0.98905 0.56007 0.0
C254 C 0.04366 -0.00027 0.61929 0.0
C255 C 0.05483 0.98856 0.50936 0.0
C256 C 0.09363 0.01417 0.43371 0.0
H257 H 0.14489 0.96546 0.1821 0.0
H258 H 0.11977 0.9681 0.26601 0.0
H259 H 0.11253 0.02579 0.36007 0.0
H260 H 0.06244 0.01871 0.6713 0.0
H261 H 0.08651 0.01827 0.58124 0.0
H262 H 0.08789 0.96769 0.46608 0.0
C263 C 0.13046 0.97887 0.26465 0.0
C264 C 0.10757 0.01297 0.38341 0.0
C265 C 0.1448 0.97739 0.21608 0.0
C266 C 0.06013 0.01033 0.62615 0.0
C267 C 0.07382 0.01013 0.5747 0.0
C268 C 0.09322 0.98043 0.44309 0.0
C269 C 0.1298 0.99413 0.30995 0.0
C270 C 0.11473 0.99547 0.36293 0.0
C271 C 0.07138 -0.00097 0.51635 0.0
C272 C 0.08627 -0.0021 0.46365 0.0
H273 H 0.16845 0.01758 0.25218 0.0
H274 H 0.14403 0.01978 0.33901 0.0
H275 H 0.11276 0.96552 0.38087 0.0
H276 H 0.02843 0.98074 0.55355 0.0
H277 H 0.0526 0.98 0.4646 0.0
C278 C 0.5005 0.14219 0.20552 0.0
C279 C 0.51825 0.15077 0.20333 0.0
C280 C 0.49689 0.12762 0.25134 0.0
C281 C 0.5212 0.09261 0.3584 0.0
H282 H 0.47352 0.08993 0.45417 0.0
C283 C 0.50464 0.03129 0.53636 0.0
C284 C 0.49582 0.03543 0.59862 0.0
C285 C 0.50568 0.04467 0.48481 0.0
C286 C 0.48694 0.09056 0.42814 0.0
H287 H 0.54607 0.15094 0.24778 0.0
H288 H 0.53969 0.12587 0.3284 0.0
H289 H 0.47903 0.1149 0.37149 0.0
H290 H 0.48095 0.05668 0.65588 0.0
H291 H 0.4833 0.08045 0.56642 0.0
H292 H 0.52948 0.06885 0.41673 0.0
C293 C 0.52866 0.13007 0.29384 0.0
C294 C 0.49002 0.10472 0.38012 0.0
C295 C 0.53229 0.14452 0.24784 0.0
C296 C 0.48778 0.05314 0.60816 0.0
C297 C 0.48901 0.06667 0.55672 0.0
C298 C 0.51818 0.07857 0.40656 0.0
C299 C 0.51094 0.1214 0.29606 0.0
C300 C 0.50725 0.10598 0.34509 0.0
C301 C 0.49824 0.06266 0.4948 0.0
C302 C 0.50105 0.07738 0.44221 0.0
H303 H 0.4894 0.14667 0.17169 0.0
H304 H 0.48317 0.12109 0.25118 0.0
H305 H 0.53453 0.09298 0.33163 0.0
H306 H 0.51121 0.01784 0.52793 0.0
H307 H 0.51259 0.04097 0.43741 0.0
C308 C 0.3516 0.5038 0.20962 0.0
C309 C 0.34318 0.52155 0.21276 0.0
C310 C 0.36497 0.49851 0.2579 0.0
C311 C 0.38087 0.50909 0.43142 0.0
H312 H 0.4283 0.48765 0.37322 0.0
C313 C 0.43814 0.48836 0.62377 0.0
C314 C 0.45598 0.49555 0.60813 0.0
C315 C 0.42395 0.48857 0.5748 0.0
C316 C 0.41507 0.49355 0.39016 0.0
H317 H 0.34216 0.54768 0.2688 0.0
H318 H 0.36541 0.53842 0.35294 0.0
H319 H 0.40402 0.49425 0.28879 0.0
H320 H 0.4731 0.50841 0.52931 0.0
H321 H 0.44847 0.50857 0.44375 0.0
H322 H 0.39206 0.5089 0.5324 0.0
C323 C 0.36159 0.52856 0.31348 0.0
C324 C 0.40116 0.4972 0.34199 0.0
C325 C 0.34839 0.5339 0.26498 0.0
C326 C 0.45956 0.50249 0.54238 0.0
C327 C 0.44546 0.50257 0.49336 0.0
C328 C 0.39471 0.50531 0.47959 0.0
C329 C 0.36998 0.51081 0.31055 0.0
C330 C 0.38408 0.50536 0.36204 0.0
C331 C 0.42743 0.49588 0.50935 0.0
C332 C 0.41207 0.49783 0.45927 0.0
H333 H 0.34787 0.49397 0.16995 0.0
H334 H 0.37118 0.48472 0.25466 0.0
H335 H 0.36774 0.51519 0.44831 0.0
H336 H 0.43506 0.48291 0.67415 0.0
H337 H 0.41019 0.48322 0.58831 0.0
C338 C 0.00681 0.34085 0.21334 0.0
C339 C 0.98966 0.34226 0.17864 0.0
C340 C 0.01211 0.35463 0.25989 0.0
C341 C 0.00528 0.40317 0.30894 0.0
H342 H 0.0099 0.38632 0.49611 0.0
C343 C 0.99343 0.45268 0.53319 0.0
C344 C 0.00275 0.44964 0.59496 0.0
C345 C 0.9956 0.4402 0.4793 0.0
C346 C 0.00915 0.39132 0.44407 0.0
H347 H 0.96502 0.35948 0.16282 0.0
H348 H 0.97458 0.38383 0.24279 0.0
H349 H 0.00742 0.36343 0.40469 0.0
H350 H 0.0221 0.43166 0.6488 0.0
H351 H 0.02644 0.40998 0.55359 0.0
H352 H 0.00704 0.43102 0.34755 0.0
C353 C 0.98378 0.37198 0.23444 0.0
C354 C 0.00765 0.37817 0.39181 0.0
C355 C 0.97828 0.35802 0.18912 0.0
C356 C 0.01466 0.43416 0.60164 0.0
C357 C 0.01706 0.42175 0.54721 0.0
C358 C 0.00713 0.41633 0.36095 0.0
C359 C 0.00056 0.37022 0.27105 0.0
C360 C 0.00514 0.38402 0.32421 0.0
C361 C 0.00737 0.42451 0.48559 0.0
C362 C 0.00843 0.41058 0.42947 0.0
H363 H 0.01581 0.32879 0.20632 0.0
H364 H 0.02511 0.35303 0.28775 0.0
H365 H 0.00353 0.40795 0.25692 0.0
H366 H 0.98404 0.46447 0.52704 0.0
H367 H 0.98754 0.4426 0.43349 0.0
C368 C 0.83599 0.96299 0.12285 0.0
C369 C 0.83342 0.97487 0.17907 0.0
C370 C 0.85104 0.96568 0.07795 0.0
C371 C 0.88625 0.00122 0.02339 0.0
H372 H 0.90968 0.95831 0.93737 0.0
C373 C 0.9521 0.00658 0.84859 0.0
C374 C 0.95035 -0.00253 0.78556 0.0
C375 C 0.93875 0.00368 0.90015 0.0
C376 C 0.90323 0.97041 0.96094 0.0
H377 H 0.84479 -0.00124 0.23287 0.0
H378 H 0.87139 0.00313 0.15581 0.0
H379 H 0.88489 0.95352 0.0217 0.0
H380 H 0.9336 0.97801 0.7271 0.0
H381 H 0.91046 0.9727 0.81752 0.0
H382 H 0.90492 0.01803 0.96294 0.0
C383 C 0.86153 0.992 0.14524 0.0
C384 C 0.88894 0.96771 0.00901 0.0
C385 C 0.84632 0.98944 0.18972 0.0
C386 C 0.93524 0.98522 0.77525 0.0
C387 C 0.92207 0.9821 0.82705 0.0
C388 C 0.90073 0.0039 0.97594 0.0
C389 C 0.86407 0.98019 0.08858 0.0
C390 C 0.88004 0.98308 0.04017 0.0
C391 C 0.92361 0.9914 0.88983 0.0
C392 C 0.90917 0.98853 0.94356 0.0
H393 H 0.82622 0.95171 0.11295 0.0
H394 H 0.85226 0.95653 0.03423 0.0
H395 H 0.8796 0.01342 0.04542 0.0
H396 H 0.96363 0.01612 0.85767 0.0
H397 H 0.94031 0.01094 0.94822 0.0
C398 C 0.53462 0.84068 0.15073 0.0
C399 C 0.52067 0.83771 0.20036 0.0
C400 C 0.53259 0.85476 0.10198 0.0
C401 C 0.49624 0.8845 0.02162 0.0
H402 H 0.53962 0.91064 0.94835 0.0
C403 C 0.49084 0.9462 0.83247 0.0
C404 C 0.50172 0.9443 0.77302 0.0
C405 C 0.49343 0.93406 0.88737 0.0
C406 C 0.52742 0.90338 0.96833 0.0
H407 H 0.49393 0.84755 0.23947 0.0
H408 H 0.49067 0.87259 0.15597 0.0
H409 H 0.54363 0.88845 0.04181 0.0
H410 H 0.52398 0.92859 0.72417 0.0
H411 H 0.52879 0.90744 0.82108 0.0
H412 H 0.48004 0.89981 0.94873 0.0
C413 C 0.50293 0.86368 0.15323 0.0
C414 C 0.52969 0.89061 0.02161 0.0
C415 C 0.50485 0.84941 0.20141 0.0
C416 C 0.51541 0.93025 0.76952 0.0
C417 C 0.51822 0.91828 0.82491 0.0
C418 C 0.49395 0.89748 0.96908 0.0
C419 C 0.51667 0.86639 0.10231 0.0
C420 C 0.51415 0.88083 0.0484 0.0
C421 C 0.50714 0.92 0.88404 0.0
C422 C 0.50954 0.90686 0.94151 0.0
H423 H 0.54693 0.83181 0.14838 0.0
H424 H 0.5433 0.85616 0.06297 0.0
H425 H 0.48399 0.87702 0.03992 0.0
H426 H 0.48016 0.95694 0.83625 0.0
H427 H 0.4848 0.93571 0.93258 0.0
C428 C 0.65726 0.53593 0.12491 0.0
C429 C 0.65917 0.52339 0.17959 0.0
C430 C 0.64339 0.53319 0.07591 0.0
C431 C 0.61152 0.4967 0.00734 0.0
H432 H 0.58761 0.53931 0.92138 0.0
C433 C 0.54785 0.49041 0.82728 0.0
C434 C 0.5497 0.49976 0.76461 0.0
C435 C 0.56083 0.49343 0.87919 0.0
C436 C 0.59426 0.52731 0.94482 0.0
H437 H 0.64777 0.4984 0.22683 0.0
H438 H 0.62311 0.49396 0.14278 0.0
H439 H 0.61045 0.5444 0.0117 0.0
H440 H 0.56629 0.51967 0.70682 0.0
H441 H 0.58891 0.52524 0.79844 0.0
H442 H 0.59486 0.47966 0.94123 0.0
C443 C 0.63266 0.50562 0.13643 0.0
C444 C 0.60741 0.53019 -0.00366 0.0
C445 C 0.64673 0.50822 0.18492 0.0
C446 C 0.56463 0.51229 0.75475 0.0
C447 C 0.57746 0.51554 0.80712 0.0
C448 C 0.59816 0.49383 0.95654 0.0
C449 C 0.6309 0.51799 0.08094 0.0
C450 C 0.61635 0.51492 0.02789 0.0
C451 C 0.57572 0.50604 0.86962 0.0
C452 C 0.58954 0.50911 0.92448 0.0
H453 H 0.66673 0.54769 0.11916 0.0
H454 H 0.64273 0.54282 0.03334 0.0
H455 H 0.61832 0.4846 0.02942 0.0
H456 H 0.53646 0.48063 0.83596 0.0
H457 H 0.55914 0.48603 0.92708 0.0
C458 C 0.96619 0.64019 0.16876 0.0
C459 C 0.98196 0.65109 0.18466 0.0
C460 C 0.96771 0.62533 0.12299 0.0
C461 C 0.00252 0.5952 0.03341 0.0
H462 H 0.96189 0.58881 0.90476 0.0
C463 C 0.98712 0.55733 0.7583 0.0
C464 C 0.99633 0.54029 0.76929 0.0
C465 C 0.98493 0.57008 0.81162 0.0
C466 C 0.97344 0.59051 0.93987 0.0
H467 H 0.01177 0.65481 0.16625 0.0
H468 H 0.01434 0.62932 0.0849 0.0
H469 H 0.95927 0.61235 0.99344 0.0
H470 H 0.01087 0.52328 0.84374 0.0
H471 H 0.00628 0.54503 0.93759 0.0
H472 H 0.01712 0.57407 0.97763 0.0
C473 C 0.00086 0.63189 0.10883 0.0
C474 C 0.97181 0.60381 0.99153 0.0
C475 C -0.00062 0.64659 0.15523 0.0
C476 C 0.00338 0.53619 0.83426 0.0
C477 C 0.00099 0.54879 0.88778 0.0
C478 C 0.00424 0.58205 0.98126 0.0
C479 C 0.985 0.62121 0.09151 0.0
C480 C 0.98637 0.6064 0.03873 0.0
C481 C 0.99182 0.56595 0.87709 0.0
C482 C 0.98976 0.57961 0.93362 0.0
H483 H 0.9526 0.64325 0.19116 0.0
H484 H 0.9553 0.61716 0.11192 0.0
H485 H 0.0139 0.59662 0.0694 0.0
H486 H 0.9817 0.56086 0.70841 0.0
H487 H 0.97812 0.5833 0.80116 0.0
C488 C 0.00246 0.23464 0.18919 0.0
C489 C 0.98555 0.24162 0.16281 0.0
C490 C 0.00318 0.21686 0.21891 0.0
C491 C 0.97421 0.1818 0.3056 0.0
H492 H 0.013 0.14671 0.25136 0.0
C493 C 0.98715 0.11188 0.44671 0.0
C494 C 0.9888 0.09588 0.40532 0.0
C495 C 0.98717 0.12978 0.41787 0.0
C496 C 0.00208 0.15636 0.26691 0.0
H497 H 0.95593 0.23568 0.14955 0.0
H498 H 0.95711 0.20482 0.20293 0.0
H499 H 0.01205 0.17786 0.19946 0.0
H500 H 0.99172 0.0864 0.30065 0.0
H501 H 0.99226 0.11764 0.25086 0.0
H502 H 0.96426 0.16035 0.37316 0.0
C503 C 0.96988 0.21302 0.1996 0.0
C504 C 0.00161 0.1742 0.23759 0.0
C505 C 0.96922 0.23068 0.16901 0.0
C506 C 0.99076 0.09833 0.33439 0.0
C507 C 0.991 0.11624 0.30569 0.0
C508 C 0.97483 0.16406 0.3356 0.0
C509 C 0.98689 0.20587 0.2244 0.0
C510 C 0.9876 0.18706 0.25636 0.0
C511 C 0.98906 0.13214 0.34707 0.0
C512 C 0.98871 0.15112 0.3163 0.0
H513 H 0.01508 0.24303 0.1885 0.0
H514 H 0.0164 0.21186 0.23892 0.0
H515 H 0.96333 0.19147 0.32135 0.0
H516 H 0.986 0.11062 0.50158 0.0
H517 H 0.98588 0.14181 0.45108 0.0
C518 C 0.28126 -0.00272 0.06581 0.0
C519 C 0.26535 0.99474 0.10748 0.0
C520 C 0.29926 0.99715 0.09413 0.0
C521 C 0.32447 0.004 0.25537 0.0
H522 H 0.36285 0.9725 0.1747 0.0
C523 C 0.39284 0.9866 0.39765 0.0
C524 C 0.4095 0.98479 0.35972 0.0
C525 C 0.3756 0.98869 0.3648 0.0
C526 C 0.35243 0.98163 0.19735 0.0
H527 H 0.25579 0.99014 0.21127 0.0
H528 H 0.28714 0.99009 0.26064 0.0
H529 H 0.33228 0.97515 0.12005 0.0
H530 H 0.42125 0.98412 0.25766 0.0
H531 H 0.39125 0.9882 0.20015 0.0
H532 H 0.34452 0.01069 0.33226 0.0
C533 C 0.28572 0.99227 0.20625 0.0
C534 C 0.3349 0.9831 0.166 0.0
C535 C 0.26779 0.99217 0.1779 0.0
C536 C 0.4086 0.98526 0.2882 0.0
C537 C 0.39138 0.98754 0.25529 0.0
C538 C 0.34204 0.0027 0.28632 0.0
C539 C 0.30165 0.99467 0.16469 0.0
C540 C 0.32067 0.99411 0.19519 0.0
C541 C 0.37463 0.98922 0.29314 0.0
C542 C 0.35619 0.9913 0.25826 0.0
H543 H 0.27986 -0.00113 0.01121 0.0
H544 H 0.31131 -0.00096 0.0609 0.0
H545 H 0.31383 0.0128 0.2785 0.0
H546 H 0.39307 0.98603 0.45283 0.0
H547 H 0.363 0.98956 0.39572 0.0
C548 C 0.49224 0.26049 0.1817 0.0
C549 C 0.50959 0.25325 0.15973 0.0
C550 C 0.4911 0.27843 0.20979 0.0
C551 C 0.51875 0.31326 0.30132 0.0
H552 H 0.48233 0.34922 0.23546 0.0
C553 C 0.50632 0.38456 0.43251 0.0
C554 C 0.50659 0.40017 0.38892 0.0
C555 C 0.50562 0.36645 0.40575 0.0
C556 C 0.49255 0.3393 0.25433 0.0
H557 H 0.53943 0.25896 0.15231 0.0
H558 H 0.53748 0.29007 0.20294 0.0
H559 H 0.48338 0.31777 0.18603 0.0
H560 H 0.50574 0.40912 0.28338 0.0
H561 H 0.50433 0.37745 0.23661 0.0
H562 H 0.52796 0.33473 0.36952 0.0
C563 C 0.52474 0.28195 0.19742 0.0
C564 C 0.49307 0.32131 0.2264 0.0
C565 C 0.52584 0.26415 0.16841 0.0
C566 C 0.50569 0.39733 0.31813 0.0
C567 C 0.50473 0.37923 0.29142 0.0
C568 C 0.51806 0.33114 0.3299 0.0
C569 C 0.50736 0.28931 0.21814 0.0
C570 C 0.5063 0.30818 0.24921 0.0
C571 C 0.50492 0.36361 0.33492 0.0
C572 C 0.50505 0.3444 0.30634 0.0
H573 H 0.47961 0.25215 0.17899 0.0
H574 H 0.47757 0.28364 0.22655 0.0
H575 H 0.529 0.30336 0.32018 0.0
H576 H 0.50711 0.38633 0.48726 0.0
H577 H 0.50566 0.35466 0.44047 0.0
C578 C 0.23873 0.52096 0.21402 0.0
C579 C 0.24198 0.51629 0.14551 0.0
C580 C 0.22086 0.5188 0.24276 0.0
C581 C 0.17117 0.51788 0.19881 0.0
H582 H 0.16452 0.49322 0.37346 0.0
C583 C 0.0974 0.50433 0.31026 0.0
C584 C 0.09497 0.50614 0.381 0.0
C585 C 0.11537 0.50457 0.28138 0.0
C586 C 0.16612 0.50038 0.32511 0.0
H587 H 0.22907 0.5066 0.05231 0.0
H588 H 0.19777 0.50277 0.10249 0.0
H589 H 0.19586 0.49582 0.32364 0.0
H590 H 0.10936 0.5097 0.47709 0.0
H591 H 0.14071 0.51072 0.42679 0.0
H592 H 0.14166 0.52303 0.20078 0.0
C593 C 0.20909 0.50783 0.13425 0.0
C594 C 0.18408 0.50178 0.2965 0.0
C595 C 0.22701 0.50978 0.10579 0.0
C596 C 0.11086 0.50808 0.42243 0.0
C597 C 0.12883 0.50858 0.39349 0.0
C598 C 0.15325 0.51671 0.22777 0.0
C599 C 0.20585 0.51228 0.20308 0.0
C600 C 0.18678 0.51053 0.23307 0.0
C601 C 0.13134 0.5069 0.32249 0.0
C602 C 0.15046 0.50793 0.29134 0.0
H603 H 0.25005 0.52615 0.24547 0.0
H604 H 0.21869 0.52254 0.29571 0.0
H605 H 0.17289 0.52491 0.15023 0.0
H606 H 0.08538 0.50257 0.27725 0.0
H607 H 0.11671 0.50281 0.22676 0.0
C608 C 0.01413 0.76132 0.17681 0.0
C609 C 0.99635 0.75458 0.19611 0.0
C610 C 0.016 0.77884 0.14564 0.0
C611 C 0.98891 0.81572 0.05551 0.0
H612 H 0.02933 0.84809 0.11489 0.0
C613 C 0.98995 0.89503 0.00136 0.0
C614 C 0.00705 0.90302 0.98024 0.0
C615 C 0.9892 0.87648 0.02372 0.0
C616 C 0.0181 0.83913 0.09721 0.0
H617 H 0.96654 0.7605 0.19545 0.0
H618 H 0.96975 0.79113 0.14198 0.0
H619 H 0.02696 0.81637 0.16028 0.0
H620 H 0.03679 0.89783 0.96637 0.0
H621 H 0.03549 0.86536 0.00571 0.0
H622 H 0.97981 0.83866 0.99367 0.0
C623 C 0.98228 0.78289 0.15032 0.0
C624 C 0.01676 0.82093 0.12307 0.0
C625 C 0.98042 0.76536 0.18119 0.0
C626 C 0.02339 0.89202 0.98193 0.0
C627 C 0.02267 0.8735 0.00495 0.0
C628 C 0.99018 0.83394 0.03005 0.0
C629 C 0.0001 0.78996 0.13284 0.0
C630 C 0.00206 0.80903 0.10291 0.0
C631 C 0.00555 0.86552 0.026 0.0
C632 C 0.0047 0.8459 0.05099 0.0
H633 H 0.0266 0.75306 0.18594 0.0
H634 H 0.02989 0.78366 0.13154 0.0
H635 H 0.97761 0.80684 0.03788 0.0
H636 H 0.97709 0.90309 3e-05 0.0
H637 H 0.97583 0.87079 0.0402 0.0
C638 C 0.72608 0.99104 0.19332 0.0
C639 C 0.72796 0.99176 0.2645 0.0
C640 C 0.70886 0.9949 0.16264 0.0
C641 C 0.65798 0.9958 0.20021 0.0
H642 H 0.65543 0.02087 0.02501 0.0
C643 C 0.58745 0.01291 0.07114 0.0
C644 C 0.58605 0.00812 0.00179 0.0
C645 C 0.60481 0.01272 0.10394 0.0
C646 C 0.65594 0.01377 0.07379 0.0
H647 H 0.71303 0.99631 0.35943 0.0
H648 H 0.68319 0.00399 0.30608 0.0
H649 H 0.68563 0.01763 0.08198 0.0
H650 H 0.60198 -0.00035 0.91244 0.0
H651 H 0.63231 -0.00042 0.96959 0.0
H652 H 0.62828 0.99195 0.19188 0.0
C653 C 0.69501 0.0004 0.27377 0.0
C654 C 0.67324 0.01187 0.10642 0.0
C655 C 0.71224 0.99641 0.30442 0.0
C656 C 0.60255 0.00365 0.96562 0.0
C657 C 0.61993 0.00358 -0.00162 0.0
C658 C 0.64068 -0.00219 0.16779 0.0
C659 C 0.69307 -0.00045 0.20245 0.0
C660 C 0.67452 0.00266 0.1697 0.0
C661 C 0.62122 0.00788 0.06811 0.0
C662 C 0.63949 0.00664 0.10391 0.0
H663 H 0.73792 0.98732 0.16121 0.0
H664 H 0.70784 0.99374 0.10775 0.0
H665 H 0.65843 0.98835 0.24827 0.0
H666 H 0.57511 0.01681 0.10024 0.0
H667 H 0.6054 0.01639 0.15745 0.0
C668 C 0.51737 0.72305 0.24775 0.0
C669 C 0.50334 0.73658 0.23851 0.0
C670 C 0.51571 0.70539 0.21789 0.0
C671 C 0.49243 0.68058 0.07687 0.0
H672 H 0.5066 0.63622 0.17816 0.0
C673 C 0.48144 0.60551 0.97263 0.0
C674 C 0.49593 0.59255 0.98426 0.0
C675 C 0.4818 0.62314 0.00354 0.0
C676 C 0.50276 0.64848 0.14892 0.0
H677 H 0.47704 0.74259 0.18813 0.0
H678 H 0.4739 0.71161 0.13704 0.0
H679 H 0.50798 0.66675 0.23314 0.0
H680 H 0.52246 0.58826 0.0357 0.0
H681 H 0.52308 0.61894 0.08939 0.0
H682 H 0.48728 0.66231 0.99257 0.0
C683 C 0.48614 0.71459 0.16769 0.0
C684 C 0.50355 0.66598 0.18047 0.0
C685 C 0.48779 0.73224 0.19775 0.0
C686 C 0.51089 0.59776 0.02667 0.0
C687 C 0.51124 0.61535 0.05753 0.0
C688 C 0.49163 0.66306 0.04531 0.0
C689 C 0.50007 0.70094 0.17747 0.0
C690 C 0.49855 0.68226 0.14466 0.0
C691 C 0.49664 0.62822 0.04677 0.0
C692 C 0.49694 0.64682 0.08079 0.0
H693 H 0.52958 0.72608 0.27853 0.0
H694 H 0.52684 0.69531 0.22556 0.0
H695 H 0.48869 0.69286 0.04757 0.0
H696 H 0.4696 0.60188 0.94091 0.0
H697 H 0.47023 0.63264 0.99471 0.0
C698 C 0.76261 0.48887 0.19692 0.0
C699 C 0.75901 0.50463 0.23751 0.0
C700 C 0.78043 0.48595 0.16875 0.0
C701 C 0.83027 0.49948 0.18536 0.0
H702 H 0.83355 0.48455 -0.00434 0.0
C703 C 0.89981 0.50243 0.03326 0.0
C704 C 0.90372 0.48773 0.98784 0.0
C705 C 0.88224 0.50383 0.0649 0.0
C706 C 0.83291 0.48848 0.04892 0.0
H707 H 0.77108 0.52984 0.27987 0.0
H708 H 0.80226 0.52482 0.2304 0.0
H709 H 0.80287 0.48792 0.04977 0.0
H710 H 0.89222 0.46286 0.94057 0.0
H711 H 0.86156 0.4653 -0.00424 0.0
H712 H 0.86031 0.50012 0.18446 0.0
C713 C 0.79139 0.51455 0.2212 0.0
C714 C 0.81531 0.49041 0.07995 0.0
C715 C 0.77353 0.51751 0.24905 0.0
C716 C 0.88959 0.47451 0.97453 0.0
C717 C 0.87201 0.4759 0.00624 0.0
C718 C 0.84788 0.49753 0.15436 0.0
C719 C 0.79502 0.49878 0.1804 0.0
C720 C 0.81378 0.49606 0.14837 0.0
C721 C 0.86813 0.49056 0.05196 0.0
C722 C 0.84942 0.49212 0.08559 0.0
H723 H 0.75154 0.47895 0.18588 0.0
H724 H 0.78278 0.47363 0.13783 0.0
H725 H 0.82956 0.50356 0.23849 0.0
H726 H 0.91026 0.51302 0.04379 0.0
H727 H 0.87963 0.51549 0.0988 0.0
C728 C 0.00452 0.19591 0.92586 0.0
C729 C 0.02075 0.2042 0.95271 0.0
C730 C 0.00559 0.179 0.89094 0.0
C731 C 0.03483 0.13706 0.87888 0.0
H732 H 0.00037 0.12507 0.73282 0.0
C733 C 0.01005 0.07004 0.70301 0.0
C734 C 0.00883 0.05656 0.75511 0.0
C735 C 0.01428 0.08863 0.7185 0.0
C736 C 0.01033 0.12823 0.77274 0.0
H737 H 0.05096 0.20162 0.96191 0.0
H738 H 0.05289 0.17206 0.8999 0.0
H739 H 0.0032 0.15727 0.77161 0.0
H740 H 0.01119 0.05199 0.86416 0.0
H741 H 0.01812 0.08436 0.89117 0.0
H742 H 0.04195 0.10803 0.88002 0.0
C743 C 0.03928 0.17855 0.90687 0.0
C744 C 0.01178 0.14665 0.79552 0.0
C745 C 0.03819 0.19549 0.94219 0.0
C746 C 0.01205 0.062 0.82278 0.0
C747 C 0.01622 0.08056 0.83822 0.0
C748 C 0.03345 0.11867 0.85583 0.0
C749 C 0.02295 0.17001 0.88165 0.0
C750 C 0.02361 0.15116 0.85027 0.0
C751 C 0.01734 0.0941 0.78635 0.0
C752 C 0.02076 0.11396 0.80399 0.0
H753 H 0.99085 0.20224 0.93317 0.0
H754 H 0.99269 0.17265 0.87337 0.0
H755 H 0.04401 0.14002 0.92134 0.0
H756 H 0.00772 0.06629 0.65024 0.0
H757 H 0.01518 0.09871 0.67734 0.0
C758 C 0.29763 0.0314 0.88915 0.0
C759 C 0.28844 0.04058 0.83537 0.0
C760 C 0.31515 0.02302 0.87818 0.0
C761 C 0.34778 0.00626 0.74423 0.0
H762 H 0.3867 0.02172 0.86955 0.0
C763 C 0.42664 0.00083 0.67709 0.0
C764 C 0.43936 0.99696 0.72971 0.0
C765 C 0.40763 0.00382 0.69169 0.0
C766 C 0.376 0.01693 0.83465 0.0
H767 H 0.28999 0.04793 0.72854 0.0
H768 H 0.3204 0.03311 0.70907 0.0
H769 H 0.35418 0.02991 0.8931 0.0
H770 H 0.44197 0.99255 0.83875 0.0
H771 H 0.4089 -0.00271 0.86392 0.0
H772 H 0.36958 0.99334 0.68551 0.0
C773 C 0.31409 0.03221 0.75934 0.0
C774 C 0.35734 0.02165 0.84825 0.0
C775 C 0.29674 0.04075 0.7705 0.0
C776 C 0.4326 0.99573 0.79702 0.0
C777 C 0.41361 -0.00146 0.81153 0.0
C778 C 0.36645 0.00137 0.7309 0.0
C779 C 0.32366 0.02358 0.81331 0.0
C780 C 0.34307 0.01664 0.80264 0.0
C781 C 0.40089 0.00284 0.75922 0.0
C782 C 0.38085 0.00691 0.77539 0.0
H783 H 0.2918 0.03145 0.94018 0.0
H784 H 0.32222 0.01645 0.92071 0.0
H785 H 0.33703 0.00207 0.7085 0.0
H786 H 0.43139 0.00194 0.62476 0.0
H787 H 0.39834 0.00737 0.65014 0.0
C788 C 0.4615 0.3026 0.94598 0.0
C789 C 0.47881 0.29398 0.95942 0.0
C790 C 0.4609 0.31989 0.91263 0.0
C791 C 0.48974 0.35181 0.80614 0.0
H792 H 0.45759 0.3905 0.88074 0.0
C793 C 0.48678 0.43673 0.81555 0.0
C794 C 0.49069 0.44111 0.74707 0.0
C795 C 0.48285 0.41837 0.83498 0.0
C796 C 0.46666 0.37984 0.85937 0.0
H797 H 0.50903 0.29665 0.94832 0.0
H798 H 0.50797 0.32677 0.89144 0.0
H799 H 0.4557 0.35881 0.92634 0.0
H800 H 0.49319 0.42959 0.64515 0.0
H801 H 0.48605 0.39761 0.67889 0.0
H802 H 0.50138 0.37296 0.74158 0.0
C803 C 0.49485 0.32009 0.90534 0.0
C804 C 0.46541 0.36164 0.88492 0.0
C805 C 0.49545 0.30287 0.93848 0.0
C806 C 0.49026 0.42674 0.69828 0.0
C807 C 0.48626 0.40837 0.71768 0.0
C808 C 0.49103 0.36999 0.78076 0.0
C809 C 0.47759 0.32882 0.89214 0.0
C810 C 0.47726 0.34754 0.85964 0.0
C811 C 0.48267 0.40396 0.78635 0.0
C812 C 0.47979 0.38429 0.80812 0.0
H813 H 0.44844 0.29604 0.96137 0.0
H814 H 0.44738 0.32623 0.90273 0.0
H815 H 0.49885 0.34116 0.78488 0.0
H816 H 0.48699 0.44744 0.85453 0.0
H817 H 0.48046 0.4154 0.88848 0.0
C818 C 0.1905 0.46094 0.96238 0.0
C819 C 0.20582 0.46541 0.91992 0.0
C820 C 0.17234 0.46021 0.93597 0.0
C821 C 0.14508 0.48085 0.79784 0.0
H822 H 0.10646 0.44603 0.85626 0.0
C823 C 0.06975 0.48503 0.69453 0.0
C824 C 0.05512 0.48272 0.74209 0.0
C825 C 0.08826 0.48101 0.71234 0.0
C826 C 0.11707 0.45593 0.83988 0.0
H827 H 0.21427 0.47136 0.81568 0.0
H828 H 0.1826 0.46992 0.76961 0.0
H829 H 0.13882 0.44144 0.89343 0.0
H830 H 0.0485 0.47431 0.84586 0.0
H831 H 0.08083 0.46769 0.87732 0.0
H832 H 0.12339 0.49563 0.74577 0.0
C833 C 0.1846 0.46733 0.82351 0.0
C834 C 0.13559 0.45327 0.86101 0.0
C835 C 0.20275 0.46805 0.84987 0.0
C836 C 0.05942 0.47624 0.80789 0.0
C837 C 0.07794 0.47227 0.82578 0.0
C838 C 0.1266 0.48354 0.77692 0.0
C839 C 0.16916 0.46393 0.86662 0.0
C840 C 0.14975 0.46579 0.84058 0.0
C841 C 0.09258 0.47468 0.77827 0.0
C842 C 0.11235 0.47121 0.79813 0.0
H843 H 0.1924 0.45881 0.0166 0.0
H844 H 0.16072 0.45766 0.97056 0.0
H845 H 0.1556 0.49095 0.78232 0.0
H846 H 0.06701 0.49009 0.64361 0.0
H847 H 0.09918 0.48283 0.6743 0.0
C848 C 0.0235 0.80685 0.45776 0.0
C849 C 0.01476 0.8041 0.39457 0.0
C850 C 0.01945 0.82275 0.49649 0.0
C851 C 0.98387 0.86046 0.51289 0.0
H852 H 0.02355 0.88679 0.60739 0.0
C853 C 0.98183 0.93836 0.58304 0.0
C854 C 0.9888 0.94371 0.64692 0.0
C855 C 0.98272 0.91973 0.56246 0.0
C856 C 0.01228 0.87939 0.5822 0.0
H857 H 0.99561 0.81608 0.32085 0.0
H858 H 0.9891 0.84404 0.38689 0.0
H859 H 0.03054 0.85739 0.54985 0.0
H860 H 0.00131 0.93362 0.74078 0.0
H861 H 0.00317 0.90109 0.70397 0.0
H862 H 0.96587 0.88305 0.54255 0.0
C863 C 0.99852 0.83368 0.408 0.0
C864 C 0.01626 0.86255 0.54928 0.0
C865 C 0.00239 0.81774 0.3698 0.0
C866 C 0.99587 0.92995 0.69113 0.0
C867 C 0.99701 0.91135 0.67011 0.0
C868 C 0.97996 0.8774 0.5451 0.0
C869 C 0.00675 0.83625 0.47227 0.0
C870 C 0.00219 0.85312 0.51295 0.0
C871 C 0.9908 0.90618 0.60508 0.0
C872 C 0.99421 0.88715 0.57889 0.0
H873 H 0.03301 0.79646 0.47817 0.0
H874 H 0.02595 0.82426 0.54596 0.0
H875 H 0.97259 0.8533 0.48687 0.0
H876 H 0.97619 0.94864 0.54809 0.0
H877 H 0.97794 0.91608 0.51184 0.0
C878 C 0.69616 0.02238 0.47893 0.0
C879 C 0.70434 0.03193 0.53391 0.0
C880 C 0.67917 0.01277 0.48782 0.0
C881 C 0.64684 0.99368 0.61968 0.0
H882 H 0.6077 0.00591 0.49055 0.0
C883 C 0.56838 0.98912 0.68786 0.0
C884 C 0.5553 0.98472 0.63688 0.0
C885 C 0.58743 0.991 0.67201 0.0
C886 C 0.6185 0.00198 0.52645 0.0
H887 H 0.70139 0.03895 0.64057 0.0
H888 H 0.67191 0.0221 0.65647 0.0
H889 H 0.63984 0.01581 0.46788 0.0
H890 H 0.55222 0.97789 0.52975 0.0
H891 H 0.58551 0.98085 0.5024 0.0
H892 H 0.62547 0.98018 0.67898 0.0
C893 C 0.67865 0.02173 0.60687 0.0
C894 C 0.63696 0.00769 0.51339 0.0
C895 C 0.69547 0.03145 0.59776 0.0
C896 C 0.56187 0.98142 0.57024 0.0
C897 C 0.58096 0.98324 0.55442 0.0
C898 C 0.62841 0.98788 0.63257 0.0
C899 C 0.67014 0.01251 0.55183 0.0
C900 C 0.65123 0.00403 0.56073 0.0
C901 C 0.59394 0.98842 0.60483 0.0
C902 C 0.61391 0.99239 0.58701 0.0
H903 H 0.70238 0.02305 0.42859 0.0
H904 H 0.67291 0.00585 0.4444 0.0
H905 H 0.6576 0.99042 0.65663 0.0
H906 H 0.56388 0.9917 0.7398 0.0
H907 H 0.59692 0.99523 0.71208 0.0
C908 C 0.47203 0.69455 0.49402 0.0
C909 C 0.4693 0.69776 0.42413 0.0
C910 C 0.47695 0.6768 0.51761 0.0
C911 C 0.47793 0.62686 0.46823 0.0
H912 H 0.5153 0.62327 0.6109 0.0
C913 C 0.50946 0.55632 0.54488 0.0
C914 C 0.5092 0.55233 0.61509 0.0
C915 C 0.5063 0.57447 0.52156 0.0
C916 C 0.50479 0.62408 0.5713 0.0
H917 H 0.4694 0.68487 0.32406 0.0
H918 H 0.47825 0.65396 0.36503 0.0
H919 H 0.50538 0.65399 0.57025 0.0
H920 H 0.50679 0.56456 0.71597 0.0
H921 H 0.50124 0.5963 0.67501 0.0
H922 H 0.47744 0.59696 0.46901 0.0
C923 C 0.47625 0.66505 0.40189 0.0
C924 C 0.49903 0.64165 0.54819 0.0
C925 C 0.47119 0.68278 0.37836 0.0
C926 C 0.50691 0.56712 0.66155 0.0
C927 C 0.50381 0.58532 0.63813 0.0
C928 C 0.48377 0.60932 0.49102 0.0
C929 C 0.47939 0.6619 0.47174 0.0
C930 C 0.4855 0.64324 0.49647 0.0
C931 C 0.50291 0.58905 0.56787 0.0
C932 C 0.49724 0.60775 0.54278 0.0
H933 H 0.47061 0.70582 0.53053 0.0
H934 H 0.4789 0.67477 0.57184 0.0
H935 H 0.46726 0.62756 0.42919 0.0
H936 H 0.51132 0.54531 0.5076 0.0
H937 H 0.50604 0.57702 0.46712 0.0
C938 C 0.79874 0.47183 0.49396 0.0
C939 C 0.79542 0.46989 0.42383 0.0
C940 C 0.81675 0.47576 0.51775 0.0
C941 C 0.86689 0.47509 0.46715 0.0
H942 H 0.87214 0.51032 0.61616 0.0
C943 C 0.93895 0.50272 0.54688 0.0
C944 C 0.94301 0.50157 0.61684 0.0
C945 C 0.92062 0.50044 0.52376 0.0
C946 C 0.87086 0.50039 0.5748 0.0
H947 H 0.80835 0.47049 0.32346 0.0
H948 H 0.83972 0.47766 0.3648 0.0
H949 H 0.84091 0.50237 0.57447 0.0
H950 H 0.93075 0.49843 0.71771 0.0
H951 H 0.89867 0.4944 0.6771 0.0
H952 H 0.89684 0.47323 0.46717 0.0
C953 C 0.82851 0.47576 0.40167 0.0
C954 C 0.85299 0.49576 0.55105 0.0
C955 C 0.81052 0.47165 0.37792 0.0
C956 C 0.92814 0.49921 0.66347 0.0
C957 C 0.90975 0.49699 0.64026 0.0
C958 C 0.88473 0.47981 0.49058 0.0
C959 C 0.8318 0.47804 0.47185 0.0
C960 C 0.85079 0.48301 0.49705 0.0
C961 C 0.90591 0.49704 0.57003 0.0
C962 C 0.8869 0.49249 0.54465 0.0
H963 H 0.78738 0.47048 0.53055 0.0
H964 H 0.81886 0.47706 0.57217 0.0
H965 H 0.86571 0.46499 0.4263 0.0
H966 H 0.95001 0.50468 0.50946 0.0
H967 H 0.91801 0.50091 0.46942 0.0
loop_
_geom_bond_atom_site_label_1
_geom_bond_atom_site_label_2
_geom_bond_distance
_geom_bond_site_symmetry_2
_ccdc_geom_bond_type
O0 Cd1 2.300 . S
O0 C7 1.275 . S
Cd1 O0 2.300 . S
Cd1 O9 2.381 . S
Cd1 O10 2.378 . S
O2 Cd3 2.385 . S
O2 C7 1.255 . S
Cd3 O2 2.385 . S
Cd3 O4 2.317 . S
O4 Cd3 2.317 . S
O4 C5 1.232 . S
C5 O4 1.232 . S
C5 O6 1.218 . S
O6 C5 1.218 . S
C7 O0 1.275 . S
C7 O2 1.255 . S
C8 O9 1.258 . S
C8 O10 1.256 . S
O9 Cd1 2.381 . S
O9 C8 1.258 . S
O10 Cd1 2.378 . S
O10 C8 1.256 . S
O11 Cd12 2.300 1_655 S
O11 C18 1.275 1_655 S
Cd12 O11 2.300 1_455 S
Cd12 O20 2.381 1_455 S
Cd12 O21 2.378 . S
O13 Cd14 2.385 . S
O13 C18 1.255 . S
Cd14 O13 2.385 . S
Cd14 O15 2.317 . S
O15 Cd14 2.317 . S
O15 C16 1.232 . S
C16 O15 1.232 . S
C16 O17 1.218 . S
O17 C16 1.218 . S
C18 O11 1.275 1_455 S
C18 O13 1.255 . S
C19 O20 1.258 1_455 S
C19 O21 1.256 . S
O20 Cd12 2.381 1_655 S
O20 C19 1.258 1_655 S
O21 Cd12 2.378 . S
O21 C19 1.256 . S
O22 Cd23 2.300 1_565 S
O22 C29 1.275 1_565 S
Cd23 O22 2.300 1_545 S
Cd23 O31 2.381 1_545 S
Cd23 O32 2.378 . S
O24 Cd25 2.385 . S
O24 C29 1.255 . S
Cd25 O24 2.385 . S
Cd25 O26 2.317 . S
O26 Cd25 2.317 . S
O26 C27 1.232 . S
C27 O26 1.232 . S
C27 O28 1.218 . S
O28 C27 1.218 . S
C29 O22 1.275 1_545 S
C29 O24 1.255 . S
C30 O31 1.258 1_545 S
C30 O32 1.256 . S
O31 Cd23 2.381 1_565 S
O31 C30 1.258 1_565 S
O32 Cd23 2.378 . S
O32 C30 1.256 . S
O33 Cd34 2.300 . S
O33 C40 1.275 . S
Cd34 O33 2.300 . S
Cd34 O42 2.381 . S
Cd34 O43 2.378 . S
O35 Cd36 2.385 . S
O35 C40 1.255 . S
Cd36 O35 2.385 . S
Cd36 O37 2.317 . S
O37 Cd36 2.317 . S
O37 C38 1.232 . S
C38 O37 1.232 . S
C38 O39 1.218 . S
O39 C38 1.218 . S
C40 O33 1.275 . S
C40 O35 1.255 . S
C41 O42 1.258 . S
C41 O43 1.256 . S
O42 Cd34 2.381 . S
O42 C41 1.258 . S
O43 Cd34 2.378 . S
O43 C41 1.256 . S
O44 Cd45 2.300 . S
O44 C51 1.275 . S
Cd45 O44 2.300 . S
Cd45 O53 2.381 . S
Cd45 O54 2.378 . S
O46 Cd47 2.385 . S
O46 C51 1.255 . S
Cd47 O46 2.385 . S
Cd47 O48 2.317 1_554 S
O48 Cd47 2.317 1_556 S
O48 C49 1.232 . S
C49 O48 1.232 . S
C49 O50 1.218 . S
O50 C49 1.218 . S
C51 O44 1.275 . S
C51 O46 1.255 . S
C52 O53 1.258 . S
C52 O54 1.256 . S
O53 Cd45 2.381 . S
O53 C52 1.258 . S
O54 Cd45 2.378 . S
O54 C52 1.256 . S
O55 Cd56 2.300 1_655 S
O55 C62 1.275 1_655 S
Cd56 O55 2.300 1_455 S
Cd56 O64 2.381 1_455 S
Cd56 O65 2.378 . S
O57 Cd58 2.385 . S
O57 C62 1.255 . S
Cd58 O57 2.385 . S
Cd58 O59 2.317 1_554 S
O59 Cd58 2.317 1_556 S
O59 C60 1.232 . S
C60 O59 1.232 . S
C60 O61 1.218 . S
O61 C60 1.218 . S
C62 O55 1.275 1_455 S
C62 O57 1.255 . S
C63 O64 1.258 1_455 S
C63 O65 1.256 . S
O64 Cd56 2.381 1_655 S
O64 C63 1.258 1_655 S
O65 Cd56 2.378 . S
O65 C63 1.256 . S
O66 Cd67 2.300 1_565 S
O66 C73 1.275 1_565 S
Cd67 O66 2.300 1_545 S
Cd67 O75 2.381 1_545 S
Cd67 O76 2.378 . S
O68 Cd69 2.385 . S
O68 C73 1.255 . S
Cd69 O68 2.385 . S
Cd69 O70 2.317 1_554 S
O70 Cd69 2.317 1_556 S
O70 C71 1.232 . S
C71 O70 1.232 . S
C71 O72 1.218 . S
O72 C71 1.218 . S
C73 O66 1.275 1_545 S
C73 O68 1.255 . S
C74 O75 1.258 1_545 S
C74 O76 1.256 . S
O75 Cd67 2.381 1_565 S
O75 C74 1.258 1_565 S
O76 Cd67 2.378 . S
O76 C74 1.256 . S
O77 Cd78 2.300 . S
O77 C84 1.275 . S
Cd78 O77 2.300 . S
Cd78 O86 2.381 . S
Cd78 O87 2.378 . S
O79 Cd80 2.385 . S
O79 C84 1.255 . S
Cd80 O79 2.385 . S
Cd80 O81 2.317 1_554 S
O81 Cd80 2.317 1_556 S
O81 C82 1.232 . S
C82 O81 1.232 . S
C82 O83 1.218 . S
O83 C82 1.218 . S
C84 O77 1.275 . S
C84 O79 1.255 . S
C85 O86 1.258 . S
C85 O87 1.256 . S
O86 Cd78 2.381 . S
O86 C85 1.258 . S
O87 Cd78 2.378 . S
O87 C85 1.256 . S
Tb88 C90 2.809 . S
Tb88 O108 2.479 1_455 S
Tb88 O109 2.440 . S
Tb88 O110 2.658 1_565 S
Tb88 O111 2.409 . S
Tb88 O112 2.378 . S
Tb88 O116 2.325 1_455 S
Tb88 O119 2.341 1_565 S
Tb89 C99 2.809 . S
Tb89 O110 2.325 1_655 S
Tb89 O113 2.341 1_545 S
Tb89 O114 2.473 1_655 S
Tb89 O115 2.440 . S
Tb89 O116 2.658 1_545 S
Tb89 O117 2.409 . S
Tb89 O118 2.378 . S
C90 Tb88 2.809 . S
C90 C91 1.514 . S
C90 O108 1.235 1_455 S
C90 O109 1.266 . S
C91 C90 1.514 . S
C91 C92 1.359 . S
C91 C96 1.348 . S
C92 C91 1.359 . S
C92 C93 1.380 . S
C92 H120 0.929 1_455 S
C93 C92 1.380 . S
C93 C94 1.347 . S
C93 H121 0.931 1_455 S
C94 C93 1.347 . S
C94 C95 1.369 . S
C95 C94 1.369 . S
C95 C96 1.408 . S
C95 H122 0.930 . S
C96 C91 1.348 . S
C96 C95 1.408 . S
C96 H123 0.930 . S
C97 O110 1.264 1_565 S
C97 O111 1.278 . S
C98 O112 1.236 1_655 S
C98 O113 1.266 . S
C99 Tb89 2.809 . S
C99 C100 1.514 . S
C99 O114 1.222 1_655 S
C99 O115 1.266 . S
C100 C99 1.514 . S
C100 C101 1.359 . S
C100 C105 1.348 . S
C101 C100 1.359 . S
C101 C102 1.380 . S
C101 H124 0.929 1_655 S
C102 C101 1.380 . S
C102 C103 1.347 . S
C102 H125 0.931 1_655 S
C103 C102 1.347 . S
C103 C104 1.369 . S
C104 C103 1.369 . S
C104 C105 1.408 . S
C104 H126 0.930 . S
C105 C100 1.348 . S
C105 C104 1.408 . S
C105 H127 0.930 . S
C106 O116 1.260 1_545 S
C106 O117 1.286 . S
C107 O118 1.236 1_455 S
C107 O119 1.266 . S
O108 Tb88 2.479 1_655 S
O108 C90 1.235 1_655 S
O109 Tb88 2.440 . S
O109 C90 1.266 . S
O110 Tb88 2.658 1_545 S
O110 Tb89 2.325 1_455 S
O110 C97 1.264 1_545 S
O111 Tb88 2.409 . S
O111 C97 1.278 . S
O112 Tb88 2.378 . S
O112 C98 1.236 1_455 S
O113 Tb89 2.341 1_565 S
O113 C98 1.266 . S
O114 Tb89 2.473 1_455 S
O114 C99 1.222 1_455 S
O115 Tb89 2.440 . S
O115 C99 1.266 . S
O116 Tb88 2.325 1_655 S
O116 Tb89 2.658 1_565 S
O116 C106 1.260 1_565 S
O117 Tb89 2.409 . S
O117 C106 1.286 . S
O118 Tb89 2.378 . S
O118 C107 1.236 1_655 S
O119 Tb88 2.341 1_545 S
O119 C107 1.266 . S
H120 C92 0.929 1_655 S
H121 C93 0.931 1_655 S
H122 C95 0.930 . S
H123 C96 0.930 . S
H124 C101 0.929 1_455 S
H125 C102 0.931 1_455 S
H126 C104 0.930 . S
H127 C105 0.930 . S
Tb128 C130 2.809 . S
Tb128 O148 2.477 1_545 S
Tb128 O149 2.440 . S
Tb128 O150 2.658 . S
Tb128 O151 2.409 . S
Tb128 O152 2.378 . S
Tb128 O156 2.325 1_545 S
Tb128 O159 2.341 . S
Tb129 C139 2.809 . S
Tb129 O150 2.325 1_565 S
Tb129 O153 2.341 . S
Tb129 O154 2.471 1_565 S
Tb129 O155 2.440 . S
Tb129 O156 2.658 . S
Tb129 O157 2.409 . S
Tb129 O158 2.378 . S
C130 Tb128 2.809 . S
C130 C131 1.514 . S
C130 O148 1.232 1_545 S
C130 O149 1.266 . S
C131 C130 1.514 . S
C131 C132 1.359 . S
C131 C136 1.348 . S
C132 C131 1.359 . S
C132 C133 1.380 . S
C132 H160 0.929 1_545 S
C133 C132 1.380 . S
C133 C134 1.347 . S
C133 H161 0.931 1_545 S
C134 C133 1.347 . S
C134 C135 1.369 . S
C135 C134 1.369 . S
C135 C136 1.408 . S
C135 H162 0.930 . S
C136 C131 1.348 . S
C136 C135 1.408 . S
C136 H163 0.930 . S
C137 O150 1.281 . S
C137 O151 1.254 . S
C138 O152 1.236 1_565 S
C138 O153 1.266 . S
C139 Tb129 2.809 . S
C139 C140 1.514 . S
C139 O154 1.219 1_565 S
C139 O155 1.266 . S
C140 C139 1.514 . S
C140 C141 1.359 . S
C140 C145 1.348 . S
C141 C140 1.359 . S
C141 C142 1.380 . S
C141 H164 0.929 1_565 S
C142 C141 1.380 . S
C142 C143 1.347 . S
C142 H165 0.931 1_565 S
C143 C142 1.347 . S
C143 C144 1.369 . S
C144 C143 1.369 . S
C144 C145 1.408 . S
C144 H166 0.930 . S
C145 C140 1.348 . S
C145 C144 1.408 . S
C145 H167 0.930 . S
C146 O156 1.281 . S
C146 O157 1.254 . S
C147 O158 1.236 1_545 S
C147 O159 1.266 . S
O148 Tb128 2.477 1_565 S
O148 C130 1.232 1_565 S
O149 Tb128 2.440 . S
O149 C130 1.266 . S
O150 Tb128 2.658 . S
O150 Tb129 2.325 1_545 S
O150 C137 1.281 . S
O151 Tb128 2.409 . S
O151 C137 1.254 . S
O152 Tb128 2.378 . S
O152 C138 1.236 1_545 S
O153 Tb129 2.341 . S
O153 C138 1.266 . S
O154 Tb129 2.471 1_545 S
O154 C139 1.219 1_545 S
O155 Tb129 2.440 . S
O155 C139 1.266 . S
O156 Tb128 2.325 1_565 S
O156 Tb129 2.658 . S
O156 C146 1.281 . S
O157 Tb129 2.409 . S
O157 C146 1.254 . S
O158 Tb129 2.378 . S
O158 C147 1.236 1_565 S
O159 Tb128 2.341 . S
O159 C147 1.266 . S
H160 C132 0.929 1_565 S
H161 C133 0.931 1_565 S
H162 C135 0.930 . S
H163 C136 0.930 . S
H164 C141 0.929 1_545 S
H165 C142 0.931 1_545 S
H166 C144 0.930 . S
H167 C145 0.930 . S
Tb168 C170 2.809 . S
Tb168 O188 2.484 . S
Tb168 O189 2.440 . S
Tb168 O190 2.658 . S
Tb168 O191 2.409 . S
Tb168 O192 2.378 . S
Tb168 O196 2.325 . S
Tb168 O199 2.341 . S
Tb169 C179 2.809 . S
Tb169 O190 2.325 . S
Tb169 O193 2.341 . S
Tb169 O194 2.484 . S
Tb169 O195 2.440 . S
Tb169 O196 2.658 . S
Tb169 O197 2.409 . S
Tb169 O198 2.378 . S
C170 Tb168 2.809 . S
C170 C171 1.514 . S
C170 O188 1.248 . S
C170 O189 1.266 . S
C171 C170 1.514 . S
C171 C172 1.359 . S
C171 C176 1.348 . S
C172 C171 1.359 . S
C172 C173 1.380 . S
C172 H200 0.929 . S
C173 C172 1.380 . S
C173 C174 1.347 . S
C173 H201 0.931 . S
C174 C173 1.347 . S
C174 C175 1.369 . S
C175 C174 1.369 . S
C175 C176 1.408 . S
C175 H202 0.930 . S
C176 C171 1.348 . S
C176 C175 1.408 . S
C176 H203 0.930 . S
C177 O190 1.281 . S
C177 O191 1.254 . S
C178 O192 1.236 . S
C178 O193 1.266 . S
C179 Tb169 2.809 . S
C179 C180 1.514 . S
C179 O194 1.248 . S
C179 O195 1.266 . S
C180 C179 1.514 . S
C180 C181 1.359 . S
C180 C185 1.348 . S
C181 C180 1.359 . S
C181 C182 1.380 . S
C181 H204 0.929 . S
C182 C181 1.380 . S
C182 C183 1.347 . S
C182 H205 0.931 . S
C183 C182 1.347 . S
C183 C184 1.369 . S
C184 C183 1.369 . S
C184 C185 1.408 . S
C184 H206 0.930 . S
C185 C180 1.348 . S
C185 C184 1.408 . S
C185 H207 0.930 . S
C186 O196 1.281 . S
C186 O197 1.254 . S
C187 O198 1.236 . S
C187 O199 1.266 . S
O188 Tb168 2.484 . S
O188 C170 1.248 . S
O189 Tb168 2.440 . S
O189 C170 1.266 . S
O190 Tb168 2.658 . S
O190 Tb169 2.325 . S
O190 C177 1.281 . S
O191 Tb168 2.409 . S
O191 C177 1.254 . S
O192 Tb168 2.378 . S
O192 C178 1.236 . S
O193 Tb169 2.341 . S
O193 C178 1.266 . S
O194 Tb169 2.484 . S
O194 C179 1.248 . S
O195 Tb169 2.440 . S
O195 C179 1.266 . S
O196 Tb168 2.325 . S
O196 Tb169 2.658 . S
O196 C186 1.281 . S
O197 Tb169 2.409 . S
O197 C186 1.254 . S
O198 Tb169 2.378 . S
O198 C187 1.236 . S
O199 Tb168 2.341 . S
O199 C187 1.266 . S
H200 C172 0.929 . S
H201 C173 0.931 . S
H202 C175 0.930 . S
H203 C176 0.930 . S
H204 C181 0.929 . S
H205 C182 0.931 . S
H206 C184 0.930 . S
H207 C185 0.930 . S
Tb208 C210 2.809 . S
Tb208 O228 2.484 . S
Tb208 O229 2.440 . S
Tb208 O230 2.658 1_655 S
Tb208 O231 2.409 . S
Tb208 O232 2.378 . S
Tb208 O236 2.325 . S
Tb208 O239 2.341 1_655 S
Tb209 C219 2.809 . S
Tb209 O230 2.325 . S
Tb209 O233 2.341 1_455 S
Tb209 O234 2.484 . S
Tb209 O235 2.440 . S
Tb209 O236 2.658 1_455 S
Tb209 O237 2.409 . S
Tb209 O238 2.378 . S
C210 Tb208 2.809 . S
C210 C211 1.514 . S
C210 O228 1.248 . S
C210 O229 1.266 . S
C211 C210 1.514 . S
C211 C212 1.359 . S
C211 C216 1.348 . S
C212 C211 1.359 . S
C212 C213 1.380 . S
C212 H240 0.929 . S
C213 C212 1.380 . S
C213 C214 1.347 . S
C213 H241 0.931 . S
C214 C213 1.347 . S
C214 C215 1.369 . S
C215 C214 1.369 . S
C215 C216 1.408 . S
C215 H242 0.930 . S
C216 C211 1.348 . S
C216 C215 1.408 . S
C216 H243 0.930 . S
C217 O230 1.267 1_655 S
C217 O231 1.274 . S
C218 O232 1.236 . S
C218 O233 1.266 . S
C219 Tb209 2.809 . S
C219 C220 1.514 . S
C219 O234 1.248 . S
C219 O235 1.266 . S
C220 C219 1.514 . S
C220 C221 1.359 . S
C220 C225 1.348 . S
C221 C220 1.359 . S
C221 C222 1.380 . S
C221 H244 0.929 . S
C222 C221 1.380 . S
C222 C223 1.347 . S
C222 H245 0.931 . S
C223 C222 1.347 . S
C223 C224 1.369 . S
C224 C223 1.369 . S
C224 C225 1.408 . S
C224 H246 0.930 . S
C225 C220 1.348 . S
C225 C224 1.408 . S
C225 H247 0.930 . S
C226 O236 1.263 1_455 S
C226 O237 1.281 . S
C227 O238 1.236 . S
C227 O239 1.266 . S
O228 Tb208 2.484 . S
O228 C210 1.248 . S
O229 Tb208 2.440 . S
O229 C210 1.266 . S
O230 Tb208 2.658 1_455 S
O230 Tb209 2.325 . S
O230 C217 1.267 1_455 S
O231 Tb208 2.409 . S
O231 C217 1.274 . S
O232 Tb208 2.378 . S
O232 C218 1.236 . S
O233 Tb209 2.341 1_655 S
O233 C218 1.266 . S
O234 Tb209 2.484 . S
O234 C219 1.248 . S
O235 Tb209 2.440 . S
O235 C219 1.266 . S
O236 Tb208 2.325 . S
O236 Tb209 2.658 1_655 S
O236 C226 1.263 1_655 S
O237 Tb209 2.409 . S
O237 C226 1.281 . S
O238 Tb209 2.378 . S
O238 C227 1.236 . S
O239 Tb208 2.341 1_455 S
O239 C227 1.266 . S
H240 C212 0.929 . S
H241 C213 0.931 . S
H242 C215 0.930 . S
H243 C216 0.930 . S
H244 C221 0.929 . S
H245 C222 0.931 . S
H246 C224 0.930 . S
H247 C225 0.930 . S
C248 C249 1.351 . S
C248 C250 1.327 . S
C248 H273 0.950 . S
C249 C248 1.351 . S
C249 C265 1.347 1_545 S
C250 C248 1.327 . S
C250 C269 1.437 . S
C250 H274 0.950 . S
C251 C268 1.574 . S
C251 C270 1.356 1_565 S
C251 H275 0.949 . S
H252 C256 0.949 . S
C253 C254 1.321 1_565 S
C253 C255 1.327 . S
C253 H276 0.950 . S
C254 C253 1.321 1_545 S
C254 C266 1.377 . S
C255 C253 1.327 . S
C255 C271 1.408 1_565 S
C255 H277 0.950 . S
C256 H252 0.949 . S
C256 C264 1.574 . S
C256 C272 1.387 . S
H257 C265 0.950 . S
H258 C263 0.950 . S
H259 C264 0.949 . S
H260 C266 0.950 . S
H261 C267 0.950 . S
H262 C268 0.949 . S
C263 H258 0.950 . S
C263 C265 1.327 . S
C263 C269 1.420 1_565 S
C264 C256 1.574 . S
C264 H259 0.949 . S
C264 C270 1.381 . S
C265 C249 1.347 1_565 S
C265 H257 0.950 . S
C265 C263 1.327 . S
C266 C254 1.377 . S
C266 H260 0.950 . S
C266 C267 1.327 . S
C267 H261 0.950 . S
C267 C266 1.327 . S
C267 C271 1.449 . S
C268 C251 1.574 . S
C268 H262 0.949 . S
C268 C272 1.349 1_565 S
C269 C250 1.437 . S
C269 C263 1.420 1_545 S
C269 C270 1.523 . S
C270 C251 1.356 1_545 S
C270 C264 1.381 . S
C270 C269 1.523 . S
C271 C255 1.408 1_545 S
C271 C267 1.449 . S
C271 C272 1.523 . S
C272 C256 1.387 . S
C272 C268 1.349 1_545 S
C272 C271 1.523 . S
H273 C248 0.950 . S
H274 C250 0.950 . S
H275 C251 0.949 . S
H276 C253 0.950 . S
H277 C255 0.950 . S
C278 C279 1.349 . S
C278 C280 1.327 . S
C278 H303 0.950 . S
C279 C278 1.349 . S
C279 C295 1.349 . S
C280 C278 1.327 . S
C280 C299 1.429 . S
C280 H304 0.950 . S
C281 C298 1.574 . S
C281 C300 1.368 . S
C281 H305 0.949 . S
H282 C286 0.949 . S
C283 C284 1.349 . S
C283 C285 1.327 . S
C283 H306 0.950 . S
C284 C283 1.349 . S
C284 C296 1.349 . S
C285 C283 1.327 . S
C285 C301 1.429 . S
C285 H307 0.950 . S
C286 H282 0.949 . S
C286 C294 1.574 . S
C286 C302 1.368 . S
H287 C295 0.950 . S
H288 C293 0.950 . S
H289 C294 0.949 . S
H290 C296 0.950 . S
H291 C297 0.950 . S
H292 C298 0.949 . S
C293 H288 0.950 . S
C293 C295 1.327 . S
C293 C299 1.429 . S
C294 C286 1.574 . S
C294 H289 0.949 . S
C294 C300 1.368 . S
C295 C279 1.349 . S
C295 H287 0.950 . S
C295 C293 1.327 . S
C296 C284 1.349 . S
C296 H290 0.950 . S
C296 C297 1.327 . S
C297 H291 0.950 . S
C297 C296 1.327 . S
C297 C301 1.429 . S
C298 C281 1.574 . S
C298 H292 0.949 . S
C298 C302 1.368 . S
C299 C280 1.429 . S
C299 C293 1.429 . S
C299 C300 1.523 . S
C300 C281 1.368 . S
C300 C294 1.368 . S
C300 C299 1.523 . S
C301 C285 1.429 . S
C301 C297 1.429 . S
C301 C302 1.523 . S
C302 C286 1.368 . S
C302 C298 1.368 . S
C302 C301 1.523 . S
H303 C278 0.950 . S
H304 C280 0.950 . S
H305 C281 0.949 . S
H306 C283 0.950 . S
H307 C285 0.950 . S
C308 C309 1.349 . S
C308 C310 1.327 . S
C308 H333 0.950 . S
C309 C308 1.349 . S
C309 C325 1.349 . S
C310 C308 1.327 . S
C310 C329 1.429 . S
C310 H334 0.950 . S
C311 C328 1.574 . S
C311 C330 1.368 . S
C311 H335 0.949 . S
H312 C316 0.949 . S
C313 C314 1.349 . S
C313 C315 1.327 . S
C313 H336 0.950 . S
C314 C313 1.349 . S
C314 C326 1.349 . S
C315 C313 1.327 . S
C315 C331 1.429 . S
C315 H337 0.950 . S
C316 H312 0.949 . S
C316 C324 1.574 . S
C316 C332 1.368 . S
H317 C325 0.950 . S
H318 C323 0.950 . S
H319 C324 0.949 . S
H320 C326 0.950 . S
H321 C327 0.950 . S
H322 C328 0.949 . S
C323 H318 0.950 . S
C323 C325 1.327 . S
C323 C329 1.429 . S
C324 C316 1.574 . S
C324 H319 0.949 . S
C324 C330 1.368 . S
C325 C309 1.349 . S
C325 H317 0.950 . S
C325 C323 1.327 . S
C326 C314 1.349 . S
C326 H320 0.950 . S
C326 C327 1.327 . S
C327 H321 0.950 . S
C327 C326 1.327 . S
C327 C331 1.429 . S
C328 C311 1.574 . S
C328 H322 0.949 . S
C328 C332 1.368 . S
C329 C310 1.429 . S
C329 C323 1.429 . S
C329 C330 1.523 . S
C330 C311 1.368 . S
C330 C324 1.368 . S
C330 C329 1.523 . S
C331 C315 1.429 . S
C331 C327 1.429 . S
C331 C332 1.523 . S
C332 C316 1.368 . S
C332 C328 1.368 . S
C332 C331 1.523 . S
H333 C308 0.950 . S
H334 C310 0.950 . S
H335 C311 0.949 . S
H336 C313 0.950 . S
H337 C315 0.950 . S
C338 C339 1.351 . S
C338 C340 1.327 . S
C338 H363 0.950 . S
C339 C338 1.351 . S
C339 C355 1.347 1_455 S
C340 C338 1.327 . S
C340 C359 1.435 . S
C340 H364 0.950 . S
C341 C358 1.574 . S
C341 C360 1.358 1_655 S
C341 H365 0.949 . S
H342 C346 0.949 . S
C343 C344 1.327 1_655 S
C343 C345 1.327 . S
C343 H366 0.950 . S
C344 C343 1.327 1_455 S
C344 C356 1.372 . S
C345 C343 1.327 . S
C345 C361 1.412 1_655 S
C345 H367 0.950 . S
C346 H342 0.949 . S
C346 C354 1.574 . S
C346 C362 1.384 . S
H347 C355 0.950 . S
H348 C353 0.950 . S
H349 C354 0.949 . S
H350 C356 0.950 . S
H351 C357 0.950 . S
H352 C358 0.949 . S
C353 H348 0.950 . S
C353 C355 1.327 . S
C353 C359 1.422 1_655 S
C354 C346 1.574 . S
C354 H349 0.949 . S
C354 C360 1.379 . S
C355 C339 1.347 1_655 S
C355 H347 0.950 . S
C355 C353 1.327 . S
C356 C344 1.372 . S
C356 H350 0.950 . S
C356 C357 1.327 . S
C357 H351 0.950 . S
C357 C356 1.327 . S
C357 C361 1.446 . S
C358 C341 1.574 . S
C358 H352 0.949 . S
C358 C362 1.353 1_655 S
C359 C340 1.435 . S
C359 C353 1.422 1_455 S
C359 C360 1.523 . S
C360 C341 1.358 1_455 S
C360 C354 1.379 . S
C360 C359 1.523 . S
C361 C345 1.412 1_455 S
C361 C357 1.446 . S
C361 C362 1.523 . S
C362 C346 1.384 . S
C362 C358 1.353 1_455 S
C362 C361 1.523 . S
H363 C338 0.950 . S
H364 C340 0.950 . S
H365 C341 0.949 . S
H366 C343 0.950 . S
H367 C345 0.950 . S
C368 C369 1.352 1_565 S
C368 C370 1.327 . S
C368 H393 0.950 . S
C369 C368 1.352 1_545 S
C369 C385 1.346 . S
C370 C368 1.327 . S
C370 C389 1.427 . S
C370 H394 0.950 . S
C371 C388 1.574 . S
C371 C390 1.366 1_545 S
C371 H395 0.949 . S
H372 C376 0.949 . S
C373 C374 1.332 1_545 S
C373 C375 1.327 . S
C373 H396 0.950 . S
C374 C373 1.332 1_565 S
C374 C386 1.366 . S
C375 C373 1.327 . S
C375 C391 1.418 1_545 S
C375 H397 0.950 . S
C376 H372 0.949 . S
C376 C384 1.574 1_556 S
C376 C392 1.376 . S
H377 C385 0.950 . S
H378 C383 0.950 . S
H379 C384 0.949 . S
H380 C386 0.950 . S
H381 C387 0.950 . S
H382 C388 0.949 . S
C383 H378 0.950 . S
C383 C385 1.327 . S
C383 C389 1.430 1_545 S
C384 C376 1.574 1_554 S
C384 H379 0.949 . S
C384 C390 1.370 . S
C385 C369 1.346 . S
C385 H377 0.950 . S
C385 C383 1.327 . S
C386 C374 1.366 . S
C386 H380 0.950 . S
C386 C387 1.327 . S
C387 H381 0.950 . S
C387 C386 1.327 . S
C387 C391 1.439 . S
C388 C371 1.574 . S
C388 H382 0.949 . S
C388 C392 1.360 1_544 S
C389 C370 1.427 . S
C389 C383 1.430 1_565 S
C389 C390 1.523 . S
C390 C371 1.366 1_565 S
C390 C384 1.370 . S
C390 C389 1.523 . S
C391 C375 1.418 1_565 S
C391 C387 1.439 . S
C391 C392 1.523 . S
C392 C376 1.376 . S
C392 C388 1.360 1_566 S
C392 C391 1.523 . S
H393 C368 0.950 . S
H394 C370 0.950 . S
H395 C371 0.949 . S
H396 C373 0.950 . S
H397 C375 0.950 . S
C398 C399 1.349 . S
C398 C400 1.327 . S
C398 H423 0.950 . S
C399 C398 1.349 . S
C399 C415 1.349 . S
C400 C398 1.327 . S
C400 C419 1.429 . S
C400 H424 0.950 . S
C401 C418 1.574 1_554 S
C401 C420 1.368 . S
C401 H425 0.950 . S
H402 C406 0.949 . S
C403 C404 1.349 . S
C403 C405 1.327 . S
C403 H426 0.950 . S
C404 C403 1.349 . S
C404 C416 1.349 . S
C405 C403 1.327 . S
C405 C421 1.429 . S
C405 H427 0.950 . S
C406 H402 0.949 . S
C406 C414 1.574 . S
C406 C422 1.368 1_554 S
H407 C415 0.950 . S
H408 C413 0.950 . S
H409 C414 0.949 . S
H410 C416 0.950 . S
H411 C417 0.950 . S
H412 C418 0.949 . S
C413 H408 0.950 . S
C413 C415 1.327 . S
C413 C419 1.429 . S
C414 C406 1.574 . S
C414 H409 0.949 . S
C414 C420 1.368 . S
C415 C399 1.349 . S
C415 H407 0.950 . S
C415 C413 1.327 . S
C416 C404 1.349 . S
C416 H410 0.950 . S
C416 C417 1.327 . S
C417 H411 0.950 . S
C417 C416 1.327 . S
C417 C421 1.429 . S
C418 C401 1.574 1_556 S
C418 H412 0.949 . S
C418 C422 1.368 . S
C419 C400 1.429 . S
C419 C413 1.429 . S
C419 C420 1.523 . S
C420 C401 1.368 . S
C420 C414 1.368 . S
C420 C419 1.523 . S
C421 C405 1.429 . S
C421 C417 1.429 . S
C421 C422 1.523 . S
C422 C406 1.368 1_556 S
C422 C418 1.368 . S
C422 C421 1.523 . S
H423 C398 0.950 . S
H424 C400 0.950 . S
H425 C401 0.950 . S
H426 C403 0.950 . S
H427 C405 0.950 . S
C428 C429 1.349 . S
C428 C430 1.327 . S
C428 H453 0.950 . S
C429 C428 1.349 . S
C429 C445 1.349 . S
C430 C428 1.327 . S
C430 C449 1.429 . S
C430 H454 0.950 . S
C431 C448 1.574 . S
C431 C450 1.368 . S
C431 H455 0.949 . S
H432 C436 0.949 . S
C433 C434 1.349 . S
C433 C435 1.327 . S
C433 H456 0.950 . S
C434 C433 1.349 . S
C434 C446 1.349 . S
C435 C433 1.327 . S
C435 C451 1.429 . S
C435 H457 0.950 . S
C436 H432 0.949 . S
C436 C444 1.574 1_556 S
C436 C452 1.368 . S
H437 C445 0.950 . S
H438 C443 0.950 . S
H439 C444 0.949 . S
H440 C446 0.950 . S
H441 C447 0.950 . S
H442 C448 0.949 . S
C443 H438 0.950 . S
C443 C445 1.327 . S
C443 C449 1.429 . S
C444 C436 1.574 1_554 S
C444 H439 0.949 . S
C444 C450 1.368 . S
C445 C429 1.349 . S
C445 H437 0.950 . S
C445 C443 1.327 . S
C446 C434 1.349 . S
C446 H440 0.950 . S
C446 C447 1.327 . S
C447 H441 0.950 . S
C447 C446 1.327 . S
C447 C451 1.429 . S
C448 C431 1.574 . S
C448 H442 0.949 . S
C448 C452 1.368 1_554 S
C449 C430 1.429 . S
C449 C443 1.429 . S
C449 C450 1.523 . S
C450 C431 1.368 . S
C450 C444 1.368 . S
C450 C449 1.523 . S
C451 C435 1.429 . S
C451 C447 1.429 . S
C451 C452 1.523 . S
C452 C436 1.368 . S
C452 C448 1.368 1_556 S
C452 C451 1.523 . S
H453 C428 0.950 . S
H454 C430 0.950 . S
H455 C431 0.949 . S
H456 C433 0.950 . S
H457 C435 0.950 . S
C458 C459 1.350 . S
C458 C460 1.327 . S
C458 H483 0.950 . S
C459 C458 1.350 . S
C459 C475 1.347 1_655 S
C460 C458 1.327 . S
C460 C479 1.434 . S
C460 H484 0.950 . S
C461 C478 1.574 . S
C461 C480 1.360 1_456 S
C461 H485 0.949 . S
H462 C466 0.949 . S
C463 C464 1.331 1_455 S
C463 C465 1.327 . S
C463 H486 0.950 . S
C464 C463 1.331 1_655 S
C464 C476 1.368 . S
C465 C463 1.327 . S
C465 C481 1.415 1_455 S
C465 H487 0.950 . S
C466 H462 0.949 . S
C466 C474 1.574 . S
C466 C482 1.381 1_554 S
H467 C475 0.950 . S
H468 C473 0.950 . S
H469 C474 0.949 . S
H470 C476 0.950 . S
H471 C477 0.950 . S
H472 C478 0.949 . S
C473 H468 0.950 . S
C473 C475 1.327 . S
C473 C479 1.423 1_455 S
C474 C466 1.574 . S
C474 H469 0.949 . S
C474 C480 1.377 . S
C475 C459 1.347 1_455 S
C475 H467 0.950 . S
C475 C473 1.327 . S
C476 C464 1.368 . S
C476 H470 0.950 . S
C476 C477 1.327 . S
C477 H471 0.950 . S
C477 C476 1.327 . S
C477 C481 1.443 . S
C478 C461 1.574 . S
C478 H472 0.949 . S
C478 C482 1.356 1_455 S
C479 C460 1.434 . S
C479 C473 1.423 1_655 S
C479 C480 1.523 . S
C480 C461 1.360 1_654 S
C480 C474 1.377 . S
C480 C479 1.523 . S
C481 C465 1.415 1_655 S
C481 C477 1.443 . S
C481 C482 1.523 . S
C482 C466 1.381 1_556 S
C482 C478 1.356 1_655 S
C482 C481 1.523 . S
H483 C458 0.950 . S
H484 C460 0.950 . S
H485 C461 0.949 . S
H486 C463 0.950 . S
H487 C465 0.950 . S
C488 C489 1.370 . S
C488 C490 1.327 . S
C488 H513 0.950 . S
C489 C488 1.370 . S
C489 C505 1.322 1_455 S
C490 C488 1.327 . S
C490 C509 1.429 1_455 S
C490 H514 0.950 . S
C491 C508 1.574 . S
C491 C510 1.368 . S
C491 H515 0.949 . S
H492 C496 0.949 1_455 S
C493 C494 1.349 . S
C493 C495 1.327 . S
C493 H516 0.950 . S
C494 C493 1.349 . S
C494 C506 1.349 . S
C495 C493 1.327 . S
C495 C511 1.429 . S
C495 H517 0.950 . S
C496 H492 0.949 1_655 S
C496 C504 1.574 1_655 S
C496 C512 1.368 . S
H497 C505 0.950 . S
H498 C503 0.950 . S
H499 C504 0.949 . S
H500 C506 0.950 . S
H501 C507 0.947 1_455 S
H502 C508 0.949 . S
C503 H498 0.950 . S
C503 C505 1.327 . S
C503 C509 1.429 . S
C504 C496 1.574 1_455 S
C504 H499 0.949 . S
C504 C510 1.368 1_455 S
C505 C489 1.322 1_655 S
C505 H497 0.950 . S
C505 C503 1.327 . S
C506 C494 1.349 . S
C506 H500 0.950 . S
C506 C507 1.327 . S
C507 H501 0.947 1_655 S
C507 C506 1.327 . S
C507 C511 1.429 . S
C508 C491 1.574 . S
C508 H502 0.949 . S
C508 C512 1.368 . S
C509 C490 1.429 1_655 S
C509 C503 1.429 . S
C509 C510 1.523 . S
C510 C491 1.368 . S
C510 C504 1.368 1_655 S
C510 C509 1.523 . S
C511 C495 1.429 . S
C511 C507 1.429 . S
C511 C512 1.523 . S
C512 C496 1.368 . S
C512 C508 1.368 . S
C512 C511 1.523 . S
H513 C488 0.950 . S
H514 C490 0.950 . S
H515 C491 0.949 . S
H516 C493 0.950 . S
H517 C495 0.950 . S
C518 C519 1.318 1_565 S
C518 C520 1.327 . S
C518 H543 0.950 . S
C519 C518 1.318 1_545 S
C519 C535 1.374 . S
C520 C518 1.327 . S
C520 C539 1.429 . S
C520 H544 0.950 . S
C521 C538 1.582 . S
C521 C540 1.368 1_545 S
C521 H545 0.949 . S
H522 C526 0.949 . S
C523 C524 1.349 . S
C523 C525 1.327 . S
C523 H546 0.986 . S
C524 C523 1.349 . S
C524 C536 1.349 . S
C525 C523 1.327 . S
C525 C541 1.429 . S
C525 H547 0.950 1_565 S
C526 H522 0.949 . S
C526 C534 1.574 . S
C526 C542 1.368 . S
H527 C535 0.950 . S
H528 C533 0.950 . S
H529 C534 0.949 . S
H530 C536 0.950 . S
H531 C537 0.950 . S
H532 C538 0.979 . S
C533 H528 0.950 . S
C533 C535 1.327 . S
C533 C539 1.429 1_545 S
C534 C526 1.574 . S
C534 H529 0.949 . S
C534 C540 1.368 . S
C535 C519 1.374 . S
C535 H527 0.950 . S
C535 C533 1.327 . S
C536 C524 1.349 . S
C536 H530 0.950 . S
C536 C537 1.327 . S
C537 H531 0.950 . S
C537 C536 1.327 . S
C537 C541 1.429 . S
C538 C521 1.582 . S
C538 H532 0.979 . S
C538 C542 1.330 1_545 S
C539 C520 1.429 . S
C539 C533 1.429 1_565 S
C539 C540 1.523 . S
C540 C521 1.368 1_565 S
C540 C534 1.368 . S
C540 C539 1.523 . S
C541 C525 1.429 . S
C541 C537 1.429 . S
C541 C542 1.523 . S
C542 C526 1.368 . S
C542 C538 1.330 1_565 S
C542 C541 1.523 . S
H543 C518 0.950 . S
H544 C520 0.950 . S
H545 C521 0.949 . S
H546 C523 0.986 . S
H547 C525 0.950 1_545 S
C548 C549 1.349 . S
C548 C550 1.327 . S
C548 H573 0.950 . S
C549 C548 1.349 . S
C549 C565 1.349 . S
C550 C548 1.327 . S
C550 C569 1.429 . S
C550 H574 0.950 . S
C551 C568 1.574 . S
C551 C570 1.368 . S
C551 H575 0.949 . S
H552 C556 0.949 . S
C553 C554 1.349 . S
C553 C555 1.327 . S
C553 H576 0.950 . S
C554 C553 1.349 . S
C554 C566 1.349 . S
C555 C553 1.327 . S
C555 C571 1.429 . S
C555 H577 0.950 . S
C556 H552 0.949 . S
C556 C564 1.574 . S
C556 C572 1.368 . S
H557 C565 0.950 . S
H558 C563 0.950 . S
H559 C564 0.949 . S
H560 C566 0.950 . S
H561 C567 0.950 . S
H562 C568 0.949 . S
C563 H558 0.950 . S
C563 C565 1.327 . S
C563 C569 1.429 . S
C564 C556 1.574 . S
C564 H559 0.949 . S
C564 C570 1.368 . S
C565 C549 1.349 . S
C565 H557 0.950 . S
C565 C563 1.327 . S
C566 C554 1.349 . S
C566 H560 0.950 . S
C566 C567 1.327 . S
C567 H561 0.950 . S
C567 C566 1.327 . S
C567 C571 1.429 . S
C568 C551 1.574 . S
C568 H562 0.949 . S
C568 C572 1.368 . S
C569 C550 1.429 . S
C569 C563 1.429 . S
C569 C570 1.523 . S
C570 C551 1.368 . S
C570 C564 1.368 . S
C570 C569 1.523 . S
C571 C555 1.429 . S
C571 C567 1.429 . S
C571 C572 1.523 . S
C572 C556 1.368 . S
C572 C568 1.368 . S
C572 C571 1.523 . S
H573 C548 0.950 . S
H574 C550 0.950 . S
H575 C551 0.949 . S
H576 C553 0.950 . S
H577 C555 0.950 . S
C578 C579 1.349 . S
C578 C580 1.327 . S
C578 H603 0.950 . S
C579 C578 1.349 . S
C579 C595 1.349 . S
C580 C578 1.327 . S
C580 C599 1.429 . S
C580 H604 0.950 . S
C581 C598 1.574 . S
C581 C600 1.368 . S
C581 H605 0.949 . S
H582 C586 0.949 . S
C583 C584 1.349 . S
C583 C585 1.327 . S
C583 H606 0.950 . S
C584 C583 1.349 . S
C584 C596 1.349 . S
C585 C583 1.327 . S
C585 C601 1.429 . S
C585 H607 0.950 . S
C586 H582 0.949 . S
C586 C594 1.574 . S
C586 C602 1.368 . S
H587 C595 0.950 . S
H588 C593 0.950 . S
H589 C594 0.949 . S
H590 C596 0.950 . S
H591 C597 0.950 . S
H592 C598 0.949 . S
C593 H588 0.950 . S
C593 C595 1.327 . S
C593 C599 1.429 . S
C594 C586 1.574 . S
C594 H589 0.949 . S
C594 C600 1.368 . S
C595 C579 1.349 . S
C595 H587 0.950 . S
C595 C593 1.327 . S
C596 C584 1.349 . S
C596 H590 0.950 . S
C596 C597 1.327 . S
C597 H591 0.950 . S
C597 C596 1.327 . S
C597 C601 1.429 . S
C598 C581 1.574 . S
C598 H592 0.949 . S
C598 C602 1.368 . S
C599 C580 1.429 . S
C599 C593 1.429 . S
C599 C600 1.523 . S
C600 C581 1.368 . S
C600 C594 1.368 . S
C600 C599 1.523 . S
C601 C585 1.429 . S
C601 C597 1.429 . S
C601 C602 1.523 . S
C602 C586 1.368 . S
C602 C598 1.368 . S
C602 C601 1.523 . S
H603 C578 0.950 . S
H604 C580 0.950 . S
H605 C581 0.949 . S
H606 C583 0.950 . S
H607 C585 0.950 . S
C608 C609 1.333 1_455 S
C608 C610 1.327 . S
C608 H633 0.950 . S
C609 C608 1.333 1_655 S
C609 C625 1.360 . S
C610 C608 1.327 . S
C610 C629 1.429 . S
C610 H634 0.950 . S
C611 C628 1.574 . S
C611 C630 1.368 . S
C611 H635 0.949 1_455 S
H612 C616 0.949 . S
C613 C614 1.349 . S
C613 C615 1.327 . S
C613 H636 0.950 . S
C614 C613 1.349 . S
C614 C626 1.349 . S
C615 C613 1.327 . S
C615 C631 1.429 1_556 S
C615 H637 0.950 . S
C616 H612 0.949 . S
C616 C624 1.574 . S
C616 C632 1.368 . S
H617 C625 0.950 . S
H618 C623 0.950 . S
H619 C624 0.949 . S
H620 C626 0.950 1_554 S
H621 C627 0.950 . S
H622 C628 0.949 1_556 S
C623 H618 0.950 . S
C623 C625 1.327 . S
C623 C629 1.429 1_655 S
C624 C616 1.574 . S
C624 H619 0.949 . S
C624 C630 1.368 . S
C625 C609 1.360 . S
C625 H617 0.950 . S
C625 C623 1.327 . S
C626 C614 1.349 . S
C626 H620 0.950 1_556 S
C626 C627 1.327 1_556 S
C627 H621 0.950 . S
C627 C626 1.327 1_554 S
C627 C631 1.429 . S
C628 C611 1.574 . S
C628 H622 0.949 1_554 S
C628 C632 1.368 . S
C629 C610 1.429 . S
C629 C623 1.429 1_455 S
C629 C630 1.523 . S
C630 C611 1.368 . S
C630 C624 1.368 . S
C630 C629 1.523 . S
C631 C615 1.429 1_554 S
C631 C627 1.429 . S
C631 C632 1.523 . S
C632 C616 1.368 . S
C632 C628 1.368 . S
C632 C631 1.523 . S
H633 C608 0.950 . S
H634 C610 0.950 . S
H635 C611 0.949 1_655 S
H636 C613 0.950 . S
H637 C615 0.950 . S
C638 C639 1.325 1_545 S
C638 C640 1.327 . S
C638 H663 0.950 . S
C639 C638 1.325 1_565 S
C639 C655 1.368 . S
C640 C638 1.327 . S
C640 C659 1.429 . S
C640 H664 0.950 . S
C641 C658 1.580 . S
C641 C660 1.368 1_565 S
C641 H665 0.949 . S
H642 C646 0.949 1_556 S
C643 C644 1.349 . S
C643 C645 1.327 1_556 S
C643 H666 0.950 . S
C644 C643 1.349 . S
C644 C656 1.349 . S
C645 C643 1.327 1_554 S
C645 C661 1.429 . S
C645 H667 0.950 1_545 S
C646 H642 0.949 1_554 S
C646 C654 1.574 . S
C646 C662 1.368 . S
H647 C655 0.950 . S
H648 C653 0.950 . S
H649 C654 0.949 . S
H650 C656 0.950 . S
H651 C657 0.950 . S
H652 C658 0.971 . S
C653 H648 0.950 . S
C653 C655 1.327 . S
C653 C659 1.429 1_565 S
C654 C646 1.574 . S
C654 H649 0.949 . S
C654 C660 1.368 . S
C655 C639 1.368 . S
C655 H647 0.950 . S
C655 C653 1.327 . S
C656 C644 1.349 . S
C656 H650 0.950 . S
C656 C657 1.327 . S
C657 H651 0.950 . S
C657 C656 1.327 . S
C657 C661 1.429 1_556 S
C658 C641 1.580 . S
C658 H652 0.971 . S
C658 C662 1.339 1_565 S
C659 C640 1.429 . S
C659 C653 1.429 1_545 S
C659 C660 1.523 . S
C660 C641 1.368 1_545 S
C660 C654 1.368 . S
C660 C659 1.523 . S
C661 C645 1.429 . S
C661 C657 1.429 1_554 S
C661 C662 1.523 . S
C662 C646 1.368 . S
C662 C658 1.339 1_545 S
C662 C661 1.523 . S
H663 C638 0.950 . S
H664 C640 0.950 . S
H665 C641 0.949 . S
H666 C643 0.950 . S
H667 C645 0.950 1_565 S
C668 C669 1.349 . S
C668 C670 1.327 . S
C668 H693 0.950 . S
C669 C668 1.349 . S
C669 C685 1.349 . S
C670 C668 1.327 . S
C670 C689 1.429 . S
C670 H694 0.950 . S
C671 C688 1.574 . S
C671 C690 1.368 . S
C671 H695 0.949 . S
H672 C676 0.959 . S
C673 C674 1.349 . S
C673 C675 1.327 1_556 S
C673 H696 0.950 . S
C674 C673 1.349 . S
C674 C686 1.349 . S
C675 C673 1.327 1_554 S
C675 C691 1.429 . S
C675 H697 0.950 . S
C676 H672 0.959 . S
C676 C684 1.574 . S
C676 C692 1.368 . S
H677 C685 0.950 . S
H678 C683 0.950 . S
H679 C684 0.949 . S
H680 C686 0.950 . S
H681 C687 0.950 . S
H682 C688 0.949 . S
C683 H678 0.950 . S
C683 C685 1.327 . S
C683 C689 1.429 . S
C684 C676 1.574 . S
C684 H679 0.949 . S
C684 C690 1.368 . S
C685 C669 1.349 . S
C685 H677 0.950 . S
C685 C683 1.327 . S
C686 C674 1.349 . S
C686 H680 0.950 . S
C686 C687 1.327 . S
C687 H681 0.950 . S
C687 C686 1.327 . S
C687 C691 1.429 1_556 S
C688 C671 1.574 . S
C688 H682 0.949 . S
C688 C692 1.368 . S
C689 C670 1.429 . S
C689 C683 1.429 . S
C689 C690 1.523 . S
C690 C671 1.368 . S
C690 C684 1.368 . S
C690 C689 1.523 . S
C691 C675 1.429 . S
C691 C687 1.429 1_554 S
C691 C692 1.523 . S
C692 C676 1.368 . S
C692 C688 1.368 . S
C692 C691 1.523 . S
H693 C668 0.950 . S
H694 C670 0.950 . S
H695 C671 0.949 . S
H696 C673 0.950 . S
H697 C675 0.950 . S
C698 C699 1.349 . S
C698 C700 1.327 . S
C698 H723 0.950 . S
C699 C698 1.349 . S
C699 C715 1.349 . S
C700 C698 1.327 . S
C700 C719 1.429 . S
C700 H724 0.950 . S
C701 C718 1.574 . S
C701 C720 1.368 . S
C701 H725 0.949 . S
H702 C706 0.949 . S
C703 C704 1.349 . S
C703 C705 1.327 . S
C703 H726 0.950 . S
C704 C703 1.349 . S
C704 C716 1.349 . S
C705 C703 1.327 . S
C705 C721 1.429 1_556 S
C705 H727 0.950 . S
C706 H702 0.949 . S
C706 C714 1.574 . S
C706 C722 1.368 . S
H707 C715 0.950 . S
H708 C713 0.950 . S
H709 C714 0.949 . S
H710 C716 0.950 . S
H711 C717 0.950 . S
H712 C718 0.949 . S
C713 H708 0.950 . S
C713 C715 1.327 . S
C713 C719 1.429 . S
C714 C706 1.574 . S
C714 H709 0.949 . S
C714 C720 1.368 . S
C715 C699 1.349 . S
C715 H707 0.950 . S
C715 C713 1.327 . S
C716 C704 1.349 . S
C716 H710 0.950 . S
C716 C717 1.327 . S
C717 H711 0.950 . S
C717 C716 1.327 . S
C717 C721 1.429 1_556 S
C718 C701 1.574 . S
C718 H712 0.949 . S
C718 C722 1.368 . S
C719 C700 1.429 . S
C719 C713 1.429 . S
C719 C720 1.523 . S
C720 C701 1.368 . S
C720 C714 1.368 . S
C720 C719 1.523 . S
C721 C705 1.429 1_554 S
C721 C717 1.429 1_554 S
C721 C722 1.523 . S
C722 C706 1.368 . S
C722 C718 1.368 . S
C722 C721 1.523 . S
H723 C698 0.950 . S
H724 C700 0.950 . S
H725 C701 0.949 . S
H726 C703 0.950 . S
H727 C705 0.950 . S
C728 C729 1.325 1_655 S
C728 C730 1.327 . S
C728 H753 0.950 . S
C729 C728 1.325 1_455 S
C729 C745 1.377 . S
C730 C728 1.327 . S
C730 C749 1.429 1_655 S
C730 H754 0.950 . S
C731 C748 1.574 . S
C731 C750 1.368 . S
C731 H755 0.949 . S
H732 C736 0.949 . S
C733 C734 1.349 . S
C733 C735 1.327 . S
C733 H756 0.950 . S
C734 C733 1.349 . S
C734 C746 1.349 1_455 S
C735 C733 1.327 . S
C735 C751 1.429 . S
C735 H757 0.950 . S
C736 H732 0.949 . S
C736 C744 1.574 . S
C736 C752 1.368 1_655 S
H737 C745 0.950 . S
H738 C743 0.950 . S
H739 C744 0.949 . S
H740 C746 0.950 . S
H741 C747 0.950 . S
H742 C748 0.949 . S
C743 H738 0.950 . S
C743 C745 1.327 . S
C743 C749 1.429 . S
C744 C736 1.574 . S
C744 H739 0.949 . S
C744 C750 1.368 1_655 S
C745 C729 1.377 . S
C745 H737 0.950 . S
C745 C743 1.327 . S
C746 C734 1.349 1_655 S
C746 H740 0.950 . S
C746 C747 1.327 . S
C747 H741 0.950 . S
C747 C746 1.327 . S
C747 C751 1.429 1_655 S
C748 C731 1.574 . S
C748 H742 0.949 . S
C748 C752 1.368 . S
C749 C730 1.429 1_455 S
C749 C743 1.429 . S
C749 C750 1.523 . S
C750 C731 1.368 . S
C750 C744 1.368 1_455 S
C750 C749 1.523 . S
C751 C735 1.429 . S
C751 C747 1.429 1_455 S
C751 C752 1.523 . S
C752 C736 1.368 1_455 S
C752 C748 1.368 . S
C752 C751 1.523 . S
H753 C728 0.950 . S
H754 C730 0.950 . S
H755 C731 0.949 . S
H756 C733 0.950 . S
H757 C735 0.950 . S
C758 C759 1.385 . S
C758 C760 1.327 . S
C758 H783 0.950 . S
C759 C758 1.385 . S
C759 C775 1.316 1_545 S
C760 C758 1.327 . S
C760 C779 1.429 . S
C760 H784 0.950 . S
C761 C778 1.574 . S
C761 C780 1.368 1_565 S
C761 H785 0.949 . S
H762 C766 0.949 . S
C763 C764 1.349 1_565 S
C763 C765 1.327 . S
C763 H786 0.950 . S
C764 C763 1.349 1_545 S
C764 C776 1.349 . S
C765 C763 1.327 . S
C765 C781 1.429 1_565 S
C765 H787 0.950 . S
C766 H762 0.949 . S
C766 C774 1.574 . S
C766 C782 1.368 . S
H767 C775 0.950 . S
H768 C773 0.950 . S
H769 C774 0.949 . S
H770 C776 0.950 . S
H771 C777 0.950 . S
H772 C778 0.949 . S
C773 H768 0.950 . S
C773 C775 1.327 . S
C773 C779 1.429 1_565 S
C774 C766 1.574 . S
C774 H769 0.949 . S
C774 C780 1.368 . S
C775 C759 1.316 1_565 S
C775 H767 0.950 . S
C775 C773 1.327 . S
C776 C764 1.349 . S
C776 H770 0.950 . S
C776 C777 1.327 . S
C777 H771 0.950 . S
C777 C776 1.327 . S
C777 C781 1.429 . S
C778 C761 1.574 . S
C778 H772 0.949 . S
C778 C782 1.368 1_565 S
C779 C760 1.429 . S
C779 C773 1.429 1_545 S
C779 C780 1.523 . S
C780 C761 1.368 1_545 S
C780 C774 1.368 . S
C780 C779 1.523 . S
C781 C765 1.429 1_545 S
C781 C777 1.429 . S
C781 C782 1.523 . S
C782 C766 1.368 . S
C782 C778 1.368 1_545 S
C782 C781 1.523 . S
H783 C758 0.950 . S
H784 C760 0.950 . S
H785 C761 0.949 . S
H786 C763 0.950 . S
H787 C765 0.950 . S
C788 C789 1.349 . S
C788 C790 1.327 . S
C788 H813 0.950 . S
C789 C788 1.349 . S
C789 C805 1.349 . S
C790 C788 1.327 . S
C790 C809 1.429 . S
C790 H814 0.950 . S
C791 C808 1.574 . S
C791 C810 1.368 . S
C791 H815 0.949 . S
H792 C796 0.949 . S
C793 C794 1.349 . S
C793 C795 1.327 . S
C793 H816 0.950 . S
C794 C793 1.349 . S
C794 C806 1.349 . S
C795 C793 1.327 . S
C795 C811 1.429 . S
C795 H817 0.950 . S
C796 H792 0.949 . S
C796 C804 1.574 . S
C796 C812 1.368 . S
H797 C805 0.950 . S
H798 C803 0.950 . S
H799 C804 0.949 . S
H800 C806 0.950 . S
H801 C807 0.950 . S
H802 C808 0.949 . S
C803 H798 0.950 . S
C803 C805 1.327 . S
C803 C809 1.429 . S
C804 C796 1.574 . S
C804 H799 0.949 . S
C804 C810 1.368 . S
C805 C789 1.349 . S
C805 H797 0.950 . S
C805 C803 1.327 . S
C806 C794 1.349 . S
C806 H800 0.950 . S
C806 C807 1.327 . S
C807 H801 0.950 . S
C807 C806 1.327 . S
C807 C811 1.429 . S
C808 C791 1.574 . S
C808 H802 0.949 . S
C808 C812 1.368 . S
C809 C790 1.429 . S
C809 C803 1.429 . S
C809 C810 1.523 . S
C810 C791 1.368 . S
C810 C804 1.368 . S
C810 C809 1.523 . S
C811 C795 1.429 . S
C811 C807 1.429 . S
C811 C812 1.523 . S
C812 C796 1.368 . S
C812 C808 1.368 . S
C812 C811 1.523 . S
H813 C788 0.950 . S
H814 C790 0.950 . S
H815 C791 0.949 . S
H816 C793 0.950 . S
H817 C795 0.950 . S
C818 C819 1.349 . S
C818 C820 1.327 . S
C818 H843 0.950 . S
C819 C818 1.349 . S
C819 C835 1.349 . S
C820 C818 1.327 . S
C820 C839 1.429 . S
C820 H844 0.950 . S
C821 C838 1.574 . S
C821 C840 1.368 . S
C821 H845 0.949 . S
H822 C826 0.949 . S
C823 C824 1.349 . S
C823 C825 1.327 . S
C823 H846 0.950 . S
C824 C823 1.349 . S
C824 C836 1.349 . S
C825 C823 1.327 . S
C825 C841 1.429 . S
C825 H847 0.950 . S
C826 H822 0.949 . S
C826 C834 1.574 . S
C826 C842 1.368 . S
H827 C835 0.950 . S
H828 C833 0.950 . S
H829 C834 0.949 . S
H830 C836 0.950 . S
H831 C837 0.950 . S
H832 C838 0.949 . S
C833 H828 0.950 . S
C833 C835 1.327 . S
C833 C839 1.429 . S
C834 C826 1.574 . S
C834 H829 0.949 . S
C834 C840 1.368 . S
C835 C819 1.349 . S
C835 H827 0.950 . S
C835 C833 1.327 . S
C836 C824 1.349 . S
C836 H830 0.950 . S
C836 C837 1.327 . S
C837 H831 0.950 . S
C837 C836 1.327 . S
C837 C841 1.429 . S
C838 C821 1.574 . S
C838 H832 0.949 . S
C838 C842 1.368 . S
C839 C820 1.429 . S
C839 C833 1.429 . S
C839 C840 1.523 . S
C840 C821 1.368 . S
C840 C834 1.368 . S
C840 C839 1.523 . S
C841 C825 1.429 . S
C841 C837 1.429 . S
C841 C842 1.523 . S
C842 C826 1.368 . S
C842 C838 1.368 . S
C842 C841 1.523 . S
H843 C818 0.950 . S
H844 C820 0.950 . S
H845 C821 0.949 . S
H846 C823 0.950 . S
H847 C825 0.950 . S
C848 C849 1.322 1_455 S
C848 C850 1.327 . S
C848 H873 0.950 . S
C849 C848 1.322 1_655 S
C849 C865 1.379 . S
C850 C848 1.327 . S
C850 C869 1.429 1_455 S
C850 H874 0.950 . S
C851 C868 1.574 . S
C851 C870 1.368 . S
C851 H875 0.949 . S
H852 C856 0.949 . S
C853 C854 1.349 . S
C853 C855 1.327 . S
C853 H876 0.950 . S
C854 C853 1.349 . S
C854 C866 1.349 1_655 S
C855 C853 1.327 . S
C855 C871 1.429 . S
C855 H877 0.950 . S
C856 H852 0.949 . S
C856 C864 1.574 . S
C856 C872 1.368 1_455 S
H857 C865 0.950 . S
H858 C863 0.950 . S
H859 C864 0.949 . S
H860 C866 0.950 . S
H861 C867 0.950 . S
H862 C868 0.949 . S
C863 H858 0.950 . S
C863 C865 1.327 . S
C863 C869 1.429 . S
C864 C856 1.574 . S
C864 H859 0.949 . S
C864 C870 1.368 1_455 S
C865 C849 1.379 . S
C865 H857 0.950 . S
C865 C863 1.327 . S
C866 C854 1.349 1_455 S
C866 H860 0.950 . S
C866 C867 1.327 . S
C867 H861 0.950 . S
C867 C866 1.327 . S
C867 C871 1.429 1_455 S
C868 C851 1.574 . S
C868 H862 0.949 . S
C868 C872 1.368 . S
C869 C850 1.429 1_655 S
C869 C863 1.429 . S
C869 C870 1.523 . S
C870 C851 1.368 . S
C870 C864 1.368 1_655 S
C870 C869 1.523 . S
C871 C855 1.429 . S
C871 C867 1.429 1_655 S
C871 C872 1.523 . S
C872 C856 1.368 1_655 S
C872 C868 1.368 . S
C872 C871 1.523 . S
H873 C848 0.950 . S
H874 C850 0.950 . S
H875 C851 0.949 . S
H876 C853 0.950 . S
H877 C855 0.950 . S
C878 C879 1.323 1_545 S
C878 C880 1.327 . S
C878 H903 0.950 . S
C879 C878 1.323 1_565 S
C879 C895 1.377 . S
C880 C878 1.327 . S
C880 C899 1.429 1_545 S
C880 H904 0.950 . S
C881 C898 1.574 . S
C881 C900 1.368 . S
C881 H905 0.949 . S
H882 C886 0.949 . S
C883 C884 1.349 . S
C883 C885 1.327 . S
C883 H906 0.950 . S
C884 C883 1.349 . S
C884 C896 1.349 1_565 S
C885 C883 1.327 . S
C885 C901 1.429 . S
C885 H907 0.950 . S
C886 H882 0.949 . S
C886 C894 1.574 . S
C886 C902 1.368 1_545 S
H887 C895 0.950 . S
H888 C893 0.950 . S
H889 C894 0.949 . S
H890 C896 0.950 . S
H891 C897 0.950 . S
H892 C898 0.949 . S
C893 H888 0.950 . S
C893 C895 1.327 . S
C893 C899 1.429 . S
C894 C886 1.574 . S
C894 H889 0.949 . S
C894 C900 1.368 1_545 S
C895 C879 1.377 . S
C895 H887 0.950 . S
C895 C893 1.327 . S
C896 C884 1.349 1_545 S
C896 H890 0.950 . S
C896 C897 1.327 . S
C897 H891 0.950 . S
C897 C896 1.327 . S
C897 C901 1.429 1_545 S
C898 C881 1.574 . S
C898 H892 0.949 . S
C898 C902 1.368 . S
C899 C880 1.429 1_565 S
C899 C893 1.429 . S
C899 C900 1.523 . S
C900 C881 1.368 . S
C900 C894 1.368 1_565 S
C900 C899 1.523 . S
C901 C885 1.429 . S
C901 C897 1.429 1_565 S
C901 C902 1.523 . S
C902 C886 1.368 1_565 S
C902 C898 1.368 . S
C902 C901 1.523 . S
H903 C878 0.950 . S
H904 C880 0.950 . S
H905 C881 0.949 . S
H906 C883 0.950 . S
H907 C885 0.950 . S
C908 C909 1.349 . S
C908 C910 1.327 . S
C908 H933 0.950 . S
C909 C908 1.349 . S
C909 C925 1.349 . S
C910 C908 1.327 . S
C910 C929 1.429 . S
C910 H934 0.950 . S
C911 C928 1.574 . S
C911 C930 1.368 . S
C911 H935 0.949 . S
H912 C916 0.949 . S
C913 C914 1.349 . S
C913 C915 1.327 . S
C913 H936 0.950 . S
C914 C913 1.349 . S
C914 C926 1.349 . S
C915 C913 1.327 . S
C915 C931 1.429 . S
C915 H937 0.950 . S
C916 H912 0.949 . S
C916 C924 1.574 . S
C916 C932 1.368 . S
H917 C925 0.950 . S
H918 C923 0.950 . S
H919 C924 0.949 . S
H920 C926 0.950 . S
H921 C927 0.950 . S
H922 C928 0.949 . S
C923 H918 0.950 . S
C923 C925 1.327 . S
C923 C929 1.429 . S
C924 C916 1.574 . S
C924 H919 0.949 . S
C924 C930 1.368 . S
C925 C909 1.349 . S
C925 H917 0.950 . S
C925 C923 1.327 . S
C926 C914 1.349 . S
C926 H920 0.950 . S
C926 C927 1.327 . S
C927 H921 0.950 . S
C927 C926 1.327 . S
C927 C931 1.429 . S
C928 C911 1.574 . S
C928 H922 0.949 . S
C928 C932 1.368 . S
C929 C910 1.429 . S
C929 C923 1.429 . S
C929 C930 1.523 . S
C930 C911 1.368 . S
C930 C924 1.368 . S
C930 C929 1.523 . S
C931 C915 1.429 . S
C931 C927 1.429 . S
C931 C932 1.523 . S
C932 C916 1.368 . S
C932 C928 1.368 . S
C932 C931 1.523 . S
H933 C908 0.950 . S
H934 C910 0.950 . S
H935 C911 0.949 . S
H936 C913 0.950 . S
H937 C915 0.950 . S
C938 C939 1.349 . S
C938 C940 1.327 . S
C938 H963 0.950 . S
C939 C938 1.349 . S
C939 C955 1.349 . S
C940 C938 1.327 . S
C940 C959 1.429 . S
C940 H964 0.950 . S
C941 C958 1.574 . S
C941 C960 1.368 . S
C941 H965 0.949 . S
H942 C946 0.949 . S
C943 C944 1.349 . S
C943 C945 1.327 . S
C943 H966 0.950 . S
C944 C943 1.349 . S
C944 C956 1.349 . S
C945 C943 1.327 . S
C945 C961 1.429 . S
C945 H967 0.950 . S
C946 H942 0.949 . S
C946 C954 1.574 . S
C946 C962 1.368 . S
H947 C955 0.950 . S
H948 C953 0.950 . S
H949 C954 0.949 . S
H950 C956 0.950 . S
H951 C957 0.950 . S
H952 C958 0.949 . S
C953 H948 0.950 . S
C953 C955 1.327 . S
C953 C959 1.429 . S
C954 C946 1.574 . S
C954 H949 0.949 . S
C954 C960 1.368 . S
C955 C939 1.349 . S
C955 H947 0.950 . S
C955 C953 1.327 . S
C956 C944 1.349 . S
C956 H950 0.950 . S
C956 C957 1.327 . S
C957 H951 0.950 . S
C957 C956 1.327 . S
C957 C961 1.429 . S
C958 C941 1.574 . S
C958 H952 0.949 . S
C958 C962 1.368 . S
C959 C940 1.429 . S
C959 C953 1.429 . S
C959 C960 1.523 . S
C960 C941 1.368 . S
C960 C954 1.368 . S
C960 C959 1.523 . S
C961 C945 1.429 . S
C961 C957 1.429 . S
C961 C962 1.523 . S
C962 C946 1.368 . S
C962 C958 1.368 . S
C962 C961 1.523 . S
H963 C938 0.950 . S
H964 C940 0.950 . S
H965 C941 0.949 . S
H966 C943 0.950 . S
H967 C945 0.950 . S
C249 C74 1.676 . S
C254 C97 1.728 1_545 S
C284 C137 1.738 . S
C279 C85 1.674 . S
C314 C177 1.739 . S
C309 C52 1.680 . S
C344 C217 1.733 1_455 S
C339 C63 1.678 . S
C374 C106 1.732 1_565 S
C369 C30 1.681 . S
C399 C41 1.680 . S
C404 C146 1.741 . S
C429 C8 1.682 . S
C434 C186 1.739 . S
C459 C19 1.678 1_655 S
C464 C226 1.734 1_655 S
C494 C103 0.440 . S
C489 C62 0.455 . S
C524 C143 0.444 . S
C519 C73 0.464 . S
C554 C183 0.447 . S
C549 C84 0.446 . S
C579 C51 0.442 . S
C584 C223 0.437 . S
C609 C18 0.460 1_655 S
C614 C94 0.441 . S
C644 C134 0.444 . S
C639 C29 0.465 1_565 S
C674 C174 0.448 . S
C669 C40 0.492 . S
C699 C7 0.489 . S
C704 C214 0.449 . S
C729 C60 1.608 . S
C734 C107 2.036 . S
C759 C71 1.601 . S
C764 C147 2.035 . S
C794 C187 2.030 . S
C789 C82 1.574 . S
C824 C227 2.038 . S
C819 C49 1.576 . S
C849 C16 1.608 1_655 S
C854 C98 2.051 . S
C884 C138 2.035 . S
C879 C27 1.601 1_565 S
C914 C178 2.029 . S
C909 C38 1.620 . S
C939 C5 1.627 . S
C944 C218 2.044 . S
