# Generated by pormake.
# Topology anh, (6,3)-cn, num edge types: 1
# Building blocks:
#     Node 0, Type 0, BuildingBlock: MIFKUJ_clean_sbu_0, # of connection points: 6
#     Node 1, Type 0, BuildingBlock: MIFKUJ_clean_sbu_0, # of connection points: 6
#     Node 2, Type 0, BuildingBlock: MIFKUJ_clean_sbu_0, # of connection points: 6
#     Node 3, Type 1, BuildingBlock: WUSLED_clean_sbu_0, # of connection points: 3
#     Node 4, Type 1, BuildingBlock: WUSLED_clean_sbu_0, # of connection points: 3
#     Node 5, Type 1, BuildingBlock: WUSLED_clean_sbu_0, # of connection points: 3
#     Node 6, Type 1, BuildingBlock: WUSLED_clean_sbu_0, # of connection points: 3
#     Node 7, Type 1, BuildingBlock: WUSLED_clean_sbu_0, # of connection points: 3
#     Node 8, Type 1, BuildingBlock: WUSLED_clean_sbu_0, # of connection points: 3
#     Edge 9, Type (0, 1), BuildingBlock: TEMPAE_clean_linker_10, # of connection points: 2
#     Edge 10, Type (0, 1), BuildingBlock: TEMPAE_clean_linker_10, # of connection points: 2
#     Edge 11, Type (0, 1), BuildingBlock: TEMPAE_clean_linker_10, # of connection points: 2
#     Edge 12, Type (0, 1), BuildingBlock: TEMPAE_clean_linker_10, # of connection points: 2
#     Edge 13, Type (0, 1), BuildingBlock: TEMPAE_clean_linker_10, # of connection points: 2
#     Edge 14, Type (0, 1), BuildingBlock: TEMPAE_clean_linker_10, # of connection points: 2
#     Edge 15, Type (0, 1), BuildingBlock: TEMPAE_clean_linker_10, # of connection points: 2
#     Edge 16, Type (0, 1), BuildingBlock: TEMPAE_clean_linker_10, # of connection points: 2
#     Edge 17, Type (0, 1), BuildingBlock: TEMPAE_clean_linker_10, # of connection points: 2
#     Edge 18, Type (0, 1), BuildingBlock: TEMPAE_clean_linker_10, # of connection points: 2
#     Edge 19, Type (0, 1), BuildingBlock: TEMPAE_clean_linker_10, # of connection points: 2
#     Edge 20, Type (0, 1), BuildingBlock: TEMPAE_clean_linker_10, # of connection points: 2
#     Edge 21, Type (0, 1), BuildingBlock: TEMPAE_clean_linker_10, # of connection points: 2
#     Edge 22, Type (0, 1), BuildingBlock: TEMPAE_clean_linker_10, # of connection points: 2
#     Edge 23, Type (0, 1), BuildingBlock: TEMPAE_clean_linker_10, # of connection points: 2
#     Edge 24, Type (0, 1), BuildingBlock: TEMPAE_clean_linker_10, # of connection points: 2
#     Edge 25, Type (0, 1), BuildingBlock: TEMPAE_clean_linker_10, # of connection points: 2
#     Edge 26, Type (0, 1), BuildingBlock: TEMPAE_clean_linker_10, # of connection points: 2
# Relax obj value: 0.128
# Max RMSD: 0.180
# Mean RMSD: 0.138
data_MOF--net-anh--node1-MIFKUJ_clean_sbu_0--node2-WUSLED_clean_sbu_0--edge1-TEMPAE_clean_linker_10
_symmetry_space_group_name_H-M    P1
_symmetry_Int_Tables_number       1
_symmetry_cell_setting            triclinic
loop_
_symmetry_equiv_pos_as_xyz
'x, y, z'
_cell_length_a     40.567017
_cell_length_b     40.172244
_cell_length_c     67.969809
_cell_angle_alpha  93.496453
_cell_angle_beta   90.818088
_cell_angle_gamma 120.2078
loop_
_atom_site_label
_atom_site_type_symbol
_atom_site_fract_x
_atom_site_fract_y
_atom_site_fract_z
_atom_type_partial_charge
Zn0 Zn 0.04755 0.56073 0.1718 0.0
Zn1 Zn 0.94774 0.48513 0.16962 0.0
C2 C 0.10524 0.54349 0.17766 0.0
O3 O 0.10968 0.56728 0.19295 0.0
C4 C 0.89817 0.51335 0.15682 0.0
O5 O 0.90234 0.50111 0.13919 0.0
O6 O 0.08922 0.61619 0.17349 0.0
O7 O 0.01204 0.55654 0.14939 0.0
O8 O 0.97724 0.49332 0.1447 0.0
C9 C 0.11197 0.62724 0.1595 0.0
O10 O 0.1058 0.60271 0.14426 0.0
O11 O 0.0766 0.5322 0.16559 0.0
C12 C 0.89171 0.40945 0.18059 0.0
O13 O 0.90982 0.42207 0.19798 0.0
O14 O 0.9042 0.43048 0.16621 0.0
O15 O 0.97327 0.49397 0.19669 0.0
O16 O 0.02836 0.54959 0.19904 0.0
O17 O 0.91772 0.51293 0.17148 0.0
C18 C 0.99694 0.52605 0.1379 0.0
C19 C 0.0015 0.52123 0.20692 0.0
Zn20 Zn 0.56038 0.06976 0.50402 0.0
Zn21 Zn 0.53078 0.96427 0.50156 0.0
C22 C 0.64456 0.1123 0.50628 0.0
O23 O 0.64197 0.09778 0.52337 0.0
C24 C 0.4574 0.89984 0.48907 0.0
O25 O 0.47891 0.89227 0.47753 0.0
O26 O 0.54459 0.10935 0.50561 0.0
O27 O 0.5246 0.02965 0.48301 0.0
O28 O 0.54971 0.99325 0.47697 0.0
C29 C 0.55019 0.12794 0.49035 0.0
O30 O 0.5628 0.11796 0.47468 0.0
O31 O 0.61449 0.10133 0.49546 0.0
C32 C 0.53587 0.9006 0.51324 0.0
O33 O 0.51245 0.90149 0.52614 0.0
O34 O 0.54953 0.92644 0.50103 0.0
O35 O 0.54399 0.99185 0.5289 0.0
O36 O 0.55983 0.05364 0.5314 0.0
O37 O 0.47292 0.9314 0.4999 0.0
C38 C 0.53887 0.01567 0.47099 0.0
C39 C 0.55378 0.02325 0.53916 0.0
Zn40 Zn 0.5619 0.52111 0.83959 0.0
Zn41 Zn 0.4914 0.54167 0.83526 0.0
C42 C 0.54539 0.44667 0.8477 0.0
O43 O 0.56996 0.46849 0.86224 0.0
C44 C 0.52023 0.61873 0.82623 0.0
O45 O 0.50026 0.59915 0.80997 0.0
O46 O 0.6161 0.53508 0.84267 0.0
O47 O 0.56182 0.5441 0.81413 0.0
O48 O 0.50021 0.5212 0.80934 0.0
C49 C 0.62898 0.52277 0.8289 0.0
O50 O 0.60639 0.50221 0.81348 0.0
O51 O 0.53369 0.46226 0.83581 0.0
C52 C 0.41879 0.53162 0.84448 0.0
O53 O 0.43064 0.53153 0.8625 0.0
O54 O 0.43971 0.5349 0.83024 0.0
O55 O 0.48922 0.51621 0.86056 0.0
O56 O 0.55082 0.53869 0.86578 0.0
O57 O 0.52397 0.60034 0.83985 0.0
C58 C 0.53269 0.53207 0.80254 0.0
C59 C 0.51777 0.52587 0.87232 0.0
C60 C 0.56068 0.11065 0.19443 0.0
C61 C 0.58624 0.13298 0.21038 0.0
C62 C 0.6309 0.17692 0.18788 0.0
C63 C 0.62102 0.16582 0.20715 0.0
C64 C 0.60507 0.15447 0.17195 0.0
C65 C 0.57021 0.12159 0.17522 0.0
U66 U 0.49659 0.04184 0.23033 0.0
O67 O 0.43406 0.01042 0.23245 0.0
O68 O 0.46491 0.97854 0.22928 0.0
C69 C 0.43164 0.97648 0.23047 0.0
C70 C 0.52468 0.07548 0.19789 0.0
C71 C 0.40056 0.94634 0.21733 0.0
C72 C 0.37285 0.91387 0.18489 0.0
C73 C 0.40144 0.94575 0.19663 0.0
C74 C 0.34243 0.884 0.21447 0.0
C75 C 0.34374 0.88241 0.19385 0.0
C76 C 0.37051 0.91569 0.22608 0.0
C77 C 0.53496 0.06621 0.2847 0.0
C78 C 0.49998 0.03684 0.31352 0.0
C79 C 0.56898 0.0763 0.31615 0.0
C80 C 0.56918 0.08261 0.29618 0.0
C81 C 0.53441 0.05375 0.32522 0.0
C82 C 0.50028 0.0429 0.2934 0.0
C83 C 0.53674 0.07398 0.26374 0.0
O84 O 0.52871 0.04711 0.20379 0.0
O85 O 0.50041 0.08113 0.20812 0.0
O86 O 0.51152 0.08223 0.25674 0.0
O87 O 0.54209 0.05058 0.25163 0.0
H88 H 0.57941 0.12477 0.22533 0.0
H89 H 0.6405 0.18211 0.2197 0.0
H90 H 0.61171 0.16248 0.15697 0.0
H91 H 0.55079 0.10461 0.16275 0.0
H92 H 0.37423 0.91311 0.16897 0.0
H93 H 0.42459 0.96926 0.18966 0.0
H94 H 0.31999 0.86016 0.22163 0.0
H95 H 0.3694 0.91571 0.242 0.0
H96 H 0.47277 0.0195 0.31995 0.0
H97 H 0.59613 0.08898 0.32443 0.0
H98 H 0.59624 0.10037 0.28967 0.0
H99 H 0.47351 0.0297 0.2847 0.0
C100 C 0.56522 0.59978 0.52412 0.0
C101 C 0.56651 0.62491 0.53978 0.0
C102 C 0.56716 0.66887 0.5165 0.0
C103 C 0.56763 0.65925 0.536 0.0
C104 C 0.5655 0.64345 0.50084 0.0
C105 C 0.56472 0.60921 0.50464 0.0
U106 U 0.56062 0.53088 0.5608 0.0
O107 O 0.53104 0.4675 0.55947 0.0
O108 O 0.59362 0.50156 0.56396 0.0
C109 C 0.56309 0.467 0.56135 0.0
C110 C 0.56476 0.56402 0.52813 0.0
C111 C 0.56661 0.43874 0.54824 0.0
C112 C 0.55941 0.40474 0.5162 0.0
C113 C 0.55774 0.43387 0.52783 0.0
C114 C 0.57985 0.38632 0.54525 0.0
C115 C 0.57033 0.38058 0.52488 0.0
C116 C 0.578 0.41509 0.55678 0.0
C117 C 0.55359 0.555 0.61521 0.0
C118 C 0.55565 0.51723 0.64137 0.0
C119 C 0.55078 0.57419 0.64933 0.0
C120 C 0.55085 0.58015 0.62934 0.0
C121 C 0.55368 0.543 0.65565 0.0
C122 C 0.5557 0.52326 0.62126 0.0
C123 C 0.55527 0.56317 0.59438 0.0
O124 O 0.59495 0.56914 0.53832 0.0
O125 O 0.53245 0.53661 0.53435 0.0
O126 O 0.52541 0.53866 0.58288 0.0
O127 O 0.58796 0.57298 0.58644 0.0
H128 H 0.56669 0.61794 0.55492 0.0
H129 H 0.5683 0.67805 0.54832 0.0
H130 H 0.5652 0.65029 0.48569 0.0
H131 H 0.5638 0.59013 0.4924 0.0
H132 H 0.55198 0.4009 0.50053 0.0
H133 H 0.54899 0.45208 0.52102 0.0
H134 H 0.58757 0.36767 0.55244 0.0
H135 H 0.58475 0.41837 0.57252 0.0
H136 H 0.55796 0.49298 0.64576 0.0
H137 H 0.54834 0.59407 0.65988 0.0
H138 H 0.54902 0.60466 0.6249 0.0
H139 H 0.55782 0.50351 0.61047 0.0
C140 C 0.95248 0.54405 0.8591 0.0
C141 C 0.92671 0.53639 0.87413 0.0
C142 C 0.88401 0.54417 0.85182 0.0
C143 C 0.89251 0.53617 0.87045 0.0
C144 C 0.91016 0.55254 0.83699 0.0
C145 C 0.94402 0.55226 0.84058 0.0
U146 U 0.02758 0.54301 0.89324 0.0
O147 O 0.09016 0.574 0.89225 0.0
O148 O 0.0577 0.51024 0.89011 0.0
C149 C 0.09136 0.54186 0.89061 0.0
C150 C 0.98815 0.54342 0.86236 0.0
C151 C 0.12139 0.5412 0.87905 0.0
C152 C 0.16182 0.55623 0.85091 0.0
C153 C 0.12946 0.55344 0.85984 0.0
C154 C 0.17683 0.53356 0.88008 0.0
C155 C 0.18637 0.5474 0.86133 0.0
C156 C 0.14481 0.53055 0.8888 0.0
C157 C 0.00867 0.54356 0.94963 0.0
C158 C 0.04436 0.54121 0.97821 0.0
C159 C 0.98562 0.54212 0.98246 0.0
C160 C 0.98179 0.54372 0.96222 0.0
C161 C 0.01655 0.54033 0.99072 0.0
C162 C 0.04032 0.54259 0.95768 0.0
C163 C 0.00153 0.54378 0.92833 0.0
O164 O 0.01668 0.57498 0.87132 0.0
O165 O 0.98431 0.51159 0.86891 0.0
O166 O 0.99175 0.51185 0.91731 0.0
O167 O 0.02452 0.57533 0.91983 0.0
H168 H 0.9329 0.5303 0.8886 0.0
H169 H 0.87275 0.52986 0.88213 0.0
H170 H 0.90396 0.5585 0.82248 0.0
H171 H 0.96353 0.5582 0.82882 0.0
H172 H 0.16842 0.56657 0.83632 0.0
H173 H 0.11151 0.56167 0.85204 0.0
H174 H 0.19467 0.52567 0.88826 0.0
H175 H 0.13901 0.52098 0.90358 0.0
H176 H 0.0685 0.53986 0.98422 0.0
H177 H 0.96411 0.54211 0.99173 0.0
H178 H 0.95734 0.54468 0.95632 0.0
H179 H 0.06147 0.54249 0.94816 0.0
C180 C 0.94871 0.44094 0.48369 0.0
C181 C 0.92018 0.4235 0.46837 0.0
C182 C 0.88258 0.36803 0.48758 0.0
C183 C 0.8874 0.38746 0.47031 0.0
C184 C 0.91132 0.3859 0.50286 0.0
C185 C 0.94389 0.42189 0.50093 0.0
U186 U 0.01955 0.51813 0.45184 0.0
O187 O 0.08229 0.54589 0.45161 0.0
O188 O 0.05553 0.58146 0.45714 0.0
C189 C 0.08735 0.58076 0.45494 0.0
C190 C 0.98451 0.47782 0.48164 0.0
C191 C 0.12301 0.61107 0.46553 0.0
C192 C 0.15914 0.65897 0.49295 0.0
C193 C 0.12503 0.62627 0.48503 0.0
C194 C 0.18916 0.66027 0.46225 0.0
C195 C 0.19107 0.67699 0.48128 0.0
C196 C 0.15566 0.6278 0.45452 0.0
C197 C 0.99212 0.4995 0.39552 0.0
C198 C 0.02288 0.54168 0.3692 0.0
C199 C 0.97516 0.4744 0.36123 0.0
C200 C 0.97058 0.46891 0.38128 0.0
C201 C 0.00125 0.51076 0.35495 0.0
C202 C 0.01855 0.53602 0.38942 0.0
C203 C 0.98591 0.49173 0.41645 0.0
O204 O 0.01109 0.47456 0.4724 0.0
O205 O 0.9809 0.50678 0.47625 0.0
O206 O 0.98113 0.51627 0.428 0.0
O207 O 0.00734 0.48007 0.42477 0.0
H208 H 0.92341 0.43761 0.45485 0.0
H209 H 0.86576 0.37494 0.45832 0.0
H210 H 0.9091 0.37171 0.51622 0.0
H211 H 0.96569 0.43464 0.51285 0.0
H212 H 0.16001 0.67117 0.50774 0.0
H213 H 0.10015 0.61373 0.49383 0.0
H214 H 0.21344 0.67313 0.45303 0.0
H215 H 0.1548 0.61662 0.43948 0.0
H216 H 0.04334 0.56994 0.36468 0.0
H217 H 0.95787 0.45024 0.35056 0.0
H218 H 0.95002 0.44058 0.3857 0.0
H219 H 0.03567 0.55997 0.40022 0.0
C220 C 0.52293 0.93882 0.81478 0.0
C221 C 0.50422 0.90662 0.80099 0.0
C222 C 0.52674 0.87118 0.81991 0.0
C223 C 0.50586 0.87306 0.8036 0.0
C224 C 0.54574 0.90396 0.83345 0.0
C225 C 0.54354 0.93709 0.83099 0.0
U226 U 0.52158 0.01788 0.78536 0.0
O227 O 0.55504 0.08131 0.79245 0.0
O228 O 0.49152 0.04979 0.79222 0.0
C229 C 0.52383 0.08283 0.79531 0.0
C230 C 0.52168 0.97464 0.8129 0.0
C231 C 0.52438 0.11905 0.80133 0.0
C232 C 0.50276 0.15488 0.82236 0.0
C233 C 0.50163 0.12025 0.81643 0.0
C234 C 0.54951 0.18753 0.7982 0.0
C235 C 0.52633 0.18888 0.8131 0.0
C236 C 0.54867 0.15305 0.79246 0.0
C237 C 0.52319 1.00233 0.72739 0.0
C238 C 0.54269 0.0453 0.70072 0.0
C239 C 0.5168 0.97663 0.69339 0.0
C240 C 0.51215 0.97102 0.71343 0.0
C241 C 0.53296 0.01389 0.68674 0.0
C242 C 0.53797 0.03957 0.72095 0.0
C243 C 0.52184 0.99464 0.74839 0.0
O244 O 0.55289 1.00397 0.80699 0.0
O245 O 0.49026 0.97111 0.8049 0.0
O246 O 0.49026 0.9857 0.75737 0.0
O247 O 0.55306 0.01619 0.75964 0.0
H248 H 0.48817 0.90728 0.78829 0.0
H249 H 0.49026 0.8485 0.79294 0.0
H250 H 0.56292 0.90451 0.84593 0.0
H251 H 0.55827 0.96164 0.84179 0.0
H252 H 0.48457 0.15482 0.83388 0.0
H253 H 0.48315 0.09444 0.82373 0.0
H254 H 0.56853 0.21325 0.791 0.0
H255 H 0.56676 0.15288 0.78093 0.0
H256 H 0.55513 0.07438 0.69613 0.0
H257 H 0.50799 0.95161 0.68311 0.0
H258 H 0.50074 0.94207 0.71809 0.0
H259 H 0.54672 0.06418 0.73153 0.0
C260 C 0.57916 0.51016 0.14868 0.0
C261 C 0.59689 0.50372 0.13246 0.0
C262 C 0.6492 0.51149 0.15432 0.0
C263 C 0.63154 0.50419 0.13528 0.0
C264 C 0.63129 0.51802 0.17042 0.0
C265 C 0.59665 0.51725 0.16762 0.0
U266 U 0.49714 0.51238 0.11929 0.0
O267 O 0.46858 0.54491 0.12877 0.0
O268 O 0.43513 0.48078 0.12407 0.0
C269 C 0.43539 0.51298 0.12929 0.0
C270 C 0.54268 0.50996 0.14654 0.0
C271 C 0.40047 0.5133 0.13492 0.0
C272 C 0.36425 0.52687 0.15923 0.0
C273 C 0.39736 0.5262 0.1541 0.0
C274 C 0.33702 0.50172 0.12604 0.0
C275 C 0.3337 0.515 0.14519 0.0
C276 C 0.36994 0.50078 0.12102 0.0
C277 C 0.50989 0.51688 0.06127 0.0
C278 C 0.47047 0.51142 0.03244 0.0
C279 C 0.53522 0.52486 0.0286 0.0
C280 C 0.53972 0.52396 0.04889 0.0
C281 C 0.50064 0.51849 0.02016 0.0
C282 C 0.47509 0.51071 0.05298 0.0
C283 C 0.51676 0.51499 0.08245 0.0
O284 O 0.54516 0.54216 0.14152 0.0
O285 O 0.5136 0.47894 0.13752 0.0
O286 O 0.49462 0.48255 0.09051 0.0
O287 O 0.52748 0.54607 0.0944 0.0
H288 H 0.58402 0.49842 0.11768 0.0
H289 H 0.64484 0.49943 0.12254 0.0
H290 H 0.64386 0.52332 0.18526 0.0
H291 H 0.58344 0.52221 0.18034 0.0
H292 H 0.36299 0.5375 0.17406 0.0
H293 H 0.42053 0.53577 0.16513 0.0
H294 H 0.31403 0.49175 0.11489 0.0
H295 H 0.37172 0.49065 0.10615 0.0
H296 H 0.44355 0.50648 0.02615 0.0
H297 H 0.5587 0.53009 0.01939 0.0
H298 H 0.56665 0.52848 0.05496 0.0
H299 H 0.45165 0.50511 0.06227 0.0
C300 C 0.1307 0.50112 0.16455 0.0
C301 C 0.13705 0.5367 0.17299 0.0
C302 C 0.16166 0.49547 0.1605 0.0
C303 C 0.1997 0.52641 0.16454 0.0
C304 C 0.20597 0.56244 0.17286 0.0
C305 C 0.17466 0.56695 0.17716 0.0
C306 C 0.15371 0.45633 0.15212 0.0
C307 C 0.24582 0.59666 0.1768 0.0
C308 C 0.28333 0.50826 0.16883 0.0
C309 C 0.29891 0.5172 0.15022 0.0
C310 C 0.25084 0.51064 0.17362 0.0
C311 C 0.23313 0.52192 0.15945 0.0
C312 C 0.24862 0.53089 0.14067 0.0
C313 C 0.28119 0.52849 0.13632 0.0
C314 C 0.23553 0.50125 0.1939 0.0
C315 C 0.23071 0.5429 0.12505 0.0
H316 H 0.10162 0.47761 0.16146 0.0
H317 H 0.17968 0.5947 0.18343 0.0
H318 H 0.16998 0.45919 0.13873 0.0
H319 H 0.16338 0.44332 0.16311 0.0
H320 H 0.12285 0.43628 0.14828 0.0
H321 H 0.24584 0.62205 0.18428 0.0
H322 H 0.26322 0.58884 0.18609 0.0
H323 H 0.25997 0.60518 0.16264 0.0
H324 H 0.29632 0.49903 0.17964 0.0
H325 H 0.29315 0.53612 0.12202 0.0
H326 H 0.20617 0.47585 0.19259 0.0
H327 H 0.23373 0.52578 0.20112 0.0
H328 H 0.25359 0.49483 0.20359 0.0
H329 H 0.20287 0.51764 0.1196 0.0
H330 H 0.24901 0.55393 0.11229 0.0
H331 H 0.22504 0.56562 0.13125 0.0
C332 C 0.71594 0.15128 0.50587 0.0
C333 C 0.68018 0.14744 0.50186 0.0
C334 C 0.74982 0.18579 0.50273 0.0
C335 C 0.74777 0.21773 0.49635 0.0
C336 C 0.71155 0.21391 0.49252 0.0
C337 C 0.67827 0.17862 0.49495 0.0
C338 C 0.7877 0.18822 0.50666 0.0
C339 C 0.70787 0.24735 0.48621 0.0
C340 C 0.83131 0.31998 0.50806 0.0
C341 C 0.84804 0.32928 0.48974 0.0
C342 C 0.79936 0.28354 0.51051 0.0
C343 C 0.78323 0.25558 0.49421 0.0
C344 C 0.79991 0.2646 0.47569 0.0
C345 C 0.83209 0.30121 0.47369 0.0
C346 C 0.78246 0.27519 0.53051 0.0
C347 C 0.78405 0.23531 0.45805 0.0
H348 H 0.71738 0.12723 0.51134 0.0
H349 H 0.65059 0.17593 0.49221 0.0
H350 H 0.80743 0.2026 0.49482 0.0
H351 H 0.80121 0.20575 0.52076 0.0
H352 H 0.78438 0.15921 0.50777 0.0
H353 H 0.67765 0.24033 0.48497 0.0
H354 H 0.72388 0.27285 0.49697 0.0
H355 H 0.72054 0.2557 0.4717 0.0
H356 H 0.84286 0.34146 0.52052 0.0
H357 H 0.8451 0.30762 0.45956 0.0
H358 H 0.78174 0.24914 0.5356 0.0
H359 H 0.75255 0.26901 0.52944 0.0
H360 H 0.79888 0.29966 0.54181 0.0
H361 H 0.78811 0.21063 0.46083 0.0
H362 H 0.79818 0.24773 0.44431 0.0
H363 H 0.7529 0.22364 0.4557 0.0
C364 C 0.56161 0.69102 0.82893 0.0
C365 C 0.52615 0.6578 0.83071 0.0
C366 C 0.56481 0.72772 0.82953 0.0
C367 C 0.53161 0.73082 0.83148 0.0
C368 C 0.49625 0.69732 0.83443 0.0
C369 C 0.49415 0.6614 0.83415 0.0
C370 C 0.60339 0.76301 0.82749 0.0
C371 C 0.45978 0.69853 0.83622 0.0
C372 C 0.53277 0.8257 0.84197 0.0
C373 C 0.52886 0.8355 0.82287 0.0
C374 C 0.53567 0.79291 0.84497 0.0
C375 C 0.53278 0.76798 0.82857 0.0
C376 C 0.5284 0.77727 0.80929 0.0
C377 C 0.52733 0.81119 0.80666 0.0
C378 C 0.54129 0.78467 0.86575 0.0
C379 C 0.52475 0.75135 0.79131 0.0
H380 H 0.5864 0.68816 0.82633 0.0
H381 H 0.46692 0.63565 0.83575 0.0
H382 H 0.6031 0.77692 0.81394 0.0
H383 H 0.60997 0.78447 0.8402 0.0
H384 H 0.62657 0.75596 0.82679 0.0
H385 H 0.43705 0.67233 0.84258 0.0
H386 H 0.4644 0.72431 0.8455 0.0
H387 H 0.44936 0.70007 0.8213 0.0
H388 H 0.5331 0.84334 0.85475 0.0
H389 H 0.5254 0.81857 0.7918 0.0
H390 H 0.56592 0.7799 0.86676 0.0
H391 H 0.51571 0.75785 0.86974 0.0
H392 H 0.54639 0.80861 0.87676 0.0
H393 H 0.55279 0.75373 0.78881 0.0
H394 H 0.51536 0.75918 0.77779 0.0
H395 H 0.50403 0.72067 0.79353 0.0
C396 C 0.85464 0.53649 0.14594 0.0
C397 C 0.86551 0.51944 0.16006 0.0
C398 C 0.82068 0.53762 0.14736 0.0
C399 C 0.79625 0.52003 0.16288 0.0
C400 C 0.8078 0.50391 0.1776 0.0
C401 C 0.84255 0.50421 0.17612 0.0
C402 C 0.8103 0.55656 0.13184 0.0
C403 C 0.7825 0.48406 0.19418 0.0
C404 C 0.71611 0.54261 0.16952 0.0
C405 C 0.68627 0.51256 0.15746 0.0
C406 C 0.75164 0.54471 0.1721 0.0
C407 C 0.75745 0.51589 0.16253 0.0
C408 C 0.72682 0.4845 0.15114 0.0
C409 C 0.69184 0.48348 0.14853 0.0
C410 C 0.78329 0.5784 0.18456 0.0
C411 C 0.73132 0.45244 0.14122 0.0
H412 H 0.87247 0.54841 0.13359 0.0
H413 H 0.85061 0.49047 0.18693 0.0
H414 H 0.78362 0.53474 0.12346 0.0
H415 H 0.80486 0.57881 0.13898 0.0
H416 H 0.83314 0.57047 0.12126 0.0
H417 H 0.79845 0.47992 0.20631 0.0
H418 H 0.76942 0.50065 0.20034 0.0
H419 H 0.75892 0.45522 0.18837 0.0
H420 H 0.71204 0.56517 0.17651 0.0
H421 H 0.66871 0.45977 0.13953 0.0
H422 H 0.80667 0.59669 0.17506 0.0
H423 H 0.79552 0.56798 0.19569 0.0
H424 H 0.7733 0.59658 0.19234 0.0
H425 H 0.75025 0.46354 0.12872 0.0
H426 H 0.70351 0.42744 0.13546 0.0
H427 H 0.74492 0.4422 0.15168 0.0
C428 C 0.39191 0.87818 0.50151 0.0
C429 C 0.41697 0.86982 0.49119 0.0
C430 C 0.35365 0.8493 0.50355 0.0
C431 C 0.34038 0.81114 0.49532 0.0
C432 C 0.36605 0.80245 0.4855 0.0
C433 C 0.40378 0.83184 0.48346 0.0
C434 C 0.32748 0.85964 0.51445 0.0
C435 C 0.35329 0.76229 0.47638 0.0
C436 C 0.24782 0.71952 0.50489 0.0
C437 C 0.22577 0.71459 0.4877 0.0
C438 C 0.28437 0.75266 0.50855 0.0
C439 C 0.29899 0.78105 0.49462 0.0
C440 C 0.2754 0.77741 0.47813 0.0
C441 C 0.23909 0.74447 0.475 0.0
C442 C 0.3082 0.75632 0.52669 0.0
C443 C 0.28918 0.80734 0.46314 0.0
H444 H 0.40204 0.90738 0.50777 0.0
H445 H 0.42303 0.8249 0.47575 0.0
H446 H 0.30103 0.8505 0.50529 0.0
H447 H 0.31883 0.84399 0.52804 0.0
H448 H 0.34132 0.89113 0.51866 0.0
H449 H 0.37748 0.75954 0.47079 0.0
H450 H 0.33892 0.74064 0.48731 0.0
H451 H 0.33229 0.75511 0.46389 0.0
H452 H 0.23747 0.69664 0.51485 0.0
H453 H 0.22162 0.74114 0.46197 0.0
H454 H 0.31903 0.78502 0.53479 0.0
H455 H 0.33345 0.75436 0.5223 0.0
H456 H 0.29182 0.73349 0.53682 0.0
H457 H 0.29271 0.83473 0.47008 0.0
H458 H 0.26893 0.79806 0.45006 0.0
H459 H 0.3174 0.81352 0.45798 0.0
C460 C 0.50345 0.37569 0.83783 0.0
C461 C 0.53972 0.40781 0.84265 0.0
C462 C 0.49887 0.33875 0.83351 0.0
C463 C 0.53146 0.33434 0.83343 0.0
C464 C 0.56817 0.36711 0.83778 0.0
C465 C 0.57173 0.40322 0.84265 0.0
C466 C 0.45921 0.30441 0.82943 0.0
C467 C 0.60386 0.36428 0.83682 0.0
C468 C 0.52531 0.23729 0.83826 0.0
C469 C 0.52621 0.22543 0.81849 0.0
C470 C 0.52589 0.27212 0.8433 0.0
C471 C 0.52772 0.29585 0.82825 0.0
C472 C 0.52826 0.28382 0.8083 0.0
C473 C 0.5271 0.24869 0.80368 0.0
C474 C 0.525 0.28379 0.86474 0.0
C475 C 0.52988 0.30784 0.79168 0.0
H476 H 0.47871 0.37931 0.8379 0.0
H477 H 0.59987 0.42828 0.84603 0.0
H478 H 0.45769 0.28769 0.81551 0.0
H479 H 0.45225 0.28484 0.84149 0.0
H480 H 0.43721 0.31304 0.82838 0.0
H481 H 0.63024 0.39254 0.84063 0.0
H482 H 0.60265 0.34328 0.84706 0.0
H483 H 0.60579 0.35349 0.82169 0.0
H484 H 0.52486 0.2197 0.84984 0.0
H485 H 0.52679 0.23936 0.78834 0.0
H486 H 0.50055 0.28855 0.86681 0.0
H487 H 0.5514 0.3115 0.8693 0.0
H488 H 0.52248 0.26169 0.87463 0.0
H489 H 0.50125 0.30433 0.78892 0.0
H490 H 0.53832 0.29884 0.77777 0.0
H491 H 0.55032 0.33899 0.79551 0.0
C492 C 0.52721 0.83943 0.52524 0.0
C493 C 0.54376 0.86836 0.51206 0.0
C494 C 0.53307 0.80787 0.52406 0.0
C495 C 0.55632 0.80523 0.50943 0.0
C496 C 0.5733 0.8344 0.49609 0.0
C497 C 0.56665 0.86557 0.4975 0.0
C498 C 0.51446 0.77741 0.53859 0.0
C499 C 0.59797 0.83246 0.48015 0.0
C500 C 0.59407 0.74006 0.52287 0.0
C501 C 0.56747 0.70495 0.51265 0.0
C502 C 0.59243 0.77374 0.52082 0.0
C503 C 0.56301 0.77202 0.50857 0.0
C504 C 0.5373 0.7371 0.49742 0.0
C505 C 0.53995 0.70395 0.49954 0.0
C506 C 0.62121 0.81081 0.53238 0.0
C507 C 0.50547 0.73402 0.48424 0.0
H508 H 0.5094 0.84125 0.53649 0.0
H509 H 0.57926 0.88764 0.48712 0.0
H510 H 0.49763 0.74836 0.53063 0.0
H511 H 0.53679 0.77716 0.5481 0.0
H512 H 0.49524 0.78244 0.54822 0.0
H513 H 0.61418 0.86031 0.47328 0.0
H514 H 0.61848 0.82455 0.48613 0.0
H515 H 0.57962 0.80977 0.46844 0.0
H516 H 0.61581 0.741 0.53274 0.0
H517 H 0.51931 0.67679 0.49165 0.0
H518 H 0.60672 0.81868 0.54393 0.0
H519 H 0.63397 0.83479 0.52252 0.0
H520 H 0.64452 0.80833 0.53962 0.0
H521 H 0.48308 0.73381 0.49351 0.0
H522 H 0.49216 0.70721 0.47416 0.0
H523 H 0.51608 0.75926 0.47526 0.0
C524 C 0.68794 0.54165 0.84928 0.0
C525 C 0.66796 0.52927 0.83086 0.0
C526 C 0.72409 0.54573 0.85179 0.0
C527 C 0.74084 0.5377 0.83542 0.0
C528 C 0.72137 0.52649 0.8166 0.0
C529 C 0.68489 0.52204 0.81458 0.0
C530 C 0.74401 0.55788 0.87207 0.0
C531 C 0.73841 0.51794 0.79876 0.0
C532 C 0.84719 0.57516 0.84133 0.0
C533 C 0.84745 0.54265 0.84752 0.0
C534 C 0.81261 0.57382 0.83691 0.0
C535 C 0.77772 0.53895 0.83842 0.0
C536 C 0.77794 0.50574 0.84412 0.0
C537 C 0.81287 0.50817 0.8489 0.0
C538 C 0.81335 0.60979 0.83094 0.0
C539 C 0.74126 0.46787 0.84561 0.0
H540 H 0.6749 0.54723 0.8619 0.0
H541 H 0.66955 0.51268 0.80028 0.0
H542 H 0.75038 0.53568 0.87682 0.0
H543 H 0.77164 0.58524 0.87164 0.0
H544 H 0.72663 0.56223 0.88331 0.0
H545 H 0.72231 0.51524 0.78482 0.0
H546 H 0.7686 0.54096 0.79775 0.0
H547 H 0.73808 0.49041 0.80019 0.0
H548 H 0.87406 0.60177 0.84024 0.0
H549 H 0.81323 0.48296 0.85347 0.0
H550 H 0.80033 0.61976 0.84239 0.0
H551 H 0.79609 0.60342 0.81695 0.0
H552 H 0.84283 0.63369 0.829 0.0
H553 H 0.72631 0.47025 0.8587 0.0
H554 H 0.7465 0.44351 0.84709 0.0
H555 H 0.72179 0.46094 0.83244 0.0
C556 C 0.15366 0.69156 0.17774 0.0
C557 C 0.14662 0.666 0.16114 0.0
C558 C 0.18747 0.72745 0.18016 0.0
C559 C 0.21479 0.73825 0.16552 0.0
C560 C 0.20757 0.71291 0.14853 0.0
C561 C 0.17357 0.67699 0.14657 0.0
C562 C 0.19414 0.75358 0.19856 0.0
C563 C 0.23623 0.72323 0.13276 0.0
C564 C 0.28669 0.84566 0.17037 0.0
C565 C 0.31546 0.84651 0.18237 0.0
C566 C 0.25465 0.81019 0.16343 0.0
C567 C 0.25166 0.77522 0.16874 0.0
C568 C 0.28231 0.77616 0.17947 0.0
C569 C 0.31381 0.81187 0.18619 0.0
C570 C 0.22279 0.81018 0.15169 0.0
C571 C 0.28042 0.73975 0.1856 0.0
H572 H 0.13299 0.68329 0.18906 0.0
H573 H 0.16844 0.65728 0.13374 0.0
H574 H 0.22204 0.76218 0.20609 0.0
H575 H 0.19511 0.78036 0.19447 0.0
H576 H 0.17141 0.73962 0.20918 0.0
H577 H 0.22454 0.70241 0.11949 0.0
H578 H 0.24557 0.75265 0.12825 0.0
H579 H 0.26195 0.72346 0.13873 0.0
H580 H 0.28802 0.87256 0.16751 0.0
H581 H 0.33624 0.81275 0.19549 0.0
H582 H 0.19827 0.80245 0.16115 0.0
H583 H 0.2126 0.78821 0.13893 0.0
H584 H 0.23183 0.83888 0.1462 0.0
H585 H 0.26277 0.73007 0.19866 0.0
H586 H 0.30924 0.74465 0.18968 0.0
H587 H 0.26695 0.71603 0.17371 0.0
C588 C 0.56297 0.18902 0.47625 0.0
C589 C 0.54798 0.16354 0.4912 0.0
C590 C 0.56562 0.22526 0.47811 0.0
C591 C 0.55302 0.23612 0.49532 0.0
C592 C 0.53612 0.2097 0.50999 0.0
C593 C 0.53374 0.17368 0.50773 0.0
C594 C 0.58387 0.25261 0.46217 0.0
C595 C 0.52189 0.22007 0.52847 0.0
C596 C 0.59888 0.33949 0.51663 0.0
C597 C 0.56945 0.34753 0.51345 0.0
C598 C 0.59484 0.30405 0.50968 0.0
C599 C 0.56067 0.27619 0.49911 0.0
C600 C 0.53228 0.28542 0.49435 0.0
C601 C 0.53701 0.32114 0.5016 0.0
C602 C 0.62579 0.29528 0.51509 0.0
C603 C 0.496 0.25667 0.48263 0.0
H604 H 0.57405 0.18136 0.46342 0.0
H605 H 0.52179 0.15392 0.51923 0.0
H606 H 0.56787 0.2675 0.45893 0.0
H607 H 0.61335 0.27512 0.46731 0.0
H608 H 0.58544 0.23746 0.4483 0.0
H609 H 0.51034 0.19656 0.53866 0.0
H610 H 0.54541 0.24656 0.53647 0.0
H611 H 0.49906 0.22634 0.52448 0.0
H612 H 0.62429 0.3602 0.52549 0.0
H613 H 0.51423 0.3273 0.49908 0.0
H614 H 0.63332 0.28326 0.50193 0.0
H615 H 0.61519 0.27312 0.52601 0.0
H616 H 0.65208 0.3213 0.5216 0.0
H617 H 0.50298 0.24702 0.46845 0.0
H618 H 0.47745 0.26889 0.47944 0.0
H619 H 0.47965 0.23068 0.49089 0.0
C620 C 0.35035 0.50587 0.84969 0.0
C621 C 0.38368 0.53266 0.84129 0.0
C622 C 0.31776 0.50938 0.84895 0.0
C623 C 0.31951 0.54165 0.84055 0.0
C624 C 0.35298 0.56818 0.83153 0.0
C625 C 0.38441 0.56261 0.83149 0.0
C626 C 0.28208 0.47956 0.858 0.0
C627 C 0.35675 0.60397 0.82335 0.0
C628 C 0.22378 0.53638 0.83511 0.0
C629 C 0.22276 0.55325 0.85359 0.0
C630 C 0.2564 0.53465 0.82994 0.0
C631 C 0.28817 0.54993 0.84365 0.0
C632 C 0.28828 0.56973 0.8616 0.0
C633 C 0.25572 0.57147 0.86623 0.0
C634 C 0.25594 0.51419 0.81048 0.0
C635 C 0.32144 0.58621 0.87673 0.0
H636 H 0.35002 0.48251 0.85705 0.0
H637 H 0.41029 0.58298 0.82484 0.0
H638 H 0.27556 0.49316 0.87091 0.0
H639 H 0.25742 0.4678 0.84713 0.0
H640 H 0.28491 0.4552 0.86293 0.0
H641 H 0.38227 0.6186 0.81442 0.0
H642 H 0.33093 0.59688 0.81414 0.0
H643 H 0.3595 0.62463 0.83576 0.0
H644 H 0.19841 0.52247 0.82527 0.0
H645 H 0.2552 0.5852 0.88037 0.0
H646 H 0.25409 0.48633 0.81315 0.0
H647 H 0.28282 0.53165 0.80297 0.0
H648 H 0.2314 0.50825 0.80047 0.0
H649 H 0.32146 0.56221 0.88399 0.0
H650 H 0.31963 0.60585 0.88834 0.0
H651 H 0.34907 0.60228 0.86964 0.0
C652 C 0.84737 0.34295 0.18977 0.0
C653 C 0.85438 0.37361 0.17851 0.0
C654 C 0.81091 0.31006 0.18945 0.0
C655 C 0.7806 0.3084 0.178 0.0
C656 C 0.78776 0.33904 0.16623 0.0
C657 C 0.82479 0.37119 0.16646 0.0
C658 C 0.80467 0.27746 0.20171 0.0
C659 C 0.75605 0.33889 0.15424 0.0
C660 C 0.69051 0.21022 0.16914 0.0
C661 C 0.6683 0.21145 0.1845 0.0
C662 C 0.72676 0.24199 0.16646 0.0
C663 C 0.74107 0.27573 0.17946 0.0
C664 C 0.71836 0.27757 0.19463 0.0
C665 C 0.68231 0.24538 0.197 0.0
C666 C 0.75011 0.23916 0.15003 0.0
C667 C 0.73259 0.31317 0.20872 0.0
H668 H 0.87042 0.34487 0.19897 0.0
H669 H 0.83015 0.39527 0.15796 0.0
H670 H 0.78264 0.27231 0.2125 0.0
H671 H 0.79397 0.25044 0.19203 0.0
H672 H 0.83124 0.28345 0.20989 0.0
H673 H 0.7672 0.36183 0.14373 0.0
H674 H 0.738 0.3105 0.14585 0.0
H675 H 0.73739 0.3438 0.16434 0.0
H676 H 0.68001 0.18398 0.15953 0.0
H677 H 0.66506 0.24675 0.20871 0.0
H678 H 0.77665 0.24156 0.15636 0.0
H679 H 0.75877 0.26344 0.14052 0.0
H680 H 0.73423 0.21153 0.14068 0.0
H681 H 0.75679 0.31672 0.21824 0.0
H682 H 0.71 0.3115 0.21836 0.0
H683 H 0.74338 0.33938 0.20046 0.0
C684 C 0.01495 0.50633 0.1063 0.0
C685 C 0.00232 0.52875 0.11656 0.0
C686 C 0.02068 0.50892 0.08598 0.0
C687 C 0.01244 0.53366 0.07562 0.0
C688 C 0.9994 0.5562 0.086 0.0
C689 C 0.99513 0.55395 0.10644 0.0
C690 C 0.03564 0.48528 0.07562 0.0
C691 C 0.98856 0.58156 0.07541 0.0
C692 C 0.05007 0.56221 0.02452 0.0
C693 C 0.01801 0.53634 0.01227 0.0
C694 C 0.04893 0.56146 0.04522 0.0
C695 C 0.01508 0.53406 0.05376 0.0
C696 C 0.98318 0.50718 0.04136 0.0
C697 C 0.98517 0.5085 0.02084 0.0
C698 C 0.08341 0.59066 0.05801 0.0
C699 C 0.9466 0.47733 0.04976 0.0
H700 H 0.02095 0.48724 0.11427 0.0
H701 H 0.98506 0.57103 0.11444 0.0
H702 H 0.01591 0.46688 0.06301 0.0
H703 H 0.06361 0.50487 0.06955 0.0
H704 H 0.03939 0.46647 0.08565 0.0
H705 H 0.9824 0.59993 0.08582 0.0
H706 H 0.01171 0.60048 0.06597 0.0
H707 H 0.96271 0.56313 0.06559 0.0
H708 H 0.07541 0.58393 0.01795 0.0
H709 H 0.96052 0.48816 0.01139 0.0
H710 H 0.09264 0.57563 0.06795 0.0
H711 H 0.0759 0.60907 0.06752 0.0
H712 H 0.10778 0.6096 0.04916 0.0
H713 H 0.95171 0.45637 0.05718 0.0
H714 H 0.92325 0.46114 0.03819 0.0
H715 H 0.93691 0.49125 0.06102 0.0
C716 C 0.51851 0.03852 0.44226 0.0
C717 C 0.53927 0.02232 0.44974 0.0
C718 C 0.51766 0.04402 0.4221 0.0
C719 C 0.53826 0.03329 0.40908 0.0
C720 C 0.55989 0.01764 0.41658 0.0
C721 C 0.55998 0.01217 0.43681 0.0
C722 C 0.49398 0.06048 0.4147 0.0
C723 C 0.58343 0.00725 0.40331 0.0
C724 C 0.5088 0.01314 0.35425 0.0
C725 C 0.53467 0.04842 0.34679 0.0
C726 C 0.50949 0.00793 0.3745 0.0
C727 C 0.53713 0.03844 0.38759 0.0
C728 C 0.56344 0.07397 0.38018 0.0
C729 C 0.56146 0.07872 0.36 0.0
C730 C 0.48075 0.9697 0.3819 0.0
C731 C 0.59347 0.10727 0.39357 0.0
H732 H 0.50234 0.04639 0.45213 0.0
H733 H 0.57649 1.00011 0.4425 0.0
H734 H 0.51108 0.08493 0.4056 0.0
H735 H 0.46954 0.03795 0.40514 0.0
H736 H 0.48265 0.07076 0.42695 0.0
H737 H 0.59641 0.9928 0.41114 0.0
H738 H 0.56563 0.9879 0.3904 0.0
H739 H 0.60668 0.03388 0.39758 0.0
H740 H 0.4883 0.98932 0.34424 0.0
H741 H 0.58094 0.10648 0.3546 0.0
H742 H 0.4641 0.97433 0.39346 0.0
H743 H 0.49576 0.95631 0.38878 0.0
H744 H 0.46058 0.94912 0.36992 0.0
H745 H 0.57971 0.11994 0.4029 0.0
H746 H 0.61545 0.1304 0.38512 0.0
H747 H 0.60793 0.09722 0.40358 0.0
C748 C 0.56685 0.52766 0.77304 0.0
C749 C 0.53671 0.53083 0.78095 0.0
C750 C 0.57072 0.52587 0.75257 0.0
C751 C 0.54474 0.529 0.73978 0.0
C752 C 0.51436 0.53242 0.74771 0.0
C753 C 0.51034 0.53263 0.76818 0.0
C754 C 0.60303 0.52136 0.74477 0.0
C755 C 0.48637 0.53642 0.7346 0.0
C756 C 0.57603 0.57061 0.69041 0.0
C757 C 0.55475 0.53808 0.67712 0.0
C758 C 0.57398 0.56778 0.71084 0.0
C759 C 0.55056 0.53136 0.71823 0.0
C760 C 0.53081 0.49795 0.70496 0.0
C761 C 0.53305 0.5017 0.6845 0.0
C762 C 0.59547 0.60412 0.72447 0.0
C763 C 0.50676 0.45844 0.71238 0.0
H764 H 0.58727 0.52616 0.78282 0.0
H765 H 0.48708 0.53522 0.77424 0.0
H766 H 0.59331 0.50082 0.73141 0.0
H767 H 0.62615 0.54966 0.74053 0.0
H768 H 0.61524 0.511 0.75599 0.0
H769 H 0.46641 0.54212 0.74321 0.0
H770 H 0.50186 0.56034 0.72492 0.0
H771 H 0.46937 0.50949 0.72489 0.0
H772 H 0.59372 0.59864 0.6848 0.0
H773 H 0.51671 0.4764 0.67432 0.0
H774 H 0.6144 0.60106 0.73522 0.0
H775 H 0.57493 0.60894 0.73303 0.0
H776 H 0.61313 0.63006 0.71635 0.0
H777 H 0.52494 0.45168 0.72174 0.0
H778 H 0.4927 0.4354 0.70015 0.0
H779 H 0.4844 0.45801 0.72175 0.0
C780 C 0.58576 0.04935 0.57269 0.0
C781 C 0.55351 0.02307 0.56079 0.0
C782 C 0.58492 0.04996 0.59339 0.0
C783 C 0.55062 0.02449 0.60225 0.0
C784 C 0.51787 0.9982 0.59013 0.0
C785 C 0.51991 0.99747 0.56954 0.0
C786 C 0.62081 0.07739 0.60574 0.0
C787 C 0.48043 0.97134 0.59889 0.0
C788 C 0.55289 0.99721 0.65455 0.0
C789 C 0.54024 0.01929 0.66534 0.0
C790 C 0.55696 0.99913 0.63413 0.0
C791 C 0.54901 0.02437 0.62415 0.0
C792 C 0.53771 0.04793 0.63499 0.0
C793 C 0.5334 0.04509 0.65545 0.0
C794 C 0.56871 0.97324 0.62312 0.0
C795 C 0.52961 0.07568 0.62488 0.0
H796 H 0.61174 0.06901 0.5658 0.0
H797 H 0.49485 0.97758 0.56021 0.0
H798 H 0.61482 0.0941 0.61729 0.0
H799 H 0.63134 0.06064 0.61338 0.0
H800 H 0.64387 0.09792 0.5967 0.0
H801 H 0.45861 0.95063 0.58751 0.0
H802 H 0.48465 0.95477 0.61014 0.0
H803 H 0.46917 0.98857 0.60642 0.0
H804 H 0.55932 0.97798 0.66208 0.0
H805 H 0.52361 0.06226 0.66358 0.0
H806 H 0.59477 0.99084 0.61505 0.0
H807 H 0.54581 0.95341 0.61199 0.0
H808 H 0.57443 0.95562 0.6331 0.0
H809 H 0.5559 0.09757 0.61825 0.0
H810 H 0.51961 0.09087 0.6352 0.0
H811 H 0.50761 0.06005 0.61266 0.0
C812 C 0.48027 0.52037 0.90226 0.0
C813 C 0.51282 0.52297 0.89389 0.0
C814 C 0.47602 0.51927 0.92273 0.0
C815 C 0.50467 0.51998 0.93518 0.0
C816 C 0.53723 0.52169 0.92679 0.0
C817 C 0.54102 0.52343 0.90629 0.0
C818 C 0.44135 0.51847 0.93105 0.0
C819 C 0.56792 0.52124 0.93941 0.0
C820 C 0.51539 0.55391 0.98967 0.0
C821 C 0.49691 0.51881 0.99848 0.0
C822 C 0.51728 0.55471 0.96905 0.0
C823 C 0.50089 0.51951 0.95701 0.0
C824 C 0.48174 0.48395 0.96589 0.0
C825 C 0.47976 0.48405 0.98654 0.0
C826 C 0.53781 0.5932 0.96019 0.0
C827 C 0.46421 0.44584 0.95359 0.0
H828 H 0.45834 0.51997 0.89288 0.0
H829 H 0.56604 0.52488 0.89995 0.0
H830 H 0.42739 0.49499 0.94111 0.0
H831 H 0.45034 0.54614 0.93985 0.0
H832 H 0.42001 0.51437 0.9193 0.0
H833 H 0.59303 0.52636 0.93091 0.0
H834 H 0.57773 0.54353 0.952 0.0
H835 H 0.55603 0.49276 0.94565 0.0
H836 H 0.52917 0.58074 0.99899 0.0
H837 H 0.4661 0.45694 0.99345 0.0
H838 H 0.51864 0.59503 0.94905 0.0
H839 H 0.56288 0.59598 0.95245 0.0
H840 H 0.54783 0.61791 0.9715 0.0
H841 H 0.44075 0.44278 0.94366 0.0
H842 H 0.45255 0.42082 0.96281 0.0
H843 H 0.48581 0.44487 0.94411 0.0
C844 C 0.03656 0.54427 0.24004 0.0
C845 C 0.00246 0.5206 0.2287 0.0
C846 C 0.03772 0.54441 0.2607 0.0
C847 C 0.00392 0.52047 0.27029 0.0
C848 C 0.96934 0.49667 0.25894 0.0
C849 C 0.96906 0.49695 0.23829 0.0
C850 C 0.07529 0.56965 0.27222 0.0
C851 C 0.93244 0.47135 0.26857 0.0
C852 C 0.01133 0.49023 0.32125 0.0
C853 C 0.00513 0.51571 0.3335 0.0
C854 C 0.01161 0.49192 0.3007 0.0
C855 C 0.00499 0.51943 0.29215 0.0
C856 C 0.99899 0.54547 0.30446 0.0
C857 C -0.00038 0.54362 0.32506 0.0
C858 C 0.01816 0.4637 0.2881 0.0
C859 C 0.99135 0.57486 0.29586 0.0
H860 H 0.06254 0.56248 0.23274 0.0
H861 H 0.94245 0.47902 0.22969 0.0
H862 H 0.07203 0.58731 0.28438 0.0
H863 H 0.08465 0.55114 0.27902 0.0
H864 H 0.09808 0.5893 0.26278 0.0
H865 H 0.90909 0.4515 0.25762 0.0
H866 H 0.93644 0.45385 0.27934 0.0
H867 H 0.92339 0.48983 0.27683 0.0
H868 H 0.01567 0.46869 0.32781 0.0
H869 H 0.99444 0.56306 0.33452 0.0
H870 H 0.04271 0.47958 0.27874 0.0
H871 H 0.99271 0.4452 0.27804 0.0
H872 H 0.02387 0.44477 0.29707 0.0
H873 H 0.01714 0.59629 0.28871 0.0
H874 H 0.98368 0.59048 0.30725 0.0
H875 H 0.9678 0.5606 0.2843 0.0
loop_
_geom_bond_atom_site_label_1
_geom_bond_atom_site_label_2
_geom_bond_distance
_geom_bond_site_symmetry_2
_ccdc_geom_bond_type
Zn0 O6 1.969 . S
Zn0 O7 1.965 . S
Zn0 O11 2.024 . S
Zn0 O16 1.969 . S
Zn1 O8 1.969 . S
Zn1 O14 1.969 . S
Zn1 O15 1.965 . S
Zn1 O17 2.024 . S
C2 O3 1.229 . S
C2 O11 1.058 . S
O3 C2 1.229 . S
C4 O5 1.229 . S
C4 O17 1.058 . S
O5 C4 1.229 . S
O6 Zn0 1.969 . S
O6 C9 1.267 . S
O7 Zn0 1.965 . S
O7 C18 1.260 1_455 S
O8 Zn1 1.969 . S
O8 C18 1.258 . S
C9 O6 1.267 . S
C9 O10 1.228 . S
O10 C9 1.228 . S
O11 Zn0 2.024 . S
O11 C2 1.058 . S
C12 O13 1.228 . S
C12 O14 1.267 . S
O13 C12 1.228 . S
O14 Zn1 1.969 . S
O14 C12 1.267 . S
O15 Zn1 1.965 . S
O15 C19 1.260 1_655 S
O16 Zn0 1.969 . S
O16 C19 1.258 . S
O17 Zn1 2.024 . S
O17 C4 1.058 . S
C18 O7 1.260 1_655 S
C18 O8 1.258 . S
C19 O15 1.260 1_455 S
C19 O16 1.258 . S
Zn20 O26 1.969 . S
Zn20 O27 1.965 . S
Zn20 O31 2.024 . S
Zn20 O36 1.969 . S
Zn21 O28 1.969 . S
Zn21 O34 1.969 . S
Zn21 O35 1.965 . S
Zn21 O37 2.024 . S
C22 O23 1.229 . S
C22 O31 1.058 . S
O23 C22 1.229 . S
C24 O25 1.229 . S
C24 O37 1.058 . S
O25 C24 1.229 . S
O26 Zn20 1.969 . S
O26 C29 1.267 . S
O27 Zn20 1.965 . S
O27 C38 1.260 . S
O28 Zn21 1.969 . S
O28 C38 1.258 1_565 S
C29 O26 1.267 . S
C29 O30 1.228 . S
O30 C29 1.228 . S
O31 Zn20 2.024 . S
O31 C22 1.058 . S
C32 O33 1.228 . S
C32 O34 1.267 . S
O33 C32 1.228 . S
O34 Zn21 1.969 . S
O34 C32 1.267 . S
O35 Zn21 1.965 . S
O35 C39 1.260 1_565 S
O36 Zn20 1.969 . S
O36 C39 1.258 . S
O37 Zn21 2.024 . S
O37 C24 1.058 . S
C38 O27 1.260 . S
C38 O28 1.258 1_545 S
C39 O35 1.260 1_545 S
C39 O36 1.258 . S
Zn40 O46 1.969 . S
Zn40 O47 1.965 . S
Zn40 O51 2.024 . S
Zn40 O56 1.969 . S
Zn41 O48 1.969 . S
Zn41 O54 1.969 . S
Zn41 O55 1.965 . S
Zn41 O57 2.024 . S
C42 O43 1.229 . S
C42 O51 1.058 . S
O43 C42 1.229 . S
C44 O45 1.229 . S
C44 O57 1.058 . S
O45 C44 1.229 . S
O46 Zn40 1.969 . S
O46 C49 1.267 . S
O47 Zn40 1.965 . S
O47 C58 1.260 . S
O48 Zn41 1.969 . S
O48 C58 1.258 . S
C49 O46 1.267 . S
C49 O50 1.228 . S
O50 C49 1.228 . S
O51 Zn40 2.024 . S
O51 C42 1.058 . S
C52 O53 1.228 . S
C52 O54 1.267 . S
O53 C52 1.228 . S
O54 Zn41 1.969 . S
O54 C52 1.267 . S
O55 Zn41 1.965 . S
O55 C59 1.260 . S
O56 Zn40 1.969 . S
O56 C59 1.258 . S
O57 Zn41 2.024 . S
O57 C44 1.058 . S
C58 O47 1.260 . S
C58 O48 1.258 . S
C59 O55 1.260 . S
C59 O56 1.258 . S
C60 C61 1.264 . S
C60 C65 1.479 . S
C60 C70 1.465 . S
C61 C60 1.264 . S
C61 C63 1.339 . S
C61 H88 0.931 . S
C62 C63 1.395 . S
C62 C64 1.320 . S
C63 C61 1.339 . S
C63 C62 1.395 . S
C63 H89 0.929 . S
C64 C62 1.320 . S
C64 C65 1.405 . S
C64 H90 0.930 . S
C65 C60 1.479 . S
C65 C64 1.405 . S
C65 H91 0.931 . S
U66 O67 2.451 1_545 S
U66 O68 2.458 1_545 S
U66 C69 2.984 1_545 S
U66 C70 2.847 . S
U66 C83 2.882 . S
U66 O84 2.441 . S
U66 O85 2.420 . S
U66 O86 2.455 . S
U66 O87 2.449 . S
O67 U66 2.451 1_565 S
O67 C69 1.357 . S
O68 U66 2.458 1_565 S
O68 C69 1.286 . S
C69 U66 2.984 1_565 S
C69 O67 1.357 . S
C69 O68 1.286 . S
C69 C71 1.363 . S
C70 C60 1.465 . S
C70 U66 2.847 . S
C70 O84 1.249 . S
C70 O85 1.202 . S
C71 C69 1.363 . S
C71 C73 1.408 . S
C71 C76 1.342 . S
C72 C73 1.310 . S
C72 C75 1.461 . S
C72 H92 0.932 . S
C73 C71 1.408 . S
C73 C72 1.310 . S
C73 H93 0.930 . S
C74 C75 1.474 . S
C74 C76 1.285 . S
C74 H94 0.929 . S
C75 C72 1.461 . S
C75 C74 1.474 . S
C76 C71 1.342 . S
C76 C74 1.285 . S
C76 H95 0.930 . S
C77 C80 1.424 . S
C77 C82 1.245 . S
C77 C83 1.428 . S
C78 C81 1.260 . S
C78 C82 1.477 . S
C78 H96 0.932 1_545 S
C79 C80 1.384 . S
C79 C81 1.479 . S
C79 H97 0.929 . S
C80 C77 1.424 . S
C80 C79 1.384 . S
C80 H98 0.928 . S
C81 C78 1.260 . S
C81 C79 1.479 . S
C82 C77 1.245 . S
C82 C78 1.477 . S
C82 H99 0.932 1_545 S
C83 U66 2.882 . S
C83 C77 1.428 . S
C83 O86 1.301 . S
C83 O87 1.282 . S
O84 U66 2.441 . S
O84 C70 1.249 . S
O85 U66 2.420 . S
O85 C70 1.202 . S
O86 U66 2.455 . S
O86 C83 1.301 . S
O87 U66 2.449 . S
O87 C83 1.282 . S
H88 C61 0.931 . S
H89 C63 0.929 . S
H90 C64 0.930 . S
H91 C65 0.931 . S
H92 C72 0.932 . S
H93 C73 0.930 . S
H94 C74 0.929 . S
H95 C76 0.930 . S
H96 C78 0.932 1_565 S
H97 C79 0.929 . S
H98 C80 0.928 . S
H99 C82 0.932 1_565 S
C100 C101 1.264 . S
C100 C105 1.479 . S
C100 C110 1.465 . S
C101 C100 1.264 . S
C101 C103 1.339 . S
C101 H128 0.931 . S
C102 C103 1.395 . S
C102 C104 1.320 . S
C103 C101 1.339 . S
C103 C102 1.395 . S
C103 H129 0.929 . S
C104 C102 1.320 . S
C104 C105 1.405 . S
C104 H130 0.930 . S
C105 C100 1.479 . S
C105 C104 1.405 . S
C105 H131 0.931 . S
U106 O107 2.454 . S
U106 O108 2.458 . S
U106 C109 2.984 . S
U106 C110 2.847 . S
U106 C123 2.882 . S
U106 O124 2.441 . S
U106 O125 2.420 . S
U106 O126 2.455 . S
U106 O127 2.449 . S
O107 U106 2.454 . S
O107 C109 1.353 . S
O108 U106 2.458 . S
O108 C109 1.286 . S
C109 U106 2.984 . S
C109 O107 1.353 . S
C109 O108 1.286 . S
C109 C111 1.363 . S
C110 C100 1.465 . S
C110 U106 2.847 . S
C110 O124 1.249 . S
C110 O125 1.202 . S
C111 C109 1.363 . S
C111 C113 1.408 . S
C111 C116 1.342 . S
C112 C113 1.310 . S
C112 C115 1.461 . S
C112 H132 0.932 . S
C113 C111 1.408 . S
C113 C112 1.310 . S
C113 H133 0.930 . S
C114 C115 1.474 . S
C114 C116 1.285 . S
C114 H134 0.929 . S
C115 C112 1.461 . S
C115 C114 1.474 . S
C116 C111 1.342 . S
C116 C114 1.285 . S
C116 H135 0.930 . S
C117 C120 1.424 . S
C117 C122 1.245 . S
C117 C123 1.428 . S
C118 C121 1.260 . S
C118 C122 1.477 . S
C118 H136 0.932 . S
C119 C120 1.384 . S
C119 C121 1.479 . S
C119 H137 0.929 . S
C120 C117 1.424 . S
C120 C119 1.384 . S
C120 H138 0.928 . S
C121 C118 1.260 . S
C121 C119 1.479 . S
C122 C117 1.245 . S
C122 C118 1.477 . S
C122 H139 0.932 . S
C123 U106 2.882 . S
C123 C117 1.428 . S
C123 O126 1.301 . S
C123 O127 1.282 . S
O124 U106 2.441 . S
O124 C110 1.249 . S
O125 U106 2.420 . S
O125 C110 1.202 . S
O126 U106 2.455 . S
O126 C123 1.301 . S
O127 U106 2.449 . S
O127 C123 1.282 . S
H128 C101 0.931 . S
H129 C103 0.929 . S
H130 C104 0.930 . S
H131 C105 0.931 . S
H132 C112 0.932 . S
H133 C113 0.930 . S
H134 C114 0.929 . S
H135 C116 0.930 . S
H136 C118 0.932 . S
H137 C119 0.929 . S
H138 C120 0.928 . S
H139 C122 0.932 . S
C140 C141 1.264 . S
C140 C145 1.479 . S
C140 C150 1.465 . S
C141 C140 1.264 . S
C141 C143 1.339 . S
C141 H168 0.931 . S
C142 C143 1.395 . S
C142 C144 1.320 . S
C143 C141 1.339 . S
C143 C142 1.395 . S
C143 H169 0.929 . S
C144 C142 1.320 . S
C144 C145 1.405 . S
C144 H170 0.930 . S
C145 C140 1.479 . S
C145 C144 1.405 . S
C145 H171 0.931 . S
U146 O147 2.454 . S
U146 O148 2.458 . S
U146 C149 2.984 . S
U146 C150 2.847 1_455 S
U146 C163 2.882 . S
U146 O164 2.441 1_455 S
U146 O165 2.420 1_455 S
U146 O166 2.455 . S
U146 O167 2.449 1_455 S
O147 U146 2.454 . S
O147 C149 1.353 . S
O148 U146 2.458 . S
O148 C149 1.286 . S
C149 U146 2.984 . S
C149 O147 1.353 . S
C149 O148 1.286 . S
C149 C151 1.363 . S
C150 C140 1.465 . S
C150 U146 2.847 1_655 S
C150 O164 1.249 . S
C150 O165 1.202 . S
C151 C149 1.363 . S
C151 C153 1.408 . S
C151 C156 1.342 . S
C152 C153 1.310 . S
C152 C155 1.461 . S
C152 H172 0.932 . S
C153 C151 1.408 . S
C153 C152 1.310 . S
C153 H173 0.930 . S
C154 C155 1.474 . S
C154 C156 1.285 . S
C154 H174 0.929 . S
C155 C152 1.461 . S
C155 C154 1.474 . S
C156 C151 1.342 . S
C156 C154 1.285 . S
C156 H175 0.930 . S
C157 C160 1.424 1_455 S
C157 C162 1.245 . S
C157 C163 1.428 . S
C158 C161 1.260 . S
C158 C162 1.477 . S
C158 H176 0.932 . S
C159 C160 1.384 . S
C159 C161 1.479 1_655 S
C159 H177 0.929 . S
C160 C157 1.424 1_655 S
C160 C159 1.384 . S
C160 H178 0.928 . S
C161 C158 1.260 . S
C161 C159 1.479 1_455 S
C162 C157 1.245 . S
C162 C158 1.477 . S
C162 H179 0.932 . S
C163 U146 2.882 . S
C163 C157 1.428 . S
C163 O166 1.301 . S
C163 O167 1.282 1_455 S
O164 U146 2.441 1_655 S
O164 C150 1.249 . S
O165 U146 2.420 1_655 S
O165 C150 1.202 . S
O166 U146 2.455 . S
O166 C163 1.301 . S
O167 U146 2.449 1_655 S
O167 C163 1.282 1_655 S
H168 C141 0.931 . S
H169 C143 0.929 . S
H170 C144 0.930 . S
H171 C145 0.931 . S
H172 C152 0.932 . S
H173 C153 0.930 . S
H174 C154 0.929 . S
H175 C156 0.930 . S
H176 C158 0.932 . S
H177 C159 0.929 . S
H178 C160 0.928 . S
H179 C162 0.932 . S
C180 C181 1.264 . S
C180 C185 1.479 . S
C180 C190 1.465 . S
C181 C180 1.264 . S
C181 C183 1.339 . S
C181 H208 0.931 . S
C182 C183 1.395 . S
C182 C184 1.320 . S
C183 C181 1.339 . S
C183 C182 1.395 . S
C183 H209 0.929 . S
C184 C182 1.320 . S
C184 C185 1.405 . S
C184 H210 0.930 . S
C185 C180 1.479 . S
C185 C184 1.405 . S
C185 H211 0.931 . S
U186 O187 2.454 . S
U186 O188 2.458 . S
U186 C189 2.984 . S
U186 C190 2.847 1_455 S
U186 C203 2.882 . S
U186 O204 2.441 1_455 S
U186 O205 2.420 1_455 S
U186 O206 2.455 . S
U186 O207 2.449 1_455 S
O187 U186 2.454 . S
O187 C189 1.353 . S
O188 U186 2.458 . S
O188 C189 1.286 . S
C189 U186 2.984 . S
C189 O187 1.353 . S
C189 O188 1.286 . S
C189 C191 1.363 . S
C190 C180 1.465 . S
C190 U186 2.847 1_655 S
C190 O204 1.249 . S
C190 O205 1.202 . S
C191 C189 1.363 . S
C191 C193 1.408 . S
C191 C196 1.342 . S
C192 C193 1.310 . S
C192 C195 1.461 . S
C192 H212 0.932 . S
C193 C191 1.408 . S
C193 C192 1.310 . S
C193 H213 0.930 . S
C194 C195 1.474 . S
C194 C196 1.285 . S
C194 H214 0.929 . S
C195 C192 1.461 . S
C195 C194 1.474 . S
C196 C191 1.342 . S
C196 C194 1.285 . S
C196 H215 0.930 . S
C197 C200 1.424 1_455 S
C197 C202 1.245 . S
C197 C203 1.428 . S
C198 C201 1.260 . S
C198 C202 1.477 . S
C198 H216 0.932 . S
C199 C200 1.384 . S
C199 C201 1.479 1_655 S
C199 H217 0.929 . S
C200 C197 1.424 1_655 S
C200 C199 1.384 . S
C200 H218 0.928 . S
C201 C198 1.260 . S
C201 C199 1.479 1_455 S
C202 C197 1.245 . S
C202 C198 1.477 . S
C202 H219 0.932 . S
C203 U186 2.882 . S
C203 C197 1.428 . S
C203 O206 1.301 . S
C203 O207 1.282 1_455 S
O204 U186 2.441 1_655 S
O204 C190 1.249 . S
O205 U186 2.420 1_655 S
O205 C190 1.202 . S
O206 U186 2.455 . S
O206 C203 1.301 . S
O207 U186 2.449 1_655 S
O207 C203 1.282 1_655 S
H208 C181 0.931 . S
H209 C183 0.929 . S
H210 C184 0.930 . S
H211 C185 0.931 . S
H212 C192 0.932 . S
H213 C193 0.930 . S
H214 C194 0.929 . S
H215 C196 0.930 . S
H216 C198 0.932 . S
H217 C199 0.929 . S
H218 C200 0.928 . S
H219 C202 0.932 . S
C220 C221 1.264 . S
C220 C225 1.479 . S
C220 C230 1.465 . S
C221 C220 1.264 . S
C221 C223 1.339 . S
C221 H248 0.931 . S
C222 C223 1.395 . S
C222 C224 1.320 . S
C223 C221 1.339 . S
C223 C222 1.395 . S
C223 H249 0.929 . S
C224 C222 1.320 . S
C224 C225 1.405 . S
C224 H250 0.930 . S
C225 C220 1.479 . S
C225 C224 1.405 . S
C225 H251 0.931 . S
U226 O227 2.454 . S
U226 O228 2.458 . S
U226 C229 2.984 . S
U226 C230 2.847 1_545 S
U226 C243 2.882 . S
U226 O244 2.441 1_545 S
U226 O245 2.420 1_545 S
U226 O246 2.455 . S
U226 O247 2.449 1_545 S
O227 U226 2.454 . S
O227 C229 1.353 . S
O228 U226 2.458 . S
O228 C229 1.286 . S
C229 U226 2.984 . S
C229 O227 1.353 . S
C229 O228 1.286 . S
C229 C231 1.363 . S
C230 C220 1.465 . S
C230 U226 2.847 1_565 S
C230 O244 1.249 . S
C230 O245 1.202 . S
C231 C229 1.363 . S
C231 C233 1.408 . S
C231 C236 1.342 . S
C232 C233 1.310 . S
C232 C235 1.461 . S
C232 H252 0.932 . S
C233 C231 1.408 . S
C233 C232 1.310 . S
C233 H253 0.930 . S
C234 C235 1.474 . S
C234 C236 1.285 . S
C234 H254 0.929 . S
C235 C232 1.461 . S
C235 C234 1.474 . S
C236 C231 1.342 . S
C236 C234 1.285 . S
C236 H255 0.930 . S
C237 C240 1.424 1_545 S
C237 C242 1.245 . S
C237 C243 1.428 . S
C238 C241 1.260 . S
C238 C242 1.477 . S
C238 H256 0.932 . S
C239 C240 1.384 . S
C239 C241 1.479 1_565 S
C239 H257 0.929 . S
C240 C237 1.424 1_565 S
C240 C239 1.384 . S
C240 H258 0.928 . S
C241 C238 1.260 . S
C241 C239 1.479 1_545 S
C242 C237 1.245 . S
C242 C238 1.477 . S
C242 H259 0.932 . S
C243 U226 2.882 . S
C243 C237 1.428 . S
C243 O246 1.301 . S
C243 O247 1.282 1_545 S
O244 U226 2.441 1_565 S
O244 C230 1.249 . S
O245 U226 2.420 1_565 S
O245 C230 1.202 . S
O246 U226 2.455 . S
O246 C243 1.301 . S
O247 U226 2.449 1_565 S
O247 C243 1.282 1_565 S
H248 C221 0.931 . S
H249 C223 0.929 . S
H250 C224 0.930 . S
H251 C225 0.931 . S
H252 C232 0.932 . S
H253 C233 0.930 . S
H254 C234 0.929 . S
H255 C236 0.930 . S
H256 C238 0.932 . S
H257 C239 0.929 . S
H258 C240 0.928 . S
H259 C242 0.932 . S
C260 C261 1.264 . S
C260 C265 1.479 . S
C260 C270 1.465 . S
C261 C260 1.264 . S
C261 C263 1.339 . S
C261 H288 0.931 . S
C262 C263 1.395 . S
C262 C264 1.320 . S
C263 C261 1.339 . S
C263 C262 1.395 . S
C263 H289 0.929 . S
C264 C262 1.320 . S
C264 C265 1.405 . S
C264 H290 0.930 . S
C265 C260 1.479 . S
C265 C264 1.405 . S
C265 H291 0.931 . S
U266 O267 2.454 . S
U266 O268 2.458 . S
U266 C269 2.984 . S
U266 C270 2.847 . S
U266 C283 2.882 . S
U266 O284 2.441 . S
U266 O285 2.420 . S
U266 O286 2.455 . S
U266 O287 2.449 . S
O267 U266 2.454 . S
O267 C269 1.353 . S
O268 U266 2.458 . S
O268 C269 1.286 . S
C269 U266 2.984 . S
C269 O267 1.353 . S
C269 O268 1.286 . S
C269 C271 1.363 . S
C270 C260 1.465 . S
C270 U266 2.847 . S
C270 O284 1.249 . S
C270 O285 1.202 . S
C271 C269 1.363 . S
C271 C273 1.408 . S
C271 C276 1.342 . S
C272 C273 1.310 . S
C272 C275 1.461 . S
C272 H292 0.932 . S
C273 C271 1.408 . S
C273 C272 1.310 . S
C273 H293 0.930 . S
C274 C275 1.474 . S
C274 C276 1.285 . S
C274 H294 0.929 . S
C275 C272 1.461 . S
C275 C274 1.474 . S
C276 C271 1.342 . S
C276 C274 1.285 . S
C276 H295 0.930 . S
C277 C280 1.424 . S
C277 C282 1.245 . S
C277 C283 1.428 . S
C278 C281 1.260 . S
C278 C282 1.477 . S
C278 H296 0.932 . S
C279 C280 1.384 . S
C279 C281 1.479 . S
C279 H297 0.929 . S
C280 C277 1.424 . S
C280 C279 1.384 . S
C280 H298 0.928 . S
C281 C278 1.260 . S
C281 C279 1.479 . S
C282 C277 1.245 . S
C282 C278 1.477 . S
C282 H299 0.932 . S
C283 U266 2.882 . S
C283 C277 1.428 . S
C283 O286 1.301 . S
C283 O287 1.282 . S
O284 U266 2.441 . S
O284 C270 1.249 . S
O285 U266 2.420 . S
O285 C270 1.202 . S
O286 U266 2.455 . S
O286 C283 1.301 . S
O287 U266 2.449 . S
O287 C283 1.282 . S
H288 C261 0.931 . S
H289 C263 0.929 . S
H290 C264 0.930 . S
H291 C265 0.931 . S
H292 C272 0.932 . S
H293 C273 0.930 . S
H294 C274 0.929 . S
H295 C276 0.930 . S
H296 C278 0.932 . S
H297 C279 0.929 . S
H298 C280 0.928 . S
H299 C282 0.932 . S
C300 C301 1.391 . S
C300 C302 1.394 . S
C300 H316 0.931 . S
C301 C300 1.391 . S
C301 C305 1.376 . S
C302 C300 1.394 . S
C302 C303 1.369 . S
C302 C306 1.531 . S
C303 C302 1.369 . S
C303 C304 1.410 . S
C303 C311 1.503 . S
C304 C303 1.410 . S
C304 C305 1.392 . S
C304 C307 1.511 . S
C305 C301 1.376 . S
C305 C304 1.392 . S
C305 H317 0.929 . S
C306 C302 1.531 . S
C306 H318 0.960 . S
C306 H319 0.962 . S
C306 H320 0.960 . S
C307 C304 1.511 . S
C307 H321 0.961 . S
C307 H322 0.961 . S
C307 H323 0.961 . S
C308 C309 1.370 . S
C308 C310 1.363 . S
C308 H324 0.931 . S
C309 C308 1.370 . S
C309 C313 1.408 . S
C310 C308 1.363 . S
C310 C311 1.370 . S
C310 C314 1.524 . S
C311 C303 1.503 . S
C311 C310 1.370 . S
C311 C312 1.403 . S
C312 C311 1.403 . S
C312 C313 1.404 . S
C312 C315 1.539 . S
C313 C309 1.408 . S
C313 C312 1.404 . S
C313 H325 0.930 . S
C314 C310 1.524 . S
C314 H326 0.956 . S
C314 H327 0.961 . S
C314 H328 0.961 . S
C315 C312 1.539 . S
C315 H329 0.958 . S
C315 H330 0.961 . S
C315 H331 0.960 . S
H316 C300 0.931 . S
H317 C305 0.929 . S
H318 C306 0.960 . S
H319 C306 0.962 . S
H320 C306 0.960 . S
H321 C307 0.961 . S
H322 C307 0.961 . S
H323 C307 0.961 . S
H324 C308 0.931 . S
H325 C313 0.930 . S
H326 C314 0.956 . S
H327 C314 0.961 . S
H328 C314 0.961 . S
H329 C315 0.958 . S
H330 C315 0.961 . S
H331 C315 0.960 . S
C332 C333 1.391 . S
C332 C334 1.394 . S
C332 H348 0.931 . S
C333 C332 1.391 . S
C333 C337 1.376 . S
C334 C332 1.394 . S
C334 C335 1.369 . S
C334 C338 1.531 . S
C335 C334 1.369 . S
C335 C336 1.410 . S
C335 C343 1.503 . S
C336 C335 1.410 . S
C336 C337 1.392 . S
C336 C339 1.511 . S
C337 C333 1.376 . S
C337 C336 1.392 . S
C337 H349 0.929 . S
C338 C334 1.531 . S
C338 H350 0.960 . S
C338 H351 0.962 . S
C338 H352 0.960 . S
C339 C336 1.511 . S
C339 H353 0.961 . S
C339 H354 0.961 . S
C339 H355 0.961 . S
C340 C341 1.370 . S
C340 C342 1.363 . S
C340 H356 0.931 . S
C341 C340 1.370 . S
C341 C345 1.408 . S
C342 C340 1.363 . S
C342 C343 1.370 . S
C342 C346 1.524 . S
C343 C335 1.503 . S
C343 C342 1.370 . S
C343 C344 1.403 . S
C344 C343 1.403 . S
C344 C345 1.404 . S
C344 C347 1.539 . S
C345 C341 1.408 . S
C345 C344 1.404 . S
C345 H357 0.930 . S
C346 C342 1.524 . S
C346 H358 0.956 . S
C346 H359 0.961 . S
C346 H360 0.961 . S
C347 C344 1.539 . S
C347 H361 0.958 . S
C347 H362 0.961 . S
C347 H363 0.960 . S
H348 C332 0.931 . S
H349 C337 0.929 . S
H350 C338 0.960 . S
H351 C338 0.962 . S
H352 C338 0.960 . S
H353 C339 0.961 . S
H354 C339 0.961 . S
H355 C339 0.961 . S
H356 C340 0.931 . S
H357 C345 0.930 . S
H358 C346 0.956 . S
H359 C346 0.961 . S
H360 C346 0.961 . S
H361 C347 0.958 . S
H362 C347 0.961 . S
H363 C347 0.960 . S
C364 C365 1.391 . S
C364 C366 1.394 . S
C364 H380 0.931 . S
C365 C364 1.391 . S
C365 C369 1.376 . S
C366 C364 1.394 . S
C366 C367 1.369 . S
C366 C370 1.531 . S
C367 C366 1.369 . S
C367 C368 1.410 . S
C367 C375 1.503 . S
C368 C367 1.410 . S
C368 C369 1.392 . S
C368 C371 1.511 . S
C369 C365 1.376 . S
C369 C368 1.392 . S
C369 H381 0.929 . S
C370 C366 1.531 . S
C370 H382 0.960 . S
C370 H383 0.962 . S
C370 H384 0.960 . S
C371 C368 1.511 . S
C371 H385 0.961 . S
C371 H386 0.961 . S
C371 H387 0.961 . S
C372 C373 1.370 . S
C372 C374 1.363 . S
C372 H388 0.931 . S
C373 C372 1.370 . S
C373 C377 1.408 . S
C374 C372 1.363 . S
C374 C375 1.370 . S
C374 C378 1.524 . S
C375 C367 1.503 . S
C375 C374 1.370 . S
C375 C376 1.403 . S
C376 C375 1.403 . S
C376 C377 1.404 . S
C376 C379 1.539 . S
C377 C373 1.408 . S
C377 C376 1.404 . S
C377 H389 0.930 . S
C378 C374 1.524 . S
C378 H390 0.956 . S
C378 H391 0.961 . S
C378 H392 0.961 . S
C379 C376 1.539 . S
C379 H393 0.958 . S
C379 H394 0.961 . S
C379 H395 0.960 . S
H380 C364 0.931 . S
H381 C369 0.929 . S
H382 C370 0.960 . S
H383 C370 0.962 . S
H384 C370 0.960 . S
H385 C371 0.961 . S
H386 C371 0.961 . S
H387 C371 0.961 . S
H388 C372 0.931 . S
H389 C377 0.930 . S
H390 C378 0.956 . S
H391 C378 0.961 . S
H392 C378 0.961 . S
H393 C379 0.958 . S
H394 C379 0.961 . S
H395 C379 0.960 . S
C396 C397 1.391 . S
C396 C398 1.394 . S
C396 H412 0.931 . S
C397 C396 1.391 . S
C397 C401 1.376 . S
C398 C396 1.394 . S
C398 C399 1.369 . S
C398 C402 1.531 . S
C399 C398 1.369 . S
C399 C400 1.410 . S
C399 C407 1.503 . S
C400 C399 1.410 . S
C400 C401 1.392 . S
C400 C403 1.511 . S
C401 C397 1.376 . S
C401 C400 1.392 . S
C401 H413 0.929 . S
C402 C398 1.531 . S
C402 H414 0.960 . S
C402 H415 0.962 . S
C402 H416 0.960 . S
C403 C400 1.511 . S
C403 H417 0.961 . S
C403 H418 0.961 . S
C403 H419 0.961 . S
C404 C405 1.370 . S
C404 C406 1.363 . S
C404 H420 0.931 . S
C405 C404 1.370 . S
C405 C409 1.408 . S
C406 C404 1.363 . S
C406 C407 1.370 . S
C406 C410 1.524 . S
C407 C399 1.503 . S
C407 C406 1.370 . S
C407 C408 1.403 . S
C408 C407 1.403 . S
C408 C409 1.404 . S
C408 C411 1.539 . S
C409 C405 1.408 . S
C409 C408 1.404 . S
C409 H421 0.930 . S
C410 C406 1.524 . S
C410 H422 0.956 . S
C410 H423 0.961 . S
C410 H424 0.961 . S
C411 C408 1.539 . S
C411 H425 0.958 . S
C411 H426 0.961 . S
C411 H427 0.960 . S
H412 C396 0.931 . S
H413 C401 0.929 . S
H414 C402 0.960 . S
H415 C402 0.962 . S
H416 C402 0.960 . S
H417 C403 0.961 . S
H418 C403 0.961 . S
H419 C403 0.961 . S
H420 C404 0.931 . S
H421 C409 0.930 . S
H422 C410 0.956 . S
H423 C410 0.961 . S
H424 C410 0.961 . S
H425 C411 0.958 . S
H426 C411 0.961 . S
H427 C411 0.960 . S
C428 C429 1.391 . S
C428 C430 1.394 . S
C428 H444 0.931 . S
C429 C428 1.391 . S
C429 C433 1.376 . S
C430 C428 1.394 . S
C430 C431 1.369 . S
C430 C434 1.531 . S
C431 C430 1.369 . S
C431 C432 1.410 . S
C431 C439 1.503 . S
C432 C431 1.410 . S
C432 C433 1.392 . S
C432 C435 1.511 . S
C433 C429 1.376 . S
C433 C432 1.392 . S
C433 H445 0.929 . S
C434 C430 1.531 . S
C434 H446 0.960 . S
C434 H447 0.962 . S
C434 H448 0.960 . S
C435 C432 1.511 . S
C435 H449 0.961 . S
C435 H450 0.961 . S
C435 H451 0.961 . S
C436 C437 1.370 . S
C436 C438 1.363 . S
C436 H452 0.931 . S
C437 C436 1.370 . S
C437 C441 1.408 . S
C438 C436 1.363 . S
C438 C439 1.370 . S
C438 C442 1.524 . S
C439 C431 1.503 . S
C439 C438 1.370 . S
C439 C440 1.403 . S
C440 C439 1.403 . S
C440 C441 1.404 . S
C440 C443 1.539 . S
C441 C437 1.408 . S
C441 C440 1.404 . S
C441 H453 0.930 . S
C442 C438 1.524 . S
C442 H454 0.956 . S
C442 H455 0.961 . S
C442 H456 0.961 . S
C443 C440 1.539 . S
C443 H457 0.958 . S
C443 H458 0.961 . S
C443 H459 0.960 . S
H444 C428 0.931 . S
H445 C433 0.929 . S
H446 C434 0.960 . S
H447 C434 0.962 . S
H448 C434 0.960 . S
H449 C435 0.961 . S
H450 C435 0.961 . S
H451 C435 0.961 . S
H452 C436 0.931 . S
H453 C441 0.930 . S
H454 C442 0.956 . S
H455 C442 0.961 . S
H456 C442 0.961 . S
H457 C443 0.958 . S
H458 C443 0.961 . S
H459 C443 0.960 . S
C460 C461 1.391 . S
C460 C462 1.394 . S
C460 H476 0.931 . S
C461 C460 1.391 . S
C461 C465 1.376 . S
C462 C460 1.394 . S
C462 C463 1.369 . S
C462 C466 1.531 . S
C463 C462 1.369 . S
C463 C464 1.410 . S
C463 C471 1.503 . S
C464 C463 1.410 . S
C464 C465 1.392 . S
C464 C467 1.511 . S
C465 C461 1.376 . S
C465 C464 1.392 . S
C465 H477 0.929 . S
C466 C462 1.531 . S
C466 H478 0.960 . S
C466 H479 0.962 . S
C466 H480 0.960 . S
C467 C464 1.511 . S
C467 H481 0.961 . S
C467 H482 0.961 . S
C467 H483 0.961 . S
C468 C469 1.370 . S
C468 C470 1.363 . S
C468 H484 0.931 . S
C469 C468 1.370 . S
C469 C473 1.408 . S
C470 C468 1.363 . S
C470 C471 1.370 . S
C470 C474 1.524 . S
C471 C463 1.503 . S
C471 C470 1.370 . S
C471 C472 1.403 . S
C472 C471 1.403 . S
C472 C473 1.404 . S
C472 C475 1.539 . S
C473 C469 1.408 . S
C473 C472 1.404 . S
C473 H485 0.930 . S
C474 C470 1.524 . S
C474 H486 0.956 . S
C474 H487 0.961 . S
C474 H488 0.961 . S
C475 C472 1.539 . S
C475 H489 0.958 . S
C475 H490 0.961 . S
C475 H491 0.960 . S
H476 C460 0.931 . S
H477 C465 0.929 . S
H478 C466 0.960 . S
H479 C466 0.962 . S
H480 C466 0.960 . S
H481 C467 0.961 . S
H482 C467 0.961 . S
H483 C467 0.961 . S
H484 C468 0.931 . S
H485 C473 0.930 . S
H486 C474 0.956 . S
H487 C474 0.961 . S
H488 C474 0.961 . S
H489 C475 0.958 . S
H490 C475 0.961 . S
H491 C475 0.960 . S
C492 C493 1.391 . S
C492 C494 1.394 . S
C492 H508 0.931 . S
C493 C492 1.391 . S
C493 C497 1.376 . S
C494 C492 1.394 . S
C494 C495 1.369 . S
C494 C498 1.531 . S
C495 C494 1.369 . S
C495 C496 1.410 . S
C495 C503 1.503 . S
C496 C495 1.410 . S
C496 C497 1.392 . S
C496 C499 1.511 . S
C497 C493 1.376 . S
C497 C496 1.392 . S
C497 H509 0.929 . S
C498 C494 1.531 . S
C498 H510 0.960 . S
C498 H511 0.962 . S
C498 H512 0.960 . S
C499 C496 1.511 . S
C499 H513 0.961 . S
C499 H514 0.961 . S
C499 H515 0.961 . S
C500 C501 1.370 . S
C500 C502 1.363 . S
C500 H516 0.931 . S
C501 C500 1.370 . S
C501 C505 1.408 . S
C502 C500 1.363 . S
C502 C503 1.370 . S
C502 C506 1.524 . S
C503 C495 1.503 . S
C503 C502 1.370 . S
C503 C504 1.403 . S
C504 C503 1.403 . S
C504 C505 1.404 . S
C504 C507 1.539 . S
C505 C501 1.408 . S
C505 C504 1.404 . S
C505 H517 0.930 . S
C506 C502 1.524 . S
C506 H518 0.956 . S
C506 H519 0.961 . S
C506 H520 0.961 . S
C507 C504 1.539 . S
C507 H521 0.958 . S
C507 H522 0.961 . S
C507 H523 0.960 . S
H508 C492 0.931 . S
H509 C497 0.929 . S
H510 C498 0.960 . S
H511 C498 0.962 . S
H512 C498 0.960 . S
H513 C499 0.961 . S
H514 C499 0.961 . S
H515 C499 0.961 . S
H516 C500 0.931 . S
H517 C505 0.930 . S
H518 C506 0.956 . S
H519 C506 0.961 . S
H520 C506 0.961 . S
H521 C507 0.958 . S
H522 C507 0.961 . S
H523 C507 0.960 . S
C524 C525 1.391 . S
C524 C526 1.394 . S
C524 H540 0.931 . S
C525 C524 1.391 . S
C525 C529 1.376 . S
C526 C524 1.394 . S
C526 C527 1.369 . S
C526 C530 1.531 . S
C527 C526 1.369 . S
C527 C528 1.410 . S
C527 C535 1.503 . S
C528 C527 1.410 . S
C528 C529 1.392 . S
C528 C531 1.511 . S
C529 C525 1.376 . S
C529 C528 1.392 . S
C529 H541 0.929 . S
C530 C526 1.531 . S
C530 H542 0.960 . S
C530 H543 0.962 . S
C530 H544 0.960 . S
C531 C528 1.511 . S
C531 H545 0.961 . S
C531 H546 0.961 . S
C531 H547 0.961 . S
C532 C533 1.370 . S
C532 C534 1.363 . S
C532 H548 0.931 . S
C533 C532 1.370 . S
C533 C537 1.408 . S
C534 C532 1.363 . S
C534 C535 1.370 . S
C534 C538 1.524 . S
C535 C527 1.503 . S
C535 C534 1.370 . S
C535 C536 1.403 . S
C536 C535 1.403 . S
C536 C537 1.404 . S
C536 C539 1.539 . S
C537 C533 1.408 . S
C537 C536 1.404 . S
C537 H549 0.930 . S
C538 C534 1.524 . S
C538 H550 0.956 . S
C538 H551 0.961 . S
C538 H552 0.961 . S
C539 C536 1.539 . S
C539 H553 0.958 . S
C539 H554 0.961 . S
C539 H555 0.960 . S
H540 C524 0.931 . S
H541 C529 0.929 . S
H542 C530 0.960 . S
H543 C530 0.962 . S
H544 C530 0.960 . S
H545 C531 0.961 . S
H546 C531 0.961 . S
H547 C531 0.961 . S
H548 C532 0.931 . S
H549 C537 0.930 . S
H550 C538 0.956 . S
H551 C538 0.961 . S
H552 C538 0.961 . S
H553 C539 0.958 . S
H554 C539 0.961 . S
H555 C539 0.960 . S
C556 C557 1.391 . S
C556 C558 1.394 . S
C556 H572 0.931 . S
C557 C556 1.391 . S
C557 C561 1.376 . S
C558 C556 1.394 . S
C558 C559 1.369 . S
C558 C562 1.531 . S
C559 C558 1.369 . S
C559 C560 1.410 . S
C559 C567 1.503 . S
C560 C559 1.410 . S
C560 C561 1.392 . S
C560 C563 1.511 . S
C561 C557 1.376 . S
C561 C560 1.392 . S
C561 H573 0.929 . S
C562 C558 1.531 . S
C562 H574 0.960 . S
C562 H575 0.962 . S
C562 H576 0.960 . S
C563 C560 1.511 . S
C563 H577 0.961 . S
C563 H578 0.961 . S
C563 H579 0.961 . S
C564 C565 1.370 . S
C564 C566 1.363 . S
C564 H580 0.931 . S
C565 C564 1.370 . S
C565 C569 1.408 . S
C566 C564 1.363 . S
C566 C567 1.370 . S
C566 C570 1.524 . S
C567 C559 1.503 . S
C567 C566 1.370 . S
C567 C568 1.403 . S
C568 C567 1.403 . S
C568 C569 1.404 . S
C568 C571 1.539 . S
C569 C565 1.408 . S
C569 C568 1.404 . S
C569 H581 0.930 . S
C570 C566 1.524 . S
C570 H582 0.956 . S
C570 H583 0.961 . S
C570 H584 0.961 . S
C571 C568 1.539 . S
C571 H585 0.958 . S
C571 H586 0.961 . S
C571 H587 0.960 . S
H572 C556 0.931 . S
H573 C561 0.929 . S
H574 C562 0.960 . S
H575 C562 0.962 . S
H576 C562 0.960 . S
H577 C563 0.961 . S
H578 C563 0.961 . S
H579 C563 0.961 . S
H580 C564 0.931 . S
H581 C569 0.930 . S
H582 C570 0.956 . S
H583 C570 0.961 . S
H584 C570 0.961 . S
H585 C571 0.958 . S
H586 C571 0.961 . S
H587 C571 0.960 . S
C588 C589 1.391 . S
C588 C590 1.394 . S
C588 H604 0.931 . S
C589 C588 1.391 . S
C589 C593 1.376 . S
C590 C588 1.394 . S
C590 C591 1.369 . S
C590 C594 1.531 . S
C591 C590 1.369 . S
C591 C592 1.410 . S
C591 C599 1.503 . S
C592 C591 1.410 . S
C592 C593 1.392 . S
C592 C595 1.511 . S
C593 C589 1.376 . S
C593 C592 1.392 . S
C593 H605 0.929 . S
C594 C590 1.531 . S
C594 H606 0.960 . S
C594 H607 0.962 . S
C594 H608 0.960 . S
C595 C592 1.511 . S
C595 H609 0.961 . S
C595 H610 0.961 . S
C595 H611 0.961 . S
C596 C597 1.370 . S
C596 C598 1.363 . S
C596 H612 0.931 . S
C597 C596 1.370 . S
C597 C601 1.408 . S
C598 C596 1.363 . S
C598 C599 1.370 . S
C598 C602 1.524 . S
C599 C591 1.503 . S
C599 C598 1.370 . S
C599 C600 1.403 . S
C600 C599 1.403 . S
C600 C601 1.404 . S
C600 C603 1.539 . S
C601 C597 1.408 . S
C601 C600 1.404 . S
C601 H613 0.930 . S
C602 C598 1.524 . S
C602 H614 0.956 . S
C602 H615 0.961 . S
C602 H616 0.961 . S
C603 C600 1.539 . S
C603 H617 0.958 . S
C603 H618 0.961 . S
C603 H619 0.960 . S
H604 C588 0.931 . S
H605 C593 0.929 . S
H606 C594 0.960 . S
H607 C594 0.962 . S
H608 C594 0.960 . S
H609 C595 0.961 . S
H610 C595 0.961 . S
H611 C595 0.961 . S
H612 C596 0.931 . S
H613 C601 0.930 . S
H614 C602 0.956 . S
H615 C602 0.961 . S
H616 C602 0.961 . S
H617 C603 0.958 . S
H618 C603 0.961 . S
H619 C603 0.960 . S
C620 C621 1.391 . S
C620 C622 1.394 . S
C620 H636 0.931 . S
C621 C620 1.391 . S
C621 C625 1.376 . S
C622 C620 1.394 . S
C622 C623 1.369 . S
C622 C626 1.531 . S
C623 C622 1.369 . S
C623 C624 1.410 . S
C623 C631 1.503 . S
C624 C623 1.410 . S
C624 C625 1.392 . S
C624 C627 1.511 . S
C625 C621 1.376 . S
C625 C624 1.392 . S
C625 H637 0.929 . S
C626 C622 1.531 . S
C626 H638 0.960 . S
C626 H639 0.962 . S
C626 H640 0.960 . S
C627 C624 1.511 . S
C627 H641 0.961 . S
C627 H642 0.961 . S
C627 H643 0.961 . S
C628 C629 1.370 . S
C628 C630 1.363 . S
C628 H644 0.931 . S
C629 C628 1.370 . S
C629 C633 1.408 . S
C630 C628 1.363 . S
C630 C631 1.370 . S
C630 C634 1.524 . S
C631 C623 1.503 . S
C631 C630 1.370 . S
C631 C632 1.403 . S
C632 C631 1.403 . S
C632 C633 1.404 . S
C632 C635 1.539 . S
C633 C629 1.408 . S
C633 C632 1.404 . S
C633 H645 0.930 . S
C634 C630 1.524 . S
C634 H646 0.956 . S
C634 H647 0.961 . S
C634 H648 0.961 . S
C635 C632 1.539 . S
C635 H649 0.958 . S
C635 H650 0.961 . S
C635 H651 0.960 . S
H636 C620 0.931 . S
H637 C625 0.929 . S
H638 C626 0.960 . S
H639 C626 0.962 . S
H640 C626 0.960 . S
H641 C627 0.961 . S
H642 C627 0.961 . S
H643 C627 0.961 . S
H644 C628 0.931 . S
H645 C633 0.930 . S
H646 C634 0.956 . S
H647 C634 0.961 . S
H648 C634 0.961 . S
H649 C635 0.958 . S
H650 C635 0.961 . S
H651 C635 0.960 . S
C652 C653 1.391 . S
C652 C654 1.394 . S
C652 H668 0.931 . S
C653 C652 1.391 . S
C653 C657 1.376 . S
C654 C652 1.394 . S
C654 C655 1.369 . S
C654 C658 1.531 . S
C655 C654 1.369 . S
C655 C656 1.410 . S
C655 C663 1.503 . S
C656 C655 1.410 . S
C656 C657 1.392 . S
C656 C659 1.511 . S
C657 C653 1.376 . S
C657 C656 1.392 . S
C657 H669 0.929 . S
C658 C654 1.531 . S
C658 H670 0.960 . S
C658 H671 0.962 . S
C658 H672 0.960 . S
C659 C656 1.511 . S
C659 H673 0.961 . S
C659 H674 0.961 . S
C659 H675 0.961 . S
C660 C661 1.370 . S
C660 C662 1.363 . S
C660 H676 0.931 . S
C661 C660 1.370 . S
C661 C665 1.408 . S
C662 C660 1.363 . S
C662 C663 1.370 . S
C662 C666 1.524 . S
C663 C655 1.503 . S
C663 C662 1.370 . S
C663 C664 1.403 . S
C664 C663 1.403 . S
C664 C665 1.404 . S
C664 C667 1.539 . S
C665 C661 1.408 . S
C665 C664 1.404 . S
C665 H677 0.930 . S
C666 C662 1.524 . S
C666 H678 0.956 . S
C666 H679 0.961 . S
C666 H680 0.961 . S
C667 C664 1.539 . S
C667 H681 0.958 . S
C667 H682 0.961 . S
C667 H683 0.960 . S
H668 C652 0.931 . S
H669 C657 0.929 . S
H670 C658 0.960 . S
H671 C658 0.962 . S
H672 C658 0.960 . S
H673 C659 0.961 . S
H674 C659 0.961 . S
H675 C659 0.961 . S
H676 C660 0.931 . S
H677 C665 0.930 . S
H678 C666 0.956 . S
H679 C666 0.961 . S
H680 C666 0.961 . S
H681 C667 0.958 . S
H682 C667 0.961 . S
H683 C667 0.960 . S
C684 C685 1.391 . S
C684 C686 1.394 . S
C684 H700 0.931 . S
C685 C684 1.391 . S
C685 C689 1.376 1_455 S
C686 C684 1.394 . S
C686 C687 1.369 . S
C686 C690 1.531 . S
C687 C686 1.369 . S
C687 C688 1.410 1_455 S
C687 C695 1.503 . S
C688 C687 1.410 1_655 S
C688 C689 1.392 . S
C688 C691 1.511 . S
C689 C685 1.376 1_655 S
C689 C688 1.392 . S
C689 H701 0.929 . S
C690 C686 1.531 . S
C690 H702 0.960 . S
C690 H703 0.962 . S
C690 H704 0.960 . S
C691 C688 1.511 . S
C691 H705 0.961 . S
C691 H706 0.961 . S
C691 H707 0.961 . S
C692 C693 1.370 . S
C692 C694 1.363 . S
C692 H708 0.931 . S
C693 C692 1.370 . S
C693 C697 1.408 1_455 S
C694 C692 1.363 . S
C694 C695 1.370 . S
C694 C698 1.524 . S
C695 C687 1.503 . S
C695 C694 1.370 . S
C695 C696 1.403 1_455 S
C696 C695 1.403 1_655 S
C696 C697 1.404 . S
C696 C699 1.539 . S
C697 C693 1.408 1_655 S
C697 C696 1.404 . S
C697 H709 0.930 . S
C698 C694 1.524 . S
C698 H710 0.956 . S
C698 H711 0.961 . S
C698 H712 0.961 . S
C699 C696 1.539 . S
C699 H713 0.958 . S
C699 H714 0.961 . S
C699 H715 0.960 . S
H700 C684 0.931 . S
H701 C689 0.929 . S
H702 C690 0.960 . S
H703 C690 0.962 . S
H704 C690 0.960 . S
H705 C691 0.961 . S
H706 C691 0.961 . S
H707 C691 0.961 . S
H708 C692 0.931 . S
H709 C697 0.930 . S
H710 C698 0.956 . S
H711 C698 0.961 . S
H712 C698 0.961 . S
H713 C699 0.958 . S
H714 C699 0.961 . S
H715 C699 0.960 . S
C716 C717 1.391 . S
C716 C718 1.394 . S
C716 H732 0.931 . S
C717 C716 1.391 . S
C717 C721 1.376 . S
C718 C716 1.394 . S
C718 C719 1.369 . S
C718 C722 1.531 . S
C719 C718 1.369 . S
C719 C720 1.410 . S
C719 C727 1.503 . S
C720 C719 1.410 . S
C720 C721 1.392 . S
C720 C723 1.511 . S
C721 C717 1.376 . S
C721 C720 1.392 . S
C721 H733 0.929 . S
C722 C718 1.531 . S
C722 H734 0.960 . S
C722 H735 0.962 . S
C722 H736 0.960 . S
C723 C720 1.511 . S
C723 H737 0.961 1_545 S
C723 H738 0.961 1_545 S
C723 H739 0.961 . S
C724 C725 1.370 . S
C724 C726 1.363 . S
C724 H740 0.931 1_545 S
C725 C724 1.370 . S
C725 C729 1.408 . S
C726 C724 1.363 . S
C726 C727 1.370 . S
C726 C730 1.524 1_545 S
C727 C719 1.503 . S
C727 C726 1.370 . S
C727 C728 1.403 . S
C728 C727 1.403 . S
C728 C729 1.404 . S
C728 C731 1.539 . S
C729 C725 1.408 . S
C729 C728 1.404 . S
C729 H741 0.930 . S
C730 C726 1.524 1_565 S
C730 H742 0.956 . S
C730 H743 0.961 . S
C730 H744 0.961 . S
C731 C728 1.539 . S
C731 H745 0.958 . S
C731 H746 0.961 . S
C731 H747 0.960 . S
H732 C716 0.931 . S
H733 C721 0.929 . S
H734 C722 0.960 . S
H735 C722 0.962 . S
H736 C722 0.960 . S
H737 C723 0.961 1_565 S
H738 C723 0.961 1_565 S
H739 C723 0.961 . S
H740 C724 0.931 1_565 S
H741 C729 0.930 . S
H742 C730 0.956 . S
H743 C730 0.961 . S
H744 C730 0.961 . S
H745 C731 0.958 . S
H746 C731 0.961 . S
H747 C731 0.960 . S
C748 C749 1.391 . S
C748 C750 1.394 . S
C748 H764 0.931 . S
C749 C748 1.391 . S
C749 C753 1.376 . S
C750 C748 1.394 . S
C750 C751 1.369 . S
C750 C754 1.531 . S
C751 C750 1.369 . S
C751 C752 1.410 . S
C751 C759 1.503 . S
C752 C751 1.410 . S
C752 C753 1.392 . S
C752 C755 1.511 . S
C753 C749 1.376 . S
C753 C752 1.392 . S
C753 H765 0.929 . S
C754 C750 1.531 . S
C754 H766 0.960 . S
C754 H767 0.962 . S
C754 H768 0.960 . S
C755 C752 1.511 . S
C755 H769 0.961 . S
C755 H770 0.961 . S
C755 H771 0.961 . S
C756 C757 1.370 . S
C756 C758 1.363 . S
C756 H772 0.931 . S
C757 C756 1.370 . S
C757 C761 1.408 . S
C758 C756 1.363 . S
C758 C759 1.370 . S
C758 C762 1.524 . S
C759 C751 1.503 . S
C759 C758 1.370 . S
C759 C760 1.403 . S
C760 C759 1.403 . S
C760 C761 1.404 . S
C760 C763 1.539 . S
C761 C757 1.408 . S
C761 C760 1.404 . S
C761 H773 0.930 . S
C762 C758 1.524 . S
C762 H774 0.956 . S
C762 H775 0.961 . S
C762 H776 0.961 . S
C763 C760 1.539 . S
C763 H777 0.958 . S
C763 H778 0.961 . S
C763 H779 0.960 . S
H764 C748 0.931 . S
H765 C753 0.929 . S
H766 C754 0.960 . S
H767 C754 0.962 . S
H768 C754 0.960 . S
H769 C755 0.961 . S
H770 C755 0.961 . S
H771 C755 0.961 . S
H772 C756 0.931 . S
H773 C761 0.930 . S
H774 C762 0.956 . S
H775 C762 0.961 . S
H776 C762 0.961 . S
H777 C763 0.958 . S
H778 C763 0.961 . S
H779 C763 0.960 . S
C780 C781 1.391 . S
C780 C782 1.394 . S
C780 H796 0.931 . S
C781 C780 1.391 . S
C781 C785 1.376 1_545 S
C782 C780 1.394 . S
C782 C783 1.369 . S
C782 C786 1.531 . S
C783 C782 1.369 . S
C783 C784 1.410 1_545 S
C783 C791 1.503 . S
C784 C783 1.410 1_565 S
C784 C785 1.392 . S
C784 C787 1.511 . S
C785 C781 1.376 1_565 S
C785 C784 1.392 . S
C785 H797 0.929 . S
C786 C782 1.531 . S
C786 H798 0.960 . S
C786 H799 0.962 . S
C786 H800 0.960 . S
C787 C784 1.511 . S
C787 H801 0.961 . S
C787 H802 0.961 . S
C787 H803 0.961 . S
C788 C789 1.370 1_565 S
C788 C790 1.363 . S
C788 H804 0.931 . S
C789 C788 1.370 1_545 S
C789 C793 1.408 . S
C790 C788 1.363 . S
C790 C791 1.370 1_565 S
C790 C794 1.524 . S
C791 C783 1.503 . S
C791 C790 1.370 1_545 S
C791 C792 1.403 . S
C792 C791 1.403 . S
C792 C793 1.404 . S
C792 C795 1.539 . S
C793 C789 1.408 . S
C793 C792 1.404 . S
C793 H805 0.930 . S
C794 C790 1.524 . S
C794 H806 0.956 . S
C794 H807 0.961 . S
C794 H808 0.961 . S
C795 C792 1.539 . S
C795 H809 0.958 . S
C795 H810 0.961 . S
C795 H811 0.960 . S
H796 C780 0.931 . S
H797 C785 0.929 . S
H798 C786 0.960 . S
H799 C786 0.962 . S
H800 C786 0.960 . S
H801 C787 0.961 . S
H802 C787 0.961 . S
H803 C787 0.961 . S
H804 C788 0.931 . S
H805 C793 0.930 . S
H806 C794 0.956 . S
H807 C794 0.961 . S
H808 C794 0.961 . S
H809 C795 0.958 . S
H810 C795 0.961 . S
H811 C795 0.960 . S
C812 C813 1.391 . S
C812 C814 1.394 . S
C812 H828 0.931 . S
C813 C812 1.391 . S
C813 C817 1.376 . S
C814 C812 1.394 . S
C814 C815 1.369 . S
C814 C818 1.531 . S
C815 C814 1.369 . S
C815 C816 1.410 . S
C815 C823 1.503 . S
C816 C815 1.410 . S
C816 C817 1.392 . S
C816 C819 1.511 . S
C817 C813 1.376 . S
C817 C816 1.392 . S
C817 H829 0.929 . S
C818 C814 1.531 . S
C818 H830 0.960 . S
C818 H831 0.962 . S
C818 H832 0.960 . S
C819 C816 1.511 . S
C819 H833 0.961 . S
C819 H834 0.961 . S
C819 H835 0.961 . S
C820 C821 1.370 . S
C820 C822 1.363 . S
C820 H836 0.931 . S
C821 C820 1.370 . S
C821 C825 1.408 . S
C822 C820 1.363 . S
C822 C823 1.370 . S
C822 C826 1.524 . S
C823 C815 1.503 . S
C823 C822 1.370 . S
C823 C824 1.403 . S
C824 C823 1.403 . S
C824 C825 1.404 . S
C824 C827 1.539 . S
C825 C821 1.408 . S
C825 C824 1.404 . S
C825 H837 0.930 . S
C826 C822 1.524 . S
C826 H838 0.956 . S
C826 H839 0.961 . S
C826 H840 0.961 . S
C827 C824 1.539 . S
C827 H841 0.958 . S
C827 H842 0.961 . S
C827 H843 0.960 . S
H828 C812 0.931 . S
H829 C817 0.929 . S
H830 C818 0.960 . S
H831 C818 0.962 . S
H832 C818 0.960 . S
H833 C819 0.961 . S
H834 C819 0.961 . S
H835 C819 0.961 . S
H836 C820 0.931 . S
H837 C825 0.930 . S
H838 C826 0.956 . S
H839 C826 0.961 . S
H840 C826 0.961 . S
H841 C827 0.958 . S
H842 C827 0.961 . S
H843 C827 0.960 . S
C844 C845 1.391 1_455 S
C844 C846 1.394 . S
C844 H860 0.931 . S
C845 C844 1.391 1_655 S
C845 C849 1.376 . S
C846 C844 1.394 . S
C846 C847 1.369 1_455 S
C846 C850 1.531 . S
C847 C846 1.369 1_655 S
C847 C848 1.409 . S
C847 C855 1.503 1_655 S
C848 C847 1.409 . S
C848 C849 1.392 . S
C848 C851 1.511 . S
C849 C845 1.376 . S
C849 C848 1.392 . S
C849 H861 0.929 . S
C850 C846 1.531 . S
C850 H862 0.960 . S
C850 H863 0.962 . S
C850 H864 0.960 . S
C851 C848 1.511 . S
C851 H865 0.961 . S
C851 H866 0.961 . S
C851 H867 0.961 . S
C852 C853 1.370 . S
C852 C854 1.363 . S
C852 H868 0.931 . S
C853 C852 1.370 . S
C853 C857 1.408 1_455 S
C854 C852 1.363 . S
C854 C855 1.370 . S
C854 C858 1.524 . S
C855 C847 1.503 1_455 S
C855 C854 1.370 . S
C855 C856 1.403 1_455 S
C856 C855 1.403 1_655 S
C856 C857 1.404 . S
C856 C859 1.539 . S
C857 C853 1.408 1_655 S
C857 C856 1.404 . S
C857 H869 0.930 . S
C858 C854 1.524 . S
C858 H870 0.956 . S
C858 H871 0.961 1_455 S
C858 H872 0.961 . S
C859 C856 1.539 . S
C859 H873 0.958 1_655 S
C859 H874 0.961 . S
C859 H875 0.960 . S
H860 C844 0.931 . S
H861 C849 0.929 . S
H862 C850 0.960 . S
H863 C850 0.962 . S
H864 C850 0.960 . S
H865 C851 0.961 . S
H866 C851 0.961 . S
H867 C851 0.961 . S
H868 C852 0.931 . S
H869 C857 0.930 . S
H870 C858 0.956 . S
H871 C858 0.961 1_655 S
H872 C858 0.961 . S
H873 C859 0.958 1_455 S
H874 C859 0.961 . S
H875 C859 0.960 . S
C301 C2 1.389 . S
C309 C275 1.450 . S
C333 C22 1.358 . S
C341 C182 1.433 . S
C365 C44 1.403 . S
C373 C222 1.487 . S
C397 C4 1.569 . S
C405 C262 1.677 . S
C437 C195 1.707 . S
C429 C24 1.683 . S
C469 C235 1.629 . S
C461 C42 1.575 . S
C493 C32 1.356 . S
C501 C102 1.368 . S
C525 C49 1.280 . S
C533 C142 1.297 . S
C557 C9 1.300 . S
C565 C75 1.313 . S
C597 C115 1.306 . S
C589 C29 1.312 . S
C629 C155 1.345 . S
C621 C52 1.301 . S
C653 C12 1.263 . S
C661 C62 1.332 . S
C693 C161 1.418 1_554 S
C685 C18 1.424 1_455 S
C717 C38 1.447 . S
C725 C81 1.447 . S
C749 C58 1.440 . S
C757 C121 1.422 . S
C789 C241 1.496 . S
C781 C39 1.476 . S
C821 C281 1.476 1_556 S
C813 C59 1.446 . S
C845 C19 1.486 1_655 S
C853 C201 1.486 . S
