# Generated by pormake.
# Topology ssa, (4,4)-cn, num edge types: 1
# Building blocks:
#     Node 0, Type 0, BuildingBlock: KOZSID_clean_sbu_0, # of connection points: 4
#     Node 1, Type 0, BuildingBlock: KOZSID_clean_sbu_0, # of connection points: 4
#     Node 2, Type 0, BuildingBlock: KOZSID_clean_sbu_0, # of connection points: 4
#     Node 3, Type 0, BuildingBlock: KOZSID_clean_sbu_0, # of connection points: 4
#     Node 4, Type 0, BuildingBlock: KOZSID_clean_sbu_0, # of connection points: 4
#     Node 5, Type 0, BuildingBlock: KOZSID_clean_sbu_0, # of connection points: 4
#     Node 6, Type 1, BuildingBlock: NAWXER_clean_sbu_0, # of connection points: 4
#     Node 7, Type 1, BuildingBlock: NAWXER_clean_sbu_0, # of connection points: 4
#     Node 8, Type 1, BuildingBlock: NAWXER_clean_sbu_0, # of connection points: 4
#     Node 9, Type 1, BuildingBlock: NAWXER_clean_sbu_0, # of connection points: 4
#     Node 10, Type 1, BuildingBlock: NAWXER_clean_sbu_0, # of connection points: 4
#     Node 11, Type 1, BuildingBlock: NAWXER_clean_sbu_0, # of connection points: 4
#     Edge 12, Type (0, 1), BuildingBlock: MIFKUJ_clean_linker_0, # of connection points: 2
#     Edge 13, Type (0, 1), BuildingBlock: MIFKUJ_clean_linker_0, # of connection points: 2
#     Edge 14, Type (0, 1), BuildingBlock: MIFKUJ_clean_linker_0, # of connection points: 2
#     Edge 15, Type (0, 1), BuildingBlock: MIFKUJ_clean_linker_0, # of connection points: 2
#     Edge 16, Type (0, 1), BuildingBlock: MIFKUJ_clean_linker_0, # of connection points: 2
#     Edge 17, Type (0, 1), BuildingBlock: MIFKUJ_clean_linker_0, # of connection points: 2
#     Edge 18, Type (0, 1), BuildingBlock: MIFKUJ_clean_linker_0, # of connection points: 2
#     Edge 19, Type (0, 1), BuildingBlock: MIFKUJ_clean_linker_0, # of connection points: 2
#     Edge 20, Type (0, 1), BuildingBlock: MIFKUJ_clean_linker_0, # of connection points: 2
#     Edge 21, Type (0, 1), BuildingBlock: MIFKUJ_clean_linker_0, # of connection points: 2
#     Edge 22, Type (0, 1), BuildingBlock: MIFKUJ_clean_linker_0, # of connection points: 2
#     Edge 23, Type (0, 1), BuildingBlock: MIFKUJ_clean_linker_0, # of connection points: 2
#     Edge 24, Type (0, 1), BuildingBlock: MIFKUJ_clean_linker_0, # of connection points: 2
#     Edge 25, Type (0, 1), BuildingBlock: MIFKUJ_clean_linker_0, # of connection points: 2
#     Edge 26, Type (0, 1), BuildingBlock: MIFKUJ_clean_linker_0, # of connection points: 2
#     Edge 27, Type (0, 1), BuildingBlock: MIFKUJ_clean_linker_0, # of connection points: 2
#     Edge 28, Type (0, 1), BuildingBlock: MIFKUJ_clean_linker_0, # of connection points: 2
#     Edge 29, Type (0, 1), BuildingBlock: MIFKUJ_clean_linker_0, # of connection points: 2
#     Edge 30, Type (0, 1), BuildingBlock: MIFKUJ_clean_linker_0, # of connection points: 2
#     Edge 31, Type (0, 1), BuildingBlock: MIFKUJ_clean_linker_0, # of connection points: 2
#     Edge 32, Type (0, 1), BuildingBlock: MIFKUJ_clean_linker_0, # of connection points: 2
#     Edge 33, Type (0, 1), BuildingBlock: MIFKUJ_clean_linker_0, # of connection points: 2
#     Edge 34, Type (0, 1), BuildingBlock: MIFKUJ_clean_linker_0, # of connection points: 2
#     Edge 35, Type (0, 1), BuildingBlock: MIFKUJ_clean_linker_0, # of connection points: 2
# Relax obj value: 0.010
# Max RMSD: 0.027
# Mean RMSD: 0.017
data_MOF--net-ssa--node1-KOZSID_clean_sbu_0--node2-NAWXER_clean_sbu_0--edge1-MIFKUJ_clean_linker_0
_symmetry_space_group_name_H-M    P1
_symmetry_Int_Tables_number       1
_symmetry_cell_setting            triclinic
loop_
_symmetry_equiv_pos_as_xyz
'x, y, z'
_cell_length_a     62.707162
_cell_length_b     64.093099
_cell_length_c     53.43236
_cell_angle_alpha  87.781017
_cell_angle_beta   89.985467
_cell_angle_gamma 122.1318
loop_
_atom_site_label
_atom_site_type_symbol
_atom_site_fract_x
_atom_site_fract_y
_atom_site_fract_z
_atom_type_partial_charge
C0 C 0.96942 0.51991 0.9908 0.0
C1 C 0.95014 0.5209 0.00228 0.0
C2 C 0.94391 0.5068 0.02404 0.0
C3 C 0.95976 0.49817 0.02465 0.0
N4 N 0.97619 0.50642 0.00489 0.0
Co5 Co 0.00164 0.49749 0.99749 0.0
N6 N 0.99036 0.47418 0.02774 0.0
C7 C 0.97116 0.46832 0.04391 0.0
C8 C 0.96925 0.45331 0.06392 0.0
C9 C 0.98877 0.44989 0.06069 0.0
C10 C 0.00146 0.46301 0.03877 0.0
N11 N 0.02727 0.48871 0.99029 0.0
C12 C 0.03475 0.47615 0.00498 0.0
C13 C 0.05443 0.47559 0.99392 0.0
C14 C 0.06017 0.48899 0.97174 0.0
C15 C 0.04369 0.49687 0.97056 0.0
N16 N 0.01287 0.52069 0.96717 0.0
C17 C 0.03158 0.52588 0.9506 0.0
C18 C 0.03356 0.54087 0.93058 0.0
C19 C 0.01464 0.54506 0.93423 0.0
C20 C 0.00221 0.53242 0.95646 0.0
N21 N 0.02662 0.52446 0.01821 0.0
C22 C 0.0631 0.55907 0.05001 0.0
C23 C 0.06961 0.5569 0.02567 0.0
C24 C 0.05118 0.5397 0.01016 0.0
C25 C 0.03783 0.54435 0.05773 0.0
C26 C 0.02009 0.52736 0.0417 0.0
N27 N 0.97656 0.47056 0.97665 0.0
C28 C 0.9651 0.45129 0.93674 0.0
C29 C 0.93952 0.43829 0.94359 0.0
C30 C 0.933 0.44068 0.96785 0.0
C31 C 0.95167 0.45652 0.98401 0.0
C32 C 0.98311 0.46711 0.95341 0.0
H33 H 0.94537 0.4576 0.0021 0.0
H34 H 0.00216 0.47676 0.94682 0.0
H35 H 0.05736 0.53869 0.99194 0.0
H36 H 0.0013 0.51647 0.04893 0.0
C37 C 0.95787 0.48023 0.04191 0.0
C38 C 0.97908 0.53021 0.96556 0.0
C39 C 0.02528 0.46639 0.03037 0.0
C40 C 0.04509 0.51423 0.95288 0.0
H41 H 0.94085 0.53 0.99509 0.0
H42 H 0.92878 0.50237 0.03719 0.0
H43 H 0.95625 0.44696 0.07982 0.0
H44 H 0.99377 0.43987 0.07366 0.0
H45 H 0.0643 0.46727 0.00166 0.0
H46 H 0.07546 0.49359 0.95873 0.0
H47 H 0.04638 0.54695 0.91456 0.0
H48 H 0.00998 0.55538 0.92134 0.0
H49 H 0.08895 0.56789 0.01878 0.0
H50 H 0.03169 0.5458 0.07618 0.0
H51 H 0.97129 0.44944 0.91849 0.0
H52 H 0.9135 0.43098 0.97423 0.0
C53 C 0.53087 0.0098 0.54081 0.0
C54 C 0.53481 0.00124 0.56354 0.0
C55 C 0.51461 0.97783 0.56788 0.0
C56 C 0.49947 0.97348 0.54775 0.0
N57 N 0.50916 0.99244 0.53041 0.0
Co58 Co 0.49218 0.99542 0.49988 0.0
N59 N 0.46057 0.96292 0.50856 0.0
C60 C 0.45605 0.94769 0.52882 0.0
C61 C 0.43342 0.92564 0.5283 0.0
C62 C 0.42325 0.92653 0.50599 0.0
C63 C 0.44035 0.94919 0.49427 0.0
N64 N 0.47517 0.99857 0.46953 0.0
C65 C 0.45347 0.98124 0.45922 0.0
C66 C 0.44896 0.98986 0.43692 0.0
C67 C 0.46903 0.0134 0.43258 0.0
C68 C 0.48454 0.01771 0.45243 0.0
N69 N 0.52384 0.02781 0.49107 0.0
C70 C 0.52853 0.04272 0.47047 0.0
C71 C 0.55144 0.06452 0.47063 0.0
C72 C 0.56164 0.06378 0.49297 0.0
C73 C 0.54424 0.04152 0.50518 0.0
N74 N 0.50407 0.97782 0.47985 0.0
C75 C 0.50983 0.94705 0.44792 0.0
C76 C 0.51447 0.96992 0.43911 0.0
C77 C 0.51188 0.98505 0.45534 0.0
C78 C 0.50428 0.94074 0.47344 0.0
C79 C 0.5016 0.95633 0.48898 0.0
N80 N 0.48001 0.01285 0.51974 0.0
C81 C 0.47722 0.0486 0.52551 0.0
C82 C 0.4671 0.04001 0.5497 0.0
C83 C 0.46275 0.01718 0.55833 0.0
C84 C 0.46926 0.00402 0.54316 0.0
C85 C 0.48335 0.0348 0.51095 0.0
H86 H 0.46592 0.987 0.55103 0.0
H87 H 0.49117 0.04252 0.4928 0.0
H88 H 0.51535 0.00208 0.44738 0.0
H89 H 0.49656 0.95014 0.50808 0.0
C90 C 0.47476 0.9533 0.54627 0.0
C91 C 0.54672 0.03524 0.53104 0.0
C92 C 0.43827 0.95571 0.46844 0.0
C93 C 0.50955 0.0375 0.45339 0.0
H94 H 0.54999 0.01119 0.57634 0.0
H95 H 0.51065 0.96602 0.5845 0.0
H96 H 0.42597 0.91015 0.54175 0.0
H97 H 0.40593 0.9117 0.49858 0.0
H98 H 0.43346 0.97966 0.42449 0.0
H99 H 0.47273 0.02526 0.41605 0.0
H100 H 0.55907 0.07981 0.45692 0.0
H101 H 0.57925 0.07844 0.50011 0.0
H102 H 0.51961 0.97593 0.41961 0.0
H103 H 0.50087 0.92332 0.4812 0.0
H104 H 0.4805 0.06598 0.51779 0.0
H105 H 0.45506 0.00979 0.57701 0.0
C106 C 0.5291 0.52179 0.94801 0.0
C107 C 0.529 0.52561 0.92214 0.0
C108 C 0.50571 0.52118 0.91629 0.0
C109 C 0.49226 0.51362 0.93847 0.0
N110 N 0.50571 0.51309 0.95789 0.0
Co111 Co 0.49025 0.49453 0.99005 0.0
N112 N 0.4606 0.49724 0.98568 0.0
C113 C 0.45222 0.50084 0.96384 0.0
C114 C 0.4311 0.50199 0.96694 0.0
C115 C 0.42605 0.49885 0.99236 0.0
C116 C 0.44449 0.496 0.00327 0.0
N117 N 0.47454 0.47607 0.02202 0.0
C118 C 0.45761 0.4769 0.03692 0.0
C119 C 0.45231 0.46196 0.05846 0.0
C120 C 0.46619 0.45116 0.05647 0.0
C121 C 0.47931 0.46026 0.03403 0.0
N122 N 0.5195 0.49094 0.9944 0.0
C123 C 0.51827 0.47188 0.00744 0.0
C124 C 0.53762 0.4688 0.00156 0.0
C125 C 0.55187 0.48706 0.98374 0.0
C126 C 0.54125 0.50134 0.98064 0.0
N127 N 0.50698 0.52516 0.00793 0.0
C128 C 0.52058 0.56383 0.04017 0.0
C129 C 0.52676 0.54598 0.04544 0.0
C130 C 0.51943 0.52668 0.0294 0.0
C131 C 0.50939 0.56281 0.01703 0.0
C132 C 0.50341 0.54378 1.00098 0.0
N133 N 0.47326 0.46358 0.97225 0.0
C134 C 0.43717 0.42287 0.96568 0.0
C135 C 0.4512 0.41873 0.94835 0.0
C136 C 0.47596 0.43773 0.94264 0.0
C137 C 0.48651 0.4598 0.9546 0.0
C138 C 0.44865 0.44545 0.97756 0.0
H139 H 0.50567 0.4736 0.94963 0.0
H140 H 0.43777 0.44815 0.99127 0.0
H141 H 0.52274 0.5123 0.03501 0.0
H142 H 0.49436 0.54327 0.98363 0.0
C143 C 0.46726 0.50735 0.94201 0.0
C144 C 0.54984 0.5222 0.96194 0.0
C145 C 0.44554 0.49059 0.03 0.0
C146 C 0.4991 0.45795 0.02561 0.0
H147 H 0.54333 0.52928 0.90836 0.0
H148 H 0.4991 0.52233 0.89789 0.0
H149 H 0.42118 0.50571 0.95263 0.0
H150 H 0.4106 0.49859 0.00175 0.0
H151 H 0.43982 0.45911 0.07397 0.0
H152 H 0.46739 0.43903 0.07026 0.0
H153 H 0.54057 0.45451 0.00869 0.0
H154 H 0.56738 0.48849 0.97327 0.0
H155 H 0.53653 0.54625 0.0622 0.0
H156 H 0.50404 0.57577 0.01154 0.0
H157 H 0.41784 0.40862 0.97045 0.0
H158 H 0.4873 0.43553 0.92895 0.0
C159 C 0.96423 0.45212 0.5169 0.0
C160 C 0.94371 0.43201 0.50639 0.0
C161 C 0.93843 0.44081 0.48516 0.0
C162 C 0.95602 0.46566 0.48391 0.0
N163 N 0.9726 0.47316 0.50273 0.0
Co164 Co 1.00026 0.50778 0.5092 0.0
N165 N 0.99051 0.52129 0.47991 0.0
C166 C 0.97092 0.50848 0.46461 0.0
C167 C 0.97022 0.52258 0.44505 0.0
C168 C 0.99098 0.54561 0.44759 0.0
C169 C 0.00314 0.54421 0.46868 0.0
N170 N 0.028 0.54241 0.51551 0.0
C171 C 0.03702 0.56318 0.50069 0.0
C172 C 0.05782 0.58327 0.51086 0.0
C173 C 0.0626 0.57472 0.53259 0.0
C174 C 0.04449 0.55001 0.53442 0.0
N175 N 0.01001 0.4943 0.5385 0.0
C176 C 0.0293 0.50724 0.5541 0.0
C177 C 0.03019 0.49313 0.57352 0.0
C178 C 0.00992 0.4699 0.57052 0.0
C179 C 0.99784 0.4712 0.5493 0.0
N180 N 0.02364 0.50471 0.48679 0.0
C181 C 0.05821 0.50461 0.45313 0.0
C182 C 0.06522 0.51285 0.47732 0.0
C183 C 0.04778 0.51274 0.49371 0.0
C184 C 0.0334 0.49571 0.44635 0.0
C185 C 0.01655 0.4958 0.46335 0.0
N186 N 0.97679 0.51073 0.53172 0.0
C187 C 0.96653 0.51824 0.57275 0.0
C188 C 0.94137 0.50803 0.56644 0.0
C189 C 0.93453 0.50033 0.54205 0.0
C190 C 0.95239 0.50191 0.52514 0.0
C191 C 0.98381 0.5196 0.5552 0.0
H192 H 0.9458 0.49525 0.50706 0.0
H193 H 0.00261 0.52742 0.56127 0.0
H194 H 0.05442 0.51967 0.51171 0.0
H195 H 0.99799 0.48889 0.45696 0.0
C196 C 0.95576 0.48274 0.467 0.0
C197 C 0.97368 0.4507 0.5414 0.0
C198 C 0.02789 0.56422 0.4759 0.0
C199 C 0.0445 0.53298 0.55159 0.0
H200 H 0.93306 0.41315 0.5139 0.0
H201 H 0.92287 0.43053 0.47281 0.0
H202 H 0.95711 0.51649 0.42985 0.0
H203 H 0.9971 0.56129 0.43467 0.0
H204 H 0.06902 0.60188 0.50275 0.0
H205 H 0.07831 0.58497 0.54479 0.0
H206 H 0.04323 0.49925 0.58878 0.0
H207 H 0.00412 0.45408 0.58314 0.0
H208 H 0.08427 0.51996 0.48343 0.0
H209 H 0.02693 0.48863 0.42797 0.0
H210 H 0.97291 0.5251 0.59122 0.0
H211 H 0.91528 0.49236 0.53619 0.0
C212 C 0.47972 0.9975 0.05669 0.0
C213 C 0.48011 0.00883 0.07844 0.0
C214 C 0.50274 0.03071 0.07829 0.0
C215 C 0.51485 0.03143 0.0566 0.0
N216 N 0.50116 0.01154 0.04263 0.0
Co217 Co 0.51245 0.00415 0.01084 0.0
N218 N 0.54589 0.03617 0.01077 0.0
C219 C 0.55356 0.05409 0.02738 0.0
C220 C 0.57665 0.07477 0.02146 0.0
C221 C 0.58397 0.07001 0.99945 0.0
C222 C 0.56488 0.04655 0.99331 0.0
N223 N 0.52419 0.99605 0.97987 0.0
C224 C 0.54578 0.00976 0.96604 0.0
C225 C 0.54659 0.99707 0.94597 0.0
C226 C 0.52448 0.97468 0.94689 0.0
C227 C 0.51155 0.97493 0.96746 0.0
N228 N 0.47851 0.97282 0.01004 0.0
C229 C 0.47002 0.95601 0.99213 0.0
C230 C 0.44582 0.9365 0.99651 0.0
C231 C 0.43845 0.94104 0.01861 0.0
C232 C 0.45873 0.96308 0.02652 0.0
N233 N 0.49944 0.0212 0.99023 0.0
C234 C 0.48989 0.05044 0.9575 0.0
C235 C 0.48667 0.02841 0.94984 0.0
C236 C 0.49105 0.01391 0.96656 0.0
C237 C 0.49616 0.05674 0.98228 0.0
C238 C 0.50089 0.04197 0.99824 0.0
N239 N 0.52584 0.98731 0.03128 0.0
C240 C 0.52685 0.95091 0.04219 0.0
C241 C 0.54564 0.96366 0.05959 0.0
C242 C 0.55415 0.98843 0.06269 0.0
C243 C 0.54395 0.99972 0.04864 0.0
C244 C 0.51744 0.96301 0.02827 0.0
H245 H 0.55109 0.01853 0.05218 0.0
H246 H 0.50332 0.95222 0.01523 0.0
H247 H 0.4883 0.9973 0.95963 0.0
H248 H 0.50653 0.04822 0.01666 0.0
C249 C 0.53872 0.05077 0.04846 0.0
C250 C 0.45882 0.97316 0.05053 0.0
C251 C 0.56516 0.0353 0.97022 0.0
C252 C 0.4863 0.9574 0.97337 0.0
H253 H 0.4656 0.00187 0.09299 0.0
H254 H 0.50961 0.04441 0.09238 0.0
H255 H 0.58679 0.09146 0.03174 0.0
H256 H 0.60122 0.08253 0.98892 0.0
H257 H 0.56129 0.00369 0.93167 0.0
H258 H 0.51807 0.96042 0.93346 0.0
H259 H 0.4352 0.92038 0.98551 0.0
H260 H 0.42049 0.9291 0.02825 0.0
H261 H 0.4812 0.02262 0.93089 0.0
H262 H 0.4986 0.07361 0.98897 0.0
H263 H 0.51909 0.93153 0.03946 0.0
H264 H 0.56882 0.99924 0.07575 0.0
C265 C 0.51559 0.5532 0.49584 0.0
C266 C 0.51079 0.56922 0.50775 0.0
C267 C 0.49506 0.55618 0.5277 0.0
C268 C 0.49132 0.53311 0.52696 0.0
N269 N 0.50394 0.5307 0.50786 0.0
Co270 Co 0.50429 0.50055 0.50004 0.0
N271 N 0.48008 0.48104 0.52853 0.0
C272 C 0.46823 0.48836 0.5437 0.0
C273 C 0.45366 0.47113 0.5623 0.0
C274 C 0.45683 0.4519 0.55911 0.0
C275 C 0.47323 0.45862 0.53872 0.0
N276 N 0.5052 0.47055 0.49279 0.0
C277 C 0.4962 0.44931 0.50677 0.0
C278 C 0.50253 0.4338 0.49625 0.0
C279 C 0.51652 0.44592 0.47506 0.0
C280 C 0.51797 0.46804 0.47397 0.0
N281 N 0.52809 0.51989 0.47118 0.0
C282 C 0.53789 0.51157 0.4546 0.0
C283 C 0.55243 0.52858 0.43592 0.0
C284 C 0.55162 0.5489 0.4406 0.0
C285 C 0.53671 0.54316 0.46211 0.0
N286 N 0.53304 0.51105 0.52278 0.0
C287 C 0.57262 0.52371 0.55613 0.0
C288 C 0.57449 0.51866 0.53129 0.0
C289 C 0.55455 0.51227 0.51508 0.0
C290 C 0.55082 0.52273 0.56383 0.0
C291 C 0.53154 0.5166 0.54699 0.0
N292 N 0.47538 0.49005 0.47722 0.0
C293 C 0.4549 0.47389 0.43791 0.0
C294 C 0.43582 0.47811 0.44378 0.0
C295 C 0.43659 0.48783 0.46695 0.0
C296 C 0.45623 0.49351 0.48321 0.0
C297 C 0.47433 0.47997 0.45471 0.0
H298 H 0.45555 0.5009 0.50042 0.0
H299 H 0.48844 0.47665 0.44886 0.0
H300 H 0.5568 0.50809 0.49649 0.0
H301 H 0.51549 0.51626 0.55408 0.0
C302 C 0.47455 0.51285 0.54264 0.0
C303 C 0.53009 0.55983 0.47239 0.0
C304 C 0.48353 0.44414 0.53107 0.0
C305 C 0.53277 0.48755 0.45678 0.0
H306 H 0.51748 0.58818 0.50217 0.0
H307 H 0.48676 0.56255 0.54075 0.0
H308 H 0.44331 0.47299 0.57735 0.0
H309 H 0.44895 0.43531 0.5711 0.0
H310 H 0.49829 0.41599 0.50362 0.0
H311 H 0.52551 0.43981 0.46258 0.0
H312 H 0.56204 0.5263 0.42044 0.0
H313 H 0.5606 0.56579 0.42906 0.0
H314 H 0.59099 0.51905 0.52452 0.0
H315 H 0.54866 0.52685 0.58279 0.0
H316 H 0.45526 0.4665 0.42013 0.0
H317 H 0.42201 0.49102 0.47264 0.0
C318 C 0.25397 0.45789 0.26676 0.0
C319 C 0.19648 0.45822 0.20406 0.0
O320 O 0.23538 0.43905 0.25732 0.0
Zn321 Zn 0.22481 0.45679 0.23518 0.0
O322 O 0.25929 0.47947 0.2595 0.0
Zn323 Zn 0.24598 0.49634 0.23391 0.0
O324 O 0.23712 0.51375 0.25638 0.0
O325 O 0.21273 0.47324 0.26131 0.0
O326 O 0.21426 0.47974 0.20999 0.0
O327 O 0.19531 0.4393 0.21416 0.0
O328 O 0.25517 0.47419 0.20817 0.0
O329 O 0.27418 0.51454 0.21024 0.0
C330 C 0.21873 0.49479 0.26761 0.0
C331 C 0.27252 0.49598 0.20044 0.0
C332 C 0.78824 0.25327 0.70417 0.0
C333 C 0.73243 0.19585 0.77156 0.0
O334 O 0.77055 0.25657 0.71051 0.0
Zn335 Zn 0.73901 0.24089 0.73636 0.0
O336 O 0.78934 0.23575 0.71478 0.0
Zn337 Zn 0.76053 0.22384 0.73746 0.0
O338 O 0.72929 0.20788 0.71278 0.0
O339 O 0.71055 0.22878 0.71444 0.0
O340 O 0.75166 0.19706 0.76201 0.0
O341 O 0.72617 0.21093 0.76351 0.0
O342 O 0.7482 0.26864 0.75719 0.0
O343 O 0.77368 0.25478 0.76042 0.0
C344 C 0.71178 0.21128 0.70567 0.0
C345 C 0.76774 0.27027 0.76632 0.0
C346 C 0.52512 0.78298 0.2828 0.0
C347 C 0.53379 0.73048 0.2243 0.0
O348 O 0.54769 0.78781 0.28071 0.0
Zn349 Zn 0.56819 0.77587 0.25969 0.0
O350 O 0.50791 0.76635 0.26981 0.0
Zn351 Zn 0.5288 0.7565 0.25335 0.0
O352 O 0.54015 0.74207 0.28394 0.0
O353 O 0.58162 0.76497 0.28587 0.0
O354 O 0.51371 0.72936 0.23095 0.0
O355 O 0.55484 0.74679 0.23351 0.0
O356 O 0.59126 0.80537 0.23972 0.0
O357 O 0.55165 0.78743 0.22813 0.0
C358 C 0.56065 0.74689 0.29434 0.0
C359 C 0.57491 0.80454 0.22507 0.0
C360 C 0.80893 0.5529 0.80279 0.0
C361 C 0.75113 0.55461 0.74155 0.0
O362 O 0.78793 0.53238 0.80113 0.0
Zn363 Zn 0.75394 0.5169 0.78109 0.0
O364 O 0.81296 0.5716 0.78944 0.0
Zn365 Zn 0.78078 0.5554 0.77214 0.0
O366 O 0.75388 0.54805 0.80134 0.0
O367 O 0.72862 0.50773 0.8073 0.0
O368 O 0.77294 0.57275 0.74645 0.0
O369 O 0.74265 0.53367 0.75314 0.0
O370 O 0.75546 0.49194 0.76273 0.0
O371 O 0.78392 0.53022 0.74979 0.0
C372 C 0.73506 0.52942 0.81291 0.0
C373 C 0.77363 0.50694 0.74799 0.0
C374 C 0.2721 0.80199 0.23186 0.0
C375 C 0.20913 0.74025 0.29266 0.0
O376 O 0.25294 0.80144 0.24069 0.0
Zn377 Zn 0.2398 0.77128 0.26174 0.0
O378 O 0.27586 0.78477 0.23841 0.0
Zn379 Zn 0.2589 0.75189 0.26206 0.0
O380 O 0.24982 0.72634 0.23869 0.0
O381 O 0.2276 0.74374 0.23455 0.0
O382 O 0.22623 0.73605 0.28647 0.0
O383 O 0.2096 0.75885 0.28267 0.0
O384 O 0.2685 0.78205 0.28914 0.0
O385 O 0.28566 0.75981 0.28505 0.0
C386 C 0.23279 0.72797 0.22762 0.0
C387 C 0.28455 0.77648 0.29601 0.0
C388 C 0.43241 0.24496 0.77979 0.0
C389 C 0.43954 0.19647 0.71523 0.0
O390 O 0.4552 0.25234 0.77353 0.0
Zn391 Zn 0.47508 0.24327 0.74772 0.0
O392 O 0.41427 0.22692 0.76894 0.0
Zn393 Zn 0.43494 0.22053 0.74732 0.0
O394 O 0.45289 0.20924 0.77404 0.0
O395 O 0.49411 0.23494 0.76966 0.0
O396 O 0.41934 0.19292 0.7251 0.0
O397 O 0.4608 0.21445 0.72209 0.0
O398 O 0.49292 0.27249 0.72595 0.0
O399 O 0.45162 0.25257 0.72227 0.0
C400 C 0.47531 0.21611 0.78053 0.0
C401 C 0.47371 0.27081 0.71595 0.0
H402 H 0.01892 0.42331 0.05007 0.0
H403 H 0.04674 0.4185 0.07894 0.0
H404 H 0.09627 0.49766 0.07918 0.0
H405 H 0.06851 0.50235 0.05029 0.0
H406 H 0.12252 0.47584 0.07375 0.0
H407 H 0.05568 0.46465 0.12821 0.0
H408 H 0.01145 0.44537 0.14246 0.0
H409 H 0.0047 0.37524 0.15203 0.0
H410 H 0.0488 0.39405 0.13742 0.0
H411 H 0.19548 0.49569 0.1795 0.0
H412 H 0.16514 0.49314 0.14952 0.0
H413 H 0.12431 0.41372 0.15644 0.0
H414 H 0.15475 0.41609 0.18704 0.0
H415 H 0.09255 0.43113 0.1566 0.0
H416 H 0.16063 0.44322 0.10494 0.0
H417 H 0.20492 0.46282 0.09077 0.0
H418 H 0.20939 0.53137 0.07586 0.0
H419 H 0.16522 0.51228 0.0903 0.0
C420 C 0.03568 0.43959 0.05652 0.0
C421 C 0.04155 0.46318 0.04832 0.0
C422 C 0.05153 0.43687 0.07297 0.0
C423 C 0.07351 0.45773 0.08144 0.0
C424 C 0.07944 0.4813 0.07294 0.0
C425 C 0.0636 0.48399 0.05655 0.0
C426 C 0.09052 0.45516 0.09899 0.0
C427 C 0.11599 0.46624 0.09195 0.0
C428 C 0.08189 0.44198 0.12244 0.0
C429 C 0.05545 0.4307 0.13145 0.0
C430 C 0.04471 0.44508 0.13316 0.0
C431 C 0.01967 0.43424 0.14133 0.0
C432 C 0.00525 0.40908 0.14808 0.0
C433 C 0.01588 0.39472 0.14675 0.0
C434 C 0.04089 0.40546 0.13853 0.0
C435 C 0.18012 0.47759 0.17472 0.0
C436 C 0.17769 0.45607 0.18566 0.0
C437 C 0.16279 0.47619 0.15743 0.0
C438 C 0.14263 0.45325 0.15039 0.0
C439 C 0.13981 0.43164 0.1615 0.0
C440 C 0.15726 0.43302 0.17891 0.0
C441 C 0.12464 0.45223 0.13152 0.0
C442 C 0.09901 0.44048 0.13828 0.0
C443 C 0.1331 0.46481 0.10777 0.0
C444 C 0.15964 0.47634 0.09888 0.0
C445 C 0.1711 0.46252 0.0988 0.0
C446 C 0.19618 0.47353 0.0907 0.0
C447 C 0.20997 0.49834 0.08246 0.0
C448 C 0.19868 0.51216 0.08225 0.0
C449 C 0.17361 0.50124 0.09037 0.0
H450 H 0.22939 0.50683 0.07619 0.0
H451 H 0.98587 0.40072 0.15441 0.0
H452 H 0.59022 0.04461 0.55251 0.0
H453 H 0.61545 0.07614 0.58262 0.0
H454 H 0.56509 0.10266 0.57718 0.0
H455 H 0.53953 0.07072 0.54736 0.0
H456 H 0.6184 0.1408 0.57601 0.0
H457 H 0.55743 0.07025 0.62572 0.0
H458 H 0.53286 0.02606 0.6386 0.0
H459 H 0.60085 0.02933 0.65864 0.0
H460 H 0.62591 0.07348 0.64542 0.0
H461 H 0.67307 0.21344 0.68413 0.0
H462 H 0.64225 0.18484 0.65471 0.0
H463 H 0.67748 0.14251 0.65729 0.0
H464 H 0.70802 0.17067 0.68663 0.0
H465 H 0.62691 0.11288 0.66129 0.0
H466 H 0.68794 0.1821 0.60802 0.0
H467 H 0.71297 0.22587 0.5935 0.0
H468 H 0.64505 0.22499 0.57965 0.0
H469 H 0.6196 0.18127 0.59442 0.0
C470 C 0.58462 0.0572 0.55782 0.0
C471 C 0.56287 0.05516 0.54808 0.0
C472 C 0.59899 0.07517 0.5749 0.0
C473 C 0.59197 0.09155 0.58224 0.0
C474 C 0.57077 0.09016 0.57174 0.0
C475 C 0.55622 0.07198 0.55483 0.0
C476 C 0.60646 0.10951 0.60154 0.0
C477 C 0.61994 0.13479 0.59482 0.0
C478 C 0.60858 0.10156 0.62594 0.0
C479 C 0.59357 0.07513 0.63439 0.0
C480 C 0.56717 0.06151 0.63271 0.0
C481 C 0.55315 0.03647 0.64008 0.0
C482 C 0.56529 0.02488 0.64938 0.0
C483 C 0.59148 0.03833 0.65141 0.0
C484 C 0.6056 0.06337 0.644 0.0
C485 C 0.67423 0.19805 0.67841 0.0
C486 C 0.69307 0.19441 0.6877 0.0
C487 C 0.65665 0.18176 0.66156 0.0
C488 C 0.65764 0.1616 0.65372 0.0
C489 C 0.6763 0.15789 0.66313 0.0
C490 C 0.69385 0.17412 0.67984 0.0
C491 C 0.63944 0.14426 0.63564 0.0
C492 C 0.62517 0.11901 0.64262 0.0
C493 C 0.63662 0.15228 0.61149 0.0
C494 C 0.65188 0.17852 0.60261 0.0
C495 C 0.67835 0.19131 0.60209 0.0
C496 C 0.69261 0.21609 0.59377 0.0
C497 C 0.68061 0.22823 0.58574 0.0
C498 C 0.65432 0.21558 0.58593 0.0
C499 C 0.63997 0.1908 0.59426 0.0
H500 H 0.69169 0.24741 0.5793 0.0
H501 H 0.5544 0.00549 0.65507 0.0
H502 H 0.52513 0.60935 0.03256 0.0
H503 H 0.52717 0.63668 0.0637 0.0
H504 H 0.53043 0.59015 0.12215 0.0
H505 H 0.52439 0.56077 0.09177 0.0
H506 H 0.5052 0.60332 0.14026 0.0
H507 H 0.58407 0.65112 0.09717 0.0
H508 H 0.61409 0.67123 0.06141 0.0
H509 H 0.58254 0.71499 0.04305 0.0
H510 H 0.55211 0.69492 0.07852 0.0
H511 H 0.57387 0.73099 0.20338 0.0
H512 H 0.57329 0.70312 0.17314 0.0
H513 H 0.49212 0.66339 0.17302 0.0
H514 H 0.49254 0.69118 0.20349 0.0
H515 H 0.55892 0.6942 0.12728 0.0
H516 H 0.46902 0.60118 0.16591 0.0
H517 H 0.44993 0.57992 0.20681 0.0
H518 H 0.52008 0.62648 0.2425 0.0
H519 H 0.5398 0.64768 0.20197 0.0
C520 C 0.5257 0.60439 0.05199 0.0
C521 C 0.52452 0.58235 0.05912 0.0
C522 C 0.52752 0.6206 0.06994 0.0
C523 C 0.52953 0.61602 0.09551 0.0
C524 C 0.5289 0.59436 0.10266 0.0
C525 C 0.52599 0.57763 0.08489 0.0
C526 C 0.53147 0.63321 0.11491 0.0
C527 C 0.517 0.62318 0.13726 0.0
C528 C 0.54744 0.65925 0.11176 0.0
C529 C 0.56565 0.67134 0.09036 0.0
C530 C 0.58342 0.66491 0.0854 0.0
C531 C 0.60053 0.67632 0.0652 0.0
C532 C 0.60018 0.69433 0.04993 0.0
C533 C 0.58276 0.70101 0.05487 0.0
C534 C 0.56559 0.68964 0.07503 0.0
C535 C 0.55585 0.71631 0.197 0.0
C536 C 0.53323 0.71334 0.20593 0.0
C537 C 0.55557 0.70042 0.17958 0.0
C538 C 0.53268 0.68105 0.1708 0.0
C539 C 0.51004 0.67803 0.17968 0.0
C540 C 0.5103 0.694 0.19705 0.0
C541 C 0.53251 0.66418 0.15223 0.0
C542 C 0.54716 0.67431 0.13008 0.0
C543 C 0.51804 0.63824 0.15626 0.0
C544 C 0.50576 0.62637 0.18091 0.0
C545 C 0.48032 0.60702 0.18252 0.0
C546 C 0.46938 0.59497 0.20564 0.0
C547 C 0.48363 0.60209 0.22727 0.0
C548 C 0.50893 0.62122 0.22583 0.0
C549 C 0.52 0.63329 0.20278 0.0
H550 H 0.47512 0.59261 0.2451 0.0
H551 H 0.61344 0.70314 0.0343 0.0
H552 H 0.9036 0.517 0.55959 0.0
H553 H 0.8724 0.51222 0.59054 0.0
H554 H 0.90495 0.48802 0.64674 0.0
H555 H 0.93591 0.49222 0.6157 0.0
H556 H 0.85316 0.46001 0.64909 0.0
H557 H 0.91835 0.54573 0.64614 0.0
H558 H 0.94763 0.58667 0.6259 0.0
H559 H 0.88513 0.58966 0.59776 0.0
H560 H 0.85546 0.54856 0.61755 0.0
H561 H 0.79616 0.48074 0.75497 0.0
H562 H 0.8222 0.4763 0.72393 0.0
H563 H 0.80023 0.51041 0.66687 0.0
H564 H 0.77552 0.51603 0.69819 0.0
H565 H 0.84776 0.53261 0.66592 0.0
H566 H 0.78201 0.44641 0.67042 0.0
H567 H 0.75345 0.40542 0.69092 0.0
H568 H 0.81696 0.40282 0.71639 0.0
H569 H 0.84591 0.44403 0.69657 0.0
C570 C 0.904 0.51046 0.57847 0.0
C571 C 0.92236 0.50516 0.58522 0.0
C572 C 0.88624 0.50786 0.59618 0.0
C573 C 0.8865 0.49998 0.62102 0.0
C574 C 0.90445 0.49418 0.62771 0.0
C575 C 0.92228 0.49684 0.61001 0.0
C576 C 0.86847 0.49852 0.64012 0.0
C577 C 0.85206 0.4759 0.65302 0.0
C578 C 0.8669 0.51919 0.64497 0.0
C579 C 0.88469 0.54396 0.63313 0.0
C580 C 0.91085 0.55503 0.63547 0.0
C581 C 0.92752 0.57828 0.62411 0.0
C582 C 0.91824 0.59073 0.6105 0.0
C583 C 0.89228 0.57998 0.60828 0.0
C584 C 0.87553 0.55672 0.61958 0.0
C585 C 0.79635 0.48652 0.7356 0.0
C586 C 0.7837 0.49844 0.72876 0.0
C587 C 0.81124 0.48403 0.71785 0.0
C588 C 0.8132 0.49295 0.69291 0.0
C589 C 0.7992 0.50348 0.68594 0.0
C590 C 0.78488 0.50648 0.70375 0.0
C591 C 0.83168 0.49383 0.67463 0.0
C592 C 0.84851 0.51653 0.66198 0.0
C593 C 0.83358 0.4732 0.67013 0.0
C594 C 0.81614 0.44847 0.68224 0.0
C595 C 0.78989 0.43723 0.68063 0.0
C596 C 0.77363 0.41393 0.69213 0.0
C597 C 0.78338 0.40158 0.70507 0.0
C598 C 0.80942 0.41246 0.70649 0.0
C599 C 0.82577 0.43579 0.69513 0.0
H600 H 0.77077 0.38353 0.71393 0.0
H601 H 0.93118 0.60873 0.60172 0.0
H602 H 0.41447 0.97044 0.05884 0.0
H603 H 0.38066 0.94291 0.08933 0.0
H604 H 0.42494 0.91328 0.11526 0.0
H605 H 0.45842 0.94054 0.08454 0.0
H606 H 0.37734 0.8772 0.10754 0.0
H607 H 0.41844 0.95454 0.14891 0.0
H608 H 0.43435 0.99875 0.15206 0.0
H609 H 0.35954 0.9839 0.14289 0.0
H610 H 0.34324 0.93963 0.13928 0.0
H611 H 0.31953 0.81403 0.21999 0.0
H612 H 0.34904 0.84492 0.18913 0.0
H613 H 0.29586 0.86633 0.17212 0.0
H614 H 0.26612 0.83551 0.20375 0.0
H615 H 0.34394 0.90641 0.17254 0.0
H616 H 0.30224 0.82912 0.13353 0.0
H617 H 0.28588 0.78487 0.12996 0.0
H618 H 0.36105 0.79954 0.13359 0.0
H619 H 0.37784 0.84385 0.13755 0.0
C620 C 0.41688 0.95811 0.07125 0.0
C621 C 0.43886 0.9575 0.06963 0.0
C622 C 0.39768 0.94248 0.08865 0.0
C623 C 0.40033 0.92614 0.10475 0.0
C624 C 0.42245 0.9257 0.10306 0.0
C625 C 0.44157 0.94127 0.08566 0.0
C626 C 0.3799 0.90898 0.12295 0.0
C627 C 0.37024 0.88364 0.1219 0.0
C628 C 0.36991 0.91725 0.14112 0.0
C629 C 0.37966 0.94381 0.14357 0.0
C630 C 0.40541 0.96073 0.14738 0.0
C631 C 0.41449 0.98579 0.14927 0.0
C632 C 0.39797 0.99414 0.14761 0.0
C633 C 0.37232 0.97742 0.14413 0.0
C634 C 0.36315 0.95234 0.14217 0.0
C635 C 0.31402 0.8253 0.20978 0.0
C636 C 0.29029 0.82205 0.2141 0.0
C637 C 0.33096 0.84297 0.19207 0.0
C638 C 0.32447 0.85757 0.17786 0.0
C639 C 0.30119 0.85513 0.18275 0.0
C640 C 0.28421 0.83751 0.20077 0.0
C641 C 0.34193 0.87473 0.15751 0.0
C642 C 0.35092 0.89999 0.15806 0.0
C643 C 0.35126 0.86642 0.13872 0.0
C644 C 0.34128 0.8398 0.136 0.0
C645 C 0.31527 0.8229 0.13371 0.0
C646 C 0.30592 0.7978 0.13161 0.0
C647 C 0.32241 0.7894 0.13159 0.0
C648 C 0.3483 0.80608 0.13361 0.0
C649 C 0.35774 0.83119 0.13575 0.0
H650 H 0.31513 0.76996 0.12998 0.0
H651 H 0.40504 0.01355 0.14908 0.0
H652 H 0.45386 0.39403 0.53285 0.0
H653 H 0.45425 0.36518 0.56428 0.0
H654 H 0.51526 0.42651 0.60145 0.0
H655 H 0.51461 0.45526 0.57016 0.0
H656 H 0.49047 0.3559 0.5785 0.0
H657 H 0.5055 0.41312 0.66473 0.0
H658 H 0.49847 0.44556 0.67777 0.0
H659 H 0.43629 0.41945 0.62815 0.0
H660 H 0.44265 0.3866 0.61518 0.0
H661 H 0.51564 0.30425 0.68786 0.0
H662 H 0.51912 0.33478 0.65617 0.0
H663 H 0.44157 0.31091 0.67089 0.0
H664 H 0.43781 0.28024 0.70218 0.0
H665 H 0.47522 0.36299 0.66806 0.0
H666 H 0.45259 0.29083 0.62232 0.0
H667 H 0.45769 0.25743 0.60852 0.0
H668 H 0.53047 0.31087 0.57629 0.0
H669 H 0.52595 0.34463 0.59025 0.0
C670 C 0.46736 0.40116 0.54773 0.0
C671 C 0.48417 0.42662 0.54936 0.0
C672 C 0.46767 0.38479 0.56553 0.0
C673 C 0.48468 0.39374 0.58525 0.0
C674 C 0.50183 0.41926 0.58653 0.0
C675 C 0.50148 0.4356 0.56875 0.0
C676 C 0.48378 0.37643 0.605 0.0
C677 C 0.48727 0.35752 0.59809 0.0
C678 C 0.47934 0.37843 0.63052 0.0
C679 C 0.47473 0.39756 0.63882 0.0
C680 C 0.49023 0.41421 0.65674 0.0
C681 C 0.48637 0.43268 0.6641 0.0
C682 C 0.46699 0.43461 0.65374 0.0
C683 C 0.45133 0.41798 0.63612 0.0
C684 C 0.45506 0.39943 0.62876 0.0
C685 C 0.49938 0.3056 0.68438 0.0
C686 C 0.47642 0.28979 0.69737 0.0
C687 C 0.50139 0.32298 0.66629 0.0
C688 C 0.48057 0.32499 0.66123 0.0
C689 C 0.45784 0.30963 0.67459 0.0
C690 C 0.4557 0.29204 0.69234 0.0
C691 C 0.48212 0.34263 0.64155 0.0
C692 C 0.47872 0.36157 0.6485 0.0
C693 C 0.48634 0.34049 0.61605 0.0
C694 C 0.48906 0.32024 0.60758 0.0
C695 C 0.46978 0.29546 0.6125 0.0
C696 C 0.47254 0.27646 0.60461 0.0
C697 C 0.49442 0.28202 0.59161 0.0
C698 C 0.51355 0.3066 0.58641 0.0
C699 C 0.5109 0.32567 0.59429 0.0
H700 H 0.49652 0.26729 0.58551 0.0
H701 H 0.46409 0.44896 0.65941 0.0
H702 H 0.48707 0.93395 0.40271 0.0
H703 H 0.48658 0.90476 0.37401 0.0
H704 H 0.53195 0.89152 0.42489 0.0
H705 H 0.53233 0.92054 0.45376 0.0
H706 H 0.54957 0.90186 0.37421 0.0
H707 H 0.47174 0.85114 0.4221 0.0
H708 H 0.42985 0.83964 0.4382 0.0
H709 H 0.40351 0.83309 0.36307 0.0
H710 H 0.44553 0.84546 0.34641 0.0
H711 H 0.54898 0.80272 0.32583 0.0
H712 H 0.54311 0.82887 0.35325 0.0
H713 H 0.48436 0.82275 0.30606 0.0
H714 H 0.48931 0.79525 0.27918 0.0
H715 H 0.47214 0.82386 0.35198 0.0
H716 H 0.5466 0.87479 0.30273 0.0
H717 H 0.58803 0.88858 0.28341 0.0
H718 H 0.61994 0.89779 0.35628 0.0
H719 H 0.57861 0.88372 0.37606 0.0
C720 C 0.49701 0.92486 0.40772 0.0
C721 C 0.50983 0.92958 0.43044 0.0
C722 C 0.49656 0.90809 0.3914 0.0
C723 C 0.50913 0.8959 0.39738 0.0
C724 C 0.52208 0.9007 0.41996 0.0
C725 C 0.52223 0.9172 0.43646 0.0
C726 C 0.50943 0.87861 0.37989 0.0
C727 C 0.53269 0.88465 0.36956 0.0
C728 C 0.4872 0.85676 0.37293 0.0
C729 C 0.46195 0.84952 0.38298 0.0
C730 C 0.45716 0.84763 0.40896 0.0
C731 C 0.43338 0.84096 0.4182 0.0
C732 C 0.41408 0.83576 0.40165 0.0
C733 C 0.41854 0.83729 0.37584 0.0
C734 C 0.44235 0.84417 0.36649 0.0
C735 C 0.53465 0.80678 0.32139 0.0
C736 C 0.51978 0.79716 0.30022 0.0
C737 C 0.53141 0.82189 0.33701 0.0
C738 C 0.51383 0.82852 0.33137 0.0
C739 C 0.4982 0.81812 0.31075 0.0
C740 C 0.50104 0.80243 0.29538 0.0
C741 C 0.51247 0.84679 0.34671 0.0
C742 C 0.48904 0.84108 0.3565 0.0
C743 C 0.53447 0.86938 0.35269 0.0
C744 C 0.55944 0.878 0.34088 0.0
C745 C 0.56241 0.87961 0.31464 0.0
C746 C 0.58588 0.88749 0.30361 0.0
C747 C 0.60659 0.89401 0.31861 0.0
C748 C 0.60388 0.89272 0.34468 0.0
C749 C 0.58044 0.88481 0.35582 0.0
H750 H 0.62474 0.9001 0.31003 0.0
H751 H 0.39563 0.83035 0.40884 0.0
H752 H 0.59382 0.52774 0.98337 0.0
H753 H 0.63084 0.53726 0.95923 0.0
H754 H 0.6117 0.57305 0.90161 0.0
H755 H 0.574 0.5623 0.92569 0.0
H756 H 0.61601 0.53994 0.8803 0.0
H757 H 0.6677 0.60275 0.93473 0.0
H758 H 0.68433 0.62292 0.9746 0.0
H759 H 0.7067 0.57172 0.99394 0.0
H760 H 0.68988 0.551 0.95435 0.0
H761 H 0.74788 0.57285 0.83346 0.0
H762 H 0.72226 0.5808 0.86121 0.0
H763 H 0.66335 0.50378 0.86239 0.0
H764 H 0.68888 0.49563 0.83452 0.0
H765 H 0.70145 0.56438 0.90794 0.0
H766 H 0.60677 0.50046 0.85822 0.0
H767 H 0.59248 0.48541 0.81594 0.0
H768 H 0.65995 0.54808 0.78341 0.0
H769 H 0.67427 0.56389 0.82536 0.0
C770 C 0.59638 0.53602 0.96476 0.0
C771 C 0.57741 0.53837 0.95335 0.0
C772 C 0.61845 0.54265 0.95141 0.0
C773 C 0.62324 0.55423 0.92745 0.0
C774 C 0.60748 0.56231 0.9191 0.0
C775 C 0.58526 0.55524 0.93251 0.0
C776 C 0.64248 0.55515 0.9102 0.0
C777 C 0.63475 0.54552 0.88638 0.0
C778 C 0.66719 0.56283 0.91772 0.0
C779 C 0.67737 0.57522 0.94159 0.0
C780 C 0.676 0.59567 0.94756 0.0
C781 C 0.68549 0.60722 0.9701 0.0
C782 C 0.69653 0.59858 0.98681 0.0
C783 C 0.69814 0.5784 0.98098 0.0
C784 C 0.68867 0.56676 0.95846 0.0
C785 C 0.72955 0.55752 0.83977 0.0
C786 C 0.72036 0.5336 0.83162 0.0
C787 C 0.71498 0.56211 0.85574 0.0
C788 C 0.6908 0.54297 0.86366 0.0
C789 C 0.68188 0.5189 0.85626 0.0
C790 C 0.69653 0.51424 0.84042 0.0
C791 C 0.67445 0.54828 0.87876 0.0
C792 C 0.68274 0.55905 0.90199 0.0
C793 C 0.65051 0.54235 0.87043 0.0
C794 C 0.64172 0.53321 0.84502 0.0
C795 C 0.61847 0.51112 0.84204 0.0
C796 C 0.61034 0.50248 0.81811 0.0
C797 C 0.62529 0.51578 0.79699 0.0
C798 C 0.64835 0.53781 0.79976 0.0
C799 C 0.65649 0.54662 0.82362 0.0
H800 H 0.61901 0.50903 0.77849 0.0
H801 H 0.70386 0.60756 0.00425 0.0
H802 H 0.06847 0.56789 0.45333 0.0
H803 H 0.09818 0.59978 0.42269 0.0
H804 H 0.05641 0.6357 0.42559 0.0
H805 H 0.0266 0.60362 0.4563 0.0
H806 H 0.06997 0.63321 0.37715 0.0
H807 H 0.11031 0.65901 0.45575 0.0
H808 H 0.12593 0.65363 0.4963 0.0
H809 H 0.17628 0.63852 0.45829 0.0
H810 H 0.16062 0.64335 0.41749 0.0
H811 H 0.16863 0.7418 0.31012 0.0
H812 H 0.1367 0.71385 0.34176 0.0
H813 H 0.17304 0.67275 0.34934 0.0
H814 H 0.20493 0.70051 0.31815 0.0
H815 H 0.16138 0.68099 0.39429 0.0
H816 H 0.1181 0.64976 0.31712 0.0
H817 H 0.10133 0.65209 0.27613 0.0
H818 H 0.05688 0.67627 0.3109 0.0
H819 H 0.07341 0.67403 0.3522 0.0
C820 C 0.06571 0.58263 0.44734 0.0
C821 C 0.04537 0.58343 0.45697 0.0
C822 C 0.08266 0.60083 0.42993 0.0
C823 C 0.07966 0.62028 0.42201 0.0
C824 C 0.05907 0.62088 0.43142 0.0
C825 C 0.04212 0.60265 0.44892 0.0
C826 C 0.09825 0.64005 0.40412 0.0
C827 C 0.08991 0.64399 0.38108 0.0
C828 C 0.12432 0.65382 0.40905 0.0
C829 C 0.13415 0.65137 0.43355 0.0
C830 C 0.1246 0.65439 0.45603 0.0
C831 C 0.13347 0.65144 0.47907 0.0
C832 C 0.15206 0.6457 0.47987 0.0
C833 C 0.16187 0.64295 0.45763 0.0
C834 C 0.15302 0.64581 0.43454 0.0
C835 C 0.16978 0.72679 0.31852 0.0
C836 C 0.18937 0.72344 0.31155 0.0
C837 C 0.15146 0.71077 0.33655 0.0
C838 C 0.15238 0.69109 0.34788 0.0
C839 C 0.17195 0.68781 0.34096 0.0
C840 C 0.19016 0.70371 0.323 0.0
C841 C 0.13318 0.67386 0.36708 0.0
C842 C 0.14141 0.67043 0.39045 0.0
C843 C 0.10705 0.66048 0.3624 0.0
C844 C 0.09721 0.66203 0.33765 0.0
C845 C 0.10491 0.65577 0.31598 0.0
C846 C 0.09541 0.65703 0.2927 0.0
C847 C 0.07817 0.66449 0.29085 0.0
C848 C 0.07029 0.67057 0.31234 0.0
C849 C 0.07966 0.66924 0.3357 0.0
H850 H 0.07086 0.66547 0.27279 0.0
H851 H 0.15889 0.64342 0.49773 0.0
H852 H 0.46156 0.07097 0.96168 0.0
H853 H 0.45996 0.10016 0.9317 0.0
H854 H 0.51373 0.09805 0.88324 0.0
H855 H 0.51499 0.06851 0.91285 0.0
H856 H 0.52361 0.14774 0.895 0.0
H857 H 0.4598 0.06837 0.86479 0.0
H858 H 0.42177 0.02657 0.86947 0.0
H859 H 0.37848 0.05694 0.89222 0.0
H860 H 0.41638 0.09893 0.88805 0.0
H861 H 0.51486 0.20974 0.78583 0.0
H862 H 0.51836 0.18246 0.8166 0.0
H863 H 0.44755 0.16345 0.85108 0.0
H864 H 0.4434 0.18954 0.81952 0.0
H865 H 0.44682 0.12415 0.84702 0.0
H866 H 0.50808 0.20274 0.87789 0.0
H867 H 0.54528 0.24519 0.87596 0.0
H868 H 0.59234 0.21817 0.85584 0.0
H869 H 0.55535 0.17557 0.85733 0.0
C870 C 0.47292 0.07672 0.94456 0.0
C871 C 0.48824 0.06746 0.93937 0.0
C872 C 0.47201 0.09331 0.92754 0.0
C873 C 0.48674 0.10116 0.90537 0.0
C874 C 0.50227 0.09216 0.9003 0.0
C875 C 0.50282 0.07522 0.91707 0.0
C876 C 0.48579 0.11864 0.88732 0.0
C877 C 0.50698 0.14263 0.88424 0.0
C878 C 0.46379 0.11199 0.87398 0.0
C879 C 0.44098 0.08676 0.87638 0.0
C880 C 0.44223 0.06612 0.87103 0.0
C881 C 0.42069 0.04239 0.87354 0.0
C882 C 0.39774 0.03909 0.88121 0.0
C883 C 0.39628 0.05952 0.88632 0.0
C884 C 0.41778 0.08329 0.88387 0.0
C885 C 0.50022 0.19989 0.80016 0.0
C886 C 0.47885 0.20166 0.80033 0.0
C887 C 0.50226 0.18439 0.81782 0.0
C888 C 0.48334 0.17104 0.8364 0.0
C889 C 0.46234 0.17341 0.83689 0.0
C890 C 0.46001 0.18839 0.81891 0.0
C891 C 0.48469 0.15367 0.85461 0.0
C892 C 0.46354 0.12954 0.85775 0.0
C893 C 0.50661 0.1604 0.86836 0.0
C894 C 0.5289 0.18599 0.86748 0.0
C895 C 0.52633 0.20587 0.87287 0.0
C896 C 0.54738 0.22995 0.87189 0.0
C897 C 0.57115 0.23438 0.86572 0.0
C898 C 0.57392 0.21472 0.86058 0.0
C899 C 0.55292 0.1906 0.86152 0.0
H900 H 0.58742 0.25304 0.86497 0.0
H901 H 0.38108 0.02071 0.88314 0.0
H902 H 0.40952 0.43813 0.41442 0.0
H903 H 0.37602 0.42985 0.38526 0.0
H904 H 0.38294 0.49821 0.40323 0.0
H905 H 0.41618 0.50645 0.43244 0.0
H906 H 0.33518 0.46349 0.40193 0.0
H907 H 0.40762 0.4912 0.34786 0.0
H908 H 0.44371 0.49077 0.33018 0.0
H909 H 0.39379 0.41708 0.30651 0.0
H910 H 0.35741 0.41697 0.32437 0.0
H911 H 0.28582 0.49299 0.29814 0.0
H912 H 0.31322 0.49077 0.32896 0.0
H913 H 0.28602 0.41596 0.31015 0.0
H914 H 0.25809 0.41796 0.27905 0.0
H915 H 0.34012 0.44752 0.31264 0.0
H916 H 0.26687 0.4231 0.36337 0.0
H917 H 0.23197 0.42649 0.37929 0.0
H918 H 0.285 0.4972 0.40786 0.0
H919 H 0.32025 0.49439 0.39182 0.0
C920 C 0.40401 0.45147 0.41202 0.0
C921 C 0.41554 0.47294 0.42582 0.0
C922 C 0.38482 0.44671 0.39534 0.0
C923 C 0.377 0.46348 0.39184 0.0
C924 C 0.38848 0.48489 0.40565 0.0
C925 C 0.40749 0.48957 0.42241 0.0
C926 C 0.35691 0.45895 0.37386 0.0
C927 C 0.3364 0.46014 0.38239 0.0
C928 C 0.35802 0.45395 0.34843 0.0
C929 C 0.37985 0.45396 0.33772 0.0
C930 C 0.40437 0.47483 0.33908 0.0
C931 C 0.42487 0.4747 0.32899 0.0
C932 C 0.42105 0.45388 0.3173 0.0
C933 C 0.39672 0.43317 0.31562 0.0
C934 C 0.37615 0.4332 0.32571 0.0
C935 C 0.28551 0.47597 0.30053 0.0
C936 C 0.26972 0.45562 0.28609 0.0
C937 C 0.30117 0.47473 0.31826 0.0
C938 C 0.30157 0.45317 0.32198 0.0
C939 C 0.28594 0.43276 0.3076 0.0
C940 C 0.26993 0.43389 0.28995 0.0
C941 C 0.31879 0.45253 0.34068 0.0
C942 C 0.33875 0.45043 0.33229 0.0
C943 C 0.31736 0.457 0.36617 0.0
C944 C 0.29621 0.45859 0.37625 0.0
C945 C 0.2711 0.43944 0.37292 0.0
C946 C 0.25125 0.44125 0.38199 0.0
C947 C 0.25627 0.46207 0.39453 0.0
C948 C 0.28115 0.48108 0.39813 0.0
C949 C 0.30107 0.47937 0.3891 0.0
H950 H 0.24087 0.46346 0.40149 0.0
H951 H 0.43695 0.45382 0.30949 0.0
H952 H 0.89511 0.39401 0.95322 0.0
H953 H 0.86348 0.36803 0.92338 0.0
H954 H 0.90815 0.42011 0.86303 0.0
H955 H 0.93913 0.44704 0.89297 0.0
H956 H 0.86035 0.40227 0.85482 0.0
H957 H 0.91005 0.36785 0.87647 0.0
H958 H 0.92947 0.35165 0.90484 0.0
H959 H 0.85622 0.2941 0.93252 0.0
H960 H 0.83638 0.31017 0.90451 0.0
H961 H 0.81613 0.28602 0.77686 0.0
H962 H 0.84352 0.31689 0.80591 0.0
H963 H 0.78465 0.33008 0.82367 0.0
H964 H 0.75706 0.29932 0.79378 0.0
H965 H 0.83838 0.31566 0.85381 0.0
H966 H 0.81358 0.39072 0.84388 0.0
H967 H 0.79883 0.40863 0.8118 0.0
H968 H 0.82975 0.3873 0.75368 0.0
H969 H 0.84506 0.36962 0.78538 0.0
C970 C 0.89805 0.40023 0.93369 0.0
C971 C 0.9199 0.42255 0.92552 0.0
C972 C 0.88001 0.38521 0.91659 0.0
C973 C 0.88363 0.3919 0.89088 0.0
C974 C 0.90498 0.41451 0.88275 0.0
C975 C 0.92289 0.42971 0.89988 0.0
C976 C 0.86596 0.37474 0.87234 0.0
C977 C 0.85543 0.38329 0.85463 0.0
C978 C 0.85989 0.3501 0.87178 0.0
C979 C 0.87176 0.34037 0.8886 0.0
C980 C 0.8981 0.35185 0.88874 0.0
C981 C 0.90918 0.34267 0.90473 0.0
C982 C 0.89409 0.3219 0.92052 0.0
C983 C 0.86789 0.31022 0.9203 0.0
C984 C 0.85671 0.31934 0.90437 0.0
C985 C 0.80894 0.29551 0.78684 0.0
C986 C 0.78431 0.29004 0.78322 0.0
C987 C 0.82467 0.31319 0.80347 0.0
C988 C 0.81617 0.32576 0.8171 0.0
C989 C 0.79172 0.32077 0.81321 0.0
C990 C 0.77595 0.30315 0.79622 0.0
C991 C 0.83276 0.34312 0.83611 0.0
C992 C 0.84305 0.33456 0.85405 0.0
C993 C 0.83916 0.36789 0.83629 0.0
C994 C 0.83014 0.37853 0.81702 0.0
C995 C 0.81727 0.38989 0.82425 0.0
C996 C 0.80883 0.40002 0.80613 0.0
C997 C 0.81326 0.39901 0.78071 0.0
C998 C 0.82624 0.38796 0.77336 0.0
C999 C 0.83477 0.37785 0.7914 0.0
H1000 H 0.8067 0.40684 0.76671 0.0
H1001 H 0.9027 0.31482 0.93289 0.0
H1002 H 0.93305 0.49647 0.94862 0.0
H1003 H 0.90651 0.50342 0.92033 0.0
H1004 H 0.96341 0.58123 0.9148 0.0
H1005 H 0.98934 0.57432 0.94431 0.0
H1006 H 0.9194 0.57577 0.91773 0.0
H1007 H 0.95418 0.54063 0.86706 0.0
H1008 H 0.96502 0.5103 0.85607 0.0
H1009 H 0.88655 0.45327 0.85651 0.0
H1010 H 0.87522 0.48321 0.86781 0.0
H1011 H 0.85676 0.59238 0.81185 0.0
H1012 H 0.88863 0.59196 0.83834 0.0
H1013 H 0.83657 0.51481 0.85761 0.0
H1014 H 0.80501 0.515 0.83147 0.0
H1015 H 0.88238 0.52373 0.8445 0.0
H1016 H 0.84833 0.55858 0.89852 0.0
H1017 H 0.83771 0.589 0.90981 0.0
H1018 H 0.9157 0.647 0.90235 0.0
H1019 H 0.92674 0.61694 0.89068 0.0
C1020 C 0.93978 0.51503 0.94135 0.0
C1021 C 0.96334 0.53482 0.94819 0.0
C1022 C 0.92474 0.519 0.92504 0.0
C1023 C 0.93319 0.54279 0.91484 0.0
C1024 C 0.95655 0.56269 0.92219 0.0
C1025 C 0.97143 0.55875 0.93885 0.0
C1026 C 0.91751 0.54681 0.89671 0.0
C1027 C 0.9117 0.56469 0.90146 0.0
C1028 C 0.90716 0.53219 0.87558 0.0
C1029 C 0.91386 0.51417 0.86842 0.0
C1030 C 0.93923 0.52161 0.86493 0.0
C1031 C 0.94546 0.50448 0.85863 0.0
C1032 C 0.92648 0.47989 0.85559 0.0
C1033 C 0.90122 0.47235 0.85884 0.0
C1034 C 0.89488 0.4894 0.86515 0.0
C1035 C 0.85212 0.5754 0.82185 0.0
C1036 C 0.8283 0.55375 0.81949 0.0
C1037 C 0.87032 0.57518 0.83699 0.0
C1038 C 0.86498 0.55332 0.84996 0.0
C1039 C 0.8412 0.53184 0.84769 0.0
C1040 C 0.82309 0.53206 0.83276 0.0
C1041 C 0.88394 0.55233 0.86582 0.0
C1042 C 0.89038 0.53501 0.8606 0.0
C1043 C 0.89493 0.56751 0.8864 0.0
C1044 C 0.88831 0.58557 0.89343 0.0
C1045 C 0.86318 0.57785 0.89907 0.0
C1046 C 0.85709 0.59502 0.90558 0.0
C1047 C 0.87601 0.61993 0.90671 0.0
C1048 C 0.90106 0.62771 0.90141 0.0
C1049 C 0.90724 0.61061 0.89486 0.0
H1050 H 0.87126 0.6332 0.91177 0.0
H1051 H 0.93137 0.4667 0.85064 0.0
H1052 H 0.38828 0.92988 0.45893 0.0
H1053 H 0.36603 0.89587 0.43051 0.0
H1054 H 0.4364 0.90325 0.40991 0.0
H1055 H 0.4586 0.93753 0.43818 0.0
H1056 H 0.40775 0.89711 0.36919 0.0
H1057 H 0.39732 0.85698 0.44824 0.0
H1058 H 0.38788 0.84855 0.49358 0.0
H1059 H 0.31127 0.82702 0.48124 0.0
H1060 H 0.32035 0.83576 0.43582 0.0
H1061 H 0.33163 0.78478 0.30398 0.0
H1062 H 0.36195 0.81178 0.33485 0.0
H1063 H 0.3069 0.82599 0.36391 0.0
H1064 H 0.27686 0.79953 0.33313 0.0
H1065 H 0.33387 0.81746 0.40138 0.0
H1066 H 0.34781 0.86417 0.32244 0.0
H1067 H 0.35837 0.8731 0.27729 0.0
H1068 H 0.43034 0.88205 0.29006 0.0
H1069 H 0.42005 0.87283 0.33527 0.0
C1070 C 0.39886 0.92421 0.44818 0.0
C1071 C 0.42496 0.93601 0.45055 0.0
C1072 C 0.38624 0.9048 0.43212 0.0
C1073 C 0.39957 0.89686 0.41838 0.0
C1074 C 0.42581 0.90908 0.42038 0.0
C1075 C 0.43842 0.92854 0.43645 0.0
C1076 C 0.38585 0.87578 0.40198 0.0
C1077 C 0.39192 0.8795 0.37627 0.0
C1078 C 0.36529 0.85282 0.4113 0.0
C1079 C 0.35956 0.84716 0.43859 0.0
C1080 C 0.37849 0.85059 0.45518 0.0
C1081 C 0.3732 0.84575 0.48091 0.0
C1082 C 0.349 0.83728 0.49029 0.0
C1083 C 0.33001 0.83358 0.47394 0.0
C1084 C 0.33521 0.83845 0.44819 0.0
C1085 C 0.32595 0.7934 0.31723 0.0
C1086 C 0.30199 0.79023 0.3161 0.0
C1087 C 0.34325 0.80882 0.33475 0.0
C1088 C 0.33662 0.82091 0.35152 0.0
C1089 C 0.31232 0.81678 0.35114 0.0
C1090 C 0.29525 0.80177 0.33347 0.0
C1091 C 0.35517 0.83917 0.36853 0.0
C1092 C 0.35003 0.83489 0.39439 0.0
C1093 C 0.37669 0.86152 0.35935 0.0
C1094 C 0.38292 0.86725 0.33218 0.0
C1095 C 0.36575 0.86772 0.31559 0.0
C1096 C 0.37173 0.87292 0.28999 0.0
C1097 C 0.39495 0.87799 0.28079 0.0
C1098 C 0.4123 0.87799 0.29719 0.0
C1099 C 0.4064 0.87275 0.32281 0.0
H1100 H 0.39955 0.88203 0.26096 0.0
H1101 H 0.34494 0.83355 0.51022 0.0
H1102 H 0.40724 0.39255 0.92255 0.0
H1103 H 0.39596 0.35823 0.89511 0.0
H1104 H 0.46167 0.35806 0.91855 0.0
H1105 H 0.47274 0.39181 0.94592 0.0
H1106 H 0.4592 0.36583 0.86616 0.0
H1107 H 0.40666 0.3116 0.93603 0.0
H1108 H 0.37187 0.29573 0.96723 0.0
H1109 H 0.31915 0.27791 0.90823 0.0
H1110 H 0.35372 0.29401 0.87667 0.0
H1111 H 0.46399 0.27121 0.81657 0.0
H1112 H 0.45947 0.2965 0.84628 0.0
H1113 H 0.38673 0.27456 0.81682 0.0
H1114 H 0.39086 0.24831 0.78724 0.0
H1115 H 0.38714 0.27898 0.86761 0.0
H1116 H 0.43742 0.32934 0.79764 0.0
H1117 H 0.47124 0.34564 0.76528 0.0
H1118 H 0.52687 0.37254 0.82229 0.0
H1119 H 0.49337 0.35607 0.85503 0.0
C1120 C 0.41876 0.38461 0.92235 0.0
C1121 C 0.441 0.39497 0.93609 0.0
C1122 C 0.41239 0.36513 0.90664 0.0
C1123 C 0.42816 0.35583 0.90464 0.0
C1124 C 0.44937 0.3651 0.91968 0.0
C1125 C 0.45566 0.38436 0.93531 0.0
C1126 C 0.42457 0.33845 0.88515 0.0
C1127 C 0.44351 0.34679 0.86656 0.0
C1128 C 0.40353 0.31398 0.88503 0.0
C1129 C 0.38281 0.30429 0.90401 0.0
C1130 C 0.38769 0.30453 0.92972 0.0
C1131 C 0.368 0.29544 0.94747 0.0
C1132 C 0.34333 0.2859 0.93972 0.0
C1133 C 0.33828 0.28535 0.9142 0.0
C1134 C 0.35791 0.29444 0.89638 0.0
C1135 C 0.4469 0.27154 0.8165 0.0
C1136 C 0.42793 0.25805 0.79932 0.0
C1137 C 0.44435 0.28606 0.8335 0.0
C1138 C 0.42305 0.28795 0.83336 0.0
C1139 C 0.40341 0.27352 0.81712 0.0
C1140 C 0.4058 0.25858 0.80024 0.0
C1141 C 0.42239 0.30612 0.8493 0.0
C1142 C 0.40266 0.29808 0.86702 0.0
C1143 C 0.44256 0.33111 0.84846 0.0
C1144 C 0.46285 0.34134 0.82881 0.0
C1145 C 0.45686 0.33861 0.80329 0.0
C1146 C 0.47597 0.34789 0.78488 0.0
C1147 C 0.50118 0.36009 0.79173 0.0
C1148 C 0.50733 0.36309 0.81701 0.0
C1149 C 0.48829 0.35381 0.83551 0.0
H1150 H 0.51596 0.36725 0.77745 0.0
H1151 H 0.32811 0.27886 0.95349 0.0
H1152 H 0.0652 0.51957 0.40365 0.0
H1153 H 0.09426 0.51942 0.37328 0.0
H1154 H 0.12193 0.49152 0.43106 0.0
H1155 H 0.09295 0.49176 0.46161 0.0
H1156 H 0.16004 0.5255 0.40166 0.0
H1157 H 0.07936 0.45294 0.38978 0.0
H1158 H 0.03365 0.42883 0.38272 0.0
H1159 H 0.04541 0.46824 0.31211 0.0
H1160 H 0.09119 0.49285 0.31892 0.0
H1161 H 0.17846 0.45745 0.29408 0.0
H1162 H 0.15326 0.46044 0.32672 0.0
H1163 H 0.19952 0.53984 0.31944 0.0
H1164 H 0.2252 0.53703 0.2867 0.0
H1165 H 0.12467 0.47916 0.32463 0.0
H1166 H 0.20179 0.56249 0.37766 0.0
H1167 H 0.24675 0.58181 0.38744 0.0
H1168 H 0.24091 0.51247 0.38012 0.0
H1169 H 0.19588 0.4927 0.37061 0.0
C1170 C 0.07741 0.51331 0.40987 0.0
C1171 C 0.07659 0.50541 0.43497 0.0
C1172 C 0.09406 0.51331 0.39251 0.0
C1173 C 0.11003 0.50514 0.39981 0.0
C1174 C 0.10979 0.49792 0.42501 0.0
C1175 C 0.09322 0.49805 0.44244 0.0
C1176 C 0.1263 0.50331 0.38096 0.0
C1177 C 0.15233 0.51545 0.38477 0.0
C1178 C 0.11619 0.48972 0.3592 0.0
C1179 C 0.08868 0.47491 0.35498 0.0
C1180 C 0.07218 0.4566 0.37284 0.0
C1181 C 0.04626 0.44282 0.36886 0.0
C1182 C 0.03663 0.44705 0.34701 0.0
C1183 C 0.0529 0.46502 0.32905 0.0
C1184 C 0.07884 0.47888 0.33295 0.0
C1185 C 0.18342 0.47561 0.2994 0.0
C1186 C 0.20388 0.49703 0.28772 0.0
C1187 C 0.1689 0.47726 0.31806 0.0
C1188 C 0.17452 0.50033 0.32559 0.0
C1189 C 0.195 0.52182 0.31409 0.0
C1190 C 0.2096 0.52019 0.29533 0.0
C1191 C 0.15848 0.50166 0.3451 0.0
C1192 C 0.13244 0.4894 0.34141 0.0
C1193 C 0.16851 0.51451 0.36728 0.0
C1194 C 0.19554 0.52621 0.37313 0.0
C1195 C 0.2101 0.55137 0.3782 0.0
C1196 C 0.23559 0.5624 0.38368 0.0
C1197 C 0.2467 0.5484 0.3843 0.0
C1198 C 0.23231 0.52332 0.37952 0.0
C1199 C 0.20682 0.51221 0.37403 0.0
H1200 H 0.26644 0.55698 0.38855 0.0
H1201 H 0.01655 0.43636 0.34396 0.0
H1202 H 0.61348 0.04665 0.96523 0.0
H1203 H 0.64403 0.0715 0.93115 0.0
H1204 H 0.58872 0.0827 0.89585 0.0
H1205 H 0.55817 0.05746 0.92967 0.0
H1206 H 0.61242 0.0726 0.8619 0.0
H1207 H 0.63691 0.12723 0.92994 0.0
H1208 H 0.64956 0.14002 0.97311 0.0
H1209 H 0.71549 0.13656 0.96256 0.0
H1210 H 0.70298 0.12332 0.91943 0.0
H1211 H 0.68469 0.18091 0.78615 0.0
H1212 H 0.65875 0.15094 0.81959 0.0
H1213 H 0.71858 0.13866 0.83642 0.0
H1214 H 0.74483 0.16869 0.80249 0.0
H1215 H 0.69563 0.14665 0.87943 0.0
H1216 H 0.67192 0.09552 0.80902 0.0
H1217 H 0.65859 0.08399 0.76571 0.0
H1218 H 0.59049 0.08248 0.78066 0.0
H1219 H 0.60358 0.09437 0.82398 0.0
C1220 C 0.60804 0.05451 0.95012 0.0
C1221 C 0.58376 0.05046 0.94991 0.0
C1222 C 0.62541 0.0687 0.93075 0.0
C1223 C 0.61876 0.07919 0.91104 0.0
C1224 C 0.59429 0.0748 0.91081 0.0
C1225 C 0.57692 0.06054 0.93011 0.0
C1226 C 0.63724 0.0949 0.89071 0.0
C1227 C 0.63054 0.08887 0.86576 0.0
C1228 C 0.66118 0.11582 0.89572 0.0
C1229 C 0.66886 0.12401 0.92155 0.0
C1230 C 0.654 0.12901 0.93689 0.0
C1231 C 0.66116 0.13636 0.96134 0.0
C1232 C 0.68328 0.13904 0.9706 0.0
C1233 C 0.69833 0.13443 0.95538 0.0
C1234 C 0.69122 0.127 0.93093 0.0
C1235 C 0.69241 0.17185 0.79688 0.0
C1236 C 0.71685 0.17718 0.79165 0.0
C1237 C 0.67749 0.15465 0.81595 0.0
C1238 C 0.6867 0.14251 0.83037 0.0
C1239 C 0.71115 0.14784 0.82543 0.0
C1240 C 0.72605 0.16489 0.80601 0.0
C1241 C 0.67056 0.1245 0.85073 0.0
C1242 C 0.67767 0.13015 0.87565 0.0
C1243 C 0.64688 0.10336 0.84572 0.0
C1244 C 0.63884 0.09603 0.81971 0.0
C1245 C 0.65419 0.09293 0.80302 0.0
C1246 C 0.64666 0.08629 0.77848 0.0
C1247 C 0.62374 0.08255 0.77042 0.0
C1248 C 0.60826 0.08539 0.78692 0.0
C1249 C 0.61571 0.09205 0.81149 0.0
H1250 H 0.61794 0.07742 0.7514 0.0
H1251 H 0.6888 0.14475 0.98953 0.0
H1252 H 0.57519 0.60197 0.46005 0.0
H1253 H 0.58247 0.63646 0.43189 0.0
H1254 H 0.50215 0.60136 0.42339 0.0
H1255 H 0.4951 0.56644 0.45047 0.0
H1256 H 0.52403 0.61581 0.38 0.0
H1257 H 0.53868 0.65378 0.45902 0.0
H1258 H 0.55834 0.66715 0.50004 0.0
H1259 H 0.63103 0.71223 0.46374 0.0
H1260 H 0.61184 0.69885 0.4225 0.0
H1261 H 0.51891 0.71191 0.3209 0.0
H1262 H 0.51617 0.68333 0.35403 0.0
H1263 H 0.59671 0.7168 0.34936 0.0
H1264 H 0.59974 0.74597 0.31629 0.0
H1265 H 0.57713 0.70432 0.39879 0.0
H1266 H 0.56013 0.66613 0.3191 0.0
H1267 H 0.53833 0.65423 0.27894 0.0
H1268 H 0.46725 0.60939 0.31827 0.0
H1269 H 0.48859 0.62151 0.35869 0.0
C1270 C 0.55921 0.60183 0.45214 0.0
C1271 C 0.53465 0.58167 0.45707 0.0
C1272 C 0.56331 0.62154 0.43627 0.0
C1273 C 0.54284 0.62161 0.42565 0.0
C1274 C 0.51824 0.60169 0.43127 0.0
C1275 C 0.51419 0.58185 0.44679 0.0
C1276 C 0.54692 0.64169 0.40763 0.0
C1277 C 0.53539 0.63512 0.38431 0.0
C1278 C 0.56228 0.66697 0.41293 0.0
C1279 C 0.57385 0.67511 0.43769 0.0
C1280 C 0.55888 0.66639 0.4598 0.0
C1281 C 0.56994 0.674 0.48308 0.0
C1282 C 0.59593 0.69048 0.4845 0.0
C1283 C 0.61091 0.69944 0.46262 0.0
C1284 C 0.59995 0.69187 0.43928 0.0
C1285 C 0.53611 0.71337 0.32699 0.0
C1286 C 0.55952 0.73098 0.31572 0.0
C1287 C 0.53449 0.69703 0.34597 0.0
C1288 C 0.55618 0.69771 0.35381 0.0
C1289 C 0.57975 0.71597 0.34346 0.0
C1290 C 0.58143 0.73252 0.32453 0.0
C1291 C 0.55385 0.67827 0.37157 0.0
C1292 C 0.56583 0.68496 0.39464 0.0
C1293 C 0.53865 0.65303 0.36623 0.0
C1294 C 0.52595 0.64489 0.34192 0.0
C1295 C 0.53984 0.6538 0.31918 0.0
C1296 C 0.52756 0.64703 0.29637 0.0
C1297 C 0.50141 0.6311 0.29606 0.0
C1298 C 0.48751 0.62176 0.31855 0.0
C1299 C 0.49968 0.62857 0.34142 0.0
H1300 H 0.49188 0.62601 0.27841 0.0
H1301 H 0.60445 0.69634 0.50255 0.0
H1302 H 0.49646 0.08969 0.55542 0.0
H1303 H 0.4888 0.11458 0.58311 0.0
H1304 H 0.41903 0.04966 0.60935 0.0
H1305 H 0.42626 0.02463 0.58112 0.0
H1306 H 0.41473 0.09038 0.60031 0.0
H1307 H 0.46956 0.07121 0.64449 0.0
H1308 H 0.50735 0.0687 0.64825 0.0
H1309 H 0.55475 0.1473 0.63653 0.0
H1310 H 0.51724 0.15025 0.6323 0.0
H1311 H 0.40151 0.14905 0.70594 0.0
H1312 H 0.40357 0.12074 0.67784 0.0
H1313 H 0.47897 0.17825 0.65425 0.0
H1314 H 0.4773 0.20614 0.68269 0.0
H1315 H 0.47846 0.13831 0.66363 0.0
H1316 H 0.42587 0.15839 0.61662 0.0
H1317 H 0.38928 0.1623 0.6093 0.0
H1318 H 0.33921 0.08429 0.62353 0.0
H1319 H 0.37551 0.07997 0.63125 0.0
C1320 C 0.4793 0.08073 0.5668 0.0
C1321 C 0.46197 0.05516 0.56608 0.0
C1322 C 0.47505 0.09495 0.58278 0.0
C1323 C 0.45348 0.08392 0.59849 0.0
C1324 C 0.43583 0.05851 0.59743 0.0
C1325 C 0.4401 0.04423 0.58146 0.0
C1326 C 0.44978 0.09889 0.61643 0.0
C1327 C 0.42843 0.10058 0.61445 0.0
C1328 C 0.46796 0.11257 0.63448 0.0
C1329 C 0.49056 0.11093 0.63791 0.0
C1330 C 0.48804 0.08796 0.64262 0.0
C1331 C 0.50942 0.08645 0.64483 0.0
C1332 C 0.53344 0.10782 0.64258 0.0
C1333 C 0.53613 0.13076 0.63826 0.0
C1334 C 0.51481 0.13236 0.63599 0.0
C1335 C 0.41838 0.15567 0.69454 0.0
C1336 C 0.43925 0.1798 0.69659 0.0
C1337 C 0.41955 0.1395 0.67845 0.0
C1338 C 0.44144 0.14734 0.66381 0.0
C1339 C 0.46197 0.17164 0.66545 0.0
C1340 C 0.46093 0.18763 0.68167 0.0
C1341 C 0.44353 0.13025 0.64733 0.0
C1342 C 0.4646 0.12805 0.64964 0.0
C1343 C 0.42523 0.11635 0.62939 0.0
C1344 C 0.40339 0.11891 0.6248 0.0
C1345 C 0.40704 0.1421 0.61839 0.0
C1346 C 0.38636 0.14439 0.61413 0.0
C1347 C 0.36193 0.12357 0.61603 0.0
C1348 C 0.35814 0.10041 0.62212 0.0
C1349 C 0.37876 0.09803 0.62642 0.0
H1350 H 0.34595 0.12537 0.61271 0.0
H1351 H 0.54997 0.10661 0.64421 0.0
H1352 H 0.40162 0.45482 0.053 0.0
H1353 H 0.37407 0.46035 0.08068 0.0
H1354 H 0.42532 0.53932 0.07357 0.0
H1355 H 0.45344 0.53362 0.04653 0.0
H1356 H 0.40759 0.52538 0.12094 0.0
H1357 H 0.37191 0.51112 0.04022 0.0
H1358 H 0.35652 0.48985 1.00068 0.0
H1359 H 0.29895 0.42471 0.04131 0.0
H1360 H 0.3143 0.44542 0.08116 0.0
H1361 H 0.31257 0.53893 0.17901 0.0
H1362 H 0.34306 0.54277 0.14745 0.0
H1363 H 0.30403 0.4635 0.14615 0.0
H1364 H 0.27344 0.4595 0.17702 0.0
H1365 H 0.31733 0.48403 0.09962 0.0
H1366 H 0.35862 0.49753 0.18041 0.0
H1367 H 0.37298 0.51975 0.2196 0.0
H1368 H 0.41904 0.58815 0.17722 0.0
H1369 H 0.40492 0.56629 0.13779 0.0
C1370 C 0.40721 0.47329 0.05785 0.0
C1371 C 0.42977 0.4938 0.04817 0.0
C1372 C 0.39136 0.47649 0.07338 0.0
C1373 C 0.39745 0.50029 0.07894 0.0
C1374 C 0.42024 0.52081 0.06954 0.0
C1375 C 0.43623 0.51758 0.05413 0.0
C1376 C 0.37959 0.50353 0.09405 0.0
C1377 C 0.38795 0.51669 0.11603 0.0
C1378 C 0.35394 0.49223 0.08769 0.0
C1379 C 0.34437 0.4798 0.06372 0.0
C1380 C 0.35606 0.49221 0.04075 0.0
C1381 C 0.34735 0.48025 0.01827 0.0
C1382 C 0.32679 0.45594 0.01849 0.0
C1383 C 0.31488 0.44355 0.04118 0.0
C1384 C 0.32357 0.45539 0.06372 0.0
C1385 C 0.31043 0.52235 0.17186 0.0
C1386 C 0.29064 0.49892 0.18067 0.0
C1387 C 0.3279 0.52456 0.15389 0.0
C1388 C 0.32597 0.5034 0.14462 0.0
C1389 C 0.30589 0.48008 0.15298 0.0
C1390 C 0.28845 0.47785 0.17077 0.0
C1391 C 0.34514 0.50511 0.12686 0.0
C1392 C 0.33704 0.49296 0.10431 0.0
C1393 C 0.37101 0.51746 0.13258 0.0
C1394 C 0.38058 0.53034 0.15622 0.0
C1395 C 0.37184 0.51731 0.17949 0.0
C1396 C 0.37991 0.52983 0.20172 0.0
C1397 C 0.39678 0.55536 0.20089 0.0
C1398 C 0.40589 0.56838 0.17783 0.0
C1399 C 0.39795 0.55593 0.15554 0.0
H1400 H 0.4029 0.56505 0.21812 0.0
H1401 H 0.32006 0.44671 1.00107 0.0
H1402 H 0.97812 0.41243 0.55847 0.0
H1403 H 0.94917 0.3778 0.58733 0.0
H1404 H 0.90212 0.40799 0.5927 0.0
H1405 H 0.93141 0.44281 0.56441 0.0
H1406 H 0.90706 0.39199 0.63761 0.0
H1407 H 0.88771 0.35992 0.55502 0.0
H1408 H 0.89746 0.3504 0.51388 0.0
H1409 H 0.9206 0.30481 0.54998 0.0
H1410 H 0.91136 0.31439 0.59138 0.0
H1411 H 0.79015 0.29191 0.67882 0.0
H1412 H 0.82416 0.32386 0.65204 0.0
H1413 H 0.86548 0.28778 0.66125 0.0
H1414 H 0.83123 0.25537 0.68834 0.0
H1415 H 0.86694 0.30576 0.61145 0.0
H1416 H 0.88266 0.33553 0.69422 0.0
H1417 H 0.87173 0.34469 0.73496 0.0
H1418 H 0.8544 0.39446 0.6981 0.0
H1419 H 0.86485 0.3853 0.65706 0.0
C1420 C 0.96168 0.41164 0.56608 0.0
C1421 C 0.95688 0.43014 0.55947 0.0
C1422 C 0.9451 0.39186 0.58239 0.0
C1423 C 0.92331 0.39015 0.59201 0.0
C1424 C 0.91879 0.40891 0.58557 0.0
C1425 C 0.93541 0.4287 0.56939 0.0
C1426 C 0.90491 0.3687 0.60845 0.0
C1427 C 0.89818 0.37317 0.63178 0.0
C1428 C 0.89376 0.34404 0.60118 0.0
C1429 C 0.89911 0.33809 0.5763 0.0
C1430 C 0.89505 0.34801 0.55419 0.0
C1431 C 0.90046 0.34259 0.53082 0.0
C1432 C 0.9097 0.32706 0.52931 0.0
C1433 C 0.91348 0.31687 0.55118 0.0
C1434 C 0.90816 0.32228 0.5746 0.0
C1435 C 0.80633 0.29053 0.67508 0.0
C1436 C 0.80802 0.27112 0.68593 0.0
C1437 C 0.82581 0.30891 0.65978 0.0
C1438 C 0.84751 0.30841 0.65499 0.0
C1439 C 0.84891 0.28855 0.66485 0.0
C1440 C 0.82935 0.27007 0.68031 0.0
C1441 C 0.86884 0.32917 0.6403 0.0
C1442 C 0.87609 0.32458 0.61735 0.0
C1443 C 0.8804 0.35375 0.64785 0.0
C1444 C 0.87439 0.35959 0.67253 0.0
C1445 C 0.87636 0.3483 0.69477 0.0
C1446 C 0.87027 0.35351 0.71792 0.0
C1447 C 0.86236 0.37012 0.7191 0.0
C1448 C 0.86054 0.38159 0.69714 0.0
C1449 C 0.86657 0.37642 0.67393 0.0
H1450 H 0.85773 0.37415 0.73705 0.0
H1451 H 0.91388 0.32288 0.5112 0.0
H1452 H 0.55423 0.92816 0.04483 0.0
H1453 H 0.56646 0.90429 0.07095 0.0
H1454 H 0.57356 0.94712 0.13418 0.0
H1455 H 0.56008 0.97034 0.10867 0.0
H1456 H 0.614 0.93451 0.12568 0.0
H1457 H 0.52364 0.89961 0.13531 0.0
H1458 H 0.48129 0.88378 0.11861 0.0
H1459 H 0.48552 0.82831 0.08042 0.0
H1460 H 0.52811 0.84411 0.09659 0.0
H1461 H 0.60086 0.85421 0.22939 0.0
H1462 H 0.6034 0.88458 0.19826 0.0
H1463 H 0.56718 0.82765 0.14466 0.0
H1464 H 0.56315 0.79716 0.17638 0.0
H1465 H 0.54356 0.84885 0.14641 0.0
H1466 H 0.63152 0.87975 0.13887 0.0
H1467 H 0.67466 0.89547 0.15318 0.0
H1468 H 0.67694 0.95735 0.18436 0.0
H1469 H 0.63367 0.94183 0.17052 0.0
C1470 C 0.55829 0.93252 0.0643 0.0
C1471 C 0.55577 0.95098 0.07469 0.0
C1472 C 0.56561 0.91907 0.07907 0.0
C1473 C 0.5709 0.92404 0.10438 0.0
C1474 C 0.56977 0.94325 0.11456 0.0
C1475 C 0.56207 0.9565 0.09991 0.0
C1476 C 0.57479 0.90738 0.12081 0.0
C1477 C 0.59868 0.9158 0.13047 0.0
C1478 C 0.55486 0.88291 0.12637 0.0
C1479 C 0.52915 0.87322 0.11691 0.0
C1480 C 0.51563 0.88419 0.12316 0.0
C1481 C 0.49157 0.8752 0.11383 0.0
C1482 C 0.48075 0.8551 0.0984 0.0
C1483 C 0.49394 0.8439 0.09234 0.0
C1484 C 0.51803 0.85286 0.10159 0.0
C1485 C 0.59412 0.84846 0.21071 0.0
C1486 C 0.58185 0.82353 0.20509 0.0
C1487 C 0.59563 0.8658 0.19288 0.0
C1488 C 0.58555 0.85849 0.16898 0.0
C1489 C 0.57493 0.83376 0.16297 0.0
C1490 C 0.57276 0.81638 0.18098 0.0
C1491 C 0.58309 0.87562 0.15141 0.0
C1492 C 0.55923 0.86738 0.14157 0.0
C1493 C 0.60322 0.90011 0.14548 0.0
C1494 C 0.62925 0.9095 0.15384 0.0
C1495 C 0.64114 0.8966 0.14895 0.0
C1496 C 0.66563 0.9055 0.15695 0.0
C1497 C 0.67851 0.92736 0.16973 0.0
C1498 C 0.66693 0.94041 0.17448 0.0
C1499 C 0.64243 0.93158 0.16654 0.0
H1500 H 0.69747 0.93422 0.1759 0.0
H1501 H 0.46212 0.84815 0.0912 0.0
H1502 H 0.62355 0.55565 0.54892 0.0
H1503 H 0.65672 0.56613 0.57928 0.0
H1504 H 0.60073 0.51524 0.63413 0.0
H1505 H 0.56761 0.5052 0.60409 0.0
H1506 H 0.63233 0.55531 0.65579 0.0
H1507 H 0.64066 0.5024 0.60056 0.0
H1508 H 0.64661 0.48886 0.55999 0.0
H1509 H 0.71846 0.55643 0.54913 0.0
H1510 H 0.71278 0.57051 0.58953 0.0
H1511 H 0.70037 0.52559 0.73861 0.0
H1512 H 0.67351 0.52643 0.70621 0.0
H1513 H 0.73823 0.58887 0.66873 0.0
H1514 H 0.76552 0.58826 0.70155 0.0
H1515 H 0.70643 0.54951 0.6369 0.0
H1516 H 0.69851 0.59922 0.69634 0.0
H1517 H 0.69152 0.60966 0.73824 0.0
H1518 H 0.61741 0.54421 0.74253 0.0
H1519 H 0.62404 0.53323 0.70074 0.0
C1520 C 0.61839 0.54661 0.56742 0.0
C1521 C 0.59298 0.52963 0.57413 0.0
C1522 C 0.63736 0.55259 0.58476 0.0
C1523 C 0.63133 0.54135 0.60902 0.0
C1524 C 0.60593 0.52431 0.61564 0.0
C1525 C 0.58698 0.51855 0.59844 0.0
C1526 C 0.65127 0.54726 0.62766 0.0
C1527 C 0.64843 0.55387 0.65164 0.0
C1528 C 0.67271 0.54605 0.62219 0.0
C1529 C 0.67615 0.53763 0.59791 0.0
C1530 C 0.65763 0.51446 0.58942 0.0
C1531 C 0.66097 0.50667 0.56648 0.0
C1532 C 0.68286 0.52181 0.55195 0.0
C1533 C 0.70149 0.54475 0.56038 0.0
C1534 C 0.69822 0.55264 0.5833 0.0
C1535 C 0.70896 0.53966 0.72361 0.0
C1536 C 0.73511 0.55685 0.72262 0.0
C1537 C 0.69352 0.54016 0.70513 0.0
C1538 C 0.70383 0.55777 0.68512 0.0
C1539 C 0.72991 0.57516 0.68408 0.0
C1540 C 0.74544 0.57488 0.70287 0.0
C1541 C 0.68712 0.55704 0.665 0.0
C1542 C 0.69054 0.55135 0.64081 0.0
C1543 C 0.666 0.55871 0.67037 0.0
C1544 C 0.66183 0.56536 0.69542 0.0
C1545 C 0.68077 0.58698 0.70626 0.0
C1546 C 0.67685 0.59302 0.72998 0.0
C1547 C 0.65402 0.57764 0.74301 0.0
C1548 C 0.63506 0.55616 0.73237 0.0
C1549 C 0.63887 0.55004 0.70864 0.0
H1550 H 0.65104 0.58233 0.76138 0.0
H1551 H 0.68542 0.51575 0.5342 0.0
H1552 H 0.10367 0.60593 0.03961 0.0
H1553 H 0.1348 0.63407 0.06894 0.0
H1554 H 0.0972 0.57913 0.12916 0.0
H1555 H 0.06638 0.55075 0.09999 0.0
H1556 H 0.10689 0.62413 0.14157 0.0
H1557 H 0.15159 0.59021 0.1057 0.0
H1558 H 0.16948 0.57922 0.07126 0.0
H1559 H 0.21644 0.65563 0.04752 0.0
H1560 H 0.19857 0.66705 0.08164 0.0
H1561 H 0.23189 0.68686 0.21327 0.0
H1562 H 0.20494 0.65796 0.18189 0.0
H1563 H 0.17465 0.70334 0.16442 0.0
H1564 H 0.20098 0.7319 0.19594 0.0
H1565 H 0.1991 0.66128 0.13172 0.0
H1566 H 0.11227 0.66668 0.15435 0.0
H1567 H 0.09436 0.67678 0.18957 0.0
H1568 H 0.13102 0.65417 0.24191 0.0
H1569 H 0.14876 0.64352 0.20704 0.0
C1570 C 0.10222 0.59972 0.05903 0.0
C1571 C 0.08243 0.57614 0.06748 0.0
C1572 C 0.11999 0.61584 0.07576 0.0
C1573 C 0.11831 0.60863 0.10119 0.0
C1574 C 0.09873 0.58508 0.10963 0.0
C1575 C 0.08106 0.56895 0.09294 0.0
C1576 C 0.13644 0.62587 0.11925 0.0
C1577 C 0.12705 0.63225 0.13942 0.0
C1578 C 0.1627 0.63626 0.11652 0.0
C1579 C 0.17358 0.62946 0.09609 0.0
C1580 C 0.16559 0.60465 0.09302 0.0
C1581 C 0.17575 0.59835 0.07358 0.0
C1582 C 0.19404 0.61671 0.05717 0.0
C1583 C 0.20225 0.64142 0.06023 0.0
C1584 C 0.19214 0.64782 0.07963 0.0
C1585 C 0.21962 0.69075 0.20261 0.0
C1586 C 0.21832 0.71148 0.20732 0.0
C1587 C 0.2043 0.67427 0.18465 0.0
C1588 C 0.18751 0.67831 0.17114 0.0
C1589 C 0.18711 0.69962 0.17498 0.0
C1590 C 0.20221 0.71594 0.19301 0.0
C1591 C 0.16954 0.65973 0.15388 0.0
C1592 C 0.17895 0.65315 0.13385 0.0
C1593 C 0.14321 0.64893 0.15685 0.0
C1594 C 0.13203 0.65453 0.17806 0.0
C1595 C 0.11637 0.66371 0.17339 0.0
C1596 C 0.10626 0.66955 0.19328 0.0
C1597 C 0.1116 0.66619 0.21795 0.0
C1598 C 0.12693 0.65682 0.22279 0.0
C1599 C 0.13703 0.65089 0.20297 0.0
H1600 H 0.10385 0.67086 0.23329 0.0
H1601 H 0.20188 0.6118 0.04213 0.0
loop_
_geom_bond_atom_site_label_1
_geom_bond_atom_site_label_2
_geom_bond_distance
_geom_bond_site_symmetry_2
_ccdc_geom_bond_type
C0 C1 1.443 . S
C0 N4 1.376 1_556 S
C0 C38 1.389 . S
C1 C0 1.443 . S
C1 C2 1.340 1_556 S
C1 H41 0.951 . S
C2 C1 1.340 1_554 S
C2 C3 1.439 . S
C2 H42 0.950 . S
C3 C2 1.439 . S
C3 N4 1.374 . S
C3 C37 1.395 . S
N4 C0 1.376 1_554 S
N4 C3 1.374 . S
N4 Co5 1.987 1_655 S
Co5 N4 1.987 1_455 S
Co5 N6 2.018 1_455 S
Co5 N11 2.030 1_554 S
Co5 N16 1.972 1_554 S
Co5 N21 2.300 . S
Co5 N27 2.265 1_454 S
N6 Co5 2.018 1_655 S
N6 C7 1.376 . S
N6 C10 1.383 1_655 S
C7 N6 1.376 . S
C7 C8 1.446 . S
C7 C37 1.391 . S
C8 C7 1.446 . S
C8 C9 1.339 . S
C8 H43 0.949 . S
C9 C8 1.339 . S
C9 C10 1.439 1_655 S
C9 H44 0.950 1_655 S
C10 N6 1.383 1_455 S
C10 C9 1.439 1_455 S
C10 C39 1.392 . S
N11 Co5 2.030 1_556 S
N11 C12 1.376 1_556 S
N11 C15 1.374 . S
C12 N11 1.376 1_554 S
C12 C13 1.443 . S
C12 C39 1.389 . S
C13 C12 1.443 . S
C13 C14 1.340 1_554 S
C13 H45 0.951 . S
C14 C13 1.340 1_556 S
C14 C15 1.439 . S
C14 H46 0.950 . S
C15 N11 1.374 . S
C15 C14 1.439 . S
C15 C40 1.395 . S
N16 Co5 1.972 1_556 S
N16 C17 1.376 . S
N16 C20 1.383 1_455 S
C17 N16 1.376 . S
C17 C18 1.446 . S
C17 C40 1.391 . S
C18 C17 1.446 . S
C18 C19 1.339 . S
C18 H47 0.949 . S
C19 C18 1.339 . S
C19 C20 1.439 1_455 S
C19 H48 0.950 1_455 S
C20 N16 1.383 1_655 S
C20 C19 1.439 1_655 S
C20 C38 1.392 . S
N21 Co5 2.300 . S
N21 C24 1.332 . S
N21 C26 1.332 . S
C22 C23 1.386 . S
C22 C25 1.388 . S
C23 C22 1.386 . S
C23 C24 1.382 . S
C23 H49 0.950 . S
C24 N21 1.332 . S
C24 C23 1.382 . S
C24 H35 0.952 . S
C25 C22 1.388 . S
C25 C26 1.382 . S
C25 H50 0.950 . S
C26 N21 1.332 . S
C26 C25 1.382 . S
C26 H36 0.948 1_455 S
N27 Co5 2.265 1_656 S
N27 C31 1.332 . S
N27 C32 1.332 . S
C28 C29 1.388 . S
C28 C32 1.382 . S
C28 H51 0.950 . S
C29 C28 1.388 . S
C29 C30 1.386 . S
C30 C29 1.386 . S
C30 C31 1.382 . S
C30 H52 0.950 . S
C31 N27 1.332 . S
C31 C30 1.382 . S
C31 H33 0.953 . S
C32 N27 1.332 . S
C32 C28 1.382 . S
C32 H34 0.948 1_655 S
H33 C31 0.953 . S
H34 C32 0.948 1_455 S
H35 C24 0.952 . S
H36 C26 0.948 1_655 S
C37 C3 1.395 . S
C37 C7 1.391 . S
C38 C0 1.389 . S
C38 C20 1.392 . S
C39 C10 1.392 . S
C39 C12 1.389 . S
C40 C15 1.395 . S
C40 C17 1.391 . S
H41 C1 0.951 . S
H42 C2 0.950 . S
H43 C8 0.949 . S
H44 C9 0.950 1_455 S
H45 C13 0.951 . S
H46 C14 0.950 . S
H47 C18 0.949 . S
H48 C19 0.950 1_655 S
H49 C23 0.950 . S
H50 C25 0.950 . S
H51 C28 0.950 . S
H52 C30 0.950 . S
C53 C54 1.446 . S
C53 N57 1.376 1_545 S
C53 C91 1.389 . S
C54 C53 1.446 . S
C54 C55 1.336 1_545 S
C54 H94 0.952 . S
C55 C54 1.336 1_565 S
C55 C56 1.439 . S
C55 H95 0.950 . S
C56 C55 1.439 . S
C56 N57 1.374 . S
C56 C90 1.395 . S
N57 C53 1.376 1_565 S
N57 C56 1.374 . S
N57 Co58 2.008 1_565 S
Co58 N57 2.008 1_545 S
Co58 N59 1.995 1_545 S
Co58 N64 2.008 . S
Co58 N69 1.995 . S
Co58 N74 2.282 1_545 S
Co58 N80 2.282 . S
N59 Co58 1.995 1_565 S
N59 C60 1.376 . S
N59 C63 1.383 . S
C60 N59 1.376 . S
C60 C61 1.446 . S
C60 C90 1.391 . S
C61 C60 1.446 . S
C61 C62 1.339 . S
C61 H96 0.949 . S
C62 C61 1.339 . S
C62 C63 1.439 . S
C62 H97 0.950 . S
C63 N59 1.383 . S
C63 C62 1.439 . S
C63 C92 1.392 . S
N64 Co58 2.008 . S
N64 C65 1.376 1_545 S
N64 C68 1.374 . S
C65 N64 1.376 1_565 S
C65 C66 1.443 1_565 S
C65 C92 1.389 . S
C66 C65 1.443 1_545 S
C66 C67 1.340 . S
C66 H98 0.951 1_545 S
C67 C66 1.340 . S
C67 C68 1.439 . S
C67 H99 0.950 . S
C68 N64 1.374 . S
C68 C67 1.439 . S
C68 C93 1.395 . S
N69 Co58 1.995 . S
N69 C70 1.376 . S
N69 C73 1.383 . S
C70 N69 1.376 . S
C70 C71 1.446 . S
C70 C93 1.391 . S
C71 C70 1.446 . S
C71 C72 1.339 . S
C71 H100 0.949 . S
C72 C71 1.339 . S
C72 C73 1.439 . S
C72 H101 0.950 . S
C73 N69 1.383 . S
C73 C72 1.439 . S
C73 C91 1.392 . S
N74 Co58 2.282 1_565 S
N74 C77 1.332 . S
N74 C79 1.332 . S
C75 C76 1.386 . S
C75 C78 1.388 . S
C76 C75 1.386 . S
C76 C77 1.382 . S
C76 H102 0.950 . S
C77 N74 1.332 . S
C77 C76 1.382 . S
C77 H88 0.952 1_565 S
C78 C75 1.388 . S
C78 C79 1.382 . S
C78 H103 0.950 . S
C79 N74 1.332 . S
C79 C78 1.382 . S
C79 H89 0.948 . S
N80 Co58 2.282 . S
N80 C84 1.332 . S
N80 C85 1.332 . S
C81 C82 1.388 . S
C81 C85 1.382 . S
C81 H104 0.950 . S
C82 C81 1.388 . S
C82 C83 1.386 . S
C83 C82 1.386 . S
C83 C84 1.382 . S
C83 H105 0.950 . S
C84 N80 1.332 . S
C84 C83 1.382 . S
C84 H86 0.952 1_545 S
C85 N80 1.332 . S
C85 C81 1.382 . S
C85 H87 0.948 . S
H86 C84 0.952 1_565 S
H87 C85 0.948 . S
H88 C77 0.952 1_545 S
H89 C79 0.948 . S
C90 C56 1.395 . S
C90 C60 1.391 . S
C91 C53 1.389 . S
C91 C73 1.392 . S
C92 C63 1.392 . S
C92 C65 1.389 . S
C93 C68 1.395 . S
C93 C70 1.391 . S
H94 C54 0.952 . S
H95 C55 0.950 . S
H96 C61 0.949 . S
H97 C62 0.950 . S
H98 C66 0.951 1_565 S
H99 C67 0.950 . S
H100 C71 0.949 . S
H101 C72 0.950 . S
H102 C76 0.950 . S
H103 C78 0.950 . S
H104 C81 0.950 . S
H105 C83 0.950 . S
C106 C107 1.443 . S
C106 N110 1.376 . S
C106 C144 1.389 . S
C107 C106 1.443 . S
C107 C108 1.340 . S
C107 H147 0.951 . S
C108 C107 1.340 . S
C108 C109 1.439 . S
C108 H148 0.950 . S
C109 C108 1.439 . S
C109 N110 1.374 . S
C109 C143 1.395 . S
N110 C106 1.376 . S
N110 C109 1.374 . S
N110 Co111 1.985 1_556 S
Co111 N110 1.985 1_554 S
Co111 N112 1.992 1_554 S
Co111 N117 2.031 . S
Co111 N122 1.997 . S
Co111 N127 2.298 . S
Co111 N133 2.267 1_554 S
N112 Co111 1.992 1_556 S
N112 C113 1.376 . S
N112 C116 1.383 1_556 S
C113 N112 1.376 . S
C113 C114 1.446 . S
C113 C143 1.391 . S
C114 C113 1.446 . S
C114 C115 1.339 1_556 S
C114 H149 0.949 . S
C115 C114 1.339 1_554 S
C115 C116 1.439 . S
C115 H150 0.950 . S
C116 N112 1.383 1_554 S
C116 C115 1.439 . S
C116 C145 1.392 . S
N117 Co111 2.031 . S
N117 C118 1.376 . S
N117 C121 1.374 . S
C118 N117 1.376 . S
C118 C119 1.443 . S
C118 C145 1.389 . S
C119 C118 1.443 . S
C119 C120 1.340 . S
C119 H151 0.951 . S
C120 C119 1.340 . S
C120 C121 1.439 . S
C120 H152 0.950 . S
C121 N117 1.374 . S
C121 C120 1.439 . S
C121 C146 1.395 . S
N122 Co111 1.997 . S
N122 C123 1.376 . S
N122 C126 1.383 1_554 S
C123 N122 1.376 . S
C123 C124 1.446 . S
C123 C146 1.391 . S
C124 C123 1.446 . S
C124 C125 1.339 1_554 S
C124 H153 0.949 . S
C125 C124 1.339 1_556 S
C125 C126 1.439 . S
C125 H154 0.950 . S
C126 N122 1.383 1_556 S
C126 C125 1.439 . S
C126 C144 1.392 . S
N127 Co111 2.298 . S
N127 C130 1.332 . S
N127 C132 1.332 . S
C128 C129 1.386 . S
C128 C131 1.388 . S
C129 C128 1.386 . S
C129 C130 1.382 . S
C129 H155 0.950 . S
C130 N127 1.332 . S
C130 C129 1.382 . S
C130 H141 0.952 . S
C131 C128 1.388 . S
C131 C132 1.382 . S
C131 H156 0.950 . S
C132 N127 1.332 . S
C132 C131 1.382 . S
C132 H142 0.948 . S
N133 Co111 2.267 1_556 S
N133 C137 1.332 . S
N133 C138 1.332 . S
C134 C135 1.388 . S
C134 C138 1.382 . S
C134 H157 0.950 . S
C135 C134 1.388 . S
C135 C136 1.386 . S
C136 C135 1.386 . S
C136 C137 1.382 . S
C136 H158 0.950 . S
C137 N133 1.332 . S
C137 C136 1.382 . S
C137 H139 0.952 . S
C138 N133 1.332 . S
C138 C134 1.382 . S
C138 H140 0.948 . S
H139 C137 0.952 . S
H140 C138 0.948 . S
H141 C130 0.952 . S
H142 C132 0.948 . S
C143 C109 1.395 . S
C143 C113 1.391 . S
C144 C106 1.389 . S
C144 C126 1.392 . S
C145 C116 1.392 . S
C145 C118 1.389 . S
C146 C121 1.395 . S
C146 C123 1.391 . S
H147 C107 0.951 . S
H148 C108 0.950 . S
H149 C114 0.949 . S
H150 C115 0.950 . S
H151 C119 0.951 . S
H152 C120 0.950 . S
H153 C124 0.949 . S
H154 C125 0.950 . S
H155 C129 0.950 . S
H156 C131 0.950 . S
H157 C134 0.950 . S
H158 C136 0.950 . S
C159 C160 1.443 . S
C159 N163 1.376 . S
C159 C197 1.389 . S
C160 C159 1.443 . S
C160 C161 1.340 . S
C160 H200 0.951 . S
C161 C160 1.340 . S
C161 C162 1.439 . S
C161 H201 0.950 . S
C162 C161 1.439 . S
C162 N163 1.374 . S
C162 C196 1.395 . S
N163 C159 1.376 . S
N163 C162 1.374 . S
N163 Co164 1.995 1_655 S
Co164 N163 1.995 1_455 S
Co164 N165 1.984 1_455 S
Co164 N170 2.022 . S
Co164 N175 2.005 . S
Co164 N180 2.298 . S
Co164 N186 2.267 1_455 S
N165 Co164 1.984 1_655 S
N165 C166 1.376 . S
N165 C169 1.383 1_655 S
C166 N165 1.376 . S
C166 C167 1.446 . S
C166 C196 1.391 . S
C167 C166 1.446 . S
C167 C168 1.339 . S
C167 H202 0.949 . S
C168 C167 1.339 . S
C168 C169 1.439 1_655 S
C168 H203 0.950 1_655 S
C169 N165 1.383 1_455 S
C169 C168 1.439 1_455 S
C169 C198 1.392 . S
N170 Co164 2.022 . S
N170 C171 1.376 . S
N170 C174 1.374 . S
C171 N170 1.376 . S
C171 C172 1.443 . S
C171 C198 1.389 . S
C172 C171 1.443 . S
C172 C173 1.340 . S
C172 H204 0.951 . S
C173 C172 1.340 . S
C173 C174 1.439 . S
C173 H205 0.950 . S
C174 N170 1.374 . S
C174 C173 1.439 . S
C174 C199 1.395 . S
N175 Co164 2.005 . S
N175 C176 1.376 . S
N175 C179 1.383 1_455 S
C176 N175 1.376 . S
C176 C177 1.446 . S
C176 C199 1.391 . S
C177 C176 1.446 . S
C177 C178 1.339 . S
C177 H206 0.949 . S
C178 C177 1.339 . S
C178 C179 1.439 1_455 S
C178 H207 0.950 1_455 S
C179 N175 1.383 1_655 S
C179 C178 1.439 1_655 S
C179 C197 1.392 . S
N180 Co164 2.298 . S
N180 C183 1.332 . S
N180 C185 1.332 . S
C181 C182 1.386 . S
C181 C184 1.388 . S
C182 C181 1.386 . S
C182 C183 1.382 . S
C182 H208 0.950 . S
C183 N180 1.332 . S
C183 C182 1.382 . S
C183 H194 0.952 . S
C184 C181 1.388 . S
C184 C185 1.382 . S
C184 H209 0.950 . S
C185 N180 1.332 . S
C185 C184 1.382 . S
C185 H195 0.948 1_455 S
N186 Co164 2.267 1_655 S
N186 C190 1.332 . S
N186 C191 1.332 . S
C187 C188 1.388 . S
C187 C191 1.382 . S
C187 H210 0.950 . S
C188 C187 1.388 . S
C188 C189 1.386 . S
C189 C188 1.386 . S
C189 C190 1.382 . S
C189 H211 0.950 . S
C190 N186 1.332 . S
C190 C189 1.382 . S
C190 H192 0.952 . S
C191 N186 1.332 . S
C191 C187 1.382 . S
C191 H193 0.948 1_655 S
H192 C190 0.952 . S
H193 C191 0.948 1_455 S
H194 C183 0.952 . S
H195 C185 0.948 1_655 S
C196 C162 1.395 . S
C196 C166 1.391 . S
C197 C159 1.389 . S
C197 C179 1.392 . S
C198 C169 1.392 . S
C198 C171 1.389 . S
C199 C174 1.395 . S
C199 C176 1.391 . S
H200 C160 0.951 . S
H201 C161 0.950 . S
H202 C167 0.949 . S
H203 C168 0.950 1_455 S
H204 C172 0.951 . S
H205 C173 0.950 . S
H206 C177 0.949 . S
H207 C178 0.950 1_655 S
H208 C182 0.950 . S
H209 C184 0.950 . S
H210 C187 0.950 . S
H211 C189 0.950 . S
C212 C213 1.443 1_565 S
C212 N216 1.376 1_565 S
C212 C250 1.389 . S
C213 C212 1.443 1_545 S
C213 C214 1.340 . S
C213 H253 0.951 1_545 S
C214 C213 1.340 . S
C214 C215 1.439 . S
C214 H254 0.950 . S
C215 C214 1.439 . S
C215 N216 1.374 . S
C215 C249 1.395 . S
N216 C212 1.376 1_545 S
N216 C215 1.374 . S
N216 Co217 2.032 . S
Co217 N216 2.032 . S
Co217 N218 1.996 . S
Co217 N223 1.984 1_544 S
Co217 N228 1.993 1_545 S
Co217 N233 2.269 1_554 S
Co217 N239 2.296 1_545 S
N218 Co217 1.996 . S
N218 C219 1.376 . S
N218 C222 1.383 1_554 S
C219 N218 1.376 . S
C219 C220 1.446 . S
C219 C249 1.391 . S
C220 C219 1.446 . S
C220 C221 1.339 1_554 S
C220 H255 0.949 . S
C221 C220 1.339 1_556 S
C221 C222 1.439 . S
C221 H256 0.950 . S
C222 N218 1.383 1_556 S
C222 C221 1.439 . S
C222 C251 1.392 . S
N223 Co217 1.984 1_566 S
N223 C224 1.376 1_565 S
N223 C227 1.374 . S
C224 N223 1.376 1_545 S
C224 C225 1.464 . S
C224 C251 1.389 . S
C225 C224 1.464 . S
C225 C226 1.316 1_545 S
C225 H257 0.956 . S
C226 C225 1.316 1_565 S
C226 C227 1.439 . S
C226 H258 0.950 . S
C227 N223 1.374 . S
C227 C226 1.439 . S
C227 C252 1.395 . S
N228 Co217 1.993 1_565 S
N228 C229 1.377 1_554 S
N228 C232 1.382 . S
C229 N228 1.377 1_556 S
C229 C230 1.446 . S
C229 C252 1.391 . S
C230 C229 1.446 . S
C230 C231 1.339 1_556 S
C230 H259 0.949 . S
C231 C230 1.339 1_554 S
C231 C232 1.439 . S
C231 H260 0.950 . S
C232 N228 1.382 . S
C232 C231 1.439 . S
C232 C250 1.392 . S
N233 Co217 2.269 1_556 S
N233 C236 1.332 . S
N233 C238 1.332 . S
C234 C235 1.386 . S
C234 C237 1.388 . S
C235 C234 1.386 . S
C235 C236 1.382 . S
C235 H261 0.950 . S
C236 N233 1.332 . S
C236 C235 1.382 . S
C236 H247 0.952 1_545 S
C237 C234 1.388 . S
C237 C238 1.382 . S
C237 H262 0.950 . S
C238 N233 1.332 . S
C238 C237 1.382 . S
C238 H248 0.948 . S
N239 Co217 2.296 1_565 S
N239 C243 1.332 . S
N239 C244 1.332 . S
C240 C241 1.388 . S
C240 C244 1.382 . S
C240 H263 0.950 . S
C241 C240 1.388 . S
C241 C242 1.386 . S
C242 C241 1.386 . S
C242 C243 1.382 . S
C242 H264 0.950 . S
C243 N239 1.332 . S
C243 C242 1.382 . S
C243 H245 0.952 1_565 S
C244 N239 1.332 . S
C244 C240 1.382 . S
C244 H246 0.948 . S
H245 C243 0.952 1_545 S
H246 C244 0.948 . S
H247 C236 0.952 1_565 S
H248 C238 0.948 . S
C249 C215 1.395 . S
C249 C219 1.391 . S
C250 C212 1.389 . S
C250 C232 1.392 . S
C251 C222 1.392 . S
C251 C224 1.389 . S
C252 C227 1.395 . S
C252 C229 1.391 . S
H253 C213 0.951 1_565 S
H254 C214 0.950 . S
H255 C220 0.949 . S
H256 C221 0.950 . S
H257 C225 0.956 . S
H258 C226 0.950 . S
H259 C230 0.949 . S
H260 C231 0.950 . S
H261 C235 0.950 . S
H262 C237 0.950 . S
H263 C240 0.950 . S
H264 C242 0.950 . S
C265 C266 1.443 . S
C265 N269 1.376 . S
C265 C303 1.389 . S
C266 C265 1.443 . S
C266 C267 1.340 . S
C266 H306 0.951 . S
C267 C266 1.340 . S
C267 C268 1.439 . S
C267 H307 0.950 . S
C268 C267 1.439 . S
C268 N269 1.374 . S
C268 C302 1.395 . S
N269 C265 1.376 . S
N269 C268 1.374 . S
N269 Co270 2.008 . S
Co270 N269 2.008 . S
Co270 N271 1.995 . S
Co270 N276 2.008 . S
Co270 N281 1.995 . S
Co270 N286 2.282 . S
Co270 N292 2.282 . S
N271 Co270 1.995 . S
N271 C272 1.376 . S
N271 C275 1.383 . S
C272 N271 1.376 . S
C272 C273 1.446 . S
C272 C302 1.391 . S
C273 C272 1.446 . S
C273 C274 1.339 . S
C273 H308 0.949 . S
C274 C273 1.339 . S
C274 C275 1.439 . S
C274 H309 0.950 . S
C275 N271 1.383 . S
C275 C274 1.439 . S
C275 C304 1.392 . S
N276 Co270 2.008 . S
N276 C277 1.376 . S
N276 C280 1.374 . S
C277 N276 1.376 . S
C277 C278 1.443 . S
C277 C304 1.389 . S
C278 C277 1.443 . S
C278 C279 1.340 . S
C278 H310 0.951 . S
C279 C278 1.340 . S
C279 C280 1.439 . S
C279 H311 0.950 . S
C280 N276 1.374 . S
C280 C279 1.439 . S
C280 C305 1.395 . S
N281 Co270 1.995 . S
N281 C282 1.376 . S
N281 C285 1.383 . S
C282 N281 1.376 . S
C282 C283 1.446 . S
C282 C305 1.391 . S
C283 C282 1.446 . S
C283 C284 1.339 . S
C283 H312 0.949 . S
C284 C283 1.339 . S
C284 C285 1.439 . S
C284 H313 0.950 . S
C285 N281 1.383 . S
C285 C284 1.439 . S
C285 C303 1.392 . S
N286 Co270 2.282 . S
N286 C289 1.332 . S
N286 C291 1.332 . S
C287 C288 1.386 . S
C287 C290 1.388 . S
C288 C287 1.386 . S
C288 C289 1.382 . S
C288 H314 0.950 . S
C289 N286 1.332 . S
C289 C288 1.382 . S
C289 H300 0.952 . S
C290 C287 1.388 . S
C290 C291 1.382 . S
C290 H315 0.950 . S
C291 N286 1.332 . S
C291 C290 1.382 . S
C291 H301 0.948 . S
N292 Co270 2.282 . S
N292 C296 1.332 . S
N292 C297 1.332 . S
C293 C294 1.388 . S
C293 C297 1.382 . S
C293 H316 0.950 . S
C294 C293 1.388 . S
C294 C295 1.386 . S
C295 C294 1.386 . S
C295 C296 1.382 . S
C295 H317 0.950 . S
C296 N292 1.332 . S
C296 C295 1.382 . S
C296 H298 0.952 . S
C297 N292 1.332 . S
C297 C293 1.382 . S
C297 H299 0.948 . S
H298 C296 0.952 . S
H299 C297 0.948 . S
H300 C289 0.952 . S
H301 C291 0.948 . S
C302 C268 1.395 . S
C302 C272 1.391 . S
C303 C265 1.389 . S
C303 C285 1.392 . S
C304 C275 1.392 . S
C304 C277 1.389 . S
C305 C280 1.395 . S
C305 C282 1.391 . S
H306 C266 0.951 . S
H307 C267 0.950 . S
H308 C273 0.949 . S
H309 C274 0.950 . S
H310 C278 0.951 . S
H311 C279 0.950 . S
H312 C283 0.949 . S
H313 C284 0.950 . S
H314 C288 0.950 . S
H315 C290 0.950 . S
H316 C293 0.950 . S
H317 C295 0.950 . S
C318 O320 1.247 . S
C318 O322 1.258 . S
C319 O326 1.247 . S
C319 O327 1.258 . S
O320 C318 1.247 . S
O320 Zn321 2.028 . S
Zn321 O320 2.028 . S
Zn321 O325 2.035 . S
Zn321 O327 2.035 . S
Zn321 O328 2.028 . S
O322 C318 1.258 . S
O322 Zn323 2.035 . S
Zn323 O322 2.035 . S
Zn323 O324 2.028 . S
Zn323 O326 2.028 . S
Zn323 O329 2.035 . S
O324 Zn323 2.028 . S
O324 C330 1.247 . S
O325 Zn321 2.035 . S
O325 C330 1.258 . S
O326 C319 1.247 . S
O326 Zn323 2.028 . S
O327 C319 1.258 . S
O327 Zn321 2.035 . S
O328 Zn321 2.028 . S
O328 C331 1.247 . S
O329 Zn323 2.035 . S
O329 C331 1.258 . S
C330 O324 1.247 . S
C330 O325 1.258 . S
C331 O328 1.247 . S
C331 O329 1.258 . S
C332 O334 1.247 . S
C332 O336 1.258 . S
C333 O340 1.247 . S
C333 O341 1.258 . S
O334 C332 1.247 . S
O334 Zn335 2.028 . S
Zn335 O334 2.028 . S
Zn335 O339 2.035 . S
Zn335 O341 2.035 . S
Zn335 O342 2.028 . S
O336 C332 1.258 . S
O336 Zn337 2.035 . S
Zn337 O336 2.035 . S
Zn337 O338 2.028 . S
Zn337 O340 2.028 . S
Zn337 O343 2.035 . S
O338 Zn337 2.028 . S
O338 C344 1.247 . S
O339 Zn335 2.035 . S
O339 C344 1.258 . S
O340 C333 1.247 . S
O340 Zn337 2.028 . S
O341 C333 1.258 . S
O341 Zn335 2.035 . S
O342 Zn335 2.028 . S
O342 C345 1.247 . S
O343 Zn337 2.035 . S
O343 C345 1.258 . S
C344 O338 1.247 . S
C344 O339 1.258 . S
C345 O342 1.247 . S
C345 O343 1.258 . S
C346 O348 1.247 . S
C346 O350 1.258 . S
C347 O354 1.247 . S
C347 O355 1.258 . S
O348 C346 1.247 . S
O348 Zn349 2.028 . S
Zn349 O348 2.028 . S
Zn349 O353 2.035 . S
Zn349 O355 2.035 . S
Zn349 O356 2.028 . S
O350 C346 1.258 . S
O350 Zn351 2.035 . S
Zn351 O350 2.035 . S
Zn351 O352 2.028 . S
Zn351 O354 2.028 . S
Zn351 O357 2.035 . S
O352 Zn351 2.028 . S
O352 C358 1.247 . S
O353 Zn349 2.035 . S
O353 C358 1.258 . S
O354 C347 1.247 . S
O354 Zn351 2.028 . S
O355 C347 1.258 . S
O355 Zn349 2.035 . S
O356 Zn349 2.028 . S
O356 C359 1.247 . S
O357 Zn351 2.035 . S
O357 C359 1.258 . S
C358 O352 1.247 . S
C358 O353 1.258 . S
C359 O356 1.247 . S
C359 O357 1.258 . S
C360 O362 1.247 . S
C360 O364 1.258 . S
C361 O368 1.247 . S
C361 O369 1.258 . S
O362 C360 1.247 . S
O362 Zn363 2.028 . S
Zn363 O362 2.028 . S
Zn363 O367 2.035 . S
Zn363 O369 2.035 . S
Zn363 O370 2.028 . S
O364 C360 1.258 . S
O364 Zn365 2.035 . S
Zn365 O364 2.035 . S
Zn365 O366 2.028 . S
Zn365 O368 2.028 . S
Zn365 O371 2.035 . S
O366 Zn365 2.028 . S
O366 C372 1.247 . S
O367 Zn363 2.035 . S
O367 C372 1.258 . S
O368 C361 1.247 . S
O368 Zn365 2.028 . S
O369 C361 1.258 . S
O369 Zn363 2.035 . S
O370 Zn363 2.028 . S
O370 C373 1.247 . S
O371 Zn365 2.035 . S
O371 C373 1.258 . S
C372 O366 1.247 . S
C372 O367 1.258 . S
C373 O370 1.247 . S
C373 O371 1.258 . S
C374 O376 1.247 . S
C374 O378 1.258 . S
C375 O382 1.247 . S
C375 O383 1.258 . S
O376 C374 1.247 . S
O376 Zn377 2.028 . S
Zn377 O376 2.028 . S
Zn377 O381 2.035 . S
Zn377 O383 2.035 . S
Zn377 O384 2.028 . S
O378 C374 1.258 . S
O378 Zn379 2.035 . S
Zn379 O378 2.035 . S
Zn379 O380 2.028 . S
Zn379 O382 2.028 . S
Zn379 O385 2.035 . S
O380 Zn379 2.028 . S
O380 C386 1.247 . S
O381 Zn377 2.035 . S
O381 C386 1.258 . S
O382 C375 1.247 . S
O382 Zn379 2.028 . S
O383 C375 1.258 . S
O383 Zn377 2.035 . S
O384 Zn377 2.028 . S
O384 C387 1.247 . S
O385 Zn379 2.035 . S
O385 C387 1.258 . S
C386 O380 1.247 . S
C386 O381 1.258 . S
C387 O384 1.247 . S
C387 O385 1.258 . S
C388 O390 1.247 . S
C388 O392 1.258 . S
C389 O396 1.247 . S
C389 O397 1.258 . S
O390 C388 1.247 . S
O390 Zn391 2.028 . S
Zn391 O390 2.028 . S
Zn391 O395 2.035 . S
Zn391 O397 2.035 . S
Zn391 O398 2.028 . S
O392 C388 1.258 . S
O392 Zn393 2.035 . S
Zn393 O392 2.035 . S
Zn393 O394 2.028 . S
Zn393 O396 2.028 . S
Zn393 O399 2.035 . S
O394 Zn393 2.028 . S
O394 C400 1.247 . S
O395 Zn391 2.035 . S
O395 C400 1.258 . S
O396 C389 1.247 . S
O396 Zn393 2.028 . S
O397 C389 1.258 . S
O397 Zn391 2.035 . S
O398 Zn391 2.028 . S
O398 C401 1.247 . S
O399 Zn393 2.035 . S
O399 C401 1.258 . S
C400 O394 1.247 . S
C400 O395 1.258 . S
C401 O398 1.247 . S
C401 O399 1.258 . S
H402 C420 0.951 . S
H403 C422 0.951 . S
H404 C424 0.950 . S
H405 C425 0.950 . S
H406 C427 0.950 . S
H407 C430 0.950 . S
H408 C431 0.950 . S
H409 C433 0.950 1_655 S
H410 C434 0.950 . S
H411 C435 0.951 . S
H412 C437 0.951 . S
H413 C439 0.950 . S
H414 C440 0.950 . S
H415 C442 0.950 . S
H416 C445 0.950 . S
H417 C446 0.950 . S
H418 C448 0.950 . S
H419 C449 0.950 . S
C420 H402 0.951 . S
C420 C421 1.366 . S
C420 C422 1.388 . S
C421 C420 1.366 . S
C421 C425 1.385 . S
C422 H403 0.951 . S
C422 C420 1.388 . S
C422 C423 1.366 . S
C423 C422 1.366 . S
C423 C424 1.414 . S
C423 C426 1.499 . S
C424 H404 0.950 . S
C424 C423 1.414 . S
C424 C425 1.374 . S
C425 H405 0.950 . S
C425 C421 1.385 . S
C425 C424 1.374 . S
C426 C423 1.499 . S
C426 C427 1.373 . S
C426 C428 1.389 . S
C427 H406 0.950 . S
C427 C426 1.373 . S
C427 C443 1.377 . S
C428 C426 1.389 . S
C428 C429 1.524 . S
C428 C442 1.377 . S
C429 C428 1.524 . S
C429 C430 1.397 . S
C429 C434 1.363 . S
C430 H407 0.950 . S
C430 C429 1.397 . S
C430 C431 1.334 . S
C431 H408 0.950 . S
C431 C430 1.334 . S
C431 C432 1.287 . S
C432 C431 1.287 . S
C432 C433 1.524 . S
C432 H451 0.913 1_455 S
C433 H409 0.950 1_455 S
C433 C432 1.524 . S
C433 C434 1.415 . S
C434 H410 0.950 . S
C434 C429 1.363 . S
C434 C433 1.415 . S
C435 H411 0.951 . S
C435 C436 1.366 . S
C435 C437 1.388 . S
C436 C435 1.366 . S
C436 C440 1.385 . S
C437 H412 0.951 . S
C437 C435 1.388 . S
C437 C438 1.366 . S
C438 C437 1.366 . S
C438 C439 1.414 . S
C438 C441 1.499 . S
C439 H413 0.950 . S
C439 C438 1.414 . S
C439 C440 1.374 . S
C440 H414 0.950 . S
C440 C436 1.385 . S
C440 C439 1.374 . S
C441 C438 1.499 . S
C441 C442 1.373 . S
C441 C443 1.389 . S
C442 H415 0.950 . S
C442 C428 1.377 . S
C442 C441 1.373 . S
C443 C427 1.377 . S
C443 C441 1.389 . S
C443 C444 1.524 . S
C444 C443 1.524 . S
C444 C445 1.397 . S
C444 C449 1.363 . S
C445 H416 0.950 . S
C445 C444 1.397 . S
C445 C446 1.334 . S
C446 H417 0.950 . S
C446 C445 1.334 . S
C446 C447 1.287 . S
C447 C446 1.287 . S
C447 C448 1.524 . S
C447 H450 0.999 . S
C448 H418 0.950 . S
C448 C447 1.524 . S
C448 C449 1.415 . S
C449 H419 0.950 . S
C449 C444 1.363 . S
C449 C448 1.415 . S
H450 C447 0.999 . S
H451 C432 0.913 1_655 S
H452 C470 0.951 . S
H453 C472 0.951 . S
H454 C474 0.950 . S
H455 C475 0.950 . S
H456 C477 0.950 . S
H457 C480 0.950 . S
H458 C481 0.950 . S
H459 C483 0.950 . S
H460 C484 0.950 . S
H461 C485 0.951 . S
H462 C487 0.951 . S
H463 C489 0.950 . S
H464 C490 0.950 . S
H465 C492 0.950 . S
H466 C495 0.950 . S
H467 C496 0.950 . S
H468 C498 0.950 . S
H469 C499 0.950 . S
C470 H452 0.951 . S
C470 C471 1.366 . S
C470 C472 1.388 . S
C471 C470 1.366 . S
C471 C475 1.385 . S
C472 H453 0.951 . S
C472 C470 1.388 . S
C472 C473 1.366 . S
C473 C472 1.366 . S
C473 C474 1.414 . S
C473 C476 1.499 . S
C474 H454 0.950 . S
C474 C473 1.414 . S
C474 C475 1.374 . S
C475 H455 0.950 . S
C475 C471 1.385 . S
C475 C474 1.374 . S
C476 C473 1.499 . S
C476 C477 1.373 . S
C476 C478 1.389 . S
C477 H456 0.950 . S
C477 C476 1.373 . S
C477 C493 1.377 . S
C478 C476 1.389 . S
C478 C479 1.524 . S
C478 C492 1.377 . S
C479 C478 1.524 . S
C479 C480 1.397 . S
C479 C484 1.363 . S
C480 H457 0.950 . S
C480 C479 1.397 . S
C480 C481 1.334 . S
C481 H458 0.950 . S
C481 C480 1.334 . S
C481 C482 1.287 . S
C482 C481 1.287 . S
C482 C483 1.524 . S
C482 H501 0.913 . S
C483 H459 0.950 . S
C483 C482 1.524 . S
C483 C484 1.415 . S
C484 H460 0.950 . S
C484 C479 1.363 . S
C484 C483 1.415 . S
C485 H461 0.951 . S
C485 C486 1.366 . S
C485 C487 1.388 . S
C486 C485 1.366 . S
C486 C490 1.385 . S
C487 H462 0.951 . S
C487 C485 1.388 . S
C487 C488 1.366 . S
C488 C487 1.366 . S
C488 C489 1.414 . S
C488 C491 1.499 . S
C489 H463 0.950 . S
C489 C488 1.414 . S
C489 C490 1.374 . S
C490 H464 0.950 . S
C490 C486 1.385 . S
C490 C489 1.374 . S
C491 C488 1.499 . S
C491 C492 1.373 . S
C491 C493 1.389 . S
C492 H465 0.950 . S
C492 C478 1.377 . S
C492 C491 1.373 . S
C493 C477 1.377 . S
C493 C491 1.389 . S
C493 C494 1.524 . S
C494 C493 1.524 . S
C494 C495 1.397 . S
C494 C499 1.363 . S
C495 H466 0.950 . S
C495 C494 1.397 . S
C495 C496 1.334 . S
C496 H467 0.950 . S
C496 C495 1.334 . S
C496 C497 1.287 . S
C497 C496 1.287 . S
C497 C498 1.524 . S
C497 H500 0.999 . S
C498 H468 0.950 . S
C498 C497 1.524 . S
C498 C499 1.415 . S
C499 H469 0.950 . S
C499 C494 1.363 . S
C499 C498 1.415 . S
H500 C497 0.999 . S
H501 C482 0.913 . S
H502 C520 0.951 . S
H503 C522 0.951 . S
H504 C524 0.950 . S
H505 C525 0.950 . S
H506 C527 0.950 . S
H507 C530 0.950 . S
H508 C531 0.950 . S
H509 C533 0.950 . S
H510 C534 0.950 . S
H511 C535 0.951 . S
H512 C537 0.951 . S
H513 C539 0.950 . S
H514 C540 0.950 . S
H515 C542 0.950 . S
H516 C545 0.950 . S
H517 C546 0.950 . S
H518 C548 0.950 . S
H519 C549 0.950 . S
C520 H502 0.951 . S
C520 C521 1.366 . S
C520 C522 1.388 . S
C521 C520 1.366 . S
C521 C525 1.385 . S
C522 H503 0.951 . S
C522 C520 1.388 . S
C522 C523 1.366 . S
C523 C522 1.366 . S
C523 C524 1.414 . S
C523 C526 1.499 . S
C524 H504 0.950 . S
C524 C523 1.414 . S
C524 C525 1.374 . S
C525 H505 0.950 . S
C525 C521 1.385 . S
C525 C524 1.374 . S
C526 C523 1.499 . S
C526 C527 1.373 . S
C526 C528 1.389 . S
C527 H506 0.950 . S
C527 C526 1.373 . S
C527 C543 1.377 . S
C528 C526 1.389 . S
C528 C529 1.524 . S
C528 C542 1.377 . S
C529 C528 1.524 . S
C529 C530 1.397 . S
C529 C534 1.363 . S
C530 H507 0.950 . S
C530 C529 1.397 . S
C530 C531 1.334 . S
C531 H508 0.950 . S
C531 C530 1.334 . S
C531 C532 1.287 . S
C532 C531 1.287 . S
C532 C533 1.524 . S
C532 H551 0.913 . S
C533 H509 0.950 . S
C533 C532 1.524 . S
C533 C534 1.415 . S
C534 H510 0.950 . S
C534 C529 1.363 . S
C534 C533 1.415 . S
C535 H511 0.951 . S
C535 C536 1.366 . S
C535 C537 1.388 . S
C536 C535 1.366 . S
C536 C540 1.385 . S
C537 H512 0.951 . S
C537 C535 1.388 . S
C537 C538 1.366 . S
C538 C537 1.366 . S
C538 C539 1.414 . S
C538 C541 1.499 . S
C539 H513 0.950 . S
C539 C538 1.414 . S
C539 C540 1.374 . S
C540 H514 0.950 . S
C540 C536 1.385 . S
C540 C539 1.374 . S
C541 C538 1.499 . S
C541 C542 1.373 . S
C541 C543 1.389 . S
C542 H515 0.950 . S
C542 C528 1.377 . S
C542 C541 1.373 . S
C543 C527 1.377 . S
C543 C541 1.389 . S
C543 C544 1.524 . S
C544 C543 1.524 . S
C544 C545 1.397 . S
C544 C549 1.363 . S
C545 H516 0.950 . S
C545 C544 1.397 . S
C545 C546 1.334 . S
C546 H517 0.950 . S
C546 C545 1.334 . S
C546 C547 1.287 . S
C547 C546 1.287 . S
C547 C548 1.524 . S
C547 H550 0.999 . S
C548 H518 0.950 . S
C548 C547 1.524 . S
C548 C549 1.415 . S
C549 H519 0.950 . S
C549 C544 1.363 . S
C549 C548 1.415 . S
H550 C547 0.999 . S
H551 C532 0.913 . S
H552 C570 0.951 . S
H553 C572 0.951 . S
H554 C574 0.950 . S
H555 C575 0.950 . S
H556 C577 0.950 . S
H557 C580 0.950 . S
H558 C581 0.950 . S
H559 C583 0.950 . S
H560 C584 0.950 . S
H561 C585 0.951 . S
H562 C587 0.951 . S
H563 C589 0.950 . S
H564 C590 0.950 . S
H565 C592 0.950 . S
H566 C595 0.950 . S
H567 C596 0.950 . S
H568 C598 0.950 . S
H569 C599 0.950 . S
C570 H552 0.951 . S
C570 C571 1.366 . S
C570 C572 1.388 . S
C571 C570 1.366 . S
C571 C575 1.385 . S
C572 H553 0.951 . S
C572 C570 1.388 . S
C572 C573 1.366 . S
C573 C572 1.366 . S
C573 C574 1.414 . S
C573 C576 1.499 . S
C574 H554 0.950 . S
C574 C573 1.414 . S
C574 C575 1.374 . S
C575 H555 0.950 . S
C575 C571 1.385 . S
C575 C574 1.374 . S
C576 C573 1.499 . S
C576 C577 1.373 . S
C576 C578 1.389 . S
C577 H556 0.950 . S
C577 C576 1.373 . S
C577 C593 1.377 . S
C578 C576 1.389 . S
C578 C579 1.524 . S
C578 C592 1.377 . S
C579 C578 1.524 . S
C579 C580 1.397 . S
C579 C584 1.363 . S
C580 H557 0.950 . S
C580 C579 1.397 . S
C580 C581 1.334 . S
C581 H558 0.950 . S
C581 C580 1.334 . S
C581 C582 1.287 . S
C582 C581 1.287 . S
C582 C583 1.524 . S
C582 H601 0.913 . S
C583 H559 0.950 . S
C583 C582 1.524 . S
C583 C584 1.415 . S
C584 H560 0.950 . S
C584 C579 1.363 . S
C584 C583 1.415 . S
C585 H561 0.951 . S
C585 C586 1.366 . S
C585 C587 1.388 . S
C586 C585 1.366 . S
C586 C590 1.385 . S
C587 H562 0.951 . S
C587 C585 1.388 . S
C587 C588 1.366 . S
C588 C587 1.366 . S
C588 C589 1.414 . S
C588 C591 1.499 . S
C589 H563 0.950 . S
C589 C588 1.414 . S
C589 C590 1.374 . S
C590 H564 0.950 . S
C590 C586 1.385 . S
C590 C589 1.374 . S
C591 C588 1.499 . S
C591 C592 1.373 . S
C591 C593 1.389 . S
C592 H565 0.950 . S
C592 C578 1.377 . S
C592 C591 1.373 . S
C593 C577 1.377 . S
C593 C591 1.389 . S
C593 C594 1.524 . S
C594 C593 1.524 . S
C594 C595 1.397 . S
C594 C599 1.363 . S
C595 H566 0.950 . S
C595 C594 1.397 . S
C595 C596 1.334 . S
C596 H567 0.950 . S
C596 C595 1.334 . S
C596 C597 1.287 . S
C597 C596 1.287 . S
C597 C598 1.524 . S
C597 H600 0.999 . S
C598 H568 0.950 . S
C598 C597 1.524 . S
C598 C599 1.415 . S
C599 H569 0.950 . S
C599 C594 1.363 . S
C599 C598 1.415 . S
H600 C597 0.999 . S
H601 C582 0.913 . S
H602 C620 0.951 . S
H603 C622 0.951 . S
H604 C624 0.950 . S
H605 C625 0.950 . S
H606 C627 0.950 . S
H607 C630 0.950 . S
H608 C631 0.950 1_545 S
H609 C633 0.950 . S
H610 C634 0.950 . S
H611 C635 0.951 . S
H612 C637 0.951 . S
H613 C639 0.950 . S
H614 C640 0.950 . S
H615 C642 0.950 . S
H616 C645 0.950 . S
H617 C646 0.950 . S
H618 C648 0.950 . S
H619 C649 0.950 . S
C620 H602 0.951 . S
C620 C621 1.366 . S
C620 C622 1.388 . S
C621 C620 1.366 . S
C621 C625 1.385 . S
C622 H603 0.951 . S
C622 C620 1.388 . S
C622 C623 1.366 . S
C623 C622 1.366 . S
C623 C624 1.414 . S
C623 C626 1.499 . S
C624 H604 0.950 . S
C624 C623 1.414 . S
C624 C625 1.374 . S
C625 H605 0.950 . S
C625 C621 1.385 . S
C625 C624 1.374 . S
C626 C623 1.499 . S
C626 C627 1.373 . S
C626 C628 1.389 . S
C627 H606 0.950 . S
C627 C626 1.373 . S
C627 C643 1.377 . S
C628 C626 1.389 . S
C628 C629 1.524 . S
C628 C642 1.377 . S
C629 C628 1.524 . S
C629 C630 1.397 . S
C629 C634 1.363 . S
C630 H607 0.950 . S
C630 C629 1.397 . S
C630 C631 1.334 . S
C631 H608 0.950 1_565 S
C631 C630 1.334 . S
C631 C632 1.287 . S
C632 C631 1.287 . S
C632 C633 1.524 . S
C632 H651 0.913 1_565 S
C633 H609 0.950 . S
C633 C632 1.524 . S
C633 C634 1.415 . S
C634 H610 0.950 . S
C634 C629 1.363 . S
C634 C633 1.415 . S
C635 H611 0.951 . S
C635 C636 1.366 . S
C635 C637 1.388 . S
C636 C635 1.366 . S
C636 C640 1.385 . S
C637 H612 0.951 . S
C637 C635 1.388 . S
C637 C638 1.366 . S
C638 C637 1.366 . S
C638 C639 1.414 . S
C638 C641 1.499 . S
C639 H613 0.950 . S
C639 C638 1.414 . S
C639 C640 1.374 . S
C640 H614 0.950 . S
C640 C636 1.385 . S
C640 C639 1.374 . S
C641 C638 1.499 . S
C641 C642 1.373 . S
C641 C643 1.389 . S
C642 H615 0.950 . S
C642 C628 1.377 . S
C642 C641 1.373 . S
C643 C627 1.377 . S
C643 C641 1.389 . S
C643 C644 1.524 . S
C644 C643 1.524 . S
C644 C645 1.397 . S
C644 C649 1.363 . S
C645 H616 0.950 . S
C645 C644 1.397 . S
C645 C646 1.334 . S
C646 H617 0.950 . S
C646 C645 1.334 . S
C646 C647 1.287 . S
C647 C646 1.287 . S
C647 C648 1.524 . S
C647 H650 0.999 . S
C648 H618 0.950 . S
C648 C647 1.524 . S
C648 C649 1.415 . S
C649 H619 0.950 . S
C649 C644 1.363 . S
C649 C648 1.415 . S
H650 C647 0.999 . S
H651 C632 0.913 1_545 S
H652 C670 0.951 . S
H653 C672 0.951 . S
H654 C674 0.950 . S
H655 C675 0.950 . S
H656 C677 0.950 . S
H657 C680 0.950 . S
H658 C681 0.950 . S
H659 C683 0.950 . S
H660 C684 0.950 . S
H661 C685 0.951 . S
H662 C687 0.951 . S
H663 C689 0.950 . S
H664 C690 0.950 . S
H665 C692 0.950 . S
H666 C695 0.950 . S
H667 C696 0.950 . S
H668 C698 0.950 . S
H669 C699 0.950 . S
C670 H652 0.951 . S
C670 C671 1.366 . S
C670 C672 1.388 . S
C671 C670 1.366 . S
C671 C675 1.385 . S
C672 H653 0.951 . S
C672 C670 1.388 . S
C672 C673 1.366 . S
C673 C672 1.366 . S
C673 C674 1.414 . S
C673 C676 1.499 . S
C674 H654 0.950 . S
C674 C673 1.414 . S
C674 C675 1.374 . S
C675 H655 0.950 . S
C675 C671 1.385 . S
C675 C674 1.374 . S
C676 C673 1.499 . S
C676 C677 1.373 . S
C676 C678 1.389 . S
C677 H656 0.950 . S
C677 C676 1.373 . S
C677 C693 1.377 . S
C678 C676 1.389 . S
C678 C679 1.524 . S
C678 C692 1.377 . S
C679 C678 1.524 . S
C679 C680 1.397 . S
C679 C684 1.363 . S
C680 H657 0.950 . S
C680 C679 1.397 . S
C680 C681 1.334 . S
C681 H658 0.950 . S
C681 C680 1.334 . S
C681 C682 1.287 . S
C682 C681 1.287 . S
C682 C683 1.524 . S
C682 H701 0.913 . S
C683 H659 0.950 . S
C683 C682 1.524 . S
C683 C684 1.415 . S
C684 H660 0.950 . S
C684 C679 1.363 . S
C684 C683 1.415 . S
C685 H661 0.951 . S
C685 C686 1.366 . S
C685 C687 1.388 . S
C686 C685 1.366 . S
C686 C690 1.385 . S
C687 H662 0.951 . S
C687 C685 1.388 . S
C687 C688 1.366 . S
C688 C687 1.366 . S
C688 C689 1.414 . S
C688 C691 1.499 . S
C689 H663 0.950 . S
C689 C688 1.414 . S
C689 C690 1.374 . S
C690 H664 0.950 . S
C690 C686 1.385 . S
C690 C689 1.374 . S
C691 C688 1.499 . S
C691 C692 1.373 . S
C691 C693 1.389 . S
C692 H665 0.950 . S
C692 C678 1.377 . S
C692 C691 1.373 . S
C693 C677 1.377 . S
C693 C691 1.389 . S
C693 C694 1.524 . S
C694 C693 1.524 . S
C694 C695 1.397 . S
C694 C699 1.363 . S
C695 H666 0.950 . S
C695 C694 1.397 . S
C695 C696 1.334 . S
C696 H667 0.950 . S
C696 C695 1.334 . S
C696 C697 1.287 . S
C697 C696 1.287 . S
C697 C698 1.524 . S
C697 H700 0.999 . S
C698 H668 0.950 . S
C698 C697 1.524 . S
C698 C699 1.415 . S
C699 H669 0.950 . S
C699 C694 1.363 . S
C699 C698 1.415 . S
H700 C697 0.999 . S
H701 C682 0.913 . S
H702 C720 0.951 . S
H703 C722 0.951 . S
H704 C724 0.950 . S
H705 C725 0.950 . S
H706 C727 0.950 . S
H707 C730 0.950 . S
H708 C731 0.950 . S
H709 C733 0.950 . S
H710 C734 0.950 . S
H711 C735 0.951 . S
H712 C737 0.951 . S
H713 C739 0.950 . S
H714 C740 0.950 . S
H715 C742 0.950 . S
H716 C745 0.950 . S
H717 C746 0.950 . S
H718 C748 0.950 . S
H719 C749 0.950 . S
C720 H702 0.951 . S
C720 C721 1.366 . S
C720 C722 1.388 . S
C721 C720 1.366 . S
C721 C725 1.385 . S
C722 H703 0.951 . S
C722 C720 1.388 . S
C722 C723 1.366 . S
C723 C722 1.366 . S
C723 C724 1.414 . S
C723 C726 1.499 . S
C724 H704 0.950 . S
C724 C723 1.414 . S
C724 C725 1.374 . S
C725 H705 0.950 . S
C725 C721 1.385 . S
C725 C724 1.374 . S
C726 C723 1.499 . S
C726 C727 1.373 . S
C726 C728 1.389 . S
C727 H706 0.950 . S
C727 C726 1.373 . S
C727 C743 1.377 . S
C728 C726 1.389 . S
C728 C729 1.524 . S
C728 C742 1.377 . S
C729 C728 1.524 . S
C729 C730 1.397 . S
C729 C734 1.363 . S
C730 H707 0.950 . S
C730 C729 1.397 . S
C730 C731 1.334 . S
C731 H708 0.950 . S
C731 C730 1.334 . S
C731 C732 1.287 . S
C732 C731 1.287 . S
C732 C733 1.524 . S
C732 H751 0.913 . S
C733 H709 0.950 . S
C733 C732 1.524 . S
C733 C734 1.415 . S
C734 H710 0.950 . S
C734 C729 1.363 . S
C734 C733 1.415 . S
C735 H711 0.951 . S
C735 C736 1.366 . S
C735 C737 1.388 . S
C736 C735 1.366 . S
C736 C740 1.385 . S
C737 H712 0.951 . S
C737 C735 1.388 . S
C737 C738 1.366 . S
C738 C737 1.366 . S
C738 C739 1.414 . S
C738 C741 1.499 . S
C739 H713 0.950 . S
C739 C738 1.414 . S
C739 C740 1.374 . S
C740 H714 0.950 . S
C740 C736 1.385 . S
C740 C739 1.374 . S
C741 C738 1.499 . S
C741 C742 1.373 . S
C741 C743 1.389 . S
C742 H715 0.950 . S
C742 C728 1.377 . S
C742 C741 1.373 . S
C743 C727 1.377 . S
C743 C741 1.389 . S
C743 C744 1.524 . S
C744 C743 1.524 . S
C744 C745 1.397 . S
C744 C749 1.363 . S
C745 H716 0.950 . S
C745 C744 1.397 . S
C745 C746 1.334 . S
C746 H717 0.950 . S
C746 C745 1.334 . S
C746 C747 1.287 . S
C747 C746 1.287 . S
C747 C748 1.524 . S
C747 H750 0.999 . S
C748 H718 0.950 . S
C748 C747 1.524 . S
C748 C749 1.415 . S
C749 H719 0.950 . S
C749 C744 1.363 . S
C749 C748 1.415 . S
H750 C747 0.999 . S
H751 C732 0.913 . S
H752 C770 0.951 . S
H753 C772 0.951 . S
H754 C774 0.950 . S
H755 C775 0.950 . S
H756 C777 0.950 . S
H757 C780 0.950 . S
H758 C781 0.950 . S
H759 C783 0.950 . S
H760 C784 0.950 . S
H761 C785 0.951 . S
H762 C787 0.951 . S
H763 C789 0.950 . S
H764 C790 0.950 . S
H765 C792 0.950 . S
H766 C795 0.950 . S
H767 C796 0.950 . S
H768 C798 0.950 . S
H769 C799 0.950 . S
C770 H752 0.951 . S
C770 C771 1.366 . S
C770 C772 1.388 . S
C771 C770 1.366 . S
C771 C775 1.385 . S
C772 H753 0.951 . S
C772 C770 1.388 . S
C772 C773 1.366 . S
C773 C772 1.366 . S
C773 C774 1.414 . S
C773 C776 1.499 . S
C774 H754 0.950 . S
C774 C773 1.414 . S
C774 C775 1.374 . S
C775 H755 0.950 . S
C775 C771 1.385 . S
C775 C774 1.374 . S
C776 C773 1.499 . S
C776 C777 1.373 . S
C776 C778 1.389 . S
C777 H756 0.950 . S
C777 C776 1.373 . S
C777 C793 1.377 . S
C778 C776 1.389 . S
C778 C779 1.524 . S
C778 C792 1.377 . S
C779 C778 1.524 . S
C779 C780 1.397 . S
C779 C784 1.363 . S
C780 H757 0.950 . S
C780 C779 1.397 . S
C780 C781 1.334 . S
C781 H758 0.950 . S
C781 C780 1.334 . S
C781 C782 1.287 . S
C782 C781 1.287 . S
C782 C783 1.524 . S
C782 H801 0.913 . S
C783 H759 0.950 . S
C783 C782 1.524 . S
C783 C784 1.415 . S
C784 H760 0.950 . S
C784 C779 1.363 . S
C784 C783 1.415 . S
C785 H761 0.951 . S
C785 C786 1.366 . S
C785 C787 1.388 . S
C786 C785 1.366 . S
C786 C790 1.385 . S
C787 H762 0.951 . S
C787 C785 1.388 . S
C787 C788 1.366 . S
C788 C787 1.366 . S
C788 C789 1.414 . S
C788 C791 1.499 . S
C789 H763 0.950 . S
C789 C788 1.414 . S
C789 C790 1.374 . S
C790 H764 0.950 . S
C790 C786 1.385 . S
C790 C789 1.374 . S
C791 C788 1.499 . S
C791 C792 1.373 . S
C791 C793 1.389 . S
C792 H765 0.950 . S
C792 C778 1.377 . S
C792 C791 1.373 . S
C793 C777 1.377 . S
C793 C791 1.389 . S
C793 C794 1.524 . S
C794 C793 1.524 . S
C794 C795 1.397 . S
C794 C799 1.363 . S
C795 H766 0.950 . S
C795 C794 1.397 . S
C795 C796 1.334 . S
C796 H767 0.950 . S
C796 C795 1.334 . S
C796 C797 1.287 . S
C797 C796 1.287 . S
C797 C798 1.524 . S
C797 H800 0.999 . S
C798 H768 0.950 . S
C798 C797 1.524 . S
C798 C799 1.415 . S
C799 H769 0.950 . S
C799 C794 1.363 . S
C799 C798 1.415 . S
H800 C797 0.999 . S
H801 C782 0.913 . S
H802 C820 0.951 . S
H803 C822 0.951 . S
H804 C824 0.950 . S
H805 C825 0.950 . S
H806 C827 0.950 . S
H807 C830 0.950 . S
H808 C831 0.950 . S
H809 C833 0.950 . S
H810 C834 0.950 . S
H811 C835 0.951 . S
H812 C837 0.951 . S
H813 C839 0.950 . S
H814 C840 0.950 . S
H815 C842 0.950 . S
H816 C845 0.950 . S
H817 C846 0.950 . S
H818 C848 0.950 . S
H819 C849 0.950 . S
C820 H802 0.951 . S
C820 C821 1.366 . S
C820 C822 1.388 . S
C821 C820 1.366 . S
C821 C825 1.385 . S
C822 H803 0.951 . S
C822 C820 1.388 . S
C822 C823 1.366 . S
C823 C822 1.366 . S
C823 C824 1.414 . S
C823 C826 1.499 . S
C824 H804 0.950 . S
C824 C823 1.414 . S
C824 C825 1.374 . S
C825 H805 0.950 . S
C825 C821 1.385 . S
C825 C824 1.374 . S
C826 C823 1.499 . S
C826 C827 1.373 . S
C826 C828 1.389 . S
C827 H806 0.950 . S
C827 C826 1.373 . S
C827 C843 1.377 . S
C828 C826 1.389 . S
C828 C829 1.524 . S
C828 C842 1.377 . S
C829 C828 1.524 . S
C829 C830 1.397 . S
C829 C834 1.363 . S
C830 H807 0.950 . S
C830 C829 1.397 . S
C830 C831 1.334 . S
C831 H808 0.950 . S
C831 C830 1.334 . S
C831 C832 1.287 . S
C832 C831 1.287 . S
C832 C833 1.524 . S
C832 H851 0.913 . S
C833 H809 0.950 . S
C833 C832 1.524 . S
C833 C834 1.415 . S
C834 H810 0.950 . S
C834 C829 1.363 . S
C834 C833 1.415 . S
C835 H811 0.951 . S
C835 C836 1.366 . S
C835 C837 1.388 . S
C836 C835 1.366 . S
C836 C840 1.385 . S
C837 H812 0.951 . S
C837 C835 1.388 . S
C837 C838 1.366 . S
C838 C837 1.366 . S
C838 C839 1.414 . S
C838 C841 1.499 . S
C839 H813 0.950 . S
C839 C838 1.414 . S
C839 C840 1.374 . S
C840 H814 0.950 . S
C840 C836 1.385 . S
C840 C839 1.374 . S
C841 C838 1.499 . S
C841 C842 1.373 . S
C841 C843 1.389 . S
C842 H815 0.950 . S
C842 C828 1.377 . S
C842 C841 1.373 . S
C843 C827 1.377 . S
C843 C841 1.389 . S
C843 C844 1.524 . S
C844 C843 1.524 . S
C844 C845 1.397 . S
C844 C849 1.363 . S
C845 H816 0.950 . S
C845 C844 1.397 . S
C845 C846 1.334 . S
C846 H817 0.950 . S
C846 C845 1.334 . S
C846 C847 1.287 . S
C847 C846 1.287 . S
C847 C848 1.524 . S
C847 H850 0.999 . S
C848 H818 0.950 . S
C848 C847 1.524 . S
C848 C849 1.415 . S
C849 H819 0.950 . S
C849 C844 1.363 . S
C849 C848 1.415 . S
H850 C847 0.999 . S
H851 C832 0.913 . S
H852 C870 0.951 . S
H853 C872 0.951 . S
H854 C874 0.950 . S
H855 C875 0.950 . S
H856 C877 0.950 . S
H857 C880 0.950 . S
H858 C881 0.950 . S
H859 C883 0.950 . S
H860 C884 0.950 . S
H861 C885 0.951 . S
H862 C887 0.951 . S
H863 C889 0.950 . S
H864 C890 0.950 . S
H865 C892 0.950 . S
H866 C895 0.950 . S
H867 C896 0.950 . S
H868 C898 0.950 . S
H869 C899 0.950 . S
C870 H852 0.951 . S
C870 C871 1.366 . S
C870 C872 1.388 . S
C871 C870 1.366 . S
C871 C875 1.385 . S
C872 H853 0.951 . S
C872 C870 1.388 . S
C872 C873 1.366 . S
C873 C872 1.366 . S
C873 C874 1.414 . S
C873 C876 1.499 . S
C874 H854 0.950 . S
C874 C873 1.414 . S
C874 C875 1.374 . S
C875 H855 0.950 . S
C875 C871 1.385 . S
C875 C874 1.374 . S
C876 C873 1.499 . S
C876 C877 1.373 . S
C876 C878 1.389 . S
C877 H856 0.950 . S
C877 C876 1.373 . S
C877 C893 1.377 . S
C878 C876 1.389 . S
C878 C879 1.524 . S
C878 C892 1.377 . S
C879 C878 1.524 . S
C879 C880 1.397 . S
C879 C884 1.363 . S
C880 H857 0.950 . S
C880 C879 1.397 . S
C880 C881 1.334 . S
C881 H858 0.950 . S
C881 C880 1.334 . S
C881 C882 1.287 . S
C882 C881 1.287 . S
C882 C883 1.524 . S
C882 H901 0.913 1_545 S
C883 H859 0.950 . S
C883 C882 1.524 . S
C883 C884 1.415 . S
C884 H860 0.950 . S
C884 C879 1.363 . S
C884 C883 1.415 . S
C885 H861 0.951 . S
C885 C886 1.366 . S
C885 C887 1.388 . S
C886 C885 1.366 . S
C886 C890 1.385 . S
C887 H862 0.951 . S
C887 C885 1.388 . S
C887 C888 1.366 . S
C888 C887 1.366 . S
C888 C889 1.414 . S
C888 C891 1.499 . S
C889 H863 0.950 . S
C889 C888 1.414 . S
C889 C890 1.374 . S
C890 H864 0.950 . S
C890 C886 1.385 . S
C890 C889 1.374 . S
C891 C888 1.499 . S
C891 C892 1.373 . S
C891 C893 1.389 . S
C892 H865 0.950 . S
C892 C878 1.377 . S
C892 C891 1.373 . S
C893 C877 1.377 . S
C893 C891 1.389 . S
C893 C894 1.524 . S
C894 C893 1.524 . S
C894 C895 1.397 . S
C894 C899 1.363 . S
C895 H866 0.950 . S
C895 C894 1.397 . S
C895 C896 1.334 . S
C896 H867 0.950 . S
C896 C895 1.334 . S
C896 C897 1.287 . S
C897 C896 1.287 . S
C897 C898 1.524 . S
C897 H900 0.999 . S
C898 H868 0.950 . S
C898 C897 1.524 . S
C898 C899 1.415 . S
C899 H869 0.950 . S
C899 C894 1.363 . S
C899 C898 1.415 . S
H900 C897 0.999 . S
H901 C882 0.913 1_565 S
H902 C920 0.951 . S
H903 C922 0.951 . S
H904 C924 0.950 . S
H905 C925 0.950 . S
H906 C927 0.950 . S
H907 C930 0.950 . S
H908 C931 0.950 . S
H909 C933 0.950 . S
H910 C934 0.950 . S
H911 C935 0.951 . S
H912 C937 0.951 . S
H913 C939 0.950 . S
H914 C940 0.950 . S
H915 C942 0.950 . S
H916 C945 0.950 . S
H917 C946 0.950 . S
H918 C948 0.950 . S
H919 C949 0.950 . S
C920 H902 0.951 . S
C920 C921 1.366 . S
C920 C922 1.388 . S
C921 C920 1.366 . S
C921 C925 1.385 . S
C922 H903 0.951 . S
C922 C920 1.388 . S
C922 C923 1.366 . S
C923 C922 1.366 . S
C923 C924 1.414 . S
C923 C926 1.499 . S
C924 H904 0.950 . S
C924 C923 1.414 . S
C924 C925 1.374 . S
C925 H905 0.950 . S
C925 C921 1.385 . S
C925 C924 1.374 . S
C926 C923 1.499 . S
C926 C927 1.373 . S
C926 C928 1.389 . S
C927 H906 0.950 . S
C927 C926 1.373 . S
C927 C943 1.377 . S
C928 C926 1.389 . S
C928 C929 1.524 . S
C928 C942 1.377 . S
C929 C928 1.524 . S
C929 C930 1.397 . S
C929 C934 1.363 . S
C930 H907 0.950 . S
C930 C929 1.397 . S
C930 C931 1.334 . S
C931 H908 0.950 . S
C931 C930 1.334 . S
C931 C932 1.287 . S
C932 C931 1.287 . S
C932 C933 1.524 . S
C932 H951 0.913 . S
C933 H909 0.950 . S
C933 C932 1.524 . S
C933 C934 1.415 . S
C934 H910 0.950 . S
C934 C929 1.363 . S
C934 C933 1.415 . S
C935 H911 0.951 . S
C935 C936 1.366 . S
C935 C937 1.388 . S
C936 C935 1.366 . S
C936 C940 1.385 . S
C937 H912 0.951 . S
C937 C935 1.388 . S
C937 C938 1.366 . S
C938 C937 1.366 . S
C938 C939 1.414 . S
C938 C941 1.499 . S
C939 H913 0.950 . S
C939 C938 1.414 . S
C939 C940 1.374 . S
C940 H914 0.950 . S
C940 C936 1.385 . S
C940 C939 1.374 . S
C941 C938 1.499 . S
C941 C942 1.373 . S
C941 C943 1.389 . S
C942 H915 0.950 . S
C942 C928 1.377 . S
C942 C941 1.373 . S
C943 C927 1.377 . S
C943 C941 1.389 . S
C943 C944 1.524 . S
C944 C943 1.524 . S
C944 C945 1.397 . S
C944 C949 1.363 . S
C945 H916 0.950 . S
C945 C944 1.397 . S
C945 C946 1.334 . S
C946 H917 0.950 . S
C946 C945 1.334 . S
C946 C947 1.287 . S
C947 C946 1.287 . S
C947 C948 1.524 . S
C947 H950 0.999 . S
C948 H918 0.950 . S
C948 C947 1.524 . S
C948 C949 1.415 . S
C949 H919 0.950 . S
C949 C944 1.363 . S
C949 C948 1.415 . S
H950 C947 0.999 . S
H951 C932 0.913 . S
H952 C970 0.951 . S
H953 C972 0.951 . S
H954 C974 0.950 . S
H955 C975 0.950 . S
H956 C977 0.950 . S
H957 C980 0.950 . S
H958 C981 0.950 . S
H959 C983 0.950 . S
H960 C984 0.950 . S
H961 C985 0.951 . S
H962 C987 0.951 . S
H963 C989 0.950 . S
H964 C990 0.950 . S
H965 C992 0.950 . S
H966 C995 0.950 . S
H967 C996 0.950 . S
H968 C998 0.950 . S
H969 C999 0.950 . S
C970 H952 0.951 . S
C970 C971 1.366 . S
C970 C972 1.388 . S
C971 C970 1.366 . S
C971 C975 1.385 . S
C972 H953 0.951 . S
C972 C970 1.388 . S
C972 C973 1.366 . S
C973 C972 1.366 . S
C973 C974 1.414 . S
C973 C976 1.499 . S
C974 H954 0.950 . S
C974 C973 1.414 . S
C974 C975 1.374 . S
C975 H955 0.950 . S
C975 C971 1.385 . S
C975 C974 1.374 . S
C976 C973 1.499 . S
C976 C977 1.373 . S
C976 C978 1.389 . S
C977 H956 0.950 . S
C977 C976 1.373 . S
C977 C993 1.377 . S
C978 C976 1.389 . S
C978 C979 1.524 . S
C978 C992 1.377 . S
C979 C978 1.524 . S
C979 C980 1.397 . S
C979 C984 1.363 . S
C980 H957 0.950 . S
C980 C979 1.397 . S
C980 C981 1.334 . S
C981 H958 0.950 . S
C981 C980 1.334 . S
C981 C982 1.287 . S
C982 C981 1.287 . S
C982 C983 1.524 . S
C982 H1001 0.913 . S
C983 H959 0.950 . S
C983 C982 1.524 . S
C983 C984 1.415 . S
C984 H960 0.950 . S
C984 C979 1.363 . S
C984 C983 1.415 . S
C985 H961 0.951 . S
C985 C986 1.366 . S
C985 C987 1.388 . S
C986 C985 1.366 . S
C986 C990 1.385 . S
C987 H962 0.951 . S
C987 C985 1.388 . S
C987 C988 1.366 . S
C988 C987 1.366 . S
C988 C989 1.414 . S
C988 C991 1.499 . S
C989 H963 0.950 . S
C989 C988 1.414 . S
C989 C990 1.374 . S
C990 H964 0.950 . S
C990 C986 1.385 . S
C990 C989 1.374 . S
C991 C988 1.499 . S
C991 C992 1.373 . S
C991 C993 1.389 . S
C992 H965 0.950 . S
C992 C978 1.377 . S
C992 C991 1.373 . S
C993 C977 1.377 . S
C993 C991 1.389 . S
C993 C994 1.524 . S
C994 C993 1.524 . S
C994 C995 1.397 . S
C994 C999 1.363 . S
C995 H966 0.950 . S
C995 C994 1.397 . S
C995 C996 1.334 . S
C996 H967 0.950 . S
C996 C995 1.334 . S
C996 C997 1.287 . S
C997 C996 1.287 . S
C997 C998 1.524 . S
C997 H1000 0.999 . S
C998 H968 0.950 . S
C998 C997 1.524 . S
C998 C999 1.415 . S
C999 H969 0.950 . S
C999 C994 1.363 . S
C999 C998 1.415 . S
H1000 C997 0.999 . S
H1001 C982 0.913 . S
H1002 C1020 0.951 . S
H1003 C1022 0.951 . S
H1004 C1024 0.950 . S
H1005 C1025 0.950 . S
H1006 C1027 0.950 . S
H1007 C1030 0.950 . S
H1008 C1031 0.950 . S
H1009 C1033 0.950 . S
H1010 C1034 0.950 . S
H1011 C1035 0.951 . S
H1012 C1037 0.951 . S
H1013 C1039 0.950 . S
H1014 C1040 0.950 . S
H1015 C1042 0.950 . S
H1016 C1045 0.950 . S
H1017 C1046 0.950 . S
H1018 C1048 0.950 . S
H1019 C1049 0.950 . S
C1020 H1002 0.951 . S
C1020 C1021 1.366 . S
C1020 C1022 1.388 . S
C1021 C1020 1.366 . S
C1021 C1025 1.385 . S
C1022 H1003 0.951 . S
C1022 C1020 1.388 . S
C1022 C1023 1.366 . S
C1023 C1022 1.366 . S
C1023 C1024 1.414 . S
C1023 C1026 1.499 . S
C1024 H1004 0.950 . S
C1024 C1023 1.414 . S
C1024 C1025 1.374 . S
C1025 H1005 0.950 . S
C1025 C1021 1.385 . S
C1025 C1024 1.374 . S
C1026 C1023 1.499 . S
C1026 C1027 1.373 . S
C1026 C1028 1.389 . S
C1027 H1006 0.950 . S
C1027 C1026 1.373 . S
C1027 C1043 1.377 . S
C1028 C1026 1.389 . S
C1028 C1029 1.524 . S
C1028 C1042 1.377 . S
C1029 C1028 1.524 . S
C1029 C1030 1.397 . S
C1029 C1034 1.363 . S
C1030 H1007 0.950 . S
C1030 C1029 1.397 . S
C1030 C1031 1.334 . S
C1031 H1008 0.950 . S
C1031 C1030 1.334 . S
C1031 C1032 1.287 . S
C1032 C1031 1.287 . S
C1032 C1033 1.524 . S
C1032 H1051 0.913 . S
C1033 H1009 0.950 . S
C1033 C1032 1.524 . S
C1033 C1034 1.415 . S
C1034 H1010 0.950 . S
C1034 C1029 1.363 . S
C1034 C1033 1.415 . S
C1035 H1011 0.951 . S
C1035 C1036 1.366 . S
C1035 C1037 1.388 . S
C1036 C1035 1.366 . S
C1036 C1040 1.385 . S
C1037 H1012 0.951 . S
C1037 C1035 1.388 . S
C1037 C1038 1.366 . S
C1038 C1037 1.366 . S
C1038 C1039 1.414 . S
C1038 C1041 1.499 . S
C1039 H1013 0.950 . S
C1039 C1038 1.414 . S
C1039 C1040 1.374 . S
C1040 H1014 0.950 . S
C1040 C1036 1.385 . S
C1040 C1039 1.374 . S
C1041 C1038 1.499 . S
C1041 C1042 1.373 . S
C1041 C1043 1.389 . S
C1042 H1015 0.950 . S
C1042 C1028 1.377 . S
C1042 C1041 1.373 . S
C1043 C1027 1.377 . S
C1043 C1041 1.389 . S
C1043 C1044 1.524 . S
C1044 C1043 1.524 . S
C1044 C1045 1.397 . S
C1044 C1049 1.363 . S
C1045 H1016 0.950 . S
C1045 C1044 1.397 . S
C1045 C1046 1.334 . S
C1046 H1017 0.950 . S
C1046 C1045 1.334 . S
C1046 C1047 1.287 . S
C1047 C1046 1.287 . S
C1047 C1048 1.524 . S
C1047 H1050 0.999 . S
C1048 H1018 0.950 . S
C1048 C1047 1.524 . S
C1048 C1049 1.415 . S
C1049 H1019 0.950 . S
C1049 C1044 1.363 . S
C1049 C1048 1.415 . S
H1050 C1047 0.999 . S
H1051 C1032 0.913 . S
H1052 C1070 0.951 . S
H1053 C1072 0.951 . S
H1054 C1074 0.950 . S
H1055 C1075 0.950 . S
H1056 C1077 0.950 . S
H1057 C1080 0.950 . S
H1058 C1081 0.950 . S
H1059 C1083 0.950 . S
H1060 C1084 0.950 . S
H1061 C1085 0.951 . S
H1062 C1087 0.951 . S
H1063 C1089 0.950 . S
H1064 C1090 0.950 . S
H1065 C1092 0.950 . S
H1066 C1095 0.950 . S
H1067 C1096 0.950 . S
H1068 C1098 0.950 . S
H1069 C1099 0.950 . S
C1070 H1052 0.951 . S
C1070 C1071 1.366 . S
C1070 C1072 1.388 . S
C1071 C1070 1.366 . S
C1071 C1075 1.385 . S
C1072 H1053 0.951 . S
C1072 C1070 1.388 . S
C1072 C1073 1.366 . S
C1073 C1072 1.366 . S
C1073 C1074 1.414 . S
C1073 C1076 1.499 . S
C1074 H1054 0.950 . S
C1074 C1073 1.414 . S
C1074 C1075 1.374 . S
C1075 H1055 0.950 . S
C1075 C1071 1.385 . S
C1075 C1074 1.374 . S
C1076 C1073 1.499 . S
C1076 C1077 1.373 . S
C1076 C1078 1.389 . S
C1077 H1056 0.950 . S
C1077 C1076 1.373 . S
C1077 C1093 1.377 . S
C1078 C1076 1.389 . S
C1078 C1079 1.524 . S
C1078 C1092 1.377 . S
C1079 C1078 1.524 . S
C1079 C1080 1.397 . S
C1079 C1084 1.363 . S
C1080 H1057 0.950 . S
C1080 C1079 1.397 . S
C1080 C1081 1.334 . S
C1081 H1058 0.950 . S
C1081 C1080 1.334 . S
C1081 C1082 1.287 . S
C1082 C1081 1.287 . S
C1082 C1083 1.524 . S
C1082 H1101 0.913 . S
C1083 H1059 0.950 . S
C1083 C1082 1.524 . S
C1083 C1084 1.415 . S
C1084 H1060 0.950 . S
C1084 C1079 1.363 . S
C1084 C1083 1.415 . S
C1085 H1061 0.951 . S
C1085 C1086 1.366 . S
C1085 C1087 1.388 . S
C1086 C1085 1.366 . S
C1086 C1090 1.385 . S
C1087 H1062 0.951 . S
C1087 C1085 1.388 . S
C1087 C1088 1.366 . S
C1088 C1087 1.366 . S
C1088 C1089 1.414 . S
C1088 C1091 1.499 . S
C1089 H1063 0.950 . S
C1089 C1088 1.414 . S
C1089 C1090 1.374 . S
C1090 H1064 0.950 . S
C1090 C1086 1.385 . S
C1090 C1089 1.374 . S
C1091 C1088 1.499 . S
C1091 C1092 1.373 . S
C1091 C1093 1.389 . S
C1092 H1065 0.950 . S
C1092 C1078 1.377 . S
C1092 C1091 1.373 . S
C1093 C1077 1.377 . S
C1093 C1091 1.389 . S
C1093 C1094 1.524 . S
C1094 C1093 1.524 . S
C1094 C1095 1.397 . S
C1094 C1099 1.363 . S
C1095 H1066 0.950 . S
C1095 C1094 1.397 . S
C1095 C1096 1.334 . S
C1096 H1067 0.950 . S
C1096 C1095 1.334 . S
C1096 C1097 1.287 . S
C1097 C1096 1.287 . S
C1097 C1098 1.524 . S
C1097 H1100 0.999 . S
C1098 H1068 0.950 . S
C1098 C1097 1.524 . S
C1098 C1099 1.415 . S
C1099 H1069 0.950 . S
C1099 C1094 1.363 . S
C1099 C1098 1.415 . S
H1100 C1097 0.999 . S
H1101 C1082 0.913 . S
H1102 C1120 0.951 . S
H1103 C1122 0.951 . S
H1104 C1124 0.950 . S
H1105 C1125 0.950 . S
H1106 C1127 0.950 . S
H1107 C1130 0.950 . S
H1108 C1131 0.950 . S
H1109 C1133 0.950 . S
H1110 C1134 0.950 . S
H1111 C1135 0.951 . S
H1112 C1137 0.951 . S
H1113 C1139 0.950 . S
H1114 C1140 0.950 . S
H1115 C1142 0.950 . S
H1116 C1145 0.950 . S
H1117 C1146 0.950 . S
H1118 C1148 0.950 . S
H1119 C1149 0.950 . S
C1120 H1102 0.951 . S
C1120 C1121 1.366 . S
C1120 C1122 1.388 . S
C1121 C1120 1.366 . S
C1121 C1125 1.385 . S
C1122 H1103 0.951 . S
C1122 C1120 1.388 . S
C1122 C1123 1.366 . S
C1123 C1122 1.366 . S
C1123 C1124 1.414 . S
C1123 C1126 1.499 . S
C1124 H1104 0.950 . S
C1124 C1123 1.414 . S
C1124 C1125 1.374 . S
C1125 H1105 0.950 . S
C1125 C1121 1.385 . S
C1125 C1124 1.374 . S
C1126 C1123 1.499 . S
C1126 C1127 1.373 . S
C1126 C1128 1.389 . S
C1127 H1106 0.950 . S
C1127 C1126 1.373 . S
C1127 C1143 1.377 . S
C1128 C1126 1.389 . S
C1128 C1129 1.524 . S
C1128 C1142 1.377 . S
C1129 C1128 1.524 . S
C1129 C1130 1.397 . S
C1129 C1134 1.363 . S
C1130 H1107 0.950 . S
C1130 C1129 1.397 . S
C1130 C1131 1.334 . S
C1131 H1108 0.950 . S
C1131 C1130 1.334 . S
C1131 C1132 1.287 . S
C1132 C1131 1.287 . S
C1132 C1133 1.524 . S
C1132 H1151 0.913 . S
C1133 H1109 0.950 . S
C1133 C1132 1.524 . S
C1133 C1134 1.415 . S
C1134 H1110 0.950 . S
C1134 C1129 1.363 . S
C1134 C1133 1.415 . S
C1135 H1111 0.951 . S
C1135 C1136 1.366 . S
C1135 C1137 1.388 . S
C1136 C1135 1.366 . S
C1136 C1140 1.385 . S
C1137 H1112 0.951 . S
C1137 C1135 1.388 . S
C1137 C1138 1.366 . S
C1138 C1137 1.366 . S
C1138 C1139 1.414 . S
C1138 C1141 1.499 . S
C1139 H1113 0.950 . S
C1139 C1138 1.414 . S
C1139 C1140 1.374 . S
C1140 H1114 0.950 . S
C1140 C1136 1.385 . S
C1140 C1139 1.374 . S
C1141 C1138 1.499 . S
C1141 C1142 1.373 . S
C1141 C1143 1.389 . S
C1142 H1115 0.950 . S
C1142 C1128 1.377 . S
C1142 C1141 1.373 . S
C1143 C1127 1.377 . S
C1143 C1141 1.389 . S
C1143 C1144 1.524 . S
C1144 C1143 1.524 . S
C1144 C1145 1.397 . S
C1144 C1149 1.363 . S
C1145 H1116 0.950 . S
C1145 C1144 1.397 . S
C1145 C1146 1.334 . S
C1146 H1117 0.950 . S
C1146 C1145 1.334 . S
C1146 C1147 1.287 . S
C1147 C1146 1.287 . S
C1147 C1148 1.524 . S
C1147 H1150 0.999 . S
C1148 H1118 0.950 . S
C1148 C1147 1.524 . S
C1148 C1149 1.415 . S
C1149 H1119 0.950 . S
C1149 C1144 1.363 . S
C1149 C1148 1.415 . S
H1150 C1147 0.999 . S
H1151 C1132 0.913 . S
H1152 C1170 0.951 . S
H1153 C1172 0.951 . S
H1154 C1174 0.950 . S
H1155 C1175 0.950 . S
H1156 C1177 0.950 . S
H1157 C1180 0.950 . S
H1158 C1181 0.950 . S
H1159 C1183 0.950 . S
H1160 C1184 0.950 . S
H1161 C1185 0.951 . S
H1162 C1187 0.951 . S
H1163 C1189 0.950 . S
H1164 C1190 0.950 . S
H1165 C1192 0.950 . S
H1166 C1195 0.950 . S
H1167 C1196 0.950 . S
H1168 C1198 0.950 . S
H1169 C1199 0.950 . S
C1170 H1152 0.951 . S
C1170 C1171 1.366 . S
C1170 C1172 1.388 . S
C1171 C1170 1.366 . S
C1171 C1175 1.385 . S
C1172 H1153 0.951 . S
C1172 C1170 1.388 . S
C1172 C1173 1.366 . S
C1173 C1172 1.366 . S
C1173 C1174 1.414 . S
C1173 C1176 1.499 . S
C1174 H1154 0.950 . S
C1174 C1173 1.414 . S
C1174 C1175 1.374 . S
C1175 H1155 0.950 . S
C1175 C1171 1.385 . S
C1175 C1174 1.374 . S
C1176 C1173 1.499 . S
C1176 C1177 1.373 . S
C1176 C1178 1.389 . S
C1177 H1156 0.950 . S
C1177 C1176 1.373 . S
C1177 C1193 1.377 . S
C1178 C1176 1.389 . S
C1178 C1179 1.524 . S
C1178 C1192 1.377 . S
C1179 C1178 1.524 . S
C1179 C1180 1.397 . S
C1179 C1184 1.363 . S
C1180 H1157 0.950 . S
C1180 C1179 1.397 . S
C1180 C1181 1.334 . S
C1181 H1158 0.950 . S
C1181 C1180 1.334 . S
C1181 C1182 1.287 . S
C1182 C1181 1.287 . S
C1182 C1183 1.524 . S
C1182 H1201 0.913 1_455 S
C1183 H1159 0.950 . S
C1183 C1182 1.524 . S
C1183 C1184 1.415 . S
C1184 H1160 0.950 . S
C1184 C1179 1.363 . S
C1184 C1183 1.415 . S
C1185 H1161 0.951 . S
C1185 C1186 1.366 . S
C1185 C1187 1.388 . S
C1186 C1185 1.366 . S
C1186 C1190 1.385 . S
C1187 H1162 0.951 . S
C1187 C1185 1.388 . S
C1187 C1188 1.366 . S
C1188 C1187 1.366 . S
C1188 C1189 1.414 . S
C1188 C1191 1.499 . S
C1189 H1163 0.950 . S
C1189 C1188 1.414 . S
C1189 C1190 1.374 . S
C1190 H1164 0.950 . S
C1190 C1186 1.385 . S
C1190 C1189 1.374 . S
C1191 C1188 1.499 . S
C1191 C1192 1.373 . S
C1191 C1193 1.389 . S
C1192 H1165 0.950 . S
C1192 C1178 1.377 . S
C1192 C1191 1.373 . S
C1193 C1177 1.377 . S
C1193 C1191 1.389 . S
C1193 C1194 1.524 . S
C1194 C1193 1.524 . S
C1194 C1195 1.397 . S
C1194 C1199 1.363 . S
C1195 H1166 0.950 . S
C1195 C1194 1.397 . S
C1195 C1196 1.334 . S
C1196 H1167 0.950 . S
C1196 C1195 1.334 . S
C1196 C1197 1.287 . S
C1197 C1196 1.287 . S
C1197 C1198 1.524 . S
C1197 H1200 0.999 . S
C1198 H1168 0.950 . S
C1198 C1197 1.524 . S
C1198 C1199 1.415 . S
C1199 H1169 0.950 . S
C1199 C1194 1.363 . S
C1199 C1198 1.415 . S
H1200 C1197 0.999 . S
H1201 C1182 0.913 1_655 S
H1202 C1220 0.951 . S
H1203 C1222 0.951 . S
H1204 C1224 0.950 . S
H1205 C1225 0.950 . S
H1206 C1227 0.950 . S
H1207 C1230 0.950 . S
H1208 C1231 0.950 . S
H1209 C1233 0.950 . S
H1210 C1234 0.950 . S
H1211 C1235 0.951 . S
H1212 C1237 0.951 . S
H1213 C1239 0.950 . S
H1214 C1240 0.950 . S
H1215 C1242 0.950 . S
H1216 C1245 0.950 . S
H1217 C1246 0.950 . S
H1218 C1248 0.950 . S
H1219 C1249 0.950 . S
C1220 H1202 0.951 . S
C1220 C1221 1.366 . S
C1220 C1222 1.388 . S
C1221 C1220 1.366 . S
C1221 C1225 1.385 . S
C1222 H1203 0.951 . S
C1222 C1220 1.388 . S
C1222 C1223 1.366 . S
C1223 C1222 1.366 . S
C1223 C1224 1.414 . S
C1223 C1226 1.499 . S
C1224 H1204 0.950 . S
C1224 C1223 1.414 . S
C1224 C1225 1.374 . S
C1225 H1205 0.950 . S
C1225 C1221 1.385 . S
C1225 C1224 1.374 . S
C1226 C1223 1.499 . S
C1226 C1227 1.373 . S
C1226 C1228 1.389 . S
C1227 H1206 0.950 . S
C1227 C1226 1.373 . S
C1227 C1243 1.377 . S
C1228 C1226 1.389 . S
C1228 C1229 1.524 . S
C1228 C1242 1.377 . S
C1229 C1228 1.524 . S
C1229 C1230 1.397 . S
C1229 C1234 1.363 . S
C1230 H1207 0.950 . S
C1230 C1229 1.397 . S
C1230 C1231 1.334 . S
C1231 H1208 0.950 . S
C1231 C1230 1.334 . S
C1231 C1232 1.287 . S
C1232 C1231 1.287 . S
C1232 C1233 1.524 . S
C1232 H1251 0.913 . S
C1233 H1209 0.950 . S
C1233 C1232 1.524 . S
C1233 C1234 1.415 . S
C1234 H1210 0.950 . S
C1234 C1229 1.363 . S
C1234 C1233 1.415 . S
C1235 H1211 0.951 . S
C1235 C1236 1.366 . S
C1235 C1237 1.388 . S
C1236 C1235 1.366 . S
C1236 C1240 1.385 . S
C1237 H1212 0.951 . S
C1237 C1235 1.388 . S
C1237 C1238 1.366 . S
C1238 C1237 1.366 . S
C1238 C1239 1.414 . S
C1238 C1241 1.499 . S
C1239 H1213 0.950 . S
C1239 C1238 1.414 . S
C1239 C1240 1.374 . S
C1240 H1214 0.950 . S
C1240 C1236 1.385 . S
C1240 C1239 1.374 . S
C1241 C1238 1.499 . S
C1241 C1242 1.373 . S
C1241 C1243 1.389 . S
C1242 H1215 0.950 . S
C1242 C1228 1.377 . S
C1242 C1241 1.373 . S
C1243 C1227 1.377 . S
C1243 C1241 1.389 . S
C1243 C1244 1.524 . S
C1244 C1243 1.524 . S
C1244 C1245 1.397 . S
C1244 C1249 1.363 . S
C1245 H1216 0.950 . S
C1245 C1244 1.397 . S
C1245 C1246 1.334 . S
C1246 H1217 0.950 . S
C1246 C1245 1.334 . S
C1246 C1247 1.287 . S
C1247 C1246 1.287 . S
C1247 C1248 1.524 . S
C1247 H1250 0.999 . S
C1248 H1218 0.950 . S
C1248 C1247 1.524 . S
C1248 C1249 1.415 . S
C1249 H1219 0.950 . S
C1249 C1244 1.363 . S
C1249 C1248 1.415 . S
H1250 C1247 0.999 . S
H1251 C1232 0.913 . S
H1252 C1270 0.951 . S
H1253 C1272 0.951 . S
H1254 C1274 0.950 . S
H1255 C1275 0.950 . S
H1256 C1277 0.950 . S
H1257 C1280 0.950 . S
H1258 C1281 0.950 . S
H1259 C1283 0.950 . S
H1260 C1284 0.950 . S
H1261 C1285 0.951 . S
H1262 C1287 0.951 . S
H1263 C1289 0.950 . S
H1264 C1290 0.950 . S
H1265 C1292 0.950 . S
H1266 C1295 0.950 . S
H1267 C1296 0.950 . S
H1268 C1298 0.950 . S
H1269 C1299 0.950 . S
C1270 H1252 0.951 . S
C1270 C1271 1.366 . S
C1270 C1272 1.388 . S
C1271 C1270 1.366 . S
C1271 C1275 1.385 . S
C1272 H1253 0.951 . S
C1272 C1270 1.388 . S
C1272 C1273 1.366 . S
C1273 C1272 1.366 . S
C1273 C1274 1.414 . S
C1273 C1276 1.499 . S
C1274 H1254 0.950 . S
C1274 C1273 1.414 . S
C1274 C1275 1.374 . S
C1275 H1255 0.950 . S
C1275 C1271 1.385 . S
C1275 C1274 1.374 . S
C1276 C1273 1.499 . S
C1276 C1277 1.373 . S
C1276 C1278 1.389 . S
C1277 H1256 0.950 . S
C1277 C1276 1.373 . S
C1277 C1293 1.377 . S
C1278 C1276 1.389 . S
C1278 C1279 1.524 . S
C1278 C1292 1.377 . S
C1279 C1278 1.524 . S
C1279 C1280 1.397 . S
C1279 C1284 1.363 . S
C1280 H1257 0.950 . S
C1280 C1279 1.397 . S
C1280 C1281 1.334 . S
C1281 H1258 0.950 . S
C1281 C1280 1.334 . S
C1281 C1282 1.287 . S
C1282 C1281 1.287 . S
C1282 C1283 1.524 . S
C1282 H1301 0.913 . S
C1283 H1259 0.950 . S
C1283 C1282 1.524 . S
C1283 C1284 1.415 . S
C1284 H1260 0.950 . S
C1284 C1279 1.363 . S
C1284 C1283 1.415 . S
C1285 H1261 0.951 . S
C1285 C1286 1.366 . S
C1285 C1287 1.388 . S
C1286 C1285 1.366 . S
C1286 C1290 1.385 . S
C1287 H1262 0.951 . S
C1287 C1285 1.388 . S
C1287 C1288 1.366 . S
C1288 C1287 1.366 . S
C1288 C1289 1.414 . S
C1288 C1291 1.499 . S
C1289 H1263 0.950 . S
C1289 C1288 1.414 . S
C1289 C1290 1.374 . S
C1290 H1264 0.950 . S
C1290 C1286 1.385 . S
C1290 C1289 1.374 . S
C1291 C1288 1.499 . S
C1291 C1292 1.373 . S
C1291 C1293 1.389 . S
C1292 H1265 0.950 . S
C1292 C1278 1.377 . S
C1292 C1291 1.373 . S
C1293 C1277 1.377 . S
C1293 C1291 1.389 . S
C1293 C1294 1.524 . S
C1294 C1293 1.524 . S
C1294 C1295 1.397 . S
C1294 C1299 1.363 . S
C1295 H1266 0.950 . S
C1295 C1294 1.397 . S
C1295 C1296 1.334 . S
C1296 H1267 0.950 . S
C1296 C1295 1.334 . S
C1296 C1297 1.287 . S
C1297 C1296 1.287 . S
C1297 C1298 1.524 . S
C1297 H1300 0.999 . S
C1298 H1268 0.950 . S
C1298 C1297 1.524 . S
C1298 C1299 1.415 . S
C1299 H1269 0.950 . S
C1299 C1294 1.363 . S
C1299 C1298 1.415 . S
H1300 C1297 0.999 . S
H1301 C1282 0.913 . S
H1302 C1320 0.951 . S
H1303 C1322 0.951 . S
H1304 C1324 0.950 . S
H1305 C1325 0.950 . S
H1306 C1327 0.950 . S
H1307 C1330 0.950 . S
H1308 C1331 0.950 . S
H1309 C1333 0.950 . S
H1310 C1334 0.950 . S
H1311 C1335 0.951 . S
H1312 C1337 0.951 . S
H1313 C1339 0.950 . S
H1314 C1340 0.950 . S
H1315 C1342 0.950 . S
H1316 C1345 0.950 . S
H1317 C1346 0.950 . S
H1318 C1348 0.950 . S
H1319 C1349 0.950 . S
C1320 H1302 0.951 . S
C1320 C1321 1.366 . S
C1320 C1322 1.388 . S
C1321 C1320 1.366 . S
C1321 C1325 1.385 . S
C1322 H1303 0.951 . S
C1322 C1320 1.388 . S
C1322 C1323 1.366 . S
C1323 C1322 1.366 . S
C1323 C1324 1.414 . S
C1323 C1326 1.499 . S
C1324 H1304 0.950 . S
C1324 C1323 1.414 . S
C1324 C1325 1.374 . S
C1325 H1305 0.950 . S
C1325 C1321 1.385 . S
C1325 C1324 1.374 . S
C1326 C1323 1.499 . S
C1326 C1327 1.373 . S
C1326 C1328 1.389 . S
C1327 H1306 0.950 . S
C1327 C1326 1.373 . S
C1327 C1343 1.377 . S
C1328 C1326 1.389 . S
C1328 C1329 1.524 . S
C1328 C1342 1.377 . S
C1329 C1328 1.524 . S
C1329 C1330 1.397 . S
C1329 C1334 1.363 . S
C1330 H1307 0.950 . S
C1330 C1329 1.397 . S
C1330 C1331 1.334 . S
C1331 H1308 0.950 . S
C1331 C1330 1.334 . S
C1331 C1332 1.287 . S
C1332 C1331 1.287 . S
C1332 C1333 1.524 . S
C1332 H1351 0.913 . S
C1333 H1309 0.950 . S
C1333 C1332 1.524 . S
C1333 C1334 1.415 . S
C1334 H1310 0.950 . S
C1334 C1329 1.363 . S
C1334 C1333 1.415 . S
C1335 H1311 0.951 . S
C1335 C1336 1.366 . S
C1335 C1337 1.388 . S
C1336 C1335 1.366 . S
C1336 C1340 1.385 . S
C1337 H1312 0.951 . S
C1337 C1335 1.388 . S
C1337 C1338 1.366 . S
C1338 C1337 1.366 . S
C1338 C1339 1.414 . S
C1338 C1341 1.499 . S
C1339 H1313 0.950 . S
C1339 C1338 1.414 . S
C1339 C1340 1.374 . S
C1340 H1314 0.950 . S
C1340 C1336 1.385 . S
C1340 C1339 1.374 . S
C1341 C1338 1.499 . S
C1341 C1342 1.373 . S
C1341 C1343 1.389 . S
C1342 H1315 0.950 . S
C1342 C1328 1.377 . S
C1342 C1341 1.373 . S
C1343 C1327 1.377 . S
C1343 C1341 1.389 . S
C1343 C1344 1.524 . S
C1344 C1343 1.524 . S
C1344 C1345 1.397 . S
C1344 C1349 1.363 . S
C1345 H1316 0.950 . S
C1345 C1344 1.397 . S
C1345 C1346 1.334 . S
C1346 H1317 0.950 . S
C1346 C1345 1.334 . S
C1346 C1347 1.287 . S
C1347 C1346 1.287 . S
C1347 C1348 1.524 . S
C1347 H1350 0.999 . S
C1348 H1318 0.950 . S
C1348 C1347 1.524 . S
C1348 C1349 1.415 . S
C1349 H1319 0.950 . S
C1349 C1344 1.363 . S
C1349 C1348 1.415 . S
H1350 C1347 0.999 . S
H1351 C1332 0.913 . S
H1352 C1370 0.951 . S
H1353 C1372 0.951 . S
H1354 C1374 0.950 . S
H1355 C1375 0.950 . S
H1356 C1377 0.950 . S
H1357 C1380 0.950 . S
H1358 C1381 0.950 . S
H1359 C1383 0.950 . S
H1360 C1384 0.950 . S
H1361 C1385 0.951 . S
H1362 C1387 0.951 . S
H1363 C1389 0.950 . S
H1364 C1390 0.950 . S
H1365 C1392 0.950 . S
H1366 C1395 0.950 . S
H1367 C1396 0.950 . S
H1368 C1398 0.950 . S
H1369 C1399 0.950 . S
C1370 H1352 0.951 . S
C1370 C1371 1.366 . S
C1370 C1372 1.388 . S
C1371 C1370 1.366 . S
C1371 C1375 1.385 . S
C1372 H1353 0.951 . S
C1372 C1370 1.388 . S
C1372 C1373 1.366 . S
C1373 C1372 1.366 . S
C1373 C1374 1.414 . S
C1373 C1376 1.499 . S
C1374 H1354 0.950 . S
C1374 C1373 1.414 . S
C1374 C1375 1.374 . S
C1375 H1355 0.950 . S
C1375 C1371 1.385 . S
C1375 C1374 1.374 . S
C1376 C1373 1.499 . S
C1376 C1377 1.373 . S
C1376 C1378 1.389 . S
C1377 H1356 0.950 . S
C1377 C1376 1.373 . S
C1377 C1393 1.377 . S
C1378 C1376 1.389 . S
C1378 C1379 1.524 . S
C1378 C1392 1.377 . S
C1379 C1378 1.524 . S
C1379 C1380 1.397 . S
C1379 C1384 1.363 . S
C1380 H1357 0.950 . S
C1380 C1379 1.397 . S
C1380 C1381 1.334 . S
C1381 H1358 0.950 . S
C1381 C1380 1.334 . S
C1381 C1382 1.287 . S
C1382 C1381 1.287 . S
C1382 C1383 1.524 . S
C1382 H1401 0.913 . S
C1383 H1359 0.950 . S
C1383 C1382 1.524 . S
C1383 C1384 1.415 . S
C1384 H1360 0.950 . S
C1384 C1379 1.363 . S
C1384 C1383 1.415 . S
C1385 H1361 0.951 . S
C1385 C1386 1.366 . S
C1385 C1387 1.388 . S
C1386 C1385 1.366 . S
C1386 C1390 1.385 . S
C1387 H1362 0.951 . S
C1387 C1385 1.388 . S
C1387 C1388 1.366 . S
C1388 C1387 1.366 . S
C1388 C1389 1.414 . S
C1388 C1391 1.499 . S
C1389 H1363 0.950 . S
C1389 C1388 1.414 . S
C1389 C1390 1.374 . S
C1390 H1364 0.950 . S
C1390 C1386 1.385 . S
C1390 C1389 1.374 . S
C1391 C1388 1.499 . S
C1391 C1392 1.373 . S
C1391 C1393 1.389 . S
C1392 H1365 0.950 . S
C1392 C1378 1.377 . S
C1392 C1391 1.373 . S
C1393 C1377 1.377 . S
C1393 C1391 1.389 . S
C1393 C1394 1.524 . S
C1394 C1393 1.524 . S
C1394 C1395 1.397 . S
C1394 C1399 1.363 . S
C1395 H1366 0.950 . S
C1395 C1394 1.397 . S
C1395 C1396 1.334 . S
C1396 H1367 0.950 . S
C1396 C1395 1.334 . S
C1396 C1397 1.287 . S
C1397 C1396 1.287 . S
C1397 C1398 1.524 . S
C1397 H1400 0.999 . S
C1398 H1368 0.950 . S
C1398 C1397 1.524 . S
C1398 C1399 1.415 . S
C1399 H1369 0.950 . S
C1399 C1394 1.363 . S
C1399 C1398 1.415 . S
H1400 C1397 0.999 . S
H1401 C1382 0.913 . S
H1402 C1420 0.951 . S
H1403 C1422 0.951 . S
H1404 C1424 0.950 . S
H1405 C1425 0.950 . S
H1406 C1427 0.950 . S
H1407 C1430 0.950 . S
H1408 C1431 0.950 . S
H1409 C1433 0.950 . S
H1410 C1434 0.950 . S
H1411 C1435 0.951 . S
H1412 C1437 0.951 . S
H1413 C1439 0.950 . S
H1414 C1440 0.950 . S
H1415 C1442 0.950 . S
H1416 C1445 0.950 . S
H1417 C1446 0.950 . S
H1418 C1448 0.950 . S
H1419 C1449 0.950 . S
C1420 H1402 0.951 . S
C1420 C1421 1.366 . S
C1420 C1422 1.388 . S
C1421 C1420 1.366 . S
C1421 C1425 1.385 . S
C1422 H1403 0.951 . S
C1422 C1420 1.388 . S
C1422 C1423 1.366 . S
C1423 C1422 1.366 . S
C1423 C1424 1.414 . S
C1423 C1426 1.499 . S
C1424 H1404 0.950 . S
C1424 C1423 1.414 . S
C1424 C1425 1.374 . S
C1425 H1405 0.950 . S
C1425 C1421 1.385 . S
C1425 C1424 1.374 . S
C1426 C1423 1.499 . S
C1426 C1427 1.373 . S
C1426 C1428 1.389 . S
C1427 H1406 0.950 . S
C1427 C1426 1.373 . S
C1427 C1443 1.377 . S
C1428 C1426 1.389 . S
C1428 C1429 1.524 . S
C1428 C1442 1.377 . S
C1429 C1428 1.524 . S
C1429 C1430 1.397 . S
C1429 C1434 1.363 . S
C1430 H1407 0.950 . S
C1430 C1429 1.397 . S
C1430 C1431 1.334 . S
C1431 H1408 0.950 . S
C1431 C1430 1.334 . S
C1431 C1432 1.287 . S
C1432 C1431 1.287 . S
C1432 C1433 1.524 . S
C1432 H1451 0.913 . S
C1433 H1409 0.950 . S
C1433 C1432 1.524 . S
C1433 C1434 1.415 . S
C1434 H1410 0.950 . S
C1434 C1429 1.363 . S
C1434 C1433 1.415 . S
C1435 H1411 0.951 . S
C1435 C1436 1.366 . S
C1435 C1437 1.388 . S
C1436 C1435 1.366 . S
C1436 C1440 1.385 . S
C1437 H1412 0.951 . S
C1437 C1435 1.388 . S
C1437 C1438 1.366 . S
C1438 C1437 1.366 . S
C1438 C1439 1.414 . S
C1438 C1441 1.499 . S
C1439 H1413 0.950 . S
C1439 C1438 1.414 . S
C1439 C1440 1.374 . S
C1440 H1414 0.950 . S
C1440 C1436 1.385 . S
C1440 C1439 1.374 . S
C1441 C1438 1.499 . S
C1441 C1442 1.373 . S
C1441 C1443 1.389 . S
C1442 H1415 0.950 . S
C1442 C1428 1.377 . S
C1442 C1441 1.373 . S
C1443 C1427 1.377 . S
C1443 C1441 1.389 . S
C1443 C1444 1.524 . S
C1444 C1443 1.524 . S
C1444 C1445 1.397 . S
C1444 C1449 1.363 . S
C1445 H1416 0.950 . S
C1445 C1444 1.397 . S
C1445 C1446 1.334 . S
C1446 H1417 0.950 . S
C1446 C1445 1.334 . S
C1446 C1447 1.287 . S
C1447 C1446 1.287 . S
C1447 C1448 1.524 . S
C1447 H1450 0.999 . S
C1448 H1418 0.950 . S
C1448 C1447 1.524 . S
C1448 C1449 1.415 . S
C1449 H1419 0.950 . S
C1449 C1444 1.363 . S
C1449 C1448 1.415 . S
H1450 C1447 0.999 . S
H1451 C1432 0.913 . S
H1452 C1470 0.951 . S
H1453 C1472 0.951 . S
H1454 C1474 0.950 . S
H1455 C1475 0.950 . S
H1456 C1477 0.950 . S
H1457 C1480 0.950 . S
H1458 C1481 0.950 . S
H1459 C1483 0.950 . S
H1460 C1484 0.950 . S
H1461 C1485 0.951 . S
H1462 C1487 0.951 . S
H1463 C1489 0.950 . S
H1464 C1490 0.950 . S
H1465 C1492 0.950 . S
H1466 C1495 0.950 . S
H1467 C1496 0.950 . S
H1468 C1498 0.950 . S
H1469 C1499 0.950 . S
C1470 H1452 0.951 . S
C1470 C1471 1.366 . S
C1470 C1472 1.388 . S
C1471 C1470 1.366 . S
C1471 C1475 1.385 . S
C1472 H1453 0.951 . S
C1472 C1470 1.388 . S
C1472 C1473 1.366 . S
C1473 C1472 1.366 . S
C1473 C1474 1.414 . S
C1473 C1476 1.499 . S
C1474 H1454 0.950 . S
C1474 C1473 1.414 . S
C1474 C1475 1.374 . S
C1475 H1455 0.950 . S
C1475 C1471 1.385 . S
C1475 C1474 1.374 . S
C1476 C1473 1.499 . S
C1476 C1477 1.373 . S
C1476 C1478 1.389 . S
C1477 H1456 0.950 . S
C1477 C1476 1.373 . S
C1477 C1493 1.377 . S
C1478 C1476 1.389 . S
C1478 C1479 1.524 . S
C1478 C1492 1.377 . S
C1479 C1478 1.524 . S
C1479 C1480 1.397 . S
C1479 C1484 1.363 . S
C1480 H1457 0.950 . S
C1480 C1479 1.397 . S
C1480 C1481 1.334 . S
C1481 H1458 0.950 . S
C1481 C1480 1.334 . S
C1481 C1482 1.287 . S
C1482 C1481 1.287 . S
C1482 C1483 1.524 . S
C1482 H1501 0.913 . S
C1483 H1459 0.950 . S
C1483 C1482 1.524 . S
C1483 C1484 1.415 . S
C1484 H1460 0.950 . S
C1484 C1479 1.363 . S
C1484 C1483 1.415 . S
C1485 H1461 0.951 . S
C1485 C1486 1.366 . S
C1485 C1487 1.388 . S
C1486 C1485 1.366 . S
C1486 C1490 1.385 . S
C1487 H1462 0.951 . S
C1487 C1485 1.388 . S
C1487 C1488 1.366 . S
C1488 C1487 1.366 . S
C1488 C1489 1.414 . S
C1488 C1491 1.499 . S
C1489 H1463 0.950 . S
C1489 C1488 1.414 . S
C1489 C1490 1.374 . S
C1490 H1464 0.950 . S
C1490 C1486 1.385 . S
C1490 C1489 1.374 . S
C1491 C1488 1.499 . S
C1491 C1492 1.373 . S
C1491 C1493 1.389 . S
C1492 H1465 0.950 . S
C1492 C1478 1.377 . S
C1492 C1491 1.373 . S
C1493 C1477 1.377 . S
C1493 C1491 1.389 . S
C1493 C1494 1.524 . S
C1494 C1493 1.524 . S
C1494 C1495 1.397 . S
C1494 C1499 1.363 . S
C1495 H1466 0.950 . S
C1495 C1494 1.397 . S
C1495 C1496 1.334 . S
C1496 H1467 0.950 . S
C1496 C1495 1.334 . S
C1496 C1497 1.287 . S
C1497 C1496 1.287 . S
C1497 C1498 1.524 . S
C1497 H1500 0.999 . S
C1498 H1468 0.950 . S
C1498 C1497 1.524 . S
C1498 C1499 1.415 . S
C1499 H1469 0.950 . S
C1499 C1494 1.363 . S
C1499 C1498 1.415 . S
H1500 C1497 0.999 . S
H1501 C1482 0.913 . S
H1502 C1520 0.951 . S
H1503 C1522 0.951 . S
H1504 C1524 0.950 . S
H1505 C1525 0.950 . S
H1506 C1527 0.950 . S
H1507 C1530 0.950 . S
H1508 C1531 0.950 . S
H1509 C1533 0.950 . S
H1510 C1534 0.950 . S
H1511 C1535 0.951 . S
H1512 C1537 0.951 . S
H1513 C1539 0.950 . S
H1514 C1540 0.950 . S
H1515 C1542 0.950 . S
H1516 C1545 0.950 . S
H1517 C1546 0.950 . S
H1518 C1548 0.950 . S
H1519 C1549 0.950 . S
C1520 H1502 0.951 . S
C1520 C1521 1.366 . S
C1520 C1522 1.388 . S
C1521 C1520 1.366 . S
C1521 C1525 1.385 . S
C1522 H1503 0.951 . S
C1522 C1520 1.388 . S
C1522 C1523 1.366 . S
C1523 C1522 1.366 . S
C1523 C1524 1.414 . S
C1523 C1526 1.499 . S
C1524 H1504 0.950 . S
C1524 C1523 1.414 . S
C1524 C1525 1.374 . S
C1525 H1505 0.950 . S
C1525 C1521 1.385 . S
C1525 C1524 1.374 . S
C1526 C1523 1.499 . S
C1526 C1527 1.373 . S
C1526 C1528 1.389 . S
C1527 H1506 0.950 . S
C1527 C1526 1.373 . S
C1527 C1543 1.377 . S
C1528 C1526 1.389 . S
C1528 C1529 1.524 . S
C1528 C1542 1.377 . S
C1529 C1528 1.524 . S
C1529 C1530 1.397 . S
C1529 C1534 1.363 . S
C1530 H1507 0.950 . S
C1530 C1529 1.397 . S
C1530 C1531 1.334 . S
C1531 H1508 0.950 . S
C1531 C1530 1.334 . S
C1531 C1532 1.287 . S
C1532 C1531 1.287 . S
C1532 C1533 1.524 . S
C1532 H1551 0.913 . S
C1533 H1509 0.950 . S
C1533 C1532 1.524 . S
C1533 C1534 1.415 . S
C1534 H1510 0.950 . S
C1534 C1529 1.363 . S
C1534 C1533 1.415 . S
C1535 H1511 0.951 . S
C1535 C1536 1.366 . S
C1535 C1537 1.388 . S
C1536 C1535 1.366 . S
C1536 C1540 1.385 . S
C1537 H1512 0.951 . S
C1537 C1535 1.388 . S
C1537 C1538 1.366 . S
C1538 C1537 1.366 . S
C1538 C1539 1.414 . S
C1538 C1541 1.499 . S
C1539 H1513 0.950 . S
C1539 C1538 1.414 . S
C1539 C1540 1.374 . S
C1540 H1514 0.950 . S
C1540 C1536 1.385 . S
C1540 C1539 1.374 . S
C1541 C1538 1.499 . S
C1541 C1542 1.373 . S
C1541 C1543 1.389 . S
C1542 H1515 0.950 . S
C1542 C1528 1.377 . S
C1542 C1541 1.373 . S
C1543 C1527 1.377 . S
C1543 C1541 1.389 . S
C1543 C1544 1.524 . S
C1544 C1543 1.524 . S
C1544 C1545 1.397 . S
C1544 C1549 1.363 . S
C1545 H1516 0.950 . S
C1545 C1544 1.397 . S
C1545 C1546 1.334 . S
C1546 H1517 0.950 . S
C1546 C1545 1.334 . S
C1546 C1547 1.287 . S
C1547 C1546 1.287 . S
C1547 C1548 1.524 . S
C1547 H1550 0.999 . S
C1548 H1518 0.950 . S
C1548 C1547 1.524 . S
C1548 C1549 1.415 . S
C1549 H1519 0.950 . S
C1549 C1544 1.363 . S
C1549 C1548 1.415 . S
H1550 C1547 0.999 . S
H1551 C1532 0.913 . S
H1552 C1570 0.951 . S
H1553 C1572 0.951 . S
H1554 C1574 0.950 . S
H1555 C1575 0.950 . S
H1556 C1577 0.950 . S
H1557 C1580 0.950 . S
H1558 C1581 0.950 . S
H1559 C1583 0.950 . S
H1560 C1584 0.950 . S
H1561 C1585 0.951 . S
H1562 C1587 0.951 . S
H1563 C1589 0.950 . S
H1564 C1590 0.950 . S
H1565 C1592 0.950 . S
H1566 C1595 0.950 . S
H1567 C1596 0.950 . S
H1568 C1598 0.950 . S
H1569 C1599 0.950 . S
C1570 H1552 0.951 . S
C1570 C1571 1.366 . S
C1570 C1572 1.388 . S
C1571 C1570 1.366 . S
C1571 C1575 1.385 . S
C1572 H1553 0.951 . S
C1572 C1570 1.388 . S
C1572 C1573 1.366 . S
C1573 C1572 1.366 . S
C1573 C1574 1.414 . S
C1573 C1576 1.499 . S
C1574 H1554 0.950 . S
C1574 C1573 1.414 . S
C1574 C1575 1.374 . S
C1575 H1555 0.950 . S
C1575 C1571 1.385 . S
C1575 C1574 1.374 . S
C1576 C1573 1.499 . S
C1576 C1577 1.373 . S
C1576 C1578 1.389 . S
C1577 H1556 0.950 . S
C1577 C1576 1.373 . S
C1577 C1593 1.377 . S
C1578 C1576 1.389 . S
C1578 C1579 1.524 . S
C1578 C1592 1.377 . S
C1579 C1578 1.524 . S
C1579 C1580 1.397 . S
C1579 C1584 1.363 . S
C1580 H1557 0.950 . S
C1580 C1579 1.397 . S
C1580 C1581 1.334 . S
C1581 H1558 0.950 . S
C1581 C1580 1.334 . S
C1581 C1582 1.287 . S
C1582 C1581 1.287 . S
C1582 C1583 1.524 . S
C1582 H1601 0.913 . S
C1583 H1559 0.950 . S
C1583 C1582 1.524 . S
C1583 C1584 1.415 . S
C1584 H1560 0.950 . S
C1584 C1579 1.363 . S
C1584 C1583 1.415 . S
C1585 H1561 0.951 . S
C1585 C1586 1.366 . S
C1585 C1587 1.388 . S
C1586 C1585 1.366 . S
C1586 C1590 1.385 . S
C1587 H1562 0.951 . S
C1587 C1585 1.388 . S
C1587 C1588 1.366 . S
C1588 C1587 1.366 . S
C1588 C1589 1.414 . S
C1588 C1591 1.499 . S
C1589 H1563 0.950 . S
C1589 C1588 1.414 . S
C1589 C1590 1.374 . S
C1590 H1564 0.950 . S
C1590 C1586 1.385 . S
C1590 C1589 1.374 . S
C1591 C1588 1.499 . S
C1591 C1592 1.373 . S
C1591 C1593 1.389 . S
C1592 H1565 0.950 . S
C1592 C1578 1.377 . S
C1592 C1591 1.373 . S
C1593 C1577 1.377 . S
C1593 C1591 1.389 . S
C1593 C1594 1.524 . S
C1594 C1593 1.524 . S
C1594 C1595 1.397 . S
C1594 C1599 1.363 . S
C1595 H1566 0.950 . S
C1595 C1594 1.397 . S
C1595 C1596 1.334 . S
C1596 H1567 0.950 . S
C1596 C1595 1.334 . S
C1596 C1597 1.287 . S
C1597 C1596 1.287 . S
C1597 C1598 1.524 . S
C1597 H1600 0.999 . S
C1598 H1568 0.950 . S
C1598 C1597 1.524 . S
C1598 C1599 1.415 . S
C1599 H1569 0.950 . S
C1599 C1594 1.363 . S
C1599 C1598 1.415 . S
H1600 C1597 0.999 . S
H1601 C1582 0.913 . S
C421 C39 1.712 . S
C436 C319 1.693 . S
C471 C91 1.721 . S
C486 C344 1.705 . S
C536 C347 1.544 . S
C521 C128 1.563 . S
C586 C373 1.513 . S
C571 C188 1.530 . S
C636 C374 1.631 . S
C621 C250 1.648 . S
C686 C401 1.650 . S
C671 C304 1.672 . S
C721 C75 1.583 . S
C736 C346 1.566 . S
C771 C144 1.703 . S
C786 C372 1.686 . S
C836 C375 1.649 . S
C821 C198 1.666 . S
C886 C400 1.494 . S
C871 C234 1.511 . S
C921 C294 1.520 . S
C936 C318 1.504 . S
C986 C345 1.542 . S
C971 C29 1.557 . S
C1036 C360 1.693 . S
C1021 C38 1.712 . S
C1071 C92 1.721 . S
C1086 C387 1.705 . S
C1136 C388 1.543 . S
C1121 C135 1.563 . S
C1171 C181 1.530 . S
C1186 C330 1.513 . S
C1221 C251 1.648 . S
C1236 C333 1.630 . S
C1271 C303 1.672 . S
C1286 C358 1.650 . S
C1321 C82 1.583 . S
C1336 C389 1.566 . S
C1386 C331 1.686 . S
C1371 C145 1.703 . S
C1421 C197 1.666 . S
C1436 C332 1.650 . S
C1471 C241 1.510 . S
C1486 C359 1.493 . S
C1521 C287 1.520 . S
C1536 C361 1.503 . S
C1571 C22 1.556 . S
C1586 C386 1.541 . S
