# Generated by pormake.
# Topology myd, (4,6)-cn, num edge types: 1
# Building blocks:
#     Node 0, Type 0, BuildingBlock: KOZSID_clean_sbu_0, # of connection points: 4
#     Node 1, Type 0, BuildingBlock: KOZSID_clean_sbu_0, # of connection points: 4
#     Node 2, Type 0, BuildingBlock: KOZSID_clean_sbu_0, # of connection points: 4
#     Node 3, Type 0, BuildingBlock: KOZSID_clean_sbu_0, # of connection points: 4
#     Node 4, Type 0, BuildingBlock: KOZSID_clean_sbu_0, # of connection points: 4
#     Node 5, Type 0, BuildingBlock: KOZSID_clean_sbu_0, # of connection points: 4
#     Node 6, Type 0, BuildingBlock: KOZSID_clean_sbu_0, # of connection points: 4
#     Node 7, Type 0, BuildingBlock: KOZSID_clean_sbu_0, # of connection points: 4
#     Node 8, Type 0, BuildingBlock: KOZSID_clean_sbu_0, # of connection points: 4
#     Node 9, Type 0, BuildingBlock: KOZSID_clean_sbu_0, # of connection points: 4
#     Node 10, Type 0, BuildingBlock: KOZSID_clean_sbu_0, # of connection points: 4
#     Node 11, Type 0, BuildingBlock: KOZSID_clean_sbu_0, # of connection points: 4
#     Node 12, Type 1, BuildingBlock: FUNLAD_clean_sbu_0, # of connection points: 6
#     Node 13, Type 1, BuildingBlock: FUNLAD_clean_sbu_0, # of connection points: 6
#     Node 14, Type 1, BuildingBlock: FUNLAD_clean_sbu_0, # of connection points: 6
#     Node 15, Type 1, BuildingBlock: FUNLAD_clean_sbu_0, # of connection points: 6
#     Node 16, Type 1, BuildingBlock: FUNLAD_clean_sbu_0, # of connection points: 6
#     Node 17, Type 1, BuildingBlock: FUNLAD_clean_sbu_0, # of connection points: 6
#     Node 18, Type 1, BuildingBlock: FUNLAD_clean_sbu_0, # of connection points: 6
#     Node 19, Type 1, BuildingBlock: FUNLAD_clean_sbu_0, # of connection points: 6
#     Edge 20, Type (0, 1), BuildingBlock: CIFDUS_clean_linker_0, # of connection points: 2
#     Edge 21, Type (0, 1), BuildingBlock: CIFDUS_clean_linker_0, # of connection points: 2
#     Edge 22, Type (0, 1), BuildingBlock: CIFDUS_clean_linker_0, # of connection points: 2
#     Edge 23, Type (0, 1), BuildingBlock: CIFDUS_clean_linker_0, # of connection points: 2
#     Edge 24, Type (0, 1), BuildingBlock: CIFDUS_clean_linker_0, # of connection points: 2
#     Edge 25, Type (0, 1), BuildingBlock: CIFDUS_clean_linker_0, # of connection points: 2
#     Edge 26, Type (0, 1), BuildingBlock: CIFDUS_clean_linker_0, # of connection points: 2
#     Edge 27, Type (0, 1), BuildingBlock: CIFDUS_clean_linker_0, # of connection points: 2
#     Edge 28, Type (0, 1), BuildingBlock: CIFDUS_clean_linker_0, # of connection points: 2
#     Edge 29, Type (0, 1), BuildingBlock: CIFDUS_clean_linker_0, # of connection points: 2
#     Edge 30, Type (0, 1), BuildingBlock: CIFDUS_clean_linker_0, # of connection points: 2
#     Edge 31, Type (0, 1), BuildingBlock: CIFDUS_clean_linker_0, # of connection points: 2
#     Edge 32, Type (0, 1), BuildingBlock: CIFDUS_clean_linker_0, # of connection points: 2
#     Edge 33, Type (0, 1), BuildingBlock: CIFDUS_clean_linker_0, # of connection points: 2
#     Edge 34, Type (0, 1), BuildingBlock: CIFDUS_clean_linker_0, # of connection points: 2
#     Edge 35, Type (0, 1), BuildingBlock: CIFDUS_clean_linker_0, # of connection points: 2
#     Edge 36, Type (0, 1), BuildingBlock: CIFDUS_clean_linker_0, # of connection points: 2
#     Edge 37, Type (0, 1), BuildingBlock: CIFDUS_clean_linker_0, # of connection points: 2
#     Edge 38, Type (0, 1), BuildingBlock: CIFDUS_clean_linker_0, # of connection points: 2
#     Edge 39, Type (0, 1), BuildingBlock: CIFDUS_clean_linker_0, # of connection points: 2
#     Edge 40, Type (0, 1), BuildingBlock: CIFDUS_clean_linker_0, # of connection points: 2
#     Edge 41, Type (0, 1), BuildingBlock: CIFDUS_clean_linker_0, # of connection points: 2
#     Edge 42, Type (0, 1), BuildingBlock: CIFDUS_clean_linker_0, # of connection points: 2
#     Edge 43, Type (0, 1), BuildingBlock: CIFDUS_clean_linker_0, # of connection points: 2
#     Edge 44, Type (0, 1), BuildingBlock: CIFDUS_clean_linker_0, # of connection points: 2
#     Edge 45, Type (0, 1), BuildingBlock: CIFDUS_clean_linker_0, # of connection points: 2
#     Edge 46, Type (0, 1), BuildingBlock: CIFDUS_clean_linker_0, # of connection points: 2
#     Edge 47, Type (0, 1), BuildingBlock: CIFDUS_clean_linker_0, # of connection points: 2
#     Edge 48, Type (0, 1), BuildingBlock: CIFDUS_clean_linker_0, # of connection points: 2
#     Edge 49, Type (0, 1), BuildingBlock: CIFDUS_clean_linker_0, # of connection points: 2
#     Edge 50, Type (0, 1), BuildingBlock: CIFDUS_clean_linker_0, # of connection points: 2
#     Edge 51, Type (0, 1), BuildingBlock: CIFDUS_clean_linker_0, # of connection points: 2
#     Edge 52, Type (0, 1), BuildingBlock: CIFDUS_clean_linker_0, # of connection points: 2
#     Edge 53, Type (0, 1), BuildingBlock: CIFDUS_clean_linker_0, # of connection points: 2
#     Edge 54, Type (0, 1), BuildingBlock: CIFDUS_clean_linker_0, # of connection points: 2
#     Edge 55, Type (0, 1), BuildingBlock: CIFDUS_clean_linker_0, # of connection points: 2
#     Edge 56, Type (0, 1), BuildingBlock: CIFDUS_clean_linker_0, # of connection points: 2
#     Edge 57, Type (0, 1), BuildingBlock: CIFDUS_clean_linker_0, # of connection points: 2
#     Edge 58, Type (0, 1), BuildingBlock: CIFDUS_clean_linker_0, # of connection points: 2
#     Edge 59, Type (0, 1), BuildingBlock: CIFDUS_clean_linker_0, # of connection points: 2
#     Edge 60, Type (0, 1), BuildingBlock: CIFDUS_clean_linker_0, # of connection points: 2
#     Edge 61, Type (0, 1), BuildingBlock: CIFDUS_clean_linker_0, # of connection points: 2
#     Edge 62, Type (0, 1), BuildingBlock: CIFDUS_clean_linker_0, # of connection points: 2
#     Edge 63, Type (0, 1), BuildingBlock: CIFDUS_clean_linker_0, # of connection points: 2
#     Edge 64, Type (0, 1), BuildingBlock: CIFDUS_clean_linker_0, # of connection points: 2
#     Edge 65, Type (0, 1), BuildingBlock: CIFDUS_clean_linker_0, # of connection points: 2
#     Edge 66, Type (0, 1), BuildingBlock: CIFDUS_clean_linker_0, # of connection points: 2
#     Edge 67, Type (0, 1), BuildingBlock: CIFDUS_clean_linker_0, # of connection points: 2
# Relax obj value: 0.254
# Max RMSD: 0.234
# Mean RMSD: 0.153
data_MOF--net-myd--node1-KOZSID_clean_sbu_0--node2-FUNLAD_clean_sbu_0--edge1-CIFDUS_clean_linker_0
_symmetry_space_group_name_H-M    P1
_symmetry_Int_Tables_number       1
_symmetry_cell_setting            triclinic
loop_
_symmetry_equiv_pos_as_xyz
'x, y, z'
_cell_length_a     45.302261
_cell_length_b     45.014874
_cell_length_c     49.924937
_cell_angle_alpha  85.945292
_cell_angle_beta   83.584614
_cell_angle_gamma 90.576166
loop_
_atom_site_label
_atom_site_type_symbol
_atom_site_fract_x
_atom_site_fract_y
_atom_site_fract_z
_atom_type_partial_charge
C0 C 0.98576 0.30415 0.37547 0.0
C1 C 0.95626 0.30932 0.38453 0.0
C2 C 0.93951 0.28772 0.37487 0.0
C3 C 0.9594 0.27076 0.36007 0.0
N4 N 0.98761 0.28033 0.36008 0.0
Co5 Co 0.0228 0.26552 0.33805 0.0
N6 N 0.99818 0.2481 0.31249 0.0
C7 C 0.96878 0.24226 0.31731 0.0
C8 C 0.95745 0.23034 0.29598 0.0
C9 C 0.98132 0.22806 0.27679 0.0
C10 C 1.00609 0.23847 0.28762 0.0
N11 N 0.05851 0.25131 0.31632 0.0
C12 C 0.06165 0.24122 0.2912 0.0
C13 C 0.0906 0.23204 0.28451 0.0
C14 C 0.10576 0.23629 0.30627 0.0
C15 C 0.0854 0.2477 0.3251 0.0
N16 N 0.04692 0.28322 0.36372 0.0
C17 C 0.07476 0.27583 0.36793 0.0
C18 C 0.08613 0.2932 0.38607 0.0
C19 C 0.06409 0.31281 0.39343 0.0
C20 C 0.04049 0.3064 0.37922 0.0
N21 N 0.01992 0.22685 0.35962 0.0
C22 C 0.01396 0.16956 0.38702 0.0
C23 C 0.00975 0.19556 0.40117 0.0
C24 C 0.01284 0.22402 0.38708 0.0
C25 C 0.02173 0.1733 0.35912 0.0
C26 C 0.02432 0.2016 0.34603 0.0
N27 N 0.02557 0.30295 0.31562 0.0
C28 C 0.05564 0.33924 0.28678 0.0
C29 C 0.03071 0.34866 0.27438 0.0
C30 C 1.00287 0.33632 0.28467 0.0
C31 C 1.00079 0.31369 0.30531 0.0
C32 C 0.05257 0.31644 0.30748 0.0
H33 H 0.97926 0.30368 0.31176 0.0
H34 H 0.07223 0.30867 0.31592 0.0
H35 H 0.00932 0.24366 0.39821 0.0
H36 H 0.0298 0.20265 0.32455 0.0
C37 C 0.9521 0.25233 0.34019 0.0
C38 C 0.0118 0.32166 0.38164 0.0
C39 C 0.03696 0.23564 0.27516 0.0
C40 C 0.09144 0.25849 0.34969 0.0
H41 H 0.94731 0.32732 0.39592 0.0
H42 H 0.9155 0.28634 0.37641 0.0
H43 H 0.93449 0.22472 0.29424 0.0
H44 H 0.9806 0.21917 0.25729 0.0
H45 H 0.09964 0.22228 0.26623 0.0
H46 H 0.12893 0.23185 0.30801 0.0
H47 H 0.10846 0.29307 0.39184 0.0
H48 H 0.06538 0.33011 0.40726 0.0
H49 H 1.00381 0.19399 0.42284 0.0
H50 H 0.02633 0.15441 0.34713 0.0
H51 H 0.07752 0.34861 0.2799 0.0
H52 H 0.98294 0.34263 0.27573 0.0
C53 C 0.98811 0.70514 0.12406 0.0
C54 C 0.96184 0.69979 0.11323 0.0
C55 C 0.94074 0.71673 0.12627 0.0
C56 C 0.95524 0.73135 0.14429 0.0
N57 N 0.98446 0.72516 0.14321 0.0
Co58 Co 0.01364 0.7403 0.16664 0.0
N59 N 0.9813 0.7589 0.19024 0.0
C60 C 0.95198 0.75915 0.18727 0.0
C61 C 0.93499 0.77223 0.20749 0.0
C62 C 0.95461 0.78058 0.22453 0.0
C63 C 0.98257 0.77227 0.2135 0.0
N64 N 0.04307 0.7557 0.18943 0.0
C65 C 0.03862 0.77038 0.21218 0.0
C66 C 0.06536 0.77815 0.22127 0.0
C67 C 0.08742 0.76757 0.20379 0.0
C68 C 0.073 0.7542 0.18502 0.0
N69 N 0.04563 0.72048 0.14353 0.0
C70 C 0.07519 0.72165 0.1452 0.0
C71 C 0.09138 0.70413 0.1278 0.0
C72 C 0.07084 0.69035 0.11466 0.0
C73 C 0.04329 0.70037 0.12487 0.0
N74 N 0.01929 0.77877 0.14301 0.0
C75 C 0.02898 0.83951 0.1233 0.0
C76 C 0.05231 0.81932 0.12257 0.0
C77 C 0.04702 0.78936 0.13232 0.0
C78 C 1.00039 0.82797 0.13159 0.0
C79 C 0.99605 0.7978 0.14059 0.0
N80 N 0.00803 0.7033 0.19132 0.0
C81 C 0.02744 0.66905 0.22456 0.0
C82 C 0.99872 0.65952 0.23558 0.0
C83 C 0.97499 0.67093 0.2224 0.0
C84 C 0.98012 0.69224 0.20036 0.0
C85 C 0.03156 0.69064 0.20262 0.0
H86 H 0.96105 0.70046 0.19155 0.0
H87 H 0.05394 0.69763 0.1956 0.0
H88 H 0.06597 0.77554 0.13172 0.0
H89 H 0.97362 0.79076 0.14623 0.0
C90 C 0.94118 0.7467 0.16535 0.0
C91 C 0.01545 0.68919 0.11704 0.0
C92 C 0.00963 0.77728 0.22585 0.0
C93 C 0.08676 0.73791 0.16452 0.0
H94 H 0.95804 0.68441 0.09822 0.0
H95 H 0.91724 0.71691 0.12406 0.0
H96 H 0.91116 0.77504 0.20974 0.0
H97 H 0.94896 0.7914 0.24305 0.0
H98 H 0.06864 0.79001 0.23885 0.0
H99 H 0.1111 0.76889 0.20497 0.0
H100 H 0.11516 0.70096 0.12561 0.0
H101 H 0.07546 0.67421 0.09973 0.0
H102 H 0.07484 0.82686 0.11569 0.0
H103 H 0.98134 0.84231 0.13148 0.0
H104 H 0.04683 0.6603 0.23302 0.0
H105 H 0.95226 0.66451 0.22964 0.0
C106 C 0.36556 0.98206 0.26993 0.0
C107 C 0.37838 0.955 0.27636 0.0
C108 C 0.36904 0.93532 0.25935 0.0
C109 C 0.35126 0.95144 0.24343 0.0
N110 N 0.34925 0.98044 0.2488 0.0
Co111 Co 0.32454 0.01141 0.2314 0.0
N112 N 0.3062 0.9813 0.21007 0.0
C113 C 0.31225 0.95192 0.21011 0.0
C114 C 0.29662 0.93688 0.19316 0.0
C115 C 0.27969 0.95792 0.18145 0.0
C116 C 0.286 0.98469 0.19195 0.0
N117 N 0.29984 0.04245 0.21409 0.0
C118 C 0.2805 0.04018 0.19538 0.0
C119 C 0.26864 0.06759 0.18836 0.0
C120 C 0.28106 0.08792 0.20296 0.0
C121 C 0.29969 0.07186 0.21802 0.0
N122 N 0.34276 0.04135 0.25302 0.0
C123 C 0.33796 0.07099 0.25193 0.0
C124 C 0.35119 0.08555 0.27073 0.0
C125 C 0.36475 0.06388 0.28516 0.0
C126 C 0.35923 0.03717 0.27415 0.0
N127 N 0.35681 0.01934 0.2005 0.0
C128 C 0.3942 0.03027 0.15089 0.0
C129 C 0.38327 0.05371 0.16597 0.0
C130 C 0.36491 0.04781 0.19047 0.0
C131 C 0.38756 1.00132 0.16209 0.0
C132 C 0.3694 0.99644 0.18671 0.0
N133 N 0.29208 1.00342 0.2617 0.0
C134 C 0.25353 0.02035 0.29481 0.0
C135 C 0.24415 0.991 0.30277 0.0
C136 C 0.26004 0.96813 0.29053 0.0
C137 C 0.28366 0.97472 0.2704 0.0
C138 C 0.27733 0.02603 0.2743 0.0
H139 H 0.29455 0.95617 0.26186 0.0
H140 H 0.28314 0.04886 0.2686 0.0
H141 H 0.35695 0.06671 0.20056 0.0
H142 H 0.36541 0.97381 0.19378 0.0
C143 C 0.33338 0.93931 0.22569 0.0
C144 C 0.3682 1.00815 0.28551 0.0
C145 C 0.27268 0.01278 0.1836 0.0
C146 C 0.31774 0.08379 0.2356 0.0
H147 H 0.39221 0.94981 0.29234 0.0
H148 H 0.37349 0.91174 0.25947 0.0
H149 H 0.29773 0.91349 0.18948 0.0
H150 H 0.26468 0.95411 0.16657 0.0
H151 H 0.25281 0.07243 0.174 0.0
H152 H 0.27719 0.11163 0.20246 0.0
H153 H 0.34966 0.10889 0.27456 0.0
H154 H 0.37624 0.06744 0.30252 0.0
H155 H 0.38791 0.07664 0.15847 0.0
H156 H 0.3962 0.9823 0.15182 0.0
H157 H 0.24187 0.03884 0.30358 0.0
H158 H 0.25391 0.94502 0.29618 0.0
C159 C 0.66054 0.47565 0.21391 0.0
C160 C 0.64876 0.44993 0.20495 0.0
C161 C 0.66789 0.42742 0.2099 0.0
C162 C 0.69022 0.44039 0.22161 0.0
N163 N 0.68606 0.46959 0.22489 0.0
Co164 Co 0.71387 0.49651 0.24003 0.0
N165 N 0.73535 0.46239 0.25549 0.0
C166 C 0.7348 0.43416 0.24838 0.0
C167 C 0.74976 0.41517 0.26465 0.0
C168 C 0.76017 0.43259 0.28315 0.0
C169 C 0.7513 0.46143 0.27682 0.0
N170 N 0.74154 0.5231 0.2553 0.0
C171 C 0.7576 0.517 0.2761 0.0
C172 C 0.77417 0.54176 0.28095 0.0
C173 C 0.76765 0.56425 0.2626 0.0
C174 C 0.74769 0.5519 0.24757 0.0
N175 N 0.69281 0.5309 0.22449 0.0
C176 C 0.70302 0.55934 0.22109 0.0
C177 C 0.68358 0.57847 0.21001 0.0
C178 C 0.65999 0.56094 0.2056 0.0
C179 C 0.66651 0.53188 0.214 0.0
N180 N 0.68724 0.49628 0.27385 0.0
C181 C 0.6623 0.49499 0.32785 0.0
C182 C 0.66907 0.52214 0.31287 0.0
C183 C 0.68161 0.5223 0.28595 0.0
C184 C 0.66605 0.46864 0.31466 0.0
C185 C 0.678 0.46981 0.28751 0.0
N186 N 0.74121 0.49678 0.20655 0.0
C187 C 0.75041 0.49965 0.15787 0.0
C188 C 0.78111 0.49879 0.15916 0.0
C189 C 0.79137 0.4965 0.18465 0.0
C190 C 0.77115 0.49523 0.20799 0.0
C191 C 0.73089 0.49886 0.18176 0.0
H192 H 0.77981 0.49304 0.22728 0.0
H193 H 0.7075 0.49998 0.18012 0.0
H194 H 0.68846 0.54343 0.27551 0.0
H195 H 0.68149 0.44911 0.27812 0.0
C196 C 0.7138 0.42532 0.23196 0.0
C197 C 0.65 0.50579 0.20699 0.0
C198 C 0.75799 0.48776 0.29092 0.0
C199 C 0.72933 0.56772 0.23112 0.0
H200 H 0.62909 0.44769 0.19481 0.0
H201 H 0.66573 0.40435 0.20549 0.0
H202 H 0.75081 0.39117 0.26459 0.0
H203 H 0.77195 0.42455 0.2998 0.0
H204 H 0.78898 0.54349 0.29637 0.0
H205 H 0.77511 0.58726 0.26153 0.0
H206 H 0.68614 0.60233 0.20577 0.0
H207 H 0.6408 0.5684 0.19603 0.0
H208 H 0.66641 0.54301 0.32235 0.0
H209 H 0.66061 0.44722 0.32547 0.0
H210 H 0.74154 0.50138 0.13856 0.0
H211 H 0.81492 0.49523 0.18657 0.0
C212 C 0.32829 0.37422 0.96895 0.0
C213 C 0.33857 0.3852 0.94283 0.0
C214 C 0.31814 0.37666 0.92641 0.0
C215 C 0.29669 0.3606 0.94313 0.0
N216 N 0.3024 0.35856 0.96907 0.0
Co217 Co 0.27877 0.3347 0.99919 0.0
N218 N 0.25957 0.31007 0.97427 0.0
C219 C 0.25951 0.31664 0.94756 0.0
C220 C 0.246 0.29488 0.93507 0.0
C221 C 0.23652 0.27355 0.95526 0.0
C222 C 0.24429 0.2837 0.97922 0.0
N223 N 0.25497 0.31158 0.02967 0.0
C224 C 0.2385 0.2861 0.0302 0.0
C225 C 0.22326 0.27961 0.05576 0.0
C226 C 0.23046 0.30167 0.07155 0.0
C227 C 0.24945 0.32054 0.05491 0.0
N228 N 0.29862 0.35891 0.02394 0.0
C229 C 0.28865 0.36256 0.04985 0.0
C230 C 0.30729 0.38018 0.06212 0.0
C231 C 0.33045 0.38805 0.04266 0.0
C232 C 0.3247 0.37464 0.01956 0.0
N233 N 0.24604 0.36334 0.99812 0.0
C234 C 0.19795 0.40257 0.99655 0.0
C235 C 0.22711 0.41343 0.99701 0.0
C236 C 0.25089 0.39348 0.99738 0.0
C237 C 0.19357 0.37179 0.99684 0.0
C238 C 0.21759 0.35273 0.99798 0.0
N239 N 0.3107 0.30573 0.99991 0.0
C240 C 0.33812 0.26926 0.02422 0.0
C241 C 0.35182 0.25973 0.99982 0.0
C242 C 0.3454 0.27438 0.97561 0.0
C243 C 0.3246 0.29699 0.97608 0.0
C244 C 0.31799 0.2927 0.02384 0.0
H245 H 0.31911 0.30663 0.95699 0.0
H246 H 0.30764 0.29968 0.04283 0.0
H247 H 0.27314 0.40237 0.99728 0.0
H248 H 0.2128 0.32923 0.99902 0.0
C249 C 0.2761 0.34098 0.93448 0.0
C250 C 0.34311 0.37928 0.9933 0.0
C251 C 0.23404 0.26955 0.00642 0.0
C252 C 0.2651 0.34479 0.06295 0.0
H253 H 0.35906 0.39727 0.93597 0.0
H254 H 0.32004 0.37978 0.90458 0.0
H255 H 0.24412 0.29409 0.91371 0.0
H256 H 0.22489 0.25308 0.95256 0.0
H257 H 0.20779 0.26139 0.06227 0.0
H258 H 0.22297 0.30351 0.09271 0.0
H259 H 0.30502 0.38561 0.08302 0.0
H260 H 0.34933 0.4021 0.04516 0.0
H261 H 0.23149 0.43713 0.99698 0.0
H262 H 0.17144 0.36233 0.99712 0.0
H263 H 0.34258 0.25837 0.04336 0.0
H264 H 0.35525 0.26737 0.95634 0.0
C265 C 0.26907 0.67423 0.4734 0.0
C266 C 0.27429 0.66128 0.44894 0.0
C267 C 0.30057 0.67337 0.43626 0.0
C268 C 0.30978 0.69308 0.45355 0.0
N269 N 0.29095 0.69408 0.47625 0.0
Co270 Co 0.29466 0.72032 0.506 0.0
N271 N 0.32293 0.7476 0.48264 0.0
C272 C 0.33848 0.7409 0.45928 0.0
C273 C 0.35757 0.76337 0.44806 0.0
C274 C 0.35419 0.78543 0.46561 0.0
C275 C 0.33303 0.77519 0.48668 0.0
N276 N 0.29808 0.74653 0.53593 0.0
C277 C 0.30973 0.77447 0.5354 0.0
C278 C 0.30749 0.78448 0.56123 0.0
C279 C 0.29494 0.76164 0.57851 0.0
C280 C 0.28992 0.73911 0.56237 0.0
N281 N 0.26681 0.69266 0.52923 0.0
C282 C 0.26296 0.69026 0.55639 0.0
C283 C 0.24158 0.66934 0.56665 0.0
C284 C 0.23139 0.658 0.54448 0.0
C285 C 0.24715 0.67279 0.52196 0.0
N286 N 0.32858 0.69693 0.51715 0.0
C287 C 0.37622 0.66422 0.53556 0.0
C288 C 0.37633 0.6954 0.53446 0.0
C289 C 0.35267 0.71122 0.52502 0.0
C290 C 0.35197 0.64972 0.52657 0.0
C291 C 0.32829 0.66643 0.51771 0.0
N292 N 0.26074 0.74369 0.49501 0.0
C293 C 0.21243 0.76487 0.50621 0.0
C294 C 0.21103 0.77564 0.47922 0.0
C295 C 0.23551 0.76986 0.46043 0.0
C296 C 0.25979 0.75375 0.46862 0.0
C297 C 0.23739 0.74943 0.51366 0.0
H298 H 0.27785 0.74941 0.4535 0.0
H299 H 0.23758 0.74188 0.5346 0.0
H300 H 0.35387 0.73513 0.52446 0.0
H301 H 0.30956 0.65462 0.51166 0.0
C302 C 0.33209 0.71491 0.44703 0.0
C303 C 0.24393 0.6668 0.494 0.0
C304 C 0.32602 0.79067 0.51152 0.0
C305 C 0.27471 0.71222 0.57087 0.0
H306 H 0.26051 0.64509 0.44091 0.0
H307 H 0.31082 0.66947 0.41621 0.0
H308 H 0.37199 0.76383 0.42921 0.0
H309 H 0.36659 0.80629 0.46346 0.0
H310 H 0.31482 0.80578 0.5671 0.0
H311 H 0.28967 0.76168 0.6002 0.0
H312 H 0.23316 0.66415 0.58763 0.0
H313 H 0.21418 0.64108 0.54481 0.0
H314 H 0.39468 0.70761 0.54093 0.0
H315 H 0.35085 0.62564 0.52719 0.0
H316 H 0.19425 0.76788 0.5217 0.0
H317 H 0.23629 0.77795 0.43943 0.0
C318 C 0.80403 0.84157 0.47234 0.0
C319 C 0.80781 0.85571 0.44657 0.0
C320 C 0.78324 0.84845 0.4343 0.0
C321 C 0.76574 0.83042 0.45324 0.0
N322 N 0.77783 0.82601 0.47655 0.0
Co323 Co 0.76024 0.80108 0.50883 0.0
N324 N 0.73406 0.7786 0.48765 0.0
C325 C 0.72683 0.78789 0.46302 0.0
C326 C 0.70709 0.7689 0.45362 0.0
C327 C 0.70123 0.74653 0.47375 0.0
C328 C 0.71786 0.753 0.49442 0.0
N329 N 0.7429 0.77626 0.54147 0.0
C330 C 0.72678 0.7504 0.54381 0.0
C331 C 0.72074 0.74004 0.57079 0.0
C332 C 0.73222 0.76075 0.58574 0.0
C333 C 0.74511 0.78229 0.56722 0.0
N334 N 0.78657 0.82371 0.52985 0.0
C335 C 0.78338 0.82489 0.55686 0.0
C336 C 0.80629 0.83996 0.566 0.0
C337 C 0.82512 0.84876 0.54337 0.0
C338 C 0.81241 0.83899 0.52141 0.0
N339 N 0.72819 0.83027 0.51494 0.0
C340 C 0.6807 0.8705 0.51513 0.0
C341 C 0.67545 0.83982 0.51982 0.0
C342 C 0.69928 0.82029 0.52012 0.0
C343 C 0.7104 0.88078 0.51154 0.0
C344 C 0.73379 0.86033 0.51126 0.0
N345 N 0.7915 0.77178 0.50187 0.0
C346 C 0.82744 0.73676 0.5167 0.0
C347 C 0.83247 0.7267 0.49065 0.0
C348 C 0.81755 0.74052 0.47026 0.0
C349 C 0.79743 0.76294 0.4762 0.0
C350 C 0.80672 0.75933 0.52194 0.0
H351 H 0.78608 0.77258 0.45999 0.0
H352 H 0.80248 0.76619 0.54226 0.0
H353 H 0.69406 0.7969 0.52379 0.0
H354 H 0.75639 0.86875 0.50738 0.0
C355 C 0.74153 0.81261 0.44834 0.0
C356 C 0.82477 0.8448 0.49283 0.0
C357 C 0.71473 0.73652 0.52131 0.0
C358 C 0.7633 0.80567 0.57303 0.0
H359 H 0.82639 0.86971 0.4376 0.0
H360 H 0.77937 0.85443 0.41362 0.0
H361 H 0.69821 0.77088 0.43434 0.0
H362 H 0.6858 0.72807 0.47355 0.0
H363 H 0.70915 0.71974 0.57903 0.0
H364 H 0.73216 0.75961 0.60747 0.0
H365 H 0.8101 0.84224 0.58678 0.0
H366 H 0.84616 0.86014 0.54355 0.0
H367 H 0.65294 0.8309 0.52346 0.0
H368 H 0.71551 0.9044 0.50828 0.0
H369 H 0.83846 0.72646 0.53306 0.0
H370 H 0.8209 0.73348 0.44984 0.0
C371 C 0.48203 0.82564 0.89604 0.0
C372 C 0.45365 0.83502 0.90465 0.0
C373 C 0.43419 0.81492 0.89677 0.0
C374 C 0.45154 0.79453 0.88359 0.0
N375 N 0.48097 0.80008 0.8831 0.0
Co376 Co 0.5138 0.77751 0.86387 0.0
N377 N 0.48539 0.75502 0.84424 0.0
C378 C 0.4555 0.75749 0.84682 0.0
C379 C 0.44172 0.74043 0.83007 0.0
C380 C 0.46416 0.72619 0.81588 0.0
C381 C 0.49046 0.73513 0.82508 0.0
N382 N 0.54666 0.7544 0.84533 0.0
C383 C 0.54602 0.73347 0.82701 0.0
C384 C 0.57393 0.72163 0.82084 0.0
C385 C 0.59277 0.73555 0.83569 0.0
C386 C 0.57541 0.75493 0.85019 0.0
N387 N 0.54217 0.80167 0.8821 0.0
C388 C 0.57186 0.79815 0.8811 0.0
C389 C 0.586 0.81982 0.89317 0.0
C390 C 0.56414 0.83887 0.90165 0.0
C391 C 0.53782 0.82767 0.89425 0.0
N392 N 0.51017 0.74542 0.89405 0.0
C393 C 0.51346 0.68921 0.92237 0.0
C394 C 0.53588 0.71077 0.92231 0.0
C395 C 0.5336 0.73867 0.90849 0.0
C396 C 0.48773 0.6977 0.91109 0.0
C397 C 0.48629 0.72594 0.89773 0.0
N398 N 0.51777 0.8083 0.83371 0.0
C399 C 0.54863 0.8374 0.79877 0.0
C400 C 0.52352 0.84862 0.78794 0.0
C401 C 0.4955 0.84021 0.80116 0.0
C402 C 0.49315 0.82033 0.82399 0.0
C403 C 0.54527 0.81732 0.82149 0.0
H404 H 0.47124 0.81438 0.83315 0.0
H405 H 0.56515 0.80888 0.82865 0.0
H406 H 0.55164 0.75382 0.90904 0.0
H407 H 0.46596 0.73089 0.88975 0.0
C408 C 0.4411 0.77506 0.86606 0.0
C409 C 0.50928 0.84266 0.89885 0.0
C410 C 0.5195 0.72342 0.81559 0.0
C411 C 0.58584 0.77562 0.86672 0.0
H412 H 0.44736 0.85513 0.91428 0.0
H413 H 0.41024 0.81653 0.89832 0.0
H414 H 0.41816 0.7384 0.82852 0.0
H415 H 0.46139 0.71071 0.80069 0.0
H416 H 0.58004 0.70459 0.80711 0.0
H417 H 0.6164 0.7322 0.83565 0.0
H418 H 0.60955 0.82218 0.89461 0.0
H419 H 0.56728 0.85908 0.91159 0.0
H420 H 0.5559 0.7057 0.93161 0.0
H421 H 0.46902 0.68235 0.91193 0.0
H422 H 0.5708 0.84369 0.78953 0.0
H423 H 0.47533 0.84797 0.79341 0.0
C424 C 0.53892 0.29825 0.65797 0.0
C425 C 0.5676 0.30716 0.64782 0.0
C426 C 0.58534 0.28297 0.65203 0.0
C427 C 0.56655 0.26064 0.66443 0.0
N428 N 0.53822 0.2694 0.66801 0.0
Co429 Co 0.50431 0.24542 0.68681 0.0
N430 N 0.53053 0.21933 0.70694 0.0
C431 C 0.55964 0.2156 0.69934 0.0
C432 C 0.57212 0.19515 0.71623 0.0
C433 C 0.54938 0.18531 0.73546 0.0
C434 C 0.52412 0.20049 0.72941 0.0
N435 N 0.47021 0.22158 0.70573 0.0
C436 C 0.46833 0.20337 0.72888 0.0
C437 C 0.4392 0.19324 0.7358 0.0
C438 C 0.42298 0.20445 0.71582 0.0
C439 C 0.44271 0.2213 0.69793 0.0
N440 N 0.4786 0.27215 0.6667 0.0
C441 C 0.45046 0.26614 0.66255 0.0
C442 C 0.43761 0.29012 0.64997 0.0
C443 C 0.45904 0.31245 0.64624 0.0
C444 C 0.48392 0.30088 0.65672 0.0
N445 N 0.5071 0.21806 0.65769 0.0
C446 C 0.50857 0.17789 0.61699 0.0
C447 C 0.51013 0.20874 0.61041 0.0
C448 C 0.50973 0.22846 0.63107 0.0
C449 C 0.50638 0.16773 0.64429 0.0
C450 C 0.50543 0.18801 0.6642 0.0
N451 N 0.50113 0.27227 0.71549 0.0
C452 C 0.47165 0.30622 0.74148 0.0
C453 C 0.49728 0.31751 0.75048 0.0
C454 C 0.52469 0.30467 0.74283 0.0
C455 C 0.52612 0.28195 0.72534 0.0
C456 C 0.47405 0.28344 0.72408 0.0
H457 H 0.54751 0.27288 0.71905 0.0
H458 H 0.4541 0.27573 0.71676 0.0
H459 H 0.51123 0.25211 0.62557 0.0
H460 H 0.50291 0.17923 0.68496 0.0
C461 C 0.57511 0.23479 0.67888 0.0
C462 C 0.51253 0.317 0.65689 0.0
C463 C 0.49399 0.19405 0.74355 0.0
C464 C 0.43515 0.2417 0.67714 0.0
H465 H 0.57491 0.32891 0.63874 0.0
H466 H 0.60932 0.28246 0.64818 0.0
H467 H 0.59513 0.18864 0.71513 0.0
H468 H 0.55115 0.16841 0.75168 0.0
H469 H 0.43023 0.17952 0.75354 0.0
H470 H 0.39928 0.20193 0.71527 0.0
H471 H 0.41471 0.29201 0.64592 0.0
H472 H 0.45632 0.33479 0.63752 0.0
H473 H 0.51184 0.21752 0.58952 0.0
H474 H 0.50462 0.14412 0.65034 0.0
H475 H 0.45006 0.31548 0.74718 0.0
H476 H 0.54491 0.31229 0.7501 0.0
C477 C 0.86994 0.48147 0.76345 0.0
C478 C 0.88306 0.4543 0.76886 0.0
C479 C 0.87201 0.43466 0.75247 0.0
C480 C 0.85262 0.45073 0.73815 0.0
N481 N 0.85086 0.47923 0.74453 0.0
Co482 Co 0.82402 0.50961 0.73034 0.0
N483 N 0.79782 0.4788 0.71821 0.0
C484 C 0.80518 0.45031 0.71466 0.0
C485 C 0.78308 0.43426 0.70525 0.0
C486 C 0.7606 0.45399 0.70231 0.0
C487 C 0.77034 0.48113 0.71001 0.0
N488 N 0.79737 0.54037 0.71646 0.0
C489 C 0.76967 0.53759 0.70896 0.0
C490 C 0.7596 0.565 0.69947 0.0
C491 C 0.78196 0.58542 0.70077 0.0
C492 C 0.80439 0.56948 0.71091 0.0
N493 N 0.85051 0.54012 0.74223 0.0
C494 C 0.85242 0.56906 0.7334 0.0
C495 C 0.87252 0.58479 0.7458 0.0
C496 C 0.88383 0.56443 0.76357 0.0
C497 C 0.86984 0.53739 0.76105 0.0
N498 N 0.84751 0.51112 0.69436 0.0
C499 C 0.87821 0.50787 0.6421 0.0
C500 C 0.84738 0.51124 0.64601 0.0
C501 C 0.83266 0.51256 0.6719 0.0
C502 C 0.89363 0.50753 0.66513 0.0
C503 C 0.87786 0.50923 0.69106 0.0
N504 N 0.79992 0.50776 0.76578 0.0
C505 C 0.76907 0.532 0.80013 0.0
C506 C 0.75786 0.50438 0.8118 0.0
C507 C 0.76946 0.47855 0.80096 0.0
C508 C 0.79058 0.48069 0.77818 0.0
C509 C 0.79017 0.53321 0.77716 0.0
H510 H 0.79822 0.46036 0.76983 0.0
H511 H 0.79751 0.55477 0.76786 0.0
H512 H 0.80892 0.51411 0.6735 0.0
H513 H 0.89011 0.5084 0.70846 0.0
C514 C 0.83129 0.43869 0.72354 0.0
C515 C 0.87631 0.50928 0.77578 0.0
C516 C 0.75421 0.5091 0.70682 0.0
C517 C 0.83074 0.58146 0.7183 0.0
H518 H 0.89852 0.4489 0.78339 0.0
H519 H 0.87622 0.41104 0.75233 0.0
H520 H 0.78303 0.41088 0.70149 0.0
H521 H 0.73969 0.44909 0.69486 0.0
H522 H 0.73869 0.56962 0.6916 0.0
H523 H 0.78171 0.6091 0.69524 0.0
H524 H 0.8772 0.60852 0.74336 0.0
H525 H 0.90025 0.56895 0.77699 0.0
H526 H 0.83433 0.51267 0.62908 0.0
H527 H 0.91751 0.50515 0.66327 0.0
H528 H 0.7603 0.55248 0.80768 0.0
H529 H 0.7611 0.45678 0.80923 0.0
C530 C 0.19071 0.0579 0.76715 0.0
C531 C 0.18477 0.08598 0.77594 0.0
C532 C 0.19187 0.10591 0.75393 0.0
C533 C 0.2018 0.08893 0.73301 0.0
N534 N 0.20126 0.05967 0.7406 0.0
Co535 Co 0.21484 0.02734 0.7175 0.0
N536 N 0.23953 0.05537 0.69157 0.0
C537 C 0.23639 0.08514 0.68917 0.0
C538 C 0.25566 0.09883 0.66873 0.0
C539 C 0.27162 0.07623 0.65738 0.0
C540 C 0.26126 0.04986 0.67164 0.0
N541 N 0.22792 0.99482 0.69435 0.0
C542 C 0.25069 0.99418 0.67428 0.0
C543 C 0.25203 0.96638 0.66377 0.0
C544 C 0.22871 0.94964 0.67705 0.0
C545 C 0.2146 0.96781 0.69517 0.0
N546 N 0.19028 0.99959 0.74372 0.0
C547 C 0.18047 0.97235 0.73917 0.0
C548 C 0.16503 0.95808 0.76183 0.0
C549 C 0.16532 0.97764 0.78177 0.0
C550 C 0.18102 1.00274 0.7701 0.0
N551 N 0.18115 0.03412 0.69686 0.0
C552 C 0.13309 0.03876 0.66678 0.0
C553 C 0.12845 0.0379 0.69495 0.0
C554 C 0.15297 0.03613 0.70969 0.0
C555 C 0.16203 0.03834 0.65392 0.0
C556 C 0.18568 0.0357 0.66928 0.0
N557 N 0.24817 0.0205 0.73824 0.0
C558 C 0.27198 0.98764 0.76878 0.0
C559 C 0.28442 0.01222 0.77922 0.0
C560 C 0.28102 0.04067 0.76688 0.0
C561 C 0.263 0.0443 0.74617 0.0
C562 C 0.2539 0.99228 0.7481 0.0
H563 H 0.25935 0.06657 0.73796 0.0
H564 H 0.24286 0.97324 0.74153 0.0
H565 H 0.14909 0.03537 0.73145 0.0
H566 H 0.20754 0.03388 0.65872 0.0
C567 C 0.21781 0.09954 0.70846 0.0
C568 C 0.18571 0.0298 0.78393 0.0
C569 C 0.2698 0.02003 0.66352 0.0
C570 C 0.19197 0.95889 0.71584 0.0
H571 H 0.17662 0.09155 0.79614 0.0
H572 H 0.19158 0.12997 0.75369 0.0
H573 H 0.25813 0.12243 0.66298 0.0
H574 H 0.28835 0.07882 0.6401 0.0
H575 H 0.26802 0.95886 0.64808 0.0
H576 H 0.22335 0.92661 0.67444 0.0
H577 H 0.15616 0.93551 0.76408 0.0
H578 H 0.15543 0.97383 0.80251 0.0
H579 H 0.10617 0.03778 0.70541 0.0
H580 H 0.16621 0.03836 0.63211 0.0
H581 H 0.27448 0.9653 0.77772 0.0
H582 H 0.29102 0.0601 0.77411 0.0
C583 C 0.77763 0.18185 0.96992 0.0
C584 C 0.7768 0.17275 0.94406 0.0
C585 C 0.79973 0.18731 0.92817 0.0
C586 C 0.81299 0.20452 0.9452 0.0
N587 N 0.80058 0.20111 0.97113 0.0
Co588 Co 0.80959 0.22515 1.00164 0.0
N589 N 0.83942 0.25074 0.97753 0.0
C590 C 0.84905 0.24671 0.95143 0.0
C591 C 0.87215 0.26532 0.9408 0.0
C592 C 0.87798 0.28195 0.96146 0.0
C593 C 0.85773 0.27278 0.98356 0.0
N594 N 0.81681 0.2503 0.03189 0.0
C595 C 0.83525 0.27412 0.03227 0.0
C596 C 0.83196 0.2861 0.05731 0.0
C597 C 0.81156 0.26856 0.07354 0.0
C598 C 0.80319 0.24724 0.05749 0.0
N599 N 0.7811 0.19851 0.02604 0.0
C600 C 0.77565 0.19839 0.05319 0.0
C601 C 0.75412 0.17799 0.06415 0.0
C602 C 0.74486 0.16487 0.0426 0.0
C603 C 0.76129 0.17816 0.01974 0.0
N604 N 0.84298 0.19827 0.01028 0.0
C605 C 0.89364 0.16463 0.02206 0.0
C606 C 0.87652 0.17946 0.04197 0.0
C607 C 0.85149 0.19549 0.03586 0.0
C608 C 0.88435 0.16663 0.99615 0.0
C609 C 0.85933 0.18336 0.99075 0.0
N610 N 0.77654 0.25196 0.993 0.0
C611 C 0.7283 0.27301 1.00568 0.0
C612 C 0.72789 0.28772 0.97997 0.0
C613 C 0.75273 0.28413 0.96103 0.0
C614 C 0.77641 0.26621 0.96781 0.0
C615 C 0.75265 0.25581 0.01178 0.0
H616 H 0.79442 0.26405 0.9523 0.0
H617 H 0.7515 0.24547 0.03182 0.0
H618 H 0.83967 0.20573 0.0523 0.0
H619 H 0.85386 0.18393 0.97052 0.0
C620 C 0.83577 0.22545 0.93737 0.0
C621 C 0.75513 0.17337 0.9924 0.0
C622 C 0.85737 0.28495 0.01005 0.0
C623 C 0.78555 0.22211 0.06659 0.0
H624 H 0.76072 0.1579 0.93724 0.0
H625 H 0.80525 0.18646 0.90658 0.0
H626 H 0.88371 0.26634 0.92057 0.0
H627 H 0.8956 0.29853 0.96039 0.0
H628 H 0.8437 0.30504 0.06351 0.0
H629 H 0.8045 0.27048 0.09478 0.0
H630 H 0.7445 0.17487 0.08502 0.0
H631 H 0.72688 0.14869 0.04338 0.0
H632 H 0.88255 0.17932 0.06235 0.0
H633 H 0.89614 0.15519 0.97996 0.0
H634 H 0.70973 0.27425 0.02116 0.0
H635 H 0.75424 0.2953 0.941 0.0
C636 C 0.15479 0.04436 0.0784 0.0
N637 N 0.12603 0.04865 0.99831 0.0
C638 C 0.15338 0.05622 0.98518 0.0
C639 C 0.15989 0.05223 0.95748 0.0
C640 C 0.13799 0.04058 0.94305 0.0
C641 C 0.11052 0.03169 0.9575 0.0
C642 C 0.10501 0.03592 0.98509 0.0
Zn643 Zn 0.11294 0.06083 0.03732 0.0
C644 C 0.07795 1.00919 0.07108 0.0
N645 N 0.08184 0.08671 0.11688 0.0
C646 C 0.10268 0.10219 0.12818 0.0
C647 C 0.05307 0.08502 0.12831 0.0
C648 C 0.04421 0.1002 0.1514 0.0
C649 C 0.06507 0.11762 0.16249 0.0
C650 C 0.09472 0.11797 0.1509 0.0
Zn651 Zn 0.09483 0.07174 0.07918 0.0
O652 O 0.15389 0.04454 0.05284 0.0
C653 C 0.13318 0.12132 0.04545 0.0
O654 O 0.13291 0.05416 0.0931 0.0
H655 H 0.03674 0.07289 0.11892 0.0
H656 H 0.16978 0.06652 0.99589 0.0
H657 H 0.12544 0.10339 0.11892 0.0
O658 O 0.13385 0.10317 0.0271 0.0
O659 O 0.11865 0.11417 0.06839 0.0
H660 H 0.08339 0.03007 0.99573 0.0
O661 O 0.0558 0.08917 0.06511 0.0
O662 O 0.07149 0.07836 0.02386 0.0
O663 O 0.07323 0.02808 0.08899 0.0
O664 O 0.09266 0.01764 0.04847 0.0
C665 C 0.05151 0.08902 0.04043 0.0
H666 H 0.18133 0.05955 0.94722 0.0
H667 H 0.09309 0.02217 0.94741 0.0
H668 H 0.02108 0.09937 0.15977 0.0
H669 H 0.11157 0.13074 0.15908 0.0
C670 C 0.92415 0.5011 0.05304 0.0
N671 N 0.96008 0.50975 0.97018 0.0
C672 C 0.93098 0.50307 0.96838 0.0
C673 C 0.91889 0.50733 0.94394 0.0
C674 C 0.93672 0.51827 0.92048 0.0
C675 C 0.96681 0.5249 0.92259 0.0
C676 C 0.97808 0.52056 0.9478 0.0
Zn677 Zn 0.97415 0.49687 0.0079 0.0
C678 C 0.99925 0.54292 0.03729 0.0
N679 N 0.99504 0.46162 0.08539 0.0
C680 C 0.98867 0.47946 0.10611 0.0
C681 C 1.00712 0.43438 0.08957 0.0
C682 C 0.01248 0.4238 0.11556 0.0
C683 C 1.00544 0.44149 0.13744 0.0
C684 C 0.99384 0.46987 0.13231 0.0
Zn685 Zn 0.98439 0.47623 0.048 0.0
O686 O 0.93117 0.50943 0.02821 0.0
C687 C 0.95596 0.43155 0.0193 0.0
O688 O 0.94234 0.48632 0.06581 0.0
H689 H 0.012 0.42055 0.07282 0.0
H690 H 0.91702 0.49327 0.98576 0.0
H691 H 0.979 0.50102 0.10244 0.0
O692 O 0.95682 0.45458 1.00308 0.0
O693 O 0.96775 0.4327 0.04119 0.0
H694 H 1.0013 0.52517 0.94928 0.0
O695 O 0.02707 0.46637 0.03065 0.0
O696 O 0.01834 0.4834 0.98991 0.0
O697 O 0.99926 0.52012 0.05393 0.0
O698 O 0.99087 0.54004 0.01402 0.0
C699 C 0.03599 0.4714 1.00571 0.0
H700 H 0.89582 0.50114 0.94332 0.0
H701 H 0.98144 0.53332 0.905 0.0
H702 H 0.0211 0.40161 0.11858 0.0
H703 H 0.98846 0.48445 0.14844 0.0
C704 C 0.02345 0.9943 0.42485 0.0
N705 N 0.03561 0.91382 0.38596 0.0
C706 C 0.00896 0.91873 0.37642 0.0
C707 C 1.00229 0.90568 0.35328 0.0
C708 C 0.02316 0.88722 0.34031 0.0
C709 C 0.0508 0.88327 0.35006 0.0
C710 C 0.05668 0.89701 0.37301 0.0
Zn711 Zn 0.0433 0.92987 0.42119 0.0
C712 C 0.10263 0.96065 0.4147 0.0
N713 N 0.05814 0.96468 0.49491 0.0
C714 C 0.03616 0.98014 0.50835 0.0
C715 C 0.08329 0.95729 0.50616 0.0
C716 C 0.08654 0.96446 0.53236 0.0
C717 C 0.06397 0.97984 0.54679 0.0
C718 C 0.03881 0.98832 0.53444 0.0
Zn719 Zn 0.0516 0.94908 0.45881 0.0
O720 O 0.02247 0.97247 0.4099 0.0
C721 C 0.99082 0.91697 0.46226 0.0
O722 O 0.03449 0.99016 0.44697 0.0
H723 H 0.10052 0.94516 0.49507 0.0
H724 H 0.99256 0.93211 0.38718 0.0
H725 H 0.01624 0.98553 0.49909 0.0
O726 O 1.00176 0.91126 0.43875 0.0
O727 O 1.00631 0.93288 0.47592 0.0
H728 H 0.0778 0.89371 0.38083 0.0
O729 O 0.07034 0.90826 0.47123 0.0
O730 O 0.06652 0.88883 0.43291 0.0
O731 O 0.09634 0.96508 0.43973 0.0
O732 O 0.08361 0.94732 0.40291 0.0
C733 C 0.07597 0.8871 0.45609 0.0
H734 H 0.98072 0.909 0.34623 0.0
H735 H 0.06747 0.86934 0.34023 0.0
H736 H 0.10644 0.95801 0.54132 0.0
H737 H 0.02112 1.00034 0.54512 0.0
C738 C 0.9476 0.59841 0.45128 0.0
N739 N 0.03703 0.57151 0.44945 0.0
C740 C 0.0435 0.60013 0.43978 0.0
C741 C 0.06902 0.61461 0.44585 0.0
C742 C 0.08827 0.59969 0.4622 0.0
C743 C 0.08149 0.56987 0.47144 0.0
C744 C 0.05557 0.55615 0.46484 0.0
Zn745 Zn 0.99701 0.55402 0.44139 0.0
C746 C 0.96214 0.52506 0.4912 0.0
N747 N 0.91337 0.52154 0.42384 0.0
C748 C 0.89615 0.54018 0.40989 0.0
C749 C 0.90616 0.4921 0.4291 0.0
C750 C 0.88216 0.47988 0.41813 0.0
C751 C 0.86518 0.4984 0.40237 0.0
C752 C 0.87158 0.52905 0.39919 0.0
Zn753 Zn 0.95311 0.53744 0.43242 0.0
O754 O 0.97535 0.59541 0.45277 0.0
C755 C 0.98747 0.57014 0.38318 0.0
O756 O 0.9333 0.57742 0.44268 0.0
H757 H 0.92002 0.47773 0.44044 0.0
H758 H 0.02854 0.61207 0.42763 0.0
H759 H 0.90247 0.56339 0.40562 0.0
O760 O 1.00577 0.57202 0.40054 0.0
O761 O 0.9631 0.5558 0.39028 0.0
H762 H 0.04996 0.53347 0.47247 0.0
O763 O 0.97262 0.49651 0.42267 0.0
O764 O 0.01719 0.51124 0.42978 0.0
O765 O 0.94352 0.52102 0.47436 0.0
O766 O 0.98727 0.53712 0.48256 0.0
C767 C 0.99994 0.491 0.42309 0.0
H768 H 0.07355 0.63739 0.43784 0.0
H769 H 0.09559 0.55755 0.48425 0.0
H770 H 0.87783 0.45608 0.42077 0.0
H771 H 0.8592 0.54385 0.3867 0.0
C772 C 0.41749 0.99681 0.56509 0.0
N773 N 0.45245 0.99568 0.48143 0.0
C774 C 0.4233 0.99423 0.47714 0.0
C775 C 0.41475 0.999 0.45108 0.0
C776 C 0.43631 1.00474 0.42866 0.0
C777 C 0.46627 1.00651 0.43379 0.0
C778 C 0.47383 1.00207 0.46031 0.0
Zn779 Zn 0.46343 0.98285 0.52024 0.0
C780 C 0.4973 0.02785 0.54608 0.0
N781 N 0.48469 0.95127 0.59813 0.0
C782 C 0.46215 0.93921 0.616 0.0
C783 C 0.51228 0.95584 0.60559 0.0
C784 C 0.51798 0.94824 0.63208 0.0
C785 C 0.49491 0.93634 0.65097 0.0
C786 C 0.46676 0.93174 0.64271 0.0
Zn787 Zn 0.47561 0.96478 0.56037 0.0
O788 O 0.42161 1.00068 0.53936 0.0
C789 C 0.43978 0.92046 0.53622 0.0
O790 O 0.43651 0.98271 0.57741 0.0
H791 H 0.52978 0.96568 0.59108 0.0
H792 H 0.40649 0.98855 0.49388 0.0
H793 H 0.44044 0.93567 0.60961 0.0
O794 O 0.44114 0.94141 0.51765 0.0
O795 O 0.45314 0.92363 0.55696 0.0
H796 H 0.49693 1.00283 0.46384 0.0
O797 O 0.5153 0.94751 0.54436 0.0
O798 O 0.50677 0.96365 0.50346 0.0
O799 O 0.49712 1.00565 0.56329 0.0
O800 O 0.48494 0.02537 0.52455 0.0
C801 C 0.52371 0.95042 0.51929 0.0
H802 H 0.39133 0.99797 0.44865 0.0
H803 H 0.48398 1.01039 0.41744 0.0
H804 H 0.53999 0.95198 0.63785 0.0
H805 H 0.4486 0.92209 0.65669 0.0
C806 C 0.62119 0.52737 0.61493 0.0
N807 N 0.58981 0.52464 0.53733 0.0
C808 C 0.61845 0.52762 0.52567 0.0
C809 C 0.62575 0.52211 0.49847 0.0
C810 C 0.6033 0.51396 0.48301 0.0
C811 C 0.5742 0.50989 0.49584 0.0
C812 C 0.56796 0.51513 0.52316 0.0
Zn813 Zn 0.57813 0.54002 0.57508 0.0
C814 C 0.5422 0.49237 0.61259 0.0
N815 N 0.55187 0.57643 0.65209 0.0
C816 C 0.57567 0.59079 0.66012 0.0
C817 C 0.52415 0.57945 0.66533 0.0
C818 C 0.51964 0.59832 0.68677 0.0
C819 C 0.54382 0.61452 0.69425 0.0
C820 C 0.57214 0.60983 0.68105 0.0
Zn821 Zn 0.56137 0.55672 0.61535 0.0
O822 O 0.61838 0.52302 0.59034 0.0
C823 C 0.59989 0.60212 0.57658 0.0
O824 O 0.60074 0.54057 0.62865 0.0
H825 H 0.50533 0.5684 0.65851 0.0
H826 H 0.63547 0.53555 0.5371 0.0
H827 H 0.59751 0.58891 0.64931 0.0
O828 O 0.60139 0.58055 0.5615 0.0
O829 O 0.58415 0.59878 0.59946 0.0
H830 H 0.54536 0.51278 0.53272 0.0
O831 O 0.52139 0.57309 0.60139 0.0
O832 O 0.5373 0.55838 0.56141 0.0
O833 O 0.5401 0.51259 0.62961 0.0
O834 O 0.55549 0.49885 0.58897 0.0
C835 C 0.51753 0.57108 0.57671 0.0
H836 H 0.64843 0.5257 0.48928 0.0
H837 H 0.55631 0.50336 0.48467 0.0
H838 H 0.49736 0.60145 0.69636 0.0
H839 H 0.59142 0.62165 0.68625 0.0
C840 C 0.54346 0.51521 0.94746 0.0
N841 N 0.55195 0.44105 0.90219 0.0
C842 C 0.52458 0.44833 0.8953 0.0
C843 C 0.51695 0.44293 0.86989 0.0
C844 C 0.53775 0.42997 0.85154 0.0
C845 C 0.566 0.42316 0.85897 0.0
C846 C 0.57266 0.42885 0.88464 0.0
Zn847 Zn 0.56266 0.45204 0.93808 0.0
C848 C 0.62223 0.48185 0.92964 0.0
N849 N 0.58542 0.48038 0.0121 0.0
C850 C 0.56552 0.49389 0.02957 0.0
C851 C 0.61366 0.47529 0.01775 0.0
C852 C 0.62298 0.48409 0.04165 0.0
C853 C 0.6031 0.49834 0.05999 0.0
C854 C 0.57393 0.50304 0.05386 0.0
Zn855 Zn 0.5742 0.46762 0.97627 0.0
O856 O 0.5422 0.49475 0.93128 0.0
C857 C 0.51287 0.43683 0.98116 0.0
O858 O 0.55592 0.50982 0.96873 0.0
H859 H 0.62906 0.46436 1.00367 0.0
H860 H 0.50862 0.45833 0.90956 0.0
H861 H 0.54319 0.49775 0.02457 0.0
O862 O 0.52179 0.43394 0.95656 0.0
O863 O 0.52995 0.44996 0.99557 0.0
H864 H 0.59434 0.42351 0.89058 0.0
O865 O 0.59337 0.42598 0.9841 0.0
O866 O 0.58535 0.40961 0.94526 0.0
O867 O 0.61792 0.48456 0.95508 0.0
O868 O 0.60198 0.46972 0.91856 0.0
C869 C 0.59668 0.40585 0.96753 0.0
H870 H 0.49489 0.44825 0.86479 0.0
H871 H 0.58234 0.41248 0.84548 0.0
H872 H 0.6455 0.47947 0.04585 0.0
H873 H 0.55798 0.51401 0.06748 0.0
C874 C 0.45568 0.12571 0.9583 0.0
N875 N 0.54119 0.08962 0.95471 0.0
C876 C 0.55275 0.11703 0.94578 0.0
C877 C 0.58151 0.12507 0.95041 0.0
C878 C 0.59868 0.10476 0.96441 0.0
C879 C 0.58608 0.07668 0.97358 0.0
C880 C 0.55718 0.06955 0.9685 0.0
Zn881 Zn 0.49931 0.07852 0.9462 0.0
C882 C 0.46153 0.0478 0.99436 0.0
N883 N 0.41364 0.05476 0.92765 0.0
C884 C 0.39814 0.07634 0.91524 0.0
C885 C 0.4031 0.02621 0.9321 0.0
C886 C 0.37696 0.01798 0.92202 0.0
C887 C 0.36153 0.03952 0.90772 0.0
C888 C 0.37175 0.0692 0.90526 0.0
Zn889 Zn 0.45476 0.06533 0.93635 0.0
O890 O 0.48332 0.1209 0.95803 0.0
C891 C 0.49017 0.09953 0.88849 0.0
O892 O 0.4389 0.10611 0.95048 0.0
H893 H 0.41573 1.00951 0.94226 0.0
H894 H 0.53974 0.13265 0.93478 0.0
H895 H 0.40706 0.09882 0.91177 0.0
O896 O 0.5096 0.09845 0.90514 0.0
O897 O 0.46513 0.08659 0.89573 0.0
H898 H 0.54756 0.04791 0.97547 0.0
O899 O 0.47045 0.02389 0.9232 0.0
O900 O 0.51477 0.03464 0.93392 0.0
O901 O 0.44427 0.04545 0.97619 0.0
O902 O 0.48696 0.06037 0.98787 0.0
C903 C 0.49706 0.01635 0.92513 0.0
H904 H 0.59037 0.1468 0.94262 0.0
H905 H 0.59833 0.06044 0.98475 0.0
H906 H 0.36966 0.99485 0.92418 0.0
H907 H 0.36072 0.08632 0.8939 0.0
H908 H 0.99305 0.11858 0.36775 0.0
H909 H 0.03019 0.15012 0.43676 0.0
H910 H 0.03338 0.0988 0.45556 0.0
H911 H 0.03052 0.04505 0.45027 0.0
H912 H 0.99745 0.01328 0.37946 0.0
H913 H 0.98834 0.06469 0.3633 0.0
C914 C 1.00201 0.11439 0.38688 0.0
C915 C 0.01182 0.13856 0.40052 0.0
C916 C 1.00484 0.08468 0.3971 0.0
C917 C 0.02232 0.13232 0.42575 0.0
C918 C 0.02445 0.10285 0.43641 0.0
C919 C 0.021 0.04921 0.4314 0.0
C920 C 0.01479 0.0251 0.41606 0.0
C921 C 0.01649 0.07886 0.42194 0.0
C922 C 1.00251 0.03121 0.39168 0.0
C923 C 0.99735 0.06067 0.38241 0.0
H924 H 0.04072 0.37486 0.36479 0.0
H925 H 0.97851 0.33428 0.42883 0.0
H926 H 0.96995 0.3826 0.44742 0.0
H927 H 0.97784 0.43719 0.44411 0.0
H928 H 0.04424 0.47765 0.38378 0.0
H929 H 0.05403 0.4289 0.36553 0.0
C930 C 0.02536 0.37665 0.38286 0.0
C931 C 0.00883 0.35112 0.39438 0.0
C932 C 0.02155 0.40456 0.39428 0.0
C933 C 0.99 0.35371 0.41844 0.0
C934 C 0.98546 0.38135 0.42938 0.0
C935 C 0.99492 0.43521 0.42731 0.0
C936 C 0.0104 0.46106 0.41541 0.0
C937 C 1.00066 0.40704 0.41721 0.0
C938 C 0.03234 0.45812 0.39358 0.0
C939 C 0.0377 0.43023 0.38298 0.0
H940 H 0.06256 0.86794 0.07943 0.0
H941 H 0.00738 0.88531 0.15246 0.0
H942 H 0.0168 0.93889 0.14313 0.0
H943 H 0.0419 0.98139 0.11454 0.0
H944 H 0.09495 0.96338 0.04032 0.0
H945 H 0.08513 0.91026 0.04972 0.0
C946 C 0.0526 0.88345 0.0933 0.0
C947 C 0.03432 0.87239 0.11668 0.0
C948 C 0.05772 0.91446 0.08756 0.0
C949 C 0.02136 0.89304 0.13422 0.0
C950 C 0.02684 0.92379 0.12893 0.0
C951 C 0.05113 0.96588 0.10032 0.0
C952 C 0.06926 0.97681 0.07672 0.0
C953 C 0.0451 0.93487 0.10569 0.0
C954 C 0.08087 0.95605 0.05861 0.0
C955 C 0.07536 0.92542 0.06401 0.0
H956 H 0.00856 0.67786 0.06497 0.0
H957 H 0.0212 0.63513 0.14269 0.0
H958 H 0.01971 0.58616 0.12434 0.0
H959 H 0.01279 0.55561 0.0869 0.0
H960 H 0.99893 0.59761 0.00897 0.0
H961 H 1.00328 0.64674 0.02651 0.0
C962 C 0.01093 0.65772 0.07774 0.0
C963 C 0.01462 0.65983 0.10516 0.0
C964 C 0.00998 0.62963 0.067 0.0
C965 C 0.01809 0.63381 0.12159 0.0
C966 C 0.01729 0.60591 0.11109 0.0
C967 C 0.01104 0.57545 0.07356 0.0
C968 C 1.00553 0.5728 0.04659 0.0
C969 C 0.01302 0.60354 0.0839 0.0
C970 C 1.00326 0.5989 0.02977 0.0
C971 C 1.00558 0.62703 0.03984 0.0
H972 H 0.38966 1.00068 0.10545 0.0
H973 H 0.43795 0.07267 0.13437 0.0
H974 H 0.46505 0.08277 0.08935 0.0
H975 H 0.47356 0.07259 0.04081 0.0
H976 H 0.42311 1.0021 0.01204 0.0
H977 H 0.39904 0.98964 0.05776 0.0
C978 C 0.4064 0.01834 0.10207 0.0
C979 C 0.41164 0.03583 0.12351 0.0
C980 C 0.42173 0.02425 0.07598 0.0
C981 C 0.43311 0.05898 0.11836 0.0
C982 C 0.44878 0.06469 0.09256 0.0
C983 C 0.45773 0.05414 0.04469 0.0
C984 C 0.45042 0.03811 0.02296 0.0
C985 C 0.44314 0.04764 0.0711 0.0
C986 C 0.4293 0.01471 0.02831 0.0
C987 C 0.4154 1.00764 0.05449 0.0
H988 H 0.67223 0.52689 0.15707 0.0
H989 H 0.59145 0.49234 0.20286 0.0
H990 H 0.56816 0.48965 0.16088 0.0
H991 H 0.57359 0.49139 0.11087 0.0
H992 H 0.65513 0.52621 0.0661 0.0
H993 H 0.67541 0.53471 0.10814 0.0
C994 C 0.64932 0.51934 0.15791 0.0
C995 C 0.63358 0.50948 0.18282 0.0
C996 C 0.63645 0.51758 0.13391 0.0
C997 C 0.60389 0.49992 0.18376 0.0
C998 C 0.59072 0.49824 0.15981 0.0
C999 C 0.59552 0.50144 0.11036 0.0
C1000 C 0.61309 0.50761 0.08545 0.0
C1001 C 0.60716 0.50615 0.13469 0.0
C1002 C 0.64148 0.52061 0.08505 0.0
C1003 C 0.65305 0.52559 0.10905 0.0
H1004 H 0.41711 0.03228 0.30465 0.0
H1005 H 0.3407 0.97493 0.32888 0.0
H1006 H 0.35522 0.96793 0.37469 0.0
H1007 H 0.38943 0.97826 0.40788 0.0
H1008 H 0.46348 0.03947 0.38477 0.0
H1009 H 0.45017 0.04461 0.33876 0.0
C1010 C 0.40347 0.01858 0.3201 0.0
C1011 C 0.37762 1.00445 0.31345 0.0
C1012 C 0.41161 0.01522 0.34664 0.0
C1013 C 0.36059 0.98616 0.33352 0.0
C1014 C 0.36887 0.98221 0.35972 0.0
C1015 C 0.40251 0.99318 0.39307 0.0
C1016 C 0.42764 1.00834 0.4003 0.0
C1017 C 0.39426 0.99676 0.36659 0.0
C1018 C 0.44443 0.02693 0.38013 0.0
C1019 C 0.43667 0.03014 0.35367 0.0
H1020 H 0.61689 0.52377 0.35499 0.0
H1021 H 0.68916 0.4646 0.36706 0.0
H1022 H 0.67755 0.46503 0.41612 0.0
H1023 H 0.64737 0.48323 0.45578 0.0
H1024 H 0.57368 0.54058 0.44361 0.0
H1025 H 0.58508 0.53977 0.39463 0.0
C1026 C 0.62993 0.51088 0.36844 0.0
C1027 C 0.65377 0.49412 0.35751 0.0
C1028 C 0.62285 0.51092 0.39664 0.0
C1029 C 0.67049 0.4774 0.37507 0.0
C1030 C 0.66396 0.47777 0.4031 0.0
C1031 C 0.63382 0.49546 0.44235 0.0
C1032 C 0.60974 0.51195 0.4533 0.0
C1033 C 0.64028 0.49457 0.41415 0.0
C1034 C 0.59218 0.52751 0.43568 0.0
C1035 C 0.59877 0.52718 0.40767 0.0
H1036 H 0.15304 0.40555 0.96392 0.0
H1037 H 0.18335 0.44357 0.03309 0.0
H1038 H 0.13667 0.47018 0.04067 0.0
H1039 H 0.08534 0.4786 0.03043 0.0
H1040 H 0.05523 0.44299 0.96017 0.0
H1041 H 0.10371 0.4198 0.94994 0.0
C1042 C 0.14956 0.42008 0.98037 0.0
C1043 C 0.17165 0.42244 0.99803 0.0
C1044 C 0.12263 0.43559 0.98446 0.0
C1045 C 0.16689 0.44149 0.01913 0.0
C1046 C 0.14008 0.45656 0.02358 0.0
C1047 C 0.08961 0.46623 0.01256 0.0
C1048 C 0.06667 0.46239 0.99613 0.0
C1049 C 0.11754 0.45322 0.00677 0.0
C1050 C 0.07254 0.44646 0.973 0.0
C1051 C 0.1002 0.43299 0.96731 0.0
H1052 H 0.18807 0.68652 0.49315 0.0
H1053 H 0.24116 0.60866 0.48202 0.0
H1054 H 0.19762 0.58059 0.47169 0.0
H1055 H 0.1445 0.57874 0.46488 0.0
H1056 H 0.0914 0.65673 0.4771 0.0
H1057 H 0.13471 0.68419 0.48779 0.0
C1058 C 0.18995 0.66341 0.48839 0.0
C1059 C 0.21765 0.64971 0.48776 0.0
C1060 C 0.16483 0.64749 0.48263 0.0
C1061 C 0.22002 0.61969 0.48203 0.0
C1062 C 0.19515 0.60367 0.47626 0.0
C1063 C 0.14235 0.60163 0.47015 0.0
C1064 C 0.11471 0.61566 0.46991 0.0
C1065 C 0.16743 0.61738 0.47637 0.0
C1066 C 0.11245 0.64548 0.4766 0.0
C1067 C 0.1372 0.66121 0.48287 0.0
H1068 H 0.85469 0.89439 0.50761 0.0
H1069 H 0.86622 0.81979 0.45814 0.0
H1070 H 0.91802 0.83519 0.44432 0.0
H1071 H 0.9605 0.86944 0.44674 0.0
H1072 H 0.9507 0.94092 0.49997 0.0
H1073 H 0.89843 0.92636 0.5129 0.0
C1074 C 0.86874 0.88087 0.49452 0.0
C1075 C 0.85655 0.85529 0.4846 0.0
C1076 C 0.89904 0.88922 0.48751 0.0
C1077 C 0.8749 0.83932 0.46632 0.0
C1078 C 0.90463 0.84807 0.45851 0.0
C1079 C 0.94704 0.88173 0.46138 0.0
C1080 C 0.95976 0.90635 0.47234 0.0
C1081 C 0.91705 0.87287 0.46909 0.0
C1082 C 0.94179 0.92181 0.49133 0.0
C1083 C 0.91175 0.91358 0.49859 0.0
H1084 H 0.4111 0.62025 0.51362 0.0
H1085 H 0.39658 0.67078 0.58396 0.0
H1086 H 0.43776 0.64578 0.60329 0.0
H1087 H 0.47901 0.6107 0.59986 0.0
H1088 H 0.49595 0.56191 0.5286 0.0
H1089 H 0.45304 0.58486 0.51014 0.0
C1090 C 0.41686 0.62556 0.53327 0.0
C1091 C 0.40068 0.64741 0.54732 0.0
C1092 C 0.44118 0.61145 0.5441 0.0
C1093 C 0.40869 0.65424 0.57263 0.0
C1094 C 0.43226 0.6399 0.58373 0.0
C1095 C 0.47326 0.60489 0.58035 0.0
C1096 C 0.49079 0.58441 0.56576 0.0
C1097 C 0.44885 0.61864 0.56959 0.0
C1098 C 0.483 0.57754 0.54035 0.0
C1099 C 0.45838 0.59069 0.52976 0.0
H1100 H 0.50008 0.6387 0.89901 0.0
H1101 H 0.5368 0.66915 0.96854 0.0
H1102 H 0.54766 0.61783 0.98317 0.0
H1103 H 0.54912 0.56469 0.97498 0.0
H1104 H 0.51368 0.53427 0.90475 0.0
H1105 H 0.49952 0.58513 0.89189 0.0
C1106 C 0.50998 0.63406 0.91763 0.0
C1107 C 0.5176 0.6578 0.93266 0.0
C1108 C 0.51649 0.6045 0.92575 0.0
C1109 C 0.53094 0.65139 0.95647 0.0
C1110 C 0.53709 0.62202 0.96488 0.0
C1111 C 0.53804 0.56907 0.95698 0.0
C1112 C 0.53256 0.5456 0.94083 0.0
C1113 C 0.53036 0.59845 0.94947 0.0
C1114 C 0.51824 0.55184 0.91755 0.0
C1115 C 0.51017 0.58096 0.91015 0.0
H1116 H 0.53107 0.89527 0.8725 0.0
H1117 H 0.48502 0.85911 0.94809 0.0
H1118 H 0.47819 0.90936 0.96332 0.0
H1119 H 0.48251 0.96406 0.95405 0.0
H1120 H 0.53106 1.00064 0.87983 0.0
H1121 H 0.54 0.95017 0.86522 0.0
C1122 C 0.51977 0.89848 0.89238 0.0
C1123 C 0.50777 0.87349 0.90884 0.0
C1124 C 0.5164 0.92761 0.90123 0.0
C1125 C 0.49373 0.87796 0.93477 0.0
C1126 C 0.48991 0.90672 0.94352 0.0
C1127 C 0.49551 0.96088 0.93489 0.0
C1128 C 0.50632 0.986 0.9181 0.0
C1129 C 0.5007 0.93176 0.92677 0.0
C1130 C 0.52286 0.98164 0.89323 0.0
C1131 C 0.52779 0.95276 0.88482 0.0
H1132 H 0.50435 0.35573 0.61301 0.0
H1133 H 0.52945 0.35377 0.6937 0.0
H1134 H 0.5382 0.4079 0.68887 0.0
H1135 H 0.5414 0.45619 0.66041 0.0
H1136 H 0.51817 0.45676 0.57897 0.0
H1137 H 0.50561 0.40374 0.58547 0.0
C1138 C 0.51118 0.36724 0.6297 0.0
C1139 C 0.51573 0.3506 0.65389 0.0
C1140 C 0.51658 0.39851 0.62659 0.0
C1141 C 0.52549 0.36595 0.67498 0.0
C1142 C 0.53054 0.397 0.67218 0.0
C1143 C 0.53298 0.44485 0.64432 0.0
C1144 C 0.53051 0.4609 0.61924 0.0
C1145 C 0.52644 0.41366 0.64796 0.0
C1146 C 0.52021 0.44532 0.59849 0.0
C1147 C 0.51311 0.41479 0.60215 0.0
H1148 H 0.54247 0.12903 0.61144 0.0
H1149 H 0.47311 0.17722 0.57599 0.0
H1150 H 0.46639 0.13642 0.54701 0.0
H1151 H 0.4757 0.08385 0.53657 0.0
H1152 H 0.54419 0.03592 0.57382 0.0
H1153 H 0.55615 0.07976 0.59679 0.0
C1154 C 0.52621 0.13077 0.59705 0.0
C1155 C 0.5081 0.15593 0.59607 0.0
C1156 C 0.52226 0.10713 0.58078 0.0
C1157 C 0.48736 0.1581 0.57709 0.0
C1158 C 0.4834 0.13466 0.56065 0.0
C1159 C 0.49387 0.08341 0.549 0.0
C1160 C 0.50903 0.05664 0.5535 0.0
C1161 C 0.50011 0.10863 0.5629 0.0
C1162 C 0.5322 0.05623 0.57005 0.0
C1163 C 0.53892 0.08124 0.58336 0.0
H1164 H 0.93269 0.53031 0.618 0.0
H1165 H 0.85759 0.47681 0.60265 0.0
H1166 H 0.87723 0.47619 0.55537 0.0
H1167 H 0.91375 0.49378 0.51719 0.0
H1168 H 0.99033 0.54501 0.53239 0.0
H1169 H 0.97248 0.54295 0.58049 0.0
C1170 C 0.92085 0.51808 0.60447 0.0
C1171 C 0.89314 0.50438 0.61405 0.0
C1172 C 0.93253 0.51741 0.57698 0.0
C1173 C 0.87839 0.48852 0.59593 0.0
C1174 C 0.88972 0.48793 0.56876 0.0
C1175 C 0.92678 0.50414 0.53105 0.0
C1176 C 0.95329 0.51968 0.52093 0.0
C1177 C 0.91641 0.50285 0.55887 0.0
C1178 C 0.96987 0.53282 0.53941 0.0
C1179 C 0.95958 0.5318 0.56703 0.0
H1180 H 0.10471 0.98803 0.66106 0.0
H1181 H 0.10971 0.08106 0.63415 0.0
H1182 H 0.0827 0.07115 0.59572 0.0
H1183 H 0.06718 0.03451 0.56536 0.0
H1184 H 0.06873 0.94086 0.58977 0.0
H1185 H 0.08339 0.95215 0.6337 0.0
C1186 C 0.09865 1.00618 0.64735 0.0
C1187 C 0.10862 0.03518 0.65032 0.0
C1188 C 0.08499 0.99995 0.62453 0.0
C1189 C 0.10166 0.05865 0.63224 0.0
C1190 C 0.08664 0.05289 0.61015 0.0
C1191 C 0.06999 0.01676 0.58068 0.0
C1192 C 0.06719 0.98699 0.5746 0.0
C1193 C 0.07962 0.02343 0.60536 0.0
C1194 C 0.07106 0.96393 0.59423 0.0
C1195 C 0.07943 0.97038 0.61923 0.0
H1196 H 0.85658 0.53001 0.82402 0.0
H1197 H 0.93317 0.49141 0.78172 0.0
H1198 H 0.9594 0.49206 0.82208 0.0
H1199 H 0.95979 0.50206 0.87033 0.0
H1200 H 0.88327 0.54219 0.91177 0.0
H1201 H 0.85809 0.54282 0.87105 0.0
C1202 C 0.87899 0.52168 0.82375 0.0
C1203 C 0.89255 0.50972 0.80027 0.0
C1204 C 0.89406 0.52256 0.84693 0.0
C1205 C 0.92187 0.49969 0.79989 0.0
C1206 C 0.93697 0.50035 0.8229 0.0
C1207 C 0.9378 0.51137 0.87031 0.0
C1208 C 0.92342 0.52181 0.89429 0.0
C1209 C 0.92321 0.51151 0.84668 0.0
C1210 C 0.89478 0.53359 0.89382 0.0
C1211 C 0.88031 0.53399 0.87049 0.0
H1212 H 0.13676 0.04643 0.81565 0.0
H1213 H 0.22436 0.01155 0.81921 0.0
H1214 H 0.21818 0.01218 0.8687 0.0
H1215 H 0.18738 0.02283 0.91118 0.0
H1216 H 0.09913 0.05672 0.90695 0.0
H1217 H 0.10578 0.05605 0.85788 0.0
C1218 C 0.1544 0.039 0.82739 0.0
C1219 C 0.18116 0.0294 0.81399 0.0
C1220 C 0.15045 0.0391 0.85579 0.0
C1221 C 0.20378 0.0194 0.82924 0.0
C1222 C 0.20017 0.0197 0.85749 0.0
C1223 C 0.16966 0.03015 0.8995 0.0
C1224 C 0.1427 0.03964 0.91294 0.0
C1225 C 0.17359 0.02962 0.87105 0.0
C1226 C 0.11992 0.04883 0.89735 0.0
C1227 C 0.12375 0.04863 0.86919 0.0
H1228 H 0.63355 0.87027 0.48495 0.0
H1229 H 0.67014 0.91734 0.54625 0.0
H1230 H 0.62582 0.94803 0.55109 0.0
H1231 H 0.57486 0.95851 0.54083 0.0
H1232 H 0.53853 0.91382 0.47809 0.0
H1233 H 0.58457 0.88557 0.47046 0.0
C1234 C 0.63191 0.88752 0.49912 0.0
C1235 C 0.65511 0.89135 0.5154 0.0
C1236 C 0.6064 0.90551 0.50148 0.0
C1237 C 0.65276 0.91397 0.53347 0.0
C1238 C 0.62733 0.93145 0.5363 0.0
C1239 C 0.5773 0.94307 0.52502 0.0
C1240 C 0.5533 0.93833 0.50997 0.0
C1241 C 0.60381 0.92706 0.52079 0.0
C1242 C 0.55675 0.91819 0.48967 0.0
C1243 C 0.58299 0.90181 0.48555 0.0
H1244 H 0.73534 0.11982 0.97879 0.0
H1245 H 0.70686 0.20818 0.99571 0.0
H1246 H 0.65579 0.19489 0.98886 0.0
H1247 H 0.61931 0.15798 0.9784 0.0
H1248 H 0.64773 0.06951 0.96089 0.0
H1249 H 0.69857 0.08274 0.96796 0.0
C1250 C 0.71785 0.13605 0.98079 0.0
C1251 C 0.72458 0.16493 0.98748 0.0
C1252 C 0.68858 0.12817 0.97691 0.0
C1253 C 0.70195 0.18587 0.9904 0.0
C1254 C 0.67285 0.17826 0.98652 0.0
C1255 C 0.63665 0.14165 0.97588 0.0
C1256 C 0.62961 0.11278 0.9691 0.0
C1257 C 0.66589 0.14947 0.97977 0.0
C1258 C 0.65235 0.09177 0.96643 0.0
C1259 C 0.68152 0.09938 0.97029 0.0
H1260 H 0.39394 0.3613 0.01491 0.0
H1261 H 0.35857 0.43466 0.9691 0.0
H1262 H 0.40727 0.45961 0.96276 0.0
H1263 H 0.46101 0.45922 0.96751 0.0
H1264 H 0.49634 0.38825 0.01604 0.0
H1265 H 0.44691 0.3641 0.02451 0.0
C1266 C 0.39695 0.38279 1.00362 0.0
C1267 C 0.37283 0.39536 0.99134 0.0
C1268 C 0.42507 0.39761 1.00077 0.0
C1269 C 0.37695 0.42373 0.97762 0.0
C1270 C 0.40479 0.43821 0.97423 0.0
C1271 C 0.45767 0.43886 0.98055 0.0
C1272 C 0.48227 0.42581 0.9915 0.0
C1273 C 0.42916 0.42517 0.98529 0.0
C1274 C 0.47772 0.39911 0.00789 0.0
C1275 C 0.44946 0.38514 0.01246 0.0
H1276 H 0.9457 0.15521 0.98903 0.0
H1277 H 0.90276 0.13399 0.06999 0.0
H1278 H 0.94722 0.1095 0.08239 0.0
H1279 H 0.99886 0.09492 0.07116 0.0
H1280 H 0.04126 0.11192 0.98976 0.0
H1281 H 0.99635 0.1364 0.97661 0.0
C1282 C 0.94574 0.14489 0.00929 0.0
C1283 C 0.92064 0.14737 0.0286 0.0
C1284 C 0.97143 0.12988 0.0163 0.0
C1285 C 0.92171 0.13368 0.05477 0.0
C1286 C 0.94718 0.11926 0.06191 0.0
C1287 C 0.99829 0.10386 0.05047 0.0
C1288 C 0.02359 0.10176 0.03154 0.0
C1289 C 0.97229 0.11753 0.04299 0.0
C1290 C 0.02218 0.11315 1.00476 0.0
C1291 C 0.99649 0.12728 0.99726 0.0
H1292 H 0.02187 0.17777 0.27062 0.0
H1293 H 0.06645 0.25391 0.22608 0.0
H1294 H 0.07919 0.22415 0.1872 0.0
H1295 H 0.07819 0.17614 0.16629 0.0
H1296 H 0.03161 0.1006 0.2102 0.0
H1297 H 0.01852 0.13051 0.24879 0.0
C1298 C 0.03395 0.18789 0.25219 0.0
C1299 C 0.04294 0.21804 0.25095 0.0
C1300 C 0.04079 0.17074 0.22991 0.0
C1301 C 0.05911 0.23082 0.22727 0.0
C1302 C 0.06641 0.2138 0.20515 0.0
C1303 C 0.0652 0.16625 0.18435 0.0
C1304 C 0.05607 0.13612 0.1855 0.0
C1305 C 0.0575 0.18369 0.20629 0.0
C1306 C 0.03882 0.12373 0.20882 0.0
C1307 C 0.03144 0.1408 0.2309 0.0
H1308 H 0.99356 0.39275 0.25981 0.0
H1309 H 0.07436 0.34895 0.23179 0.0
H1310 H 0.07509 0.37582 0.18757 0.0
H1311 H 0.05017 0.408 0.15548 0.0
H1312 H 0.96722 0.44848 0.18281 0.0
H1313 H 0.96997 0.42664 0.22847 0.0
C1314 C 0.0114 0.38914 0.24407 0.0
C1315 C 0.03371 0.36864 0.24915 0.0
C1316 C 0.01117 0.40388 0.21838 0.0
C1317 C 0.05704 0.3648 0.22865 0.0
C1318 C 0.0573 0.37991 0.20319 0.0
C1319 C 0.03268 0.41202 0.17141 0.0
C1320 C 0.00848 0.42978 0.16559 0.0
C1321 C 0.03404 0.39886 0.19761 0.0
C1322 C 0.98631 0.43522 0.18667 0.0
C1323 C 0.98773 0.42256 0.21281 0.0
H1324 H 0.9974 0.83493 0.23171 0.0
H1325 H 0.02001 0.75383 0.27523 0.0
H1326 H 0.02482 0.78087 0.31551 0.0
H1327 H 0.02612 0.82817 0.33678 0.0
H1328 H 1.00335 0.90948 0.29355 0.0
H1329 H 0.9946 0.88182 0.25448 0.0
C1330 C 1.00281 0.8233 0.25027 0.0
C1331 C 0.00836 0.79272 0.25095 0.0
C1332 C 1.0057 0.839 0.27305 0.0
C1333 C 0.0156 0.77747 0.2747 0.0
C1334 C 0.01846 0.79289 0.29751 0.0
C1335 C 0.01915 0.83971 0.31877 0.0
C1336 C 0.01576 0.87067 0.3176 0.0
C1337 C 0.01418 0.82373 0.29668 0.0
C1338 C 1.00616 0.88557 0.2946 0.0
C1339 C 1.00125 0.86983 0.27236 0.0
H1340 H 0.03135 0.6549 0.27905 0.0
H1341 H 0.95389 0.61715 0.25014 0.0
H1342 H 0.94344 0.58648 0.29248 0.0
H1343 H 0.95559 0.57074 0.33876 0.0
H1344 H 0.03467 0.6072 0.36589 0.0
H1345 H 0.04523 0.63703 0.32331 0.0
C1346 C 0.01245 0.63962 0.28158 0.0
C1347 C 0.99345 0.63888 0.261 0.0
C1348 C 1.00672 0.62151 0.30597 0.0
C1349 C 0.96876 0.61904 0.26547 0.0
C1350 C 0.96281 0.60117 0.28977 0.0
C1351 C 0.97525 0.58503 0.33529 0.0
C1352 C 0.99419 0.58652 0.35585 0.0
C1353 C 0.98148 0.60234 0.31035 0.0
C1354 C 0.01958 0.60531 0.3507 0.0
C1355 C 0.02569 0.62258 0.32624 0.0
H1356 H 0.27613 0.02454 0.12872 0.0
H1357 H 0.21448 1.00217 0.19955 0.0
H1358 H 0.17274 1.0072 0.17247 0.0
H1359 H 0.15371 0.02156 0.12972 0.0
H1360 H 0.21415 0.04461 0.05812 0.0
H1361 H 0.25657 0.03513 0.08414 0.0
C1362 C 0.25351 0.02042 0.13797 0.0
C1363 C 0.24814 0.01303 0.16602 0.0
C1364 C 0.22957 0.02349 0.12217 0.0
C1365 C 0.21892 1.0078 0.178 0.0
C1366 C 0.19515 1.01074 0.16254 0.0
C1367 C 0.17618 0.0242 0.11964 0.0
C1368 C 0.18077 0.034 0.09203 0.0
C1369 C 0.20018 0.01909 0.13475 0.0
C1370 C 0.21001 0.03696 0.07928 0.0
C1371 C 0.23423 0.03178 0.09425 0.0
H1372 H 0.83023 0.53423 0.14674 0.0
H1373 H 0.78001 0.46513 0.11577 0.0
H1374 H 0.81826 0.46255 0.07725 0.0
H1375 H 0.86897 0.47613 0.05527 0.0
H1376 H 0.91901 0.54468 0.08709 0.0
H1377 H 0.87787 0.55173 0.12205 0.0
C1378 C 0.82758 0.51881 0.1314 0.0
C1379 C 0.80255 0.49964 0.13425 0.0
C1380 C 0.84964 0.51749 0.10937 0.0
C1381 C 0.7991 0.4801 0.11402 0.0
C1382 C 0.82102 0.47856 0.09204 0.0
C1383 C 0.87028 0.49329 0.06931 0.0
C1384 C 0.89659 0.51031 0.06843 0.0
C1385 C 0.84673 0.49668 0.08981 0.0
C1386 C 0.89862 0.53184 0.08716 0.0
C1387 C 0.87527 0.53562 0.10731 0.0
H1388 H 0.2265 0.01127 0.35335 0.0
H1389 H 0.19921 0.95439 0.29415 0.0
H1390 H 0.15422 0.94011 0.32365 0.0
H1391 H 0.12265 0.94311 0.3656 0.0
H1392 H 0.14775 0.99861 0.4266 0.0
H1393 H 0.1936 0.01384 0.39725 0.0
C1394 C 0.21058 0.99587 0.34696 0.0
C1395 C 0.21645 0.98377 0.32151 0.0
C1396 C 0.18446 0.98736 0.36437 0.0
C1397 C 0.1956 0.96374 0.31364 0.0
C1398 C 0.16975 0.95559 0.3305 0.0
C1399 C 0.13798 0.95864 0.3727 0.0
C1400 C 0.13147 0.9698 0.39838 0.0
C1401 C 0.16402 0.96714 0.35586 0.0
C1402 C 0.15206 0.98961 0.40703 0.0
C1403 C 0.17825 0.99838 0.39015 0.0
H1404 H 0.80893 0.46105 0.30209 0.0
H1405 H 0.73596 0.51145 0.33715 0.0
H1406 H 0.76121 0.51632 0.37762 0.0
H1407 H 0.80718 0.51146 0.39985 0.0
H1408 H 0.87842 0.45838 0.3654 0.0
H1409 H 0.84998 0.44779 0.32832 0.0
C1410 C 0.79791 0.4718 0.31914 0.0
C1411 C 0.77052 0.48544 0.31704 0.0
C1412 C 0.81225 0.474 0.34233 0.0
C1413 C 0.75704 0.50062 0.33865 0.0
C1414 C 0.77145 0.50344 0.36166 0.0
C1415 C 0.81592 0.49682 0.38463 0.0
C1416 C 0.84473 0.48578 0.38509 0.0
C1417 C 0.79949 0.49096 0.36334 0.0
C1418 C 0.85612 0.46687 0.36542 0.0
C1419 C 0.84004 0.46111 0.34409 0.0
H1420 H 0.23767 0.21711 0.03688 0.0
H1421 H 0.18077 0.26444 0.98559 0.0
H1422 H 0.14506 0.22276 0.99208 0.0
H1423 H 0.12942 0.17249 0.01297 0.0
H1424 H 0.18306 0.12846 0.06917 0.0
H1425 H 0.22011 0.16905 0.06072 0.0
C1426 C 0.21752 0.21815 0.02702 0.0
C1427 C 0.21256 0.24343 0.0099 0.0
C1428 C 0.19619 0.19475 0.03211 0.0
C1429 C 0.18585 0.2448 0.99793 0.0
C1430 C 0.16517 0.22109 1.00194 0.0
C1431 C 0.14912 0.17204 0.02349 0.0
C1432 C 0.15354 0.14764 0.04173 0.0
C1433 C 0.17002 0.19592 0.01903 0.0
C1434 C 0.17911 0.1472 0.05525 0.0
C1435 C 0.20037 0.17032 0.0503 0.0
H1436 H 0.17304 0.81114 0.50966 0.0
H1437 H 0.18835 0.77949 0.42968 0.0
H1438 H 0.14743 0.80934 0.41567 0.0
H1439 H 0.10791 0.84651 0.4255 0.0
H1440 H 0.09169 0.87497 0.50655 0.0
H1441 H 0.13122 0.84351 0.52065 0.0
C1442 C 0.16729 0.81002 0.48928 0.0
C1443 C 0.18458 0.79293 0.47089 0.0
C1444 C 0.14306 0.82672 0.4814 0.0
C1445 C 0.17643 0.79281 0.44438 0.0
C1446 C 0.15262 0.80974 0.43631 0.0
C1447 C 0.1126 0.84534 0.44637 0.0
C1448 C 0.09661 0.86336 0.46482 0.0
C1449 C 0.13585 0.82707 0.45456 0.0
C1450 C 0.10343 0.86158 0.49175 0.0
C1451 C 0.12627 0.84362 0.4999 0.0
H1452 H 0.89191 0.7177 0.49507 0.0
H1453 H 0.8132 0.67617 0.47216 0.0
H1454 H 0.84186 0.63334 0.458 0.0
H1455 H 0.88892 0.60829 0.45078 0.0
H1456 H 0.9689 0.6485 0.47254 0.0
H1457 H 0.94028 0.69128 0.48825 0.0
C1458 C 0.88114 0.69905 0.48726 0.0
C1459 C 0.85046 0.70003 0.48467 0.0
C1460 C 0.898 0.67446 0.47866 0.0
C1461 C 0.83676 0.67592 0.47427 0.0
C1462 C 0.85314 0.65146 0.46611 0.0
C1463 C 0.90029 0.62635 0.45891 0.0
C1464 C 0.93115 0.62511 0.46034 0.0
C1465 C 0.88376 0.65064 0.46791 0.0
C1466 C 0.94524 0.64885 0.47106 0.0
C1467 C 0.92883 0.67329 0.48013 0.0
H1468 H 0.37164 0.79635 0.54179 0.0
H1469 H 0.32001 0.84604 0.48729 0.0
H1470 H 0.35139 0.89043 0.48925 0.0
H1471 H 0.39385 0.91477 0.50619 0.0
H1472 H 0.44394 0.86564 0.5626 0.0
H1473 H 0.4128 0.82135 0.56033 0.0
C1474 C 0.36704 0.81711 0.53075 0.0
C1475 C 0.34337 0.81825 0.51473 0.0
C1476 C 0.38502 0.84246 0.53217 0.0
C1477 C 0.33791 0.84493 0.5 0.0
C1478 C 0.35591 0.87018 0.50103 0.0
C1479 C 0.39806 0.89431 0.51787 0.0
C1480 C 0.42139 0.89341 0.53434 0.0
C1481 C 0.37964 0.86914 0.51693 0.0
C1482 C 0.42621 0.86689 0.5497 0.0
C1483 C 0.40839 0.84157 0.54844 0.0
H1484 H 0.54535 0.72724 0.76356 0.0
H1485 H 0.4981 0.66623 0.82409 0.0
H1486 H 0.49985 0.62735 0.79188 0.0
H1487 H 0.51542 0.6105 0.74613 0.0
H1488 H 0.56395 0.67172 0.68634 0.0
H1489 H 0.56103 0.7105 0.71825 0.0
C1490 C 0.53556 0.70536 0.76961 0.0
C1491 C 0.52157 0.69955 0.79606 0.0
C1492 C 0.53679 0.68313 0.751 0.0
C1493 C 0.50893 0.67116 0.80376 0.0
C1494 C 0.5099 0.64898 0.78534 0.0
C1495 C 0.5251 0.63242 0.74011 0.0
C1496 C 0.53994 0.63814 0.71387 0.0
C1497 C 0.52374 0.65468 0.75883 0.0
C1498 C 0.55261 0.66662 0.70645 0.0
C1499 C 0.55096 0.68886 0.72469 0.0
H1500 H 0.49003 0.89593 0.77415 0.0
H1501 H 0.56302 0.8425 0.74317 0.0
H1502 H 0.56316 0.86823 0.69858 0.0
H1503 H 0.53846 0.90124 0.66714 0.0
H1504 H 0.46267 0.95123 0.69717 0.0
H1505 H 0.46736 0.93122 0.74333 0.0
C1506 C 0.506 0.88993 0.75766 0.0
C1507 C 0.52624 0.8671 0.76198 0.0
C1508 C 0.5052 0.90395 0.73182 0.0
C1509 C 0.54732 0.86016 0.74054 0.0
C1510 C 0.54724 0.87465 0.71492 0.0
C1511 C 0.52339 0.90814 0.68392 0.0
C1512 C 0.50019 0.92745 0.67897 0.0
C1513 C 0.52573 0.89593 0.71017 0.0
C1514 C 0.48053 0.93612 0.70067 0.0
C1515 C 0.48321 0.92471 0.72697 0.0
H1516 H 0.53337 0.36601 0.74602 0.0
H1517 H 0.45715 0.32433 0.79433 0.0
H1518 H 0.45936 0.36109 0.82772 0.0
H1519 H 0.48849 0.39835 0.84679 0.0
H1520 H 0.56763 0.4369 0.80083 0.0
H1521 H 0.55876 0.40813 0.7626 0.0
C1522 C 0.51714 0.36521 0.76379 0.0
C1523 C 0.49561 0.34226 0.76819 0.0
C1524 C 0.51924 0.38564 0.78327 0.0
C1525 C 0.47405 0.3418 0.79071 0.0
C1526 C 0.4754 0.36266 0.80983 0.0
C1527 C 0.50321 0.40121 0.82806 0.0
C1528 C 0.52879 0.4193 0.82651 0.0
C1529 C 0.49866 0.38378 0.80684 0.0
C1530 C 0.54796 0.42271 0.80236 0.0
C1531 C 0.54297 0.40624 0.78065 0.0
H1532 H 0.51761 0.19922 0.7914 0.0
H1533 H 0.46444 0.13965 0.75193 0.0
H1534 H 0.4575 0.10608 0.79288 0.0
H1535 H 0.46632 0.09332 0.8406 0.0
H1536 H 0.52535 0.14939 0.87771 0.0
H1537 H 0.53068 0.18387 0.8373 0.0
C1538 C 0.5044 0.17893 0.79181 0.0
C1539 C 0.49025 0.17297 0.76886 0.0
C1540 C 0.50185 0.15871 0.81511 0.0
C1541 C 0.47418 0.14591 0.7696 0.0
C1542 C 0.47059 0.12634 0.79299 0.0
C1543 C 0.48054 0.11296 0.83976 0.0
C1544 C 0.49534 0.11862 0.86241 0.0
C1545 C 0.48416 0.13253 0.816 0.0
C1546 C 0.51383 0.14418 0.86069 0.0
C1547 C 0.51676 0.16411 0.83756 0.0
H1548 H 0.7472 0.5005 0.65445 0.0
H1549 H 0.69892 0.51975 0.73037 0.0
H1550 H 0.65309 0.52516 0.70875 0.0
H1551 H 0.62767 0.52704 0.66813 0.0
H1552 H 0.67534 0.50885 0.59142 0.0
H1553 H 0.72054 0.49986 0.61351 0.0
C1554 C 0.72644 0.50542 0.66619 0.0
C1555 C 0.72611 0.50948 0.69396 0.0
C1556 C 0.70029 0.50874 0.6535 0.0
C1557 C 0.69942 0.51631 0.70906 0.0
C1558 C 0.67335 0.51947 0.69668 0.0
C1559 C 0.64785 0.52092 0.65613 0.0
C1560 C 0.6481 0.51881 0.62803 0.0
C1561 C 0.67363 0.51613 0.66888 0.0
C1562 C 0.67447 0.5106 0.61302 0.0
C1563 C 0.70034 0.5056 0.62565 0.0
H1564 H 0.32845 0.03265 0.66243 0.0
H1565 H 0.26406 1.00274 0.61265 0.0
H1566 H 0.30358 0.99575 0.57595 0.0
H1567 H 0.35759 0.9945 0.55936 0.0
H1568 H 0.42105 0.02555 0.60978 0.0
H1569 H 0.38109 0.03647 0.6443 0.0
C1570 C 0.32316 0.02472 0.64347 0.0
C1571 C 0.29362 0.01722 0.64056 0.0
C1572 C 0.34593 0.02123 0.62238 0.0
C1573 C 0.28685 1.0077 0.61566 0.0
C1574 C 0.30942 1.00393 0.5946 0.0
C1575 C 0.36247 1.00442 0.57757 0.0
C1576 C 0.39224 1.00925 0.58198 0.0
C1577 C 0.3392 1.01014 0.59784 0.0
C1578 C 0.3983 0.02165 0.60592 0.0
C1579 C 0.37548 0.02773 0.62579 0.0
H1580 H 0.75079 0.51292 0.86663 0.0
H1581 H 0.70346 0.49054 0.80028 0.0
H1582 H 0.6575 0.48373 0.83063 0.0
H1583 H 0.63122 0.48202 0.87545 0.0
H1584 H 0.67657 0.50184 0.94378 0.0
H1585 H 0.72275 0.51218 0.91327 0.0
C1586 C 0.73028 0.50678 0.85897 0.0
C1587 C 0.73041 0.5022 0.83123 0.0
C1588 C 0.70369 0.50244 0.87683 0.0
C1589 C 0.70383 0.49411 0.82149 0.0
C1590 C 0.67757 0.49022 0.83884 0.0
C1591 C 0.65106 0.48871 0.88395 0.0
C1592 C 0.65026 0.49098 0.91208 0.0
C1593 C 0.67732 0.494 0.86649 0.0
C1594 C 0.67639 0.49992 0.9223 0.0
C1595 C 0.70284 0.5057 0.90482 0.0
H1596 H 0.27047 0.04163 0.82362 0.0
H1597 H 0.32901 0.97487 0.79114 0.0
H1598 H 0.35503 0.97332 0.83173 0.0
H1599 H 0.36506 0.99632 0.873 0.0
H1600 H 0.30732 0.06436 0.90441 0.0
H1601 H 0.27617 0.05945 0.86792 0.0
C1602 C 0.28877 0.02656 0.82562 0.0
C1603 C 0.29841 1.00887 0.80442 0.0
C1604 C 0.30347 0.02594 0.84877 0.0
C1605 C 0.3216 0.9889 0.80724 0.0
C1606 C 0.33638 0.98803 0.83037 0.0
C1607 C 0.34506 1.00929 0.87236 0.0
C1608 C 0.33845 0.03079 0.89111 0.0
C1609 C 0.32802 1.00711 0.85086 0.0
C1610 C 0.31277 0.0478 0.88999 0.0
C1611 C 0.29518 0.04517 0.86907 0.0
H1612 H 0.6626 0.73 0.55515 0.0
H1613 H 0.72106 0.68254 0.49972 0.0
H1614 H 0.68994 0.6374 0.51058 0.0
H1615 H 0.64746 0.61063 0.5377 0.0
H1616 H 0.59165 0.65718 0.59612 0.0
H1617 H 0.62057 0.7031 0.58273 0.0
C1618 C 0.66862 0.70969 0.54559 0.0
C1619 C 0.69447 0.70951 0.52695 0.0
C1620 C 0.65117 0.68354 0.5527 0.0
C1621 C 0.70149 0.68322 0.51426 0.0
C1622 C 0.68373 0.65738 0.52057 0.0
C1623 C 0.64148 0.63086 0.54742 0.0
C1624 C 0.61719 0.63033 0.56789 0.0
C1625 C 0.65873 0.65713 0.54004 0.0
C1626 C 0.61012 0.65679 0.58038 0.0
C1627 C 0.62667 0.68313 0.57268 0.0
H1628 H 0.69057 0.31995 0.01391 0.0
H1629 H 0.70623 0.29893 0.93048 0.0
H1630 H 0.66616 0.3317 0.91927 0.0
H1631 H 0.62749 0.36852 0.9328 0.0
H1632 H 0.61126 0.38664 0.01689 0.0
H1633 H 0.64962 0.35207 0.02803 0.0
C1634 C 0.68503 0.32181 0.99331 0.0
C1635 C 0.70209 0.30681 0.97318 0.0
C1636 C 0.66139 0.34023 0.98699 0.0
C1637 C 0.69437 0.31052 0.94652 0.0
C1638 C 0.67108 0.32913 0.94005 0.0
C1639 C 0.63191 0.36439 0.95363 0.0
C1640 C 0.61635 0.38041 0.9739 0.0
C1641 C 0.65453 0.3444 0.96007 0.0
C1642 C 0.62278 0.37487 1.00075 0.0
C1643 C 0.64492 0.35511 0.00721 0.0
H1644 H 0.40869 0.25496 0.97654 0.0
H1645 H 0.33548 0.204 0.02041 0.0
H1646 H 0.36184 0.15772 0.01235 0.0
H1647 H 0.40374 0.13166 0.98928 0.0
H1648 H 0.47854 0.18219 0.94774 0.0
H1649 H 0.45376 0.22883 0.95849 0.0
C1650 C 0.39887 0.23369 0.98472 0.0
C1651 C 0.37023 0.23274 0.99898 0.0
C1652 C 0.4143 0.2072 0.98017 0.0
C1653 C 0.35762 0.20519 0.00958 0.0
C1654 C 0.37257 0.17876 1.00479 0.0
C1655 C 0.41469 0.15294 0.98286 0.0
C1656 C 0.44267 0.15367 0.96747 0.0
C1657 C 0.40058 0.17948 0.98956 0.0
C1658 C 0.45695 0.18121 0.95959 0.0
C1659 C 0.44275 0.20781 0.96564 0.0
H1660 H 0.86382 0.33999 0.98461 0.0
H1661 H 0.89943 0.28275 0.0454 0.0
H1662 H 0.93371 0.32274 0.05394 0.0
H1663 H 0.95267 0.37488 0.04449 0.0
H1664 H 0.91852 0.42981 0.98081 0.0
H1665 H 0.88524 0.38981 0.97269 0.0
C1666 C 0.87937 0.33624 0.99948 0.0
C1667 C 0.87917 0.30868 0.01439 0.0
C1668 C 0.89941 0.35892 1.0037 0.0
C1669 C 0.89922 0.30399 0.03377 0.0
C1670 C 0.9188 0.32678 0.03859 0.0
C1671 C 0.93814 0.37793 0.02871 0.0
C1672 C 0.93815 0.40544 0.01344 0.0
C1673 C 0.91902 0.35449 0.02375 0.0
C1674 C 0.91919 0.40894 0.99293 0.0
C1675 C 0.89994 0.38609 0.98826 0.0
loop_
_geom_bond_atom_site_label_1
_geom_bond_atom_site_label_2
_geom_bond_distance
_geom_bond_site_symmetry_2
_ccdc_geom_bond_type
C0 C1 1.443 . S
C0 N4 1.376 . S
C0 C38 1.389 . S
C1 C0 1.443 . S
C1 C2 1.340 . S
C1 H41 0.951 . S
C2 C1 1.340 . S
C2 C3 1.439 . S
C2 H42 0.950 . S
C3 C2 1.439 . S
C3 N4 1.374 . S
C3 C37 1.395 . S
N4 C0 1.376 . S
N4 C3 1.374 . S
N4 Co5 2.008 1_655 S
Co5 N4 2.008 1_455 S
Co5 N6 1.995 1_455 S
Co5 N11 2.008 . S
Co5 N16 1.995 . S
Co5 N21 2.282 . S
Co5 N27 2.282 . S
N6 Co5 1.995 1_655 S
N6 C7 1.376 . S
N6 C10 1.383 . S
C7 N6 1.376 . S
C7 C8 1.446 . S
C7 C37 1.391 . S
C8 C7 1.446 . S
C8 C9 1.339 . S
C8 H43 0.949 . S
C9 C8 1.339 . S
C9 C10 1.439 . S
C9 H44 0.950 . S
C10 N6 1.383 . S
C10 C9 1.439 . S
C10 C39 1.392 1_655 S
N11 Co5 2.008 . S
N11 C12 1.376 . S
N11 C15 1.374 . S
C12 N11 1.376 . S
C12 C13 1.443 . S
C12 C39 1.389 . S
C13 C12 1.443 . S
C13 C14 1.340 . S
C13 H45 0.951 . S
C14 C13 1.340 . S
C14 C15 1.439 . S
C14 H46 0.950 . S
C15 N11 1.374 . S
C15 C14 1.439 . S
C15 C40 1.395 . S
N16 Co5 1.995 . S
N16 C17 1.376 . S
N16 C20 1.383 . S
C17 N16 1.376 . S
C17 C18 1.446 . S
C17 C40 1.391 . S
C18 C17 1.446 . S
C18 C19 1.339 . S
C18 H47 0.949 . S
C19 C18 1.339 . S
C19 C20 1.439 . S
C19 H48 0.950 . S
C20 N16 1.383 . S
C20 C19 1.439 . S
C20 C38 1.392 1_455 S
N21 Co5 2.282 . S
N21 C24 1.332 . S
N21 C26 1.332 1_455 S
C22 C23 1.386 . S
C22 C25 1.388 1_455 S
C23 C22 1.386 . S
C23 C24 1.382 . S
C23 H49 0.950 . S
C24 N21 1.332 . S
C24 C23 1.382 . S
C24 H35 0.952 . S
C25 C22 1.388 1_655 S
C25 C26 1.382 . S
C25 H50 0.950 . S
C26 N21 1.332 1_655 S
C26 C25 1.382 . S
C26 H36 0.948 . S
N27 Co5 2.282 . S
N27 C31 1.332 1_455 S
N27 C32 1.332 . S
C28 C29 1.388 1_455 S
C28 C32 1.382 . S
C28 H51 0.950 . S
C29 C28 1.388 1_655 S
C29 C30 1.386 . S
C30 C29 1.386 . S
C30 C31 1.382 . S
C30 H52 0.950 . S
C31 N27 1.332 1_655 S
C31 C30 1.382 . S
C31 H33 0.952 . S
C32 N27 1.332 . S
C32 C28 1.382 . S
C32 H34 0.948 . S
H33 C31 0.952 . S
H34 C32 0.948 . S
H35 C24 0.952 . S
H36 C26 0.948 . S
C37 C3 1.395 . S
C37 C7 1.391 . S
C38 C0 1.389 . S
C38 C20 1.392 1_655 S
C39 C10 1.392 1_455 S
C39 C12 1.389 . S
C40 C15 1.395 . S
C40 C17 1.391 . S
H41 C1 0.951 . S
H42 C2 0.950 . S
H43 C8 0.949 . S
H44 C9 0.950 . S
H45 C13 0.951 . S
H46 C14 0.950 . S
H47 C18 0.949 . S
H48 C19 0.950 . S
H49 C23 0.950 . S
H50 C25 0.950 . S
H51 C28 0.950 . S
H52 C30 0.950 . S
C53 C54 1.443 . S
C53 N57 1.376 . S
C53 C91 1.371 1_655 S
C54 C53 1.443 . S
C54 C55 1.340 . S
C54 H94 0.951 . S
C55 C54 1.340 . S
C55 C56 1.439 . S
C55 H95 0.950 . S
C56 C55 1.439 . S
C56 N57 1.374 . S
C56 C90 1.395 . S
N57 C53 1.376 . S
N57 C56 1.374 . S
N57 Co58 2.008 1_655 S
Co58 N57 2.008 1_455 S
Co58 N59 1.995 1_455 S
Co58 N64 2.008 . S
Co58 N69 1.995 . S
Co58 N74 2.282 . S
Co58 N80 2.282 . S
N59 Co58 1.995 1_655 S
N59 C60 1.376 . S
N59 C63 1.383 . S
C60 N59 1.376 . S
C60 C61 1.446 . S
C60 C90 1.391 . S
C61 C60 1.446 . S
C61 C62 1.339 . S
C61 H96 0.949 . S
C62 C61 1.339 . S
C62 C63 1.439 . S
C62 H97 0.950 . S
C63 N59 1.383 . S
C63 C62 1.439 . S
C63 C92 1.392 1_655 S
N64 Co58 2.008 . S
N64 C65 1.376 . S
N64 C68 1.374 . S
C65 N64 1.376 . S
C65 C66 1.443 . S
C65 C92 1.389 . S
C66 C65 1.443 . S
C66 C67 1.340 . S
C66 H98 0.951 . S
C67 C66 1.340 . S
C67 C68 1.439 . S
C67 H99 0.950 . S
C68 N64 1.374 . S
C68 C67 1.439 . S
C68 C93 1.395 . S
N69 Co58 1.995 . S
N69 C70 1.376 . S
N69 C73 1.383 . S
C70 N69 1.376 . S
C70 C71 1.446 . S
C70 C93 1.391 . S
C71 C70 1.446 . S
C71 C72 1.339 . S
C71 H100 0.949 . S
C72 C71 1.339 . S
C72 C73 1.439 . S
C72 H101 0.950 . S
C73 N69 1.383 . S
C73 C72 1.439 . S
C73 C91 1.413 . S
N74 Co58 2.282 . S
N74 C77 1.332 . S
N74 C79 1.321 1_455 S
C75 C76 1.386 . S
C75 C78 1.388 . S
C76 C75 1.386 . S
C76 C77 1.382 . S
C76 H102 0.950 . S
C77 N74 1.332 . S
C77 C76 1.382 . S
C77 H88 0.952 . S
C78 C75 1.388 . S
C78 C79 1.380 1_455 S
C78 H103 0.950 1_455 S
C79 N74 1.321 1_655 S
C79 C78 1.380 1_655 S
C79 H89 0.962 . S
N80 Co58 2.282 . S
N80 C84 1.332 1_455 S
N80 C85 1.332 . S
C81 C82 1.388 1_455 S
C81 C85 1.382 . S
C81 H104 0.950 . S
C82 C81 1.388 1_655 S
C82 C83 1.386 . S
C83 C82 1.386 . S
C83 C84 1.382 . S
C83 H105 0.950 . S
C84 N80 1.332 1_655 S
C84 C83 1.382 . S
C84 H86 0.952 . S
C85 N80 1.332 . S
C85 C81 1.382 . S
C85 H87 0.948 . S
H86 C84 0.952 . S
H87 C85 0.948 . S
H88 C77 0.952 . S
H89 C79 0.962 . S
C90 C56 1.395 . S
C90 C60 1.391 . S
C91 C53 1.371 1_455 S
C91 C73 1.413 . S
C92 C63 1.392 1_455 S
C92 C65 1.389 . S
C93 C68 1.395 . S
C93 C70 1.391 . S
H94 C54 0.951 . S
H95 C55 0.950 . S
H96 C61 0.949 . S
H97 C62 0.950 . S
H98 C66 0.951 . S
H99 C67 0.950 . S
H100 C71 0.949 . S
H101 C72 0.950 . S
H102 C76 0.950 . S
H103 C78 0.950 1_655 S
H104 C81 0.950 . S
H105 C83 0.950 . S
C106 C107 1.443 . S
C106 N110 1.376 . S
C106 C144 1.389 . S
C107 C106 1.443 . S
C107 C108 1.340 . S
C107 H147 0.951 . S
C108 C107 1.340 . S
C108 C109 1.439 . S
C108 H148 0.950 . S
C109 C108 1.439 . S
C109 N110 1.374 . S
C109 C143 1.395 . S
N110 C106 1.376 . S
N110 C109 1.374 . S
N110 Co111 2.008 1_565 S
Co111 N110 2.008 1_545 S
Co111 N112 1.995 1_545 S
Co111 N117 2.008 . S
Co111 N122 1.995 . S
Co111 N127 2.282 . S
Co111 N133 2.282 . S
N112 Co111 1.995 1_565 S
N112 C113 1.376 . S
N112 C116 1.383 . S
C113 N112 1.376 . S
C113 C114 1.446 . S
C113 C143 1.391 . S
C114 C113 1.446 . S
C114 C115 1.339 . S
C114 H149 0.949 . S
C115 C114 1.339 . S
C115 C116 1.439 . S
C115 H150 0.950 . S
C116 N112 1.383 . S
C116 C115 1.439 . S
C116 C145 1.392 1_565 S
N117 Co111 2.008 . S
N117 C118 1.376 . S
N117 C121 1.374 . S
C118 N117 1.376 . S
C118 C119 1.443 . S
C118 C145 1.389 . S
C119 C118 1.443 . S
C119 C120 1.340 . S
C119 H151 0.951 . S
C120 C119 1.340 . S
C120 C121 1.439 . S
C120 H152 0.950 . S
C121 N117 1.374 . S
C121 C120 1.439 . S
C121 C146 1.395 . S
N122 Co111 1.995 . S
N122 C123 1.376 . S
N122 C126 1.383 . S
C123 N122 1.376 . S
C123 C124 1.446 . S
C123 C146 1.391 . S
C124 C123 1.446 . S
C124 C125 1.339 . S
C124 H153 0.949 . S
C125 C124 1.339 . S
C125 C126 1.439 . S
C125 H154 0.950 . S
C126 N122 1.383 . S
C126 C125 1.439 . S
C126 C144 1.392 1_545 S
N127 Co111 2.282 . S
N127 C130 1.332 . S
N127 C132 1.335 1_545 S
C128 C129 1.386 . S
C128 C131 1.388 . S
C129 C128 1.386 . S
C129 C130 1.382 . S
C129 H155 0.950 . S
C130 N127 1.332 . S
C130 C129 1.382 . S
C130 H141 0.952 . S
C131 C128 1.388 . S
C131 C132 1.383 1_545 S
C131 H156 0.950 1_545 S
C132 N127 1.335 1_565 S
C132 C131 1.383 1_565 S
C132 H142 0.945 . S
N133 Co111 2.282 . S
N133 C137 1.332 1_545 S
N133 C138 1.332 . S
C134 C135 1.388 1_545 S
C134 C138 1.382 . S
C134 H157 0.950 . S
C135 C134 1.388 1_565 S
C135 C136 1.386 . S
C136 C135 1.386 . S
C136 C137 1.382 . S
C136 H158 0.950 . S
C137 N133 1.332 1_565 S
C137 C136 1.382 . S
C137 H139 0.952 . S
C138 N133 1.332 . S
C138 C134 1.382 . S
C138 H140 0.948 . S
H139 C137 0.952 . S
H140 C138 0.948 . S
H141 C130 0.952 . S
H142 C132 0.945 . S
C143 C109 1.395 . S
C143 C113 1.391 . S
C144 C106 1.389 . S
C144 C126 1.392 1_565 S
C145 C116 1.392 1_545 S
C145 C118 1.389 . S
C146 C121 1.395 . S
C146 C123 1.391 . S
H147 C107 0.951 . S
H148 C108 0.950 . S
H149 C114 0.949 . S
H150 C115 0.950 . S
H151 C119 0.951 . S
H152 C120 0.950 . S
H153 C124 0.949 . S
H154 C125 0.950 . S
H155 C129 0.950 . S
H156 C131 0.950 1_565 S
H157 C134 0.950 . S
H158 C136 0.950 . S
C159 C160 1.443 . S
C159 N163 1.376 . S
C159 C197 1.389 . S
C160 C159 1.443 . S
C160 C161 1.340 . S
C160 H200 0.951 . S
C161 C160 1.340 . S
C161 C162 1.439 . S
C161 H201 0.950 . S
C162 C161 1.439 . S
C162 N163 1.374 . S
C162 C196 1.395 . S
N163 C159 1.376 . S
N163 C162 1.374 . S
N163 Co164 2.008 . S
Co164 N163 2.008 . S
Co164 N165 1.995 . S
Co164 N170 2.008 . S
Co164 N175 1.995 . S
Co164 N180 2.282 . S
Co164 N186 2.282 . S
N165 Co164 1.995 . S
N165 C166 1.376 . S
N165 C169 1.383 . S
C166 N165 1.376 . S
C166 C167 1.446 . S
C166 C196 1.391 . S
C167 C166 1.446 . S
C167 C168 1.339 . S
C167 H202 0.949 . S
C168 C167 1.339 . S
C168 C169 1.439 . S
C168 H203 0.950 . S
C169 N165 1.383 . S
C169 C168 1.439 . S
C169 C198 1.392 . S
N170 Co164 2.008 . S
N170 C171 1.376 . S
N170 C174 1.374 . S
C171 N170 1.376 . S
C171 C172 1.443 . S
C171 C198 1.389 . S
C172 C171 1.443 . S
C172 C173 1.340 . S
C172 H204 0.951 . S
C173 C172 1.340 . S
C173 C174 1.439 . S
C173 H205 0.950 . S
C174 N170 1.374 . S
C174 C173 1.439 . S
C174 C199 1.395 . S
N175 Co164 1.995 . S
N175 C176 1.376 . S
N175 C179 1.383 . S
C176 N175 1.376 . S
C176 C177 1.446 . S
C176 C199 1.391 . S
C177 C176 1.446 . S
C177 C178 1.339 . S
C177 H206 0.949 . S
C178 C177 1.339 . S
C178 C179 1.439 . S
C178 H207 0.950 . S
C179 N175 1.383 . S
C179 C178 1.439 . S
C179 C197 1.392 . S
N180 Co164 2.282 . S
N180 C183 1.332 . S
N180 C185 1.332 . S
C181 C182 1.386 . S
C181 C184 1.388 . S
C182 C181 1.386 . S
C182 C183 1.382 . S
C182 H208 0.950 . S
C183 N180 1.332 . S
C183 C182 1.382 . S
C183 H194 0.952 . S
C184 C181 1.388 . S
C184 C185 1.382 . S
C184 H209 0.950 . S
C185 N180 1.332 . S
C185 C184 1.382 . S
C185 H195 0.948 . S
N186 Co164 2.282 . S
N186 C190 1.332 . S
N186 C191 1.332 . S
C187 C188 1.388 . S
C187 C191 1.382 . S
C187 H210 0.950 . S
C188 C187 1.388 . S
C188 C189 1.386 . S
C189 C188 1.386 . S
C189 C190 1.382 . S
C189 H211 0.950 . S
C190 N186 1.332 . S
C190 C189 1.382 . S
C190 H192 0.952 . S
C191 N186 1.332 . S
C191 C187 1.382 . S
C191 H193 0.948 . S
H192 C190 0.952 . S
H193 C191 0.948 . S
H194 C183 0.952 . S
H195 C185 0.948 . S
C196 C162 1.395 . S
C196 C166 1.391 . S
C197 C159 1.389 . S
C197 C179 1.392 . S
C198 C169 1.392 . S
C198 C171 1.389 . S
C199 C174 1.395 . S
C199 C176 1.391 . S
H200 C160 0.951 . S
H201 C161 0.950 . S
H202 C167 0.949 . S
H203 C168 0.950 . S
H204 C172 0.951 . S
H205 C173 0.950 . S
H206 C177 0.949 . S
H207 C178 0.950 . S
H208 C182 0.950 . S
H209 C184 0.950 . S
H210 C187 0.950 . S
H211 C189 0.950 . S
C212 C213 1.443 . S
C212 N216 1.376 . S
C212 C250 1.389 . S
C213 C212 1.443 . S
C213 C214 1.340 . S
C213 H253 0.951 . S
C214 C213 1.340 . S
C214 C215 1.439 . S
C214 H254 0.950 . S
C215 C214 1.439 . S
C215 N216 1.374 . S
C215 C249 1.395 . S
N216 C212 1.376 . S
N216 C215 1.374 . S
N216 Co217 2.008 1_556 S
Co217 N216 2.008 1_554 S
Co217 N218 1.995 1_554 S
Co217 N223 2.008 . S
Co217 N228 1.995 . S
Co217 N233 2.282 . S
Co217 N239 2.282 1_554 S
N218 Co217 1.995 1_556 S
N218 C219 1.376 . S
N218 C222 1.383 . S
C219 N218 1.376 . S
C219 C220 1.446 . S
C219 C249 1.391 . S
C220 C219 1.446 . S
C220 C221 1.339 . S
C220 H255 0.949 . S
C221 C220 1.339 . S
C221 C222 1.439 . S
C221 H256 0.950 . S
C222 N218 1.383 . S
C222 C221 1.439 . S
C222 C251 1.392 1_556 S
N223 Co217 2.008 . S
N223 C224 1.376 . S
N223 C227 1.374 . S
C224 N223 1.376 . S
C224 C225 1.443 . S
C224 C251 1.389 . S
C225 C224 1.443 . S
C225 C226 1.340 . S
C225 H257 0.951 . S
C226 C225 1.340 . S
C226 C227 1.439 . S
C226 H258 0.950 . S
C227 N223 1.374 . S
C227 C226 1.439 . S
C227 C252 1.395 . S
N228 Co217 1.995 . S
N228 C229 1.376 . S
N228 C232 1.383 . S
C229 N228 1.376 . S
C229 C230 1.446 . S
C229 C252 1.391 . S
C230 C229 1.446 . S
C230 C231 1.339 . S
C230 H259 0.949 . S
C231 C230 1.339 . S
C231 C232 1.439 . S
C231 H260 0.950 . S
C232 N228 1.383 . S
C232 C231 1.439 . S
C232 C250 1.392 1_554 S
N233 Co217 2.282 . S
N233 C236 1.332 . S
N233 C238 1.332 1_554 S
C234 C235 1.386 . S
C234 C237 1.388 1_554 S
C235 C234 1.386 . S
C235 C236 1.382 . S
C235 H261 0.950 . S
C236 N233 1.332 . S
C236 C235 1.382 . S
C236 H247 0.952 . S
C237 C234 1.388 1_556 S
C237 C238 1.382 . S
C237 H262 0.950 . S
C238 N233 1.332 1_556 S
C238 C237 1.382 . S
C238 H248 0.948 . S
N239 Co217 2.282 1_556 S
N239 C243 1.332 . S
N239 C244 1.332 1_556 S
C240 C241 1.388 1_554 S
C240 C244 1.382 . S
C240 H263 0.950 . S
C241 C240 1.388 1_556 S
C241 C242 1.386 . S
C242 C241 1.386 . S
C242 C243 1.382 . S
C242 H264 0.950 . S
C243 N239 1.332 . S
C243 C242 1.382 . S
C243 H245 0.952 . S
C244 N239 1.332 1_554 S
C244 C240 1.382 . S
C244 H246 0.948 . S
H245 C243 0.952 . S
H246 C244 0.948 . S
H247 C236 0.952 . S
H248 C238 0.948 . S
C249 C215 1.395 . S
C249 C219 1.391 . S
C250 C212 1.389 . S
C250 C232 1.392 1_556 S
C251 C222 1.392 1_554 S
C251 C224 1.389 . S
C252 C227 1.395 . S
C252 C229 1.391 . S
H253 C213 0.951 . S
H254 C214 0.950 . S
H255 C220 0.949 . S
H256 C221 0.950 . S
H257 C225 0.951 . S
H258 C226 0.950 . S
H259 C230 0.949 . S
H260 C231 0.950 . S
H261 C235 0.950 . S
H262 C237 0.950 . S
H263 C240 0.950 . S
H264 C242 0.950 . S
C265 C266 1.443 . S
C265 N269 1.376 . S
C265 C303 1.389 . S
C266 C265 1.443 . S
C266 C267 1.340 . S
C266 H306 0.951 . S
C267 C266 1.340 . S
C267 C268 1.439 . S
C267 H307 0.950 . S
C268 C267 1.439 . S
C268 N269 1.374 . S
C268 C302 1.395 . S
N269 C265 1.376 . S
N269 C268 1.374 . S
N269 Co270 2.008 . S
Co270 N269 2.008 . S
Co270 N271 1.995 . S
Co270 N276 2.008 . S
Co270 N281 1.995 . S
Co270 N286 2.282 . S
Co270 N292 2.282 . S
N271 Co270 1.995 . S
N271 C272 1.376 . S
N271 C275 1.383 . S
C272 N271 1.376 . S
C272 C273 1.446 . S
C272 C302 1.391 . S
C273 C272 1.446 . S
C273 C274 1.339 . S
C273 H308 0.949 . S
C274 C273 1.339 . S
C274 C275 1.439 . S
C274 H309 0.950 . S
C275 N271 1.383 . S
C275 C274 1.439 . S
C275 C304 1.392 . S
N276 Co270 2.008 . S
N276 C277 1.376 . S
N276 C280 1.374 . S
C277 N276 1.376 . S
C277 C278 1.443 . S
C277 C304 1.389 . S
C278 C277 1.443 . S
C278 C279 1.340 . S
C278 H310 0.951 . S
C279 C278 1.340 . S
C279 C280 1.439 . S
C279 H311 0.950 . S
C280 N276 1.374 . S
C280 C279 1.439 . S
C280 C305 1.395 . S
N281 Co270 1.995 . S
N281 C282 1.376 . S
N281 C285 1.383 . S
C282 N281 1.376 . S
C282 C283 1.446 . S
C282 C305 1.391 . S
C283 C282 1.446 . S
C283 C284 1.339 . S
C283 H312 0.949 . S
C284 C283 1.339 . S
C284 C285 1.439 . S
C284 H313 0.950 . S
C285 N281 1.383 . S
C285 C284 1.439 . S
C285 C303 1.392 . S
N286 Co270 2.282 . S
N286 C289 1.332 . S
N286 C291 1.332 . S
C287 C288 1.386 . S
C287 C290 1.388 . S
C288 C287 1.386 . S
C288 C289 1.382 . S
C288 H314 0.950 . S
C289 N286 1.332 . S
C289 C288 1.382 . S
C289 H300 0.952 . S
C290 C287 1.388 . S
C290 C291 1.382 . S
C290 H315 0.950 . S
C291 N286 1.332 . S
C291 C290 1.382 . S
C291 H301 0.948 . S
N292 Co270 2.282 . S
N292 C296 1.332 . S
N292 C297 1.332 . S
C293 C294 1.388 . S
C293 C297 1.382 . S
C293 H316 0.950 . S
C294 C293 1.388 . S
C294 C295 1.386 . S
C295 C294 1.386 . S
C295 C296 1.382 . S
C295 H317 0.950 . S
C296 N292 1.332 . S
C296 C295 1.382 . S
C296 H298 0.952 . S
C297 N292 1.332 . S
C297 C293 1.382 . S
C297 H299 0.948 . S
H298 C296 0.952 . S
H299 C297 0.948 . S
H300 C289 0.952 . S
H301 C291 0.948 . S
C302 C268 1.395 . S
C302 C272 1.391 . S
C303 C265 1.389 . S
C303 C285 1.392 . S
C304 C275 1.392 . S
C304 C277 1.389 . S
C305 C280 1.395 . S
C305 C282 1.391 . S
H306 C266 0.951 . S
H307 C267 0.950 . S
H308 C273 0.949 . S
H309 C274 0.950 . S
H310 C278 0.951 . S
H311 C279 0.950 . S
H312 C283 0.949 . S
H313 C284 0.950 . S
H314 C288 0.950 . S
H315 C290 0.950 . S
H316 C293 0.950 . S
H317 C295 0.950 . S
C318 C319 1.443 . S
C318 N322 1.376 . S
C318 C356 1.389 . S
C319 C318 1.443 . S
C319 C320 1.340 . S
C319 H359 0.951 . S
C320 C319 1.340 . S
C320 C321 1.439 . S
C320 H360 0.950 . S
C321 C320 1.439 . S
C321 N322 1.374 . S
C321 C355 1.395 . S
N322 C318 1.376 . S
N322 C321 1.374 . S
N322 Co323 2.008 . S
Co323 N322 2.008 . S
Co323 N324 1.995 . S
Co323 N329 2.008 . S
Co323 N334 1.995 . S
Co323 N339 2.282 . S
Co323 N345 2.282 . S
N324 Co323 1.995 . S
N324 C325 1.376 . S
N324 C328 1.383 . S
C325 N324 1.376 . S
C325 C326 1.446 . S
C325 C355 1.391 . S
C326 C325 1.446 . S
C326 C327 1.339 . S
C326 H361 0.949 . S
C327 C326 1.339 . S
C327 C328 1.439 . S
C327 H362 0.950 . S
C328 N324 1.383 . S
C328 C327 1.439 . S
C328 C357 1.392 . S
N329 Co323 2.008 . S
N329 C330 1.376 . S
N329 C333 1.374 . S
C330 N329 1.376 . S
C330 C331 1.443 . S
C330 C357 1.389 . S
C331 C330 1.443 . S
C331 C332 1.340 . S
C331 H363 0.951 . S
C332 C331 1.340 . S
C332 C333 1.439 . S
C332 H364 0.950 . S
C333 N329 1.374 . S
C333 C332 1.439 . S
C333 C358 1.395 . S
N334 Co323 1.995 . S
N334 C335 1.376 . S
N334 C338 1.383 . S
C335 N334 1.376 . S
C335 C336 1.446 . S
C335 C358 1.391 . S
C336 C335 1.446 . S
C336 C337 1.339 . S
C336 H365 0.949 . S
C337 C336 1.339 . S
C337 C338 1.439 . S
C337 H366 0.950 . S
C338 N334 1.383 . S
C338 C337 1.439 . S
C338 C356 1.392 . S
N339 Co323 2.282 . S
N339 C342 1.332 . S
N339 C344 1.332 . S
C340 C341 1.386 . S
C340 C343 1.388 . S
C341 C340 1.386 . S
C341 C342 1.382 . S
C341 H367 0.950 . S
C342 N339 1.332 . S
C342 C341 1.382 . S
C342 H353 0.952 . S
C343 C340 1.388 . S
C343 C344 1.382 . S
C343 H368 0.950 . S
C344 N339 1.332 . S
C344 C343 1.382 . S
C344 H354 0.948 . S
N345 Co323 2.282 . S
N345 C349 1.332 . S
N345 C350 1.332 . S
C346 C347 1.388 . S
C346 C350 1.382 . S
C346 H369 0.950 . S
C347 C346 1.388 . S
C347 C348 1.386 . S
C348 C347 1.386 . S
C348 C349 1.382 . S
C348 H370 0.950 . S
C349 N345 1.332 . S
C349 C348 1.382 . S
C349 H351 0.952 . S
C350 N345 1.332 . S
C350 C346 1.382 . S
C350 H352 0.948 . S
H351 C349 0.952 . S
H352 C350 0.948 . S
H353 C342 0.952 . S
H354 C344 0.948 . S
C355 C321 1.395 . S
C355 C325 1.391 . S
C356 C318 1.389 . S
C356 C338 1.392 . S
C357 C328 1.392 . S
C357 C330 1.389 . S
C358 C333 1.395 . S
C358 C335 1.391 . S
H359 C319 0.951 . S
H360 C320 0.950 . S
H361 C326 0.949 . S
H362 C327 0.950 . S
H363 C331 0.951 . S
H364 C332 0.950 . S
H365 C336 0.949 . S
H366 C337 0.950 . S
H367 C341 0.950 . S
H368 C343 0.950 . S
H369 C346 0.950 . S
H370 C348 0.950 . S
C371 C372 1.443 . S
C371 N375 1.376 . S
C371 C409 1.389 . S
C372 C371 1.443 . S
C372 C373 1.340 . S
C372 H412 0.951 . S
C373 C372 1.340 . S
C373 C374 1.439 . S
C373 H413 0.950 . S
C374 C373 1.439 . S
C374 N375 1.374 . S
C374 C408 1.395 . S
N375 C371 1.376 . S
N375 C374 1.374 . S
N375 Co376 2.008 . S
Co376 N375 2.008 . S
Co376 N377 1.995 . S
Co376 N382 2.008 . S
Co376 N387 1.995 . S
Co376 N392 2.282 . S
Co376 N398 2.282 . S
N377 Co376 1.995 . S
N377 C378 1.376 . S
N377 C381 1.383 . S
C378 N377 1.376 . S
C378 C379 1.446 . S
C378 C408 1.391 . S
C379 C378 1.446 . S
C379 C380 1.339 . S
C379 H414 0.949 . S
C380 C379 1.339 . S
C380 C381 1.439 . S
C380 H415 0.950 . S
C381 N377 1.383 . S
C381 C380 1.439 . S
C381 C410 1.392 . S
N382 Co376 2.008 . S
N382 C383 1.376 . S
N382 C386 1.374 . S
C383 N382 1.376 . S
C383 C384 1.443 . S
C383 C410 1.389 . S
C384 C383 1.443 . S
C384 C385 1.340 . S
C384 H416 0.951 . S
C385 C384 1.340 . S
C385 C386 1.439 . S
C385 H417 0.950 . S
C386 N382 1.374 . S
C386 C385 1.439 . S
C386 C411 1.395 . S
N387 Co376 1.995 . S
N387 C388 1.376 . S
N387 C391 1.383 . S
C388 N387 1.376 . S
C388 C389 1.446 . S
C388 C411 1.391 . S
C389 C388 1.446 . S
C389 C390 1.339 . S
C389 H418 0.949 . S
C390 C389 1.339 . S
C390 C391 1.439 . S
C390 H419 0.950 . S
C391 N387 1.383 . S
C391 C390 1.439 . S
C391 C409 1.392 . S
N392 Co376 2.282 . S
N392 C395 1.332 . S
N392 C397 1.332 . S
C393 C394 1.386 . S
C393 C396 1.388 . S
C394 C393 1.386 . S
C394 C395 1.382 . S
C394 H420 0.950 . S
C395 N392 1.332 . S
C395 C394 1.382 . S
C395 H406 0.952 . S
C396 C393 1.388 . S
C396 C397 1.382 . S
C396 H421 0.950 . S
C397 N392 1.332 . S
C397 C396 1.382 . S
C397 H407 0.948 . S
N398 Co376 2.282 . S
N398 C402 1.332 . S
N398 C403 1.332 . S
C399 C400 1.388 . S
C399 C403 1.382 . S
C399 H422 0.950 . S
C400 C399 1.388 . S
C400 C401 1.386 . S
C401 C400 1.386 . S
C401 C402 1.382 . S
C401 H423 0.950 . S
C402 N398 1.332 . S
C402 C401 1.382 . S
C402 H404 0.952 . S
C403 N398 1.332 . S
C403 C399 1.382 . S
C403 H405 0.948 . S
H404 C402 0.952 . S
H405 C403 0.948 . S
H406 C395 0.952 . S
H407 C397 0.948 . S
C408 C374 1.395 . S
C408 C378 1.391 . S
C409 C371 1.389 . S
C409 C391 1.392 . S
C410 C381 1.392 . S
C410 C383 1.389 . S
C411 C386 1.395 . S
C411 C388 1.391 . S
H412 C372 0.951 . S
H413 C373 0.950 . S
H414 C379 0.949 . S
H415 C380 0.950 . S
H416 C384 0.951 . S
H417 C385 0.950 . S
H418 C389 0.949 . S
H419 C390 0.950 . S
H420 C394 0.950 . S
H421 C396 0.950 . S
H422 C399 0.950 . S
H423 C401 0.950 . S
C424 C425 1.443 . S
C424 N428 1.376 . S
C424 C462 1.389 . S
C425 C424 1.443 . S
C425 C426 1.340 . S
C425 H465 0.951 . S
C426 C425 1.340 . S
C426 C427 1.439 . S
C426 H466 0.950 . S
C427 C426 1.439 . S
C427 N428 1.374 . S
C427 C461 1.395 . S
N428 C424 1.376 . S
N428 C427 1.374 . S
N428 Co429 2.008 . S
Co429 N428 2.008 . S
Co429 N430 1.995 . S
Co429 N435 2.008 . S
Co429 N440 1.995 . S
Co429 N445 2.282 . S
Co429 N451 2.282 . S
N430 Co429 1.995 . S
N430 C431 1.376 . S
N430 C434 1.383 . S
C431 N430 1.376 . S
C431 C432 1.446 . S
C431 C461 1.391 . S
C432 C431 1.446 . S
C432 C433 1.339 . S
C432 H467 0.949 . S
C433 C432 1.339 . S
C433 C434 1.439 . S
C433 H468 0.950 . S
C434 N430 1.383 . S
C434 C433 1.439 . S
C434 C463 1.392 . S
N435 Co429 2.008 . S
N435 C436 1.376 . S
N435 C439 1.374 . S
C436 N435 1.376 . S
C436 C437 1.443 . S
C436 C463 1.389 . S
C437 C436 1.443 . S
C437 C438 1.340 . S
C437 H469 0.951 . S
C438 C437 1.340 . S
C438 C439 1.439 . S
C438 H470 0.950 . S
C439 N435 1.374 . S
C439 C438 1.439 . S
C439 C464 1.395 . S
N440 Co429 1.995 . S
N440 C441 1.376 . S
N440 C444 1.383 . S
C441 N440 1.376 . S
C441 C442 1.446 . S
C441 C464 1.391 . S
C442 C441 1.446 . S
C442 C443 1.339 . S
C442 H471 0.949 . S
C443 C442 1.339 . S
C443 C444 1.439 . S
C443 H472 0.950 . S
C444 N440 1.383 . S
C444 C443 1.439 . S
C444 C462 1.392 . S
N445 Co429 2.282 . S
N445 C448 1.332 . S
N445 C450 1.332 . S
C446 C447 1.386 . S
C446 C449 1.388 . S
C447 C446 1.386 . S
C447 C448 1.382 . S
C447 H473 0.950 . S
C448 N445 1.332 . S
C448 C447 1.382 . S
C448 H459 0.952 . S
C449 C446 1.388 . S
C449 C450 1.382 . S
C449 H474 0.950 . S
C450 N445 1.332 . S
C450 C449 1.382 . S
C450 H460 0.948 . S
N451 Co429 2.282 . S
N451 C455 1.332 . S
N451 C456 1.332 . S
C452 C453 1.388 . S
C452 C456 1.382 . S
C452 H475 0.950 . S
C453 C452 1.388 . S
C453 C454 1.386 . S
C454 C453 1.386 . S
C454 C455 1.382 . S
C454 H476 0.950 . S
C455 N451 1.332 . S
C455 C454 1.382 . S
C455 H457 0.952 . S
C456 N451 1.332 . S
C456 C452 1.382 . S
C456 H458 0.948 . S
H457 C455 0.952 . S
H458 C456 0.948 . S
H459 C448 0.952 . S
H460 C450 0.948 . S
C461 C427 1.395 . S
C461 C431 1.391 . S
C462 C424 1.389 . S
C462 C444 1.392 . S
C463 C434 1.392 . S
C463 C436 1.389 . S
C464 C439 1.395 . S
C464 C441 1.391 . S
H465 C425 0.951 . S
H466 C426 0.950 . S
H467 C432 0.949 . S
H468 C433 0.950 . S
H469 C437 0.951 . S
H470 C438 0.950 . S
H471 C442 0.949 . S
H472 C443 0.950 . S
H473 C447 0.950 . S
H474 C449 0.950 . S
H475 C452 0.950 . S
H476 C454 0.950 . S
C477 C478 1.443 . S
C477 N481 1.376 . S
C477 C515 1.389 . S
C478 C477 1.443 . S
C478 C479 1.340 . S
C478 H518 0.951 . S
C479 C478 1.340 . S
C479 C480 1.439 . S
C479 H519 0.950 . S
C480 C479 1.439 . S
C480 N481 1.374 . S
C480 C514 1.395 . S
N481 C477 1.376 . S
N481 C480 1.374 . S
N481 Co482 2.008 . S
Co482 N481 2.008 . S
Co482 N483 1.995 . S
Co482 N488 2.008 . S
Co482 N493 1.995 . S
Co482 N498 2.282 . S
Co482 N504 2.282 . S
N483 Co482 1.995 . S
N483 C484 1.376 . S
N483 C487 1.383 . S
C484 N483 1.376 . S
C484 C485 1.446 . S
C484 C514 1.391 . S
C485 C484 1.446 . S
C485 C486 1.339 . S
C485 H520 0.949 . S
C486 C485 1.339 . S
C486 C487 1.439 . S
C486 H521 0.950 . S
C487 N483 1.383 . S
C487 C486 1.439 . S
C487 C516 1.392 . S
N488 Co482 2.008 . S
N488 C489 1.376 . S
N488 C492 1.374 . S
C489 N488 1.376 . S
C489 C490 1.443 . S
C489 C516 1.389 . S
C490 C489 1.443 . S
C490 C491 1.340 . S
C490 H522 0.951 . S
C491 C490 1.340 . S
C491 C492 1.439 . S
C491 H523 0.950 . S
C492 N488 1.374 . S
C492 C491 1.439 . S
C492 C517 1.395 . S
N493 Co482 1.995 . S
N493 C494 1.376 . S
N493 C497 1.383 . S
C494 N493 1.376 . S
C494 C495 1.446 . S
C494 C517 1.391 . S
C495 C494 1.446 . S
C495 C496 1.339 . S
C495 H524 0.949 . S
C496 C495 1.339 . S
C496 C497 1.439 . S
C496 H525 0.950 . S
C497 N493 1.383 . S
C497 C496 1.439 . S
C497 C515 1.392 . S
N498 Co482 2.282 . S
N498 C501 1.332 . S
N498 C503 1.332 . S
C499 C500 1.386 . S
C499 C502 1.388 . S
C500 C499 1.386 . S
C500 C501 1.382 . S
C500 H526 0.950 . S
C501 N498 1.332 . S
C501 C500 1.382 . S
C501 H512 0.952 . S
C502 C499 1.388 . S
C502 C503 1.382 . S
C502 H527 0.950 . S
C503 N498 1.332 . S
C503 C502 1.382 . S
C503 H513 0.948 . S
N504 Co482 2.282 . S
N504 C508 1.332 . S
N504 C509 1.332 . S
C505 C506 1.388 . S
C505 C509 1.382 . S
C505 H528 0.950 . S
C506 C505 1.388 . S
C506 C507 1.386 . S
C507 C506 1.386 . S
C507 C508 1.382 . S
C507 H529 0.950 . S
C508 N504 1.332 . S
C508 C507 1.382 . S
C508 H510 0.952 . S
C509 N504 1.332 . S
C509 C505 1.382 . S
C509 H511 0.948 . S
H510 C508 0.952 . S
H511 C509 0.948 . S
H512 C501 0.952 . S
H513 C503 0.948 . S
C514 C480 1.395 . S
C514 C484 1.391 . S
C515 C477 1.389 . S
C515 C497 1.392 . S
C516 C487 1.392 . S
C516 C489 1.389 . S
C517 C492 1.395 . S
C517 C494 1.391 . S
H518 C478 0.951 . S
H519 C479 0.950 . S
H520 C485 0.949 . S
H521 C486 0.950 . S
H522 C490 0.951 . S
H523 C491 0.950 . S
H524 C495 0.949 . S
H525 C496 0.950 . S
H526 C500 0.950 . S
H527 C502 0.950 . S
H528 C505 0.950 . S
H529 C507 0.950 . S
C530 C531 1.443 . S
C530 N534 1.376 . S
C530 C568 1.389 . S
C531 C530 1.443 . S
C531 C532 1.340 . S
C531 H571 0.951 . S
C532 C531 1.340 . S
C532 C533 1.439 . S
C532 H572 0.950 . S
C533 C532 1.439 . S
C533 N534 1.374 . S
C533 C567 1.395 . S
N534 C530 1.376 . S
N534 C533 1.374 . S
N534 Co535 2.008 . S
Co535 N534 2.008 . S
Co535 N536 1.995 . S
Co535 N541 2.008 1_545 S
Co535 N546 1.995 1_545 S
Co535 N551 2.282 1_545 S
Co535 N557 2.282 . S
N536 Co535 1.995 . S
N536 C537 1.376 . S
N536 C540 1.383 . S
C537 N536 1.376 . S
C537 C538 1.446 . S
C537 C567 1.391 . S
C538 C537 1.446 . S
C538 C539 1.339 . S
C538 H573 0.949 . S
C539 C538 1.339 . S
C539 C540 1.439 . S
C539 H574 0.950 . S
C540 N536 1.383 . S
C540 C539 1.439 . S
C540 C569 1.392 1_545 S
N541 Co535 2.008 1_565 S
N541 C542 1.376 . S
N541 C545 1.374 . S
C542 N541 1.376 . S
C542 C543 1.443 . S
C542 C569 1.389 . S
C543 C542 1.443 . S
C543 C544 1.340 . S
C543 H575 0.951 . S
C544 C543 1.340 . S
C544 C545 1.439 . S
C544 H576 0.950 . S
C545 N541 1.374 . S
C545 C544 1.439 . S
C545 C570 1.395 . S
N546 Co535 1.995 1_565 S
N546 C547 1.376 . S
N546 C550 1.383 . S
C547 N546 1.376 . S
C547 C548 1.446 . S
C547 C570 1.391 . S
C548 C547 1.446 . S
C548 C549 1.339 . S
C548 H577 0.949 . S
C549 C548 1.339 . S
C549 C550 1.439 . S
C549 H578 0.950 . S
C550 N546 1.383 . S
C550 C549 1.439 . S
C550 C568 1.392 1_565 S
N551 Co535 2.282 1_565 S
N551 C554 1.332 . S
N551 C556 1.332 1_565 S
C552 C553 1.386 . S
C552 C555 1.388 1_565 S
C553 C552 1.386 . S
C553 C554 1.382 . S
C553 H579 0.950 . S
C554 N551 1.332 . S
C554 C553 1.382 . S
C554 H565 0.952 . S
C555 C552 1.388 1_545 S
C555 C556 1.382 . S
C555 H580 0.950 . S
C556 N551 1.332 1_545 S
C556 C555 1.382 . S
C556 H566 0.948 . S
N557 Co535 2.282 . S
N557 C561 1.332 . S
N557 C562 1.332 1_545 S
C558 C559 1.388 1_565 S
C558 C562 1.382 . S
C558 H581 0.950 . S
C559 C558 1.388 1_545 S
C559 C560 1.386 . S
C560 C559 1.386 . S
C560 C561 1.382 . S
C560 H582 0.950 . S
C561 N557 1.332 . S
C561 C560 1.382 . S
C561 H563 0.952 . S
C562 N557 1.332 1_565 S
C562 C558 1.382 . S
C562 H564 0.948 . S
H563 C561 0.952 . S
H564 C562 0.948 . S
H565 C554 0.952 . S
H566 C556 0.948 . S
C567 C533 1.395 . S
C567 C537 1.391 . S
C568 C530 1.389 . S
C568 C550 1.392 1_545 S
C569 C540 1.392 1_565 S
C569 C542 1.389 . S
C570 C545 1.395 . S
C570 C547 1.391 . S
H571 C531 0.951 . S
H572 C532 0.950 . S
H573 C538 0.949 . S
H574 C539 0.950 . S
H575 C543 0.951 . S
H576 C544 0.950 . S
H577 C548 0.949 . S
H578 C549 0.950 . S
H579 C553 0.950 . S
H580 C555 0.950 . S
H581 C558 0.950 . S
H582 C560 0.950 . S
C583 C584 1.443 . S
C583 N587 1.376 . S
C583 C621 1.389 . S
C584 C583 1.443 . S
C584 C585 1.340 . S
C584 H624 0.951 . S
C585 C584 1.340 . S
C585 C586 1.439 . S
C585 H625 0.950 . S
C586 C585 1.439 . S
C586 N587 1.374 . S
C586 C620 1.395 . S
N587 C583 1.376 . S
N587 C586 1.374 . S
N587 Co588 2.008 1_556 S
Co588 N587 2.008 1_554 S
Co588 N589 1.995 1_554 S
Co588 N594 2.008 . S
Co588 N599 1.995 . S
Co588 N604 2.282 . S
Co588 N610 2.282 . S
N589 Co588 1.995 1_556 S
N589 C590 1.376 . S
N589 C593 1.383 . S
C590 N589 1.376 . S
C590 C591 1.446 . S
C590 C620 1.391 . S
C591 C590 1.446 . S
C591 C592 1.339 . S
C591 H626 0.949 . S
C592 C591 1.339 . S
C592 C593 1.439 . S
C592 H627 0.950 . S
C593 N589 1.383 . S
C593 C592 1.439 . S
C593 C622 1.392 1_556 S
N594 Co588 2.008 . S
N594 C595 1.376 . S
N594 C598 1.374 . S
C595 N594 1.376 . S
C595 C596 1.443 . S
C595 C622 1.389 . S
C596 C595 1.443 . S
C596 C597 1.340 . S
C596 H628 0.951 . S
C597 C596 1.340 . S
C597 C598 1.439 . S
C597 H629 0.950 . S
C598 N594 1.374 . S
C598 C597 1.439 . S
C598 C623 1.395 . S
N599 Co588 1.995 . S
N599 C600 1.376 . S
N599 C603 1.383 . S
C600 N599 1.376 . S
C600 C601 1.446 . S
C600 C623 1.391 . S
C601 C600 1.446 . S
C601 C602 1.339 . S
C601 H630 0.949 . S
C602 C601 1.339 . S
C602 C603 1.439 . S
C602 H631 0.950 . S
C603 N599 1.383 . S
C603 C602 1.439 . S
C603 C621 1.392 1_554 S
N604 Co588 2.282 . S
N604 C607 1.332 . S
N604 C609 1.332 1_554 S
C605 C606 1.386 . S
C605 C608 1.388 . S
C606 C605 1.386 . S
C606 C607 1.382 . S
C606 H632 0.950 . S
C607 N604 1.332 . S
C607 C606 1.382 . S
C607 H618 0.952 . S
C608 C605 1.388 . S
C608 C609 1.382 1_554 S
C608 H633 0.950 1_554 S
C609 N604 1.332 1_556 S
C609 C608 1.382 1_556 S
C609 H619 0.948 . S
N610 Co588 2.282 . S
N610 C614 1.332 1_554 S
N610 C615 1.332 . S
C611 C612 1.388 1_554 S
C611 C615 1.382 . S
C611 H634 0.950 . S
C612 C611 1.388 1_556 S
C612 C613 1.386 . S
C613 C612 1.386 . S
C613 C614 1.382 . S
C613 H635 0.950 . S
C614 N610 1.332 1_556 S
C614 C613 1.382 . S
C614 H616 0.952 . S
C615 N610 1.332 . S
C615 C611 1.382 . S
C615 H617 0.948 . S
H616 C614 0.952 . S
H617 C615 0.948 . S
H618 C607 0.952 . S
H619 C609 0.948 . S
C620 C586 1.395 . S
C620 C590 1.391 . S
C621 C583 1.389 . S
C621 C603 1.392 1_556 S
C622 C593 1.392 1_554 S
C622 C595 1.389 . S
C623 C598 1.395 . S
C623 C600 1.391 . S
H624 C584 0.951 . S
H625 C585 0.950 . S
H626 C591 0.949 . S
H627 C592 0.950 . S
H628 C596 0.951 . S
H629 C597 0.950 . S
H630 C601 0.949 . S
H631 C602 0.950 . S
H632 C606 0.950 . S
H633 C608 0.950 1_556 S
H634 C611 0.950 . S
H635 C613 0.950 . S
C636 O652 1.251 . S
C636 O654 1.254 . S
N637 C638 1.333 . S
N637 C642 1.307 . S
N637 Zn643 2.020 1_556 S
C638 N637 1.333 . S
C638 C639 1.379 . S
C638 H656 0.952 1_556 S
C639 C638 1.379 . S
C639 C640 1.390 . S
C639 H666 0.949 . S
C640 C639 1.390 . S
C640 C641 1.357 . S
C641 C640 1.357 . S
C641 C642 1.370 . S
C641 H667 0.950 . S
C642 N637 1.307 . S
C642 C641 1.370 . S
C642 H660 0.948 . S
Zn643 N637 2.020 1_554 S
Zn643 O652 2.039 . S
Zn643 O658 2.034 . S
Zn643 O662 2.025 . S
Zn643 O664 2.024 . S
C644 O663 1.246 . S
C644 O664 1.249 . S
N645 C646 1.307 . S
N645 C647 1.333 . S
N645 Zn651 2.020 . S
C646 N645 1.307 . S
C646 C650 1.370 . S
C646 H657 0.948 . S
C647 N645 1.333 . S
C647 C648 1.379 . S
C647 H655 0.952 . S
C648 C647 1.379 . S
C648 C649 1.390 . S
C648 H668 0.949 . S
C649 C648 1.390 . S
C649 C650 1.357 . S
C650 C646 1.370 . S
C650 C649 1.357 . S
C650 H669 0.950 . S
Zn651 N645 2.020 . S
Zn651 O654 2.025 . S
Zn651 O659 2.024 . S
Zn651 O661 2.039 . S
Zn651 O663 2.034 . S
O652 C636 1.251 . S
O652 Zn643 2.039 . S
C653 O658 1.246 . S
C653 O659 1.249 . S
O654 C636 1.254 . S
O654 Zn651 2.025 . S
H655 C647 0.952 . S
H656 C638 0.952 1_554 S
H657 C646 0.948 . S
O658 Zn643 2.034 . S
O658 C653 1.246 . S
O659 Zn651 2.024 . S
O659 C653 1.249 . S
H660 C642 0.948 . S
O661 Zn651 2.039 . S
O661 C665 1.251 . S
O662 Zn643 2.025 . S
O662 C665 1.254 . S
O663 C644 1.246 . S
O663 Zn651 2.034 . S
O664 Zn643 2.024 . S
O664 C644 1.249 . S
C665 O661 1.251 . S
C665 O662 1.254 . S
H666 C639 0.949 . S
H667 C641 0.950 . S
H668 C648 0.949 . S
H669 C650 0.950 . S
C670 O686 1.251 . S
C670 O688 1.254 . S
N671 C672 1.333 . S
N671 C676 1.307 . S
N671 Zn677 2.020 1_556 S
C672 N671 1.333 . S
C672 C673 1.379 . S
C672 H690 0.952 . S
C673 C672 1.379 . S
C673 C674 1.390 . S
C673 H700 0.949 . S
C674 C673 1.390 . S
C674 C675 1.357 . S
C675 C674 1.357 . S
C675 C676 1.370 . S
C675 H701 0.950 . S
C676 N671 1.307 . S
C676 C675 1.370 . S
C676 H694 0.948 . S
Zn677 N671 2.020 1_554 S
Zn677 O686 2.039 . S
Zn677 O692 2.034 . S
Zn677 O696 2.026 1_654 S
Zn677 O698 2.024 . S
C678 O697 1.246 . S
C678 O698 1.249 . S
N679 C680 1.307 . S
N679 C681 1.333 1_655 S
N679 Zn685 2.020 . S
C680 N679 1.307 . S
C680 C684 1.370 . S
C680 H691 0.948 . S
C681 N679 1.333 1_455 S
C681 C682 1.379 . S
C681 H689 0.952 . S
C682 C681 1.379 . S
C682 C683 1.390 . S
C682 H702 0.949 . S
C683 C682 1.390 . S
C683 C684 1.357 1_455 S
C684 C680 1.370 . S
C684 C683 1.357 1_655 S
C684 H703 0.950 . S
Zn685 N679 2.020 . S
Zn685 O688 2.025 . S
Zn685 O693 2.024 . S
Zn685 O695 2.039 1_655 S
Zn685 O697 2.034 . S
O686 C670 1.251 . S
O686 Zn677 2.039 . S
C687 O692 1.246 . S
C687 O693 1.249 . S
O688 C670 1.254 . S
O688 Zn685 2.025 . S
H689 C681 0.952 . S
H690 C672 0.952 . S
H691 C680 0.948 . S
O692 Zn677 2.034 . S
O692 C687 1.246 . S
O693 Zn685 2.024 . S
O693 C687 1.249 . S
H694 C676 0.948 . S
O695 Zn685 2.039 1_455 S
O695 C699 1.251 . S
O696 Zn677 2.026 1_456 S
O696 C699 1.254 1_556 S
O697 C678 1.246 . S
O697 Zn685 2.034 . S
O698 Zn677 2.024 . S
O698 C678 1.249 . S
C699 O695 1.251 . S
C699 O696 1.254 1_554 S
H700 C673 0.949 . S
H701 C675 0.950 . S
H702 C682 0.949 . S
H703 C684 0.950 . S
C704 O720 1.251 . S
C704 O722 1.254 . S
N705 C706 1.333 . S
N705 C710 1.307 . S
N705 Zn711 2.020 . S
C706 N705 1.333 . S
C706 C707 1.372 1_455 S
C706 H724 0.957 . S
C707 C706 1.372 1_655 S
C707 C708 1.382 1_655 S
C707 H734 0.964 . S
C708 C707 1.382 1_455 S
C708 C709 1.357 . S
C709 C708 1.357 . S
C709 C710 1.370 . S
C709 H735 0.950 . S
C710 N705 1.307 . S
C710 C709 1.370 . S
C710 H728 0.948 . S
Zn711 N705 2.020 . S
Zn711 O720 2.039 . S
Zn711 O726 2.034 . S
Zn711 O730 2.025 . S
Zn711 O732 2.024 . S
C712 O731 1.246 . S
C712 O732 1.249 . S
N713 C714 1.307 . S
N713 C715 1.333 . S
N713 Zn719 2.020 . S
C714 N713 1.307 . S
C714 C718 1.370 . S
C714 H725 0.948 . S
C715 N713 1.333 . S
C715 C716 1.379 . S
C715 H723 0.952 . S
C716 C715 1.379 . S
C716 C717 1.390 . S
C716 H736 0.949 . S
C717 C716 1.390 . S
C717 C718 1.357 . S
C718 C714 1.370 . S
C718 C717 1.357 . S
C718 H737 0.950 1_565 S
Zn719 N713 2.020 . S
Zn719 O722 2.025 . S
Zn719 O727 2.024 . S
Zn719 O729 2.039 . S
Zn719 O731 2.034 . S
O720 C704 1.251 . S
O720 Zn711 2.039 . S
C721 O726 1.246 . S
C721 O727 1.249 . S
O722 C704 1.254 . S
O722 Zn719 2.025 . S
H723 C715 0.952 . S
H724 C706 0.957 . S
H725 C714 0.948 . S
O726 Zn711 2.034 . S
O726 C721 1.246 . S
O727 Zn719 2.024 . S
O727 C721 1.249 . S
H728 C710 0.948 . S
O729 Zn719 2.039 . S
O729 C733 1.251 . S
O730 Zn711 2.025 . S
O730 C733 1.254 . S
O731 C712 1.246 . S
O731 Zn719 2.034 . S
O732 Zn711 2.024 . S
O732 C712 1.249 . S
C733 O729 1.251 . S
C733 O730 1.254 . S
H734 C707 0.964 . S
H735 C709 0.950 . S
H736 C716 0.949 . S
H737 C718 0.950 1_545 S
C738 O754 1.251 . S
C738 O756 1.254 . S
N739 C740 1.333 . S
N739 C744 1.307 . S
N739 Zn745 2.020 1_455 S
C740 N739 1.333 . S
C740 C741 1.379 . S
C740 H758 0.952 . S
C741 C740 1.379 . S
C741 C742 1.390 . S
C741 H768 0.949 . S
C742 C741 1.390 . S
C742 C743 1.357 . S
C743 C742 1.357 . S
C743 C744 1.370 . S
C743 H769 0.950 . S
C744 N739 1.307 . S
C744 C743 1.370 . S
C744 H762 0.948 . S
Zn745 N739 2.020 1_655 S
Zn745 O754 2.039 . S
Zn745 O760 2.034 . S
Zn745 O764 2.025 . S
Zn745 O766 2.024 . S
C746 O765 1.246 . S
C746 O766 1.249 . S
N747 C748 1.307 . S
N747 C749 1.333 . S
N747 Zn753 2.020 . S
C748 N747 1.307 . S
C748 C752 1.370 . S
C748 H759 0.948 . S
C749 N747 1.333 . S
C749 C750 1.379 . S
C749 H757 0.952 . S
C750 C749 1.379 . S
C750 C751 1.390 . S
C750 H770 0.949 . S
C751 C750 1.390 . S
C751 C752 1.357 . S
C752 C748 1.370 . S
C752 C751 1.357 . S
C752 H771 0.950 . S
Zn753 N747 2.020 . S
Zn753 O756 2.025 . S
Zn753 O761 2.024 . S
Zn753 O763 2.039 . S
Zn753 O765 2.034 . S
O754 C738 1.251 . S
O754 Zn745 2.039 . S
C755 O760 1.246 . S
C755 O761 1.249 . S
O756 C738 1.254 . S
O756 Zn753 2.025 . S
H757 C749 0.952 . S
H758 C740 0.952 . S
H759 C748 0.948 . S
O760 Zn745 2.034 . S
O760 C755 1.246 . S
O761 Zn753 2.024 . S
O761 C755 1.249 . S
H762 C744 0.948 . S
O763 Zn753 2.039 . S
O763 C767 1.251 . S
O764 Zn745 2.025 . S
O764 C767 1.254 . S
O765 C746 1.246 . S
O765 Zn753 2.034 . S
O766 Zn745 2.024 . S
O766 C746 1.249 . S
C767 O763 1.251 . S
C767 O764 1.254 . S
H768 C741 0.949 . S
H769 C743 0.950 . S
H770 C750 0.949 . S
H771 C752 0.950 . S
C772 O788 1.251 . S
C772 O790 1.254 . S
N773 C774 1.333 . S
N773 C778 1.307 . S
N773 Zn779 2.020 . S
C774 N773 1.333 . S
C774 C775 1.380 1_565 S
C774 H792 0.952 . S
C775 C774 1.380 1_545 S
C775 C776 1.389 . S
C775 H802 0.949 . S
C776 C775 1.389 . S
C776 C777 1.357 . S
C777 C776 1.357 . S
C777 C778 1.370 1_545 S
C777 H803 0.950 . S
C778 N773 1.307 . S
C778 C777 1.370 1_565 S
C778 H796 0.948 . S
Zn779 N773 2.020 . S
Zn779 O788 2.039 . S
Zn779 O794 2.034 . S
Zn779 O798 2.025 . S
Zn779 O800 2.024 1_565 S
C780 O799 1.246 1_545 S
C780 O800 1.249 . S
N781 C782 1.307 . S
N781 C783 1.333 . S
N781 Zn787 2.020 . S
C782 N781 1.307 . S
C782 C786 1.370 . S
C782 H793 0.948 . S
C783 N781 1.333 . S
C783 C784 1.379 . S
C783 H791 0.952 . S
C784 C783 1.379 . S
C784 C785 1.390 . S
C784 H804 0.949 . S
C785 C784 1.390 . S
C785 C786 1.357 . S
C786 C782 1.370 . S
C786 C785 1.357 . S
C786 H805 0.950 . S
Zn787 N781 2.020 . S
Zn787 O790 2.025 . S
Zn787 O795 2.024 . S
Zn787 O797 2.039 . S
Zn787 O799 2.034 . S
O788 C772 1.251 . S
O788 Zn779 2.039 . S
C789 O794 1.246 . S
C789 O795 1.249 . S
O790 C772 1.254 . S
O790 Zn787 2.025 . S
H791 C783 0.952 . S
H792 C774 0.952 . S
H793 C782 0.948 . S
O794 Zn779 2.034 . S
O794 C789 1.246 . S
O795 Zn787 2.024 . S
O795 C789 1.249 . S
H796 C778 0.948 . S
O797 Zn787 2.039 . S
O797 C801 1.251 . S
O798 Zn779 2.025 . S
O798 C801 1.254 . S
O799 C780 1.246 1_565 S
O799 Zn787 2.034 . S
O800 Zn779 2.024 1_545 S
O800 C780 1.249 . S
C801 O797 1.251 . S
C801 O798 1.254 . S
H802 C775 0.949 . S
H803 C777 0.950 . S
H804 C784 0.949 . S
H805 C786 0.950 . S
C806 O822 1.251 . S
C806 O824 1.254 . S
N807 C808 1.333 . S
N807 C812 1.307 . S
N807 Zn813 2.020 . S
C808 N807 1.333 . S
C808 C809 1.379 . S
C808 H826 0.952 . S
C809 C808 1.379 . S
C809 C810 1.390 . S
C809 H836 0.949 . S
C810 C809 1.390 . S
C810 C811 1.357 . S
C811 C810 1.357 . S
C811 C812 1.370 . S
C811 H837 0.950 . S
C812 N807 1.307 . S
C812 C811 1.370 . S
C812 H830 0.948 . S
Zn813 N807 2.020 . S
Zn813 O822 2.039 . S
Zn813 O828 2.034 . S
Zn813 O832 2.025 . S
Zn813 O834 2.024 . S
C814 O833 1.246 . S
C814 O834 1.249 . S
N815 C816 1.307 . S
N815 C817 1.333 . S
N815 Zn821 2.020 . S
C816 N815 1.307 . S
C816 C820 1.370 . S
C816 H827 0.948 . S
C817 N815 1.333 . S
C817 C818 1.379 . S
C817 H825 0.952 . S
C818 C817 1.379 . S
C818 C819 1.390 . S
C818 H838 0.949 . S
C819 C818 1.390 . S
C819 C820 1.357 . S
C820 C816 1.370 . S
C820 C819 1.357 . S
C820 H839 0.950 . S
Zn821 N815 2.020 . S
Zn821 O824 2.025 . S
Zn821 O829 2.024 . S
Zn821 O831 2.039 . S
Zn821 O833 2.034 . S
O822 C806 1.251 . S
O822 Zn813 2.039 . S
C823 O828 1.246 . S
C823 O829 1.249 . S
O824 C806 1.254 . S
O824 Zn821 2.025 . S
H825 C817 0.952 . S
H826 C808 0.952 . S
H827 C816 0.948 . S
O828 Zn813 2.034 . S
O828 C823 1.246 . S
O829 Zn821 2.024 . S
O829 C823 1.249 . S
H830 C812 0.948 . S
O831 Zn821 2.039 . S
O831 C835 1.251 . S
O832 Zn813 2.025 . S
O832 C835 1.254 . S
O833 C814 1.246 . S
O833 Zn821 2.034 . S
O834 Zn813 2.024 . S
O834 C814 1.249 . S
C835 O831 1.251 . S
C835 O832 1.254 . S
H836 C809 0.949 . S
H837 C811 0.950 . S
H838 C818 0.949 . S
H839 C820 0.950 . S
C840 O856 1.251 . S
C840 O858 1.254 . S
N841 C842 1.333 . S
N841 C846 1.307 . S
N841 Zn847 2.020 . S
C842 N841 1.333 . S
C842 C843 1.379 . S
C842 H860 0.952 . S
C843 C842 1.379 . S
C843 C844 1.390 . S
C843 H870 0.949 . S
C844 C843 1.390 . S
C844 C845 1.357 . S
C845 C844 1.357 . S
C845 C846 1.370 . S
C845 H871 0.950 . S
C846 N841 1.307 . S
C846 C845 1.370 . S
C846 H864 0.948 . S
Zn847 N841 2.020 . S
Zn847 O856 2.039 . S
Zn847 O862 2.034 . S
Zn847 O866 2.025 . S
Zn847 O868 2.024 . S
C848 O867 1.246 . S
C848 O868 1.249 . S
N849 C850 1.307 . S
N849 C851 1.333 . S
N849 Zn855 2.020 1_554 S
C850 N849 1.307 . S
C850 C854 1.370 . S
C850 H861 0.948 . S
C851 N849 1.333 . S
C851 C852 1.379 . S
C851 H859 0.952 . S
C852 C851 1.379 . S
C852 C853 1.390 . S
C852 H872 0.949 . S
C853 C852 1.390 . S
C853 C854 1.357 . S
C854 C850 1.370 . S
C854 C853 1.357 . S
C854 H873 0.950 . S
Zn855 N849 2.020 1_556 S
Zn855 O858 2.025 . S
Zn855 O863 2.024 . S
Zn855 O865 2.039 . S
Zn855 O867 2.034 . S
O856 C840 1.251 . S
O856 Zn847 2.039 . S
C857 O862 1.246 . S
C857 O863 1.249 . S
O858 C840 1.254 . S
O858 Zn855 2.025 . S
H859 C851 0.952 . S
H860 C842 0.952 . S
H861 C850 0.948 . S
O862 Zn847 2.034 . S
O862 C857 1.246 . S
O863 Zn855 2.024 . S
O863 C857 1.249 . S
H864 C846 0.948 . S
O865 Zn855 2.039 . S
O865 C869 1.251 . S
O866 Zn847 2.025 . S
O866 C869 1.254 . S
O867 C848 1.246 . S
O867 Zn855 2.034 . S
O868 Zn847 2.024 . S
O868 C848 1.249 . S
C869 O865 1.251 . S
C869 O866 1.254 . S
H870 C843 0.949 . S
H871 C845 0.950 . S
H872 C852 0.949 . S
H873 C854 0.950 . S
C874 O890 1.251 . S
C874 O892 1.254 . S
N875 C876 1.333 . S
N875 C880 1.307 . S
N875 Zn881 2.020 . S
C876 N875 1.333 . S
C876 C877 1.379 . S
C876 H894 0.952 . S
C877 C876 1.379 . S
C877 C878 1.390 . S
C877 H904 0.949 . S
C878 C877 1.390 . S
C878 C879 1.357 . S
C879 C878 1.357 . S
C879 C880 1.370 . S
C879 H905 0.950 . S
C880 N875 1.307 . S
C880 C879 1.370 . S
C880 H898 0.948 . S
Zn881 N875 2.020 . S
Zn881 O890 2.039 . S
Zn881 O896 2.034 . S
Zn881 O900 2.025 . S
Zn881 O902 2.024 . S
C882 O901 1.246 . S
C882 O902 1.249 . S
N883 C884 1.307 . S
N883 C885 1.333 . S
N883 Zn889 2.020 . S
C884 N883 1.307 . S
C884 C888 1.370 . S
C884 H895 0.948 . S
C885 N883 1.333 . S
C885 C886 1.379 1_545 S
C885 H893 0.952 1_545 S
C886 C885 1.379 1_565 S
C886 C887 1.390 1_565 S
C886 H906 0.949 . S
C887 C886 1.390 1_545 S
C887 C888 1.357 . S
C888 C884 1.370 . S
C888 C887 1.357 . S
C888 H907 0.950 . S
Zn889 N883 2.020 . S
Zn889 O892 2.025 . S
Zn889 O897 2.024 . S
Zn889 O899 2.039 . S
Zn889 O901 2.034 . S
O890 C874 1.251 . S
O890 Zn881 2.039 . S
C891 O896 1.246 . S
C891 O897 1.249 . S
O892 C874 1.254 . S
O892 Zn889 2.025 . S
H893 C885 0.952 1_565 S
H894 C876 0.952 . S
H895 C884 0.948 . S
O896 Zn881 2.034 . S
O896 C891 1.246 . S
O897 Zn889 2.024 . S
O897 C891 1.249 . S
H898 C880 0.948 . S
O899 Zn889 2.039 . S
O899 C903 1.251 . S
O900 Zn881 2.025 . S
O900 C903 1.254 . S
O901 C882 1.246 . S
O901 Zn889 2.034 . S
O902 Zn881 2.024 . S
O902 C882 1.249 . S
C903 O899 1.251 . S
C903 O900 1.254 . S
H904 C877 0.949 . S
H905 C879 0.950 . S
H906 C886 0.949 . S
H907 C888 0.950 . S
H908 C914 0.930 1_655 S
H909 C917 0.930 . S
H910 C918 0.930 . S
H911 C919 0.930 . S
H912 C922 0.930 . S
H913 C923 0.930 . S
C914 H908 0.930 1_455 S
C914 C915 1.355 . S
C914 C916 1.415 . S
C915 C914 1.355 . S
C915 C917 1.419 . S
C916 C914 1.415 . S
C916 C921 1.425 . S
C916 C923 1.409 1_455 S
C917 H909 0.930 . S
C917 C915 1.419 . S
C917 C918 1.362 . S
C918 H910 0.930 . S
C918 C917 1.362 . S
C918 C921 1.409 . S
C919 H911 0.930 . S
C919 C920 1.355 . S
C919 C921 1.415 . S
C920 C919 1.355 . S
C920 C922 1.419 1_455 S
C921 C916 1.425 . S
C921 C918 1.409 . S
C921 C919 1.415 . S
C922 H912 0.930 . S
C922 C920 1.419 1_655 S
C922 C923 1.362 . S
C923 H913 0.930 . S
C923 C916 1.409 1_655 S
C923 C922 1.362 . S
H924 C930 0.930 . S
H925 C933 0.930 . S
H926 C934 0.930 . S
H927 C935 0.930 . S
H928 C938 0.930 . S
H929 C939 0.930 . S
C930 H924 0.930 . S
C930 C931 1.355 1_455 S
C930 C932 1.415 . S
C931 C930 1.355 1_655 S
C931 C933 1.419 . S
C932 C930 1.415 . S
C932 C937 1.425 1_455 S
C932 C939 1.409 . S
C933 H925 0.930 . S
C933 C931 1.419 . S
C933 C934 1.362 . S
C934 H926 0.930 . S
C934 C933 1.362 . S
C934 C937 1.409 . S
C935 H927 0.930 . S
C935 C936 1.355 . S
C935 C937 1.415 . S
C936 C935 1.355 . S
C936 C938 1.419 1_655 S
C937 C932 1.425 1_655 S
C937 C934 1.409 . S
C937 C935 1.415 . S
C938 H928 0.930 . S
C938 C936 1.419 1_455 S
C938 C939 1.362 . S
C939 H929 0.930 . S
C939 C932 1.409 . S
C939 C938 1.362 . S
H940 C946 0.930 . S
H941 C949 0.930 1_655 S
H942 C950 0.930 1_655 S
H943 C951 0.930 . S
H944 C954 0.930 . S
H945 C955 0.930 . S
C946 H940 0.930 . S
C946 C947 1.355 . S
C946 C948 1.415 . S
C947 C946 1.355 . S
C947 C949 1.419 . S
C948 C946 1.415 . S
C948 C953 1.425 . S
C948 C955 1.409 . S
C949 H941 0.930 1_455 S
C949 C947 1.419 . S
C949 C950 1.362 . S
C950 H942 0.930 1_455 S
C950 C949 1.362 . S
C950 C953 1.409 . S
C951 H943 0.930 . S
C951 C952 1.355 . S
C951 C953 1.415 . S
C952 C951 1.355 . S
C952 C954 1.419 . S
C953 C948 1.425 . S
C953 C950 1.409 . S
C953 C951 1.415 . S
C954 H944 0.930 . S
C954 C952 1.419 . S
C954 C955 1.362 . S
C955 H945 0.930 . S
C955 C948 1.409 . S
C955 C954 1.362 . S
H956 C962 0.930 . S
H957 C965 0.930 . S
H958 C966 0.930 . S
H959 C967 0.930 . S
H960 C970 0.930 . S
H961 C971 0.930 . S
C962 H956 0.930 . S
C962 C963 1.355 1_455 S
C962 C964 1.415 . S
C963 C962 1.355 1_655 S
C963 C965 1.419 . S
C964 C962 1.415 . S
C964 C969 1.425 1_455 S
C964 C971 1.409 . S
C965 H957 0.930 . S
C965 C963 1.419 . S
C965 C966 1.362 . S
C966 H958 0.930 . S
C966 C965 1.362 . S
C966 C969 1.409 . S
C967 H959 0.930 . S
C967 C968 1.355 . S
C967 C969 1.415 . S
C968 C967 1.355 . S
C968 C970 1.419 1_655 S
C969 C964 1.425 1_655 S
C969 C966 1.409 . S
C969 C967 1.415 . S
C970 H960 0.930 . S
C970 C968 1.419 1_455 S
C970 C971 1.362 . S
C971 H961 0.930 . S
C971 C964 1.409 . S
C971 C970 1.362 . S
H972 C978 0.930 . S
H973 C981 0.930 . S
H974 C982 0.930 . S
H975 C983 0.930 . S
H976 C986 0.930 1_556 S
H977 C987 0.930 . S
C978 H972 0.930 . S
C978 C979 1.355 . S
C978 C980 1.415 . S
C979 C978 1.355 . S
C979 C981 1.419 . S
C980 C978 1.415 . S
C980 C985 1.425 . S
C980 C987 1.409 . S
C981 H973 0.930 . S
C981 C979 1.419 . S
C981 C982 1.362 . S
C982 H974 0.930 . S
C982 C981 1.362 . S
C982 C985 1.409 . S
C983 H975 0.930 . S
C983 C984 1.355 . S
C983 C985 1.415 . S
C984 C983 1.355 . S
C984 C986 1.419 . S
C985 C980 1.425 . S
C985 C982 1.409 . S
C985 C983 1.415 . S
C986 H976 0.930 1_554 S
C986 C984 1.419 . S
C986 C987 1.362 . S
C987 H977 0.930 . S
C987 C980 1.409 . S
C987 C986 1.362 . S
H988 C994 0.930 . S
H989 C997 0.930 . S
H990 C998 0.930 . S
H991 C999 0.930 . S
H992 C1002 0.930 . S
H993 C1003 0.930 . S
C994 H988 0.930 . S
C994 C995 1.355 . S
C994 C996 1.415 . S
C995 C994 1.355 . S
C995 C997 1.419 . S
C996 C994 1.415 . S
C996 C1001 1.425 . S
C996 C1003 1.409 . S
C997 H989 0.930 . S
C997 C995 1.419 . S
C997 C998 1.362 . S
C998 H990 0.930 . S
C998 C997 1.362 . S
C998 C1001 1.409 . S
C999 H991 0.930 . S
C999 C1000 1.355 . S
C999 C1001 1.415 . S
C1000 C999 1.355 . S
C1000 C1002 1.419 . S
C1001 C996 1.425 . S
C1001 C998 1.409 . S
C1001 C999 1.415 . S
C1002 H992 0.930 . S
C1002 C1000 1.419 . S
C1002 C1003 1.362 . S
C1003 H993 0.930 . S
C1003 C996 1.409 . S
C1003 C1002 1.362 . S
H1004 C1010 0.930 . S
H1005 C1013 0.930 . S
H1006 C1014 0.930 . S
H1007 C1015 0.930 1_565 S
H1008 C1018 0.930 . S
H1009 C1019 0.930 . S
C1010 H1004 0.930 . S
C1010 C1011 1.355 1_545 S
C1010 C1012 1.415 . S
C1011 C1010 1.355 1_565 S
C1011 C1013 1.419 . S
C1012 C1010 1.415 . S
C1012 C1017 1.425 . S
C1012 C1019 1.409 . S
C1013 H1005 0.930 . S
C1013 C1011 1.419 . S
C1013 C1014 1.362 . S
C1014 H1006 0.930 . S
C1014 C1013 1.362 . S
C1014 C1017 1.409 1_565 S
C1015 H1007 0.930 1_545 S
C1015 C1016 1.355 . S
C1015 C1017 1.415 . S
C1016 C1015 1.355 . S
C1016 C1018 1.419 . S
C1017 C1012 1.425 . S
C1017 C1014 1.409 1_545 S
C1017 C1015 1.415 . S
C1018 H1008 0.930 . S
C1018 C1016 1.419 . S
C1018 C1019 1.362 . S
C1019 H1009 0.930 . S
C1019 C1012 1.409 . S
C1019 C1018 1.362 . S
H1020 C1026 0.930 . S
H1021 C1029 0.930 . S
H1022 C1030 0.930 . S
H1023 C1031 0.930 . S
H1024 C1034 0.930 . S
H1025 C1035 0.930 . S
C1026 H1020 0.930 . S
C1026 C1027 1.355 . S
C1026 C1028 1.415 . S
C1027 C1026 1.355 . S
C1027 C1029 1.419 . S
C1028 C1026 1.415 . S
C1028 C1033 1.425 . S
C1028 C1035 1.409 . S
C1029 H1021 0.930 . S
C1029 C1027 1.419 . S
C1029 C1030 1.362 . S
C1030 H1022 0.930 . S
C1030 C1029 1.362 . S
C1030 C1033 1.409 . S
C1031 H1023 0.930 . S
C1031 C1032 1.355 . S
C1031 C1033 1.415 . S
C1032 C1031 1.355 . S
C1032 C1034 1.419 . S
C1033 C1028 1.425 . S
C1033 C1030 1.409 . S
C1033 C1031 1.415 . S
C1034 H1024 0.930 . S
C1034 C1032 1.419 . S
C1034 C1035 1.362 . S
C1035 H1025 0.930 . S
C1035 C1028 1.409 . S
C1035 C1034 1.362 . S
H1036 C1042 0.930 1_556 S
H1037 C1045 0.930 . S
H1038 C1046 0.930 . S
H1039 C1047 0.930 . S
H1040 C1050 0.930 . S
H1041 C1051 0.930 . S
C1042 H1036 0.930 1_554 S
C1042 C1043 1.355 . S
C1042 C1044 1.415 . S
C1043 C1042 1.355 . S
C1043 C1045 1.419 . S
C1044 C1042 1.415 . S
C1044 C1049 1.425 . S
C1044 C1051 1.409 1_554 S
C1045 H1037 0.930 . S
C1045 C1043 1.419 . S
C1045 C1046 1.362 . S
C1046 H1038 0.930 . S
C1046 C1045 1.362 . S
C1046 C1049 1.409 . S
C1047 H1039 0.930 . S
C1047 C1048 1.355 . S
C1047 C1049 1.415 . S
C1048 C1047 1.355 . S
C1048 C1050 1.419 1_554 S
C1049 C1044 1.425 . S
C1049 C1046 1.409 . S
C1049 C1047 1.415 . S
C1050 H1040 0.930 . S
C1050 C1048 1.419 1_556 S
C1050 C1051 1.362 . S
C1051 H1041 0.930 . S
C1051 C1044 1.409 1_556 S
C1051 C1050 1.362 . S
H1052 C1058 0.930 . S
H1053 C1061 0.930 . S
H1054 C1062 0.930 . S
H1055 C1063 0.930 . S
H1056 C1066 0.930 . S
H1057 C1067 0.930 . S
C1058 H1052 0.930 . S
C1058 C1059 1.355 . S
C1058 C1060 1.415 . S
C1059 C1058 1.355 . S
C1059 C1061 1.419 . S
C1060 C1058 1.415 . S
C1060 C1065 1.425 . S
C1060 C1067 1.409 . S
C1061 H1053 0.930 . S
C1061 C1059 1.419 . S
C1061 C1062 1.362 . S
C1062 H1054 0.930 . S
C1062 C1061 1.362 . S
C1062 C1065 1.409 . S
C1063 H1055 0.930 . S
C1063 C1064 1.355 . S
C1063 C1065 1.415 . S
C1064 C1063 1.355 . S
C1064 C1066 1.419 . S
C1065 C1060 1.425 . S
C1065 C1062 1.409 . S
C1065 C1063 1.415 . S
C1066 H1056 0.930 . S
C1066 C1064 1.419 . S
C1066 C1067 1.362 . S
C1067 H1057 0.930 . S
C1067 C1060 1.409 . S
C1067 C1066 1.362 . S
H1068 C1074 0.930 . S
H1069 C1077 0.930 . S
H1070 C1078 0.930 . S
H1071 C1079 0.930 . S
H1072 C1082 0.930 . S
H1073 C1083 0.930 . S
C1074 H1068 0.930 . S
C1074 C1075 1.355 . S
C1074 C1076 1.415 . S
C1075 C1074 1.355 . S
C1075 C1077 1.419 . S
C1076 C1074 1.415 . S
C1076 C1081 1.425 . S
C1076 C1083 1.409 . S
C1077 H1069 0.930 . S
C1077 C1075 1.419 . S
C1077 C1078 1.362 . S
C1078 H1070 0.930 . S
C1078 C1077 1.362 . S
C1078 C1081 1.409 . S
C1079 H1071 0.930 . S
C1079 C1080 1.355 . S
C1079 C1081 1.415 . S
C1080 C1079 1.355 . S
C1080 C1082 1.419 . S
C1081 C1076 1.425 . S
C1081 C1078 1.409 . S
C1081 C1079 1.415 . S
C1082 H1072 0.930 . S
C1082 C1080 1.419 . S
C1082 C1083 1.362 . S
C1083 H1073 0.930 . S
C1083 C1076 1.409 . S
C1083 C1082 1.362 . S
H1084 C1090 0.930 . S
H1085 C1093 0.930 . S
H1086 C1094 0.930 . S
H1087 C1095 0.930 . S
H1088 C1098 0.930 . S
H1089 C1099 0.930 . S
C1090 H1084 0.930 . S
C1090 C1091 1.355 . S
C1090 C1092 1.415 . S
C1091 C1090 1.355 . S
C1091 C1093 1.419 . S
C1092 C1090 1.415 . S
C1092 C1097 1.425 . S
C1092 C1099 1.409 . S
C1093 H1085 0.930 . S
C1093 C1091 1.419 . S
C1093 C1094 1.362 . S
C1094 H1086 0.930 . S
C1094 C1093 1.362 . S
C1094 C1097 1.409 . S
C1095 H1087 0.930 . S
C1095 C1096 1.355 . S
C1095 C1097 1.415 . S
C1096 C1095 1.355 . S
C1096 C1098 1.419 . S
C1097 C1092 1.425 . S
C1097 C1094 1.409 . S
C1097 C1095 1.415 . S
C1098 H1088 0.930 . S
C1098 C1096 1.419 . S
C1098 C1099 1.362 . S
C1099 H1089 0.930 . S
C1099 C1092 1.409 . S
C1099 C1098 1.362 . S
H1100 C1106 0.930 . S
H1101 C1109 0.930 . S
H1102 C1110 0.930 . S
H1103 C1111 0.930 . S
H1104 C1114 0.930 . S
H1105 C1115 0.930 . S
C1106 H1100 0.930 . S
C1106 C1107 1.355 . S
C1106 C1108 1.415 . S
C1107 C1106 1.355 . S
C1107 C1109 1.419 . S
C1108 C1106 1.415 . S
C1108 C1113 1.425 . S
C1108 C1115 1.409 . S
C1109 H1101 0.930 . S
C1109 C1107 1.419 . S
C1109 C1110 1.362 . S
C1110 H1102 0.930 . S
C1110 C1109 1.362 . S
C1110 C1113 1.409 . S
C1111 H1103 0.930 . S
C1111 C1112 1.355 . S
C1111 C1113 1.415 . S
C1112 C1111 1.355 . S
C1112 C1114 1.419 . S
C1113 C1108 1.425 . S
C1113 C1110 1.409 . S
C1113 C1111 1.415 . S
C1114 H1104 0.930 . S
C1114 C1112 1.419 . S
C1114 C1115 1.362 . S
C1115 H1105 0.930 . S
C1115 C1108 1.409 . S
C1115 C1114 1.362 . S
H1116 C1122 0.930 . S
H1117 C1125 0.930 . S
H1118 C1126 0.930 . S
H1119 C1127 0.930 . S
H1120 C1130 0.930 . S
H1121 C1131 0.930 . S
C1122 H1116 0.930 . S
C1122 C1123 1.355 . S
C1122 C1124 1.415 . S
C1123 C1122 1.355 . S
C1123 C1125 1.419 . S
C1124 C1122 1.415 . S
C1124 C1129 1.425 . S
C1124 C1131 1.409 . S
C1125 H1117 0.930 . S
C1125 C1123 1.419 . S
C1125 C1126 1.362 . S
C1126 H1118 0.930 . S
C1126 C1125 1.362 . S
C1126 C1129 1.409 . S
C1127 H1119 0.930 . S
C1127 C1128 1.355 . S
C1127 C1129 1.415 . S
C1128 C1127 1.355 . S
C1128 C1130 1.419 . S
C1129 C1124 1.425 . S
C1129 C1126 1.409 . S
C1129 C1127 1.415 . S
C1130 H1120 0.930 . S
C1130 C1128 1.419 . S
C1130 C1131 1.362 . S
C1131 H1121 0.930 . S
C1131 C1124 1.409 . S
C1131 C1130 1.362 . S
H1132 C1138 0.930 . S
H1133 C1141 0.930 . S
H1134 C1142 0.930 . S
H1135 C1143 0.930 . S
H1136 C1146 0.930 . S
H1137 C1147 0.930 . S
C1138 H1132 0.930 . S
C1138 C1139 1.355 . S
C1138 C1140 1.415 . S
C1139 C1138 1.355 . S
C1139 C1141 1.419 . S
C1140 C1138 1.415 . S
C1140 C1145 1.425 . S
C1140 C1147 1.409 . S
C1141 H1133 0.930 . S
C1141 C1139 1.419 . S
C1141 C1142 1.362 . S
C1142 H1134 0.930 . S
C1142 C1141 1.362 . S
C1142 C1145 1.409 . S
C1143 H1135 0.930 . S
C1143 C1144 1.355 . S
C1143 C1145 1.415 . S
C1144 C1143 1.355 . S
C1144 C1146 1.419 . S
C1145 C1140 1.425 . S
C1145 C1142 1.409 . S
C1145 C1143 1.415 . S
C1146 H1136 0.930 . S
C1146 C1144 1.419 . S
C1146 C1147 1.362 . S
C1147 H1137 0.930 . S
C1147 C1140 1.409 . S
C1147 C1146 1.362 . S
H1148 C1154 0.930 . S
H1149 C1157 0.930 . S
H1150 C1158 0.930 . S
H1151 C1159 0.930 . S
H1152 C1162 0.930 . S
H1153 C1163 0.930 . S
C1154 H1148 0.930 . S
C1154 C1155 1.355 . S
C1154 C1156 1.415 . S
C1155 C1154 1.355 . S
C1155 C1157 1.419 . S
C1156 C1154 1.415 . S
C1156 C1161 1.425 . S
C1156 C1163 1.409 . S
C1157 H1149 0.930 . S
C1157 C1155 1.419 . S
C1157 C1158 1.362 . S
C1158 H1150 0.930 . S
C1158 C1157 1.362 . S
C1158 C1161 1.409 . S
C1159 H1151 0.930 . S
C1159 C1160 1.355 . S
C1159 C1161 1.415 . S
C1160 C1159 1.355 . S
C1160 C1162 1.419 . S
C1161 C1156 1.425 . S
C1161 C1158 1.409 . S
C1161 C1159 1.415 . S
C1162 H1152 0.930 . S
C1162 C1160 1.419 . S
C1162 C1163 1.362 . S
C1163 H1153 0.930 . S
C1163 C1156 1.409 . S
C1163 C1162 1.362 . S
H1164 C1170 0.930 . S
H1165 C1173 0.930 . S
H1166 C1174 0.930 . S
H1167 C1175 0.930 . S
H1168 C1178 0.930 . S
H1169 C1179 0.930 . S
C1170 H1164 0.930 . S
C1170 C1171 1.355 . S
C1170 C1172 1.415 . S
C1171 C1170 1.355 . S
C1171 C1173 1.419 . S
C1172 C1170 1.415 . S
C1172 C1177 1.425 . S
C1172 C1179 1.409 . S
C1173 H1165 0.930 . S
C1173 C1171 1.419 . S
C1173 C1174 1.362 . S
C1174 H1166 0.930 . S
C1174 C1173 1.362 . S
C1174 C1177 1.409 . S
C1175 H1167 0.930 . S
C1175 C1176 1.355 . S
C1175 C1177 1.415 . S
C1176 C1175 1.355 . S
C1176 C1178 1.419 . S
C1177 C1172 1.425 . S
C1177 C1174 1.409 . S
C1177 C1175 1.415 . S
C1178 H1168 0.930 . S
C1178 C1176 1.419 . S
C1178 C1179 1.362 . S
C1179 H1169 0.930 . S
C1179 C1172 1.409 . S
C1179 C1178 1.362 . S
H1180 C1186 0.930 . S
H1181 C1189 0.930 . S
H1182 C1190 0.930 . S
H1183 C1191 0.930 . S
H1184 C1194 0.930 . S
H1185 C1195 0.930 . S
C1186 H1180 0.930 . S
C1186 C1187 1.355 . S
C1186 C1188 1.415 . S
C1187 C1186 1.355 . S
C1187 C1189 1.419 1_565 S
C1188 C1186 1.415 . S
C1188 C1193 1.425 . S
C1188 C1195 1.409 . S
C1189 H1181 0.930 . S
C1189 C1187 1.419 1_545 S
C1189 C1190 1.362 . S
C1190 H1182 0.930 . S
C1190 C1189 1.362 . S
C1190 C1193 1.409 1_545 S
C1191 H1183 0.930 . S
C1191 C1192 1.355 1_545 S
C1191 C1193 1.415 1_545 S
C1192 C1191 1.355 1_565 S
C1192 C1194 1.419 . S
C1193 C1188 1.425 . S
C1193 C1190 1.409 1_565 S
C1193 C1191 1.415 1_565 S
C1194 H1184 0.930 . S
C1194 C1192 1.419 . S
C1194 C1195 1.362 . S
C1195 H1185 0.930 . S
C1195 C1188 1.409 . S
C1195 C1194 1.362 . S
H1196 C1202 0.930 . S
H1197 C1205 0.930 . S
H1198 C1206 0.930 . S
H1199 C1207 0.930 . S
H1200 C1210 0.930 . S
H1201 C1211 0.930 . S
C1202 H1196 0.930 . S
C1202 C1203 1.355 . S
C1202 C1204 1.415 . S
C1203 C1202 1.355 . S
C1203 C1205 1.419 . S
C1204 C1202 1.415 . S
C1204 C1209 1.425 . S
C1204 C1211 1.409 . S
C1205 H1197 0.930 . S
C1205 C1203 1.419 . S
C1205 C1206 1.362 . S
C1206 H1198 0.930 . S
C1206 C1205 1.362 . S
C1206 C1209 1.409 . S
C1207 H1199 0.930 . S
C1207 C1208 1.355 . S
C1207 C1209 1.415 . S
C1208 C1207 1.355 . S
C1208 C1210 1.419 . S
C1209 C1204 1.425 . S
C1209 C1206 1.409 . S
C1209 C1207 1.415 . S
C1210 H1200 0.930 . S
C1210 C1208 1.419 . S
C1210 C1211 1.362 . S
C1211 H1201 0.930 . S
C1211 C1204 1.409 . S
C1211 C1210 1.362 . S
H1212 C1218 0.930 . S
H1213 C1221 0.930 . S
H1214 C1222 0.930 . S
H1215 C1223 0.930 . S
H1216 C1226 0.930 . S
H1217 C1227 0.930 . S
C1218 H1212 0.930 . S
C1218 C1219 1.355 . S
C1218 C1220 1.415 . S
C1219 C1218 1.355 . S
C1219 C1221 1.419 . S
C1220 C1218 1.415 . S
C1220 C1225 1.425 . S
C1220 C1227 1.409 . S
C1221 H1213 0.930 . S
C1221 C1219 1.419 . S
C1221 C1222 1.362 . S
C1222 H1214 0.930 . S
C1222 C1221 1.362 . S
C1222 C1225 1.409 . S
C1223 H1215 0.930 . S
C1223 C1224 1.355 . S
C1223 C1225 1.415 . S
C1224 C1223 1.355 . S
C1224 C1226 1.419 . S
C1225 C1220 1.425 . S
C1225 C1222 1.409 . S
C1225 C1223 1.415 . S
C1226 H1216 0.930 . S
C1226 C1224 1.419 . S
C1226 C1227 1.362 . S
C1227 H1217 0.930 . S
C1227 C1220 1.409 . S
C1227 C1226 1.362 . S
H1228 C1234 0.930 . S
H1229 C1237 0.930 . S
H1230 C1238 0.930 . S
H1231 C1239 0.930 . S
H1232 C1242 0.930 . S
H1233 C1243 0.930 . S
C1234 H1228 0.930 . S
C1234 C1235 1.355 . S
C1234 C1236 1.415 . S
C1235 C1234 1.355 . S
C1235 C1237 1.419 . S
C1236 C1234 1.415 . S
C1236 C1241 1.425 . S
C1236 C1243 1.409 . S
C1237 H1229 0.930 . S
C1237 C1235 1.419 . S
C1237 C1238 1.362 . S
C1238 H1230 0.930 . S
C1238 C1237 1.362 . S
C1238 C1241 1.409 . S
C1239 H1231 0.930 . S
C1239 C1240 1.355 . S
C1239 C1241 1.415 . S
C1240 C1239 1.355 . S
C1240 C1242 1.419 . S
C1241 C1236 1.425 . S
C1241 C1238 1.409 . S
C1241 C1239 1.415 . S
C1242 H1232 0.930 . S
C1242 C1240 1.419 . S
C1242 C1243 1.362 . S
C1243 H1233 0.930 . S
C1243 C1236 1.409 . S
C1243 C1242 1.362 . S
H1244 C1250 0.930 . S
H1245 C1253 0.930 . S
H1246 C1254 0.930 . S
H1247 C1255 0.930 . S
H1248 C1258 0.930 . S
H1249 C1259 0.930 . S
C1250 H1244 0.930 . S
C1250 C1251 1.355 . S
C1250 C1252 1.415 . S
C1251 C1250 1.355 . S
C1251 C1253 1.419 . S
C1252 C1250 1.415 . S
C1252 C1257 1.425 . S
C1252 C1259 1.409 . S
C1253 H1245 0.930 . S
C1253 C1251 1.419 . S
C1253 C1254 1.362 . S
C1254 H1246 0.930 . S
C1254 C1253 1.362 . S
C1254 C1257 1.409 . S
C1255 H1247 0.930 . S
C1255 C1256 1.355 . S
C1255 C1257 1.415 . S
C1256 C1255 1.355 . S
C1256 C1258 1.419 . S
C1257 C1252 1.425 . S
C1257 C1254 1.409 . S
C1257 C1255 1.415 . S
C1258 H1248 0.930 . S
C1258 C1256 1.419 . S
C1258 C1259 1.362 . S
C1259 H1249 0.930 . S
C1259 C1252 1.409 . S
C1259 C1258 1.362 . S
H1260 C1266 0.930 . S
H1261 C1269 0.930 . S
H1262 C1270 0.930 . S
H1263 C1271 0.934 1_554 S
H1264 C1274 0.930 . S
H1265 C1275 0.930 . S
C1266 H1260 0.930 . S
C1266 C1267 1.355 . S
C1266 C1268 1.415 . S
C1267 C1266 1.355 . S
C1267 C1269 1.419 1_556 S
C1268 C1266 1.415 . S
C1268 C1273 1.425 . S
C1268 C1275 1.409 . S
C1269 H1261 0.930 . S
C1269 C1267 1.419 1_554 S
C1269 C1270 1.362 . S
C1270 H1262 0.930 . S
C1270 C1269 1.362 . S
C1270 C1273 1.409 1_554 S
C1271 H1263 0.934 1_556 S
C1271 C1272 1.352 . S
C1271 C1273 1.413 . S
C1272 C1271 1.352 . S
C1272 C1274 1.419 . S
C1273 C1268 1.425 . S
C1273 C1270 1.409 1_556 S
C1273 C1271 1.413 . S
C1274 H1264 0.930 . S
C1274 C1272 1.419 . S
C1274 C1275 1.362 . S
C1275 H1265 0.930 . S
C1275 C1268 1.409 . S
C1275 C1274 1.362 . S
H1276 C1282 0.930 . S
H1277 C1285 0.930 . S
H1278 C1286 0.930 . S
H1279 C1287 0.930 . S
H1280 C1290 0.930 . S
H1281 C1291 0.930 . S
C1282 H1276 0.930 . S
C1282 C1283 1.355 . S
C1282 C1284 1.415 . S
C1283 C1282 1.355 . S
C1283 C1285 1.419 . S
C1284 C1282 1.415 . S
C1284 C1289 1.425 . S
C1284 C1291 1.409 . S
C1285 H1277 0.930 . S
C1285 C1283 1.419 . S
C1285 C1286 1.362 . S
C1286 H1278 0.930 . S
C1286 C1285 1.362 . S
C1286 C1289 1.409 . S
C1287 H1279 0.930 . S
C1287 C1288 1.355 1_655 S
C1287 C1289 1.415 . S
C1288 C1287 1.355 1_455 S
C1288 C1290 1.419 . S
C1289 C1284 1.425 . S
C1289 C1286 1.409 . S
C1289 C1287 1.415 . S
C1290 H1280 0.930 . S
C1290 C1288 1.419 . S
C1290 C1291 1.362 1_455 S
C1291 H1281 0.930 . S
C1291 C1284 1.409 . S
C1291 C1290 1.362 1_655 S
H1292 C1298 0.930 . S
H1293 C1301 0.930 . S
H1294 C1302 0.930 . S
H1295 C1303 0.930 . S
H1296 C1306 0.930 . S
H1297 C1307 0.930 . S
C1298 H1292 0.930 . S
C1298 C1299 1.355 . S
C1298 C1300 1.415 . S
C1299 C1298 1.355 . S
C1299 C1301 1.419 . S
C1300 C1298 1.415 . S
C1300 C1305 1.425 . S
C1300 C1307 1.409 . S
C1301 H1293 0.930 . S
C1301 C1299 1.419 . S
C1301 C1302 1.362 . S
C1302 H1294 0.930 . S
C1302 C1301 1.362 . S
C1302 C1305 1.409 . S
C1303 H1295 0.930 . S
C1303 C1304 1.355 . S
C1303 C1305 1.415 . S
C1304 C1303 1.355 . S
C1304 C1306 1.419 . S
C1305 C1300 1.425 . S
C1305 C1302 1.409 . S
C1305 C1303 1.415 . S
C1306 H1296 0.930 . S
C1306 C1304 1.419 . S
C1306 C1307 1.362 . S
C1307 H1297 0.930 . S
C1307 C1300 1.409 . S
C1307 C1306 1.362 . S
H1308 C1314 0.930 . S
H1309 C1317 0.930 . S
H1310 C1318 0.930 . S
H1311 C1319 0.930 . S
H1312 C1322 0.930 . S
H1313 C1323 0.930 . S
C1314 H1308 0.930 . S
C1314 C1315 1.355 . S
C1314 C1316 1.415 . S
C1315 C1314 1.355 . S
C1315 C1317 1.419 1_655 S
C1316 C1314 1.415 . S
C1316 C1321 1.425 1_655 S
C1316 C1323 1.409 . S
C1317 H1309 0.930 . S
C1317 C1315 1.419 1_455 S
C1317 C1318 1.362 . S
C1318 H1310 0.930 . S
C1318 C1317 1.362 . S
C1318 C1321 1.409 . S
C1319 H1311 0.930 . S
C1319 C1320 1.355 . S
C1319 C1321 1.415 . S
C1320 C1319 1.355 . S
C1320 C1322 1.419 1_455 S
C1321 C1316 1.425 1_455 S
C1321 C1318 1.409 . S
C1321 C1319 1.415 . S
C1322 H1312 0.930 . S
C1322 C1320 1.419 1_655 S
C1322 C1323 1.362 . S
C1323 H1313 0.930 . S
C1323 C1316 1.409 . S
C1323 C1322 1.362 . S
H1324 C1330 0.930 . S
H1325 C1333 0.930 . S
H1326 C1334 0.930 . S
H1327 C1335 0.930 . S
H1328 C1338 0.930 . S
H1329 C1339 0.930 . S
C1330 H1324 0.930 . S
C1330 C1331 1.355 . S
C1330 C1332 1.415 . S
C1331 C1330 1.355 . S
C1331 C1333 1.419 . S
C1332 C1330 1.415 . S
C1332 C1337 1.425 . S
C1332 C1339 1.409 1_455 S
C1333 H1325 0.930 . S
C1333 C1331 1.419 . S
C1333 C1334 1.362 . S
C1334 H1326 0.930 . S
C1334 C1333 1.362 . S
C1334 C1337 1.409 . S
C1335 H1327 0.930 . S
C1335 C1336 1.355 . S
C1335 C1337 1.415 . S
C1336 C1335 1.355 . S
C1336 C1338 1.419 1_455 S
C1337 C1332 1.425 . S
C1337 C1334 1.409 . S
C1337 C1335 1.415 . S
C1338 H1328 0.930 . S
C1338 C1336 1.419 1_655 S
C1338 C1339 1.362 . S
C1339 H1329 0.930 . S
C1339 C1332 1.409 1_655 S
C1339 C1338 1.362 . S
H1340 C1346 0.930 . S
H1341 C1349 0.930 . S
H1342 C1350 0.930 . S
H1343 C1351 0.930 . S
H1344 C1354 0.930 . S
H1345 C1355 0.930 . S
C1346 H1340 0.930 . S
C1346 C1347 1.355 . S
C1346 C1348 1.415 . S
C1347 C1346 1.355 . S
C1347 C1349 1.419 . S
C1348 C1346 1.415 . S
C1348 C1353 1.425 . S
C1348 C1355 1.409 . S
C1349 H1341 0.930 . S
C1349 C1347 1.419 . S
C1349 C1350 1.362 . S
C1350 H1342 0.930 . S
C1350 C1349 1.362 . S
C1350 C1353 1.409 . S
C1351 H1343 0.930 . S
C1351 C1352 1.355 . S
C1351 C1353 1.415 . S
C1352 C1351 1.355 . S
C1352 C1354 1.419 . S
C1353 C1348 1.425 . S
C1353 C1350 1.409 . S
C1353 C1351 1.415 . S
C1354 H1344 0.930 . S
C1354 C1352 1.419 . S
C1354 C1355 1.362 . S
C1355 H1345 0.930 . S
C1355 C1348 1.409 . S
C1355 C1354 1.362 . S
H1356 C1362 0.930 . S
H1357 C1365 0.930 . S
H1358 C1366 0.930 . S
H1359 C1367 0.930 . S
H1360 C1370 0.930 . S
H1361 C1371 0.930 . S
C1362 H1356 0.930 . S
C1362 C1363 1.355 . S
C1362 C1364 1.415 . S
C1363 C1362 1.355 . S
C1363 C1365 1.419 . S
C1364 C1362 1.415 . S
C1364 C1369 1.425 . S
C1364 C1371 1.409 . S
C1365 H1357 0.930 . S
C1365 C1363 1.419 . S
C1365 C1366 1.362 . S
C1366 H1358 0.930 . S
C1366 C1365 1.362 . S
C1366 C1369 1.409 . S
C1367 H1359 0.930 . S
C1367 C1368 1.355 . S
C1367 C1369 1.415 . S
C1368 C1367 1.355 . S
C1368 C1370 1.419 . S
C1369 C1364 1.425 . S
C1369 C1366 1.409 . S
C1369 C1367 1.415 . S
C1370 H1360 0.930 . S
C1370 C1368 1.419 . S
C1370 C1371 1.362 . S
C1371 H1361 0.930 . S
C1371 C1364 1.409 . S
C1371 C1370 1.362 . S
H1372 C1378 0.930 . S
H1373 C1381 0.930 . S
H1374 C1382 0.930 . S
H1375 C1383 0.930 . S
H1376 C1386 0.930 . S
H1377 C1387 0.930 . S
C1378 H1372 0.930 . S
C1378 C1379 1.355 . S
C1378 C1380 1.415 . S
C1379 C1378 1.355 . S
C1379 C1381 1.419 . S
C1380 C1378 1.415 . S
C1380 C1385 1.425 . S
C1380 C1387 1.409 . S
C1381 H1373 0.930 . S
C1381 C1379 1.419 . S
C1381 C1382 1.362 . S
C1382 H1374 0.930 . S
C1382 C1381 1.362 . S
C1382 C1385 1.409 . S
C1383 H1375 0.930 . S
C1383 C1384 1.355 . S
C1383 C1385 1.415 . S
C1384 C1383 1.355 . S
C1384 C1386 1.419 . S
C1385 C1380 1.425 . S
C1385 C1382 1.409 . S
C1385 C1383 1.415 . S
C1386 H1376 0.930 . S
C1386 C1384 1.419 . S
C1386 C1387 1.362 . S
C1387 H1377 0.930 . S
C1387 C1380 1.409 . S
C1387 C1386 1.362 . S
H1388 C1394 0.930 1_545 S
H1389 C1397 0.930 . S
H1390 C1398 0.930 . S
H1391 C1399 0.930 . S
H1392 C1402 0.930 . S
H1393 C1403 0.930 1_545 S
C1394 H1388 0.930 1_565 S
C1394 C1395 1.355 . S
C1394 C1396 1.415 . S
C1395 C1394 1.355 . S
C1395 C1397 1.419 . S
C1396 C1394 1.415 . S
C1396 C1401 1.425 . S
C1396 C1403 1.409 . S
C1397 H1389 0.930 . S
C1397 C1395 1.419 . S
C1397 C1398 1.362 . S
C1398 H1390 0.930 . S
C1398 C1397 1.362 . S
C1398 C1401 1.409 . S
C1399 H1391 0.930 . S
C1399 C1400 1.355 . S
C1399 C1401 1.415 . S
C1400 C1399 1.355 . S
C1400 C1402 1.419 . S
C1401 C1396 1.425 . S
C1401 C1398 1.409 . S
C1401 C1399 1.415 . S
C1402 H1392 0.930 . S
C1402 C1400 1.419 . S
C1402 C1403 1.362 . S
C1403 H1393 0.930 1_565 S
C1403 C1396 1.409 . S
C1403 C1402 1.362 . S
H1404 C1410 0.930 . S
H1405 C1413 0.930 . S
H1406 C1414 0.930 . S
H1407 C1415 0.930 . S
H1408 C1418 0.930 . S
H1409 C1419 0.930 . S
C1410 H1404 0.930 . S
C1410 C1411 1.355 . S
C1410 C1412 1.415 . S
C1411 C1410 1.355 . S
C1411 C1413 1.419 . S
C1412 C1410 1.415 . S
C1412 C1417 1.425 . S
C1412 C1419 1.409 . S
C1413 H1405 0.930 . S
C1413 C1411 1.419 . S
C1413 C1414 1.362 . S
C1414 H1406 0.930 . S
C1414 C1413 1.362 . S
C1414 C1417 1.409 . S
C1415 H1407 0.930 . S
C1415 C1416 1.355 . S
C1415 C1417 1.415 . S
C1416 C1415 1.355 . S
C1416 C1418 1.419 . S
C1417 C1412 1.425 . S
C1417 C1414 1.409 . S
C1417 C1415 1.415 . S
C1418 H1408 0.930 . S
C1418 C1416 1.419 . S
C1418 C1419 1.362 . S
C1419 H1409 0.930 . S
C1419 C1412 1.409 . S
C1419 C1418 1.362 . S
H1420 C1426 0.930 . S
H1421 C1429 0.930 . S
H1422 C1430 0.930 . S
H1423 C1431 0.930 . S
H1424 C1434 0.930 . S
H1425 C1435 0.930 . S
C1426 H1420 0.930 . S
C1426 C1427 1.355 . S
C1426 C1428 1.415 . S
C1427 C1426 1.355 . S
C1427 C1429 1.419 . S
C1428 C1426 1.415 . S
C1428 C1433 1.425 . S
C1428 C1435 1.409 . S
C1429 H1421 0.930 . S
C1429 C1427 1.419 . S
C1429 C1430 1.362 . S
C1430 H1422 0.930 . S
C1430 C1429 1.362 . S
C1430 C1433 1.409 . S
C1431 H1423 0.930 . S
C1431 C1432 1.355 . S
C1431 C1433 1.415 . S
C1432 C1431 1.355 . S
C1432 C1434 1.419 . S
C1433 C1428 1.425 . S
C1433 C1430 1.409 . S
C1433 C1431 1.415 . S
C1434 H1424 0.930 . S
C1434 C1432 1.419 . S
C1434 C1435 1.362 . S
C1435 H1425 0.930 . S
C1435 C1428 1.409 . S
C1435 C1434 1.362 . S
H1436 C1442 0.930 . S
H1437 C1445 0.930 . S
H1438 C1446 0.930 . S
H1439 C1447 0.930 . S
H1440 C1450 0.930 . S
H1441 C1451 0.930 . S
C1442 H1436 0.930 . S
C1442 C1443 1.355 . S
C1442 C1444 1.415 . S
C1443 C1442 1.355 . S
C1443 C1445 1.419 . S
C1444 C1442 1.415 . S
C1444 C1449 1.425 . S
C1444 C1451 1.409 . S
C1445 H1437 0.930 . S
C1445 C1443 1.419 . S
C1445 C1446 1.362 . S
C1446 H1438 0.930 . S
C1446 C1445 1.362 . S
C1446 C1449 1.409 . S
C1447 H1439 0.930 . S
C1447 C1448 1.355 . S
C1447 C1449 1.415 . S
C1448 C1447 1.355 . S
C1448 C1450 1.419 . S
C1449 C1444 1.425 . S
C1449 C1446 1.409 . S
C1449 C1447 1.415 . S
C1450 H1440 0.930 . S
C1450 C1448 1.419 . S
C1450 C1451 1.362 . S
C1451 H1441 0.930 . S
C1451 C1444 1.409 . S
C1451 C1450 1.362 . S
H1452 C1458 0.930 . S
H1453 C1461 0.930 . S
H1454 C1462 0.930 . S
H1455 C1463 0.930 . S
H1456 C1466 0.930 . S
H1457 C1467 0.930 . S
C1458 H1452 0.930 . S
C1458 C1459 1.355 . S
C1458 C1460 1.415 . S
C1459 C1458 1.355 . S
C1459 C1461 1.419 . S
C1460 C1458 1.415 . S
C1460 C1465 1.425 . S
C1460 C1467 1.409 . S
C1461 H1453 0.930 . S
C1461 C1459 1.419 . S
C1461 C1462 1.362 . S
C1462 H1454 0.930 . S
C1462 C1461 1.362 . S
C1462 C1465 1.409 . S
C1463 H1455 0.930 . S
C1463 C1464 1.355 . S
C1463 C1465 1.415 . S
C1464 C1463 1.355 . S
C1464 C1466 1.419 . S
C1465 C1460 1.425 . S
C1465 C1462 1.409 . S
C1465 C1463 1.415 . S
C1466 H1456 0.930 . S
C1466 C1464 1.419 . S
C1466 C1467 1.362 . S
C1467 H1457 0.930 . S
C1467 C1460 1.409 . S
C1467 C1466 1.362 . S
H1468 C1474 0.930 . S
H1469 C1477 0.930 . S
H1470 C1478 0.930 . S
H1471 C1479 0.930 . S
H1472 C1482 0.930 . S
H1473 C1483 0.930 . S
C1474 H1468 0.930 . S
C1474 C1475 1.355 . S
C1474 C1476 1.415 . S
C1475 C1474 1.355 . S
C1475 C1477 1.419 . S
C1476 C1474 1.415 . S
C1476 C1481 1.425 . S
C1476 C1483 1.409 . S
C1477 H1469 0.930 . S
C1477 C1475 1.419 . S
C1477 C1478 1.362 . S
C1478 H1470 0.930 . S
C1478 C1477 1.362 . S
C1478 C1481 1.409 . S
C1479 H1471 0.930 . S
C1479 C1480 1.355 . S
C1479 C1481 1.415 . S
C1480 C1479 1.355 . S
C1480 C1482 1.419 . S
C1481 C1476 1.425 . S
C1481 C1478 1.409 . S
C1481 C1479 1.415 . S
C1482 H1472 0.930 . S
C1482 C1480 1.419 . S
C1482 C1483 1.362 . S
C1483 H1473 0.930 . S
C1483 C1476 1.409 . S
C1483 C1482 1.362 . S
H1484 C1490 0.930 . S
H1485 C1493 0.930 . S
H1486 C1494 0.930 . S
H1487 C1495 0.930 . S
H1488 C1498 0.930 . S
H1489 C1499 0.930 . S
C1490 H1484 0.930 . S
C1490 C1491 1.355 . S
C1490 C1492 1.415 . S
C1491 C1490 1.355 . S
C1491 C1493 1.419 . S
C1492 C1490 1.415 . S
C1492 C1497 1.425 . S
C1492 C1499 1.409 . S
C1493 H1485 0.930 . S
C1493 C1491 1.419 . S
C1493 C1494 1.362 . S
C1494 H1486 0.930 . S
C1494 C1493 1.362 . S
C1494 C1497 1.409 . S
C1495 H1487 0.930 . S
C1495 C1496 1.355 . S
C1495 C1497 1.415 . S
C1496 C1495 1.355 . S
C1496 C1498 1.419 . S
C1497 C1492 1.425 . S
C1497 C1494 1.409 . S
C1497 C1495 1.415 . S
C1498 H1488 0.930 . S
C1498 C1496 1.419 . S
C1498 C1499 1.362 . S
C1499 H1489 0.930 . S
C1499 C1492 1.409 . S
C1499 C1498 1.362 . S
H1500 C1506 0.930 . S
H1501 C1509 0.930 . S
H1502 C1510 0.930 . S
H1503 C1511 0.930 . S
H1504 C1514 0.930 . S
H1505 C1515 0.930 . S
C1506 H1500 0.930 . S
C1506 C1507 1.355 . S
C1506 C1508 1.415 . S
C1507 C1506 1.355 . S
C1507 C1509 1.419 . S
C1508 C1506 1.415 . S
C1508 C1513 1.425 . S
C1508 C1515 1.409 . S
C1509 H1501 0.930 . S
C1509 C1507 1.419 . S
C1509 C1510 1.362 . S
C1510 H1502 0.930 . S
C1510 C1509 1.362 . S
C1510 C1513 1.409 . S
C1511 H1503 0.930 . S
C1511 C1512 1.355 . S
C1511 C1513 1.415 . S
C1512 C1511 1.355 . S
C1512 C1514 1.419 . S
C1513 C1508 1.425 . S
C1513 C1510 1.409 . S
C1513 C1511 1.415 . S
C1514 H1504 0.930 . S
C1514 C1512 1.419 . S
C1514 C1515 1.362 . S
C1515 H1505 0.930 . S
C1515 C1508 1.409 . S
C1515 C1514 1.362 . S
H1516 C1522 0.930 . S
H1517 C1525 0.930 . S
H1518 C1526 0.930 . S
H1519 C1527 0.930 . S
H1520 C1530 0.930 . S
H1521 C1531 0.930 . S
C1522 H1516 0.930 . S
C1522 C1523 1.355 . S
C1522 C1524 1.415 . S
C1523 C1522 1.355 . S
C1523 C1525 1.419 . S
C1524 C1522 1.415 . S
C1524 C1529 1.425 . S
C1524 C1531 1.409 . S
C1525 H1517 0.930 . S
C1525 C1523 1.419 . S
C1525 C1526 1.362 . S
C1526 H1518 0.930 . S
C1526 C1525 1.362 . S
C1526 C1529 1.409 . S
C1527 H1519 0.930 . S
C1527 C1528 1.355 . S
C1527 C1529 1.415 . S
C1528 C1527 1.355 . S
C1528 C1530 1.419 . S
C1529 C1524 1.425 . S
C1529 C1526 1.409 . S
C1529 C1527 1.415 . S
C1530 H1520 0.930 . S
C1530 C1528 1.419 . S
C1530 C1531 1.362 . S
C1531 H1521 0.930 . S
C1531 C1524 1.409 . S
C1531 C1530 1.362 . S
H1532 C1538 0.930 . S
H1533 C1541 0.930 . S
H1534 C1542 0.930 . S
H1535 C1543 0.930 . S
H1536 C1546 0.930 . S
H1537 C1547 0.930 . S
C1538 H1532 0.930 . S
C1538 C1539 1.355 . S
C1538 C1540 1.415 . S
C1539 C1538 1.355 . S
C1539 C1541 1.419 . S
C1540 C1538 1.415 . S
C1540 C1545 1.425 . S
C1540 C1547 1.409 . S
C1541 H1533 0.930 . S
C1541 C1539 1.419 . S
C1541 C1542 1.362 . S
C1542 H1534 0.930 . S
C1542 C1541 1.362 . S
C1542 C1545 1.409 . S
C1543 H1535 0.930 . S
C1543 C1544 1.355 . S
C1543 C1545 1.415 . S
C1544 C1543 1.355 . S
C1544 C1546 1.419 . S
C1545 C1540 1.425 . S
C1545 C1542 1.409 . S
C1545 C1543 1.415 . S
C1546 H1536 0.930 . S
C1546 C1544 1.419 . S
C1546 C1547 1.362 . S
C1547 H1537 0.930 . S
C1547 C1540 1.409 . S
C1547 C1546 1.362 . S
H1548 C1554 0.930 . S
H1549 C1557 0.930 . S
H1550 C1558 0.930 . S
H1551 C1559 0.930 . S
H1552 C1562 0.930 . S
H1553 C1563 0.930 . S
C1554 H1548 0.930 . S
C1554 C1555 1.355 . S
C1554 C1556 1.415 . S
C1555 C1554 1.355 . S
C1555 C1557 1.419 . S
C1556 C1554 1.415 . S
C1556 C1561 1.425 . S
C1556 C1563 1.409 . S
C1557 H1549 0.930 . S
C1557 C1555 1.419 . S
C1557 C1558 1.362 . S
C1558 H1550 0.930 . S
C1558 C1557 1.362 . S
C1558 C1561 1.409 . S
C1559 H1551 0.930 . S
C1559 C1560 1.355 . S
C1559 C1561 1.415 . S
C1560 C1559 1.355 . S
C1560 C1562 1.419 . S
C1561 C1556 1.425 . S
C1561 C1558 1.409 . S
C1561 C1559 1.415 . S
C1562 H1552 0.930 . S
C1562 C1560 1.419 . S
C1562 C1563 1.362 . S
C1563 H1553 0.930 . S
C1563 C1556 1.409 . S
C1563 C1562 1.362 . S
H1564 C1570 0.930 . S
H1565 C1573 0.930 1_545 S
H1566 C1574 0.930 1_545 S
H1567 C1575 0.930 . S
H1568 C1578 0.930 . S
H1569 C1579 0.930 . S
C1570 H1564 0.930 . S
C1570 C1571 1.355 . S
C1570 C1572 1.415 . S
C1571 C1570 1.355 . S
C1571 C1573 1.419 . S
C1572 C1570 1.415 . S
C1572 C1577 1.425 . S
C1572 C1579 1.409 . S
C1573 H1565 0.930 1_565 S
C1573 C1571 1.419 . S
C1573 C1574 1.362 . S
C1574 H1566 0.930 1_565 S
C1574 C1573 1.362 . S
C1574 C1577 1.409 . S
C1575 H1567 0.930 . S
C1575 C1576 1.355 . S
C1575 C1577 1.415 . S
C1576 C1575 1.355 . S
C1576 C1578 1.419 . S
C1577 C1572 1.425 . S
C1577 C1574 1.409 . S
C1577 C1575 1.415 . S
C1578 H1568 0.930 . S
C1578 C1576 1.419 . S
C1578 C1579 1.362 . S
C1579 H1569 0.930 . S
C1579 C1572 1.409 . S
C1579 C1578 1.362 . S
H1580 C1586 0.930 . S
H1581 C1589 0.930 . S
H1582 C1590 0.930 . S
H1583 C1591 0.930 . S
H1584 C1594 0.930 . S
H1585 C1595 0.930 . S
C1586 H1580 0.930 . S
C1586 C1587 1.355 . S
C1586 C1588 1.415 . S
C1587 C1586 1.355 . S
C1587 C1589 1.419 . S
C1588 C1586 1.415 . S
C1588 C1593 1.425 . S
C1588 C1595 1.409 . S
C1589 H1581 0.930 . S
C1589 C1587 1.419 . S
C1589 C1590 1.362 . S
C1590 H1582 0.930 . S
C1590 C1589 1.362 . S
C1590 C1593 1.409 . S
C1591 H1583 0.930 . S
C1591 C1592 1.355 . S
C1591 C1593 1.415 . S
C1592 C1591 1.355 . S
C1592 C1594 1.419 . S
C1593 C1588 1.425 . S
C1593 C1590 1.409 . S
C1593 C1591 1.415 . S
C1594 H1584 0.930 . S
C1594 C1592 1.419 . S
C1594 C1595 1.362 . S
C1595 H1585 0.930 . S
C1595 C1588 1.409 . S
C1595 C1594 1.362 . S
H1596 C1602 0.930 . S
H1597 C1605 0.930 . S
H1598 C1606 0.930 1_565 S
H1599 C1607 0.930 1_565 S
H1600 C1610 0.930 . S
H1601 C1611 0.930 . S
C1602 H1596 0.930 . S
C1602 C1603 1.355 . S
C1602 C1604 1.415 . S
C1603 C1602 1.355 . S
C1603 C1605 1.419 . S
C1604 C1602 1.415 . S
C1604 C1609 1.425 . S
C1604 C1611 1.409 . S
C1605 H1597 0.930 . S
C1605 C1603 1.419 . S
C1605 C1606 1.362 . S
C1606 H1598 0.930 1_545 S
C1606 C1605 1.362 . S
C1606 C1609 1.409 . S
C1607 H1599 0.930 1_545 S
C1607 C1608 1.355 . S
C1607 C1609 1.415 . S
C1608 C1607 1.355 . S
C1608 C1610 1.419 . S
C1609 C1604 1.425 . S
C1609 C1606 1.409 . S
C1609 C1607 1.415 . S
C1610 H1600 0.930 . S
C1610 C1608 1.419 . S
C1610 C1611 1.362 . S
C1611 H1601 0.930 . S
C1611 C1604 1.409 . S
C1611 C1610 1.362 . S
H1612 C1618 0.930 . S
H1613 C1621 0.930 . S
H1614 C1622 0.930 . S
H1615 C1623 0.930 . S
H1616 C1626 0.930 . S
H1617 C1627 0.930 . S
C1618 H1612 0.930 . S
C1618 C1619 1.355 . S
C1618 C1620 1.415 . S
C1619 C1618 1.355 . S
C1619 C1621 1.419 . S
C1620 C1618 1.415 . S
C1620 C1625 1.425 . S
C1620 C1627 1.409 . S
C1621 H1613 0.930 . S
C1621 C1619 1.419 . S
C1621 C1622 1.362 . S
C1622 H1614 0.930 . S
C1622 C1621 1.362 . S
C1622 C1625 1.409 . S
C1623 H1615 0.930 . S
C1623 C1624 1.355 . S
C1623 C1625 1.415 . S
C1624 C1623 1.355 . S
C1624 C1626 1.419 . S
C1625 C1620 1.425 . S
C1625 C1622 1.409 . S
C1625 C1623 1.415 . S
C1626 H1616 0.930 . S
C1626 C1624 1.419 . S
C1626 C1627 1.362 . S
C1627 H1617 0.930 . S
C1627 C1620 1.409 . S
C1627 C1626 1.362 . S
H1628 C1634 0.930 . S
H1629 C1637 0.930 . S
H1630 C1638 0.930 . S
H1631 C1639 0.930 . S
H1632 C1642 0.930 . S
H1633 C1643 0.930 . S
C1634 H1628 0.930 . S
C1634 C1635 1.355 1_554 S
C1634 C1636 1.415 1_554 S
C1635 C1634 1.355 1_556 S
C1635 C1637 1.419 . S
C1636 C1634 1.415 1_556 S
C1636 C1641 1.425 . S
C1636 C1643 1.409 1_556 S
C1637 H1629 0.930 . S
C1637 C1635 1.419 . S
C1637 C1638 1.362 . S
C1638 H1630 0.930 . S
C1638 C1637 1.362 . S
C1638 C1641 1.409 . S
C1639 H1631 0.930 . S
C1639 C1640 1.355 . S
C1639 C1641 1.415 . S
C1640 C1639 1.355 . S
C1640 C1642 1.419 1_556 S
C1641 C1636 1.425 . S
C1641 C1638 1.409 . S
C1641 C1639 1.415 . S
C1642 H1632 0.930 . S
C1642 C1640 1.419 1_554 S
C1642 C1643 1.362 . S
C1643 H1633 0.930 . S
C1643 C1636 1.409 1_554 S
C1643 C1642 1.362 . S
H1644 C1650 0.930 . S
H1645 C1653 0.918 1_554 S
H1646 C1654 0.930 1_554 S
H1647 C1655 0.930 . S
H1648 C1658 0.930 . S
H1649 C1659 0.930 . S
C1650 H1644 0.930 . S
C1650 C1651 1.355 . S
C1650 C1652 1.415 . S
C1651 C1650 1.355 . S
C1651 C1653 1.430 . S
C1652 C1650 1.415 . S
C1652 C1657 1.425 . S
C1652 C1659 1.409 . S
C1653 H1645 0.918 1_556 S
C1653 C1651 1.430 . S
C1653 C1654 1.363 . S
C1654 H1646 0.930 1_556 S
C1654 C1653 1.363 . S
C1654 C1657 1.409 . S
C1655 H1647 0.930 . S
C1655 C1656 1.355 . S
C1655 C1657 1.415 . S
C1656 C1655 1.355 . S
C1656 C1658 1.419 . S
C1657 C1652 1.425 . S
C1657 C1654 1.409 . S
C1657 C1655 1.415 . S
C1658 H1648 0.930 . S
C1658 C1656 1.419 . S
C1658 C1659 1.362 . S
C1659 H1649 0.930 . S
C1659 C1652 1.409 . S
C1659 C1658 1.362 . S
H1660 C1666 0.930 . S
H1661 C1669 0.930 1_556 S
H1662 C1670 0.930 . S
H1663 C1671 0.930 1_556 S
H1664 C1674 0.930 . S
H1665 C1675 0.930 . S
C1666 H1660 0.930 . S
C1666 C1667 1.355 . S
C1666 C1668 1.415 . S
C1667 C1666 1.355 . S
C1667 C1669 1.419 . S
C1668 C1666 1.415 . S
C1668 C1673 1.425 . S
C1668 C1675 1.409 . S
C1669 H1661 0.930 1_554 S
C1669 C1667 1.419 . S
C1669 C1670 1.362 1_554 S
C1670 H1662 0.930 . S
C1670 C1669 1.362 1_556 S
C1670 C1673 1.409 1_556 S
C1671 H1663 0.930 1_554 S
C1671 C1672 1.355 . S
C1671 C1673 1.415 . S
C1672 C1671 1.355 . S
C1672 C1674 1.419 . S
C1673 C1668 1.425 . S
C1673 C1670 1.409 1_554 S
C1673 C1671 1.415 . S
C1674 H1664 0.930 . S
C1674 C1672 1.419 . S
C1674 C1675 1.362 . S
C1675 H1665 0.930 . S
C1675 C1668 1.409 . S
C1675 C1674 1.362 . S
C915 C22 1.746 . S
C920 C704 1.769 1_545 S
C936 C767 2.033 . S
C931 C38 2.036 . S
C952 C644 1.918 1_565 S
C947 C75 1.897 . S
C963 C91 1.813 1_655 S
C968 C678 1.814 . S
C979 C128 1.859 . S
C984 C882 1.858 1_554 S
C995 C197 1.222 . S
C1000 C853 1.217 . S
C1016 C776 2.019 . S
C1011 C144 2.057 . S
C1027 C181 1.503 . S
C1032 C810 1.492 . S
C1048 C699 2.040 . S
C1043 C234 2.055 . S
C1064 C742 1.454 . S
C1059 C303 1.478 . S
C1075 C356 2.029 . S
C1080 C721 2.011 1_655 S
C1091 C287 1.724 . S
C1096 C835 1.717 . S
C1112 C840 1.655 . S
C1107 C393 1.647 . S
C1128 C903 2.074 1_565 S
C1123 C409 2.110 . S
C1139 C462 2.074 . S
C1144 C814 2.092 . S
C1160 C780 1.668 . S
C1155 C446 1.656 . S
C1171 C499 1.842 . S
C1176 C746 1.839 . S
C1187 C552 1.087 . S
C1192 C717 1.096 . S
C1208 C674 2.011 . S
C1203 C515 2.079 . S
C1219 C568 1.640 . S
C1224 C640 1.636 . S
C1240 C801 2.062 . S
C1235 C340 2.092 . S
C1256 C878 1.449 . S
C1251 C621 1.444 . S
C1267 C250 1.955 . S
C1272 C857 1.888 . S
C1283 C605 1.617 . S
C1288 C665 1.601 . S
C1304 C649 1.128 . S
C1299 C39 1.075 . S
C1315 C29 0.914 . S
C1320 C683 0.911 . S
C1336 C708 1.139 . S
C1331 C92 1.108 . S
C1352 C755 1.831 . S
C1347 C82 1.819 . S
C1363 C145 1.567 . S
C1368 C636 1.601 . S
C1379 C188 1.325 . S
C1384 C670 1.295 . S
C1400 C712 1.414 . S
C1395 C135 1.380 . S
C1411 C198 1.050 . S
C1416 C751 0.973 . S
C1427 C251 1.753 . S
C1432 C653 1.713 . S
C1448 C733 1.490 . S
C1443 C294 1.505 . S
C1459 C347 1.444 . S
C1464 C738 1.505 . S
C1475 C304 1.718 . S
C1480 C789 1.740 . S
C1496 C819 1.163 . S
C1491 C410 1.223 . S
C1507 C400 0.886 . S
C1512 C785 0.925 . S
C1523 C453 0.807 . S
C1528 C844 0.875 . S
C1539 C463 2.129 . S
C1544 C891 2.127 . S
C1555 C516 1.607 . S
C1560 C806 1.648 . S
C1576 C772 1.593 . S
C1571 C569 1.630 . S
C1587 C506 1.304 . S
C1592 C848 1.331 . S
C1608 C887 0.755 . S
C1603 C559 0.704 . S
C1624 C823 1.716 . S
C1619 C357 1.686 . S
C1640 C869 1.428 . S
C1635 C612 1.445 . S
C1656 C874 1.453 . S
C1651 C241 1.415 . S
C1667 C622 1.606 . S
C1672 C687 1.579 . S
