# Generated by pormake.
# Topology gar, (4,6)-cn, num edge types: 1
# Building blocks:
#     Node 0, Type 0, BuildingBlock: CEKHIL_clean_sbu_0, # of connection points: 4
#     Node 1, Type 0, BuildingBlock: CEKHIL_clean_sbu_0, # of connection points: 4
#     Node 2, Type 0, BuildingBlock: CEKHIL_clean_sbu_0, # of connection points: 4
#     Node 3, Type 0, BuildingBlock: CEKHIL_clean_sbu_0, # of connection points: 4
#     Node 4, Type 0, BuildingBlock: CEKHIL_clean_sbu_0, # of connection points: 4
#     Node 5, Type 0, BuildingBlock: CEKHIL_clean_sbu_0, # of connection points: 4
#     Node 6, Type 0, BuildingBlock: CEKHIL_clean_sbu_0, # of connection points: 4
#     Node 7, Type 0, BuildingBlock: CEKHIL_clean_sbu_0, # of connection points: 4
#     Node 8, Type 0, BuildingBlock: CEKHIL_clean_sbu_0, # of connection points: 4
#     Node 9, Type 0, BuildingBlock: CEKHIL_clean_sbu_0, # of connection points: 4
#     Node 10, Type 0, BuildingBlock: CEKHIL_clean_sbu_0, # of connection points: 4
#     Node 11, Type 0, BuildingBlock: CEKHIL_clean_sbu_0, # of connection points: 4
#     Node 12, Type 0, BuildingBlock: CEKHIL_clean_sbu_0, # of connection points: 4
#     Node 13, Type 0, BuildingBlock: CEKHIL_clean_sbu_0, # of connection points: 4
#     Node 14, Type 0, BuildingBlock: CEKHIL_clean_sbu_0, # of connection points: 4
#     Node 15, Type 0, BuildingBlock: CEKHIL_clean_sbu_0, # of connection points: 4
#     Node 16, Type 0, BuildingBlock: CEKHIL_clean_sbu_0, # of connection points: 4
#     Node 17, Type 0, BuildingBlock: CEKHIL_clean_sbu_0, # of connection points: 4
#     Node 18, Type 0, BuildingBlock: CEKHIL_clean_sbu_0, # of connection points: 4
#     Node 19, Type 0, BuildingBlock: CEKHIL_clean_sbu_0, # of connection points: 4
#     Node 20, Type 0, BuildingBlock: CEKHIL_clean_sbu_0, # of connection points: 4
#     Node 21, Type 0, BuildingBlock: CEKHIL_clean_sbu_0, # of connection points: 4
#     Node 22, Type 0, BuildingBlock: CEKHIL_clean_sbu_0, # of connection points: 4
#     Node 23, Type 0, BuildingBlock: CEKHIL_clean_sbu_0, # of connection points: 4
#     Node 24, Type 1, BuildingBlock: KUMBUR_clean_sbu_1, # of connection points: 6
#     Node 25, Type 1, BuildingBlock: KUMBUR_clean_sbu_1, # of connection points: 6
#     Node 26, Type 1, BuildingBlock: KUMBUR_clean_sbu_1, # of connection points: 6
#     Node 27, Type 1, BuildingBlock: KUMBUR_clean_sbu_1, # of connection points: 6
#     Node 28, Type 1, BuildingBlock: KUMBUR_clean_sbu_1, # of connection points: 6
#     Node 29, Type 1, BuildingBlock: KUMBUR_clean_sbu_1, # of connection points: 6
#     Node 30, Type 1, BuildingBlock: KUMBUR_clean_sbu_1, # of connection points: 6
#     Node 31, Type 1, BuildingBlock: KUMBUR_clean_sbu_1, # of connection points: 6
#     Node 32, Type 1, BuildingBlock: KUMBUR_clean_sbu_1, # of connection points: 6
#     Node 33, Type 1, BuildingBlock: KUMBUR_clean_sbu_1, # of connection points: 6
#     Node 34, Type 1, BuildingBlock: KUMBUR_clean_sbu_1, # of connection points: 6
#     Node 35, Type 1, BuildingBlock: KUMBUR_clean_sbu_1, # of connection points: 6
#     Node 36, Type 1, BuildingBlock: KUMBUR_clean_sbu_1, # of connection points: 6
#     Node 37, Type 1, BuildingBlock: KUMBUR_clean_sbu_1, # of connection points: 6
#     Node 38, Type 1, BuildingBlock: KUMBUR_clean_sbu_1, # of connection points: 6
#     Node 39, Type 1, BuildingBlock: KUMBUR_clean_sbu_1, # of connection points: 6
#     Edge 40, Type (0, 1), BuildingBlock: ZUJKAS_clean_linker_0, # of connection points: 2
#     Edge 41, Type (0, 1), BuildingBlock: ZUJKAS_clean_linker_0, # of connection points: 2
#     Edge 42, Type (0, 1), BuildingBlock: ZUJKAS_clean_linker_0, # of connection points: 2
#     Edge 43, Type (0, 1), BuildingBlock: ZUJKAS_clean_linker_0, # of connection points: 2
#     Edge 44, Type (0, 1), BuildingBlock: ZUJKAS_clean_linker_0, # of connection points: 2
#     Edge 45, Type (0, 1), BuildingBlock: ZUJKAS_clean_linker_0, # of connection points: 2
#     Edge 46, Type (0, 1), BuildingBlock: ZUJKAS_clean_linker_0, # of connection points: 2
#     Edge 47, Type (0, 1), BuildingBlock: ZUJKAS_clean_linker_0, # of connection points: 2
#     Edge 48, Type (0, 1), BuildingBlock: ZUJKAS_clean_linker_0, # of connection points: 2
#     Edge 49, Type (0, 1), BuildingBlock: ZUJKAS_clean_linker_0, # of connection points: 2
#     Edge 50, Type (0, 1), BuildingBlock: ZUJKAS_clean_linker_0, # of connection points: 2
#     Edge 51, Type (0, 1), BuildingBlock: ZUJKAS_clean_linker_0, # of connection points: 2
#     Edge 52, Type (0, 1), BuildingBlock: ZUJKAS_clean_linker_0, # of connection points: 2
#     Edge 53, Type (0, 1), BuildingBlock: ZUJKAS_clean_linker_0, # of connection points: 2
#     Edge 54, Type (0, 1), BuildingBlock: ZUJKAS_clean_linker_0, # of connection points: 2
#     Edge 55, Type (0, 1), BuildingBlock: ZUJKAS_clean_linker_0, # of connection points: 2
#     Edge 56, Type (0, 1), BuildingBlock: ZUJKAS_clean_linker_0, # of connection points: 2
#     Edge 57, Type (0, 1), BuildingBlock: ZUJKAS_clean_linker_0, # of connection points: 2
#     Edge 58, Type (0, 1), BuildingBlock: ZUJKAS_clean_linker_0, # of connection points: 2
#     Edge 59, Type (0, 1), BuildingBlock: ZUJKAS_clean_linker_0, # of connection points: 2
#     Edge 60, Type (0, 1), BuildingBlock: ZUJKAS_clean_linker_0, # of connection points: 2
#     Edge 61, Type (0, 1), BuildingBlock: ZUJKAS_clean_linker_0, # of connection points: 2
#     Edge 62, Type (0, 1), BuildingBlock: ZUJKAS_clean_linker_0, # of connection points: 2
#     Edge 63, Type (0, 1), BuildingBlock: ZUJKAS_clean_linker_0, # of connection points: 2
#     Edge 64, Type (0, 1), BuildingBlock: ZUJKAS_clean_linker_0, # of connection points: 2
#     Edge 65, Type (0, 1), BuildingBlock: ZUJKAS_clean_linker_0, # of connection points: 2
#     Edge 66, Type (0, 1), BuildingBlock: ZUJKAS_clean_linker_0, # of connection points: 2
#     Edge 67, Type (0, 1), BuildingBlock: ZUJKAS_clean_linker_0, # of connection points: 2
#     Edge 68, Type (0, 1), BuildingBlock: ZUJKAS_clean_linker_0, # of connection points: 2
#     Edge 69, Type (0, 1), BuildingBlock: ZUJKAS_clean_linker_0, # of connection points: 2
#     Edge 70, Type (0, 1), BuildingBlock: ZUJKAS_clean_linker_0, # of connection points: 2
#     Edge 71, Type (0, 1), BuildingBlock: ZUJKAS_clean_linker_0, # of connection points: 2
#     Edge 72, Type (0, 1), BuildingBlock: ZUJKAS_clean_linker_0, # of connection points: 2
#     Edge 73, Type (0, 1), BuildingBlock: ZUJKAS_clean_linker_0, # of connection points: 2
#     Edge 74, Type (0, 1), BuildingBlock: ZUJKAS_clean_linker_0, # of connection points: 2
#     Edge 75, Type (0, 1), BuildingBlock: ZUJKAS_clean_linker_0, # of connection points: 2
#     Edge 76, Type (0, 1), BuildingBlock: ZUJKAS_clean_linker_0, # of connection points: 2
#     Edge 77, Type (0, 1), BuildingBlock: ZUJKAS_clean_linker_0, # of connection points: 2
#     Edge 78, Type (0, 1), BuildingBlock: ZUJKAS_clean_linker_0, # of connection points: 2
#     Edge 79, Type (0, 1), BuildingBlock: ZUJKAS_clean_linker_0, # of connection points: 2
#     Edge 80, Type (0, 1), BuildingBlock: ZUJKAS_clean_linker_0, # of connection points: 2
#     Edge 81, Type (0, 1), BuildingBlock: ZUJKAS_clean_linker_0, # of connection points: 2
#     Edge 82, Type (0, 1), BuildingBlock: ZUJKAS_clean_linker_0, # of connection points: 2
#     Edge 83, Type (0, 1), BuildingBlock: ZUJKAS_clean_linker_0, # of connection points: 2
#     Edge 84, Type (0, 1), BuildingBlock: ZUJKAS_clean_linker_0, # of connection points: 2
#     Edge 85, Type (0, 1), BuildingBlock: ZUJKAS_clean_linker_0, # of connection points: 2
#     Edge 86, Type (0, 1), BuildingBlock: ZUJKAS_clean_linker_0, # of connection points: 2
#     Edge 87, Type (0, 1), BuildingBlock: ZUJKAS_clean_linker_0, # of connection points: 2
#     Edge 88, Type (0, 1), BuildingBlock: ZUJKAS_clean_linker_0, # of connection points: 2
#     Edge 89, Type (0, 1), BuildingBlock: ZUJKAS_clean_linker_0, # of connection points: 2
#     Edge 90, Type (0, 1), BuildingBlock: ZUJKAS_clean_linker_0, # of connection points: 2
#     Edge 91, Type (0, 1), BuildingBlock: ZUJKAS_clean_linker_0, # of connection points: 2
#     Edge 92, Type (0, 1), BuildingBlock: ZUJKAS_clean_linker_0, # of connection points: 2
#     Edge 93, Type (0, 1), BuildingBlock: ZUJKAS_clean_linker_0, # of connection points: 2
#     Edge 94, Type (0, 1), BuildingBlock: ZUJKAS_clean_linker_0, # of connection points: 2
#     Edge 95, Type (0, 1), BuildingBlock: ZUJKAS_clean_linker_0, # of connection points: 2
#     Edge 96, Type (0, 1), BuildingBlock: ZUJKAS_clean_linker_0, # of connection points: 2
#     Edge 97, Type (0, 1), BuildingBlock: ZUJKAS_clean_linker_0, # of connection points: 2
#     Edge 98, Type (0, 1), BuildingBlock: ZUJKAS_clean_linker_0, # of connection points: 2
#     Edge 99, Type (0, 1), BuildingBlock: ZUJKAS_clean_linker_0, # of connection points: 2
#     Edge 100, Type (0, 1), BuildingBlock: ZUJKAS_clean_linker_0, # of connection points: 2
#     Edge 101, Type (0, 1), BuildingBlock: ZUJKAS_clean_linker_0, # of connection points: 2
#     Edge 102, Type (0, 1), BuildingBlock: ZUJKAS_clean_linker_0, # of connection points: 2
#     Edge 103, Type (0, 1), BuildingBlock: ZUJKAS_clean_linker_0, # of connection points: 2
#     Edge 104, Type (0, 1), BuildingBlock: ZUJKAS_clean_linker_0, # of connection points: 2
#     Edge 105, Type (0, 1), BuildingBlock: ZUJKAS_clean_linker_0, # of connection points: 2
#     Edge 106, Type (0, 1), BuildingBlock: ZUJKAS_clean_linker_0, # of connection points: 2
#     Edge 107, Type (0, 1), BuildingBlock: ZUJKAS_clean_linker_0, # of connection points: 2
#     Edge 108, Type (0, 1), BuildingBlock: ZUJKAS_clean_linker_0, # of connection points: 2
#     Edge 109, Type (0, 1), BuildingBlock: ZUJKAS_clean_linker_0, # of connection points: 2
#     Edge 110, Type (0, 1), BuildingBlock: ZUJKAS_clean_linker_0, # of connection points: 2
#     Edge 111, Type (0, 1), BuildingBlock: ZUJKAS_clean_linker_0, # of connection points: 2
#     Edge 112, Type (0, 1), BuildingBlock: ZUJKAS_clean_linker_0, # of connection points: 2
#     Edge 113, Type (0, 1), BuildingBlock: ZUJKAS_clean_linker_0, # of connection points: 2
#     Edge 114, Type (0, 1), BuildingBlock: ZUJKAS_clean_linker_0, # of connection points: 2
#     Edge 115, Type (0, 1), BuildingBlock: ZUJKAS_clean_linker_0, # of connection points: 2
#     Edge 116, Type (0, 1), BuildingBlock: ZUJKAS_clean_linker_0, # of connection points: 2
#     Edge 117, Type (0, 1), BuildingBlock: ZUJKAS_clean_linker_0, # of connection points: 2
#     Edge 118, Type (0, 1), BuildingBlock: ZUJKAS_clean_linker_0, # of connection points: 2
#     Edge 119, Type (0, 1), BuildingBlock: ZUJKAS_clean_linker_0, # of connection points: 2
#     Edge 120, Type (0, 1), BuildingBlock: ZUJKAS_clean_linker_0, # of connection points: 2
#     Edge 121, Type (0, 1), BuildingBlock: ZUJKAS_clean_linker_0, # of connection points: 2
#     Edge 122, Type (0, 1), BuildingBlock: ZUJKAS_clean_linker_0, # of connection points: 2
#     Edge 123, Type (0, 1), BuildingBlock: ZUJKAS_clean_linker_0, # of connection points: 2
#     Edge 124, Type (0, 1), BuildingBlock: ZUJKAS_clean_linker_0, # of connection points: 2
#     Edge 125, Type (0, 1), BuildingBlock: ZUJKAS_clean_linker_0, # of connection points: 2
#     Edge 126, Type (0, 1), BuildingBlock: ZUJKAS_clean_linker_0, # of connection points: 2
#     Edge 127, Type (0, 1), BuildingBlock: ZUJKAS_clean_linker_0, # of connection points: 2
#     Edge 128, Type (0, 1), BuildingBlock: ZUJKAS_clean_linker_0, # of connection points: 2
#     Edge 129, Type (0, 1), BuildingBlock: ZUJKAS_clean_linker_0, # of connection points: 2
#     Edge 130, Type (0, 1), BuildingBlock: ZUJKAS_clean_linker_0, # of connection points: 2
#     Edge 131, Type (0, 1), BuildingBlock: ZUJKAS_clean_linker_0, # of connection points: 2
#     Edge 132, Type (0, 1), BuildingBlock: ZUJKAS_clean_linker_0, # of connection points: 2
#     Edge 133, Type (0, 1), BuildingBlock: ZUJKAS_clean_linker_0, # of connection points: 2
#     Edge 134, Type (0, 1), BuildingBlock: ZUJKAS_clean_linker_0, # of connection points: 2
#     Edge 135, Type (0, 1), BuildingBlock: ZUJKAS_clean_linker_0, # of connection points: 2
# Relax obj value: 0.055
# Max RMSD: 0.172
# Mean RMSD: 0.105
data_MOF--net-gar--node1-CEKHIL_clean_sbu_0--node2-KUMBUR_clean_sbu_1--edge1-ZUJKAS_clean_linker_0
_symmetry_space_group_name_H-M    P1
_symmetry_Int_Tables_number       1
_symmetry_cell_setting            triclinic
loop_
_symmetry_equiv_pos_as_xyz
'x, y, z'
_cell_length_a     76.480331
_cell_length_b     75.754206
_cell_length_c     70.882755
_cell_angle_alpha  95.466668
_cell_angle_beta   95.598091
_cell_angle_gamma 100.21296
loop_
_atom_site_label
_atom_site_type_symbol
_atom_site_fract_x
_atom_site_fract_y
_atom_site_fract_z
_atom_type_partial_charge
Co0 Co 0.05048 0.30956 0.36493 0.0
O1 O 0.07678 0.31211 0.36906 0.0
O2 O 0.06105 0.30101 0.34188 0.0
C3 C 0.05014 0.33792 0.38024 0.0
O4 O 0.02286 0.30573 0.35462 0.0
Co5 Co 0.02777 0.31213 0.39901 0.0
O6 O 1.0076 0.31201 0.37931 0.0
C7 C 0.04107 0.27834 0.38915 0.0
C8 C 0.07688 0.30543 0.35158 0.0
C9 C 1.00797 0.30772 0.36155 0.0
O10 O 0.04729 0.2843 0.37408 0.0
O11 O 0.03409 0.28789 0.40112 0.0
O12 O 0.05315 0.33595 0.36246 0.0
O13 O 0.04843 0.32322 0.38808 0.0
Co14 Co 0.01708 0.75867 0.68437 0.0
O15 O 0.99095 0.75742 0.67863 0.0
O16 O 1.00293 0.75212 0.70598 0.0
C17 C 0.02378 0.78623 0.67279 0.0
O18 O 0.04416 0.75994 0.6961 0.0
Co19 Co 0.04274 0.76229 0.65281 0.0
O20 O 0.06216 0.76913 0.67413 0.0
C21 C 0.02037 0.72643 0.6557 0.0
C22 C 0.98841 0.75422 0.69585 0.0
C23 C 0.06011 0.7653 0.69097 0.0
O24 O 0.0153 0.73223 0.67188 0.0
O25 O 0.02975 0.73686 0.64575 0.0
O26 O 0.01977 0.78525 0.69008 0.0
O27 O 0.02308 0.77085 0.6631 0.0
Co28 Co 0.55064 0.81074 0.86514 0.0
O29 O 0.57691 0.81277 0.8694 0.0
O30 O 0.56136 0.80278 0.84191 0.0
C31 C 0.5499 0.83892 0.88093 0.0
O32 O 0.52295 0.80719 0.85499 0.0
Co33 Co 0.52843 0.81209 0.89984 0.0
O34 O 0.50812 0.81222 0.88036 0.0
C35 C 0.54486 0.78039 0.89056 0.0
C36 C 0.57712 0.80646 0.8518 0.0
C37 C 0.50817 0.80877 0.8624 0.0
O38 O 0.54757 0.78532 0.87388 0.0
O39 O 0.53928 0.79032 0.90341 0.0
O40 O 0.55344 0.83732 0.86332 0.0
O41 O 0.54838 0.82404 0.88843 0.0
Co42 Co 0.51795 0.26018 0.18563 0.0
O43 O 0.4919 0.25923 0.17981 0.0
O44 O 0.50374 0.254 0.20727 0.0
C45 C 0.52475 0.28752 0.17364 0.0
O46 O 0.54489 0.261 0.19752 0.0
Co47 Co 0.54409 0.26336 0.15474 0.0
O48 O 0.56368 0.26939 0.17596 0.0
C49 C 0.52073 0.22784 0.15718 0.0
C50 C 0.4893 0.25612 0.19703 0.0
C51 C 0.56107 0.26571 0.19272 0.0
O52 O 0.51571 0.23369 0.17335 0.0
O53 O 0.53047 0.23815 0.14742 0.0
O54 O 0.52109 0.28681 0.19109 0.0
O55 O 0.52405 0.27203 0.16417 0.0
Co56 Co 0.0555 0.79576 0.11772 0.0
O57 O 0.02948 0.79363 0.11415 0.0
O58 O 0.04475 0.78842 0.14027 0.0
C59 C 0.06031 0.82414 0.10574 0.0
O60 O 0.08186 0.79727 0.12949 0.0
Co61 Co 0.07958 0.79706 0.08844 0.0
O62 O 0.10084 0.80078 0.10774 0.0
C63 C 0.06101 0.76076 0.09387 0.0
C64 C 0.02935 0.78946 0.1315 0.0
C65 C 0.09798 0.79923 0.1249 0.0
O66 O 0.05348 0.7687 0.10706 0.0
O67 O 0.07175 0.76996 0.08414 0.0
O68 O 0.05798 0.82225 0.12336 0.0
O69 O 0.05977 0.80887 0.09531 0.0
Co70 Co 0.5144 0.77283 0.43059 0.0
O71 O 0.54052 0.77693 0.43444 0.0
O72 O 0.52408 0.76478 0.40761 0.0
C73 C 0.51236 0.80178 0.44362 0.0
O74 O 0.48772 0.7677 0.41885 0.0
Co75 Co 0.49049 0.7718 0.46049 0.0
O76 O 0.47185 0.77689 0.44126 0.0
C77 C 0.50624 0.73948 0.45367 0.0
C78 C 0.53995 0.77045 0.41669 0.0
C79 C 0.47321 0.77236 0.42383 0.0
O80 O 0.51335 0.74739 0.44002 0.0
O81 O 0.49648 0.74722 0.46419 0.0
O82 O 0.51543 0.7981 0.42616 0.0
O83 O 0.51142 0.78804 0.45355 0.0
Co84 Co 0.55523 0.29622 0.61763 0.0
O85 O 0.5292 0.29368 0.61346 0.0
O86 O 0.54431 0.28973 0.64024 0.0
C87 C 0.56021 0.32418 0.60505 0.0
O88 O 0.58145 0.29829 0.62999 0.0
Co89 Co 0.57954 0.29631 0.58883 0.0
O90 O 0.60052 0.2984 0.60821 0.0
C91 C 0.56066 0.26056 0.59492 0.0
C92 C 0.52893 0.29025 0.63106 0.0
C93 C 0.59745 0.29872 0.62547 0.0
O94 O 0.5533 0.269 0.60787 0.0
O95 O 0.57155 0.26926 0.58499 0.0
O96 O 0.5575 0.32258 0.62262 0.0
O97 O 0.55985 0.30878 0.59488 0.0
Co98 Co 0.01416 0.27408 0.93205 0.0
O99 O 0.04026 0.27853 0.93671 0.0
O100 O 0.02463 0.26609 0.90952 0.0
C101 C 0.01146 0.3029 0.94504 0.0
O102 O 0.98773 0.26908 0.91946 0.0
Co103 Co 0.9897 0.27261 0.96157 0.0
O104 O 0.96947 0.27256 0.94166 0.0
C105 C 1.00711 0.24126 0.95611 0.0
C106 C 0.04026 0.27197 0.9191 0.0
C107 C 0.97202 0.27015 0.92423 0.0
O108 O 0.01294 0.24844 0.94141 0.0
O109 O 0.99814 0.2496 0.96708 0.0
O110 O 0.01507 0.29944 0.92773 0.0
O111 O 1.01054 0.28909 0.95483 0.0
Co112 Co 0.39251 0.02424 0.3021 0.0
O113 O 0.39567 0.04988 0.30556 0.0
O114 O 0.37105 0.03097 0.29162 0.0
C115 C 0.40345 0.0212 0.33145 0.0
O116 O 0.38407 0.99738 0.2971 0.0
Co117 Co 0.42509 1.00462 0.30604 0.0
O118 O 0.40647 0.98265 0.30447 0.0
C119 C 0.41597 0.02013 0.27055 0.0
C120 C 0.37924 0.04737 0.29762 0.0
C121 C 0.39009 0.98291 0.29944 0.0
O122 O 0.4021 0.02484 0.2768 0.0
O123 O 0.42714 0.01283 0.28026 0.0
O124 O 0.38704 0.02346 0.3282 0.0
O125 O 0.41311 0.02266 0.31752 0.0
Co126 Co 0.27416 0.1696 0.50912 0.0
O127 O 0.30007 0.17391 0.51139 0.0
O128 O 0.28288 0.14874 0.51707 0.0
C129 C 0.27108 0.18052 0.48016 0.0
O130 O 0.24754 0.15876 0.50759 0.0
Co131 Co 0.25141 0.19879 0.50684 0.0
O132 O 0.2302 0.17889 0.50151 0.0
C133 C 0.27094 0.19519 0.54392 0.0
C134 C 0.29885 0.15753 0.51589 0.0
C135 C 0.23203 0.16288 0.50408 0.0
O136 O 0.2746 0.18012 0.53679 0.0
O137 O 0.26335 0.20546 0.53383 0.0
O138 O 0.27345 0.16409 0.48141 0.0
O139 O 0.27129 0.19009 0.49635 0.0
Co140 Co 0.14312 0.03944 0.79141 0.0
O141 O 0.13822 0.0133 0.78944 0.0
O142 O 0.16312 0.02997 0.78256 0.0
C143 C 0.13347 0.04299 0.8208 0.0
O144 O 0.15441 0.0662 0.79264 0.0
Co145 Co 0.11505 0.06327 0.7948 0.0
O146 O 0.13522 0.08418 0.80001 0.0
C147 C 0.11732 0.04372 0.75719 0.0
C148 C 0.15414 0.01409 0.78425 0.0
C149 C 0.1508 0.082 0.7967 0.0
O150 O 0.13192 0.03911 0.76402 0.0
O151 O 0.10788 0.05204 0.76762 0.0
O152 O 0.14946 0.04004 0.81895 0.0
O153 O 0.12347 0.04297 0.80498 0.0
Co154 Co 0.29189 0.9282 0.99725 0.0
O155 O 0.26646 0.9232 0.99554 0.0
O156 O 0.28421 0.94921 0.00783 0.0
C157 C 0.29365 0.91696 0.96774 0.0
O158 O 0.31824 0.93837 1.00071 0.0
Co159 Co 0.31377 0.89737 0.99236 0.0
O160 O 0.33324 0.91751 0.98932 0.0
C161 C 0.29908 0.90524 0.02863 0.0
C162 C 0.26816 0.93979 0.00317 0.0
C163 C 0.3325 0.93364 0.99558 0.0
O164 O 0.29352 0.91895 0.02269 0.0
O165 O 0.30659 0.89453 0.01848 0.0
O166 O 0.29053 0.93321 0.97089 0.0
O167 O 0.29397 0.9076 0.98202 0.0
Co168 Co 0.2936 0.39071 0.03255 0.0
O169 O 0.26772 0.38551 0.03042 0.0
O170 O 0.28469 0.41173 0.04224 0.0
C171 C 0.2956 0.37821 0.00251 0.0
O172 O 0.32023 0.40235 0.03582 0.0
Co173 Co 0.31671 0.36144 0.02995 0.0
O174 O 0.33738 0.38153 0.03086 0.0
C175 C 0.29838 0.3668 0.06421 0.0
C176 C 0.26872 0.40219 0.03747 0.0
C177 C 0.33554 0.39786 0.03418 0.0
O178 O 0.29502 0.38184 0.05893 0.0
O179 O 0.30541 0.35598 0.05365 0.0
O180 O 0.29233 0.39443 0.00551 0.0
O181 O 0.29636 0.36963 0.0174 0.0
Co182 Co 0.77921 0.12935 0.04267 0.0
O183 O 0.80443 0.1311 0.04661 0.0
O184 O 0.78415 0.1067 0.04959 0.0
C185 C 0.77843 0.14182 0.0154 0.0
O186 O 0.75238 0.12282 0.03946 0.0
Co187 Co 0.76336 0.16464 0.04233 0.0
O188 O 0.74007 0.14767 0.03809 0.0
C189 C 0.78156 0.15515 0.07723 0.0
C190 C 0.80082 0.11454 0.05049 0.0
C191 C 0.73885 0.13065 0.03788 0.0
O192 O 0.77948 0.13866 0.07003 0.0
O193 O 0.77823 0.16793 0.06771 0.0
O194 O 0.77916 0.12478 0.01511 0.0
O195 O 0.77986 0.1508 0.03201 0.0
Co196 Co 0.18272 0.53421 0.2594 0.0
O197 O 0.17937 0.50873 0.25777 0.0
O198 O 0.20405 0.52668 0.25166 0.0
C199 C 0.17202 0.53729 0.2874 0.0
O200 O 0.19055 0.56122 0.26061 0.0
Co201 Co 0.14888 0.55178 0.26003 0.0
O202 O 0.16664 0.57461 0.26317 0.0
C203 C 0.15624 0.53198 0.22504 0.0
C204 C 0.19548 0.51049 0.25314 0.0
C205 C 0.18331 0.57523 0.26236 0.0
O206 O 0.17242 0.53263 0.23213 0.0
O207 O 0.14418 0.53677 0.23461 0.0
O208 O 0.18869 0.53604 0.28698 0.0
O209 O 0.16227 0.53527 0.27121 0.0
Co210 Co 0.79465 0.89129 0.53293 0.0
O211 O 0.76879 0.88694 0.53146 0.0
O212 O 0.78676 0.91285 0.54269 0.0
C213 C 0.79558 0.8787 0.50263 0.0
O214 O 0.82143 0.9021 0.53578 0.0
Co215 Co 0.81694 0.8615 0.52879 0.0
O216 O 0.83651 0.88128 0.52479 0.0
C217 C 0.80083 0.86772 0.56471 0.0
C218 C 0.77059 0.90377 0.5383 0.0
C219 C 0.83578 0.89758 0.53039 0.0
O220 O 0.79623 0.88221 0.55919 0.0
O221 O 0.80812 0.85721 0.55404 0.0
O222 O 0.79314 0.89519 0.50593 0.0
O223 O 0.79634 0.87001 0.51745 0.0
Co224 Co 0.92537 0.02141 0.26677 0.0
O225 O 0.93021 0.04753 0.26958 0.0
O226 O 0.9044 0.03037 0.25721 0.0
C227 C 0.93782 0.01927 0.29684 0.0
O228 O 0.91415 0.99437 0.26288 0.0
Co229 Co 0.95449 0.99848 0.26934 0.0
O230 O 0.93485 0.97786 0.27049 0.0
C231 C 0.94783 0.01521 0.23398 0.0
C232 C 0.91371 0.04647 0.26246 0.0
C233 C 0.91865 0.97918 0.26598 0.0
O234 O 0.93424 0.02071 0.24043 0.0
O235 O 0.95809 1.00701 0.24383 0.0
O236 O 0.9215 0.02187 0.29372 0.0
O237 O 0.94642 0.01895 0.28201 0.0
Co238 Co 0.27985 0.63133 0.54176 0.0
O239 O 0.30518 0.63682 0.54585 0.0
O240 O 0.28847 0.61029 0.54919 0.0
C241 C 0.27838 0.64361 0.51441 0.0
O242 O 0.25334 0.62104 0.53808 0.0
Co243 Co 0.25767 0.66193 0.53883 0.0
O244 O 0.23912 0.64172 0.52594 0.0
C245 C 0.27113 0.65234 0.57652 0.0
C246 C 0.30424 0.62025 0.54945 0.0
C247 C 0.23944 0.62576 0.52995 0.0
O248 O 0.27843 0.63992 0.56888 0.0
O249 O 0.2629 0.66268 0.56717 0.0
O250 O 0.28081 0.62706 0.51439 0.0
O251 O 0.2778 0.65229 0.53082 0.0
Co252 Co 0.42516 0.5211 0.76668 0.0
O253 O 0.42933 0.54727 0.76903 0.0
O254 O 0.40384 0.52937 0.75709 0.0
C255 C 0.43786 0.51936 0.79679 0.0
O256 O 0.41462 0.494 0.76286 0.0
Co257 Co 0.45496 0.49874 0.76979 0.0
O258 O 0.43539 0.47878 0.77372 0.0
C259 C 0.44912 0.51715 0.73532 0.0
C260 C 0.41272 0.5457 0.76197 0.0
C261 C 0.41924 0.47948 0.76803 0.0
O262 O 0.43411 0.52032 0.74046 0.0
O263 O 0.45999 0.51014 0.74586 0.0
O264 O 0.42146 0.52179 0.79376 0.0
O265 O 0.4463 0.51905 0.78187 0.0
Co266 Co 0.6789 0.03438 0.75883 0.0
O267 O 0.67275 0.00876 0.755 0.0
O268 O 0.69775 0.02501 0.74742 0.0
C269 C 0.67176 0.03707 0.78849 0.0
O270 O 0.68957 0.06098 0.76152 0.0
Co271 Co 0.64873 0.05649 0.76699 0.0
O272 O 0.66889 0.07718 0.76998 0.0
C273 C 0.65205 0.04161 0.72773 0.0
C274 C 0.68811 0.00925 0.74861 0.0
C275 C 0.68458 0.07599 0.76605 0.0
O276 O 0.66647 0.03613 0.73313 0.0
O277 O 0.64247 0.04854 0.73914 0.0
O278 O 0.68726 0.03331 0.78558 0.0
O279 O 0.66078 0.03731 0.77362 0.0
Co280 Co 0.77455 0.66927 0.00744 0.0
O281 O 0.80045 0.67377 0.00923 0.0
O282 O 0.78357 0.6485 0.01509 0.0
C283 C 0.77107 0.68014 0.97854 0.0
O284 O 0.74802 0.65816 0.0066 0.0
Co285 Co 0.75086 0.69743 0.00506 0.0
O286 O 0.73016 0.67725 0.99834 0.0
C287 C 0.76856 0.69261 0.0429 0.0
C288 C 0.79945 0.65739 0.01368 0.0
C289 C 0.73244 0.66166 0.00195 0.0
O290 O 0.77547 0.67977 0.03513 0.0
O291 O 0.75885 0.70154 0.03331 0.0
O292 O 0.77327 0.66366 0.97974 0.0
O293 O 0.77133 0.68978 0.99472 0.0
Co294 Co 0.89354 0.52511 0.8023 0.0
O295 O 0.8965 0.55067 0.80495 0.0
O296 O 0.87193 0.53147 0.79152 0.0
C297 C 0.90458 0.52297 0.83189 0.0
O298 O 0.88568 0.4982 0.79787 0.0
Co299 Co 0.92691 0.5067 0.80709 0.0
O300 O 0.90875 0.48429 0.80509 0.0
C301 C 0.91835 0.52283 0.77191 0.0
C302 C 0.88012 0.54802 0.7969 0.0
C303 C 0.89224 0.48401 0.80004 0.0
O304 O 0.90327 0.52526 0.77713 0.0
O305 O 0.93021 0.51721 0.78257 0.0
O306 O 0.88804 0.52478 0.82843 0.0
O307 O 0.91417 0.52432 0.81791 0.0
Co308 Co 0.78858 0.42695 0.4973 0.0
O309 O 0.76331 0.4243 0.49211 0.0
O310 O 0.78197 0.44907 0.50641 0.0
C311 C 0.79313 0.41494 0.4689 0.0
O312 O 0.81512 0.43464 0.50386 0.0
Co313 Co 0.80619 0.39277 0.49667 0.0
O314 O 0.82873 0.41081 0.49912 0.0
C315 C 0.78713 0.40279 0.52882 0.0
C316 C 0.7658 0.44094 0.49979 0.0
C317 C 0.82914 0.42766 0.50306 0.0
O318 O 0.78621 0.41808 0.52286 0.0
O319 O 0.79301 0.39017 0.51958 0.0
O320 O 0.79118 0.43166 0.47116 0.0
O321 O 0.79028 0.40568 0.48303 0.0
Co322 Co 0.64393 0.5405 0.29191 0.0
O323 O 0.63975 0.51433 0.29031 0.0
O324 O 0.66434 0.53154 0.28357 0.0
C325 C 0.63345 0.54387 0.32109 0.0
O326 O 0.65479 0.56727 0.29249 0.0
Co327 Co 0.61593 0.56428 0.2949 0.0
O328 O 0.63602 0.58534 0.30087 0.0
C329 C 0.61824 0.54411 0.25748 0.0
C330 C 0.65576 0.51549 0.28524 0.0
C331 C 0.6514 0.58306 0.29696 0.0
O332 O 0.63288 0.53959 0.26435 0.0
O333 O 0.60883 0.55258 0.26781 0.0
O334 O 0.64981 0.54177 0.31973 0.0
O335 O 0.62387 0.54367 0.30496 0.0
Tb336 Tb 0.05885 0.04359 0.04003 0.0
C337 C 1.00317 0.98068 0.99213 0.0
N338 N 1.01079 0.99728 0.98793 0.0
C339 C 0.01241 0.98485 0.95584 0.0
C340 C 1.00002 0.96546 0.97831 0.0
C341 C 0.01515 0.99959 0.96994 0.0
C342 C 1.00487 0.96771 0.96004 0.0
C343 C 0.99028 0.96205 0.01522 0.0
C344 C 0.99833 0.97898 0.01036 0.0
C345 C 0.98717 0.94686 1.0015 0.0
C346 C 0.99202 0.94856 0.9831 0.0
Tb347 Tb 0.01303 0.02023 0.01198 0.0
N348 N 1.00188 0.9939 0.02344 0.0
C349 C 0.98558 0.96091 0.03371 0.0
C350 C 0.99644 0.99301 0.04114 0.0
C351 C 0.98854 0.9765 0.04667 0.0
H352 H 0.0201 0.01284 0.96609 0.0
H353 H 0.98445 0.97587 0.06083 0.0
H354 H 0.04966 0.05451 0.08452 0.0
H355 H 0.09099 0.08359 0.98952 0.0
H356 H 0.99763 1.00496 0.05088 0.0
H357 H 0.97938 0.94815 0.03801 0.0
H358 H 0.07817 0.05555 0.00183 0.0
H359 H 0.01585 0.98677 0.94162 0.0
H360 H 0.98098 0.93374 0.00496 0.0
H361 H 0.98946 0.93673 0.97265 0.0
H362 H 0.05235 0.08211 0.10653 0.0
H363 H 1.00262 0.95635 0.949 0.0
H364 H 0.09362 0.11288 0.00927 0.0
N365 N 0.05963 0.06816 0.06174 0.0
C366 C 0.06749 0.08423 0.05646 0.0
C367 C 0.05642 0.08293 0.09238 0.0
C368 C 0.06977 0.10036 0.06888 0.0
C369 C 0.05447 0.06728 0.07962 0.0
C370 C 0.06401 0.09956 0.08697 0.0
N371 N 0.07068 0.06867 0.02675 0.0
C372 C 0.07774 0.06817 0.00981 0.0
C373 C 0.08139 0.10088 0.03247 0.0
C374 C 0.07324 0.08448 0.03844 0.0
C375 C 0.0873 0.10057 0.0144 0.0
C376 C 0.08568 0.0841 0.00313 0.0
H377 H 0.06561 0.11164 0.09695 0.0
H378 H 0.07967 0.12924 0.07227 0.0
H379 H 0.08979 0.12971 0.0404 0.0
O380 O 0.08448 0.03895 0.0356 0.0
O381 O 0.04028 0.06209 0.03126 0.0
O382 O 0.02249 0.04776 0.00411 0.0
O383 O 0.07866 0.04837 0.06345 0.0
O384 O 0.05882 0.02833 0.01164 0.0
O385 O 0.03293 0.03208 0.99467 0.0
O386 O 0.98864 0.02638 0.01921 0.0
O387 O 0.03066 1.0011 0.02127 0.0
O388 O 0.05036 0.01557 0.04724 0.0
O389 O 0.99159 0.01666 0.99033 0.0
O390 O 0.01348 0.03522 0.04037 0.0
O391 O 0.03922 0.03171 0.05771 0.0
C392 C 0.0302 0.06278 0.01513 0.0
C393 C 0.10007 0.02966 0.06219 0.0
C394 C 0.12142 0.00968 0.05917 0.0
C395 C 0.1207 1.00664 0.07835 0.0
C396 C 0.09949 0.02661 0.08142 0.0
C397 C 0.10972 0.01506 0.08938 0.0
C398 C 0.11098 0.02108 0.05119 0.0
C399 C 0.04944 0.02954 0.99536 0.0
C400 C 0.09037 0.04258 0.05369 0.0
C401 C 0.0778 0.11672 0.06291 0.0
C402 C 0.08356 0.11699 0.04476 0.0
C403 C 0.0418 1.00056 0.03669 0.0
C404 C 0.97283 0.03783 0.99459 0.0
C405 C 0.95064 0.05667 0.99836 0.0
C406 C 0.95506 0.06458 0.98192 0.0
C407 C 0.97742 0.04595 0.97826 0.0
C408 C 0.95954 0.04334 0.00461 0.0
C409 C 0.96853 0.0593 0.972 0.0
C410 C 0.02248 0.03365 0.0567 0.0
C411 C 0.98144 0.02349 1.00149 0.0
H412 H 0.12895 0.99816 0.08494 0.0
H413 H 0.09134 0.03328 0.09036 0.0
H414 H 0.10938 0.01287 0.10422 0.0
H415 H 0.11152 0.02347 0.03639 0.0
H416 H 0.9482 0.07489 0.97689 0.0
H417 H 0.98778 0.042 0.97033 0.0
H418 H 0.9559 0.03702 0.01714 0.0
H419 H 0.97205 0.06551 0.95941 0.0
Tb420 Tb 0.26993 0.78021 0.29935 0.0
C421 C 0.31363 0.74561 0.23108 0.0
N422 N 0.31826 0.75891 0.246 0.0
C423 C 0.34633 0.74937 0.25291 0.0
C424 C 0.32502 0.7334 0.22683 0.0
C425 C 0.33463 0.7612 0.25658 0.0
C426 C 0.34147 0.73535 0.23806 0.0
C427 C 0.29187 0.7304 0.20468 0.0
C428 C 0.29735 0.74421 0.22 0.0
C429 C 0.30316 0.7182 0.20045 0.0
C430 C 0.3197 0.71971 0.21147 0.0
Tb431 Tb 0.29828 0.77793 0.24956 0.0
N432 N 0.28654 0.75597 0.22484 0.0
C433 C 0.27517 0.7292 0.19416 0.0
C434 C 0.27044 0.75514 0.21423 0.0
C435 C 0.26444 0.74167 0.19893 0.0
H436 H 0.33919 0.77247 0.26744 0.0
H437 H 0.25158 0.74098 0.19074 0.0
H438 H 0.23103 0.79113 0.28747 0.0
H439 H 0.31992 0.80611 0.3603 0.0
H440 H 0.2621 0.76478 0.2173 0.0
H441 H 0.27046 0.71877 0.18231 0.0
H442 H 0.30398 0.78331 0.33482 0.0
H443 H 0.35922 0.75126 0.26139 0.0
H444 H 0.2992 0.70751 0.18872 0.0
H445 H 0.32828 0.71021 0.20801 0.0
H446 H 0.21506 0.81585 0.29567 0.0
H447 H 0.35062 0.72627 0.23522 0.0
H448 H 0.30859 0.83424 0.36794 0.0
N449 N 0.25393 0.802 0.30722 0.0
C450 C 0.26155 0.81522 0.32132 0.0
C451 C 0.22821 0.81594 0.30291 0.0
C452 C 0.25303 0.82969 0.32651 0.0
C453 C 0.23733 0.80197 0.2982 0.0
C454 C 0.23617 0.82998 0.31702 0.0
N455 N 0.28489 0.79917 0.32566 0.0
C456 C 0.29933 0.79588 0.33686 0.0
C457 C 0.28604 0.82701 0.34594 0.0
C458 C 0.27777 0.81389 0.33073 0.0
C459 C 0.30178 0.82447 0.35618 0.0
C460 C 0.30824 0.80865 0.35186 0.0
H461 H 0.22911 0.8408 0.32064 0.0
H462 H 0.25525 0.85451 0.34527 0.0
H463 H 0.28424 0.85217 0.36235 0.0
O464 O 0.26872 0.76073 0.31836 0.0
O465 O 0.27535 0.80563 0.28743 0.0
O466 O 0.29882 0.7978 0.27428 0.0
O467 O 0.24486 0.76416 0.30158 0.0
O468 O 0.29715 0.77276 0.30289 0.0
O469 O 0.31441 0.78258 0.27851 0.0
O470 O 0.29576 0.79586 0.22878 0.0
O471 O 0.28475 0.75082 0.25315 0.0
O472 O 0.28008 0.76806 0.27654 0.0
O473 O 0.32165 0.78965 0.23884 0.0
O474 O 0.27057 0.78428 0.24608 0.0
O475 O 0.25309 0.77603 0.27107 0.0
C476 C 0.28774 0.80903 0.2761 0.0
C477 C 0.24274 0.75664 0.33311 0.0
C478 C 0.24135 0.74631 0.36443 0.0
C479 C 0.2295 0.75798 0.36857 0.0
C480 C 0.2309 0.76827 0.33731 0.0
C481 C 0.22426 0.76884 0.355 0.0
C482 C 0.2478 0.7457 0.34663 0.0
C483 C 0.31265 0.77643 0.29547 0.0
C484 C 0.2514 0.75652 0.31559 0.0
C485 C 0.26149 0.84319 0.34114 0.0
C486 C 0.27801 0.84188 0.35082 0.0
C487 C 0.27745 0.75174 0.26851 0.0
C488 C 0.32179 0.81001 0.21469 0.0
C489 C 0.31995 0.82676 0.18735 0.0
C490 C 0.33872 0.83067 0.18866 0.0
C491 C 0.34056 0.8141 0.21605 0.0
C492 C 0.31156 0.81655 0.20047 0.0
C493 C 0.34896 0.82444 0.20307 0.0
C494 C 0.25502 0.78099 0.2536 0.0
C495 C 0.31286 0.79821 0.22742 0.0
H496 H 0.22418 0.75858 0.38219 0.0
H497 H 0.22699 0.77705 0.32714 0.0
H498 H 0.21515 0.77782 0.35827 0.0
H499 H 0.25734 0.73711 0.34346 0.0
H500 H 0.34542 0.83868 0.17869 0.0
H501 H 0.34872 0.80918 0.22699 0.0
H502 H 0.29707 0.81328 0.19923 0.0
H503 H 0.36341 0.82755 0.20412 0.0
Tb504 Tb 0.50801 0.02566 0.5354 0.0
C505 C 0.57533 0.06823 0.49983 0.0
N506 N 0.56533 0.05153 0.49378 0.0
C507 C 0.56467 0.05832 0.46129 0.0
C508 C 0.5797 0.08086 0.48683 0.0
C509 C 0.56106 0.04609 0.47462 0.0
C510 C 0.57372 0.07589 0.46745 0.0
C511 C 0.59444 0.08859 0.52526 0.0
C512 C 0.58255 0.07219 0.5189 0.0
C513 C 0.59801 0.10153 0.51254 0.0
C514 C 0.59059 0.09772 0.4934 0.0
Tb515 Tb 0.56021 0.03357 0.51772 0.0
N516 N 0.57855 0.05957 0.53103 0.0
C517 C 0.60292 0.09118 0.54401 0.0
C518 C 0.58766 0.06147 0.54888 0.0
C519 C 0.59982 0.07738 0.55573 0.0
H520 H 0.55504 0.03227 0.46937 0.0
H521 H 0.60674 0.07904 0.57002 0.0
H522 H 0.51358 0.02424 0.58354 0.0
H523 H 0.46672 0.9798 0.47893 0.0
H524 H 0.58564 0.05067 0.55774 0.0
H525 H 0.61226 0.10353 0.54939 0.0
H526 H 0.48545 0.00874 0.49336 0.0
H527 H 0.5608 0.05405 0.44622 0.0
H528 H 0.60693 0.11432 0.51723 0.0
H529 H 0.59392 0.10763 0.48364 0.0
H530 H 0.5072 1.00123 0.60516 0.0
H531 H 0.57677 0.08522 0.45703 0.0
H532 H 0.4601 0.95475 0.4987 0.0
N533 N 0.50304 1.00631 0.55814 0.0
C534 C 0.4929 0.98986 0.55116 0.0
C535 C 0.50341 0.99776 0.58997 0.0
C536 C 0.48836 0.97648 0.56334 0.0
C537 C 0.5074 0.01069 0.57745 0.0
C538 C 0.49411 0.9805 0.58286 0.0
N539 N 0.49078 0.99967 0.52032 0.0
C540 C 0.48324 0.99772 0.50181 0.0
C541 C 0.4753 0.96993 0.52435 0.0
C542 C 0.48626 0.98658 0.53184 0.0
C543 C 0.46856 0.96737 0.50499 0.0
C544 C 0.47235 0.98142 0.49374 0.0
H545 H 0.49088 0.97059 0.59266 0.0
H546 H 0.47433 0.94927 0.56494 0.0
H547 H 0.463 0.94352 0.53084 0.0
O548 O 0.48666 0.03606 0.52208 0.0
O549 O 0.51749 1.0014 0.52147 0.0
O550 O 0.54418 1.00629 0.50676 0.0
O551 O 0.48754 0.03099 0.5514 0.0
O552 O 0.51973 0.03925 0.5127 0.0
O553 O 0.53842 0.02713 0.49498 0.0
O554 O 0.57896 0.02072 0.53226 0.0
O555 O 0.55217 0.05812 0.53285 0.0
O556 O 0.52284 0.05399 0.54194 0.0
O557 O 0.58204 0.02794 0.5041 0.0
O558 O 0.54646 0.02109 0.53954 0.0
O559 O 0.52946 0.03312 0.55873 0.0
C560 C 0.52965 0.99561 0.51127 0.0
C561 C 0.47469 0.05556 0.54337 0.0
C562 C 0.45383 0.07643 0.54165 0.0
C563 C 0.46578 0.08903 0.5548 0.0
C564 C 0.48629 0.06824 0.55682 0.0
C565 C 0.48188 0.0849 0.56238 0.0
C566 C 0.4583 0.05964 0.53593 0.0
C567 C 0.52272 0.03113 0.49666 0.0
C568 C 0.47932 0.03786 0.53781 0.0
C569 C 0.47781 0.95971 0.55579 0.0
C570 C 0.47131 0.95645 0.53637 0.0
C571 C 0.53858 0.06424 0.54019 0.0
C572 C 0.59274 1.00212 0.51189 0.0
C573 C 0.61434 0.98201 0.5116 0.0
C574 C 0.60259 0.96985 0.49787 0.0
C575 C 0.58124 0.98981 0.49807 0.0
C576 C 0.60932 0.99811 0.51878 0.0
C577 C 0.58607 0.9737 0.49124 0.0
C578 C 0.54502 0.02937 0.55597 0.0
C579 C 0.5882 0.01975 0.51786 0.0
H580 H 0.46251 0.10198 0.55939 0.0
H581 H 0.49879 0.06528 0.56305 0.0
H582 H 0.49095 0.09461 0.57266 0.0
H583 H 0.4491 0.04985 0.5258 0.0
H584 H 0.60631 0.95743 0.49215 0.0
H585 H 0.56875 0.99292 0.49214 0.0
H586 H 0.61847 1.00768 0.52916 0.0
H587 H 0.57713 0.96434 0.48052 0.0
Tb588 Tb 0.31002 0.27081 0.7781 0.0
C589 C 0.24307 0.3003 0.74004 0.0
N590 N 0.25462 0.30763 0.75574 0.0
C591 C 0.25552 0.33716 0.74585 0.0
C592 C 0.23734 0.31113 0.72649 0.0
C593 C 0.26077 0.32585 0.75894 0.0
C594 C 0.24379 0.32977 0.72952 0.0
C595 C 0.22481 0.27359 0.72166 0.0
C596 C 0.23691 0.28181 0.73764 0.0
C597 C 0.2191 0.28429 0.70803 0.0
C598 C 0.22536 0.30301 0.71043 0.0
Tb599 Tb 0.26246 0.2878 0.7758 0.0
N600 N 0.24309 0.27188 0.7509 0.0
C601 C 0.21881 0.25488 0.71994 0.0
C602 C 0.23666 0.25379 0.74975 0.0
C603 C 0.22463 0.24497 0.73415 0.0
H604 H 0.26951 0.33175 0.77173 0.0
H605 H 0.21977 0.23056 0.73317 0.0
H606 H 0.30184 0.2284 0.78889 0.0
H607 H 0.3527 0.33155 0.81438 0.0
H608 H 0.24057 0.24613 0.76085 0.0
H609 H 0.2095 0.24802 0.70787 0.0
H610 H 0.33214 0.31331 0.78808 0.0
H611 H 0.26044 0.35158 0.74842 0.0
H612 H 0.20983 0.27822 0.69562 0.0
H613 H 0.22081 0.31111 0.69983 0.0
H614 H 0.31091 0.21178 0.8152 0.0
H615 H 0.23973 0.33858 0.71944 0.0
H616 H 0.36298 0.31722 0.84231 0.0
N617 N 0.31711 0.25376 0.80158 0.0
C618 C 0.32917 0.26262 0.8163 0.0
C619 C 0.31603 0.22611 0.81577 0.0
C620 C 0.33492 0.25358 0.83154 0.0
C621 C 0.31067 0.23567 0.80099 0.0
C622 C 0.32816 0.23511 0.83114 0.0
N623 N 0.32896 0.28937 0.80164 0.0
C624 C 0.33558 0.30712 0.80052 0.0
C625 C 0.3476 0.29075 0.83147 0.0
C626 C 0.33537 0.281 0.81629 0.0
C627 C 0.35358 0.30923 0.83092 0.0
C628 C 0.34768 0.3174 0.81527 0.0
H629 H 0.33227 0.22766 0.84257 0.0
H630 H 0.35168 0.25653 0.85855 0.0
H631 H 0.36281 0.28906 0.85848 0.0
O632 O 0.33265 0.27887 0.76278 0.0
O633 O 0.29952 0.27777 0.8056 0.0
O634 O 0.28405 0.2997 0.79802 0.0
O635 O 0.32507 0.2516 0.77009 0.0
O636 O 0.3074 0.29506 0.76361 0.0
O637 O 0.28698 0.30836 0.77914 0.0
O638 O 0.24249 0.27746 0.7927 0.0
O639 O 0.27151 0.27945 0.74799 0.0
O640 O 0.29042 0.25913 0.75351 0.0
O641 O 0.24734 0.30541 0.78829 0.0
O642 O 0.2655 0.26296 0.78853 0.0
O643 O 0.28603 0.24938 0.77348 0.0
C644 C 0.2911 0.29087 0.81081 0.0
C645 C 0.35178 0.25646 0.75421 0.0
C646 C 0.37685 0.25927 0.73472 0.0
C647 C 0.3803 0.24267 0.73983 0.0
C648 C 0.35583 0.23991 0.75902 0.0
C649 C 0.36993 0.23314 0.75191 0.0
C650 C 0.36256 0.26634 0.74207 0.0
C651 C 0.30024 0.30922 0.76846 0.0
C652 C 0.33636 0.26271 0.76233 0.0
C653 C 0.34711 0.26325 0.8467 0.0
C654 C 0.35343 0.28178 0.84667 0.0
C655 C 0.28043 0.26697 0.74203 0.0
C656 C 0.21789 0.29288 0.79404 0.0
C657 C 0.1894 0.29018 0.80788 0.0
C658 C 0.18143 0.29521 0.79104 0.0
C659 C 0.20945 0.29777 0.77736 0.0
C660 C 0.20775 0.28905 0.80938 0.0
C661 C 0.19139 0.29896 0.77593 0.0
C662 C 0.27139 0.24849 0.78208 0.0
C663 C 0.23741 0.29289 0.79592 0.0
H664 H 0.39119 0.23706 0.73446 0.0
H665 H 0.34807 0.23209 0.76842 0.0
H666 H 0.37282 0.22039 0.75578 0.0
H667 H 0.35974 0.27913 0.7382 0.0
H668 H 0.16743 0.29628 0.78961 0.0
H669 H 0.21687 0.30096 0.76552 0.0
H670 H 0.21409 0.28536 0.8224 0.0
H671 H 0.18508 0.30291 0.76306 0.0
Tb672 Tb 0.04024 1.00501 0.52189 0.0
C673 C 0.02143 0.06941 0.56874 0.0
N674 N 0.01216 0.05971 0.55257 0.0
C675 C 0.98484 0.05792 0.56694 0.0
C676 C 0.01281 0.07303 0.58498 0.0
C677 C 0.99399 0.05445 0.55127 0.0
C678 C 0.9943 0.06711 0.58393 0.0
C679 C 0.04998 0.08449 0.58602 0.0
C680 C 0.03979 0.07529 0.56917 0.0
C681 C 0.04144 0.08797 0.60228 0.0
C682 C 0.02291 0.08235 0.60173 0.0
Tb683 Tb 0.02874 0.05549 0.52801 0.0
N684 N 0.04774 0.07123 0.55331 0.0
C685 C 0.06847 0.08975 0.58607 0.0
C686 C 0.06564 0.077 0.55307 0.0
C687 C 0.0763 0.08611 0.56949 0.0
H688 H 0.98633 0.04793 0.53808 0.0
H689 H 0.09055 0.09042 0.5693 0.0
H690 H 0.084 0.00867 0.5175 0.0
H691 H 0.98419 0.95865 0.48281 0.0
H692 H 0.07177 0.07487 0.54026 0.0
H693 H 0.07678 0.09675 0.59878 0.0
H694 H 1.00053 0.97968 0.51043 0.0
H695 H 0.97047 0.05362 0.56586 0.0
H696 H 0.04906 0.09498 0.61538 0.0
H697 H 0.01652 0.08518 0.61437 0.0
H698 H 0.10244 1.00236 0.49199 0.0
H699 H 0.98716 0.06971 0.59606 0.0
H700 H 0.99938 0.95263 0.45419 0.0
N701 N 0.0592 0.99869 0.50012 0.0
C702 C 0.05119 0.98881 0.48353 0.0
C703 C 0.08801 0.99875 0.48929 0.0
C704 C 0.06125 0.98407 0.46884 0.0
C705 C 0.07746 1.00269 0.5036 0.0
C706 C 0.07985 0.98969 0.47169 0.0
N707 N 0.02405 0.98616 0.49692 0.0
C708 C 1.00701 0.97731 0.49781 0.0
C709 C 0.02441 0.97007 0.46604 0.0
C710 C 0.03304 0.98198 0.48204 0.0
C711 C 1.00648 0.96195 0.46617 0.0
C712 C 0.99785 0.96531 0.4823 0.0
H713 H 0.08808 0.98635 0.46076 0.0
H714 H 0.06002 0.9695 0.44075 0.0
H715 H 0.02775 0.95714 0.43834 0.0
O716 O 0.03084 0.9891 0.54311 0.0
O717 O 0.02313 0.01273 0.49824 0.0
O718 O 0.03136 0.04366 0.49897 0.0
O719 O 0.05078 0.98171 0.52646 0.0
O720 O 0.01655 0.01093 0.53479 0.0
O721 O 1.00579 0.03333 0.51992 0.0
O722 O 0.03645 0.08242 0.52169 0.0
O723 O 0.03457 0.04043 0.55278 0.0
O724 O 0.05586 0.02402 0.54496 0.0
O725 O 1.0089 0.06959 0.51858 0.0
O726 O 0.05269 0.05301 0.51418 0.0
O727 O 0.06327 0.02794 0.52414 0.0
C728 C 0.02439 0.02761 0.4898 0.0
C729 C 0.0504 0.97144 0.5569 0.0
C730 C 0.05318 0.94803 0.5781 0.0
C731 C 0.06938 0.95859 0.58697 0.0
C732 C 0.0665 0.9818 0.56619 0.0
C733 C 0.07589 0.97539 0.58115 0.0
C734 C 0.04362 0.9546 0.56307 0.0
C735 C 1.00326 0.01778 0.52711 0.0
C736 C 0.04118 0.9775 0.54007 0.0
C737 C 0.05254 0.97315 0.45226 0.0
C738 C 0.03416 0.9661 0.45089 0.0
C739 C 0.04877 0.03343 0.55764 0.0
C740 C 0.01739 0.08991 0.49615 0.0
C741 C 0.02173 0.11308 0.47403 0.0
C742 C 1.01077 0.10089 0.4597 0.0
C743 C 1.0065 0.07815 0.48134 0.0
C744 C 0.02494 0.1076 0.49245 0.0
C745 C 1.00318 0.08367 0.46339 0.0
C746 C 0.06549 0.04363 0.51692 0.0
C747 C 0.02023 0.08365 0.51534 0.0
H748 H 0.07697 0.95383 0.59852 0.0
H749 H 0.07194 0.9947 0.56164 0.0
H750 H 0.08838 0.98341 0.58816 0.0
H751 H 0.03123 0.94646 0.55592 0.0
H752 H 1.00792 0.1048 0.44557 0.0
H753 H 1.00041 0.06459 0.48358 0.0
H754 H 0.03329 0.11692 0.50369 0.0
H755 H 0.99463 0.07451 0.45229 0.0
Tb756 Tb 0.28706 0.80537 0.76105 0.0
C757 C 0.24818 0.73935 0.80085 0.0
N758 N 0.26301 0.75227 0.80676 0.0
C759 C 0.25384 0.75542 0.83818 0.0
C760 C 0.23535 0.73434 0.81332 0.0
C761 C 0.2663 0.75982 0.82539 0.0
C762 C 0.23823 0.74277 0.83209 0.0
C763 C 0.23095 0.71716 0.77575 0.0
C764 C 0.24598 0.7308 0.78228 0.0
C765 C 0.21805 0.71234 0.78807 0.0
C766 C 0.22023 0.72092 0.80679 0.0
Tb767 Tb 0.28228 0.75725 0.78427 0.0
N768 N 0.25839 0.7362 0.77047 0.0
C769 C 0.22933 0.70884 0.757 0.0
C770 C 0.25738 0.72748 0.75256 0.0
C771 C 0.2427 0.71391 0.74542 0.0
H772 H 0.2787 0.76885 0.83077 0.0
H773 H 0.24185 0.70718 0.7311 0.0
H774 H 0.29014 0.79421 0.71433 0.0
H775 H 0.33032 0.85182 0.81567 0.0
H776 H 0.26807 0.73059 0.744 0.0
H777 H 0.21798 0.6983 0.75143 0.0
H778 H 0.30287 0.83033 0.80224 0.0
H779 H 0.25645 0.76158 0.85284 0.0
H780 H 0.20636 0.70195 0.78329 0.0
H781 H 0.21022 0.71696 0.81617 0.0
H782 H 0.31257 0.80097 0.69231 0.0
H783 H 0.22869 0.73929 0.84211 0.0
H784 H 0.35445 0.85981 0.79538 0.0
N785 N 0.3064 0.80982 0.73857 0.0
C786 C 0.32179 0.82194 0.74476 0.0
C787 C 0.31542 0.80677 0.70709 0.0
C788 C 0.33481 0.82652 0.73238 0.0
C789 C 0.30284 0.80267 0.71982 0.0
C790 C 0.33153 0.81861 0.71341 0.0
N791 N 0.31192 0.82488 0.7754 0.0
C792 C 0.31357 0.83303 0.79363 0.0
C793 C 0.34031 0.84242 0.77052 0.0
C794 C 0.32452 0.8299 0.76364 0.0
C795 C 0.34251 0.85012 0.78956 0.0
C796 C 0.32899 0.84554 0.8011 0.0
H797 H 0.34119 0.8218 0.70345 0.0
H798 H 0.36077 0.84255 0.72992 0.0
H799 H 0.36559 0.85641 0.76328 0.0
O800 O 0.27719 0.82913 0.77071 0.0
O801 O 0.31259 0.79656 0.77181 0.0
O802 O 0.30802 0.77592 0.79417 0.0
O803 O 0.27895 0.82105 0.74063 0.0
O804 O 0.27425 0.79932 0.78635 0.0
O805 O 0.28885 0.78156 0.80394 0.0
O806 O 0.29538 0.73566 0.77478 0.0
O807 O 0.25623 0.76422 0.77197 0.0
O808 O 0.25992 0.78883 0.75396 0.0
O809 O 0.29038 0.74126 0.80433 0.0
O810 O 0.29423 0.7643 0.75891 0.0
O811 O 0.2794 0.78129 0.74091 0.0
C812 C 0.3187 0.78743 0.7854 0.0
C813 C 0.2689 0.8491 0.74683 0.0
C814 C 0.25184 0.87341 0.74995 0.0
C815 C 0.25705 0.87882 0.73262 0.0
C816 C 0.27403 0.85495 0.72959 0.0
C817 C 0.26816 0.8697 0.72259 0.0
C818 C 0.25792 0.85858 0.75722 0.0
C819 C 0.28233 0.79621 0.80239 0.0
C820 C 0.27477 0.83281 0.75314 0.0
C821 C 0.35061 0.83892 0.73924 0.0
C822 C 0.35335 0.84684 0.75824 0.0
C823 C 0.24974 0.77527 0.76065 0.0
C824 C 0.3051 0.71601 0.79847 0.0
C825 C 0.3221 0.69176 0.79367 0.0
C826 C 0.32127 0.6887 0.8128 0.0
C827 C 0.30444 0.71246 0.81757 0.0
C828 C 0.31389 0.70541 0.78637 0.0
C829 C 0.31244 0.69893 0.82461 0.0
C830 C 0.28531 0.76637 0.74296 0.0
C831 C 0.29691 0.73112 0.7921 0.0
H832 H 0.25253 0.8902 0.72686 0.0
H833 H 0.28258 0.84804 0.72142 0.0
H834 H 0.27214 0.87403 0.70927 0.0
H835 H 0.2538 0.85423 0.77051 0.0
H836 H 0.32744 0.67825 0.8186 0.0
H837 H 0.29779 0.72023 0.82724 0.0
H838 H 0.31457 0.70789 0.77163 0.0
H839 H 0.31186 0.69642 0.83934 0.0
Tb840 Tb 0.52908 0.04595 0.99787 0.0
C841 C 0.56418 1.00209 0.06672 0.0
N842 N 0.55026 0.99625 0.05291 0.0
C843 C 0.5592 0.96749 0.04818 0.0
C844 C 0.57639 0.99089 0.07169 0.0
C845 C 0.54755 0.97916 0.04368 0.0
C846 C 0.57373 0.9734 0.06222 0.0
C847 C 0.58081 0.0262 0.0899 0.0
C848 C 0.56627 0.01944 0.0757 0.0
C849 C 0.59308 0.01517 0.0949 0.0
C850 C 0.59085 0.99753 0.08583 0.0
Tb851 Tb 0.53198 0.01611 0.04626 0.0
N852 N 0.55419 0.02972 0.07031 0.0
C853 C 0.58263 0.04384 0.09865 0.0
C854 C 0.55583 0.0469 0.07921 0.0
C855 C 0.57003 0.05419 0.09332 0.0
H856 H 0.53624 0.97434 0.03303 0.0
H857 H 0.5712 0.06783 0.10014 0.0
H858 H 0.51903 0.08555 0.01369 0.0
H859 H 0.49991 0.99724 0.93682 0.0
H860 H 0.54639 0.0553 0.07591 0.0
H861 H 0.59362 0.04955 0.10959 0.0
H862 H 0.52173 0.00991 0.96428 0.0
H863 H 0.55695 0.95395 0.04085 0.0
H864 H 0.60432 0.02015 0.10575 0.0
H865 H 0.60041 0.98916 0.08982 0.0
H866 H 0.49631 0.10354 0.00562 0.0
H867 H 0.58278 0.96436 0.06565 0.0
H868 H 0.47574 0.01333 0.92691 0.0
N869 N 0.50851 0.06396 0.99183 0.0
C870 C 0.49626 0.05816 0.97625 0.0
C871 C 0.496 0.09069 0.99736 0.0
C872 C 0.48312 0.06823 0.97089 0.0
C873 C 0.50873 0.08021 0.00215 0.0
C874 C 0.48306 0.08463 0.98174 0.0
N875 N 0.50957 0.0325 0.97157 0.0
C876 C 0.51101 0.01687 0.96097 0.0
C877 C 0.4842 0.0353 0.94964 0.0
C878 C 0.49684 0.04193 0.96573 0.0
C879 C 0.48519 0.01889 0.93935 0.0
C880 C 0.49875 0.00973 0.94496 0.0
H881 H 0.47322 0.0928 0.97805 0.0
H882 H 0.46031 0.06922 0.95058 0.0
H883 H 0.46123 0.04034 0.93199 0.0
O884 O 0.54745 0.04599 0.97762 0.0
O885 O 0.50212 0.03294 0.0018 0.0
O886 O 0.52017 0.02603 0.02312 0.0
O887 O 0.54092 0.07114 0.99024 0.0
O888 O 0.53759 0.0188 0.99441 0.0
O889 O 0.5273 1.00003 0.01758 0.0
O890 O 0.51405 0.01696 0.06658 0.0
O891 O 0.55743 0.0237 0.03548 0.0
O892 O 0.54842 0.04733 0.02317 0.0
O893 O 0.51446 0.99202 0.04936 0.0
O894 O 0.5241 0.04312 0.05165 0.0
O895 O 0.53033 0.06152 0.02682 0.0
C896 C 0.50374 0.02449 0.01637 0.0
C897 C 0.562 0.07376 0.96694 0.0
C898 C 0.57765 0.07469 0.93882 0.0
C899 C 0.58477 0.09308 0.9444 0.0
C900 C 0.56909 0.09212 0.97241 0.0
C901 C 0.58046 0.10173 0.96113 0.0
C902 C 0.56619 0.06518 0.95013 0.0
C903 C 0.53356 1.00264 1.00088 0.0
C904 C 0.54986 0.0635 0.97833 0.0
C905 C 0.47051 0.06167 0.95489 0.0
C906 C 0.47104 0.04523 0.94431 0.0
C907 C 0.56034 0.03701 0.02505 0.0
C908 C 0.50741 0.99069 0.08114 0.0
C909 C 0.49735 0.99036 0.11258 0.0
C910 C 0.50696 0.97663 0.11627 0.0
C911 C 0.51716 0.97712 0.08494 0.0
C912 C 0.49735 0.99696 0.09482 0.0
C913 C 0.51677 0.97002 0.10244 0.0
C914 C 0.52581 0.05894 0.04434 0.0
C915 C 0.50812 0.99962 0.06374 0.0
H916 H 0.59394 0.10067 0.93606 0.0
H917 H 0.56592 0.09898 0.9854 0.0
H918 H 0.58604 0.11586 0.96542 0.0
H919 H 0.56034 0.05109 0.94574 0.0
H920 H 0.50716 0.97129 0.12991 0.0
H921 H 0.52515 0.97214 0.07459 0.0
H922 H 0.48969 1.00731 0.09168 0.0
H923 H 0.5243 0.95958 0.1054 0.0
Tb924 Tb 0.27215 0.25631 0.26142 0.0
C925 C 0.33581 0.30877 0.30528 0.0
N926 N 0.31956 0.30184 0.31056 0.0
C927 C 0.33361 0.29788 0.34129 0.0
C928 C 0.35165 0.31003 0.31772 0.0
C929 C 0.31826 0.29679 0.32848 0.0
C930 C 0.35038 0.30445 0.33587 0.0
C931 C 0.35328 0.32101 0.28103 0.0
C932 C 0.3366 0.31438 0.28714 0.0
C933 C 0.36906 0.32222 0.2934 0.0
C934 C 0.36823 0.31685 0.31171 0.0
Tb935 Tb 0.29574 0.30338 0.28906 0.0
N936 N 0.32107 0.31288 0.27537 0.0
C937 C 0.35363 0.32621 0.26264 0.0
C938 C 0.32135 0.31882 0.2578 0.0
C939 C 0.33759 0.32521 0.25103 0.0
H940 H 0.30545 0.29276 0.33343 0.0
H941 H 0.3377 0.32969 0.23698 0.0
H942 H 0.26409 0.26196 0.21525 0.0
H943 H 0.23119 0.21927 0.30749 0.0
H944 H 0.30921 0.31929 0.24918 0.0
H945 H 0.36619 0.33129 0.25739 0.0
H946 H 0.25901 0.23595 0.2981 0.0
H947 H 0.33246 0.29396 0.35547 0.0
H948 H 0.38198 0.32733 0.28895 0.0
H949 H 0.38053 0.31795 0.3211 0.0
H950 H 0.23818 0.25743 0.19087 0.0
H951 H 0.36223 0.30536 0.34589 0.0
H952 H 0.20329 0.21381 0.28521 0.0
N953 N 0.24903 0.25303 0.23735 0.0
C954 C 0.23291 0.2443 0.24134 0.0
C955 C 0.23642 0.25401 0.20514 0.0
C956 C 0.21779 0.24052 0.2275 0.0
C957 C 0.25108 0.25715 0.21924 0.0
C958 C 0.21964 0.24587 0.20934 0.0
N959 N 0.24678 0.24182 0.27186 0.0
C960 C 0.24682 0.2346 0.28878 0.0
C961 C 0.21571 0.22805 0.26342 0.0
C962 C 0.23185 0.23811 0.25902 0.0
C963 C 0.21542 0.22156 0.28125 0.0
C964 C 0.23111 0.22472 0.29392 0.0
H965 H 0.20837 0.24315 0.19828 0.0
H966 H 0.18976 0.22797 0.22153 0.0
H967 H 0.18794 0.21711 0.25305 0.0
O968 O 0.28322 0.23417 0.26887 0.0
O969 O 0.25283 0.27051 0.27544 0.0
O970 O 0.26621 0.29938 0.28982 0.0
O971 O 0.26872 0.2337 0.24104 0.0
O972 O 0.28622 0.25819 0.29048 0.0
O973 O 0.28237 0.28447 0.30682 0.0
O974 O 0.29844 0.33117 0.28671 0.0
O975 O 0.31216 0.28249 0.28081 0.0
O976 O 0.29837 0.26767 0.25226 0.0
O977 O 0.29831 0.32124 0.31411 0.0
O978 O 0.28079 0.3047 0.26111 0.0
O979 O 0.28136 0.2775 0.24374 0.0
C980 C 0.25194 0.28633 0.28473 0.0
C981 C 0.29275 0.21835 0.24308 0.0
C982 C 0.31239 0.19666 0.24343 0.0
C983 C 0.31985 0.20336 0.22762 0.0
C984 C 0.30041 0.22537 0.22748 0.0
C985 C 0.3139 0.21779 0.21975 0.0
C986 C 0.29878 0.2041 0.25093 0.0
C987 C 0.28301 0.26725 0.30614 0.0
C988 C 0.27863 0.22555 0.25181 0.0
C989 C 0.20152 0.23095 0.23197 0.0
C990 C 0.20049 0.22471 0.24989 0.0
C991 C 0.31322 0.27418 0.26376 0.0
C992 C 0.28805 0.34842 0.31161 0.0
C993 C 0.268 0.36937 0.30522 0.0
C994 C 0.27046 0.37578 0.3248 0.0
C995 C 0.2903 0.35499 0.33105 0.0
C996 C 0.27664 0.35543 0.29879 0.0
C997 C 0.28142 0.36849 0.3376 0.0
C998 C 0.27983 0.29458 0.24471 0.0
C999 C 0.29882 0.33533 0.30502 0.0
H1000 H 0.3304 0.19766 0.22162 0.0
H1001 H 0.29599 0.2366 0.22132 0.0
H1002 H 0.31979 0.22313 0.20771 0.0
H1003 H 0.29276 0.19872 0.26295 0.0
H1004 H 0.26439 0.38682 0.33018 0.0
H1005 H 0.29919 0.34987 0.34113 0.0
H1006 H 0.27477 0.35028 0.28379 0.0
H1007 H 0.28338 0.37363 0.35259 0.0
Tb1008 Tb 0.54367 0.50579 0.02148 0.0
C1009 C 0.51959 0.57132 0.06558 0.0
N1010 N 0.51071 0.5602 0.05013 0.0
C1011 C 0.4833 0.55832 0.06432 0.0
C1012 C 0.51068 0.57618 0.08121 0.0
C1013 C 0.49273 0.55383 0.04919 0.0
C1014 C 0.49232 0.56949 0.08044 0.0
C1015 C 0.54756 0.58901 0.08164 0.0
C1016 C 0.5378 0.5776 0.06582 0.0
C1017 C 0.53876 0.59386 0.09728 0.0
C1018 C 0.52037 0.58747 0.09707 0.0
Tb1019 Tb 0.52761 0.55381 0.02646 0.0
N1020 N 0.54596 0.57221 0.05062 0.0
C1021 C 0.56584 0.59528 0.08118 0.0
C1022 C 0.56351 0.57918 0.04964 0.0
C1023 C 0.57379 0.59052 0.065 0.0
H1024 H 0.48551 0.54562 0.0366 0.0
H1025 H 0.58778 0.5958 0.06422 0.0
H1026 H 0.58601 0.51382 0.01195 0.0
H1027 H 0.48383 0.46392 0.98288 0.0
H1028 H 0.56955 0.57655 0.03692 0.0
H1029 H 0.57383 0.6041 0.09304 0.0
H1030 H 0.50173 0.48325 0.01033 0.0
H1031 H 0.46907 0.55324 0.0635 0.0
H1032 H 0.54604 0.6026 0.10959 0.0
H1033 H 0.51376 0.59134 0.10923 0.0
H1034 H 0.6028 0.5062 0.98537 0.0
H1035 H 0.48497 0.57293 0.09214 0.0
H1036 H 0.49822 0.45539 0.95446 0.0
N1037 N 0.5609 0.49938 0.99808 0.0
C1038 C 0.55222 0.48815 0.98261 0.0
C1039 C 0.58854 0.50116 0.98434 0.0
C1040 C 0.56134 0.48323 0.96718 0.0
C1041 C 0.57891 0.50569 0.99928 0.0
C1042 C 0.57972 0.48995 0.96817 0.0
N1043 N 0.5256 0.4874 0.99709 0.0
C1044 C 0.50798 0.48051 0.99778 0.0
C1045 C 0.52441 0.4704 0.96624 0.0
C1046 C 0.53399 0.48185 0.98213 0.0
C1047 C 0.50607 0.46422 0.96639 0.0
C1048 C 0.49788 0.46912 0.98234 0.0
H1049 H 0.58722 0.48647 0.95662 0.0
H1050 H 0.55861 0.46798 0.93924 0.0
H1051 H 0.52628 0.45673 0.93843 0.0
O1052 O 0.53543 0.48342 0.03738 0.0
O1053 O 0.53624 0.51729 0.9947 0.0
O1054 O 0.51522 0.53439 0.00199 0.0
O1055 O 0.56199 0.4895 0.0285 0.0
O1056 O 0.51933 0.50793 0.03539 0.0
O1057 O 0.50654 0.52965 0.02127 0.0
O1058 O 0.53561 0.57596 0.01032 0.0
O1059 O 0.53467 0.54185 0.05304 0.0
O1060 O 0.55617 0.52523 0.04598 0.0
O1061 O 0.50908 0.56994 0.01935 0.0
O1062 O 0.55166 0.55148 0.01231 0.0
O1063 O 0.56477 0.52999 0.02642 0.0
C1064 C 0.52306 0.52557 0.98949 0.0
C1065 C 0.55681 0.46299 0.04516 0.0
C1066 C 0.55377 0.43797 0.0651 0.0
C1067 C 0.56978 0.43375 0.0595 0.0
C1068 C 0.57277 0.45818 0.03989 0.0
C1069 C 0.57914 0.44373 0.04699 0.0
C1070 C 0.54714 0.45265 0.05782 0.0
C1071 C 0.50533 0.5151 0.03025 0.0
C1072 C 0.55104 0.47881 0.03707 0.0
C1073 C 0.55184 0.47189 0.95126 0.0
C1074 C 0.53342 0.46549 0.95079 0.0
C1075 C 0.54824 0.53415 0.05831 0.0
C1076 C 0.51389 0.59556 1.00115 0.0
C1077 C 0.51785 0.62086 0.98161 0.0
C1078 C 0.50016 0.62277 0.98341 0.0
C1079 C 0.49625 0.59807 0.00262 0.0
C1080 C 0.52485 0.60721 0.99061 0.0
C1081 C 0.48951 0.61152 0.99386 0.0
C1082 C 0.56578 0.54447 0.01732 0.0
C1083 C 0.51986 0.58032 0.01027 0.0
H1084 H 0.57507 0.4226 0.06488 0.0
H1085 H 0.58046 0.46561 0.03017 0.0
H1086 H 0.59145 0.44028 0.04279 0.0
H1087 H 0.53483 0.45608 0.0621 0.0
H1088 H 0.49457 0.63314 0.97672 0.0
H1089 H 0.48746 0.5895 0.0105 0.0
H1090 H 0.53847 0.60555 0.98923 0.0
H1091 H 0.47589 0.6132 0.99513 0.0
Tb1092 Tb 0.78851 0.30845 0.26164 0.0
C1093 C 0.75287 0.23919 0.30128 0.0
N1094 N 0.76818 0.25159 0.30628 0.0
C1095 C 0.76281 0.25265 0.33914 0.0
C1096 C 0.74165 0.23334 0.31498 0.0
C1097 C 0.77366 0.25775 0.32504 0.0
C1098 C 0.74661 0.24056 0.33406 0.0
C1099 C 0.73404 0.21767 0.27682 0.0
C1100 C 0.74906 0.23151 0.28252 0.0
C1101 C 0.72244 0.21221 0.29024 0.0
C1102 C 0.72621 0.22006 0.30928 0.0
Tb1103 Tb 0.78456 0.2591 0.28193 0.0
N1104 N 0.76055 0.23723 0.26997 0.0
C1105 C 0.73142 0.2095 0.25793 0.0
C1106 C 0.75867 0.22863 0.2519 0.0
C1107 C 0.74393 0.21487 0.24547 0.0
H1108 H 0.78657 0.26628 0.32928 0.0
H1109 H 0.74236 0.20827 0.23102 0.0
H1110 H 0.79448 0.29818 0.21567 0.0
H1111 H 0.83111 0.34868 0.3213 0.0
H1112 H 0.7687 0.23215 0.24258 0.0
H1113 H 0.72007 0.19878 0.25296 0.0
H1114 H 0.80361 0.32857 0.30549 0.0
H1115 H 0.7671 0.2578 0.35395 0.0
H1116 H 0.71073 0.20169 0.28613 0.0
H1117 H 0.71736 0.21545 0.31957 0.0
H1118 H 0.81812 0.30635 0.1953 0.0
H1119 H 0.73836 0.23643 0.34504 0.0
H1120 H 0.85593 0.3587 0.30252 0.0
N1121 N 0.80924 0.31358 0.24084 0.0
C1122 C 0.82438 0.32557 0.24831 0.0
C1123 C 0.8201 0.3117 0.21023 0.0
C1124 C 0.83816 0.33073 0.237 0.0
C1125 C 0.8068 0.30686 0.22197 0.0
C1126 C 0.83586 0.32363 0.21776 0.0
N1127 N 0.81316 0.3263 0.27845 0.0
C1128 C 0.81451 0.33238 0.29734 0.0
C1129 C 0.8422 0.3439 0.27599 0.0
C1130 C 0.82636 0.33222 0.26764 0.0
C1131 C 0.84393 0.34973 0.29555 0.0
C1132 C 0.83 0.34401 0.30624 0.0
H1133 H 0.84613 0.3273 0.20859 0.0
H1134 H 0.86458 0.34674 0.23676 0.0
H1135 H 0.86816 0.35816 0.27085 0.0
O1136 O 0.78074 0.33307 0.27048 0.0
O1137 O 0.81354 0.29743 0.2695 0.0
O1138 O 0.80808 0.27988 0.29389 0.0
O1139 O 0.7816 0.32472 0.24083 0.0
O1140 O 0.7759 0.30444 0.28757 0.0
O1141 O 0.78928 0.28336 0.30194 0.0
O1142 O 0.79854 0.24041 0.26877 0.0
O1143 O 0.75796 0.26438 0.26959 0.0
O1144 O 0.76066 0.29321 0.25917 0.0
O1145 O 0.7979 0.24359 0.29915 0.0
O1146 O 0.79393 0.26795 0.25597 0.0
O1147 O 0.7786 0.28573 0.24003 0.0
C1148 C 0.81939 0.28943 0.28411 0.0
C1149 C 0.75897 0.34087 0.24829 0.0
C1150 C 0.73843 0.36208 0.25059 0.0
C1151 C 0.7256 0.34996 0.23785 0.0
C1152 C 0.74586 0.32893 0.23562 0.0
C1153 C 0.72927 0.33344 0.23054 0.0
C1154 C 0.7551 0.35743 0.25595 0.0
C1155 C 0.78017 0.29646 0.30251 0.0
C1156 C 0.7768 0.33635 0.25304 0.0
C1157 C 0.85385 0.34263 0.24525 0.0
C1158 C 0.85588 0.34916 0.26468 0.0
C1159 C 0.75099 0.27763 0.26243 0.0
C1160 C 0.80065 0.21488 0.28558 0.0
C1161 C 0.81319 0.18738 0.28406 0.0
C1162 C 0.79814 0.17843 0.29144 0.0
C1163 C 0.78561 0.2056 0.29279 0.0
C1164 C 0.8144 0.20562 0.28103 0.0
C1165 C 0.78438 0.18748 0.29566 0.0
C1166 C 0.78349 0.27018 0.24112 0.0
C1167 C 0.80308 0.23455 0.28491 0.0
H1168 H 0.7127 0.35331 0.23359 0.0
H1169 H 0.7484 0.31606 0.22962 0.0
H1170 H 0.71926 0.32414 0.22081 0.0
H1171 H 0.76512 0.36681 0.26566 0.0
H1172 H 0.79707 0.16441 0.29395 0.0
H1173 H 0.77505 0.21247 0.29675 0.0
H1174 H 0.82618 0.2127 0.2757 0.0
H1175 H 0.77286 0.18051 0.30145 0.0
Tb1176 Tb 0.03623 0.54584 0.49984 0.0
C1177 C 0.06439 0.49862 0.57024 0.0
N1178 N 0.05245 0.49388 0.55426 0.0
C1179 C 0.06247 0.46566 0.54901 0.0
C1180 C 0.07624 0.48729 0.57588 0.0
C1181 C 0.05091 0.47728 0.54407 0.0
C1182 C 0.07534 0.47077 0.56485 0.0
C1183 C 0.07631 0.51999 0.5982 0.0
C1184 C 0.06438 0.5147 0.58133 0.0
C1185 C 0.08841 0.50894 0.60363 0.0
C1186 C 0.08837 0.49263 0.5925 0.0
Tb1187 Tb 0.03444 0.5143 0.54769 0.0
N1188 N 0.05272 0.52523 0.57543 0.0
C1189 C 0.07563 0.53615 0.60917 0.0
C1190 C 0.05145 0.54058 0.58661 0.0
C1191 C 0.06301 0.54639 0.60344 0.0
H1192 H 0.04047 0.4726 0.53237 0.0
H1193 H 0.06207 0.55869 0.61207 0.0
H1194 H 0.02413 0.58355 0.51651 0.0
H1195 H 0.0164 0.50501 0.43136 0.0
H1196 H 0.04149 0.54838 0.58287 0.0
H1197 H 0.08455 0.54069 0.62223 0.0
H1198 H 0.03677 0.51758 0.46031 0.0
H1199 H 0.06128 0.45265 0.54074 0.0
H1200 H 0.09773 0.51281 0.61649 0.0
H1201 H 0.09763 0.48413 0.59699 0.0
H1202 H 0.99968 0.60002 0.50964 0.0
H1203 H 0.0842 0.46167 0.56871 0.0
H1204 H 0.98845 0.5165 0.42413 0.0
N1205 N 0.01483 0.56276 0.49359 0.0
C1206 C 1.00278 0.55688 0.47796 0.0
C1207 C 1.00027 0.58778 0.50071 0.0
C1208 C 0.98855 0.56584 0.4734 0.0
C1209 C 0.01407 0.57831 0.50467 0.0
C1210 C 0.9873 0.5814 0.48513 0.0
N1211 N 0.01957 0.53455 0.471 0.0
C1212 C 0.02423 0.52217 0.45802 0.0
C1213 C 0.99336 0.53577 0.44953 0.0
C1214 C 1.00511 0.54205 0.46637 0.0
C1215 C 0.99714 0.52177 0.4372 0.0
C1216 C 0.01288 0.51523 0.44126 0.0
H1217 H 0.97663 0.58875 0.48208 0.0
H1218 H 0.96514 0.56573 0.45347 0.0
H1219 H 0.96938 0.53935 0.43248 0.0
O1220 O 0.05718 0.54773 0.48285 0.0
O1221 O 1.00987 0.53864 0.50884 0.0
O1222 O 0.01753 0.51453 0.52115 0.0
O1223 O 0.05205 0.57145 0.49878 0.0
O1224 O 0.04016 0.51726 0.49355 0.0
O1225 O 0.03676 0.4993 0.51929 0.0
O1226 O 0.01294 0.51595 0.56356 0.0
O1227 O 0.06147 0.5295 0.5483 0.0
O1228 O 0.04741 0.53379 0.52228 0.0
O1229 O 0.02054 0.49039 0.55609 0.0
O1230 O 0.02782 0.54215 0.551 0.0
O1231 O 0.0401 0.56108 0.52886 0.0
C1232 C 1.0059 0.52505 0.5187 0.0
C1233 C 0.06019 0.57366 0.46758 0.0
C1234 C 0.06902 0.57352 0.4356 0.0
C1235 C 0.05636 0.58417 0.43079 0.0
C1236 C 0.04758 0.58438 0.46271 0.0
C1237 C 0.04583 0.58975 0.4444 0.0
C1238 C 0.07109 0.56862 0.45409 0.0
C1239 C 0.03971 0.50172 0.50126 0.0
C1240 C 0.06052 0.56525 0.48536 0.0
C1241 C 0.97628 0.55915 0.45715 0.0
C1242 C 0.97867 0.54411 0.44524 0.0
C1243 C 0.06255 0.537 0.53292 0.0
C1244 C 0.01134 0.49573 0.58656 0.0
C1245 C 1.00004 0.50149 0.6169 0.0
C1246 C 0.01173 0.49133 0.62536 0.0
C1247 C 0.02297 0.48554 0.59506 0.0
C1248 C 1.00002 0.50364 0.59755 0.0
C1249 C 0.02313 0.48339 0.61442 0.0
C1250 C 0.0329 0.55834 0.54503 0.0
C1251 C 0.01112 0.49908 0.56656 0.0
H1252 H 0.05461 0.58812 0.41653 0.0
H1253 H 0.03876 0.58819 0.47278 0.0
H1254 H 0.03603 0.59789 0.44063 0.0
H1255 H 0.08049 0.55993 0.45768 0.0
H1256 H 0.01183 0.48928 0.64028 0.0
H1257 H 0.03197 0.47935 0.58686 0.0
H1258 H 0.9913 0.51176 0.591 0.0
H1259 H 0.03206 0.47551 0.62095 0.0
Tb1260 Tb 0.81038 0.7728 0.27994 0.0
C1261 C 0.74312 0.79429 0.23339 0.0
N1262 N 0.75381 0.80314 0.24917 0.0
C1263 C 0.75414 0.83131 0.23616 0.0
C1264 C 0.73784 0.80361 0.21817 0.0
C1265 C 0.75871 0.82153 0.25107 0.0
C1266 C 0.74384 0.82229 0.21954 0.0
C1267 C 0.72453 0.76647 0.21755 0.0
C1268 C 0.73671 0.77591 0.23292 0.0
C1269 C 0.71963 0.77559 0.20211 0.0
C1270 C 0.72636 0.79409 0.20237 0.0
Tb1271 Tb 0.76037 0.78527 0.27214 0.0
N1272 N 0.74221 0.76736 0.24782 0.0
C1273 C 0.71736 0.74825 0.2184 0.0
C1274 C 0.73459 0.74993 0.24922 0.0
C1275 C 0.72222 0.74002 0.23445 0.0
H1276 H 0.76572 0.82887 0.2642 0.0
H1277 H 0.71636 0.72611 0.23552 0.0
H1278 H 0.80519 0.72881 0.2863 0.0
H1279 H 0.84467 0.83332 0.32415 0.0
H1280 H 0.73767 0.74381 0.26188 0.0
H1281 H 0.70785 0.74054 0.20694 0.0
H1282 H 0.82808 0.81573 0.29476 0.0
H1283 H 0.75828 0.84584 0.23765 0.0
H1284 H 0.71043 0.76854 0.19004 0.0
H1285 H 0.72223 0.80102 0.19049 0.0
H1286 H 0.81201 0.71113 0.31248 0.0
H1287 H 0.74012 0.82995 0.20813 0.0
H1288 H 0.85248 0.81768 0.352 0.0
N1289 N 0.81599 0.7543 0.30252 0.0
C1290 C 0.82536 0.76297 0.31915 0.0
C1291 C 0.81567 0.72571 0.3146 0.0
C1292 C 0.82989 0.75328 0.33434 0.0
C1293 C 0.81153 0.73586 0.29988 0.0
C1294 C 0.82477 0.73445 0.33195 0.0
N1295 N 0.82549 0.79068 0.30619 0.0
C1296 C 0.83097 0.80889 0.30692 0.0
C1297 C 0.84019 0.79111 0.33795 0.0
C1298 C 0.83052 0.78169 0.32094 0.0
C1299 C 0.84508 0.80993 0.33916 0.0
C1300 C 0.8406 0.81883 0.3235 0.0
H1301 H 0.82801 0.72652 0.34329 0.0
H1302 H 0.84301 0.75542 0.36321 0.0
H1303 H 0.85196 0.7885 0.36638 0.0
O1304 O 0.8327 0.78483 0.26695 0.0
O1305 O 0.79709 0.78148 0.30502 0.0
O1306 O 0.77806 0.80079 0.29642 0.0
O1307 O 0.8312 0.75854 0.27603 0.0
O1308 O 0.80513 0.79509 0.26375 0.0
O1309 O 0.78302 0.80827 0.27586 0.0
O1310 O 0.74151 0.77485 0.2902 0.0
O1311 O 0.77016 0.7729 0.2464 0.0
O1312 O 0.79588 0.76045 0.25253 0.0
O1313 O 0.73881 0.79836 0.27651 0.0
O1314 O 0.76681 0.76267 0.28699 0.0
O1315 O 0.78821 0.74948 0.27379 0.0
C1316 C 0.78815 0.79449 0.3093 0.0
C1317 C 0.84639 0.76381 0.24903 0.0
C1318 C 0.86982 0.76295 0.22767 0.0
C1319 C 0.8585 0.74849 0.21615 0.0
C1320 C 0.83551 0.74927 0.23719 0.0
C1321 C 0.84147 0.74182 0.22082 0.0
C1322 C 0.86362 0.77078 0.24411 0.0
C1323 C 0.79862 0.80947 0.26906 0.0
C1324 C 0.84017 0.77067 0.2671 0.0
C1325 C 0.83945 0.76264 0.35136 0.0
C1326 C 0.84458 0.78149 0.35316 0.0
C1327 C 0.78267 0.76407 0.24102 0.0
C1328 C 0.72621 0.79595 0.30553 0.0
C1329 C 0.70359 0.79756 0.32781 0.0
C1330 C 0.71438 0.81362 0.33716 0.0
C1331 C 0.73664 0.81186 0.31536 0.0
C1332 C 0.70959 0.78883 0.31175 0.0
C1333 C 0.73071 0.82063 0.33101 0.0
C1334 C 0.77235 0.74825 0.27992 0.0
C1335 C 0.73213 0.78745 0.28816 0.0
H1336 H 0.86291 0.7423 0.20348 0.0
H1337 H 0.82239 0.74351 0.24068 0.0
H1338 H 0.83292 0.73064 0.21181 0.0
H1339 H 0.8723 0.7818 0.25325 0.0
H1340 H 0.71007 0.82097 0.34918 0.0
H1341 H 0.74923 0.81769 0.3107 0.0
H1342 H 0.70145 0.77656 0.30417 0.0
H1343 H 0.73876 0.83304 0.33834 0.0
Tb1344 Tb 0.7682 0.27988 0.79829 0.0
C1345 C 0.80979 0.25094 0.72776 0.0
N1346 N 0.81617 0.26326 0.74314 0.0
C1347 C 0.84219 0.24993 0.74824 0.0
C1348 C 0.81917 0.23725 0.72226 0.0
C1349 C 0.83224 0.2631 0.75329 0.0
C1350 C 0.83559 0.23688 0.7327 0.0
C1351 C 0.78607 0.23894 0.70224 0.0
C1352 C 0.79344 0.25177 0.71804 0.0
C1353 C 0.79526 0.22514 0.69673 0.0
C1354 C 0.8118 0.22431 0.7067 0.0
Tb1355 Tb 0.79902 0.28405 0.75072 0.0
N1356 N 0.78486 0.26521 0.72402 0.0
C1357 C 0.76981 0.24048 0.69233 0.0
C1358 C 0.76962 0.26744 0.71342 0.0
C1359 C 0.7617 0.25495 0.69778 0.0
H1360 H 0.8375 0.27317 0.76525 0.0
H1361 H 0.74946 0.25668 0.68974 0.0
H1362 H 0.72832 0.28804 0.78191 0.0
H1363 H 0.81262 0.30636 0.86309 0.0
H1364 H 0.76357 0.27898 0.71631 0.0
H1365 H 0.76367 0.23088 0.68015 0.0
H1366 H 0.80289 0.2869 0.83314 0.0
H1367 H 0.8549 0.24983 0.75636 0.0
H1368 H 0.78975 0.21512 0.6847 0.0
H1369 H 0.81875 0.21362 0.70228 0.0
H1370 H 0.70787 0.30783 0.7917 0.0
H1371 H 0.84325 0.22661 0.72891 0.0
H1372 H 0.79383 0.3274 0.87496 0.0
N1373 N 0.74814 0.29781 0.80564 0.0
C1374 C 0.75232 0.30862 0.82252 0.0
C1375 C 0.72042 0.30831 0.80042 0.0
C1376 C 0.74082 0.31998 0.82883 0.0
C1377 C 0.73226 0.29729 0.79474 0.0
C1378 C 0.72474 0.31977 0.81749 0.0
N1379 N 0.77923 0.2975 0.82659 0.0
C1380 C 0.79474 0.29636 0.83739 0.0
C1381 C 0.77331 0.31961 0.85085 0.0
C1382 C 0.76836 0.30843 0.83338 0.0
C1383 C 0.78954 0.31902 0.86147 0.0
C1384 C 0.80023 0.30724 0.85476 0.0
H1385 H 0.71552 0.32828 0.82186 0.0
H1386 H 0.73703 0.33999 0.85128 0.0
H1387 H 0.7655 0.33968 0.87056 0.0
O1388 O 0.76908 0.25884 0.81542 0.0
O1389 O 0.7782 0.30853 0.79723 0.0
O1390 O 0.78922 0.29469 0.77522 0.0
O1391 O 0.74396 0.26407 0.80298 0.0
O1392 O 0.79629 0.27399 0.80162 0.0
O1393 O 0.81436 0.28788 0.77972 0.0
O1394 O 0.80022 0.3049 0.73321 0.0
O1395 O 0.79295 0.25682 0.75883 0.0
O1396 O 0.76972 0.26479 0.77121 0.0
O1397 O 0.8243 0.29869 0.74701 0.0
O1398 O 0.77218 0.29247 0.74708 0.0
O1399 O 0.75366 0.27945 0.76906 0.0
C1400 C 0.78789 0.31026 0.78353 0.0
C1401 C 0.74536 0.25615 0.83432 0.0
C1402 C 0.74721 0.24669 0.86616 0.0
C1403 C 0.73399 0.25662 0.87073 0.0
C1404 C 0.73217 0.26605 0.83906 0.0
C1405 C 0.72661 0.26632 0.85724 0.0
C1406 C 0.75293 0.24675 0.84798 0.0
C1407 C 0.81221 0.27985 0.79559 0.0
C1408 C 0.75178 0.2557 0.81546 0.0
C1409 C 0.7457 0.33116 0.84621 0.0
C1410 C 0.76191 0.33098 0.85719 0.0
C1411 C 0.77975 0.25285 0.76882 0.0
C1412 C 0.82494 0.30761 0.71591 0.0
C1413 C 0.82419 0.31747 0.68427 0.0
C1414 C 0.83772 0.30787 0.68014 0.0
C1415 C 0.83831 0.2978 0.7116 0.0
C1416 C 0.81802 0.31741 0.70219 0.0
C1417 C 0.84469 0.29802 0.69378 0.0
C1418 C 0.75622 0.28787 0.75345 0.0
C1419 C 0.81757 0.30761 0.73428 0.0
H1420 H 0.72907 0.2566 0.88454 0.0
H1421 H 0.72614 0.27357 0.82881 0.0
H1422 H 0.71641 0.27389 0.86081 0.0
H1423 H 0.7634 0.23951 0.84437 0.0
H1424 H 0.84265 0.30778 0.66632 0.0
H1425 H 0.84379 0.28994 0.72189 0.0
H1426 H 0.80775 0.32506 0.70548 0.0
H1427 H 0.85498 0.29047 0.6905 0.0
Tb1428 Tb 0.76973 0.75602 0.75899 0.0
C1429 C 0.83349 0.80939 0.80481 0.0
N1430 N 0.81731 0.80188 0.80982 0.0
C1431 C 0.83116 0.79891 0.84095 0.0
C1432 C 0.84917 0.81185 0.81774 0.0
C1433 C 0.81593 0.79694 0.82776 0.0
C1434 C 0.84785 0.80636 0.83593 0.0
C1435 C 0.85072 0.82318 0.78121 0.0
C1436 C 0.83427 0.81491 0.78669 0.0
C1437 C 0.86636 0.82561 0.79406 0.0
C1438 C 0.86559 0.81995 0.81226 0.0
Tb1439 Tb 0.79348 0.80171 0.78761 0.0
N1440 N 0.81885 0.81237 0.77456 0.0
C1441 C 0.8509 0.82915 0.76314 0.0
C1442 C 0.81887 0.81925 0.75746 0.0
C1443 C 0.83487 0.82733 0.75129 0.0
H1444 H 0.80308 0.7923 0.83238 0.0
H1445 H 0.83473 0.83264 0.73764 0.0
H1446 H 0.76221 0.76313 0.71325 0.0
H1447 H 0.72568 0.72729 0.80788 0.0
H1448 H 0.80661 0.8195 0.74893 0.0
H1449 H 0.86325 0.83568 0.75845 0.0
H1450 H 0.75464 0.73926 0.79743 0.0
H1451 H 0.82995 0.79504 0.85515 0.0
H1452 H 0.87909 0.83203 0.79013 0.0
H1453 H 0.87775 0.82207 0.82206 0.0
H1454 H 0.73621 0.76022 0.68913 0.0
H1455 H 0.85959 0.8081 0.8463 0.0
H1456 H 0.69792 0.72417 0.78579 0.0
N1457 N 0.74678 0.75447 0.73526 0.0
C1458 C 0.73023 0.74745 0.73967 0.0
C1459 C 0.73431 0.7568 0.70336 0.0
C1460 C 0.715 0.74509 0.7261 0.0
C1461 C 0.74903 0.75883 0.71726 0.0
C1462 C 0.71721 0.74998 0.70782 0.0
N1463 N 0.74359 0.74503 0.77058 0.0
C1464 C 0.74273 0.73904 0.78808 0.0
C1465 C 0.7117 0.735 0.76293 0.0
C1466 C 0.72859 0.74241 0.75784 0.0
C1467 C 0.71064 0.72991 0.78131 0.0
C1468 C 0.72626 0.73177 0.79387 0.0
H1469 H 0.70586 0.7483 0.69697 0.0
H1470 H 0.68628 0.73583 0.72089 0.0
H1471 H 0.68339 0.72706 0.75315 0.0
O1472 O 0.77566 0.73108 0.76535 0.0
O1473 O 0.75138 0.77443 0.7681 0.0
O1474 O 0.76567 0.79334 0.79477 0.0
O1475 O 0.7657 0.73482 0.73681 0.0
O1476 O 0.78407 0.75572 0.78765 0.0
O1477 O 0.78124 0.78193 0.80514 0.0
O1478 O 0.79033 0.8279 0.78248 0.0
O1479 O 0.81128 0.78231 0.77907 0.0
O1480 O 0.79713 0.76568 0.75125 0.0
O1481 O 0.79816 0.82198 0.81084 0.0
O1482 O 0.77827 0.80227 0.75943 0.0
O1483 O 0.78161 0.77631 0.74202 0.0
C1484 C 0.75081 0.78491 0.78401 0.0
C1485 C 0.78766 0.71702 0.74023 0.0
C1486 C 0.80831 0.69652 0.74379 0.0
C1487 C 0.81812 0.70449 0.73004 0.0
C1488 C 0.79745 0.72497 0.72638 0.0
C1489 C 0.81257 0.7186 0.72125 0.0
C1490 C 0.79301 0.70266 0.74863 0.0
C1491 C 0.78275 0.76489 0.80404 0.0
C1492 C 0.77288 0.72441 0.74744 0.0
C1493 C 0.69813 0.73776 0.73114 0.0
C1494 C 0.69648 0.73276 0.74951 0.0
C1495 C 0.81203 0.77282 0.76257 0.0
C1496 C 0.78574 0.84833 0.80859 0.0
C1497 C 0.76931 0.8727 0.80416 0.0
C1498 C 0.77409 0.87926 0.82356 0.0
C1499 C 0.79032 0.85508 0.82794 0.0
C1500 C 0.77503 0.85707 0.79683 0.0
C1501 C 0.78441 0.87038 0.83538 0.0
C1502 C 0.77919 0.79303 0.74295 0.0
C1503 C 0.79478 0.83435 0.80034 0.0
H1504 H 0.83 0.69978 0.72614 0.0
H1505 H 0.79365 0.73628 0.71981 0.0
H1506 H 0.82015 0.72478 0.71068 0.0
H1507 H 0.78566 0.69673 0.75956 0.0
H1508 H 0.7703 0.89154 0.82952 0.0
H1509 H 0.79901 0.84889 0.83718 0.0
H1510 H 0.77157 0.85204 0.78186 0.0
H1511 H 0.78828 0.87569 0.85021 0.0
Tb1512 Tb 0.5562 0.5414 0.53935 0.0
C1513 C 0.50486 0.47767 0.48933 0.0
N1514 N 0.51174 0.49475 0.48582 0.0
C1515 C 0.51739 0.48324 0.45469 0.0
C1516 C 0.50454 0.46266 0.47582 0.0
C1517 C 0.51728 0.49772 0.46843 0.0
C1518 C 0.51121 0.46562 0.45848 0.0
C1519 C 0.48923 0.45792 0.50986 0.0
C1520 C 0.49732 0.4753 0.5062 0.0
C1521 C 0.4895 0.4429 0.49674 0.0
C1522 C 0.49712 0.44527 0.47977 0.0
Tb1523 Tb 0.51084 0.51701 0.50976 0.0
N1524 N 0.49715 0.49012 0.51856 0.0
C1525 C 0.48054 0.45619 0.52625 0.0
C1526 C 0.48727 0.48859 0.53364 0.0
C1527 C 0.47928 0.47164 0.53799 0.0
H1528 H 0.52102 0.51121 0.4647 0.0
H1529 H 0.47183 0.47055 0.55019 0.0
H1530 H 0.54839 0.54993 0.5847 0.0
H1531 H 0.59754 0.58071 0.49491 0.0
H1532 H 0.48503 0.50035 0.54221 0.0
H1533 H 0.47413 0.44308 0.52952 0.0
H1534 H 0.57893 0.55336 0.50346 0.0
H1535 H 0.52194 0.48571 0.44102 0.0
H1536 H 0.48342 0.42945 0.49936 0.0
H1537 H 0.49683 0.43359 0.46957 0.0
H1538 H 0.55538 0.57576 0.60986 0.0
H1539 H 0.51113 0.45445 0.4477 0.0
H1540 H 0.60446 0.60854 0.51768 0.0
N1541 N 0.56096 0.56446 0.5638 0.0
C1542 C 0.57133 0.58007 0.56037 0.0
C1543 C 0.55976 0.57724 0.59593 0.0
C1544 C 0.57593 0.59508 0.57448 0.0
C1545 C 0.55561 0.56271 0.58153 0.0
C1546 C 0.56984 0.59356 0.59235 0.0
N1547 N 0.57384 0.56582 0.52994 0.0
C1548 C 0.58116 0.56553 0.51311 0.0
C1549 C 0.58914 0.59659 0.53894 0.0
C1550 C 0.57801 0.58077 0.54292 0.0
C1551 C 0.59592 0.59663 0.5213 0.0
C1552 C 0.592 0.58098 0.50839 0.0
H1553 H 0.57318 0.60475 0.60359 0.0
H1554 H 0.59045 0.62263 0.58115 0.0
H1555 H 0.60187 0.62401 0.54996 0.0
O1556 O 0.58218 0.5362 0.53738 0.0
O1557 O 0.54527 0.56097 0.52265 0.0
O1558 O 0.51608 0.54735 0.51007 0.0
O1559 O 0.57022 0.53569 0.56429 0.0
O1560 O 0.55591 0.52627 0.51094 0.0
O1561 O 0.53071 0.53087 0.4935 0.0
O1562 O 0.4862 0.52336 0.51537 0.0
O1563 O 0.53028 0.49945 0.51765 0.0
O1564 O 0.54426 0.5141 0.54631 0.0
O1565 O 0.49022 0.5127 0.48707 0.0
O1566 O 0.512 0.52011 0.54087 0.0
O1567 O 0.53175 0.54629 0.55123 0.0
C1568 C 0.52929 0.5618 0.51413 0.0
C1569 C 0.60049 0.53051 0.56536 0.0
C1570 C 0.62805 0.51913 0.56372 0.0
C1571 C 0.63204 0.5231 0.58362 0.0
C1572 C 0.60451 0.53442 0.58523 0.0
C1573 C 0.62028 0.53072 0.59431 0.0
C1574 C 0.61222 0.52284 0.55473 0.0
C1575 C 0.54761 0.52942 0.49476 0.0
C1576 C 0.58419 0.53445 0.55557 0.0
C1577 C 0.58682 0.61096 0.57051 0.0
C1578 C 0.59335 0.61173 0.55275 0.0
C1579 C 0.53875 0.499 0.5347 0.0
C1580 C 0.46904 0.53193 0.48932 0.0
C1581 C 0.44762 0.55182 0.49377 0.0
C1582 C 0.44477 0.55193 0.47386 0.0
C1583 C 0.46604 0.53216 0.46948 0.0
C1584 C 0.46022 0.54223 0.50131 0.0
C1585 C 0.45413 0.54234 0.46186 0.0
C1586 C 0.51801 0.53406 0.55362 0.0
C1587 C 0.47934 0.51928 0.49756 0.0
H1588 H 0.64432 0.52052 0.59087 0.0
H1589 H 0.59557 0.54045 0.59369 0.0
H1590 H 0.62343 0.53383 0.60961 0.0
H1591 H 0.60884 0.51946 0.53944 0.0
H1592 H 0.43488 0.55886 0.46747 0.0
H1593 H 0.4725 0.52414 0.45985 0.0
H1594 H 0.46273 0.54221 0.51662 0.0
H1595 H 0.45168 0.54229 0.44655 0.0
Tb1596 Tb 1.00832 0.52697 0.03757 0.0
C1597 C 0.07729 0.56333 1.00082 0.0
N1598 N 0.06474 0.54811 0.99499 0.0
C1599 C 0.06264 0.55639 0.96303 0.0
C1600 C 0.08219 0.57613 0.98813 0.0
C1601 C 0.05838 0.54397 0.97602 0.0
C1602 C 0.0743 0.5727 0.96918 0.0
C1603 C 0.09943 0.58108 0.02564 0.0
C1604 C 0.08596 0.5658 0.01939 0.0
C1605 C 0.10377 0.59413 0.01321 0.0
C1606 C 0.09516 0.59168 0.99454 0.0
Tb1607 Tb 0.05891 0.52986 0.01858 0.0
N1608 N 0.08106 0.55327 0.03139 0.0
C1609 C 0.10811 0.58282 0.04424 0.0
C1610 C 0.09001 0.55448 0.04922 0.0
C1611 C 0.1035 0.56935 0.056 0.0
H1612 H 0.05024 0.53102 0.97054 0.0
H1613 H 0.11043 0.57034 0.07024 0.0
H1614 H 0.02041 0.52089 0.08425 0.0
H1615 H 0.9578 0.48696 0.98463 0.0
H1616 H 0.08704 0.54379 0.05801 0.0
H1617 H 0.11853 0.59437 0.04957 0.0
H1618 H 0.97982 0.51416 0.99843 0.0
H1619 H 0.05717 0.55321 0.94818 0.0
H1620 H 0.11392 0.60608 0.01784 0.0
H1621 H 0.0989 0.60172 0.98502 0.0
H1622 H 0.01673 0.496 0.10354 0.0
H1623 H 0.07769 0.58221 0.95902 0.0
H1624 H 0.95318 0.4602 0.00233 0.0
N1625 N 1.00642 0.50536 0.05847 0.0
C1626 C 0.99482 0.48968 0.05154 0.0
C1627 C 1.01086 0.49388 0.08878 0.0
C1628 C 0.99169 0.47521 0.06272 0.0
C1629 C 0.01339 0.50794 0.07735 0.0
C1630 C 1.00026 0.47734 0.08134 0.0
N1631 N 0.98811 0.50259 0.02312 0.0
C1632 C 0.97804 0.50248 0.00607 0.0
C1633 C 0.97264 0.47263 0.0263 0.0
C1634 C 0.98514 0.48839 0.03357 0.0
C1635 C 0.9629 0.47208 0.00839 0.0
C1636 C 0.96549 0.48714 0.99833 0.0
H1637 H 0.99813 0.46658 0.09038 0.0
H1638 H 0.97714 0.44808 0.06367 0.0
H1639 H 0.96063 0.44576 0.03175 0.0
O1640 O 0.98583 0.53877 0.02852 0.0
O1641 O 0.01346 0.5035 0.01796 0.0
O1642 O 0.04337 0.50422 0.02588 0.0
O1643 O 0.99247 0.53432 0.05805 0.0
O1644 O 0.01878 0.54038 0.01422 0.0
O1645 O 0.03578 0.52479 0.99708 0.0
O1646 O 0.08193 0.51972 0.02765 0.0
O1647 O 0.05416 0.55665 0.03256 0.0
O1648 O 0.02462 0.5547 0.04052 0.0
O1649 O 0.0691 0.51329 0.99869 0.0
O1650 O 0.04769 0.52008 0.04322 0.0
O1651 O 0.03076 0.53534 0.05976 0.0
C1652 C 0.0275 0.49542 0.0178 0.0
C1653 C 0.96644 0.54781 0.05233 0.0
C1654 C 0.94083 0.5627 0.04698 0.0
C1655 C 0.93789 0.56177 0.06613 0.0
C1656 C 0.96314 0.54713 0.07147 0.0
C1657 C 0.94901 0.5541 0.07828 0.0
C1658 C 0.95525 0.5558 0.04004 0.0
C1659 C 0.02155 0.53203 0.99822 0.0
C1660 C 0.98175 0.54031 0.04594 0.0
C1661 C 0.97958 0.45932 0.05529 0.0
C1662 C 0.97011 0.45802 0.03714 0.0
C1663 C 0.04086 0.56405 0.03903 0.0
C1664 C 0.09983 0.51124 0.00401 0.0
C1665 C 0.12679 0.49811 0.0041 0.0
C1666 C 0.13128 0.50697 0.98824 0.0
C1667 C 0.10471 0.52028 0.98837 0.0
C1668 C 0.1111 0.50041 0.01206 0.0
C1669 C 0.12039 0.51813 0.98057 0.0
C1670 C 0.0461 0.53053 0.05823 0.0
C1671 C 0.08228 0.51123 0.0109 0.0
H1672 H 0.92697 0.56714 0.07173 0.0
H1673 H 0.97151 0.54119 0.08131 0.0
H1674 H 0.94667 0.55352 0.09304 0.0
H1675 H 0.95762 0.55655 0.02528 0.0
H1676 H 0.14327 0.50529 0.98185 0.0
H1677 H 0.09622 0.52863 0.98193 0.0
H1678 H 0.10734 0.49325 0.02402 0.0
H1679 H 0.12399 0.52493 0.96836 0.0
H1680 H 0.02574 0.21678 0.9378 0.0
H1681 H 0.03016 0.18694 0.94654 0.0
H1682 H 1.00084 0.1937 0.9947 0.0
H1683 H 0.99624 0.22301 0.98607 0.0
H1684 H 0.04646 0.17444 0.9784 0.0
H1685 H 0.97439 0.14474 0.97129 0.0
H1686 H 0.98257 0.16592 0.96259 0.0
H1687 H 0.98006 0.16509 0.98751 0.0
C1688 C 0.02013 0.21193 0.95021 0.0
C1689 C 1.0104 0.22268 0.96096 0.0
C1690 C 0.02272 0.19471 0.95529 0.0
C1691 C 0.01555 0.18741 0.9712 0.0
C1692 C 1.00619 0.19834 0.98208 0.0
H1693 H 0.04129 0.0975 0.03448 0.0
H1694 H 0.03908 0.12672 0.02332 0.0
C1695 C 1.00364 0.21542 0.97708 0.0
C1696 C 0.01773 0.16866 0.97663 0.0
H1697 H 0.99409 0.12811 0.98673 0.0
C1698 C 0.03493 0.16437 0.98012 0.0
C1699 C 1.0029 0.15499 0.97889 0.0
C1700 C 0.98394 0.1578 0.97471 0.0
C1701 C 0.03761 0.14748 0.98614 0.0
C1702 C 0.02278 0.13407 0.98888 0.0
C1703 C 1.00561 0.13816 0.98492 0.0
C1704 C 0.02477 0.1158 0.99565 0.0
C1705 C 0.05641 0.14398 0.98931 0.0
C1706 C 0.01741 0.09935 0.98422 0.0
C1707 C 0.0192 0.08242 0.99045 0.0
C1708 C 0.02807 0.08109 0.0086 0.0
C1709 C 0.03495 0.09759 0.02022 0.0
C1710 C 0.03355 0.11453 0.01382 0.0
H1711 H 0.06601 0.15371 0.98279 0.0
H1712 H 0.06075 0.1453 0.00486 0.0
H1713 H 0.05701 0.13005 0.98326 0.0
H1714 H 1.01041 0.09958 0.97023 0.0
H1715 H 0.01361 0.07029 0.9809 0.0
H1716 H 0.09855 0.79555 0.16369 0.0
H1717 H 0.12421 0.79319 0.18651 0.0
H1718 H 0.15853 0.7981 0.14185 0.0
H1719 H 0.13326 0.80074 0.11923 0.0
H1720 H 0.14685 0.76814 0.18683 0.0
H1721 H 0.18744 0.8355 0.18271 0.0
H1722 H 0.16409 0.82954 0.17334 0.0
H1723 H 0.18088 0.82238 0.15989 0.0
C1724 C 0.11159 0.79634 0.15874 0.0
C1725 C 0.11364 0.79857 0.13947 0.0
C1726 C 0.12632 0.79491 0.17185 0.0
C1727 C 0.14361 0.79579 0.16618 0.0
C1728 C 0.14561 0.79786 0.14694 0.0
H1729 H 0.25207 0.79373 0.21826 0.0
H1730 H 0.22517 0.79615 0.19798 0.0
C1731 C 0.13097 0.7993 0.13389 0.0
C1732 C 0.15946 0.79404 0.18002 0.0
H1733 H 0.20214 0.81488 0.19821 0.0
C1734 C 0.15891 0.77843 0.18941 0.0
C1735 C 0.1754 0.8073 0.18346 0.0
C1736 C 0.17699 0.8247 0.17447 0.0
C1737 C 0.17382 0.77539 0.20136 0.0
C1738 C 0.18985 0.7887 0.20488 0.0
C1739 C 0.19018 0.80448 0.19571 0.0
C1740 C 0.20649 0.78655 0.21752 0.0
C1741 C 0.1723 0.75745 0.20928 0.0
C1742 C 0.20558 0.78035 0.23563 0.0
C1743 C 0.22108 0.77811 0.24698 0.0
C1744 C 0.23828 0.78287 0.24119 0.0
C1745 C 0.23923 0.78965 0.22336 0.0
C1746 C 0.22368 0.79125 0.2117 0.0
H1747 H 0.16222 0.74687 0.20025 0.0
H1748 H 0.18528 0.75277 0.21037 0.0
H1749 H 0.1678 0.7588 0.22368 0.0
H1750 H 0.19286 0.77729 0.2412 0.0
H1751 H 0.21946 0.77257 0.26034 0.0
H1752 H 0.52388 0.83264 0.42755 0.0
H1753 H 0.52627 0.86414 0.44015 0.0
H1754 H 0.50451 0.84741 0.49085 0.0
H1755 H 0.503 0.81561 0.47855 0.0
H1756 H 0.5049 0.88466 0.44735 0.0
H1757 H 0.54318 0.88467 0.5177 0.0
H1758 H 0.53946 0.86551 0.4997 0.0
H1759 H 0.52228 0.86909 0.51457 0.0
C1760 C 0.51969 0.83554 0.44149 0.0
C1761 C 0.51333 0.82125 0.45197 0.0
C1762 C 0.52104 0.8538 0.44876 0.0
C1763 C 0.51594 0.85876 0.46682 0.0
C1764 C 0.50922 0.84445 0.47722 0.0
H1765 H 0.51366 0.96651 0.52837 0.0
H1766 H 0.50949 0.93415 0.5176 0.0
C1767 C 0.50814 0.82606 0.47004 0.0
C1768 C 0.51724 0.87875 0.47406 0.0
H1769 H 0.53221 0.91134 0.51235 0.0
C1770 C 0.511 0.89036 0.46157 0.0
C1771 C 0.52505 0.88676 0.49269 0.0
C1772 C 0.53303 0.87592 0.50687 0.0
C1773 C 0.51222 0.90913 0.46698 0.0
C1774 C 0.52014 0.91713 0.48551 0.0
C1775 C 0.52613 0.90555 0.49814 0.0
C1776 C 0.5224 0.93734 0.49197 0.0
C1777 C 0.50452 0.92012 0.45275 0.0
C1778 C 0.53114 0.95051 0.48147 0.0
C1779 C 0.53317 0.96921 0.48746 0.0
C1780 C 0.5268 0.97556 0.50437 0.0
C1781 C 0.51829 0.9624 0.51501 0.0
C1782 C 0.51613 0.9437 0.50895 0.0
H1783 H 0.49424 0.91151 0.44196 0.0
H1784 H 0.49838 0.93078 0.45991 0.0
H1785 H 0.51539 0.9267 0.44504 0.0
H1786 H 0.53662 0.94637 0.46861 0.0
H1787 H 0.53968 0.97872 0.4787 0.0
H1788 H 0.49409 0.28704 0.61492 0.0
H1789 H 0.46697 0.28444 0.6312 0.0
H1790 H 0.49892 0.28645 0.68518 0.0
H1791 H 0.52597 0.28884 0.66905 0.0
H1792 H 0.46798 0.25823 0.67863 0.0
H1793 H 0.45073 0.3247 0.66565 0.0
H1794 H 0.45566 0.31109 0.64534 0.0
H1795 H 0.47301 0.32006 0.66449 0.0
C1796 C 0.49534 0.28694 0.63025 0.0
C1797 C 0.51225 0.28811 0.64064 0.0
C1798 C 0.47982 0.28557 0.63957 0.0
C1799 C 0.48087 0.28551 0.6595 0.0
C1800 C 0.49772 0.28652 0.66983 0.0
H1801 H 0.40431 0.2884 0.74331 0.0
H1802 H 0.42914 0.2965 0.72417 0.0
C1803 C 0.5132 0.28783 0.66055 0.0
C1804 C 0.46445 0.28381 0.66959 0.0
H1805 H 0.43029 0.30523 0.68087 0.0
C1806 C 0.45976 0.26851 0.67908 0.0
C1807 C 0.45375 0.29729 0.67037 0.0
C1808 C 0.45851 0.31431 0.66106 0.0
C1809 C 0.4446 0.2662 0.68903 0.0
C1810 C 0.43375 0.27953 0.68959 0.0
C1811 C 0.43853 0.29497 0.68035 0.0
C1812 C 0.41738 0.27732 0.69971 0.0
C1813 C 0.44029 0.24952 0.69904 0.0
C1814 C 0.40218 0.26446 0.69202 0.0
C1815 C 0.38797 0.25999 0.70284 0.0
C1816 C 0.38858 0.26834 0.72155 0.0
C1817 C 0.40325 0.28209 0.72877 0.0
C1818 C 0.41752 0.28659 0.7179 0.0
H1819 H 0.45136 0.24181 0.69964 0.0
H1820 H 0.43743 0.25324 0.71382 0.0
H1821 H 0.42812 0.24057 0.69132 0.0
H1822 H 0.40176 0.25713 0.67804 0.0
H1823 H 0.37703 0.24908 0.69707 0.0
H1824 H 0.01501 0.819 0.68422 0.0
H1825 H 0.01762 0.84585 0.66705 0.0
H1826 H 0.04337 0.81918 0.62419 0.0
H1827 H 0.03998 0.79217 0.64075 0.0
H1828 H 0.04363 0.86901 0.65793 0.0
H1829 H 1.00672 0.83451 0.5897 0.0
H1830 H 1.00763 0.8234 0.61106 0.0
H1831 H 0.02567 0.8246 0.59634 0.0
C1832 C 0.02128 0.81891 0.67117 0.0
C1833 C 0.02717 0.80337 0.66381 0.0
C1834 C 0.02272 0.83427 0.66128 0.0
C1835 C 0.0302 0.83451 0.64388 0.0
C1836 C 0.03687 0.81925 0.63708 0.0
H1837 H 0.06663 0.91723 0.57236 0.0
H1838 H 0.05937 0.8894 0.58754 0.0
C1839 C 0.03514 0.80383 0.64675 0.0
C1840 C 0.03142 0.85078 0.63309 0.0
H1841 H 0.02366 0.86416 0.5886 0.0
C1842 C 0.03904 0.86789 0.64283 0.0
C1843 C 0.02538 0.84958 0.61331 0.0
C1844 C 0.01572 0.83206 0.60206 0.0
C1845 C 0.04129 0.88355 0.63334 0.0
C1846 C 0.0358 0.8822 0.61352 0.0
C1847 C 0.02797 0.8652 0.60377 0.0
C1848 C 0.03868 0.89827 0.60267 0.0
C1849 C 0.04994 0.90143 0.6445 0.0
C1850 C 0.02906 0.91231 0.60557 0.0
C1851 C 0.03301 0.92811 0.59664 0.0
C1852 C 0.04674 0.9302 0.58476 0.0
C1853 C 0.05591 0.9159 0.58134 0.0
C1854 C 0.0518 0.90003 0.59006 0.0
H1855 H 0.05595 0.89984 0.659 0.0
H1856 H 0.0605 0.90862 0.6368 0.0
H1857 H 0.0397 0.91003 0.64601 0.0
H1858 H 0.0188 0.91124 0.61512 0.0
H1859 H 0.02589 0.93901 0.59967 0.0
H1860 H 0.47572 0.80407 0.87609 0.0
H1861 H 0.44593 0.80106 0.85999 0.0
H1862 H 0.46715 0.80435 0.80607 0.0
H1863 H 0.49779 0.80712 0.82244 0.0
H1864 H 0.42998 0.8228 0.84233 0.0
H1865 H 0.4266 0.76275 0.78987 0.0
H1866 H 0.44473 0.76971 0.80888 0.0
H1867 H 0.44431 0.78126 0.78786 0.0
C1868 C 0.4744 0.80414 0.86075 0.0
C1869 C 0.48973 0.80599 0.85082 0.0
C1870 C 0.457 0.8024 0.85145 0.0
C1871 C 0.45372 0.80235 0.8316 0.0
C1872 C 0.46889 0.80398 0.82135 0.0
H1873 H 0.34696 0.80299 0.7667 0.0
H1874 H 0.3793 0.80722 0.77655 0.0
C1875 C 0.48659 0.80568 0.83078 0.0
C1876 C 0.43447 0.80114 0.82248 0.0
H1877 H 0.4011 0.77648 0.78906 0.0
C1878 C 0.42383 0.81263 0.83063 0.0
C1879 C 0.42592 0.78798 0.80712 0.0
C1880 C 0.43587 0.7746 0.79798 0.0
C1881 C 0.4054 0.81122 0.82427 0.0
C1882 C 0.39684 0.79793 0.80919 0.0
C1883 C 0.40744 0.78671 0.80061 0.0
C1884 C 0.37683 0.79518 0.80285 0.0
C1885 C 0.39503 0.82399 0.8338 0.0
C1886 C 0.36425 0.78703 0.81418 0.0
C1887 C 0.34563 0.78461 0.80857 0.0
C1888 C 0.33878 0.79041 0.79146 0.0
C1889 C 0.35144 0.79859 0.78011 0.0
C1890 C 0.3701 0.80088 0.78567 0.0
H1891 H 0.4039 0.83511 0.84344 0.0
H1892 H 0.38714 0.8299 0.82289 0.0
H1893 H 0.38547 0.81641 0.84232 0.0
H1894 H 0.36885 0.78244 0.82747 0.0
H1895 H 0.33657 0.77822 0.8178 0.0
H1896 H 0.51323 0.21564 0.11963 0.0
H1897 H 0.5129 0.18556 0.10384 0.0
H1898 H 0.51835 0.16539 0.15844 0.0
H1899 H 0.51898 0.19599 0.17464 0.0
H1900 H 0.54556 0.16386 0.1181 0.0
H1901 H 0.47414 0.13057 0.11437 0.0
H1902 H 0.48006 0.15464 0.11356 0.0
H1903 H 0.48523 0.14534 0.13527 0.0
C1904 C 0.51396 0.20479 0.12843 0.0
C1905 C 0.51605 0.20841 0.14853 0.0
C1906 C 0.51386 0.18753 0.11927 0.0
C1907 C 0.51571 0.17311 0.12982 0.0
C1908 C 0.51689 0.17628 0.14992 0.0
H1909 H 0.51024 0.06071 0.07795 0.0
H1910 H 0.50861 0.08752 0.09953 0.0
C1911 C 0.51704 0.19376 0.1592 0.0
C1912 C 0.51744 0.15528 0.11951 0.0
H1913 H 0.4929 0.11503 0.09746 0.0
C1914 C 0.53408 0.15308 0.11378 0.0
C1915 C 0.50255 0.14116 0.11377 0.0
C1916 C 0.4844 0.14285 0.11948 0.0
C1917 C 0.53621 0.13734 0.10248 0.0
C1918 C 0.52113 0.12342 0.09598 0.0
C1919 C 0.50454 0.12552 0.10215 0.0
C1920 C 0.5222 0.10683 0.08267 0.0
C1921 C 0.5548 0.13578 0.09796 0.0
C1922 C 0.53019 0.10835 0.06565 0.0
C1923 C 0.53146 0.09296 0.05345 0.0
C1924 C 0.52424 0.07542 0.0574 0.0
C1925 C 0.51594 0.07389 0.07426 0.0
C1926 C 0.51494 0.08932 0.08666 0.0
H1927 H 0.56516 0.14382 0.10906 0.0
H1928 H 0.5567 0.12154 0.09679 0.0
H1929 H 0.55705 0.1412 0.08421 0.0
H1930 H 0.53549 0.12152 0.06168 0.0
H1931 H 0.53841 0.0949 0.041 0.0
H1932 H 0.10953 0.32848 0.35838 0.0
H1933 H 0.13781 0.32559 0.34606 0.0
H1934 H 0.11292 0.27366 0.316 0.0
H1935 H 0.08423 0.27752 0.32688 0.0
H1936 H 0.16122 0.30833 0.34973 0.0
H1937 H 0.13714 0.28708 0.27358 0.0
H1938 H 0.1226 0.29437 0.28994 0.0
H1939 H 0.12653 0.27146 0.28823 0.0
C1940 C 0.10997 0.31656 0.34882 0.0
C1941 C 0.09426 0.30342 0.34345 0.0
C1942 C 0.12638 0.31481 0.34177 0.0
C1943 C 0.1281 0.29955 0.3294 0.0
C1944 C 0.11241 0.2861 0.32456 0.0
H1945 H 0.22026 0.26149 0.28284 0.0
H1946 H 0.19164 0.26503 0.29339 0.0
C1947 C 0.09579 0.28819 0.33106 0.0
C1948 C 0.1463 0.2977 0.32241 0.0
H1949 H 0.16684 0.28414 0.28367 0.0
C1950 C 0.16223 0.30323 0.33515 0.0
C1951 C 0.14842 0.29094 0.3034 0.0
C1952 C 0.13279 0.28581 0.28798 0.0
C1953 C 0.17952 0.30206 0.32977 0.0
C1954 C 0.18154 0.29516 0.31088 0.0
C1955 C 0.1657 0.28947 0.29816 0.0
C1956 C 0.19971 0.29328 0.30415 0.0
C1957 C 0.19547 0.30784 0.34472 0.0
C1958 C 0.21445 0.30787 0.30614 0.0
C1959 C 0.23117 0.30578 0.29989 0.0
C1960 C 0.2339 0.28903 0.29117 0.0
C1961 C 0.21905 0.27462 0.28908 0.0
C1962 C 0.20241 0.27667 0.29529 0.0
H1963 H 0.1915 0.30785 0.35939 0.0
H1964 H 0.20537 0.29887 0.34318 0.0
H1965 H 0.20206 0.3218 0.34309 0.0
H1966 H 0.21302 0.32107 0.31238 0.0
H1967 H 0.24198 0.31739 0.30185 0.0
H1968 H 0.94115 0.04249 0.21245 0.0
H1969 H 0.95119 0.04808 0.18113 0.0
H1970 H 0.97435 1.00018 0.17991 0.0
H1971 H 0.96471 0.99468 0.21097 0.0
H1972 H 0.9904 0.05068 0.17243 0.0
H1973 H 0.94158 0.9965 0.12698 0.0
H1974 H 0.93723 1.00607 0.15002 0.0
H1975 H 0.95189 0.99005 0.14854 0.0
C1976 C 0.9482 0.03306 0.20538 0.0
C1977 C 0.95215 0.01816 0.21429 0.0
C1978 C 0.954 0.03631 0.18753 0.0
C1979 C 0.96348 0.02449 0.17812 0.0
C1980 C 0.96699 0.00942 0.1868 0.0
H1981 H 0.03409 0.02372 0.09126 0.0
H1982 H 0.01927 0.02349 0.12032 0.0
C1983 C 0.96149 1.00634 0.20464 0.0
C1984 C 0.97039 0.02796 0.15958 0.0
H1985 H 0.96696 0.00989 0.11292 0.0
C1986 C 0.98512 0.04194 0.15935 0.0
C1987 C 0.96355 0.01652 0.14251 0.0
C1988 C 0.9476 1.0015 0.14186 0.0
C1989 C 0.99355 0.04434 0.1427 0.0
C1990 C 0.98708 0.03249 0.12582 0.0
C1991 C 0.97195 0.01895 0.12586 0.0
C1992 C 0.99632 0.03342 0.10826 0.0
C1993 C 1.00949 0.05936 0.14326 0.0
C1994 C 0.9883 0.03894 0.09169 0.0
C1995 C 0.99685 0.03927 0.07503 0.0
C1996 C 0.01355 0.03393 0.07454 0.0
C1997 C 0.02142 0.02824 0.09116 0.0
C1998 C 0.01295 0.02807 0.10782 0.0
H1999 H 1.01097 0.06921 0.15624 0.0
H2000 H 0.02182 0.05354 0.14319 0.0
H2001 H 1.00832 0.06661 0.13043 0.0
H2002 H 0.97542 0.04301 0.09166 0.0
H2003 H 0.99034 0.04363 0.06251 0.0
H2004 H 0.27231 0.62757 0.47752 0.0
H2005 H 0.26846 0.64278 0.44863 0.0
H2006 H 0.27626 0.69406 0.48342 0.0
H2007 H 0.27993 0.67917 0.51214 0.0
H2008 H 0.24089 0.67594 0.45104 0.0
H2009 H 0.31074 0.68902 0.432 0.0
H2010 H 0.30164 0.66851 0.44159 0.0
H2011 H 0.30682 0.6895 0.45674 0.0
C2012 C 0.27331 0.64209 0.47891 0.0
C2013 C 0.27634 0.65224 0.49695 0.0
C2014 C 0.27118 0.65069 0.4625 0.0
C2015 C 0.27229 0.66944 0.46414 0.0
C2016 C 0.27552 0.67957 0.48207 0.0
H2017 H 0.2515 0.75562 0.40264 0.0
H2018 H 0.26076 0.73611 0.42591 0.0
C2019 C 0.2775 0.67103 0.49839 0.0
C2020 C 0.2688 0.67864 0.44737 0.0
H2021 H 0.28968 0.70332 0.41548 0.0
C2022 C 0.25143 0.68169 0.443 0.0
C2023 C 0.28277 0.68618 0.43731 0.0
C2024 C 0.3016 0.68319 0.44201 0.0
C2025 C 0.2477 0.69262 0.42893 0.0
C2026 C 0.26174 0.7006 0.4192 0.0
C2027 C 0.27905 0.69714 0.42315 0.0
C2028 C 0.25841 0.7128 0.40503 0.0
C2029 C 0.22892 0.696 0.42482 0.0
C2030 C 0.25421 0.70597 0.3858 0.0
C2031 C 0.24863 0.71689 0.37261 0.0
C2032 C 0.2473 0.73483 0.37852 0.0
C2033 C 0.25206 0.74176 0.39779 0.0
C2034 C 0.25757 0.73077 0.411 0.0
H2035 H 0.21923 0.6875 0.43247 0.0
H2036 H 0.22871 0.71041 0.42925 0.0
H2037 H 0.22448 0.69326 0.40926 0.0
H2038 H 0.25466 0.69203 0.38113 0.0
H2039 H 0.24495 0.71116 0.35787 0.0
H2040 H 0.62989 0.06098 0.71058 0.0
H2041 H 0.61877 0.05815 0.67695 0.0
H2042 H 0.65054 0.01765 0.66471 0.0
H2043 H 0.66184 0.0203 0.69869 0.0
H2044 H 0.63718 0.06022 0.64203 0.0
H2045 H 0.59616 0.99324 0.65039 0.0
H2046 H 0.60647 0.00898 0.67082 0.0
H2047 H 0.61999 0.99706 0.65691 0.0
C2048 C 0.6346 0.0515 0.70078 0.0
C2049 C 0.64641 0.04055 0.70725 0.0
C2050 C 0.62842 0.05009 0.68157 0.0
C2051 C 0.63387 0.03769 0.66858 0.0
C2052 C 0.64628 0.02728 0.67472 0.0
H2053 H 0.56679 1.00547 0.56085 0.0
H2054 H 0.59151 1.00767 0.5859 0.0
C2055 C 0.65261 0.02876 0.69404 0.0
C2056 C 0.6246 0.03436 0.64922 0.0
H2057 H 0.58849 1.00689 0.62342 0.0
C2058 C 0.62681 0.04838 0.63762 0.0
C2059 C 0.61111 0.0189 0.64379 0.0
C2060 C 0.60814 1.00366 0.65608 0.0
C2061 C 0.61515 0.04773 0.62101 0.0
C2062 C 0.6009 0.03286 0.61634 0.0
C2063 C 0.59942 0.01833 0.62728 0.0
C2064 C 0.58677 0.03238 0.60073 0.0
C2065 C 0.61789 0.06307 0.60886 0.0
C2066 C 0.57576 0.04539 0.60118 0.0
C2067 C 0.56176 0.04429 0.58673 0.0
C2068 C 0.55877 0.03019 0.57185 0.0
C2069 C 0.56935 0.01684 0.57188 0.0
C2070 C 0.58337 0.01802 0.58615 0.0
H2071 H 0.63189 0.07067 0.61133 0.0
H2072 H 0.61459 0.05798 0.59347 0.0
H2073 H 0.60895 0.0726 0.61253 0.0
H2074 H 0.57791 0.05623 0.61276 0.0
H2075 H 0.55354 0.05457 0.58696 0.0
H2076 H 0.31288 0.35066 0.9925 0.0
H2077 H 0.31351 0.33559 0.96044 0.0
H2078 H 0.27937 0.36965 0.93689 0.0
H2079 H 0.27971 0.38543 0.9687 0.0
H2080 H 0.28917 0.31583 0.93572 0.0
H2081 H 0.31543 0.37584 0.90111 0.0
H2082 H 0.31487 0.37692 0.92654 0.0
H2083 H 0.29515 0.37816 0.9109 0.0
C2084 C 0.30574 0.35508 0.98041 0.0
C2085 C 0.29647 0.36941 0.98308 0.0
C2086 C 0.30604 0.34642 0.96207 0.0
C2087 C 0.29684 0.35168 0.94599 0.0
C2088 C 0.2872 0.36573 0.94879 0.0
H2089 H 0.27306 0.31585 0.82553 0.0
H2090 H 0.27473 0.32907 0.85843 0.0
C2091 C 0.28729 0.3747 0.96705 0.0
C2092 C 0.29684 0.3421 0.92647 0.0
H2093 H 0.30294 0.34899 0.88036 0.0
C2094 C 0.29236 0.32311 0.92367 0.0
C2095 C 0.30103 0.35146 0.9106 0.0
C2096 C 0.30707 0.37169 0.91247 0.0
C2097 C 0.2914 0.31335 0.90551 0.0
C2098 C 0.2952 0.32277 0.88961 0.0
C2099 C 0.29993 0.34171 0.89246 0.0
C2100 C 0.29365 0.31352 0.86973 0.0
C2101 C 0.28575 0.29308 0.90345 0.0
C2102 C 0.30356 0.30008 0.86492 0.0
C2103 C 0.30241 0.2922 0.84594 0.0
C2104 C 0.29171 0.29793 0.8313 0.0
C2105 C 0.28166 0.31119 0.83629 0.0
C2106 C 0.2826 0.31883 0.85518 0.0
H2107 H 0.27884 0.28844 0.91567 0.0
H2108 H 0.27672 0.2881 0.89005 0.0
H2109 H 0.2978 0.28683 0.90301 0.0
H2110 H 0.31244 0.29591 0.87575 0.0
H2111 H 0.31012 0.28186 0.84277 0.0
H2112 H 0.9736 0.02333 0.30842 0.0
H2113 H 0.98833 0.02435 0.34084 0.0
H2114 H 0.93689 0.01499 0.36201 0.0
H2115 H 0.92208 0.01448 0.3296 0.0
H2116 H 0.9605 0.04224 0.3841 0.0
H2117 H 0.9932 0.98306 0.37196 0.0
H2118 H 0.99802 0.99958 0.35573 0.0
H2119 H 0.97551 0.98743 0.35528 0.0
C2120 C 0.9654 0.02126 0.31994 0.0
C2121 C 0.94664 0.01868 0.31638 0.0
C2122 C 0.97385 0.02178 0.3385 0.0
C2123 C 0.96377 0.01941 0.35393 0.0
C2124 C 0.94501 0.01678 0.35038 0.0
H2125 H 1.00095 0.99935 0.46873 0.0
H2126 H 0.9869 0.99751 0.43604 0.0
C2127 C 0.93654 0.01644 0.33183 0.0
C2128 C 0.97277 0.0203 0.37381 0.0
H2129 H 1.00195 1.00142 0.40164 0.0
C2130 C 0.96951 0.03325 0.38792 0.0
C2131 C 0.98446 0.00852 0.37894 0.0
C2132 C 0.98791 0.99374 0.36476 0.0
C2133 C 0.97774 0.03491 0.40683 0.0
C2134 C 0.98984 0.0235 0.41186 0.0
C2135 C 0.99288 0.01034 0.39782 0.0
C2136 C 0.99906 0.02461 0.43169 0.0
C2137 C 0.97326 0.0489 0.42121 0.0
C2138 C 1.01095 0.04032 0.44019 0.0
C2139 C 0.01943 0.04121 0.45887 0.0
C2140 C 0.0161 0.02647 0.46958 0.0
C2141 C 1.00424 0.01078 0.46092 0.0
C2142 C 0.996 0.00979 0.4422 0.0
H2143 H 0.95977 0.05189 0.41719 0.0
H2144 H 0.97374 0.04459 0.43575 0.0
H2145 H 0.98313 0.06159 0.42147 0.0
H2146 H 0.01373 0.0519 0.43235 0.0
H2147 H 0.02855 0.05349 0.46493 0.0
H2148 H 0.24529 0.65743 0.59856 0.0
H2149 H 0.25016 0.67149 0.63161 0.0
H2150 H 0.30643 0.67001 0.63353 0.0
H2151 H 0.30154 0.65545 0.60053 0.0
H2152 H 0.27441 0.66703 0.67089 0.0
H2153 H 0.29307 0.72444 0.62824 0.0
H2154 H 0.27895 0.70353 0.61761 0.0
H2155 H 0.30238 0.70439 0.62389 0.0
C2156 C 0.25854 0.65944 0.60636 0.0
C2157 C 0.27313 0.65578 0.5972 0.0
C2158 C 0.26126 0.66727 0.62517 0.0
C2159 C 0.27863 0.67176 0.6347 0.0
C2160 C 0.29294 0.66639 0.62627 0.0
H2161 H 0.30975 0.74501 0.7381 0.0
H2162 H 0.30892 0.72168 0.7117 0.0
C2163 C 0.29015 0.65821 0.6075 0.0
C2164 C 0.28213 0.68578 0.65087 0.0
H2165 H 0.29173 0.73155 0.66084 0.0
C2166 C 0.27847 0.68112 0.66889 0.0
C2167 C 0.28701 0.70407 0.64778 0.0
C2168 C 0.29054 0.70955 0.62836 0.0
C2169 C 0.27946 0.69456 0.68412 0.0
C2170 C 0.28427 0.71282 0.68094 0.0
C2171 C 0.28808 0.71743 0.66299 0.0
C2172 C 0.28523 0.72744 0.69613 0.0
C2173 C 0.27487 0.68928 0.7033 0.0
C2174 C 0.27254 0.7387 0.69541 0.0
C2175 C 0.27302 0.75213 0.71037 0.0
C2176 C 0.28618 0.75424 0.72604 0.0
C2177 C 0.29934 0.74346 0.72622 0.0
C2178 C 0.29887 0.73012 0.71128 0.0
H2179 H 0.26848 0.67483 0.70248 0.0
H2180 H 0.28727 0.69166 0.71345 0.0
H2181 H 0.26572 0.69771 0.70916 0.0
H2182 H 0.26204 0.73674 0.68357 0.0
H2183 H 0.26272 0.76028 0.71009 0.0
H2184 H 0.65685 0.06448 0.80186 0.0
H2185 H 0.63969 0.06487 0.8291 0.0
H2186 H 0.6552 0.01524 0.84344 0.0
H2187 H 0.67304 0.01525 0.81644 0.0
H2188 H 0.61104 0.03626 0.82971 0.0
H2189 H 0.6599 0.04577 0.8953 0.0
H2190 H 0.66658 0.05144 0.87256 0.0
H2191 H 0.6615 0.02824 0.87693 0.0
C2192 C 0.65712 0.05406 0.81129 0.0
C2193 C 0.66617 0.03988 0.80733 0.0
C2194 C 0.64726 0.05421 0.82668 0.0
C2195 C 0.64613 0.03999 0.83805 0.0
C2196 C 0.65614 0.0264 0.83488 0.0
H2197 H 0.58596 0.04108 0.93525 0.0
H2198 H 0.59785 0.02668 0.90838 0.0
C2199 C 0.66634 0.02646 0.81961 0.0
C2200 C 0.63306 0.03876 0.85189 0.0
H2201 H 0.62967 0.04407 0.89942 0.0
C2202 C 0.61502 0.0377 0.84498 0.0
C2203 C 0.63837 0.04031 0.87166 0.0
C2204 C 0.65764 0.04161 0.87966 0.0
C2205 C 0.60223 0.03938 0.85748 0.0
C2206 C 0.60778 0.04223 0.87726 0.0
C2207 C 0.62554 0.04186 0.88416 0.0
C2208 C 0.59641 0.04844 0.89099 0.0
C2209 C 0.58312 0.03882 0.84942 0.0
C2210 C 0.59124 0.0652 0.88974 0.0
C2211 C 0.58437 0.07345 0.90501 0.0
C2212 C 0.58276 0.0651 0.92175 0.0
C2213 C 0.58696 0.04781 0.92247 0.0
C2214 C 0.59372 0.03953 0.90717 0.0
H2215 H 0.57981 0.03043 0.83536 0.0
H2216 H 0.57359 0.03339 0.85926 0.0
H2217 H 0.58127 0.05271 0.84722 0.0
H2218 H 0.59358 0.07243 0.87749 0.0
H2219 H 0.58093 0.08662 0.90398 0.0
H2220 H 0.29492 0.33309 0.07541 0.0
H2221 H 0.29053 0.32378 0.10676 0.0
H2222 H 0.28858 0.37849 0.12822 0.0
H2223 H 0.29275 0.38801 0.09643 0.0
H2224 H 0.31333 0.33589 0.13978 0.0
H2225 H 0.24548 0.34967 0.14903 0.0
H2226 H 0.25393 0.34889 0.1261 0.0
H2227 H 0.26156 0.36824 0.1435 0.0
C2228 C 0.29346 0.34323 0.08669 0.0
C2229 C 0.29433 0.36138 0.0833 0.0
C2230 C 0.29091 0.33782 0.10469 0.0
C2231 C 0.28913 0.35034 0.11995 0.0
C2232 C 0.28961 0.36847 0.11664 0.0
H2233 H 0.27315 0.32835 0.23815 0.0
H2234 H 0.27611 0.34305 0.20889 0.0
C2235 C 0.29207 0.37392 0.09845 0.0
C2236 C 0.28787 0.34428 0.13936 0.0
H2237 H 0.26029 0.33796 0.17436 0.0
C2238 C 0.30175 0.33643 0.14737 0.0
C2239 C 0.2729 0.34514 0.14946 0.0
C2240 C 0.25752 0.35332 0.1416 0.0
C2241 C 0.30107 0.32931 0.16497 0.0
C2242 C 0.2857 0.32936 0.17472 0.0
C2243 C 0.27202 0.3377 0.16696 0.0
C2244 C 0.28339 0.32036 0.19256 0.0
C2245 C 0.31711 0.32213 0.17295 0.0
C2246 C 0.28613 0.30256 0.19327 0.0
C2247 C 0.28509 0.29442 0.21013 0.0
C2248 C 0.28019 0.30334 0.22661 0.0
C2249 C 0.27677 0.32094 0.22574 0.0
C2250 C 0.27842 0.32936 0.20895 0.0
H2251 H 0.32959 0.32906 0.16797 0.0
H2252 H 0.31884 0.32382 0.18879 0.0
H2253 H 0.31541 0.30756 0.16777 0.0
H2254 H 0.28937 0.29495 0.18081 0.0
H2255 H 0.28858 0.28121 0.21025 0.0
H2256 H 0.23364 0.92233 0.99969 0.0
H2257 H 0.20729 0.93588 0.00329 0.0
H2258 H 0.24085 0.98875 0.01493 0.0
H2259 H 0.26736 0.97533 0.01159 0.0
H2260 H 0.21769 0.97853 0.0425 0.0
H2261 H 0.18201 0.96763 0.96891 0.0
H2262 H 0.19013 0.94847 0.97703 0.0
H2263 H 0.20579 0.9683 0.97384 0.0
C2264 C 0.23537 0.93686 0.00287 0.0
C2265 C 0.25244 0.94784 0.00548 0.0
C2266 C 0.22035 0.94455 0.00468 0.0
C2267 C 0.22227 0.96326 0.00891 0.0
C2268 C 0.23926 0.97428 0.01139 0.0
H2269 H 0.14309 0.02664 0.03544 0.0
H2270 H 0.1661 0.01479 0.01934 0.0
C2271 C 0.25431 0.9666 0.00967 0.0
C2272 C 0.20675 0.97102 0.01307 0.0
H2273 H 0.16541 0.97588 0.99418 0.0
C2274 C 0.20634 0.97819 0.03192 0.0
C2275 C 0.19213 0.97045 0.99909 0.0
C2276 C 0.1925 0.96344 0.97852 0.0
C2277 C 0.1913 0.98436 0.03738 0.0
C2278 C 0.17637 0.98309 0.02362 0.0
C2279 C 0.17693 0.97651 0.0046 0.0
C2280 C 0.16011 0.98852 0.02924 0.0
C2281 C 0.19126 0.99186 0.05789 0.0
C2282 C 0.14901 0.97731 0.03954 0.0
C2283 C 0.13589 0.98397 0.04876 0.0
C2284 C 0.13382 1.0019 0.04772 0.0
C2285 C 0.14432 0.01271 0.03636 0.0
C2286 C 0.15739 1.00601 0.02712 0.0
H2287 H 0.20477 0.99416 0.06608 0.0
H2288 H 0.18634 1.00482 0.05859 0.0
H2289 H 0.18206 0.98221 0.06491 0.0
H2290 H 0.15117 0.96377 0.04129 0.0
H2291 H 0.12774 0.97532 0.05714 0.0
H2292 H 0.72022 0.65014 0.03404 0.0
H2293 H 0.69273 0.62854 0.03664 0.0
H2294 H 0.68145 0.62041 0.9753 0.0
H2295 H 0.70879 0.64236 0.97273 0.0
H2296 H 0.65673 0.63189 0.0209 0.0
H2297 H 0.67674 0.56822 0.9931 0.0
H2298 H 0.69281 0.58848 0.00211 0.0
H2299 H 0.68074 0.58658 0.97877 0.0
C2300 C 0.71192 0.64358 0.02114 0.0
C2301 C 0.71654 0.64779 0.00319 0.0
C2302 C 0.69624 0.6313 0.02263 0.0
C2303 C 0.68513 0.62275 0.00617 0.0
C2304 C 0.68993 0.62672 0.98818 0.0
H2305 H 0.57351 0.5706 0.99368 0.0
H2306 H 0.60265 0.58911 0.99112 0.0
C2307 C 0.70547 0.63926 0.9867 0.0
C2308 C 0.66807 0.61039 0.00786 0.0
H2309 H 0.64626 0.56647 0.99812 0.0
C2310 C 0.65445 0.61759 0.01595 0.0
C2311 C 0.66521 0.59169 1.00163 0.0
C2312 C 0.67966 0.58316 0.99354 0.0
C2313 C 0.63788 0.60666 0.01756 0.0
C2314 C 0.63481 0.58807 0.01078 0.0
C2315 C 0.64859 0.58076 0.00312 0.0
C2316 C 0.61733 0.57608 0.01153 0.0
C2317 C 0.62382 0.61505 0.02667 0.0
C2318 C 0.61597 0.56226 0.02348 0.0
C2319 C 0.5993 0.55164 0.02499 0.0
C2320 C 0.58369 0.55451 0.01443 0.0
C2321 C 0.58523 0.56803 0.00204 0.0
C2322 C 0.60187 0.57868 1.00061 0.0
H2323 H 0.62954 0.62844 0.0348 0.0
H2324 H 0.61343 0.61694 0.01538 0.0
H2325 H 0.61719 0.6061 0.03645 0.0
H2326 H 0.62774 0.56004 0.03203 0.0
H2327 H 0.59861 0.54154 0.03487 0.0
H2328 H 0.65151 0.48576 0.30446 0.0
H2329 H 0.66811 0.46091 0.30241 0.0
H2330 H 0.6953 0.48405 0.25741 0.0
H2331 H 0.67972 0.50953 0.26051 0.0
H2332 H 0.66951 0.43544 0.27742 0.0
H2333 H 0.73767 0.47647 0.28881 0.0
H2334 H 0.71822 0.48635 0.29188 0.0
H2335 H 0.72529 0.48258 0.26849 0.0
C2336 C 0.66106 0.4855 0.29415 0.0
C2337 C 0.66442 0.49959 0.2827 0.0
C2338 C 0.6706 0.47133 0.29302 0.0
C2339 C 0.68345 0.47077 0.28014 0.0
C2340 C 0.68613 0.48448 0.26807 0.0
H2341 H 0.7343 0.38961 0.22994 0.0
H2342 H 0.72245 0.41668 0.23973 0.0
C2343 C 0.67701 0.49892 0.26963 0.0
C2344 C 0.69352 0.45557 0.27884 0.0
H2345 H 0.73509 0.44564 0.27496 0.0
C2346 C 0.68389 0.43775 0.27722 0.0
C2347 C 0.71238 0.45841 0.27879 0.0
C2348 C 0.72397 0.477 0.28231 0.0
C2349 C 0.69241 0.42285 0.27471 0.0
C2350 C 0.71102 0.42577 0.27357 0.0
C2351 C 0.72078 0.44348 0.2757 0.0
C2352 C 0.72023 0.41058 0.26869 0.0
C2353 C 0.6814 0.40401 0.27269 0.0
C2354 C 0.72343 0.39852 0.28194 0.0
C2355 C 0.73045 0.38317 0.27642 0.0
C2356 C 0.73418 0.37968 0.25756 0.0
C2357 C 0.7316 0.39213 0.24458 0.0
C2358 C 0.72482 0.40752 0.25014 0.0
H2359 H 0.66683 0.40403 0.27206 0.0
H2360 H 0.68396 0.39606 0.2596 0.0
H2361 H 0.68539 0.39708 0.28508 0.0
H2362 H 0.72001 0.4007 0.29634 0.0
H2363 H 0.73217 0.37363 0.28658 0.0
H2364 H 0.86063 0.42047 0.5185 0.0
H2365 H 0.8897 0.44087 0.52329 0.0
H2366 H 0.86561 0.48239 0.49931 0.0
H2367 H 0.8364 0.4623 0.49511 0.0
H2368 H 0.90607 0.45501 0.49374 0.0
H2369 H 0.89567 0.50991 0.54713 0.0
H2370 H 0.88055 0.48837 0.54245 0.0
H2371 H 0.87984 0.50495 0.52602 0.0
C2372 C 0.86156 0.43401 0.51444 0.0
C2373 C 0.84643 0.4399 0.50647 0.0
C2374 C 0.87806 0.44562 0.51725 0.0
C2375 C 0.8796 0.46313 0.51189 0.0
C2376 C 0.8645 0.46908 0.50399 0.0
H2377 H 0.97749 0.54135 0.51021 0.0
H2378 H 0.94584 0.52761 0.5087 0.0
C2379 C 0.84793 0.45757 0.50149 0.0
C2380 C 0.89736 0.47448 0.51308 0.0
H2381 H 0.92366 0.51352 0.53495 0.0
C2382 C 0.90994 0.46781 0.50274 0.0
C2383 C 0.90207 0.49132 0.52451 0.0
C2384 C 0.88888 0.49905 0.53578 0.0
C2385 C 0.92742 0.4773 0.50393 0.0
C2386 C 0.93241 0.49367 0.51614 0.0
C2387 C 0.91967 0.5008 0.52584 0.0
C2388 C 0.95105 0.50305 0.51952 0.0
C2389 C 0.94035 0.46964 0.49216 0.0
C2390 C 0.96416 0.49397 0.52681 0.0
C2391 C 0.9821 0.50145 0.52713 0.0
C2392 C 0.98714 0.51844 0.52091 0.0
C2393 C 0.97394 0.52818 0.51504 0.0
C2394 C 0.95592 0.52043 0.51424 0.0
H2395 H 0.93323 0.46048 0.4795 0.0
H2396 H 0.94996 0.48051 0.48721 0.0
H2397 H 0.94803 0.46162 0.50099 0.0
H2398 H 0.96051 0.48066 0.5313 0.0
H2399 H 0.9919 0.49347 0.53129 0.0
H2400 H 0.38605 0.07846 0.32132 0.0
H2401 H 0.37083 0.10409 0.3195 0.0
H2402 H 0.33703 0.07601 0.26932 0.0
H2403 H 0.35156 0.04997 0.27177 0.0
H2404 H 0.37221 0.12366 0.29183 0.0
H2405 H 0.30103 0.09689 0.29657 0.0
H2406 H 0.31844 0.08458 0.3031 0.0
H2407 H 0.30906 0.08325 0.27854 0.0
C2408 C 0.37521 0.07774 0.31007 0.0
C2409 C 0.36996 0.06247 0.29657 0.0
C2410 C 0.36645 0.09225 0.30915 0.0
C2411 C 0.3526 0.09175 0.29452 0.0
C2412 C 0.34725 0.07638 0.28113 0.0
H2413 H 0.31509 0.16382 0.22622 0.0
H2414 H 0.32344 0.13851 0.24197 0.0
C2415 C 0.35572 0.06167 0.28233 0.0
C2416 C 0.34559 0.10819 0.29153 0.0
H2417 H 0.30718 0.12332 0.27913 0.0
C2418 C 0.35799 0.12374 0.28957 0.0
C2419 C 0.32705 0.10821 0.28868 0.0
C2420 C 0.31318 0.09236 0.29205 0.0
C2421 C 0.35231 0.13898 0.28355 0.0
C2422 C 0.33385 0.13846 0.2793 0.0
C2423 C 0.32137 0.12338 0.28224 0.0
C2424 C 0.32753 0.15304 0.27033 0.0
C2425 C 0.36603 0.15523 0.28081 0.0
C2426 C 0.32729 0.16931 0.28127 0.0
C2427 C 0.32278 0.1837 0.27236 0.0
C2428 C 0.31849 0.18189 0.25245 0.0
C2429 C 0.31868 0.16552 0.24154 0.0
C2430 C 0.32315 0.15109 0.25049 0.0
H2431 H 0.37996 0.15297 0.28371 0.0
H2432 H 0.36392 0.15867 0.26598 0.0
H2433 H 0.36441 0.16703 0.29058 0.0
H2434 H 0.33082 0.17091 0.2966 0.0
H2435 H 0.32264 0.19627 0.28099 0.0
H2436 H 0.33213 0.16896 0.50548 0.0
H2437 H 0.35751 0.15329 0.50708 0.0
H2438 H 0.3269 0.11091 0.53345 0.0
H2439 H 0.30126 0.12615 0.53118 0.0
H2440 H 0.37711 0.14492 0.53614 0.0
H2441 H 0.34421 0.08106 0.49241 0.0
H2442 H 0.33401 0.10079 0.49398 0.0
H2443 H 0.33263 0.08603 0.51249 0.0
C2444 C 0.33081 0.15631 0.51164 0.0
C2445 C 0.31467 0.14877 0.51816 0.0
C2446 C 0.34532 0.14732 0.51248 0.0
C2447 C 0.34403 0.13066 0.51996 0.0
C2448 C 0.32807 0.1234 0.52701 0.0
H2449 H 0.42072 0.06347 0.55114 0.0
H2450 H 0.39346 0.07589 0.54429 0.0
C2451 C 0.31348 0.13225 0.52592 0.0
C2452 C 0.35962 0.12131 0.52108 0.0
H2453 H 0.37254 0.08096 0.50987 0.0
C2454 C 0.37612 0.13098 0.53023 0.0
C2455 C 0.35837 0.10309 0.51337 0.0
C2456 C 0.34139 0.0922 0.50235 0.0
C2457 C 0.39125 0.1229 0.53227 0.0
C2458 C 0.38993 0.10464 0.5248 0.0
C2459 C 0.37349 0.09493 0.51561 0.0
C2460 C 0.40552 0.09545 0.52673 0.0
C2461 C 0.40843 0.13387 0.54282 0.0
C2462 C 0.42106 0.10182 0.5185 0.0
C2463 C 0.43657 0.09483 0.52249 0.0
C2464 C 0.43667 0.08112 0.53445 0.0
C2465 C 0.42083 0.07391 0.54169 0.0
C2466 C 0.40533 0.08104 0.53785 0.0
H2467 H 0.40614 0.14613 0.55141 0.0
H2468 H 0.41508 0.12569 0.55245 0.0
H2469 H 0.4177 0.1383 0.53236 0.0
H2470 H 0.42139 0.11268 0.50957 0.0
H2471 H 0.4487 0.10059 0.51683 0.0
H2472 H 0.66175 0.61342 0.32261 0.0
H2473 H 0.68422 0.64038 0.31976 0.0
H2474 H 0.69444 0.61608 0.26545 0.0
H2475 H 0.67245 0.58891 0.26852 0.0
H2476 H 0.72567 0.63913 0.30649 0.0
H2477 H 0.67664 0.67055 0.26411 0.0
H2478 H 0.66967 0.65506 0.281 0.0
H2479 H 0.67657 0.64674 0.25897 0.0
C2480 C 0.66889 0.61382 0.31015 0.0
C2481 C 0.6654 0.59909 0.29581 0.0
C2482 C 0.68173 0.62917 0.30855 0.0
C2483 C 0.69098 0.63022 0.29239 0.0
C2484 C 0.68756 0.61549 0.27809 0.0
H2485 H 0.7745 0.71502 0.26187 0.0
H2486 H 0.75569 0.68568 0.26471 0.0
C2487 C 0.67502 0.59999 0.27988 0.0
C2488 C 0.7037 0.64697 0.29012 0.0
H2489 H 0.70624 0.68679 0.27058 0.0
C2490 C 0.72149 0.64952 0.29856 0.0
C2491 C 0.69817 0.66049 0.2798 0.0
C2492 C 0.67922 0.65826 0.27043 0.0
C2493 C 0.73386 0.66535 0.29702 0.0
C2494 C 0.72827 0.67893 0.28683 0.0
C2495 C 0.7105 0.67632 0.27833 0.0
C2496 C 0.74041 0.69638 0.28568 0.0
C2497 C 0.75272 0.66777 0.30666 0.0
C2498 C 0.73811 0.71206 0.29658 0.0
C2499 C 0.74884 0.72874 0.29507 0.0
C2500 C 0.76207 0.73018 0.2825 0.0
C2501 C 0.76456 0.71437 0.2718 0.0
C2502 C 0.7538 0.69762 0.27336 0.0
H2503 H 0.75473 0.65642 0.31496 0.0
H2504 H 0.76221 0.66873 0.29575 0.0
H2505 H 0.75603 0.68058 0.3164 0.0
H2506 H 0.72789 0.71141 0.30618 0.0
H2507 H 0.74657 0.74057 0.30361 0.0
H2508 H 0.90038 0.45224 0.78626 0.0
H2509 H 0.87987 0.42325 0.77836 0.0
H2510 H 0.83646 0.44766 0.79643 0.0
H2511 H 0.8568 0.47686 0.80381 0.0
H2512 H 0.86167 0.40631 0.80535 0.0
H2513 H 0.81434 0.41867 0.74544 0.0
H2514 H 0.83566 0.43346 0.75294 0.0
H2515 H 0.81719 0.43443 0.7666 0.0
C2516 C 0.88646 0.4514 0.78848 0.0
C2517 C 0.8801 0.46662 0.7957 0.0
C2518 C 0.87477 0.43496 0.78381 0.0
C2519 C 0.85669 0.43356 0.78652 0.0
C2520 C 0.8503 0.44872 0.79376 0.0
H2521 H 0.77355 0.34032 0.785 0.0
H2522 H 0.78948 0.3711 0.78324 0.0
C2523 C 0.86192 0.46525 0.79815 0.0
C2524 C 0.84508 0.41576 0.78366 0.0
H2525 H 0.80767 0.39046 0.75772 0.0
C2526 C 0.84991 0.40277 0.79487 0.0
C2527 C 0.82962 0.41153 0.77025 0.0
C2528 C 0.82392 0.4252 0.758 0.0
C2529 C 0.83971 0.38544 0.79299 0.0
C2530 C 0.82459 0.38093 0.77906 0.0
C2531 C 0.81948 0.39402 0.76811 0.0
C2532 C 0.81388 0.36267 0.7761 0.0
C2533 C 0.84507 0.37231 0.80624 0.0
C2534 C 0.82219 0.34796 0.77195 0.0
C2535 C 0.81347 0.33068 0.77387 0.0
C2536 C 0.79594 0.32777 0.7785 0.0
C2537 C 0.78706 0.34234 0.7811 0.0
C2538 C 0.79604 0.35981 0.77996 0.0
H2539 H 0.85339 0.37943 0.81942 0.0
H2540 H 0.83318 0.36354 0.81042 0.0
H2541 H 0.85318 0.36361 0.79891 0.0
H2542 H 0.83595 0.35 0.76883 0.0
H2543 H 0.821 0.31998 0.77335 0.0
H2544 H 0.05124 0.83083 0.06818 0.0
H2545 H 0.04794 0.85968 0.05606 0.0
H2546 H 0.0636 0.88737 0.11268 0.0
H2547 H 0.06651 0.85863 0.12487 0.0
H2548 H 0.02529 0.88641 0.0679 0.0
H2549 H 0.09734 0.91738 0.07923 0.0
H2550 H 0.08952 0.89329 0.07784 0.0
H2551 H 0.08847 0.90757 0.09926 0.0
C2552 C 0.05415 0.84304 0.07809 0.0
C2553 C 0.05935 0.84207 0.09763 0.0
C2554 C 0.05214 0.85969 0.0711 0.0
C2555 C 0.05563 0.87618 0.08325 0.0
C2556 C 0.06095 0.8752 0.10272 0.0
H2557 H 0.05928 0.99275 0.07043 0.0
H2558 H 0.062 0.96333 0.08102 0.0
C2559 C 0.06263 0.85856 0.10975 0.0
C2560 C 0.05366 0.89426 0.0758 0.0
H2561 H 0.07729 0.93638 0.07052 0.0
C2562 C 0.03673 0.89725 0.06839 0.0
C2563 C 0.06835 0.90883 0.07638 0.0
C2564 C 0.087 0.9067 0.08345 0.0
C2565 C 0.03411 0.9141 0.06216 0.0
C2566 C 0.04887 0.9287 0.06262 0.0
C2567 C 0.06579 0.9256 0.06997 0.0
C2568 C 0.0471 0.94715 0.0558 0.0
C2569 C 0.01525 0.91622 0.05585 0.0
C2570 C 0.03817 0.94867 0.03773 0.0
C2571 C 0.03669 0.9657 0.03154 0.0
C2572 C 0.04398 0.98216 0.04309 0.0
C2573 C 0.05326 0.98066 0.06098 0.0
C2574 C 0.05484 0.96361 0.06713 0.0
H2575 H 1.00527 0.90662 0.06206 0.0
H2576 H 0.01321 0.93015 0.06002 0.0
H2577 H 0.01257 0.9133 0.04009 0.0
H2578 H 0.03253 0.93661 0.0281 0.0
H2579 H 0.02996 0.9659 0.01746 0.0
H2580 H 0.97084 0.2853 0.89024 0.0
H2581 H 0.94431 0.2868 0.86829 0.0
H2582 H 0.91118 0.25321 0.90184 0.0
H2583 H 0.93738 0.25291 0.92442 0.0
H2584 H 0.92047 0.2663 0.84479 0.0
H2585 H 0.88219 0.29033 0.90083 0.0
H2586 H 0.90523 0.28834 0.90599 0.0
H2587 H 0.88754 0.26888 0.90501 0.0
C2588 C 0.95788 0.2782 0.89289 0.0
C2589 C 0.95632 0.26911 0.90927 0.0
C2590 C 0.94259 0.2791 0.8803 0.0
C2591 C 0.92527 0.27069 0.88351 0.0
C2592 C 0.92399 0.26067 0.89927 0.0
H2593 H 0.81595 0.2582 0.82452 0.0
H2594 H 0.84315 0.25603 0.84486 0.0
C2595 C 0.93914 0.26024 0.91213 0.0
C2596 C 0.9087 0.27231 0.87047 0.0
H2597 H 0.86581 0.28039 0.87026 0.0
C2598 C 0.90862 0.26953 0.85048 0.0
C2599 C 0.89295 0.27663 0.87748 0.0
C2600 C 0.89203 0.2814 0.89848 0.0
C2601 C 0.89345 0.27042 0.83763 0.0
C2602 C 0.87763 0.27434 0.8447 0.0
C2603 C 0.87771 0.27721 0.86463 0.0
C2604 C 0.86091 0.27559 0.83184 0.0
C2605 C 0.89444 0.26669 0.81651 0.0
C2606 C 0.86139 0.28748 0.81768 0.0
C2607 C 0.84575 0.28875 0.80597 0.0
C2608 C 0.82896 0.27833 0.8081 0.0
C2609 C 0.82848 0.26654 0.82238 0.0
C2610 C 0.84414 0.26526 0.83408 0.0
H2611 H 0.90503 0.25883 0.81358 0.0
H2612 H 0.88147 0.25916 0.80896 0.0
H2613 H 0.89774 0.27971 0.81049 0.0
H2614 H 0.87387 0.29606 0.81582 0.0
H2615 H 0.84681 0.29816 0.79537 0.0
H2616 H 0.52889 0.23534 0.59359 0.0
H2617 H 0.5241 0.20227 0.58505 0.0
H2618 H 0.58022 0.20617 0.57989 0.0
H2619 H 0.58494 0.239 0.58776 0.0
H2620 H 0.53581 0.18249 0.54828 0.0
H2621 H 0.56595 0.16517 0.61693 0.0
H2622 H 0.55679 0.18546 0.61527 0.0
H2623 H 0.57806 0.18414 0.60717 0.0
C2624 C 0.54024 0.22914 0.59082 0.0
C2625 C 0.55734 0.24007 0.59145 0.0
C2626 C 0.53748 0.21015 0.5858 0.0
C2627 C 0.55179 0.2014 0.58179 0.0
C2628 C 0.56888 0.21229 0.58289 0.0
H2629 H 0.56859 0.08927 0.55677 0.0
H2630 H 0.57148 0.12181 0.56584 0.0
C2631 C 0.57156 0.23121 0.58742 0.0
C2632 C 0.54907 0.18111 0.57609 0.0
H2633 H 0.55873 0.14177 0.59137 0.0
C2634 C 0.54067 0.17359 0.5578 0.0
C2635 C 0.55561 0.16926 0.5882 0.0
C2636 C 0.56453 0.17627 0.60806 0.0
C2637 C 0.53899 0.15494 0.55127 0.0
C2638 C 0.54537 0.14296 0.56347 0.0
C2639 C 0.55372 0.15057 0.58181 0.0
C2640 C 0.54367 0.12271 0.5575 0.0
C2641 C 0.53103 0.1485 0.53093 0.0
C2642 C 0.52715 0.11171 0.54978 0.0
C2643 C 0.5257 0.09304 0.54411 0.0
C2644 C 0.54055 0.08438 0.54631 0.0
C2645 C 0.55697 0.09529 0.55433 0.0
C2646 C 0.55853 0.11404 0.55982 0.0
H2647 H 0.53229 0.15974 0.52187 0.0
H2648 H 0.53759 0.13779 0.52454 0.0
H2649 H 0.51657 0.14293 0.53066 0.0
H2650 H 0.51521 0.1175 0.54818 0.0
H2651 H 0.51286 0.08538 0.53766 0.0
H2652 H 0.54212 0.76245 0.37856 0.0
H2653 H 0.56899 0.76413 0.36212 0.0
H2654 H 0.60202 0.78078 0.41588 0.0
H2655 H 0.57516 0.77915 0.43245 0.0
H2656 H 0.5963 0.79442 0.36124 0.0
H2657 H 0.62389 0.73916 0.39211 0.0
H2658 H 0.601 0.74183 0.39326 0.0
H2659 H 0.61872 0.75575 0.40948 0.0
C2660 C 0.55509 0.76629 0.38696 0.0
C2661 C 0.55642 0.77054 0.4069 0.0
C2662 C 0.57048 0.76731 0.37749 0.0
C2663 C 0.58762 0.77237 0.38771 0.0
C2664 C 0.589 0.77653 0.40765 0.0
H2665 H 0.69742 0.79513 0.36488 0.0
H2666 H 0.66886 0.78781 0.37763 0.0
C2667 C 0.5736 0.77566 0.41712 0.0
C2668 C 0.60399 0.77387 0.37748 0.0
H2669 H 0.64298 0.758 0.37464 0.0
C2670 C 0.60644 0.78634 0.36404 0.0
C2671 C 0.61724 0.76333 0.38104 0.0
C2672 C 0.61508 0.74914 0.39462 0.0
C2673 C 0.62201 0.78904 0.35468 0.0
C2674 C 0.63543 0.77868 0.35847 0.0
C2675 C 0.63277 0.76595 0.37163 0.0
C2676 C 0.65287 0.78181 0.35011 0.0
C2677 C 0.62425 0.80352 0.34143 0.0
C2678 C 0.65369 0.78034 0.33024 0.0
C2679 C 0.67018 0.78464 0.32283 0.0
C2680 C 0.68621 0.7905 0.33513 0.0
C2681 C 0.68536 0.79102 0.35494 0.0
C2682 C 0.66898 0.78674 0.3623 0.0
H2683 H 0.61492 0.81304 0.34355 0.0
H2684 H 0.63815 0.81135 0.34356 0.0
H2685 H 0.62142 0.79712 0.32644 0.0
H2686 H 0.64155 0.77613 0.32045 0.0
H2687 H 0.67028 0.78403 0.30752 0.0
H2688 H 0.01374 0.25597 0.40065 0.0
H2689 H 0.01423 0.22767 0.41418 0.0
H2690 H 0.06856 0.22947 0.40176 0.0
H2691 H 0.06815 0.25829 0.3882 0.0
H2692 H 0.01967 0.1944 0.40038 0.0
H2693 H 0.07267 0.2257 0.45938 0.0
H2694 H 0.06135 0.23899 0.44418 0.0
H2695 H 0.07839 0.22786 0.43559 0.0
C2696 C 0.02574 0.25022 0.40048 0.0
C2697 C 0.04092 0.25942 0.39335 0.0
C2698 C 0.02601 0.23401 0.40829 0.0
C2699 C 0.04153 0.22651 0.40942 0.0
C2700 C 0.05651 0.23514 0.40142 0.0
H2701 H 0.04591 0.12108 0.44906 0.0
H2702 H 0.05249 0.14909 0.43414 0.0
C2703 C 0.0562 0.25146 0.3934 0.0
C2704 C 0.04175 0.21003 0.41953 0.0
H2705 H 0.06035 0.19485 0.45947 0.0
C2706 C 0.0287 0.19449 0.41318 0.0
C2707 C 0.05333 0.21012 0.43646 0.0
C2708 C 0.06716 0.22657 0.44447 0.0
C2709 C 0.02688 0.17923 0.42325 0.0
C2710 C 0.03836 0.17938 0.44019 0.0
C2711 C 0.05155 0.19476 0.44649 0.0
C2712 C 0.03663 0.16354 0.45137 0.0
C2713 C 0.01245 0.16305 0.41596 0.0
C2714 C 0.026 0.16253 0.4665 0.0
C2715 C 0.02236 0.14654 0.47521 0.0
C2716 C 0.02929 0.1313 0.4689 0.0
C2717 C 0.04064 0.13271 0.45442 0.0
C2718 C 0.04432 0.14866 0.4458 0.0
H2719 H 1.00426 0.16519 0.40284 0.0
H2720 H 0.01861 0.15106 0.41278 0.0
H2721 H 1.00351 0.16002 0.42714 0.0
H2722 H 0.01981 0.1738 0.47094 0.0
H2723 H 0.01324 0.14571 0.48599 0.0
H2724 H 0.58689 0.29504 0.20703 0.0
H2725 H 0.61779 0.29556 0.22058 0.0
H2726 H 0.60605 0.23773 0.21966 0.0
H2727 H 0.57503 0.23728 0.20611 0.0
H2728 H 0.63493 0.28574 0.25255 0.0
H2729 H 0.64893 0.24314 0.18999 0.0
H2730 H 0.62878 0.25242 0.19008 0.0
H2731 H 0.63071 0.23264 0.2017 0.0
C2732 C 0.59067 0.28246 0.21032 0.0
C2733 C 0.57802 0.26619 0.20597 0.0
C2734 C 0.60856 0.28273 0.21792 0.0
C2735 C 0.61482 0.26667 0.22098 0.0
C2736 C 0.60203 0.2504 0.21725 0.0
H2737 H 0.72487 0.24601 0.2546 0.0
H2738 H 0.69249 0.2429 0.24554 0.0
C2739 C 0.58402 0.25016 0.20984 0.0
C2740 C 0.63461 0.2671 0.22762 0.0
H2741 H 0.67209 0.25118 0.21563 0.0
C2742 C 0.64296 0.27814 0.24439 0.0
C2743 C 0.64556 0.25729 0.21726 0.0
C2744 C 0.63815 0.24583 0.19867 0.0
C2745 C 0.66137 0.27942 0.25107 0.0
C2746 C 0.6724 0.26981 0.24057 0.0
C2747 C 0.66401 0.25863 0.2239 0.0
C2748 C 0.69255 0.27157 0.24637 0.0
C2749 C 0.66866 0.29081 0.26974 0.0
C2750 C 0.70402 0.2886 0.24984 0.0
C2751 C 0.7226 0.29035 0.25525 0.0
C2752 C 0.73077 0.27518 0.25716 0.0
C2753 C 0.71936 0.25808 0.25356 0.0
C2754 C 0.70066 0.2563 0.24818 0.0
H2755 H 0.65789 0.29217 0.27893 0.0
H2756 H 0.67905 0.28499 0.27775 0.0
H2757 H 0.67472 0.30457 0.26685 0.0
H2758 H 0.69866 0.30074 0.24821 0.0
H2759 H 0.73059 0.3038 0.25814 0.0
H2760 H 0.55844 0.87428 0.87239 0.0
H2761 H 0.55642 0.90218 0.89227 0.0
H2762 H 0.53362 0.87048 0.93429 0.0
H2763 H 0.53633 0.8429 0.91504 0.0
H2764 H 0.53077 0.917 0.90507 0.0
H2765 H 0.57103 0.90353 0.96924 0.0
H2766 H 0.56926 0.88981 0.94668 0.0
H2767 H 0.55205 0.88575 0.96228 0.0
C2768 C 0.55303 0.87328 0.88589 0.0
C2769 C 0.54772 0.85621 0.89208 0.0
C2770 C 0.55188 0.8893 0.89733 0.0
C2771 C 0.54533 0.88875 0.91528 0.0
C2772 C 0.53939 0.87162 0.92102 0.0
H2773 H 0.51897 0.96681 0.00276 0.0
H2774 H 0.52234 0.94004 0.98223 0.0
C2775 C 0.54076 0.8557 0.90977 0.0
C2776 C 0.54438 0.90588 0.92781 0.0
H2777 H 0.55423 0.92705 0.97373 0.0
C2778 C 0.5361 0.91919 0.92002 0.0
C2779 C 0.55128 0.9091 0.94749 0.0
C2780 C 0.56156 0.89638 0.95685 0.0
C2781 C 0.53413 0.93509 0.93124 0.0
C2782 C 0.54069 0.93807 0.95093 0.0
C2783 C 0.54906 0.92486 0.95872 0.0
C2784 C 0.53893 0.95469 0.96368 0.0
C2785 C 0.52458 0.94841 0.922 0.0
C2786 C 0.54734 0.97208 0.96053 0.0
C2787 C 0.54576 0.98752 0.97258 0.0
C2788 C 0.53557 0.9861 0.98813 0.0
C2789 C 0.52719 0.96863 0.99124 0.0
C2790 C 0.52898 0.9532 0.97934 0.0
H2791 H 0.5168 0.9424 0.90812 0.0
H2792 H 0.51537 0.95344 0.9315 0.0
H2793 H 0.53459 0.96016 0.91936 0.0
H2794 H 0.55534 0.97375 0.9488 0.0
H2795 H 0.55257 1.0006 0.96969 0.0
H2796 H 0.95651 0.75845 0.67639 0.0
H2797 H 0.92801 0.76139 0.68825 0.0
H2798 H 0.94997 0.75466 0.74479 0.0
H2799 H 0.9787 0.75191 0.73293 0.0
H2800 H 0.90305 0.73993 0.70383 0.0
H2801 H 0.92886 0.7981 0.75868 0.0
H2802 H 0.94245 0.79067 0.74122 0.0
H2803 H 0.93908 0.77886 0.76182 0.0
C2804 C 0.9554 0.75751 0.69139 0.0
C2805 C 0.97033 0.75483 0.70352 0.0
C2806 C 0.93886 0.75925 0.69825 0.0
C2807 C 0.93633 0.75865 0.7177 0.0
C2808 C 0.95118 0.75571 0.72984 0.0
H2809 H 0.84497 0.77472 0.78427 0.0
H2810 H 0.87378 0.77072 0.77369 0.0
C2811 C 0.96778 0.75389 0.72294 0.0
C2812 C 0.91822 0.76071 0.72485 0.0
H2813 H 0.89837 0.78492 0.75764 0.0
C2814 C 0.90216 0.74984 0.71561 0.0
C2815 C 0.91641 0.77343 0.74039 0.0
C2816 C 0.93257 0.78606 0.75103 0.0
C2817 C 0.88496 0.75092 0.72147 0.0
C2818 C 0.88302 0.764 0.73672 0.0
C2819 C 0.89917 0.77486 0.74598 0.0
C2820 C 0.86473 0.76652 0.74336 0.0
C2821 C 0.8692 0.73723 0.71155 0.0
C2822 C 0.84927 0.76601 0.73035 0.0
C2823 C 0.83244 0.76772 0.73653 0.0
C2824 C 0.83023 0.7708 0.75607 0.0
C2825 C 0.84578 0.77219 0.76912 0.0
C2826 C 0.86252 0.76996 0.76294 0.0
H2827 H 0.87343 0.72468 0.7058 0.0
H2828 H 0.859 0.7335 0.7213 0.0
H2829 H 0.86301 0.74289 0.69924 0.0
H2830 H 0.85009 0.76451 0.71517 0.0
H2831 H 0.82113 0.76698 0.72584 0.0
H2832 H 0.11416 0.06599 0.83761 0.0
H2833 H 0.10067 0.06362 0.86759 0.0
H2834 H 0.1202 0.01421 0.87404 0.0
H2835 H 0.13478 0.01742 0.84499 0.0
H2836 H 0.07548 0.04047 0.87769 0.0
H2837 H 0.13575 0.03707 0.9262 0.0
H2838 H 0.13714 0.04258 0.90215 0.0
H2839 H 0.13131 0.01939 0.90678 0.0
C2840 C 0.11583 0.05485 0.8457 0.0
C2841 C 0.12583 0.04211 0.83923 0.0
C2842 C 0.10805 0.05341 0.8628 0.0
C2843 C 0.10972 0.03896 0.87358 0.0
C2844 C 0.1193 0.02595 0.86667 0.0
H2845 H 0.0702 1.00689 0.98019 0.0
H2846 H 0.08354 0.00834 0.95004 0.0
C2847 C 0.12755 0.02771 0.84994 0.0
C2848 C 0.10083 0.03715 0.89151 0.0
H2849 H 0.10794 0.03032 0.93851 0.0
C2850 C 0.08265 0.03836 0.89101 0.0
C2851 C 0.10999 0.03419 0.909 0.0
C2852 C 0.12966 0.03341 0.91114 0.0
C2853 C 0.07337 0.03645 0.90717 0.0
C2854 C 0.08258 0.03367 0.92472 0.0
C2855 C 0.10074 0.03237 0.92519 0.0
C2856 C 0.07386 0.03237 0.94283 0.0
C2857 C 0.05363 0.03692 0.9049 0.0
C2858 C 0.06404 0.04538 0.94916 0.0
C2859 C 0.05589 0.04411 0.96597 0.0
C2860 C 0.05807 0.03035 0.97747 0.0
C2861 C 0.06836 0.01766 0.97163 0.0
C2862 C 0.07599 0.01854 0.95438 0.0
H2863 H 0.04756 0.03263 0.88991 0.0
H2864 H 0.04626 0.02807 0.91426 0.0
H2865 H 0.05176 0.05098 0.90858 0.0
H2866 H 0.06279 0.0567 0.94124 0.0
H2867 H 0.04827 0.05427 0.97031 0.0
H2868 H 0.7579 0.38266 0.53997 0.0
H2869 H 0.75581 0.3722 0.57153 0.0
H2870 H 0.80747 0.40532 0.59181 0.0
H2871 H 0.80902 0.41636 0.56069 0.0
H2872 H 0.77884 0.35264 0.58199 0.0
H2873 H 0.78441 0.40826 0.63966 0.0
H2874 H 0.77798 0.41084 0.615 0.0
H2875 H 0.80127 0.41373 0.62421 0.0
C2876 C 0.76832 0.38828 0.55154 0.0
C2877 C 0.78354 0.40029 0.54824 0.0
C2878 C 0.76715 0.38235 0.56948 0.0
C2879 C 0.78141 0.38809 0.58409 0.0
C2880 C 0.79606 0.40112 0.58103 0.0
H2881 H 0.84166 0.3428 0.66456 0.0
H2882 H 0.82824 0.36033 0.64162 0.0
C2883 C 0.79704 0.4073 0.56322 0.0
C2884 C 0.78301 0.37768 0.60054 0.0
H2885 H 0.79739 0.38224 0.64814 0.0
C2886 C 0.78233 0.35904 0.59655 0.0
C2887 C 0.78775 0.38607 0.61948 0.0
C2888 C 0.78771 0.40581 0.62482 0.0
C2889 C 0.78742 0.34877 0.61076 0.0
C2890 C 0.79324 0.3574 0.62939 0.0
C2891 C 0.79302 0.3758 0.63371 0.0
C2892 C 0.80099 0.34771 0.64405 0.0
C2893 C 0.78759 0.32901 0.60559 0.0
C2894 C 0.78998 0.33492 0.65279 0.0
C2895 C 0.79758 0.32493 0.66578 0.0
C2896 C 0.81627 0.32757 0.67003 0.0
C2897 C 0.82724 0.34042 0.66126 0.0
C2898 C 0.81962 0.35052 0.6484 0.0
H2899 H 0.78416 0.32475 0.59003 0.0
H2900 H 0.801 0.32606 0.61009 0.0
H2901 H 0.77777 0.32075 0.61328 0.0
H2902 H 0.77557 0.33257 0.64942 0.0
H2903 H 0.7889 0.31504 0.6724 0.0
H2904 H 0.42577 0.99805 0.33781 0.0
H2905 H 0.44279 0.99578 0.36808 0.0
H2906 H 0.4159 0.03444 0.3964 0.0
H2907 H 0.39805 0.03592 0.36617 0.0
H2908 H 0.46519 0.02576 0.38398 0.0
H2909 H 0.42012 1.0003 0.43625 0.0
H2910 H 0.41308 0.99752 0.41089 0.0
H2911 H 0.41358 0.01871 0.42494 0.0
C2912 C 0.42308 1.00556 0.35063 0.0
C2913 C 0.41084 0.01725 0.34987 0.0
C2914 C 0.43273 1.00422 0.36786 0.0
C2915 C 0.43053 0.01492 0.38437 0.0
C2916 C 0.41746 0.02578 0.38386 0.0
H2917 H 0.49756 0.05169 0.49018 0.0
H2918 H 0.47513 0.04781 0.46229 0.0
C2919 C 0.40741 0.02673 0.36664 0.0
C2920 C 0.44401 0.0171 0.40098 0.0
H2921 H 0.44996 0.01468 0.44879 0.0
C2922 C 0.46189 0.02314 0.39812 0.0
C2923 C 0.43951 0.01394 0.41936 0.0
C2924 C 0.42054 1.00711 0.42304 0.0
C2925 C 0.47551 0.02616 0.41325 0.0
C2926 C 0.47101 0.02295 0.43158 0.0
C2927 C 0.45317 0.01706 0.43456 0.0
C2928 C 0.48474 0.02555 0.44789 0.0
C2929 C 0.49452 0.03302 0.40961 0.0
C2930 C 0.49744 0.01434 0.44865 0.0
C2931 C 0.51024 0.01656 0.4644 0.0
C2932 C 0.51021 0.02984 0.47958 0.0
C2933 C 0.49765 0.04124 0.47865 0.0
C2934 C 0.4849 0.03906 0.46285 0.0
H2935 H 0.4951 0.03867 0.39573 0.0
H2936 H 0.50147 0.04359 0.42116 0.0
H2937 H 0.50194 0.02168 0.40928 0.0
H2938 H 0.49724 1.00372 0.4372 0.0
H2939 H 0.51976 1.00754 0.465 0.0
H2940 H 0.74326 0.69753 0.06603 0.0
H2941 H 0.74746 0.7082 0.1002 0.0
H2942 H 0.80417 0.70977 0.10146 0.0
H2943 H 0.79993 0.69854 0.06717 0.0
H2944 H 0.76724 0.6927 0.13336 0.0
H2945 H 0.79481 0.76321 0.12094 0.0
H2946 H 0.78122 0.74717 0.10241 0.0
H2947 H 0.80386 0.74513 0.10945 0.0
C2948 C 0.75661 0.69995 0.07365 0.0
C2949 C 0.77127 0.69724 0.06395 0.0
C2950 C 0.75898 0.70603 0.09316 0.0
C2951 C 0.77613 0.70995 0.10336 0.0
C2952 C 0.79082 0.70688 0.09385 0.0
H2953 H 0.80988 0.76555 0.21893 0.0
H2954 H 0.80907 0.75177 0.18603 0.0
C2955 C 0.78839 0.70039 0.07431 0.0
C2956 C 0.7785 0.71786 0.12373 0.0
H2957 H 0.79141 0.75783 0.15264 0.0
C2958 C 0.77261 0.70691 0.13762 0.0
C2959 C 0.78551 0.7364 0.12926 0.0
C2960 C 0.79167 0.7488 0.11481 0.0
C2961 C 0.77357 0.71399 0.15689 0.0
C2962 C 0.78013 0.73268 0.16238 0.0
C2963 C 0.7863 0.74355 0.14849 0.0
C2964 C 0.78059 0.74119 0.18239 0.0
C2965 C 0.7678 0.70131 0.17124 0.0
C2966 C 0.76486 0.7402 0.19132 0.0
C2967 C 0.76543 0.74782 0.21025 0.0
C2968 C 0.78164 0.75679 0.22062 0.0
C2969 C 0.79726 0.75828 0.21148 0.0
C2970 C 0.79677 0.75058 0.1926 0.0
H2971 H 0.76815 0.6871 0.166 0.0
H2972 H 0.77646 0.70506 0.18506 0.0
H2973 H 0.75384 0.70202 0.17379 0.0
H2974 H 0.75212 0.73342 0.1837 0.0
H2975 H 0.75331 0.74621 0.21691 0.0
H2976 H 0.08331 0.04014 0.73982 0.0
H2977 H 0.07308 0.03729 0.70582 0.0
H2978 H 0.12698 0.03711 0.69288 0.0
H2979 H 0.13727 0.03944 0.72714 0.0
H2980 H 0.08235 0.06115 0.68139 0.0
H2981 H 0.10005 0.99598 0.65502 0.0
H2982 H 0.1003 1.00301 0.68012 0.0
H2983 H 0.11846 0.01226 0.66751 0.0
C2984 C 0.09301 0.03926 0.72978 0.0
C2985 C 0.11115 0.04005 0.7363 0.0
C2986 C 0.08711 0.03765 0.71026 0.0
C2987 C 0.09916 0.03687 0.6966 0.0
C2988 C 0.11728 0.03728 0.70301 0.0
H2989 H 0.08285 0.03178 0.57183 0.0
H2990 H 0.09528 0.03341 0.60522 0.0
C2991 C 0.12319 0.03868 0.72264 0.0
C2992 C 0.09269 0.03675 0.67591 0.0
H2993 H 0.08889 0.01284 0.63175 0.0
C2994 C 0.08377 0.05054 0.67056 0.0
C2995 C 0.09465 0.02306 0.66162 0.0
C2996 C 0.10375 1.00764 0.66632 0.0
C2997 C 0.07686 0.05112 0.65151 0.0
C2998 C 0.0784 0.03718 0.63726 0.0
C2999 C 0.08756 0.02351 0.64256 0.0
C3000 C 0.07071 0.03655 0.61683 0.0
C3001 C 0.0684 0.06698 0.64687 0.0
C3002 C 0.05265 0.03765 0.61195 0.0
C3003 C 0.0456 0.03706 0.59281 0.0
C3004 C 0.05629 0.03486 0.57803 0.0
C3005 C 0.07423 0.03346 0.58287 0.0
C3006 C 0.08136 0.03436 0.602 0.0
H3007 H 0.07356 0.07898 0.65751 0.0
H3008 H 0.07089 0.07077 0.63249 0.0
H3009 H 0.05374 0.0634 0.64727 0.0
H3010 H 0.04388 0.03871 0.62293 0.0
H3011 H 0.03165 0.03789 0.58957 0.0
H3012 H 0.81198 0.38819 0.4647 0.0
H3013 H 0.81343 0.36962 0.43506 0.0
H3014 H 0.78445 0.40357 0.40361 0.0
H3015 H 0.78364 0.42267 0.43324 0.0
H3016 H 0.7814 0.35197 0.41715 0.0
H3017 H 0.81941 0.39125 0.36712 0.0
H3018 H 0.82174 0.39834 0.39245 0.0
H3019 H 0.80301 0.40235 0.37717 0.0
C3020 C 0.80646 0.39201 0.45137 0.0
C3021 C 0.79747 0.40657 0.45107 0.0
C3022 C 0.80736 0.38148 0.43451 0.0
C3023 C 0.79901 0.38527 0.41728 0.0
C3024 C 0.79124 0.40068 0.41677 0.0
H3025 H 0.75776 0.31933 0.3112 0.0
H3026 H 0.76094 0.34039 0.34031 0.0
C3027 C 0.79068 0.41147 0.43365 0.0
C3028 C 0.7955 0.37138 0.40084 0.0
H3029 H 0.80034 0.36342 0.35377 0.0
C3030 C 0.78569 0.35441 0.40333 0.0
C3031 C 0.80097 0.3748 0.3829 0.0
C3032 C 0.81201 0.39262 0.37975 0.0
C3033 C 0.78115 0.34067 0.38819 0.0
C3034 C 0.78646 0.34417 0.37028 0.0
C3035 C 0.7962 0.36108 0.36768 0.0
C3036 C 0.78284 0.33009 0.3542 0.0
C3037 C 0.77068 0.32254 0.39128 0.0
C3038 C 0.79389 0.31729 0.35297 0.0
C3039 C 0.79222 0.3054 0.33648 0.0
C3040 C 0.77941 0.30622 0.32112 0.0
C3041 C 0.76769 0.31845 0.32289 0.0
C3042 C 0.76948 0.33044 0.33938 0.0
H3043 H 0.7659 0.32266 0.40559 0.0
H3044 H 0.75898 0.31838 0.38018 0.0
H3045 H 0.77928 0.31223 0.38989 0.0
H3046 H 0.80437 0.31712 0.36438 0.0
H3047 H 0.80178 0.2965 0.33533 0.0
H3048 H 0.41566 0.04995 0.25175 0.0
H3049 H 0.42436 0.05342 0.21947 0.0
H3050 H 0.43047 0.9977 0.21291 0.0
H3051 H 0.4225 0.99441 0.24505 0.0
H3052 H 0.4609 0.04216 0.21196 0.0
H3053 H 0.40233 0.00889 0.16067 0.0
H3054 H 0.40032 0.02037 0.18374 0.0
H3055 H 0.40525 0.99797 0.1819 0.0
C3056 C 0.41857 0.03845 0.24316 0.0
C3057 C 0.41871 0.022 0.25071 0.0
C3058 C 0.42343 0.04041 0.22484 0.0
C3059 C 0.42779 0.02574 0.21391 0.0
C3060 C 0.42687 0.00906 0.22113 0.0
H3061 H 0.47552 0.97249 0.13563 0.0
H3062 H 0.45796 0.98563 0.15843 0.0
C3063 C 0.42251 1.00724 0.23947 0.0
C3064 C 0.4361 0.02794 0.19631 0.0
H3065 H 0.4315 1.0071 0.15096 0.0
C3066 C 0.45444 0.03517 0.19831 0.0
C3067 C 0.4275 0.01867 0.17876 0.0
C3068 C 0.4077 0.01114 0.17602 0.0
C3069 C 0.46488 0.03151 0.18378 0.0
C3070 C 0.4565 0.02077 0.16681 0.0
C3071 C 0.43785 0.01518 0.16411 0.0
C3072 C 0.46702 0.01319 0.15288 0.0
C3073 C 0.48493 0.03763 0.18743 0.0
C3074 C 0.47796 0.02442 0.14247 0.0
C3075 C 0.48819 0.017 0.12975 0.0
C3076 C 0.48744 0.9982 0.12708 0.0
C3077 C 0.4765 0.98701 0.13759 0.0
C3078 C 0.46634 0.99446 0.1504 0.0
H3079 H 0.48944 0.04352 0.20245 0.0
H3080 H 0.49178 0.02615 0.18413 0.0
H3081 H 0.48921 0.04806 0.17799 0.0
H3082 H 0.47854 0.03889 0.14415 0.0
H3083 H 0.49667 0.02597 0.12195 0.0
H3084 H 0.76742 0.6627 0.94218 0.0
H3085 H 0.76971 0.67625 0.91215 0.0
H3086 H 0.77796 0.72935 0.94315 0.0
H3087 H 0.7754 0.71594 0.97316 0.0
H3088 H 0.74796 0.70483 0.89765 0.0
H3089 H 0.82204 0.72628 0.90924 0.0
H3090 H 0.81043 0.70778 0.92029 0.0
H3091 H 0.80966 0.7306 0.92901 0.0
C3092 C 0.76957 0.67726 0.9426 0.0
C3093 C 0.77118 0.68821 0.96012 0.0
C3094 C 0.7709 0.68499 0.92541 0.0
C3095 C 0.77416 0.70383 0.92539 0.0
C3096 C 0.77556 0.71479 0.94281 0.0
H3097 H 0.7701 0.77542 0.83729 0.0
H3098 H 0.76841 0.76007 0.8661 0.0
C3099 C 0.77399 0.70708 0.95996 0.0
C3100 C 0.77612 0.71208 0.90719 0.0
H3101 H 0.8069 0.73544 0.8822 0.0
C3102 C 0.76084 0.71146 0.89425 0.0
C3103 C 0.79295 0.72066 0.90267 0.0
C3104 C 0.8098 0.72137 0.91591 0.0
C3105 C 0.76191 0.71952 0.87715 0.0
C3106 C 0.77869 0.7284 0.87279 0.0
C3107 C 0.79404 0.72868 0.88554 0.0
C3108 C 0.78035 0.73791 0.85533 0.0
C3109 C 0.74509 0.71854 0.86379 0.0
C3110 C 0.78781 0.73068 0.83966 0.0
C3111 C 0.78872 0.73942 0.82303 0.0
C3112 C 0.78244 0.75572 0.82184 0.0
C3113 C 0.77523 0.763 0.83771 0.0
C3114 C 0.77417 0.7542 0.8542 0.0
H3115 H 0.73369 0.70878 0.86759 0.0
H3116 H 0.74136 0.73208 0.8644 0.0
H3117 H 0.74736 0.71459 0.84886 0.0
H3118 H 0.79267 0.71813 0.84019 0.0
H3119 H 0.79432 0.73339 0.8111 0.0
H3120 H 0.83003 0.12586 0.07603 0.0
H3121 H 0.85776 0.11381 0.07681 0.0
H3122 H 0.83234 0.07088 0.03305 0.0
H3123 H 0.80438 0.08246 0.0329 0.0
H3124 H 0.85842 0.06124 0.06099 0.0
H3125 H 0.88268 0.12421 0.02876 0.0
H3126 H 0.8743 0.12687 0.05146 0.0
H3127 H 0.85931 0.11645 0.03074 0.0
C3128 C 0.83027 0.11344 0.06717 0.0
C3129 C 0.81534 0.10495 0.05443 0.0
C3130 C 0.84602 0.10665 0.06759 0.0
C3131 C 0.84702 0.09169 0.05481 0.0
C3132 C 0.83167 0.08238 0.04311 0.0
H3133 H 0.91633 0.05593 0.98426 0.0
H3134 H 0.89227 0.0637 0.00202 0.0
C3135 C 0.81578 0.08894 0.04302 0.0
C3136 C 0.86446 0.08747 0.05126 0.0
H3137 H 0.90097 0.10265 0.02925 0.0
C3138 C 0.86795 0.07039 0.05443 0.0
C3139 C 0.87664 0.0995 0.04249 0.0
C3140 C 0.87309 0.11774 0.038 0.0
C3141 C 0.88315 0.06472 0.04836 0.0
C3142 C 0.89485 0.07648 0.03896 0.0
C3143 C 0.89184 0.09385 0.03662 0.0
C3144 C 0.90895 0.07033 0.02913 0.0
C3145 C 0.88617 0.04595 0.05102 0.0
C3146 C 0.92608 0.07162 0.0387 0.0
C3147 C 0.93977 0.06723 0.02862 0.0
C3148 C 0.93641 0.06179 0.00889 0.0
C3149 C 0.91919 0.06042 0.99941 0.0
C3150 C 0.9055 0.06463 0.00951 0.0
H3151 H 0.87659 0.03899 0.05997 0.0
H3152 H 0.88467 0.03784 0.03686 0.0
H3153 H 0.90002 0.04654 0.05777 0.0
H3154 H 0.92887 0.07625 0.05382 0.0
H3155 H 0.95302 0.06829 0.03613 0.0
H3156 H 0.34145 0.4274 0.01471 0.0
H3157 H 0.36984 0.44861 0.01494 0.0
H3158 H 0.3942 0.42207 0.05893 0.0
H3159 H 0.36627 0.40021 0.05769 0.0
H3160 H 0.39105 0.47292 0.03954 0.0
H3161 H 0.42903 0.41904 0.02183 0.0
H3162 H 0.40505 0.41445 0.02132 0.0
H3163 H 0.41925 0.41631 0.04355 0.0
C3164 C 0.35289 0.42621 0.02446 0.0
C3165 C 0.35179 0.41209 0.03603 0.0
C3166 C 0.36912 0.4383 0.02458 0.0
C3167 C 0.38445 0.43665 0.03652 0.0
C3168 C 0.3829 0.42322 0.04898 0.0
H3169 H 0.49611 0.49084 0.05556 0.0
H3170 H 0.46646 0.47301 0.05764 0.0
C3171 C 0.36687 0.41084 0.04845 0.0
C3172 C 0.40206 0.44872 0.03577 0.0
H3173 H 0.44615 0.44842 0.03132 0.0
C3174 C 0.40307 0.46754 0.03765 0.0
C3175 C 0.41783 0.4418 0.03316 0.0
C3176 C 0.41772 0.4218 0.02965 0.0
C3177 C 0.41939 0.47955 0.03755 0.0
C3178 C 0.43518 0.47259 0.03531 0.0
C3179 C 0.43414 0.45381 0.03327 0.0
C3180 C 0.45294 0.48441 0.03481 0.0
C3181 C 0.41957 0.49959 0.04026 0.0
C3182 C 0.45532 0.49678 0.0213 0.0
C3183 C 0.47221 0.50717 0.02028 0.0
C3184 C 0.4872 0.50517 0.03252 0.0
C3185 C 0.48483 0.49276 0.046 0.0
C3186 C 0.46788 0.48254 0.04717 0.0
H3187 H 0.408 0.50268 0.04744 0.0
H3188 H 0.4321 0.50704 0.04881 0.0
H3189 H 0.41864 0.50466 0.02609 0.0
H3190 H 0.44421 0.4981 0.01117 0.0
H3191 H 0.47362 0.51633 0.00946 0.0
H3192 H 0.378 0.54615 0.74874 0.0
H3193 H 0.36293 0.57208 0.74924 0.0
H3194 H 0.41217 0.60712 0.77404 0.0
H3195 H 0.4274 0.58129 0.77331 0.0
H3196 H 0.35859 0.59401 0.78074 0.0
H3197 H 0.3958 0.63498 0.73157 0.0
H3198 H 0.39703 0.61156 0.73303 0.0
H3199 H 0.40988 0.62884 0.75067 0.0
C3200 C 0.38571 0.55941 0.75403 0.0
C3201 C 0.40395 0.56164 0.76087 0.0
C3202 C 0.37705 0.57423 0.75435 0.0
C3203 C 0.38645 0.59164 0.76141 0.0
C3204 C 0.40471 0.59393 0.76809 0.0
H3205 H 0.35794 0.69408 0.79509 0.0
H3206 H 0.37338 0.66981 0.78458 0.0
C3207 C 0.41339 0.57911 0.76775 0.0
C3208 C 0.37685 0.60712 0.76288 0.0
H3209 H 0.37666 0.64944 0.74986 0.0
C3210 C 0.36241 0.60604 0.7738 0.0
C3211 C 0.38193 0.62289 0.75396 0.0
C3212 C 0.3969 0.62463 0.7415 0.0
C3213 C 0.3532 0.62041 0.77642 0.0
C3214 C 0.35827 0.6362 0.76751 0.0
C3215 C 0.37267 0.63728 0.75652 0.0
C3216 C 0.34941 0.65207 0.77046 0.0
C3217 C 0.33852 0.6188 0.78928 0.0
C3218 C 0.33097 0.65061 0.76507 0.0
C3219 C 0.32217 0.66457 0.77091 0.0
C3220 C 0.33172 0.68023 0.78209 0.0
C3221 C 0.35037 0.68226 0.78617 0.0
C3222 C 0.35915 0.66834 0.78031 0.0
H3223 H 0.33907 0.60774 0.79843 0.0
H3224 H 0.33936 0.63162 0.79864 0.0
H3225 H 0.32534 0.61583 0.78041 0.0
H3226 H 0.32322 0.63828 0.75722 0.0
H3227 H 0.30775 0.66257 0.76792 0.0
H3228 H 0.2261 0.60613 0.55692 0.0
H3229 H 0.19504 0.59048 0.5563 0.0
H3230 H 0.18337 0.60255 0.49866 0.0
H3231 H 0.21428 0.61858 0.49937 0.0
H3232 H 0.16183 0.61499 0.52966 0.0
H3233 H 0.16638 0.54197 0.52311 0.0
H3234 H 0.18306 0.55788 0.53888 0.0
H3235 H 0.18219 0.55851 0.51361 0.0
C3236 C 0.21701 0.60489 0.54393 0.0
C3237 C 0.22237 0.61333 0.5281 0.0
C3238 C 0.19936 0.59609 0.54365 0.0
C3239 C 0.18717 0.59545 0.52742 0.0
C3240 C 0.19276 0.60303 0.51126 0.0
H3241 H 0.08068 0.53509 0.50252 0.0
H3242 H 0.11028 0.55246 0.49966 0.0
C3243 C 0.2103 0.61205 0.51163 0.0
C3244 C 0.16819 0.58833 0.52779 0.0
H3245 H 0.13802 0.54926 0.52565 0.0
C3246 C 0.15651 0.60063 0.52874 0.0
C3247 C 0.16161 0.56965 0.52666 0.0
C3248 C 0.17387 0.55612 0.52544 0.0
C3249 C 0.1381 0.59461 0.52836 0.0
C3250 C 0.13149 0.57588 0.52715 0.0
C3251 C 0.14325 0.56362 0.52639 0.0
C3252 C 0.11244 0.56851 0.52706 0.0
C3253 C 0.12593 0.60825 0.52901 0.0
C3254 C 0.10383 0.57229 0.54312 0.0
C3255 C 0.08677 0.56277 0.54444 0.0
C3256 C 0.07833 0.54946 0.52973 0.0
C3257 C 0.08669 0.54603 0.51346 0.0
C3258 C 0.10363 0.55569 0.512 0.0
H3259 H 0.13241 0.62136 0.52474 0.0
H3260 H 0.11322 0.60319 0.51953 0.0
H3261 H 0.12262 0.61075 0.54381 0.0
H3262 H 0.11067 0.58178 0.55508 0.0
H3263 H 0.08053 0.56516 0.5573 0.0
H3264 H 0.6819 0.98137 0.76899 0.0
H3265 H 0.69547 0.95479 0.76785 0.0
H3266 H 0.72331 0.97237 0.72075 0.0
H3267 H 0.71052 1.00005 0.72287 0.0
H3268 H 0.6941 0.92739 0.74214 0.0
H3269 H 0.76436 0.96567 0.75648 0.0
H3270 H 0.7455 0.97682 0.75778 0.0
H3271 H 0.75157 0.96908 0.73498 0.0
C3272 C 0.6908 0.97951 0.75826 0.0
C3273 C 0.69524 0.99264 0.746 0.0
C3274 C 0.69852 0.96429 0.75758 0.0
C3275 C 0.71053 0.96164 0.74432 0.0
C3276 C 0.71441 0.97437 0.7314 0.0
H3277 H 0.77485 0.87945 0.76768 0.0
H3278 H 0.75955 0.89793 0.74763 0.0
C3279 C 0.70704 0.99004 0.73249 0.0
C3280 C 0.7194 0.94589 0.74524 0.0
H3281 H 0.75958 0.93493 0.75961 0.0
C3282 C 0.70847 0.92895 0.74553 0.0
C3283 C 0.73817 0.94793 0.74954 0.0
C3284 C 0.75063 0.96584 0.74982 0.0
C3285 C 0.7156 0.91447 0.75179 0.0
C3286 C 0.73414 0.91695 0.75745 0.0
C3287 C 0.74532 0.93324 0.75529 0.0
C3288 C 0.74184 0.90399 0.7683 0.0
C3289 C 0.70311 0.89703 0.75342 0.0
C3290 C 0.73683 0.90134 0.78648 0.0
C3291 C 0.74539 0.89073 0.79789 0.0
C3292 C 0.75926 0.88275 0.7914 0.0
C3293 C 0.76402 0.88518 0.77299 0.0
C3294 C 0.75539 0.89578 0.76154 0.0
H3295 H 0.69062 0.89534 0.74346 0.0
H3296 H 0.70962 0.88523 0.7505 0.0
H3297 H 0.69932 0.89718 0.76815 0.0
H3298 H 0.72666 0.90795 0.79208 0.0
H3299 H 0.74133 0.88899 0.81192 0.0
H3300 H 0.76275 0.92739 0.51428 0.0
H3301 H 0.73658 0.94205 0.51224 0.0
H3302 H 0.71764 0.91551 0.55958 0.0
H3303 H 0.74374 0.90043 0.56132 0.0
H3304 H 0.69884 0.92212 0.50742 0.0
H3305 H 0.71734 0.97172 0.57258 0.0
H3306 H 0.7337 0.96141 0.56106 0.0
H3307 H 0.71893 0.94859 0.57505 0.0
C3308 C 0.75304 0.92483 0.52433 0.0
C3309 C 0.75517 0.91294 0.53802 0.0
C3310 C 0.73813 0.93316 0.52314 0.0
C3311 C 0.7253 0.93001 0.53589 0.0
C3312 C 0.72751 0.91824 0.54975 0.0
H3313 H 0.62536 0.96937 0.54456 0.0
H3314 H 0.65287 0.95734 0.55144 0.0
C3315 C 0.74231 0.90962 0.55071 0.0
C3316 C 0.70926 0.93847 0.53398 0.0
H3317 H 0.68939 0.97109 0.55484 0.0
C3318 C 0.69674 0.93282 0.51778 0.0
C3319 C 0.70656 0.95233 0.54758 0.0
C3320 C 0.71985 0.95903 0.56504 0.0
C3321 C 0.68151 0.94061 0.51483 0.0
C3322 C 0.67899 0.95482 0.52819 0.0
C3323 C 0.6914 0.9603 0.54456 0.0
C3324 C 0.66351 0.96407 0.52527 0.0
C3325 C 0.66809 0.93329 0.49757 0.0
C3326 C 0.66075 0.97252 0.50873 0.0
C3327 C 0.64507 0.97922 0.50477 0.0
C3328 C 0.63209 0.97793 0.5175 0.0
C3329 C 0.63531 0.97057 0.53465 0.0
C3330 C 0.65095 0.96368 0.53852 0.0
H3331 H 0.66929 0.9194 0.49199 0.0
H3332 H 0.65419 0.93308 0.50096 0.0
H3333 H 0.67056 0.94205 0.48605 0.0
H3334 H 0.67046 0.97339 0.49854 0.0
H3335 H 0.64279 0.98486 0.49147 0.0
H3336 H 0.39043 0.46706 0.74089 0.0
H3337 H 0.36851 0.43871 0.73896 0.0
H3338 H 0.39485 0.42627 0.79126 0.0
H3339 H 0.41692 0.45433 0.79308 0.0
H3340 H 0.38734 0.39768 0.75637 0.0
H3341 H 0.32846 0.42577 0.77698 0.0
H3342 H 0.34281 0.43744 0.76156 0.0
H3343 H 0.3511 0.43671 0.78593 0.0
C3344 C 0.39142 0.45833 0.75205 0.0
C3345 C 0.40544 0.46285 0.76709 0.0
C3346 C 0.37892 0.44217 0.75093 0.0
C3347 C 0.38003 0.43042 0.76501 0.0
C3348 C 0.39381 0.43509 0.7802 0.0
H3349 H 0.30524 0.33997 0.79311 0.0
H3350 H 0.32436 0.36896 0.79095 0.0
C3351 C 0.40642 0.45109 0.7812 0.0
C3352 C 0.3673 0.41291 0.76364 0.0
H3353 H 0.32451 0.39431 0.76992 0.0
C3354 C 0.37355 0.39687 0.75922 0.0
C3355 C 0.34945 0.41196 0.76763 0.0
C3356 C 0.34241 0.42882 0.77337 0.0
C3357 C 0.3625 0.37984 0.75887 0.0
C3358 C 0.34445 0.37879 0.76258 0.0
C3359 C 0.33822 0.39496 0.76689 0.0
C3360 C 0.33212 0.36117 0.76321 0.0
C3361 C 0.37065 0.36325 0.75532 0.0
C3362 C 0.32963 0.34703 0.7482 0.0
C3363 C 0.31907 0.33018 0.7497 0.0
C3364 C 0.31015 0.32736 0.76586 0.0
C3365 C 0.31181 0.34178 0.78037 0.0
C3366 C 0.3228 0.35839 0.77915 0.0
H3367 H 0.38546 0.36643 0.75849 0.0
H3368 H 0.36539 0.35261 0.76414 0.0
H3369 H 0.36743 0.35778 0.74005 0.0
H3370 H 0.33601 0.34892 0.73538 0.0
H3371 H 0.31788 0.31935 0.73823 0.0
H3372 H 0.2151 0.58662 0.28438 0.0
H3373 H 0.23217 0.61767 0.29033 0.0
H3374 H 0.19477 0.63425 0.24911 0.0
H3375 H 0.17724 0.60352 0.2439 0.0
H3376 H 0.24856 0.64118 0.26791 0.0
H3377 H 0.19191 0.66718 0.29639 0.0
H3378 H 0.1921 0.64335 0.29205 0.0
H3379 H 0.18598 0.65569 0.27272 0.0
C3380 C 0.21068 0.59694 0.27655 0.0
C3381 C 0.19479 0.59299 0.264 0.0
C3382 C 0.22036 0.61458 0.27995 0.0
C3383 C 0.21431 0.62826 0.27062 0.0
C3384 C 0.1992 0.62396 0.25698 0.0
H3385 H 0.24593 0.73451 0.25029 0.0
H3386 H 0.23012 0.70465 0.25554 0.0
C3387 C 0.1893 0.60647 0.25393 0.0
C3388 C 0.22346 0.64715 0.27542 0.0
H3389 H 0.21576 0.68932 0.28842 0.0
C3390 C 0.24154 0.65171 0.27273 0.0
C3391 C 0.21419 0.66072 0.2819 0.0
C3392 C 0.19502 0.65647 0.28613 0.0
C3393 C 0.25035 0.66974 0.2752 0.0
C3394 C 0.24077 0.68334 0.28073 0.0
C3395 C 0.22296 0.67873 0.28427 0.0
C3396 C 0.24828 0.70244 0.28027 0.0
C3397 C 0.26948 0.67422 0.27087 0.0
C3398 C 0.26316 0.71117 0.29298 0.0
C3399 C 0.27213 0.72816 0.28997 0.0
C3400 C 0.26604 0.73645 0.27444 0.0
C3401 C 0.25054 0.72824 0.26249 0.0
C3402 C 0.24159 0.71131 0.26548 0.0
H3403 H 0.27412 0.66224 0.26427 0.0
H3404 H 0.27098 0.68487 0.26109 0.0
H3405 H 0.27834 0.6795 0.2843 0.0
H3406 H 0.26836 0.70443 0.3045 0.0
H3407 H 0.28436 0.7343 0.29902 0.0
H3408 H 0.48111 0.70882 0.45503 0.0
H3409 H 0.48544 0.67919 0.46414 0.0
H3410 H 0.54243 0.69807 0.47229 0.0
H3411 H 0.53813 0.72755 0.46243 0.0
H3412 H 0.50789 0.65317 0.448 0.0
H3413 H 0.52899 0.6781 0.52447 0.0
H3414 H 0.51683 0.69036 0.50878 0.0
H3415 H 0.54015 0.6906 0.50728 0.0
C3416 C 0.49461 0.70663 0.4585 0.0
C3417 C 0.50924 0.72075 0.45769 0.0
C3418 C 0.49709 0.68957 0.4638 0.0
C3419 C 0.51429 0.68605 0.46918 0.0
C3420 C 0.52897 0.70014 0.46835 0.0
H3421 H 0.55268 0.59487 0.51982 0.0
H3422 H 0.54907 0.62368 0.50875 0.0
C3423 C 0.5265 0.71708 0.46253 0.0
C3424 C 0.51673 0.66783 0.47573 0.0
H3425 H 0.5292 0.64747 0.51505 0.0
C3426 C 0.51251 0.65199 0.4627 0.0
C3427 C 0.52292 0.66588 0.49486 0.0
C3428 C 0.52741 0.68205 0.50979 0.0
C3429 C 0.51453 0.63471 0.46804 0.0
C3430 C 0.52032 0.63263 0.48732 0.0
C3431 C 0.52464 0.64856 0.50031 0.0
C3432 C 0.52234 0.61433 0.49419 0.0
C3433 C 0.51105 0.61895 0.45262 0.0
C3434 C 0.50857 0.59881 0.49026 0.0
C3435 C 0.51067 0.58199 0.49665 0.0
C3436 C 0.5266 0.5799 0.50741 0.0
C3437 C 0.54021 0.59551 0.51157 0.0
C3438 C 0.53812 0.61227 0.5052 0.0
H3439 H 0.51256 0.6235 0.43832 0.0
H3440 H 0.5203 0.60945 0.45524 0.0
H3441 H 0.49711 0.61157 0.45229 0.0
H3442 H 0.49597 0.59969 0.48238 0.0
H3443 H 0.49972 0.57057 0.4931 0.0
H3444 H 0.61676 0.27199 0.62788 0.0
H3445 H 0.64238 0.27053 0.65086 0.0
H3446 H 0.63921 0.32292 0.67858 0.0
H3447 H 0.6127 0.32367 0.6563 0.0
H3448 H 0.67374 0.28757 0.65711 0.0
H3449 H 0.64633 0.30063 0.72536 0.0
H3450 H 0.63236 0.29666 0.70281 0.0
H3451 H 0.64555 0.31874 0.71101 0.0
C3452 C 0.62136 0.28306 0.6391 0.0
C3453 C 0.61254 0.29786 0.64034 0.0
C3454 C 0.63615 0.28229 0.65227 0.0
C3455 C 0.64293 0.29647 0.66695 0.0
C3456 C 0.63415 0.31141 0.66803 0.0
H3457 H 0.75221 0.31296 0.72827 0.0
H3458 H 0.72511 0.31543 0.70768 0.0
C3459 C 0.61899 0.31195 0.65513 0.0
C3460 C 0.65957 0.29579 0.68027 0.0
H3461 H 0.67778 0.30171 0.7273 0.0
C3462 C 0.67446 0.29067 0.67244 0.0
C3463 C 0.66087 0.29957 0.70049 0.0
C3464 C 0.64536 0.30402 0.71043 0.0
C3465 C 0.69028 0.2894 0.68395 0.0
C3466 C 0.69171 0.29371 0.70398 0.0
C3467 C 0.67688 0.29865 0.71193 0.0
C3468 C 0.70826 0.29252 0.71685 0.0
C3469 C 0.70528 0.28291 0.67467 0.0
C3470 C 0.70796 0.27898 0.72914 0.0
C3471 C 0.72344 0.27757 0.74095 0.0
C3472 C 0.73973 0.2897 0.7409 0.0
C3473 C 0.74 0.30331 0.72864 0.0
C3474 C 0.72447 0.30473 0.71683 0.0
H3475 H 0.70144 0.27821 0.65925 0.0
H3476 H 0.71708 0.29404 0.6762 0.0
H3477 H 0.70936 0.27166 0.68192 0.0
H3478 H 0.69575 0.2693 0.72941 0.0
H3479 H 0.72268 0.26675 0.74995 0.0
H3480 H 0.01192 0.31715 0.98303 0.0
H3481 H 0.01404 0.34896 0.99597 0.0
H3482 H 0.01413 0.36459 0.93916 0.0
H3483 H 0.01202 0.33305 0.92624 0.0
H3484 H 0.04152 0.38704 0.96645 0.0
H3485 H 0.97505 0.38135 0.99306 0.0
H3486 H 0.98812 0.36466 0.999 0.0
H3487 H 0.9797 0.36526 0.9746 0.0
C3488 C 0.01217 0.3273 0.97324 0.0
C3489 C 0.0117 0.32222 0.95346 0.0
C3490 C 0.01337 0.34562 0.98069 0.0
C3491 C 0.01413 0.35954 0.96865 0.0
C3492 C 0.0136 0.35441 0.94894 0.0
H3493 H 0.99894 0.47262 0.99521 0.0
H3494 H 0.99585 0.4404 0.98385 0.0
C3495 C 0.01235 0.33618 0.94151 0.0
C3496 C 0.01591 0.37937 0.97639 0.0
H3497 H 0.9942 0.40976 0.99928 0.0
C3498 C 0.03117 0.39193 0.9737 0.0
C3499 C 1.0024 0.38618 0.98563 0.0
C3500 C 0.98529 0.37379 0.98821 0.0
C3501 C 0.03337 0.41067 0.98004 0.0
C3502 C 0.02003 0.41749 0.98971 0.0
C3503 C 1.00463 0.40492 0.99213 0.0
C3504 C 0.02173 0.43747 0.99718 0.0
C3505 C 0.04988 0.42301 0.9757 0.0
C3506 C 0.03709 0.44708 0.00894 0.0
C3507 C 0.03886 0.46563 0.01544 0.0
C3508 C 0.02522 0.4754 0.01081 0.0
C3509 C 1.00969 0.46574 0.99937 0.0
C3510 C 1.00795 0.44715 0.99276 0.0
H3511 H 0.05561 0.41705 0.96333 0.0
H3512 H 0.04698 0.43635 0.97258 0.0
H3513 H 0.06024 0.42511 0.98822 0.0
H3514 H 0.04781 0.44021 0.01329 0.0
H3515 H 0.05102 0.4723 0.0243 0.0
H3516 H 0.02118 0.76859 0.16008 0.0
H3517 H 0.99448 0.76561 0.17687 0.0
H3518 H 0.97439 0.80398 0.14341 0.0
H3519 H 1.0004 0.80581 0.12564 0.0
H3520 H 0.98193 0.78621 0.19945 0.0
H3521 H 0.92999 0.76891 0.13724 0.0
H3522 H 0.95333 0.76991 0.13475 0.0
H3523 H 0.94407 0.79025 0.13617 0.0
C3524 C 1.01088 0.77612 0.15608 0.0
C3525 C 0.01279 0.78717 0.14127 0.0
C3526 C 0.9956 0.7745 0.16578 0.0
C3527 C 0.98193 0.78421 0.16127 0.0
C3528 C 0.98414 0.79567 0.14678 0.0
H3529 H 0.88297 0.79416 0.21292 0.0
H3530 H 0.91085 0.80085 0.198 0.0
C3531 C 0.99916 0.79684 0.13666 0.0
C3532 C 0.96581 0.78273 0.17216 0.0
H3533 H 0.91996 0.77638 0.16715 0.0
C3534 C 0.96842 0.78395 0.19226 0.0
C3535 C 0.94795 0.7798 0.16306 0.0
C3536 C 0.94365 0.77695 0.14163 0.0
C3537 C 0.95394 0.78236 0.2033 0.0
C3538 C 0.93622 0.77963 0.19418 0.0
C3539 C 0.93354 0.77867 0.17419 0.0
C3540 C 0.92023 0.77667 0.20496 0.0
C3541 C 0.9577 0.78368 0.22472 0.0
C3542 C 0.91627 0.761 0.21408 0.0
C3543 C 0.90036 0.75717 0.22251 0.0
C3544 C 0.88811 0.76901 0.22223 0.0
C3545 C 0.89234 0.78501 0.21371 0.0
C3546 C 0.90819 0.78874 0.20504 0.0
H3547 H 0.97184 0.78993 0.22984 0.0
H3548 H 0.9488 0.79168 0.23174 0.0
H3549 H 0.95508 0.76991 0.22922 0.0
H3550 H 0.92513 0.75132 0.21399 0.0
H3551 H 0.89728 0.74458 0.22863 0.0
H3552 H 0.52824 0.3229 0.18969 0.0
H3553 H 0.53087 0.3502 0.17303 0.0
H3554 H 0.52936 0.3176 0.11947 0.0
H3555 H 0.52682 0.29046 0.13586 0.0
H3556 H 0.55917 0.35202 0.13062 0.0
H3557 H 0.4888 0.36182 0.13201 0.0
H3558 H 0.50045 0.35531 0.15285 0.0
H3559 H 0.49457 0.33967 0.13162 0.0
C3560 C 0.52854 0.32157 0.17438 0.0
C3561 C 0.52739 0.30445 0.16417 0.0
C3562 C 0.52995 0.33717 0.16486 0.0
C3563 C 0.53016 0.33595 0.14495 0.0
C3564 C 0.52921 0.31892 0.1348 0.0
H3565 H 0.52635 0.40886 0.05717 0.0
H3566 H 0.51918 0.38469 0.07763 0.0
C3567 C 0.52783 0.30339 0.14426 0.0
C3568 C 0.53172 0.35235 0.13459 0.0
H3569 H 0.50784 0.38258 0.11685 0.0
C3570 C 0.548 0.35879 0.12776 0.0
C3571 C 0.51705 0.361 0.13054 0.0
C3572 C 0.49914 0.35418 0.13702 0.0
C3573 C 0.55005 0.37371 0.11717 0.0
C3574 C 0.53546 0.38257 0.11333 0.0
C3575 C 0.51908 0.37597 0.11995 0.0
C3576 C 0.53712 0.39849 0.10217 0.0
C3577 C 0.56775 0.37965 0.10977 0.0
C3578 C 0.54888 0.41468 0.1094 0.0
C3579 C 0.55279 0.42855 0.09781 0.0
C3580 C 0.54492 0.42662 0.07877 0.0
C3581 C 0.53222 0.41094 0.07194 0.0
C3582 C 0.52828 0.39704 0.08357 0.0
H3583 H 0.57632 0.36926 0.11051 0.0
H3584 H 0.56568 0.38262 0.09476 0.0
H3585 H 0.57503 0.39219 0.11853 0.0
H3586 H 0.55577 0.41621 0.12372 0.0
H3587 H 0.56294 0.44027 0.10331 0.0
H3588 H 0.99786 0.3128 0.32313 0.0
H3589 H 0.967 0.31032 0.30727 0.0
H3590 H 0.94587 0.29166 0.35746 0.0
H3591 H 0.976 0.29426 0.37314 0.0
H3592 H 0.93585 0.28292 0.29793 0.0
H3593 H 0.92145 0.33413 0.35198 0.0
H3594 H 0.94385 0.33036 0.34991 0.0
H3595 H 0.92909 0.316 0.36279 0.0
C3596 C 0.98664 0.30798 0.33068 0.0
C3597 C 0.98974 0.30402 0.34967 0.0
C3598 C 0.96888 0.30663 0.32161 0.0
C3599 C 0.95374 0.30132 0.33126 0.0
C3600 C 0.95699 0.2964 0.34972 0.0
H3601 H 0.83662 0.28166 0.31757 0.0
H3602 H 0.86876 0.28494 0.3274 0.0
C3603 C 0.97447 0.29781 0.3587 0.0
C3604 C 0.93457 0.30113 0.32274 0.0
H3605 H 0.89601 0.3157 0.33295 0.0
C3606 C 0.92726 0.29032 0.30549 0.0
C3607 C 0.92297 0.3107 0.33235 0.0
C3608 C 0.92977 0.32359 0.35017 0.0
C3609 C 0.90889 0.28829 0.2982 0.0
C3610 C 0.89721 0.29741 0.30821 0.0
C3611 C 0.90463 0.30851 0.32519 0.0
C3612 C 0.87726 0.29531 0.30172 0.0
C3613 C 0.90194 0.27579 0.28017 0.0
C3614 C 0.87081 0.30022 0.28399 0.0
C3615 C 0.85223 0.29845 0.27832 0.0
C3616 C 0.83937 0.29169 0.29016 0.0
C3617 C 0.84588 0.28687 0.30791 0.0
C3618 C 0.86443 0.28877 0.31362 0.0
H3619 H 0.91137 0.26677 0.27647 0.0
H3620 H 0.88879 0.26736 0.28159 0.0
H3621 H 0.90004 0.28393 0.26818 0.0
H3622 H 0.88015 0.30563 0.27452 0.0
H3623 H 0.84797 0.30224 0.26452 0.0
H3624 H 0.01218 0.71372 0.61831 0.0
H3625 H 0.01302 0.68386 0.60263 0.0
H3626 H 0.02161 0.66466 0.65738 0.0
H3627 H 0.0209 0.69499 0.67343 0.0
H3628 H 0.04846 0.66196 0.62123 0.0
H3629 H 0.97628 0.63051 0.60756 0.0
H3630 H 0.98292 0.65445 0.60648 0.0
H3631 H 0.98539 0.6456 0.62894 0.0
C3632 C 0.01378 0.70309 0.62717 0.0
C3633 C 0.01629 0.70691 0.64727 0.0
C3634 C 0.01437 0.68596 0.61808 0.0
C3635 C 0.01748 0.67189 0.62868 0.0
C3636 C 0.01921 0.67526 0.6488 0.0
H3637 H 0.01324 0.56032 0.57574 0.0
H3638 H 1.01038 0.587 0.59671 0.0
C3639 C 0.01856 0.69257 0.65801 0.0
C3640 C 0.01982 0.65424 0.6184 0.0
H3641 H 0.99638 0.61523 0.59251 0.0
C3642 C 0.03708 0.65163 0.61515 0.0
C3643 C 1.00507 0.64073 0.6103 0.0
C3644 C 0.9863 0.64276 0.61343 0.0
C3645 C 0.03995 0.63609 0.60399 0.0
C3646 C 0.02512 0.62275 0.59525 0.0
C3647 C 1.00786 0.62527 0.59893 0.0
C3648 C 0.02715 0.60623 0.58231 0.0
C3649 C 0.05899 0.63409 0.60201 0.0
C3650 C 0.03735 0.60773 0.5668 0.0
C3651 C 0.03935 0.59234 0.55496 0.0
C3652 C 0.03083 0.57484 0.55784 0.0
C3653 C 0.02024 0.5734 0.57306 0.0
C3654 C 0.01848 0.58879 0.58508 0.0
H3655 H 0.06835 0.6417 0.61425 0.0
H3656 H 0.06044 0.61972 0.60105 0.0
H3657 H 0.06309 0.63971 0.58887 0.0
H3658 H 0.04374 0.62087 0.56367 0.0
H3659 H 0.04762 0.59422 0.54349 0.0
H3660 H 0.60999 0.80597 0.87159 0.0
H3661 H 0.63809 0.80158 0.85949 0.0
H3662 H 0.61241 0.79591 0.80187 0.0
H3663 H 0.58413 0.80008 0.81398 0.0
H3664 H 0.64803 0.7732 0.8372 0.0
H3665 H 0.65704 0.83392 0.79879 0.0
H3666 H 0.64123 0.83047 0.81601 0.0
H3667 H 0.63586 0.81895 0.79222 0.0
C3668 C 0.61021 0.80382 0.8563 0.0
C3669 C 0.59446 0.80351 0.8439 0.0
C3670 C 0.62647 0.80124 0.84933 0.0
C3671 C 0.62791 0.7986 0.82959 0.0
C3672 C 0.61214 0.79819 0.81714 0.0
H3673 H 0.71728 0.77853 0.76267 0.0
H3674 H 0.68805 0.78111 0.77323 0.0
C3675 C 0.59577 0.80049 0.82414 0.0
C3676 C 0.64572 0.79624 0.82224 0.0
H3677 H 0.67755 0.81426 0.79449 0.0
C3678 C 0.65441 0.78228 0.82791 0.0
C3679 C 0.65451 0.8079 0.81001 0.0
C3680 C 0.64683 0.82376 0.80399 0.0
C3681 C 0.67102 0.77959 0.82165 0.0
C3682 C 0.67979 0.79128 0.80949 0.0
C3683 C 0.6711 0.80516 0.80373 0.0
C3684 C 0.69799 0.78944 0.80294 0.0
C3685 C 0.679 0.76393 0.82777 0.0
C3686 C 0.71383 0.79325 0.81584 0.0
C3687 C 0.73076 0.792 0.80973 0.0
C3688 C 0.7326 0.78665 0.79047 0.0
C3689 C 0.71669 0.78266 0.77761 0.0
C3690 C 0.6998 0.78419 0.78368 0.0
H3691 H 0.66941 0.75437 0.83448 0.0
H3692 H 0.68334 0.75649 0.81533 0.0
H3693 H 0.69101 0.76909 0.83824 0.0
H3694 H 0.71315 0.7974 0.83076 0.0
H3695 H 0.74245 0.79506 0.82025 0.0
H3696 H 0.48164 0.53439 0.72857 0.0
H3697 H 0.49238 0.53993 0.69796 0.0
H3698 H 0.44048 0.51462 0.6689 0.0
H3699 H 0.42941 0.51012 0.69984 0.0
H3700 H 0.49729 0.51769 0.671 0.0
H3701 H 0.44896 0.55611 0.63926 0.0
H3702 H 0.44977 0.5517 0.66385 0.0
H3703 H 0.43813 0.5347 0.64514 0.0
C3704 C 0.47241 0.53035 0.71565 0.0
C3705 C 0.45465 0.52194 0.71662 0.0
C3706 C 0.47859 0.53344 0.69809 0.0
C3707 C 0.4673 0.5279 0.68088 0.0
C3708 C 0.44942 0.51959 0.68184 0.0
H3709 H 0.50584 0.50486 0.57161 0.0
H3710 H 0.49386 0.50423 0.60228 0.0
C3711 C 0.44308 0.51691 0.69955 0.0
C3712 C 0.4748 0.5298 0.66217 0.0
H3713 H 0.46809 0.54471 0.61832 0.0
C3714 C 0.49088 0.52374 0.6596 0.0
C3715 C 0.4667 0.53783 0.64713 0.0
C3716 C 0.45004 0.54562 0.64903 0.0
C3717 C 0.49887 0.52524 0.64261 0.0
C3718 C 0.49042 0.53261 0.62737 0.0
C3719 C 0.47452 0.53895 0.62993 0.0
C3720 C 0.49762 0.53325 0.60852 0.0
C3721 C 0.51648 0.51913 0.64118 0.0
C3722 C 0.50358 0.54979 0.60155 0.0
C3723 C 0.51035 0.55019 0.5838 0.0
C3724 C 0.51105 0.53404 0.57256 0.0
C3725 C 0.5051 0.51755 0.57963 0.0
C3726 C 0.49845 0.51716 0.59734 0.0
H3727 H 0.52338 0.51811 0.65546 0.0
H3728 H 0.51403 0.50559 0.63284 0.0
H3729 H 0.5255 0.52857 0.63374 0.0
H3730 H 0.50312 0.5624 0.60992 0.0
H3731 H 0.51487 0.56311 0.57879 0.0
H3732 H 0.77859 0.1276 0.9785 0.0
H3733 H 0.77705 0.14369 0.95004 0.0
H3734 H 0.77151 0.19172 0.98506 0.0
H3735 H 0.77323 0.17601 0.01334 0.0
H3736 H 0.74925 0.16189 0.93642 0.0
H3737 H 0.81443 0.20862 0.9558 0.0
H3738 H 0.80859 0.18796 0.96649 0.0
H3739 H 0.80032 0.2078 0.97462 0.0
C3740 C 0.77702 0.14158 0.98005 0.0
C3741 C 0.77625 0.15066 0.99807 0.0
C3742 C 0.77621 0.15071 0.96388 0.0
C3743 C 0.77469 0.16895 0.9657 0.0
C3744 C 0.77322 0.17778 0.98356 0.0
H3745 H 0.75526 0.25476 0.9049 0.0
H3746 H 0.76442 0.23485 0.92762 0.0
C3747 C 0.77408 0.16874 0.99965 0.0
C3748 C 0.77404 0.17887 0.94896 0.0
H3749 H 0.7938 0.21726 0.93221 0.0
C3750 C 0.75914 0.17379 0.93519 0.0
C3751 C 0.787 0.19436 0.94766 0.0
C3752 C 0.80358 0.19994 0.96184 0.0
C3753 C 0.75624 0.18451 0.92062 0.0
C3754 C 0.76887 0.20042 0.91973 0.0
C3755 C 0.78419 0.20505 0.93304 0.0
C3756 C 0.7656 0.21307 0.90595 0.0
C3757 C 0.73922 0.17928 0.90701 0.0
C3758 C 0.76379 0.2075 0.88636 0.0
C3759 C 0.75806 0.21855 0.87344 0.0
C3760 C 0.7545 0.23558 0.8799 0.0
C3761 C 0.75745 0.24156 0.89952 0.0
C3762 C 0.76291 0.23033 0.91247 0.0
H3763 H 0.72926 0.16886 0.91219 0.0
H3764 H 0.73302 0.19123 0.90482 0.0
H3765 H 0.74237 0.17366 0.89298 0.0
H3766 H 0.76615 0.19432 0.88113 0.0
H3767 H 0.7558 0.21342 0.85844 0.0
H3768 H 0.17265 0.54858 0.1977 0.0
H3769 H 0.15861 0.54922 0.16519 0.0
H3770 H 0.11525 0.50711 0.17414 0.0
H3771 H 0.12884 0.507 0.20681 0.0
H3772 H 0.14159 0.52409 0.13096 0.0
H3773 H 0.09513 0.55514 0.17308 0.0
H3774 H 0.11664 0.55178 0.18346 0.0
H3775 H 0.09779 0.53335 0.17956 0.0
C3776 C 0.16053 0.53895 0.19235 0.0
C3777 C 0.15158 0.52787 0.20453 0.0
C3778 C 0.15256 0.53934 0.17388 0.0
C3779 C 0.13581 0.52847 0.16764 0.0
C3780 C 0.12811 0.51571 0.17897 0.0
H3781 H 0.06307 0.50436 0.06905 0.0
H3782 H 0.08706 0.50711 0.09496 0.0
C3783 C 0.13584 0.51562 0.19751 0.0
C3784 C 0.12475 0.5327 0.15126 0.0
H3785 H 0.08506 0.54578 0.14015 0.0
C3786 C 0.12934 0.52906 0.13286 0.0
C3787 C 0.10922 0.53989 0.15399 0.0
C3788 C 0.10448 0.54546 0.1736 0.0
C3789 C 0.11794 0.53119 0.11688 0.0
C3790 C 0.10147 0.53657 0.11965 0.0
C3791 C 0.0976 0.54145 0.1381 0.0
C3792 C 0.08721 0.53531 0.10389 0.0
C3793 C 0.12349 0.52738 0.09727 0.0
C3794 C 0.07855 0.54993 0.10125 0.0
C3795 C 0.06433 0.54816 0.08689 0.0
C3796 C 0.05898 0.53187 0.07498 0.0
C3797 C 0.06725 0.51713 0.07802 0.0
C3798 C 0.08113 0.51878 0.09255 0.0
H3799 H 0.13829 0.53048 0.09766 0.0
H3800 H 0.11902 0.51281 0.09219 0.0
H3801 H 0.11755 0.53535 0.08685 0.0
H3802 H 0.0829 0.56269 0.11016 0.0
H3803 H 0.05808 0.55965 0.08454 0.0
H3804 H 0.7918 0.89314 0.46878 0.0
H3805 H 0.79156 0.87824 0.43649 0.0
H3806 H 0.8016 0.83001 0.45991 0.0
H3807 H 0.80148 0.84471 0.49218 0.0
H3808 H 0.81676 0.86374 0.41884 0.0
H3809 H 0.758 0.80989 0.42204 0.0
H3810 H 0.76422 0.82937 0.43971 0.0
H3811 H 0.77583 0.81074 0.44074 0.0
C3812 C 0.79397 0.87936 0.46706 0.0
C3813 C 0.79652 0.87008 0.48308 0.0
C3814 C 0.79384 0.87085 0.44857 0.0
C3815 C 0.79619 0.85283 0.44565 0.0
C3816 C 0.79927 0.84373 0.46168 0.0
H3817 H 0.79887 0.78046 0.34197 0.0
H3818 H 0.80182 0.79451 0.37505 0.0
C3819 C 0.79934 0.85221 0.48017 0.0
C3820 C 0.79548 0.84367 0.42587 0.0
H3821 H 0.77353 0.8073 0.39483 0.0
C3822 C 0.80727 0.85143 0.41361 0.0
C3823 C 0.78311 0.82755 0.41894 0.0
C3824 C 0.76945 0.81896 0.43096 0.0
C3825 C 0.80713 0.84349 0.39478 0.0
C3826 C 0.79474 0.82744 0.38788 0.0
C3827 C 0.78307 0.81956 0.40015 0.0
C3828 C 0.7933 0.819 0.36776 0.0
C3829 C 0.82038 0.8522 0.38243 0.0
C3830 C 0.78746 0.82803 0.35263 0.0
C3831 C 0.78588 0.82009 0.33372 0.0
C3832 C 0.79001 0.80287 0.32946 0.0
C3833 C 0.79578 0.79381 0.34467 0.0
C3834 C 0.79737 0.80178 0.36362 0.0
H3835 H 0.83148 0.86206 0.39099 0.0
H3836 H 0.82611 0.84183 0.3742 0.0
H3837 H 0.81344 0.8595 0.37208 0.0
H3838 H 0.78401 0.84121 0.35547 0.0
H3839 H 0.78152 0.82754 0.32241 0.0
H3840 H 0.47133 0.51237 0.80636 0.0
H3841 H 0.48639 0.51147 0.83828 0.0
H3842 H 0.43997 0.52352 0.86309 0.0
H3843 H 0.42468 0.52395 0.83119 0.0
H3844 H 0.49617 0.53698 0.86808 0.0
H3845 H 0.44834 0.48113 0.89007 0.0
H3846 H 0.44766 0.48638 0.86575 0.0
H3847 H 0.43765 0.4991 0.88307 0.0
C3848 C 0.46424 0.51462 0.8186 0.0
C3849 C 0.44671 0.51807 0.81617 0.0
C3850 C 0.47291 0.51416 0.83689 0.0
C3851 C 0.46428 0.5171 0.85322 0.0
C3852 C 0.44681 0.52069 0.8508 0.0
H3853 H 0.49145 0.53386 0.97507 0.0
H3854 H 0.47851 0.53106 0.94188 0.0
C3855 C 0.43808 0.52104 0.8325 0.0
C3856 C 0.47372 0.51697 0.87275 0.0
H3857 H 0.46944 0.49881 0.91486 0.0
C3858 C 0.4904 0.52847 0.87822 0.0
C3859 C 0.46633 0.50582 0.88607 0.0
C3860 C 0.4491 0.49228 0.88089 0.0
C3861 C 0.49949 0.52958 0.89672 0.0
C3862 C 0.49181 0.51882 0.91015 0.0
C3863 C 0.47532 0.50709 0.9046 0.0
C3864 C 0.50009 0.52029 0.93036 0.0
C3865 C 0.51695 0.54273 0.90201 0.0
C3866 C 0.51656 0.515 0.93509 0.0
C3867 C 0.52408 0.51657 0.95425 0.0
C3868 C 0.51527 0.52343 0.96905 0.0
C3869 C 0.49873 0.52857 0.96416 0.0
C3870 C 0.49123 0.52694 0.94512 0.0
H3871 H 0.51965 0.55214 0.89108 0.0
H3872 H 0.51692 0.55075 0.91596 0.0
H3873 H 0.52806 0.53513 0.90344 0.0
H3874 H 0.52357 0.50962 0.92399 0.0
H3875 H 0.53686 0.51258 0.9574 0.0
H3876 H 0.80915 0.18004 0.09485 0.0
H3877 H 0.81035 0.19538 0.12698 0.0
H3878 H 0.76416 0.15709 0.1369 0.0
H3879 H 0.76334 0.14131 0.10489 0.0
H3880 H 0.7775 0.20845 0.12969 0.0
H3881 H 0.79524 0.17065 0.19031 0.0
H3882 H 0.80327 0.16704 0.16736 0.0
H3883 H 0.7804 0.15843 0.17015 0.0
C3884 C 0.79991 0.17437 0.10433 0.0
C3885 C 0.78613 0.1597 0.09768 0.0
C3886 C 0.80057 0.1831 0.12258 0.0
C3887 C 0.78726 0.17736 0.13408 0.0
C3888 C 0.77465 0.16149 0.12822 0.0
H3889 H 0.75537 0.2587 0.21372 0.0
H3890 H 0.75352 0.23489 0.18704 0.0
C3891 C 0.77418 0.15253 0.11001 0.0
C3892 C 0.78417 0.19019 0.14961 0.0
H3893 H 0.78631 0.1985 0.19781 0.0
C3894 C 0.77937 0.20632 0.14463 0.0
C3895 C 0.78639 0.18705 0.16886 0.0
C3896 C 0.79169 0.16991 0.17464 0.0
C3897 C 0.7776 0.21995 0.15858 0.0
C3898 C 0.78024 0.21703 0.17791 0.0
C3899 C 0.78426 0.20054 0.18287 0.0
C3900 C 0.78099 0.2316 0.19327 0.0
C3901 C 0.77383 0.23764 0.15256 0.0
C3902 C 0.79702 0.2375 0.20529 0.0
C3903 C 0.79798 0.25071 0.22045 0.0
C3904 C 0.78297 0.25832 0.22365 0.0
C3905 C 0.76711 0.25305 0.21119 0.0
C3906 C 0.76605 0.2395 0.19613 0.0
H3907 H 0.77567 0.23885 0.13735 0.0
H3908 H 0.75978 0.23858 0.15443 0.0
H3909 H 0.7827 0.24924 0.1615 0.0
H3910 H 0.80872 0.23166 0.20309 0.0
H3911 H 0.81038 0.25474 0.22989 0.0
H3912 H 0.14557 0.51248 0.29626 0.0
H3913 H 0.12874 0.51472 0.32383 0.0
H3914 H 0.16258 0.56606 0.34486 0.0
H3915 H 0.1798 0.5636 0.3174 0.0
H3916 H 0.14449 0.52649 0.36933 0.0
H3917 H 0.10431 0.56795 0.32851 0.0
H3918 H 0.11554 0.55166 0.31688 0.0
H3919 H 0.12828 0.57266 0.32862 0.0
C3920 C 0.14959 0.52402 0.30704 0.0
C3921 C 0.16382 0.53788 0.30501 0.0
C3922 C 0.14009 0.52523 0.3227 0.0
C3923 C 0.14457 0.54049 0.33621 0.0
C3924 C 0.15919 0.55411 0.33455 0.0
H3925 H 0.10501 0.57561 0.43878 0.0
H3926 H 0.12259 0.56444 0.41485 0.0
C3927 C 0.16894 0.55273 0.319 0.0
C3928 C 0.13265 0.5431 0.35072 0.0
H3929 H 0.09842 0.5645 0.36001 0.0
C3930 C 0.13437 0.53476 0.36741 0.0
C3931 C 0.11924 0.55343 0.34767 0.0
C3932 C 0.11654 0.56191 0.32943 0.0
C3933 C 0.1232 0.53704 0.38164 0.0
C3934 C 0.11037 0.54822 0.37904 0.0
C3935 C 0.10833 0.556 0.36198 0.0
C3936 C 0.09962 0.55309 0.39418 0.0
C3937 C 0.12518 0.5274 0.39917 0.0
C3938 C 0.08096 0.55074 0.39028 0.0
C3939 C 0.07097 0.55752 0.40372 0.0
C3940 C 0.07954 0.56664 0.42124 0.0
C3941 C 0.09816 0.56861 0.42531 0.0
C3942 C 0.10816 0.56203 0.41179 0.0
H3943 H 0.13084 0.51503 0.39611 0.0
H3944 H 0.13454 0.53647 0.41043 0.0
H3945 H 0.11215 0.52357 0.40478 0.0
H3946 H 0.07417 0.54394 0.3767 0.0
H3947 H 0.05657 0.55557 0.40048 0.0
H3948 H 0.8112 0.83953 0.58121 0.0
H3949 H 0.80587 0.82982 0.61211 0.0
H3950 H 0.77833 0.87386 0.62395 0.0
H3951 H 0.78339 0.88368 0.59247 0.0
H3952 H 0.81707 0.84728 0.64749 0.0
H3953 H 0.74277 0.83089 0.63654 0.0
H3954 H 0.75604 0.83493 0.61714 0.0
H3955 H 0.75255 0.85356 0.63308 0.0
C3956 C 0.80393 0.84725 0.59022 0.0
C3957 C 0.79769 0.86245 0.58412 0.0
C3958 C 0.80092 0.84162 0.60803 0.0
C3959 C 0.79151 0.85091 0.62039 0.0
C3960 C 0.78534 0.86622 0.61456 0.0
H3961 H 0.76743 0.82431 0.7353 0.0
H3962 H 0.76993 0.83953 0.70622 0.0
C3963 C 0.78838 0.87193 0.59659 0.0
C3964 C 0.78875 0.84452 0.63943 0.0
H3965 H 0.75677 0.82658 0.66651 0.0
C3966 C 0.80386 0.84288 0.65166 0.0
C3967 C 0.77153 0.83871 0.64498 0.0
C3968 C 0.75476 0.83943 0.63223 0.0
C3969 C 0.80227 0.83546 0.66901 0.0
C3970 C 0.78508 0.82925 0.67434 0.0
C3971 C 0.76994 0.83134 0.66244 0.0
C3972 C 0.78268 0.81973 0.69169 0.0
C3973 C 0.81909 0.83423 0.68147 0.0
C3974 C 0.78866 0.80338 0.69308 0.0
C3975 C 0.78722 0.79469 0.70957 0.0
C3976 C 0.77962 0.80204 0.72512 0.0
C3977 C 0.77332 0.81827 0.7236 0.0
C3978 C 0.77472 0.82697 0.70698 0.0
H3979 H 0.83081 0.84394 0.67825 0.0
H3980 H 0.81749 0.83686 0.69683 0.0
H3981 H 0.82199 0.82043 0.67882 0.0
H3982 H 0.79463 0.79737 0.68142 0.0
H3983 H 0.79241 0.78233 0.71023 0.0
H3984 H 0.76133 0.46529 0.52836 0.0
H3985 H 0.73501 0.479 0.53145 0.0
H3986 H 0.71086 0.45179 0.47624 0.0
H3987 H 0.73677 0.43712 0.47373 0.0
H3988 H 0.72004 0.50086 0.51078 0.0
H3989 H 0.67262 0.4355 0.50873 0.0
H3990 H 0.69649 0.43682 0.51034 0.0
H3991 H 0.68398 0.43848 0.48795 0.0
C3992 C 0.75038 0.46232 0.51692 0.0
C3993 C 0.75076 0.45012 0.50095 0.0
C3994 C 0.73543 0.47013 0.51863 0.0
C3995 C 0.72094 0.46613 0.50417 0.0
C3996 C 0.72172 0.45461 0.48774 0.0
H3997 H 0.63776 0.52796 0.52928 0.0
H3998 H 0.65773 0.51431 0.51 0.0
C3999 C 0.73647 0.44636 0.48629 0.0
C4000 C 0.70489 0.4737 0.50695 0.0
H4001 H 0.6615 0.462 0.5154 0.0
C4002 C 0.70713 0.49243 0.51152 0.0
C4003 C 0.68815 0.46252 0.50783 0.0
C4004 C 0.68512 0.44221 0.5036 0.0
C4005 C 0.69348 0.50024 0.51845 0.0
C4006 C 0.67698 0.489 0.52 0.0
C4007 C 0.67426 0.47045 0.51408 0.0
C4008 C 0.66338 0.49584 0.53024 0.0
C4009 C 0.69729 0.52017 0.5254 0.0
C4010 C 0.65964 0.48945 0.5476 0.0
C4011 C 0.64808 0.49699 0.5585 0.0
C4012 C 0.64019 0.51105 0.55216 0.0
C4013 C 0.64364 0.51709 0.53448 0.0
C4014 C 0.65508 0.50941 0.52351 0.0
H4015 H 0.71174 0.52616 0.5263 0.0
H4016 H 0.68983 0.52736 0.51539 0.0
H4017 H 0.69283 0.52259 0.53971 0.0
H4018 H 0.66599 0.47891 0.55293 0.0
H4019 H 0.64532 0.49183 0.57185 0.0
H4020 H 0.22976 0.12977 0.51749 0.0
H4021 H 0.20275 0.10734 0.51914 0.0
H4022 H 0.17041 0.14144 0.49278 0.0
H4023 H 0.19727 0.16402 0.49117 0.0
H4024 H 0.17082 0.11406 0.53795 0.0
H4025 H 0.15548 0.09036 0.46048 0.0
H4026 H 0.17752 0.10167 0.47119 0.0
H4027 H 0.16019 0.11444 0.46674 0.0
C4028 C 0.21693 0.13247 0.51187 0.0
C4029 C 0.21575 0.14874 0.50413 0.0
C4030 C 0.20149 0.11964 0.51292 0.0
C4031 C 0.18458 0.12265 0.50597 0.0
C4032 C 0.18335 0.13875 0.49806 0.0
H4033 H 0.07426 0.07057 0.49476 0.0
H4034 H 0.10366 0.08851 0.49288 0.0
C4035 C 0.19873 0.15168 0.4972 0.0
C4036 C 0.16812 0.1092 0.50732 0.0
H4037 H 0.13329 0.08051 0.48019 0.0
C4038 C 0.16267 0.10657 0.52536 0.0
C4039 C 0.1575 0.09951 0.49088 0.0
C4040 C 0.16296 0.10146 0.4712 0.0
C4041 C 0.14651 0.09502 0.52735 0.0
C4042 C 0.13576 0.0854 0.51085 0.0
C4043 C 0.14149 0.08779 0.49285 0.0
C4044 C 0.118 0.07373 0.51175 0.0
C4045 C 0.14076 0.09388 0.54704 0.0
C4046 C 0.11616 0.05908 0.52269 0.0
C4047 C 0.0992 0.04879 0.52393 0.0
C4048 C 0.08378 0.05279 0.51403 0.0
C4049 C 0.0858 0.06706 0.50259 0.0
C4050 C 0.10266 0.07737 0.50148 0.0
H4051 H 0.14801 0.10542 0.55736 0.0
H4052 H 0.12617 0.09359 0.54678 0.0
H4053 H 0.1437 0.08128 0.55234 0.0
H4054 H 0.1278 0.05571 0.53044 0.0
H4055 H 0.09814 0.03813 0.53314 0.0
H4056 H 0.16977 1.0017 0.75405 0.0
H4057 H 0.18474 0.97563 0.75155 0.0
H4058 H 0.17422 0.96586 0.80879 0.0
H4059 H 0.15793 0.99092 0.81051 0.0
H4060 H 0.21301 0.96971 0.76898 0.0
H4061 H 0.15922 0.91602 0.78526 0.0
H4062 H 0.15526 0.93819 0.78128 0.0
H4063 H 0.16519 0.93412 0.80422 0.0
C4064 C 0.17035 0.99366 0.76587 0.0
C4065 C 0.16242 0.99797 0.78228 0.0
C4066 C 0.17899 0.97884 0.76453 0.0
C4067 C 0.18034 0.96837 0.77982 0.0
C4068 C 0.17276 0.97309 0.79645 0.0
H4069 H 0.26056 0.89829 0.78137 0.0
H4070 H 0.24291 0.92087 0.79166 0.0
C4071 C 0.16356 0.9875 0.7975 0.0
C4072 C 0.19039 0.95315 0.77855 0.0
H4073 H 0.18797 0.90841 0.78419 0.0
C4074 C 0.20744 0.95632 0.77229 0.0
C4075 C 0.18323 0.93556 0.7828 0.0
C4076 C 0.16466 0.93071 0.78858 0.0
C4077 C 0.21735 0.94249 0.76989 0.0
C4078 C 0.21036 0.92508 0.77453 0.0
C4079 C 0.19343 0.92186 0.78096 0.0
C4080 C 0.21981 0.90973 0.77112 0.0
C4081 C 0.23493 0.94648 0.76167 0.0
C4082 C 0.21228 0.89541 0.75699 0.0
C4083 C 0.22227 0.88251 0.75126 0.0
C4084 C 0.23986 0.88356 0.75973 0.0
C4085 C 0.24692 0.89707 0.77486 0.0
C4086 C 0.23694 0.91006 0.78055 0.0
H4087 H 0.23658 0.95937 0.75517 0.0
H4088 H 0.2461 0.94756 0.7732 0.0
H4089 H 0.23602 0.93543 0.75062 0.0
H4090 H 0.1991 0.89486 0.74955 0.0
H4091 H 0.21668 0.87233 0.73939 0.0
H4092 H 0.33942 0.96424 0.02053 0.0
H4093 H 0.36864 0.98355 0.0306 0.0
H4094 H 0.39214 0.95242 0.98925 0.0
H4095 H 0.36303 0.93287 0.9791 0.0
H4096 H 0.40309 0.95921 0.03813 0.0
H4097 H 0.4059 0.01531 0.99218 0.0
H4098 H 0.38515 1.00483 1.00007 0.0
H4099 H 0.39505 0.99275 0.9823 0.0
C4100 C 0.35073 0.96174 0.01328 0.0
C4101 C 0.34913 0.94695 0.99923 0.0
C4102 C 0.36732 0.97273 0.0191 0.0
C4103 C 0.38225 0.96913 0.01069 0.0
C4104 C 0.38055 0.95516 0.99584 0.0
H4105 H 0.4885 0.98982 0.00625 0.0
H4106 H 0.45875 0.97569 0.01299 0.0
C4107 C 0.36402 0.94406 0.99012 0.0
C4108 C 0.40002 0.97879 0.01848 0.0
H4109 H 0.43276 0.0127 0.01028 0.0
C4110 C 0.40957 0.97117 0.03245 0.0
C4111 C 0.40809 0.99423 0.01082 0.0
C4112 C 0.39809 1.00239 0.99552 0.0
C4113 C 0.42764 0.9782 0.03827 0.0
C4114 C 0.43593 0.99313 0.02995 0.0
C4115 C 0.42607 1.00136 0.01679 0.0
C4116 C 0.45528 0.99867 0.03194 0.0
C4117 C 0.43804 0.96922 0.05245 0.0
C4118 C 0.46313 0.01585 0.04103 0.0
C4119 C 0.47999 0.02386 0.03716 0.0
C4120 C 0.48884 0.01464 0.02422 0.0
C4121 C 0.48171 0.99689 0.01643 0.0
C4122 C 0.46492 0.98884 0.02039 0.0
H4123 H 0.42908 0.95989 0.06008 0.0
H4124 H 0.44668 0.96135 0.04481 0.0
H4125 H 0.4469 0.97953 0.06304 0.0
H4126 H 0.45561 0.02359 0.04971 0.0
H4127 H 0.48549 0.03768 0.04308 0.0
H4128 H 0.89484 0.58343 0.80549 0.0
H4129 H 0.88022 0.60911 0.80153 0.0
H4130 H 0.83074 0.57299 0.77949 0.0
H4131 H 0.84524 0.54699 0.7835 0.0
H4132 H 0.86325 0.61249 0.76329 0.0
H4133 H 0.81813 0.6125 0.82047 0.0
H4134 H 0.83774 0.6022 0.82219 0.0
H4135 H 0.81817 0.59132 0.80656 0.0
C4136 C 0.8808 0.58091 0.79996 0.0
C4137 C 0.87115 0.56329 0.79466 0.0
C4138 C 0.87249 0.59556 0.79787 0.0
C4139 C 0.85445 0.59275 0.79055 0.0
C4140 C 0.84463 0.57522 0.78552 0.0
H4141 H 0.78888 0.66352 0.74682 0.0
H4142 H 0.79953 0.63875 0.76148 0.0
C4143 C 0.85296 0.56048 0.78759 0.0
C4144 C 0.84669 0.60825 0.78592 0.0
H4145 H 0.81665 0.63414 0.79851 0.0
C4146 C 0.85311 0.61732 0.77099 0.0
C4147 C 0.83342 0.61416 0.79604 0.0
C4148 C 0.82645 0.60466 0.8123 0.0
C4149 C 0.84648 0.63231 0.76571 0.0
C4150 C 0.83343 0.63852 0.77602 0.0
C4151 C 0.82684 0.62934 0.79089 0.0
C4152 C 0.82612 0.65417 0.77078 0.0
C4153 C 0.85324 0.64112 0.74889 0.0
C4154 C 0.83748 0.671 0.77183 0.0
C4155 C 0.83162 0.68491 0.7631 0.0
C4156 C 0.81424 0.68215 0.75365 0.0
C4157 C 0.80244 0.66573 0.75386 0.0
C4158 C 0.80841 0.65172 0.76234 0.0
H4159 H 0.85995 0.63216 0.73991 0.0
H4160 H 0.84212 0.64487 0.73978 0.0
H4161 H 0.86313 0.65362 0.75417 0.0
H4162 H 0.85113 0.67307 0.77859 0.0
H4163 H 0.84069 0.6977 0.76348 0.0
H4164 H 0.80053 0.62274 0.02064 0.0
H4165 H 0.82643 0.60786 0.02206 0.0
H4166 H 0.86018 0.65725 0.01212 0.0
H4167 H 0.83432 0.67232 0.01081 0.0
H4168 H 0.8491 0.60346 0.99321 0.0
H4169 H 0.88666 0.64247 0.05977 0.0
H4170 H 0.86326 0.64235 0.05302 0.0
H4171 H 0.88 0.65571 0.04156 0.0
C4172 C 0.81349 0.63052 0.01895 0.0
C4173 C 0.81538 0.64877 0.01574 0.0
C4174 C 0.82826 0.62195 0.01967 0.0
C4175 C 0.84526 0.63147 0.01734 0.0
C4176 C 0.84724 0.64972 0.01423 0.0
H4177 H 0.94778 0.59514 0.03282 0.0
H4178 H 0.92531 0.61244 0.02145 0.0
C4179 C 0.83244 0.6583 0.01346 0.0
C4180 C 0.86079 0.62214 0.0179 0.0
H4181 H 0.90053 0.62102 0.04382 0.0
C4182 C 0.86041 0.60735 0.00421 0.0
C4183 C 0.87557 0.62731 0.03217 0.0
C4184 C 0.87644 0.64273 0.04758 0.0
C4185 C 0.87433 0.59747 0.00453 0.0
C4186 C 0.88887 0.6023 0.01915 0.0
C4187 C 0.88947 0.6174 0.03252 0.0
C4188 C 0.90266 0.59092 0.02211 0.0
C4189 C 0.8733 0.58194 0.98921 0.0
C4190 C 0.89746 0.57293 0.02566 0.0
C4191 C 0.91024 0.56308 0.03197 0.0
C4192 C 0.92846 0.57104 0.03492 0.0
C4193 C 0.93383 0.58863 0.03025 0.0
C4194 C 0.92099 0.59854 0.02395 0.0
H4195 H 0.86527 0.58392 0.97591 0.0
H4196 H 0.88681 0.58023 0.98583 0.0
H4197 H 0.86663 0.56931 0.99424 0.0
H4198 H 0.88344 0.56687 0.02483 0.0
H4199 H 0.9058 0.54966 0.03584 0.0
H4200 H 0.1499 0.11729 0.8088 0.0
H4201 H 0.17232 0.14416 0.80663 0.0
H4202 H 0.20615 0.11078 0.78172 0.0
H4203 H 0.1838 0.08374 0.78383 0.0
H4204 H 0.20991 0.1524 0.82252 0.0
H4205 H 0.20049 0.14857 0.74329 0.0
H4206 H 0.18417 0.13653 0.75656 0.0
H4207 H 0.20448 0.12848 0.75325 0.0
C4208 C 0.16211 0.11559 0.8029 0.0
C4209 C 0.16495 0.09827 0.79643 0.0
C4210 C 0.17494 0.131 0.80168 0.0
C4211 C 0.19081 0.12951 0.79378 0.0
C4212 C 0.19388 0.11227 0.78762 0.0
H4213 H 0.27505 0.21487 0.76623 0.0
H4214 H 0.25693 0.18556 0.76985 0.0
C4215 C 0.18112 0.09681 0.78896 0.0
C4216 C 0.20407 0.14606 0.79207 0.0
H4217 H 0.22236 0.17233 0.7597 0.0
C4218 C 0.21269 0.15674 0.80879 0.0
C4219 C 0.2078 0.15163 0.77415 0.0
C4220 C 0.1987 0.14083 0.75574 0.0
C4221 C 0.22491 0.17284 0.8081 0.0
C4222 C 0.22822 0.17878 0.79018 0.0
C4223 C 0.21984 0.16787 0.77344 0.0
C4224 C 0.23974 0.19654 0.7885 0.0
C4225 C 0.23434 0.18315 0.82665 0.0
C4226 C 0.23608 0.21256 0.79759 0.0
C4227 C 0.24663 0.22927 0.79586 0.0
C4228 C 0.26094 0.23048 0.78467 0.0
C4229 C 0.26442 0.21446 0.77529 0.0
C4230 C 0.25395 0.19767 0.77722 0.0
H4231 H 0.23519 0.1741 0.83802 0.0
H4232 H 0.24809 0.19003 0.82497 0.0
H4233 H 0.22666 0.19351 0.83152 0.0
H4234 H 0.22486 0.2122 0.80585 0.0
H4235 H 0.24334 0.24128 0.80311 0.0
H4236 H 0.35513 0.97723 0.30528 0.0
H4237 H 0.33382 0.94851 0.29949 0.0
H4238 H 0.37489 0.92205 0.27864 0.0
H4239 H 0.39639 0.9505 0.28511 0.0
H4240 H 0.32185 0.92569 0.26663 0.0
H4241 H 0.35805 0.89198 0.31976 0.0
H4242 H 0.36318 0.91603 0.31874 0.0
H4243 H 0.3722 0.90089 0.30286 0.0
C4244 C 0.35956 0.96522 0.29953 0.0
C4245 C 0.37736 0.96585 0.29585 0.0
C4246 C 0.34742 0.94894 0.29621 0.0
C4247 C 0.35297 0.93325 0.289 0.0
C4248 C 0.37058 0.93401 0.28472 0.0
H4249 H 0.31655 0.82272 0.25892 0.0
H4250 H 0.329 0.85441 0.25834 0.0
C4251 C 0.3828 0.95018 0.28838 0.0
C4252 C 0.34046 0.91594 0.28605 0.0
H4253 H 0.33627 0.87273 0.29673 0.0
C4254 C 0.32483 0.9141 0.2733 0.0
C4255 C 0.34436 0.90108 0.29515 0.0
C4256 C 0.36026 0.90263 0.31005 0.0
C4257 C 0.31344 0.89731 0.26854 0.0
C4258 C 0.31801 0.88229 0.27676 0.0
C4259 C 0.33315 0.88435 0.29017 0.0
C4260 C 0.30765 0.86403 0.27165 0.0
C4261 C 0.29696 0.89553 0.25446 0.0
C4262 C 0.29109 0.85917 0.27843 0.0
C4263 C 0.28369 0.84099 0.27835 0.0
C4264 C 0.29307 0.82764 0.27191 0.0
C4265 C 0.30892 0.83265 0.26373 0.0
C4266 C 0.3161 0.85075 0.26347 0.0
H4267 H 0.29672 0.90793 0.24731 0.0
H4268 H 0.29614 0.88388 0.24343 0.0
H4269 H 0.2849 0.89295 0.26205 0.0
H4270 H 0.2846 0.86934 0.28507 0.0
H4271 H 0.27137 0.8375 0.28466 0.0
H4272 H 0.55977 0.35757 0.62406 0.0
H4273 H 0.55629 0.38584 0.61137 0.0
H4274 H 0.55456 0.36009 0.55421 0.0
H4275 H 0.55785 0.33157 0.56694 0.0
H4276 H 0.57586 0.40858 0.59139 0.0
H4277 H 0.51137 0.38304 0.54636 0.0
H4278 H 0.52051 0.36994 0.56348 0.0
H4279 H 0.52885 0.37119 0.54068 0.0
C4280 C 0.55868 0.35779 0.60874 0.0
C4281 C 0.55911 0.34191 0.59668 0.0
C4282 C 0.55666 0.37418 0.60141 0.0
C4283 C 0.55476 0.37552 0.58162 0.0
C4284 C 0.55548 0.35973 0.56949 0.0
H4285 H 0.53513 0.46529 0.51363 0.0
H4286 H 0.53936 0.43643 0.52461 0.0
C4287 C 0.55759 0.34329 0.57685 0.0
C4288 C 0.55241 0.39344 0.57403 0.0
H4289 H 0.52519 0.4131 0.54408 0.0
C4290 C 0.56471 0.40946 0.58105 0.0
C4291 C 0.53803 0.39511 0.56035 0.0
C4292 C 0.52383 0.37897 0.55237 0.0
C4293 C 0.56332 0.42655 0.57477 0.0
C4294 C 0.54869 0.42836 0.5614 0.0
C4295 C 0.53643 0.41227 0.55429 0.0
C4296 C 0.54591 0.44654 0.55458 0.0
C4297 C 0.57817 0.44232 0.58216 0.0
C4298 C 0.54765 0.46245 0.56739 0.0
C4299 C 0.54554 0.47923 0.56099 0.0
C4300 C 0.54104 0.48087 0.5415 0.0
C4301 C 0.53865 0.46488 0.52873 0.0
C4302 C 0.54107 0.44815 0.5351 0.0
H4303 H 0.59089 0.43776 0.58628 0.0
H4304 H 0.58059 0.4519 0.57136 0.0
H4305 H 0.57454 0.44956 0.59513 0.0
H4306 H 0.55048 0.46199 0.58256 0.0
H4307 H 0.54721 0.49095 0.57148 0.0
H4308 H 0.44639 0.79172 0.42676 0.0
H4309 H 0.42028 0.79174 0.40384 0.0
H4310 H 0.43751 0.75299 0.36486 0.0
H4311 H 0.46404 0.75311 0.38772 0.0
H4312 H 0.42283 0.79511 0.35609 0.0
H4313 H 0.37985 0.73652 0.38076 0.0
H4314 H 0.39693 0.75149 0.39712 0.0
H4315 H 0.40326 0.73652 0.37902 0.0
C4316 C 0.44471 0.78314 0.41333 0.0
C4317 C 0.45743 0.77233 0.40926 0.0
C4318 C 0.42971 0.78323 0.40017 0.0
C4319 C 0.42676 0.77234 0.38256 0.0
C4320 C 0.43943 0.76155 0.37831 0.0
H4321 H 0.3287 0.74732 0.30023 0.0
H4322 H 0.35658 0.74635 0.32029 0.0
C4323 C 0.45464 0.76164 0.39142 0.0
C4324 C 0.41036 0.77225 0.36888 0.0
H4325 H 0.36664 0.75107 0.35685 0.0
C4326 C 0.41056 0.78543 0.35619 0.0
C4327 C 0.39431 0.75963 0.36885 0.0
C4328 C 0.39336 0.74517 0.38213 0.0
C4329 C 0.39528 0.78632 0.34355 0.0
C4330 C 0.37895 0.774 0.34388 0.0
C4331 C 0.37892 0.76065 0.35646 0.0
C4332 C 0.36186 0.77468 0.33138 0.0
C4333 C 0.39704 0.80024 0.32965 0.0
C4334 C 0.35506 0.7908 0.33081 0.0
C4335 C 0.33925 0.79138 0.31906 0.0
C4336 C 0.32944 0.77576 0.30791 0.0
C4337 C 0.33593 0.75957 0.30869 0.0
C4338 C 0.3519 0.75903 0.32022 0.0
H4339 H 0.41113 0.8042 0.32674 0.0
H4340 H 0.38861 0.79519 0.31589 0.0
H4341 H 0.39277 0.81257 0.33588 0.0
H4342 H 0.3619 0.803 0.3396 0.0
H4343 H 0.33455 0.80404 0.31884 0.0
H4344 H 0.08431 0.74039 0.08033 0.0
H4345 H 0.08039 0.70772 0.07225 0.0
H4346 H 0.02736 0.7011 0.08933 0.0
H4347 H 0.03139 0.7341 0.09797 0.0
H4348 H 0.07136 0.67802 0.09633 0.0
H4349 H 0.02115 0.67365 0.0331 0.0
H4350 H 0.03572 0.69462 0.04298 0.0
H4351 H 0.01709 0.68563 0.05495 0.0
C4352 C 0.07174 0.73209 0.08247 0.0
C4353 C 0.05817 0.74024 0.08982 0.0
C4354 C 0.06954 0.71322 0.07782 0.0
C4355 C 0.05351 0.70158 0.07988 0.0
C4356 C 0.03987 0.70957 0.08735 0.0
H4357 H 0.01522 0.58465 0.04543 0.0
H4358 H 0.01865 0.61686 0.05542 0.0
C4359 C 0.04222 0.72855 0.09242 0.0
C4360 C 0.05133 0.68129 0.07417 0.0
H4361 H 0.02924 0.64645 0.04088 0.0
C4362 C 0.06211 0.67116 0.08421 0.0
C4363 C 0.03932 0.67198 0.05835 0.0
C4364 C 0.02768 0.68193 0.04655 0.0
C4365 C 0.06101 0.6523 0.0792 0.0
C4366 C 0.04923 0.643 0.06311 0.0
C4367 C 0.0384 0.65319 0.05312 0.0
C4368 C 0.04749 0.62277 0.05676 0.0
C4369 C 0.07213 0.64247 0.09175 0.0
C4370 C 0.06244 0.61463 0.0537 0.0
C4371 C 0.0605 0.59582 0.04799 0.0
C4372 C 0.04354 0.58437 0.0449 0.0
C4373 C 0.02862 0.59265 0.04769 0.0
C4374 C 0.03055 0.61135 0.0534 0.0
H4375 H 0.07584 0.64982 0.10632 0.0
H4376 H 0.0649 0.62864 0.093 0.0
H4377 H 0.0847 0.64141 0.08549 0.0
H4378 H 0.07573 0.62283 0.05557 0.0
H4379 H 0.07234 0.59025 0.04621 0.0
H4380 H 0.04601 0.24984 0.88834 0.0
H4381 H 0.07316 0.25116 0.87245 0.0
H4382 H 0.0991 0.2973 0.91206 0.0
H4383 H 0.07241 0.29512 0.92874 0.0
H4384 H 0.0889 0.27359 0.85322 0.0
H4385 H 0.13924 0.27202 0.91414 0.0
H4386 H 0.11563 0.26785 0.9163 0.0
H4387 H 0.12809 0.29066 0.91824 0.0
C4388 C 0.05765 0.26005 0.89388 0.0
C4389 C 0.05709 0.27221 0.90999 0.0
C4390 C 0.07321 0.26086 0.88472 0.0
C4391 C 0.0886 0.2741 0.89114 0.0
C4392 C 0.0879 0.28645 0.90712 0.0
H4393 H 0.18489 0.3132 0.8384 0.0
H4394 H 0.1612 0.30857 0.8596 0.0
C4395 C 0.07249 0.28531 0.91661 0.0
C4396 C 0.10482 0.27557 0.88042 0.0
H4397 H 0.15067 0.28125 0.88561 0.0
C4398 C 0.10234 0.27504 0.86041 0.0
C4399 C 0.12259 0.27751 0.88953 0.0
C4400 C 0.12653 0.27685 0.9107 0.0
C4401 C 0.11685 0.27667 0.84945 0.0
C4402 C 0.13454 0.27899 0.8586 0.0
C4403 C 0.13714 0.27956 0.87856 0.0
C4404 C 0.1504 0.28101 0.84755 0.0
C4405 C 0.11313 0.27624 0.82808 0.0
C4406 C 0.15272 0.26689 0.8342 0.0
C4407 C 0.1663 0.2695 0.8222 0.0
C4408 C 0.178 0.28622 0.82343 0.0
C4409 C 0.17628 0.30007 0.83742 0.0
C4410 C 0.16267 0.29745 0.84944 0.0
H4411 H 0.09932 0.27818 0.82365 0.0
H4412 H 0.12276 0.28684 0.82275 0.0
H4413 H 0.11468 0.26294 0.82115 0.0
H4414 H 0.14362 0.254 0.83259 0.0
H4415 H 0.16717 0.2587 0.81136 0.0
H4416 H 0.55945 0.77371 0.92471 0.0
H4417 H 0.55879 0.74472 0.93703 0.0
H4418 H 0.53512 0.71724 0.88195 0.0
H4419 H 0.53604 0.74662 0.86935 0.0
H4420 H 0.52792 0.72156 0.93943 0.0
H4421 H 0.57173 0.68625 0.89744 0.0
H4422 H 0.57237 0.71026 0.89812 0.0
H4423 H 0.55459 0.69462 0.88368 0.0
C4424 C 0.55452 0.7615 0.91501 0.0
C4425 C 0.54784 0.76252 0.896 0.0
C4426 C 0.55408 0.74488 0.92214 0.0
C4427 C 0.54691 0.72866 0.91053 0.0
C4428 C 0.54099 0.7295 0.8912 0.0
H4429 H 0.51526 0.61993 0.94298 0.0
H4430 H 0.52394 0.64559 0.92498 0.0
C4431 C 0.54155 0.7463 0.88395 0.0
C4432 C 0.54422 0.71135 0.91947 0.0
H4433 H 0.55574 0.6696 0.9191 0.0
C4434 C 0.53408 0.71025 0.93498 0.0
C4435 C 0.55207 0.69643 0.91364 0.0
C4436 C 0.56343 0.69689 0.89741 0.0
C4437 C 0.53162 0.69486 0.94479 0.0
C4438 C 0.53982 0.6801 0.9393 0.0
C4439 C 0.54965 0.68097 0.92352 0.0
C4440 C 0.53773 0.66356 0.94954 0.0
C4441 C 0.51992 0.69444 0.96077 0.0
C4442 C 0.54343 0.66468 0.9692 0.0
C4443 C 0.53864 0.64992 0.97946 0.0
C4444 C 0.5282 0.63368 0.97026 0.0
C4445 C 0.52366 0.63214 0.95037 0.0
C4446 C 0.52849 0.64688 0.94009 0.0
H4447 H 0.51108 0.70457 0.96 0.0
H4448 H 0.51144 0.68087 0.96047 0.0
H4449 H 0.52851 0.69758 0.97466 0.0
H4450 H 0.55078 0.6773 0.97681 0.0
H4451 H 0.54196 0.65164 0.99482 0.0
H4452 H 0.08996 0.79132 0.69335 0.0
H4453 H 0.12029 0.79135 0.70751 0.0
H4454 H 0.10149 0.74234 0.73157 0.0
H4455 H 0.0708 0.74207 0.71681 0.0
H4456 H 0.13792 0.79401 0.74095 0.0
H4457 H 0.14121 0.72604 0.70662 0.0
H4458 H 0.12269 0.73706 0.7007 0.0
H4459 H 0.12396 0.72604 0.72206 0.0
C4460 C 0.09209 0.78062 0.70192 0.0
C4461 C 0.07756 0.76676 0.70389 0.0
C4462 C 0.10969 0.78061 0.71003 0.0
C4463 C 0.1138 0.76663 0.72041 0.0
C4464 C 0.09917 0.75313 0.72326 0.0
H4465 H 0.22136 0.75092 0.77156 0.0
H4466 H 0.18909 0.74806 0.76259 0.0
C4467 C 0.08137 0.75316 0.7151 0.0
C4468 C 0.13333 0.76651 0.72783 0.0
H4469 H 0.16674 0.74131 0.72708 0.0
C4470 C 0.14407 0.78238 0.73785 0.0
C4471 C 0.14191 0.75152 0.72405 0.0
C4472 C 0.13195 0.73425 0.71263 0.0
C4473 C 0.16258 0.78369 0.74398 0.0
C4474 C 0.1712 0.76883 0.7399 0.0
C4475 C 0.16045 0.75281 0.73031 0.0
C4476 C 0.19132 0.76996 0.74495 0.0
C4477 C 0.17272 0.80107 0.75506 0.0
C4478 C 0.20391 0.78291 0.73792 0.0
C4479 C 0.22253 0.78431 0.74277 0.0
C4480 C 0.22955 0.77284 0.75494 0.0
C4481 C 0.21691 0.75979 0.76189 0.0
C4482 C 0.19821 0.75824 0.75683 0.0
H4483 H 0.1636 0.80896 0.76186 0.0
H4484 H 0.18278 0.79845 0.76633 0.0
H4485 H 0.17985 0.8095 0.74518 0.0
H4486 H 0.19933 0.79203 0.72851 0.0
H4487 H 0.23145 0.79463 0.73698 0.0
H4488 H 0.05172 0.345 0.41882 0.0
H4489 H 0.04993 0.37308 0.43794 0.0
H4490 H 0.0443 0.39904 0.38682 0.0
H4491 H 0.04621 0.37074 0.36737 0.0
H4492 H 0.07301 0.41743 0.42455 0.0
H4493 H 1.00138 0.39747 0.4354 0.0
H4494 H 0.01547 0.38074 0.4355 0.0
H4495 H 1.00983 0.38977 0.41375 0.0
C4496 C 0.05004 0.35662 0.41152 0.0
C4497 C 0.04906 0.35548 0.39144 0.0
C4498 C 0.04905 0.37274 0.42256 0.0
C4499 C 0.04691 0.38825 0.41392 0.0
C4500 C 0.046 0.38729 0.39387 0.0
H4501 H 0.01893 0.4873 0.46778 0.0
H4502 H 0.0212 0.46054 0.44645 0.0
C4503 C 0.04709 0.37109 0.38274 0.0
C4504 C 0.04564 0.4053 0.426 0.0
H4505 H 0.01717 0.42499 0.45194 0.0
C4506 C 0.06078 0.41913 0.43046 0.0
C4507 C 0.02973 0.40757 0.43383 0.0
C4508 C 0.01307 0.3932 0.42944 0.0
C4509 C 0.06047 0.43504 0.44255 0.0
C4510 C 0.04461 0.43724 0.45065 0.0
C4511 C 0.02939 0.42345 0.44593 0.0
C4512 C 0.04344 0.4538 0.46378 0.0
C4513 C 0.07712 0.44949 0.44626 0.0
C4514 C 0.05496 0.45906 0.48095 0.0
C4515 C 0.0538 0.47459 0.49305 0.0
C4516 C 0.0411 0.4853 0.48835 0.0
C4517 C 0.02933 0.47982 0.47145 0.0
C4518 C 0.03047 0.46431 0.45936 0.0
H4519 H 0.08626 0.44808 0.43518 0.0
H4520 H 0.07374 0.46318 0.44673 0.0
H4521 H 0.08444 0.44831 0.46025 0.0
H4522 H 0.0648 0.45107 0.4851 0.0
H4523 H 0.06298 0.47832 0.50602 0.0
H4524 H 0.47997 0.25637 0.23443 0.0
H4525 H 0.45103 0.25921 0.24589 0.0
H4526 H 0.42834 0.26087 0.18824 0.0
H4527 H 0.45701 0.25802 0.17683 0.0
H4528 H 0.4298 0.28572 0.24451 0.0
H4529 H 0.39006 0.22314 0.20397 0.0
H4530 H 0.4142 0.22777 0.20648 0.0
H4531 H 0.40171 0.23811 0.18924 0.0
C4532 C 0.46879 0.25709 0.2241 0.0
C4533 C 0.47116 0.25665 0.20451 0.0
C4534 C 0.45208 0.25885 0.23074 0.0
C4535 C 0.43688 0.25999 0.21809 0.0
C4536 C 0.43932 0.2596 0.19855 0.0
H4537 H 0.32227 0.26627 0.2272 0.0
H4538 H 0.35148 0.26354 0.21693 0.0
C4539 C 0.45599 0.25801 0.19196 0.0
C4540 C 0.41874 0.26188 0.22516 0.0
H4541 H 0.37375 0.24301 0.21917 0.0
C4542 C 0.41761 0.27624 0.23899 0.0
C4543 C 0.40237 0.24987 0.21811 0.0
C4544 C 0.40208 0.23376 0.20376 0.0
C4545 C 0.40106 0.27913 0.2454 0.0
C4546 C 0.38467 0.26694 0.23854 0.0
C4547 C 0.38588 0.25255 0.22474 0.0
C4548 C 0.3663 0.26884 0.24518 0.0
C4549 C 0.4014 0.29587 0.2589 0.0
C4550 C 0.36392 0.27245 0.26466 0.0
C4551 C 0.347 0.27417 0.27059 0.0
C4552 C 0.33146 0.27211 0.2574 0.0
C4553 C 0.33368 0.26804 0.23798 0.0
C4554 C 0.35064 0.26646 0.23203 0.0
H4555 H 0.41296 0.30662 0.25745 0.0
H4556 H 0.38896 0.30137 0.25638 0.0
H4557 H 0.40284 0.29252 0.27381 0.0
H4558 H 0.37514 0.27367 0.27555 0.0
H4559 H 0.34609 0.27688 0.28569 0.0
H4560 H 0.59802 0.5405 0.32621 0.0
H4561 H 0.5843 0.53791 0.35591 0.0
H4562 H 0.63642 0.5437 0.38749 0.0
H4563 H 0.65031 0.54604 0.3577 0.0
H4564 H 0.59476 0.50977 0.38708 0.0
H4565 H 0.60311 0.58341 0.41031 0.0
H4566 H 0.60028 0.5747 0.38534 0.0
H4567 H 0.62087 0.57472 0.39973 0.0
C4568 C 0.60664 0.54136 0.33946 0.0
C4569 C 0.62533 0.54356 0.33949 0.0
C4570 C 0.59873 0.53978 0.35645 0.0
C4571 C 0.60929 0.54057 0.37397 0.0
C4572 C 0.62797 0.54302 0.37415 0.0
H4573 H 0.5778 0.51624 0.48658 0.0
H4574 H 0.59289 0.51843 0.45757 0.0
C4575 C 0.63591 0.54442 0.3571 0.0
C4576 C 0.60072 0.53877 0.39199 0.0
H4577 H 0.58927 0.56349 0.43031 0.0
C4578 C 0.59365 0.5215 0.3966 0.0
C4579 C 0.59905 0.55404 0.40431 0.0
C4580 C 0.60614 0.57285 0.39981 0.0
C4581 C 0.58504 0.51914 0.4132 0.0
C4582 C 0.58355 0.53444 0.42569 0.0
C4583 C 0.5905 0.55172 0.42092 0.0
C4584 C 0.57438 0.53286 0.44342 0.0
C4585 C 0.57719 0.50028 0.41699 0.0
C4586 C 0.55909 0.54046 0.44543 0.0
C4587 C 0.55046 0.53922 0.46199 0.0
C4588 C 0.55694 0.53046 0.47713 0.0
C4589 C 0.57237 0.523 0.47521 0.0
C4590 C 0.58096 0.52417 0.45855 0.0
H4591 H 0.57591 0.49036 0.4041 0.0
H4592 H 0.58603 0.49607 0.4284 0.0
H4593 H 0.56379 0.4998 0.42194 0.0
H4594 H 0.55373 0.54731 0.43409 0.0
H4595 H 0.53872 0.54528 0.46298 0.0
H4596 H 0.27141 0.91138 0.04819 0.0
H4597 H 0.26492 0.90105 0.07905 0.0
H4598 H 0.31387 0.88011 0.08331 0.0
H4599 H 0.32027 0.88998 0.05246 0.0
H4600 H 0.26895 0.85764 0.08338 0.0
H4601 H 0.30495 0.91391 0.13711 0.0
H4602 H 0.29508 0.9176 0.11388 0.0
H4603 H 0.31566 0.90928 0.11614 0.0
C4604 C 0.28089 0.90484 0.05592 0.0
C4605 C 0.29622 0.90122 0.04799 0.0
C4606 C 0.27716 0.89899 0.07342 0.0
C4607 C 0.28895 0.88991 0.0832 0.0
C4608 C 0.3047 0.88716 0.0758 0.0
H4609 H 0.32246 0.82283 0.14938 0.0
H4610 H 0.30674 0.8367 0.1248 0.0
C4611 C 0.30827 0.89269 0.05822 0.0
C4612 C 0.28437 0.8815 0.10022 0.0
H4613 H 0.29984 0.88435 0.14716 0.0
C4614 C 0.27505 0.86361 0.09755 0.0
C4615 C 0.2924 0.88947 0.11847 0.0
C4616 C 0.30252 0.90869 0.12171 0.0
C4617 C 0.2752 0.85281 0.11247 0.0
C4618 C 0.28482 0.86028 0.13027 0.0
C4619 C 0.2924 0.87873 0.13344 0.0
C4620 C 0.29075 0.84878 0.14414 0.0
C4621 C 0.26638 0.83318 0.10869 0.0
C4622 C 0.28677 0.85093 0.16299 0.0
C4623 C 0.29578 0.84307 0.17701 0.0
C4624 C 0.30908 0.83334 0.17231 0.0
C4625 C 0.31241 0.83051 0.15328 0.0
C4626 C 0.30326 0.83816 0.13926 0.0
H4627 H 0.25515 0.83096 0.09702 0.0
H4628 H 0.27635 0.82509 0.1042 0.0
H4629 H 0.2613 0.82816 0.12172 0.0
H4630 H 0.27734 0.85934 0.16695 0.0
H4631 H 0.29303 0.84535 0.19167 0.0
H4632 H 0.93513 0.51059 0.83988 0.0
H4633 H 0.95043 0.5095 0.87136 0.0
H4634 H 0.90714 0.52755 0.89757 0.0
H4635 H 0.89139 0.5284 0.86585 0.0
H4636 H 0.95063 0.54891 0.90096 0.0
H4637 H 0.93265 0.47915 0.92104 0.0
H4638 H 0.93425 0.48227 0.8963 0.0
H4639 H 0.91665 0.48975 0.90791 0.0
C4640 C 0.92864 0.51392 0.8523 0.0
C4641 C 0.91222 0.51975 0.85058 0.0
C4642 C 0.93733 0.51317 0.87019 0.0
C4643 C 0.92973 0.51834 0.88648 0.0
C4644 C 0.91293 0.52333 0.88494 0.0
H4645 H 0.99634 0.55265 0.99384 0.0
H4646 H 0.97269 0.54939 0.96754 0.0
C4647 C 0.90406 0.52385 0.86693 0.0
C4648 C 0.94087 0.52117 0.90472 0.0
H4649 H 0.95773 0.49844 0.93907 0.0
C4650 C 0.95203 0.53806 0.90962 0.0
C4651 C 0.94266 0.50674 0.91537 0.0
C4652 C 0.93091 0.4884 0.91003 0.0
C4653 C 0.96572 0.54073 0.92468 0.0
C4654 C 0.9677 0.5262 0.9353 0.0
C4655 C 0.95608 0.50946 0.93076 0.0
C4656 C 0.98195 0.52806 0.95105 0.0
C4657 C 0.97844 0.55871 0.92842 0.0
C4658 C 0.99469 0.51686 0.95046 0.0
C4659 C 1.00803 0.51841 0.96566 0.0
C4660 C 1.00865 0.53118 0.98149 0.0
C4661 C 0.9961 0.54264 0.98178 0.0
C4662 C 0.98265 0.54089 0.96677 0.0
H4663 H 0.97806 0.56642 0.91586 0.0
H4664 H 0.97454 0.56696 0.94054 0.0
H4665 H 0.9924 0.55692 0.9322 0.0
H4666 H 0.99422 0.50689 0.93831 0.0
H4667 H 0.01754 0.50939 0.96522 0.0
H4668 H 0.26234 0.1756 0.5735 0.0
H4669 H 0.26399 0.18727 0.60737 0.0
H4670 H 0.29055 0.2394 0.59522 0.0
H4671 H 0.28787 0.22807 0.56137 0.0
H4672 H 0.28891 0.20163 0.63583 0.0
H4673 H 0.25054 0.25482 0.61946 0.0
H4674 H 0.25317 0.23732 0.60148 0.0
H4675 H 0.27065 0.25689 0.60821 0.0
C4676 C 0.2687 0.18948 0.57816 0.0
C4677 C 0.27484 0.20098 0.56478 0.0
C4678 C 0.26958 0.19619 0.59752 0.0
C4679 C 0.27682 0.21447 0.60391 0.0
C4680 C 0.28417 0.22551 0.59068 0.0
H4681 H 0.2906 0.28444 0.71188 0.0
H4682 H 0.2897 0.27122 0.67866 0.0
C4683 C 0.28287 0.21895 0.57133 0.0
C4684 C 0.27636 0.22212 0.62417 0.0
H4685 H 0.26399 0.25669 0.65138 0.0
C4686 C 0.28335 0.21361 0.6392 0.0
C4687 C 0.26907 0.23777 0.62878 0.0
C4688 C 0.26027 0.24712 0.61363 0.0
C4689 C 0.28375 0.22052 0.65848 0.0
C4690 C 0.27663 0.23629 0.66306 0.0
C4691 C 0.26953 0.2447 0.64803 0.0
C4692 C 0.27658 0.24443 0.68322 0.0
C4693 C 0.29232 0.2111 0.67371 0.0
C4694 C 0.26906 0.23406 0.69691 0.0
C4695 C 0.26988 0.24155 0.71593 0.0
C4696 C 0.27766 0.25975 0.72158 0.0
C4697 C 0.28437 0.27042 0.70781 0.0
C4698 C 0.28391 0.26282 0.68885 0.0
H4699 H 0.30172 0.20294 0.66791 0.0
H4700 H 0.29973 0.22092 0.68569 0.0
H4701 H 0.28176 0.20176 0.67939 0.0
H4702 H 0.26269 0.22008 0.69295 0.0
H4703 H 0.26455 0.23309 0.72631 0.0
H4704 H 0.63818 0.54446 0.22701 0.0
H4705 H 0.62697 0.54251 0.19296 0.0
H4706 H 0.57276 0.5324 0.20698 0.0
H4707 H 0.58384 0.53507 0.24081 0.0
H4708 H 0.60534 0.51713 0.16675 0.0
H4709 H 0.57148 0.5754 0.17858 0.0
H4710 H 0.58685 0.56953 0.19684 0.0
H4711 H 0.56403 0.55756 0.19247 0.0
C4712 C 0.62388 0.54164 0.22277 0.0
C4713 C 0.6119 0.54016 0.23667 0.0
C4714 C 0.61746 0.54059 0.20329 0.0
C4715 C 0.59896 0.5379 0.19733 0.0
C4716 C 0.58706 0.53519 0.21114 0.0
H4717 H 0.53051 0.53536 0.09016 0.0
H4718 H 0.5431 0.53597 0.12352 0.0
C4719 C 0.59343 0.53656 0.23053 0.0
C4720 C 0.59198 0.53827 0.17685 0.0
H4721 H 0.56499 0.55861 0.14794 0.0
C4722 C 0.5966 0.52628 0.16263 0.0
C4723 C 0.5805 0.55015 0.17132 0.0
C4724 C 0.57555 0.564 0.18558 0.0
C4725 C 0.58968 0.52544 0.14328 0.0
C4726 C 0.57815 0.53732 0.13774 0.0
C4727 C 0.5737 0.54942 0.15199 0.0
C4728 C 0.57052 0.53745 0.11738 0.0
C4729 C 0.59437 0.5113 0.12916 0.0
C4730 C 0.58162 0.53868 0.10267 0.0
C4731 C 0.57435 0.53785 0.0836 0.0
C4732 C 0.55585 0.53644 0.07873 0.0
C4733 C 0.54481 0.53635 0.09346 0.0
C4734 C 0.55204 0.53668 0.11255 0.0
H4735 H 0.59809 0.49983 0.13628 0.0
H4736 H 0.58308 0.50591 0.11785 0.0
H4737 H 0.6061 0.51741 0.12234 0.0
H4738 H 0.59597 0.54019 0.10589 0.0
H4739 H 0.58327 0.53837 0.07261 0.0
H4740 H 0.27573 0.92083 0.93407 0.0
H4741 H 0.27503 0.90183 0.90388 0.0
H4742 H 0.317 0.87726 0.92928 0.0
H4743 H 0.31699 0.89533 0.95959 0.0
H4744 H 0.29958 0.89377 0.87893 0.0
H4745 H 0.27428 0.83572 0.9176 0.0
H4746 H 0.27634 0.85886 0.92774 0.0
H4747 H 0.29569 0.84836 0.928 0.0
C4748 C 0.28507 0.91167 0.93296 0.0
C4749 C 0.29622 0.9092 0.94898 0.0
C4750 C 0.28466 0.9009 0.91583 0.0
C4751 C 0.29564 0.88795 0.91475 0.0
C4752 C 0.30814 0.88693 0.93018 0.0
H4753 H 0.30508 0.79988 0.83474 0.0
H4754 H 0.3077 0.8227 0.86213 0.0
C4755 C 0.30819 0.89728 0.94738 0.0
C4756 C 0.29269 0.87416 0.89836 0.0
H4757 H 0.28079 0.82877 0.88606 0.0
C4758 C 0.29541 0.87956 0.88037 0.0
C4759 C 0.28704 0.85573 0.90055 0.0
C4760 C 0.28299 0.84931 0.91948 0.0
C4761 C 0.29313 0.86678 0.86437 0.0
C4762 C 0.28783 0.84837 0.86668 0.0
C4763 C 0.2849 0.843 0.8846 0.0
C4764 C 0.28561 0.83433 0.85069 0.0
C4765 C 0.29677 0.87293 0.84525 0.0
C4766 C 0.27198 0.83325 0.83573 0.0
C4767 C 0.27044 0.82031 0.82014 0.0
C4768 C 0.28243 0.8083 0.8196 0.0
C4769 C 0.29559 0.80894 0.835 0.0
C4770 C 0.29719 0.82196 0.85051 0.0
H4771 H 0.30424 0.88707 0.84669 0.0
H4772 H 0.30452 0.86402 0.83765 0.0
H4773 H 0.28386 0.87222 0.83631 0.0
H4774 H 0.26275 0.84257 0.83602 0.0
H4775 H 0.26014 0.81993 0.80839 0.0
H4776 H 0.89564 0.53133 0.74316 0.0
H4777 H 0.90117 0.53342 0.70984 0.0
H4778 H 0.95416 0.52252 0.72312 0.0
H4779 H 0.94898 0.52041 0.75617 0.0
H4780 H 0.94272 0.55638 0.69793 0.0
H4781 H 0.91565 0.48325 0.67634 0.0
H4782 H 0.90639 0.49653 0.69404 0.0
H4783 H 0.92727 0.48953 0.70003 0.0
C4784 C 0.90855 0.5296 0.73903 0.0
C4785 C 0.92188 0.52566 0.75229 0.0
C4786 C 0.91162 0.5308 0.72005 0.0
C4787 C 0.92802 0.52813 0.71431 0.0
C4788 C 0.94145 0.52467 0.72753 0.0
H4789 H 1.00674 0.51947 0.65283 0.0
H4790 H 0.98507 0.53054 0.67183 0.0
C4791 C 0.93843 0.52345 0.74637 0.0
C4792 C 0.93141 0.52797 0.69439 0.0
H4793 H 0.93772 0.49763 0.65844 0.0
C4794 C 0.94105 0.54372 0.68879 0.0
C4795 C 0.92912 0.5114 0.68271 0.0
C4796 C 0.91895 0.49417 0.68846 0.0
C4797 C 0.95014 0.54292 0.67262 0.0
C4798 C 0.94947 0.52597 0.66216 0.0
C4799 C 0.93815 0.51062 0.66656 0.0
C4800 C 0.96288 0.52298 0.64938 0.0
C4801 C 0.96144 0.55988 0.66768 0.0
C4802 C 0.95744 0.51502 0.63062 0.0
C4803 C 0.96967 0.50838 0.61993 0.0
C4804 C 0.98748 0.50955 0.62792 0.0
C4805 C 0.99304 0.51819 0.64647 0.0
C4806 C 0.98079 0.52484 0.65715 0.0
H4807 H 0.95633 0.57206 0.67295 0.0
H4808 H 0.97533 0.56112 0.67458 0.0
H4809 H 0.96179 0.55947 0.65202 0.0
H4810 H 0.94358 0.5132 0.6246 0.0
H4811 H 0.96499 0.50165 0.60569 0.0
H4812 H 0.26162 0.21259 0.47243 0.0
H4813 H 0.26325 0.22671 0.44278 0.0
H4814 H 0.28368 0.18175 0.41717 0.0
H4815 H 0.28125 0.16725 0.44642 0.0
H4816 H 0.29009 0.23908 0.42481 0.0
H4817 H 0.24684 0.18443 0.37505 0.0
H4818 H 0.24846 0.18413 0.40055 0.0
H4819 H 0.26528 0.17681 0.38719 0.0
C4820 C 0.26617 0.20557 0.46036 0.0
C4821 C 0.27106 0.18865 0.46177 0.0
C4822 C 0.26719 0.21371 0.44338 0.0
C4823 C 0.27326 0.20523 0.42738 0.0
C4824 C 0.27835 0.1884 0.4289 0.0
H4825 H 0.2947 0.23623 0.31452 0.0
H4826 H 0.293 0.22186 0.34402 0.0
C4827 C 0.27705 0.18012 0.44576 0.0
C4828 C 0.27488 0.21433 0.40949 0.0
H4829 H 0.2639 0.20799 0.36094 0.0
C4830 C 0.28423 0.23227 0.41088 0.0
C4831 C 0.26735 0.20558 0.39113 0.0
C4832 C 0.25627 0.18675 0.38838 0.0
C4833 C 0.28647 0.2415 0.39464 0.0
C4834 C 0.27899 0.2327 0.37633 0.0
C4835 C 0.26972 0.21477 0.3749 0.0
C4836 C 0.28044 0.24185 0.35852 0.0
C4837 C 0.29721 0.26048 0.39726 0.0
C4838 C 0.27383 0.25785 0.35659 0.0
C4839 C 0.27484 0.26613 0.33972 0.0
C4840 C 0.28233 0.25855 0.32423 0.0
C4841 C 0.28885 0.24248 0.32612 0.0
C4842 C 0.28788 0.23422 0.34302 0.0
H4843 H 0.30626 0.26327 0.41088 0.0
H4844 H 0.30536 0.26296 0.38531 0.0
H4845 H 0.28793 0.2702 0.39765 0.0
H4846 H 0.26761 0.26383 0.36804 0.0
H4847 H 0.26949 0.27837 0.33873 0.0
H4848 H 0.33141 0.62799 0.52899 0.0
H4849 H 0.35872 0.61584 0.53001 0.0
H4850 H 0.3417 0.58432 0.57491 0.0
H4851 H 0.31346 0.59589 0.57307 0.0
H4852 H 0.38536 0.61813 0.55844 0.0
H4853 H 0.35227 0.5463 0.53633 0.0
H4854 H 0.33992 0.56443 0.53534 0.0
H4855 H 0.34675 0.55731 0.55792 0.0
C4856 C 0.33352 0.6185 0.53913 0.0
C4857 C 0.32053 0.61281 0.55099 0.0
C4858 C 0.34912 0.61163 0.53976 0.0
C4859 C 0.35221 0.59921 0.55254 0.0
C4860 C 0.33939 0.59371 0.56476 0.0
H4861 H 0.43518 0.53966 0.52611 0.0
H4862 H 0.41579 0.5526 0.5463 0.0
C4863 C 0.32339 0.60029 0.56376 0.0
C4864 C 0.36864 0.59173 0.5519 0.0
H4865 H 0.38277 0.55404 0.53427 0.0
C4866 C 0.38494 0.60402 0.55362 0.0
C4867 C 0.36799 0.57331 0.54577 0.0
C4868 C 0.35082 0.55953 0.54361 0.0
C4869 C 0.4003 0.59869 0.54769 0.0
C4870 C 0.39924 0.5806 0.53998 0.0
C4871 C 0.38343 0.56796 0.54005 0.0
C4872 C 0.41349 0.5748 0.52977 0.0
C4873 C 0.41721 0.61266 0.54892 0.0
C4874 C 0.41884 0.58319 0.5139 0.0
C4875 C 0.43046 0.57617 0.50258 0.0
C4876 C 0.43653 0.56034 0.50664 0.0
C4877 C 0.43124 0.55213 0.52274 0.0
C4878 C 0.41999 0.55941 0.53427 0.0
H4879 H 0.41787 0.62337 0.56097 0.0
H4880 H 0.42933 0.60653 0.55074 0.0
H4881 H 0.41728 0.61927 0.5356 0.0
H4882 H 0.4135 0.59478 0.50982 0.0
H4883 H 0.43437 0.58295 0.49045 0.0
H4884 H 0.84228 0.93299 0.54681 0.0
H4885 H 0.86962 0.95574 0.54751 0.0
H4886 H 0.8935 0.91694 0.51548 0.0
H4887 H 0.86649 0.89417 0.51481 0.0
H4888 H 0.91539 0.93584 0.54882 0.0
H4889 H 0.88841 0.98218 0.50216 0.0
H4890 H 0.87571 0.97508 0.52111 0.0
H4891 H 0.87781 0.95883 0.50173 0.0
C4892 C 0.85332 0.92932 0.53984 0.0
C4893 C 0.85215 0.91168 0.53081 0.0
C4894 C 0.86891 0.94237 0.54018 0.0
C4895 C 0.88355 0.93807 0.5314 0.0
C4896 C 0.88238 0.92055 0.52236 0.0
H4897 H 0.97678 1.00519 0.49803 0.0
H4898 H 0.94746 0.98646 0.50004 0.0
C4899 C 0.86689 0.90752 0.52203 0.0
C4900 C 0.9004 0.95149 0.53204 0.0
H4901 H 0.9186 0.99056 0.51511 0.0
C4902 C 0.91611 0.94787 0.54154 0.0
C4903 C 0.90133 0.96702 0.52231 0.0
C4904 C 0.88499 0.97107 0.51111 0.0
C4905 C 0.93278 0.95918 0.54142 0.0
C4906 C 0.93373 0.97494 0.53191 0.0
C4907 C 0.91793 0.97862 0.52252 0.0
C4908 C 0.95106 0.9873 0.53086 0.0
C4909 C 0.94921 0.95363 0.55085 0.0
C4910 C 0.96272 0.99447 0.54747 0.0
C4911 C 0.97963 1.00464 0.54623 0.0
C4912 C 0.98489 0.00852 0.52844 0.0
C4913 C 0.9729 1.0024 0.5119 0.0
C4914 C 0.95618 0.99171 0.51308 0.0
H4915 H 0.94688 0.93892 0.5522 0.0
H4916 H 0.96083 0.95691 0.54273 0.0
H4917 H 0.95265 0.96087 0.56546 0.0
H4918 H 0.95889 0.99195 0.56141 0.0
H4919 H 0.98865 0.00946 0.55918 0.0
H4920 H 0.9223 0.07729 0.28709 0.0
H4921 H 0.90677 0.10285 0.28885 0.0
H4922 H 0.87178 0.07849 0.23804 0.0
H4923 H 0.88645 0.05222 0.2372 0.0
H4924 H 0.90201 0.1279 0.26883 0.0
H4925 H 0.83476 0.08681 0.27039 0.0
H4926 H 0.85461 0.07706 0.2717 0.0
H4927 H 0.84396 0.08078 0.24895 0.0
C4928 C 0.91129 0.07742 0.27629 0.0
C4929 C 0.90546 0.06271 0.2621 0.0
C4930 C 0.9024 0.09205 0.27729 0.0
C4931 C 0.8877 0.09249 0.26389 0.0
C4932 C 0.88255 0.07822 0.24905 0.0
H4933 H 0.81802 0.17099 0.24975 0.0
H4934 H 0.83793 0.14939 0.24382 0.0
C4935 C 0.89108 0.06329 0.24841 0.0
C4936 C 0.87779 0.10779 0.26568 0.0
H4937 H 0.83597 0.1178 0.26687 0.0
C4938 C 0.88757 0.12562 0.26846 0.0
C4939 C 0.8589 0.10497 0.2654 0.0
C4940 C 0.84749 0.08637 0.26416 0.0
C4941 C 0.87904 0.14055 0.27081 0.0
C4942 C 0.86023 0.13764 0.27007 0.0
C4943 C 0.85041 0.11994 0.26716 0.0
C4944 C 0.85035 0.15266 0.27301 0.0
C4945 C 0.89013 0.15936 0.27408 0.0
C4946 C 0.85098 0.16184 0.29131 0.0
C4947 C 0.83956 0.17405 0.2947 0.0
C4948 C 0.82749 0.17735 0.2798 0.0
C4949 C 0.82743 0.1688 0.26135 0.0
C4950 C 0.83871 0.15646 0.25799 0.0
H4951 H 0.90413 0.15955 0.27101 0.0
H4952 H 0.8841 0.16842 0.26503 0.0
H4953 H 0.89041 0.16487 0.28921 0.0
H4954 H 0.85966 0.1589 0.30314 0.0
H4955 H 0.8396 0.18033 0.3091 0.0
H4956 H 0.72838 0.09681 0.01944 0.0
H4957 H 0.69832 0.07818 0.01585 0.0
H4958 H 0.68004 0.11985 0.05027 0.0
H4959 H 0.70981 0.13881 0.05321 0.0
H4960 H 0.67625 0.06492 0.04211 0.0
H4961 H 0.64686 0.11344 1.00088 0.0
H4962 H 0.6707 0.1149 0.00586 0.0
H4963 H 0.65821 0.12349 0.02374 0.0
C4964 C 0.71787 0.10195 0.02616 0.0
C4965 C 0.72111 0.11933 0.03618 0.0
C4966 C 0.70084 0.09132 0.02418 0.0
C4967 C 0.68702 0.09791 0.03243 0.0
C4968 C 0.6905 0.11485 0.04334 0.0
H4969 H 0.57748 0.06918 0.04246 0.0
H4970 H 0.6092 0.08206 0.04323 0.0
C4971 C 0.70741 0.12564 0.04497 0.0
C4972 C 0.66875 0.08744 0.02903 0.0
H4973 H 0.62638 0.0903 0.01188 0.0
C4974 C 0.66531 0.07031 0.03534 0.0
C4975 C 0.65471 0.09456 0.01996 0.0
C4976 C 0.65781 0.11253 0.01205 0.0
C4977 C 0.64783 0.06044 0.03372 0.0
C4978 C 0.63375 0.06795 0.02536 0.0
C4979 C 0.63733 0.08472 0.01836 0.0
C4980 C 0.61496 0.05956 0.02518 0.0
C4981 C 0.64447 0.0425 0.04166 0.0
C4982 C 0.60791 0.04271 0.01474 0.0
C4983 C 0.58986 0.03526 0.01452 0.0
C4984 C 0.57886 0.04491 0.0243 0.0
C4985 C 0.58586 0.0618 0.03454 0.0
C4986 C 0.60388 0.06905 0.03508 0.0
H4987 H 0.65639 0.04024 0.05073 0.0
H4988 H 0.633 0.04158 0.05022 0.0
H4989 H 0.6411 0.03147 0.02968 0.0
H4990 H 0.61629 0.03544 0.00674 0.0
H4991 H 0.58446 0.02213 0.00665 0.0
H4992 H 0.19233 0.48476 0.27629 0.0
H4993 H 0.20389 0.45688 0.27369 0.0
H4994 H 0.22774 0.47179 0.2233 0.0
H4995 H 0.21665 0.50049 0.22646 0.0
H4996 H 0.19668 0.42933 0.24437 0.0
H4997 H 0.26938 0.46006 0.25677 0.0
H4998 H 0.25244 0.47326 0.26108 0.0
H4999 H 0.25602 0.46626 0.23707 0.0
C5000 C 0.20017 0.48214 0.26474 0.0
C5001 C 0.20377 0.49462 0.25161 0.0
C5002 C 0.20664 0.46619 0.26318 0.0
C5003 C 0.21658 0.46227 0.24827 0.0
C5004 C 0.22024 0.47473 0.23503 0.0
H5005 H 0.27539 0.37692 0.26945 0.0
H5006 H 0.26066 0.39518 0.24882 0.0
C5007 C 0.21401 0.49103 0.23684 0.0
C5008 C 0.22334 0.44524 0.24753 0.0
H5009 H 0.2613 0.42945 0.25988 0.0
C5010 C 0.21085 0.42918 0.24722 0.0
C5011 C 0.24181 0.44515 0.25109 0.0
C5012 C 0.25576 0.46207 0.25163 0.0
C5013 C 0.21625 0.41338 0.2522 0.0
C5014 C 0.2346 0.41375 0.25753 0.0
C5015 C 0.24721 0.42927 0.25587 0.0
C5016 C 0.24087 0.39952 0.26769 0.0
C5017 C 0.20215 0.39681 0.25271 0.0
C5018 C 0.23431 0.39554 0.28492 0.0
C5019 C 0.24244 0.3848 0.29658 0.0
C5020 C 0.25758 0.37822 0.29146 0.0
C5021 C 0.26362 0.38155 0.27376 0.0
C5022 C 0.25529 0.39208 0.26196 0.0
H5023 H 0.19066 0.39624 0.24165 0.0
H5024 H 0.2076 0.38422 0.25049 0.0
H5025 H 0.19696 0.39746 0.26679 0.0
H5026 H 0.22352 0.40155 0.28991 0.0
H5027 H 0.23728 0.38225 0.30995 0.0
H5028 H 0.26596 0.43404 0.05754 0.0
H5029 H 0.23995 0.4488 0.05697 0.0
H5030 H 0.20949 0.40435 0.01788 0.0
H5031 H 0.23515 0.3892 0.01916 0.0
H5032 H 0.22436 0.46131 0.02878 0.0
H5033 H 0.1729 0.41011 0.05258 0.0
H5034 H 0.19622 0.40841 0.05469 0.0
H5035 H 0.18212 0.4008 0.03247 0.0
C5036 C 0.25358 0.42725 0.04915 0.0
C5037 C 0.25257 0.41038 0.03853 0.0
C5038 C 0.23872 0.43571 0.04879 0.0
C5039 C 0.22255 0.4276 0.03765 0.0
C5040 C 0.22152 0.41068 0.02712 0.0
H5041 H 0.13244 0.46633 0.98696 0.0
H5042 H 0.15468 0.4486 0.99777 0.0
C5043 C 0.23629 0.40206 0.02775 0.0
C5044 C 0.20736 0.43752 0.03575 0.0
H5045 H 0.16203 0.43308 0.0359 0.0
C5046 C 0.2108 0.45519 0.03067 0.0
C5047 C 0.18959 0.42964 0.03822 0.0
C5048 C 0.18503 0.41127 0.04499 0.0
C5049 C 0.19698 0.46489 0.02733 0.0
C5050 C 0.1792 0.45675 0.02909 0.0
C5051 C 0.1757 0.43926 0.03452 0.0
C5052 C 0.16406 0.46596 0.02416 0.0
C5053 C 0.2014 0.48362 0.02137 0.0
C5054 C 0.16159 0.48123 0.03573 0.0
C5055 C 0.14876 0.49123 0.02967 0.0
C5056 C 0.1384 0.48619 0.01187 0.0
C5057 C 0.14036 0.47048 1.0007 0.0
C5058 C 0.15299 0.46036 0.00688 0.0
H5059 H 0.21542 0.48701 0.01804 0.0
H5060 H 0.19225 0.48495 0.00863 0.0
H5061 H 0.19951 0.49365 0.03311 0.0
H5062 H 0.16999 0.48574 0.04914 0.0
H5063 H 0.14748 0.50334 0.03846 0.0
H5064 H 0.9231 0.94425 0.25969 0.0
H5065 H 0.90092 0.9167 0.25889 0.0
H5066 H 0.86051 0.94848 0.26904 0.0
H5067 H 0.88261 0.97622 0.26903 0.0
H5068 H 0.88334 0.90434 0.28574 0.0
H5069 H 0.83326 0.91287 0.22695 0.0
H5070 H 0.855 0.92733 0.2318 0.0
H5071 H 0.83732 0.93115 0.24581 0.0
C5072 C 0.90945 0.94542 0.26153 0.0
C5073 C 0.90467 0.9625 0.26438 0.0
C5074 C 0.89673 0.9296 0.2611 0.0
C5075 C 0.87888 0.93034 0.26369 0.0
C5076 C 0.87402 0.9474 0.26648 0.0
H5077 H 0.79328 0.84274 0.28395 0.0
H5078 H 0.8119 0.87234 0.28246 0.0
C5079 C 0.88672 0.9633 0.26659 0.0
C5080 C 0.86583 0.91321 0.26441 0.0
H5081 H 0.82505 0.8884 0.24498 0.0
C5082 C 0.87064 0.90091 0.27675 0.0
C5083 C 0.84915 0.90858 0.25274 0.0
C5084 C 0.84343 0.92059 0.23845 0.0
C5085 C 0.8594 0.88425 0.27766 0.0
C5086 C 0.84281 0.87968 0.26603 0.0
C5087 C 0.83777 0.892 0.25393 0.0
C5088 C 0.83085 0.86188 0.26589 0.0
C5089 C 0.8653 0.87153 0.29105 0.0
C5090 C 0.83519 0.84621 0.25682 0.0
C5091 C 0.82443 0.82929 0.25736 0.0
C5092 C 0.80911 0.82765 0.26709 0.0
C5093 C 0.80471 0.84346 0.27598 0.0
C5094 C 0.81542 0.86041 0.27527 0.0
H5095 H 0.87726 0.87807 0.30109 0.0
H5096 H 0.8543 0.86642 0.2994 0.0
H5097 H 0.86862 0.85971 0.2826 0.0
H5098 H 0.84704 0.84705 0.24949 0.0
H5099 H 0.82831 0.81747 0.25041 0.0
H5100 H 0.72081 0.08192 0.775 0.0
H5101 H 0.74151 0.11105 0.77744 0.0
H5102 H 0.69766 0.13652 0.75884 0.0
H5103 H 0.67695 0.10775 0.75683 0.0
H5104 H 0.74802 0.13692 0.74926 0.0
H5105 H 0.71855 0.16335 0.8122 0.0
H5106 H 0.71497 0.13956 0.80385 0.0
H5107 H 0.70254 0.15414 0.7919 0.0
C5108 C 0.71569 0.09376 0.77135 0.0
C5109 C 0.69733 0.09282 0.76617 0.0
C5110 C 0.72746 0.11027 0.77271 0.0
C5111 C 0.7209 0.1258 0.76871 0.0
C5112 C 0.70277 0.12464 0.76242 0.0
H5113 H 0.74528 0.23677 0.76744 0.0
H5114 H 0.73373 0.20498 0.76889 0.0
C5115 C 0.69101 0.10828 0.76133 0.0
C5116 C 0.73268 0.14352 0.77191 0.0
H5117 H 0.73724 0.1849 0.79706 0.0
C5118 C 0.74598 0.14742 0.75987 0.0
C5119 C 0.7298 0.15696 0.78585 0.0
C5120 C 0.71579 0.15328 0.79931 0.0
C5121 C 0.75576 0.16498 0.76053 0.0
C5122 C 0.75236 0.17862 0.77401 0.0
C5123 C 0.73978 0.17436 0.78678 0.0
C5124 C 0.75988 0.19778 0.77364 0.0
C5125 C 0.76875 0.16898 0.74608 0.0
C5126 C 0.77841 0.20421 0.77601 0.0
C5127 C 0.78506 0.22237 0.77472 0.0
C5128 C 0.77317 0.23421 0.77166 0.0
C5129 C 0.75468 0.22787 0.77003 0.0
C5130 C 0.74808 0.20974 0.77082 0.0
H5131 H 0.76699 0.1578 0.73431 0.0
H5132 H 0.76716 0.18158 0.73983 0.0
H5133 H 0.78263 0.17086 0.75324 0.0
H5134 H 0.78767 0.19521 0.77869 0.0
H5135 H 0.79939 0.22717 0.77608 0.0
loop_
_geom_bond_atom_site_label_1
_geom_bond_atom_site_label_2
_geom_bond_distance
_geom_bond_site_symmetry_2
_ccdc_geom_bond_type
Co0 O1 2.216 . S
Co0 O2 2.091 . S
Co0 O4 2.004 . S
Co0 O10 2.021 . S
Co0 O12 2.137 . S
Co0 O13 2.244 . S
O1 Co0 2.216 . S
O1 C8 1.247 . S
O2 Co0 2.091 . S
O2 C8 1.261 . S
C3 O12 1.247 . S
C3 O13 1.272 . S
O4 Co0 2.004 . S
O4 C9 1.259 1_455 S
Co5 O6 2.061 1_455 S
Co5 O11 2.052 . S
Co5 O13 2.135 . S
O6 Co5 2.061 1_655 S
O6 C9 1.235 . S
C7 O10 1.238 . S
C7 O11 1.241 . S
C8 O1 1.247 . S
C8 O2 1.261 . S
C9 O4 1.259 1_655 S
C9 O6 1.235 . S
O10 Co0 2.021 . S
O10 C7 1.238 . S
O11 Co5 2.052 . S
O11 C7 1.241 . S
O12 Co0 2.137 . S
O12 C3 1.247 . S
O13 Co0 2.244 . S
O13 C3 1.272 . S
O13 Co5 2.135 . S
Co14 O15 2.216 1_455 S
Co14 O16 2.091 1_455 S
Co14 O18 2.004 . S
Co14 O24 2.021 . S
Co14 O26 2.137 . S
Co14 O27 2.244 . S
O15 Co14 2.216 1_655 S
O15 C22 1.247 . S
O16 Co14 2.091 1_655 S
O16 C22 1.261 . S
C17 O26 1.247 . S
C17 O27 1.272 . S
O18 Co14 2.004 . S
O18 C23 1.259 . S
Co19 O20 2.061 . S
Co19 O25 2.052 . S
Co19 O27 2.135 . S
O20 Co19 2.061 . S
O20 C23 1.235 . S
C21 O24 1.238 . S
C21 O25 1.241 . S
C22 O15 1.247 . S
C22 O16 1.261 . S
C23 O18 1.259 . S
C23 O20 1.235 . S
O24 Co14 2.021 . S
O24 C21 1.238 . S
O25 Co19 2.052 . S
O25 C21 1.241 . S
O26 Co14 2.137 . S
O26 C17 1.247 . S
O27 Co14 2.244 . S
O27 C17 1.272 . S
O27 Co19 2.135 . S
Co28 O29 2.216 . S
Co28 O30 2.091 . S
Co28 O32 2.004 . S
Co28 O38 2.021 . S
Co28 O40 2.137 . S
Co28 O41 2.244 . S
O29 Co28 2.216 . S
O29 C36 1.247 . S
O30 Co28 2.091 . S
O30 C36 1.261 . S
C31 O40 1.247 . S
C31 O41 1.272 . S
O32 Co28 2.004 . S
O32 C37 1.259 . S
Co33 O34 2.061 . S
Co33 O39 2.052 . S
Co33 O41 2.135 . S
O34 Co33 2.061 . S
O34 C37 1.235 . S
C35 O38 1.238 . S
C35 O39 1.241 . S
C36 O29 1.247 . S
C36 O30 1.261 . S
C37 O32 1.259 . S
C37 O34 1.235 . S
O38 Co28 2.021 . S
O38 C35 1.238 . S
O39 Co33 2.052 . S
O39 C35 1.241 . S
O40 Co28 2.137 . S
O40 C31 1.247 . S
O41 Co28 2.244 . S
O41 C31 1.272 . S
O41 Co33 2.135 . S
Co42 O43 2.216 . S
Co42 O44 2.091 . S
Co42 O46 2.004 . S
Co42 O52 2.021 . S
Co42 O54 2.137 . S
Co42 O55 2.244 . S
O43 Co42 2.216 . S
O43 C50 1.247 . S
O44 Co42 2.091 . S
O44 C50 1.261 . S
C45 O54 1.247 . S
C45 O55 1.272 . S
O46 Co42 2.004 . S
O46 C51 1.259 . S
Co47 O48 2.061 . S
Co47 O53 2.052 . S
Co47 O55 2.135 . S
O48 Co47 2.061 . S
O48 C51 1.235 . S
C49 O52 1.238 . S
C49 O53 1.241 . S
C50 O43 1.247 . S
C50 O44 1.261 . S
C51 O46 1.259 . S
C51 O48 1.235 . S
O52 Co42 2.021 . S
O52 C49 1.238 . S
O53 Co47 2.052 . S
O53 C49 1.241 . S
O54 Co42 2.137 . S
O54 C45 1.247 . S
O55 Co42 2.244 . S
O55 C45 1.272 . S
O55 Co47 2.135 . S
Co56 O57 2.216 . S
Co56 O58 2.091 . S
Co56 O60 2.004 . S
Co56 O66 2.021 . S
Co56 O68 2.137 . S
Co56 O69 2.244 . S
O57 Co56 2.216 . S
O57 C64 1.247 . S
O58 Co56 2.091 . S
O58 C64 1.261 . S
C59 O68 1.247 . S
C59 O69 1.272 . S
O60 Co56 2.004 . S
O60 C65 1.259 . S
Co61 O62 2.061 . S
Co61 O67 2.052 . S
Co61 O69 2.135 . S
O62 Co61 2.061 . S
O62 C65 1.235 . S
C63 O66 1.238 . S
C63 O67 1.241 . S
C64 O57 1.247 . S
C64 O58 1.261 . S
C65 O60 1.259 . S
C65 O62 1.235 . S
O66 Co56 2.021 . S
O66 C63 1.238 . S
O67 Co61 2.052 . S
O67 C63 1.241 . S
O68 Co56 2.137 . S
O68 C59 1.247 . S
O69 Co56 2.244 . S
O69 C59 1.272 . S
O69 Co61 2.135 . S
Co70 O71 2.216 . S
Co70 O72 2.091 . S
Co70 O74 2.004 . S
Co70 O80 2.021 . S
Co70 O82 2.137 . S
Co70 O83 2.244 . S
O71 Co70 2.216 . S
O71 C78 1.247 . S
O72 Co70 2.091 . S
O72 C78 1.261 . S
C73 O82 1.247 . S
C73 O83 1.272 . S
O74 Co70 2.004 . S
O74 C79 1.259 . S
Co75 O76 2.061 . S
Co75 O81 2.052 . S
Co75 O83 2.135 . S
O76 Co75 2.061 . S
O76 C79 1.235 . S
C77 O80 1.238 . S
C77 O81 1.241 . S
C78 O71 1.247 . S
C78 O72 1.261 . S
C79 O74 1.259 . S
C79 O76 1.235 . S
O80 Co70 2.021 . S
O80 C77 1.238 . S
O81 Co75 2.052 . S
O81 C77 1.241 . S
O82 Co70 2.137 . S
O82 C73 1.247 . S
O83 Co70 2.244 . S
O83 C73 1.272 . S
O83 Co75 2.135 . S
Co84 O85 2.216 . S
Co84 O86 2.091 . S
Co84 O88 2.004 . S
Co84 O94 2.021 . S
Co84 O96 2.137 . S
Co84 O97 2.244 . S
O85 Co84 2.216 . S
O85 C92 1.247 . S
O86 Co84 2.091 . S
O86 C92 1.261 . S
C87 O96 1.247 . S
C87 O97 1.272 . S
O88 Co84 2.004 . S
O88 C93 1.259 . S
Co89 O90 2.061 . S
Co89 O95 2.052 . S
Co89 O97 2.135 . S
O90 Co89 2.061 . S
O90 C93 1.235 . S
C91 O94 1.238 . S
C91 O95 1.241 . S
C92 O85 1.247 . S
C92 O86 1.261 . S
C93 O88 1.259 . S
C93 O90 1.235 . S
O94 Co84 2.021 . S
O94 C91 1.238 . S
O95 Co89 2.052 . S
O95 C91 1.241 . S
O96 Co84 2.137 . S
O96 C87 1.247 . S
O97 Co84 2.244 . S
O97 C87 1.272 . S
O97 Co89 2.135 . S
Co98 O99 2.216 . S
Co98 O100 2.091 . S
Co98 O102 2.004 1_455 S
Co98 O108 2.021 1_455 S
Co98 O110 2.137 . S
Co98 O111 2.244 1_455 S
O99 Co98 2.216 . S
O99 C106 1.247 . S
O100 Co98 2.091 . S
O100 C106 1.261 . S
C101 O110 1.247 . S
C101 O111 1.272 1_455 S
O102 Co98 2.004 1_655 S
O102 C107 1.259 . S
Co103 O104 2.061 . S
Co103 O109 2.052 . S
Co103 O111 2.135 . S
O104 Co103 2.061 . S
O104 C107 1.235 . S
C105 O108 1.238 . S
C105 O109 1.241 . S
C106 O99 1.247 . S
C106 O100 1.261 . S
C107 O102 1.259 . S
C107 O104 1.235 . S
O108 Co98 2.021 1_655 S
O108 C105 1.238 . S
O109 Co103 2.052 . S
O109 C105 1.241 . S
O110 Co98 2.137 . S
O110 C101 1.247 . S
O111 Co98 2.244 1_655 S
O111 C101 1.272 1_655 S
O111 Co103 2.135 . S
Co112 O113 2.216 . S
Co112 O114 2.091 . S
Co112 O116 2.004 1_545 S
Co112 O122 2.021 . S
Co112 O124 2.137 . S
Co112 O125 2.244 . S
O113 Co112 2.216 . S
O113 C120 1.247 . S
O114 Co112 2.091 . S
O114 C120 1.261 . S
C115 O124 1.247 . S
C115 O125 1.272 . S
O116 Co112 2.004 1_565 S
O116 C121 1.259 . S
Co117 O118 2.061 . S
Co117 O123 2.052 . S
Co117 O125 2.135 1_565 S
O118 Co117 2.061 . S
O118 C121 1.235 . S
C119 O122 1.238 . S
C119 O123 1.241 1_545 S
C120 O113 1.247 . S
C120 O114 1.261 . S
C121 O116 1.259 . S
C121 O118 1.235 . S
O122 Co112 2.021 . S
O122 C119 1.238 . S
O123 Co117 2.052 . S
O123 C119 1.241 1_565 S
O124 Co112 2.137 . S
O124 C115 1.247 . S
O125 Co112 2.244 . S
O125 C115 1.272 . S
O125 Co117 2.135 1_545 S
Co126 O127 2.216 . S
Co126 O128 2.091 . S
Co126 O130 2.004 . S
Co126 O136 2.021 . S
Co126 O138 2.137 . S
Co126 O139 2.244 . S
O127 Co126 2.216 . S
O127 C134 1.247 . S
O128 Co126 2.091 . S
O128 C134 1.261 . S
C129 O138 1.247 . S
C129 O139 1.272 . S
O130 Co126 2.004 . S
O130 C135 1.259 . S
Co131 O132 2.061 . S
Co131 O137 2.052 . S
Co131 O139 2.135 . S
O132 Co131 2.061 . S
O132 C135 1.235 . S
C133 O136 1.238 . S
C133 O137 1.241 . S
C134 O127 1.247 . S
C134 O128 1.261 . S
C135 O130 1.259 . S
C135 O132 1.235 . S
O136 Co126 2.021 . S
O136 C133 1.238 . S
O137 Co131 2.052 . S
O137 C133 1.241 . S
O138 Co126 2.137 . S
O138 C129 1.247 . S
O139 Co126 2.244 . S
O139 C129 1.272 . S
O139 Co131 2.135 . S
Co140 O141 2.213 . S
Co140 O142 2.091 . S
Co140 O144 2.004 . S
Co140 O150 2.021 . S
Co140 O152 2.137 . S
Co140 O153 2.244 . S
O141 Co140 2.213 . S
O141 C148 1.248 . S
O142 Co140 2.091 . S
O142 C148 1.266 . S
C143 O152 1.247 . S
C143 O153 1.272 . S
O144 Co140 2.004 . S
O144 C149 1.259 . S
Co145 O146 2.061 . S
Co145 O151 2.052 . S
Co145 O153 2.135 . S
O146 Co145 2.061 . S
O146 C149 1.235 . S
C147 O150 1.238 . S
C147 O151 1.241 . S
C148 O141 1.248 . S
C148 O142 1.266 . S
C149 O144 1.259 . S
C149 O146 1.235 . S
O150 Co140 2.021 . S
O150 C147 1.238 . S
O151 Co145 2.052 . S
O151 C147 1.241 . S
O152 Co140 2.137 . S
O152 C143 1.247 . S
O153 Co140 2.244 . S
O153 C143 1.272 . S
O153 Co145 2.135 . S
Co154 O155 2.216 . S
Co154 O156 2.091 1_556 S
Co154 O158 2.000 . S
Co154 O164 2.021 1_556 S
Co154 O166 2.137 . S
Co154 O167 2.244 . S
O155 Co154 2.216 . S
O155 C162 1.250 . S
O156 Co154 2.091 1_554 S
O156 C162 1.264 1_554 S
C157 O166 1.247 . S
C157 O167 1.272 . S
O158 Co154 2.000 . S
O158 C163 1.254 1_556 S
Co159 O160 2.061 1_556 S
Co159 O165 2.052 1_556 S
Co159 O167 2.135 . S
O160 Co159 2.061 1_554 S
O160 C163 1.235 . S
C161 O164 1.238 . S
C161 O165 1.241 . S
C162 O155 1.250 . S
C162 O156 1.264 1_556 S
C163 O158 1.254 1_554 S
C163 O160 1.235 . S
O164 Co154 2.021 1_554 S
O164 C161 1.238 . S
O165 Co159 2.052 1_554 S
O165 C161 1.241 . S
O166 Co154 2.137 . S
O166 C157 1.247 . S
O167 Co154 2.244 . S
O167 C157 1.272 . S
O167 Co159 2.135 . S
Co168 O169 2.216 . S
Co168 O170 2.091 . S
Co168 O172 2.004 . S
Co168 O178 2.021 . S
Co168 O180 2.137 . S
Co168 O181 2.244 . S
O169 Co168 2.216 . S
O169 C176 1.247 . S
O170 Co168 2.091 . S
O170 C176 1.261 . S
C171 O180 1.247 . S
C171 O181 1.272 . S
O172 Co168 2.004 . S
O172 C177 1.259 . S
Co173 O174 2.061 . S
Co173 O179 2.052 . S
Co173 O181 2.135 . S
O174 Co173 2.061 . S
O174 C177 1.235 . S
C175 O178 1.238 . S
C175 O179 1.241 . S
C176 O169 1.247 . S
C176 O170 1.261 . S
C177 O172 1.259 . S
C177 O174 1.235 . S
O178 Co168 2.021 . S
O178 C175 1.238 . S
O179 Co173 2.052 . S
O179 C175 1.241 . S
O180 Co168 2.137 . S
O180 C171 1.247 . S
O181 Co168 2.244 . S
O181 C171 1.272 . S
O181 Co173 2.135 . S
Co182 O183 2.216 . S
Co182 O184 2.091 . S
Co182 O186 2.004 . S
Co182 O192 2.021 . S
Co182 O194 2.137 . S
Co182 O195 2.244 . S
O183 Co182 2.216 . S
O183 C190 1.247 . S
O184 Co182 2.091 . S
O184 C190 1.261 . S
C185 O194 1.247 . S
C185 O195 1.272 . S
O186 Co182 2.004 . S
O186 C191 1.259 . S
Co187 O188 2.061 . S
Co187 O193 2.052 . S
Co187 O195 2.135 . S
O188 Co187 2.061 . S
O188 C191 1.235 . S
C189 O192 1.238 . S
C189 O193 1.241 . S
C190 O183 1.247 . S
C190 O184 1.261 . S
C191 O186 1.259 . S
C191 O188 1.235 . S
O192 Co182 2.021 . S
O192 C189 1.238 . S
O193 Co187 2.052 . S
O193 C189 1.241 . S
O194 Co182 2.137 . S
O194 C185 1.247 . S
O195 Co182 2.244 . S
O195 C185 1.272 . S
O195 Co187 2.135 . S
Co196 O197 2.216 . S
Co196 O198 2.091 . S
Co196 O200 2.004 . S
Co196 O206 2.021 . S
Co196 O208 2.137 . S
Co196 O209 2.244 . S
O197 Co196 2.216 . S
O197 C204 1.247 . S
O198 Co196 2.091 . S
O198 C204 1.261 . S
C199 O208 1.247 . S
C199 O209 1.272 . S
O200 Co196 2.004 . S
O200 C205 1.259 . S
Co201 O202 2.061 . S
Co201 O207 2.052 . S
Co201 O209 2.135 . S
O202 Co201 2.061 . S
O202 C205 1.235 . S
C203 O206 1.238 . S
C203 O207 1.241 . S
C204 O197 1.247 . S
C204 O198 1.261 . S
C205 O200 1.259 . S
C205 O202 1.235 . S
O206 Co196 2.021 . S
O206 C203 1.238 . S
O207 Co201 2.052 . S
O207 C203 1.241 . S
O208 Co196 2.137 . S
O208 C199 1.247 . S
O209 Co196 2.244 . S
O209 C199 1.272 . S
O209 Co201 2.135 . S
Co210 O211 2.216 . S
Co210 O212 2.091 . S
Co210 O214 2.004 . S
Co210 O220 2.021 . S
Co210 O222 2.137 . S
Co210 O223 2.244 . S
O211 Co210 2.216 . S
O211 C218 1.247 . S
O212 Co210 2.091 . S
O212 C218 1.261 . S
C213 O222 1.247 . S
C213 O223 1.272 . S
O214 Co210 2.004 . S
O214 C219 1.259 . S
Co215 O216 2.061 . S
Co215 O221 2.052 . S
Co215 O223 2.135 . S
O216 Co215 2.061 . S
O216 C219 1.235 . S
C217 O220 1.238 . S
C217 O221 1.241 . S
C218 O211 1.247 . S
C218 O212 1.261 . S
C219 O214 1.259 . S
C219 O216 1.235 . S
O220 Co210 2.021 . S
O220 C217 1.238 . S
O221 Co215 2.052 . S
O221 C217 1.241 . S
O222 Co210 2.137 . S
O222 C213 1.247 . S
O223 Co210 2.244 . S
O223 C213 1.272 . S
O223 Co215 2.135 . S
Co224 O225 2.216 . S
Co224 O226 2.091 . S
Co224 O228 2.004 1_545 S
Co224 O234 2.021 . S
Co224 O236 2.137 . S
Co224 O237 2.244 . S
O225 Co224 2.216 . S
O225 C232 1.247 . S
O226 Co224 2.091 . S
O226 C232 1.261 . S
C227 O236 1.247 . S
C227 O237 1.272 . S
O228 Co224 2.004 1_565 S
O228 C233 1.259 . S
Co229 O230 2.061 . S
Co229 O235 2.052 1_565 S
Co229 O237 2.135 1_565 S
O230 Co229 2.061 . S
O230 C233 1.235 . S
C231 O234 1.238 . S
C231 O235 1.241 . S
C232 O225 1.247 . S
C232 O226 1.261 . S
C233 O228 1.259 . S
C233 O230 1.235 . S
O234 Co224 2.021 . S
O234 C231 1.238 . S
O235 Co229 2.052 1_545 S
O235 C231 1.241 . S
O236 Co224 2.137 . S
O236 C227 1.247 . S
O237 Co224 2.244 . S
O237 C227 1.272 . S
O237 Co229 2.135 1_545 S
Co238 O239 2.216 . S
Co238 O240 2.091 . S
Co238 O242 2.004 . S
Co238 O248 2.021 . S
Co238 O250 2.137 . S
Co238 O251 2.244 . S
O239 Co238 2.216 . S
O239 C246 1.247 . S
O240 Co238 2.091 . S
O240 C246 1.261 . S
C241 O250 1.247 . S
C241 O251 1.272 . S
O242 Co238 2.004 . S
O242 C247 1.259 . S
Co243 O244 2.061 . S
Co243 O249 2.052 . S
Co243 O251 2.135 . S
O244 Co243 2.061 . S
O244 C247 1.235 . S
C245 O248 1.238 . S
C245 O249 1.241 . S
C246 O239 1.247 . S
C246 O240 1.261 . S
C247 O242 1.259 . S
C247 O244 1.235 . S
O248 Co238 2.021 . S
O248 C245 1.238 . S
O249 Co243 2.052 . S
O249 C245 1.241 . S
O250 Co238 2.137 . S
O250 C241 1.247 . S
O251 Co238 2.244 . S
O251 C241 1.272 . S
O251 Co243 2.135 . S
Co252 O253 2.216 . S
Co252 O254 2.091 . S
Co252 O256 2.004 . S
Co252 O262 2.021 . S
Co252 O264 2.137 . S
Co252 O265 2.244 . S
O253 Co252 2.216 . S
O253 C260 1.247 . S
O254 Co252 2.091 . S
O254 C260 1.261 . S
C255 O264 1.247 . S
C255 O265 1.272 . S
O256 Co252 2.004 . S
O256 C261 1.259 . S
Co257 O258 2.061 . S
Co257 O263 2.052 . S
Co257 O265 2.135 . S
O258 Co257 2.061 . S
O258 C261 1.235 . S
C259 O262 1.238 . S
C259 O263 1.241 . S
C260 O253 1.247 . S
C260 O254 1.261 . S
C261 O256 1.259 . S
C261 O258 1.235 . S
O262 Co252 2.021 . S
O262 C259 1.238 . S
O263 Co257 2.052 . S
O263 C259 1.241 . S
O264 Co252 2.137 . S
O264 C255 1.247 . S
O265 Co252 2.244 . S
O265 C255 1.272 . S
O265 Co257 2.135 . S
Co266 O267 2.216 . S
Co266 O268 2.091 . S
Co266 O270 2.004 . S
Co266 O276 2.021 . S
Co266 O278 2.137 . S
Co266 O279 2.244 . S
O267 Co266 2.216 . S
O267 C274 1.247 . S
O268 Co266 2.091 . S
O268 C274 1.261 . S
C269 O278 1.247 . S
C269 O279 1.272 . S
O270 Co266 2.004 . S
O270 C275 1.259 . S
Co271 O272 2.061 . S
Co271 O277 2.052 . S
Co271 O279 2.135 . S
O272 Co271 2.061 . S
O272 C275 1.235 . S
C273 O276 1.238 . S
C273 O277 1.241 . S
C274 O267 1.247 . S
C274 O268 1.261 . S
C275 O270 1.259 . S
C275 O272 1.235 . S
O276 Co266 2.021 . S
O276 C273 1.238 . S
O277 Co271 2.052 . S
O277 C273 1.241 . S
O278 Co266 2.137 . S
O278 C269 1.247 . S
O279 Co266 2.244 . S
O279 C269 1.272 . S
O279 Co271 2.135 . S
Co280 O281 2.216 . S
Co280 O282 2.091 . S
Co280 O284 2.004 . S
Co280 O290 2.021 . S
Co280 O292 2.137 1_554 S
Co280 O293 2.244 1_554 S
O281 Co280 2.216 . S
O281 C288 1.247 . S
O282 Co280 2.091 . S
O282 C288 1.261 . S
C283 O292 1.247 . S
C283 O293 1.272 . S
O284 Co280 2.004 . S
O284 C289 1.259 . S
Co285 O286 2.061 . S
Co285 O291 2.052 . S
Co285 O293 2.135 1_554 S
O286 Co285 2.061 . S
O286 C289 1.235 . S
C287 O290 1.238 . S
C287 O291 1.241 . S
C288 O281 1.247 . S
C288 O282 1.261 . S
C289 O284 1.259 . S
C289 O286 1.235 . S
O290 Co280 2.021 . S
O290 C287 1.238 . S
O291 Co285 2.052 . S
O291 C287 1.241 . S
O292 Co280 2.137 1_556 S
O292 C283 1.247 . S
O293 Co280 2.244 1_556 S
O293 C283 1.272 . S
O293 Co285 2.135 1_556 S
Co294 O295 2.216 . S
Co294 O296 2.091 . S
Co294 O298 2.004 . S
Co294 O304 2.021 . S
Co294 O306 2.137 . S
Co294 O307 2.244 . S
O295 Co294 2.216 . S
O295 C302 1.247 . S
O296 Co294 2.091 . S
O296 C302 1.261 . S
C297 O306 1.247 . S
C297 O307 1.272 . S
O298 Co294 2.004 . S
O298 C303 1.259 . S
Co299 O300 2.061 . S
Co299 O305 2.052 . S
Co299 O307 2.135 . S
O300 Co299 2.061 . S
O300 C303 1.235 . S
C301 O304 1.238 . S
C301 O305 1.241 . S
C302 O295 1.247 . S
C302 O296 1.261 . S
C303 O298 1.259 . S
C303 O300 1.235 . S
O304 Co294 2.021 . S
O304 C301 1.238 . S
O305 Co299 2.052 . S
O305 C301 1.241 . S
O306 Co294 2.137 . S
O306 C297 1.247 . S
O307 Co294 2.244 . S
O307 C297 1.272 . S
O307 Co299 2.135 . S
Co308 O309 2.216 . S
Co308 O310 2.091 . S
Co308 O312 2.004 . S
Co308 O318 2.021 . S
Co308 O320 2.137 . S
Co308 O321 2.244 . S
O309 Co308 2.216 . S
O309 C316 1.247 . S
O310 Co308 2.091 . S
O310 C316 1.261 . S
C311 O320 1.247 . S
C311 O321 1.272 . S
O312 Co308 2.004 . S
O312 C317 1.259 . S
Co313 O314 2.061 . S
Co313 O319 2.052 . S
Co313 O321 2.135 . S
O314 Co313 2.061 . S
O314 C317 1.235 . S
C315 O318 1.238 . S
C315 O319 1.241 . S
C316 O309 1.247 . S
C316 O310 1.261 . S
C317 O312 1.259 . S
C317 O314 1.235 . S
O318 Co308 2.021 . S
O318 C315 1.238 . S
O319 Co313 2.052 . S
O319 C315 1.241 . S
O320 Co308 2.137 . S
O320 C311 1.247 . S
O321 Co308 2.244 . S
O321 C311 1.272 . S
O321 Co313 2.135 . S
Co322 O323 2.216 . S
Co322 O324 2.091 . S
Co322 O326 2.004 . S
Co322 O332 2.021 . S
Co322 O334 2.137 . S
Co322 O335 2.244 . S
O323 Co322 2.216 . S
O323 C330 1.247 . S
O324 Co322 2.091 . S
O324 C330 1.261 . S
C325 O334 1.247 . S
C325 O335 1.272 . S
O326 Co322 2.004 . S
O326 C331 1.259 . S
Co327 O328 2.061 . S
Co327 O333 2.052 . S
Co327 O335 2.135 . S
O328 Co327 2.061 . S
O328 C331 1.235 . S
C329 O332 1.238 . S
C329 O333 1.241 . S
C330 O323 1.247 . S
C330 O324 1.261 . S
C331 O326 1.259 . S
C331 O328 1.235 . S
O332 Co322 2.021 . S
O332 C329 1.238 . S
O333 Co327 2.052 . S
O333 C329 1.241 . S
O334 Co322 2.137 . S
O334 C325 1.247 . S
O335 Co322 2.244 . S
O335 C325 1.272 . S
O335 Co327 2.135 . S
Tb336 N365 2.617 . S
Tb336 N371 2.572 . S
Tb336 O380 2.465 . S
Tb336 O381 2.387 . S
Tb336 O383 2.428 . S
Tb336 O384 2.308 . S
Tb336 O388 2.349 . S
Tb336 O391 2.393 . S
Tb336 C400 2.802 . S
C337 N338 1.379 . S
C337 C340 1.416 . S
C337 C344 1.424 1_556 S
N338 C337 1.379 . S
N338 C341 1.334 . S
N338 Tb347 2.617 1_566 S
C339 C341 1.390 . S
C339 C342 1.339 . S
C339 H359 0.930 . S
C340 C337 1.416 . S
C340 C342 1.416 . S
C340 C346 1.448 . S
C341 N338 1.334 . S
C341 C339 1.390 . S
C341 H352 0.943 . S
C342 C339 1.339 . S
C342 C340 1.416 . S
C342 H363 0.930 . S
C343 C344 1.413 . S
C343 C345 1.395 1_554 S
C343 C349 1.416 . S
C344 C337 1.424 1_554 S
C344 C343 1.413 . S
C344 N348 1.361 . S
C345 C343 1.395 1_556 S
C345 C346 1.384 . S
C345 H360 0.908 1_556 S
C346 C340 1.448 . S
C346 C345 1.384 . S
C346 H361 0.930 . S
Tb347 N338 2.617 1_544 S
Tb347 N348 2.572 1_545 S
Tb347 O382 2.349 1_655 S
Tb347 O385 2.393 1_654 S
Tb347 O386 2.465 . S
Tb347 O387 2.387 1_645 S
Tb347 O389 2.428 1_554 S
Tb347 O390 2.308 1_655 S
Tb347 C411 2.802 . S
N348 C344 1.361 . S
N348 Tb347 2.572 1_565 S
N348 C350 1.340 . S
C349 C343 1.416 . S
C349 C351 1.332 . S
C349 H357 0.931 . S
C350 N348 1.340 . S
C350 C351 1.407 . S
C350 H356 0.930 . S
C351 C349 1.332 . S
C351 C350 1.407 . S
C351 H353 0.929 . S
H352 C341 0.943 . S
H353 C351 0.929 . S
H354 C369 0.930 . S
H355 C376 0.929 1_556 S
H356 C350 0.930 . S
H357 C349 0.931 . S
H358 C372 0.930 . S
H359 C339 0.930 . S
H360 C345 0.908 1_554 S
H361 C346 0.930 . S
H362 C367 0.930 . S
H363 C342 0.930 . S
H364 C375 0.931 . S
N365 Tb336 2.617 . S
N365 C366 1.379 . S
N365 C369 1.334 . S
C366 N365 1.379 . S
C366 C368 1.416 . S
C366 C374 1.424 . S
C367 H362 0.930 . S
C367 C369 1.390 . S
C367 C370 1.339 . S
C368 C366 1.416 . S
C368 C370 1.416 . S
C368 C401 1.448 . S
C369 H354 0.930 . S
C369 N365 1.334 . S
C369 C367 1.390 . S
C370 C367 1.339 . S
C370 C368 1.416 . S
C370 H377 0.930 . S
N371 Tb336 2.572 . S
N371 C372 1.340 . S
N371 C374 1.361 . S
C372 H358 0.930 . S
C372 N371 1.340 . S
C372 C376 1.407 . S
C373 C374 1.413 . S
C373 C375 1.416 . S
C373 C402 1.427 . S
C374 C366 1.424 . S
C374 N371 1.361 . S
C374 C373 1.413 . S
C375 H364 0.931 . S
C375 C373 1.416 . S
C375 C376 1.332 . S
C376 H355 0.929 1_554 S
C376 C372 1.407 . S
C376 C375 1.332 . S
H377 C370 0.930 . S
H378 C401 0.930 . S
H379 C402 0.929 . S
O380 Tb336 2.465 . S
O380 C400 1.264 . S
O381 Tb336 2.387 . S
O381 C392 1.264 . S
O382 Tb347 2.349 1_455 S
O382 C392 1.243 . S
O383 Tb336 2.428 . S
O383 C400 1.256 . S
O384 Tb336 2.308 . S
O384 C399 1.266 1_554 S
O385 Tb347 2.393 1_456 S
O385 C399 1.248 . S
O386 Tb347 2.465 . S
O386 C411 1.264 . S
O387 Tb347 2.387 1_465 S
O387 C403 1.264 . S
O388 Tb336 2.349 . S
O388 C403 1.243 1_545 S
O389 Tb347 2.428 1_556 S
O389 C411 1.256 1_556 S
O390 Tb347 2.308 1_455 S
O390 C410 1.266 . S
O391 Tb336 2.393 . S
O391 C410 1.248 . S
C392 O381 1.264 . S
C392 O382 1.243 . S
C393 C396 1.399 . S
C393 C398 1.383 . S
C393 C400 1.496 . S
C394 C395 1.390 . S
C394 C398 1.424 . S
C395 C394 1.390 . S
C395 C397 1.380 . S
C395 H412 0.929 1_545 S
C396 C393 1.399 . S
C396 C397 1.392 . S
C396 H413 0.929 . S
C397 C395 1.380 . S
C397 C396 1.392 . S
C397 H414 0.929 . S
C398 C393 1.383 . S
C398 C394 1.424 . S
C398 H415 0.931 . S
C399 O384 1.266 1_556 S
C399 O385 1.248 . S
C400 Tb336 2.802 . S
C400 O380 1.264 . S
C400 O383 1.256 . S
C400 C393 1.496 . S
C401 C368 1.448 . S
C401 H378 0.930 . S
C401 C402 1.328 . S
C402 C373 1.427 . S
C402 H379 0.929 . S
C402 C401 1.328 . S
C403 O387 1.264 . S
C403 O388 1.243 1_565 S
C404 C407 1.399 1_554 S
C404 C408 1.383 . S
C404 C411 1.496 . S
C405 C406 1.399 1_554 S
C405 C408 1.389 . S
C406 C405 1.399 1_556 S
C406 C409 1.380 . S
C406 H416 0.929 . S
C407 C404 1.399 1_556 S
C407 C409 1.392 . S
C407 H417 0.929 . S
C408 C404 1.383 . S
C408 C405 1.389 . S
C408 H418 0.931 . S
C409 C406 1.380 . S
C409 C407 1.392 . S
C409 H419 0.929 . S
C410 O390 1.266 . S
C410 O391 1.248 . S
C411 Tb347 2.802 . S
C411 O386 1.264 . S
C411 O389 1.256 1_554 S
C411 C404 1.496 . S
H412 C395 0.929 1_565 S
H413 C396 0.929 . S
H414 C397 0.929 . S
H415 C398 0.931 . S
H416 C406 0.929 . S
H417 C407 0.929 . S
H418 C408 0.931 . S
H419 C409 0.929 . S
Tb420 N449 2.617 . S
Tb420 N455 2.572 . S
Tb420 O464 2.465 . S
Tb420 O465 2.387 . S
Tb420 O467 2.428 . S
Tb420 O468 2.308 . S
Tb420 O472 2.349 . S
Tb420 O475 2.393 . S
Tb420 C484 2.802 . S
C421 N422 1.379 . S
C421 C424 1.416 . S
C421 C428 1.424 . S
N422 C421 1.379 . S
N422 C425 1.334 . S
N422 Tb431 2.617 . S
C423 C425 1.390 . S
C423 C426 1.339 . S
C423 H443 0.930 . S
C424 C421 1.416 . S
C424 C426 1.416 . S
C424 C430 1.448 . S
C425 N422 1.334 . S
C425 C423 1.390 . S
C425 H436 0.930 . S
C426 C423 1.339 . S
C426 C424 1.416 . S
C426 H447 0.930 . S
C427 C428 1.413 . S
C427 C429 1.427 . S
C427 C433 1.416 . S
C428 C421 1.424 . S
C428 C427 1.413 . S
C428 N432 1.361 . S
C429 C427 1.427 . S
C429 C430 1.328 . S
C429 H444 0.929 . S
C430 C424 1.448 . S
C430 C429 1.328 . S
C430 H445 0.930 . S
Tb431 N422 2.617 . S
Tb431 N432 2.572 . S
Tb431 O466 2.349 . S
Tb431 O469 2.393 . S
Tb431 O470 2.465 . S
Tb431 O471 2.387 . S
Tb431 O473 2.428 . S
Tb431 O474 2.308 . S
Tb431 C495 2.802 . S
N432 C428 1.361 . S
N432 Tb431 2.572 . S
N432 C434 1.340 . S
C433 C427 1.416 . S
C433 C435 1.332 . S
C433 H441 0.931 . S
C434 N432 1.340 . S
C434 C435 1.407 . S
C434 H440 0.930 . S
C435 C433 1.332 . S
C435 C434 1.407 . S
C435 H437 0.929 . S
H436 C425 0.930 . S
H437 C435 0.929 . S
H438 C453 0.930 . S
H439 C460 0.929 . S
H440 C434 0.930 . S
H441 C433 0.931 . S
H442 C456 0.930 . S
H443 C423 0.930 . S
H444 C429 0.929 . S
H445 C430 0.930 . S
H446 C451 0.930 . S
H447 C426 0.930 . S
H448 C459 0.931 . S
N449 Tb420 2.617 . S
N449 C450 1.379 . S
N449 C453 1.334 . S
C450 N449 1.379 . S
C450 C452 1.416 . S
C450 C458 1.424 . S
C451 H446 0.930 . S
C451 C453 1.390 . S
C451 C454 1.339 . S
C452 C450 1.416 . S
C452 C454 1.416 . S
C452 C485 1.448 . S
C453 H438 0.930 . S
C453 N449 1.334 . S
C453 C451 1.390 . S
C454 C451 1.339 . S
C454 C452 1.416 . S
C454 H461 0.930 . S
N455 Tb420 2.572 . S
N455 C456 1.340 . S
N455 C458 1.361 . S
C456 H442 0.930 . S
C456 N455 1.340 . S
C456 C460 1.407 . S
C457 C458 1.413 . S
C457 C459 1.416 . S
C457 C486 1.427 . S
C458 C450 1.424 . S
C458 N455 1.361 . S
C458 C457 1.413 . S
C459 H448 0.931 . S
C459 C457 1.416 . S
C459 C460 1.332 . S
C460 H439 0.929 . S
C460 C456 1.407 . S
C460 C459 1.332 . S
H461 C454 0.930 . S
H462 C485 0.930 . S
H463 C486 0.929 . S
O464 Tb420 2.465 . S
O464 C484 1.264 . S
O465 Tb420 2.387 . S
O465 C476 1.264 . S
O466 Tb431 2.349 . S
O466 C476 1.243 . S
O467 Tb420 2.428 . S
O467 C484 1.256 . S
O468 Tb420 2.308 . S
O468 C483 1.266 . S
O469 Tb431 2.393 . S
O469 C483 1.248 . S
O470 Tb431 2.465 . S
O470 C495 1.264 . S
O471 Tb431 2.387 . S
O471 C487 1.264 . S
O472 Tb420 2.349 . S
O472 C487 1.243 . S
O473 Tb431 2.428 . S
O473 C495 1.256 . S
O474 Tb431 2.308 . S
O474 C494 1.266 . S
O475 Tb420 2.393 . S
O475 C494 1.248 . S
C476 O465 1.264 . S
C476 O466 1.243 . S
C477 C480 1.399 . S
C477 C482 1.383 . S
C477 C484 1.496 . S
C478 C479 1.399 . S
C478 C482 1.389 . S
C479 C478 1.399 . S
C479 C481 1.380 . S
C479 H496 0.929 . S
C480 C477 1.399 . S
C480 C481 1.392 . S
C480 H497 0.929 . S
C481 C479 1.380 . S
C481 C480 1.392 . S
C481 H498 0.929 . S
C482 C477 1.383 . S
C482 C478 1.389 . S
C482 H499 0.931 . S
C483 O468 1.266 . S
C483 O469 1.248 . S
C484 Tb420 2.802 . S
C484 O464 1.264 . S
C484 O467 1.256 . S
C484 C477 1.496 . S
C485 C452 1.448 . S
C485 H462 0.930 . S
C485 C486 1.328 . S
C486 C457 1.427 . S
C486 H463 0.929 . S
C486 C485 1.328 . S
C487 O471 1.264 . S
C487 O472 1.243 . S
C488 C491 1.399 . S
C488 C492 1.383 . S
C488 C495 1.496 . S
C489 C490 1.399 . S
C489 C492 1.389 . S
C490 C489 1.399 . S
C490 C493 1.380 . S
C490 H500 0.929 . S
C491 C488 1.399 . S
C491 C493 1.392 . S
C491 H501 0.929 . S
C492 C488 1.383 . S
C492 C489 1.389 . S
C492 H502 0.931 . S
C493 C490 1.380 . S
C493 C491 1.392 . S
C493 H503 0.929 . S
C494 O474 1.266 . S
C494 O475 1.248 . S
C495 Tb431 2.802 . S
C495 O470 1.264 . S
C495 O473 1.256 . S
C495 C488 1.496 . S
H496 C479 0.929 . S
H497 C480 0.929 . S
H498 C481 0.929 . S
H499 C482 0.931 . S
H500 C490 0.929 . S
H501 C491 0.929 . S
H502 C492 0.931 . S
H503 C493 0.929 . S
Tb504 N533 2.617 1_545 S
Tb504 N539 2.572 1_545 S
Tb504 O548 2.465 . S
Tb504 O549 2.387 1_545 S
Tb504 O551 2.428 . S
Tb504 O552 2.308 . S
Tb504 O556 2.349 . S
Tb504 O559 2.393 . S
Tb504 C568 2.802 . S
C505 N506 1.379 . S
C505 C508 1.416 . S
C505 C512 1.424 . S
N506 C505 1.379 . S
N506 C509 1.334 . S
N506 Tb515 2.617 . S
C507 C509 1.390 . S
C507 C510 1.339 . S
C507 H527 0.930 . S
C508 C505 1.416 . S
C508 C510 1.416 . S
C508 C514 1.448 . S
C509 N506 1.334 . S
C509 C507 1.390 . S
C509 H520 0.930 . S
C510 C507 1.339 . S
C510 C508 1.416 . S
C510 H531 0.930 . S
C511 C512 1.413 . S
C511 C513 1.427 . S
C511 C517 1.416 . S
C512 C505 1.424 . S
C512 C511 1.413 . S
C512 N516 1.361 . S
C513 C511 1.427 . S
C513 C514 1.328 . S
C513 H528 0.929 . S
C514 C508 1.448 . S
C514 C513 1.328 . S
C514 H529 0.930 . S
Tb515 N506 2.617 . S
Tb515 N516 2.572 . S
Tb515 O550 2.349 1_545 S
Tb515 O553 2.393 . S
Tb515 O554 2.465 . S
Tb515 O555 2.387 . S
Tb515 O557 2.428 . S
Tb515 O558 2.308 . S
Tb515 C579 2.802 . S
N516 C512 1.361 . S
N516 Tb515 2.572 . S
N516 C518 1.340 . S
C517 C511 1.416 . S
C517 C519 1.332 . S
C517 H525 0.931 . S
C518 N516 1.340 . S
C518 C519 1.407 . S
C518 H524 0.930 . S
C519 C517 1.332 . S
C519 C518 1.407 . S
C519 H521 0.929 . S
H520 C509 0.930 . S
H521 C519 0.929 . S
H522 C537 0.903 1_545 S
H523 C544 0.929 . S
H524 C518 0.930 . S
H525 C517 0.931 . S
H526 C540 0.930 . S
H527 C507 0.930 . S
H528 C513 0.929 . S
H529 C514 0.930 . S
H530 C535 0.930 . S
H531 C510 0.930 . S
H532 C543 0.931 . S
N533 Tb504 2.617 1_565 S
N533 C534 1.379 . S
N533 C537 1.333 . S
C534 N533 1.379 . S
C534 C536 1.416 . S
C534 C542 1.424 . S
C535 H530 0.930 . S
C535 C537 1.418 . S
C535 C538 1.339 . S
C536 C534 1.416 . S
C536 C538 1.416 . S
C536 C569 1.448 . S
C537 H522 0.903 1_565 S
C537 N533 1.333 . S
C537 C535 1.418 . S
C538 C535 1.339 . S
C538 C536 1.416 . S
C538 H545 0.930 . S
N539 Tb504 2.572 1_565 S
N539 C540 1.340 . S
N539 C542 1.361 . S
C540 H526 0.930 . S
C540 N539 1.340 . S
C540 C544 1.407 . S
C541 C542 1.413 . S
C541 C543 1.416 . S
C541 C570 1.427 . S
C542 C534 1.424 . S
C542 N539 1.361 . S
C542 C541 1.413 . S
C543 H532 0.931 . S
C543 C541 1.416 . S
C543 C544 1.332 . S
C544 H523 0.929 . S
C544 C540 1.407 . S
C544 C543 1.332 . S
H545 C538 0.930 . S
H546 C569 0.930 . S
H547 C570 0.929 . S
O548 Tb504 2.465 . S
O548 C568 1.264 . S
O549 Tb504 2.387 1_565 S
O549 C560 1.264 . S
O550 Tb515 2.349 1_565 S
O550 C560 1.243 . S
O551 Tb504 2.428 . S
O551 C568 1.256 . S
O552 Tb504 2.308 . S
O552 C567 1.266 . S
O553 Tb515 2.393 . S
O553 C567 1.248 . S
O554 Tb515 2.465 . S
O554 C579 1.264 . S
O555 Tb515 2.387 . S
O555 C571 1.264 . S
O556 Tb504 2.349 . S
O556 C571 1.243 . S
O557 Tb515 2.428 . S
O557 C579 1.256 . S
O558 Tb515 2.308 . S
O558 C578 1.266 . S
O559 Tb504 2.393 . S
O559 C578 1.248 . S
C560 O549 1.264 . S
C560 O550 1.243 . S
C561 C564 1.399 . S
C561 C566 1.383 . S
C561 C568 1.496 . S
C562 C563 1.399 . S
C562 C566 1.389 . S
C563 C562 1.399 . S
C563 C565 1.380 . S
C563 H580 0.929 . S
C564 C561 1.399 . S
C564 C565 1.392 . S
C564 H581 0.929 . S
C565 C563 1.380 . S
C565 C564 1.392 . S
C565 H582 0.929 . S
C566 C561 1.383 . S
C566 C562 1.389 . S
C566 H583 0.931 . S
C567 O552 1.266 . S
C567 O553 1.248 . S
C568 Tb504 2.802 . S
C568 O548 1.264 . S
C568 O551 1.256 . S
C568 C561 1.496 . S
C569 C536 1.448 . S
C569 H546 0.930 . S
C569 C570 1.328 . S
C570 C541 1.427 . S
C570 H547 0.929 . S
C570 C569 1.328 . S
C571 O555 1.264 . S
C571 O556 1.243 . S
C572 C575 1.399 . S
C572 C576 1.383 . S
C572 C579 1.496 1_565 S
C573 C574 1.399 . S
C573 C576 1.389 . S
C574 C573 1.399 . S
C574 C577 1.380 . S
C574 H584 0.929 . S
C575 C572 1.399 . S
C575 C577 1.392 . S
C575 H585 0.929 . S
C576 C572 1.383 . S
C576 C573 1.389 . S
C576 H586 0.931 . S
C577 C574 1.380 . S
C577 C575 1.392 . S
C577 H587 0.929 . S
C578 O558 1.266 . S
C578 O559 1.248 . S
C579 Tb515 2.802 . S
C579 O554 1.264 . S
C579 O557 1.256 . S
C579 C572 1.496 1_545 S
H580 C563 0.929 . S
H581 C564 0.929 . S
H582 C565 0.929 . S
H583 C566 0.931 . S
H584 C574 0.929 . S
H585 C575 0.929 . S
H586 C576 0.931 . S
H587 C577 0.929 . S
Tb588 N617 2.617 . S
Tb588 N623 2.572 . S
Tb588 O632 2.465 . S
Tb588 O633 2.387 . S
Tb588 O635 2.428 . S
Tb588 O636 2.308 . S
Tb588 O640 2.349 . S
Tb588 O643 2.393 . S
Tb588 C652 2.802 . S
C589 N590 1.379 . S
C589 C592 1.416 . S
C589 C596 1.424 . S
N590 C589 1.379 . S
N590 C593 1.334 . S
N590 Tb599 2.617 . S
C591 C593 1.390 . S
C591 C594 1.339 . S
C591 H611 0.930 . S
C592 C589 1.416 . S
C592 C594 1.416 . S
C592 C598 1.448 . S
C593 N590 1.334 . S
C593 C591 1.390 . S
C593 H604 0.930 . S
C594 C591 1.339 . S
C594 C592 1.416 . S
C594 H615 0.930 . S
C595 C596 1.413 . S
C595 C597 1.427 . S
C595 C601 1.416 . S
C596 C589 1.424 . S
C596 C595 1.413 . S
C596 N600 1.361 . S
C597 C595 1.427 . S
C597 C598 1.328 . S
C597 H612 0.929 . S
C598 C592 1.448 . S
C598 C597 1.328 . S
C598 H613 0.930 . S
Tb599 N590 2.617 . S
Tb599 N600 2.572 . S
Tb599 O634 2.349 . S
Tb599 O637 2.393 . S
Tb599 O638 2.465 . S
Tb599 O639 2.387 . S
Tb599 O641 2.428 . S
Tb599 O642 2.308 . S
Tb599 C663 2.802 . S
N600 C596 1.361 . S
N600 Tb599 2.572 . S
N600 C602 1.340 . S
C601 C595 1.416 . S
C601 C603 1.332 . S
C601 H609 0.931 . S
C602 N600 1.340 . S
C602 C603 1.407 . S
C602 H608 0.930 . S
C603 C601 1.332 . S
C603 C602 1.407 . S
C603 H605 0.929 . S
H604 C593 0.930 . S
H605 C603 0.929 . S
H606 C621 0.930 . S
H607 C628 0.929 . S
H608 C602 0.930 . S
H609 C601 0.931 . S
H610 C624 0.930 . S
H611 C591 0.930 . S
H612 C597 0.929 . S
H613 C598 0.930 . S
H614 C619 0.930 . S
H615 C594 0.930 . S
H616 C627 0.931 . S
N617 Tb588 2.617 . S
N617 C618 1.379 . S
N617 C621 1.334 . S
C618 N617 1.379 . S
C618 C620 1.416 . S
C618 C626 1.424 . S
C619 H614 0.930 . S
C619 C621 1.390 . S
C619 C622 1.339 . S
C620 C618 1.416 . S
C620 C622 1.416 . S
C620 C653 1.448 . S
C621 H606 0.930 . S
C621 N617 1.334 . S
C621 C619 1.390 . S
C622 C619 1.339 . S
C622 C620 1.416 . S
C622 H629 0.930 . S
N623 Tb588 2.572 . S
N623 C624 1.340 . S
N623 C626 1.361 . S
C624 H610 0.930 . S
C624 N623 1.340 . S
C624 C628 1.407 . S
C625 C626 1.413 . S
C625 C627 1.416 . S
C625 C654 1.427 . S
C626 C618 1.424 . S
C626 N623 1.361 . S
C626 C625 1.413 . S
C627 H616 0.931 . S
C627 C625 1.416 . S
C627 C628 1.332 . S
C628 H607 0.929 . S
C628 C624 1.407 . S
C628 C627 1.332 . S
H629 C622 0.930 . S
H630 C653 0.930 . S
H631 C654 0.929 . S
O632 Tb588 2.465 . S
O632 C652 1.264 . S
O633 Tb588 2.387 . S
O633 C644 1.264 . S
O634 Tb599 2.349 . S
O634 C644 1.243 . S
O635 Tb588 2.428 . S
O635 C652 1.256 . S
O636 Tb588 2.308 . S
O636 C651 1.266 . S
O637 Tb599 2.393 . S
O637 C651 1.248 . S
O638 Tb599 2.465 . S
O638 C663 1.264 . S
O639 Tb599 2.387 . S
O639 C655 1.264 . S
O640 Tb588 2.349 . S
O640 C655 1.243 . S
O641 Tb599 2.428 . S
O641 C663 1.256 . S
O642 Tb599 2.308 . S
O642 C662 1.266 . S
O643 Tb588 2.393 . S
O643 C662 1.248 . S
C644 O633 1.264 . S
C644 O634 1.243 . S
C645 C648 1.399 . S
C645 C650 1.383 . S
C645 C652 1.496 . S
C646 C647 1.399 . S
C646 C650 1.389 . S
C647 C646 1.399 . S
C647 C649 1.380 . S
C647 H664 0.929 . S
C648 C645 1.399 . S
C648 C649 1.392 . S
C648 H665 0.929 . S
C649 C647 1.380 . S
C649 C648 1.392 . S
C649 H666 0.929 . S
C650 C645 1.383 . S
C650 C646 1.389 . S
C650 H667 0.931 . S
C651 O636 1.266 . S
C651 O637 1.248 . S
C652 Tb588 2.802 . S
C652 O632 1.264 . S
C652 O635 1.256 . S
C652 C645 1.496 . S
C653 C620 1.448 . S
C653 H630 0.930 . S
C653 C654 1.328 . S
C654 C625 1.427 . S
C654 H631 0.929 . S
C654 C653 1.328 . S
C655 O639 1.264 . S
C655 O640 1.243 . S
C656 C659 1.399 . S
C656 C660 1.383 . S
C656 C663 1.496 . S
C657 C658 1.399 . S
C657 C660 1.389 . S
C658 C657 1.399 . S
C658 C661 1.380 . S
C658 H668 0.929 . S
C659 C656 1.399 . S
C659 C661 1.392 . S
C659 H669 0.929 . S
C660 C656 1.383 . S
C660 C657 1.389 . S
C660 H670 0.931 . S
C661 C658 1.380 . S
C661 C659 1.392 . S
C661 H671 0.929 . S
C662 O642 1.266 . S
C662 O643 1.248 . S
C663 Tb599 2.802 . S
C663 O638 1.264 . S
C663 O641 1.256 . S
C663 C656 1.496 . S
H664 C647 0.929 . S
H665 C648 0.929 . S
H666 C649 0.929 . S
H667 C650 0.931 . S
H668 C658 0.929 . S
H669 C659 0.929 . S
H670 C660 0.931 . S
H671 C661 0.929 . S
Tb672 N701 2.617 . S
Tb672 N707 2.572 . S
Tb672 O716 2.465 . S
Tb672 O717 2.387 1_565 S
Tb672 O719 2.428 . S
Tb672 O720 2.290 1_565 S
Tb672 O724 2.349 1_565 S
Tb672 O727 2.393 1_565 S
Tb672 C736 2.802 . S
C673 N674 1.379 1_455 S
C673 C676 1.416 1_455 S
C673 C680 1.424 . S
N674 C673 1.379 1_655 S
N674 C677 1.334 . S
N674 Tb683 2.617 1_655 S
C675 C677 1.390 . S
C675 C678 1.339 . S
C675 H695 0.930 . S
C676 C673 1.416 1_655 S
C676 C678 1.416 . S
C676 C682 1.448 1_655 S
C677 N674 1.334 . S
C677 C675 1.390 . S
C677 H688 0.930 . S
C678 C675 1.339 . S
C678 C676 1.416 . S
C678 H699 0.930 . S
C679 C680 1.413 . S
C679 C681 1.427 . S
C679 C685 1.416 . S
C680 C673 1.424 . S
C680 C679 1.413 . S
C680 N684 1.361 . S
C681 C679 1.427 . S
C681 C682 1.328 . S
C681 H696 0.929 . S
C682 C676 1.448 1_455 S
C682 C681 1.328 . S
C682 H697 0.921 1_455 S
Tb683 N674 2.617 1_455 S
Tb683 N684 2.572 . S
Tb683 O718 2.349 . S
Tb683 O721 2.393 1_455 S
Tb683 O722 2.465 . S
Tb683 O723 2.387 . S
Tb683 O725 2.428 1_455 S
Tb683 O726 2.308 . S
Tb683 C747 2.802 . S
N684 C680 1.361 . S
N684 Tb683 2.572 . S
N684 C686 1.340 . S
C685 C679 1.416 . S
C685 C687 1.332 . S
C685 H693 0.931 . S
C686 N684 1.340 . S
C686 C687 1.407 . S
C686 H692 0.930 . S
C687 C685 1.332 . S
C687 C686 1.407 . S
C687 H689 0.929 . S
H688 C677 0.930 . S
H689 C687 0.929 . S
H690 C705 0.930 1_545 S
H691 C712 0.929 . S
H692 C686 0.930 . S
H693 C685 0.931 . S
H694 C708 0.893 1_655 S
H695 C675 0.930 . S
H696 C681 0.929 . S
H697 C682 0.921 1_655 S
H698 C703 0.930 . S
H699 C678 0.930 . S
H700 C711 0.951 . S
N701 Tb672 2.617 . S
N701 C702 1.379 . S
N701 C705 1.334 . S
C702 N701 1.379 . S
C702 C704 1.416 . S
C702 C710 1.424 . S
C703 H698 0.930 . S
C703 C705 1.390 . S
C703 C706 1.339 . S
C704 C702 1.416 . S
C704 C706 1.416 . S
C704 C737 1.448 . S
C705 H690 0.930 1_565 S
C705 N701 1.334 . S
C705 C703 1.390 . S
C706 C703 1.339 . S
C706 C704 1.416 . S
C706 H713 0.930 . S
N707 Tb672 2.572 . S
N707 C708 1.398 . S
N707 C710 1.361 . S
C708 H694 0.893 1_455 S
C708 N707 1.398 . S
C708 C712 1.387 1_455 S
C709 C710 1.413 . S
C709 C711 1.365 1_455 S
C709 C738 1.427 . S
C710 C702 1.424 . S
C710 N707 1.361 . S
C710 C709 1.413 . S
C711 H700 0.951 . S
C711 C709 1.365 1_655 S
C711 C712 1.366 . S
C712 H691 0.929 . S
C712 C708 1.387 1_655 S
C712 C711 1.366 . S
H713 C706 0.930 . S
H714 C737 0.930 . S
H715 C738 0.929 . S
O716 Tb672 2.465 . S
O716 C736 1.264 . S
O717 Tb672 2.387 1_545 S
O717 C728 1.264 . S
O718 Tb683 2.349 . S
O718 C728 1.243 . S
O719 Tb672 2.428 . S
O719 C736 1.256 . S
O720 Tb672 2.290 1_545 S
O720 C735 1.298 1_455 S
O721 Tb683 2.393 1_655 S
O721 C735 1.248 . S
O722 Tb683 2.465 . S
O722 C747 1.264 . S
O723 Tb683 2.387 . S
O723 C739 1.264 . S
O724 Tb672 2.349 1_545 S
O724 C739 1.243 . S
O725 Tb683 2.428 1_655 S
O725 C747 1.256 1_655 S
O726 Tb683 2.308 . S
O726 C746 1.266 . S
O727 Tb672 2.393 1_545 S
O727 C746 1.248 . S
C728 O717 1.264 . S
C728 O718 1.243 . S
C729 C732 1.399 . S
C729 C734 1.383 . S
C729 C736 1.496 . S
C730 C731 1.399 . S
C730 C734 1.389 . S
C731 C730 1.399 . S
C731 C733 1.380 . S
C731 H748 0.929 . S
C732 C729 1.399 . S
C732 C733 1.392 . S
C732 H749 0.929 . S
C733 C731 1.380 . S
C733 C732 1.392 . S
C733 H750 0.929 . S
C734 C729 1.383 . S
C734 C730 1.389 . S
C734 H751 0.931 . S
C735 O720 1.298 1_655 S
C735 O721 1.248 . S
C736 Tb672 2.802 . S
C736 O716 1.264 . S
C736 O719 1.256 . S
C736 C729 1.496 . S
C737 C704 1.448 . S
C737 H714 0.930 . S
C737 C738 1.328 . S
C738 C709 1.427 . S
C738 H715 0.929 . S
C738 C737 1.328 . S
C739 O723 1.264 . S
C739 O724 1.243 . S
C740 C743 1.399 1_455 S
C740 C744 1.383 . S
C740 C747 1.496 . S
C741 C742 1.434 . S
C741 C744 1.389 . S
C742 C741 1.434 . S
C742 C745 1.354 1_455 S
C742 H752 0.920 1_455 S
C743 C740 1.399 1_655 S
C743 C745 1.392 . S
C743 H753 0.929 . S
C744 C740 1.383 . S
C744 C741 1.389 . S
C744 H754 0.931 . S
C745 C742 1.354 1_655 S
C745 C743 1.392 . S
C745 H755 0.929 . S
C746 O726 1.266 . S
C746 O727 1.248 . S
C747 Tb683 2.802 . S
C747 O722 1.264 . S
C747 O725 1.256 1_455 S
C747 C740 1.496 . S
H748 C731 0.929 . S
H749 C732 0.929 . S
H750 C733 0.929 . S
H751 C734 0.931 . S
H752 C742 0.920 1_655 S
H753 C743 0.929 . S
H754 C744 0.931 . S
H755 C745 0.929 . S
Tb756 N785 2.617 . S
Tb756 N791 2.572 . S
Tb756 O800 2.465 . S
Tb756 O801 2.387 . S
Tb756 O803 2.428 . S
Tb756 O804 2.308 . S
Tb756 O808 2.349 . S
Tb756 O811 2.393 . S
Tb756 C820 2.802 . S
C757 N758 1.379 . S
C757 C760 1.416 . S
C757 C764 1.424 . S
N758 C757 1.379 . S
N758 C761 1.334 . S
N758 Tb767 2.617 . S
C759 C761 1.390 . S
C759 C762 1.339 . S
C759 H779 0.930 . S
C760 C757 1.416 . S
C760 C762 1.416 . S
C760 C766 1.448 . S
C761 N758 1.334 . S
C761 C759 1.390 . S
C761 H772 0.930 . S
C762 C759 1.339 . S
C762 C760 1.416 . S
C762 H783 0.930 . S
C763 C764 1.413 . S
C763 C765 1.427 . S
C763 C769 1.416 . S
C764 C757 1.424 . S
C764 C763 1.413 . S
C764 N768 1.361 . S
C765 C763 1.427 . S
C765 C766 1.328 . S
C765 H780 0.929 . S
C766 C760 1.448 . S
C766 C765 1.328 . S
C766 H781 0.930 . S
Tb767 N758 2.617 . S
Tb767 N768 2.572 . S
Tb767 O802 2.349 . S
Tb767 O805 2.393 . S
Tb767 O806 2.465 . S
Tb767 O807 2.387 . S
Tb767 O809 2.428 . S
Tb767 O810 2.308 . S
Tb767 C831 2.802 . S
N768 C764 1.361 . S
N768 Tb767 2.572 . S
N768 C770 1.340 . S
C769 C763 1.416 . S
C769 C771 1.332 . S
C769 H777 0.931 . S
C770 N768 1.340 . S
C770 C771 1.407 . S
C770 H776 0.930 . S
C771 C769 1.332 . S
C771 C770 1.407 . S
C771 H773 0.929 . S
H772 C761 0.930 . S
H773 C771 0.929 . S
H774 C789 0.930 . S
H775 C796 0.929 . S
H776 C770 0.930 . S
H777 C769 0.931 . S
H778 C792 0.930 . S
H779 C759 0.930 . S
H780 C765 0.929 . S
H781 C766 0.930 . S
H782 C787 0.930 . S
H783 C762 0.930 . S
H784 C795 0.931 . S
N785 Tb756 2.617 . S
N785 C786 1.379 . S
N785 C789 1.334 . S
C786 N785 1.379 . S
C786 C788 1.416 . S
C786 C794 1.424 . S
C787 H782 0.930 . S
C787 C789 1.390 . S
C787 C790 1.339 . S
C788 C786 1.416 . S
C788 C790 1.416 . S
C788 C821 1.448 . S
C789 H774 0.930 . S
C789 N785 1.334 . S
C789 C787 1.390 . S
C790 C787 1.339 . S
C790 C788 1.416 . S
C790 H797 0.930 . S
N791 Tb756 2.572 . S
N791 C792 1.340 . S
N791 C794 1.361 . S
C792 H778 0.930 . S
C792 N791 1.340 . S
C792 C796 1.407 . S
C793 C794 1.413 . S
C793 C795 1.416 . S
C793 C822 1.427 . S
C794 C786 1.424 . S
C794 N791 1.361 . S
C794 C793 1.413 . S
C795 H784 0.931 . S
C795 C793 1.416 . S
C795 C796 1.332 . S
C796 H775 0.929 . S
C796 C792 1.407 . S
C796 C795 1.332 . S
H797 C790 0.930 . S
H798 C821 0.930 . S
H799 C822 0.929 . S
O800 Tb756 2.465 . S
O800 C820 1.264 . S
O801 Tb756 2.387 . S
O801 C812 1.264 . S
O802 Tb767 2.349 . S
O802 C812 1.243 . S
O803 Tb756 2.428 . S
O803 C820 1.256 . S
O804 Tb756 2.308 . S
O804 C819 1.266 . S
O805 Tb767 2.393 . S
O805 C819 1.248 . S
O806 Tb767 2.465 . S
O806 C831 1.264 . S
O807 Tb767 2.387 . S
O807 C823 1.264 . S
O808 Tb756 2.349 . S
O808 C823 1.243 . S
O809 Tb767 2.428 . S
O809 C831 1.256 . S
O810 Tb767 2.308 . S
O810 C830 1.266 . S
O811 Tb756 2.393 . S
O811 C830 1.248 . S
C812 O801 1.264 . S
C812 O802 1.243 . S
C813 C816 1.399 . S
C813 C818 1.383 . S
C813 C820 1.496 . S
C814 C815 1.399 . S
C814 C818 1.389 . S
C815 C814 1.399 . S
C815 C817 1.380 . S
C815 H832 0.929 . S
C816 C813 1.399 . S
C816 C817 1.392 . S
C816 H833 0.929 . S
C817 C815 1.380 . S
C817 C816 1.392 . S
C817 H834 0.929 . S
C818 C813 1.383 . S
C818 C814 1.389 . S
C818 H835 0.931 . S
C819 O804 1.266 . S
C819 O805 1.248 . S
C820 Tb756 2.802 . S
C820 O800 1.264 . S
C820 O803 1.256 . S
C820 C813 1.496 . S
C821 C788 1.448 . S
C821 H798 0.930 . S
C821 C822 1.328 . S
C822 C793 1.427 . S
C822 H799 0.929 . S
C822 C821 1.328 . S
C823 O807 1.264 . S
C823 O808 1.243 . S
C824 C827 1.399 . S
C824 C828 1.383 . S
C824 C831 1.496 . S
C825 C826 1.399 . S
C825 C828 1.389 . S
C826 C825 1.399 . S
C826 C829 1.380 . S
C826 H836 0.929 . S
C827 C824 1.399 . S
C827 C829 1.392 . S
C827 H837 0.929 . S
C828 C824 1.383 . S
C828 C825 1.389 . S
C828 H838 0.931 . S
C829 C826 1.380 . S
C829 C827 1.392 . S
C829 H839 0.929 . S
C830 O810 1.266 . S
C830 O811 1.248 . S
C831 Tb767 2.802 . S
C831 O806 1.264 . S
C831 O809 1.256 . S
C831 C824 1.496 . S
H832 C815 0.929 . S
H833 C816 0.929 . S
H834 C817 0.929 . S
H835 C818 0.931 . S
H836 C826 0.929 . S
H837 C827 0.929 . S
H838 C828 0.931 . S
H839 C829 0.929 . S
Tb840 N869 2.617 . S
Tb840 N875 2.572 . S
Tb840 O884 2.465 . S
Tb840 O885 2.387 1_556 S
Tb840 O887 2.428 . S
Tb840 O888 2.315 . S
Tb840 O892 2.349 1_556 S
Tb840 O895 2.393 1_556 S
Tb840 C904 2.802 . S
C841 N842 1.394 . S
C841 C844 1.461 . S
C841 C848 1.365 1_565 S
N842 C841 1.394 . S
N842 C845 1.334 . S
N842 Tb851 2.617 1_565 S
C843 C845 1.390 . S
C843 C846 1.339 . S
C843 H863 0.930 . S
C844 C841 1.461 . S
C844 C846 1.416 . S
C844 C850 1.448 . S
C845 N842 1.334 . S
C845 C843 1.390 . S
C845 H856 0.930 . S
C846 C843 1.339 . S
C846 C844 1.416 . S
C846 H867 0.930 . S
C847 C848 1.413 . S
C847 C849 1.427 . S
C847 C853 1.416 . S
C848 C841 1.365 1_545 S
C848 C847 1.413 . S
C848 N852 1.361 . S
C849 C847 1.427 . S
C849 C850 1.328 1_545 S
C849 H864 0.929 . S
C850 C844 1.448 . S
C850 C849 1.328 1_565 S
C850 H865 0.930 . S
Tb851 N842 2.617 1_545 S
Tb851 N852 2.572 . S
Tb851 O886 2.349 . S
Tb851 O889 2.393 1_545 S
Tb851 O890 2.465 . S
Tb851 O891 2.387 . S
Tb851 O893 2.428 1_545 S
Tb851 O894 2.308 . S
Tb851 C915 2.802 . S
N852 C848 1.361 . S
N852 Tb851 2.572 . S
N852 C854 1.340 . S
C853 C847 1.416 . S
C853 C855 1.332 . S
C853 H861 0.931 . S
C854 N852 1.340 . S
C854 C855 1.407 . S
C854 H860 0.930 . S
C855 C853 1.332 . S
C855 C854 1.407 . S
C855 H857 0.929 . S
H856 C845 0.930 . S
H857 C855 0.929 . S
H858 C873 0.930 1_554 S
H859 C880 0.929 . S
H860 C854 0.930 . S
H861 C853 0.931 . S
H862 C876 0.909 1_565 S
H863 C843 0.930 . S
H864 C849 0.929 . S
H865 C850 0.930 . S
H866 C871 0.930 . S
H867 C846 0.930 . S
H868 C879 0.917 1_565 S
N869 Tb840 2.617 . S
N869 C870 1.379 . S
N869 C873 1.334 . S
C870 N869 1.379 . S
C870 C872 1.416 . S
C870 C878 1.424 . S
C871 H866 0.930 . S
C871 C873 1.390 . S
C871 C874 1.339 . S
C872 C870 1.416 . S
C872 C874 1.416 . S
C872 C905 1.448 . S
C873 H858 0.930 1_556 S
C873 N869 1.334 . S
C873 C871 1.390 . S
C874 C871 1.339 . S
C874 C872 1.416 . S
C874 H881 0.930 . S
N875 Tb840 2.572 . S
N875 C876 1.340 . S
N875 C878 1.361 . S
C876 H862 0.909 1_545 S
C876 N875 1.340 . S
C876 C880 1.407 1_545 S
C877 C878 1.413 . S
C877 C879 1.416 . S
C877 C906 1.427 . S
C878 C870 1.424 . S
C878 N875 1.361 . S
C878 C877 1.413 . S
C879 H868 0.917 1_545 S
C879 C877 1.416 . S
C879 C880 1.332 1_545 S
C880 H859 0.929 . S
C880 C876 1.407 1_565 S
C880 C879 1.332 1_565 S
H881 C874 0.930 . S
H882 C905 0.930 . S
H883 C906 0.929 . S
O884 Tb840 2.465 . S
O884 C904 1.264 . S
O885 Tb840 2.387 1_554 S
O885 C896 1.264 . S
O886 Tb851 2.349 . S
O886 C896 1.243 . S
O887 Tb840 2.428 . S
O887 C904 1.256 . S
O888 Tb840 2.315 . S
O888 C903 1.254 1_546 S
O889 Tb851 2.393 1_565 S
O889 C903 1.248 . S
O890 Tb851 2.465 . S
O890 C915 1.264 . S
O891 Tb851 2.387 . S
O891 C907 1.264 . S
O892 Tb840 2.349 1_554 S
O892 C907 1.243 . S
O893 Tb851 2.428 1_565 S
O893 C915 1.256 1_565 S
O894 Tb851 2.308 . S
O894 C914 1.266 . S
O895 Tb840 2.393 1_554 S
O895 C914 1.248 . S
C896 O885 1.264 . S
C896 O886 1.243 . S
C897 C900 1.399 . S
C897 C902 1.383 . S
C897 C904 1.496 . S
C898 C899 1.399 . S
C898 C902 1.389 . S
C899 C898 1.399 . S
C899 C901 1.380 . S
C899 H916 0.929 . S
C900 C897 1.399 . S
C900 C901 1.392 . S
C900 H917 0.929 . S
C901 C899 1.380 . S
C901 C900 1.392 . S
C901 H918 0.929 . S
C902 C897 1.383 . S
C902 C898 1.389 . S
C902 H919 0.931 . S
C903 O888 1.254 1_564 S
C903 O889 1.248 . S
C904 Tb840 2.802 . S
C904 O884 1.264 . S
C904 O887 1.256 . S
C904 C897 1.496 . S
C905 C872 1.448 . S
C905 H882 0.930 . S
C905 C906 1.328 . S
C906 C877 1.427 . S
C906 H883 0.929 . S
C906 C905 1.328 . S
C907 O891 1.264 . S
C907 O892 1.243 . S
C908 C911 1.399 . S
C908 C912 1.383 1_565 S
C908 C915 1.496 1_565 S
C909 C910 1.399 1_545 S
C909 C912 1.389 . S
C910 C909 1.399 1_565 S
C910 C913 1.380 . S
C910 H920 0.929 . S
C911 C908 1.399 . S
C911 C913 1.392 . S
C911 H921 0.929 . S
C912 C908 1.383 1_545 S
C912 C909 1.389 . S
C912 H922 0.931 . S
C913 C910 1.380 . S
C913 C911 1.392 . S
C913 H923 0.929 . S
C914 O894 1.266 . S
C914 O895 1.248 . S
C915 Tb851 2.802 . S
C915 O890 1.264 . S
C915 O893 1.256 1_545 S
C915 C908 1.496 1_545 S
H916 C899 0.929 . S
H917 C900 0.929 . S
H918 C901 0.929 . S
H919 C902 0.931 . S
H920 C910 0.929 . S
H921 C911 0.929 . S
H922 C912 0.931 . S
H923 C913 0.929 . S
Tb924 N953 2.617 . S
Tb924 N959 2.572 . S
Tb924 O968 2.465 . S
Tb924 O969 2.387 . S
Tb924 O971 2.428 . S
Tb924 O972 2.308 . S
Tb924 O976 2.349 . S
Tb924 O979 2.393 . S
Tb924 C988 2.802 . S
C925 N926 1.379 . S
C925 C928 1.416 . S
C925 C932 1.424 . S
N926 C925 1.379 . S
N926 C929 1.334 . S
N926 Tb935 2.617 . S
C927 C929 1.390 . S
C927 C930 1.339 . S
C927 H947 0.930 . S
C928 C925 1.416 . S
C928 C930 1.416 . S
C928 C934 1.448 . S
C929 N926 1.334 . S
C929 C927 1.390 . S
C929 H940 0.930 . S
C930 C927 1.339 . S
C930 C928 1.416 . S
C930 H951 0.930 . S
C931 C932 1.413 . S
C931 C933 1.427 . S
C931 C937 1.416 . S
C932 C925 1.424 . S
C932 C931 1.413 . S
C932 N936 1.361 . S
C933 C931 1.427 . S
C933 C934 1.328 . S
C933 H948 0.929 . S
C934 C928 1.448 . S
C934 C933 1.328 . S
C934 H949 0.930 . S
Tb935 N926 2.617 . S
Tb935 N936 2.572 . S
Tb935 O970 2.349 . S
Tb935 O973 2.393 . S
Tb935 O974 2.465 . S
Tb935 O975 2.387 . S
Tb935 O977 2.428 . S
Tb935 O978 2.308 . S
Tb935 C999 2.802 . S
N936 C932 1.361 . S
N936 Tb935 2.572 . S
N936 C938 1.340 . S
C937 C931 1.416 . S
C937 C939 1.332 . S
C937 H945 0.931 . S
C938 N936 1.340 . S
C938 C939 1.407 . S
C938 H944 0.930 . S
C939 C937 1.332 . S
C939 C938 1.407 . S
C939 H941 0.929 . S
H940 C929 0.930 . S
H941 C939 0.929 . S
H942 C957 0.930 . S
H943 C964 0.929 . S
H944 C938 0.930 . S
H945 C937 0.931 . S
H946 C960 0.930 . S
H947 C927 0.930 . S
H948 C933 0.929 . S
H949 C934 0.930 . S
H950 C955 0.930 . S
H951 C930 0.930 . S
H952 C963 0.931 . S
N953 Tb924 2.617 . S
N953 C954 1.379 . S
N953 C957 1.334 . S
C954 N953 1.379 . S
C954 C956 1.416 . S
C954 C962 1.424 . S
C955 H950 0.930 . S
C955 C957 1.390 . S
C955 C958 1.339 . S
C956 C954 1.416 . S
C956 C958 1.416 . S
C956 C989 1.448 . S
C957 H942 0.930 . S
C957 N953 1.334 . S
C957 C955 1.390 . S
C958 C955 1.339 . S
C958 C956 1.416 . S
C958 H965 0.930 . S
N959 Tb924 2.572 . S
N959 C960 1.340 . S
N959 C962 1.361 . S
C960 H946 0.930 . S
C960 N959 1.340 . S
C960 C964 1.407 . S
C961 C962 1.413 . S
C961 C963 1.416 . S
C961 C990 1.427 . S
C962 C954 1.424 . S
C962 N959 1.361 . S
C962 C961 1.413 . S
C963 H952 0.931 . S
C963 C961 1.416 . S
C963 C964 1.332 . S
C964 H943 0.929 . S
C964 C960 1.407 . S
C964 C963 1.332 . S
H965 C958 0.930 . S
H966 C989 0.930 . S
H967 C990 0.929 . S
O968 Tb924 2.465 . S
O968 C988 1.264 . S
O969 Tb924 2.387 . S
O969 C980 1.264 . S
O970 Tb935 2.349 . S
O970 C980 1.243 . S
O971 Tb924 2.428 . S
O971 C988 1.256 . S
O972 Tb924 2.308 . S
O972 C987 1.266 . S
O973 Tb935 2.393 . S
O973 C987 1.248 . S
O974 Tb935 2.465 . S
O974 C999 1.264 . S
O975 Tb935 2.387 . S
O975 C991 1.264 . S
O976 Tb924 2.349 . S
O976 C991 1.243 . S
O977 Tb935 2.428 . S
O977 C999 1.256 . S
O978 Tb935 2.308 . S
O978 C998 1.266 . S
O979 Tb924 2.393 . S
O979 C998 1.248 . S
C980 O969 1.264 . S
C980 O970 1.243 . S
C981 C984 1.399 . S
C981 C986 1.383 . S
C981 C988 1.496 . S
C982 C983 1.399 . S
C982 C986 1.389 . S
C983 C982 1.399 . S
C983 C985 1.380 . S
C983 H1000 0.929 . S
C984 C981 1.399 . S
C984 C985 1.392 . S
C984 H1001 0.929 . S
C985 C983 1.380 . S
C985 C984 1.392 . S
C985 H1002 0.929 . S
C986 C981 1.383 . S
C986 C982 1.389 . S
C986 H1003 0.931 . S
C987 O972 1.266 . S
C987 O973 1.248 . S
C988 Tb924 2.802 . S
C988 O968 1.264 . S
C988 O971 1.256 . S
C988 C981 1.496 . S
C989 C956 1.448 . S
C989 H966 0.930 . S
C989 C990 1.328 . S
C990 C961 1.427 . S
C990 H967 0.929 . S
C990 C989 1.328 . S
C991 O975 1.264 . S
C991 O976 1.243 . S
C992 C995 1.399 . S
C992 C996 1.383 . S
C992 C999 1.496 . S
C993 C994 1.399 . S
C993 C996 1.389 . S
C994 C993 1.399 . S
C994 C997 1.380 . S
C994 H1004 0.929 . S
C995 C992 1.399 . S
C995 C997 1.392 . S
C995 H1005 0.929 . S
C996 C992 1.383 . S
C996 C993 1.389 . S
C996 H1006 0.931 . S
C997 C994 1.380 . S
C997 C995 1.392 . S
C997 H1007 0.929 . S
C998 O978 1.266 . S
C998 O979 1.248 . S
C999 Tb935 2.802 . S
C999 O974 1.264 . S
C999 O977 1.256 . S
C999 C992 1.496 . S
H1000 C983 0.929 . S
H1001 C984 0.929 . S
H1002 C985 0.929 . S
H1003 C986 0.931 . S
H1004 C994 0.929 . S
H1005 C995 0.929 . S
H1006 C996 0.931 . S
H1007 C997 0.929 . S
Tb1008 N1037 2.617 1_554 S
Tb1008 N1043 2.572 1_554 S
Tb1008 O1052 2.465 . S
Tb1008 O1053 2.387 1_554 S
Tb1008 O1055 2.428 . S
Tb1008 O1056 2.308 . S
Tb1008 O1060 2.349 . S
Tb1008 O1063 2.393 . S
Tb1008 C1072 2.802 . S
C1009 N1010 1.379 . S
C1009 C1012 1.416 . S
C1009 C1016 1.424 . S
N1010 C1009 1.379 . S
N1010 C1013 1.334 . S
N1010 Tb1019 2.617 . S
C1011 C1013 1.390 . S
C1011 C1014 1.339 . S
C1011 H1031 0.930 . S
C1012 C1009 1.416 . S
C1012 C1014 1.416 . S
C1012 C1018 1.448 . S
C1013 N1010 1.334 . S
C1013 C1011 1.390 . S
C1013 H1024 0.930 . S
C1014 C1011 1.339 . S
C1014 C1012 1.416 . S
C1014 H1035 0.930 . S
C1015 C1016 1.413 . S
C1015 C1017 1.427 . S
C1015 C1021 1.416 . S
C1016 C1009 1.424 . S
C1016 C1015 1.413 . S
C1016 N1020 1.361 . S
C1017 C1015 1.427 . S
C1017 C1018 1.328 . S
C1017 H1032 0.929 . S
C1018 C1012 1.448 . S
C1018 C1017 1.328 . S
C1018 H1033 0.930 . S
Tb1019 N1010 2.617 . S
Tb1019 N1020 2.572 . S
Tb1019 O1054 2.349 1_554 S
Tb1019 O1057 2.393 . S
Tb1019 O1058 2.465 . S
Tb1019 O1059 2.387 . S
Tb1019 O1061 2.428 . S
Tb1019 O1062 2.308 . S
Tb1019 C1083 2.802 . S
N1020 C1016 1.361 . S
N1020 Tb1019 2.572 . S
N1020 C1022 1.340 . S
C1021 C1015 1.416 . S
C1021 C1023 1.332 . S
C1021 H1029 0.931 . S
C1022 N1020 1.340 . S
C1022 C1023 1.407 . S
C1022 H1028 0.930 . S
C1023 C1021 1.332 . S
C1023 C1022 1.407 . S
C1023 H1025 0.929 . S
H1024 C1013 0.930 . S
H1025 C1023 0.929 . S
H1026 C1041 0.930 1_554 S
H1027 C1048 0.929 . S
H1028 C1022 0.930 . S
H1029 C1021 0.931 . S
H1030 C1044 0.930 1_554 S
H1031 C1011 0.930 . S
H1032 C1017 0.929 . S
H1033 C1018 0.930 . S
H1034 C1039 0.930 . S
H1035 C1014 0.930 . S
H1036 C1047 0.931 . S
N1037 Tb1008 2.617 1_556 S
N1037 C1038 1.379 . S
N1037 C1041 1.334 . S
C1038 N1037 1.379 . S
C1038 C1040 1.416 . S
C1038 C1046 1.424 . S
C1039 H1034 0.930 . S
C1039 C1041 1.390 . S
C1039 C1042 1.339 . S
C1040 C1038 1.416 . S
C1040 C1042 1.416 . S
C1040 C1073 1.448 . S
C1041 H1026 0.930 1_556 S
C1041 N1037 1.334 . S
C1041 C1039 1.390 . S
C1042 C1039 1.339 . S
C1042 C1040 1.416 . S
C1042 H1049 0.930 . S
N1043 Tb1008 2.572 1_556 S
N1043 C1044 1.340 . S
N1043 C1046 1.361 . S
C1044 H1030 0.930 1_556 S
C1044 N1043 1.340 . S
C1044 C1048 1.407 . S
C1045 C1046 1.413 . S
C1045 C1047 1.416 . S
C1045 C1074 1.427 . S
C1046 C1038 1.424 . S
C1046 N1043 1.361 . S
C1046 C1045 1.413 . S
C1047 H1036 0.931 . S
C1047 C1045 1.416 . S
C1047 C1048 1.332 . S
C1048 H1027 0.929 . S
C1048 C1044 1.407 . S
C1048 C1047 1.332 . S
H1049 C1042 0.930 . S
H1050 C1073 0.930 . S
H1051 C1074 0.929 . S
O1052 Tb1008 2.465 . S
O1052 C1072 1.264 . S
O1053 Tb1008 2.387 1_556 S
O1053 C1064 1.264 . S
O1054 Tb1019 2.349 1_556 S
O1054 C1064 1.243 . S
O1055 Tb1008 2.428 . S
O1055 C1072 1.256 . S
O1056 Tb1008 2.308 . S
O1056 C1071 1.266 . S
O1057 Tb1019 2.393 . S
O1057 C1071 1.248 . S
O1058 Tb1019 2.465 . S
O1058 C1083 1.264 . S
O1059 Tb1019 2.387 . S
O1059 C1075 1.264 . S
O1060 Tb1008 2.349 . S
O1060 C1075 1.243 . S
O1061 Tb1019 2.428 . S
O1061 C1083 1.256 . S
O1062 Tb1019 2.308 . S
O1062 C1082 1.266 . S
O1063 Tb1008 2.393 . S
O1063 C1082 1.248 . S
C1064 O1053 1.264 . S
C1064 O1054 1.243 . S
C1065 C1068 1.399 . S
C1065 C1070 1.383 . S
C1065 C1072 1.496 . S
C1066 C1067 1.399 . S
C1066 C1070 1.389 . S
C1067 C1066 1.399 . S
C1067 C1069 1.380 . S
C1067 H1084 0.929 . S
C1068 C1065 1.399 . S
C1068 C1069 1.392 . S
C1068 H1085 0.929 . S
C1069 C1067 1.380 . S
C1069 C1068 1.392 . S
C1069 H1086 0.929 . S
C1070 C1065 1.383 . S
C1070 C1066 1.389 . S
C1070 H1087 0.931 . S
C1071 O1056 1.266 . S
C1071 O1057 1.248 . S
C1072 Tb1008 2.802 . S
C1072 O1052 1.264 . S
C1072 O1055 1.256 . S
C1072 C1065 1.496 . S
C1073 C1040 1.448 . S
C1073 H1050 0.930 . S
C1073 C1074 1.328 . S
C1074 C1045 1.427 . S
C1074 H1051 0.929 . S
C1074 C1073 1.328 . S
C1075 O1059 1.264 . S
C1075 O1060 1.243 . S
C1076 C1079 1.399 . S
C1076 C1080 1.383 . S
C1076 C1083 1.496 1_556 S
C1077 C1078 1.399 . S
C1077 C1080 1.389 . S
C1078 C1077 1.399 . S
C1078 C1081 1.380 . S
C1078 H1088 0.929 . S
C1079 C1076 1.399 . S
C1079 C1081 1.392 . S
C1079 H1089 0.946 . S
C1080 C1076 1.383 . S
C1080 C1077 1.389 . S
C1080 H1090 0.931 . S
C1081 C1078 1.380 . S
C1081 C1079 1.392 . S
C1081 H1091 0.929 . S
C1082 O1062 1.266 . S
C1082 O1063 1.248 . S
C1083 Tb1019 2.802 . S
C1083 O1058 1.264 . S
C1083 O1061 1.256 . S
C1083 C1076 1.496 1_554 S
H1084 C1067 0.929 . S
H1085 C1068 0.929 . S
H1086 C1069 0.929 . S
H1087 C1070 0.931 . S
H1088 C1078 0.929 . S
H1089 C1079 0.946 . S
H1090 C1080 0.931 . S
H1091 C1081 0.929 . S
Tb1092 N1121 2.617 . S
Tb1092 N1127 2.572 . S
Tb1092 O1136 2.465 . S
Tb1092 O1137 2.387 . S
Tb1092 O1139 2.428 . S
Tb1092 O1140 2.308 . S
Tb1092 O1144 2.349 . S
Tb1092 O1147 2.393 . S
Tb1092 C1156 2.802 . S
C1093 N1094 1.379 . S
C1093 C1096 1.416 . S
C1093 C1100 1.424 . S
N1094 C1093 1.379 . S
N1094 C1097 1.334 . S
N1094 Tb1103 2.617 . S
C1095 C1097 1.390 . S
C1095 C1098 1.339 . S
C1095 H1115 0.930 . S
C1096 C1093 1.416 . S
C1096 C1098 1.416 . S
C1096 C1102 1.448 . S
C1097 N1094 1.334 . S
C1097 C1095 1.390 . S
C1097 H1108 0.930 . S
C1098 C1095 1.339 . S
C1098 C1096 1.416 . S
C1098 H1119 0.930 . S
C1099 C1100 1.413 . S
C1099 C1101 1.427 . S
C1099 C1105 1.416 . S
C1100 C1093 1.424 . S
C1100 C1099 1.413 . S
C1100 N1104 1.361 . S
C1101 C1099 1.427 . S
C1101 C1102 1.328 . S
C1101 H1116 0.929 . S
C1102 C1096 1.448 . S
C1102 C1101 1.328 . S
C1102 H1117 0.930 . S
Tb1103 N1094 2.617 . S
Tb1103 N1104 2.572 . S
Tb1103 O1138 2.349 . S
Tb1103 O1141 2.393 . S
Tb1103 O1142 2.465 . S
Tb1103 O1143 2.387 . S
Tb1103 O1145 2.428 . S
Tb1103 O1146 2.308 . S
Tb1103 C1167 2.802 . S
N1104 C1100 1.361 . S
N1104 Tb1103 2.572 . S
N1104 C1106 1.340 . S
C1105 C1099 1.416 . S
C1105 C1107 1.332 . S
C1105 H1113 0.931 . S
C1106 N1104 1.340 . S
C1106 C1107 1.407 . S
C1106 H1112 0.930 . S
C1107 C1105 1.332 . S
C1107 C1106 1.407 . S
C1107 H1109 0.929 . S
H1108 C1097 0.930 . S
H1109 C1107 0.929 . S
H1110 C1125 0.930 . S
H1111 C1132 0.929 . S
H1112 C1106 0.930 . S
H1113 C1105 0.931 . S
H1114 C1128 0.930 . S
H1115 C1095 0.930 . S
H1116 C1101 0.929 . S
H1117 C1102 0.930 . S
H1118 C1123 0.930 . S
H1119 C1098 0.930 . S
H1120 C1131 0.931 . S
N1121 Tb1092 2.617 . S
N1121 C1122 1.379 . S
N1121 C1125 1.334 . S
C1122 N1121 1.379 . S
C1122 C1124 1.416 . S
C1122 C1130 1.424 . S
C1123 H1118 0.930 . S
C1123 C1125 1.390 . S
C1123 C1126 1.339 . S
C1124 C1122 1.416 . S
C1124 C1126 1.416 . S
C1124 C1157 1.448 . S
C1125 H1110 0.930 . S
C1125 N1121 1.334 . S
C1125 C1123 1.390 . S
C1126 C1123 1.339 . S
C1126 C1124 1.416 . S
C1126 H1133 0.930 . S
N1127 Tb1092 2.572 . S
N1127 C1128 1.340 . S
N1127 C1130 1.361 . S
C1128 H1114 0.930 . S
C1128 N1127 1.340 . S
C1128 C1132 1.407 . S
C1129 C1130 1.413 . S
C1129 C1131 1.416 . S
C1129 C1158 1.427 . S
C1130 C1122 1.424 . S
C1130 N1127 1.361 . S
C1130 C1129 1.413 . S
C1131 H1120 0.931 . S
C1131 C1129 1.416 . S
C1131 C1132 1.332 . S
C1132 H1111 0.929 . S
C1132 C1128 1.407 . S
C1132 C1131 1.332 . S
H1133 C1126 0.930 . S
H1134 C1157 0.930 . S
H1135 C1158 0.929 . S
O1136 Tb1092 2.465 . S
O1136 C1156 1.264 . S
O1137 Tb1092 2.387 . S
O1137 C1148 1.264 . S
O1138 Tb1103 2.349 . S
O1138 C1148 1.243 . S
O1139 Tb1092 2.428 . S
O1139 C1156 1.256 . S
O1140 Tb1092 2.308 . S
O1140 C1155 1.266 . S
O1141 Tb1103 2.393 . S
O1141 C1155 1.248 . S
O1142 Tb1103 2.465 . S
O1142 C1167 1.264 . S
O1143 Tb1103 2.387 . S
O1143 C1159 1.264 . S
O1144 Tb1092 2.349 . S
O1144 C1159 1.243 . S
O1145 Tb1103 2.428 . S
O1145 C1167 1.256 . S
O1146 Tb1103 2.308 . S
O1146 C1166 1.266 . S
O1147 Tb1092 2.393 . S
O1147 C1166 1.248 . S
C1148 O1137 1.264 . S
C1148 O1138 1.243 . S
C1149 C1152 1.399 . S
C1149 C1154 1.383 . S
C1149 C1156 1.496 . S
C1150 C1151 1.399 . S
C1150 C1154 1.389 . S
C1151 C1150 1.399 . S
C1151 C1153 1.380 . S
C1151 H1168 0.929 . S
C1152 C1149 1.399 . S
C1152 C1153 1.392 . S
C1152 H1169 0.929 . S
C1153 C1151 1.380 . S
C1153 C1152 1.392 . S
C1153 H1170 0.929 . S
C1154 C1149 1.383 . S
C1154 C1150 1.389 . S
C1154 H1171 0.931 . S
C1155 O1140 1.266 . S
C1155 O1141 1.248 . S
C1156 Tb1092 2.802 . S
C1156 O1136 1.264 . S
C1156 O1139 1.256 . S
C1156 C1149 1.496 . S
C1157 C1124 1.448 . S
C1157 H1134 0.930 . S
C1157 C1158 1.328 . S
C1158 C1129 1.427 . S
C1158 H1135 0.929 . S
C1158 C1157 1.328 . S
C1159 O1143 1.264 . S
C1159 O1144 1.243 . S
C1160 C1163 1.399 . S
C1160 C1164 1.383 . S
C1160 C1167 1.496 . S
C1161 C1162 1.399 . S
C1161 C1164 1.389 . S
C1162 C1161 1.399 . S
C1162 C1165 1.380 . S
C1162 H1172 0.929 . S
C1163 C1160 1.399 . S
C1163 C1165 1.392 . S
C1163 H1173 0.929 . S
C1164 C1160 1.383 . S
C1164 C1161 1.389 . S
C1164 H1174 0.931 . S
C1165 C1162 1.380 . S
C1165 C1163 1.392 . S
C1165 H1175 0.929 . S
C1166 O1146 1.266 . S
C1166 O1147 1.248 . S
C1167 Tb1103 2.802 . S
C1167 O1142 1.264 . S
C1167 O1145 1.256 . S
C1167 C1160 1.496 . S
H1168 C1151 0.929 . S
H1169 C1152 0.929 . S
H1170 C1153 0.929 . S
H1171 C1154 0.931 . S
H1172 C1162 0.929 . S
H1173 C1163 0.929 . S
H1174 C1164 0.931 . S
H1175 C1165 0.929 . S
Tb1176 N1205 2.617 1_455 S
Tb1176 N1211 2.572 1_455 S
Tb1176 O1220 2.465 . S
Tb1176 O1221 2.387 1_455 S
Tb1176 O1223 2.428 . S
Tb1176 O1224 2.308 . S
Tb1176 O1228 2.349 . S
Tb1176 O1231 2.393 . S
Tb1176 C1240 2.802 . S
C1177 N1178 1.379 . S
C1177 C1180 1.416 . S
C1177 C1184 1.424 . S
N1178 C1177 1.379 . S
N1178 C1181 1.334 . S
N1178 Tb1187 2.617 . S
C1179 C1181 1.390 . S
C1179 C1182 1.339 . S
C1179 H1199 0.930 . S
C1180 C1177 1.416 . S
C1180 C1182 1.416 . S
C1180 C1186 1.448 . S
C1181 N1178 1.334 . S
C1181 C1179 1.390 . S
C1181 H1192 0.930 . S
C1182 C1179 1.339 . S
C1182 C1180 1.416 . S
C1182 H1203 0.930 . S
C1183 C1184 1.413 . S
C1183 C1185 1.427 . S
C1183 C1189 1.416 . S
C1184 C1177 1.424 . S
C1184 C1183 1.413 . S
C1184 N1188 1.361 . S
C1185 C1183 1.427 . S
C1185 C1186 1.328 . S
C1185 H1200 0.929 . S
C1186 C1180 1.448 . S
C1186 C1185 1.328 . S
C1186 H1201 0.930 . S
Tb1187 N1178 2.617 . S
Tb1187 N1188 2.572 . S
Tb1187 O1222 2.349 1_455 S
Tb1187 O1225 2.393 . S
Tb1187 O1226 2.465 . S
Tb1187 O1227 2.387 . S
Tb1187 O1229 2.428 . S
Tb1187 O1230 2.308 . S
Tb1187 C1251 2.802 . S
N1188 C1184 1.361 . S
N1188 Tb1187 2.572 . S
N1188 C1190 1.340 . S
C1189 C1183 1.416 . S
C1189 C1191 1.332 . S
C1189 H1197 0.931 . S
C1190 N1188 1.340 . S
C1190 C1191 1.407 . S
C1190 H1196 0.930 . S
C1191 C1189 1.332 . S
C1191 C1190 1.407 . S
C1191 H1193 0.929 . S
H1192 C1181 0.930 . S
H1193 C1191 0.929 . S
H1194 C1209 0.930 1_455 S
H1195 C1216 0.929 . S
H1196 C1190 0.930 . S
H1197 C1189 0.931 . S
H1198 C1212 0.930 1_455 S
H1199 C1179 0.930 . S
H1200 C1185 0.929 . S
H1201 C1186 0.930 . S
H1202 C1207 0.930 . S
H1203 C1182 0.930 . S
H1204 C1215 0.931 . S
N1205 Tb1176 2.617 1_655 S
N1205 C1206 1.379 . S
N1205 C1209 1.334 . S
C1206 N1205 1.379 . S
C1206 C1208 1.416 . S
C1206 C1214 1.424 . S
C1207 H1202 0.930 . S
C1207 C1209 1.390 . S
C1207 C1210 1.339 . S
C1208 C1206 1.416 . S
C1208 C1210 1.416 . S
C1208 C1241 1.448 . S
C1209 H1194 0.930 1_655 S
C1209 N1205 1.334 . S
C1209 C1207 1.390 . S
C1210 C1207 1.339 . S
C1210 C1208 1.416 . S
C1210 H1217 0.930 . S
N1211 Tb1176 2.572 1_655 S
N1211 C1212 1.340 . S
N1211 C1214 1.361 . S
C1212 H1198 0.930 1_655 S
C1212 N1211 1.340 . S
C1212 C1216 1.407 . S
C1213 C1214 1.413 . S
C1213 C1215 1.416 . S
C1213 C1242 1.427 . S
C1214 C1206 1.424 . S
C1214 N1211 1.361 . S
C1214 C1213 1.413 . S
C1215 H1204 0.931 . S
C1215 C1213 1.416 . S
C1215 C1216 1.332 . S
C1216 H1195 0.929 . S
C1216 C1212 1.407 . S
C1216 C1215 1.332 . S
H1217 C1210 0.930 . S
H1218 C1241 0.930 . S
H1219 C1242 0.929 . S
O1220 Tb1176 2.465 . S
O1220 C1240 1.264 . S
O1221 Tb1176 2.387 1_655 S
O1221 C1232 1.264 . S
O1222 Tb1187 2.349 1_655 S
O1222 C1232 1.243 . S
O1223 Tb1176 2.428 . S
O1223 C1240 1.256 . S
O1224 Tb1176 2.308 . S
O1224 C1239 1.266 . S
O1225 Tb1187 2.393 . S
O1225 C1239 1.248 . S
O1226 Tb1187 2.465 . S
O1226 C1251 1.264 . S
O1227 Tb1187 2.387 . S
O1227 C1243 1.264 . S
O1228 Tb1176 2.349 . S
O1228 C1243 1.243 . S
O1229 Tb1187 2.428 . S
O1229 C1251 1.256 . S
O1230 Tb1187 2.308 . S
O1230 C1250 1.266 . S
O1231 Tb1176 2.393 . S
O1231 C1250 1.248 . S
C1232 O1221 1.264 . S
C1232 O1222 1.243 . S
C1233 C1236 1.399 . S
C1233 C1238 1.383 . S
C1233 C1240 1.496 . S
C1234 C1235 1.399 . S
C1234 C1238 1.389 . S
C1235 C1234 1.399 . S
C1235 C1237 1.380 . S
C1235 H1252 0.929 . S
C1236 C1233 1.399 . S
C1236 C1237 1.392 . S
C1236 H1253 0.929 . S
C1237 C1235 1.380 . S
C1237 C1236 1.392 . S
C1237 H1254 0.929 . S
C1238 C1233 1.383 . S
C1238 C1234 1.389 . S
C1238 H1255 0.931 . S
C1239 O1224 1.266 . S
C1239 O1225 1.248 . S
C1240 Tb1176 2.802 . S
C1240 O1220 1.264 . S
C1240 O1223 1.256 . S
C1240 C1233 1.496 . S
C1241 C1208 1.448 . S
C1241 H1218 0.930 . S
C1241 C1242 1.328 . S
C1242 C1213 1.427 . S
C1242 H1219 0.929 . S
C1242 C1241 1.328 . S
C1243 O1227 1.264 . S
C1243 O1228 1.243 . S
C1244 C1247 1.399 . S
C1244 C1248 1.383 . S
C1244 C1251 1.496 1_655 S
C1245 C1246 1.399 . S
C1245 C1248 1.389 . S
C1246 C1245 1.399 . S
C1246 C1249 1.380 . S
C1246 H1256 0.929 . S
C1247 C1244 1.399 . S
C1247 C1249 1.392 . S
C1247 H1257 0.929 . S
C1248 C1244 1.383 . S
C1248 C1245 1.389 . S
C1248 H1258 0.931 . S
C1249 C1246 1.380 . S
C1249 C1247 1.392 . S
C1249 H1259 0.929 . S
C1250 O1230 1.266 . S
C1250 O1231 1.248 . S
C1251 Tb1187 2.802 . S
C1251 O1226 1.264 . S
C1251 O1229 1.256 . S
C1251 C1244 1.496 1_455 S
H1252 C1235 0.929 . S
H1253 C1236 0.929 . S
H1254 C1237 0.929 . S
H1255 C1238 0.931 . S
H1256 C1246 0.929 . S
H1257 C1247 0.929 . S
H1258 C1248 0.931 . S
H1259 C1249 0.929 . S
Tb1260 N1289 2.617 . S
Tb1260 N1295 2.572 . S
Tb1260 O1304 2.465 . S
Tb1260 O1305 2.387 . S
Tb1260 O1307 2.428 . S
Tb1260 O1308 2.308 . S
Tb1260 O1312 2.349 . S
Tb1260 O1315 2.393 . S
Tb1260 C1324 2.802 . S
C1261 N1262 1.379 . S
C1261 C1264 1.416 . S
C1261 C1268 1.424 . S
N1262 C1261 1.379 . S
N1262 C1265 1.334 . S
N1262 Tb1271 2.617 . S
C1263 C1265 1.390 . S
C1263 C1266 1.339 . S
C1263 H1283 0.930 . S
C1264 C1261 1.416 . S
C1264 C1266 1.416 . S
C1264 C1270 1.448 . S
C1265 N1262 1.334 . S
C1265 C1263 1.390 . S
C1265 H1276 0.930 . S
C1266 C1263 1.339 . S
C1266 C1264 1.416 . S
C1266 H1287 0.930 . S
C1267 C1268 1.413 . S
C1267 C1269 1.427 . S
C1267 C1273 1.416 . S
C1268 C1261 1.424 . S
C1268 C1267 1.413 . S
C1268 N1272 1.361 . S
C1269 C1267 1.427 . S
C1269 C1270 1.328 . S
C1269 H1284 0.929 . S
C1270 C1264 1.448 . S
C1270 C1269 1.328 . S
C1270 H1285 0.930 . S
Tb1271 N1262 2.617 . S
Tb1271 N1272 2.572 . S
Tb1271 O1306 2.349 . S
Tb1271 O1309 2.393 . S
Tb1271 O1310 2.465 . S
Tb1271 O1311 2.387 . S
Tb1271 O1313 2.428 . S
Tb1271 O1314 2.308 . S
Tb1271 C1335 2.802 . S
N1272 C1268 1.361 . S
N1272 Tb1271 2.572 . S
N1272 C1274 1.340 . S
C1273 C1267 1.416 . S
C1273 C1275 1.332 . S
C1273 H1281 0.931 . S
C1274 N1272 1.340 . S
C1274 C1275 1.407 . S
C1274 H1280 0.930 . S
C1275 C1273 1.332 . S
C1275 C1274 1.407 . S
C1275 H1277 0.929 . S
H1276 C1265 0.930 . S
H1277 C1275 0.929 . S
H1278 C1293 0.930 . S
H1279 C1300 0.929 . S
H1280 C1274 0.930 . S
H1281 C1273 0.931 . S
H1282 C1296 0.930 . S
H1283 C1263 0.930 . S
H1284 C1269 0.929 . S
H1285 C1270 0.930 . S
H1286 C1291 0.930 . S
H1287 C1266 0.930 . S
H1288 C1299 0.931 . S
N1289 Tb1260 2.617 . S
N1289 C1290 1.379 . S
N1289 C1293 1.334 . S
C1290 N1289 1.379 . S
C1290 C1292 1.416 . S
C1290 C1298 1.424 . S
C1291 H1286 0.930 . S
C1291 C1293 1.390 . S
C1291 C1294 1.339 . S
C1292 C1290 1.416 . S
C1292 C1294 1.416 . S
C1292 C1325 1.448 . S
C1293 H1278 0.930 . S
C1293 N1289 1.334 . S
C1293 C1291 1.390 . S
C1294 C1291 1.339 . S
C1294 C1292 1.416 . S
C1294 H1301 0.930 . S
N1295 Tb1260 2.572 . S
N1295 C1296 1.340 . S
N1295 C1298 1.361 . S
C1296 H1282 0.930 . S
C1296 N1295 1.340 . S
C1296 C1300 1.407 . S
C1297 C1298 1.413 . S
C1297 C1299 1.416 . S
C1297 C1326 1.427 . S
C1298 C1290 1.424 . S
C1298 N1295 1.361 . S
C1298 C1297 1.413 . S
C1299 H1288 0.931 . S
C1299 C1297 1.416 . S
C1299 C1300 1.332 . S
C1300 H1279 0.929 . S
C1300 C1296 1.407 . S
C1300 C1299 1.332 . S
H1301 C1294 0.930 . S
H1302 C1325 0.930 . S
H1303 C1326 0.929 . S
O1304 Tb1260 2.465 . S
O1304 C1324 1.264 . S
O1305 Tb1260 2.387 . S
O1305 C1316 1.264 . S
O1306 Tb1271 2.349 . S
O1306 C1316 1.243 . S
O1307 Tb1260 2.428 . S
O1307 C1324 1.256 . S
O1308 Tb1260 2.308 . S
O1308 C1323 1.266 . S
O1309 Tb1271 2.393 . S
O1309 C1323 1.248 . S
O1310 Tb1271 2.465 . S
O1310 C1335 1.264 . S
O1311 Tb1271 2.387 . S
O1311 C1327 1.264 . S
O1312 Tb1260 2.349 . S
O1312 C1327 1.243 . S
O1313 Tb1271 2.428 . S
O1313 C1335 1.256 . S
O1314 Tb1271 2.308 . S
O1314 C1334 1.266 . S
O1315 Tb1260 2.393 . S
O1315 C1334 1.248 . S
C1316 O1305 1.264 . S
C1316 O1306 1.243 . S
C1317 C1320 1.399 . S
C1317 C1322 1.383 . S
C1317 C1324 1.496 . S
C1318 C1319 1.399 . S
C1318 C1322 1.389 . S
C1319 C1318 1.399 . S
C1319 C1321 1.380 . S
C1319 H1336 0.929 . S
C1320 C1317 1.399 . S
C1320 C1321 1.392 . S
C1320 H1337 0.929 . S
C1321 C1319 1.380 . S
C1321 C1320 1.392 . S
C1321 H1338 0.929 . S
C1322 C1317 1.383 . S
C1322 C1318 1.389 . S
C1322 H1339 0.931 . S
C1323 O1308 1.266 . S
C1323 O1309 1.248 . S
C1324 Tb1260 2.802 . S
C1324 O1304 1.264 . S
C1324 O1307 1.256 . S
C1324 C1317 1.496 . S
C1325 C1292 1.448 . S
C1325 H1302 0.930 . S
C1325 C1326 1.328 . S
C1326 C1297 1.427 . S
C1326 H1303 0.929 . S
C1326 C1325 1.328 . S
C1327 O1311 1.264 . S
C1327 O1312 1.243 . S
C1328 C1331 1.399 . S
C1328 C1332 1.383 . S
C1328 C1335 1.496 . S
C1329 C1330 1.399 . S
C1329 C1332 1.389 . S
C1330 C1329 1.399 . S
C1330 C1333 1.380 . S
C1330 H1340 0.929 . S
C1331 C1328 1.399 . S
C1331 C1333 1.392 . S
C1331 H1341 0.929 . S
C1332 C1328 1.383 . S
C1332 C1329 1.389 . S
C1332 H1342 0.931 . S
C1333 C1330 1.380 . S
C1333 C1331 1.392 . S
C1333 H1343 0.929 . S
C1334 O1314 1.266 . S
C1334 O1315 1.248 . S
C1335 Tb1271 2.802 . S
C1335 O1310 1.264 . S
C1335 O1313 1.256 . S
C1335 C1328 1.496 . S
H1336 C1319 0.929 . S
H1337 C1320 0.929 . S
H1338 C1321 0.929 . S
H1339 C1322 0.931 . S
H1340 C1330 0.929 . S
H1341 C1331 0.929 . S
H1342 C1332 0.931 . S
H1343 C1333 0.929 . S
Tb1344 N1373 2.617 . S
Tb1344 N1379 2.572 . S
Tb1344 O1388 2.465 . S
Tb1344 O1389 2.387 . S
Tb1344 O1391 2.428 . S
Tb1344 O1392 2.308 . S
Tb1344 O1396 2.349 . S
Tb1344 O1399 2.393 . S
Tb1344 C1408 2.802 . S
C1345 N1346 1.379 . S
C1345 C1348 1.416 . S
C1345 C1352 1.424 . S
N1346 C1345 1.379 . S
N1346 C1349 1.334 . S
N1346 Tb1355 2.617 . S
C1347 C1349 1.390 . S
C1347 C1350 1.339 . S
C1347 H1367 0.930 . S
C1348 C1345 1.416 . S
C1348 C1350 1.416 . S
C1348 C1354 1.448 . S
C1349 N1346 1.334 . S
C1349 C1347 1.390 . S
C1349 H1360 0.930 . S
C1350 C1347 1.339 . S
C1350 C1348 1.416 . S
C1350 H1371 0.930 . S
C1351 C1352 1.413 . S
C1351 C1353 1.427 . S
C1351 C1357 1.416 . S
C1352 C1345 1.424 . S
C1352 C1351 1.413 . S
C1352 N1356 1.361 . S
C1353 C1351 1.427 . S
C1353 C1354 1.328 . S
C1353 H1368 0.929 . S
C1354 C1348 1.448 . S
C1354 C1353 1.328 . S
C1354 H1369 0.930 . S
Tb1355 N1346 2.617 . S
Tb1355 N1356 2.572 . S
Tb1355 O1390 2.349 . S
Tb1355 O1393 2.393 . S
Tb1355 O1394 2.465 . S
Tb1355 O1395 2.387 . S
Tb1355 O1397 2.428 . S
Tb1355 O1398 2.308 . S
Tb1355 C1419 2.802 . S
N1356 C1352 1.361 . S
N1356 Tb1355 2.572 . S
N1356 C1358 1.340 . S
C1357 C1351 1.416 . S
C1357 C1359 1.332 . S
C1357 H1365 0.931 . S
C1358 N1356 1.340 . S
C1358 C1359 1.407 . S
C1358 H1364 0.930 . S
C1359 C1357 1.332 . S
C1359 C1358 1.407 . S
C1359 H1361 0.929 . S
H1360 C1349 0.930 . S
H1361 C1359 0.929 . S
H1362 C1377 0.930 . S
H1363 C1384 0.929 . S
H1364 C1358 0.930 . S
H1365 C1357 0.931 . S
H1366 C1380 0.930 . S
H1367 C1347 0.930 . S
H1368 C1353 0.929 . S
H1369 C1354 0.930 . S
H1370 C1375 0.930 . S
H1371 C1350 0.930 . S
H1372 C1383 0.931 . S
N1373 Tb1344 2.617 . S
N1373 C1374 1.379 . S
N1373 C1377 1.334 . S
C1374 N1373 1.379 . S
C1374 C1376 1.416 . S
C1374 C1382 1.424 . S
C1375 H1370 0.930 . S
C1375 C1377 1.390 . S
C1375 C1378 1.339 . S
C1376 C1374 1.416 . S
C1376 C1378 1.416 . S
C1376 C1409 1.448 . S
C1377 H1362 0.930 . S
C1377 N1373 1.334 . S
C1377 C1375 1.390 . S
C1378 C1375 1.339 . S
C1378 C1376 1.416 . S
C1378 H1385 0.930 . S
N1379 Tb1344 2.572 . S
N1379 C1380 1.340 . S
N1379 C1382 1.361 . S
C1380 H1366 0.930 . S
C1380 N1379 1.340 . S
C1380 C1384 1.407 . S
C1381 C1382 1.413 . S
C1381 C1383 1.416 . S
C1381 C1410 1.427 . S
C1382 C1374 1.424 . S
C1382 N1379 1.361 . S
C1382 C1381 1.413 . S
C1383 H1372 0.931 . S
C1383 C1381 1.416 . S
C1383 C1384 1.332 . S
C1384 H1363 0.929 . S
C1384 C1380 1.407 . S
C1384 C1383 1.332 . S
H1385 C1378 0.930 . S
H1386 C1409 0.930 . S
H1387 C1410 0.929 . S
O1388 Tb1344 2.465 . S
O1388 C1408 1.264 . S
O1389 Tb1344 2.387 . S
O1389 C1400 1.264 . S
O1390 Tb1355 2.349 . S
O1390 C1400 1.243 . S
O1391 Tb1344 2.428 . S
O1391 C1408 1.256 . S
O1392 Tb1344 2.308 . S
O1392 C1407 1.266 . S
O1393 Tb1355 2.393 . S
O1393 C1407 1.248 . S
O1394 Tb1355 2.465 . S
O1394 C1419 1.264 . S
O1395 Tb1355 2.387 . S
O1395 C1411 1.264 . S
O1396 Tb1344 2.349 . S
O1396 C1411 1.243 . S
O1397 Tb1355 2.428 . S
O1397 C1419 1.256 . S
O1398 Tb1355 2.308 . S
O1398 C1418 1.266 . S
O1399 Tb1344 2.393 . S
O1399 C1418 1.248 . S
C1400 O1389 1.264 . S
C1400 O1390 1.243 . S
C1401 C1404 1.399 . S
C1401 C1406 1.383 . S
C1401 C1408 1.496 . S
C1402 C1403 1.399 . S
C1402 C1406 1.389 . S
C1403 C1402 1.399 . S
C1403 C1405 1.380 . S
C1403 H1420 0.929 . S
C1404 C1401 1.399 . S
C1404 C1405 1.392 . S
C1404 H1421 0.929 . S
C1405 C1403 1.380 . S
C1405 C1404 1.392 . S
C1405 H1422 0.929 . S
C1406 C1401 1.383 . S
C1406 C1402 1.389 . S
C1406 H1423 0.931 . S
C1407 O1392 1.266 . S
C1407 O1393 1.248 . S
C1408 Tb1344 2.802 . S
C1408 O1388 1.264 . S
C1408 O1391 1.256 . S
C1408 C1401 1.496 . S
C1409 C1376 1.448 . S
C1409 H1386 0.930 . S
C1409 C1410 1.328 . S
C1410 C1381 1.427 . S
C1410 H1387 0.929 . S
C1410 C1409 1.328 . S
C1411 O1395 1.264 . S
C1411 O1396 1.243 . S
C1412 C1415 1.399 . S
C1412 C1416 1.383 . S
C1412 C1419 1.496 . S
C1413 C1414 1.399 . S
C1413 C1416 1.389 . S
C1414 C1413 1.399 . S
C1414 C1417 1.380 . S
C1414 H1424 0.929 . S
C1415 C1412 1.399 . S
C1415 C1417 1.392 . S
C1415 H1425 0.929 . S
C1416 C1412 1.383 . S
C1416 C1413 1.389 . S
C1416 H1426 0.931 . S
C1417 C1414 1.380 . S
C1417 C1415 1.392 . S
C1417 H1427 0.929 . S
C1418 O1398 1.266 . S
C1418 O1399 1.248 . S
C1419 Tb1355 2.802 . S
C1419 O1394 1.264 . S
C1419 O1397 1.256 . S
C1419 C1412 1.496 . S
H1420 C1403 0.929 . S
H1421 C1404 0.929 . S
H1422 C1405 0.929 . S
H1423 C1406 0.931 . S
H1424 C1414 0.929 . S
H1425 C1415 0.929 . S
H1426 C1416 0.931 . S
H1427 C1417 0.929 . S
Tb1428 N1457 2.617 . S
Tb1428 N1463 2.572 . S
Tb1428 O1472 2.465 . S
Tb1428 O1473 2.387 . S
Tb1428 O1475 2.428 . S
Tb1428 O1476 2.308 . S
Tb1428 O1480 2.349 . S
Tb1428 O1483 2.393 . S
Tb1428 C1492 2.802 . S
C1429 N1430 1.379 . S
C1429 C1432 1.416 . S
C1429 C1436 1.424 . S
N1430 C1429 1.379 . S
N1430 C1433 1.334 . S
N1430 Tb1439 2.617 . S
C1431 C1433 1.390 . S
C1431 C1434 1.339 . S
C1431 H1451 0.930 . S
C1432 C1429 1.416 . S
C1432 C1434 1.416 . S
C1432 C1438 1.448 . S
C1433 N1430 1.334 . S
C1433 C1431 1.390 . S
C1433 H1444 0.930 . S
C1434 C1431 1.339 . S
C1434 C1432 1.416 . S
C1434 H1455 0.930 . S
C1435 C1436 1.413 . S
C1435 C1437 1.427 . S
C1435 C1441 1.416 . S
C1436 C1429 1.424 . S
C1436 C1435 1.413 . S
C1436 N1440 1.361 . S
C1437 C1435 1.427 . S
C1437 C1438 1.328 . S
C1437 H1452 0.929 . S
C1438 C1432 1.448 . S
C1438 C1437 1.328 . S
C1438 H1453 0.930 . S
Tb1439 N1430 2.617 . S
Tb1439 N1440 2.572 . S
Tb1439 O1474 2.349 . S
Tb1439 O1477 2.393 . S
Tb1439 O1478 2.465 . S
Tb1439 O1479 2.387 . S
Tb1439 O1481 2.428 . S
Tb1439 O1482 2.308 . S
Tb1439 C1503 2.802 . S
N1440 C1436 1.361 . S
N1440 Tb1439 2.572 . S
N1440 C1442 1.340 . S
C1441 C1435 1.416 . S
C1441 C1443 1.332 . S
C1441 H1449 0.931 . S
C1442 N1440 1.340 . S
C1442 C1443 1.407 . S
C1442 H1448 0.930 . S
C1443 C1441 1.332 . S
C1443 C1442 1.407 . S
C1443 H1445 0.929 . S
H1444 C1433 0.930 . S
H1445 C1443 0.929 . S
H1446 C1461 0.930 . S
H1447 C1468 0.929 . S
H1448 C1442 0.930 . S
H1449 C1441 0.931 . S
H1450 C1464 0.930 . S
H1451 C1431 0.930 . S
H1452 C1437 0.929 . S
H1453 C1438 0.930 . S
H1454 C1459 0.930 . S
H1455 C1434 0.930 . S
H1456 C1467 0.931 . S
N1457 Tb1428 2.617 . S
N1457 C1458 1.379 . S
N1457 C1461 1.334 . S
C1458 N1457 1.379 . S
C1458 C1460 1.416 . S
C1458 C1466 1.424 . S
C1459 H1454 0.930 . S
C1459 C1461 1.390 . S
C1459 C1462 1.339 . S
C1460 C1458 1.416 . S
C1460 C1462 1.416 . S
C1460 C1493 1.448 . S
C1461 H1446 0.930 . S
C1461 N1457 1.334 . S
C1461 C1459 1.390 . S
C1462 C1459 1.339 . S
C1462 C1460 1.416 . S
C1462 H1469 0.930 . S
N1463 Tb1428 2.572 . S
N1463 C1464 1.340 . S
N1463 C1466 1.361 . S
C1464 H1450 0.930 . S
C1464 N1463 1.340 . S
C1464 C1468 1.407 . S
C1465 C1466 1.413 . S
C1465 C1467 1.416 . S
C1465 C1494 1.427 . S
C1466 C1458 1.424 . S
C1466 N1463 1.361 . S
C1466 C1465 1.413 . S
C1467 H1456 0.931 . S
C1467 C1465 1.416 . S
C1467 C1468 1.332 . S
C1468 H1447 0.929 . S
C1468 C1464 1.407 . S
C1468 C1467 1.332 . S
H1469 C1462 0.930 . S
H1470 C1493 0.930 . S
H1471 C1494 0.929 . S
O1472 Tb1428 2.465 . S
O1472 C1492 1.264 . S
O1473 Tb1428 2.387 . S
O1473 C1484 1.264 . S
O1474 Tb1439 2.349 . S
O1474 C1484 1.243 . S
O1475 Tb1428 2.428 . S
O1475 C1492 1.256 . S
O1476 Tb1428 2.308 . S
O1476 C1491 1.266 . S
O1477 Tb1439 2.393 . S
O1477 C1491 1.248 . S
O1478 Tb1439 2.465 . S
O1478 C1503 1.264 . S
O1479 Tb1439 2.387 . S
O1479 C1495 1.264 . S
O1480 Tb1428 2.349 . S
O1480 C1495 1.243 . S
O1481 Tb1439 2.428 . S
O1481 C1503 1.256 . S
O1482 Tb1439 2.308 . S
O1482 C1502 1.266 . S
O1483 Tb1428 2.393 . S
O1483 C1502 1.248 . S
C1484 O1473 1.264 . S
C1484 O1474 1.243 . S
C1485 C1488 1.399 . S
C1485 C1490 1.383 . S
C1485 C1492 1.496 . S
C1486 C1487 1.399 . S
C1486 C1490 1.389 . S
C1487 C1486 1.399 . S
C1487 C1489 1.380 . S
C1487 H1504 0.929 . S
C1488 C1485 1.399 . S
C1488 C1489 1.392 . S
C1488 H1505 0.929 . S
C1489 C1487 1.380 . S
C1489 C1488 1.392 . S
C1489 H1506 0.929 . S
C1490 C1485 1.383 . S
C1490 C1486 1.389 . S
C1490 H1507 0.931 . S
C1491 O1476 1.266 . S
C1491 O1477 1.248 . S
C1492 Tb1428 2.802 . S
C1492 O1472 1.264 . S
C1492 O1475 1.256 . S
C1492 C1485 1.496 . S
C1493 C1460 1.448 . S
C1493 H1470 0.930 . S
C1493 C1494 1.328 . S
C1494 C1465 1.427 . S
C1494 H1471 0.929 . S
C1494 C1493 1.328 . S
C1495 O1479 1.264 . S
C1495 O1480 1.243 . S
C1496 C1499 1.399 . S
C1496 C1500 1.383 . S
C1496 C1503 1.496 . S
C1497 C1498 1.399 . S
C1497 C1500 1.389 . S
C1498 C1497 1.399 . S
C1498 C1501 1.380 . S
C1498 H1508 0.929 . S
C1499 C1496 1.399 . S
C1499 C1501 1.392 . S
C1499 H1509 0.929 . S
C1500 C1496 1.383 . S
C1500 C1497 1.389 . S
C1500 H1510 0.931 . S
C1501 C1498 1.380 . S
C1501 C1499 1.392 . S
C1501 H1511 0.929 . S
C1502 O1482 1.266 . S
C1502 O1483 1.248 . S
C1503 Tb1439 2.802 . S
C1503 O1478 1.264 . S
C1503 O1481 1.256 . S
C1503 C1496 1.496 . S
H1504 C1487 0.929 . S
H1505 C1488 0.929 . S
H1506 C1489 0.929 . S
H1507 C1490 0.931 . S
H1508 C1498 0.929 . S
H1509 C1499 0.929 . S
H1510 C1500 0.931 . S
H1511 C1501 0.929 . S
Tb1512 N1541 2.617 . S
Tb1512 N1547 2.572 . S
Tb1512 O1556 2.465 . S
Tb1512 O1557 2.387 . S
Tb1512 O1559 2.428 . S
Tb1512 O1560 2.308 . S
Tb1512 O1564 2.349 . S
Tb1512 O1567 2.393 . S
Tb1512 C1576 2.802 . S
C1513 N1514 1.379 . S
C1513 C1516 1.416 . S
C1513 C1520 1.424 . S
N1514 C1513 1.379 . S
N1514 C1517 1.334 . S
N1514 Tb1523 2.617 . S
C1515 C1517 1.390 . S
C1515 C1518 1.339 . S
C1515 H1535 0.930 . S
C1516 C1513 1.416 . S
C1516 C1518 1.416 . S
C1516 C1522 1.448 . S
C1517 N1514 1.334 . S
C1517 C1515 1.390 . S
C1517 H1528 0.930 . S
C1518 C1515 1.339 . S
C1518 C1516 1.416 . S
C1518 H1539 0.930 . S
C1519 C1520 1.413 . S
C1519 C1521 1.427 . S
C1519 C1525 1.416 . S
C1520 C1513 1.424 . S
C1520 C1519 1.413 . S
C1520 N1524 1.361 . S
C1521 C1519 1.427 . S
C1521 C1522 1.328 . S
C1521 H1536 0.929 . S
C1522 C1516 1.448 . S
C1522 C1521 1.328 . S
C1522 H1537 0.930 . S
Tb1523 N1514 2.617 . S
Tb1523 N1524 2.572 . S
Tb1523 O1558 2.349 . S
Tb1523 O1561 2.393 . S
Tb1523 O1562 2.465 . S
Tb1523 O1563 2.387 . S
Tb1523 O1565 2.428 . S
Tb1523 O1566 2.308 . S
Tb1523 C1587 2.802 . S
N1524 C1520 1.361 . S
N1524 Tb1523 2.572 . S
N1524 C1526 1.340 . S
C1525 C1519 1.416 . S
C1525 C1527 1.332 . S
C1525 H1533 0.931 . S
C1526 N1524 1.340 . S
C1526 C1527 1.407 . S
C1526 H1532 0.930 . S
C1527 C1525 1.332 . S
C1527 C1526 1.407 . S
C1527 H1529 0.929 . S
H1528 C1517 0.930 . S
H1529 C1527 0.929 . S
H1530 C1545 0.930 . S
H1531 C1552 0.929 . S
H1532 C1526 0.930 . S
H1533 C1525 0.931 . S
H1534 C1548 0.930 . S
H1535 C1515 0.930 . S
H1536 C1521 0.929 . S
H1537 C1522 0.930 . S
H1538 C1543 0.930 . S
H1539 C1518 0.930 . S
H1540 C1551 0.931 . S
N1541 Tb1512 2.617 . S
N1541 C1542 1.379 . S
N1541 C1545 1.334 . S
C1542 N1541 1.379 . S
C1542 C1544 1.416 . S
C1542 C1550 1.424 . S
C1543 H1538 0.930 . S
C1543 C1545 1.390 . S
C1543 C1546 1.339 . S
C1544 C1542 1.416 . S
C1544 C1546 1.416 . S
C1544 C1577 1.448 . S
C1545 H1530 0.930 . S
C1545 N1541 1.334 . S
C1545 C1543 1.390 . S
C1546 C1543 1.339 . S
C1546 C1544 1.416 . S
C1546 H1553 0.930 . S
N1547 Tb1512 2.572 . S
N1547 C1548 1.340 . S
N1547 C1550 1.361 . S
C1548 H1534 0.930 . S
C1548 N1547 1.340 . S
C1548 C1552 1.407 . S
C1549 C1550 1.413 . S
C1549 C1551 1.416 . S
C1549 C1578 1.427 . S
C1550 C1542 1.424 . S
C1550 N1547 1.361 . S
C1550 C1549 1.413 . S
C1551 H1540 0.931 . S
C1551 C1549 1.416 . S
C1551 C1552 1.332 . S
C1552 H1531 0.929 . S
C1552 C1548 1.407 . S
C1552 C1551 1.332 . S
H1553 C1546 0.930 . S
H1554 C1577 0.930 . S
H1555 C1578 0.929 . S
O1556 Tb1512 2.465 . S
O1556 C1576 1.264 . S
O1557 Tb1512 2.387 . S
O1557 C1568 1.264 . S
O1558 Tb1523 2.349 . S
O1558 C1568 1.243 . S
O1559 Tb1512 2.428 . S
O1559 C1576 1.256 . S
O1560 Tb1512 2.308 . S
O1560 C1575 1.266 . S
O1561 Tb1523 2.393 . S
O1561 C1575 1.248 . S
O1562 Tb1523 2.465 . S
O1562 C1587 1.264 . S
O1563 Tb1523 2.387 . S
O1563 C1579 1.264 . S
O1564 Tb1512 2.349 . S
O1564 C1579 1.243 . S
O1565 Tb1523 2.428 . S
O1565 C1587 1.256 . S
O1566 Tb1523 2.308 . S
O1566 C1586 1.266 . S
O1567 Tb1512 2.393 . S
O1567 C1586 1.248 . S
C1568 O1557 1.264 . S
C1568 O1558 1.243 . S
C1569 C1572 1.399 . S
C1569 C1574 1.383 . S
C1569 C1576 1.496 . S
C1570 C1571 1.399 . S
C1570 C1574 1.389 . S
C1571 C1570 1.399 . S
C1571 C1573 1.380 . S
C1571 H1588 0.929 . S
C1572 C1569 1.399 . S
C1572 C1573 1.392 . S
C1572 H1589 0.929 . S
C1573 C1571 1.380 . S
C1573 C1572 1.392 . S
C1573 H1590 0.929 . S
C1574 C1569 1.383 . S
C1574 C1570 1.389 . S
C1574 H1591 0.931 . S
C1575 O1560 1.266 . S
C1575 O1561 1.248 . S
C1576 Tb1512 2.802 . S
C1576 O1556 1.264 . S
C1576 O1559 1.256 . S
C1576 C1569 1.496 . S
C1577 C1544 1.448 . S
C1577 H1554 0.930 . S
C1577 C1578 1.328 . S
C1578 C1549 1.427 . S
C1578 H1555 0.929 . S
C1578 C1577 1.328 . S
C1579 O1563 1.264 . S
C1579 O1564 1.243 . S
C1580 C1583 1.399 . S
C1580 C1584 1.383 . S
C1580 C1587 1.496 . S
C1581 C1582 1.399 . S
C1581 C1584 1.389 . S
C1582 C1581 1.399 . S
C1582 C1585 1.380 . S
C1582 H1592 0.929 . S
C1583 C1580 1.399 . S
C1583 C1585 1.392 . S
C1583 H1593 0.929 . S
C1584 C1580 1.383 . S
C1584 C1581 1.389 . S
C1584 H1594 0.931 . S
C1585 C1582 1.380 . S
C1585 C1583 1.392 . S
C1585 H1595 0.929 . S
C1586 O1566 1.266 . S
C1586 O1567 1.248 . S
C1587 Tb1523 2.802 . S
C1587 O1562 1.264 . S
C1587 O1565 1.256 . S
C1587 C1580 1.496 . S
H1588 C1571 0.929 . S
H1589 C1572 0.929 . S
H1590 C1573 0.929 . S
H1591 C1574 0.931 . S
H1592 C1582 0.929 . S
H1593 C1583 0.929 . S
H1594 C1584 0.931 . S
H1595 C1585 0.929 . S
Tb1596 N1625 2.617 . S
Tb1596 N1631 2.572 . S
Tb1596 O1640 2.465 . S
Tb1596 O1641 2.387 1_655 S
Tb1596 O1643 2.428 . S
Tb1596 O1644 2.308 1_655 S
Tb1596 O1648 2.349 1_655 S
Tb1596 O1651 2.393 1_655 S
Tb1596 C1660 2.802 . S
C1597 N1598 1.379 . S
C1597 C1600 1.416 . S
C1597 C1604 1.424 1_556 S
N1598 C1597 1.379 . S
N1598 C1601 1.334 . S
N1598 Tb1607 2.617 1_556 S
C1599 C1601 1.390 . S
C1599 C1602 1.339 . S
C1599 H1619 0.930 . S
C1600 C1597 1.416 . S
C1600 C1602 1.416 . S
C1600 C1606 1.448 . S
C1601 N1598 1.334 . S
C1601 C1599 1.390 . S
C1601 H1612 0.930 . S
C1602 C1599 1.339 . S
C1602 C1600 1.416 . S
C1602 H1623 0.930 . S
C1603 C1604 1.413 . S
C1603 C1605 1.427 . S
C1603 C1609 1.416 . S
C1604 C1597 1.424 1_554 S
C1604 C1603 1.413 . S
C1604 N1608 1.361 . S
C1605 C1603 1.427 . S
C1605 C1606 1.328 1_554 S
C1605 H1620 0.929 . S
C1606 C1600 1.448 . S
C1606 C1605 1.328 1_556 S
C1606 H1621 0.930 . S
Tb1607 N1598 2.617 1_554 S
Tb1607 N1608 2.572 . S
Tb1607 O1642 2.349 . S
Tb1607 O1645 2.393 1_554 S
Tb1607 O1646 2.465 . S
Tb1607 O1647 2.387 . S
Tb1607 O1649 2.428 1_554 S
Tb1607 O1650 2.308 . S
Tb1607 C1671 2.802 . S
N1608 C1604 1.361 . S
N1608 Tb1607 2.572 . S
N1608 C1610 1.340 . S
C1609 C1603 1.416 . S
C1609 C1611 1.332 . S
C1609 H1617 0.931 . S
C1610 N1608 1.340 . S
C1610 C1611 1.407 . S
C1610 H1616 0.930 . S
C1611 C1609 1.332 . S
C1611 C1610 1.407 . S
C1611 H1613 0.929 . S
H1612 C1601 0.930 . S
H1613 C1611 0.929 . S
H1614 C1629 0.930 1_455 S
H1615 C1636 0.929 1_556 S
H1616 C1610 0.930 . S
H1617 C1609 0.931 . S
H1618 C1632 0.930 . S
H1619 C1599 0.930 . S
H1620 C1605 0.929 . S
H1621 C1606 0.930 . S
H1622 C1627 0.930 . S
H1623 C1602 0.930 . S
H1624 C1635 0.931 . S
N1625 Tb1596 2.617 . S
N1625 C1626 1.379 . S
N1625 C1629 1.334 . S
C1626 N1625 1.379 . S
C1626 C1628 1.416 . S
C1626 C1634 1.424 . S
C1627 H1622 0.930 . S
C1627 C1629 1.390 . S
C1627 C1630 1.339 . S
C1628 C1626 1.416 . S
C1628 C1630 1.416 . S
C1628 C1661 1.448 . S
C1629 H1614 0.930 1_655 S
C1629 N1625 1.334 . S
C1629 C1627 1.390 . S
C1630 C1627 1.339 . S
C1630 C1628 1.416 . S
C1630 H1637 0.930 . S
N1631 Tb1596 2.572 . S
N1631 C1632 1.340 . S
N1631 C1634 1.361 . S
C1632 H1618 0.930 . S
C1632 N1631 1.340 . S
C1632 C1636 1.407 . S
C1633 C1634 1.413 . S
C1633 C1635 1.416 . S
C1633 C1662 1.427 . S
C1634 C1626 1.424 . S
C1634 N1631 1.361 . S
C1634 C1633 1.413 . S
C1635 H1624 0.931 . S
C1635 C1633 1.416 . S
C1635 C1636 1.332 . S
C1636 H1615 0.929 1_554 S
C1636 C1632 1.407 . S
C1636 C1635 1.332 . S
H1637 C1630 0.930 . S
H1638 C1661 0.930 . S
H1639 C1662 0.929 . S
O1640 Tb1596 2.465 . S
O1640 C1660 1.264 . S
O1641 Tb1596 2.387 1_455 S
O1641 C1652 1.264 . S
O1642 Tb1607 2.349 . S
O1642 C1652 1.243 . S
O1643 Tb1596 2.428 . S
O1643 C1660 1.256 . S
O1644 Tb1596 2.308 1_455 S
O1644 C1659 1.266 1_554 S
O1645 Tb1607 2.393 1_556 S
O1645 C1659 1.248 . S
O1646 Tb1607 2.465 . S
O1646 C1671 1.264 . S
O1647 Tb1607 2.387 . S
O1647 C1663 1.264 . S
O1648 Tb1596 2.349 1_455 S
O1648 C1663 1.243 . S
O1649 Tb1607 2.428 1_556 S
O1649 C1671 1.256 1_556 S
O1650 Tb1607 2.308 . S
O1650 C1670 1.266 . S
O1651 Tb1596 2.393 1_455 S
O1651 C1670 1.248 . S
C1652 O1641 1.264 . S
C1652 O1642 1.243 . S
C1653 C1656 1.399 . S
C1653 C1658 1.383 . S
C1653 C1660 1.496 . S
C1654 C1655 1.399 . S
C1654 C1658 1.389 . S
C1655 C1654 1.399 . S
C1655 C1657 1.380 . S
C1655 H1672 0.929 . S
C1656 C1653 1.399 . S
C1656 C1657 1.392 . S
C1656 H1673 0.929 . S
C1657 C1655 1.380 . S
C1657 C1656 1.392 . S
C1657 H1674 0.929 . S
C1658 C1653 1.383 . S
C1658 C1654 1.389 . S
C1658 H1675 0.931 . S
C1659 O1644 1.266 1_556 S
C1659 O1645 1.248 . S
C1660 Tb1596 2.802 . S
C1660 O1640 1.264 . S
C1660 O1643 1.256 . S
C1660 C1653 1.496 . S
C1661 C1628 1.448 . S
C1661 H1638 0.930 . S
C1661 C1662 1.328 . S
C1662 C1633 1.427 . S
C1662 H1639 0.929 . S
C1662 C1661 1.328 . S
C1663 O1647 1.264 . S
C1663 O1648 1.243 . S
C1664 C1667 1.352 1_554 S
C1664 C1668 1.419 . S
C1664 C1671 1.507 . S
C1665 C1666 1.399 1_554 S
C1665 C1668 1.389 . S
C1666 C1665 1.399 1_556 S
C1666 C1669 1.380 . S
C1666 H1676 0.929 . S
C1667 C1664 1.352 1_556 S
C1667 C1669 1.392 . S
C1667 H1677 0.929 . S
C1668 C1664 1.419 . S
C1668 C1665 1.389 . S
C1668 H1678 0.931 . S
C1669 C1666 1.380 . S
C1669 C1667 1.392 . S
C1669 H1679 0.929 . S
C1670 O1650 1.266 . S
C1670 O1651 1.248 . S
C1671 Tb1607 2.802 . S
C1671 O1646 1.264 . S
C1671 O1649 1.256 1_554 S
C1671 C1664 1.507 . S
H1672 C1655 0.929 . S
H1673 C1656 0.929 . S
H1674 C1657 0.929 . S
H1675 C1658 0.931 . S
H1676 C1666 0.929 . S
H1677 C1667 0.929 . S
H1678 C1668 0.931 . S
H1679 C1669 0.929 . S
H1680 C1688 0.929 . S
H1681 C1690 0.930 . S
H1682 C1692 0.930 . S
H1683 C1695 0.929 . S
H1684 C1698 0.930 . S
H1685 C1700 0.960 . S
H1686 C1700 0.960 . S
H1687 C1700 0.960 . S
C1688 H1680 0.929 . S
C1688 C1689 1.378 . S
C1688 C1690 1.384 . S
C1689 C1688 1.378 . S
C1689 C1695 1.389 1_455 S
C1690 H1681 0.930 . S
C1690 C1688 1.384 . S
C1690 C1691 1.372 . S
C1691 C1690 1.372 . S
C1691 C1692 1.400 1_455 S
C1691 C1696 1.490 . S
C1692 H1682 0.930 . S
C1692 C1691 1.400 1_655 S
C1692 C1695 1.386 . S
H1693 C1709 0.930 . S
H1694 C1710 0.931 . S
C1695 H1683 0.929 . S
C1695 C1689 1.389 1_655 S
C1695 C1692 1.386 . S
C1696 C1691 1.490 . S
C1696 C1698 1.395 . S
C1696 C1699 1.403 1_455 S
H1697 C1703 0.969 . S
C1698 H1684 0.930 . S
C1698 C1696 1.395 . S
C1698 C1701 1.403 . S
C1699 C1696 1.403 1_655 S
C1699 C1700 1.524 . S
C1699 C1703 1.422 . S
C1700 H1685 0.960 . S
C1700 H1686 0.960 . S
C1700 H1687 0.960 . S
C1700 C1699 1.524 . S
C1701 C1698 1.403 . S
C1701 C1702 1.392 . S
C1701 C1705 1.495 . S
C1702 C1701 1.392 . S
C1702 C1703 1.329 1_455 S
C1702 C1704 1.485 . S
C1703 H1697 0.969 . S
C1703 C1699 1.422 . S
C1703 C1702 1.329 1_655 S
C1704 C1702 1.485 . S
C1704 C1706 1.391 . S
C1704 C1710 1.366 1_556 S
C1705 C1701 1.495 . S
C1705 H1711 0.959 . S
C1705 H1712 0.961 1_556 S
C1705 H1713 0.960 . S
C1706 C1704 1.391 . S
C1706 C1707 1.394 . S
C1706 H1714 0.930 . S
C1707 C1706 1.394 . S
C1707 C1708 1.383 1_556 S
C1707 H1715 0.929 . S
C1708 C1707 1.383 1_554 S
C1708 C1709 1.377 . S
C1709 H1693 0.930 . S
C1709 C1708 1.377 . S
C1709 C1710 1.379 . S
C1710 H1694 0.931 . S
C1710 C1704 1.366 1_554 S
C1710 C1709 1.379 . S
H1711 C1705 0.959 . S
H1712 C1705 0.961 1_554 S
H1713 C1705 0.960 . S
H1714 C1706 0.930 . S
H1715 C1707 0.929 . S
H1716 C1724 0.929 . S
H1717 C1726 0.930 . S
H1718 C1728 0.930 . S
H1719 C1731 0.929 . S
H1720 C1734 0.930 . S
H1721 C1736 0.960 . S
H1722 C1736 0.960 . S
H1723 C1736 0.960 . S
C1724 H1716 0.929 . S
C1724 C1725 1.377 . S
C1724 C1726 1.384 . S
C1725 C1724 1.377 . S
C1725 C1731 1.390 . S
C1726 H1717 0.930 . S
C1726 C1724 1.384 . S
C1726 C1727 1.372 . S
C1727 C1726 1.372 . S
C1727 C1728 1.400 . S
C1727 C1732 1.490 . S
C1728 H1718 0.930 . S
C1728 C1727 1.400 . S
C1728 C1731 1.386 . S
H1729 C1745 0.930 . S
H1730 C1746 0.931 . S
C1731 H1719 0.929 . S
C1731 C1725 1.390 . S
C1731 C1728 1.386 . S
C1732 C1727 1.490 . S
C1732 C1734 1.395 . S
C1732 C1735 1.403 . S
H1733 C1739 0.930 . S
C1734 H1720 0.930 . S
C1734 C1732 1.395 . S
C1734 C1737 1.403 . S
C1735 C1732 1.403 . S
C1735 C1736 1.524 . S
C1735 C1739 1.400 . S
C1736 H1721 0.960 . S
C1736 H1722 0.960 . S
C1736 H1723 0.960 . S
C1736 C1735 1.524 . S
C1737 C1734 1.403 . S
C1737 C1738 1.392 . S
C1737 C1741 1.495 . S
C1738 C1737 1.392 . S
C1738 C1739 1.385 . S
C1738 C1740 1.478 . S
C1739 H1733 0.930 . S
C1739 C1735 1.400 . S
C1739 C1738 1.385 . S
C1740 C1738 1.478 . S
C1740 C1742 1.381 . S
C1740 C1746 1.383 . S
C1741 C1737 1.495 . S
C1741 H1747 0.959 . S
C1741 H1748 0.961 . S
C1741 H1749 0.960 . S
C1742 C1740 1.381 . S
C1742 C1743 1.394 . S
C1742 H1750 0.930 . S
C1743 C1742 1.394 . S
C1743 C1744 1.383 . S
C1743 H1751 0.929 . S
C1744 C1743 1.383 . S
C1744 C1745 1.377 . S
C1745 H1729 0.930 . S
C1745 C1744 1.377 . S
C1745 C1746 1.379 . S
C1746 H1730 0.931 . S
C1746 C1740 1.383 . S
C1746 C1745 1.379 . S
H1747 C1741 0.959 . S
H1748 C1741 0.961 . S
H1749 C1741 0.960 . S
H1750 C1742 0.930 . S
H1751 C1743 0.929 . S
H1752 C1760 0.929 . S
H1753 C1762 0.930 . S
H1754 C1764 0.930 . S
H1755 C1767 0.929 . S
H1756 C1770 0.930 . S
H1757 C1772 0.960 . S
H1758 C1772 0.960 . S
H1759 C1772 0.960 . S
C1760 H1752 0.929 . S
C1760 C1761 1.377 . S
C1760 C1762 1.384 . S
C1761 C1760 1.377 . S
C1761 C1767 1.390 . S
C1762 H1753 0.930 . S
C1762 C1760 1.384 . S
C1762 C1763 1.372 . S
C1763 C1762 1.372 . S
C1763 C1764 1.400 . S
C1763 C1768 1.490 . S
C1764 H1754 0.930 . S
C1764 C1763 1.400 . S
C1764 C1767 1.386 . S
H1765 C1781 0.930 . S
H1766 C1782 0.931 . S
C1767 H1755 0.929 . S
C1767 C1761 1.390 . S
C1767 C1764 1.386 . S
C1768 C1763 1.490 . S
C1768 C1770 1.395 . S
C1768 C1771 1.403 . S
H1769 C1775 0.930 . S
C1770 H1756 0.930 . S
C1770 C1768 1.395 . S
C1770 C1773 1.403 . S
C1771 C1768 1.403 . S
C1771 C1772 1.524 . S
C1771 C1775 1.400 . S
C1772 H1757 0.960 . S
C1772 H1758 0.960 . S
C1772 H1759 0.960 . S
C1772 C1771 1.524 . S
C1773 C1770 1.403 . S
C1773 C1774 1.392 . S
C1773 C1777 1.495 . S
C1774 C1773 1.392 . S
C1774 C1775 1.385 . S
C1774 C1776 1.478 . S
C1775 H1769 0.930 . S
C1775 C1771 1.400 . S
C1775 C1774 1.385 . S
C1776 C1774 1.478 . S
C1776 C1778 1.381 . S
C1776 C1782 1.383 . S
C1777 C1773 1.495 . S
C1777 H1783 0.959 . S
C1777 H1784 0.961 . S
C1777 H1785 0.960 . S
C1778 C1776 1.381 . S
C1778 C1779 1.394 . S
C1778 H1786 0.930 . S
C1779 C1778 1.394 . S
C1779 C1780 1.383 . S
C1779 H1787 0.929 . S
C1780 C1779 1.383 . S
C1780 C1781 1.377 . S
C1781 H1765 0.930 . S
C1781 C1780 1.377 . S
C1781 C1782 1.379 . S
C1782 H1766 0.931 . S
C1782 C1776 1.383 . S
C1782 C1781 1.379 . S
H1783 C1777 0.959 . S
H1784 C1777 0.961 . S
H1785 C1777 0.960 . S
H1786 C1778 0.930 . S
H1787 C1779 0.929 . S
H1788 C1796 0.929 . S
H1789 C1798 0.930 . S
H1790 C1800 0.930 . S
H1791 C1803 0.929 . S
H1792 C1806 0.930 . S
H1793 C1808 0.960 . S
H1794 C1808 0.960 . S
H1795 C1808 0.960 . S
C1796 H1788 0.929 . S
C1796 C1797 1.377 . S
C1796 C1798 1.384 . S
C1797 C1796 1.377 . S
C1797 C1803 1.390 . S
C1798 H1789 0.930 . S
C1798 C1796 1.384 . S
C1798 C1799 1.372 . S
C1799 C1798 1.372 . S
C1799 C1800 1.400 . S
C1799 C1804 1.490 . S
C1800 H1790 0.930 . S
C1800 C1799 1.400 . S
C1800 C1803 1.386 . S
H1801 C1817 0.930 . S
H1802 C1818 0.931 . S
C1803 H1791 0.929 . S
C1803 C1797 1.390 . S
C1803 C1800 1.386 . S
C1804 C1799 1.490 . S
C1804 C1806 1.395 . S
C1804 C1807 1.403 . S
H1805 C1811 0.930 . S
C1806 H1792 0.930 . S
C1806 C1804 1.395 . S
C1806 C1809 1.403 . S
C1807 C1804 1.403 . S
C1807 C1808 1.524 . S
C1807 C1811 1.400 . S
C1808 H1793 0.960 . S
C1808 H1794 0.960 . S
C1808 H1795 0.960 . S
C1808 C1807 1.524 . S
C1809 C1806 1.403 . S
C1809 C1810 1.392 . S
C1809 C1813 1.495 . S
C1810 C1809 1.392 . S
C1810 C1811 1.385 . S
C1810 C1812 1.478 . S
C1811 H1805 0.930 . S
C1811 C1807 1.400 . S
C1811 C1810 1.385 . S
C1812 C1810 1.478 . S
C1812 C1814 1.381 . S
C1812 C1818 1.383 . S
C1813 C1809 1.495 . S
C1813 H1819 0.959 . S
C1813 H1820 0.961 . S
C1813 H1821 0.960 . S
C1814 C1812 1.381 . S
C1814 C1815 1.394 . S
C1814 H1822 0.930 . S
C1815 C1814 1.394 . S
C1815 C1816 1.383 . S
C1815 H1823 0.929 . S
C1816 C1815 1.383 . S
C1816 C1817 1.377 . S
C1817 H1801 0.930 . S
C1817 C1816 1.377 . S
C1817 C1818 1.379 . S
C1818 H1802 0.931 . S
C1818 C1812 1.383 . S
C1818 C1817 1.379 . S
H1819 C1813 0.959 . S
H1820 C1813 0.961 . S
H1821 C1813 0.960 . S
H1822 C1814 0.930 . S
H1823 C1815 0.929 . S
H1824 C1832 0.930 1_655 S
H1825 C1834 0.930 . S
H1826 C1836 0.930 . S
H1827 C1839 0.929 . S
H1828 C1842 0.930 . S
H1829 C1844 0.960 . S
H1830 C1844 0.960 1_655 S
H1831 C1844 0.960 . S
C1832 H1824 0.930 1_455 S
C1832 C1833 1.377 . S
C1832 C1834 1.384 . S
C1833 C1832 1.377 . S
C1833 C1839 1.390 . S
C1834 H1825 0.930 . S
C1834 C1832 1.384 . S
C1834 C1835 1.372 . S
C1835 C1834 1.372 . S
C1835 C1836 1.400 . S
C1835 C1840 1.490 . S
C1836 H1826 0.930 . S
C1836 C1835 1.400 . S
C1836 C1839 1.386 . S
H1837 C1853 0.930 . S
H1838 C1854 0.931 . S
C1839 H1827 0.929 . S
C1839 C1833 1.390 . S
C1839 C1836 1.386 . S
C1840 C1835 1.490 . S
C1840 C1842 1.395 . S
C1840 C1843 1.403 . S
H1841 C1847 0.930 . S
C1842 H1828 0.930 . S
C1842 C1840 1.395 . S
C1842 C1845 1.403 . S
C1843 C1840 1.403 . S
C1843 C1844 1.524 . S
C1843 C1847 1.400 . S
C1844 H1829 0.960 . S
C1844 H1830 0.960 1_455 S
C1844 H1831 0.960 . S
C1844 C1843 1.524 . S
C1845 C1842 1.403 . S
C1845 C1846 1.392 . S
C1845 C1849 1.495 . S
C1846 C1845 1.392 . S
C1846 C1847 1.385 . S
C1846 C1848 1.478 . S
C1847 H1841 0.930 . S
C1847 C1843 1.400 . S
C1847 C1846 1.385 . S
C1848 C1846 1.478 . S
C1848 C1850 1.381 . S
C1848 C1854 1.383 . S
C1849 C1845 1.495 . S
C1849 H1855 0.959 . S
C1849 H1856 0.961 . S
C1849 H1857 0.960 . S
C1850 C1848 1.381 . S
C1850 C1851 1.394 . S
C1850 H1858 0.930 . S
C1851 C1850 1.394 . S
C1851 C1852 1.383 . S
C1851 H1859 0.929 . S
C1852 C1851 1.383 . S
C1852 C1853 1.377 . S
C1853 H1837 0.930 . S
C1853 C1852 1.377 . S
C1853 C1854 1.379 . S
C1854 H1838 0.931 . S
C1854 C1848 1.383 . S
C1854 C1853 1.379 . S
H1855 C1849 0.959 . S
H1856 C1849 0.961 . S
H1857 C1849 0.960 . S
H1858 C1850 0.930 . S
H1859 C1851 0.929 . S
H1860 C1868 0.929 . S
H1861 C1870 0.930 . S
H1862 C1872 0.930 . S
H1863 C1875 0.929 . S
H1864 C1878 0.930 . S
H1865 C1880 0.960 . S
H1866 C1880 0.960 . S
H1867 C1880 0.960 . S
C1868 H1860 0.929 . S
C1868 C1869 1.377 . S
C1868 C1870 1.384 . S
C1869 C1868 1.377 . S
C1869 C1875 1.390 . S
C1870 H1861 0.930 . S
C1870 C1868 1.384 . S
C1870 C1871 1.372 . S
C1871 C1870 1.372 . S
C1871 C1872 1.400 . S
C1871 C1876 1.490 . S
C1872 H1862 0.930 . S
C1872 C1871 1.400 . S
C1872 C1875 1.386 . S
H1873 C1889 0.930 . S
H1874 C1890 0.931 . S
C1875 H1863 0.929 . S
C1875 C1869 1.390 . S
C1875 C1872 1.386 . S
C1876 C1871 1.490 . S
C1876 C1878 1.395 . S
C1876 C1879 1.403 . S
H1877 C1883 0.930 . S
C1878 H1864 0.930 . S
C1878 C1876 1.395 . S
C1878 C1881 1.403 . S
C1879 C1876 1.403 . S
C1879 C1880 1.524 . S
C1879 C1883 1.400 . S
C1880 H1865 0.960 . S
C1880 H1866 0.960 . S
C1880 H1867 0.960 . S
C1880 C1879 1.524 . S
C1881 C1878 1.403 . S
C1881 C1882 1.392 . S
C1881 C1885 1.495 . S
C1882 C1881 1.392 . S
C1882 C1883 1.385 . S
C1882 C1884 1.478 . S
C1883 H1877 0.930 . S
C1883 C1879 1.400 . S
C1883 C1882 1.385 . S
C1884 C1882 1.478 . S
C1884 C1886 1.381 . S
C1884 C1890 1.383 . S
C1885 C1881 1.495 . S
C1885 H1891 0.959 . S
C1885 H1892 0.961 . S
C1885 H1893 0.960 . S
C1886 C1884 1.381 . S
C1886 C1887 1.394 . S
C1886 H1894 0.930 . S
C1887 C1886 1.394 . S
C1887 C1888 1.383 . S
C1887 H1895 0.929 . S
C1888 C1887 1.383 . S
C1888 C1889 1.377 . S
C1889 H1873 0.930 . S
C1889 C1888 1.377 . S
C1889 C1890 1.379 . S
C1890 H1874 0.931 . S
C1890 C1884 1.383 . S
C1890 C1889 1.379 . S
H1891 C1885 0.959 . S
H1892 C1885 0.961 . S
H1893 C1885 0.960 . S
H1894 C1886 0.930 . S
H1895 C1887 0.929 . S
H1896 C1904 0.929 . S
H1897 C1906 0.930 . S
H1898 C1908 0.930 . S
H1899 C1911 0.929 . S
H1900 C1914 0.930 . S
H1901 C1916 0.960 . S
H1902 C1916 0.960 . S
H1903 C1916 0.960 . S
C1904 H1896 0.929 . S
C1904 C1905 1.377 . S
C1904 C1906 1.384 . S
C1905 C1904 1.377 . S
C1905 C1911 1.390 . S
C1906 H1897 0.930 . S
C1906 C1904 1.384 . S
C1906 C1907 1.372 . S
C1907 C1906 1.372 . S
C1907 C1908 1.400 . S
C1907 C1912 1.490 . S
C1908 H1898 0.930 . S
C1908 C1907 1.400 . S
C1908 C1911 1.386 . S
H1909 C1925 0.930 . S
H1910 C1926 0.931 . S
C1911 H1899 0.929 . S
C1911 C1905 1.390 . S
C1911 C1908 1.386 . S
C1912 C1907 1.490 . S
C1912 C1914 1.395 . S
C1912 C1915 1.403 . S
H1913 C1919 0.930 . S
C1914 H1900 0.930 . S
C1914 C1912 1.395 . S
C1914 C1917 1.403 . S
C1915 C1912 1.403 . S
C1915 C1916 1.524 . S
C1915 C1919 1.400 . S
C1916 H1901 0.960 . S
C1916 H1902 0.960 . S
C1916 H1903 0.960 . S
C1916 C1915 1.524 . S
C1917 C1914 1.403 . S
C1917 C1918 1.392 . S
C1917 C1921 1.495 . S
C1918 C1917 1.392 . S
C1918 C1919 1.385 . S
C1918 C1920 1.478 . S
C1919 H1913 0.930 . S
C1919 C1915 1.400 . S
C1919 C1918 1.385 . S
C1920 C1918 1.478 . S
C1920 C1922 1.381 . S
C1920 C1926 1.383 . S
C1921 C1917 1.495 . S
C1921 H1927 0.959 . S
C1921 H1928 0.961 . S
C1921 H1929 0.960 . S
C1922 C1920 1.381 . S
C1922 C1923 1.394 . S
C1922 H1930 0.930 . S
C1923 C1922 1.394 . S
C1923 C1924 1.383 . S
C1923 H1931 0.929 . S
C1924 C1923 1.383 . S
C1924 C1925 1.377 . S
C1925 H1909 0.930 . S
C1925 C1924 1.377 . S
C1925 C1926 1.379 . S
C1926 H1910 0.931 . S
C1926 C1920 1.383 . S
C1926 C1925 1.379 . S
H1927 C1921 0.959 . S
H1928 C1921 0.961 . S
H1929 C1921 0.960 . S
H1930 C1922 0.930 . S
H1931 C1923 0.929 . S
H1932 C1940 0.929 . S
H1933 C1942 0.930 . S
H1934 C1944 0.930 . S
H1935 C1947 0.929 . S
H1936 C1950 0.930 . S
H1937 C1952 0.960 . S
H1938 C1952 0.960 . S
H1939 C1952 0.960 . S
C1940 H1932 0.929 . S
C1940 C1941 1.377 . S
C1940 C1942 1.384 . S
C1941 C1940 1.377 . S
C1941 C1947 1.390 . S
C1942 H1933 0.930 . S
C1942 C1940 1.384 . S
C1942 C1943 1.372 . S
C1943 C1942 1.372 . S
C1943 C1944 1.400 . S
C1943 C1948 1.490 . S
C1944 H1934 0.930 . S
C1944 C1943 1.400 . S
C1944 C1947 1.386 . S
H1945 C1961 0.930 . S
H1946 C1962 0.931 . S
C1947 H1935 0.929 . S
C1947 C1941 1.390 . S
C1947 C1944 1.386 . S
C1948 C1943 1.490 . S
C1948 C1950 1.395 . S
C1948 C1951 1.403 . S
H1949 C1955 0.930 . S
C1950 H1936 0.930 . S
C1950 C1948 1.395 . S
C1950 C1953 1.403 . S
C1951 C1948 1.403 . S
C1951 C1952 1.524 . S
C1951 C1955 1.400 . S
C1952 H1937 0.960 . S
C1952 H1938 0.960 . S
C1952 H1939 0.960 . S
C1952 C1951 1.524 . S
C1953 C1950 1.403 . S
C1953 C1954 1.392 . S
C1953 C1957 1.495 . S
C1954 C1953 1.392 . S
C1954 C1955 1.385 . S
C1954 C1956 1.478 . S
C1955 H1949 0.930 . S
C1955 C1951 1.400 . S
C1955 C1954 1.385 . S
C1956 C1954 1.478 . S
C1956 C1958 1.381 . S
C1956 C1962 1.383 . S
C1957 C1953 1.495 . S
C1957 H1963 0.959 . S
C1957 H1964 0.961 . S
C1957 H1965 0.960 . S
C1958 C1956 1.381 . S
C1958 C1959 1.394 . S
C1958 H1966 0.930 . S
C1959 C1958 1.394 . S
C1959 C1960 1.383 . S
C1959 H1967 0.929 . S
C1960 C1959 1.383 . S
C1960 C1961 1.377 . S
C1961 H1945 0.930 . S
C1961 C1960 1.377 . S
C1961 C1962 1.379 . S
C1962 H1946 0.931 . S
C1962 C1956 1.383 . S
C1962 C1961 1.379 . S
H1963 C1957 0.959 . S
H1964 C1957 0.961 . S
H1965 C1957 0.960 . S
H1966 C1958 0.930 . S
H1967 C1959 0.929 . S
H1968 C1976 0.929 . S
H1969 C1978 0.930 . S
H1970 C1980 0.930 1_565 S
H1971 C1983 0.933 1_565 S
H1972 C1986 0.930 . S
H1973 C1988 0.960 . S
H1974 C1988 0.961 1_545 S
H1975 C1988 0.960 . S
C1976 H1968 0.929 . S
C1976 C1977 1.377 . S
C1976 C1978 1.384 . S
C1977 C1976 1.377 . S
C1977 C1983 1.387 . S
C1978 H1969 0.930 . S
C1978 C1976 1.384 . S
C1978 C1979 1.372 . S
C1979 C1978 1.372 . S
C1979 C1980 1.400 . S
C1979 C1984 1.490 . S
C1980 H1970 0.930 1_545 S
C1980 C1979 1.400 . S
C1980 C1983 1.385 . S
H1981 C1997 0.930 . S
H1982 C1998 0.927 . S
C1983 H1971 0.933 1_545 S
C1983 C1977 1.387 . S
C1983 C1980 1.385 . S
C1984 C1979 1.490 . S
C1984 C1986 1.395 . S
C1984 C1987 1.403 . S
H1985 C1991 0.930 . S
C1986 H1972 0.930 . S
C1986 C1984 1.395 . S
C1986 C1989 1.403 . S
C1987 C1984 1.403 . S
C1987 C1988 1.524 1_545 S
C1987 C1991 1.400 . S
C1988 H1973 0.960 . S
C1988 H1974 0.961 1_565 S
C1988 H1975 0.960 . S
C1988 C1987 1.524 1_565 S
C1989 C1986 1.403 . S
C1989 C1990 1.392 . S
C1989 C1993 1.495 1_655 S
C1990 C1989 1.392 . S
C1990 C1991 1.385 . S
C1990 C1992 1.478 . S
C1991 H1985 0.930 . S
C1991 C1987 1.400 . S
C1991 C1990 1.385 . S
C1992 C1990 1.478 . S
C1992 C1994 1.381 . S
C1992 C1998 1.411 . S
C1993 C1989 1.495 1_455 S
C1993 H1999 0.959 . S
C1993 H2000 0.961 . S
C1993 H2001 0.960 . S
C1994 C1992 1.381 . S
C1994 C1995 1.394 . S
C1994 H2002 0.930 . S
C1995 C1994 1.394 . S
C1995 C1996 1.383 1_655 S
C1995 H2003 0.929 . S
C1996 C1995 1.383 1_455 S
C1996 C1997 1.377 . S
C1997 H1981 0.930 . S
C1997 C1996 1.377 . S
C1997 C1998 1.358 1_455 S
C1998 H1982 0.927 . S
C1998 C1992 1.411 . S
C1998 C1997 1.358 1_655 S
H1999 C1993 0.959 . S
H2000 C1993 0.961 . S
H2001 C1993 0.960 . S
H2002 C1994 0.930 . S
H2003 C1995 0.929 . S
H2004 C2012 0.929 . S
H2005 C2014 0.930 . S
H2006 C2016 0.930 . S
H2007 C2019 0.929 . S
H2008 C2022 0.930 . S
H2009 C2024 0.960 . S
H2010 C2024 0.960 . S
H2011 C2024 0.960 . S
C2012 H2004 0.929 . S
C2012 C2013 1.377 . S
C2012 C2014 1.384 . S
C2013 C2012 1.377 . S
C2013 C2019 1.390 . S
C2014 H2005 0.930 . S
C2014 C2012 1.384 . S
C2014 C2015 1.372 . S
C2015 C2014 1.372 . S
C2015 C2016 1.400 . S
C2015 C2020 1.490 . S
C2016 H2006 0.930 . S
C2016 C2015 1.400 . S
C2016 C2019 1.386 . S
H2017 C2033 0.930 . S
H2018 C2034 0.931 . S
C2019 H2007 0.929 . S
C2019 C2013 1.390 . S
C2019 C2016 1.386 . S
C2020 C2015 1.490 . S
C2020 C2022 1.395 . S
C2020 C2023 1.403 . S
H2021 C2027 0.930 . S
C2022 H2008 0.930 . S
C2022 C2020 1.395 . S
C2022 C2025 1.403 . S
C2023 C2020 1.403 . S
C2023 C2024 1.524 . S
C2023 C2027 1.400 . S
C2024 H2009 0.960 . S
C2024 H2010 0.960 . S
C2024 H2011 0.960 . S
C2024 C2023 1.524 . S
C2025 C2022 1.403 . S
C2025 C2026 1.392 . S
C2025 C2029 1.495 . S
C2026 C2025 1.392 . S
C2026 C2027 1.385 . S
C2026 C2028 1.478 . S
C2027 H2021 0.930 . S
C2027 C2023 1.400 . S
C2027 C2026 1.385 . S
C2028 C2026 1.478 . S
C2028 C2030 1.381 . S
C2028 C2034 1.383 . S
C2029 C2025 1.495 . S
C2029 H2035 0.959 . S
C2029 H2036 0.961 . S
C2029 H2037 0.960 . S
C2030 C2028 1.381 . S
C2030 C2031 1.394 . S
C2030 H2038 0.930 . S
C2031 C2030 1.394 . S
C2031 C2032 1.383 . S
C2031 H2039 0.929 . S
C2032 C2031 1.383 . S
C2032 C2033 1.377 . S
C2033 H2017 0.930 . S
C2033 C2032 1.377 . S
C2033 C2034 1.379 . S
C2034 H2018 0.931 . S
C2034 C2028 1.383 . S
C2034 C2033 1.379 . S
H2035 C2029 0.959 . S
H2036 C2029 0.961 . S
H2037 C2029 0.960 . S
H2038 C2030 0.930 . S
H2039 C2031 0.929 . S
H2040 C2048 0.929 . S
H2041 C2050 0.930 . S
H2042 C2052 0.930 . S
H2043 C2055 0.929 . S
H2044 C2058 0.930 . S
H2045 C2060 0.960 . S
H2046 C2060 0.954 1_545 S
H2047 C2060 0.960 . S
C2048 H2040 0.929 . S
C2048 C2049 1.377 . S
C2048 C2050 1.384 . S
C2049 C2048 1.377 . S
C2049 C2055 1.390 . S
C2050 H2041 0.930 . S
C2050 C2048 1.384 . S
C2050 C2051 1.372 . S
C2051 C2050 1.372 . S
C2051 C2052 1.400 . S
C2051 C2056 1.490 . S
C2052 H2042 0.930 . S
C2052 C2051 1.400 . S
C2052 C2055 1.386 . S
H2053 C2069 0.930 . S
H2054 C2070 0.931 . S
C2055 H2043 0.929 . S
C2055 C2049 1.390 . S
C2055 C2052 1.386 . S
C2056 C2051 1.490 . S
C2056 C2058 1.395 . S
C2056 C2059 1.403 . S
H2057 C2063 0.930 . S
C2058 H2044 0.930 . S
C2058 C2056 1.395 . S
C2058 C2061 1.403 . S
C2059 C2056 1.403 . S
C2059 C2060 1.524 1_545 S
C2059 C2063 1.400 . S
C2060 H2045 0.960 . S
C2060 H2046 0.954 1_565 S
C2060 H2047 0.960 . S
C2060 C2059 1.524 1_565 S
C2061 C2058 1.403 . S
C2061 C2062 1.392 . S
C2061 C2065 1.495 . S
C2062 C2061 1.392 . S
C2062 C2063 1.385 . S
C2062 C2064 1.478 . S
C2063 H2057 0.930 . S
C2063 C2059 1.400 . S
C2063 C2062 1.385 . S
C2064 C2062 1.478 . S
C2064 C2066 1.381 . S
C2064 C2070 1.383 . S
C2065 C2061 1.495 . S
C2065 H2071 0.959 . S
C2065 H2072 0.961 . S
C2065 H2073 0.960 . S
C2066 C2064 1.381 . S
C2066 C2067 1.394 . S
C2066 H2074 0.930 . S
C2067 C2066 1.394 . S
C2067 C2068 1.383 . S
C2067 H2075 0.929 . S
C2068 C2067 1.383 . S
C2068 C2069 1.377 . S
C2069 H2053 0.930 . S
C2069 C2068 1.377 . S
C2069 C2070 1.379 . S
C2070 H2054 0.931 . S
C2070 C2064 1.383 . S
C2070 C2069 1.379 . S
H2071 C2065 0.959 . S
H2072 C2065 0.961 . S
H2073 C2065 0.960 . S
H2074 C2066 0.930 . S
H2075 C2067 0.929 . S
H2076 C2084 0.929 . S
H2077 C2086 0.930 . S
H2078 C2088 0.930 . S
H2079 C2091 0.929 . S
H2080 C2094 0.930 . S
H2081 C2096 0.960 . S
H2082 C2096 0.960 . S
H2083 C2096 0.960 . S
C2084 H2076 0.929 . S
C2084 C2085 1.377 . S
C2084 C2086 1.384 . S
C2085 C2084 1.377 . S
C2085 C2091 1.390 . S
C2086 H2077 0.930 . S
C2086 C2084 1.384 . S
C2086 C2087 1.372 . S
C2087 C2086 1.372 . S
C2087 C2088 1.400 . S
C2087 C2092 1.490 . S
C2088 H2078 0.930 . S
C2088 C2087 1.400 . S
C2088 C2091 1.386 . S
H2089 C2105 0.930 . S
H2090 C2106 0.931 . S
C2091 H2079 0.929 . S
C2091 C2085 1.390 . S
C2091 C2088 1.386 . S
C2092 C2087 1.490 . S
C2092 C2094 1.395 . S
C2092 C2095 1.403 . S
H2093 C2099 0.930 . S
C2094 H2080 0.930 . S
C2094 C2092 1.395 . S
C2094 C2097 1.403 . S
C2095 C2092 1.403 . S
C2095 C2096 1.524 . S
C2095 C2099 1.400 . S
C2096 H2081 0.960 . S
C2096 H2082 0.960 . S
C2096 H2083 0.960 . S
C2096 C2095 1.524 . S
C2097 C2094 1.403 . S
C2097 C2098 1.392 . S
C2097 C2101 1.495 . S
C2098 C2097 1.392 . S
C2098 C2099 1.385 . S
C2098 C2100 1.478 . S
C2099 H2093 0.930 . S
C2099 C2095 1.400 . S
C2099 C2098 1.385 . S
C2100 C2098 1.478 . S
C2100 C2102 1.381 . S
C2100 C2106 1.383 . S
C2101 C2097 1.495 . S
C2101 H2107 0.959 . S
C2101 H2108 0.961 . S
C2101 H2109 0.960 . S
C2102 C2100 1.381 . S
C2102 C2103 1.394 . S
C2102 H2110 0.930 . S
C2103 C2102 1.394 . S
C2103 C2104 1.383 . S
C2103 H2111 0.929 . S
C2104 C2103 1.383 . S
C2104 C2105 1.377 . S
C2105 H2089 0.930 . S
C2105 C2104 1.377 . S
C2105 C2106 1.379 . S
C2106 H2090 0.931 . S
C2106 C2100 1.383 . S
C2106 C2105 1.379 . S
H2107 C2101 0.959 . S
H2108 C2101 0.961 . S
H2109 C2101 0.960 . S
H2110 C2102 0.930 . S
H2111 C2103 0.929 . S
H2112 C2120 0.929 . S
H2113 C2122 0.930 . S
H2114 C2124 0.930 1_565 S
H2115 C2127 0.929 1_565 S
H2116 C2130 0.930 . S
H2117 C2132 0.960 . S
H2118 C2132 0.960 . S
H2119 C2132 0.960 . S
C2120 H2112 0.929 . S
C2120 C2121 1.377 . S
C2120 C2122 1.384 . S
C2121 C2120 1.377 . S
C2121 C2127 1.390 . S
C2122 H2113 0.930 . S
C2122 C2120 1.384 . S
C2122 C2123 1.372 . S
C2123 C2122 1.372 . S
C2123 C2124 1.400 . S
C2123 C2128 1.490 . S
C2124 H2114 0.930 1_545 S
C2124 C2123 1.400 . S
C2124 C2127 1.386 . S
H2125 C2141 0.930 1_565 S
H2126 C2142 0.931 1_565 S
C2127 H2115 0.929 1_545 S
C2127 C2121 1.390 . S
C2127 C2124 1.386 . S
C2128 C2123 1.490 . S
C2128 C2130 1.395 . S
C2128 C2131 1.403 . S
H2129 C2135 0.914 1_565 S
C2130 H2116 0.930 . S
C2130 C2128 1.395 . S
C2130 C2133 1.403 . S
C2131 C2128 1.403 . S
C2131 C2132 1.524 1_545 S
C2131 C2135 1.400 . S
C2132 H2117 0.960 . S
C2132 H2118 0.960 . S
C2132 H2119 0.960 . S
C2132 C2131 1.524 1_565 S
C2133 C2130 1.403 . S
C2133 C2134 1.392 . S
C2133 C2137 1.495 . S
C2134 C2133 1.392 . S
C2134 C2135 1.385 . S
C2134 C2136 1.478 . S
C2135 H2129 0.914 1_545 S
C2135 C2131 1.400 . S
C2135 C2134 1.385 . S
C2136 C2134 1.478 . S
C2136 C2138 1.381 1_655 S
C2136 C2142 1.383 . S
C2137 C2133 1.495 . S
C2137 H2143 0.959 . S
C2137 H2144 0.961 . S
C2137 H2145 0.960 . S
C2138 C2136 1.381 1_455 S
C2138 C2139 1.394 . S
C2138 H2146 0.930 . S
C2139 C2138 1.394 . S
C2139 C2140 1.383 . S
C2139 H2147 0.929 . S
C2140 C2139 1.383 . S
C2140 C2141 1.377 1_455 S
C2141 H2125 0.930 1_545 S
C2141 C2140 1.377 1_655 S
C2141 C2142 1.379 . S
C2142 H2126 0.931 1_545 S
C2142 C2136 1.383 . S
C2142 C2141 1.379 . S
H2143 C2137 0.959 . S
H2144 C2137 0.961 . S
H2145 C2137 0.960 . S
H2146 C2138 0.930 . S
H2147 C2139 0.929 . S
H2148 C2156 0.929 . S
H2149 C2158 0.930 . S
H2150 C2160 0.930 . S
H2151 C2163 0.929 . S
H2152 C2166 0.930 . S
H2153 C2168 0.960 . S
H2154 C2168 0.960 . S
H2155 C2168 0.960 . S
C2156 H2148 0.929 . S
C2156 C2157 1.377 . S
C2156 C2158 1.384 . S
C2157 C2156 1.377 . S
C2157 C2163 1.390 . S
C2158 H2149 0.930 . S
C2158 C2156 1.384 . S
C2158 C2159 1.372 . S
C2159 C2158 1.372 . S
C2159 C2160 1.400 . S
C2159 C2164 1.490 . S
C2160 H2150 0.930 . S
C2160 C2159 1.400 . S
C2160 C2163 1.386 . S
H2161 C2177 0.930 . S
H2162 C2178 0.931 . S
C2163 H2151 0.929 . S
C2163 C2157 1.390 . S
C2163 C2160 1.386 . S
C2164 C2159 1.490 . S
C2164 C2166 1.395 . S
C2164 C2167 1.403 . S
H2165 C2171 0.930 . S
C2166 H2152 0.930 . S
C2166 C2164 1.395 . S
C2166 C2169 1.403 . S
C2167 C2164 1.403 . S
C2167 C2168 1.524 . S
C2167 C2171 1.400 . S
C2168 H2153 0.960 . S
C2168 H2154 0.960 . S
C2168 H2155 0.960 . S
C2168 C2167 1.524 . S
C2169 C2166 1.403 . S
C2169 C2170 1.392 . S
C2169 C2173 1.495 . S
C2170 C2169 1.392 . S
C2170 C2171 1.385 . S
C2170 C2172 1.478 . S
C2171 H2165 0.930 . S
C2171 C2167 1.400 . S
C2171 C2170 1.385 . S
C2172 C2170 1.478 . S
C2172 C2174 1.381 . S
C2172 C2178 1.383 . S
C2173 C2169 1.495 . S
C2173 H2179 0.959 . S
C2173 H2180 0.961 . S
C2173 H2181 0.960 . S
C2174 C2172 1.381 . S
C2174 C2175 1.394 . S
C2174 H2182 0.930 . S
C2175 C2174 1.394 . S
C2175 C2176 1.383 . S
C2175 H2183 0.929 . S
C2176 C2175 1.383 . S
C2176 C2177 1.377 . S
C2177 H2161 0.930 . S
C2177 C2176 1.377 . S
C2177 C2178 1.379 . S
C2178 H2162 0.931 . S
C2178 C2172 1.383 . S
C2178 C2177 1.379 . S
H2179 C2173 0.959 . S
H2180 C2173 0.961 . S
H2181 C2173 0.960 . S
H2182 C2174 0.930 . S
H2183 C2175 0.929 . S
H2184 C2192 0.929 . S
H2185 C2194 0.930 . S
H2186 C2196 0.930 . S
H2187 C2199 0.929 . S
H2188 C2202 0.930 . S
H2189 C2204 0.960 . S
H2190 C2204 0.960 . S
H2191 C2204 0.960 . S
C2192 H2184 0.929 . S
C2192 C2193 1.377 . S
C2192 C2194 1.384 . S
C2193 C2192 1.377 . S
C2193 C2199 1.390 . S
C2194 H2185 0.930 . S
C2194 C2192 1.384 . S
C2194 C2195 1.372 . S
C2195 C2194 1.372 . S
C2195 C2196 1.400 . S
C2195 C2200 1.490 . S
C2196 H2186 0.930 . S
C2196 C2195 1.400 . S
C2196 C2199 1.386 . S
H2197 C2213 0.930 . S
H2198 C2214 0.931 . S
C2199 H2187 0.929 . S
C2199 C2193 1.390 . S
C2199 C2196 1.386 . S
C2200 C2195 1.490 . S
C2200 C2202 1.395 . S
C2200 C2203 1.403 . S
H2201 C2207 0.930 . S
C2202 H2188 0.930 . S
C2202 C2200 1.395 . S
C2202 C2205 1.403 . S
C2203 C2200 1.403 . S
C2203 C2204 1.524 . S
C2203 C2207 1.400 . S
C2204 H2189 0.960 . S
C2204 H2190 0.960 . S
C2204 H2191 0.960 . S
C2204 C2203 1.524 . S
C2205 C2202 1.403 . S
C2205 C2206 1.392 . S
C2205 C2209 1.495 . S
C2206 C2205 1.392 . S
C2206 C2207 1.385 . S
C2206 C2208 1.478 . S
C2207 H2201 0.930 . S
C2207 C2203 1.400 . S
C2207 C2206 1.385 . S
C2208 C2206 1.478 . S
C2208 C2210 1.381 . S
C2208 C2214 1.383 . S
C2209 C2205 1.495 . S
C2209 H2215 0.959 . S
C2209 H2216 0.961 . S
C2209 H2217 0.960 . S
C2210 C2208 1.381 . S
C2210 C2211 1.394 . S
C2210 H2218 0.930 . S
C2211 C2210 1.394 . S
C2211 C2212 1.383 . S
C2211 H2219 0.929 . S
C2212 C2211 1.383 . S
C2212 C2213 1.377 . S
C2213 H2197 0.930 . S
C2213 C2212 1.377 . S
C2213 C2214 1.379 . S
C2214 H2198 0.931 . S
C2214 C2208 1.383 . S
C2214 C2213 1.379 . S
H2215 C2209 0.959 . S
H2216 C2209 0.961 . S
H2217 C2209 0.960 . S
H2218 C2210 0.930 . S
H2219 C2211 0.929 . S
H2220 C2228 0.929 . S
H2221 C2230 0.930 . S
H2222 C2232 0.930 . S
H2223 C2235 0.929 . S
H2224 C2238 0.930 . S
H2225 C2240 0.960 . S
H2226 C2240 0.960 . S
H2227 C2240 0.960 . S
C2228 H2220 0.929 . S
C2228 C2229 1.377 . S
C2228 C2230 1.384 . S
C2229 C2228 1.377 . S
C2229 C2235 1.390 . S
C2230 H2221 0.930 . S
C2230 C2228 1.384 . S
C2230 C2231 1.372 . S
C2231 C2230 1.372 . S
C2231 C2232 1.400 . S
C2231 C2236 1.490 . S
C2232 H2222 0.930 . S
C2232 C2231 1.400 . S
C2232 C2235 1.386 . S
H2233 C2249 0.930 . S
H2234 C2250 0.931 . S
C2235 H2223 0.929 . S
C2235 C2229 1.390 . S
C2235 C2232 1.386 . S
C2236 C2231 1.490 . S
C2236 C2238 1.395 . S
C2236 C2239 1.403 . S
H2237 C2243 0.930 . S
C2238 H2224 0.930 . S
C2238 C2236 1.395 . S
C2238 C2241 1.403 . S
C2239 C2236 1.403 . S
C2239 C2240 1.524 . S
C2239 C2243 1.400 . S
C2240 H2225 0.960 . S
C2240 H2226 0.960 . S
C2240 H2227 0.960 . S
C2240 C2239 1.524 . S
C2241 C2238 1.403 . S
C2241 C2242 1.392 . S
C2241 C2245 1.495 . S
C2242 C2241 1.392 . S
C2242 C2243 1.385 . S
C2242 C2244 1.478 . S
C2243 H2237 0.930 . S
C2243 C2239 1.400 . S
C2243 C2242 1.385 . S
C2244 C2242 1.478 . S
C2244 C2246 1.381 . S
C2244 C2250 1.383 . S
C2245 C2241 1.495 . S
C2245 H2251 0.959 . S
C2245 H2252 0.961 . S
C2245 H2253 0.960 . S
C2246 C2244 1.381 . S
C2246 C2247 1.394 . S
C2246 H2254 0.930 . S
C2247 C2246 1.394 . S
C2247 C2248 1.383 . S
C2247 H2255 0.929 . S
C2248 C2247 1.383 . S
C2248 C2249 1.377 . S
C2249 H2233 0.930 . S
C2249 C2248 1.377 . S
C2249 C2250 1.379 . S
C2250 H2234 0.931 . S
C2250 C2244 1.383 . S
C2250 C2249 1.379 . S
H2251 C2245 0.959 . S
H2252 C2245 0.961 . S
H2253 C2245 0.960 . S
H2254 C2246 0.930 . S
H2255 C2247 0.929 . S
H2256 C2264 0.929 . S
H2257 C2266 0.930 . S
H2258 C2268 0.930 . S
H2259 C2271 0.929 . S
H2260 C2274 0.930 . S
H2261 C2276 0.960 . S
H2262 C2276 0.960 . S
H2263 C2276 0.960 . S
C2264 H2256 0.929 . S
C2264 C2265 1.378 . S
C2264 C2266 1.384 . S
C2265 C2264 1.378 . S
C2265 C2271 1.389 1_554 S
C2266 H2257 0.930 . S
C2266 C2264 1.384 . S
C2266 C2267 1.372 . S
C2267 C2266 1.372 . S
C2267 C2268 1.400 1_554 S
C2267 C2272 1.490 . S
C2268 H2258 0.930 . S
C2268 C2267 1.400 1_556 S
C2268 C2271 1.386 . S
H2269 C2285 0.930 . S
H2270 C2286 0.931 1_545 S
C2271 H2259 0.929 . S
C2271 C2265 1.389 1_556 S
C2271 C2268 1.386 . S
C2272 C2267 1.490 . S
C2272 C2274 1.395 . S
C2272 C2275 1.403 1_554 S
H2273 C2279 0.930 1_556 S
C2274 H2260 0.930 . S
C2274 C2272 1.395 . S
C2274 C2277 1.403 . S
C2275 C2272 1.403 1_556 S
C2275 C2276 1.524 . S
C2275 C2279 1.400 1_556 S
C2276 H2261 0.960 . S
C2276 H2262 0.960 . S
C2276 H2263 0.960 . S
C2276 C2275 1.524 . S
C2277 C2274 1.403 . S
C2277 C2278 1.392 . S
C2277 C2281 1.495 . S
C2278 C2277 1.392 . S
C2278 C2279 1.385 . S
C2278 C2280 1.478 . S
C2279 H2273 0.930 1_554 S
C2279 C2275 1.400 1_554 S
C2279 C2278 1.385 . S
C2280 C2278 1.478 . S
C2280 C2282 1.381 . S
C2280 C2286 1.383 . S
C2281 C2277 1.495 . S
C2281 H2287 0.959 . S
C2281 H2288 0.961 . S
C2281 H2289 0.960 . S
C2282 C2280 1.381 . S
C2282 C2283 1.394 . S
C2282 H2290 0.930 . S
C2283 C2282 1.394 . S
C2283 C2284 1.383 . S
C2283 H2291 0.929 . S
C2284 C2283 1.383 . S
C2284 C2285 1.377 1_565 S
C2285 H2269 0.930 . S
C2285 C2284 1.377 1_545 S
C2285 C2286 1.379 1_545 S
C2286 H2270 0.931 1_565 S
C2286 C2280 1.383 . S
C2286 C2285 1.379 1_565 S
H2287 C2281 0.959 . S
H2288 C2281 0.961 . S
H2289 C2281 0.960 . S
H2290 C2282 0.930 . S
H2291 C2283 0.929 . S
H2292 C2300 0.929 . S
H2293 C2302 0.930 . S
H2294 C2304 0.930 . S
H2295 C2307 0.929 . S
H2296 C2310 0.930 . S
H2297 C2312 0.960 . S
H2298 C2312 0.960 1_554 S
H2299 C2312 0.960 . S
C2300 H2292 0.929 . S
C2300 C2301 1.377 . S
C2300 C2302 1.384 . S
C2301 C2300 1.377 . S
C2301 C2307 1.390 1_554 S
C2302 H2293 0.930 . S
C2302 C2300 1.384 . S
C2302 C2303 1.372 . S
C2303 C2302 1.372 . S
C2303 C2304 1.400 1_554 S
C2303 C2308 1.490 . S
C2304 H2294 0.930 . S
C2304 C2303 1.400 1_556 S
C2304 C2307 1.386 . S
H2305 C2321 0.930 . S
H2306 C2322 0.931 . S
C2307 H2295 0.929 . S
C2307 C2301 1.390 1_556 S
C2307 C2304 1.386 . S
C2308 C2303 1.490 . S
C2308 C2310 1.395 . S
C2308 C2311 1.403 . S
H2309 C2315 0.930 . S
C2310 H2296 0.930 . S
C2310 C2308 1.395 . S
C2310 C2313 1.403 . S
C2311 C2308 1.403 . S
C2311 C2312 1.524 1_554 S
C2311 C2315 1.400 . S
C2312 H2297 0.960 . S
C2312 H2298 0.960 1_556 S
C2312 H2299 0.960 . S
C2312 C2311 1.524 1_556 S
C2313 C2310 1.403 . S
C2313 C2314 1.392 . S
C2313 C2317 1.495 . S
C2314 C2313 1.392 . S
C2314 C2315 1.385 . S
C2314 C2316 1.478 . S
C2315 H2309 0.930 . S
C2315 C2311 1.400 . S
C2315 C2314 1.385 . S
C2316 C2314 1.478 . S
C2316 C2318 1.381 . S
C2316 C2322 1.383 1_554 S
C2317 C2313 1.495 . S
C2317 H2323 0.959 . S
C2317 H2324 0.961 . S
C2317 H2325 0.960 . S
C2318 C2316 1.381 . S
C2318 C2319 1.394 . S
C2318 H2326 0.930 . S
C2319 C2318 1.394 . S
C2319 C2320 1.383 . S
C2319 H2327 0.929 . S
C2320 C2319 1.383 . S
C2320 C2321 1.377 1_554 S
C2321 H2305 0.930 . S
C2321 C2320 1.377 1_556 S
C2321 C2322 1.379 . S
C2322 H2306 0.931 . S
C2322 C2316 1.383 1_556 S
C2322 C2321 1.379 . S
H2323 C2317 0.959 . S
H2324 C2317 0.961 . S
H2325 C2317 0.960 . S
H2326 C2318 0.930 . S
H2327 C2319 0.929 . S
H2328 C2336 0.929 . S
H2329 C2338 0.930 . S
H2330 C2340 0.930 . S
H2331 C2343 0.929 . S
H2332 C2346 0.930 . S
H2333 C2348 0.960 . S
H2334 C2348 0.960 . S
H2335 C2348 0.960 . S
C2336 H2328 0.929 . S
C2336 C2337 1.377 . S
C2336 C2338 1.384 . S
C2337 C2336 1.377 . S
C2337 C2343 1.390 . S
C2338 H2329 0.930 . S
C2338 C2336 1.384 . S
C2338 C2339 1.372 . S
C2339 C2338 1.372 . S
C2339 C2340 1.400 . S
C2339 C2344 1.490 . S
C2340 H2330 0.930 . S
C2340 C2339 1.400 . S
C2340 C2343 1.386 . S
H2341 C2357 0.930 . S
H2342 C2358 0.931 . S
C2343 H2331 0.929 . S
C2343 C2337 1.390 . S
C2343 C2340 1.386 . S
C2344 C2339 1.490 . S
C2344 C2346 1.395 . S
C2344 C2347 1.403 . S
H2345 C2351 0.930 . S
C2346 H2332 0.930 . S
C2346 C2344 1.395 . S
C2346 C2349 1.403 . S
C2347 C2344 1.403 . S
C2347 C2348 1.524 . S
C2347 C2351 1.400 . S
C2348 H2333 0.960 . S
C2348 H2334 0.960 . S
C2348 H2335 0.960 . S
C2348 C2347 1.524 . S
C2349 C2346 1.403 . S
C2349 C2350 1.392 . S
C2349 C2353 1.495 . S
C2350 C2349 1.392 . S
C2350 C2351 1.385 . S
C2350 C2352 1.478 . S
C2351 H2345 0.930 . S
C2351 C2347 1.400 . S
C2351 C2350 1.385 . S
C2352 C2350 1.478 . S
C2352 C2354 1.381 . S
C2352 C2358 1.383 . S
C2353 C2349 1.495 . S
C2353 H2359 0.959 . S
C2353 H2360 0.961 . S
C2353 H2361 0.960 . S
C2354 C2352 1.381 . S
C2354 C2355 1.394 . S
C2354 H2362 0.930 . S
C2355 C2354 1.394 . S
C2355 C2356 1.383 . S
C2355 H2363 0.929 . S
C2356 C2355 1.383 . S
C2356 C2357 1.377 . S
C2357 H2341 0.930 . S
C2357 C2356 1.377 . S
C2357 C2358 1.379 . S
C2358 H2342 0.931 . S
C2358 C2352 1.383 . S
C2358 C2357 1.379 . S
H2359 C2353 0.959 . S
H2360 C2353 0.961 . S
H2361 C2353 0.960 . S
H2362 C2354 0.930 . S
H2363 C2355 0.929 . S
H2364 C2372 0.929 . S
H2365 C2374 0.930 . S
H2366 C2376 0.930 . S
H2367 C2379 0.929 . S
H2368 C2382 0.930 . S
H2369 C2384 0.960 . S
H2370 C2384 0.960 . S
H2371 C2384 0.960 . S
C2372 H2364 0.929 . S
C2372 C2373 1.377 . S
C2372 C2374 1.384 . S
C2373 C2372 1.377 . S
C2373 C2379 1.390 . S
C2374 H2365 0.930 . S
C2374 C2372 1.384 . S
C2374 C2375 1.372 . S
C2375 C2374 1.372 . S
C2375 C2376 1.400 . S
C2375 C2380 1.490 . S
C2376 H2366 0.930 . S
C2376 C2375 1.400 . S
C2376 C2379 1.386 . S
H2377 C2393 0.930 . S
H2378 C2394 0.931 . S
C2379 H2367 0.929 . S
C2379 C2373 1.390 . S
C2379 C2376 1.386 . S
C2380 C2375 1.490 . S
C2380 C2382 1.395 . S
C2380 C2383 1.403 . S
H2381 C2387 0.930 . S
C2382 H2368 0.930 . S
C2382 C2380 1.395 . S
C2382 C2385 1.403 . S
C2383 C2380 1.403 . S
C2383 C2384 1.524 . S
C2383 C2387 1.400 . S
C2384 H2369 0.960 . S
C2384 H2370 0.960 . S
C2384 H2371 0.960 . S
C2384 C2383 1.524 . S
C2385 C2382 1.403 . S
C2385 C2386 1.392 . S
C2385 C2389 1.495 . S
C2386 C2385 1.392 . S
C2386 C2387 1.385 . S
C2386 C2388 1.478 . S
C2387 H2381 0.930 . S
C2387 C2383 1.400 . S
C2387 C2386 1.385 . S
C2388 C2386 1.478 . S
C2388 C2390 1.381 . S
C2388 C2394 1.383 . S
C2389 C2385 1.495 . S
C2389 H2395 0.959 . S
C2389 H2396 0.961 . S
C2389 H2397 0.960 . S
C2390 C2388 1.381 . S
C2390 C2391 1.394 . S
C2390 H2398 0.930 . S
C2391 C2390 1.394 . S
C2391 C2392 1.383 . S
C2391 H2399 0.929 . S
C2392 C2391 1.383 . S
C2392 C2393 1.377 . S
C2393 H2377 0.930 . S
C2393 C2392 1.377 . S
C2393 C2394 1.379 . S
C2394 H2378 0.931 . S
C2394 C2388 1.383 . S
C2394 C2393 1.379 . S
H2395 C2389 0.959 . S
H2396 C2389 0.961 . S
H2397 C2389 0.960 . S
H2398 C2390 0.930 . S
H2399 C2391 0.929 . S
H2400 C2408 0.929 . S
H2401 C2410 0.930 . S
H2402 C2412 0.930 . S
H2403 C2415 0.929 . S
H2404 C2418 0.930 . S
H2405 C2420 0.960 . S
H2406 C2420 0.960 . S
H2407 C2420 0.960 . S
C2408 H2400 0.929 . S
C2408 C2409 1.377 . S
C2408 C2410 1.384 . S
C2409 C2408 1.377 . S
C2409 C2415 1.390 . S
C2410 H2401 0.930 . S
C2410 C2408 1.384 . S
C2410 C2411 1.372 . S
C2411 C2410 1.372 . S
C2411 C2412 1.400 . S
C2411 C2416 1.490 . S
C2412 H2402 0.930 . S
C2412 C2411 1.400 . S
C2412 C2415 1.386 . S
H2413 C2429 0.930 . S
H2414 C2430 0.931 . S
C2415 H2403 0.929 . S
C2415 C2409 1.390 . S
C2415 C2412 1.386 . S
C2416 C2411 1.490 . S
C2416 C2418 1.395 . S
C2416 C2419 1.403 . S
H2417 C2423 0.930 . S
C2418 H2404 0.930 . S
C2418 C2416 1.395 . S
C2418 C2421 1.403 . S
C2419 C2416 1.403 . S
C2419 C2420 1.524 . S
C2419 C2423 1.400 . S
C2420 H2405 0.960 . S
C2420 H2406 0.960 . S
C2420 H2407 0.960 . S
C2420 C2419 1.524 . S
C2421 C2418 1.403 . S
C2421 C2422 1.392 . S
C2421 C2425 1.495 . S
C2422 C2421 1.392 . S
C2422 C2423 1.385 . S
C2422 C2424 1.478 . S
C2423 H2417 0.930 . S
C2423 C2419 1.400 . S
C2423 C2422 1.385 . S
C2424 C2422 1.478 . S
C2424 C2426 1.381 . S
C2424 C2430 1.383 . S
C2425 C2421 1.495 . S
C2425 H2431 0.959 . S
C2425 H2432 0.961 . S
C2425 H2433 0.960 . S
C2426 C2424 1.381 . S
C2426 C2427 1.394 . S
C2426 H2434 0.930 . S
C2427 C2426 1.394 . S
C2427 C2428 1.383 . S
C2427 H2435 0.929 . S
C2428 C2427 1.383 . S
C2428 C2429 1.377 . S
C2429 H2413 0.930 . S
C2429 C2428 1.377 . S
C2429 C2430 1.379 . S
C2430 H2414 0.931 . S
C2430 C2424 1.383 . S
C2430 C2429 1.379 . S
H2431 C2425 0.959 . S
H2432 C2425 0.961 . S
H2433 C2425 0.960 . S
H2434 C2426 0.930 . S
H2435 C2427 0.929 . S
H2436 C2444 0.929 . S
H2437 C2446 0.930 . S
H2438 C2448 0.930 . S
H2439 C2451 0.929 . S
H2440 C2454 0.930 . S
H2441 C2456 0.960 . S
H2442 C2456 0.960 . S
H2443 C2456 0.960 . S
C2444 H2436 0.929 . S
C2444 C2445 1.377 . S
C2444 C2446 1.384 . S
C2445 C2444 1.377 . S
C2445 C2451 1.390 . S
C2446 H2437 0.930 . S
C2446 C2444 1.384 . S
C2446 C2447 1.372 . S
C2447 C2446 1.372 . S
C2447 C2448 1.400 . S
C2447 C2452 1.490 . S
C2448 H2438 0.930 . S
C2448 C2447 1.400 . S
C2448 C2451 1.386 . S
H2449 C2465 0.930 . S
H2450 C2466 0.931 . S
C2451 H2439 0.929 . S
C2451 C2445 1.390 . S
C2451 C2448 1.386 . S
C2452 C2447 1.490 . S
C2452 C2454 1.395 . S
C2452 C2455 1.403 . S
H2453 C2459 0.930 . S
C2454 H2440 0.930 . S
C2454 C2452 1.395 . S
C2454 C2457 1.403 . S
C2455 C2452 1.403 . S
C2455 C2456 1.524 . S
C2455 C2459 1.400 . S
C2456 H2441 0.960 . S
C2456 H2442 0.960 . S
C2456 H2443 0.960 . S
C2456 C2455 1.524 . S
C2457 C2454 1.403 . S
C2457 C2458 1.392 . S
C2457 C2461 1.495 . S
C2458 C2457 1.392 . S
C2458 C2459 1.385 . S
C2458 C2460 1.478 . S
C2459 H2453 0.930 . S
C2459 C2455 1.400 . S
C2459 C2458 1.385 . S
C2460 C2458 1.478 . S
C2460 C2462 1.381 . S
C2460 C2466 1.383 . S
C2461 C2457 1.495 . S
C2461 H2467 0.959 . S
C2461 H2468 0.961 . S
C2461 H2469 0.960 . S
C2462 C2460 1.381 . S
C2462 C2463 1.394 . S
C2462 H2470 0.930 . S
C2463 C2462 1.394 . S
C2463 C2464 1.383 . S
C2463 H2471 0.929 . S
C2464 C2463 1.383 . S
C2464 C2465 1.377 . S
C2465 H2449 0.930 . S
C2465 C2464 1.377 . S
C2465 C2466 1.379 . S
C2466 H2450 0.931 . S
C2466 C2460 1.383 . S
C2466 C2465 1.379 . S
H2467 C2461 0.959 . S
H2468 C2461 0.961 . S
H2469 C2461 0.960 . S
H2470 C2462 0.930 . S
H2471 C2463 0.929 . S
H2472 C2480 0.929 . S
H2473 C2482 0.930 . S
H2474 C2484 0.930 . S
H2475 C2487 0.929 . S
H2476 C2490 0.930 . S
H2477 C2492 0.960 . S
H2478 C2492 0.960 . S
H2479 C2492 0.960 . S
C2480 H2472 0.929 . S
C2480 C2481 1.377 . S
C2480 C2482 1.384 . S
C2481 C2480 1.377 . S
C2481 C2487 1.390 . S
C2482 H2473 0.930 . S
C2482 C2480 1.384 . S
C2482 C2483 1.372 . S
C2483 C2482 1.372 . S
C2483 C2484 1.400 . S
C2483 C2488 1.490 . S
C2484 H2474 0.930 . S
C2484 C2483 1.400 . S
C2484 C2487 1.386 . S
H2485 C2501 0.930 . S
H2486 C2502 0.931 . S
C2487 H2475 0.929 . S
C2487 C2481 1.390 . S
C2487 C2484 1.386 . S
C2488 C2483 1.490 . S
C2488 C2490 1.395 . S
C2488 C2491 1.403 . S
H2489 C2495 0.930 . S
C2490 H2476 0.930 . S
C2490 C2488 1.395 . S
C2490 C2493 1.403 . S
C2491 C2488 1.403 . S
C2491 C2492 1.524 . S
C2491 C2495 1.400 . S
C2492 H2477 0.960 . S
C2492 H2478 0.960 . S
C2492 H2479 0.960 . S
C2492 C2491 1.524 . S
C2493 C2490 1.403 . S
C2493 C2494 1.392 . S
C2493 C2497 1.495 . S
C2494 C2493 1.392 . S
C2494 C2495 1.385 . S
C2494 C2496 1.478 . S
C2495 H2489 0.930 . S
C2495 C2491 1.400 . S
C2495 C2494 1.385 . S
C2496 C2494 1.478 . S
C2496 C2498 1.381 . S
C2496 C2502 1.383 . S
C2497 C2493 1.495 . S
C2497 H2503 0.959 . S
C2497 H2504 0.961 . S
C2497 H2505 0.960 . S
C2498 C2496 1.381 . S
C2498 C2499 1.394 . S
C2498 H2506 0.930 . S
C2499 C2498 1.394 . S
C2499 C2500 1.383 . S
C2499 H2507 0.929 . S
C2500 C2499 1.383 . S
C2500 C2501 1.377 . S
C2501 H2485 0.930 . S
C2501 C2500 1.377 . S
C2501 C2502 1.379 . S
C2502 H2486 0.931 . S
C2502 C2496 1.383 . S
C2502 C2501 1.379 . S
H2503 C2497 0.959 . S
H2504 C2497 0.961 . S
H2505 C2497 0.960 . S
H2506 C2498 0.930 . S
H2507 C2499 0.929 . S
H2508 C2516 0.929 . S
H2509 C2518 0.930 . S
H2510 C2520 0.930 . S
H2511 C2523 0.929 . S
H2512 C2526 0.930 . S
H2513 C2528 0.960 . S
H2514 C2528 0.960 . S
H2515 C2528 0.960 . S
C2516 H2508 0.929 . S
C2516 C2517 1.377 . S
C2516 C2518 1.384 . S
C2517 C2516 1.377 . S
C2517 C2523 1.390 . S
C2518 H2509 0.930 . S
C2518 C2516 1.384 . S
C2518 C2519 1.372 . S
C2519 C2518 1.372 . S
C2519 C2520 1.400 . S
C2519 C2524 1.490 . S
C2520 H2510 0.930 . S
C2520 C2519 1.400 . S
C2520 C2523 1.386 . S
H2521 C2537 0.930 . S
H2522 C2538 0.931 . S
C2523 H2511 0.929 . S
C2523 C2517 1.390 . S
C2523 C2520 1.386 . S
C2524 C2519 1.490 . S
C2524 C2526 1.395 . S
C2524 C2527 1.403 . S
H2525 C2531 0.930 . S
C2526 H2512 0.930 . S
C2526 C2524 1.395 . S
C2526 C2529 1.403 . S
C2527 C2524 1.403 . S
C2527 C2528 1.524 . S
C2527 C2531 1.400 . S
C2528 H2513 0.960 . S
C2528 H2514 0.960 . S
C2528 H2515 0.960 . S
C2528 C2527 1.524 . S
C2529 C2526 1.403 . S
C2529 C2530 1.392 . S
C2529 C2533 1.495 . S
C2530 C2529 1.392 . S
C2530 C2531 1.385 . S
C2530 C2532 1.478 . S
C2531 H2525 0.930 . S
C2531 C2527 1.400 . S
C2531 C2530 1.385 . S
C2532 C2530 1.478 . S
C2532 C2534 1.381 . S
C2532 C2538 1.383 . S
C2533 C2529 1.495 . S
C2533 H2539 0.959 . S
C2533 H2540 0.961 . S
C2533 H2541 0.960 . S
C2534 C2532 1.381 . S
C2534 C2535 1.394 . S
C2534 H2542 0.930 . S
C2535 C2534 1.394 . S
C2535 C2536 1.383 . S
C2535 H2543 0.929 . S
C2536 C2535 1.383 . S
C2536 C2537 1.377 . S
C2537 H2521 0.930 . S
C2537 C2536 1.377 . S
C2537 C2538 1.379 . S
C2538 H2522 0.931 . S
C2538 C2532 1.383 . S
C2538 C2537 1.379 . S
H2539 C2533 0.959 . S
H2540 C2533 0.961 . S
H2541 C2533 0.960 . S
H2542 C2534 0.930 . S
H2543 C2535 0.929 . S
H2544 C2552 0.929 . S
H2545 C2554 0.930 . S
H2546 C2556 0.930 . S
H2547 C2559 0.929 . S
H2548 C2562 0.930 . S
H2549 C2564 0.960 . S
H2550 C2564 0.960 . S
H2551 C2564 0.960 . S
C2552 H2544 0.929 . S
C2552 C2553 1.377 . S
C2552 C2554 1.384 . S
C2553 C2552 1.377 . S
C2553 C2559 1.390 . S
C2554 H2545 0.930 . S
C2554 C2552 1.384 . S
C2554 C2555 1.372 . S
C2555 C2554 1.372 . S
C2555 C2556 1.400 . S
C2555 C2560 1.490 . S
C2556 H2546 0.930 . S
C2556 C2555 1.400 . S
C2556 C2559 1.386 . S
H2557 C2573 0.930 . S
H2558 C2574 0.931 . S
C2559 H2547 0.929 . S
C2559 C2553 1.390 . S
C2559 C2556 1.386 . S
C2560 C2555 1.490 . S
C2560 C2562 1.395 . S
C2560 C2563 1.403 . S
H2561 C2567 0.930 . S
C2562 H2548 0.930 . S
C2562 C2560 1.395 . S
C2562 C2565 1.403 . S
C2563 C2560 1.403 . S
C2563 C2564 1.524 . S
C2563 C2567 1.400 . S
C2564 H2549 0.960 . S
C2564 H2550 0.960 . S
C2564 H2551 0.960 . S
C2564 C2563 1.524 . S
C2565 C2562 1.403 . S
C2565 C2566 1.392 . S
C2565 C2569 1.513 . S
C2566 C2565 1.392 . S
C2566 C2567 1.385 . S
C2566 C2568 1.478 . S
C2567 H2561 0.930 . S
C2567 C2563 1.400 . S
C2567 C2566 1.385 . S
C2568 C2566 1.478 . S
C2568 C2570 1.381 . S
C2568 C2574 1.383 . S
C2569 C2565 1.513 . S
C2569 H2575 0.950 1_455 S
C2569 H2576 0.944 1_455 S
C2569 H2577 0.956 1_455 S
C2570 C2568 1.381 . S
C2570 C2571 1.394 . S
C2570 H2578 0.930 . S
C2571 C2570 1.394 . S
C2571 C2572 1.383 . S
C2571 H2579 0.929 . S
C2572 C2571 1.383 . S
C2572 C2573 1.377 . S
C2573 H2557 0.930 . S
C2573 C2572 1.377 . S
C2573 C2574 1.379 . S
C2574 H2558 0.931 . S
C2574 C2568 1.383 . S
C2574 C2573 1.379 . S
H2575 C2569 0.950 1_655 S
H2576 C2569 0.944 1_655 S
H2577 C2569 0.956 1_655 S
H2578 C2570 0.930 . S
H2579 C2571 0.929 . S
H2580 C2588 0.929 . S
H2581 C2590 0.930 . S
H2582 C2592 0.930 . S
H2583 C2595 0.929 . S
H2584 C2598 0.930 . S
H2585 C2600 0.960 . S
H2586 C2600 0.960 . S
H2587 C2600 0.960 . S
C2588 H2580 0.929 . S
C2588 C2589 1.377 . S
C2588 C2590 1.384 . S
C2589 C2588 1.377 . S
C2589 C2595 1.390 . S
C2590 H2581 0.930 . S
C2590 C2588 1.384 . S
C2590 C2591 1.372 . S
C2591 C2590 1.372 . S
C2591 C2592 1.400 . S
C2591 C2596 1.490 . S
C2592 H2582 0.930 . S
C2592 C2591 1.400 . S
C2592 C2595 1.386 . S
H2593 C2609 0.930 . S
H2594 C2610 0.931 . S
C2595 H2583 0.929 . S
C2595 C2589 1.390 . S
C2595 C2592 1.386 . S
C2596 C2591 1.490 . S
C2596 C2598 1.395 . S
C2596 C2599 1.403 . S
H2597 C2603 0.930 . S
C2598 H2584 0.930 . S
C2598 C2596 1.395 . S
C2598 C2601 1.403 . S
C2599 C2596 1.403 . S
C2599 C2600 1.524 . S
C2599 C2603 1.400 . S
C2600 H2585 0.960 . S
C2600 H2586 0.960 . S
C2600 H2587 0.960 . S
C2600 C2599 1.524 . S
C2601 C2598 1.403 . S
C2601 C2602 1.392 . S
C2601 C2605 1.495 . S
C2602 C2601 1.392 . S
C2602 C2603 1.385 . S
C2602 C2604 1.478 . S
C2603 H2597 0.930 . S
C2603 C2599 1.400 . S
C2603 C2602 1.385 . S
C2604 C2602 1.478 . S
C2604 C2606 1.381 . S
C2604 C2610 1.383 . S
C2605 C2601 1.495 . S
C2605 H2611 0.959 . S
C2605 H2612 0.961 . S
C2605 H2613 0.960 . S
C2606 C2604 1.381 . S
C2606 C2607 1.394 . S
C2606 H2614 0.930 . S
C2607 C2606 1.394 . S
C2607 C2608 1.383 . S
C2607 H2615 0.929 . S
C2608 C2607 1.383 . S
C2608 C2609 1.377 . S
C2609 H2593 0.930 . S
C2609 C2608 1.377 . S
C2609 C2610 1.379 . S
C2610 H2594 0.931 . S
C2610 C2604 1.383 . S
C2610 C2609 1.379 . S
H2611 C2605 0.959 . S
H2612 C2605 0.961 . S
H2613 C2605 0.960 . S
H2614 C2606 0.930 . S
H2615 C2607 0.929 . S
H2616 C2624 0.929 . S
H2617 C2626 0.930 . S
H2618 C2628 0.930 . S
H2619 C2631 0.929 . S
H2620 C2634 0.930 . S
H2621 C2636 0.960 . S
H2622 C2636 0.960 . S
H2623 C2636 0.960 . S
C2624 H2616 0.929 . S
C2624 C2625 1.377 . S
C2624 C2626 1.384 . S
C2625 C2624 1.377 . S
C2625 C2631 1.390 . S
C2626 H2617 0.930 . S
C2626 C2624 1.384 . S
C2626 C2627 1.372 . S
C2627 C2626 1.372 . S
C2627 C2628 1.400 . S
C2627 C2632 1.490 . S
C2628 H2618 0.930 . S
C2628 C2627 1.400 . S
C2628 C2631 1.386 . S
H2629 C2645 0.930 . S
H2630 C2646 0.931 . S
C2631 H2619 0.929 . S
C2631 C2625 1.390 . S
C2631 C2628 1.386 . S
C2632 C2627 1.490 . S
C2632 C2634 1.395 . S
C2632 C2635 1.403 . S
H2633 C2639 0.930 . S
C2634 H2620 0.930 . S
C2634 C2632 1.395 . S
C2634 C2637 1.403 . S
C2635 C2632 1.403 . S
C2635 C2636 1.524 . S
C2635 C2639 1.400 . S
C2636 H2621 0.960 . S
C2636 H2622 0.960 . S
C2636 H2623 0.960 . S
C2636 C2635 1.524 . S
C2637 C2634 1.403 . S
C2637 C2638 1.392 . S
C2637 C2641 1.495 . S
C2638 C2637 1.392 . S
C2638 C2639 1.385 . S
C2638 C2640 1.478 . S
C2639 H2633 0.930 . S
C2639 C2635 1.400 . S
C2639 C2638 1.385 . S
C2640 C2638 1.478 . S
C2640 C2642 1.381 . S
C2640 C2646 1.383 . S
C2641 C2637 1.495 . S
C2641 H2647 0.959 . S
C2641 H2648 0.961 . S
C2641 H2649 0.960 . S
C2642 C2640 1.381 . S
C2642 C2643 1.394 . S
C2642 H2650 0.930 . S
C2643 C2642 1.394 . S
C2643 C2644 1.383 . S
C2643 H2651 0.929 . S
C2644 C2643 1.383 . S
C2644 C2645 1.377 . S
C2645 H2629 0.930 . S
C2645 C2644 1.377 . S
C2645 C2646 1.379 . S
C2646 H2630 0.931 . S
C2646 C2640 1.383 . S
C2646 C2645 1.379 . S
H2647 C2641 0.959 . S
H2648 C2641 0.961 . S
H2649 C2641 0.960 . S
H2650 C2642 0.930 . S
H2651 C2643 0.929 . S
H2652 C2660 0.929 . S
H2653 C2662 0.930 . S
H2654 C2664 0.930 . S
H2655 C2667 0.929 . S
H2656 C2670 0.930 . S
H2657 C2672 0.960 . S
H2658 C2672 0.960 . S
H2659 C2672 0.960 . S
C2660 H2652 0.929 . S
C2660 C2661 1.377 . S
C2660 C2662 1.384 . S
C2661 C2660 1.377 . S
C2661 C2667 1.390 . S
C2662 H2653 0.930 . S
C2662 C2660 1.384 . S
C2662 C2663 1.372 . S
C2663 C2662 1.372 . S
C2663 C2664 1.400 . S
C2663 C2668 1.490 . S
C2664 H2654 0.930 . S
C2664 C2663 1.400 . S
C2664 C2667 1.386 . S
H2665 C2681 0.930 . S
H2666 C2682 0.931 . S
C2667 H2655 0.929 . S
C2667 C2661 1.390 . S
C2667 C2664 1.386 . S
C2668 C2663 1.490 . S
C2668 C2670 1.395 . S
C2668 C2671 1.403 . S
H2669 C2675 0.930 . S
C2670 H2656 0.930 . S
C2670 C2668 1.395 . S
C2670 C2673 1.403 . S
C2671 C2668 1.403 . S
C2671 C2672 1.524 . S
C2671 C2675 1.400 . S
C2672 H2657 0.960 . S
C2672 H2658 0.960 . S
C2672 H2659 0.960 . S
C2672 C2671 1.524 . S
C2673 C2670 1.403 . S
C2673 C2674 1.392 . S
C2673 C2677 1.495 . S
C2674 C2673 1.392 . S
C2674 C2675 1.385 . S
C2674 C2676 1.478 . S
C2675 H2669 0.930 . S
C2675 C2671 1.400 . S
C2675 C2674 1.385 . S
C2676 C2674 1.478 . S
C2676 C2678 1.381 . S
C2676 C2682 1.383 . S
C2677 C2673 1.495 . S
C2677 H2683 0.959 . S
C2677 H2684 0.961 . S
C2677 H2685 0.960 . S
C2678 C2676 1.381 . S
C2678 C2679 1.394 . S
C2678 H2686 0.930 . S
C2679 C2678 1.394 . S
C2679 C2680 1.383 . S
C2679 H2687 0.929 . S
C2680 C2679 1.383 . S
C2680 C2681 1.377 . S
C2681 H2665 0.930 . S
C2681 C2680 1.377 . S
C2681 C2682 1.379 . S
C2682 H2666 0.931 . S
C2682 C2676 1.383 . S
C2682 C2681 1.379 . S
H2683 C2677 0.959 . S
H2684 C2677 0.961 . S
H2685 C2677 0.960 . S
H2686 C2678 0.930 . S
H2687 C2679 0.929 . S
H2688 C2696 0.929 . S
H2689 C2698 0.930 . S
H2690 C2700 0.930 . S
H2691 C2703 0.929 . S
H2692 C2706 0.930 . S
H2693 C2708 0.960 . S
H2694 C2708 0.960 . S
H2695 C2708 0.960 . S
C2696 H2688 0.929 . S
C2696 C2697 1.377 . S
C2696 C2698 1.384 . S
C2697 C2696 1.377 . S
C2697 C2703 1.390 . S
C2698 H2689 0.930 . S
C2698 C2696 1.384 . S
C2698 C2699 1.372 . S
C2699 C2698 1.372 . S
C2699 C2700 1.400 . S
C2699 C2704 1.490 . S
C2700 H2690 0.930 . S
C2700 C2699 1.400 . S
C2700 C2703 1.386 . S
H2701 C2717 0.930 . S
H2702 C2718 0.931 . S
C2703 H2691 0.929 . S
C2703 C2697 1.390 . S
C2703 C2700 1.386 . S
C2704 C2699 1.490 . S
C2704 C2706 1.395 . S
C2704 C2707 1.403 . S
H2705 C2711 0.930 . S
C2706 H2692 0.930 . S
C2706 C2704 1.395 . S
C2706 C2709 1.403 . S
C2707 C2704 1.403 . S
C2707 C2708 1.524 . S
C2707 C2711 1.400 . S
C2708 H2693 0.960 . S
C2708 H2694 0.960 . S
C2708 H2695 0.960 . S
C2708 C2707 1.524 . S
C2709 C2706 1.403 . S
C2709 C2710 1.392 . S
C2709 C2713 1.495 1_455 S
C2710 C2709 1.392 . S
C2710 C2711 1.385 . S
C2710 C2712 1.478 . S
C2711 H2705 0.930 . S
C2711 C2707 1.400 . S
C2711 C2710 1.385 . S
C2712 C2710 1.478 . S
C2712 C2714 1.381 . S
C2712 C2718 1.383 . S
C2713 C2709 1.495 1_655 S
C2713 H2719 0.959 . S
C2713 H2720 0.961 1_655 S
C2713 H2721 0.960 . S
C2714 C2712 1.381 . S
C2714 C2715 1.394 . S
C2714 H2722 0.970 . S
C2715 C2714 1.394 . S
C2715 C2716 1.383 . S
C2715 H2723 0.929 . S
C2716 C2715 1.383 . S
C2716 C2717 1.377 . S
C2717 H2701 0.930 . S
C2717 C2716 1.377 . S
C2717 C2718 1.379 . S
C2718 H2702 0.931 . S
C2718 C2712 1.383 . S
C2718 C2717 1.379 . S
H2719 C2713 0.959 . S
H2720 C2713 0.961 1_455 S
H2721 C2713 0.960 . S
H2722 C2714 0.970 . S
H2723 C2715 0.929 . S
H2724 C2732 0.929 . S
H2725 C2734 0.930 . S
H2726 C2736 0.930 . S
H2727 C2739 0.929 . S
H2728 C2742 0.930 . S
H2729 C2744 0.960 . S
H2730 C2744 0.960 . S
H2731 C2744 0.960 . S
C2732 H2724 0.929 . S
C2732 C2733 1.377 . S
C2732 C2734 1.384 . S
C2733 C2732 1.377 . S
C2733 C2739 1.390 . S
C2734 H2725 0.930 . S
C2734 C2732 1.384 . S
C2734 C2735 1.372 . S
C2735 C2734 1.372 . S
C2735 C2736 1.400 . S
C2735 C2740 1.490 . S
C2736 H2726 0.930 . S
C2736 C2735 1.400 . S
C2736 C2739 1.386 . S
H2737 C2753 0.930 . S
H2738 C2754 0.931 . S
C2739 H2727 0.929 . S
C2739 C2733 1.390 . S
C2739 C2736 1.386 . S
C2740 C2735 1.490 . S
C2740 C2742 1.395 . S
C2740 C2743 1.403 . S
H2741 C2747 0.930 . S
C2742 H2728 0.930 . S
C2742 C2740 1.395 . S
C2742 C2745 1.403 . S
C2743 C2740 1.403 . S
C2743 C2744 1.524 . S
C2743 C2747 1.400 . S
C2744 H2729 0.960 . S
C2744 H2730 0.960 . S
C2744 H2731 0.960 . S
C2744 C2743 1.524 . S
C2745 C2742 1.403 . S
C2745 C2746 1.392 . S
C2745 C2749 1.495 . S
C2746 C2745 1.392 . S
C2746 C2747 1.385 . S
C2746 C2748 1.478 . S
C2747 H2741 0.930 . S
C2747 C2743 1.400 . S
C2747 C2746 1.385 . S
C2748 C2746 1.478 . S
C2748 C2750 1.381 . S
C2748 C2754 1.383 . S
C2749 C2745 1.495 . S
C2749 H2755 0.959 . S
C2749 H2756 0.961 . S
C2749 H2757 0.960 . S
C2750 C2748 1.381 . S
C2750 C2751 1.394 . S
C2750 H2758 0.930 . S
C2751 C2750 1.394 . S
C2751 C2752 1.383 . S
C2751 H2759 0.929 . S
C2752 C2751 1.383 . S
C2752 C2753 1.377 . S
C2753 H2737 0.930 . S
C2753 C2752 1.377 . S
C2753 C2754 1.379 . S
C2754 H2738 0.931 . S
C2754 C2748 1.383 . S
C2754 C2753 1.379 . S
H2755 C2749 0.959 . S
H2756 C2749 0.961 . S
H2757 C2749 0.960 . S
H2758 C2750 0.930 . S
H2759 C2751 0.929 . S
H2760 C2768 0.929 . S
H2761 C2770 0.930 . S
H2762 C2772 0.930 . S
H2763 C2775 0.929 . S
H2764 C2778 0.930 . S
H2765 C2780 0.960 . S
H2766 C2780 0.960 . S
H2767 C2780 0.960 . S
C2768 H2760 0.929 . S
C2768 C2769 1.377 . S
C2768 C2770 1.384 . S
C2769 C2768 1.377 . S
C2769 C2775 1.390 . S
C2770 H2761 0.930 . S
C2770 C2768 1.384 . S
C2770 C2771 1.372 . S
C2771 C2770 1.372 . S
C2771 C2772 1.400 . S
C2771 C2776 1.490 . S
C2772 H2762 0.930 . S
C2772 C2771 1.400 . S
C2772 C2775 1.386 . S
H2773 C2789 0.943 . S
H2774 C2790 0.931 . S
C2775 H2763 0.929 . S
C2775 C2769 1.390 . S
C2775 C2772 1.386 . S
C2776 C2771 1.490 . S
C2776 C2778 1.395 . S
C2776 C2779 1.403 . S
H2777 C2783 0.930 . S
C2778 H2764 0.930 . S
C2778 C2776 1.395 . S
C2778 C2781 1.403 . S
C2779 C2776 1.403 . S
C2779 C2780 1.524 . S
C2779 C2783 1.400 . S
C2780 H2765 0.960 . S
C2780 H2766 0.960 . S
C2780 H2767 0.960 . S
C2780 C2779 1.524 . S
C2781 C2778 1.403 . S
C2781 C2782 1.392 . S
C2781 C2785 1.495 . S
C2782 C2781 1.392 . S
C2782 C2783 1.385 . S
C2782 C2784 1.478 . S
C2783 H2777 0.930 . S
C2783 C2779 1.400 . S
C2783 C2782 1.385 . S
C2784 C2782 1.478 . S
C2784 C2786 1.381 . S
C2784 C2790 1.383 . S
C2785 C2781 1.495 . S
C2785 H2791 0.959 . S
C2785 H2792 0.961 . S
C2785 H2793 0.960 . S
C2786 C2784 1.381 . S
C2786 C2787 1.394 . S
C2786 H2794 0.930 . S
C2787 C2786 1.394 . S
C2787 C2788 1.383 . S
C2787 H2795 0.929 . S
C2788 C2787 1.383 . S
C2788 C2789 1.377 . S
C2789 H2773 0.943 . S
C2789 C2788 1.377 . S
C2789 C2790 1.379 . S
C2790 H2774 0.931 . S
C2790 C2784 1.383 . S
C2790 C2789 1.379 . S
H2791 C2785 0.959 . S
H2792 C2785 0.961 . S
H2793 C2785 0.960 . S
H2794 C2786 0.930 . S
H2795 C2787 0.929 . S
H2796 C2804 0.929 . S
H2797 C2806 0.930 . S
H2798 C2808 0.930 . S
H2799 C2811 0.929 . S
H2800 C2814 0.930 . S
H2801 C2816 0.960 . S
H2802 C2816 0.960 . S
H2803 C2816 0.960 . S
C2804 H2796 0.929 . S
C2804 C2805 1.377 . S
C2804 C2806 1.384 . S
C2805 C2804 1.377 . S
C2805 C2811 1.390 . S
C2806 H2797 0.930 . S
C2806 C2804 1.384 . S
C2806 C2807 1.372 . S
C2807 C2806 1.372 . S
C2807 C2808 1.400 . S
C2807 C2812 1.490 . S
C2808 H2798 0.930 . S
C2808 C2807 1.400 . S
C2808 C2811 1.386 . S
H2809 C2825 0.930 . S
H2810 C2826 0.931 . S
C2811 H2799 0.929 . S
C2811 C2805 1.390 . S
C2811 C2808 1.386 . S
C2812 C2807 1.490 . S
C2812 C2814 1.395 . S
C2812 C2815 1.403 . S
H2813 C2819 0.930 . S
C2814 H2800 0.930 . S
C2814 C2812 1.395 . S
C2814 C2817 1.403 . S
C2815 C2812 1.403 . S
C2815 C2816 1.524 . S
C2815 C2819 1.400 . S
C2816 H2801 0.960 . S
C2816 H2802 0.960 . S
C2816 H2803 0.960 . S
C2816 C2815 1.524 . S
C2817 C2814 1.403 . S
C2817 C2818 1.392 . S
C2817 C2821 1.495 . S
C2818 C2817 1.392 . S
C2818 C2819 1.385 . S
C2818 C2820 1.478 . S
C2819 H2813 0.930 . S
C2819 C2815 1.400 . S
C2819 C2818 1.385 . S
C2820 C2818 1.478 . S
C2820 C2822 1.381 . S
C2820 C2826 1.383 . S
C2821 C2817 1.495 . S
C2821 H2827 0.959 . S
C2821 H2828 0.961 . S
C2821 H2829 0.960 . S
C2822 C2820 1.381 . S
C2822 C2823 1.394 . S
C2822 H2830 0.930 . S
C2823 C2822 1.394 . S
C2823 C2824 1.383 . S
C2823 H2831 0.929 . S
C2824 C2823 1.383 . S
C2824 C2825 1.377 . S
C2825 H2809 0.930 . S
C2825 C2824 1.377 . S
C2825 C2826 1.379 . S
C2826 H2810 0.931 . S
C2826 C2820 1.383 . S
C2826 C2825 1.379 . S
H2827 C2821 0.959 . S
H2828 C2821 0.961 . S
H2829 C2821 0.960 . S
H2830 C2822 0.930 . S
H2831 C2823 0.929 . S
H2832 C2840 0.929 . S
H2833 C2842 0.930 . S
H2834 C2844 0.930 . S
H2835 C2847 0.929 . S
H2836 C2850 0.930 . S
H2837 C2852 0.960 . S
H2838 C2852 0.960 . S
H2839 C2852 0.960 . S
C2840 H2832 0.929 . S
C2840 C2841 1.377 . S
C2840 C2842 1.384 . S
C2841 C2840 1.377 . S
C2841 C2847 1.390 . S
C2842 H2833 0.930 . S
C2842 C2840 1.384 . S
C2842 C2843 1.372 . S
C2843 C2842 1.372 . S
C2843 C2844 1.400 . S
C2843 C2848 1.490 . S
C2844 H2834 0.930 . S
C2844 C2843 1.400 . S
C2844 C2847 1.386 . S
H2845 C2861 0.930 1_565 S
H2846 C2862 0.931 1_565 S
C2847 H2835 0.929 . S
C2847 C2841 1.390 . S
C2847 C2844 1.386 . S
C2848 C2843 1.490 . S
C2848 C2850 1.395 . S
C2848 C2851 1.403 . S
H2849 C2855 0.930 . S
C2850 H2836 0.930 . S
C2850 C2848 1.395 . S
C2850 C2853 1.403 . S
C2851 C2848 1.403 . S
C2851 C2852 1.524 . S
C2851 C2855 1.400 . S
C2852 H2837 0.960 . S
C2852 H2838 0.960 . S
C2852 H2839 0.960 . S
C2852 C2851 1.524 . S
C2853 C2850 1.403 . S
C2853 C2854 1.392 . S
C2853 C2857 1.495 . S
C2854 C2853 1.392 . S
C2854 C2855 1.385 . S
C2854 C2856 1.478 . S
C2855 H2849 0.930 . S
C2855 C2851 1.400 . S
C2855 C2854 1.385 . S
C2856 C2854 1.478 . S
C2856 C2858 1.381 . S
C2856 C2862 1.383 . S
C2857 C2853 1.495 . S
C2857 H2863 0.959 . S
C2857 H2864 0.961 . S
C2857 H2865 0.960 . S
C2858 C2856 1.381 . S
C2858 C2859 1.394 . S
C2858 H2866 0.930 . S
C2859 C2858 1.394 . S
C2859 C2860 1.383 . S
C2859 H2867 0.929 . S
C2860 C2859 1.383 . S
C2860 C2861 1.377 . S
C2861 H2845 0.930 1_545 S
C2861 C2860 1.377 . S
C2861 C2862 1.379 . S
C2862 H2846 0.931 1_545 S
C2862 C2856 1.383 . S
C2862 C2861 1.379 . S
H2863 C2857 0.959 . S
H2864 C2857 0.961 . S
H2865 C2857 0.960 . S
H2866 C2858 0.930 . S
H2867 C2859 0.929 . S
H2868 C2876 0.929 . S
H2869 C2878 0.930 . S
H2870 C2880 0.930 . S
H2871 C2883 0.929 . S
H2872 C2886 0.930 . S
H2873 C2888 0.960 . S
H2874 C2888 0.960 . S
H2875 C2888 0.960 . S
C2876 H2868 0.929 . S
C2876 C2877 1.377 . S
C2876 C2878 1.384 . S
C2877 C2876 1.377 . S
C2877 C2883 1.390 . S
C2878 H2869 0.930 . S
C2878 C2876 1.384 . S
C2878 C2879 1.372 . S
C2879 C2878 1.372 . S
C2879 C2880 1.400 . S
C2879 C2884 1.490 . S
C2880 H2870 0.930 . S
C2880 C2879 1.400 . S
C2880 C2883 1.386 . S
H2881 C2897 0.930 . S
H2882 C2898 0.931 . S
C2883 H2871 0.929 . S
C2883 C2877 1.390 . S
C2883 C2880 1.386 . S
C2884 C2879 1.490 . S
C2884 C2886 1.395 . S
C2884 C2887 1.403 . S
H2885 C2891 0.930 . S
C2886 H2872 0.930 . S
C2886 C2884 1.395 . S
C2886 C2889 1.403 . S
C2887 C2884 1.403 . S
C2887 C2888 1.524 . S
C2887 C2891 1.400 . S
C2888 H2873 0.960 . S
C2888 H2874 0.960 . S
C2888 H2875 0.960 . S
C2888 C2887 1.524 . S
C2889 C2886 1.403 . S
C2889 C2890 1.392 . S
C2889 C2893 1.495 . S
C2890 C2889 1.392 . S
C2890 C2891 1.385 . S
C2890 C2892 1.478 . S
C2891 H2885 0.930 . S
C2891 C2887 1.400 . S
C2891 C2890 1.385 . S
C2892 C2890 1.478 . S
C2892 C2894 1.381 . S
C2892 C2898 1.383 . S
C2893 C2889 1.495 . S
C2893 H2899 0.959 . S
C2893 H2900 0.961 . S
C2893 H2901 0.960 . S
C2894 C2892 1.381 . S
C2894 C2895 1.394 . S
C2894 H2902 0.930 . S
C2895 C2894 1.394 . S
C2895 C2896 1.383 . S
C2895 H2903 0.929 . S
C2896 C2895 1.383 . S
C2896 C2897 1.377 . S
C2897 H2881 0.930 . S
C2897 C2896 1.377 . S
C2897 C2898 1.379 . S
C2898 H2882 0.931 . S
C2898 C2892 1.383 . S
C2898 C2897 1.379 . S
H2899 C2893 0.959 . S
H2900 C2893 0.961 . S
H2901 C2893 0.960 . S
H2902 C2894 0.930 . S
H2903 C2895 0.929 . S
H2904 C2912 0.929 . S
H2905 C2914 0.956 . S
H2906 C2916 0.930 . S
H2907 C2919 0.929 . S
H2908 C2922 0.930 . S
H2909 C2924 0.960 . S
H2910 C2924 0.960 1_565 S
H2911 C2924 0.960 . S
C2912 H2904 0.929 . S
C2912 C2913 1.377 1_565 S
C2912 C2914 1.380 . S
C2913 C2912 1.377 1_545 S
C2913 C2919 1.390 . S
C2914 H2905 0.956 . S
C2914 C2912 1.380 . S
C2914 C2915 1.351 1_565 S
C2915 C2914 1.351 1_545 S
C2915 C2916 1.400 . S
C2915 C2920 1.490 . S
C2916 H2906 0.930 . S
C2916 C2915 1.400 . S
C2916 C2919 1.386 . S
H2917 C2933 0.930 . S
H2918 C2934 0.931 . S
C2919 H2907 0.929 . S
C2919 C2913 1.390 . S
C2919 C2916 1.386 . S
C2920 C2915 1.490 . S
C2920 C2922 1.395 . S
C2920 C2923 1.403 . S
H2921 C2927 0.930 . S
C2922 H2908 0.930 . S
C2922 C2920 1.395 . S
C2922 C2925 1.403 . S
C2923 C2920 1.403 . S
C2923 C2924 1.524 . S
C2923 C2927 1.400 . S
C2924 H2909 0.960 . S
C2924 H2910 0.960 1_545 S
C2924 H2911 0.960 . S
C2924 C2923 1.524 . S
C2925 C2922 1.403 . S
C2925 C2926 1.392 . S
C2925 C2929 1.495 . S
C2926 C2925 1.392 . S
C2926 C2927 1.385 . S
C2926 C2928 1.478 . S
C2927 H2921 0.930 . S
C2927 C2923 1.400 . S
C2927 C2926 1.385 . S
C2928 C2926 1.478 . S
C2928 C2930 1.381 . S
C2928 C2934 1.383 . S
C2929 C2925 1.495 . S
C2929 H2935 0.959 . S
C2929 H2936 0.961 . S
C2929 H2937 0.960 . S
C2930 C2928 1.381 . S
C2930 C2931 1.394 . S
C2930 H2938 0.930 1_545 S
C2931 C2930 1.394 . S
C2931 C2932 1.383 . S
C2931 H2939 0.926 . S
C2932 C2931 1.383 . S
C2932 C2933 1.377 . S
C2933 H2917 0.930 . S
C2933 C2932 1.377 . S
C2933 C2934 1.379 . S
C2934 H2918 0.931 . S
C2934 C2928 1.383 . S
C2934 C2933 1.379 . S
H2935 C2929 0.959 . S
H2936 C2929 0.961 . S
H2937 C2929 0.960 . S
H2938 C2930 0.930 1_565 S
H2939 C2931 0.926 . S
H2940 C2948 0.929 . S
H2941 C2950 0.930 . S
H2942 C2952 0.930 . S
H2943 C2955 0.929 . S
H2944 C2958 0.930 . S
H2945 C2960 0.960 . S
H2946 C2960 0.960 . S
H2947 C2960 0.960 . S
C2948 H2940 0.929 . S
C2948 C2949 1.377 . S
C2948 C2950 1.384 . S
C2949 C2948 1.377 . S
C2949 C2955 1.390 . S
C2950 H2941 0.930 . S
C2950 C2948 1.384 . S
C2950 C2951 1.372 . S
C2951 C2950 1.372 . S
C2951 C2952 1.400 . S
C2951 C2956 1.490 . S
C2952 H2942 0.930 . S
C2952 C2951 1.400 . S
C2952 C2955 1.386 . S
H2953 C2969 0.930 . S
H2954 C2970 0.931 . S
C2955 H2943 0.929 . S
C2955 C2949 1.390 . S
C2955 C2952 1.386 . S
C2956 C2951 1.490 . S
C2956 C2958 1.395 . S
C2956 C2959 1.403 . S
H2957 C2963 0.930 . S
C2958 H2944 0.930 . S
C2958 C2956 1.395 . S
C2958 C2961 1.403 . S
C2959 C2956 1.403 . S
C2959 C2960 1.524 . S
C2959 C2963 1.400 . S
C2960 H2945 0.960 . S
C2960 H2946 0.960 . S
C2960 H2947 0.960 . S
C2960 C2959 1.524 . S
C2961 C2958 1.403 . S
C2961 C2962 1.392 . S
C2961 C2965 1.495 . S
C2962 C2961 1.392 . S
C2962 C2963 1.385 . S
C2962 C2964 1.478 . S
C2963 H2957 0.930 . S
C2963 C2959 1.400 . S
C2963 C2962 1.385 . S
C2964 C2962 1.478 . S
C2964 C2966 1.381 . S
C2964 C2970 1.383 . S
C2965 C2961 1.495 . S
C2965 H2971 0.959 . S
C2965 H2972 0.961 . S
C2965 H2973 0.960 . S
C2966 C2964 1.381 . S
C2966 C2967 1.394 . S
C2966 H2974 0.930 . S
C2967 C2966 1.394 . S
C2967 C2968 1.383 . S
C2967 H2975 0.929 . S
C2968 C2967 1.383 . S
C2968 C2969 1.377 . S
C2969 H2953 0.930 . S
C2969 C2968 1.377 . S
C2969 C2970 1.379 . S
C2970 H2954 0.931 . S
C2970 C2964 1.383 . S
C2970 C2969 1.379 . S
H2971 C2965 0.959 . S
H2972 C2965 0.961 . S
H2973 C2965 0.960 . S
H2974 C2966 0.930 . S
H2975 C2967 0.929 . S
H2976 C2984 0.929 . S
H2977 C2986 0.930 . S
H2978 C2988 0.930 . S
H2979 C2991 0.929 . S
H2980 C2994 0.930 . S
H2981 C2996 0.960 1_565 S
H2982 C2996 0.960 1_565 S
H2983 C2996 0.960 . S
C2984 H2976 0.929 . S
C2984 C2985 1.377 . S
C2984 C2986 1.384 . S
C2985 C2984 1.377 . S
C2985 C2991 1.390 . S
C2986 H2977 0.930 . S
C2986 C2984 1.384 . S
C2986 C2987 1.372 . S
C2987 C2986 1.372 . S
C2987 C2988 1.400 . S
C2987 C2992 1.490 . S
C2988 H2978 0.930 . S
C2988 C2987 1.400 . S
C2988 C2991 1.386 . S
H2989 C3005 0.930 . S
H2990 C3006 0.931 . S
C2991 H2979 0.929 . S
C2991 C2985 1.390 . S
C2991 C2988 1.386 . S
C2992 C2987 1.490 . S
C2992 C2994 1.395 . S
C2992 C2995 1.403 . S
H2993 C2999 0.930 . S
C2994 H2980 0.930 . S
C2994 C2992 1.395 . S
C2994 C2997 1.403 . S
C2995 C2992 1.403 . S
C2995 C2996 1.524 . S
C2995 C2999 1.400 . S
C2996 H2981 0.960 1_545 S
C2996 H2982 0.960 1_545 S
C2996 H2983 0.960 . S
C2996 C2995 1.524 . S
C2997 C2994 1.403 . S
C2997 C2998 1.392 . S
C2997 C3001 1.495 . S
C2998 C2997 1.392 . S
C2998 C2999 1.385 . S
C2998 C3000 1.478 . S
C2999 H2993 0.930 . S
C2999 C2995 1.400 . S
C2999 C2998 1.385 . S
C3000 C2998 1.478 . S
C3000 C3002 1.381 . S
C3000 C3006 1.383 . S
C3001 C2997 1.495 . S
C3001 H3007 0.959 . S
C3001 H3008 0.961 . S
C3001 H3009 0.960 . S
C3002 C3000 1.381 . S
C3002 C3003 1.394 . S
C3002 H3010 0.930 . S
C3003 C3002 1.394 . S
C3003 C3004 1.383 . S
C3003 H3011 0.929 . S
C3004 C3003 1.383 . S
C3004 C3005 1.377 . S
C3005 H2989 0.930 . S
C3005 C3004 1.377 . S
C3005 C3006 1.379 . S
C3006 H2990 0.931 . S
C3006 C3000 1.383 . S
C3006 C3005 1.379 . S
H3007 C3001 0.959 . S
H3008 C3001 0.961 . S
H3009 C3001 0.960 . S
H3010 C3002 0.930 . S
H3011 C3003 0.929 . S
H3012 C3020 0.929 . S
H3013 C3022 0.930 . S
H3014 C3024 0.930 . S
H3015 C3027 0.929 . S
H3016 C3030 0.930 . S
H3017 C3032 0.960 . S
H3018 C3032 0.960 . S
H3019 C3032 0.960 . S
C3020 H3012 0.929 . S
C3020 C3021 1.377 . S
C3020 C3022 1.384 . S
C3021 C3020 1.377 . S
C3021 C3027 1.390 . S
C3022 H3013 0.930 . S
C3022 C3020 1.384 . S
C3022 C3023 1.372 . S
C3023 C3022 1.372 . S
C3023 C3024 1.400 . S
C3023 C3028 1.490 . S
C3024 H3014 0.930 . S
C3024 C3023 1.400 . S
C3024 C3027 1.386 . S
H3025 C3041 0.930 . S
H3026 C3042 0.931 . S
C3027 H3015 0.929 . S
C3027 C3021 1.390 . S
C3027 C3024 1.386 . S
C3028 C3023 1.490 . S
C3028 C3030 1.395 . S
C3028 C3031 1.403 . S
H3029 C3035 0.930 . S
C3030 H3016 0.930 . S
C3030 C3028 1.395 . S
C3030 C3033 1.403 . S
C3031 C3028 1.403 . S
C3031 C3032 1.524 . S
C3031 C3035 1.400 . S
C3032 H3017 0.960 . S
C3032 H3018 0.960 . S
C3032 H3019 0.960 . S
C3032 C3031 1.524 . S
C3033 C3030 1.403 . S
C3033 C3034 1.392 . S
C3033 C3037 1.495 . S
C3034 C3033 1.392 . S
C3034 C3035 1.385 . S
C3034 C3036 1.478 . S
C3035 H3029 0.930 . S
C3035 C3031 1.400 . S
C3035 C3034 1.385 . S
C3036 C3034 1.478 . S
C3036 C3038 1.381 . S
C3036 C3042 1.383 . S
C3037 C3033 1.495 . S
C3037 H3043 0.959 . S
C3037 H3044 0.961 . S
C3037 H3045 0.960 . S
C3038 C3036 1.381 . S
C3038 C3039 1.394 . S
C3038 H3046 0.930 . S
C3039 C3038 1.394 . S
C3039 C3040 1.383 . S
C3039 H3047 0.929 . S
C3040 C3039 1.383 . S
C3040 C3041 1.377 . S
C3041 H3025 0.930 . S
C3041 C3040 1.377 . S
C3041 C3042 1.379 . S
C3042 H3026 0.931 . S
C3042 C3036 1.383 . S
C3042 C3041 1.379 . S
H3043 C3037 0.959 . S
H3044 C3037 0.961 . S
H3045 C3037 0.960 . S
H3046 C3038 0.930 . S
H3047 C3039 0.929 . S
H3048 C3056 0.929 . S
H3049 C3058 0.930 . S
H3050 C3060 0.930 . S
H3051 C3063 0.929 . S
H3052 C3066 0.930 . S
H3053 C3068 0.960 . S
H3054 C3068 0.960 1_545 S
H3055 C3068 0.960 . S
C3056 H3048 0.929 . S
C3056 C3057 1.377 . S
C3056 C3058 1.384 . S
C3057 C3056 1.377 . S
C3057 C3063 1.390 1_545 S
C3058 H3049 0.930 . S
C3058 C3056 1.384 . S
C3058 C3059 1.372 . S
C3059 C3058 1.372 . S
C3059 C3060 1.400 1_545 S
C3059 C3064 1.490 . S
C3060 H3050 0.930 . S
C3060 C3059 1.400 1_565 S
C3060 C3063 1.386 . S
H3061 C3077 0.930 . S
H3062 C3078 0.931 . S
C3063 H3051 0.929 . S
C3063 C3057 1.390 1_565 S
C3063 C3060 1.386 . S
C3064 C3059 1.490 . S
C3064 C3066 1.395 . S
C3064 C3067 1.403 . S
H3065 C3071 0.930 1_565 S
C3066 H3052 0.930 . S
C3066 C3064 1.395 . S
C3066 C3069 1.403 . S
C3067 C3064 1.403 . S
C3067 C3068 1.524 1_545 S
C3067 C3071 1.400 . S
C3068 H3053 0.960 . S
C3068 H3054 0.960 1_565 S
C3068 H3055 0.960 . S
C3068 C3067 1.524 1_565 S
C3069 C3066 1.403 . S
C3069 C3070 1.392 . S
C3069 C3073 1.495 . S
C3070 C3069 1.392 . S
C3070 C3071 1.385 . S
C3070 C3072 1.478 . S
C3071 H3065 0.930 1_545 S
C3071 C3067 1.400 . S
C3071 C3070 1.385 . S
C3072 C3070 1.478 . S
C3072 C3074 1.381 . S
C3072 C3078 1.383 1_545 S
C3073 C3069 1.495 . S
C3073 H3079 0.959 . S
C3073 H3080 0.961 . S
C3073 H3081 0.960 . S
C3074 C3072 1.381 . S
C3074 C3075 1.394 . S
C3074 H3082 0.930 . S
C3075 C3074 1.394 . S
C3075 C3076 1.383 . S
C3075 H3083 0.929 . S
C3076 C3075 1.383 . S
C3076 C3077 1.377 1_545 S
C3077 H3061 0.930 . S
C3077 C3076 1.377 1_565 S
C3077 C3078 1.379 . S
C3078 H3062 0.931 . S
C3078 C3072 1.383 1_565 S
C3078 C3077 1.379 . S
H3079 C3073 0.959 . S
H3080 C3073 0.961 . S
H3081 C3073 0.960 . S
H3082 C3074 0.930 . S
H3083 C3075 0.929 . S
H3084 C3092 0.929 . S
H3085 C3094 0.930 . S
H3086 C3096 0.930 . S
H3087 C3099 0.929 . S
H3088 C3102 0.930 . S
H3089 C3104 0.960 . S
H3090 C3104 0.960 . S
H3091 C3104 0.960 . S
C3092 H3084 0.929 . S
C3092 C3093 1.377 . S
C3092 C3094 1.384 . S
C3093 C3092 1.377 . S
C3093 C3099 1.390 . S
C3094 H3085 0.930 . S
C3094 C3092 1.384 . S
C3094 C3095 1.372 . S
C3095 C3094 1.372 . S
C3095 C3096 1.400 . S
C3095 C3100 1.490 . S
C3096 H3086 0.930 . S
C3096 C3095 1.400 . S
C3096 C3099 1.386 . S
H3097 C3113 0.930 . S
H3098 C3114 0.931 . S
C3099 H3087 0.929 . S
C3099 C3093 1.390 . S
C3099 C3096 1.386 . S
C3100 C3095 1.490 . S
C3100 C3102 1.395 . S
C3100 C3103 1.403 . S
H3101 C3107 0.930 . S
C3102 H3088 0.930 . S
C3102 C3100 1.395 . S
C3102 C3105 1.403 . S
C3103 C3100 1.403 . S
C3103 C3104 1.524 . S
C3103 C3107 1.400 . S
C3104 H3089 0.960 . S
C3104 H3090 0.960 . S
C3104 H3091 0.960 . S
C3104 C3103 1.524 . S
C3105 C3102 1.403 . S
C3105 C3106 1.392 . S
C3105 C3109 1.495 . S
C3106 C3105 1.392 . S
C3106 C3107 1.385 . S
C3106 C3108 1.478 . S
C3107 H3101 0.930 . S
C3107 C3103 1.400 . S
C3107 C3106 1.385 . S
C3108 C3106 1.478 . S
C3108 C3110 1.381 . S
C3108 C3114 1.383 . S
C3109 C3105 1.495 . S
C3109 H3115 0.959 . S
C3109 H3116 0.961 . S
C3109 H3117 0.960 . S
C3110 C3108 1.381 . S
C3110 C3111 1.394 . S
C3110 H3118 0.930 . S
C3111 C3110 1.394 . S
C3111 C3112 1.383 . S
C3111 H3119 0.929 . S
C3112 C3111 1.383 . S
C3112 C3113 1.377 . S
C3113 H3097 0.930 . S
C3113 C3112 1.377 . S
C3113 C3114 1.379 . S
C3114 H3098 0.931 . S
C3114 C3108 1.383 . S
C3114 C3113 1.379 . S
H3115 C3109 0.959 . S
H3116 C3109 0.961 . S
H3117 C3109 0.960 . S
H3118 C3110 0.930 . S
H3119 C3111 0.929 . S
H3120 C3128 0.929 . S
H3121 C3130 0.930 . S
H3122 C3132 0.930 . S
H3123 C3135 0.929 . S
H3124 C3138 0.930 . S
H3125 C3140 0.960 . S
H3126 C3140 0.960 . S
H3127 C3140 0.960 . S
C3128 H3120 0.929 . S
C3128 C3129 1.377 . S
C3128 C3130 1.384 . S
C3129 C3128 1.377 . S
C3129 C3135 1.390 . S
C3130 H3121 0.930 . S
C3130 C3128 1.384 . S
C3130 C3131 1.372 . S
C3131 C3130 1.372 . S
C3131 C3132 1.400 . S
C3131 C3136 1.490 . S
C3132 H3122 0.930 . S
C3132 C3131 1.400 . S
C3132 C3135 1.386 . S
H3133 C3149 0.930 1_556 S
H3134 C3150 0.931 . S
C3135 H3123 0.929 . S
C3135 C3129 1.390 . S
C3135 C3132 1.386 . S
C3136 C3131 1.490 . S
C3136 C3138 1.395 . S
C3136 C3139 1.403 . S
H3137 C3143 0.930 . S
C3138 H3124 0.930 . S
C3138 C3136 1.395 . S
C3138 C3141 1.403 . S
C3139 C3136 1.403 . S
C3139 C3140 1.524 . S
C3139 C3143 1.400 . S
C3140 H3125 0.960 . S
C3140 H3126 0.960 . S
C3140 H3127 0.960 . S
C3140 C3139 1.524 . S
C3141 C3138 1.403 . S
C3141 C3142 1.392 . S
C3141 C3145 1.495 . S
C3142 C3141 1.392 . S
C3142 C3143 1.385 . S
C3142 C3144 1.478 . S
C3143 H3137 0.930 . S
C3143 C3139 1.400 . S
C3143 C3142 1.385 . S
C3144 C3142 1.478 . S
C3144 C3146 1.381 . S
C3144 C3150 1.383 . S
C3145 C3141 1.495 . S
C3145 H3151 0.959 . S
C3145 H3152 0.961 . S
C3145 H3153 0.960 . S
C3146 C3144 1.381 . S
C3146 C3147 1.394 . S
C3146 H3154 0.930 . S
C3147 C3146 1.394 . S
C3147 C3148 1.383 . S
C3147 H3155 0.929 . S
C3148 C3147 1.383 . S
C3148 C3149 1.377 . S
C3149 H3133 0.930 1_554 S
C3149 C3148 1.377 . S
C3149 C3150 1.379 . S
C3150 H3134 0.931 . S
C3150 C3144 1.383 . S
C3150 C3149 1.379 . S
H3151 C3145 0.959 . S
H3152 C3145 0.961 . S
H3153 C3145 0.960 . S
H3154 C3146 0.930 . S
H3155 C3147 0.929 . S
H3156 C3164 0.929 . S
H3157 C3166 0.930 . S
H3158 C3168 0.930 . S
H3159 C3171 0.929 . S
H3160 C3174 0.930 . S
H3161 C3176 0.960 . S
H3162 C3176 0.960 . S
H3163 C3176 0.960 . S
C3164 H3156 0.929 . S
C3164 C3165 1.377 . S
C3164 C3166 1.384 . S
C3165 C3164 1.377 . S
C3165 C3171 1.390 . S
C3166 H3157 0.930 . S
C3166 C3164 1.384 . S
C3166 C3167 1.372 . S
C3167 C3166 1.372 . S
C3167 C3168 1.400 . S
C3167 C3172 1.490 . S
C3168 H3158 0.930 . S
C3168 C3167 1.400 . S
C3168 C3171 1.386 . S
H3169 C3185 0.930 . S
H3170 C3186 0.931 . S
C3171 H3159 0.929 . S
C3171 C3165 1.390 . S
C3171 C3168 1.386 . S
C3172 C3167 1.490 . S
C3172 C3174 1.395 . S
C3172 C3175 1.403 . S
H3173 C3179 0.930 . S
C3174 H3160 0.930 . S
C3174 C3172 1.395 . S
C3174 C3177 1.403 . S
C3175 C3172 1.403 . S
C3175 C3176 1.524 . S
C3175 C3179 1.400 . S
C3176 H3161 0.960 . S
C3176 H3162 0.960 . S
C3176 H3163 0.960 . S
C3176 C3175 1.524 . S
C3177 C3174 1.403 . S
C3177 C3178 1.392 . S
C3177 C3181 1.495 . S
C3178 C3177 1.392 . S
C3178 C3179 1.385 . S
C3178 C3180 1.478 . S
C3179 H3173 0.930 . S
C3179 C3175 1.400 . S
C3179 C3178 1.385 . S
C3180 C3178 1.478 . S
C3180 C3182 1.381 . S
C3180 C3186 1.383 . S
C3181 C3177 1.495 . S
C3181 H3187 0.959 . S
C3181 H3188 0.961 . S
C3181 H3189 0.960 . S
C3182 C3180 1.381 . S
C3182 C3183 1.394 . S
C3182 H3190 0.930 . S
C3183 C3182 1.394 . S
C3183 C3184 1.383 . S
C3183 H3191 0.929 . S
C3184 C3183 1.383 . S
C3184 C3185 1.377 . S
C3185 H3169 0.930 . S
C3185 C3184 1.377 . S
C3185 C3186 1.379 . S
C3186 H3170 0.931 . S
C3186 C3180 1.383 . S
C3186 C3185 1.379 . S
H3187 C3181 0.959 . S
H3188 C3181 0.961 . S
H3189 C3181 0.960 . S
H3190 C3182 0.930 . S
H3191 C3183 0.929 . S
H3192 C3200 0.929 . S
H3193 C3202 0.930 . S
H3194 C3204 0.930 . S
H3195 C3207 0.929 . S
H3196 C3210 0.930 . S
H3197 C3212 0.960 . S
H3198 C3212 0.960 . S
H3199 C3212 0.960 . S
C3200 H3192 0.929 . S
C3200 C3201 1.377 . S
C3200 C3202 1.384 . S
C3201 C3200 1.377 . S
C3201 C3207 1.390 . S
C3202 H3193 0.930 . S
C3202 C3200 1.384 . S
C3202 C3203 1.372 . S
C3203 C3202 1.372 . S
C3203 C3204 1.400 . S
C3203 C3208 1.490 . S
C3204 H3194 0.930 . S
C3204 C3203 1.400 . S
C3204 C3207 1.386 . S
H3205 C3221 0.930 . S
H3206 C3222 0.931 . S
C3207 H3195 0.929 . S
C3207 C3201 1.390 . S
C3207 C3204 1.386 . S
C3208 C3203 1.490 . S
C3208 C3210 1.395 . S
C3208 C3211 1.403 . S
H3209 C3215 0.930 . S
C3210 H3196 0.930 . S
C3210 C3208 1.395 . S
C3210 C3213 1.403 . S
C3211 C3208 1.403 . S
C3211 C3212 1.524 . S
C3211 C3215 1.400 . S
C3212 H3197 0.960 . S
C3212 H3198 0.960 . S
C3212 H3199 0.960 . S
C3212 C3211 1.524 . S
C3213 C3210 1.403 . S
C3213 C3214 1.392 . S
C3213 C3217 1.495 . S
C3214 C3213 1.392 . S
C3214 C3215 1.385 . S
C3214 C3216 1.478 . S
C3215 H3209 0.930 . S
C3215 C3211 1.400 . S
C3215 C3214 1.385 . S
C3216 C3214 1.478 . S
C3216 C3218 1.381 . S
C3216 C3222 1.383 . S
C3217 C3213 1.495 . S
C3217 H3223 0.959 . S
C3217 H3224 0.961 . S
C3217 H3225 0.960 . S
C3218 C3216 1.381 . S
C3218 C3219 1.394 . S
C3218 H3226 0.930 . S
C3219 C3218 1.394 . S
C3219 C3220 1.383 . S
C3219 H3227 0.929 . S
C3220 C3219 1.383 . S
C3220 C3221 1.377 . S
C3221 H3205 0.930 . S
C3221 C3220 1.377 . S
C3221 C3222 1.379 . S
C3222 H3206 0.931 . S
C3222 C3216 1.383 . S
C3222 C3221 1.379 . S
H3223 C3217 0.959 . S
H3224 C3217 0.961 . S
H3225 C3217 0.960 . S
H3226 C3218 0.930 . S
H3227 C3219 0.929 . S
H3228 C3236 0.929 . S
H3229 C3238 0.930 . S
H3230 C3240 0.930 . S
H3231 C3243 0.929 . S
H3232 C3246 0.930 . S
H3233 C3248 0.960 . S
H3234 C3248 0.960 . S
H3235 C3248 0.960 . S
C3236 H3228 0.929 . S
C3236 C3237 1.377 . S
C3236 C3238 1.384 . S
C3237 C3236 1.377 . S
C3237 C3243 1.390 . S
C3238 H3229 0.930 . S
C3238 C3236 1.384 . S
C3238 C3239 1.372 . S
C3239 C3238 1.372 . S
C3239 C3240 1.400 . S
C3239 C3244 1.490 . S
C3240 H3230 0.930 . S
C3240 C3239 1.400 . S
C3240 C3243 1.386 . S
H3241 C3257 0.930 . S
H3242 C3258 0.931 . S
C3243 H3231 0.929 . S
C3243 C3237 1.390 . S
C3243 C3240 1.386 . S
C3244 C3239 1.490 . S
C3244 C3246 1.395 . S
C3244 C3247 1.403 . S
H3245 C3251 0.930 . S
C3246 H3232 0.930 . S
C3246 C3244 1.395 . S
C3246 C3249 1.403 . S
C3247 C3244 1.403 . S
C3247 C3248 1.524 . S
C3247 C3251 1.400 . S
C3248 H3233 0.960 . S
C3248 H3234 0.960 . S
C3248 H3235 0.960 . S
C3248 C3247 1.524 . S
C3249 C3246 1.403 . S
C3249 C3250 1.392 . S
C3249 C3253 1.495 . S
C3250 C3249 1.392 . S
C3250 C3251 1.385 . S
C3250 C3252 1.478 . S
C3251 H3245 0.930 . S
C3251 C3247 1.400 . S
C3251 C3250 1.385 . S
C3252 C3250 1.478 . S
C3252 C3254 1.381 . S
C3252 C3258 1.383 . S
C3253 C3249 1.495 . S
C3253 H3259 0.959 . S
C3253 H3260 0.961 . S
C3253 H3261 0.960 . S
C3254 C3252 1.381 . S
C3254 C3255 1.394 . S
C3254 H3262 0.930 . S
C3255 C3254 1.394 . S
C3255 C3256 1.383 . S
C3255 H3263 0.929 . S
C3256 C3255 1.383 . S
C3256 C3257 1.377 . S
C3257 H3241 0.930 . S
C3257 C3256 1.377 . S
C3257 C3258 1.379 . S
C3258 H3242 0.931 . S
C3258 C3252 1.383 . S
C3258 C3257 1.379 . S
H3259 C3253 0.959 . S
H3260 C3253 0.961 . S
H3261 C3253 0.960 . S
H3262 C3254 0.930 . S
H3263 C3255 0.929 . S
H3264 C3272 0.929 . S
H3265 C3274 0.930 . S
H3266 C3276 0.930 . S
H3267 C3279 0.929 . S
H3268 C3282 0.930 . S
H3269 C3284 0.960 . S
H3270 C3284 0.960 . S
H3271 C3284 0.960 . S
C3272 H3264 0.929 . S
C3272 C3273 1.377 . S
C3272 C3274 1.384 . S
C3273 C3272 1.377 . S
C3273 C3279 1.390 . S
C3274 H3265 0.930 . S
C3274 C3272 1.384 . S
C3274 C3275 1.372 . S
C3275 C3274 1.372 . S
C3275 C3276 1.400 . S
C3275 C3280 1.490 . S
C3276 H3266 0.930 . S
C3276 C3275 1.400 . S
C3276 C3279 1.386 . S
H3277 C3293 0.930 . S
H3278 C3294 0.931 . S
C3279 H3267 0.929 . S
C3279 C3273 1.390 . S
C3279 C3276 1.386 . S
C3280 C3275 1.490 . S
C3280 C3282 1.395 . S
C3280 C3283 1.403 . S
H3281 C3287 0.930 . S
C3282 H3268 0.930 . S
C3282 C3280 1.395 . S
C3282 C3285 1.403 . S
C3283 C3280 1.403 . S
C3283 C3284 1.524 . S
C3283 C3287 1.400 . S
C3284 H3269 0.960 . S
C3284 H3270 0.960 . S
C3284 H3271 0.960 . S
C3284 C3283 1.524 . S
C3285 C3282 1.403 . S
C3285 C3286 1.392 . S
C3285 C3289 1.495 . S
C3286 C3285 1.392 . S
C3286 C3287 1.385 . S
C3286 C3288 1.478 . S
C3287 H3281 0.930 . S
C3287 C3283 1.400 . S
C3287 C3286 1.385 . S
C3288 C3286 1.478 . S
C3288 C3290 1.381 . S
C3288 C3294 1.383 . S
C3289 C3285 1.495 . S
C3289 H3295 0.959 . S
C3289 H3296 0.961 . S
C3289 H3297 0.960 . S
C3290 C3288 1.381 . S
C3290 C3291 1.394 . S
C3290 H3298 0.930 . S
C3291 C3290 1.394 . S
C3291 C3292 1.383 . S
C3291 H3299 0.929 . S
C3292 C3291 1.383 . S
C3292 C3293 1.377 . S
C3293 H3277 0.930 . S
C3293 C3292 1.377 . S
C3293 C3294 1.379 . S
C3294 H3278 0.931 . S
C3294 C3288 1.383 . S
C3294 C3293 1.379 . S
H3295 C3289 0.959 . S
H3296 C3289 0.961 . S
H3297 C3289 0.960 . S
H3298 C3290 0.930 . S
H3299 C3291 0.929 . S
H3300 C3308 0.929 . S
H3301 C3310 0.930 . S
H3302 C3312 0.930 . S
H3303 C3315 0.929 . S
H3304 C3318 0.930 . S
H3305 C3320 0.960 . S
H3306 C3320 0.960 . S
H3307 C3320 0.960 . S
C3308 H3300 0.929 . S
C3308 C3309 1.377 . S
C3308 C3310 1.384 . S
C3309 C3308 1.377 . S
C3309 C3315 1.390 . S
C3310 H3301 0.930 . S
C3310 C3308 1.384 . S
C3310 C3311 1.372 . S
C3311 C3310 1.372 . S
C3311 C3312 1.400 . S
C3311 C3316 1.490 . S
C3312 H3302 0.930 . S
C3312 C3311 1.400 . S
C3312 C3315 1.386 . S
H3313 C3329 0.930 . S
H3314 C3330 0.931 . S
C3315 H3303 0.929 . S
C3315 C3309 1.390 . S
C3315 C3312 1.386 . S
C3316 C3311 1.490 . S
C3316 C3318 1.395 . S
C3316 C3319 1.403 . S
H3317 C3323 0.930 . S
C3318 H3304 0.930 . S
C3318 C3316 1.395 . S
C3318 C3321 1.403 . S
C3319 C3316 1.403 . S
C3319 C3320 1.524 . S
C3319 C3323 1.400 . S
C3320 H3305 0.960 . S
C3320 H3306 0.960 . S
C3320 H3307 0.960 . S
C3320 C3319 1.524 . S
C3321 C3318 1.403 . S
C3321 C3322 1.392 . S
C3321 C3325 1.495 . S
C3322 C3321 1.392 . S
C3322 C3323 1.385 . S
C3322 C3324 1.478 . S
C3323 H3317 0.930 . S
C3323 C3319 1.400 . S
C3323 C3322 1.385 . S
C3324 C3322 1.478 . S
C3324 C3326 1.381 . S
C3324 C3330 1.383 . S
C3325 C3321 1.495 . S
C3325 H3331 0.959 . S
C3325 H3332 0.961 . S
C3325 H3333 0.960 . S
C3326 C3324 1.381 . S
C3326 C3327 1.394 . S
C3326 H3334 0.930 . S
C3327 C3326 1.394 . S
C3327 C3328 1.383 . S
C3327 H3335 0.929 . S
C3328 C3327 1.383 . S
C3328 C3329 1.377 . S
C3329 H3313 0.930 . S
C3329 C3328 1.377 . S
C3329 C3330 1.379 . S
C3330 H3314 0.931 . S
C3330 C3324 1.383 . S
C3330 C3329 1.379 . S
H3331 C3325 0.959 . S
H3332 C3325 0.961 . S
H3333 C3325 0.960 . S
H3334 C3326 0.930 . S
H3335 C3327 0.929 . S
H3336 C3344 0.929 . S
H3337 C3346 0.930 . S
H3338 C3348 0.930 . S
H3339 C3351 0.929 . S
H3340 C3354 0.930 . S
H3341 C3356 0.960 . S
H3342 C3356 0.960 . S
H3343 C3356 0.960 . S
C3344 H3336 0.929 . S
C3344 C3345 1.377 . S
C3344 C3346 1.384 . S
C3345 C3344 1.377 . S
C3345 C3351 1.390 . S
C3346 H3337 0.930 . S
C3346 C3344 1.384 . S
C3346 C3347 1.372 . S
C3347 C3346 1.372 . S
C3347 C3348 1.400 . S
C3347 C3352 1.490 . S
C3348 H3338 0.930 . S
C3348 C3347 1.400 . S
C3348 C3351 1.386 . S
H3349 C3365 0.930 . S
H3350 C3366 0.931 . S
C3351 H3339 0.929 . S
C3351 C3345 1.390 . S
C3351 C3348 1.386 . S
C3352 C3347 1.490 . S
C3352 C3354 1.395 . S
C3352 C3355 1.403 . S
H3353 C3359 0.930 . S
C3354 H3340 0.930 . S
C3354 C3352 1.395 . S
C3354 C3357 1.403 . S
C3355 C3352 1.403 . S
C3355 C3356 1.524 . S
C3355 C3359 1.400 . S
C3356 H3341 0.960 . S
C3356 H3342 0.960 . S
C3356 H3343 0.960 . S
C3356 C3355 1.524 . S
C3357 C3354 1.403 . S
C3357 C3358 1.392 . S
C3357 C3361 1.495 . S
C3358 C3357 1.392 . S
C3358 C3359 1.385 . S
C3358 C3360 1.478 . S
C3359 H3353 0.930 . S
C3359 C3355 1.400 . S
C3359 C3358 1.385 . S
C3360 C3358 1.478 . S
C3360 C3362 1.381 . S
C3360 C3366 1.383 . S
C3361 C3357 1.495 . S
C3361 H3367 0.959 . S
C3361 H3368 0.961 . S
C3361 H3369 0.960 . S
C3362 C3360 1.381 . S
C3362 C3363 1.394 . S
C3362 H3370 0.930 . S
C3363 C3362 1.394 . S
C3363 C3364 1.383 . S
C3363 H3371 0.929 . S
C3364 C3363 1.383 . S
C3364 C3365 1.377 . S
C3365 H3349 0.930 . S
C3365 C3364 1.377 . S
C3365 C3366 1.379 . S
C3366 H3350 0.931 . S
C3366 C3360 1.383 . S
C3366 C3365 1.379 . S
H3367 C3361 0.959 . S
H3368 C3361 0.961 . S
H3369 C3361 0.960 . S
H3370 C3362 0.930 . S
H3371 C3363 0.929 . S
H3372 C3380 0.929 . S
H3373 C3382 0.930 . S
H3374 C3384 0.930 . S
H3375 C3387 0.929 . S
H3376 C3390 0.930 . S
H3377 C3392 0.960 . S
H3378 C3392 0.960 . S
H3379 C3392 0.960 . S
C3380 H3372 0.929 . S
C3380 C3381 1.377 . S
C3380 C3382 1.384 . S
C3381 C3380 1.377 . S
C3381 C3387 1.390 . S
C3382 H3373 0.930 . S
C3382 C3380 1.384 . S
C3382 C3383 1.372 . S
C3383 C3382 1.372 . S
C3383 C3384 1.400 . S
C3383 C3388 1.490 . S
C3384 H3374 0.930 . S
C3384 C3383 1.400 . S
C3384 C3387 1.386 . S
H3385 C3401 0.930 . S
H3386 C3402 0.931 . S
C3387 H3375 0.929 . S
C3387 C3381 1.390 . S
C3387 C3384 1.386 . S
C3388 C3383 1.490 . S
C3388 C3390 1.395 . S
C3388 C3391 1.403 . S
H3389 C3395 0.930 . S
C3390 H3376 0.930 . S
C3390 C3388 1.395 . S
C3390 C3393 1.403 . S
C3391 C3388 1.403 . S
C3391 C3392 1.524 . S
C3391 C3395 1.400 . S
C3392 H3377 0.960 . S
C3392 H3378 0.960 . S
C3392 H3379 0.960 . S
C3392 C3391 1.524 . S
C3393 C3390 1.403 . S
C3393 C3394 1.392 . S
C3393 C3397 1.495 . S
C3394 C3393 1.392 . S
C3394 C3395 1.385 . S
C3394 C3396 1.478 . S
C3395 H3389 0.930 . S
C3395 C3391 1.400 . S
C3395 C3394 1.385 . S
C3396 C3394 1.478 . S
C3396 C3398 1.381 . S
C3396 C3402 1.383 . S
C3397 C3393 1.495 . S
C3397 H3403 0.959 . S
C3397 H3404 0.961 . S
C3397 H3405 0.960 . S
C3398 C3396 1.381 . S
C3398 C3399 1.394 . S
C3398 H3406 0.930 . S
C3399 C3398 1.394 . S
C3399 C3400 1.383 . S
C3399 H3407 0.929 . S
C3400 C3399 1.383 . S
C3400 C3401 1.377 . S
C3401 H3385 0.930 . S
C3401 C3400 1.377 . S
C3401 C3402 1.379 . S
C3402 H3386 0.931 . S
C3402 C3396 1.383 . S
C3402 C3401 1.379 . S
H3403 C3397 0.959 . S
H3404 C3397 0.961 . S
H3405 C3397 0.960 . S
H3406 C3398 0.930 . S
H3407 C3399 0.929 . S
H3408 C3416 0.929 . S
H3409 C3418 0.930 . S
H3410 C3420 0.930 . S
H3411 C3423 0.929 . S
H3412 C3426 0.930 . S
H3413 C3428 0.960 . S
H3414 C3428 0.960 . S
H3415 C3428 0.960 . S
C3416 H3408 0.929 . S
C3416 C3417 1.377 . S
C3416 C3418 1.384 . S
C3417 C3416 1.377 . S
C3417 C3423 1.390 . S
C3418 H3409 0.930 . S
C3418 C3416 1.384 . S
C3418 C3419 1.372 . S
C3419 C3418 1.372 . S
C3419 C3420 1.400 . S
C3419 C3424 1.490 . S
C3420 H3410 0.930 . S
C3420 C3419 1.400 . S
C3420 C3423 1.386 . S
H3421 C3437 0.930 . S
H3422 C3438 0.931 . S
C3423 H3411 0.929 . S
C3423 C3417 1.390 . S
C3423 C3420 1.386 . S
C3424 C3419 1.490 . S
C3424 C3426 1.395 . S
C3424 C3427 1.403 . S
H3425 C3431 0.930 . S
C3426 H3412 0.930 . S
C3426 C3424 1.395 . S
C3426 C3429 1.403 . S
C3427 C3424 1.403 . S
C3427 C3428 1.524 . S
C3427 C3431 1.400 . S
C3428 H3413 0.960 . S
C3428 H3414 0.960 . S
C3428 H3415 0.960 . S
C3428 C3427 1.524 . S
C3429 C3426 1.403 . S
C3429 C3430 1.392 . S
C3429 C3433 1.495 . S
C3430 C3429 1.392 . S
C3430 C3431 1.385 . S
C3430 C3432 1.478 . S
C3431 H3425 0.930 . S
C3431 C3427 1.400 . S
C3431 C3430 1.385 . S
C3432 C3430 1.478 . S
C3432 C3434 1.381 . S
C3432 C3438 1.383 . S
C3433 C3429 1.495 . S
C3433 H3439 0.959 . S
C3433 H3440 0.961 . S
C3433 H3441 0.960 . S
C3434 C3432 1.381 . S
C3434 C3435 1.394 . S
C3434 H3442 0.930 . S
C3435 C3434 1.394 . S
C3435 C3436 1.383 . S
C3435 H3443 0.929 . S
C3436 C3435 1.383 . S
C3436 C3437 1.377 . S
C3437 H3421 0.930 . S
C3437 C3436 1.377 . S
C3437 C3438 1.379 . S
C3438 H3422 0.931 . S
C3438 C3432 1.383 . S
C3438 C3437 1.379 . S
H3439 C3433 0.959 . S
H3440 C3433 0.961 . S
H3441 C3433 0.960 . S
H3442 C3434 0.930 . S
H3443 C3435 0.929 . S
H3444 C3452 0.929 . S
H3445 C3454 0.930 . S
H3446 C3456 0.930 . S
H3447 C3459 0.929 . S
H3448 C3462 0.930 . S
H3449 C3464 0.960 . S
H3450 C3464 0.960 . S
H3451 C3464 0.960 . S
C3452 H3444 0.929 . S
C3452 C3453 1.377 . S
C3452 C3454 1.384 . S
C3453 C3452 1.377 . S
C3453 C3459 1.390 . S
C3454 H3445 0.930 . S
C3454 C3452 1.384 . S
C3454 C3455 1.372 . S
C3455 C3454 1.372 . S
C3455 C3456 1.400 . S
C3455 C3460 1.490 . S
C3456 H3446 0.930 . S
C3456 C3455 1.400 . S
C3456 C3459 1.386 . S
H3457 C3473 0.930 . S
H3458 C3474 0.931 . S
C3459 H3447 0.929 . S
C3459 C3453 1.390 . S
C3459 C3456 1.386 . S
C3460 C3455 1.490 . S
C3460 C3462 1.395 . S
C3460 C3463 1.403 . S
H3461 C3467 0.930 . S
C3462 H3448 0.930 . S
C3462 C3460 1.395 . S
C3462 C3465 1.403 . S
C3463 C3460 1.403 . S
C3463 C3464 1.524 . S
C3463 C3467 1.400 . S
C3464 H3449 0.960 . S
C3464 H3450 0.960 . S
C3464 H3451 0.960 . S
C3464 C3463 1.524 . S
C3465 C3462 1.403 . S
C3465 C3466 1.392 . S
C3465 C3469 1.495 . S
C3466 C3465 1.392 . S
C3466 C3467 1.385 . S
C3466 C3468 1.478 . S
C3467 H3461 0.930 . S
C3467 C3463 1.400 . S
C3467 C3466 1.385 . S
C3468 C3466 1.478 . S
C3468 C3470 1.381 . S
C3468 C3474 1.383 . S
C3469 C3465 1.495 . S
C3469 H3475 0.959 . S
C3469 H3476 0.961 . S
C3469 H3477 0.960 . S
C3470 C3468 1.381 . S
C3470 C3471 1.394 . S
C3470 H3478 0.930 . S
C3471 C3470 1.394 . S
C3471 C3472 1.383 . S
C3471 H3479 0.929 . S
C3472 C3471 1.383 . S
C3472 C3473 1.377 . S
C3473 H3457 0.930 . S
C3473 C3472 1.377 . S
C3473 C3474 1.379 . S
C3474 H3458 0.931 . S
C3474 C3468 1.383 . S
C3474 C3473 1.379 . S
H3475 C3469 0.959 . S
H3476 C3469 0.961 . S
H3477 C3469 0.960 . S
H3478 C3470 0.930 . S
H3479 C3471 0.929 . S
H3480 C3488 0.929 . S
H3481 C3490 0.930 . S
H3482 C3492 0.930 . S
H3483 C3495 0.929 . S
H3484 C3498 0.930 . S
H3485 C3500 0.960 . S
H3486 C3500 0.943 1_554 S
H3487 C3500 0.960 . S
C3488 H3480 0.929 . S
C3488 C3489 1.377 . S
C3488 C3490 1.384 . S
C3489 C3488 1.377 . S
C3489 C3495 1.390 1_455 S
C3490 H3481 0.930 . S
C3490 C3488 1.384 . S
C3490 C3491 1.372 . S
C3491 C3490 1.372 . S
C3491 C3492 1.400 1_455 S
C3491 C3496 1.490 . S
C3492 H3482 0.930 . S
C3492 C3491 1.400 1_655 S
C3492 C3495 1.386 . S
H3493 C3509 0.886 1_655 S
H3494 C3510 0.931 1_655 S
C3495 H3483 0.929 . S
C3495 C3489 1.390 1_655 S
C3495 C3492 1.386 . S
C3496 C3491 1.490 . S
C3496 C3498 1.395 . S
C3496 C3499 1.403 1_455 S
H3497 C3503 0.922 1_655 S
C3498 H3484 0.930 . S
C3498 C3496 1.395 . S
C3498 C3501 1.403 . S
C3499 C3496 1.403 1_655 S
C3499 C3500 1.524 . S
C3499 C3503 1.400 1_655 S
C3500 H3485 0.960 . S
C3500 H3486 0.943 1_556 S
C3500 H3487 0.960 . S
C3500 C3499 1.524 . S
C3501 C3498 1.403 . S
C3501 C3502 1.392 . S
C3501 C3505 1.495 . S
C3502 C3501 1.392 . S
C3502 C3503 1.393 . S
C3502 C3504 1.478 . S
C3503 H3497 0.922 1_455 S
C3503 C3499 1.400 1_455 S
C3503 C3502 1.393 . S
C3504 C3502 1.478 . S
C3504 C3506 1.381 1_556 S
C3504 C3510 1.383 . S
C3505 C3501 1.495 . S
C3505 H3511 0.959 . S
C3505 H3512 0.961 . S
C3505 H3513 0.960 . S
C3506 C3504 1.381 1_554 S
C3506 C3507 1.394 . S
C3506 H3514 0.930 . S
C3507 C3506 1.394 . S
C3507 C3508 1.383 . S
C3507 H3515 0.929 . S
C3508 C3507 1.383 . S
C3508 C3509 1.377 1_554 S
C3509 H3493 0.886 1_455 S
C3509 C3508 1.377 1_556 S
C3509 C3510 1.379 . S
C3510 H3494 0.931 1_455 S
C3510 C3504 1.383 . S
C3510 C3509 1.379 . S
H3511 C3505 0.959 . S
H3512 C3505 0.961 . S
H3513 C3505 0.960 . S
H3514 C3506 0.930 . S
H3515 C3507 0.929 . S
H3516 C3524 0.929 . S
H3517 C3526 0.930 . S
H3518 C3528 0.930 . S
H3519 C3531 0.929 . S
H3520 C3534 0.930 . S
H3521 C3536 0.960 . S
H3522 C3536 0.960 . S
H3523 C3536 0.960 . S
C3524 H3516 0.929 . S
C3524 C3525 1.377 . S
C3524 C3526 1.384 . S
C3525 C3524 1.377 . S
C3525 C3531 1.390 . S
C3526 H3517 0.930 . S
C3526 C3524 1.384 . S
C3526 C3527 1.372 . S
C3527 C3526 1.372 . S
C3527 C3528 1.400 . S
C3527 C3532 1.490 . S
C3528 H3518 0.930 . S
C3528 C3527 1.400 . S
C3528 C3531 1.386 . S
H3529 C3545 0.930 . S
H3530 C3546 0.931 . S
C3531 H3519 0.929 . S
C3531 C3525 1.390 . S
C3531 C3528 1.386 . S
C3532 C3527 1.490 . S
C3532 C3534 1.395 . S
C3532 C3535 1.403 . S
H3533 C3539 0.930 . S
C3534 H3520 0.930 . S
C3534 C3532 1.395 . S
C3534 C3537 1.403 . S
C3535 C3532 1.403 . S
C3535 C3536 1.524 . S
C3535 C3539 1.400 . S
C3536 H3521 0.960 . S
C3536 H3522 0.960 . S
C3536 H3523 0.960 . S
C3536 C3535 1.524 . S
C3537 C3534 1.403 . S
C3537 C3538 1.392 . S
C3537 C3541 1.495 . S
C3538 C3537 1.392 . S
C3538 C3539 1.385 . S
C3538 C3540 1.478 . S
C3539 H3533 0.930 . S
C3539 C3535 1.400 . S
C3539 C3538 1.385 . S
C3540 C3538 1.478 . S
C3540 C3542 1.381 . S
C3540 C3546 1.383 . S
C3541 C3537 1.495 . S
C3541 H3547 0.959 . S
C3541 H3548 0.961 . S
C3541 H3549 0.960 . S
C3542 C3540 1.381 . S
C3542 C3543 1.394 . S
C3542 H3550 0.930 . S
C3543 C3542 1.394 . S
C3543 C3544 1.383 . S
C3543 H3551 0.929 . S
C3544 C3543 1.383 . S
C3544 C3545 1.377 . S
C3545 H3529 0.930 . S
C3545 C3544 1.377 . S
C3545 C3546 1.379 . S
C3546 H3530 0.931 . S
C3546 C3540 1.383 . S
C3546 C3545 1.379 . S
H3547 C3541 0.959 . S
H3548 C3541 0.961 . S
H3549 C3541 0.960 . S
H3550 C3542 0.930 . S
H3551 C3543 0.929 . S
H3552 C3560 0.929 . S
H3553 C3562 0.930 . S
H3554 C3564 0.930 . S
H3555 C3567 0.929 . S
H3556 C3570 0.930 . S
H3557 C3572 0.960 . S
H3558 C3572 0.960 . S
H3559 C3572 0.960 . S
C3560 H3552 0.929 . S
C3560 C3561 1.377 . S
C3560 C3562 1.384 . S
C3561 C3560 1.377 . S
C3561 C3567 1.390 . S
C3562 H3553 0.930 . S
C3562 C3560 1.384 . S
C3562 C3563 1.372 . S
C3563 C3562 1.372 . S
C3563 C3564 1.400 . S
C3563 C3568 1.490 . S
C3564 H3554 0.930 . S
C3564 C3563 1.400 . S
C3564 C3567 1.386 . S
H3565 C3581 0.930 . S
H3566 C3582 0.931 . S
C3567 H3555 0.929 . S
C3567 C3561 1.390 . S
C3567 C3564 1.386 . S
C3568 C3563 1.490 . S
C3568 C3570 1.395 . S
C3568 C3571 1.403 . S
H3569 C3575 0.930 . S
C3570 H3556 0.930 . S
C3570 C3568 1.395 . S
C3570 C3573 1.403 . S
C3571 C3568 1.403 . S
C3571 C3572 1.524 . S
C3571 C3575 1.400 . S
C3572 H3557 0.960 . S
C3572 H3558 0.960 . S
C3572 H3559 0.960 . S
C3572 C3571 1.524 . S
C3573 C3570 1.403 . S
C3573 C3574 1.392 . S
C3573 C3577 1.495 . S
C3574 C3573 1.392 . S
C3574 C3575 1.385 . S
C3574 C3576 1.478 . S
C3575 H3569 0.930 . S
C3575 C3571 1.400 . S
C3575 C3574 1.385 . S
C3576 C3574 1.478 . S
C3576 C3578 1.381 . S
C3576 C3582 1.383 . S
C3577 C3573 1.495 . S
C3577 H3583 0.959 . S
C3577 H3584 0.961 . S
C3577 H3585 0.960 . S
C3578 C3576 1.381 . S
C3578 C3579 1.394 . S
C3578 H3586 0.930 . S
C3579 C3578 1.394 . S
C3579 C3580 1.383 . S
C3579 H3587 0.929 . S
C3580 C3579 1.383 . S
C3580 C3581 1.377 . S
C3581 H3565 0.930 . S
C3581 C3580 1.377 . S
C3581 C3582 1.379 . S
C3582 H3566 0.931 . S
C3582 C3576 1.383 . S
C3582 C3581 1.379 . S
H3583 C3577 0.959 . S
H3584 C3577 0.961 . S
H3585 C3577 0.960 . S
H3586 C3578 0.930 . S
H3587 C3579 0.929 . S
H3588 C3596 0.929 . S
H3589 C3598 0.930 . S
H3590 C3600 0.930 . S
H3591 C3603 0.929 . S
H3592 C3606 0.930 . S
H3593 C3608 0.960 . S
H3594 C3608 0.960 . S
H3595 C3608 0.960 . S
C3596 H3588 0.929 . S
C3596 C3597 1.377 . S
C3596 C3598 1.384 . S
C3597 C3596 1.377 . S
C3597 C3603 1.390 . S
C3598 H3589 0.930 . S
C3598 C3596 1.384 . S
C3598 C3599 1.372 . S
C3599 C3598 1.372 . S
C3599 C3600 1.400 . S
C3599 C3604 1.490 . S
C3600 H3590 0.930 . S
C3600 C3599 1.400 . S
C3600 C3603 1.386 . S
H3601 C3617 0.930 . S
H3602 C3618 0.931 . S
C3603 H3591 0.929 . S
C3603 C3597 1.390 . S
C3603 C3600 1.386 . S
C3604 C3599 1.490 . S
C3604 C3606 1.395 . S
C3604 C3607 1.403 . S
H3605 C3611 0.930 . S
C3606 H3592 0.930 . S
C3606 C3604 1.395 . S
C3606 C3609 1.403 . S
C3607 C3604 1.403 . S
C3607 C3608 1.524 . S
C3607 C3611 1.400 . S
C3608 H3593 0.960 . S
C3608 H3594 0.960 . S
C3608 H3595 0.960 . S
C3608 C3607 1.524 . S
C3609 C3606 1.403 . S
C3609 C3610 1.392 . S
C3609 C3613 1.495 . S
C3610 C3609 1.392 . S
C3610 C3611 1.385 . S
C3610 C3612 1.478 . S
C3611 H3605 0.930 . S
C3611 C3607 1.400 . S
C3611 C3610 1.385 . S
C3612 C3610 1.478 . S
C3612 C3614 1.381 . S
C3612 C3618 1.383 . S
C3613 C3609 1.495 . S
C3613 H3619 0.959 . S
C3613 H3620 0.961 . S
C3613 H3621 0.960 . S
C3614 C3612 1.381 . S
C3614 C3615 1.394 . S
C3614 H3622 0.930 . S
C3615 C3614 1.394 . S
C3615 C3616 1.383 . S
C3615 H3623 0.929 . S
C3616 C3615 1.383 . S
C3616 C3617 1.377 . S
C3617 H3601 0.930 . S
C3617 C3616 1.377 . S
C3617 C3618 1.379 . S
C3618 H3602 0.931 . S
C3618 C3612 1.383 . S
C3618 C3617 1.379 . S
H3619 C3613 0.959 . S
H3620 C3613 0.961 . S
H3621 C3613 0.960 . S
H3622 C3614 0.930 . S
H3623 C3615 0.929 . S
H3624 C3632 0.929 . S
H3625 C3634 0.930 . S
H3626 C3636 0.922 1_655 S
H3627 C3639 0.929 1_655 S
H3628 C3642 0.930 . S
H3629 C3644 0.960 . S
H3630 C3644 0.960 . S
H3631 C3644 0.960 . S
C3632 H3624 0.929 . S
C3632 C3633 1.377 . S
C3632 C3634 1.384 . S
C3633 C3632 1.377 . S
C3633 C3639 1.390 . S
C3634 H3625 0.930 . S
C3634 C3632 1.384 . S
C3634 C3635 1.372 . S
C3635 C3634 1.372 . S
C3635 C3636 1.400 . S
C3635 C3640 1.490 . S
C3636 H3626 0.922 1_455 S
C3636 C3635 1.400 . S
C3636 C3639 1.386 . S
H3637 C3653 0.930 . S
H3638 C3654 0.931 . S
C3639 H3627 0.929 1_455 S
C3639 C3633 1.390 . S
C3639 C3636 1.386 . S
C3640 C3635 1.490 . S
C3640 C3642 1.395 . S
C3640 C3643 1.403 1_455 S
H3641 C3647 0.919 1_655 S
C3642 H3628 0.930 . S
C3642 C3640 1.395 . S
C3642 C3645 1.403 . S
C3643 C3640 1.403 1_655 S
C3643 C3644 1.524 . S
C3643 C3647 1.394 1_655 S
C3644 H3629 0.960 . S
C3644 H3630 0.960 . S
C3644 H3631 0.960 . S
C3644 C3643 1.524 . S
C3645 C3642 1.403 . S
C3645 C3646 1.392 . S
C3645 C3649 1.495 . S
C3646 C3645 1.392 . S
C3646 C3647 1.402 . S
C3646 C3648 1.478 . S
C3647 H3641 0.919 1_455 S
C3647 C3643 1.394 1_455 S
C3647 C3646 1.402 . S
C3648 C3646 1.478 . S
C3648 C3650 1.381 . S
C3648 C3654 1.383 . S
C3649 C3645 1.495 . S
C3649 H3655 0.959 . S
C3649 H3656 0.961 . S
C3649 H3657 0.960 . S
C3650 C3648 1.381 . S
C3650 C3651 1.394 . S
C3650 H3658 0.930 . S
C3651 C3650 1.394 . S
C3651 C3652 1.383 . S
C3651 H3659 0.929 . S
C3652 C3651 1.383 . S
C3652 C3653 1.377 . S
C3653 H3637 0.930 . S
C3653 C3652 1.377 . S
C3653 C3654 1.379 . S
C3654 H3638 0.931 . S
C3654 C3648 1.383 . S
C3654 C3653 1.379 . S
H3655 C3649 0.959 . S
H3656 C3649 0.961 . S
H3657 C3649 0.960 . S
H3658 C3650 0.930 . S
H3659 C3651 0.929 . S
H3660 C3668 0.929 . S
H3661 C3670 0.930 . S
H3662 C3672 0.930 . S
H3663 C3675 0.929 . S
H3664 C3678 0.930 . S
H3665 C3680 0.960 . S
H3666 C3680 0.960 . S
H3667 C3680 0.960 . S
C3668 H3660 0.929 . S
C3668 C3669 1.377 . S
C3668 C3670 1.384 . S
C3669 C3668 1.377 . S
C3669 C3675 1.390 . S
C3670 H3661 0.930 . S
C3670 C3668 1.384 . S
C3670 C3671 1.372 . S
C3671 C3670 1.372 . S
C3671 C3672 1.400 . S
C3671 C3676 1.490 . S
C3672 H3662 0.930 . S
C3672 C3671 1.400 . S
C3672 C3675 1.386 . S
H3673 C3689 0.930 . S
H3674 C3690 0.931 . S
C3675 H3663 0.929 . S
C3675 C3669 1.390 . S
C3675 C3672 1.386 . S
C3676 C3671 1.490 . S
C3676 C3678 1.395 . S
C3676 C3679 1.403 . S
H3677 C3683 0.930 . S
C3678 H3664 0.930 . S
C3678 C3676 1.395 . S
C3678 C3681 1.403 . S
C3679 C3676 1.403 . S
C3679 C3680 1.524 . S
C3679 C3683 1.400 . S
C3680 H3665 0.960 . S
C3680 H3666 0.960 . S
C3680 H3667 0.960 . S
C3680 C3679 1.524 . S
C3681 C3678 1.403 . S
C3681 C3682 1.392 . S
C3681 C3685 1.495 . S
C3682 C3681 1.392 . S
C3682 C3683 1.385 . S
C3682 C3684 1.478 . S
C3683 H3677 0.930 . S
C3683 C3679 1.400 . S
C3683 C3682 1.385 . S
C3684 C3682 1.478 . S
C3684 C3686 1.381 . S
C3684 C3690 1.383 . S
C3685 C3681 1.495 . S
C3685 H3691 0.959 . S
C3685 H3692 0.961 . S
C3685 H3693 0.960 . S
C3686 C3684 1.381 . S
C3686 C3687 1.394 . S
C3686 H3694 0.930 . S
C3687 C3686 1.394 . S
C3687 C3688 1.383 . S
C3687 H3695 0.929 . S
C3688 C3687 1.383 . S
C3688 C3689 1.377 . S
C3689 H3673 0.930 . S
C3689 C3688 1.377 . S
C3689 C3690 1.379 . S
C3690 H3674 0.931 . S
C3690 C3684 1.383 . S
C3690 C3689 1.379 . S
H3691 C3685 0.959 . S
H3692 C3685 0.961 . S
H3693 C3685 0.960 . S
H3694 C3686 0.930 . S
H3695 C3687 0.929 . S
H3696 C3704 0.929 . S
H3697 C3706 0.930 . S
H3698 C3708 0.930 . S
H3699 C3711 0.929 . S
H3700 C3714 0.930 . S
H3701 C3716 0.960 . S
H3702 C3716 0.960 . S
H3703 C3716 0.960 . S
C3704 H3696 0.929 . S
C3704 C3705 1.377 . S
C3704 C3706 1.384 . S
C3705 C3704 1.377 . S
C3705 C3711 1.390 . S
C3706 H3697 0.930 . S
C3706 C3704 1.384 . S
C3706 C3707 1.372 . S
C3707 C3706 1.372 . S
C3707 C3708 1.400 . S
C3707 C3712 1.490 . S
C3708 H3698 0.930 . S
C3708 C3707 1.400 . S
C3708 C3711 1.386 . S
H3709 C3725 0.930 . S
H3710 C3726 0.931 . S
C3711 H3699 0.929 . S
C3711 C3705 1.390 . S
C3711 C3708 1.386 . S
C3712 C3707 1.490 . S
C3712 C3714 1.395 . S
C3712 C3715 1.403 . S
H3713 C3719 0.930 . S
C3714 H3700 0.930 . S
C3714 C3712 1.395 . S
C3714 C3717 1.403 . S
C3715 C3712 1.403 . S
C3715 C3716 1.524 . S
C3715 C3719 1.400 . S
C3716 H3701 0.960 . S
C3716 H3702 0.960 . S
C3716 H3703 0.960 . S
C3716 C3715 1.524 . S
C3717 C3714 1.403 . S
C3717 C3718 1.392 . S
C3717 C3721 1.495 . S
C3718 C3717 1.392 . S
C3718 C3719 1.385 . S
C3718 C3720 1.478 . S
C3719 H3713 0.930 . S
C3719 C3715 1.400 . S
C3719 C3718 1.385 . S
C3720 C3718 1.478 . S
C3720 C3722 1.381 . S
C3720 C3726 1.383 . S
C3721 C3717 1.495 . S
C3721 H3727 0.959 . S
C3721 H3728 0.961 . S
C3721 H3729 0.960 . S
C3722 C3720 1.381 . S
C3722 C3723 1.394 . S
C3722 H3730 0.930 . S
C3723 C3722 1.394 . S
C3723 C3724 1.383 . S
C3723 H3731 0.929 . S
C3724 C3723 1.383 . S
C3724 C3725 1.377 . S
C3725 H3709 0.930 . S
C3725 C3724 1.377 . S
C3725 C3726 1.379 . S
C3726 H3710 0.931 . S
C3726 C3720 1.383 . S
C3726 C3725 1.379 . S
H3727 C3721 0.959 . S
H3728 C3721 0.961 . S
H3729 C3721 0.960 . S
H3730 C3722 0.930 . S
H3731 C3723 0.929 . S
H3732 C3740 0.929 . S
H3733 C3742 0.930 . S
H3734 C3744 0.930 . S
H3735 C3747 0.929 . S
H3736 C3750 0.930 . S
H3737 C3752 0.960 . S
H3738 C3752 0.960 . S
H3739 C3752 0.960 . S
C3740 H3732 0.929 . S
C3740 C3741 1.377 1_556 S
C3740 C3742 1.384 . S
C3741 C3740 1.377 1_554 S
C3741 C3747 1.390 . S
C3742 H3733 0.930 . S
C3742 C3740 1.384 . S
C3742 C3743 1.372 . S
C3743 C3742 1.372 . S
C3743 C3744 1.400 . S
C3743 C3748 1.490 . S
C3744 H3734 0.930 . S
C3744 C3743 1.400 . S
C3744 C3747 1.386 1_556 S
H3745 C3761 0.930 . S
H3746 C3762 0.931 . S
C3747 H3735 0.929 . S
C3747 C3741 1.390 . S
C3747 C3744 1.386 1_554 S
C3748 C3743 1.490 . S
C3748 C3750 1.395 . S
C3748 C3751 1.403 . S
H3749 C3755 0.930 . S
C3750 H3736 0.930 . S
C3750 C3748 1.395 . S
C3750 C3753 1.403 . S
C3751 C3748 1.403 . S
C3751 C3752 1.524 . S
C3751 C3755 1.400 . S
C3752 H3737 0.960 . S
C3752 H3738 0.960 . S
C3752 H3739 0.960 . S
C3752 C3751 1.524 . S
C3753 C3750 1.403 . S
C3753 C3754 1.392 . S
C3753 C3757 1.495 . S
C3754 C3753 1.392 . S
C3754 C3755 1.385 . S
C3754 C3756 1.478 . S
C3755 H3749 0.930 . S
C3755 C3751 1.400 . S
C3755 C3754 1.385 . S
C3756 C3754 1.478 . S
C3756 C3758 1.381 . S
C3756 C3762 1.383 . S
C3757 C3753 1.495 . S
C3757 H3763 0.959 . S
C3757 H3764 0.961 . S
C3757 H3765 0.960 . S
C3758 C3756 1.381 . S
C3758 C3759 1.394 . S
C3758 H3766 0.930 . S
C3759 C3758 1.394 . S
C3759 C3760 1.383 . S
C3759 H3767 0.929 . S
C3760 C3759 1.383 . S
C3760 C3761 1.377 . S
C3761 H3745 0.930 . S
C3761 C3760 1.377 . S
C3761 C3762 1.379 . S
C3762 H3746 0.931 . S
C3762 C3756 1.383 . S
C3762 C3761 1.379 . S
H3763 C3757 0.959 . S
H3764 C3757 0.961 . S
H3765 C3757 0.960 . S
H3766 C3758 0.930 . S
H3767 C3759 0.929 . S
H3768 C3776 0.929 . S
H3769 C3778 0.930 . S
H3770 C3780 0.930 . S
H3771 C3783 0.929 . S
H3772 C3786 0.930 . S
H3773 C3788 0.960 . S
H3774 C3788 0.960 . S
H3775 C3788 0.960 . S
C3776 H3768 0.929 . S
C3776 C3777 1.377 . S
C3776 C3778 1.384 . S
C3777 C3776 1.377 . S
C3777 C3783 1.390 . S
C3778 H3769 0.930 . S
C3778 C3776 1.384 . S
C3778 C3779 1.372 . S
C3779 C3778 1.372 . S
C3779 C3780 1.400 . S
C3779 C3784 1.490 . S
C3780 H3770 0.930 . S
C3780 C3779 1.400 . S
C3780 C3783 1.386 . S
H3781 C3797 0.930 . S
H3782 C3798 0.931 . S
C3783 H3771 0.929 . S
C3783 C3777 1.390 . S
C3783 C3780 1.386 . S
C3784 C3779 1.490 . S
C3784 C3786 1.395 . S
C3784 C3787 1.403 . S
H3785 C3791 0.930 . S
C3786 H3772 0.930 . S
C3786 C3784 1.395 . S
C3786 C3789 1.403 . S
C3787 C3784 1.403 . S
C3787 C3788 1.524 . S
C3787 C3791 1.400 . S
C3788 H3773 0.960 . S
C3788 H3774 0.960 . S
C3788 H3775 0.960 . S
C3788 C3787 1.524 . S
C3789 C3786 1.403 . S
C3789 C3790 1.392 . S
C3789 C3793 1.495 . S
C3790 C3789 1.392 . S
C3790 C3791 1.385 . S
C3790 C3792 1.478 . S
C3791 H3785 0.930 . S
C3791 C3787 1.400 . S
C3791 C3790 1.385 . S
C3792 C3790 1.478 . S
C3792 C3794 1.381 . S
C3792 C3798 1.383 . S
C3793 C3789 1.495 . S
C3793 H3799 0.959 . S
C3793 H3800 0.961 . S
C3793 H3801 0.960 . S
C3794 C3792 1.381 . S
C3794 C3795 1.394 . S
C3794 H3802 0.930 . S
C3795 C3794 1.394 . S
C3795 C3796 1.383 . S
C3795 H3803 0.929 . S
C3796 C3795 1.383 . S
C3796 C3797 1.377 . S
C3797 H3781 0.930 . S
C3797 C3796 1.377 . S
C3797 C3798 1.379 . S
C3798 H3782 0.931 . S
C3798 C3792 1.383 . S
C3798 C3797 1.379 . S
H3799 C3793 0.959 . S
H3800 C3793 0.961 . S
H3801 C3793 0.960 . S
H3802 C3794 0.930 . S
H3803 C3795 0.929 . S
H3804 C3812 0.929 . S
H3805 C3814 0.930 . S
H3806 C3816 0.930 . S
H3807 C3819 0.929 . S
H3808 C3822 0.930 . S
H3809 C3824 0.960 . S
H3810 C3824 0.960 . S
H3811 C3824 0.960 . S
C3812 H3804 0.929 . S
C3812 C3813 1.377 . S
C3812 C3814 1.384 . S
C3813 C3812 1.377 . S
C3813 C3819 1.390 . S
C3814 H3805 0.930 . S
C3814 C3812 1.384 . S
C3814 C3815 1.372 . S
C3815 C3814 1.372 . S
C3815 C3816 1.400 . S
C3815 C3820 1.490 . S
C3816 H3806 0.930 . S
C3816 C3815 1.400 . S
C3816 C3819 1.386 . S
H3817 C3833 0.930 . S
H3818 C3834 0.931 . S
C3819 H3807 0.929 . S
C3819 C3813 1.390 . S
C3819 C3816 1.386 . S
C3820 C3815 1.490 . S
C3820 C3822 1.395 . S
C3820 C3823 1.403 . S
H3821 C3827 0.930 . S
C3822 H3808 0.930 . S
C3822 C3820 1.395 . S
C3822 C3825 1.403 . S
C3823 C3820 1.403 . S
C3823 C3824 1.524 . S
C3823 C3827 1.400 . S
C3824 H3809 0.960 . S
C3824 H3810 0.960 . S
C3824 H3811 0.960 . S
C3824 C3823 1.524 . S
C3825 C3822 1.403 . S
C3825 C3826 1.392 . S
C3825 C3829 1.495 . S
C3826 C3825 1.392 . S
C3826 C3827 1.385 . S
C3826 C3828 1.478 . S
C3827 H3821 0.930 . S
C3827 C3823 1.400 . S
C3827 C3826 1.385 . S
C3828 C3826 1.478 . S
C3828 C3830 1.381 . S
C3828 C3834 1.383 . S
C3829 C3825 1.495 . S
C3829 H3835 0.959 . S
C3829 H3836 0.961 . S
C3829 H3837 0.960 . S
C3830 C3828 1.381 . S
C3830 C3831 1.394 . S
C3830 H3838 0.930 . S
C3831 C3830 1.394 . S
C3831 C3832 1.383 . S
C3831 H3839 0.929 . S
C3832 C3831 1.383 . S
C3832 C3833 1.377 . S
C3833 H3817 0.930 . S
C3833 C3832 1.377 . S
C3833 C3834 1.379 . S
C3834 H3818 0.931 . S
C3834 C3828 1.383 . S
C3834 C3833 1.379 . S
H3835 C3829 0.959 . S
H3836 C3829 0.961 . S
H3837 C3829 0.960 . S
H3838 C3830 0.930 . S
H3839 C3831 0.929 . S
H3840 C3848 0.929 . S
H3841 C3850 0.930 . S
H3842 C3852 0.930 . S
H3843 C3855 0.929 . S
H3844 C3858 0.930 . S
H3845 C3860 0.960 . S
H3846 C3860 0.960 . S
H3847 C3860 0.960 . S
C3848 H3840 0.929 . S
C3848 C3849 1.377 . S
C3848 C3850 1.384 . S
C3849 C3848 1.377 . S
C3849 C3855 1.390 . S
C3850 H3841 0.930 . S
C3850 C3848 1.384 . S
C3850 C3851 1.372 . S
C3851 C3850 1.372 . S
C3851 C3852 1.400 . S
C3851 C3856 1.490 . S
C3852 H3842 0.930 . S
C3852 C3851 1.400 . S
C3852 C3855 1.386 . S
H3853 C3869 0.930 . S
H3854 C3870 0.931 . S
C3855 H3843 0.929 . S
C3855 C3849 1.390 . S
C3855 C3852 1.386 . S
C3856 C3851 1.490 . S
C3856 C3858 1.395 . S
C3856 C3859 1.403 . S
H3857 C3863 0.930 . S
C3858 H3844 0.930 . S
C3858 C3856 1.395 . S
C3858 C3861 1.403 . S
C3859 C3856 1.403 . S
C3859 C3860 1.524 . S
C3859 C3863 1.400 . S
C3860 H3845 0.960 . S
C3860 H3846 0.960 . S
C3860 H3847 0.960 . S
C3860 C3859 1.524 . S
C3861 C3858 1.403 . S
C3861 C3862 1.392 . S
C3861 C3865 1.495 . S
C3862 C3861 1.392 . S
C3862 C3863 1.385 . S
C3862 C3864 1.478 . S
C3863 H3857 0.930 . S
C3863 C3859 1.400 . S
C3863 C3862 1.385 . S
C3864 C3862 1.478 . S
C3864 C3866 1.381 . S
C3864 C3870 1.383 . S
C3865 C3861 1.495 . S
C3865 H3871 0.959 . S
C3865 H3872 0.961 . S
C3865 H3873 0.960 . S
C3866 C3864 1.381 . S
C3866 C3867 1.394 . S
C3866 H3874 0.930 . S
C3867 C3866 1.394 . S
C3867 C3868 1.383 . S
C3867 H3875 0.929 . S
C3868 C3867 1.383 . S
C3868 C3869 1.377 . S
C3869 H3853 0.930 . S
C3869 C3868 1.377 . S
C3869 C3870 1.379 . S
C3870 H3854 0.931 . S
C3870 C3864 1.383 . S
C3870 C3869 1.379 . S
H3871 C3865 0.959 . S
H3872 C3865 0.961 . S
H3873 C3865 0.960 . S
H3874 C3866 0.930 . S
H3875 C3867 0.929 . S
H3876 C3884 0.929 . S
H3877 C3886 0.930 . S
H3878 C3888 0.930 . S
H3879 C3891 0.929 . S
H3880 C3894 0.930 . S
H3881 C3896 0.960 . S
H3882 C3896 0.960 . S
H3883 C3896 0.960 . S
C3884 H3876 0.929 . S
C3884 C3885 1.377 . S
C3884 C3886 1.384 . S
C3885 C3884 1.377 . S
C3885 C3891 1.390 . S
C3886 H3877 0.930 . S
C3886 C3884 1.384 . S
C3886 C3887 1.372 . S
C3887 C3886 1.372 . S
C3887 C3888 1.400 . S
C3887 C3892 1.490 . S
C3888 H3878 0.930 . S
C3888 C3887 1.400 . S
C3888 C3891 1.386 . S
H3889 C3905 0.930 . S
H3890 C3906 0.931 . S
C3891 H3879 0.929 . S
C3891 C3885 1.390 . S
C3891 C3888 1.386 . S
C3892 C3887 1.490 . S
C3892 C3894 1.395 . S
C3892 C3895 1.403 . S
H3893 C3899 0.930 . S
C3894 H3880 0.930 . S
C3894 C3892 1.395 . S
C3894 C3897 1.403 . S
C3895 C3892 1.403 . S
C3895 C3896 1.524 . S
C3895 C3899 1.400 . S
C3896 H3881 0.960 . S
C3896 H3882 0.960 . S
C3896 H3883 0.960 . S
C3896 C3895 1.524 . S
C3897 C3894 1.403 . S
C3897 C3898 1.392 . S
C3897 C3901 1.495 . S
C3898 C3897 1.392 . S
C3898 C3899 1.385 . S
C3898 C3900 1.478 . S
C3899 H3893 0.930 . S
C3899 C3895 1.400 . S
C3899 C3898 1.385 . S
C3900 C3898 1.478 . S
C3900 C3902 1.381 . S
C3900 C3906 1.383 . S
C3901 C3897 1.495 . S
C3901 H3907 0.959 . S
C3901 H3908 0.961 . S
C3901 H3909 0.960 . S
C3902 C3900 1.381 . S
C3902 C3903 1.394 . S
C3902 H3910 0.930 . S
C3903 C3902 1.394 . S
C3903 C3904 1.383 . S
C3903 H3911 0.929 . S
C3904 C3903 1.383 . S
C3904 C3905 1.377 . S
C3905 H3889 0.930 . S
C3905 C3904 1.377 . S
C3905 C3906 1.379 . S
C3906 H3890 0.931 . S
C3906 C3900 1.383 . S
C3906 C3905 1.379 . S
H3907 C3901 0.959 . S
H3908 C3901 0.961 . S
H3909 C3901 0.960 . S
H3910 C3902 0.930 . S
H3911 C3903 0.929 . S
H3912 C3920 0.929 . S
H3913 C3922 0.930 . S
H3914 C3924 0.930 . S
H3915 C3927 0.929 . S
H3916 C3930 0.930 . S
H3917 C3932 0.960 . S
H3918 C3932 0.960 . S
H3919 C3932 0.960 . S
C3920 H3912 0.929 . S
C3920 C3921 1.377 . S
C3920 C3922 1.384 . S
C3921 C3920 1.377 . S
C3921 C3927 1.390 . S
C3922 H3913 0.930 . S
C3922 C3920 1.384 . S
C3922 C3923 1.372 . S
C3923 C3922 1.372 . S
C3923 C3924 1.400 . S
C3923 C3928 1.490 . S
C3924 H3914 0.930 . S
C3924 C3923 1.400 . S
C3924 C3927 1.386 . S
H3925 C3941 0.930 . S
H3926 C3942 0.931 . S
C3927 H3915 0.929 . S
C3927 C3921 1.390 . S
C3927 C3924 1.386 . S
C3928 C3923 1.490 . S
C3928 C3930 1.395 . S
C3928 C3931 1.403 . S
H3929 C3935 0.930 . S
C3930 H3916 0.930 . S
C3930 C3928 1.395 . S
C3930 C3933 1.403 . S
C3931 C3928 1.403 . S
C3931 C3932 1.524 . S
C3931 C3935 1.400 . S
C3932 H3917 0.960 . S
C3932 H3918 0.960 . S
C3932 H3919 0.960 . S
C3932 C3931 1.524 . S
C3933 C3930 1.403 . S
C3933 C3934 1.392 . S
C3933 C3937 1.495 . S
C3934 C3933 1.392 . S
C3934 C3935 1.385 . S
C3934 C3936 1.478 . S
C3935 H3929 0.930 . S
C3935 C3931 1.400 . S
C3935 C3934 1.385 . S
C3936 C3934 1.478 . S
C3936 C3938 1.381 . S
C3936 C3942 1.383 . S
C3937 C3933 1.495 . S
C3937 H3943 0.959 . S
C3937 H3944 0.961 . S
C3937 H3945 0.960 . S
C3938 C3936 1.381 . S
C3938 C3939 1.394 . S
C3938 H3946 0.930 . S
C3939 C3938 1.394 . S
C3939 C3940 1.383 . S
C3939 H3947 0.929 . S
C3940 C3939 1.383 . S
C3940 C3941 1.377 . S
C3941 H3925 0.930 . S
C3941 C3940 1.377 . S
C3941 C3942 1.379 . S
C3942 H3926 0.931 . S
C3942 C3936 1.383 . S
C3942 C3941 1.379 . S
H3943 C3937 0.959 . S
H3944 C3937 0.961 . S
H3945 C3937 0.960 . S
H3946 C3938 0.930 . S
H3947 C3939 0.929 . S
H3948 C3956 0.929 . S
H3949 C3958 0.930 . S
H3950 C3960 0.930 . S
H3951 C3963 0.929 . S
H3952 C3966 0.930 . S
H3953 C3968 0.960 . S
H3954 C3968 0.960 . S
H3955 C3968 0.960 . S
C3956 H3948 0.929 . S
C3956 C3957 1.377 . S
C3956 C3958 1.384 . S
C3957 C3956 1.377 . S
C3957 C3963 1.390 . S
C3958 H3949 0.930 . S
C3958 C3956 1.384 . S
C3958 C3959 1.372 . S
C3959 C3958 1.372 . S
C3959 C3960 1.400 . S
C3959 C3964 1.490 . S
C3960 H3950 0.930 . S
C3960 C3959 1.400 . S
C3960 C3963 1.386 . S
H3961 C3977 0.930 . S
H3962 C3978 0.931 . S
C3963 H3951 0.929 . S
C3963 C3957 1.390 . S
C3963 C3960 1.386 . S
C3964 C3959 1.490 . S
C3964 C3966 1.395 . S
C3964 C3967 1.403 . S
H3965 C3971 0.930 . S
C3966 H3952 0.930 . S
C3966 C3964 1.395 . S
C3966 C3969 1.403 . S
C3967 C3964 1.403 . S
C3967 C3968 1.524 . S
C3967 C3971 1.400 . S
C3968 H3953 0.960 . S
C3968 H3954 0.960 . S
C3968 H3955 0.960 . S
C3968 C3967 1.524 . S
C3969 C3966 1.403 . S
C3969 C3970 1.392 . S
C3969 C3973 1.495 . S
C3970 C3969 1.392 . S
C3970 C3971 1.385 . S
C3970 C3972 1.478 . S
C3971 H3965 0.930 . S
C3971 C3967 1.400 . S
C3971 C3970 1.385 . S
C3972 C3970 1.478 . S
C3972 C3974 1.381 . S
C3972 C3978 1.383 . S
C3973 C3969 1.495 . S
C3973 H3979 0.959 . S
C3973 H3980 0.961 . S
C3973 H3981 0.960 . S
C3974 C3972 1.381 . S
C3974 C3975 1.394 . S
C3974 H3982 0.930 . S
C3975 C3974 1.394 . S
C3975 C3976 1.383 . S
C3975 H3983 0.929 . S
C3976 C3975 1.383 . S
C3976 C3977 1.377 . S
C3977 H3961 0.930 . S
C3977 C3976 1.377 . S
C3977 C3978 1.379 . S
C3978 H3962 0.931 . S
C3978 C3972 1.383 . S
C3978 C3977 1.379 . S
H3979 C3973 0.959 . S
H3980 C3973 0.961 . S
H3981 C3973 0.960 . S
H3982 C3974 0.930 . S
H3983 C3975 0.929 . S
H3984 C3992 0.929 . S
H3985 C3994 0.930 . S
H3986 C3996 0.930 . S
H3987 C3999 0.929 . S
H3988 C4002 0.930 . S
H3989 C4004 0.960 . S
H3990 C4004 0.960 . S
H3991 C4004 0.960 . S
C3992 H3984 0.929 . S
C3992 C3993 1.377 . S
C3992 C3994 1.384 . S
C3993 C3992 1.377 . S
C3993 C3999 1.390 . S
C3994 H3985 0.930 . S
C3994 C3992 1.384 . S
C3994 C3995 1.372 . S
C3995 C3994 1.372 . S
C3995 C3996 1.400 . S
C3995 C4000 1.490 . S
C3996 H3986 0.930 . S
C3996 C3995 1.400 . S
C3996 C3999 1.386 . S
H3997 C4013 0.930 . S
H3998 C4014 0.931 . S
C3999 H3987 0.929 . S
C3999 C3993 1.390 . S
C3999 C3996 1.386 . S
C4000 C3995 1.490 . S
C4000 C4002 1.395 . S
C4000 C4003 1.403 . S
H4001 C4007 0.930 . S
C4002 H3988 0.930 . S
C4002 C4000 1.395 . S
C4002 C4005 1.403 . S
C4003 C4000 1.403 . S
C4003 C4004 1.524 . S
C4003 C4007 1.400 . S
C4004 H3989 0.960 . S
C4004 H3990 0.960 . S
C4004 H3991 0.960 . S
C4004 C4003 1.524 . S
C4005 C4002 1.403 . S
C4005 C4006 1.392 . S
C4005 C4009 1.495 . S
C4006 C4005 1.392 . S
C4006 C4007 1.385 . S
C4006 C4008 1.478 . S
C4007 H4001 0.930 . S
C4007 C4003 1.400 . S
C4007 C4006 1.385 . S
C4008 C4006 1.478 . S
C4008 C4010 1.381 . S
C4008 C4014 1.383 . S
C4009 C4005 1.495 . S
C4009 H4015 0.959 . S
C4009 H4016 0.961 . S
C4009 H4017 0.960 . S
C4010 C4008 1.381 . S
C4010 C4011 1.394 . S
C4010 H4018 0.930 . S
C4011 C4010 1.394 . S
C4011 C4012 1.383 . S
C4011 H4019 0.929 . S
C4012 C4011 1.383 . S
C4012 C4013 1.377 . S
C4013 H3997 0.930 . S
C4013 C4012 1.377 . S
C4013 C4014 1.379 . S
C4014 H3998 0.931 . S
C4014 C4008 1.383 . S
C4014 C4013 1.379 . S
H4015 C4009 0.959 . S
H4016 C4009 0.961 . S
H4017 C4009 0.960 . S
H4018 C4010 0.930 . S
H4019 C4011 0.929 . S
H4020 C4028 0.929 . S
H4021 C4030 0.930 . S
H4022 C4032 0.930 . S
H4023 C4035 0.929 . S
H4024 C4038 0.930 . S
H4025 C4040 0.960 . S
H4026 C4040 0.960 . S
H4027 C4040 0.960 . S
C4028 H4020 0.929 . S
C4028 C4029 1.377 . S
C4028 C4030 1.384 . S
C4029 C4028 1.377 . S
C4029 C4035 1.390 . S
C4030 H4021 0.930 . S
C4030 C4028 1.384 . S
C4030 C4031 1.372 . S
C4031 C4030 1.372 . S
C4031 C4032 1.400 . S
C4031 C4036 1.490 . S
C4032 H4022 0.930 . S
C4032 C4031 1.400 . S
C4032 C4035 1.386 . S
H4033 C4049 0.930 . S
H4034 C4050 0.931 . S
C4035 H4023 0.929 . S
C4035 C4029 1.390 . S
C4035 C4032 1.386 . S
C4036 C4031 1.490 . S
C4036 C4038 1.395 . S
C4036 C4039 1.403 . S
H4037 C4043 0.930 . S
C4038 H4024 0.930 . S
C4038 C4036 1.395 . S
C4038 C4041 1.403 . S
C4039 C4036 1.403 . S
C4039 C4040 1.524 . S
C4039 C4043 1.400 . S
C4040 H4025 0.960 . S
C4040 H4026 0.960 . S
C4040 H4027 0.960 . S
C4040 C4039 1.524 . S
C4041 C4038 1.403 . S
C4041 C4042 1.392 . S
C4041 C4045 1.495 . S
C4042 C4041 1.392 . S
C4042 C4043 1.385 . S
C4042 C4044 1.478 . S
C4043 H4037 0.930 . S
C4043 C4039 1.400 . S
C4043 C4042 1.385 . S
C4044 C4042 1.478 . S
C4044 C4046 1.381 . S
C4044 C4050 1.383 . S
C4045 C4041 1.495 . S
C4045 H4051 0.959 . S
C4045 H4052 0.961 . S
C4045 H4053 0.960 . S
C4046 C4044 1.381 . S
C4046 C4047 1.394 . S
C4046 H4054 0.930 . S
C4047 C4046 1.394 . S
C4047 C4048 1.383 . S
C4047 H4055 0.929 . S
C4048 C4047 1.383 . S
C4048 C4049 1.377 . S
C4049 H4033 0.930 . S
C4049 C4048 1.377 . S
C4049 C4050 1.379 . S
C4050 H4034 0.931 . S
C4050 C4044 1.383 . S
C4050 C4049 1.379 . S
H4051 C4045 0.959 . S
H4052 C4045 0.961 . S
H4053 C4045 0.960 . S
H4054 C4046 0.930 . S
H4055 C4047 0.929 . S
H4056 C4064 0.929 . S
H4057 C4066 0.930 . S
H4058 C4068 0.930 . S
H4059 C4071 0.929 . S
H4060 C4074 0.930 . S
H4061 C4076 0.960 . S
H4062 C4076 0.960 . S
H4063 C4076 0.960 . S
C4064 H4056 0.929 . S
C4064 C4065 1.377 . S
C4064 C4066 1.384 . S
C4065 C4064 1.377 . S
C4065 C4071 1.390 . S
C4066 H4057 0.930 . S
C4066 C4064 1.384 . S
C4066 C4067 1.372 . S
C4067 C4066 1.372 . S
C4067 C4068 1.400 . S
C4067 C4072 1.490 . S
C4068 H4058 0.930 . S
C4068 C4067 1.400 . S
C4068 C4071 1.386 . S
H4069 C4085 0.930 . S
H4070 C4086 0.931 . S
C4071 H4059 0.929 . S
C4071 C4065 1.390 . S
C4071 C4068 1.386 . S
C4072 C4067 1.490 . S
C4072 C4074 1.395 . S
C4072 C4075 1.403 . S
H4073 C4079 0.930 . S
C4074 H4060 0.930 . S
C4074 C4072 1.395 . S
C4074 C4077 1.403 . S
C4075 C4072 1.403 . S
C4075 C4076 1.524 . S
C4075 C4079 1.400 . S
C4076 H4061 0.960 . S
C4076 H4062 0.960 . S
C4076 H4063 0.960 . S
C4076 C4075 1.524 . S
C4077 C4074 1.403 . S
C4077 C4078 1.392 . S
C4077 C4081 1.495 . S
C4078 C4077 1.392 . S
C4078 C4079 1.385 . S
C4078 C4080 1.478 . S
C4079 H4073 0.930 . S
C4079 C4075 1.400 . S
C4079 C4078 1.385 . S
C4080 C4078 1.478 . S
C4080 C4082 1.381 . S
C4080 C4086 1.383 . S
C4081 C4077 1.495 . S
C4081 H4087 0.959 . S
C4081 H4088 0.961 . S
C4081 H4089 0.960 . S
C4082 C4080 1.381 . S
C4082 C4083 1.394 . S
C4082 H4090 0.930 . S
C4083 C4082 1.394 . S
C4083 C4084 1.383 . S
C4083 H4091 0.929 . S
C4084 C4083 1.383 . S
C4084 C4085 1.377 . S
C4085 H4069 0.930 . S
C4085 C4084 1.377 . S
C4085 C4086 1.379 . S
C4086 H4070 0.931 . S
C4086 C4080 1.383 . S
C4086 C4085 1.379 . S
H4087 C4081 0.959 . S
H4088 C4081 0.961 . S
H4089 C4081 0.960 . S
H4090 C4082 0.930 . S
H4091 C4083 0.929 . S
H4092 C4100 0.929 . S
H4093 C4102 0.930 . S
H4094 C4104 0.930 . S
H4095 C4107 0.929 . S
H4096 C4110 0.930 . S
H4097 C4112 0.960 . S
H4098 C4112 0.960 . S
H4099 C4112 0.960 . S
C4100 H4092 0.929 . S
C4100 C4101 1.377 . S
C4100 C4102 1.384 . S
C4101 C4100 1.377 . S
C4101 C4107 1.390 1_554 S
C4102 H4093 0.930 . S
C4102 C4100 1.384 . S
C4102 C4103 1.372 . S
C4103 C4102 1.372 . S
C4103 C4104 1.400 1_554 S
C4103 C4108 1.490 . S
C4104 H4094 0.930 . S
C4104 C4103 1.400 1_556 S
C4104 C4107 1.386 . S
H4105 C4121 0.930 1_556 S
H4106 C4122 0.931 1_556 S
C4107 H4095 0.929 . S
C4107 C4101 1.390 1_556 S
C4107 C4104 1.386 . S
C4108 C4103 1.490 . S
C4108 C4110 1.395 . S
C4108 C4111 1.403 1_554 S
H4109 C4115 0.930 1_556 S
C4110 H4096 0.930 . S
C4110 C4108 1.395 . S
C4110 C4113 1.403 . S
C4111 C4108 1.403 1_556 S
C4111 C4112 1.524 . S
C4111 C4115 1.400 1_556 S
C4112 H4097 0.960 . S
C4112 H4098 0.960 . S
C4112 H4099 0.960 . S
C4112 C4111 1.524 . S
C4113 C4110 1.403 . S
C4113 C4114 1.392 . S
C4113 C4117 1.495 . S
C4114 C4113 1.392 . S
C4114 C4115 1.385 . S
C4114 C4116 1.478 . S
C4115 H4109 0.930 1_554 S
C4115 C4111 1.400 1_554 S
C4115 C4114 1.385 . S
C4116 C4114 1.478 . S
C4116 C4118 1.381 1_565 S
C4116 C4122 1.383 . S
C4117 C4113 1.495 . S
C4117 H4123 0.959 . S
C4117 H4124 0.961 . S
C4117 H4125 0.960 . S
C4118 C4116 1.381 1_545 S
C4118 C4119 1.394 . S
C4118 H4126 0.930 . S
C4119 C4118 1.394 . S
C4119 C4120 1.383 . S
C4119 H4127 0.929 . S
C4120 C4119 1.383 . S
C4120 C4121 1.377 1_545 S
C4121 H4105 0.930 1_554 S
C4121 C4120 1.377 1_565 S
C4121 C4122 1.379 . S
C4122 H4106 0.931 1_554 S
C4122 C4116 1.383 . S
C4122 C4121 1.379 . S
H4123 C4117 0.959 . S
H4124 C4117 0.961 . S
H4125 C4117 0.960 . S
H4126 C4118 0.930 . S
H4127 C4119 0.929 . S
H4128 C4136 0.929 . S
H4129 C4138 0.930 . S
H4130 C4140 0.930 . S
H4131 C4143 0.929 . S
H4132 C4146 0.930 . S
H4133 C4148 0.960 . S
H4134 C4148 0.960 . S
H4135 C4148 0.960 . S
C4136 H4128 0.929 . S
C4136 C4137 1.377 . S
C4136 C4138 1.384 . S
C4137 C4136 1.377 . S
C4137 C4143 1.390 . S
C4138 H4129 0.930 . S
C4138 C4136 1.384 . S
C4138 C4139 1.372 . S
C4139 C4138 1.372 . S
C4139 C4140 1.400 . S
C4139 C4144 1.490 . S
C4140 H4130 0.930 . S
C4140 C4139 1.400 . S
C4140 C4143 1.386 . S
H4141 C4157 0.930 . S
H4142 C4158 0.931 . S
C4143 H4131 0.929 . S
C4143 C4137 1.390 . S
C4143 C4140 1.386 . S
C4144 C4139 1.490 . S
C4144 C4146 1.395 . S
C4144 C4147 1.403 . S
H4145 C4151 0.930 . S
C4146 H4132 0.930 . S
C4146 C4144 1.395 . S
C4146 C4149 1.403 . S
C4147 C4144 1.403 . S
C4147 C4148 1.524 . S
C4147 C4151 1.400 . S
C4148 H4133 0.960 . S
C4148 H4134 0.960 . S
C4148 H4135 0.960 . S
C4148 C4147 1.524 . S
C4149 C4146 1.403 . S
C4149 C4150 1.392 . S
C4149 C4153 1.495 . S
C4150 C4149 1.392 . S
C4150 C4151 1.385 . S
C4150 C4152 1.478 . S
C4151 H4145 0.930 . S
C4151 C4147 1.400 . S
C4151 C4150 1.385 . S
C4152 C4150 1.478 . S
C4152 C4154 1.381 . S
C4152 C4158 1.383 . S
C4153 C4149 1.495 . S
C4153 H4159 0.959 . S
C4153 H4160 0.961 . S
C4153 H4161 0.960 . S
C4154 C4152 1.381 . S
C4154 C4155 1.394 . S
C4154 H4162 0.930 . S
C4155 C4154 1.394 . S
C4155 C4156 1.383 . S
C4155 H4163 0.929 . S
C4156 C4155 1.383 . S
C4156 C4157 1.377 . S
C4157 H4141 0.930 . S
C4157 C4156 1.377 . S
C4157 C4158 1.379 . S
C4158 H4142 0.931 . S
C4158 C4152 1.383 . S
C4158 C4157 1.379 . S
H4159 C4153 0.959 . S
H4160 C4153 0.961 . S
H4161 C4153 0.960 . S
H4162 C4154 0.930 . S
H4163 C4155 0.929 . S
H4164 C4172 0.929 . S
H4165 C4174 0.930 . S
H4166 C4176 0.930 . S
H4167 C4179 0.929 . S
H4168 C4182 0.930 1_556 S
H4169 C4184 0.960 . S
H4170 C4184 0.960 . S
H4171 C4184 0.960 . S
C4172 H4164 0.929 . S
C4172 C4173 1.377 . S
C4172 C4174 1.384 . S
C4173 C4172 1.377 . S
C4173 C4179 1.390 . S
C4174 H4165 0.930 . S
C4174 C4172 1.384 . S
C4174 C4175 1.372 . S
C4175 C4174 1.372 . S
C4175 C4176 1.400 . S
C4175 C4180 1.490 . S
C4176 H4166 0.930 . S
C4176 C4175 1.400 . S
C4176 C4179 1.386 . S
H4177 C4193 0.930 . S
H4178 C4194 0.931 . S
C4179 H4167 0.929 . S
C4179 C4173 1.390 . S
C4179 C4176 1.386 . S
C4180 C4175 1.490 . S
C4180 C4182 1.395 . S
C4180 C4183 1.403 . S
H4181 C4187 0.930 . S
C4182 H4168 0.930 1_554 S
C4182 C4180 1.395 . S
C4182 C4185 1.403 . S
C4183 C4180 1.403 . S
C4183 C4184 1.524 . S
C4183 C4187 1.400 . S
C4184 H4169 0.960 . S
C4184 H4170 0.960 . S
C4184 H4171 0.960 . S
C4184 C4183 1.524 . S
C4185 C4182 1.403 . S
C4185 C4186 1.392 . S
C4185 C4189 1.495 1_554 S
C4186 C4185 1.392 . S
C4186 C4187 1.385 . S
C4186 C4188 1.478 . S
C4187 H4181 0.930 . S
C4187 C4183 1.400 . S
C4187 C4186 1.385 . S
C4188 C4186 1.478 . S
C4188 C4190 1.381 . S
C4188 C4194 1.383 . S
C4189 C4185 1.495 1_556 S
C4189 H4195 0.959 . S
C4189 H4196 0.961 . S
C4189 H4197 0.960 . S
C4190 C4188 1.381 . S
C4190 C4191 1.394 . S
C4190 H4198 0.930 . S
C4191 C4190 1.394 . S
C4191 C4192 1.383 . S
C4191 H4199 0.929 . S
C4192 C4191 1.383 . S
C4192 C4193 1.377 . S
C4193 H4177 0.930 . S
C4193 C4192 1.377 . S
C4193 C4194 1.379 . S
C4194 H4178 0.931 . S
C4194 C4188 1.383 . S
C4194 C4193 1.379 . S
H4195 C4189 0.959 . S
H4196 C4189 0.961 . S
H4197 C4189 0.960 . S
H4198 C4190 0.930 . S
H4199 C4191 0.929 . S
H4200 C4208 0.929 . S
H4201 C4210 0.930 . S
H4202 C4212 0.930 . S
H4203 C4215 0.929 . S
H4204 C4218 0.930 . S
H4205 C4220 0.960 . S
H4206 C4220 0.960 . S
H4207 C4220 0.960 . S
C4208 H4200 0.929 . S
C4208 C4209 1.377 . S
C4208 C4210 1.384 . S
C4209 C4208 1.377 . S
C4209 C4215 1.390 . S
C4210 H4201 0.930 . S
C4210 C4208 1.384 . S
C4210 C4211 1.372 . S
C4211 C4210 1.372 . S
C4211 C4212 1.400 . S
C4211 C4216 1.490 . S
C4212 H4202 0.930 . S
C4212 C4211 1.400 . S
C4212 C4215 1.386 . S
H4213 C4229 0.930 . S
H4214 C4230 0.931 . S
C4215 H4203 0.929 . S
C4215 C4209 1.390 . S
C4215 C4212 1.386 . S
C4216 C4211 1.490 . S
C4216 C4218 1.395 . S
C4216 C4219 1.403 . S
H4217 C4223 0.930 . S
C4218 H4204 0.930 . S
C4218 C4216 1.395 . S
C4218 C4221 1.403 . S
C4219 C4216 1.403 . S
C4219 C4220 1.524 . S
C4219 C4223 1.400 . S
C4220 H4205 0.960 . S
C4220 H4206 0.960 . S
C4220 H4207 0.960 . S
C4220 C4219 1.524 . S
C4221 C4218 1.403 . S
C4221 C4222 1.392 . S
C4221 C4225 1.495 . S
C4222 C4221 1.392 . S
C4222 C4223 1.385 . S
C4222 C4224 1.478 . S
C4223 H4217 0.930 . S
C4223 C4219 1.400 . S
C4223 C4222 1.385 . S
C4224 C4222 1.478 . S
C4224 C4226 1.381 . S
C4224 C4230 1.383 . S
C4225 C4221 1.495 . S
C4225 H4231 0.959 . S
C4225 H4232 0.961 . S
C4225 H4233 0.960 . S
C4226 C4224 1.381 . S
C4226 C4227 1.394 . S
C4226 H4234 0.930 . S
C4227 C4226 1.394 . S
C4227 C4228 1.383 . S
C4227 H4235 0.929 . S
C4228 C4227 1.383 . S
C4228 C4229 1.377 . S
C4229 H4213 0.930 . S
C4229 C4228 1.377 . S
C4229 C4230 1.379 . S
C4230 H4214 0.931 . S
C4230 C4224 1.383 . S
C4230 C4229 1.379 . S
H4231 C4225 0.959 . S
H4232 C4225 0.961 . S
H4233 C4225 0.960 . S
H4234 C4226 0.930 . S
H4235 C4227 0.929 . S
H4236 C4244 0.929 . S
H4237 C4246 0.930 . S
H4238 C4248 0.930 . S
H4239 C4251 0.929 . S
H4240 C4254 0.930 . S
H4241 C4256 0.960 . S
H4242 C4256 0.960 . S
H4243 C4256 0.960 . S
C4244 H4236 0.929 . S
C4244 C4245 1.377 . S
C4244 C4246 1.384 . S
C4245 C4244 1.377 . S
C4245 C4251 1.390 . S
C4246 H4237 0.930 . S
C4246 C4244 1.384 . S
C4246 C4247 1.372 . S
C4247 C4246 1.372 . S
C4247 C4248 1.400 . S
C4247 C4252 1.490 . S
C4248 H4238 0.930 . S
C4248 C4247 1.400 . S
C4248 C4251 1.386 . S
H4249 C4265 0.930 . S
H4250 C4266 0.931 . S
C4251 H4239 0.929 . S
C4251 C4245 1.390 . S
C4251 C4248 1.386 . S
C4252 C4247 1.490 . S
C4252 C4254 1.395 . S
C4252 C4255 1.403 . S
H4253 C4259 0.930 . S
C4254 H4240 0.930 . S
C4254 C4252 1.395 . S
C4254 C4257 1.403 . S
C4255 C4252 1.403 . S
C4255 C4256 1.524 . S
C4255 C4259 1.400 . S
C4256 H4241 0.960 . S
C4256 H4242 0.960 . S
C4256 H4243 0.960 . S
C4256 C4255 1.524 . S
C4257 C4254 1.403 . S
C4257 C4258 1.392 . S
C4257 C4261 1.495 . S
C4258 C4257 1.392 . S
C4258 C4259 1.385 . S
C4258 C4260 1.478 . S
C4259 H4253 0.930 . S
C4259 C4255 1.400 . S
C4259 C4258 1.385 . S
C4260 C4258 1.478 . S
C4260 C4262 1.381 . S
C4260 C4266 1.383 . S
C4261 C4257 1.495 . S
C4261 H4267 0.959 . S
C4261 H4268 0.961 . S
C4261 H4269 0.960 . S
C4262 C4260 1.381 . S
C4262 C4263 1.394 . S
C4262 H4270 0.930 . S
C4263 C4262 1.394 . S
C4263 C4264 1.383 . S
C4263 H4271 0.929 . S
C4264 C4263 1.383 . S
C4264 C4265 1.377 . S
C4265 H4249 0.930 . S
C4265 C4264 1.377 . S
C4265 C4266 1.379 . S
C4266 H4250 0.931 . S
C4266 C4260 1.383 . S
C4266 C4265 1.379 . S
H4267 C4261 0.959 . S
H4268 C4261 0.961 . S
H4269 C4261 0.960 . S
H4270 C4262 0.930 . S
H4271 C4263 0.929 . S
H4272 C4280 0.929 . S
H4273 C4282 0.930 . S
H4274 C4284 0.930 . S
H4275 C4287 0.929 . S
H4276 C4290 0.930 . S
H4277 C4292 0.960 . S
H4278 C4292 0.960 . S
H4279 C4292 0.960 . S
C4280 H4272 0.929 . S
C4280 C4281 1.377 . S
C4280 C4282 1.384 . S
C4281 C4280 1.377 . S
C4281 C4287 1.390 . S
C4282 H4273 0.930 . S
C4282 C4280 1.384 . S
C4282 C4283 1.372 . S
C4283 C4282 1.372 . S
C4283 C4284 1.400 . S
C4283 C4288 1.490 . S
C4284 H4274 0.930 . S
C4284 C4283 1.400 . S
C4284 C4287 1.386 . S
H4285 C4301 0.930 . S
H4286 C4302 0.931 . S
C4287 H4275 0.929 . S
C4287 C4281 1.390 . S
C4287 C4284 1.386 . S
C4288 C4283 1.490 . S
C4288 C4290 1.395 . S
C4288 C4291 1.403 . S
H4289 C4295 0.930 . S
C4290 H4276 0.930 . S
C4290 C4288 1.395 . S
C4290 C4293 1.403 . S
C4291 C4288 1.403 . S
C4291 C4292 1.524 . S
C4291 C4295 1.400 . S
C4292 H4277 0.960 . S
C4292 H4278 0.960 . S
C4292 H4279 0.960 . S
C4292 C4291 1.524 . S
C4293 C4290 1.403 . S
C4293 C4294 1.392 . S
C4293 C4297 1.495 . S
C4294 C4293 1.392 . S
C4294 C4295 1.385 . S
C4294 C4296 1.478 . S
C4295 H4289 0.930 . S
C4295 C4291 1.400 . S
C4295 C4294 1.385 . S
C4296 C4294 1.478 . S
C4296 C4298 1.381 . S
C4296 C4302 1.383 . S
C4297 C4293 1.495 . S
C4297 H4303 0.959 . S
C4297 H4304 0.961 . S
C4297 H4305 0.960 . S
C4298 C4296 1.381 . S
C4298 C4299 1.394 . S
C4298 H4306 0.930 . S
C4299 C4298 1.394 . S
C4299 C4300 1.383 . S
C4299 H4307 0.929 . S
C4300 C4299 1.383 . S
C4300 C4301 1.377 . S
C4301 H4285 0.930 . S
C4301 C4300 1.377 . S
C4301 C4302 1.379 . S
C4302 H4286 0.931 . S
C4302 C4296 1.383 . S
C4302 C4301 1.379 . S
H4303 C4297 0.959 . S
H4304 C4297 0.961 . S
H4305 C4297 0.960 . S
H4306 C4298 0.930 . S
H4307 C4299 0.929 . S
H4308 C4316 0.929 . S
H4309 C4318 0.930 . S
H4310 C4320 0.930 . S
H4311 C4323 0.929 . S
H4312 C4326 0.930 . S
H4313 C4328 0.960 . S
H4314 C4328 0.960 . S
H4315 C4328 0.960 . S
C4316 H4308 0.929 . S
C4316 C4317 1.377 . S
C4316 C4318 1.384 . S
C4317 C4316 1.377 . S
C4317 C4323 1.390 . S
C4318 H4309 0.930 . S
C4318 C4316 1.384 . S
C4318 C4319 1.372 . S
C4319 C4318 1.372 . S
C4319 C4320 1.400 . S
C4319 C4324 1.490 . S
C4320 H4310 0.930 . S
C4320 C4319 1.400 . S
C4320 C4323 1.386 . S
H4321 C4337 0.930 . S
H4322 C4338 0.931 . S
C4323 H4311 0.929 . S
C4323 C4317 1.390 . S
C4323 C4320 1.386 . S
C4324 C4319 1.490 . S
C4324 C4326 1.395 . S
C4324 C4327 1.403 . S
H4325 C4331 0.930 . S
C4326 H4312 0.930 . S
C4326 C4324 1.395 . S
C4326 C4329 1.403 . S
C4327 C4324 1.403 . S
C4327 C4328 1.524 . S
C4327 C4331 1.400 . S
C4328 H4313 0.960 . S
C4328 H4314 0.960 . S
C4328 H4315 0.960 . S
C4328 C4327 1.524 . S
C4329 C4326 1.403 . S
C4329 C4330 1.392 . S
C4329 C4333 1.495 . S
C4330 C4329 1.392 . S
C4330 C4331 1.385 . S
C4330 C4332 1.478 . S
C4331 H4325 0.930 . S
C4331 C4327 1.400 . S
C4331 C4330 1.385 . S
C4332 C4330 1.478 . S
C4332 C4334 1.381 . S
C4332 C4338 1.383 . S
C4333 C4329 1.495 . S
C4333 H4339 0.959 . S
C4333 H4340 0.961 . S
C4333 H4341 0.960 . S
C4334 C4332 1.381 . S
C4334 C4335 1.394 . S
C4334 H4342 0.930 . S
C4335 C4334 1.394 . S
C4335 C4336 1.383 . S
C4335 H4343 0.929 . S
C4336 C4335 1.383 . S
C4336 C4337 1.377 . S
C4337 H4321 0.930 . S
C4337 C4336 1.377 . S
C4337 C4338 1.379 . S
C4338 H4322 0.931 . S
C4338 C4332 1.383 . S
C4338 C4337 1.379 . S
H4339 C4333 0.959 . S
H4340 C4333 0.961 . S
H4341 C4333 0.960 . S
H4342 C4334 0.930 . S
H4343 C4335 0.929 . S
H4344 C4352 0.929 . S
H4345 C4354 0.930 . S
H4346 C4356 0.930 . S
H4347 C4359 0.929 . S
H4348 C4362 0.930 . S
H4349 C4364 0.960 . S
H4350 C4364 0.960 . S
H4351 C4364 0.960 . S
C4352 H4344 0.929 . S
C4352 C4353 1.377 . S
C4352 C4354 1.384 . S
C4353 C4352 1.377 . S
C4353 C4359 1.390 . S
C4354 H4345 0.930 . S
C4354 C4352 1.384 . S
C4354 C4355 1.372 . S
C4355 C4354 1.372 . S
C4355 C4356 1.400 . S
C4355 C4360 1.490 . S
C4356 H4346 0.930 . S
C4356 C4355 1.400 . S
C4356 C4359 1.386 . S
H4357 C4373 0.930 . S
H4358 C4374 0.931 . S
C4359 H4347 0.929 . S
C4359 C4353 1.390 . S
C4359 C4356 1.386 . S
C4360 C4355 1.490 . S
C4360 C4362 1.395 . S
C4360 C4363 1.403 . S
H4361 C4367 0.930 . S
C4362 H4348 0.930 . S
C4362 C4360 1.395 . S
C4362 C4365 1.403 . S
C4363 C4360 1.403 . S
C4363 C4364 1.524 . S
C4363 C4367 1.400 . S
C4364 H4349 0.960 . S
C4364 H4350 0.960 . S
C4364 H4351 0.960 . S
C4364 C4363 1.524 . S
C4365 C4362 1.403 . S
C4365 C4366 1.392 . S
C4365 C4369 1.495 . S
C4366 C4365 1.392 . S
C4366 C4367 1.385 . S
C4366 C4368 1.478 . S
C4367 H4361 0.930 . S
C4367 C4363 1.400 . S
C4367 C4366 1.385 . S
C4368 C4366 1.478 . S
C4368 C4370 1.381 . S
C4368 C4374 1.383 . S
C4369 C4365 1.495 . S
C4369 H4375 0.959 . S
C4369 H4376 0.961 . S
C4369 H4377 0.960 . S
C4370 C4368 1.381 . S
C4370 C4371 1.394 . S
C4370 H4378 0.930 . S
C4371 C4370 1.394 . S
C4371 C4372 1.383 . S
C4371 H4379 0.929 . S
C4372 C4371 1.383 . S
C4372 C4373 1.377 . S
C4373 H4357 0.930 . S
C4373 C4372 1.377 . S
C4373 C4374 1.379 . S
C4374 H4358 0.931 . S
C4374 C4368 1.383 . S
C4374 C4373 1.379 . S
H4375 C4369 0.959 . S
H4376 C4369 0.961 . S
H4377 C4369 0.960 . S
H4378 C4370 0.930 . S
H4379 C4371 0.929 . S
H4380 C4388 0.929 . S
H4381 C4390 0.930 . S
H4382 C4392 0.930 . S
H4383 C4395 0.929 . S
H4384 C4398 0.930 . S
H4385 C4400 0.960 . S
H4386 C4400 0.960 . S
H4387 C4400 0.960 . S
C4388 H4380 0.929 . S
C4388 C4389 1.377 . S
C4388 C4390 1.384 . S
C4389 C4388 1.377 . S
C4389 C4395 1.390 . S
C4390 H4381 0.930 . S
C4390 C4388 1.384 . S
C4390 C4391 1.372 . S
C4391 C4390 1.372 . S
C4391 C4392 1.400 . S
C4391 C4396 1.490 . S
C4392 H4382 0.930 . S
C4392 C4391 1.400 . S
C4392 C4395 1.386 . S
H4393 C4409 0.930 . S
H4394 C4410 0.931 . S
C4395 H4383 0.929 . S
C4395 C4389 1.390 . S
C4395 C4392 1.386 . S
C4396 C4391 1.490 . S
C4396 C4398 1.395 . S
C4396 C4399 1.403 . S
H4397 C4403 0.930 . S
C4398 H4384 0.930 . S
C4398 C4396 1.395 . S
C4398 C4401 1.403 . S
C4399 C4396 1.403 . S
C4399 C4400 1.524 . S
C4399 C4403 1.400 . S
C4400 H4385 0.960 . S
C4400 H4386 0.960 . S
C4400 H4387 0.960 . S
C4400 C4399 1.524 . S
C4401 C4398 1.403 . S
C4401 C4402 1.392 . S
C4401 C4405 1.495 . S
C4402 C4401 1.392 . S
C4402 C4403 1.385 . S
C4402 C4404 1.478 . S
C4403 H4397 0.930 . S
C4403 C4399 1.400 . S
C4403 C4402 1.385 . S
C4404 C4402 1.478 . S
C4404 C4406 1.381 . S
C4404 C4410 1.383 . S
C4405 C4401 1.495 . S
C4405 H4411 0.959 . S
C4405 H4412 0.961 . S
C4405 H4413 0.960 . S
C4406 C4404 1.381 . S
C4406 C4407 1.394 . S
C4406 H4414 0.930 . S
C4407 C4406 1.394 . S
C4407 C4408 1.383 . S
C4407 H4415 0.929 . S
C4408 C4407 1.383 . S
C4408 C4409 1.377 . S
C4409 H4393 0.930 . S
C4409 C4408 1.377 . S
C4409 C4410 1.379 . S
C4410 H4394 0.931 . S
C4410 C4404 1.383 . S
C4410 C4409 1.379 . S
H4411 C4405 0.959 . S
H4412 C4405 0.961 . S
H4413 C4405 0.960 . S
H4414 C4406 0.930 . S
H4415 C4407 0.929 . S
H4416 C4424 0.929 . S
H4417 C4426 0.930 . S
H4418 C4428 0.930 . S
H4419 C4431 0.929 . S
H4420 C4434 0.930 . S
H4421 C4436 0.960 . S
H4422 C4436 0.960 . S
H4423 C4436 0.960 . S
C4424 H4416 0.929 . S
C4424 C4425 1.377 . S
C4424 C4426 1.384 . S
C4425 C4424 1.377 . S
C4425 C4431 1.390 . S
C4426 H4417 0.930 . S
C4426 C4424 1.384 . S
C4426 C4427 1.372 . S
C4427 C4426 1.372 . S
C4427 C4428 1.400 . S
C4427 C4432 1.490 . S
C4428 H4418 0.930 . S
C4428 C4427 1.400 . S
C4428 C4431 1.386 . S
H4429 C4445 0.930 . S
H4430 C4446 0.931 . S
C4431 H4419 0.929 . S
C4431 C4425 1.390 . S
C4431 C4428 1.386 . S
C4432 C4427 1.490 . S
C4432 C4434 1.395 . S
C4432 C4435 1.403 . S
H4433 C4439 0.930 . S
C4434 H4420 0.930 . S
C4434 C4432 1.395 . S
C4434 C4437 1.403 . S
C4435 C4432 1.403 . S
C4435 C4436 1.524 . S
C4435 C4439 1.400 . S
C4436 H4421 0.960 . S
C4436 H4422 0.960 . S
C4436 H4423 0.960 . S
C4436 C4435 1.524 . S
C4437 C4434 1.403 . S
C4437 C4438 1.392 . S
C4437 C4441 1.495 . S
C4438 C4437 1.392 . S
C4438 C4439 1.385 . S
C4438 C4440 1.478 . S
C4439 H4433 0.930 . S
C4439 C4435 1.400 . S
C4439 C4438 1.385 . S
C4440 C4438 1.478 . S
C4440 C4442 1.381 . S
C4440 C4446 1.383 . S
C4441 C4437 1.495 . S
C4441 H4447 0.959 . S
C4441 H4448 0.961 . S
C4441 H4449 0.960 . S
C4442 C4440 1.381 . S
C4442 C4443 1.394 . S
C4442 H4450 0.930 . S
C4443 C4442 1.394 . S
C4443 C4444 1.383 . S
C4443 H4451 0.929 . S
C4444 C4443 1.383 . S
C4444 C4445 1.377 . S
C4445 H4429 0.930 . S
C4445 C4444 1.377 . S
C4445 C4446 1.379 . S
C4446 H4430 0.931 . S
C4446 C4440 1.383 . S
C4446 C4445 1.379 . S
H4447 C4441 0.959 . S
H4448 C4441 0.961 . S
H4449 C4441 0.960 . S
H4450 C4442 0.930 . S
H4451 C4443 0.929 . S
H4452 C4460 0.929 . S
H4453 C4462 0.930 . S
H4454 C4464 0.930 . S
H4455 C4467 0.929 . S
H4456 C4470 0.930 . S
H4457 C4472 0.960 . S
H4458 C4472 0.960 . S
H4459 C4472 0.960 . S
C4460 H4452 0.929 . S
C4460 C4461 1.377 . S
C4460 C4462 1.384 . S
C4461 C4460 1.377 . S
C4461 C4467 1.390 . S
C4462 H4453 0.930 . S
C4462 C4460 1.384 . S
C4462 C4463 1.372 . S
C4463 C4462 1.372 . S
C4463 C4464 1.400 . S
C4463 C4468 1.490 . S
C4464 H4454 0.930 . S
C4464 C4463 1.400 . S
C4464 C4467 1.386 . S
H4465 C4481 0.930 . S
H4466 C4482 0.931 . S
C4467 H4455 0.929 . S
C4467 C4461 1.390 . S
C4467 C4464 1.386 . S
C4468 C4463 1.490 . S
C4468 C4470 1.395 . S
C4468 C4471 1.403 . S
H4469 C4475 0.930 . S
C4470 H4456 0.930 . S
C4470 C4468 1.395 . S
C4470 C4473 1.403 . S
C4471 C4468 1.403 . S
C4471 C4472 1.524 . S
C4471 C4475 1.400 . S
C4472 H4457 0.960 . S
C4472 H4458 0.960 . S
C4472 H4459 0.960 . S
C4472 C4471 1.524 . S
C4473 C4470 1.403 . S
C4473 C4474 1.392 . S
C4473 C4477 1.495 . S
C4474 C4473 1.392 . S
C4474 C4475 1.385 . S
C4474 C4476 1.478 . S
C4475 H4469 0.930 . S
C4475 C4471 1.400 . S
C4475 C4474 1.385 . S
C4476 C4474 1.478 . S
C4476 C4478 1.381 . S
C4476 C4482 1.383 . S
C4477 C4473 1.495 . S
C4477 H4483 0.959 . S
C4477 H4484 0.961 . S
C4477 H4485 0.960 . S
C4478 C4476 1.381 . S
C4478 C4479 1.394 . S
C4478 H4486 0.930 . S
C4479 C4478 1.394 . S
C4479 C4480 1.383 . S
C4479 H4487 0.929 . S
C4480 C4479 1.383 . S
C4480 C4481 1.377 . S
C4481 H4465 0.930 . S
C4481 C4480 1.377 . S
C4481 C4482 1.379 . S
C4482 H4466 0.931 . S
C4482 C4476 1.383 . S
C4482 C4481 1.379 . S
H4483 C4477 0.959 . S
H4484 C4477 0.961 . S
H4485 C4477 0.960 . S
H4486 C4478 0.930 . S
H4487 C4479 0.929 . S
H4488 C4496 0.929 . S
H4489 C4498 0.930 . S
H4490 C4500 0.930 . S
H4491 C4503 0.929 . S
H4492 C4506 0.930 . S
H4493 C4508 0.960 1_655 S
H4494 C4508 0.960 . S
H4495 C4508 0.945 1_655 S
C4496 H4488 0.929 . S
C4496 C4497 1.377 . S
C4496 C4498 1.384 . S
C4497 C4496 1.377 . S
C4497 C4503 1.390 . S
C4498 H4489 0.930 . S
C4498 C4496 1.384 . S
C4498 C4499 1.372 . S
C4499 C4498 1.372 . S
C4499 C4500 1.400 . S
C4499 C4504 1.490 . S
C4500 H4490 0.930 . S
C4500 C4499 1.400 . S
C4500 C4503 1.386 . S
H4501 C4517 0.930 . S
H4502 C4518 0.931 . S
C4503 H4491 0.929 . S
C4503 C4497 1.390 . S
C4503 C4500 1.386 . S
C4504 C4499 1.490 . S
C4504 C4506 1.395 . S
C4504 C4507 1.403 . S
H4505 C4511 0.930 . S
C4506 H4492 0.930 . S
C4506 C4504 1.395 . S
C4506 C4509 1.403 . S
C4507 C4504 1.403 . S
C4507 C4508 1.524 . S
C4507 C4511 1.400 . S
C4508 H4493 0.960 1_455 S
C4508 H4494 0.960 . S
C4508 H4495 0.945 1_455 S
C4508 C4507 1.524 . S
C4509 C4506 1.403 . S
C4509 C4510 1.392 . S
C4509 C4513 1.495 . S
C4510 C4509 1.392 . S
C4510 C4511 1.385 . S
C4510 C4512 1.478 . S
C4511 H4505 0.930 . S
C4511 C4507 1.400 . S
C4511 C4510 1.385 . S
C4512 C4510 1.478 . S
C4512 C4514 1.381 . S
C4512 C4518 1.383 . S
C4513 C4509 1.495 . S
C4513 H4519 0.959 . S
C4513 H4520 0.961 . S
C4513 H4521 0.960 . S
C4514 C4512 1.381 . S
C4514 C4515 1.394 . S
C4514 H4522 0.930 . S
C4515 C4514 1.394 . S
C4515 C4516 1.383 . S
C4515 H4523 0.929 . S
C4516 C4515 1.383 . S
C4516 C4517 1.377 . S
C4517 H4501 0.930 . S
C4517 C4516 1.377 . S
C4517 C4518 1.379 . S
C4518 H4502 0.931 . S
C4518 C4512 1.383 . S
C4518 C4517 1.379 . S
H4519 C4513 0.959 . S
H4520 C4513 0.961 . S
H4521 C4513 0.960 . S
H4522 C4514 0.930 . S
H4523 C4515 0.929 . S
H4524 C4532 0.929 . S
H4525 C4534 0.930 . S
H4526 C4536 0.930 . S
H4527 C4539 0.929 . S
H4528 C4542 0.930 . S
H4529 C4544 0.960 . S
H4530 C4544 0.960 . S
H4531 C4544 0.960 . S
C4532 H4524 0.929 . S
C4532 C4533 1.377 . S
C4532 C4534 1.384 . S
C4533 C4532 1.377 . S
C4533 C4539 1.390 . S
C4534 H4525 0.930 . S
C4534 C4532 1.384 . S
C4534 C4535 1.372 . S
C4535 C4534 1.372 . S
C4535 C4536 1.400 . S
C4535 C4540 1.490 . S
C4536 H4526 0.930 . S
C4536 C4535 1.400 . S
C4536 C4539 1.386 . S
H4537 C4553 0.930 . S
H4538 C4554 0.931 . S
C4539 H4527 0.929 . S
C4539 C4533 1.390 . S
C4539 C4536 1.386 . S
C4540 C4535 1.490 . S
C4540 C4542 1.395 . S
C4540 C4543 1.403 . S
H4541 C4547 0.930 . S
C4542 H4528 0.930 . S
C4542 C4540 1.395 . S
C4542 C4545 1.403 . S
C4543 C4540 1.403 . S
C4543 C4544 1.524 . S
C4543 C4547 1.400 . S
C4544 H4529 0.960 . S
C4544 H4530 0.960 . S
C4544 H4531 0.960 . S
C4544 C4543 1.524 . S
C4545 C4542 1.403 . S
C4545 C4546 1.392 . S
C4545 C4549 1.495 . S
C4546 C4545 1.392 . S
C4546 C4547 1.385 . S
C4546 C4548 1.478 . S
C4547 H4541 0.930 . S
C4547 C4543 1.400 . S
C4547 C4546 1.385 . S
C4548 C4546 1.478 . S
C4548 C4550 1.381 . S
C4548 C4554 1.383 . S
C4549 C4545 1.495 . S
C4549 H4555 0.959 . S
C4549 H4556 0.961 . S
C4549 H4557 0.960 . S
C4550 C4548 1.381 . S
C4550 C4551 1.394 . S
C4550 H4558 0.930 . S
C4551 C4550 1.394 . S
C4551 C4552 1.383 . S
C4551 H4559 0.929 . S
C4552 C4551 1.383 . S
C4552 C4553 1.377 . S
C4553 H4537 0.930 . S
C4553 C4552 1.377 . S
C4553 C4554 1.379 . S
C4554 H4538 0.931 . S
C4554 C4548 1.383 . S
C4554 C4553 1.379 . S
H4555 C4549 0.959 . S
H4556 C4549 0.961 . S
H4557 C4549 0.960 . S
H4558 C4550 0.930 . S
H4559 C4551 0.929 . S
H4560 C4568 0.929 . S
H4561 C4570 0.930 . S
H4562 C4572 0.930 . S
H4563 C4575 0.929 . S
H4564 C4578 0.930 . S
H4565 C4580 0.960 . S
H4566 C4580 0.960 . S
H4567 C4580 0.960 . S
C4568 H4560 0.929 . S
C4568 C4569 1.377 . S
C4568 C4570 1.384 . S
C4569 C4568 1.377 . S
C4569 C4575 1.390 . S
C4570 H4561 0.930 . S
C4570 C4568 1.384 . S
C4570 C4571 1.372 . S
C4571 C4570 1.372 . S
C4571 C4572 1.400 . S
C4571 C4576 1.490 . S
C4572 H4562 0.930 . S
C4572 C4571 1.400 . S
C4572 C4575 1.386 . S
H4573 C4589 0.930 . S
H4574 C4590 0.931 . S
C4575 H4563 0.929 . S
C4575 C4569 1.390 . S
C4575 C4572 1.386 . S
C4576 C4571 1.490 . S
C4576 C4578 1.395 . S
C4576 C4579 1.403 . S
H4577 C4583 0.930 . S
C4578 H4564 0.930 . S
C4578 C4576 1.395 . S
C4578 C4581 1.403 . S
C4579 C4576 1.403 . S
C4579 C4580 1.524 . S
C4579 C4583 1.400 . S
C4580 H4565 0.960 . S
C4580 H4566 0.960 . S
C4580 H4567 0.960 . S
C4580 C4579 1.524 . S
C4581 C4578 1.403 . S
C4581 C4582 1.392 . S
C4581 C4585 1.495 . S
C4582 C4581 1.392 . S
C4582 C4583 1.385 . S
C4582 C4584 1.478 . S
C4583 H4577 0.930 . S
C4583 C4579 1.400 . S
C4583 C4582 1.385 . S
C4584 C4582 1.478 . S
C4584 C4586 1.381 . S
C4584 C4590 1.383 . S
C4585 C4581 1.495 . S
C4585 H4591 0.959 . S
C4585 H4592 0.961 . S
C4585 H4593 0.960 . S
C4586 C4584 1.381 . S
C4586 C4587 1.394 . S
C4586 H4594 0.930 . S
C4587 C4586 1.394 . S
C4587 C4588 1.383 . S
C4587 H4595 0.929 . S
C4588 C4587 1.383 . S
C4588 C4589 1.377 . S
C4589 H4573 0.930 . S
C4589 C4588 1.377 . S
C4589 C4590 1.379 . S
C4590 H4574 0.931 . S
C4590 C4584 1.383 . S
C4590 C4589 1.379 . S
H4591 C4585 0.959 . S
H4592 C4585 0.961 . S
H4593 C4585 0.960 . S
H4594 C4586 0.930 . S
H4595 C4587 0.929 . S
H4596 C4604 0.929 . S
H4597 C4606 0.930 . S
H4598 C4608 0.930 . S
H4599 C4611 0.929 . S
H4600 C4614 0.930 . S
H4601 C4616 0.960 . S
H4602 C4616 0.960 . S
H4603 C4616 0.960 . S
C4604 H4596 0.929 . S
C4604 C4605 1.377 . S
C4604 C4606 1.384 . S
C4605 C4604 1.377 . S
C4605 C4611 1.390 . S
C4606 H4597 0.930 . S
C4606 C4604 1.384 . S
C4606 C4607 1.372 . S
C4607 C4606 1.372 . S
C4607 C4608 1.400 . S
C4607 C4612 1.490 . S
C4608 H4598 0.930 . S
C4608 C4607 1.400 . S
C4608 C4611 1.386 . S
H4609 C4625 0.930 . S
H4610 C4626 0.931 . S
C4611 H4599 0.929 . S
C4611 C4605 1.390 . S
C4611 C4608 1.386 . S
C4612 C4607 1.490 . S
C4612 C4614 1.395 . S
C4612 C4615 1.403 . S
H4613 C4619 0.930 . S
C4614 H4600 0.930 . S
C4614 C4612 1.395 . S
C4614 C4617 1.403 . S
C4615 C4612 1.403 . S
C4615 C4616 1.524 . S
C4615 C4619 1.400 . S
C4616 H4601 0.960 . S
C4616 H4602 0.960 . S
C4616 H4603 0.960 . S
C4616 C4615 1.524 . S
C4617 C4614 1.403 . S
C4617 C4618 1.392 . S
C4617 C4621 1.495 . S
C4618 C4617 1.392 . S
C4618 C4619 1.385 . S
C4618 C4620 1.478 . S
C4619 H4613 0.930 . S
C4619 C4615 1.400 . S
C4619 C4618 1.385 . S
C4620 C4618 1.478 . S
C4620 C4622 1.381 . S
C4620 C4626 1.383 . S
C4621 C4617 1.495 . S
C4621 H4627 0.959 . S
C4621 H4628 0.961 . S
C4621 H4629 0.960 . S
C4622 C4620 1.381 . S
C4622 C4623 1.394 . S
C4622 H4630 0.930 . S
C4623 C4622 1.394 . S
C4623 C4624 1.383 . S
C4623 H4631 0.929 . S
C4624 C4623 1.383 . S
C4624 C4625 1.377 . S
C4625 H4609 0.930 . S
C4625 C4624 1.377 . S
C4625 C4626 1.379 . S
C4626 H4610 0.931 . S
C4626 C4620 1.383 . S
C4626 C4625 1.379 . S
H4627 C4621 0.959 . S
H4628 C4621 0.961 . S
H4629 C4621 0.960 . S
H4630 C4622 0.930 . S
H4631 C4623 0.929 . S
H4632 C4640 0.929 . S
H4633 C4642 0.930 . S
H4634 C4644 0.930 . S
H4635 C4647 0.929 . S
H4636 C4650 0.930 . S
H4637 C4652 0.960 . S
H4638 C4652 0.960 . S
H4639 C4652 0.960 . S
C4640 H4632 0.929 . S
C4640 C4641 1.377 . S
C4640 C4642 1.384 . S
C4641 C4640 1.377 . S
C4641 C4647 1.390 . S
C4642 H4633 0.930 . S
C4642 C4640 1.384 . S
C4642 C4643 1.372 . S
C4643 C4642 1.372 . S
C4643 C4644 1.400 . S
C4643 C4648 1.490 . S
C4644 H4634 0.930 . S
C4644 C4643 1.400 . S
C4644 C4647 1.386 . S
H4645 C4661 0.930 . S
H4646 C4662 0.931 . S
C4647 H4635 0.929 . S
C4647 C4641 1.390 . S
C4647 C4644 1.386 . S
C4648 C4643 1.490 . S
C4648 C4650 1.395 . S
C4648 C4651 1.403 . S
H4649 C4655 0.930 . S
C4650 H4636 0.930 . S
C4650 C4648 1.395 . S
C4650 C4653 1.403 . S
C4651 C4648 1.403 . S
C4651 C4652 1.524 . S
C4651 C4655 1.400 . S
C4652 H4637 0.960 . S
C4652 H4638 0.960 . S
C4652 H4639 0.960 . S
C4652 C4651 1.524 . S
C4653 C4650 1.403 . S
C4653 C4654 1.392 . S
C4653 C4657 1.495 . S
C4654 C4653 1.392 . S
C4654 C4655 1.385 . S
C4654 C4656 1.478 . S
C4655 H4649 0.930 . S
C4655 C4651 1.400 . S
C4655 C4654 1.385 . S
C4656 C4654 1.478 . S
C4656 C4658 1.381 . S
C4656 C4662 1.383 . S
C4657 C4653 1.495 . S
C4657 H4663 0.959 . S
C4657 H4664 0.961 . S
C4657 H4665 0.960 . S
C4658 C4656 1.381 . S
C4658 C4659 1.394 1_655 S
C4658 H4666 0.930 . S
C4659 C4658 1.394 1_455 S
C4659 C4660 1.383 1_455 S
C4659 H4667 0.929 . S
C4660 C4659 1.383 1_655 S
C4660 C4661 1.377 . S
C4661 H4645 0.930 . S
C4661 C4660 1.377 . S
C4661 C4662 1.379 . S
C4662 H4646 0.931 . S
C4662 C4656 1.383 . S
C4662 C4661 1.379 . S
H4663 C4657 0.959 . S
H4664 C4657 0.961 . S
H4665 C4657 0.960 . S
H4666 C4658 0.930 . S
H4667 C4659 0.929 . S
H4668 C4676 0.929 . S
H4669 C4678 0.930 . S
H4670 C4680 0.930 . S
H4671 C4683 0.929 . S
H4672 C4686 0.930 . S
H4673 C4688 0.960 . S
H4674 C4688 0.960 . S
H4675 C4688 0.960 . S
C4676 H4668 0.929 . S
C4676 C4677 1.377 . S
C4676 C4678 1.384 . S
C4677 C4676 1.377 . S
C4677 C4683 1.390 . S
C4678 H4669 0.930 . S
C4678 C4676 1.384 . S
C4678 C4679 1.372 . S
C4679 C4678 1.372 . S
C4679 C4680 1.400 . S
C4679 C4684 1.490 . S
C4680 H4670 0.930 . S
C4680 C4679 1.400 . S
C4680 C4683 1.386 . S
H4681 C4697 0.930 . S
H4682 C4698 0.931 . S
C4683 H4671 0.929 . S
C4683 C4677 1.390 . S
C4683 C4680 1.386 . S
C4684 C4679 1.490 . S
C4684 C4686 1.395 . S
C4684 C4687 1.403 . S
H4685 C4691 0.930 . S
C4686 H4672 0.930 . S
C4686 C4684 1.395 . S
C4686 C4689 1.403 . S
C4687 C4684 1.403 . S
C4687 C4688 1.524 . S
C4687 C4691 1.400 . S
C4688 H4673 0.960 . S
C4688 H4674 0.960 . S
C4688 H4675 0.960 . S
C4688 C4687 1.524 . S
C4689 C4686 1.403 . S
C4689 C4690 1.392 . S
C4689 C4693 1.495 . S
C4690 C4689 1.392 . S
C4690 C4691 1.385 . S
C4690 C4692 1.478 . S
C4691 H4685 0.930 . S
C4691 C4687 1.400 . S
C4691 C4690 1.385 . S
C4692 C4690 1.478 . S
C4692 C4694 1.381 . S
C4692 C4698 1.383 . S
C4693 C4689 1.495 . S
C4693 H4699 0.959 . S
C4693 H4700 0.961 . S
C4693 H4701 0.960 . S
C4694 C4692 1.381 . S
C4694 C4695 1.394 . S
C4694 H4702 0.930 . S
C4695 C4694 1.394 . S
C4695 C4696 1.383 . S
C4695 H4703 0.929 . S
C4696 C4695 1.383 . S
C4696 C4697 1.377 . S
C4697 H4681 0.930 . S
C4697 C4696 1.377 . S
C4697 C4698 1.379 . S
C4698 H4682 0.931 . S
C4698 C4692 1.383 . S
C4698 C4697 1.379 . S
H4699 C4693 0.959 . S
H4700 C4693 0.961 . S
H4701 C4693 0.960 . S
H4702 C4694 0.930 . S
H4703 C4695 0.929 . S
H4704 C4712 0.929 . S
H4705 C4714 0.930 . S
H4706 C4716 0.930 . S
H4707 C4719 0.929 . S
H4708 C4722 0.930 . S
H4709 C4724 0.960 . S
H4710 C4724 0.960 . S
H4711 C4724 0.960 . S
C4712 H4704 0.929 . S
C4712 C4713 1.377 . S
C4712 C4714 1.384 . S
C4713 C4712 1.377 . S
C4713 C4719 1.390 . S
C4714 H4705 0.930 . S
C4714 C4712 1.384 . S
C4714 C4715 1.372 . S
C4715 C4714 1.372 . S
C4715 C4716 1.400 . S
C4715 C4720 1.490 . S
C4716 H4706 0.930 . S
C4716 C4715 1.400 . S
C4716 C4719 1.386 . S
H4717 C4733 0.930 . S
H4718 C4734 0.931 . S
C4719 H4707 0.929 . S
C4719 C4713 1.390 . S
C4719 C4716 1.386 . S
C4720 C4715 1.490 . S
C4720 C4722 1.395 . S
C4720 C4723 1.403 . S
H4721 C4727 0.930 . S
C4722 H4708 0.930 . S
C4722 C4720 1.395 . S
C4722 C4725 1.403 . S
C4723 C4720 1.403 . S
C4723 C4724 1.524 . S
C4723 C4727 1.400 . S
C4724 H4709 0.960 . S
C4724 H4710 0.960 . S
C4724 H4711 0.960 . S
C4724 C4723 1.524 . S
C4725 C4722 1.403 . S
C4725 C4726 1.392 . S
C4725 C4729 1.495 . S
C4726 C4725 1.392 . S
C4726 C4727 1.385 . S
C4726 C4728 1.478 . S
C4727 H4721 0.930 . S
C4727 C4723 1.400 . S
C4727 C4726 1.385 . S
C4728 C4726 1.478 . S
C4728 C4730 1.381 . S
C4728 C4734 1.383 . S
C4729 C4725 1.495 . S
C4729 H4735 0.959 . S
C4729 H4736 0.961 . S
C4729 H4737 0.960 . S
C4730 C4728 1.381 . S
C4730 C4731 1.394 . S
C4730 H4738 0.930 . S
C4731 C4730 1.394 . S
C4731 C4732 1.383 . S
C4731 H4739 0.929 . S
C4732 C4731 1.383 . S
C4732 C4733 1.377 . S
C4733 H4717 0.930 . S
C4733 C4732 1.377 . S
C4733 C4734 1.379 . S
C4734 H4718 0.931 . S
C4734 C4728 1.383 . S
C4734 C4733 1.379 . S
H4735 C4729 0.959 . S
H4736 C4729 0.961 . S
H4737 C4729 0.960 . S
H4738 C4730 0.930 . S
H4739 C4731 0.929 . S
H4740 C4748 0.929 . S
H4741 C4750 0.930 . S
H4742 C4752 0.930 . S
H4743 C4755 0.929 . S
H4744 C4758 0.930 . S
H4745 C4760 0.960 . S
H4746 C4760 0.960 . S
H4747 C4760 0.960 . S
C4748 H4740 0.929 . S
C4748 C4749 1.377 . S
C4748 C4750 1.384 . S
C4749 C4748 1.377 . S
C4749 C4755 1.390 . S
C4750 H4741 0.930 . S
C4750 C4748 1.384 . S
C4750 C4751 1.372 . S
C4751 C4750 1.372 . S
C4751 C4752 1.400 . S
C4751 C4756 1.490 . S
C4752 H4742 0.930 . S
C4752 C4751 1.400 . S
C4752 C4755 1.386 . S
H4753 C4769 0.930 . S
H4754 C4770 0.931 . S
C4755 H4743 0.929 . S
C4755 C4749 1.390 . S
C4755 C4752 1.386 . S
C4756 C4751 1.490 . S
C4756 C4758 1.395 . S
C4756 C4759 1.403 . S
H4757 C4763 0.930 . S
C4758 H4744 0.930 . S
C4758 C4756 1.395 . S
C4758 C4761 1.403 . S
C4759 C4756 1.403 . S
C4759 C4760 1.524 . S
C4759 C4763 1.400 . S
C4760 H4745 0.960 . S
C4760 H4746 0.960 . S
C4760 H4747 0.960 . S
C4760 C4759 1.524 . S
C4761 C4758 1.403 . S
C4761 C4762 1.392 . S
C4761 C4765 1.495 . S
C4762 C4761 1.392 . S
C4762 C4763 1.385 . S
C4762 C4764 1.478 . S
C4763 H4757 0.930 . S
C4763 C4759 1.400 . S
C4763 C4762 1.385 . S
C4764 C4762 1.478 . S
C4764 C4766 1.381 . S
C4764 C4770 1.383 . S
C4765 C4761 1.495 . S
C4765 H4771 0.959 . S
C4765 H4772 0.961 . S
C4765 H4773 0.960 . S
C4766 C4764 1.381 . S
C4766 C4767 1.394 . S
C4766 H4774 0.930 . S
C4767 C4766 1.394 . S
C4767 C4768 1.383 . S
C4767 H4775 0.929 . S
C4768 C4767 1.383 . S
C4768 C4769 1.377 . S
C4769 H4753 0.930 . S
C4769 C4768 1.377 . S
C4769 C4770 1.379 . S
C4770 H4754 0.931 . S
C4770 C4764 1.383 . S
C4770 C4769 1.379 . S
H4771 C4765 0.959 . S
H4772 C4765 0.961 . S
H4773 C4765 0.960 . S
H4774 C4766 0.930 . S
H4775 C4767 0.929 . S
H4776 C4784 0.929 . S
H4777 C4786 0.930 . S
H4778 C4788 0.930 . S
H4779 C4791 0.929 . S
H4780 C4794 0.930 . S
H4781 C4796 0.960 . S
H4782 C4796 0.960 . S
H4783 C4796 0.960 . S
C4784 H4776 0.929 . S
C4784 C4785 1.377 . S
C4784 C4786 1.384 . S
C4785 C4784 1.377 . S
C4785 C4791 1.390 . S
C4786 H4777 0.930 . S
C4786 C4784 1.384 . S
C4786 C4787 1.372 . S
C4787 C4786 1.372 . S
C4787 C4788 1.400 . S
C4787 C4792 1.490 . S
C4788 H4778 0.930 . S
C4788 C4787 1.400 . S
C4788 C4791 1.386 . S
H4789 C4805 0.930 . S
H4790 C4806 0.931 . S
C4791 H4779 0.929 . S
C4791 C4785 1.390 . S
C4791 C4788 1.386 . S
C4792 C4787 1.490 . S
C4792 C4794 1.395 . S
C4792 C4795 1.403 . S
H4793 C4799 0.930 . S
C4794 H4780 0.930 . S
C4794 C4792 1.395 . S
C4794 C4797 1.403 . S
C4795 C4792 1.403 . S
C4795 C4796 1.524 . S
C4795 C4799 1.400 . S
C4796 H4781 0.960 . S
C4796 H4782 0.960 . S
C4796 H4783 0.960 . S
C4796 C4795 1.524 . S
C4797 C4794 1.403 . S
C4797 C4798 1.392 . S
C4797 C4801 1.495 . S
C4798 C4797 1.392 . S
C4798 C4799 1.385 . S
C4798 C4800 1.478 . S
C4799 H4793 0.930 . S
C4799 C4795 1.400 . S
C4799 C4798 1.385 . S
C4800 C4798 1.478 . S
C4800 C4802 1.381 . S
C4800 C4806 1.383 . S
C4801 C4797 1.495 . S
C4801 H4807 0.959 . S
C4801 H4808 0.961 . S
C4801 H4809 0.960 . S
C4802 C4800 1.381 . S
C4802 C4803 1.394 . S
C4802 H4810 0.930 . S
C4803 C4802 1.394 . S
C4803 C4804 1.383 . S
C4803 H4811 0.929 . S
C4804 C4803 1.383 . S
C4804 C4805 1.377 . S
C4805 H4789 0.930 . S
C4805 C4804 1.377 . S
C4805 C4806 1.379 . S
C4806 H4790 0.931 . S
C4806 C4800 1.383 . S
C4806 C4805 1.379 . S
H4807 C4801 0.959 . S
H4808 C4801 0.961 . S
H4809 C4801 0.960 . S
H4810 C4802 0.930 . S
H4811 C4803 0.929 . S
H4812 C4820 0.929 . S
H4813 C4822 0.930 . S
H4814 C4824 0.930 . S
H4815 C4827 0.929 . S
H4816 C4830 0.930 . S
H4817 C4832 0.960 . S
H4818 C4832 0.960 . S
H4819 C4832 0.960 . S
C4820 H4812 0.929 . S
C4820 C4821 1.377 . S
C4820 C4822 1.384 . S
C4821 C4820 1.377 . S
C4821 C4827 1.390 . S
C4822 H4813 0.930 . S
C4822 C4820 1.384 . S
C4822 C4823 1.372 . S
C4823 C4822 1.372 . S
C4823 C4824 1.400 . S
C4823 C4828 1.490 . S
C4824 H4814 0.930 . S
C4824 C4823 1.400 . S
C4824 C4827 1.386 . S
H4825 C4841 0.930 . S
H4826 C4842 0.931 . S
C4827 H4815 0.929 . S
C4827 C4821 1.390 . S
C4827 C4824 1.386 . S
C4828 C4823 1.490 . S
C4828 C4830 1.395 . S
C4828 C4831 1.403 . S
H4829 C4835 0.930 . S
C4830 H4816 0.930 . S
C4830 C4828 1.395 . S
C4830 C4833 1.403 . S
C4831 C4828 1.403 . S
C4831 C4832 1.524 . S
C4831 C4835 1.400 . S
C4832 H4817 0.960 . S
C4832 H4818 0.960 . S
C4832 H4819 0.960 . S
C4832 C4831 1.524 . S
C4833 C4830 1.403 . S
C4833 C4834 1.392 . S
C4833 C4837 1.495 . S
C4834 C4833 1.392 . S
C4834 C4835 1.385 . S
C4834 C4836 1.478 . S
C4835 H4829 0.930 . S
C4835 C4831 1.400 . S
C4835 C4834 1.385 . S
C4836 C4834 1.478 . S
C4836 C4838 1.381 . S
C4836 C4842 1.383 . S
C4837 C4833 1.495 . S
C4837 H4843 0.959 . S
C4837 H4844 0.961 . S
C4837 H4845 0.960 . S
C4838 C4836 1.381 . S
C4838 C4839 1.394 . S
C4838 H4846 0.930 . S
C4839 C4838 1.394 . S
C4839 C4840 1.383 . S
C4839 H4847 0.929 . S
C4840 C4839 1.383 . S
C4840 C4841 1.377 . S
C4841 H4825 0.930 . S
C4841 C4840 1.377 . S
C4841 C4842 1.379 . S
C4842 H4826 0.931 . S
C4842 C4836 1.383 . S
C4842 C4841 1.379 . S
H4843 C4837 0.959 . S
H4844 C4837 0.961 . S
H4845 C4837 0.960 . S
H4846 C4838 0.930 . S
H4847 C4839 0.929 . S
H4848 C4856 0.929 . S
H4849 C4858 0.930 . S
H4850 C4860 0.930 . S
H4851 C4863 0.929 . S
H4852 C4866 0.930 . S
H4853 C4868 0.960 . S
H4854 C4868 0.960 . S
H4855 C4868 0.960 . S
C4856 H4848 0.929 . S
C4856 C4857 1.377 . S
C4856 C4858 1.384 . S
C4857 C4856 1.377 . S
C4857 C4863 1.390 . S
C4858 H4849 0.930 . S
C4858 C4856 1.384 . S
C4858 C4859 1.372 . S
C4859 C4858 1.372 . S
C4859 C4860 1.400 . S
C4859 C4864 1.490 . S
C4860 H4850 0.930 . S
C4860 C4859 1.400 . S
C4860 C4863 1.386 . S
H4861 C4877 0.930 . S
H4862 C4878 0.931 . S
C4863 H4851 0.929 . S
C4863 C4857 1.390 . S
C4863 C4860 1.386 . S
C4864 C4859 1.490 . S
C4864 C4866 1.395 . S
C4864 C4867 1.403 . S
H4865 C4871 0.930 . S
C4866 H4852 0.930 . S
C4866 C4864 1.395 . S
C4866 C4869 1.403 . S
C4867 C4864 1.403 . S
C4867 C4868 1.524 . S
C4867 C4871 1.400 . S
C4868 H4853 0.960 . S
C4868 H4854 0.960 . S
C4868 H4855 0.960 . S
C4868 C4867 1.524 . S
C4869 C4866 1.403 . S
C4869 C4870 1.392 . S
C4869 C4873 1.495 . S
C4870 C4869 1.392 . S
C4870 C4871 1.385 . S
C4870 C4872 1.478 . S
C4871 H4865 0.930 . S
C4871 C4867 1.400 . S
C4871 C4870 1.385 . S
C4872 C4870 1.478 . S
C4872 C4874 1.381 . S
C4872 C4878 1.383 . S
C4873 C4869 1.495 . S
C4873 H4879 0.959 . S
C4873 H4880 0.961 . S
C4873 H4881 0.960 . S
C4874 C4872 1.381 . S
C4874 C4875 1.394 . S
C4874 H4882 0.930 . S
C4875 C4874 1.394 . S
C4875 C4876 1.383 . S
C4875 H4883 0.929 . S
C4876 C4875 1.383 . S
C4876 C4877 1.377 . S
C4877 H4861 0.930 . S
C4877 C4876 1.377 . S
C4877 C4878 1.379 . S
C4878 H4862 0.931 . S
C4878 C4872 1.383 . S
C4878 C4877 1.379 . S
H4879 C4873 0.959 . S
H4880 C4873 0.961 . S
H4881 C4873 0.960 . S
H4882 C4874 0.930 . S
H4883 C4875 0.929 . S
H4884 C4892 0.929 . S
H4885 C4894 0.930 . S
H4886 C4896 0.930 . S
H4887 C4899 0.929 . S
H4888 C4902 0.930 . S
H4889 C4904 0.960 . S
H4890 C4904 0.960 . S
H4891 C4904 0.960 . S
C4892 H4884 0.929 . S
C4892 C4893 1.377 . S
C4892 C4894 1.384 . S
C4893 C4892 1.377 . S
C4893 C4899 1.390 . S
C4894 H4885 0.930 . S
C4894 C4892 1.384 . S
C4894 C4895 1.372 . S
C4895 C4894 1.372 . S
C4895 C4896 1.400 . S
C4895 C4900 1.490 . S
C4896 H4886 0.930 . S
C4896 C4895 1.400 . S
C4896 C4899 1.386 . S
H4897 C4913 0.930 . S
H4898 C4914 0.931 . S
C4899 H4887 0.929 . S
C4899 C4893 1.390 . S
C4899 C4896 1.386 . S
C4900 C4895 1.490 . S
C4900 C4902 1.395 . S
C4900 C4903 1.403 . S
H4901 C4907 0.930 . S
C4902 H4888 0.930 . S
C4902 C4900 1.395 . S
C4902 C4905 1.403 . S
C4903 C4900 1.403 . S
C4903 C4904 1.524 . S
C4903 C4907 1.400 . S
C4904 H4889 0.960 . S
C4904 H4890 0.960 . S
C4904 H4891 0.960 . S
C4904 C4903 1.524 . S
C4905 C4902 1.403 . S
C4905 C4906 1.392 . S
C4905 C4909 1.495 . S
C4906 C4905 1.392 . S
C4906 C4907 1.385 . S
C4906 C4908 1.478 . S
C4907 H4901 0.930 . S
C4907 C4903 1.400 . S
C4907 C4906 1.385 . S
C4908 C4906 1.478 . S
C4908 C4910 1.381 . S
C4908 C4914 1.383 . S
C4909 C4905 1.495 . S
C4909 H4915 0.959 . S
C4909 H4916 0.961 . S
C4909 H4917 0.960 . S
C4910 C4908 1.381 . S
C4910 C4911 1.394 . S
C4910 H4918 0.930 . S
C4911 C4910 1.394 . S
C4911 C4912 1.383 . S
C4911 H4919 0.929 1_565 S
C4912 C4911 1.383 . S
C4912 C4913 1.377 . S
C4913 H4897 0.930 . S
C4913 C4912 1.377 . S
C4913 C4914 1.379 . S
C4914 H4898 0.931 . S
C4914 C4908 1.383 . S
C4914 C4913 1.379 . S
H4915 C4909 0.959 . S
H4916 C4909 0.961 . S
H4917 C4909 0.960 . S
H4918 C4910 0.930 . S
H4919 C4911 0.929 1_545 S
H4920 C4928 0.929 . S
H4921 C4930 0.930 . S
H4922 C4932 0.930 . S
H4923 C4935 0.929 . S
H4924 C4938 0.930 . S
H4925 C4940 0.960 . S
H4926 C4940 0.960 . S
H4927 C4940 0.960 . S
C4928 H4920 0.929 . S
C4928 C4929 1.377 . S
C4928 C4930 1.384 . S
C4929 C4928 1.377 . S
C4929 C4935 1.390 . S
C4930 H4921 0.930 . S
C4930 C4928 1.384 . S
C4930 C4931 1.372 . S
C4931 C4930 1.372 . S
C4931 C4932 1.400 . S
C4931 C4936 1.490 . S
C4932 H4922 0.930 . S
C4932 C4931 1.400 . S
C4932 C4935 1.386 . S
H4933 C4949 0.930 . S
H4934 C4950 0.931 . S
C4935 H4923 0.929 . S
C4935 C4929 1.390 . S
C4935 C4932 1.386 . S
C4936 C4931 1.490 . S
C4936 C4938 1.395 . S
C4936 C4939 1.403 . S
H4937 C4943 0.930 . S
C4938 H4924 0.930 . S
C4938 C4936 1.395 . S
C4938 C4941 1.403 . S
C4939 C4936 1.403 . S
C4939 C4940 1.524 . S
C4939 C4943 1.400 . S
C4940 H4925 0.960 . S
C4940 H4926 0.960 . S
C4940 H4927 0.960 . S
C4940 C4939 1.524 . S
C4941 C4938 1.403 . S
C4941 C4942 1.392 . S
C4941 C4945 1.495 . S
C4942 C4941 1.392 . S
C4942 C4943 1.385 . S
C4942 C4944 1.478 . S
C4943 H4937 0.930 . S
C4943 C4939 1.400 . S
C4943 C4942 1.385 . S
C4944 C4942 1.478 . S
C4944 C4946 1.381 . S
C4944 C4950 1.383 . S
C4945 C4941 1.495 . S
C4945 H4951 0.959 . S
C4945 H4952 0.961 . S
C4945 H4953 0.960 . S
C4946 C4944 1.381 . S
C4946 C4947 1.394 . S
C4946 H4954 0.930 . S
C4947 C4946 1.394 . S
C4947 C4948 1.383 . S
C4947 H4955 0.929 . S
C4948 C4947 1.383 . S
C4948 C4949 1.377 . S
C4949 H4933 0.930 . S
C4949 C4948 1.377 . S
C4949 C4950 1.379 . S
C4950 H4934 0.931 . S
C4950 C4944 1.383 . S
C4950 C4949 1.379 . S
H4951 C4945 0.959 . S
H4952 C4945 0.961 . S
H4953 C4945 0.960 . S
H4954 C4946 0.930 . S
H4955 C4947 0.929 . S
H4956 C4964 0.929 . S
H4957 C4966 0.930 . S
H4958 C4968 0.930 . S
H4959 C4971 0.929 . S
H4960 C4974 0.930 . S
H4961 C4976 0.960 . S
H4962 C4976 0.960 . S
H4963 C4976 0.960 . S
C4964 H4956 0.929 . S
C4964 C4965 1.377 . S
C4964 C4966 1.384 . S
C4965 C4964 1.377 . S
C4965 C4971 1.390 . S
C4966 H4957 0.930 . S
C4966 C4964 1.384 . S
C4966 C4967 1.372 . S
C4967 C4966 1.372 . S
C4967 C4968 1.400 . S
C4967 C4972 1.490 . S
C4968 H4958 0.930 . S
C4968 C4967 1.400 . S
C4968 C4971 1.386 . S
H4969 C4985 0.930 . S
H4970 C4986 0.931 . S
C4971 H4959 0.929 . S
C4971 C4965 1.390 . S
C4971 C4968 1.386 . S
C4972 C4967 1.490 . S
C4972 C4974 1.395 . S
C4972 C4975 1.403 . S
H4973 C4979 0.930 . S
C4974 H4960 0.930 . S
C4974 C4972 1.395 . S
C4974 C4977 1.403 . S
C4975 C4972 1.403 . S
C4975 C4976 1.524 . S
C4975 C4979 1.400 . S
C4976 H4961 0.960 . S
C4976 H4962 0.960 . S
C4976 H4963 0.960 . S
C4976 C4975 1.524 . S
C4977 C4974 1.403 . S
C4977 C4978 1.392 . S
C4977 C4981 1.495 . S
C4978 C4977 1.392 . S
C4978 C4979 1.385 . S
C4978 C4980 1.478 . S
C4979 H4973 0.930 . S
C4979 C4975 1.400 . S
C4979 C4978 1.385 . S
C4980 C4978 1.478 . S
C4980 C4982 1.381 . S
C4980 C4986 1.383 . S
C4981 C4977 1.495 . S
C4981 H4987 0.959 . S
C4981 H4988 0.961 . S
C4981 H4989 0.960 . S
C4982 C4980 1.381 . S
C4982 C4983 1.394 . S
C4982 H4990 0.930 . S
C4983 C4982 1.394 . S
C4983 C4984 1.383 . S
C4983 H4991 0.929 . S
C4984 C4983 1.383 . S
C4984 C4985 1.377 . S
C4985 H4969 0.930 . S
C4985 C4984 1.377 . S
C4985 C4986 1.379 . S
C4986 H4970 0.931 . S
C4986 C4980 1.383 . S
C4986 C4985 1.379 . S
H4987 C4981 0.959 . S
H4988 C4981 0.961 . S
H4989 C4981 0.960 . S
H4990 C4982 0.930 . S
H4991 C4983 0.929 . S
H4992 C5000 0.929 . S
H4993 C5002 0.930 . S
H4994 C5004 0.930 . S
H4995 C5007 0.929 . S
H4996 C5010 0.930 . S
H4997 C5012 0.960 . S
H4998 C5012 0.960 . S
H4999 C5012 0.960 . S
C5000 H4992 0.929 . S
C5000 C5001 1.377 . S
C5000 C5002 1.384 . S
C5001 C5000 1.377 . S
C5001 C5007 1.390 . S
C5002 H4993 0.930 . S
C5002 C5000 1.384 . S
C5002 C5003 1.372 . S
C5003 C5002 1.372 . S
C5003 C5004 1.400 . S
C5003 C5008 1.490 . S
C5004 H4994 0.930 . S
C5004 C5003 1.400 . S
C5004 C5007 1.386 . S
H5005 C5021 0.930 . S
H5006 C5022 0.931 . S
C5007 H4995 0.929 . S
C5007 C5001 1.390 . S
C5007 C5004 1.386 . S
C5008 C5003 1.490 . S
C5008 C5010 1.395 . S
C5008 C5011 1.403 . S
H5009 C5015 0.930 . S
C5010 H4996 0.930 . S
C5010 C5008 1.395 . S
C5010 C5013 1.403 . S
C5011 C5008 1.403 . S
C5011 C5012 1.524 . S
C5011 C5015 1.400 . S
C5012 H4997 0.960 . S
C5012 H4998 0.960 . S
C5012 H4999 0.960 . S
C5012 C5011 1.524 . S
C5013 C5010 1.403 . S
C5013 C5014 1.392 . S
C5013 C5017 1.495 . S
C5014 C5013 1.392 . S
C5014 C5015 1.385 . S
C5014 C5016 1.478 . S
C5015 H5009 0.930 . S
C5015 C5011 1.400 . S
C5015 C5014 1.385 . S
C5016 C5014 1.478 . S
C5016 C5018 1.381 . S
C5016 C5022 1.383 . S
C5017 C5013 1.495 . S
C5017 H5023 0.959 . S
C5017 H5024 0.961 . S
C5017 H5025 0.960 . S
C5018 C5016 1.381 . S
C5018 C5019 1.394 . S
C5018 H5026 0.930 . S
C5019 C5018 1.394 . S
C5019 C5020 1.383 . S
C5019 H5027 0.929 . S
C5020 C5019 1.383 . S
C5020 C5021 1.377 . S
C5021 H5005 0.930 . S
C5021 C5020 1.377 . S
C5021 C5022 1.379 . S
C5022 H5006 0.931 . S
C5022 C5016 1.383 . S
C5022 C5021 1.379 . S
H5023 C5017 0.959 . S
H5024 C5017 0.961 . S
H5025 C5017 0.960 . S
H5026 C5018 0.930 . S
H5027 C5019 0.929 . S
H5028 C5036 0.929 . S
H5029 C5038 0.930 . S
H5030 C5040 0.930 . S
H5031 C5043 0.929 . S
H5032 C5046 0.930 . S
H5033 C5048 0.960 . S
H5034 C5048 0.960 . S
H5035 C5048 0.960 . S
C5036 H5028 0.929 . S
C5036 C5037 1.377 . S
C5036 C5038 1.384 . S
C5037 C5036 1.377 . S
C5037 C5043 1.390 . S
C5038 H5029 0.930 . S
C5038 C5036 1.384 . S
C5038 C5039 1.372 . S
C5039 C5038 1.372 . S
C5039 C5040 1.400 . S
C5039 C5044 1.490 . S
C5040 H5030 0.930 . S
C5040 C5039 1.400 . S
C5040 C5043 1.386 . S
H5041 C5057 0.930 1_556 S
H5042 C5058 0.931 1_556 S
C5043 H5031 0.929 . S
C5043 C5037 1.390 . S
C5043 C5040 1.386 . S
C5044 C5039 1.490 . S
C5044 C5046 1.395 . S
C5044 C5047 1.403 . S
H5045 C5051 0.930 . S
C5046 H5032 0.930 . S
C5046 C5044 1.395 . S
C5046 C5049 1.403 . S
C5047 C5044 1.403 . S
C5047 C5048 1.524 . S
C5047 C5051 1.400 . S
C5048 H5033 0.960 . S
C5048 H5034 0.960 . S
C5048 H5035 0.960 . S
C5048 C5047 1.524 . S
C5049 C5046 1.403 . S
C5049 C5050 1.392 . S
C5049 C5053 1.495 . S
C5050 C5049 1.392 . S
C5050 C5051 1.385 . S
C5050 C5052 1.478 . S
C5051 H5045 0.930 . S
C5051 C5047 1.400 . S
C5051 C5050 1.385 . S
C5052 C5050 1.478 . S
C5052 C5054 1.381 . S
C5052 C5058 1.383 . S
C5053 C5049 1.495 . S
C5053 H5059 0.959 . S
C5053 H5060 0.961 . S
C5053 H5061 0.960 . S
C5054 C5052 1.381 . S
C5054 C5055 1.394 . S
C5054 H5062 0.930 . S
C5055 C5054 1.394 . S
C5055 C5056 1.383 . S
C5055 H5063 0.929 . S
C5056 C5055 1.383 . S
C5056 C5057 1.377 . S
C5057 H5041 0.930 1_554 S
C5057 C5056 1.377 . S
C5057 C5058 1.379 . S
C5058 H5042 0.931 1_554 S
C5058 C5052 1.383 . S
C5058 C5057 1.379 . S
H5059 C5053 0.959 . S
H5060 C5053 0.961 . S
H5061 C5053 0.960 . S
H5062 C5054 0.930 . S
H5063 C5055 0.929 . S
H5064 C5072 0.929 . S
H5065 C5074 0.930 . S
H5066 C5076 0.930 . S
H5067 C5079 0.929 . S
H5068 C5082 0.930 . S
H5069 C5084 0.960 . S
H5070 C5084 0.960 . S
H5071 C5084 0.960 . S
C5072 H5064 0.929 . S
C5072 C5073 1.377 . S
C5072 C5074 1.384 . S
C5073 C5072 1.377 . S
C5073 C5079 1.390 . S
C5074 H5065 0.930 . S
C5074 C5072 1.384 . S
C5074 C5075 1.372 . S
C5075 C5074 1.372 . S
C5075 C5076 1.400 . S
C5075 C5080 1.490 . S
C5076 H5066 0.930 . S
C5076 C5075 1.400 . S
C5076 C5079 1.386 . S
H5077 C5093 0.930 . S
H5078 C5094 0.931 . S
C5079 H5067 0.929 . S
C5079 C5073 1.390 . S
C5079 C5076 1.386 . S
C5080 C5075 1.490 . S
C5080 C5082 1.395 . S
C5080 C5083 1.403 . S
H5081 C5087 0.930 . S
C5082 H5068 0.930 . S
C5082 C5080 1.395 . S
C5082 C5085 1.403 . S
C5083 C5080 1.403 . S
C5083 C5084 1.524 . S
C5083 C5087 1.400 . S
C5084 H5069 0.960 . S
C5084 H5070 0.960 . S
C5084 H5071 0.960 . S
C5084 C5083 1.524 . S
C5085 C5082 1.403 . S
C5085 C5086 1.392 . S
C5085 C5089 1.495 . S
C5086 C5085 1.392 . S
C5086 C5087 1.385 . S
C5086 C5088 1.478 . S
C5087 H5081 0.930 . S
C5087 C5083 1.400 . S
C5087 C5086 1.385 . S
C5088 C5086 1.478 . S
C5088 C5090 1.381 . S
C5088 C5094 1.383 . S
C5089 C5085 1.495 . S
C5089 H5095 0.959 . S
C5089 H5096 0.961 . S
C5089 H5097 0.960 . S
C5090 C5088 1.381 . S
C5090 C5091 1.394 . S
C5090 H5098 0.930 . S
C5091 C5090 1.394 . S
C5091 C5092 1.383 . S
C5091 H5099 0.929 . S
C5092 C5091 1.383 . S
C5092 C5093 1.377 . S
C5093 H5077 0.930 . S
C5093 C5092 1.377 . S
C5093 C5094 1.379 . S
C5094 H5078 0.931 . S
C5094 C5088 1.383 . S
C5094 C5093 1.379 . S
H5095 C5089 0.959 . S
H5096 C5089 0.961 . S
H5097 C5089 0.960 . S
H5098 C5090 0.930 . S
H5099 C5091 0.929 . S
H5100 C5108 0.929 . S
H5101 C5110 0.930 . S
H5102 C5112 0.930 . S
H5103 C5115 0.929 . S
H5104 C5118 0.930 . S
H5105 C5120 0.960 . S
H5106 C5120 0.960 . S
H5107 C5120 0.960 . S
C5108 H5100 0.929 . S
C5108 C5109 1.377 . S
C5108 C5110 1.384 . S
C5109 C5108 1.377 . S
C5109 C5115 1.390 . S
C5110 H5101 0.930 . S
C5110 C5108 1.384 . S
C5110 C5111 1.372 . S
C5111 C5110 1.372 . S
C5111 C5112 1.400 . S
C5111 C5116 1.490 . S
C5112 H5102 0.930 . S
C5112 C5111 1.400 . S
C5112 C5115 1.386 . S
H5113 C5129 0.930 . S
H5114 C5130 0.931 . S
C5115 H5103 0.929 . S
C5115 C5109 1.390 . S
C5115 C5112 1.386 . S
C5116 C5111 1.490 . S
C5116 C5118 1.395 . S
C5116 C5119 1.403 . S
H5117 C5123 0.930 . S
C5118 H5104 0.930 . S
C5118 C5116 1.395 . S
C5118 C5121 1.403 . S
C5119 C5116 1.403 . S
C5119 C5120 1.524 . S
C5119 C5123 1.400 . S
C5120 H5105 0.960 . S
C5120 H5106 0.960 . S
C5120 H5107 0.960 . S
C5120 C5119 1.524 . S
C5121 C5118 1.403 . S
C5121 C5122 1.392 . S
C5121 C5125 1.495 . S
C5122 C5121 1.392 . S
C5122 C5123 1.385 . S
C5122 C5124 1.478 . S
C5123 H5117 0.930 . S
C5123 C5119 1.400 . S
C5123 C5122 1.385 . S
C5124 C5122 1.478 . S
C5124 C5126 1.381 . S
C5124 C5130 1.383 . S
C5125 C5121 1.495 . S
C5125 H5131 0.959 . S
C5125 H5132 0.961 . S
C5125 H5133 0.960 . S
C5126 C5124 1.381 . S
C5126 C5127 1.394 . S
C5126 H5134 0.930 . S
C5127 C5126 1.394 . S
C5127 C5128 1.383 . S
C5127 H5135 0.929 . S
C5128 C5127 1.383 . S
C5128 C5129 1.377 . S
C5129 H5113 0.930 . S
C5129 C5128 1.377 . S
C5129 C5130 1.379 . S
C5130 H5114 0.931 . S
C5130 C5124 1.383 . S
C5130 C5129 1.379 . S
H5131 C5125 0.959 . S
H5132 C5125 0.961 . S
H5133 C5125 0.960 . S
H5134 C5126 0.930 . S
H5135 C5127 0.929 . S
C1689 C105 2.021 1_455 S
C1708 C392 2.024 . S
C1725 C65 1.854 . S
C1744 C494 1.819 . S
C1761 C73 1.797 . S
C1780 C560 1.809 . S
C1816 C646 1.433 . S
C1797 C92 1.578 . S
C1833 C17 1.642 . S
C1852 C730 1.504 . S
C1888 C812 1.785 . S
C1869 C37 1.751 . S
C1924 C914 1.836 . S
C1905 C49 1.783 . S
C1941 C8 1.960 . S
C1960 C980 1.947 . S
C1996 C410 1.548 . S
C1977 C231 1.560 . S
C2013 C241 0.901 . S
C2032 C478 0.805 . S
C2068 C578 1.078 . S
C2049 C273 1.066 . S
C2104 C644 1.598 . S
C2085 C171 1.599 1_556 S
C2121 C227 1.587 . S
C2140 C728 1.578 . S
C2176 C830 1.102 . S
C2157 C245 1.068 . S
C2212 C898 0.851 . S
C2193 C269 0.901 . S
C2248 C998 1.513 . S
C2229 C175 1.549 . S
C2284 C394 0.818 1_565 S
C2265 C162 0.918 1_554 S
C2301 C289 1.700 . S
C2320 C1082 1.679 . S
C2356 C1150 1.297 . S
C2337 C330 1.366 . S
C2392 C1232 0.800 . S
C2373 C317 0.798 . S
C2409 C120 0.877 . S
C2428 C982 0.854 . S
C2445 C134 1.386 . S
C2464 C562 1.291 . S
C2481 C331 1.656 . S
C2500 C1334 1.629 . S
C2536 C1400 0.734 . S
C2517 C303 0.733 . S
C2572 C403 2.058 . S
C2553 C59 2.040 . S
C2608 C1407 1.881 . S
C2589 C107 1.899 . S
C2625 C91 1.851 . S
C2644 C571 1.866 . S
C2661 C78 1.613 . S
C2680 C1329 1.464 . S
C2716 C741 1.531 . S
C2697 C7 1.638 . S
C2733 C51 1.800 . S
C2752 C1159 1.831 . S
C2788 C903 1.899 1_556 S
C2769 C31 1.923 . S
C2824 C1495 1.987 . S
C2805 C22 1.983 . S
C2860 C399 1.573 . S
C2841 C143 1.626 . S
C2896 C1413 0.889 . S
C2877 C315 0.936 . S
C2913 C115 1.154 . S
C2932 C567 1.134 . S
C2949 C287 1.616 . S
C2968 C1327 1.652 . S
C2985 C147 1.612 . S
C3004 C739 1.645 . S
C3040 C1155 1.148 . S
C3021 C311 1.159 . S
C3057 C119 0.936 . S
C3076 C909 0.915 . S
C3093 C283 1.615 . S
C3112 C1491 1.563 . S
C3129 C190 0.939 . S
C3148 C405 0.933 . S
C3165 C177 1.737 . S
C3184 C1071 1.710 . S
C3201 C260 1.386 . S
C3220 C825 1.284 . S
C3237 C247 0.853 . S
C3256 C1243 0.855 . S
C3292 C1497 0.860 . S
C3273 C274 0.890 1_565 S
C3309 C218 1.403 . S
C3328 C573 1.298 . S
C3364 C651 1.691 . S
C3345 C261 1.699 . S
C3400 C487 0.784 . S
C3381 C205 0.780 . S
C3417 C77 2.019 . S
C3436 C1568 2.017 . S
C3472 C1418 1.834 . S
C3453 C93 1.853 . S
C3489 C101 1.799 . S
C3508 C1652 1.802 . S
C3525 C64 1.577 1_655 S
C3544 C1318 1.458 . S
C3561 C45 1.643 . S
C3580 C1066 1.480 . S
C3616 C1148 1.776 . S
C3597 C9 1.753 . S
C3652 C1250 1.837 . S
C3633 C21 1.783 . S
C3688 C1484 1.957 . S
C3669 C36 1.960 . S
C3724 C1586 1.526 . S
C3705 C259 1.559 . S
C3741 C185 0.899 . S
C3760 C1402 0.813 . S
C3796 C1670 1.110 . S
C3777 C203 1.067 . S
C3832 C1316 1.602 . S
C3813 C213 1.600 . S
C3868 C1064 1.578 . S
C3849 C255 1.585 . S
C3885 C189 1.081 . S
C3904 C1166 1.085 . S
C3940 C1234 0.904 . S
C3921 C199 0.899 . S
C3957 C217 1.546 . S
C3976 C1502 1.516 . S
C4012 C1570 0.880 . S
C3993 C316 0.921 . S
C4029 C135 1.701 . S
C4048 C746 1.664 . S
C4084 C814 1.278 . S
C4065 C148 1.365 1_565 S
C4120 C896 0.790 . S
C4101 C163 0.802 . S
C4156 C1486 0.808 . S
C4137 C302 0.879 . S
C4173 C288 1.385 . S
C4192 C1654 1.342 . S
C4228 C662 1.644 . S
C4209 C149 1.654 . S
C4264 C476 0.728 . S
C4245 C121 0.731 . S
C4281 C87 2.036 . S
C4300 C1579 2.049 . S
C4336 C483 1.875 . S
C4317 C79 1.900 . S
C4353 C63 1.847 . S
C4372 C1663 1.870 . S
C4389 C106 1.616 . S
C4408 C657 1.501 . S
C4425 C35 1.644 . S
C4444 C1077 1.524 . S
C4480 C823 1.828 . S
C4461 C23 1.799 . S
C4497 C3 1.921 . S
C4516 C1239 1.912 . S
C4533 C50 1.987 . S
C4552 C991 1.998 . S
C4588 C1575 1.607 . S
C4569 C325 1.628 . S
C4605 C161 0.938 . S
C4624 C489 0.921 . S
C4660 C1659 1.156 1_655 S
C4641 C297 1.153 . S
C4677 C133 1.616 . S
C4696 C655 1.649 . S
C4713 C329 1.607 . S
C4732 C1075 1.637 . S
C4768 C819 1.149 . S
C4749 C157 1.163 . S
C4785 C301 0.931 . S
C4804 C1245 0.957 . S
C4840 C987 1.578 . S
C4821 C129 1.618 . S
C4876 C1581 0.899 . S
C4857 C246 0.931 . S
C4912 C735 1.735 1_565 S
C4893 C219 1.741 . S
C4929 C232 1.381 . S
C4948 C1161 1.298 . S
C4984 C907 0.852 . S
C4965 C191 0.847 . S
C5001 C204 0.890 . S
C5020 C993 0.857 . S
C5037 C176 1.409 . S
C5056 C1665 1.322 . S
C5092 C1323 1.674 . S
C5073 C233 1.698 . S
C5128 C1411 0.789 . S
C5109 C275 0.783 . S
