# Generated by pormake.
# Topology myd, (4,6)-cn, num edge types: 1
# Building blocks:
#     Node 0, Type 0, BuildingBlock: NAWXER_clean_sbu_0, # of connection points: 4
#     Node 1, Type 0, BuildingBlock: NAWXER_clean_sbu_0, # of connection points: 4
#     Node 2, Type 0, BuildingBlock: NAWXER_clean_sbu_0, # of connection points: 4
#     Node 3, Type 0, BuildingBlock: NAWXER_clean_sbu_0, # of connection points: 4
#     Node 4, Type 0, BuildingBlock: NAWXER_clean_sbu_0, # of connection points: 4
#     Node 5, Type 0, BuildingBlock: NAWXER_clean_sbu_0, # of connection points: 4
#     Node 6, Type 0, BuildingBlock: NAWXER_clean_sbu_0, # of connection points: 4
#     Node 7, Type 0, BuildingBlock: NAWXER_clean_sbu_0, # of connection points: 4
#     Node 8, Type 0, BuildingBlock: NAWXER_clean_sbu_0, # of connection points: 4
#     Node 9, Type 0, BuildingBlock: NAWXER_clean_sbu_0, # of connection points: 4
#     Node 10, Type 0, BuildingBlock: NAWXER_clean_sbu_0, # of connection points: 4
#     Node 11, Type 0, BuildingBlock: NAWXER_clean_sbu_0, # of connection points: 4
#     Node 12, Type 1, BuildingBlock: MIDCAF_clean_sbu_0, # of connection points: 6
#     Node 13, Type 1, BuildingBlock: MIDCAF_clean_sbu_0, # of connection points: 6
#     Node 14, Type 1, BuildingBlock: MIDCAF_clean_sbu_0, # of connection points: 6
#     Node 15, Type 1, BuildingBlock: MIDCAF_clean_sbu_0, # of connection points: 6
#     Node 16, Type 1, BuildingBlock: MIDCAF_clean_sbu_0, # of connection points: 6
#     Node 17, Type 1, BuildingBlock: MIDCAF_clean_sbu_0, # of connection points: 6
#     Node 18, Type 1, BuildingBlock: MIDCAF_clean_sbu_0, # of connection points: 6
#     Node 19, Type 1, BuildingBlock: MIDCAF_clean_sbu_0, # of connection points: 6
#     Edge 20, Type (0, 1), BuildingBlock: AJUNOK_clean_linker_0, # of connection points: 2
#     Edge 21, Type (0, 1), BuildingBlock: AJUNOK_clean_linker_0, # of connection points: 2
#     Edge 22, Type (0, 1), BuildingBlock: AJUNOK_clean_linker_0, # of connection points: 2
#     Edge 23, Type (0, 1), BuildingBlock: AJUNOK_clean_linker_0, # of connection points: 2
#     Edge 24, Type (0, 1), BuildingBlock: AJUNOK_clean_linker_0, # of connection points: 2
#     Edge 25, Type (0, 1), BuildingBlock: AJUNOK_clean_linker_0, # of connection points: 2
#     Edge 26, Type (0, 1), BuildingBlock: AJUNOK_clean_linker_0, # of connection points: 2
#     Edge 27, Type (0, 1), BuildingBlock: AJUNOK_clean_linker_0, # of connection points: 2
#     Edge 28, Type (0, 1), BuildingBlock: AJUNOK_clean_linker_0, # of connection points: 2
#     Edge 29, Type (0, 1), BuildingBlock: AJUNOK_clean_linker_0, # of connection points: 2
#     Edge 30, Type (0, 1), BuildingBlock: AJUNOK_clean_linker_0, # of connection points: 2
#     Edge 31, Type (0, 1), BuildingBlock: AJUNOK_clean_linker_0, # of connection points: 2
#     Edge 32, Type (0, 1), BuildingBlock: AJUNOK_clean_linker_0, # of connection points: 2
#     Edge 33, Type (0, 1), BuildingBlock: AJUNOK_clean_linker_0, # of connection points: 2
#     Edge 34, Type (0, 1), BuildingBlock: AJUNOK_clean_linker_0, # of connection points: 2
#     Edge 35, Type (0, 1), BuildingBlock: AJUNOK_clean_linker_0, # of connection points: 2
#     Edge 36, Type (0, 1), BuildingBlock: AJUNOK_clean_linker_0, # of connection points: 2
#     Edge 37, Type (0, 1), BuildingBlock: AJUNOK_clean_linker_0, # of connection points: 2
#     Edge 38, Type (0, 1), BuildingBlock: AJUNOK_clean_linker_0, # of connection points: 2
#     Edge 39, Type (0, 1), BuildingBlock: AJUNOK_clean_linker_0, # of connection points: 2
#     Edge 40, Type (0, 1), BuildingBlock: AJUNOK_clean_linker_0, # of connection points: 2
#     Edge 41, Type (0, 1), BuildingBlock: AJUNOK_clean_linker_0, # of connection points: 2
#     Edge 42, Type (0, 1), BuildingBlock: AJUNOK_clean_linker_0, # of connection points: 2
#     Edge 43, Type (0, 1), BuildingBlock: AJUNOK_clean_linker_0, # of connection points: 2
#     Edge 44, Type (0, 1), BuildingBlock: AJUNOK_clean_linker_0, # of connection points: 2
#     Edge 45, Type (0, 1), BuildingBlock: AJUNOK_clean_linker_0, # of connection points: 2
#     Edge 46, Type (0, 1), BuildingBlock: AJUNOK_clean_linker_0, # of connection points: 2
#     Edge 47, Type (0, 1), BuildingBlock: AJUNOK_clean_linker_0, # of connection points: 2
#     Edge 48, Type (0, 1), BuildingBlock: AJUNOK_clean_linker_0, # of connection points: 2
#     Edge 49, Type (0, 1), BuildingBlock: AJUNOK_clean_linker_0, # of connection points: 2
#     Edge 50, Type (0, 1), BuildingBlock: AJUNOK_clean_linker_0, # of connection points: 2
#     Edge 51, Type (0, 1), BuildingBlock: AJUNOK_clean_linker_0, # of connection points: 2
#     Edge 52, Type (0, 1), BuildingBlock: AJUNOK_clean_linker_0, # of connection points: 2
#     Edge 53, Type (0, 1), BuildingBlock: AJUNOK_clean_linker_0, # of connection points: 2
#     Edge 54, Type (0, 1), BuildingBlock: AJUNOK_clean_linker_0, # of connection points: 2
#     Edge 55, Type (0, 1), BuildingBlock: AJUNOK_clean_linker_0, # of connection points: 2
#     Edge 56, Type (0, 1), BuildingBlock: AJUNOK_clean_linker_0, # of connection points: 2
#     Edge 57, Type (0, 1), BuildingBlock: AJUNOK_clean_linker_0, # of connection points: 2
#     Edge 58, Type (0, 1), BuildingBlock: AJUNOK_clean_linker_0, # of connection points: 2
#     Edge 59, Type (0, 1), BuildingBlock: AJUNOK_clean_linker_0, # of connection points: 2
#     Edge 60, Type (0, 1), BuildingBlock: AJUNOK_clean_linker_0, # of connection points: 2
#     Edge 61, Type (0, 1), BuildingBlock: AJUNOK_clean_linker_0, # of connection points: 2
#     Edge 62, Type (0, 1), BuildingBlock: AJUNOK_clean_linker_0, # of connection points: 2
#     Edge 63, Type (0, 1), BuildingBlock: AJUNOK_clean_linker_0, # of connection points: 2
#     Edge 64, Type (0, 1), BuildingBlock: AJUNOK_clean_linker_0, # of connection points: 2
#     Edge 65, Type (0, 1), BuildingBlock: AJUNOK_clean_linker_0, # of connection points: 2
#     Edge 66, Type (0, 1), BuildingBlock: AJUNOK_clean_linker_0, # of connection points: 2
#     Edge 67, Type (0, 1), BuildingBlock: AJUNOK_clean_linker_0, # of connection points: 2
# Relax obj value: 0.163
# Max RMSD: 0.104
# Mean RMSD: 0.094
data_MOF--net-myd--node1-NAWXER_clean_sbu_0--node2-MIDCAF_clean_sbu_0--edge1-AJUNOK_clean_linker_0
_symmetry_space_group_name_H-M    P1
_symmetry_Int_Tables_number       1
_symmetry_cell_setting            triclinic
loop_
_symmetry_equiv_pos_as_xyz
'x, y, z'
_cell_length_a     33.078251
_cell_length_b     33.0257
_cell_length_c     33.049022
_cell_angle_alpha  89.966999
_cell_angle_beta   90.121937
_cell_angle_gamma 90.157929
loop_
_atom_site_label
_atom_site_type_symbol
_atom_site_fract_x
_atom_site_fract_y
_atom_site_fract_z
_atom_type_partial_charge
C0 C 0.97396 0.21622 0.23783 0.0
C1 C 0.98235 0.31981 0.34284 0.0
O2 O 0.01017 0.22354 0.24959 0.0
Zn3 Zn 0.04147 0.26146 0.29187 0.0
O4 O 0.94429 0.23461 0.25379 0.0
Zn5 Zn 0.97676 0.26633 0.29148 0.0
O6 O 0.00863 0.30567 0.25112 0.0
O7 O 0.07447 0.29419 0.25547 0.0
O8 O 0.95057 0.30448 0.32746 0.0
O9 O 0.01701 0.30607 0.33222 0.0
O10 O 0.06706 0.22204 0.32721 0.0
O11 O 1.00058 0.22069 0.33085 0.0
C12 C 0.04493 0.31333 0.23998 0.0
C13 C 0.03501 0.20646 0.34165 0.0
C14 C 0.97041 0.80729 0.27902 0.0
C15 C 0.98137 0.70265 0.17504 0.0
O16 O 0.00697 0.7994 0.26916 0.0
Zn17 Zn 0.03918 0.76159 0.22767 0.0
O18 O 0.94122 0.78987 0.26093 0.0
Zn19 Zn 0.97485 0.75723 0.22516 0.0
O20 O 1.00502 0.71801 0.26773 0.0
O21 O 0.07103 0.7294 0.265 0.0
O22 O 0.94934 0.71854 0.18898 0.0
O23 O 0.01585 0.71634 0.18672 0.0
O24 O 0.06677 0.80069 0.19397 0.0
O25 O 1.0005 0.80209 0.18559 0.0
C26 C 0.04105 0.71058 0.28003 0.0
C27 C 0.03579 0.81566 0.17699 0.0
C28 C 0.34213 0.04077 0.19892 0.0
C29 C 0.23917 0.0484 0.30541 0.0
O30 O 0.33226 1.00626 0.21381 0.0
Zn31 Zn 0.29337 0.9817 0.25935 0.0
O32 O 0.32658 0.07266 0.2137 0.0
Zn33 Zn 0.29155 0.04674 0.25372 0.0
O34 O 0.33191 0.02407 0.29904 0.0
O35 O 0.32972 0.95742 0.29912 0.0
O36 O 0.25389 0.07852 0.28638 0.0
O37 O 0.25159 0.01247 0.29794 0.0
O38 O 0.25674 0.94805 0.22724 0.0
O39 O 0.24986 0.01394 0.21684 0.0
C40 C 0.34362 0.99019 0.31392 0.0
C41 C 0.23933 0.97737 0.20939 0.0
C42 C 0.77464 0.54566 0.20822 0.0
C43 C 0.67098 0.53658 0.31333 0.0
O44 O 0.76335 0.50948 0.21631 0.0
Zn45 Zn 0.72333 0.47803 0.25549 0.0
O46 O 0.75931 0.57546 0.22703 0.0
Zn47 Zn 0.72285 0.54316 0.26086 0.0
O48 O 0.76406 0.5124 0.29971 0.0
O49 O 0.76084 0.4464 0.28876 0.0
O50 O 0.68737 0.56884 0.3 0.0
O51 O 0.68202 0.50219 0.29917 0.0
O52 O 0.68746 0.45176 0.21676 0.0
O53 O 0.68064 0.51828 0.21812 0.0
C54 C 0.77604 0.47641 0.30753 0.0
C55 C 0.67001 0.48364 0.20406 0.0
C56 C 0.19554 0.34048 0.0312 0.0
C57 C 0.3057 0.24143 0.04154 0.0
O58 O 0.21187 0.33043 0.99759 0.0
Zn59 Zn 0.25835 0.29266 0.9741 0.0
O60 O 0.20924 0.32552 0.06402 0.0
Zn61 Zn 0.25114 0.29178 0.03926 0.0
O62 O 0.2927 0.33628 0.0168 0.0
O63 O 0.29556 0.33156 0.95028 0.0
O64 O 0.28566 0.25537 0.07123 0.0
O65 O 0.29806 0.2534 0.00553 0.0
O66 O 0.22723 0.25485 0.94058 0.0
O67 O 0.21469 0.24991 0.00618 0.0
C68 C 0.3069 0.34868 0.9829 0.0
C69 C 0.20809 0.23855 0.96973 0.0
C70 C 0.20876 0.78157 0.54312 0.0
C71 C 0.31488 0.67971 0.53915 0.0
O72 O 0.21605 0.7682 0.5075 0.0
Zn73 Zn 0.25519 0.72614 0.47786 0.0
O74 O 0.22845 0.76835 0.57342 0.0
Zn75 Zn 0.26109 0.73039 0.54256 0.0
O76 O 0.29817 0.77065 0.50871 0.0
O77 O 0.28712 0.76228 0.4432 0.0
O78 O 0.30098 0.69768 0.57008 0.0
O79 O 0.3003 0.68726 0.50397 0.0
O80 O 0.21578 0.68875 0.45458 0.0
O81 O 0.21651 0.68809 0.52126 0.0
C82 C 0.30541 0.78029 0.47194 0.0
C83 C 0.20167 0.6752 0.48774 0.0
C84 C 0.69853 0.84172 0.53528 0.0
C85 C 0.80726 0.74236 0.54887 0.0
O86 O 0.71494 0.83148 0.50171 0.0
Zn87 Zn 0.76206 0.7933 0.47941 0.0
O88 O 0.71282 0.8277 0.5682 0.0
Zn89 Zn 0.75439 0.79345 0.54416 0.0
O90 O 0.79849 0.83548 0.52141 0.0
O91 O 0.80064 0.8303 0.45496 0.0
O92 O 0.78694 0.75728 0.57785 0.0
O93 O 0.80057 0.7536 0.5124 0.0
O94 O 0.73174 0.7554 0.4457 0.0
O95 O 0.71804 0.75121 0.51117 0.0
C96 C 0.81355 0.84656 0.48739 0.0
C97 C 0.71206 0.73952 0.4747 0.0
C98 C 0.54437 0.80993 0.74457 0.0
C99 C 0.54442 0.69997 0.84406 0.0
O100 O 0.50892 0.79965 0.7565 0.0
Zn101 Zn 0.4811 0.75744 0.79814 0.0
O102 O 0.57553 0.79332 0.75987 0.0
Zn103 Zn 0.54562 0.75812 0.7967 0.0
O104 O 0.51578 0.72034 0.75273 0.0
O105 O 0.44943 0.72456 0.76084 0.0
O106 O 0.57472 0.71926 0.83044 0.0
O107 O 0.50863 0.71134 0.83461 0.0
O108 O 0.4533 0.79341 0.83523 0.0
O109 O 0.51954 0.80158 0.83751 0.0
C110 C 0.4798 0.71041 0.74209 0.0
C111 C 0.48405 0.81186 0.8491 0.0
C112 C 0.55599 0.2141 0.77914 0.0
C113 C 0.53641 0.31891 0.67573 0.0
O114 O 0.51912 0.2206 0.76951 0.0
Zn115 Zn 0.48385 0.25755 0.73068 0.0
O116 O 0.58434 0.23374 0.76199 0.0
Zn117 Zn 0.54875 0.26571 0.72669 0.0
O118 O 0.51881 0.30275 0.76989 0.0
O119 O 0.45343 0.28839 0.77083 0.0
O120 O 0.57011 0.30594 0.68905 0.0
O121 O 0.50357 0.30306 0.68901 0.0
O122 O 0.45778 0.21684 0.69634 0.0
O123 O 0.52375 0.2202 0.68805 0.0
C124 C 0.4834 0.30865 0.78422 0.0
C125 C 0.48963 0.204 0.67907 0.0
C126 C 0.73559 0.4709 0.70807 0.0
C127 C 0.8342 0.48411 0.81753 0.0
O128 O 0.74574 0.50759 0.71573 0.0
Zn129 Zn 0.78448 0.54084 0.7561 0.0
O130 O 0.75115 0.44179 0.7279 0.0
Zn131 Zn 0.78536 0.47606 0.76171 0.0
O132 O 0.74011 0.50672 0.7962 0.0
O133 O 0.74472 0.57279 0.78581 0.0
O134 O 0.82003 0.45169 0.80237 0.0
O135 O 0.82315 0.51833 0.80289 0.0
O136 O 0.82129 0.56709 0.71829 0.0
O137 O 0.82639 0.50059 0.71799 0.0
C138 C 0.7275 0.54278 0.80271 0.0
C139 C 0.83716 0.53517 0.70392 0.0
C140 C 0.27665 0.04767 0.71313 0.0
C141 C 0.17136 0.0328 0.81606 0.0
O142 O 0.26573 0.01096 0.71939 0.0
Zn143 Zn 0.22421 0.97738 0.75609 0.0
O144 O 0.2599 0.07653 0.73223 0.0
Zn145 Zn 0.22313 0.0421 0.76321 0.0
O146 O 0.26526 0.01021 0.80059 0.0
O147 O 0.26135 0.94445 0.78797 0.0
O148 O 0.18641 0.06568 0.80279 0.0
O149 O 0.18308 0.99915 0.80081 0.0
O150 O 0.18961 0.95216 0.71564 0.0
O151 O 0.18437 0.01866 0.71656 0.0
C152 C 0.27706 0.9739 0.80721 0.0
C153 C 0.17443 0.98439 0.70112 0.0
C154 C 0.7051 0.17589 0.97449 0.0
C155 C 0.8171 0.27333 0.95912 0.0
O156 O 0.71929 0.19025 0.00759 0.0
Zn157 Zn 0.76405 0.23111 0.02904 0.0
O158 O 0.72025 0.18757 0.94104 0.0
Zn159 Zn 0.76167 0.22414 0.96332 0.0
O160 O 0.80138 0.184 0.99415 0.0
O161 O 0.80056 0.19596 0.05987 0.0
O162 O 0.79949 0.25563 0.92967 0.0
O163 O 0.80635 0.26602 0.99555 0.0
O164 O 0.7313 0.274 0.054 0.0
O165 O 0.72681 0.27197 0.98731 0.0
C166 C 0.81391 0.17576 0.02992 0.0
C167 C 0.7177 0.28861 0.021 0.0
Zn168 Zn 0.0863 0.0896 0.08606 0.0
Zn169 Zn 1.00156 1.00139 0.00736 0.0
Zn170 Zn 0.04535 0.05048 0.04882 0.0
C171 C 0.06314 0.0301 0.95562 0.0
C172 C 0.03125 0.95561 0.07141 0.0
O173 O 0.00795 0.09387 0.08388 0.0
O174 O 0.05122 0.094 0.13449 0.0
C175 C 0.09505 0.12354 0.01526 0.0
O176 O 0.07016 0.05316 0.98633 0.0
O177 O 0.03521 1.00399 0.95742 0.0
O178 O 0.00661 0.95245 0.04233 0.0
O179 O 0.05011 0.98937 0.07738 0.0
O180 O 0.08895 0.13751 0.05017 0.0
O181 O 0.08633 0.08612 0.00807 0.0
O182 O 0.08258 0.01322 0.09127 0.0
O183 O 0.13488 0.05436 0.08951 0.0
C184 C 0.12029 0.02026 0.0985 0.0
O185 O 0.98294 0.07518 0.0536 0.0
O186 O 0.95141 0.03473 0.01084 0.0
C187 C 0.01668 0.1027 0.12089 0.0
C188 C 0.95065 0.06511 0.03407 0.0
Zn189 Zn 0.00918 0.51564 1.00246 0.0
Zn190 Zn 0.92626 0.42884 0.08527 0.0
Zn191 Zn 0.96565 0.46937 0.04688 0.0
C192 C 0.8905 0.49855 0.09583 0.0
C193 C 0.92 0.39283 0.01434 0.0
O194 O 0.02767 0.44548 0.05247 0.0
O195 O 0.05588 0.47705 1.00078 0.0
C196 C 0.98257 0.56243 0.06776 0.0
O197 O 0.92762 0.50727 0.08763 0.0
O198 O 0.87742 0.46351 0.08806 0.0
O199 O 0.92487 0.38019 0.05 0.0
O200 O 0.92745 0.43037 0.0064 0.0
O201 O 0.01053 0.56167 0.04177 0.0
O202 O 0.95898 0.53157 0.07189 0.0
O203 O 0.94128 0.46373 0.98486 0.0
O204 O 0.9697 0.51715 0.95618 0.0
C205 C 0.94466 0.48821 0.95471 0.0
O206 O 1.00529 0.42991 0.08439 0.0
O207 O 0.96132 0.42661 0.13403 0.0
C208 C 0.05765 0.45036 0.02817 0.0
C209 C 0.99681 0.42113 0.1214 0.0
Zn210 Zn 1.0055 0.01793 0.51164 0.0
Zn211 Zn 0.08306 0.93161 0.42588 0.0
Zn212 Zn 0.04698 0.97149 0.46695 0.0
C213 C 0.09482 0.89636 0.49605 0.0
C214 C 0.01209 0.9222 0.39382 0.0
O215 O 0.05364 0.0335 0.44151 0.0
O216 O 1.00514 0.06541 0.47442 0.0
C217 C 0.0692 0.98909 0.55949 0.0
O218 O 0.08816 0.93386 0.50445 0.0
O219 O 0.08573 0.8832 0.4614 0.0
O220 O 0.04615 0.92959 0.37848 0.0
O221 O 0.00614 0.93057 0.43146 0.0
O222 O 0.04384 0.01762 0.55853 0.0
O223 O 0.07304 0.96554 0.52869 0.0
O224 O 0.98406 0.94747 0.46393 0.0
O225 O 0.9567 0.98239 0.51361 0.0
C226 C 0.95402 0.95433 0.48776 0.0
O227 O 0.08447 0.00971 0.42504 0.0
O228 O 0.13287 0.96444 0.42084 0.0
C229 C 0.03187 0.0653 0.4472 0.0
C230 C 0.12096 1.00019 0.41518 0.0
Zn231 Zn 0.92795 0.59054 0.43415 0.0
Zn232 Zn 0.00944 0.50528 0.51707 0.0
Zn233 Zn 0.96654 0.5513 0.47288 0.0
C234 C 0.98267 0.45819 0.45208 0.0
C235 C 0.05947 0.56971 0.49213 0.0
O236 O 0.9261 0.58884 0.51177 0.0
O237 O 0.92634 0.63953 0.46869 0.0
C238 C 0.89174 0.52201 0.42228 0.0
O239 O 0.96009 0.48953 0.44703 0.0
O240 O 0.00982 0.45838 0.47901 0.0
O241 O 0.05754 0.54195 0.51841 0.0
O242 O 0.02906 0.57597 0.46851 0.0
O243 O 0.87849 0.55669 0.43087 0.0
O244 O 0.92889 0.51348 0.43066 0.0
O245 O 0.00607 0.59203 0.43645 0.0
O246 O 0.96306 0.59213 0.38571 0.0
C247 C 0.99797 0.59975 0.39907 0.0
O248 O 0.94152 0.55667 0.53486 0.0
O249 O 0.97157 0.50471 0.56428 0.0
C250 C 0.91884 0.62633 0.50367 0.0
C251 C 0.94594 0.533 0.56553 0.0
Zn252 Zn 0.42453 0.93243 0.58956 0.0
Zn253 Zn 0.5108 0.01291 0.50778 0.0
Zn254 Zn 0.46551 0.97078 0.55133 0.0
C255 C 0.44661 0.99118 0.45793 0.0
C256 C 0.48778 0.0629 0.572 0.0
O257 O 0.503 0.92795 0.58817 0.0
O258 O 0.45938 0.92709 0.63823 0.0
C259 C 0.41385 0.89879 0.51846 0.0
O260 O 0.4397 0.968 0.48862 0.0
O261 O 0.47542 0.01628 0.4594 0.0
O262 O 0.51375 0.06067 0.54415 0.0
O263 O 0.46334 0.03298 0.57782 0.0
O264 O 0.41975 0.88474 0.55343 0.0
O265 O 0.42352 0.93593 0.51106 0.0
O266 O 0.43054 0.01041 0.59327 0.0
O267 O 0.37776 0.96984 0.59297 0.0
C268 C 0.39295 1.00388 0.60132 0.0
O269 O 0.52632 0.94243 0.55615 0.0
O270 O 0.55707 0.97467 0.50639 0.0
C271 C 0.49432 0.91935 0.62524 0.0
C272 C 0.5571 0.94696 0.53274 0.0
Zn273 Zn 0.4978 0.50718 0.5028 0.0
Zn274 Zn 0.58768 0.58708 0.58616 0.0
Zn275 Zn 0.54773 0.55017 0.5458 0.0
C276 C 0.6212 0.5168 0.59498 0.0
C277 C 0.59836 0.62294 0.51611 0.0
O278 O 0.48715 0.57859 0.55135 0.0
O279 O 0.44978 0.54362 0.50821 0.0
C280 C 0.52788 0.4569 0.56525 0.0
O281 O 0.58367 0.50994 0.58671 0.0
O282 O 0.63571 0.55139 0.58794 0.0
O283 O 0.59086 0.63579 0.55119 0.0
O284 O 0.59001 0.58581 0.50733 0.0
O285 O 0.50082 0.45801 0.53821 0.0
O286 O 0.55096 0.4879 0.57093 0.0
O287 O 0.5715 0.55469 0.48349 0.0
O288 O 0.53206 0.51024 0.4528 0.0
C289 C 0.56194 0.5342 0.45169 0.0
O290 O 0.51161 0.59279 0.58315 0.0
O291 O 0.55295 0.59017 0.63519 0.0
C292 C 0.45332 0.57278 0.53274 0.0
C293 C 0.51902 0.59985 0.62079 0.0
Zn294 Zn 0.49675 0.52203 0.01636 0.0
Zn295 Zn 0.60109 0.39087 0.89722 0.0
Zn296 Zn 0.53811 0.46833 0.97473 0.0
C297 C 0.59947 0.41165 0.99101 0.0
C298 C 0.51413 0.40248 0.92477 0.0
O299 O 0.55176 0.5236 0.94182 0.0
O300 O 0.51361 0.56593 0.97676 0.0
C301 C 0.55693 0.48839 0.06864 0.0
O302 O 0.58008 0.43536 0.01421 0.0
O303 O 0.58801 0.41138 0.95441 0.0
O304 O 0.5519 0.40389 0.92942 0.0
O305 O 0.49435 0.42647 0.94716 0.0
O306 O 0.52971 0.51519 0.06729 0.0
O307 O 0.56356 0.46639 0.03714 0.0
O308 O 0.47337 0.4507 0.97225 0.0
O309 O 0.44192 0.49408 0.01195 0.0
C310 C 0.44074 0.46309 0.98947 0.0
O311 O 0.57822 0.49051 0.92245 0.0
O312 O 0.61194 0.44859 0.87888 0.0
C313 C 0.53767 0.55932 0.94773 0.0
C314 C 0.6018 0.48388 0.8915 0.0
Zn315 Zn 0.51365 1.00498 0.01239 0.0
Zn316 Zn 0.43312 0.09219 0.92322 0.0
Zn317 Zn 0.47084 0.05264 0.96532 0.0
C318 C 0.50532 0.10332 0.8925 0.0
C319 C 0.39834 0.02123 0.91262 0.0
O320 O 0.44468 0.05903 0.02711 0.0
O321 O 0.47651 0.01014 0.0599 0.0
C322 C 0.56495 0.06807 0.98334 0.0
O323 O 0.51142 0.09366 0.92984 0.0
O324 O 0.47103 0.09707 0.877 0.0
O325 O 0.3852 0.05679 0.9163 0.0
O326 O 0.43471 0.01311 0.92404 0.0
O327 O 0.56366 0.03983 0.00921 0.0
O328 O 0.53355 0.07588 0.9616 0.0
O329 O 0.46625 0.98996 0.94033 0.0
O330 O 0.50899 0.95503 0.97819 0.0
C331 C 0.48495 0.95663 0.94845 0.0
O332 O 0.42877 0.09022 1.00272 0.0
O333 O 0.42677 0.14012 0.95866 0.0
C334 C 0.44986 0.0375 0.05925 0.0
C335 C 0.41959 0.12711 0.99379 0.0
C336 C 0.99961 0.15201 0.38025 0.0
C337 C 0.03626 0.17077 0.36912 0.0
C338 C 0.99893 0.1179 0.40528 0.0
C339 C 0.03479 0.10075 0.4201 0.0
H340 H 0.97094 0.16356 0.36944 0.0
H341 H 0.96992 0.1046 0.41285 0.0
S342 S 0.13862 0.13943 0.40317 0.0
N343 N 0.10956 0.17024 0.37661 0.0
N344 N 0.10783 0.10618 0.42437 0.0
C345 C 0.07168 0.11916 0.40988 0.0
C346 C 0.07251 0.15415 0.38426 0.0
C347 C 0.0167 0.37359 0.38342 0.0
C348 C 0.98043 0.35468 0.3713 0.0
C349 C 0.01669 0.40697 0.40941 0.0
C350 C 0.98047 0.4232 0.42428 0.0
H351 H 0.04561 0.36277 0.37263 0.0
H352 H 0.04546 0.42049 0.41763 0.0
S353 S 0.87735 0.38358 0.4049 0.0
N354 N 0.90707 0.35401 0.37784 0.0
N355 N 0.90749 0.41657 0.42748 0.0
C356 C 0.94394 0.40455 0.4131 0.0
C357 C 0.94382 0.37034 0.38645 0.0
C358 C 0.03372 0.84672 0.10832 0.0
C359 C 0.03957 0.85098 0.15014 0.0
C360 C 0.03268 0.88079 0.08293 0.0
C361 C 0.03704 0.9203 0.09856 0.0
H362 H 0.02915 0.81695 0.0953 0.0
H363 H 0.02758 0.87619 0.05086 0.0
S364 S 0.0495 0.94702 0.20688 0.0
N365 N 0.04846 0.89704 0.20652 0.0
N366 N 0.04498 0.96128 0.15915 0.0
C367 C 0.04289 0.92472 0.14049 0.0
C368 C 0.04442 0.88997 0.16621 0.0
C369 C 0.01606 0.64786 0.13631 0.0
C370 C 0.97976 0.66724 0.14711 0.0
C371 C 0.01624 0.61402 0.11087 0.0
C372 C 0.98019 0.59773 0.09524 0.0
H373 H 0.04483 0.65872 0.14771 0.0
H374 H 0.04503 0.60022 0.10364 0.0
S375 S 0.87713 0.63829 0.11122 0.0
N376 N 0.90657 0.66814 0.13857 0.0
N377 N 0.90739 0.60476 0.09 0.0
C378 C 0.94364 0.61681 0.10514 0.0
C379 C 0.94334 0.65148 0.13122 0.0
C380 C 0.38087 1.0055 0.14459 0.0
C381 C 0.36992 0.04215 0.16342 0.0
C382 C 0.40646 1.00481 0.11096 0.0
C383 C 0.42215 0.04065 0.09428 0.0
H384 H 0.36949 0.97683 0.15573 0.0
H385 H 0.41381 0.97575 0.09766 0.0
S386 S 0.40579 0.14449 0.13327 0.0
N387 N 0.37835 0.11545 0.16336 0.0
N388 N 0.42717 0.1137 0.10027 0.0
C389 C 0.41201 0.07757 0.11271 0.0
C390 C 0.38577 0.07839 0.14722 0.0
C391 C 0.64085 0.4538 0.14046 0.0
C392 C 0.63833 0.48183 0.17233 0.0
C393 C 0.61382 0.45536 0.1076 0.0
C394 C 0.5828 0.48455 0.1056 0.0
H395 H 0.66492 0.43164 0.14002 0.0
H396 H 0.61809 0.4341 0.0832 0.0
S397 S 0.56072 0.56174 0.18446 0.0
N398 N 0.60075 0.53753 0.20174 0.0
N399 N 0.54959 0.54014 0.14081 0.0
C400 C 0.57886 0.5114 0.13857 0.0
C401 C 0.60669 0.51011 0.17165 0.0
C402 C 0.37782 0.95448 0.37233 0.0
C403 C 0.37124 0.99009 0.34966 0.0
C404 C 0.40198 0.95478 0.4075 0.0
C405 C 0.42043 0.99063 0.42131 0.0
H406 H 0.36392 0.9262 0.36313 0.0
H407 H 0.40682 0.92666 0.42352 0.0
S408 S 0.41311 0.09205 0.37321 0.0
N409 N 0.38592 0.06219 0.3438 0.0
N410 N 0.43038 0.06267 0.40967 0.0
C411 C 0.41429 0.0263 0.39882 0.0
C412 C 0.38992 0.02606 0.36316 0.0
C413 C 0.63903 0.57017 0.37359 0.0
C414 C 0.64029 0.53774 0.34604 0.0
C415 C 0.61287 0.56937 0.40707 0.0
C416 C 0.587 0.53627 0.41432 0.0
H417 H 0.65916 0.59584 0.36998 0.0
H418 H 0.61293 0.59485 0.42737 0.0
S419 S 0.5753 0.44588 0.34824 0.0
N420 N 0.61067 0.47327 0.32608 0.0
N421 N 0.56215 0.47157 0.38891 0.0
C422 C 0.58662 0.50458 0.38577 0.0
C423 C 0.61317 0.50534 0.35178 0.0
C424 C 0.14249 0.38238 0.06678 0.0
C425 C 0.16042 0.36869 0.03062 0.0
C426 C 0.10924 0.40895 0.06611 0.0
C427 C 0.09276 0.42266 0.02931 0.0
H428 H 0.15422 0.37264 0.09581 0.0
H429 H 0.09668 0.4192 0.09452 0.0
S430 S 0.12673 0.39471 0.9262 0.0
N431 N 0.15777 0.37045 0.95681 0.0
N432 N 0.09575 0.4198 0.95602 0.0
C433 C 0.11014 0.4091 0.9931 0.0
C434 C 0.14374 0.3822 0.99363 0.0
C435 C 0.14345 0.63928 0.4534 0.0
C436 C 0.16678 0.64651 0.48845 0.0
C437 C 0.10884 0.61436 0.45452 0.0
C438 C 0.09623 0.59574 0.49068 0.0
H439 H 0.1516 0.65338 0.42495 0.0
H440 H 0.09217 0.60928 0.42682 0.0
S441 S 0.14694 0.60407 0.59077 0.0
N442 N 0.17494 0.63191 0.56025 0.0
N443 N 0.11008 0.58599 0.56233 0.0
C444 C 0.11959 0.60229 0.52574 0.0
C445 C 0.1547 0.62747 0.52466 0.0
C446 C 0.8727 0.87973 0.45258 0.0
C447 C 0.84738 0.87637 0.48667 0.0
C448 C 0.90679 0.90529 0.45283 0.0
C449 C 0.9169 0.92861 0.48702 0.0
H450 H 0.8667 0.86185 0.42576 0.0
H451 H 0.92518 0.90685 0.42597 0.0
S452 S 0.85904 0.93263 0.58333 0.0
N453 N 0.83378 0.9002 0.55492 0.0
N454 N 0.89762 0.94764 0.55551 0.0
C455 C 0.89111 0.92633 0.52089 0.0
C456 C 0.85653 0.90035 0.52069 0.0
C457 C 0.34512 0.61096 0.5346 0.0
C458 C 0.34976 0.65239 0.54267 0.0
C459 C 0.37879 0.58526 0.53299 0.0
C460 C 0.41834 0.60019 0.53887 0.0
H461 H 0.31534 0.5985 0.52875 0.0
H462 H 0.37382 0.55353 0.52626 0.0
S463 S 0.44621 0.70765 0.557 0.0
N464 N 0.39633 0.70783 0.55502 0.0
N465 N 0.45989 0.65998 0.55069 0.0
C466 C 0.4232 0.64179 0.54695 0.0
C467 C 0.3888 0.6678 0.54907 0.0
C468 C 0.55727 0.66624 0.91052 0.0
C469 C 0.54964 0.66313 0.86884 0.0
C470 C 0.55554 0.63189 0.93562 0.0
C471 C 0.54682 0.59321 0.91978 0.0
H472 H 0.56265 0.69564 0.92407 0.0
H473 H 0.55973 0.6358 0.96791 0.0
S474 S 0.52555 0.56925 0.8123 0.0
N475 N 0.5339 0.6186 0.81256 0.0
N476 N 0.53111 0.55401 0.85961 0.0
C477 C 0.54079 0.58959 0.87786 0.0
C478 C 0.542 0.62462 0.85243 0.0
C479 C 0.48186 0.84596 0.91659 0.0
C480 C 0.47926 0.84837 0.87429 0.0
C481 C 0.48216 0.88122 0.94043 0.0
C482 C 0.47988 0.92005 0.92276 0.0
H483 H 0.48472 0.81675 0.93124 0.0
H484 H 0.485 0.87807 0.97294 0.0
S485 S 0.4752 0.94198 0.81275 0.0
N486 N 0.47521 0.89205 0.81548 0.0
N487 N 0.4767 0.95832 0.85999 0.0
C488 C 0.47691 0.92261 0.88039 0.0
C489 C 0.47648 0.88672 0.85623 0.0
C490 C 0.56945 0.37428 0.63453 0.0
C491 C 0.53432 0.35296 0.64611 0.0
C492 C 0.56745 0.40756 0.60795 0.0
C493 C 0.53031 0.42092 0.59212 0.0
H494 H 0.59873 0.36546 0.64628 0.0
H495 H 0.59519 0.42263 0.59941 0.0
S496 S 0.42948 0.37554 0.61198 0.0
N497 N 0.46117 0.34754 0.63845 0.0
N498 N 0.45769 0.41004 0.58945 0.0
C499 C 0.49512 0.39957 0.60291 0.0
C500 C 0.49704 0.36575 0.62973 0.0
C501 C 0.45324 0.14576 0.645 0.0
C502 C 0.4885 0.16932 0.65017 0.0
C503 C 0.45289 0.1115 0.61958 0.0
C504 C 0.48773 0.0994 0.59849 0.0
H505 H 0.42579 0.15351 0.661 0.0
H506 H 0.42503 0.09474 0.61607 0.0
S507 S 0.5877 0.15114 0.6006 0.0
N508 N 0.55896 0.17843 0.63072 0.0
N509 N 0.55839 0.11418 0.58416 0.0
C510 C 0.52297 0.12305 0.60298 0.0
C511 C 0.52333 0.15786 0.62852 0.0
C512 C 0.87677 0.50011 0.65023 0.0
C513 C 0.866 0.53662 0.66942 0.0
C514 C 0.90267 0.49964 0.61687 0.0
C515 C 0.91884 0.53558 0.60095 0.0
H516 H 0.8648 0.47142 0.66069 0.0
H517 H 0.90966 0.47074 0.60303 0.0
S518 S 0.90402 0.6389 0.64194 0.0
N519 N 0.87573 0.60973 0.6711 0.0
N520 N 0.92517 0.60841 0.60853 0.0
C521 C 0.90925 0.5723 0.62006 0.0
C522 C 0.88268 0.57289 0.65425 0.0
C523 C 0.13693 0.02039 0.64629 0.0
C524 C 0.14711 0.98356 0.66525 0.0
C525 C 0.11196 0.02144 0.61211 0.0
C526 C 0.0962 0.98579 0.59509 0.0
H527 H 0.14848 0.04889 0.65771 0.0
H528 H 0.10521 0.0506 0.59865 0.0
S529 S 0.11043 0.8817 0.63447 0.0
N530 N 0.13774 0.91037 0.6651 0.0
N531 N 0.09005 0.9128 0.60103 0.0
C532 C 0.10549 0.94873 0.61375 0.0
C533 C 0.13109 0.94753 0.64877 0.0
C534 C 0.86997 0.51939 0.87403 0.0
C535 C 0.86256 0.48332 0.85248 0.0
C536 C 0.89667 0.52041 0.9069 0.0
C537 C 0.91688 0.4854 0.91984 0.0
H538 H 0.8549 0.54724 0.86564 0.0
H539 H 0.9012 0.54885 0.92265 0.0
S540 S 0.91158 0.38413 0.87196 0.0
N541 N 0.87964 0.41197 0.84544 0.0
N542 N 0.93031 0.41435 0.90719 0.0
C543 C 0.91043 0.44922 0.8985 0.0
C544 C 0.88313 0.44807 0.86485 0.0
C545 C 0.13436 0.06787 0.87283 0.0
C546 C 0.14186 0.03254 0.85011 0.0
C547 C 0.10853 0.06721 0.90664 0.0
C548 C 0.08924 0.0313 0.91904 0.0
H549 H 0.14892 0.09616 0.86483 0.0
H550 H 0.10328 0.09507 0.92287 0.0
S551 S 0.0974 0.93078 0.86929 0.0
N552 N 0.12641 0.96083 0.84197 0.0
N553 N 0.07876 0.95966 0.90537 0.0
C554 C 0.09581 0.99602 0.8961 0.0
C555 C 0.12193 0.99662 0.86179 0.0
C556 C 0.64317 0.88038 0.57104 0.0
C557 C 0.66206 0.86818 0.53478 0.0
C558 C 0.60857 0.90521 0.57058 0.0
C559 C 0.59177 0.91871 0.53388 0.0
H560 H 0.65528 0.87094 0.60001 0.0
H561 H 0.59553 0.91466 0.59906 0.0
S562 S 0.62705 0.89303 0.43058 0.0
N563 N 0.65927 0.87014 0.46102 0.0
N564 N 0.59486 0.91635 0.46055 0.0
C565 C 0.60972 0.90607 0.49757 0.0
C566 C 0.64463 0.88091 0.4979 0.0
C567 C 0.6481 0.13676 0.94147 0.0
C568 C 0.67082 0.14649 0.97628 0.0
C569 C 0.6143 0.11081 0.94366 0.0
C570 C 0.60182 0.09377 0.98064 0.0
H571 H 0.6561 0.14966 0.91242 0.0
H572 H 0.59815 0.10365 0.91616 0.0
S573 S 0.65204 0.10743 0.08025 0.0
N574 N 0.67927 0.13487 0.04868 0.0
N575 N 0.61573 0.08719 0.05253 0.0
C576 C 0.62489 0.10232 0.01536 0.0
C577 C 0.65923 0.12849 0.01326 0.0
C578 C 0.36564 0.38455 0.95072 0.0
C579 C 0.33769 0.38153 0.98259 0.0
C580 C 0.39782 0.41233 0.95231 0.0
C581 C 0.40319 0.43845 0.98565 0.0
H582 H 0.36363 0.36426 0.92505 0.0
H583 H 0.41901 0.41276 0.92743 0.0
S584 S 0.3355 0.44584 0.07476 0.0
N585 N 0.3154 0.40952 0.04687 0.0
N586 N 0.37574 0.46158 0.04977 0.0
C587 C 0.37408 0.43732 0.0166 0.0
C588 C 0.34149 0.40884 0.01514 0.0
C589 C 0.87454 0.14625 0.06553 0.0
C590 C 0.84523 0.14399 0.03471 0.0
C591 C 0.90775 0.11966 0.0661 0.0
C592 C 0.9131 0.09008 0.03592 0.0
H593 H 0.87271 0.16963 0.08843 0.0
H594 H 0.92955 0.12255 0.09009 0.0
S595 S 0.84118 0.06806 0.95197 0.0
N596 N 0.82102 0.10678 0.976 0.0
N597 N 0.88331 0.05769 0.97661 0.0
C598 C 0.88246 0.08605 0.00642 0.0
C599 C 0.84871 0.11286 0.0059 0.0
C600 C 0.97419 0.14489 0.2165 0.0
C601 C 0.96837 0.18568 0.20615 0.0
C602 C 0.98514 0.11643 0.18713 0.0
C603 C 0.99069 0.12796 0.14656 0.0
H604 H 0.974 0.13571 0.24799 0.0
H605 H 0.99284 0.08606 0.19683 0.0
S606 S 0.97496 0.23037 0.10365 0.0
N607 N 0.96518 0.23561 0.15238 0.0
N608 N 0.98636 0.18216 0.09702 0.0
C609 C 0.98162 0.16795 0.13532 0.0
C610 C 0.97028 0.19688 0.16525 0.0
C611 C 0.03842 0.38433 0.21936 0.0
C612 C 0.05058 0.34494 0.20933 0.0
C613 C 0.02599 0.41148 0.18937 0.0
C614 C 0.02512 0.39997 0.14844 0.0
H615 H 0.03452 0.39279 0.2508 0.0
H616 H 0.01314 0.44017 0.19863 0.0
S617 S 0.0599 0.30223 0.10624 0.0
N618 N 0.06609 0.29736 0.15565 0.0
N619 N 0.04202 0.34835 0.09898 0.0
C620 C 0.04136 0.36225 0.13766 0.0
C621 C 0.05426 0.3346 0.16832 0.0
C622 C 0.97187 0.82588 0.35147 0.0
C623 C 0.96385 0.83715 0.31122 0.0
C624 C 0.98172 0.85511 0.38072 0.0
C625 C 0.98462 0.89627 0.37022 0.0
H626 H 0.9743 0.79414 0.35945 0.0
H627 H 0.99158 0.845 0.41034 0.0
S628 S 0.96041 0.94148 0.27059 0.0
N629 N 0.95419 0.89229 0.26373 0.0
N630 N 0.97372 0.94722 0.31847 0.0
C631 C 0.97283 0.90809 0.33116 0.0
C632 C 0.96224 0.87844 0.30161 0.0
C633 C 0.03813 0.63936 0.30176 0.0
C634 C 0.04625 0.67987 0.31163 0.0
C635 C 0.02785 0.61134 0.33182 0.0
C636 C 0.02507 0.6231 0.37261 0.0
H637 H 0.03609 0.63017 0.27034 0.0
H638 H 0.0181 0.58136 0.32264 0.0
S639 S 0.04775 0.72479 0.41421 0.0
N640 N 0.05487 0.72964 0.36495 0.0
N641 N 0.03504 0.67694 0.42171 0.0
C642 C 0.03693 0.66255 0.38325 0.0
C643 C 0.04754 0.69109 0.35256 0.0
C644 C 0.16679 0.98238 0.19405 0.0
C645 C 0.20563 0.97129 0.18111 0.0
C646 C 0.137 0.99376 0.16612 0.0
C647 C 0.14488 0.9938 0.12441 0.0
H648 H 0.16078 0.98652 0.22601 0.0
H649 H 0.10945 0.00714 0.1775 0.0
S650 S 0.2409 0.9646 0.07514 0.0
N651 N 0.2498 0.95875 0.12403 0.0
N652 N 0.19339 0.97955 0.07136 0.0
C653 C 0.18258 0.97981 0.111 0.0
C654 C 0.21305 0.96848 0.13946 0.0
C655 C 0.7938 0.53976 0.13672 0.0
C656 C 0.80493 0.55083 0.1762 0.0
C657 C 0.82287 0.52738 0.10866 0.0
C658 C 0.86402 0.5256 0.11922 0.0
H659 H 0.76212 0.53684 0.12873 0.0
H660 H 0.8127 0.51566 0.07974 0.0
S661 S 0.90905 0.55662 0.21716 0.0
N662 N 0.85995 0.56353 0.22323 0.0
N663 N 0.91491 0.54022 0.17031 0.0
C664 C 0.87594 0.54045 0.15726 0.0
C665 C 0.84621 0.55308 0.18589 0.0
C666 C 0.16739 0.05413 0.32676 0.0
C667 C 0.20861 0.05297 0.33728 0.0
C668 C 0.13753 0.04178 0.35449 0.0
C669 C 0.14833 0.0277 0.39321 0.0
H670 H 0.15852 0.06066 0.29587 0.0
H671 H 0.10648 0.03937 0.34423 0.0
S672 S 0.25158 0.02444 0.43673 0.0
N673 N 0.25814 0.04132 0.39014 0.0
N674 N 0.20233 0.01806 0.4421 0.0
C675 C 0.18902 0.03029 0.40512 0.0
C676 C 0.21916 0.04294 0.37712 0.0
C677 C 0.79518 0.48158 0.37928 0.0
C678 C 0.80647 0.47156 0.33963 0.0
C679 C 0.82415 0.49326 0.40794 0.0
C680 C 0.86538 0.49544 0.39787 0.0
H681 H 0.76347 0.48406 0.38709 0.0
H682 H 0.81385 0.50413 0.43708 0.0
S683 S 0.9108 0.46727 0.29951 0.0
N684 N 0.86172 0.4604 0.29278 0.0
N685 N 0.91647 0.4824 0.34685 0.0
C686 C 0.87744 0.48173 0.35952 0.0
C687 C 0.84781 0.46981 0.33024 0.0
C688 C 0.18566 0.16701 0.96342 0.0
C689 C 0.17594 0.20844 0.96331 0.0
C690 C 0.15684 0.13779 0.97491 0.0
C691 C 0.11777 0.14943 0.98692 0.0
H692 H 0.21665 0.15756 0.95879 0.0
H693 H 0.1665 0.1067 0.97875 0.0
S694 S 0.07627 0.25354 0.98628 0.0
N695 N 0.12363 0.25905 0.97144 0.0
N696 N 0.06962 0.20441 0.99315 0.0
C697 C 0.10674 0.19027 0.98277 0.0
C698 C 0.13588 0.21978 0.97097 0.0
C699 C 0.18571 0.85283 0.54792 0.0
C700 C 0.17625 0.81131 0.54737 0.0
C701 C 0.15696 0.88173 0.53589 0.0
C702 C 0.11831 0.86959 0.52272 0.0
H703 H 0.21645 0.86265 0.5538 0.0
H704 H 0.16629 0.91308 0.53304 0.0
S705 S 0.0774 0.76505 0.52193 0.0
N706 N 0.12456 0.76001 0.53763 0.0
N707 N 0.07058 0.81411 0.51499 0.0
C708 C 0.10751 0.82859 0.52601 0.0
C709 C 0.13657 0.79941 0.53834 0.0
C710 C 0.82934 0.67108 0.55616 0.0
C711 C 0.83938 0.71248 0.55533 0.0
C712 C 0.85761 0.64165 0.54434 0.0
C713 C 0.89639 0.65311 0.53114 0.0
H714 H 0.79842 0.66177 0.56176 0.0
H715 H 0.84771 0.61048 0.54144 0.0
S716 S 0.93897 0.75695 0.52995 0.0
N717 N 0.89194 0.76283 0.54556 0.0
N718 N 0.945 0.70775 0.52339 0.0
C719 C 0.9079 0.69391 0.5345 0.0
C720 C 0.87932 0.72363 0.5466 0.0
C721 C 0.37629 0.80261 0.47299 0.0
C722 C 0.33572 0.81209 0.46495 0.0
C723 C 0.40368 0.83266 0.48518 0.0
C724 C 0.39134 0.87312 0.48972 0.0
H725 H 0.38582 0.77125 0.47418 0.0
H726 H 0.43354 0.82349 0.49511 0.0
S727 S 0.28968 0.91412 0.46717 0.0
N728 N 0.28555 0.86509 0.45797 0.0
N729 N 0.33718 0.9218 0.48083 0.0
C730 C 0.35205 0.88364 0.47756 0.0
C731 C 0.3241 0.85294 0.46521 0.0
C732 C 0.49173 0.69701 0.6699 0.0
C733 C 0.47526 0.68388 0.70678 0.0
C734 C 0.50115 0.66935 0.63934 0.0
C735 C 0.49435 0.62774 0.64471 0.0
H736 H 0.50056 0.72838 0.66602 0.0
H737 H 0.51759 0.68015 0.61311 0.0
S738 S 0.44768 0.57865 0.73388 0.0
N739 N 0.44893 0.6273 0.74563 0.0
N740 N 0.46712 0.575 0.68799 0.0
C741 C 0.47495 0.61461 0.68009 0.0
C742 C 0.4651 0.64287 0.71121 0.0
C743 C 0.53619 0.8809 0.72308 0.0
C744 C 0.54735 0.84123 0.71303 0.0
C745 C 0.52355 0.90818 0.69321 0.0
C746 C 0.52168 0.89669 0.65226 0.0
H747 H 0.53393 0.88978 0.75453 0.0
H748 H 0.51184 0.93731 0.70264 0.0
S749 S 0.55244 0.79763 0.60993 0.0
N750 N 0.55983 0.79291 0.6592 0.0
N751 N 0.53588 0.84428 0.60279 0.0
C752 C 0.53648 0.85839 0.64139 0.0
C753 C 0.54932 0.83053 0.67195 0.0
C754 C 0.46736 0.32349 0.85643 0.0
C755 C 0.47963 0.33731 0.81806 0.0
C756 C 0.47579 0.34633 0.89142 0.0
C757 C 0.49642 0.38349 0.88867 0.0
H758 H 0.45432 0.29355 0.85975 0.0
H759 H 0.46861 0.33367 0.9208 0.0
S760 S 0.52908 0.43539 0.79501 0.0
N761 N 0.50931 0.3922 0.77918 0.0
N762 N 0.52442 0.43519 0.84474 0.0
C763 C 0.50572 0.39894 0.85033 0.0
C764 C 0.49745 0.37579 0.81498 0.0
C765 C 0.55562 0.14273 0.79943 0.0
C766 C 0.56328 0.18317 0.81019 0.0
C767 C 0.54145 0.11486 0.82808 0.0
C768 C 0.5348 0.1265 0.86841 0.0
H769 H 0.55595 0.13385 0.76786 0.0
H770 H 0.53186 0.08519 0.81776 0.0
S771 S 0.55601 0.22723 0.91289 0.0
N772 N 0.56783 0.23227 0.86457 0.0
N773 N 0.54164 0.17963 0.91873 0.0
C774 C 0.5468 0.16548 0.8805 0.0
C775 C 0.56102 0.19396 0.8512 0.0
C776 C 0.71629 0.47276 0.63626 0.0
C777 C 0.70521 0.46434 0.67636 0.0
C778 C 0.6873 0.48462 0.60773 0.0
C779 C 0.6464 0.48861 0.61851 0.0
H780 H 0.74795 0.47428 0.62801 0.0
H781 H 0.69752 0.49466 0.57824 0.0
S782 S 0.60166 0.46521 0.71841 0.0
N783 N 0.65045 0.45634 0.72439 0.0
N784 N 0.59576 0.47912 0.67075 0.0
C785 C 0.63443 0.4762 0.65732 0.0
C786 C 0.66401 0.46398 0.68637 0.0
C787 C 0.29876 0.04999 0.64215 0.0
C788 C 0.30866 0.05459 0.68321 0.0
C789 C 0.32816 0.03865 0.61392 0.0
C790 C 0.36835 0.03159 0.6259 0.0
H791 H 0.26742 0.05101 0.63257 0.0
H792 H 0.31858 0.03147 0.58336 0.0
S793 S 0.41027 0.04413 0.72916 0.0
N794 N 0.36181 0.0552 0.73389 0.0
N795 N 0.41729 0.03396 0.68072 0.0
C796 C 0.37939 0.0401 0.66607 0.0
C797 C 0.34937 0.05155 0.69485 0.0
C798 C 0.6538 0.53549 0.80703 0.0
C799 C 0.69002 0.54713 0.82604 0.0
C800 C 0.62128 0.5205 0.82965 0.0
C801 C 0.62372 0.51739 0.87201 0.0
H802 H 0.65237 0.5333 0.77434 0.0
H803 H 0.59611 0.50683 0.81362 0.0
S804 S 0.70954 0.55007 0.93626 0.0
N805 N 0.72483 0.55919 0.88954 0.0
N806 N 0.66297 0.53225 0.9323 0.0
C807 C 0.65771 0.53385 0.89155 0.0
C808 C 0.69121 0.54838 0.86843 0.0
C809 C 0.3501 0.97555 0.8216 0.0
C810 C 0.31068 0.96832 0.83564 0.0
C811 C 0.38082 0.98776 0.84827 0.0
C812 C 0.37315 0.99253 0.88977 0.0
H813 H 0.35609 0.97622 0.78937 0.0
H814 H 0.4091 0.99828 0.83561 0.0
S815 S 0.27596 0.97344 0.94187 0.0
N816 N 0.26631 0.96366 0.89377 0.0
N817 N 0.32434 0.98592 0.94407 0.0
C818 C 0.33483 0.98186 0.90456 0.0
C819 C 0.30347 0.96979 0.87739 0.0
C820 C 0.69047 0.6679 0.4682 0.0
C821 C 0.68032 0.70919 0.46795 0.0
C822 C 0.66164 0.63842 0.47878 0.0
C823 C 0.62208 0.64964 0.4895 0.0
H824 H 0.72166 0.65876 0.46431 0.0
H825 H 0.67145 0.60738 0.48267 0.0
S826 S 0.57972 0.75336 0.48846 0.0
N827 N 0.62743 0.75937 0.47501 0.0
N828 N 0.57328 0.70413 0.49484 0.0
C829 C 0.61082 0.69039 0.48547 0.0
C830 C 0.64001 0.72021 0.47468 0.0
C831 C 0.65947 0.33069 0.04592 0.0
C832 C 0.6923 0.32532 0.01949 0.0
C833 C 0.63035 0.36087 0.03835 0.0
C834 C 0.6336 0.38638 1.00434 0.0
H835 H 0.6548 0.30986 0.07082 0.0
H836 H 0.60395 0.3625 0.05762 0.0
S837 S 0.7176 0.3892 0.93053 0.0
N838 N 0.72895 0.35148 0.96129 0.0
N839 N 0.67456 0.40779 0.94741 0.0
C840 C 0.66787 0.38325 0.97978 0.0
C841 C 0.69722 0.35283 0.98734 0.0
C842 C 0.3295 0.17032 0.04749 0.0
C843 C 0.3386 0.21197 0.0466 0.0
C844 C 0.35817 0.14147 0.03502 0.0
C845 C 0.39646 0.15371 0.02106 0.0
H846 H 0.29894 0.16033 0.05387 0.0
H847 H 0.34894 0.11007 0.03245 0.0
S848 S 0.43658 0.25854 0.01875 0.0
N849 N 0.38981 0.26339 0.03546 0.0
N850 N 0.44354 0.20949 0.01207 0.0
C851 C 0.40702 0.19481 0.02401 0.0
C852 C 0.37806 0.22393 0.03678 0.0
C853 C 0.83896 0.34448 0.95081 0.0
C854 C 0.84956 0.30333 0.95371 0.0
C855 C 0.86453 0.37489 0.96629 0.0
C856 C 0.90144 0.36483 0.98485 0.0
H857 H 0.80899 0.35286 0.94074 0.0
H858 H 0.85357 0.40576 0.96735 0.0
S859 S 0.946 0.2623 0.99296 0.0
N860 N 0.90159 0.25481 0.97121 0.0
N861 N 0.94992 0.31173 0.99965 0.0
C862 C 0.9143 0.32434 0.98346 0.0
C863 C 0.8883 0.29359 0.96788 0.0
loop_
_geom_bond_atom_site_label_1
_geom_bond_atom_site_label_2
_geom_bond_distance
_geom_bond_site_symmetry_2
_ccdc_geom_bond_type
C0 O2 1.247 . S
C0 O4 1.258 1_455 S
C1 O8 1.247 . S
C1 O9 1.258 1_655 S
O2 C0 1.247 . S
O2 Zn3 2.028 . S
Zn3 O2 2.028 . S
Zn3 O7 2.035 . S
Zn3 O9 2.035 . S
Zn3 O10 2.028 . S
O4 C0 1.258 1_655 S
O4 Zn5 2.035 . S
Zn5 O4 2.035 . S
Zn5 O6 2.028 . S
Zn5 O8 2.028 . S
Zn5 O11 2.035 . S
O6 Zn5 2.028 . S
O6 C12 1.247 . S
O7 Zn3 2.035 . S
O7 C12 1.258 1_455 S
O8 C1 1.247 . S
O8 Zn5 2.028 . S
O9 C1 1.258 1_455 S
O9 Zn3 2.035 . S
O10 Zn3 2.028 . S
O10 C13 1.247 . S
O11 Zn5 2.035 . S
O11 C13 1.258 1_655 S
C12 O6 1.247 . S
C12 O7 1.258 1_655 S
C13 O10 1.247 . S
C13 O11 1.258 1_455 S
C14 O16 1.247 . S
C14 O18 1.258 1_455 S
C15 O22 1.247 . S
C15 O23 1.258 1_655 S
O16 C14 1.247 . S
O16 Zn17 2.028 . S
Zn17 O16 2.028 . S
Zn17 O21 2.035 . S
Zn17 O23 2.035 . S
Zn17 O24 2.028 . S
O18 C14 1.258 1_655 S
O18 Zn19 2.035 . S
Zn19 O18 2.035 . S
Zn19 O20 2.028 . S
Zn19 O22 2.028 . S
Zn19 O25 2.035 . S
O20 Zn19 2.028 . S
O20 C26 1.247 . S
O21 Zn17 2.035 . S
O21 C26 1.258 1_455 S
O22 C15 1.247 . S
O22 Zn19 2.028 . S
O23 C15 1.258 1_455 S
O23 Zn17 2.035 . S
O24 Zn17 2.028 . S
O24 C27 1.247 . S
O25 Zn19 2.035 . S
O25 C27 1.258 1_655 S
C26 O20 1.247 . S
C26 O21 1.258 1_655 S
C27 O24 1.247 . S
C27 O25 1.258 1_455 S
C28 O30 1.247 1_545 S
C28 O32 1.258 . S
C29 O36 1.247 1_565 S
C29 O37 1.258 . S
O30 C28 1.247 1_565 S
O30 Zn31 2.028 . S
Zn31 O30 2.028 . S
Zn31 O35 2.035 . S
Zn31 O37 2.035 . S
Zn31 O38 2.028 . S
O32 C28 1.258 . S
O32 Zn33 2.035 . S
Zn33 O32 2.035 . S
Zn33 O34 2.028 . S
Zn33 O36 2.028 . S
Zn33 O39 2.035 . S
O34 Zn33 2.028 . S
O34 C40 1.247 1_545 S
O35 Zn31 2.035 . S
O35 C40 1.258 . S
O36 C29 1.247 1_545 S
O36 Zn33 2.028 . S
O37 C29 1.258 . S
O37 Zn31 2.035 . S
O38 Zn31 2.028 . S
O38 C41 1.247 1_565 S
O39 Zn33 2.035 . S
O39 C41 1.258 . S
C40 O34 1.247 1_565 S
C40 O35 1.258 . S
C41 O38 1.247 1_545 S
C41 O39 1.258 . S
C42 O44 1.247 . S
C42 O46 1.258 . S
C43 O50 1.247 . S
C43 O51 1.258 . S
O44 C42 1.247 . S
O44 Zn45 2.028 . S
Zn45 O44 2.028 . S
Zn45 O49 2.035 . S
Zn45 O51 2.035 . S
Zn45 O52 2.028 . S
O46 C42 1.258 . S
O46 Zn47 2.035 . S
Zn47 O46 2.035 . S
Zn47 O48 2.028 . S
Zn47 O50 2.028 . S
Zn47 O53 2.035 . S
O48 Zn47 2.028 . S
O48 C54 1.247 . S
O49 Zn45 2.035 . S
O49 C54 1.258 . S
O50 C43 1.247 . S
O50 Zn47 2.028 . S
O51 C43 1.258 . S
O51 Zn45 2.035 . S
O52 Zn45 2.028 . S
O52 C55 1.247 . S
O53 Zn47 2.035 . S
O53 C55 1.258 . S
C54 O48 1.247 . S
C54 O49 1.258 . S
C55 O52 1.247 . S
C55 O53 1.258 . S
C56 O58 1.247 1_554 S
C56 O60 1.258 . S
C57 O64 1.247 1_556 S
C57 O65 1.258 . S
O58 C56 1.247 1_556 S
O58 Zn59 2.028 . S
Zn59 O58 2.028 . S
Zn59 O63 2.035 . S
Zn59 O65 2.035 . S
Zn59 O66 2.028 . S
O60 C56 1.258 . S
O60 Zn61 2.035 . S
Zn61 O60 2.035 . S
Zn61 O62 2.028 . S
Zn61 O64 2.028 . S
Zn61 O67 2.035 . S
O62 Zn61 2.028 . S
O62 C68 1.247 1_554 S
O63 Zn59 2.035 . S
O63 C68 1.258 . S
O64 C57 1.247 1_554 S
O64 Zn61 2.028 . S
O65 C57 1.258 . S
O65 Zn59 2.035 . S
O66 Zn59 2.028 . S
O66 C69 1.247 1_556 S
O67 Zn61 2.035 . S
O67 C69 1.258 . S
C68 O62 1.247 1_556 S
C68 O63 1.258 . S
C69 O66 1.247 1_554 S
C69 O67 1.258 . S
C70 O72 1.247 . S
C70 O74 1.258 . S
C71 O78 1.247 . S
C71 O79 1.258 . S
O72 C70 1.247 . S
O72 Zn73 2.028 . S
Zn73 O72 2.028 . S
Zn73 O77 2.035 . S
Zn73 O79 2.035 . S
Zn73 O80 2.028 . S
O74 C70 1.258 . S
O74 Zn75 2.035 . S
Zn75 O74 2.035 . S
Zn75 O76 2.028 . S
Zn75 O78 2.028 . S
Zn75 O81 2.035 . S
O76 Zn75 2.028 . S
O76 C82 1.247 . S
O77 Zn73 2.035 . S
O77 C82 1.258 . S
O78 C71 1.247 . S
O78 Zn75 2.028 . S
O79 C71 1.258 . S
O79 Zn73 2.035 . S
O80 Zn73 2.028 . S
O80 C83 1.247 . S
O81 Zn75 2.035 . S
O81 C83 1.258 . S
C82 O76 1.247 . S
C82 O77 1.258 . S
C83 O80 1.247 . S
C83 O81 1.258 . S
C84 O86 1.247 . S
C84 O88 1.258 . S
C85 O92 1.247 . S
C85 O93 1.258 . S
O86 C84 1.247 . S
O86 Zn87 2.028 . S
Zn87 O86 2.028 . S
Zn87 O91 2.035 . S
Zn87 O93 2.035 . S
Zn87 O94 2.028 . S
O88 C84 1.258 . S
O88 Zn89 2.035 . S
Zn89 O88 2.035 . S
Zn89 O90 2.028 . S
Zn89 O92 2.028 . S
Zn89 O95 2.035 . S
O90 Zn89 2.028 . S
O90 C96 1.247 . S
O91 Zn87 2.035 . S
O91 C96 1.258 . S
O92 C85 1.247 . S
O92 Zn89 2.028 . S
O93 C85 1.258 . S
O93 Zn87 2.035 . S
O94 Zn87 2.028 . S
O94 C97 1.247 . S
O95 Zn89 2.035 . S
O95 C97 1.258 . S
C96 O90 1.247 . S
C96 O91 1.258 . S
C97 O94 1.247 . S
C97 O95 1.258 . S
C98 O100 1.247 . S
C98 O102 1.258 . S
C99 O106 1.247 . S
C99 O107 1.258 . S
O100 C98 1.247 . S
O100 Zn101 2.028 . S
Zn101 O100 2.028 . S
Zn101 O105 2.035 . S
Zn101 O107 2.035 . S
Zn101 O108 2.028 . S
O102 C98 1.258 . S
O102 Zn103 2.035 . S
Zn103 O102 2.035 . S
Zn103 O104 2.028 . S
Zn103 O106 2.028 . S
Zn103 O109 2.035 . S
O104 Zn103 2.028 . S
O104 C110 1.247 . S
O105 Zn101 2.035 . S
O105 C110 1.258 . S
O106 C99 1.247 . S
O106 Zn103 2.028 . S
O107 C99 1.258 . S
O107 Zn101 2.035 . S
O108 Zn101 2.028 . S
O108 C111 1.247 . S
O109 Zn103 2.035 . S
O109 C111 1.258 . S
C110 O104 1.247 . S
C110 O105 1.258 . S
C111 O108 1.247 . S
C111 O109 1.258 . S
C112 O114 1.247 . S
C112 O116 1.258 . S
C113 O120 1.247 . S
C113 O121 1.258 . S
O114 C112 1.247 . S
O114 Zn115 2.028 . S
Zn115 O114 2.028 . S
Zn115 O119 2.035 . S
Zn115 O121 2.035 . S
Zn115 O122 2.028 . S
O116 C112 1.258 . S
O116 Zn117 2.035 . S
Zn117 O116 2.035 . S
Zn117 O118 2.028 . S
Zn117 O120 2.028 . S
Zn117 O123 2.035 . S
O118 Zn117 2.028 . S
O118 C124 1.247 . S
O119 Zn115 2.035 . S
O119 C124 1.258 . S
O120 C113 1.247 . S
O120 Zn117 2.028 . S
O121 C113 1.258 . S
O121 Zn115 2.035 . S
O122 Zn115 2.028 . S
O122 C125 1.247 . S
O123 Zn117 2.035 . S
O123 C125 1.258 . S
C124 O118 1.247 . S
C124 O119 1.258 . S
C125 O122 1.247 . S
C125 O123 1.258 . S
C126 O128 1.247 . S
C126 O130 1.258 . S
C127 O134 1.247 . S
C127 O135 1.258 . S
O128 C126 1.247 . S
O128 Zn129 2.028 . S
Zn129 O128 2.028 . S
Zn129 O133 2.035 . S
Zn129 O135 2.035 . S
Zn129 O136 2.028 . S
O130 C126 1.258 . S
O130 Zn131 2.035 . S
Zn131 O130 2.035 . S
Zn131 O132 2.028 . S
Zn131 O134 2.028 . S
Zn131 O137 2.035 . S
O132 Zn131 2.028 . S
O132 C138 1.247 . S
O133 Zn129 2.035 . S
O133 C138 1.258 . S
O134 C127 1.247 . S
O134 Zn131 2.028 . S
O135 C127 1.258 . S
O135 Zn129 2.035 . S
O136 Zn129 2.028 . S
O136 C139 1.247 . S
O137 Zn131 2.035 . S
O137 C139 1.258 . S
C138 O132 1.247 . S
C138 O133 1.258 . S
C139 O136 1.247 . S
C139 O137 1.258 . S
C140 O142 1.247 . S
C140 O144 1.258 1_565 S
C141 O148 1.247 . S
C141 O149 1.258 1_545 S
O142 C140 1.247 . S
O142 Zn143 2.028 . S
Zn143 O142 2.028 . S
Zn143 O147 2.035 . S
Zn143 O149 2.035 . S
Zn143 O150 2.028 . S
O144 C140 1.258 1_545 S
O144 Zn145 2.035 . S
Zn145 O144 2.035 . S
Zn145 O146 2.028 . S
Zn145 O148 2.028 . S
Zn145 O151 2.035 . S
O146 Zn145 2.028 . S
O146 C152 1.247 . S
O147 Zn143 2.035 . S
O147 C152 1.258 1_565 S
O148 C141 1.247 . S
O148 Zn145 2.028 . S
O149 C141 1.258 1_565 S
O149 Zn143 2.035 . S
O150 Zn143 2.028 . S
O150 C153 1.247 . S
O151 Zn145 2.035 . S
O151 C153 1.258 1_545 S
C152 O146 1.247 . S
C152 O147 1.258 1_545 S
C153 O150 1.247 . S
C153 O151 1.258 1_565 S
C154 O156 1.247 1_556 S
C154 O158 1.258 . S
C155 O162 1.247 1_554 S
C155 O163 1.258 . S
O156 C154 1.247 1_554 S
O156 Zn157 2.028 . S
Zn157 O156 2.028 . S
Zn157 O161 2.035 . S
Zn157 O163 2.035 . S
Zn157 O164 2.028 . S
O158 C154 1.258 . S
O158 Zn159 2.035 . S
Zn159 O158 2.035 . S
Zn159 O160 2.028 . S
Zn159 O162 2.028 . S
Zn159 O165 2.035 . S
O160 Zn159 2.028 . S
O160 C166 1.247 1_556 S
O161 Zn157 2.035 . S
O161 C166 1.258 . S
O162 C155 1.247 1_556 S
O162 Zn159 2.028 . S
O163 C155 1.258 . S
O163 Zn157 2.035 . S
O164 Zn157 2.028 . S
O164 C167 1.247 1_554 S
O165 Zn159 2.035 . S
O165 C167 1.258 . S
C166 O160 1.247 1_554 S
C166 O161 1.258 . S
C167 O164 1.247 1_556 S
C167 O165 1.258 . S
Zn168 O174 1.920 . S
Zn168 O180 1.898 . S
Zn168 O183 1.905 . S
Zn169 O177 1.905 1_665 S
Zn169 O178 1.898 1_656 S
Zn169 O186 1.920 1_566 S
Zn170 O173 2.080 . S
Zn170 O176 2.093 1_554 S
Zn170 O179 2.132 . S
Zn170 O181 2.120 . S
Zn170 O182 2.114 . S
Zn170 O185 2.066 1_455 S
C171 O176 1.190 . S
C171 O177 1.182 . S
C172 O178 1.167 . S
C172 O179 1.285 1_565 S
O173 Zn170 2.080 . S
O173 C187 1.305 . S
O174 Zn168 1.920 . S
O174 C187 1.234 . S
C175 O180 1.167 . S
C175 O181 1.299 . S
O176 Zn170 2.093 1_556 S
O176 C171 1.190 . S
O177 Zn169 1.905 1_445 S
O177 C171 1.182 . S
O178 Zn169 1.898 1_454 S
O178 C172 1.167 . S
O179 Zn170 2.132 . S
O179 C172 1.285 1_545 S
O180 Zn168 1.898 . S
O180 C175 1.167 . S
O181 Zn170 2.120 . S
O181 C175 1.299 . S
O182 Zn170 2.114 . S
O182 C184 1.166 . S
O183 Zn168 1.905 . S
O183 C184 1.182 . S
C184 O182 1.166 . S
C184 O183 1.182 . S
O185 Zn170 2.066 1_655 S
O185 C188 1.321 . S
O186 Zn169 1.920 1_544 S
O186 C188 1.234 . S
C187 O173 1.305 . S
C187 O174 1.234 . S
C188 O185 1.321 . S
C188 O186 1.234 . S
Zn189 O195 1.920 1_556 S
Zn189 O201 1.895 1_456 S
Zn189 O204 1.905 1_455 S
Zn190 O198 1.905 . S
Zn190 O199 1.898 . S
Zn190 O207 1.920 . S
Zn191 O194 2.080 1_655 S
Zn191 O197 2.114 . S
Zn191 O200 2.120 . S
Zn191 O202 2.120 . S
Zn191 O203 2.114 1_554 S
Zn191 O206 2.080 . S
C192 O197 1.166 . S
C192 O198 1.182 . S
C193 O199 1.167 . S
C193 O200 1.299 . S
O194 Zn191 2.080 1_455 S
O194 C208 1.305 . S
O195 Zn189 1.920 1_554 S
O195 C208 1.234 . S
C196 O201 1.172 . S
C196 O202 1.299 . S
O197 Zn191 2.114 . S
O197 C192 1.166 . S
O198 Zn190 1.905 . S
O198 C192 1.182 . S
O199 Zn190 1.898 . S
O199 C193 1.167 . S
O200 Zn191 2.120 . S
O200 C193 1.299 . S
O201 Zn189 1.895 1_654 S
O201 C196 1.172 . S
O202 Zn191 2.120 . S
O202 C196 1.299 . S
O203 Zn191 2.114 1_556 S
O203 C205 1.166 . S
O204 Zn189 1.905 1_655 S
O204 C205 1.182 . S
C205 O203 1.166 . S
C205 O204 1.182 . S
O206 Zn191 2.080 . S
O206 C209 1.305 . S
O207 Zn190 1.920 . S
O207 C209 1.234 . S
C208 O194 1.305 . S
C208 O195 1.234 . S
C209 O206 1.305 . S
C209 O207 1.234 . S
Zn210 O216 1.920 1_655 S
Zn210 O222 1.898 1_655 S
Zn210 O225 1.905 1_545 S
Zn211 O219 1.905 . S
Zn211 O220 1.898 . S
Zn211 O228 1.920 . S
Zn212 O215 2.080 1_565 S
Zn212 O218 2.114 . S
Zn212 O221 2.120 . S
Zn212 O223 2.120 . S
Zn212 O224 2.114 1_455 S
Zn212 O227 2.080 . S
C213 O218 1.166 . S
C213 O219 1.182 . S
C214 O220 1.167 . S
C214 O221 1.299 . S
O215 Zn212 2.080 1_545 S
O215 C229 1.305 . S
O216 Zn210 1.920 1_455 S
O216 C229 1.234 . S
C217 O222 1.167 1_565 S
C217 O223 1.299 . S
O218 Zn212 2.114 . S
O218 C213 1.166 . S
O219 Zn211 1.905 . S
O219 C213 1.182 . S
O220 Zn211 1.898 . S
O220 C214 1.167 . S
O221 Zn212 2.120 . S
O221 C214 1.299 . S
O222 Zn210 1.898 1_455 S
O222 C217 1.167 1_545 S
O223 Zn212 2.120 . S
O223 C217 1.299 . S
O224 Zn212 2.114 1_655 S
O224 C226 1.166 . S
O225 Zn210 1.905 1_565 S
O225 C226 1.182 . S
C226 O224 1.166 . S
C226 O225 1.182 . S
O227 Zn212 2.080 . S
O227 C230 1.305 . S
O228 Zn211 1.920 . S
O228 C230 1.234 . S
C229 O215 1.305 . S
C229 O216 1.234 . S
C230 O227 1.305 . S
C230 O228 1.234 . S
Zn231 O237 1.920 . S
Zn231 O243 1.898 . S
Zn231 O246 1.905 . S
Zn232 O240 1.910 . S
Zn232 O241 1.898 . S
Zn232 O249 1.920 1_455 S
Zn233 O236 2.080 . S
Zn233 O239 2.114 . S
Zn233 O242 2.120 1_655 S
Zn233 O244 2.120 . S
Zn233 O245 2.114 . S
Zn233 O248 2.080 . S
C234 O239 1.166 . S
C234 O240 1.176 1_655 S
C235 O241 1.167 . S
C235 O242 1.299 . S
O236 Zn233 2.080 . S
O236 C250 1.305 . S
O237 Zn231 1.920 . S
O237 C250 1.234 . S
C238 O243 1.167 . S
C238 O244 1.299 . S
O239 Zn233 2.114 . S
O239 C234 1.166 . S
O240 Zn232 1.910 . S
O240 C234 1.176 1_455 S
O241 Zn232 1.898 . S
O241 C235 1.167 . S
O242 Zn233 2.120 1_455 S
O242 C235 1.299 . S
O243 Zn231 1.898 . S
O243 C238 1.167 . S
O244 Zn233 2.120 . S
O244 C238 1.299 . S
O245 Zn233 2.114 . S
O245 C247 1.166 . S
O246 Zn231 1.905 . S
O246 C247 1.182 . S
C247 O245 1.166 . S
C247 O246 1.182 . S
O248 Zn233 2.080 . S
O248 C251 1.305 . S
O249 Zn232 1.920 1_655 S
O249 C251 1.234 . S
C250 O236 1.305 . S
C250 O237 1.234 . S
C251 O248 1.305 . S
C251 O249 1.234 . S
Zn252 O258 1.920 . S
Zn252 O264 1.898 . S
Zn252 O267 1.905 . S
Zn253 O261 1.905 . S
Zn253 O262 1.898 . S
Zn253 O270 1.920 1_545 S
Zn254 O257 2.080 . S
Zn254 O260 2.114 . S
Zn254 O263 2.120 1_565 S
Zn254 O265 2.120 . S
Zn254 O266 2.114 . S
Zn254 O269 2.080 . S
C255 O260 1.166 . S
C255 O261 1.182 1_565 S
C256 O262 1.167 . S
C256 O263 1.299 . S
O257 Zn254 2.080 . S
O257 C271 1.305 . S
O258 Zn252 1.920 . S
O258 C271 1.234 . S
C259 O264 1.167 . S
C259 O265 1.299 . S
O260 Zn254 2.114 . S
O260 C255 1.166 . S
O261 Zn253 1.905 . S
O261 C255 1.182 1_545 S
O262 Zn253 1.898 . S
O262 C256 1.167 . S
O263 Zn254 2.120 1_545 S
O263 C256 1.299 . S
O264 Zn252 1.898 . S
O264 C259 1.167 . S
O265 Zn254 2.120 . S
O265 C259 1.299 . S
O266 Zn254 2.114 . S
O266 C268 1.166 . S
O267 Zn252 1.905 . S
O267 C268 1.182 . S
C268 O266 1.166 . S
C268 O267 1.182 . S
O269 Zn254 2.080 . S
O269 C272 1.305 . S
O270 Zn253 1.920 1_565 S
O270 C272 1.234 . S
C271 O257 1.305 . S
C271 O258 1.234 . S
C272 O269 1.305 . S
C272 O270 1.234 . S
Zn273 O279 1.920 . S
Zn273 O285 1.898 . S
Zn273 O288 1.905 . S
Zn274 O282 1.905 . S
Zn274 O283 1.898 . S
Zn274 O291 1.920 . S
Zn275 O278 2.080 . S
Zn275 O281 2.114 . S
Zn275 O284 2.120 . S
Zn275 O286 2.120 . S
Zn275 O287 2.114 . S
Zn275 O290 2.080 . S
C276 O281 1.166 . S
C276 O282 1.182 . S
C277 O283 1.167 . S
C277 O284 1.299 . S
O278 Zn275 2.080 . S
O278 C292 1.305 . S
O279 Zn273 1.920 . S
O279 C292 1.234 . S
C280 O285 1.167 . S
C280 O286 1.299 . S
O281 Zn275 2.114 . S
O281 C276 1.166 . S
O282 Zn274 1.905 . S
O282 C276 1.182 . S
O283 Zn274 1.898 . S
O283 C277 1.167 . S
O284 Zn275 2.120 . S
O284 C277 1.299 . S
O285 Zn273 1.898 . S
O285 C280 1.167 . S
O286 Zn275 2.120 . S
O286 C280 1.299 . S
O287 Zn275 2.114 . S
O287 C289 1.166 . S
O288 Zn273 1.905 . S
O288 C289 1.182 . S
C289 O287 1.166 . S
C289 O288 1.182 . S
O290 Zn275 2.080 . S
O290 C293 1.305 . S
O291 Zn274 1.920 . S
O291 C293 1.234 . S
C292 O278 1.305 . S
C292 O279 1.234 . S
C293 O290 1.305 . S
C293 O291 1.234 . S
Zn294 O300 1.920 1_554 S
Zn294 O306 1.898 . S
Zn294 O309 1.905 . S
Zn295 O303 1.905 . S
Zn295 O304 1.898 . S
Zn295 O312 1.920 . S
Zn296 O299 2.080 . S
Zn296 O302 2.114 . S
Zn296 O305 2.120 . S
Zn296 O307 2.120 1_556 S
Zn296 O308 2.114 . S
Zn296 O311 2.080 . S
C297 O302 1.166 . S
C297 O303 1.182 . S
C298 O304 1.167 . S
C298 O305 1.299 . S
O299 Zn296 2.080 . S
O299 C313 1.305 . S
O300 Zn294 1.920 1_556 S
O300 C313 1.234 . S
C301 O306 1.167 . S
C301 O307 1.299 . S
O302 Zn296 2.114 . S
O302 C297 1.166 . S
O303 Zn295 1.905 . S
O303 C297 1.182 . S
O304 Zn295 1.898 . S
O304 C298 1.167 . S
O305 Zn296 2.120 . S
O305 C298 1.299 . S
O306 Zn294 1.898 . S
O306 C301 1.167 . S
O307 Zn296 2.120 1_554 S
O307 C301 1.299 . S
O308 Zn296 2.114 . S
O308 C310 1.166 . S
O309 Zn294 1.905 . S
O309 C310 1.182 1_554 S
C310 O308 1.166 . S
C310 O309 1.182 1_556 S
O311 Zn296 2.080 . S
O311 C314 1.305 . S
O312 Zn295 1.920 . S
O312 C314 1.234 . S
C313 O299 1.305 . S
C313 O300 1.234 . S
C314 O311 1.305 . S
C314 O312 1.234 . S
Zn315 O321 1.920 1_565 S
Zn315 O327 1.898 1_565 S
Zn315 O330 1.905 1_554 S
Zn316 O324 1.905 . S
Zn316 O325 1.898 . S
Zn316 O333 1.920 . S
Zn317 O320 2.080 1_556 S
Zn317 O323 2.114 . S
Zn317 O326 2.120 . S
Zn317 O328 2.120 . S
Zn317 O329 2.092 1_545 S
Zn317 O332 2.080 . S
C318 O323 1.166 . S
C318 O324 1.182 . S
C319 O325 1.167 . S
C319 O326 1.299 . S
O320 Zn317 2.080 1_554 S
O320 C334 1.305 . S
O321 Zn315 1.920 1_545 S
O321 C334 1.234 . S
C322 O327 1.167 1_556 S
C322 O328 1.299 . S
O323 Zn317 2.114 . S
O323 C318 1.166 . S
O324 Zn316 1.905 . S
O324 C318 1.182 . S
O325 Zn316 1.898 . S
O325 C319 1.167 . S
O326 Zn317 2.120 . S
O326 C319 1.299 . S
O327 Zn315 1.898 1_545 S
O327 C322 1.167 1_554 S
O328 Zn317 2.120 . S
O328 C322 1.299 . S
O329 Zn317 2.092 1_565 S
O329 C331 1.191 . S
O330 Zn315 1.905 1_556 S
O330 C331 1.182 . S
C331 O329 1.191 . S
C331 O330 1.182 . S
O332 Zn317 2.080 . S
O332 C335 1.305 . S
O333 Zn316 1.920 . S
O333 C335 1.234 . S
C334 O320 1.305 . S
C334 O321 1.234 . S
C335 O332 1.305 . S
C335 O333 1.234 . S
C336 C337 1.369 1_655 S
C336 C338 1.419 . S
C336 H340 0.930 . S
C337 C336 1.369 1_455 S
C337 C346 1.429 . S
C338 C336 1.419 . S
C338 C339 1.363 1_655 S
C338 H341 0.929 . S
C339 C338 1.363 1_455 S
C339 C345 1.428 . S
H340 C336 0.930 . S
H341 C338 0.929 . S
S342 N343 1.613 . S
S342 N344 1.610 . S
N343 S342 1.613 . S
N343 C346 1.350 . S
N344 S342 1.610 . S
N344 C345 1.351 . S
C345 C339 1.428 . S
C345 N344 1.351 . S
C345 C346 1.434 . S
C346 C337 1.429 . S
C346 N343 1.350 . S
C346 C345 1.434 . S
C347 C348 1.369 1_455 S
C347 C349 1.419 . S
C347 H351 0.930 . S
C348 C347 1.369 1_655 S
C348 C357 1.429 . S
C349 C347 1.419 . S
C349 C350 1.363 1_455 S
C349 H352 0.929 . S
C350 C349 1.363 1_655 S
C350 C356 1.428 . S
H351 C347 0.930 . S
H352 C349 0.929 . S
S353 N354 1.613 . S
S353 N355 1.610 . S
N354 S353 1.613 . S
N354 C357 1.350 . S
N355 S353 1.610 . S
N355 C356 1.351 . S
C356 C350 1.428 . S
C356 N355 1.351 . S
C356 C357 1.434 . S
C357 C348 1.429 . S
C357 N354 1.350 . S
C357 C356 1.434 . S
C358 C359 1.358 1_655 S
C358 C360 1.417 1_655 S
C358 H362 0.943 . S
C359 C358 1.358 1_455 S
C359 C368 1.429 . S
C360 C358 1.417 1_455 S
C360 C361 1.363 . S
C360 H363 0.929 1_455 S
C361 C360 1.363 . S
C361 C367 1.428 . S
H362 C358 0.943 . S
H363 C360 0.929 1_655 S
S364 N365 1.613 . S
S364 N366 1.610 . S
N365 S364 1.613 . S
N365 C368 1.350 . S
N366 S364 1.610 . S
N366 C367 1.351 . S
C367 C361 1.428 . S
C367 N366 1.351 . S
C367 C368 1.434 . S
C368 C359 1.429 . S
C368 N365 1.350 . S
C368 C367 1.434 . S
C369 C370 1.369 . S
C369 C371 1.419 . S
C369 H373 0.930 . S
C370 C369 1.369 . S
C370 C379 1.429 . S
C371 C369 1.419 . S
C371 C372 1.363 . S
C371 H374 0.929 . S
C372 C371 1.363 . S
C372 C378 1.428 . S
H373 C369 0.930 . S
H374 C371 0.929 . S
S375 N376 1.613 . S
S375 N377 1.610 . S
N376 S375 1.613 . S
N376 C379 1.350 . S
N377 S375 1.610 . S
N377 C378 1.351 . S
C378 C372 1.428 . S
C378 N377 1.351 . S
C378 C379 1.434 . S
C379 C370 1.429 . S
C379 N376 1.350 . S
C379 C378 1.434 . S
C380 C381 1.369 1_565 S
C380 C382 1.419 . S
C380 H384 0.930 . S
C381 C380 1.369 1_545 S
C381 C390 1.429 . S
C382 C380 1.419 . S
C382 C383 1.363 1_565 S
C382 H385 0.929 . S
C383 C382 1.363 1_545 S
C383 C389 1.428 . S
H384 C380 0.930 . S
H385 C382 0.929 . S
S386 N387 1.613 . S
S386 N388 1.610 . S
N387 S386 1.613 . S
N387 C390 1.350 . S
N388 S386 1.610 . S
N388 C389 1.351 . S
C389 C383 1.428 . S
C389 N388 1.351 . S
C389 C390 1.434 . S
C390 C381 1.429 . S
C390 N387 1.350 . S
C390 C389 1.434 . S
C391 C392 1.369 . S
C391 C393 1.419 . S
C391 H395 0.930 . S
C392 C391 1.369 . S
C392 C401 1.429 . S
C393 C391 1.419 . S
C393 C394 1.363 . S
C393 H396 0.929 . S
C394 C393 1.363 . S
C394 C400 1.428 . S
H395 C391 0.930 . S
H396 C393 0.929 . S
S397 N398 1.613 . S
S397 N399 1.610 . S
N398 S397 1.613 . S
N398 C401 1.350 . S
N399 S397 1.610 . S
N399 C400 1.351 . S
C400 C394 1.428 . S
C400 N399 1.351 . S
C400 C401 1.434 . S
C401 C392 1.429 . S
C401 N398 1.350 . S
C401 C400 1.434 . S
C402 C403 1.369 . S
C402 C404 1.419 . S
C402 H406 0.930 . S
C403 C402 1.369 . S
C403 C412 1.429 . S
C404 C402 1.419 . S
C404 C405 1.363 . S
C404 H407 0.929 . S
C405 C404 1.363 . S
C405 C411 1.428 . S
H406 C402 0.930 . S
H407 C404 0.929 . S
S408 N409 1.613 . S
S408 N410 1.610 . S
N409 S408 1.613 . S
N409 C412 1.350 . S
N410 S408 1.610 . S
N410 C411 1.351 . S
C411 C405 1.428 . S
C411 N410 1.351 . S
C411 C412 1.434 . S
C412 C403 1.429 . S
C412 N409 1.350 . S
C412 C411 1.434 . S
C413 C414 1.369 . S
C413 C415 1.419 . S
C413 H417 0.930 . S
C414 C413 1.369 . S
C414 C423 1.429 . S
C415 C413 1.419 . S
C415 C416 1.363 . S
C415 H418 0.929 . S
C416 C415 1.363 . S
C416 C422 1.428 . S
H417 C413 0.930 . S
H418 C415 0.929 . S
S419 N420 1.613 . S
S419 N421 1.610 . S
N420 S419 1.613 . S
N420 C423 1.350 . S
N421 S419 1.610 . S
N421 C422 1.351 . S
C422 C416 1.428 . S
C422 N421 1.351 . S
C422 C423 1.434 . S
C423 C414 1.429 . S
C423 N420 1.350 . S
C423 C422 1.434 . S
C424 C425 1.369 . S
C424 C426 1.419 . S
C424 H428 0.930 . S
C425 C424 1.369 . S
C425 C434 1.429 1_554 S
C426 C424 1.419 . S
C426 C427 1.363 . S
C426 H429 0.929 . S
C427 C426 1.363 . S
C427 C433 1.428 1_554 S
H428 C424 0.930 . S
H429 C426 0.929 . S
S430 N431 1.613 . S
S430 N432 1.610 . S
N431 S430 1.613 . S
N431 C434 1.350 . S
N432 S430 1.610 . S
N432 C433 1.351 . S
C433 C427 1.428 1_556 S
C433 N432 1.351 . S
C433 C434 1.434 . S
C434 C425 1.429 1_556 S
C434 N431 1.350 . S
C434 C433 1.434 . S
C435 C436 1.369 . S
C435 C437 1.419 . S
C435 H439 0.930 . S
C436 C435 1.369 . S
C436 C445 1.429 . S
C437 C435 1.419 . S
C437 C438 1.363 . S
C437 H440 0.929 . S
C438 C437 1.363 . S
C438 C444 1.428 . S
H439 C435 0.930 . S
H440 C437 0.929 . S
S441 N442 1.613 . S
S441 N443 1.610 . S
N442 S441 1.613 . S
N442 C445 1.350 . S
N443 S441 1.610 . S
N443 C444 1.351 . S
C444 C438 1.428 . S
C444 N443 1.351 . S
C444 C445 1.434 . S
C445 C436 1.429 . S
C445 N442 1.350 . S
C445 C444 1.434 . S
C446 C447 1.369 . S
C446 C448 1.419 . S
C446 H450 0.930 . S
C447 C446 1.369 . S
C447 C456 1.429 . S
C448 C446 1.419 . S
C448 C449 1.363 . S
C448 H451 0.929 . S
C449 C448 1.363 . S
C449 C455 1.428 . S
H450 C446 0.930 . S
H451 C448 0.929 . S
S452 N453 1.613 . S
S452 N454 1.610 . S
N453 S452 1.613 . S
N453 C456 1.350 . S
N454 S452 1.610 . S
N454 C455 1.351 . S
C455 C449 1.428 . S
C455 N454 1.351 . S
C455 C456 1.434 . S
C456 C447 1.429 . S
C456 N453 1.350 . S
C456 C455 1.434 . S
C457 C458 1.369 . S
C457 C459 1.419 . S
C457 H461 0.930 . S
C458 C457 1.369 . S
C458 C467 1.429 . S
C459 C457 1.419 . S
C459 C460 1.363 . S
C459 H462 0.929 . S
C460 C459 1.363 . S
C460 C466 1.428 . S
H461 C457 0.930 . S
H462 C459 0.929 . S
S463 N464 1.613 . S
S463 N465 1.610 . S
N464 S463 1.613 . S
N464 C467 1.350 . S
N465 S463 1.610 . S
N465 C466 1.351 . S
C466 C460 1.428 . S
C466 N465 1.351 . S
C466 C467 1.434 . S
C467 C458 1.429 . S
C467 N464 1.350 . S
C467 C466 1.434 . S
C468 C469 1.369 . S
C468 C470 1.419 . S
C468 H472 0.930 . S
C469 C468 1.369 . S
C469 C478 1.429 . S
C470 C468 1.419 . S
C470 C471 1.363 . S
C470 H473 0.929 . S
C471 C470 1.363 . S
C471 C477 1.428 . S
H472 C468 0.930 . S
H473 C470 0.929 . S
S474 N475 1.613 . S
S474 N476 1.610 . S
N475 S474 1.613 . S
N475 C478 1.350 . S
N476 S474 1.610 . S
N476 C477 1.351 . S
C477 C471 1.428 . S
C477 N476 1.351 . S
C477 C478 1.434 . S
C478 C469 1.429 . S
C478 N475 1.350 . S
C478 C477 1.434 . S
C479 C480 1.369 . S
C479 C481 1.419 . S
C479 H483 0.930 . S
C480 C479 1.369 . S
C480 C489 1.429 . S
C481 C479 1.419 . S
C481 C482 1.363 . S
C481 H484 0.929 . S
C482 C481 1.363 . S
C482 C488 1.428 . S
H483 C479 0.930 . S
H484 C481 0.929 . S
S485 N486 1.613 . S
S485 N487 1.610 . S
N486 S485 1.613 . S
N486 C489 1.350 . S
N487 S485 1.610 . S
N487 C488 1.351 . S
C488 C482 1.428 . S
C488 N487 1.351 . S
C488 C489 1.434 . S
C489 C480 1.429 . S
C489 N486 1.350 . S
C489 C488 1.434 . S
C490 C491 1.369 . S
C490 C492 1.419 . S
C490 H494 0.930 . S
C491 C490 1.369 . S
C491 C500 1.429 . S
C492 C490 1.419 . S
C492 C493 1.363 . S
C492 H495 0.929 . S
C493 C492 1.363 . S
C493 C499 1.428 . S
H494 C490 0.930 . S
H495 C492 0.929 . S
S496 N497 1.613 . S
S496 N498 1.610 . S
N497 S496 1.613 . S
N497 C500 1.350 . S
N498 S496 1.610 . S
N498 C499 1.351 . S
C499 C493 1.428 . S
C499 N498 1.351 . S
C499 C500 1.434 . S
C500 C491 1.429 . S
C500 N497 1.350 . S
C500 C499 1.434 . S
C501 C502 1.369 . S
C501 C503 1.419 . S
C501 H505 0.930 . S
C502 C501 1.369 . S
C502 C511 1.429 . S
C503 C501 1.419 . S
C503 C504 1.363 . S
C503 H506 0.929 . S
C504 C503 1.363 . S
C504 C510 1.428 . S
H505 C501 0.930 . S
H506 C503 0.929 . S
S507 N508 1.613 . S
S507 N509 1.610 . S
N508 S507 1.613 . S
N508 C511 1.350 . S
N509 S507 1.610 . S
N509 C510 1.351 . S
C510 C504 1.428 . S
C510 N509 1.351 . S
C510 C511 1.434 . S
C511 C502 1.429 . S
C511 N508 1.350 . S
C511 C510 1.434 . S
C512 C513 1.369 . S
C512 C514 1.419 . S
C512 H516 0.930 . S
C513 C512 1.369 . S
C513 C522 1.429 . S
C514 C512 1.419 . S
C514 C515 1.363 . S
C514 H517 0.929 . S
C515 C514 1.363 . S
C515 C521 1.428 . S
H516 C512 0.930 . S
H517 C514 0.929 . S
S518 N519 1.613 . S
S518 N520 1.610 . S
N519 S518 1.613 . S
N519 C522 1.350 . S
N520 S518 1.610 . S
N520 C521 1.351 . S
C521 C515 1.428 . S
C521 N520 1.351 . S
C521 C522 1.434 . S
C522 C513 1.429 . S
C522 N519 1.350 . S
C522 C521 1.434 . S
C523 C524 1.375 . S
C523 C525 1.419 . S
C523 H527 0.924 1_565 S
C524 C523 1.375 . S
C524 C533 1.429 . S
C525 C523 1.419 . S
C525 C526 1.363 . S
C525 H528 0.929 1_565 S
C526 C525 1.363 . S
C526 C532 1.428 . S
H527 C523 0.924 1_545 S
H528 C525 0.929 1_545 S
S529 N530 1.613 . S
S529 N531 1.610 . S
N530 S529 1.613 . S
N530 C533 1.350 . S
N531 S529 1.610 . S
N531 C532 1.351 . S
C532 C526 1.428 . S
C532 N531 1.351 . S
C532 C533 1.434 . S
C533 C524 1.429 . S
C533 N530 1.350 . S
C533 C532 1.434 . S
C534 C535 1.369 . S
C534 C536 1.419 . S
C534 H538 0.930 . S
C535 C534 1.369 . S
C535 C544 1.429 . S
C536 C534 1.419 . S
C536 C537 1.363 . S
C536 H539 0.929 . S
C537 C536 1.363 . S
C537 C543 1.428 . S
H538 C534 0.930 . S
H539 C536 0.929 . S
S540 N541 1.613 . S
S540 N542 1.610 . S
N541 S540 1.613 . S
N541 C544 1.350 . S
N542 S540 1.610 . S
N542 C543 1.351 . S
C543 C537 1.428 . S
C543 N542 1.351 . S
C543 C544 1.434 . S
C544 C535 1.429 . S
C544 N541 1.350 . S
C544 C543 1.434 . S
C545 C546 1.369 . S
C545 C547 1.419 . S
C545 H549 0.930 . S
C546 C545 1.369 . S
C546 C555 1.429 1_545 S
C547 C545 1.419 . S
C547 C548 1.363 . S
C547 H550 0.929 . S
C548 C547 1.363 . S
C548 C554 1.428 1_545 S
H549 C545 0.930 . S
H550 C547 0.929 . S
S551 N552 1.613 . S
S551 N553 1.610 . S
N552 S551 1.613 . S
N552 C555 1.350 . S
N553 S551 1.610 . S
N553 C554 1.351 . S
C554 C548 1.428 1_565 S
C554 N553 1.351 . S
C554 C555 1.434 . S
C555 C546 1.429 1_565 S
C555 N552 1.350 . S
C555 C554 1.434 . S
C556 C557 1.369 . S
C556 C558 1.419 . S
C556 H560 0.930 . S
C557 C556 1.369 . S
C557 C566 1.429 . S
C558 C556 1.419 . S
C558 C559 1.363 . S
C558 H561 0.929 . S
C559 C558 1.363 . S
C559 C565 1.428 . S
H560 C556 0.930 . S
H561 C558 0.929 . S
S562 N563 1.613 . S
S562 N564 1.610 . S
N563 S562 1.613 . S
N563 C566 1.350 . S
N564 S562 1.610 . S
N564 C565 1.351 . S
C565 C559 1.428 . S
C565 N564 1.351 . S
C565 C566 1.434 . S
C566 C557 1.429 . S
C566 N563 1.350 . S
C566 C565 1.434 . S
C567 C568 1.369 . S
C567 C569 1.419 . S
C567 H571 0.930 . S
C568 C567 1.369 . S
C568 C577 1.429 1_556 S
C569 C567 1.419 . S
C569 C570 1.363 . S
C569 H572 0.929 . S
C570 C569 1.363 . S
C570 C576 1.428 1_556 S
H571 C567 0.930 . S
H572 C569 0.929 . S
S573 N574 1.613 . S
S573 N575 1.610 . S
N574 S573 1.613 . S
N574 C577 1.350 . S
N575 S573 1.610 . S
N575 C576 1.351 . S
C576 C570 1.428 1_554 S
C576 N575 1.351 . S
C576 C577 1.434 . S
C577 C568 1.429 1_554 S
C577 N574 1.350 . S
C577 C576 1.434 . S
C578 C579 1.369 . S
C578 C580 1.419 . S
C578 H582 0.930 . S
C579 C578 1.369 . S
C579 C588 1.429 1_556 S
C580 C578 1.419 . S
C580 C581 1.363 . S
C580 H583 0.929 . S
C581 C580 1.363 . S
C581 C587 1.428 1_556 S
H582 C578 0.930 . S
H583 C580 0.929 . S
S584 N585 1.613 . S
S584 N586 1.610 . S
N585 S584 1.613 . S
N585 C588 1.350 . S
N586 S584 1.610 . S
N586 C587 1.351 . S
C587 C581 1.428 1_554 S
C587 N586 1.351 . S
C587 C588 1.434 . S
C588 C579 1.429 1_554 S
C588 N585 1.350 . S
C588 C587 1.434 . S
C589 C590 1.369 . S
C589 C591 1.419 . S
C589 H593 0.930 . S
C590 C589 1.369 . S
C590 C599 1.429 . S
C591 C589 1.419 . S
C591 C592 1.363 . S
C591 H594 0.929 . S
C592 C591 1.363 . S
C592 C598 1.428 . S
H593 C589 0.930 . S
H594 C591 0.929 . S
S595 N596 1.613 . S
S595 N597 1.610 . S
N596 S595 1.613 . S
N596 C599 1.350 . S
N597 S595 1.610 . S
N597 C598 1.351 . S
C598 C592 1.428 . S
C598 N597 1.351 . S
C598 C599 1.434 . S
C599 C590 1.429 . S
C599 N596 1.350 . S
C599 C598 1.434 . S
C600 C601 1.369 . S
C600 C602 1.419 . S
C600 H604 0.930 . S
C601 C600 1.369 . S
C601 C610 1.429 . S
C602 C600 1.419 . S
C602 C603 1.363 . S
C602 H605 0.929 . S
C603 C602 1.363 . S
C603 C609 1.428 . S
H604 C600 0.930 . S
H605 C602 0.929 . S
S606 N607 1.613 . S
S606 N608 1.610 . S
N607 S606 1.613 . S
N607 C610 1.350 1_655 S
N608 S606 1.610 . S
N608 C609 1.351 1_655 S
C609 C603 1.428 . S
C609 N608 1.351 1_455 S
C609 C610 1.434 . S
C610 C601 1.429 . S
C610 N607 1.350 1_455 S
C610 C609 1.434 . S
C611 C612 1.369 . S
C611 C613 1.419 . S
C611 H615 0.930 . S
C612 C611 1.369 . S
C612 C621 1.429 . S
C613 C611 1.419 . S
C613 C614 1.363 . S
C613 H616 0.929 . S
C614 C613 1.363 . S
C614 C620 1.428 . S
H615 C611 0.930 . S
H616 C613 0.929 . S
S617 N618 1.613 . S
S617 N619 1.610 . S
N618 S617 1.613 . S
N618 C621 1.350 . S
N619 S617 1.610 . S
N619 C620 1.351 . S
C620 C614 1.428 . S
C620 N619 1.351 . S
C620 C621 1.434 . S
C621 C612 1.429 . S
C621 N618 1.350 . S
C621 C620 1.434 . S
C622 C623 1.369 . S
C622 C624 1.419 . S
C622 H626 0.930 . S
C623 C622 1.369 . S
C623 C632 1.429 1_455 S
C624 C622 1.419 . S
C624 C625 1.363 . S
C624 H627 0.929 . S
C625 C624 1.363 . S
C625 C631 1.428 1_455 S
H626 C622 0.930 . S
H627 C624 0.929 . S
S628 N629 1.613 . S
S628 N630 1.610 . S
N629 S628 1.613 . S
N629 C632 1.350 . S
N630 S628 1.610 . S
N630 C631 1.351 . S
C631 C625 1.428 1_655 S
C631 N630 1.351 . S
C631 C632 1.434 . S
C632 C623 1.429 1_655 S
C632 N629 1.350 . S
C632 C631 1.434 . S
C633 C634 1.369 . S
C633 C635 1.419 . S
C633 H637 0.930 . S
C634 C633 1.369 . S
C634 C643 1.429 . S
C635 C633 1.419 . S
C635 C636 1.363 . S
C635 H638 0.929 . S
C636 C635 1.363 . S
C636 C642 1.428 . S
H637 C633 0.930 . S
H638 C635 0.929 . S
S639 N640 1.613 . S
S639 N641 1.610 . S
N640 S639 1.613 . S
N640 C643 1.350 1_455 S
N641 S639 1.610 . S
N641 C642 1.351 1_455 S
C642 C636 1.428 . S
C642 N641 1.351 1_655 S
C642 C643 1.434 . S
C643 C634 1.429 . S
C643 N640 1.350 1_655 S
C643 C642 1.434 . S
C644 C645 1.369 1_565 S
C644 C646 1.419 . S
C644 H648 0.930 . S
C645 C644 1.369 1_545 S
C645 C654 1.429 . S
C646 C644 1.419 . S
C646 C647 1.363 1_565 S
C646 H649 0.929 . S
C647 C646 1.363 1_545 S
C647 C653 1.428 . S
H648 C644 0.930 . S
H649 C646 0.929 . S
S650 N651 1.613 . S
S650 N652 1.610 . S
N651 S650 1.613 . S
N651 C654 1.350 . S
N652 S650 1.610 . S
N652 C653 1.351 . S
C653 C647 1.428 . S
C653 N652 1.351 . S
C653 C654 1.434 . S
C654 C645 1.429 . S
C654 N651 1.350 . S
C654 C653 1.434 . S
C655 C656 1.369 . S
C655 C657 1.419 . S
C655 H659 0.930 . S
C656 C655 1.369 . S
C656 C665 1.429 . S
C657 C655 1.419 . S
C657 C658 1.363 . S
C657 H660 0.929 . S
C658 C657 1.363 . S
C658 C664 1.428 . S
H659 C655 0.930 . S
H660 C657 0.929 . S
S661 N662 1.613 . S
S661 N663 1.610 . S
N662 S661 1.613 . S
N662 C665 1.350 . S
N663 S661 1.610 . S
N663 C664 1.351 . S
C664 C658 1.428 . S
C664 N663 1.351 . S
C664 C665 1.434 . S
C665 C656 1.429 . S
C665 N662 1.350 . S
C665 C664 1.434 . S
C666 C667 1.369 1_545 S
C666 C668 1.419 . S
C666 H670 0.930 . S
C667 C666 1.369 1_565 S
C667 C676 1.429 . S
C668 C666 1.419 . S
C668 C669 1.363 1_545 S
C668 H671 0.929 . S
C669 C668 1.363 1_565 S
C669 C675 1.428 . S
H670 C666 0.930 . S
H671 C668 0.929 . S
S672 N673 1.613 . S
S672 N674 1.610 . S
N673 S672 1.613 . S
N673 C676 1.350 . S
N674 S672 1.610 . S
N674 C675 1.351 . S
C675 C669 1.428 . S
C675 N674 1.351 . S
C675 C676 1.434 . S
C676 C667 1.429 . S
C676 N673 1.350 . S
C676 C675 1.434 . S
C677 C678 1.369 . S
C677 C679 1.419 . S
C677 H681 0.930 . S
C678 C677 1.369 . S
C678 C687 1.429 . S
C679 C677 1.419 . S
C679 C680 1.363 . S
C679 H682 0.929 . S
C680 C679 1.363 . S
C680 C686 1.428 . S
H681 C677 0.930 . S
H682 C679 0.929 . S
S683 N684 1.613 . S
S683 N685 1.610 . S
N684 S683 1.613 . S
N684 C687 1.350 . S
N685 S683 1.610 . S
N685 C686 1.351 . S
C686 C680 1.428 . S
C686 N685 1.351 . S
C686 C687 1.434 . S
C687 C678 1.429 . S
C687 N684 1.350 . S
C687 C686 1.434 . S
C688 C689 1.369 . S
C688 C690 1.419 . S
C688 H692 0.930 . S
C689 C688 1.369 . S
C689 C698 1.429 . S
C690 C688 1.419 . S
C690 C691 1.363 . S
C690 H693 0.929 . S
C691 C690 1.363 . S
C691 C697 1.436 . S
H692 C688 0.930 . S
H693 C690 0.929 . S
S694 N695 1.613 . S
S694 N696 1.610 . S
N695 S694 1.613 . S
N695 C698 1.350 1_556 S
N696 S694 1.610 . S
N696 C697 1.343 1_556 S
C697 C691 1.436 . S
C697 N696 1.343 1_554 S
C697 C698 1.435 . S
C698 C689 1.429 . S
C698 N695 1.350 1_554 S
C698 C697 1.435 . S
C699 C700 1.369 . S
C699 C701 1.419 . S
C699 H703 0.930 . S
C700 C699 1.369 . S
C700 C709 1.429 . S
C701 C699 1.419 . S
C701 C702 1.363 . S
C701 H704 0.929 . S
C702 C701 1.363 . S
C702 C708 1.428 . S
H703 C699 0.930 . S
H704 C701 0.929 . S
S705 N706 1.613 . S
S705 N707 1.610 . S
N706 S705 1.613 . S
N706 C709 1.350 . S
N707 S705 1.610 . S
N707 C708 1.351 . S
C708 C702 1.428 . S
C708 N707 1.351 . S
C708 C709 1.434 . S
C709 C700 1.429 . S
C709 N706 1.350 . S
C709 C708 1.434 . S
C710 C711 1.369 . S
C710 C712 1.419 . S
C710 H714 0.930 . S
C711 C710 1.369 . S
C711 C720 1.429 . S
C712 C710 1.419 . S
C712 C713 1.363 . S
C712 H715 0.929 . S
C713 C712 1.363 . S
C713 C719 1.428 . S
H714 C710 0.930 . S
H715 C712 0.929 . S
S716 N717 1.613 . S
S716 N718 1.610 . S
N717 S716 1.613 . S
N717 C720 1.350 . S
N718 S716 1.610 . S
N718 C719 1.351 . S
C719 C713 1.428 . S
C719 N718 1.351 . S
C719 C720 1.434 . S
C720 C711 1.429 . S
C720 N717 1.350 . S
C720 C719 1.434 . S
C721 C722 1.369 . S
C721 C723 1.419 . S
C721 H725 0.930 . S
C722 C721 1.369 . S
C722 C731 1.429 . S
C723 C721 1.419 . S
C723 C724 1.363 . S
C723 H726 0.929 . S
C724 C723 1.363 . S
C724 C730 1.428 . S
H725 C721 0.930 . S
H726 C723 0.929 . S
S727 N728 1.613 . S
S727 N729 1.610 . S
N728 S727 1.613 . S
N728 C731 1.350 . S
N729 S727 1.610 . S
N729 C730 1.351 . S
C730 C724 1.428 . S
C730 N729 1.351 . S
C730 C731 1.434 . S
C731 C722 1.429 . S
C731 N728 1.350 . S
C731 C730 1.434 . S
C732 C733 1.369 . S
C732 C734 1.419 . S
C732 H736 0.930 . S
C733 C732 1.369 . S
C733 C742 1.429 . S
C734 C732 1.419 . S
C734 C735 1.363 . S
C734 H737 0.929 . S
C735 C734 1.363 . S
C735 C741 1.428 . S
H736 C732 0.930 . S
H737 C734 0.929 . S
S738 N739 1.613 . S
S738 N740 1.610 . S
N739 S738 1.613 . S
N739 C742 1.350 . S
N740 S738 1.610 . S
N740 C741 1.351 . S
C741 C735 1.428 . S
C741 N740 1.351 . S
C741 C742 1.434 . S
C742 C733 1.429 . S
C742 N739 1.350 . S
C742 C741 1.434 . S
C743 C744 1.369 . S
C743 C745 1.419 . S
C743 H747 0.930 . S
C744 C743 1.369 . S
C744 C753 1.429 . S
C745 C743 1.419 . S
C745 C746 1.363 . S
C745 H748 0.929 . S
C746 C745 1.363 . S
C746 C752 1.428 . S
H747 C743 0.930 . S
H748 C745 0.929 . S
S749 N750 1.613 . S
S749 N751 1.610 . S
N750 S749 1.613 . S
N750 C753 1.350 . S
N751 S749 1.610 . S
N751 C752 1.351 . S
C752 C746 1.428 . S
C752 N751 1.351 . S
C752 C753 1.434 . S
C753 C744 1.429 . S
C753 N750 1.350 . S
C753 C752 1.434 . S
C754 C755 1.369 . S
C754 C756 1.419 . S
C754 H758 0.930 . S
C755 C754 1.369 . S
C755 C764 1.429 . S
C756 C754 1.419 . S
C756 C757 1.363 . S
C756 H759 0.929 . S
C757 C756 1.363 . S
C757 C763 1.428 . S
H758 C754 0.930 . S
H759 C756 0.929 . S
S760 N761 1.613 . S
S760 N762 1.610 . S
N761 S760 1.613 . S
N761 C764 1.350 . S
N762 S760 1.610 . S
N762 C763 1.351 . S
C763 C757 1.428 . S
C763 N762 1.351 . S
C763 C764 1.434 . S
C764 C755 1.429 . S
C764 N761 1.350 . S
C764 C763 1.434 . S
C765 C766 1.369 . S
C765 C767 1.419 . S
C765 H769 0.930 . S
C766 C765 1.369 . S
C766 C775 1.429 . S
C767 C765 1.419 . S
C767 C768 1.363 . S
C767 H770 0.929 . S
C768 C767 1.363 . S
C768 C774 1.428 . S
H769 C765 0.930 . S
H770 C767 0.929 . S
S771 N772 1.613 . S
S771 N773 1.610 . S
N772 S771 1.613 . S
N772 C775 1.350 . S
N773 S771 1.610 . S
N773 C774 1.351 . S
C774 C768 1.428 . S
C774 N773 1.351 . S
C774 C775 1.434 . S
C775 C766 1.429 . S
C775 N772 1.350 . S
C775 C774 1.434 . S
C776 C777 1.369 . S
C776 C778 1.419 . S
C776 H780 0.930 . S
C777 C776 1.369 . S
C777 C786 1.429 . S
C778 C776 1.419 . S
C778 C779 1.363 . S
C778 H781 0.929 . S
C779 C778 1.363 . S
C779 C785 1.428 . S
H780 C776 0.930 . S
H781 C778 0.929 . S
S782 N783 1.613 . S
S782 N784 1.610 . S
N783 S782 1.613 . S
N783 C786 1.350 . S
N784 S782 1.610 . S
N784 C785 1.351 . S
C785 C779 1.428 . S
C785 N784 1.351 . S
C785 C786 1.434 . S
C786 C777 1.429 . S
C786 N783 1.350 . S
C786 C785 1.434 . S
C787 C788 1.369 . S
C787 C789 1.419 . S
C787 H791 0.930 . S
C788 C787 1.369 . S
C788 C797 1.429 1_565 S
C789 C787 1.419 . S
C789 C790 1.363 . S
C789 H792 0.929 . S
C790 C789 1.363 . S
C790 C796 1.428 1_565 S
H791 C787 0.930 . S
H792 C789 0.929 . S
S793 N794 1.613 . S
S793 N795 1.610 . S
N794 S793 1.613 . S
N794 C797 1.350 . S
N795 S793 1.610 . S
N795 C796 1.351 . S
C796 C790 1.428 1_545 S
C796 N795 1.351 . S
C796 C797 1.434 . S
C797 C788 1.429 1_545 S
C797 N794 1.350 . S
C797 C796 1.434 . S
C798 C799 1.369 . S
C798 C800 1.419 . S
C798 H802 0.930 . S
C799 C798 1.369 . S
C799 C808 1.429 . S
C800 C798 1.419 . S
C800 C801 1.363 . S
C800 H803 0.929 . S
C801 C800 1.363 . S
C801 C807 1.428 . S
H802 C798 0.930 . S
H803 C800 0.929 . S
S804 N805 1.613 . S
S804 N806 1.610 . S
N805 S804 1.613 . S
N805 C808 1.350 . S
N806 S804 1.610 . S
N806 C807 1.351 . S
C807 C801 1.428 . S
C807 N806 1.351 . S
C807 C808 1.434 . S
C808 C799 1.429 . S
C808 N805 1.350 . S
C808 C807 1.434 . S
C809 C810 1.369 1_565 S
C809 C811 1.419 . S
C809 H813 0.930 . S
C810 C809 1.369 1_545 S
C810 C819 1.429 . S
C811 C809 1.419 . S
C811 C812 1.363 1_565 S
C811 H814 0.929 . S
C812 C811 1.363 1_545 S
C812 C818 1.428 . S
H813 C809 0.930 . S
H814 C811 0.929 . S
S815 N816 1.613 . S
S815 N817 1.610 . S
N816 S815 1.613 . S
N816 C819 1.350 . S
N817 S815 1.610 . S
N817 C818 1.351 . S
C818 C812 1.428 . S
C818 N817 1.351 . S
C818 C819 1.434 . S
C819 C810 1.429 . S
C819 N816 1.350 . S
C819 C818 1.434 . S
C820 C821 1.369 . S
C820 C822 1.419 . S
C820 H824 0.930 . S
C821 C820 1.369 . S
C821 C830 1.429 . S
C822 C820 1.419 . S
C822 C823 1.363 . S
C822 H825 0.929 . S
C823 C822 1.363 . S
C823 C829 1.428 . S
H824 C820 0.930 . S
H825 C822 0.929 . S
S826 N827 1.613 . S
S826 N828 1.610 . S
N827 S826 1.613 . S
N827 C830 1.350 . S
N828 S826 1.610 . S
N828 C829 1.351 . S
C829 C823 1.428 . S
C829 N828 1.351 . S
C829 C830 1.434 . S
C830 C821 1.429 . S
C830 N827 1.350 . S
C830 C829 1.434 . S
C831 C832 1.369 1_554 S
C831 C833 1.419 . S
C831 H835 0.930 . S
C832 C831 1.369 1_556 S
C832 C841 1.429 . S
C833 C831 1.419 . S
C833 C834 1.363 1_554 S
C833 H836 0.929 . S
C834 C833 1.363 1_556 S
C834 C840 1.428 . S
H835 C831 0.930 . S
H836 C833 0.929 . S
S837 N838 1.613 . S
S837 N839 1.610 . S
N838 S837 1.613 . S
N838 C841 1.350 . S
N839 S837 1.610 . S
N839 C840 1.351 . S
C840 C834 1.428 . S
C840 N839 1.351 . S
C840 C841 1.434 . S
C841 C832 1.429 . S
C841 N838 1.350 . S
C841 C840 1.434 . S
C842 C843 1.369 1_554 S
C842 C844 1.419 . S
C842 H846 0.930 . S
C843 C842 1.369 1_556 S
C843 C852 1.429 . S
C844 C842 1.419 . S
C844 C845 1.363 1_554 S
C844 H847 0.929 . S
C845 C844 1.363 1_556 S
C845 C851 1.428 . S
H846 C842 0.930 . S
H847 C844 0.929 . S
S848 N849 1.613 . S
S848 N850 1.610 . S
N849 S848 1.613 . S
N849 C852 1.350 . S
N850 S848 1.610 . S
N850 C851 1.351 . S
C851 C845 1.428 . S
C851 N850 1.351 . S
C851 C852 1.434 . S
C852 C843 1.429 . S
C852 N849 1.350 . S
C852 C851 1.434 . S
C853 C854 1.369 1_556 S
C853 C855 1.419 . S
C853 H857 0.930 . S
C854 C853 1.369 1_554 S
C854 C863 1.429 . S
C855 C853 1.419 . S
C855 C856 1.363 1_556 S
C855 H858 0.929 . S
C856 C855 1.363 1_554 S
C856 C862 1.428 . S
H857 C853 0.930 . S
H858 C855 0.929 . S
S859 N860 1.613 . S
S859 N861 1.610 . S
N860 S859 1.613 . S
N860 C863 1.350 . S
N861 S859 1.610 . S
N861 C862 1.351 . S
C862 C856 1.428 . S
C862 N861 1.351 . S
C862 C863 1.434 . S
C863 C854 1.429 . S
C863 N860 1.350 . S
C863 C862 1.434 . S
C337 C13 1.610 . S
C339 C229 1.562 . S
C350 C234 1.576 . S
C348 C1 1.620 . S
C361 C172 1.561 . S
C359 C27 1.614 . S
C370 C15 1.584 . S
C372 C196 1.526 . S
C381 C28 1.597 . S
C383 C334 1.554 . S
C392 C55 1.593 . S
C394 C301 1.537 . S
C405 C255 1.571 . S
C403 C40 1.623 . S
C414 C43 1.636 . S
C416 C289 1.579 . S
C427 C208 1.571 . S
C425 C56 1.623 . S
C438 C235 1.531 . S
C436 C83 1.586 . S
C447 C96 1.616 . S
C449 C226 1.564 . S
C458 C71 1.614 . S
C460 C292 1.565 . S
C471 C313 1.563 . S
C469 C99 1.607 . S
C482 C331 1.574 . S
C480 C111 1.618 . S
C491 C113 1.617 . S
C493 C280 1.555 . S
C504 C256 1.526 . S
C502 C125 1.582 . S
C513 C139 1.599 . S
C515 C251 1.552 . S
C524 C153 1.593 . S
C526 C217 1.540 . S
C537 C205 1.575 . S
C535 C127 1.622 . S
C546 C141 1.634 . S
C548 C171 1.580 . S
C559 C272 1.574 . S
C557 C84 1.621 . S
C570 C322 1.532 . S
C568 C154 1.582 . S
C579 C68 1.613 . S
C581 C310 1.565 . S
C590 C166 1.617 . S
C592 C188 1.561 . S
C603 C187 1.146 . S
C601 C0 1.367 . S
C612 C12 1.357 . S
C614 C209 1.140 . S
C625 C214 1.139 . S
C623 C14 1.372 . S
C636 C247 1.176 . S
C634 C26 1.392 . S
C645 C41 1.394 . S
C647 C184 1.160 . S
C656 C42 1.404 . S
C658 C192 1.181 . S
C669 C230 1.131 . S
C667 C29 1.361 . S
C678 C54 1.355 . S
C680 C238 1.138 . S
C689 C69 1.371 . S
C691 C175 1.132 . S
C702 C213 1.173 . S
C700 C70 1.397 . S
C711 C85 1.364 . S
C713 C250 1.136 . S
C722 C82 1.357 . S
C724 C259 1.136 . S
C735 C293 1.146 . S
C733 C110 1.373 . S
C744 C98 1.357 . S
C746 C271 1.139 . S
C755 C124 1.373 . S
C757 C298 1.133 . S
C766 C112 1.395 . S
C768 C318 1.180 . S
C777 C126 1.391 . S
C779 C276 1.174 . S
C790 C268 1.180 . S
C788 C140 1.400 . S
C799 C138 1.364 . S
C801 C314 1.136 . S
C812 C319 1.126 . S
C810 C152 1.362 . S
C823 C277 1.140 . S
C821 C97 1.367 . S
C834 C297 1.162 . S
C832 C167 1.394 . S
C845 C335 1.131 . S
C843 C57 1.362 . S
C854 C155 1.361 . S
C856 C193 1.124 . S
