# Generated by pormake.
# Topology gar, (4,6)-cn, num edge types: 1
# Building blocks:
#     Node 0, Type 0, BuildingBlock: GALJAG_clean_sbu_0, # of connection points: 4
#     Node 1, Type 0, BuildingBlock: GALJAG_clean_sbu_0, # of connection points: 4
#     Node 2, Type 0, BuildingBlock: GALJAG_clean_sbu_0, # of connection points: 4
#     Node 3, Type 0, BuildingBlock: GALJAG_clean_sbu_0, # of connection points: 4
#     Node 4, Type 0, BuildingBlock: GALJAG_clean_sbu_0, # of connection points: 4
#     Node 5, Type 0, BuildingBlock: GALJAG_clean_sbu_0, # of connection points: 4
#     Node 6, Type 0, BuildingBlock: GALJAG_clean_sbu_0, # of connection points: 4
#     Node 7, Type 0, BuildingBlock: GALJAG_clean_sbu_0, # of connection points: 4
#     Node 8, Type 0, BuildingBlock: GALJAG_clean_sbu_0, # of connection points: 4
#     Node 9, Type 0, BuildingBlock: GALJAG_clean_sbu_0, # of connection points: 4
#     Node 10, Type 0, BuildingBlock: GALJAG_clean_sbu_0, # of connection points: 4
#     Node 11, Type 0, BuildingBlock: GALJAG_clean_sbu_0, # of connection points: 4
#     Node 12, Type 0, BuildingBlock: GALJAG_clean_sbu_0, # of connection points: 4
#     Node 13, Type 0, BuildingBlock: GALJAG_clean_sbu_0, # of connection points: 4
#     Node 14, Type 0, BuildingBlock: GALJAG_clean_sbu_0, # of connection points: 4
#     Node 15, Type 0, BuildingBlock: GALJAG_clean_sbu_0, # of connection points: 4
#     Node 16, Type 0, BuildingBlock: GALJAG_clean_sbu_0, # of connection points: 4
#     Node 17, Type 0, BuildingBlock: GALJAG_clean_sbu_0, # of connection points: 4
#     Node 18, Type 0, BuildingBlock: GALJAG_clean_sbu_0, # of connection points: 4
#     Node 19, Type 0, BuildingBlock: GALJAG_clean_sbu_0, # of connection points: 4
#     Node 20, Type 0, BuildingBlock: GALJAG_clean_sbu_0, # of connection points: 4
#     Node 21, Type 0, BuildingBlock: GALJAG_clean_sbu_0, # of connection points: 4
#     Node 22, Type 0, BuildingBlock: GALJAG_clean_sbu_0, # of connection points: 4
#     Node 23, Type 0, BuildingBlock: GALJAG_clean_sbu_0, # of connection points: 4
#     Node 24, Type 1, BuildingBlock: BETDIP_clean_sbu_0, # of connection points: 6
#     Node 25, Type 1, BuildingBlock: BETDIP_clean_sbu_0, # of connection points: 6
#     Node 26, Type 1, BuildingBlock: BETDIP_clean_sbu_0, # of connection points: 6
#     Node 27, Type 1, BuildingBlock: BETDIP_clean_sbu_0, # of connection points: 6
#     Node 28, Type 1, BuildingBlock: BETDIP_clean_sbu_0, # of connection points: 6
#     Node 29, Type 1, BuildingBlock: BETDIP_clean_sbu_0, # of connection points: 6
#     Node 30, Type 1, BuildingBlock: BETDIP_clean_sbu_0, # of connection points: 6
#     Node 31, Type 1, BuildingBlock: BETDIP_clean_sbu_0, # of connection points: 6
#     Node 32, Type 1, BuildingBlock: BETDIP_clean_sbu_0, # of connection points: 6
#     Node 33, Type 1, BuildingBlock: BETDIP_clean_sbu_0, # of connection points: 6
#     Node 34, Type 1, BuildingBlock: BETDIP_clean_sbu_0, # of connection points: 6
#     Node 35, Type 1, BuildingBlock: BETDIP_clean_sbu_0, # of connection points: 6
#     Node 36, Type 1, BuildingBlock: BETDIP_clean_sbu_0, # of connection points: 6
#     Node 37, Type 1, BuildingBlock: BETDIP_clean_sbu_0, # of connection points: 6
#     Node 38, Type 1, BuildingBlock: BETDIP_clean_sbu_0, # of connection points: 6
#     Node 39, Type 1, BuildingBlock: BETDIP_clean_sbu_0, # of connection points: 6
#     Edge 40, Type (0, 1), BuildingBlock: TEMPAE_clean_linker_10, # of connection points: 2
#     Edge 41, Type (0, 1), BuildingBlock: TEMPAE_clean_linker_10, # of connection points: 2
#     Edge 42, Type (0, 1), BuildingBlock: TEMPAE_clean_linker_10, # of connection points: 2
#     Edge 43, Type (0, 1), BuildingBlock: TEMPAE_clean_linker_10, # of connection points: 2
#     Edge 44, Type (0, 1), BuildingBlock: TEMPAE_clean_linker_10, # of connection points: 2
#     Edge 45, Type (0, 1), BuildingBlock: TEMPAE_clean_linker_10, # of connection points: 2
#     Edge 46, Type (0, 1), BuildingBlock: TEMPAE_clean_linker_10, # of connection points: 2
#     Edge 47, Type (0, 1), BuildingBlock: TEMPAE_clean_linker_10, # of connection points: 2
#     Edge 48, Type (0, 1), BuildingBlock: TEMPAE_clean_linker_10, # of connection points: 2
#     Edge 49, Type (0, 1), BuildingBlock: TEMPAE_clean_linker_10, # of connection points: 2
#     Edge 50, Type (0, 1), BuildingBlock: TEMPAE_clean_linker_10, # of connection points: 2
#     Edge 51, Type (0, 1), BuildingBlock: TEMPAE_clean_linker_10, # of connection points: 2
#     Edge 52, Type (0, 1), BuildingBlock: TEMPAE_clean_linker_10, # of connection points: 2
#     Edge 53, Type (0, 1), BuildingBlock: TEMPAE_clean_linker_10, # of connection points: 2
#     Edge 54, Type (0, 1), BuildingBlock: TEMPAE_clean_linker_10, # of connection points: 2
#     Edge 55, Type (0, 1), BuildingBlock: TEMPAE_clean_linker_10, # of connection points: 2
#     Edge 56, Type (0, 1), BuildingBlock: TEMPAE_clean_linker_10, # of connection points: 2
#     Edge 57, Type (0, 1), BuildingBlock: TEMPAE_clean_linker_10, # of connection points: 2
#     Edge 58, Type (0, 1), BuildingBlock: TEMPAE_clean_linker_10, # of connection points: 2
#     Edge 59, Type (0, 1), BuildingBlock: TEMPAE_clean_linker_10, # of connection points: 2
#     Edge 60, Type (0, 1), BuildingBlock: TEMPAE_clean_linker_10, # of connection points: 2
#     Edge 61, Type (0, 1), BuildingBlock: TEMPAE_clean_linker_10, # of connection points: 2
#     Edge 62, Type (0, 1), BuildingBlock: TEMPAE_clean_linker_10, # of connection points: 2
#     Edge 63, Type (0, 1), BuildingBlock: TEMPAE_clean_linker_10, # of connection points: 2
#     Edge 64, Type (0, 1), BuildingBlock: TEMPAE_clean_linker_10, # of connection points: 2
#     Edge 65, Type (0, 1), BuildingBlock: TEMPAE_clean_linker_10, # of connection points: 2
#     Edge 66, Type (0, 1), BuildingBlock: TEMPAE_clean_linker_10, # of connection points: 2
#     Edge 67, Type (0, 1), BuildingBlock: TEMPAE_clean_linker_10, # of connection points: 2
#     Edge 68, Type (0, 1), BuildingBlock: TEMPAE_clean_linker_10, # of connection points: 2
#     Edge 69, Type (0, 1), BuildingBlock: TEMPAE_clean_linker_10, # of connection points: 2
#     Edge 70, Type (0, 1), BuildingBlock: TEMPAE_clean_linker_10, # of connection points: 2
#     Edge 71, Type (0, 1), BuildingBlock: TEMPAE_clean_linker_10, # of connection points: 2
#     Edge 72, Type (0, 1), BuildingBlock: TEMPAE_clean_linker_10, # of connection points: 2
#     Edge 73, Type (0, 1), BuildingBlock: TEMPAE_clean_linker_10, # of connection points: 2
#     Edge 74, Type (0, 1), BuildingBlock: TEMPAE_clean_linker_10, # of connection points: 2
#     Edge 75, Type (0, 1), BuildingBlock: TEMPAE_clean_linker_10, # of connection points: 2
#     Edge 76, Type (0, 1), BuildingBlock: TEMPAE_clean_linker_10, # of connection points: 2
#     Edge 77, Type (0, 1), BuildingBlock: TEMPAE_clean_linker_10, # of connection points: 2
#     Edge 78, Type (0, 1), BuildingBlock: TEMPAE_clean_linker_10, # of connection points: 2
#     Edge 79, Type (0, 1), BuildingBlock: TEMPAE_clean_linker_10, # of connection points: 2
#     Edge 80, Type (0, 1), BuildingBlock: TEMPAE_clean_linker_10, # of connection points: 2
#     Edge 81, Type (0, 1), BuildingBlock: TEMPAE_clean_linker_10, # of connection points: 2
#     Edge 82, Type (0, 1), BuildingBlock: TEMPAE_clean_linker_10, # of connection points: 2
#     Edge 83, Type (0, 1), BuildingBlock: TEMPAE_clean_linker_10, # of connection points: 2
#     Edge 84, Type (0, 1), BuildingBlock: TEMPAE_clean_linker_10, # of connection points: 2
#     Edge 85, Type (0, 1), BuildingBlock: TEMPAE_clean_linker_10, # of connection points: 2
#     Edge 86, Type (0, 1), BuildingBlock: TEMPAE_clean_linker_10, # of connection points: 2
#     Edge 87, Type (0, 1), BuildingBlock: TEMPAE_clean_linker_10, # of connection points: 2
#     Edge 88, Type (0, 1), BuildingBlock: TEMPAE_clean_linker_10, # of connection points: 2
#     Edge 89, Type (0, 1), BuildingBlock: TEMPAE_clean_linker_10, # of connection points: 2
#     Edge 90, Type (0, 1), BuildingBlock: TEMPAE_clean_linker_10, # of connection points: 2
#     Edge 91, Type (0, 1), BuildingBlock: TEMPAE_clean_linker_10, # of connection points: 2
#     Edge 92, Type (0, 1), BuildingBlock: TEMPAE_clean_linker_10, # of connection points: 2
#     Edge 93, Type (0, 1), BuildingBlock: TEMPAE_clean_linker_10, # of connection points: 2
#     Edge 94, Type (0, 1), BuildingBlock: TEMPAE_clean_linker_10, # of connection points: 2
#     Edge 95, Type (0, 1), BuildingBlock: TEMPAE_clean_linker_10, # of connection points: 2
#     Edge 96, Type (0, 1), BuildingBlock: TEMPAE_clean_linker_10, # of connection points: 2
#     Edge 97, Type (0, 1), BuildingBlock: TEMPAE_clean_linker_10, # of connection points: 2
#     Edge 98, Type (0, 1), BuildingBlock: TEMPAE_clean_linker_10, # of connection points: 2
#     Edge 99, Type (0, 1), BuildingBlock: TEMPAE_clean_linker_10, # of connection points: 2
#     Edge 100, Type (0, 1), BuildingBlock: TEMPAE_clean_linker_10, # of connection points: 2
#     Edge 101, Type (0, 1), BuildingBlock: TEMPAE_clean_linker_10, # of connection points: 2
#     Edge 102, Type (0, 1), BuildingBlock: TEMPAE_clean_linker_10, # of connection points: 2
#     Edge 103, Type (0, 1), BuildingBlock: TEMPAE_clean_linker_10, # of connection points: 2
#     Edge 104, Type (0, 1), BuildingBlock: TEMPAE_clean_linker_10, # of connection points: 2
#     Edge 105, Type (0, 1), BuildingBlock: TEMPAE_clean_linker_10, # of connection points: 2
#     Edge 106, Type (0, 1), BuildingBlock: TEMPAE_clean_linker_10, # of connection points: 2
#     Edge 107, Type (0, 1), BuildingBlock: TEMPAE_clean_linker_10, # of connection points: 2
#     Edge 108, Type (0, 1), BuildingBlock: TEMPAE_clean_linker_10, # of connection points: 2
#     Edge 109, Type (0, 1), BuildingBlock: TEMPAE_clean_linker_10, # of connection points: 2
#     Edge 110, Type (0, 1), BuildingBlock: TEMPAE_clean_linker_10, # of connection points: 2
#     Edge 111, Type (0, 1), BuildingBlock: TEMPAE_clean_linker_10, # of connection points: 2
#     Edge 112, Type (0, 1), BuildingBlock: TEMPAE_clean_linker_10, # of connection points: 2
#     Edge 113, Type (0, 1), BuildingBlock: TEMPAE_clean_linker_10, # of connection points: 2
#     Edge 114, Type (0, 1), BuildingBlock: TEMPAE_clean_linker_10, # of connection points: 2
#     Edge 115, Type (0, 1), BuildingBlock: TEMPAE_clean_linker_10, # of connection points: 2
#     Edge 116, Type (0, 1), BuildingBlock: TEMPAE_clean_linker_10, # of connection points: 2
#     Edge 117, Type (0, 1), BuildingBlock: TEMPAE_clean_linker_10, # of connection points: 2
#     Edge 118, Type (0, 1), BuildingBlock: TEMPAE_clean_linker_10, # of connection points: 2
#     Edge 119, Type (0, 1), BuildingBlock: TEMPAE_clean_linker_10, # of connection points: 2
#     Edge 120, Type (0, 1), BuildingBlock: TEMPAE_clean_linker_10, # of connection points: 2
#     Edge 121, Type (0, 1), BuildingBlock: TEMPAE_clean_linker_10, # of connection points: 2
#     Edge 122, Type (0, 1), BuildingBlock: TEMPAE_clean_linker_10, # of connection points: 2
#     Edge 123, Type (0, 1), BuildingBlock: TEMPAE_clean_linker_10, # of connection points: 2
#     Edge 124, Type (0, 1), BuildingBlock: TEMPAE_clean_linker_10, # of connection points: 2
#     Edge 125, Type (0, 1), BuildingBlock: TEMPAE_clean_linker_10, # of connection points: 2
#     Edge 126, Type (0, 1), BuildingBlock: TEMPAE_clean_linker_10, # of connection points: 2
#     Edge 127, Type (0, 1), BuildingBlock: TEMPAE_clean_linker_10, # of connection points: 2
#     Edge 128, Type (0, 1), BuildingBlock: TEMPAE_clean_linker_10, # of connection points: 2
#     Edge 129, Type (0, 1), BuildingBlock: TEMPAE_clean_linker_10, # of connection points: 2
#     Edge 130, Type (0, 1), BuildingBlock: TEMPAE_clean_linker_10, # of connection points: 2
#     Edge 131, Type (0, 1), BuildingBlock: TEMPAE_clean_linker_10, # of connection points: 2
#     Edge 132, Type (0, 1), BuildingBlock: TEMPAE_clean_linker_10, # of connection points: 2
#     Edge 133, Type (0, 1), BuildingBlock: TEMPAE_clean_linker_10, # of connection points: 2
#     Edge 134, Type (0, 1), BuildingBlock: TEMPAE_clean_linker_10, # of connection points: 2
#     Edge 135, Type (0, 1), BuildingBlock: TEMPAE_clean_linker_10, # of connection points: 2
# Relax obj value: 0.195
# Max RMSD: 0.299
# Mean RMSD: 0.164
data_MOF--net-gar--node1-GALJAG_clean_sbu_0--node2-BETDIP_clean_sbu_0--edge1-TEMPAE_clean_linker_10
_symmetry_space_group_name_H-M    P1
_symmetry_Int_Tables_number       1
_symmetry_cell_setting            triclinic
loop_
_symmetry_equiv_pos_as_xyz
'x, y, z'
_cell_length_a     64.547274
_cell_length_b     57.53692
_cell_length_c     55.206434
_cell_angle_alpha  96.445002
_cell_angle_beta   98.382755
_cell_angle_gamma 100.56735
loop_
_atom_site_label
_atom_site_type_symbol
_atom_site_fract_x
_atom_site_fract_y
_atom_site_fract_z
_atom_type_partial_charge
In0 In 0.05902 0.32926 0.39297 0.0
O1 O 0.0684 0.3331 0.35502 0.0
O2 O 0.09313 0.33519 0.3855 0.0
C3 C 0.01969 0.33009 0.36954 0.0
C4 C 0.05723 0.2855 0.40676 0.0
C5 C 0.06864 0.36211 0.43399 0.0
O6 O 0.03107 0.31654 0.36113 0.0
O7 O 0.02843 0.34382 0.38927 0.0
O8 O 0.06281 0.34005 0.43435 0.0
O9 O 0.06993 0.36785 0.41272 0.0
C10 C 0.0881 0.3348 0.3625 0.0
O11 O 0.07414 0.29783 0.40241 0.0
O12 O 0.04117 0.29505 0.40371 0.0
In13 In 0.06534 0.74855 0.6988 0.0
O14 O 0.07531 0.76733 0.66726 0.0
O15 O 0.08412 0.78681 0.70356 0.0
C16 C 0.04597 0.71151 0.66398 0.0
C17 C 0.1016 0.74049 0.72395 0.0
C18 C 0.03308 0.76032 0.72019 0.0
O19 O 0.04871 0.73289 0.65998 0.0
O20 O 0.05238 0.70874 0.68602 0.0
O21 O 0.04162 0.74317 0.72588 0.0
O22 O 0.04073 0.77105 0.70386 0.0
C23 C 0.08452 0.78668 0.68076 0.0
O24 O 0.08901 0.75088 0.73447 0.0
O25 O 0.09514 0.733 0.70128 0.0
In26 In 0.54266 0.82906 0.87575 0.0
O27 O 0.55495 0.82677 0.83902 0.0
O28 O 0.57777 0.83781 0.87201 0.0
C29 C 0.50367 0.82166 0.84839 0.0
C30 C 0.55018 0.79176 0.89877 0.0
C31 C 0.53814 0.86614 0.90769 0.0
O32 O 0.51836 0.83881 0.84633 0.0
O33 O 0.50903 0.80797 0.86344 0.0
O34 O 0.52665 0.84558 0.90517 0.0
O35 O 0.55247 0.86823 0.89429 0.0
C36 C 0.57442 0.83257 0.84878 0.0
O37 O 0.55583 0.81312 0.9092 0.0
O38 O 0.54075 0.7892 0.87668 0.0
In39 In 0.57684 0.25537 0.22638 0.0
O40 O 0.59468 0.23414 0.20265 0.0
O41 O 0.56564 0.21561 0.21117 0.0
C42 C 0.57007 0.28734 0.19565 0.0
C43 C 0.54292 0.25149 0.25014 0.0
C44 C 0.61598 0.27127 0.2535 0.0
O45 O 0.57066 0.26604 0.18789 0.0
O46 O 0.57261 0.29236 0.21885 0.0
O47 O 0.60645 0.28388 0.2403 0.0
O48 O 0.60499 0.25096 0.2547 0.0
C49 C 0.58139 0.21473 0.20022 0.0
O50 O 0.56187 0.25537 0.26176 0.0
O51 O 0.54133 0.24871 0.22694 0.0
In52 In 0.08591 0.80411 0.16519 0.0
O53 O 0.08108 0.77636 0.13015 0.0
O54 O 0.0808 0.76363 0.16467 0.0
C55 C 0.08511 0.8442 0.14274 0.0
C56 C 0.05017 0.80313 0.1865 0.0
C57 C 0.12652 0.8072 0.1902 0.0
O58 O 0.08338 0.82369 0.13081 0.0
O59 O 0.08781 0.84459 0.1659 0.0
O60 O 0.11019 0.80489 0.20048 0.0
O61 O 0.12256 0.80885 0.16747 0.0
C62 C 0.07941 0.75846 0.14161 0.0
O63 O 0.06887 0.81117 0.19837 0.0
O64 O 0.04951 0.7956 0.16397 0.0
In65 In 0.52061 0.76894 0.4432 0.0
O66 O 0.53817 0.76648 0.40984 0.0
O67 O 0.55705 0.77688 0.44562 0.0
C68 C 0.47964 0.7649 0.41882 0.0
C69 C 0.52146 0.72727 0.46284 0.0
C70 C 0.52752 0.81449 0.46738 0.0
O71 O 0.49562 0.76637 0.4079 0.0
O72 O 0.48417 0.76434 0.44173 0.0
O73 O 0.52824 0.79671 0.47881 0.0
O74 O 0.52357 0.8092 0.44417 0.0
C75 C 0.55676 0.77259 0.4226 0.0
O76 O 0.51765 0.74564 0.47476 0.0
O77 O 0.52431 0.72972 0.44108 0.0
In78 In 0.58754 0.30549 0.66712 0.0
O79 O 0.57943 0.2775 0.63169 0.0
O80 O 0.58434 0.26521 0.66642 0.0
C81 C 0.58803 0.34689 0.6467 0.0
C82 C 0.55176 0.30351 0.68832 0.0
C83 C 0.62817 0.30872 0.69193 0.0
O84 O 0.59028 0.32773 0.63472 0.0
O85 O 0.58589 0.34524 0.66882 0.0
O86 O 0.61195 0.30672 0.70244 0.0
O87 O 0.62405 0.31003 0.66914 0.0
C88 C 0.58014 0.25979 0.64323 0.0
O89 O 0.57046 0.31063 0.70053 0.0
O90 O 0.55111 0.29741 0.66547 0.0
In91 In 0.02074 0.26745 0.9463 0.0
O92 O 0.02437 0.24789 0.98059 0.0
O93 O 1.01576 0.22654 0.94551 0.0
C94 C 0.02621 0.31307 0.96967 0.0
C95 C 0.05726 0.26846 0.92629 0.0
C96 C 0.98057 0.26505 0.92052 0.0
O97 O 0.02385 0.29515 0.98107 0.0
O98 O 0.02608 0.30794 0.94683 0.0
O99 O 0.99708 0.26692 0.91051 0.0
O100 O 0.98416 0.26348 0.94331 0.0
C101 C 0.0201 0.22707 0.96864 0.0
O102 O 0.03877 0.26057 0.91381 0.0
O103 O 0.05731 0.27568 0.94874 0.0
In104 In 0.42654 0.05672 0.29338 0.0
O105 O 0.45541 0.06796 0.27034 0.0
O106 O 0.4295 0.04244 0.25113 0.0
C107 C 0.4531 0.05987 0.34106 0.0
C108 C 0.40433 0.09752 0.29415 0.0
C109 C 0.40211 1.00922 0.29241 0.0
O110 O 0.45713 0.05095 0.32072 0.0
O111 O 0.43656 0.06875 0.33752 0.0
O112 O 0.39458 0.02535 0.28225 0.0
O113 O 0.42132 0.01692 0.30255 0.0
C114 C 0.44783 0.05439 0.25 0.0
O115 O 0.3977 0.07763 0.3012 0.0
O116 O 0.42187 0.09702 0.28647 0.0
In117 In 0.27742 0.172 0.53672 0.0
O118 O 0.28808 0.20626 0.56526 0.0
O119 O 0.282 0.173 0.5787 0.0
C120 C 0.27833 0.19575 0.49605 0.0
C121 C 0.31118 0.14933 0.53835 0.0
C122 C 0.2361 0.14789 0.5348 0.0
O123 O 0.2695 0.2019 0.51396 0.0
O124 O 0.28627 0.17755 0.49836 0.0
O125 O 0.25008 0.13803 0.52645 0.0
O126 O 0.24277 0.16967 0.54311 0.0
C127 C 0.28731 0.19543 0.58391 0.0
O128 O 0.29199 0.13834 0.53116 0.0
O129 O 0.31322 0.17154 0.5447 0.0
In130 In 0.15704 0.07248 0.83966 0.0
O131 O 0.12613 0.07233 0.81263 0.0
O132 O 0.15533 0.07537 0.79881 0.0
C133 C 0.13391 0.06925 0.87684 0.0
C134 C 0.17305 0.03214 0.8377 0.0
C135 C 0.18805 0.11234 0.84656 0.0
O136 O 0.12918 0.05487 0.85693 0.0
O137 O 0.14997 0.08575 0.87775 0.0
O138 O 0.19183 0.09153 0.84534 0.0
O139 O 0.16849 0.11322 0.84498 0.0
C140 C 0.13541 0.07379 0.79405 0.0
O141 O 0.17687 0.04731 0.85697 0.0
O142 O 0.16107 0.03722 0.81982 0.0
In143 In 0.30308 0.917 0.02077 0.0
O144 O 0.3322 0.91401 0.04838 0.0
O145 O 0.30349 0.88805 0.04505 0.0
C146 C 0.30653 0.88838 0.98021 0.0
C147 C 0.26363 0.92133 0.02781 0.0
C148 C 0.32047 0.96346 0.02217 0.0
O149 O 0.32173 0.90452 0.99186 0.0
O150 O 0.28934 0.88676 0.98886 0.0
O151 O 0.316 0.95476 0.04118 0.0
O152 O 0.31597 0.94879 1.00249 0.0
C153 C 0.32259 0.89563 0.05564 0.0
O154 O 0.26965 0.92318 1.00721 0.0
O155 O 0.27732 0.9168 0.04435 0.0
In156 In 0.33505 0.41277 0.08416 0.0
O157 O 0.33043 0.379 0.10311 0.0
O158 O 0.33931 0.41223 0.12645 0.0
C159 C 0.32919 0.3878 0.03781 0.0
C160 C 0.29934 0.43201 0.08514 0.0
C161 C 0.37501 0.43973 0.08498 0.0
O162 O 0.33266 0.37835 0.05718 0.0
O163 O 0.32875 0.40969 0.04183 0.0
O164 O 0.35796 0.44713 0.07945 0.0
O165 O 0.37207 0.41893 0.09079 0.0
C166 C 0.33462 0.38975 0.125 0.0
O167 O 0.31792 0.44352 0.09446 0.0
O168 O 0.29877 0.41086 0.07571 0.0
In169 In 0.83152 0.17718 0.08207 0.0
O170 O 0.84335 0.16339 0.04775 0.0
O171 O 0.86173 0.16186 0.08259 0.0
C172 C 0.80469 0.1395 0.09293 0.0
C173 C 0.85232 0.21274 0.11841 0.0
C174 C 0.80537 0.19698 0.05202 0.0
O175 O 0.81627 0.13766 0.07661 0.0
O176 O 0.80695 0.16036 0.10423 0.0
O177 O 0.79929 0.18722 0.06982 0.0
O178 O 0.82451 0.19687 0.04974 0.0
C179 C 0.85931 0.15724 0.05929 0.0
O180 O 0.84756 0.21592 0.09627 0.0
O181 O 0.84741 0.19133 0.1221 0.0
In182 In 0.17911 0.51571 0.31712 0.0
O183 O 0.20753 0.49449 0.30783 0.0
O184 O 0.18439 0.47558 0.32422 0.0
C185 C 0.20333 0.5639 0.32283 0.0
C186 C 0.15498 0.51339 0.26814 0.0
C187 C 0.15611 0.51826 0.35908 0.0
O188 O 0.21186 0.5458 0.3246 0.0
O189 O 0.18321 0.55788 0.31972 0.0
O190 O 0.14786 0.51718 0.33659 0.0
O191 O 0.17585 0.51779 0.36074 0.0
C192 C 0.20152 0.47488 0.31571 0.0
O193 O 0.14972 0.49903 0.28311 0.0
O194 O 0.17224 0.52774 0.27734 0.0
In195 In 0.83381 0.90898 0.58362 0.0
O196 O 0.82792 0.87504 0.60243 0.0
O197 O 0.84063 0.90766 0.62588 0.0
C198 C 0.82567 0.88572 0.53625 0.0
C199 C 0.79903 0.9303 0.5835 0.0
C200 C 0.875 0.93326 0.58546 0.0
O201 O 0.82959 0.87537 0.55491 0.0
O202 O 0.82569 0.90765 0.54149 0.0
O203 O 0.86106 0.94263 0.59446 0.0
O204 O 0.8684 0.91162 0.57629 0.0
C205 C 0.83418 0.88538 0.62435 0.0
O206 O 0.81769 0.9418 0.5836 0.0
O207 O 0.79795 0.90823 0.58377 0.0
In208 In 0.95261 1.01581 0.28609 0.0
O209 O 0.98199 0.01957 0.26671 0.0
O210 O 0.95144 1.01577 0.24464 0.0
C211 C 0.97437 0.02069 0.33286 0.0
C212 C 0.93647 0.0555 0.28311 0.0
C213 C 0.92454 0.97382 0.28314 0.0
O214 O 0.98115 1.01155 0.31445 0.0
O215 O 0.95693 0.02733 0.32756 0.0
O216 O 0.92082 0.99389 0.29045 0.0
O217 O 0.94275 0.97459 0.27706 0.0
C218 C 0.97139 0.01902 0.24546 0.0
O219 O 0.92524 0.03469 0.27723 0.0
O220 O 0.95609 0.05642 0.2907 0.0
In221 In 0.34935 0.65748 0.57503 0.0
O222 O 0.36825 0.65472 0.54384 0.0
O223 O 0.37562 0.63593 0.57386 0.0
C224 C 0.31841 0.61814 0.56966 0.0
C225 C 0.36471 0.68632 0.61823 0.0
C226 C 0.32722 0.68728 0.55411 0.0
O227 O 0.33148 0.62546 0.58958 0.0
O228 O 0.32143 0.63031 0.55242 0.0
O229 O 0.32068 0.67564 0.57055 0.0
O230 O 0.3448 0.68384 0.54852 0.0
C231 C 0.37906 0.64075 0.55288 0.0
O232 O 0.36954 0.69149 0.59792 0.0
O233 O 0.35364 0.66565 0.61706 0.0
In234 In 0.4494 0.50853 0.7771 0.0
O235 O 0.42266 0.52735 0.76459 0.0
O236 O 0.45222 0.5491 0.78293 0.0
C237 C 0.42241 0.4666 0.77778 0.0
C238 C 0.46678 0.50775 0.7352 0.0
C239 C 0.47153 0.51661 0.82394 0.0
O240 O 0.41766 0.48676 0.78177 0.0
O241 O 0.44114 0.46725 0.77329 0.0
O242 O 0.47978 0.51009 0.80555 0.0
O243 O 0.45238 0.51872 0.81858 0.0
C244 C 0.43322 0.54813 0.77272 0.0
O245 O 0.47808 0.51131 0.75648 0.0
O246 O 0.44693 0.50376 0.73517 0.0
In247 In 0.68024 0.01739 0.81799 0.0
O248 O 0.70869 0.99611 0.80981 0.0
O249 O 0.68495 0.97743 0.82575 0.0
C250 C 0.70475 0.06483 0.81922 0.0
C251 C 0.65373 1.0142 0.77029 0.0
C252 C 0.65923 0.01961 0.86146 0.0
O253 O 0.71243 0.04841 0.82861 0.0
O254 O 0.68534 0.05745 0.80974 0.0
O255 O 0.65166 1.00584 0.84124 0.0
O256 O 0.67739 0.03186 0.86013 0.0
C257 C 0.70221 0.97655 0.81756 0.0
O258 O 0.64961 0.02304 0.79063 0.0
O259 O 0.67032 1.00541 0.77386 0.0
In260 In 0.77432 0.66903 0.03584 0.0
O261 O 0.78842 0.63481 0.03149 0.0
O262 O 0.80996 0.66801 0.04343 0.0
C263 C 0.73377 0.64304 0.03505 0.0
C264 C 0.78474 0.69581 0.08143 0.0
C265 C 0.7752 0.69284 0.99527 0.0
O266 O 0.74482 0.63848 0.0187 0.0
O267 O 0.74299 0.66045 0.05118 0.0
O268 O 0.76453 0.69753 0.01196 0.0
O269 O 0.78501 0.67623 0.99893 0.0
C270 C 0.8077 0.6457 0.03797 0.0
O271 O 0.78183 0.70508 0.06179 0.0
O272 O 0.78279 0.6734 0.07789 0.0
In273 In 0.9255 0.55762 0.79293 0.0
O274 O 0.89816 0.57965 0.80406 0.0
O275 O 0.91993 0.5975 0.78518 0.0
C276 C 0.90106 0.50977 0.78761 0.0
C277 C 0.9471 0.55396 0.74985 0.0
C278 C 0.95008 0.5595 0.84158 0.0
O279 O 0.89263 0.52804 0.78698 0.0
O280 O 0.92111 0.5155 0.78939 0.0
O281 O 0.95536 0.57387 0.82661 0.0
O282 O 0.93272 0.5453 0.83246 0.0
C283 C 0.90362 0.59883 0.79519 0.0
O284 O 0.956 0.55537 0.77219 0.0
O285 O 0.9275 0.55485 0.74896 0.0
In286 In 0.74595 0.39743 0.49536 0.0
O287 O 0.74723 0.38154 0.53119 0.0
O288 O 0.77652 0.39168 0.51811 0.0
C289 C 0.74117 0.36361 0.45591 0.0
C290 C 0.7093 0.40948 0.50473 0.0
C291 C 0.77429 0.43734 0.49308 0.0
O292 O 0.74721 0.36025 0.4777 0.0
O293 O 0.73596 0.38348 0.45414 0.0
O294 O 0.7657 0.43426 0.51191 0.0
O295 O 0.76804 0.42057 0.47524 0.0
C296 C 0.76722 0.38303 0.53462 0.0
O297 O 0.72127 0.42088 0.49211 0.0
O298 O 0.71505 0.39098 0.51108 0.0
In299 In 0.65929 0.56938 0.3305 0.0
O300 O 0.6859 0.5518 0.34647 0.0
O301 O 0.65889 0.52928 0.32326 0.0
C302 C 0.68668 0.61114 0.33068 0.0
C303 C 0.63768 0.56377 0.28355 0.0
C304 C 0.64046 0.56845 0.37131 0.0
O305 O 0.69116 0.59092 0.32581 0.0
O306 O 0.66803 0.61054 0.33542 0.0
O307 O 0.63008 0.56052 0.34984 0.0
O308 O 0.65981 0.57769 0.37188 0.0
C309 C 0.67694 0.53093 0.33642 0.0
O310 O 0.63015 0.57187 0.30191 0.0
O311 O 0.65577 0.55858 0.28904 0.0
Tb312 Tb 0.02661 0.02345 0.04664 0.0
Tb313 Tb 0.07176 0.04787 0.06891 0.0
C314 C 0.98797 1.00374 0.03779 0.0
C315 C 0.9693 1.01062 0.02423 0.0
C316 C 0.95059 1.00862 0.03447 0.0
C317 C 0.93483 0.02091 0.02624 0.0
C318 C 0.93748 0.03533 1.00745 0.0
C319 C 0.95536 0.03538 0.99561 0.0
C320 C 0.97127 0.02331 1.0041 0.0
C321 C 0.05148 0.03418 0.01423 0.0
C322 C 0.04105 0.07886 0.04614 0.0
C323 C 0.11156 0.059 0.0798 0.0
C324 C 0.12696 0.04367 0.07634 0.0
C325 C 0.12121 0.02372 0.05787 0.0
C326 C 0.13481 1.00783 0.05534 0.0
C327 C 0.15436 1.01134 0.0715 0.0
C328 C 0.16012 0.03132 0.09014 0.0
C329 C 0.14645 0.0474 0.09255 0.0
C330 C 0.04292 0.05004 0.0982 0.0
C331 C 0.05838 0.99142 0.06735 0.0
O332 O 0.99689 0.01848 0.05806 0.0
O333 O 1.002 0.99738 0.02473 0.0
O334 O 0.0569 0.02672 0.03438 0.0
O335 O 0.03127 0.03438 0.01099 0.0
O336 O 0.02493 0.06157 0.04837 0.0
O337 O 0.06109 0.07613 0.05058 0.0
O338 O 0.10082 0.06342 0.05932 0.0
O339 O 0.09925 0.05299 0.09588 0.0
O340 O 0.04421 0.03286 0.08285 0.0
O341 O 0.05911 0.06722 0.09843 0.0
O342 O 0.07393 1.01064 0.07164 0.0
O343 O 0.03852 0.9923 0.05785 0.0
H344 H 0.94892 0.99913 0.05019 0.0
H345 H 0.92151 0.02065 0.03612 0.0
H346 H 0.95772 0.04592 0.9808 0.0
H347 H 0.98569 0.02521 0.996 0.0
H348 H 0.10601 0.02022 0.04556 0.0
H349 H 0.13004 0.99288 0.04054 0.0
H350 H 0.17503 0.03435 0.10301 0.0
H351 H 0.15092 0.06247 0.10722 0.0
Tb352 Tb 0.30785 0.77714 0.28592 0.0
Tb353 Tb 0.29601 0.79667 0.32956 0.0
C354 C 0.31634 0.76888 0.24323 0.0
C355 C 0.32669 0.78446 0.22724 0.0
C356 C 0.32078 0.80633 0.22403 0.0
C357 C 0.33084 0.82113 0.20911 0.0
C358 C 0.34724 0.81456 0.19728 0.0
C359 C 0.35358 0.79296 0.20116 0.0
C360 C 0.34333 0.778 0.21598 0.0
C361 C 0.33359 0.77207 0.32599 0.0
C362 C 0.32362 0.83461 0.30418 0.0
C363 C 0.28791 0.80765 0.37217 0.0
C364 C 0.28011 0.79536 0.39187 0.0
C365 C 0.28168 0.77158 0.39317 0.0
C366 C 0.27583 0.76071 0.41314 0.0
C367 C 0.26831 0.77346 0.43217 0.0
C368 C 0.26579 0.79696 0.43014 0.0
C369 C 0.27166 0.80782 0.41007 0.0
C370 C 0.27051 0.80161 0.28908 0.0
C371 C 0.28047 0.73921 0.31132 0.0
O372 O 0.29759 0.77211 0.24755 0.0
O373 O 0.32876 0.76641 0.26322 0.0
O374 O 0.32638 0.79064 0.3222 0.0
O375 O 0.32606 0.75573 0.30712 0.0
O376 O 0.32021 0.81651 0.28575 0.0
O377 O 0.31691 0.83035 0.32511 0.0
O378 O 0.30681 0.80511 0.36777 0.0
O379 O 0.27414 0.80552 0.35188 0.0
O380 O 0.27755 0.7831 0.29329 0.0
O381 O 0.27795 0.81804 0.30786 0.0
O382 O 0.28473 0.7571 0.33015 0.0
O383 O 0.2863 0.74376 0.29 0.0
H384 H 0.3082 0.81194 0.2328 0.0
H385 H 0.32516 0.83734 0.20619 0.0
H386 H 0.36626 0.78747 0.19251 0.0
H387 H 0.34834 0.76136 0.2186 0.0
H388 H 0.28821 0.76171 0.37928 0.0
H389 H 0.27841 0.74276 0.41434 0.0
H390 H 0.25997 0.80716 0.44444 0.0
H391 H 0.2702 0.82618 0.40915 0.0
Tb392 Tb 0.57631 0.04092 0.54787 0.0
Tb393 Tb 0.53054 0.03309 0.56358 0.0
C394 C 0.61574 0.0432 0.54767 0.0
C395 C 0.6334 0.03028 0.55317 0.0
C396 C 0.63532 0.01723 0.57317 0.0
C397 C 0.65261 1.00557 0.57763 0.0
C398 C 0.66825 1.00666 0.56214 0.0
C399 C 0.66614 0.01986 0.54225 0.0
C400 C 0.64898 0.03143 0.53785 0.0
C401 C 0.54581 0.04703 0.51011 0.0
C402 C 0.54752 0.98834 0.54184 0.0
C403 C 0.49113 0.03047 0.56427 0.0
C404 C 0.47311 0.04275 0.55854 0.0
C405 C 0.47509 0.06355 0.54721 0.0
C406 C 0.45783 0.07538 0.54366 0.0
C407 C 0.43839 0.06674 0.55161 0.0
C408 C 0.43654 0.04565 0.56253 0.0
C409 C 0.45366 0.03386 0.56593 0.0
C410 C 0.56106 0.02696 0.6013 0.0
C411 C 0.55926 0.08569 0.56931 0.0
O412 O 0.6081 0.05291 0.56621 0.0
O413 O 0.60071 0.03341 0.52881 0.0
O414 O 0.5439 0.04151 0.53156 0.0
O415 O 0.56627 0.05016 0.51028 0.0
O416 O 0.56686 1.00197 0.54409 0.0
O417 O 0.5306 0.99702 0.5465 0.0
O418 O 0.49862 0.02047 0.54576 0.0
O419 O 0.50634 0.04116 0.58259 0.0
O420 O 0.56292 0.03246 0.57984 0.0
O421 O 0.54063 0.02387 0.60117 0.0
O422 O 0.53991 0.07204 0.56704 0.0
O423 O 0.57621 0.077 0.56478 0.0
H424 H 0.6235 1.01601 0.58529 0.0
H425 H 0.65355 0.99547 0.59302 0.0
H426 H 0.67797 0.02158 0.53018 0.0
H427 H 0.64794 0.0415 0.52241 0.0
H428 H 0.49001 0.07081 0.54148 0.0
H429 H 0.4599 0.09161 0.53531 0.0
H430 H 0.42179 0.0382 0.56849 0.0
H431 H 0.45176 0.01786 0.57472 0.0
Tb432 Tb 0.28401 0.2899 0.80754 0.0
Tb433 Tb 0.33109 0.28445 0.81705 0.0
C434 C 0.24445 0.28587 0.80802 0.0
C435 C 0.22813 0.28352 0.82461 0.0
C436 C 0.2138 0.26159 0.823 0.0
C437 C 0.19651 0.25965 0.83589 0.0
C438 C 0.19298 0.27964 0.8507 0.0
C439 C 0.20775 0.30142 0.85292 0.0
C440 C 0.22505 0.30336 0.84001 0.0
C441 C 0.31251 0.32488 0.79765 0.0
C442 C 0.31222 0.30382 0.86234 0.0
C443 C 0.37047 0.28763 0.81609 0.0
C444 C 0.38613 0.28986 0.79873 0.0
C445 C 0.4009 0.31148 0.80039 0.0
C446 C 0.41741 0.31325 0.78636 0.0
C447 C 0.4197 0.29339 0.77033 0.0
C448 C 0.40446 0.27197 0.76808 0.0
C449 C 0.38792 0.2702 0.78212 0.0
C450 C 0.30252 0.24966 0.8271 0.0
C451 C 0.30332 0.27173 0.76206 0.0
O452 O 0.25371 0.26771 0.80389 0.0
O453 O 0.25776 0.30644 0.80992 0.0
O454 O 0.31459 0.31294 0.81519 0.0
O455 O 0.29303 0.31868 0.78558 0.0
O456 O 0.29293 0.29719 0.8483 0.0
O457 O 0.32997 0.30262 0.85329 0.0
O458 O 0.36168 0.30603 0.82093 0.0
O459 O 0.35688 0.26727 0.81419 0.0
O460 O 0.30053 0.26139 0.80938 0.0
O461 O 0.32191 0.25605 0.83936 0.0
O462 O 0.32246 0.27805 0.77636 0.0
O463 O 0.28543 0.27261 0.77093 0.0
H464 H 0.21552 0.24602 0.81107 0.0
H465 H 0.18544 0.24264 0.83343 0.0
H466 H 0.2058 0.31712 0.86445 0.0
H467 H 0.23568 0.32058 0.84165 0.0
H468 H 0.40009 0.32691 0.81315 0.0
H469 H 0.42888 0.32998 0.78884 0.0
H470 H 0.40544 0.25642 0.75562 0.0
H471 H 0.37686 0.25325 0.78033 0.0
Tb472 Tb 0.05041 0.06763 0.56439 0.0
Tb473 Tb 0.05968 0.02061 0.56128 0.0
C474 C 0.05233 0.11187 0.57032 0.0
C475 C 0.0558 0.12946 0.55341 0.0
C476 C 0.06548 0.12446 0.5328 0.0
C477 C 0.06723 0.14032 0.51555 0.0
C478 C 0.05919 0.16135 0.5186 0.0
C479 C 0.04977 0.16644 0.5395 0.0
C480 C 0.04808 0.15056 0.55679 0.0
C481 C 1.01636 0.03381 0.56418 0.0
C482 C 0.04216 0.03971 0.5124 0.0
C483 C 0.06084 0.97707 0.55453 0.0
C484 C 0.06933 0.96135 0.57076 0.0
C485 C 0.06881 0.96494 0.59623 0.0
C486 C 0.07664 0.9497 0.6115 0.0
C487 C 0.08527 0.93081 0.60157 0.0
C488 C 0.08651 0.9278 0.57625 0.0
C489 C 0.07853 0.94298 0.56092 0.0
C490 C 0.09357 0.05483 0.56214 0.0
C491 C 0.06768 0.04839 0.61409 0.0
O492 O 0.06861 0.10204 0.57699 0.0
O493 O 0.03439 0.09618 0.56405 0.0
O494 O 0.03501 0.035 0.57565 0.0
O495 O 1.01619 0.05256 0.55334 0.0
O496 O 0.04904 0.06135 0.52474 0.0
O497 O 0.04205 0.02091 0.52411 0.0
O498 O 0.04427 0.98512 0.56039 0.0
O499 O 0.07515 0.99371 0.54875 0.0
O500 O 0.07506 0.05322 0.55002 0.0
O501 O 0.09349 0.03671 0.57407 0.0
O502 O 0.06484 0.02693 0.60134 0.0
O503 O 0.06408 0.06684 0.60305 0.0
H504 H 0.0714 0.10811 0.52984 0.0
H505 H 0.07478 0.13607 0.49979 0.0
H506 H 0.04317 0.18236 0.54214 0.0
H507 H 0.04035 0.15449 0.57249 0.0
H508 H 0.06207 0.97927 0.60427 0.0
H509 H 0.07562 0.95239 0.631 0.0
H510 H 0.0929 0.91317 0.56817 0.0
H511 H 0.07925 0.94018 0.54135 0.0
Tb512 Tb 0.30427 0.76626 0.77477 0.0
Tb513 Tb 0.3037 0.8193 0.77435 0.0
C514 C 0.30308 0.7226 0.76356 0.0
C515 C 0.31901 0.70753 0.76688 0.0
C516 C 0.34074 0.71678 0.76693 0.0
C517 C 0.35567 0.70208 0.76947 0.0
C518 C 0.34913 0.67801 0.77224 0.0
C519 C 0.32742 0.66895 0.77259 0.0
C520 C 0.31247 0.68361 0.76989 0.0
C521 C 0.31015 0.7921 0.81851 0.0
C522 C 0.3474 0.80327 0.78576 0.0
C523 C 0.29905 0.86176 0.77929 0.0
C524 C 0.28424 0.87638 0.78719 0.0
C525 C 0.26957 0.86869 0.80247 0.0
C526 C 0.25676 0.88392 0.81102 0.0
C527 C 0.25812 0.90684 0.8039 0.0
C528 C 0.27218 0.91383 0.78759 0.0
C529 C 0.28523 0.89884 0.77954 0.0
C530 C 0.31322 0.79668 0.73451 0.0
C531 C 0.25968 0.78176 0.76874 0.0
O532 O 0.3065 0.7383 0.74839 0.0
O533 O 0.29724 0.73151 0.7838 0.0
O534 O 0.29793 0.7944 0.79941 0.0
O535 O 0.31872 0.77369 0.81405 0.0
O536 O 0.33763 0.7814 0.77549 0.0
O537 O 0.33675 0.82031 0.79106 0.0
O538 O 0.30975 0.85253 0.79658 0.0
O539 O 0.2921 0.84688 0.75869 0.0
O540 O 0.29968 0.78875 0.74732 0.0
O541 O 0.32149 0.81867 0.74352 0.0
O542 O 0.26945 0.80447 0.77095 0.0
O543 O 0.27007 0.76402 0.76901 0.0
H544 H 0.34615 0.73527 0.76476 0.0
H545 H 0.37232 0.70954 0.76929 0.0
H546 H 0.32192 0.65038 0.77442 0.0
H547 H 0.29578 0.67622 0.76991 0.0
H548 H 0.26829 0.85114 0.80812 0.0
H549 H 0.24616 0.87789 0.82355 0.0
H550 H 0.27317 0.93095 0.78097 0.0
H551 H 0.29623 0.90488 0.7674 0.0
Tb552 Tb 0.53987 0.04862 0.04104 0.0
Tb553 Tb 0.56908 0.02558 0.07139 0.0
C554 C 0.50774 0.05908 0.0166 0.0
C555 C 0.489 0.06792 0.02271 0.0
C556 C 0.48749 0.07519 0.0474 0.0
C557 C 0.46791 0.07848 0.05359 0.0
C558 C 0.44974 0.07477 0.0351 0.0
C559 C 0.45193 0.06994 0.01017 0.0
C560 C 0.47145 0.06638 1.00404 0.0
C561 C 0.57196 0.07867 0.06997 0.0
C562 C 0.52967 0.03774 0.09644 0.0
C563 C 0.60148 0.01694 0.09729 0.0
C564 C 0.62388 0.01725 0.09518 0.0
C565 C 0.63038 1.01504 0.07203 0.0
C566 C 0.6521 0.02042 0.07042 0.0
C567 C 0.66756 0.02818 0.09198 0.0
C568 C 0.66096 0.02865 0.11517 0.0
C569 C 0.63928 0.02326 0.11673 0.0
C570 C 0.5371 0.99542 0.04232 0.0
C571 C 0.57881 0.03588 0.01587 0.0
O572 O 0.50859 0.03748 0.02158 0.0
O573 O 0.52614 0.07394 0.02345 0.0
O574 O 0.56131 0.05979 0.07498 0.0
O575 O 0.56408 0.08154 0.04779 0.0
O576 O 0.52331 0.04486 0.07466 0.0
O577 O 0.5479 0.02976 0.09955 0.0
O578 O 0.59635 0.03793 0.09834 0.0
O579 O 0.58692 1.00041 0.08274 0.0
O580 O 0.54768 1.01441 0.03738 0.0
O581 O 0.54475 0.99279 0.06475 0.0
O582 O 0.58634 0.03133 0.03853 0.0
O583 O 0.55949 0.04131 0.01203 0.0
H584 H 0.50106 0.07688 0.06199 0.0
H585 H 0.46657 0.08216 0.07292 0.0
H586 H 0.43811 0.06664 0.99559 0.0
H587 H 0.47242 0.06086 0.98488 0.0
H588 H 0.61867 1.01031 0.05521 0.0
H589 H 0.65673 0.01961 0.05231 0.0
H590 H 0.67241 0.03482 0.13209 0.0
H591 H 0.63449 0.02519 0.13474 0.0
Tb592 Tb 0.28323 0.27091 0.29537 0.0
Tb593 Tb 0.32332 0.30228 0.31845 0.0
C594 C 0.24813 0.24204 0.28546 0.0
C595 C 0.22632 0.24594 0.27826 0.0
C596 C 0.21044 0.23643 0.29122 0.0
C597 C 0.19153 0.24502 0.29016 0.0
C598 C 0.18797 0.26315 0.27583 0.0
C599 C 0.20316 0.27107 0.26109 0.0
C600 C 0.22228 0.26274 0.2625 0.0
C601 C 0.29943 0.29954 0.26577 0.0
C602 C 0.28202 0.32694 0.31183 0.0
C603 C 0.36167 0.32403 0.32753 0.0
C604 C 0.3812 0.31638 0.32206 0.0
C605 C 0.37988 0.29719 0.30341 0.0
C606 C 0.39809 0.28838 0.29971 0.0
C607 C 0.418 0.29886 0.31432 0.0
C608 C 0.4194 0.31842 0.33264 0.0
C609 C 0.40106 0.32699 0.33662 0.0
C610 C 0.29943 0.28586 0.35053 0.0
C611 C 0.32475 0.24607 0.30146 0.0
O612 O 0.25703 0.25217 0.30796 0.0
O613 O 0.26123 0.24516 0.26947 0.0
O614 O 0.3099 0.28897 0.28067 0.0
O615 O 0.27928 0.29294 0.26623 0.0
O616 O 0.27102 0.30428 0.30717 0.0
O617 O 0.30339 0.33057 0.31506 0.0
O618 O 0.34804 0.32639 0.30837 0.0
O619 O 0.35227 0.31253 0.34335 0.0
O620 O 0.30234 0.2746 0.33079 0.0
O621 O 0.31057 0.30745 0.35297 0.0
O622 O 0.33509 0.26759 0.31325 0.0
O623 O 0.30407 0.2435 0.29163 0.0
H624 H 0.21338 0.22371 0.30374 0.0
H625 H 0.18052 0.23865 0.30212 0.0
H626 H 0.20083 0.28463 0.24944 0.0
H627 H 0.23437 0.27051 0.25243 0.0
H628 H 0.36475 0.28887 0.29179 0.0
H629 H 0.39665 0.27356 0.2852 0.0
H630 H 0.4346 0.3268 0.34411 0.0
H631 H 0.40232 0.34169 0.35121 0.0
Tb632 Tb 0.55089 0.56931 0.05808 0.0
Tb633 Tb 0.55236 0.51481 0.05072 0.0
C634 C 0.55467 0.61332 0.05731 0.0
C635 C 0.5566 0.62993 0.03916 0.0
C636 C 0.56234 0.62343 0.01616 0.0
C637 C 0.56259 0.63916 0.99857 0.0
C638 C 0.55694 0.66144 1.00378 0.0
C639 C 0.55165 0.66795 0.02706 0.0
C640 C 0.55146 0.6523 0.04457 0.0
C641 C 0.51817 0.53918 0.06831 0.0
C642 C 0.53912 0.53915 1.00393 0.0
C643 C 0.54007 0.47063 0.04811 0.0
C644 C 0.54627 0.45101 0.06013 0.0
C645 C 0.56204 0.45546 0.08137 0.0
C646 C 0.56599 0.43673 0.09422 0.0
C647 C 0.55416 0.41339 0.08599 0.0
C648 C 0.53894 0.40898 0.06417 0.0
C649 C 0.53502 0.4277 0.05136 0.0
C650 C 0.59003 0.54219 0.04816 0.0
C651 C 0.56899 0.54629 0.10367 0.0
O652 O 0.57097 0.60308 0.0629 0.0
O653 O 0.53619 0.59847 0.05425 0.0
O654 O 0.52843 0.53597 0.0509 0.0
O655 O 0.52562 0.56053 0.08023 0.0
O656 O 0.54504 0.56056 0.01757 0.0
O657 O 0.53877 0.51907 0.01359 0.0
O658 O 0.53323 0.48638 0.06234 0.0
O659 O 0.55299 0.48041 0.03411 0.0
O660 O 0.57256 0.54775 0.05091 0.0
O661 O 0.58681 0.5191 0.0473 0.0
O662 O 0.56124 0.52464 0.09094 0.0
O663 O 0.56893 0.56617 0.0936 0.0
H664 H 0.56628 0.60613 0.01168 0.0
H665 H 0.56664 0.63368 0.98074 0.0
H666 H 0.54758 0.68516 0.03172 0.0
H667 H 0.547 0.65754 0.06226 0.0
H668 H 0.57075 0.47349 0.08841 0.0
H669 H 0.57767 0.44065 0.11111 0.0
H670 H 0.5298 0.39112 0.05727 0.0
H671 H 0.52278 0.42407 0.03498 0.0
Tb672 Tb 0.81644 0.27966 0.27978 0.0
Tb673 Tb 0.82238 0.33237 0.30045 0.0
C674 C 0.81924 0.2409 0.25575 0.0
C675 C 0.83383 0.22435 0.25878 0.0
C676 C 0.85082 0.22904 0.27878 0.0
C677 C 0.86468 0.21318 0.28159 0.0
C678 C 0.86171 0.19239 0.26442 0.0
C679 C 0.84471 0.18785 0.24432 0.0
C680 C 0.83081 0.2037 0.24159 0.0
C681 C 0.80812 0.28752 0.32472 0.0
C682 C 0.86278 0.31022 0.30634 0.0
C683 C 0.82052 0.37308 0.32087 0.0
C684 C 0.80407 0.38609 0.32709 0.0
C685 C 0.78229 0.37535 0.32114 0.0
C686 C 0.76675 0.38885 0.32452 0.0
C687 C 0.77288 0.41328 0.33378 0.0
C688 C 0.79471 0.4238 0.34039 0.0
C689 C 0.8102 0.41026 0.3371 0.0
C690 C 0.83026 0.32247 0.25533 0.0
C691 C 0.77612 0.30115 0.2783 0.0
O692 O 0.82769 0.2619 0.25075 0.0
O693 O 0.80717 0.24237 0.27271 0.0
O694 O 0.8225 0.30001 0.31574 0.0
O695 O 0.79963 0.26841 0.30919 0.0
O696 O 0.85119 0.29023 0.29291 0.0
O697 O 0.85444 0.32851 0.31381 0.0
O698 O 0.82332 0.35537 0.33312 0.0
O699 O 0.82042 0.36775 0.29718 0.0
O700 O 0.81532 0.31172 0.26468 0.0
O701 O 0.84134 0.34014 0.27135 0.0
O702 O 0.78782 0.31905 0.29459 0.0
O703 O 0.78496 0.28575 0.26576 0.0
H704 H 0.85326 0.24484 0.29231 0.0
H705 H 0.87771 0.21718 0.29717 0.0
H706 H 0.84189 0.17181 0.23099 0.0
H707 H 0.81774 0.19986 0.22606 0.0
H708 H 0.77731 0.35679 0.31323 0.0
H709 H 0.75 0.38042 0.31915 0.0
H710 H 0.79976 0.44262 0.34762 0.0
H711 H 0.82696 0.41884 0.34166 0.0
Tb712 Tb 0.02822 0.52292 0.53484 0.0
Tb713 Tb 0.06925 0.54194 0.56948 0.0
C714 C 0.9937 0.49718 0.51237 0.0
C715 C 0.971 0.49635 0.51264 0.0
C716 C 0.95618 0.47581 0.50121 0.0
C717 C 0.93443 0.47469 0.50101 0.0
C718 C 0.92718 0.49415 0.51225 0.0
C719 C 0.94211 0.51482 0.52365 0.0
C720 C 0.96395 0.51587 0.52396 0.0
C721 C 0.03861 0.56991 0.54392 0.0
C722 C 0.02671 0.53494 0.59456 0.0
C723 C 0.10429 0.56632 0.59217 0.0
C724 C 0.1266 0.56631 0.59009 0.0
C725 C 0.1318 0.55396 0.56917 0.0
C726 C 0.15314 0.55421 0.56727 0.0
C727 C 0.16956 0.56663 0.58638 0.0
C728 C 0.16418 0.57839 0.60763 0.0
C729 C 0.14283 0.57827 0.60941 0.0
C730 C 0.05902 0.49465 0.55868 0.0
C731 C 0.07101 0.53127 0.51002 0.0
O732 O 1.00458 0.49209 0.53236 0.0
O733 O 1.00378 0.51578 0.50414 0.0
O734 O 0.04153 0.55536 0.55871 0.0
O735 O 0.02685 0.55805 0.52374 0.0
O736 O 1.0168 0.52322 0.57219 0.0
O737 O 0.04719 0.5459 0.59694 0.0
O738 O 0.09289 0.57296 0.57351 0.0
O739 O 0.09421 0.54723 0.59957 0.0
O740 O 0.05609 0.50997 0.54496 0.0
O741 O 0.07042 0.50597 0.57931 0.0
O742 O 0.08053 0.54324 0.53235 0.0
O743 O 0.05074 0.51941 0.50761 0.0
H744 H 0.96144 0.46066 0.49236 0.0
H745 H 0.92322 0.45867 0.49181 0.0
H746 H 0.9369 0.52996 0.53256 0.0
H747 H 0.97532 0.53186 0.53294 0.0
H748 H 0.11941 0.54431 0.55423 0.0
H749 H 0.1568 0.54521 0.55058 0.0
H750 H 0.17648 0.5878 0.62281 0.0
H751 H 0.139 0.58758 0.62583 0.0
Tb752 Tb 0.78204 0.79707 0.30264 0.0
Tb753 Tb 0.82839 0.78945 0.31259 0.0
C754 C 0.74258 0.79511 0.30203 0.0
C755 C 0.72602 0.79423 0.31812 0.0
C756 C 0.72465 0.77895 0.33628 0.0
C757 C 0.70744 0.7769 0.34938 0.0
C758 C 0.69122 0.79005 0.34462 0.0
C759 C 0.69297 0.80558 0.32669 0.0
C760 C 0.71012 0.80762 0.31368 0.0
C761 C 0.81188 0.8314 0.29411 0.0
C762 C 0.80936 0.80858 0.35797 0.0
C763 C 0.86771 0.79119 0.31226 0.0
C764 C 0.88366 0.79298 0.29522 0.0
C765 C 0.89802 0.81474 0.29594 0.0
C766 C 0.9148 0.81613 0.28231 0.0
C767 C 0.91779 0.79574 0.26765 0.0
C768 C 0.903 0.77414 0.26634 0.0
C769 C 0.88621 0.77275 0.27999 0.0
C770 C 0.79848 0.75507 0.32092 0.0
C771 C 0.80122 0.77829 0.25729 0.0
O772 O 0.75119 0.77632 0.29886 0.0
O773 O 0.75655 0.81516 0.304 0.0
O774 O 0.81316 0.819 0.31135 0.0
O775 O 0.79257 0.82603 0.28156 0.0
O776 O 0.79025 0.80313 0.34348 0.0
O777 O 0.82717 0.80679 0.34924 0.0
O778 O 0.85947 0.81 0.31718 0.0
O779 O 0.85355 0.77121 0.30991 0.0
O780 O 0.79732 0.76755 0.30374 0.0
O781 O 0.81777 0.76037 0.33353 0.0
O782 O 0.8203 0.78398 0.2718 0.0
O783 O 0.78336 0.77968 0.26604 0.0
H784 H 0.73664 0.7683 0.34006 0.0
H785 H 0.70683 0.76495 0.3632 0.0
H786 H 0.6807 0.81568 0.3221 0.0
H787 H 0.71066 0.81929 0.29957 0.0
H788 H 0.89668 0.83062 0.30767 0.0
H789 H 0.92591 0.83303 0.28404 0.0
H790 H 0.90452 0.75815 0.25494 0.0
H791 H 0.87554 0.75566 0.27901 0.0
Tb792 Tb 0.81003 0.27793 0.78237 0.0
Tb793 Tb 0.79977 0.29689 0.82733 0.0
C794 C 0.8161 0.26995 0.73852 0.0
C795 C 0.81897 0.28501 0.71908 0.0
C796 C 0.81043 0.30573 0.71907 0.0
C797 C 0.81224 0.31935 0.69988 0.0
C798 C 0.82265 0.31251 0.68038 0.0
C799 C 0.83193 0.29224 0.68101 0.0
C800 C 0.83008 0.27858 0.70026 0.0
C801 C 0.83713 0.2727 0.82124 0.0
C802 C 0.82577 0.33485 0.80116 0.0
C803 C 0.7931 0.30622 0.87076 0.0
C804 C 0.77949 0.29426 0.88667 0.0
C805 C 0.77779 0.26983 0.88806 0.0
C806 C 0.7662 0.25921 0.90473 0.0
C807 C 0.75603 0.2728 0.92032 0.0
C808 C 0.75661 0.29692 0.91766 0.0
C809 C 0.76831 0.30757 0.901 0.0
C810 C 0.77274 0.30203 0.78825 0.0
C811 C 0.78348 0.23943 0.80833 0.0
O812 O 0.79718 0.26669 0.74495 0.0
O813 O 0.83148 0.27468 0.75762 0.0
O814 O 0.82962 0.29118 0.81814 0.0
O815 O 0.82956 0.25666 0.80212 0.0
O816 O 0.81945 0.31761 0.78182 0.0
O817 O 0.82229 0.32948 0.82313 0.0
O818 O 0.80887 0.29636 0.86524 0.0
O819 O 0.78298 0.31335 0.8517 0.0
O820 O 0.78019 0.2836 0.7916 0.0
O821 O 0.78034 0.31813 0.80727 0.0
O822 O 0.78618 0.25763 0.82658 0.0
O823 O 0.79068 0.24359 0.78761 0.0
H824 H 0.80183 0.31102 0.73351 0.0
H825 H 0.80461 0.33462 0.69977 0.0
H826 H 0.84022 0.28669 0.66636 0.0
H827 H 0.83695 0.26275 0.70019 0.0
H828 H 0.78611 0.25912 0.87702 0.0
H829 H 0.76649 0.24071 0.90651 0.0
H830 H 0.74881 0.30781 0.92923 0.0
H831 H 0.7692 0.3264 0.89986 0.0
Tb832 Tb 0.78113 0.77092 0.79695 0.0
Tb833 Tb 0.8237 0.80452 0.81915 0.0
C834 C 0.74606 0.74204 0.78877 0.0
C835 C 0.72424 0.74612 0.78221 0.0
C836 C 0.70871 0.73719 0.79589 0.0
C837 C 0.68975 0.74571 0.79479 0.0
C838 C 0.68584 0.7632 0.77973 0.0
C839 C 0.70078 0.77073 0.76458 0.0
C840 C 0.7199 0.76244 0.76598 0.0
C841 C 0.79853 0.79714 0.76632 0.0
C842 C 0.78033 0.82726 0.8128 0.0
C843 C 0.85918 0.83197 0.82184 0.0
C844 C 0.87898 0.82912 0.81246 0.0
C845 C 0.88063 0.83013 0.78749 0.0
C846 C 0.89821 0.82404 0.7782 0.0
C847 C 0.91453 0.81711 0.79378 0.0
C848 C 0.91351 0.81757 0.81904 0.0
C849 C 0.89594 0.82359 0.8283 0.0
C850 C 0.80498 0.7871 0.85526 0.0
C851 C 0.82442 0.74782 0.80405 0.0
O852 O 0.75561 0.75244 0.81094 0.0
O853 O 0.75861 0.74473 0.77214 0.0
O854 O 0.80857 0.78755 0.7827 0.0
O855 O 0.77817 0.7906 0.7658 0.0
O856 O 0.76906 0.8048 0.80609 0.0
O857 O 0.80177 0.83106 0.81807 0.0
O858 O 0.84235 0.83231 0.80545 0.0
O859 O 0.85437 0.81879 0.83887 0.0
O860 O 0.7985 0.7836 0.83229 0.0
O861 O 0.82279 0.80259 0.85882 0.0
O862 O 0.83564 0.77018 0.81184 0.0
O863 O 0.80304 0.74425 0.7976 0.0
H864 H 0.7119 0.72489 0.8088 0.0
H865 H 0.67889 0.73971 0.80706 0.0
H866 H 0.69816 0.78382 0.75245 0.0
H867 H 0.73174 0.76982 0.7554 0.0
H868 H 0.86813 0.83498 0.77497 0.0
H869 H 0.89891 0.82438 0.75876 0.0
H870 H 0.92587 0.81231 0.83146 0.0
H871 H 0.89525 0.82303 0.84773 0.0
Tb872 Tb 0.5381 0.52096 0.53742 0.0
Tb873 Tb 0.57348 0.55285 0.57186 0.0
C874 C 0.50258 0.4997 0.5127 0.0
C875 C 0.48718 0.50719 0.49457 0.0
C876 C 0.4654 0.50103 0.49583 0.0
C877 C 0.45133 0.51445 0.48567 0.0
C878 C 0.45905 0.53421 0.47432 0.0
C879 C 0.48012 0.53777 0.46961 0.0
C880 C 0.49424 0.52452 0.47999 0.0
C881 C 0.5743 0.52949 0.51983 0.0
C882 C 0.54406 0.57821 0.53834 0.0
C883 C 0.60996 0.5728 0.59515 0.0
C884 C 0.62838 0.56234 0.60391 0.0
C885 C 0.64609 0.56548 0.59168 0.0
C886 C 0.65907 0.54859 0.59149 0.0
C887 C 0.65451 0.52869 0.60377 0.0
C888 C 0.63942 0.52806 0.61964 0.0
C889 C 0.62626 0.54475 0.61963 0.0
C890 C 0.53726 0.54484 0.5893 0.0
C891 C 0.56706 0.49586 0.5709 0.0
O892 O 0.50495 0.5112 0.53512 0.0
O893 O 0.52088 0.49768 0.50608 0.0
O894 O 0.56659 0.54411 0.53267 0.0
O895 O 0.56127 0.50897 0.51631 0.0
O896 O 0.53167 0.55667 0.53069 0.0
O897 O 0.56225 0.58092 0.55383 0.0
O898 O 0.60475 0.57022 0.57104 0.0
O899 O 0.59313 0.56801 0.6058 0.0
O900 O 0.54486 0.5299 0.57664 0.0
O901 O 0.55054 0.56526 0.59293 0.0
O902 O 0.58077 0.51679 0.57553 0.0
O903 O 0.54763 0.49409 0.55855 0.0
H904 H 0.45973 0.48763 0.50697 0.0
H905 H 0.43517 0.5113 0.4896 0.0
H906 H 0.4863 0.55267 0.46057 0.0
H907 H 0.51103 0.5295 0.47871 0.0
H908 H 0.64825 0.57916 0.57976 0.0
H909 H 0.67076 0.54944 0.57921 0.0
H910 H 0.6361 0.51313 0.62974 0.0
H911 H 0.61303 0.54214 0.62973 0.0
Tb912 Tb 0.07431 0.53863 0.04732 0.0
Tb913 Tb 0.02878 0.53295 0.06335 0.0
C914 C 0.11369 0.54001 0.04786 0.0
C915 C 0.13073 0.52633 0.05438 0.0
C916 C 0.14223 0.52904 0.0786 0.0
C917 C 0.15991 0.51818 0.08365 0.0
C918 C 0.16665 0.50453 0.06457 0.0
C919 C 0.15469 0.5013 0.04056 0.0
C920 C 0.1371 0.5121 0.03554 0.0
C921 C 0.04407 0.54423 0.00904 0.0
C922 C 0.04494 0.48691 0.04299 0.0
C923 C 0.98939 0.53025 0.06404 0.0
C924 C 0.97099 0.5417 0.0575 0.0
C925 C 0.97298 0.56333 0.04764 0.0
C926 C 0.95535 0.57451 0.04377 0.0
C927 C 0.93553 0.5644 0.05 0.0
C928 C 0.93365 0.54247 0.05932 0.0
C929 C 0.95113 0.53129 0.06298 0.0
C930 C 0.05929 0.52744 0.10151 0.0
C931 C 0.05803 0.58468 0.06719 0.0
O932 O 0.1061 0.55091 0.06576 0.0
O933 O 0.09872 0.53034 0.02888 0.0
O934 O 0.04215 0.54046 0.03105 0.0
O935 O 0.06428 0.54526 0.00873 0.0
O936 O 0.06447 0.49999 0.0451 0.0
O937 O 0.02827 0.49629 0.04725 0.0
O938 O 0.99683 0.5193 0.04607 0.0
O939 O 1.00463 0.54211 0.08177 0.0
O940 O 0.06087 0.53108 0.07943 0.0
O941 O 0.03914 0.52652 0.10203 0.0
O942 O 0.03847 0.57159 0.06496 0.0
O943 O 0.07475 0.57531 0.06314 0.0
H944 H 0.13795 0.54004 0.09356 0.0
H945 H 0.16875 0.5212 0.10234 0.0
H946 H 0.15907 0.49056 0.02547 0.0
H947 H 0.12878 0.50975 0.01664 0.0
H948 H 0.98822 0.57178 0.04345 0.0
H949 H 0.9574 0.59142 0.03665 0.0
H950 H 0.91861 0.53395 0.06395 0.0
H951 H 0.94923 0.51464 0.07064 0.0
C952 C 0.01743 0.18258 0.96628 0.0
C953 C 0.02101 0.20515 0.98064 0.0
C954 C 0.01941 0.16192 0.97725 0.0
C955 C 0.02509 0.16371 1.0033 0.0
C956 C 0.02822 0.18637 0.01793 0.0
C957 C 0.02619 0.20675 1.00647 0.0
C958 C 1.01596 0.13823 0.96086 0.0
C959 C 0.03426 0.1892 0.04572 0.0
C960 C 1.01627 0.10636 0.03322 0.0
C961 C 0.03678 0.10103 0.03631 0.0
C962 C 1.01225 0.12679 0.02284 0.0
C963 C 0.02905 0.1422 0.01504 0.0
C964 C 0.04976 0.13687 0.01815 0.0
C965 C 0.05337 0.11655 0.02877 0.0
C966 C 0.98998 0.1318 0.02005 0.0
C967 C 0.06815 0.15249 0.00991 0.0
H968 H 1.01341 0.18109 0.94633 0.0
H969 H 0.02896 0.22405 0.01777 0.0
H970 H 0.03104 0.13142 0.96255 0.0
H971 H 1.00379 0.12485 0.96687 0.0
H972 H 1.01066 0.13957 0.94109 0.0
H973 H 0.03488 0.20768 0.05461 0.0
H974 H 0.02261 0.17666 0.05343 0.0
H975 H 0.05017 0.18467 0.05072 0.0
H976 H 1.0033 0.09452 0.03884 0.0
H977 H 0.06926 0.1126 0.03072 0.0
H978 H 0.98405 0.13269 1.00035 0.0
H979 H 0.99022 0.14942 0.03066 0.0
H980 H 0.97862 0.11794 0.02662 0.0
H981 H 0.06441 0.15294 0.98972 0.0
H982 H 0.08336 0.14612 0.01389 0.0
H983 H 0.07054 0.1711 0.01931 0.0
C984 C 0.15133 0.80315 0.22838 0.0
C985 C 0.14828 0.8067 0.20346 0.0
C986 C 0.17159 0.80177 0.24099 0.0
C987 C 0.1894 0.80404 0.22849 0.0
C988 C 0.18643 0.80766 0.20333 0.0
C989 C 0.16595 0.8089 0.19114 0.0
C990 C 0.17393 0.79792 0.26777 0.0
C991 C 0.20493 0.81031 0.1893 0.0
C992 C 0.24419 0.82383 0.26968 0.0
C993 C 0.25091 0.80213 0.27137 0.0
C994 C 0.22459 0.82477 0.25522 0.0
C995 C 0.21119 0.80344 0.24209 0.0
C996 C 0.21823 0.78153 0.24306 0.0
C997 C 0.23803 0.78114 0.25761 0.0
C998 C 0.21795 0.84856 0.25464 0.0
C999 C 0.20451 0.75837 0.22939 0.0
H1000 H 0.1378 0.80131 0.23807 0.0
H1001 H 0.16378 0.81155 0.17187 0.0
H1002 H 0.18052 0.78166 0.27014 0.0
H1003 H 0.18539 0.81322 0.27941 0.0
H1004 H 0.15847 0.79596 0.27471 0.0
H1005 H 0.19997 0.81265 0.16974 0.0
H1006 H 0.21746 0.82596 0.19839 0.0
H1007 H 0.21228 0.79434 0.1896 0.0
H1008 H 0.25409 0.84015 0.28014 0.0
H1009 H 0.2431 0.76429 0.25884 0.0
H1010 H 0.20348 0.84847 0.26332 0.0
H1011 H 0.21374 0.85172 0.23524 0.0
H1012 H 0.23073 0.86367 0.26458 0.0
H1013 H 0.18952 0.75437 0.23709 0.0
H1014 H 0.21276 0.74311 0.23074 0.0
H1015 H 0.19993 0.75997 0.20957 0.0
C1016 C 0.52955 0.85812 0.46548 0.0
C1017 C 0.53073 0.83956 0.47979 0.0
C1018 C 0.53229 0.88195 0.47656 0.0
C1019 C 0.53632 0.88755 0.50268 0.0
C1020 C 0.53755 0.8689 0.51727 0.0
C1021 C 0.53474 0.84514 0.50566 0.0
C1022 C 0.53086 0.90118 0.46024 0.0
C1023 C 0.54183 0.87407 0.54515 0.0
C1024 C 0.56241 0.95231 0.52867 0.0
C1025 C 0.54477 0.96219 0.53332 0.0
C1026 C 0.55997 0.92798 0.51938 0.0
C1027 C 0.53938 0.91298 0.51453 0.0
C1028 C 0.52157 0.92267 0.51972 0.0
C1029 C 0.52446 0.94708 0.52903 0.0
C1030 C 0.57942 0.91846 0.51417 0.0
C1031 C 0.49933 0.90736 0.51485 0.0
H1032 H 0.52644 0.85403 0.44548 0.0
H1033 H 0.53566 0.83093 0.51686 0.0
H1034 H 0.51799 0.91064 0.46436 0.0
H1035 H 0.54607 0.91462 0.4641 0.0
H1036 H 0.52755 0.8939 0.44024 0.0
H1037 H 0.54226 0.85764 0.55388 0.0
H1038 H 0.55735 0.88673 0.55156 0.0
H1039 H 0.52927 0.88274 0.55172 0.0
H1040 H 0.57821 0.96366 0.53195 0.0
H1041 H 0.51068 0.95439 0.53255 0.0
H1042 H 0.5778 0.91251 0.49403 0.0
H1043 H 0.5807 0.90267 0.52368 0.0
H1044 H 0.59446 0.93205 0.52023 0.0
H1045 H 0.49442 0.90097 0.49474 0.0
H1046 H 0.48735 0.91719 0.52115 0.0
H1047 H 0.49914 0.89135 0.52435 0.0
C1048 C 0.53371 0.30977 0.72526 0.0
C1049 C 0.53216 0.30234 0.69984 0.0
C1050 C 0.51532 0.30861 0.7364 0.0
C1051 C 0.4948 0.29975 0.72184 0.0
C1052 C 0.49314 0.29232 0.69615 0.0
C1053 C 0.5118 0.29372 0.68548 0.0
C1054 C 0.51787 0.31676 0.76383 0.0
C1055 C 0.47164 0.28273 0.67992 0.0
C1056 C 0.44906 0.27557 0.75481 0.0
C1057 C 0.43842 0.29474 0.75696 0.0
C1058 C 0.46722 0.27688 0.74325 0.0
C1059 C 0.47512 0.29791 0.73358 0.0
C1060 C 0.46436 0.31726 0.73545 0.0
C1061 C 0.44619 0.31544 0.74706 0.0
C1062 C 0.47815 0.25583 0.74172 0.0
C1063 C 0.47215 0.33998 0.72534 0.0
H1064 H 0.54935 0.31649 0.73651 0.0
H1065 H 0.51041 0.28794 0.66583 0.0
H1066 H 0.50888 0.33116 0.76718 0.0
H1067 H 0.51106 0.30174 0.77314 0.0
H1068 H 0.53488 0.3235 0.77251 0.0
H1069 H 0.47301 0.278 0.66023 0.0
H1070 H 0.46338 0.26659 0.68653 0.0
H1071 H 0.46138 0.29618 0.68108 0.0
H1072 H 0.4435 0.25963 0.76271 0.0
H1073 H 0.438 0.33026 0.74828 0.0
H1074 H 0.4948 0.26123 0.75192 0.0
H1075 H 0.47904 0.24976 0.72217 0.0
H1076 H 0.46972 0.24053 0.74952 0.0
H1077 H 0.48875 0.34812 0.73462 0.0
H1078 H 0.46191 0.3533 0.72799 0.0
H1079 H 0.47251 0.33595 0.7053 0.0
C1080 C 0.1028 0.82949 0.68584 0.0
C1081 C 0.09262 0.80827 0.6703 0.0
C1082 C 0.10684 0.85112 0.67626 0.0
C1083 C 0.10013 0.85138 0.65075 0.0
C1084 C 0.09158 0.82968 0.63474 0.0
C1085 C 0.08809 0.80831 0.64473 0.0
C1086 C 0.11667 0.87385 0.69373 0.0
C1087 C 0.08414 0.82921 0.60741 0.0
C1088 C 0.07566 0.90199 0.63018 0.0
C1089 C 0.09077 0.91277 0.61695 0.0
C1090 C 0.07907 0.88265 0.64231 0.0
C1091 C 0.09824 0.87417 0.64147 0.0
C1092 C 0.11418 0.88594 0.62945 0.0
C1093 C 0.11011 0.90501 0.61698 0.0
C1094 C 0.06154 0.8704 0.65469 0.0
C1095 C 0.13504 0.87777 0.62881 0.0
H1096 H 0.10666 0.82941 0.70561 0.0
H1097 H 0.08045 0.79186 0.63264 0.0
H1098 H 0.12812 0.88587 0.68523 0.0
H1099 H 0.1039 0.88347 0.69785 0.0
H1100 H 0.1251 0.87018 0.71148 0.0
H1101 H 0.08015 0.81078 0.59716 0.0
H1102 H 0.06965 0.8371 0.60473 0.0
H1103 H 0.09657 0.8401 0.59918 0.0
H1104 H 0.06062 0.9079 0.62993 0.0
H1105 H 0.12186 0.91356 0.60688 0.0
H1106 H 0.06797 0.86906 0.67413 0.0
H1107 H 0.05519 0.85194 0.64498 0.0
H1108 H 0.04807 0.87996 0.65464 0.0
H1109 H 0.14157 0.87367 0.64721 0.0
H1110 H 0.14717 0.89142 0.62305 0.0
H1111 H 0.13229 0.86115 0.61547 0.0
C1112 C 0.47613 0.83165 0.81668 0.0
C1113 C 0.48136 0.81903 0.83621 0.0
C1114 C 0.45469 0.83024 0.80622 0.0
C1115 C 0.43828 0.81635 0.81598 0.0
C1116 C 0.44355 0.80351 0.83561 0.0
C1117 C 0.46504 0.8048 0.8453 0.0
C1118 C 0.44957 0.84372 0.78491 0.0
C1119 C 0.42646 0.78868 0.84668 0.0
C1120 C 0.382 0.82798 0.80894 0.0
C1121 C 0.37092 0.80831 0.79171 0.0
C1122 C 0.40421 0.83144 0.81631 0.0
C1123 C 0.41549 0.81503 0.80586 0.0
C1124 C 0.4045 0.79583 0.78756 0.0
C1125 C 0.38231 0.79259 0.78085 0.0
C1126 C 0.4154 0.85187 0.83623 0.0
C1127 C 0.41605 0.7782 0.77572 0.0
H1128 H 0.48877 0.84264 0.80964 0.0
H1129 H 0.46904 0.79517 0.86054 0.0
H1130 H 0.43948 0.83128 0.76897 0.0
H1131 H 0.44026 0.85725 0.79037 0.0
H1132 H 0.46421 0.8529 0.77882 0.0
H1133 H 0.4333 0.78015 0.86221 0.0
H1134 H 0.41582 0.80006 0.8536 0.0
H1135 H 0.41638 0.77446 0.83231 0.0
H1136 H 0.37324 0.84012 0.81741 0.0
H1137 H 0.37386 0.77746 0.76732 0.0
H1138 H 0.42952 0.86231 0.83028 0.0
H1139 H 0.4213 0.84469 0.85318 0.0
H1140 H 0.40468 0.86411 0.841 0.0
H1141 H 0.42888 0.78778 0.76699 0.0
H1142 H 0.40515 0.76448 0.76146 0.0
H1143 H 0.4238 0.76897 0.79 0.0
C1144 C 0.60325 0.19179 0.17711 0.0
C1145 C 0.5835 0.19337 0.18419 0.0
C1146 C 0.60511 0.17279 0.15986 0.0
C1147 C 0.58667 0.15538 0.14908 0.0
C1148 C 0.56682 0.15647 0.15679 0.0
C1149 C 0.56553 0.17538 0.1745 0.0
C1150 C 0.62665 0.17174 0.15267 0.0
C1151 C 0.54673 0.13826 0.14556 0.0
C1152 C 0.5808 0.12239 0.08451 0.0
C1153 C 0.58106 0.0991 0.08949 0.0
C1154 C 0.58376 0.14129 0.10387 0.0
C1155 C 0.58763 0.13677 0.12865 0.0
C1156 C 0.59002 0.11375 0.13366 0.0
C1157 C 0.58642 0.09508 0.11397 0.0
C1158 C 0.5809 0.16558 0.09779 0.0
C1159 C 0.59479 0.10839 0.15981 0.0
H1160 H 0.61722 0.20562 0.18481 0.0
H1161 H 0.55025 0.17664 0.17995 0.0
H1162 H 0.63018 0.15368 0.15368 0.0
H1163 H 0.62645 0.17511 0.13325 0.0
H1164 H 0.63977 0.18513 0.16471 0.0
H1165 H 0.53269 0.14142 0.15396 0.0
H1166 H 0.54306 0.13883 0.12538 0.0
H1167 H 0.54913 0.12 0.14795 0.0
H1168 H 0.57664 0.12557 0.06559 0.0
H1169 H 0.58659 0.07709 0.11789 0.0
H1170 H 0.59434 0.1797 0.10807 0.0
H1171 H 0.56599 0.16946 0.10362 0.0
H1172 H 0.57985 0.16667 0.0777 0.0
H1173 H 0.6073 0.12284 0.17129 0.0
H1174 H 0.60015 0.09115 0.16041 0.0
H1175 H 0.58014 0.10733 0.16828 0.0
C1176 C 0.09652 0.3283 0.31973 0.0
C1177 C 0.10329 0.33162 0.34544 0.0
C1178 C 0.10933 0.32003 0.30354 0.0
C1179 C 0.12906 0.31457 0.31341 0.0
C1180 C 0.13667 0.31973 0.3392 0.0
C1181 C 0.12375 0.32837 0.35489 0.0
C1182 C 0.10132 0.31606 0.27603 0.0
C1183 C 0.15789 0.31467 0.35043 0.0
C1184 C 0.15101 0.26358 0.28492 0.0
C1185 C 0.17016 0.27582 0.27919 0.0
C1186 C 0.13655 0.27603 0.29447 0.0
C1187 C 0.14095 0.30131 0.29747 0.0
C1188 C 0.15879 0.31361 0.28877 0.0
C1189 C 0.1734 0.30078 0.28015 0.0
C1190 C 0.11765 0.26216 0.30349 0.0
C1191 C 0.16361 0.34045 0.29038 0.0
H1192 H 0.0808 0.33109 0.31232 0.0
H1193 H 0.12916 0.33114 0.37473 0.0
H1194 H 0.11428 0.32329 0.26607 0.0
H1195 H 0.09633 0.29663 0.26937 0.0
H1196 H 0.08746 0.32458 0.27115 0.0
H1197 H 0.16167 0.32021 0.37078 0.0
H1198 H 0.15767 0.29526 0.34653 0.0
H1199 H 0.17092 0.32421 0.34198 0.0
H1200 H 0.14789 0.24427 0.28337 0.0
H1201 H 0.18804 0.31063 0.27581 0.0
H1202 H 0.10278 0.26811 0.29649 0.0
H1203 H 0.12018 0.26559 0.324 0.0
H1204 H 0.11531 0.24261 0.29765 0.0
H1205 H 0.14916 0.3482 0.2911 0.0
H1206 H 0.17071 0.34584 0.27421 0.0
H1207 H 0.17546 0.34819 0.30732 0.0
C1208 C 0.96951 0.02946 0.20261 0.0
C1209 C 0.98147 0.02363 0.22357 0.0
C1210 C 0.97895 0.03506 0.18208 0.0
C1211 C 1.00078 0.03438 0.1823 0.0
C1212 C 1.0129 0.02833 0.20336 0.0
C1213 C 1.00314 0.02325 0.22385 0.0
C1214 C 0.96555 0.04173 0.16015 0.0
C1215 C 0.03612 0.02696 0.20411 0.0
C1216 C 0.01944 0.02414 0.12061 0.0
C1217 C 0.03084 0.04693 0.11879 0.0
C1218 C 1.00955 0.01988 0.14111 0.0
C1219 C 1.0107 0.03899 0.1601 0.0
C1220 C 0.02156 0.06225 0.15798 0.0
C1221 C 0.03168 0.06592 0.13739 0.0
C1222 C 0.99836 0.99477 0.14273 0.0
C1223 C 0.02276 0.08315 0.17762 0.0
H1224 H 0.95279 0.03004 0.2024 0.0
H1225 H 1.01244 0.01879 0.24002 0.0
H1226 H 0.97319 0.05943 0.15604 0.0
H1227 H 0.96455 0.02857 0.14351 0.0
H1228 H 0.94906 0.04244 0.16332 0.0
H1229 H 0.04334 0.02211 0.22189 0.0
H1230 H 0.03764 1.01347 0.1888 0.0
H1231 H 0.04545 0.04439 0.20137 0.0
H1232 H 0.01878 1.00935 0.1063 0.0
H1233 H 0.04044 0.08355 0.13598 0.0
H1234 H 0.98141 0.99441 0.14448 0.0
H1235 H 1.006 0.98861 0.15952 0.0
H1236 H 0.99883 0.98192 0.12631 0.0
H1237 H 1.00643 0.08472 0.18071 0.0
H1238 H 0.03082 0.10029 0.1726 0.0
H1239 H 0.03165 0.0802 0.1954 0.0
C1240 C 0.32221 0.71275 0.52137 0.0
C1241 C 0.31486 0.70267 0.54121 0.0
C1242 C 0.31007 0.72576 0.50729 0.0
C1243 C 0.29014 0.72906 0.51343 0.0
C1244 C 0.28304 0.71991 0.53419 0.0
C1245 C 0.29544 0.70654 0.54777 0.0
C1246 C 0.31836 0.7353 0.48532 0.0
C1247 C 0.26212 0.72342 0.54165 0.0
C1248 C 0.27627 0.77717 0.47816 0.0
C1249 C 0.26643 0.76333 0.45543 0.0
C1250 C 0.28131 0.76624 0.49907 0.0
C1251 C 0.2767 0.74104 0.49686 0.0
C1252 C 0.26381 0.72741 0.47517 0.0
C1253 C 0.25871 0.7388 0.45464 0.0
C1254 C 0.29417 0.78143 0.52235 0.0
C1255 C 0.25803 0.70051 0.47235 0.0
H1256 H 0.33728 0.70989 0.51633 0.0
H1257 H 0.28978 0.69886 0.56323 0.0
H1258 H 0.30693 0.72746 0.46806 0.0
H1259 H 0.31985 0.75496 0.48727 0.0
H1260 H 0.33422 0.73119 0.48323 0.0
H1261 H 0.26209 0.7219 0.56152 0.0
H1262 H 0.25869 0.74106 0.5381 0.0
H1263 H 0.24895 0.70941 0.53065 0.0
H1264 H 0.28206 0.79621 0.47908 0.0
H1265 H 0.25042 0.72817 0.43729 0.0
H1266 H 0.31141 0.78162 0.52251 0.0
H1267 H 0.28973 0.77406 0.53905 0.0
H1268 H 0.29186 0.80016 0.52341 0.0
H1269 H 0.27227 0.69308 0.46916 0.0
H1270 H 0.24493 0.69302 0.45648 0.0
H1271 H 0.25309 0.69452 0.48942 0.0
C1272 C 0.64334 1.00159 0.72273 0.0
C1273 C 0.64106 1.01554 0.7446 0.0
C1274 C 0.6318 1.00302 0.69885 0.0
C1275 C 0.61768 0.01933 0.69581 0.0
C1276 C 0.61567 0.03375 0.7178 0.0
C1277 C 0.62696 0.03151 0.7415 0.0
C1278 C 0.63447 0.98662 0.67675 0.0
C1279 C 0.6015 0.05184 0.71633 0.0
C1280 C 0.59852 0.03657 0.63003 0.0
C1281 C 0.57721 0.02365 0.62355 0.0
C1282 C 0.61182 0.03528 0.65299 0.0
C1283 C 0.60416 0.02035 0.67025 0.0
C1284 C 0.58293 1.0067 0.66317 0.0
C1285 C 0.56993 1.00878 0.64059 0.0
C1286 C 0.63395 0.05067 0.65918 0.0
C1287 C 0.57364 0.98991 0.67974 0.0
H1288 H 0.65404 0.98916 0.72429 0.0
H1289 H 0.62494 0.04273 0.75776 0.0
H1290 H 0.61876 0.9752 0.6681 0.0
H1291 H 0.64028 0.99723 0.66262 0.0
H1292 H 0.64587 0.97492 0.68174 0.0
H1293 H 0.60267 0.06301 0.73444 0.0
H1294 H 0.60588 0.06371 0.70257 0.0
H1295 H 0.5846 0.04258 0.70997 0.0
H1296 H 0.60459 0.04849 0.61768 0.0
H1297 H 0.55362 0.99865 0.63632 0.0
H1298 H 0.64596 0.03955 0.6635 0.0
H1299 H 0.63504 0.06372 0.67596 0.0
H1300 H 0.63813 0.06059 0.64384 0.0
H1301 H 0.58457 0.97768 0.68452 0.0
H1302 H 0.5577 0.97904 0.67101 0.0
H1303 H 0.57197 1.00026 0.6973 0.0
C1304 C 0.32528 0.34975 0.00872 0.0
C1305 C 0.32592 0.37442 0.01243 0.0
C1306 C 0.32235 0.33703 0.98472 0.0
C1307 C 0.32012 0.34928 0.96389 0.0
C1308 C 0.32062 0.37416 0.96756 0.0
C1309 C 0.32345 0.38639 0.99172 0.0
C1310 C 0.32181 0.31052 0.98165 0.0
C1311 C 0.31844 0.38797 0.94594 0.0
C1312 C 0.33432 0.32359 0.90322 0.0
C1313 C 0.3141 0.31411 0.88878 0.0
C1314 C 0.33648 0.33468 0.92773 0.0
C1315 C 0.31798 0.33632 0.93829 0.0
C1316 C 0.29752 0.32632 0.92405 0.0
C1317 C 0.29582 0.31541 0.89949 0.0
C1318 C 0.3586 0.34515 0.94216 0.0
C1319 C 0.27739 0.32754 0.93462 0.0
H1320 H 0.3271 0.34035 0.0246 0.0
H1321 H 0.32392 0.40544 0.9944 0.0
H1322 H 0.30676 0.30078 0.96957 0.0
H1323 H 0.33522 0.30661 0.97247 0.0
H1324 H 0.32304 0.30347 0.99962 0.0
H1325 H 0.31874 0.40715 0.95187 0.0
H1326 H 0.33165 0.38667 0.93539 0.0
H1327 H 0.30323 0.38015 0.93313 0.0
H1328 H 0.34859 0.32276 0.89524 0.0
H1329 H 0.28011 0.30813 0.88861 0.0
H1330 H 0.36094 0.33753 0.95971 0.0
H1331 H 0.36042 0.36474 0.9471 0.0
H1332 H 0.37139 0.34175 0.9316 0.0
H1333 H 0.27798 0.31966 0.95209 0.0
H1334 H 0.26275 0.31801 0.92159 0.0
H1335 H 0.27618 0.34647 0.93916 0.0
C1336 C 0.9754 0.03034 0.37825 0.0
C1337 C 0.9856 0.02334 0.3587 0.0
C1338 C 0.98552 0.03283 0.40293 0.0
C1339 C 1.00647 0.02848 0.40826 0.0
C1340 C 1.01695 0.02159 0.38861 0.0
C1341 C 1.00633 0.01895 0.36402 0.0
C1342 C 0.97368 0.03996 0.42334 0.0
C1343 C 0.03938 0.01704 0.39357 0.0
C1344 C 0.03718 0.05599 0.47221 0.0
C1345 C 0.03427 0.0365 0.48542 0.0
C1346 C 0.02887 0.05345 0.44687 0.0
C1347 C 0.01718 0.03094 0.43448 0.0
C1348 C 1.01457 1.01111 0.4476 0.0
C1349 C 0.02323 1.0141 0.47287 0.0
C1350 C 0.03217 0.07499 0.4335 0.0
C1351 C 1.00202 0.98688 0.43514 0.0
H1352 H 0.95935 0.03368 0.37427 0.0
H1353 H 1.0143 1.01361 0.34896 0.0
H1354 H 0.9722 0.02605 0.43572 0.0
H1355 H 0.9828 0.05682 0.43477 0.0
H1356 H 0.95741 0.04254 0.41608 0.0
H1357 H 0.04545 1.01224 0.37624 0.0
H1358 H 0.05037 0.03317 0.40436 0.0
H1359 H 0.03981 1.00232 0.40489 0.0
H1360 H 0.04581 0.07334 0.48172 0.0
H1361 H 0.02088 0.99897 0.48294 0.0
H1362 H 1.01653 0.07971 0.4273 0.0
H1363 H 0.03917 0.07084 0.41673 0.0
H1364 H 0.04282 0.0908 0.44536 0.0
H1365 H 0.98512 0.98796 0.42897 0.0
H1366 H 1.00236 0.97302 0.4476 0.0
H1367 H 1.00849 0.98111 0.41843 0.0
C1368 C 0.36343 0.69879 0.66262 0.0
C1369 C 0.36573 0.70493 0.63917 0.0
C1370 C 0.35822 0.71497 0.68061 0.0
C1371 C 0.35443 0.73724 0.67447 0.0
C1372 C 0.35819 0.74408 0.65141 0.0
C1373 C 0.36428 0.72799 0.63424 0.0
C1374 C 0.35548 0.7077 0.70556 0.0
C1375 C 0.35364 0.76732 0.64381 0.0
C1376 C 0.3115 0.76193 0.70277 0.0
C1377 C 0.32366 0.78173 0.71891 0.0
C1378 C 0.32138 0.74723 0.68821 0.0
C1379 C 0.344 0.75209 0.69065 0.0
C1380 C 0.35636 0.77185 0.70737 0.0
C1381 C 0.34596 0.78685 0.72083 0.0
C1382 C 0.3076 0.72677 0.66995 0.0
C1383 C 0.38049 0.77701 0.71115 0.0
H1384 H 0.36464 0.68096 0.66643 0.0
H1385 H 0.36584 0.73269 0.61601 0.0
H1386 H 0.36449 0.72206 0.7205 0.0
H1387 H 0.33838 0.70509 0.70753 0.0
H1388 H 0.36105 0.69087 0.70824 0.0
H1389 H 0.33616 0.76665 0.64141 0.0
H1390 H 0.36146 0.78255 0.65833 0.0
H1391 H 0.35914 0.77084 0.62616 0.0
H1392 H 0.29424 0.75817 0.70133 0.0
H1393 H 0.35533 0.80223 0.73342 0.0
H1394 H 0.31134 0.70958 0.67458 0.0
H1395 H 0.31105 0.72852 0.65104 0.0
H1396 H 0.29025 0.72603 0.66972 0.0
H1397 H 0.3865 0.76105 0.71628 0.0
H1398 H 0.38775 0.7924 0.72579 0.0
H1399 H 0.38607 0.78091 0.69369 0.0
C1400 C 0.65478 0.0407 0.90431 0.0
C1401 C 0.64779 0.0216 0.88452 0.0
C1402 C 0.64419 0.04316 0.92542 0.0
C1403 C 0.62592 0.02592 0.92808 0.0
C1404 C 0.61898 1.00639 0.90832 0.0
C1405 C 0.6296 1.00465 0.88713 0.0
C1406 C 0.65253 0.06466 0.94496 0.0
C1407 C 0.60016 0.98699 0.90958 0.0
C1408 C 0.60925 0.02245 0.99431 0.0
C1409 C 0.59142 0.03368 0.99381 0.0
C1410 C 0.62026 0.01968 0.97354 0.0
C1411 C 0.61401 0.02856 0.95093 0.0
C1412 C 0.59617 0.04011 0.95047 0.0
C1413 C 0.58523 0.04225 0.97129 0.0
C1414 C 0.63859 1.00676 0.97576 0.0
C1415 C 0.58853 0.05048 0.92773 0.0
H1416 H 0.66858 0.0542 0.90317 0.0
H1417 H 0.62364 0.98965 0.87254 0.0
H1418 H 0.63968 0.0748 0.94706 0.0
H1419 H 0.65732 0.05885 0.96308 0.0
H1420 H 0.66648 0.0768 0.94047 0.0
H1421 H 0.59717 0.9723 0.89383 0.0
H1422 H 0.60293 0.97941 0.92712 0.0
H1423 H 0.58556 0.99459 0.90956 0.0
H1424 H 0.61453 1.01536 0.01096 0.0
H1425 H 0.57167 0.05096 0.96989 0.0
H1426 H 0.65333 0.01856 0.97271 0.0
H1427 H 0.63504 0.99092 0.96124 0.0
H1428 H 0.64176 1.00078 0.99415 0.0
H1429 H 0.60191 0.06339 0.92315 0.0
H1430 H 0.57514 0.05973 0.93014 0.0
H1431 H 0.58311 0.03609 0.9117 0.0
C1432 C 0.33711 0.38966 0.17102 0.0
C1433 C 0.33315 0.37699 0.14699 0.0
C1434 C 0.33427 0.3778 0.19169 0.0
C1435 C 0.32722 0.35263 0.18834 0.0
C1436 C 0.32394 0.33971 0.16421 0.0
C1437 C 0.32695 0.35199 0.14391 0.0
C1438 C 0.33801 0.39234 0.21701 0.0
C1439 C 0.31636 0.31292 0.15965 0.0
C1440 C 0.32884 0.31705 0.24326 0.0
C1441 C 0.3076 0.31411 0.24723 0.0
C1442 C 0.33569 0.32995 0.22451 0.0
C1443 C 0.32095 0.34011 0.20944 0.0
C1444 C 0.29965 0.33758 0.21391 0.0
C1445 C 0.29331 0.32471 0.23265 0.0
C1446 C 0.35856 0.33232 0.22051 0.0
C1447 C 0.28333 0.34807 0.19852 0.0
H1448 H 0.34199 0.40895 0.17364 0.0
H1449 H 0.32392 0.34199 0.12547 0.0
H1450 H 0.32253 0.39183 0.22363 0.0
H1451 H 0.34834 0.38462 0.23046 0.0
H1452 H 0.3456 0.4113 0.21696 0.0
H1453 H 0.31632 0.30526 0.14025 0.0
H1454 H 0.32669 0.30437 0.17223 0.0
H1455 H 0.29987 0.30826 0.16369 0.0
H1456 H 0.33998 0.30895 0.25447 0.0
H1457 H 0.2769 0.32271 0.23571 0.0
H1458 H 0.36593 0.35139 0.22087 0.0
H1459 H 0.35899 0.32286 0.202 0.0
H1460 H 0.36837 0.32482 0.23472 0.0
H1461 H 0.28917 0.36756 0.19927 0.0
H1462 H 0.26761 0.34515 0.20483 0.0
H1463 H 0.28097 0.3399 0.17888 0.0
C1464 C 0.23886 0.92706 0.05744 0.0
C1465 C 0.24345 0.92729 0.0334 0.0
C1466 C 0.22223 0.93726 0.06465 0.0
C1467 C 0.20995 0.94782 0.04733 0.0
C1468 C 0.21329 0.94619 0.02246 0.0
C1469 C 0.23009 0.93594 0.01577 0.0
C1470 C 0.219 0.93847 0.09128 0.0
C1471 C 0.20021 0.95691 1.00339 0.0
C1472 C 0.16073 0.96997 0.0617 0.0
C1473 C 0.16892 0.99461 0.06805 0.0
C1474 C 0.17398 0.95427 0.05554 0.0
C1475 C 0.19589 0.96349 0.0559 0.0
C1476 C 0.20444 0.98816 0.06343 0.0
C1477 C 0.19081 1.00345 0.06933 0.0
C1478 C 0.16435 0.92805 0.04772 0.0
C1479 C 0.22785 0.99858 0.06436 0.0
H1480 H 0.24903 0.92012 0.07108 0.0
H1481 H 0.23348 0.93592 0.99711 0.0
H1482 H 0.22532 0.95696 0.10089 0.0
H1483 H 0.20175 0.93397 0.09245 0.0
H1484 H 0.22737 0.92621 0.10127 0.0
H1485 H 0.20288 0.95141 0.98434 0.0
H1486 H 0.18291 0.9516 1.00407 0.0
H1487 H 0.20462 0.97669 1.00751 0.0
H1488 H 0.14385 0.96301 0.06107 0.0
H1489 H 0.19717 0.02248 0.07398 0.0
H1490 H 0.17426 0.9169 0.05734 0.0
H1491 H 0.16397 0.92343 0.02758 0.0
H1492 H 0.14778 0.92332 0.05155 0.0
H1493 H 0.23792 0.98892 0.07593 0.0
H1494 H 0.23213 0.01788 0.07197 0.0
H1495 H 0.23184 0.99639 0.04546 0.0
C1496 C 0.70307 0.63226 0.05756 0.0
C1497 C 0.71207 0.62904 0.03604 0.0
C1498 C 0.6829 0.61895 0.05944 0.0
C1499 C 0.67107 0.60217 0.03915 0.0
C1500 C 0.67986 0.59919 0.01714 0.0
C1501 C 0.70031 0.61246 0.01593 0.0
C1502 C 0.67446 0.6225 0.08342 0.0
C1503 C 0.66772 0.58181 0.99492 0.0
C1504 C 0.62982 0.55025 0.05195 0.0
C1505 C 0.61058 0.55816 0.04668 0.0
C1506 C 0.64951 0.56443 0.04975 0.0
C1507 C 0.65005 0.58696 0.04148 0.0
C1508 C 0.63057 0.59497 0.03596 0.0
C1509 C 0.61111 0.58056 0.0388 0.0
C1510 C 0.66979 0.55529 0.05638 0.0
C1511 C 0.63024 0.61862 0.02668 0.0
H1512 H 0.71202 0.64495 0.07325 0.0
H1513 H 0.70704 0.60993 0.99919 0.0
H1514 H 0.65862 0.62753 0.07999 0.0
H1515 H 0.67219 0.6055 0.09134 0.0
H1516 H 0.6854 0.63653 0.09733 0.0
H1517 H 0.67608 0.58259 0.97872 0.0
H1518 H 0.66553 0.56334 0.99955 0.0
H1519 H 0.65155 0.58561 0.98965 0.0
H1520 H 0.6295 0.53291 0.05797 0.0
H1521 H 0.59624 0.5865 0.03416 0.0
H1522 H 0.68103 0.56821 0.07107 0.0
H1523 H 0.67787 0.55361 0.04004 0.0
H1524 H 0.66673 0.53764 0.06298 0.0
H1525 H 0.64036 0.63334 0.04045 0.0
H1526 H 0.61382 0.6222 0.02299 0.0
H1527 H 0.63708 0.61887 0.00938 0.0
C1528 C 0.70532 0.51248 0.35729 0.0
C1529 C 0.68757 0.5105 0.3387 0.0
C1530 C 0.71728 0.49449 0.35806 0.0
C1531 C 0.71153 0.47427 0.33952 0.0
C1532 C 0.69295 0.47159 0.32145 0.0
C1533 C 0.68106 0.48972 0.32137 0.0
C1534 C 0.73677 0.4978 0.37789 0.0
C1535 C 0.68643 0.45038 0.30126 0.0
C1536 C 0.75837 0.44855 0.32299 0.0
C1537 C 0.75666 0.42824 0.3349 0.0
C1538 C 0.74339 0.46325 0.32382 0.0
C1539 C 0.72648 0.45768 0.33725 0.0
C1540 C 0.72455 0.43701 0.34917 0.0
C1541 C 0.73963 0.42235 0.34765 0.0
C1542 C 0.74582 0.48493 0.31055 0.0
C1543 C 0.70692 0.43074 0.36395 0.0
H1544 H 0.71023 0.52842 0.3709 0.0
H1545 H 0.6673 0.48816 0.307 0.0
H1546 H 0.73695 0.48126 0.38642 0.0
H1547 H 0.75143 0.50147 0.36949 0.0
H1548 H 0.73746 0.51285 0.39267 0.0
H1549 H 0.67028 0.44949 0.29052 0.0
H1550 H 0.69814 0.45159 0.28836 0.0
H1551 H 0.68654 0.43349 0.30915 0.0
H1552 H 0.77142 0.45285 0.31284 0.0
H1553 H 0.73841 0.40662 0.35689 0.0
H1554 H 0.74881 0.50141 0.32414 0.0
H1555 H 0.73084 0.48457 0.29765 0.0
H1556 H 0.75921 0.486 0.29988 0.0
H1557 H 0.70865 0.44502 0.37982 0.0
H1558 H 0.70711 0.4135 0.37116 0.0
H1559 H 0.69111 0.42963 0.3524 0.0
C1560 C 0.8023 0.47162 0.51573 0.0
C1561 C 0.79323 0.45622 0.49372 0.0
C1562 C 0.82345 0.48437 0.5191 0.0
C1563 C 0.83564 0.48134 0.50009 0.0
C1564 C 0.8256 0.46837 0.47673 0.0
C1565 C 0.8044 0.45599 0.47379 0.0
C1566 C 0.83342 0.49876 0.54397 0.0
C1567 C 0.83795 0.46502 0.45582 0.0
C1568 C 0.89397 0.51087 0.50466 0.0
C1569 C 0.90404 0.49253 0.51195 0.0
C1570 C 0.87164 0.50812 0.50179 0.0
C1571 C 0.85929 0.4865 0.5062 0.0
C1572 C 0.86955 0.46849 0.51478 0.0
C1573 C 0.8918 0.47178 0.51761 0.0
C1574 C 0.8613 0.52782 0.49292 0.0
C1575 C 0.85699 0.44521 0.51997 0.0
H1576 H 0.79355 0.47222 0.53104 0.0
H1577 H 0.79727 0.44446 0.45654 0.0
H1578 H 0.84257 0.4879 0.55508 0.0
H1579 H 0.84474 0.51514 0.54188 0.0
H1580 H 0.82109 0.50394 0.55439 0.0
H1581 H 0.82717 0.45803 0.43787 0.0
H1582 H 0.84838 0.4821 0.45398 0.0
H1583 H 0.84839 0.45211 0.45985 0.0
H1584 H 0.90346 0.52693 0.50025 0.0
H1585 H 0.89964 0.45783 0.52374 0.0
H1586 H 0.8476 0.53 0.50237 0.0
H1587 H 0.85508 0.52321 0.4728 0.0
H1588 H 0.87289 0.54515 0.496 0.0
H1589 H 0.84641 0.44875 0.53349 0.0
H1590 H 0.86752 0.4335 0.52744 0.0
H1591 H 0.84665 0.43537 0.50268 0.0
C1592 C 0.37643 0.12155 0.30938 0.0
C1593 C 0.39271 0.11944 0.295 0.0
C1594 C 0.36594 0.14174 0.31072 0.0
C1595 C 0.37078 0.16107 0.2968 0.0
C1596 C 0.38704 0.15888 0.282 0.0
C1597 C 0.39774 0.13884 0.2816 0.0
C1598 C 0.34969 0.14252 0.32765 0.0
C1599 C 0.39323 0.17786 0.26618 0.0
C1600 C 0.32803 0.20244 0.28402 0.0
C1601 C 0.33662 0.22436 0.29989 0.0
C1602 C 0.33884 0.1825 0.28254 0.0
C1603 C 0.35902 0.18312 0.29774 0.0
C1604 C 0.36769 0.20517 0.3139 0.0
C1605 C 0.35683 0.22506 0.31451 0.0
C1606 C 0.32858 0.1606 0.26415 0.0
C1607 C 0.38867 0.20784 0.33104 0.0
H1608 H 0.372 0.10739 0.32017 0.0
H1609 H 0.41005 0.13825 0.27027 0.0
H1610 H 0.35399 0.15959 0.34053 0.0
H1611 H 0.33373 0.14187 0.31665 0.0
H1612 H 0.34849 0.12745 0.33864 0.0
H1613 H 0.40354 0.1724 0.25305 0.0
H1614 H 0.37873 0.18203 0.25553 0.0
H1615 H 0.40209 0.19452 0.27816 0.0
H1616 H 0.31271 0.20084 0.27228 0.0
H1617 H 0.36424 0.24132 0.32699 0.0
H1618 H 0.32425 0.14515 0.27404 0.0
H1619 H 0.34011 0.15609 0.25217 0.0
H1620 H 0.31394 0.16305 0.25224 0.0
H1621 H 0.38839 0.19239 0.34145 0.0
H1622 H 0.3924 0.22456 0.34443 0.0
H1623 H 0.40178 0.20804 0.32009 0.0
C1624 C 0.32715 0.11273 0.53162 0.0
C1625 C 0.32989 0.13736 0.53934 0.0
C1626 C 0.34478 0.10132 0.53275 0.0
C1627 C 0.36574 0.11478 0.54188 0.0
C1628 C 0.36859 0.13968 0.54951 0.0
C1629 C 0.35071 0.15063 0.54812 0.0
C1630 C 0.34094 0.07477 0.52438 0.0
C1631 C 0.39055 0.15477 0.55944 0.0
C1632 C 0.40841 0.0821 0.56847 0.0
C1633 C 0.42016 0.07966 0.54912 0.0
C1634 C 0.39082 0.09348 0.56635 0.0
C1635 C 0.38458 0.10272 0.54429 0.0
C1636 C 0.39645 0.10052 0.52474 0.0
C1637 C 0.4141 0.08913 0.52741 0.0
C1638 C 0.37887 0.0956 0.5878 0.0
C1639 C 0.39038 0.11 0.50087 0.0
H1640 H 0.31117 0.10231 0.52476 0.0
H1641 H 0.35305 0.16966 0.55411 0.0
H1642 H 0.35054 0.07105 0.50982 0.0
H1643 H 0.34624 0.06561 0.5401 0.0
H1644 H 0.32383 0.06695 0.51699 0.0
H1645 H 0.39018 0.17397 0.56405 0.0
H1646 H 0.39766 0.14839 0.57635 0.0
H1647 H 0.40127 0.15301 0.54566 0.0
H1648 H 0.41311 0.07525 0.58549 0.0
H1649 H 0.42289 0.0872 0.51226 0.0
H1650 H 0.36185 0.08661 0.58183 0.0
H1651 H 0.3792 0.11468 0.59413 0.0
H1652 H 0.38574 0.08758 0.60371 0.0
H1653 H 0.37378 0.10119 0.49218 0.0
H1654 H 0.40123 0.10702 0.48747 0.0
H1655 H 0.39075 0.12943 0.50467 0.0
C1656 C 0.69799 0.6559 0.33856 0.0
C1657 C 0.70229 0.63349 0.33074 0.0
C1658 C 0.71301 0.67702 0.33863 0.0
C1659 C 0.73264 0.67559 0.33051 0.0
C1660 C 0.73701 0.65298 0.32266 0.0
C1661 C 0.72184 0.63226 0.32297 0.0
C1662 C 0.70788 0.70084 0.34725 0.0
C1663 C 0.75762 0.65066 0.31358 0.0
C1664 C 0.76384 0.72693 0.30492 0.0
C1665 C 0.7811 0.73577 0.32424 0.0
C1666 C 0.74748 0.70797 0.30712 0.0
C1667 C 0.74843 0.69759 0.32921 0.0
C1668 C 0.76554 0.70693 0.34909 0.0
C1669 C 0.7818 0.72587 0.3463 0.0
C1670 C 0.72966 0.69843 0.28539 0.0
C1671 C 0.76698 0.69649 0.37302 0.0
H1672 H 0.68293 0.65694 0.34468 0.0
H1673 H 0.72527 0.615 0.31688 0.0
H1674 H 0.7205 0.7108 0.36263 0.0
H1675 H 0.70764 0.71187 0.332 0.0
H1676 H 0.69218 0.6989 0.35362 0.0
H1677 H 0.75866 0.63174 0.30839 0.0
H1678 H 0.75901 0.66004 0.29721 0.0
H1679 H 0.77151 0.65925 0.32812 0.0
H1680 H 0.7634 0.73441 0.28772 0.0
H1681 H 0.7951 0.73282 0.36129 0.0
H1682 H 0.71388 0.69756 0.29135 0.0
H1683 H 0.73057 0.67997 0.27796 0.0
H1684 H 0.73045 0.70957 0.27024 0.0
H1685 H 0.7517 0.69547 0.38019 0.0
H1686 H 0.78017 0.70713 0.38742 0.0
H1687 H 0.76971 0.678 0.36967 0.0
C1688 C 0.86681 0.47771 0.78685 0.0
C1689 C 0.88917 0.48398 0.7879 0.0
C1690 C 0.85609 0.45385 0.7882 0.0
C1691 C 0.86767 0.4351 0.79082 0.0
C1692 C 0.89021 0.44137 0.7917 0.0
C1693 C 0.90048 0.46528 0.79023 0.0
C1694 C 0.83219 0.44873 0.78702 0.0
C1695 C 0.90371 0.42274 0.79454 0.0
C1696 C 0.84408 0.37842 0.81897 0.0
C1697 C 0.83642 0.36047 0.79827 0.0
C1698 C 0.85396 0.4023 0.81679 0.0
C1699 C 0.85651 0.40931 0.79326 0.0
C1700 C 0.84871 0.3913 0.77225 0.0
C1701 C 0.83897 0.36748 0.77497 0.0
C1702 C 0.86183 0.42013 0.83998 0.0
C1703 C 0.85068 0.39719 0.74664 0.0
H1704 H 0.85758 0.49156 0.78516 0.0
H1705 H 0.91767 0.46938 0.79121 0.0
H1706 H 0.82455 0.43412 0.77171 0.0
H1707 H 0.82823 0.44256 0.80444 0.0
H1708 H 0.82519 0.46467 0.78419 0.0
H1709 H 0.92088 0.42998 0.79449 0.0
H1710 H 0.90221 0.41548 0.81214 0.0
H1711 H 0.89792 0.4076 0.7793 0.0
H1712 H 0.84243 0.3738 0.83718 0.0
H1713 H 0.83326 0.35427 0.75862 0.0
H1714 H 0.85398 0.43568 0.83884 0.0
H1715 H 0.8793 0.42694 0.84176 0.0
H1716 H 0.85866 0.41231 0.85691 0.0
H1717 H 0.8427 0.41226 0.74297 0.0
H1718 H 0.84349 0.38172 0.73205 0.0
H1719 H 0.86778 0.40302 0.74531 0.0
C1720 C 0.08175 0.86502 0.10494 0.0
C1721 C 0.083 0.86579 0.13064 0.0
C1722 C 0.07874 0.88503 0.09324 0.0
C1723 C 0.07665 0.90631 0.10749 0.0
C1724 C 0.07818 0.90725 0.13348 0.0
C1725 C 0.08144 0.8871 0.14471 0.0
C1726 C 0.07749 0.88328 0.06557 0.0
C1727 C 0.07597 0.92946 0.14944 0.0
C1728 C 0.08435 0.96632 0.08273 0.0
C1729 C 0.06314 0.96869 0.07534 0.0
C1730 C 0.08902 0.94591 0.09255 0.0
C1731 C 0.0721 0.92734 0.09526 0.0
C1732 C 0.05069 0.92938 0.08727 0.0
C1733 C 0.04649 0.94989 0.07734 0.0
C1734 C 0.11209 0.94441 0.10038 0.0
C1735 C 0.03212 0.91019 0.08994 0.0
H1736 H 0.08299 0.84869 0.09389 0.0
H1737 H 0.08233 0.8879 0.16456 0.0
H1738 H 0.06149 0.88551 0.05688 0.0
H1739 H 0.08947 0.89786 0.06102 0.0
H1740 H 0.08032 0.86589 0.05724 0.0
H1741 H 0.07795 0.92754 0.1694 0.0
H1742 H 0.08807 0.94497 0.14689 0.0
H1743 H 0.05998 0.93356 0.14373 0.0
H1744 H 0.09739 0.9806 0.08117 0.0
H1745 H 0.03005 0.9515 0.07186 0.0
H1746 H 0.11573 0.9289 0.08916 0.0
H1747 H 0.11496 0.94153 0.12002 0.0
H1748 H 0.12336 0.96081 0.09815 0.0
H1749 H 0.0337 0.89263 0.08064 0.0
H1750 H 1.01646 0.91395 0.08198 0.0
H1751 H 0.03221 0.90864 0.1098 0.0
C1752 C 0.94109 0.26343 0.91885 0.0
C1753 C 0.95902 0.26595 0.90695 0.0
C1754 C 0.92079 0.26497 0.90643 0.0
C1755 C 0.91825 0.26928 0.88148 0.0
C1756 C 0.93633 0.27193 0.86943 0.0
C1757 C 0.95641 0.27017 0.88224 0.0
C1758 C 0.90199 0.26185 0.91998 0.0
C1759 C 0.93447 0.27658 0.8429 0.0
C1760 C 0.86376 0.25022 0.8395 0.0
C1761 C 0.8569 0.27193 0.83857 0.0
C1762 C 0.88334 0.24905 0.85386 0.0
C1763 C 0.89662 0.27015 0.86763 0.0
C1764 C 0.8895 0.29207 0.8673 0.0
C1765 C 0.86969 0.29269 0.85287 0.0
C1766 C 0.89005 0.22524 0.85377 0.0
C1767 C 0.90311 0.31501 0.88163 0.0
H1768 H 0.94292 0.26024 0.93795 0.0
H1769 H 0.97015 0.27229 0.8729 0.0
H1770 H 0.89465 0.27784 0.91997 0.0
H1771 H 0.88955 0.24634 0.91033 0.0
H1772 H 0.90662 0.25899 0.93944 0.0
H1773 H 0.9501 0.27888 0.83636 0.0
H1774 H 0.92318 0.26151 0.8307 0.0
H1775 H 0.92788 0.29291 0.84088 0.0
H1776 H 0.85392 0.23407 0.82861 0.0
H1777 H 0.86453 0.30954 0.85222 0.0
H1778 H 0.89392 0.22146 0.873 0.0
H1779 H 0.90474 0.22578 0.84545 0.0
H1780 H 0.87744 0.21031 0.84319 0.0
H1781 H 0.90733 0.31296 0.90137 0.0
H1782 H 0.89493 0.33034 0.88045 0.0
H1783 H 0.9183 0.3192 0.87435 0.0
C1784 C 0.57767 0.21612 0.64528 0.0
C1785 C 0.57664 0.23466 0.63091 0.0
C1786 C 0.57471 0.19223 0.63427 0.0
C1787 C 0.5706 0.18655 0.60816 0.0
C1788 C 0.56948 0.20517 0.5935 0.0
C1789 C 0.57251 0.22898 0.60504 0.0
C1790 C 0.57602 0.17304 0.65066 0.0
C1791 C 0.56514 0.19992 0.56562 0.0
C1792 C 0.58233 0.12692 0.58199 0.0
C1793 C 0.56201 0.11185 0.57772 0.0
C1794 C 0.58526 0.15135 0.59123 0.0
C1795 C 0.56748 0.1611 0.59637 0.0
C1796 C 0.54686 0.14614 0.59153 0.0
C1797 C 0.54438 0.12178 0.58231 0.0
C1798 C 0.60752 0.16661 0.59608 0.0
C1799 C 0.52744 0.15573 0.59669 0.0
H1800 H 0.58086 0.22028 0.66528 0.0
H1801 H 0.5717 0.24317 0.59379 0.0
H1802 H 0.56078 0.15964 0.64678 0.0
H1803 H 0.58886 0.16352 0.64662 0.0
H1804 H 0.57929 0.18037 0.67064 0.0
H1805 H 0.56471 0.21632 0.55685 0.0
H1806 H 0.57768 0.19123 0.55906 0.0
H1807 H 0.54962 0.18725 0.55928 0.0
H1808 H 0.5961 0.11958 0.57852 0.0
H1809 H 0.52857 0.11046 0.57903 0.0
H1810 H 0.61244 0.17304 0.61618 0.0
H1811 H 0.60776 0.18259 0.58653 0.0
H1812 H 0.61949 0.15673 0.58982 0.0
H1813 H 0.52903 0.16169 0.61682 0.0
H1814 H 0.51237 0.14217 0.59061 0.0
H1815 H 0.52621 0.17153 0.58717 0.0
C1816 C 0.57565 0.77161 0.38582 0.0
C1817 C 0.57665 0.77453 0.41158 0.0
C1818 C 0.59438 0.77373 0.37524 0.0
C1819 C 0.61469 0.77872 0.39073 0.0
C1820 C 0.61576 0.78143 0.41675 0.0
C1821 C 0.59679 0.7794 0.42683 0.0
C1822 C 0.59245 0.77086 0.34743 0.0
C1823 C 0.637 0.7866 0.43398 0.0
C1824 C 0.66249 0.76471 0.36247 0.0
C1825 C 0.67223 0.78724 0.35761 0.0
C1826 C 0.64397 0.76171 0.37349 0.0
C1827 C 0.63478 0.78167 0.37973 0.0
C1828 C 0.64468 0.80449 0.3752 0.0
C1829 C 0.66325 0.807 0.36435 0.0
C1830 C 0.63405 0.73709 0.3781 0.0
C1831 C 0.6355 0.82628 0.38156 0.0
H1832 H 0.56018 0.76787 0.37388 0.0
H1833 H 0.59775 0.78161 0.44675 0.0
H1834 H 0.60074 0.78751 0.34176 0.0
H1835 H 0.60037 0.75631 0.341 0.0
H1836 H 0.57553 0.76672 0.33793 0.0
H1837 H 0.63513 0.78761 0.45374 0.0
H1838 H 0.6461 0.77249 0.42973 0.0
H1839 H 0.64673 0.80379 0.4312 0.0
H1840 H 0.66903 0.74922 0.35712 0.0
H1841 H 0.67077 0.82457 0.36116 0.0
H1842 H 0.61769 0.73143 0.36716 0.0
H1843 H 0.63256 0.73735 0.3979 0.0
H1844 H 0.64356 0.72356 0.37309 0.0
H1845 H 0.61894 0.82368 0.37133 0.0
H1846 H 0.64514 0.84278 0.37701 0.0
H1847 H 0.63466 0.82887 0.40159 0.0
C1848 C 0.0383 0.25221 0.42546 0.0
C1849 C 0.05685 0.2632 0.41753 0.0
C1850 C 0.03863 0.23342 0.43946 0.0
C1851 C 0.05796 0.22543 0.44549 0.0
C1852 C 0.07633 0.23531 0.43604 0.0
C1853 C 0.07557 0.25419 0.42218 0.0
C1854 C 0.0187 0.22325 0.44919 0.0
C1855 C 0.09713 0.22699 0.44186 0.0
C1856 C 0.06556 0.20241 0.50697 0.0
C1857 C 0.06005 0.17765 0.49971 0.0
C1858 C 0.06531 0.21812 0.4894 0.0
C1859 C 0.05954 0.2088 0.46396 0.0
C1860 C 0.05451 0.18382 0.45643 0.0
C1861 C 0.05476 0.1685 0.47445 0.0
C1862 C 0.07081 0.24471 0.4981 0.0
C1863 C 0.04836 0.17332 0.42945 0.0
H1864 H 0.02375 0.25906 0.42175 0.0
H1865 H 0.0899 0.26255 0.41589 0.0
H1866 H 1.01532 0.20345 0.44568 0.0
H1867 H 0.0212 0.22862 0.46952 0.0
H1868 H 1.00447 0.22961 0.44068 0.0
H1869 H 0.10898 0.23419 0.43047 0.0
H1870 H 0.10411 0.23297 0.46166 0.0
H1871 H 0.09436 0.2072 0.43876 0.0
H1872 H 0.06999 0.20951 0.52646 0.0
H1873 H 0.05026 0.14934 0.46878 0.0
H1874 H 0.05687 0.25277 0.49225 0.0
H1875 H 0.08419 0.25326 0.48949 0.0
H1876 H 0.07545 0.249 0.51853 0.0
H1877 H 0.03309 0.17796 0.42156 0.0
H1878 H 0.04641 0.15356 0.42663 0.0
H1879 H 0.06067 0.18101 0.41889 0.0
C1880 C 0.65107 0.29805 0.25478 0.0
C1881 C 0.63927 0.27794 0.26227 0.0
C1882 C 0.67343 0.30227 0.25829 0.0
C1883 C 0.68425 0.28623 0.27003 0.0
C1884 C 0.67251 0.26671 0.27905 0.0
C1885 C 0.65007 0.26266 0.27487 0.0
C1886 C 0.68539 0.32326 0.24837 0.0
C1887 C 0.68363 0.24964 0.29227 0.0
C1888 C 0.73934 0.28254 0.25543 0.0
C1889 C 0.75261 0.29748 0.27572 0.0
C1890 C 0.71699 0.27859 0.2534 0.0
C1891 C 0.70782 0.28964 0.27225 0.0
C1892 C 0.72113 0.30458 0.29284 0.0
C1893 C 0.74336 0.30829 0.29435 0.0
C1894 C 0.7032 0.2628 0.23098 0.0
C1895 C 0.71185 0.31657 0.31328 0.0
H1896 H 0.64281 0.30992 0.24497 0.0
H1897 H 0.641 0.24709 0.28068 0.0
H1898 H 0.69775 0.33455 0.26322 0.0
H1899 H 0.69379 0.3167 0.23364 0.0
H1900 H 0.67463 0.33457 0.24057 0.0
H1901 H 0.67231 0.23636 0.29963 0.0
H1902 H 0.69184 0.23992 0.27937 0.0
H1903 H 0.69605 0.25965 0.30783 0.0
H1904 H 0.7464 0.27408 0.24105 0.0
H1905 H 0.75348 0.31936 0.31043 0.0
H1906 H 0.69268 0.27311 0.22093 0.0
H1907 H 0.69267 0.2477 0.23681 0.0
H1908 H 0.71283 0.25547 0.21802 0.0
H1909 H 0.70254 0.30282 0.32223 0.0
H1910 H 0.70068 0.32747 0.30561 0.0
H1911 H 0.72437 0.32832 0.32758 0.0
C1912 C 0.55148 0.90564 0.93445 0.0
C1913 C 0.53494 0.88585 0.92532 0.0
C1914 C 0.54898 0.92338 0.95281 0.0
C1915 C 0.5293 0.92142 0.96176 0.0
C1916 C 0.51222 0.90206 0.95167 0.0
C1917 C 0.51534 0.88434 0.93378 0.0
C1918 C 0.56764 0.94373 0.96328 0.0
C1919 C 0.49082 0.89979 0.96014 0.0
C1920 C 0.53339 0.95227 0.02706 0.0
C1921 C 0.52959 0.97477 0.02269 0.0
C1922 C 0.53251 0.93433 1.00731 0.0
C1923 C 0.52714 0.93886 0.98273 0.0
C1924 C 0.52132 0.96076 0.97835 0.0
C1925 C 0.52285 0.9786 0.99843 0.0
C1926 C 0.53902 0.91128 0.01274 0.0
C1927 C 0.51484 0.96598 0.95244 0.0
H1928 H 0.56662 0.90681 0.92788 0.0
H1929 H 0.50242 0.86917 0.92647 0.0
H1930 H 0.56291 0.9611 0.96133 0.0
H1931 H 0.57251 0.94335 0.98334 0.0
H1932 H 0.58169 0.94288 0.95398 0.0
H1933 H 0.4786 0.88494 0.94877 0.0
H1934 H 0.49253 0.89654 0.97969 0.0
H1935 H 0.48492 0.91668 0.95929 0.0
H1936 H 0.53874 0.94928 0.04579 0.0
H1937 H 0.51995 0.99602 0.99505 0.0
H1938 H 0.55421 0.91013 1.00595 0.0
H1939 H 0.52677 0.89571 1.00288 0.0
H1940 H 0.54137 0.90992 0.03283 0.0
H1941 H 0.52917 0.96942 0.94344 0.0
H1942 H 0.50733 0.98188 0.95238 0.0
H1943 H 0.50347 0.95043 0.94109 0.0
C1944 C 1.00834 0.78812 0.72544 0.0
C1945 C 1.01569 0.76774 0.7317 0.0
C1946 C 0.99194 0.79579 0.73608 0.0
C1947 C 0.9826 0.78269 0.75332 0.0
C1948 C 0.9899 0.76207 0.75974 0.0
C1949 C 1.00647 0.75485 0.74885 0.0
C1950 C 0.98461 0.81791 0.72884 0.0
C1951 C 0.98018 0.74767 0.778 0.0
C1952 C 0.95324 0.81589 0.79572 0.0
C1953 C 0.93203 0.8083 0.78354 0.0
C1954 C 0.96987 0.80727 0.78637 0.0
C1955 C 0.96508 0.79065 0.7644 0.0
C1956 C 0.94366 0.78269 0.75222 0.0
C1957 C 0.92737 0.79167 0.76193 0.0
C1958 C 0.99257 0.81628 0.79972 0.0
C1959 C 0.93798 0.7649 0.72879 0.0
H1960 H 1.01547 0.79818 0.71223 0.0
H1961 H 1.01213 0.73908 0.7537 0.0
H1962 H 0.96739 0.81338 0.72056 0.0
H1963 H 0.98643 0.83133 0.74549 0.0
H1964 H 0.99373 0.82618 0.71533 0.0
H1965 H 0.9877 0.73211 0.78102 0.0
H1966 H 0.98194 0.75913 0.79603 0.0
H1967 H 0.96279 0.74109 0.77129 0.0
H1968 H 0.95685 0.82883 0.81238 0.0
H1969 H 0.91092 0.78546 0.75275 0.0
H1970 H 1.00219 0.82607 0.78757 0.0
H1971 H 1.00005 0.80103 0.80414 0.0
H1972 H 0.99347 0.82838 0.81716 0.0
H1973 H 0.94564 0.77258 0.71396 0.0
H1974 H 0.92044 0.75977 0.7222 0.0
H1975 H 0.94417 0.74853 0.73189 0.0
C1976 C 0.12925 0.08131 0.92047 0.0
C1977 C 0.12231 0.06611 0.89788 0.0
C1978 C 0.11896 0.07768 0.9409 0.0
C1979 C 0.1013 0.05844 0.93864 0.0
C1980 C 0.09412 0.0432 0.9158 0.0
C1981 C 0.10471 0.04722 0.89572 0.0
C1982 C 0.12704 0.09432 0.96494 0.0
C1983 C 0.07528 0.02255 0.91258 0.0
C1984 C 0.08385 0.03257 0.99464 0.0
C1985 C 0.06562 0.04201 0.99675 0.0
C1986 C 0.09619 0.03851 0.9764 0.0
C1987 C 0.09004 0.05424 0.95996 0.0
C1988 C 0.07208 0.06456 0.96277 0.0
C1989 C 0.06001 0.05818 0.98104 0.0
C1990 C 0.11524 0.02713 0.97406 0.0
C1991 C 0.06512 0.08166 0.94592 0.0
H1992 H 0.1429 0.0959 0.92228 0.0
H1993 H 0.09928 0.03539 0.87834 0.0
H1994 H 0.11406 0.10289 0.97048 0.0
H1995 H 0.13195 0.08404 0.97987 0.0
H1996 H 0.14087 0.10853 0.96364 0.0
H1997 H 0.07174 1.01233 0.89364 0.0
H1998 H 0.07848 1.01019 0.92607 0.0
H1999 H 0.06084 0.02924 0.91637 0.0
H2000 H 0.08788 0.01971 1.00644 0.0
H2001 H 0.04596 0.06565 0.98284 0.0
H2002 H 0.12947 0.04089 0.9731 0.0
H2003 H 0.11182 1.0144 0.95664 0.0
H2004 H 0.11918 0.01732 0.98979 0.0
H2005 H 0.07885 0.09609 0.94497 0.0
H2006 H 0.05217 0.08992 0.95213 0.0
H2007 H 0.05925 0.07199 0.9269 0.0
C2008 C 0.80087 0.37636 0.55897 0.0
C2009 C 0.7787 0.37493 0.55611 0.0
C2010 C 0.81175 0.36796 0.57902 0.0
C2011 C 0.8001 0.35793 0.59645 0.0
C2012 C 0.77778 0.35691 0.59387 0.0
C2013 C 0.76736 0.36543 0.57371 0.0
C2014 C 0.83554 0.36935 0.58127 0.0
C2015 C 0.76481 0.34639 0.61215 0.0
C2016 C 0.81602 0.31174 0.63462 0.0
C2017 C 0.8216 0.32503 0.65834 0.0
C2018 C 0.81066 0.32269 0.61383 0.0
C2019 C 0.81076 0.34746 0.61693 0.0
C2020 C 0.8181 0.3613 0.6405 0.0
C2021 C 0.82351 0.3499 0.66097 0.0
C2022 C 0.8031 0.30735 0.58893 0.0
C2023 C 0.81861 0.38781 0.64448 0.0
H2024 H 0.80969 0.38379 0.54539 0.0
H2025 H 0.75024 0.3644 0.57161 0.0
H2026 H 0.84382 0.37827 0.59994 0.0
H2027 H 0.83887 0.35105 0.57903 0.0
H2028 H 0.84248 0.37921 0.56718 0.0
H2029 H 0.74772 0.34765 0.60788 0.0
H2030 H 0.76566 0.32729 0.61209 0.0
H2031 H 0.77149 0.35574 0.63114 0.0
H2032 H 0.81438 0.2925 0.63243 0.0
H2033 H 0.82826 0.36031 0.67923 0.0
H2034 H 0.8104 0.31598 0.57436 0.0
H2035 H 0.7855 0.30521 0.58391 0.0
H2036 H 0.80697 0.28932 0.58895 0.0
H2037 H 0.82568 0.3966 0.62986 0.0
H2038 H 0.82786 0.39653 0.66283 0.0
H2039 H 0.80202 0.39081 0.64336 0.0
C2040 C 0.47999 0.04262 0.36979 0.0
C2041 C 0.46581 0.05853 0.36674 0.0
C2042 C 0.49133 0.04038 0.39346 0.0
C2043 C 0.48928 0.05472 0.4155 0.0
C2044 C 0.47509 0.07096 0.41251 0.0
C2045 C 0.46351 0.0724 0.38865 0.0
C2046 C 0.50559 0.02239 0.39486 0.0
C2047 C 0.47236 0.08726 0.43466 0.0
C2048 C 0.50842 0.03731 0.48122 0.0
C2049 C 0.52969 0.05034 0.48782 0.0
C2050 C 0.49516 0.0386 0.45823 0.0
C2051 C 0.5028 0.05365 0.44106 0.0
C2052 C 0.52399 0.06739 0.44825 0.0
C2053 C 0.53696 0.0653 0.47085 0.0
C2054 C 0.47308 0.02308 0.4519 0.0
C2055 C 0.53326 0.08429 0.43176 0.0
H2056 H 0.48204 0.03147 0.3535 0.0
H2057 H 0.45276 0.08478 0.38714 0.0
H2058 H 0.52246 0.03172 0.40127 0.0
H2059 H 0.50125 1.01043 0.40857 0.0
H2060 H 0.50448 1.0113 0.37672 0.0
H2061 H 0.46094 0.09894 0.4297 0.0
H2062 H 0.46655 0.07657 0.44872 0.0
H2063 H 0.48805 0.0987 0.44336 0.0
H2064 H 0.50236 0.0253 0.4935 0.0
H2065 H 0.55324 0.07551 0.4752 0.0
H2066 H 0.47204 1.01024 0.43497 0.0
H2067 H 0.461 0.03416 0.44779 0.0
H2068 H 0.46897 1.01292 0.46709 0.0
H2069 H 0.53498 0.07403 0.41418 0.0
H2070 H 0.54917 0.09519 0.44056 0.0
H2071 H 0.52229 0.09649 0.42702 0.0
C2072 C 0.79065 0.73447 0.11037 0.0
C2073 C 0.78903 0.70962 0.10674 0.0
C2074 C 0.79361 0.74729 0.13436 0.0
C2075 C 0.79487 0.73498 0.15522 0.0
C2076 C 0.79361 0.70996 0.15162 0.0
C2077 C 0.79075 0.69764 0.12751 0.0
C2078 C 0.79501 0.77396 0.13736 0.0
C2079 C 0.7948 0.69606 0.17325 0.0
C2080 C 0.81826 0.7673 0.22048 0.0
C2081 C 0.79975 0.76888 0.23065 0.0
C2082 C 0.81696 0.75701 0.19577 0.0
C2083 C 0.79666 0.74793 0.18079 0.0
C2084 C 0.77795 0.75001 0.19075 0.0
C2085 C 0.77971 0.76046 0.21545 0.0
C2086 C 0.83732 0.75529 0.1859 0.0
C2087 C 0.75598 0.74052 0.17553 0.0
H2088 H 0.78935 0.74387 0.09445 0.0
H2089 H 0.78952 0.67845 0.12494 0.0
H2090 H 0.78134 0.77841 0.1457 0.0
H2091 H 0.80986 0.78318 0.15015 0.0
H2092 H 0.79484 0.78107 0.11945 0.0
H2093 H 0.79421 0.6768 0.16741 0.0
H2094 H 0.8098 0.70352 0.18655 0.0
H2095 H 0.78129 0.69771 0.18322 0.0
H2096 H 0.83385 0.77378 0.23194 0.0
H2097 H 0.76527 0.76155 0.22299 0.0
H2098 H 0.83738 0.76317 0.16846 0.0
H2099 H 0.83823 0.73625 0.18151 0.0
H2100 H 0.85182 0.76453 0.19932 0.0
H2101 H 0.75455 0.7483 0.15801 0.0
H2102 H 0.74304 0.74454 0.18554 0.0
H2103 H 0.75352 0.72087 0.17053 0.0
C2104 C 0.1016 0.06675 0.76289 0.0
C2105 C 0.124 0.07188 0.76837 0.0
C2106 C 0.09087 0.06301 0.73824 0.0
C2107 C 0.10287 0.06447 0.71872 0.0
C2108 C 0.12548 0.07013 0.72424 0.0
C2109 C 0.13574 0.07376 0.74896 0.0
C2110 C 0.06674 0.05707 0.73306 0.0
C2111 C 0.13889 0.07196 0.70401 0.0
C2112 C 0.07958 0.03299 0.65349 0.0
C2113 C 0.07519 0.05207 0.64123 0.0
C2114 C 0.08791 0.03662 0.67891 0.0
C2115 C 0.09197 0.05989 0.69241 0.0
C2116 C 0.087 0.07908 0.6803 0.0
C2117 C 0.07868 0.07495 0.65489 0.0
C2118 C 0.09298 1.01566 0.69114 0.0
C2119 C 0.09111 0.10416 0.69402 0.0
H2120 H 0.09244 0.06519 0.77781 0.0
H2121 H 0.15308 0.07772 0.75304 0.0
H2122 H 0.06056 0.06999 0.72191 0.0
H2123 H 0.06111 0.03908 0.72202 0.0
H2124 H 0.05975 0.05733 0.7503 0.0
H2125 H 0.1563 0.07698 0.71144 0.0
H2126 H 0.13567 0.0546 0.69173 0.0
H2127 H 0.13453 0.08546 0.69243 0.0
H2128 H 0.07689 1.01523 0.64315 0.0
H2129 H 0.07529 0.08983 0.64566 0.0
H2130 H 0.08525 1.01433 0.70775 0.0
H2131 H 0.11049 0.01838 0.69743 0.0
H2132 H 0.08759 0.99848 0.67848 0.0
H2133 H 0.08348 0.10432 0.71077 0.0
H2134 H 0.08499 0.11679 0.68236 0.0
H2135 H 0.10855 0.11072 0.70029 0.0
C2136 C 0.75263 0.32739 0.43805 0.0
C2137 C 0.74503 0.34828 0.43451 0.0
C2138 C 0.7616 0.31585 0.41971 0.0
C2139 C 0.76292 0.32546 0.39736 0.0
C2140 C 0.75394 0.34562 0.39307 0.0
C2141 C 0.74498 0.35672 0.41169 0.0
C2142 C 0.77106 0.29443 0.42497 0.0
C2143 C 0.75517 0.35694 0.36984 0.0
C2144 C 0.80778 0.31522 0.3627 0.0
C2145 C 0.79715 0.29651 0.3442 0.0
C2146 C 0.79681 0.32474 0.38029 0.0
C2147 C 0.77477 0.31524 0.37918 0.0
C2148 C 0.76401 0.29628 0.3605 0.0
C2149 C 0.77543 0.28691 0.34342 0.0
C2150 C 0.80869 0.34523 0.39977 0.0
C2151 C 0.74042 0.28606 0.3583 0.0
H2152 H 0.7527 0.32083 0.45572 0.0
H2153 H 0.73927 0.37297 0.40889 0.0
H2154 H 0.76477 0.2794 0.40973 0.0
H2155 H 0.78867 0.29903 0.42606 0.0
H2156 H 0.76756 0.28832 0.44261 0.0
H2157 H 0.74024 0.36333 0.36402 0.0
H2158 H 0.76851 0.37277 0.37384 0.0
H2159 H 0.75798 0.3447 0.35424 0.0
H2160 H 0.82463 0.32241 0.36335 0.0
H2161 H 0.76713 0.27251 0.32896 0.0
H2162 H 0.80668 0.34085 0.41847 0.0
H2163 H 0.8019 0.36133 0.39719 0.0
H2164 H 0.82605 0.34962 0.39896 0.0
H2165 H 0.73785 0.27507 0.37328 0.0
H2166 H 0.73373 0.27463 0.34026 0.0
H2167 H 0.73134 0.30056 0.36046 0.0
C2168 C 0.4784 0.06846 0.22515 0.0
C2169 C 0.45948 0.05227 0.22706 0.0
C2170 C 0.48926 0.06659 0.20415 0.0
C2171 C 0.48178 0.04771 0.18378 0.0
C2172 C 0.46275 0.03125 0.1857 0.0
C2173 C 0.45199 0.0338 0.20669 0.0
C2174 C 0.50894 0.08516 0.20376 0.0
C2175 C 0.45373 1.01048 0.16547 0.0
C2176 C 0.49981 0.05231 0.11828 0.0
C2177 C 0.5169 0.03992 0.11842 0.0
C2178 C 0.48861 0.05506 0.1389 0.0
C2179 C 0.49388 0.04499 0.16103 0.0
C2180 C 0.51095 0.03224 0.16113 0.0
C2181 C 0.52209 0.0301 0.14044 0.0
C2182 C 0.47106 0.06912 0.13699 0.0
C2183 C 0.51753 0.02058 0.18334 0.0
H2184 H 0.48479 0.08296 0.24018 0.0
H2185 H 0.43763 0.02088 0.20725 0.0
H2186 H 0.52296 0.07657 0.2035 0.0
H2187 H 0.50688 0.09354 0.18664 0.0
H2188 H 0.51244 0.09937 0.22002 0.0
H2189 H 0.43928 0.9988 0.16947 0.0
H2190 H 0.44947 0.01713 0.14768 0.0
H2191 H 0.466 0.9996 0.16299 0.0
H2192 H 0.49523 0.06029 0.10198 0.0
H2193 H 0.53503 0.02045 0.14159 0.0
H2194 H 0.47449 0.0839 0.15268 0.0
H2195 H 0.45566 0.05746 0.13825 0.0
H2196 H 0.46919 0.07676 0.11939 0.0
H2197 H 0.5233 0.03436 0.19987 0.0
H2198 H 0.53037 1.01055 0.18068 0.0
H2199 H 0.50352 1.00811 0.18723 0.0
C2200 C 0.76377 0.72233 0.96801 0.0
C2201 C 0.77691 0.70605 0.97361 0.0
C2202 C 0.76588 0.73524 0.94789 0.0
C2203 C 0.78176 0.73217 0.93321 0.0
C2204 C 0.79488 0.71554 0.93867 0.0
C2205 C 0.79219 0.70263 0.95858 0.0
C2206 C 0.75132 0.75244 0.94254 0.0
C2207 C 0.81222 0.71185 0.92387 0.0
C2208 C 0.78185 0.75228 0.86928 0.0
C2209 C 0.79672 0.77401 0.87486 0.0
C2210 C 0.77603 0.73897 0.88812 0.0
C2211 C 0.78568 0.74728 0.91315 0.0
C2212 C 0.8004 0.76945 0.91885 0.0
C2213 C 0.80562 0.78251 0.89973 0.0
C2214 C 0.76011 0.71559 0.88113 0.0
C2215 C 0.81137 0.77898 0.94509 0.0
H2216 H 0.75185 0.72502 0.9794 0.0
H2217 H 0.80246 0.69014 0.96273 0.0
H2218 H 0.76083 0.77096 0.94556 0.0
H2219 H 0.74341 0.74853 0.92287 0.0
H2220 H 0.73881 0.75158 0.95446 0.0
H2221 H 0.8207 0.69782 0.93 0.0
H2222 H 0.80531 0.70672 0.90396 0.0
H2223 H 0.8241 0.72881 0.92569 0.0
H2224 H 0.77542 0.74516 0.85018 0.0
H2225 H 0.81724 0.79921 0.90426 0.0
H2226 H 0.74773 0.71464 0.89318 0.0
H2227 H 0.7684 0.70058 0.88392 0.0
H2228 H 0.7521 0.71304 0.86151 0.0
H2229 H 0.79934 0.77999 0.95741 0.0
H2230 H 0.82167 0.79699 0.94664 0.0
H2231 H 0.82144 0.76661 0.95196 0.0
C2232 C 0.86772 0.13686 0.02072 0.0
C2233 C 0.87228 0.14292 0.04655 0.0
C2234 C 0.87769 0.12038 1.00863 0.0
C2235 C 0.89236 0.10965 0.02281 0.0
C2236 C 0.89784 0.11668 0.04875 0.0
C2237 C 0.88775 0.1333 0.06031 0.0
C2238 C 0.87186 0.11375 0.9809 0.0
C2239 C 0.91372 0.10588 0.06446 0.0
C2240 C 0.90221 0.04783 1.00661 0.0
C2241 C 0.9237 0.05311 1.00359 0.0
C2242 C 0.89095 0.0661 0.01076 0.0
C2243 C 0.90127 0.09009 0.01115 0.0
C2244 C 0.92178 0.09519 1.00455 0.0
C2245 C 0.93294 0.07668 1.00121 0.0
C2246 C 0.86887 0.0599 0.01729 0.0
C2247 C 0.93288 0.12043 1.00349 0.0
H2248 H 0.85582 0.14439 0.00999 0.0
H2249 H 0.89137 0.13803 0.08025 0.0
H2250 H 0.88637 0.11317 0.97246 0.0
H2251 H 0.8615 0.09566 0.9764 0.0
H2252 H 0.86312 0.12649 0.97227 0.0
H2253 H 0.91659 0.11374 0.08427 0.0
H2254 H 0.90776 0.08633 0.06301 0.0
H2255 H 0.92922 0.10862 0.05767 0.0
H2256 H 0.89468 0.02957 1.00755 0.0
H2257 H 0.94948 0.08114 0.99877 0.0
H2258 H 0.85789 0.06985 1.00748 0.0
H2259 H 0.86979 0.06519 0.03745 0.0
H2260 H 0.86194 0.04047 0.01269 0.0
H2261 H 0.92135 0.13152 0.99717 0.0
H2262 H 0.94476 0.1207 0.99082 0.0
H2263 H 0.94139 0.12876 0.02226 0.0
C2264 C 0.39838 0.47508 0.07301 0.0
C2265 C 0.39653 0.45391 0.08366 0.0
C2266 C 0.41848 0.48829 0.07072 0.0
C2267 C 0.43737 0.4804 0.07958 0.0
C2268 C 0.43563 0.45917 0.0906 0.0
C2269 C 0.41527 0.44612 0.09236 0.0
C2270 C 0.41948 0.51064 0.05861 0.0
C2271 C 0.4553 0.45024 0.10057 0.0
C2272 C 0.48784 0.50387 0.05368 0.0
C2273 C 0.4983 0.52313 0.07184 0.0
C2274 C 0.46822 0.4896 0.05611 0.0
C2275 C 0.45888 0.49451 0.07736 0.0
C2276 C 0.46973 0.51355 0.09606 0.0
C2277 C 0.48919 0.52769 0.093 0.0
C2278 C 0.45721 0.46965 0.03561 0.0
C2279 C 0.4606 0.51927 0.11917 0.0
H2280 H 0.38402 0.4812 0.0661 0.0
H2281 H 0.41404 0.42981 0.10063 0.0
H2282 H 0.42893 0.52626 0.07175 0.0
H2283 H 0.42771 0.509 0.04239 0.0
H2284 H 0.40335 0.51421 0.05237 0.0
H2285 H 0.45131 0.43363 0.10891 0.0
H2286 H 0.46444 0.44667 0.08551 0.0
H2287 H 0.46597 0.46414 0.11481 0.0
H2288 H 0.49474 0.50029 0.03722 0.0
H2289 H 0.49722 0.54249 0.10715 0.0
H2290 H 0.44157 0.47323 0.02739 0.0
H2291 H 0.45394 0.4525 0.04311 0.0
H2292 H 0.46688 0.46758 0.02072 0.0
H2293 H 0.44517 0.52491 0.11423 0.0
H2294 H 0.47155 0.53372 0.1326 0.0
H2295 H 0.45728 0.5031 0.12833 0.0
C2296 C 0.43406 0.59151 0.78504 0.0
C2297 C 0.42353 0.56936 0.7715 0.0
C2298 C 0.42404 0.61122 0.78561 0.0
C2299 C 0.40313 0.60863 0.77217 0.0
C2300 C 0.39279 0.58653 0.75775 0.0
C2301 C 0.40309 0.56714 0.75767 0.0
C2302 C 0.43549 0.63451 0.80124 0.0
C2303 C 0.37055 0.58314 0.74297 0.0
C2304 C 0.36456 0.6464 0.79162 0.0
C2305 C 0.36468 0.66205 0.77393 0.0
C2306 C 0.37784 0.62968 0.79202 0.0
C2307 C 0.39139 0.62847 0.77413 0.0
C2308 C 0.39222 0.64487 0.75684 0.0
C2309 C 0.37889 0.66158 0.75702 0.0
C2310 C 0.37671 0.61267 0.81095 0.0
C2311 C 0.40637 0.64403 0.7374 0.0
H2312 H 0.44988 0.59326 0.79577 0.0
H2313 H 0.39496 0.55008 0.74705 0.0
H2314 H 0.43559 0.64943 0.79013 0.0
H2315 H 0.42686 0.63842 0.81671 0.0
H2316 H 0.45226 0.63411 0.8091 0.0
H2317 H 0.3653 0.56526 0.73156 0.0
H2318 H 0.35898 0.58523 0.75568 0.0
H2319 H 0.36992 0.59699 0.73059 0.0
H2320 H 0.35381 0.64702 0.80494 0.0
H2321 H 0.37896 0.67361 0.74327 0.0
H2322 H 0.393 0.61263 0.8207 0.0
H2323 H 0.36975 0.59423 0.80152 0.0
H2324 H 0.36679 0.61733 0.82488 0.0
H2325 H 0.42297 0.64387 0.74603 0.0
H2326 H 0.40667 0.65941 0.72688 0.0
H2327 H 0.40049 0.62729 0.72419 0.0
C2328 C 0.29486 0.5887 0.58868 0.0
C2329 C 0.29875 0.60003 0.56814 0.0
C2330 C 0.27413 0.57707 0.59025 0.0
C2331 C 0.2571 0.57718 0.571 0.0
C2332 C 0.26147 0.58596 0.54895 0.0
C2333 C 0.28236 0.59719 0.54773 0.0
C2334 C 0.27016 0.56721 0.61374 0.0
C2335 C 0.24377 0.58625 0.52791 0.0
C2336 C 0.19962 0.5488 0.57339 0.0
C2337 C 0.19224 0.56857 0.58356 0.0
C2338 C 0.2209 0.55102 0.56963 0.0
C2339 C 0.23493 0.57356 0.57609 0.0
C2340 C 0.22761 0.59345 0.58673 0.0
C2341 C 0.20636 0.5907 0.59028 0.0
C2342 C 0.2282 0.52947 0.55829 0.0
C2343 C 0.24207 0.61786 0.59384 0.0
H2344 H 0.3076 0.59048 0.60429 0.0
H2345 H 0.28539 0.60561 0.53161 0.0
H2346 H 0.26414 0.58038 0.6257 0.0
H2347 H 0.25785 0.55045 0.60967 0.0
H2348 H 0.28503 0.56367 0.62423 0.0
H2349 H 0.25003 0.58941 0.51059 0.0
H2350 H 0.23184 0.5692 0.52429 0.0
H2351 H 0.23534 0.60079 0.53296 0.0
H2352 H 0.18875 0.5316 0.56834 0.0
H2353 H 0.20063 0.60612 0.59772 0.0
H2354 H 0.24376 0.52781 0.56879 0.0
H2355 H 0.23061 0.53158 0.53911 0.0
H2356 H 0.21636 0.51267 0.55768 0.0
H2357 H 0.25641 0.61686 0.60715 0.0
H2358 H 0.23394 0.6313 0.60237 0.0
H2359 H 0.24768 0.62425 0.57722 0.0
C2360 C 0.70904 0.93584 0.83128 0.0
C2361 C 0.71367 0.95457 0.81696 0.0
C2362 C 0.71959 0.91571 0.83112 0.0
C2363 C 0.73524 0.91277 0.81568 0.0
C2364 C 0.73968 0.93143 0.80085 0.0
C2365 C 0.72937 0.95174 0.80194 0.0
C2366 C 0.71398 0.89747 0.84794 0.0
C2367 C 0.75534 0.92983 0.78329 0.0
C2368 C 0.77779 0.87138 0.82868 0.0
C2369 C 0.76861 0.84902 0.81389 0.0
C2370 C 0.76724 0.89149 0.8298 0.0
C2371 C 0.74679 0.89061 0.8151 0.0
C2372 C 0.73762 0.86819 0.79981 0.0
C2373 C 0.74818 0.84807 0.79971 0.0
C2374 C 0.77809 0.9139 0.84719 0.0
C2375 C 0.71661 0.86554 0.78278 0.0
H2376 H 0.6972 0.93704 0.84315 0.0
H2377 H 0.73346 0.9654 0.79047 0.0
H2378 H 0.70608 0.88004 0.83673 0.0
H2379 H 0.72876 0.89477 0.85937 0.0
H2380 H 0.70312 0.90285 0.8604 0.0
H2381 H 0.75603 0.94426 0.77148 0.0
H2382 H 0.77156 0.93101 0.79389 0.0
H2383 H 0.75087 0.91229 0.7712 0.0
H2384 H 0.79336 0.87316 0.83995 0.0
H2385 H 0.74047 0.83154 0.78783 0.0
H2386 H 0.76699 0.91927 0.85933 0.0
H2387 H 0.78236 0.92872 0.83646 0.0
H2388 H 0.79286 0.9116 0.85896 0.0
H2389 H 0.70421 0.86979 0.7935 0.0
H2390 H 0.71102 0.84726 0.77232 0.0
H2391 H 0.71829 0.87851 0.76939 0.0
C2392 C 0.75955 0.92775 0.58255 0.0
C2393 C 0.77986 0.94152 0.58228 0.0
C2394 C 0.74116 0.93784 0.58044 0.0
C2395 C 0.74296 0.96234 0.57789 0.0
C2396 C 0.76348 0.97641 0.57797 0.0
C2397 C 0.78162 0.96587 0.58019 0.0
C2398 C 0.7197 0.92214 0.58054 0.0
C2399 C 0.76622 1.00256 0.57524 0.0
C2400 C 0.69423 0.9832 0.54639 0.0
C2401 C 0.6868 0.99433 0.56648 0.0
C2402 C 0.71229 0.97267 0.54988 0.0
C2403 C 0.72334 0.97302 0.5741 0.0
C2404 C 0.71572 0.98377 0.59453 0.0
C2405 C 0.6976 0.99427 0.5905 0.0
C2406 C 0.71968 0.96133 0.52753 0.0
C2407 C 0.72691 0.98452 0.62067 0.0
H2408 H 0.75798 0.90893 0.58419 0.0
H2409 H 0.7972 0.97669 0.57995 0.0
H2410 H 0.71184 0.92996 0.59514 0.0
H2411 H 0.70909 0.92113 0.56257 0.0
H2412 H 0.72105 0.90371 0.58375 0.0
H2413 H 0.78327 1.01127 0.57653 0.0
H2414 H 0.75732 1.0046 0.55708 0.0
H2415 H 0.75941 1.01211 0.58976 0.0
H2416 H 0.68586 0.98266 0.52778 0.0
H2417 H 0.69223 1.00295 0.60618 0.0
H2418 H 0.7199 0.9423 0.52895 0.0
H2419 H 0.73626 0.97037 0.52679 0.0
H2420 H 0.70927 0.96232 0.50994 0.0
H2421 H 0.72786 0.96617 0.62444 0.0
H2422 H 0.71865 0.99281 0.6346 0.0
H2423 H 0.74355 0.99484 0.62303 0.0
C2424 C 0.41157 0.42175 0.77221 0.0
C2425 C 0.40704 0.44432 0.77874 0.0
C2426 C 0.39682 0.40076 0.77346 0.0
C2427 C 0.37726 0.40253 0.78162 0.0
C2428 C 0.37264 0.4253 0.78809 0.0
C2429 C 0.38751 0.44585 0.78646 0.0
C2430 C 0.4022 0.37675 0.76626 0.0
C2431 C 0.35213 0.42801 0.79723 0.0
C2432 C 0.32829 0.35204 0.76979 0.0
C2433 C 0.32953 0.34374 0.79273 0.0
C2434 C 0.34437 0.37038 0.7654 0.0
C2435 C 0.36183 0.3808 0.78455 0.0
C2436 C 0.36332 0.37201 0.80755 0.0
C2437 C 0.34715 0.35359 0.81134 0.0
C2438 C 0.34237 0.37906 0.74053 0.0
C2439 C 0.38152 0.38272 0.82855 0.0
H2440 H 0.42661 0.42048 0.76615 0.0
H2441 H 0.3839 0.46322 0.79157 0.0
H2442 H 0.40316 0.36693 0.78243 0.0
H2443 H 0.38935 0.36578 0.75172 0.0
H2444 H 0.41764 0.37839 0.75931 0.0
H2445 H 0.35087 0.44701 0.80123 0.0
H2446 H 0.33815 0.41855 0.78324 0.0
H2447 H 0.35117 0.41975 0.81436 0.0
H2448 H 0.31474 0.34426 0.75534 0.0
H2449 H 0.348 0.34735 0.8292 0.0
H2450 H 0.35751 0.37965 0.73312 0.0
H2451 H 0.3394 0.39751 0.74259 0.0
H2452 H 0.3291 0.36753 0.72685 0.0
H2453 H 0.3971 0.38304 0.82225 0.0
H2454 H 0.38114 0.3727 0.84461 0.0
H2455 H 0.38067 0.40148 0.83483 0.0
C2456 C 0.20397 0.60815 0.31823 0.0
C2457 C 0.2153 0.5898 0.32279 0.0
C2458 C 0.2144 0.6321 0.31701 0.0
C2459 C 0.23714 0.63885 0.32054 0.0
C2460 C 0.24871 0.62046 0.32543 0.0
C2461 C 0.23784 0.59654 0.32638 0.0
C2462 C 0.20087 0.65025 0.31156 0.0
C2463 C 0.2728 0.62605 0.32955 0.0
C2464 C 0.26364 0.69515 0.29357 0.0
C2465 C 0.26937 0.7136 0.31401 0.0
C2466 C 0.25343 0.67129 0.29545 0.0
C2467 C 0.24859 0.66471 0.31846 0.0
C2468 C 0.25442 0.68322 0.33923 0.0
C2469 C 0.26449 0.70704 0.33678 0.0
C2470 C 0.24769 0.65298 0.27249 0.0
C2471 C 0.25001 0.67786 0.36431 0.0
H2472 H 0.18666 0.60373 0.31525 0.0
H2473 H 0.24712 0.583 0.32986 0.0
H2474 H 0.2052 0.66566 0.32661 0.0
H2475 H 0.20402 0.65721 0.29422 0.0
H2476 H 0.18349 0.64267 0.30957 0.0
H2477 H 0.27972 0.61042 0.33402 0.0
H2478 H 0.2784 0.63191 0.31272 0.0
H2479 H 0.27906 0.64102 0.3449 0.0
H2480 H 0.26706 0.69936 0.27574 0.0
H2481 H 0.26865 0.72059 0.35294 0.0
H2482 H 0.23019 0.64578 0.26876 0.0
H2483 H 0.25568 0.63776 0.27535 0.0
H2484 H 0.25239 0.66051 0.25596 0.0
H2485 H 0.23258 0.6716 0.36351 0.0
H2486 H 0.25573 0.69369 0.37882 0.0
H2487 H 0.25794 0.66322 0.36977 0.0
C2488 C 0.51279 0.69871 0.49311 0.0
C2489 C 0.52345 0.705 0.47368 0.0
C2490 C 0.51478 0.67776 0.50354 0.0
C2491 C 0.52833 0.66297 0.49488 0.0
C2492 C 0.5395 0.66961 0.47558 0.0
C2493 C 0.53658 0.69019 0.46492 0.0
C2494 C 0.50247 0.67223 0.52415 0.0
C2495 C 0.55517 0.65546 0.46674 0.0
C2496 C 0.55024 0.62271 0.53855 0.0
C2497 C 0.53877 0.59977 0.52784 0.0
C2498 C 0.54688 0.64326 0.52816 0.0
C2499 C 0.53159 0.64112 0.50643 0.0
C2500 C 0.51973 0.61809 0.49562 0.0
C2501 C 0.52343 0.59773 0.50643 0.0
C2502 C 0.55992 0.66734 0.54035 0.0
C2503 C 0.50308 0.61504 0.47264 0.0
H2504 H 0.50264 0.71006 0.50006 0.0
H2505 H 0.54515 0.69511 0.45017 0.0
H2506 H 0.5035 0.65471 0.53021 0.0
H2507 H 0.50863 0.68638 0.54032 0.0
H2508 H 0.48537 0.67265 0.51817 0.0
H2509 H 0.56288 0.66318 0.45192 0.0
H2510 H 0.56784 0.65493 0.48249 0.0
H2511 H 0.54701 0.63674 0.45963 0.0
H2512 H 0.56212 0.62467 0.55508 0.0
H2513 H 0.51464 0.58018 0.4978 0.0
H2514 H 0.54916 0.67871 0.54698 0.0
H2515 H 0.5682 0.67651 0.52673 0.0
H2516 H 0.57205 0.66595 0.55631 0.0
H2517 H 0.48992 0.62397 0.47688 0.0
H2518 H 0.49635 0.59599 0.46528 0.0
H2519 H 0.50998 0.62372 0.45787 0.0
C2520 C 0.6675 0.31049 0.69239 0.0
C2521 C 0.64996 0.30812 0.70494 0.0
C2522 C 0.68802 0.30908 0.70426 0.0
C2523 C 0.69116 0.30509 0.72929 0.0
C2524 C 0.67348 0.30264 0.74201 0.0
C2525 C 0.65317 0.30423 0.72974 0.0
C2526 C 0.70639 0.31198 0.69003 0.0
C2527 C 0.67602 0.29836 0.76867 0.0
C2528 C 0.74001 0.28186 0.75707 0.0
C2529 C 0.75295 0.30271 0.77101 0.0
C2530 C 0.72008 0.2824 0.74292 0.0
C2531 C 0.713 0.30434 0.74255 0.0
C2532 C 0.72646 0.32554 0.75584 0.0
C2533 C 0.74617 0.32445 0.76991 0.0
C2534 C 0.70627 0.25938 0.72905 0.0
C2535 C 0.71978 0.34936 0.75583 0.0
H2536 H 0.66519 0.31341 0.67321 0.0
H2537 H 0.63973 0.30224 0.73956 0.0
H2538 H 0.71898 0.32754 0.69923 0.0
H2539 H 0.71372 0.29599 0.68992 0.0
H2540 H 0.7013 0.31463 0.6706 0.0
H2541 H 0.66064 0.29623 0.77577 0.0
H2542 H 0.68264 0.28205 0.77063 0.0
H2543 H 0.68754 0.31353 0.78043 0.0
H2544 H 0.74514 0.265 0.75785 0.0
H2545 H 0.75615 0.34067 0.78051 0.0
H2546 H 0.70155 0.26125 0.70934 0.0
H2547 H 0.69136 0.25524 0.73689 0.0
H2548 H 0.71452 0.24408 0.73002 0.0
H2549 H 0.71542 0.35282 0.73657 0.0
H2550 H 0.73259 0.36437 0.76587 0.0
H2551 H 0.70539 0.34906 0.76469 0.0
C2552 C 0.02982 0.35687 0.96752 0.0
C2553 C 0.02863 0.33811 0.98179 0.0
C2554 C 0.03199 0.38068 0.97842 0.0
C2555 C 0.03311 0.38602 1.00432 0.0
C2556 C 0.03188 0.36715 0.01886 0.0
C2557 C 0.02961 0.34343 1.00742 0.0
C2558 C 0.03318 0.40016 0.96217 0.0
C2559 C 0.03311 0.37205 0.04652 0.0
C2560 C 0.05948 0.44999 0.03286 0.0
C2561 C 0.04177 0.46067 0.03488 0.0
C2562 C 0.05688 0.42563 0.02366 0.0
C2563 C 0.03605 0.41144 0.0161 0.0
C2564 C 0.0181 0.42193 0.01863 0.0
C2565 C 0.02116 0.44635 0.02803 0.0
C2566 C 0.07649 0.41523 0.02146 0.0
C2567 C 0.99561 0.4075 0.01073 0.0
H2568 H 0.02902 0.35296 0.94769 0.0
H2569 H 0.02869 0.32906 0.01859 0.0
H2570 H 0.02031 0.41023 0.96436 0.0
H2571 H 0.04866 0.41304 0.9679 0.0
H2572 H 0.03163 0.39302 0.9423 0.0
H2573 H 0.03164 0.35543 0.05518 0.0
H2574 H 0.04857 0.38406 0.05502 0.0
H2575 H 0.02022 0.38136 0.0509 0.0
H2576 H 0.07551 0.46073 0.0382 0.0
H2577 H 1.00734 0.45432 0.02943 0.0
H2578 H 0.07683 0.40942 1.00169 0.0
H2579 H 0.07593 0.39921 0.03099 0.0
H2580 H 0.09155 0.42824 0.02945 0.0
H2581 H 0.99264 0.40146 0.9905 0.0
H2582 H 0.98338 0.41787 0.01511 0.0
H2583 H 0.99356 0.39126 0.01996 0.0
C2584 C 1.01028 0.79281 0.18398 0.0
C2585 C 0.03062 0.80246 0.19802 0.0
C2586 C 0.99165 0.79183 0.19463 0.0
C2587 C 0.9933 0.80073 0.21999 0.0
C2588 C 1.01379 0.81064 0.23422 0.0
C2589 C 0.03216 0.81136 0.22309 0.0
C2590 C 0.97019 0.78108 0.17877 0.0
C2591 C 1.01632 0.82037 0.26127 0.0
C2592 C 0.94414 0.81681 0.24356 0.0
C2593 C 0.93675 0.79679 0.2547 0.0
C2594 C 0.96241 0.8183 0.23214 0.0
C2595 C 0.97365 0.79931 0.23174 0.0
C2596 C 0.96618 0.77899 0.24275 0.0
C2597 C 0.94792 0.77799 0.25408 0.0
C2598 C 0.96974 0.84027 0.22059 0.0
C2599 C 0.97763 0.75834 0.2428 0.0
H2600 H 1.0089 0.78589 0.1646 0.0
H2601 H 0.04778 0.81888 0.23409 0.0
H2602 H 0.96228 0.76542 0.18643 0.0
H2603 H 0.95962 0.79426 0.17896 0.0
H2604 H 0.97156 0.77527 0.15929 0.0
H2605 H 0.03329 0.82782 0.26969 0.0
H2606 H 1.007 0.83463 0.26359 0.0
H2607 H 1.00986 0.80601 0.27161 0.0
H2608 H 0.93556 0.83133 0.24362 0.0
H2609 H 0.94266 0.76261 0.26295 0.0
H2610 H 0.97004 0.83515 0.20068 0.0
H2611 H 0.98629 0.84903 0.2295 0.0
H2612 H 0.95924 0.85345 0.22236 0.0
H2613 H 0.97853 0.75115 0.22356 0.0
H2614 H 0.96958 0.74362 0.25169 0.0
H2615 H 0.99429 0.76459 0.25281 0.0
C2616 C 0.56638 0.29932 0.15345 0.0
C2617 C 0.56739 0.30524 0.17898 0.0
C2618 C 0.56447 0.31642 0.13752 0.0
C2619 C 0.56345 0.33988 0.14742 0.0
C2620 C 0.56434 0.3459 0.17316 0.0
C2621 C 0.56634 0.32848 0.18866 0.0
C2622 C 0.56358 0.30943 0.11013 0.0
C2623 C 0.56319 0.37074 0.18433 0.0
C2624 C 0.57711 0.39102 0.11101 0.0
C2625 C 0.55671 0.39396 0.10088 0.0
C2626 C 0.57957 0.37319 0.12591 0.0
C2627 C 0.56118 0.35812 0.13083 0.0
C2628 C 0.54056 0.36087 0.12047 0.0
C2629 C 0.53858 0.37877 0.10559 0.0
C2630 C 0.60181 0.37063 0.1366 0.0
C2631 C 0.52059 0.34523 0.12548 0.0
H2632 H 0.56725 0.28136 0.14593 0.0
H2633 H 0.56712 0.3331 0.20841 0.0
H2634 H 0.54839 0.3122 0.09971 0.0
H2635 H 0.57683 0.32098 0.10372 0.0
H2636 H 0.56475 0.29048 0.10544 0.0
H2637 H 0.56409 0.37248 0.20472 0.0
H2638 H 0.57649 0.38399 0.1801 0.0
H2639 H 0.54803 0.37539 0.17606 0.0
H2640 H 0.59113 0.40264 0.10721 0.0
H2641 H 0.52278 0.38127 0.0981 0.0
H2642 H 0.60391 0.35216 0.13114 0.0
H2643 H 0.60412 0.3738 0.1571 0.0
H2644 H 0.61443 0.38332 0.13038 0.0
H2645 H 0.52079 0.32614 0.11996 0.0
H2646 H 0.50577 0.34927 0.11542 0.0
H2647 H 0.52007 0.34772 0.14559 0.0
C2648 C 0.98262 0.33384 0.37369 0.0
C2649 C 0.99716 0.32824 0.35857 0.0
C2650 C 0.96075 0.33012 0.36419 0.0
C2651 C 0.95341 0.32134 0.3388 0.0
C2652 C 0.96814 0.31631 0.32328 0.0
C2653 C 0.98986 0.31944 0.33348 0.0
C2654 C 0.94546 0.33517 0.38145 0.0
C2655 C 0.96095 0.30767 0.29596 0.0
C2656 C 0.89452 0.2928 0.31962 0.0
C2657 C 0.88598 0.31238 0.31325 0.0
C2658 C 0.91657 0.29533 0.32767 0.0
C2659 C 0.9303 0.31778 0.32858 0.0
C2660 C 0.92177 0.33728 0.32103 0.0
C2661 C 0.89963 0.33443 0.31382 0.0
C2662 C 0.92505 0.27428 0.33613 0.0
C2663 C 0.93596 0.36126 0.32096 0.0
H2664 H 0.98826 0.34035 0.39318 0.0
H2665 H 1.00117 0.31514 0.32182 0.0
H2666 H 0.93712 0.34928 0.37537 0.0
H2667 H 0.93304 0.31888 0.38088 0.0
H2668 H 0.95369 0.34106 0.40088 0.0
H2669 H 0.97455 0.30547 0.28629 0.0
H2670 H 0.94952 0.29029 0.29312 0.0
H2671 H 0.95243 0.32051 0.28725 0.0
H2672 H 0.88388 0.27578 0.31921 0.0
H2673 H 0.89298 0.34946 0.30846 0.0
H2674 H 0.93198 0.27849 0.35611 0.0
H2675 H 0.93805 0.27065 0.32608 0.0
H2676 H 0.91239 0.25781 0.33324 0.0
H2677 H 0.94326 0.36936 0.3402 0.0
H2678 H 0.92702 0.37387 0.31238 0.0
H2679 H 0.94921 0.35905 0.31073 0.0
C2680 C 0.03757 0.66791 0.6485 0.0
C2681 C 0.03877 0.69143 0.64366 0.0
C2682 C 0.03462 0.64905 0.62911 0.0
C2683 C 0.03292 0.65396 0.6044 0.0
C2684 C 0.03259 0.67743 0.59933 0.0
C2685 C 0.03548 0.69593 0.61907 0.0
C2686 C 0.03463 0.62411 0.63519 0.0
C2687 C 0.03068 0.68328 0.57322 0.0
C2688 C 0.0555 0.61041 0.56483 0.0
C2689 C 0.03696 0.59408 0.55346 0.0
C2690 C 0.05428 0.63106 0.58011 0.0
C2691 C 0.03401 0.63499 0.58441 0.0
C2692 C 1.01515 0.61925 0.57162 0.0
C2693 C 1.01686 0.5989 0.55613 0.0
C2694 C 0.07476 0.64764 0.59314 0.0
C2695 C 0.99328 0.62275 0.57586 0.0
H2696 H 0.03993 0.66436 0.66748 0.0
H2697 H 0.03626 0.71411 0.61523 0.0
H2698 H 0.02031 0.61145 0.6245 0.0
H2699 H 0.04892 0.61803 0.6299 0.0
H2700 H 0.03482 0.62321 0.65519 0.0
H2701 H 0.0277 0.70158 0.57215 0.0
H2702 H 0.04574 0.68199 0.56617 0.0
H2703 H 0.01756 0.67028 0.56079 0.0
H2704 H 0.07097 0.60643 0.56275 0.0
H2705 H 1.00256 0.58584 0.54765 0.0
H2706 H 0.07706 0.64602 0.61316 0.0
H2707 H 0.07391 0.66647 0.5914 0.0
H2708 H 0.08896 0.64351 0.58567 0.0
H2709 H 0.99058 0.61766 0.59413 0.0
H2710 H 0.98038 0.61161 0.56144 0.0
H2711 H 0.99205 0.64175 0.57617 0.0
C2712 C 0.61181 0.82805 0.84752 0.0
C2713 C 0.5917 0.82923 0.83477 0.0
C2714 C 0.62697 0.8197 0.83499 0.0
C2715 C 0.62201 0.81285 0.80903 0.0
C2716 C 0.60254 0.81616 0.79579 0.0
C2717 C 0.58744 0.82404 0.80888 0.0
C2718 C 0.64769 0.81671 0.84976 0.0
C2719 C 0.59728 0.81031 0.76798 0.0
C2720 C 0.67023 0.80016 0.78232 0.0
C2721 C 0.6676 0.77534 0.78221 0.0
C2722 C 0.65459 0.8125 0.78896 0.0
C2723 C 0.63624 0.79985 0.79646 0.0
C2724 C 0.63282 0.77465 0.79483 0.0
C2725 C 0.64836 0.76269 0.78733 0.0
C2726 C 0.65863 0.83924 0.7895 0.0
C2727 C 0.61349 0.76046 0.80278 0.0
H2728 H 0.61522 0.83217 0.86753 0.0
H2729 H 0.57199 0.82525 0.79892 0.0
H2730 H 0.64852 0.7975 0.84793 0.0
H2731 H 0.66148 0.82623 0.84244 0.0
H2732 H 0.64939 0.82362 0.86971 0.0
H2733 H 0.58304 0.8171 0.76025 0.0
H2734 H 0.61109 0.81807 0.75955 0.0
H2735 H 0.59403 0.79066 0.76253 0.0
H2736 H 0.68501 0.81029 0.77858 0.0
H2737 H 0.64586 0.74346 0.78658 0.0
H2738 H 0.66857 0.84796 0.80747 0.0
H2739 H 0.64358 0.8461 0.7873 0.0
H2740 H 0.66757 0.84458 0.7746 0.0
H2741 H 0.61416 0.76546 0.82294 0.0
H2742 H 0.61254 0.74089 0.79896 0.0
H2743 H 0.59859 0.76465 0.79317 0.0
C2744 C 0.49805 0.51425 0.71288 0.0
C2745 C 0.47588 0.51008 0.71223 0.0
C2746 C 0.50684 0.5185 0.69155 0.0
C2747 C 0.49313 0.51879 0.6691 0.0
C2748 C 0.47071 0.51399 0.66821 0.0
C2749 C 0.46236 0.50961 0.68975 0.0
C2750 C 0.53083 0.52328 0.69319 0.0
C2751 C 0.45556 0.51424 0.64469 0.0
C2752 C 0.51819 0.55556 0.62381 0.0
C2753 C 0.52325 0.53794 0.60735 0.0
C2754 C 0.50773 0.54948 0.64351 0.0
C2755 C 0.50235 0.5252 0.6469 0.0
C2756 C 0.50662 0.50725 0.62969 0.0
C2757 C 0.51691 0.51383 0.61002 0.0
C2758 C 0.50318 0.56914 0.66123 0.0
C2759 C 0.5012 0.48118 0.63267 0.0
H2760 H 0.50858 0.5146 0.73017 0.0
H2761 H 0.44519 0.50645 0.68911 0.0
H2762 H 0.53533 0.51098 0.67882 0.0
H2763 H 0.5366 0.54176 0.68964 0.0
H2764 H 0.5392 0.5211 0.71161 0.0
H2765 H 0.43853 0.50893 0.64672 0.0
H2766 H 0.45819 0.53243 0.63933 0.0
H2767 H 0.45874 0.50196 0.62932 0.0
H2768 H 0.523 0.5742 0.62175 0.0
H2769 H 0.52082 0.50012 0.59735 0.0
H2770 H 0.51275 0.56986 0.6798 0.0
H2771 H 0.48607 0.56543 0.66322 0.0
H2772 H 0.50707 0.58694 0.65509 0.0
H2773 H 0.5109 0.47809 0.64988 0.0
H2774 H 0.50429 0.46934 0.61684 0.0
H2775 H 0.48414 0.47599 0.6345 0.0
C2776 C 0.77063 0.20928 0.03868 0.0
C2777 C 0.79135 0.20753 0.03486 0.0
C2778 C 0.75755 0.21974 0.02231 0.0
C2779 C 0.76538 0.22818 1.00159 0.0
C2780 C 0.78622 0.22608 0.99759 0.0
C2781 C 0.79891 0.21589 0.01432 0.0
C2782 C 0.73541 0.22139 0.02713 0.0
C2783 C 0.79533 0.23479 0.9757 0.0
C2784 C 0.74 0.23843 0.94022 0.0
C2785 C 0.74876 0.26288 0.94202 0.0
C2786 C 0.74192 0.22675 0.96114 0.0
C2787 C 0.75267 0.24002 0.98406 0.0
C2788 C 0.75726 0.26525 0.98676 0.0
C2789 C 0.75541 0.27648 0.96556 0.0
C2790 C 0.73572 0.19988 0.95784 0.0
C2791 C 0.76764 0.28012 0.01125 0.0
H2792 H 0.7647 0.20265 0.05451 0.0
H2793 H 0.81487 0.21445 0.01125 0.0
H2794 H 0.73084 0.23805 0.02188 0.0
H2795 H 0.7237 0.20608 0.01585 0.0
H2796 H 0.73413 0.22061 0.04689 0.0
H2797 H 0.81163 0.23129 0.97513 0.0
H2798 H 0.78481 0.22587 0.95817 0.0
H2799 H 0.7962 0.25431 0.97649 0.0
H2800 H 0.73391 0.22799 0.92214 0.0
H2801 H 0.76177 0.29549 0.96733 0.0
H2802 H 0.72957 0.19372 0.97425 0.0
H2803 H 0.75005 0.19223 0.9557 0.0
H2804 H 0.72339 0.19285 0.9411 0.0
H2805 H 0.7611 0.27241 0.02677 0.0
H2806 H 0.76533 0.29883 0.01176 0.0
H2807 H 0.78508 0.28046 0.01412 0.0
C2808 C 0.12545 0.49576 0.22971 0.0
C2809 C 0.14203 0.51453 0.24255 0.0
C2810 C 0.11355 0.49721 0.20601 0.0
C2811 C 0.1175 0.51821 0.19438 0.0
C2812 C 0.1342 0.53719 0.20736 0.0
C2813 C 0.1462 0.53502 0.23065 0.0
C2814 C 0.09658 0.47603 0.19332 0.0
C2815 C 0.13914 0.56028 0.19687 0.0
C2816 C 0.09535 0.51892 0.12377 0.0
C2817 C 0.07573 0.52631 0.12443 0.0
C2818 C 0.10887 0.51594 0.14591 0.0
C2819 C 0.10331 0.52103 0.1699 0.0
C2820 C 0.08381 0.52913 0.17046 0.0
C2821 C 0.07043 0.53125 0.14819 0.0
C2822 C 0.12912 0.50702 0.1435 0.0
C2823 C 0.07691 0.53572 0.19485 0.0
H2824 H 0.12182 0.47969 0.23812 0.0
H2825 H 0.15875 0.54986 0.23992 0.0
H2826 H 0.08059 0.48075 0.19217 0.0
H2827 H 0.09909 0.47109 0.1741 0.0
H2828 H 0.09656 0.46025 0.20322 0.0
H2829 H 0.15234 0.57352 0.20895 0.0
H2830 H 0.14365 0.5568 0.17838 0.0
H2831 H 0.12467 0.5682 0.19439 0.0
H2832 H 0.09989 0.51472 0.10589 0.0
H2833 H 0.0555 0.53699 0.14948 0.0
H2834 H 0.13067 0.49262 0.15503 0.0
H2835 H 0.14312 0.52182 0.15026 0.0
H2836 H 0.12966 0.50015 0.12403 0.0
H2837 H 0.07413 0.51979 0.20445 0.0
H2838 H 0.06204 0.54297 0.19256 0.0
H2839 H 0.08978 0.54928 0.20703 0.0
C2840 C 0.82121 0.84876 0.50534 0.0
C2841 C 0.82196 0.8734 0.51032 0.0
C2842 C 0.81834 0.8371 0.48088 0.0
C2843 C 0.81631 0.85039 0.46083 0.0
C2844 C 0.81684 0.87522 0.46577 0.0
C2845 C 0.81959 0.88638 0.49038 0.0
C2846 C 0.81775 0.8106 0.47649 0.0
C2847 C 0.81486 0.89013 0.44504 0.0
C2848 C 0.83112 0.82721 0.39946 0.0
C2849 C 0.811 0.81812 0.38463 0.0
C2850 C 0.83304 0.83744 0.42427 0.0
C2851 C 0.81441 0.83857 0.43475 0.0
C2852 C 0.79405 0.829 0.42006 0.0
C2853 C 0.79259 0.81898 0.39521 0.0
C2854 C 0.85506 0.84749 0.43915 0.0
C2855 C 0.77378 0.82964 0.4305 0.0
H2856 H 0.82298 0.83856 0.52061 0.0
H2857 H 0.82016 0.90541 0.49402 0.0
H2858 H 0.80282 0.80133 0.46385 0.0
H2859 H 0.83133 0.80721 0.46736 0.0
H2860 H 0.81864 0.80263 0.49394 0.0
H2861 H 0.81506 0.90909 0.45189 0.0
H2862 H 0.82824 0.88951 0.4346 0.0
H2863 H 0.79978 0.88273 0.43186 0.0
H2864 H 0.84549 0.82674 0.39159 0.0
H2865 H 0.77696 0.81197 0.38404 0.0
H2866 H 0.85726 0.83898 0.45614 0.0
H2867 H 0.85681 0.86693 0.44508 0.0
H2868 H 0.86797 0.84475 0.42851 0.0
H2869 H 0.77414 0.8209 0.44743 0.0
H2870 H 0.75924 0.8206 0.41705 0.0
H2871 H 0.77258 0.84844 0.43592 0.0
C2872 C 0.472 0.52614 0.86926 0.0
C2873 C 0.48311 0.52156 0.8498 0.0
C2874 C 0.48235 0.53045 0.89398 0.0
C2875 C 0.50446 0.53039 0.89947 0.0
C2876 C 0.51592 0.52633 0.87989 0.0
C2877 C 0.50507 0.52183 0.85526 0.0
C2878 C 0.46946 0.53443 0.91426 0.0
C2879 C 0.53953 0.52633 0.885 0.0
C2880 C 0.5321 0.55762 0.96501 0.0
C2881 C 0.53159 0.53722 0.97687 0.0
C2882 C 0.52401 0.55569 0.9396 0.0
C2883 C 0.51506 0.53285 0.92578 0.0
C2884 C 0.51495 0.51222 0.93754 0.0
C2885 C 0.52325 0.51465 0.96282 0.0
C2886 C 0.5246 0.5781 0.92768 0.0
C2887 C 0.50542 0.48755 0.92358 0.0
H2888 H 0.45503 0.52601 0.8652 0.0
H2889 H 0.51378 0.51846 0.8403 0.0
H2890 H 0.46948 0.5199 0.9259 0.0
H2891 H 0.47682 0.55149 0.92647 0.0
H2892 H 0.45261 0.5349 0.90687 0.0
H2893 H 0.54643 0.52461 0.86775 0.0
H2894 H 0.54827 0.54306 0.89698 0.0
H2895 H 0.54227 0.51127 0.89513 0.0
H2896 H 0.5386 0.57513 0.97561 0.0
H2897 H 0.52276 0.49871 0.97167 0.0
H2898 H 0.50804 0.58053 0.92178 0.0
H2899 H 0.53206 0.57653 0.91086 0.0
H2900 H 0.5336 0.59429 0.94043 0.0
H2901 H 0.48808 0.48606 0.91699 0.0
H2902 H 0.50743 0.47325 0.93515 0.0
H2903 H 0.51297 0.48439 0.90703 0.0
C2904 C 0.86142 0.22845 0.16338 0.0
C2905 C 0.85897 0.23288 0.13881 0.0
C2906 C 0.86168 0.24657 0.18271 0.0
C2907 C 0.85929 0.26948 0.1772 0.0
C2908 C 0.85952 0.27475 0.15282 0.0
C2909 C 0.85936 0.25632 0.13383 0.0
C2910 C 0.86198 0.24043 0.20858 0.0
C2911 C 0.85766 0.29916 0.14634 0.0
C2912 C 0.823 0.29624 0.21515 0.0
C2913 C 0.83772 0.31198 0.23354 0.0
C2914 C 0.8299 0.28303 0.19616 0.0
C2915 C 0.85209 0.28582 0.19551 0.0
C2916 C 0.86697 0.3028 0.21327 0.0
C2917 C 0.85957 0.31575 0.23218 0.0
C2918 C 0.81345 0.26511 0.1776 0.0
C2919 C 0.89071 0.30642 0.21317 0.0
H2920 H 0.86149 0.21044 0.16737 0.0
H2921 H 0.85783 0.25995 0.11487 0.0
H2922 H 0.84579 0.23967 0.21328 0.0
H2923 H 0.86655 0.22293 0.21042 0.0
H2924 H 0.8732 0.25444 0.22217 0.0
H2925 H 0.86235 0.30174 0.12809 0.0
H2926 H 0.84084 0.30127 0.14556 0.0
H2927 H 0.86778 0.3134 0.16067 0.0
H2928 H 0.80611 0.29348 0.21626 0.0
H2929 H 0.87096 0.32793 0.24653 0.0
H2930 H 0.81582 0.24677 0.17968 0.0
H2931 H 0.81538 0.26812 0.15848 0.0
H2932 H 0.79681 0.26609 0.17994 0.0
H2933 H 0.897 0.29191 0.22151 0.0
H2934 H 0.89943 0.32374 0.2241 0.0
H2935 H 0.8942 0.30574 0.19404 0.0
C2936 C 0.12544 0.5306 0.38055 0.0
C2937 C 0.14376 0.52017 0.3814 0.0
C2938 C 0.11413 0.53299 0.40107 0.0
C2939 C 0.12017 0.52393 0.42361 0.0
C2940 C 0.1384 0.51291 0.42436 0.0
C2941 C 0.14998 0.51167 0.40393 0.0
C2942 C 0.09567 0.54573 0.39865 0.0
C2943 C 0.14559 0.5019 0.44682 0.0
C2944 C 0.10255 0.54613 0.48685 0.0
C2945 C 0.08364 0.52954 0.48792 0.0
C2946 C 0.11409 0.54479 0.4664 0.0
C2947 C 0.10756 0.52585 0.44599 0.0
C2948 C 0.08871 0.50879 0.44724 0.0
C2949 C 0.07708 0.51101 0.4675 0.0
C2950 C 0.13333 0.56414 0.46656 0.0
C2951 C 0.08081 0.48771 0.4271 0.0
H2952 H 0.1201 0.53751 0.36378 0.0
H2953 H 0.16381 0.5034 0.40547 0.0
H2954 H 0.08057 0.53303 0.39889 0.0
H2955 H 0.09788 0.56004 0.41462 0.0
H2956 H 0.09395 0.55379 0.38129 0.0
H2957 H 0.1587 0.49228 0.44421 0.0
H2958 H 0.15125 0.516 0.46308 0.0
H2959 H 0.13192 0.48921 0.45115 0.0
H2960 H 0.10826 0.56067 0.50199 0.0
H2961 H 0.06282 0.49772 0.46749 0.0
H2962 H 0.13174 0.5718 0.44896 0.0
H2963 H 0.14794 0.55648 0.46794 0.0
H2964 H 0.13552 0.57877 0.48223 0.0
H2965 H 0.0757 0.49398 0.40935 0.0
H2966 H 0.06712 0.47493 0.43126 0.0
H2967 H 0.09395 0.47816 0.42447 0.0
C2968 C 0.83968 0.88481 0.67053 0.0
C2969 C 0.83291 0.87254 0.64637 0.0
C2970 C 0.83703 0.87311 0.69138 0.0
C2971 C 0.82724 0.84853 0.68811 0.0
C2972 C 0.82113 0.83589 0.66376 0.0
C2973 C 0.82405 0.84799 0.64328 0.0
C2974 C 0.84398 0.88728 0.71691 0.0
C2975 C 0.81069 0.80972 0.65926 0.0
C2976 C 0.82778 0.81164 0.74214 0.0
C2977 C 0.80742 0.81174 0.74815 0.0
C2978 C 0.83475 0.82387 0.72298 0.0
C2979 C 0.82111 0.83668 0.70972 0.0
C2980 C 0.80082 0.83731 0.71638 0.0
C2981 C 0.79428 0.82486 0.73534 0.0
C2982 C 0.85658 0.82285 0.71675 0.0
C2983 C 0.78566 0.85062 0.70298 0.0
H2984 H 0.84665 0.90373 0.67318 0.0
H2985 H 0.81884 0.83826 0.62475 0.0
H2986 H 0.82971 0.88886 0.72551 0.0
H2987 H 0.854 0.8779 0.72889 0.0
H2988 H 0.85315 0.90553 0.71653 0.0
H2989 H 0.80845 0.80197 0.63947 0.0
H2990 H 0.82049 0.79951 0.67046 0.0
H2991 H 0.79481 0.80735 0.66517 0.0
H2992 H 0.83796 0.80143 0.75187 0.0
H2993 H 0.77855 0.82515 0.73994 0.0
H2994 H 0.8672 0.84072 0.72238 0.0
H2995 H 0.85562 0.81816 0.69651 0.0
H2996 H 0.864 0.80966 0.72631 0.0
H2997 H 0.79358 0.86955 0.70364 0.0
H2998 H 0.7708 0.85015 0.711 0.0
H2999 H 0.78119 0.84266 0.68321 0.0
C3000 C 0.68816 0.44114 0.50887 0.0
C3001 C 0.6936 0.4203 0.51642 0.0
C3002 C 0.67875 0.45579 0.52402 0.0
C3003 C 0.67492 0.44943 0.54725 0.0
C3004 C 0.67834 0.42721 0.55378 0.0
C3005 C 0.6876 0.41276 0.53814 0.0
C3006 C 0.67454 0.47901 0.51604 0.0
C3007 C 0.67392 0.41964 0.57814 0.0
C3008 C 0.6813 0.5042 0.59452 0.0
C3009 C 0.66003 0.50628 0.59384 0.0
C3010 C 0.68632 0.48466 0.58064 0.0
C3011 C 0.6696 0.46725 0.56554 0.0
C3012 C 0.64806 0.46874 0.56588 0.0
C3013 C 0.64358 0.48841 0.57985 0.0
C3014 C 0.70951 0.48347 0.58088 0.0
C3015 C 0.62973 0.45082 0.54994 0.0
H3016 H 0.69257 0.44683 0.49193 0.0
H3017 H 0.6917 0.39656 0.54397 0.0
H3018 H 0.65821 0.48122 0.51846 0.0
H3019 H 0.68605 0.49419 0.52782 0.0
H3020 H 0.67619 0.48003 0.49642 0.0
H3021 H 0.67446 0.40054 0.57884 0.0
H3022 H 0.68608 0.43066 0.59338 0.0
H3023 H 0.65802 0.42262 0.58156 0.0
H3024 H 0.69395 0.51831 0.60504 0.0
H3025 H 0.6272 0.49068 0.57845 0.0
H3026 H 0.7139 0.48675 0.56268 0.0
H3027 H 0.71215 0.46541 0.5839 0.0
H3028 H 0.72038 0.49688 0.59549 0.0
H3029 H 0.62744 0.45566 0.53098 0.0
H3030 H 0.61455 0.45074 0.55722 0.0
H3031 H 0.633 0.4325 0.54856 0.0
C3032 C 0.2064 0.11112 0.52553 0.0
C3033 C 0.21415 0.13496 0.53644 0.0
C3034 C 0.18611 0.09859 0.52833 0.0
C3035 C 0.1733 0.11 0.5427 0.0
C3036 C 0.18095 0.13419 0.55342 0.0
C3037 C 0.20112 0.14635 0.55004 0.0
C3038 C 0.17853 0.07296 0.51628 0.0
C3039 C 0.16811 0.14706 0.56914 0.0
C3040 C 0.11358 0.08302 0.53757 0.0
C3041 C 0.11356 0.07 0.5576 0.0
C3042 C 0.13282 0.09607 0.53243 0.0
C3043 C 0.15255 0.09631 0.54778 0.0
C3044 C 0.15248 0.08354 0.5683 0.0
C3045 C 0.13308 0.07049 0.57285 0.0
C3046 C 0.13206 0.10927 0.51029 0.0
C3047 C 0.17295 0.08355 0.58548 0.0
H3048 H 0.21628 0.10215 0.51495 0.0
H3049 H 0.20694 0.16473 0.55865 0.0
H3050 H 0.1771 0.0611 0.53072 0.0
H3051 H 0.16242 0.07057 0.50492 0.0
H3052 H 0.1896 0.06714 0.50432 0.0
H3053 H 0.17582 0.16612 0.57532 0.0
H3054 H 0.15187 0.14613 0.5587 0.0
H3055 H 0.16613 0.13818 0.58574 0.0
H3056 H 0.0986 0.08255 0.52557 0.0
H3057 H 0.1332 0.06053 0.5884 0.0
H3058 H 0.14146 0.10196 0.49707 0.0
H3059 H 0.13949 0.12843 0.51611 0.0
H3060 H 0.11545 0.10786 0.50056 0.0
H3061 H 0.18409 0.07579 0.57502 0.0
H3062 H 0.17016 0.0732 0.60093 0.0
H3063 H 0.181 0.10216 0.59338 0.0
C3064 C 0.18295 0.99904 0.81185 0.0
C3065 C 0.18304 1.01108 0.83539 0.0
C3066 C 0.19414 0.98055 0.80882 0.0
C3067 C 0.20532 0.97357 0.8299 0.0
C3068 C 0.20451 0.98478 0.85384 0.0
C3069 C 0.19356 1.00367 0.8563 0.0
C3070 C 0.19491 0.96934 0.78295 0.0
C3071 C 0.21575 0.97735 0.87676 0.0
C3072 C 0.2239 0.91529 0.81642 0.0
C3073 C 0.24505 0.92359 0.81324 0.0
C3074 C 0.21108 0.93131 0.82334 0.0
C3075 C 0.21944 0.95619 0.82653 0.0
C3076 C 0.24098 0.96463 0.82428 0.0
C3077 C 0.25358 0.94824 0.81808 0.0
C3078 C 0.18834 0.92165 0.82627 0.0
C3079 C 0.25046 0.99104 0.82724 0.0
H3080 H 0.17483 1.00474 0.79563 0.0
H3081 H 0.19349 1.01282 0.87454 0.0
H3082 H 0.21159 0.97324 0.77938 0.0
H3083 H 0.18978 0.94965 0.78098 0.0
H3084 H 0.18456 0.97607 0.76858 0.0
H3085 H 0.21123 0.98556 0.8939 0.0
H3086 H 0.21197 0.95763 0.87583 0.0
H3087 H 0.23331 0.98284 0.87799 0.0
H3088 H 0.21708 0.89633 0.8127 0.0
H3089 H 0.2701 0.95485 0.81652 0.0
H3090 H 0.17715 0.92522 0.81054 0.0
H3091 H 0.18466 0.93075 0.84347 0.0
H3092 H 0.1853 0.90209 0.82681 0.0
H3093 H 0.24174 0.9993 0.81277 0.0
H3094 H 0.26769 0.99464 0.82572 0.0
H3095 H 0.24863 0.99999 0.84544 0.0
C3096 C 0.3341 1.0052 0.04375 0.0
C3097 C 0.33322 0.98768 0.02361 0.0
C3098 C 0.34958 0.02647 0.04783 0.0
C3099 C 0.36503 0.02951 0.0321 0.0
C3100 C 0.36293 1.01275 0.01054 0.0
C3101 C 0.34673 0.99224 1.00633 0.0
C3102 C 0.35023 0.04471 0.06994 0.0
C3103 C 0.37908 1.01512 0.99323 0.0
C3104 C 0.41137 0.07864 0.02936 0.0
C3105 C 0.42813 0.06962 0.04156 0.0
C3106 C 0.39 0.06776 0.02914 0.0
C3107 C 0.3856 0.04683 0.04031 0.0
C3108 C 0.40242 0.03948 0.05503 0.0
C3109 C 0.4235 0.05128 0.05579 0.0
C3110 C 0.37238 0.07733 0.015 0.0
C3111 C 0.39856 0.01725 0.06731 0.0
H3112 H 0.32328 1.00189 0.05685 0.0
H3113 H 0.3459 0.97877 0.99062 0.0
H3114 H 0.35957 0.03998 0.08651 0.0
H3115 H 0.35778 0.06294 0.06713 0.0
H3116 H 0.33384 0.04489 0.07383 0.0
H3117 H 0.3748 1.00077 0.97705 0.0
H3118 H 0.38041 0.03257 0.98629 0.0
H3119 H 0.39508 1.01436 1.00331 0.0
H3120 H 0.41497 0.09311 0.01866 0.0
H3121 H 0.43647 0.0443 0.06525 0.0
H3122 H 0.3573 0.0732 0.02254 0.0
H3123 H 0.36928 0.0691 0.99534 0.0
H3124 H 0.37708 0.09697 0.01557 0.0
H3125 H 0.386 0.018 0.07891 0.0
H3126 H 0.41324 1.01481 0.07917 0.0
H3127 H 0.39287 1.0013 0.05295 0.0
C3128 C 0.87773 0.62423 0.81317 0.0
C3129 C 0.89203 0.62079 0.79644 0.0
C3130 C 0.86727 0.64445 0.81477 0.0
C3131 C 0.87007 0.66242 0.79882 0.0
C3132 C 0.88427 0.65883 0.78164 0.0
C3133 C 0.89503 0.63883 0.78094 0.0
C3134 C 0.85323 0.6467 0.83408 0.0
C3135 C 0.88802 0.6762 0.76348 0.0
C3136 C 0.82648 0.70325 0.78874 0.0
C3137 C 0.8362 0.726 0.8025 0.0
C3138 C 0.83711 0.68317 0.7871 0.0
C3139 C 0.85835 0.68451 0.80005 0.0
C3140 C 0.86814 0.70736 0.81422 0.0
C3141 C 0.85737 0.72735 0.81496 0.0
C3142 C 0.82545 0.66028 0.77102 0.0
C3143 C 0.89024 0.71075 0.82912 0.0
H3144 H 0.87487 0.61112 0.82558 0.0
H3145 H 0.9057 0.63715 0.76771 0.0
H3146 H 0.85846 0.66449 0.84566 0.0
H3147 H 0.83649 0.64542 0.82499 0.0
H3148 H 0.85353 0.63265 0.8463 0.0
H3149 H 0.89793 0.67046 0.75 0.0
H3150 H 0.87249 0.6782 0.75318 0.0
H3151 H 0.8962 0.69405 0.77355 0.0
H3152 H 0.81035 0.70108 0.77873 0.0
H3153 H 0.86563 0.74421 0.82589 0.0
H3154 H 0.82255 0.64584 0.78259 0.0
H3155 H 0.83544 0.65468 0.75758 0.0
H3156 H 0.80985 0.66205 0.76068 0.0
H3157 H 0.89074 0.69676 0.84138 0.0
H3158 H 0.89536 0.72858 0.84065 0.0
H3159 H 0.90192 0.70878 0.81655 0.0
C3160 C 0.84706 0.64673 0.04851 0.0
C3161 C 0.82632 0.63361 0.039 0.0
C3162 C 0.86493 0.6358 0.04977 0.0
C3163 C 0.86215 0.61111 0.04112 0.0
C3164 C 0.84126 0.5978 0.03126 0.0
C3165 C 0.82362 0.60917 0.03041 0.0
C3166 C 0.8868 0.65068 0.06064 0.0
C3167 C 0.83755 0.5715 0.0217 0.0
C3168 C 0.91123 0.58716 0.02647 0.0
C3169 C 0.91698 0.57677 0.04764 0.0
C3170 C 0.89336 0.59818 0.02396 0.0
C3171 C 0.88101 0.59912 0.04319 0.0
C3172 C 0.88691 0.5889 0.0647 0.0
C3173 C 0.90469 0.57785 0.06661 0.0
C3174 C 0.8876 0.60868 1.00065 0.0
C3175 C 0.87448 0.58975 0.08582 0.0
H3176 H 0.84935 0.66562 0.05521 0.0
H3177 H 0.80769 0.5989 0.02294 0.0
H3178 H 0.89367 0.64345 0.0771 0.0
H3179 H 0.89776 0.64978 0.04701 0.0
H3180 H 0.88634 0.66972 0.06624 0.0
H3181 H 0.82049 0.56383 0.01383 0.0
H3182 H 0.84739 0.56853 1.0072 0.0
H3183 H 0.84262 0.56162 0.03691 0.0
H3184 H 0.92048 0.58628 0.01163 0.0
H3185 H 0.90916 0.57023 0.08321 0.0
H3186 H 0.88801 0.62804 1.00527 0.0
H3187 H 0.87105 0.60014 0.99154 0.0
H3188 H 0.89862 0.60629 0.9873 0.0
H3189 H 0.87464 0.60858 0.09304 0.0
H3190 H 0.8811 0.58098 0.10128 0.0
H3191 H 0.85753 0.58079 0.07919 0.0
C3192 C 0.20111 0.15677 0.85194 0.0
C3193 C 0.20512 0.13365 0.84761 0.0
C3194 C 0.2169 0.17692 0.85103 0.0
C3195 C 0.23695 0.17377 0.84514 0.0
C3196 C 0.24119 0.15047 0.8413 0.0
C3197 C 0.22531 0.13074 0.84283 0.0
C3198 C 0.21191 0.20151 0.85564 0.0
C3199 C 0.26218 0.14627 0.83452 0.0
C3200 C 0.26854 0.21986 0.81329 0.0
C3201 C 0.2855 0.23096 0.83225 0.0
C3202 C 0.25237 0.20161 0.81742 0.0
C3203 C 0.25303 0.19452 0.84122 0.0
C3204 C 0.26983 0.20618 0.86066 0.0
C3205 C 0.28605 0.22412 0.85585 0.0
C3206 C 0.23496 0.18944 0.79609 0.0
C3207 C 0.27078 0.19951 0.88641 0.0
H3208 H 0.18555 0.15911 0.85573 0.0
H3209 H 0.22849 0.11291 0.83938 0.0
H3210 H 0.22502 0.21356 0.86905 0.0
H3211 H 0.21067 0.20931 0.83814 0.0
H3212 H 0.19666 0.20113 0.86281 0.0
H3213 H 0.26322 0.12711 0.83294 0.0
H3214 H 0.26416 0.15258 0.81656 0.0
H3215 H 0.27572 0.15665 0.84858 0.0
H3216 H 0.2682 0.22508 0.79499 0.0
H3217 H 0.29908 0.2329 0.87056 0.0
H3218 H 0.21904 0.19062 0.80083 0.0
H3219 H 0.23543 0.1702 0.7924 0.0
H3220 H 0.23656 0.19741 0.77886 0.0
H3221 H 0.25536 0.20012 0.89287 0.0
H3222 H 0.28387 0.21157 0.89987 0.0
H3223 H 0.2733 0.18094 0.88624 0.0
C3224 C 0.40052 0.96685 0.304 0.0
C3225 C 0.39001 0.98349 0.2929 0.0
C3226 C 0.38995 0.94295 0.30509 0.0
C3227 C 0.36785 0.93457 0.29502 0.0
C3228 C 0.35713 0.95123 0.28365 0.0
C3229 C 0.36815 0.97509 0.28269 0.0
C3230 C 0.40263 0.92649 0.31709 0.0
C3231 C 0.33377 0.94382 0.27246 0.0
C3232 C 0.34416 0.86539 0.28053 0.0
C3233 C 0.33484 0.86013 0.30144 0.0
C3234 C 0.35477 0.88902 0.27819 0.0
C3235 C 0.3561 0.9088 0.29691 0.0
C3236 C 0.34651 0.90359 0.3179 0.0
C3237 C 0.33631 0.87977 0.31993 0.0
C3238 C 0.36449 0.89272 0.25535 0.0
C3239 C 0.34702 0.92336 0.3385 0.0
H3240 H 0.41731 0.97253 0.31199 0.0
H3241 H 0.35951 0.98727 0.27398 0.0
H3242 H 0.39562 0.92057 0.33312 0.0
H3243 H 0.40178 0.91025 0.30376 0.0
H3244 H 0.4197 0.93513 0.3236 0.0
H3245 H 0.32742 0.95852 0.26449 0.0
H3246 H 0.33139 0.92839 0.25765 0.0
H3247 H 0.32433 0.93793 0.28673 0.0
H3248 H 0.34334 0.85089 0.26587 0.0
H3249 H 0.32931 0.87659 0.33624 0.0
H3250 H 0.38044 0.90484 0.26011 0.0
H3251 H 0.35404 0.90114 0.24277 0.0
H3252 H 0.36625 0.87557 0.24524 0.0
H3253 H 0.36384 0.93158 0.34684 0.0
H3254 H 0.33845 0.91693 0.35329 0.0
H3255 H 0.33963 0.9376 0.33099 0.0
C3256 C 0.5951 0.37302 0.61378 0.0
C3257 C 0.58708 0.36927 0.63564 0.0
C3258 C 0.59384 0.39402 0.60311 0.0
C3259 C 0.58374 0.41142 0.6141 0.0
C3260 C 0.57587 0.4078 0.63634 0.0
C3261 C 0.57782 0.38697 0.64693 0.0
C3262 C 0.60363 0.39783 0.58031 0.0
C3263 C 0.56508 0.42583 0.64879 0.0
C3264 C 0.59077 0.47552 0.5987 0.0
C3265 C 0.57247 0.47419 0.58101 0.0
C3266 C 0.59524 0.45512 0.60882 0.0
C3267 C 0.58057 0.43291 0.60191 0.0
C3268 C 0.56206 0.43148 0.58408 0.0
C3269 C 0.55838 0.45193 0.57373 0.0
C3270 C 0.61536 0.4578 0.62753 0.0
C3271 C 0.54575 0.40842 0.57637 0.0
H3272 H 0.60258 0.35964 0.60513 0.0
H3273 H 0.57161 0.38428 0.66384 0.0
H3274 H 0.61089 0.38267 0.57389 0.0
H3275 H 0.59137 0.40034 0.56507 0.0
H3276 H 0.61621 0.41437 0.5844 0.0
H3277 H 0.55951 0.42028 0.66578 0.0
H3278 H 0.57636 0.44334 0.65385 0.0
H3279 H 0.55114 0.42845 0.63582 0.0
H3280 H 0.60144 0.49261 0.60499 0.0
H3281 H 0.54409 0.4505 0.56017 0.0
H3282 H 0.62076 0.44068 0.62876 0.0
H3283 H 0.61235 0.46471 0.646 0.0
H3284 H 0.62857 0.47083 0.62286 0.0
H3285 H 0.55345 0.39409 0.56889 0.0
H3286 H 0.53227 0.41013 0.56214 0.0
H3287 H 0.5392 0.40266 0.59274 0.0
C3288 C 0.45384 0.76844 0.38117 0.0
C3289 C 0.45766 0.76547 0.40621 0.0
C3290 C 0.4334 0.77017 0.36936 0.0
C3291 C 0.41619 0.76885 0.38282 0.0
C3292 C 0.41994 0.76577 0.4081 0.0
C3293 C 0.44057 0.76416 0.41946 0.0
C3294 C 0.4302 0.77342 0.34241 0.0
C3295 C 0.40213 0.76409 0.42315 0.0
C3296 C 0.36724 0.7925 0.35575 0.0
C3297 C 0.35362 0.77151 0.34296 0.0
C3298 C 0.38746 0.79191 0.36924 0.0
C3299 C 0.39416 0.76979 0.37014 0.0
C3300 C 0.38004 0.7485 0.35803 0.0
C3301 C 0.36006 0.74964 0.34461 0.0
C3302 C 0.40194 0.81503 0.38187 0.0
C3303 C 0.38628 0.7245 0.3586 0.0
H3304 H 0.46692 0.76961 0.37078 0.0
H3305 H 0.44334 0.76198 0.43884 0.0
H3306 H 0.41817 0.75819 0.33146 0.0
H3307 H 0.42392 0.78988 0.34007 0.0
H3308 H 0.44526 0.77467 0.33466 0.0
H3309 H 0.40766 0.76205 0.44267 0.0
H3310 H 0.39517 0.78035 0.42296 0.0
H3311 H 0.38911 0.74862 0.41481 0.0
H3312 H 0.36243 0.80947 0.3545 0.0
H3313 H 0.34959 0.73331 0.33487 0.0
H3314 H 0.4165 0.81831 0.37324 0.0
H3315 H 0.40723 0.81386 0.40165 0.0
H3316 H 0.394 0.83054 0.38063 0.0
H3317 H 0.40026 0.72399 0.34914 0.0
H3318 H 0.37307 0.70951 0.34942 0.0
H3319 H 0.39113 0.72167 0.37799 0.0
C3320 C 0.07549 0.71459 0.14345 0.0
C3321 C 0.0763 0.73342 0.12927 0.0
C3322 C 0.07272 0.69077 0.13231 0.0
C3323 C 0.07063 0.6855 0.10627 0.0
C3324 C 0.07143 0.70442 0.09182 0.0
C3325 C 0.07429 0.72814 0.10349 0.0
C3326 C 0.072 0.67122 0.14846 0.0
C3327 C 0.06921 0.69959 0.06402 0.0
C3328 C 0.08192 0.62524 0.08142 0.0
C3329 C 0.06127 0.61092 0.07529 0.0
C3330 C 0.08517 0.64965 0.0909 0.0
C3331 C 0.06738 0.66012 0.0943 0.0
C3332 C 0.04647 0.64595 0.08745 0.0
C3333 C 0.04368 0.6216 0.0781 0.0
C3334 C 0.10773 0.66407 0.09796 0.0
C3335 C 0.02703 0.65635 0.09062 0.0
H3336 H 0.07707 0.71847 0.16338 0.0
H3337 H 0.07491 0.74257 0.09239 0.0
H3338 H 0.05647 0.65838 0.14317 0.0
H3339 H 0.08475 0.66113 0.14564 0.0
H3340 H 0.07409 0.67829 0.16842 0.0
H3341 H 0.07027 0.71624 0.05543 0.0
H3342 H 0.0819 0.69032 0.05888 0.0
H3343 H 0.05361 0.68757 0.05612 0.0
H3344 H 0.09565 0.61728 0.07938 0.0
H3345 H 0.02762 0.61085 0.07335 0.0
H3346 H 0.11133 0.67005 0.11822 0.0
H3347 H 0.10941 0.68033 0.08877 0.0
H3348 H 0.11978 0.65371 0.0929 0.0
H3349 H 0.02726 0.66204 0.11056 0.0
H3350 H 1.01185 0.64338 0.08306 0.0
H3351 H 0.02727 0.67246 0.08126 0.0
C3352 C 0.07646 0.26117 0.89045 0.0
C3353 C 0.07726 0.26949 0.91553 0.0
C3354 C 0.09526 0.26241 0.88005 0.0
C3355 C 0.11545 0.27225 0.89503 0.0
C3356 C 0.11634 0.28055 0.9204 0.0
C3357 C 0.0973 0.27906 0.93031 0.0
C3358 C 0.09351 0.25331 0.85295 0.0
C3359 C 0.13744 0.29119 0.93707 0.0
C3360 C 0.16578 0.25753 0.87316 0.0
C3361 C 0.17349 0.27798 0.86282 0.0
C3362 C 0.14703 0.25544 0.88372 0.0
C3363 C 0.13558 0.27425 0.88408 0.0
C3364 C 0.14335 0.29501 0.87387 0.0
C3365 C 0.16211 0.2966 0.8634 0.0
C3366 C 0.13942 0.23303 0.89445 0.0
C3367 C 0.13171 0.3155 0.87378 0.0
H3368 H 0.06108 0.25373 0.87886 0.0
H3369 H 0.09812 0.28555 0.94971 0.0
H3370 H 0.1002 0.26804 0.84319 0.0
H3371 H 0.10304 0.23926 0.85068 0.0
H3372 H 0.07671 0.24582 0.84388 0.0
H3373 H 0.13549 0.29647 0.95646 0.0
H3374 H 0.14815 0.27816 0.93697 0.0
H3375 H 0.14552 0.30719 0.93008 0.0
H3376 H 0.1745 0.24312 0.87314 0.0
H3377 H 0.16762 0.31232 0.85514 0.0
H3378 H 0.12306 0.22428 0.88486 0.0
H3379 H 0.13853 0.23762 0.91428 0.0
H3380 H 0.15009 0.22004 0.89279 0.0
H3381 H 0.11526 0.30924 0.86317 0.0
H3382 H 0.13997 0.33056 0.86552 0.0
H3383 H 0.13022 0.32222 0.89296 0.0
C3384 C 0.54571 0.74786 0.89989 0.0
C3385 C 0.55345 0.77135 0.91179 0.0
C3386 C 0.54724 0.72836 0.91272 0.0
C3387 C 0.55671 0.73255 0.93801 0.0
C3388 C 0.5653 0.7562 0.94983 0.0
C3389 C 0.56356 0.77533 0.93656 0.0
C3390 C 0.53796 0.70336 0.89951 0.0
C3391 C 0.57554 0.76137 0.97678 0.0
C3392 C 0.53877 0.68927 0.98116 0.0
C3393 C 0.55618 0.67793 0.98508 0.0
C3394 C 0.53845 0.70648 0.96519 0.0
C3395 C 0.55598 0.7125 0.9528 0.0
C3396 C 0.57323 0.70043 0.95588 0.0
C3397 C 0.57311 0.68321 0.972 0.0
C3398 C 0.51967 0.71881 0.96224 0.0
C3399 C 0.59214 0.70637 0.94289 0.0
H3400 H 0.53796 0.7447 0.88068 0.0
H3401 H 0.56967 0.79346 0.94579 0.0
H3402 H 0.54974 0.6917 0.90247 0.0
H3403 H 0.52373 0.69562 0.90723 0.0
H3404 H 0.53308 0.70301 0.8793 0.0
H3405 H 0.58283 0.78059 0.98269 0.0
H3406 H 0.56333 0.75602 0.98842 0.0
H3407 H 0.5881 0.75077 0.98039 0.0
H3408 H 0.52547 0.68486 0.9909 0.0
H3409 H 0.58661 0.6745 0.97507 0.0
H3410 H 0.51287 0.7175 0.94237 0.0
H3411 H 0.5251 0.73808 0.9696 0.0
H3412 H 0.5068 0.7111 0.97209 0.0
H3413 H 0.58666 0.7058 0.92279 0.0
H3414 H 0.60329 0.69391 0.94548 0.0
H3415 H 0.60105 0.7248 0.95019 0.0
C3416 C 0.13791 0.73315 0.72122 0.0
C3417 C 0.12383 0.7414 0.73558 0.0
C3418 C 0.16 0.73882 0.72953 0.0
C3419 C 0.16813 0.75271 0.75294 0.0
C3420 C 0.15391 0.75936 0.76842 0.0
C3421 C 0.13183 0.75372 0.75946 0.0
C3422 C 0.17467 0.73134 0.71249 0.0
C3423 C 0.16203 0.77362 0.79377 0.0
C3424 C 0.22673 0.75443 0.77455 0.0
C3425 C 0.23628 0.77569 0.76691 0.0
C3426 C 0.20447 0.7474 0.77153 0.0
C3427 C 0.1915 0.76174 0.76011 0.0
C3428 C 0.20104 0.7837 0.75324 0.0
C3429 C 0.2234 0.79055 0.75698 0.0
C3430 C 0.19485 0.7242 0.77968 0.0
C3431 C 0.18766 0.79937 0.74081 0.0
H3432 H 0.13179 0.7235 0.70279 0.0
H3433 H 0.12096 0.76005 0.77066 0.0
H3434 H 0.18404 0.74744 0.70689 0.0
H3435 H 0.18623 0.72198 0.72219 0.0
H3436 H 0.16575 0.7194 0.69553 0.0
H3437 H 0.14903 0.77406 0.80487 0.0
H3438 H 0.17474 0.7661 0.80403 0.0
H3439 H 0.16917 0.79225 0.79187 0.0
H3440 H 0.23669 0.7431 0.78272 0.0
H3441 H 0.23077 0.80704 0.75118 0.0
H3442 H 0.1875 0.7108 0.76319 0.0
H3443 H 0.18199 0.72678 0.79041 0.0
H3444 H 0.20699 0.71682 0.79117 0.0
H3445 H 0.17899 0.7898 0.72253 0.0
H3446 H 0.19748 0.81652 0.73798 0.0
H3447 H 0.17547 0.80334 0.75202 0.0
C3448 C 0.06565 0.37231 0.47825 0.0
C3449 C 0.07168 0.37974 0.45648 0.0
C3450 C 0.06551 0.38899 0.49878 0.0
C3451 C 0.07178 0.41363 0.49754 0.0
C3452 C 0.07944 0.42113 0.4763 0.0
C3453 C 0.07912 0.40408 0.45589 0.0
C3454 C 0.05719 0.38029 0.52102 0.0
C3455 C 0.08666 0.44727 0.47448 0.0
C3456 C 0.04452 0.45876 0.528 0.0
C3457 C 0.06043 0.47063 0.5477 0.0
C3458 C 0.04757 0.4392 0.51249 0.0
C3459 C 0.06727 0.43159 0.51653 0.0
C3460 C 0.08296 0.44256 0.53735 0.0
C3461 C 0.07929 0.46199 0.55287 0.0
C3462 C 0.03025 0.42782 0.49074 0.0
C3463 C 0.10421 0.43504 0.54216 0.0
H3464 H 0.06 0.35348 0.47888 0.0
H3465 H 0.08402 0.40987 0.4392 0.0
H3466 H 0.06767 0.38968 0.5384 0.0
H3467 H 0.04105 0.38429 0.52139 0.0
H3468 H 0.05597 0.36074 0.52066 0.0
H3469 H 0.09512 0.44996 0.45857 0.0
H3470 H 0.07253 0.45576 0.47219 0.0
H3471 H 0.09744 0.45663 0.49168 0.0
H3472 H 0.0301 0.46561 0.52381 0.0
H3473 H 0.0918 0.47147 0.56783 0.0
H3474 H 0.02688 0.4081 0.4898 0.0
H3475 H 0.0357 0.43208 0.4733 0.0
H3476 H 1.01512 0.43421 0.49174 0.0
H3477 H 0.10202 0.4153 0.53979 0.0
H3478 H 0.11309 0.44245 0.56105 0.0
H3479 H 0.11413 0.44156 0.52854 0.0
C3480 C 0.50445 0.25298 0.24767 0.0
C3481 C 0.52416 0.25307 0.26226 0.0
C3482 C 0.4872 0.25822 0.25844 0.0
C3483 C 0.48958 0.26327 0.28449 0.0
C3484 C 0.50897 0.26178 0.29942 0.0
C3485 C 0.52616 0.2569 0.2881 0.0
C3486 C 0.46687 0.2598 0.24181 0.0
C3487 C 0.51185 0.26639 0.32727 0.0
C3488 C 0.4554 0.30574 0.30597 0.0
C3489 C 0.43732 0.28987 0.30967 0.0
C3490 C 0.47296 0.29732 0.29879 0.0
C3491 C 0.47252 0.27243 0.29565 0.0
C3492 C 0.45476 0.25642 0.30072 0.0
C3493 C 0.43723 0.26533 0.30741 0.0
C3494 C 0.49143 0.31496 0.29319 0.0
C3495 C 0.45382 0.22983 0.29805 0.0
H3496 H 0.50276 0.24995 0.22768 0.0
H3497 H 0.54133 0.25682 0.29945 0.0
H3498 H 0.45285 0.24857 0.24714 0.0
H3499 H 0.46452 0.27851 0.24396 0.0
H3500 H 0.46718 0.25405 0.22199 0.0
H3501 H 0.52664 0.26134 0.33619 0.0
H3502 H 0.51278 0.28564 0.3334 0.0
H3503 H 0.49791 0.25627 0.33388 0.0
H3504 H 0.45539 0.3247 0.30754 0.0
H3505 H 0.4233 0.25306 0.31054 0.0
H3506 H 0.49227 0.31171 0.27319 0.0
H3507 H 0.50676 0.31255 0.30357 0.0
H3508 H 0.48987 0.33377 0.29795 0.0
H3509 H 0.46934 0.22594 0.30624 0.0
H3510 H 0.45059 0.22237 0.27814 0.0
H3511 H 0.44099 0.22046 0.30699 0.0
C3512 C 0.64517 0.56903 0.4171 0.0
C3513 C 0.63145 0.56522 0.3942 0.0
C3514 C 0.63732 0.5641 0.4388 0.0
C3515 C 0.61517 0.5555 0.43766 0.0
C3516 C 0.60115 0.55227 0.4147 0.0
C3517 C 0.60949 0.55697 0.39319 0.0
C3518 C 0.65283 0.5675 0.46282 0.0
C3519 C 0.57736 0.54349 0.4128 0.0
C3520 C 0.59463 0.51964 0.48622 0.0
C3521 C 0.58749 0.5368 0.50116 0.0
C3522 C 0.60438 0.5257 0.46601 0.0
C3523 C 0.60666 0.54937 0.46036 0.0
C3524 C 0.60013 0.56694 0.47593 0.0
C3525 C 0.59084 0.5605 0.49631 0.0
C3526 C 0.6116 0.50656 0.45022 0.0
C3527 C 0.60206 0.59231 0.47044 0.0
H3528 H 0.6622 0.57525 0.41799 0.0
H3529 H 0.59883 0.55401 0.37556 0.0
H3530 H 0.64812 0.57977 0.47703 0.0
H3531 H 0.65237 0.55013 0.46988 0.0
H3532 H 0.66952 0.57483 0.46069 0.0
H3533 H 0.56853 0.543 0.39385 0.0
H3534 H 0.57417 0.52525 0.41798 0.0
H3535 H 0.57096 0.55521 0.42595 0.0
H3536 H 0.59209 0.50133 0.48999 0.0
H3537 H 0.58525 0.57382 0.50774 0.0
H3538 H 0.62847 0.51269 0.44807 0.0
H3539 H 0.60177 0.50301 0.43145 0.0
H3540 H 0.6102 0.48956 0.45818 0.0
H3541 H 0.61881 0.59993 0.46885 0.0
H3542 H 0.59703 0.60404 0.48491 0.0
H3543 H 0.59196 0.59249 0.45241 0.0
C3544 C 0.31882 0.86957 0.08801 0.0
C3545 C 0.33222 0.88463 0.07606 0.0
C3546 C 0.32715 0.8598 0.10839 0.0
C3547 C 0.34956 0.86473 0.11665 0.0
C3548 C 0.3633 0.87938 0.1042 0.0
C3549 C 0.35439 0.88954 0.0842 0.0
C3550 C 0.31182 0.84449 0.1213 0.0
C3551 C 0.38726 0.88472 0.11213 0.0
C3552 C 0.35751 0.85389 0.18243 0.0
C3553 C 0.35563 0.82901 0.17887 0.0
C3554 C 0.35839 0.86683 0.16247 0.0
C3555 C 0.35791 0.85457 0.13866 0.0
C3556 C 0.35977 0.83035 0.13586 0.0
C3557 C 0.3583 0.81768 0.15599 0.0
C3558 C 0.35687 0.8928 0.16635 0.0
C3559 C 0.36046 0.81705 0.11093 0.0
H3560 H 0.30166 0.86588 0.08183 0.0
H3561 H 0.36476 0.9012 0.07489 0.0
H3562 H 0.31511 0.82619 0.12036 0.0
H3563 H 0.31403 0.852 0.14113 0.0
H3564 H 0.29483 0.84315 0.11297 0.0
H3565 H 0.39563 0.89012 0.09681 0.0
H3566 H 0.39184 0.8997 0.12764 0.0
H3567 H 0.39298 0.86908 0.11864 0.0
H3568 H 0.35637 0.86294 0.20033 0.0
H3569 H 0.35721 0.79853 0.15302 0.0
H3570 H 0.34022 0.89443 0.15953 0.0
H3571 H 0.36749 0.90338 0.15573 0.0
H3572 H 0.36114 0.90062 0.1862 0.0
H3573 H 0.34402 0.81179 0.10009 0.0
H3574 H 0.3669 0.80058 0.11278 0.0
H3575 H 0.37041 0.82854 0.10034 0.0
C3576 C 0.95853 0.53774 0.87904 0.0
C3577 C 0.96298 0.55821 0.86716 0.0
C3578 C 0.97032 0.53545 0.90241 0.0
C3579 C 0.9871 0.55428 0.9155 0.0
C3580 C 0.99139 0.57524 0.90387 0.0
C3581 C 0.97967 0.57682 0.88009 0.0
C3582 C 0.96508 0.51237 0.91284 0.0
C3583 C 1.00854 0.59622 0.91661 0.0
C3584 C 1.00845 0.55343 0.9863 0.0
C3585 C 0.02789 0.54554 0.98593 0.0
C3586 C 0.99525 0.55658 0.96399 0.0
C3587 C 1.00099 0.5513 0.94013 0.0
C3588 C 0.02032 0.54276 0.93986 0.0
C3589 C 0.03336 0.5404 0.96229 0.0
C3590 C 0.97528 0.56618 0.96605 0.0
C3591 C 0.02739 0.53599 0.91562 0.0
H3592 H 0.9459 0.52301 0.8697 0.0
H3593 H 0.98352 0.59286 0.87171 0.0
H3594 H 0.97931 0.50401 0.91487 0.0
H3595 H 0.96096 0.51591 0.93153 0.0
H3596 H 0.95154 0.49944 0.90092 0.0
H3597 H 1.00884 0.61201 0.90669 0.0
H3598 H 1.00602 0.60129 0.9358 0.0
H3599 H 0.02442 0.59122 0.91785 0.0
H3600 H 1.00385 0.55788 1.00407 0.0
H3601 H 0.04817 0.53432 0.96121 0.0
H3602 H 0.96111 0.55338 0.95525 0.0
H3603 H 0.97627 0.58311 0.95801 0.0
H3604 H 0.97281 0.56958 0.98553 0.0
H3605 H 1.01449 0.52259 0.90331 0.0
H3606 H 0.04211 0.52849 0.91813 0.0
H3607 H 0.03051 0.5519 0.90606 0.0
C3608 C 0.29088 0.19448 0.62957 0.0
C3609 C 0.29143 0.20782 0.60981 0.0
C3610 C 0.29368 0.20568 0.65413 0.0
C3611 C 0.29703 0.2309 0.65919 0.0
C3612 C 0.29794 0.24452 0.63935 0.0
C3613 C 0.29516 0.23282 0.61492 0.0
C3614 C 0.29269 0.19044 0.67466 0.0
C3615 C 0.30144 0.27142 0.64391 0.0
C3616 C 0.282 0.25612 0.7196 0.0
C3617 C 0.30191 0.2626 0.73537 0.0
C3618 C 0.28028 0.24634 0.69468 0.0
C3619 C 0.29889 0.24284 0.68517 0.0
C3620 C 0.31908 0.24978 0.70083 0.0
C3621 C 0.32035 0.25958 0.72567 0.0
C3622 C 0.25844 0.23929 0.67866 0.0
C3623 C 0.33932 0.24634 0.69149 0.0
H3624 H 0.28805 0.17516 0.62582 0.0
H3625 H 0.29558 0.24327 0.59977 0.0
H3626 H 0.3075 0.19604 0.68867 0.0
H3627 H 0.27909 0.19296 0.68416 0.0
H3628 H 0.29072 0.17114 0.66777 0.0
H3629 H 0.30251 0.27948 0.62665 0.0
H3630 H 0.28809 0.27687 0.65217 0.0
H3631 H 0.31637 0.27886 0.65735 0.0
H3632 H 0.26764 0.2584 0.72677 0.0
H3633 H 0.33584 0.26451 0.73759 0.0
H3634 H 0.25459 0.21971 0.6726 0.0
H3635 H 0.25833 0.24805 0.66174 0.0
H3636 H 0.24567 0.24418 0.68847 0.0
H3637 H 0.33861 0.22703 0.68598 0.0
H3638 H 0.35385 0.25362 0.70564 0.0
H3639 H 0.34085 0.25519 0.6748 0.0
C3640 C 0.60562 0.56426 0.25179 0.0
C3641 C 0.6266 0.56069 0.25752 0.0
C3642 C 0.59524 0.56141 0.22704 0.0
C3643 C 0.60619 0.55509 0.2076 0.0
C3644 C 0.62734 0.55143 0.21335 0.0
C3645 C 0.63722 0.55417 0.23818 0.0
C3646 C 0.57262 0.56528 0.22168 0.0
C3647 C 0.63968 0.5449 0.19323 0.0
C3648 C 0.57579 0.52853 0.14298 0.0
C3649 C 0.57814 0.54848 0.13037 0.0
C3650 C 0.58441 0.5305 0.16823 0.0
C3651 C 0.59584 0.55291 0.18119 0.0
C3652 C 0.59819 0.57311 0.1686 0.0
C3653 C 0.58927 0.57068 0.14344 0.0
C3654 C 0.58145 0.50855 0.181 0.0
C3655 C 0.61046 0.59727 0.18161 0.0
H3656 H 0.59729 0.56922 0.26664 0.0
H3657 H 0.65345 0.55141 0.24243 0.0
H3658 H 0.57208 0.58028 0.21076 0.0
H3659 H 0.56209 0.54913 0.21035 0.0
H3660 H 0.56608 0.56936 0.23884 0.0
H3661 H 0.65592 0.54243 0.20079 0.0
H3662 H 0.63087 0.52815 0.18137 0.0
H3663 H 0.64129 0.55911 0.1812 0.0
H3664 H 0.56715 0.51132 0.13316 0.0
H3665 H 0.59126 0.58623 0.13394 0.0
H3666 H 0.57383 0.51192 0.19747 0.0
H3667 H 0.59724 0.50441 0.18763 0.0
H3668 H 0.57144 0.49267 0.16862 0.0
H3669 H 0.60348 0.60272 0.19804 0.0
H3670 H 0.61041 0.61133 0.16937 0.0
H3671 H 0.62729 0.59626 0.18831 0.0
C3672 C 0.3266 0.87865 0.94648 0.0
C3673 C 0.30871 0.87294 0.95797 0.0
C3674 C 0.32846 0.86488 0.92461 0.0
C3675 C 0.31218 0.84476 0.91427 0.0
C3676 C 0.29445 0.83843 0.92628 0.0
C3677 C 0.29284 0.85273 0.94794 0.0
C3678 C 0.34723 0.8726 0.91187 0.0
C3679 C 0.27687 0.81698 0.91583 0.0
C3680 C 0.30138 0.82533 0.84515 0.0
C3681 C 0.31167 0.80601 0.84297 0.0
C3682 C 0.3021 0.83861 0.86818 0.0
C3683 C 0.31263 0.83171 0.8897 0.0
C3684 C 0.32305 0.81212 0.88767 0.0
C3685 C 0.32266 0.79963 0.86419 0.0
C3686 C 0.29102 0.85959 0.86939 0.0
C3687 C 0.33413 0.80407 0.9103 0.0
H3688 H 0.33888 0.89431 0.95419 0.0
H3689 H 0.27908 0.84819 0.95692 0.0
H3690 H 0.3552 0.85746 0.90773 0.0
H3691 H 0.34144 0.87825 0.89395 0.0
H3692 H 0.35924 0.88769 0.92318 0.0
H3693 H 0.26541 0.81303 0.92874 0.0
H3694 H 0.26791 0.82026 0.89824 0.0
H3695 H 0.28376 0.80099 0.91159 0.0
H3696 H 0.29253 0.82997 0.82882 0.0
H3697 H 0.33051 0.78455 0.86251 0.0
H3698 H 0.29998 0.87447 0.88377 0.0
H3699 H 0.2749 0.85381 0.87405 0.0
H3700 H 0.2891 0.86654 0.85143 0.0
H3701 H 0.34653 0.81902 0.9211 0.0
H3702 H 0.34178 0.78877 0.90552 0.0
H3703 H 0.32238 0.79869 0.92248 0.0
C3704 C 0.97615 0.5395 0.72685 0.0
C3705 C 0.95855 0.55106 0.72685 0.0
C3706 C 0.98655 0.53613 0.70566 0.0
C3707 C 0.9803 0.54529 0.68323 0.0
C3708 C 0.96282 0.55744 0.68334 0.0
C3709 C 0.9521 0.55964 0.70443 0.0
C3710 C 1.00433 0.52237 0.70729 0.0
C3711 C 0.95558 0.56872 0.6611 0.0
C3712 C 0.02217 0.5558 0.63748 0.0
C3713 C 1.01454 0.53739 0.61705 0.0
C3714 C 1.01137 0.55863 0.65839 0.0
C3715 C 0.99212 0.54252 0.66022 0.0
C3716 C 0.98447 0.52369 0.63979 0.0
C3717 C 0.99532 0.52163 0.61877 0.0
C3718 C 0.02049 0.57959 0.67839 0.0
C3719 C 0.96477 0.5052 0.64026 0.0
H3720 H 0.98164 0.53246 0.74349 0.0
H3721 H 0.93879 0.56876 0.7035 0.0
H3722 H 1.00092 0.50759 0.69159 0.0
H3723 H 0.01958 0.53423 0.70584 0.0
H3724 H 1.0065 0.51475 0.72489 0.0
H3725 H 0.94297 0.57898 0.66421 0.0
H3726 H 0.96939 0.58091 0.6564 0.0
H3727 H 0.94923 0.55472 0.64487 0.0
H3728 H 0.03667 0.56854 0.63703 0.0
H3729 H 0.98882 0.50718 0.60371 0.0
H3730 H 0.02051 0.57416 0.69703 0.0
H3731 H 1.01029 0.5931 0.67679 0.0
H3732 H 0.03709 0.58807 0.67696 0.0
H3733 H 0.96655 0.49739 0.65776 0.0
H3734 H 0.96161 0.49056 0.62443 0.0
H3735 H 0.95065 0.51369 0.63966 0.0
C3736 C 0.26551 0.22372 0.46792 0.0
C3737 C 0.28001 0.20915 0.47457 0.0
C3738 C 0.26709 0.2364 0.44758 0.0
C3739 C 0.28399 0.23516 0.43399 0.0
C3740 C 0.29882 0.22068 0.44089 0.0
C3741 C 0.29645 0.20761 0.46077 0.0
C3742 C 0.25053 0.25095 0.44047 0.0
C3743 C 0.31743 0.21925 0.42747 0.0
C3744 C 0.28178 0.25032 0.36803 0.0
C3745 C 0.29362 0.27384 0.37189 0.0
C3746 C 0.2777 0.23795 0.38803 0.0
C3747 C 0.28632 0.24898 0.41262 0.0
C3748 C 0.29812 0.27284 0.41663 0.0
C3749 C 0.30134 0.28507 0.39629 0.0
C3750 C 0.26453 0.21283 0.38278 0.0
C3751 C 0.30812 0.28516 0.44238 0.0
H3752 H 0.2527 0.2249 0.4784 0.0
H3753 H 0.30783 0.19655 0.46589 0.0
H3754 H 0.25828 0.27005 0.44204 0.0
H3755 H 0.24282 0.24501 0.42088 0.0
H3756 H 0.23793 0.2494 0.45227 0.0
H3757 H 0.32801 0.20792 0.43565 0.0
H3758 H 0.31148 0.2118 0.40774 0.0
H3759 H 0.32709 0.23742 0.42797 0.0
H3760 H 0.27592 0.24139 0.34929 0.0
H3761 H 0.31068 0.30315 0.3995 0.0
H3762 H 0.25173 0.21099 0.39427 0.0
H3763 H 0.2748 0.20002 0.38775 0.0
H3764 H 0.25706 0.20776 0.36299 0.0
H3765 H 0.29576 0.28516 0.45438 0.0
H3766 H 0.31638 0.30391 0.4425 0.0
H3767 H 0.31991 0.27524 0.4507 0.0
C3768 C 0.39645 0.63569 0.51579 0.0
C3769 C 0.39252 0.62875 0.53853 0.0
C3770 C 0.40722 0.62274 0.50058 0.0
C3771 C 0.41395 0.60234 0.50833 0.0
C3772 C 0.41031 0.5955 0.53147 0.0
C3773 C 0.39974 0.60892 0.54638 0.0
C3774 C 0.41116 0.63064 0.4762 0.0
C3775 C 0.41747 0.5739 0.54045 0.0
C3776 C 0.42569 0.55065 0.46824 0.0
C3777 C 0.44791 0.55442 0.47532 0.0
C3778 C 0.41432 0.56752 0.47686 0.0
C3779 C 0.42556 0.58835 0.49297 0.0
C3780 C 0.44813 0.5933 0.49804 0.0
C3781 C 0.45901 0.57622 0.48914 0.0
C3782 C 0.39021 0.56177 0.47101 0.0
C3783 C 0.46065 0.61532 0.51514 0.0
H3784 H 0.39082 0.65105 0.50969 0.0
H3785 H 0.39659 0.60346 0.56388 0.0
H3786 H 0.42855 0.63428 0.47565 0.0
H3787 H 0.40345 0.61615 0.4608 0.0
H3788 H 0.4049 0.64697 0.47293 0.0
H3789 H 0.413 0.57079 0.55868 0.0
H3790 H 0.41023 0.5577 0.52685 0.0
H3791 H 0.4351 0.57621 0.54214 0.0
H3792 H 0.41711 0.53374 0.45765 0.0
H3793 H 0.47608 0.57889 0.49535 0.0
H3794 H 0.38387 0.57789 0.4672 0.0
H3795 H 0.38379 0.55547 0.48724 0.0
H3796 H 0.38421 0.54755 0.45485 0.0
H3797 H 0.45694 0.63159 0.50793 0.0
H3798 H 0.47817 0.61631 0.51732 0.0
H3799 H 0.45604 0.61543 0.53373 0.0
C3800 C 0.9044 0.9701 0.59694 0.0
C3801 C 0.89686 0.9468 0.58434 0.0
C3802 C 0.92455 0.98347 0.59486 0.0
C3803 C 0.93746 0.97353 0.57949 0.0
C3804 C 0.93005 0.94985 0.56704 0.0
C3805 C 0.90999 0.93678 0.56974 0.0
C3806 C 0.93183 1.00848 0.60874 0.0
C3807 C 0.94304 0.93856 0.55021 0.0
C3808 C 0.97701 0.01735 0.55277 0.0
C3809 C 0.9966 0.01743 0.56767 0.0
C3810 C 0.95783 1.00293 0.5562 0.0
C3811 C 0.95804 0.98835 0.57527 0.0
C3812 C 0.97786 0.9882 0.59026 0.0
C3813 C 0.99691 1.00258 0.58616 0.0
C3814 C 0.93727 1.00345 0.53945 0.0
C3815 C 0.97888 0.97315 0.61093 0.0
H3816 H 0.89445 0.97801 0.60832 0.0
H3817 H 0.90433 0.91883 0.55984 0.0
H3818 H 0.94799 1.0105 0.61987 0.0
H3819 H 0.93303 0.02154 0.59542 0.0
H3820 H 0.92071 1.01304 0.62125 0.0
H3821 H 0.93555 0.91968 0.5427 0.0
H3822 H 0.94481 0.94879 0.53449 0.0
H3823 H 0.95935 0.93922 0.5603 0.0
H3824 H 0.97665 0.02867 0.53835 0.0
H3825 H 1.01197 1.00257 0.59778 0.0
H3826 H 0.92596 1.01004 0.55052 0.0
H3827 H 0.92953 0.98512 0.53029 0.0
H3828 H 0.93988 1.01508 0.52496 0.0
H3829 H 0.96899 0.97868 0.62451 0.0
H3830 H 0.99548 0.97473 0.62073 0.0
H3831 H 0.97214 0.9541 0.60352 0.0
C3832 C 0.90504 0.07442 0.27421 0.0
C3833 C 0.9272 0.07693 0.28104 0.0
C3834 C 0.89578 0.09441 0.27192 0.0
C3835 C 0.90903 0.11748 0.27644 0.0
C3836 C 0.93143 0.12018 0.28331 0.0
C3837 C 0.94028 0.09981 0.28561 0.0
C3838 C 0.87179 0.09082 0.26468 0.0
C3839 C 0.94601 0.14453 0.28816 0.0
C3840 C 0.88352 0.16451 0.24794 0.0
C3841 C 0.87569 0.1749 0.268 0.0
C3842 C 0.8953 0.1465 0.25069 0.0
C3843 C 0.89919 0.13865 0.27402 0.0
C3844 C 0.89201 0.1497 0.29455 0.0
C3845 C 0.88036 0.16775 0.29129 0.0
C3846 C 0.90289 0.13527 0.22843 0.0
C3847 C 0.89574 0.1417 0.31968 0.0
H3848 H 0.89486 0.05676 0.27069 0.0
H3849 H 0.95743 0.1018 0.29084 0.0
H3850 H 0.86514 0.10063 0.27918 0.0
H3851 H 0.86779 0.09819 0.24726 0.0
H3852 H 0.86377 0.07168 0.26198 0.0
H3853 H 0.9631 0.14355 0.29322 0.0
H3854 H 0.94414 0.15356 0.27148 0.0
H3855 H 0.94153 0.15585 0.30338 0.0
H3856 H 0.88018 0.17028 0.22999 0.0
H3857 H 0.87417 0.17561 0.30679 0.0
H3858 H 0.8942 0.11644 0.22319 0.0
H3859 H 0.92017 0.13506 0.23291 0.0
H3860 H 0.90024 0.14485 0.21222 0.0
H3861 H 0.88659 0.12323 0.31879 0.0
H3862 H 0.89073 0.15346 0.33415 0.0
H3863 H 0.9129 0.14142 0.32531 0.0
C3864 C 0.78555 0.09699 0.08209 0.0
C3865 C 0.78803 0.11944 0.09628 0.0
C3866 C 0.76776 0.07885 0.08203 0.0
C3867 C 0.75212 0.08341 0.0964 0.0
C3868 C 0.7553 0.1055 0.11199 0.0
C3869 C 0.77328 0.12327 0.11178 0.0
C3870 C 0.76503 0.05543 0.06539 0.0
C3871 C 0.739 0.11098 0.12767 0.0
C3872 C 0.6938 0.05547 0.07388 0.0
C3873 C 0.68992 0.03904 0.09042 0.0
C3874 C 0.71426 0.06922 0.07492 0.0
C3875 C 0.73128 0.06645 0.09294 0.0
C3876 C 0.72779 0.04891 0.10874 0.0
C3877 C 0.70709 0.03541 0.10733 0.0
C3878 C 0.71735 0.08773 0.05769 0.0
C3879 C 0.74564 0.04526 0.12794 0.0
H3880 H 0.79703 0.0939 0.07022 0.0
H3881 H 0.77521 0.14056 0.12287 0.0
H3882 H 0.76003 0.04018 0.07532 0.0
H3883 H 0.75226 0.05447 0.0493 0.0
H3884 H 0.77997 0.05337 0.05838 0.0
H3885 H 0.74485 0.12798 0.14055 0.0
H3886 H 0.72413 0.1124 0.1155 0.0
H3887 H 0.73476 0.09632 0.13862 0.0
H3888 H 0.68058 0.05864 0.06102 0.0
H3889 H 0.70419 0.02253 0.11998 0.0
H3890 H 0.73099 0.08579 0.04805 0.0
H3891 H 0.72119 0.10588 0.06854 0.0
H3892 H 0.70287 0.0864 0.04356 0.0
H3893 H 0.7601 0.04394 0.11963 0.0
H3894 H 0.74099 0.02894 0.13652 0.0
H3895 H 0.75004 0.06089 0.14275 0.0
C3896 C 0.20874 0.43403 0.32898 0.0
C3897 C 0.21342 0.45316 0.31513 0.0
C3898 C 0.21966 0.41417 0.32887 0.0
C3899 C 0.23594 0.41196 0.31411 0.0
C3900 C 0.24048 0.43103 0.29978 0.0
C3901 C 0.22968 0.451 0.3007 0.0
C3902 C 0.21383 0.39542 0.34506 0.0
C3903 C 0.25679 0.43024 0.28293 0.0
C3904 C 0.27882 0.37088 0.32797 0.0
C3905 C 0.27014 0.34863 0.31271 0.0
C3906 C 0.26801 0.39084 0.32896 0.0
C3907 C 0.24787 0.39001 0.31359 0.0
C3908 C 0.23931 0.36777 0.29771 0.0
C3909 C 0.25002 0.34775 0.29782 0.0
C3910 C 0.27829 0.41305 0.34692 0.0
C3911 C 0.21893 0.36531 0.27962 0.0
H3912 H 0.19652 0.43469 0.34042 0.0
H3913 H 0.23389 0.46497 0.28962 0.0
H3914 H 0.2084 0.3776 0.33365 0.0
H3915 H 0.22818 0.39456 0.35845 0.0
H3916 H 0.20102 0.39909 0.35547 0.0
H3917 H 0.25772 0.44504 0.27157 0.0
H3918 H 0.2728 0.43142 0.29406 0.0
H3919 H 0.2528 0.41297 0.2704 0.0
H3920 H 0.29415 0.37265 0.33976 0.0
H3921 H 0.24274 0.33136 0.28547 0.0
H3922 H 0.26674 0.41796 0.35866 0.0
H3923 H 0.28275 0.42817 0.33664 0.0
H3924 H 0.29286 0.41074 0.35908 0.0
H3925 H 0.20645 0.37138 0.28908 0.0
H3926 H 0.21281 0.34669 0.27028 0.0
H3927 H 0.22191 0.37701 0.2653 0.0
C3928 C 0.25977 0.42893 0.07301 0.0
C3929 C 0.27986 0.44258 0.0844 0.0
C3930 C 0.24133 0.43888 0.07106 0.0
C3931 C 0.24289 0.46315 0.08072 0.0
C3932 C 0.26306 0.4769 0.0927 0.0
C3933 C 0.28127 0.46648 0.09438 0.0
C3934 C 0.22022 0.42353 0.05813 0.0
C3935 C 0.2655 0.50279 0.1033 0.0
C3936 C 0.20045 0.49487 0.052 0.0
C3937 C 0.18642 0.49436 0.06926 0.0
C3938 C 0.21888 0.48502 0.05565 0.0
C3939 C 0.22364 0.47438 0.07717 0.0
C3940 C 0.20975 0.47409 0.09488 0.0
C3941 C 0.19137 0.48407 0.09074 0.0
C3942 C 0.2332 0.48587 0.0363 0.0
C3943 C 0.21418 0.46293 0.11806 0.0
H3944 H 0.25848 0.41045 0.06526 0.0
H3945 H 0.2967 0.47717 0.10323 0.0
H3946 H 0.20804 0.42369 0.07036 0.0
H3947 H 0.21437 0.43092 0.0413 0.0
H3948 H 0.22146 0.40473 0.05261 0.0
H3949 H 0.282 0.51072 0.1131 0.0
H3950 H 0.26146 0.51327 0.08822 0.0
H3951 H 0.25419 0.50457 0.1164 0.0
H3952 H 0.19712 0.50319 0.03559 0.0
H3953 H 0.18063 0.4834 0.10413 0.0
H3954 H 0.23411 0.46746 0.02872 0.0
H3955 H 0.24968 0.49529 0.04479 0.0
H3956 H 0.22746 0.49506 0.02076 0.0
H3957 H 0.214 0.44366 0.11308 0.0
H3958 H 0.20226 0.46479 0.1304 0.0
H3959 H 0.23035 0.47134 0.12847 0.0
C3960 C 0.91271 0.92908 0.274 0.0
C3961 C 0.90867 0.95149 0.28233 0.0
C3962 C 0.89762 0.90799 0.27393 0.0
C3963 C 0.87817 0.90948 0.28248 0.0
C3964 C 0.87399 0.9321 0.29063 0.0
C3965 C 0.88923 0.95276 0.29039 0.0
C3966 C 0.90257 0.88415 0.26503 0.0
C3967 C 0.85356 0.9345 0.30013 0.0
C3968 C 0.82851 0.85986 0.26796 0.0
C3969 C 0.8294 0.85024 0.29019 0.0
C3970 C 0.84492 0.87837 0.26462 0.0
C3971 C 0.86241 0.88755 0.28409 0.0
C3972 C 0.8636 0.87736 0.3063 0.0
C3973 C 0.84704 0.85888 0.30909 0.0
C3974 C 0.84318 0.88864 0.2406 0.0
C3975 C 0.88187 0.88666 0.32758 0.0
H3976 H 0.92769 0.928 0.2677 0.0
H3977 H 0.88597 0.97001 0.29685 0.0
H3978 H 0.90338 0.87327 0.28038 0.0
H3979 H 0.88957 0.87408 0.25012 0.0
H3980 H 0.91796 0.88607 0.25796 0.0
H3981 H 0.85258 0.95344 0.30531 0.0
H3982 H 0.8395 0.92586 0.28584 0.0
H3983 H 0.85245 0.92523 0.31661 0.0
H3984 H 0.81492 0.85305 0.25328 0.0
H3985 H 0.84762 0.85166 0.32643 0.0
H3986 H 0.85832 0.88955 0.23313 0.0
H3987 H 0.8405 0.90715 0.24393 0.0
H3988 H 0.82983 0.87795 0.22642 0.0
H3989 H 0.89742 0.88734 0.32111 0.0
H3990 H 0.88133 0.87548 0.34272 0.0
H3991 H 0.88125 0.90516 0.33522 0.0
C3992 C 0.73895 0.09856 0.8283 0.0
C3993 C 0.71692 0.09053 0.81884 0.0
C3994 C 0.75005 0.12241 0.82744 0.0
C3995 C 0.7392 0.13941 0.81693 0.0
C3996 C 0.71694 0.13138 0.80754 0.0
C3997 C 0.7063 0.10749 0.80855 0.0
C3998 C 0.77362 0.12938 0.83771 0.0
C3999 C 0.70419 0.14813 0.7962 0.0
C4000 C 0.76324 0.20843 0.83198 0.0
C4001 C 0.77226 0.21388 0.81093 0.0
C4002 C 0.75279 0.18473 0.83428 0.0
C4003 C 0.75101 0.16517 0.81517 0.0
C4004 C 0.76018 0.17058 0.79397 0.0
C4005 C 0.77046 0.19441 0.79212 0.0
C4006 C 0.74347 0.18066 0.85731 0.0
C4007 C 0.7591 0.15104 0.77292 0.0
H4008 H 0.74767 0.08611 0.83633 0.0
H4009 H 0.68939 0.10206 0.80109 0.0
H4010 H 0.78261 0.13476 0.82289 0.0
H4011 H 0.77672 0.14504 0.85238 0.0
H4012 H 0.77991 0.11461 0.84556 0.0
H4013 H 0.68701 0.13971 0.79019 0.0
H4014 H 0.70549 0.16434 0.80972 0.0
H4015 H 0.7108 0.15404 0.77994 0.0
H4016 H 0.76423 0.22281 0.84682 0.0
H4017 H 0.77718 0.19776 0.77567 0.0
H4018 H 0.75051 0.16701 0.86645 0.0
H4019 H 0.72598 0.17364 0.8523 0.0
H4020 H 0.74634 0.19727 0.87076 0.0
H4021 H 0.76656 0.13661 0.77984 0.0
H4022 H 0.76728 0.15765 0.75793 0.0
H4023 H 0.74215 0.14301 0.76501 0.0
loop_
_geom_bond_atom_site_label_1
_geom_bond_atom_site_label_2
_geom_bond_distance
_geom_bond_site_symmetry_2
_ccdc_geom_bond_type
In0 O1 2.294 . S
In0 O2 2.326 . S
In0 O6 2.266 1_455 S
In0 O7 2.326 1_455 S
In0 O8 2.266 . S
In0 O9 2.326 . S
In0 O11 2.294 . S
In0 O12 2.326 . S
O1 In0 2.294 . S
O1 C10 1.240 . S
O2 In0 2.326 . S
O2 C10 1.252 . S
C3 O6 1.252 . S
C3 O7 1.260 . S
C4 O11 1.240 . S
C4 O12 1.252 . S
C5 O8 1.252 . S
C5 O9 1.260 . S
O6 In0 2.266 1_655 S
O6 C3 1.252 . S
O7 In0 2.326 1_655 S
O7 C3 1.260 . S
O8 In0 2.266 . S
O8 C5 1.252 . S
O9 In0 2.326 . S
O9 C5 1.260 . S
C10 O1 1.240 . S
C10 O2 1.252 . S
O11 In0 2.294 . S
O11 C4 1.240 . S
O12 In0 2.326 . S
O12 C4 1.252 . S
In13 O14 2.294 . S
In13 O15 2.326 . S
In13 O19 2.266 . S
In13 O20 2.326 . S
In13 O21 2.266 . S
In13 O22 2.326 . S
In13 O24 2.294 . S
In13 O25 2.326 . S
O14 In13 2.294 . S
O14 C23 1.240 . S
O15 In13 2.326 . S
O15 C23 1.252 . S
C16 O19 1.252 . S
C16 O20 1.260 . S
C17 O24 1.240 . S
C17 O25 1.252 . S
C18 O21 1.252 . S
C18 O22 1.260 . S
O19 In13 2.266 . S
O19 C16 1.252 . S
O20 In13 2.326 . S
O20 C16 1.260 . S
O21 In13 2.266 . S
O21 C18 1.252 . S
O22 In13 2.326 . S
O22 C18 1.260 . S
C23 O14 1.240 . S
C23 O15 1.252 . S
O24 In13 2.294 . S
O24 C17 1.240 . S
O25 In13 2.326 . S
O25 C17 1.252 . S
In26 O27 2.294 . S
In26 O28 2.326 . S
In26 O32 2.266 . S
In26 O33 2.326 . S
In26 O34 2.266 . S
In26 O35 2.326 . S
In26 O37 2.294 . S
In26 O38 2.326 . S
O27 In26 2.294 . S
O27 C36 1.240 . S
O28 In26 2.326 . S
O28 C36 1.252 . S
C29 O32 1.252 . S
C29 O33 1.260 . S
C30 O37 1.240 . S
C30 O38 1.252 . S
C31 O34 1.252 . S
C31 O35 1.260 . S
O32 In26 2.266 . S
O32 C29 1.252 . S
O33 In26 2.326 . S
O33 C29 1.260 . S
O34 In26 2.266 . S
O34 C31 1.252 . S
O35 In26 2.326 . S
O35 C31 1.260 . S
C36 O27 1.240 . S
C36 O28 1.252 . S
O37 In26 2.294 . S
O37 C30 1.240 . S
O38 In26 2.326 . S
O38 C30 1.252 . S
In39 O40 2.294 . S
In39 O41 2.326 . S
In39 O45 2.266 . S
In39 O46 2.326 . S
In39 O47 2.266 . S
In39 O48 2.326 . S
In39 O50 2.294 . S
In39 O51 2.326 . S
O40 In39 2.294 . S
O40 C49 1.240 . S
O41 In39 2.326 . S
O41 C49 1.252 . S
C42 O45 1.252 . S
C42 O46 1.260 . S
C43 O50 1.240 . S
C43 O51 1.252 . S
C44 O47 1.252 . S
C44 O48 1.260 . S
O45 In39 2.266 . S
O45 C42 1.252 . S
O46 In39 2.326 . S
O46 C42 1.260 . S
O47 In39 2.266 . S
O47 C44 1.252 . S
O48 In39 2.326 . S
O48 C44 1.260 . S
C49 O40 1.240 . S
C49 O41 1.252 . S
O50 In39 2.294 . S
O50 C43 1.240 . S
O51 In39 2.326 . S
O51 C43 1.252 . S
In52 O53 2.294 . S
In52 O54 2.326 . S
In52 O58 2.266 . S
In52 O59 2.326 . S
In52 O60 2.266 . S
In52 O61 2.326 . S
In52 O63 2.294 . S
In52 O64 2.326 . S
O53 In52 2.294 . S
O53 C62 1.240 . S
O54 In52 2.326 . S
O54 C62 1.252 . S
C55 O58 1.252 . S
C55 O59 1.260 . S
C56 O63 1.240 . S
C56 O64 1.252 . S
C57 O60 1.252 . S
C57 O61 1.260 . S
O58 In52 2.266 . S
O58 C55 1.252 . S
O59 In52 2.326 . S
O59 C55 1.260 . S
O60 In52 2.266 . S
O60 C57 1.252 . S
O61 In52 2.326 . S
O61 C57 1.260 . S
C62 O53 1.240 . S
C62 O54 1.252 . S
O63 In52 2.294 . S
O63 C56 1.240 . S
O64 In52 2.326 . S
O64 C56 1.252 . S
In65 O66 2.294 . S
In65 O67 2.326 . S
In65 O71 2.266 . S
In65 O72 2.326 . S
In65 O73 2.266 . S
In65 O74 2.326 . S
In65 O76 2.294 . S
In65 O77 2.326 . S
O66 In65 2.294 . S
O66 C75 1.240 . S
O67 In65 2.326 . S
O67 C75 1.252 . S
C68 O71 1.252 . S
C68 O72 1.260 . S
C69 O76 1.240 . S
C69 O77 1.252 . S
C70 O73 1.252 . S
C70 O74 1.260 . S
O71 In65 2.266 . S
O71 C68 1.252 . S
O72 In65 2.326 . S
O72 C68 1.260 . S
O73 In65 2.266 . S
O73 C70 1.252 . S
O74 In65 2.326 . S
O74 C70 1.260 . S
C75 O66 1.240 . S
C75 O67 1.252 . S
O76 In65 2.294 . S
O76 C69 1.240 . S
O77 In65 2.326 . S
O77 C69 1.252 . S
In78 O79 2.294 . S
In78 O80 2.326 . S
In78 O84 2.266 . S
In78 O85 2.326 . S
In78 O86 2.266 . S
In78 O87 2.326 . S
In78 O89 2.294 . S
In78 O90 2.326 . S
O79 In78 2.294 . S
O79 C88 1.240 . S
O80 In78 2.326 . S
O80 C88 1.252 . S
C81 O84 1.252 . S
C81 O85 1.260 . S
C82 O89 1.240 . S
C82 O90 1.252 . S
C83 O86 1.252 . S
C83 O87 1.260 . S
O84 In78 2.266 . S
O84 C81 1.252 . S
O85 In78 2.326 . S
O85 C81 1.260 . S
O86 In78 2.266 . S
O86 C83 1.252 . S
O87 In78 2.326 . S
O87 C83 1.260 . S
C88 O79 1.240 . S
C88 O80 1.252 . S
O89 In78 2.294 . S
O89 C82 1.240 . S
O90 In78 2.326 . S
O90 C82 1.252 . S
In91 O92 2.294 . S
In91 O93 2.326 . S
In91 O97 2.266 . S
In91 O98 2.326 . S
In91 O99 2.266 1_455 S
In91 O100 2.326 1_455 S
In91 O102 2.294 . S
In91 O103 2.326 . S
O92 In91 2.294 . S
O92 C101 1.240 . S
O93 In91 2.326 . S
O93 C101 1.252 . S
C94 O97 1.252 . S
C94 O98 1.260 . S
C95 O102 1.240 . S
C95 O103 1.252 . S
C96 O99 1.252 . S
C96 O100 1.260 . S
O97 In91 2.266 . S
O97 C94 1.252 . S
O98 In91 2.326 . S
O98 C94 1.260 . S
O99 In91 2.266 1_655 S
O99 C96 1.252 . S
O100 In91 2.326 1_655 S
O100 C96 1.260 . S
C101 O92 1.240 . S
C101 O93 1.252 . S
O102 In91 2.294 . S
O102 C95 1.240 . S
O103 In91 2.326 . S
O103 C95 1.252 . S
In104 O105 2.294 . S
In104 O106 2.326 . S
In104 O110 2.266 . S
In104 O111 2.326 . S
In104 O112 2.266 1_545 S
In104 O113 2.326 1_545 S
In104 O115 2.294 . S
In104 O116 2.326 . S
O105 In104 2.294 . S
O105 C114 1.240 . S
O106 In104 2.326 . S
O106 C114 1.252 . S
C107 O110 1.252 . S
C107 O111 1.260 . S
C108 O115 1.240 . S
C108 O116 1.252 . S
C109 O112 1.252 . S
C109 O113 1.260 . S
O110 In104 2.266 . S
O110 C107 1.252 . S
O111 In104 2.326 . S
O111 C107 1.260 . S
O112 In104 2.266 1_565 S
O112 C109 1.252 . S
O113 In104 2.326 1_565 S
O113 C109 1.260 . S
C114 O105 1.240 . S
C114 O106 1.252 . S
O115 In104 2.294 . S
O115 C108 1.240 . S
O116 In104 2.326 . S
O116 C108 1.252 . S
In117 O118 2.294 . S
In117 O119 2.326 . S
In117 O123 2.266 . S
In117 O124 2.326 . S
In117 O125 2.266 . S
In117 O126 2.326 . S
In117 O128 2.294 . S
In117 O129 2.326 . S
O118 In117 2.294 . S
O118 C127 1.240 . S
O119 In117 2.326 . S
O119 C127 1.252 . S
C120 O123 1.252 . S
C120 O124 1.260 . S
C121 O128 1.240 . S
C121 O129 1.252 . S
C122 O125 1.252 . S
C122 O126 1.260 . S
O123 In117 2.266 . S
O123 C120 1.252 . S
O124 In117 2.326 . S
O124 C120 1.260 . S
O125 In117 2.266 . S
O125 C122 1.252 . S
O126 In117 2.326 . S
O126 C122 1.260 . S
C127 O118 1.240 . S
C127 O119 1.252 . S
O128 In117 2.294 . S
O128 C121 1.240 . S
O129 In117 2.326 . S
O129 C121 1.252 . S
In130 O131 2.294 . S
In130 O132 2.326 . S
In130 O136 2.266 . S
In130 O137 2.326 . S
In130 O138 2.266 . S
In130 O139 2.326 . S
In130 O141 2.294 . S
In130 O142 2.326 . S
O131 In130 2.294 . S
O131 C140 1.240 . S
O132 In130 2.326 . S
O132 C140 1.252 . S
C133 O136 1.252 . S
C133 O137 1.260 . S
C134 O141 1.240 . S
C134 O142 1.252 . S
C135 O138 1.252 . S
C135 O139 1.260 . S
O136 In130 2.266 . S
O136 C133 1.252 . S
O137 In130 2.326 . S
O137 C133 1.260 . S
O138 In130 2.266 . S
O138 C135 1.252 . S
O139 In130 2.326 . S
O139 C135 1.260 . S
C140 O131 1.240 . S
C140 O132 1.252 . S
O141 In130 2.294 . S
O141 C134 1.240 . S
O142 In130 2.326 . S
O142 C134 1.252 . S
In143 O144 2.296 . S
In143 O145 2.329 . S
In143 O149 2.264 1_554 S
In143 O150 2.322 1_554 S
In143 O151 2.267 . S
In143 O152 2.326 . S
In143 O154 2.294 . S
In143 O155 2.326 . S
O144 In143 2.296 . S
O144 C153 1.240 . S
O145 In143 2.329 . S
O145 C153 1.252 . S
C146 O149 1.252 . S
C146 O150 1.260 . S
C147 O154 1.240 . S
C147 O155 1.253 . S
C148 O151 1.252 . S
C148 O152 1.263 . S
O149 In143 2.264 1_556 S
O149 C146 1.252 . S
O150 In143 2.322 1_556 S
O150 C146 1.260 . S
O151 In143 2.267 . S
O151 C148 1.252 . S
O152 In143 2.326 . S
O152 C148 1.263 . S
C153 O144 1.240 . S
C153 O145 1.252 . S
O154 In143 2.294 . S
O154 C147 1.240 . S
O155 In143 2.326 . S
O155 C147 1.253 . S
In156 O157 2.294 . S
In156 O158 2.326 . S
In156 O162 2.266 . S
In156 O163 2.326 . S
In156 O164 2.266 . S
In156 O165 2.326 . S
In156 O167 2.294 . S
In156 O168 2.326 . S
O157 In156 2.294 . S
O157 C166 1.240 . S
O158 In156 2.326 . S
O158 C166 1.252 . S
C159 O162 1.252 . S
C159 O163 1.260 . S
C160 O167 1.240 . S
C160 O168 1.252 . S
C161 O164 1.252 . S
C161 O165 1.260 . S
O162 In156 2.266 . S
O162 C159 1.252 . S
O163 In156 2.326 . S
O163 C159 1.260 . S
O164 In156 2.266 . S
O164 C161 1.252 . S
O165 In156 2.326 . S
O165 C161 1.260 . S
C166 O157 1.240 . S
C166 O158 1.252 . S
O167 In156 2.294 . S
O167 C160 1.240 . S
O168 In156 2.326 . S
O168 C160 1.252 . S
In169 O170 2.294 . S
In169 O171 2.326 . S
In169 O175 2.266 . S
In169 O176 2.326 . S
In169 O177 2.266 . S
In169 O178 2.326 . S
In169 O180 2.294 . S
In169 O181 2.326 . S
O170 In169 2.294 . S
O170 C179 1.240 . S
O171 In169 2.326 . S
O171 C179 1.252 . S
C172 O175 1.252 . S
C172 O176 1.260 . S
C173 O180 1.240 . S
C173 O181 1.252 . S
C174 O177 1.252 . S
C174 O178 1.260 . S
O175 In169 2.266 . S
O175 C172 1.252 . S
O176 In169 2.326 . S
O176 C172 1.260 . S
O177 In169 2.266 . S
O177 C174 1.252 . S
O178 In169 2.326 . S
O178 C174 1.260 . S
C179 O170 1.240 . S
C179 O171 1.252 . S
O180 In169 2.294 . S
O180 C173 1.240 . S
O181 In169 2.326 . S
O181 C173 1.252 . S
In182 O183 2.294 . S
In182 O184 2.326 . S
In182 O188 2.266 . S
In182 O189 2.326 . S
In182 O190 2.266 . S
In182 O191 2.326 . S
In182 O193 2.294 . S
In182 O194 2.326 . S
O183 In182 2.294 . S
O183 C192 1.240 . S
O184 In182 2.326 . S
O184 C192 1.252 . S
C185 O188 1.252 . S
C185 O189 1.260 . S
C186 O193 1.240 . S
C186 O194 1.252 . S
C187 O190 1.252 . S
C187 O191 1.260 . S
O188 In182 2.266 . S
O188 C185 1.252 . S
O189 In182 2.326 . S
O189 C185 1.260 . S
O190 In182 2.266 . S
O190 C187 1.252 . S
O191 In182 2.326 . S
O191 C187 1.260 . S
C192 O183 1.240 . S
C192 O184 1.252 . S
O193 In182 2.294 . S
O193 C186 1.240 . S
O194 In182 2.326 . S
O194 C186 1.252 . S
In195 O196 2.294 . S
In195 O197 2.326 . S
In195 O201 2.266 . S
In195 O202 2.326 . S
In195 O203 2.266 . S
In195 O204 2.326 . S
In195 O206 2.294 . S
In195 O207 2.326 . S
O196 In195 2.294 . S
O196 C205 1.240 . S
O197 In195 2.326 . S
O197 C205 1.252 . S
C198 O201 1.252 . S
C198 O202 1.260 . S
C199 O206 1.240 . S
C199 O207 1.252 . S
C200 O203 1.252 . S
C200 O204 1.260 . S
O201 In195 2.266 . S
O201 C198 1.252 . S
O202 In195 2.326 . S
O202 C198 1.260 . S
O203 In195 2.266 . S
O203 C200 1.252 . S
O204 In195 2.326 . S
O204 C200 1.260 . S
C205 O196 1.240 . S
C205 O197 1.252 . S
O206 In195 2.294 . S
O206 C199 1.240 . S
O207 In195 2.326 . S
O207 C199 1.252 . S
In208 O209 2.294 . S
In208 O210 2.326 . S
In208 O214 2.266 . S
In208 O215 2.326 . S
In208 O216 2.266 1_545 S
In208 O217 2.326 1_545 S
In208 O219 2.294 . S
In208 O220 2.326 . S
O209 In208 2.294 . S
O209 C218 1.240 . S
O210 In208 2.326 . S
O210 C218 1.252 . S
C211 O214 1.252 . S
C211 O215 1.260 . S
C212 O219 1.240 . S
C212 O220 1.252 . S
C213 O216 1.252 . S
C213 O217 1.260 . S
O214 In208 2.266 . S
O214 C211 1.252 . S
O215 In208 2.326 . S
O215 C211 1.260 . S
O216 In208 2.266 1_565 S
O216 C213 1.252 . S
O217 In208 2.326 1_565 S
O217 C213 1.260 . S
C218 O209 1.240 . S
C218 O210 1.252 . S
O219 In208 2.294 . S
O219 C212 1.240 . S
O220 In208 2.326 . S
O220 C212 1.252 . S
In221 O222 2.294 . S
In221 O223 2.326 . S
In221 O227 2.266 . S
In221 O228 2.326 . S
In221 O229 2.266 . S
In221 O230 2.326 . S
In221 O232 2.294 . S
In221 O233 2.326 . S
O222 In221 2.294 . S
O222 C231 1.240 . S
O223 In221 2.326 . S
O223 C231 1.252 . S
C224 O227 1.252 . S
C224 O228 1.260 . S
C225 O232 1.240 . S
C225 O233 1.252 . S
C226 O229 1.252 . S
C226 O230 1.260 . S
O227 In221 2.266 . S
O227 C224 1.252 . S
O228 In221 2.326 . S
O228 C224 1.260 . S
O229 In221 2.266 . S
O229 C226 1.252 . S
O230 In221 2.326 . S
O230 C226 1.260 . S
C231 O222 1.240 . S
C231 O223 1.252 . S
O232 In221 2.294 . S
O232 C225 1.240 . S
O233 In221 2.326 . S
O233 C225 1.252 . S
In234 O235 2.294 . S
In234 O236 2.326 . S
In234 O240 2.266 . S
In234 O241 2.326 . S
In234 O242 2.266 . S
In234 O243 2.326 . S
In234 O245 2.294 . S
In234 O246 2.326 . S
O235 In234 2.294 . S
O235 C244 1.240 . S
O236 In234 2.326 . S
O236 C244 1.252 . S
C237 O240 1.252 . S
C237 O241 1.260 . S
C238 O245 1.240 . S
C238 O246 1.252 . S
C239 O242 1.252 . S
C239 O243 1.260 . S
O240 In234 2.266 . S
O240 C237 1.252 . S
O241 In234 2.326 . S
O241 C237 1.260 . S
O242 In234 2.266 . S
O242 C239 1.252 . S
O243 In234 2.326 . S
O243 C239 1.260 . S
C244 O235 1.240 . S
C244 O236 1.252 . S
O245 In234 2.294 . S
O245 C238 1.240 . S
O246 In234 2.326 . S
O246 C238 1.252 . S
In247 O248 2.294 1_545 S
In247 O249 2.326 1_545 S
In247 O253 2.266 . S
In247 O254 2.326 . S
In247 O255 2.266 . S
In247 O256 2.326 . S
In247 O258 2.294 . S
In247 O259 2.326 . S
O248 In247 2.294 1_565 S
O248 C257 1.240 . S
O249 In247 2.326 1_565 S
O249 C257 1.252 . S
C250 O253 1.252 . S
C250 O254 1.260 . S
C251 O258 1.240 . S
C251 O259 1.252 . S
C252 O255 1.252 . S
C252 O256 1.260 . S
O253 In247 2.266 . S
O253 C250 1.252 . S
O254 In247 2.326 . S
O254 C250 1.260 . S
O255 In247 2.266 . S
O255 C252 1.252 . S
O256 In247 2.326 . S
O256 C252 1.260 . S
C257 O248 1.240 . S
C257 O249 1.252 . S
O258 In247 2.294 . S
O258 C251 1.240 . S
O259 In247 2.326 . S
O259 C251 1.252 . S
In260 O261 2.294 . S
In260 O262 2.326 . S
In260 O266 2.266 . S
In260 O267 2.326 . S
In260 O268 2.266 . S
In260 O269 2.307 1_554 S
In260 O271 2.294 . S
In260 O272 2.326 . S
O261 In260 2.294 . S
O261 C270 1.240 . S
O262 In260 2.326 . S
O262 C270 1.252 . S
C263 O266 1.252 . S
C263 O267 1.260 . S
C264 O271 1.240 . S
C264 O272 1.252 . S
C265 O268 1.227 1_556 S
C265 O269 1.258 . S
O266 In260 2.266 . S
O266 C263 1.252 . S
O267 In260 2.326 . S
O267 C263 1.260 . S
O268 In260 2.266 . S
O268 C265 1.227 1_554 S
O269 In260 2.307 1_556 S
O269 C265 1.258 . S
C270 O261 1.240 . S
C270 O262 1.252 . S
O271 In260 2.294 . S
O271 C264 1.240 . S
O272 In260 2.326 . S
O272 C264 1.252 . S
In273 O274 2.294 . S
In273 O275 2.326 . S
In273 O279 2.266 . S
In273 O280 2.326 . S
In273 O281 2.266 . S
In273 O282 2.326 . S
In273 O284 2.294 . S
In273 O285 2.326 . S
O274 In273 2.294 . S
O274 C283 1.240 . S
O275 In273 2.326 . S
O275 C283 1.252 . S
C276 O279 1.252 . S
C276 O280 1.260 . S
C277 O284 1.240 . S
C277 O285 1.252 . S
C278 O281 1.252 . S
C278 O282 1.260 . S
O279 In273 2.266 . S
O279 C276 1.252 . S
O280 In273 2.326 . S
O280 C276 1.260 . S
O281 In273 2.266 . S
O281 C278 1.252 . S
O282 In273 2.326 . S
O282 C278 1.260 . S
C283 O274 1.240 . S
C283 O275 1.252 . S
O284 In273 2.294 . S
O284 C277 1.240 . S
O285 In273 2.326 . S
O285 C277 1.252 . S
In286 O287 2.294 . S
In286 O288 2.326 . S
In286 O292 2.266 . S
In286 O293 2.326 . S
In286 O294 2.266 . S
In286 O295 2.326 . S
In286 O297 2.294 . S
In286 O298 2.326 . S
O287 In286 2.294 . S
O287 C296 1.240 . S
O288 In286 2.326 . S
O288 C296 1.252 . S
C289 O292 1.252 . S
C289 O293 1.260 . S
C290 O297 1.240 . S
C290 O298 1.252 . S
C291 O294 1.252 . S
C291 O295 1.260 . S
O292 In286 2.266 . S
O292 C289 1.252 . S
O293 In286 2.326 . S
O293 C289 1.260 . S
O294 In286 2.266 . S
O294 C291 1.252 . S
O295 In286 2.326 . S
O295 C291 1.260 . S
C296 O287 1.240 . S
C296 O288 1.252 . S
O297 In286 2.294 . S
O297 C290 1.240 . S
O298 In286 2.326 . S
O298 C290 1.252 . S
In299 O300 2.294 . S
In299 O301 2.326 . S
In299 O305 2.266 . S
In299 O306 2.326 . S
In299 O307 2.266 . S
In299 O308 2.326 . S
In299 O310 2.294 . S
In299 O311 2.326 . S
O300 In299 2.294 . S
O300 C309 1.240 . S
O301 In299 2.326 . S
O301 C309 1.252 . S
C302 O305 1.252 . S
C302 O306 1.260 . S
C303 O310 1.240 . S
C303 O311 1.252 . S
C304 O307 1.252 . S
C304 O308 1.260 . S
O305 In299 2.266 . S
O305 C302 1.252 . S
O306 In299 2.326 . S
O306 C302 1.260 . S
O307 In299 2.266 . S
O307 C304 1.252 . S
O308 In299 2.326 . S
O308 C304 1.260 . S
C309 O300 1.240 . S
C309 O301 1.252 . S
O310 In299 2.294 . S
O310 C303 1.240 . S
O311 In299 2.326 . S
O311 C303 1.252 . S
Tb312 C314 2.809 1_455 S
Tb312 O332 2.516 . S
Tb312 O333 2.440 1_455 S
Tb312 O334 2.658 . S
Tb312 O335 2.409 . S
Tb312 O336 2.378 . S
Tb312 O340 2.325 . S
Tb312 O343 2.341 1_545 S
Tb313 C323 2.809 . S
Tb313 O334 2.325 . S
Tb313 O337 2.341 . S
Tb313 O338 2.484 . S
Tb313 O339 2.440 . S
Tb313 O340 2.658 . S
Tb313 O341 2.409 . S
Tb313 O342 2.378 . S
C314 Tb312 2.809 1_655 S
C314 C315 1.514 . S
C314 O332 1.234 1_655 S
C314 O333 1.266 . S
C315 C314 1.514 . S
C315 C316 1.359 . S
C315 C320 1.348 . S
C316 C315 1.359 . S
C316 C317 1.380 . S
C316 H344 0.929 . S
C317 C316 1.380 . S
C317 C318 1.347 . S
C317 H345 0.931 . S
C318 C317 1.347 . S
C318 C319 1.369 . S
C319 C318 1.369 . S
C319 C320 1.408 . S
C319 H346 0.930 1_554 S
C320 C315 1.348 . S
C320 C319 1.408 . S
C320 H347 0.930 . S
C321 O334 1.281 . S
C321 O335 1.254 . S
C322 O336 1.236 . S
C322 O337 1.266 . S
C323 Tb313 2.809 . S
C323 C324 1.514 . S
C323 O338 1.248 . S
C323 O339 1.266 . S
C324 C323 1.514 . S
C324 C325 1.359 1_545 S
C324 C329 1.348 . S
C325 C324 1.359 1_565 S
C325 C326 1.380 . S
C325 H348 0.929 . S
C326 C325 1.380 . S
C326 C327 1.347 . S
C326 H349 0.931 . S
C327 C326 1.347 . S
C327 C328 1.369 . S
C328 C327 1.369 . S
C328 C329 1.408 1_565 S
C328 H350 0.930 . S
C329 C324 1.348 . S
C329 C328 1.408 1_545 S
C329 H351 0.930 . S
C330 O340 1.281 . S
C330 O341 1.254 . S
C331 O342 1.236 1_565 S
C331 O343 1.266 . S
O332 Tb312 2.516 . S
O332 C314 1.234 1_455 S
O333 Tb312 2.440 1_655 S
O333 C314 1.266 . S
O334 Tb312 2.658 . S
O334 Tb313 2.325 . S
O334 C321 1.281 . S
O335 Tb312 2.409 . S
O335 C321 1.254 . S
O336 Tb312 2.378 . S
O336 C322 1.236 . S
O337 Tb313 2.341 . S
O337 C322 1.266 . S
O338 Tb313 2.484 . S
O338 C323 1.248 . S
O339 Tb313 2.440 . S
O339 C323 1.266 . S
O340 Tb312 2.325 . S
O340 Tb313 2.658 . S
O340 C330 1.281 . S
O341 Tb313 2.409 . S
O341 C330 1.254 . S
O342 Tb313 2.378 . S
O342 C331 1.236 1_545 S
O343 Tb312 2.341 1_565 S
O343 C331 1.266 . S
H344 C316 0.929 . S
H345 C317 0.931 . S
H346 C319 0.930 1_556 S
H347 C320 0.930 . S
H348 C325 0.929 . S
H349 C326 0.931 . S
H350 C328 0.930 . S
H351 C329 0.930 . S
Tb352 C354 2.809 . S
Tb352 O372 2.484 . S
Tb352 O373 2.440 . S
Tb352 O374 2.658 . S
Tb352 O375 2.409 . S
Tb352 O376 2.378 . S
Tb352 O380 2.325 . S
Tb352 O383 2.341 . S
Tb353 C363 2.809 . S
Tb353 O374 2.325 . S
Tb353 O377 2.341 . S
Tb353 O378 2.484 . S
Tb353 O379 2.440 . S
Tb353 O380 2.658 . S
Tb353 O381 2.409 . S
Tb353 O382 2.378 . S
C354 Tb352 2.809 . S
C354 C355 1.514 . S
C354 O372 1.248 . S
C354 O373 1.266 . S
C355 C354 1.514 . S
C355 C356 1.359 . S
C355 C360 1.348 . S
C356 C355 1.359 . S
C356 C357 1.380 . S
C356 H384 0.929 . S
C357 C356 1.380 . S
C357 C358 1.347 . S
C357 H385 0.931 . S
C358 C357 1.347 . S
C358 C359 1.369 . S
C359 C358 1.369 . S
C359 C360 1.408 . S
C359 H386 0.930 . S
C360 C355 1.348 . S
C360 C359 1.408 . S
C360 H387 0.930 . S
C361 O374 1.281 . S
C361 O375 1.254 . S
C362 O376 1.236 . S
C362 O377 1.266 . S
C363 Tb353 2.809 . S
C363 C364 1.514 . S
C363 O378 1.248 . S
C363 O379 1.266 . S
C364 C363 1.514 . S
C364 C365 1.359 . S
C364 C369 1.348 . S
C365 C364 1.359 . S
C365 C366 1.380 . S
C365 H388 0.929 . S
C366 C365 1.380 . S
C366 C367 1.347 . S
C366 H389 0.931 . S
C367 C366 1.347 . S
C367 C368 1.369 . S
C368 C367 1.369 . S
C368 C369 1.408 . S
C368 H390 0.930 . S
C369 C364 1.348 . S
C369 C368 1.408 . S
C369 H391 0.930 . S
C370 O380 1.281 . S
C370 O381 1.254 . S
C371 O382 1.236 . S
C371 O383 1.266 . S
O372 Tb352 2.484 . S
O372 C354 1.248 . S
O373 Tb352 2.440 . S
O373 C354 1.266 . S
O374 Tb352 2.658 . S
O374 Tb353 2.325 . S
O374 C361 1.281 . S
O375 Tb352 2.409 . S
O375 C361 1.254 . S
O376 Tb352 2.378 . S
O376 C362 1.236 . S
O377 Tb353 2.341 . S
O377 C362 1.266 . S
O378 Tb353 2.484 . S
O378 C363 1.248 . S
O379 Tb353 2.440 . S
O379 C363 1.266 . S
O380 Tb352 2.325 . S
O380 Tb353 2.658 . S
O380 C370 1.281 . S
O381 Tb353 2.409 . S
O381 C370 1.254 . S
O382 Tb353 2.378 . S
O382 C371 1.236 . S
O383 Tb352 2.341 . S
O383 C371 1.266 . S
H384 C356 0.929 . S
H385 C357 0.931 . S
H386 C359 0.930 . S
H387 C360 0.930 . S
H388 C365 0.929 . S
H389 C366 0.931 . S
H390 C368 0.930 . S
H391 C369 0.930 . S
Tb392 C394 2.809 1_545 S
Tb392 O412 2.484 1_545 S
Tb392 O413 2.440 . S
Tb392 O414 2.658 . S
Tb392 O415 2.409 . S
Tb392 O416 2.378 1_545 S
Tb392 O420 2.325 . S
Tb392 O423 2.341 . S
Tb393 C403 2.809 . S
Tb393 O414 2.325 . S
Tb393 O417 2.341 1_545 S
Tb393 O418 2.484 . S
Tb393 O419 2.440 . S
Tb393 O420 2.658 . S
Tb393 O421 2.409 . S
Tb393 O422 2.378 . S
C394 Tb392 2.809 1_565 S
C394 C395 1.514 . S
C394 O412 1.248 . S
C394 O413 1.266 1_565 S
C395 C394 1.514 . S
C395 C396 1.359 . S
C395 C400 1.348 . S
C396 C395 1.359 . S
C396 C397 1.380 . S
C396 H424 0.929 . S
C397 C396 1.380 . S
C397 C398 1.347 . S
C397 H425 0.931 . S
C398 C397 1.347 . S
C398 C399 1.369 . S
C399 C398 1.369 . S
C399 C400 1.408 . S
C399 H426 0.930 . S
C400 C395 1.348 . S
C400 C399 1.408 . S
C400 H427 0.930 . S
C401 O414 1.281 . S
C401 O415 1.254 . S
C402 O416 1.236 . S
C402 O417 1.266 . S
C403 Tb393 2.809 . S
C403 C404 1.514 . S
C403 O418 1.248 . S
C403 O419 1.266 . S
C404 C403 1.514 . S
C404 C405 1.359 . S
C404 C409 1.348 . S
C405 C404 1.359 . S
C405 C406 1.380 . S
C405 H428 0.929 . S
C406 C405 1.380 . S
C406 C407 1.347 . S
C406 H429 0.931 . S
C407 C406 1.347 . S
C407 C408 1.369 . S
C408 C407 1.369 . S
C408 C409 1.408 . S
C408 H430 0.930 . S
C409 C404 1.348 . S
C409 C408 1.408 . S
C409 H431 0.930 . S
C410 O420 1.281 . S
C410 O421 1.254 . S
C411 O422 1.236 . S
C411 O423 1.266 . S
O412 Tb392 2.484 1_565 S
O412 C394 1.248 . S
O413 Tb392 2.440 . S
O413 C394 1.266 1_545 S
O414 Tb392 2.658 . S
O414 Tb393 2.325 . S
O414 C401 1.281 . S
O415 Tb392 2.409 . S
O415 C401 1.254 . S
O416 Tb392 2.378 1_565 S
O416 C402 1.236 . S
O417 Tb393 2.341 1_565 S
O417 C402 1.266 . S
O418 Tb393 2.484 . S
O418 C403 1.248 . S
O419 Tb393 2.440 . S
O419 C403 1.266 . S
O420 Tb392 2.325 . S
O420 Tb393 2.658 . S
O420 C410 1.281 . S
O421 Tb393 2.409 . S
O421 C410 1.254 . S
O422 Tb393 2.378 . S
O422 C411 1.236 . S
O423 Tb392 2.341 . S
O423 C411 1.266 . S
H424 C396 0.929 . S
H425 C397 0.931 . S
H426 C399 0.930 . S
H427 C400 0.930 . S
H428 C405 0.929 . S
H429 C406 0.931 . S
H430 C408 0.930 . S
H431 C409 0.930 . S
Tb432 C434 2.809 . S
Tb432 O452 2.484 . S
Tb432 O453 2.440 . S
Tb432 O454 2.658 . S
Tb432 O455 2.409 . S
Tb432 O456 2.378 . S
Tb432 O460 2.325 . S
Tb432 O463 2.341 . S
Tb433 C443 2.809 . S
Tb433 O454 2.325 . S
Tb433 O457 2.341 . S
Tb433 O458 2.484 . S
Tb433 O459 2.440 . S
Tb433 O460 2.658 . S
Tb433 O461 2.409 . S
Tb433 O462 2.378 . S
C434 Tb432 2.809 . S
C434 C435 1.514 . S
C434 O452 1.248 . S
C434 O453 1.266 . S
C435 C434 1.514 . S
C435 C436 1.359 . S
C435 C440 1.348 . S
C436 C435 1.359 . S
C436 C437 1.380 . S
C436 H464 0.929 . S
C437 C436 1.380 . S
C437 C438 1.347 . S
C437 H465 0.931 . S
C438 C437 1.347 . S
C438 C439 1.369 . S
C439 C438 1.369 . S
C439 C440 1.408 . S
C439 H466 0.930 . S
C440 C435 1.348 . S
C440 C439 1.408 . S
C440 H467 0.930 . S
C441 O454 1.281 . S
C441 O455 1.254 . S
C442 O456 1.236 . S
C442 O457 1.266 . S
C443 Tb433 2.809 . S
C443 C444 1.514 . S
C443 O458 1.248 . S
C443 O459 1.266 . S
C444 C443 1.514 . S
C444 C445 1.359 . S
C444 C449 1.348 . S
C445 C444 1.359 . S
C445 C446 1.380 . S
C445 H468 0.929 . S
C446 C445 1.380 . S
C446 C447 1.347 . S
C446 H469 0.931 . S
C447 C446 1.347 . S
C447 C448 1.369 . S
C448 C447 1.369 . S
C448 C449 1.408 . S
C448 H470 0.930 . S
C449 C444 1.348 . S
C449 C448 1.408 . S
C449 H471 0.930 . S
C450 O460 1.281 . S
C450 O461 1.254 . S
C451 O462 1.236 . S
C451 O463 1.266 . S
O452 Tb432 2.484 . S
O452 C434 1.248 . S
O453 Tb432 2.440 . S
O453 C434 1.266 . S
O454 Tb432 2.658 . S
O454 Tb433 2.325 . S
O454 C441 1.281 . S
O455 Tb432 2.409 . S
O455 C441 1.254 . S
O456 Tb432 2.378 . S
O456 C442 1.236 . S
O457 Tb433 2.341 . S
O457 C442 1.266 . S
O458 Tb433 2.484 . S
O458 C443 1.248 . S
O459 Tb433 2.440 . S
O459 C443 1.266 . S
O460 Tb432 2.325 . S
O460 Tb433 2.658 . S
O460 C450 1.281 . S
O461 Tb433 2.409 . S
O461 C450 1.254 . S
O462 Tb433 2.378 . S
O462 C451 1.236 . S
O463 Tb432 2.341 . S
O463 C451 1.266 . S
H464 C436 0.929 . S
H465 C437 0.931 . S
H466 C439 0.930 . S
H467 C440 0.930 . S
H468 C445 0.929 . S
H469 C446 0.931 . S
H470 C448 0.930 . S
H471 C449 0.930 . S
Tb472 C474 2.809 . S
Tb472 O492 2.484 . S
Tb472 O493 2.440 . S
Tb472 O494 2.706 . S
Tb472 O495 2.409 . S
Tb472 O496 2.378 . S
Tb472 O500 2.325 . S
Tb472 O503 2.341 . S
Tb473 C483 2.809 . S
Tb473 O494 2.300 1_565 S
Tb473 O497 2.341 . S
Tb473 O498 2.484 . S
Tb473 O499 2.440 . S
Tb473 O500 2.658 1_565 S
Tb473 O501 2.409 1_565 S
Tb473 O502 2.378 1_565 S
C474 Tb472 2.809 . S
C474 C475 1.514 . S
C474 O492 1.248 . S
C474 O493 1.266 . S
C475 C474 1.514 . S
C475 C476 1.359 . S
C475 C480 1.348 . S
C476 C475 1.359 . S
C476 C477 1.380 . S
C476 H504 0.929 . S
C477 C476 1.380 . S
C477 C478 1.347 . S
C477 H505 0.931 . S
C478 C477 1.347 . S
C478 C479 1.369 . S
C479 C478 1.369 . S
C479 C480 1.408 . S
C479 H506 0.930 1_455 S
C480 C475 1.348 . S
C480 C479 1.408 . S
C480 H507 0.930 1_455 S
C481 O494 1.297 . S
C481 O495 1.254 . S
C482 O496 1.236 . S
C482 O497 1.266 1_545 S
C483 Tb473 2.809 . S
C483 C484 1.514 . S
C483 O498 1.248 . S
C483 O499 1.266 . S
C484 C483 1.514 . S
C484 C485 1.359 . S
C484 C489 1.348 . S
C485 C484 1.359 . S
C485 C486 1.380 . S
C485 H508 0.929 . S
C486 C485 1.380 . S
C486 C487 1.347 . S
C486 H509 0.931 . S
C487 C486 1.347 . S
C487 C488 1.369 . S
C488 C487 1.369 . S
C488 C489 1.408 . S
C488 H510 0.930 . S
C489 C484 1.348 . S
C489 C488 1.408 . S
C489 H511 0.930 . S
C490 O500 1.281 . S
C490 O501 1.254 . S
C491 O502 1.236 . S
C491 O503 1.266 . S
O492 Tb472 2.484 . S
O492 C474 1.248 . S
O493 Tb472 2.440 . S
O493 C474 1.266 . S
O494 Tb472 2.706 . S
O494 Tb473 2.300 1_545 S
O494 C481 1.297 . S
O495 Tb472 2.409 . S
O495 C481 1.254 . S
O496 Tb472 2.378 . S
O496 C482 1.236 . S
O497 Tb473 2.341 . S
O497 C482 1.266 1_565 S
O498 Tb473 2.484 . S
O498 C483 1.248 . S
O499 Tb473 2.440 . S
O499 C483 1.266 . S
O500 Tb472 2.325 . S
O500 Tb473 2.658 1_545 S
O500 C490 1.281 . S
O501 Tb473 2.409 1_545 S
O501 C490 1.254 . S
O502 Tb473 2.378 1_545 S
O502 C491 1.236 . S
O503 Tb472 2.341 . S
O503 C491 1.266 . S
H504 C476 0.929 . S
H505 C477 0.931 . S
H506 C479 0.930 1_655 S
H507 C480 0.930 1_655 S
H508 C485 0.929 . S
H509 C486 0.931 . S
H510 C488 0.930 . S
H511 C489 0.930 . S
Tb512 C514 2.809 . S
Tb512 O532 2.484 . S
Tb512 O533 2.440 . S
Tb512 O534 2.658 . S
Tb512 O535 2.409 . S
Tb512 O536 2.378 . S
Tb512 O540 2.325 . S
Tb512 O543 2.341 . S
Tb513 C523 2.809 . S
Tb513 O534 2.325 . S
Tb513 O537 2.341 . S
Tb513 O538 2.484 . S
Tb513 O539 2.440 . S
Tb513 O540 2.658 . S
Tb513 O541 2.409 . S
Tb513 O542 2.378 . S
C514 Tb512 2.809 . S
C514 C515 1.514 . S
C514 O532 1.248 . S
C514 O533 1.266 . S
C515 C514 1.514 . S
C515 C516 1.359 . S
C515 C520 1.348 . S
C516 C515 1.359 . S
C516 C517 1.380 . S
C516 H544 0.929 . S
C517 C516 1.380 . S
C517 C518 1.347 . S
C517 H545 0.931 . S
C518 C517 1.347 . S
C518 C519 1.369 . S
C519 C518 1.369 . S
C519 C520 1.408 . S
C519 H546 0.930 . S
C520 C515 1.348 . S
C520 C519 1.408 . S
C520 H547 0.930 . S
C521 O534 1.281 . S
C521 O535 1.254 . S
C522 O536 1.236 . S
C522 O537 1.266 . S
C523 Tb513 2.809 . S
C523 C524 1.514 . S
C523 O538 1.248 . S
C523 O539 1.266 . S
C524 C523 1.514 . S
C524 C525 1.359 . S
C524 C529 1.348 . S
C525 C524 1.359 . S
C525 C526 1.380 . S
C525 H548 0.929 . S
C526 C525 1.380 . S
C526 C527 1.347 . S
C526 H549 0.931 . S
C527 C526 1.347 . S
C527 C528 1.369 . S
C528 C527 1.369 . S
C528 C529 1.408 . S
C528 H550 0.930 . S
C529 C524 1.348 . S
C529 C528 1.408 . S
C529 H551 0.930 . S
C530 O540 1.281 . S
C530 O541 1.254 . S
C531 O542 1.236 . S
C531 O543 1.266 . S
O532 Tb512 2.484 . S
O532 C514 1.248 . S
O533 Tb512 2.440 . S
O533 C514 1.266 . S
O534 Tb512 2.658 . S
O534 Tb513 2.325 . S
O534 C521 1.281 . S
O535 Tb512 2.409 . S
O535 C521 1.254 . S
O536 Tb512 2.378 . S
O536 C522 1.236 . S
O537 Tb513 2.341 . S
O537 C522 1.266 . S
O538 Tb513 2.484 . S
O538 C523 1.248 . S
O539 Tb513 2.440 . S
O539 C523 1.266 . S
O540 Tb512 2.325 . S
O540 Tb513 2.658 . S
O540 C530 1.281 . S
O541 Tb513 2.409 . S
O541 C530 1.254 . S
O542 Tb513 2.378 . S
O542 C531 1.236 . S
O543 Tb512 2.341 . S
O543 C531 1.266 . S
H544 C516 0.929 . S
H545 C517 0.931 . S
H546 C519 0.930 . S
H547 C520 0.930 . S
H548 C525 0.929 . S
H549 C526 0.931 . S
H550 C528 0.930 . S
H551 C529 0.930 . S
Tb552 C554 2.809 . S
Tb552 O572 2.484 . S
Tb552 O573 2.440 . S
Tb552 O574 2.658 . S
Tb552 O575 2.409 . S
Tb552 O576 2.378 . S
Tb552 O580 2.325 . S
Tb552 O583 2.341 1_554 S
Tb553 C563 2.809 . S
Tb553 O574 2.325 . S
Tb553 O577 2.341 . S
Tb553 O578 2.484 . S
Tb553 O579 2.440 . S
Tb553 O580 2.658 . S
Tb553 O581 2.409 1_545 S
Tb553 O582 2.378 . S
C554 Tb552 2.809 . S
C554 C555 1.514 . S
C554 O572 1.248 . S
C554 O573 1.266 . S
C555 C554 1.514 . S
C555 C556 1.359 1_545 S
C555 C560 1.348 . S
C556 C555 1.359 1_565 S
C556 C557 1.380 . S
C556 H584 0.929 . S
C557 C556 1.380 . S
C557 C558 1.347 . S
C557 H585 0.931 . S
C558 C557 1.347 . S
C558 C559 1.369 1_565 S
C559 C558 1.369 1_545 S
C559 C560 1.408 . S
C559 H586 0.930 . S
C560 C555 1.348 . S
C560 C559 1.408 . S
C560 H587 0.930 . S
C561 O574 1.281 . S
C561 O575 1.254 . S
C562 O576 1.236 . S
C562 O577 1.266 . S
C563 Tb553 2.809 . S
C563 C564 1.514 . S
C563 O578 1.248 . S
C563 O579 1.266 . S
C564 C563 1.514 . S
C564 C565 1.359 . S
C564 C569 1.348 . S
C565 C564 1.359 . S
C565 C566 1.380 . S
C565 H588 0.929 . S
C566 C565 1.380 . S
C566 C567 1.347 . S
C566 H589 0.931 . S
C567 C566 1.347 . S
C567 C568 1.369 . S
C568 C567 1.369 . S
C568 C569 1.408 . S
C568 H590 0.930 . S
C569 C564 1.348 . S
C569 C568 1.408 . S
C569 H591 0.930 . S
C570 O580 1.281 1_565 S
C570 O581 1.254 . S
C571 O582 1.236 1_556 S
C571 O583 1.266 . S
O572 Tb552 2.484 . S
O572 C554 1.248 . S
O573 Tb552 2.440 . S
O573 C554 1.266 . S
O574 Tb552 2.658 . S
O574 Tb553 2.325 . S
O574 C561 1.281 . S
O575 Tb552 2.409 . S
O575 C561 1.254 . S
O576 Tb552 2.378 . S
O576 C562 1.236 . S
O577 Tb553 2.341 . S
O577 C562 1.266 . S
O578 Tb553 2.484 . S
O578 C563 1.248 . S
O579 Tb553 2.440 . S
O579 C563 1.266 . S
O580 Tb552 2.325 . S
O580 Tb553 2.658 . S
O580 C570 1.281 1_545 S
O581 Tb553 2.409 1_565 S
O581 C570 1.254 . S
O582 Tb553 2.378 . S
O582 C571 1.236 1_554 S
O583 Tb552 2.341 1_556 S
O583 C571 1.266 . S
H584 C556 0.929 . S
H585 C557 0.931 . S
H586 C559 0.930 . S
H587 C560 0.930 . S
H588 C565 0.929 . S
H589 C566 0.931 . S
H590 C568 0.930 . S
H591 C569 0.930 . S
Tb592 C594 2.809 . S
Tb592 O612 2.484 . S
Tb592 O613 2.440 . S
Tb592 O614 2.658 . S
Tb592 O615 2.409 . S
Tb592 O616 2.378 . S
Tb592 O620 2.325 . S
Tb592 O623 2.341 . S
Tb593 C603 2.809 . S
Tb593 O614 2.325 . S
Tb593 O617 2.341 . S
Tb593 O618 2.484 . S
Tb593 O619 2.440 . S
Tb593 O620 2.658 . S
Tb593 O621 2.409 . S
Tb593 O622 2.378 . S
C594 Tb592 2.809 . S
C594 C595 1.514 . S
C594 O612 1.248 . S
C594 O613 1.266 . S
C595 C594 1.514 . S
C595 C596 1.359 . S
C595 C600 1.348 . S
C596 C595 1.359 . S
C596 C597 1.380 . S
C596 H624 0.929 . S
C597 C596 1.380 . S
C597 C598 1.347 . S
C597 H625 0.931 . S
C598 C597 1.347 . S
C598 C599 1.369 . S
C599 C598 1.369 . S
C599 C600 1.408 . S
C599 H626 0.930 . S
C600 C595 1.348 . S
C600 C599 1.408 . S
C600 H627 0.930 . S
C601 O614 1.281 . S
C601 O615 1.254 . S
C602 O616 1.236 . S
C602 O617 1.266 . S
C603 Tb593 2.809 . S
C603 C604 1.514 . S
C603 O618 1.248 . S
C603 O619 1.266 . S
C604 C603 1.514 . S
C604 C605 1.359 . S
C604 C609 1.348 . S
C605 C604 1.359 . S
C605 C606 1.380 . S
C605 H628 0.929 . S
C606 C605 1.380 . S
C606 C607 1.347 . S
C606 H629 0.931 . S
C607 C606 1.347 . S
C607 C608 1.369 . S
C608 C607 1.369 . S
C608 C609 1.408 . S
C608 H630 0.930 . S
C609 C604 1.348 . S
C609 C608 1.408 . S
C609 H631 0.930 . S
C610 O620 1.281 . S
C610 O621 1.254 . S
C611 O622 1.236 . S
C611 O623 1.266 . S
O612 Tb592 2.484 . S
O612 C594 1.248 . S
O613 Tb592 2.440 . S
O613 C594 1.266 . S
O614 Tb592 2.658 . S
O614 Tb593 2.325 . S
O614 C601 1.281 . S
O615 Tb592 2.409 . S
O615 C601 1.254 . S
O616 Tb592 2.378 . S
O616 C602 1.236 . S
O617 Tb593 2.341 . S
O617 C602 1.266 . S
O618 Tb593 2.484 . S
O618 C603 1.248 . S
O619 Tb593 2.440 . S
O619 C603 1.266 . S
O620 Tb592 2.325 . S
O620 Tb593 2.658 . S
O620 C610 1.281 . S
O621 Tb593 2.409 . S
O621 C610 1.254 . S
O622 Tb593 2.378 . S
O622 C611 1.236 . S
O623 Tb592 2.341 . S
O623 C611 1.266 . S
H624 C596 0.929 . S
H625 C597 0.931 . S
H626 C599 0.930 . S
H627 C600 0.930 . S
H628 C605 0.929 . S
H629 C606 0.931 . S
H630 C608 0.930 . S
H631 C609 0.930 . S
Tb632 C634 2.809 . S
Tb632 O652 2.484 . S
Tb632 O653 2.440 . S
Tb632 O654 2.658 . S
Tb632 O655 2.409 . S
Tb632 O656 2.378 . S
Tb632 O660 2.325 . S
Tb632 O663 2.341 . S
Tb633 C643 2.809 . S
Tb633 O654 2.325 . S
Tb633 O657 2.341 1_554 S
Tb633 O658 2.484 . S
Tb633 O659 2.440 . S
Tb633 O660 2.658 . S
Tb633 O661 2.409 . S
Tb633 O662 2.378 . S
C634 Tb632 2.809 . S
C634 C635 1.514 1_554 S
C634 O652 1.248 . S
C634 O653 1.266 . S
C635 C634 1.514 1_556 S
C635 C636 1.359 . S
C635 C640 1.348 . S
C636 C635 1.359 . S
C636 C637 1.380 . S
C636 H664 0.929 . S
C637 C636 1.380 . S
C637 C638 1.347 . S
C637 H665 0.931 . S
C638 C637 1.347 . S
C638 C639 1.369 . S
C639 C638 1.369 . S
C639 C640 1.408 . S
C639 H666 0.930 . S
C640 C635 1.348 . S
C640 C639 1.408 . S
C640 H667 0.930 1_556 S
C641 O654 1.281 . S
C641 O655 1.254 . S
C642 O656 1.236 1_556 S
C642 O657 1.266 . S
C643 Tb633 2.809 . S
C643 C644 1.514 . S
C643 O658 1.248 . S
C643 O659 1.266 . S
C644 C643 1.514 . S
C644 C645 1.359 . S
C644 C649 1.348 . S
C645 C644 1.359 . S
C645 C646 1.380 . S
C645 H668 0.929 . S
C646 C645 1.380 . S
C646 C647 1.347 . S
C646 H669 0.931 . S
C647 C646 1.347 . S
C647 C648 1.369 . S
C648 C647 1.369 . S
C648 C649 1.408 . S
C648 H670 0.930 . S
C649 C644 1.348 . S
C649 C648 1.408 . S
C649 H671 0.930 . S
C650 O660 1.281 . S
C650 O661 1.254 . S
C651 O662 1.236 . S
C651 O663 1.266 . S
O652 Tb632 2.484 . S
O652 C634 1.248 . S
O653 Tb632 2.440 . S
O653 C634 1.266 . S
O654 Tb632 2.658 . S
O654 Tb633 2.325 . S
O654 C641 1.281 . S
O655 Tb632 2.409 . S
O655 C641 1.254 . S
O656 Tb632 2.378 . S
O656 C642 1.236 1_554 S
O657 Tb633 2.341 1_556 S
O657 C642 1.266 . S
O658 Tb633 2.484 . S
O658 C643 1.248 . S
O659 Tb633 2.440 . S
O659 C643 1.266 . S
O660 Tb632 2.325 . S
O660 Tb633 2.658 . S
O660 C650 1.281 . S
O661 Tb633 2.409 . S
O661 C650 1.254 . S
O662 Tb633 2.378 . S
O662 C651 1.236 . S
O663 Tb632 2.341 . S
O663 C651 1.266 . S
H664 C636 0.929 . S
H665 C637 0.931 . S
H666 C639 0.930 . S
H667 C640 0.930 1_554 S
H668 C645 0.929 . S
H669 C646 0.931 . S
H670 C648 0.930 . S
H671 C649 0.930 . S
Tb672 C674 2.809 . S
Tb672 O692 2.484 . S
Tb672 O693 2.440 . S
Tb672 O694 2.658 . S
Tb672 O695 2.409 . S
Tb672 O696 2.378 . S
Tb672 O700 2.325 . S
Tb672 O703 2.341 . S
Tb673 C683 2.809 . S
Tb673 O694 2.325 . S
Tb673 O697 2.341 . S
Tb673 O698 2.484 . S
Tb673 O699 2.440 . S
Tb673 O700 2.658 . S
Tb673 O701 2.409 . S
Tb673 O702 2.378 . S
C674 Tb672 2.809 . S
C674 C675 1.514 . S
C674 O692 1.248 . S
C674 O693 1.266 . S
C675 C674 1.514 . S
C675 C676 1.359 . S
C675 C680 1.348 . S
C676 C675 1.359 . S
C676 C677 1.380 . S
C676 H704 0.929 . S
C677 C676 1.380 . S
C677 C678 1.347 . S
C677 H705 0.931 . S
C678 C677 1.347 . S
C678 C679 1.369 . S
C679 C678 1.369 . S
C679 C680 1.408 . S
C679 H706 0.930 . S
C680 C675 1.348 . S
C680 C679 1.408 . S
C680 H707 0.930 . S
C681 O694 1.281 . S
C681 O695 1.254 . S
C682 O696 1.236 . S
C682 O697 1.266 . S
C683 Tb673 2.809 . S
C683 C684 1.514 . S
C683 O698 1.248 . S
C683 O699 1.266 . S
C684 C683 1.514 . S
C684 C685 1.359 . S
C684 C689 1.348 . S
C685 C684 1.359 . S
C685 C686 1.380 . S
C685 H708 0.929 . S
C686 C685 1.380 . S
C686 C687 1.347 . S
C686 H709 0.931 . S
C687 C686 1.347 . S
C687 C688 1.369 . S
C688 C687 1.369 . S
C688 C689 1.408 . S
C688 H710 0.930 . S
C689 C684 1.348 . S
C689 C688 1.408 . S
C689 H711 0.930 . S
C690 O700 1.281 . S
C690 O701 1.254 . S
C691 O702 1.236 . S
C691 O703 1.266 . S
O692 Tb672 2.484 . S
O692 C674 1.248 . S
O693 Tb672 2.440 . S
O693 C674 1.266 . S
O694 Tb672 2.658 . S
O694 Tb673 2.325 . S
O694 C681 1.281 . S
O695 Tb672 2.409 . S
O695 C681 1.254 . S
O696 Tb672 2.378 . S
O696 C682 1.236 . S
O697 Tb673 2.341 . S
O697 C682 1.266 . S
O698 Tb673 2.484 . S
O698 C683 1.248 . S
O699 Tb673 2.440 . S
O699 C683 1.266 . S
O700 Tb672 2.325 . S
O700 Tb673 2.658 . S
O700 C690 1.281 . S
O701 Tb673 2.409 . S
O701 C690 1.254 . S
O702 Tb673 2.378 . S
O702 C691 1.236 . S
O703 Tb672 2.341 . S
O703 C691 1.266 . S
H704 C676 0.929 . S
H705 C677 0.931 . S
H706 C679 0.930 . S
H707 C680 0.930 . S
H708 C685 0.929 . S
H709 C686 0.931 . S
H710 C688 0.930 . S
H711 C689 0.930 . S
Tb712 C714 2.809 . S
Tb712 O732 2.484 . S
Tb712 O733 2.440 . S
Tb712 O734 2.658 1_655 S
Tb712 O735 2.409 1_655 S
Tb712 O736 2.378 . S
Tb712 O740 2.325 1_655 S
Tb712 O743 2.341 1_655 S
Tb713 C723 2.809 . S
Tb713 O734 2.325 . S
Tb713 O737 2.341 . S
Tb713 O738 2.484 . S
Tb713 O739 2.440 . S
Tb713 O740 2.658 . S
Tb713 O741 2.409 . S
Tb713 O742 2.378 . S
C714 Tb712 2.809 . S
C714 C715 1.514 . S
C714 O732 1.248 . S
C714 O733 1.266 . S
C715 C714 1.514 . S
C715 C716 1.359 . S
C715 C720 1.348 . S
C716 C715 1.359 . S
C716 C717 1.380 . S
C716 H744 0.929 . S
C717 C716 1.380 . S
C717 C718 1.347 . S
C717 H745 0.931 . S
C718 C717 1.347 . S
C718 C719 1.369 . S
C719 C718 1.369 . S
C719 C720 1.408 . S
C719 H746 0.930 . S
C720 C715 1.348 . S
C720 C719 1.408 . S
C720 H747 0.930 . S
C721 O734 1.281 . S
C721 O735 1.254 . S
C722 O736 1.236 1_455 S
C722 O737 1.266 . S
C723 Tb713 2.809 . S
C723 C724 1.514 . S
C723 O738 1.248 . S
C723 O739 1.266 . S
C724 C723 1.514 . S
C724 C725 1.359 . S
C724 C729 1.348 . S
C725 C724 1.359 . S
C725 C726 1.380 . S
C725 H748 0.929 . S
C726 C725 1.380 . S
C726 C727 1.347 . S
C726 H749 0.931 . S
C727 C726 1.347 . S
C727 C728 1.369 . S
C728 C727 1.369 . S
C728 C729 1.408 . S
C728 H750 0.930 . S
C729 C724 1.348 . S
C729 C728 1.408 . S
C729 H751 0.930 . S
C730 O740 1.281 . S
C730 O741 1.254 . S
C731 O742 1.236 . S
C731 O743 1.266 . S
O732 Tb712 2.484 . S
O732 C714 1.248 . S
O733 Tb712 2.440 . S
O733 C714 1.266 . S
O734 Tb712 2.658 1_455 S
O734 Tb713 2.325 . S
O734 C721 1.281 . S
O735 Tb712 2.409 1_455 S
O735 C721 1.254 . S
O736 Tb712 2.378 . S
O736 C722 1.236 1_655 S
O737 Tb713 2.341 . S
O737 C722 1.266 . S
O738 Tb713 2.484 . S
O738 C723 1.248 . S
O739 Tb713 2.440 . S
O739 C723 1.266 . S
O740 Tb712 2.325 1_455 S
O740 Tb713 2.658 . S
O740 C730 1.281 . S
O741 Tb713 2.409 . S
O741 C730 1.254 . S
O742 Tb713 2.378 . S
O742 C731 1.236 . S
O743 Tb712 2.341 1_455 S
O743 C731 1.266 . S
H744 C716 0.929 . S
H745 C717 0.931 . S
H746 C719 0.930 . S
H747 C720 0.930 . S
H748 C725 0.929 . S
H749 C726 0.931 . S
H750 C728 0.930 . S
H751 C729 0.930 . S
Tb752 C754 2.809 . S
Tb752 O772 2.484 . S
Tb752 O773 2.440 . S
Tb752 O774 2.658 . S
Tb752 O775 2.409 . S
Tb752 O776 2.378 . S
Tb752 O780 2.325 . S
Tb752 O783 2.341 . S
Tb753 C763 2.809 . S
Tb753 O774 2.325 . S
Tb753 O777 2.341 . S
Tb753 O778 2.484 . S
Tb753 O779 2.440 . S
Tb753 O780 2.658 . S
Tb753 O781 2.409 . S
Tb753 O782 2.378 . S
C754 Tb752 2.809 . S
C754 C755 1.514 . S
C754 O772 1.248 . S
C754 O773 1.266 . S
C755 C754 1.514 . S
C755 C756 1.359 . S
C755 C760 1.348 . S
C756 C755 1.359 . S
C756 C757 1.380 . S
C756 H784 0.929 . S
C757 C756 1.380 . S
C757 C758 1.347 . S
C757 H785 0.931 . S
C758 C757 1.347 . S
C758 C759 1.369 . S
C759 C758 1.369 . S
C759 C760 1.408 . S
C759 H786 0.930 . S
C760 C755 1.348 . S
C760 C759 1.408 . S
C760 H787 0.930 . S
C761 O774 1.281 . S
C761 O775 1.254 . S
C762 O776 1.236 . S
C762 O777 1.266 . S
C763 Tb753 2.809 . S
C763 C764 1.514 . S
C763 O778 1.248 . S
C763 O779 1.266 . S
C764 C763 1.514 . S
C764 C765 1.359 . S
C764 C769 1.348 . S
C765 C764 1.359 . S
C765 C766 1.380 . S
C765 H788 0.929 . S
C766 C765 1.380 . S
C766 C767 1.347 . S
C766 H789 0.931 . S
C767 C766 1.347 . S
C767 C768 1.369 . S
C768 C767 1.369 . S
C768 C769 1.408 . S
C768 H790 0.930 . S
C769 C764 1.348 . S
C769 C768 1.408 . S
C769 H791 0.930 . S
C770 O780 1.281 . S
C770 O781 1.254 . S
C771 O782 1.236 . S
C771 O783 1.266 . S
O772 Tb752 2.484 . S
O772 C754 1.248 . S
O773 Tb752 2.440 . S
O773 C754 1.266 . S
O774 Tb752 2.658 . S
O774 Tb753 2.325 . S
O774 C761 1.281 . S
O775 Tb752 2.409 . S
O775 C761 1.254 . S
O776 Tb752 2.378 . S
O776 C762 1.236 . S
O777 Tb753 2.341 . S
O777 C762 1.266 . S
O778 Tb753 2.484 . S
O778 C763 1.248 . S
O779 Tb753 2.440 . S
O779 C763 1.266 . S
O780 Tb752 2.325 . S
O780 Tb753 2.658 . S
O780 C770 1.281 . S
O781 Tb753 2.409 . S
O781 C770 1.254 . S
O782 Tb753 2.378 . S
O782 C771 1.236 . S
O783 Tb752 2.341 . S
O783 C771 1.266 . S
H784 C756 0.929 . S
H785 C757 0.931 . S
H786 C759 0.930 . S
H787 C760 0.930 . S
H788 C765 0.929 . S
H789 C766 0.931 . S
H790 C768 0.930 . S
H791 C769 0.930 . S
Tb792 C794 2.809 . S
Tb792 O812 2.484 . S
Tb792 O813 2.440 . S
Tb792 O814 2.658 . S
Tb792 O815 2.409 . S
Tb792 O816 2.378 . S
Tb792 O820 2.325 . S
Tb792 O823 2.341 . S
Tb793 C803 2.809 . S
Tb793 O814 2.325 . S
Tb793 O817 2.341 . S
Tb793 O818 2.484 . S
Tb793 O819 2.440 . S
Tb793 O820 2.658 . S
Tb793 O821 2.409 . S
Tb793 O822 2.378 . S
C794 Tb792 2.809 . S
C794 C795 1.514 . S
C794 O812 1.248 . S
C794 O813 1.266 . S
C795 C794 1.514 . S
C795 C796 1.359 . S
C795 C800 1.348 . S
C796 C795 1.359 . S
C796 C797 1.380 . S
C796 H824 0.929 . S
C797 C796 1.380 . S
C797 C798 1.347 . S
C797 H825 0.931 . S
C798 C797 1.347 . S
C798 C799 1.369 . S
C799 C798 1.369 . S
C799 C800 1.408 . S
C799 H826 0.930 . S
C800 C795 1.348 . S
C800 C799 1.408 . S
C800 H827 0.930 . S
C801 O814 1.281 . S
C801 O815 1.254 . S
C802 O816 1.236 . S
C802 O817 1.266 . S
C803 Tb793 2.809 . S
C803 C804 1.514 . S
C803 O818 1.248 . S
C803 O819 1.266 . S
C804 C803 1.514 . S
C804 C805 1.359 . S
C804 C809 1.348 . S
C805 C804 1.359 . S
C805 C806 1.380 . S
C805 H828 0.929 . S
C806 C805 1.380 . S
C806 C807 1.347 . S
C806 H829 0.931 . S
C807 C806 1.347 . S
C807 C808 1.369 . S
C808 C807 1.369 . S
C808 C809 1.408 . S
C808 H830 0.930 . S
C809 C804 1.348 . S
C809 C808 1.408 . S
C809 H831 0.930 . S
C810 O820 1.281 . S
C810 O821 1.254 . S
C811 O822 1.236 . S
C811 O823 1.266 . S
O812 Tb792 2.484 . S
O812 C794 1.248 . S
O813 Tb792 2.440 . S
O813 C794 1.266 . S
O814 Tb792 2.658 . S
O814 Tb793 2.325 . S
O814 C801 1.281 . S
O815 Tb792 2.409 . S
O815 C801 1.254 . S
O816 Tb792 2.378 . S
O816 C802 1.236 . S
O817 Tb793 2.341 . S
O817 C802 1.266 . S
O818 Tb793 2.484 . S
O818 C803 1.248 . S
O819 Tb793 2.440 . S
O819 C803 1.266 . S
O820 Tb792 2.325 . S
O820 Tb793 2.658 . S
O820 C810 1.281 . S
O821 Tb793 2.409 . S
O821 C810 1.254 . S
O822 Tb793 2.378 . S
O822 C811 1.236 . S
O823 Tb792 2.341 . S
O823 C811 1.266 . S
H824 C796 0.929 . S
H825 C797 0.931 . S
H826 C799 0.930 . S
H827 C800 0.930 . S
H828 C805 0.929 . S
H829 C806 0.931 . S
H830 C808 0.930 . S
H831 C809 0.930 . S
Tb832 C834 2.809 . S
Tb832 O852 2.484 . S
Tb832 O853 2.440 . S
Tb832 O854 2.658 . S
Tb832 O855 2.409 . S
Tb832 O856 2.378 . S
Tb832 O860 2.325 . S
Tb832 O863 2.341 . S
Tb833 C843 2.809 . S
Tb833 O854 2.325 . S
Tb833 O857 2.341 . S
Tb833 O858 2.484 . S
Tb833 O859 2.440 . S
Tb833 O860 2.658 . S
Tb833 O861 2.409 . S
Tb833 O862 2.378 . S
C834 Tb832 2.809 . S
C834 C835 1.514 . S
C834 O852 1.248 . S
C834 O853 1.266 . S
C835 C834 1.514 . S
C835 C836 1.359 . S
C835 C840 1.348 . S
C836 C835 1.359 . S
C836 C837 1.380 . S
C836 H864 0.929 . S
C837 C836 1.380 . S
C837 C838 1.347 . S
C837 H865 0.931 . S
C838 C837 1.347 . S
C838 C839 1.369 . S
C839 C838 1.369 . S
C839 C840 1.408 . S
C839 H866 0.930 . S
C840 C835 1.348 . S
C840 C839 1.408 . S
C840 H867 0.930 . S
C841 O854 1.281 . S
C841 O855 1.254 . S
C842 O856 1.236 . S
C842 O857 1.266 . S
C843 Tb833 2.809 . S
C843 C844 1.514 . S
C843 O858 1.248 . S
C843 O859 1.266 . S
C844 C843 1.514 . S
C844 C845 1.359 . S
C844 C849 1.348 . S
C845 C844 1.359 . S
C845 C846 1.380 . S
C845 H868 0.929 . S
C846 C845 1.380 . S
C846 C847 1.347 . S
C846 H869 0.931 . S
C847 C846 1.347 . S
C847 C848 1.369 . S
C848 C847 1.369 . S
C848 C849 1.408 . S
C848 H870 0.930 . S
C849 C844 1.348 . S
C849 C848 1.408 . S
C849 H871 0.930 . S
C850 O860 1.281 . S
C850 O861 1.254 . S
C851 O862 1.236 . S
C851 O863 1.266 . S
O852 Tb832 2.484 . S
O852 C834 1.248 . S
O853 Tb832 2.440 . S
O853 C834 1.266 . S
O854 Tb832 2.658 . S
O854 Tb833 2.325 . S
O854 C841 1.281 . S
O855 Tb832 2.409 . S
O855 C841 1.254 . S
O856 Tb832 2.378 . S
O856 C842 1.236 . S
O857 Tb833 2.341 . S
O857 C842 1.266 . S
O858 Tb833 2.484 . S
O858 C843 1.248 . S
O859 Tb833 2.440 . S
O859 C843 1.266 . S
O860 Tb832 2.325 . S
O860 Tb833 2.658 . S
O860 C850 1.281 . S
O861 Tb833 2.409 . S
O861 C850 1.254 . S
O862 Tb833 2.378 . S
O862 C851 1.236 . S
O863 Tb832 2.341 . S
O863 C851 1.266 . S
H864 C836 0.929 . S
H865 C837 0.931 . S
H866 C839 0.930 . S
H867 C840 0.930 . S
H868 C845 0.929 . S
H869 C846 0.931 . S
H870 C848 0.930 . S
H871 C849 0.930 . S
Tb872 C874 2.809 . S
Tb872 O892 2.484 . S
Tb872 O893 2.440 . S
Tb872 O894 2.658 . S
Tb872 O895 2.409 . S
Tb872 O896 2.378 . S
Tb872 O900 2.325 . S
Tb872 O903 2.341 . S
Tb873 C883 2.809 . S
Tb873 O894 2.325 . S
Tb873 O897 2.341 . S
Tb873 O898 2.484 . S
Tb873 O899 2.440 . S
Tb873 O900 2.658 . S
Tb873 O901 2.409 . S
Tb873 O902 2.378 . S
C874 Tb872 2.809 . S
C874 C875 1.514 . S
C874 O892 1.248 . S
C874 O893 1.266 . S
C875 C874 1.514 . S
C875 C876 1.359 . S
C875 C880 1.348 . S
C876 C875 1.359 . S
C876 C877 1.380 . S
C876 H904 0.929 . S
C877 C876 1.380 . S
C877 C878 1.347 . S
C877 H905 0.931 . S
C878 C877 1.347 . S
C878 C879 1.369 . S
C879 C878 1.369 . S
C879 C880 1.408 . S
C879 H906 0.930 . S
C880 C875 1.348 . S
C880 C879 1.408 . S
C880 H907 0.930 . S
C881 O894 1.281 . S
C881 O895 1.254 . S
C882 O896 1.236 . S
C882 O897 1.266 . S
C883 Tb873 2.809 . S
C883 C884 1.514 . S
C883 O898 1.248 . S
C883 O899 1.266 . S
C884 C883 1.514 . S
C884 C885 1.359 . S
C884 C889 1.348 . S
C885 C884 1.359 . S
C885 C886 1.380 . S
C885 H908 0.929 . S
C886 C885 1.380 . S
C886 C887 1.347 . S
C886 H909 0.931 . S
C887 C886 1.347 . S
C887 C888 1.369 . S
C888 C887 1.369 . S
C888 C889 1.408 . S
C888 H910 0.930 . S
C889 C884 1.348 . S
C889 C888 1.408 . S
C889 H911 0.930 . S
C890 O900 1.281 . S
C890 O901 1.254 . S
C891 O902 1.236 . S
C891 O903 1.266 . S
O892 Tb872 2.484 . S
O892 C874 1.248 . S
O893 Tb872 2.440 . S
O893 C874 1.266 . S
O894 Tb872 2.658 . S
O894 Tb873 2.325 . S
O894 C881 1.281 . S
O895 Tb872 2.409 . S
O895 C881 1.254 . S
O896 Tb872 2.378 . S
O896 C882 1.236 . S
O897 Tb873 2.341 . S
O897 C882 1.266 . S
O898 Tb873 2.484 . S
O898 C883 1.248 . S
O899 Tb873 2.440 . S
O899 C883 1.266 . S
O900 Tb872 2.325 . S
O900 Tb873 2.658 . S
O900 C890 1.281 . S
O901 Tb873 2.409 . S
O901 C890 1.254 . S
O902 Tb873 2.378 . S
O902 C891 1.236 . S
O903 Tb872 2.341 . S
O903 C891 1.266 . S
H904 C876 0.929 . S
H905 C877 0.931 . S
H906 C879 0.930 . S
H907 C880 0.930 . S
H908 C885 0.929 . S
H909 C886 0.931 . S
H910 C888 0.930 . S
H911 C889 0.930 . S
Tb912 C914 2.809 . S
Tb912 O932 2.484 . S
Tb912 O933 2.440 . S
Tb912 O934 2.658 . S
Tb912 O935 2.409 . S
Tb912 O936 2.378 . S
Tb912 O940 2.325 . S
Tb912 O943 2.341 . S
Tb913 C923 2.809 1_455 S
Tb913 O934 2.325 . S
Tb913 O937 2.341 . S
Tb913 O938 2.484 1_455 S
Tb913 O939 2.440 1_455 S
Tb913 O940 2.658 . S
Tb913 O941 2.409 . S
Tb913 O942 2.378 . S
C914 Tb912 2.809 . S
C914 C915 1.514 . S
C914 O932 1.248 . S
C914 O933 1.266 . S
C915 C914 1.514 . S
C915 C916 1.359 . S
C915 C920 1.348 . S
C916 C915 1.359 . S
C916 C917 1.380 . S
C916 H944 0.929 . S
C917 C916 1.380 . S
C917 C918 1.347 . S
C917 H945 0.931 . S
C918 C917 1.347 . S
C918 C919 1.369 . S
C919 C918 1.369 . S
C919 C920 1.408 . S
C919 H946 0.930 1_554 S
C920 C915 1.348 . S
C920 C919 1.408 . S
C920 H947 0.930 1_554 S
C921 O934 1.281 . S
C921 O935 1.254 . S
C922 O936 1.236 . S
C922 O937 1.266 . S
C923 Tb913 2.809 1_655 S
C923 C924 1.514 . S
C923 O938 1.248 . S
C923 O939 1.266 . S
C924 C923 1.514 . S
C924 C925 1.359 . S
C924 C929 1.348 . S
C925 C924 1.359 . S
C925 C926 1.380 . S
C925 H948 0.929 . S
C926 C925 1.380 . S
C926 C927 1.347 . S
C926 H949 0.931 . S
C927 C926 1.347 . S
C927 C928 1.369 . S
C928 C927 1.369 . S
C928 C929 1.408 . S
C928 H950 0.930 . S
C929 C924 1.348 . S
C929 C928 1.408 . S
C929 H951 0.930 . S
C930 O940 1.281 . S
C930 O941 1.254 . S
C931 O942 1.236 . S
C931 O943 1.266 . S
O932 Tb912 2.484 . S
O932 C914 1.248 . S
O933 Tb912 2.440 . S
O933 C914 1.266 . S
O934 Tb912 2.658 . S
O934 Tb913 2.325 . S
O934 C921 1.281 . S
O935 Tb912 2.409 . S
O935 C921 1.254 . S
O936 Tb912 2.378 . S
O936 C922 1.236 . S
O937 Tb913 2.341 . S
O937 C922 1.266 . S
O938 Tb913 2.484 1_655 S
O938 C923 1.248 . S
O939 Tb913 2.440 1_655 S
O939 C923 1.266 . S
O940 Tb912 2.325 . S
O940 Tb913 2.658 . S
O940 C930 1.281 . S
O941 Tb913 2.409 . S
O941 C930 1.254 . S
O942 Tb913 2.378 . S
O942 C931 1.236 . S
O943 Tb912 2.341 . S
O943 C931 1.266 . S
H944 C916 0.929 . S
H945 C917 0.931 . S
H946 C919 0.930 1_556 S
H947 C920 0.930 1_556 S
H948 C925 0.929 . S
H949 C926 0.931 . S
H950 C928 0.930 . S
H951 C929 0.930 . S
C952 C953 1.391 . S
C952 C954 1.394 . S
C952 H968 0.931 . S
C953 C952 1.391 . S
C953 C957 1.403 . S
C954 C952 1.394 . S
C954 C955 1.369 1_556 S
C954 C958 1.531 . S
C955 C954 1.369 1_554 S
C955 C956 1.410 . S
C955 C963 1.503 . S
C956 C955 1.410 . S
C956 C957 1.368 1_554 S
C956 C959 1.511 . S
C957 C953 1.403 . S
C957 C956 1.368 1_556 S
C957 H969 0.929 1_556 S
C958 C954 1.531 . S
C958 H970 0.960 . S
C958 H971 0.962 1_455 S
C958 H972 0.960 1_455 S
C959 C956 1.511 . S
C959 H973 0.961 . S
C959 H974 0.961 . S
C959 H975 0.961 . S
C960 C961 1.370 . S
C960 C962 1.363 . S
C960 H976 0.931 . S
C961 C960 1.370 . S
C961 C965 1.408 . S
C962 C960 1.363 . S
C962 C963 1.370 . S
C962 C966 1.524 . S
C963 C955 1.503 . S
C963 C962 1.370 . S
C963 C964 1.403 . S
C964 C963 1.403 . S
C964 C965 1.404 . S
C964 C967 1.539 1_554 S
C965 C961 1.408 . S
C965 C964 1.404 . S
C965 H977 0.930 . S
C966 C962 1.524 . S
C966 H978 0.956 . S
C966 H979 0.961 . S
C966 H980 0.961 . S
C967 C964 1.539 1_556 S
C967 H981 0.958 . S
C967 H982 0.961 . S
C967 H983 0.960 . S
H968 C952 0.931 . S
H969 C957 0.929 1_554 S
H970 C958 0.960 . S
H971 C958 0.962 1_655 S
H972 C958 0.960 1_655 S
H973 C959 0.961 . S
H974 C959 0.961 . S
H975 C959 0.961 . S
H976 C960 0.931 . S
H977 C965 0.930 . S
H978 C966 0.956 . S
H979 C966 0.961 . S
H980 C966 0.961 . S
H981 C967 0.958 . S
H982 C967 0.961 . S
H983 C967 0.960 . S
C984 C985 1.391 . S
C984 C986 1.394 . S
C984 H1000 0.931 . S
C985 C984 1.391 . S
C985 C989 1.376 . S
C986 C984 1.394 . S
C986 C987 1.369 . S
C986 C990 1.531 . S
C987 C986 1.369 . S
C987 C988 1.410 . S
C987 C995 1.503 . S
C988 C987 1.410 . S
C988 C989 1.392 . S
C988 C991 1.511 . S
C989 C985 1.376 . S
C989 C988 1.392 . S
C989 H1001 0.929 . S
C990 C986 1.531 . S
C990 H1002 0.960 . S
C990 H1003 0.962 . S
C990 H1004 0.960 . S
C991 C988 1.511 . S
C991 H1005 0.961 . S
C991 H1006 0.961 . S
C991 H1007 0.961 . S
C992 C993 1.370 . S
C992 C994 1.363 . S
C992 H1008 0.931 . S
C993 C992 1.370 . S
C993 C997 1.408 . S
C994 C992 1.363 . S
C994 C995 1.370 . S
C994 C998 1.524 . S
C995 C987 1.503 . S
C995 C994 1.370 . S
C995 C996 1.403 . S
C996 C995 1.403 . S
C996 C997 1.404 . S
C996 C999 1.539 . S
C997 C993 1.408 . S
C997 C996 1.404 . S
C997 H1009 0.930 . S
C998 C994 1.524 . S
C998 H1010 0.956 . S
C998 H1011 0.961 . S
C998 H1012 0.961 . S
C999 C996 1.539 . S
C999 H1013 0.958 . S
C999 H1014 0.961 . S
C999 H1015 0.960 . S
H1000 C984 0.931 . S
H1001 C989 0.929 . S
H1002 C990 0.960 . S
H1003 C990 0.962 . S
H1004 C990 0.960 . S
H1005 C991 0.961 . S
H1006 C991 0.961 . S
H1007 C991 0.961 . S
H1008 C992 0.931 . S
H1009 C997 0.930 . S
H1010 C998 0.956 . S
H1011 C998 0.961 . S
H1012 C998 0.961 . S
H1013 C999 0.958 . S
H1014 C999 0.961 . S
H1015 C999 0.960 . S
C1016 C1017 1.391 . S
C1016 C1018 1.394 . S
C1016 H1032 0.931 . S
C1017 C1016 1.391 . S
C1017 C1021 1.376 . S
C1018 C1016 1.394 . S
C1018 C1019 1.369 . S
C1018 C1022 1.531 . S
C1019 C1018 1.369 . S
C1019 C1020 1.410 . S
C1019 C1027 1.503 . S
C1020 C1019 1.410 . S
C1020 C1021 1.392 . S
C1020 C1023 1.511 . S
C1021 C1017 1.376 . S
C1021 C1020 1.392 . S
C1021 H1033 0.929 . S
C1022 C1018 1.531 . S
C1022 H1034 0.960 . S
C1022 H1035 0.962 . S
C1022 H1036 0.960 . S
C1023 C1020 1.511 . S
C1023 H1037 0.961 . S
C1023 H1038 0.961 . S
C1023 H1039 0.961 . S
C1024 C1025 1.370 . S
C1024 C1026 1.363 . S
C1024 H1040 0.931 . S
C1025 C1024 1.370 . S
C1025 C1029 1.408 . S
C1026 C1024 1.363 . S
C1026 C1027 1.370 . S
C1026 C1030 1.524 . S
C1027 C1019 1.503 . S
C1027 C1026 1.370 . S
C1027 C1028 1.403 . S
C1028 C1027 1.403 . S
C1028 C1029 1.404 . S
C1028 C1031 1.539 . S
C1029 C1025 1.408 . S
C1029 C1028 1.404 . S
C1029 H1041 0.930 . S
C1030 C1026 1.524 . S
C1030 H1042 0.956 . S
C1030 H1043 0.961 . S
C1030 H1044 0.961 . S
C1031 C1028 1.539 . S
C1031 H1045 0.958 . S
C1031 H1046 0.961 . S
C1031 H1047 0.960 . S
H1032 C1016 0.931 . S
H1033 C1021 0.929 . S
H1034 C1022 0.960 . S
H1035 C1022 0.962 . S
H1036 C1022 0.960 . S
H1037 C1023 0.961 . S
H1038 C1023 0.961 . S
H1039 C1023 0.961 . S
H1040 C1024 0.931 . S
H1041 C1029 0.930 . S
H1042 C1030 0.956 . S
H1043 C1030 0.961 . S
H1044 C1030 0.961 . S
H1045 C1031 0.958 . S
H1046 C1031 0.961 . S
H1047 C1031 0.960 . S
C1048 C1049 1.391 . S
C1048 C1050 1.394 . S
C1048 H1064 0.931 . S
C1049 C1048 1.391 . S
C1049 C1053 1.376 . S
C1050 C1048 1.394 . S
C1050 C1051 1.369 . S
C1050 C1054 1.531 . S
C1051 C1050 1.369 . S
C1051 C1052 1.410 . S
C1051 C1059 1.503 . S
C1052 C1051 1.410 . S
C1052 C1053 1.392 . S
C1052 C1055 1.511 . S
C1053 C1049 1.376 . S
C1053 C1052 1.392 . S
C1053 H1065 0.929 . S
C1054 C1050 1.531 . S
C1054 H1066 0.960 . S
C1054 H1067 0.962 . S
C1054 H1068 0.960 . S
C1055 C1052 1.511 . S
C1055 H1069 0.961 . S
C1055 H1070 0.961 . S
C1055 H1071 0.961 . S
C1056 C1057 1.370 . S
C1056 C1058 1.363 . S
C1056 H1072 0.931 . S
C1057 C1056 1.370 . S
C1057 C1061 1.408 . S
C1058 C1056 1.363 . S
C1058 C1059 1.370 . S
C1058 C1062 1.524 . S
C1059 C1051 1.503 . S
C1059 C1058 1.370 . S
C1059 C1060 1.403 . S
C1060 C1059 1.403 . S
C1060 C1061 1.404 . S
C1060 C1063 1.539 . S
C1061 C1057 1.408 . S
C1061 C1060 1.404 . S
C1061 H1073 0.930 . S
C1062 C1058 1.524 . S
C1062 H1074 0.956 . S
C1062 H1075 0.961 . S
C1062 H1076 0.961 . S
C1063 C1060 1.539 . S
C1063 H1077 0.958 . S
C1063 H1078 0.961 . S
C1063 H1079 0.960 . S
H1064 C1048 0.931 . S
H1065 C1053 0.929 . S
H1066 C1054 0.960 . S
H1067 C1054 0.962 . S
H1068 C1054 0.960 . S
H1069 C1055 0.961 . S
H1070 C1055 0.961 . S
H1071 C1055 0.961 . S
H1072 C1056 0.931 . S
H1073 C1061 0.930 . S
H1074 C1062 0.956 . S
H1075 C1062 0.961 . S
H1076 C1062 0.961 . S
H1077 C1063 0.958 . S
H1078 C1063 0.961 . S
H1079 C1063 0.960 . S
C1080 C1081 1.391 . S
C1080 C1082 1.394 . S
C1080 H1096 0.931 . S
C1081 C1080 1.391 . S
C1081 C1085 1.376 . S
C1082 C1080 1.394 . S
C1082 C1083 1.369 . S
C1082 C1086 1.531 . S
C1083 C1082 1.369 . S
C1083 C1084 1.410 . S
C1083 C1091 1.503 . S
C1084 C1083 1.410 . S
C1084 C1085 1.392 . S
C1084 C1087 1.511 . S
C1085 C1081 1.376 . S
C1085 C1084 1.392 . S
C1085 H1097 0.929 . S
C1086 C1082 1.531 . S
C1086 H1098 0.960 . S
C1086 H1099 0.962 . S
C1086 H1100 0.960 . S
C1087 C1084 1.511 . S
C1087 H1101 0.961 . S
C1087 H1102 0.961 . S
C1087 H1103 0.961 . S
C1088 C1089 1.370 . S
C1088 C1090 1.363 . S
C1088 H1104 0.931 . S
C1089 C1088 1.370 . S
C1089 C1093 1.408 . S
C1090 C1088 1.363 . S
C1090 C1091 1.370 . S
C1090 C1094 1.524 . S
C1091 C1083 1.503 . S
C1091 C1090 1.370 . S
C1091 C1092 1.403 . S
C1092 C1091 1.403 . S
C1092 C1093 1.404 . S
C1092 C1095 1.539 . S
C1093 C1089 1.408 . S
C1093 C1092 1.404 . S
C1093 H1105 0.930 . S
C1094 C1090 1.524 . S
C1094 H1106 0.956 . S
C1094 H1107 0.961 . S
C1094 H1108 0.961 . S
C1095 C1092 1.539 . S
C1095 H1109 0.958 . S
C1095 H1110 0.961 . S
C1095 H1111 0.960 . S
H1096 C1080 0.931 . S
H1097 C1085 0.929 . S
H1098 C1086 0.960 . S
H1099 C1086 0.962 . S
H1100 C1086 0.960 . S
H1101 C1087 0.961 . S
H1102 C1087 0.961 . S
H1103 C1087 0.961 . S
H1104 C1088 0.931 . S
H1105 C1093 0.930 . S
H1106 C1094 0.956 . S
H1107 C1094 0.961 . S
H1108 C1094 0.961 . S
H1109 C1095 0.958 . S
H1110 C1095 0.961 . S
H1111 C1095 0.960 . S
C1112 C1113 1.391 . S
C1112 C1114 1.394 . S
C1112 H1128 0.931 . S
C1113 C1112 1.391 . S
C1113 C1117 1.376 . S
C1114 C1112 1.394 . S
C1114 C1115 1.369 . S
C1114 C1118 1.531 . S
C1115 C1114 1.369 . S
C1115 C1116 1.410 . S
C1115 C1123 1.503 . S
C1116 C1115 1.410 . S
C1116 C1117 1.392 . S
C1116 C1119 1.511 . S
C1117 C1113 1.376 . S
C1117 C1116 1.392 . S
C1117 H1129 0.929 . S
C1118 C1114 1.531 . S
C1118 H1130 0.960 . S
C1118 H1131 0.962 . S
C1118 H1132 0.960 . S
C1119 C1116 1.511 . S
C1119 H1133 0.961 . S
C1119 H1134 0.961 . S
C1119 H1135 0.961 . S
C1120 C1121 1.370 . S
C1120 C1122 1.363 . S
C1120 H1136 0.931 . S
C1121 C1120 1.370 . S
C1121 C1125 1.408 . S
C1122 C1120 1.363 . S
C1122 C1123 1.370 . S
C1122 C1126 1.524 . S
C1123 C1115 1.503 . S
C1123 C1122 1.370 . S
C1123 C1124 1.403 . S
C1124 C1123 1.403 . S
C1124 C1125 1.404 . S
C1124 C1127 1.539 . S
C1125 C1121 1.408 . S
C1125 C1124 1.404 . S
C1125 H1137 0.930 . S
C1126 C1122 1.524 . S
C1126 H1138 0.956 . S
C1126 H1139 0.961 . S
C1126 H1140 0.961 . S
C1127 C1124 1.539 . S
C1127 H1141 0.958 . S
C1127 H1142 0.961 . S
C1127 H1143 0.960 . S
H1128 C1112 0.931 . S
H1129 C1117 0.929 . S
H1130 C1118 0.960 . S
H1131 C1118 0.962 . S
H1132 C1118 0.960 . S
H1133 C1119 0.961 . S
H1134 C1119 0.961 . S
H1135 C1119 0.961 . S
H1136 C1120 0.931 . S
H1137 C1125 0.930 . S
H1138 C1126 0.956 . S
H1139 C1126 0.961 . S
H1140 C1126 0.961 . S
H1141 C1127 0.958 . S
H1142 C1127 0.961 . S
H1143 C1127 0.960 . S
C1144 C1145 1.391 . S
C1144 C1146 1.394 . S
C1144 H1160 0.931 . S
C1145 C1144 1.391 . S
C1145 C1149 1.376 . S
C1146 C1144 1.394 . S
C1146 C1147 1.369 . S
C1146 C1150 1.531 . S
C1147 C1146 1.369 . S
C1147 C1148 1.410 . S
C1147 C1155 1.503 . S
C1148 C1147 1.410 . S
C1148 C1149 1.392 . S
C1148 C1151 1.511 . S
C1149 C1145 1.376 . S
C1149 C1148 1.392 . S
C1149 H1161 0.929 . S
C1150 C1146 1.531 . S
C1150 H1162 0.960 . S
C1150 H1163 0.962 . S
C1150 H1164 0.960 . S
C1151 C1148 1.511 . S
C1151 H1165 0.961 . S
C1151 H1166 0.961 . S
C1151 H1167 0.961 . S
C1152 C1153 1.370 . S
C1152 C1154 1.363 . S
C1152 H1168 0.931 . S
C1153 C1152 1.370 . S
C1153 C1157 1.408 . S
C1154 C1152 1.363 . S
C1154 C1155 1.370 . S
C1154 C1158 1.524 . S
C1155 C1147 1.503 . S
C1155 C1154 1.370 . S
C1155 C1156 1.403 . S
C1156 C1155 1.403 . S
C1156 C1157 1.404 . S
C1156 C1159 1.539 . S
C1157 C1153 1.408 . S
C1157 C1156 1.404 . S
C1157 H1169 0.930 . S
C1158 C1154 1.524 . S
C1158 H1170 0.956 . S
C1158 H1171 0.961 . S
C1158 H1172 0.961 . S
C1159 C1156 1.539 . S
C1159 H1173 0.958 . S
C1159 H1174 0.961 . S
C1159 H1175 0.960 . S
H1160 C1144 0.931 . S
H1161 C1149 0.929 . S
H1162 C1150 0.960 . S
H1163 C1150 0.962 . S
H1164 C1150 0.960 . S
H1165 C1151 0.961 . S
H1166 C1151 0.961 . S
H1167 C1151 0.961 . S
H1168 C1152 0.931 . S
H1169 C1157 0.930 . S
H1170 C1158 0.956 . S
H1171 C1158 0.961 . S
H1172 C1158 0.961 . S
H1173 C1159 0.958 . S
H1174 C1159 0.961 . S
H1175 C1159 0.960 . S
C1176 C1177 1.391 . S
C1176 C1178 1.394 . S
C1176 H1192 0.931 . S
C1177 C1176 1.391 . S
C1177 C1181 1.376 . S
C1178 C1176 1.394 . S
C1178 C1179 1.369 . S
C1178 C1182 1.531 . S
C1179 C1178 1.369 . S
C1179 C1180 1.410 . S
C1179 C1187 1.503 . S
C1180 C1179 1.410 . S
C1180 C1181 1.392 . S
C1180 C1183 1.511 . S
C1181 C1177 1.376 . S
C1181 C1180 1.392 . S
C1181 H1193 0.929 . S
C1182 C1178 1.531 . S
C1182 H1194 0.960 . S
C1182 H1195 0.962 . S
C1182 H1196 0.960 . S
C1183 C1180 1.511 . S
C1183 H1197 0.961 . S
C1183 H1198 0.961 . S
C1183 H1199 0.961 . S
C1184 C1185 1.370 . S
C1184 C1186 1.363 . S
C1184 H1200 0.931 . S
C1185 C1184 1.370 . S
C1185 C1189 1.408 . S
C1186 C1184 1.363 . S
C1186 C1187 1.370 . S
C1186 C1190 1.524 . S
C1187 C1179 1.503 . S
C1187 C1186 1.370 . S
C1187 C1188 1.403 . S
C1188 C1187 1.403 . S
C1188 C1189 1.404 . S
C1188 C1191 1.539 . S
C1189 C1185 1.408 . S
C1189 C1188 1.404 . S
C1189 H1201 0.930 . S
C1190 C1186 1.524 . S
C1190 H1202 0.956 . S
C1190 H1203 0.961 . S
C1190 H1204 0.961 . S
C1191 C1188 1.539 . S
C1191 H1205 0.958 . S
C1191 H1206 0.961 . S
C1191 H1207 0.960 . S
H1192 C1176 0.931 . S
H1193 C1181 0.929 . S
H1194 C1182 0.960 . S
H1195 C1182 0.962 . S
H1196 C1182 0.960 . S
H1197 C1183 0.961 . S
H1198 C1183 0.961 . S
H1199 C1183 0.961 . S
H1200 C1184 0.931 . S
H1201 C1189 0.930 . S
H1202 C1190 0.956 . S
H1203 C1190 0.961 . S
H1204 C1190 0.961 . S
H1205 C1191 0.958 . S
H1206 C1191 0.961 . S
H1207 C1191 0.960 . S
C1208 C1209 1.391 . S
C1208 C1210 1.394 . S
C1208 H1224 0.931 . S
C1209 C1208 1.391 . S
C1209 C1213 1.376 . S
C1210 C1208 1.394 . S
C1210 C1211 1.369 . S
C1210 C1214 1.531 . S
C1211 C1210 1.369 . S
C1211 C1212 1.410 1_655 S
C1211 C1219 1.503 1_655 S
C1212 C1211 1.410 1_455 S
C1212 C1213 1.392 1_455 S
C1212 C1215 1.511 . S
C1213 C1209 1.376 . S
C1213 C1212 1.392 1_655 S
C1213 H1225 0.929 . S
C1214 C1210 1.531 . S
C1214 H1226 0.960 . S
C1214 H1227 0.962 . S
C1214 H1228 0.960 . S
C1215 C1212 1.511 . S
C1215 H1229 0.961 . S
C1215 H1230 0.961 . S
C1215 H1231 0.961 . S
C1216 C1217 1.370 . S
C1216 C1218 1.363 . S
C1216 H1232 0.931 . S
C1217 C1216 1.370 . S
C1217 C1221 1.408 . S
C1218 C1216 1.363 . S
C1218 C1219 1.370 . S
C1218 C1222 1.524 1_545 S
C1219 C1211 1.503 1_455 S
C1219 C1218 1.370 . S
C1219 C1220 1.403 . S
C1220 C1219 1.403 . S
C1220 C1221 1.404 . S
C1220 C1223 1.539 . S
C1221 C1217 1.408 . S
C1221 C1220 1.404 . S
C1221 H1233 0.930 . S
C1222 C1218 1.524 1_565 S
C1222 H1234 0.956 1_455 S
C1222 H1235 0.961 . S
C1222 H1236 0.961 . S
C1223 C1220 1.539 . S
C1223 H1237 0.958 1_455 S
C1223 H1238 0.961 . S
C1223 H1239 0.960 . S
H1224 C1208 0.931 . S
H1225 C1213 0.929 . S
H1226 C1214 0.960 . S
H1227 C1214 0.962 . S
H1228 C1214 0.960 . S
H1229 C1215 0.961 . S
H1230 C1215 0.961 . S
H1231 C1215 0.961 . S
H1232 C1216 0.931 . S
H1233 C1221 0.930 . S
H1234 C1222 0.956 1_655 S
H1235 C1222 0.961 . S
H1236 C1222 0.961 . S
H1237 C1223 0.958 1_655 S
H1238 C1223 0.961 . S
H1239 C1223 0.960 . S
C1240 C1241 1.391 . S
C1240 C1242 1.394 . S
C1240 H1256 0.931 . S
C1241 C1240 1.391 . S
C1241 C1245 1.376 . S
C1242 C1240 1.394 . S
C1242 C1243 1.369 . S
C1242 C1246 1.531 . S
C1243 C1242 1.369 . S
C1243 C1244 1.410 . S
C1243 C1251 1.503 . S
C1244 C1243 1.410 . S
C1244 C1245 1.392 . S
C1244 C1247 1.511 . S
C1245 C1241 1.376 . S
C1245 C1244 1.392 . S
C1245 H1257 0.929 . S
C1246 C1242 1.531 . S
C1246 H1258 0.960 . S
C1246 H1259 0.962 . S
C1246 H1260 0.960 . S
C1247 C1244 1.511 . S
C1247 H1261 0.961 . S
C1247 H1262 0.961 . S
C1247 H1263 0.961 . S
C1248 C1249 1.370 . S
C1248 C1250 1.363 . S
C1248 H1264 0.931 . S
C1249 C1248 1.370 . S
C1249 C1253 1.408 . S
C1250 C1248 1.363 . S
C1250 C1251 1.370 . S
C1250 C1254 1.524 . S
C1251 C1243 1.503 . S
C1251 C1250 1.370 . S
C1251 C1252 1.403 . S
C1252 C1251 1.403 . S
C1252 C1253 1.404 . S
C1252 C1255 1.539 . S
C1253 C1249 1.408 . S
C1253 C1252 1.404 . S
C1253 H1265 0.930 . S
C1254 C1250 1.524 . S
C1254 H1266 0.956 . S
C1254 H1267 0.961 . S
C1254 H1268 0.961 . S
C1255 C1252 1.539 . S
C1255 H1269 0.958 . S
C1255 H1270 0.961 . S
C1255 H1271 0.960 . S
H1256 C1240 0.931 . S
H1257 C1245 0.929 . S
H1258 C1246 0.960 . S
H1259 C1246 0.962 . S
H1260 C1246 0.960 . S
H1261 C1247 0.961 . S
H1262 C1247 0.961 . S
H1263 C1247 0.961 . S
H1264 C1248 0.931 . S
H1265 C1253 0.930 . S
H1266 C1254 0.956 . S
H1267 C1254 0.961 . S
H1268 C1254 0.961 . S
H1269 C1255 0.958 . S
H1270 C1255 0.961 . S
H1271 C1255 0.960 . S
C1272 C1273 1.391 1_565 S
C1272 C1274 1.394 . S
C1272 H1288 0.931 . S
C1273 C1272 1.391 1_545 S
C1273 C1277 1.376 . S
C1274 C1272 1.394 . S
C1274 C1275 1.369 1_565 S
C1274 C1278 1.531 . S
C1275 C1274 1.369 1_545 S
C1275 C1276 1.410 . S
C1275 C1283 1.503 . S
C1276 C1275 1.410 . S
C1276 C1277 1.392 . S
C1276 C1279 1.511 . S
C1277 C1273 1.376 . S
C1277 C1276 1.392 . S
C1277 H1289 0.929 . S
C1278 C1274 1.531 . S
C1278 H1290 0.960 . S
C1278 H1291 0.962 . S
C1278 H1292 0.960 . S
C1279 C1276 1.511 . S
C1279 H1293 0.961 . S
C1279 H1294 0.961 . S
C1279 H1295 0.961 . S
C1280 C1281 1.370 . S
C1280 C1282 1.363 . S
C1280 H1296 0.931 . S
C1281 C1280 1.370 . S
C1281 C1285 1.420 . S
C1282 C1280 1.363 . S
C1282 C1283 1.370 . S
C1282 C1286 1.524 . S
C1283 C1275 1.503 . S
C1283 C1282 1.370 . S
C1283 C1284 1.403 1_545 S
C1284 C1283 1.403 1_565 S
C1284 C1285 1.396 1_565 S
C1284 C1287 1.539 . S
C1285 C1281 1.420 . S
C1285 C1284 1.396 1_545 S
C1285 H1297 0.927 1_545 S
C1286 C1282 1.524 . S
C1286 H1298 0.956 . S
C1286 H1299 0.961 . S
C1286 H1300 0.961 . S
C1287 C1284 1.539 . S
C1287 H1301 0.958 . S
C1287 H1302 0.961 . S
C1287 H1303 0.960 . S
H1288 C1272 0.931 . S
H1289 C1277 0.929 . S
H1290 C1278 0.960 . S
H1291 C1278 0.962 . S
H1292 C1278 0.960 . S
H1293 C1279 0.961 . S
H1294 C1279 0.961 . S
H1295 C1279 0.961 . S
H1296 C1280 0.931 . S
H1297 C1285 0.927 1_565 S
H1298 C1286 0.956 . S
H1299 C1286 0.961 . S
H1300 C1286 0.961 . S
H1301 C1287 0.958 . S
H1302 C1287 0.961 . S
H1303 C1287 0.960 . S
C1304 C1305 1.391 . S
C1304 C1306 1.394 . S
C1304 H1320 0.931 . S
C1305 C1304 1.391 . S
C1305 C1309 1.376 . S
C1306 C1304 1.394 . S
C1306 C1307 1.369 . S
C1306 C1310 1.531 . S
C1307 C1306 1.369 . S
C1307 C1308 1.410 . S
C1307 C1315 1.503 . S
C1308 C1307 1.410 . S
C1308 C1309 1.392 . S
C1308 C1311 1.511 . S
C1309 C1305 1.376 . S
C1309 C1308 1.392 . S
C1309 H1321 0.929 . S
C1310 C1306 1.531 . S
C1310 H1322 0.960 . S
C1310 H1323 0.962 . S
C1310 H1324 0.960 . S
C1311 C1308 1.511 . S
C1311 H1325 0.961 . S
C1311 H1326 0.961 . S
C1311 H1327 0.961 . S
C1312 C1313 1.370 . S
C1312 C1314 1.363 . S
C1312 H1328 0.931 . S
C1313 C1312 1.370 . S
C1313 C1317 1.408 . S
C1314 C1312 1.363 . S
C1314 C1315 1.370 . S
C1314 C1318 1.524 . S
C1315 C1307 1.503 . S
C1315 C1314 1.370 . S
C1315 C1316 1.403 . S
C1316 C1315 1.403 . S
C1316 C1317 1.404 . S
C1316 C1319 1.539 . S
C1317 C1313 1.408 . S
C1317 C1316 1.404 . S
C1317 H1329 0.930 . S
C1318 C1314 1.524 . S
C1318 H1330 0.956 . S
C1318 H1331 0.961 . S
C1318 H1332 0.961 . S
C1319 C1316 1.539 . S
C1319 H1333 0.958 . S
C1319 H1334 0.961 . S
C1319 H1335 0.960 . S
H1320 C1304 0.931 . S
H1321 C1309 0.929 . S
H1322 C1310 0.960 . S
H1323 C1310 0.962 . S
H1324 C1310 0.960 . S
H1325 C1311 0.961 . S
H1326 C1311 0.961 . S
H1327 C1311 0.961 . S
H1328 C1312 0.931 . S
H1329 C1317 0.930 . S
H1330 C1318 0.956 . S
H1331 C1318 0.961 . S
H1332 C1318 0.961 . S
H1333 C1319 0.958 . S
H1334 C1319 0.961 . S
H1335 C1319 0.960 . S
C1336 C1337 1.391 1_565 S
C1336 C1338 1.394 . S
C1336 H1352 0.931 . S
C1337 C1336 1.391 1_545 S
C1337 C1341 1.376 . S
C1338 C1336 1.394 . S
C1338 C1339 1.369 1_565 S
C1338 C1342 1.531 . S
C1339 C1338 1.369 1_545 S
C1339 C1340 1.384 1_655 S
C1339 C1347 1.503 1_655 S
C1340 C1339 1.384 1_455 S
C1340 C1341 1.368 1_455 S
C1340 C1343 1.562 . S
C1341 C1337 1.376 . S
C1341 C1340 1.368 1_655 S
C1341 H1353 0.929 . S
C1342 C1338 1.531 . S
C1342 H1354 0.960 . S
C1342 H1355 0.962 . S
C1342 H1356 0.960 . S
C1343 C1340 1.562 . S
C1343 H1357 0.961 . S
C1343 H1358 0.961 . S
C1343 H1359 0.961 . S
C1344 C1345 1.370 . S
C1344 C1346 1.363 . S
C1344 H1360 0.931 . S
C1345 C1344 1.370 . S
C1345 C1349 1.408 1_545 S
C1346 C1344 1.363 . S
C1346 C1347 1.370 . S
C1346 C1350 1.524 1_455 S
C1347 C1339 1.503 1_455 S
C1347 C1346 1.370 . S
C1347 C1348 1.403 1_545 S
C1348 C1347 1.403 1_565 S
C1348 C1349 1.404 . S
C1348 C1351 1.539 . S
C1349 C1345 1.408 1_565 S
C1349 C1348 1.404 . S
C1349 H1361 0.930 . S
C1350 C1346 1.524 1_655 S
C1350 H1362 0.956 . S
C1350 H1363 0.961 . S
C1350 H1364 0.961 . S
C1351 C1348 1.539 . S
C1351 H1365 0.958 . S
C1351 H1366 0.961 . S
C1351 H1367 0.960 . S
H1352 C1336 0.931 . S
H1353 C1341 0.929 . S
H1354 C1342 0.960 . S
H1355 C1342 0.962 . S
H1356 C1342 0.960 . S
H1357 C1343 0.961 . S
H1358 C1343 0.961 . S
H1359 C1343 0.961 . S
H1360 C1344 0.931 . S
H1361 C1349 0.930 . S
H1362 C1350 0.956 . S
H1363 C1350 0.961 . S
H1364 C1350 0.961 . S
H1365 C1351 0.958 . S
H1366 C1351 0.961 . S
H1367 C1351 0.960 . S
C1368 C1369 1.391 . S
C1368 C1370 1.394 . S
C1368 H1384 0.931 . S
C1369 C1368 1.391 . S
C1369 C1373 1.376 . S
C1370 C1368 1.394 . S
C1370 C1371 1.369 . S
C1370 C1374 1.531 . S
C1371 C1370 1.369 . S
C1371 C1372 1.410 . S
C1371 C1379 1.503 . S
C1372 C1371 1.410 . S
C1372 C1373 1.392 . S
C1372 C1375 1.511 . S
C1373 C1369 1.376 . S
C1373 C1372 1.392 . S
C1373 H1385 0.929 . S
C1374 C1370 1.531 . S
C1374 H1386 0.960 . S
C1374 H1387 0.962 . S
C1374 H1388 0.960 . S
C1375 C1372 1.511 . S
C1375 H1389 0.961 . S
C1375 H1390 0.961 . S
C1375 H1391 0.961 . S
C1376 C1377 1.370 . S
C1376 C1378 1.363 . S
C1376 H1392 0.931 . S
C1377 C1376 1.370 . S
C1377 C1381 1.408 . S
C1378 C1376 1.363 . S
C1378 C1379 1.370 . S
C1378 C1382 1.524 . S
C1379 C1371 1.503 . S
C1379 C1378 1.370 . S
C1379 C1380 1.403 . S
C1380 C1379 1.403 . S
C1380 C1381 1.404 . S
C1380 C1383 1.539 . S
C1381 C1377 1.408 . S
C1381 C1380 1.404 . S
C1381 H1393 0.930 . S
C1382 C1378 1.524 . S
C1382 H1394 0.956 . S
C1382 H1395 0.961 . S
C1382 H1396 0.961 . S
C1383 C1380 1.539 . S
C1383 H1397 0.958 . S
C1383 H1398 0.961 . S
C1383 H1399 0.960 . S
H1384 C1368 0.931 . S
H1385 C1373 0.929 . S
H1386 C1374 0.960 . S
H1387 C1374 0.962 . S
H1388 C1374 0.960 . S
H1389 C1375 0.961 . S
H1390 C1375 0.961 . S
H1391 C1375 0.961 . S
H1392 C1376 0.931 . S
H1393 C1381 0.930 . S
H1394 C1382 0.956 . S
H1395 C1382 0.961 . S
H1396 C1382 0.961 . S
H1397 C1383 0.958 . S
H1398 C1383 0.961 . S
H1399 C1383 0.960 . S
C1400 C1401 1.391 . S
C1400 C1402 1.394 . S
C1400 H1416 0.931 . S
C1401 C1400 1.391 . S
C1401 C1405 1.376 . S
C1402 C1400 1.394 . S
C1402 C1403 1.369 . S
C1402 C1406 1.531 . S
C1403 C1402 1.369 . S
C1403 C1404 1.410 . S
C1403 C1411 1.503 . S
C1404 C1403 1.410 . S
C1404 C1405 1.392 . S
C1404 C1407 1.511 . S
C1405 C1401 1.376 . S
C1405 C1404 1.392 . S
C1405 H1417 0.929 . S
C1406 C1402 1.531 . S
C1406 H1418 0.960 . S
C1406 H1419 0.962 . S
C1406 H1420 0.960 . S
C1407 C1404 1.511 . S
C1407 H1421 0.969 . S
C1407 H1422 0.961 . S
C1407 H1423 0.961 . S
C1408 C1409 1.370 . S
C1408 C1410 1.363 . S
C1408 H1424 0.931 . S
C1409 C1408 1.370 . S
C1409 C1413 1.408 . S
C1410 C1408 1.363 . S
C1410 C1411 1.370 . S
C1410 C1414 1.524 . S
C1411 C1403 1.503 . S
C1411 C1410 1.370 . S
C1411 C1412 1.403 . S
C1412 C1411 1.403 . S
C1412 C1413 1.404 . S
C1412 C1415 1.539 . S
C1413 C1409 1.408 . S
C1413 C1412 1.404 . S
C1413 H1425 0.930 . S
C1414 C1410 1.524 . S
C1414 H1426 0.956 . S
C1414 H1427 0.961 1_545 S
C1414 H1428 0.961 1_545 S
C1415 C1412 1.539 . S
C1415 H1429 0.958 . S
C1415 H1430 0.961 . S
C1415 H1431 0.960 . S
H1416 C1400 0.931 . S
H1417 C1405 0.929 . S
H1418 C1406 0.960 . S
H1419 C1406 0.962 . S
H1420 C1406 0.960 . S
H1421 C1407 0.969 . S
H1422 C1407 0.961 . S
H1423 C1407 0.961 . S
H1424 C1408 0.931 . S
H1425 C1413 0.930 . S
H1426 C1414 0.956 . S
H1427 C1414 0.961 1_565 S
H1428 C1414 0.961 1_565 S
H1429 C1415 0.958 . S
H1430 C1415 0.961 . S
H1431 C1415 0.960 . S
C1432 C1433 1.391 . S
C1432 C1434 1.394 . S
C1432 H1448 0.931 . S
C1433 C1432 1.391 . S
C1433 C1437 1.376 . S
C1434 C1432 1.394 . S
C1434 C1435 1.369 . S
C1434 C1438 1.531 . S
C1435 C1434 1.369 . S
C1435 C1436 1.410 . S
C1435 C1443 1.503 . S
C1436 C1435 1.410 . S
C1436 C1437 1.392 . S
C1436 C1439 1.511 . S
C1437 C1433 1.376 . S
C1437 C1436 1.392 . S
C1437 H1449 0.929 . S
C1438 C1434 1.531 . S
C1438 H1450 0.960 . S
C1438 H1451 0.962 . S
C1438 H1452 0.960 . S
C1439 C1436 1.511 . S
C1439 H1453 0.961 . S
C1439 H1454 0.961 . S
C1439 H1455 0.961 . S
C1440 C1441 1.370 . S
C1440 C1442 1.363 . S
C1440 H1456 0.931 . S
C1441 C1440 1.370 . S
C1441 C1445 1.408 . S
C1442 C1440 1.363 . S
C1442 C1443 1.370 . S
C1442 C1446 1.524 . S
C1443 C1435 1.503 . S
C1443 C1442 1.370 . S
C1443 C1444 1.403 . S
C1444 C1443 1.403 . S
C1444 C1445 1.404 . S
C1444 C1447 1.539 . S
C1445 C1441 1.408 . S
C1445 C1444 1.404 . S
C1445 H1457 0.930 . S
C1446 C1442 1.524 . S
C1446 H1458 0.956 . S
C1446 H1459 0.961 . S
C1446 H1460 0.961 . S
C1447 C1444 1.539 . S
C1447 H1461 0.958 . S
C1447 H1462 0.961 . S
C1447 H1463 0.960 . S
H1448 C1432 0.931 . S
H1449 C1437 0.929 . S
H1450 C1438 0.960 . S
H1451 C1438 0.962 . S
H1452 C1438 0.960 . S
H1453 C1439 0.961 . S
H1454 C1439 0.961 . S
H1455 C1439 0.961 . S
H1456 C1440 0.931 . S
H1457 C1445 0.930 . S
H1458 C1446 0.956 . S
H1459 C1446 0.961 . S
H1460 C1446 0.961 . S
H1461 C1447 0.958 . S
H1462 C1447 0.961 . S
H1463 C1447 0.960 . S
C1464 C1465 1.391 . S
C1464 C1466 1.394 . S
C1464 H1480 0.931 . S
C1465 C1464 1.391 . S
C1465 C1469 1.376 . S
C1466 C1464 1.394 . S
C1466 C1467 1.369 . S
C1466 C1470 1.531 . S
C1467 C1466 1.369 . S
C1467 C1468 1.410 . S
C1467 C1475 1.503 . S
C1468 C1467 1.410 . S
C1468 C1469 1.392 . S
C1468 C1471 1.511 . S
C1469 C1465 1.376 . S
C1469 C1468 1.392 . S
C1469 H1481 0.929 1_554 S
C1470 C1466 1.531 . S
C1470 H1482 0.960 . S
C1470 H1483 0.962 . S
C1470 H1484 0.960 . S
C1471 C1468 1.511 . S
C1471 H1485 0.961 1_554 S
C1471 H1486 0.961 . S
C1471 H1487 0.961 . S
C1472 C1473 1.370 . S
C1472 C1474 1.363 . S
C1472 H1488 0.931 . S
C1473 C1472 1.370 . S
C1473 C1477 1.408 . S
C1474 C1472 1.363 . S
C1474 C1475 1.370 . S
C1474 C1478 1.524 . S
C1475 C1467 1.503 . S
C1475 C1474 1.370 . S
C1475 C1476 1.403 . S
C1476 C1475 1.403 . S
C1476 C1477 1.404 . S
C1476 C1479 1.539 . S
C1477 C1473 1.408 . S
C1477 C1476 1.404 . S
C1477 H1489 0.930 . S
C1478 C1474 1.524 . S
C1478 H1490 0.956 . S
C1478 H1491 0.961 . S
C1478 H1492 0.961 . S
C1479 C1476 1.539 . S
C1479 H1493 0.958 . S
C1479 H1494 0.961 . S
C1479 H1495 0.960 . S
H1480 C1464 0.931 . S
H1481 C1469 0.929 1_556 S
H1482 C1470 0.960 . S
H1483 C1470 0.962 . S
H1484 C1470 0.960 . S
H1485 C1471 0.961 1_556 S
H1486 C1471 0.961 . S
H1487 C1471 0.961 . S
H1488 C1472 0.931 . S
H1489 C1477 0.930 . S
H1490 C1478 0.956 . S
H1491 C1478 0.961 . S
H1492 C1478 0.961 . S
H1493 C1479 0.958 . S
H1494 C1479 0.961 . S
H1495 C1479 0.960 . S
C1496 C1497 1.391 . S
C1496 C1498 1.394 . S
C1496 H1512 0.931 . S
C1497 C1496 1.391 . S
C1497 C1501 1.376 . S
C1498 C1496 1.394 . S
C1498 C1499 1.369 . S
C1498 C1502 1.531 . S
C1499 C1498 1.369 . S
C1499 C1500 1.410 . S
C1499 C1507 1.503 . S
C1500 C1499 1.410 . S
C1500 C1501 1.392 . S
C1500 C1503 1.511 1_554 S
C1501 C1497 1.376 . S
C1501 C1500 1.392 . S
C1501 H1513 0.929 1_554 S
C1502 C1498 1.531 . S
C1502 H1514 0.960 . S
C1502 H1515 0.962 . S
C1502 H1516 0.960 . S
C1503 C1500 1.511 1_556 S
C1503 H1517 0.961 . S
C1503 H1518 0.961 . S
C1503 H1519 0.961 . S
C1504 C1505 1.370 . S
C1504 C1506 1.363 . S
C1504 H1520 0.931 . S
C1505 C1504 1.370 . S
C1505 C1509 1.408 . S
C1506 C1504 1.363 . S
C1506 C1507 1.370 . S
C1506 C1510 1.524 . S
C1507 C1499 1.503 . S
C1507 C1506 1.370 . S
C1507 C1508 1.403 . S
C1508 C1507 1.403 . S
C1508 C1509 1.404 . S
C1508 C1511 1.539 . S
C1509 C1505 1.408 . S
C1509 C1508 1.404 . S
C1509 H1521 0.930 . S
C1510 C1506 1.524 . S
C1510 H1522 0.956 . S
C1510 H1523 0.961 . S
C1510 H1524 0.961 . S
C1511 C1508 1.539 . S
C1511 H1525 0.958 . S
C1511 H1526 0.961 . S
C1511 H1527 0.960 . S
H1512 C1496 0.931 . S
H1513 C1501 0.929 1_556 S
H1514 C1502 0.960 . S
H1515 C1502 0.962 . S
H1516 C1502 0.960 . S
H1517 C1503 0.961 . S
H1518 C1503 0.961 . S
H1519 C1503 0.961 . S
H1520 C1504 0.931 . S
H1521 C1509 0.930 . S
H1522 C1510 0.956 . S
H1523 C1510 0.961 . S
H1524 C1510 0.961 . S
H1525 C1511 0.958 . S
H1526 C1511 0.961 . S
H1527 C1511 0.960 . S
C1528 C1529 1.391 . S
C1528 C1530 1.394 . S
C1528 H1544 0.931 . S
C1529 C1528 1.391 . S
C1529 C1533 1.376 . S
C1530 C1528 1.394 . S
C1530 C1531 1.369 . S
C1530 C1534 1.531 . S
C1531 C1530 1.369 . S
C1531 C1532 1.410 . S
C1531 C1539 1.503 . S
C1532 C1531 1.410 . S
C1532 C1533 1.392 . S
C1532 C1535 1.511 . S
C1533 C1529 1.376 . S
C1533 C1532 1.392 . S
C1533 H1545 0.929 . S
C1534 C1530 1.531 . S
C1534 H1546 0.960 . S
C1534 H1547 0.962 . S
C1534 H1548 0.960 . S
C1535 C1532 1.511 . S
C1535 H1549 0.961 . S
C1535 H1550 0.961 . S
C1535 H1551 0.961 . S
C1536 C1537 1.370 . S
C1536 C1538 1.363 . S
C1536 H1552 0.931 . S
C1537 C1536 1.370 . S
C1537 C1541 1.408 . S
C1538 C1536 1.363 . S
C1538 C1539 1.370 . S
C1538 C1542 1.524 . S
C1539 C1531 1.503 . S
C1539 C1538 1.370 . S
C1539 C1540 1.403 . S
C1540 C1539 1.403 . S
C1540 C1541 1.404 . S
C1540 C1543 1.539 . S
C1541 C1537 1.408 . S
C1541 C1540 1.404 . S
C1541 H1553 0.930 . S
C1542 C1538 1.524 . S
C1542 H1554 0.956 . S
C1542 H1555 0.961 . S
C1542 H1556 0.961 . S
C1543 C1540 1.539 . S
C1543 H1557 0.958 . S
C1543 H1558 0.961 . S
C1543 H1559 0.960 . S
H1544 C1528 0.931 . S
H1545 C1533 0.929 . S
H1546 C1534 0.960 . S
H1547 C1534 0.962 . S
H1548 C1534 0.960 . S
H1549 C1535 0.961 . S
H1550 C1535 0.961 . S
H1551 C1535 0.961 . S
H1552 C1536 0.931 . S
H1553 C1541 0.930 . S
H1554 C1542 0.956 . S
H1555 C1542 0.961 . S
H1556 C1542 0.961 . S
H1557 C1543 0.958 . S
H1558 C1543 0.961 . S
H1559 C1543 0.960 . S
C1560 C1561 1.391 . S
C1560 C1562 1.394 . S
C1560 H1576 0.931 . S
C1561 C1560 1.391 . S
C1561 C1565 1.376 . S
C1562 C1560 1.394 . S
C1562 C1563 1.369 . S
C1562 C1566 1.531 . S
C1563 C1562 1.369 . S
C1563 C1564 1.410 . S
C1563 C1571 1.503 . S
C1564 C1563 1.410 . S
C1564 C1565 1.392 . S
C1564 C1567 1.511 . S
C1565 C1561 1.376 . S
C1565 C1564 1.392 . S
C1565 H1577 0.929 . S
C1566 C1562 1.531 . S
C1566 H1578 0.960 . S
C1566 H1579 0.962 . S
C1566 H1580 0.960 . S
C1567 C1564 1.511 . S
C1567 H1581 0.961 . S
C1567 H1582 0.961 . S
C1567 H1583 0.961 . S
C1568 C1569 1.370 . S
C1568 C1570 1.363 . S
C1568 H1584 0.931 . S
C1569 C1568 1.370 . S
C1569 C1573 1.408 . S
C1570 C1568 1.363 . S
C1570 C1571 1.370 . S
C1570 C1574 1.524 . S
C1571 C1563 1.503 . S
C1571 C1570 1.370 . S
C1571 C1572 1.403 . S
C1572 C1571 1.403 . S
C1572 C1573 1.404 . S
C1572 C1575 1.539 . S
C1573 C1569 1.408 . S
C1573 C1572 1.404 . S
C1573 H1585 0.930 . S
C1574 C1570 1.524 . S
C1574 H1586 0.956 . S
C1574 H1587 0.961 . S
C1574 H1588 0.961 . S
C1575 C1572 1.539 . S
C1575 H1589 0.958 . S
C1575 H1590 0.961 . S
C1575 H1591 0.960 . S
H1576 C1560 0.931 . S
H1577 C1565 0.929 . S
H1578 C1566 0.960 . S
H1579 C1566 0.962 . S
H1580 C1566 0.960 . S
H1581 C1567 0.961 . S
H1582 C1567 0.961 . S
H1583 C1567 0.961 . S
H1584 C1568 0.931 . S
H1585 C1573 0.930 . S
H1586 C1574 0.956 . S
H1587 C1574 0.961 . S
H1588 C1574 0.961 . S
H1589 C1575 0.958 . S
H1590 C1575 0.961 . S
H1591 C1575 0.960 . S
C1592 C1593 1.391 . S
C1592 C1594 1.394 . S
C1592 H1608 0.931 . S
C1593 C1592 1.391 . S
C1593 C1597 1.376 . S
C1594 C1592 1.394 . S
C1594 C1595 1.369 . S
C1594 C1598 1.531 . S
C1595 C1594 1.369 . S
C1595 C1596 1.410 . S
C1595 C1603 1.503 . S
C1596 C1595 1.410 . S
C1596 C1597 1.392 . S
C1596 C1599 1.511 . S
C1597 C1593 1.376 . S
C1597 C1596 1.392 . S
C1597 H1609 0.929 . S
C1598 C1594 1.531 . S
C1598 H1610 0.960 . S
C1598 H1611 0.962 . S
C1598 H1612 0.960 . S
C1599 C1596 1.511 . S
C1599 H1613 0.961 . S
C1599 H1614 0.961 . S
C1599 H1615 0.961 . S
C1600 C1601 1.370 . S
C1600 C1602 1.363 . S
C1600 H1616 0.931 . S
C1601 C1600 1.370 . S
C1601 C1605 1.408 . S
C1602 C1600 1.363 . S
C1602 C1603 1.370 . S
C1602 C1606 1.524 . S
C1603 C1595 1.503 . S
C1603 C1602 1.370 . S
C1603 C1604 1.403 . S
C1604 C1603 1.403 . S
C1604 C1605 1.404 . S
C1604 C1607 1.539 . S
C1605 C1601 1.408 . S
C1605 C1604 1.404 . S
C1605 H1617 0.930 . S
C1606 C1602 1.524 . S
C1606 H1618 0.956 . S
C1606 H1619 0.961 . S
C1606 H1620 0.961 . S
C1607 C1604 1.539 . S
C1607 H1621 0.958 . S
C1607 H1622 0.961 . S
C1607 H1623 0.960 . S
H1608 C1592 0.931 . S
H1609 C1597 0.929 . S
H1610 C1598 0.960 . S
H1611 C1598 0.962 . S
H1612 C1598 0.960 . S
H1613 C1599 0.961 . S
H1614 C1599 0.961 . S
H1615 C1599 0.961 . S
H1616 C1600 0.931 . S
H1617 C1605 0.930 . S
H1618 C1606 0.956 . S
H1619 C1606 0.961 . S
H1620 C1606 0.961 . S
H1621 C1607 0.958 . S
H1622 C1607 0.961 . S
H1623 C1607 0.960 . S
C1624 C1625 1.391 . S
C1624 C1626 1.394 . S
C1624 H1640 0.931 . S
C1625 C1624 1.391 . S
C1625 C1629 1.376 . S
C1626 C1624 1.394 . S
C1626 C1627 1.369 . S
C1626 C1630 1.531 . S
C1627 C1626 1.369 . S
C1627 C1628 1.410 . S
C1627 C1635 1.503 . S
C1628 C1627 1.410 . S
C1628 C1629 1.392 . S
C1628 C1631 1.511 . S
C1629 C1625 1.376 . S
C1629 C1628 1.392 . S
C1629 H1641 0.929 . S
C1630 C1626 1.531 . S
C1630 H1642 0.960 . S
C1630 H1643 0.962 . S
C1630 H1644 0.960 . S
C1631 C1628 1.511 . S
C1631 H1645 0.961 . S
C1631 H1646 0.961 . S
C1631 H1647 0.961 . S
C1632 C1633 1.370 . S
C1632 C1634 1.363 . S
C1632 H1648 0.931 . S
C1633 C1632 1.370 . S
C1633 C1637 1.408 . S
C1634 C1632 1.363 . S
C1634 C1635 1.370 . S
C1634 C1638 1.524 . S
C1635 C1627 1.503 . S
C1635 C1634 1.370 . S
C1635 C1636 1.403 . S
C1636 C1635 1.403 . S
C1636 C1637 1.404 . S
C1636 C1639 1.539 . S
C1637 C1633 1.408 . S
C1637 C1636 1.404 . S
C1637 H1649 0.930 . S
C1638 C1634 1.524 . S
C1638 H1650 0.956 . S
C1638 H1651 0.961 . S
C1638 H1652 0.961 . S
C1639 C1636 1.539 . S
C1639 H1653 0.958 . S
C1639 H1654 0.961 . S
C1639 H1655 0.960 . S
H1640 C1624 0.931 . S
H1641 C1629 0.929 . S
H1642 C1630 0.960 . S
H1643 C1630 0.962 . S
H1644 C1630 0.960 . S
H1645 C1631 0.961 . S
H1646 C1631 0.961 . S
H1647 C1631 0.961 . S
H1648 C1632 0.931 . S
H1649 C1637 0.930 . S
H1650 C1638 0.956 . S
H1651 C1638 0.961 . S
H1652 C1638 0.961 . S
H1653 C1639 0.958 . S
H1654 C1639 0.961 . S
H1655 C1639 0.960 . S
C1656 C1657 1.391 . S
C1656 C1658 1.394 . S
C1656 H1672 0.931 . S
C1657 C1656 1.391 . S
C1657 C1661 1.376 . S
C1658 C1656 1.394 . S
C1658 C1659 1.369 . S
C1658 C1662 1.531 . S
C1659 C1658 1.369 . S
C1659 C1660 1.410 . S
C1659 C1667 1.503 . S
C1660 C1659 1.410 . S
C1660 C1661 1.392 . S
C1660 C1663 1.511 . S
C1661 C1657 1.376 . S
C1661 C1660 1.392 . S
C1661 H1673 0.929 . S
C1662 C1658 1.531 . S
C1662 H1674 0.960 . S
C1662 H1675 0.962 . S
C1662 H1676 0.960 . S
C1663 C1660 1.511 . S
C1663 H1677 0.961 . S
C1663 H1678 0.961 . S
C1663 H1679 0.961 . S
C1664 C1665 1.370 . S
C1664 C1666 1.363 . S
C1664 H1680 0.931 . S
C1665 C1664 1.370 . S
C1665 C1669 1.408 . S
C1666 C1664 1.363 . S
C1666 C1667 1.370 . S
C1666 C1670 1.524 . S
C1667 C1659 1.503 . S
C1667 C1666 1.370 . S
C1667 C1668 1.403 . S
C1668 C1667 1.403 . S
C1668 C1669 1.404 . S
C1668 C1671 1.539 . S
C1669 C1665 1.408 . S
C1669 C1668 1.404 . S
C1669 H1681 0.930 . S
C1670 C1666 1.524 . S
C1670 H1682 0.956 . S
C1670 H1683 0.961 . S
C1670 H1684 0.961 . S
C1671 C1668 1.539 . S
C1671 H1685 0.958 . S
C1671 H1686 0.961 . S
C1671 H1687 0.960 . S
H1672 C1656 0.931 . S
H1673 C1661 0.929 . S
H1674 C1662 0.960 . S
H1675 C1662 0.962 . S
H1676 C1662 0.960 . S
H1677 C1663 0.961 . S
H1678 C1663 0.961 . S
H1679 C1663 0.961 . S
H1680 C1664 0.931 . S
H1681 C1669 0.930 . S
H1682 C1670 0.956 . S
H1683 C1670 0.961 . S
H1684 C1670 0.961 . S
H1685 C1671 0.958 . S
H1686 C1671 0.961 . S
H1687 C1671 0.960 . S
C1688 C1689 1.391 . S
C1688 C1690 1.394 . S
C1688 H1704 0.931 . S
C1689 C1688 1.391 . S
C1689 C1693 1.376 . S
C1690 C1688 1.394 . S
C1690 C1691 1.369 . S
C1690 C1694 1.531 . S
C1691 C1690 1.369 . S
C1691 C1692 1.410 . S
C1691 C1699 1.503 . S
C1692 C1691 1.410 . S
C1692 C1693 1.392 . S
C1692 C1695 1.511 . S
C1693 C1689 1.376 . S
C1693 C1692 1.392 . S
C1693 H1705 0.929 . S
C1694 C1690 1.531 . S
C1694 H1706 0.960 . S
C1694 H1707 0.962 . S
C1694 H1708 0.960 . S
C1695 C1692 1.511 . S
C1695 H1709 0.961 . S
C1695 H1710 0.961 . S
C1695 H1711 0.961 . S
C1696 C1697 1.370 . S
C1696 C1698 1.363 . S
C1696 H1712 0.931 . S
C1697 C1696 1.370 . S
C1697 C1701 1.408 . S
C1698 C1696 1.363 . S
C1698 C1699 1.370 . S
C1698 C1702 1.524 . S
C1699 C1691 1.503 . S
C1699 C1698 1.370 . S
C1699 C1700 1.403 . S
C1700 C1699 1.403 . S
C1700 C1701 1.404 . S
C1700 C1703 1.539 . S
C1701 C1697 1.408 . S
C1701 C1700 1.404 . S
C1701 H1713 0.930 . S
C1702 C1698 1.524 . S
C1702 H1714 0.956 . S
C1702 H1715 0.961 . S
C1702 H1716 0.961 . S
C1703 C1700 1.539 . S
C1703 H1717 0.958 . S
C1703 H1718 0.961 . S
C1703 H1719 0.960 . S
H1704 C1688 0.931 . S
H1705 C1693 0.929 . S
H1706 C1694 0.960 . S
H1707 C1694 0.962 . S
H1708 C1694 0.960 . S
H1709 C1695 0.961 . S
H1710 C1695 0.961 . S
H1711 C1695 0.961 . S
H1712 C1696 0.931 . S
H1713 C1701 0.930 . S
H1714 C1702 0.956 . S
H1715 C1702 0.961 . S
H1716 C1702 0.961 . S
H1717 C1703 0.958 . S
H1718 C1703 0.961 . S
H1719 C1703 0.960 . S
C1720 C1721 1.391 . S
C1720 C1722 1.394 . S
C1720 H1736 0.931 . S
C1721 C1720 1.391 . S
C1721 C1725 1.376 . S
C1722 C1720 1.394 . S
C1722 C1723 1.369 . S
C1722 C1726 1.531 . S
C1723 C1722 1.369 . S
C1723 C1724 1.410 . S
C1723 C1731 1.503 . S
C1724 C1723 1.410 . S
C1724 C1725 1.392 . S
C1724 C1727 1.511 . S
C1725 C1721 1.376 . S
C1725 C1724 1.392 . S
C1725 H1737 0.929 . S
C1726 C1722 1.531 . S
C1726 H1738 0.960 . S
C1726 H1739 0.962 . S
C1726 H1740 0.960 . S
C1727 C1724 1.511 . S
C1727 H1741 0.961 . S
C1727 H1742 0.961 . S
C1727 H1743 0.961 . S
C1728 C1729 1.370 . S
C1728 C1730 1.363 . S
C1728 H1744 0.931 . S
C1729 C1728 1.370 . S
C1729 C1733 1.408 . S
C1730 C1728 1.363 . S
C1730 C1731 1.370 . S
C1730 C1734 1.524 . S
C1731 C1723 1.503 . S
C1731 C1730 1.370 . S
C1731 C1732 1.403 . S
C1732 C1731 1.403 . S
C1732 C1733 1.404 . S
C1732 C1735 1.539 . S
C1733 C1729 1.408 . S
C1733 C1732 1.404 . S
C1733 H1745 0.930 . S
C1734 C1730 1.524 . S
C1734 H1746 0.956 . S
C1734 H1747 0.961 . S
C1734 H1748 0.961 . S
C1735 C1732 1.539 . S
C1735 H1749 0.958 . S
C1735 H1750 0.961 . S
C1735 H1751 0.960 . S
H1736 C1720 0.931 . S
H1737 C1725 0.929 . S
H1738 C1726 0.960 . S
H1739 C1726 0.962 . S
H1740 C1726 0.960 . S
H1741 C1727 0.961 . S
H1742 C1727 0.961 . S
H1743 C1727 0.961 . S
H1744 C1728 0.931 . S
H1745 C1733 0.930 . S
H1746 C1734 0.956 . S
H1747 C1734 0.961 . S
H1748 C1734 0.961 . S
H1749 C1735 0.958 . S
H1750 C1735 0.961 . S
H1751 C1735 0.960 . S
C1752 C1753 1.391 . S
C1752 C1754 1.394 . S
C1752 H1768 0.931 . S
C1753 C1752 1.391 . S
C1753 C1757 1.376 . S
C1754 C1752 1.394 . S
C1754 C1755 1.369 . S
C1754 C1758 1.531 . S
C1755 C1754 1.369 . S
C1755 C1756 1.410 . S
C1755 C1763 1.503 . S
C1756 C1755 1.410 . S
C1756 C1757 1.392 . S
C1756 C1759 1.511 . S
C1757 C1753 1.376 . S
C1757 C1756 1.392 . S
C1757 H1769 0.929 . S
C1758 C1754 1.531 . S
C1758 H1770 0.960 . S
C1758 H1771 0.962 . S
C1758 H1772 0.960 . S
C1759 C1756 1.511 . S
C1759 H1773 0.961 . S
C1759 H1774 0.961 . S
C1759 H1775 0.961 . S
C1760 C1761 1.370 . S
C1760 C1762 1.363 . S
C1760 H1776 0.931 . S
C1761 C1760 1.370 . S
C1761 C1765 1.408 . S
C1762 C1760 1.363 . S
C1762 C1763 1.370 . S
C1762 C1766 1.524 . S
C1763 C1755 1.503 . S
C1763 C1762 1.370 . S
C1763 C1764 1.403 . S
C1764 C1763 1.403 . S
C1764 C1765 1.404 . S
C1764 C1767 1.539 . S
C1765 C1761 1.408 . S
C1765 C1764 1.404 . S
C1765 H1777 0.930 . S
C1766 C1762 1.524 . S
C1766 H1778 0.956 . S
C1766 H1779 0.961 . S
C1766 H1780 0.961 . S
C1767 C1764 1.539 . S
C1767 H1781 0.958 . S
C1767 H1782 0.961 . S
C1767 H1783 0.960 . S
H1768 C1752 0.931 . S
H1769 C1757 0.929 . S
H1770 C1758 0.960 . S
H1771 C1758 0.962 . S
H1772 C1758 0.960 . S
H1773 C1759 0.961 . S
H1774 C1759 0.961 . S
H1775 C1759 0.961 . S
H1776 C1760 0.931 . S
H1777 C1765 0.930 . S
H1778 C1766 0.956 . S
H1779 C1766 0.961 . S
H1780 C1766 0.961 . S
H1781 C1767 0.958 . S
H1782 C1767 0.961 . S
H1783 C1767 0.960 . S
C1784 C1785 1.391 . S
C1784 C1786 1.394 . S
C1784 H1800 0.931 . S
C1785 C1784 1.391 . S
C1785 C1789 1.376 . S
C1786 C1784 1.394 . S
C1786 C1787 1.369 . S
C1786 C1790 1.531 . S
C1787 C1786 1.369 . S
C1787 C1788 1.410 . S
C1787 C1795 1.503 . S
C1788 C1787 1.410 . S
C1788 C1789 1.392 . S
C1788 C1791 1.511 . S
C1789 C1785 1.376 . S
C1789 C1788 1.392 . S
C1789 H1801 0.929 . S
C1790 C1786 1.531 . S
C1790 H1802 0.960 . S
C1790 H1803 0.962 . S
C1790 H1804 0.960 . S
C1791 C1788 1.511 . S
C1791 H1805 0.961 . S
C1791 H1806 0.961 . S
C1791 H1807 0.961 . S
C1792 C1793 1.370 . S
C1792 C1794 1.363 . S
C1792 H1808 0.931 . S
C1793 C1792 1.370 . S
C1793 C1797 1.408 . S
C1794 C1792 1.363 . S
C1794 C1795 1.370 . S
C1794 C1798 1.524 . S
C1795 C1787 1.503 . S
C1795 C1794 1.370 . S
C1795 C1796 1.403 . S
C1796 C1795 1.403 . S
C1796 C1797 1.404 . S
C1796 C1799 1.539 . S
C1797 C1793 1.408 . S
C1797 C1796 1.404 . S
C1797 H1809 0.930 . S
C1798 C1794 1.524 . S
C1798 H1810 0.956 . S
C1798 H1811 0.961 . S
C1798 H1812 0.961 . S
C1799 C1796 1.539 . S
C1799 H1813 0.958 . S
C1799 H1814 0.961 . S
C1799 H1815 0.960 . S
H1800 C1784 0.931 . S
H1801 C1789 0.929 . S
H1802 C1790 0.960 . S
H1803 C1790 0.962 . S
H1804 C1790 0.960 . S
H1805 C1791 0.961 . S
H1806 C1791 0.961 . S
H1807 C1791 0.961 . S
H1808 C1792 0.931 . S
H1809 C1797 0.930 . S
H1810 C1798 0.956 . S
H1811 C1798 0.961 . S
H1812 C1798 0.961 . S
H1813 C1799 0.958 . S
H1814 C1799 0.961 . S
H1815 C1799 0.960 . S
C1816 C1817 1.391 . S
C1816 C1818 1.394 . S
C1816 H1832 0.931 . S
C1817 C1816 1.391 . S
C1817 C1821 1.376 . S
C1818 C1816 1.394 . S
C1818 C1819 1.369 . S
C1818 C1822 1.531 . S
C1819 C1818 1.369 . S
C1819 C1820 1.410 . S
C1819 C1827 1.503 . S
C1820 C1819 1.410 . S
C1820 C1821 1.392 . S
C1820 C1823 1.511 . S
C1821 C1817 1.376 . S
C1821 C1820 1.392 . S
C1821 H1833 0.929 . S
C1822 C1818 1.531 . S
C1822 H1834 0.960 . S
C1822 H1835 0.962 . S
C1822 H1836 0.960 . S
C1823 C1820 1.511 . S
C1823 H1837 0.961 . S
C1823 H1838 0.961 . S
C1823 H1839 0.961 . S
C1824 C1825 1.370 . S
C1824 C1826 1.363 . S
C1824 H1840 0.931 . S
C1825 C1824 1.370 . S
C1825 C1829 1.408 . S
C1826 C1824 1.363 . S
C1826 C1827 1.370 . S
C1826 C1830 1.524 . S
C1827 C1819 1.503 . S
C1827 C1826 1.370 . S
C1827 C1828 1.403 . S
C1828 C1827 1.403 . S
C1828 C1829 1.404 . S
C1828 C1831 1.539 . S
C1829 C1825 1.408 . S
C1829 C1828 1.404 . S
C1829 H1841 0.930 . S
C1830 C1826 1.524 . S
C1830 H1842 0.956 . S
C1830 H1843 0.961 . S
C1830 H1844 0.961 . S
C1831 C1828 1.539 . S
C1831 H1845 0.958 . S
C1831 H1846 0.961 . S
C1831 H1847 0.960 . S
H1832 C1816 0.931 . S
H1833 C1821 0.929 . S
H1834 C1822 0.960 . S
H1835 C1822 0.962 . S
H1836 C1822 0.960 . S
H1837 C1823 0.961 . S
H1838 C1823 0.961 . S
H1839 C1823 0.961 . S
H1840 C1824 0.931 . S
H1841 C1829 0.930 . S
H1842 C1830 0.956 . S
H1843 C1830 0.961 . S
H1844 C1830 0.961 . S
H1845 C1831 0.958 . S
H1846 C1831 0.961 . S
H1847 C1831 0.960 . S
C1848 C1849 1.391 1_655 S
C1848 C1850 1.394 . S
C1848 H1864 0.931 . S
C1849 C1848 1.391 1_455 S
C1849 C1853 1.376 . S
C1850 C1848 1.394 . S
C1850 C1851 1.369 1_655 S
C1850 C1854 1.531 . S
C1851 C1850 1.369 1_455 S
C1851 C1852 1.410 . S
C1851 C1859 1.503 . S
C1852 C1851 1.410 . S
C1852 C1853 1.392 . S
C1852 C1855 1.511 . S
C1853 C1849 1.376 . S
C1853 C1852 1.392 . S
C1853 H1865 0.929 . S
C1854 C1850 1.531 . S
C1854 H1866 0.960 . S
C1854 H1867 0.962 . S
C1854 H1868 0.960 . S
C1855 C1852 1.511 . S
C1855 H1869 0.961 . S
C1855 H1870 0.961 . S
C1855 H1871 0.961 . S
C1856 C1857 1.370 . S
C1856 C1858 1.363 . S
C1856 H1872 0.931 . S
C1857 C1856 1.370 . S
C1857 C1861 1.408 . S
C1858 C1856 1.363 . S
C1858 C1859 1.370 . S
C1858 C1862 1.524 . S
C1859 C1851 1.503 . S
C1859 C1858 1.370 . S
C1859 C1860 1.403 . S
C1860 C1859 1.403 . S
C1860 C1861 1.404 . S
C1860 C1863 1.539 . S
C1861 C1857 1.408 . S
C1861 C1860 1.404 . S
C1861 H1873 0.930 . S
C1862 C1858 1.524 . S
C1862 H1874 0.956 . S
C1862 H1875 0.961 . S
C1862 H1876 0.961 . S
C1863 C1860 1.539 . S
C1863 H1877 0.958 1_455 S
C1863 H1878 0.961 . S
C1863 H1879 0.960 . S
H1864 C1848 0.931 . S
H1865 C1853 0.929 . S
H1866 C1854 0.960 . S
H1867 C1854 0.962 . S
H1868 C1854 0.960 . S
H1869 C1855 0.961 . S
H1870 C1855 0.961 . S
H1871 C1855 0.961 . S
H1872 C1856 0.931 . S
H1873 C1861 0.930 . S
H1874 C1862 0.956 . S
H1875 C1862 0.961 . S
H1876 C1862 0.961 . S
H1877 C1863 0.958 1_655 S
H1878 C1863 0.961 . S
H1879 C1863 0.960 . S
C1880 C1881 1.391 . S
C1880 C1882 1.394 . S
C1880 H1896 0.931 . S
C1881 C1880 1.391 . S
C1881 C1885 1.376 . S
C1882 C1880 1.394 . S
C1882 C1883 1.369 . S
C1882 C1886 1.531 . S
C1883 C1882 1.369 . S
C1883 C1884 1.410 . S
C1883 C1891 1.503 . S
C1884 C1883 1.410 . S
C1884 C1885 1.392 . S
C1884 C1887 1.511 . S
C1885 C1881 1.376 . S
C1885 C1884 1.392 . S
C1885 H1897 0.929 . S
C1886 C1882 1.531 . S
C1886 H1898 0.960 . S
C1886 H1899 0.962 . S
C1886 H1900 0.960 . S
C1887 C1884 1.511 . S
C1887 H1901 0.961 . S
C1887 H1902 0.961 . S
C1887 H1903 0.961 . S
C1888 C1889 1.370 . S
C1888 C1890 1.363 . S
C1888 H1904 0.931 . S
C1889 C1888 1.370 . S
C1889 C1893 1.408 . S
C1890 C1888 1.363 . S
C1890 C1891 1.370 . S
C1890 C1894 1.524 . S
C1891 C1883 1.503 . S
C1891 C1890 1.370 . S
C1891 C1892 1.403 . S
C1892 C1891 1.403 . S
C1892 C1893 1.404 . S
C1892 C1895 1.539 . S
C1893 C1889 1.408 . S
C1893 C1892 1.404 . S
C1893 H1905 0.930 . S
C1894 C1890 1.524 . S
C1894 H1906 0.956 . S
C1894 H1907 0.961 . S
C1894 H1908 0.961 . S
C1895 C1892 1.539 . S
C1895 H1909 0.958 . S
C1895 H1910 0.961 . S
C1895 H1911 0.960 . S
H1896 C1880 0.931 . S
H1897 C1885 0.929 . S
H1898 C1886 0.960 . S
H1899 C1886 0.962 . S
H1900 C1886 0.960 . S
H1901 C1887 0.961 . S
H1902 C1887 0.961 . S
H1903 C1887 0.961 . S
H1904 C1888 0.931 . S
H1905 C1893 0.930 . S
H1906 C1894 0.956 . S
H1907 C1894 0.961 . S
H1908 C1894 0.961 . S
H1909 C1895 0.958 . S
H1910 C1895 0.961 . S
H1911 C1895 0.960 . S
C1912 C1913 1.391 . S
C1912 C1914 1.394 . S
C1912 H1928 0.931 . S
C1913 C1912 1.391 . S
C1913 C1917 1.376 . S
C1914 C1912 1.394 . S
C1914 C1915 1.369 . S
C1914 C1918 1.531 . S
C1915 C1914 1.369 . S
C1915 C1916 1.410 . S
C1915 C1923 1.503 . S
C1916 C1915 1.410 . S
C1916 C1917 1.392 . S
C1916 C1919 1.511 . S
C1917 C1913 1.376 . S
C1917 C1916 1.392 . S
C1917 H1929 0.929 . S
C1918 C1914 1.531 . S
C1918 H1930 0.960 . S
C1918 H1931 0.962 . S
C1918 H1932 0.960 . S
C1919 C1916 1.511 . S
C1919 H1933 0.961 . S
C1919 H1934 0.961 . S
C1919 H1935 0.961 . S
C1920 C1921 1.376 . S
C1920 C1922 1.384 . S
C1920 H1936 0.905 1_556 S
C1921 C1920 1.376 . S
C1921 C1925 1.408 . S
C1922 C1920 1.384 . S
C1922 C1923 1.370 . S
C1922 C1926 1.524 . S
C1923 C1915 1.503 . S
C1923 C1922 1.370 . S
C1923 C1924 1.403 . S
C1924 C1923 1.403 . S
C1924 C1925 1.404 . S
C1924 C1927 1.539 . S
C1925 C1921 1.408 . S
C1925 C1924 1.404 . S
C1925 H1937 0.930 . S
C1926 C1922 1.524 . S
C1926 H1938 0.956 . S
C1926 H1939 0.961 . S
C1926 H1940 0.961 1_556 S
C1927 C1924 1.539 . S
C1927 H1941 0.958 . S
C1927 H1942 0.961 . S
C1927 H1943 0.960 . S
H1928 C1912 0.931 . S
H1929 C1917 0.929 . S
H1930 C1918 0.960 . S
H1931 C1918 0.962 . S
H1932 C1918 0.960 . S
H1933 C1919 0.961 . S
H1934 C1919 0.961 . S
H1935 C1919 0.961 . S
H1936 C1920 0.905 1_554 S
H1937 C1925 0.930 . S
H1938 C1926 0.956 . S
H1939 C1926 0.961 . S
H1940 C1926 0.961 1_554 S
H1941 C1927 0.958 . S
H1942 C1927 0.961 . S
H1943 C1927 0.960 . S
C1944 C1945 1.391 . S
C1944 C1946 1.394 1_455 S
C1944 H1960 0.931 . S
C1945 C1944 1.391 . S
C1945 C1949 1.376 1_455 S
C1946 C1944 1.394 1_655 S
C1946 C1947 1.369 . S
C1946 C1950 1.531 . S
C1947 C1946 1.369 . S
C1947 C1948 1.410 . S
C1947 C1955 1.503 . S
C1948 C1947 1.410 . S
C1948 C1949 1.392 . S
C1948 C1951 1.511 . S
C1949 C1945 1.376 1_655 S
C1949 C1948 1.392 . S
C1949 H1961 0.920 1_655 S
C1950 C1946 1.531 . S
C1950 H1962 0.960 . S
C1950 H1963 0.962 . S
C1950 H1964 0.960 . S
C1951 C1948 1.511 . S
C1951 H1965 0.961 . S
C1951 H1966 0.961 . S
C1951 H1967 0.961 . S
C1952 C1953 1.370 . S
C1952 C1954 1.363 . S
C1952 H1968 0.931 . S
C1953 C1952 1.370 . S
C1953 C1957 1.408 . S
C1954 C1952 1.363 . S
C1954 C1955 1.370 . S
C1954 C1958 1.524 . S
C1955 C1947 1.503 . S
C1955 C1954 1.370 . S
C1955 C1956 1.403 . S
C1956 C1955 1.403 . S
C1956 C1957 1.404 . S
C1956 C1959 1.539 . S
C1957 C1953 1.408 . S
C1957 C1956 1.404 . S
C1957 H1969 0.930 . S
C1958 C1954 1.524 . S
C1958 H1970 0.956 . S
C1958 H1971 0.961 . S
C1958 H1972 0.961 . S
C1959 C1956 1.539 . S
C1959 H1973 0.958 . S
C1959 H1974 0.961 . S
C1959 H1975 0.960 . S
H1960 C1944 0.931 . S
H1961 C1949 0.920 1_455 S
H1962 C1950 0.960 . S
H1963 C1950 0.962 . S
H1964 C1950 0.960 . S
H1965 C1951 0.961 . S
H1966 C1951 0.961 . S
H1967 C1951 0.961 . S
H1968 C1952 0.931 . S
H1969 C1957 0.930 . S
H1970 C1958 0.956 . S
H1971 C1958 0.961 . S
H1972 C1958 0.961 . S
H1973 C1959 0.958 . S
H1974 C1959 0.961 . S
H1975 C1959 0.960 . S
C1976 C1977 1.391 . S
C1976 C1978 1.394 . S
C1976 H1992 0.931 . S
C1977 C1976 1.391 . S
C1977 C1981 1.376 . S
C1978 C1976 1.394 . S
C1978 C1979 1.369 . S
C1978 C1982 1.531 . S
C1979 C1978 1.369 . S
C1979 C1980 1.410 . S
C1979 C1987 1.503 . S
C1980 C1979 1.410 . S
C1980 C1981 1.392 . S
C1980 C1983 1.511 . S
C1981 C1977 1.376 . S
C1981 C1980 1.392 . S
C1981 H1993 0.929 . S
C1982 C1978 1.531 . S
C1982 H1994 0.960 . S
C1982 H1995 0.962 . S
C1982 H1996 0.960 . S
C1983 C1980 1.511 . S
C1983 H1997 0.961 1_545 S
C1983 H1998 0.961 . S
C1983 H1999 0.961 . S
C1984 C1985 1.370 . S
C1984 C1986 1.363 . S
C1984 H2000 0.931 . S
C1985 C1984 1.370 . S
C1985 C1989 1.408 . S
C1986 C1984 1.363 . S
C1986 C1987 1.370 . S
C1986 C1990 1.524 . S
C1987 C1979 1.503 . S
C1987 C1986 1.370 . S
C1987 C1988 1.403 . S
C1988 C1987 1.403 . S
C1988 C1989 1.404 . S
C1988 C1991 1.539 . S
C1989 C1985 1.408 . S
C1989 C1988 1.404 . S
C1989 H2001 0.930 . S
C1990 C1986 1.524 . S
C1990 H2002 0.956 . S
C1990 H2003 0.961 . S
C1990 H2004 0.961 . S
C1991 C1988 1.539 . S
C1991 H2005 0.958 . S
C1991 H2006 0.961 . S
C1991 H2007 0.960 . S
H1992 C1976 0.931 . S
H1993 C1981 0.929 . S
H1994 C1982 0.960 . S
H1995 C1982 0.962 . S
H1996 C1982 0.960 . S
H1997 C1983 0.961 1_565 S
H1998 C1983 0.961 . S
H1999 C1983 0.961 . S
H2000 C1984 0.931 . S
H2001 C1989 0.930 . S
H2002 C1990 0.956 . S
H2003 C1990 0.961 . S
H2004 C1990 0.961 . S
H2005 C1991 0.958 . S
H2006 C1991 0.961 . S
H2007 C1991 0.960 . S
C2008 C2009 1.391 . S
C2008 C2010 1.394 . S
C2008 H2024 0.931 . S
C2009 C2008 1.391 . S
C2009 C2013 1.376 . S
C2010 C2008 1.394 . S
C2010 C2011 1.369 . S
C2010 C2014 1.531 . S
C2011 C2010 1.369 . S
C2011 C2012 1.410 . S
C2011 C2019 1.503 . S
C2012 C2011 1.410 . S
C2012 C2013 1.392 . S
C2012 C2015 1.511 . S
C2013 C2009 1.376 . S
C2013 C2012 1.392 . S
C2013 H2025 0.929 . S
C2014 C2010 1.531 . S
C2014 H2026 0.960 . S
C2014 H2027 0.962 . S
C2014 H2028 0.960 . S
C2015 C2012 1.511 . S
C2015 H2029 0.961 . S
C2015 H2030 0.961 . S
C2015 H2031 0.961 . S
C2016 C2017 1.370 . S
C2016 C2018 1.363 . S
C2016 H2032 0.931 . S
C2017 C2016 1.370 . S
C2017 C2021 1.408 . S
C2018 C2016 1.363 . S
C2018 C2019 1.370 . S
C2018 C2022 1.524 . S
C2019 C2011 1.503 . S
C2019 C2018 1.370 . S
C2019 C2020 1.403 . S
C2020 C2019 1.403 . S
C2020 C2021 1.404 . S
C2020 C2023 1.539 . S
C2021 C2017 1.408 . S
C2021 C2020 1.404 . S
C2021 H2033 0.930 . S
C2022 C2018 1.524 . S
C2022 H2034 0.956 . S
C2022 H2035 0.961 . S
C2022 H2036 0.961 . S
C2023 C2020 1.539 . S
C2023 H2037 0.958 . S
C2023 H2038 0.961 . S
C2023 H2039 0.960 . S
H2024 C2008 0.931 . S
H2025 C2013 0.929 . S
H2026 C2014 0.960 . S
H2027 C2014 0.962 . S
H2028 C2014 0.960 . S
H2029 C2015 0.961 . S
H2030 C2015 0.961 . S
H2031 C2015 0.961 . S
H2032 C2016 0.931 . S
H2033 C2021 0.930 . S
H2034 C2022 0.956 . S
H2035 C2022 0.961 . S
H2036 C2022 0.961 . S
H2037 C2023 0.958 . S
H2038 C2023 0.961 . S
H2039 C2023 0.960 . S
C2040 C2041 1.391 . S
C2040 C2042 1.394 . S
C2040 H2056 0.957 . S
C2041 C2040 1.391 . S
C2041 C2045 1.376 . S
C2042 C2040 1.394 . S
C2042 C2043 1.369 . S
C2042 C2046 1.531 1_545 S
C2043 C2042 1.369 . S
C2043 C2044 1.410 . S
C2043 C2051 1.503 . S
C2044 C2043 1.410 . S
C2044 C2045 1.392 . S
C2044 C2047 1.511 . S
C2045 C2041 1.376 . S
C2045 C2044 1.392 . S
C2045 H2057 0.929 . S
C2046 C2042 1.531 1_565 S
C2046 H2058 0.954 1_565 S
C2046 H2059 0.962 . S
C2046 H2060 0.960 . S
C2047 C2044 1.511 . S
C2047 H2061 0.961 . S
C2047 H2062 0.961 . S
C2047 H2063 0.961 . S
C2048 C2049 1.370 . S
C2048 C2050 1.363 . S
C2048 H2064 0.931 1_545 S
C2049 C2048 1.370 . S
C2049 C2053 1.408 . S
C2050 C2048 1.363 . S
C2050 C2051 1.370 . S
C2050 C2054 1.524 1_545 S
C2051 C2043 1.503 . S
C2051 C2050 1.370 . S
C2051 C2052 1.403 . S
C2052 C2051 1.403 . S
C2052 C2053 1.404 . S
C2052 C2055 1.539 . S
C2053 C2049 1.408 . S
C2053 C2052 1.404 . S
C2053 H2065 0.930 . S
C2054 C2050 1.524 1_565 S
C2054 H2066 0.956 . S
C2054 H2067 0.961 1_565 S
C2054 H2068 0.961 . S
C2055 C2052 1.539 . S
C2055 H2069 0.958 . S
C2055 H2070 0.961 . S
C2055 H2071 0.960 . S
H2056 C2040 0.957 . S
H2057 C2045 0.929 . S
H2058 C2046 0.954 1_545 S
H2059 C2046 0.962 . S
H2060 C2046 0.960 . S
H2061 C2047 0.961 . S
H2062 C2047 0.961 . S
H2063 C2047 0.961 . S
H2064 C2048 0.931 1_565 S
H2065 C2053 0.930 . S
H2066 C2054 0.956 . S
H2067 C2054 0.961 1_545 S
H2068 C2054 0.961 . S
H2069 C2055 0.958 . S
H2070 C2055 0.961 . S
H2071 C2055 0.960 . S
C2072 C2073 1.391 . S
C2072 C2074 1.394 . S
C2072 H2088 0.931 . S
C2073 C2072 1.391 . S
C2073 C2077 1.376 . S
C2074 C2072 1.394 . S
C2074 C2075 1.369 . S
C2074 C2078 1.531 . S
C2075 C2074 1.369 . S
C2075 C2076 1.410 . S
C2075 C2083 1.503 . S
C2076 C2075 1.410 . S
C2076 C2077 1.392 . S
C2076 C2079 1.511 . S
C2077 C2073 1.376 . S
C2077 C2076 1.392 . S
C2077 H2089 0.929 . S
C2078 C2074 1.531 . S
C2078 H2090 0.960 . S
C2078 H2091 0.962 . S
C2078 H2092 0.960 . S
C2079 C2076 1.511 . S
C2079 H2093 0.961 . S
C2079 H2094 0.961 . S
C2079 H2095 0.961 . S
C2080 C2081 1.370 . S
C2080 C2082 1.363 . S
C2080 H2096 0.931 . S
C2081 C2080 1.370 . S
C2081 C2085 1.408 . S
C2082 C2080 1.363 . S
C2082 C2083 1.370 . S
C2082 C2086 1.524 . S
C2083 C2075 1.503 . S
C2083 C2082 1.370 . S
C2083 C2084 1.403 . S
C2084 C2083 1.403 . S
C2084 C2085 1.404 . S
C2084 C2087 1.539 . S
C2085 C2081 1.408 . S
C2085 C2084 1.404 . S
C2085 H2097 0.930 . S
C2086 C2082 1.524 . S
C2086 H2098 0.956 . S
C2086 H2099 0.961 . S
C2086 H2100 0.961 . S
C2087 C2084 1.539 . S
C2087 H2101 0.958 . S
C2087 H2102 0.961 . S
C2087 H2103 0.960 . S
H2088 C2072 0.931 . S
H2089 C2077 0.929 . S
H2090 C2078 0.960 . S
H2091 C2078 0.962 . S
H2092 C2078 0.960 . S
H2093 C2079 0.961 . S
H2094 C2079 0.961 . S
H2095 C2079 0.961 . S
H2096 C2080 0.931 . S
H2097 C2085 0.930 . S
H2098 C2086 0.956 . S
H2099 C2086 0.961 . S
H2100 C2086 0.961 . S
H2101 C2087 0.958 . S
H2102 C2087 0.961 . S
H2103 C2087 0.960 . S
C2104 C2105 1.391 . S
C2104 C2106 1.394 . S
C2104 H2120 0.931 . S
C2105 C2104 1.391 . S
C2105 C2109 1.376 . S
C2106 C2104 1.394 . S
C2106 C2107 1.369 . S
C2106 C2110 1.531 . S
C2107 C2106 1.369 . S
C2107 C2108 1.410 . S
C2107 C2115 1.503 . S
C2108 C2107 1.410 . S
C2108 C2109 1.392 . S
C2108 C2111 1.511 . S
C2109 C2105 1.376 . S
C2109 C2108 1.392 . S
C2109 H2121 0.929 . S
C2110 C2106 1.531 . S
C2110 H2122 0.960 . S
C2110 H2123 0.962 1_545 S
C2110 H2124 0.960 . S
C2111 C2108 1.511 . S
C2111 H2125 0.961 . S
C2111 H2126 0.961 . S
C2111 H2127 0.961 . S
C2112 C2113 1.370 . S
C2112 C2114 1.363 . S
C2112 H2128 0.931 1_545 S
C2113 C2112 1.370 . S
C2113 C2117 1.408 . S
C2114 C2112 1.363 . S
C2114 C2115 1.370 . S
C2114 C2118 1.524 1_545 S
C2115 C2107 1.503 . S
C2115 C2114 1.370 . S
C2115 C2116 1.403 . S
C2116 C2115 1.403 . S
C2116 C2117 1.404 . S
C2116 C2119 1.539 . S
C2117 C2113 1.408 . S
C2117 C2116 1.404 . S
C2117 H2129 0.930 . S
C2118 C2114 1.524 1_565 S
C2118 H2130 0.956 . S
C2118 H2131 0.961 . S
C2118 H2132 0.961 . S
C2119 C2116 1.539 . S
C2119 H2133 0.958 . S
C2119 H2134 0.961 . S
C2119 H2135 0.960 . S
H2120 C2104 0.931 . S
H2121 C2109 0.929 . S
H2122 C2110 0.960 . S
H2123 C2110 0.962 1_565 S
H2124 C2110 0.960 . S
H2125 C2111 0.961 . S
H2126 C2111 0.961 . S
H2127 C2111 0.961 . S
H2128 C2112 0.931 1_565 S
H2129 C2117 0.930 . S
H2130 C2118 0.956 . S
H2131 C2118 0.961 . S
H2132 C2118 0.961 . S
H2133 C2119 0.958 . S
H2134 C2119 0.961 . S
H2135 C2119 0.960 . S
C2136 C2137 1.391 . S
C2136 C2138 1.394 . S
C2136 H2152 0.931 . S
C2137 C2136 1.391 . S
C2137 C2141 1.376 . S
C2138 C2136 1.394 . S
C2138 C2139 1.369 . S
C2138 C2142 1.531 . S
C2139 C2138 1.369 . S
C2139 C2140 1.410 . S
C2139 C2147 1.503 . S
C2140 C2139 1.410 . S
C2140 C2141 1.392 . S
C2140 C2143 1.511 . S
C2141 C2137 1.376 . S
C2141 C2140 1.392 . S
C2141 H2153 0.929 . S
C2142 C2138 1.531 . S
C2142 H2154 0.960 . S
C2142 H2155 0.962 . S
C2142 H2156 0.960 . S
C2143 C2140 1.511 . S
C2143 H2157 0.961 . S
C2143 H2158 0.961 . S
C2143 H2159 0.961 . S
C2144 C2145 1.370 . S
C2144 C2146 1.363 . S
C2144 H2160 0.931 . S
C2145 C2144 1.370 . S
C2145 C2149 1.408 . S
C2146 C2144 1.363 . S
C2146 C2147 1.370 . S
C2146 C2150 1.524 . S
C2147 C2139 1.503 . S
C2147 C2146 1.370 . S
C2147 C2148 1.403 . S
C2148 C2147 1.403 . S
C2148 C2149 1.404 . S
C2148 C2151 1.539 . S
C2149 C2145 1.408 . S
C2149 C2148 1.404 . S
C2149 H2161 0.930 . S
C2150 C2146 1.524 . S
C2150 H2162 0.956 . S
C2150 H2163 0.961 . S
C2150 H2164 0.961 . S
C2151 C2148 1.539 . S
C2151 H2165 0.958 . S
C2151 H2166 0.961 . S
C2151 H2167 0.960 . S
H2152 C2136 0.931 . S
H2153 C2141 0.929 . S
H2154 C2142 0.960 . S
H2155 C2142 0.962 . S
H2156 C2142 0.960 . S
H2157 C2143 0.961 . S
H2158 C2143 0.961 . S
H2159 C2143 0.961 . S
H2160 C2144 0.931 . S
H2161 C2149 0.930 . S
H2162 C2150 0.956 . S
H2163 C2150 0.961 . S
H2164 C2150 0.961 . S
H2165 C2151 0.958 . S
H2166 C2151 0.961 . S
H2167 C2151 0.960 . S
C2168 C2169 1.391 . S
C2168 C2170 1.394 . S
C2168 H2184 0.931 . S
C2169 C2168 1.391 . S
C2169 C2173 1.376 . S
C2170 C2168 1.394 . S
C2170 C2171 1.369 . S
C2170 C2174 1.531 . S
C2171 C2170 1.369 . S
C2171 C2172 1.410 . S
C2171 C2179 1.503 . S
C2172 C2171 1.410 . S
C2172 C2173 1.392 . S
C2172 C2175 1.511 . S
C2173 C2169 1.376 . S
C2173 C2172 1.392 . S
C2173 H2185 0.929 . S
C2174 C2170 1.531 . S
C2174 H2186 0.960 . S
C2174 H2187 0.962 . S
C2174 H2188 0.960 . S
C2175 C2172 1.511 . S
C2175 H2189 0.961 . S
C2175 H2190 0.961 . S
C2175 H2191 0.961 1_545 S
C2176 C2177 1.370 . S
C2176 C2178 1.363 . S
C2176 H2192 0.931 . S
C2177 C2176 1.370 . S
C2177 C2181 1.408 1_545 S
C2178 C2176 1.363 . S
C2178 C2179 1.370 . S
C2178 C2182 1.524 . S
C2179 C2171 1.503 . S
C2179 C2178 1.370 . S
C2179 C2180 1.403 1_545 S
C2180 C2179 1.403 1_565 S
C2180 C2181 1.404 . S
C2180 C2183 1.539 . S
C2181 C2177 1.408 1_565 S
C2181 C2180 1.404 . S
C2181 H2193 0.930 . S
C2182 C2178 1.524 . S
C2182 H2194 0.956 . S
C2182 H2195 0.961 . S
C2182 H2196 0.961 . S
C2183 C2180 1.539 . S
C2183 H2197 0.958 . S
C2183 H2198 0.961 . S
C2183 H2199 0.960 . S
H2184 C2168 0.931 . S
H2185 C2173 0.929 . S
H2186 C2174 0.960 . S
H2187 C2174 0.962 . S
H2188 C2174 0.960 . S
H2189 C2175 0.961 . S
H2190 C2175 0.961 . S
H2191 C2175 0.961 1_565 S
H2192 C2176 0.931 . S
H2193 C2181 0.930 . S
H2194 C2182 0.956 . S
H2195 C2182 0.961 . S
H2196 C2182 0.961 . S
H2197 C2183 0.958 . S
H2198 C2183 0.961 . S
H2199 C2183 0.960 . S
C2200 C2201 1.391 . S
C2200 C2202 1.394 . S
C2200 H2216 0.931 . S
C2201 C2200 1.391 . S
C2201 C2205 1.376 . S
C2202 C2200 1.394 . S
C2202 C2203 1.369 . S
C2202 C2206 1.531 . S
C2203 C2202 1.369 . S
C2203 C2204 1.410 . S
C2203 C2211 1.503 . S
C2204 C2203 1.410 . S
C2204 C2205 1.392 . S
C2204 C2207 1.511 . S
C2205 C2201 1.376 . S
C2205 C2204 1.392 . S
C2205 H2217 0.929 . S
C2206 C2202 1.531 . S
C2206 H2218 0.960 . S
C2206 H2219 0.962 . S
C2206 H2220 0.960 . S
C2207 C2204 1.511 . S
C2207 H2221 0.961 . S
C2207 H2222 0.961 . S
C2207 H2223 0.961 . S
C2208 C2209 1.370 . S
C2208 C2210 1.363 . S
C2208 H2224 0.931 . S
C2209 C2208 1.370 . S
C2209 C2213 1.408 . S
C2210 C2208 1.363 . S
C2210 C2211 1.370 . S
C2210 C2214 1.524 . S
C2211 C2203 1.503 . S
C2211 C2210 1.370 . S
C2211 C2212 1.403 . S
C2212 C2211 1.403 . S
C2212 C2213 1.404 . S
C2212 C2215 1.539 . S
C2213 C2209 1.408 . S
C2213 C2212 1.404 . S
C2213 H2225 0.930 . S
C2214 C2210 1.524 . S
C2214 H2226 0.956 . S
C2214 H2227 0.961 . S
C2214 H2228 0.961 . S
C2215 C2212 1.539 . S
C2215 H2229 0.958 . S
C2215 H2230 0.961 . S
C2215 H2231 0.960 . S
H2216 C2200 0.931 . S
H2217 C2205 0.929 . S
H2218 C2206 0.960 . S
H2219 C2206 0.962 . S
H2220 C2206 0.960 . S
H2221 C2207 0.961 . S
H2222 C2207 0.961 . S
H2223 C2207 0.961 . S
H2224 C2208 0.931 . S
H2225 C2213 0.930 . S
H2226 C2214 0.956 . S
H2227 C2214 0.961 . S
H2228 C2214 0.961 . S
H2229 C2215 0.958 . S
H2230 C2215 0.961 . S
H2231 C2215 0.960 . S
C2232 C2233 1.391 . S
C2232 C2234 1.394 . S
C2232 H2248 0.931 . S
C2233 C2232 1.391 . S
C2233 C2237 1.376 . S
C2234 C2232 1.394 . S
C2234 C2235 1.369 . S
C2234 C2238 1.531 . S
C2235 C2234 1.369 . S
C2235 C2236 1.410 . S
C2235 C2243 1.503 . S
C2236 C2235 1.410 . S
C2236 C2237 1.392 . S
C2236 C2239 1.511 . S
C2237 C2233 1.376 . S
C2237 C2236 1.392 . S
C2237 H2249 0.929 . S
C2238 C2234 1.531 . S
C2238 H2250 0.960 . S
C2238 H2251 0.962 . S
C2238 H2252 0.960 . S
C2239 C2236 1.511 . S
C2239 H2253 0.961 . S
C2239 H2254 0.961 . S
C2239 H2255 0.961 . S
C2240 C2241 1.370 . S
C2240 C2242 1.363 . S
C2240 H2256 0.931 . S
C2241 C2240 1.370 . S
C2241 C2245 1.408 . S
C2242 C2240 1.363 . S
C2242 C2243 1.370 . S
C2242 C2246 1.524 . S
C2243 C2235 1.503 . S
C2243 C2242 1.370 . S
C2243 C2244 1.403 . S
C2244 C2243 1.403 . S
C2244 C2245 1.404 . S
C2244 C2247 1.539 . S
C2245 C2241 1.408 . S
C2245 C2244 1.404 . S
C2245 H2257 0.976 . S
C2246 C2242 1.524 . S
C2246 H2258 0.956 . S
C2246 H2259 0.961 . S
C2246 H2260 0.961 . S
C2247 C2244 1.539 . S
C2247 H2261 0.958 . S
C2247 H2262 0.961 1_554 S
C2247 H2263 0.960 . S
H2248 C2232 0.931 . S
H2249 C2237 0.929 . S
H2250 C2238 0.960 . S
H2251 C2238 0.962 . S
H2252 C2238 0.960 . S
H2253 C2239 0.961 . S
H2254 C2239 0.961 . S
H2255 C2239 0.961 . S
H2256 C2240 0.931 . S
H2257 C2245 0.976 . S
H2258 C2246 0.956 . S
H2259 C2246 0.961 . S
H2260 C2246 0.961 . S
H2261 C2247 0.958 . S
H2262 C2247 0.961 1_556 S
H2263 C2247 0.960 . S
C2264 C2265 1.391 . S
C2264 C2266 1.394 . S
C2264 H2280 0.931 . S
C2265 C2264 1.391 . S
C2265 C2269 1.376 . S
C2266 C2264 1.394 . S
C2266 C2267 1.369 . S
C2266 C2270 1.531 . S
C2267 C2266 1.369 . S
C2267 C2268 1.410 . S
C2267 C2275 1.503 . S
C2268 C2267 1.410 . S
C2268 C2269 1.392 . S
C2268 C2271 1.511 . S
C2269 C2265 1.376 . S
C2269 C2268 1.392 . S
C2269 H2281 0.929 . S
C2270 C2266 1.531 . S
C2270 H2282 0.960 . S
C2270 H2283 0.962 . S
C2270 H2284 0.960 . S
C2271 C2268 1.511 . S
C2271 H2285 0.961 . S
C2271 H2286 0.961 . S
C2271 H2287 0.961 . S
C2272 C2273 1.370 . S
C2272 C2274 1.363 . S
C2272 H2288 0.931 . S
C2273 C2272 1.370 . S
C2273 C2277 1.408 . S
C2274 C2272 1.363 . S
C2274 C2275 1.370 . S
C2274 C2278 1.524 . S
C2275 C2267 1.503 . S
C2275 C2274 1.370 . S
C2275 C2276 1.403 . S
C2276 C2275 1.403 . S
C2276 C2277 1.404 . S
C2276 C2279 1.539 . S
C2277 C2273 1.408 . S
C2277 C2276 1.404 . S
C2277 H2289 0.930 . S
C2278 C2274 1.524 . S
C2278 H2290 0.954 1_554 S
C2278 H2291 0.961 . S
C2278 H2292 0.961 1_554 S
C2279 C2276 1.539 . S
C2279 H2293 0.958 . S
C2279 H2294 0.961 . S
C2279 H2295 0.960 . S
H2280 C2264 0.931 . S
H2281 C2269 0.929 . S
H2282 C2270 0.960 . S
H2283 C2270 0.962 . S
H2284 C2270 0.960 . S
H2285 C2271 0.961 . S
H2286 C2271 0.961 . S
H2287 C2271 0.961 . S
H2288 C2272 0.931 . S
H2289 C2277 0.930 . S
H2290 C2278 0.954 1_556 S
H2291 C2278 0.961 . S
H2292 C2278 0.961 1_556 S
H2293 C2279 0.958 . S
H2294 C2279 0.961 . S
H2295 C2279 0.960 . S
C2296 C2297 1.391 . S
C2296 C2298 1.394 . S
C2296 H2312 0.931 . S
C2297 C2296 1.391 . S
C2297 C2301 1.376 . S
C2298 C2296 1.394 . S
C2298 C2299 1.369 . S
C2298 C2302 1.531 . S
C2299 C2298 1.369 . S
C2299 C2300 1.410 . S
C2299 C2307 1.503 . S
C2300 C2299 1.410 . S
C2300 C2301 1.392 . S
C2300 C2303 1.511 . S
C2301 C2297 1.376 . S
C2301 C2300 1.392 . S
C2301 H2313 0.929 . S
C2302 C2298 1.531 . S
C2302 H2314 0.960 . S
C2302 H2315 0.962 . S
C2302 H2316 0.960 . S
C2303 C2300 1.511 . S
C2303 H2317 0.961 . S
C2303 H2318 0.961 . S
C2303 H2319 0.961 . S
C2304 C2305 1.370 . S
C2304 C2306 1.363 . S
C2304 H2320 0.931 . S
C2305 C2304 1.370 . S
C2305 C2309 1.408 . S
C2306 C2304 1.363 . S
C2306 C2307 1.370 . S
C2306 C2310 1.524 . S
C2307 C2299 1.503 . S
C2307 C2306 1.370 . S
C2307 C2308 1.403 . S
C2308 C2307 1.403 . S
C2308 C2309 1.404 . S
C2308 C2311 1.539 . S
C2309 C2305 1.408 . S
C2309 C2308 1.404 . S
C2309 H2321 0.930 . S
C2310 C2306 1.524 . S
C2310 H2322 0.956 . S
C2310 H2323 0.961 . S
C2310 H2324 0.961 . S
C2311 C2308 1.539 . S
C2311 H2325 0.958 . S
C2311 H2326 0.961 . S
C2311 H2327 0.960 . S
H2312 C2296 0.931 . S
H2313 C2301 0.929 . S
H2314 C2302 0.960 . S
H2315 C2302 0.962 . S
H2316 C2302 0.960 . S
H2317 C2303 0.961 . S
H2318 C2303 0.961 . S
H2319 C2303 0.961 . S
H2320 C2304 0.931 . S
H2321 C2309 0.930 . S
H2322 C2310 0.956 . S
H2323 C2310 0.961 . S
H2324 C2310 0.961 . S
H2325 C2311 0.958 . S
H2326 C2311 0.961 . S
H2327 C2311 0.960 . S
C2328 C2329 1.391 . S
C2328 C2330 1.394 . S
C2328 H2344 0.931 . S
C2329 C2328 1.391 . S
C2329 C2333 1.376 . S
C2330 C2328 1.394 . S
C2330 C2331 1.369 . S
C2330 C2334 1.531 . S
C2331 C2330 1.369 . S
C2331 C2332 1.410 . S
C2331 C2339 1.503 . S
C2332 C2331 1.410 . S
C2332 C2333 1.392 . S
C2332 C2335 1.511 . S
C2333 C2329 1.376 . S
C2333 C2332 1.392 . S
C2333 H2345 0.929 . S
C2334 C2330 1.531 . S
C2334 H2346 0.960 . S
C2334 H2347 0.962 . S
C2334 H2348 0.960 . S
C2335 C2332 1.511 . S
C2335 H2349 0.961 . S
C2335 H2350 0.961 . S
C2335 H2351 0.961 . S
C2336 C2337 1.370 . S
C2336 C2338 1.363 . S
C2336 H2352 0.931 . S
C2337 C2336 1.370 . S
C2337 C2341 1.408 . S
C2338 C2336 1.363 . S
C2338 C2339 1.370 . S
C2338 C2342 1.524 . S
C2339 C2331 1.503 . S
C2339 C2338 1.370 . S
C2339 C2340 1.403 . S
C2340 C2339 1.403 . S
C2340 C2341 1.404 . S
C2340 C2343 1.539 . S
C2341 C2337 1.408 . S
C2341 C2340 1.404 . S
C2341 H2353 0.930 . S
C2342 C2338 1.524 . S
C2342 H2354 0.956 . S
C2342 H2355 0.961 . S
C2342 H2356 0.961 . S
C2343 C2340 1.539 . S
C2343 H2357 0.958 . S
C2343 H2358 0.961 . S
C2343 H2359 0.960 . S
H2344 C2328 0.931 . S
H2345 C2333 0.929 . S
H2346 C2334 0.960 . S
H2347 C2334 0.962 . S
H2348 C2334 0.960 . S
H2349 C2335 0.961 . S
H2350 C2335 0.961 . S
H2351 C2335 0.961 . S
H2352 C2336 0.931 . S
H2353 C2341 0.930 . S
H2354 C2342 0.956 . S
H2355 C2342 0.961 . S
H2356 C2342 0.961 . S
H2357 C2343 0.958 . S
H2358 C2343 0.961 . S
H2359 C2343 0.960 . S
C2360 C2361 1.391 . S
C2360 C2362 1.394 . S
C2360 H2376 0.931 . S
C2361 C2360 1.391 . S
C2361 C2365 1.376 . S
C2362 C2360 1.394 . S
C2362 C2363 1.369 . S
C2362 C2366 1.531 . S
C2363 C2362 1.369 . S
C2363 C2364 1.410 . S
C2363 C2371 1.503 . S
C2364 C2363 1.410 . S
C2364 C2365 1.392 . S
C2364 C2367 1.511 . S
C2365 C2361 1.376 . S
C2365 C2364 1.392 . S
C2365 H2377 0.929 . S
C2366 C2362 1.531 . S
C2366 H2378 0.960 . S
C2366 H2379 0.962 . S
C2366 H2380 0.960 . S
C2367 C2364 1.511 . S
C2367 H2381 0.961 . S
C2367 H2382 0.961 . S
C2367 H2383 0.961 . S
C2368 C2369 1.370 . S
C2368 C2370 1.363 . S
C2368 H2384 0.931 . S
C2369 C2368 1.370 . S
C2369 C2373 1.408 . S
C2370 C2368 1.363 . S
C2370 C2371 1.370 . S
C2370 C2374 1.524 . S
C2371 C2363 1.503 . S
C2371 C2370 1.370 . S
C2371 C2372 1.403 . S
C2372 C2371 1.403 . S
C2372 C2373 1.404 . S
C2372 C2375 1.539 . S
C2373 C2369 1.408 . S
C2373 C2372 1.404 . S
C2373 H2385 0.930 . S
C2374 C2370 1.524 . S
C2374 H2386 0.956 . S
C2374 H2387 0.961 . S
C2374 H2388 0.961 . S
C2375 C2372 1.539 . S
C2375 H2389 0.958 . S
C2375 H2390 0.961 . S
C2375 H2391 0.960 . S
H2376 C2360 0.931 . S
H2377 C2365 0.929 . S
H2378 C2366 0.960 . S
H2379 C2366 0.962 . S
H2380 C2366 0.960 . S
H2381 C2367 0.961 . S
H2382 C2367 0.961 . S
H2383 C2367 0.961 . S
H2384 C2368 0.931 . S
H2385 C2373 0.930 . S
H2386 C2374 0.956 . S
H2387 C2374 0.961 . S
H2388 C2374 0.961 . S
H2389 C2375 0.958 . S
H2390 C2375 0.961 . S
H2391 C2375 0.960 . S
C2392 C2393 1.391 . S
C2392 C2394 1.394 . S
C2392 H2408 0.931 . S
C2393 C2392 1.391 . S
C2393 C2397 1.376 . S
C2394 C2392 1.394 . S
C2394 C2395 1.369 . S
C2394 C2398 1.531 . S
C2395 C2394 1.369 . S
C2395 C2396 1.410 . S
C2395 C2403 1.503 . S
C2396 C2395 1.410 . S
C2396 C2397 1.392 . S
C2396 C2399 1.511 . S
C2397 C2393 1.376 . S
C2397 C2396 1.392 . S
C2397 H2409 0.929 . S
C2398 C2394 1.531 . S
C2398 H2410 0.960 . S
C2398 H2411 0.962 . S
C2398 H2412 0.960 . S
C2399 C2396 1.511 . S
C2399 H2413 0.961 . S
C2399 H2414 0.961 . S
C2399 H2415 0.961 . S
C2400 C2401 1.370 . S
C2400 C2402 1.363 . S
C2400 H2416 0.931 . S
C2401 C2400 1.370 . S
C2401 C2405 1.408 . S
C2402 C2400 1.363 . S
C2402 C2403 1.370 . S
C2402 C2406 1.524 . S
C2403 C2395 1.503 . S
C2403 C2402 1.370 . S
C2403 C2404 1.403 . S
C2404 C2403 1.403 . S
C2404 C2405 1.404 . S
C2404 C2407 1.539 . S
C2405 C2401 1.408 . S
C2405 C2404 1.404 . S
C2405 H2417 0.930 . S
C2406 C2402 1.524 . S
C2406 H2418 0.956 . S
C2406 H2419 0.961 . S
C2406 H2420 0.961 . S
C2407 C2404 1.539 . S
C2407 H2421 0.958 . S
C2407 H2422 0.961 . S
C2407 H2423 0.960 . S
H2408 C2392 0.931 . S
H2409 C2397 0.929 . S
H2410 C2398 0.960 . S
H2411 C2398 0.962 . S
H2412 C2398 0.960 . S
H2413 C2399 0.961 . S
H2414 C2399 0.961 . S
H2415 C2399 0.961 . S
H2416 C2400 0.931 . S
H2417 C2405 0.930 . S
H2418 C2406 0.956 . S
H2419 C2406 0.961 . S
H2420 C2406 0.961 . S
H2421 C2407 0.958 . S
H2422 C2407 0.961 . S
H2423 C2407 0.960 . S
C2424 C2425 1.391 . S
C2424 C2426 1.394 . S
C2424 H2440 0.931 . S
C2425 C2424 1.391 . S
C2425 C2429 1.376 . S
C2426 C2424 1.394 . S
C2426 C2427 1.369 . S
C2426 C2430 1.531 . S
C2427 C2426 1.369 . S
C2427 C2428 1.410 . S
C2427 C2435 1.503 . S
C2428 C2427 1.410 . S
C2428 C2429 1.392 . S
C2428 C2431 1.511 . S
C2429 C2425 1.376 . S
C2429 C2428 1.392 . S
C2429 H2441 0.929 . S
C2430 C2426 1.531 . S
C2430 H2442 0.960 . S
C2430 H2443 0.962 . S
C2430 H2444 0.960 . S
C2431 C2428 1.511 . S
C2431 H2445 0.961 . S
C2431 H2446 0.961 . S
C2431 H2447 0.961 . S
C2432 C2433 1.370 . S
C2432 C2434 1.363 . S
C2432 H2448 0.931 . S
C2433 C2432 1.370 . S
C2433 C2437 1.408 . S
C2434 C2432 1.363 . S
C2434 C2435 1.370 . S
C2434 C2438 1.524 . S
C2435 C2427 1.503 . S
C2435 C2434 1.370 . S
C2435 C2436 1.403 . S
C2436 C2435 1.403 . S
C2436 C2437 1.404 . S
C2436 C2439 1.539 . S
C2437 C2433 1.408 . S
C2437 C2436 1.404 . S
C2437 H2449 0.930 . S
C2438 C2434 1.524 . S
C2438 H2450 0.956 . S
C2438 H2451 0.961 . S
C2438 H2452 0.961 . S
C2439 C2436 1.539 . S
C2439 H2453 0.958 . S
C2439 H2454 0.961 . S
C2439 H2455 0.960 . S
H2440 C2424 0.931 . S
H2441 C2429 0.929 . S
H2442 C2430 0.960 . S
H2443 C2430 0.962 . S
H2444 C2430 0.960 . S
H2445 C2431 0.961 . S
H2446 C2431 0.961 . S
H2447 C2431 0.961 . S
H2448 C2432 0.931 . S
H2449 C2437 0.930 . S
H2450 C2438 0.956 . S
H2451 C2438 0.961 . S
H2452 C2438 0.961 . S
H2453 C2439 0.958 . S
H2454 C2439 0.961 . S
H2455 C2439 0.960 . S
C2456 C2457 1.391 . S
C2456 C2458 1.394 . S
C2456 H2472 0.931 . S
C2457 C2456 1.391 . S
C2457 C2461 1.376 . S
C2458 C2456 1.394 . S
C2458 C2459 1.369 . S
C2458 C2462 1.531 . S
C2459 C2458 1.369 . S
C2459 C2460 1.410 . S
C2459 C2467 1.503 . S
C2460 C2459 1.410 . S
C2460 C2461 1.392 . S
C2460 C2463 1.511 . S
C2461 C2457 1.376 . S
C2461 C2460 1.392 . S
C2461 H2473 0.929 . S
C2462 C2458 1.531 . S
C2462 H2474 0.960 . S
C2462 H2475 0.962 . S
C2462 H2476 0.960 . S
C2463 C2460 1.511 . S
C2463 H2477 0.961 . S
C2463 H2478 0.961 . S
C2463 H2479 0.961 . S
C2464 C2465 1.370 . S
C2464 C2466 1.363 . S
C2464 H2480 0.931 . S
C2465 C2464 1.370 . S
C2465 C2469 1.408 . S
C2466 C2464 1.363 . S
C2466 C2467 1.370 . S
C2466 C2470 1.524 . S
C2467 C2459 1.503 . S
C2467 C2466 1.370 . S
C2467 C2468 1.403 . S
C2468 C2467 1.403 . S
C2468 C2469 1.404 . S
C2468 C2471 1.539 . S
C2469 C2465 1.408 . S
C2469 C2468 1.404 . S
C2469 H2481 0.930 . S
C2470 C2466 1.524 . S
C2470 H2482 0.956 . S
C2470 H2483 0.961 . S
C2470 H2484 0.961 . S
C2471 C2468 1.539 . S
C2471 H2485 0.958 . S
C2471 H2486 0.961 . S
C2471 H2487 0.960 . S
H2472 C2456 0.931 . S
H2473 C2461 0.929 . S
H2474 C2462 0.960 . S
H2475 C2462 0.962 . S
H2476 C2462 0.960 . S
H2477 C2463 0.961 . S
H2478 C2463 0.961 . S
H2479 C2463 0.961 . S
H2480 C2464 0.931 . S
H2481 C2469 0.930 . S
H2482 C2470 0.956 . S
H2483 C2470 0.961 . S
H2484 C2470 0.961 . S
H2485 C2471 0.958 . S
H2486 C2471 0.961 . S
H2487 C2471 0.960 . S
C2488 C2489 1.391 . S
C2488 C2490 1.394 . S
C2488 H2504 0.931 . S
C2489 C2488 1.391 . S
C2489 C2493 1.376 . S
C2490 C2488 1.394 . S
C2490 C2491 1.369 . S
C2490 C2494 1.531 . S
C2491 C2490 1.369 . S
C2491 C2492 1.410 . S
C2491 C2499 1.503 . S
C2492 C2491 1.410 . S
C2492 C2493 1.392 . S
C2492 C2495 1.511 . S
C2493 C2489 1.376 . S
C2493 C2492 1.392 . S
C2493 H2505 0.929 . S
C2494 C2490 1.531 . S
C2494 H2506 0.960 . S
C2494 H2507 0.962 . S
C2494 H2508 0.960 . S
C2495 C2492 1.511 . S
C2495 H2509 0.961 . S
C2495 H2510 0.961 . S
C2495 H2511 0.961 . S
C2496 C2497 1.370 . S
C2496 C2498 1.363 . S
C2496 H2512 0.931 . S
C2497 C2496 1.370 . S
C2497 C2501 1.408 . S
C2498 C2496 1.363 . S
C2498 C2499 1.370 . S
C2498 C2502 1.524 . S
C2499 C2491 1.503 . S
C2499 C2498 1.370 . S
C2499 C2500 1.403 . S
C2500 C2499 1.403 . S
C2500 C2501 1.404 . S
C2500 C2503 1.539 . S
C2501 C2497 1.408 . S
C2501 C2500 1.404 . S
C2501 H2513 0.930 . S
C2502 C2498 1.524 . S
C2502 H2514 0.956 . S
C2502 H2515 0.961 . S
C2502 H2516 0.961 . S
C2503 C2500 1.539 . S
C2503 H2517 0.958 . S
C2503 H2518 0.961 . S
C2503 H2519 0.960 . S
H2504 C2488 0.931 . S
H2505 C2493 0.929 . S
H2506 C2494 0.960 . S
H2507 C2494 0.962 . S
H2508 C2494 0.960 . S
H2509 C2495 0.961 . S
H2510 C2495 0.961 . S
H2511 C2495 0.961 . S
H2512 C2496 0.931 . S
H2513 C2501 0.930 . S
H2514 C2502 0.956 . S
H2515 C2502 0.961 . S
H2516 C2502 0.961 . S
H2517 C2503 0.958 . S
H2518 C2503 0.961 . S
H2519 C2503 0.960 . S
C2520 C2521 1.391 . S
C2520 C2522 1.394 . S
C2520 H2536 0.931 . S
C2521 C2520 1.391 . S
C2521 C2525 1.376 . S
C2522 C2520 1.394 . S
C2522 C2523 1.369 . S
C2522 C2526 1.531 . S
C2523 C2522 1.369 . S
C2523 C2524 1.410 . S
C2523 C2531 1.503 . S
C2524 C2523 1.410 . S
C2524 C2525 1.392 . S
C2524 C2527 1.511 . S
C2525 C2521 1.376 . S
C2525 C2524 1.392 . S
C2525 H2537 0.929 . S
C2526 C2522 1.531 . S
C2526 H2538 0.960 . S
C2526 H2539 0.962 . S
C2526 H2540 0.960 . S
C2527 C2524 1.511 . S
C2527 H2541 0.961 . S
C2527 H2542 0.961 . S
C2527 H2543 0.961 . S
C2528 C2529 1.370 . S
C2528 C2530 1.363 . S
C2528 H2544 0.931 . S
C2529 C2528 1.370 . S
C2529 C2533 1.408 . S
C2530 C2528 1.363 . S
C2530 C2531 1.370 . S
C2530 C2534 1.524 . S
C2531 C2523 1.503 . S
C2531 C2530 1.370 . S
C2531 C2532 1.403 . S
C2532 C2531 1.403 . S
C2532 C2533 1.404 . S
C2532 C2535 1.539 . S
C2533 C2529 1.408 . S
C2533 C2532 1.404 . S
C2533 H2545 0.930 . S
C2534 C2530 1.524 . S
C2534 H2546 0.956 . S
C2534 H2547 0.961 . S
C2534 H2548 0.961 . S
C2535 C2532 1.539 . S
C2535 H2549 0.958 . S
C2535 H2550 0.961 . S
C2535 H2551 0.960 . S
H2536 C2520 0.931 . S
H2537 C2525 0.929 . S
H2538 C2526 0.960 . S
H2539 C2526 0.962 . S
H2540 C2526 0.960 . S
H2541 C2527 0.961 . S
H2542 C2527 0.961 . S
H2543 C2527 0.961 . S
H2544 C2528 0.931 . S
H2545 C2533 0.930 . S
H2546 C2534 0.956 . S
H2547 C2534 0.961 . S
H2548 C2534 0.961 . S
H2549 C2535 0.958 . S
H2550 C2535 0.961 . S
H2551 C2535 0.960 . S
C2552 C2553 1.391 . S
C2552 C2554 1.394 . S
C2552 H2568 0.931 . S
C2553 C2552 1.391 . S
C2553 C2557 1.376 . S
C2554 C2552 1.394 . S
C2554 C2555 1.369 . S
C2554 C2558 1.531 . S
C2555 C2554 1.369 . S
C2555 C2556 1.410 . S
C2555 C2563 1.503 1_556 S
C2556 C2555 1.410 . S
C2556 C2557 1.392 . S
C2556 C2559 1.511 1_456 S
C2557 C2553 1.376 . S
C2557 C2556 1.392 . S
C2557 H2569 0.929 1_455 S
C2558 C2554 1.531 . S
C2558 H2570 0.960 . S
C2558 H2571 0.962 . S
C2558 H2572 0.960 . S
C2559 C2556 1.511 1_654 S
C2559 H2573 0.961 . S
C2559 H2574 0.961 . S
C2559 H2575 0.961 1_554 S
C2560 C2561 1.370 . S
C2560 C2562 1.363 . S
C2560 H2576 0.931 . S
C2561 C2560 1.370 . S
C2561 C2565 1.408 . S
C2562 C2560 1.363 . S
C2562 C2563 1.370 . S
C2562 C2566 1.524 . S
C2563 C2555 1.503 1_554 S
C2563 C2562 1.370 . S
C2563 C2564 1.403 1_554 S
C2564 C2563 1.403 1_556 S
C2564 C2565 1.404 1_556 S
C2564 C2567 1.539 . S
C2565 C2561 1.408 . S
C2565 C2564 1.404 1_554 S
C2565 H2577 0.930 1_554 S
C2566 C2562 1.524 . S
C2566 H2578 0.956 . S
C2566 H2579 0.961 . S
C2566 H2580 0.961 . S
C2567 C2564 1.539 . S
C2567 H2581 0.958 . S
C2567 H2582 0.961 1_455 S
C2567 H2583 0.961 . S
H2568 C2552 0.931 . S
H2569 C2557 0.929 1_655 S
H2570 C2558 0.960 . S
H2571 C2558 0.962 . S
H2572 C2558 0.960 . S
H2573 C2559 0.961 . S
H2574 C2559 0.961 . S
H2575 C2559 0.961 1_556 S
H2576 C2560 0.931 . S
H2577 C2565 0.930 1_556 S
H2578 C2566 0.956 . S
H2579 C2566 0.961 . S
H2580 C2566 0.961 . S
H2581 C2567 0.958 . S
H2582 C2567 0.961 1_655 S
H2583 C2567 0.961 . S
C2584 C2585 1.391 1_655 S
C2584 C2586 1.394 . S
C2584 H2600 0.931 . S
C2585 C2584 1.391 1_455 S
C2585 C2589 1.393 . S
C2586 C2584 1.394 . S
C2586 C2587 1.369 . S
C2586 C2590 1.531 . S
C2587 C2586 1.369 . S
C2587 C2588 1.410 . S
C2587 C2595 1.503 . S
C2588 C2587 1.410 . S
C2588 C2589 1.358 1_655 S
C2588 C2591 1.511 . S
C2589 C2585 1.393 . S
C2589 C2588 1.358 1_455 S
C2589 H2601 0.948 . S
C2590 C2586 1.531 . S
C2590 H2602 0.960 . S
C2590 H2603 0.962 . S
C2590 H2604 0.960 . S
C2591 C2588 1.511 . S
C2591 H2605 0.961 . S
C2591 H2606 0.961 . S
C2591 H2607 0.961 . S
C2592 C2593 1.370 . S
C2592 C2594 1.363 . S
C2592 H2608 0.931 . S
C2593 C2592 1.370 . S
C2593 C2597 1.408 . S
C2594 C2592 1.363 . S
C2594 C2595 1.370 . S
C2594 C2598 1.524 . S
C2595 C2587 1.503 . S
C2595 C2594 1.370 . S
C2595 C2596 1.403 . S
C2596 C2595 1.403 . S
C2596 C2597 1.404 . S
C2596 C2599 1.539 . S
C2597 C2593 1.408 . S
C2597 C2596 1.404 . S
C2597 H2609 0.930 . S
C2598 C2594 1.524 . S
C2598 H2610 0.956 . S
C2598 H2611 0.961 . S
C2598 H2612 0.961 . S
C2599 C2596 1.539 . S
C2599 H2613 0.958 . S
C2599 H2614 0.961 . S
C2599 H2615 0.960 . S
H2600 C2584 0.931 . S
H2601 C2589 0.948 . S
H2602 C2590 0.960 . S
H2603 C2590 0.962 . S
H2604 C2590 0.960 . S
H2605 C2591 0.961 . S
H2606 C2591 0.961 . S
H2607 C2591 0.961 . S
H2608 C2592 0.931 . S
H2609 C2597 0.930 . S
H2610 C2598 0.956 . S
H2611 C2598 0.961 . S
H2612 C2598 0.961 . S
H2613 C2599 0.958 . S
H2614 C2599 0.961 . S
H2615 C2599 0.960 . S
C2616 C2617 1.391 . S
C2616 C2618 1.394 . S
C2616 H2632 0.931 . S
C2617 C2616 1.391 . S
C2617 C2621 1.376 . S
C2618 C2616 1.394 . S
C2618 C2619 1.369 . S
C2618 C2622 1.531 . S
C2619 C2618 1.369 . S
C2619 C2620 1.410 . S
C2619 C2627 1.503 . S
C2620 C2619 1.410 . S
C2620 C2621 1.392 . S
C2620 C2623 1.511 . S
C2621 C2617 1.376 . S
C2621 C2620 1.392 . S
C2621 H2633 0.929 . S
C2622 C2618 1.531 . S
C2622 H2634 0.960 . S
C2622 H2635 0.962 . S
C2622 H2636 0.960 . S
C2623 C2620 1.511 . S
C2623 H2637 0.961 . S
C2623 H2638 0.961 . S
C2623 H2639 0.961 . S
C2624 C2625 1.370 . S
C2624 C2626 1.363 . S
C2624 H2640 0.931 . S
C2625 C2624 1.370 . S
C2625 C2629 1.408 . S
C2626 C2624 1.363 . S
C2626 C2627 1.370 . S
C2626 C2630 1.524 . S
C2627 C2619 1.503 . S
C2627 C2626 1.370 . S
C2627 C2628 1.403 . S
C2628 C2627 1.403 . S
C2628 C2629 1.404 . S
C2628 C2631 1.539 . S
C2629 C2625 1.408 . S
C2629 C2628 1.404 . S
C2629 H2641 0.930 . S
C2630 C2626 1.524 . S
C2630 H2642 0.956 . S
C2630 H2643 0.961 . S
C2630 H2644 0.961 . S
C2631 C2628 1.539 . S
C2631 H2645 0.958 . S
C2631 H2646 0.961 . S
C2631 H2647 0.960 . S
H2632 C2616 0.931 . S
H2633 C2621 0.929 . S
H2634 C2622 0.960 . S
H2635 C2622 0.962 . S
H2636 C2622 0.960 . S
H2637 C2623 0.961 . S
H2638 C2623 0.961 . S
H2639 C2623 0.961 . S
H2640 C2624 0.931 . S
H2641 C2629 0.930 . S
H2642 C2630 0.956 . S
H2643 C2630 0.961 . S
H2644 C2630 0.961 . S
H2645 C2631 0.958 . S
H2646 C2631 0.961 . S
H2647 C2631 0.960 . S
C2648 C2649 1.391 . S
C2648 C2650 1.394 . S
C2648 H2664 0.931 . S
C2649 C2648 1.391 . S
C2649 C2653 1.376 . S
C2650 C2648 1.394 . S
C2650 C2651 1.369 . S
C2650 C2654 1.531 . S
C2651 C2650 1.369 . S
C2651 C2652 1.410 . S
C2651 C2659 1.503 . S
C2652 C2651 1.410 . S
C2652 C2653 1.392 . S
C2652 C2655 1.511 . S
C2653 C2649 1.376 . S
C2653 C2652 1.392 . S
C2653 H2665 0.929 . S
C2654 C2650 1.531 . S
C2654 H2666 0.960 . S
C2654 H2667 0.962 . S
C2654 H2668 0.960 . S
C2655 C2652 1.511 . S
C2655 H2669 0.961 . S
C2655 H2670 0.961 . S
C2655 H2671 0.961 . S
C2656 C2657 1.370 . S
C2656 C2658 1.363 . S
C2656 H2672 0.931 . S
C2657 C2656 1.370 . S
C2657 C2661 1.408 . S
C2658 C2656 1.363 . S
C2658 C2659 1.370 . S
C2658 C2662 1.524 . S
C2659 C2651 1.503 . S
C2659 C2658 1.370 . S
C2659 C2660 1.403 . S
C2660 C2659 1.403 . S
C2660 C2661 1.404 . S
C2660 C2663 1.539 . S
C2661 C2657 1.408 . S
C2661 C2660 1.404 . S
C2661 H2673 0.930 . S
C2662 C2658 1.524 . S
C2662 H2674 0.956 . S
C2662 H2675 0.961 . S
C2662 H2676 0.961 . S
C2663 C2660 1.539 . S
C2663 H2677 0.958 . S
C2663 H2678 0.961 . S
C2663 H2679 0.960 . S
H2664 C2648 0.931 . S
H2665 C2653 0.929 . S
H2666 C2654 0.960 . S
H2667 C2654 0.962 . S
H2668 C2654 0.960 . S
H2669 C2655 0.961 . S
H2670 C2655 0.961 . S
H2671 C2655 0.961 . S
H2672 C2656 0.931 . S
H2673 C2661 0.930 . S
H2674 C2662 0.956 . S
H2675 C2662 0.961 . S
H2676 C2662 0.961 . S
H2677 C2663 0.958 . S
H2678 C2663 0.961 . S
H2679 C2663 0.960 . S
C2680 C2681 1.391 . S
C2680 C2682 1.394 . S
C2680 H2696 0.931 . S
C2681 C2680 1.391 . S
C2681 C2685 1.376 . S
C2682 C2680 1.394 . S
C2682 C2683 1.369 . S
C2682 C2686 1.531 . S
C2683 C2682 1.369 . S
C2683 C2684 1.410 . S
C2683 C2691 1.503 . S
C2684 C2683 1.410 . S
C2684 C2685 1.392 . S
C2684 C2687 1.511 . S
C2685 C2681 1.376 . S
C2685 C2684 1.392 . S
C2685 H2697 0.929 . S
C2686 C2682 1.531 . S
C2686 H2698 0.960 . S
C2686 H2699 0.962 . S
C2686 H2700 0.960 . S
C2687 C2684 1.511 . S
C2687 H2701 0.961 . S
C2687 H2702 0.961 . S
C2687 H2703 0.961 1_455 S
C2688 C2689 1.370 . S
C2688 C2690 1.363 . S
C2688 H2704 0.931 . S
C2689 C2688 1.370 . S
C2689 C2693 1.408 . S
C2690 C2688 1.363 . S
C2690 C2691 1.370 . S
C2690 C2694 1.524 . S
C2691 C2683 1.503 . S
C2691 C2690 1.370 . S
C2691 C2692 1.403 . S
C2692 C2691 1.403 . S
C2692 C2693 1.404 . S
C2692 C2695 1.539 . S
C2693 C2689 1.408 . S
C2693 C2692 1.404 . S
C2693 H2705 0.930 . S
C2694 C2690 1.524 . S
C2694 H2706 0.956 . S
C2694 H2707 0.961 . S
C2694 H2708 0.961 . S
C2695 C2692 1.539 . S
C2695 H2709 0.958 . S
C2695 H2710 0.961 1_455 S
C2695 H2711 0.960 . S
H2696 C2680 0.931 . S
H2697 C2685 0.929 . S
H2698 C2686 0.960 . S
H2699 C2686 0.962 . S
H2700 C2686 0.960 . S
H2701 C2687 0.961 . S
H2702 C2687 0.961 . S
H2703 C2687 0.961 1_655 S
H2704 C2688 0.931 . S
H2705 C2693 0.930 . S
H2706 C2694 0.956 . S
H2707 C2694 0.961 . S
H2708 C2694 0.961 . S
H2709 C2695 0.958 . S
H2710 C2695 0.961 1_655 S
H2711 C2695 0.960 . S
C2712 C2713 1.391 . S
C2712 C2714 1.394 . S
C2712 H2728 0.931 . S
C2713 C2712 1.391 . S
C2713 C2717 1.376 . S
C2714 C2712 1.394 . S
C2714 C2715 1.369 . S
C2714 C2718 1.531 . S
C2715 C2714 1.369 . S
C2715 C2716 1.410 . S
C2715 C2723 1.503 . S
C2716 C2715 1.410 . S
C2716 C2717 1.392 . S
C2716 C2719 1.511 . S
C2717 C2713 1.376 . S
C2717 C2716 1.392 . S
C2717 H2729 0.929 . S
C2718 C2714 1.531 . S
C2718 H2730 0.960 . S
C2718 H2731 0.962 . S
C2718 H2732 0.960 . S
C2719 C2716 1.511 . S
C2719 H2733 0.961 . S
C2719 H2734 0.961 . S
C2719 H2735 0.961 . S
C2720 C2721 1.370 . S
C2720 C2722 1.363 . S
C2720 H2736 0.931 . S
C2721 C2720 1.370 . S
C2721 C2725 1.408 . S
C2722 C2720 1.363 . S
C2722 C2723 1.370 . S
C2722 C2726 1.524 . S
C2723 C2715 1.503 . S
C2723 C2722 1.370 . S
C2723 C2724 1.403 . S
C2724 C2723 1.403 . S
C2724 C2725 1.404 . S
C2724 C2727 1.539 . S
C2725 C2721 1.408 . S
C2725 C2724 1.404 . S
C2725 H2737 0.930 . S
C2726 C2722 1.524 . S
C2726 H2738 0.956 . S
C2726 H2739 0.961 . S
C2726 H2740 0.961 . S
C2727 C2724 1.539 . S
C2727 H2741 0.958 . S
C2727 H2742 0.961 . S
C2727 H2743 0.960 . S
H2728 C2712 0.931 . S
H2729 C2717 0.929 . S
H2730 C2718 0.960 . S
H2731 C2718 0.962 . S
H2732 C2718 0.960 . S
H2733 C2719 0.961 . S
H2734 C2719 0.961 . S
H2735 C2719 0.961 . S
H2736 C2720 0.931 . S
H2737 C2725 0.930 . S
H2738 C2726 0.956 . S
H2739 C2726 0.961 . S
H2740 C2726 0.961 . S
H2741 C2727 0.958 . S
H2742 C2727 0.961 . S
H2743 C2727 0.960 . S
C2744 C2745 1.391 . S
C2744 C2746 1.394 . S
C2744 H2760 0.931 . S
C2745 C2744 1.391 . S
C2745 C2749 1.376 . S
C2746 C2744 1.394 . S
C2746 C2747 1.369 . S
C2746 C2750 1.531 . S
C2747 C2746 1.369 . S
C2747 C2748 1.410 . S
C2747 C2755 1.503 . S
C2748 C2747 1.410 . S
C2748 C2749 1.392 . S
C2748 C2751 1.511 . S
C2749 C2745 1.376 . S
C2749 C2748 1.392 . S
C2749 H2761 0.929 . S
C2750 C2746 1.531 . S
C2750 H2762 0.960 . S
C2750 H2763 0.962 . S
C2750 H2764 0.960 . S
C2751 C2748 1.511 . S
C2751 H2765 0.961 . S
C2751 H2766 0.961 . S
C2751 H2767 0.961 . S
C2752 C2753 1.370 . S
C2752 C2754 1.363 . S
C2752 H2768 0.931 . S
C2753 C2752 1.370 . S
C2753 C2757 1.408 . S
C2754 C2752 1.363 . S
C2754 C2755 1.370 . S
C2754 C2758 1.524 . S
C2755 C2747 1.503 . S
C2755 C2754 1.370 . S
C2755 C2756 1.403 . S
C2756 C2755 1.403 . S
C2756 C2757 1.404 . S
C2756 C2759 1.539 . S
C2757 C2753 1.408 . S
C2757 C2756 1.404 . S
C2757 H2769 0.930 . S
C2758 C2754 1.524 . S
C2758 H2770 0.956 . S
C2758 H2771 0.961 . S
C2758 H2772 0.961 . S
C2759 C2756 1.539 . S
C2759 H2773 0.958 . S
C2759 H2774 0.961 . S
C2759 H2775 0.960 . S
H2760 C2744 0.931 . S
H2761 C2749 0.929 . S
H2762 C2750 0.960 . S
H2763 C2750 0.962 . S
H2764 C2750 0.960 . S
H2765 C2751 0.961 . S
H2766 C2751 0.961 . S
H2767 C2751 0.961 . S
H2768 C2752 0.931 . S
H2769 C2757 0.930 . S
H2770 C2758 0.956 . S
H2771 C2758 0.961 . S
H2772 C2758 0.961 . S
H2773 C2759 0.958 . S
H2774 C2759 0.961 . S
H2775 C2759 0.960 . S
C2776 C2777 1.391 . S
C2776 C2778 1.394 . S
C2776 H2792 0.931 . S
C2777 C2776 1.391 . S
C2777 C2781 1.376 . S
C2778 C2776 1.394 . S
C2778 C2779 1.369 . S
C2778 C2782 1.531 . S
C2779 C2778 1.369 . S
C2779 C2780 1.400 1_554 S
C2779 C2787 1.503 1_554 S
C2780 C2779 1.400 1_556 S
C2780 C2781 1.365 1_556 S
C2780 C2783 1.548 . S
C2781 C2777 1.376 . S
C2781 C2780 1.365 1_554 S
C2781 H2793 0.929 . S
C2782 C2778 1.531 . S
C2782 H2794 0.960 . S
C2782 H2795 0.962 . S
C2782 H2796 0.960 . S
C2783 C2780 1.548 . S
C2783 H2797 0.961 . S
C2783 H2798 0.961 . S
C2783 H2799 0.961 . S
C2784 C2785 1.370 . S
C2784 C2786 1.363 . S
C2784 H2800 0.931 . S
C2785 C2784 1.370 . S
C2785 C2789 1.408 . S
C2786 C2784 1.363 . S
C2786 C2787 1.370 . S
C2786 C2790 1.524 . S
C2787 C2779 1.503 1_556 S
C2787 C2786 1.370 . S
C2787 C2788 1.403 . S
C2788 C2787 1.403 . S
C2788 C2789 1.404 . S
C2788 C2791 1.539 . S
C2789 C2785 1.408 . S
C2789 C2788 1.404 . S
C2789 H2801 0.930 . S
C2790 C2786 1.524 . S
C2790 H2802 0.956 . S
C2790 H2803 0.961 . S
C2790 H2804 0.961 . S
C2791 C2788 1.539 . S
C2791 H2805 0.958 1_556 S
C2791 H2806 0.961 . S
C2791 H2807 0.947 1_556 S
H2792 C2776 0.931 . S
H2793 C2781 0.929 . S
H2794 C2782 0.960 . S
H2795 C2782 0.962 . S
H2796 C2782 0.960 . S
H2797 C2783 0.961 . S
H2798 C2783 0.961 . S
H2799 C2783 0.961 . S
H2800 C2784 0.931 . S
H2801 C2789 0.930 . S
H2802 C2790 0.956 . S
H2803 C2790 0.961 . S
H2804 C2790 0.961 . S
H2805 C2791 0.958 1_554 S
H2806 C2791 0.961 . S
H2807 C2791 0.947 1_554 S
C2808 C2809 1.391 . S
C2808 C2810 1.394 . S
C2808 H2824 0.931 . S
C2809 C2808 1.391 . S
C2809 C2813 1.376 . S
C2810 C2808 1.394 . S
C2810 C2811 1.369 . S
C2810 C2814 1.531 . S
C2811 C2810 1.369 . S
C2811 C2812 1.410 . S
C2811 C2819 1.503 . S
C2812 C2811 1.410 . S
C2812 C2813 1.392 . S
C2812 C2815 1.511 . S
C2813 C2809 1.376 . S
C2813 C2812 1.392 . S
C2813 H2825 0.929 . S
C2814 C2810 1.531 . S
C2814 H2826 0.960 . S
C2814 H2827 0.962 . S
C2814 H2828 0.960 . S
C2815 C2812 1.511 . S
C2815 H2829 0.961 . S
C2815 H2830 0.961 . S
C2815 H2831 0.961 . S
C2816 C2817 1.370 . S
C2816 C2818 1.363 . S
C2816 H2832 0.931 . S
C2817 C2816 1.370 . S
C2817 C2821 1.408 . S
C2818 C2816 1.363 . S
C2818 C2819 1.370 . S
C2818 C2822 1.524 . S
C2819 C2811 1.503 . S
C2819 C2818 1.370 . S
C2819 C2820 1.403 . S
C2820 C2819 1.403 . S
C2820 C2821 1.404 . S
C2820 C2823 1.539 . S
C2821 C2817 1.408 . S
C2821 C2820 1.404 . S
C2821 H2833 0.930 . S
C2822 C2818 1.524 . S
C2822 H2834 0.956 . S
C2822 H2835 0.961 . S
C2822 H2836 0.961 . S
C2823 C2820 1.539 . S
C2823 H2837 0.958 . S
C2823 H2838 0.961 . S
C2823 H2839 0.960 . S
H2824 C2808 0.931 . S
H2825 C2813 0.929 . S
H2826 C2814 0.960 . S
H2827 C2814 0.962 . S
H2828 C2814 0.960 . S
H2829 C2815 0.961 . S
H2830 C2815 0.961 . S
H2831 C2815 0.961 . S
H2832 C2816 0.931 . S
H2833 C2821 0.930 . S
H2834 C2822 0.956 . S
H2835 C2822 0.961 . S
H2836 C2822 0.961 . S
H2837 C2823 0.958 . S
H2838 C2823 0.961 . S
H2839 C2823 0.960 . S
C2840 C2841 1.391 . S
C2840 C2842 1.394 . S
C2840 H2856 0.931 . S
C2841 C2840 1.391 . S
C2841 C2845 1.376 . S
C2842 C2840 1.394 . S
C2842 C2843 1.369 . S
C2842 C2846 1.531 . S
C2843 C2842 1.369 . S
C2843 C2844 1.410 . S
C2843 C2851 1.503 . S
C2844 C2843 1.410 . S
C2844 C2845 1.392 . S
C2844 C2847 1.511 . S
C2845 C2841 1.376 . S
C2845 C2844 1.392 . S
C2845 H2857 0.929 . S
C2846 C2842 1.531 . S
C2846 H2858 0.960 . S
C2846 H2859 0.962 . S
C2846 H2860 0.960 . S
C2847 C2844 1.511 . S
C2847 H2861 0.961 . S
C2847 H2862 0.961 . S
C2847 H2863 0.961 . S
C2848 C2849 1.370 . S
C2848 C2850 1.363 . S
C2848 H2864 0.931 . S
C2849 C2848 1.370 . S
C2849 C2853 1.408 . S
C2850 C2848 1.363 . S
C2850 C2851 1.370 . S
C2850 C2854 1.524 . S
C2851 C2843 1.503 . S
C2851 C2850 1.370 . S
C2851 C2852 1.403 . S
C2852 C2851 1.403 . S
C2852 C2853 1.404 . S
C2852 C2855 1.539 . S
C2853 C2849 1.408 . S
C2853 C2852 1.404 . S
C2853 H2865 0.930 . S
C2854 C2850 1.524 . S
C2854 H2866 0.956 . S
C2854 H2867 0.961 . S
C2854 H2868 0.961 . S
C2855 C2852 1.539 . S
C2855 H2869 0.958 . S
C2855 H2870 0.961 . S
C2855 H2871 0.960 . S
H2856 C2840 0.931 . S
H2857 C2845 0.929 . S
H2858 C2846 0.960 . S
H2859 C2846 0.962 . S
H2860 C2846 0.960 . S
H2861 C2847 0.961 . S
H2862 C2847 0.961 . S
H2863 C2847 0.961 . S
H2864 C2848 0.931 . S
H2865 C2853 0.930 . S
H2866 C2854 0.956 . S
H2867 C2854 0.961 . S
H2868 C2854 0.961 . S
H2869 C2855 0.958 . S
H2870 C2855 0.961 . S
H2871 C2855 0.960 . S
C2872 C2873 1.391 . S
C2872 C2874 1.394 . S
C2872 H2888 0.931 . S
C2873 C2872 1.391 . S
C2873 C2877 1.376 . S
C2874 C2872 1.394 . S
C2874 C2875 1.369 . S
C2874 C2878 1.531 . S
C2875 C2874 1.369 . S
C2875 C2876 1.410 . S
C2875 C2883 1.503 . S
C2876 C2875 1.410 . S
C2876 C2877 1.392 . S
C2876 C2879 1.511 . S
C2877 C2873 1.376 . S
C2877 C2876 1.392 . S
C2877 H2889 0.929 . S
C2878 C2874 1.531 . S
C2878 H2890 0.960 . S
C2878 H2891 0.962 . S
C2878 H2892 0.960 . S
C2879 C2876 1.511 . S
C2879 H2893 0.961 . S
C2879 H2894 0.961 . S
C2879 H2895 0.961 . S
C2880 C2881 1.370 . S
C2880 C2882 1.363 . S
C2880 H2896 0.931 . S
C2881 C2880 1.370 . S
C2881 C2885 1.408 . S
C2882 C2880 1.363 . S
C2882 C2883 1.370 . S
C2882 C2886 1.524 . S
C2883 C2875 1.503 . S
C2883 C2882 1.370 . S
C2883 C2884 1.403 . S
C2884 C2883 1.403 . S
C2884 C2885 1.404 . S
C2884 C2887 1.539 . S
C2885 C2881 1.408 . S
C2885 C2884 1.404 . S
C2885 H2897 0.930 . S
C2886 C2882 1.524 . S
C2886 H2898 0.956 . S
C2886 H2899 0.961 . S
C2886 H2900 0.961 . S
C2887 C2884 1.539 . S
C2887 H2901 0.958 . S
C2887 H2902 0.961 . S
C2887 H2903 0.960 . S
H2888 C2872 0.931 . S
H2889 C2877 0.929 . S
H2890 C2878 0.960 . S
H2891 C2878 0.962 . S
H2892 C2878 0.960 . S
H2893 C2879 0.961 . S
H2894 C2879 0.961 . S
H2895 C2879 0.961 . S
H2896 C2880 0.931 . S
H2897 C2885 0.930 . S
H2898 C2886 0.956 . S
H2899 C2886 0.961 . S
H2900 C2886 0.961 . S
H2901 C2887 0.958 . S
H2902 C2887 0.961 . S
H2903 C2887 0.960 . S
C2904 C2905 1.391 . S
C2904 C2906 1.394 . S
C2904 H2920 0.931 . S
C2905 C2904 1.391 . S
C2905 C2909 1.376 . S
C2906 C2904 1.394 . S
C2906 C2907 1.369 . S
C2906 C2910 1.531 . S
C2907 C2906 1.369 . S
C2907 C2908 1.410 . S
C2907 C2915 1.503 . S
C2908 C2907 1.410 . S
C2908 C2909 1.392 . S
C2908 C2911 1.511 . S
C2909 C2905 1.376 . S
C2909 C2908 1.392 . S
C2909 H2921 0.929 . S
C2910 C2906 1.531 . S
C2910 H2922 0.960 . S
C2910 H2923 0.962 . S
C2910 H2924 0.960 . S
C2911 C2908 1.511 . S
C2911 H2925 0.961 . S
C2911 H2926 0.961 . S
C2911 H2927 0.961 . S
C2912 C2913 1.370 . S
C2912 C2914 1.363 . S
C2912 H2928 0.931 . S
C2913 C2912 1.370 . S
C2913 C2917 1.408 . S
C2914 C2912 1.363 . S
C2914 C2915 1.370 . S
C2914 C2918 1.524 . S
C2915 C2907 1.503 . S
C2915 C2914 1.370 . S
C2915 C2916 1.403 . S
C2916 C2915 1.403 . S
C2916 C2917 1.404 . S
C2916 C2919 1.539 . S
C2917 C2913 1.408 . S
C2917 C2916 1.404 . S
C2917 H2929 0.930 . S
C2918 C2914 1.524 . S
C2918 H2930 0.956 . S
C2918 H2931 0.961 . S
C2918 H2932 0.961 . S
C2919 C2916 1.539 . S
C2919 H2933 0.958 . S
C2919 H2934 0.961 . S
C2919 H2935 0.960 . S
H2920 C2904 0.931 . S
H2921 C2909 0.929 . S
H2922 C2910 0.960 . S
H2923 C2910 0.962 . S
H2924 C2910 0.960 . S
H2925 C2911 0.961 . S
H2926 C2911 0.961 . S
H2927 C2911 0.961 . S
H2928 C2912 0.931 . S
H2929 C2917 0.930 . S
H2930 C2918 0.956 . S
H2931 C2918 0.961 . S
H2932 C2918 0.961 . S
H2933 C2919 0.958 . S
H2934 C2919 0.961 . S
H2935 C2919 0.960 . S
C2936 C2937 1.391 . S
C2936 C2938 1.394 . S
C2936 H2952 0.931 . S
C2937 C2936 1.391 . S
C2937 C2941 1.376 . S
C2938 C2936 1.394 . S
C2938 C2939 1.369 . S
C2938 C2942 1.531 . S
C2939 C2938 1.369 . S
C2939 C2940 1.410 . S
C2939 C2947 1.503 . S
C2940 C2939 1.410 . S
C2940 C2941 1.392 . S
C2940 C2943 1.511 . S
C2941 C2937 1.376 . S
C2941 C2940 1.392 . S
C2941 H2953 0.929 . S
C2942 C2938 1.531 . S
C2942 H2954 0.960 . S
C2942 H2955 0.962 . S
C2942 H2956 0.960 . S
C2943 C2940 1.511 . S
C2943 H2957 0.961 . S
C2943 H2958 0.961 . S
C2943 H2959 0.961 . S
C2944 C2945 1.370 . S
C2944 C2946 1.363 . S
C2944 H2960 0.931 . S
C2945 C2944 1.370 . S
C2945 C2949 1.408 . S
C2946 C2944 1.363 . S
C2946 C2947 1.370 . S
C2946 C2950 1.524 . S
C2947 C2939 1.503 . S
C2947 C2946 1.370 . S
C2947 C2948 1.403 . S
C2948 C2947 1.403 . S
C2948 C2949 1.404 . S
C2948 C2951 1.539 . S
C2949 C2945 1.408 . S
C2949 C2948 1.404 . S
C2949 H2961 0.930 . S
C2950 C2946 1.524 . S
C2950 H2962 0.956 . S
C2950 H2963 0.961 . S
C2950 H2964 0.961 . S
C2951 C2948 1.539 . S
C2951 H2965 0.958 . S
C2951 H2966 0.961 . S
C2951 H2967 0.960 . S
H2952 C2936 0.931 . S
H2953 C2941 0.929 . S
H2954 C2942 0.960 . S
H2955 C2942 0.962 . S
H2956 C2942 0.960 . S
H2957 C2943 0.961 . S
H2958 C2943 0.961 . S
H2959 C2943 0.961 . S
H2960 C2944 0.931 . S
H2961 C2949 0.930 . S
H2962 C2950 0.956 . S
H2963 C2950 0.961 . S
H2964 C2950 0.961 . S
H2965 C2951 0.958 . S
H2966 C2951 0.961 . S
H2967 C2951 0.960 . S
C2968 C2969 1.391 . S
C2968 C2970 1.394 . S
C2968 H2984 0.931 . S
C2969 C2968 1.391 . S
C2969 C2973 1.376 . S
C2970 C2968 1.394 . S
C2970 C2971 1.369 . S
C2970 C2974 1.531 . S
C2971 C2970 1.369 . S
C2971 C2972 1.410 . S
C2971 C2979 1.503 . S
C2972 C2971 1.410 . S
C2972 C2973 1.392 . S
C2972 C2975 1.511 . S
C2973 C2969 1.376 . S
C2973 C2972 1.392 . S
C2973 H2985 0.929 . S
C2974 C2970 1.531 . S
C2974 H2986 0.960 . S
C2974 H2987 0.962 . S
C2974 H2988 0.960 . S
C2975 C2972 1.511 . S
C2975 H2989 0.961 . S
C2975 H2990 0.961 . S
C2975 H2991 0.961 . S
C2976 C2977 1.370 . S
C2976 C2978 1.363 . S
C2976 H2992 0.931 . S
C2977 C2976 1.370 . S
C2977 C2981 1.408 . S
C2978 C2976 1.363 . S
C2978 C2979 1.370 . S
C2978 C2982 1.524 . S
C2979 C2971 1.503 . S
C2979 C2978 1.370 . S
C2979 C2980 1.403 . S
C2980 C2979 1.403 . S
C2980 C2981 1.404 . S
C2980 C2983 1.539 . S
C2981 C2977 1.408 . S
C2981 C2980 1.404 . S
C2981 H2993 0.930 . S
C2982 C2978 1.524 . S
C2982 H2994 0.956 . S
C2982 H2995 0.961 . S
C2982 H2996 0.961 . S
C2983 C2980 1.539 . S
C2983 H2997 0.958 . S
C2983 H2998 0.961 . S
C2983 H2999 0.960 . S
H2984 C2968 0.931 . S
H2985 C2973 0.929 . S
H2986 C2974 0.960 . S
H2987 C2974 0.962 . S
H2988 C2974 0.960 . S
H2989 C2975 0.961 . S
H2990 C2975 0.961 . S
H2991 C2975 0.961 . S
H2992 C2976 0.931 . S
H2993 C2981 0.930 . S
H2994 C2982 0.956 . S
H2995 C2982 0.961 . S
H2996 C2982 0.961 . S
H2997 C2983 0.958 . S
H2998 C2983 0.961 . S
H2999 C2983 0.960 . S
C3000 C3001 1.391 . S
C3000 C3002 1.394 . S
C3000 H3016 0.931 . S
C3001 C3000 1.391 . S
C3001 C3005 1.376 . S
C3002 C3000 1.394 . S
C3002 C3003 1.369 . S
C3002 C3006 1.531 . S
C3003 C3002 1.369 . S
C3003 C3004 1.410 . S
C3003 C3011 1.503 . S
C3004 C3003 1.410 . S
C3004 C3005 1.392 . S
C3004 C3007 1.511 . S
C3005 C3001 1.376 . S
C3005 C3004 1.392 . S
C3005 H3017 0.929 . S
C3006 C3002 1.531 . S
C3006 H3018 0.960 . S
C3006 H3019 0.962 . S
C3006 H3020 0.960 . S
C3007 C3004 1.511 . S
C3007 H3021 0.961 . S
C3007 H3022 0.961 . S
C3007 H3023 0.961 . S
C3008 C3009 1.370 . S
C3008 C3010 1.363 . S
C3008 H3024 0.931 . S
C3009 C3008 1.370 . S
C3009 C3013 1.408 . S
C3010 C3008 1.363 . S
C3010 C3011 1.370 . S
C3010 C3014 1.524 . S
C3011 C3003 1.503 . S
C3011 C3010 1.370 . S
C3011 C3012 1.403 . S
C3012 C3011 1.403 . S
C3012 C3013 1.404 . S
C3012 C3015 1.539 . S
C3013 C3009 1.408 . S
C3013 C3012 1.404 . S
C3013 H3025 0.930 . S
C3014 C3010 1.524 . S
C3014 H3026 0.956 . S
C3014 H3027 0.961 . S
C3014 H3028 0.961 . S
C3015 C3012 1.539 . S
C3015 H3029 0.958 . S
C3015 H3030 0.961 . S
C3015 H3031 0.960 . S
H3016 C3000 0.931 . S
H3017 C3005 0.929 . S
H3018 C3006 0.960 . S
H3019 C3006 0.962 . S
H3020 C3006 0.960 . S
H3021 C3007 0.961 . S
H3022 C3007 0.961 . S
H3023 C3007 0.961 . S
H3024 C3008 0.931 . S
H3025 C3013 0.930 . S
H3026 C3014 0.956 . S
H3027 C3014 0.961 . S
H3028 C3014 0.961 . S
H3029 C3015 0.958 . S
H3030 C3015 0.961 . S
H3031 C3015 0.960 . S
C3032 C3033 1.391 . S
C3032 C3034 1.394 . S
C3032 H3048 0.931 . S
C3033 C3032 1.391 . S
C3033 C3037 1.376 . S
C3034 C3032 1.394 . S
C3034 C3035 1.369 . S
C3034 C3038 1.531 . S
C3035 C3034 1.369 . S
C3035 C3036 1.410 . S
C3035 C3043 1.503 . S
C3036 C3035 1.410 . S
C3036 C3037 1.392 . S
C3036 C3039 1.511 . S
C3037 C3033 1.376 . S
C3037 C3036 1.392 . S
C3037 H3049 0.929 . S
C3038 C3034 1.531 . S
C3038 H3050 0.960 . S
C3038 H3051 0.962 . S
C3038 H3052 0.960 . S
C3039 C3036 1.511 . S
C3039 H3053 0.961 . S
C3039 H3054 0.961 . S
C3039 H3055 0.961 . S
C3040 C3041 1.370 . S
C3040 C3042 1.363 . S
C3040 H3056 0.931 . S
C3041 C3040 1.370 . S
C3041 C3045 1.408 . S
C3042 C3040 1.363 . S
C3042 C3043 1.370 . S
C3042 C3046 1.524 . S
C3043 C3035 1.503 . S
C3043 C3042 1.370 . S
C3043 C3044 1.403 . S
C3044 C3043 1.403 . S
C3044 C3045 1.404 . S
C3044 C3047 1.539 . S
C3045 C3041 1.408 . S
C3045 C3044 1.404 . S
C3045 H3057 0.930 . S
C3046 C3042 1.524 . S
C3046 H3058 0.956 . S
C3046 H3059 0.961 . S
C3046 H3060 0.961 . S
C3047 C3044 1.539 . S
C3047 H3061 0.958 . S
C3047 H3062 0.961 . S
C3047 H3063 0.960 . S
H3048 C3032 0.931 . S
H3049 C3037 0.929 . S
H3050 C3038 0.960 . S
H3051 C3038 0.962 . S
H3052 C3038 0.960 . S
H3053 C3039 0.961 . S
H3054 C3039 0.961 . S
H3055 C3039 0.961 . S
H3056 C3040 0.931 . S
H3057 C3045 0.930 . S
H3058 C3046 0.956 . S
H3059 C3046 0.961 . S
H3060 C3046 0.961 . S
H3061 C3047 0.958 . S
H3062 C3047 0.961 . S
H3063 C3047 0.960 . S
C3064 C3065 1.391 . S
C3064 C3066 1.394 . S
C3064 H3080 0.931 . S
C3065 C3064 1.391 . S
C3065 C3069 1.376 . S
C3066 C3064 1.394 . S
C3066 C3067 1.369 . S
C3066 C3070 1.531 . S
C3067 C3066 1.369 . S
C3067 C3068 1.410 . S
C3067 C3075 1.503 . S
C3068 C3067 1.410 . S
C3068 C3069 1.392 . S
C3068 C3071 1.511 . S
C3069 C3065 1.376 . S
C3069 C3068 1.392 . S
C3069 H3081 0.929 1_565 S
C3070 C3066 1.531 . S
C3070 H3082 0.960 . S
C3070 H3083 0.962 . S
C3070 H3084 0.960 . S
C3071 C3068 1.511 . S
C3071 H3085 0.961 . S
C3071 H3086 0.961 . S
C3071 H3087 0.961 . S
C3072 C3073 1.370 . S
C3072 C3074 1.363 . S
C3072 H3088 0.931 . S
C3073 C3072 1.370 . S
C3073 C3077 1.408 . S
C3074 C3072 1.363 . S
C3074 C3075 1.370 . S
C3074 C3078 1.524 . S
C3075 C3067 1.503 . S
C3075 C3074 1.370 . S
C3075 C3076 1.403 . S
C3076 C3075 1.403 . S
C3076 C3077 1.404 . S
C3076 C3079 1.539 . S
C3077 C3073 1.408 . S
C3077 C3076 1.404 . S
C3077 H3089 0.930 . S
C3078 C3074 1.524 . S
C3078 H3090 0.956 . S
C3078 H3091 0.961 . S
C3078 H3092 0.961 . S
C3079 C3076 1.539 . S
C3079 H3093 0.958 . S
C3079 H3094 0.961 . S
C3079 H3095 0.960 . S
H3080 C3064 0.931 . S
H3081 C3069 0.929 1_545 S
H3082 C3070 0.960 . S
H3083 C3070 0.962 . S
H3084 C3070 0.960 . S
H3085 C3071 0.961 . S
H3086 C3071 0.961 . S
H3087 C3071 0.961 . S
H3088 C3072 0.931 . S
H3089 C3077 0.930 . S
H3090 C3078 0.956 . S
H3091 C3078 0.961 . S
H3092 C3078 0.961 . S
H3093 C3079 0.958 . S
H3094 C3079 0.961 . S
H3095 C3079 0.960 . S
C3096 C3097 1.398 . S
C3096 C3098 1.394 . S
C3096 H3112 0.931 . S
C3097 C3096 1.398 . S
C3097 C3101 1.367 1_554 S
C3098 C3096 1.394 . S
C3098 C3099 1.369 . S
C3098 C3102 1.531 . S
C3099 C3098 1.369 . S
C3099 C3100 1.410 1_554 S
C3099 C3107 1.503 . S
C3100 C3099 1.410 1_556 S
C3100 C3101 1.392 . S
C3100 C3103 1.511 . S
C3101 C3097 1.367 1_556 S
C3101 C3100 1.392 . S
C3101 H3113 0.929 . S
C3102 C3098 1.531 . S
C3102 H3114 0.960 . S
C3102 H3115 0.962 . S
C3102 H3116 0.960 . S
C3103 C3100 1.511 . S
C3103 H3117 0.961 . S
C3103 H3118 0.961 . S
C3103 H3119 0.961 . S
C3104 C3105 1.370 . S
C3104 C3106 1.363 . S
C3104 H3120 0.931 . S
C3105 C3104 1.370 . S
C3105 C3109 1.410 . S
C3106 C3104 1.363 . S
C3106 C3107 1.370 . S
C3106 C3110 1.524 . S
C3107 C3099 1.503 . S
C3107 C3106 1.370 . S
C3107 C3108 1.386 1_554 S
C3108 C3107 1.386 1_556 S
C3108 C3109 1.415 1_556 S
C3108 C3111 1.553 . S
C3109 C3105 1.410 . S
C3109 C3108 1.415 1_554 S
C3109 H3121 0.926 1_554 S
C3110 C3106 1.524 . S
C3110 H3122 0.956 . S
C3110 H3123 0.961 . S
C3110 H3124 0.961 . S
C3111 C3108 1.553 . S
C3111 H3125 0.958 1_556 S
C3111 H3126 0.961 . S
C3111 H3127 0.960 . S
H3112 C3096 0.931 . S
H3113 C3101 0.929 . S
H3114 C3102 0.960 . S
H3115 C3102 0.962 . S
H3116 C3102 0.960 . S
H3117 C3103 0.961 . S
H3118 C3103 0.961 . S
H3119 C3103 0.961 . S
H3120 C3104 0.931 . S
H3121 C3109 0.926 1_556 S
H3122 C3110 0.956 . S
H3123 C3110 0.961 . S
H3124 C3110 0.961 . S
H3125 C3111 0.958 1_554 S
H3126 C3111 0.961 . S
H3127 C3111 0.960 . S
C3128 C3129 1.391 . S
C3128 C3130 1.394 . S
C3128 H3144 0.931 . S
C3129 C3128 1.391 . S
C3129 C3133 1.376 . S
C3130 C3128 1.394 . S
C3130 C3131 1.369 . S
C3130 C3134 1.531 . S
C3131 C3130 1.369 . S
C3131 C3132 1.410 . S
C3131 C3139 1.503 . S
C3132 C3131 1.410 . S
C3132 C3133 1.392 . S
C3132 C3135 1.511 . S
C3133 C3129 1.376 . S
C3133 C3132 1.392 . S
C3133 H3145 0.929 . S
C3134 C3130 1.531 . S
C3134 H3146 0.960 . S
C3134 H3147 0.962 . S
C3134 H3148 0.960 . S
C3135 C3132 1.511 . S
C3135 H3149 0.961 . S
C3135 H3150 0.961 . S
C3135 H3151 0.961 . S
C3136 C3137 1.370 . S
C3136 C3138 1.363 . S
C3136 H3152 0.931 . S
C3137 C3136 1.370 . S
C3137 C3141 1.408 . S
C3138 C3136 1.363 . S
C3138 C3139 1.370 . S
C3138 C3142 1.524 . S
C3139 C3131 1.503 . S
C3139 C3138 1.370 . S
C3139 C3140 1.403 . S
C3140 C3139 1.403 . S
C3140 C3141 1.404 . S
C3140 C3143 1.539 . S
C3141 C3137 1.408 . S
C3141 C3140 1.404 . S
C3141 H3153 0.930 . S
C3142 C3138 1.524 . S
C3142 H3154 0.956 . S
C3142 H3155 0.961 . S
C3142 H3156 0.961 . S
C3143 C3140 1.539 . S
C3143 H3157 0.958 . S
C3143 H3158 0.961 . S
C3143 H3159 0.960 . S
H3144 C3128 0.931 . S
H3145 C3133 0.929 . S
H3146 C3134 0.960 . S
H3147 C3134 0.962 . S
H3148 C3134 0.960 . S
H3149 C3135 0.961 . S
H3150 C3135 0.961 . S
H3151 C3135 0.961 . S
H3152 C3136 0.931 . S
H3153 C3141 0.930 . S
H3154 C3142 0.956 . S
H3155 C3142 0.961 . S
H3156 C3142 0.961 . S
H3157 C3143 0.958 . S
H3158 C3143 0.961 . S
H3159 C3143 0.960 . S
C3160 C3161 1.391 . S
C3160 C3162 1.394 . S
C3160 H3176 0.931 . S
C3161 C3160 1.391 . S
C3161 C3165 1.376 . S
C3162 C3160 1.394 . S
C3162 C3163 1.369 . S
C3162 C3166 1.531 . S
C3163 C3162 1.369 . S
C3163 C3164 1.410 . S
C3163 C3171 1.503 . S
C3164 C3163 1.410 . S
C3164 C3165 1.392 . S
C3164 C3167 1.511 . S
C3165 C3161 1.376 . S
C3165 C3164 1.392 . S
C3165 H3177 0.929 . S
C3166 C3162 1.531 . S
C3166 H3178 0.960 . S
C3166 H3179 0.962 . S
C3166 H3180 0.960 . S
C3167 C3164 1.511 . S
C3167 H3181 0.961 . S
C3167 H3182 0.961 . S
C3167 H3183 0.961 . S
C3168 C3169 1.370 . S
C3168 C3170 1.363 . S
C3168 H3184 0.931 . S
C3169 C3168 1.370 . S
C3169 C3173 1.408 . S
C3170 C3168 1.363 . S
C3170 C3171 1.370 . S
C3170 C3174 1.524 . S
C3171 C3163 1.503 . S
C3171 C3170 1.370 . S
C3171 C3172 1.403 . S
C3172 C3171 1.403 . S
C3172 C3173 1.404 . S
C3172 C3175 1.539 . S
C3173 C3169 1.408 . S
C3173 C3172 1.404 . S
C3173 H3185 0.930 . S
C3174 C3170 1.524 . S
C3174 H3186 0.956 . S
C3174 H3187 0.961 . S
C3174 H3188 0.961 . S
C3175 C3172 1.539 . S
C3175 H3189 0.958 . S
C3175 H3190 0.961 . S
C3175 H3191 0.960 . S
H3176 C3160 0.931 . S
H3177 C3165 0.929 . S
H3178 C3166 0.960 . S
H3179 C3166 0.962 . S
H3180 C3166 0.960 . S
H3181 C3167 0.961 . S
H3182 C3167 0.961 . S
H3183 C3167 0.961 . S
H3184 C3168 0.931 . S
H3185 C3173 0.930 . S
H3186 C3174 0.956 . S
H3187 C3174 0.961 . S
H3188 C3174 0.961 . S
H3189 C3175 0.958 . S
H3190 C3175 0.961 . S
H3191 C3175 0.960 . S
C3192 C3193 1.391 . S
C3192 C3194 1.394 . S
C3192 H3208 0.931 . S
C3193 C3192 1.391 . S
C3193 C3197 1.376 . S
C3194 C3192 1.394 . S
C3194 C3195 1.369 . S
C3194 C3198 1.531 . S
C3195 C3194 1.369 . S
C3195 C3196 1.410 . S
C3195 C3203 1.503 . S
C3196 C3195 1.410 . S
C3196 C3197 1.392 . S
C3196 C3199 1.511 . S
C3197 C3193 1.376 . S
C3197 C3196 1.392 . S
C3197 H3209 0.929 . S
C3198 C3194 1.531 . S
C3198 H3210 0.960 . S
C3198 H3211 0.962 . S
C3198 H3212 0.960 . S
C3199 C3196 1.511 . S
C3199 H3213 0.961 . S
C3199 H3214 0.961 . S
C3199 H3215 0.961 . S
C3200 C3201 1.370 . S
C3200 C3202 1.363 . S
C3200 H3216 0.931 . S
C3201 C3200 1.370 . S
C3201 C3205 1.408 . S
C3202 C3200 1.363 . S
C3202 C3203 1.370 . S
C3202 C3206 1.524 . S
C3203 C3195 1.503 . S
C3203 C3202 1.370 . S
C3203 C3204 1.403 . S
C3204 C3203 1.403 . S
C3204 C3205 1.404 . S
C3204 C3207 1.539 . S
C3205 C3201 1.408 . S
C3205 C3204 1.404 . S
C3205 H3217 0.930 . S
C3206 C3202 1.524 . S
C3206 H3218 0.956 . S
C3206 H3219 0.961 . S
C3206 H3220 0.961 . S
C3207 C3204 1.539 . S
C3207 H3221 0.958 . S
C3207 H3222 0.961 . S
C3207 H3223 0.960 . S
H3208 C3192 0.931 . S
H3209 C3197 0.929 . S
H3210 C3198 0.960 . S
H3211 C3198 0.962 . S
H3212 C3198 0.960 . S
H3213 C3199 0.961 . S
H3214 C3199 0.961 . S
H3215 C3199 0.961 . S
H3216 C3200 0.931 . S
H3217 C3205 0.930 . S
H3218 C3206 0.956 . S
H3219 C3206 0.961 . S
H3220 C3206 0.961 . S
H3221 C3207 0.958 . S
H3222 C3207 0.961 . S
H3223 C3207 0.960 . S
C3224 C3225 1.391 . S
C3224 C3226 1.394 . S
C3224 H3240 0.931 . S
C3225 C3224 1.391 . S
C3225 C3229 1.376 . S
C3226 C3224 1.394 . S
C3226 C3227 1.369 . S
C3226 C3230 1.531 . S
C3227 C3226 1.369 . S
C3227 C3228 1.410 . S
C3227 C3235 1.503 . S
C3228 C3227 1.410 . S
C3228 C3229 1.392 . S
C3228 C3231 1.511 . S
C3229 C3225 1.376 . S
C3229 C3228 1.392 . S
C3229 H3241 0.929 . S
C3230 C3226 1.531 . S
C3230 H3242 0.960 . S
C3230 H3243 0.962 . S
C3230 H3244 0.960 . S
C3231 C3228 1.511 . S
C3231 H3245 0.961 . S
C3231 H3246 0.961 . S
C3231 H3247 0.961 . S
C3232 C3233 1.370 . S
C3232 C3234 1.363 . S
C3232 H3248 0.931 . S
C3233 C3232 1.370 . S
C3233 C3237 1.408 . S
C3234 C3232 1.363 . S
C3234 C3235 1.370 . S
C3234 C3238 1.524 . S
C3235 C3227 1.503 . S
C3235 C3234 1.370 . S
C3235 C3236 1.403 . S
C3236 C3235 1.403 . S
C3236 C3237 1.404 . S
C3236 C3239 1.539 . S
C3237 C3233 1.408 . S
C3237 C3236 1.404 . S
C3237 H3249 0.930 . S
C3238 C3234 1.524 . S
C3238 H3250 0.956 . S
C3238 H3251 0.961 . S
C3238 H3252 0.961 . S
C3239 C3236 1.539 . S
C3239 H3253 0.958 . S
C3239 H3254 0.961 . S
C3239 H3255 0.960 . S
H3240 C3224 0.931 . S
H3241 C3229 0.929 . S
H3242 C3230 0.960 . S
H3243 C3230 0.962 . S
H3244 C3230 0.960 . S
H3245 C3231 0.961 . S
H3246 C3231 0.961 . S
H3247 C3231 0.961 . S
H3248 C3232 0.931 . S
H3249 C3237 0.930 . S
H3250 C3238 0.956 . S
H3251 C3238 0.961 . S
H3252 C3238 0.961 . S
H3253 C3239 0.958 . S
H3254 C3239 0.961 . S
H3255 C3239 0.960 . S
C3256 C3257 1.391 . S
C3256 C3258 1.394 . S
C3256 H3272 0.931 . S
C3257 C3256 1.391 . S
C3257 C3261 1.376 . S
C3258 C3256 1.394 . S
C3258 C3259 1.369 . S
C3258 C3262 1.531 . S
C3259 C3258 1.369 . S
C3259 C3260 1.410 . S
C3259 C3267 1.503 . S
C3260 C3259 1.410 . S
C3260 C3261 1.392 . S
C3260 C3263 1.511 . S
C3261 C3257 1.376 . S
C3261 C3260 1.392 . S
C3261 H3273 0.929 . S
C3262 C3258 1.531 . S
C3262 H3274 0.960 . S
C3262 H3275 0.962 . S
C3262 H3276 0.960 . S
C3263 C3260 1.511 . S
C3263 H3277 0.961 . S
C3263 H3278 0.961 . S
C3263 H3279 0.961 . S
C3264 C3265 1.370 . S
C3264 C3266 1.363 . S
C3264 H3280 0.931 . S
C3265 C3264 1.370 . S
C3265 C3269 1.408 . S
C3266 C3264 1.363 . S
C3266 C3267 1.370 . S
C3266 C3270 1.524 . S
C3267 C3259 1.503 . S
C3267 C3266 1.370 . S
C3267 C3268 1.403 . S
C3268 C3267 1.403 . S
C3268 C3269 1.404 . S
C3268 C3271 1.539 . S
C3269 C3265 1.408 . S
C3269 C3268 1.404 . S
C3269 H3281 0.930 . S
C3270 C3266 1.524 . S
C3270 H3282 0.956 . S
C3270 H3283 0.961 . S
C3270 H3284 0.961 . S
C3271 C3268 1.539 . S
C3271 H3285 0.958 . S
C3271 H3286 0.961 . S
C3271 H3287 0.960 . S
H3272 C3256 0.931 . S
H3273 C3261 0.929 . S
H3274 C3262 0.960 . S
H3275 C3262 0.962 . S
H3276 C3262 0.960 . S
H3277 C3263 0.961 . S
H3278 C3263 0.961 . S
H3279 C3263 0.961 . S
H3280 C3264 0.931 . S
H3281 C3269 0.930 . S
H3282 C3270 0.956 . S
H3283 C3270 0.961 . S
H3284 C3270 0.961 . S
H3285 C3271 0.958 . S
H3286 C3271 0.961 . S
H3287 C3271 0.960 . S
C3288 C3289 1.391 . S
C3288 C3290 1.394 . S
C3288 H3304 0.931 . S
C3289 C3288 1.391 . S
C3289 C3293 1.376 . S
C3290 C3288 1.394 . S
C3290 C3291 1.369 . S
C3290 C3294 1.531 . S
C3291 C3290 1.369 . S
C3291 C3292 1.410 . S
C3291 C3299 1.503 . S
C3292 C3291 1.410 . S
C3292 C3293 1.392 . S
C3292 C3295 1.511 . S
C3293 C3289 1.376 . S
C3293 C3292 1.392 . S
C3293 H3305 0.929 . S
C3294 C3290 1.531 . S
C3294 H3306 0.960 . S
C3294 H3307 0.962 . S
C3294 H3308 0.960 . S
C3295 C3292 1.511 . S
C3295 H3309 0.961 . S
C3295 H3310 0.961 . S
C3295 H3311 0.961 . S
C3296 C3297 1.370 . S
C3296 C3298 1.363 . S
C3296 H3312 0.931 . S
C3297 C3296 1.370 . S
C3297 C3301 1.408 . S
C3298 C3296 1.363 . S
C3298 C3299 1.370 . S
C3298 C3302 1.524 . S
C3299 C3291 1.503 . S
C3299 C3298 1.370 . S
C3299 C3300 1.403 . S
C3300 C3299 1.403 . S
C3300 C3301 1.404 . S
C3300 C3303 1.539 . S
C3301 C3297 1.408 . S
C3301 C3300 1.404 . S
C3301 H3313 0.930 . S
C3302 C3298 1.524 . S
C3302 H3314 0.956 . S
C3302 H3315 0.961 . S
C3302 H3316 0.961 . S
C3303 C3300 1.539 . S
C3303 H3317 0.958 . S
C3303 H3318 0.961 . S
C3303 H3319 0.960 . S
H3304 C3288 0.931 . S
H3305 C3293 0.929 . S
H3306 C3294 0.960 . S
H3307 C3294 0.962 . S
H3308 C3294 0.960 . S
H3309 C3295 0.961 . S
H3310 C3295 0.961 . S
H3311 C3295 0.961 . S
H3312 C3296 0.931 . S
H3313 C3301 0.930 . S
H3314 C3302 0.956 . S
H3315 C3302 0.961 . S
H3316 C3302 0.961 . S
H3317 C3303 0.958 . S
H3318 C3303 0.961 . S
H3319 C3303 0.960 . S
C3320 C3321 1.391 . S
C3320 C3322 1.394 . S
C3320 H3336 0.931 . S
C3321 C3320 1.391 . S
C3321 C3325 1.376 . S
C3322 C3320 1.394 . S
C3322 C3323 1.369 . S
C3322 C3326 1.531 . S
C3323 C3322 1.369 . S
C3323 C3324 1.410 . S
C3323 C3331 1.503 . S
C3324 C3323 1.410 . S
C3324 C3325 1.392 . S
C3324 C3327 1.511 . S
C3325 C3321 1.376 . S
C3325 C3324 1.392 . S
C3325 H3337 0.929 . S
C3326 C3322 1.531 . S
C3326 H3338 0.960 . S
C3326 H3339 0.962 . S
C3326 H3340 0.960 . S
C3327 C3324 1.511 . S
C3327 H3341 0.958 . S
C3327 H3342 0.961 . S
C3327 H3343 0.961 1_455 S
C3328 C3329 1.370 . S
C3328 C3330 1.363 . S
C3328 H3344 0.931 . S
C3329 C3328 1.370 . S
C3329 C3333 1.408 . S
C3330 C3328 1.363 . S
C3330 C3331 1.370 . S
C3330 C3334 1.524 . S
C3331 C3323 1.503 . S
C3331 C3330 1.370 . S
C3331 C3332 1.403 . S
C3332 C3331 1.403 . S
C3332 C3333 1.404 . S
C3332 C3335 1.539 . S
C3333 C3329 1.408 . S
C3333 C3332 1.404 . S
C3333 H3345 0.930 . S
C3334 C3330 1.524 . S
C3334 H3346 0.956 . S
C3334 H3347 0.961 . S
C3334 H3348 0.961 . S
C3335 C3332 1.539 . S
C3335 H3349 0.958 . S
C3335 H3350 0.961 . S
C3335 H3351 0.960 . S
H3336 C3320 0.931 . S
H3337 C3325 0.929 . S
H3338 C3326 0.960 . S
H3339 C3326 0.962 . S
H3340 C3326 0.960 . S
H3341 C3327 0.958 . S
H3342 C3327 0.961 . S
H3343 C3327 0.961 1_655 S
H3344 C3328 0.931 . S
H3345 C3333 0.930 . S
H3346 C3334 0.956 . S
H3347 C3334 0.961 . S
H3348 C3334 0.961 . S
H3349 C3335 0.958 . S
H3350 C3335 0.961 . S
H3351 C3335 0.960 . S
C3352 C3353 1.391 . S
C3352 C3354 1.394 . S
C3352 H3368 0.931 . S
C3353 C3352 1.391 . S
C3353 C3357 1.376 . S
C3354 C3352 1.394 . S
C3354 C3355 1.369 . S
C3354 C3358 1.531 . S
C3355 C3354 1.369 . S
C3355 C3356 1.410 . S
C3355 C3363 1.503 . S
C3356 C3355 1.410 . S
C3356 C3357 1.392 . S
C3356 C3359 1.511 . S
C3357 C3353 1.376 . S
C3357 C3356 1.392 . S
C3357 H3369 0.929 . S
C3358 C3354 1.531 . S
C3358 H3370 0.960 . S
C3358 H3371 0.962 . S
C3358 H3372 0.960 . S
C3359 C3356 1.511 . S
C3359 H3373 0.961 . S
C3359 H3374 0.961 . S
C3359 H3375 0.961 . S
C3360 C3361 1.370 . S
C3360 C3362 1.363 . S
C3360 H3376 0.931 . S
C3361 C3360 1.370 . S
C3361 C3365 1.408 . S
C3362 C3360 1.363 . S
C3362 C3363 1.370 . S
C3362 C3366 1.524 . S
C3363 C3355 1.503 . S
C3363 C3362 1.370 . S
C3363 C3364 1.403 . S
C3364 C3363 1.403 . S
C3364 C3365 1.404 . S
C3364 C3367 1.539 . S
C3365 C3361 1.408 . S
C3365 C3364 1.404 . S
C3365 H3377 0.930 . S
C3366 C3362 1.524 . S
C3366 H3378 0.956 . S
C3366 H3379 0.961 . S
C3366 H3380 0.961 . S
C3367 C3364 1.539 . S
C3367 H3381 0.958 . S
C3367 H3382 0.961 . S
C3367 H3383 0.960 . S
H3368 C3352 0.931 . S
H3369 C3357 0.929 . S
H3370 C3358 0.960 . S
H3371 C3358 0.962 . S
H3372 C3358 0.960 . S
H3373 C3359 0.961 . S
H3374 C3359 0.961 . S
H3375 C3359 0.961 . S
H3376 C3360 0.931 . S
H3377 C3365 0.930 . S
H3378 C3366 0.956 . S
H3379 C3366 0.961 . S
H3380 C3366 0.961 . S
H3381 C3367 0.958 . S
H3382 C3367 0.961 . S
H3383 C3367 0.960 . S
C3384 C3385 1.391 . S
C3384 C3386 1.394 . S
C3384 H3400 0.931 . S
C3385 C3384 1.391 . S
C3385 C3389 1.376 . S
C3386 C3384 1.394 . S
C3386 C3387 1.369 . S
C3386 C3390 1.531 . S
C3387 C3386 1.369 . S
C3387 C3388 1.410 . S
C3387 C3395 1.503 . S
C3388 C3387 1.410 . S
C3388 C3389 1.392 . S
C3388 C3391 1.511 . S
C3389 C3385 1.376 . S
C3389 C3388 1.392 . S
C3389 H3401 0.929 . S
C3390 C3386 1.531 . S
C3390 H3402 0.960 . S
C3390 H3403 0.962 . S
C3390 H3404 0.960 . S
C3391 C3388 1.511 . S
C3391 H3405 0.961 . S
C3391 H3406 0.961 . S
C3391 H3407 0.961 . S
C3392 C3393 1.370 . S
C3392 C3394 1.363 . S
C3392 H3408 0.931 . S
C3393 C3392 1.370 . S
C3393 C3397 1.408 . S
C3394 C3392 1.363 . S
C3394 C3395 1.370 . S
C3394 C3398 1.524 . S
C3395 C3387 1.503 . S
C3395 C3394 1.370 . S
C3395 C3396 1.403 . S
C3396 C3395 1.403 . S
C3396 C3397 1.404 . S
C3396 C3399 1.539 . S
C3397 C3393 1.408 . S
C3397 C3396 1.404 . S
C3397 H3409 0.930 . S
C3398 C3394 1.524 . S
C3398 H3410 0.956 . S
C3398 H3411 0.961 . S
C3398 H3412 0.961 . S
C3399 C3396 1.539 . S
C3399 H3413 0.958 . S
C3399 H3414 0.961 . S
C3399 H3415 0.960 . S
H3400 C3384 0.931 . S
H3401 C3389 0.929 . S
H3402 C3390 0.960 . S
H3403 C3390 0.962 . S
H3404 C3390 0.960 . S
H3405 C3391 0.961 . S
H3406 C3391 0.961 . S
H3407 C3391 0.961 . S
H3408 C3392 0.931 . S
H3409 C3397 0.930 . S
H3410 C3398 0.956 . S
H3411 C3398 0.961 . S
H3412 C3398 0.961 . S
H3413 C3399 0.958 . S
H3414 C3399 0.961 . S
H3415 C3399 0.960 . S
C3416 C3417 1.391 . S
C3416 C3418 1.394 . S
C3416 H3432 0.931 . S
C3417 C3416 1.391 . S
C3417 C3421 1.376 . S
C3418 C3416 1.394 . S
C3418 C3419 1.369 . S
C3418 C3422 1.531 . S
C3419 C3418 1.369 . S
C3419 C3420 1.410 . S
C3419 C3427 1.503 . S
C3420 C3419 1.410 . S
C3420 C3421 1.392 . S
C3420 C3423 1.511 . S
C3421 C3417 1.376 . S
C3421 C3420 1.392 . S
C3421 H3433 0.929 . S
C3422 C3418 1.531 . S
C3422 H3434 0.960 . S
C3422 H3435 0.962 . S
C3422 H3436 0.960 . S
C3423 C3420 1.511 . S
C3423 H3437 0.961 . S
C3423 H3438 0.961 . S
C3423 H3439 0.961 . S
C3424 C3425 1.370 . S
C3424 C3426 1.363 . S
C3424 H3440 0.931 . S
C3425 C3424 1.370 . S
C3425 C3429 1.408 . S
C3426 C3424 1.363 . S
C3426 C3427 1.370 . S
C3426 C3430 1.524 . S
C3427 C3419 1.503 . S
C3427 C3426 1.370 . S
C3427 C3428 1.403 . S
C3428 C3427 1.403 . S
C3428 C3429 1.404 . S
C3428 C3431 1.539 . S
C3429 C3425 1.408 . S
C3429 C3428 1.404 . S
C3429 H3441 0.930 . S
C3430 C3426 1.524 . S
C3430 H3442 0.956 . S
C3430 H3443 0.961 . S
C3430 H3444 0.961 . S
C3431 C3428 1.539 . S
C3431 H3445 0.958 . S
C3431 H3446 0.961 . S
C3431 H3447 0.960 . S
H3432 C3416 0.931 . S
H3433 C3421 0.929 . S
H3434 C3422 0.960 . S
H3435 C3422 0.962 . S
H3436 C3422 0.960 . S
H3437 C3423 0.961 . S
H3438 C3423 0.961 . S
H3439 C3423 0.961 . S
H3440 C3424 0.931 . S
H3441 C3429 0.930 . S
H3442 C3430 0.956 . S
H3443 C3430 0.961 . S
H3444 C3430 0.961 . S
H3445 C3431 0.958 . S
H3446 C3431 0.961 . S
H3447 C3431 0.960 . S
C3448 C3449 1.391 1_655 S
C3448 C3450 1.394 . S
C3448 H3464 0.931 . S
C3449 C3448 1.391 1_455 S
C3449 C3453 1.376 . S
C3450 C3448 1.394 . S
C3450 C3451 1.369 1_655 S
C3450 C3454 1.531 . S
C3451 C3450 1.369 1_455 S
C3451 C3452 1.410 . S
C3451 C3459 1.503 . S
C3452 C3451 1.410 . S
C3452 C3453 1.392 . S
C3452 C3455 1.511 . S
C3453 C3449 1.376 . S
C3453 C3452 1.392 . S
C3453 H3465 0.929 . S
C3454 C3450 1.531 . S
C3454 H3466 0.960 . S
C3454 H3467 0.962 . S
C3454 H3468 0.960 . S
C3455 C3452 1.511 . S
C3455 H3469 0.961 . S
C3455 H3470 0.961 . S
C3455 H3471 0.961 . S
C3456 C3457 1.370 . S
C3456 C3458 1.363 . S
C3456 H3472 0.931 . S
C3457 C3456 1.370 . S
C3457 C3461 1.408 . S
C3458 C3456 1.363 . S
C3458 C3459 1.370 . S
C3458 C3462 1.524 1_455 S
C3459 C3451 1.503 . S
C3459 C3458 1.370 . S
C3459 C3460 1.403 . S
C3460 C3459 1.403 . S
C3460 C3461 1.404 . S
C3460 C3463 1.539 . S
C3461 C3457 1.408 . S
C3461 C3460 1.404 . S
C3461 H3473 0.930 . S
C3462 C3458 1.524 1_655 S
C3462 H3474 0.956 . S
C3462 H3475 0.961 1_655 S
C3462 H3476 0.961 . S
C3463 C3460 1.539 . S
C3463 H3477 0.958 . S
C3463 H3478 0.961 . S
C3463 H3479 0.960 . S
H3464 C3448 0.931 . S
H3465 C3453 0.929 . S
H3466 C3454 0.960 . S
H3467 C3454 0.962 . S
H3468 C3454 0.960 . S
H3469 C3455 0.961 . S
H3470 C3455 0.961 . S
H3471 C3455 0.961 . S
H3472 C3456 0.931 . S
H3473 C3461 0.930 . S
H3474 C3462 0.956 . S
H3475 C3462 0.961 1_455 S
H3476 C3462 0.961 . S
H3477 C3463 0.958 . S
H3478 C3463 0.961 . S
H3479 C3463 0.960 . S
C3480 C3481 1.391 . S
C3480 C3482 1.394 . S
C3480 H3496 0.931 . S
C3481 C3480 1.391 . S
C3481 C3485 1.376 . S
C3482 C3480 1.394 . S
C3482 C3483 1.369 . S
C3482 C3486 1.531 . S
C3483 C3482 1.369 . S
C3483 C3484 1.410 . S
C3483 C3491 1.503 . S
C3484 C3483 1.410 . S
C3484 C3485 1.392 . S
C3484 C3487 1.511 . S
C3485 C3481 1.376 . S
C3485 C3484 1.392 . S
C3485 H3497 0.929 . S
C3486 C3482 1.531 . S
C3486 H3498 0.960 . S
C3486 H3499 0.962 . S
C3486 H3500 0.960 . S
C3487 C3484 1.511 . S
C3487 H3501 0.961 . S
C3487 H3502 0.961 . S
C3487 H3503 0.961 . S
C3488 C3489 1.370 . S
C3488 C3490 1.363 . S
C3488 H3504 0.931 . S
C3489 C3488 1.370 . S
C3489 C3493 1.408 . S
C3490 C3488 1.363 . S
C3490 C3491 1.370 . S
C3490 C3494 1.524 . S
C3491 C3483 1.503 . S
C3491 C3490 1.370 . S
C3491 C3492 1.403 . S
C3492 C3491 1.403 . S
C3492 C3493 1.404 . S
C3492 C3495 1.539 . S
C3493 C3489 1.408 . S
C3493 C3492 1.404 . S
C3493 H3505 0.930 . S
C3494 C3490 1.524 . S
C3494 H3506 0.956 . S
C3494 H3507 0.961 . S
C3494 H3508 0.961 . S
C3495 C3492 1.539 . S
C3495 H3509 0.958 . S
C3495 H3510 0.961 . S
C3495 H3511 0.960 . S
H3496 C3480 0.931 . S
H3497 C3485 0.929 . S
H3498 C3486 0.960 . S
H3499 C3486 0.962 . S
H3500 C3486 0.960 . S
H3501 C3487 0.961 . S
H3502 C3487 0.961 . S
H3503 C3487 0.961 . S
H3504 C3488 0.931 . S
H3505 C3493 0.930 . S
H3506 C3494 0.956 . S
H3507 C3494 0.961 . S
H3508 C3494 0.961 . S
H3509 C3495 0.958 . S
H3510 C3495 0.961 . S
H3511 C3495 0.960 . S
C3512 C3513 1.391 . S
C3512 C3514 1.394 . S
C3512 H3528 0.931 . S
C3513 C3512 1.391 . S
C3513 C3517 1.376 . S
C3514 C3512 1.394 . S
C3514 C3515 1.369 . S
C3514 C3518 1.531 . S
C3515 C3514 1.369 . S
C3515 C3516 1.410 . S
C3515 C3523 1.503 . S
C3516 C3515 1.410 . S
C3516 C3517 1.392 . S
C3516 C3519 1.511 . S
C3517 C3513 1.376 . S
C3517 C3516 1.392 . S
C3517 H3529 0.929 . S
C3518 C3514 1.531 . S
C3518 H3530 0.960 . S
C3518 H3531 0.962 . S
C3518 H3532 0.960 . S
C3519 C3516 1.511 . S
C3519 H3533 0.961 . S
C3519 H3534 0.961 . S
C3519 H3535 0.961 . S
C3520 C3521 1.370 . S
C3520 C3522 1.363 . S
C3520 H3536 0.931 . S
C3521 C3520 1.370 . S
C3521 C3525 1.408 . S
C3522 C3520 1.363 . S
C3522 C3523 1.370 . S
C3522 C3526 1.524 . S
C3523 C3515 1.503 . S
C3523 C3522 1.370 . S
C3523 C3524 1.403 . S
C3524 C3523 1.403 . S
C3524 C3525 1.404 . S
C3524 C3527 1.539 . S
C3525 C3521 1.408 . S
C3525 C3524 1.404 . S
C3525 H3537 0.930 . S
C3526 C3522 1.524 . S
C3526 H3538 0.956 . S
C3526 H3539 0.961 . S
C3526 H3540 0.961 . S
C3527 C3524 1.539 . S
C3527 H3541 0.958 . S
C3527 H3542 0.961 . S
C3527 H3543 0.960 . S
H3528 C3512 0.931 . S
H3529 C3517 0.929 . S
H3530 C3518 0.960 . S
H3531 C3518 0.962 . S
H3532 C3518 0.960 . S
H3533 C3519 0.961 . S
H3534 C3519 0.961 . S
H3535 C3519 0.961 . S
H3536 C3520 0.931 . S
H3537 C3525 0.930 . S
H3538 C3526 0.956 . S
H3539 C3526 0.961 . S
H3540 C3526 0.961 . S
H3541 C3527 0.958 . S
H3542 C3527 0.961 . S
H3543 C3527 0.960 . S
C3544 C3545 1.391 . S
C3544 C3546 1.394 . S
C3544 H3560 0.931 . S
C3545 C3544 1.391 . S
C3545 C3549 1.376 . S
C3546 C3544 1.394 . S
C3546 C3547 1.369 . S
C3546 C3550 1.531 . S
C3547 C3546 1.369 . S
C3547 C3548 1.410 . S
C3547 C3555 1.503 . S
C3548 C3547 1.410 . S
C3548 C3549 1.392 . S
C3548 C3551 1.511 . S
C3549 C3545 1.376 . S
C3549 C3548 1.392 . S
C3549 H3561 0.929 . S
C3550 C3546 1.531 . S
C3550 H3562 0.960 . S
C3550 H3563 0.962 . S
C3550 H3564 0.960 . S
C3551 C3548 1.511 . S
C3551 H3565 0.961 . S
C3551 H3566 0.961 . S
C3551 H3567 0.961 . S
C3552 C3553 1.370 . S
C3552 C3554 1.363 . S
C3552 H3568 0.931 . S
C3553 C3552 1.370 . S
C3553 C3557 1.408 . S
C3554 C3552 1.363 . S
C3554 C3555 1.370 . S
C3554 C3558 1.524 . S
C3555 C3547 1.503 . S
C3555 C3554 1.370 . S
C3555 C3556 1.403 . S
C3556 C3555 1.403 . S
C3556 C3557 1.404 . S
C3556 C3559 1.539 . S
C3557 C3553 1.408 . S
C3557 C3556 1.404 . S
C3557 H3569 0.930 . S
C3558 C3554 1.524 . S
C3558 H3570 0.956 . S
C3558 H3571 0.961 . S
C3558 H3572 0.961 . S
C3559 C3556 1.539 . S
C3559 H3573 0.958 . S
C3559 H3574 0.961 . S
C3559 H3575 0.960 . S
H3560 C3544 0.931 . S
H3561 C3549 0.929 . S
H3562 C3550 0.960 . S
H3563 C3550 0.962 . S
H3564 C3550 0.960 . S
H3565 C3551 0.961 . S
H3566 C3551 0.961 . S
H3567 C3551 0.961 . S
H3568 C3552 0.931 . S
H3569 C3557 0.930 . S
H3570 C3558 0.956 . S
H3571 C3558 0.961 . S
H3572 C3558 0.961 . S
H3573 C3559 0.958 . S
H3574 C3559 0.961 . S
H3575 C3559 0.960 . S
C3576 C3577 1.391 . S
C3576 C3578 1.394 . S
C3576 H3592 0.931 . S
C3577 C3576 1.391 . S
C3577 C3581 1.376 . S
C3578 C3576 1.394 . S
C3578 C3579 1.369 . S
C3578 C3582 1.531 . S
C3579 C3578 1.369 . S
C3579 C3580 1.410 . S
C3579 C3587 1.503 . S
C3580 C3579 1.410 . S
C3580 C3581 1.392 . S
C3580 C3583 1.511 . S
C3581 C3577 1.376 . S
C3581 C3580 1.392 . S
C3581 H3593 0.929 . S
C3582 C3578 1.531 . S
C3582 H3594 0.960 . S
C3582 H3595 0.962 . S
C3582 H3596 0.960 . S
C3583 C3580 1.511 . S
C3583 H3597 0.961 . S
C3583 H3598 0.961 . S
C3583 H3599 0.961 . S
C3584 C3585 1.420 . S
C3584 C3586 1.363 . S
C3584 H3600 0.931 . S
C3585 C3584 1.420 . S
C3585 C3589 1.376 1_655 S
C3586 C3584 1.363 . S
C3586 C3587 1.370 . S
C3586 C3590 1.524 . S
C3587 C3579 1.503 . S
C3587 C3586 1.370 . S
C3587 C3588 1.444 . S
C3588 C3587 1.444 . S
C3588 C3589 1.389 1_655 S
C3588 C3591 1.512 1_655 S
C3589 C3585 1.376 1_455 S
C3589 C3588 1.389 1_455 S
C3589 H3601 0.930 . S
C3590 C3586 1.524 . S
C3590 H3602 0.956 . S
C3590 H3603 0.961 . S
C3590 H3604 0.961 . S
C3591 C3588 1.512 1_455 S
C3591 H3605 0.958 . S
C3591 H3606 0.961 . S
C3591 H3607 0.960 . S
H3592 C3576 0.931 . S
H3593 C3581 0.929 . S
H3594 C3582 0.960 . S
H3595 C3582 0.962 . S
H3596 C3582 0.960 . S
H3597 C3583 0.961 . S
H3598 C3583 0.961 . S
H3599 C3583 0.961 . S
H3600 C3584 0.931 . S
H3601 C3589 0.930 . S
H3602 C3590 0.956 . S
H3603 C3590 0.961 . S
H3604 C3590 0.961 . S
H3605 C3591 0.958 . S
H3606 C3591 0.961 . S
H3607 C3591 0.960 . S
C3608 C3609 1.391 . S
C3608 C3610 1.394 . S
C3608 H3624 0.931 . S
C3609 C3608 1.391 . S
C3609 C3613 1.376 . S
C3610 C3608 1.394 . S
C3610 C3611 1.369 . S
C3610 C3614 1.531 . S
C3611 C3610 1.369 . S
C3611 C3612 1.410 . S
C3611 C3619 1.503 . S
C3612 C3611 1.410 . S
C3612 C3613 1.392 . S
C3612 C3615 1.511 . S
C3613 C3609 1.376 . S
C3613 C3612 1.392 . S
C3613 H3625 0.929 . S
C3614 C3610 1.531 . S
C3614 H3626 0.960 . S
C3614 H3627 0.962 . S
C3614 H3628 0.960 . S
C3615 C3612 1.511 . S
C3615 H3629 0.961 . S
C3615 H3630 0.961 . S
C3615 H3631 0.961 . S
C3616 C3617 1.370 . S
C3616 C3618 1.363 . S
C3616 H3632 0.931 . S
C3617 C3616 1.370 . S
C3617 C3621 1.408 . S
C3618 C3616 1.363 . S
C3618 C3619 1.370 . S
C3618 C3622 1.524 . S
C3619 C3611 1.503 . S
C3619 C3618 1.370 . S
C3619 C3620 1.403 . S
C3620 C3619 1.403 . S
C3620 C3621 1.404 . S
C3620 C3623 1.539 . S
C3621 C3617 1.408 . S
C3621 C3620 1.404 . S
C3621 H3633 0.930 . S
C3622 C3618 1.524 . S
C3622 H3634 0.956 . S
C3622 H3635 0.961 . S
C3622 H3636 0.961 . S
C3623 C3620 1.539 . S
C3623 H3637 0.958 . S
C3623 H3638 0.961 . S
C3623 H3639 0.960 . S
H3624 C3608 0.931 . S
H3625 C3613 0.929 . S
H3626 C3614 0.960 . S
H3627 C3614 0.962 . S
H3628 C3614 0.960 . S
H3629 C3615 0.961 . S
H3630 C3615 0.961 . S
H3631 C3615 0.961 . S
H3632 C3616 0.931 . S
H3633 C3621 0.930 . S
H3634 C3622 0.956 . S
H3635 C3622 0.961 . S
H3636 C3622 0.961 . S
H3637 C3623 0.958 . S
H3638 C3623 0.961 . S
H3639 C3623 0.960 . S
C3640 C3641 1.391 . S
C3640 C3642 1.394 . S
C3640 H3656 0.931 . S
C3641 C3640 1.391 . S
C3641 C3645 1.376 . S
C3642 C3640 1.394 . S
C3642 C3643 1.369 . S
C3642 C3646 1.531 . S
C3643 C3642 1.369 . S
C3643 C3644 1.410 . S
C3643 C3651 1.503 . S
C3644 C3643 1.410 . S
C3644 C3645 1.392 . S
C3644 C3647 1.511 . S
C3645 C3641 1.376 . S
C3645 C3644 1.392 . S
C3645 H3657 0.929 . S
C3646 C3642 1.531 . S
C3646 H3658 0.960 . S
C3646 H3659 0.962 . S
C3646 H3660 0.960 . S
C3647 C3644 1.511 . S
C3647 H3661 0.961 . S
C3647 H3662 0.961 . S
C3647 H3663 0.961 . S
C3648 C3649 1.370 . S
C3648 C3650 1.363 . S
C3648 H3664 0.931 . S
C3649 C3648 1.370 . S
C3649 C3653 1.408 . S
C3650 C3648 1.363 . S
C3650 C3651 1.370 . S
C3650 C3654 1.524 . S
C3651 C3643 1.503 . S
C3651 C3650 1.370 . S
C3651 C3652 1.403 . S
C3652 C3651 1.403 . S
C3652 C3653 1.404 . S
C3652 C3655 1.539 . S
C3653 C3649 1.408 . S
C3653 C3652 1.404 . S
C3653 H3665 0.930 . S
C3654 C3650 1.524 . S
C3654 H3666 0.956 . S
C3654 H3667 0.961 . S
C3654 H3668 0.961 . S
C3655 C3652 1.539 . S
C3655 H3669 0.958 . S
C3655 H3670 0.961 . S
C3655 H3671 0.960 . S
H3656 C3640 0.931 . S
H3657 C3645 0.929 . S
H3658 C3646 0.960 . S
H3659 C3646 0.962 . S
H3660 C3646 0.960 . S
H3661 C3647 0.961 . S
H3662 C3647 0.961 . S
H3663 C3647 0.961 . S
H3664 C3648 0.931 . S
H3665 C3653 0.930 . S
H3666 C3654 0.956 . S
H3667 C3654 0.961 . S
H3668 C3654 0.961 . S
H3669 C3655 0.958 . S
H3670 C3655 0.961 . S
H3671 C3655 0.960 . S
C3672 C3673 1.391 . S
C3672 C3674 1.394 . S
C3672 H3688 0.931 . S
C3673 C3672 1.391 . S
C3673 C3677 1.376 . S
C3674 C3672 1.394 . S
C3674 C3675 1.369 . S
C3674 C3678 1.531 . S
C3675 C3674 1.369 . S
C3675 C3676 1.410 . S
C3675 C3683 1.503 . S
C3676 C3675 1.410 . S
C3676 C3677 1.392 . S
C3676 C3679 1.511 . S
C3677 C3673 1.376 . S
C3677 C3676 1.392 . S
C3677 H3689 0.929 . S
C3678 C3674 1.531 . S
C3678 H3690 0.960 . S
C3678 H3691 0.962 . S
C3678 H3692 0.960 . S
C3679 C3676 1.511 . S
C3679 H3693 0.961 . S
C3679 H3694 0.961 . S
C3679 H3695 0.961 . S
C3680 C3681 1.370 . S
C3680 C3682 1.363 . S
C3680 H3696 0.931 . S
C3681 C3680 1.370 . S
C3681 C3685 1.408 . S
C3682 C3680 1.363 . S
C3682 C3683 1.370 . S
C3682 C3686 1.524 . S
C3683 C3675 1.503 . S
C3683 C3682 1.370 . S
C3683 C3684 1.403 . S
C3684 C3683 1.403 . S
C3684 C3685 1.404 . S
C3684 C3687 1.539 . S
C3685 C3681 1.408 . S
C3685 C3684 1.404 . S
C3685 H3697 0.930 . S
C3686 C3682 1.524 . S
C3686 H3698 0.956 . S
C3686 H3699 0.961 . S
C3686 H3700 0.961 . S
C3687 C3684 1.539 . S
C3687 H3701 0.958 . S
C3687 H3702 0.961 . S
C3687 H3703 0.960 . S
H3688 C3672 0.931 . S
H3689 C3677 0.929 . S
H3690 C3678 0.960 . S
H3691 C3678 0.962 . S
H3692 C3678 0.960 . S
H3693 C3679 0.961 . S
H3694 C3679 0.961 . S
H3695 C3679 0.961 . S
H3696 C3680 0.931 . S
H3697 C3685 0.930 . S
H3698 C3686 0.956 . S
H3699 C3686 0.961 . S
H3700 C3686 0.961 . S
H3701 C3687 0.958 . S
H3702 C3687 0.961 . S
H3703 C3687 0.960 . S
C3704 C3705 1.391 . S
C3704 C3706 1.394 . S
C3704 H3720 0.931 . S
C3705 C3704 1.391 . S
C3705 C3709 1.376 . S
C3706 C3704 1.394 . S
C3706 C3707 1.369 . S
C3706 C3710 1.531 . S
C3707 C3706 1.369 . S
C3707 C3708 1.410 . S
C3707 C3715 1.503 . S
C3708 C3707 1.410 . S
C3708 C3709 1.392 . S
C3708 C3711 1.511 . S
C3709 C3705 1.376 . S
C3709 C3708 1.392 . S
C3709 H3721 0.929 . S
C3710 C3706 1.531 . S
C3710 H3722 0.960 . S
C3710 H3723 0.962 . S
C3710 H3724 0.960 . S
C3711 C3708 1.511 . S
C3711 H3725 0.961 . S
C3711 H3726 0.961 . S
C3711 H3727 0.961 . S
C3712 C3713 1.370 . S
C3712 C3714 1.363 . S
C3712 H3728 0.931 . S
C3713 C3712 1.370 . S
C3713 C3717 1.408 . S
C3714 C3712 1.363 . S
C3714 C3715 1.370 . S
C3714 C3718 1.524 . S
C3715 C3707 1.503 . S
C3715 C3714 1.370 . S
C3715 C3716 1.403 . S
C3716 C3715 1.403 . S
C3716 C3717 1.404 . S
C3716 C3719 1.539 . S
C3717 C3713 1.408 . S
C3717 C3716 1.404 . S
C3717 H3729 0.930 . S
C3718 C3714 1.524 . S
C3718 H3730 0.956 . S
C3718 H3731 0.961 . S
C3718 H3732 0.961 . S
C3719 C3716 1.539 . S
C3719 H3733 0.958 . S
C3719 H3734 0.961 . S
C3719 H3735 0.960 . S
H3720 C3704 0.931 . S
H3721 C3709 0.929 . S
H3722 C3710 0.960 . S
H3723 C3710 0.962 . S
H3724 C3710 0.960 . S
H3725 C3711 0.961 . S
H3726 C3711 0.961 . S
H3727 C3711 0.961 . S
H3728 C3712 0.931 . S
H3729 C3717 0.930 . S
H3730 C3718 0.956 . S
H3731 C3718 0.961 . S
H3732 C3718 0.961 . S
H3733 C3719 0.958 . S
H3734 C3719 0.961 . S
H3735 C3719 0.960 . S
C3736 C3737 1.391 . S
C3736 C3738 1.394 . S
C3736 H3752 0.931 . S
C3737 C3736 1.391 . S
C3737 C3741 1.376 . S
C3738 C3736 1.394 . S
C3738 C3739 1.369 . S
C3738 C3742 1.531 . S
C3739 C3738 1.369 . S
C3739 C3740 1.410 . S
C3739 C3747 1.503 . S
C3740 C3739 1.410 . S
C3740 C3741 1.392 . S
C3740 C3743 1.511 . S
C3741 C3737 1.376 . S
C3741 C3740 1.392 . S
C3741 H3753 0.929 . S
C3742 C3738 1.531 . S
C3742 H3754 0.960 . S
C3742 H3755 0.962 . S
C3742 H3756 0.960 . S
C3743 C3740 1.511 . S
C3743 H3757 0.961 . S
C3743 H3758 0.961 . S
C3743 H3759 0.961 . S
C3744 C3745 1.370 . S
C3744 C3746 1.363 . S
C3744 H3760 0.931 . S
C3745 C3744 1.370 . S
C3745 C3749 1.408 . S
C3746 C3744 1.363 . S
C3746 C3747 1.370 . S
C3746 C3750 1.524 . S
C3747 C3739 1.503 . S
C3747 C3746 1.370 . S
C3747 C3748 1.403 . S
C3748 C3747 1.403 . S
C3748 C3749 1.404 . S
C3748 C3751 1.539 . S
C3749 C3745 1.408 . S
C3749 C3748 1.404 . S
C3749 H3761 0.930 . S
C3750 C3746 1.524 . S
C3750 H3762 0.956 . S
C3750 H3763 0.961 . S
C3750 H3764 0.961 . S
C3751 C3748 1.539 . S
C3751 H3765 0.958 . S
C3751 H3766 0.961 . S
C3751 H3767 0.960 . S
H3752 C3736 0.931 . S
H3753 C3741 0.929 . S
H3754 C3742 0.960 . S
H3755 C3742 0.962 . S
H3756 C3742 0.960 . S
H3757 C3743 0.961 . S
H3758 C3743 0.961 . S
H3759 C3743 0.961 . S
H3760 C3744 0.931 . S
H3761 C3749 0.930 . S
H3762 C3750 0.956 . S
H3763 C3750 0.961 . S
H3764 C3750 0.961 . S
H3765 C3751 0.958 . S
H3766 C3751 0.961 . S
H3767 C3751 0.960 . S
C3768 C3769 1.391 . S
C3768 C3770 1.394 . S
C3768 H3784 0.931 . S
C3769 C3768 1.391 . S
C3769 C3773 1.376 . S
C3770 C3768 1.394 . S
C3770 C3771 1.369 . S
C3770 C3774 1.531 . S
C3771 C3770 1.369 . S
C3771 C3772 1.410 . S
C3771 C3779 1.503 . S
C3772 C3771 1.410 . S
C3772 C3773 1.392 . S
C3772 C3775 1.511 . S
C3773 C3769 1.376 . S
C3773 C3772 1.392 . S
C3773 H3785 0.929 . S
C3774 C3770 1.531 . S
C3774 H3786 0.960 . S
C3774 H3787 0.962 . S
C3774 H3788 0.960 . S
C3775 C3772 1.511 . S
C3775 H3789 0.961 . S
C3775 H3790 0.961 . S
C3775 H3791 0.961 . S
C3776 C3777 1.370 . S
C3776 C3778 1.363 . S
C3776 H3792 0.931 . S
C3777 C3776 1.370 . S
C3777 C3781 1.408 . S
C3778 C3776 1.363 . S
C3778 C3779 1.370 . S
C3778 C3782 1.524 . S
C3779 C3771 1.503 . S
C3779 C3778 1.370 . S
C3779 C3780 1.403 . S
C3780 C3779 1.403 . S
C3780 C3781 1.404 . S
C3780 C3783 1.539 . S
C3781 C3777 1.408 . S
C3781 C3780 1.404 . S
C3781 H3793 0.930 . S
C3782 C3778 1.524 . S
C3782 H3794 0.956 . S
C3782 H3795 0.961 . S
C3782 H3796 0.961 . S
C3783 C3780 1.539 . S
C3783 H3797 0.958 . S
C3783 H3798 0.961 . S
C3783 H3799 0.960 . S
H3784 C3768 0.931 . S
H3785 C3773 0.929 . S
H3786 C3774 0.960 . S
H3787 C3774 0.962 . S
H3788 C3774 0.960 . S
H3789 C3775 0.961 . S
H3790 C3775 0.961 . S
H3791 C3775 0.961 . S
H3792 C3776 0.931 . S
H3793 C3781 0.930 . S
H3794 C3782 0.956 . S
H3795 C3782 0.961 . S
H3796 C3782 0.961 . S
H3797 C3783 0.958 . S
H3798 C3783 0.961 . S
H3799 C3783 0.960 . S
C3800 C3801 1.391 . S
C3800 C3802 1.394 . S
C3800 H3816 0.931 . S
C3801 C3800 1.391 . S
C3801 C3805 1.376 . S
C3802 C3800 1.394 . S
C3802 C3803 1.369 . S
C3802 C3806 1.531 . S
C3803 C3802 1.369 . S
C3803 C3804 1.410 . S
C3803 C3811 1.503 . S
C3804 C3803 1.410 . S
C3804 C3805 1.392 . S
C3804 C3807 1.511 . S
C3805 C3801 1.376 . S
C3805 C3804 1.392 . S
C3805 H3817 0.929 . S
C3806 C3802 1.531 . S
C3806 H3818 0.960 . S
C3806 H3819 0.962 . S
C3806 H3820 0.960 . S
C3807 C3804 1.511 . S
C3807 H3821 0.961 . S
C3807 H3822 0.961 . S
C3807 H3823 0.961 . S
C3808 C3809 1.370 . S
C3808 C3810 1.363 . S
C3808 H3824 0.931 . S
C3809 C3808 1.370 . S
C3809 C3813 1.408 . S
C3810 C3808 1.363 . S
C3810 C3811 1.370 . S
C3810 C3814 1.524 . S
C3811 C3803 1.503 . S
C3811 C3810 1.370 . S
C3811 C3812 1.403 . S
C3812 C3811 1.403 . S
C3812 C3813 1.404 . S
C3812 C3815 1.539 . S
C3813 C3809 1.408 . S
C3813 C3812 1.404 . S
C3813 H3825 0.930 . S
C3814 C3810 1.524 . S
C3814 H3826 0.956 . S
C3814 H3827 0.961 . S
C3814 H3828 0.961 . S
C3815 C3812 1.539 . S
C3815 H3829 0.958 . S
C3815 H3830 0.961 . S
C3815 H3831 0.960 . S
H3816 C3800 0.931 . S
H3817 C3805 0.929 . S
H3818 C3806 0.960 . S
H3819 C3806 0.962 . S
H3820 C3806 0.960 . S
H3821 C3807 0.961 . S
H3822 C3807 0.961 . S
H3823 C3807 0.961 . S
H3824 C3808 0.931 . S
H3825 C3813 0.930 . S
H3826 C3814 0.956 . S
H3827 C3814 0.961 . S
H3828 C3814 0.961 . S
H3829 C3815 0.958 . S
H3830 C3815 0.961 . S
H3831 C3815 0.960 . S
C3832 C3833 1.391 . S
C3832 C3834 1.394 . S
C3832 H3848 0.931 . S
C3833 C3832 1.391 . S
C3833 C3837 1.376 . S
C3834 C3832 1.394 . S
C3834 C3835 1.369 . S
C3834 C3838 1.531 . S
C3835 C3834 1.369 . S
C3835 C3836 1.410 . S
C3835 C3843 1.503 . S
C3836 C3835 1.410 . S
C3836 C3837 1.392 . S
C3836 C3839 1.511 . S
C3837 C3833 1.376 . S
C3837 C3836 1.392 . S
C3837 H3849 0.929 . S
C3838 C3834 1.531 . S
C3838 H3850 0.960 . S
C3838 H3851 0.962 . S
C3838 H3852 0.960 . S
C3839 C3836 1.511 . S
C3839 H3853 0.961 . S
C3839 H3854 0.961 . S
C3839 H3855 0.961 . S
C3840 C3841 1.370 . S
C3840 C3842 1.363 . S
C3840 H3856 0.931 . S
C3841 C3840 1.370 . S
C3841 C3845 1.408 . S
C3842 C3840 1.363 . S
C3842 C3843 1.370 . S
C3842 C3846 1.524 . S
C3843 C3835 1.503 . S
C3843 C3842 1.370 . S
C3843 C3844 1.403 . S
C3844 C3843 1.403 . S
C3844 C3845 1.404 . S
C3844 C3847 1.539 . S
C3845 C3841 1.408 . S
C3845 C3844 1.404 . S
C3845 H3857 0.930 . S
C3846 C3842 1.524 . S
C3846 H3858 0.956 . S
C3846 H3859 0.961 . S
C3846 H3860 0.961 . S
C3847 C3844 1.539 . S
C3847 H3861 0.958 . S
C3847 H3862 0.961 . S
C3847 H3863 0.960 . S
H3848 C3832 0.931 . S
H3849 C3837 0.929 . S
H3850 C3838 0.960 . S
H3851 C3838 0.962 . S
H3852 C3838 0.960 . S
H3853 C3839 0.961 . S
H3854 C3839 0.961 . S
H3855 C3839 0.961 . S
H3856 C3840 0.931 . S
H3857 C3845 0.930 . S
H3858 C3846 0.956 . S
H3859 C3846 0.961 . S
H3860 C3846 0.961 . S
H3861 C3847 0.958 . S
H3862 C3847 0.961 . S
H3863 C3847 0.960 . S
C3864 C3865 1.391 . S
C3864 C3866 1.394 . S
C3864 H3880 0.931 . S
C3865 C3864 1.391 . S
C3865 C3869 1.376 . S
C3866 C3864 1.394 . S
C3866 C3867 1.369 . S
C3866 C3870 1.531 . S
C3867 C3866 1.369 . S
C3867 C3868 1.410 . S
C3867 C3875 1.503 . S
C3868 C3867 1.410 . S
C3868 C3869 1.392 . S
C3868 C3871 1.511 . S
C3869 C3865 1.376 . S
C3869 C3868 1.392 . S
C3869 H3881 0.929 . S
C3870 C3866 1.531 . S
C3870 H3882 0.960 . S
C3870 H3883 0.962 . S
C3870 H3884 0.960 . S
C3871 C3868 1.511 . S
C3871 H3885 0.961 . S
C3871 H3886 0.961 . S
C3871 H3887 0.961 . S
C3872 C3873 1.370 . S
C3872 C3874 1.363 . S
C3872 H3888 0.931 . S
C3873 C3872 1.370 . S
C3873 C3877 1.408 . S
C3874 C3872 1.363 . S
C3874 C3875 1.370 . S
C3874 C3878 1.524 . S
C3875 C3867 1.503 . S
C3875 C3874 1.370 . S
C3875 C3876 1.403 . S
C3876 C3875 1.403 . S
C3876 C3877 1.404 . S
C3876 C3879 1.539 . S
C3877 C3873 1.408 . S
C3877 C3876 1.404 . S
C3877 H3889 0.930 . S
C3878 C3874 1.524 . S
C3878 H3890 0.956 . S
C3878 H3891 0.961 . S
C3878 H3892 0.961 . S
C3879 C3876 1.539 . S
C3879 H3893 0.958 . S
C3879 H3894 0.961 . S
C3879 H3895 0.960 . S
H3880 C3864 0.931 . S
H3881 C3869 0.929 . S
H3882 C3870 0.960 . S
H3883 C3870 0.962 . S
H3884 C3870 0.960 . S
H3885 C3871 0.961 . S
H3886 C3871 0.961 . S
H3887 C3871 0.961 . S
H3888 C3872 0.931 . S
H3889 C3877 0.930 . S
H3890 C3878 0.956 . S
H3891 C3878 0.961 . S
H3892 C3878 0.961 . S
H3893 C3879 0.958 . S
H3894 C3879 0.961 . S
H3895 C3879 0.960 . S
C3896 C3897 1.391 . S
C3896 C3898 1.394 . S
C3896 H3912 0.931 . S
C3897 C3896 1.391 . S
C3897 C3901 1.376 . S
C3898 C3896 1.394 . S
C3898 C3899 1.369 . S
C3898 C3902 1.531 . S
C3899 C3898 1.369 . S
C3899 C3900 1.410 . S
C3899 C3907 1.503 . S
C3900 C3899 1.410 . S
C3900 C3901 1.392 . S
C3900 C3903 1.511 . S
C3901 C3897 1.376 . S
C3901 C3900 1.392 . S
C3901 H3913 0.929 . S
C3902 C3898 1.531 . S
C3902 H3914 0.960 . S
C3902 H3915 0.962 . S
C3902 H3916 0.960 . S
C3903 C3900 1.511 . S
C3903 H3917 0.961 . S
C3903 H3918 0.961 . S
C3903 H3919 0.961 . S
C3904 C3905 1.370 . S
C3904 C3906 1.363 . S
C3904 H3920 0.931 . S
C3905 C3904 1.370 . S
C3905 C3909 1.408 . S
C3906 C3904 1.363 . S
C3906 C3907 1.370 . S
C3906 C3910 1.524 . S
C3907 C3899 1.503 . S
C3907 C3906 1.370 . S
C3907 C3908 1.403 . S
C3908 C3907 1.403 . S
C3908 C3909 1.404 . S
C3908 C3911 1.539 . S
C3909 C3905 1.408 . S
C3909 C3908 1.404 . S
C3909 H3921 0.930 . S
C3910 C3906 1.524 . S
C3910 H3922 0.956 . S
C3910 H3923 0.961 . S
C3910 H3924 0.961 . S
C3911 C3908 1.539 . S
C3911 H3925 0.958 . S
C3911 H3926 0.961 . S
C3911 H3927 0.960 . S
H3912 C3896 0.931 . S
H3913 C3901 0.929 . S
H3914 C3902 0.960 . S
H3915 C3902 0.962 . S
H3916 C3902 0.960 . S
H3917 C3903 0.961 . S
H3918 C3903 0.961 . S
H3919 C3903 0.961 . S
H3920 C3904 0.931 . S
H3921 C3909 0.930 . S
H3922 C3910 0.956 . S
H3923 C3910 0.961 . S
H3924 C3910 0.961 . S
H3925 C3911 0.958 . S
H3926 C3911 0.961 . S
H3927 C3911 0.960 . S
C3928 C3929 1.391 . S
C3928 C3930 1.394 . S
C3928 H3944 0.931 . S
C3929 C3928 1.391 . S
C3929 C3933 1.376 . S
C3930 C3928 1.394 . S
C3930 C3931 1.369 . S
C3930 C3934 1.531 . S
C3931 C3930 1.369 . S
C3931 C3932 1.410 . S
C3931 C3939 1.503 . S
C3932 C3931 1.410 . S
C3932 C3933 1.392 . S
C3932 C3935 1.511 . S
C3933 C3929 1.376 . S
C3933 C3932 1.392 . S
C3933 H3945 0.929 . S
C3934 C3930 1.531 . S
C3934 H3946 0.960 . S
C3934 H3947 0.962 1_554 S
C3934 H3948 0.960 . S
C3935 C3932 1.511 . S
C3935 H3949 0.961 . S
C3935 H3950 0.961 . S
C3935 H3951 0.961 . S
C3936 C3937 1.370 . S
C3936 C3938 1.363 . S
C3936 H3952 0.931 . S
C3937 C3936 1.370 . S
C3937 C3941 1.408 . S
C3938 C3936 1.363 . S
C3938 C3939 1.370 . S
C3938 C3942 1.524 . S
C3939 C3931 1.503 . S
C3939 C3938 1.370 . S
C3939 C3940 1.403 . S
C3940 C3939 1.403 . S
C3940 C3941 1.404 . S
C3940 C3943 1.539 . S
C3941 C3937 1.408 . S
C3941 C3940 1.404 . S
C3941 H3953 0.930 . S
C3942 C3938 1.524 . S
C3942 H3954 0.956 1_554 S
C3942 H3955 0.961 . S
C3942 H3956 0.961 1_554 S
C3943 C3940 1.539 . S
C3943 H3957 0.958 . S
C3943 H3958 0.961 . S
C3943 H3959 0.960 . S
H3944 C3928 0.931 . S
H3945 C3933 0.929 . S
H3946 C3934 0.960 . S
H3947 C3934 0.962 1_556 S
H3948 C3934 0.960 . S
H3949 C3935 0.961 . S
H3950 C3935 0.961 . S
H3951 C3935 0.961 . S
H3952 C3936 0.931 . S
H3953 C3941 0.930 . S
H3954 C3942 0.956 1_556 S
H3955 C3942 0.961 . S
H3956 C3942 0.961 1_556 S
H3957 C3943 0.958 . S
H3958 C3943 0.961 . S
H3959 C3943 0.960 . S
C3960 C3961 1.391 . S
C3960 C3962 1.394 . S
C3960 H3976 0.931 . S
C3961 C3960 1.391 . S
C3961 C3965 1.376 . S
C3962 C3960 1.394 . S
C3962 C3963 1.369 . S
C3962 C3966 1.531 . S
C3963 C3962 1.369 . S
C3963 C3964 1.410 . S
C3963 C3971 1.503 . S
C3964 C3963 1.410 . S
C3964 C3965 1.392 . S
C3964 C3967 1.511 . S
C3965 C3961 1.376 . S
C3965 C3964 1.392 . S
C3965 H3977 0.929 . S
C3966 C3962 1.531 . S
C3966 H3978 0.960 . S
C3966 H3979 0.962 . S
C3966 H3980 0.960 . S
C3967 C3964 1.511 . S
C3967 H3981 0.961 . S
C3967 H3982 0.961 . S
C3967 H3983 0.961 . S
C3968 C3969 1.370 . S
C3968 C3970 1.363 . S
C3968 H3984 0.931 . S
C3969 C3968 1.370 . S
C3969 C3973 1.408 . S
C3970 C3968 1.363 . S
C3970 C3971 1.370 . S
C3970 C3974 1.524 . S
C3971 C3963 1.503 . S
C3971 C3970 1.370 . S
C3971 C3972 1.403 . S
C3972 C3971 1.403 . S
C3972 C3973 1.404 . S
C3972 C3975 1.539 . S
C3973 C3969 1.408 . S
C3973 C3972 1.404 . S
C3973 H3985 0.930 . S
C3974 C3970 1.524 . S
C3974 H3986 0.956 . S
C3974 H3987 0.961 . S
C3974 H3988 0.961 . S
C3975 C3972 1.539 . S
C3975 H3989 0.958 . S
C3975 H3990 0.961 . S
C3975 H3991 0.960 . S
H3976 C3960 0.931 . S
H3977 C3965 0.929 . S
H3978 C3966 0.960 . S
H3979 C3966 0.962 . S
H3980 C3966 0.960 . S
H3981 C3967 0.961 . S
H3982 C3967 0.961 . S
H3983 C3967 0.961 . S
H3984 C3968 0.931 . S
H3985 C3973 0.930 . S
H3986 C3974 0.956 . S
H3987 C3974 0.961 . S
H3988 C3974 0.961 . S
H3989 C3975 0.958 . S
H3990 C3975 0.961 . S
H3991 C3975 0.960 . S
C3992 C3993 1.391 . S
C3992 C3994 1.394 . S
C3992 H4008 0.931 . S
C3993 C3992 1.391 . S
C3993 C3997 1.376 . S
C3994 C3992 1.394 . S
C3994 C3995 1.369 . S
C3994 C3998 1.531 . S
C3995 C3994 1.369 . S
C3995 C3996 1.410 . S
C3995 C4003 1.503 . S
C3996 C3995 1.410 . S
C3996 C3997 1.392 . S
C3996 C3999 1.511 . S
C3997 C3993 1.376 . S
C3997 C3996 1.392 . S
C3997 H4009 0.929 . S
C3998 C3994 1.531 . S
C3998 H4010 0.960 . S
C3998 H4011 0.962 . S
C3998 H4012 0.960 . S
C3999 C3996 1.511 . S
C3999 H4013 0.961 . S
C3999 H4014 0.961 . S
C3999 H4015 0.961 . S
C4000 C4001 1.370 . S
C4000 C4002 1.363 . S
C4000 H4016 0.931 . S
C4001 C4000 1.370 . S
C4001 C4005 1.408 . S
C4002 C4000 1.363 . S
C4002 C4003 1.370 . S
C4002 C4006 1.524 . S
C4003 C3995 1.503 . S
C4003 C4002 1.370 . S
C4003 C4004 1.403 . S
C4004 C4003 1.403 . S
C4004 C4005 1.404 . S
C4004 C4007 1.539 . S
C4005 C4001 1.408 . S
C4005 C4004 1.404 . S
C4005 H4017 0.930 . S
C4006 C4002 1.524 . S
C4006 H4018 0.956 . S
C4006 H4019 0.961 . S
C4006 H4020 0.961 . S
C4007 C4004 1.539 . S
C4007 H4021 0.958 . S
C4007 H4022 0.961 . S
C4007 H4023 0.960 . S
H4008 C3992 0.931 . S
H4009 C3997 0.929 . S
H4010 C3998 0.960 . S
H4011 C3998 0.962 . S
H4012 C3998 0.960 . S
H4013 C3999 0.961 . S
H4014 C3999 0.961 . S
H4015 C3999 0.961 . S
H4016 C4000 0.931 . S
H4017 C4005 0.930 . S
H4018 C4006 0.956 . S
H4019 C4006 0.961 . S
H4020 C4006 0.961 . S
H4021 C4007 0.958 . S
H4022 C4007 0.961 . S
H4023 C4007 0.960 . S
C953 C101 2.310 . S
C961 C322 2.204 . S
C985 C57 1.940 . S
C993 C370 1.969 . S
C1017 C70 1.147 . S
C1025 C402 1.130 . S
C1057 C447 1.594 . S
C1049 C82 1.644 . S
C1081 C23 0.897 . S
C1089 C487 0.891 . S
C1121 C522 0.767 . S
C1113 C29 0.767 . S
C1153 C561 1.341 . S
C1145 C49 1.299 . S
C1177 C10 1.243 . S
C1185 C598 1.219 . S
C1217 C330 2.011 . S
C1209 C218 1.981 . S
C1241 C226 0.319 . S
C1249 C367 0.555 . S
C1281 C410 2.328 . S
C1273 C251 2.311 . S
C1313 C442 0.958 . S
C1305 C159 0.999 1_556 S
C1337 C211 1.145 . S
C1345 C482 1.125 . S
C1377 C530 0.227 . S
C1369 C225 0.269 . S
C1409 C571 1.944 . S
C1401 C252 1.997 . S
C1441 C601 1.988 . S
C1433 C166 1.994 . S
C1473 C327 1.523 . S
C1465 C147 1.515 . S
C1497 C263 2.070 . S
C1505 C650 2.075 . S
C1537 C687 1.266 . S
C1529 C309 1.300 . S
C1569 C718 0.773 . S
C1561 C291 0.669 . S
C1593 C108 2.735 . S
C1601 C611 2.693 . S
C1625 C121 1.413 . S
C1633 C407 1.395 . S
C1657 C302 1.679 . S
C1665 C770 1.738 . S
C1697 C802 1.752 . S
C1689 C276 1.764 . S
C1729 C331 2.309 . S
C1721 C55 2.354 . S
C1761 C801 2.330 . S
C1753 C96 2.335 . S
C1785 C88 1.508 . S
C1793 C411 1.495 . S
C1817 C75 1.776 . S
C1825 C758 1.757 . S
C1857 C478 1.092 . S
C1849 C4 1.094 . S
C1881 C44 1.343 . S
C1889 C691 1.339 . S
C1921 C570 1.318 1_556 S
C1913 C31 1.330 . S
C1953 C847 1.384 . S
C1945 C18 1.388 . S
C1985 C321 2.210 1_556 S
C1977 C133 2.220 . S
C2017 C798 0.464 . S
C2009 C296 0.437 . S
C2041 C107 2.607 . S
C2049 C401 2.580 . S
C2073 C264 1.361 . S
C2081 C771 1.353 . S
C2105 C140 1.511 . S
C2113 C491 1.495 . S
C2145 C681 0.619 . S
C2137 C289 0.653 . S
C2169 C114 2.328 . S
C2177 C562 2.275 . S
C2201 C265 2.130 . S
C2209 C850 2.082 . S
C2233 C179 1.275 . S
C2241 C318 1.310 . S
C2265 C161 2.418 . S
C2273 C641 2.379 . S
C2297 C244 1.358 . S
C2305 C518 1.345 . S
C2329 C224 0.603 . S
C2337 C727 0.613 . S
C2369 C842 2.890 . S
C2361 C257 2.938 . S
C2393 C199 1.614 . S
C2401 C398 1.579 . S
C2433 C441 1.955 . S
C2425 C237 1.941 . S
C2465 C371 2.033 . S
C2457 C185 2.040 . S
C2489 C69 2.320 . S
C2497 C882 2.203 . S
C2529 C810 1.962 . S
C2521 C83 1.949 . S
C2553 C94 1.148 . S
C2561 C922 1.113 . S
C2585 C56 1.620 . S
C2593 C767 1.599 . S
C2617 C42 0.877 . S
C2625 C647 0.879 . S
C2657 C682 0.774 . S
C2649 C3 0.764 . S
C2689 C721 1.334 . S
C2681 C16 1.348 . S
C2721 C838 1.223 . S
C2713 C36 1.218 . S
C2753 C890 2.007 . S
C2745 C238 1.998 . S
C2777 C174 0.426 . S
C2785 C807 0.497 . S
C2817 C930 2.335 . S
C2809 C186 2.309 . S
C2849 C762 0.986 . S
C2841 C198 0.982 . S
C2881 C642 1.119 . S
C2873 C239 1.149 . S
C2905 C173 0.444 . S
C2913 C690 0.212 . S
C2945 C731 1.923 . S
C2937 C187 2.010 . S
C2969 C205 1.993 . S
C2977 C841 1.988 . S
C3009 C887 1.509 . S
C3001 C290 1.571 . S
C3033 C122 2.050 . S
C3041 C490 2.072 . S
C3073 C527 1.295 . S
C3065 C134 1.258 1_565 S
C3105 C558 0.706 . S
C3097 C148 0.803 . S
C3137 C851 2.688 . S
C3129 C283 2.731 . S
C3161 C270 1.407 . S
C3169 C927 1.410 . S
C3201 C450 1.736 . S
C3193 C135 1.707 . S
C3233 C362 1.742 . S
C3225 C109 1.758 . S
C3257 C81 2.353 . S
C3265 C891 2.308 . S
C3297 C361 2.331 . S
C3289 C68 2.344 . S
C3321 C62 1.497 . S
C3329 C931 1.486 . S
C3353 C95 1.781 . S
C3361 C438 1.750 . S
C3385 C30 1.086 . S
C3393 C638 1.082 . S
C3425 C531 1.330 . S
C3417 C17 1.332 . S
C3449 C5 1.308 . S
C3457 C730 1.303 . S
C3481 C43 1.398 . S
C3489 C607 1.382 . S
C3521 C881 2.211 . S
C3513 C304 2.223 . S
C3545 C153 0.369 . S
C3553 C358 0.513 . S
C3585 C921 2.558 1_656 S
C3577 C278 2.604 . S
C3609 C127 1.358 . S
C3617 C451 1.346 . S
C3641 C303 1.505 . S
C3649 C651 1.487 . S
C3681 C521 0.633 . S
C3673 C146 0.619 . S
C3705 C277 2.326 . S
C3713 C722 2.270 1_655 S
C3745 C610 2.080 . S
C3737 C120 2.100 . S
C3777 C878 1.297 . S
C3769 C231 1.306 . S
C3809 C481 2.384 1_665 S
C3801 C200 2.419 . S
C3833 C212 1.352 . S
C3841 C678 1.361 . S
C3873 C567 0.648 . S
C3865 C172 0.573 . S
C3897 C192 2.938 . S
C3905 C602 2.890 . S
C3929 C160 1.614 . S
C3937 C918 1.582 . S
C3969 C761 1.956 . S
C3961 C213 1.941 . S
C4001 C811 2.025 . S
C3993 C250 2.013 . S
