# Generated by pormake.
# Topology ocu, (6,8)-cn, num edge types: 1
# Building blocks:
#     Node 0, Type 0, BuildingBlock: PAMTOO_clean_sbu_0, # of connection points: 6
#     Node 1, Type 0, BuildingBlock: PAMTOO_clean_sbu_0, # of connection points: 6
#     Node 2, Type 0, BuildingBlock: PAMTOO_clean_sbu_0, # of connection points: 6
#     Node 3, Type 0, BuildingBlock: PAMTOO_clean_sbu_0, # of connection points: 6
#     Node 4, Type 0, BuildingBlock: PAMTOO_clean_sbu_0, # of connection points: 6
#     Node 5, Type 0, BuildingBlock: PAMTOO_clean_sbu_0, # of connection points: 6
#     Node 6, Type 0, BuildingBlock: PAMTOO_clean_sbu_0, # of connection points: 6
#     Node 7, Type 0, BuildingBlock: PAMTOO_clean_sbu_0, # of connection points: 6
#     Node 8, Type 1, BuildingBlock: VETTIZ_charged_sbu_0, # of connection points: 8
#     Node 9, Type 1, BuildingBlock: VETTIZ_charged_sbu_0, # of connection points: 8
#     Node 10, Type 1, BuildingBlock: VETTIZ_charged_sbu_0, # of connection points: 8
#     Node 11, Type 1, BuildingBlock: VETTIZ_charged_sbu_0, # of connection points: 8
#     Node 12, Type 1, BuildingBlock: VETTIZ_charged_sbu_0, # of connection points: 8
#     Node 13, Type 1, BuildingBlock: VETTIZ_charged_sbu_0, # of connection points: 8
#     Edge 14, Type (0, 1), BuildingBlock: KIFKEQ_clean_linker_1, # of connection points: 2
#     Edge 15, Type (0, 1), BuildingBlock: KIFKEQ_clean_linker_1, # of connection points: 2
#     Edge 16, Type (0, 1), BuildingBlock: KIFKEQ_clean_linker_1, # of connection points: 2
#     Edge 17, Type (0, 1), BuildingBlock: KIFKEQ_clean_linker_1, # of connection points: 2
#     Edge 18, Type (0, 1), BuildingBlock: KIFKEQ_clean_linker_1, # of connection points: 2
#     Edge 19, Type (0, 1), BuildingBlock: KIFKEQ_clean_linker_1, # of connection points: 2
#     Edge 20, Type (0, 1), BuildingBlock: KIFKEQ_clean_linker_1, # of connection points: 2
#     Edge 21, Type (0, 1), BuildingBlock: KIFKEQ_clean_linker_1, # of connection points: 2
#     Edge 22, Type (0, 1), BuildingBlock: KIFKEQ_clean_linker_1, # of connection points: 2
#     Edge 23, Type (0, 1), BuildingBlock: KIFKEQ_clean_linker_1, # of connection points: 2
#     Edge 24, Type (0, 1), BuildingBlock: KIFKEQ_clean_linker_1, # of connection points: 2
#     Edge 25, Type (0, 1), BuildingBlock: KIFKEQ_clean_linker_1, # of connection points: 2
#     Edge 26, Type (0, 1), BuildingBlock: KIFKEQ_clean_linker_1, # of connection points: 2
#     Edge 27, Type (0, 1), BuildingBlock: KIFKEQ_clean_linker_1, # of connection points: 2
#     Edge 28, Type (0, 1), BuildingBlock: KIFKEQ_clean_linker_1, # of connection points: 2
#     Edge 29, Type (0, 1), BuildingBlock: KIFKEQ_clean_linker_1, # of connection points: 2
#     Edge 30, Type (0, 1), BuildingBlock: KIFKEQ_clean_linker_1, # of connection points: 2
#     Edge 31, Type (0, 1), BuildingBlock: KIFKEQ_clean_linker_1, # of connection points: 2
#     Edge 32, Type (0, 1), BuildingBlock: KIFKEQ_clean_linker_1, # of connection points: 2
#     Edge 33, Type (0, 1), BuildingBlock: KIFKEQ_clean_linker_1, # of connection points: 2
#     Edge 34, Type (0, 1), BuildingBlock: KIFKEQ_clean_linker_1, # of connection points: 2
#     Edge 35, Type (0, 1), BuildingBlock: KIFKEQ_clean_linker_1, # of connection points: 2
#     Edge 36, Type (0, 1), BuildingBlock: KIFKEQ_clean_linker_1, # of connection points: 2
#     Edge 37, Type (0, 1), BuildingBlock: KIFKEQ_clean_linker_1, # of connection points: 2
#     Edge 38, Type (0, 1), BuildingBlock: KIFKEQ_clean_linker_1, # of connection points: 2
#     Edge 39, Type (0, 1), BuildingBlock: KIFKEQ_clean_linker_1, # of connection points: 2
#     Edge 40, Type (0, 1), BuildingBlock: KIFKEQ_clean_linker_1, # of connection points: 2
#     Edge 41, Type (0, 1), BuildingBlock: KIFKEQ_clean_linker_1, # of connection points: 2
#     Edge 42, Type (0, 1), BuildingBlock: KIFKEQ_clean_linker_1, # of connection points: 2
#     Edge 43, Type (0, 1), BuildingBlock: KIFKEQ_clean_linker_1, # of connection points: 2
#     Edge 44, Type (0, 1), BuildingBlock: KIFKEQ_clean_linker_1, # of connection points: 2
#     Edge 45, Type (0, 1), BuildingBlock: KIFKEQ_clean_linker_1, # of connection points: 2
#     Edge 46, Type (0, 1), BuildingBlock: KIFKEQ_clean_linker_1, # of connection points: 2
#     Edge 47, Type (0, 1), BuildingBlock: KIFKEQ_clean_linker_1, # of connection points: 2
#     Edge 48, Type (0, 1), BuildingBlock: KIFKEQ_clean_linker_1, # of connection points: 2
#     Edge 49, Type (0, 1), BuildingBlock: KIFKEQ_clean_linker_1, # of connection points: 2
#     Edge 50, Type (0, 1), BuildingBlock: KIFKEQ_clean_linker_1, # of connection points: 2
#     Edge 51, Type (0, 1), BuildingBlock: KIFKEQ_clean_linker_1, # of connection points: 2
#     Edge 52, Type (0, 1), BuildingBlock: KIFKEQ_clean_linker_1, # of connection points: 2
#     Edge 53, Type (0, 1), BuildingBlock: KIFKEQ_clean_linker_1, # of connection points: 2
#     Edge 54, Type (0, 1), BuildingBlock: KIFKEQ_clean_linker_1, # of connection points: 2
#     Edge 55, Type (0, 1), BuildingBlock: KIFKEQ_clean_linker_1, # of connection points: 2
#     Edge 56, Type (0, 1), BuildingBlock: KIFKEQ_clean_linker_1, # of connection points: 2
#     Edge 57, Type (0, 1), BuildingBlock: KIFKEQ_clean_linker_1, # of connection points: 2
#     Edge 58, Type (0, 1), BuildingBlock: KIFKEQ_clean_linker_1, # of connection points: 2
#     Edge 59, Type (0, 1), BuildingBlock: KIFKEQ_clean_linker_1, # of connection points: 2
#     Edge 60, Type (0, 1), BuildingBlock: KIFKEQ_clean_linker_1, # of connection points: 2
#     Edge 61, Type (0, 1), BuildingBlock: KIFKEQ_clean_linker_1, # of connection points: 2
# Relax obj value: 0.201
# Max RMSD: 0.259
# Mean RMSD: 0.143
data_MOF--net-ocu--node1-PAMTOO_clean_sbu_0--node2-VETTIZ_charged_sbu_0--edge1-KIFKEQ_clean_linker_1
_symmetry_space_group_name_H-M    P1
_symmetry_Int_Tables_number       1
_symmetry_cell_setting            triclinic
loop_
_symmetry_equiv_pos_as_xyz
'x, y, z'
_cell_length_a     37.881038
_cell_length_b     41.476441
_cell_length_c     38.93216
_cell_angle_alpha  90.770226
_cell_angle_beta   92.121066
_cell_angle_gamma 95.392492
loop_
_atom_site_label
_atom_site_type_symbol
_atom_site_fract_x
_atom_site_fract_y
_atom_site_fract_z
_atom_type_partial_charge
Dy0 Dy 0.34351 0.31445 0.33015 0.0
Dy1 Dy 0.27587 0.30235 0.27724 0.0
C2 C 0.3502 0.27 0.26028 0.0
O3 O 0.35765 0.34739 0.28578 0.0
O4 O 0.30504 0.34658 0.25442 0.0
O5 O 0.39069 0.29821 0.35333 0.0
O6 O 0.37693 0.3466 0.36507 0.0
O7 O 0.25356 0.3304 0.32172 0.0
O8 O 0.30459 0.34666 0.35325 0.0
O9 O 0.26544 0.26343 0.31583 0.0
O10 O 0.30722 0.27794 0.35862 0.0
O11 O 0.22964 0.31637 0.24965 0.0
O12 O 0.24337 0.26673 0.24612 0.0
C13 C 0.33848 0.3579 0.26001 0.0
O14 O 0.36199 0.27783 0.29195 0.0
O15 O 0.31941 0.27922 0.24896 0.0
C16 C 0.40915 0.31961 0.40779 0.0
C17 C 0.44476 0.29893 0.46698 0.0
C18 C 0.41279 0.28191 0.45447 0.0
C19 C 0.39506 0.29227 0.42521 0.0
C20 C 0.43828 0.33889 0.42252 0.0
C21 C 0.45575 0.32884 0.45218 0.0
C22 C 0.39841 0.32454 0.37177 0.0
C23 C 0.26993 0.34701 0.34802 0.0
C24 C 0.27831 0.26019 0.34719 0.0
C25 C 0.21354 0.28696 0.19808 0.0
C26 C 0.18241 0.29326 0.1323 0.0
C27 C 0.2112 0.31512 0.14423 0.0
C28 C 0.22663 0.31198 0.1769 0.0
C29 C 0.18847 0.26265 0.18461 0.0
C30 C 0.17328 0.26554 0.1517 0.0
C31 C 0.22245 0.28783 0.23504 0.0
H32 H 0.40325 0.25879 0.46491 0.0
H33 H 0.37226 0.27725 0.41444 0.0
H34 H 0.44924 0.36034 0.40961 0.0
H35 H 0.47957 0.34312 0.46175 0.0
H36 H 0.2193 0.33677 0.13023 0.0
H37 H 0.24668 0.33057 0.18658 0.0
H38 H 0.17872 0.2427 0.20045 0.0
H39 H 0.15194 0.24779 0.14292 0.0
Dy40 Dy 0.85192 0.30797 0.27396 0.0
Dy41 Dy 0.7933 0.31184 0.32992 0.0
C42 C 0.86937 0.35435 0.34188 0.0
O43 O 0.87736 0.28259 0.31878 0.0
O44 O 0.8276 0.27204 0.34987 0.0
O45 O 0.88847 0.33031 0.23816 0.0
O46 O 0.87974 0.27804 0.24021 0.0
O47 O 0.76372 0.28475 0.28522 0.0
O48 O 0.81187 0.26482 0.26299 0.0
O49 O 0.78099 0.35306 0.29466 0.0
O50 O 0.8101 0.33738 0.24787 0.0
O51 O 0.74836 0.28971 0.35599 0.0
O52 O 0.76959 0.33873 0.36965 0.0
C53 C 0.86151 0.26799 0.3448 0.0
O54 O 0.87771 0.34764 0.31009 0.0
O55 O 0.84008 0.34108 0.35466 0.0
C56 C 0.88249 0.30223 0.18575 0.0
C57 C 0.8553 0.32431 0.12311 0.0
C58 C 0.89193 0.3296 0.13196 0.0
C59 C 0.9053 0.31882 0.16321 0.0
C60 C 0.84742 0.29222 0.17451 0.0
C61 C 0.83406 0.30278 0.14309 0.0
C62 C 0.89228 0.30283 0.22265 0.0
C63 C 0.77723 0.26443 0.26438 0.0
C64 C 0.787 0.35542 0.26156 0.0
C65 C 0.75646 0.30205 0.41383 0.0
C66 C 0.77157 0.24904 0.45251 0.0
C67 C 0.7365 0.25734 0.44939 0.0
C68 C 0.72886 0.28381 0.42967 0.0
C69 C 0.79183 0.29809 0.42392 0.0
C70 C 0.79941 0.27123 0.44296 0.0
C71 C 0.74981 0.31312 0.37892 0.0
H72 H 0.9095 0.3458 0.11737 0.0
H73 H 0.93246 0.32664 0.17136 0.0
H74 H 0.82929 0.27915 0.19146 0.0
H75 H 0.80602 0.29749 0.13669 0.0
H76 H 0.7147 0.24037 0.45681 0.0
H77 H 0.70146 0.2866 0.42231 0.0
H78 H 0.81361 0.3122 0.41229 0.0
H79 H 0.82661 0.26528 0.44545 0.0
Dy80 Dy 0.78378 0.75742 0.36786 0.0
Dy81 Dy 0.82187 0.80304 0.30901 0.0
C82 C 0.84818 0.80916 0.3862 0.0
O83 O 0.74501 0.79304 0.35519 0.0
O84 O 0.7837 0.83289 0.33381 0.0
O85 O 0.78337 0.73833 0.41908 0.0
O86 O 0.73894 0.7255 0.38331 0.0
O87 O 0.77272 0.77694 0.28413 0.0
O88 O 0.77318 0.73224 0.31735 0.0
O89 O 0.84875 0.75796 0.30504 0.0
O90 O 0.83202 0.73275 0.35536 0.0
O91 O 0.83463 0.81433 0.25663 0.0
O92 O 0.85249 0.84798 0.29815 0.0
C93 C 0.75276 0.82304 0.34586 0.0
O94 O 0.81563 0.79938 0.39427 0.0
O95 O 0.85868 0.80431 0.35506 0.0
C96 C 0.76032 0.68451 0.41699 0.0
C97 C 0.79432 0.62906 0.43327 0.0
C98 C 0.7944 0.64094 0.39958 0.0
C99 C 0.77741 0.66836 0.39152 0.0
C100 C 0.75583 0.67037 0.44911 0.0
C101 C 0.77209 0.64234 0.45699 0.0
C102 C 0.75495 0.71866 0.41219 0.0
C103 C 0.76329 0.74613 0.28906 0.0
C104 C 0.85104 0.73494 0.32767 0.0
C105 C 0.82754 0.86939 0.24934 0.0
C106 C 0.7891 0.92102 0.22886 0.0
C107 C 0.77132 0.89167 0.23898 0.0
C108 C 0.79034 0.86618 0.24923 0.0
C109 C 0.84556 0.89842 0.23888 0.0
C110 C 0.82642 0.9241 0.22848 0.0
C111 C 0.84671 0.84403 0.26509 0.0
H112 H 0.81055 0.63143 0.38025 0.0
H113 H 0.78069 0.67879 0.36634 0.0
H114 H 0.74226 0.68235 0.46895 0.0
H115 H 0.76976 0.6329 0.48267 0.0
H116 H 0.7426 0.88831 0.23889 0.0
H117 H 0.77594 0.84414 0.25789 0.0
H118 H 0.8743 0.90148 0.23956 0.0
H119 H 0.84075 0.94652 0.22082 0.0
Dy120 Dy 0.27783 0.83482 0.30664 0.0
Dy121 Dy 0.33952 0.78778 0.3207 0.0
C122 C 0.34414 0.85839 0.35681 0.0
O123 O 0.32562 0.85802 0.27923 0.0
O124 O 0.35581 0.8137 0.27151 0.0
O125 O 0.25249 0.86549 0.27067 0.0
O126 O 0.23283 0.85895 0.32186 0.0
O127 O 0.29235 0.75532 0.30038 0.0
O128 O 0.26405 0.79277 0.27039 0.0
O129 O 0.30371 0.77794 0.36562 0.0
O130 O 0.25313 0.7979 0.34402 0.0
O131 O 0.36805 0.74811 0.3046 0.0
O132 O 0.38212 0.77281 0.35339 0.0
C133 C 0.35085 0.84396 0.26404 0.0
O134 O 0.31009 0.85967 0.35027 0.0
O135 O 0.36135 0.83541 0.34378 0.0
C136 C 0.23547 0.91098 0.30024 0.0
C137 C 0.23915 0.97283 0.331 0.0
C138 C 0.27024 0.95751 0.32678 0.0
C139 C 0.26841 0.9268 0.31132 0.0
C140 C 0.20497 0.92743 0.30137 0.0
C141 C 0.20683 0.95833 0.31642 0.0
C142 C 0.23223 0.87593 0.29394 0.0
C143 C 0.26758 0.7625 0.27806 0.0
C144 C 0.26921 0.78028 0.36682 0.0
C145 C 0.42808 0.75551 0.3209 0.0
C146 C 0.49253 0.75442 0.28787 0.0
C147 C 0.47324 0.78171 0.28541 0.0
C148 C 0.44111 0.78221 0.3018 0.0
C149 C 0.44895 0.72992 0.32646 0.0
C150 C 0.48108 0.72942 0.31021 0.0
C151 C 0.391 0.75208 0.33052 0.0
H152 H 0.29542 0.96819 0.33777 0.0
H153 H 0.29227 0.91435 0.31047 0.0
H154 H 0.17935 0.91547 0.29308 0.0
H155 H 0.18234 0.96938 0.31968 0.0
H156 H 0.48151 0.8014 0.26862 0.0
H157 H 0.42526 0.80231 0.29751 0.0
H158 H 0.43919 0.7092 0.34121 0.0
H159 H 0.49499 0.70785 0.31244 0.0
Dy160 Dy 0.35042 0.80585 0.77613 0.0
Dy161 Dy 0.29153 0.81383 0.83152 0.0
C162 C 0.36066 0.86085 0.83104 0.0
O163 O 0.36371 0.76941 0.81729 0.0
O164 O 0.32882 0.78277 0.86131 0.0
O165 O 0.39269 0.82601 0.74509 0.0
O166 O 0.37781 0.77399 0.74446 0.0
O167 O 0.27808 0.76426 0.80865 0.0
O168 O 0.30156 0.77689 0.75694 0.0
O169 O 0.26646 0.83354 0.78341 0.0
O170 O 0.31586 0.84326 0.75157 0.0
O171 O 0.23734 0.81268 0.8468 0.0
O172 O 0.28037 0.83463 0.8804 0.0
C173 C 0.3542 0.76609 0.84961 0.0
O174 O 0.37631 0.83683 0.81866 0.0
O175 O 0.32621 0.86011 0.82769 0.0
C176 C 0.40357 0.79651 0.69495 0.0
C177 C 0.42075 0.80274 0.62549 0.0
C178 C 0.38672 0.80866 0.63614 0.0
C179 C 0.37825 0.80575 0.67076 0.0
C180 C 0.43617 0.78793 0.68406 0.0
C181 C 0.44475 0.79101 0.64974 0.0
C182 C 0.39806 0.79781 0.73191 0.0
C183 C 0.28058 0.75823 0.77571 0.0
C184 C 0.28189 0.84702 0.75666 0.0
C185 C 0.22875 0.81219 0.90596 0.0
C186 C 0.19181 0.78233 0.95958 0.0
C187 C 0.22539 0.77322 0.95157 0.0
C188 C 0.24374 0.78798 0.92475 0.0
C189 C 0.19583 0.82206 0.91456 0.0
C190 C 0.17735 0.80714 0.9412 0.0
C191 C 0.24629 0.82661 0.87649 0.0
H192 H 0.36738 0.81725 0.61815 0.0
H193 H 0.35269 0.81207 0.67886 0.0
H194 H 0.45588 0.78054 0.70249 0.0
H195 H 0.47139 0.78665 0.64304 0.0
H196 H 0.23677 0.75374 0.96507 0.0
H197 H 0.26912 0.78003 0.91816 0.0
H198 H 0.18408 0.8408 0.90016 0.0
H199 H 0.15151 0.81451 0.94702 0.0
Dy200 Dy 0.33931 0.30671 0.78806 0.0
Dy201 Dy 0.28181 0.30694 0.8478 0.0
C202 C 0.26662 0.26406 0.78007 0.0
O203 O 0.29974 0.33984 0.76671 0.0
O204 O 0.26693 0.3482 0.81408 0.0
O205 O 0.34901 0.30055 0.7342 0.0
O206 O 0.39313 0.31007 0.77108 0.0
O207 O 0.33155 0.33535 0.8683 0.0
O208 O 0.35516 0.35243 0.81784 0.0
O209 O 0.31272 0.26425 0.86155 0.0
O210 O 0.36209 0.27631 0.8301 0.0
O211 O 0.26417 0.32843 0.89379 0.0
O212 O 0.23528 0.28474 0.8723 0.0
C213 C 0.27475 0.3544 0.78184 0.0
O214 O 0.30102 0.26271 0.77999 0.0
O215 O 0.25325 0.28425 0.80097 0.0
C216 C 0.39845 0.27211 0.72651 0.0
C217 C 0.42162 0.21482 0.69966 0.0
C218 C 0.41485 0.21748 0.73475 0.0
C219 C 0.40312 0.24581 0.74803 0.0
C220 C 0.40543 0.26967 0.69155 0.0
C221 C 0.4169 0.24119 0.67817 0.0
C222 C 0.38314 0.30074 0.73978 0.0
C223 C 0.35346 0.35509 0.85132 0.0
C224 C 0.34586 0.25983 0.8547 0.0
C225 C 0.20295 0.323 0.90009 0.0
C226 C 0.15002 0.36232 0.91874 0.0
C227 C 0.16721 0.3673 0.88758 0.0
C228 C 0.1935 0.34773 0.87832 0.0
C229 C 0.18372 0.31609 0.92951 0.0
C230 C 0.15726 0.33548 0.93869 0.0
C231 C 0.23596 0.30799 0.89529 0.0
H232 H 0.41799 0.19742 0.75179 0.0
H233 H 0.39715 0.24697 0.77499 0.0
H234 H 0.4015 0.28959 0.67454 0.0
H235 H 0.42232 0.23986 0.65109 0.0
H236 H 0.16245 0.38782 0.87172 0.0
H237 H 0.20817 0.35334 0.85547 0.0
H238 H 0.19064 0.29699 0.94651 0.0
H239 H 0.14399 0.33069 0.96253 0.0
Dy240 Dy 0.77212 0.33361 0.79111 0.0
Dy241 Dy 0.8331 0.2934 0.82535 0.0
C242 C 0.82419 0.36444 0.85068 0.0
O243 O 0.82201 0.35368 0.76706 0.0
O244 O 0.85551 0.31075 0.77516 0.0
O245 O 0.74409 0.37659 0.78639 0.0
O246 O 0.72766 0.33416 0.75493 0.0
O247 O 0.79814 0.25705 0.79309 0.0
O248 O 0.7787 0.29279 0.75446 0.0
O249 O 0.78992 0.29169 0.86348 0.0
O250 O 0.74424 0.29722 0.8249 0.0
O251 O 0.85538 0.24881 0.83767 0.0
O252 O 0.88036 0.29417 0.85833 0.0
C253 C 0.8498 0.33823 0.76006 0.0
O254 O 0.79045 0.35952 0.84106 0.0
O255 O 0.84669 0.3455 0.8387 0.0
C256 C 0.68306 0.36184 0.77886 0.0
C257 C 0.62238 0.36701 0.81709 0.0
C258 C 0.63808 0.33771 0.81604 0.0
C259 C 0.66819 0.33515 0.79702 0.0
C260 C 0.66556 0.39003 0.77725 0.0
C261 C 0.63526 0.39256 0.7961 0.0
C262 C 0.71913 0.36191 0.76631 0.0
C263 C 0.7825 0.26291 0.76348 0.0
C264 C 0.75586 0.28819 0.85505 0.0
C265 C 0.91689 0.25483 0.84142 0.0
C266 C 0.96907 0.22597 0.80601 0.0
C267 C 0.95491 0.25375 0.79304 0.0
C268 C 0.92906 0.26807 0.81067 0.0
C269 C 0.93362 0.22958 0.85649 0.0
C270 C 0.95996 0.21543 0.83905 0.0
C271 C 0.88313 0.26339 0.85396 0.0
H272 H 0.62867 0.31767 0.83191 0.0
H273 H 0.68116 0.31302 0.79837 0.0
H274 H 0.67669 0.41086 0.76343 0.0
H275 H 0.62401 0.41562 0.79676 0.0
H276 H 0.96091 0.26261 0.76768 0.0
H277 H 0.91643 0.28771 0.79881 0.0
H278 H 0.92457 0.2193 0.88042 0.0
H279 H 0.97105 0.19463 0.85016 0.0
Dy280 Dy 0.86052 0.81981 0.8475 0.0
Dy281 Dy 0.79784 0.80258 0.79319 0.0
C282 C 0.87332 0.76833 0.78199 0.0
O283 O 0.87438 0.85512 0.8056 0.0
O284 O 0.83345 0.83847 0.76294 0.0
O285 O 0.90598 0.80921 0.87866 0.0
O286 O 0.89007 0.85804 0.87764 0.0
O287 O 0.77355 0.84127 0.82666 0.0
O288 O 0.81386 0.84453 0.87179 0.0
O289 O 0.78197 0.77149 0.83814 0.0
O290 O 0.83128 0.77769 0.87409 0.0
O291 O 0.75405 0.81367 0.76015 0.0
O292 O 0.76568 0.76379 0.76627 0.0
C293 C 0.86214 0.85691 0.77377 0.0
O294 O 0.88692 0.78596 0.80916 0.0
O295 O 0.83947 0.77033 0.77296 0.0
C296 C 0.91416 0.84013 0.92938 0.0
C297 C 0.92626 0.83178 1.00004 0.0
C298 C 0.89339 0.82054 0.98391 0.0
C299 C 0.8874 0.82476 0.94885 0.0
C300 C 0.9454 0.85438 0.94573 0.0
C301 C 0.95131 0.85051 0.981 0.0
C302 C 0.91092 0.83843 0.89193 0.0
C303 C 0.7829 0.85225 0.85831 0.0
C304 C 0.79928 0.76377 0.86626 0.0
C305 C 0.74536 0.77927 0.71211 0.0
C306 C 0.732 0.78905 0.64232 0.0
C307 C 0.7655 0.79934 0.65766 0.0
C308 C 0.7721 0.79446 0.69247 0.0
C309 C 0.71466 0.76394 0.69584 0.0
C310 C 0.70835 0.76817 0.66073 0.0
C311 C 0.74726 0.7837 0.74934 0.0
H312 H 0.87347 0.80578 0.99742 0.0
H313 H 0.8629 0.81398 0.9365 0.0
H314 H 0.96604 0.86681 0.93094 0.0
H315 H 0.97655 0.86006 0.99278 0.0
H316 H 0.78483 0.815 0.64441 0.0
H317 H 0.79649 0.80559 0.70471 0.0
H318 H 0.69427 0.75122 0.7107 0.0
H319 H 0.68297 0.75866 0.6492 0.0
Fe320 Fe 0.06851 0.09447 0.55053 0.0
O321 O 1.03727 0.05458 0.53375 0.0
Fe322 Fe 0.15202 0.06495 0.57212 0.0
Fe323 Fe 0.98431 0.05143 0.54178 0.0
O324 O 0.09903 0.06162 0.5723 0.0
O325 O 0.09751 0.05645 0.57447 0.0
O326 O 1.03536 0.04987 0.5382 0.0
Fe327 Fe 0.06268 1.01555 0.56109 0.0
C328 C 1.01005 0.09674 0.59912 0.0
O329 O 1.03034 0.12376 0.52368 0.0
O330 O 0.98602 0.08594 0.503 0.0
O331 O 0.085 1.00884 0.51433 0.0
O332 O 0.10963 0.04618 0.54605 0.0
O333 O 0.15408 0.1016 0.53587 0.0
O334 O 0.101 0.10062 0.50752 0.0
O335 O 0.98297 1.00942 0.51262 0.0
O336 O 1.02308 0.97979 0.54199 0.0
C337 C 0.1348 0.10912 0.50991 0.0
O338 O 0.1014 0.98702 0.58775 0.0
O339 O 0.14907 1.02438 0.60454 0.0
O340 O 1.0419 0.09203 0.59482 0.0
O341 O 0.98632 0.09061 0.57555 0.0
C342 C 1.00162 0.11532 0.50385 0.0
C343 C 0.99595 0.9824 0.52068 0.0
C344 C 1.00133 1.01101 0.60786 0.0
O345 O 0.98156 1.02028 0.58334 0.0
O346 O 1.03531 1.01635 0.60717 0.0
C347 C 0.1105 0.02957 0.51796 0.0
O348 O 0.14072 0.10167 0.60567 0.0
O349 O 0.10201 0.13151 0.57555 0.0
C350 C 0.13217 0.99535 0.60467 0.0
C351 C 0.12525 0.12781 0.60033 0.0
Fe352 Fe 0.5563 1.02631 0.04896 0.0
O353 O 0.57962 0.06599 1.02666 0.0
Fe354 Fe 0.47448 0.05764 0.06962 0.0
Fe355 Fe 0.63162 0.07476 1.02536 0.0
O356 O 0.52717 0.06047 0.06951 0.0
O357 O 0.52668 0.06509 0.07027 0.0
O358 O 0.57903 0.07113 1.02716 0.0
Fe359 Fe 0.55251 0.10515 0.05134 0.0
C360 C 0.62482 0.03563 0.08998 0.0
O361 O 0.59386 0.99637 1.02114 0.0
O362 O 0.62747 0.03444 0.99075 0.0
O363 O 0.5167 0.10686 1.00914 0.0
O364 O 0.46549 0.09321 1.0334 0.0
O365 O 0.46898 1.02293 1.03069 0.0
O366 O 0.52158 1.01887 1.00736 0.0
O367 O 0.62079 0.11158 0.99252 0.0
O368 O 0.58472 0.14122 1.02534 0.0
C369 C 0.48789 1.01392 1.00651 0.0
O370 O 0.51872 0.1343 0.08182 0.0
O371 O 0.47933 0.09577 0.1056 0.0
O372 O 0.59115 0.03257 0.09075 0.0
O373 O 0.64105 0.04188 0.06252 0.0
C374 C 0.61794 1.00415 0.99754 0.0
C375 C 0.6063 0.13793 1.00014 0.0
C376 C 0.62257 0.11764 0.09044 0.0
O377 O 0.63852 0.1111 0.06322 0.0
O378 O 0.58943 0.10885 0.09314 0.0
C379 C 0.4831 0.10785 1.00997 0.0
O380 O 0.48231 1.02003 0.10299 0.0
O381 O 0.52422 0.99023 0.07871 0.0
C382 C 0.49295 0.12561 0.10294 0.0
C383 C 0.4988 0.99398 0.10064 0.0
Fe384 Fe 1.00861 0.58463 0.13452 0.0
O385 O 0.97229 0.56178 0.10102 0.0
Fe386 Fe 0.08413 0.54353 0.12805 0.0
Fe387 Fe 0.91986 0.56409 0.10119 0.0
O388 O 1.03195 0.54307 0.13539 0.0
O389 O 1.0326 0.54052 0.13277 0.0
O390 O 0.9722 0.55855 0.10052 0.0
Fe391 Fe 0.99967 0.51819 0.09664 0.0
C392 C 0.9445 0.58028 0.17757 0.0
O393 O 0.98335 0.62608 0.12966 0.0
O394 O 0.93857 0.61166 0.08959 0.0
O395 O 1.02737 0.53973 0.05758 0.0
O396 O 0.08087 0.52967 0.07699 0.0
O397 O 0.09113 0.5909 0.11353 0.0
O398 O 1.03769 0.60037 0.09384 0.0
O399 O 0.92002 0.53948 0.05288 0.0
O400 O 0.96047 0.50073 0.0594 0.0
C401 C 0.07098 0.60708 0.09535 0.0
O402 O 1.03134 0.48001 0.0962 0.0
O403 O 0.07636 0.49417 0.13663 0.0
O404 O 0.97637 0.57239 0.17488 0.0
O405 O 0.92253 0.58232 0.15166 0.0
C406 C 0.95922 0.63296 0.10743 0.0
C407 C 0.93368 0.51286 0.04369 0.0
C408 C 0.94713 0.50939 0.13491 0.0
O409 O 0.95436 0.53642 0.12015 0.0
O410 O 0.97272 0.49285 0.13452 0.0
C411 C 0.05887 0.53347 0.0522 0.0
O412 O 0.08707 0.56334 0.17739 0.0
O413 O 0.0499 0.60379 0.16943 0.0
C414 C 0.05807 0.47344 0.11586 0.0
C415 C 0.07704 0.59181 0.18464 0.0
Fe416 Fe 0.57023 0.58351 0.98262 0.0
O417 O 0.57165 0.58002 1.03336 0.0
Fe418 Fe 0.52326 0.56111 0.05561 0.0
Fe419 Fe 0.60782 0.55508 0.05906 0.0
O420 O 0.56681 0.58027 1.03262 0.0
O421 O 0.5595 0.53631 0.08134 0.0
O422 O 0.56433 0.53627 0.08224 0.0
Fe423 Fe 0.56113 0.53298 0.13215 0.0
C424 C 0.59842 0.51993 0.99134 0.0
O425 O 0.6164 0.61316 0.99324 0.0
O426 O 0.64813 0.5808 1.02868 0.0
O427 O 0.52776 0.56884 0.13765 0.0
O428 O 0.53177 0.59849 0.09095 0.0
O429 O 0.49176 0.59233 1.02286 0.0
O430 O 0.53371 0.61737 0.98809 0.0
O431 O 0.61695 0.59269 0.0943 0.0
O432 O 0.60364 0.56683 0.14268 0.0
C433 C 0.50186 0.61432 0.99974 0.0
O434 O 0.5159 0.50287 0.12131 0.0
O435 O 0.48295 0.53447 0.08608 0.0
O436 O 0.60315 0.54744 0.97753 0.0
O437 O 0.5987 0.5174 1.02383 0.0
C438 C 0.64586 0.60516 1.00741 0.0
C439 C 0.61769 0.59121 0.12693 0.0
C440 C 0.63025 0.50322 0.11574 0.0
O441 O 0.63968 0.52449 0.09179 0.0
O442 O 0.59829 0.4995 0.12706 0.0
C443 C 0.53131 0.59626 0.12342 0.0
O444 O 0.51453 0.52385 1.02003 0.0
O445 O 0.5268 0.55009 0.97169 0.0
C446 C 0.48609 0.50998 0.10718 0.0
C447 C 0.5123 0.52586 0.98745 0.0
Fe448 Fe 0.07794 0.50721 0.57175 0.0
O449 O 0.05526 0.54094 0.60024 0.0
Fe450 Fe 0.10051 0.55208 0.49956 0.0
Fe451 Fe 0.05234 0.54096 0.65108 0.0
O452 O 0.10076 0.54746 0.55015 0.0
O453 O 0.1003 0.55244 0.55092 0.0
O454 O 0.05568 0.54551 0.60144 0.0
Fe455 Fe 0.07629 0.58585 0.57872 0.0
C456 C 1.02347 0.47368 0.62238 0.0
O457 O 0.12012 0.5053 0.60823 0.0
O458 O 0.09135 0.50878 0.65718 0.0
O459 O 0.10339 0.62338 0.54723 0.0
O460 O 0.13359 0.59408 0.50886 0.0
O461 O 0.13757 0.51798 0.50356 0.0
O462 O 0.10767 0.47874 0.53608 0.0
O463 O 0.09053 0.57867 0.66164 0.0
O464 O 0.11871 0.59113 0.61334 0.0
C465 C 0.13165 0.48801 0.51321 0.0
O466 O 1.03366 0.58034 0.5457 0.0
O467 O 0.05864 0.58101 0.49487 0.0
O468 O 0.04808 0.47093 0.59986 0.0
O469 O 1.01795 0.50008 0.63911 0.0
C470 C 0.11747 0.49996 0.64056 0.0
C471 C 0.11691 0.59193 0.64598 0.0
C472 C 1.02183 0.60745 0.63701 0.0
O473 O 1.01627 0.57753 0.64729 0.0
O474 O 1.04553 0.61553 0.6134 0.0
C475 C 0.1272 0.62116 0.52344 0.0
O476 O 0.06456 0.51248 0.48883 0.0
O477 O 1.03472 0.50361 0.5361 0.0
C478 C 1.03136 0.58009 0.51318 0.0
C479 C 1.0372 0.50045 0.5036 0.0
Fe480 Fe 0.58829 0.99334 0.5027 0.0
O481 O 0.60674 1.01767 0.55311 0.0
Fe482 Fe 0.59469 0.0617 0.44803 0.0
Fe483 Fe 0.62337 1.00991 0.60637 0.0
O484 O 0.60171 0.04106 0.49434 0.0
O485 O 0.60002 0.04498 0.49675 0.0
O486 O 0.62601 1.02621 0.55934 0.0
Fe487 Fe 0.61948 0.06967 0.54209 0.0
C488 C 0.57369 0.96465 0.57098 0.0
O489 O 0.6388 0.97776 0.50585 0.0
O490 O 0.63956 1.00549 0.55333 0.0
O491 O 0.67037 0.07282 0.52465 0.0
O492 O 0.62965 0.05444 0.48885 0.0
O493 O 0.6146 1.02264 0.42485 0.0
O494 O 0.58591 0.98079 0.45112 0.0
O495 O 0.65735 0.05217 0.61764 0.0
O496 O 0.63971 0.09292 0.58594 0.0
C497 C 0.60545 0.99238 0.42741 0.0
O498 O 0.60973 0.11364 0.5211 0.0
O499 O 0.57589 0.10127 0.47222 0.0
O500 O 0.57586 0.99039 0.55344 0.0
O501 O 0.5909 0.96696 0.59935 0.0
C502 C 0.65409 0.98328 0.53497 0.0
C503 C 0.65753 0.08244 0.61107 0.0
C504 C 0.5609 0.05532 0.59214 0.0
O505 O 0.579 0.03664 0.61077 0.0
O506 O 0.57048 0.06634 0.56292 0.0
C507 C 0.66351 0.06394 0.49419 0.0
O508 O 0.54406 0.03576 0.44763 0.0
O509 O 0.53808 1.00821 0.49692 0.0
C510 C 0.58615 0.11984 0.4982 0.0
C511 C 0.52513 1.01845 0.46868 0.0
H512 H 0.29351 0.24422 0.41496 0.0
H513 H 0.21554 0.22277 0.33221 0.0
H514 H 0.25809 0.20791 0.4522 0.0
H515 H 0.18051 0.18638 0.36914 0.0
H516 H 0.10817 0.14619 0.45686 0.0
H517 H 0.14231 0.18206 0.41767 0.0
H518 H 0.23981 0.15248 0.46245 0.0
H519 H 0.20627 0.11743 0.50117 0.0
C520 C 0.26903 0.23164 0.40451 0.0
C521 C 0.25787 0.23662 0.37023 0.0
C522 C 0.24856 0.21059 0.42594 0.0
C523 C 0.21602 0.19382 0.414 0.0
C524 C 0.20494 0.1989 0.37973 0.0
C525 C 0.22545 0.21975 0.3583 0.0
C526 C 0.13685 0.14712 0.45809 0.0
C527 C 0.15409 0.12885 0.48272 0.0
C528 C 0.15661 0.1678 0.43556 0.0
C529 C 0.19424 0.17091 0.43697 0.0
C530 C 0.21115 0.15177 0.46087 0.0
C531 C 0.1916 0.13126 0.48313 0.0
H532 H 0.83801 0.2257 0.39623 0.0
H533 H 0.93445 0.26121 0.34911 0.0
H534 H 0.87133 0.1919 0.43421 0.0
H535 H 0.96819 0.22747 0.38702 0.0
H536 H 1.02572 0.17831 0.48026 0.0
H537 H 0.99359 0.21486 0.44348 0.0
H538 H 0.90186 0.14499 0.43943 0.0
H539 H 0.93341 0.10911 0.47544 0.0
C540 C 0.86632 0.22641 0.39378 0.0
C541 C 0.88272 0.24662 0.36885 0.0
C542 C 0.88587 0.20663 0.41574 0.0
C543 C 0.92329 0.20609 0.41443 0.0
C544 C 0.93981 0.22674 0.38976 0.0
C545 C 0.9201 0.24623 0.36751 0.0
C546 C 0.99868 0.17067 0.47169 0.0
C547 C 0.9829 0.13999 0.48154 0.0
C548 C 0.97999 0.1918 0.45013 0.0
C549 C 0.9443 0.18368 0.4378 0.0
C550 C 0.92872 0.15318 0.4481 0.0
C551 C 0.94738 0.13208 0.46899 0.0
H552 H 0.91831 0.82956 0.37928 0.0
H553 H 0.83297 0.83219 0.44966 0.0
H554 H 0.95597 0.86691 0.41689 0.0
H555 H 0.87085 0.86938 0.48733 0.0
H556 H 0.92567 0.97357 0.50457 0.0
H557 H 0.89219 0.92696 0.47712 0.0
H558 H 0.98698 0.87674 0.47598 0.0
H559 H 1.02102 0.92406 0.50393 0.0
C560 C 0.90774 0.83768 0.40303 0.0
C561 C 0.87241 0.82828 0.4112 0.0
C562 C 0.92948 0.85887 0.42471 0.0
C563 C 0.91628 0.87125 0.4549 0.0
C564 C 0.88161 0.86047 0.46401 0.0
C565 C 0.85993 0.83913 0.44245 0.0
C566 C 0.9395 0.95259 0.49866 0.0
C567 C 0.97612 0.95263 0.50602 0.0
C568 C 0.92015 0.92569 0.48327 0.0
C569 C 0.93689 0.89814 0.4745 0.0
C570 C 0.97344 0.89774 0.48243 0.0
C571 C 0.99286 0.92469 0.49846 0.0
H572 H 0.26691 0.97401 0.39617 0.0
H573 H 0.20797 0.02963 0.32518 0.0
H574 H 0.24429 1.00241 0.44414 0.0
H575 H 0.18635 0.05935 0.37345 0.0
H576 H 0.09835 1.0281 0.45021 0.0
H577 H 0.14089 0.03074 0.40541 0.0
H578 H 0.22683 0.04461 0.48209 0.0
H579 H 0.18323 0.0413 0.52751 0.0
C580 C 0.25073 0.99367 0.39075 0.0
C581 C 0.23825 0.99899 0.35704 0.0
C582 C 0.23777 1.0101 0.4184 0.0
C583 C 0.21238 0.03224 0.41263 0.0
C584 C 0.20497 0.04158 0.37867 0.0
C585 C 0.21743 1.02472 0.35102 0.0
C586 C 0.12634 0.03208 0.45748 0.0
C587 C 0.13766 0.03409 0.49212 0.0
C588 C 0.15083 0.03428 0.43177 0.0
C589 C 0.18743 0.03816 0.44005 0.0
C590 C 0.19881 0.04163 0.4749 0.0
C591 C 0.174 0.03968 0.50084 0.0
H592 H 0.20974 0.8542 0.75673 0.0
H593 H 0.3023 0.88555 0.70061 0.0
H594 H 0.17368 0.8866 0.72003 0.0
H595 H 0.26614 0.91791 0.66355 0.0
H596 H 0.2027 1.00038 0.62543 0.0
H597 H 0.23659 0.96497 0.65933 0.0
H598 H 0.14369 0.89725 0.66605 0.0
H599 H 0.1089 0.9336 0.63166 0.0
C600 C 0.22268 0.86788 0.73648 0.0
C601 C 0.25963 0.86687 0.73234 0.0
C602 C 0.20158 0.88657 0.71497 0.0
C603 C 0.21623 0.90564 0.68822 0.0
C604 C 0.2532 0.90434 0.68385 0.0
C605 C 0.27428 0.88539 0.70523 0.0
C606 C 0.18889 0.97801 0.63388 0.0
C607 C 0.15222 0.97065 0.62524 0.0
C608 C 0.20893 0.95716 0.65345 0.0
C609 C 0.19374 0.92748 0.66603 0.0
C610 C 0.15699 0.91977 0.65745 0.0
C611 C 0.13677 0.94071 0.63731 0.0
H612 H 0.28605 0.22965 0.72449 0.0
H613 H 0.19385 0.25614 0.77638 0.0
H614 H 0.24757 0.20152 0.67984 0.0
H615 H 0.15533 0.2279 0.73154 0.0
H616 H 0.17307 0.17873 0.58837 0.0
H617 H 0.20557 0.21417 0.63209 0.0
H618 H 0.13884 0.17104 0.71002 0.0
H619 H 0.10658 0.13569 0.66615 0.0
C620 C 0.25757 0.22933 0.72652 0.0
C621 C 0.24309 0.24507 0.75417 0.0
C622 C 0.2355 0.21351 0.70067 0.0
C623 C 0.19835 0.21276 0.7019 0.0
C624 C 0.18382 0.22801 0.72983 0.0
C625 C 0.20593 0.24416 0.75554 0.0
C626 C 0.16458 0.17782 0.61465 0.0
C627 C 0.13699 0.15505 0.62391 0.0
C628 C 0.18349 0.19767 0.63977 0.0
C629 C 0.1751 0.19513 0.67463 0.0
C630 C 0.14588 0.17375 0.68343 0.0
C631 C 0.12725 0.15366 0.65834 0.0
H632 H 1.0147 0.24349 0.75461 0.0
H633 H 0.9609 0.15983 0.80224 0.0
H634 H 1.02515 0.20975 0.70472 0.0
H635 H 0.97341 0.12632 0.75343 0.0
H636 H 1.03355 0.08011 0.6618 0.0
H637 H 1.03046 0.11047 0.7158 0.0
H638 H 0.96875 0.17857 0.66347 0.0
H639 H 0.97116 0.1477 0.6094 0.0
C640 C 1.00597 0.21788 0.75495 0.0
C641 C 0.98618 0.20462 0.78213 0.0
C642 C 1.01195 0.1987 0.72645 0.0
C643 C 0.99923 0.16586 0.72528 0.0
C644 C 0.98316 0.15174 0.75391 0.0
C645 C 0.97645 0.17099 0.78206 0.0
C646 C 1.01872 0.10121 0.66212 0.0
C647 C 1.00227 0.11161 0.63183 0.0
C648 C 1.01723 0.11858 0.69277 0.0
C649 C 0.99997 0.14693 0.69329 0.0
C650 C 0.98264 0.15689 0.66326 0.0
C651 C 0.9835 0.1391 0.63266 0.0
H652 H 0.84606 0.87223 0.7057 0.0
H653 H 0.92556 0.89435 0.78684 0.0
H654 H 0.8802 0.90889 0.66772 0.0
H655 H 0.95943 0.93102 0.74916 0.0
H656 H 1.02937 0.97423 0.66082 0.0
H657 H 0.99669 0.93743 0.70019 0.0
H658 H 0.89766 0.96407 0.65607 0.0
H659 H 0.9298 1.00022 0.61726 0.0
C660 C 0.87067 0.88494 0.71565 0.0
C661 C 0.8825 0.88006 0.74981 0.0
C662 C 0.89043 0.90627 0.69376 0.0
C663 C 0.92305 0.92349 0.70493 0.0
C664 C 0.93492 0.9183 0.73901 0.0
C665 C 0.91507 0.89722 0.76093 0.0
C666 C 1.00065 0.97257 0.65978 0.0
C667 C 0.98269 0.99066 0.6354 0.0
C668 C 0.98168 0.95126 0.68246 0.0
C669 C 0.94403 0.94699 0.68148 0.0
C670 C 0.92636 0.96567 0.65757 0.0
C671 C 0.94514 0.98693 0.63525 0.0
H672 H 0.42098 0.25604 0.26805 0.0
H673 H 0.33076 0.23905 0.19743 0.0
H674 H 0.45609 0.2249 0.23003 0.0
H675 H 0.36554 0.20775 0.15974 0.0
H676 H 0.42289 0.12246 0.11836 0.0
H677 H 0.39091 0.15704 0.1544 0.0
H678 H 0.48672 0.22011 0.174 0.0
H679 H 0.51923 0.18499 0.13696 0.0
C680 C 0.40836 0.24571 0.24449 0.0
C681 C 0.37237 0.25041 0.23652 0.0
C682 C 0.42885 0.22782 0.22229 0.0
C683 C 0.41428 0.21313 0.19118 0.0
C684 C 0.37829 0.21796 0.18329 0.0
C685 C 0.35805 0.23626 0.20515 0.0
C686 C 0.43755 0.14377 0.13 0.0
C687 C 0.47422 0.15033 0.12405 0.0
C688 C 0.41878 0.16402 0.15088 0.0
C689 C 0.4355 0.19203 0.16779 0.0
C690 C 0.47233 0.19889 0.16195 0.0
C691 C 0.49118 0.17874 0.14025 0.0
H692 H 0.87867 0.35462 0.06383 0.0
H693 H 0.79387 0.35215 0.13493 0.0
H694 H 0.8792 0.41323 0.06152 0.0
H695 H 0.79602 0.41069 0.13373 0.0
H696 H 0.88405 0.52298 0.1012 0.0
H697 H 0.83928 0.48023 0.08123 0.0
H698 H 0.87995 0.41614 0.1561 0.0
H699 H 0.92736 0.45751 0.17316 0.0
C700 C 0.85864 0.36618 0.07732 0.0
C701 C 0.83874 0.34923 0.10228 0.0
C702 C 0.85878 0.39986 0.07581 0.0
C703 C 0.83885 0.41614 0.09904 0.0
C704 C 0.81203 0.39839 0.11628 0.0
C705 C 0.81135 0.36472 0.11722 0.0
C706 C 0.88355 0.50003 0.11362 0.0
C707 C 0.91096 0.49285 0.13693 0.0
C708 C 0.85738 0.47571 0.10243 0.0
C709 C 0.85698 0.44494 0.11661 0.0
C710 C 0.88015 0.43982 0.1446 0.0
C711 C 0.90714 0.46355 0.15453 0.0
H712 H 0.731 0.94249 0.25832 0.0
H713 H 0.79976 0.95884 0.17291 0.0
H714 H 0.69041 0.97887 0.23308 0.0
H715 H 0.75953 0.99506 0.14786 0.0
H716 H 0.68976 0.06406 0.10884 0.0
H717 H 0.73123 0.04508 0.15163 0.0
H718 H 0.65037 0.97146 0.18182 0.0
H719 H 0.60858 0.99117 0.13955 0.0
C720 C 0.73767 0.95426 0.23442 0.0
C721 C 0.76823 0.94748 0.21723 0.0
C722 C 0.7145 0.97508 0.22007 0.0
C723 C 0.72162 0.98959 0.1884 0.0
C724 C 0.75349 0.9846 0.17255 0.0
C725 C 0.77658 0.96377 0.18685 0.0
C726 C 0.6807 0.04427 0.12521 0.0
C727 C 0.6464 0.02846 0.1205 0.0
C728 C 0.70439 0.03344 0.14965 0.0
C729 C 0.69431 1.00636 0.16949 0.0
C730 C 0.6589 0.99247 0.16696 0.0
C731 C 0.635 1.0036 0.14268 0.0
H732 H 0.25935 0.69874 0.29674 0.0
H733 H 0.2138 0.76702 0.22944 0.0
H734 H 0.21219 0.6573 0.27884 0.0
H735 H 0.16719 0.72529 0.21069 0.0
H736 H 0.06922 0.65459 0.20476 0.0
H737 H 0.11488 0.69488 0.22839 0.0
H738 H 0.18946 0.62229 0.23326 0.0
H739 H 0.14365 0.58185 0.21063 0.0
C740 C 0.23959 0.70485 0.2777 0.0
C741 C 0.24063 0.73635 0.26449 0.0
C742 C 0.21242 0.68095 0.26737 0.0
C743 C 0.18546 0.68775 0.24338 0.0
C744 C 0.1869 0.71915 0.22974 0.0
C745 C 0.21399 0.74309 0.24021 0.0
C746 C 0.09512 0.64697 0.21151 0.0
C747 C 0.10249 0.61474 0.20553 0.0
C748 C 0.12159 0.6703 0.22469 0.0
C749 C 0.15631 0.66222 0.23225 0.0
C750 C 0.16314 0.62962 0.228 0.0
C751 C 0.13666 0.60626 0.21495 0.0
H752 H 0.3373 0.91705 0.85469 0.0
H753 H 0.43012 0.864 0.85349 0.0
H754 H 0.36904 0.95766 0.89306 0.0
H755 H 0.4615 0.90401 0.89275 0.0
H756 H 0.51734 0.99189 0.94823 0.0
H757 H 0.48767 0.95867 0.9016 0.0
H758 H 0.38811 0.95969 0.95217 0.0
H759 H 0.41733 0.99352 0.99804 0.0
C760 C 0.36456 0.91416 0.86246 0.0
C761 C 0.3811 0.88718 0.85128 0.0
C762 C 0.3827 0.93734 0.88463 0.0
C763 C 0.4177 0.93393 0.89636 0.0
C764 C 0.4347 0.90761 0.88401 0.0
C765 C 0.41663 0.88455 0.86162 0.0
C766 C 0.48905 0.98528 0.94924 0.0
C767 C 0.46979 0.9953 0.97705 0.0
C768 C 0.47208 0.96609 0.92257 0.0
C769 C 0.4355 0.95642 0.92313 0.0
C770 C 0.41618 0.96708 0.95055 0.0
C771 C 0.43306 0.98633 0.97708 0.0
H772 H 0.10132 0.39775 0.88545 0.0
H773 H 0.15388 0.38563 0.98434 0.0
H774 H 0.0754 0.44546 0.90848 0.0
H775 H 0.12792 0.43243 1.00685 0.0
H776 H 0.12298 0.5359 1.02363 0.0
H777 H 0.14116 0.49536 0.98374 0.0
H778 H 1.03204 0.4567 0.96709 0.0
H779 H 1.01362 0.49748 1.00706 0.0
C780 C 0.10695 0.40497 0.91208 0.0
C781 C 0.12964 0.38789 0.93306 0.0
C782 C 0.09214 0.43213 0.92514 0.0
C783 C 0.10036 0.44274 0.95909 0.0
C784 C 0.12172 0.42491 0.98036 0.0
C785 C 0.13615 0.39781 0.96755 0.0
C786 C 0.1027 0.51978 1.01021 0.0
C787 C 0.06702 0.51947 1.0188 0.0
C788 C 0.11311 0.49652 0.98757 0.0
C789 C 0.08799 0.4727 0.97309 0.0
C790 C 0.05179 0.47491 0.97805 0.0
C791 C 1.0413 0.49835 1.00078 0.0
H792 H 0.68501 0.27104 0.84257 0.0
H793 H 0.76805 0.2684 0.92134 0.0
H794 H 0.6436 0.24049 0.87902 0.0
H795 H 0.72631 0.23755 0.95786 0.0
H796 H 0.63538 0.19723 1.02402 0.0
H797 H 0.66903 0.23871 0.99057 0.0
H798 H 0.64044 0.1829 0.8976 0.0
H799 H 0.60752 0.14166 0.93096 0.0
C800 C 0.69442 0.26433 0.86782 0.0
C801 C 0.73008 0.27203 0.87882 0.0
C802 C 0.6706 0.24669 0.8887 0.0
C803 C 0.68164 0.23645 0.92129 0.0
C804 C 0.71687 0.24533 0.933 0.0
C805 C 0.74086 0.26281 0.91195 0.0
C806 C 0.63541 0.19451 0.9963 0.0
C807 C 0.61858 0.16648 0.97996 0.0
C808 C 0.65503 0.21797 0.97723 0.0
C809 C 0.65756 0.21402 0.94144 0.0
C810 C 0.63881 0.18688 0.92502 0.0
C811 C 0.61987 0.16326 0.9441 0.0
H812 H 0.99078 0.81146 1.01796 0.0
H813 H 0.88586 0.81771 0.05632 0.0
H814 H 1.0002 0.76851 0.05738 0.0
H815 H 0.89515 0.77339 0.0953 0.0
H816 H 0.90235 0.65989 0.07861 0.0
H817 H 0.89708 0.717 0.06813 0.0
H818 H 1.00144 0.7416 0.11501 0.0
H819 H 1.00691 0.68443 0.12551 0.0
C820 C 0.97029 0.80493 1.03595 0.0
C821 C 0.93694 0.81721 1.03298 0.0
C822 C 0.97574 0.78003 0.05859 0.0
C823 C 0.94791 0.76698 0.07846 0.0
C824 C 0.91668 0.78262 0.07951 0.0
C825 C 0.91138 0.8079 0.05716 0.0
C826 C 0.92404 0.67747 0.08696 0.0
C827 C 0.9552 0.66761 0.1024 0.0
C828 C 0.92078 0.71022 0.08154 0.0
C829 C 0.94874 0.7337 0.09116 0.0
C830 C 0.97944 0.72397 0.10761 0.0
C831 C 0.98256 0.69124 0.11339 0.0
H832 H 0.10995 0.28515 0.13328 0.0
H833 H 0.19551 0.32829 0.07347 0.0
H834 H 0.07321 0.32645 0.11487 0.0
H835 H 0.1584 0.3706 0.05583 0.0
H836 H 0.12605 0.45832 0.12499 0.0
H837 H 0.1498 0.40798 0.10913 0.0
H838 H 1.04516 0.36716 0.07483 0.0
H839 H 1.02115 0.41794 0.09049 0.0
C840 C 0.12046 0.30223 0.11459 0.0
C841 C 0.15657 0.30463 0.10658 0.0
C842 C 0.09914 0.32614 0.10408 0.0
C843 C 0.11374 0.35248 0.08545 0.0
C844 C 0.14709 0.35095 0.07124 0.0
C845 C 0.16831 0.32676 0.08141 0.0
C846 C 0.10803 0.43861 0.11428 0.0
C847 C 0.07168 0.44187 0.10954 0.0
C848 C 0.12175 0.41007 0.10438 0.0
C849 C 0.09938 0.38404 0.08992 0.0
C850 C 0.06298 0.38712 0.08534 0.0
C851 C 0.04928 0.41595 0.09475 0.0
H852 H 0.21255 0.76567 1.02412 0.0
H853 H 0.12367 0.7564 0.95077 0.0
H854 H 0.18053 0.72709 0.06138 0.0
H855 H 0.09202 0.71734 0.98737 0.0
H856 H 1.03697 0.65695 0.06878 0.0
H857 H 0.06395 0.70524 0.04125 0.0
H858 H 0.16709 0.66932 0.05426 0.0
H859 H 0.14045 0.62185 0.08254 0.0
C860 C 0.18598 0.75566 1.01629 0.0
C861 C 0.17059 0.76364 0.98461 0.0
C862 C 0.16773 0.73358 1.03745 0.0
C863 C 0.13404 0.71887 1.02697 0.0
C864 C 0.11779 0.72849 0.99627 0.0
C865 C 0.13592 0.75079 0.97529 0.0
C866 C 0.0654 0.65947 0.06573 0.0
C867 C 0.08665 0.63566 0.07766 0.0
C868 C 0.08081 0.68709 0.05007 0.0
C869 C 0.11764 0.69115 0.04591 0.0
C870 C 0.13876 0.66727 0.05787 0.0
C871 C 0.12344 0.63989 0.07372 0.0
H872 H 0.32578 0.22762 0.91383 0.0
H873 H 0.41211 0.23832 0.84464 0.0
H874 H 0.3585 0.19179 0.94929 0.0
H875 H 0.44454 0.20138 0.87929 0.0
H876 H 0.51032 0.15432 0.96434 0.0
H877 H 0.47826 0.18987 0.9274 0.0
H878 H 0.3788 0.14277 0.9599 0.0
H879 H 0.41088 0.10844 0.99757 0.0
C880 C 0.35163 0.22209 0.9058 0.0
C881 C 0.36586 0.23625 0.87594 0.0
C882 C 0.37063 0.20107 0.92626 0.0
C883 C 0.40477 0.19286 0.91776 0.0
C884 C 0.41885 0.20696 0.88765 0.0
C885 C 0.39992 0.22821 0.86732 0.0
C886 C 0.48159 0.15135 0.96347 0.0
C887 C 0.46358 0.12811 0.98439 0.0
C888 C 0.4629 0.1719 0.94196 0.0
C889 C 0.42529 0.17005 0.94016 0.0
C890 C 0.40748 0.14616 0.96058 0.0
C891 C 0.42612 0.1259 0.98223 0.0
H892 H 0.78723 0.39907 0.89645 0.0
H893 H 0.8928 0.38841 0.86253 0.0
H894 H 0.81248 0.43681 0.94215 0.0
H895 H 0.91763 0.42613 0.90704 0.0
H896 H 0.95498 0.45775 1.01453 0.0
H897 H 0.92673 0.42467 0.96784 0.0
H898 H 0.84496 0.49008 0.95715 0.0
H899 H 0.87303 0.5233 1.00498 0.0
C900 C 0.81568 0.40513 0.89836 0.0
C901 C 0.83794 0.39035 0.87601 0.0
C902 C 0.83019 0.4268 0.92452 0.0
C903 C 0.86725 0.43417 0.9288 0.0
C904 C 0.88912 0.42046 0.9053 0.0
C905 C 0.87475 0.39887 0.8795 0.0
C906 C 0.9311 0.46545 1.00231 0.0
C907 C 0.91666 0.49363 1.01363 0.0
C908 C 0.91488 0.44638 0.97521 0.0
C909 C 0.88365 0.45475 0.95826 0.0
C910 C 0.86889 0.48276 0.96963 0.0
C911 C 0.88522 0.502 0.9969 0.0
H912 H 0.72623 0.88792 0.83554 0.0
H913 H 0.7805 0.86652 0.93011 0.0
H914 H 0.68755 0.9211 0.86733 0.0
H915 H 0.74102 0.89896 0.96219 0.0
H916 H 0.64374 0.94346 1.01726 0.0
H917 H 0.68177 0.90853 0.98612 0.0
H918 H 0.6788 0.97091 0.89901 0.0
H919 H 0.64207 1.00597 0.93031 0.0
C920 C 0.73025 0.88994 0.86319 0.0
C921 C 0.75784 0.8736 0.87919 0.0
C922 C 0.70756 0.90954 0.88192 0.0
C923 C 0.70977 0.91384 0.91846 0.0
C924 C 0.73705 0.89705 0.93455 0.0
C925 C 0.76038 0.8781 0.91567 0.0
C926 C 0.65052 0.94976 0.99128 0.0
C927 C 0.63807 0.97835 0.97704 0.0
C928 C 0.67321 0.92949 0.97308 0.0
C929 C 0.68462 0.93571 0.9389 0.0
C930 C 0.67143 0.96389 0.92464 0.0
C931 C 0.6497 0.9845 0.94306 0.0
H932 H 0.83857 0.67116 0.34281 0.0
H933 H 0.91149 0.73909 0.29183 0.0
H934 H 0.86565 0.62607 0.31647 0.0
H935 H 0.93893 0.69422 0.26598 0.0
H936 H 0.87794 0.58167 0.20154 0.0
H937 H 0.86092 0.61434 0.24971 0.0
H938 H 0.97135 0.64182 0.27644 0.0
H939 H 0.98854 0.60875 0.22856 0.0
C940 C 0.86122 0.6764 0.32709 0.0
C941 C 0.87275 0.7085 0.31911 0.0
C942 C 0.87659 0.65065 0.31191 0.0
C943 C 0.90424 0.65674 0.28915 0.0
C944 C 0.91785 0.68886 0.28369 0.0
C945 C 0.90203 0.71454 0.2983 0.0
C946 C 0.89858 0.59382 0.21838 0.0
C947 C 0.9345 0.59295 0.21108 0.0
C948 C 0.88886 0.61234 0.24607 0.0
C949 C 0.91488 0.6307 0.26658 0.0
C950 C 0.95085 0.62787 0.26093 0.0
C951 C 0.96061 0.60886 0.2336 0.0
H952 H 0.3508 0.90834 0.2469 0.0
H953 H 0.40561 0.82466 0.22388 0.0
H954 H 0.38857 0.94067 0.20863 0.0
H955 H 0.44393 0.8574 0.18514 0.0
H956 H 0.48434 0.92591 0.09185 0.0
H957 H 0.45043 0.88834 0.13009 0.0
H958 H 0.44683 0.96601 0.20418 0.0
H959 H 0.48003 1.00275 0.16663 0.0
C960 C 0.37091 0.89659 0.23371 0.0
C961 C 0.3746 0.86343 0.23908 0.0
C962 C 0.39307 0.91545 0.21161 0.0
C963 C 0.42019 0.90228 0.1934 0.0
C964 C 0.42358 0.86888 0.19821 0.0
C965 C 0.40147 0.84995 0.22074 0.0
C966 C 0.47717 0.93474 0.11669 0.0
C967 C 0.48548 0.96782 0.12572 0.0
C968 C 0.45727 0.91313 0.13873 0.0
C969 C 0.44463 0.92382 0.17048 0.0
C970 C 0.45469 0.95646 0.1799 0.0
C971 C 0.47442 0.97773 0.15822 0.0
H972 H 0.70413 0.26069 0.25366 0.0
H973 H 0.79591 0.2154 0.22232 0.0
H974 H 0.66643 0.22514 0.21389 0.0
H975 H 0.75844 0.17918 0.18373 0.0
H976 H 0.69238 0.14174 0.08997 0.0
H977 H 0.72741 0.17571 0.13183 0.0
H978 H 0.63773 0.17369 0.19734 0.0
H979 H 0.60178 0.1401 0.15411 0.0
C980 C 0.71634 0.24292 0.23861 0.0
C981 C 0.75339 0.24128 0.24142 0.0
C982 C 0.69453 0.22223 0.21574 0.0
C983 C 0.70891 0.19899 0.19483 0.0
C984 C 0.74593 0.19699 0.19839 0.0
C985 C 0.76767 0.21777 0.221 0.0
C986 C 0.6798 0.14828 0.11327 0.0
C987 C 0.64384 0.13774 0.11823 0.0
C988 C 0.7003 0.16783 0.13776 0.0
C989 C 0.68606 0.1777 0.16873 0.0
C990 C 0.65 0.16712 0.17391 0.0
C991 C 0.62926 0.14751 0.1491 0.0
H992 H 0.81487 0.75065 0.93494 0.0
H993 H 0.74218 0.71975 0.85042 0.0
H994 H 0.78333 0.71077 0.972 0.0
H995 H 0.71124 0.68012 0.88698 0.0
H996 H 0.67826 0.59211 0.94858 0.0
H997 H 0.71829 0.62897 0.91622 0.0
H998 H 0.72391 0.69861 0.99998 0.0
H999 H 0.68342 0.66142 1.03226 0.0
C1000 C 0.7924 0.73528 0.92409 0.0
C1001 C 0.78134 0.73868 0.88939 0.0
C1002 C 0.77412 0.71244 0.94548 0.0
C1003 C 0.74463 0.69175 0.93269 0.0
C1004 C 0.734 0.69504 0.89792 0.0
C1005 C 0.75177 0.71811 0.87684 0.0
C1006 C 0.68912 0.61475 0.96069 0.0
C1007 C 0.67837 0.62321 0.99358 0.0
C1008 C 0.71168 0.63627 0.94183 0.0
C1009 C 0.72435 0.66722 0.95507 0.0
C1010 C 0.71511 0.67504 0.98882 0.0
C1011 C 0.6921 0.65353 1.00759 0.0
H1012 H 0.4148 0.73532 0.83818 0.0
H1013 H 0.33773 0.7435 0.91563 0.0
H1014 H 0.44641 0.69973 0.87515 0.0
H1015 H 0.36954 0.70732 0.95294 0.0
H1016 H 0.42609 0.61553 0.99895 0.0
H1017 H 0.38928 0.6508 0.96484 0.0
H1018 H 0.484 0.70067 0.92597 0.0
H1019 H 0.51995 0.66682 0.95949 0.0
C1020 C 0.40431 0.72962 0.8631 0.0
C1021 C 0.37327 0.74305 0.8733 0.0
C1022 C 0.42282 0.709 0.88475 0.0
C1023 C 0.41128 0.70013 0.91786 0.0
C1024 C 0.37974 0.71298 0.9279 0.0
C1025 C 0.3614 0.73412 0.90631 0.0
C1026 C 0.43917 0.63427 0.98354 0.0
C1027 C 0.47674 0.63741 0.98259 0.0
C1028 C 0.41786 0.65468 0.96363 0.0
C1029 C 0.43308 0.67884 0.94147 0.0
C1030 C 0.47047 0.68229 0.94152 0.0
C1031 C 0.49147 0.66249 0.96141 0.0
H1032 H 0.35001 0.37452 0.91841 0.0
H1033 H 0.41188 0.39159 0.82836 0.0
H1034 H 0.38954 0.41462 0.95059 0.0
H1035 H 0.45237 0.43091 0.86092 0.0
H1036 H 0.49416 0.52485 0.9186 0.0
H1037 H 0.45704 0.48349 0.88577 0.0
H1038 H 0.44689 0.42511 0.97661 0.0
H1039 H 0.48306 0.46708 1.00977 0.0
C1040 C 0.37222 0.38668 0.9055 0.0
C1041 C 0.37762 0.37986 0.87071 0.0
C1042 C 0.39516 0.40956 0.92409 0.0
C1043 C 0.42442 0.42609 0.90855 0.0
C1044 C 0.42989 0.41913 0.87372 0.0
C1045 C 0.4067 0.39644 0.85502 0.0
C1046 C 0.48408 0.50318 0.93164 0.0
C1047 C 0.4913 0.49959 0.96703 0.0
C1048 C 0.46292 0.47925 0.91266 0.0
C1049 C 0.44856 0.45089 0.92844 0.0
C1050 C 0.45672 0.44688 0.96364 0.0
C1051 C 0.47769 0.47093 0.98269 0.0
H1052 H 0.63256 0.35382 0.88449 0.0
H1053 H 0.56086 0.39709 0.81392 0.0
H1054 H 0.61165 0.38437 0.9316 0.0
H1055 H 0.53862 0.42704 0.86172 0.0
H1056 H 0.58844 0.5189 0.92202 0.0
H1057 H 0.57621 0.47266 0.88403 0.0
H1058 H 0.57423 0.40894 0.97111 0.0
H1059 H 0.58726 0.45601 1.00973 0.0
C1060 C 0.61081 0.36848 0.87932 0.0
C1061 C 0.59913 0.37398 0.8454 0.0
C1062 C 0.59869 0.38605 0.90652 0.0
C1063 C 0.57454 0.40918 0.90015 0.0
C1064 C 0.55825 0.41023 0.86713 0.0
C1065 C 0.57082 0.39303 0.83979 0.0
C1066 C 0.58536 0.49511 0.93328 0.0
C1067 C 0.59003 0.49108 0.96885 0.0
C1068 C 0.57748 0.46847 0.91143 0.0
C1069 C 0.5741 0.43695 0.92447 0.0
C1070 C 0.57691 0.43292 0.96027 0.0
C1071 C 0.58472 0.4598 0.98232 0.0
H1072 H 0.77606 0.35592 0.19039 0.0
H1073 H 0.74926 0.40672 0.28125 0.0
H1074 H 0.74077 0.3908 0.15474 0.0
H1075 H 0.71546 0.44228 0.24599 0.0
H1076 H 0.62495 0.4785 0.18037 0.0
H1077 H 0.66217 0.44477 0.21286 0.0
H1078 H 0.73437 0.44592 0.12987 0.0
H1079 H 0.69621 0.48055 0.0965 0.0
C1080 C 0.76339 0.37497 0.20281 0.0
C1081 C 0.76633 0.37819 0.23909 0.0
C1082 C 0.74315 0.39535 0.18219 0.0
C1083 C 0.72514 0.42037 0.1967 0.0
C1084 C 0.7283 0.42356 0.23307 0.0
C1085 C 0.74813 0.40299 0.25364 0.0
C1086 C 0.64868 0.47187 0.16847 0.0
C1087 C 0.6567 0.48287 0.135 0.0
C1088 C 0.67059 0.45234 0.18771 0.0
C1089 C 0.70206 0.44202 0.17482 0.0
C1090 C 0.71046 0.45282 0.14122 0.0
C1091 C 0.68851 0.47308 0.1219 0.0
H1092 H 0.73492 0.76467 0.22673 0.0
H1093 H 0.74239 0.68187 0.29204 0.0
H1094 H 0.69737 0.7304 0.18517 0.0
H1095 H 0.70583 0.64825 0.25093 0.0
H1096 H 0.66587 0.64091 0.10695 0.0
H1097 H 0.69991 0.68165 0.14445 0.0
H1098 H 0.64321 0.64381 0.23163 0.0
H1099 H 0.61037 0.60297 0.19493 0.0
C1100 C 0.72868 0.73928 0.23219 0.0
C1101 C 0.74143 0.72613 0.26288 0.0
C1102 C 0.70733 0.71969 0.20838 0.0
C1103 C 0.69824 0.68675 0.21503 0.0
C1104 C 0.71164 0.67368 0.24537 0.0
C1105 C 0.73285 0.69304 0.26892 0.0
C1106 C 0.66057 0.64153 0.13409 0.0
C1107 C 0.63598 0.61821 0.14807 0.0
C1108 C 0.67989 0.66495 0.15548 0.0
C1109 C 0.67472 0.66548 0.19109 0.0
C1110 C 0.6485 0.64348 0.20447 0.0
C1111 C 0.62961 0.62006 0.18334 0.0
H1112 H 0.55551 0.72691 0.29626 0.0
H1113 H 0.48668 0.76547 0.21931 0.0
H1114 H 0.58016 0.6945 0.25185 0.0
H1115 H 0.51084 0.73321 0.17549 0.0
H1116 H 0.54438 0.65934 0.10334 0.0
H1117 H 0.55343 0.70775 0.14043 0.0
H1118 H 0.54106 0.64761 0.22979 0.0
H1119 H 0.5323 0.59978 0.19323 0.0
C1120 C 0.54679 0.72957 0.26973 0.0
C1121 C 0.51822 0.74772 0.26149 0.0
C1122 C 0.56081 0.71099 0.24433 0.0
C1123 C 0.54628 0.71031 0.21052 0.0
C1124 C 0.52236 0.73289 0.20135 0.0
C1125 C 0.50845 0.75153 0.22668 0.0
C1126 C 0.54369 0.65655 0.13093 0.0
C1127 C 0.53674 0.62578 0.14532 0.0
C1128 C 0.54929 0.68421 0.15212 0.0
C1129 C 0.54828 0.68152 0.18802 0.0
C1130 C 0.54279 0.65059 0.20228 0.0
C1131 C 0.537 0.62312 0.18123 0.0
H1132 H 0.40971 0.37282 0.2513 0.0
H1133 H 0.30781 0.39771 0.21252 0.0
H1134 H 0.43917 0.40932 0.21043 0.0
H1135 H 0.33774 0.4352 0.17184 0.0
H1136 H 0.42335 0.52591 0.13603 0.0
H1137 H 0.38418 0.49002 0.17147 0.0
H1138 H 0.44203 0.4094 0.14422 0.0
H1139 H 0.48007 0.44461 0.10867 0.0
C1140 C 0.39343 0.38628 0.23433 0.0
C1141 C 0.35613 0.38199 0.23557 0.0
C1142 C 0.41046 0.40724 0.2106 0.0
C1143 C 0.39103 0.42535 0.18749 0.0
C1144 C 0.35371 0.42184 0.18919 0.0
C1145 C 0.33652 0.40019 0.21254 0.0
C1146 C 0.4266 0.50026 0.13633 0.0
C1147 C 0.45478 0.48827 0.11888 0.0
C1148 C 0.40441 0.47967 0.15708 0.0
C1149 C 0.41023 0.44673 0.1614 0.0
C1150 C 0.43691 0.43457 0.14215 0.0
C1151 C 0.45853 0.45483 0.12128 0.0
H1152 H 0.85132 0.71669 0.73584 0.0
H1153 H 0.94838 0.76656 0.77739 0.0
H1154 H 0.88528 0.68102 0.70197 0.0
H1155 H 0.98263 0.73129 0.74258 0.0
H1156 H 1.03769 0.67543 0.65219 0.0
H1157 H 1.00466 0.7127 0.68594 0.0
H1158 H 0.92198 0.63603 0.69918 0.0
H1159 H 0.9552 0.59896 0.66658 0.0
C1160 C 0.87999 0.72042 0.73805 0.0
C1161 C 0.89605 0.74546 0.76055 0.0
C1162 C 0.89998 0.69939 0.7182 0.0
C1163 C 0.93782 0.70208 0.7184 0.0
C1164 C 0.95397 0.72748 0.74055 0.0
C1165 C 0.9339 0.74808 0.76113 0.0
C1166 C 1.0123 0.66629 0.66182 0.0
C1167 C 0.99988 0.63315 0.65526 0.0
C1168 C 0.99306 0.68803 0.68193 0.0
C1169 C 0.95951 0.67857 0.69634 0.0
C1170 C 0.947 0.64561 0.68911 0.0
C1171 C 0.96656 0.6238 0.66989 0.0
H1172 H 0.46878 0.77698 0.58371 0.0
H1173 H 0.40421 0.85717 0.59171 0.0
H1174 H 0.50994 0.80998 0.54886 0.0
H1175 H 0.44395 0.88896 0.55574 0.0
H1176 H 0.58402 0.9048 0.59501 0.0
H1177 H 0.54452 0.8558 0.58499 0.0
H1178 H 0.48578 0.90403 0.50706 0.0
H1179 H 0.52628 0.95286 0.51666 0.0
C1180 C 0.46242 0.80103 0.57683 0.0
C1181 C 0.43429 0.81504 0.59221 0.0
C1182 C 0.48584 0.81976 0.55654 0.0
C1183 C 0.48078 0.85236 0.55068 0.0
C1184 C 0.4488 0.86399 0.56011 0.0
C1185 C 0.42581 0.84556 0.58094 0.0
C1186 C 0.5635 0.90463 0.57485 0.0
C1187 C 0.55717 0.93311 0.55757 0.0
C1188 C 0.54107 0.87636 0.56874 0.0
C1189 C 0.51161 0.87627 0.54564 0.0
C1190 C 0.50809 0.90351 0.52522 0.0
C1191 C 0.53105 0.93162 0.53095 0.0
H1192 H 0.28693 0.37934 0.71708 0.0
H1193 H 0.21376 0.38187 0.79901 0.0
H1194 H 0.25213 0.41515 0.68336 0.0
H1195 H 0.17809 0.41638 0.76501 0.0
H1196 H 0.13024 0.4982 0.7104 0.0
H1197 H 0.16871 0.46561 0.7434 0.0
H1198 H 0.20296 0.4244 0.64919 0.0
H1199 H 0.16516 0.45845 0.61606 0.0
C1200 C 0.26337 0.38744 0.72805 0.0
C1201 C 0.25368 0.37752 0.76126 0.0
C1202 C 0.24297 0.40798 0.70837 0.0
C1203 C 0.2117 0.41936 0.72085 0.0
C1204 C 0.2021 0.40925 0.75414 0.0
C1205 C 0.22268 0.389 0.77389 0.0
C1206 C 0.14614 0.48242 0.6965 0.0
C1207 C 0.1442 0.48134 0.6602 0.0
C1208 C 0.16822 0.46316 0.71568 0.0
C1209 C 0.18922 0.44137 0.69961 0.0
C1210 C 0.18785 0.44077 0.66313 0.0
C1211 C 0.16593 0.46045 0.64385 0.0
H1212 H 0.73696 0.26579 0.70778 0.0
H1213 H 0.79213 0.19792 0.76756 0.0
H1214 H 0.70868 0.22169 0.67216 0.0
H1215 H 0.7649 0.15347 0.73072 0.0
H1216 H 0.68403 0.14301 0.59327 0.0
H1217 H 0.71672 0.18482 0.62896 0.0
H1218 H 0.71235 0.12043 0.71541 0.0
H1219 H 0.68084 0.0778 0.67877 0.0
C1220 C 0.74356 0.24145 0.71302 0.0
C1221 C 0.76706 0.23559 0.74055 0.0
C1222 C 0.7274 0.21595 0.69233 0.0
C1223 C 0.73451 0.18365 0.69807 0.0
C1224 C 0.75827 0.1778 0.72555 0.0
C1225 C 0.77419 0.2034 0.74659 0.0
C1226 C 0.69015 0.13762 0.61987 0.0
C1227 C 0.67948 0.107 0.63314 0.0
C1228 C 0.70877 0.16183 0.64057 0.0
C1229 C 0.71688 0.15655 0.67553 0.0
C1230 C 0.70698 0.12556 0.68864 0.0
C1231 C 0.68873 0.10104 0.66765 0.0
H1232 H 0.93702 0.38351 0.33079 0.0
H1233 H 0.85655 0.37628 0.40665 0.0
H1234 H 0.97574 0.41843 0.37026 0.0
H1235 H 0.89451 0.4117 0.44548 0.0
H1236 H 0.98479 0.4527 0.52185 0.0
H1237 H 0.94481 0.41771 0.48322 0.0
H1238 H 0.98626 0.46994 0.39595 0.0
H1239 H 1.02637 0.50387 0.43417 0.0
C1240 C 0.92737 0.38953 0.3557 0.0
C1241 C 0.8934 0.37686 0.36516 0.0
C1242 C 0.9496 0.40981 0.37849 0.0
C1243 C 0.93861 0.41829 0.41153 0.0
C1244 C 0.90455 0.40561 0.42078 0.0
C1245 C 0.88247 0.38532 0.39813 0.0
C1246 C 0.98507 0.45688 0.49446 0.0
C1247 C 1.00921 0.48111 0.48137 0.0
C1248 C 0.96206 0.43675 0.4721 0.0
C1249 C 0.96229 0.44035 0.43595 0.0
C1250 C 0.98563 0.46543 0.42325 0.0
C1251 C 1.00861 0.48527 0.44544 0.0
H1252 H 0.75052 0.88173 0.31521 0.0
H1253 H 0.69624 0.81837 0.38746 0.0
H1254 H 0.70996 0.92263 0.3261 0.0
H1255 H 0.65694 0.85965 0.39975 0.0
H1256 H 0.57893 0.93081 0.40933 0.0
H1257 H 0.61038 0.88943 0.38191 0.0
H1258 H 0.70061 0.95986 0.36991 0.0
H1259 H 0.6684 1.00138 0.39567 0.0
C1260 C 0.72988 0.87654 0.33341 0.0
C1261 C 0.72671 0.84692 0.35067 0.0
C1262 C 0.7067 0.90005 0.33978 0.0
C1263 C 0.68019 0.89467 0.364 0.0
C1264 C 0.6765 0.86457 0.38046 0.0
C1265 C 0.69928 0.8409 0.37365 0.0
C1266 C 0.60516 0.93754 0.40001 0.0
C1267 C 0.62132 0.96924 0.40486 0.0
C1268 C 0.62335 0.91377 0.38459 0.0
C1269 C 0.6584 0.92102 0.37432 0.0
C1270 C 0.6736 0.9533 0.37717 0.0
C1271 C 0.65514 0.9772 0.39205 0.0
H1272 H 0.29382 0.74693 0.42244 0.0
H1273 H 0.19584 0.76908 0.37247 0.0
H1274 H 0.26078 0.71399 0.46378 0.0
H1275 H 0.16237 0.73499 0.41333 0.0
H1276 H 0.10632 0.68158 0.50314 0.0
H1277 H 0.13962 0.72214 0.46808 0.0
H1278 H 0.22943 0.66532 0.47268 0.0
H1279 H 0.19685 0.62617 0.50796 0.0
C1280 C 0.26512 0.74482 0.42008 0.0
C1281 C 0.24794 0.76102 0.39355 0.0
C1282 C 0.24584 0.72543 0.44394 0.0
C1283 C 0.20827 0.72086 0.44239 0.0
C1284 C 0.19102 0.73767 0.4162 0.0
C1285 C 0.21041 0.75733 0.39238 0.0
C1286 C 0.13361 0.67841 0.49768 0.0
C1287 C 0.1488 0.65051 0.50929 0.0
C1288 C 0.15272 0.70149 0.4768 0.0
C1289 C 0.18781 0.69764 0.4668 0.0
C1290 C 0.20308 0.67024 0.4797 0.0
C1291 C 0.18411 0.6474 0.50026 0.0
H1292 H 0.42952 0.25645 0.51963 0.0
H1293 H 0.51713 0.30192 0.46396 0.0
H1294 H 0.46684 0.21459 0.53835 0.0
H1295 H 0.55426 0.26123 0.48409 0.0
H1296 H 0.61309 0.17822 0.52669 0.0
H1297 H 0.58158 0.22695 0.53371 0.0
H1298 H 0.48588 0.17497 0.49017 0.0
H1299 H 0.51724 0.12695 0.48243 0.0
C1300 C 0.45695 0.25828 0.51235 0.0
C1301 C 0.46977 0.28199 0.4892 0.0
C1302 C 0.47832 0.23443 0.5233 0.0
C1303 C 0.51308 0.23443 0.51198 0.0
C1304 C 0.52752 0.26071 0.49316 0.0
C1305 C 0.50604 0.28421 0.48171 0.0
C1306 C 0.58528 0.17732 0.51882 0.0
C1307 C 0.56771 0.14914 0.50335 0.0
C1308 C 0.56729 0.20501 0.52307 0.0
C1309 C 0.53127 0.20448 0.5129 0.0
C1310 C 0.51349 0.17584 0.49879 0.0
C1311 C 0.53159 0.14856 0.49379 0.0
H1312 H 0.66581 0.80954 0.63541 0.0
H1313 H 0.76691 0.81473 0.58631 0.0
H1314 H 0.65167 0.858 0.60671 0.0
H1315 H 0.75288 0.86475 0.55863 0.0
H1316 H 0.69162 0.9432 0.49938 0.0
H1317 H 0.71066 0.89179 0.51888 0.0
H1318 H 0.68084 0.91439 0.62187 0.0
H1319 H 0.66168 0.96595 0.60228 0.0
C1320 C 0.68463 0.82014 0.61755 0.0
C1321 C 0.71819 0.80867 0.61416 0.0
C1322 C 0.67672 0.8485 0.60173 0.0
C1323 C 0.70201 0.86583 0.58211 0.0
C1324 C 0.73337 0.85214 0.57454 0.0
C1325 C 0.74129 0.82349 0.59028 0.0
C1326 C 0.68993 0.93747 0.52642 0.0
C1327 C 0.67432 0.95794 0.54931 0.0
C1328 C 0.70078 0.90808 0.53742 0.0
C1329 C 0.69608 0.89885 0.57148 0.0
C1330 C 0.68366 0.92073 0.59513 0.0
C1331 C 0.67302 0.95031 0.58414 0.0
H1332 H 0.77753 0.2071 0.50547 0.0
H1333 H 0.77335 0.21385 0.39499 0.0
H1334 H 0.76592 0.14825 0.50011 0.0
H1335 H 0.7615 0.15514 0.38944 0.0
H1336 H 0.73198 0.05311 0.49656 0.0
H1337 H 0.7781 0.09093 0.47387 0.0
H1338 H 0.69862 0.13372 0.41173 0.0
H1339 H 0.65255 0.09611 0.43484 0.0
C1340 C 0.77597 0.19574 0.48017 0.0
C1341 C 0.77645 0.21451 0.4507 0.0
C1342 C 0.76961 0.16214 0.47693 0.0
C1343 C 0.76281 0.14732 0.44422 0.0
C1344 C 0.76698 0.166 0.41477 0.0
C1345 C 0.7737 0.19945 0.41803 0.0
C1346 C 0.72479 0.06931 0.47638 0.0
C1347 C 0.68899 0.07276 0.46805 0.0
C1348 C 0.75118 0.09082 0.46339 0.0
C1349 C 0.74164 0.11573 0.44207 0.0
C1350 C 0.70657 0.11476 0.4284 0.0
C1351 C 0.68008 0.09327 0.44158 0.0
H1352 H 0.82749 0.62983 0.49703 0.0
H1353 H 0.82777 0.58337 0.39663 0.0
H1354 H 0.88254 0.60851 0.51261 0.0
H1355 H 0.88512 0.56392 0.41214 0.0
H1356 H 1.00961 0.59904 0.44861 0.0
H1357 H 0.94785 0.59989 0.42694 0.0
H1358 H 0.91085 0.55457 0.5198 0.0
H1359 H 0.97165 0.55386 0.54141 0.0
C1360 C 0.83837 0.61424 0.47847 0.0
C1361 C 0.82284 0.60887 0.44522 0.0
C1362 C 0.87044 0.60228 0.48744 0.0
C1363 C 0.88822 0.58502 0.46337 0.0
C1364 C 0.87202 0.57764 0.43092 0.0
C1365 C 0.83925 0.58895 0.42212 0.0
C1366 C 0.98823 0.58885 0.46402 0.0
C1367 C 0.9953 0.57753 0.49716 0.0
C1368 C 0.95304 0.58901 0.45154 0.0
C1369 C 0.92479 0.5776 0.472 0.0
C1370 C 0.93218 0.56385 0.50378 0.0
C1371 C 0.967 0.56383 0.51623 0.0
H1372 H 0.40406 0.8538 0.39654 0.0
H1373 H 0.33072 0.92196 0.36392 0.0
H1374 H 0.44082 0.89742 0.42722 0.0
H1375 H 0.36852 0.96595 0.39357 0.0
H1376 H 0.49262 1.02181 0.40458 0.0
H1377 H 0.44265 0.9857 0.38084 0.0
H1378 H 0.42805 0.94312 0.48027 0.0
H1379 H 0.47649 0.98034 0.50474 0.0
C1380 C 0.39568 0.87806 0.39609 0.0
C1381 C 0.36451 0.88445 0.37775 0.0
C1382 C 0.41665 0.90296 0.41372 0.0
C1383 C 0.40742 0.93495 0.4127 0.0
C1384 C 0.3761 0.94144 0.39476 0.0
C1385 C 0.3545 0.91628 0.37788 0.0
C1386 C 0.47807 1.00561 0.42177 0.0
C1387 C 0.48946 1.00341 0.45646 0.0
C1388 C 0.44948 0.98488 0.40806 0.0
C1389 C 0.432 0.96136 0.42865 0.0
C1390 C 0.44141 0.96085 0.46381 0.0
C1391 C 0.46937 0.98207 0.4777 0.0
H1392 H 0.1963 0.34851 0.35407 0.0
H1393 H 0.29537 0.39013 0.40055 0.0
H1394 H 0.16389 0.37918 0.395 0.0
H1395 H 0.2633 0.42057 0.44121 0.0
H1396 H 0.19839 0.49841 0.48748 0.0
H1397 H 0.22972 0.46492 0.44945 0.0
H1398 H 0.14442 0.38879 0.45344 0.0
H1399 H 0.11273 0.42289 0.49202 0.0
C1400 C 0.21143 0.3642 0.37285 0.0
C1401 C 0.24903 0.36649 0.37313 0.0
C1402 C 0.19259 0.38184 0.39683 0.0
C1403 C 0.21031 0.40308 0.42217 0.0
C1404 C 0.24792 0.40523 0.42232 0.0
C1405 C 0.26666 0.38738 0.3987 0.0
C1406 C 0.18626 0.47431 0.48094 0.0
C1407 C 0.15272 0.46378 0.49393 0.0
C1408 C 0.20456 0.45476 0.45875 0.0
C1409 C 0.19031 0.42346 0.44753 0.0
C1410 C 0.15681 0.41259 0.46076 0.0
C1411 C 0.13859 0.43215 0.48358 0.0
H1412 H 0.39781 0.18125 0.64122 0.0
H1413 H 0.47384 0.1809 0.72657 0.0
H1414 H 0.42191 0.1342 0.6159 0.0
H1415 H 0.49861 0.13462 0.70106 0.0
H1416 H 0.53511 0.04675 0.65678 0.0
H1417 H 0.4928 0.07876 0.68404 0.0
H1418 H 0.47511 0.1269 0.58797 0.0
H1419 H 0.51583 0.09428 0.56055 0.0
C1420 C 0.41962 0.171 0.65456 0.0
C1421 C 0.43425 0.18485 0.68563 0.0
C1422 C 0.43338 0.14405 0.64015 0.0
C1423 C 0.46232 0.13067 0.65634 0.0
C1424 C 0.47592 0.14384 0.68815 0.0
C1425 C 0.46193 0.17055 0.70269 0.0
C1426 C 0.52139 0.06348 0.64126 0.0
C1427 C 0.52954 0.06843 0.60669 0.0
C1428 C 0.49735 0.08202 0.65696 0.0
C1429 C 0.48116 0.10592 0.63842 0.0
C1430 C 0.4869 0.10869 0.60309 0.0
C1431 C 0.51063 0.09005 0.58738 0.0
H1432 H 0.84553 0.39432 0.7249 0.0
H1433 H 0.91262 0.31651 0.73883 0.0
H1434 H 0.88771 0.42093 0.68692 0.0
H1435 H 0.95498 0.34307 0.69964 0.0
H1436 H 1.04015 0.42645 0.66618 0.0
H1437 H 0.99809 0.38941 0.69625 0.0
H1438 H 0.9122 0.42024 0.63233 0.0
H1439 H 0.95432 0.458 0.60351 0.0
C1440 C 0.86913 0.38257 0.71958 0.0
C1441 C 0.87548 0.35315 0.73519 0.0
C1442 C 0.89337 0.39782 0.69734 0.0
C1443 C 0.92488 0.38418 0.68968 0.0
C1444 C 0.93118 0.3545 0.70498 0.0
C1445 C 0.90677 0.33915 0.72739 0.0
C1446 C 1.01242 0.4243 0.65779 0.0
C1447 C 1.00052 0.44467 0.63216 0.0
C1448 C 0.98818 0.40318 0.67514 0.0
C1449 C 0.95144 0.40207 0.6673 0.0
C1450 C 0.94008 0.42086 0.63979 0.0
C1451 C 0.96426 0.44214 0.62276 0.0
H1452 H 0.24599 0.7048 0.80472 0.0
H1453 H 0.26603 0.75055 0.70735 0.0
H1454 H 0.2106 0.65996 0.77461 0.0
H1455 H 0.22989 0.70698 0.67767 0.0
H1456 H 0.18315 0.61582 0.62692 0.0
H1457 H 0.22627 0.65206 0.66036 0.0
H1458 H 0.15501 0.64986 0.74475 0.0
H1459 H 0.11297 0.61275 0.71217 0.0
C1460 C 0.24267 0.70533 0.77698 0.0
C1461 C 0.25872 0.73112 0.75841 0.0
C1462 C 0.22243 0.67973 0.75971 0.0
C1463 C 0.21757 0.67975 0.72365 0.0
C1464 C 0.23376 0.70565 0.7053 0.0
C1465 C 0.25423 0.73088 0.72242 0.0
C1466 C 0.17698 0.6228 0.65277 0.0
C1467 C 0.14455 0.61165 0.66673 0.0
C1468 C 0.20156 0.64366 0.6719 0.0
C1469 C 0.19393 0.65418 0.70514 0.0
C1470 C 0.16204 0.64199 0.71948 0.0
C1471 C 0.13775 0.62084 0.70059 0.0
loop_
_geom_bond_atom_site_label_1
_geom_bond_atom_site_label_2
_geom_bond_distance
_geom_bond_site_symmetry_2
_ccdc_geom_bond_type
Dy0 O3 2.307 . S
Dy0 O5 2.395 . S
Dy0 O6 2.379 . S
Dy0 O8 2.339 . S
Dy0 O10 2.298 . S
Dy0 O14 2.275 . S
Dy0 C22 2.738 . S
Dy1 O4 2.298 . S
Dy1 O7 2.275 . S
Dy1 O9 2.307 . S
Dy1 O11 2.395 . S
Dy1 O12 2.379 . S
Dy1 O15 2.339 . S
Dy1 C31 2.738 . S
C2 O14 1.254 . S
C2 O15 1.257 . S
O3 Dy0 2.307 . S
O3 C13 1.266 . S
O4 Dy1 2.298 . S
O4 C13 1.236 . S
O5 Dy0 2.395 . S
O5 C22 1.255 . S
O6 Dy0 2.379 . S
O6 C22 1.249 . S
O7 Dy1 2.275 . S
O7 C23 1.254 . S
O8 Dy0 2.339 . S
O8 C23 1.257 . S
O9 Dy1 2.307 . S
O9 C24 1.266 . S
O10 Dy0 2.298 . S
O10 C24 1.236 . S
O11 Dy1 2.395 . S
O11 C31 1.255 . S
O12 Dy1 2.379 . S
O12 C31 1.249 . S
C13 O3 1.266 . S
C13 O4 1.236 . S
O14 Dy0 2.275 . S
O14 C2 1.254 . S
O15 Dy1 2.339 . S
O15 C2 1.257 . S
C16 C19 1.344 . S
C16 C20 1.328 . S
C16 C22 1.516 . S
C17 C18 1.304 . S
C17 C21 1.323 . S
C18 C17 1.304 . S
C18 C19 1.371 . S
C18 H32 0.930 . S
C19 C16 1.344 . S
C19 C18 1.371 . S
C19 H33 0.931 . S
C20 C16 1.328 . S
C20 C21 1.433 . S
C20 H34 0.931 . S
C21 C17 1.323 . S
C21 C20 1.433 . S
C21 H35 0.933 . S
C22 Dy0 2.738 . S
C22 O5 1.255 . S
C22 O6 1.249 . S
C22 C16 1.516 . S
C23 O7 1.254 . S
C23 O8 1.257 . S
C24 O9 1.266 . S
C24 O10 1.236 . S
C25 C28 1.344 . S
C25 C29 1.328 . S
C25 C31 1.516 . S
C26 C27 1.304 . S
C26 C30 1.323 . S
C27 C26 1.304 . S
C27 C28 1.371 . S
C27 H36 0.930 . S
C28 C25 1.344 . S
C28 C27 1.371 . S
C28 H37 0.931 . S
C29 C25 1.328 . S
C29 C30 1.433 . S
C29 H38 0.931 . S
C30 C26 1.323 . S
C30 C29 1.433 . S
C30 H39 0.933 . S
C31 Dy1 2.738 . S
C31 O11 1.255 . S
C31 O12 1.249 . S
C31 C25 1.516 . S
H32 C18 0.930 . S
H33 C19 0.931 . S
H34 C20 0.931 . S
H35 C21 0.933 . S
H36 C27 0.930 . S
H37 C28 0.931 . S
H38 C29 0.931 . S
H39 C30 0.933 . S
Dy40 O43 2.307 . S
Dy40 O45 2.395 . S
Dy40 O46 2.379 . S
Dy40 O48 2.339 . S
Dy40 O50 2.298 . S
Dy40 O54 2.275 . S
Dy40 C62 2.738 . S
Dy41 O44 2.298 . S
Dy41 O47 2.275 . S
Dy41 O49 2.307 . S
Dy41 O51 2.395 . S
Dy41 O52 2.379 . S
Dy41 O55 2.339 . S
Dy41 C71 2.738 . S
C42 O54 1.254 . S
C42 O55 1.257 . S
O43 Dy40 2.307 . S
O43 C53 1.266 . S
O44 Dy41 2.298 . S
O44 C53 1.236 . S
O45 Dy40 2.395 . S
O45 C62 1.255 . S
O46 Dy40 2.379 . S
O46 C62 1.249 . S
O47 Dy41 2.275 . S
O47 C63 1.254 . S
O48 Dy40 2.339 . S
O48 C63 1.257 . S
O49 Dy41 2.307 . S
O49 C64 1.266 . S
O50 Dy40 2.298 . S
O50 C64 1.236 . S
O51 Dy41 2.395 . S
O51 C71 1.255 . S
O52 Dy41 2.379 . S
O52 C71 1.249 . S
C53 O43 1.266 . S
C53 O44 1.236 . S
O54 Dy40 2.275 . S
O54 C42 1.254 . S
O55 Dy41 2.339 . S
O55 C42 1.257 . S
C56 C59 1.344 . S
C56 C60 1.328 . S
C56 C62 1.516 . S
C57 C58 1.304 . S
C57 C61 1.323 . S
C58 C57 1.304 . S
C58 C59 1.371 . S
C58 H72 0.930 . S
C59 C56 1.344 . S
C59 C58 1.371 . S
C59 H73 0.931 . S
C60 C56 1.328 . S
C60 C61 1.433 . S
C60 H74 0.931 . S
C61 C57 1.323 . S
C61 C60 1.433 . S
C61 H75 0.933 . S
C62 Dy40 2.738 . S
C62 O45 1.255 . S
C62 O46 1.249 . S
C62 C56 1.516 . S
C63 O47 1.254 . S
C63 O48 1.257 . S
C64 O49 1.266 . S
C64 O50 1.236 . S
C65 C68 1.344 . S
C65 C69 1.328 . S
C65 C71 1.516 . S
C66 C67 1.304 . S
C66 C70 1.323 . S
C67 C66 1.304 . S
C67 C68 1.371 . S
C67 H76 0.930 . S
C68 C65 1.344 . S
C68 C67 1.371 . S
C68 H77 0.931 . S
C69 C65 1.328 . S
C69 C70 1.433 . S
C69 H78 0.931 . S
C70 C66 1.323 . S
C70 C69 1.433 . S
C70 H79 0.933 . S
C71 Dy41 2.738 . S
C71 O51 1.255 . S
C71 O52 1.249 . S
C71 C65 1.516 . S
H72 C58 0.930 . S
H73 C59 0.931 . S
H74 C60 0.931 . S
H75 C61 0.933 . S
H76 C67 0.930 . S
H77 C68 0.931 . S
H78 C69 0.931 . S
H79 C70 0.933 . S
Dy80 O83 2.307 . S
Dy80 O85 2.395 . S
Dy80 O86 2.379 . S
Dy80 O88 2.339 . S
Dy80 O90 2.298 . S
Dy80 O94 2.275 . S
Dy80 C102 2.738 . S
Dy81 O84 2.298 . S
Dy81 O87 2.275 . S
Dy81 O89 2.307 . S
Dy81 O91 2.395 . S
Dy81 O92 2.379 . S
Dy81 O95 2.339 . S
Dy81 C111 2.738 . S
C82 O94 1.254 . S
C82 O95 1.257 . S
O83 Dy80 2.307 . S
O83 C93 1.266 . S
O84 Dy81 2.298 . S
O84 C93 1.236 . S
O85 Dy80 2.395 . S
O85 C102 1.255 . S
O86 Dy80 2.379 . S
O86 C102 1.249 . S
O87 Dy81 2.275 . S
O87 C103 1.254 . S
O88 Dy80 2.339 . S
O88 C103 1.257 . S
O89 Dy81 2.307 . S
O89 C104 1.266 . S
O90 Dy80 2.298 . S
O90 C104 1.236 . S
O91 Dy81 2.395 . S
O91 C111 1.255 . S
O92 Dy81 2.379 . S
O92 C111 1.249 . S
C93 O83 1.266 . S
C93 O84 1.236 . S
O94 Dy80 2.275 . S
O94 C82 1.254 . S
O95 Dy81 2.339 . S
O95 C82 1.257 . S
C96 C99 1.344 . S
C96 C100 1.328 . S
C96 C102 1.516 . S
C97 C98 1.304 . S
C97 C101 1.323 . S
C98 C97 1.304 . S
C98 C99 1.371 . S
C98 H112 0.930 . S
C99 C96 1.344 . S
C99 C98 1.371 . S
C99 H113 0.931 . S
C100 C96 1.328 . S
C100 C101 1.433 . S
C100 H114 0.931 . S
C101 C97 1.323 . S
C101 C100 1.433 . S
C101 H115 0.933 . S
C102 Dy80 2.738 . S
C102 O85 1.255 . S
C102 O86 1.249 . S
C102 C96 1.516 . S
C103 O87 1.254 . S
C103 O88 1.257 . S
C104 O89 1.266 . S
C104 O90 1.236 . S
C105 C108 1.344 . S
C105 C109 1.328 . S
C105 C111 1.516 . S
C106 C107 1.304 . S
C106 C110 1.323 . S
C107 C106 1.304 . S
C107 C108 1.371 . S
C107 H116 0.930 . S
C108 C105 1.344 . S
C108 C107 1.371 . S
C108 H117 0.931 . S
C109 C105 1.328 . S
C109 C110 1.433 . S
C109 H118 0.931 . S
C110 C106 1.323 . S
C110 C109 1.433 . S
C110 H119 0.933 . S
C111 Dy81 2.738 . S
C111 O91 1.255 . S
C111 O92 1.249 . S
C111 C105 1.516 . S
H112 C98 0.930 . S
H113 C99 0.931 . S
H114 C100 0.931 . S
H115 C101 0.933 . S
H116 C107 0.930 . S
H117 C108 0.931 . S
H118 C109 0.931 . S
H119 C110 0.933 . S
Dy120 O123 2.307 . S
Dy120 O125 2.395 . S
Dy120 O126 2.379 . S
Dy120 O128 2.339 . S
Dy120 O130 2.298 . S
Dy120 O134 2.275 . S
Dy120 C142 2.738 . S
Dy121 O124 2.298 . S
Dy121 O127 2.275 . S
Dy121 O129 2.307 . S
Dy121 O131 2.395 . S
Dy121 O132 2.379 . S
Dy121 O135 2.339 . S
Dy121 C151 2.738 . S
C122 O134 1.254 . S
C122 O135 1.257 . S
O123 Dy120 2.307 . S
O123 C133 1.266 . S
O124 Dy121 2.298 . S
O124 C133 1.236 . S
O125 Dy120 2.395 . S
O125 C142 1.255 . S
O126 Dy120 2.379 . S
O126 C142 1.249 . S
O127 Dy121 2.275 . S
O127 C143 1.254 . S
O128 Dy120 2.339 . S
O128 C143 1.257 . S
O129 Dy121 2.307 . S
O129 C144 1.266 . S
O130 Dy120 2.298 . S
O130 C144 1.236 . S
O131 Dy121 2.395 . S
O131 C151 1.255 . S
O132 Dy121 2.379 . S
O132 C151 1.249 . S
C133 O123 1.266 . S
C133 O124 1.236 . S
O134 Dy120 2.275 . S
O134 C122 1.254 . S
O135 Dy121 2.339 . S
O135 C122 1.257 . S
C136 C139 1.344 . S
C136 C140 1.328 . S
C136 C142 1.516 . S
C137 C138 1.304 . S
C137 C141 1.323 . S
C138 C137 1.304 . S
C138 C139 1.371 . S
C138 H152 0.930 . S
C139 C136 1.344 . S
C139 C138 1.371 . S
C139 H153 0.931 . S
C140 C136 1.328 . S
C140 C141 1.433 . S
C140 H154 0.931 . S
C141 C137 1.323 . S
C141 C140 1.433 . S
C141 H155 0.933 . S
C142 Dy120 2.738 . S
C142 O125 1.255 . S
C142 O126 1.249 . S
C142 C136 1.516 . S
C143 O127 1.254 . S
C143 O128 1.257 . S
C144 O129 1.266 . S
C144 O130 1.236 . S
C145 C148 1.344 . S
C145 C149 1.328 . S
C145 C151 1.516 . S
C146 C147 1.304 . S
C146 C150 1.323 . S
C147 C146 1.304 . S
C147 C148 1.371 . S
C147 H156 0.930 . S
C148 C145 1.344 . S
C148 C147 1.371 . S
C148 H157 0.931 . S
C149 C145 1.328 . S
C149 C150 1.433 . S
C149 H158 0.931 . S
C150 C146 1.323 . S
C150 C149 1.433 . S
C150 H159 0.933 . S
C151 Dy121 2.738 . S
C151 O131 1.255 . S
C151 O132 1.249 . S
C151 C145 1.516 . S
H152 C138 0.930 . S
H153 C139 0.931 . S
H154 C140 0.931 . S
H155 C141 0.933 . S
H156 C147 0.930 . S
H157 C148 0.931 . S
H158 C149 0.931 . S
H159 C150 0.933 . S
Dy160 O163 2.307 . S
Dy160 O165 2.395 . S
Dy160 O166 2.379 . S
Dy160 O168 2.339 . S
Dy160 O170 2.298 . S
Dy160 O174 2.275 . S
Dy160 C182 2.738 . S
Dy161 O164 2.298 . S
Dy161 O167 2.275 . S
Dy161 O169 2.307 . S
Dy161 O171 2.395 . S
Dy161 O172 2.379 . S
Dy161 O175 2.339 . S
Dy161 C191 2.738 . S
C162 O174 1.254 . S
C162 O175 1.257 . S
O163 Dy160 2.307 . S
O163 C173 1.266 . S
O164 Dy161 2.298 . S
O164 C173 1.236 . S
O165 Dy160 2.395 . S
O165 C182 1.255 . S
O166 Dy160 2.379 . S
O166 C182 1.249 . S
O167 Dy161 2.275 . S
O167 C183 1.254 . S
O168 Dy160 2.339 . S
O168 C183 1.257 . S
O169 Dy161 2.307 . S
O169 C184 1.266 . S
O170 Dy160 2.298 . S
O170 C184 1.236 . S
O171 Dy161 2.395 . S
O171 C191 1.255 . S
O172 Dy161 2.379 . S
O172 C191 1.249 . S
C173 O163 1.266 . S
C173 O164 1.236 . S
O174 Dy160 2.275 . S
O174 C162 1.254 . S
O175 Dy161 2.339 . S
O175 C162 1.257 . S
C176 C179 1.344 . S
C176 C180 1.328 . S
C176 C182 1.516 . S
C177 C178 1.304 . S
C177 C181 1.323 . S
C178 C177 1.304 . S
C178 C179 1.371 . S
C178 H192 0.930 . S
C179 C176 1.344 . S
C179 C178 1.371 . S
C179 H193 0.931 . S
C180 C176 1.328 . S
C180 C181 1.433 . S
C180 H194 0.931 . S
C181 C177 1.323 . S
C181 C180 1.433 . S
C181 H195 0.933 . S
C182 Dy160 2.738 . S
C182 O165 1.255 . S
C182 O166 1.249 . S
C182 C176 1.516 . S
C183 O167 1.254 . S
C183 O168 1.257 . S
C184 O169 1.266 . S
C184 O170 1.236 . S
C185 C188 1.344 . S
C185 C189 1.328 . S
C185 C191 1.516 . S
C186 C187 1.304 . S
C186 C190 1.323 . S
C187 C186 1.304 . S
C187 C188 1.371 . S
C187 H196 0.930 . S
C188 C185 1.344 . S
C188 C187 1.371 . S
C188 H197 0.931 . S
C189 C185 1.328 . S
C189 C190 1.433 . S
C189 H198 0.931 . S
C190 C186 1.323 . S
C190 C189 1.433 . S
C190 H199 0.933 . S
C191 Dy161 2.738 . S
C191 O171 1.255 . S
C191 O172 1.249 . S
C191 C185 1.516 . S
H192 C178 0.930 . S
H193 C179 0.931 . S
H194 C180 0.931 . S
H195 C181 0.933 . S
H196 C187 0.930 . S
H197 C188 0.931 . S
H198 C189 0.931 . S
H199 C190 0.933 . S
Dy200 O203 2.307 . S
Dy200 O205 2.395 . S
Dy200 O206 2.379 . S
Dy200 O208 2.339 . S
Dy200 O210 2.298 . S
Dy200 O214 2.275 . S
Dy200 C222 2.738 . S
Dy201 O204 2.298 . S
Dy201 O207 2.275 . S
Dy201 O209 2.307 . S
Dy201 O211 2.395 . S
Dy201 O212 2.379 . S
Dy201 O215 2.339 . S
Dy201 C231 2.738 . S
C202 O214 1.254 . S
C202 O215 1.257 . S
O203 Dy200 2.307 . S
O203 C213 1.266 . S
O204 Dy201 2.298 . S
O204 C213 1.236 . S
O205 Dy200 2.395 . S
O205 C222 1.255 . S
O206 Dy200 2.379 . S
O206 C222 1.249 . S
O207 Dy201 2.275 . S
O207 C223 1.254 . S
O208 Dy200 2.339 . S
O208 C223 1.257 . S
O209 Dy201 2.307 . S
O209 C224 1.266 . S
O210 Dy200 2.298 . S
O210 C224 1.236 . S
O211 Dy201 2.395 . S
O211 C231 1.255 . S
O212 Dy201 2.379 . S
O212 C231 1.249 . S
C213 O203 1.266 . S
C213 O204 1.236 . S
O214 Dy200 2.275 . S
O214 C202 1.254 . S
O215 Dy201 2.339 . S
O215 C202 1.257 . S
C216 C219 1.344 . S
C216 C220 1.328 . S
C216 C222 1.516 . S
C217 C218 1.304 . S
C217 C221 1.323 . S
C218 C217 1.304 . S
C218 C219 1.371 . S
C218 H232 0.930 . S
C219 C216 1.344 . S
C219 C218 1.371 . S
C219 H233 0.931 . S
C220 C216 1.328 . S
C220 C221 1.433 . S
C220 H234 0.931 . S
C221 C217 1.323 . S
C221 C220 1.433 . S
C221 H235 0.933 . S
C222 Dy200 2.738 . S
C222 O205 1.255 . S
C222 O206 1.249 . S
C222 C216 1.516 . S
C223 O207 1.254 . S
C223 O208 1.257 . S
C224 O209 1.266 . S
C224 O210 1.236 . S
C225 C228 1.344 . S
C225 C229 1.328 . S
C225 C231 1.516 . S
C226 C227 1.304 . S
C226 C230 1.323 . S
C227 C226 1.304 . S
C227 C228 1.371 . S
C227 H236 0.930 . S
C228 C225 1.344 . S
C228 C227 1.371 . S
C228 H237 0.931 . S
C229 C225 1.328 . S
C229 C230 1.433 . S
C229 H238 0.931 . S
C230 C226 1.323 . S
C230 C229 1.433 . S
C230 H239 0.933 . S
C231 Dy201 2.738 . S
C231 O211 1.255 . S
C231 O212 1.249 . S
C231 C225 1.516 . S
H232 C218 0.930 . S
H233 C219 0.931 . S
H234 C220 0.931 . S
H235 C221 0.933 . S
H236 C227 0.930 . S
H237 C228 0.931 . S
H238 C229 0.931 . S
H239 C230 0.933 . S
Dy240 O243 2.307 . S
Dy240 O245 2.395 . S
Dy240 O246 2.379 . S
Dy240 O248 2.339 . S
Dy240 O250 2.298 . S
Dy240 O254 2.275 . S
Dy240 C262 2.738 . S
Dy241 O244 2.298 . S
Dy241 O247 2.275 . S
Dy241 O249 2.307 . S
Dy241 O251 2.395 . S
Dy241 O252 2.379 . S
Dy241 O255 2.339 . S
Dy241 C271 2.738 . S
C242 O254 1.254 . S
C242 O255 1.257 . S
O243 Dy240 2.307 . S
O243 C253 1.266 . S
O244 Dy241 2.298 . S
O244 C253 1.236 . S
O245 Dy240 2.395 . S
O245 C262 1.255 . S
O246 Dy240 2.379 . S
O246 C262 1.249 . S
O247 Dy241 2.275 . S
O247 C263 1.254 . S
O248 Dy240 2.339 . S
O248 C263 1.257 . S
O249 Dy241 2.307 . S
O249 C264 1.266 . S
O250 Dy240 2.298 . S
O250 C264 1.236 . S
O251 Dy241 2.395 . S
O251 C271 1.255 . S
O252 Dy241 2.379 . S
O252 C271 1.249 . S
C253 O243 1.266 . S
C253 O244 1.236 . S
O254 Dy240 2.275 . S
O254 C242 1.254 . S
O255 Dy241 2.339 . S
O255 C242 1.257 . S
C256 C259 1.344 . S
C256 C260 1.328 . S
C256 C262 1.516 . S
C257 C258 1.304 . S
C257 C261 1.323 . S
C258 C257 1.304 . S
C258 C259 1.371 . S
C258 H272 0.930 . S
C259 C256 1.344 . S
C259 C258 1.371 . S
C259 H273 0.931 . S
C260 C256 1.328 . S
C260 C261 1.433 . S
C260 H274 0.931 . S
C261 C257 1.323 . S
C261 C260 1.433 . S
C261 H275 0.933 . S
C262 Dy240 2.738 . S
C262 O245 1.255 . S
C262 O246 1.249 . S
C262 C256 1.516 . S
C263 O247 1.254 . S
C263 O248 1.257 . S
C264 O249 1.266 . S
C264 O250 1.236 . S
C265 C268 1.344 . S
C265 C269 1.328 . S
C265 C271 1.516 . S
C266 C267 1.304 . S
C266 C270 1.323 . S
C267 C266 1.304 . S
C267 C268 1.371 . S
C267 H276 0.930 . S
C268 C265 1.344 . S
C268 C267 1.371 . S
C268 H277 0.931 . S
C269 C265 1.328 . S
C269 C270 1.433 . S
C269 H278 0.931 . S
C270 C266 1.323 . S
C270 C269 1.433 . S
C270 H279 0.933 . S
C271 Dy241 2.738 . S
C271 O251 1.255 . S
C271 O252 1.249 . S
C271 C265 1.516 . S
H272 C258 0.930 . S
H273 C259 0.931 . S
H274 C260 0.931 . S
H275 C261 0.933 . S
H276 C267 0.930 . S
H277 C268 0.931 . S
H278 C269 0.931 . S
H279 C270 0.933 . S
Dy280 O283 2.307 . S
Dy280 O285 2.395 . S
Dy280 O286 2.379 . S
Dy280 O288 2.339 . S
Dy280 O290 2.298 . S
Dy280 O294 2.275 . S
Dy280 C302 2.738 . S
Dy281 O284 2.298 . S
Dy281 O287 2.275 . S
Dy281 O289 2.307 . S
Dy281 O291 2.395 . S
Dy281 O292 2.379 . S
Dy281 O295 2.339 . S
Dy281 C311 2.738 . S
C282 O294 1.254 . S
C282 O295 1.257 . S
O283 Dy280 2.307 . S
O283 C293 1.266 . S
O284 Dy281 2.298 . S
O284 C293 1.236 . S
O285 Dy280 2.395 . S
O285 C302 1.255 . S
O286 Dy280 2.379 . S
O286 C302 1.249 . S
O287 Dy281 2.275 . S
O287 C303 1.254 . S
O288 Dy280 2.339 . S
O288 C303 1.257 . S
O289 Dy281 2.307 . S
O289 C304 1.266 . S
O290 Dy280 2.298 . S
O290 C304 1.236 . S
O291 Dy281 2.395 . S
O291 C311 1.255 . S
O292 Dy281 2.379 . S
O292 C311 1.249 . S
C293 O283 1.266 . S
C293 O284 1.236 . S
O294 Dy280 2.275 . S
O294 C282 1.254 . S
O295 Dy281 2.339 . S
O295 C282 1.257 . S
C296 C299 1.344 . S
C296 C300 1.328 . S
C296 C302 1.516 . S
C297 C298 1.304 . S
C297 C301 1.323 . S
C298 C297 1.304 . S
C298 C299 1.371 . S
C298 H312 0.930 . S
C299 C296 1.344 . S
C299 C298 1.371 . S
C299 H313 0.931 . S
C300 C296 1.328 . S
C300 C301 1.433 . S
C300 H314 0.931 . S
C301 C297 1.323 . S
C301 C300 1.433 . S
C301 H315 0.933 . S
C302 Dy280 2.738 . S
C302 O285 1.255 . S
C302 O286 1.249 . S
C302 C296 1.516 . S
C303 O287 1.254 . S
C303 O288 1.257 . S
C304 O289 1.266 . S
C304 O290 1.236 . S
C305 C308 1.344 . S
C305 C309 1.328 . S
C305 C311 1.516 . S
C306 C307 1.304 . S
C306 C310 1.323 . S
C307 C306 1.304 . S
C307 C308 1.371 . S
C307 H316 0.930 . S
C308 C305 1.344 . S
C308 C307 1.371 . S
C308 H317 0.931 . S
C309 C305 1.328 . S
C309 C310 1.433 . S
C309 H318 0.931 . S
C310 C306 1.323 . S
C310 C309 1.433 . S
C310 H319 0.933 . S
C311 Dy281 2.738 . S
C311 O291 1.255 . S
C311 O292 1.249 . S
C311 C305 1.516 . S
H312 C298 0.930 . S
H313 C299 0.931 . S
H314 C300 0.931 . S
H315 C301 0.933 . S
H316 C307 0.930 . S
H317 C308 0.931 . S
H318 C309 0.931 . S
H319 C310 0.933 . S
Fe320 O321 1.886 1_455 S
Fe320 O324 1.715 . S
Fe320 O329 2.077 1_455 S
Fe320 O334 1.935 . S
Fe320 O340 2.077 1_455 S
Fe320 O349 1.935 . S
O321 Fe320 1.886 1_655 S
O321 Fe323 1.715 . S
Fe322 O324 1.886 . S
Fe322 O325 1.715 1_545 S
Fe322 O332 1.935 . S
Fe322 O333 2.077 . S
Fe322 O339 1.935 . S
Fe322 O348 2.077 . S
Fe323 O321 1.715 . S
Fe323 O326 1.886 1_545 S
Fe323 O330 1.935 . S
Fe323 O335 2.077 1_545 S
Fe323 O341 1.935 . S
Fe323 O345 2.077 1_545 S
O324 Fe320 1.715 . S
O324 Fe322 1.886 . S
O325 Fe322 1.715 1_565 S
O325 Fe327 1.886 . S
O326 Fe323 1.886 1_565 S
O326 Fe327 1.715 1_655 S
Fe327 O325 1.886 . S
Fe327 O326 1.715 1_455 S
Fe327 O331 2.077 . S
Fe327 O336 1.935 1_455 S
Fe327 O338 2.077 . S
Fe327 O346 1.935 1_455 S
C328 O340 1.381 . S
C328 O341 1.421 . S
O329 Fe320 2.077 1_655 S
O329 C342 1.381 . S
O330 Fe323 1.935 . S
O330 C342 1.421 . S
O331 Fe327 2.077 . S
O331 C347 1.381 . S
O332 Fe322 1.935 . S
O332 C347 1.421 1_545 S
O333 Fe322 2.077 . S
O333 C337 1.381 . S
O334 Fe320 1.935 . S
O334 C337 1.421 . S
O335 Fe323 2.077 1_565 S
O335 C343 1.381 . S
O336 Fe327 1.935 1_655 S
O336 C343 1.421 . S
C337 O333 1.381 . S
C337 O334 1.421 . S
O338 Fe327 2.077 . S
O338 C350 1.381 . S
O339 Fe322 1.935 . S
O339 C350 1.421 1_545 S
O340 Fe320 2.077 1_655 S
O340 C328 1.381 . S
O341 Fe323 1.935 . S
O341 C328 1.421 . S
C342 O329 1.381 . S
C342 O330 1.421 . S
C343 O335 1.381 . S
C343 O336 1.421 . S
C344 O345 1.381 . S
C344 O346 1.421 . S
O345 Fe323 2.077 1_565 S
O345 C344 1.381 . S
O346 Fe327 1.935 1_655 S
O346 C344 1.421 . S
C347 O331 1.381 . S
C347 O332 1.421 1_565 S
O348 Fe322 2.077 . S
O348 C351 1.381 . S
O349 Fe320 1.935 . S
O349 C351 1.421 . S
C350 O338 1.381 . S
C350 O339 1.421 1_565 S
C351 O348 1.381 . S
C351 O349 1.421 . S
Fe352 O353 1.888 1_566 S
Fe352 O356 1.715 1_565 S
Fe352 O361 2.077 . S
Fe352 O366 1.935 . S
Fe352 O372 2.077 1_556 S
Fe352 O381 1.935 1_556 S
O353 Fe352 1.888 1_544 S
O353 Fe355 1.713 . S
Fe354 O356 1.886 . S
Fe354 O357 1.717 1_556 S
Fe354 O364 1.935 . S
Fe354 O365 2.077 1_545 S
Fe354 O371 1.935 1_556 S
Fe354 O380 2.072 1_546 S
Fe355 O353 1.713 . S
Fe355 O358 1.886 . S
Fe355 O362 1.935 1_554 S
Fe355 O367 2.077 1_554 S
Fe355 O373 1.935 . S
Fe355 O377 2.077 . S
O356 Fe352 1.715 1_545 S
O356 Fe354 1.886 . S
O357 Fe354 1.717 1_554 S
O357 Fe359 1.884 . S
O358 Fe355 1.886 . S
O358 Fe359 1.715 . S
Fe359 O357 1.884 . S
Fe359 O358 1.715 . S
Fe359 O363 2.077 1_554 S
Fe359 O368 1.935 1_554 S
Fe359 O370 2.077 . S
Fe359 O378 1.935 . S
C360 O372 1.381 . S
C360 O373 1.421 1_565 S
O361 Fe352 2.077 . S
O361 C374 1.381 . S
O362 Fe355 1.935 1_556 S
O362 C374 1.421 1_545 S
O363 Fe359 2.077 1_556 S
O363 C379 1.381 . S
O364 Fe354 1.935 . S
O364 C379 1.421 . S
O365 Fe354 2.077 1_565 S
O365 C369 1.381 . S
O366 Fe352 1.935 . S
O366 C369 1.421 . S
O367 Fe355 2.077 1_556 S
O367 C375 1.381 . S
O368 Fe359 1.935 1_556 S
O368 C375 1.421 . S
C369 O365 1.381 . S
C369 O366 1.421 . S
O370 Fe359 2.077 . S
O370 C382 1.381 . S
O371 Fe354 1.935 1_554 S
O371 C382 1.421 . S
O372 Fe352 2.077 1_554 S
O372 C360 1.381 . S
O373 Fe355 1.935 . S
O373 C360 1.421 1_545 S
C374 O361 1.381 . S
C374 O362 1.421 1_565 S
C375 O367 1.381 . S
C375 O368 1.421 . S
C376 O377 1.381 . S
C376 O378 1.421 . S
O377 Fe355 2.077 . S
O377 C376 1.381 . S
O378 Fe359 1.935 . S
O378 C376 1.421 . S
C379 O363 1.381 . S
C379 O364 1.421 . S
O380 Fe354 2.072 1_564 S
O380 C383 1.388 . S
O381 Fe352 1.935 1_554 S
O381 C383 1.421 . S
C382 O370 1.381 . S
C382 O371 1.421 . S
C383 O380 1.388 . S
C383 O381 1.421 . S
Fe384 O385 1.886 1_455 S
Fe384 O388 1.715 . S
Fe384 O393 2.077 1_455 S
Fe384 O398 1.935 . S
Fe384 O404 2.077 1_455 S
Fe384 O413 1.935 . S
O385 Fe384 1.886 1_655 S
O385 Fe387 1.715 . S
Fe386 O388 1.886 . S
Fe386 O389 1.715 . S
Fe386 O396 1.935 . S
Fe386 O397 2.077 . S
Fe386 O403 1.935 . S
Fe386 O412 2.077 . S
Fe387 O385 1.715 . S
Fe387 O390 1.886 . S
Fe387 O394 1.935 . S
Fe387 O399 2.077 . S
Fe387 O405 1.935 . S
Fe387 O409 2.077 . S
O388 Fe384 1.715 . S
O388 Fe386 1.886 . S
O389 Fe386 1.715 . S
O389 Fe391 1.886 1_455 S
O390 Fe387 1.886 . S
O390 Fe391 1.715 . S
Fe391 O389 1.886 1_655 S
Fe391 O390 1.715 . S
Fe391 O395 2.077 1_655 S
Fe391 O400 1.935 . S
Fe391 O402 2.077 1_655 S
Fe391 O410 1.935 . S
C392 O404 1.381 . S
C392 O405 1.421 . S
O393 Fe384 2.077 1_655 S
O393 C406 1.391 . S
O394 Fe387 1.935 . S
O394 C406 1.432 . S
O395 Fe391 2.077 1_455 S
O395 C411 1.395 . S
O396 Fe386 1.935 . S
O396 C411 1.427 . S
O397 Fe386 2.077 . S
O397 C401 1.381 . S
O398 Fe384 1.935 . S
O398 C401 1.421 . S
O399 Fe387 2.077 . S
O399 C407 1.381 1_554 S
O400 Fe391 1.935 . S
O400 C407 1.421 1_554 S
C401 O397 1.381 . S
C401 O398 1.421 . S
O402 Fe391 2.077 1_455 S
O402 C414 1.381 . S
O403 Fe386 1.935 . S
O403 C414 1.421 . S
O404 Fe384 2.077 1_655 S
O404 C392 1.381 . S
O405 Fe387 1.935 . S
O405 C392 1.421 . S
C406 O393 1.391 . S
C406 O394 1.432 . S
C407 O399 1.381 1_556 S
C407 O400 1.421 1_556 S
C408 O409 1.381 . S
C408 O410 1.421 . S
O409 Fe387 2.077 . S
O409 C408 1.381 . S
O410 Fe391 1.935 . S
O410 C408 1.421 . S
C411 O395 1.395 . S
C411 O396 1.427 . S
O412 Fe386 2.077 . S
O412 C415 1.381 . S
O413 Fe384 1.935 . S
O413 C415 1.421 . S
C414 O402 1.381 . S
C414 O403 1.421 . S
C415 O412 1.381 . S
C415 O413 1.421 . S
Fe416 O417 1.886 . S
Fe416 O420 1.715 . S
Fe416 O425 2.077 . S
Fe416 O430 1.935 . S
Fe416 O436 2.077 . S
Fe416 O445 1.935 . S
O417 Fe416 1.886 . S
O417 Fe419 1.715 1_556 S
Fe418 O420 1.886 1_554 S
Fe418 O421 1.715 . S
Fe418 O428 1.935 . S
Fe418 O429 2.077 1_554 S
Fe418 O435 1.935 . S
Fe418 O444 2.077 1_554 S
Fe419 O417 1.715 1_554 S
Fe419 O422 1.886 . S
Fe419 O426 1.935 . S
Fe419 O431 2.077 . S
Fe419 O437 1.935 1_554 S
Fe419 O441 2.077 . S
O420 Fe416 1.715 . S
O420 Fe418 1.886 1_556 S
O421 Fe418 1.715 . S
O421 Fe423 1.886 . S
O422 Fe419 1.886 . S
O422 Fe423 1.715 . S
Fe423 O421 1.886 . S
Fe423 O422 1.715 . S
Fe423 O427 2.077 . S
Fe423 O432 1.935 . S
Fe423 O434 2.077 . S
Fe423 O442 1.935 . S
C424 O436 1.381 . S
C424 O437 1.421 . S
O425 Fe416 2.077 . S
O425 C438 1.381 . S
O426 Fe419 1.935 . S
O426 C438 1.421 1_554 S
O427 Fe423 2.077 . S
O427 C443 1.381 . S
O428 Fe418 1.935 . S
O428 C443 1.421 . S
O429 Fe418 2.077 1_556 S
O429 C433 1.381 . S
O430 Fe416 1.935 . S
O430 C433 1.421 . S
O431 Fe419 2.077 . S
O431 C439 1.381 . S
O432 Fe423 1.935 . S
O432 C439 1.421 . S
C433 O429 1.381 . S
C433 O430 1.421 . S
O434 Fe423 2.077 . S
O434 C446 1.381 . S
O435 Fe418 1.935 . S
O435 C446 1.421 . S
O436 Fe416 2.077 . S
O436 C424 1.381 . S
O437 Fe419 1.935 1_556 S
O437 C424 1.421 . S
C438 O425 1.381 . S
C438 O426 1.421 1_556 S
C439 O431 1.381 . S
C439 O432 1.421 . S
C440 O441 1.381 . S
C440 O442 1.421 . S
O441 Fe419 2.077 . S
O441 C440 1.381 . S
O442 Fe423 1.935 . S
O442 C440 1.421 . S
C443 O427 1.381 . S
C443 O428 1.421 . S
O444 Fe418 2.077 1_556 S
O444 C447 1.381 . S
O445 Fe416 1.935 . S
O445 C447 1.421 . S
C446 O434 1.381 . S
C446 O435 1.421 . S
C447 O444 1.381 . S
C447 O445 1.421 . S
Fe448 O449 1.886 . S
Fe448 O452 1.715 . S
Fe448 O457 2.077 . S
Fe448 O462 1.935 . S
Fe448 O468 2.077 1_455 S
Fe448 O477 1.935 1_455 S
O449 Fe448 1.886 . S
O449 Fe451 1.715 . S
Fe450 O452 1.886 . S
Fe450 O453 1.715 . S
Fe450 O460 1.935 . S
Fe450 O461 2.077 . S
Fe450 O467 1.935 1_455 S
Fe450 O476 2.077 1_455 S
Fe451 O449 1.715 . S
Fe451 O454 1.886 . S
Fe451 O458 1.935 . S
Fe451 O463 2.077 . S
Fe451 O469 1.947 . S
Fe451 O473 2.077 . S
O452 Fe448 1.715 . S
O452 Fe450 1.886 . S
O453 Fe450 1.715 . S
O453 Fe455 1.886 . S
O454 Fe451 1.886 . S
O454 Fe455 1.715 . S
Fe455 O453 1.886 . S
Fe455 O454 1.715 . S
Fe455 O459 2.077 . S
Fe455 O464 1.935 . S
Fe455 O466 2.077 . S
Fe455 O474 1.935 . S
C456 O468 1.381 . S
C456 O469 1.419 1_655 S
O457 Fe448 2.077 . S
O457 C470 1.381 . S
O458 Fe451 1.935 . S
O458 C470 1.421 . S
O459 Fe455 2.077 . S
O459 C475 1.381 . S
O460 Fe450 1.935 . S
O460 C475 1.421 . S
O461 Fe450 2.077 . S
O461 C465 1.381 . S
O462 Fe448 1.935 . S
O462 C465 1.421 . S
O463 Fe451 2.077 . S
O463 C471 1.381 . S
O464 Fe455 1.935 . S
O464 C471 1.421 . S
C465 O461 1.381 . S
C465 O462 1.421 . S
O466 Fe455 2.077 . S
O466 C478 1.381 1_455 S
O467 Fe450 1.935 1_655 S
O467 C478 1.421 . S
O468 Fe448 2.077 1_655 S
O468 C456 1.381 . S
O469 Fe451 1.947 . S
O469 C456 1.419 1_455 S
C470 O457 1.381 . S
C470 O458 1.421 . S
C471 O463 1.381 . S
C471 O464 1.421 . S
C472 O473 1.381 1_655 S
C472 O474 1.421 1_655 S
O473 Fe451 2.077 . S
O473 C472 1.381 1_455 S
O474 Fe455 1.935 . S
O474 C472 1.421 1_455 S
C475 O459 1.381 . S
C475 O460 1.421 . S
O476 Fe450 2.077 1_655 S
O476 C479 1.381 . S
O477 Fe448 1.935 1_655 S
O477 C479 1.421 . S
C478 O466 1.381 1_655 S
C478 O467 1.421 . S
C479 O476 1.381 . S
C479 O477 1.421 . S
Fe480 O481 1.886 . S
Fe480 O484 1.715 . S
Fe480 O489 2.077 . S
Fe480 O494 1.935 . S
Fe480 O500 2.077 . S
Fe480 O509 1.935 . S
O481 Fe480 1.886 . S
O481 Fe483 1.715 1_565 S
Fe482 O484 1.886 . S
Fe482 O485 1.715 1_565 S
Fe482 O492 1.935 1_565 S
Fe482 O493 2.077 . S
Fe482 O499 1.935 1_565 S
Fe482 O508 2.077 . S
Fe483 O481 1.715 1_545 S
Fe483 O486 1.886 . S
Fe483 O490 1.935 1_545 S
Fe483 O495 2.077 . S
Fe483 O501 1.935 1_545 S
Fe483 O505 2.077 . S
O484 Fe480 1.715 . S
O484 Fe482 1.886 . S
O485 Fe482 1.715 1_545 S
O485 Fe487 1.886 . S
O486 Fe483 1.886 . S
O486 Fe487 1.715 . S
Fe487 O485 1.886 . S
Fe487 O486 1.715 . S
Fe487 O491 2.077 . S
Fe487 O496 1.935 . S
Fe487 O498 2.077 . S
Fe487 O506 1.935 . S
C488 O500 1.381 . S
C488 O501 1.421 . S
O489 Fe480 2.077 . S
O489 C502 1.381 . S
O490 Fe483 1.935 1_565 S
O490 C502 1.421 . S
O491 Fe487 2.077 . S
O491 C507 1.381 . S
O492 Fe482 1.935 1_545 S
O492 C507 1.421 . S
O493 Fe482 2.077 . S
O493 C497 1.381 . S
O494 Fe480 1.935 . S
O494 C497 1.421 . S
O495 Fe483 2.077 . S
O495 C503 1.381 . S
O496 Fe487 1.935 . S
O496 C503 1.421 . S
C497 O493 1.381 . S
C497 O494 1.421 . S
O498 Fe487 2.077 . S
O498 C510 1.381 . S
O499 Fe482 1.935 1_545 S
O499 C510 1.421 . S
O500 Fe480 2.077 . S
O500 C488 1.381 . S
O501 Fe483 1.935 1_565 S
O501 C488 1.421 . S
C502 O489 1.381 . S
C502 O490 1.421 . S
C503 O495 1.381 . S
C503 O496 1.421 . S
C504 O505 1.381 . S
C504 O506 1.421 . S
O505 Fe483 2.077 . S
O505 C504 1.381 . S
O506 Fe487 1.935 . S
O506 C504 1.421 . S
C507 O491 1.381 . S
C507 O492 1.421 . S
O508 Fe482 2.077 . S
O508 C511 1.381 . S
O509 Fe480 1.935 . S
O509 C511 1.421 . S
C510 O498 1.381 . S
C510 O499 1.421 . S
C511 O508 1.381 . S
C511 O509 1.421 . S
H512 C520 0.950 . S
H513 C525 0.950 . S
H514 C522 0.950 . S
H515 C524 0.950 . S
H516 C526 0.950 . S
H517 C528 0.950 . S
H518 C530 0.950 . S
H519 C531 0.950 . S
C520 H512 0.950 . S
C520 C521 1.386 . S
C520 C522 1.391 . S
C521 C520 1.386 . S
C521 C525 1.393 . S
C522 H514 0.950 . S
C522 C520 1.391 . S
C522 C523 1.400 . S
C523 C522 1.400 . S
C523 C524 1.398 . S
C523 C529 1.491 . S
C524 H515 0.950 . S
C524 C523 1.398 . S
C524 C525 1.391 . S
C525 H513 0.950 . S
C525 C521 1.393 . S
C525 C524 1.391 . S
C526 H516 0.950 . S
C526 C527 1.386 . S
C526 C528 1.391 . S
C527 C526 1.386 . S
C527 C531 1.393 . S
C528 H517 0.950 . S
C528 C526 1.391 . S
C528 C529 1.400 . S
C529 C523 1.491 . S
C529 C528 1.400 . S
C529 C530 1.398 . S
C530 H518 0.950 . S
C530 C529 1.398 . S
C530 C531 1.391 . S
C531 H519 0.950 . S
C531 C527 1.393 . S
C531 C530 1.391 . S
H532 C540 0.950 . S
H533 C545 0.950 . S
H534 C542 0.950 . S
H535 C544 0.950 . S
H536 C546 0.950 . S
H537 C548 0.950 . S
H538 C550 0.950 . S
H539 C551 0.950 . S
C540 H532 0.950 . S
C540 C541 1.386 . S
C540 C542 1.391 . S
C541 C540 1.386 . S
C541 C545 1.393 . S
C542 H534 0.950 . S
C542 C540 1.391 . S
C542 C543 1.400 . S
C543 C542 1.400 . S
C543 C544 1.398 . S
C543 C549 1.491 . S
C544 H535 0.950 . S
C544 C543 1.398 . S
C544 C545 1.391 . S
C545 H533 0.950 . S
C545 C541 1.393 . S
C545 C544 1.391 . S
C546 H536 0.950 . S
C546 C547 1.386 . S
C546 C548 1.391 . S
C547 C546 1.386 . S
C547 C551 1.393 . S
C548 H537 0.950 . S
C548 C546 1.391 . S
C548 C549 1.400 . S
C549 C543 1.491 . S
C549 C548 1.400 . S
C549 C550 1.398 . S
C550 H538 0.950 . S
C550 C549 1.398 . S
C550 C551 1.391 . S
C551 H539 0.950 . S
C551 C547 1.393 . S
C551 C550 1.391 . S
H552 C560 0.950 . S
H553 C565 0.950 . S
H554 C562 0.950 . S
H555 C564 0.950 . S
H556 C566 0.950 . S
H557 C568 0.950 . S
H558 C570 0.950 . S
H559 C571 0.950 . S
C560 H552 0.950 . S
C560 C561 1.386 . S
C560 C562 1.391 . S
C561 C560 1.386 . S
C561 C565 1.393 . S
C562 H554 0.950 . S
C562 C560 1.391 . S
C562 C563 1.400 . S
C563 C562 1.400 . S
C563 C564 1.398 . S
C563 C569 1.491 . S
C564 H555 0.950 . S
C564 C563 1.398 . S
C564 C565 1.391 . S
C565 H553 0.950 . S
C565 C561 1.393 . S
C565 C564 1.391 . S
C566 H556 0.950 . S
C566 C567 1.386 . S
C566 C568 1.391 . S
C567 C566 1.386 . S
C567 C571 1.393 . S
C568 H557 0.950 . S
C568 C566 1.391 . S
C568 C569 1.400 . S
C569 C563 1.491 . S
C569 C568 1.400 . S
C569 C570 1.398 . S
C570 H558 0.950 . S
C570 C569 1.398 . S
C570 C571 1.391 . S
C571 H559 0.950 . S
C571 C567 1.393 . S
C571 C570 1.391 . S
H572 C580 0.950 . S
H573 C585 0.950 . S
H574 C582 0.950 . S
H575 C584 0.950 . S
H576 C586 0.950 . S
H577 C588 0.950 . S
H578 C590 0.950 . S
H579 C591 0.950 . S
C580 H572 0.950 . S
C580 C581 1.386 . S
C580 C582 1.391 . S
C581 C580 1.386 . S
C581 C585 1.393 . S
C582 H574 0.950 . S
C582 C580 1.391 . S
C582 C583 1.400 . S
C583 C582 1.400 . S
C583 C584 1.398 . S
C583 C589 1.491 . S
C584 H575 0.950 . S
C584 C583 1.398 . S
C584 C585 1.391 . S
C585 H573 0.950 . S
C585 C581 1.393 . S
C585 C584 1.391 . S
C586 H576 0.950 . S
C586 C587 1.386 . S
C586 C588 1.391 . S
C587 C586 1.386 . S
C587 C591 1.393 . S
C588 H577 0.950 . S
C588 C586 1.391 . S
C588 C589 1.400 . S
C589 C583 1.491 . S
C589 C588 1.400 . S
C589 C590 1.398 . S
C590 H578 0.950 . S
C590 C589 1.398 . S
C590 C591 1.391 . S
C591 H579 0.950 . S
C591 C587 1.393 . S
C591 C590 1.391 . S
H592 C600 0.950 . S
H593 C605 0.950 . S
H594 C602 0.950 . S
H595 C604 0.950 . S
H596 C606 0.950 . S
H597 C608 0.950 . S
H598 C610 0.950 . S
H599 C611 0.950 . S
C600 H592 0.950 . S
C600 C601 1.386 . S
C600 C602 1.391 . S
C601 C600 1.386 . S
C601 C605 1.393 . S
C602 H594 0.950 . S
C602 C600 1.391 . S
C602 C603 1.400 . S
C603 C602 1.400 . S
C603 C604 1.398 . S
C603 C609 1.491 . S
C604 H595 0.950 . S
C604 C603 1.398 . S
C604 C605 1.391 . S
C605 H593 0.950 . S
C605 C601 1.393 . S
C605 C604 1.391 . S
C606 H596 0.950 . S
C606 C607 1.386 . S
C606 C608 1.391 . S
C607 C606 1.386 . S
C607 C611 1.393 . S
C608 H597 0.950 . S
C608 C606 1.391 . S
C608 C609 1.400 . S
C609 C603 1.491 . S
C609 C608 1.400 . S
C609 C610 1.398 . S
C610 H598 0.950 . S
C610 C609 1.398 . S
C610 C611 1.391 . S
C611 H599 0.950 . S
C611 C607 1.393 . S
C611 C610 1.391 . S
H612 C620 0.950 . S
H613 C625 0.950 . S
H614 C622 0.950 . S
H615 C624 0.950 . S
H616 C626 0.950 . S
H617 C628 0.950 . S
H618 C630 0.950 . S
H619 C631 0.950 . S
C620 H612 0.950 . S
C620 C621 1.386 . S
C620 C622 1.391 . S
C621 C620 1.386 . S
C621 C625 1.393 . S
C622 H614 0.950 . S
C622 C620 1.391 . S
C622 C623 1.400 . S
C623 C622 1.400 . S
C623 C624 1.398 . S
C623 C629 1.491 . S
C624 H615 0.950 . S
C624 C623 1.398 . S
C624 C625 1.391 . S
C625 H613 0.950 . S
C625 C621 1.393 . S
C625 C624 1.391 . S
C626 H616 0.950 . S
C626 C627 1.386 . S
C626 C628 1.391 . S
C627 C626 1.386 . S
C627 C631 1.393 . S
C628 H617 0.950 . S
C628 C626 1.391 . S
C628 C629 1.400 . S
C629 C623 1.491 . S
C629 C628 1.400 . S
C629 C630 1.398 . S
C630 H618 0.950 . S
C630 C629 1.398 . S
C630 C631 1.391 . S
C631 H619 0.950 . S
C631 C627 1.393 . S
C631 C630 1.391 . S
H632 C640 0.950 . S
H633 C645 0.950 . S
H634 C642 0.950 . S
H635 C644 0.950 . S
H636 C646 0.950 . S
H637 C648 0.950 . S
H638 C650 0.950 . S
H639 C651 0.950 . S
C640 H632 0.950 . S
C640 C641 1.386 . S
C640 C642 1.391 . S
C641 C640 1.386 . S
C641 C645 1.393 . S
C642 H634 0.950 . S
C642 C640 1.391 . S
C642 C643 1.400 . S
C643 C642 1.400 . S
C643 C644 1.398 . S
C643 C649 1.491 . S
C644 H635 0.950 . S
C644 C643 1.398 . S
C644 C645 1.391 . S
C645 H633 0.950 . S
C645 C641 1.393 . S
C645 C644 1.391 . S
C646 H636 0.950 . S
C646 C647 1.386 . S
C646 C648 1.391 . S
C647 C646 1.386 . S
C647 C651 1.393 . S
C648 H637 0.950 . S
C648 C646 1.391 . S
C648 C649 1.400 . S
C649 C643 1.491 . S
C649 C648 1.400 . S
C649 C650 1.398 . S
C650 H638 0.950 . S
C650 C649 1.398 . S
C650 C651 1.391 . S
C651 H639 0.950 . S
C651 C647 1.393 . S
C651 C650 1.391 . S
H652 C660 0.950 . S
H653 C665 0.950 . S
H654 C662 0.950 . S
H655 C664 0.950 . S
H656 C666 0.950 . S
H657 C668 0.950 . S
H658 C670 0.950 . S
H659 C671 0.950 . S
C660 H652 0.950 . S
C660 C661 1.386 . S
C660 C662 1.391 . S
C661 C660 1.386 . S
C661 C665 1.393 . S
C662 H654 0.950 . S
C662 C660 1.391 . S
C662 C663 1.400 . S
C663 C662 1.400 . S
C663 C664 1.398 . S
C663 C669 1.491 . S
C664 H655 0.950 . S
C664 C663 1.398 . S
C664 C665 1.391 . S
C665 H653 0.950 . S
C665 C661 1.393 . S
C665 C664 1.391 . S
C666 H656 0.950 . S
C666 C667 1.386 . S
C666 C668 1.391 . S
C667 C666 1.386 . S
C667 C671 1.393 . S
C668 H657 0.950 . S
C668 C666 1.391 . S
C668 C669 1.400 . S
C669 C663 1.491 . S
C669 C668 1.400 . S
C669 C670 1.398 . S
C670 H658 0.950 . S
C670 C669 1.398 . S
C670 C671 1.391 . S
C671 H659 0.950 . S
C671 C667 1.393 . S
C671 C670 1.391 . S
H672 C680 0.950 . S
H673 C685 0.950 . S
H674 C682 0.950 . S
H675 C684 0.950 . S
H676 C686 0.950 . S
H677 C688 0.950 . S
H678 C690 0.950 . S
H679 C691 0.950 . S
C680 H672 0.950 . S
C680 C681 1.386 . S
C680 C682 1.391 . S
C681 C680 1.386 . S
C681 C685 1.393 . S
C682 H674 0.950 . S
C682 C680 1.391 . S
C682 C683 1.400 . S
C683 C682 1.400 . S
C683 C684 1.398 . S
C683 C689 1.491 . S
C684 H675 0.950 . S
C684 C683 1.398 . S
C684 C685 1.391 . S
C685 H673 0.950 . S
C685 C681 1.393 . S
C685 C684 1.391 . S
C686 H676 0.950 . S
C686 C687 1.386 . S
C686 C688 1.391 . S
C687 C686 1.386 . S
C687 C691 1.393 . S
C688 H677 0.950 . S
C688 C686 1.391 . S
C688 C689 1.400 . S
C689 C683 1.491 . S
C689 C688 1.400 . S
C689 C690 1.398 . S
C690 H678 0.950 . S
C690 C689 1.398 . S
C690 C691 1.391 . S
C691 H679 0.950 . S
C691 C687 1.393 . S
C691 C690 1.391 . S
H692 C700 0.950 . S
H693 C705 0.950 . S
H694 C702 0.950 . S
H695 C704 0.950 . S
H696 C706 0.950 . S
H697 C708 0.950 . S
H698 C710 0.950 . S
H699 C711 0.950 . S
C700 H692 0.950 . S
C700 C701 1.386 . S
C700 C702 1.391 . S
C701 C700 1.386 . S
C701 C705 1.393 . S
C702 H694 0.950 . S
C702 C700 1.391 . S
C702 C703 1.400 . S
C703 C702 1.400 . S
C703 C704 1.398 . S
C703 C709 1.491 . S
C704 H695 0.950 . S
C704 C703 1.398 . S
C704 C705 1.391 . S
C705 H693 0.950 . S
C705 C701 1.393 . S
C705 C704 1.391 . S
C706 H696 0.950 . S
C706 C707 1.386 . S
C706 C708 1.391 . S
C707 C706 1.386 . S
C707 C711 1.393 . S
C708 H697 0.950 . S
C708 C706 1.391 . S
C708 C709 1.400 . S
C709 C703 1.491 . S
C709 C708 1.400 . S
C709 C710 1.398 . S
C710 H698 0.950 . S
C710 C709 1.398 . S
C710 C711 1.391 . S
C711 H699 0.950 . S
C711 C707 1.393 . S
C711 C710 1.391 . S
H712 C720 0.950 . S
H713 C725 0.950 . S
H714 C722 0.950 . S
H715 C724 0.950 . S
H716 C726 0.950 1_545 S
H717 C728 0.950 . S
H718 C730 0.950 . S
H719 C731 0.950 . S
C720 H712 0.950 . S
C720 C721 1.386 . S
C720 C722 1.391 . S
C721 C720 1.386 . S
C721 C725 1.393 . S
C722 H714 0.950 . S
C722 C720 1.391 . S
C722 C723 1.400 . S
C723 C722 1.400 . S
C723 C724 1.398 . S
C723 C729 1.491 . S
C724 H715 0.950 . S
C724 C723 1.398 . S
C724 C725 1.391 . S
C725 H713 0.950 . S
C725 C721 1.393 . S
C725 C724 1.391 . S
C726 H716 0.950 1_565 S
C726 C727 1.386 . S
C726 C728 1.391 . S
C727 C726 1.386 . S
C727 C731 1.393 . S
C728 H717 0.950 . S
C728 C726 1.391 . S
C728 C729 1.400 . S
C729 C723 1.491 . S
C729 C728 1.400 . S
C729 C730 1.398 . S
C730 H718 0.950 . S
C730 C729 1.398 . S
C730 C731 1.391 . S
C731 H719 0.950 . S
C731 C727 1.393 . S
C731 C730 1.391 . S
H732 C740 0.950 . S
H733 C745 0.950 . S
H734 C742 0.950 . S
H735 C744 0.950 . S
H736 C746 0.950 . S
H737 C748 0.950 . S
H738 C750 0.950 . S
H739 C751 0.950 . S
C740 H732 0.950 . S
C740 C741 1.386 . S
C740 C742 1.391 . S
C741 C740 1.386 . S
C741 C745 1.393 . S
C742 H734 0.950 . S
C742 C740 1.391 . S
C742 C743 1.400 . S
C743 C742 1.400 . S
C743 C744 1.398 . S
C743 C749 1.491 . S
C744 H735 0.950 . S
C744 C743 1.398 . S
C744 C745 1.391 . S
C745 H733 0.950 . S
C745 C741 1.393 . S
C745 C744 1.391 . S
C746 H736 0.950 . S
C746 C747 1.386 . S
C746 C748 1.391 . S
C747 C746 1.386 . S
C747 C751 1.393 . S
C748 H737 0.950 . S
C748 C746 1.391 . S
C748 C749 1.400 . S
C749 C743 1.491 . S
C749 C748 1.400 . S
C749 C750 1.398 . S
C750 H738 0.950 . S
C750 C749 1.398 . S
C750 C751 1.391 . S
C751 H739 0.950 . S
C751 C747 1.393 . S
C751 C750 1.391 . S
H752 C760 0.950 . S
H753 C765 0.950 . S
H754 C762 0.950 . S
H755 C764 0.950 . S
H756 C766 0.950 . S
H757 C768 0.950 . S
H758 C770 0.950 . S
H759 C771 0.950 . S
C760 H752 0.950 . S
C760 C761 1.386 . S
C760 C762 1.391 . S
C761 C760 1.386 . S
C761 C765 1.393 . S
C762 H754 0.950 . S
C762 C760 1.391 . S
C762 C763 1.400 . S
C763 C762 1.400 . S
C763 C764 1.398 . S
C763 C769 1.491 . S
C764 H755 0.950 . S
C764 C763 1.398 . S
C764 C765 1.391 . S
C765 H753 0.950 . S
C765 C761 1.393 . S
C765 C764 1.391 . S
C766 H756 0.950 . S
C766 C767 1.386 . S
C766 C768 1.391 . S
C767 C766 1.386 . S
C767 C771 1.393 . S
C768 H757 0.950 . S
C768 C766 1.391 . S
C768 C769 1.400 . S
C769 C763 1.491 . S
C769 C768 1.400 . S
C769 C770 1.398 . S
C770 H758 0.950 . S
C770 C769 1.398 . S
C770 C771 1.391 . S
C771 H759 0.950 . S
C771 C767 1.393 . S
C771 C770 1.391 . S
H772 C780 0.950 . S
H773 C785 0.950 . S
H774 C782 0.950 . S
H775 C784 0.950 . S
H776 C786 0.950 . S
H777 C788 0.950 . S
H778 C790 0.950 . S
H779 C791 0.950 . S
C780 H772 0.950 . S
C780 C781 1.386 . S
C780 C782 1.391 . S
C781 C780 1.386 . S
C781 C785 1.393 . S
C782 H774 0.950 . S
C782 C780 1.391 . S
C782 C783 1.400 . S
C783 C782 1.400 . S
C783 C784 1.398 . S
C783 C789 1.491 . S
C784 H775 0.950 . S
C784 C783 1.398 . S
C784 C785 1.391 . S
C785 H773 0.950 . S
C785 C781 1.393 . S
C785 C784 1.391 . S
C786 H776 0.950 . S
C786 C787 1.386 . S
C786 C788 1.391 . S
C787 C786 1.386 . S
C787 C791 1.393 . S
C788 H777 0.950 . S
C788 C786 1.391 . S
C788 C789 1.400 . S
C789 C783 1.491 . S
C789 C788 1.400 . S
C789 C790 1.398 . S
C790 H778 0.950 . S
C790 C789 1.398 . S
C790 C791 1.391 . S
C791 H779 0.950 . S
C791 C787 1.393 . S
C791 C790 1.391 . S
H792 C800 0.950 . S
H793 C805 0.950 . S
H794 C802 0.950 . S
H795 C804 0.950 . S
H796 C806 0.950 . S
H797 C808 0.950 . S
H798 C810 0.950 . S
H799 C811 0.950 . S
C800 H792 0.950 . S
C800 C801 1.386 . S
C800 C802 1.391 . S
C801 C800 1.386 . S
C801 C805 1.393 . S
C802 H794 0.950 . S
C802 C800 1.391 . S
C802 C803 1.400 . S
C803 C802 1.400 . S
C803 C804 1.398 . S
C803 C809 1.491 . S
C804 H795 0.950 . S
C804 C803 1.398 . S
C804 C805 1.391 . S
C805 H793 0.950 . S
C805 C801 1.393 . S
C805 C804 1.391 . S
C806 H796 0.950 . S
C806 C807 1.386 . S
C806 C808 1.391 . S
C807 C806 1.386 . S
C807 C811 1.393 . S
C808 H797 0.950 . S
C808 C806 1.391 . S
C808 C809 1.400 . S
C809 C803 1.491 . S
C809 C808 1.400 . S
C809 C810 1.398 . S
C810 H798 0.950 . S
C810 C809 1.398 . S
C810 C811 1.391 . S
C811 H799 0.950 . S
C811 C807 1.393 . S
C811 C810 1.391 . S
H812 C820 0.950 . S
H813 C825 0.950 . S
H814 C822 0.950 . S
H815 C824 0.950 . S
H816 C826 0.950 . S
H817 C828 0.950 . S
H818 C830 0.950 . S
H819 C831 0.950 . S
C820 H812 0.950 . S
C820 C821 1.386 . S
C820 C822 1.391 . S
C821 C820 1.386 . S
C821 C825 1.393 . S
C822 H814 0.950 . S
C822 C820 1.391 . S
C822 C823 1.400 . S
C823 C822 1.400 . S
C823 C824 1.398 . S
C823 C829 1.491 . S
C824 H815 0.950 . S
C824 C823 1.398 . S
C824 C825 1.391 . S
C825 H813 0.950 . S
C825 C821 1.393 . S
C825 C824 1.391 . S
C826 H816 0.950 . S
C826 C827 1.386 . S
C826 C828 1.391 . S
C827 C826 1.386 . S
C827 C831 1.393 1_556 S
C828 H817 0.950 . S
C828 C826 1.391 . S
C828 C829 1.400 . S
C829 C823 1.491 . S
C829 C828 1.400 . S
C829 C830 1.398 . S
C830 H818 0.950 . S
C830 C829 1.398 . S
C830 C831 1.391 1_556 S
C831 H819 0.950 . S
C831 C827 1.393 1_554 S
C831 C830 1.391 1_554 S
H832 C840 0.950 . S
H833 C845 0.950 . S
H834 C842 0.950 . S
H835 C844 0.950 . S
H836 C846 0.950 . S
H837 C848 0.950 . S
H838 C850 0.950 . S
H839 C851 0.950 . S
C840 H832 0.950 . S
C840 C841 1.386 . S
C840 C842 1.391 . S
C841 C840 1.386 . S
C841 C845 1.393 . S
C842 H834 0.950 . S
C842 C840 1.391 . S
C842 C843 1.400 . S
C843 C842 1.400 . S
C843 C844 1.398 . S
C843 C849 1.491 . S
C844 H835 0.950 . S
C844 C843 1.398 . S
C844 C845 1.391 . S
C845 H833 0.950 . S
C845 C841 1.393 . S
C845 C844 1.391 . S
C846 H836 0.950 . S
C846 C847 1.386 . S
C846 C848 1.391 . S
C847 C846 1.386 . S
C847 C851 1.393 . S
C848 H837 0.950 . S
C848 C846 1.391 . S
C848 C849 1.400 . S
C849 C843 1.491 . S
C849 C848 1.400 . S
C849 C850 1.398 . S
C850 H838 0.950 . S
C850 C849 1.398 . S
C850 C851 1.391 . S
C851 H839 0.950 . S
C851 C847 1.393 . S
C851 C850 1.391 . S
H852 C860 0.950 . S
H853 C865 0.950 . S
H854 C862 0.950 . S
H855 C864 0.950 . S
H856 C866 0.950 . S
H857 C868 0.950 . S
H858 C870 0.950 . S
H859 C871 0.950 1_554 S
C860 H852 0.950 . S
C860 C861 1.386 . S
C860 C862 1.391 . S
C861 C860 1.386 . S
C861 C865 1.393 . S
C862 H854 0.950 . S
C862 C860 1.391 . S
C862 C863 1.400 . S
C863 C862 1.400 . S
C863 C864 1.398 . S
C863 C869 1.491 . S
C864 H855 0.950 . S
C864 C863 1.398 . S
C864 C865 1.391 . S
C865 H853 0.950 . S
C865 C861 1.393 . S
C865 C864 1.391 . S
C866 H856 0.950 . S
C866 C867 1.386 1_556 S
C866 C868 1.391 . S
C867 C866 1.386 1_554 S
C867 C871 1.393 1_554 S
C868 H857 0.950 . S
C868 C866 1.391 . S
C868 C869 1.400 . S
C869 C863 1.491 . S
C869 C868 1.400 . S
C869 C870 1.398 . S
C870 H858 0.950 . S
C870 C869 1.398 . S
C870 C871 1.391 . S
C871 H859 0.950 1_556 S
C871 C867 1.393 1_556 S
C871 C870 1.391 . S
H872 C880 0.950 . S
H873 C885 0.950 . S
H874 C882 0.950 . S
H875 C884 0.950 . S
H876 C886 0.950 . S
H877 C888 0.950 . S
H878 C890 0.950 . S
H879 C891 0.950 . S
C880 H872 0.950 . S
C880 C881 1.386 . S
C880 C882 1.391 . S
C881 C880 1.386 . S
C881 C885 1.393 . S
C882 H874 0.950 . S
C882 C880 1.391 . S
C882 C883 1.400 . S
C883 C882 1.400 . S
C883 C884 1.398 . S
C883 C889 1.491 . S
C884 H875 0.950 . S
C884 C883 1.398 . S
C884 C885 1.391 . S
C885 H873 0.950 . S
C885 C881 1.393 . S
C885 C884 1.391 . S
C886 H876 0.950 . S
C886 C887 1.386 . S
C886 C888 1.391 . S
C887 C886 1.386 . S
C887 C891 1.393 . S
C888 H877 0.950 . S
C888 C886 1.391 . S
C888 C889 1.400 . S
C889 C883 1.491 . S
C889 C888 1.400 . S
C889 C890 1.398 . S
C890 H878 0.950 . S
C890 C889 1.398 . S
C890 C891 1.391 . S
C891 H879 0.950 . S
C891 C887 1.393 . S
C891 C890 1.391 . S
H892 C900 0.950 . S
H893 C905 0.950 . S
H894 C902 0.950 . S
H895 C904 0.950 . S
H896 C906 0.950 . S
H897 C908 0.950 . S
H898 C910 0.950 . S
H899 C911 0.950 . S
C900 H892 0.950 . S
C900 C901 1.386 . S
C900 C902 1.391 . S
C901 C900 1.386 . S
C901 C905 1.393 . S
C902 H894 0.950 . S
C902 C900 1.391 . S
C902 C903 1.400 . S
C903 C902 1.400 . S
C903 C904 1.398 . S
C903 C909 1.491 . S
C904 H895 0.950 . S
C904 C903 1.398 . S
C904 C905 1.391 . S
C905 H893 0.950 . S
C905 C901 1.393 . S
C905 C904 1.391 . S
C906 H896 0.950 . S
C906 C907 1.386 . S
C906 C908 1.391 . S
C907 C906 1.386 . S
C907 C911 1.393 . S
C908 H897 0.950 . S
C908 C906 1.391 . S
C908 C909 1.400 . S
C909 C903 1.491 . S
C909 C908 1.400 . S
C909 C910 1.398 . S
C910 H898 0.950 . S
C910 C909 1.398 . S
C910 C911 1.391 . S
C911 H899 0.950 . S
C911 C907 1.393 . S
C911 C910 1.391 . S
H912 C920 0.950 . S
H913 C925 0.950 . S
H914 C922 0.950 . S
H915 C924 0.950 . S
H916 C926 0.950 . S
H917 C928 0.950 . S
H918 C930 0.950 . S
H919 C931 0.950 . S
C920 H912 0.950 . S
C920 C921 1.386 . S
C920 C922 1.391 . S
C921 C920 1.386 . S
C921 C925 1.393 . S
C922 H914 0.950 . S
C922 C920 1.391 . S
C922 C923 1.400 . S
C923 C922 1.400 . S
C923 C924 1.398 . S
C923 C929 1.491 . S
C924 H915 0.950 . S
C924 C923 1.398 . S
C924 C925 1.391 . S
C925 H913 0.950 . S
C925 C921 1.393 . S
C925 C924 1.391 . S
C926 H916 0.950 . S
C926 C927 1.386 . S
C926 C928 1.391 . S
C927 C926 1.386 . S
C927 C931 1.393 . S
C928 H917 0.950 . S
C928 C926 1.391 . S
C928 C929 1.400 . S
C929 C923 1.491 . S
C929 C928 1.400 . S
C929 C930 1.398 . S
C930 H918 0.950 . S
C930 C929 1.398 . S
C930 C931 1.391 . S
C931 H919 0.950 . S
C931 C927 1.393 . S
C931 C930 1.391 . S
H932 C940 0.950 . S
H933 C945 0.950 . S
H934 C942 0.950 . S
H935 C944 0.950 . S
H936 C946 0.950 . S
H937 C948 0.950 . S
H938 C950 0.950 . S
H939 C951 0.950 . S
C940 H932 0.950 . S
C940 C941 1.386 . S
C940 C942 1.391 . S
C941 C940 1.386 . S
C941 C945 1.393 . S
C942 H934 0.950 . S
C942 C940 1.391 . S
C942 C943 1.400 . S
C943 C942 1.400 . S
C943 C944 1.398 . S
C943 C949 1.491 . S
C944 H935 0.950 . S
C944 C943 1.398 . S
C944 C945 1.391 . S
C945 H933 0.950 . S
C945 C941 1.393 . S
C945 C944 1.391 . S
C946 H936 0.950 . S
C946 C947 1.386 . S
C946 C948 1.391 . S
C947 C946 1.386 . S
C947 C951 1.393 . S
C948 H937 0.950 . S
C948 C946 1.391 . S
C948 C949 1.400 . S
C949 C943 1.491 . S
C949 C948 1.400 . S
C949 C950 1.398 . S
C950 H938 0.950 . S
C950 C949 1.398 . S
C950 C951 1.391 . S
C951 H939 0.950 . S
C951 C947 1.393 . S
C951 C950 1.391 . S
H952 C960 0.950 . S
H953 C965 0.950 . S
H954 C962 0.950 . S
H955 C964 0.950 . S
H956 C966 0.950 . S
H957 C968 0.950 . S
H958 C970 0.950 . S
H959 C971 0.950 . S
C960 H952 0.950 . S
C960 C961 1.386 . S
C960 C962 1.391 . S
C961 C960 1.386 . S
C961 C965 1.393 . S
C962 H954 0.950 . S
C962 C960 1.391 . S
C962 C963 1.400 . S
C963 C962 1.400 . S
C963 C964 1.398 . S
C963 C969 1.491 . S
C964 H955 0.950 . S
C964 C963 1.398 . S
C964 C965 1.391 . S
C965 H953 0.950 . S
C965 C961 1.393 . S
C965 C964 1.391 . S
C966 H956 0.950 . S
C966 C967 1.386 . S
C966 C968 1.391 . S
C967 C966 1.386 . S
C967 C971 1.393 . S
C968 H957 0.950 . S
C968 C966 1.391 . S
C968 C969 1.400 . S
C969 C963 1.491 . S
C969 C968 1.400 . S
C969 C970 1.398 . S
C970 H958 0.950 . S
C970 C969 1.398 . S
C970 C971 1.391 . S
C971 H959 0.950 . S
C971 C967 1.393 . S
C971 C970 1.391 . S
H972 C980 0.950 . S
H973 C985 0.950 . S
H974 C982 0.950 . S
H975 C984 0.950 . S
H976 C986 0.950 . S
H977 C988 0.950 . S
H978 C990 0.950 . S
H979 C991 0.950 . S
C980 H972 0.950 . S
C980 C981 1.386 . S
C980 C982 1.391 . S
C981 C980 1.386 . S
C981 C985 1.393 . S
C982 H974 0.950 . S
C982 C980 1.391 . S
C982 C983 1.400 . S
C983 C982 1.400 . S
C983 C984 1.398 . S
C983 C989 1.491 . S
C984 H975 0.950 . S
C984 C983 1.398 . S
C984 C985 1.391 . S
C985 H973 0.950 . S
C985 C981 1.393 . S
C985 C984 1.391 . S
C986 H976 0.950 . S
C986 C987 1.386 . S
C986 C988 1.391 . S
C987 C986 1.386 . S
C987 C991 1.393 . S
C988 H977 0.950 . S
C988 C986 1.391 . S
C988 C989 1.400 . S
C989 C983 1.491 . S
C989 C988 1.400 . S
C989 C990 1.398 . S
C990 H978 0.950 . S
C990 C989 1.398 . S
C990 C991 1.391 . S
C991 H979 0.950 . S
C991 C987 1.393 . S
C991 C990 1.391 . S
H992 C1000 0.950 . S
H993 C1005 0.950 . S
H994 C1002 0.950 . S
H995 C1004 0.950 . S
H996 C1006 0.950 . S
H997 C1008 0.950 . S
H998 C1010 0.950 . S
H999 C1011 0.950 . S
C1000 H992 0.950 . S
C1000 C1001 1.386 . S
C1000 C1002 1.391 . S
C1001 C1000 1.386 . S
C1001 C1005 1.393 . S
C1002 H994 0.950 . S
C1002 C1000 1.391 . S
C1002 C1003 1.400 . S
C1003 C1002 1.400 . S
C1003 C1004 1.398 . S
C1003 C1009 1.491 . S
C1004 H995 0.950 . S
C1004 C1003 1.398 . S
C1004 C1005 1.391 . S
C1005 H993 0.950 . S
C1005 C1001 1.393 . S
C1005 C1004 1.391 . S
C1006 H996 0.950 . S
C1006 C1007 1.386 . S
C1006 C1008 1.391 . S
C1007 C1006 1.386 . S
C1007 C1011 1.393 . S
C1008 H997 0.950 . S
C1008 C1006 1.391 . S
C1008 C1009 1.400 . S
C1009 C1003 1.491 . S
C1009 C1008 1.400 . S
C1009 C1010 1.398 . S
C1010 H998 0.950 . S
C1010 C1009 1.398 . S
C1010 C1011 1.391 . S
C1011 H999 0.950 . S
C1011 C1007 1.393 . S
C1011 C1010 1.391 . S
H1012 C1020 0.950 . S
H1013 C1025 0.950 . S
H1014 C1022 0.950 . S
H1015 C1024 0.950 . S
H1016 C1026 0.950 . S
H1017 C1028 0.950 . S
H1018 C1030 0.950 . S
H1019 C1031 0.950 . S
C1020 H1012 0.950 . S
C1020 C1021 1.386 . S
C1020 C1022 1.391 . S
C1021 C1020 1.386 . S
C1021 C1025 1.393 . S
C1022 H1014 0.950 . S
C1022 C1020 1.391 . S
C1022 C1023 1.400 . S
C1023 C1022 1.400 . S
C1023 C1024 1.398 . S
C1023 C1029 1.491 . S
C1024 H1015 0.950 . S
C1024 C1023 1.398 . S
C1024 C1025 1.391 . S
C1025 H1013 0.950 . S
C1025 C1021 1.393 . S
C1025 C1024 1.391 . S
C1026 H1016 0.950 . S
C1026 C1027 1.386 . S
C1026 C1028 1.391 . S
C1027 C1026 1.386 . S
C1027 C1031 1.393 . S
C1028 H1017 0.950 . S
C1028 C1026 1.391 . S
C1028 C1029 1.400 . S
C1029 C1023 1.491 . S
C1029 C1028 1.400 . S
C1029 C1030 1.398 . S
C1030 H1018 0.950 . S
C1030 C1029 1.398 . S
C1030 C1031 1.391 . S
C1031 H1019 0.950 . S
C1031 C1027 1.393 . S
C1031 C1030 1.391 . S
H1032 C1040 0.950 . S
H1033 C1045 0.950 . S
H1034 C1042 0.950 . S
H1035 C1044 0.950 . S
H1036 C1046 0.950 . S
H1037 C1048 0.950 . S
H1038 C1050 0.950 . S
H1039 C1051 0.950 . S
C1040 H1032 0.950 . S
C1040 C1041 1.386 . S
C1040 C1042 1.391 . S
C1041 C1040 1.386 . S
C1041 C1045 1.393 . S
C1042 H1034 0.950 . S
C1042 C1040 1.391 . S
C1042 C1043 1.400 . S
C1043 C1042 1.400 . S
C1043 C1044 1.398 . S
C1043 C1049 1.491 . S
C1044 H1035 0.950 . S
C1044 C1043 1.398 . S
C1044 C1045 1.391 . S
C1045 H1033 0.950 . S
C1045 C1041 1.393 . S
C1045 C1044 1.391 . S
C1046 H1036 0.950 . S
C1046 C1047 1.386 . S
C1046 C1048 1.391 . S
C1047 C1046 1.386 . S
C1047 C1051 1.393 . S
C1048 H1037 0.950 . S
C1048 C1046 1.391 . S
C1048 C1049 1.400 . S
C1049 C1043 1.491 . S
C1049 C1048 1.400 . S
C1049 C1050 1.398 . S
C1050 H1038 0.950 . S
C1050 C1049 1.398 . S
C1050 C1051 1.391 . S
C1051 H1039 0.950 . S
C1051 C1047 1.393 . S
C1051 C1050 1.391 . S
H1052 C1060 0.950 . S
H1053 C1065 0.950 . S
H1054 C1062 0.950 . S
H1055 C1064 0.950 . S
H1056 C1066 0.950 . S
H1057 C1068 0.950 . S
H1058 C1070 0.950 . S
H1059 C1071 0.950 . S
C1060 H1052 0.950 . S
C1060 C1061 1.386 . S
C1060 C1062 1.391 . S
C1061 C1060 1.386 . S
C1061 C1065 1.393 . S
C1062 H1054 0.950 . S
C1062 C1060 1.391 . S
C1062 C1063 1.400 . S
C1063 C1062 1.400 . S
C1063 C1064 1.398 . S
C1063 C1069 1.491 . S
C1064 H1055 0.950 . S
C1064 C1063 1.398 . S
C1064 C1065 1.391 . S
C1065 H1053 0.950 . S
C1065 C1061 1.393 . S
C1065 C1064 1.391 . S
C1066 H1056 0.950 . S
C1066 C1067 1.386 . S
C1066 C1068 1.391 . S
C1067 C1066 1.386 . S
C1067 C1071 1.393 . S
C1068 H1057 0.950 . S
C1068 C1066 1.391 . S
C1068 C1069 1.400 . S
C1069 C1063 1.491 . S
C1069 C1068 1.400 . S
C1069 C1070 1.398 . S
C1070 H1058 0.950 . S
C1070 C1069 1.398 . S
C1070 C1071 1.391 . S
C1071 H1059 0.950 . S
C1071 C1067 1.393 . S
C1071 C1070 1.391 . S
H1072 C1080 0.950 . S
H1073 C1085 0.950 . S
H1074 C1082 0.950 . S
H1075 C1084 0.950 . S
H1076 C1086 0.950 . S
H1077 C1088 0.950 . S
H1078 C1090 0.950 . S
H1079 C1091 0.950 . S
C1080 H1072 0.950 . S
C1080 C1081 1.386 . S
C1080 C1082 1.391 . S
C1081 C1080 1.386 . S
C1081 C1085 1.393 . S
C1082 H1074 0.950 . S
C1082 C1080 1.391 . S
C1082 C1083 1.400 . S
C1083 C1082 1.400 . S
C1083 C1084 1.398 . S
C1083 C1089 1.491 . S
C1084 H1075 0.950 . S
C1084 C1083 1.398 . S
C1084 C1085 1.391 . S
C1085 H1073 0.950 . S
C1085 C1081 1.393 . S
C1085 C1084 1.391 . S
C1086 H1076 0.950 . S
C1086 C1087 1.386 . S
C1086 C1088 1.391 . S
C1087 C1086 1.386 . S
C1087 C1091 1.393 . S
C1088 H1077 0.950 . S
C1088 C1086 1.391 . S
C1088 C1089 1.400 . S
C1089 C1083 1.491 . S
C1089 C1088 1.400 . S
C1089 C1090 1.398 . S
C1090 H1078 0.950 . S
C1090 C1089 1.398 . S
C1090 C1091 1.391 . S
C1091 H1079 0.950 . S
C1091 C1087 1.393 . S
C1091 C1090 1.391 . S
H1092 C1100 0.950 . S
H1093 C1105 0.950 . S
H1094 C1102 0.950 . S
H1095 C1104 0.950 . S
H1096 C1106 0.950 . S
H1097 C1108 0.950 . S
H1098 C1110 0.950 . S
H1099 C1111 0.950 . S
C1100 H1092 0.950 . S
C1100 C1101 1.386 . S
C1100 C1102 1.391 . S
C1101 C1100 1.386 . S
C1101 C1105 1.393 . S
C1102 H1094 0.950 . S
C1102 C1100 1.391 . S
C1102 C1103 1.400 . S
C1103 C1102 1.400 . S
C1103 C1104 1.398 . S
C1103 C1109 1.491 . S
C1104 H1095 0.950 . S
C1104 C1103 1.398 . S
C1104 C1105 1.391 . S
C1105 H1093 0.950 . S
C1105 C1101 1.393 . S
C1105 C1104 1.391 . S
C1106 H1096 0.950 . S
C1106 C1107 1.386 . S
C1106 C1108 1.391 . S
C1107 C1106 1.386 . S
C1107 C1111 1.393 . S
C1108 H1097 0.950 . S
C1108 C1106 1.391 . S
C1108 C1109 1.400 . S
C1109 C1103 1.491 . S
C1109 C1108 1.400 . S
C1109 C1110 1.398 . S
C1110 H1098 0.950 . S
C1110 C1109 1.398 . S
C1110 C1111 1.391 . S
C1111 H1099 0.950 . S
C1111 C1107 1.393 . S
C1111 C1110 1.391 . S
H1112 C1120 0.950 . S
H1113 C1125 0.950 . S
H1114 C1122 0.950 . S
H1115 C1124 0.950 . S
H1116 C1126 0.950 . S
H1117 C1128 0.950 . S
H1118 C1130 0.950 . S
H1119 C1131 0.950 . S
C1120 H1112 0.950 . S
C1120 C1121 1.386 . S
C1120 C1122 1.391 . S
C1121 C1120 1.386 . S
C1121 C1125 1.393 . S
C1122 H1114 0.950 . S
C1122 C1120 1.391 . S
C1122 C1123 1.400 . S
C1123 C1122 1.400 . S
C1123 C1124 1.398 . S
C1123 C1129 1.491 . S
C1124 H1115 0.950 . S
C1124 C1123 1.398 . S
C1124 C1125 1.391 . S
C1125 H1113 0.950 . S
C1125 C1121 1.393 . S
C1125 C1124 1.391 . S
C1126 H1116 0.950 . S
C1126 C1127 1.386 . S
C1126 C1128 1.391 . S
C1127 C1126 1.386 . S
C1127 C1131 1.393 . S
C1128 H1117 0.950 . S
C1128 C1126 1.391 . S
C1128 C1129 1.400 . S
C1129 C1123 1.491 . S
C1129 C1128 1.400 . S
C1129 C1130 1.398 . S
C1130 H1118 0.950 . S
C1130 C1129 1.398 . S
C1130 C1131 1.391 . S
C1131 H1119 0.950 . S
C1131 C1127 1.393 . S
C1131 C1130 1.391 . S
H1132 C1140 0.950 . S
H1133 C1145 0.950 . S
H1134 C1142 0.950 . S
H1135 C1144 0.950 . S
H1136 C1146 0.950 . S
H1137 C1148 0.950 . S
H1138 C1150 0.950 . S
H1139 C1151 0.950 . S
C1140 H1132 0.950 . S
C1140 C1141 1.386 . S
C1140 C1142 1.391 . S
C1141 C1140 1.386 . S
C1141 C1145 1.393 . S
C1142 H1134 0.950 . S
C1142 C1140 1.391 . S
C1142 C1143 1.400 . S
C1143 C1142 1.400 . S
C1143 C1144 1.398 . S
C1143 C1149 1.491 . S
C1144 H1135 0.950 . S
C1144 C1143 1.398 . S
C1144 C1145 1.391 . S
C1145 H1133 0.950 . S
C1145 C1141 1.393 . S
C1145 C1144 1.391 . S
C1146 H1136 0.950 . S
C1146 C1147 1.386 . S
C1146 C1148 1.391 . S
C1147 C1146 1.386 . S
C1147 C1151 1.393 . S
C1148 H1137 0.950 . S
C1148 C1146 1.391 . S
C1148 C1149 1.400 . S
C1149 C1143 1.491 . S
C1149 C1148 1.400 . S
C1149 C1150 1.398 . S
C1150 H1138 0.950 . S
C1150 C1149 1.398 . S
C1150 C1151 1.391 . S
C1151 H1139 0.950 . S
C1151 C1147 1.393 . S
C1151 C1150 1.391 . S
H1152 C1160 0.950 . S
H1153 C1165 0.950 . S
H1154 C1162 0.950 . S
H1155 C1164 0.950 . S
H1156 C1166 0.950 . S
H1157 C1168 0.950 . S
H1158 C1170 0.950 . S
H1159 C1171 0.950 . S
C1160 H1152 0.950 . S
C1160 C1161 1.386 . S
C1160 C1162 1.391 . S
C1161 C1160 1.386 . S
C1161 C1165 1.393 . S
C1162 H1154 0.950 . S
C1162 C1160 1.391 . S
C1162 C1163 1.400 . S
C1163 C1162 1.400 . S
C1163 C1164 1.398 . S
C1163 C1169 1.491 . S
C1164 H1155 0.950 . S
C1164 C1163 1.398 . S
C1164 C1165 1.391 . S
C1165 H1153 0.950 . S
C1165 C1161 1.393 . S
C1165 C1164 1.391 . S
C1166 H1156 0.950 . S
C1166 C1167 1.386 . S
C1166 C1168 1.391 . S
C1167 C1166 1.386 . S
C1167 C1171 1.393 . S
C1168 H1157 0.950 . S
C1168 C1166 1.391 . S
C1168 C1169 1.400 . S
C1169 C1163 1.491 . S
C1169 C1168 1.400 . S
C1169 C1170 1.398 . S
C1170 H1158 0.950 . S
C1170 C1169 1.398 . S
C1170 C1171 1.391 . S
C1171 H1159 0.950 . S
C1171 C1167 1.393 . S
C1171 C1170 1.391 . S
H1172 C1180 0.950 . S
H1173 C1185 0.950 . S
H1174 C1182 0.950 . S
H1175 C1184 0.950 . S
H1176 C1186 0.950 . S
H1177 C1188 0.950 . S
H1178 C1190 0.950 . S
H1179 C1191 0.950 . S
C1180 H1172 0.950 . S
C1180 C1181 1.386 . S
C1180 C1182 1.391 . S
C1181 C1180 1.386 . S
C1181 C1185 1.393 . S
C1182 H1174 0.950 . S
C1182 C1180 1.391 . S
C1182 C1183 1.400 . S
C1183 C1182 1.400 . S
C1183 C1184 1.398 . S
C1183 C1189 1.491 . S
C1184 H1175 0.950 . S
C1184 C1183 1.398 . S
C1184 C1185 1.391 . S
C1185 H1173 0.950 . S
C1185 C1181 1.393 . S
C1185 C1184 1.391 . S
C1186 H1176 0.950 . S
C1186 C1187 1.386 . S
C1186 C1188 1.391 . S
C1187 C1186 1.386 . S
C1187 C1191 1.393 . S
C1188 H1177 0.950 . S
C1188 C1186 1.391 . S
C1188 C1189 1.400 . S
C1189 C1183 1.491 . S
C1189 C1188 1.400 . S
C1189 C1190 1.398 . S
C1190 H1178 0.950 . S
C1190 C1189 1.398 . S
C1190 C1191 1.391 . S
C1191 H1179 0.950 . S
C1191 C1187 1.393 . S
C1191 C1190 1.391 . S
H1192 C1200 0.950 . S
H1193 C1205 0.950 . S
H1194 C1202 0.950 . S
H1195 C1204 0.950 . S
H1196 C1206 0.950 . S
H1197 C1208 0.950 . S
H1198 C1210 0.950 . S
H1199 C1211 0.950 . S
C1200 H1192 0.950 . S
C1200 C1201 1.386 . S
C1200 C1202 1.391 . S
C1201 C1200 1.386 . S
C1201 C1205 1.393 . S
C1202 H1194 0.950 . S
C1202 C1200 1.391 . S
C1202 C1203 1.400 . S
C1203 C1202 1.400 . S
C1203 C1204 1.398 . S
C1203 C1209 1.491 . S
C1204 H1195 0.950 . S
C1204 C1203 1.398 . S
C1204 C1205 1.391 . S
C1205 H1193 0.950 . S
C1205 C1201 1.393 . S
C1205 C1204 1.391 . S
C1206 H1196 0.950 . S
C1206 C1207 1.386 . S
C1206 C1208 1.391 . S
C1207 C1206 1.386 . S
C1207 C1211 1.393 . S
C1208 H1197 0.950 . S
C1208 C1206 1.391 . S
C1208 C1209 1.400 . S
C1209 C1203 1.491 . S
C1209 C1208 1.400 . S
C1209 C1210 1.398 . S
C1210 H1198 0.950 . S
C1210 C1209 1.398 . S
C1210 C1211 1.391 . S
C1211 H1199 0.950 . S
C1211 C1207 1.393 . S
C1211 C1210 1.391 . S
H1212 C1220 0.950 . S
H1213 C1225 0.950 . S
H1214 C1222 0.950 . S
H1215 C1224 0.950 . S
H1216 C1226 0.950 . S
H1217 C1228 0.950 . S
H1218 C1230 0.950 . S
H1219 C1231 0.950 . S
C1220 H1212 0.950 . S
C1220 C1221 1.386 . S
C1220 C1222 1.391 . S
C1221 C1220 1.386 . S
C1221 C1225 1.393 . S
C1222 H1214 0.950 . S
C1222 C1220 1.391 . S
C1222 C1223 1.400 . S
C1223 C1222 1.400 . S
C1223 C1224 1.398 . S
C1223 C1229 1.491 . S
C1224 H1215 0.950 . S
C1224 C1223 1.398 . S
C1224 C1225 1.391 . S
C1225 H1213 0.950 . S
C1225 C1221 1.393 . S
C1225 C1224 1.391 . S
C1226 H1216 0.950 . S
C1226 C1227 1.386 . S
C1226 C1228 1.391 . S
C1227 C1226 1.386 . S
C1227 C1231 1.393 . S
C1228 H1217 0.950 . S
C1228 C1226 1.391 . S
C1228 C1229 1.400 . S
C1229 C1223 1.491 . S
C1229 C1228 1.400 . S
C1229 C1230 1.398 . S
C1230 H1218 0.950 . S
C1230 C1229 1.398 . S
C1230 C1231 1.391 . S
C1231 H1219 0.950 . S
C1231 C1227 1.393 . S
C1231 C1230 1.391 . S
H1232 C1240 0.950 . S
H1233 C1245 0.950 . S
H1234 C1242 0.950 . S
H1235 C1244 0.950 . S
H1236 C1246 0.950 . S
H1237 C1248 0.950 . S
H1238 C1250 0.950 . S
H1239 C1251 0.950 . S
C1240 H1232 0.950 . S
C1240 C1241 1.386 . S
C1240 C1242 1.391 . S
C1241 C1240 1.386 . S
C1241 C1245 1.393 . S
C1242 H1234 0.950 . S
C1242 C1240 1.391 . S
C1242 C1243 1.400 . S
C1243 C1242 1.400 . S
C1243 C1244 1.398 . S
C1243 C1249 1.491 . S
C1244 H1235 0.950 . S
C1244 C1243 1.398 . S
C1244 C1245 1.391 . S
C1245 H1233 0.950 . S
C1245 C1241 1.393 . S
C1245 C1244 1.391 . S
C1246 H1236 0.950 . S
C1246 C1247 1.386 . S
C1246 C1248 1.391 . S
C1247 C1246 1.386 . S
C1247 C1251 1.393 . S
C1248 H1237 0.950 . S
C1248 C1246 1.391 . S
C1248 C1249 1.400 . S
C1249 C1243 1.491 . S
C1249 C1248 1.400 . S
C1249 C1250 1.398 . S
C1250 H1238 0.950 . S
C1250 C1249 1.398 . S
C1250 C1251 1.391 . S
C1251 H1239 0.950 . S
C1251 C1247 1.393 . S
C1251 C1250 1.391 . S
H1252 C1260 0.950 . S
H1253 C1265 0.950 . S
H1254 C1262 0.950 . S
H1255 C1264 0.950 . S
H1256 C1266 0.950 . S
H1257 C1268 0.950 . S
H1258 C1270 0.950 . S
H1259 C1271 0.950 . S
C1260 H1252 0.950 . S
C1260 C1261 1.386 . S
C1260 C1262 1.391 . S
C1261 C1260 1.386 . S
C1261 C1265 1.393 . S
C1262 H1254 0.950 . S
C1262 C1260 1.391 . S
C1262 C1263 1.400 . S
C1263 C1262 1.400 . S
C1263 C1264 1.398 . S
C1263 C1269 1.491 . S
C1264 H1255 0.950 . S
C1264 C1263 1.398 . S
C1264 C1265 1.391 . S
C1265 H1253 0.950 . S
C1265 C1261 1.393 . S
C1265 C1264 1.391 . S
C1266 H1256 0.950 . S
C1266 C1267 1.386 . S
C1266 C1268 1.391 . S
C1267 C1266 1.386 . S
C1267 C1271 1.393 . S
C1268 H1257 0.950 . S
C1268 C1266 1.391 . S
C1268 C1269 1.400 . S
C1269 C1263 1.491 . S
C1269 C1268 1.400 . S
C1269 C1270 1.398 . S
C1270 H1258 0.950 . S
C1270 C1269 1.398 . S
C1270 C1271 1.391 . S
C1271 H1259 0.950 . S
C1271 C1267 1.393 . S
C1271 C1270 1.391 . S
H1272 C1280 0.950 . S
H1273 C1285 0.950 . S
H1274 C1282 0.950 . S
H1275 C1284 0.950 . S
H1276 C1286 0.950 . S
H1277 C1288 0.950 . S
H1278 C1290 0.950 . S
H1279 C1291 0.950 . S
C1280 H1272 0.950 . S
C1280 C1281 1.386 . S
C1280 C1282 1.391 . S
C1281 C1280 1.386 . S
C1281 C1285 1.393 . S
C1282 H1274 0.950 . S
C1282 C1280 1.391 . S
C1282 C1283 1.400 . S
C1283 C1282 1.400 . S
C1283 C1284 1.398 . S
C1283 C1289 1.491 . S
C1284 H1275 0.950 . S
C1284 C1283 1.398 . S
C1284 C1285 1.391 . S
C1285 H1273 0.950 . S
C1285 C1281 1.393 . S
C1285 C1284 1.391 . S
C1286 H1276 0.950 . S
C1286 C1287 1.386 . S
C1286 C1288 1.391 . S
C1287 C1286 1.386 . S
C1287 C1291 1.393 . S
C1288 H1277 0.950 . S
C1288 C1286 1.391 . S
C1288 C1289 1.400 . S
C1289 C1283 1.491 . S
C1289 C1288 1.400 . S
C1289 C1290 1.398 . S
C1290 H1278 0.950 . S
C1290 C1289 1.398 . S
C1290 C1291 1.391 . S
C1291 H1279 0.950 . S
C1291 C1287 1.393 . S
C1291 C1290 1.391 . S
H1292 C1300 0.950 . S
H1293 C1305 0.950 . S
H1294 C1302 0.950 . S
H1295 C1304 0.950 . S
H1296 C1306 0.950 . S
H1297 C1308 0.950 . S
H1298 C1310 0.950 . S
H1299 C1311 0.950 . S
C1300 H1292 0.950 . S
C1300 C1301 1.386 . S
C1300 C1302 1.391 . S
C1301 C1300 1.386 . S
C1301 C1305 1.393 . S
C1302 H1294 0.950 . S
C1302 C1300 1.391 . S
C1302 C1303 1.400 . S
C1303 C1302 1.400 . S
C1303 C1304 1.398 . S
C1303 C1309 1.491 . S
C1304 H1295 0.950 . S
C1304 C1303 1.398 . S
C1304 C1305 1.391 . S
C1305 H1293 0.950 . S
C1305 C1301 1.393 . S
C1305 C1304 1.391 . S
C1306 H1296 0.950 . S
C1306 C1307 1.386 . S
C1306 C1308 1.391 . S
C1307 C1306 1.386 . S
C1307 C1311 1.393 . S
C1308 H1297 0.950 . S
C1308 C1306 1.391 . S
C1308 C1309 1.400 . S
C1309 C1303 1.491 . S
C1309 C1308 1.400 . S
C1309 C1310 1.398 . S
C1310 H1298 0.950 . S
C1310 C1309 1.398 . S
C1310 C1311 1.391 . S
C1311 H1299 0.950 . S
C1311 C1307 1.393 . S
C1311 C1310 1.391 . S
H1312 C1320 0.950 . S
H1313 C1325 0.950 . S
H1314 C1322 0.950 . S
H1315 C1324 0.950 . S
H1316 C1326 0.950 . S
H1317 C1328 0.950 . S
H1318 C1330 0.950 . S
H1319 C1331 0.950 . S
C1320 H1312 0.950 . S
C1320 C1321 1.386 . S
C1320 C1322 1.391 . S
C1321 C1320 1.386 . S
C1321 C1325 1.393 . S
C1322 H1314 0.950 . S
C1322 C1320 1.391 . S
C1322 C1323 1.400 . S
C1323 C1322 1.400 . S
C1323 C1324 1.398 . S
C1323 C1329 1.491 . S
C1324 H1315 0.950 . S
C1324 C1323 1.398 . S
C1324 C1325 1.391 . S
C1325 H1313 0.950 . S
C1325 C1321 1.393 . S
C1325 C1324 1.391 . S
C1326 H1316 0.950 . S
C1326 C1327 1.386 . S
C1326 C1328 1.391 . S
C1327 C1326 1.386 . S
C1327 C1331 1.393 . S
C1328 H1317 0.950 . S
C1328 C1326 1.391 . S
C1328 C1329 1.400 . S
C1329 C1323 1.491 . S
C1329 C1328 1.400 . S
C1329 C1330 1.398 . S
C1330 H1318 0.950 . S
C1330 C1329 1.398 . S
C1330 C1331 1.391 . S
C1331 H1319 0.950 . S
C1331 C1327 1.393 . S
C1331 C1330 1.391 . S
H1332 C1340 0.950 . S
H1333 C1345 0.950 . S
H1334 C1342 0.950 . S
H1335 C1344 0.950 . S
H1336 C1346 0.950 . S
H1337 C1348 0.950 . S
H1338 C1350 0.950 . S
H1339 C1351 0.950 . S
C1340 H1332 0.950 . S
C1340 C1341 1.386 . S
C1340 C1342 1.391 . S
C1341 C1340 1.386 . S
C1341 C1345 1.393 . S
C1342 H1334 0.950 . S
C1342 C1340 1.391 . S
C1342 C1343 1.400 . S
C1343 C1342 1.400 . S
C1343 C1344 1.398 . S
C1343 C1349 1.491 . S
C1344 H1335 0.950 . S
C1344 C1343 1.398 . S
C1344 C1345 1.391 . S
C1345 H1333 0.950 . S
C1345 C1341 1.393 . S
C1345 C1344 1.391 . S
C1346 H1336 0.950 . S
C1346 C1347 1.386 . S
C1346 C1348 1.391 . S
C1347 C1346 1.386 . S
C1347 C1351 1.393 . S
C1348 H1337 0.950 . S
C1348 C1346 1.391 . S
C1348 C1349 1.400 . S
C1349 C1343 1.491 . S
C1349 C1348 1.400 . S
C1349 C1350 1.398 . S
C1350 H1338 0.950 . S
C1350 C1349 1.398 . S
C1350 C1351 1.391 . S
C1351 H1339 0.950 . S
C1351 C1347 1.393 . S
C1351 C1350 1.391 . S
H1352 C1360 0.950 . S
H1353 C1365 0.950 . S
H1354 C1362 0.950 . S
H1355 C1364 0.950 . S
H1356 C1366 0.950 1_455 S
H1357 C1368 0.950 . S
H1358 C1370 0.950 . S
H1359 C1371 0.950 . S
C1360 H1352 0.950 . S
C1360 C1361 1.386 . S
C1360 C1362 1.391 . S
C1361 C1360 1.386 . S
C1361 C1365 1.393 . S
C1362 H1354 0.950 . S
C1362 C1360 1.391 . S
C1362 C1363 1.400 . S
C1363 C1362 1.400 . S
C1363 C1364 1.398 . S
C1363 C1369 1.491 . S
C1364 H1355 0.950 . S
C1364 C1363 1.398 . S
C1364 C1365 1.391 . S
C1365 H1353 0.950 . S
C1365 C1361 1.393 . S
C1365 C1364 1.391 . S
C1366 H1356 0.950 1_655 S
C1366 C1367 1.386 . S
C1366 C1368 1.391 . S
C1367 C1366 1.386 . S
C1367 C1371 1.393 . S
C1368 H1357 0.950 . S
C1368 C1366 1.391 . S
C1368 C1369 1.400 . S
C1369 C1363 1.491 . S
C1369 C1368 1.400 . S
C1369 C1370 1.398 . S
C1370 H1358 0.950 . S
C1370 C1369 1.398 . S
C1370 C1371 1.391 . S
C1371 H1359 0.950 . S
C1371 C1367 1.393 . S
C1371 C1370 1.391 . S
H1372 C1380 0.950 . S
H1373 C1385 0.950 . S
H1374 C1382 0.950 . S
H1375 C1384 0.950 . S
H1376 C1386 0.950 . S
H1377 C1388 0.950 . S
H1378 C1390 0.950 . S
H1379 C1391 0.950 . S
C1380 H1372 0.950 . S
C1380 C1381 1.386 . S
C1380 C1382 1.391 . S
C1381 C1380 1.386 . S
C1381 C1385 1.393 . S
C1382 H1374 0.950 . S
C1382 C1380 1.391 . S
C1382 C1383 1.400 . S
C1383 C1382 1.400 . S
C1383 C1384 1.398 . S
C1383 C1389 1.491 . S
C1384 H1375 0.950 . S
C1384 C1383 1.398 . S
C1384 C1385 1.391 . S
C1385 H1373 0.950 . S
C1385 C1381 1.393 . S
C1385 C1384 1.391 . S
C1386 H1376 0.950 . S
C1386 C1387 1.386 . S
C1386 C1388 1.391 . S
C1387 C1386 1.386 . S
C1387 C1391 1.393 . S
C1388 H1377 0.950 . S
C1388 C1386 1.391 . S
C1388 C1389 1.400 . S
C1389 C1383 1.491 . S
C1389 C1388 1.400 . S
C1389 C1390 1.398 . S
C1390 H1378 0.950 . S
C1390 C1389 1.398 . S
C1390 C1391 1.391 . S
C1391 H1379 0.950 . S
C1391 C1387 1.393 . S
C1391 C1390 1.391 . S
H1392 C1400 0.950 . S
H1393 C1405 0.950 . S
H1394 C1402 0.950 . S
H1395 C1404 0.950 . S
H1396 C1406 0.950 . S
H1397 C1408 0.950 . S
H1398 C1410 0.950 . S
H1399 C1411 0.950 . S
C1400 H1392 0.950 . S
C1400 C1401 1.386 . S
C1400 C1402 1.391 . S
C1401 C1400 1.386 . S
C1401 C1405 1.393 . S
C1402 H1394 0.950 . S
C1402 C1400 1.391 . S
C1402 C1403 1.400 . S
C1403 C1402 1.400 . S
C1403 C1404 1.398 . S
C1403 C1409 1.491 . S
C1404 H1395 0.950 . S
C1404 C1403 1.398 . S
C1404 C1405 1.391 . S
C1405 H1393 0.950 . S
C1405 C1401 1.393 . S
C1405 C1404 1.391 . S
C1406 H1396 0.950 . S
C1406 C1407 1.386 . S
C1406 C1408 1.391 . S
C1407 C1406 1.386 . S
C1407 C1411 1.393 . S
C1408 H1397 0.950 . S
C1408 C1406 1.391 . S
C1408 C1409 1.400 . S
C1409 C1403 1.491 . S
C1409 C1408 1.400 . S
C1409 C1410 1.398 . S
C1410 H1398 0.950 . S
C1410 C1409 1.398 . S
C1410 C1411 1.391 . S
C1411 H1399 0.950 . S
C1411 C1407 1.393 . S
C1411 C1410 1.391 . S
H1412 C1420 0.950 . S
H1413 C1425 0.950 . S
H1414 C1422 0.950 . S
H1415 C1424 0.950 . S
H1416 C1426 0.950 . S
H1417 C1428 0.950 . S
H1418 C1430 0.950 . S
H1419 C1431 0.950 . S
C1420 H1412 0.950 . S
C1420 C1421 1.386 . S
C1420 C1422 1.391 . S
C1421 C1420 1.386 . S
C1421 C1425 1.393 . S
C1422 H1414 0.950 . S
C1422 C1420 1.391 . S
C1422 C1423 1.400 . S
C1423 C1422 1.400 . S
C1423 C1424 1.398 . S
C1423 C1429 1.491 . S
C1424 H1415 0.950 . S
C1424 C1423 1.398 . S
C1424 C1425 1.391 . S
C1425 H1413 0.950 . S
C1425 C1421 1.393 . S
C1425 C1424 1.391 . S
C1426 H1416 0.950 . S
C1426 C1427 1.386 . S
C1426 C1428 1.391 . S
C1427 C1426 1.386 . S
C1427 C1431 1.393 . S
C1428 H1417 0.950 . S
C1428 C1426 1.391 . S
C1428 C1429 1.400 . S
C1429 C1423 1.491 . S
C1429 C1428 1.400 . S
C1429 C1430 1.398 . S
C1430 H1418 0.950 . S
C1430 C1429 1.398 . S
C1430 C1431 1.391 . S
C1431 H1419 0.950 . S
C1431 C1427 1.393 . S
C1431 C1430 1.391 . S
H1432 C1440 0.950 . S
H1433 C1445 0.950 . S
H1434 C1442 0.950 . S
H1435 C1444 0.950 . S
H1436 C1446 0.950 . S
H1437 C1448 0.950 . S
H1438 C1450 0.950 . S
H1439 C1451 0.950 . S
C1440 H1432 0.950 . S
C1440 C1441 1.386 . S
C1440 C1442 1.391 . S
C1441 C1440 1.386 . S
C1441 C1445 1.393 . S
C1442 H1434 0.950 . S
C1442 C1440 1.391 . S
C1442 C1443 1.400 . S
C1443 C1442 1.400 . S
C1443 C1444 1.398 . S
C1443 C1449 1.491 . S
C1444 H1435 0.950 . S
C1444 C1443 1.398 . S
C1444 C1445 1.391 . S
C1445 H1433 0.950 . S
C1445 C1441 1.393 . S
C1445 C1444 1.391 . S
C1446 H1436 0.950 . S
C1446 C1447 1.386 . S
C1446 C1448 1.391 . S
C1447 C1446 1.386 . S
C1447 C1451 1.393 . S
C1448 H1437 0.950 . S
C1448 C1446 1.391 . S
C1448 C1449 1.400 . S
C1449 C1443 1.491 . S
C1449 C1448 1.400 . S
C1449 C1450 1.398 . S
C1450 H1438 0.950 . S
C1450 C1449 1.398 . S
C1450 C1451 1.391 . S
C1451 H1439 0.950 . S
C1451 C1447 1.393 . S
C1451 C1450 1.391 . S
H1452 C1460 0.950 . S
H1453 C1465 0.950 . S
H1454 C1462 0.950 . S
H1455 C1464 0.950 . S
H1456 C1466 0.950 . S
H1457 C1468 0.950 . S
H1458 C1470 0.950 . S
H1459 C1471 0.950 . S
C1460 H1452 0.950 . S
C1460 C1461 1.386 . S
C1460 C1462 1.391 . S
C1461 C1460 1.386 . S
C1461 C1465 1.393 . S
C1462 H1454 0.950 . S
C1462 C1460 1.391 . S
C1462 C1463 1.400 . S
C1463 C1462 1.400 . S
C1463 C1464 1.398 . S
C1463 C1469 1.491 . S
C1464 H1455 0.950 . S
C1464 C1463 1.398 . S
C1464 C1465 1.391 . S
C1465 H1453 0.950 . S
C1465 C1461 1.393 . S
C1465 C1464 1.391 . S
C1466 H1456 0.950 . S
C1466 C1467 1.386 . S
C1466 C1468 1.391 . S
C1467 C1466 1.386 . S
C1467 C1471 1.393 . S
C1468 H1457 0.950 . S
C1468 C1466 1.391 . S
C1468 C1469 1.400 . S
C1469 C1463 1.491 . S
C1469 C1468 1.400 . S
C1469 C1470 1.398 . S
C1470 H1458 0.950 . S
C1470 C1469 1.398 . S
C1470 C1471 1.391 . S
C1471 H1459 0.950 . S
C1471 C1467 1.393 . S
C1471 C1470 1.391 . S
C527 C337 2.672 . S
C521 C24 2.628 . S
C547 C342 3.070 . S
C541 C53 3.102 . S
C567 C343 1.366 . S
C561 C82 1.349 . S
C581 C137 0.300 . S
C587 C347 0.485 . S
C601 C184 2.931 . S
C607 C350 2.879 . S
C627 C351 1.343 . S
C621 C202 1.355 . S
C641 C266 0.441 . S
C647 C328 0.278 . S
C661 C293 2.644 . S
C667 C344 2.664 . S
C687 C382 2.730 . S
C681 C2 2.762 . S
C701 C57 0.719 . S
C707 C408 0.931 . S
C727 C360 0.682 . S
C721 C106 0.707 . S
C747 C415 0.964 . S
C741 C143 0.960 . S
C761 C162 1.020 . S
C767 C369 1.035 . S
C787 C411 0.752 1_556 S
C781 C226 0.755 . S
C801 C264 2.418 . S
C807 C375 2.385 . S
C821 C297 0.469 . S
C827 C406 0.542 1_556 S
C841 C26 0.604 . S
C847 C414 0.636 . S
C861 C186 0.240 . S
C867 C401 0.407 . S
C887 C379 2.293 . S
C881 C224 2.330 . S
C907 C407 1.765 . S
C901 C242 1.804 . S
C921 C303 3.195 . S
C927 C374 3.098 . S
C941 C104 2.026 . S
C947 C392 2.007 . S
C967 C383 2.825 . S
C961 C133 2.846 . S
C981 C63 1.664 . S
C987 C376 1.692 . S
C1001 C304 2.597 . S
C1007 C438 2.561 . S
C1021 C173 2.887 . S
C1027 C433 2.856 . S
C1047 C447 1.303 . S
C1041 C223 1.323 . S
C1067 C424 0.311 . S
C1061 C257 0.393 . S
C1081 C64 3.059 . S
C1087 C440 3.044 . S
C1107 C439 1.307 . S
C1101 C103 1.336 . S
C1121 C146 0.325 . S
C1127 C443 0.345 . S
C1141 C13 2.592 . S
C1147 C446 2.572 . S
C1161 C282 3.203 . S
C1167 C472 3.201 . S
C1187 C488 0.441 . S
C1181 C177 0.164 . S
C1201 C213 2.341 . S
C1207 C470 2.305 . S
C1221 C263 1.814 . S
C1227 C503 1.738 . S
C1247 C479 1.687 . S
C1241 C42 1.683 . S
C1261 C93 2.067 . S
C1267 C497 2.042 . S
C1287 C475 2.754 . S
C1281 C144 2.837 . S
C1307 C510 0.676 . S
C1301 C17 0.656 . S
C1327 C502 0.450 . S
C1321 C306 0.397 . S
C1341 C66 0.657 . S
C1347 C507 0.781 . S
C1361 C97 0.718 . S
C1367 C478 0.720 . S
C1387 C511 1.006 . S
C1381 C122 0.981 . S
C1401 C23 2.767 . S
C1407 C465 2.755 . S
C1421 C217 0.781 . S
C1427 C504 0.782 . S
C1447 C456 2.405 . S
C1441 C253 2.413 . S
C1467 C471 1.037 . S
C1461 C183 1.037 . S
