# Generated by pormake.
# Topology anh, (6,3)-cn, num edge types: 1
# Building blocks:
#     Node 0, Type 0, BuildingBlock: MIFKUJ_clean_sbu_0, # of connection points: 6
#     Node 1, Type 0, BuildingBlock: MIFKUJ_clean_sbu_0, # of connection points: 6
#     Node 2, Type 0, BuildingBlock: MIFKUJ_clean_sbu_0, # of connection points: 6
#     Node 3, Type 1, BuildingBlock: WUSLED_clean_sbu_0, # of connection points: 3
#     Node 4, Type 1, BuildingBlock: WUSLED_clean_sbu_0, # of connection points: 3
#     Node 5, Type 1, BuildingBlock: WUSLED_clean_sbu_0, # of connection points: 3
#     Node 6, Type 1, BuildingBlock: WUSLED_clean_sbu_0, # of connection points: 3
#     Node 7, Type 1, BuildingBlock: WUSLED_clean_sbu_0, # of connection points: 3
#     Node 8, Type 1, BuildingBlock: WUSLED_clean_sbu_0, # of connection points: 3
#     Edge 9, Type (0, 1), BuildingBlock: CIFDUS_clean_linker_0, # of connection points: 2
#     Edge 10, Type (0, 1), BuildingBlock: CIFDUS_clean_linker_0, # of connection points: 2
#     Edge 11, Type (0, 1), BuildingBlock: CIFDUS_clean_linker_0, # of connection points: 2
#     Edge 12, Type (0, 1), BuildingBlock: CIFDUS_clean_linker_0, # of connection points: 2
#     Edge 13, Type (0, 1), BuildingBlock: CIFDUS_clean_linker_0, # of connection points: 2
#     Edge 14, Type (0, 1), BuildingBlock: CIFDUS_clean_linker_0, # of connection points: 2
#     Edge 15, Type (0, 1), BuildingBlock: CIFDUS_clean_linker_0, # of connection points: 2
#     Edge 16, Type (0, 1), BuildingBlock: CIFDUS_clean_linker_0, # of connection points: 2
#     Edge 17, Type (0, 1), BuildingBlock: CIFDUS_clean_linker_0, # of connection points: 2
#     Edge 18, Type (0, 1), BuildingBlock: CIFDUS_clean_linker_0, # of connection points: 2
#     Edge 19, Type (0, 1), BuildingBlock: CIFDUS_clean_linker_0, # of connection points: 2
#     Edge 20, Type (0, 1), BuildingBlock: CIFDUS_clean_linker_0, # of connection points: 2
#     Edge 21, Type (0, 1), BuildingBlock: CIFDUS_clean_linker_0, # of connection points: 2
#     Edge 22, Type (0, 1), BuildingBlock: CIFDUS_clean_linker_0, # of connection points: 2
#     Edge 23, Type (0, 1), BuildingBlock: CIFDUS_clean_linker_0, # of connection points: 2
#     Edge 24, Type (0, 1), BuildingBlock: CIFDUS_clean_linker_0, # of connection points: 2
#     Edge 25, Type (0, 1), BuildingBlock: CIFDUS_clean_linker_0, # of connection points: 2
#     Edge 26, Type (0, 1), BuildingBlock: CIFDUS_clean_linker_0, # of connection points: 2
# Relax obj value: 0.128
# Max RMSD: 0.180
# Mean RMSD: 0.140
data_MOF--net-anh--node1-MIFKUJ_clean_sbu_0--node2-WUSLED_clean_sbu_0--edge1-CIFDUS_clean_linker_0
_symmetry_space_group_name_H-M    P1
_symmetry_Int_Tables_number       1
_symmetry_cell_setting            triclinic
loop_
_symmetry_equiv_pos_as_xyz
'x, y, z'
_cell_length_a     36.244155
_cell_length_b     36.312118
_cell_length_c     61.32477
_cell_angle_alpha  93.420116
_cell_angle_beta   90.902933
_cell_angle_gamma 119.83003
loop_
_atom_site_label
_atom_site_type_symbol
_atom_site_fract_x
_atom_site_fract_y
_atom_site_fract_z
_atom_type_partial_charge
Zn0 Zn 0.06443 0.56278 0.16823 0.0
Zn1 Zn 0.94176 0.47887 0.16176 0.0
C2 C 0.12922 0.53853 0.16864 0.0
O3 O 0.13265 0.55136 0.18944 0.0
C4 C 0.87154 0.48712 0.14718 0.0
O5 O 0.86702 0.45541 0.13374 0.0
O6 O 0.10469 0.62544 0.17427 0.0
O7 O 0.02082 0.55694 0.14518 0.0
O8 O 0.97625 0.48977 0.13507 0.0
C9 C 0.13426 0.64664 0.16166 0.0
O10 O 0.13808 0.62737 0.14373 0.0
O11 O 0.10044 0.53832 0.15635 0.0
C12 C 0.87209 0.40666 0.17563 0.0
O13 O 0.87466 0.4373 0.18924 0.0
O14 O 0.90015 0.41594 0.16155 0.0
O15 O 0.97326 0.49615 0.19105 0.0
O16 O 0.04225 0.54117 0.19767 0.0
O17 O 0.90423 0.50579 0.16034 0.0
C18 C 0.006 0.52604 0.13061 0.0
C19 C 0.00565 0.51583 0.20428 0.0
Zn20 Zn 0.58056 0.07211 0.50076 0.0
Zn21 Zn 0.5231 0.93398 0.49691 0.0
C22 C 0.65953 0.14395 0.5141 0.0
O23 O 0.63533 0.14331 0.52998 0.0
C24 C 0.42752 0.8864 0.50007 0.0
O25 O 0.42706 0.92224 0.4993 0.0
O26 O 0.55245 0.10819 0.49947 0.0
O27 O 0.55765 0.02523 0.47603 0.0
O28 O 0.52799 0.95611 0.46715 0.0
C29 C 0.56852 0.14136 0.48886 0.0
O30 O 0.60033 0.1489 0.47641 0.0
O31 O 0.64371 0.11378 0.49902 0.0
C32 C 0.57487 0.90053 0.51538 0.0
O33 O 0.57912 0.92495 0.53302 0.0
O34 O 0.55577 0.9024 0.49828 0.0
O35 O 0.54171 0.98105 0.5208 0.0
O36 O 0.57033 0.04933 0.53066 0.0
O37 O 0.46277 0.88681 0.49968 0.0
C38 C 0.54267 0.99394 0.46157 0.0
C39 C 0.5536 0.01105 0.53575 0.0
Zn40 Zn 0.56631 0.50025 0.83327 0.0
Zn41 Zn 0.49273 0.55915 0.83447 0.0
C42 C 0.55403 0.41617 0.84095 0.0
O43 O 0.57713 0.43499 0.85917 0.0
C44 C 0.50939 0.63633 0.82072 0.0
O45 O 0.48096 0.60816 0.80607 0.0
O46 O 0.63017 0.52805 0.83711 0.0
O47 O 0.549 0.51462 0.80487 0.0
O48 O 0.50454 0.54026 0.80537 0.0
C49 C 0.65083 0.51867 0.82347 0.0
O50 O 0.63042 0.49348 0.80592 0.0
O51 O 0.54516 0.43759 0.82838 0.0
C52 C 0.42671 0.56427 0.8523 0.0
O53 O 0.46001 0.58776 0.86577 0.0
O54 O 0.43105 0.54418 0.83574 0.0
O55 O 0.5058 0.54043 0.86207 0.0
O56 O 0.54547 0.50956 0.86213 0.0
O57 O 0.52382 0.62326 0.83561 0.0
C58 C 0.52604 0.52662 0.79507 0.0
C59 C 0.52385 0.52354 0.872 0.0
C60 C 0.58336 0.1112 0.19489 0.0
C61 C 0.60543 0.13884 0.21334 0.0
C62 C 0.65543 0.19117 0.19021 0.0
C63 C 0.64101 0.1784 0.21103 0.0
C64 C 0.63402 0.16301 0.17168 0.0
C65 C 0.59796 0.12319 0.17402 0.0
U66 U 0.5168 0.0381 0.23531 0.0
O67 O 0.44791 1.00224 0.2395 0.0
O68 O 0.48433 0.96867 0.23702 0.0
C69 C 0.44668 0.96539 0.23854 0.0
C70 C 0.54525 0.07032 0.19807 0.0
C71 C 0.41185 0.93096 0.22471 0.0
C72 C 0.37527 0.89808 0.18937 0.0
C73 C 0.40967 0.93148 0.20186 0.0
C74 C 0.34552 0.86387 0.22253 0.0
C75 C 0.34267 0.86407 0.19964 0.0
C76 C 0.37972 0.89701 0.2349 0.0
C77 C 0.55784 0.07666 0.29468 0.0
C78 C 0.52127 0.03553 0.32502 0.0
C79 C 0.58773 0.10212 0.3318 0.0
C80 C 0.5898 0.10735 0.30938 0.0
C81 C 0.55359 0.06601 0.33989 0.0
C82 C 0.5234 0.04081 0.30258 0.0
C83 C 0.5613 0.08209 0.27115 0.0
O84 O 0.55313 0.04211 0.20623 0.0
O85 O 0.51514 0.07389 0.20799 0.0
O86 O 0.53197 0.08791 0.26176 0.0
O87 O 0.56896 0.0551 0.25969 0.0
H88 H 0.59485 0.1299 0.2296 0.0
H89 H 0.65729 0.19909 0.22561 0.0
H90 H 0.64454 0.17219 0.15544 0.0
H91 H 0.58136 0.10207 0.15962 0.0
H92 H 0.37388 0.89909 0.17177 0.0
H93 H 0.43435 0.95765 0.19378 0.0
H94 H 0.32152 0.83772 0.23091 0.0
H95 H 0.38108 0.8961 0.25252 0.0
H96 H 0.49429 0.00763 0.33073 0.0
H97 H 0.61341 0.12588 0.34274 0.0
H98 H 0.61666 0.13515 0.30348 0.0
H99 H 0.49838 0.01685 0.29139 0.0
C100 C 0.57577 0.60519 0.52215 0.0
C101 C 0.57294 0.63067 0.53941 0.0
C102 C 0.57804 0.68207 0.51409 0.0
C103 C 0.57397 0.66866 0.53542 0.0
C104 C 0.58115 0.65645 0.49685 0.0
C105 C 0.58 0.61832 0.50086 0.0
U106 U 0.57171 0.53086 0.5633 0.0
O107 O 0.5337 0.46123 0.56415 0.0
O108 O 0.60362 0.49324 0.5662 0.0
C109 C 0.56754 0.45685 0.56529 0.0
C110 C 0.57407 0.56496 0.52648 0.0
C111 C 0.56577 0.42147 0.55148 0.0
C112 C 0.57598 0.39102 0.5173 0.0
C113 C 0.57615 0.42507 0.52947 0.0
C114 C 0.55449 0.34964 0.54898 0.0
C115 C 0.56535 0.35293 0.52698 0.0
C116 C 0.55464 0.38351 0.56105 0.0
C117 C 0.57175 0.56413 0.6233 0.0
C118 C 0.57169 0.52109 0.65218 0.0
C119 C 0.56547 0.58372 0.66097 0.0
C120 C 0.56786 0.5916 0.63888 0.0
C121 C 0.56718 0.54831 0.66783 0.0
C122 C 0.57372 0.52883 0.63002 0.0
C123 C 0.573 0.5723 0.6001 0.0
O124 O 0.60825 0.56923 0.53676 0.0
O125 O 0.53845 0.53657 0.53451 0.0
O126 O 0.53788 0.54683 0.58822 0.0
O127 O 0.60766 0.57867 0.59052 0.0
H128 H 0.56957 0.62096 0.55597 0.0
H129 H 0.57072 0.68707 0.54904 0.0
H130 H 0.58474 0.66598 0.48026 0.0
H131 H 0.58236 0.59907 0.48736 0.0
H132 H 0.58423 0.39451 0.50035 0.0
H133 H 0.58479 0.45424 0.52183 0.0
H134 H 0.54702 0.32127 0.55714 0.0
H135 H 0.54677 0.38029 0.57806 0.0
H136 H 0.57277 0.49344 0.65705 0.0
H137 H 0.56248 0.60544 0.67273 0.0
H138 H 0.56641 0.61904 0.63394 0.0
H139 H 0.57654 0.50719 0.61813 0.0
C140 C 0.95437 0.53945 0.85259 0.0
C141 C 0.92197 0.52998 0.8672 0.0
C142 C 0.88034 0.54133 0.83961 0.0
C143 C 0.88526 0.53078 0.86076 0.0
C144 C 0.91348 0.55186 0.82522 0.0
C145 C 0.95018 0.55087 0.83167 0.0
U146 U 0.02165 0.53083 0.8972 0.0
O147 O 0.05058 0.49019 0.89901 0.0
O148 O 0.09081 0.55994 0.90307 0.0
C149 C 0.08936 0.52297 0.90192 0.0
C150 C 0.99196 0.53648 0.85906 0.0
C151 C 0.12248 0.52037 0.88965 0.0
C152 C 0.16498 0.53235 0.85775 0.0
C153 C 0.13009 0.53137 0.86793 0.0
C154 C 0.18352 0.51012 0.89072 0.0
C155 C 0.19247 0.52272 0.86935 0.0
C156 C 0.1488 0.50889 0.90074 0.0
C157 C 0.99014 0.52999 0.9559 0.0
C158 C 0.01995 0.50828 0.98492 0.0
C159 C 0.98007 0.54398 0.99389 0.0
C160 C 0.97362 0.54659 0.97163 0.0
C161 C 1.00297 0.52446 0.00075 0.0
C162 C 0.01384 0.51129 0.96266 0.0
C163 C 0.98268 0.53261 0.93255 0.0
O164 O 0.02183 0.56973 0.87092 0.0
O165 O 0.98337 0.50003 0.8666 0.0
O166 O 0.97117 0.49769 0.91992 0.0
O167 O 0.01166 0.56719 0.92418 0.0
H168 H 0.92475 0.52119 0.88348 0.0
H169 H 0.8602 0.52191 0.87216 0.0
H170 H 0.91098 0.5607 0.80894 0.0
H171 H 0.97505 0.55856 0.82026 0.0
H172 H 0.17155 0.54237 0.84129 0.0
H173 H 0.10993 0.54032 0.85915 0.0
H174 H 0.20424 0.50241 0.89991 0.0
H175 H 0.14328 0.50024 0.91748 0.0
H176 H 0.03801 0.4934 0.98977 0.0
H177 H 0.96625 0.55629 0.00572 0.0
H178 H 0.95541 0.56127 0.96669 0.0
H179 H 0.02731 0.49875 0.95072 0.0
C180 C 0.95208 0.42265 0.47732 0.0
C181 C 0.92328 0.39847 0.4597 0.0
C182 C 0.8793 0.34358 0.4837 0.0
C183 C 0.88723 0.35941 0.46285 0.0
C184 C 0.90836 0.36805 0.50133 0.0
C185 C 0.94444 0.40724 0.49815 0.0
U186 U 0.02198 0.50103 0.43799 0.0
O187 O 0.09159 0.53726 0.43572 0.0
O188 O 0.05538 0.57096 0.43913 0.0
C189 C 0.0931 0.57423 0.43796 0.0
C190 C 0.99034 0.46341 0.4738 0.0
C191 C 0.12865 0.60837 0.45197 0.0
C192 C 0.15734 0.66928 0.47897 0.0
C193 C 0.12238 0.63302 0.46847 0.0
C194 C 0.20512 0.65573 0.45722 0.0
C195 C 0.19911 0.68149 0.47316 0.0
C196 C 0.17033 0.6197 0.44677 0.0
C197 C 0.99007 0.47353 0.37735 0.0
C198 C 0.03329 0.5205 0.35015 0.0
C199 C 0.97026 0.45319 0.33873 0.0
C200 C 0.96253 0.44443 0.3606 0.0
C201 C 0.00569 0.49137 0.33321 0.0
C202 C 0.02554 0.51162 0.37205 0.0
C203 C 0.98195 0.46339 0.40021 0.0
O204 O 0.02009 0.45997 0.46344 0.0
O205 O 0.98299 0.49257 0.46644 0.0
O206 O 0.97305 0.48868 0.41242 0.0
O207 O 0.00913 0.45494 0.40995 0.0
H208 H 0.92871 0.40989 0.44347 0.0
H209 H 0.86528 0.34187 0.44898 0.0
H210 H 0.90356 0.35667 0.51754 0.0
H211 H 0.96648 0.4254 0.51191 0.0
H212 H 0.15166 0.68821 0.49133 0.0
H213 H 0.09055 0.62512 0.47279 0.0
H214 H 0.23667 0.66448 0.45201 0.0
H215 H 0.17599 0.6016 0.43389 0.0
H216 H 0.06058 0.55036 0.34652 0.0
H217 H 0.94874 0.42972 0.32613 0.0
H218 H 0.93516 0.41476 0.36442 0.0
H219 H 0.04719 0.53443 0.38485 0.0
C220 C 0.53568 0.94358 0.80867 0.0
C221 C 0.53086 0.91838 0.78944 0.0
C222 C 0.52512 0.8617 0.81071 0.0
C223 C 0.52561 0.8779 0.79043 0.0
C224 C 0.53129 0.88745 0.83005 0.0
C225 C 0.53637 0.92822 0.82903 0.0
U226 U 0.54178 0.02107 0.77065 0.0
O227 O 0.51005 0.05882 0.76797 0.0
O228 O 0.58006 0.09076 0.77024 0.0
C229 C 0.54621 0.09515 0.76914 0.0
C230 C 0.53908 0.98526 0.8068 0.0
C231 C 0.54779 0.13029 0.783 0.0
C232 C 0.53324 0.15944 0.81637 0.0
C233 C 0.53386 0.12556 0.80444 0.0
C234 C 0.56108 0.20271 0.78562 0.0
C235 C 0.54612 0.19806 0.80684 0.0
C236 C 0.56189 0.16916 0.77385 0.0
C237 C 0.54108 0.98726 0.71044 0.0
C238 C 0.53511 0.02591 0.68089 0.0
C239 C 0.55328 0.97074 0.67327 0.0
C240 C 0.55112 0.9634 0.69544 0.0
C241 C 0.54537 1.00214 0.66572 0.0
C242 C 0.53308 0.0186 0.70309 0.0
C243 C 0.53993 0.97963 0.73371 0.0
O244 O 0.57494 0.01386 0.79906 0.0
O245 O 0.50527 0.98327 0.79731 0.0
O246 O 0.50545 0.9736 0.74337 0.0
O247 O 0.57521 0.0051 0.74548 0.0
H248 H 0.53059 0.92987 0.77357 0.0
H249 H 0.52164 0.85909 0.77527 0.0
H250 H 0.53096 0.8756 0.84589 0.0
H251 H 0.54022 0.9474 0.84403 0.0
H252 H 0.52165 0.15513 0.83272 0.0
H253 H 0.52287 0.09562 0.81174 0.0
H254 H 0.57198 0.23236 0.77804 0.0
H255 H 0.57289 0.17338 0.75736 0.0
H256 H 0.52841 0.05001 0.67559 0.0
H257 H 0.56195 0.95238 0.66211 0.0
H258 H 0.55767 0.93929 0.7009 0.0
H259 H 0.5254 0.03742 0.71451 0.0
C260 C 0.58308 0.50678 0.1439 0.0
C261 C 0.60003 0.50196 0.12424 0.0
C262 C 0.65656 0.49855 0.14415 0.0
C263 C 0.63619 0.4978 0.12434 0.0
C264 C 0.64061 0.50495 0.16396 0.0
C265 C 0.60385 0.50881 0.16383 0.0
U266 U 0.50403 0.50939 0.10683 0.0
O267 O 0.43397 0.47352 0.10283 0.0
O268 O 0.46815 0.54358 0.1065 0.0
C269 C 0.43101 0.50822 0.1043 0.0
C270 C 0.54324 0.50843 0.1428 0.0
C271 C 0.39583 0.50666 0.11678 0.0
C272 C 0.36858 0.53209 0.14655 0.0
C273 C 0.40273 0.53104 0.13665 0.0
C274 C 0.32031 0.48348 0.11722 0.0
C275 C 0.32703 0.50891 0.13672 0.0
C276 C 0.35431 0.48249 0.10738 0.0
C277 C 0.53863 0.50908 0.04702 0.0
C278 C 0.52192 0.53284 0.01399 0.0
C279 C 0.5563 0.49016 0.01171 0.0
C280 C 0.55563 0.48834 0.03434 0.0
C281 C 0.54022 0.51308 0.00128 0.0
C282 C 0.52114 0.53086 0.03674 0.0
C283 C 0.54242 0.5094 0.07091 0.0
O284 O 0.54722 0.54371 0.13579 0.0
O285 O 0.51073 0.47401 0.13307 0.0
O286 O 0.51529 0.47437 0.07963 0.0
O287 O 0.54986 0.54437 0.08239 0.0
H288 H 0.58477 0.50066 0.10868 0.0
H289 H 0.64805 0.49357 0.10883 0.0
H290 H 0.65572 0.50558 0.17946 0.0
H291 H 0.59134 0.51268 0.17919 0.0
H292 H 0.375 0.55221 0.1615 0.0
H293 H 0.43453 0.55006 0.1442 0.0
H294 H 0.28873 0.46458 0.1094 0.0
H295 H 0.34828 0.4635 0.09203 0.0
H296 H 0.50942 0.55088 0.00647 0.0
H297 H 0.56975 0.4738 0.0024 0.0
H298 H 0.5692 0.47132 0.04201 0.0
H299 H 0.50781 0.54706 0.0463 0.0
H300 H 0.18892 0.52806 0.19063 0.0
H301 H 0.14253 0.52862 0.12545 0.0
H302 H 0.1992 0.51917 0.10997 0.0
H303 H 0.26365 0.51388 0.11492 0.0
H304 H 0.30938 0.51163 0.17997 0.0
H305 H 0.25155 0.51916 0.19549 0.0
C306 C 0.19099 0.52582 0.17303 0.0
C307 C 0.16144 0.52911 0.15925 0.0
C308 C 0.22379 0.52046 0.1642 0.0
C309 C 0.16462 0.52599 0.13647 0.0
C310 C 0.19718 0.52078 0.12759 0.0
C311 C 0.2607 0.51439 0.13249 0.0
C312 C 0.29104 0.51226 0.14623 0.0
C313 C 0.22715 0.51835 0.1413 0.0
C314 C 0.28697 0.51382 0.16899 0.0
C315 C 0.25371 0.51786 0.17788 0.0
H316 H 0.71521 0.16037 0.48154 0.0
H317 H 0.69958 0.21365 0.54319 0.0
H318 H 0.76638 0.27926 0.53955 0.0
H319 H 0.82737 0.32322 0.51804 0.0
H320 H 0.84407 0.2701 0.45665 0.0
H321 H 0.77868 0.20317 0.46094 0.0
C322 C 0.72663 0.18615 0.49428 0.0
C323 C 0.70221 0.18196 0.51257 0.0
C324 C 0.76513 0.22415 0.49205 0.0
C325 C 0.71756 0.21584 0.52891 0.0
C326 C 0.7558 0.25354 0.52683 0.0
C327 C 0.81714 0.29684 0.50574 0.0
C328 C 0.84061 0.30198 0.48698 0.0
C329 C 0.77959 0.25827 0.50836 0.0
C330 C 0.82632 0.26745 0.47108 0.0
C331 C 0.78902 0.22899 0.47358 0.0
H332 H 0.46859 0.66745 0.79767 0.0
H333 H 0.5722 0.7056 0.8455 0.0
H334 H 0.58577 0.77899 0.84723 0.0
H335 H 0.56781 0.83229 0.83485 0.0
H336 H 0.46262 0.79169 0.78768 0.0
H337 H 0.44986 0.71909 0.78612 0.0
C338 C 0.49439 0.69178 0.8084 0.0
C339 C 0.51955 0.68116 0.82132 0.0
C340 C 0.50151 0.73342 0.80952 0.0
C341 C 0.55246 0.71305 0.83532 0.0
C342 C 0.56014 0.75494 0.83635 0.0
C343 C 0.54191 0.80738 0.82442 0.0
C344 C 0.51643 0.81736 0.81126 0.0
C345 C 0.53472 0.76548 0.82357 0.0
C346 C 0.48307 0.78489 0.79771 0.0
C347 C 0.47569 0.74338 0.79683 0.0
H348 H 0.79343 0.44308 0.12653 0.0
H349 H 0.86983 0.55187 0.17202 0.0
H350 H 0.80965 0.56437 0.17591 0.0
H351 H 0.73474 0.54411 0.16612 0.0
H352 H 0.65969 0.43457 0.12084 0.0
H353 H 0.71975 0.42246 0.11732 0.0
C354 C 0.79718 0.46976 0.13721 0.0
C355 C 0.83627 0.49666 0.14883 0.0
C356 C 0.76246 0.47643 0.13953 0.0
C357 C 0.84019 0.53077 0.16277 0.0
C358 C 0.80572 0.53784 0.16506 0.0
C359 C 0.73158 0.51743 0.15567 0.0
C360 C 0.6929 0.49043 0.14365 0.0
C361 C 0.76657 0.51076 0.15357 0.0
C362 C 0.68927 0.4561 0.13005 0.0
C363 C 0.72359 0.44912 0.12803 0.0
H364 H 0.34548 0.87109 0.49696 0.0
H365 H 0.4192 0.80765 0.50061 0.0
H366 H 0.35461 0.73872 0.49475 0.0
H367 H 0.27802 0.69636 0.48575 0.0
H368 H 0.20391 0.75897 0.4807 0.0
H369 H 0.2674 0.82786 0.4906 0.0
C370 C 0.34737 0.84219 0.49672 0.0
C371 C 0.38733 0.84478 0.49897 0.0
C372 C 0.30993 0.80232 0.49313 0.0
C373 C 0.38903 0.80685 0.49875 0.0
C374 C 0.35204 0.76726 0.49538 0.0
C375 C 0.27569 0.72505 0.48688 0.0
C376 C 0.23628 0.72243 0.48223 0.0
C377 C 0.31247 0.76464 0.49207 0.0
C378 C 0.23372 0.75989 0.48429 0.0
C379 C 0.27015 0.79942 0.48976 0.0
H380 H 0.57223 0.36221 0.86195 0.0
H381 H 0.51017 0.37078 0.80328 0.0
H382 H 0.49873 0.30196 0.78866 0.0
H383 H 0.51187 0.24257 0.7909 0.0
H384 H 0.57487 0.23327 0.84875 0.0
H385 H 0.57952 0.29859 0.86556 0.0
C386 C 0.55576 0.34878 0.84608 0.0
C387 C 0.54264 0.372 0.83363 0.0
C388 C 0.54952 0.3091 0.8376 0.0
C389 C 0.52099 0.3539 0.81318 0.0
C390 C 0.51443 0.3145 0.80475 0.0
C391 C 0.52641 0.25476 0.80725 0.0
C392 C 0.54367 0.2337 0.81845 0.0
C393 C 0.5295 0.2924 0.81656 0.0
C394 C 0.56148 0.2491 0.83981 0.0
C395 C 0.56438 0.28655 0.84934 0.0
H396 H 0.54887 0.8311 0.48662 0.0
H397 H 0.62316 0.89158 0.54704 0.0
H398 H 0.63282 0.83035 0.55127 0.0
H399 H 0.61653 0.7579 0.53898 0.0
H400 H 0.53859 0.69598 0.47969 0.0
H401 H 0.5346 0.75975 0.47372 0.0
C402 C 0.56772 0.83124 0.50057 0.0
C403 C 0.58524 0.86596 0.51651 0.0
C404 C 0.57231 0.79551 0.50317 0.0
C405 C 0.60926 0.86531 0.53455 0.0
C406 C 0.61469 0.83022 0.53702 0.0
C407 C 0.59853 0.75825 0.52478 0.0
C408 C 0.57778 0.72197 0.50987 0.0
C409 C 0.59564 0.79479 0.52166 0.0
C410 C 0.55532 0.72346 0.49133 0.0
C411 C 0.55275 0.75988 0.48797 0.0
H412 H 0.70399 0.505 0.79777 0.0
H413 H 0.69882 0.56044 0.86111 0.0
H414 H 0.77034 0.57454 0.87123 0.0
H415 H 0.83274 0.56748 0.86288 0.0
H416 H 0.83673 0.50998 0.79994 0.0
H417 H 0.76778 0.50124 0.78878 0.0
C418 C 0.71862 0.52053 0.81372 0.0
C419 C 0.69589 0.53138 0.82868 0.0
C420 C 0.75964 0.52823 0.81953 0.0
C421 C 0.71551 0.5517 0.84925 0.0
C422 C 0.7564 0.55967 0.85509 0.0
C423 C 0.81851 0.55297 0.84673 0.0
C424 C 0.8399 0.53922 0.83234 0.0
C425 C 0.77846 0.5474 0.84051 0.0
C426 C 0.8213 0.52127 0.8113 0.0
C427 C 0.78165 0.51594 0.80494 0.0
H428 H 0.21151 0.69501 0.14464 0.0
H429 H 0.12939 0.69849 0.194 0.0
H430 H 0.18546 0.76882 0.20835 0.0
H431 H 0.25959 0.82594 0.20919 0.0
H432 H 0.34362 0.82122 0.16148 0.0
H433 H 0.2847 0.7554 0.14377 0.0
C434 C 0.20569 0.71142 0.15834 0.0
C435 C 0.1665 0.69129 0.16841 0.0
C436 C 0.23844 0.75159 0.16683 0.0
C437 C 0.15943 0.71303 0.18611 0.0
C438 C 0.19147 0.75327 0.19434 0.0
C439 C 0.26499 0.81057 0.19486 0.0
C440 C 0.30605 0.82802 0.18689 0.0
C441 C 0.23141 0.77226 0.18521 0.0
C442 C 0.31231 0.80844 0.16795 0.0
C443 C 0.27871 0.77062 0.15794 0.0
H444 H 0.61212 0.22406 0.47907 0.0
H445 H 0.50001 0.13418 0.51033 0.0
H446 H 0.48692 0.19148 0.52307 0.0
H447 H 0.51058 0.2677 0.52794 0.0
H448 H 0.62532 0.35811 0.49874 0.0
H449 H 0.63349 0.29991 0.48218 0.0
C450 C 0.58439 0.21683 0.48835 0.0
C451 C 0.55717 0.17484 0.4938 0.0
C452 C 0.57762 0.2501 0.49608 0.0
C453 C 0.52156 0.16619 0.50597 0.0
C454 C 0.51411 0.19898 0.51331 0.0
C455 C 0.53739 0.27472 0.51794 0.0
C456 C 0.56749 0.31734 0.51479 0.0
C457 C 0.54252 0.24117 0.50893 0.0
C458 C 0.60145 0.3257 0.50134 0.0
C459 C 0.60636 0.29241 0.49199 0.0
H460 H 0.34944 0.51764 0.82924 0.0
H461 H 0.41283 0.60905 0.88471 0.0
H462 H 0.34677 0.6068 0.89336 0.0
H463 H 0.27038 0.57601 0.88697 0.0
H464 H 0.20454 0.48433 0.83231 0.0
H465 H 0.27208 0.48989 0.82131 0.0
C466 C 0.34871 0.53709 0.84316 0.0
C467 C 0.386 0.56297 0.85648 0.0
C468 C 0.31022 0.53565 0.84819 0.0
C469 C 0.38463 0.58837 0.87432 0.0
C470 C 0.34684 0.58727 0.8793 0.0
C471 C 0.271 0.55756 0.87253 0.0
C472 C 0.23291 0.52958 0.86055 0.0
C473 C 0.30943 0.5606 0.8666 0.0
C474 C 0.23377 0.50612 0.84172 0.0
C475 C 0.27224 0.50912 0.83556 0.0
H476 H 0.80078 0.38294 0.19759 0.0
H477 H 0.85953 0.33322 0.15321 0.0
H478 H 0.79671 0.26203 0.15297 0.0
H479 H 0.72528 0.21372 0.16609 0.0
H480 H 0.66759 0.26536 0.21003 0.0
H481 H 0.72981 0.33613 0.2096 0.0
C482 C 0.80005 0.35657 0.18791 0.0
C483 C 0.8349 0.3633 0.17558 0.0
C484 C 0.7639 0.31609 0.1877 0.0
C485 C 0.83312 0.32881 0.16293 0.0
C486 C 0.7972 0.28815 0.16275 0.0
C487 C 0.72627 0.24063 0.17534 0.0
C488 C 0.6921 0.23433 0.18821 0.0
C489 C 0.76237 0.2814 0.1751 0.0
C490 C 0.69379 0.26935 0.20025 0.0
C491 C 0.72929 0.30982 0.19999 0.0
H492 H 0.99467 0.4691 0.09686 0.0
H493 H 0.03494 0.6017 0.11213 0.0
H494 H 0.03954 0.61343 0.07322 0.0
H495 H 0.02711 0.58477 0.03472 0.0
H496 H 0.98852 0.45263 0.01951 0.0
H497 H 0.98887 0.44207 0.0585 0.0
C498 C 1.00477 0.50062 0.09165 0.0
C499 C 0.0138 0.53429 0.10732 0.0
C500 C 0.00756 0.5072 0.06927 0.0
C501 C 0.02761 0.57517 0.1004 0.0
C502 C 0.03009 0.58188 0.07814 0.0
C503 C 0.01897 0.55375 0.03999 0.0
C504 C 0.00735 0.51942 0.02431 0.0
C505 C 0.0193 0.54794 0.06242 0.0
C506 C 0.99764 0.47955 0.03129 0.0
C507 C 0.99761 0.47344 0.05357 0.0
H508 H 0.5636 0.06831 0.44318 0.0
H509 H 0.52023 0.93514 0.42687 0.0
H510 H 0.5191 0.94563 0.38811 0.0
H511 H 0.53158 0.99245 0.3587 0.0
H512 H 0.57358 0.12529 0.37449 0.0
H513 H 0.57443 0.11508 0.41351 0.0
C514 C 0.55392 0.04159 0.43115 0.0
C515 C 0.54212 1.00103 0.43802 0.0
C516 C 0.55317 0.04774 0.40875 0.0
C517 C 0.52949 0.96675 0.42215 0.0
C518 C 0.52882 0.97266 0.39991 0.0
C519 C 0.54036 0.01908 0.37066 0.0
C520 C 0.55249 0.05955 0.36364 0.0
C521 C 0.54062 0.01298 0.39303 0.0
C522 C 0.56456 0.09387 0.37942 0.0
C523 C 0.56489 0.08803 0.40174 0.0
H524 H 0.5809 0.51912 0.76749 0.0
H525 H 0.47052 0.53515 0.76827 0.0
H526 H 0.47274 0.54156 0.72896 0.0
H527 H 0.50784 0.54623 0.69463 0.0
H528 H 0.61835 0.53095 0.69335 0.0
H529 H 0.61422 0.52049 0.73255 0.0
C530 C 0.55709 0.52361 0.75903 0.0
C531 C 0.52579 0.52695 0.77091 0.0
C532 C 0.55874 0.52772 0.73636 0.0
C533 C 0.49523 0.53285 0.75964 0.0
C534 C 0.49644 0.53653 0.73712 0.0
C535 C 0.531 0.54062 0.70297 0.0
C536 C 0.56352 0.53968 0.69124 0.0
C537 C 0.52842 0.53472 0.7254 0.0
C538 C 0.59294 0.53166 0.70209 0.0
C539 C 0.59066 0.52584 0.72448 0.0
H540 H 0.57858 0.06826 0.57114 0.0
H541 H 0.51526 0.93317 0.55285 0.0
H542 H 0.50686 0.91856 0.59139 0.0
H543 H 0.51749 0.94419 0.63028 0.0
H544 H 0.58113 0.07935 0.64829 0.0
H545 H 0.58847 0.09374 0.60979 0.0
C546 C 0.5629 0.03556 0.57552 0.0
C547 C 0.54798 1.00189 0.55908 0.0
C548 C 0.5579 0.02737 0.59767 0.0
C549 C 0.52753 0.95975 0.56514 0.0
C550 C 0.52256 0.95134 0.58719 0.0
C551 C 0.53325 0.97681 0.62579 0.0
C552 C 0.54877 0.01062 0.6422 0.0
C553 C 0.53774 0.98492 0.60359 0.0
C554 C 0.56841 0.05268 0.63604 0.0
C555 C 0.57291 0.06098 0.61401 0.0
H556 H 0.5818 0.52661 0.90148 0.0
H557 H 0.45767 0.51514 0.89588 0.0
H558 H 0.4515 0.51085 0.93545 0.0
H559 H 0.48128 0.50959 0.97159 0.0
H560 H 0.60765 0.52612 0.97711 0.0
H561 H 0.61298 0.52915 0.93766 0.0
C562 C 0.55335 0.52299 0.90894 0.0
C563 C 0.52012 0.52084 0.89584 0.0
C564 C 0.55043 0.52151 0.93168 0.0
C565 C 0.4837 0.51688 0.9057 0.0
C566 C 0.48014 0.51441 0.92829 0.0
C567 C 0.51015 0.51431 0.9642 0.0
C568 C 0.54373 0.51698 0.97731 0.0
C569 C 0.51335 0.51674 0.94146 0.0
C570 C 0.58085 0.52289 0.96739 0.0
C571 C 0.58408 0.52489 0.94482 0.0
H572 H 0.06647 0.53633 0.23712 0.0
H573 H 0.93094 0.48172 0.22469 0.0
H574 H 0.91941 0.47065 0.26325 0.0
H575 H 0.94719 0.47588 0.30049 0.0
H576 H 0.08208 0.52768 0.31339 0.0
H577 H 0.09444 0.54114 0.27485 0.0
C578 C 0.03446 0.52208 0.24287 0.0
C579 C 0.99965 0.50967 0.22792 0.0
C580 C 0.02786 0.51544 0.26521 0.0
C581 C 0.95834 0.49117 0.2357 0.0
C582 C 0.95165 0.48494 0.25782 0.0
C583 C 0.97929 0.48972 0.29488 0.0
C584 C 0.01357 0.50055 0.30986 0.0
C585 C 0.9861 0.49672 0.27268 0.0
C586 C 0.05507 0.5194 0.3023 0.0
C587 C 0.06217 0.52686 0.28021 0.0
loop_
_geom_bond_atom_site_label_1
_geom_bond_atom_site_label_2
_geom_bond_distance
_geom_bond_site_symmetry_2
_ccdc_geom_bond_type
Zn0 O6 1.969 . S
Zn0 O7 1.965 . S
Zn0 O11 2.024 . S
Zn0 O16 1.969 . S
Zn1 O8 1.969 . S
Zn1 O14 1.969 . S
Zn1 O15 1.965 . S
Zn1 O17 2.024 . S
C2 O3 1.229 . S
C2 O11 1.058 . S
O3 C2 1.229 . S
C4 O5 1.229 . S
C4 O17 1.058 . S
O5 C4 1.229 . S
O6 Zn0 1.969 . S
O6 C9 1.267 . S
O7 Zn0 1.965 . S
O7 C18 1.260 1_455 S
O8 Zn1 1.969 . S
O8 C18 1.258 . S
C9 O6 1.267 . S
C9 O10 1.228 . S
O10 C9 1.228 . S
O11 Zn0 2.024 . S
O11 C2 1.058 . S
C12 O13 1.228 . S
C12 O14 1.267 . S
O13 C12 1.228 . S
O14 Zn1 1.969 . S
O14 C12 1.267 . S
O15 Zn1 1.965 . S
O15 C19 1.260 1_655 S
O16 Zn0 1.969 . S
O16 C19 1.258 . S
O17 Zn1 2.024 . S
O17 C4 1.058 . S
C18 O7 1.260 1_655 S
C18 O8 1.258 . S
C19 O15 1.260 1_455 S
C19 O16 1.258 . S
Zn20 O26 1.969 . S
Zn20 O27 1.965 . S
Zn20 O31 2.024 . S
Zn20 O36 1.969 . S
Zn21 O28 1.969 . S
Zn21 O34 1.969 . S
Zn21 O35 1.965 . S
Zn21 O37 2.024 . S
C22 O23 1.229 . S
C22 O31 1.058 . S
O23 C22 1.229 . S
C24 O25 1.229 . S
C24 O37 1.058 . S
O25 C24 1.229 . S
O26 Zn20 1.969 . S
O26 C29 1.267 . S
O27 Zn20 1.965 . S
O27 C38 1.260 . S
O28 Zn21 1.969 . S
O28 C38 1.258 1_565 S
C29 O26 1.267 . S
C29 O30 1.228 . S
O30 C29 1.228 . S
O31 Zn20 2.024 . S
O31 C22 1.058 . S
C32 O33 1.228 . S
C32 O34 1.267 . S
O33 C32 1.228 . S
O34 Zn21 1.969 . S
O34 C32 1.267 . S
O35 Zn21 1.965 . S
O35 C39 1.260 1_565 S
O36 Zn20 1.969 . S
O36 C39 1.258 . S
O37 Zn21 2.024 . S
O37 C24 1.058 . S
C38 O27 1.260 . S
C38 O28 1.258 1_545 S
C39 O35 1.260 1_545 S
C39 O36 1.258 . S
Zn40 O46 1.969 . S
Zn40 O47 1.965 . S
Zn40 O51 2.024 . S
Zn40 O56 1.969 . S
Zn41 O48 1.969 . S
Zn41 O54 1.969 . S
Zn41 O55 1.965 . S
Zn41 O57 2.024 . S
C42 O43 1.229 . S
C42 O51 1.058 . S
O43 C42 1.229 . S
C44 O45 1.229 . S
C44 O57 1.058 . S
O45 C44 1.229 . S
O46 Zn40 1.969 . S
O46 C49 1.267 . S
O47 Zn40 1.965 . S
O47 C58 1.260 . S
O48 Zn41 1.969 . S
O48 C58 1.258 . S
C49 O46 1.267 . S
C49 O50 1.228 . S
O50 C49 1.228 . S
O51 Zn40 2.024 . S
O51 C42 1.058 . S
C52 O53 1.228 . S
C52 O54 1.267 . S
O53 C52 1.228 . S
O54 Zn41 1.969 . S
O54 C52 1.267 . S
O55 Zn41 1.965 . S
O55 C59 1.260 . S
O56 Zn40 1.969 . S
O56 C59 1.258 . S
O57 Zn41 2.024 . S
O57 C44 1.058 . S
C58 O47 1.260 . S
C58 O48 1.258 . S
C59 O55 1.260 . S
C59 O56 1.258 . S
C60 C61 1.264 . S
C60 C65 1.479 . S
C60 C70 1.465 . S
C61 C60 1.264 . S
C61 C63 1.339 . S
C61 H88 0.931 . S
C62 C63 1.395 . S
C62 C64 1.320 . S
C63 C61 1.339 . S
C63 C62 1.395 . S
C63 H89 0.929 . S
C64 C62 1.320 . S
C64 C65 1.405 . S
C64 H90 0.930 . S
C65 C60 1.479 . S
C65 C64 1.405 . S
C65 H91 0.931 . S
U66 O67 2.454 1_545 S
U66 O68 2.458 1_545 S
U66 C69 2.984 1_545 S
U66 C70 2.847 . S
U66 C83 2.882 . S
U66 O84 2.441 . S
U66 O85 2.420 . S
U66 O86 2.455 . S
U66 O87 2.449 . S
O67 U66 2.454 1_565 S
O67 C69 1.353 . S
O68 U66 2.458 1_565 S
O68 C69 1.286 . S
C69 U66 2.984 1_565 S
C69 O67 1.353 . S
C69 O68 1.286 . S
C69 C71 1.363 . S
C70 C60 1.465 . S
C70 U66 2.847 . S
C70 O84 1.249 . S
C70 O85 1.202 . S
C71 C69 1.363 . S
C71 C73 1.408 . S
C71 C76 1.342 . S
C72 C73 1.310 . S
C72 C75 1.461 . S
C72 H92 0.932 . S
C73 C71 1.408 . S
C73 C72 1.310 . S
C73 H93 0.930 . S
C74 C75 1.474 . S
C74 C76 1.285 . S
C74 H94 0.929 . S
C75 C72 1.461 . S
C75 C74 1.474 . S
C76 C71 1.342 . S
C76 C74 1.285 . S
C76 H95 0.930 . S
C77 C80 1.424 . S
C77 C82 1.245 . S
C77 C83 1.428 . S
C78 C81 1.260 . S
C78 C82 1.477 . S
C78 H96 0.932 1_545 S
C79 C80 1.384 . S
C79 C81 1.479 . S
C79 H97 0.929 . S
C80 C77 1.424 . S
C80 C79 1.384 . S
C80 H98 0.928 . S
C81 C78 1.260 . S
C81 C79 1.479 . S
C82 C77 1.245 . S
C82 C78 1.477 . S
C82 H99 0.932 1_545 S
C83 U66 2.882 . S
C83 C77 1.428 . S
C83 O86 1.301 . S
C83 O87 1.282 . S
O84 U66 2.441 . S
O84 C70 1.249 . S
O85 U66 2.420 . S
O85 C70 1.202 . S
O86 U66 2.455 . S
O86 C83 1.301 . S
O87 U66 2.449 . S
O87 C83 1.282 . S
H88 C61 0.931 . S
H89 C63 0.929 . S
H90 C64 0.930 . S
H91 C65 0.931 . S
H92 C72 0.932 . S
H93 C73 0.930 . S
H94 C74 0.929 . S
H95 C76 0.930 . S
H96 C78 0.932 1_565 S
H97 C79 0.929 . S
H98 C80 0.928 . S
H99 C82 0.932 1_565 S
C100 C101 1.264 . S
C100 C105 1.479 . S
C100 C110 1.465 . S
C101 C100 1.264 . S
C101 C103 1.339 . S
C101 H128 0.931 . S
C102 C103 1.395 . S
C102 C104 1.320 . S
C103 C101 1.339 . S
C103 C102 1.395 . S
C103 H129 0.929 . S
C104 C102 1.320 . S
C104 C105 1.405 . S
C104 H130 0.930 . S
C105 C100 1.479 . S
C105 C104 1.405 . S
C105 H131 0.931 . S
U106 O107 2.454 . S
U106 O108 2.458 . S
U106 C109 2.984 . S
U106 C110 2.847 . S
U106 C123 2.882 . S
U106 O124 2.441 . S
U106 O125 2.420 . S
U106 O126 2.455 . S
U106 O127 2.449 . S
O107 U106 2.454 . S
O107 C109 1.353 . S
O108 U106 2.458 . S
O108 C109 1.286 . S
C109 U106 2.984 . S
C109 O107 1.353 . S
C109 O108 1.286 . S
C109 C111 1.363 . S
C110 C100 1.465 . S
C110 U106 2.847 . S
C110 O124 1.249 . S
C110 O125 1.202 . S
C111 C109 1.363 . S
C111 C113 1.408 . S
C111 C116 1.342 . S
C112 C113 1.310 . S
C112 C115 1.461 . S
C112 H132 0.932 . S
C113 C111 1.408 . S
C113 C112 1.310 . S
C113 H133 0.930 . S
C114 C115 1.474 . S
C114 C116 1.285 . S
C114 H134 0.929 . S
C115 C112 1.461 . S
C115 C114 1.474 . S
C116 C111 1.342 . S
C116 C114 1.285 . S
C116 H135 0.930 . S
C117 C120 1.424 . S
C117 C122 1.245 . S
C117 C123 1.428 . S
C118 C121 1.260 . S
C118 C122 1.477 . S
C118 H136 0.932 . S
C119 C120 1.384 . S
C119 C121 1.479 . S
C119 H137 0.929 . S
C120 C117 1.424 . S
C120 C119 1.384 . S
C120 H138 0.928 . S
C121 C118 1.260 . S
C121 C119 1.479 . S
C122 C117 1.245 . S
C122 C118 1.477 . S
C122 H139 0.932 . S
C123 U106 2.882 . S
C123 C117 1.428 . S
C123 O126 1.301 . S
C123 O127 1.282 . S
O124 U106 2.441 . S
O124 C110 1.249 . S
O125 U106 2.420 . S
O125 C110 1.202 . S
O126 U106 2.455 . S
O126 C123 1.301 . S
O127 U106 2.449 . S
O127 C123 1.282 . S
H128 C101 0.931 . S
H129 C103 0.929 . S
H130 C104 0.930 . S
H131 C105 0.931 . S
H132 C112 0.932 . S
H133 C113 0.930 . S
H134 C114 0.929 . S
H135 C116 0.930 . S
H136 C118 0.932 . S
H137 C119 0.929 . S
H138 C120 0.928 . S
H139 C122 0.932 . S
C140 C141 1.264 . S
C140 C145 1.479 . S
C140 C150 1.465 . S
C141 C140 1.264 . S
C141 C143 1.339 . S
C141 H168 0.931 . S
C142 C143 1.395 . S
C142 C144 1.320 . S
C143 C141 1.339 . S
C143 C142 1.395 . S
C143 H169 0.929 . S
C144 C142 1.320 . S
C144 C145 1.405 . S
C144 H170 0.930 . S
C145 C140 1.479 . S
C145 C144 1.405 . S
C145 H171 0.931 . S
U146 O147 2.454 . S
U146 O148 2.458 . S
U146 C149 2.984 . S
U146 C150 2.847 1_455 S
U146 C163 2.882 . S
U146 O164 2.441 1_455 S
U146 O165 2.420 1_455 S
U146 O166 2.455 . S
U146 O167 2.449 1_455 S
O147 U146 2.454 . S
O147 C149 1.353 . S
O148 U146 2.458 . S
O148 C149 1.286 . S
C149 U146 2.984 . S
C149 O147 1.353 . S
C149 O148 1.286 . S
C149 C151 1.363 . S
C150 C140 1.465 . S
C150 U146 2.847 1_655 S
C150 O164 1.249 . S
C150 O165 1.202 . S
C151 C149 1.363 . S
C151 C153 1.408 . S
C151 C156 1.342 . S
C152 C153 1.310 . S
C152 C155 1.461 . S
C152 H172 0.932 . S
C153 C151 1.408 . S
C153 C152 1.310 . S
C153 H173 0.930 . S
C154 C155 1.474 . S
C154 C156 1.285 . S
C154 H174 0.929 . S
C155 C152 1.461 . S
C155 C154 1.474 . S
C156 C151 1.342 . S
C156 C154 1.285 . S
C156 H175 0.930 . S
C157 C160 1.424 1_455 S
C157 C162 1.245 . S
C157 C163 1.428 . S
C158 C161 1.260 1_556 S
C158 C162 1.477 . S
C158 H176 0.932 1_556 S
C159 C160 1.384 . S
C159 C161 1.479 1_656 S
C159 H177 0.949 . S
C160 C157 1.424 1_655 S
C160 C159 1.384 . S
C160 H178 0.928 . S
C161 C158 1.260 1_554 S
C161 C159 1.479 1_454 S
C162 C157 1.245 . S
C162 C158 1.477 . S
C162 H179 0.932 . S
C163 U146 2.882 . S
C163 C157 1.428 . S
C163 O166 1.301 . S
C163 O167 1.282 1_455 S
O164 U146 2.441 1_655 S
O164 C150 1.249 . S
O165 U146 2.420 1_655 S
O165 C150 1.202 . S
O166 U146 2.455 . S
O166 C163 1.301 . S
O167 U146 2.449 1_655 S
O167 C163 1.282 1_655 S
H168 C141 0.931 . S
H169 C143 0.929 . S
H170 C144 0.930 . S
H171 C145 0.931 . S
H172 C152 0.932 . S
H173 C153 0.930 . S
H174 C154 0.929 . S
H175 C156 0.930 . S
H176 C158 0.932 1_554 S
H177 C159 0.949 . S
H178 C160 0.928 . S
H179 C162 0.932 . S
C180 C181 1.264 . S
C180 C185 1.479 . S
C180 C190 1.465 . S
C181 C180 1.264 . S
C181 C183 1.339 . S
C181 H208 0.931 . S
C182 C183 1.395 . S
C182 C184 1.320 . S
C183 C181 1.339 . S
C183 C182 1.395 . S
C183 H209 0.929 . S
C184 C182 1.320 . S
C184 C185 1.405 . S
C184 H210 0.930 . S
C185 C180 1.479 . S
C185 C184 1.405 . S
C185 H211 0.931 . S
U186 O187 2.454 . S
U186 O188 2.458 . S
U186 C189 2.984 . S
U186 C190 2.847 1_455 S
U186 C203 2.882 . S
U186 O204 2.441 1_455 S
U186 O205 2.420 1_455 S
U186 O206 2.455 . S
U186 O207 2.449 1_455 S
O187 U186 2.454 . S
O187 C189 1.353 . S
O188 U186 2.458 . S
O188 C189 1.286 . S
C189 U186 2.984 . S
C189 O187 1.353 . S
C189 O188 1.286 . S
C189 C191 1.363 . S
C190 C180 1.465 . S
C190 U186 2.847 1_655 S
C190 O204 1.249 . S
C190 O205 1.202 . S
C191 C189 1.363 . S
C191 C193 1.408 . S
C191 C196 1.342 . S
C192 C193 1.310 . S
C192 C195 1.461 . S
C192 H212 0.932 . S
C193 C191 1.408 . S
C193 C192 1.310 . S
C193 H213 0.930 . S
C194 C195 1.474 . S
C194 C196 1.285 . S
C194 H214 0.929 . S
C195 C192 1.461 . S
C195 C194 1.474 . S
C196 C191 1.342 . S
C196 C194 1.285 . S
C196 H215 0.930 . S
C197 C200 1.424 1_455 S
C197 C202 1.245 . S
C197 C203 1.428 . S
C198 C201 1.267 . S
C198 C202 1.477 . S
C198 H216 0.932 . S
C199 C200 1.384 . S
C199 C201 1.468 1_655 S
C199 H217 0.929 . S
C200 C197 1.424 1_655 S
C200 C199 1.384 . S
C200 H218 0.928 . S
C201 C198 1.267 . S
C201 C199 1.468 1_455 S
C202 C197 1.245 . S
C202 C198 1.477 . S
C202 H219 0.932 . S
C203 U186 2.882 . S
C203 C197 1.428 . S
C203 O206 1.301 . S
C203 O207 1.282 1_455 S
O204 U186 2.441 1_655 S
O204 C190 1.249 . S
O205 U186 2.420 1_655 S
O205 C190 1.202 . S
O206 U186 2.455 . S
O206 C203 1.301 . S
O207 U186 2.449 1_655 S
O207 C203 1.282 1_655 S
H208 C181 0.931 . S
H209 C183 0.929 . S
H210 C184 0.930 . S
H211 C185 0.931 . S
H212 C192 0.932 . S
H213 C193 0.930 . S
H214 C194 0.929 . S
H215 C196 0.930 . S
H216 C198 0.932 . S
H217 C199 0.929 . S
H218 C200 0.928 . S
H219 C202 0.932 . S
C220 C221 1.264 . S
C220 C225 1.479 . S
C220 C230 1.465 . S
C221 C220 1.264 . S
C221 C223 1.339 . S
C221 H248 0.931 . S
C222 C223 1.395 . S
C222 C224 1.320 . S
C223 C221 1.339 . S
C223 C222 1.395 . S
C223 H249 0.929 . S
C224 C222 1.320 . S
C224 C225 1.405 . S
C224 H250 0.930 . S
C225 C220 1.479 . S
C225 C224 1.405 . S
C225 H251 0.931 . S
U226 O227 2.454 . S
U226 O228 2.458 . S
U226 C229 2.984 . S
U226 C230 2.847 1_545 S
U226 C243 2.882 . S
U226 O244 2.441 1_545 S
U226 O245 2.420 1_545 S
U226 O246 2.455 . S
U226 O247 2.449 1_545 S
O227 U226 2.454 . S
O227 C229 1.353 . S
O228 U226 2.458 . S
O228 C229 1.286 . S
C229 U226 2.984 . S
C229 O227 1.353 . S
C229 O228 1.286 . S
C229 C231 1.363 . S
C230 C220 1.465 . S
C230 U226 2.847 1_565 S
C230 O244 1.249 . S
C230 O245 1.202 . S
C231 C229 1.363 . S
C231 C233 1.408 . S
C231 C236 1.342 . S
C232 C233 1.310 . S
C232 C235 1.461 . S
C232 H252 0.932 . S
C233 C231 1.408 . S
C233 C232 1.310 . S
C233 H253 0.930 . S
C234 C235 1.474 . S
C234 C236 1.285 . S
C234 H254 0.929 . S
C235 C232 1.461 . S
C235 C234 1.474 . S
C236 C231 1.342 . S
C236 C234 1.285 . S
C236 H255 0.930 . S
C237 C240 1.424 1_545 S
C237 C242 1.245 . S
C237 C243 1.428 . S
C238 C241 1.260 . S
C238 C242 1.477 . S
C238 H256 0.932 . S
C239 C240 1.384 . S
C239 C241 1.479 1_565 S
C239 H257 0.929 . S
C240 C237 1.424 1_565 S
C240 C239 1.384 . S
C240 H258 0.928 . S
C241 C238 1.260 . S
C241 C239 1.479 1_545 S
C242 C237 1.245 . S
C242 C238 1.477 . S
C242 H259 0.932 . S
C243 U226 2.882 . S
C243 C237 1.428 . S
C243 O246 1.301 . S
C243 O247 1.282 1_545 S
O244 U226 2.441 1_565 S
O244 C230 1.249 . S
O245 U226 2.420 1_565 S
O245 C230 1.202 . S
O246 U226 2.455 . S
O246 C243 1.301 . S
O247 U226 2.449 1_565 S
O247 C243 1.282 1_565 S
H248 C221 0.931 . S
H249 C223 0.929 . S
H250 C224 0.930 . S
H251 C225 0.931 . S
H252 C232 0.932 . S
H253 C233 0.930 . S
H254 C234 0.929 . S
H255 C236 0.930 . S
H256 C238 0.932 . S
H257 C239 0.929 . S
H258 C240 0.928 . S
H259 C242 0.932 . S
C260 C261 1.264 . S
C260 C265 1.479 . S
C260 C270 1.465 . S
C261 C260 1.264 . S
C261 C263 1.339 . S
C261 H288 0.931 . S
C262 C263 1.395 . S
C262 C264 1.320 . S
C263 C261 1.339 . S
C263 C262 1.395 . S
C263 H289 0.929 . S
C264 C262 1.320 . S
C264 C265 1.405 . S
C264 H290 0.930 . S
C265 C260 1.479 . S
C265 C264 1.405 . S
C265 H291 0.931 . S
U266 O267 2.454 . S
U266 O268 2.458 . S
U266 C269 2.984 . S
U266 C270 2.847 . S
U266 C283 2.882 . S
U266 O284 2.441 . S
U266 O285 2.420 . S
U266 O286 2.455 . S
U266 O287 2.449 . S
O267 U266 2.454 . S
O267 C269 1.353 . S
O268 U266 2.458 . S
O268 C269 1.286 . S
C269 U266 2.984 . S
C269 O267 1.353 . S
C269 O268 1.286 . S
C269 C271 1.363 . S
C270 C260 1.465 . S
C270 U266 2.847 . S
C270 O284 1.249 . S
C270 O285 1.202 . S
C271 C269 1.363 . S
C271 C273 1.408 . S
C271 C276 1.342 . S
C272 C273 1.310 . S
C272 C275 1.461 . S
C272 H292 0.932 . S
C273 C271 1.408 . S
C273 C272 1.310 . S
C273 H293 0.930 . S
C274 C275 1.474 . S
C274 C276 1.285 . S
C274 H294 0.929 . S
C275 C272 1.461 . S
C275 C274 1.474 . S
C276 C271 1.342 . S
C276 C274 1.285 . S
C276 H295 0.930 . S
C277 C280 1.424 . S
C277 C282 1.245 . S
C277 C283 1.428 . S
C278 C281 1.260 1_554 S
C278 C282 1.477 . S
C278 H296 0.932 1_554 S
C279 C280 1.384 . S
C279 C281 1.479 1_554 S
C279 H297 0.941 . S
C280 C277 1.424 . S
C280 C279 1.384 . S
C280 H298 0.928 . S
C281 C278 1.260 1_556 S
C281 C279 1.479 1_556 S
C282 C277 1.245 . S
C282 C278 1.477 . S
C282 H299 0.932 . S
C283 U266 2.882 . S
C283 C277 1.428 . S
C283 O286 1.301 . S
C283 O287 1.282 . S
O284 U266 2.441 . S
O284 C270 1.249 . S
O285 U266 2.420 . S
O285 C270 1.202 . S
O286 U266 2.455 . S
O286 C283 1.301 . S
O287 U266 2.449 . S
O287 C283 1.282 . S
H288 C261 0.931 . S
H289 C263 0.929 . S
H290 C264 0.930 . S
H291 C265 0.931 . S
H292 C272 0.932 . S
H293 C273 0.930 . S
H294 C274 0.929 . S
H295 C276 0.930 . S
H296 C278 0.932 1_556 S
H297 C279 0.941 . S
H298 C280 0.928 . S
H299 C282 0.932 . S
H300 C306 0.930 . S
H301 C309 0.930 . S
H302 C310 0.930 . S
H303 C311 0.930 . S
H304 C314 0.930 . S
H305 C315 0.930 . S
C306 H300 0.930 . S
C306 C307 1.355 . S
C306 C308 1.415 . S
C307 C306 1.355 . S
C307 C309 1.419 . S
C308 C306 1.415 . S
C308 C313 1.425 . S
C308 C315 1.409 . S
C309 H301 0.930 . S
C309 C307 1.419 . S
C309 C310 1.362 . S
C310 H302 0.930 . S
C310 C309 1.362 . S
C310 C313 1.409 . S
C311 H303 0.930 . S
C311 C312 1.355 . S
C311 C313 1.415 . S
C312 C311 1.355 . S
C312 C314 1.419 . S
C313 C308 1.425 . S
C313 C310 1.409 . S
C313 C311 1.415 . S
C314 H304 0.930 . S
C314 C312 1.419 . S
C314 C315 1.362 . S
C315 H305 0.930 . S
C315 C308 1.409 . S
C315 C314 1.362 . S
H316 C322 0.930 . S
H317 C325 0.930 . S
H318 C326 0.930 . S
H319 C327 0.930 . S
H320 C330 0.930 . S
H321 C331 0.930 . S
C322 H316 0.930 . S
C322 C323 1.355 . S
C322 C324 1.415 . S
C323 C322 1.355 . S
C323 C325 1.419 . S
C324 C322 1.415 . S
C324 C329 1.425 . S
C324 C331 1.409 . S
C325 H317 0.930 . S
C325 C323 1.419 . S
C325 C326 1.362 . S
C326 H318 0.930 . S
C326 C325 1.362 . S
C326 C329 1.409 . S
C327 H319 0.930 . S
C327 C328 1.355 . S
C327 C329 1.415 . S
C328 C327 1.355 . S
C328 C330 1.419 . S
C329 C324 1.425 . S
C329 C326 1.409 . S
C329 C327 1.415 . S
C330 H320 0.930 . S
C330 C328 1.419 . S
C330 C331 1.362 . S
C331 H321 0.930 . S
C331 C324 1.409 . S
C331 C330 1.362 . S
H332 C338 0.930 . S
H333 C341 0.930 . S
H334 C342 0.930 . S
H335 C343 0.930 . S
H336 C346 0.930 . S
H337 C347 0.930 . S
C338 H332 0.930 . S
C338 C339 1.355 . S
C338 C340 1.415 . S
C339 C338 1.355 . S
C339 C341 1.419 . S
C340 C338 1.415 . S
C340 C345 1.425 . S
C340 C347 1.409 . S
C341 H333 0.930 . S
C341 C339 1.419 . S
C341 C342 1.362 . S
C342 H334 0.930 . S
C342 C341 1.362 . S
C342 C345 1.409 . S
C343 H335 0.930 . S
C343 C344 1.355 . S
C343 C345 1.415 . S
C344 C343 1.355 . S
C344 C346 1.419 . S
C345 C340 1.425 . S
C345 C342 1.409 . S
C345 C343 1.415 . S
C346 H336 0.930 . S
C346 C344 1.419 . S
C346 C347 1.362 . S
C347 H337 0.930 . S
C347 C340 1.409 . S
C347 C346 1.362 . S
H348 C354 0.930 . S
H349 C357 0.930 . S
H350 C358 0.930 . S
H351 C359 0.930 . S
H352 C362 0.930 . S
H353 C363 0.930 . S
C354 H348 0.930 . S
C354 C355 1.355 . S
C354 C356 1.415 . S
C355 C354 1.355 . S
C355 C357 1.419 . S
C356 C354 1.415 . S
C356 C361 1.425 . S
C356 C363 1.409 . S
C357 H349 0.930 . S
C357 C355 1.419 . S
C357 C358 1.362 . S
C358 H350 0.930 . S
C358 C357 1.362 . S
C358 C361 1.409 . S
C359 H351 0.930 . S
C359 C360 1.355 . S
C359 C361 1.415 . S
C360 C359 1.355 . S
C360 C362 1.419 . S
C361 C356 1.425 . S
C361 C358 1.409 . S
C361 C359 1.415 . S
C362 H352 0.930 . S
C362 C360 1.419 . S
C362 C363 1.362 . S
C363 H353 0.930 . S
C363 C356 1.409 . S
C363 C362 1.362 . S
H364 C370 0.930 . S
H365 C373 0.930 . S
H366 C374 0.930 . S
H367 C375 0.930 . S
H368 C378 0.930 . S
H369 C379 0.930 . S
C370 H364 0.930 . S
C370 C371 1.355 . S
C370 C372 1.415 . S
C371 C370 1.355 . S
C371 C373 1.419 . S
C372 C370 1.415 . S
C372 C377 1.425 . S
C372 C379 1.409 . S
C373 H365 0.930 . S
C373 C371 1.419 . S
C373 C374 1.362 . S
C374 H366 0.930 . S
C374 C373 1.362 . S
C374 C377 1.409 . S
C375 H367 0.930 . S
C375 C376 1.355 . S
C375 C377 1.415 . S
C376 C375 1.355 . S
C376 C378 1.419 . S
C377 C372 1.425 . S
C377 C374 1.409 . S
C377 C375 1.415 . S
C378 H368 0.930 . S
C378 C376 1.419 . S
C378 C379 1.362 . S
C379 H369 0.930 . S
C379 C372 1.409 . S
C379 C378 1.362 . S
H380 C386 0.930 . S
H381 C389 0.930 . S
H382 C390 0.930 . S
H383 C391 0.930 . S
H384 C394 0.930 . S
H385 C395 0.930 . S
C386 H380 0.930 . S
C386 C387 1.355 . S
C386 C388 1.415 . S
C387 C386 1.355 . S
C387 C389 1.419 . S
C388 C386 1.415 . S
C388 C393 1.425 . S
C388 C395 1.409 . S
C389 H381 0.930 . S
C389 C387 1.419 . S
C389 C390 1.362 . S
C390 H382 0.930 . S
C390 C389 1.362 . S
C390 C393 1.409 . S
C391 H383 0.930 . S
C391 C392 1.355 . S
C391 C393 1.415 . S
C392 C391 1.355 . S
C392 C394 1.419 . S
C393 C388 1.425 . S
C393 C390 1.409 . S
C393 C391 1.415 . S
C394 H384 0.930 . S
C394 C392 1.419 . S
C394 C395 1.362 . S
C395 H385 0.930 . S
C395 C388 1.409 . S
C395 C394 1.362 . S
H396 C402 0.930 . S
H397 C405 0.930 . S
H398 C406 0.930 . S
H399 C407 0.930 . S
H400 C410 0.930 . S
H401 C411 0.930 . S
C402 H396 0.930 . S
C402 C403 1.355 . S
C402 C404 1.415 . S
C403 C402 1.355 . S
C403 C405 1.419 . S
C404 C402 1.415 . S
C404 C409 1.425 . S
C404 C411 1.409 . S
C405 H397 0.930 . S
C405 C403 1.419 . S
C405 C406 1.362 . S
C406 H398 0.930 . S
C406 C405 1.362 . S
C406 C409 1.409 . S
C407 H399 0.930 . S
C407 C408 1.355 . S
C407 C409 1.415 . S
C408 C407 1.355 . S
C408 C410 1.419 . S
C409 C404 1.425 . S
C409 C406 1.409 . S
C409 C407 1.415 . S
C410 H400 0.930 . S
C410 C408 1.419 . S
C410 C411 1.362 . S
C411 H401 0.930 . S
C411 C404 1.409 . S
C411 C410 1.362 . S
H412 C418 0.930 . S
H413 C421 0.930 . S
H414 C422 0.930 . S
H415 C423 0.930 . S
H416 C426 0.930 . S
H417 C427 0.930 . S
C418 H412 0.930 . S
C418 C419 1.355 . S
C418 C420 1.415 . S
C419 C418 1.355 . S
C419 C421 1.419 . S
C420 C418 1.415 . S
C420 C425 1.425 . S
C420 C427 1.409 . S
C421 H413 0.930 . S
C421 C419 1.419 . S
C421 C422 1.362 . S
C422 H414 0.930 . S
C422 C421 1.362 . S
C422 C425 1.409 . S
C423 H415 0.930 . S
C423 C424 1.355 . S
C423 C425 1.415 . S
C424 C423 1.355 . S
C424 C426 1.419 . S
C425 C420 1.425 . S
C425 C422 1.409 . S
C425 C423 1.415 . S
C426 H416 0.930 . S
C426 C424 1.419 . S
C426 C427 1.362 . S
C427 H417 0.930 . S
C427 C420 1.409 . S
C427 C426 1.362 . S
H428 C434 0.930 . S
H429 C437 0.930 . S
H430 C438 0.930 . S
H431 C439 0.930 . S
H432 C442 0.930 . S
H433 C443 0.930 . S
C434 H428 0.930 . S
C434 C435 1.355 . S
C434 C436 1.415 . S
C435 C434 1.355 . S
C435 C437 1.419 . S
C436 C434 1.415 . S
C436 C441 1.425 . S
C436 C443 1.409 . S
C437 H429 0.930 . S
C437 C435 1.419 . S
C437 C438 1.362 . S
C438 H430 0.930 . S
C438 C437 1.362 . S
C438 C441 1.409 . S
C439 H431 0.930 . S
C439 C440 1.355 . S
C439 C441 1.415 . S
C440 C439 1.355 . S
C440 C442 1.419 . S
C441 C436 1.425 . S
C441 C438 1.409 . S
C441 C439 1.415 . S
C442 H432 0.930 . S
C442 C440 1.419 . S
C442 C443 1.362 . S
C443 H433 0.930 . S
C443 C436 1.409 . S
C443 C442 1.362 . S
H444 C450 0.930 . S
H445 C453 0.930 . S
H446 C454 0.930 . S
H447 C455 0.930 . S
H448 C458 0.930 . S
H449 C459 0.930 . S
C450 H444 0.930 . S
C450 C451 1.355 . S
C450 C452 1.415 . S
C451 C450 1.355 . S
C451 C453 1.419 . S
C452 C450 1.415 . S
C452 C457 1.425 . S
C452 C459 1.409 . S
C453 H445 0.930 . S
C453 C451 1.419 . S
C453 C454 1.362 . S
C454 H446 0.930 . S
C454 C453 1.362 . S
C454 C457 1.409 . S
C455 H447 0.930 . S
C455 C456 1.355 . S
C455 C457 1.415 . S
C456 C455 1.355 . S
C456 C458 1.419 . S
C457 C452 1.425 . S
C457 C454 1.409 . S
C457 C455 1.415 . S
C458 H448 0.930 . S
C458 C456 1.419 . S
C458 C459 1.362 . S
C459 H449 0.930 . S
C459 C452 1.409 . S
C459 C458 1.362 . S
H460 C466 0.930 . S
H461 C469 0.930 . S
H462 C470 0.930 . S
H463 C471 0.930 . S
H464 C474 0.930 . S
H465 C475 0.930 . S
C466 H460 0.930 . S
C466 C467 1.355 . S
C466 C468 1.415 . S
C467 C466 1.355 . S
C467 C469 1.419 . S
C468 C466 1.415 . S
C468 C473 1.425 . S
C468 C475 1.409 . S
C469 H461 0.930 . S
C469 C467 1.419 . S
C469 C470 1.362 . S
C470 H462 0.930 . S
C470 C469 1.362 . S
C470 C473 1.409 . S
C471 H463 0.930 . S
C471 C472 1.355 . S
C471 C473 1.415 . S
C472 C471 1.355 . S
C472 C474 1.419 . S
C473 C468 1.425 . S
C473 C470 1.409 . S
C473 C471 1.415 . S
C474 H464 0.930 . S
C474 C472 1.419 . S
C474 C475 1.362 . S
C475 H465 0.930 . S
C475 C468 1.409 . S
C475 C474 1.362 . S
H476 C482 0.930 . S
H477 C485 0.930 . S
H478 C486 0.930 . S
H479 C487 0.930 . S
H480 C490 0.930 . S
H481 C491 0.930 . S
C482 H476 0.930 . S
C482 C483 1.355 . S
C482 C484 1.415 . S
C483 C482 1.355 . S
C483 C485 1.419 . S
C484 C482 1.415 . S
C484 C489 1.425 . S
C484 C491 1.409 . S
C485 H477 0.930 . S
C485 C483 1.419 . S
C485 C486 1.362 . S
C486 H478 0.930 . S
C486 C485 1.362 . S
C486 C489 1.409 . S
C487 H479 0.930 . S
C487 C488 1.355 . S
C487 C489 1.415 . S
C488 C487 1.355 . S
C488 C490 1.419 . S
C489 C484 1.425 . S
C489 C486 1.409 . S
C489 C487 1.415 . S
C490 H480 0.930 . S
C490 C488 1.419 . S
C490 C491 1.362 . S
C491 H481 0.930 . S
C491 C484 1.409 . S
C491 C490 1.362 . S
H492 C498 0.930 . S
H493 C501 0.930 . S
H494 C502 0.930 . S
H495 C503 0.930 . S
H496 C506 0.930 . S
H497 C507 0.930 . S
C498 H492 0.930 . S
C498 C499 1.355 . S
C498 C500 1.415 . S
C499 C498 1.355 . S
C499 C501 1.419 1_455 S
C500 C498 1.415 . S
C500 C505 1.425 . S
C500 C507 1.409 . S
C501 H493 0.930 . S
C501 C499 1.419 1_655 S
C501 C502 1.362 . S
C502 H494 0.930 . S
C502 C501 1.362 . S
C502 C505 1.409 1_655 S
C503 H495 0.930 . S
C503 C504 1.355 . S
C503 C505 1.415 . S
C504 C503 1.355 . S
C504 C506 1.419 . S
C505 C500 1.425 . S
C505 C502 1.409 1_455 S
C505 C503 1.415 . S
C506 H496 0.930 . S
C506 C504 1.419 . S
C506 C507 1.362 . S
C507 H497 0.930 . S
C507 C500 1.409 . S
C507 C506 1.362 . S
H508 C514 0.930 . S
H509 C517 0.930 . S
H510 C518 0.930 . S
H511 C519 0.941 . S
H512 C522 0.930 . S
H513 C523 0.930 . S
C514 H508 0.930 . S
C514 C515 1.355 . S
C514 C516 1.415 . S
C515 C514 1.355 . S
C515 C517 1.419 1_545 S
C516 C514 1.415 . S
C516 C521 1.425 . S
C516 C523 1.409 . S
C517 H509 0.930 . S
C517 C515 1.419 1_565 S
C517 C518 1.362 . S
C518 H510 0.930 . S
C518 C517 1.362 . S
C518 C521 1.409 1_565 S
C519 H511 0.941 . S
C519 C520 1.343 1_565 S
C519 C521 1.415 1_565 S
C520 C519 1.343 1_545 S
C520 C522 1.419 . S
C521 C516 1.425 . S
C521 C518 1.409 1_545 S
C521 C519 1.415 1_545 S
C522 H512 0.930 . S
C522 C520 1.419 . S
C522 C523 1.362 . S
C523 H513 0.930 . S
C523 C516 1.409 . S
C523 C522 1.362 . S
H524 C530 0.930 . S
H525 C533 0.930 . S
H526 C534 0.930 . S
H527 C535 0.930 . S
H528 C538 0.930 . S
H529 C539 0.930 . S
C530 H524 0.930 . S
C530 C531 1.355 . S
C530 C532 1.415 . S
C531 C530 1.355 . S
C531 C533 1.419 . S
C532 C530 1.415 . S
C532 C537 1.425 . S
C532 C539 1.409 . S
C533 H525 0.930 . S
C533 C531 1.419 . S
C533 C534 1.362 . S
C534 H526 0.930 . S
C534 C533 1.362 . S
C534 C537 1.409 . S
C535 H527 0.930 . S
C535 C536 1.355 . S
C535 C537 1.415 . S
C536 C535 1.355 . S
C536 C538 1.419 . S
C537 C532 1.425 . S
C537 C534 1.409 . S
C537 C535 1.415 . S
C538 H528 0.930 . S
C538 C536 1.419 . S
C538 C539 1.362 . S
C539 H529 0.930 . S
C539 C532 1.409 . S
C539 C538 1.362 . S
H540 C546 0.930 . S
H541 C549 0.930 . S
H542 C550 0.930 . S
H543 C551 0.930 . S
H544 C554 0.930 . S
H545 C555 0.930 . S
C546 H540 0.930 . S
C546 C547 1.355 . S
C546 C548 1.415 . S
C547 C546 1.355 . S
C547 C549 1.419 1_545 S
C548 C546 1.415 . S
C548 C553 1.425 1_545 S
C548 C555 1.409 . S
C549 H541 0.930 . S
C549 C547 1.419 1_565 S
C549 C550 1.362 . S
C550 H542 0.930 . S
C550 C549 1.362 . S
C550 C553 1.409 . S
C551 H543 0.930 . S
C551 C552 1.355 1_565 S
C551 C553 1.415 . S
C552 C551 1.355 1_545 S
C552 C554 1.419 . S
C553 C548 1.425 1_565 S
C553 C550 1.409 . S
C553 C551 1.415 . S
C554 H544 0.930 . S
C554 C552 1.419 . S
C554 C555 1.362 . S
C555 H545 0.930 . S
C555 C548 1.409 . S
C555 C554 1.362 . S
H556 C562 0.930 . S
H557 C565 0.930 . S
H558 C566 0.930 . S
H559 C567 0.930 . S
H560 C570 0.930 . S
H561 C571 0.930 . S
C562 H556 0.930 . S
C562 C563 1.355 . S
C562 C564 1.415 . S
C563 C562 1.355 . S
C563 C565 1.419 . S
C564 C562 1.415 . S
C564 C569 1.425 . S
C564 C571 1.409 . S
C565 H557 0.930 . S
C565 C563 1.419 . S
C565 C566 1.362 . S
C566 H558 0.930 . S
C566 C565 1.362 . S
C566 C569 1.409 . S
C567 H559 0.930 . S
C567 C568 1.355 . S
C567 C569 1.415 . S
C568 C567 1.355 . S
C568 C570 1.419 . S
C569 C564 1.425 . S
C569 C566 1.409 . S
C569 C567 1.415 . S
C570 H560 0.930 . S
C570 C568 1.419 . S
C570 C571 1.362 . S
C571 H561 0.930 . S
C571 C564 1.409 . S
C571 C570 1.362 . S
H572 C578 0.930 . S
H573 C581 0.930 . S
H574 C582 0.930 . S
H575 C583 0.930 . S
H576 C586 0.930 . S
H577 C587 0.930 . S
C578 H572 0.930 . S
C578 C579 1.355 1_455 S
C578 C580 1.415 . S
C579 C578 1.355 1_655 S
C579 C581 1.419 . S
C580 C578 1.415 . S
C580 C585 1.425 1_455 S
C580 C587 1.409 . S
C581 H573 0.930 . S
C581 C579 1.419 . S
C581 C582 1.362 . S
C582 H574 0.930 . S
C582 C581 1.362 . S
C582 C585 1.409 . S
C583 H575 0.930 . S
C583 C584 1.355 1_655 S
C583 C585 1.415 . S
C584 C583 1.355 1_455 S
C584 C586 1.419 . S
C585 C580 1.425 1_655 S
C585 C582 1.409 . S
C585 C583 1.415 . S
C586 H576 0.930 . S
C586 C584 1.419 . S
C586 C587 1.362 . S
C587 H577 0.930 . S
C587 C580 1.409 . S
C587 C586 1.362 . S
C307 C2 1.402 . S
C312 C275 1.514 . S
C323 C22 1.359 . S
C328 C182 1.475 . S
C339 C44 1.514 . S
C344 C222 1.521 . S
C355 C4 1.684 . S
C360 C262 1.696 . S
C376 C195 1.723 . S
C371 C24 1.677 . S
C392 C235 1.698 . S
C387 C42 1.609 . S
C403 C32 1.424 . S
C408 C102 1.406 . S
C419 C49 1.342 . S
C424 C142 1.377 . S
C435 C9 1.388 . S
C440 C75 1.385 . S
C456 C115 1.362 . S
C451 C29 1.366 . S
C472 C155 1.399 . S
C467 C52 1.324 . S
C483 C12 1.377 . S
C488 C62 1.363 . S
C504 C161 1.405 . S
C499 C18 1.421 1_455 S
C515 C38 1.415 . S
C520 C81 1.443 . S
C531 C58 1.418 . S
C536 C121 1.447 . S
C552 C241 1.493 . S
C547 C39 1.501 . S
C568 C281 1.491 . S
C563 C59 1.455 . S
C579 C19 1.499 1_655 S
C584 C201 1.504 . S
