# Generated by pormake.
# Topology ocu, (6,8)-cn, num edge types: 1
# Building blocks:
#     Node 0, Type 0, BuildingBlock: UKALOJ_clean_sbu_0, # of connection points: 6
#     Node 1, Type 0, BuildingBlock: UKALOJ_clean_sbu_0, # of connection points: 6
#     Node 2, Type 0, BuildingBlock: UKALOJ_clean_sbu_0, # of connection points: 6
#     Node 3, Type 0, BuildingBlock: UKALOJ_clean_sbu_0, # of connection points: 6
#     Node 4, Type 0, BuildingBlock: UKALOJ_clean_sbu_0, # of connection points: 6
#     Node 5, Type 0, BuildingBlock: UKALOJ_clean_sbu_0, # of connection points: 6
#     Node 6, Type 0, BuildingBlock: UKALOJ_clean_sbu_0, # of connection points: 6
#     Node 7, Type 0, BuildingBlock: UKALOJ_clean_sbu_0, # of connection points: 6
#     Node 8, Type 1, BuildingBlock: LIZSOE_clean_sbu_0, # of connection points: 8
#     Node 9, Type 1, BuildingBlock: LIZSOE_clean_sbu_0, # of connection points: 8
#     Node 10, Type 1, BuildingBlock: LIZSOE_clean_sbu_0, # of connection points: 8
#     Node 11, Type 1, BuildingBlock: LIZSOE_clean_sbu_0, # of connection points: 8
#     Node 12, Type 1, BuildingBlock: LIZSOE_clean_sbu_0, # of connection points: 8
#     Node 13, Type 1, BuildingBlock: LIZSOE_clean_sbu_0, # of connection points: 8
#     Edge 14, Type (0, 1), BuildingBlock: OJICUG_clean_linker_0, # of connection points: 2
#     Edge 15, Type (0, 1), BuildingBlock: OJICUG_clean_linker_0, # of connection points: 2
#     Edge 16, Type (0, 1), BuildingBlock: OJICUG_clean_linker_0, # of connection points: 2
#     Edge 17, Type (0, 1), BuildingBlock: OJICUG_clean_linker_0, # of connection points: 2
#     Edge 18, Type (0, 1), BuildingBlock: OJICUG_clean_linker_0, # of connection points: 2
#     Edge 19, Type (0, 1), BuildingBlock: OJICUG_clean_linker_0, # of connection points: 2
#     Edge 20, Type (0, 1), BuildingBlock: OJICUG_clean_linker_0, # of connection points: 2
#     Edge 21, Type (0, 1), BuildingBlock: OJICUG_clean_linker_0, # of connection points: 2
#     Edge 22, Type (0, 1), BuildingBlock: OJICUG_clean_linker_0, # of connection points: 2
#     Edge 23, Type (0, 1), BuildingBlock: OJICUG_clean_linker_0, # of connection points: 2
#     Edge 24, Type (0, 1), BuildingBlock: OJICUG_clean_linker_0, # of connection points: 2
#     Edge 25, Type (0, 1), BuildingBlock: OJICUG_clean_linker_0, # of connection points: 2
#     Edge 26, Type (0, 1), BuildingBlock: OJICUG_clean_linker_0, # of connection points: 2
#     Edge 27, Type (0, 1), BuildingBlock: OJICUG_clean_linker_0, # of connection points: 2
#     Edge 28, Type (0, 1), BuildingBlock: OJICUG_clean_linker_0, # of connection points: 2
#     Edge 29, Type (0, 1), BuildingBlock: OJICUG_clean_linker_0, # of connection points: 2
#     Edge 30, Type (0, 1), BuildingBlock: OJICUG_clean_linker_0, # of connection points: 2
#     Edge 31, Type (0, 1), BuildingBlock: OJICUG_clean_linker_0, # of connection points: 2
#     Edge 32, Type (0, 1), BuildingBlock: OJICUG_clean_linker_0, # of connection points: 2
#     Edge 33, Type (0, 1), BuildingBlock: OJICUG_clean_linker_0, # of connection points: 2
#     Edge 34, Type (0, 1), BuildingBlock: OJICUG_clean_linker_0, # of connection points: 2
#     Edge 35, Type (0, 1), BuildingBlock: OJICUG_clean_linker_0, # of connection points: 2
#     Edge 36, Type (0, 1), BuildingBlock: OJICUG_clean_linker_0, # of connection points: 2
#     Edge 37, Type (0, 1), BuildingBlock: OJICUG_clean_linker_0, # of connection points: 2
#     Edge 38, Type (0, 1), BuildingBlock: OJICUG_clean_linker_0, # of connection points: 2
#     Edge 39, Type (0, 1), BuildingBlock: OJICUG_clean_linker_0, # of connection points: 2
#     Edge 40, Type (0, 1), BuildingBlock: OJICUG_clean_linker_0, # of connection points: 2
#     Edge 41, Type (0, 1), BuildingBlock: OJICUG_clean_linker_0, # of connection points: 2
#     Edge 42, Type (0, 1), BuildingBlock: OJICUG_clean_linker_0, # of connection points: 2
#     Edge 43, Type (0, 1), BuildingBlock: OJICUG_clean_linker_0, # of connection points: 2
#     Edge 44, Type (0, 1), BuildingBlock: OJICUG_clean_linker_0, # of connection points: 2
#     Edge 45, Type (0, 1), BuildingBlock: OJICUG_clean_linker_0, # of connection points: 2
#     Edge 46, Type (0, 1), BuildingBlock: OJICUG_clean_linker_0, # of connection points: 2
#     Edge 47, Type (0, 1), BuildingBlock: OJICUG_clean_linker_0, # of connection points: 2
#     Edge 48, Type (0, 1), BuildingBlock: OJICUG_clean_linker_0, # of connection points: 2
#     Edge 49, Type (0, 1), BuildingBlock: OJICUG_clean_linker_0, # of connection points: 2
#     Edge 50, Type (0, 1), BuildingBlock: OJICUG_clean_linker_0, # of connection points: 2
#     Edge 51, Type (0, 1), BuildingBlock: OJICUG_clean_linker_0, # of connection points: 2
#     Edge 52, Type (0, 1), BuildingBlock: OJICUG_clean_linker_0, # of connection points: 2
#     Edge 53, Type (0, 1), BuildingBlock: OJICUG_clean_linker_0, # of connection points: 2
#     Edge 54, Type (0, 1), BuildingBlock: OJICUG_clean_linker_0, # of connection points: 2
#     Edge 55, Type (0, 1), BuildingBlock: OJICUG_clean_linker_0, # of connection points: 2
#     Edge 56, Type (0, 1), BuildingBlock: OJICUG_clean_linker_0, # of connection points: 2
#     Edge 57, Type (0, 1), BuildingBlock: OJICUG_clean_linker_0, # of connection points: 2
#     Edge 58, Type (0, 1), BuildingBlock: OJICUG_clean_linker_0, # of connection points: 2
#     Edge 59, Type (0, 1), BuildingBlock: OJICUG_clean_linker_0, # of connection points: 2
#     Edge 60, Type (0, 1), BuildingBlock: OJICUG_clean_linker_0, # of connection points: 2
#     Edge 61, Type (0, 1), BuildingBlock: OJICUG_clean_linker_0, # of connection points: 2
# Relax obj value: 0.248
# Max RMSD: 0.299
# Mean RMSD: 0.202
data_MOF--net-ocu--node1-UKALOJ_clean_sbu_0--node2-LIZSOE_clean_sbu_0--edge1-OJICUG_clean_linker_0
_symmetry_space_group_name_H-M    P1
_symmetry_Int_Tables_number       1
_symmetry_cell_setting            triclinic
loop_
_symmetry_equiv_pos_as_xyz
'x, y, z'
_cell_length_a     28.396142
_cell_length_b     28.785473
_cell_length_c     30.623663
_cell_angle_alpha  105.06764
_cell_angle_beta   74.292724
_cell_angle_gamma 98.239379
loop_
_atom_site_label
_atom_site_type_symbol
_atom_site_fract_x
_atom_site_fract_y
_atom_site_fract_z
_atom_type_partial_charge
Zn0 Zn 0.26387 0.25665 0.25937 0.0
O1 O 0.21181 0.30284 0.31193 0.0
C2 C 0.2673 0.31909 0.20096 0.0
Zn3 Zn 0.32477 0.31065 0.27114 0.0
C4 C 0.22854 0.34396 0.33166 0.0
O5 O 0.27438 0.35396 0.32257 0.0
C6 C 0.3606 0.22449 0.19691 0.0
O7 O 0.34606 0.28714 0.32035 0.0
O8 O 0.2868 0.23137 0.30916 0.0
N9 N 0.37417 0.36834 0.27804 0.0
C10 C 0.41127 0.37879 0.24358 0.0
C11 C 0.37955 0.44449 0.28125 0.0
N12 N 0.35599 0.4097 0.30286 0.0
N13 N 0.41353 0.42554 0.24311 0.0
C14 C 0.18734 0.18257 0.29242 0.0
C15 C 0.19273 0.12469 0.23173 0.0
N16 N 0.21411 0.19998 0.25598 0.0
N17 N 0.21729 0.16426 0.21816 0.0
N18 N 0.17464 0.13537 0.27821 0.0
H19 H 0.14816 0.24049 0.34103 0.0
H20 H 0.20264 0.23099 0.35514 0.0
H21 H 0.14829 0.19082 0.36573 0.0
C22 C 0.17098 0.21246 0.34137 0.0
C23 C 0.4453 0.34359 0.20906 0.0
H24 H 0.45295 0.31701 0.22628 0.0
H25 H 0.4804 0.36285 0.19432 0.0
H26 H 0.42884 0.32459 0.17966 0.0
O27 O 0.37523 0.26544 0.21872 0.0
O28 O 0.31499 0.2117 0.20601 0.0
C29 C 0.32184 0.24863 0.32851 0.0
O30 O 0.24242 0.28088 0.20976 0.0
O31 O 0.30282 0.3361 0.22002 0.0
Zn32 Zn 0.8158 0.27587 0.22655 0.0
O33 O 0.76848 0.22139 0.18333 0.0
C34 C 0.75299 0.35491 0.2301 0.0
Zn35 Zn 0.7537 0.28795 0.28675 0.0
C36 C 0.72207 0.21363 0.19951 0.0
O37 O 0.70491 0.23601 0.24195 0.0
C38 C 0.84739 0.34836 0.31407 0.0
O39 O 0.77514 0.22864 0.30504 0.0
O40 O 0.84002 0.22115 0.24702 0.0
N41 N 0.69608 0.29581 0.34195 0.0
C42 C 0.6879 0.27677 0.37908 0.0
C43 C 0.61873 0.28548 0.3699 0.0
N44 N 0.65305 0.30324 0.33731 0.0
N45 N 0.63961 0.26635 0.39533 0.0
C46 C 0.88765 0.28401 0.13372 0.0
C47 C 0.95211 0.26294 0.14322 0.0
N48 N 0.87461 0.26657 0.17214 0.0
N49 N 0.91442 0.25174 0.1771 0.0
N50 N 0.93655 0.28449 0.11606 0.0
H51 H 0.81535 0.28945 0.1263 0.0
H52 H 0.86419 0.29761 0.07731 0.0
H53 H 0.85605 0.34491 0.12931 0.0
C54 C 0.85349 0.30521 0.11588 0.0
C55 C 0.72717 0.2649 0.39801 0.0
H56 H 0.72949 0.22529 0.38921 0.0
H57 H 0.71738 0.27689 0.43659 0.0
H58 H 0.76331 0.28306 0.38461 0.0
O59 O 0.80155 0.33871 0.33072 0.0
O60 O 0.8639 0.32966 0.27048 0.0
C61 C 0.81502 0.20938 0.28393 0.0
O62 O 0.79101 0.33326 0.20615 0.0
O63 O 0.73142 0.34535 0.26905 0.0
Zn64 Zn 0.8492 0.81304 0.23168 0.0
O65 O 0.83442 0.84041 0.18187 0.0
C66 C 0.76152 0.85886 0.30111 0.0
Zn67 Zn 0.78463 0.76176 0.2389 0.0
C68 C 0.79628 0.82124 0.16853 0.0
O69 O 0.77103 0.78692 0.18518 0.0
C70 C 0.83862 0.75438 0.30207 0.0
O71 O 0.82589 0.70444 0.19102 0.0
O72 O 0.88843 0.7574 0.18005 0.0
N73 N 0.72234 0.71964 0.24368 0.0
C74 C 0.69881 0.69859 0.21034 0.0
C75 C 0.6506 0.69073 0.27542 0.0
N76 N 0.69264 0.71481 0.2842 0.0
N77 N 0.65354 0.68155 0.22948 0.0
C78 C 0.92195 0.89205 0.25919 0.0
C79 C 0.98229 0.84935 0.24216 0.0
N80 N 0.91358 0.85295 0.2267 0.0
N81 N 0.95226 0.82741 0.21455 0.0
N82 N 0.96327 0.88943 0.27138 0.0
H83 H 0.86583 0.93385 0.25637 0.0
H84 H 0.9145 0.96805 0.28177 0.0
H85 H 0.86909 0.93281 0.31468 0.0
C86 C 0.8906 0.93389 0.27889 0.0
C87 C 0.72062 0.6924 0.15884 0.0
H88 H 0.76109 0.69753 0.15038 0.0
H89 H 0.70629 0.71902 0.14626 0.0
H90 H 0.70958 0.65583 0.13979 0.0
O91 O 0.79844 0.73825 0.2913 0.0
O92 O 0.86599 0.78622 0.28328 0.0
C93 C 0.87061 0.71396 0.17185 0.0
O94 O 0.8072 0.86801 0.28482 0.0
O95 O 0.74268 0.81666 0.28772 0.0
Zn96 Zn 0.30045 0.78744 0.2863 0.0
O97 O 0.2641 0.84728 0.33597 0.0
C98 C 0.21022 0.71715 0.31944 0.0
Zn99 Zn 0.24819 0.78374 0.24612 0.0
C100 C 0.22715 0.86262 0.32966 0.0
O101 O 0.21122 0.84154 0.29414 0.0
C102 C 0.32317 0.71094 0.20243 0.0
O103 O 0.29746 0.83574 0.20503 0.0
O104 O 0.35166 0.83964 0.24447 0.0
N105 N 0.20066 0.77978 0.20839 0.0
C106 C 0.17755 0.74077 0.18638 0.0
C107 C 0.15636 0.80232 0.1716 0.0
N108 N 0.18755 0.81818 0.19958 0.0
N109 N 0.14933 0.75406 0.16375 0.0
C110 C 0.36819 0.82176 0.35057 0.0
C111 C 0.38983 0.75495 0.35456 0.0
N112 N 0.34636 0.78644 0.3235 0.0
N113 N 0.35933 0.74486 0.32597 0.0
N114 N 0.39481 0.80284 0.37087 0.0
H115 H 0.35169 0.88122 0.32722 0.0
H116 H 0.40169 0.8946 0.35533 0.0
H117 H 0.33973 0.88939 0.38945 0.0
C118 C 0.36519 0.87469 0.35556 0.0
C119 C 0.18552 0.68924 0.1831 0.0
H120 H 0.20931 0.67442 0.14829 0.0
H121 H 0.15008 0.66689 0.18634 0.0
H122 H 0.20312 0.68555 0.20981 0.0
O123 O 0.28602 0.72566 0.19606 0.0
O124 O 0.33721 0.73067 0.23901 0.0
C125 C 0.33962 0.85282 0.21212 0.0
O126 O 0.25177 0.73527 0.327 0.0
O127 O 0.19768 0.73092 0.28783 0.0
Zn128 Zn 0.32136 0.77113 0.72383 0.0
O129 O 0.27321 0.7177 0.68071 0.0
C130 C 0.25662 0.84893 0.73295 0.0
Zn131 Zn 0.26264 0.77846 0.78679 0.0
C132 C 0.22788 0.70702 0.69901 0.0
O133 O 0.21301 0.72562 0.74295 0.0
C134 C 0.35463 0.84232 0.81165 0.0
O135 O 0.28921 0.71957 0.80336 0.0
O136 O 0.34895 0.71498 0.74079 0.0
N137 N 0.20632 0.78668 0.84313 0.0
C138 C 0.19759 0.77061 0.88203 0.0
C139 C 0.13022 0.79039 0.87804 0.0
N140 N 0.16482 0.80121 0.8417 0.0
N141 N 0.14939 0.76893 0.90292 0.0
C142 C 0.38736 0.78316 0.63061 0.0
C143 C 0.45629 0.77325 0.63983 0.0
N144 N 0.37872 0.76521 0.66845 0.0
N145 N 0.42154 0.75715 0.67317 0.0
N146 N 0.43582 0.79131 0.61344 0.0
H147 H 0.31203 0.78093 0.62663 0.0
H148 H 0.35779 0.78619 0.57418 0.0
H149 H 0.34944 0.83751 0.62205 0.0
C150 C 0.34886 0.79767 0.61279 0.0
C151 C 0.23493 0.75063 0.89705 0.0
H152 H 0.23242 0.71086 0.88434 0.0
H153 H 0.22679 0.75874 0.93565 0.0
H154 H 0.27242 0.76644 0.88389 0.0
O155 O 0.31015 0.82961 0.83001 0.0
O156 O 0.36952 0.82562 0.76744 0.0
C157 C 0.32908 0.70189 0.77845 0.0
O158 O 0.29477 0.82914 0.70673 0.0
O159 O 0.23692 0.83616 0.77077 0.0
Zn160 Zn 0.3421 0.30805 0.73505 0.0
O161 O 0.3303 0.33643 0.68506 0.0
C162 C 0.25898 0.35936 0.80724 0.0
Zn163 Zn 0.27596 0.26055 0.747 0.0
C164 C 0.29079 0.31928 0.6738 0.0
O165 O 0.26388 0.28733 0.6929 0.0
C166 C 0.32853 0.2515 0.8095 0.0
O167 O 0.31402 0.20064 0.69857 0.0
O168 O 0.37841 0.2508 0.68387 0.0
N169 N 0.21121 0.22355 0.7523 0.0
C170 C 0.18714 0.20657 0.71875 0.0
C171 C 0.13578 0.20451 0.78368 0.0
N172 N 0.17946 0.22265 0.79282 0.0
N173 N 0.13957 0.19637 0.73762 0.0
C174 C 0.41303 0.39028 0.75227 0.0
C175 C 0.47179 0.35278 0.75306 0.0
N176 N 0.40657 0.34468 0.72911 0.0
N177 N 0.44386 0.32148 0.72811 0.0
N178 N 0.45235 0.39591 0.77005 0.0
H179 H 0.37828 0.42223 0.71391 0.0
H180 H 0.41399 0.46463 0.7501 0.0
H181 H 0.35512 0.43927 0.77568 0.0
C182 C 0.38875 0.43134 0.7477 0.0
C183 C 0.21047 0.1957 0.66719 0.0
H184 H 0.25089 0.19983 0.65925 0.0
H185 H 0.19731 0.22005 0.65108 0.0
H186 H 0.19905 0.15815 0.65077 0.0
O187 O 0.28739 0.23574 0.80057 0.0
O188 O 0.35632 0.28074 0.78731 0.0
C189 C 0.35848 0.20807 0.67708 0.0
O190 O 0.30443 0.36625 0.78838 0.0
O191 O 0.23787 0.31783 0.79587 0.0
Zn192 Zn 0.81048 0.28725 0.7882 0.0
O193 O 0.77341 0.34568 0.8389 0.0
C194 C 0.72341 0.21564 0.82224 0.0
Zn195 Zn 0.75938 0.28007 0.74623 0.0
C196 C 0.73828 0.36119 0.82983 0.0
O197 O 0.72499 0.33998 0.79303 0.0
C198 C 0.83354 0.20693 0.7036 0.0
O199 O 0.80581 0.3296 0.70192 0.0
O200 O 0.85728 0.34048 0.74524 0.0
N201 N 0.70768 0.27658 0.71381 0.0
C202 C 0.70661 0.25932 0.66921 0.0
C203 C 0.63353 0.27123 0.70834 0.0
N204 N 0.6626 0.28618 0.73804 0.0
N205 N 0.66 0.25262 0.6651 0.0
C206 C 0.89712 0.32661 0.82517 0.0
C207 C 0.92603 0.26203 0.82527 0.0
N208 N 0.86182 0.29097 0.82139 0.0
N209 N 0.87933 0.25081 0.82177 0.0
N210 N 0.93833 0.30891 0.82544 0.0
H211 H 0.85038 0.38607 0.84558 0.0
H212 H 0.90605 0.39282 0.80216 0.0
H213 H 0.90761 0.4007 0.86175 0.0
C214 C 0.88954 0.37933 0.83412 0.0
C215 C 0.7498 0.24083 0.63058 0.0
H216 H 0.78411 0.26285 0.63551 0.0
H217 H 0.74377 0.24138 0.59639 0.0
H218 H 0.754 0.20291 0.62989 0.0
O219 O 0.79429 0.21803 0.69766 0.0
O220 O 0.84884 0.23078 0.73857 0.0
C221 C 0.84604 0.35035 0.71092 0.0
O222 O 0.76507 0.23387 0.82981 0.0
O223 O 0.71078 0.22906 0.79041 0.0
Zn224 Zn 0.82845 0.81342 0.76847 0.0
O225 O 0.8506 0.78761 0.81623 0.0
C226 C 0.86834 0.7301 0.6953 0.0
Zn227 Zn 0.76973 0.75782 0.7558 0.0
C228 C 0.82676 0.74891 0.82471 0.0
O229 O 0.79048 0.73192 0.80691 0.0
C230 C 0.77126 0.82032 0.69851 0.0
O231 O 0.71536 0.8022 0.80915 0.0
O232 O 0.77668 0.85464 0.82086 0.0
N233 N 0.72316 0.69979 0.74747 0.0
C234 C 0.67687 0.69503 0.77211 0.0
C235 C 0.70682 0.62748 0.75647 0.0
N236 N 0.74145 0.65737 0.7363 0.0
N237 N 0.66632 0.65066 0.78053 0.0
C238 C 0.90145 0.89123 0.74131 0.0
C239 C 0.88136 0.9494 0.80054 0.0
N240 N 0.87571 0.87184 0.77665 0.0
N241 N 0.86431 0.90783 0.81387 0.0
N242 N 0.90411 0.93957 0.75502 0.0
H243 H 0.94542 0.83596 0.69401 0.0
H244 H 0.94574 0.88651 0.67027 0.0
H245 H 0.89254 0.84408 0.67587 0.0
C246 C 0.92223 0.86306 0.69253 0.0
C247 C 0.63963 0.73098 0.78203 0.0
H248 H 0.65156 0.75527 0.75756 0.0
H249 H 0.63427 0.75326 0.81804 0.0
H250 H 0.60358 0.71169 0.77858 0.0
O251 O 0.74919 0.78061 0.7055 0.0
O252 O 0.80481 0.83984 0.71932 0.0
C253 C 0.73099 0.84347 0.82986 0.0
O254 O 0.88172 0.77204 0.716 0.0
O255 O 0.82318 0.71588 0.70416 0.0
Co256 Co 0.08596 0.96347 0.55236 0.0
N257 N 0.10109 0.94112 0.59914 0.0
C258 C 0.07164 0.90708 0.61888 0.0
N259 N 0.13487 0.92247 0.65058 0.0
C260 C 0.13983 0.94968 0.6191 0.0
C261 C 0.0918 0.8961 0.65047 0.0
Co262 Co 0.95802 0.07755 0.47189 0.0
N263 N 0.92735 0.07678 0.42457 0.0
N264 N 0.89444 0.10168 0.37636 0.0
C265 C 0.88343 0.05399 0.37129 0.0
C266 C 0.90359 0.03882 0.4005 0.0
C267 C 0.92124 0.11478 0.40878 0.0
Co268 Co 1.03101 0.0329 0.51458 0.0
C269 C 0.93617 0.08671 0.54122 0.0
H270 H 0.89895 1.00238 0.4047 0.0
O271 O 0.07706 0.983 0.50718 0.0
O272 O 0.07592 0.05497 0.46004 0.0
O273 O 0.06137 0.08104 0.56073 0.0
O274 O 0.98369 1.01304 0.56797 0.0
O275 O 1.01982 0.95602 0.58096 0.0
O276 O 1.01729 0.06648 0.42805 0.0
O277 O 0.98274 0.08102 0.51986 0.0
O278 O 0.93978 1.0102 0.46498 0.0
O279 O 0.08716 1.02659 0.58789 0.0
O280 O 0.14767 0.97295 0.52121 0.0
O281 O 1.00487 0.98162 0.47012 0.0
O282 O 0.90566 0.08811 0.51663 0.0
C283 C 0.07858 0.06958 0.59078 0.0
C284 C 0.9393 0.16552 0.42773 0.0
H285 H 0.95342 0.16779 0.45875 0.0
H286 H 0.96927 0.17781 0.40042 0.0
H287 H 0.90923 0.18974 0.43705 0.0
C288 C 0.06171 0.06095 0.42562 0.0
C289 C 0.98408 0.98155 0.58986 0.0
H290 H 1.03797 0.88992 0.60994 0.0
H291 H 0.20951 0.96754 0.57603 0.0
H292 H 0.20127 0.99755 0.63681 0.0
H293 H 0.17101 1.01685 0.60045 0.0
C294 C 0.18278 0.98516 0.60772 0.0
C295 C 0.12476 0.98183 0.49312 0.0
C296 C 0.96702 0.97616 0.45531 0.0
H297 H 0.07705 0.86883 0.67023 0.0
H298 H 0.86094 0.03195 0.34897 0.0
Co299 Co 0.59315 0.96287 0.05093 0.0
N300 N 0.61429 0.94279 0.09412 0.0
C301 C 0.58675 0.90988 0.1167 0.0
N302 N 0.66058 0.9129 0.12705 0.0
C303 C 0.65939 0.94435 0.10157 0.0
C304 C 0.61485 0.8919 0.13722 0.0
Co305 Co 0.47085 0.08633 0.96841 0.0
N306 N 0.45566 0.10699 0.92309 0.0
N307 N 0.42242 0.14554 0.88624 0.0
C308 C 0.45579 0.11793 0.85407 0.0
C309 C 0.47572 0.09358 0.87681 0.0
C310 C 0.42248 0.13799 0.92774 0.0
Co311 Co 0.53291 1.02616 0.01044 0.0
C312 C 0.48173 0.11821 0.03314 0.0
H313 H 0.50319 0.06779 0.8607 0.0
O314 O 0.57806 0.97714 0.00464 0.0
O315 O 0.58618 0.05829 0.96015 0.0
O316 O 0.56524 0.07619 0.06157 0.0
O317 O 0.48031 0.99477 0.06137 0.0
O318 O 0.52854 0.9624 0.08988 0.0
O319 O 0.53765 0.09597 0.93763 0.0
O320 O 0.48385 0.07183 0.01598 0.0
O321 O 0.46387 1.0222 0.933 0.0
O322 O 0.60908 0.02897 0.07996 0.0
O323 O 0.65105 0.96284 0.00979 0.0
O324 O 0.5015 0.97604 0.95923 0.0
O325 O 0.47716 0.14458 0.00605 0.0
C326 C 0.59739 0.07104 0.08335 0.0
C327 C 0.38995 0.16082 0.97348 0.0
H328 H 0.40715 0.19689 0.98716 0.0
H329 H 0.35363 0.16577 0.96905 0.0
H330 H 0.38511 0.13837 0.99911 0.0
C331 C 0.58063 0.08686 0.93531 0.0
C332 C 0.48574 0.97099 0.0905 0.0
H333 H 0.55006 0.89553 0.11412 0.0
H334 H 0.72199 0.94853 0.04465 0.0
H335 H 0.73127 0.98187 0.10023 0.0
H336 H 0.69466 1.00511 0.07249 0.0
C337 C 0.70424 0.97177 0.07855 0.0
C338 C 0.6242 0.97065 0.98461 0.0
C339 C 0.47476 0.9807 0.93211 0.0
H340 H 0.60404 0.86178 0.15384 0.0
H341 H 0.46487 0.11564 0.81691 0.0
Co342 Co 0.13347 0.48419 0.03462 0.0
N343 N 0.16142 0.47956 0.08039 0.0
C344 C 0.17558 0.51361 0.11483 0.0
N345 N 0.1948 0.44386 0.12036 0.0
C346 C 0.17336 0.43751 0.08455 0.0
C347 C 0.19614 0.49176 0.13934 0.0
Co348 Co 0.96828 0.54938 0.95318 0.0
N349 N 0.94586 0.56661 0.90837 0.0
N350 N 0.91223 0.60801 0.87313 0.0
C351 C 0.90059 0.56059 0.85803 0.0
C352 C 0.92133 0.53535 0.87952 0.0
C353 C 0.94013 0.611 0.90342 0.0
Co354 Co 0.05112 0.51624 0.9957 0.0
C355 C 0.96638 0.58069 0.021 0.0
H356 H 0.91593 0.49684 0.8768 0.0
O357 O 0.11306 0.48724 0.989 0.0
O358 O 0.08727 0.56615 0.96279 0.0
O359 O 0.05369 0.56267 0.05507 0.0
O360 O 1.01675 0.46707 0.02901 0.0
O361 O 0.07087 0.46681 0.07053 0.0
O362 O 1.02819 0.58328 0.93509 0.0
O363 O 0.98622 0.5395 1.00091 0.0
O364 O 0.99331 0.49366 0.90987 0.0
O365 O 0.12687 0.54995 0.06054 0.0
O366 O 0.19023 0.49894 0.99528 0.0
O367 O 0.04935 0.47051 0.93704 0.0
O368 O 0.94645 0.59964 0.99714 0.0
C369 C 0.09199 0.57657 0.06985 0.0
C370 C 0.95597 0.65807 0.93328 0.0
H371 H 0.98851 0.65533 0.94536 0.0
H372 H 0.96507 0.68736 0.91446 0.0
H373 H 0.92531 0.66915 0.96418 0.0
C374 C 0.07174 0.5891 0.93986 0.0
C375 C 1.02938 0.45381 0.06048 0.0
H376 H 0.17192 0.55186 0.1215 0.0
H377 H 0.16232 0.39686 0.01785 0.0
H378 H 0.13105 0.37103 0.06644 0.0
H379 H 0.19639 0.36756 0.04417 0.0
C380 C 0.16571 0.39048 0.05108 0.0
C381 C 0.15966 0.49233 0.96881 0.0
C382 C 1.02583 0.46586 0.90644 0.0
H383 H 0.21125 0.50978 0.16885 0.0
H384 H 0.87644 0.54548 0.83503 0.0
Co385 Co 0.59021 0.46119 0.03628 0.0
N386 N 0.60549 0.43336 0.07958 0.0
C387 C 0.57872 0.39504 0.09415 0.0
N388 N 0.63755 0.41369 0.13158 0.0
C389 C 0.64168 0.44377 0.10295 0.0
C390 C 0.59785 0.38335 0.12615 0.0
Co391 Co 0.4822 0.58557 0.96985 0.0
N392 N 0.47537 0.59484 0.91267 0.0
N393 N 0.44561 0.614 0.85856 0.0
C394 C 0.47216 0.57558 0.83798 0.0
C395 C 0.49033 0.56417 0.87097 0.0
C396 C 0.44926 0.62594 0.90354 0.0
Co397 Co 0.53246 0.53669 0.01061 0.0
C398 C 0.44824 0.61223 0.03846 0.0
H399 H 0.51189 0.53428 0.8651 0.0
O400 O 0.58159 0.48656 0.99316 0.0
O401 O 0.57461 0.56935 0.96211 0.0
O402 O 0.56405 0.57901 0.058 0.0
O403 O 0.48882 0.50758 0.05947 0.0
O404 O 0.52401 0.4424 0.05655 0.0
O405 O 0.53272 0.63265 0.97171 0.0
O406 O 0.48179 0.58213 0.02742 0.0
O407 O 0.43662 0.53309 0.96641 0.0
O408 O 0.58295 0.51928 0.08201 0.0
O409 O 0.65081 0.48176 0.01313 0.0
O410 O 0.49958 0.49372 0.96403 0.0
O411 O 0.43744 0.62542 0.00561 0.0
C412 C 0.57579 0.56326 0.08836 0.0
C413 C 0.43084 0.67115 0.93777 0.0
H414 H 0.3948 0.66244 0.96068 0.0
H415 H 0.45725 0.68749 0.95946 0.0
H416 H 0.42605 0.69819 0.91959 0.0
C417 C 0.57183 0.61068 0.95497 0.0
C418 C 0.488 0.46839 0.0709 0.0
H419 H 0.54729 0.37607 0.08196 0.0
H420 H 0.71093 0.47154 0.06664 0.0
H421 H 0.69731 0.4947 0.12892 0.0
H422 H 0.66714 0.51602 0.094 0.0
C423 C 0.68134 0.48398 0.09812 0.0
C424 C 0.62973 0.48927 0.98304 0.0
C425 C 0.45956 0.49498 0.95302 0.0
H426 H 0.5845 0.35374 0.14315 0.0
H427 H 0.47639 0.55582 0.80204 0.0
Co428 Co 0.09428 0.46336 0.54943 0.0
N429 N 0.11576 0.44186 0.59167 0.0
C430 C 0.08787 0.40902 0.6142 0.0
N431 N 0.16136 0.41154 0.62493 0.0
C432 C 0.16072 0.44303 0.59928 0.0
C433 C 0.11549 0.3909 0.635 0.0
Co434 Co 0.96281 0.586 0.47547 0.0
N435 N 0.93535 0.6045 0.43591 0.0
N436 N 0.90546 0.63881 0.39267 0.0
C437 C 0.8756 0.59974 0.40083 0.0
C438 C 0.89351 0.57936 0.42773 0.0
C439 C 0.94146 0.64154 0.41479 0.0
Co440 Co 1.0325 0.52738 0.51089 0.0
C441 C 0.98224 0.61974 0.5355 0.0
H442 H 0.87596 0.54877 0.44195 0.0
O443 O 0.07857 0.4789 0.50385 0.0
O444 O 0.08127 0.56054 0.45922 0.0
O445 O 0.06693 0.57698 0.56087 0.0
O446 O 0.98149 0.49587 0.56241 0.0
O447 O 1.03032 0.46144 0.58812 0.0
O448 O 1.0282 0.59469 0.43707 0.0
O449 O 0.98386 0.57332 0.51874 0.0
O450 O 0.95483 0.52173 0.44197 0.0
O451 O 0.10922 0.52903 0.58038 0.0
O452 O 0.15201 0.46525 0.5085 0.0
O453 O 1.00002 0.47657 0.46055 0.0
O454 O 0.97117 0.64496 0.51056 0.0
C455 C 0.09817 0.57127 0.58347 0.0
C456 C 0.98096 0.68201 0.41818 0.0
H457 H 1.01234 0.67186 0.42753 0.0
H458 H 0.9938 0.69371 0.38482 0.0
H459 H 0.96584 0.71309 0.4461 0.0
C460 C 0.0724 0.58697 0.43372 0.0
C461 C 0.98753 0.47093 0.5902 0.0
H462 H 0.05107 0.39498 0.61174 0.0
H463 H 0.22253 0.44819 0.54194 0.0
H464 H 0.23336 0.47889 0.59769 0.0
H465 H 0.19634 0.50486 0.57231 0.0
C466 C 0.20571 0.47055 0.57669 0.0
C467 C 0.12479 0.47346 0.48379 0.0
C468 C 0.96905 0.48077 0.43731 0.0
H469 H 0.10418 0.36104 0.65195 0.0
H470 H 0.84196 0.58787 0.38952 0.0
Co471 Co 0.62593 0.97229 0.52759 0.0
N472 N 0.64984 0.96199 0.57389 0.0
C473 C 0.6361 0.98496 0.61921 0.0
N474 N 0.68403 0.92992 0.61584 0.0
C475 C 0.67838 0.92782 0.57286 0.0
C476 C 0.65754 0.9659 0.64482 0.0
Co477 Co 0.47656 0.06714 0.45698 0.0
N478 N 0.44765 0.07424 0.41351 0.0
N479 N 0.40775 0.11374 0.3828 0.0
C480 C 0.40772 0.06718 0.35908 0.0
C481 C 0.43261 0.04286 0.37793 0.0
C482 C 0.43241 0.11701 0.41553 0.0
Co483 Co 0.5522 1.02157 0.49132 0.0
C484 C 0.45228 0.06662 0.525 0.0
H485 H 0.43806 1.00475 0.36722 0.0
O486 O 0.60741 0.98037 0.48131 0.0
O487 O 0.59409 0.06392 0.4532 0.0
O488 O 0.56523 0.06703 0.54642 0.0
O489 O 0.5085 0.97978 0.52988 0.0
O490 O 0.56261 0.96177 0.563 0.0
O491 O 0.53909 0.06678 0.41393 0.0
O492 O 0.49832 0.06376 0.50203 0.0
O493 O 0.46648 1.00051 0.4393 0.0
O494 O 0.62863 0.03794 0.55572 0.0
O495 O 0.6838 0.98289 0.48928 0.0
O496 O 0.53822 0.9766 0.43538 0.0
O497 O 0.42064 0.06655 0.50122 0.0
C498 C 0.60128 0.07155 0.56381 0.0
C499 C 0.43945 0.16151 0.45242 0.0
H500 H 0.44785 0.15216 0.48228 0.0
H501 H 0.47098 0.18492 0.43749 0.0
H502 H 0.40628 0.1821 0.46477 0.0
C503 C 0.58131 0.07866 0.4226 0.0
C504 C 0.51909 0.96135 0.55924 0.0
H505 H 0.61023 1.01241 0.63317 0.0
H506 H 0.69978 0.90291 0.49776 0.0
H507 H 0.67498 0.85692 0.52914 0.0
H508 H 0.73628 0.88354 0.5292 0.0
C509 C 0.69888 0.891 0.52958 0.0
C510 C 0.65473 0.98276 0.46276 0.0
C511 C 0.49579 0.96796 0.42851 0.0
H512 H 0.65274 0.97653 0.68228 0.0
H513 H 0.39044 0.05183 0.33048 0.0
C514 C 0.17388 0.09997 0.34281 0.0
C515 C 0.15284 0.10261 0.30703 0.0
H516 H 0.16086 0.08441 0.41 0.0
C517 C 0.10636 0.08036 0.30521 0.0
H518 H 0.21035 0.11631 0.34369 0.0
C519 C 0.07841 0.06144 0.34227 0.0
C520 C 0.09668 0.06544 0.38171 0.0
H521 H 0.0901 0.08185 0.27748 0.0
H522 H 0.04092 0.04768 0.34182 0.0
C523 C 0.14575 0.08166 0.38042 0.0
C524 C 0.80459 0.1526 0.33574 0.0
C525 C 0.83567 0.17997 0.30607 0.0
H526 H 0.79961 0.10623 0.38168 0.0
C527 C 0.88672 0.18282 0.30126 0.0
H528 H 0.76521 0.14991 0.34016 0.0
C529 C 0.9062 0.15881 0.32593 0.0
C530 C 0.87496 0.13109 0.35514 0.0
H531 H 0.91149 0.20442 0.27918 0.0
H532 H 0.94555 0.16085 0.3214 0.0
C533 C 0.82413 0.12799 0.35965 0.0
C534 C 0.92685 0.89447 0.3545 0.0
C535 C 0.96716 0.9038 0.31832 0.0
H536 H 0.89487 0.91124 0.42817 0.0
C537 C 1.0104 0.92756 0.32845 0.0
H538 H 0.89384 0.87391 0.34682 0.0
C539 C 1.01173 0.94637 0.37459 0.0
C540 C 0.96944 0.94236 0.41067 0.0
H541 H 0.0419 0.93374 0.30076 0.0
H542 H 0.04457 0.96756 0.38164 0.0
C543 C 0.9276 0.91464 0.40071 0.0
C544 C 0.2269 0.9383 0.39216 0.0
C545 C 0.20132 0.90269 0.3645 0.0
H546 H 0.22185 0.99526 0.45364 0.0
C547 C 0.15017 0.90348 0.37305 0.0
H548 H 0.26644 0.93921 0.38564 0.0
C549 C 0.12449 0.93529 0.41239 0.0
C550 C 0.14971 0.96741 0.4431 0.0
H551 H 0.12955 0.87662 0.35193 0.0
H552 H 0.08485 0.9305 0.42163 0.0
C553 C 0.20137 0.97095 0.4306 0.0
C554 C 0.24813 0.88869 0.67145 0.0
C555 C 0.23007 0.87906 0.71602 0.0
H556 H 0.23178 0.90943 0.61513 0.0
C557 C 0.18253 0.89175 0.74123 0.0
H558 H 0.28449 0.88007 0.65119 0.0
C559 C 0.15259 0.90958 0.72079 0.0
C560 C 0.16942 0.91545 0.67483 0.0
H561 H 0.16718 0.88505 0.77569 0.0
H562 H 0.11517 0.91632 0.73995 0.0
C563 C 0.21805 0.9063 0.6509 0.0
C564 C 0.10119 0.1192 0.70959 0.0
C565 C 0.1064 0.16847 0.71208 0.0
H566 H 0.09337 0.04952 0.66741 0.0
C567 C 0.09523 0.18629 0.67777 0.0
H568 H 0.11097 0.10519 0.73528 0.0
C569 C 0.08402 0.15437 0.63843 0.0
C570 C 0.08482 0.10471 0.63331 0.0
H571 H 0.10035 0.22463 0.67921 0.0
H572 H 0.07818 0.16846 0.61094 0.0
C573 C 0.09207 0.08755 0.66997 0.0
C574 C 0.91457 0.17617 0.65537 0.0
C575 C 0.86297 0.16891 0.66913 0.0
H576 H 0.98017 0.15383 0.60318 0.0
C577 C 0.83975 0.12628 0.6477 0.0
H578 H 0.93346 0.20862 0.67191 0.0
C579 C 0.86687 0.0937 0.6104 0.0
C580 C 0.91732 0.10428 0.5921 0.0
H581 H 0.80029 0.11925 0.65833 0.0
H582 H 0.84716 0.06304 0.59217 0.0
C583 C 0.9416 0.14427 0.6167 0.0
C584 C 0.9576 0.99737 0.71684 0.0
C585 C 0.91252 0.97088 0.72432 0.0
H586 H 1.0158 1.0209 0.66565 0.0
C587 C 0.88463 0.96115 0.69087 0.0
H588 H 0.97958 1.00466 0.74213 0.0
C589 C 0.90567 0.96929 0.64664 0.0
C590 C 0.95414 0.98831 0.63702 0.0
H591 H 0.85036 0.93972 0.6963 0.0
H592 H 0.88655 0.9556 0.61911 0.0
C593 C 0.9784 1.00602 0.67303 0.0
C594 C 0.44476 0.21044 0.14403 0.0
C595 C 0.39604 0.19277 0.16054 0.0
H596 H 0.51151 0.19961 0.09037 0.0
C597 C 0.381 0.14516 0.14029 0.0
H598 H 0.45809 0.24642 0.15918 0.0
C599 C 0.41271 0.11743 0.10218 0.0
C600 C 0.45965 0.13711 0.08294 0.0
H601 H 0.34396 0.13008 0.1524 0.0
H602 H 0.39864 0.08247 0.08488 0.0
C603 C 0.47596 0.18322 0.10516 0.0
C604 C 0.96119 0.33278 0.05753 0.0
C605 C 0.96366 0.32495 0.09997 0.0
H606 H 0.97779 0.38176 0.0129 0.0
C607 C 0.98517 0.36131 0.13087 0.0
H608 H 0.94457 0.30517 0.03354 0.0
C609 C 1.0044 0.40477 0.11923 0.0
C610 C 1.00149 0.41272 0.07695 0.0
H611 H 0.98594 0.35648 0.16457 0.0
H612 H 1.0219 0.43193 0.14297 0.0
C613 C 0.9793 0.37675 0.04635 0.0
C614 C 0.77146 0.89674 0.16165 0.0
C615 C 0.77362 0.84654 0.14519 0.0
H616 H 0.73117 0.95732 0.17002 0.0
C617 C 0.74342 0.82028 0.1165 0.0
H618 H 0.79389 0.91742 0.1847 0.0
C619 C 0.70829 0.84324 0.10785 0.0
C620 C 0.70276 0.89237 0.12831 0.0
H621 H 0.74463 0.78157 0.10367 0.0
H622 H 0.68327 0.82217 0.08769 0.0
C623 C 0.73558 0.9195 0.1537 0.0
C624 C 0.08002 0.69914 0.14941 0.0
C625 C 0.1257 0.72168 0.13154 0.0
H626 H 1.03371 0.63316 0.14407 0.0
C627 C 0.15597 0.69908 0.08935 0.0
H628 H 0.05716 0.71607 0.18271 0.0
C629 C 0.14428 0.65146 0.06911 0.0
C630 C 0.10085 0.62731 0.0895 0.0
H631 H 0.19184 0.71588 0.07605 0.0
H632 H 0.17001 0.6329 0.03856 0.0
C633 C 0.06745 0.65172 0.12828 0.0
C634 C 0.43026 0.90352 0.82313 0.0
C635 C 0.38846 0.87494 0.84185 0.0
H636 H 0.48927 0.95807 0.8356 0.0
C637 C 0.37921 0.87847 0.89058 0.0
H638 H 0.43932 0.90302 0.78632 0.0
C639 C 0.40957 0.90896 0.91887 0.0
C640 C 0.45074 0.93831 0.90033 0.0
H641 H 0.3478 0.85776 0.9073 0.0
H642 H 0.39917 0.9113 0.95606 0.0
C643 C 0.45975 0.93501 0.85168 0.0
C644 C 0.25379 0.44337 0.85948 0.0
C645 C 0.23073 0.39806 0.84307 0.0
H646 H 0.24832 0.51017 0.91124 0.0
C647 C 0.18041 0.38897 0.86317 0.0
H648 H 0.2922 0.45192 0.84491 0.0
C649 C 0.15506 0.42269 0.90102 0.0
C650 C 0.17916 0.46659 0.91962 0.0
H651 H 0.16113 0.35461 0.85142 0.0
H652 H 0.11805 0.41216 0.91838 0.0
C653 C 0.22833 0.47717 0.89721 0.0
C654 C 0.64226 0.16361 0.84352 0.0
C655 C 0.68969 0.17981 0.85007 0.0
H656 H 0.57391 0.12309 0.86261 0.0
C657 C 0.70308 0.16125 0.88366 0.0
H658 H 0.62934 0.17595 0.8186 0.0
C659 C 0.67022 0.12925 0.90972 0.0
C660 C 0.62204 0.11417 0.90366 0.0
H661 H 0.73903 0.17201 0.89043 0.0
H662 H 0.68211 0.11778 0.93573 0.0
C663 C 0.60985 0.1323 0.86933 0.0
C664 C 0.81791 0.68046 0.86309 0.0
C665 C 0.84741 0.71809 0.84532 0.0
H666 H 0.81601 0.616 0.88652 0.0
C667 C 0.89854 0.72042 0.83925 0.0
H668 H 0.77851 0.67744 0.86747 0.0
C669 C 0.9199 0.68439 0.84849 0.0
C670 C 0.89046 0.64641 0.86553 0.0
H671 H 0.92236 0.74823 0.82435 0.0
H672 H 0.9595 0.68518 0.84065 0.0
C673 C 0.83928 0.64511 0.8734 0.0
C674 C 0.27714 0.39159 0.16819 0.0
C675 C 0.25157 0.34726 0.17396 0.0
H676 H 0.27991 0.45602 0.14509 0.0
C677 C 0.20802 0.33345 0.15864 0.0
H678 H 0.30953 0.40433 0.1811 0.0
C679 C 0.18977 0.36437 0.1396 0.0
C680 C 0.21525 0.40913 0.13486 0.0
H681 H 0.18685 0.29992 0.16336 0.0
H682 H 0.15477 0.35426 0.1307 0.0
C683 C 0.25959 0.42177 0.14839 0.0
C684 C 0.11057 0.68864 0.87982 0.0
C685 C 0.12655 0.72495 0.91459 0.0
H686 H 0.08306 0.61538 0.85983 0.0
C687 C 0.13011 0.7139 0.95539 0.0
H688 H 0.10958 0.69592 0.84712 0.0
C689 C 0.11684 0.6672 0.96166 0.0
C690 C 0.09985 0.63159 0.9273 0.0
H691 H 0.14359 0.74121 0.98186 0.0
H692 H 0.11691 0.65964 0.99435 0.0
C693 C 0.09725 0.64234 0.88617 0.0
C694 C 0.32271 0.19007 0.85532 0.0
C695 C 0.34767 0.23071 0.83951 0.0
H696 H 0.32828 0.13044 0.88318 0.0
C697 C 0.39487 0.24672 0.84632 0.0
H698 H 0.28635 0.17692 0.85048 0.0
C699 C 0.41843 0.21997 0.8646 0.0
C700 C 0.39481 0.17759 0.87692 0.0
H701 H 0.41489 0.27808 0.83472 0.0
H702 H 0.45601 0.23074 0.86685 0.0
C703 C 0.34639 0.16352 0.8739 0.0
C704 C 1.00045 0.33592 0.86862 0.0
C705 C 0.98341 0.33573 0.82996 0.0
H706 H 1.02933 0.38017 0.92396 0.0
C707 C 0.99981 0.37301 0.80628 0.0
H708 H 0.98892 0.30682 0.88655 0.0
C709 C 1.01989 0.41634 0.82903 0.0
C710 C 1.02732 0.41985 0.87304 0.0
H711 H 0.98873 0.3718 0.77481 0.0
H712 H 1.02404 0.44804 0.81506 0.0
C713 C 1.02305 0.3782 0.89013 0.0
C714 C 0.71721 0.92787 0.87662 0.0
C715 C 0.69785 0.87994 0.86278 0.0
H716 H 0.70698 0.99632 0.92519 0.0
C717 C 0.64806 0.86811 0.88188 0.0
H718 H 0.75509 0.93885 0.86195 0.0
C719 C 0.61991 0.90209 0.91741 0.0
C720 C 0.64118 0.94826 0.9346 0.0
H721 H 0.63178 0.83185 0.87174 0.0
H722 H 0.58337 0.89033 0.93506 0.0
C723 C 0.68926 0.96151 0.91205 0.0
C724 C 0.88373 0.62658 0.1329 0.0
C725 C 0.90198 0.67531 0.14063 0.0
H726 H 0.89382 0.55528 0.08978 0.0
C727 C 0.95037 0.68703 0.11702 0.0
H728 H 0.84699 0.61609 0.15113 0.0
C729 C 0.97729 0.65195 0.08222 0.0
C730 C 0.95688 0.60427 0.07082 0.0
H731 H 0.96621 0.72398 0.1229 0.0
H732 H 1.01174 0.66337 0.06053 0.0
C733 C 0.91123 0.59133 0.09869 0.0
C734 C 0.36322 0.89943 0.14466 0.0
C735 C 0.37444 0.88664 0.18255 0.0
H736 H 0.38678 0.93541 0.08695 0.0
C737 C 0.42052 0.90625 0.19116 0.0
H738 H 0.32853 0.88575 0.136 0.0
C739 C 0.45367 0.93552 0.16331 0.0
C740 C 0.44358 0.94728 0.12449 0.0
H741 H 0.43167 0.89839 0.21945 0.0
H742 H 0.48852 0.94833 0.17195 0.0
C743 C 0.39683 0.92881 0.11636 0.0
C744 C 0.63645 0.17712 0.18189 0.0
C745 C 0.6888 0.17937 0.16908 0.0
H746 H 0.567 0.14434 0.16617 0.0
C747 C 0.70902 0.14794 0.12591 0.0
H748 H 0.61824 0.20002 0.21442 0.0
C749 C 0.67929 0.11569 0.09817 0.0
C750 C 0.62711 0.11322 0.11068 0.0
H751 H 0.74851 0.14732 0.1137 0.0
H752 H 0.69766 0.09161 0.06651 0.0
C753 C 0.60652 0.14517 0.15351 0.0
C754 C 0.63675 0.67841 0.86553 0.0
C755 C 0.63977 0.64138 0.82449 0.0
H756 H 0.61227 0.69743 0.93993 0.0
C757 C 0.62562 0.59368 0.82794 0.0
H758 H 0.6514 0.71495 0.86469 0.0
C759 C 0.60797 0.58323 0.87144 0.0
C760 C 0.60215 0.62074 0.91188 0.0
H761 H 0.62939 0.56456 0.79692 0.0
H762 H 0.5964 0.54609 0.87329 0.0
C763 C 0.61662 0.66829 0.90886 0.0
C764 C 0.40495 0.66198 0.77237 0.0
C765 C 0.35667 0.67356 0.79656 0.0
H766 H 0.4711 0.63441 0.77342 0.0
C767 C 0.33783 0.66308 0.8407 0.0
H768 H 0.42106 0.66964 0.73839 0.0
C769 C 0.36681 0.64342 0.86082 0.0
C770 C 0.41555 0.63376 0.83744 0.0
H771 H 0.30099 0.67085 0.86029 0.0
H772 H 0.35104 0.63576 0.89481 0.0
C773 C 0.43388 0.64209 0.79247 0.0
C774 C 0.49646 0.42546 0.83075 0.0
C775 C 0.45361 0.42292 0.816 0.0
H776 H 0.53073 0.44664 0.8866 0.0
C777 C 0.41011 0.43841 0.8491 0.0
H778 H 0.52996 0.41264 0.80628 0.0
C779 C 0.41051 0.45876 0.89534 0.0
C780 C 0.45388 0.46216 0.90948 0.0
H781 H 0.3754 0.43395 0.84001 0.0
H782 H 0.37744 0.47287 0.91967 0.0
C783 C 0.49627 0.44354 0.87717 0.0
C784 C 0.73584 0.4393 0.88964 0.0
C785 C 0.71164 0.40204 0.86219 0.0
H786 H 0.72835 0.50018 0.94784 0.0
C787 C 0.66099 0.40287 0.86744 0.0
H788 H 0.77506 0.44017 0.88543 0.0
C789 C 0.63408 0.43689 0.90355 0.0
C790 C 0.65751 0.47125 0.93433 0.0
H791 H 0.64149 0.37475 0.84629 0.0
H792 H 0.59454 0.43245 0.91063 0.0
C793 C 0.70915 0.47422 0.92473 0.0
C794 C 0.67843 0.39204 0.23019 0.0
C795 C 0.72763 0.38192 0.20894 0.0
H796 H 0.6112 0.41004 0.22166 0.0
C797 C 0.74841 0.38994 0.164 0.0
H798 H 0.66091 0.38629 0.26468 0.0
C799 C 0.71968 0.4038 0.13953 0.0
C800 C 0.66966 0.41 0.15958 0.0
H801 H 0.78603 0.38292 0.14663 0.0
H802 H 0.73568 0.40648 0.10384 0.0
C803 C 0.64974 0.40548 0.2056 0.0
C804 C 0.60784 0.60649 0.20358 0.0
C805 C 0.6186 0.65554 0.2049 0.0
H806 H 0.58516 0.53822 0.16494 0.0
C807 C 0.60574 0.67577 0.17314 0.0
H808 H 0.61789 0.59067 0.22792 0.0
C809 C 0.58839 0.646 0.13625 0.0
C810 C 0.58348 0.59596 0.1315 0.0
H811 H 0.61384 0.71395 0.17435 0.0
H812 H 0.5825 0.66175 0.10982 0.0
C813 C 0.59017 0.5767 0.16703 0.0
C814 C 0.33433 0.64883 0.12803 0.0
C815 C 0.35322 0.67575 0.16545 0.0
H816 H 0.35048 0.6059 0.05849 0.0
C817 C 0.40285 0.67311 0.16431 0.0
H818 H 0.29621 0.64948 0.12831 0.0
C819 C 0.43419 0.64794 0.12405 0.0
C820 C 0.41582 0.6253 0.08508 0.0
H821 H 0.41829 0.69338 0.193 0.0
H822 H 0.47306 0.64962 0.12207 0.0
C823 C 0.36537 0.62375 0.08824 0.0
C824 C 0.45035 0.4858 0.19814 0.0
C825 C 0.4241 0.44158 0.20112 0.0
H826 H 0.48984 0.53015 0.15219 0.0
C827 C 0.4093 0.41161 0.162 0.0
H828 H 0.461 0.50947 0.22827 0.0
C829 C 0.42629 0.42251 0.11884 0.0
C830 C 0.45636 0.46446 0.11519 0.0
H831 H 0.38694 0.37822 0.16424 0.0
H832 H 0.41871 0.39694 0.08817 0.0
C833 C 0.4662 0.4975 0.15504 0.0
C834 C 0.9517 0.71659 0.64144 0.0
C835 C 0.9045 0.69801 0.66127 0.0
H836 H 1.01613 0.70429 0.58529 0.0
C837 C 0.89122 0.64855 0.64663 0.0
H838 H 0.96336 0.75431 0.65254 0.0
C839 C 0.92255 0.61942 0.60968 0.0
C840 C 0.96689 0.63966 0.58583 0.0
H841 H 0.85545 0.63289 0.66188 0.0
H842 H 0.90908 0.58277 0.59604 0.0
C843 C 0.9825 0.6877 0.60366 0.0
C844 C 0.4703 0.87454 0.6329 0.0
C845 C 0.45502 0.83539 0.60002 0.0
H846 H 0.50071 0.94767 0.64623 0.0
C847 C 0.45194 0.84206 0.55735 0.0
H848 H 0.47094 0.87048 0.66692 0.0
C849 C 0.46686 0.88668 0.5465 0.0
C850 C 0.48518 0.92479 0.57809 0.0
H851 H 0.43922 0.81246 0.53217 0.0
H852 H 0.46884 0.88984 0.51173 0.0
C853 C 0.4855 0.91896 0.62192 0.0
C854 C 0.24077 0.31812 0.61935 0.0
C855 C 0.26978 0.34438 0.64911 0.0
H856 H 0.18336 0.32044 0.58725 0.0
C857 C 0.26869 0.39475 0.66434 0.0
H858 H 0.24131 0.27929 0.60744 0.0
C859 C 0.23478 0.41792 0.65391 0.0
C860 C 0.20296 0.39092 0.62734 0.0
H861 H 0.29029 0.41537 0.68819 0.0
H862 H 0.2308 0.45595 0.6694 0.0
C863 C 0.20773 0.34146 0.60815 0.0
C864 C 0.61475 0.2051 0.609 0.0
C865 C 0.64287 0.2076 0.64044 0.0
H866 H 0.57924 0.1583 0.55916 0.0
C867 C 0.65408 0.16544 0.64926 0.0
H868 H 0.60546 0.23763 0.60281 0.0
C869 C 0.64016 0.12091 0.62447 0.0
C870 C 0.61304 0.11804 0.59203 0.0
H871 H 0.6747 0.16725 0.67478 0.0
H872 H 0.65104 0.08906 0.63047 0.0
C873 C 0.59962 0.16012 0.58477 0.0
C874 C 0.86171 0.39847 0.39406 0.0
C875 C 0.88081 0.37943 0.34575 0.0
H876 H 0.87354 0.44268 0.45962 0.0
C877 C 0.93211 0.39037 0.32926 0.0
H878 H 0.82296 0.39187 0.40926 0.0
C879 C 0.96193 0.41951 0.35911 0.0
C880 C 0.94246 0.43866 0.40744 0.0
H881 H 0.94933 0.37721 0.2927 0.0
H882 H 1.00011 0.42863 0.34373 0.0
C883 C 0.89138 0.42738 0.42365 0.0
C884 C 0.68032 0.88413 0.35497 0.0
C885 C 0.73049 0.89583 0.33635 0.0
H886 H 0.61558 0.9043 0.40876 0.0
C887 C 0.75082 0.94228 0.35356 0.0
H888 H 0.66304 0.84895 0.34226 0.0
C889 C 0.72335 0.97418 0.39157 0.0
C890 C 0.67466 0.96073 0.41285 0.0
H891 H 0.78874 0.95318 0.33949 0.0
H892 H 0.7415 1.00785 0.4068 0.0
C893 C 0.65264 0.91634 0.39261 0.0
C894 C 0.19091 0.66497 0.38205 0.0
C895 C 0.17722 0.68085 0.34708 0.0
H896 H 0.17129 0.62356 0.43557 0.0
C897 C 0.13086 0.66135 0.33916 0.0
H898 H 0.22607 0.67824 0.38986 0.0
C899 C 0.09961 0.62933 0.36517 0.0
C900 C 0.11222 0.61437 0.40112 0.0
H901 H 0.118 0.67143 0.31294 0.0
H902 H 0.06426 0.61691 0.35749 0.0
C903 C 0.15935 0.63268 0.40834 0.0
C904 C 0.38687 0.22988 0.3607 0.0
C905 C 0.33989 0.21896 0.3521 0.0
H906 H 0.44611 0.20369 0.37582 0.0
C907 C 0.31399 0.17493 0.35846 0.0
H908 H 0.40796 0.26336 0.35565 0.0
C909 C 0.33586 0.14095 0.3699 0.0
C910 C 0.38379 0.15069 0.3757 0.0
H911 H 0.27782 0.16579 0.35218 0.0
H912 H 0.31592 0.10647 0.373 0.0
C913 C 0.40876 0.19581 0.3722 0.0
C914 C 0.75805 0.89755 0.68467 0.0
C915 C 0.75347 0.84709 0.67219 0.0
H916 H 0.74206 0.96332 0.674 0.0
C917 C 0.72719 0.82356 0.6387 0.0
H918 H 0.77371 0.91643 0.71347 0.0
C919 C 0.70592 0.85058 0.61815 0.0
C920 C 0.71137 0.90125 0.63051 0.0
H921 H 0.72166 0.78455 0.62971 0.0
H922 H 0.68331 0.83198 0.59463 0.0
C923 C 0.73845 0.92431 0.66319 0.0
C924 C 0.60877 0.18312 0.36787 0.0
C925 C 0.62303 0.21949 0.40365 0.0
H926 H 0.58646 0.10866 0.34494 0.0
C927 C 0.63027 0.20712 0.44248 0.0
H928 H 0.60513 0.19137 0.33645 0.0
C929 C 0.62234 0.15926 0.44597 0.0
C930 C 0.60558 0.12354 0.41128 0.0
H931 H 0.64243 0.23443 0.46975 0.0
H932 H 0.62638 0.15082 0.47716 0.0
C933 C 0.59982 0.13562 0.3718 0.0
C934 C 0.87881 0.74887 0.36332 0.0
C935 C 0.85905 0.72687 0.32503 0.0
H936 H 0.90805 0.7371 0.41668 0.0
C937 C 0.86041 0.67715 0.30631 0.0
H938 H 0.87845 0.78747 0.37756 0.0
C939 C 0.87959 0.64914 0.32672 0.0
C940 C 0.89647 0.67009 0.36694 0.0
H941 H 0.84647 0.65991 0.27584 0.0
H942 H 0.87938 0.61054 0.3123 0.0
C943 C 0.89667 0.7203 0.3849 0.0
C944 C 0.40709 0.86188 0.4381 0.0
C945 C 0.42769 0.82956 0.39691 0.0
H946 H 0.41187 0.93413 0.47812 0.0
C947 C 0.47611 0.83846 0.37225 0.0
H948 H 0.3696 0.855 0.45704 0.0
C949 C 0.50054 0.88348 0.38414 0.0
C950 C 0.47582 0.91876 0.42028 0.0
H951 H 0.4918 0.81359 0.33999 0.0
H952 H 0.53622 0.89214 0.36261 0.0
C953 C 0.43036 0.9073 0.44886 0.0
C954 C 0.21673 0.42903 0.37645 0.0
C955 C 0.19633 0.38142 0.36343 0.0
H956 H 0.20777 0.49805 0.42411 0.0
C957 C 0.14625 0.3707 0.38215 0.0
H958 H 0.25489 0.43907 0.3618 0.0
C959 C 0.11874 0.40549 0.41704 0.0
C960 C 0.14111 0.4512 0.43389 0.0
H961 H 0.12926 0.33465 0.37229 0.0
H962 H 0.08186 0.39461 0.43471 0.0
C963 C 0.18939 0.46351 0.41125 0.0
C964 C 0.36588 0.12028 0.63611 0.0
C965 C 0.3871 0.16797 0.64449 0.0
H966 H 0.37194 0.04879 0.59229 0.0
C967 C 0.43584 0.1774 0.62013 0.0
H968 H 0.32875 0.11151 0.6547 0.0
C969 C 0.46093 0.14112 0.58519 0.0
C970 C 0.438 0.09455 0.57377 0.0
H971 H 0.45366 0.21358 0.62593 0.0
H972 H 0.49587 0.15111 0.56349 0.0
C973 C 0.39106 0.08401 0.60107 0.0
C974 C 0.86778 0.39619 0.64329 0.0
C975 C 0.87949 0.3848 0.68159 0.0
H976 H 0.8901 0.43192 0.58547 0.0
C977 C 0.92467 0.40652 0.69095 0.0
H978 H 0.8337 0.38075 0.63411 0.0
C979 C 0.95668 0.43656 0.66335 0.0
C980 C 0.94609 0.44706 0.62424 0.0
H981 H 0.93616 0.39956 0.71944 0.0
H982 H 0.99116 0.45081 0.67224 0.0
C983 C 0.9002 0.42645 0.61532 0.0
C984 C 0.14282 0.66099 0.68859 0.0
C985 C 0.19287 0.67459 0.6692 0.0
H986 H 0.07436 0.62012 0.67859 0.0
C987 C 0.20874 0.65664 0.62015 0.0
H988 H 0.12794 0.67292 0.7258 0.0
C989 C 0.17721 0.62667 0.59265 0.0
C990 C 0.12724 0.61305 0.6119 0.0
H991 H 0.24638 0.66513 0.60265 0.0
H992 H 0.19277 0.6127 0.55585 0.0
C993 C 0.11126 0.63083 0.66097 0.0
loop_
_geom_bond_atom_site_label_1
_geom_bond_atom_site_label_2
_geom_bond_distance
_geom_bond_site_symmetry_2
_ccdc_geom_bond_type
Zn0 O1 2.055 . S
Zn0 O8 2.046 . S
Zn0 N16 2.036 . S
Zn0 O28 2.053 . S
Zn0 O30 2.066 . S
O1 Zn0 2.055 . S
O1 C4 1.259 . S
C2 O30 1.256 . S
C2 O31 1.244 . S
Zn3 O5 2.046 . S
Zn3 O7 2.055 . S
Zn3 N9 2.036 . S
Zn3 O27 2.066 . S
Zn3 O31 2.053 . S
C4 O1 1.259 . S
C4 O5 1.254 . S
O5 Zn3 2.046 . S
O5 C4 1.254 . S
C6 O27 1.256 . S
C6 O28 1.244 . S
O7 Zn3 2.055 . S
O7 C29 1.259 . S
O8 Zn0 2.046 . S
O8 C29 1.254 . S
N9 Zn3 2.036 . S
N9 C10 1.298 . S
N9 N12 1.398 . S
C10 N9 1.298 . S
C10 N13 1.367 . S
C10 C23 1.481 . S
C11 N12 1.299 . S
C11 N13 1.379 . S
N12 N9 1.398 . S
N12 C11 1.299 . S
N13 C10 1.367 . S
N13 C11 1.379 . S
C14 N16 1.298 . S
C14 N18 1.367 . S
C14 C22 1.481 . S
C15 N17 1.299 . S
C15 N18 1.379 . S
N16 Zn0 2.036 . S
N16 C14 1.298 . S
N16 N17 1.398 . S
N17 C15 1.299 . S
N17 N16 1.398 . S
N18 C14 1.367 . S
N18 C15 1.379 . S
H19 C22 0.980 . S
H20 C22 0.981 . S
H21 C22 0.981 . S
C22 C14 1.481 . S
C22 H19 0.980 . S
C22 H20 0.981 . S
C22 H21 0.981 . S
C23 C10 1.481 . S
C23 H24 0.980 . S
C23 H25 0.981 . S
C23 H26 0.981 . S
H24 C23 0.980 . S
H25 C23 0.981 . S
H26 C23 0.981 . S
O27 Zn3 2.066 . S
O27 C6 1.256 . S
O28 Zn0 2.053 . S
O28 C6 1.244 . S
C29 O7 1.259 . S
C29 O8 1.254 . S
O30 Zn0 2.066 . S
O30 C2 1.256 . S
O31 C2 1.244 . S
O31 Zn3 2.053 . S
Zn32 O33 2.055 . S
Zn32 O40 2.046 . S
Zn32 N48 2.036 . S
Zn32 O60 2.053 . S
Zn32 O62 2.066 . S
O33 Zn32 2.055 . S
O33 C36 1.259 . S
C34 O62 1.256 . S
C34 O63 1.244 . S
Zn35 O37 2.046 . S
Zn35 O39 2.055 . S
Zn35 N41 2.036 . S
Zn35 O59 2.066 . S
Zn35 O63 2.053 . S
C36 O33 1.259 . S
C36 O37 1.254 . S
O37 Zn35 2.046 . S
O37 C36 1.254 . S
C38 O59 1.256 . S
C38 O60 1.244 . S
O39 Zn35 2.055 . S
O39 C61 1.259 . S
O40 Zn32 2.046 . S
O40 C61 1.254 . S
N41 Zn35 2.036 . S
N41 C42 1.298 . S
N41 N44 1.398 . S
C42 N41 1.298 . S
C42 N45 1.367 . S
C42 C55 1.481 . S
C43 N44 1.299 . S
C43 N45 1.379 . S
N44 N41 1.398 . S
N44 C43 1.299 . S
N45 C42 1.367 . S
N45 C43 1.379 . S
C46 N48 1.298 . S
C46 N50 1.367 . S
C46 C54 1.481 . S
C47 N49 1.299 . S
C47 N50 1.379 . S
N48 Zn32 2.036 . S
N48 C46 1.298 . S
N48 N49 1.398 . S
N49 C47 1.299 . S
N49 N48 1.398 . S
N50 C46 1.367 . S
N50 C47 1.379 . S
H51 C54 0.980 . S
H52 C54 0.981 . S
H53 C54 0.981 . S
C54 C46 1.481 . S
C54 H51 0.980 . S
C54 H52 0.981 . S
C54 H53 0.981 . S
C55 C42 1.481 . S
C55 H56 0.980 . S
C55 H57 0.981 . S
C55 H58 0.981 . S
H56 C55 0.980 . S
H57 C55 0.981 . S
H58 C55 0.981 . S
O59 Zn35 2.066 . S
O59 C38 1.256 . S
O60 Zn32 2.053 . S
O60 C38 1.244 . S
C61 O39 1.259 . S
C61 O40 1.254 . S
O62 Zn32 2.066 . S
O62 C34 1.256 . S
O63 C34 1.244 . S
O63 Zn35 2.053 . S
Zn64 O65 2.055 . S
Zn64 O72 2.046 . S
Zn64 N80 2.036 . S
Zn64 O92 2.053 . S
Zn64 O94 2.066 . S
O65 Zn64 2.055 . S
O65 C68 1.259 . S
C66 O94 1.256 . S
C66 O95 1.244 . S
Zn67 O69 2.046 . S
Zn67 O71 2.055 . S
Zn67 N73 2.036 . S
Zn67 O91 2.066 . S
Zn67 O95 2.053 . S
C68 O65 1.259 . S
C68 O69 1.254 . S
O69 Zn67 2.046 . S
O69 C68 1.254 . S
C70 O91 1.256 . S
C70 O92 1.244 . S
O71 Zn67 2.055 . S
O71 C93 1.259 . S
O72 Zn64 2.046 . S
O72 C93 1.254 . S
N73 Zn67 2.036 . S
N73 C74 1.298 . S
N73 N76 1.398 . S
C74 N73 1.298 . S
C74 N77 1.367 . S
C74 C87 1.481 . S
C75 N76 1.299 . S
C75 N77 1.379 . S
N76 N73 1.398 . S
N76 C75 1.299 . S
N77 C74 1.367 . S
N77 C75 1.379 . S
C78 N80 1.298 . S
C78 N82 1.367 . S
C78 C86 1.481 . S
C79 N81 1.299 . S
C79 N82 1.379 . S
N80 Zn64 2.036 . S
N80 C78 1.298 . S
N80 N81 1.398 . S
N81 C79 1.299 . S
N81 N80 1.398 . S
N82 C78 1.367 . S
N82 C79 1.379 . S
H83 C86 0.980 . S
H84 C86 0.981 . S
H85 C86 0.981 . S
C86 C78 1.481 . S
C86 H83 0.980 . S
C86 H84 0.981 . S
C86 H85 0.981 . S
C87 C74 1.481 . S
C87 H88 0.980 . S
C87 H89 0.981 . S
C87 H90 0.981 . S
H88 C87 0.980 . S
H89 C87 0.981 . S
H90 C87 0.981 . S
O91 Zn67 2.066 . S
O91 C70 1.256 . S
O92 Zn64 2.053 . S
O92 C70 1.244 . S
C93 O71 1.259 . S
C93 O72 1.254 . S
O94 Zn64 2.066 . S
O94 C66 1.256 . S
O95 C66 1.244 . S
O95 Zn67 2.053 . S
Zn96 O97 2.055 . S
Zn96 O104 2.046 . S
Zn96 N112 2.036 . S
Zn96 O124 2.053 . S
Zn96 O126 2.066 . S
O97 Zn96 2.055 . S
O97 C100 1.259 . S
C98 O126 1.256 . S
C98 O127 1.244 . S
Zn99 O101 2.046 . S
Zn99 O103 2.055 . S
Zn99 N105 2.036 . S
Zn99 O123 2.066 . S
Zn99 O127 2.053 . S
C100 O97 1.259 . S
C100 O101 1.254 . S
O101 Zn99 2.046 . S
O101 C100 1.254 . S
C102 O123 1.256 . S
C102 O124 1.244 . S
O103 Zn99 2.055 . S
O103 C125 1.259 . S
O104 Zn96 2.046 . S
O104 C125 1.254 . S
N105 Zn99 2.036 . S
N105 C106 1.298 . S
N105 N108 1.398 . S
C106 N105 1.298 . S
C106 N109 1.367 . S
C106 C119 1.481 . S
C107 N108 1.299 . S
C107 N109 1.379 . S
N108 N105 1.398 . S
N108 C107 1.299 . S
N109 C106 1.367 . S
N109 C107 1.379 . S
C110 N112 1.298 . S
C110 N114 1.367 . S
C110 C118 1.481 . S
C111 N113 1.299 . S
C111 N114 1.379 . S
N112 Zn96 2.036 . S
N112 C110 1.298 . S
N112 N113 1.398 . S
N113 C111 1.299 . S
N113 N112 1.398 . S
N114 C110 1.367 . S
N114 C111 1.379 . S
H115 C118 0.980 . S
H116 C118 0.981 . S
H117 C118 0.981 . S
C118 C110 1.481 . S
C118 H115 0.980 . S
C118 H116 0.981 . S
C118 H117 0.981 . S
C119 C106 1.481 . S
C119 H120 0.980 . S
C119 H121 0.981 . S
C119 H122 0.981 . S
H120 C119 0.980 . S
H121 C119 0.981 . S
H122 C119 0.981 . S
O123 Zn99 2.066 . S
O123 C102 1.256 . S
O124 Zn96 2.053 . S
O124 C102 1.244 . S
C125 O103 1.259 . S
C125 O104 1.254 . S
O126 Zn96 2.066 . S
O126 C98 1.256 . S
O127 C98 1.244 . S
O127 Zn99 2.053 . S
Zn128 O129 2.055 . S
Zn128 O136 2.046 . S
Zn128 N144 2.036 . S
Zn128 O156 2.053 . S
Zn128 O158 2.066 . S
O129 Zn128 2.055 . S
O129 C132 1.259 . S
C130 O158 1.256 . S
C130 O159 1.244 . S
Zn131 O133 2.046 . S
Zn131 O135 2.055 . S
Zn131 N137 2.036 . S
Zn131 O155 2.066 . S
Zn131 O159 2.053 . S
C132 O129 1.259 . S
C132 O133 1.254 . S
O133 Zn131 2.046 . S
O133 C132 1.254 . S
C134 O155 1.256 . S
C134 O156 1.244 . S
O135 Zn131 2.055 . S
O135 C157 1.259 . S
O136 Zn128 2.046 . S
O136 C157 1.254 . S
N137 Zn131 2.036 . S
N137 C138 1.298 . S
N137 N140 1.398 . S
C138 N137 1.298 . S
C138 N141 1.367 . S
C138 C151 1.481 . S
C139 N140 1.299 . S
C139 N141 1.379 . S
N140 N137 1.398 . S
N140 C139 1.299 . S
N141 C138 1.367 . S
N141 C139 1.379 . S
C142 N144 1.298 . S
C142 N146 1.367 . S
C142 C150 1.481 . S
C143 N145 1.299 . S
C143 N146 1.379 . S
N144 Zn128 2.036 . S
N144 C142 1.298 . S
N144 N145 1.398 . S
N145 C143 1.299 . S
N145 N144 1.398 . S
N146 C142 1.367 . S
N146 C143 1.379 . S
H147 C150 0.980 . S
H148 C150 0.981 . S
H149 C150 0.981 . S
C150 C142 1.481 . S
C150 H147 0.980 . S
C150 H148 0.981 . S
C150 H149 0.981 . S
C151 C138 1.481 . S
C151 H152 0.980 . S
C151 H153 0.981 . S
C151 H154 0.981 . S
H152 C151 0.980 . S
H153 C151 0.981 . S
H154 C151 0.981 . S
O155 Zn131 2.066 . S
O155 C134 1.256 . S
O156 Zn128 2.053 . S
O156 C134 1.244 . S
C157 O135 1.259 . S
C157 O136 1.254 . S
O158 Zn128 2.066 . S
O158 C130 1.256 . S
O159 C130 1.244 . S
O159 Zn131 2.053 . S
Zn160 O161 2.055 . S
Zn160 O168 2.046 . S
Zn160 N176 2.036 . S
Zn160 O188 2.053 . S
Zn160 O190 2.066 . S
O161 Zn160 2.055 . S
O161 C164 1.259 . S
C162 O190 1.256 . S
C162 O191 1.244 . S
Zn163 O165 2.046 . S
Zn163 O167 2.055 . S
Zn163 N169 2.036 . S
Zn163 O187 2.066 . S
Zn163 O191 2.053 . S
C164 O161 1.259 . S
C164 O165 1.254 . S
O165 Zn163 2.046 . S
O165 C164 1.254 . S
C166 O187 1.256 . S
C166 O188 1.244 . S
O167 Zn163 2.055 . S
O167 C189 1.259 . S
O168 Zn160 2.046 . S
O168 C189 1.254 . S
N169 Zn163 2.036 . S
N169 C170 1.298 . S
N169 N172 1.398 . S
C170 N169 1.298 . S
C170 N173 1.367 . S
C170 C183 1.481 . S
C171 N172 1.299 . S
C171 N173 1.379 . S
N172 N169 1.398 . S
N172 C171 1.299 . S
N173 C170 1.367 . S
N173 C171 1.379 . S
C174 N176 1.298 . S
C174 N178 1.367 . S
C174 C182 1.481 . S
C175 N177 1.299 . S
C175 N178 1.379 . S
N176 Zn160 2.036 . S
N176 C174 1.298 . S
N176 N177 1.398 . S
N177 C175 1.299 . S
N177 N176 1.398 . S
N178 C174 1.367 . S
N178 C175 1.379 . S
H179 C182 0.980 . S
H180 C182 0.981 . S
H181 C182 0.981 . S
C182 C174 1.481 . S
C182 H179 0.980 . S
C182 H180 0.981 . S
C182 H181 0.981 . S
C183 C170 1.481 . S
C183 H184 0.980 . S
C183 H185 0.981 . S
C183 H186 0.981 . S
H184 C183 0.980 . S
H185 C183 0.981 . S
H186 C183 0.981 . S
O187 Zn163 2.066 . S
O187 C166 1.256 . S
O188 Zn160 2.053 . S
O188 C166 1.244 . S
C189 O167 1.259 . S
C189 O168 1.254 . S
O190 Zn160 2.066 . S
O190 C162 1.256 . S
O191 C162 1.244 . S
O191 Zn163 2.053 . S
Zn192 O193 2.055 . S
Zn192 O200 2.046 . S
Zn192 N208 2.036 . S
Zn192 O220 2.053 . S
Zn192 O222 2.066 . S
O193 Zn192 2.055 . S
O193 C196 1.259 . S
C194 O222 1.256 . S
C194 O223 1.244 . S
Zn195 O197 2.046 . S
Zn195 O199 2.055 . S
Zn195 N201 2.036 . S
Zn195 O219 2.066 . S
Zn195 O223 2.053 . S
C196 O193 1.259 . S
C196 O197 1.254 . S
O197 Zn195 2.046 . S
O197 C196 1.254 . S
C198 O219 1.256 . S
C198 O220 1.244 . S
O199 Zn195 2.055 . S
O199 C221 1.259 . S
O200 Zn192 2.046 . S
O200 C221 1.254 . S
N201 Zn195 2.036 . S
N201 C202 1.298 . S
N201 N204 1.398 . S
C202 N201 1.298 . S
C202 N205 1.367 . S
C202 C215 1.481 . S
C203 N204 1.299 . S
C203 N205 1.379 . S
N204 N201 1.398 . S
N204 C203 1.299 . S
N205 C202 1.367 . S
N205 C203 1.379 . S
C206 N208 1.298 . S
C206 N210 1.367 . S
C206 C214 1.481 . S
C207 N209 1.299 . S
C207 N210 1.379 . S
N208 Zn192 2.036 . S
N208 C206 1.298 . S
N208 N209 1.398 . S
N209 C207 1.299 . S
N209 N208 1.398 . S
N210 C206 1.367 . S
N210 C207 1.379 . S
H211 C214 0.980 . S
H212 C214 0.981 . S
H213 C214 0.981 . S
C214 C206 1.481 . S
C214 H211 0.980 . S
C214 H212 0.981 . S
C214 H213 0.981 . S
C215 C202 1.481 . S
C215 H216 0.980 . S
C215 H217 0.981 . S
C215 H218 0.981 . S
H216 C215 0.980 . S
H217 C215 0.981 . S
H218 C215 0.981 . S
O219 Zn195 2.066 . S
O219 C198 1.256 . S
O220 Zn192 2.053 . S
O220 C198 1.244 . S
C221 O199 1.259 . S
C221 O200 1.254 . S
O222 Zn192 2.066 . S
O222 C194 1.256 . S
O223 C194 1.244 . S
O223 Zn195 2.053 . S
Zn224 O225 2.055 . S
Zn224 O232 2.046 . S
Zn224 N240 2.036 . S
Zn224 O252 2.053 . S
Zn224 O254 2.066 . S
O225 Zn224 2.055 . S
O225 C228 1.259 . S
C226 O254 1.256 . S
C226 O255 1.244 . S
Zn227 O229 2.046 . S
Zn227 O231 2.055 . S
Zn227 N233 2.036 . S
Zn227 O251 2.066 . S
Zn227 O255 2.053 . S
C228 O225 1.259 . S
C228 O229 1.254 . S
O229 Zn227 2.046 . S
O229 C228 1.254 . S
C230 O251 1.256 . S
C230 O252 1.244 . S
O231 Zn227 2.055 . S
O231 C253 1.259 . S
O232 Zn224 2.046 . S
O232 C253 1.254 . S
N233 Zn227 2.036 . S
N233 C234 1.298 . S
N233 N236 1.398 . S
C234 N233 1.298 . S
C234 N237 1.367 . S
C234 C247 1.481 . S
C235 N236 1.299 . S
C235 N237 1.379 . S
N236 N233 1.398 . S
N236 C235 1.299 . S
N237 C234 1.367 . S
N237 C235 1.379 . S
C238 N240 1.298 . S
C238 N242 1.367 . S
C238 C246 1.481 . S
C239 N241 1.299 . S
C239 N242 1.379 . S
N240 Zn224 2.036 . S
N240 C238 1.298 . S
N240 N241 1.398 . S
N241 C239 1.299 . S
N241 N240 1.398 . S
N242 C238 1.367 . S
N242 C239 1.379 . S
H243 C246 0.980 . S
H244 C246 0.981 . S
H245 C246 0.981 . S
C246 C238 1.481 . S
C246 H243 0.980 . S
C246 H244 0.981 . S
C246 H245 0.981 . S
C247 C234 1.481 . S
C247 H248 0.980 . S
C247 H249 0.981 . S
C247 H250 0.981 . S
H248 C247 0.980 . S
H249 C247 0.981 . S
H250 C247 0.981 . S
O251 Zn227 2.066 . S
O251 C230 1.256 . S
O252 Zn224 2.053 . S
O252 C230 1.244 . S
C253 O231 1.259 . S
C253 O232 1.254 . S
O254 Zn224 2.066 . S
O254 C226 1.256 . S
O255 C226 1.244 . S
O255 Zn227 2.053 . S
Co256 N257 2.034 . S
Co256 O271 2.262 . S
Co256 O275 1.958 1_455 S
Co256 O279 1.950 1_565 S
Co256 O280 2.057 . S
N257 Co256 2.034 . S
N257 C258 1.366 . S
N257 C260 1.332 . S
C258 N257 1.366 . S
C258 C261 1.377 . S
C258 H290 0.931 . S
N259 C260 1.346 . S
N259 C261 1.337 . S
C260 N257 1.332 . S
C260 N259 1.346 . S
C260 C294 1.361 . S
C261 C258 1.377 . S
C261 N259 1.337 . S
C261 H297 0.930 . S
Co262 N263 2.034 . S
Co262 O276 1.950 1_655 S
Co262 O277 2.262 . S
Co262 O278 1.958 1_545 S
Co262 O282 2.057 . S
N263 Co262 2.034 . S
N263 C266 1.366 . S
N263 C267 1.332 . S
N264 C265 1.337 . S
N264 C267 1.346 . S
C265 N264 1.337 . S
C265 C266 1.377 . S
C265 H298 0.930 . S
C266 N263 1.366 . S
C266 C265 1.377 . S
C266 H270 0.931 . S
C267 N263 1.332 . S
C267 N264 1.346 . S
C267 C284 1.361 . S
Co268 O271 2.101 . S
Co268 O272 2.062 1_565 S
Co268 O273 2.064 1_565 S
Co268 O274 2.045 1_455 S
Co268 O277 2.093 1_465 S
Co268 O281 2.043 1_455 S
C269 O277 1.253 . S
C269 O282 1.263 . S
H270 C266 0.931 . S
O271 Co256 2.262 . S
O271 Co268 2.101 . S
O271 C295 1.253 . S
O272 Co268 2.062 1_545 S
O272 C288 1.221 . S
O273 Co268 2.064 1_545 S
O273 C283 1.221 . S
O274 Co268 2.045 1_655 S
O274 C289 1.237 . S
O275 Co256 1.958 1_655 S
O275 C289 1.278 . S
O276 Co262 1.950 1_455 S
O276 C288 1.277 . S
O277 Co262 2.262 . S
O277 Co268 2.093 1_645 S
O277 C269 1.253 . S
O278 Co262 1.958 1_565 S
O278 C296 1.278 . S
O279 Co256 1.950 1_545 S
O279 C283 1.277 . S
O280 Co256 2.057 . S
O280 C295 1.263 . S
O281 Co268 2.043 1_655 S
O281 C296 1.237 . S
O282 Co262 2.057 . S
O282 C269 1.263 . S
C283 O273 1.221 . S
C283 O279 1.277 . S
C284 C267 1.361 . S
C284 H285 0.960 . S
C284 H286 0.961 . S
C284 H287 0.961 . S
H285 C284 0.960 . S
H286 C284 0.961 . S
H287 C284 0.961 . S
C288 O272 1.221 . S
C288 O276 1.277 . S
C289 O274 1.237 . S
C289 O275 1.278 . S
H290 C258 0.931 . S
H291 C294 0.961 . S
H292 C294 0.961 . S
H293 C294 0.960 . S
C294 C260 1.361 . S
C294 H291 0.961 . S
C294 H292 0.961 . S
C294 H293 0.960 . S
C295 O271 1.253 . S
C295 O280 1.263 . S
C296 O278 1.278 . S
C296 O281 1.237 . S
H297 C261 0.930 . S
H298 C265 0.930 . S
Co299 N300 2.034 . S
Co299 O314 2.262 1_554 S
Co299 O318 1.958 . S
Co299 O322 1.950 1_565 S
Co299 O323 2.057 1_554 S
N300 Co299 2.034 . S
N300 C301 1.366 . S
N300 C303 1.332 . S
C301 N300 1.366 . S
C301 C304 1.377 . S
C301 H333 0.931 . S
N302 C303 1.346 . S
N302 C304 1.337 . S
C303 N300 1.332 . S
C303 N302 1.346 . S
C303 C337 1.361 . S
C304 C301 1.377 . S
C304 N302 1.337 . S
C304 H340 0.930 . S
Co305 N306 2.034 . S
Co305 O319 1.950 . S
Co305 O320 2.262 1_556 S
Co305 O321 1.958 1_545 S
Co305 O325 2.057 1_556 S
N306 Co305 2.034 . S
N306 C309 1.366 . S
N306 C310 1.332 . S
N307 C308 1.337 . S
N307 C310 1.346 . S
C308 N307 1.337 . S
C308 C309 1.377 . S
C308 H341 0.930 . S
C309 N306 1.366 . S
C309 C308 1.377 . S
C309 H313 0.931 . S
C310 N306 1.332 . S
C310 N307 1.346 . S
C310 C327 1.361 . S
Co311 O314 2.116 1_554 S
Co311 O315 2.050 1_564 S
Co311 O316 2.056 1_565 S
Co311 O317 2.057 . S
Co311 O320 2.078 1_565 S
Co311 O324 2.051 1_554 S
C312 O320 1.253 . S
C312 O325 1.263 . S
H313 C309 0.931 . S
O314 Co299 2.262 1_556 S
O314 Co311 2.116 1_556 S
O314 C338 1.253 . S
O315 Co311 2.050 1_546 S
O315 C331 1.221 . S
O316 Co311 2.056 1_545 S
O316 C326 1.221 . S
O317 Co311 2.057 . S
O317 C332 1.237 . S
O318 Co299 1.958 . S
O318 C332 1.278 . S
O319 Co305 1.950 . S
O319 C331 1.277 . S
O320 Co305 2.262 1_554 S
O320 Co311 2.078 1_545 S
O320 C312 1.253 . S
O321 Co305 1.958 1_565 S
O321 C339 1.278 . S
O322 Co299 1.950 1_545 S
O322 C326 1.277 . S
O323 Co299 2.057 1_556 S
O323 C338 1.263 . S
O324 Co311 2.051 1_556 S
O324 C339 1.237 . S
O325 Co305 2.057 1_554 S
O325 C312 1.263 . S
C326 O316 1.221 . S
C326 O322 1.277 . S
C327 C310 1.361 . S
C327 H328 0.960 . S
C327 H329 0.961 . S
C327 H330 0.961 . S
H328 C327 0.960 . S
H329 C327 0.961 . S
H330 C327 0.961 . S
C331 O315 1.221 . S
C331 O319 1.277 . S
C332 O317 1.237 . S
C332 O318 1.278 . S
H333 C301 0.931 . S
H334 C337 0.961 . S
H335 C337 0.961 . S
H336 C337 0.960 . S
C337 C303 1.361 . S
C337 H334 0.961 . S
C337 H335 0.961 . S
C337 H336 0.960 . S
C338 O314 1.253 . S
C338 O323 1.263 . S
C339 O321 1.278 . S
C339 O324 1.237 . S
H340 C304 0.930 . S
H341 C308 0.930 . S
Co342 N343 2.034 . S
Co342 O357 2.262 1_554 S
Co342 O361 1.958 1_455 S
Co342 O365 1.950 . S
Co342 O366 2.057 1_554 S
N343 Co342 2.034 . S
N343 C344 1.366 . S
N343 C346 1.332 . S
C344 N343 1.366 . S
C344 C347 1.377 . S
C344 H376 0.931 . S
N345 C346 1.346 . S
N345 C347 1.337 . S
C346 N343 1.332 . S
C346 N345 1.346 . S
C346 C380 1.361 . S
C347 C344 1.377 . S
C347 N345 1.337 . S
C347 H383 0.930 . S
Co348 N349 2.034 . S
Co348 O362 1.950 1_655 S
Co348 O363 2.262 1_556 S
Co348 O364 1.958 . S
Co348 O368 2.057 1_556 S
N349 Co348 2.034 . S
N349 C352 1.366 . S
N349 C353 1.332 . S
N350 C351 1.337 . S
N350 C353 1.346 . S
C351 N350 1.337 . S
C351 C352 1.377 . S
C351 H384 0.930 . S
C352 N349 1.366 . S
C352 C351 1.377 . S
C352 H356 0.931 . S
C353 N349 1.332 . S
C353 N350 1.346 . S
C353 C370 1.361 . S
Co354 O357 2.090 1_654 S
Co354 O358 2.062 1_654 S
Co354 O359 2.060 1_655 S
Co354 O360 2.045 . S
Co354 O363 2.104 . S
Co354 O367 2.047 1_554 S
C355 O363 1.253 . S
C355 O368 1.263 . S
H356 C352 0.931 . S
O357 Co342 2.262 1_556 S
O357 Co354 2.090 1_456 S
O357 C381 1.253 . S
O358 Co354 2.062 1_456 S
O358 C374 1.221 . S
O359 Co354 2.060 1_455 S
O359 C369 1.221 . S
O360 Co354 2.045 . S
O360 C375 1.237 . S
O361 Co342 1.958 1_655 S
O361 C375 1.278 . S
O362 Co348 1.950 1_455 S
O362 C374 1.277 . S
O363 Co348 2.262 1_554 S
O363 Co354 2.104 . S
O363 C355 1.253 . S
O364 Co348 1.958 . S
O364 C382 1.278 . S
O365 Co342 1.950 . S
O365 C369 1.277 . S
O366 Co342 2.057 1_556 S
O366 C381 1.263 . S
O367 Co354 2.047 1_556 S
O367 C382 1.237 . S
O368 Co348 2.057 1_554 S
O368 C355 1.263 . S
C369 O359 1.221 . S
C369 O365 1.277 . S
C370 C353 1.361 . S
C370 H371 0.960 . S
C370 H372 0.961 . S
C370 H373 0.961 . S
H371 C370 0.960 . S
H372 C370 0.961 . S
H373 C370 0.961 . S
C374 O358 1.221 . S
C374 O362 1.277 . S
C375 O360 1.237 . S
C375 O361 1.278 . S
H376 C344 0.931 . S
H377 C380 0.961 . S
H378 C380 0.961 . S
H379 C380 0.960 . S
C380 C346 1.361 . S
C380 H377 0.961 . S
C380 H378 0.961 . S
C380 H379 0.960 . S
C381 O357 1.253 . S
C381 O366 1.263 . S
C382 O364 1.278 . S
C382 O367 1.237 . S
H383 C347 0.930 . S
H384 C351 0.930 . S
Co385 N386 2.034 . S
Co385 O400 2.262 1_554 S
Co385 O404 1.958 . S
Co385 O408 1.950 . S
Co385 O409 2.057 1_554 S
N386 Co385 2.034 . S
N386 C387 1.366 . S
N386 C389 1.332 . S
C387 N386 1.366 . S
C387 C390 1.377 . S
C387 H419 0.931 . S
N388 C389 1.346 . S
N388 C390 1.337 . S
C389 N386 1.332 . S
C389 N388 1.346 . S
C389 C423 1.361 . S
C390 C387 1.377 . S
C390 N388 1.337 . S
C390 H426 0.930 . S
Co391 N392 2.034 . S
Co391 O405 1.950 . S
Co391 O406 2.262 1_556 S
Co391 O407 1.958 . S
Co391 O411 2.057 1_556 S
N392 Co391 2.034 . S
N392 C395 1.366 . S
N392 C396 1.332 . S
N393 C394 1.337 . S
N393 C396 1.346 . S
C394 N393 1.337 . S
C394 C395 1.377 . S
C394 H427 0.930 . S
C395 N392 1.366 . S
C395 C394 1.377 . S
C395 H399 0.931 . S
C396 N392 1.332 . S
C396 N393 1.346 . S
C396 C413 1.361 . S
Co397 O400 2.097 1_554 S
Co397 O401 2.065 1_554 S
Co397 O402 2.065 . S
Co397 O403 2.042 . S
Co397 O406 2.097 . S
Co397 O410 2.042 1_554 S
C398 O406 1.253 . S
C398 O411 1.263 . S
H399 C395 0.931 . S
O400 Co385 2.262 1_556 S
O400 Co397 2.097 1_556 S
O400 C424 1.253 . S
O401 Co397 2.065 1_556 S
O401 C417 1.221 . S
O402 Co397 2.065 . S
O402 C412 1.221 . S
O403 Co397 2.042 . S
O403 C418 1.237 . S
O404 Co385 1.958 . S
O404 C418 1.278 . S
O405 Co391 1.950 . S
O405 C417 1.277 . S
O406 Co391 2.262 1_554 S
O406 Co397 2.097 . S
O406 C398 1.253 . S
O407 Co391 1.958 . S
O407 C425 1.278 . S
O408 Co385 1.950 . S
O408 C412 1.277 . S
O409 Co385 2.057 1_556 S
O409 C424 1.263 . S
O410 Co397 2.042 1_556 S
O410 C425 1.237 . S
O411 Co391 2.057 1_554 S
O411 C398 1.263 . S
C412 O402 1.221 . S
C412 O408 1.277 . S
C413 C396 1.361 . S
C413 H414 0.960 . S
C413 H415 0.961 . S
C413 H416 0.961 . S
H414 C413 0.960 . S
H415 C413 0.961 . S
H416 C413 0.961 . S
C417 O401 1.221 . S
C417 O405 1.277 . S
C418 O403 1.237 . S
C418 O404 1.278 . S
H419 C387 0.931 . S
H420 C423 0.961 . S
H421 C423 0.961 . S
H422 C423 0.960 . S
C423 C389 1.361 . S
C423 H420 0.961 . S
C423 H421 0.961 . S
C423 H422 0.960 . S
C424 O400 1.253 . S
C424 O409 1.263 . S
C425 O407 1.278 . S
C425 O410 1.237 . S
H426 C390 0.930 . S
H427 C394 0.930 . S
Co428 N429 2.034 . S
Co428 O443 2.262 . S
Co428 O447 1.958 1_455 S
Co428 O451 1.950 . S
Co428 O452 2.057 . S
N429 Co428 2.034 . S
N429 C430 1.366 . S
N429 C432 1.332 . S
C430 N429 1.366 . S
C430 C433 1.377 . S
C430 H462 0.931 . S
N431 C432 1.346 . S
N431 C433 1.337 . S
C432 N429 1.332 . S
C432 N431 1.346 . S
C432 C466 1.361 . S
C433 C430 1.377 . S
C433 N431 1.337 . S
C433 H469 0.930 . S
Co434 N435 2.034 . S
Co434 O448 1.950 1_655 S
Co434 O449 2.262 . S
Co434 O450 1.958 . S
Co434 O454 2.057 . S
N435 Co434 2.034 . S
N435 C438 1.366 . S
N435 C439 1.332 . S
N436 C437 1.337 . S
N436 C439 1.346 . S
C437 N436 1.337 . S
C437 C438 1.377 . S
C437 H470 0.930 . S
C438 N435 1.366 . S
C438 C437 1.377 . S
C438 H442 0.931 . S
C439 N435 1.332 . S
C439 N436 1.346 . S
C439 C456 1.361 . S
Co440 O443 2.097 1_655 S
Co440 O444 2.065 1_655 S
Co440 O445 2.065 1_655 S
Co440 O446 2.042 . S
Co440 O449 2.097 . S
Co440 O453 2.042 . S
C441 O449 1.253 . S
C441 O454 1.263 . S
H442 C438 0.931 . S
O443 Co428 2.262 . S
O443 Co440 2.097 1_455 S
O443 C467 1.253 . S
O444 Co440 2.065 1_455 S
O444 C460 1.221 . S
O445 Co440 2.065 1_455 S
O445 C455 1.221 . S
O446 Co440 2.042 . S
O446 C461 1.237 . S
O447 Co428 1.958 1_655 S
O447 C461 1.278 . S
O448 Co434 1.950 1_455 S
O448 C460 1.277 . S
O449 Co434 2.262 . S
O449 Co440 2.097 . S
O449 C441 1.253 . S
O450 Co434 1.958 . S
O450 C468 1.278 . S
O451 Co428 1.950 . S
O451 C455 1.277 . S
O452 Co428 2.057 . S
O452 C467 1.263 . S
O453 Co440 2.042 . S
O453 C468 1.237 . S
O454 Co434 2.057 . S
O454 C441 1.263 . S
C455 O445 1.221 . S
C455 O451 1.277 . S
C456 C439 1.361 . S
C456 H457 0.960 . S
C456 H458 0.961 . S
C456 H459 0.961 . S
H457 C456 0.960 . S
H458 C456 0.961 . S
H459 C456 0.961 . S
C460 O444 1.221 . S
C460 O448 1.277 . S
C461 O446 1.237 . S
C461 O447 1.278 . S
H462 C430 0.931 . S
H463 C466 0.961 . S
H464 C466 0.961 . S
H465 C466 0.960 . S
C466 C432 1.361 . S
C466 H463 0.961 . S
C466 H464 0.961 . S
C466 H465 0.960 . S
C467 O443 1.253 . S
C467 O452 1.263 . S
C468 O450 1.278 . S
C468 O453 1.237 . S
H469 C433 0.930 . S
H470 C437 0.930 . S
Co471 N472 2.034 . S
Co471 O486 2.262 . S
Co471 O490 1.958 . S
Co471 O494 1.950 1_565 S
Co471 O495 2.057 . S
N472 Co471 2.034 . S
N472 C473 1.366 . S
N472 C475 1.332 . S
C473 N472 1.366 . S
C473 C476 1.377 . S
C473 H505 0.931 . S
N474 C475 1.346 . S
N474 C476 1.337 . S
C475 N472 1.332 . S
C475 N474 1.346 . S
C475 C509 1.361 . S
C476 C473 1.377 . S
C476 N474 1.337 . S
C476 H512 0.930 . S
Co477 N478 2.034 . S
Co477 O491 1.950 . S
Co477 O492 2.262 . S
Co477 O493 1.958 1_545 S
Co477 O497 2.057 . S
N478 Co477 2.034 . S
N478 C481 1.366 . S
N478 C482 1.332 . S
N479 C480 1.337 . S
N479 C482 1.346 . S
C480 N479 1.337 . S
C480 C481 1.377 . S
C480 H513 0.930 . S
C481 N478 1.366 . S
C481 C480 1.377 . S
C481 H485 0.931 . S
C482 N478 1.332 . S
C482 N479 1.346 . S
C482 C499 1.361 . S
Co483 O486 2.113 . S
Co483 O487 2.052 1_565 S
Co483 O488 2.058 1_565 S
Co483 O489 2.055 . S
Co483 O492 2.081 1_565 S
Co483 O496 2.049 . S
C484 O492 1.253 . S
C484 O497 1.263 . S
H485 C481 0.931 . S
O486 Co471 2.262 . S
O486 Co483 2.113 . S
O486 C510 1.253 . S
O487 Co483 2.052 1_545 S
O487 C503 1.221 . S
O488 Co483 2.058 1_545 S
O488 C498 1.221 . S
O489 Co483 2.055 . S
O489 C504 1.237 . S
O490 Co471 1.958 . S
O490 C504 1.278 . S
O491 Co477 1.950 . S
O491 C503 1.277 . S
O492 Co477 2.262 . S
O492 Co483 2.081 1_545 S
O492 C484 1.253 . S
O493 Co477 1.958 1_565 S
O493 C511 1.278 . S
O494 Co471 1.950 1_545 S
O494 C498 1.277 . S
O495 Co471 2.057 . S
O495 C510 1.263 . S
O496 Co483 2.049 . S
O496 C511 1.237 . S
O497 Co477 2.057 . S
O497 C484 1.263 . S
C498 O488 1.221 . S
C498 O494 1.277 . S
C499 C482 1.361 . S
C499 H500 0.960 . S
C499 H501 0.961 . S
C499 H502 0.961 . S
H500 C499 0.960 . S
H501 C499 0.961 . S
H502 C499 0.961 . S
C503 O487 1.221 . S
C503 O491 1.277 . S
C504 O489 1.237 . S
C504 O490 1.278 . S
H505 C473 0.931 . S
H506 C509 0.961 . S
H507 C509 0.961 . S
H508 C509 0.960 . S
C509 C475 1.361 . S
C509 H506 0.961 . S
C509 H507 0.961 . S
C509 H508 0.960 . S
C510 O486 1.253 . S
C510 O495 1.263 . S
C511 O493 1.278 . S
C511 O496 1.237 . S
H512 C476 0.930 . S
H513 C480 0.930 . S
C514 C515 1.387 . S
C514 H518 0.950 . S
C514 C523 1.390 . S
C515 C514 1.387 . S
C515 C517 1.387 . S
H516 C523 0.950 . S
C517 C515 1.387 . S
C517 C519 1.390 . S
C517 H521 0.950 . S
H518 C514 0.950 . S
C519 C517 1.390 . S
C519 C520 1.387 . S
C519 H522 0.950 . S
C520 C519 1.387 . S
C520 C523 1.387 . S
H521 C517 0.950 . S
H522 C519 0.950 . S
C523 C514 1.390 . S
C523 H516 0.950 . S
C523 C520 1.387 . S
C524 C525 1.387 . S
C524 H528 0.950 . S
C524 C533 1.390 . S
C525 C524 1.387 . S
C525 C527 1.387 . S
H526 C533 0.950 . S
C527 C525 1.387 . S
C527 C529 1.390 . S
C527 H531 0.950 . S
H528 C524 0.950 . S
C529 C527 1.390 . S
C529 C530 1.387 . S
C529 H532 0.950 . S
C530 C529 1.387 . S
C530 C533 1.387 . S
H531 C527 0.950 . S
H532 C529 0.950 . S
C533 C524 1.390 . S
C533 H526 0.950 . S
C533 C530 1.387 . S
C534 C535 1.387 . S
C534 H538 0.950 . S
C534 C543 1.390 . S
C535 C534 1.387 . S
C535 C537 1.387 . S
H536 C543 0.950 . S
C537 C535 1.387 . S
C537 C539 1.390 . S
C537 H541 0.950 . S
H538 C534 0.950 . S
C539 C537 1.390 . S
C539 C540 1.387 . S
C539 H542 0.950 . S
C540 C539 1.387 . S
C540 C543 1.387 . S
H541 C537 0.950 . S
H542 C539 0.950 . S
C543 C534 1.390 . S
C543 H536 0.950 . S
C543 C540 1.387 . S
C544 C545 1.387 . S
C544 H548 0.950 . S
C544 C553 1.390 . S
C545 C544 1.387 . S
C545 C547 1.387 . S
H546 C553 0.950 . S
C547 C545 1.387 . S
C547 C549 1.390 . S
C547 H551 0.950 . S
H548 C544 0.950 . S
C549 C547 1.390 . S
C549 C550 1.387 . S
C549 H552 0.950 . S
C550 C549 1.387 . S
C550 C553 1.387 . S
H551 C547 0.950 . S
H552 C549 0.950 . S
C553 C544 1.390 . S
C553 H546 0.950 . S
C553 C550 1.387 . S
C554 C555 1.387 . S
C554 H558 0.950 . S
C554 C563 1.390 . S
C555 C554 1.387 . S
C555 C557 1.387 . S
H556 C563 0.950 . S
C557 C555 1.387 . S
C557 C559 1.390 . S
C557 H561 0.950 . S
H558 C554 0.950 . S
C559 C557 1.390 . S
C559 C560 1.387 . S
C559 H562 0.950 . S
C560 C559 1.387 . S
C560 C563 1.387 . S
H561 C557 0.950 . S
H562 C559 0.950 . S
C563 C554 1.390 . S
C563 H556 0.950 . S
C563 C560 1.387 . S
C564 C565 1.387 . S
C564 H568 0.950 . S
C564 C573 1.390 . S
C565 C564 1.387 . S
C565 C567 1.387 . S
H566 C573 0.950 1_565 S
C567 C565 1.387 . S
C567 C569 1.390 . S
C567 H571 0.950 . S
H568 C564 0.950 . S
C569 C567 1.390 . S
C569 C570 1.387 . S
C569 H572 0.950 . S
C570 C569 1.387 . S
C570 C573 1.387 . S
H571 C567 0.950 . S
H572 C569 0.950 . S
C573 C564 1.390 . S
C573 H566 0.950 1_545 S
C573 C570 1.387 . S
C574 C575 1.387 . S
C574 H578 0.950 . S
C574 C583 1.390 . S
C575 C574 1.387 . S
C575 C577 1.387 . S
H576 C583 0.950 . S
C577 C575 1.387 . S
C577 C579 1.390 . S
C577 H581 0.950 . S
H578 C574 0.950 . S
C579 C577 1.390 . S
C579 C580 1.387 . S
C579 H582 0.950 . S
C580 C579 1.387 . S
C580 C583 1.387 . S
H581 C577 0.950 . S
H582 C579 0.950 . S
C583 C574 1.390 . S
C583 H576 0.950 . S
C583 C580 1.387 . S
C584 C585 1.387 . S
C584 H588 0.950 . S
C584 C593 1.390 . S
C585 C584 1.387 . S
C585 C587 1.387 . S
H586 C593 0.950 . S
C587 C585 1.387 . S
C587 C589 1.390 . S
C587 H591 0.950 . S
H588 C584 0.950 . S
C589 C587 1.390 . S
C589 C590 1.387 . S
C589 H592 0.950 . S
C590 C589 1.387 . S
C590 C593 1.387 . S
H591 C587 0.950 . S
H592 C589 0.950 . S
C593 C584 1.390 . S
C593 H586 0.950 . S
C593 C590 1.387 . S
C594 C595 1.387 . S
C594 H598 0.950 . S
C594 C603 1.390 . S
C595 C594 1.387 . S
C595 C597 1.387 . S
H596 C603 0.950 . S
C597 C595 1.387 . S
C597 C599 1.390 . S
C597 H601 0.950 . S
H598 C594 0.950 . S
C599 C597 1.390 . S
C599 C600 1.387 . S
C599 H602 0.950 . S
C600 C599 1.387 . S
C600 C603 1.387 . S
H601 C597 0.950 . S
H602 C599 0.950 . S
C603 C594 1.390 . S
C603 H596 0.950 . S
C603 C600 1.387 . S
C604 C605 1.387 . S
C604 H608 0.950 . S
C604 C613 1.390 . S
C605 C604 1.387 . S
C605 C607 1.387 . S
H606 C613 0.950 . S
C607 C605 1.387 . S
C607 C609 1.390 . S
C607 H611 0.950 . S
H608 C604 0.950 . S
C609 C607 1.390 . S
C609 C610 1.387 . S
C609 H612 0.950 . S
C610 C609 1.387 . S
C610 C613 1.387 . S
H611 C607 0.950 . S
H612 C609 0.950 . S
C613 C604 1.390 . S
C613 H606 0.950 . S
C613 C610 1.387 . S
C614 C615 1.387 . S
C614 H618 0.950 . S
C614 C623 1.390 . S
C615 C614 1.387 . S
C615 C617 1.387 . S
H616 C623 0.950 . S
C617 C615 1.387 . S
C617 C619 1.390 . S
C617 H621 0.950 . S
H618 C614 0.950 . S
C619 C617 1.390 . S
C619 C620 1.387 . S
C619 H622 0.950 . S
C620 C619 1.387 . S
C620 C623 1.387 . S
H621 C617 0.950 . S
H622 C619 0.950 . S
C623 C614 1.390 . S
C623 H616 0.950 . S
C623 C620 1.387 . S
C624 C625 1.387 . S
C624 H628 0.950 . S
C624 C633 1.390 . S
C625 C624 1.387 . S
C625 C627 1.387 . S
H626 C633 0.950 . S
C627 C625 1.387 . S
C627 C629 1.390 . S
C627 H631 0.950 . S
H628 C624 0.950 . S
C629 C627 1.390 . S
C629 C630 1.387 . S
C629 H632 0.950 . S
C630 C629 1.387 . S
C630 C633 1.387 . S
H631 C627 0.950 . S
H632 C629 0.950 . S
C633 C624 1.390 . S
C633 H626 0.950 . S
C633 C630 1.387 . S
C634 C635 1.387 . S
C634 H638 0.950 . S
C634 C643 1.390 . S
C635 C634 1.387 . S
C635 C637 1.387 . S
H636 C643 0.950 . S
C637 C635 1.387 . S
C637 C639 1.390 . S
C637 H641 0.950 . S
H638 C634 0.950 . S
C639 C637 1.390 . S
C639 C640 1.387 . S
C639 H642 0.950 . S
C640 C639 1.387 . S
C640 C643 1.387 . S
H641 C637 0.950 . S
H642 C639 0.950 . S
C643 C634 1.390 . S
C643 H636 0.950 . S
C643 C640 1.387 . S
C644 C645 1.387 . S
C644 H648 0.950 . S
C644 C653 1.390 . S
C645 C644 1.387 . S
C645 C647 1.387 . S
H646 C653 0.950 . S
C647 C645 1.387 . S
C647 C649 1.390 . S
C647 H651 0.950 . S
H648 C644 0.950 . S
C649 C647 1.390 . S
C649 C650 1.387 . S
C649 H652 0.950 . S
C650 C649 1.387 . S
C650 C653 1.387 . S
H651 C647 0.950 . S
H652 C649 0.950 . S
C653 C644 1.390 . S
C653 H646 0.950 . S
C653 C650 1.387 . S
C654 C655 1.387 . S
C654 H658 0.950 . S
C654 C663 1.390 . S
C655 C654 1.387 . S
C655 C657 1.387 . S
H656 C663 0.950 . S
C657 C655 1.387 . S
C657 C659 1.390 . S
C657 H661 0.950 . S
H658 C654 0.950 . S
C659 C657 1.390 . S
C659 C660 1.387 . S
C659 H662 0.950 . S
C660 C659 1.387 . S
C660 C663 1.387 . S
H661 C657 0.950 . S
H662 C659 0.950 . S
C663 C654 1.390 . S
C663 H656 0.950 . S
C663 C660 1.387 . S
C664 C665 1.387 . S
C664 H668 0.950 . S
C664 C673 1.390 . S
C665 C664 1.387 . S
C665 C667 1.387 . S
H666 C673 0.950 . S
C667 C665 1.387 . S
C667 C669 1.390 . S
C667 H671 0.950 . S
H668 C664 0.950 . S
C669 C667 1.390 . S
C669 C670 1.387 . S
C669 H672 0.950 . S
C670 C669 1.387 . S
C670 C673 1.387 . S
H671 C667 0.950 . S
H672 C669 0.950 . S
C673 C664 1.390 . S
C673 H666 0.950 . S
C673 C670 1.387 . S
C674 C675 1.387 . S
C674 H678 0.950 . S
C674 C683 1.390 . S
C675 C674 1.387 . S
C675 C677 1.387 . S
H676 C683 0.950 . S
C677 C675 1.387 . S
C677 C679 1.390 . S
C677 H681 0.950 . S
H678 C674 0.950 . S
C679 C677 1.390 . S
C679 C680 1.387 . S
C679 H682 0.950 . S
C680 C679 1.387 . S
C680 C683 1.387 . S
H681 C677 0.950 . S
H682 C679 0.950 . S
C683 C674 1.390 . S
C683 H676 0.950 . S
C683 C680 1.387 . S
C684 C685 1.387 . S
C684 H688 0.950 . S
C684 C693 1.390 . S
C685 C684 1.387 . S
C685 C687 1.387 . S
H686 C693 0.950 . S
C687 C685 1.387 . S
C687 C689 1.390 . S
C687 H691 0.950 . S
H688 C684 0.950 . S
C689 C687 1.390 . S
C689 C690 1.387 . S
C689 H692 0.950 . S
C690 C689 1.387 . S
C690 C693 1.387 . S
H691 C687 0.950 . S
H692 C689 0.950 . S
C693 C684 1.390 . S
C693 H686 0.950 . S
C693 C690 1.387 . S
C694 C695 1.387 . S
C694 H698 0.950 . S
C694 C703 1.390 . S
C695 C694 1.387 . S
C695 C697 1.387 . S
H696 C703 0.950 . S
C697 C695 1.387 . S
C697 C699 1.390 . S
C697 H701 0.950 . S
H698 C694 0.950 . S
C699 C697 1.390 . S
C699 C700 1.387 . S
C699 H702 0.950 . S
C700 C699 1.387 . S
C700 C703 1.387 . S
H701 C697 0.950 . S
H702 C699 0.950 . S
C703 C694 1.390 . S
C703 H696 0.950 . S
C703 C700 1.387 . S
C704 C705 1.387 . S
C704 H708 0.950 . S
C704 C713 1.390 . S
C705 C704 1.387 . S
C705 C707 1.387 . S
H706 C713 0.950 . S
C707 C705 1.387 . S
C707 C709 1.390 . S
C707 H711 0.950 . S
H708 C704 0.950 . S
C709 C707 1.390 . S
C709 C710 1.387 . S
C709 H712 0.950 . S
C710 C709 1.387 . S
C710 C713 1.387 . S
H711 C707 0.950 . S
H712 C709 0.950 . S
C713 C704 1.390 . S
C713 H706 0.950 . S
C713 C710 1.387 . S
C714 C715 1.387 . S
C714 H718 0.950 . S
C714 C723 1.390 . S
C715 C714 1.387 . S
C715 C717 1.387 . S
H716 C723 0.950 . S
C717 C715 1.387 . S
C717 C719 1.390 . S
C717 H721 0.950 . S
H718 C714 0.950 . S
C719 C717 1.390 . S
C719 C720 1.387 . S
C719 H722 0.950 . S
C720 C719 1.387 . S
C720 C723 1.387 . S
H721 C717 0.950 . S
H722 C719 0.950 . S
C723 C714 1.390 . S
C723 H716 0.950 . S
C723 C720 1.387 . S
C724 C725 1.387 . S
C724 H728 0.950 . S
C724 C733 1.390 . S
C725 C724 1.387 . S
C725 C727 1.387 . S
H726 C733 0.950 . S
C727 C725 1.387 . S
C727 C729 1.390 . S
C727 H731 0.950 . S
H728 C724 0.950 . S
C729 C727 1.390 . S
C729 C730 1.387 . S
C729 H732 0.950 . S
C730 C729 1.387 . S
C730 C733 1.387 . S
H731 C727 0.950 . S
H732 C729 0.950 . S
C733 C724 1.390 . S
C733 H726 0.950 . S
C733 C730 1.387 . S
C734 C735 1.387 . S
C734 H738 0.950 . S
C734 C743 1.390 . S
C735 C734 1.387 . S
C735 C737 1.387 . S
H736 C743 0.950 . S
C737 C735 1.387 . S
C737 C739 1.390 . S
C737 H741 0.950 . S
H738 C734 0.950 . S
C739 C737 1.390 . S
C739 C740 1.387 . S
C739 H742 0.950 . S
C740 C739 1.387 . S
C740 C743 1.387 . S
H741 C737 0.950 . S
H742 C739 0.950 . S
C743 C734 1.390 . S
C743 H736 0.950 . S
C743 C740 1.387 . S
C744 C745 1.387 . S
C744 H748 0.950 . S
C744 C753 1.390 . S
C745 C744 1.387 . S
C745 C747 1.387 . S
H746 C753 0.950 . S
C747 C745 1.387 . S
C747 C749 1.390 . S
C747 H751 0.950 . S
H748 C744 0.950 . S
C749 C747 1.390 . S
C749 C750 1.387 . S
C749 H752 0.950 . S
C750 C749 1.387 . S
C750 C753 1.387 . S
H751 C747 0.950 . S
H752 C749 0.950 . S
C753 C744 1.390 . S
C753 H746 0.950 . S
C753 C750 1.387 . S
C754 C755 1.387 . S
C754 H758 0.950 . S
C754 C763 1.390 . S
C755 C754 1.387 . S
C755 C757 1.387 . S
H756 C763 0.950 . S
C757 C755 1.387 . S
C757 C759 1.390 . S
C757 H761 0.950 . S
H758 C754 0.950 . S
C759 C757 1.390 . S
C759 C760 1.387 . S
C759 H762 0.950 . S
C760 C759 1.387 . S
C760 C763 1.387 . S
H761 C757 0.950 . S
H762 C759 0.950 . S
C763 C754 1.390 . S
C763 H756 0.950 . S
C763 C760 1.387 . S
C764 C765 1.387 . S
C764 H768 0.950 . S
C764 C773 1.390 . S
C765 C764 1.387 . S
C765 C767 1.387 . S
H766 C773 0.950 . S
C767 C765 1.387 . S
C767 C769 1.390 . S
C767 H771 0.950 . S
H768 C764 0.950 . S
C769 C767 1.390 . S
C769 C770 1.387 . S
C769 H772 0.950 . S
C770 C769 1.387 . S
C770 C773 1.387 . S
H771 C767 0.950 . S
H772 C769 0.950 . S
C773 C764 1.390 . S
C773 H766 0.950 . S
C773 C770 1.387 . S
C774 C775 1.387 . S
C774 H778 0.950 . S
C774 C783 1.390 . S
C775 C774 1.387 . S
C775 C777 1.387 . S
H776 C783 0.950 . S
C777 C775 1.387 . S
C777 C779 1.390 . S
C777 H781 0.950 . S
H778 C774 0.950 . S
C779 C777 1.390 . S
C779 C780 1.387 . S
C779 H782 0.950 . S
C780 C779 1.387 . S
C780 C783 1.387 . S
H781 C777 0.950 . S
H782 C779 0.950 . S
C783 C774 1.390 . S
C783 H776 0.950 . S
C783 C780 1.387 . S
C784 C785 1.387 . S
C784 H788 0.950 . S
C784 C793 1.390 . S
C785 C784 1.387 . S
C785 C787 1.387 . S
H786 C793 0.950 . S
C787 C785 1.387 . S
C787 C789 1.390 . S
C787 H791 0.950 . S
H788 C784 0.950 . S
C789 C787 1.390 . S
C789 C790 1.387 . S
C789 H792 0.950 . S
C790 C789 1.387 . S
C790 C793 1.387 . S
H791 C787 0.950 . S
H792 C789 0.950 . S
C793 C784 1.390 . S
C793 H786 0.950 . S
C793 C790 1.387 . S
C794 C795 1.387 . S
C794 H798 0.950 . S
C794 C803 1.390 . S
C795 C794 1.387 . S
C795 C797 1.387 . S
H796 C803 0.950 . S
C797 C795 1.387 . S
C797 C799 1.390 . S
C797 H801 0.950 . S
H798 C794 0.950 . S
C799 C797 1.390 . S
C799 C800 1.387 . S
C799 H802 0.950 . S
C800 C799 1.387 . S
C800 C803 1.387 . S
H801 C797 0.950 . S
H802 C799 0.950 . S
C803 C794 1.390 . S
C803 H796 0.950 . S
C803 C800 1.387 . S
C804 C805 1.387 . S
C804 H808 0.950 . S
C804 C813 1.390 . S
C805 C804 1.387 . S
C805 C807 1.387 . S
H806 C813 0.950 . S
C807 C805 1.387 . S
C807 C809 1.390 . S
C807 H811 0.950 . S
H808 C804 0.950 . S
C809 C807 1.390 . S
C809 C810 1.387 . S
C809 H812 0.950 . S
C810 C809 1.387 . S
C810 C813 1.387 . S
H811 C807 0.950 . S
H812 C809 0.950 . S
C813 C804 1.390 . S
C813 H806 0.950 . S
C813 C810 1.387 . S
C814 C815 1.387 . S
C814 H818 0.950 . S
C814 C823 1.390 . S
C815 C814 1.387 . S
C815 C817 1.387 . S
H816 C823 0.950 . S
C817 C815 1.387 . S
C817 C819 1.390 . S
C817 H821 0.950 . S
H818 C814 0.950 . S
C819 C817 1.390 . S
C819 C820 1.387 . S
C819 H822 0.950 . S
C820 C819 1.387 . S
C820 C823 1.387 . S
H821 C817 0.950 . S
H822 C819 0.950 . S
C823 C814 1.390 . S
C823 H816 0.950 . S
C823 C820 1.387 . S
C824 C825 1.387 . S
C824 H828 0.950 . S
C824 C833 1.390 . S
C825 C824 1.387 . S
C825 C827 1.387 . S
H826 C833 0.950 . S
C827 C825 1.387 . S
C827 C829 1.390 . S
C827 H831 0.950 . S
H828 C824 0.950 . S
C829 C827 1.390 . S
C829 C830 1.387 . S
C829 H832 0.950 . S
C830 C829 1.387 . S
C830 C833 1.387 . S
H831 C827 0.950 . S
H832 C829 0.950 . S
C833 C824 1.390 . S
C833 H826 0.950 . S
C833 C830 1.387 . S
C834 C835 1.387 . S
C834 H838 0.950 . S
C834 C843 1.390 . S
C835 C834 1.387 . S
C835 C837 1.387 . S
H836 C843 0.950 . S
C837 C835 1.387 . S
C837 C839 1.390 . S
C837 H841 0.950 . S
H838 C834 0.950 . S
C839 C837 1.390 . S
C839 C840 1.387 . S
C839 H842 0.950 . S
C840 C839 1.387 . S
C840 C843 1.387 . S
H841 C837 0.950 . S
H842 C839 0.950 . S
C843 C834 1.390 . S
C843 H836 0.950 . S
C843 C840 1.387 . S
C844 C845 1.387 . S
C844 H848 0.950 . S
C844 C853 1.390 . S
C845 C844 1.387 . S
C845 C847 1.387 . S
H846 C853 0.950 . S
C847 C845 1.387 . S
C847 C849 1.390 . S
C847 H851 0.950 . S
H848 C844 0.950 . S
C849 C847 1.390 . S
C849 C850 1.387 . S
C849 H852 0.950 . S
C850 C849 1.387 . S
C850 C853 1.387 . S
H851 C847 0.950 . S
H852 C849 0.950 . S
C853 C844 1.390 . S
C853 H846 0.950 . S
C853 C850 1.387 . S
C854 C855 1.387 . S
C854 H858 0.950 . S
C854 C863 1.390 . S
C855 C854 1.387 . S
C855 C857 1.387 . S
H856 C863 0.950 . S
C857 C855 1.387 . S
C857 C859 1.390 . S
C857 H861 0.950 . S
H858 C854 0.950 . S
C859 C857 1.390 . S
C859 C860 1.387 . S
C859 H862 0.950 . S
C860 C859 1.387 . S
C860 C863 1.387 . S
H861 C857 0.950 . S
H862 C859 0.950 . S
C863 C854 1.390 . S
C863 H856 0.950 . S
C863 C860 1.387 . S
C864 C865 1.387 . S
C864 H868 0.950 . S
C864 C873 1.390 . S
C865 C864 1.387 . S
C865 C867 1.387 . S
H866 C873 0.950 . S
C867 C865 1.387 . S
C867 C869 1.390 . S
C867 H871 0.950 . S
H868 C864 0.950 . S
C869 C867 1.390 . S
C869 C870 1.387 . S
C869 H872 0.950 . S
C870 C869 1.387 . S
C870 C873 1.387 . S
H871 C867 0.950 . S
H872 C869 0.950 . S
C873 C864 1.390 . S
C873 H866 0.950 . S
C873 C870 1.387 . S
C874 C875 1.387 . S
C874 H878 0.950 . S
C874 C883 1.390 . S
C875 C874 1.387 . S
C875 C877 1.387 . S
H876 C883 0.950 . S
C877 C875 1.387 . S
C877 C879 1.390 . S
C877 H881 0.950 . S
H878 C874 0.950 . S
C879 C877 1.390 . S
C879 C880 1.387 . S
C879 H882 0.950 . S
C880 C879 1.387 . S
C880 C883 1.387 . S
H881 C877 0.950 . S
H882 C879 0.950 . S
C883 C874 1.390 . S
C883 H876 0.950 . S
C883 C880 1.387 . S
C884 C885 1.387 . S
C884 H888 0.950 . S
C884 C893 1.390 . S
C885 C884 1.387 . S
C885 C887 1.387 . S
H886 C893 0.950 . S
C887 C885 1.387 . S
C887 C889 1.390 . S
C887 H891 0.950 . S
H888 C884 0.950 . S
C889 C887 1.390 . S
C889 C890 1.387 . S
C889 H892 0.950 . S
C890 C889 1.387 . S
C890 C893 1.387 . S
H891 C887 0.950 . S
H892 C889 0.950 . S
C893 C884 1.390 . S
C893 H886 0.950 . S
C893 C890 1.387 . S
C894 C895 1.387 . S
C894 H898 0.950 . S
C894 C903 1.390 . S
C895 C894 1.387 . S
C895 C897 1.387 . S
H896 C903 0.950 . S
C897 C895 1.387 . S
C897 C899 1.390 . S
C897 H901 0.950 . S
H898 C894 0.950 . S
C899 C897 1.390 . S
C899 C900 1.387 . S
C899 H902 0.950 . S
C900 C899 1.387 . S
C900 C903 1.387 . S
H901 C897 0.950 . S
H902 C899 0.950 . S
C903 C894 1.390 . S
C903 H896 0.950 . S
C903 C900 1.387 . S
C904 C905 1.387 . S
C904 H908 0.950 . S
C904 C913 1.390 . S
C905 C904 1.387 . S
C905 C907 1.387 . S
H906 C913 0.950 . S
C907 C905 1.387 . S
C907 C909 1.390 . S
C907 H911 0.950 . S
H908 C904 0.950 . S
C909 C907 1.390 . S
C909 C910 1.387 . S
C909 H912 0.950 . S
C910 C909 1.387 . S
C910 C913 1.387 . S
H911 C907 0.950 . S
H912 C909 0.950 . S
C913 C904 1.390 . S
C913 H906 0.950 . S
C913 C910 1.387 . S
C914 C915 1.387 . S
C914 H918 0.950 . S
C914 C923 1.390 . S
C915 C914 1.387 . S
C915 C917 1.387 . S
H916 C923 0.950 . S
C917 C915 1.387 . S
C917 C919 1.390 . S
C917 H921 0.950 . S
H918 C914 0.950 . S
C919 C917 1.390 . S
C919 C920 1.387 . S
C919 H922 0.950 . S
C920 C919 1.387 . S
C920 C923 1.387 . S
H921 C917 0.950 . S
H922 C919 0.950 . S
C923 C914 1.390 . S
C923 H916 0.950 . S
C923 C920 1.387 . S
C924 C925 1.387 . S
C924 H928 0.950 . S
C924 C933 1.390 . S
C925 C924 1.387 . S
C925 C927 1.387 . S
H926 C933 0.950 . S
C927 C925 1.387 . S
C927 C929 1.390 . S
C927 H931 0.950 . S
H928 C924 0.950 . S
C929 C927 1.390 . S
C929 C930 1.387 . S
C929 H932 0.950 . S
C930 C929 1.387 . S
C930 C933 1.387 . S
H931 C927 0.950 . S
H932 C929 0.950 . S
C933 C924 1.390 . S
C933 H926 0.950 . S
C933 C930 1.387 . S
C934 C935 1.387 . S
C934 H938 0.950 . S
C934 C943 1.390 . S
C935 C934 1.387 . S
C935 C937 1.387 . S
H936 C943 0.950 . S
C937 C935 1.387 . S
C937 C939 1.390 . S
C937 H941 0.950 . S
H938 C934 0.950 . S
C939 C937 1.390 . S
C939 C940 1.387 . S
C939 H942 0.950 . S
C940 C939 1.387 . S
C940 C943 1.387 . S
H941 C937 0.950 . S
H942 C939 0.950 . S
C943 C934 1.390 . S
C943 H936 0.950 . S
C943 C940 1.387 . S
C944 C945 1.387 . S
C944 H948 0.950 . S
C944 C953 1.390 . S
C945 C944 1.387 . S
C945 C947 1.387 . S
H946 C953 0.950 . S
C947 C945 1.387 . S
C947 C949 1.390 . S
C947 H951 0.950 . S
H948 C944 0.950 . S
C949 C947 1.390 . S
C949 C950 1.387 . S
C949 H952 0.950 . S
C950 C949 1.387 . S
C950 C953 1.387 . S
H951 C947 0.950 . S
H952 C949 0.950 . S
C953 C944 1.390 . S
C953 H946 0.950 . S
C953 C950 1.387 . S
C954 C955 1.387 . S
C954 H958 0.950 . S
C954 C963 1.390 . S
C955 C954 1.387 . S
C955 C957 1.387 . S
H956 C963 0.950 . S
C957 C955 1.387 . S
C957 C959 1.390 . S
C957 H961 0.950 . S
H958 C954 0.950 . S
C959 C957 1.390 . S
C959 C960 1.387 . S
C959 H962 0.950 . S
C960 C959 1.387 . S
C960 C963 1.387 . S
H961 C957 0.950 . S
H962 C959 0.950 . S
C963 C954 1.390 . S
C963 H956 0.950 . S
C963 C960 1.387 . S
C964 C965 1.387 . S
C964 H968 0.950 . S
C964 C973 1.390 . S
C965 C964 1.387 . S
C965 C967 1.387 . S
H966 C973 0.950 . S
C967 C965 1.387 . S
C967 C969 1.390 . S
C967 H971 0.950 . S
H968 C964 0.950 . S
C969 C967 1.390 . S
C969 C970 1.387 . S
C969 H972 0.950 . S
C970 C969 1.387 . S
C970 C973 1.387 . S
H971 C967 0.950 . S
H972 C969 0.950 . S
C973 C964 1.390 . S
C973 H966 0.950 . S
C973 C970 1.387 . S
C974 C975 1.387 . S
C974 H978 0.950 . S
C974 C983 1.390 . S
C975 C974 1.387 . S
C975 C977 1.387 . S
H976 C983 0.950 . S
C977 C975 1.387 . S
C977 C979 1.390 . S
C977 H981 0.950 . S
H978 C974 0.950 . S
C979 C977 1.390 . S
C979 C980 1.387 . S
C979 H982 0.950 . S
C980 C979 1.387 . S
C980 C983 1.387 . S
H981 C977 0.950 . S
H982 C979 0.950 . S
C983 C974 1.390 . S
C983 H976 0.950 . S
C983 C980 1.387 . S
C984 C985 1.387 . S
C984 H988 0.950 . S
C984 C993 1.390 . S
C985 C984 1.387 . S
C985 C987 1.387 . S
H986 C993 0.950 . S
C987 C985 1.387 . S
C987 C989 1.390 . S
C987 H991 0.950 . S
H988 C984 0.950 . S
C989 C987 1.390 . S
C989 C990 1.387 . S
C989 H992 0.950 . S
C990 C989 1.387 . S
C990 C993 1.387 . S
H991 C987 0.950 . S
H992 C989 0.950 . S
C993 C984 1.390 . S
C993 H986 0.950 . S
C993 C990 1.387 . S
C520 C288 1.066 . S
C515 N18 1.002 . S
C530 N264 1.481 . S
C525 C61 1.580 . S
C540 C296 0.780 . S
C535 N82 0.775 . S
C545 C100 1.595 . S
C550 C295 1.516 . S
C555 C130 1.609 . S
C560 N259 1.538 . S
C570 C283 1.075 . S
C565 N173 1.010 . S
C575 C198 1.700 . S
C580 C269 1.604 . S
C585 N242 0.775 . S
C590 C289 0.781 . S
C600 C312 1.574 . S
C595 C6 1.704 . S
C605 N50 0.788 . S
C610 C375 0.800 . S
C620 N302 1.492 . S
C615 C68 1.499 . S
C630 C369 0.799 . S
C625 N109 0.782 . S
C635 C134 2.184 . S
C640 C339 2.165 . S
C650 C381 1.583 . S
C645 C162 1.715 . S
C655 C194 2.276 . S
C660 C331 2.289 . S
C665 C228 1.500 . S
C670 N350 1.490 . S
C675 C2 1.641 . S
C680 N345 1.590 . S
C685 N141 1.067 . S
C690 C374 1.177 . S
C700 N307 1.588 . S
C695 C166 1.641 . S
C710 C382 1.047 . S
C705 N210 0.917 . S
C715 C253 1.607 . S
C720 C338 1.479 . S
C725 C93 1.593 . S
C730 C355 1.460 . S
C740 C332 2.072 . S
C735 C125 2.069 . S
C745 C36 2.212 . S
C750 C326 2.200 . S
C755 N237 0.994 . S
C760 C417 1.060 . S
C765 C157 1.582 . S
C770 N393 1.485 . S
C780 C425 0.779 . S
C775 N178 0.773 . S
C790 C424 1.517 . S
C785 C196 1.594 . S
C795 C34 1.610 . S
C800 N388 1.540 . S
C810 C412 1.075 . S
C805 N77 1.010 . S
C815 C102 1.700 . S
C820 C398 1.603 . S
C825 N13 0.778 . S
C830 C418 0.783 . S
C835 C226 1.704 . S
C840 C441 1.572 . S
C850 C504 0.795 . S
C845 N146 0.791 . S
C855 C164 1.499 . S
C860 N431 1.489 . S
C865 N205 0.778 . S
C870 C498 0.796 . S
C880 C468 2.166 . S
C875 C38 2.184 . S
C885 C66 1.715 . S
C890 C510 1.581 . S
C900 C460 2.288 . S
C895 C98 2.277 . S
C910 N479 1.493 . S
C905 C29 1.499 . S
C920 N474 1.590 . S
C915 C230 1.641 . S
C925 N45 1.065 . S
C930 C503 1.177 . S
C935 C70 1.640 . S
C940 N436 1.590 . S
C950 C511 1.047 . S
C945 N114 0.915 . S
C955 C4 1.608 . S
C960 C467 1.479 . S
C965 C189 1.593 . S
C970 C484 1.460 . S
C980 C461 2.072 . S
C975 C221 2.069 . S
C990 C455 2.200 . S
C985 C132 2.212 . S
