# Generated by pormake.
# Topology anh, (6,3)-cn, num edge types: 1
# Building blocks:
#     Node 0, Type 0, BuildingBlock: VOLQOD_clean_sbu_1, # of connection points: 6
#     Node 1, Type 0, BuildingBlock: VOLQOD_clean_sbu_1, # of connection points: 6
#     Node 2, Type 0, BuildingBlock: VOLQOD_clean_sbu_1, # of connection points: 6
#     Node 3, Type 1, BuildingBlock: WUSLED_clean_sbu_0, # of connection points: 3
#     Node 4, Type 1, BuildingBlock: WUSLED_clean_sbu_0, # of connection points: 3
#     Node 5, Type 1, BuildingBlock: WUSLED_clean_sbu_0, # of connection points: 3
#     Node 6, Type 1, BuildingBlock: WUSLED_clean_sbu_0, # of connection points: 3
#     Node 7, Type 1, BuildingBlock: WUSLED_clean_sbu_0, # of connection points: 3
#     Node 8, Type 1, BuildingBlock: WUSLED_clean_sbu_0, # of connection points: 3
#     Edge 9, Type (0, 1), BuildingBlock: ZUJKAS_clean_linker_0, # of connection points: 2
#     Edge 10, Type (0, 1), BuildingBlock: ZUJKAS_clean_linker_0, # of connection points: 2
#     Edge 11, Type (0, 1), BuildingBlock: ZUJKAS_clean_linker_0, # of connection points: 2
#     Edge 12, Type (0, 1), BuildingBlock: ZUJKAS_clean_linker_0, # of connection points: 2
#     Edge 13, Type (0, 1), BuildingBlock: ZUJKAS_clean_linker_0, # of connection points: 2
#     Edge 14, Type (0, 1), BuildingBlock: ZUJKAS_clean_linker_0, # of connection points: 2
#     Edge 15, Type (0, 1), BuildingBlock: ZUJKAS_clean_linker_0, # of connection points: 2
#     Edge 16, Type (0, 1), BuildingBlock: ZUJKAS_clean_linker_0, # of connection points: 2
#     Edge 17, Type (0, 1), BuildingBlock: ZUJKAS_clean_linker_0, # of connection points: 2
#     Edge 18, Type (0, 1), BuildingBlock: ZUJKAS_clean_linker_0, # of connection points: 2
#     Edge 19, Type (0, 1), BuildingBlock: ZUJKAS_clean_linker_0, # of connection points: 2
#     Edge 20, Type (0, 1), BuildingBlock: ZUJKAS_clean_linker_0, # of connection points: 2
#     Edge 21, Type (0, 1), BuildingBlock: ZUJKAS_clean_linker_0, # of connection points: 2
#     Edge 22, Type (0, 1), BuildingBlock: ZUJKAS_clean_linker_0, # of connection points: 2
#     Edge 23, Type (0, 1), BuildingBlock: ZUJKAS_clean_linker_0, # of connection points: 2
#     Edge 24, Type (0, 1), BuildingBlock: ZUJKAS_clean_linker_0, # of connection points: 2
#     Edge 25, Type (0, 1), BuildingBlock: ZUJKAS_clean_linker_0, # of connection points: 2
#     Edge 26, Type (0, 1), BuildingBlock: ZUJKAS_clean_linker_0, # of connection points: 2
# Relax obj value: 0.163
# Max RMSD: 0.228
# Mean RMSD: 0.110
data_MOF--net-anh--node1-VOLQOD_clean_sbu_1--node2-WUSLED_clean_sbu_0--edge1-ZUJKAS_clean_linker_0
_symmetry_space_group_name_H-M    P1
_symmetry_Int_Tables_number       1
_symmetry_cell_setting            triclinic
loop_
_symmetry_equiv_pos_as_xyz
'x, y, z'
_cell_length_a     45.097432
_cell_length_b     45.029908
_cell_length_c     96.436591
_cell_angle_alpha  89.793439
_cell_angle_beta   90.025357
_cell_angle_gamma 120.14748
loop_
_atom_site_label
_atom_site_type_symbol
_atom_site_fract_x
_atom_site_fract_y
_atom_site_fract_z
_atom_type_partial_charge
O0 O 0.99419 0.52601 0.19761 0.0
Zn1 Zn 0.99691 0.54027 0.17757 0.0
O2 O 0.00382 0.5091 0.16559 0.0
Zn3 Zn 0.96495 0.48476 0.15324 0.0
Zn4 Zn 0.00885 0.47554 0.17689 0.0
Zn5 Zn 0.04443 0.53569 0.1542 0.0
O6 O 0.97907 0.49074 0.13315 0.0
O7 O 0.03294 0.53362 0.13381 0.0
O8 O 0.9536 0.54127 0.17241 0.0
O9 O 0.93359 0.50374 0.15514 0.0
O10 O 0.93691 0.43461 0.15823 0.0
O11 O 0.96727 0.42809 0.17482 0.0
O12 O 0.05181 0.47411 0.17159 0.0
O13 O 0.03802 0.58836 0.17659 0.0
O14 O 0.07547 0.51622 0.15603 0.0
O15 O 0.07142 0.58483 0.16057 0.0
C16 C 0.00201 0.50594 0.2039 0.0
C17 C 0.00637 0.51279 0.12698 0.0
C18 C 0.94076 0.41586 0.16713 0.0
C19 C 0.93139 0.5252 0.16298 0.0
C20 C 0.07582 0.49241 0.16305 0.0
C21 C 0.06577 0.60202 0.16958 0.0
O22 O 0.01032 0.48678 0.19723 0.0
O23 O 0.49011 0.02133 0.46998 0.0
Zn24 Zn 0.47581 0.01619 0.49013 0.0
O25 O 0.5071 0.0081 0.50157 0.0
Zn26 Zn 0.532 0.04584 0.51435 0.0
Zn27 Zn 0.53984 0.00344 0.48972 0.0
Zn28 Zn 0.48087 0.96682 0.51261 0.0
O29 O 0.5267 0.03007 0.53426 0.0
O30 O 0.48267 0.97686 0.53306 0.0
O31 O 0.47464 0.05884 0.49644 0.0
O32 O 0.51334 0.07764 0.51331 0.0
O33 O 0.58185 0.07382 0.5092 0.0
O34 O 0.58733 0.04525 0.49162 0.0
O35 O 0.54174 0.96031 0.49454 0.0
O36 O 0.42786 0.97455 0.49073 0.0
O37 O 0.50108 0.93643 0.51063 0.0
O38 O 0.43193 0.94005 0.50616 0.0
C39 C 0.50899 0.01267 0.4633 0.0
C40 C 0.50415 0.00253 0.54015 0.0
C41 C 0.60004 0.07091 0.49979 0.0
C42 C 0.49139 0.08044 0.50598 0.0
C43 C 0.52453 0.93641 0.50329 0.0
C44 C 0.41452 0.94621 0.4974 0.0
O45 O 0.5273 0.0026 0.46957 0.0
O46 O 0.48309 0.49368 0.80343 0.0
Zn47 Zn 0.473 0.47896 0.82352 0.0
O48 O 0.51186 0.51025 0.83526 0.0
Zn49 Zn 0.49767 0.53367 0.84825 0.0
Zn50 Zn 0.54955 0.5444 0.82369 0.0
Zn51 Zn 0.52733 0.48402 0.84603 0.0
O52 O 0.5064 0.52661 0.86818 0.0
O53 O 0.52012 0.48585 0.86656 0.0
O54 O 0.42873 0.47736 0.82938 0.0
O55 O 0.44727 0.51491 0.84665 0.0
O56 O 0.51994 0.58407 0.84386 0.0
O57 O 0.55512 0.59157 0.82639 0.0
O58 O 0.59464 0.54609 0.82805 0.0
O59 O 0.46644 0.431 0.82415 0.0
O60 O 0.57773 0.50383 0.84344 0.0
O61 O 0.50452 0.43492 0.83972 0.0
C62 C 0.51053 0.51426 0.79693 0.0
C63 C 0.5135 0.50535 0.87386 0.0
C64 C 0.54164 0.60331 0.83476 0.0
C65 C 0.42312 0.49342 0.83896 0.0
C66 C 0.60124 0.52787 0.83625 0.0
C67 C 0.48106 0.41755 0.83093 0.0
O68 O 0.53835 0.5336 0.8034 0.0
C69 C 0.5665 0.06164 0.21846 0.0
C70 C 0.59175 0.08397 0.22776 0.0
C71 C 0.63058 0.11396 0.20853 0.0
C72 C 0.62348 0.10989 0.22285 0.0
C73 C 0.60512 0.09139 0.19926 0.0
C74 C 0.57336 0.06545 0.2042 0.0
U75 U 0.50772 0.01432 0.24861 0.0
O76 O 0.45277 0.99525 0.2518 0.0
O77 O 0.47216 0.95924 0.25215 0.0
C78 C 0.44511 0.96302 0.25254 0.0
C79 C 0.53312 0.0344 0.22362 0.0
C80 C 0.41564 0.93868 0.24421 0.0
C81 C 0.38832 0.91532 0.22203 0.0
C82 C 0.417 0.93882 0.22967 0.0
C83 C 0.35688 0.89155 0.24342 0.0
C84 C 0.35786 0.89147 0.22884 0.0
C85 C 0.38548 0.91493 0.25101 0.0
C86 C 0.54031 0.04234 0.28542 0.0
C87 C 0.51516 0.00693 0.30595 0.0
C88 C 0.55206 0.06848 0.30824 0.0
C89 C 0.55651 0.07152 0.29385 0.0
C90 C 0.53148 0.03613 0.31445 0.0
C91 C 0.51937 0.01003 0.29155 0.0
C92 C 0.54535 0.04611 0.27029 0.0
O93 O 0.53388 0.00927 0.23028 0.0
O94 O 0.51443 0.04519 0.2299 0.0
O95 O 0.52671 0.05657 0.2637 0.0
O96 O 0.54664 0.02101 0.26393 0.0
H97 H 0.58682 0.08139 0.23883 0.0
H98 H 0.64226 0.12709 0.23026 0.0
H99 H 0.60986 0.09354 0.1882 0.0
H100 H 0.55416 0.04833 0.19689 0.0
H101 H 0.38984 0.91609 0.21082 0.0
H102 H 0.44015 0.9571 0.22426 0.0
H103 H 0.33411 0.87317 0.24901 0.0
H104 H 0.38407 0.91442 0.26223 0.0
H105 H 0.49882 0.98174 0.31042 0.0
H106 H 0.56518 0.09139 0.31453 0.0
H107 H 0.57269 0.09667 0.28931 0.0
H108 H 0.50629 0.98719 0.28521 0.0
C109 C 0.51851 0.5709 0.55133 0.0
C110 C 0.50639 0.58997 0.55835 0.0
C111 C 0.52828 0.63297 0.53995 0.0
C112 C 0.51106 0.62063 0.55267 0.0
C113 C 0.54096 0.61413 0.53309 0.0
C114 C 0.53598 0.58327 0.53872 0.0
U115 U 0.50788 0.51326 0.58213 0.0
O116 O 0.47236 0.45818 0.58544 0.0
O117 O 0.52791 0.47819 0.58559 0.0
C118 C 0.49713 0.45084 0.58577 0.0
C119 C 0.51322 0.53823 0.55706 0.0
C120 C 0.49235 0.42257 0.57673 0.0
C121 C 0.47877 0.39421 0.55433 0.0
C122 C 0.48381 0.42171 0.56269 0.0
C123 C 0.49129 0.36854 0.57394 0.0
C124 C 0.48232 0.36719 0.55988 0.0
C125 C 0.49617 0.39593 0.58228 0.0
C126 C 0.51173 0.54611 0.61883 0.0
C127 C 0.51009 0.51318 0.63912 0.0
C128 C 0.50958 0.5664 0.64188 0.0
C129 C 0.51085 0.57056 0.62748 0.0
C130 C 0.50923 0.53769 0.64788 0.0
C131 C 0.51124 0.51733 0.62471 0.0
C132 C 0.51321 0.55098 0.60372 0.0
O133 O 0.5394 0.54014 0.56384 0.0
O134 O 0.48366 0.51888 0.56331 0.0
O135 O 0.48421 0.53192 0.59712 0.0
O136 O 0.53977 0.55221 0.59753 0.0
H137 H 0.49321 0.58111 0.5682 0.0
H138 H 0.50146 0.63486 0.55829 0.0
H139 H 0.55415 0.62293 0.52324 0.0
H140 H 0.54564 0.56895 0.53319 0.0
H141 H 0.47165 0.39389 0.54358 0.0
H142 H 0.48083 0.44218 0.55822 0.0
H143 H 0.49495 0.3486 0.5785 0.0
H144 H 0.50297 0.39632 0.59309 0.0
H145 H 0.50945 0.4906 0.6434 0.0
H146 H 0.50939 0.58595 0.64832 0.0
H147 H 0.51127 0.59296 0.62309 0.0
H148 H 0.51176 0.4981 0.61815 0.0
C149 C 0.96714 0.53284 0.88154 0.0
C150 C 0.93943 0.52823 0.88972 0.0
C151 C 0.91647 0.54507 0.87026 0.0
C152 C 0.91425 0.53415 0.88412 0.0
C153 C 0.94471 0.55023 0.8622 0.0
C154 C 0.96978 0.5441 0.8678 0.0
U155 U 0.0124 0.52024 0.91232 0.0
O156 O 0.02869 0.48232 0.91587 0.0
O157 O 0.06696 0.53732 0.91558 0.0
C158 C 0.06142 0.50576 0.916 0.0
C159 C 0.99322 0.52574 0.88721 0.0
C160 C 0.08355 0.49896 0.90698 0.0
C161 C 0.09768 0.48546 0.88442 0.0
C162 C 0.07619 0.4918 0.89283 0.0
C163 C 0.13413 0.49367 0.90422 0.0
C164 C 0.12693 0.48629 0.89002 0.0
C165 C 0.1126 0.49988 0.9126 0.0
C166 C 0.98653 0.5286 0.94902 0.0
C167 C 0.01073 0.51599 0.96917 0.0
C168 C 0.97376 0.54017 0.97215 0.0
C169 C 0.96996 0.54047 0.95777 0.0
C170 C 0.99418 0.52793 0.97802 0.0
C171 C 0.00701 0.51642 0.95478 0.0
C172 C 0.98259 0.52945 0.93392 0.0
O173 O 0.01873 0.55146 0.89373 0.0
O174 O 0.98119 0.49627 0.8938 0.0
O175 O 0.97049 0.49977 0.9276 0.0
O176 O 0.0087 0.55476 0.92742 0.0
H177 H 0.93704 0.51965 0.90038 0.0
H178 H 0.89266 0.52939 0.89058 0.0
H179 H 0.94754 0.5591 0.85157 0.0
H180 H 0.99117 0.54801 0.86138 0.0
H181 H 0.09123 0.47961 0.87358 0.0
H182 H 0.05383 0.49109 0.88832 0.0
H183 H 0.15677 0.49524 0.90883 0.0
H184 H 0.11875 0.50559 0.92348 0.0
H185 H 0.02693 0.50677 0.97336 0.0
H186 H 0.96033 0.54914 0.97867 0.0
H187 H 0.95406 0.54995 0.95347 0.0
H188 H 0.02017 0.50735 0.94814 0.0
C189 C 0.95215 0.44793 0.4485 0.0
C190 C 0.93273 0.42145 0.43911 0.0
C191 C 0.8988 0.38397 0.45812 0.0
C192 C 0.90633 0.38976 0.44387 0.0
C193 C 0.91859 0.4106 0.4675 0.0
C194 C 0.94503 0.44231 0.46271 0.0
U195 U 0.99964 0.50674 0.41846 0.0
O196 O 0.01839 0.56167 0.41505 0.0
O197 O 0.0546 0.54254 0.41494 0.0
C198 C 0.05066 0.56953 0.41444 0.0
C199 C 0.9794 0.48148 0.44346 0.0
C200 C 0.07485 0.59901 0.42281 0.0
C201 C 0.09457 0.62819 0.44492 0.0
C202 C 0.07096 0.59972 0.43722 0.0
C203 C 0.12604 0.65528 0.42386 0.0
C204 C 0.12241 0.65635 0.43832 0.0
C205 C 0.10247 0.62691 0.4162 0.0
C206 C 0.97198 0.47274 0.38182 0.0
C207 C 0.99631 0.50928 0.36154 0.0
C208 C 0.95816 0.44804 0.35877 0.0
C209 C 0.95468 0.44416 0.37317 0.0
C210 C 0.979 0.48064 0.35279 0.0
C211 C 0.9929 0.50533 0.37595 0.0
C212 C 0.96826 0.46815 0.39693 0.0
O213 O 0.00478 0.48099 0.43697 0.0
O214 O 0.96856 0.50005 0.43704 0.0
O215 O 0.95758 0.4868 0.40332 0.0
O216 O 0.99382 0.46777 0.4033 0.0
H217 H 0.93794 0.42537 0.42808 0.0
H218 H 0.89195 0.36972 0.43638 0.0
H219 H 0.91321 0.40717 0.47852 0.0
H220 H 0.95971 0.46255 0.4701 0.0
H221 H 0.09085 0.62828 0.45601 0.0
H222 H 0.04972 0.57831 0.44248 0.0
H223 H 0.14747 0.67616 0.41846 0.0
H224 H 0.10593 0.62668 0.40509 0.0
H225 H 0.01285 0.53465 0.35726 0.0
H226 H 0.94419 0.42556 0.35231 0.0
H227 H 0.93842 0.41882 0.37755 0.0
H228 H 0.00664 0.52766 0.38252 0.0
C229 C 0.51188 0.95222 0.78479 0.0
C230 C 0.51942 0.93302 0.77549 0.0
C231 C 0.52369 0.9 0.79467 0.0
C232 C 0.52532 0.9072 0.78038 0.0
C233 C 0.51643 0.9196 0.80395 0.0
C234 C 0.51054 0.94548 0.79903 0.0
U235 U 0.49801 0.99686 0.75443 0.0
O236 O 0.46086 0.01432 0.75109 0.0
O237 O 0.51613 0.05129 0.75019 0.0
C238 C 0.48496 0.04671 0.74995 0.0
C239 C 0.50473 0.97869 0.77958 0.0
C240 C 0.47979 0.07131 0.75805 0.0
C241 C 0.48515 0.10227 0.77936 0.0
C242 C 0.48871 0.07731 0.77212 0.0
C243 C 0.46301 0.11473 0.7586 0.0
C244 C 0.47265 0.12158 0.77261 0.0
C245 C 0.4666 0.08987 0.75139 0.0
C246 C 0.50331 0.96753 0.71805 0.0
C247 C 0.49222 0.99242 0.69772 0.0
C248 C 0.51257 0.95214 0.69503 0.0
C249 C 0.51308 0.94894 0.70944 0.0
C250 C 0.50223 0.97399 0.689 0.0
C251 C 0.49285 0.98928 0.71214 0.0
C252 C 0.5048 0.96454 0.73317 0.0
O253 O 0.53005 0.00402 0.77273 0.0
O254 O 0.47489 0.96683 0.77343 0.0
O255 O 0.47563 0.95376 0.73977 0.0
O256 O 0.53086 0.99073 0.73923 0.0
H257 H 0.52057 0.93793 0.76444 0.0
H258 H 0.53131 0.89296 0.77297 0.0
H259 H 0.51456 0.91446 0.81499 0.0
H260 H 0.50461 0.96 0.80634 0.0
H261 H 0.49305 0.10708 0.79011 0.0
H262 H 0.49892 0.06313 0.77741 0.0
H263 H 0.45275 0.12868 0.75316 0.0
H264 H 0.45943 0.08542 0.74055 0.0
H265 H 0.4845 0.00975 0.6934 0.0
H266 H 0.52001 0.93729 0.68861 0.0
H267 H 0.52121 0.93203 0.71386 0.0
H268 H 0.48541 0.00398 0.71868 0.0
C269 C 0.55444 0.50142 0.11937 0.0
C270 C 0.57895 0.50031 0.11079 0.0
C271 C 0.61791 0.51485 0.13038 0.0
C272 C 0.61036 0.50687 0.11625 0.0
C273 C 0.5932 0.51603 0.13891 0.0
C274 C 0.56172 0.50936 0.13343 0.0
U275 U 0.49772 0.48759 0.08829 0.0
O276 O 0.46316 0.50755 0.08366 0.0
O277 O 0.44275 0.45191 0.085 0.0
C278 C 0.4357 0.47683 0.08391 0.0
C279 C 0.52154 0.4948 0.11362 0.0
C280 C 0.4076 0.4735 0.0927 0.0
C281 C 0.37955 0.46343 0.11514 0.0
C282 C 0.40605 0.46556 0.10687 0.0
C283 C 0.3561 0.47731 0.09515 0.0
C284 C 0.35447 0.46959 0.10938 0.0
C285 C 0.38243 0.47921 0.0869 0.0
C286 C 0.53258 0.49055 0.05205 0.0
C287 C 0.50545 0.49617 0.03122 0.0
C288 C 0.55109 0.48282 0.02939 0.0
C289 C 0.55385 0.48342 0.04384 0.0
C290 C 0.52707 0.48949 0.02288 0.0
C291 C 0.50812 0.49658 0.04567 0.0
C292 C 0.53653 0.49211 0.0672 0.0
O293 O 0.52299 0.52026 0.10637 0.0
O294 O 0.50317 0.46477 0.10763 0.0
O295 O 0.51696 0.46322 0.07388 0.0
O296 O 0.53777 0.51896 0.07313 0.0
H297 H 0.57372 0.49426 0.09988 0.0
H298 H 0.62851 0.50517 0.10942 0.0
H299 H 0.59832 0.52245 0.14979 0.0
H300 H 0.5431 0.51052 0.14017 0.0
H301 H 0.37911 0.45775 0.12609 0.0
H302 H 0.42548 0.46132 0.11155 0.0
H303 H 0.33692 0.48178 0.09039 0.0
H304 H 0.38328 0.48537 0.07598 0.0
H305 H 0.48695 0.5018 0.02658 0.0
H306 H 0.56771 0.47698 0.02333 0.0
H307 H 0.57272 0.47849 0.04861 0.0
H308 H 0.49138 0.50202 0.05186 0.0
H309 H 0.13288 0.53011 0.1473 0.0
H310 H 0.17985 0.51954 0.14297 0.0
H311 H 0.13252 0.43054 0.16968 0.0
H312 H 0.08468 0.44074 0.17406 0.0
H313 H 0.22519 0.51485 0.16256 0.0
H314 H 0.14851 0.39458 0.13227 0.0
H315 H 0.13312 0.42396 0.1356 0.0
H316 H 0.13353 0.39709 0.14928 0.0
C317 C 0.13226 0.50823 0.1523 0.0
C318 C 0.1048 0.48613 0.16097 0.0
C319 C 0.15928 0.50232 0.14984 0.0
C320 C 0.15952 0.47414 0.15591 0.0
C321 C 0.13256 0.45222 0.16477 0.0
H322 H 0.31489 0.42175 0.12903 0.0
H323 H 0.26856 0.42022 0.14299 0.0
C324 C 0.10535 0.45817 0.16729 0.0
C325 C 0.18807 0.46807 0.15257 0.0
H326 H 0.20823 0.41858 0.13237 0.0
C327 C 0.22148 0.49345 0.15617 0.0
C328 C 0.18309 0.44004 0.14431 0.0
C329 C 0.14771 0.41234 0.14003 0.0
C330 C 0.25014 0.4925 0.15114 0.0
C331 C 0.24523 0.46575 0.14211 0.0
C332 C 0.21184 0.43913 0.13925 0.0
C333 C 0.27414 0.46712 0.1343 0.0
C334 C 0.28549 0.52073 0.15516 0.0
C335 C 0.29229 0.49379 0.12475 0.0
C336 C 0.31851 0.49467 0.11677 0.0
C337 C 0.32708 0.46881 0.11817 0.0
C338 C 0.30903 0.44218 0.12783 0.0
C339 C 0.28254 0.4412 0.13576 0.0
H340 H 0.28502 0.53272 0.16515 0.0
H341 H 0.30359 0.51089 0.15607 0.0
H342 H 0.29534 0.54103 0.14705 0.0
H343 H 0.2858 0.51373 0.1233 0.0
H344 H 0.33215 0.51567 0.10952 0.0
H345 H 0.64274 0.08067 0.47785 0.0
H346 H 0.69713 0.13235 0.47236 0.0
H347 H 0.69185 0.17838 0.51073 0.0
H348 H 0.63719 0.12713 0.5162 0.0
H349 H 0.70197 0.21959 0.48863 0.0
H350 H 0.79443 0.17275 0.4867 0.0
H351 H 0.75736 0.14834 0.47603 0.0
H352 H 0.75255 0.14821 0.49456 0.0
C353 C 0.65347 0.10147 0.48528 0.0
C354 C 0.63546 0.09975 0.49745 0.0
C355 C 0.6847 0.13099 0.48214 0.0
C356 C 0.69874 0.15916 0.49118 0.0
C357 C 0.68153 0.15694 0.5036 0.0
H358 H 0.89697 0.34708 0.48116 0.0
H359 H 0.84884 0.29288 0.48964 0.0
C360 C 0.65026 0.12756 0.50672 0.0
C361 C 0.72949 0.19208 0.48711 0.0
H362 H 0.81307 0.2282 0.4768 0.0
C363 C 0.72634 0.2215 0.48616 0.0
C364 C 0.76136 0.19465 0.48399 0.0
C365 C 0.76682 0.16439 0.4855 0.0
C366 C 0.7539 0.25322 0.48188 0.0
C367 C 0.78532 0.25547 0.4782 0.0
C368 C 0.78882 0.2263 0.47948 0.0
C369 C 0.8147 0.2879 0.4729 0.0
C370 C 0.74917 0.2841 0.48145 0.0
C371 C 0.81161 0.3028 0.46059 0.0
C372 C 0.83891 0.33385 0.45578 0.0
C373 C 0.87002 0.35055 0.46314 0.0
C374 C 0.87323 0.33519 0.47536 0.0
C375 C 0.84585 0.30409 0.48016 0.0
H376 H 0.72739 0.28035 0.48807 0.0
H377 H 0.77274 0.30759 0.48492 0.0
H378 H 0.74362 0.28832 0.47064 0.0
H379 H 0.78798 0.29046 0.45471 0.0
H380 H 0.83542 0.34505 0.44641 0.0
H381 H 0.57524 0.648 0.81335 0.0
H382 H 0.57759 0.70244 0.80856 0.0
H383 H 0.52502 0.69356 0.84704 0.0
H384 H 0.52191 0.63878 0.85179 0.0
H385 H 0.494 0.70442 0.82537 0.0
H386 H 0.63305 0.79908 0.82355 0.0
H387 H 0.62117 0.76285 0.8125 0.0
H388 H 0.61622 0.75674 0.83098 0.0
C389 C 0.56485 0.65796 0.82095 0.0
C390 C 0.54824 0.63887 0.83293 0.0
C391 C 0.56636 0.68923 0.81822 0.0
C392 C 0.55174 0.70227 0.82749 0.0
C393 C 0.53652 0.68403 0.83974 0.0
H394 H 0.55906 0.89928 0.81774 0.0
H395 H 0.56593 0.85184 0.82638 0.0
C396 C 0.53481 0.6527 0.84245 0.0
C397 C 0.54911 0.73289 0.82376 0.0
H398 H 0.59569 0.81692 0.81363 0.0
C399 C 0.51629 0.7291 0.82294 0.0
C400 C 0.57818 0.76519 0.8207 0.0
C401 C 0.61416 0.77138 0.8221 0.0
C402 C 0.51166 0.75639 0.8188 0.0
C403 C 0.5406 0.7882 0.8151 0.0
C404 C 0.57352 0.79238 0.81631 0.0
C405 C 0.53702 0.81716 0.80976 0.0
C406 C 0.4758 0.75094 0.81848 0.0
C407 C 0.51889 0.81353 0.79746 0.0
C408 C 0.51469 0.84042 0.79256 0.0
C409 C 0.52878 0.87166 0.79981 0.0
C410 C 0.54746 0.87541 0.81202 0.0
C411 C 0.55164 0.84844 0.81691 0.0
H412 H 0.45803 0.72904 0.82518 0.0
H413 H 0.47553 0.77431 0.82191 0.0
H414 H 0.46589 0.7451 0.80771 0.0
H415 H 0.50787 0.7898 0.79165 0.0
H416 H 0.49991 0.8365 0.7832 0.0
H417 H 0.8879 0.5055 0.14101 0.0
H418 H 0.83636 0.50943 0.13838 0.0
H419 H 0.85486 0.55952 0.17806 0.0
H420 H 0.90729 0.55616 0.18074 0.0
H421 H 0.78036 0.47907 0.15601 0.0
H422 H 0.8341 0.62037 0.15245 0.0
H423 H 0.86017 0.60073 0.15011 0.0
H424 H 0.84702 0.60502 0.16719 0.0
C425 C 0.88131 0.51765 0.14917 0.0
C426 C 0.90168 0.53038 0.16114 0.0
C427 C 0.85179 0.51987 0.14763 0.0
C428 C 0.84183 0.53483 0.15799 0.0
C429 C 0.86237 0.5483 0.16985 0.0
H430 H 0.62973 0.49357 0.15542 0.0
H431 H 0.68399 0.50105 0.16416 0.0
C432 C 0.89224 0.54626 0.17138 0.0
C433 C 0.80887 0.53431 0.15647 0.0
H434 H 0.77396 0.58538 0.15109 0.0
C435 C 0.77887 0.5023 0.15507 0.0
C436 C 0.80715 0.56469 0.15517 0.0
C437 C 0.83879 0.59973 0.1562 0.0
C438 C 0.74731 0.49976 0.15196 0.0
C439 C 0.74556 0.53012 0.15054 0.0
C440 C 0.7754 0.56218 0.15229 0.0
C441 C 0.71352 0.52899 0.14613 0.0
C442 C 0.7165 0.46462 0.14957 0.0
C443 C 0.71246 0.54346 0.13337 0.0
C444 C 0.68162 0.53965 0.12843 0.0
C445 C 0.65119 0.52125 0.13616 0.0
C446 C 0.65266 0.50799 0.14922 0.0
C447 C 0.68359 0.51196 0.15418 0.0
H448 H 0.72388 0.44473 0.14807 0.0
H449 H 0.69929 0.45713 0.15873 0.0
H450 H 0.70184 0.46476 0.14034 0.0
H451 H 0.73533 0.55688 0.12703 0.0
H452 H 0.68156 0.55081 0.11847 0.0
H453 H 0.37237 0.94563 0.47674 0.0
H454 H 0.31805 0.89687 0.46911 0.0
H455 H 0.32253 0.83514 0.50243 0.0
H456 H 0.37706 0.88352 0.51004 0.0
H457 H 0.31333 0.80491 0.47693 0.0
H458 H 0.2203 0.84993 0.48407 0.0
H459 H 0.25776 0.87923 0.47437 0.0
H460 H 0.26191 0.87058 0.49227 0.0
C461 C 0.3615 0.92192 0.48263 0.0
C462 C 0.37924 0.91852 0.49398 0.0
C463 C 0.3303 0.89408 0.47828 0.0
C464 C 0.31605 0.86243 0.48527 0.0
C465 C 0.33301 0.85936 0.49691 0.0
H466 H 0.15009 0.65667 0.46371 0.0
H467 H 0.19491 0.70613 0.47618 0.0
C468 C 0.36421 0.88711 0.50125 0.0
C469 C 0.2854 0.83167 0.47965 0.0
H470 H 0.20183 0.79984 0.47017 0.0
C471 C 0.28882 0.80363 0.4756 0.0
C472 C 0.25354 0.83016 0.47785 0.0
C473 C 0.24796 0.85895 0.48248 0.0
C474 C 0.26159 0.77451 0.46944 0.0
C475 C 0.2298 0.77308 0.46751 0.0
C476 C 0.22621 0.80096 0.47169 0.0
C477 C 0.20049 0.74341 0.46065 0.0
C478 C 0.26752 0.74606 0.46459 0.0
C479 C 0.18777 0.74812 0.44807 0.0
C480 C 0.16186 0.71998 0.441 0.0
C481 C 0.14807 0.68651 0.44639 0.0
C482 C 0.16 0.68206 0.45928 0.0
C483 C 0.18588 0.71026 0.46636 0.0
H484 H 0.29526 0.75466 0.46381 0.0
H485 H 0.25577 0.72447 0.47212 0.0
H486 H 0.25548 0.73625 0.45431 0.0
H487 H 0.19849 0.77351 0.44353 0.0
H488 H 0.15282 0.72444 0.43124 0.0
H489 H 0.50464 0.37937 0.84403 0.0
H490 H 0.49891 0.3251 0.83634 0.0
H491 H 0.43529 0.32174 0.80231 0.0
H492 H 0.44042 0.37582 0.81001 0.0
H493 H 0.41322 0.2568 0.81502 0.0
H494 H 0.55194 0.32488 0.80167 0.0
H495 H 0.54244 0.32955 0.81934 0.0
H496 H 0.52927 0.34736 0.80557 0.0
C497 C 0.489 0.36691 0.83502 0.0
C498 C 0.47335 0.38225 0.82754 0.0
C499 C 0.48588 0.33593 0.83062 0.0
C500 C 0.46729 0.31981 0.8186 0.0
C501 C 0.44994 0.33391 0.81157 0.0
H502 H 0.49025 0.18514 0.76258 0.0
H503 H 0.48702 0.23125 0.77441 0.0
C504 C 0.45292 0.36485 0.816 0.0
C505 C 0.46779 0.28961 0.81281 0.0
H506 H 0.52121 0.26491 0.79846 0.0
C507 C 0.43681 0.25845 0.81145 0.0
C508 C 0.49859 0.29204 0.808 0.0
C509 C 0.53245 0.32529 0.80858 0.0
C510 C 0.43581 0.22959 0.8054 0.0
C511 C 0.46668 0.23198 0.80074 0.0
C512 C 0.49764 0.2631 0.80215 0.0
C513 C 0.46738 0.20317 0.79364 0.0
C514 C 0.40167 0.19714 0.80367 0.0
C515 C 0.4576 0.1721 0.80056 0.0
C516 C 0.45922 0.1455 0.79377 0.0
C517 C 0.4707 0.14957 0.77995 0.0
C518 C 0.48068 0.18087 0.77313 0.0
C519 C 0.47908 0.20737 0.7799 0.0
H520 H 0.37986 0.20175 0.80507 0.0
H521 H 0.39971 0.18588 0.79324 0.0
H522 H 0.39926 0.178 0.81153 0.0
H523 H 0.44904 0.16855 0.81124 0.0
H524 H 0.45122 0.12168 0.7993 0.0
H525 H 0.50442 0.89148 0.52492 0.0
H526 H 0.51441 0.84359 0.52829 0.0
H527 H 0.57039 0.86816 0.48976 0.0
H528 H 0.56075 0.91684 0.48628 0.0
H529 H 0.51334 0.79455 0.49474 0.0
H530 H 0.60945 0.84939 0.53703 0.0
H531 H 0.57303 0.8552 0.53901 0.0
H532 H 0.60228 0.87577 0.52485 0.0
C533 C 0.519 0.88693 0.51715 0.0
C534 C 0.53176 0.908 0.5053 0.0
C535 C 0.52483 0.85962 0.51915 0.0
C536 C 0.54338 0.85261 0.50935 0.0
C537 C 0.5562 0.87342 0.49748 0.0
H538 H 0.58628 0.6865 0.52858 0.0
H539 H 0.59342 0.74044 0.51912 0.0
C540 C 0.55071 0.90116 0.49553 0.0
C541 C 0.54771 0.82246 0.51144 0.0
H542 H 0.58028 0.78835 0.53438 0.0
C543 C 0.5285 0.79332 0.50322 0.0
C544 C 0.56764 0.82108 0.52247 0.0
C545 C 0.58955 0.8521 0.5313 0.0
C546 C 0.52713 0.76214 0.50627 0.0
C547 C 0.54531 0.76018 0.51786 0.0
C548 C 0.56617 0.78989 0.52556 0.0
C549 C 0.54083 0.72703 0.52284 0.0
C550 C 0.50555 0.73127 0.49732 0.0
C551 C 0.50901 0.70189 0.52814 0.0
C552 C 0.50493 0.6713 0.53361 0.0
C553 C 0.53261 0.66523 0.53385 0.0
C554 C 0.56443 0.69035 0.52841 0.0
C555 C 0.56857 0.72115 0.52305 0.0
H556 H 0.50076 0.73888 0.48695 0.0
H557 H 0.51808 0.71563 0.49592 0.0
H558 H 0.48039 0.71492 0.50243 0.0
H559 H 0.48743 0.70618 0.52826 0.0
H560 H 0.48006 0.65232 0.53762 0.0
H561 H 0.65851 0.5713 0.82084 0.0
H562 H 0.71637 0.57924 0.82302 0.0
H563 H 0.68188 0.50729 0.85712 0.0
H564 H 0.62448 0.49884 0.85494 0.0
H565 H 0.76194 0.60131 0.84551 0.0
H566 H 0.72477 0.46843 0.83096 0.0
H567 H 0.69738 0.48631 0.82785 0.0
H568 H 0.69842 0.4694 0.84468 0.0
C569 C 0.66329 0.55716 0.82878 0.0
C570 C 0.63671 0.53415 0.8376 0.0
C571 C 0.69633 0.56173 0.83001 0.0
C572 C 0.70318 0.54326 0.84003 0.0
C573 C 0.67695 0.5211 0.84907 0.0
H574 H 0.88083 0.57243 0.88266 0.0
H575 H 0.83204 0.57536 0.8734 0.0
C576 C 0.6441 0.51644 0.84783 0.0
C577 C 0.73769 0.54711 0.84137 0.0
H578 H 0.77758 0.49993 0.84359 0.0
C579 C 0.76558 0.57931 0.84487 0.0
C580 C 0.74257 0.51854 0.84026 0.0
C581 C 0.71426 0.48381 0.83558 0.0
C582 C 0.79775 0.58322 0.84809 0.0
C583 C 0.80182 0.55401 0.84809 0.0
C584 C 0.77443 0.52228 0.84379 0.0
C585 C 0.8334 0.55509 0.85323 0.0
C586 C 0.82693 0.61855 0.85157 0.0
C587 C 0.8501 0.54209 0.8451 0.0
C588 C 0.87755 0.53959 0.8505 0.0
C589 C 0.88887 0.55001 0.86417 0.0
C590 C 0.87257 0.56378 0.87216 0.0
C591 C 0.84499 0.56604 0.86679 0.0
H592 H 0.82356 0.63885 0.84649 0.0
H593 H 0.82745 0.62247 0.86294 0.0
H594 H 0.85201 0.62176 0.84834 0.0
H595 H 0.8414 0.53316 0.83466 0.0
H596 H 0.88911 0.5284 0.84411 0.0
H597 H 0.06455 0.64592 0.1889 0.0
H598 H 0.11286 0.70016 0.19689 0.0
H599 H 0.17851 0.69158 0.16663 0.0
H600 H 0.13034 0.63768 0.15842 0.0
H601 H 0.1708 0.7051 0.20829 0.0
H602 H 0.2059 0.79213 0.16282 0.0
H603 H 0.16514 0.75279 0.1642 0.0
H604 H 0.20288 0.75172 0.15899 0.0
C605 C 0.08905 0.6559 0.18372 0.0
C606 C 0.09351 0.63729 0.17304 0.0
C607 C 0.11668 0.68692 0.18833 0.0
C608 C 0.14925 0.7001 0.18229 0.0
C609 C 0.15349 0.68231 0.17126 0.0
H610 H 0.35573 0.85426 0.20599 0.0
H611 H 0.30476 0.80939 0.19419 0.0
C612 C 0.12588 0.65132 0.16663 0.0
C613 C 0.17939 0.73035 0.18847 0.0
H614 H 0.24678 0.81035 0.18123 0.0
C615 C 0.18719 0.72825 0.20241 0.0
C616 C 0.20095 0.7604 0.18075 0.0
C617 C 0.19318 0.76463 0.1659 0.0
C618 C 0.21625 0.75507 0.20877 0.0
C619 C 0.23786 0.78507 0.20105 0.0
C620 C 0.23013 0.78729 0.18711 0.0
C621 C 0.26863 0.81426 0.20736 0.0
C622 C 0.22409 0.75073 0.22361 0.0
C623 C 0.26516 0.83245 0.21841 0.0
C624 C 0.29414 0.8581 0.22513 0.0
C625 C 0.32724 0.86617 0.22091 0.0
C626 C 0.33065 0.84882 0.20945 0.0
C627 C 0.30157 0.82312 0.20273 0.0
H628 H 0.20969 0.72343 0.22699 0.0
H629 H 0.25194 0.76053 0.22501 0.0
H630 H 0.2167 0.76565 0.23049 0.0
H631 H 0.23995 0.82642 0.22197 0.0
H632 H 0.29061 0.87146 0.23372 0.0
H633 H 0.45222 0.10109 0.49128 0.0
H634 H 0.44617 0.15151 0.49585 0.0
H635 H 0.51195 0.17589 0.53153 0.0
H636 H 0.51846 0.12647 0.52705 0.0
H637 H 0.42167 0.16902 0.5195 0.0
H638 H 0.55731 0.26573 0.5096 0.0
H639 H 0.53861 0.22163 0.50408 0.0
H640 H 0.55348 0.23353 0.52163 0.0
C641 C 0.4654 0.11725 0.50008 0.0
C642 C 0.48611 0.10987 0.5087 0.0
C643 C 0.46194 0.14602 0.50266 0.0
C644 C 0.47927 0.16785 0.51384 0.0
C645 C 0.49911 0.15995 0.52262 0.0
H646 H 0.45089 0.29914 0.56704 0.0
H647 H 0.4469 0.25181 0.55342 0.0
C648 C 0.50264 0.13146 0.52007 0.0
C649 C 0.47643 0.19863 0.51676 0.0
H650 H 0.52581 0.28385 0.52417 0.0
C651 C 0.4443 0.1943 0.52026 0.0
C652 C 0.50585 0.23174 0.51745 0.0
C653 C 0.54069 0.23853 0.51284 0.0
C654 C 0.44121 0.22178 0.52541 0.0
C655 C 0.47114 0.25414 0.52737 0.0
C656 C 0.50288 0.25896 0.52289 0.0
C657 C 0.47076 0.28247 0.53507 0.0
C658 C 0.40598 0.21568 0.52891 0.0
C659 C 0.48616 0.31574 0.52943 0.0
C660 C 0.48922 0.34314 0.53734 0.0
C661 C 0.47707 0.33782 0.55108 0.0
C662 C 0.46094 0.30429 0.55656 0.0
C663 C 0.45807 0.27701 0.54869 0.0
H664 H 0.3861 0.19519 0.5223 0.0
H665 H 0.3999 0.20703 0.53986 0.0
H666 H 0.40449 0.2394 0.5276 0.0
H667 H 0.49648 0.32065 0.51899 0.0
H668 H 0.50213 0.36866 0.53283 0.0
H669 H 0.36503 0.45693 0.82298 0.0
H670 H 0.30842 0.45116 0.82679 0.0
H671 H 0.34591 0.51119 0.86411 0.0
H672 H 0.40199 0.51742 0.86039 0.0
H673 H 0.26278 0.4239 0.8495 0.0
H674 H 0.30686 0.56169 0.84227 0.0
H675 H 0.33196 0.54275 0.83678 0.0
H676 H 0.33302 0.55531 0.85456 0.0
C677 C 0.36114 0.46886 0.83199 0.0
C678 C 0.3882 0.48796 0.84128 0.0
C679 C 0.32884 0.46557 0.83414 0.0
C680 C 0.32327 0.48145 0.84555 0.0
C681 C 0.34991 0.49953 0.85502 0.0
H682 H 0.15953 0.45066 0.89661 0.0
H683 H 0.20276 0.44622 0.88311 0.0
C684 C 0.38199 0.5029 0.85289 0.0
C685 C 0.2897 0.47909 0.84796 0.0
H686 H 0.25514 0.52918 0.85575 0.0
C687 C 0.26082 0.44682 0.8506 0.0
C688 C 0.28693 0.50892 0.84907 0.0
C689 C 0.31628 0.54408 0.84536 0.0
C690 C 0.22997 0.44387 0.85533 0.0
C691 C 0.22833 0.47402 0.85776 0.0
C692 C 0.25644 0.50604 0.8541 0.0
C693 C 0.19924 0.47348 0.86521 0.0
C694 C 0.1997 0.40851 0.8579 0.0
C695 C 0.18315 0.49078 0.85979 0.0
C696 C 0.15891 0.4941 0.86766 0.0
C697 C 0.15039 0.48027 0.88114 0.0
C698 C 0.1658 0.46204 0.88635 0.0
C699 C 0.19013 0.45893 0.87852 0.0
H700 H 0.20039 0.38932 0.8509 0.0
H701 H 0.20072 0.4006 0.86872 0.0
H702 H 0.17503 0.40798 0.85638 0.0
H703 H 0.19002 0.50254 0.8496 0.0
H704 H 0.14787 0.50863 0.86337 0.0
H705 H 0.8787 0.38238 0.1539 0.0
H706 H 0.82881 0.32739 0.16026 0.0
H707 H 0.8877 0.31354 0.19222 0.0
H708 H 0.93772 0.3688 0.18609 0.0
H709 H 0.81666 0.25961 0.16216 0.0
H710 H 0.80713 0.30988 0.21353 0.0
H711 H 0.83408 0.3375 0.19977 0.0
H712 H 0.84771 0.31304 0.20997 0.0
C713 C 0.88127 0.36752 0.16218 0.0
C714 C 0.91219 0.3803 0.16959 0.0
C715 C 0.85267 0.33605 0.1658 0.0
C716 C 0.85436 0.31675 0.1769 0.0
C717 C 0.88567 0.32841 0.18381 0.0
H718 H 0.6944 0.1357 0.21942 0.0
H719 H 0.74941 0.18311 0.21136 0.0
C720 C 0.9143 0.35993 0.18022 0.0
C721 C 0.8229 0.28536 0.18163 0.0
H722 H 0.76738 0.25175 0.20893 0.0
C723 C 0.8059 0.25781 0.1724 0.0
C724 C 0.80887 0.28315 0.19497 0.0
C725 C 0.82514 0.31253 0.20512 0.0
C726 C 0.77532 0.228 0.17619 0.0
C727 C 0.76113 0.22597 0.18949 0.0
C728 C 0.77837 0.25334 0.19877 0.0
C729 C 0.72795 0.19616 0.1939 0.0
C730 C 0.75866 0.19879 0.16601 0.0
C731 C 0.69759 0.18791 0.18681 0.0
C732 C 0.66607 0.16096 0.19144 0.0
C733 C 0.66425 0.14186 0.20332 0.0
C734 C 0.6948 0.15013 0.21034 0.0
C735 C 0.72629 0.17708 0.20571 0.0
H736 H 0.77715 0.20034 0.15802 0.0
H737 H 0.74763 0.17359 0.17138 0.0
H738 H 0.73754 0.19998 0.16061 0.0
H739 H 0.69815 0.20283 0.17788 0.0
H740 H 0.64302 0.1557 0.18593 0.0
H741 H 0.05804 0.55908 0.11009 0.0
H742 H 0.05771 0.56294 0.08478 0.0
H743 H 0.9561 0.47418 0.08372 0.0
H744 H 0.95588 0.4704 0.10898 0.0
H745 H 0.05043 0.51618 0.06457 0.0
H746 H 0.94463 0.54503 0.06157 0.0
H747 H 0.9664 0.5473 0.07759 0.0
H748 H 0.9336 0.50649 0.07108 0.0
C749 C 0.03559 0.54037 0.10449 0.0
C750 C 0.00687 0.51459 0.11161 0.0
C751 C 0.03548 0.54262 0.09002 0.0
C752 C 0.00665 0.51922 0.08239 0.0
C753 C 0.9783 0.49298 0.08942 0.0
H754 H 0.99276 0.47697 0.99411 0.0
H755 H 0.99765 0.47591 0.01935 0.0
C756 C 0.97832 0.49077 0.10388 0.0
C757 C 0.00625 0.52213 0.06707 0.0
H758 H 0.96212 0.53181 0.04033 0.0
C759 C 0.03123 0.51975 0.05925 0.0
C760 C 0.98149 0.5273 0.06018 0.0
C761 C 0.95521 0.53203 0.06802 0.0
C762 C 0.03166 0.52166 0.0447 0.0
C763 C 0.00606 0.52546 0.0378 0.0
C764 C 0.98153 0.52856 0.04563 0.0
C765 C 0.00424 0.52647 0.02245 0.0
C766 C 0.05982 0.52011 0.03688 0.0
C767 C 0.00563 0.55493 0.01581 0.0
C768 C 0.00265 0.55552 0.0014 0.0
C769 C 0.9981 0.52758 0.99332 0.0
C770 C 0.99679 0.49912 1.0 0.0
C771 C 0.99965 0.4985 0.01443 0.0
H772 H 0.08232 0.52685 0.04362 0.0
H773 H 0.05001 0.49358 0.03306 0.0
H774 H 0.06844 0.53775 0.02781 0.0
H775 H 0.00907 0.57675 0.0218 0.0
H776 H 0.00413 0.57798 0.99657 0.0
H777 H 0.53964 0.98914 0.44539 0.0
H778 H 0.54153 0.99287 0.42004 0.0
H779 H 0.48271 0.04424 0.42099 0.0
H780 H 0.48036 0.04051 0.44635 0.0
H781 H 0.47303 0.96945 0.40093 0.0
H782 H 0.5813 0.10456 0.39796 0.0
H783 H 0.57709 0.07665 0.41227 0.0
H784 H 0.54819 0.09289 0.41084 0.0
C785 C 0.52706 0.00122 0.44024 0.0
C786 C 0.50988 0.01457 0.44793 0.0
C787 C 0.52814 0.00326 0.42576 0.0
C788 C 0.51235 0.0189 0.41873 0.0
C789 C 0.49509 0.03214 0.4263 0.0
H790 H 0.51882 0.07591 0.3321 0.0
H791 H 0.51243 0.07073 0.35735 0.0
C792 C 0.49377 0.02993 0.44078 0.0
C793 C 0.51406 0.0215 0.40345 0.0
H794 H 0.55769 0.07647 0.37688 0.0
C795 C 0.49147 0.99279 0.39562 0.0
C796 C 0.53797 0.05209 0.39667 0.0
C797 C 0.56271 0.08344 0.40478 0.0
C798 C 0.4921 0.99392 0.38105 0.0
C799 C 0.51661 0.02434 0.37421 0.0
C800 C 0.53899 0.05315 0.38212 0.0
C801 C 0.5197 0.02684 0.35886 0.0
C802 C 0.46602 0.96277 0.37318 0.0
C803 C 0.52626 0.00412 0.35132 0.0
C804 C 0.52972 0.00691 0.3369 0.0
C805 C 0.52724 0.03284 0.32975 0.0
C806 C 0.52108 0.05582 0.33733 0.0
C807 C 0.51733 0.05282 0.35174 0.0
H808 H 0.44319 0.94618 0.37967 0.0
H809 H 0.45742 0.97026 0.36368 0.0
H810 H 0.47776 0.94726 0.37005 0.0
H811 H 0.52919 0.98449 0.35661 0.0
H812 H 0.53504 0.9892 0.33136 0.0
H813 H 0.56415 0.55366 0.77944 0.0
H814 H 0.56311 0.55652 0.75415 0.0
H815 H 0.45509 0.4818 0.75424 0.0
H816 H 0.45588 0.47832 0.77953 0.0
H817 H 0.49171 0.4684 0.73451 0.0
H818 H 0.52217 0.60394 0.7314 0.0
H819 H 0.55253 0.59792 0.74126 0.0
H820 H 0.5091 0.5795 0.74734 0.0
C821 C 0.54011 0.53784 0.77411 0.0
C822 C 0.51004 0.51589 0.78156 0.0
C823 C 0.53956 0.53966 0.75964 0.0
C824 C 0.50891 0.5198 0.75233 0.0
C825 C 0.47898 0.49749 0.75969 0.0
H826 H 0.47048 0.54927 0.66656 0.0
H827 H 0.46969 0.54363 0.69181 0.0
C828 C 0.47949 0.49559 0.77416 0.0
C829 C 0.50812 0.52198 0.73699 0.0
H830 H 0.52282 0.57755 0.71021 0.0
C831 C 0.49842 0.49223 0.72919 0.0
C832 C 0.51645 0.55299 0.73009 0.0
C833 C 0.52534 0.58535 0.73793 0.0
C834 C 0.49733 0.49278 0.71463 0.0
C835 C 0.50673 0.52405 0.70771 0.0
C836 C 0.51592 0.55367 0.71553 0.0
C837 C 0.50681 0.52661 0.69237 0.0
C838 C 0.48555 0.45974 0.70682 0.0
C839 C 0.52814 0.51915 0.68429 0.0
C840 C 0.52868 0.52239 0.66985 0.0
C841 C 0.50813 0.53347 0.66321 0.0
C842 C 0.48688 0.54102 0.67135 0.0
C843 C 0.48629 0.53768 0.68578 0.0
H844 H 0.47074 0.43689 0.71358 0.0
H845 H 0.46938 0.45791 0.69781 0.0
H846 H 0.50829 0.45902 0.70288 0.0
H847 H 0.54479 0.51134 0.68918 0.0
H848 H 0.54574 0.51693 0.66391 0.0
H849 H 0.54932 0.04943 0.55868 0.0
H850 H 0.54852 0.04454 0.58395 0.0
H851 H 0.45578 0.94599 0.58172 0.0
H852 H 0.45667 0.95026 0.55644 0.0
H853 H 0.50031 0.03793 0.60298 0.0
H854 H 0.51788 0.92457 0.60504 0.0
H855 H 0.5244 0.94917 0.58938 0.0
H856 H 0.48175 0.91795 0.59486 0.0
C857 C 0.52875 0.02666 0.56354 0.0
C858 C 0.5032 1.00011 0.5555 0.0
C859 C 0.52833 0.02394 0.57799 0.0
C860 C 0.50242 0.99465 0.5847 0.0
C861 C 0.47646 0.96846 0.57674 0.0
H862 H 0.45329 0.97599 0.67284 0.0
H863 H 0.4533 0.98175 0.64758 0.0
C864 C 0.47693 0.97105 0.56228 0.0
C865 C 0.50249 0.9917 0.60002 0.0
H866 H 0.50482 0.94191 0.6263 0.0
C867 C 0.50136 0.01699 0.60809 0.0
C868 C 0.50433 0.96459 0.60666 0.0
C869 C 0.5075 0.93769 0.59856 0.0
C870 C 0.50162 0.0157 0.62264 0.0
C871 C 0.50238 0.98801 0.62927 0.0
C872 C 0.5039 0.96294 0.6212 0.0
C873 C 0.50236 0.98488 0.64459 0.0
C874 C 0.5018 0.04437 0.63077 0.0
C875 C 0.52953 0.98393 0.65126 0.0
C876 C 0.52951 0.98046 0.66566 0.0
C877 C 0.50222 0.97776 0.67369 0.0
C878 C 0.47493 0.97857 0.66697 0.0
C879 C 0.47493 0.98191 0.65254 0.0
H880 H 0.51035 0.06777 0.6243 0.0
H881 H 0.47542 0.03588 0.63447 0.0
H882 H 0.51884 0.0512 0.63995 0.0
H883 H 0.55093 0.98613 0.64531 0.0
H884 H 0.55108 0.98031 0.67053 0.0
H885 H 0.4935 0.53693 0.89288 0.0
H886 H 0.49503 0.53365 0.91815 0.0
H887 H 0.53711 0.46655 0.91489 0.0
H888 H 0.535 0.46903 0.88961 0.0
H889 H 0.48594 0.44373 0.93406 0.0
H890 H 0.57933 0.58173 0.94252 0.0
H891 H 0.54214 0.57433 0.93292 0.0
H892 H 0.5712 0.56218 0.92561 0.0
C893 C 0.50318 0.52154 0.89752 0.0
C894 C 0.5143 0.50339 0.8892 0.0
C895 C 0.50421 0.51985 0.91198 0.0
C896 C 0.51676 0.50035 0.91841 0.0
C897 C 0.52748 0.48188 0.91014 0.0
H898 H 0.58001 0.51533 0.00417 0.0
H899 H 0.57667 0.51623 0.97891 0.0
C900 C 0.52627 0.48337 0.89569 0.0
C901 C 0.5183 0.49875 0.93374 0.0
H902 H 0.55226 0.54822 0.96259 0.0
C903 C 0.5005 0.46656 0.9403 0.0
C904 C 0.5377 0.52852 0.94186 0.0
C905 C 0.55896 0.56361 0.93538 0.0
C906 C 0.50127 0.46333 0.95477 0.0
C907 C 0.51975 0.49321 0.96291 0.0
C908 C 0.53783 0.52537 0.95634 0.0
C909 C 0.52134 0.49171 0.97825 0.0
C910 C 0.48291 0.42788 0.96115 0.0
C911 C 0.49135 0.4778 0.9863 0.0
C912 C 0.49312 0.4768 0.00076 0.0
C913 C 0.52499 0.49005 0.00748 0.0
C914 C 0.555 0.5043 0.99936 0.0
C915 C 0.55317 0.50512 0.98491 0.0
H916 H 0.47831 0.40776 0.95343 0.0
H917 H 0.49776 0.42588 0.96993 0.0
H918 H 0.45762 0.42252 0.96515 0.0
H919 H 0.46656 0.46794 0.98141 0.0
H920 H 0.46948 0.46541 0.00666 0.0
H921 H 0.99082 0.54657 0.22172 0.0
H922 H 0.98914 0.5442 0.24704 0.0
H923 H 0.00869 0.4598 0.24627 0.0
H924 H 0.01107 0.46234 0.22096 0.0
H925 H 0.94568 0.49109 0.26402 0.0
H926 H 0.08025 0.52468 0.27361 0.0
H927 H 0.06575 0.5307 0.25695 0.0
H928 H 0.05767 0.48887 0.26216 0.0
C929 C 0.99497 0.52761 0.22691 0.0
C930 C 0.00125 0.50474 0.21928 0.0
C931 C 0.99399 0.5263 0.2414 0.0
C932 C 0.99934 0.50221 0.24855 0.0
C933 C 0.00532 0.47916 0.24098 0.0
H934 H 0.98786 0.43988 0.33425 0.0
H935 H 0.99251 0.44583 0.30898 0.0
C936 C 0.00646 0.48052 0.22649 0.0
C937 C 0.99742 0.50039 0.26391 0.0
H938 H 0.04237 0.50396 0.293 0.0
C939 C 0.9669 0.49416 0.27037 0.0
C940 C 0.02516 0.50442 0.27217 0.0
C941 C 0.05918 0.51287 0.26589 0.0
C942 C 0.96309 0.49107 0.28484 0.0
C943 C 0.99067 0.49469 0.29306 0.0
C944 C 0.02125 0.50111 0.28664 0.0
C945 C 0.98811 0.49148 0.30836 0.0
C946 C 0.92933 0.48315 0.29121 0.0
C947 C 0.98452 0.51545 0.31636 0.0
C948 C 0.98178 0.51209 0.3308 0.0
C949 C 0.9826 0.48468 0.33748 0.0
C950 C 0.98663 0.46097 0.32941 0.0
C951 C 0.98951 0.46445 0.31499 0.0
H952 H 0.90851 0.47387 0.28337 0.0
H953 H 0.92161 0.46343 0.2995 0.0
H954 H 0.93209 0.50681 0.29596 0.0
H955 H 0.98384 0.53676 0.31144 0.0
H956 H 0.97849 0.53064 0.33671 0.0
loop_
_geom_bond_atom_site_label_1
_geom_bond_atom_site_label_2
_geom_bond_distance
_geom_bond_site_symmetry_2
_ccdc_geom_bond_type
O0 Zn1 1.953 . S
O0 C16 1.225 1_655 S
Zn1 O0 1.953 . S
Zn1 O2 1.949 1_655 S
Zn1 O8 1.919 . S
Zn1 O13 1.924 1_655 S
O2 Zn1 1.949 1_455 S
O2 Zn3 1.923 1_455 S
O2 Zn4 1.950 . S
O2 Zn5 1.945 . S
Zn3 O2 1.923 1_655 S
Zn3 O6 1.933 . S
Zn3 O9 1.941 . S
Zn3 O10 1.965 . S
Zn4 O2 1.950 . S
Zn4 O11 1.938 1_455 S
Zn4 O12 1.906 . S
Zn4 O22 1.953 . S
Zn5 O2 1.945 . S
Zn5 O7 1.932 . S
Zn5 O14 1.977 . S
Zn5 O15 1.910 . S
O6 Zn3 1.933 . S
O6 C17 1.226 1_655 S
O7 Zn5 1.932 . S
O7 C17 1.307 . S
O8 Zn1 1.919 . S
O8 C19 1.253 . S
O9 Zn3 1.941 . S
O9 C19 1.283 . S
O10 Zn3 1.965 . S
O10 C18 1.303 . S
O11 Zn4 1.938 1_655 S
O11 C18 1.247 . S
O12 Zn4 1.906 . S
O12 C20 1.304 . S
O13 Zn1 1.924 1_455 S
O13 C21 1.311 . S
O14 Zn5 1.977 . S
O14 C20 1.272 . S
O15 Zn5 1.910 . S
O15 C21 1.231 . S
C16 O0 1.225 1_455 S
C16 O22 1.298 . S
C17 O6 1.226 1_455 S
C17 O7 1.307 . S
C18 O10 1.303 . S
C18 O11 1.247 . S
C19 O8 1.253 . S
C19 O9 1.283 . S
C20 O12 1.304 . S
C20 O14 1.272 . S
C21 O13 1.311 . S
C21 O15 1.231 . S
O22 Zn4 1.953 . S
O22 C16 1.298 . S
O23 Zn24 1.953 . S
O23 C39 1.225 . S
Zn24 O23 1.953 . S
Zn24 O25 1.949 . S
Zn24 O31 1.919 . S
Zn24 O36 1.924 1_545 S
O25 Zn24 1.949 . S
O25 Zn26 1.923 . S
O25 Zn27 1.950 1_545 S
O25 Zn28 1.945 1_545 S
Zn26 O25 1.923 . S
Zn26 O29 1.933 . S
Zn26 O32 1.941 . S
Zn26 O33 1.965 . S
Zn27 O25 1.950 1_565 S
Zn27 O34 1.938 1_565 S
Zn27 O35 1.906 . S
Zn27 O45 1.953 . S
Zn28 O25 1.945 1_565 S
Zn28 O30 1.932 . S
Zn28 O37 1.977 . S
Zn28 O38 1.910 . S
O29 Zn26 1.933 . S
O29 C40 1.226 . S
O30 Zn28 1.932 . S
O30 C40 1.307 1_565 S
O31 Zn24 1.919 . S
O31 C42 1.253 . S
O32 Zn26 1.941 . S
O32 C42 1.283 . S
O33 Zn26 1.965 . S
O33 C41 1.303 . S
O34 Zn27 1.938 1_545 S
O34 C41 1.247 . S
O35 Zn27 1.906 . S
O35 C43 1.304 . S
O36 Zn24 1.924 1_565 S
O36 C44 1.311 . S
O37 Zn28 1.977 . S
O37 C43 1.272 . S
O38 Zn28 1.910 . S
O38 C44 1.231 . S
C39 O23 1.225 . S
C39 O45 1.298 1_545 S
C40 O29 1.226 . S
C40 O30 1.307 1_545 S
C41 O33 1.303 . S
C41 O34 1.247 . S
C42 O31 1.253 . S
C42 O32 1.283 . S
C43 O35 1.304 . S
C43 O37 1.272 . S
C44 O36 1.311 . S
C44 O38 1.231 . S
O45 Zn27 1.953 . S
O45 C39 1.298 1_565 S
O46 Zn47 1.953 . S
O46 C62 1.225 . S
Zn47 O46 1.953 . S
Zn47 O48 1.949 . S
Zn47 O54 1.919 . S
Zn47 O59 1.924 . S
O48 Zn47 1.949 . S
O48 Zn49 1.923 . S
O48 Zn50 1.950 . S
O48 Zn51 1.945 . S
Zn49 O48 1.923 . S
Zn49 O52 1.933 . S
Zn49 O55 1.941 . S
Zn49 O56 1.965 . S
Zn50 O48 1.950 . S
Zn50 O57 1.938 . S
Zn50 O58 1.906 . S
Zn50 O68 1.953 . S
Zn51 O48 1.945 . S
Zn51 O53 1.932 . S
Zn51 O60 1.977 . S
Zn51 O61 1.910 . S
O52 Zn49 1.933 . S
O52 C63 1.226 . S
O53 Zn51 1.932 . S
O53 C63 1.307 . S
O54 Zn47 1.919 . S
O54 C65 1.253 . S
O55 Zn49 1.941 . S
O55 C65 1.283 . S
O56 Zn49 1.965 . S
O56 C64 1.303 . S
O57 Zn50 1.938 . S
O57 C64 1.247 . S
O58 Zn50 1.906 . S
O58 C66 1.304 . S
O59 Zn47 1.924 . S
O59 C67 1.311 . S
O60 Zn51 1.977 . S
O60 C66 1.272 . S
O61 Zn51 1.910 . S
O61 C67 1.231 . S
C62 O46 1.225 . S
C62 O68 1.298 . S
C63 O52 1.226 . S
C63 O53 1.307 . S
C64 O56 1.303 . S
C64 O57 1.247 . S
C65 O54 1.253 . S
C65 O55 1.283 . S
C66 O58 1.304 . S
C66 O60 1.272 . S
C67 O59 1.311 . S
C67 O61 1.231 . S
O68 Zn50 1.953 . S
O68 C62 1.298 . S
C69 C70 1.264 . S
C69 C74 1.479 . S
C69 C79 1.465 . S
C70 C69 1.264 . S
C70 C72 1.339 . S
C70 H97 0.931 . S
C71 C72 1.395 . S
C71 C73 1.320 . S
C72 C70 1.339 . S
C72 C71 1.395 . S
C72 H98 0.929 . S
C73 C71 1.320 . S
C73 C74 1.405 . S
C73 H99 0.930 . S
C74 C69 1.479 . S
C74 C73 1.405 . S
C74 H100 0.931 . S
U75 O76 2.454 1_545 S
U75 O77 2.458 1_545 S
U75 C78 2.984 1_545 S
U75 C79 2.847 . S
U75 C92 2.882 . S
U75 O93 2.441 . S
U75 O94 2.420 . S
U75 O95 2.455 1_545 S
U75 O96 2.449 . S
O76 U75 2.454 1_565 S
O76 C78 1.353 . S
O77 U75 2.458 1_565 S
O77 C78 1.286 . S
C78 U75 2.984 1_565 S
C78 O76 1.353 . S
C78 O77 1.286 . S
C78 C80 1.363 . S
C79 C69 1.465 . S
C79 U75 2.847 . S
C79 O93 1.249 . S
C79 O94 1.202 . S
C80 C78 1.363 . S
C80 C82 1.408 . S
C80 C85 1.342 . S
C81 C82 1.310 . S
C81 C84 1.461 . S
C81 H101 0.932 . S
C82 C80 1.408 . S
C82 C81 1.310 . S
C82 H102 0.930 . S
C83 C84 1.474 . S
C83 C85 1.285 . S
C83 H103 0.929 . S
C84 C81 1.461 . S
C84 C83 1.474 . S
C85 C80 1.342 . S
C85 C83 1.285 . S
C85 H104 0.930 . S
C86 C89 1.424 . S
C86 C91 1.245 1_545 S
C86 C92 1.428 . S
C87 C90 1.260 1_565 S
C87 C91 1.477 . S
C87 H105 0.932 . S
C88 C89 1.384 . S
C88 C90 1.479 . S
C88 H106 0.929 . S
C89 C86 1.424 . S
C89 C88 1.384 . S
C89 H107 0.928 . S
C90 C87 1.260 1_545 S
C90 C88 1.479 . S
C91 C86 1.245 1_565 S
C91 C87 1.477 . S
C91 H108 0.932 . S
C92 U75 2.882 . S
C92 C86 1.428 . S
C92 O95 1.301 1_545 S
C92 O96 1.282 . S
O93 U75 2.441 . S
O93 C79 1.249 . S
O94 U75 2.420 . S
O94 C79 1.202 . S
O95 U75 2.455 1_565 S
O95 C92 1.301 1_565 S
O96 U75 2.449 . S
O96 C92 1.282 . S
H97 C70 0.931 . S
H98 C72 0.929 . S
H99 C73 0.930 . S
H100 C74 0.931 . S
H101 C81 0.932 . S
H102 C82 0.930 . S
H103 C83 0.929 . S
H104 C85 0.930 . S
H105 C87 0.932 . S
H106 C88 0.929 . S
H107 C89 0.928 . S
H108 C91 0.932 . S
C109 C110 1.264 . S
C109 C114 1.479 . S
C109 C119 1.465 . S
C110 C109 1.264 . S
C110 C112 1.339 . S
C110 H137 0.931 . S
C111 C112 1.395 . S
C111 C113 1.320 . S
C112 C110 1.339 . S
C112 C111 1.395 . S
C112 H138 0.929 . S
C113 C111 1.320 . S
C113 C114 1.405 . S
C113 H139 0.930 . S
C114 C109 1.479 . S
C114 C113 1.405 . S
C114 H140 0.931 . S
U115 O116 2.454 . S
U115 O117 2.458 . S
U115 C118 2.984 . S
U115 C119 2.847 . S
U115 C132 2.882 . S
U115 O133 2.441 . S
U115 O134 2.420 . S
U115 O135 2.455 . S
U115 O136 2.449 . S
O116 U115 2.454 . S
O116 C118 1.353 . S
O117 U115 2.458 . S
O117 C118 1.286 . S
C118 U115 2.984 . S
C118 O116 1.353 . S
C118 O117 1.286 . S
C118 C120 1.363 . S
C119 C109 1.465 . S
C119 U115 2.847 . S
C119 O133 1.249 . S
C119 O134 1.202 . S
C120 C118 1.363 . S
C120 C122 1.408 . S
C120 C125 1.342 . S
C121 C122 1.310 . S
C121 C124 1.461 . S
C121 H141 0.932 . S
C122 C120 1.408 . S
C122 C121 1.310 . S
C122 H142 0.930 . S
C123 C124 1.474 . S
C123 C125 1.285 . S
C123 H143 0.929 . S
C124 C121 1.461 . S
C124 C123 1.474 . S
C125 C120 1.342 . S
C125 C123 1.285 . S
C125 H144 0.930 . S
C126 C129 1.424 . S
C126 C131 1.245 . S
C126 C132 1.428 . S
C127 C130 1.260 . S
C127 C131 1.477 . S
C127 H145 0.932 . S
C128 C129 1.384 . S
C128 C130 1.479 . S
C128 H146 0.929 . S
C129 C126 1.424 . S
C129 C128 1.384 . S
C129 H147 0.928 . S
C130 C127 1.260 . S
C130 C128 1.479 . S
C131 C126 1.245 . S
C131 C127 1.477 . S
C131 H148 0.932 . S
C132 U115 2.882 . S
C132 C126 1.428 . S
C132 O135 1.301 . S
C132 O136 1.282 . S
O133 U115 2.441 . S
O133 C119 1.249 . S
O134 U115 2.420 . S
O134 C119 1.202 . S
O135 U115 2.455 . S
O135 C132 1.301 . S
O136 U115 2.449 . S
O136 C132 1.282 . S
H137 C110 0.931 . S
H138 C112 0.929 . S
H139 C113 0.930 . S
H140 C114 0.931 . S
H141 C121 0.932 . S
H142 C122 0.930 . S
H143 C123 0.929 . S
H144 C125 0.930 . S
H145 C127 0.932 . S
H146 C128 0.929 . S
H147 C129 0.928 . S
H148 C131 0.932 . S
C149 C150 1.264 . S
C149 C154 1.479 . S
C149 C159 1.465 . S
C150 C149 1.264 . S
C150 C152 1.339 . S
C150 H177 0.931 . S
C151 C152 1.395 . S
C151 C153 1.320 . S
C152 C150 1.339 . S
C152 C151 1.395 . S
C152 H178 0.929 . S
C153 C151 1.320 . S
C153 C154 1.405 . S
C153 H179 0.930 . S
C154 C149 1.479 . S
C154 C153 1.405 . S
C154 H180 0.931 . S
U155 O156 2.454 . S
U155 O157 2.458 . S
U155 C158 2.984 . S
U155 C159 2.847 1_455 S
U155 C172 2.882 . S
U155 O173 2.441 1_455 S
U155 O174 2.420 1_455 S
U155 O175 2.455 . S
U155 O176 2.449 1_455 S
O156 U155 2.454 . S
O156 C158 1.353 . S
O157 U155 2.458 . S
O157 C158 1.286 . S
C158 U155 2.984 . S
C158 O156 1.353 . S
C158 O157 1.286 . S
C158 C160 1.363 . S
C159 C149 1.465 . S
C159 U155 2.847 1_655 S
C159 O173 1.249 . S
C159 O174 1.202 . S
C160 C158 1.363 . S
C160 C162 1.408 . S
C160 C165 1.342 . S
C161 C162 1.310 . S
C161 C164 1.461 . S
C161 H181 0.932 . S
C162 C160 1.408 . S
C162 C161 1.310 . S
C162 H182 0.930 . S
C163 C164 1.474 . S
C163 C165 1.285 . S
C163 H183 0.929 . S
C164 C161 1.461 . S
C164 C163 1.474 . S
C165 C160 1.342 . S
C165 C163 1.285 . S
C165 H184 0.930 . S
C166 C169 1.424 1_455 S
C166 C171 1.245 . S
C166 C172 1.428 . S
C167 C170 1.260 . S
C167 C171 1.477 . S
C167 H185 0.932 . S
C168 C169 1.384 . S
C168 C170 1.479 1_655 S
C168 H186 0.929 . S
C169 C166 1.424 1_655 S
C169 C168 1.384 . S
C169 H187 0.928 . S
C170 C167 1.260 . S
C170 C168 1.479 1_455 S
C171 C166 1.245 . S
C171 C167 1.477 . S
C171 H188 0.932 . S
C172 U155 2.882 . S
C172 C166 1.428 . S
C172 O175 1.301 . S
C172 O176 1.282 1_455 S
O173 U155 2.441 1_655 S
O173 C159 1.249 . S
O174 U155 2.420 1_655 S
O174 C159 1.202 . S
O175 U155 2.455 . S
O175 C172 1.301 . S
O176 U155 2.449 1_655 S
O176 C172 1.282 1_655 S
H177 C150 0.931 . S
H178 C152 0.929 . S
H179 C153 0.930 . S
H180 C154 0.931 . S
H181 C161 0.932 . S
H182 C162 0.930 . S
H183 C163 0.929 . S
H184 C165 0.930 . S
H185 C167 0.932 . S
H186 C168 0.929 . S
H187 C169 0.928 . S
H188 C171 0.932 . S
C189 C190 1.264 . S
C189 C194 1.479 . S
C189 C199 1.465 . S
C190 C189 1.264 . S
C190 C192 1.339 . S
C190 H217 0.931 . S
C191 C192 1.395 . S
C191 C193 1.320 . S
C192 C190 1.339 . S
C192 C191 1.395 . S
C192 H218 0.929 . S
C193 C191 1.320 . S
C193 C194 1.405 . S
C193 H219 0.930 . S
C194 C189 1.479 . S
C194 C193 1.405 . S
C194 H220 0.931 . S
U195 O196 2.454 1_655 S
U195 O197 2.458 1_655 S
U195 C198 2.984 1_655 S
U195 C199 2.847 . S
U195 C212 2.882 . S
U195 O213 2.441 . S
U195 O214 2.420 . S
U195 O215 2.455 1_655 S
U195 O216 2.449 . S
O196 U195 2.454 1_455 S
O196 C198 1.353 . S
O197 U195 2.458 1_455 S
O197 C198 1.286 . S
C198 U195 2.984 1_455 S
C198 O196 1.353 . S
C198 O197 1.286 . S
C198 C200 1.363 . S
C199 C189 1.465 . S
C199 U195 2.847 . S
C199 O213 1.249 . S
C199 O214 1.202 . S
C200 C198 1.363 . S
C200 C202 1.408 . S
C200 C205 1.342 . S
C201 C202 1.310 . S
C201 C204 1.461 . S
C201 H221 0.932 . S
C202 C200 1.408 . S
C202 C201 1.310 . S
C202 H222 0.930 . S
C203 C204 1.474 . S
C203 C205 1.285 . S
C203 H223 0.929 . S
C204 C201 1.461 . S
C204 C203 1.474 . S
C205 C200 1.342 . S
C205 C203 1.285 . S
C205 H224 0.930 . S
C206 C209 1.424 . S
C206 C211 1.245 1_655 S
C206 C212 1.428 . S
C207 C210 1.260 1_455 S
C207 C211 1.477 . S
C207 H225 0.932 . S
C208 C209 1.384 . S
C208 C210 1.479 . S
C208 H226 0.929 . S
C209 C206 1.424 . S
C209 C208 1.384 . S
C209 H227 0.928 . S
C210 C207 1.260 1_655 S
C210 C208 1.479 . S
C211 C206 1.245 1_455 S
C211 C207 1.477 . S
C211 H228 0.932 . S
C212 U195 2.882 . S
C212 C206 1.428 . S
C212 O215 1.301 1_655 S
C212 O216 1.282 . S
O213 U195 2.441 . S
O213 C199 1.249 . S
O214 U195 2.420 . S
O214 C199 1.202 . S
O215 U195 2.455 1_455 S
O215 C212 1.301 1_455 S
O216 U195 2.449 . S
O216 C212 1.282 . S
H217 C190 0.931 . S
H218 C192 0.929 . S
H219 C193 0.930 . S
H220 C194 0.931 . S
H221 C201 0.932 . S
H222 C202 0.930 . S
H223 C203 0.929 . S
H224 C205 0.930 . S
H225 C207 0.932 . S
H226 C208 0.929 . S
H227 C209 0.928 . S
H228 C211 0.932 . S
C229 C230 1.264 . S
C229 C234 1.479 . S
C229 C239 1.465 . S
C230 C229 1.264 . S
C230 C232 1.339 . S
C230 H257 0.931 . S
C231 C232 1.395 . S
C231 C233 1.320 . S
C232 C230 1.339 . S
C232 C231 1.395 . S
C232 H258 0.929 . S
C233 C231 1.320 . S
C233 C234 1.405 . S
C233 H259 0.930 . S
C234 C229 1.479 . S
C234 C233 1.405 . S
C234 H260 0.931 . S
U235 O236 2.454 1_565 S
U235 O237 2.458 1_565 S
U235 C238 2.984 1_565 S
U235 C239 2.847 . S
U235 C252 2.882 . S
U235 O253 2.441 . S
U235 O254 2.420 . S
U235 O255 2.455 1_565 S
U235 O256 2.449 . S
O236 U235 2.454 1_545 S
O236 C238 1.353 . S
O237 U235 2.458 1_545 S
O237 C238 1.286 . S
C238 U235 2.984 1_545 S
C238 O236 1.353 . S
C238 O237 1.286 . S
C238 C240 1.363 . S
C239 C229 1.465 . S
C239 U235 2.847 . S
C239 O253 1.249 . S
C239 O254 1.202 . S
C240 C238 1.363 . S
C240 C242 1.408 . S
C240 C245 1.342 . S
C241 C242 1.310 . S
C241 C244 1.461 . S
C241 H261 0.932 . S
C242 C240 1.408 . S
C242 C241 1.310 . S
C242 H262 0.930 . S
C243 C244 1.474 . S
C243 C245 1.285 . S
C243 H263 0.929 . S
C244 C241 1.461 . S
C244 C243 1.474 . S
C245 C240 1.342 . S
C245 C243 1.285 . S
C245 H264 0.930 . S
C246 C249 1.424 . S
C246 C251 1.245 1_565 S
C246 C252 1.428 . S
C247 C250 1.260 1_545 S
C247 C251 1.477 . S
C247 H265 0.932 . S
C248 C249 1.384 . S
C248 C250 1.479 . S
C248 H266 0.929 . S
C249 C246 1.424 . S
C249 C248 1.384 . S
C249 H267 0.928 . S
C250 C247 1.260 1_565 S
C250 C248 1.479 . S
C251 C246 1.245 1_545 S
C251 C247 1.477 . S
C251 H268 0.932 . S
C252 U235 2.882 . S
C252 C246 1.428 . S
C252 O255 1.301 1_565 S
C252 O256 1.282 . S
O253 U235 2.441 . S
O253 C239 1.249 . S
O254 U235 2.420 . S
O254 C239 1.202 . S
O255 U235 2.455 1_545 S
O255 C252 1.301 1_545 S
O256 U235 2.449 . S
O256 C252 1.282 . S
H257 C230 0.931 . S
H258 C232 0.929 . S
H259 C233 0.930 . S
H260 C234 0.931 . S
H261 C241 0.932 . S
H262 C242 0.930 . S
H263 C243 0.929 . S
H264 C245 0.930 . S
H265 C247 0.932 . S
H266 C248 0.929 . S
H267 C249 0.928 . S
H268 C251 0.932 . S
C269 C270 1.264 . S
C269 C274 1.479 . S
C269 C279 1.465 . S
C270 C269 1.264 . S
C270 C272 1.339 . S
C270 H297 0.931 . S
C271 C272 1.395 . S
C271 C273 1.320 . S
C272 C270 1.339 . S
C272 C271 1.395 . S
C272 H298 0.929 . S
C273 C271 1.320 . S
C273 C274 1.405 . S
C273 H299 0.930 . S
C274 C269 1.479 . S
C274 C273 1.405 . S
C274 H300 0.931 . S
U275 O276 2.454 . S
U275 O277 2.458 . S
U275 C278 2.984 . S
U275 C279 2.847 . S
U275 C292 2.882 . S
U275 O293 2.441 . S
U275 O294 2.420 . S
U275 O295 2.455 . S
U275 O296 2.449 . S
O276 U275 2.454 . S
O276 C278 1.353 . S
O277 U275 2.458 . S
O277 C278 1.286 . S
C278 U275 2.984 . S
C278 O276 1.353 . S
C278 O277 1.286 . S
C278 C280 1.363 . S
C279 C269 1.465 . S
C279 U275 2.847 . S
C279 O293 1.249 . S
C279 O294 1.202 . S
C280 C278 1.363 . S
C280 C282 1.408 . S
C280 C285 1.342 . S
C281 C282 1.310 . S
C281 C284 1.461 . S
C281 H301 0.932 . S
C282 C280 1.408 . S
C282 C281 1.310 . S
C282 H302 0.930 . S
C283 C284 1.474 . S
C283 C285 1.285 . S
C283 H303 0.929 . S
C284 C281 1.461 . S
C284 C283 1.474 . S
C285 C280 1.342 . S
C285 C283 1.285 . S
C285 H304 0.930 . S
C286 C289 1.424 . S
C286 C291 1.245 . S
C286 C292 1.428 . S
C287 C290 1.260 . S
C287 C291 1.477 . S
C287 H305 0.932 . S
C288 C289 1.384 . S
C288 C290 1.479 . S
C288 H306 0.929 . S
C289 C286 1.424 . S
C289 C288 1.384 . S
C289 H307 0.928 . S
C290 C287 1.260 . S
C290 C288 1.479 . S
C291 C286 1.245 . S
C291 C287 1.477 . S
C291 H308 0.932 . S
C292 U275 2.882 . S
C292 C286 1.428 . S
C292 O295 1.301 . S
C292 O296 1.282 . S
O293 U275 2.441 . S
O293 C279 1.249 . S
O294 U275 2.420 . S
O294 C279 1.202 . S
O295 U275 2.455 . S
O295 C292 1.301 . S
O296 U275 2.449 . S
O296 C292 1.282 . S
H297 C270 0.931 . S
H298 C272 0.929 . S
H299 C273 0.930 . S
H300 C274 0.931 . S
H301 C281 0.932 . S
H302 C282 0.930 . S
H303 C283 0.929 . S
H304 C285 0.930 . S
H305 C287 0.932 . S
H306 C288 0.929 . S
H307 C289 0.928 . S
H308 C291 0.932 . S
H309 C317 0.929 . S
H310 C319 0.930 . S
H311 C321 0.930 . S
H312 C324 0.929 . S
H313 C327 0.930 . S
H314 C329 0.960 . S
H315 C329 0.960 . S
H316 C329 0.960 . S
C317 H309 0.929 . S
C317 C318 1.377 . S
C317 C319 1.384 . S
C318 C317 1.377 . S
C318 C324 1.390 . S
C319 H310 0.930 . S
C319 C317 1.384 . S
C319 C320 1.372 . S
C320 C319 1.372 . S
C320 C321 1.400 . S
C320 C325 1.490 . S
C321 H311 0.930 . S
C321 C320 1.400 . S
C321 C324 1.386 . S
H322 C338 0.930 . S
H323 C339 0.931 . S
C324 H312 0.929 . S
C324 C318 1.390 . S
C324 C321 1.386 . S
C325 C320 1.490 . S
C325 C327 1.395 . S
C325 C328 1.403 . S
H326 C332 0.930 . S
C327 H313 0.930 . S
C327 C325 1.395 . S
C327 C330 1.403 . S
C328 C325 1.403 . S
C328 C329 1.524 . S
C328 C332 1.400 . S
C329 H314 0.960 . S
C329 H315 0.960 . S
C329 H316 0.960 . S
C329 C328 1.524 . S
C330 C327 1.403 . S
C330 C331 1.392 . S
C330 C334 1.495 . S
C331 C330 1.392 . S
C331 C332 1.385 . S
C331 C333 1.478 . S
C332 H326 0.930 . S
C332 C328 1.400 . S
C332 C331 1.385 . S
C333 C331 1.478 . S
C333 C335 1.381 . S
C333 C339 1.383 . S
C334 C330 1.495 . S
C334 H340 0.959 . S
C334 H341 0.961 . S
C334 H342 0.960 . S
C335 C333 1.381 . S
C335 C336 1.394 . S
C335 H343 0.930 . S
C336 C335 1.394 . S
C336 C337 1.383 . S
C336 H344 0.929 . S
C337 C336 1.383 . S
C337 C338 1.377 . S
C338 H322 0.930 . S
C338 C337 1.377 . S
C338 C339 1.379 . S
C339 H323 0.931 . S
C339 C333 1.383 . S
C339 C338 1.379 . S
H340 C334 0.959 . S
H341 C334 0.961 . S
H342 C334 0.960 . S
H343 C335 0.930 . S
H344 C336 0.929 . S
H345 C353 0.929 . S
H346 C355 0.930 . S
H347 C357 0.930 . S
H348 C360 0.929 . S
H349 C363 0.930 . S
H350 C365 0.960 . S
H351 C365 0.960 . S
H352 C365 0.960 . S
C353 H345 0.929 . S
C353 C354 1.377 . S
C353 C355 1.384 . S
C354 C353 1.377 . S
C354 C360 1.390 . S
C355 H346 0.930 . S
C355 C353 1.384 . S
C355 C356 1.372 . S
C356 C355 1.372 . S
C356 C357 1.400 . S
C356 C361 1.490 . S
C357 H347 0.930 . S
C357 C356 1.400 . S
C357 C360 1.386 . S
H358 C374 0.930 . S
H359 C375 0.931 . S
C360 H348 0.929 . S
C360 C354 1.390 . S
C360 C357 1.386 . S
C361 C356 1.490 . S
C361 C363 1.395 . S
C361 C364 1.403 . S
H362 C368 0.930 . S
C363 H349 0.930 . S
C363 C361 1.395 . S
C363 C366 1.403 . S
C364 C361 1.403 . S
C364 C365 1.524 . S
C364 C368 1.400 . S
C365 H350 0.960 . S
C365 H351 0.960 . S
C365 H352 0.960 . S
C365 C364 1.524 . S
C366 C363 1.403 . S
C366 C367 1.392 . S
C366 C370 1.495 . S
C367 C366 1.392 . S
C367 C368 1.385 . S
C367 C369 1.478 . S
C368 H362 0.930 . S
C368 C364 1.400 . S
C368 C367 1.385 . S
C369 C367 1.478 . S
C369 C371 1.381 . S
C369 C375 1.383 . S
C370 C366 1.495 . S
C370 H376 0.959 . S
C370 H377 0.961 . S
C370 H378 0.960 . S
C371 C369 1.381 . S
C371 C372 1.394 . S
C371 H379 0.930 . S
C372 C371 1.394 . S
C372 C373 1.383 . S
C372 H380 0.929 . S
C373 C372 1.383 . S
C373 C374 1.377 . S
C374 H358 0.930 . S
C374 C373 1.377 . S
C374 C375 1.379 . S
C375 H359 0.931 . S
C375 C369 1.383 . S
C375 C374 1.379 . S
H376 C370 0.959 . S
H377 C370 0.961 . S
H378 C370 0.960 . S
H379 C371 0.930 . S
H380 C372 0.929 . S
H381 C389 0.929 . S
H382 C391 0.930 . S
H383 C393 0.930 . S
H384 C396 0.929 . S
H385 C399 0.930 . S
H386 C401 0.960 . S
H387 C401 0.960 . S
H388 C401 0.960 . S
C389 H381 0.929 . S
C389 C390 1.377 . S
C389 C391 1.384 . S
C390 C389 1.377 . S
C390 C396 1.390 . S
C391 H382 0.930 . S
C391 C389 1.384 . S
C391 C392 1.372 . S
C392 C391 1.372 . S
C392 C393 1.400 . S
C392 C397 1.490 . S
C393 H383 0.930 . S
C393 C392 1.400 . S
C393 C396 1.386 . S
H394 C410 0.930 . S
H395 C411 0.931 . S
C396 H384 0.929 . S
C396 C390 1.390 . S
C396 C393 1.386 . S
C397 C392 1.490 . S
C397 C399 1.395 . S
C397 C400 1.403 . S
H398 C404 0.930 . S
C399 H385 0.930 . S
C399 C397 1.395 . S
C399 C402 1.403 . S
C400 C397 1.403 . S
C400 C401 1.524 . S
C400 C404 1.400 . S
C401 H386 0.960 . S
C401 H387 0.960 . S
C401 H388 0.960 . S
C401 C400 1.524 . S
C402 C399 1.403 . S
C402 C403 1.392 . S
C402 C406 1.495 . S
C403 C402 1.392 . S
C403 C404 1.385 . S
C403 C405 1.478 . S
C404 H398 0.930 . S
C404 C400 1.400 . S
C404 C403 1.385 . S
C405 C403 1.478 . S
C405 C407 1.381 . S
C405 C411 1.383 . S
C406 C402 1.495 . S
C406 H412 0.959 . S
C406 H413 0.961 . S
C406 H414 0.960 . S
C407 C405 1.381 . S
C407 C408 1.394 . S
C407 H415 0.930 . S
C408 C407 1.394 . S
C408 C409 1.383 . S
C408 H416 0.929 . S
C409 C408 1.383 . S
C409 C410 1.377 . S
C410 H394 0.930 . S
C410 C409 1.377 . S
C410 C411 1.379 . S
C411 H395 0.931 . S
C411 C405 1.383 . S
C411 C410 1.379 . S
H412 C406 0.959 . S
H413 C406 0.961 . S
H414 C406 0.960 . S
H415 C407 0.930 . S
H416 C408 0.929 . S
H417 C425 0.929 . S
H418 C427 0.930 . S
H419 C429 0.930 . S
H420 C432 0.929 . S
H421 C435 0.930 . S
H422 C437 0.960 . S
H423 C437 0.960 . S
H424 C437 0.960 . S
C425 H417 0.929 . S
C425 C426 1.377 . S
C425 C427 1.384 . S
C426 C425 1.377 . S
C426 C432 1.390 . S
C427 H418 0.930 . S
C427 C425 1.384 . S
C427 C428 1.372 . S
C428 C427 1.372 . S
C428 C429 1.400 . S
C428 C433 1.490 . S
C429 H419 0.930 . S
C429 C428 1.400 . S
C429 C432 1.386 . S
H430 C446 0.930 . S
H431 C447 0.931 . S
C432 H420 0.929 . S
C432 C426 1.390 . S
C432 C429 1.386 . S
C433 C428 1.490 . S
C433 C435 1.395 . S
C433 C436 1.403 . S
H434 C440 0.930 . S
C435 H421 0.930 . S
C435 C433 1.395 . S
C435 C438 1.403 . S
C436 C433 1.403 . S
C436 C437 1.524 . S
C436 C440 1.400 . S
C437 H422 0.960 . S
C437 H423 0.960 . S
C437 H424 0.960 . S
C437 C436 1.524 . S
C438 C435 1.403 . S
C438 C439 1.392 . S
C438 C442 1.495 . S
C439 C438 1.392 . S
C439 C440 1.385 . S
C439 C441 1.478 . S
C440 H434 0.930 . S
C440 C436 1.400 . S
C440 C439 1.385 . S
C441 C439 1.478 . S
C441 C443 1.381 . S
C441 C447 1.383 . S
C442 C438 1.495 . S
C442 H448 0.959 . S
C442 H449 0.961 . S
C442 H450 0.960 . S
C443 C441 1.381 . S
C443 C444 1.394 . S
C443 H451 0.930 . S
C444 C443 1.394 . S
C444 C445 1.383 . S
C444 H452 0.929 . S
C445 C444 1.383 . S
C445 C446 1.377 . S
C446 H430 0.930 . S
C446 C445 1.377 . S
C446 C447 1.379 . S
C447 H431 0.931 . S
C447 C441 1.383 . S
C447 C446 1.379 . S
H448 C442 0.959 . S
H449 C442 0.961 . S
H450 C442 0.960 . S
H451 C443 0.930 . S
H452 C444 0.929 . S
H453 C461 0.929 . S
H454 C463 0.930 . S
H455 C465 0.930 . S
H456 C468 0.929 . S
H457 C471 0.930 . S
H458 C473 0.960 . S
H459 C473 0.960 . S
H460 C473 0.960 . S
C461 H453 0.929 . S
C461 C462 1.377 . S
C461 C463 1.384 . S
C462 C461 1.377 . S
C462 C468 1.390 . S
C463 H454 0.930 . S
C463 C461 1.384 . S
C463 C464 1.372 . S
C464 C463 1.372 . S
C464 C465 1.400 . S
C464 C469 1.490 . S
C465 H455 0.930 . S
C465 C464 1.400 . S
C465 C468 1.386 . S
H466 C482 0.930 . S
H467 C483 0.931 . S
C468 H456 0.929 . S
C468 C462 1.390 . S
C468 C465 1.386 . S
C469 C464 1.490 . S
C469 C471 1.395 . S
C469 C472 1.403 . S
H470 C476 0.930 . S
C471 H457 0.930 . S
C471 C469 1.395 . S
C471 C474 1.403 . S
C472 C469 1.403 . S
C472 C473 1.524 . S
C472 C476 1.400 . S
C473 H458 0.960 . S
C473 H459 0.960 . S
C473 H460 0.960 . S
C473 C472 1.524 . S
C474 C471 1.403 . S
C474 C475 1.392 . S
C474 C478 1.495 . S
C475 C474 1.392 . S
C475 C476 1.385 . S
C475 C477 1.478 . S
C476 H470 0.930 . S
C476 C472 1.400 . S
C476 C475 1.385 . S
C477 C475 1.478 . S
C477 C479 1.381 . S
C477 C483 1.383 . S
C478 C474 1.495 . S
C478 H484 0.959 . S
C478 H485 0.961 . S
C478 H486 0.960 . S
C479 C477 1.381 . S
C479 C480 1.394 . S
C479 H487 0.930 . S
C480 C479 1.394 . S
C480 C481 1.383 . S
C480 H488 0.929 . S
C481 C480 1.383 . S
C481 C482 1.377 . S
C482 H466 0.930 . S
C482 C481 1.377 . S
C482 C483 1.379 . S
C483 H467 0.931 . S
C483 C477 1.383 . S
C483 C482 1.379 . S
H484 C478 0.959 . S
H485 C478 0.961 . S
H486 C478 0.960 . S
H487 C479 0.930 . S
H488 C480 0.929 . S
H489 C497 0.929 . S
H490 C499 0.930 . S
H491 C501 0.930 . S
H492 C504 0.929 . S
H493 C507 0.930 . S
H494 C509 0.960 . S
H495 C509 0.960 . S
H496 C509 0.960 . S
C497 H489 0.929 . S
C497 C498 1.377 . S
C497 C499 1.384 . S
C498 C497 1.377 . S
C498 C504 1.390 . S
C499 H490 0.930 . S
C499 C497 1.384 . S
C499 C500 1.372 . S
C500 C499 1.372 . S
C500 C501 1.400 . S
C500 C505 1.490 . S
C501 H491 0.930 . S
C501 C500 1.400 . S
C501 C504 1.386 . S
H502 C518 0.930 . S
H503 C519 0.931 . S
C504 H492 0.929 . S
C504 C498 1.390 . S
C504 C501 1.386 . S
C505 C500 1.490 . S
C505 C507 1.395 . S
C505 C508 1.403 . S
H506 C512 0.930 . S
C507 H493 0.930 . S
C507 C505 1.395 . S
C507 C510 1.403 . S
C508 C505 1.403 . S
C508 C509 1.524 . S
C508 C512 1.400 . S
C509 H494 0.960 . S
C509 H495 0.960 . S
C509 H496 0.960 . S
C509 C508 1.524 . S
C510 C507 1.403 . S
C510 C511 1.392 . S
C510 C514 1.495 . S
C511 C510 1.392 . S
C511 C512 1.385 . S
C511 C513 1.478 . S
C512 H506 0.930 . S
C512 C508 1.400 . S
C512 C511 1.385 . S
C513 C511 1.478 . S
C513 C515 1.381 . S
C513 C519 1.383 . S
C514 C510 1.495 . S
C514 H520 0.959 . S
C514 H521 0.961 . S
C514 H522 0.960 . S
C515 C513 1.381 . S
C515 C516 1.394 . S
C515 H523 0.930 . S
C516 C515 1.394 . S
C516 C517 1.383 . S
C516 H524 0.929 . S
C517 C516 1.383 . S
C517 C518 1.377 . S
C518 H502 0.930 . S
C518 C517 1.377 . S
C518 C519 1.379 . S
C519 H503 0.931 . S
C519 C513 1.383 . S
C519 C518 1.379 . S
H520 C514 0.959 . S
H521 C514 0.961 . S
H522 C514 0.960 . S
H523 C515 0.930 . S
H524 C516 0.929 . S
H525 C533 0.929 . S
H526 C535 0.930 . S
H527 C537 0.930 . S
H528 C540 0.929 . S
H529 C543 0.930 . S
H530 C545 0.960 . S
H531 C545 0.960 . S
H532 C545 0.960 . S
C533 H525 0.929 . S
C533 C534 1.377 . S
C533 C535 1.384 . S
C534 C533 1.377 . S
C534 C540 1.390 . S
C535 H526 0.930 . S
C535 C533 1.384 . S
C535 C536 1.372 . S
C536 C535 1.372 . S
C536 C537 1.400 . S
C536 C541 1.490 . S
C537 H527 0.930 . S
C537 C536 1.400 . S
C537 C540 1.386 . S
H538 C554 0.930 . S
H539 C555 0.931 . S
C540 H528 0.929 . S
C540 C534 1.390 . S
C540 C537 1.386 . S
C541 C536 1.490 . S
C541 C543 1.395 . S
C541 C544 1.403 . S
H542 C548 0.930 . S
C543 H529 0.930 . S
C543 C541 1.395 . S
C543 C546 1.403 . S
C544 C541 1.403 . S
C544 C545 1.524 . S
C544 C548 1.400 . S
C545 H530 0.960 . S
C545 H531 0.960 . S
C545 H532 0.960 . S
C545 C544 1.524 . S
C546 C543 1.403 . S
C546 C547 1.392 . S
C546 C550 1.495 . S
C547 C546 1.392 . S
C547 C548 1.385 . S
C547 C549 1.478 . S
C548 H542 0.930 . S
C548 C544 1.400 . S
C548 C547 1.385 . S
C549 C547 1.478 . S
C549 C551 1.381 . S
C549 C555 1.383 . S
C550 C546 1.495 . S
C550 H556 0.959 . S
C550 H557 0.961 . S
C550 H558 0.960 . S
C551 C549 1.381 . S
C551 C552 1.394 . S
C551 H559 0.930 . S
C552 C551 1.394 . S
C552 C553 1.383 . S
C552 H560 0.929 . S
C553 C552 1.383 . S
C553 C554 1.377 . S
C554 H538 0.930 . S
C554 C553 1.377 . S
C554 C555 1.379 . S
C555 H539 0.931 . S
C555 C549 1.383 . S
C555 C554 1.379 . S
H556 C550 0.959 . S
H557 C550 0.961 . S
H558 C550 0.960 . S
H559 C551 0.930 . S
H560 C552 0.929 . S
H561 C569 0.929 . S
H562 C571 0.930 . S
H563 C573 0.930 . S
H564 C576 0.929 . S
H565 C579 0.930 . S
H566 C581 0.960 . S
H567 C581 0.960 . S
H568 C581 0.960 . S
C569 H561 0.929 . S
C569 C570 1.377 . S
C569 C571 1.384 . S
C570 C569 1.377 . S
C570 C576 1.390 . S
C571 H562 0.930 . S
C571 C569 1.384 . S
C571 C572 1.372 . S
C572 C571 1.372 . S
C572 C573 1.400 . S
C572 C577 1.490 . S
C573 H563 0.930 . S
C573 C572 1.400 . S
C573 C576 1.386 . S
H574 C590 0.930 . S
H575 C591 0.931 . S
C576 H564 0.929 . S
C576 C570 1.390 . S
C576 C573 1.386 . S
C577 C572 1.490 . S
C577 C579 1.395 . S
C577 C580 1.403 . S
H578 C584 0.930 . S
C579 H565 0.930 . S
C579 C577 1.395 . S
C579 C582 1.403 . S
C580 C577 1.403 . S
C580 C581 1.524 . S
C580 C584 1.400 . S
C581 H566 0.960 . S
C581 H567 0.960 . S
C581 H568 0.960 . S
C581 C580 1.524 . S
C582 C579 1.403 . S
C582 C583 1.392 . S
C582 C586 1.495 . S
C583 C582 1.392 . S
C583 C584 1.385 . S
C583 C585 1.478 . S
C584 H578 0.930 . S
C584 C580 1.400 . S
C584 C583 1.385 . S
C585 C583 1.478 . S
C585 C587 1.381 . S
C585 C591 1.383 . S
C586 C582 1.495 . S
C586 H592 0.959 . S
C586 H593 0.961 . S
C586 H594 0.960 . S
C587 C585 1.381 . S
C587 C588 1.394 . S
C587 H595 0.930 . S
C588 C587 1.394 . S
C588 C589 1.383 . S
C588 H596 0.929 . S
C589 C588 1.383 . S
C589 C590 1.377 . S
C590 H574 0.930 . S
C590 C589 1.377 . S
C590 C591 1.379 . S
C591 H575 0.931 . S
C591 C585 1.383 . S
C591 C590 1.379 . S
H592 C586 0.959 . S
H593 C586 0.961 . S
H594 C586 0.960 . S
H595 C587 0.930 . S
H596 C588 0.929 . S
H597 C605 0.929 . S
H598 C607 0.930 . S
H599 C609 0.930 . S
H600 C612 0.929 . S
H601 C615 0.930 . S
H602 C617 0.960 . S
H603 C617 0.960 . S
H604 C617 0.960 . S
C605 H597 0.929 . S
C605 C606 1.377 . S
C605 C607 1.384 . S
C606 C605 1.377 . S
C606 C612 1.390 . S
C607 H598 0.930 . S
C607 C605 1.384 . S
C607 C608 1.372 . S
C608 C607 1.372 . S
C608 C609 1.400 . S
C608 C613 1.490 . S
C609 H599 0.930 . S
C609 C608 1.400 . S
C609 C612 1.386 . S
H610 C626 0.930 . S
H611 C627 0.931 . S
C612 H600 0.929 . S
C612 C606 1.390 . S
C612 C609 1.386 . S
C613 C608 1.490 . S
C613 C615 1.395 . S
C613 C616 1.403 . S
H614 C620 0.930 . S
C615 H601 0.930 . S
C615 C613 1.395 . S
C615 C618 1.403 . S
C616 C613 1.403 . S
C616 C617 1.524 . S
C616 C620 1.400 . S
C617 H602 0.960 . S
C617 H603 0.960 . S
C617 H604 0.960 . S
C617 C616 1.524 . S
C618 C615 1.403 . S
C618 C619 1.392 . S
C618 C622 1.495 . S
C619 C618 1.392 . S
C619 C620 1.385 . S
C619 C621 1.478 . S
C620 H614 0.930 . S
C620 C616 1.400 . S
C620 C619 1.385 . S
C621 C619 1.478 . S
C621 C623 1.381 . S
C621 C627 1.383 . S
C622 C618 1.495 . S
C622 H628 0.959 . S
C622 H629 0.961 . S
C622 H630 0.960 . S
C623 C621 1.381 . S
C623 C624 1.394 . S
C623 H631 0.930 . S
C624 C623 1.394 . S
C624 C625 1.383 . S
C624 H632 0.929 . S
C625 C624 1.383 . S
C625 C626 1.377 . S
C626 H610 0.930 . S
C626 C625 1.377 . S
C626 C627 1.379 . S
C627 H611 0.931 . S
C627 C621 1.383 . S
C627 C626 1.379 . S
H628 C622 0.959 . S
H629 C622 0.961 . S
H630 C622 0.960 . S
H631 C623 0.930 . S
H632 C624 0.929 . S
H633 C641 0.929 . S
H634 C643 0.930 . S
H635 C645 0.930 . S
H636 C648 0.929 . S
H637 C651 0.930 . S
H638 C653 0.960 . S
H639 C653 0.960 . S
H640 C653 0.960 . S
C641 H633 0.929 . S
C641 C642 1.377 . S
C641 C643 1.384 . S
C642 C641 1.377 . S
C642 C648 1.390 . S
C643 H634 0.930 . S
C643 C641 1.384 . S
C643 C644 1.372 . S
C644 C643 1.372 . S
C644 C645 1.400 . S
C644 C649 1.490 . S
C645 H635 0.930 . S
C645 C644 1.400 . S
C645 C648 1.386 . S
H646 C662 0.930 . S
H647 C663 0.931 . S
C648 H636 0.929 . S
C648 C642 1.390 . S
C648 C645 1.386 . S
C649 C644 1.490 . S
C649 C651 1.395 . S
C649 C652 1.403 . S
H650 C656 0.930 . S
C651 H637 0.930 . S
C651 C649 1.395 . S
C651 C654 1.403 . S
C652 C649 1.403 . S
C652 C653 1.524 . S
C652 C656 1.400 . S
C653 H638 0.960 . S
C653 H639 0.960 . S
C653 H640 0.960 . S
C653 C652 1.524 . S
C654 C651 1.403 . S
C654 C655 1.392 . S
C654 C658 1.495 . S
C655 C654 1.392 . S
C655 C656 1.385 . S
C655 C657 1.478 . S
C656 H650 0.930 . S
C656 C652 1.400 . S
C656 C655 1.385 . S
C657 C655 1.478 . S
C657 C659 1.381 . S
C657 C663 1.383 . S
C658 C654 1.495 . S
C658 H664 0.959 . S
C658 H665 0.961 . S
C658 H666 0.960 . S
C659 C657 1.381 . S
C659 C660 1.394 . S
C659 H667 0.930 . S
C660 C659 1.394 . S
C660 C661 1.383 . S
C660 H668 0.929 . S
C661 C660 1.383 . S
C661 C662 1.377 . S
C662 H646 0.930 . S
C662 C661 1.377 . S
C662 C663 1.379 . S
C663 H647 0.931 . S
C663 C657 1.383 . S
C663 C662 1.379 . S
H664 C658 0.959 . S
H665 C658 0.961 . S
H666 C658 0.960 . S
H667 C659 0.930 . S
H668 C660 0.929 . S
H669 C677 0.929 . S
H670 C679 0.930 . S
H671 C681 0.930 . S
H672 C684 0.929 . S
H673 C687 0.930 . S
H674 C689 0.960 . S
H675 C689 0.960 . S
H676 C689 0.960 . S
C677 H669 0.929 . S
C677 C678 1.377 . S
C677 C679 1.384 . S
C678 C677 1.377 . S
C678 C684 1.390 . S
C679 H670 0.930 . S
C679 C677 1.384 . S
C679 C680 1.372 . S
C680 C679 1.372 . S
C680 C681 1.400 . S
C680 C685 1.490 . S
C681 H671 0.930 . S
C681 C680 1.400 . S
C681 C684 1.386 . S
H682 C698 0.930 . S
H683 C699 0.931 . S
C684 H672 0.929 . S
C684 C678 1.390 . S
C684 C681 1.386 . S
C685 C680 1.490 . S
C685 C687 1.395 . S
C685 C688 1.403 . S
H686 C692 0.930 . S
C687 H673 0.930 . S
C687 C685 1.395 . S
C687 C690 1.403 . S
C688 C685 1.403 . S
C688 C689 1.524 . S
C688 C692 1.400 . S
C689 H674 0.960 . S
C689 H675 0.960 . S
C689 H676 0.960 . S
C689 C688 1.524 . S
C690 C687 1.403 . S
C690 C691 1.392 . S
C690 C694 1.495 . S
C691 C690 1.392 . S
C691 C692 1.385 . S
C691 C693 1.478 . S
C692 H686 0.930 . S
C692 C688 1.400 . S
C692 C691 1.385 . S
C693 C691 1.478 . S
C693 C695 1.381 . S
C693 C699 1.383 . S
C694 C690 1.495 . S
C694 H700 0.959 . S
C694 H701 0.961 . S
C694 H702 0.960 . S
C695 C693 1.381 . S
C695 C696 1.394 . S
C695 H703 0.930 . S
C696 C695 1.394 . S
C696 C697 1.383 . S
C696 H704 0.929 . S
C697 C696 1.383 . S
C697 C698 1.377 . S
C698 H682 0.930 . S
C698 C697 1.377 . S
C698 C699 1.379 . S
C699 H683 0.931 . S
C699 C693 1.383 . S
C699 C698 1.379 . S
H700 C694 0.959 . S
H701 C694 0.961 . S
H702 C694 0.960 . S
H703 C695 0.930 . S
H704 C696 0.929 . S
H705 C713 0.929 . S
H706 C715 0.930 . S
H707 C717 0.930 . S
H708 C720 0.929 . S
H709 C723 0.930 . S
H710 C725 0.960 . S
H711 C725 0.960 . S
H712 C725 0.960 . S
C713 H705 0.929 . S
C713 C714 1.377 . S
C713 C715 1.384 . S
C714 C713 1.377 . S
C714 C720 1.390 . S
C715 H706 0.930 . S
C715 C713 1.384 . S
C715 C716 1.372 . S
C716 C715 1.372 . S
C716 C717 1.400 . S
C716 C721 1.490 . S
C717 H707 0.930 . S
C717 C716 1.400 . S
C717 C720 1.386 . S
H718 C734 0.930 . S
H719 C735 0.931 . S
C720 H708 0.929 . S
C720 C714 1.390 . S
C720 C717 1.386 . S
C721 C716 1.490 . S
C721 C723 1.395 . S
C721 C724 1.403 . S
H722 C728 0.930 . S
C723 H709 0.930 . S
C723 C721 1.395 . S
C723 C726 1.403 . S
C724 C721 1.403 . S
C724 C725 1.524 . S
C724 C728 1.400 . S
C725 H710 0.960 . S
C725 H711 0.960 . S
C725 H712 0.960 . S
C725 C724 1.524 . S
C726 C723 1.403 . S
C726 C727 1.392 . S
C726 C730 1.495 . S
C727 C726 1.392 . S
C727 C728 1.385 . S
C727 C729 1.478 . S
C728 H722 0.930 . S
C728 C724 1.400 . S
C728 C727 1.385 . S
C729 C727 1.478 . S
C729 C731 1.381 . S
C729 C735 1.383 . S
C730 C726 1.495 . S
C730 H736 0.959 . S
C730 H737 0.961 . S
C730 H738 0.960 . S
C731 C729 1.381 . S
C731 C732 1.394 . S
C731 H739 0.930 . S
C732 C731 1.394 . S
C732 C733 1.383 . S
C732 H740 0.929 . S
C733 C732 1.383 . S
C733 C734 1.377 . S
C734 H718 0.930 . S
C734 C733 1.377 . S
C734 C735 1.379 . S
C735 H719 0.931 . S
C735 C729 1.383 . S
C735 C734 1.379 . S
H736 C730 0.959 . S
H737 C730 0.961 . S
H738 C730 0.960 . S
H739 C731 0.930 . S
H740 C732 0.929 . S
H741 C749 0.929 . S
H742 C751 0.930 . S
H743 C753 0.930 . S
H744 C756 0.929 . S
H745 C759 0.930 . S
H746 C761 0.960 . S
H747 C761 0.960 . S
H748 C761 0.960 . S
C749 H741 0.929 . S
C749 C750 1.377 . S
C749 C751 1.384 . S
C750 C749 1.377 . S
C750 C756 1.390 1_455 S
C751 H742 0.930 . S
C751 C749 1.384 . S
C751 C752 1.372 . S
C752 C751 1.372 . S
C752 C753 1.400 1_455 S
C752 C757 1.490 . S
C753 H743 0.930 . S
C753 C752 1.400 1_655 S
C753 C756 1.386 . S
H754 C770 0.895 1_556 S
H755 C771 0.931 . S
C756 H744 0.929 . S
C756 C750 1.390 1_655 S
C756 C753 1.386 . S
C757 C752 1.490 . S
C757 C759 1.395 . S
C757 C760 1.403 1_455 S
H758 C764 0.930 . S
C759 H745 0.930 . S
C759 C757 1.395 . S
C759 C762 1.403 . S
C760 C757 1.403 1_655 S
C760 C761 1.524 . S
C760 C764 1.400 . S
C761 H746 0.960 . S
C761 H747 0.960 . S
C761 H748 0.960 . S
C761 C760 1.524 . S
C762 C759 1.403 . S
C762 C763 1.392 . S
C762 C766 1.495 . S
C763 C762 1.392 . S
C763 C764 1.385 1_455 S
C763 C765 1.478 . S
C764 H758 0.930 . S
C764 C760 1.400 . S
C764 C763 1.385 1_655 S
C765 C763 1.478 . S
C765 C767 1.381 . S
C765 C771 1.383 . S
C766 C762 1.495 . S
C766 H772 0.959 . S
C766 H773 0.961 . S
C766 H774 0.960 . S
C767 C765 1.381 . S
C767 C768 1.394 . S
C767 H775 0.930 . S
C768 C767 1.394 . S
C768 C769 1.383 1_554 S
C768 H776 0.904 1_554 S
C769 C768 1.383 1_556 S
C769 C770 1.377 1_556 S
C770 H754 0.895 1_554 S
C770 C769 1.377 1_554 S
C770 C771 1.379 . S
C771 H755 0.931 . S
C771 C765 1.383 . S
C771 C770 1.379 . S
H772 C766 0.959 . S
H773 C766 0.961 . S
H774 C766 0.960 . S
H775 C767 0.930 . S
H776 C768 0.904 1_556 S
H777 C785 0.929 . S
H778 C787 0.930 . S
H779 C789 0.930 . S
H780 C792 0.929 . S
H781 C795 0.930 . S
H782 C797 0.960 . S
H783 C797 0.960 . S
H784 C797 0.960 . S
C785 H777 0.929 . S
C785 C786 1.377 1_565 S
C785 C787 1.384 . S
C786 C785 1.377 1_545 S
C786 C792 1.390 . S
C787 H778 0.930 . S
C787 C785 1.384 . S
C787 C788 1.372 1_565 S
C788 C787 1.372 1_545 S
C788 C789 1.400 . S
C788 C793 1.490 . S
C789 H779 0.930 . S
C789 C788 1.400 . S
C789 C792 1.386 . S
H790 C806 0.930 . S
H791 C807 0.931 . S
C792 H780 0.929 . S
C792 C786 1.390 . S
C792 C789 1.386 . S
C793 C788 1.490 . S
C793 C795 1.395 1_545 S
C793 C796 1.403 . S
H794 C800 0.930 . S
C795 H781 0.930 . S
C795 C793 1.395 1_565 S
C795 C798 1.403 . S
C796 C793 1.403 . S
C796 C797 1.524 . S
C796 C800 1.400 . S
C797 H782 0.960 . S
C797 H783 0.960 . S
C797 H784 0.960 . S
C797 C796 1.524 . S
C798 C795 1.403 . S
C798 C799 1.392 1_565 S
C798 C802 1.495 . S
C799 C798 1.392 1_545 S
C799 C800 1.385 . S
C799 C801 1.478 . S
C800 H794 0.930 . S
C800 C796 1.400 . S
C800 C799 1.385 . S
C801 C799 1.478 . S
C801 C803 1.381 1_545 S
C801 C807 1.383 . S
C802 C798 1.495 . S
C802 H808 0.959 . S
C802 H809 0.961 . S
C802 H810 0.960 . S
C803 C801 1.381 1_565 S
C803 C804 1.394 . S
C803 H811 0.930 . S
C804 C803 1.394 . S
C804 C805 1.383 1_565 S
C804 H812 0.929 . S
C805 C804 1.383 1_545 S
C805 C806 1.377 . S
C806 H790 0.930 . S
C806 C805 1.377 . S
C806 C807 1.379 . S
C807 H791 0.931 . S
C807 C801 1.383 . S
C807 C806 1.379 . S
H808 C802 0.959 . S
H809 C802 0.961 . S
H810 C802 0.960 . S
H811 C803 0.930 . S
H812 C804 0.929 . S
H813 C821 0.929 . S
H814 C823 0.930 . S
H815 C825 0.930 . S
H816 C828 0.929 . S
H817 C831 0.930 . S
H818 C833 0.960 . S
H819 C833 0.960 . S
H820 C833 0.960 . S
C821 H813 0.929 . S
C821 C822 1.377 . S
C821 C823 1.384 . S
C822 C821 1.377 . S
C822 C828 1.390 . S
C823 H814 0.930 . S
C823 C821 1.384 . S
C823 C824 1.372 . S
C824 C823 1.372 . S
C824 C825 1.400 . S
C824 C829 1.490 . S
C825 H815 0.930 . S
C825 C824 1.400 . S
C825 C828 1.386 . S
H826 C842 0.930 . S
H827 C843 0.931 . S
C828 H816 0.929 . S
C828 C822 1.390 . S
C828 C825 1.386 . S
C829 C824 1.490 . S
C829 C831 1.395 . S
C829 C832 1.403 . S
H830 C836 0.930 . S
C831 H817 0.930 . S
C831 C829 1.395 . S
C831 C834 1.403 . S
C832 C829 1.403 . S
C832 C833 1.524 . S
C832 C836 1.400 . S
C833 H818 0.960 . S
C833 H819 0.960 . S
C833 H820 0.960 . S
C833 C832 1.524 . S
C834 C831 1.403 . S
C834 C835 1.392 . S
C834 C838 1.495 . S
C835 C834 1.392 . S
C835 C836 1.385 . S
C835 C837 1.478 . S
C836 H830 0.930 . S
C836 C832 1.400 . S
C836 C835 1.385 . S
C837 C835 1.478 . S
C837 C839 1.381 . S
C837 C843 1.383 . S
C838 C834 1.495 . S
C838 H844 0.959 . S
C838 H845 0.961 . S
C838 H846 0.960 . S
C839 C837 1.381 . S
C839 C840 1.394 . S
C839 H847 0.930 . S
C840 C839 1.394 . S
C840 C841 1.383 . S
C840 H848 0.929 . S
C841 C840 1.383 . S
C841 C842 1.377 . S
C842 H826 0.930 . S
C842 C841 1.377 . S
C842 C843 1.379 . S
C843 H827 0.931 . S
C843 C837 1.383 . S
C843 C842 1.379 . S
H844 C838 0.959 . S
H845 C838 0.961 . S
H846 C838 0.960 . S
H847 C839 0.930 . S
H848 C840 0.929 . S
H849 C857 0.929 . S
H850 C859 0.930 . S
H851 C861 0.930 . S
H852 C864 0.929 . S
H853 C867 0.930 . S
H854 C869 0.960 . S
H855 C869 0.960 . S
H856 C869 0.960 . S
C857 H849 0.929 . S
C857 C858 1.377 1_565 S
C857 C859 1.384 . S
C858 C857 1.377 1_545 S
C858 C864 1.390 . S
C859 H850 0.930 . S
C859 C857 1.384 . S
C859 C860 1.372 1_565 S
C860 C859 1.372 1_545 S
C860 C861 1.400 . S
C860 C865 1.490 . S
C861 H851 0.930 . S
C861 C860 1.400 . S
C861 C864 1.386 . S
H862 C878 0.930 . S
H863 C879 0.931 . S
C864 H852 0.929 . S
C864 C858 1.390 . S
C864 C861 1.386 . S
C865 C860 1.490 . S
C865 C867 1.395 . S
C865 C868 1.403 1_545 S
H866 C872 0.930 . S
C867 H853 0.930 . S
C867 C865 1.395 . S
C867 C870 1.403 . S
C868 C865 1.403 1_565 S
C868 C869 1.524 . S
C868 C872 1.400 . S
C869 H854 0.960 . S
C869 H855 0.960 . S
C869 H856 0.960 . S
C869 C868 1.524 . S
C870 C867 1.403 . S
C870 C871 1.392 . S
C870 C874 1.495 . S
C871 C870 1.392 . S
C871 C872 1.385 1_545 S
C871 C873 1.478 . S
C872 H866 0.930 . S
C872 C868 1.400 . S
C872 C871 1.385 1_565 S
C873 C871 1.478 . S
C873 C875 1.381 1_545 S
C873 C879 1.383 . S
C874 C870 1.495 . S
C874 H880 0.959 . S
C874 H881 0.961 . S
C874 H882 0.960 . S
C875 C873 1.381 1_565 S
C875 C876 1.394 . S
C875 H883 0.930 . S
C876 C875 1.394 . S
C876 C877 1.383 1_565 S
C876 H884 0.929 . S
C877 C876 1.383 1_545 S
C877 C878 1.377 . S
C878 H862 0.930 . S
C878 C877 1.377 . S
C878 C879 1.379 . S
C879 H863 0.931 . S
C879 C873 1.383 . S
C879 C878 1.379 . S
H880 C874 0.959 . S
H881 C874 0.961 . S
H882 C874 0.960 . S
H883 C875 0.930 . S
H884 C876 0.929 . S
H885 C893 0.929 . S
H886 C895 0.930 . S
H887 C897 0.930 . S
H888 C900 0.929 . S
H889 C903 0.930 . S
H890 C905 0.960 . S
H891 C905 0.960 . S
H892 C905 0.960 . S
C893 H885 0.929 . S
C893 C894 1.377 . S
C893 C895 1.384 . S
C894 C893 1.377 . S
C894 C900 1.390 . S
C895 H886 0.930 . S
C895 C893 1.384 . S
C895 C896 1.372 . S
C896 C895 1.372 . S
C896 C897 1.400 . S
C896 C901 1.490 . S
C897 H887 0.930 . S
C897 C896 1.400 . S
C897 C900 1.386 . S
H898 C914 0.910 1_554 S
H899 C915 0.931 . S
C900 H888 0.929 . S
C900 C894 1.390 . S
C900 C897 1.386 . S
C901 C896 1.490 . S
C901 C903 1.395 . S
C901 C904 1.403 . S
H902 C908 0.930 . S
C903 H889 0.930 . S
C903 C901 1.395 . S
C903 C906 1.403 . S
C904 C901 1.403 . S
C904 C905 1.524 . S
C904 C908 1.400 . S
C905 H890 0.960 . S
C905 H891 0.960 . S
C905 H892 0.960 . S
C905 C904 1.524 . S
C906 C903 1.403 . S
C906 C907 1.392 . S
C906 C910 1.495 . S
C907 C906 1.392 . S
C907 C908 1.385 . S
C907 C909 1.478 . S
C908 H902 0.930 . S
C908 C904 1.400 . S
C908 C907 1.385 . S
C909 C907 1.478 . S
C909 C911 1.381 . S
C909 C915 1.383 . S
C910 C906 1.495 . S
C910 H916 0.959 . S
C910 H917 0.961 . S
C910 H918 0.960 . S
C911 C909 1.381 . S
C911 C912 1.394 . S
C911 H919 0.930 . S
C912 C911 1.394 . S
C912 C913 1.383 1_556 S
C912 H920 0.896 1_556 S
C913 C912 1.383 1_554 S
C913 C914 1.377 1_554 S
C914 H898 0.910 1_556 S
C914 C913 1.377 1_556 S
C914 C915 1.379 . S
C915 H899 0.931 . S
C915 C909 1.383 . S
C915 C914 1.379 . S
H916 C910 0.959 . S
H917 C910 0.961 . S
H918 C910 0.960 . S
H919 C911 0.930 . S
H920 C912 0.896 1_554 S
H921 C929 0.929 . S
H922 C931 0.930 . S
H923 C933 0.931 . S
H924 C936 0.936 1_655 S
H925 C939 0.930 . S
H926 C941 0.960 . S
H927 C941 0.960 . S
H928 C941 0.960 . S
C929 H921 0.929 . S
C929 C930 1.377 . S
C929 C931 1.384 . S
C930 C929 1.377 . S
C930 C936 1.390 . S
C931 H922 0.930 . S
C931 C929 1.384 . S
C931 C932 1.372 . S
C932 C931 1.372 . S
C932 C933 1.400 . S
C932 C937 1.490 . S
C933 H923 0.931 . S
C933 C932 1.400 . S
C933 C936 1.386 . S
H934 C950 0.930 . S
H935 C951 0.931 . S
C936 H924 0.936 1_455 S
C936 C930 1.390 . S
C936 C933 1.386 . S
C937 C932 1.490 . S
C937 C939 1.395 1_455 S
C937 C940 1.403 . S
H938 C944 0.930 . S
C939 H925 0.930 . S
C939 C937 1.395 1_655 S
C939 C942 1.403 . S
C940 C937 1.403 . S
C940 C941 1.524 . S
C940 C944 1.400 . S
C941 H926 0.960 . S
C941 H927 0.960 . S
C941 H928 0.960 . S
C941 C940 1.524 . S
C942 C939 1.403 . S
C942 C943 1.392 . S
C942 C946 1.495 . S
C943 C942 1.392 . S
C943 C944 1.385 1_655 S
C943 C945 1.478 . S
C944 H938 0.930 . S
C944 C940 1.400 . S
C944 C943 1.385 1_455 S
C945 C943 1.478 . S
C945 C947 1.381 1_655 S
C945 C951 1.383 . S
C946 C942 1.495 . S
C946 H952 0.959 . S
C946 H953 0.961 . S
C946 H954 0.960 . S
C947 C945 1.381 1_455 S
C947 C948 1.394 . S
C947 H955 0.930 . S
C948 C947 1.394 . S
C948 C949 1.383 1_455 S
C948 H956 0.929 . S
C949 C948 1.383 1_655 S
C949 C950 1.377 . S
C950 H934 0.930 . S
C950 C949 1.377 . S
C950 C951 1.379 . S
C951 H935 0.931 . S
C951 C945 1.383 . S
C951 C950 1.379 . S
H952 C946 0.959 . S
H953 C946 0.961 . S
H954 C946 0.960 . S
H955 C947 0.930 . S
H956 C948 0.929 . S
C318 C20 1.063 . S
C337 C284 1.077 . S
C354 C41 1.104 . S
C373 C191 1.089 . S
C390 C64 1.128 . S
C409 C231 1.122 . S
C426 C19 1.103 . S
C445 C271 1.120 . S
C481 C204 1.103 . S
C462 C44 1.112 . S
C517 C244 1.091 . S
C498 C67 1.097 . S
C534 C43 1.034 . S
C553 C111 1.065 . S
C570 C66 1.035 . S
C589 C151 1.076 . S
C606 C21 1.109 . S
C625 C84 1.097 . S
C661 C124 1.130 . S
C642 C42 1.092 . S
C697 C164 1.143 . S
C678 C65 1.100 . S
C714 C18 1.103 . S
C733 C71 1.112 . S
C769 C170 1.442 . S
C750 C17 1.451 . S
C786 C39 1.447 . S
C805 C90 1.438 . S
C822 C62 1.467 . S
C841 C130 1.447 . S
C877 C250 1.430 1_545 S
C858 C40 1.429 . S
C913 C290 1.432 . S
C894 C63 1.453 . S
C930 C16 1.446 . S
C949 C210 1.423 . S
