# Generated by pormake.
# Topology zzz, (3,6)-cn, num edge types: 1
# Building blocks:
#     Node 0, Type 0, BuildingBlock: OLANEW_clean_sbu_2, # of connection points: 3
#     Node 1, Type 0, BuildingBlock: OLANEW_clean_sbu_2, # of connection points: 3
#     Node 2, Type 0, BuildingBlock: OLANEW_clean_sbu_2, # of connection points: 3
#     Node 3, Type 0, BuildingBlock: OLANEW_clean_sbu_2, # of connection points: 3
#     Node 4, Type 0, BuildingBlock: OLANEW_clean_sbu_2, # of connection points: 3
#     Node 5, Type 0, BuildingBlock: OLANEW_clean_sbu_2, # of connection points: 3
#     Node 6, Type 0, BuildingBlock: OLANEW_clean_sbu_2, # of connection points: 3
#     Node 7, Type 0, BuildingBlock: OLANEW_clean_sbu_2, # of connection points: 3
#     Node 8, Type 1, BuildingBlock: KUMBOL_clean_sbu_1, # of connection points: 6
#     Node 9, Type 1, BuildingBlock: KUMBOL_clean_sbu_1, # of connection points: 6
#     Node 10, Type 1, BuildingBlock: KUMBOL_clean_sbu_1, # of connection points: 6
#     Node 11, Type 1, BuildingBlock: KUMBOL_clean_sbu_1, # of connection points: 6
#     Edge 12, Type (0, 1), BuildingBlock: TEMPAE_clean_linker_10, # of connection points: 2
#     Edge 13, Type (0, 1), BuildingBlock: TEMPAE_clean_linker_10, # of connection points: 2
#     Edge 14, Type (0, 1), BuildingBlock: TEMPAE_clean_linker_10, # of connection points: 2
#     Edge 15, Type (0, 1), BuildingBlock: TEMPAE_clean_linker_10, # of connection points: 2
#     Edge 16, Type (0, 1), BuildingBlock: TEMPAE_clean_linker_10, # of connection points: 2
#     Edge 17, Type (0, 1), BuildingBlock: TEMPAE_clean_linker_10, # of connection points: 2
#     Edge 18, Type (0, 1), BuildingBlock: TEMPAE_clean_linker_10, # of connection points: 2
#     Edge 19, Type (0, 1), BuildingBlock: TEMPAE_clean_linker_10, # of connection points: 2
#     Edge 20, Type (0, 1), BuildingBlock: TEMPAE_clean_linker_10, # of connection points: 2
#     Edge 21, Type (0, 1), BuildingBlock: TEMPAE_clean_linker_10, # of connection points: 2
#     Edge 22, Type (0, 1), BuildingBlock: TEMPAE_clean_linker_10, # of connection points: 2
#     Edge 23, Type (0, 1), BuildingBlock: TEMPAE_clean_linker_10, # of connection points: 2
#     Edge 24, Type (0, 1), BuildingBlock: TEMPAE_clean_linker_10, # of connection points: 2
#     Edge 25, Type (0, 1), BuildingBlock: TEMPAE_clean_linker_10, # of connection points: 2
#     Edge 26, Type (0, 1), BuildingBlock: TEMPAE_clean_linker_10, # of connection points: 2
#     Edge 27, Type (0, 1), BuildingBlock: TEMPAE_clean_linker_10, # of connection points: 2
#     Edge 28, Type (0, 1), BuildingBlock: TEMPAE_clean_linker_10, # of connection points: 2
#     Edge 29, Type (0, 1), BuildingBlock: TEMPAE_clean_linker_10, # of connection points: 2
#     Edge 30, Type (0, 1), BuildingBlock: TEMPAE_clean_linker_10, # of connection points: 2
#     Edge 31, Type (0, 1), BuildingBlock: TEMPAE_clean_linker_10, # of connection points: 2
#     Edge 32, Type (0, 1), BuildingBlock: TEMPAE_clean_linker_10, # of connection points: 2
#     Edge 33, Type (0, 1), BuildingBlock: TEMPAE_clean_linker_10, # of connection points: 2
#     Edge 34, Type (0, 1), BuildingBlock: TEMPAE_clean_linker_10, # of connection points: 2
#     Edge 35, Type (0, 1), BuildingBlock: TEMPAE_clean_linker_10, # of connection points: 2
# Relax obj value: 0.149
# Max RMSD: 0.104
# Mean RMSD: 0.086
data_MOF--net-zzz--node1-OLANEW_clean_sbu_2--node2-KUMBOL_clean_sbu_1--edge1-TEMPAE_clean_linker_10
_symmetry_space_group_name_H-M    P1
_symmetry_Int_Tables_number       1
_symmetry_cell_setting            triclinic
loop_
_symmetry_equiv_pos_as_xyz
'x, y, z'
_cell_length_a     54.391341
_cell_length_b     54.601944
_cell_length_c     17.98625
_cell_angle_alpha  90.229841
_cell_angle_beta   89.617661
_cell_angle_gamma 90.452811
loop_
_atom_site_label
_atom_site_type_symbol
_atom_site_fract_x
_atom_site_fract_y
_atom_site_fract_z
_atom_type_partial_charge
O0 O 0.75489 0.58114 0.10122 0.0
Cd1 Cd 0.71578 0.5959 0.1501 0.0
O2 O 0.75329 0.55156 0.18189 0.0
Cd3 Cd 0.76239 0.52036 0.25197 0.0
O4 O 0.78908 0.50729 0.33129 0.0
C5 C 0.7956 0.52342 0.37838 0.0
O6 O 0.78461 0.54477 0.37764 0.0
C7 C 0.76451 0.56204 0.12805 0.0
C8 C 0.67805 0.57234 0.07414 0.0
O9 O 0.69001 0.59028 0.04543 0.0
O10 O 0.68342 0.56562 0.14021 0.0
O11 O 0.94073 0.75395 0.121 0.0
Cd12 Cd 0.92387 0.71572 0.16923 0.0
O13 O 0.97201 0.74953 0.19561 0.0
Cd14 Cd 0.00365 0.76505 0.25229 0.0
O15 O 0.01138 0.79758 0.31742 0.0
C16 C 0.99787 0.8008 0.37444 0.0
O17 O 0.98193 0.78366 0.39313 0.0
C18 C 0.96121 0.76168 0.14545 0.0
C19 C 0.94276 0.67748 0.0846 0.0
O20 O 0.92383 0.68939 0.06369 0.0
O21 O 0.95257 0.68324 0.14693 0.0
O22 O 0.76306 0.96765 0.15438 0.0
Cd23 Cd 0.80015 0.97245 0.22851 0.0
O24 O 0.73859 0.96552 0.25203 0.0
Cd25 Cd 0.76406 0.96916 0.34418 0.0
O26 O 0.73474 0.97855 0.42257 0.0
C27 C 0.71791 0.96239 0.42896 0.0
O28 O 0.72107 0.94104 0.39639 0.0
C29 C 0.74159 0.96565 0.18198 0.0
C30 C 0.83935 0.98006 0.13108 0.0
O31 O 0.83608 0.95915 0.16184 0.0
O32 O 0.82459 0.99742 0.14781 0.0
O33 O 0.57033 0.7734 0.10687 0.0
Cd34 Cd 0.57962 0.81068 0.17779 0.0
O35 O 0.53849 0.77239 0.18155 0.0
Cd36 Cd 0.50822 0.75249 0.23321 0.0
O37 O 0.50149 0.72042 0.30109 0.0
C38 C 0.5178 0.71642 0.3497 0.0
O39 O 0.53594 0.73225 0.35725 0.0
C40 C 0.55064 0.76289 0.12832 0.0
C41 C 0.56151 0.85199 0.10686 0.0
O42 O 0.58419 0.84606 0.10074 0.0
O43 O 0.54739 0.83853 0.14708 0.0
O44 O 0.27317 0.47345 0.12882 0.0
Cd45 Cd 0.30982 0.46334 0.05726 0.0
O46 O 0.24723 0.48612 0.0435 0.0
Cd47 Cd 0.2654 0.47685 0.93868 0.0
O48 O 0.23591 0.47574 0.85645 0.0
C49 C 0.21643 0.46601 0.88288 0.0
O50 O 0.21741 0.45579 0.94881 0.0
C51 C 0.25254 0.48238 0.11116 0.0
C52 C 0.34845 0.47332 0.15437 0.0
O53 O 0.3422 0.489 0.1053 0.0
O54 O 0.33725 0.45259 0.15503 0.0
O55 O 0.04431 0.2747 0.13961 0.0
Cd56 Cd 0.04534 0.30986 0.05672 0.0
O57 O 0.05144 0.24575 0.05694 0.0
Cd58 Cd 0.05867 0.26793 0.95889 0.0
O59 O 0.06041 0.23479 0.89164 0.0
C60 C 0.04587 0.22988 0.83863 0.0
O61 O 0.03045 0.24664 0.81604 0.0
C62 C 0.04648 0.25218 0.12319 0.0
C63 C 0.03229 0.34946 0.14599 0.0
O64 O 0.01595 0.33479 0.12016 0.0
O65 O 0.05479 0.34614 0.12712 0.0
O66 O 0.2484 0.04643 0.12441 0.0
Cd67 Cd 0.20936 0.05487 0.06399 0.0
O68 O 0.27036 0.07354 0.06155 0.0
Cd69 Cd 0.24852 0.07515 0.96085 0.0
O70 O 0.27545 0.06939 0.8712 0.0
C71 C 0.28479 0.04817 0.8654 0.0
O72 O 0.27577 0.03042 0.90677 0.0
C73 C 0.26818 0.05865 0.11538 0.0
C74 C 0.17209 0.04564 0.16812 0.0
O75 O 0.17677 0.0301 0.11648 0.0
O76 O 0.18445 0.0657 0.16928 0.0
O77 O 0.47788 0.2419 0.11946 0.0
Cd78 Cd 0.47308 0.2062 0.03906 0.0
O79 O 0.45207 0.26762 0.06791 0.0
Cd80 Cd 0.44998 0.25132 0.9572 0.0
O81 O 0.45772 0.28079 0.87755 0.0
C82 C 0.45026 0.3014 0.90156 0.0
O83 O 0.43741 0.30196 0.96365 0.0
C84 C 0.4664 0.26208 0.12055 0.0
C85 C 0.4777 0.16579 0.13283 0.0
O86 O 0.49654 0.17553 0.10121 0.0
O87 O 0.45651 0.17451 0.1177 0.0
C88 C 0.0699 0.03842 0.80244 0.0
C89 C 0.04906 0.0575 0.90709 0.0
C90 C 0.04932 0.04034 0.84832 0.0
C91 C 0.06936 0.07318 0.91748 0.0
C92 C 0.09037 0.054 0.81293 0.0
C93 C 0.08994 0.07146 0.87046 0.0
N94 N 0.0695 0.02182 0.74588 0.0
C95 C 0.08922 0.01925 0.69936 0.0
C96 C 0.11058 0.0517 0.76477 0.0
C97 C 0.11003 0.03416 0.70798 0.0
Gd98 Gd 0.98307 0.02376 0.58779 0.0
Gd99 Gd 0.0333 0.99871 0.73301 0.0
N100 N 0.02961 0.02538 0.83549 0.0
C101 C 0.02852 0.05815 0.95431 0.0
C102 C 0.01058 0.02455 0.88504 0.0
C103 C 0.00941 0.04126 0.94407 0.0
H104 H 0.9967 0.01052 0.88091 0.0
H105 H 0.99397 0.04083 0.98234 0.0
H106 H 0.01753 0.00273 0.44385 0.0
H107 H 0.08898 0.00555 0.65593 0.0
H108 H 0.01217 0.97629 0.33455 0.0
H109 H 0.0276 0.07104 1.00018 0.0
H110 H 0.06941 0.0866 0.96203 0.0
H111 H 0.92849 0.02447 0.67555 0.0
H112 H 0.12668 0.06331 0.77103 0.0
H113 H 0.12562 0.03214 0.67079 0.0
H114 H 0.92726 0.95224 0.34427 0.0
H115 H 0.10546 0.08368 0.87921 0.0
H116 H 0.87838 0.98017 0.54987 0.0
H117 H 0.88711 0.0064 0.6592 0.0
N118 N 0.94328 0.00762 0.57849 0.0
C119 C 0.93889 0.99339 0.51773 0.0
C120 C 0.92505 0.0125 0.62877 0.0
C121 C 0.89666 0.98779 0.55726 0.0
C122 C 0.90152 0.00254 0.61917 0.0
C123 C 0.9154 0.98308 0.50549 0.0
H124 H 0.89342 0.96034 0.43208 0.0
N125 N 0.98082 0.99808 0.483 0.0
C126 C 0.95809 0.98873 0.46815 0.0
C127 C 0.97388 0.96909 0.35716 0.0
C128 C 0.9541 0.97377 0.40514 0.0
C129 C -5e-05 0.99423 0.43499 0.0
C130 C 0.99686 0.97946 0.37202 0.0
O131 O 0.0337 0.03861 0.699 0.0
O132 O 0.99282 0.0461 0.68857 0.0
O133 O 0.99214 0.05299 0.51057 0.0
O134 O 0.95495 0.0491 0.55335 0.0
O135 O 0.99272 0.99089 0.75572 0.0
O136 O 0.97321 0.02471 0.70905 0.0
O137 O 0.98388 0.98253 0.60354 0.0
O138 O 0.02388 0.97439 0.63647 0.0
O139 O 0.0298 0.97145 0.82036 0.0
O140 O 0.06431 0.97596 0.76194 0.0
O141 O 0.02339 0.02784 0.5576 0.0
O142 O 0.04548 0.99661 0.61278 0.0
C143 C 0.01529 0.05387 0.69943 0.0
C144 C 0.97345 0.00523 0.75136 0.0
C145 C 0.96983 0.0893 0.53125 0.0
C146 C 0.97988 0.13078 0.49165 0.0
C147 C 0.95631 0.12418 0.60483 0.0
C148 C 0.95772 0.09888 0.5942 0.0
C149 C 0.96695 0.14011 0.55306 0.0
C150 C 0.98128 0.10538 0.4809 0.0
C151 C 0.97041 0.06277 0.51629 0.0
C152 C 0.93064 0.96376 0.39238 0.0
C153 C 0.91137 0.96836 0.44245 0.0
H154 H 0.97157 0.95763 0.30833 0.0
C155 C 0.00211 0.96722 0.61374 0.0
C156 C 0.04303 0.01393 0.56238 0.0
C157 C 0.05391 0.9358 0.80346 0.0
C158 C 0.04196 0.8948 0.84617 0.0
C159 C 0.07282 0.89972 0.74878 0.0
C160 C 0.0705 0.9251 0.75281 0.0
C161 C 0.05861 0.88465 0.79469 0.0
C162 C 0.03983 0.92048 0.85059 0.0
C163 C 0.05175 0.96279 0.80913 0.0
H164 H 0.94679 0.13147 0.65299 0.0
H165 H 0.94916 0.08688 0.63477 0.0
H166 H 0.96539 0.15969 0.56134 0.0
H167 H 0.99087 0.09817 0.43256 0.0
H168 H 0.0857 0.89168 0.70981 0.0
H169 H 0.08175 0.93629 0.71623 0.0
H170 H 0.06097 0.86501 0.79073 0.0
H171 H 0.02709 0.92851 0.89016 0.0
C172 C 0.5008 0.92635 0.59808 0.0
C173 C 0.46912 0.91092 0.68178 0.0
C174 C 0.47953 0.93024 0.63996 0.0
C175 C 0.4804 0.88787 0.68145 0.0
C176 C 0.51221 0.90324 0.59793 0.0
C177 C 0.50185 0.88404 0.63963 0.0
N178 N 0.51094 0.94548 0.56026 0.0
C179 C 0.53205 0.94267 0.51984 0.0
C180 C 0.53398 0.90026 0.55698 0.0
C181 C 0.54391 0.92006 0.51768 0.0
Gd182 Gd 0.51224 0.03344 0.71633 0.0
Gd183 Gd 0.48982 0.98257 0.56794 0.0
N184 N 0.46943 0.95302 0.64127 0.0
C185 C 0.44766 0.91535 0.7228 0.0
C186 C 0.4478 0.95699 0.67794 0.0
C187 C 0.43681 0.9384 0.72013 0.0
H188 H 0.43851 0.97416 0.67362 0.0
H189 H 0.4198 0.94179 0.74988 0.0
H190 H 0.56108 0.04602 0.60464 0.0
H191 H 0.53954 0.95776 0.48818 0.0
H192 H 0.57952 0.08163 0.54234 0.0
H193 H 0.4391 0.90099 0.75562 0.0
H194 H 0.47269 0.87287 0.71351 0.0
H195 H 0.4654 0.05499 0.81774 0.0
H196 H 0.5433 0.8828 0.55554 0.0
H197 H 0.56067 0.9179 0.48562 0.0
H198 H 0.52937 0.14898 0.62026 0.0
H199 H 0.5104 0.86619 0.64037 0.0
H200 H 0.46142 0.13238 0.78384 0.0
H201 H 0.44501 0.09454 0.84174 0.0
N202 N 0.4921 0.07008 0.74436 0.0
C203 C 0.50167 0.09066 0.71287 0.0
C204 C 0.47214 0.07126 0.7905 0.0
C205 C 0.4702 0.11501 0.7724 0.0
C206 C 0.46083 0.09369 0.805 0.0
C207 C 0.4909 0.11371 0.7259 0.0
H208 H 0.49302 0.15251 0.70152 0.0
N209 N 0.5318 0.06605 0.65394 0.0
C210 C 0.52222 0.08864 0.66695 0.0
C211 C 0.5531 0.10699 0.58705 0.0
C212 C 0.53246 0.10967 0.63309 0.0
C213 C 0.5525 0.06351 0.61142 0.0
C214 C 0.56326 0.08383 0.57667 0.0
O215 O 0.50979 0.97064 0.67135 0.0
O216 O 0.49535 0.99816 0.75547 0.0
O217 O 0.54654 0.02768 0.77531 0.0
O218 O 0.51574 0.04638 0.83029 0.0
O219 O 0.46142 0.00935 0.61243 0.0
O220 O 0.47381 0.01854 0.73173 0.0
O221 O 0.49633 0.04804 0.60887 0.0
O222 O 0.50417 0.01809 0.52128 0.0
O223 O 0.45592 0.97958 0.50555 0.0
O224 O 0.48994 0.96653 0.45751 0.0
O225 O 0.54098 0.00918 0.66224 0.0
O226 O 0.52742 0.99845 0.54468 0.0
C227 C 0.5058 0.97725 0.7404 0.0
C228 C 0.45685 0.01777 0.67986 0.0
C229 C 0.55273 0.04094 0.90355 0.0
C230 C 0.58934 0.03165 0.97574 0.0
C231 C 0.55716 0.05721 0.02858 0.0
C232 C 0.54364 0.05489 0.96332 0.0
C233 C 0.57983 0.04569 0.03492 0.0
C234 C 0.57559 0.02926 0.91012 0.0
C235 C 0.53806 0.03818 0.83542 0.0
C236 C 0.52178 0.13265 0.64596 0.0
C237 C 0.50106 0.13466 0.6922 0.0
H238 H 0.56148 0.12268 0.55996 0.0
C239 C 0.49777 0.04048 0.53935 0.0
C240 C 0.54503 0.0013 0.59394 0.0
C241 C 0.46082 0.98348 0.37509 0.0
C242 C 0.43051 0.00283 0.29553 0.0
C243 C 0.47194 0.99584 0.24949 0.0
C244 C 0.47826 0.98531 0.31721 0.0
C245 C 0.44821 0.00454 0.23852 0.0
C246 C 0.43695 0.99238 0.36378 0.0
C247 C 0.46693 0.9714 0.44592 0.0
H248 H 0.54999 0.0679 0.07457 0.0
H249 H 0.52606 0.06397 0.95979 0.0
H250 H 0.58979 0.04752 0.08661 0.0
H251 H 0.58275 0.01847 0.86425 0.0
H252 H 0.48546 0.99718 0.20523 0.0
H253 H 0.49676 0.9785 0.32394 0.0
H254 H 0.44366 0.01265 0.18552 0.0
H255 H 0.42317 0.99062 0.40731 0.0
C256 C 0.44735 0.48311 0.80507 0.0
C257 C 0.46865 0.46784 0.91336 0.0
C258 C 0.4682 0.48283 0.84967 0.0
C259 C 0.44818 0.45309 0.93087 0.0
C260 C 0.42696 0.46796 0.82178 0.0
C261 C 0.42749 0.45298 0.88492 0.0
N262 N 0.44726 0.49779 0.74422 0.0
C263 C 0.4274 0.49855 0.69847 0.0
C264 C 0.40662 0.46834 0.77446 0.0
C265 C 0.40684 0.48373 0.71259 0.0
Gd266 Gd 0.53322 0.49388 0.58468 0.0
Gd267 Gd 0.48227 0.52209 0.72592 0.0
N268 N 0.48775 0.49749 0.83169 0.0
C269 C 0.48943 0.46855 0.95867 0.0
C270 C 0.50707 0.49972 0.87929 0.0
C271 C 0.50858 0.48481 0.94208 0.0
H272 H 0.52082 0.51366 0.87154 0.0
H273 H 0.52421 0.48639 0.9788 0.0
H274 H 0.50614 0.51556 0.43211 0.0
H275 H 0.42734 0.51075 0.65149 0.0
H276 H 0.51788 0.53804 0.31852 0.0
H277 H 0.49051 0.45726 0.00793 0.0
H278 H 0.44814 0.44172 0.9801 0.0
H279 H 0.58518 0.48619 0.68126 0.0
H280 H 0.39064 0.4569 0.78535 0.0
H281 H 0.39113 0.48429 0.67603 0.0
H282 H 0.60424 0.5539 0.34767 0.0
H283 H 0.41195 0.44131 0.89892 0.0
H284 H 0.64328 0.52419 0.56755 0.0
H285 H 0.62861 0.49957 0.67446 0.0
N286 N 0.57494 0.50495 0.58311 0.0
C287 C 0.58271 0.518 0.52308 0.0
C288 C 0.59115 0.49785 0.63624 0.0
C289 C 0.62408 0.51887 0.57125 0.0
C290 C 0.61586 0.50502 0.63178 0.0
C291 C 0.60753 0.52525 0.51538 0.0
H292 H 0.63409 0.5441 0.44518 0.0
N293 N 0.54192 0.5171 0.47845 0.0
C294 C 0.56584 0.52376 0.46837 0.0
C295 C 0.5559 0.54179 0.34985 0.0
C296 C 0.57343 0.53657 0.40412 0.0
C297 C 0.52486 0.52165 0.42509 0.0
C298 C 0.53152 0.53425 0.36037 0.0
O299 O 0.48085 0.48231 0.68971 0.0
O300 O 0.52153 0.4735 0.68754 0.0
O301 O 0.52065 0.46489 0.51119 0.0
O302 O 0.55827 0.46519 0.55042 0.0
O303 O 0.52251 0.53125 0.74275 0.0
O304 O 0.54134 0.49582 0.70659 0.0
O305 O 0.53111 0.53549 0.58299 0.0
O306 O 0.49384 0.54785 0.63568 0.0
O307 O 0.48294 0.54841 0.81694 0.0
O308 O 0.45084 0.54538 0.7476 0.0
O309 O 0.49342 0.4931 0.54935 0.0
O310 O 0.47013 0.52367 0.60613 0.0
C311 C 0.49865 0.4665 0.69639 0.0
C312 C 0.54163 0.51672 0.74243 0.0
C313 C 0.53884 0.42672 0.53185 0.0
C314 C 0.52432 0.3862 0.49476 0.0
C315 C 0.54315 0.39227 0.61555 0.0
C316 C 0.54647 0.41713 0.60022 0.0
C317 C 0.53208 0.37687 0.56323 0.0
C318 C 0.5279 0.41114 0.47918 0.0
C319 C 0.54126 0.45296 0.51522 0.0
C320 C 0.59811 0.54391 0.39641 0.0
C321 C 0.61509 0.53836 0.45202 0.0
H322 H 0.56098 0.55162 0.29977 0.0
C323 C 0.51437 0.55216 0.59882 0.0
C324 C 0.47436 0.5079 0.55168 0.0
C325 C 0.46092 0.58504 0.79465 0.0
C326 C 0.47518 0.62573 0.83463 0.0
C327 C 0.44276 0.62169 0.74274 0.0
C328 C 0.44412 0.59626 0.74669 0.0
C329 C 0.45809 0.63633 0.78633 0.0
C330 C 0.47631 0.59998 0.83916 0.0
C331 C 0.4619 0.55792 0.79942 0.0
H332 H 0.54919 0.38492 0.66806 0.0
H333 H 0.55487 0.42883 0.64184 0.0
H334 H 0.52995 0.35757 0.57557 0.0
H335 H 0.52182 0.41852 0.42656 0.0
H336 H 0.42974 0.63012 0.70571 0.0
H337 H 0.43191 0.58541 0.71222 0.0
H338 H 0.45646 0.65605 0.78253 0.0
H339 H 0.48931 0.59163 0.87661 0.0
C340 C 0.03265 0.44833 0.80203 0.0
C341 C 0.04561 0.46903 0.91481 0.0
C342 C 0.03078 0.46807 0.85081 0.0
C343 C 0.06242 0.45018 0.92832 0.0
C344 C 0.04937 0.4293 0.81559 0.0
C345 C 0.0643 0.43038 0.87884 0.0
N346 N 0.01844 0.44805 0.74015 0.0
C347 C 0.01872 0.42861 0.69236 0.0
C348 C 0.05055 0.40974 0.76506 0.0
C349 C 0.03501 0.40931 0.70349 0.0
Gd350 Gd 0.01959 0.5303 0.57993 0.0
Gd351 Gd 0.99134 0.48067 0.72646 0.0
N352 N 0.0142 0.48602 0.83643 0.0
C353 C 0.04282 0.48869 0.96412 0.0
C354 C 0.01029 0.50428 0.88712 0.0
C355 C 0.02487 0.50622 0.95065 0.0
H356 H 0.99551 0.51701 0.8805 0.0
H357 H 0.02192 0.52099 0.98995 0.0
H358 H 0.00915 0.50173 0.41963 0.0
H359 H 0.00634 0.42799 0.64572 0.0
H360 H 0.98618 0.50843 0.30345 0.0
H361 H 0.05392 0.49013 0.01376 0.0
H362 H 0.07394 0.45065 0.97723 0.0
H363 H 0.02314 0.58542 0.66401 0.0
H364 H 0.0632 0.39479 0.77347 0.0
H365 H 0.03549 0.39408 0.66482 0.0
H366 H 0.95223 0.58885 0.33423 0.0
H367 H 0.07732 0.41597 0.89014 0.0
H368 H 0.97542 0.63452 0.5512 0.0
H369 H 0.0036 0.62588 0.65516 0.0
N370 N 0.00355 0.57015 0.57312 0.0
C371 C 0.98937 0.57499 0.5131 0.0
C372 C 0.0096 0.58842 0.62174 0.0
C373 C 0.98324 0.61643 0.55664 0.0
C374 C 0.99907 0.61161 0.6155 0.0
C375 C 0.97874 0.59823 0.50331 0.0
H376 H 0.95639 0.62054 0.43116 0.0
N377 N 0.99815 0.53537 0.46865 0.0
C378 C 0.98696 0.5572 0.45854 0.0
C379 C 0.97338 0.54411 0.3369 0.0
C380 C 0.97399 0.56209 0.39267 0.0
C381 C 0.99878 0.51832 0.41301 0.0
C382 C 0.98604 0.52221 0.34687 0.0
O383 O 0.03102 0.48066 0.68817 0.0
O384 O 0.03857 0.52142 0.68647 0.0
O385 O 0.05207 0.51746 0.52138 0.0
O386 O 0.04631 0.55635 0.53646 0.0
O387 O 0.98358 0.52045 0.75193 0.0
O388 O 0.01567 0.5432 0.70016 0.0
O389 O 0.98051 0.51719 0.56106 0.0
O390 O 0.96621 0.50919 0.67923 0.0
O391 O 0.96953 0.46888 0.82136 0.0
O392 O 0.96388 0.45182 0.71377 0.0
O393 O 0.02193 0.48986 0.55211 0.0
O394 O 0.98853 0.46956 0.60584 0.0
C395 C 0.04622 0.49912 0.69688 0.0
C396 C 0.99717 0.54055 0.74757 0.0
C397 C 0.08734 0.54221 0.53396 0.0
C398 C 0.13036 0.53555 0.50191 0.0
C399 C 0.1195 0.55713 0.61573 0.0
C400 C 0.09455 0.5543 0.59941 0.0
C401 C 0.13736 0.54798 0.56702 0.0
C402 C 0.10527 0.53265 0.48596 0.0
C403 C 0.06132 0.53936 0.514 0.0
C404 C 0.9625 0.58483 0.38409 0.0
C405 C 0.96482 0.60285 0.43938 0.0
H406 H 0.96361 0.54715 0.28549 0.0
C407 C 0.96236 0.51356 0.60859 0.0
C408 C 0.00501 0.47246 0.55259 0.0
C409 C 0.93015 0.45124 0.79812 0.0
C410 C 0.89129 0.46703 0.84787 0.0
C411 C 0.89421 0.4248 0.80416 0.0
C412 C 0.9188 0.4285 0.78549 0.0
C413 C 0.88063 0.44373 0.83572 0.0
C414 C 0.91633 0.47064 0.82884 0.0
C415 C 0.95674 0.45315 0.78289 0.0
H416 H 0.12501 0.56655 0.66604 0.0
H417 H 0.08095 0.56159 0.63764 0.0
H418 H 0.15661 0.55045 0.5804 0.0
H419 H 0.09969 0.52343 0.43519 0.0
H420 H 0.88573 0.40704 0.79531 0.0
H421 H 0.92918 0.41336 0.76241 0.0
H422 H 0.86181 0.43983 0.85194 0.0
H423 H 0.92503 0.48832 0.83781 0.0
C424 C 0.15719 0.04873 0.29909 0.0
C425 C 0.15354 0.04032 0.22626 0.0
C426 C 0.14008 0.04342 0.35566 0.0
C427 C 0.11842 0.0301 0.33832 0.0
C428 C 0.11454 0.02176 0.26459 0.0
C429 C 0.13239 0.02661 0.20962 0.0
C430 C 0.14516 0.05213 0.43393 0.0
C431 C 0.09132 0.00815 0.24349 0.0
C432 C 0.08114 0.00049 0.4943 0.0
C433 C 0.06281 0.01798 0.50659 0.0
C434 C 0.09945 0.0042 0.43985 0.0
C435 C 0.09934 0.02585 0.39666 0.0
C436 C 0.08097 0.04361 0.40924 0.0
C437 C 0.063 0.03948 0.46401 0.0
C438 C 0.11887 0.98493 0.42834 0.0
C439 C 0.08017 0.06696 0.3645 0.0
H440 H 0.1737 0.05909 0.31214 0.0
H441 H 0.12952 0.02021 0.15318 0.0
H442 H 0.13097 0.06546 0.45159 0.0
H443 H 0.14413 0.03648 0.47304 0.0
H444 H 0.16353 0.06099 0.43902 0.0
H445 H 0.09116 0.00281 0.18383 0.0
H446 H 0.08923 0.9914 0.27771 0.0
H447 H 0.07509 0.0198 0.25503 0.0
H448 H 0.08105 0.98379 0.52666 0.0
H449 H 0.04903 0.05323 0.4734 0.0
H450 H 0.13743 0.99317 0.43537 0.0
H451 H 0.1179 0.97763 0.37078 0.0
H452 H 0.11676 0.96942 0.46775 0.0
H453 H 0.09748 0.07753 0.37201 0.0
H454 H 0.0645 0.07881 0.38076 0.0
H455 H 0.07865 0.06253 0.30444 0.0
C456 C 0.50387 0.14 0.21484 0.0
C457 C 0.48049 0.14598 0.18825 0.0
C458 C 0.50674 0.12258 0.27126 0.0
C459 C 0.48574 0.11064 0.30128 0.0
C460 C 0.46214 0.11609 0.27336 0.0
C461 C 0.45977 0.13383 0.21752 0.0
C462 C 0.53222 0.11708 0.29919 0.0
C463 C 0.43938 0.10333 0.30295 0.0
C464 C 0.49558 0.05086 0.40401 0.0
C465 C 0.49436 0.05845 0.47864 0.0
C466 C 0.4927 0.06759 0.34575 0.0
C467 C 0.48852 0.09258 0.36237 0.0
C468 C 0.48719 0.10037 0.43748 0.0
C469 C 0.48979 0.08317 0.4946 0.0
C470 C 0.49377 0.05835 0.26655 0.0
C471 C 0.48328 0.12694 0.45758 0.0
H472 H 0.51998 0.14931 0.19266 0.0
H473 H 0.44165 0.13828 0.1971 0.0
H474 H 0.53323 0.12083 0.35979 0.0
H475 H 0.5363 0.09737 0.2908 0.0
H476 H 0.54665 0.1281 0.27047 0.0
H477 H 0.42242 0.10929 0.27434 0.0
H478 H 0.44119 0.08322 0.2961 0.0
H479 H 0.4373 0.10708 0.36333 0.0
H480 H 0.49873 0.03176 0.39078 0.0
H481 H 0.48823 0.08919 0.55177 0.0
H482 H 0.50435 0.07106 0.2303 0.0
H483 H 0.47481 0.05706 0.24436 0.0
H484 H 0.50228 0.03997 0.26272 0.0
H485 H 0.49856 0.13824 0.43462 0.0
H486 H 0.48234 0.12995 0.51866 0.0
H487 H 0.466 0.13359 0.43251 0.0
C488 C 0.36745 0.46651 0.27842 0.0
C489 C 0.36711 0.47938 0.21114 0.0
C490 C 0.38426 0.47264 0.33443 0.0
C491 C 0.40154 0.49176 0.32223 0.0
C492 C 0.40139 0.50475 0.25422 0.0
C493 C 0.38398 0.49857 0.19975 0.0
C494 C 0.38361 0.45857 0.40658 0.0
C495 C 0.41991 0.52484 0.23852 0.0
C496 C 0.43432 0.51877 0.49055 0.0
C497 C 0.45597 0.50496 0.49145 0.0
C498 C 0.41646 0.51487 0.43543 0.0
C499 C 0.42061 0.49713 0.37909 0.0
C500 C 0.44273 0.48372 0.37836 0.0
C501 C 0.45998 0.48765 0.43464 0.0
C502 C 0.39293 0.52931 0.4384 0.0
C503 C 0.44804 0.46487 0.31874 0.0
H504 H 0.35425 0.45185 0.28789 0.0
H505 H 0.38379 0.50856 0.1478 0.0
H506 H 0.40104 0.44843 0.41343 0.0
H507 H 0.38197 0.47141 0.4543 0.0
H508 H 0.36808 0.44526 0.40906 0.0
H509 H 0.41701 0.53352 0.18354 0.0
H510 H 0.41885 0.53918 0.28224 0.0
H511 H 0.43878 0.51728 0.23981 0.0
H512 H 0.43112 0.53238 0.53343 0.0
H513 H 0.47664 0.47692 0.434 0.0
H514 H 0.37704 0.51664 0.44522 0.0
H515 H 0.39033 0.53925 0.3854 0.0
H516 H 0.39273 0.54277 0.48488 0.0
H517 H 0.43443 0.44967 0.32237 0.0
H518 H 0.46676 0.45706 0.32362 0.0
H519 H 0.44625 0.47317 0.26285 0.0
C520 C 0.03692 0.39144 0.19959 0.0
C521 C 0.02566 0.36831 0.2011 0.0
C522 C 0.03177 0.40889 0.25498 0.0
C523 C 0.01589 0.40255 0.3148 0.0
C524 C 0.00446 0.37917 0.31628 0.0
C525 C 0.00911 0.3625 0.25846 0.0
C526 C 0.04361 0.43394 0.25015 0.0
C527 C 0.98821 0.37138 0.38052 0.0
C528 C 0.02677 0.43783 0.49368 0.0
C529 C 0.00668 0.4536 0.49489 0.0
C530 C 0.0295 0.42051 0.43663 0.0
C531 C 0.0123 0.41987 0.37778 0.0
C532 C 0.99202 0.43601 0.37879 0.0
C533 C 0.98918 0.45243 0.43845 0.0
C534 C 0.05088 0.40306 0.43913 0.0
C535 C 0.97381 0.43649 0.31585 0.0
H536 H 0.04966 0.39588 0.15494 0.0
H537 H 0.00069 0.34443 0.25995 0.0
H538 H 0.02953 0.44838 0.25715 0.0
H539 H 0.05708 0.43629 0.2957 0.0
H540 H 0.05331 0.43682 0.1963 0.0
H541 H 0.9805 0.35265 0.37273 0.0
H542 H 0.99895 0.37177 0.43277 0.0
H543 H 0.97279 0.38435 0.3877 0.0
H544 H 0.04029 0.43902 0.53765 0.0
H545 H 0.97384 0.46501 0.43957 0.0
H546 H 0.06378 0.407 0.39262 0.0
H547 H 0.04427 0.38391 0.43217 0.0
H548 H 0.06115 0.40447 0.49219 0.0
H549 H 0.98354 0.44082 0.26302 0.0
H550 H 0.95915 0.45025 0.32506 0.0
H551 H 0.96508 0.41821 0.30889 0.0
C552 C 0.88217 0.97355 0.08517 0.0
C553 C 0.85894 0.98384 0.07539 0.0
C554 C 0.90094 0.97725 0.03232 0.0
C555 C 0.89589 0.9906 0.96682 0.0
C556 C 0.87222 0.00052 0.95608 0.0
C557 C 0.85417 0.99747 0.01138 0.0
C558 C 0.92623 0.96723 0.04708 0.0
C559 C 0.86584 0.01403 0.88575 0.0
C560 C 0.94773 0.02009 0.85618 0.0
C561 C 0.95322 0.00166 0.8046 0.0
C562 C 0.92961 0.01641 0.91083 0.0
C563 C 0.91548 0.99452 0.91004 0.0
C564 C 0.92011 0.97643 0.85505 0.0
C565 C 0.93949 0.97993 0.80416 0.0
C566 C 0.92608 0.03565 0.97043 0.0
C567 C 0.9045 0.95352 0.84963 0.0
H568 H 0.88581 0.96311 0.13502 0.0
H569 H 0.83605 0.00517 0.00364 0.0
H570 H 0.93109 0.95343 0.00417 0.0
H571 H 0.94014 0.98217 0.04357 0.0
H572 H 0.92748 0.95852 0.10265 0.0
H573 H 0.84612 0.01916 0.88399 0.0
H574 H 0.87712 0.03096 0.88107 0.0
H575 H 0.8701 0.0025 0.83644 0.0
H576 H 0.95833 0.03699 0.85559 0.0
H577 H 0.94357 0.96597 0.76292 0.0
H578 H 0.92785 0.02724 0.02619 0.0
H579 H 0.90735 0.0434 0.96708 0.0
H580 H 0.93967 0.05088 0.96565 0.0
H581 H 0.9071 0.94207 0.89969 0.0
H582 H 0.9091 0.94239 0.79966 0.0
H583 H 0.88474 0.95841 0.8475 0.0
C584 C 0.52697 0.87358 0.04486 0.0
C585 C 0.55175 0.87312 0.06575 0.0
C586 C 0.51814 0.89207 0.99826 0.0
C587 C 0.53437 0.91079 0.97366 0.0
C588 C 0.55897 0.9113 0.99888 0.0
C589 C 0.56748 0.89222 0.04365 0.0
C590 C 0.49186 0.89075 0.97189 0.0
C591 C 0.57673 0.93125 0.9755 0.0
C592 C 0.52422 0.93823 0.78363 0.0
C593 C 0.51285 0.9605 0.80096 0.0
C594 C 0.53079 0.92177 0.83929 0.0
C595 C 0.52658 0.928 0.91469 0.0
C596 C 0.51553 0.95066 0.93301 0.0
C597 C 0.50863 0.96662 0.87578 0.0
C598 C 0.54237 0.89772 0.81718 0.0
C599 C 0.51132 0.95814 0.01294 0.0
H600 H 0.51475 0.85882 0.06187 0.0
H601 H 0.58658 0.89208 0.06048 0.0
H602 H 0.48269 0.90864 0.98017 0.0
H603 H 0.49161 0.88667 0.91139 0.0
H604 H 0.48103 0.87638 0.00126 0.0
H605 H 0.59289 0.93218 0.01277 0.0
H606 H 0.58332 0.9275 0.9181 0.0
H607 H 0.56772 0.94941 0.97548 0.0
H608 H 0.52817 0.93357 0.72632 0.0
H609 H 0.50011 0.98393 0.88971 0.0
H610 H 0.53134 0.88225 0.83985 0.0
H611 H 0.56107 0.89649 0.84101 0.0
H612 H 0.54381 0.89546 0.75589 0.0
H613 H 0.49979 0.94422 0.04174 0.0
H614 H 0.5022 0.97622 0.01785 0.0
H615 H 0.52916 0.95909 0.04242 0.0
C616 C 0.66294 0.5548 0.95564 0.0
C617 C 0.65883 0.55975 0.03107 0.0
C618 C 0.64431 0.54473 0.91139 0.0
C619 C 0.62079 0.54038 0.94294 0.0
C620 C 0.6168 0.54452 0.01992 0.0
C621 C 0.63609 0.55386 0.06352 0.0
C622 C 0.64951 0.53979 0.83011 0.0
C623 C 0.59185 0.5404 0.05522 0.0
C624 C 0.56774 0.54696 0.80948 0.0
C625 C 0.56205 0.52251 0.79312 0.0
C626 C 0.58662 0.55295 0.85903 0.0
C627 C 0.59993 0.53398 0.89356 0.0
C628 C 0.59402 0.5092 0.87802 0.0
C629 C 0.57512 0.50375 0.8277 0.0
C630 C 0.59249 0.57961 0.87379 0.0
C631 C 0.60767 0.48851 0.91428 0.0
H632 H 0.68072 0.55905 0.93108 0.0
H633 H 0.63301 0.55774 0.12201 0.0
H634 H 0.64319 0.5211 0.81456 0.0
H635 H 0.6392 0.55294 0.79553 0.0
H636 H 0.66939 0.54156 0.81635 0.0
H637 H 0.59242 0.54205 0.11678 0.0
H638 H 0.57877 0.55412 0.03372 0.0
H639 H 0.58451 0.52204 0.04029 0.0
H640 H 0.55755 0.56145 0.78283 0.0
H641 H 0.57034 0.4848 0.81623 0.0
H642 H 0.61164 0.58376 0.85595 0.0
H643 H 0.59122 0.58353 0.93427 0.0
H644 H 0.57992 0.59211 0.84406 0.0
H645 H 0.62755 0.48984 0.90057 0.0
H646 H 0.60072 0.47025 0.89635 0.0
H647 H 0.60589 0.4899 0.97563 0.0
C648 C 0.96766 0.63948 0.0677 0.0
C649 C 0.95308 0.65791 0.03722 0.0
C650 C 0.97665 0.62032 0.02307 0.0
C651 C 0.97135 0.62001 0.94608 0.0
C652 C 0.95739 0.63908 0.91471 0.0
C653 C 0.94817 0.65764 0.96084 0.0
C654 C 0.99107 0.60002 0.05865 0.0
C655 C 0.95179 0.63965 0.83257 0.0
C656 C 0.00815 0.57961 0.81446 0.0
C657 C 0.99131 0.56062 0.80031 0.0
C658 C 0.002 0.59913 0.86198 0.0
C659 C 0.9789 0.59899 0.89878 0.0
C660 C 0.96233 0.57925 0.8876 0.0
C661 C 0.96858 0.56053 0.83775 0.0
C662 C 0.01995 0.62011 0.87151 0.0
C663 C 0.93778 0.57807 0.92739 0.0
H664 H 0.97147 0.63965 0.12679 0.0
H665 H 0.93717 0.67204 0.93693 0.0
H666 H 0.9808 0.58246 0.05325 0.0
H667 H 0.00896 0.59766 0.02967 0.0
H668 H 0.99458 0.60354 0.11854 0.0
H669 H 0.94247 0.65681 0.81605 0.0
H670 H 0.969 0.63786 0.79957 0.0
H671 H 0.93974 0.62391 0.81779 0.0
H672 H 0.02615 0.57929 0.78847 0.0
H673 H 0.95549 0.54581 0.82795 0.0
H674 H 0.02487 0.62222 0.93093 0.0
H675 H 0.01128 0.63747 0.85393 0.0
H676 H 0.03708 0.61749 0.83853 0.0
H677 H 0.94046 0.57975 0.98831 0.0
H678 H 0.92766 0.56072 0.91586 0.0
H679 H 0.92617 0.59361 0.90996 0.0
C680 C 0.0369 0.23981 0.25418 0.0
C681 C 0.04105 0.23321 0.17974 0.0
C682 C 0.02905 0.22238 0.30647 0.0
C683 C 0.02501 0.19785 0.28358 0.0
C684 C 0.03013 0.19085 0.20927 0.0
C685 C 0.03821 0.2086 0.15832 0.0
C686 C 0.02411 0.23043 0.38556 0.0
C687 C 0.02589 0.16491 0.18256 0.0
C688 C 0.01714 0.14867 0.43098 0.0
C689 C 0.99152 0.14757 0.43787 0.0
C690 C 0.02842 0.16496 0.38084 0.0
C691 C 0.01358 0.18004 0.3359 0.0
C692 C 0.98762 0.17853 0.34187 0.0
C693 C 0.9769 0.16247 0.39355 0.0
C694 C 0.05612 0.16632 0.37674 0.0
C695 C 0.97118 0.19391 0.29378 0.0
H696 H 0.03922 0.25874 0.27132 0.0
H697 H 0.04138 0.2033 0.10092 0.0
H698 H 0.00411 0.22919 0.39755 0.0
H699 H 0.03352 0.21814 0.42507 0.0
H700 H 0.03033 0.24956 0.39606 0.0
H701 H 0.03274 0.16199 0.12488 0.0
H702 H 0.0351 0.15173 0.21976 0.0
H703 H 0.00592 0.16062 0.18415 0.0
H704 H 0.02831 0.13707 0.46578 0.0
H705 H 0.95705 0.16134 0.39895 0.0
H706 H 0.06245 0.18506 0.3918 0.0
H707 H 0.0625 0.16269 0.31907 0.0
H708 H 0.06497 0.15302 0.41451 0.0
H709 H 0.9745 0.21362 0.30537 0.0
H710 H 0.95137 0.1898 0.30326 0.0
H711 H 0.97554 0.19071 0.23419 0.0
C712 C 0.31188 0.06674 0.14957 0.0
C713 C 0.28987 0.05379 0.16224 0.0
C714 C 0.33379 0.05966 0.18346 0.0
C715 C 0.3337 0.03918 0.23138 0.0
C716 C 0.31121 0.02731 0.24935 0.0
C717 C 0.28951 0.03474 0.21439 0.0
C718 C 0.35736 0.07295 0.16331 0.0
C719 C 0.31032 0.00562 0.30107 0.0
C720 C 0.39257 0.00307 0.21914 0.0
C721 C 0.40509 0.01109 0.28255 0.0
C722 C 0.36884 0.01128 0.20391 0.0
C723 C 0.35747 0.02818 0.25292 0.0
C724 C 0.36973 0.03582 0.31835 0.0
C725 C 0.39345 0.02705 0.33262 0.0
C726 C 0.35624 0.00242 0.13404 0.0
C727 C 0.35823 0.05388 0.37165 0.0
H728 H 0.31232 0.08171 0.11019 0.0
H729 H 0.27254 0.0248 0.22521 0.0
H730 H 0.36817 0.0772 0.2139 0.0
H731 H 0.36881 0.06101 0.12723 0.0
H732 H 0.35391 0.09029 0.13311 0.0
H733 H 0.29126 0.00136 0.31978 0.0
H734 H 0.31771 0.98931 0.27182 0.0
H735 H 0.32191 0.00896 0.35065 0.0
H736 H 0.40145 0.99038 0.1812 0.0
H737 H 0.40319 0.03323 0.38173 0.0
H738 H 0.35369 0.01801 0.09551 0.0
H739 H 0.33773 0.99494 0.14765 0.0
H740 H 0.36691 0.98803 0.10462 0.0
H741 H 0.35724 0.07211 0.34484 0.0
H742 H 0.36889 0.05579 0.42385 0.0
H743 H 0.33914 0.04821 0.3858 0.0
C744 C 0.45974 0.30312 0.17999 0.0
C745 C 0.47132 0.28021 0.18026 0.0
C746 C 0.46609 0.32134 0.23184 0.0
C747 C 0.48453 0.31657 0.28483 0.0
C748 C 0.49573 0.29327 0.28683 0.0
C749 C 0.48893 0.27535 0.23473 0.0
C750 C 0.45358 0.3459 0.22847 0.0
C751 C 0.51555 0.28753 0.34242 0.0
C752 C 0.52233 0.36855 0.3668 0.0
C753 C 0.51283 0.36978 0.43925 0.0
C754 C 0.51278 0.35175 0.31512 0.0
C755 C 0.49304 0.33615 0.33634 0.0
C756 C 0.48267 0.33813 0.40848 0.0
C757 C 0.49288 0.3548 0.45938 0.0
C758 C 0.52446 0.35003 0.23888 0.0
C759 C 0.46125 0.32223 0.43249 0.0
H760 H 0.44608 0.30706 0.13818 0.0
H761 H 0.49796 0.25773 0.23547 0.0
H762 H 0.44638 0.35109 0.28415 0.0
H763 H 0.46711 0.3602 0.21171 0.0
H764 H 0.43818 0.34597 0.18823 0.0
H765 H 0.5219 0.26829 0.33809 0.0
H766 H 0.53158 0.2999 0.33344 0.0
H767 H 0.50871 0.2908 0.3998 0.0
H768 H 0.53781 0.38013 0.35144 0.0
H769 H 0.48532 0.35609 0.51511 0.0
H770 H 0.5103 0.35185 0.19522 0.0
H771 H 0.53301 0.33178 0.23165 0.0
H772 H 0.53881 0.36433 0.22992 0.0
H773 H 0.44611 0.3235 0.39167 0.0
H774 H 0.45407 0.32746 0.48827 0.0
H775 H 0.46701 0.3028 0.43422 0.0
C776 C 0.24001 0.48521 0.24524 0.0
C777 C 0.2344 0.4886 0.16996 0.0
C778 C 0.22317 0.49157 0.30138 0.0
C779 C 0.20022 0.50162 0.28178 0.0
C780 C 0.19422 0.50464 0.20593 0.0
C781 C 0.21137 0.49808 0.15095 0.0
C782 C 0.23009 0.48789 0.38171 0.0
C783 C 0.16989 0.51525 0.18281 0.0
C784 C 0.14766 0.50228 0.42183 0.0
C785 C 0.14906 0.52636 0.44886 0.0
C786 C 0.16447 0.49378 0.36829 0.0
C787 C 0.18285 0.5099 0.34063 0.0
C788 C 0.18443 0.53418 0.36827 0.0
C789 C 0.16761 0.54206 0.42254 0.0
C790 C 0.1624 0.46769 0.34076 0.0
C791 C 0.20357 0.55199 0.33932 0.0
H792 H 0.25768 0.47778 0.26051 0.0
H793 H 0.20677 0.50061 0.09295 0.0
H794 H 0.23095 0.50585 0.41066 0.0
H795 H 0.21585 0.47667 0.41042 0.0
H796 H 0.24814 0.47874 0.38755 0.0
H797 H 0.16768 0.51548 0.12145 0.0
H798 H 0.1545 0.50449 0.20742 0.0
H799 H 0.16831 0.53427 0.2041 0.0
H800 H 0.13337 0.4901 0.44265 0.0
H801 H 0.16848 0.56077 0.44287 0.0
H802 H 0.18005 0.45807 0.34912 0.0
H803 H 0.15865 0.46751 0.28021 0.0
H804 H 0.14753 0.4573 0.36962 0.0
H805 H 0.22225 0.54453 0.34773 0.0
H806 H 0.20247 0.57016 0.36713 0.0
H807 H 0.20118 0.55457 0.27864 0.0
C808 C 0.95731 0.80357 0.09149 0.0
C809 C 0.97229 0.78434 0.11484 0.0
C810 C 0.96738 0.82403 0.05475 0.0
C811 C 0.99296 0.82499 0.03973 0.0
C812 C 0.00826 0.80601 0.0657 0.0
C813 C 0.99773 0.78591 0.10285 0.0
C814 C 0.95049 0.84404 0.02909 0.0
C815 C 0.0356 0.80621 0.05053 0.0
C816 C 0.01632 0.85711 0.86614 0.0
C817 C 0.02728 0.87835 0.89548 0.0
C818 C 0.00446 0.84004 0.91237 0.0
C819 C 0.00342 0.84428 0.99006 0.0
C820 C 0.01355 0.86616 0.01985 0.0
C821 C 0.02537 0.88297 0.97213 0.0
C822 C 0.99375 0.81703 0.87818 0.0
C823 C 0.01267 0.8714 0.10231 0.0
H824 H 0.93762 0.8024 0.10078 0.0
H825 H 0.0093 0.77078 0.1189 0.0
H826 H 0.95806 0.8623 0.04431 0.0
H827 H 0.94901 0.84342 0.96762 0.0
H828 H 0.93173 0.84216 0.05334 0.0
H829 H 0.04521 0.79133 0.08033 0.0
H830 H 0.03898 0.80393 0.98998 0.0
H831 H 0.04382 0.82403 0.06735 0.0
H832 H 0.01734 0.85367 0.80679 0.0
H833 H 0.03391 0.89929 0.99521 0.0
H834 H 0.97414 0.81492 0.89444 0.0
H835 H 0.00363 0.80079 0.89933 0.0
H836 H 0.99506 0.81705 0.81651 0.0
H837 H 0.99366 0.86902 0.12403 0.0
H838 H 0.01916 0.89023 0.11578 0.0
H839 H 0.02442 0.85815 0.13196 0.0
C840 C 0.72178 0.97317 0.05854 0.0
C841 C 0.7196 0.96713 0.13409 0.0
C842 C 0.70108 0.98017 0.01757 0.0
C843 C 0.67786 0.98136 0.05343 0.0
C844 C 0.67525 0.97302 0.12751 0.0
C845 C 0.69612 0.96587 0.16673 0.0
C846 C 0.70453 0.98821 0.93802 0.0
C847 C 0.65079 0.97376 0.16779 0.0
C848 C 0.63308 0.03219 0.0164 0.0
C849 C 0.61345 0.01942 0.98384 0.0
C850 C 0.65491 0.02027 0.03449 0.0
C851 C 0.65724 0.99492 0.01935 0.0
C852 C 0.63832 0.98235 0.9809 0.0
C853 C 0.6165 0.99474 0.96385 0.0
C854 C 0.67485 0.03451 0.07419 0.0
C855 C 0.64054 0.95554 0.96165 0.0
H856 H 0.7398 0.97389 0.03252 0.0
H857 H 0.69416 0.96081 0.22471 0.0
H858 H 0.68856 0.98277 0.90345 0.0
H859 H 0.70614 0.00847 0.93625 0.0
H860 H 0.72149 0.9804 0.91307 0.0
H861 H 0.65137 0.96435 0.2224 0.0
H862 H 0.64548 0.99311 0.1775 0.0
H863 H 0.63623 0.96508 0.13354 0.0
H864 H 0.63105 0.05143 0.03 0.0
H865 H 0.60144 0.9848 0.93817 0.0
H866 H 0.69287 0.03164 0.04647 0.0
H867 H 0.6764 0.02783 0.13216 0.0
H868 H 0.67109 0.05448 0.07591 0.0
H869 H 0.65927 0.95134 0.94067 0.0
H870 H 0.62694 0.94982 0.91907 0.0
H871 H 0.63742 0.94445 0.01243 0.0
C872 C 0.51683 0.73683 0.07817 0.0
C873 C 0.54193 0.74005 0.09231 0.0
C874 C 0.5081 0.71603 0.04035 0.0
C875 C 0.52485 0.69779 0.01675 0.0
C876 C 0.55018 0.70056 0.03321 0.0
C877 C 0.55849 0.72188 0.06985 0.0
C878 C 0.48101 0.71407 0.02308 0.0
C879 C 0.56854 0.68128 0.01072 0.0
C880 C 0.49365 0.63825 0.95723 0.0
C881 C 0.49127 0.64193 0.88044 0.0
C882 C 0.50587 0.6556 0.00221 0.0
C883 C 0.51589 0.67709 0.9695 0.0
C884 C 0.51489 0.68003 0.8914 0.0
C885 C 0.50265 0.66244 0.84795 0.0
C886 C 0.50685 0.6516 0.08512 0.0
C887 C 0.52546 0.70253 0.85401 0.0
H888 H 0.50407 0.75108 0.09426 0.0
H889 H 0.57791 0.72432 0.08114 0.0
H890 H 0.47836 0.7143 0.96196 0.0
H891 H 0.47342 0.69647 0.04396 0.0
H892 H 0.47029 0.72929 0.0481 0.0
H893 H 0.58695 0.68477 0.03515 0.0
H894 H 0.562 0.66288 0.02836 0.0
H895 H 0.57046 0.68087 0.9493 0.0
H896 H 0.48491 0.62244 0.98272 0.0
H897 H 0.5013 0.66513 0.78844 0.0
H898 H 0.49408 0.6644 0.11348 0.0
H899 H 0.52558 0.65552 0.10639 0.0
H900 H 0.50154 0.63259 0.10054 0.0
H901 H 0.51477 0.71886 0.87119 0.0
H902 H 0.52502 0.70107 0.7924 0.0
H903 H 0.54474 0.70565 0.87151 0.0
C904 C 0.7983 0.56474 0.03287 0.0
C905 C 0.78766 0.55248 0.09396 0.0
C906 C 0.81824 0.55478 0.99328 0.0
C907 C 0.82781 0.5319 0.01484 0.0
C908 C 0.81834 0.52025 0.07926 0.0
C909 C 0.79844 0.53066 0.11782 0.0
C910 C 0.82808 0.56813 0.92588 0.0
C911 C 0.82816 0.49592 0.10483 0.0
C912 C 0.85085 0.48792 0.86726 0.0
C913 C 0.87609 0.48675 0.8827 0.0
C914 C 0.83514 0.50304 0.90856 0.0
C915 C 0.84497 0.51837 0.96475 0.0
C916 C 0.87072 0.51912 0.97601 0.0
C917 C 0.88598 0.50303 0.9356 0.0
C918 C 0.80779 0.50154 0.89466 0.0
C919 C 0.88204 0.53609 0.03292 0.0
H920 H 0.7905 0.5818 0.01395 0.0
H921 H 0.79098 0.52102 0.16474 0.0
H922 H 0.84846 0.56758 0.92408 0.0
H923 H 0.82123 0.559 0.87475 0.0
H924 H 0.82214 0.58754 0.92496 0.0
H925 H 0.82044 0.49037 0.15963 0.0
H926 H 0.82351 0.48155 0.06332 0.0
H927 H 0.84848 0.4967 0.10909 0.0
H928 H 0.84309 0.47628 0.82434 0.0
H929 H 0.90544 0.50253 0.9479 0.0
H930 H 0.80045 0.51996 0.88239 0.0
H931 H 0.79821 0.49477 0.94537 0.0
H932 H 0.80316 0.48909 0.84769 0.0
H933 H 0.87419 0.55472 0.02844 0.0
H934 H 0.90234 0.53741 0.02649 0.0
H935 H 0.87779 0.52928 0.08961 0.0
C936 C 0.05129 0.18501 0.85692 0.0
C937 C 0.04368 0.20436 0.81159 0.0
C938 C 0.04701 0.16057 0.83635 0.0
C939 C 0.03543 0.15533 0.76783 0.0
C940 C 0.02865 0.17476 0.72035 0.0
C941 C 0.03248 0.19908 0.74342 0.0
C942 C 0.05415 0.14038 0.88907 0.0
C943 C 0.01645 0.16998 0.64659 0.0
C944 C 0.04285 0.09038 0.69618 0.0
C945 C 0.02004 0.07994 0.71479 0.0
C946 C 0.04783 0.11513 0.71097 0.0
C947 C 0.02981 0.12952 0.74727 0.0
C948 C 0.00674 0.11899 0.76632 0.0
C949 C 0.002 0.09436 0.74885 0.0
C950 C 0.0723 0.12592 0.68747 0.0
C951 C 0.98727 0.13358 0.80658 0.0
H952 H 0.05975 0.18896 0.91009 0.0
H953 H 0.02654 0.21397 0.70828 0.0
H954 H 0.0377 0.12925 0.90414 0.0
H955 H 0.06743 0.12792 0.8616 0.0
H956 H 0.06256 0.14758 0.94094 0.0
H957 H 0.01763 0.18615 0.60941 0.0
H958 H 0.02468 0.15401 0.61758 0.0
H959 H 0.99677 0.1658 0.6568 0.0
H960 H 0.05673 0.07923 0.66917 0.0
H961 H 0.98441 0.0862 0.76364 0.0
H962 H 0.08258 0.13232 0.73701 0.0
H963 H 0.06932 0.14209 0.65152 0.0
H964 H 0.08383 0.11253 0.65668 0.0
H965 H 0.99479 0.14109 0.85923 0.0
H966 H 0.97066 0.12239 0.81973 0.0
H967 H 0.98166 0.14932 0.77203 0.0
C968 C 0.3166 0.02049 0.81052 0.0
C969 C 0.3079 0.0443 0.82272 0.0
C970 C 0.34003 0.01644 0.7798 0.0
C971 C 0.35531 0.0367 0.76171 0.0
C972 C 0.34623 0.06078 0.77074 0.0
C973 C 0.32256 0.06429 0.80066 0.0
C974 C 0.34885 0.99047 0.76992 0.0
C975 C 0.36203 0.08286 0.75284 0.0
C976 C 0.42395 0.02544 0.77525 0.0
C977 C 0.43097 0.02334 0.70034 0.0
C978 C 0.39956 0.03046 0.79562 0.0
C979 C 0.38146 0.03266 0.73985 0.0
C980 C 0.3883 0.03025 0.66407 0.0
C981 C 0.41301 0.02581 0.64521 0.0
C982 C 0.39313 0.03311 0.8771 0.0
C983 C 0.3695 0.03205 0.603 0.0
H984 H 0.30534 0.00493 0.82692 0.0
H985 H 0.31604 0.08276 0.81009 0.0
H986 H 0.35656 0.98781 0.7132 0.0
H987 H 0.3638 0.98679 0.80994 0.0
H988 H 0.33391 0.97681 0.77908 0.0
H989 H 0.35162 0.10024 0.75698 0.0
H990 H 0.3777 0.08381 0.792 0.0
H991 H 0.36986 0.08126 0.69595 0.0
H992 H 0.43744 0.02278 0.81842 0.0
H993 H 0.41819 0.02408 0.58714 0.0
H994 H 0.38027 0.01824 0.89399 0.0
H995 H 0.38366 0.05075 0.88716 0.0
H996 H 0.4096 0.03239 0.9132 0.0
H997 H 0.35483 0.01808 0.61146 0.0
H998 H 0.37774 0.02935 0.5469 0.0
H999 H 0.36059 0.05024 0.60487 0.0
C1000 C 0.45541 0.34667 0.90579 0.0
C1001 C 0.45772 0.32471 0.86579 0.0
C1002 C 0.46309 0.36904 0.87545 0.0
C1003 C 0.47275 0.36972 0.80228 0.0
C1004 C 0.47495 0.34764 0.7611 0.0
C1005 C 0.4677 0.3253 0.79373 0.0
C1006 C 0.46018 0.39197 0.92158 0.0
C1007 C 0.48539 0.34749 0.68326 0.0
C1008 C 0.46889 0.43174 0.70848 0.0
C1009 C 0.49267 0.44114 0.7191 0.0
C1010 C 0.46241 0.4082 0.73304 0.0
C1011 C 0.48012 0.39368 0.7692 0.0
C1012 C 0.50432 0.40291 0.77874 0.0
C1013 C 0.51031 0.42655 0.75355 0.0
C1014 C 0.43643 0.39908 0.72174 0.0
C1015 C 0.52357 0.38822 0.8184 0.0
H1016 H 0.44787 0.34642 0.96173 0.0
H1017 H 0.46967 0.30837 0.76265 0.0
H1018 H 0.4763 0.40439 0.91533 0.0
H1019 H 0.44369 0.4018 0.90218 0.0
H1020 H 0.4576 0.38784 0.98157 0.0
H1021 H 0.48133 0.33006 0.65358 0.0
H1022 H 0.47809 0.36293 0.65034 0.0
H1023 H 0.50562 0.34978 0.68634 0.0
H1024 H 0.45522 0.44289 0.6814 0.0
H1025 H 0.52864 0.43385 0.76261 0.0
H1026 H 0.42719 0.39678 0.77646 0.0
H1027 H 0.43659 0.3809 0.69395 0.0
H1028 H 0.42539 0.41187 0.68785 0.0
H1029 H 0.51801 0.38571 0.87738 0.0
H1030 H 0.54194 0.39726 0.81676 0.0
H1031 H 0.52511 0.36974 0.79302 0.0
C1032 C 0.19053 0.47749 0.77306 0.0
C1033 C 0.19231 0.46923 0.8466 0.0
C1034 C 0.16746 0.48206 0.74114 0.0
C1035 C 0.14583 0.47879 0.78445 0.0
C1036 C 0.14759 0.47029 0.85839 0.0
C1037 C 0.17073 0.46533 0.88812 0.0
C1038 C 0.16622 0.49077 0.66172 0.0
C1039 C 0.12504 0.4665 0.90655 0.0
C1040 C 0.08713 0.51315 0.74345 0.0
C1041 C 0.07232 0.49454 0.71348 0.0
C1042 C 0.11151 0.50853 0.76386 0.0
C1043 C 0.12125 0.48475 0.7539 0.0
C1044 C 0.10659 0.46613 0.72126 0.0
C1045 C 0.0823 0.47127 0.70137 0.0
C1046 C 0.12644 0.52879 0.79938 0.0
C1047 C 0.11624 0.44054 0.70964 0.0
H1048 H 0.20714 0.48051 0.74065 0.0
H1049 H 0.17188 0.45902 0.94505 0.0
H1050 H 0.15317 0.47923 0.62953 0.0
H1051 H 0.15921 0.50977 0.66064 0.0
H1052 H 0.18446 0.49044 0.63358 0.0
H1053 H 0.11308 0.48286 0.90531 0.0
H1054 H 0.11428 0.45081 0.88449 0.0
H1055 H 0.12973 0.46258 0.96531 0.0
H1056 H 0.07944 0.53115 0.75309 0.0
H1057 H 0.07103 0.45692 0.67705 0.0
H1058 H 0.14408 0.53133 0.76895 0.0
H1059 H 0.13095 0.52374 0.85739 0.0
H1060 H 0.11654 0.54651 0.80029 0.0
H1061 H 0.13454 0.44115 0.68208 0.0
H1062 H 0.10361 0.42907 0.67556 0.0
H1063 H 0.11854 0.43153 0.76428 0.0
C1064 C 0.98688 0.82658 0.48461 0.0
C1065 C 0.99833 0.82439 0.41481 0.0
C1066 C 0.98632 0.84915 0.52208 0.0
C1067 C 0.99703 0.87002 0.48815 0.0
C1068 C 0.00858 0.86791 0.41769 0.0
C1069 C 0.00927 0.84506 0.3821 0.0
C1070 C 0.97447 0.85068 0.59808 0.0
C1071 C 0.02046 0.88977 0.38035 0.0
C1072 C 0.97853 0.93383 0.54892 0.0
C1073 C 0.99939 0.94156 0.58812 0.0
C1074 C 0.97729 0.91041 0.51689 0.0
C1075 C 0.997 0.894 0.52702 0.0
C1076 C 0.01735 0.90109 0.57092 0.0
C1077 C 0.01832 0.9248 0.60069 0.0
C1078 C 0.95547 0.90376 0.46921 0.0
C1079 C 0.03825 0.88386 0.58686 0.0
H1080 H 0.97847 0.81062 0.51018 0.0
H1081 H 0.01802 0.84351 0.32797 0.0
H1082 H 0.98831 0.85674 0.63947 0.0
H1083 H 0.95964 0.86452 0.59805 0.0
H1084 H 0.96654 0.83285 0.6162 0.0
H1085 H 0.02761 0.88532 0.32393 0.0
H1086 H 0.00702 0.90487 0.3757 0.0
H1087 H 0.03595 0.89661 0.41476 0.0
H1088 H 0.96335 0.94619 0.54165 0.0
H1089 H 0.03418 0.93027 0.63304 0.0
H1090 H 0.94858 0.88509 0.48228 0.0
H1091 H 0.96122 0.90384 0.40988 0.0
H1092 H 0.94013 0.91689 0.47637 0.0
H1093 H 0.04169 0.87081 0.54064 0.0
H1094 H 0.03358 0.87307 0.63727 0.0
H1095 H 0.05557 0.8941 0.59772 0.0
C1096 C 0.68741 0.99284 0.47752 0.0
C1097 C 0.69372 0.96845 0.46232 0.0
C1098 C 0.66351 0.99894 0.50084 0.0
C1099 C 0.64562 0.98018 0.50982 0.0
C1100 C 0.65212 0.95548 0.49688 0.0
C1101 C 0.67605 0.94993 0.47308 0.0
C1102 C 0.6572 0.02551 0.51378 0.0
C1103 C 0.63362 0.93494 0.50657 0.0
C1104 C 0.58858 0.99231 0.6266 0.0
C1105 C 0.57077 0.99618 0.5719 0.0
C1106 C 0.61306 0.98731 0.60724 0.0
C1107 C 0.61994 0.98633 0.53129 0.0
C1108 C 0.60211 0.9905 0.47575 0.0
C1109 C 0.5777 0.99531 0.49674 0.0
C1110 C 0.63146 0.98276 0.66806 0.0
C1111 C 0.60881 0.98978 0.39414 0.0
H1112 H 0.70091 0.00728 0.46888 0.0
H1113 H 0.68078 0.93103 0.46163 0.0
H1114 H 0.64276 0.03115 0.47421 0.0
H1115 H 0.64963 0.02806 0.57068 0.0
H1116 H 0.67339 0.03782 0.50669 0.0
H1117 H 0.64186 0.91663 0.49701 0.0
H1118 H 0.62566 0.93545 0.5635 0.0
H1119 H 0.61824 0.93728 0.46708 0.0
H1120 H 0.58335 0.99287 0.68485 0.0
H1121 H 0.56408 0.99854 0.45424 0.0
H1122 H 0.64708 0.99586 0.66315 0.0
H1123 H 0.63909 0.96406 0.66213 0.0
H1124 H 0.62323 0.9846 0.72449 0.0
H1125 H 0.62381 0.00313 0.38238 0.0
H1126 H 0.59293 0.99403 0.35799 0.0
H1127 H 0.61576 0.97136 0.37898 0.0
C1128 C 0.50079 0.67468 0.37586 0.0
C1129 C 0.51755 0.69347 0.39297 0.0
C1130 C 0.50139 0.65225 0.41338 0.0
C1131 C 0.51911 0.64859 0.46941 0.0
C1132 C 0.5356 0.66771 0.48852 0.0
C1133 C 0.53472 0.68991 0.44973 0.0
C1134 C 0.48308 0.63243 0.39309 0.0
C1135 C 0.55397 0.66473 0.55031 0.0
C1136 C 0.5038 0.59658 0.60079 0.0
C1137 C 0.51774 0.57741 0.57038 0.0
C1138 C 0.50503 0.62023 0.57107 0.0
C1139 C 0.52014 0.62471 0.50821 0.0
C1140 C 0.53514 0.6058 0.47947 0.0
C1141 C 0.534 0.58249 0.51175 0.0
C1142 C 0.48943 0.63983 0.60673 0.0
C1143 C 0.55156 0.60984 0.41254 0.0
H1144 H 0.48741 0.67733 0.33227 0.0
H1145 H 0.54758 0.70445 0.46379 0.0
H1146 H 0.49292 0.61558 0.37587 0.0
H1147 H 0.47165 0.62777 0.44246 0.0
H1148 H 0.47075 0.63802 0.34731 0.0
H1149 H 0.56553 0.68137 0.55842 0.0
H1150 H 0.54412 0.66065 0.60315 0.0
H1151 H 0.56616 0.64899 0.53812 0.0
H1152 H 0.49165 0.59317 0.64772 0.0
H1153 H 0.54529 0.56814 0.48936 0.0
H1154 H 0.46974 0.63559 0.59664 0.0
H1155 H 0.4935 0.65855 0.58625 0.0
H1156 H 0.49226 0.63969 0.66774 0.0
H1157 H 0.54002 0.61227 0.36248 0.0
H1158 H 0.56414 0.59423 0.4025 0.0
H1159 H 0.56275 0.62676 0.41948 0.0
C1160 C 0.83066 0.49783 0.42182 0.0
C1161 C 0.81737 0.51971 0.42574 0.0
C1162 C 0.85312 0.49547 0.45891 0.0
C1163 C 0.8625 0.51551 0.50037 0.0
C1164 C 0.84856 0.53715 0.5077 0.0
C1165 C 0.82609 0.53895 0.47053 0.0
C1166 C 0.86742 0.47201 0.45054 0.0
C1167 C 0.85806 0.55899 0.55093 0.0
C1168 C 0.9171 0.50705 0.62815 0.0
C1169 C 0.93671 0.51419 0.58168 0.0
C1170 C 0.89279 0.5071 0.60241 0.0
C1171 C 0.888 0.5149 0.52901 0.0
C1172 C 0.90767 0.5223 0.4822 0.0
C1173 C 0.93176 0.52146 0.50876 0.0
C1174 C 0.87228 0.49863 0.65336 0.0
C1175 C 0.9033 0.53117 0.40391 0.0
H1176 H 0.82396 0.48283 0.38766 0.0
H1177 H 0.81588 0.55588 0.4742 0.0
H1178 H 0.88406 0.4754 0.41599 0.0
H1179 H 0.87368 0.46554 0.50559 0.0
H1180 H 0.85639 0.45725 0.42381 0.0
H1181 H 0.844 0.57352 0.5571 0.0
H1182 H 0.86409 0.55336 0.60706 0.0
H1183 H 0.87432 0.56688 0.52185 0.0
H1184 H 0.92073 0.5011 0.6844 0.0
H1185 H 0.94667 0.52651 0.47208 0.0
H1186 H 0.86275 0.48257 0.62847 0.0
H1187 H 0.85843 0.51329 0.66017 0.0
H1188 H 0.87907 0.49346 0.70915 0.0
H1189 H 0.8949 0.51629 0.37022 0.0
H1190 H 0.92052 0.53729 0.3759 0.0
H1191 H 0.89024 0.54667 0.40466 0.0
loop_
_geom_bond_atom_site_label_1
_geom_bond_atom_site_label_2
_geom_bond_distance
_geom_bond_site_symmetry_2
_ccdc_geom_bond_type
O0 Cd1 2.300 . S
O0 C7 1.275 . S
Cd1 O0 2.300 . S
Cd1 O9 2.381 . S
Cd1 O10 2.378 . S
O2 Cd3 2.385 . S
O2 C7 1.255 . S
Cd3 O2 2.385 . S
Cd3 O4 2.317 . S
O4 Cd3 2.317 . S
O4 C5 1.232 . S
C5 O4 1.232 . S
C5 O6 1.218 . S
O6 C5 1.218 . S
C7 O0 1.275 . S
C7 O2 1.255 . S
C8 O9 1.258 . S
C8 O10 1.256 . S
O9 Cd1 2.381 . S
O9 C8 1.258 . S
O10 Cd1 2.378 . S
O10 C8 1.256 . S
O11 Cd12 2.300 . S
O11 C18 1.275 . S
Cd12 O11 2.300 . S
Cd12 O20 2.381 . S
Cd12 O21 2.378 . S
O13 Cd14 2.385 1_655 S
O13 C18 1.255 . S
Cd14 O13 2.385 1_455 S
Cd14 O15 2.317 1_455 S
O15 Cd14 2.317 1_655 S
O15 C16 1.232 . S
C16 O15 1.232 . S
C16 O17 1.218 . S
O17 C16 1.218 . S
C18 O11 1.275 . S
C18 O13 1.255 . S
C19 O20 1.258 . S
C19 O21 1.256 . S
O20 Cd12 2.381 . S
O20 C19 1.258 . S
O21 Cd12 2.378 . S
O21 C19 1.256 . S
O22 Cd23 2.300 . S
O22 C29 1.275 . S
Cd23 O22 2.300 . S
Cd23 O31 2.381 . S
Cd23 O32 2.378 . S
O24 Cd25 2.385 1_565 S
O24 C29 1.255 . S
Cd25 O24 2.385 1_545 S
Cd25 O26 2.317 1_545 S
O26 Cd25 2.317 1_565 S
O26 C27 1.232 . S
C27 O26 1.232 . S
C27 O28 1.218 . S
O28 C27 1.218 . S
C29 O22 1.275 . S
C29 O24 1.255 . S
C30 O31 1.258 . S
C30 O32 1.256 . S
O31 Cd23 2.381 . S
O31 C30 1.258 . S
O32 Cd23 2.378 . S
O32 C30 1.256 . S
O33 Cd34 2.300 . S
O33 C40 1.275 . S
Cd34 O33 2.300 . S
Cd34 O42 2.381 . S
Cd34 O43 2.378 . S
O35 Cd36 2.385 . S
O35 C40 1.255 . S
Cd36 O35 2.385 . S
Cd36 O37 2.317 . S
O37 Cd36 2.317 . S
O37 C38 1.232 . S
C38 O37 1.232 . S
C38 O39 1.218 . S
O39 C38 1.218 . S
C40 O33 1.275 . S
C40 O35 1.255 . S
C41 O42 1.258 . S
C41 O43 1.256 . S
O42 Cd34 2.381 . S
O42 C41 1.258 . S
O43 Cd34 2.378 . S
O43 C41 1.256 . S
O44 Cd45 2.300 . S
O44 C51 1.275 . S
Cd45 O44 2.300 . S
Cd45 O53 2.381 . S
Cd45 O54 2.378 . S
O46 Cd47 2.385 1_554 S
O46 C51 1.255 . S
Cd47 O46 2.385 1_556 S
Cd47 O48 2.317 . S
O48 Cd47 2.317 . S
O48 C49 1.232 . S
C49 O48 1.232 . S
C49 O50 1.218 . S
O50 C49 1.218 . S
C51 O44 1.275 . S
C51 O46 1.255 . S
C52 O53 1.258 . S
C52 O54 1.256 . S
O53 Cd45 2.381 . S
O53 C52 1.258 . S
O54 Cd45 2.378 . S
O54 C52 1.256 . S
O55 Cd56 2.300 . S
O55 C62 1.275 . S
Cd56 O55 2.300 . S
Cd56 O64 2.381 . S
Cd56 O65 2.378 . S
O57 Cd58 2.385 1_554 S
O57 C62 1.255 . S
Cd58 O57 2.385 1_556 S
Cd58 O59 2.317 . S
O59 Cd58 2.317 . S
O59 C60 1.232 . S
C60 O59 1.232 . S
C60 O61 1.218 . S
O61 C60 1.218 . S
C62 O55 1.275 . S
C62 O57 1.255 . S
C63 O64 1.258 . S
C63 O65 1.256 . S
O64 Cd56 2.381 . S
O64 C63 1.258 . S
O65 Cd56 2.378 . S
O65 C63 1.256 . S
O66 Cd67 2.300 . S
O66 C73 1.275 . S
Cd67 O66 2.300 . S
Cd67 O75 2.381 . S
Cd67 O76 2.378 . S
O68 Cd69 2.385 1_554 S
O68 C73 1.255 . S
Cd69 O68 2.385 1_556 S
Cd69 O70 2.317 . S
O70 Cd69 2.317 . S
O70 C71 1.232 . S
C71 O70 1.232 . S
C71 O72 1.218 . S
O72 C71 1.218 . S
C73 O66 1.275 . S
C73 O68 1.255 . S
C74 O75 1.258 . S
C74 O76 1.256 . S
O75 Cd67 2.381 . S
O75 C74 1.258 . S
O76 Cd67 2.378 . S
O76 C74 1.256 . S
O77 Cd78 2.300 . S
O77 C84 1.275 . S
Cd78 O77 2.300 . S
Cd78 O86 2.381 . S
Cd78 O87 2.378 . S
O79 Cd80 2.385 1_554 S
O79 C84 1.255 . S
Cd80 O79 2.385 1_556 S
Cd80 O81 2.317 . S
O81 Cd80 2.317 . S
O81 C82 1.232 . S
C82 O81 1.232 . S
C82 O83 1.218 . S
O83 C82 1.218 . S
C84 O77 1.275 . S
C84 O79 1.255 . S
C85 O86 1.258 . S
C85 O87 1.256 . S
O86 Cd78 2.381 . S
O86 C85 1.258 . S
O87 Cd78 2.378 . S
O87 C85 1.256 . S
C88 C90 1.422 . S
C88 C92 1.415 . S
C88 N94 1.369 . S
C89 C90 1.421 . S
C89 C91 1.417 . S
C89 C101 1.426 . S
C90 C88 1.422 . S
C90 C89 1.421 . S
C90 N100 1.359 . S
C91 C89 1.417 . S
C91 C93 1.329 . S
C91 H110 0.930 1_556 S
C92 C88 1.415 . S
C92 C93 1.437 . S
C92 C96 1.413 . S
C93 C91 1.329 . S
C93 C92 1.437 . S
C93 H115 0.929 . S
N94 C88 1.369 . S
N94 C95 1.343 . S
N94 Gd99 2.622 1_545 S
C95 N94 1.343 . S
C95 C97 1.395 . S
C95 H107 0.909 1_545 S
C96 C92 1.413 . S
C96 C97 1.348 . S
C96 H112 0.931 . S
C97 C95 1.395 . S
C97 C96 1.348 . S
C97 H113 0.930 . S
Gd98 N118 2.622 . S
Gd98 N125 2.570 . S
Gd98 O132 2.353 1_655 S
Gd98 O133 2.461 1_655 S
Gd98 O134 2.427 . S
Gd98 O136 2.388 . S
Gd98 O137 2.386 1_545 S
Gd98 O141 2.307 1_655 S
Gd98 C151 2.805 . S
Gd99 N94 2.622 1_565 S
Gd99 N100 2.570 1_565 S
Gd99 O131 2.386 1_565 S
Gd99 O135 2.307 1_465 S
Gd99 O138 2.353 . S
Gd99 O139 2.468 . S
Gd99 O140 2.427 . S
Gd99 O142 2.388 . S
Gd99 C163 2.805 . S
N100 C90 1.359 . S
N100 Gd99 2.570 1_545 S
N100 C102 1.343 . S
C101 C89 1.426 . S
C101 C103 1.324 . S
C101 H109 0.925 1_556 S
C102 N100 1.343 . S
C102 C103 1.390 . S
C102 H104 0.931 1_455 S
C103 C101 1.324 . S
C103 C102 1.390 . S
C103 H105 0.928 1_456 S
H104 C102 0.931 1_655 S
H105 C103 0.928 1_654 S
H106 C129 0.931 . S
H107 C95 0.909 1_565 S
H108 C130 0.966 . S
H109 C101 0.925 1_554 S
H110 C91 0.930 1_554 S
H111 C120 0.929 . S
H112 C96 0.931 . S
H113 C97 0.930 . S
H114 C152 0.930 . S
H115 C93 0.929 . S
H116 C121 0.931 . S
H117 C122 0.930 . S
N118 Gd98 2.622 . S
N118 C119 1.369 . S
N118 C120 1.338 . S
C119 N118 1.369 . S
C119 C123 1.415 1_545 S
C119 C126 1.422 . S
C120 H111 0.929 . S
C120 N118 1.338 . S
C120 C122 1.378 . S
C121 H116 0.931 . S
C121 C122 1.348 1_565 S
C121 C123 1.413 . S
C122 H117 0.930 . S
C122 C120 1.378 . S
C122 C121 1.348 1_545 S
C123 C119 1.415 1_565 S
C123 C121 1.413 . S
C123 C153 1.437 . S
H124 C153 0.929 . S
N125 Gd98 2.570 . S
N125 C126 1.359 . S
N125 C129 1.343 1_655 S
C126 C119 1.422 . S
C126 N125 1.359 . S
C126 C128 1.421 1_545 S
C127 C128 1.422 . S
C127 C130 1.285 1_655 S
C127 H154 0.931 . S
C128 C126 1.421 1_565 S
C128 C127 1.422 . S
C128 C152 1.417 . S
C129 H106 0.931 . S
C129 N125 1.343 1_455 S
C129 C130 1.392 1_545 S
C130 H108 0.966 . S
C130 C127 1.285 1_455 S
C130 C129 1.392 1_565 S
O131 Gd99 2.386 1_545 S
O131 C143 1.265 . S
O132 Gd98 2.353 1_455 S
O132 C143 1.242 . S
O133 Gd98 2.461 1_455 S
O133 C151 1.248 1_455 S
O134 Gd98 2.427 . S
O134 C151 1.252 . S
O135 Gd99 2.307 1_645 S
O135 C144 1.261 . S
O136 Gd98 2.388 . S
O136 C144 1.252 . S
O137 Gd98 2.386 1_565 S
O137 C155 1.265 . S
O138 Gd99 2.353 . S
O138 C155 1.242 1_455 S
O139 Gd99 2.468 . S
O139 C163 1.263 . S
O140 Gd99 2.427 . S
O140 C163 1.252 . S
O141 Gd98 2.307 1_455 S
O141 C156 1.261 . S
O142 Gd99 2.388 . S
O142 C156 1.252 1_565 S
C143 O131 1.265 . S
C143 O132 1.242 . S
C144 O135 1.261 . S
C144 O136 1.252 . S
C145 C148 1.394 . S
C145 C150 1.370 . S
C145 C151 1.500 . S
C146 C149 1.383 . S
C146 C150 1.395 . S
C147 C148 1.396 . S
C147 C149 1.365 . S
C147 H164 0.929 . S
C148 C145 1.394 . S
C148 C147 1.396 . S
C148 H165 0.930 . S
C149 C146 1.383 . S
C149 C147 1.365 . S
C149 H166 0.931 . S
C150 C145 1.370 . S
C150 C146 1.395 . S
C150 H167 0.930 1_655 S
C151 Gd98 2.805 . S
C151 O133 1.248 1_655 S
C151 O134 1.252 . S
C151 C145 1.500 . S
C152 H114 0.930 . S
C152 C128 1.417 . S
C152 C153 1.329 . S
C153 C123 1.437 . S
C153 H124 0.929 . S
C153 C152 1.329 . S
H154 C127 0.931 . S
C155 O137 1.265 . S
C155 O138 1.242 1_655 S
C156 O141 1.261 . S
C156 O142 1.252 1_545 S
C157 C160 1.394 . S
C157 C162 1.370 . S
C157 C163 1.500 . S
C158 C161 1.383 . S
C158 C162 1.395 . S
C159 C160 1.396 . S
C159 C161 1.365 . S
C159 H168 0.929 . S
C160 C157 1.394 . S
C160 C159 1.396 . S
C160 H169 0.930 . S
C161 C158 1.383 . S
C161 C159 1.365 . S
C161 H170 0.931 . S
C162 C157 1.370 . S
C162 C158 1.395 . S
C162 H171 0.935 . S
C163 Gd99 2.805 . S
C163 O139 1.263 . S
C163 O140 1.252 . S
C163 C157 1.500 . S
H164 C147 0.929 . S
H165 C148 0.930 . S
H166 C149 0.931 . S
H167 C150 0.930 1_455 S
H168 C159 0.929 . S
H169 C160 0.930 . S
H170 C161 0.931 . S
H171 C162 0.935 . S
C172 C174 1.422 . S
C172 C176 1.415 . S
C172 N178 1.369 . S
C173 C174 1.421 . S
C173 C175 1.417 . S
C173 C185 1.422 . S
C174 C172 1.422 . S
C174 C173 1.421 . S
C174 N184 1.359 . S
C175 C173 1.417 . S
C175 C177 1.329 . S
C175 H194 0.930 . S
C176 C172 1.415 . S
C176 C177 1.437 . S
C176 C180 1.413 . S
C177 C175 1.329 . S
C177 C176 1.437 . S
C177 H199 0.929 . S
N178 C172 1.369 . S
N178 C179 1.338 . S
N178 Gd183 2.622 . S
C179 N178 1.338 . S
C179 C181 1.378 . S
C179 H191 0.929 . S
C180 C176 1.413 . S
C180 C181 1.348 . S
C180 H196 0.931 . S
C181 C179 1.378 . S
C181 C180 1.348 . S
C181 H197 0.930 . S
Gd182 N202 2.622 . S
Gd182 N209 2.570 . S
Gd182 O216 2.353 1_545 S
Gd182 O217 2.468 . S
Gd182 O218 2.427 . S
Gd182 O220 2.388 . S
Gd182 O221 2.386 . S
Gd182 O225 2.307 . S
Gd182 C235 2.805 . S
Gd183 N178 2.622 . S
Gd183 N184 2.570 . S
Gd183 O215 2.386 . S
Gd183 O219 2.307 1_565 S
Gd183 O222 2.353 1_565 S
Gd183 O223 2.468 . S
Gd183 O224 2.427 . S
Gd183 O226 2.388 . S
Gd183 C247 2.805 . S
N184 C174 1.359 . S
N184 Gd183 2.570 . S
N184 C186 1.343 . S
C185 C173 1.422 . S
C185 C187 1.321 . S
C185 H193 0.931 . S
C186 N184 1.343 . S
C186 C187 1.390 . S
C186 H188 0.931 . S
C187 C185 1.321 . S
C187 C186 1.390 . S
C187 H189 0.930 . S
H188 C186 0.931 . S
H189 C187 0.930 . S
H190 C213 0.931 . S
H191 C179 0.929 . S
H192 C214 0.930 . S
H193 C185 0.931 . S
H194 C175 0.930 . S
H195 C204 0.929 . S
H196 C180 0.931 . S
H197 C181 0.930 . S
H198 C236 0.930 . S
H199 C177 0.929 . S
H200 C205 0.931 . S
H201 C206 0.930 . S
N202 Gd182 2.622 . S
N202 C203 1.369 . S
N202 C204 1.338 . S
C203 N202 1.369 . S
C203 C207 1.415 . S
C203 C210 1.422 . S
C204 H195 0.929 . S
C204 N202 1.338 . S
C204 C206 1.378 . S
C205 H200 0.931 . S
C205 C206 1.348 . S
C205 C207 1.413 . S
C206 H201 0.930 . S
C206 C204 1.378 . S
C206 C205 1.348 . S
C207 C203 1.415 . S
C207 C205 1.413 . S
C207 C237 1.437 . S
H208 C237 0.929 . S
N209 Gd182 2.570 . S
N209 C210 1.359 . S
N209 C213 1.343 . S
C210 C203 1.422 . S
C210 N209 1.359 . S
C210 C212 1.421 . S
C211 C212 1.422 . S
C211 C214 1.321 . S
C211 H238 0.931 . S
C212 C210 1.421 . S
C212 C211 1.422 . S
C212 C236 1.417 . S
C213 H190 0.931 . S
C213 N209 1.343 . S
C213 C214 1.390 . S
C214 H192 0.930 . S
C214 C211 1.321 . S
C214 C213 1.390 . S
O215 Gd183 2.386 . S
O215 C227 1.265 . S
O216 Gd182 2.353 1_565 S
O216 C227 1.242 . S
O217 Gd182 2.468 . S
O217 C235 1.263 . S
O218 Gd182 2.427 . S
O218 C235 1.252 . S
O219 Gd183 2.307 1_545 S
O219 C228 1.261 . S
O220 Gd182 2.388 . S
O220 C228 1.252 . S
O221 Gd182 2.386 . S
O221 C239 1.265 . S
O222 Gd183 2.353 1_545 S
O222 C239 1.242 . S
O223 Gd183 2.468 . S
O223 C247 1.263 . S
O224 Gd183 2.427 . S
O224 C247 1.252 . S
O225 Gd182 2.307 . S
O225 C240 1.261 . S
O226 Gd183 2.388 . S
O226 C240 1.252 1_565 S
C227 O215 1.265 . S
C227 O216 1.242 . S
C228 O219 1.261 . S
C228 O220 1.252 . S
C229 C232 1.394 . S
C229 C234 1.370 . S
C229 C235 1.500 . S
C230 C233 1.383 1_556 S
C230 C234 1.395 . S
C231 C232 1.396 1_554 S
C231 C233 1.365 . S
C231 H248 0.929 . S
C232 C229 1.394 . S
C232 C231 1.396 1_556 S
C232 H249 0.930 . S
C233 C230 1.383 1_554 S
C233 C231 1.365 . S
C233 H250 0.931 . S
C234 C229 1.370 . S
C234 C230 1.395 . S
C234 H251 0.930 . S
C235 Gd182 2.805 . S
C235 O217 1.263 . S
C235 O218 1.252 . S
C235 C229 1.500 . S
C236 H198 0.930 . S
C236 C212 1.417 . S
C236 C237 1.329 . S
C237 C207 1.437 . S
C237 H208 0.929 . S
C237 C236 1.329 . S
H238 C211 0.931 . S
C239 O221 1.265 . S
C239 O222 1.242 . S
C240 O225 1.261 . S
C240 O226 1.252 1_545 S
C241 C244 1.394 . S
C241 C246 1.370 1_565 S
C241 C247 1.500 . S
C242 C245 1.382 1_545 S
C242 C246 1.395 . S
C243 C244 1.396 . S
C243 C245 1.367 . S
C243 H252 0.929 . S
C244 C241 1.394 . S
C244 C243 1.396 . S
C244 H253 0.930 . S
C245 C242 1.382 1_565 S
C245 C243 1.367 . S
C245 H254 0.930 1_565 S
C246 C241 1.370 1_545 S
C246 C242 1.395 . S
C246 H255 0.930 . S
C247 Gd183 2.805 . S
C247 O223 1.263 . S
C247 O224 1.252 . S
C247 C241 1.500 . S
H248 C231 0.929 . S
H249 C232 0.930 . S
H250 C233 0.931 . S
H251 C234 0.930 . S
H252 C243 0.929 . S
H253 C244 0.930 . S
H254 C245 0.930 1_545 S
H255 C246 0.930 . S
C256 C258 1.422 . S
C256 C260 1.415 . S
C256 N262 1.369 . S
C257 C258 1.421 . S
C257 C259 1.417 . S
C257 C269 1.429 . S
C258 C256 1.422 . S
C258 C257 1.421 . S
C258 N268 1.359 . S
C259 C257 1.417 . S
C259 C261 1.329 . S
C259 H278 0.930 1_556 S
C260 C256 1.415 . S
C260 C261 1.437 . S
C260 C264 1.413 . S
C261 C259 1.329 . S
C261 C260 1.437 . S
C261 H283 0.929 . S
N262 C256 1.369 . S
N262 C263 1.338 . S
N262 Gd267 2.622 . S
C263 N262 1.338 . S
C263 C265 1.378 . S
C263 H275 0.929 . S
C264 C260 1.413 . S
C264 C265 1.348 . S
C264 H280 0.931 . S
C265 C263 1.378 . S
C265 C264 1.348 . S
C265 H281 0.930 . S
Gd266 N286 2.622 . S
Gd266 N293 2.570 . S
Gd266 O300 2.353 . S
Gd266 O301 2.468 . S
Gd266 O302 2.427 . S
Gd266 O304 2.388 . S
Gd266 O305 2.386 . S
Gd266 O309 2.307 . S
Gd266 C319 2.805 . S
Gd267 N262 2.622 . S
Gd267 N268 2.570 . S
Gd267 O299 2.386 . S
Gd267 O303 2.307 . S
Gd267 O306 2.353 . S
Gd267 O307 2.468 . S
Gd267 O308 2.427 . S
Gd267 O310 2.388 . S
Gd267 C331 2.805 . S
N268 C258 1.359 . S
N268 Gd267 2.570 . S
N268 C270 1.343 . S
C269 C257 1.429 . S
C269 C271 1.326 . S
C269 H277 0.919 1_556 S
C270 N268 1.343 . S
C270 C271 1.390 . S
C270 H272 0.931 . S
C271 C269 1.326 . S
C271 C270 1.390 . S
C271 H273 0.931 1_556 S
H272 C270 0.931 . S
H273 C271 0.931 1_554 S
H274 C297 0.931 . S
H275 C263 0.929 . S
H276 C298 0.930 . S
H277 C269 0.919 1_554 S
H278 C259 0.930 1_554 S
H279 C288 0.929 . S
H280 C264 0.931 . S
H281 C265 0.930 . S
H282 C320 0.930 . S
H283 C261 0.929 . S
H284 C289 0.931 . S
H285 C290 0.930 . S
N286 Gd266 2.622 . S
N286 C287 1.369 . S
N286 C288 1.338 . S
C287 N286 1.369 . S
C287 C291 1.415 . S
C287 C294 1.422 . S
C288 H279 0.929 . S
C288 N286 1.338 . S
C288 C290 1.378 . S
C289 H284 0.931 . S
C289 C290 1.348 . S
C289 C291 1.413 . S
C290 H285 0.930 . S
C290 C288 1.378 . S
C290 C289 1.348 . S
C291 C287 1.415 . S
C291 C289 1.413 . S
C291 C321 1.437 . S
H292 C321 0.929 . S
N293 Gd266 2.570 . S
N293 C294 1.359 . S
N293 C297 1.343 . S
C294 C287 1.422 . S
C294 N293 1.359 . S
C294 C296 1.421 . S
C295 C296 1.422 . S
C295 C298 1.321 . S
C295 H322 0.931 . S
C296 C294 1.421 . S
C296 C295 1.422 . S
C296 C320 1.417 . S
C297 H274 0.931 . S
C297 N293 1.343 . S
C297 C298 1.390 . S
C298 H276 0.930 . S
C298 C295 1.321 . S
C298 C297 1.390 . S
O299 Gd267 2.386 . S
O299 C311 1.265 . S
O300 Gd266 2.353 . S
O300 C311 1.242 . S
O301 Gd266 2.468 . S
O301 C319 1.263 . S
O302 Gd266 2.427 . S
O302 C319 1.252 . S
O303 Gd267 2.307 . S
O303 C312 1.261 . S
O304 Gd266 2.388 . S
O304 C312 1.252 . S
O305 Gd266 2.386 . S
O305 C323 1.265 . S
O306 Gd267 2.353 . S
O306 C323 1.242 . S
O307 Gd267 2.468 . S
O307 C331 1.263 . S
O308 Gd267 2.427 . S
O308 C331 1.252 . S
O309 Gd266 2.307 . S
O309 C324 1.261 . S
O310 Gd267 2.388 . S
O310 C324 1.252 . S
C311 O299 1.265 . S
C311 O300 1.242 . S
C312 O303 1.261 . S
C312 O304 1.252 . S
C313 C316 1.394 . S
C313 C318 1.370 . S
C313 C319 1.500 . S
C314 C317 1.383 . S
C314 C318 1.395 . S
C315 C316 1.396 . S
C315 C317 1.365 . S
C315 H332 0.929 . S
C316 C313 1.394 . S
C316 C315 1.396 . S
C316 H333 0.930 . S
C317 C314 1.383 . S
C317 C315 1.365 . S
C317 H334 0.931 . S
C318 C313 1.370 . S
C318 C314 1.395 . S
C318 H335 0.930 . S
C319 Gd266 2.805 . S
C319 O301 1.263 . S
C319 O302 1.252 . S
C319 C313 1.500 . S
C320 H282 0.930 . S
C320 C296 1.417 . S
C320 C321 1.329 . S
C321 C291 1.437 . S
C321 H292 0.929 . S
C321 C320 1.329 . S
H322 C295 0.931 . S
C323 O305 1.265 . S
C323 O306 1.242 . S
C324 O309 1.261 . S
C324 O310 1.252 . S
C325 C328 1.394 . S
C325 C330 1.370 . S
C325 C331 1.500 . S
C326 C329 1.383 . S
C326 C330 1.395 . S
C327 C328 1.396 . S
C327 C329 1.365 . S
C327 H336 0.929 . S
C328 C325 1.394 . S
C328 C327 1.396 . S
C328 H337 0.930 . S
C329 C326 1.383 . S
C329 C327 1.365 . S
C329 H338 0.931 . S
C330 C325 1.370 . S
C330 C326 1.395 . S
C330 H339 0.930 . S
C331 Gd267 2.805 . S
C331 O307 1.263 . S
C331 O308 1.252 . S
C331 C325 1.500 . S
H332 C315 0.929 . S
H333 C316 0.930 . S
H334 C317 0.931 . S
H335 C318 0.930 . S
H336 C327 0.929 . S
H337 C328 0.930 . S
H338 C329 0.931 . S
H339 C330 0.930 . S
C340 C342 1.422 . S
C340 C344 1.415 . S
C340 N346 1.369 1_455 S
C341 C342 1.421 . S
C341 C343 1.417 . S
C341 C353 1.429 . S
C342 C340 1.422 . S
C342 C341 1.421 . S
C342 N352 1.359 . S
C343 C341 1.417 . S
C343 C345 1.329 . S
C343 H362 0.930 1_556 S
C344 C340 1.415 . S
C344 C345 1.437 . S
C344 C348 1.413 . S
C345 C343 1.329 . S
C345 C344 1.437 . S
C345 H367 0.929 . S
N346 C340 1.369 1_655 S
N346 C347 1.338 . S
N346 Gd351 2.622 . S
C347 N346 1.338 . S
C347 C349 1.378 1_655 S
C347 H359 0.929 . S
C348 C344 1.413 . S
C348 C349 1.348 . S
C348 H364 0.931 . S
C349 C347 1.378 1_455 S
C349 C348 1.348 . S
C349 H365 0.930 . S
Gd350 N370 2.622 . S
Gd350 N377 2.570 . S
Gd350 O384 2.353 . S
Gd350 O385 2.468 . S
Gd350 O386 2.427 . S
Gd350 O388 2.388 . S
Gd350 O389 2.386 1_455 S
Gd350 O393 2.307 . S
Gd350 C403 2.805 . S
Gd351 N346 2.622 . S
Gd351 N352 2.570 1_655 S
Gd351 O383 2.386 1_655 S
Gd351 O387 2.301 1_655 S
Gd351 O390 2.353 . S
Gd351 O391 2.468 . S
Gd351 O392 2.427 . S
Gd351 O394 2.388 . S
Gd351 C415 2.805 . S
N352 C342 1.359 . S
N352 Gd351 2.570 1_455 S
N352 C354 1.343 . S
C353 C341 1.429 . S
C353 C355 1.326 . S
C353 H361 0.919 1_556 S
C354 N352 1.343 . S
C354 C355 1.390 . S
C354 H356 0.931 . S
C355 C353 1.326 . S
C355 C354 1.390 . S
C355 H357 0.929 1_556 S
H356 C354 0.931 . S
H357 C355 0.929 1_554 S
H358 C381 0.931 . S
H359 C347 0.929 . S
H360 C382 0.930 . S
H361 C353 0.919 1_554 S
H362 C343 0.930 1_554 S
H363 C372 0.929 . S
H364 C348 0.931 . S
H365 C349 0.930 . S
H366 C404 0.930 . S
H367 C345 0.929 . S
H368 C373 0.931 . S
H369 C374 0.930 . S
N370 Gd350 2.622 . S
N370 C371 1.369 . S
N370 C372 1.338 . S
C371 N370 1.369 . S
C371 C375 1.415 1_455 S
C371 C378 1.422 . S
C372 H363 0.929 . S
C372 N370 1.338 . S
C372 C374 1.378 . S
C373 H368 0.931 . S
C373 C374 1.348 1_655 S
C373 C375 1.413 . S
C374 H369 0.930 . S
C374 C372 1.378 . S
C374 C373 1.348 1_455 S
C375 C371 1.415 1_655 S
C375 C373 1.413 . S
C375 C405 1.437 . S
H376 C405 0.929 . S
N377 Gd350 2.570 . S
N377 C378 1.359 . S
N377 C381 1.343 . S
C378 C371 1.422 . S
C378 N377 1.359 . S
C378 C380 1.421 1_455 S
C379 C380 1.422 . S
C379 C382 1.321 . S
C379 H406 0.931 . S
C380 C378 1.421 1_655 S
C380 C379 1.422 . S
C380 C404 1.417 . S
C381 H358 0.931 . S
C381 N377 1.343 . S
C381 C382 1.390 1_455 S
C382 H360 0.930 . S
C382 C379 1.321 . S
C382 C381 1.390 1_655 S
O383 Gd351 2.386 1_455 S
O383 C395 1.265 . S
O384 Gd350 2.353 . S
O384 C395 1.242 . S
O385 Gd350 2.468 . S
O385 C403 1.263 . S
O386 Gd350 2.427 . S
O386 C403 1.252 . S
O387 Gd351 2.301 1_455 S
O387 C396 1.266 . S
O388 Gd350 2.388 . S
O388 C396 1.252 . S
O389 Gd350 2.386 1_655 S
O389 C407 1.265 . S
O390 Gd351 2.353 . S
O390 C407 1.242 . S
O391 Gd351 2.468 . S
O391 C415 1.263 . S
O392 Gd351 2.427 . S
O392 C415 1.252 . S
O393 Gd350 2.307 . S
O393 C408 1.261 . S
O394 Gd351 2.388 . S
O394 C408 1.252 1_655 S
C395 O383 1.265 . S
C395 O384 1.242 . S
C396 O387 1.266 . S
C396 O388 1.252 . S
C397 C400 1.394 . S
C397 C402 1.370 . S
C397 C403 1.500 . S
C398 C401 1.383 . S
C398 C402 1.395 . S
C399 C400 1.396 . S
C399 C401 1.365 . S
C399 H416 0.929 . S
C400 C397 1.394 . S
C400 C399 1.396 . S
C400 H417 0.930 . S
C401 C398 1.383 . S
C401 C399 1.365 . S
C401 H418 0.931 . S
C402 C397 1.370 . S
C402 C398 1.395 . S
C402 H419 0.930 . S
C403 Gd350 2.805 . S
C403 O385 1.263 . S
C403 O386 1.252 . S
C403 C397 1.500 . S
C404 H366 0.930 . S
C404 C380 1.417 . S
C404 C405 1.329 . S
C405 C375 1.437 . S
C405 H376 0.929 . S
C405 C404 1.329 . S
H406 C379 0.931 . S
C407 O389 1.265 . S
C407 O390 1.242 . S
C408 O393 1.261 . S
C408 O394 1.252 1_455 S
C409 C412 1.394 . S
C409 C414 1.370 . S
C409 C415 1.500 . S
C410 C413 1.383 . S
C410 C414 1.395 . S
C411 C412 1.396 . S
C411 C413 1.365 . S
C411 H420 0.929 . S
C412 C409 1.394 . S
C412 C411 1.396 . S
C412 H421 0.930 . S
C413 C410 1.383 . S
C413 C411 1.365 . S
C413 H422 0.931 . S
C414 C409 1.370 . S
C414 C410 1.395 . S
C414 H423 0.930 . S
C415 Gd351 2.805 . S
C415 O391 1.263 . S
C415 O392 1.252 . S
C415 C409 1.500 . S
H416 C399 0.929 . S
H417 C400 0.930 . S
H418 C401 0.931 . S
H419 C402 0.930 . S
H420 C411 0.929 . S
H421 C412 0.930 . S
H422 C413 0.931 . S
H423 C414 0.930 . S
C424 C425 1.391 . S
C424 C426 1.394 . S
C424 H440 0.931 . S
C425 C424 1.391 . S
C425 C429 1.376 . S
C426 C424 1.394 . S
C426 C427 1.369 . S
C426 C430 1.531 . S
C427 C426 1.369 . S
C427 C428 1.410 . S
C427 C435 1.503 . S
C428 C427 1.410 . S
C428 C429 1.392 . S
C428 C431 1.511 . S
C429 C425 1.376 . S
C429 C428 1.392 . S
C429 H441 0.929 . S
C430 C426 1.531 . S
C430 H442 0.960 . S
C430 H443 0.962 . S
C430 H444 0.960 . S
C431 C428 1.511 . S
C431 H445 0.961 . S
C431 H446 0.961 . S
C431 H447 0.961 . S
C432 C433 1.370 . S
C432 C434 1.363 . S
C432 H448 0.931 1_545 S
C433 C432 1.370 . S
C433 C437 1.408 . S
C434 C432 1.363 . S
C434 C435 1.370 . S
C434 C438 1.524 1_545 S
C435 C427 1.503 . S
C435 C434 1.370 . S
C435 C436 1.403 . S
C436 C435 1.403 . S
C436 C437 1.404 . S
C436 C439 1.539 . S
C437 C433 1.408 . S
C437 C436 1.404 . S
C437 H449 0.930 . S
C438 C434 1.524 1_565 S
C438 H450 0.956 . S
C438 H451 0.961 . S
C438 H452 0.961 . S
C439 C436 1.539 . S
C439 H453 0.958 . S
C439 H454 0.961 . S
C439 H455 0.960 . S
H440 C424 0.931 . S
H441 C429 0.929 . S
H442 C430 0.960 . S
H443 C430 0.962 . S
H444 C430 0.960 . S
H445 C431 0.961 . S
H446 C431 0.961 . S
H447 C431 0.961 . S
H448 C432 0.931 1_565 S
H449 C437 0.930 . S
H450 C438 0.956 . S
H451 C438 0.961 . S
H452 C438 0.961 . S
H453 C439 0.958 . S
H454 C439 0.961 . S
H455 C439 0.960 . S
C456 C457 1.391 . S
C456 C458 1.394 . S
C456 H472 0.931 . S
C457 C456 1.391 . S
C457 C461 1.376 . S
C458 C456 1.394 . S
C458 C459 1.369 . S
C458 C462 1.531 . S
C459 C458 1.369 . S
C459 C460 1.410 . S
C459 C467 1.503 . S
C460 C459 1.410 . S
C460 C461 1.392 . S
C460 C463 1.511 . S
C461 C457 1.376 . S
C461 C460 1.392 . S
C461 H473 0.929 . S
C462 C458 1.531 . S
C462 H474 0.960 . S
C462 H475 0.962 . S
C462 H476 0.960 . S
C463 C460 1.511 . S
C463 H477 0.961 . S
C463 H478 0.961 . S
C463 H479 0.961 . S
C464 C465 1.370 . S
C464 C466 1.363 . S
C464 H480 0.931 . S
C465 C464 1.370 . S
C465 C469 1.408 . S
C466 C464 1.363 . S
C466 C467 1.370 . S
C466 C470 1.524 . S
C467 C459 1.503 . S
C467 C466 1.370 . S
C467 C468 1.403 . S
C468 C467 1.403 . S
C468 C469 1.404 . S
C468 C471 1.539 . S
C469 C465 1.408 . S
C469 C468 1.404 . S
C469 H481 0.930 . S
C470 C466 1.524 . S
C470 H482 0.956 . S
C470 H483 0.961 . S
C470 H484 0.961 . S
C471 C468 1.539 . S
C471 H485 0.958 . S
C471 H486 0.961 . S
C471 H487 0.960 . S
H472 C456 0.931 . S
H473 C461 0.929 . S
H474 C462 0.960 . S
H475 C462 0.962 . S
H476 C462 0.960 . S
H477 C463 0.961 . S
H478 C463 0.961 . S
H479 C463 0.961 . S
H480 C464 0.931 . S
H481 C469 0.930 . S
H482 C470 0.956 . S
H483 C470 0.961 . S
H484 C470 0.961 . S
H485 C471 0.958 . S
H486 C471 0.961 . S
H487 C471 0.960 . S
C488 C489 1.391 . S
C488 C490 1.394 . S
C488 H504 0.931 . S
C489 C488 1.391 . S
C489 C493 1.376 . S
C490 C488 1.394 . S
C490 C491 1.369 . S
C490 C494 1.531 . S
C491 C490 1.369 . S
C491 C492 1.410 . S
C491 C499 1.503 . S
C492 C491 1.410 . S
C492 C493 1.392 . S
C492 C495 1.511 . S
C493 C489 1.376 . S
C493 C492 1.392 . S
C493 H505 0.929 . S
C494 C490 1.531 . S
C494 H506 0.960 . S
C494 H507 0.962 . S
C494 H508 0.960 . S
C495 C492 1.511 . S
C495 H509 0.961 . S
C495 H510 0.961 . S
C495 H511 0.961 . S
C496 C497 1.370 . S
C496 C498 1.363 . S
C496 H512 0.931 . S
C497 C496 1.370 . S
C497 C501 1.408 . S
C498 C496 1.363 . S
C498 C499 1.370 . S
C498 C502 1.524 . S
C499 C491 1.503 . S
C499 C498 1.370 . S
C499 C500 1.403 . S
C500 C499 1.403 . S
C500 C501 1.404 . S
C500 C503 1.539 . S
C501 C497 1.408 . S
C501 C500 1.404 . S
C501 H513 0.930 . S
C502 C498 1.524 . S
C502 H514 0.956 . S
C502 H515 0.961 . S
C502 H516 0.961 . S
C503 C500 1.539 . S
C503 H517 0.958 . S
C503 H518 0.961 . S
C503 H519 0.960 . S
H504 C488 0.931 . S
H505 C493 0.929 . S
H506 C494 0.960 . S
H507 C494 0.962 . S
H508 C494 0.960 . S
H509 C495 0.961 . S
H510 C495 0.961 . S
H511 C495 0.961 . S
H512 C496 0.931 . S
H513 C501 0.930 . S
H514 C502 0.956 . S
H515 C502 0.961 . S
H516 C502 0.961 . S
H517 C503 0.958 . S
H518 C503 0.961 . S
H519 C503 0.960 . S
C520 C521 1.391 . S
C520 C522 1.394 . S
C520 H536 0.931 . S
C521 C520 1.391 . S
C521 C525 1.376 . S
C522 C520 1.394 . S
C522 C523 1.369 . S
C522 C526 1.531 . S
C523 C522 1.369 . S
C523 C524 1.410 . S
C523 C531 1.503 . S
C524 C523 1.410 . S
C524 C525 1.392 . S
C524 C527 1.511 1_455 S
C525 C521 1.376 . S
C525 C524 1.392 . S
C525 H537 0.929 . S
C526 C522 1.531 . S
C526 H538 0.960 . S
C526 H539 0.962 . S
C526 H540 0.960 . S
C527 C524 1.511 1_655 S
C527 H541 0.961 . S
C527 H542 0.970 . S
C527 H543 0.961 . S
C528 C529 1.370 . S
C528 C530 1.363 . S
C528 H544 0.931 . S
C529 C528 1.370 . S
C529 C533 1.387 1_455 S
C530 C528 1.363 . S
C530 C531 1.370 . S
C530 C534 1.524 . S
C531 C523 1.503 . S
C531 C530 1.370 . S
C531 C532 1.403 . S
C532 C531 1.403 . S
C532 C533 1.400 1_455 S
C532 C535 1.539 1_455 S
C533 C529 1.387 1_655 S
C533 C532 1.400 1_655 S
C533 H545 0.955 . S
C534 C530 1.524 . S
C534 H546 0.956 . S
C534 H547 0.961 . S
C534 H548 0.961 . S
C535 C532 1.539 1_655 S
C535 H549 0.958 . S
C535 H550 0.961 . S
C535 H551 0.960 . S
H536 C520 0.931 . S
H537 C525 0.929 . S
H538 C526 0.960 . S
H539 C526 0.962 . S
H540 C526 0.960 . S
H541 C527 0.961 . S
H542 C527 0.970 . S
H543 C527 0.961 . S
H544 C528 0.931 . S
H545 C533 0.955 . S
H546 C534 0.956 . S
H547 C534 0.961 . S
H548 C534 0.961 . S
H549 C535 0.958 . S
H550 C535 0.961 . S
H551 C535 0.960 . S
C552 C553 1.391 . S
C552 C554 1.394 . S
C552 H568 0.931 . S
C553 C552 1.391 . S
C553 C557 1.376 . S
C554 C552 1.394 . S
C554 C555 1.369 1_554 S
C554 C558 1.531 1_554 S
C555 C554 1.369 1_556 S
C555 C556 1.410 1_565 S
C555 C563 1.503 . S
C556 C555 1.410 1_545 S
C556 C557 1.392 1_546 S
C556 C559 1.511 . S
C557 C553 1.376 . S
C557 C556 1.392 1_564 S
C557 H569 0.929 1_565 S
C558 C554 1.531 1_556 S
C558 H570 0.960 . S
C558 H571 0.962 1_556 S
C558 H572 0.960 1_556 S
C559 C556 1.511 . S
C559 H573 0.961 . S
C559 H574 0.961 . S
C559 H575 0.961 . S
C560 C561 1.360 1_545 S
C560 C562 1.370 . S
C560 H576 0.931 . S
C561 C560 1.360 1_565 S
C561 C565 1.429 . S
C562 C560 1.370 . S
C562 C563 1.354 1_545 S
C562 C566 1.535 1_556 S
C563 C555 1.503 . S
C563 C562 1.354 1_565 S
C563 C564 1.403 . S
C564 C563 1.403 . S
C564 C565 1.404 . S
C564 C567 1.539 . S
C565 C561 1.429 . S
C565 C564 1.404 . S
C565 H577 0.930 . S
C566 C562 1.535 1_554 S
C566 H578 0.956 1_545 S
C566 H579 0.961 . S
C566 H580 0.961 . S
C567 C564 1.539 . S
C567 H581 0.958 . S
C567 H582 0.961 . S
C567 H583 0.960 . S
H568 C552 0.931 . S
H569 C557 0.929 1_545 S
H570 C558 0.960 . S
H571 C558 0.962 1_554 S
H572 C558 0.960 1_554 S
H573 C559 0.961 . S
H574 C559 0.961 . S
H575 C559 0.961 . S
H576 C560 0.931 . S
H577 C565 0.930 . S
H578 C566 0.956 1_565 S
H579 C566 0.961 . S
H580 C566 0.961 . S
H581 C567 0.958 . S
H582 C567 0.961 . S
H583 C567 0.960 . S
C584 C585 1.391 . S
C584 C586 1.394 . S
C584 H600 0.931 . S
C585 C584 1.391 . S
C585 C589 1.376 . S
C586 C584 1.394 . S
C586 C587 1.368 1_554 S
C586 C590 1.531 1_554 S
C587 C586 1.368 1_556 S
C587 C588 1.401 1_556 S
C587 C595 1.513 . S
C588 C587 1.401 1_554 S
C588 C589 1.392 . S
C588 C591 1.511 . S
C589 C585 1.376 . S
C589 C588 1.392 . S
C589 H601 0.929 . S
C590 C586 1.531 1_556 S
C590 H602 0.960 . S
C590 H603 0.962 . S
C590 H604 0.960 . S
C591 C588 1.511 . S
C591 H605 0.961 . S
C591 H606 0.961 1_554 S
C591 H607 0.961 . S
C592 C593 1.370 . S
C592 C594 1.363 . S
C592 H608 0.931 . S
C593 C592 1.370 . S
C593 C597 1.408 . S
C594 C592 1.363 . S
C594 C595 1.370 . S
C594 C598 1.524 . S
C595 C587 1.513 . S
C595 C594 1.370 . S
C595 C596 1.403 . S
C596 C595 1.403 . S
C596 C597 1.404 . S
C596 C599 1.532 1_556 S
C597 C593 1.408 . S
C597 C596 1.404 . S
C597 H609 0.930 . S
C598 C594 1.524 . S
C598 H610 0.956 . S
C598 H611 0.961 . S
C598 H612 0.961 . S
C599 C596 1.532 1_554 S
C599 H613 0.958 1_554 S
C599 H614 0.962 . S
C599 H615 0.967 . S
H600 C584 0.931 . S
H601 C589 0.929 . S
H602 C590 0.960 . S
H603 C590 0.962 . S
H604 C590 0.960 . S
H605 C591 0.961 . S
H606 C591 0.961 1_556 S
H607 C591 0.961 . S
H608 C592 0.931 . S
H609 C597 0.930 . S
H610 C598 0.956 . S
H611 C598 0.961 . S
H612 C598 0.961 . S
H613 C599 0.958 1_556 S
H614 C599 0.962 . S
H615 C599 0.967 . S
C616 C617 1.391 . S
C616 C618 1.394 1_554 S
C616 H632 0.931 . S
C617 C616 1.391 . S
C617 C621 1.376 . S
C618 C616 1.394 1_556 S
C618 C619 1.369 . S
C618 C622 1.531 . S
C619 C618 1.369 . S
C619 C620 1.410 1_556 S
C619 C627 1.503 . S
C620 C619 1.410 1_554 S
C620 C621 1.392 . S
C620 C623 1.511 . S
C621 C617 1.376 . S
C621 C620 1.392 . S
C621 H633 0.929 . S
C622 C618 1.531 . S
C622 H634 0.960 . S
C622 H635 0.962 . S
C622 H636 0.960 . S
C623 C620 1.511 . S
C623 H637 0.961 . S
C623 H638 0.961 . S
C623 H639 0.961 . S
C624 C625 1.370 . S
C624 C626 1.363 . S
C624 H640 0.931 . S
C625 C624 1.370 . S
C625 C629 1.408 . S
C626 C624 1.363 . S
C626 C627 1.370 . S
C626 C630 1.524 . S
C627 C619 1.503 . S
C627 C626 1.370 . S
C627 C628 1.403 . S
C628 C627 1.403 . S
C628 C629 1.404 . S
C628 C631 1.539 . S
C629 C625 1.408 . S
C629 C628 1.404 . S
C629 H641 0.930 . S
C630 C626 1.524 . S
C630 H642 0.956 . S
C630 H643 0.961 . S
C630 H644 0.961 . S
C631 C628 1.539 . S
C631 H645 0.958 . S
C631 H646 0.961 . S
C631 H647 0.960 1_556 S
H632 C616 0.931 . S
H633 C621 0.929 . S
H634 C622 0.960 . S
H635 C622 0.962 . S
H636 C622 0.960 . S
H637 C623 0.961 . S
H638 C623 0.961 . S
H639 C623 0.961 . S
H640 C624 0.931 . S
H641 C629 0.930 . S
H642 C630 0.956 . S
H643 C630 0.961 . S
H644 C630 0.961 . S
H645 C631 0.958 . S
H646 C631 0.961 . S
H647 C631 0.960 1_554 S
C648 C649 1.391 . S
C648 C650 1.394 . S
C648 H664 0.931 1_655 S
C649 C648 1.391 . S
C649 C653 1.376 . S
C650 C648 1.394 . S
C650 C651 1.369 1_554 S
C650 C654 1.531 1_655 S
C651 C650 1.369 1_556 S
C651 C652 1.410 . S
C651 C659 1.503 . S
C652 C651 1.410 . S
C652 C653 1.392 1_556 S
C652 C655 1.511 . S
C653 C649 1.376 . S
C653 C652 1.392 1_554 S
C653 H665 0.929 . S
C654 C650 1.531 1_455 S
C654 H666 0.960 . S
C654 H667 0.962 . S
C654 H668 0.960 . S
C655 C652 1.511 . S
C655 H669 0.961 . S
C655 H670 0.961 . S
C655 H671 0.961 . S
C656 C657 1.370 1_455 S
C656 C658 1.363 . S
C656 H672 0.931 . S
C657 C656 1.370 1_655 S
C657 C661 1.408 . S
C658 C656 1.363 . S
C658 C659 1.370 1_455 S
C658 C662 1.524 . S
C659 C651 1.503 . S
C659 C658 1.370 1_655 S
C659 C660 1.403 . S
C660 C659 1.403 . S
C660 C661 1.404 . S
C660 C663 1.539 . S
C661 C657 1.408 . S
C661 C660 1.404 . S
C661 H673 0.930 . S
C662 C658 1.524 . S
C662 H674 0.956 . S
C662 H675 0.961 . S
C662 H676 0.961 . S
C663 C660 1.539 . S
C663 H677 0.958 1_556 S
C663 H678 0.961 . S
C663 H679 0.958 1_556 S
H664 C648 0.931 1_455 S
H665 C653 0.929 . S
H666 C654 0.960 . S
H667 C654 0.962 . S
H668 C654 0.960 . S
H669 C655 0.961 . S
H670 C655 0.961 . S
H671 C655 0.961 . S
H672 C656 0.931 . S
H673 C661 0.930 . S
H674 C662 0.956 . S
H675 C662 0.961 . S
H676 C662 0.961 . S
H677 C663 0.958 1_554 S
H678 C663 0.961 . S
H679 C663 0.958 1_554 S
C680 C681 1.391 . S
C680 C682 1.394 . S
C680 H696 0.931 . S
C681 C680 1.391 . S
C681 C685 1.376 . S
C682 C680 1.394 . S
C682 C683 1.369 . S
C682 C686 1.531 . S
C683 C682 1.369 . S
C683 C684 1.410 . S
C683 C691 1.503 . S
C684 C683 1.410 . S
C684 C685 1.392 . S
C684 C687 1.511 . S
C685 C681 1.376 . S
C685 C684 1.392 . S
C685 H697 0.929 . S
C686 C682 1.531 . S
C686 H698 0.960 1_455 S
C686 H699 0.962 . S
C686 H700 0.960 . S
C687 C684 1.511 . S
C687 H701 0.961 . S
C687 H702 0.961 . S
C687 H703 0.961 . S
C688 C689 1.370 . S
C688 C690 1.363 . S
C688 H704 0.931 . S
C689 C688 1.370 . S
C689 C693 1.408 1_455 S
C690 C688 1.363 . S
C690 C691 1.370 . S
C690 C694 1.524 . S
C691 C683 1.503 . S
C691 C690 1.370 . S
C691 C692 1.403 1_455 S
C692 C691 1.403 1_655 S
C692 C693 1.404 . S
C692 C695 1.539 . S
C693 C689 1.408 1_655 S
C693 C692 1.404 . S
C693 H705 0.930 . S
C694 C690 1.524 . S
C694 H706 0.956 . S
C694 H707 0.961 . S
C694 H708 0.961 . S
C695 C692 1.539 . S
C695 H709 0.958 . S
C695 H710 0.961 . S
C695 H711 0.960 . S
H696 C680 0.931 . S
H697 C685 0.929 . S
H698 C686 0.960 1_655 S
H699 C686 0.962 . S
H700 C686 0.960 . S
H701 C687 0.961 . S
H702 C687 0.961 . S
H703 C687 0.961 . S
H704 C688 0.931 . S
H705 C693 0.930 . S
H706 C694 0.956 . S
H707 C694 0.961 . S
H708 C694 0.961 . S
H709 C695 0.958 . S
H710 C695 0.961 . S
H711 C695 0.960 . S
C712 C713 1.391 . S
C712 C714 1.394 . S
C712 H728 0.931 . S
C713 C712 1.391 . S
C713 C717 1.376 . S
C714 C712 1.394 . S
C714 C715 1.369 . S
C714 C718 1.531 . S
C715 C714 1.369 . S
C715 C716 1.410 . S
C715 C723 1.503 . S
C716 C715 1.410 . S
C716 C717 1.392 . S
C716 C719 1.511 . S
C717 C713 1.376 . S
C717 C716 1.392 . S
C717 H729 0.929 . S
C718 C714 1.531 . S
C718 H730 0.960 . S
C718 H731 0.962 . S
C718 H732 0.960 . S
C719 C716 1.511 . S
C719 H733 0.961 . S
C719 H734 0.961 . S
C719 H735 0.961 . S
C720 C721 1.370 1_565 S
C720 C722 1.363 1_565 S
C720 H736 0.931 . S
C721 C720 1.370 1_545 S
C721 C725 1.408 . S
C722 C720 1.363 1_545 S
C722 C723 1.370 . S
C722 C726 1.524 1_545 S
C723 C715 1.503 . S
C723 C722 1.370 . S
C723 C724 1.403 . S
C724 C723 1.403 . S
C724 C725 1.404 . S
C724 C727 1.539 . S
C725 C721 1.408 . S
C725 C724 1.404 . S
C725 H737 0.930 . S
C726 C722 1.524 1_565 S
C726 H738 0.956 . S
C726 H739 0.961 . S
C726 H740 0.961 . S
C727 C724 1.539 . S
C727 H741 0.958 . S
C727 H742 0.961 . S
C727 H743 0.960 . S
H728 C712 0.931 . S
H729 C717 0.929 . S
H730 C718 0.960 . S
H731 C718 0.962 . S
H732 C718 0.960 . S
H733 C719 0.961 . S
H734 C719 0.961 . S
H735 C719 0.961 . S
H736 C720 0.931 . S
H737 C725 0.930 . S
H738 C726 0.956 . S
H739 C726 0.961 . S
H740 C726 0.961 . S
H741 C727 0.958 . S
H742 C727 0.961 . S
H743 C727 0.960 . S
C744 C745 1.391 . S
C744 C746 1.394 . S
C744 H760 0.931 . S
C745 C744 1.391 . S
C745 C749 1.376 . S
C746 C744 1.394 . S
C746 C747 1.369 . S
C746 C750 1.531 . S
C747 C746 1.369 . S
C747 C748 1.410 . S
C747 C755 1.503 . S
C748 C747 1.410 . S
C748 C749 1.392 . S
C748 C751 1.511 . S
C749 C745 1.376 . S
C749 C748 1.392 . S
C749 H761 0.929 . S
C750 C746 1.531 . S
C750 H762 0.960 . S
C750 H763 0.962 . S
C750 H764 0.960 . S
C751 C748 1.511 . S
C751 H765 0.961 . S
C751 H766 0.961 . S
C751 H767 0.961 . S
C752 C753 1.370 . S
C752 C754 1.363 . S
C752 H768 0.931 . S
C753 C752 1.370 . S
C753 C757 1.408 . S
C754 C752 1.363 . S
C754 C755 1.370 . S
C754 C758 1.524 . S
C755 C747 1.503 . S
C755 C754 1.370 . S
C755 C756 1.403 . S
C756 C755 1.403 . S
C756 C757 1.404 . S
C756 C759 1.539 . S
C757 C753 1.408 . S
C757 C756 1.404 . S
C757 H769 0.930 . S
C758 C754 1.524 . S
C758 H770 0.956 . S
C758 H771 0.961 . S
C758 H772 0.961 . S
C759 C756 1.539 . S
C759 H773 0.958 . S
C759 H774 0.961 . S
C759 H775 0.960 . S
H760 C744 0.931 . S
H761 C749 0.929 . S
H762 C750 0.960 . S
H763 C750 0.962 . S
H764 C750 0.960 . S
H765 C751 0.961 . S
H766 C751 0.961 . S
H767 C751 0.961 . S
H768 C752 0.931 . S
H769 C757 0.930 . S
H770 C758 0.956 . S
H771 C758 0.961 . S
H772 C758 0.961 . S
H773 C759 0.958 . S
H774 C759 0.961 . S
H775 C759 0.960 . S
C776 C777 1.391 . S
C776 C778 1.394 . S
C776 H792 0.931 . S
C777 C776 1.391 . S
C777 C781 1.376 . S
C778 C776 1.394 . S
C778 C779 1.369 . S
C778 C782 1.531 . S
C779 C778 1.369 . S
C779 C780 1.410 . S
C779 C787 1.503 . S
C780 C779 1.410 . S
C780 C781 1.392 . S
C780 C783 1.511 . S
C781 C777 1.376 . S
C781 C780 1.392 . S
C781 H793 0.929 . S
C782 C778 1.531 . S
C782 H794 0.960 . S
C782 H795 0.962 . S
C782 H796 0.960 . S
C783 C780 1.511 . S
C783 H797 0.961 . S
C783 H798 0.961 . S
C783 H799 0.961 . S
C784 C785 1.370 . S
C784 C786 1.363 . S
C784 H800 0.931 . S
C785 C784 1.370 . S
C785 C789 1.408 . S
C786 C784 1.363 . S
C786 C787 1.370 . S
C786 C790 1.524 . S
C787 C779 1.503 . S
C787 C786 1.370 . S
C787 C788 1.403 . S
C788 C787 1.403 . S
C788 C789 1.404 . S
C788 C791 1.539 . S
C789 C785 1.408 . S
C789 C788 1.404 . S
C789 H801 0.930 . S
C790 C786 1.524 . S
C790 H802 0.956 . S
C790 H803 0.961 . S
C790 H804 0.961 . S
C791 C788 1.539 . S
C791 H805 0.958 . S
C791 H806 0.961 . S
C791 H807 0.960 . S
H792 C776 0.931 . S
H793 C781 0.929 . S
H794 C782 0.960 . S
H795 C782 0.962 . S
H796 C782 0.960 . S
H797 C783 0.961 . S
H798 C783 0.961 . S
H799 C783 0.961 . S
H800 C784 0.931 . S
H801 C789 0.930 . S
H802 C790 0.956 . S
H803 C790 0.961 . S
H804 C790 0.961 . S
H805 C791 0.958 . S
H806 C791 0.961 . S
H807 C791 0.960 . S
C808 C809 1.391 . S
C808 C810 1.394 . S
C808 H824 0.931 . S
C809 C808 1.391 . S
C809 C813 1.376 . S
C810 C808 1.394 . S
C810 C811 1.369 . S
C810 C814 1.531 . S
C811 C810 1.369 . S
C811 C812 1.410 1_655 S
C811 C819 1.503 . S
C812 C811 1.410 1_455 S
C812 C813 1.392 1_455 S
C812 C815 1.511 . S
C813 C809 1.376 . S
C813 C812 1.392 1_655 S
C813 H825 0.929 1_655 S
C814 C810 1.531 . S
C814 H826 0.960 . S
C814 H827 0.962 . S
C814 H828 0.960 . S
C815 C812 1.511 . S
C815 H829 0.961 . S
C815 H830 0.961 1_554 S
C815 H831 0.961 . S
C816 C817 1.370 1_655 S
C816 C818 1.363 . S
C816 H832 0.931 . S
C817 C816 1.370 1_455 S
C817 C821 1.408 1_556 S
C818 C816 1.363 . S
C818 C819 1.370 1_556 S
C818 C822 1.524 . S
C819 C811 1.503 . S
C819 C818 1.370 1_554 S
C819 C820 1.403 1_655 S
C820 C819 1.403 1_455 S
C820 C821 1.404 . S
C820 C823 1.539 . S
C821 C817 1.408 1_554 S
C821 C820 1.404 . S
C821 H833 0.930 . S
C822 C818 1.524 . S
C822 H834 0.956 . S
C822 H835 0.961 . S
C822 H836 0.961 . S
C823 C820 1.539 . S
C823 H837 0.958 . S
C823 H838 0.961 . S
C823 H839 0.960 . S
H824 C808 0.931 . S
H825 C813 0.929 1_455 S
H826 C814 0.960 . S
H827 C814 0.962 . S
H828 C814 0.960 . S
H829 C815 0.961 . S
H830 C815 0.961 1_556 S
H831 C815 0.961 . S
H832 C816 0.931 . S
H833 C821 0.930 . S
H834 C822 0.956 . S
H835 C822 0.961 . S
H836 C822 0.961 . S
H837 C823 0.958 . S
H838 C823 0.961 . S
H839 C823 0.960 . S
C840 C841 1.391 . S
C840 C842 1.394 . S
C840 H856 0.931 . S
C841 C840 1.391 . S
C841 C845 1.376 . S
C842 C840 1.394 . S
C842 C843 1.369 . S
C842 C846 1.531 1_554 S
C843 C842 1.369 . S
C843 C844 1.410 . S
C843 C851 1.503 . S
C844 C843 1.410 . S
C844 C845 1.392 . S
C844 C847 1.511 . S
C845 C841 1.376 . S
C845 C844 1.392 . S
C845 H857 0.929 . S
C846 C842 1.531 1_556 S
C846 H858 0.960 . S
C846 H859 0.968 . S
C846 H860 0.960 . S
C847 C844 1.511 . S
C847 H861 0.961 . S
C847 H862 0.961 . S
C847 H863 0.961 . S
C848 C849 1.370 . S
C848 C850 1.363 1_556 S
C848 H864 0.931 . S
C849 C848 1.370 . S
C849 C853 1.408 1_545 S
C850 C848 1.363 1_554 S
C850 C851 1.370 1_545 S
C850 C854 1.524 . S
C851 C843 1.503 . S
C851 C850 1.370 1_565 S
C851 C852 1.403 1_554 S
C852 C851 1.403 1_556 S
C852 C853 1.404 . S
C852 C855 1.539 . S
C853 C849 1.408 1_565 S
C853 C852 1.404 . S
C853 H865 0.930 . S
C854 C850 1.524 . S
C854 H866 0.956 . S
C854 H867 0.961 . S
C854 H868 0.961 . S
C855 C852 1.539 . S
C855 H869 0.958 . S
C855 H870 0.961 . S
C855 H871 0.960 1_556 S
H856 C840 0.931 . S
H857 C845 0.929 . S
H858 C846 0.960 . S
H859 C846 0.968 . S
H860 C846 0.960 . S
H861 C847 0.961 . S
H862 C847 0.961 . S
H863 C847 0.961 . S
H864 C848 0.931 . S
H865 C853 0.930 . S
H866 C854 0.956 . S
H867 C854 0.961 . S
H868 C854 0.961 . S
H869 C855 0.958 . S
H870 C855 0.961 . S
H871 C855 0.960 1_554 S
C872 C873 1.391 . S
C872 C874 1.394 . S
C872 H888 0.931 . S
C873 C872 1.391 . S
C873 C877 1.376 . S
C874 C872 1.394 . S
C874 C875 1.369 . S
C874 C878 1.531 1_554 S
C875 C874 1.369 . S
C875 C876 1.410 . S
C875 C883 1.503 . S
C876 C875 1.410 . S
C876 C877 1.392 . S
C876 C879 1.511 . S
C877 C873 1.376 . S
C877 C876 1.392 . S
C877 H889 0.929 . S
C878 C874 1.531 1_556 S
C878 H890 0.960 . S
C878 H891 0.962 1_556 S
C878 H892 0.960 . S
C879 C876 1.511 . S
C879 H893 0.961 . S
C879 H894 0.961 . S
C879 H895 0.961 . S
C880 C881 1.370 . S
C880 C882 1.363 1_556 S
C880 H896 0.931 1_556 S
C881 C880 1.370 . S
C881 C885 1.408 . S
C882 C880 1.363 1_554 S
C882 C883 1.370 . S
C882 C886 1.524 . S
C883 C875 1.503 . S
C883 C882 1.370 . S
C883 C884 1.403 1_554 S
C884 C883 1.403 1_556 S
C884 C885 1.404 . S
C884 C887 1.539 . S
C885 C881 1.408 . S
C885 C884 1.404 . S
C885 H897 0.930 . S
C886 C882 1.524 . S
C886 H898 0.956 . S
C886 H899 0.961 . S
C886 H900 0.961 . S
C887 C884 1.539 . S
C887 H901 0.958 . S
C887 H902 0.961 . S
C887 H903 0.960 . S
H888 C872 0.931 . S
H889 C877 0.929 . S
H890 C878 0.960 . S
H891 C878 0.962 1_554 S
H892 C878 0.960 . S
H893 C879 0.961 . S
H894 C879 0.961 . S
H895 C879 0.961 . S
H896 C880 0.931 1_554 S
H897 C885 0.930 . S
H898 C886 0.956 . S
H899 C886 0.961 . S
H900 C886 0.961 . S
H901 C887 0.958 . S
H902 C887 0.961 . S
H903 C887 0.960 . S
C904 C905 1.391 . S
C904 C906 1.394 . S
C904 H920 0.931 . S
C905 C904 1.391 . S
C905 C909 1.376 . S
C906 C904 1.394 . S
C906 C907 1.369 . S
C906 C910 1.531 1_554 S
C907 C906 1.369 . S
C907 C908 1.410 . S
C907 C915 1.503 . S
C908 C907 1.410 . S
C908 C909 1.392 . S
C908 C911 1.511 . S
C909 C905 1.376 . S
C909 C908 1.392 . S
C909 H921 0.929 . S
C910 C906 1.531 1_556 S
C910 H922 0.960 . S
C910 H923 0.962 . S
C910 H924 0.960 . S
C911 C908 1.511 . S
C911 H925 0.961 . S
C911 H926 0.961 . S
C911 H927 0.961 . S
C912 C913 1.370 . S
C912 C914 1.363 . S
C912 H928 0.931 . S
C913 C912 1.370 . S
C913 C917 1.408 . S
C914 C912 1.363 . S
C914 C915 1.370 1_556 S
C914 C918 1.524 1_556 S
C915 C907 1.503 . S
C915 C914 1.370 1_554 S
C915 C916 1.402 1_554 S
C916 C915 1.402 1_556 S
C916 C917 1.405 . S
C916 C919 1.539 1_556 S
C917 C913 1.408 . S
C917 C916 1.405 . S
C917 H929 0.930 . S
C918 C914 1.524 1_554 S
C918 H930 0.956 1_554 S
C918 H931 0.961 . S
C918 H932 0.961 1_554 S
C919 C916 1.539 1_554 S
C919 H933 0.950 1_554 S
C919 H934 0.961 . S
C919 H935 0.960 . S
H920 C904 0.931 . S
H921 C909 0.929 . S
H922 C910 0.960 . S
H923 C910 0.962 . S
H924 C910 0.960 . S
H925 C911 0.961 . S
H926 C911 0.961 . S
H927 C911 0.961 . S
H928 C912 0.931 . S
H929 C917 0.930 . S
H930 C918 0.956 1_556 S
H931 C918 0.961 . S
H932 C918 0.961 1_556 S
H933 C919 0.950 1_556 S
H934 C919 0.961 . S
H935 C919 0.960 . S
C936 C937 1.391 . S
C936 C938 1.394 . S
C936 H952 0.931 . S
C937 C936 1.391 . S
C937 C941 1.376 . S
C938 C936 1.394 . S
C938 C939 1.369 . S
C938 C942 1.531 . S
C939 C938 1.369 . S
C939 C940 1.410 . S
C939 C947 1.503 . S
C940 C939 1.410 . S
C940 C941 1.392 . S
C940 C943 1.511 1_455 S
C941 C937 1.376 . S
C941 C940 1.392 . S
C941 H953 0.929 . S
C942 C938 1.531 . S
C942 H954 0.960 . S
C942 H955 0.962 . S
C942 H956 0.960 . S
C943 C940 1.511 1_655 S
C943 H957 0.961 . S
C943 H958 0.961 . S
C943 H959 0.961 . S
C944 C945 1.370 . S
C944 C946 1.363 . S
C944 H960 0.931 . S
C945 C944 1.370 . S
C945 C949 1.408 . S
C946 C944 1.363 . S
C946 C947 1.370 . S
C946 C950 1.524 . S
C947 C939 1.503 . S
C947 C946 1.370 . S
C947 C948 1.403 . S
C948 C947 1.403 . S
C948 C949 1.404 . S
C948 C951 1.539 1_455 S
C949 C945 1.408 . S
C949 C948 1.404 . S
C949 H961 0.930 1_455 S
C950 C946 1.524 . S
C950 H962 0.956 . S
C950 H963 0.961 . S
C950 H964 0.961 . S
C951 C948 1.539 1_655 S
C951 H965 0.978 . S
C951 H966 0.961 . S
C951 H967 0.960 . S
H952 C936 0.931 . S
H953 C941 0.929 . S
H954 C942 0.960 . S
H955 C942 0.962 . S
H956 C942 0.960 . S
H957 C943 0.961 . S
H958 C943 0.961 . S
H959 C943 0.961 . S
H960 C944 0.931 . S
H961 C949 0.930 1_655 S
H962 C950 0.956 . S
H963 C950 0.961 . S
H964 C950 0.961 . S
H965 C951 0.978 . S
H966 C951 0.961 . S
H967 C951 0.960 . S
C968 C969 1.391 . S
C968 C970 1.394 . S
C968 H984 0.931 . S
C969 C968 1.391 . S
C969 C973 1.376 . S
C970 C968 1.394 . S
C970 C971 1.369 . S
C970 C974 1.531 1_545 S
C971 C970 1.369 . S
C971 C972 1.410 . S
C971 C979 1.503 . S
C972 C971 1.410 . S
C972 C973 1.392 . S
C972 C975 1.511 . S
C973 C969 1.376 . S
C973 C972 1.392 . S
C973 H985 0.929 . S
C974 C970 1.531 1_565 S
C974 H986 0.960 . S
C974 H987 0.962 . S
C974 H988 0.960 . S
C975 C972 1.511 . S
C975 H989 0.961 . S
C975 H990 0.961 . S
C975 H991 0.961 . S
C976 C977 1.370 . S
C976 C978 1.363 . S
C976 H992 0.931 . S
C977 C976 1.370 . S
C977 C981 1.408 . S
C978 C976 1.363 . S
C978 C979 1.370 . S
C978 C982 1.524 . S
C979 C971 1.503 . S
C979 C978 1.370 . S
C979 C980 1.403 . S
C980 C979 1.403 . S
C980 C981 1.404 . S
C980 C983 1.539 . S
C981 C977 1.408 . S
C981 C980 1.404 . S
C981 H993 0.930 . S
C982 C978 1.524 . S
C982 H994 0.956 . S
C982 H995 0.961 . S
C982 H996 0.961 . S
C983 C980 1.539 . S
C983 H997 0.939 1_545 S
C983 H998 0.961 . S
C983 H999 0.960 . S
H984 C968 0.931 . S
H985 C973 0.929 . S
H986 C974 0.960 . S
H987 C974 0.962 . S
H988 C974 0.960 . S
H989 C975 0.961 . S
H990 C975 0.961 . S
H991 C975 0.961 . S
H992 C976 0.931 . S
H993 C981 0.930 . S
H994 C982 0.956 . S
H995 C982 0.961 . S
H996 C982 0.961 . S
H997 C983 0.939 1_565 S
H998 C983 0.961 . S
H999 C983 0.960 . S
C1000 C1001 1.391 . S
C1000 C1002 1.394 . S
C1000 H1016 0.931 . S
C1001 C1000 1.391 . S
C1001 C1005 1.376 . S
C1002 C1000 1.394 . S
C1002 C1003 1.369 . S
C1002 C1006 1.531 . S
C1003 C1002 1.369 . S
C1003 C1004 1.410 . S
C1003 C1011 1.503 . S
C1004 C1003 1.410 . S
C1004 C1005 1.392 . S
C1004 C1007 1.511 . S
C1005 C1001 1.376 . S
C1005 C1004 1.392 . S
C1005 H1017 0.929 . S
C1006 C1002 1.531 . S
C1006 H1018 0.960 . S
C1006 H1019 0.962 . S
C1006 H1020 0.960 . S
C1007 C1004 1.511 . S
C1007 H1021 0.961 . S
C1007 H1022 0.961 . S
C1007 H1023 0.961 . S
C1008 C1009 1.370 . S
C1008 C1010 1.363 . S
C1008 H1024 0.931 . S
C1009 C1008 1.370 . S
C1009 C1013 1.408 . S
C1010 C1008 1.363 . S
C1010 C1011 1.370 . S
C1010 C1014 1.524 . S
C1011 C1003 1.503 . S
C1011 C1010 1.370 . S
C1011 C1012 1.403 . S
C1012 C1011 1.403 . S
C1012 C1013 1.404 . S
C1012 C1015 1.539 . S
C1013 C1009 1.408 . S
C1013 C1012 1.404 . S
C1013 H1025 0.930 . S
C1014 C1010 1.524 . S
C1014 H1026 0.956 . S
C1014 H1027 0.961 . S
C1014 H1028 0.961 . S
C1015 C1012 1.539 . S
C1015 H1029 0.958 . S
C1015 H1030 0.961 . S
C1015 H1031 0.960 . S
H1016 C1000 0.931 . S
H1017 C1005 0.929 . S
H1018 C1006 0.960 . S
H1019 C1006 0.962 . S
H1020 C1006 0.960 . S
H1021 C1007 0.961 . S
H1022 C1007 0.961 . S
H1023 C1007 0.961 . S
H1024 C1008 0.931 . S
H1025 C1013 0.930 . S
H1026 C1014 0.956 . S
H1027 C1014 0.961 . S
H1028 C1014 0.961 . S
H1029 C1015 0.958 . S
H1030 C1015 0.961 . S
H1031 C1015 0.960 . S
C1032 C1033 1.391 . S
C1032 C1034 1.394 . S
C1032 H1048 0.931 . S
C1033 C1032 1.391 . S
C1033 C1037 1.376 . S
C1034 C1032 1.394 . S
C1034 C1035 1.369 . S
C1034 C1038 1.531 . S
C1035 C1034 1.369 . S
C1035 C1036 1.410 . S
C1035 C1043 1.503 . S
C1036 C1035 1.410 . S
C1036 C1037 1.392 . S
C1036 C1039 1.511 . S
C1037 C1033 1.376 . S
C1037 C1036 1.392 . S
C1037 H1049 0.929 . S
C1038 C1034 1.531 . S
C1038 H1050 0.960 . S
C1038 H1051 0.962 . S
C1038 H1052 0.960 . S
C1039 C1036 1.511 . S
C1039 H1053 0.961 . S
C1039 H1054 0.961 . S
C1039 H1055 0.961 . S
C1040 C1041 1.370 . S
C1040 C1042 1.363 . S
C1040 H1056 0.931 . S
C1041 C1040 1.370 . S
C1041 C1045 1.408 . S
C1042 C1040 1.363 . S
C1042 C1043 1.370 . S
C1042 C1046 1.524 . S
C1043 C1035 1.503 . S
C1043 C1042 1.370 . S
C1043 C1044 1.403 . S
C1044 C1043 1.403 . S
C1044 C1045 1.404 . S
C1044 C1047 1.539 . S
C1045 C1041 1.408 . S
C1045 C1044 1.404 . S
C1045 H1057 0.930 . S
C1046 C1042 1.524 . S
C1046 H1058 0.956 . S
C1046 H1059 0.961 . S
C1046 H1060 0.961 . S
C1047 C1044 1.539 . S
C1047 H1061 0.958 . S
C1047 H1062 0.961 . S
C1047 H1063 0.960 . S
H1048 C1032 0.931 . S
H1049 C1037 0.929 . S
H1050 C1038 0.960 . S
H1051 C1038 0.962 . S
H1052 C1038 0.960 . S
H1053 C1039 0.961 . S
H1054 C1039 0.961 . S
H1055 C1039 0.961 . S
H1056 C1040 0.931 . S
H1057 C1045 0.930 . S
H1058 C1046 0.956 . S
H1059 C1046 0.961 . S
H1060 C1046 0.961 . S
H1061 C1047 0.958 . S
H1062 C1047 0.961 . S
H1063 C1047 0.960 . S
C1064 C1065 1.391 . S
C1064 C1066 1.394 . S
C1064 H1080 0.931 . S
C1065 C1064 1.391 . S
C1065 C1069 1.376 . S
C1066 C1064 1.394 . S
C1066 C1067 1.369 . S
C1066 C1070 1.531 . S
C1067 C1066 1.369 . S
C1067 C1068 1.410 1_655 S
C1067 C1075 1.503 . S
C1068 C1067 1.410 1_455 S
C1068 C1069 1.392 1_455 S
C1068 C1071 1.511 . S
C1069 C1065 1.376 . S
C1069 C1068 1.392 1_655 S
C1069 H1081 0.929 1_655 S
C1070 C1066 1.531 . S
C1070 H1082 0.960 . S
C1070 H1083 0.962 . S
C1070 H1084 0.960 . S
C1071 C1068 1.511 . S
C1071 H1085 0.961 . S
C1071 H1086 0.961 . S
C1071 H1087 0.961 . S
C1072 C1073 1.370 . S
C1072 C1074 1.363 . S
C1072 H1088 0.931 . S
C1073 C1072 1.370 . S
C1073 C1077 1.408 1_655 S
C1074 C1072 1.363 . S
C1074 C1075 1.370 . S
C1074 C1078 1.524 . S
C1075 C1067 1.503 . S
C1075 C1074 1.370 . S
C1075 C1076 1.403 1_655 S
C1076 C1075 1.403 1_455 S
C1076 C1077 1.404 . S
C1076 C1079 1.539 . S
C1077 C1073 1.408 1_455 S
C1077 C1076 1.404 . S
C1077 H1089 0.930 . S
C1078 C1074 1.524 . S
C1078 H1090 0.956 . S
C1078 H1091 0.961 . S
C1078 H1092 0.961 . S
C1079 C1076 1.539 . S
C1079 H1093 0.958 . S
C1079 H1094 0.961 . S
C1079 H1095 0.960 . S
H1080 C1064 0.931 . S
H1081 C1069 0.929 1_455 S
H1082 C1070 0.960 . S
H1083 C1070 0.962 . S
H1084 C1070 0.960 . S
H1085 C1071 0.961 . S
H1086 C1071 0.961 . S
H1087 C1071 0.961 . S
H1088 C1072 0.931 . S
H1089 C1077 0.930 . S
H1090 C1078 0.956 . S
H1091 C1078 0.961 . S
H1092 C1078 0.961 . S
H1093 C1079 0.958 . S
H1094 C1079 0.961 . S
H1095 C1079 0.960 . S
C1096 C1097 1.391 1_545 S
C1096 C1098 1.394 . S
C1096 H1112 0.931 . S
C1097 C1096 1.391 1_565 S
C1097 C1101 1.376 . S
C1098 C1096 1.394 . S
C1098 C1099 1.369 1_545 S
C1098 C1102 1.531 . S
C1099 C1098 1.369 1_565 S
C1099 C1100 1.410 . S
C1099 C1107 1.503 . S
C1100 C1099 1.410 . S
C1100 C1101 1.392 . S
C1100 C1103 1.511 . S
C1101 C1097 1.376 . S
C1101 C1100 1.392 . S
C1101 H1113 0.929 . S
C1102 C1098 1.531 . S
C1102 H1114 0.960 . S
C1102 H1115 0.962 . S
C1102 H1116 0.960 . S
C1103 C1100 1.511 . S
C1103 H1117 0.961 . S
C1103 H1118 0.961 . S
C1103 H1119 0.961 . S
C1104 C1105 1.370 . S
C1104 C1106 1.363 . S
C1104 H1120 0.931 . S
C1105 C1104 1.370 . S
C1105 C1109 1.408 . S
C1106 C1104 1.363 . S
C1106 C1107 1.370 . S
C1106 C1110 1.524 . S
C1107 C1099 1.503 . S
C1107 C1106 1.370 . S
C1107 C1108 1.403 . S
C1108 C1107 1.403 . S
C1108 C1109 1.404 . S
C1108 C1111 1.539 . S
C1109 C1105 1.408 . S
C1109 C1108 1.404 . S
C1109 H1121 0.930 . S
C1110 C1106 1.524 . S
C1110 H1122 0.956 1_565 S
C1110 H1123 0.961 . S
C1110 H1124 0.961 . S
C1111 C1108 1.539 . S
C1111 H1125 0.958 . S
C1111 H1126 0.961 . S
C1111 H1127 0.960 . S
H1112 C1096 0.931 . S
H1113 C1101 0.929 . S
H1114 C1102 0.960 . S
H1115 C1102 0.962 . S
H1116 C1102 0.960 . S
H1117 C1103 0.961 . S
H1118 C1103 0.961 . S
H1119 C1103 0.961 . S
H1120 C1104 0.931 . S
H1121 C1109 0.930 . S
H1122 C1110 0.956 1_545 S
H1123 C1110 0.961 . S
H1124 C1110 0.961 . S
H1125 C1111 0.958 . S
H1126 C1111 0.961 . S
H1127 C1111 0.960 . S
C1128 C1129 1.391 . S
C1128 C1130 1.394 . S
C1128 H1144 0.931 . S
C1129 C1128 1.391 . S
C1129 C1133 1.376 . S
C1130 C1128 1.394 . S
C1130 C1131 1.369 . S
C1130 C1134 1.531 . S
C1131 C1130 1.369 . S
C1131 C1132 1.410 . S
C1131 C1139 1.503 . S
C1132 C1131 1.410 . S
C1132 C1133 1.392 . S
C1132 C1135 1.511 . S
C1133 C1129 1.376 . S
C1133 C1132 1.392 . S
C1133 H1145 0.929 . S
C1134 C1130 1.531 . S
C1134 H1146 0.960 . S
C1134 H1147 0.962 . S
C1134 H1148 0.960 . S
C1135 C1132 1.511 . S
C1135 H1149 0.961 . S
C1135 H1150 0.961 . S
C1135 H1151 0.961 . S
C1136 C1137 1.370 . S
C1136 C1138 1.363 . S
C1136 H1152 0.931 . S
C1137 C1136 1.370 . S
C1137 C1141 1.408 . S
C1138 C1136 1.363 . S
C1138 C1139 1.370 . S
C1138 C1142 1.524 . S
C1139 C1131 1.503 . S
C1139 C1138 1.370 . S
C1139 C1140 1.403 . S
C1140 C1139 1.403 . S
C1140 C1141 1.404 . S
C1140 C1143 1.539 . S
C1141 C1137 1.408 . S
C1141 C1140 1.404 . S
C1141 H1153 0.930 . S
C1142 C1138 1.524 . S
C1142 H1154 0.956 . S
C1142 H1155 0.961 . S
C1142 H1156 0.961 . S
C1143 C1140 1.539 . S
C1143 H1157 0.958 . S
C1143 H1158 0.961 . S
C1143 H1159 0.960 . S
H1144 C1128 0.931 . S
H1145 C1133 0.929 . S
H1146 C1134 0.960 . S
H1147 C1134 0.962 . S
H1148 C1134 0.960 . S
H1149 C1135 0.961 . S
H1150 C1135 0.961 . S
H1151 C1135 0.961 . S
H1152 C1136 0.931 . S
H1153 C1141 0.930 . S
H1154 C1142 0.956 . S
H1155 C1142 0.961 . S
H1156 C1142 0.961 . S
H1157 C1143 0.958 . S
H1158 C1143 0.961 . S
H1159 C1143 0.960 . S
C1160 C1161 1.391 . S
C1160 C1162 1.394 . S
C1160 H1176 0.931 . S
C1161 C1160 1.391 . S
C1161 C1165 1.376 . S
C1162 C1160 1.394 . S
C1162 C1163 1.369 . S
C1162 C1166 1.531 . S
C1163 C1162 1.369 . S
C1163 C1164 1.410 . S
C1163 C1171 1.503 . S
C1164 C1163 1.410 . S
C1164 C1165 1.392 . S
C1164 C1167 1.511 . S
C1165 C1161 1.376 . S
C1165 C1164 1.392 . S
C1165 H1177 0.929 . S
C1166 C1162 1.531 . S
C1166 H1178 0.960 . S
C1166 H1179 0.962 . S
C1166 H1180 0.960 . S
C1167 C1164 1.511 . S
C1167 H1181 0.961 . S
C1167 H1182 0.961 . S
C1167 H1183 0.961 . S
C1168 C1169 1.370 . S
C1168 C1170 1.363 . S
C1168 H1184 0.931 . S
C1169 C1168 1.370 . S
C1169 C1173 1.408 . S
C1170 C1168 1.363 . S
C1170 C1171 1.370 . S
C1170 C1174 1.524 . S
C1171 C1163 1.503 . S
C1171 C1170 1.370 . S
C1171 C1172 1.403 . S
C1172 C1171 1.403 . S
C1172 C1173 1.404 . S
C1172 C1175 1.539 . S
C1173 C1169 1.408 . S
C1173 C1172 1.404 . S
C1173 H1185 0.930 . S
C1174 C1170 1.524 . S
C1174 H1186 0.956 . S
C1174 H1187 0.961 . S
C1174 H1188 0.961 . S
C1175 C1172 1.539 . S
C1175 H1189 0.958 . S
C1175 H1190 0.961 . S
C1175 H1191 0.960 . S
H1176 C1160 0.931 . S
H1177 C1165 0.929 . S
H1178 C1166 0.960 . S
H1179 C1166 0.962 . S
H1180 C1166 0.960 . S
H1181 C1167 0.961 . S
H1182 C1167 0.961 . S
H1183 C1167 0.961 . S
H1184 C1168 0.931 . S
H1185 C1173 0.930 . S
H1186 C1174 0.956 . S
H1187 C1174 0.961 . S
H1188 C1174 0.961 . S
H1189 C1175 0.958 . S
H1190 C1175 0.961 . S
H1191 C1175 0.960 . S
C425 C74 1.862 . S
C433 C156 1.949 . S
C465 C239 1.963 . S
C457 C85 1.849 . S
C497 C324 1.933 . S
C489 C52 1.884 . S
C529 C408 1.917 . S
C521 C63 1.869 . S
C561 C144 1.938 1_565 S
C553 C30 1.816 . S
C585 C41 1.851 . S
C593 C227 1.956 . S
C617 C8 1.822 . S
C625 C312 1.929 . S
C649 C19 1.850 . S
C657 C396 1.925 1_655 S
C689 C146 0.670 1_455 S
C681 C62 0.697 . S
C721 C242 0.701 . S
C713 C73 0.626 . S
C753 C314 0.707 . S
C745 C84 0.661 . S
C777 C51 0.668 . S
C785 C398 0.648 . S
C809 C18 0.679 . S
C817 C158 0.680 . S
C849 C230 0.675 . S
C841 C29 0.743 . S
C881 C326 0.712 . S
C873 C40 0.728 . S
C905 C7 0.759 . S
C913 C410 0.709 . S
C937 C60 1.706 . S
C945 C143 2.091 . S
C969 C71 1.743 . S
C977 C228 2.102 . S
C1009 C311 2.110 . S
C1001 C82 1.748 . S
C1041 C395 2.113 . S
C1033 C49 1.680 . S
C1065 C16 1.583 . S
C1073 C155 2.084 . S
C1105 C240 2.099 1_565 S
C1097 C27 1.551 . S
C1137 C323 2.112 . S
C1129 C38 1.589 . S
C1161 C5 1.589 . S
C1169 C407 2.117 . S
