# Generated by pormake.
# Topology ant, (3,6)-cn, num edge types: 1
# Building blocks:
#     Node 0, Type 0, BuildingBlock: WUSLED_clean_sbu_0, # of connection points: 3
#     Node 1, Type 0, BuildingBlock: WUSLED_clean_sbu_0, # of connection points: 3
#     Node 2, Type 0, BuildingBlock: WUSLED_clean_sbu_0, # of connection points: 3
#     Node 3, Type 0, BuildingBlock: WUSLED_clean_sbu_0, # of connection points: 3
#     Node 4, Type 0, BuildingBlock: WUSLED_clean_sbu_0, # of connection points: 3
#     Node 5, Type 0, BuildingBlock: WUSLED_clean_sbu_0, # of connection points: 3
#     Node 6, Type 0, BuildingBlock: WUSLED_clean_sbu_0, # of connection points: 3
#     Node 7, Type 0, BuildingBlock: WUSLED_clean_sbu_0, # of connection points: 3
#     Node 8, Type 1, BuildingBlock: MIDCAF_clean_sbu_0, # of connection points: 6
#     Node 9, Type 1, BuildingBlock: MIDCAF_clean_sbu_0, # of connection points: 6
#     Node 10, Type 1, BuildingBlock: MIDCAF_clean_sbu_0, # of connection points: 6
#     Node 11, Type 1, BuildingBlock: MIDCAF_clean_sbu_0, # of connection points: 6
#     Edge 12, Type (0, 1), None
#     Edge 13, Type (0, 1), None
#     Edge 14, Type (0, 1), None
#     Edge 15, Type (0, 1), None
#     Edge 16, Type (0, 1), None
#     Edge 17, Type (0, 1), None
#     Edge 18, Type (0, 1), None
#     Edge 19, Type (0, 1), None
#     Edge 20, Type (0, 1), None
#     Edge 21, Type (0, 1), None
#     Edge 22, Type (0, 1), None
#     Edge 23, Type (0, 1), None
#     Edge 24, Type (0, 1), None
#     Edge 25, Type (0, 1), None
#     Edge 26, Type (0, 1), None
#     Edge 27, Type (0, 1), None
#     Edge 28, Type (0, 1), None
#     Edge 29, Type (0, 1), None
#     Edge 30, Type (0, 1), None
#     Edge 31, Type (0, 1), None
#     Edge 32, Type (0, 1), None
#     Edge 33, Type (0, 1), None
#     Edge 34, Type (0, 1), None
#     Edge 35, Type (0, 1), None
# Relax obj value: 0.097
# Max RMSD: 0.155
# Mean RMSD: 0.101
data_MOF--net-ant--node1-WUSLED_clean_sbu_0--node2-MIDCAF_clean_sbu_0--edge1-none
_symmetry_space_group_name_H-M    P1
_symmetry_Int_Tables_number       1
_symmetry_cell_setting            triclinic
loop_
_symmetry_equiv_pos_as_xyz
'x, y, z'
_cell_length_a     20.077669
_cell_length_b     19.9049
_cell_length_c     57.946125
_cell_angle_alpha  89.797164
_cell_angle_beta   98.906174
_cell_angle_gamma 89.56187
loop_
_atom_site_label
_atom_site_type_symbol
_atom_site_fract_x
_atom_site_fract_y
_atom_site_fract_z
_atom_type_partial_charge
C0 C 0.29011 0.12706 0.09699 0.0
C1 C 0.28255 0.0821 0.0782 0.0
C2 C 0.26944 0.98948 0.10455 0.0
C3 C 0.27204 1.01393 0.08195 0.0
C4 C 0.28389 1.0332 0.12361 0.0
C5 C 0.29378 0.10188 0.11983 0.0
U6 U 0.24427 0.26487 0.0529 0.0
O7 O 0.17765 0.3536 0.05284 0.0
O8 O 0.28329 0.36637 0.04838 0.0
C9 C 0.22618 0.39623 0.05095 0.0
C10 C 0.28247 0.19976 0.09228 0.0
C11 C 0.23054 0.4552 0.06662 0.0
C12 C 0.28617 0.51779 0.09996 0.0
C13 C 0.28227 0.46088 0.08573 0.0
C14 C 0.18633 0.56438 0.07647 0.0
C15 C 0.23833 0.57046 0.09555 0.0
C16 C 0.18268 0.50745 0.0621 0.0
C17 C 0.2014 0.21225 0.98937 0.0
C18 C 0.17595 0.29794 0.95954 0.0
C19 C 0.18597 0.18164 0.9482 0.0
C20 C 0.19904 0.16314 0.97189 0.0
C21 C 0.1758 0.24957 0.94183 0.0
C22 C 0.18861 0.27949 0.98302 0.0
C23 C 0.22135 0.19459 0.01412 0.0
O24 O 0.32533 0.22613 0.07986 0.0
O25 O 0.21989 0.21898 0.08509 0.0
O26 O 0.17547 0.20559 0.0276 0.0
O27 O 0.28134 0.2159 0.02334 0.0
H28 H 0.27915 0.10053 0.06043 0.0
H29 H 0.2597 0.98142 0.06696 0.0
H30 H 0.28045 1.01578 0.14112 0.0
H31 H 0.29913 0.1359 0.13454 0.0
H32 H 0.32692 0.52034 0.11455 0.0
H33 H 0.31977 0.42138 0.08969 0.0
H34 H 0.14759 0.60257 0.07296 0.0
H35 H 0.14211 0.50404 0.04747 0.0
H36 H 0.16752 0.35068 0.95529 0.0
H37 H 0.18631 0.14339 0.93498 0.0
H38 H 0.20895 0.11087 0.97657 0.0
H39 H 0.19015 0.31802 0.99626 0.0
C40 C 0.22597 0.85789 0.34978 0.0
C41 C 0.26062 0.86386 0.33059 0.0
C42 C 0.36562 0.83225 0.35501 0.0
C43 C 0.32976 0.85082 0.33318 0.0
C44 C 0.33242 0.83235 0.37464 0.0
C45 C 0.26271 0.8448 0.37201 0.0
U46 U 0.07693 0.81602 0.30638 0.0
O47 O 0.99212 0.74706 0.30736 0.0
O48 O 0.9726 0.85289 0.29751 0.0
C49 C 0.94669 0.79499 0.30246 0.0
C50 C 0.15198 0.85115 0.34546 0.0
C51 C 0.89422 0.79766 0.31762 0.0
C52 C 0.84457 0.84903 0.34892 0.0
C53 C 0.89539 0.84669 0.33498 0.0
C54 C 0.79162 0.75216 0.32886 0.0
C55 C 0.79172 0.80223 0.34586 0.0
C56 C 0.84217 0.75027 0.31471 0.0
C57 C 0.13347 0.77719 0.24595 0.0
C58 C 0.16035 0.69534 0.21765 0.0
C59 C 0.13478 0.81038 0.20554 0.0
C60 C 0.12374 0.82615 0.22814 0.0
C61 C 0.15576 0.74545 0.20036 0.0
C62 C 0.14933 0.71102 0.24022 0.0
C63 C 0.14114 0.79737 0.27076 0.0
O64 O 0.11905 0.89512 0.33085 0.0
O65 O 0.13202 0.78918 0.34104 0.0
O66 O 0.13469 0.75035 0.28623 0.0
O67 O 0.11567 0.85576 0.27562 0.0
H68 H 0.23331 0.87295 0.31321 0.0
H69 H 0.35413 0.84971 0.31775 0.0
H70 H 0.35891 0.81654 0.39153 0.0
H71 H 0.23682 0.83901 0.38696 0.0
H72 H 0.84644 0.88799 0.362 0.0
H73 H 0.9354 0.88336 0.33774 0.0
H74 H 0.75314 0.714 0.3267 0.0
H75 H 0.84081 0.71156 0.30155 0.0
H76 H 0.17666 0.64491 0.21412 0.0
H77 H 0.13207 0.85031 0.19268 0.0
H78 H 0.11239 0.8778 0.232 0.0
H79 H 0.15795 0.67225 0.25354 0.0
C80 C 0.81886 0.62168 0.60277 0.0
C81 C 0.83159 0.57197 0.58677 0.0
C82 C 0.79702 0.48541 0.61198 0.0
C83 C 0.82112 0.50413 0.59144 0.0
C84 C 0.79097 0.53437 0.62893 0.0
C85 C 0.80221 0.60205 0.62441 0.0
U86 U 0.75774 0.74524 0.55483 0.0
O87 O 0.68866 0.83173 0.55342 0.0
O88 O 0.79125 0.84619 0.54589 0.0
C89 C 0.73418 0.87504 0.549 0.0
C90 C 0.80862 0.69242 0.5953 0.0
C91 C 0.73971 0.93602 0.56351 0.0
C92 C 0.74574 0.98939 0.60132 0.0
C93 C 0.74223 0.93132 0.58776 0.0
C94 C 0.74491 0.05808 0.56671 0.0
C95 C 0.74694 0.05345 0.59098 0.0
C96 C 0.74088 0.99973 0.55305 0.0
C97 C 0.69309 0.67953 0.49483 0.0
C98 C 0.63257 0.75737 0.46679 0.0
C99 C 0.68808 0.65992 0.45318 0.0
C100 C 0.70883 0.63973 0.47641 0.0
C101 C 0.65126 0.71987 0.44832 0.0
C102 C 0.65334 0.7375 0.48983 0.0
C103 C 0.72405 0.66544 0.51904 0.0
O104 O 0.84626 0.7147 0.58027 0.0
O105 O 0.74485 0.70983 0.5898 0.0
O106 O 0.68512 0.6768 0.5349 0.0
O107 O 0.78506 0.68965 0.52481 0.0
H108 H 0.84366 0.58586 0.56981 0.0
H109 H 0.82429 0.46746 0.57787 0.0
H110 H 0.7708 0.52118 0.64463 0.0
H111 H 0.79157 0.63953 0.63689 0.0
H112 H 0.74776 0.98407 0.62004 0.0
H113 H 0.74142 0.88273 0.5962 0.0
H114 H 0.74858 0.10641 0.55844 0.0
H115 H 0.73922 1.00432 0.53433 0.0
H116 H 0.60483 0.80422 0.46341 0.0
H117 H 0.70416 0.63111 0.43917 0.0
H118 H 0.73994 0.59507 0.48 0.0
H119 H 0.64116 0.76934 0.50375 0.0
C120 C 0.75258 0.35958 0.8445 0.0
C121 C 0.79011 0.37005 0.82626 0.0
C122 C 0.89211 0.332 0.85112 0.0
C123 C 0.85926 0.35624 0.82955 0.0
C124 C 0.85594 0.3269 0.86993 0.0
C125 C 0.78645 0.34063 0.86663 0.0
U126 U 0.60581 0.32015 0.79938 0.0
O127 O 0.51996 0.25209 0.79963 0.0
O128 O 0.50209 0.35801 0.78964 0.0
C129 C 0.47517 0.30041 0.79435 0.0
C130 C 0.67852 0.35425 0.83905 0.0
C131 C 0.42181 0.3038 0.80911 0.0
C132 C 0.37282 0.35429 0.84068 0.0
C133 C 0.42408 0.35144 0.82696 0.0
C134 C 0.31705 0.26071 0.8194 0.0
C135 C 0.31841 0.30933 0.83695 0.0
C136 C 0.36811 0.25833 0.80546 0.0
C137 C 0.66485 0.27718 0.73988 0.0
C138 C 0.69509 0.1944 0.71252 0.0
C139 C 0.66036 0.30616 0.69877 0.0
C140 C 0.65024 0.32363 0.72137 0.0
C141 C 0.68577 0.24229 0.69445 0.0
C142 C 0.68476 0.21164 0.73498 0.0
C143 C 0.67226 0.29925 0.76448 0.0
O144 O 0.64776 0.3987 0.82412 0.0
O145 O 0.65776 0.29264 0.83441 0.0
O146 O 0.66478 0.25322 0.78017 0.0
O147 O 0.64706 0.35822 0.76884 0.0
H148 H 0.76509 0.38348 0.80891 0.0
H149 H 0.88589 0.35893 0.81468 0.0
H150 H 0.88006 0.30662 0.88655 0.0
H151 H 0.75835 0.33125 0.88083 0.0
H152 H 0.37569 0.39217 0.85417 0.0
H153 H 0.46538 0.38658 0.83028 0.0
H154 H 0.27722 0.22399 0.81666 0.0
H155 H 0.36591 0.22069 0.79191 0.0
H156 H 0.71444 0.14468 0.70961 0.0
H157 H 0.65321 0.34415 0.68516 0.0
H158 H 0.63531 0.37473 0.72457 0.0
H159 H 0.69695 0.1748 0.74883 0.0
C160 C 0.10782 0.92234 0.90398 0.0
C161 C 0.07556 0.97271 0.91538 0.0
C162 C 0.12091 0.05895 0.89251 0.0
C163 C 0.08193 0.04064 0.9096 0.0
C164 C 0.15846 1.00922 0.88301 0.0
C165 C 0.152 0.94154 0.88869 0.0
U166 U 0.07822 0.76002 0.93711 0.0
O167 O 0.99512 0.68717 0.92899 0.0
O168 O 0.10071 0.65432 0.93161 0.0
C169 C 0.03696 0.63734 0.92678 0.0
C170 C 0.08911 0.85065 0.90503 0.0
C171 C 1.02125 0.59302 0.90649 0.0
C172 C 0.05833 0.55238 0.87122 0.0
C173 C 0.04903 0.6054 0.88614 0.0
C174 C 1.0019 0.47702 0.89465 0.0
C175 C 0.04011 0.48666 0.87657 0.0
C176 C 0.99313 0.53003 0.90972 0.0
C177 C 0.11551 0.75536 0.0039 0.0
C178 C 0.0593 0.72331 0.03638 0.0
C179 C 0.18096 0.73134 0.04197 0.0
C180 C 0.17809 0.74731 0.01833 0.0
C181 C 0.12113 0.7251 0.05148 0.0
C182 C 0.05641 0.7385 0.01272 0.0
C183 C 0.11243 0.78995 0.98118 0.0
O184 O 0.13777 0.80764 0.91258 0.0
O185 O 1.03228 0.83794 0.91278 0.0
O186 O 0.0521 0.80273 0.96943 0.0
O187 O 0.15623 0.76965 0.968 0.0
H188 H 0.04151 0.95949 0.92743 0.0
H189 H 0.05128 0.0779 0.91674 0.0
H190 H 0.18766 1.02204 0.8694 0.0
H191 H 0.17749 0.90386 0.87971 0.0
H192 H 0.08728 0.56125 0.85721 0.0
H193 H 0.07054 0.65391 0.88326 0.0
H194 H 0.98702 0.42702 0.89914 0.0
H195 H 0.97117 0.51974 0.92529 0.0
H196 H 1.0125 0.71836 0.04335 0.0
H197 H 0.22929 0.73318 0.05325 0.0
H198 H 0.22447 0.75914 0.01186 0.0
H199 H 1.00743 0.74273 0.00193 0.0
C200 C 0.55904 0.88186 0.15059 0.0
C201 C 0.52509 0.88272 0.17004 0.0
C202 C 0.41991 0.85402 0.14545 0.0
C203 C 0.45634 0.8686 0.1675 0.0
C204 C 0.45225 0.85927 0.12568 0.0
C205 C 0.52167 0.87269 0.12825 0.0
U206 U 0.71065 0.83766 0.19287 0.0
O207 O 0.79832 0.77166 0.19108 0.0
O208 O 0.81348 0.87619 0.2026 0.0
C209 C 0.84195 0.81975 0.1972 0.0
C210 C 0.63347 0.877 0.15447 0.0
C211 C 0.89767 0.8252 0.18337 0.0
C212 C 0.96097 0.88789 0.15814 0.0
C213 C 0.90744 0.88386 0.17086 0.0
C214 C 0.99621 0.77485 0.17016 0.0
C215 C 1.00585 0.83341 0.15756 0.0
C216 C 0.94292 0.77104 0.18311 0.0
C217 C 0.655 0.78521 0.25226 0.0
C218 C 0.62504 0.69935 0.27863 0.0
C219 C 0.65751 0.80977 0.29353 0.0
C220 C 0.66833 0.82966 0.27123 0.0
C221 C 0.63274 0.74541 0.29712 0.0
C222 C 0.63603 0.71904 0.25644 0.0
C223 C 0.64689 0.81028 0.22795 0.0
O224 O 0.66506 0.91945 0.16969 0.0
O225 O 0.65638 0.81515 0.1578 0.0
O226 O 0.65518 0.76659 0.21165 0.0
O227 O 0.67029 0.87025 0.22424 0.0
H228 H 0.55279 0.88882 0.18749 0.0
H229 H 0.43284 0.86355 0.18304 0.0
H230 H 0.42553 0.84658 0.10857 0.0
H231 H 0.54696 0.8709 0.11305 0.0
H232 H 0.9667 0.93361 0.14847 0.0
H233 H 0.87355 0.92649 0.17075 0.0
H234 H 1.02866 0.73142 0.16953 0.0
H235 H 0.9365 0.72535 0.19271 0.0
H236 H 0.60626 0.64929 0.28097 0.0
H237 H 0.66345 0.8464 0.30746 0.0
H238 H 0.6825 0.88117 0.26859 0.0
H239 H 0.62482 0.68372 0.24221 0.0
C240 C 0.57259 0.43483 0.42752 0.0
C241 C 0.57189 0.49845 0.43795 0.0
C242 C 0.56676 0.55277 0.4 0.0
C243 C 0.56858 0.55706 0.42426 0.0
C244 C 0.5675 0.48878 0.38971 0.0
C245 C 0.57031 0.43048 0.4033 0.0
U246 U 0.55391 0.24419 0.43656 0.0
O247 O 0.56708 0.20837 0.40173 0.0
O248 O 0.46556 0.21488 0.41115 0.0
C249 C 0.50329 0.19213 0.39618 0.0
C250 C 0.57765 0.37359 0.44208 0.0
C251 C 0.49295 0.12169 0.38873 0.0
C252 C 0.5194 1.03471 0.36224 0.0
C253 C 0.50844 0.10244 0.36691 0.0
C254 C 0.49132 1.00385 0.39998 0.0
C255 C 0.51429 0.98534 0.37923 0.0
C256 C 0.48111 0.07172 0.4048 0.0
C257 C 0.61844 0.17912 0.49681 0.0
C258 C 0.62411 0.16096 0.53861 0.0
C259 C 0.6784 0.25749 0.52423 0.0
C260 C 0.65755 0.23699 0.50135 0.0
C261 C 0.66044 0.22073 0.543 0.0
C262 C 0.60327 0.14014 0.51554 0.0
C263 C 0.58749 0.16449 0.47271 0.0
O264 O 0.62311 0.32944 0.43778 0.0
O265 O 0.52041 0.34581 0.44514 0.0
O266 O 0.52642 0.18946 0.46677 0.0
O267 O 0.6264 0.17468 0.45678 0.0
H268 H 0.57343 0.50278 0.45666 0.0
H269 H 0.56537 0.60538 0.4325 0.0
H270 H 0.56571 0.48368 0.37102 0.0
H271 H 0.57082 0.38197 0.3949 0.0
H272 H 0.53876 1.02171 0.34637 0.0
H273 H 0.51838 0.14012 0.35436 0.0
H274 H 0.48894 0.96685 0.41359 0.0
H275 H 0.46994 0.08532 0.42189 0.0
H276 H 0.60859 0.13271 0.55286 0.0
H277 H 0.70576 0.30418 0.52724 0.0
H278 H 0.66925 0.26825 0.48718 0.0
H279 H 0.5726 0.09561 0.51231 0.0
C280 C 0.08631 0.36071 0.63946 0.0
C281 C 0.05091 0.36825 0.65842 0.0
C282 C 0.94757 0.3324 0.63435 0.0
C283 C 0.98222 0.35391 0.65589 0.0
C284 C 0.98133 0.33068 0.61486 0.0
C285 C 0.05054 0.34455 0.61743 0.0
U286 U 0.23488 0.32081 0.6836 0.0
O287 O 0.32083 0.25144 0.68347 0.0
O288 O 0.33861 0.35737 0.69278 0.0
C289 C 0.36556 0.29921 0.68835 0.0
C290 C 0.16051 0.35493 0.64406 0.0
C291 C 0.41883 0.30123 0.67351 0.0
C292 C 0.46831 0.35058 0.64185 0.0
C293 C 0.41699 0.34897 0.65558 0.0
C294 C 0.52328 0.25561 0.6633 0.0
C295 C 0.52236 0.30429 0.64566 0.0
C296 C 0.47218 0.25446 0.67724 0.0
C297 C 0.17486 0.28089 0.74341 0.0
C298 C 0.14141 0.20075 0.77108 0.0
C299 C 0.17885 0.31143 0.78428 0.0
C300 C 0.19005 0.32749 0.76166 0.0
C301 C 0.15183 0.24882 0.7889 0.0
C302 C 0.15279 0.21659 0.74859 0.0
C303 C 0.16875 0.3021 0.7187 0.0
O304 O 0.1919 0.39937 0.65854 0.0
O305 O 0.18208 0.29323 0.64884 0.0
O306 O 0.17657 0.25532 0.70337 0.0
O307 O 0.19422 0.36038 0.71404 0.0
H308 H 0.07747 0.37959 0.67568 0.0
H309 H 0.95747 0.35415 0.67124 0.0
H310 H 0.95583 0.31258 0.59823 0.0
H311 H 0.07702 0.33739 0.60268 0.0
H312 H 0.46575 0.38852 0.62829 0.0
H313 H 0.37601 0.38514 0.6522 0.0
H314 H 0.56273 0.21783 0.66608 0.0
H315 H 0.47408 0.21673 0.69085 0.0
H316 H 0.12087 0.15196 0.77422 0.0
H317 H 0.18692 0.34952 0.79771 0.0
H318 H 0.20648 0.37773 0.75822 0.0
H319 H 0.13996 0.17979 0.73492 0.0
Zn320 Zn 0.28213 0.70004 0.15257 0.0
Zn321 Zn 0.11218 0.85484 0.104 0.0
Zn322 Zn 0.2019 0.78196 0.12621 0.0
C323 C 0.12121 0.74763 0.07557 0.0
C324 C 0.23011 0.92846 0.10688 0.0
O325 O 0.16497 0.76742 0.16006 0.0
O326 O 0.23582 0.69517 0.18016 0.0
C327 C 0.24228 0.62868 0.11182 0.0
O328 O 0.17111 0.7345 0.09184 0.0
O329 O 0.08075 0.79469 0.07812 0.0
O330 O 0.1698 0.92912 0.0968 0.0
O331 O 0.25314 0.87808 0.11983 0.0
O332 O 0.27798 0.62188 0.13163 0.0
O333 O 0.21066 0.68484 0.10644 0.0
O334 O 0.30094 0.8341 0.13255 0.0
O335 O 0.36229 0.75879 0.15488 0.0
C336 C 0.35759 0.81473 0.14439 0.0
O337 O 0.11132 0.79907 0.14502 0.0
O338 O 0.04642 0.87485 0.12439 0.0
C339 C 0.18494 0.73333 0.17888 0.0
C340 C 0.05746 0.83642 0.14188 0.0
Zn341 Zn 0.51151 0.68792 0.34503 0.0
Zn342 Zn 0.66737 0.84823 0.39292 0.0
Zn343 Zn 0.58722 0.7686 0.37202 0.0
C344 C 0.55642 0.92476 0.37939 0.0
C345 C 0.73848 0.80594 0.36088 0.0
O346 O 0.58254 0.67114 0.39163 0.0
O347 O 0.52798 0.60616 0.36422 0.0
C348 C 0.42916 0.79468 0.35561 0.0
O349 O 0.53191 0.86514 0.37632 0.0
O350 O 0.61917 0.93273 0.38423 0.0
O351 O 0.75172 0.83457 0.38039 0.0
O352 O 0.67852 0.78299 0.35414 0.0
O353 O 0.42635 0.73874 0.34533 0.0
O354 O 0.48582 0.81683 0.36623 0.0
O355 O 0.62514 0.75909 0.33799 0.0
O356 O 0.55229 0.69328 0.31642 0.0
C357 C 0.60364 0.73011 0.31837 0.0
O358 O 0.6194 0.72016 0.40629 0.0
O359 O 0.66154 0.81181 0.42417 0.0
C360 C 0.55881 0.61313 0.38474 0.0
C361 C 0.6435 0.75144 0.42512 0.0
Zn362 Zn 0.64579 0.34908 0.59813 0.0
Zn363 Zn 0.8056 0.18742 0.64537 0.0
Zn364 Zn 0.7264 0.26887 0.61917 0.0
C365 C 0.88521 0.2941 0.63418 0.0
C366 C 0.75578 0.11341 0.6062 0.0
O367 O 0.63595 0.28378 0.63754 0.0
O368 O 0.5622 0.33514 0.61098 0.0
C369 C 0.75536 0.42513 0.61161 0.0
O370 O 0.82736 0.31673 0.62436 0.0
O371 O 0.89008 0.23747 0.64418 0.0
O372 O 0.78834 0.1058 0.62648 0.0
O373 O 0.731 0.17171 0.59952 0.0
O374 O 0.69256 0.43354 0.60666 0.0
O375 O 0.78043 0.3653 0.61474 0.0
O376 O 0.69332 0.22116 0.58499 0.0
O377 O 0.65108 0.31336 0.56683 0.0
C378 C 0.66889 0.25263 0.56606 0.0
O379 O 0.68995 0.25838 0.65337 0.0
O380 O 0.76636 0.19316 0.67431 0.0
C381 C 0.57574 0.30701 0.63067 0.0
C382 C 0.71386 0.22905 0.67284 0.0
Zn383 Zn 0.03922 0.19266 0.84002 0.0
Zn384 Zn 0.19014 0.35924 0.88103 0.0
Zn385 Zn 0.11652 0.27479 0.86466 0.0
C386 C 0.16908 0.27265 0.91725 0.0
C387 C 0.07964 0.42979 0.86943 0.0
O388 O 0.15072 0.2652 0.8301 0.0
O389 O 0.07288 0.20131 0.81002 0.0
C390 C 0.1037 0.12034 0.87863 0.0
O391 O 0.15195 0.2334 0.89974 0.0
O392 O 0.18084 0.33368 0.91356 0.0
O393 O 0.14055 0.44059 0.86786 0.0
O394 O 0.05975 0.36851 0.87056 0.0
O395 O 0.06788 0.11263 0.85896 0.0
O396 O 0.12451 0.17922 0.88545 0.0
O397 O 1.0131 0.31908 0.85998 0.0
O398 O 0.95186 0.23645 0.84263 0.0
C399 C 0.95545 0.29419 0.85162 0.0
O400 O 0.20498 0.29036 0.84522 0.0
O401 O 0.27776 0.34303 0.8712 0.0
C402 C 0.125 0.23671 0.81082 0.0
C403 C 0.26492 0.31351 0.85186 0.0
loop_
_geom_bond_atom_site_label_1
_geom_bond_atom_site_label_2
_geom_bond_distance
_geom_bond_site_symmetry_2
_ccdc_geom_bond_type
C0 C1 1.264 . S
C0 C5 1.479 . S
C0 C10 1.465 . S
C1 C0 1.264 . S
C1 C3 1.339 1_545 S
C1 H28 0.931 . S
C2 C3 1.395 . S
C2 C4 1.320 1_565 S
C3 C1 1.339 1_565 S
C3 C2 1.395 . S
C3 H29 0.929 . S
C4 C2 1.320 1_545 S
C4 C5 1.405 . S
C4 H30 0.931 . S
C5 C0 1.479 . S
C5 C4 1.405 . S
C5 H31 0.931 . S
U6 O7 2.454 . S
U6 O8 2.458 . S
U6 C9 2.984 . S
U6 C10 2.847 . S
U6 C23 2.882 . S
U6 O24 2.441 . S
U6 O25 2.420 . S
U6 O26 2.455 . S
U6 O27 2.449 . S
O7 U6 2.454 . S
O7 C9 1.353 . S
O8 U6 2.458 . S
O8 C9 1.286 . S
C9 U6 2.984 . S
C9 O7 1.353 . S
C9 O8 1.286 . S
C9 C11 1.363 . S
C10 C0 1.465 . S
C10 U6 2.847 . S
C10 O24 1.249 . S
C10 O25 1.202 . S
C11 C9 1.363 . S
C11 C13 1.408 . S
C11 C16 1.342 . S
C12 C13 1.310 . S
C12 C15 1.461 . S
C12 H32 0.932 . S
C13 C11 1.408 . S
C13 C12 1.310 . S
C13 H33 0.930 . S
C14 C15 1.474 . S
C14 C16 1.285 . S
C14 H34 0.929 . S
C15 C12 1.461 . S
C15 C14 1.474 . S
C16 C11 1.342 . S
C16 C14 1.285 . S
C16 H35 0.930 . S
C17 C20 1.424 . S
C17 C22 1.245 . S
C17 C23 1.428 1_556 S
C18 C21 1.260 . S
C18 C22 1.477 . S
C18 H36 0.932 . S
C19 C20 1.384 . S
C19 C21 1.479 . S
C19 H37 0.929 . S
C20 C17 1.424 . S
C20 C19 1.384 . S
C20 H38 0.928 . S
C21 C18 1.260 . S
C21 C19 1.479 . S
C22 C17 1.245 . S
C22 C18 1.477 . S
C22 H39 0.932 . S
C23 U6 2.882 . S
C23 C17 1.428 1_554 S
C23 O26 1.301 . S
C23 O27 1.282 . S
O24 U6 2.441 . S
O24 C10 1.249 . S
O25 U6 2.420 . S
O25 C10 1.202 . S
O26 U6 2.455 . S
O26 C23 1.301 . S
O27 U6 2.449 . S
O27 C23 1.282 . S
H28 C1 0.931 . S
H29 C3 0.929 . S
H30 C4 0.931 . S
H31 C5 0.931 . S
H32 C12 0.932 . S
H33 C13 0.930 . S
H34 C14 0.929 . S
H35 C16 0.930 . S
H36 C18 0.932 . S
H37 C19 0.929 . S
H38 C20 0.928 . S
H39 C22 0.932 . S
C40 C41 1.264 . S
C40 C45 1.479 . S
C40 C50 1.465 . S
C41 C40 1.264 . S
C41 C43 1.339 . S
C41 H68 0.931 . S
C42 C43 1.395 . S
C42 C44 1.320 . S
C43 C41 1.339 . S
C43 C42 1.395 . S
C43 H69 0.929 . S
C44 C42 1.320 . S
C44 C45 1.405 . S
C44 H70 0.930 . S
C45 C40 1.479 . S
C45 C44 1.405 . S
C45 H71 0.931 . S
U46 O47 2.454 . S
U46 O48 2.458 . S
U46 C49 2.975 1_455 S
U46 C50 2.847 . S
U46 C63 2.882 . S
U46 O64 2.441 . S
U46 O65 2.420 . S
U46 O66 2.455 . S
U46 O67 2.449 . S
O47 U46 2.454 . S
O47 C49 1.344 1_455 S
O48 U46 2.458 . S
O48 C49 1.284 1_455 S
C49 U46 2.975 1_655 S
C49 O47 1.344 1_655 S
C49 O48 1.284 1_655 S
C49 C51 1.372 . S
C50 C40 1.465 . S
C50 U46 2.847 . S
C50 O64 1.249 . S
C50 O65 1.202 . S
C51 C49 1.372 . S
C51 C53 1.408 . S
C51 C56 1.342 . S
C52 C53 1.310 . S
C52 C55 1.461 . S
C52 H72 0.932 . S
C53 C51 1.408 . S
C53 C52 1.310 . S
C53 H73 0.930 . S
C54 C55 1.474 . S
C54 C56 1.285 . S
C54 H74 0.929 . S
C55 C52 1.461 . S
C55 C54 1.474 . S
C56 C51 1.342 . S
C56 C54 1.285 . S
C56 H75 0.930 . S
C57 C60 1.424 . S
C57 C62 1.245 . S
C57 C63 1.428 . S
C58 C61 1.260 . S
C58 C62 1.477 . S
C58 H76 0.932 . S
C59 C60 1.384 . S
C59 C61 1.479 . S
C59 H77 0.929 . S
C60 C57 1.424 . S
C60 C59 1.384 . S
C60 H78 0.928 . S
C61 C58 1.260 . S
C61 C59 1.479 . S
C62 C57 1.245 . S
C62 C58 1.477 . S
C62 H79 0.932 . S
C63 U46 2.882 . S
C63 C57 1.428 . S
C63 O66 1.301 . S
C63 O67 1.282 . S
O64 U46 2.441 . S
O64 C50 1.249 . S
O65 U46 2.420 . S
O65 C50 1.202 . S
O66 U46 2.455 . S
O66 C63 1.301 . S
O67 U46 2.449 . S
O67 C63 1.282 . S
H68 C41 0.931 . S
H69 C43 0.929 . S
H70 C44 0.930 . S
H71 C45 0.931 . S
H72 C52 0.932 . S
H73 C53 0.930 . S
H74 C54 0.929 . S
H75 C56 0.930 . S
H76 C58 0.932 . S
H77 C59 0.929 . S
H78 C60 0.928 . S
H79 C62 0.932 . S
C80 C81 1.264 . S
C80 C85 1.479 . S
C80 C90 1.465 . S
C81 C80 1.264 . S
C81 C83 1.339 . S
C81 H108 0.931 . S
C82 C83 1.395 . S
C82 C84 1.320 . S
C83 C81 1.339 . S
C83 C82 1.395 . S
C83 H109 0.929 . S
C84 C82 1.320 . S
C84 C85 1.405 . S
C84 H110 0.930 . S
C85 C80 1.479 . S
C85 C84 1.405 . S
C85 H111 0.931 . S
U86 O87 2.454 . S
U86 O88 2.458 . S
U86 C89 2.984 . S
U86 C90 2.847 . S
U86 C103 2.882 . S
U86 O104 2.441 . S
U86 O105 2.420 . S
U86 O106 2.455 . S
U86 O107 2.449 . S
O87 U86 2.454 . S
O87 C89 1.353 . S
O88 U86 2.458 . S
O88 C89 1.286 . S
C89 U86 2.984 . S
C89 O87 1.353 . S
C89 O88 1.286 . S
C89 C91 1.363 . S
C90 C80 1.465 . S
C90 U86 2.847 . S
C90 O104 1.249 . S
C90 O105 1.202 . S
C91 C89 1.363 . S
C91 C93 1.408 . S
C91 C96 1.342 . S
C92 C93 1.310 . S
C92 C95 1.461 1_565 S
C92 H112 0.932 . S
C93 C91 1.408 . S
C93 C92 1.310 . S
C93 H113 0.930 . S
C94 C95 1.474 . S
C94 C96 1.285 1_545 S
C94 H114 0.929 . S
C95 C92 1.461 1_545 S
C95 C94 1.474 . S
C96 C91 1.342 . S
C96 C94 1.285 1_565 S
C96 H115 0.930 . S
C97 C100 1.424 . S
C97 C102 1.245 . S
C97 C103 1.428 . S
C98 C101 1.260 . S
C98 C102 1.477 . S
C98 H116 0.932 . S
C99 C100 1.384 . S
C99 C101 1.479 . S
C99 H117 0.929 . S
C100 C97 1.424 . S
C100 C99 1.384 . S
C100 H118 0.928 . S
C101 C98 1.260 . S
C101 C99 1.479 . S
C102 C97 1.245 . S
C102 C98 1.477 . S
C102 H119 0.932 . S
C103 U86 2.882 . S
C103 C97 1.428 . S
C103 O106 1.301 . S
C103 O107 1.282 . S
O104 U86 2.441 . S
O104 C90 1.249 . S
O105 U86 2.420 . S
O105 C90 1.202 . S
O106 U86 2.455 . S
O106 C103 1.301 . S
O107 U86 2.449 . S
O107 C103 1.282 . S
H108 C81 0.931 . S
H109 C83 0.929 . S
H110 C84 0.930 . S
H111 C85 0.931 . S
H112 C92 0.932 . S
H113 C93 0.930 . S
H114 C94 0.929 . S
H115 C96 0.930 . S
H116 C98 0.932 . S
H117 C99 0.929 . S
H118 C100 0.928 . S
H119 C102 0.932 . S
C120 C121 1.264 . S
C120 C125 1.479 . S
C120 C130 1.465 . S
C121 C120 1.264 . S
C121 C123 1.339 . S
C121 H148 0.931 . S
C122 C123 1.395 . S
C122 C124 1.320 . S
C123 C121 1.339 . S
C123 C122 1.395 . S
C123 H149 0.929 . S
C124 C122 1.320 . S
C124 C125 1.405 . S
C124 H150 0.930 . S
C125 C120 1.479 . S
C125 C124 1.405 . S
C125 H151 0.931 . S
U126 O127 2.454 . S
U126 O128 2.458 . S
U126 C129 2.984 . S
U126 C130 2.847 . S
U126 C143 2.882 . S
U126 O144 2.441 . S
U126 O145 2.420 . S
U126 O146 2.455 . S
U126 O147 2.449 . S
O127 U126 2.454 . S
O127 C129 1.353 . S
O128 U126 2.458 . S
O128 C129 1.286 . S
C129 U126 2.984 . S
C129 O127 1.353 . S
C129 O128 1.286 . S
C129 C131 1.363 . S
C130 C120 1.465 . S
C130 U126 2.847 . S
C130 O144 1.249 . S
C130 O145 1.202 . S
C131 C129 1.363 . S
C131 C133 1.408 . S
C131 C136 1.342 . S
C132 C133 1.310 . S
C132 C135 1.461 . S
C132 H152 0.932 . S
C133 C131 1.408 . S
C133 C132 1.310 . S
C133 H153 0.930 . S
C134 C135 1.474 . S
C134 C136 1.285 . S
C134 H154 0.929 . S
C135 C132 1.461 . S
C135 C134 1.474 . S
C136 C131 1.342 . S
C136 C134 1.285 . S
C136 H155 0.930 . S
C137 C140 1.424 . S
C137 C142 1.245 . S
C137 C143 1.428 . S
C138 C141 1.260 . S
C138 C142 1.477 . S
C138 H156 0.932 . S
C139 C140 1.384 . S
C139 C141 1.479 . S
C139 H157 0.929 . S
C140 C137 1.424 . S
C140 C139 1.384 . S
C140 H158 0.928 . S
C141 C138 1.260 . S
C141 C139 1.479 . S
C142 C137 1.245 . S
C142 C138 1.477 . S
C142 H159 0.932 . S
C143 U126 2.882 . S
C143 C137 1.428 . S
C143 O146 1.301 . S
C143 O147 1.282 . S
O144 U126 2.441 . S
O144 C130 1.249 . S
O145 U126 2.420 . S
O145 C130 1.202 . S
O146 U126 2.455 . S
O146 C143 1.301 . S
O147 U126 2.449 . S
O147 C143 1.282 . S
H148 C121 0.931 . S
H149 C123 0.929 . S
H150 C124 0.930 . S
H151 C125 0.931 . S
H152 C132 0.932 . S
H153 C133 0.930 . S
H154 C134 0.929 . S
H155 C136 0.930 . S
H156 C138 0.932 . S
H157 C139 0.929 . S
H158 C140 0.928 . S
H159 C142 0.932 . S
C160 C161 1.264 . S
C160 C165 1.479 . S
C160 C170 1.465 . S
C161 C160 1.264 . S
C161 C163 1.339 1_565 S
C161 H188 0.931 . S
C162 C163 1.395 . S
C162 C164 1.320 1_545 S
C163 C161 1.339 1_545 S
C163 C162 1.395 . S
C163 H189 0.929 . S
C164 C162 1.320 1_565 S
C164 C165 1.405 . S
C164 H190 0.930 . S
C165 C160 1.479 . S
C165 C164 1.405 . S
C165 H191 0.931 . S
U166 O167 2.454 . S
U166 O168 2.458 . S
U166 C169 2.984 . S
U166 C170 2.847 . S
U166 C183 2.882 . S
U166 O184 2.441 . S
U166 O185 2.420 1_455 S
U166 O186 2.455 . S
U166 O187 2.449 1_455 S
O167 U166 2.454 . S
O167 C169 1.353 . S
O168 U166 2.458 . S
O168 C169 1.286 . S
C169 U166 2.984 . S
C169 O167 1.353 . S
C169 O168 1.286 . S
C169 C171 1.363 . S
C170 C160 1.465 . S
C170 U166 2.847 . S
C170 O184 1.249 . S
C170 O185 1.202 1_455 S
C171 C169 1.363 . S
C171 C173 1.408 . S
C171 C176 1.342 . S
C172 C173 1.310 . S
C172 C175 1.461 . S
C172 H192 0.932 . S
C173 C171 1.408 . S
C173 C172 1.310 . S
C173 H193 0.930 . S
C174 C175 1.474 . S
C174 C176 1.285 . S
C174 H194 0.929 . S
C175 C172 1.461 . S
C175 C174 1.474 . S
C176 C171 1.342 . S
C176 C174 1.285 . S
C176 H195 0.930 . S
C177 C180 1.444 . S
C177 C182 1.270 . S
C177 C183 1.382 1_554 S
C178 C181 1.260 . S
C178 C182 1.477 . S
C178 H196 0.932 . S
C179 C180 1.384 . S
C179 C181 1.479 . S
C179 H197 0.929 . S
C180 C177 1.444 . S
C180 C179 1.384 . S
C180 H198 0.928 . S
C181 C178 1.260 . S
C181 C179 1.479 . S
C182 C177 1.270 . S
C182 C178 1.477 . S
C182 H199 0.932 . S
C183 U166 2.882 . S
C183 C177 1.382 1_556 S
C183 O186 1.301 . S
C183 O187 1.282 1_455 S
O184 U166 2.441 . S
O184 C170 1.249 . S
O185 U166 2.420 1_655 S
O185 C170 1.202 1_655 S
O186 U166 2.455 . S
O186 C183 1.301 . S
O187 U166 2.449 1_655 S
O187 C183 1.282 1_655 S
H188 C161 0.931 . S
H189 C163 0.929 . S
H190 C164 0.930 . S
H191 C165 0.931 . S
H192 C172 0.932 . S
H193 C173 0.930 . S
H194 C174 0.929 . S
H195 C176 0.930 . S
H196 C178 0.932 . S
H197 C179 0.929 . S
H198 C180 0.928 . S
H199 C182 0.932 . S
C200 C201 1.264 . S
C200 C205 1.479 . S
C200 C210 1.465 . S
C201 C200 1.264 . S
C201 C203 1.339 . S
C201 H228 0.931 . S
C202 C203 1.395 . S
C202 C204 1.320 . S
C203 C201 1.339 . S
C203 C202 1.395 . S
C203 H229 0.929 . S
C204 C202 1.320 . S
C204 C205 1.405 . S
C204 H230 0.930 . S
C205 C200 1.479 . S
C205 C204 1.405 . S
C205 H231 0.931 . S
U206 O207 2.454 . S
U206 O208 2.458 . S
U206 C209 2.984 . S
U206 C210 2.847 . S
U206 C223 2.882 . S
U206 O224 2.441 . S
U206 O225 2.420 . S
U206 O226 2.455 . S
U206 O227 2.449 . S
O207 U206 2.454 . S
O207 C209 1.353 . S
O208 U206 2.458 . S
O208 C209 1.286 . S
C209 U206 2.984 . S
C209 O207 1.353 . S
C209 O208 1.286 . S
C209 C211 1.363 . S
C210 C200 1.465 . S
C210 U206 2.847 . S
C210 O224 1.249 . S
C210 O225 1.202 . S
C211 C209 1.363 . S
C211 C213 1.408 . S
C211 C216 1.342 . S
C212 C213 1.310 . S
C212 C215 1.461 . S
C212 H232 0.932 . S
C213 C211 1.408 . S
C213 C212 1.310 . S
C213 H233 0.930 . S
C214 C215 1.474 . S
C214 C216 1.285 . S
C214 H234 0.929 . S
C215 C212 1.461 . S
C215 C214 1.474 . S
C216 C211 1.342 . S
C216 C214 1.285 . S
C216 H235 0.930 . S
C217 C220 1.424 . S
C217 C222 1.245 . S
C217 C223 1.428 . S
C218 C221 1.260 . S
C218 C222 1.477 . S
C218 H236 0.932 . S
C219 C220 1.384 . S
C219 C221 1.479 . S
C219 H237 0.929 . S
C220 C217 1.424 . S
C220 C219 1.384 . S
C220 H238 0.928 . S
C221 C218 1.260 . S
C221 C219 1.479 . S
C222 C217 1.245 . S
C222 C218 1.477 . S
C222 H239 0.932 . S
C223 U206 2.882 . S
C223 C217 1.428 . S
C223 O226 1.301 . S
C223 O227 1.282 . S
O224 U206 2.441 . S
O224 C210 1.249 . S
O225 U206 2.420 . S
O225 C210 1.202 . S
O226 U206 2.455 . S
O226 C223 1.301 . S
O227 U206 2.449 . S
O227 C223 1.282 . S
H228 C201 0.931 . S
H229 C203 0.929 . S
H230 C204 0.930 . S
H231 C205 0.931 . S
H232 C212 0.932 . S
H233 C213 0.930 . S
H234 C214 0.929 . S
H235 C216 0.930 . S
H236 C218 0.932 . S
H237 C219 0.929 . S
H238 C220 0.928 . S
H239 C222 0.932 . S
C240 C241 1.264 . S
C240 C245 1.479 . S
C240 C250 1.465 . S
C241 C240 1.264 . S
C241 C243 1.339 . S
C241 H268 0.931 . S
C242 C243 1.395 . S
C242 C244 1.320 . S
C243 C241 1.339 . S
C243 C242 1.395 . S
C243 H269 0.929 . S
C244 C242 1.320 . S
C244 C245 1.405 . S
C244 H270 0.930 . S
C245 C240 1.479 . S
C245 C244 1.405 . S
C245 H271 0.931 . S
U246 O247 2.454 . S
U246 O248 2.458 . S
U246 C249 2.984 . S
U246 C250 2.847 . S
U246 C263 2.882 . S
U246 O264 2.441 . S
U246 O265 2.420 . S
U246 O266 2.455 . S
U246 O267 2.449 . S
O247 U246 2.454 . S
O247 C249 1.353 . S
O248 U246 2.458 . S
O248 C249 1.286 . S
C249 U246 2.984 . S
C249 O247 1.353 . S
C249 O248 1.286 . S
C249 C251 1.363 . S
C250 C240 1.465 . S
C250 U246 2.847 . S
C250 O264 1.249 . S
C250 O265 1.202 . S
C251 C249 1.363 . S
C251 C253 1.408 . S
C251 C256 1.342 . S
C252 C253 1.311 . S
C252 C255 1.460 1_545 S
C252 H272 0.932 1_545 S
C253 C251 1.408 . S
C253 C252 1.311 . S
C253 H273 0.930 . S
C254 C255 1.474 . S
C254 C256 1.285 1_565 S
C254 H274 0.929 . S
C255 C252 1.460 1_565 S
C255 C254 1.474 . S
C256 C251 1.342 . S
C256 C254 1.285 1_545 S
C256 H275 0.930 . S
C257 C260 1.424 . S
C257 C262 1.245 . S
C257 C263 1.428 . S
C258 C261 1.260 . S
C258 C262 1.477 . S
C258 H276 0.932 . S
C259 C260 1.384 . S
C259 C261 1.479 . S
C259 H277 0.929 . S
C260 C257 1.424 . S
C260 C259 1.384 . S
C260 H278 0.928 . S
C261 C258 1.260 . S
C261 C259 1.479 . S
C262 C257 1.245 . S
C262 C258 1.477 . S
C262 H279 0.932 . S
C263 U246 2.882 . S
C263 C257 1.428 . S
C263 O266 1.301 . S
C263 O267 1.282 . S
O264 U246 2.441 . S
O264 C250 1.249 . S
O265 U246 2.420 . S
O265 C250 1.202 . S
O266 U246 2.455 . S
O266 C263 1.301 . S
O267 U246 2.449 . S
O267 C263 1.282 . S
H268 C241 0.931 . S
H269 C243 0.929 . S
H270 C244 0.930 . S
H271 C245 0.931 . S
H272 C252 0.932 1_565 S
H273 C253 0.930 . S
H274 C254 0.929 . S
H275 C256 0.930 . S
H276 C258 0.932 . S
H277 C259 0.929 . S
H278 C260 0.928 . S
H279 C262 0.932 . S
C280 C281 1.264 . S
C280 C285 1.479 . S
C280 C290 1.465 1_655 S
C281 C280 1.264 . S
C281 C283 1.339 . S
C281 H308 0.931 . S
C282 C283 1.395 . S
C282 C284 1.320 . S
C283 C281 1.339 . S
C283 C282 1.395 . S
C283 H309 0.929 . S
C284 C282 1.320 . S
C284 C285 1.405 . S
C284 H310 0.930 . S
C285 C280 1.479 . S
C285 C284 1.405 . S
C285 H311 0.931 . S
U286 O287 2.454 . S
U286 O288 2.458 . S
U286 C289 2.984 . S
U286 C290 2.847 . S
U286 C303 2.882 . S
U286 O304 2.441 . S
U286 O305 2.420 . S
U286 O306 2.455 . S
U286 O307 2.449 . S
O287 U286 2.454 . S
O287 C289 1.353 . S
O288 U286 2.458 . S
O288 C289 1.286 . S
C289 U286 2.984 . S
C289 O287 1.353 . S
C289 O288 1.286 . S
C289 C291 1.363 . S
C290 C280 1.465 1_455 S
C290 U286 2.847 . S
C290 O304 1.249 . S
C290 O305 1.202 . S
C291 C289 1.363 . S
C291 C293 1.408 . S
C291 C296 1.342 . S
C292 C293 1.310 . S
C292 C295 1.461 . S
C292 H312 0.932 . S
C293 C291 1.408 . S
C293 C292 1.310 . S
C293 H313 0.930 . S
C294 C295 1.474 . S
C294 C296 1.285 . S
C294 H314 0.929 . S
C295 C292 1.461 . S
C295 C294 1.474 . S
C296 C291 1.342 . S
C296 C294 1.285 . S
C296 H315 0.930 . S
C297 C300 1.424 . S
C297 C302 1.245 . S
C297 C303 1.428 . S
C298 C301 1.260 . S
C298 C302 1.477 . S
C298 H316 0.932 . S
C299 C300 1.384 . S
C299 C301 1.479 . S
C299 H317 0.929 . S
C300 C297 1.424 . S
C300 C299 1.384 . S
C300 H318 0.928 . S
C301 C298 1.260 . S
C301 C299 1.479 . S
C302 C297 1.245 . S
C302 C298 1.477 . S
C302 H319 0.932 . S
C303 U286 2.882 . S
C303 C297 1.428 . S
C303 O306 1.301 . S
C303 O307 1.282 . S
O304 U286 2.441 . S
O304 C290 1.249 . S
O305 U286 2.420 . S
O305 C290 1.202 . S
O306 U286 2.455 . S
O306 C303 1.301 . S
O307 U286 2.449 . S
O307 C303 1.282 . S
H308 C281 0.931 . S
H309 C283 0.929 . S
H310 C284 0.930 . S
H311 C285 0.931 . S
H312 C292 0.932 . S
H313 C293 0.930 . S
H314 C294 0.929 . S
H315 C296 0.930 . S
H316 C298 0.932 . S
H317 C299 0.929 . S
H318 C300 0.928 . S
H319 C302 0.932 . S
Zn320 O326 1.920 . S
Zn320 O332 1.898 . S
Zn320 O335 1.905 . S
Zn321 O329 1.905 . S
Zn321 O330 1.898 . S
Zn321 O338 1.920 1_455 S
Zn322 O325 2.080 . S
Zn322 O328 2.114 . S
Zn322 O331 2.120 . S
Zn322 O333 2.120 . S
Zn322 O334 2.114 . S
Zn322 O337 2.080 . S
C323 O328 1.166 . S
C323 O329 1.182 . S
C324 O330 1.167 . S
C324 O331 1.299 . S
O325 Zn322 2.080 . S
O325 C339 1.305 . S
O326 Zn320 1.920 . S
O326 C339 1.234 . S
C327 O332 1.167 . S
C327 O333 1.299 . S
O328 Zn322 2.114 . S
O328 C323 1.166 . S
O329 Zn321 1.905 . S
O329 C323 1.182 . S
O330 Zn321 1.898 . S
O330 C324 1.167 . S
O331 Zn322 2.120 . S
O331 C324 1.299 . S
O332 Zn320 1.898 . S
O332 C327 1.167 . S
O333 Zn322 2.120 . S
O333 C327 1.299 . S
O334 Zn322 2.114 . S
O334 C336 1.166 . S
O335 Zn320 1.905 . S
O335 C336 1.182 . S
C336 O334 1.166 . S
C336 O335 1.182 . S
O337 Zn322 2.080 . S
O337 C340 1.305 1_455 S
O338 Zn321 1.920 1_655 S
O338 C340 1.234 . S
C339 O325 1.305 . S
C339 O326 1.234 . S
C340 O337 1.305 1_655 S
C340 O338 1.234 . S
Zn341 O347 1.920 . S
Zn341 O353 1.898 . S
Zn341 O356 1.905 . S
Zn342 O350 1.905 . S
Zn342 O351 1.898 . S
Zn342 O359 1.920 . S
Zn343 O346 2.080 . S
Zn343 O349 2.114 . S
Zn343 O352 2.120 . S
Zn343 O354 2.120 . S
Zn343 O355 2.114 . S
Zn343 O358 2.080 . S
C344 O349 1.166 . S
C344 O350 1.182 . S
C345 O351 1.167 . S
C345 O352 1.299 . S
O346 Zn343 2.080 . S
O346 C360 1.305 . S
O347 Zn341 1.920 . S
O347 C360 1.234 . S
C348 O353 1.167 . S
C348 O354 1.299 . S
O349 Zn343 2.114 . S
O349 C344 1.166 . S
O350 Zn342 1.905 . S
O350 C344 1.182 . S
O351 Zn342 1.898 . S
O351 C345 1.167 . S
O352 Zn343 2.120 . S
O352 C345 1.299 . S
O353 Zn341 1.898 . S
O353 C348 1.167 . S
O354 Zn343 2.120 . S
O354 C348 1.299 . S
O355 Zn343 2.114 . S
O355 C357 1.166 . S
O356 Zn341 1.905 . S
O356 C357 1.182 . S
C357 O355 1.166 . S
C357 O356 1.182 . S
O358 Zn343 2.080 . S
O358 C361 1.305 . S
O359 Zn342 1.920 . S
O359 C361 1.234 . S
C360 O346 1.305 . S
C360 O347 1.234 . S
C361 O358 1.305 . S
C361 O359 1.234 . S
Zn362 O368 1.920 . S
Zn362 O374 1.898 . S
Zn362 O377 1.905 . S
Zn363 O371 1.905 . S
Zn363 O372 1.898 . S
Zn363 O380 1.920 . S
Zn364 O367 2.080 . S
Zn364 O370 2.114 . S
Zn364 O373 2.120 . S
Zn364 O375 2.120 . S
Zn364 O376 2.114 . S
Zn364 O379 2.080 . S
C365 O370 1.166 . S
C365 O371 1.182 . S
C366 O372 1.167 . S
C366 O373 1.299 . S
O367 Zn364 2.080 . S
O367 C381 1.305 . S
O368 Zn362 1.920 . S
O368 C381 1.234 . S
C369 O374 1.167 . S
C369 O375 1.299 . S
O370 Zn364 2.114 . S
O370 C365 1.166 . S
O371 Zn363 1.905 . S
O371 C365 1.182 . S
O372 Zn363 1.898 . S
O372 C366 1.167 . S
O373 Zn364 2.120 . S
O373 C366 1.299 . S
O374 Zn362 1.898 . S
O374 C369 1.167 . S
O375 Zn364 2.120 . S
O375 C369 1.299 . S
O376 Zn364 2.114 . S
O376 C378 1.166 . S
O377 Zn362 1.905 . S
O377 C378 1.182 . S
C378 O376 1.166 . S
C378 O377 1.182 . S
O379 Zn364 2.080 . S
O379 C382 1.305 . S
O380 Zn363 1.920 . S
O380 C382 1.234 . S
C381 O367 1.305 . S
C381 O368 1.234 . S
C382 O379 1.305 . S
C382 O380 1.234 . S
Zn383 O389 1.920 . S
Zn383 O395 1.898 . S
Zn383 O398 1.905 1_455 S
Zn384 O392 1.905 . S
Zn384 O393 1.898 . S
Zn384 O401 1.920 . S
Zn385 O388 2.080 . S
Zn385 O391 2.114 . S
Zn385 O394 2.120 . S
Zn385 O396 2.120 . S
Zn385 O397 2.114 . S
Zn385 O400 2.080 . S
C386 O391 1.166 . S
C386 O392 1.182 . S
C387 O393 1.167 . S
C387 O394 1.299 . S
O388 Zn385 2.080 . S
O388 C402 1.305 . S
O389 Zn383 1.920 . S
O389 C402 1.234 . S
C390 O395 1.167 . S
C390 O396 1.299 . S
O391 Zn385 2.114 . S
O391 C386 1.166 . S
O392 Zn384 1.905 . S
O392 C386 1.182 . S
O393 Zn384 1.898 . S
O393 C387 1.167 . S
O394 Zn385 2.120 . S
O394 C387 1.299 . S
O395 Zn383 1.898 . S
O395 C390 1.167 . S
O396 Zn385 2.120 . S
O396 C390 1.299 . S
O397 Zn385 2.114 . S
O397 C399 1.166 1_455 S
O398 Zn383 1.905 1_655 S
O398 C399 1.182 . S
C399 O397 1.166 1_655 S
C399 O398 1.182 . S
O400 Zn385 2.080 . S
O400 C403 1.305 . S
O401 Zn384 1.920 . S
O401 C403 1.234 . S
C402 O388 1.305 . S
C402 O389 1.234 . S
C403 O400 1.305 . S
C403 O401 1.234 . S
C327 C15 1.880 . S
C345 C55 1.388 . S
C82 C369 2.225 . S
C399 C122 2.041 . S
C387 C175 2.327 . S
C215 C340 1.443 . S
C242 C360 1.964 . S
C282 C365 2.038 . S
C295 C381 1.435 . S
C202 C336 1.988 . S
C403 C135 1.431 . S
C348 C42 2.025 . S
C95 C366 1.894 . S
C2 C324 2.220 . S
C344 C255 2.295 . S
C390 C162 1.987 . S
C386 C21 1.310 . S
C339 C61 1.701 . S
C101 C361 1.270 . S
C141 C382 1.664 . S
C323 C181 1.520 . S
C221 C357 1.689 . S
C378 C261 1.491 . S
C402 C301 1.672 . S
