# Generated by pormake.
# Topology rtl, (3,6)-cn, num edge types: 1
# Building blocks:
#     Node 0, Type 0, BuildingBlock: OLANEW_clean_sbu_2, # of connection points: 3
#     Node 1, Type 0, BuildingBlock: OLANEW_clean_sbu_2, # of connection points: 3
#     Node 2, Type 0, BuildingBlock: OLANEW_clean_sbu_2, # of connection points: 3
#     Node 3, Type 0, BuildingBlock: OLANEW_clean_sbu_2, # of connection points: 3
#     Node 4, Type 1, BuildingBlock: KUMBOL_clean_sbu_1, # of connection points: 6
#     Node 5, Type 1, BuildingBlock: KUMBOL_clean_sbu_1, # of connection points: 6
#     Edge 6, Type (0, 1), BuildingBlock: MIFKUJ_clean_linker_0, # of connection points: 2
#     Edge 7, Type (0, 1), BuildingBlock: MIFKUJ_clean_linker_0, # of connection points: 2
#     Edge 8, Type (0, 1), BuildingBlock: MIFKUJ_clean_linker_0, # of connection points: 2
#     Edge 9, Type (0, 1), BuildingBlock: MIFKUJ_clean_linker_0, # of connection points: 2
#     Edge 10, Type (0, 1), BuildingBlock: MIFKUJ_clean_linker_0, # of connection points: 2
#     Edge 11, Type (0, 1), BuildingBlock: MIFKUJ_clean_linker_0, # of connection points: 2
#     Edge 12, Type (0, 1), BuildingBlock: MIFKUJ_clean_linker_0, # of connection points: 2
#     Edge 13, Type (0, 1), BuildingBlock: MIFKUJ_clean_linker_0, # of connection points: 2
#     Edge 14, Type (0, 1), BuildingBlock: MIFKUJ_clean_linker_0, # of connection points: 2
#     Edge 15, Type (0, 1), BuildingBlock: MIFKUJ_clean_linker_0, # of connection points: 2
#     Edge 16, Type (0, 1), BuildingBlock: MIFKUJ_clean_linker_0, # of connection points: 2
#     Edge 17, Type (0, 1), BuildingBlock: MIFKUJ_clean_linker_0, # of connection points: 2
# Relax obj value: 0.041
# Max RMSD: 0.158
# Mean RMSD: 0.127
data_MOF--net-rtl--node1-OLANEW_clean_sbu_2--node2-KUMBOL_clean_sbu_1--edge1-MIFKUJ_clean_linker_0
_symmetry_space_group_name_H-M    P1
_symmetry_Int_Tables_number       1
_symmetry_cell_setting            triclinic
loop_
_symmetry_equiv_pos_as_xyz
'x, y, z'
_cell_length_a     47.985744
_cell_length_b     47.565347
_cell_length_c     36.469801
_cell_angle_alpha  78.403942
_cell_angle_beta   102.24843
_cell_angle_gamma 90.80372
loop_
_atom_site_label
_atom_site_type_symbol
_atom_site_fract_x
_atom_site_fract_y
_atom_site_fract_z
_atom_type_partial_charge
O0 O 0.2341 0.85399 0.96883 0.0
Cd1 Cd 0.26681 0.83024 0.0275 0.0
O2 O 0.21967 0.8815 0.00289 0.0
Cd3 Cd 0.19197 0.912 0.01696 0.0
O4 O 0.16918 0.9297 0.0534 0.0
C5 C 0.15243 0.91305 0.0695 0.0
O6 O 0.14879 0.88728 0.06168 0.0
C7 C 0.21772 0.87413 0.97082 0.0
C8 C 0.29842 0.78502 0.01664 0.0
O9 O 0.27334 0.78122 0.02339 0.0
O10 O 0.30848 0.81025 0.0148 0.0
O11 O 0.65164 0.74397 0.68102 0.0
Cd12 Cd 0.6588 0.7888 0.63785 0.0
O13 O 0.63095 0.72842 0.62968 0.0
Cd14 Cd 0.61018 0.69747 0.59647 0.0
O15 O 0.59986 0.67217 0.55174 0.0
C16 C 0.58523 0.68361 0.51888 0.0
O17 O 0.57549 0.71018 0.51303 0.0
C18 C 0.63807 0.72451 0.66601 0.0
C19 C 0.71465 0.80663 0.63953 0.0
O20 O 0.7005 0.81293 0.66307 0.0
O21 O 0.70273 0.79103 0.61608 0.0
O22 O 0.7465 0.12146 0.12501 0.0
Cd23 Cd 0.71198 0.13836 0.06501 0.0
O24 O 0.77875 0.1241 0.09027 0.0
Cd25 Cd 0.82014 0.1174 0.07684 0.0
O26 O 0.84923 0.11018 0.04072 0.0
C27 C 0.84129 0.09298 0.01822 0.0
O28 O 0.81703 0.07996 0.01911 0.0
C29 C 0.77235 0.11836 0.12301 0.0
C30 C 0.68815 0.19226 0.06122 0.0
O31 O 0.67601 0.16923 0.07379 0.0
O32 O 0.71164 0.18979 0.05057 0.0
O33 O 0.35625 0.26086 0.55417 0.0
Cd34 Cd 0.34143 0.2283 0.50982 0.0
O35 O 0.3561 0.29525 0.50426 0.0
Cd36 Cd 0.36594 0.33669 0.47168 0.0
O37 O 0.37991 0.36208 0.42195 0.0
C38 C 0.3918 0.34775 0.40325 0.0
O39 O 0.39497 0.31979 0.4152 0.0
C40 C 0.36057 0.2869 0.54044 0.0
C41 C 0.29201 0.19835 0.51858 0.0
O42 O 0.31658 0.18843 0.53807 0.0
O43 O 0.29076 0.22269 0.49545 0.0
C44 C 0.93778 0.07927 0.49129 0.0
C45 C 0.89004 0.06062 0.48081 0.0
C46 C 0.91851 0.05863 0.50182 0.0
C47 C 0.88164 0.08267 0.44835 0.0
C48 C 0.92924 0.10179 0.45922 0.0
C49 C 0.90117 0.10319 0.4376 0.0
N50 N 0.96514 0.07681 0.51176 0.0
C51 C 0.98475 0.09669 0.5029 0.0
C52 C 0.94934 0.122 0.44948 0.0
C53 C 0.97716 0.11952 0.47155 0.0
Gd54 Gd 0.01155 0.97202 0.53165 0.0
Gd55 Gd 0.97592 0.03755 0.56316 0.0
N56 N 0.92733 0.03716 0.53304 0.0
C57 C 0.87064 0.04076 0.49354 0.0
C58 C 0.90775 0.01977 0.54767 0.0
C59 C 0.87941 0.02066 0.5276 0.0
H60 H 0.91351 0.00571 0.57535 0.0
H61 H 0.8642 0.00624 0.53886 0.0
H62 H 0.07756 0.99169 0.56893 0.0
H63 H 0.00631 0.09461 0.51987 0.0
H64 H 0.12008 0.97037 0.61663 0.0
H65 H 0.84861 0.04155 0.47819 0.0
H66 H 0.85995 0.08428 0.43167 0.0
H67 H 0.9665 0.91873 0.52156 0.0
H68 H 0.94361 0.13957 0.42499 0.0
H69 H 0.99279 0.1351 0.46429 0.0
H70 H 0.09563 0.87254 0.65753 0.0
H71 H 0.89432 0.12013 0.41259 0.0
H72 H 0.00389 0.84241 0.59948 0.0
H73 H 0.96349 0.86734 0.55002 0.0
N74 N 0.00741 0.923 0.55567 0.0
C75 C 0.03005 0.90966 0.58216 0.0
C76 C 0.98382 0.90816 0.54384 0.0
C77 C 0.00511 0.86502 0.5874 0.0
C78 C 0.98224 0.87901 0.55959 0.0
C79 C 0.02948 0.88029 0.59889 0.0
H80 H 0.05315 0.84459 0.63954 0.0
N81 N 0.05367 0.95374 0.57575 0.0
C82 C 0.05401 0.92539 0.59227 0.0
C83 C 0.10189 0.92873 0.62849 0.0
C84 C 0.07803 0.91219 0.61937 0.0
C85 C 0.07732 0.96964 0.5833 0.0
C86 C 0.10159 0.95751 0.61014 0.0
O87 O 0.98054 0.03805 0.50224 0.0
O88 O 0.97013 0.99239 0.49652 0.0
O89 O 0.03411 0.98421 0.4853 0.0
O90 O 0.01209 0.94406 0.49163 0.0
O91 O 0.9629 0.99211 0.58452 0.0
O92 O 0.96509 0.96987 0.5347 0.0
O93 O 0.0184 0.96965 0.59545 0.0
O94 O 0.01391 0.0156 0.60673 0.0
O95 O 0.95672 0.04376 0.61018 0.0
O96 O 0.9798 0.07787 0.58253 0.0
O97 O 0.03309 0.01516 0.52379 0.0
O98 O 0.02282 0.04214 0.56626 0.0
C99 C 0.96812 0.01984 0.48192 0.0
C100 C 0.95586 0.97119 0.5658 0.0
C101 C 0.05317 0.94548 0.46591 0.0
C102 C 0.07913 0.93348 0.42028 0.0
C103 C 0.09372 0.91188 0.4879 0.0
C104 C 0.07168 0.92701 0.49569 0.0
C105 C 0.09733 0.91488 0.45034 0.0
C106 C 0.0572 0.94896 0.42828 0.0
C107 C 0.02888 0.96023 0.4733 0.0
C108 C 0.07744 0.88302 0.63648 0.0
C109 C 0.05323 0.86711 0.62626 0.0
H110 H 0.12072 0.91943 0.64933 0.0
C111 C 0.02249 0.98847 0.6179 0.0
C112 C 0.03876 0.03567 0.54371 0.0
C113 C 0.98483 0.07211 0.64925 0.0
C114 C 0.98643 0.07667 0.71527 0.0
C115 C 0.03022 0.07742 0.69148 0.0
C116 C 0.01467 0.07404 0.65582 0.0
C117 C 0.01627 0.07889 0.72096 0.0
C118 C 0.97087 0.07322 0.6791 0.0
C119 C 0.96821 0.06856 0.6116 0.0
H120 H 0.10784 0.89757 0.51099 0.0
H121 H 0.0689 0.92396 0.52478 0.0
H122 H 0.11439 0.90279 0.44473 0.0
H123 H 0.04281 0.96304 0.40513 0.0
H124 H 0.05318 0.079 0.69625 0.0
H125 H 0.02602 0.07289 0.63343 0.0
H126 H 0.02892 0.0821 0.74806 0.0
H127 H 0.94795 0.07097 0.67415 0.0
C128 C 0.59565 0.55247 0.00258 0.0
C129 C 0.5815 0.6015 0.97032 0.0
C130 C 0.57582 0.57522 0.99303 0.0
C131 C 0.60682 0.60426 0.95654 0.0
C132 C 0.62121 0.55525 0.98907 0.0
C133 C 0.62663 0.58123 0.96594 0.0
N134 N 0.58942 0.52723 0.02385 0.0
C135 C 0.60794 0.50414 0.03338 0.0
C136 C 0.64027 0.53158 0.99852 0.0
C137 C 0.63361 0.50594 0.02084 0.0
Gd138 Gd 0.47932 0.49191 0.97868 0.0
Gd139 Gd 0.54569 0.52585 0.04266 0.0
N140 N 0.55117 0.57175 0.00614 0.0
C141 C 0.56178 0.62441 0.96263 0.0
C142 C 0.53328 0.59485 0.00155 0.0
C143 C 0.53786 0.62122 0.97896 0.0
H144 H 0.516 0.59361 0.01626 0.0
H145 H 0.52321 0.63925 0.97481 0.0
H146 H 0.50152 0.4263 0.03066 0.0
H147 H 0.60296 0.48441 0.05087 0.0
H148 H 0.48331 0.38667 0.07312 0.0
H149 H 0.56535 0.64492 0.94529 0.0
H150 H 0.61137 0.62422 0.9388 0.0
H151 H 0.42508 0.5395 0.94161 0.0
H152 H 0.66008 0.53284 0.98861 0.0
H153 H 0.64823 0.48755 0.02833 0.0
H154 H 0.38807 0.4182 0.07013 0.0
H155 H 0.64604 0.58369 0.95505 0.0
H156 H 0.35395 0.50934 0.99068 0.0
H157 H 0.37561 0.54658 0.94843 0.0
N158 N 0.43173 0.4997 0.98124 0.0
C159 C 0.42007 0.47868 0.00394 0.0
C160 C 0.41604 0.52363 0.96098 0.0
C161 C 0.37577 0.50636 0.9882 0.0
C162 C 0.38793 0.52746 0.96437 0.0
C163 C 0.3918 0.48153 0.00826 0.0
H164 H 0.35883 0.46147 0.03616 0.0
N165 N 0.46397 0.45251 0.01896 0.0
C166 C 0.43654 0.45422 0.02307 0.0
C167 C 0.4424 0.40768 0.06555 0.0
C168 C 0.42519 0.43207 0.04703 0.0
C169 C 0.48041 0.42829 0.03561 0.0
C170 C 0.47001 0.40565 0.05944 0.0
O171 O 0.54795 0.52046 0.98308 0.0
O172 O 0.50183 0.52919 0.9497 0.0
O173 O 0.48273 0.45982 0.94511 0.0
O174 O 0.44987 0.49313 0.92391 0.0
O175 O 0.50097 0.5447 0.03373 0.0
O176 O 0.47823 0.53987 0.97303 0.0
O177 O 0.47738 0.49263 0.04042 0.0
O178 O 0.52434 0.48817 0.07224 0.0
O179 O 0.5462 0.55086 0.08652 0.0
O180 O 0.58144 0.52168 0.09137 0.0
O181 O 0.5229 0.46962 0.99132 0.0
O182 O 0.54909 0.47782 0.04931 0.0
C183 C 0.52939 0.5307 0.95138 0.0
C184 C 0.48079 0.55236 0.00258 0.0
C185 C 0.46962 0.47565 0.87846 0.0
C186 C 0.4655 0.46117 0.81708 0.0
C187 C 0.49888 0.49762 0.83432 0.0
C188 C 0.49053 0.49504 0.86919 0.0
C189 C 0.48664 0.4806 0.80847 0.0
C190 C 0.45685 0.45893 0.85209 0.0
C191 C 0.46248 0.47155 0.91646 0.0
C192 C 0.39712 0.43495 0.0517 0.0
C193 C 0.38047 0.4596 0.03236 0.0
H194 H 0.43449 0.39019 0.08424 0.0
C195 C 0.49711 0.48633 0.07212 0.0
C196 C 0.54334 0.46252 0.02234 0.0
C197 C 0.56665 0.52504 0.14792 0.0
C198 C 0.5646 0.53036 0.21247 0.0
C199 C 0.55596 0.48416 0.19388 0.0
C200 C 0.56054 0.49587 0.15758 0.0
C201 C 0.55791 0.50125 0.2212 0.0
C202 C 0.56864 0.54226 0.17542 0.0
C203 C 0.5692 0.53781 0.10861 0.0
H204 H 0.51508 0.51264 0.82753 0.0
H205 H 0.50066 0.50785 0.88915 0.0
H206 H 0.49358 0.48267 0.78168 0.0
H207 H 0.4409 0.44365 0.85925 0.0
H208 H 0.55075 0.4618 0.20062 0.0
H209 H 0.55907 0.48211 0.137 0.0
H210 H 0.55388 0.49188 0.24909 0.0
H211 H 0.57349 0.56476 0.16805 0.0
H212 H 0.23773 0.21131 0.47658 0.0
H213 H 0.19502 0.1834 0.4812 0.0
H214 H 0.24439 0.12042 0.57312 0.0
H215 H 0.28734 0.1479 0.56808 0.0
H216 H 0.2099 0.09434 0.52501 0.0
H217 H 0.19985 0.17 0.59061 0.0
H218 H 0.19792 0.22007 0.59894 0.0
H219 H 0.12612 0.2388 0.50399 0.0
H220 H 0.12786 0.18891 0.49477 0.0
H221 H 0.06609 0.06848 0.59288 0.0
H222 H 0.10931 0.09547 0.58914 0.0
H223 H 0.11287 0.06878 0.48385 0.0
H224 H 0.07006 0.04087 0.48811 0.0
H225 H 0.12167 0.13906 0.54118 0.0
H226 H 0.18102 0.06369 0.47519 0.0
H227 H 0.18362 0.01223 0.47333 0.0
H228 H 0.15941 0.99019 0.5821 0.0
H229 H 0.15694 0.04148 0.5848 0.0
C230 C 0.2395 0.19157 0.49787 0.0
C231 C 0.26593 0.18188 0.52207 0.0
C232 C 0.21503 0.17566 0.50054 0.0
C233 C 0.21641 0.14994 0.52777 0.0
C234 C 0.2428 0.14018 0.55186 0.0
C235 C 0.26732 0.15598 0.54906 0.0
C236 C 0.19037 0.13319 0.53111 0.0
C237 C 0.19061 0.10412 0.52855 0.0
C238 C 0.16529 0.14579 0.5363 0.0
C239 C 0.16417 0.1758 0.54177 0.0
C240 C 0.18379 0.18486 0.57132 0.0
C241 C 0.1827 0.21319 0.57623 0.0
C242 C 0.16196 0.23262 0.55195 0.0
C243 C 0.1422 0.22373 0.52275 0.0
C244 C 0.14322 0.19543 0.51768 0.0
C245 C 0.07603 0.06835 0.56887 0.0
C246 C 0.06467 0.05246 0.54082 0.0
C247 C 0.10075 0.08385 0.56675 0.0
C248 C 0.11457 0.08397 0.53644 0.0
C249 C 0.10295 0.06856 0.50795 0.0
C250 C 0.0784 0.0527 0.51033 0.0
C251 C 0.1411 0.10025 0.53483 0.0
C252 C 0.14093 0.12927 0.5376 0.0
C253 C 0.16645 0.0874 0.53082 0.0
C254 C 0.16856 0.05645 0.52999 0.0
C255 C 0.17639 0.04785 0.49879 0.0
C256 C 0.17779 0.01872 0.49757 0.0
C257 C 0.17156 0.99797 0.52751 0.0
C258 C 0.16408 0.0063 0.55885 0.0
C259 C 0.16266 0.03539 0.56022 0.0
H260 H 0.1726 0.97543 0.52647 0.0
H261 H 0.16114 0.25455 0.55581 0.0
H262 H 0.35536 0.78315 0.01728 0.0
H263 H 0.38366 0.74286 0.01091 0.0
H264 H 0.30814 0.69231 0.99727 0.0
H265 H 0.27991 0.73224 0.00511 0.0
H266 H 0.34918 0.66051 0.04221 0.0
H267 H 0.3394 0.7224 0.91999 0.0
H268 H 0.34115 0.76776 0.87392 0.0
H269 H 0.43158 0.77028 0.91602 0.0
H270 H 0.43033 0.72513 0.96271 0.0
H271 H 0.44625 0.58513 0.93921 0.0
H272 H 0.41174 0.62293 0.9376 0.0
H273 H 0.4376 0.6129 0.06042 0.0
H274 H 0.47061 0.57388 0.06247 0.0
H275 H 0.4164 0.67287 0.95427 0.0
H276 H 0.38428 0.62776 0.09945 0.0
H277 H 0.37943 0.58069 0.14038 0.0
H278 H 0.36534 0.54136 0.04218 0.0
H279 H 0.36975 0.58821 1.00051 0.0
C280 C 0.34475 0.7635 0.01277 0.0
C281 C 0.31539 0.7609 0.01161 0.0
C282 C 0.36094 0.7405 0.00893 0.0
C283 C 0.34799 0.71464 0.00299 0.0
C284 C 0.31863 0.71202 0.00179 0.0
C285 C 0.3025 0.73489 0.00618 0.0
C286 C 0.36524 0.69012 0.99906 0.0
C287 C 0.36377 0.6632 0.02284 0.0
C288 C 0.38384 0.69336 0.97317 0.0
C289 C 0.38472 0.72049 0.94505 0.0
C290 C 0.35963 0.73273 0.9196 0.0
C291 C 0.36054 0.75839 0.89335 0.0
C292 C 0.38645 0.77192 0.8921 0.0
C293 C 0.41152 0.75979 0.91704 0.0
C294 C 0.41073 0.73414 0.94337 0.0
C295 C 0.44409 0.59054 0.96595 0.0
C296 C 0.4606 0.57598 0.00105 0.0
C297 C 0.42461 0.6124 0.96494 0.0
C298 C 0.42161 0.6204 0.99897 0.0
C299 C 0.43889 0.60659 0.03389 0.0
C300 C 0.45797 0.58443 0.03497 0.0
C301 C 0.40079 0.6435 0.99803 0.0
C302 C 0.40162 0.67013 0.97339 0.0
C303 C 0.38098 0.63974 0.02228 0.0
C304 C 0.37755 0.61152 0.04691 0.0
C305 C 0.37996 0.60911 0.08653 0.0
C306 C 0.37735 0.58245 0.10987 0.0
C307 C 0.37218 0.55804 0.09388 0.0
C308 C 0.36947 0.56026 0.0545 0.0
C309 C 0.37204 0.58687 0.03101 0.0
H310 H 0.37022 0.53741 0.112 0.0
H311 H 0.3871 0.79179 0.87176 0.0
H312 H 0.74751 0.83616 0.68916 0.0
H313 H 0.79204 0.86018 0.68243 0.0
H314 H 0.79013 0.82933 0.57849 0.0
H315 H 0.74602 0.80458 0.58563 0.0
H316 H 0.84325 0.82763 0.61835 0.0
H317 H 0.76605 0.8979 0.57686 0.0
H318 H 0.7242 0.92474 0.58288 0.0
H319 H 0.77469 0.95468 0.67878 0.0
H320 H 0.81677 0.9277 0.67363 0.0
H321 H 0.92183 0.9376 0.52301 0.0
H322 H 0.88535 0.905 0.54231 0.0
H323 H 0.9029 0.92757 0.6535 0.0
H324 H 0.94042 0.95929 0.63506 0.0
H325 H 0.84416 0.93253 0.61444 0.0
H326 H 0.9225 0.86442 0.65191 0.0
H327 H 0.96383 0.83769 0.6443 0.0
H328 H 0.91079 0.80481 0.55283 0.0
H329 H 0.86914 0.8316 0.55964 0.0
C330 C 0.75674 0.8342 0.66511 0.0
C331 C 0.74308 0.81867 0.63774 0.0
C332 C 0.78214 0.84806 0.6612 0.0
C333 C 0.79414 0.84707 0.62952 0.0
C334 C 0.78123 0.8305 0.6031 0.0
C335 C 0.75597 0.8164 0.60718 0.0
C336 C 0.81933 0.86433 0.62289 0.0
C337 C 0.84333 0.85061 0.61716 0.0
C338 C 0.81972 0.89426 0.62201 0.0
C339 C 0.79446 0.91052 0.62513 0.0
C340 C 0.76816 0.91003 0.59942 0.0
C341 C 0.74442 0.9253 0.60264 0.0
C342 C 0.74676 0.94134 0.63127 0.0
C343 C 0.77289 0.94221 0.65666 0.0
C344 C 0.7967 0.92694 0.6536 0.0
C345 C 0.91857 0.93502 0.55195 0.0
C346 C 0.93437 0.95069 0.57771 0.0
C347 C 0.89755 0.91653 0.56282 0.0
C348 C 0.89162 0.91375 0.5994 0.0
C349 C 0.90728 0.92937 0.62519 0.0
C350 C 0.92865 0.94749 0.61457 0.0
C351 C 0.86789 0.89583 0.60979 0.0
C352 C 0.84413 0.9095 0.61601 0.0
C353 C 0.86765 0.86597 0.61074 0.0
C354 C 0.89274 0.85021 0.60609 0.0
C355 C 0.91969 0.85172 0.62992 0.0
C356 C 0.94315 0.83645 0.62586 0.0
C357 C 0.93993 0.81953 0.59813 0.0
C358 C 0.91324 0.81789 0.57435 0.0
C359 C 0.88968 0.83307 0.57833 0.0
H360 H 0.95813 0.80774 0.59502 0.0
H361 H 0.72835 0.95315 0.63371 0.0
H362 H 0.71168 0.24474 0.04433 0.0
H363 H 0.69036 0.29192 0.04057 0.0
H364 H 0.614 0.25166 0.06743 0.0
H365 H 0.63548 0.20446 0.07233 0.0
H366 H 0.64617 0.32047 0.99569 0.0
H367 H 0.58308 0.2893 0.11729 0.0
H368 H 0.58791 0.25566 0.17947 0.0
H369 H 0.67889 0.25232 0.19194 0.0
H370 H 0.67464 0.28624 0.13012 0.0
H371 H 0.53841 0.42483 0.97377 0.0
H372 H 0.56569 0.38026 0.98274 0.0
H373 H 0.61409 0.39473 0.09103 0.0
H374 H 0.58596 0.43869 0.0832 0.0
H375 H 0.60153 0.34139 0.09855 0.0
H376 H 0.64205 0.40664 0.00882 0.0
H377 H 0.64176 0.44327 0.95033 0.0
H378 H 0.60583 0.38336 0.8808 0.0
H379 H 0.60548 0.34648 0.9389 0.0
C380 C 0.69039 0.24594 0.0496 0.0
C381 C 0.67532 0.22086 0.05883 0.0
C382 C 0.6782 0.27293 0.04733 0.0
C383 C 0.65071 0.27536 0.05416 0.0
C384 C 0.63548 0.25033 0.06284 0.0
C385 C 0.64774 0.22335 0.06546 0.0
C386 C 0.63771 0.30404 0.05168 0.0
C387 C 0.63649 0.32507 0.01823 0.0
C388 C 0.62571 0.31037 0.08148 0.0
C389 C 0.62849 0.29011 0.11887 0.0
C390 C 0.60412 0.28147 0.13337 0.0
C391 C 0.60676 0.26234 0.16854 0.0
C392 C 0.63368 0.25179 0.18958 0.0
C393 C 0.65804 0.26042 0.17555 0.0
C394 C 0.65552 0.27957 0.14041 0.0
C395 C 0.55486 0.41862 0.99952 0.0
C396 C 0.56021 0.43561 0.02753 0.0
C397 C 0.57058 0.39315 0.00449 0.0
C398 C 0.59234 0.38439 0.03721 0.0
C399 C 0.59751 0.40112 0.06544 0.0
C400 C 0.58153 0.4264 0.06075 0.0
C401 C 0.60937 0.35754 0.04219 0.0
C402 C 0.61134 0.33685 0.07609 0.0
C403 C 0.62287 0.35191 0.01334 0.0
C404 C 0.62356 0.37384 0.97826 0.0
C405 C 0.63396 0.40131 0.98106 0.0
C406 C 0.6339 0.42212 0.94798 0.0
C407 C 0.62374 0.41566 0.91187 0.0
C408 C 0.61369 0.38833 0.90879 0.0
C409 C 0.61364 0.36745 0.9418 0.0
H410 H 0.62368 0.43182 0.88629 0.0
H411 H 0.63568 0.23697 0.2168 0.0
H412 H 0.1185 0.88079 0.11185 0.0
H413 H 0.10127 0.89196 0.16558 0.0
H414 H 0.13958 0.9749 0.14898 0.0
H415 H 0.15752 0.96358 0.09541 0.0
H416 H 0.15317 0.94978 0.22142 0.0
H417 H 0.06642 0.96877 0.12974 0.0
H418 H 0.02688 0.96098 0.07769 0.0
H419 H 0.00404 0.88556 0.15062 0.0
H420 H 0.04371 0.89264 0.20298 0.0
H421 H 0.08745 0.98206 0.37005 0.0
H422 H 0.09563 0.9855 0.30493 0.0
H423 H 0.086 0.89409 0.31599 0.0
H424 H 0.07861 0.89048 0.38129 0.0
H425 H 0.05504 0.93233 0.24254 0.0
H426 H 0.14797 0.91161 0.32996 0.0
H427 H 0.18686 0.92167 0.38139 0.0
H428 H 0.19633 0.00479 0.31365 0.0
H429 H 0.15714 0.99535 0.26203 0.0
C430 C 0.12299 0.90158 0.11923 0.0
C431 C 0.13949 0.92125 0.09941 0.0
C432 C 0.11294 0.90802 0.14989 0.0
C433 C 0.11885 0.93441 0.16113 0.0
C434 C 0.1347 0.95443 0.14077 0.0
C435 C 0.14488 0.94795 0.11011 0.0
C436 C 0.11028 0.93992 0.19592 0.0
C437 C 0.13153 0.94662 0.22558 0.0
C438 C 0.08212 0.93559 0.20165 0.0
C439 C 0.0582 0.93114 0.17024 0.0
C440 C 0.05311 0.95039 0.13461 0.0
C441 C 0.03065 0.94612 0.10505 0.0
C442 C 0.01299 0.92276 0.11082 0.0
C443 C 0.01774 0.90364 0.14619 0.0
C444 C 0.0402 0.9078 0.17585 0.0
C445 C 0.08693 0.96281 0.35834 0.0
C446 C 0.0826 0.93599 0.38049 0.0
C447 C 0.09157 0.96479 0.32132 0.0
C448 C 0.09135 0.94004 0.30584 0.0
C449 C 0.08612 0.9134 0.32751 0.0
C450 C 0.0821 0.91133 0.36474 0.0
C451 C 0.09804 0.94146 0.26781 0.0
C452 C 0.07646 0.93603 0.23777 0.0
C453 C 0.12576 0.94734 0.2615 0.0
C454 C 0.14939 0.95294 0.2924 0.0
C455 C 0.15814 0.93215 0.32621 0.0
C456 C 0.18028 0.93771 0.35535 0.0
C457 C 0.19399 0.9639 0.35085 0.0
C458 C 0.18564 0.98455 0.31714 0.0
C459 C 0.16348 0.9791 0.28793 0.0
H460 H 0.21114 0.96816 0.37344 0.0
H461 H 0.9956 0.9195 0.0879 0.0
H462 H 0.58819 0.69645 0.65308 0.0
H463 H 0.57063 0.65873 0.69827 0.0
H464 H 0.64996 0.65762 0.78041 0.0
H465 H 0.66748 0.69588 0.7356 0.0
H466 H 0.61576 0.59808 0.76188 0.0
H467 H 0.61468 0.68977 0.8073 0.0
H468 H 0.60253 0.74154 0.79492 0.0
H469 H 0.51494 0.72497 0.75045 0.0
H470 H 0.52674 0.67312 0.76207 0.0
H471 H 0.58237 0.52688 0.93631 0.0
H472 H 0.6013 0.55666 0.88514 0.0
H473 H 0.51811 0.59739 0.83679 0.0
H474 H 0.49987 0.5695 0.89018 0.0
H475 H 0.55384 0.63624 0.83481 0.0
H476 H 0.5502 0.54615 0.79552 0.0
H477 H 0.55867 0.494 0.80353 0.0
H478 H 0.64915 0.50544 0.82919 0.0
H479 H 0.64121 0.55762 0.82171 0.0
C480 C 0.60223 0.68757 0.68027 0.0
C481 C 0.62932 0.69885 0.69072 0.0
C482 C 0.5921 0.66616 0.7061 0.0
C483 C 0.60908 0.65542 0.74248 0.0
C484 C 0.63668 0.66558 0.7523 0.0
C485 C 0.6466 0.68743 0.72679 0.0
C486 C 0.59686 0.63591 0.77159 0.0
C487 C 0.60244 0.60627 0.7782 0.0
C488 C 0.57874 0.64666 0.79173 0.0
C489 C 0.57165 0.67771 0.78508 0.0
C490 C 0.59291 0.69723 0.79451 0.0
C491 C 0.58607 0.72656 0.78773 0.0
C492 C 0.558 0.73655 0.77179 0.0
C493 C 0.53669 0.71721 0.76272 0.0
C494 C 0.54343 0.68787 0.76941 0.0
C495 C 0.56824 0.54249 0.91507 0.0
C496 C 0.53987 0.5464 0.91786 0.0
C497 C 0.57893 0.55913 0.88529 0.0
C498 C 0.56112 0.57917 0.85663 0.0
C499 C 0.5324 0.58224 0.85858 0.0
C500 C 0.52191 0.56613 0.88898 0.0
C501 C 0.57272 0.59792 0.82579 0.0
C502 C 0.56702 0.62764 0.81864 0.0
C503 C 0.5902 0.58704 0.80461 0.0
C504 C 0.5951 0.55576 0.80835 0.0
C505 C 0.5719 0.53751 0.80305 0.0
C506 C 0.5766 0.50796 0.80748 0.0
C507 C 0.60442 0.49641 0.81698 0.0
C508 C 0.62761 0.51442 0.82187 0.0
C509 C 0.62302 0.54399 0.81745 0.0
H510 H 0.60802 0.47352 0.82047 0.0
H511 H 0.55274 0.75926 0.76656 0.0
H512 H 0.7655 0.07992 0.18612 0.0
H513 H 0.80054 0.06412 0.24588 0.0
H514 H 0.86284 0.11879 0.20008 0.0
H515 H 0.82803 0.1337 0.13958 0.0
H516 H 0.88835 0.07172 0.23877 0.0
H517 H 0.82483 0.13704 0.26574 0.0
H518 H 0.77872 0.15779 0.26859 0.0
H519 H 0.762 0.08014 0.34284 0.0
H520 H 0.80784 0.05876 0.34001 0.0
H521 H 0.97631 0.06582 0.42768 0.0
H522 H 0.94447 0.08403 0.3652 0.0
H523 H 0.88642 0.01612 0.3892 0.0
H524 H 0.9183 0.99767 0.45128 0.0
H525 H 0.86086 0.07331 0.36208 0.0
H526 H 0.92589 0.00867 0.33154 0.0
H527 H 0.97376 0.99122 0.33027 0.0
H528 H 0.98947 0.07296 0.26401 0.0
H529 H 0.94183 0.09105 0.26542 0.0
C530 C 0.78674 0.0884 0.18877 0.0
C531 C 0.79413 0.10791 0.15823 0.0
C532 C 0.80671 0.07954 0.22303 0.0
C533 C 0.83421 0.09075 0.22793 0.0
C534 C 0.84178 0.10985 0.19709 0.0
C535 C 0.82194 0.11828 0.16247 0.0
C536 C 0.8549 0.08255 0.26526 0.0
C537 C 0.8824 0.07252 0.26563 0.0
C538 C 0.84726 0.08341 0.30054 0.0
C539 C 0.81966 0.0962 0.30235 0.0
C540 C 0.81122 0.12431 0.28244 0.0
C541 C 0.78515 0.13619 0.28409 0.0
C542 C 0.76741 0.12026 0.3058 0.0
C543 C 0.77575 0.09244 0.326 0.0
C544 C 0.80179 0.08043 0.3244 0.0
C545 C 0.95682 0.05476 0.41936 0.0
C546 C 0.9497 0.03035 0.44397 0.0
C547 C 0.93873 0.06512 0.38382 0.0
C548 C 0.91322 0.0513 0.37267 0.0
C549 C 0.90606 0.02699 0.39735 0.0
C550 C 0.92434 0.01638 0.43256 0.0
C551 C 0.8938 0.06215 0.33529 0.0
C552 C 0.86666 0.07275 0.33505 0.0
C553 C 0.90195 0.06232 0.30022 0.0
C554 C 0.93042 0.05131 0.29893 0.0
C555 C 0.93964 0.023 0.31697 0.0
C556 C 0.96672 0.01298 0.31618 0.0
C557 C 0.98468 0.031 0.29716 0.0
C558 C 0.97556 0.05904 0.27878 0.0
C559 C 0.94851 0.06918 0.27954 0.0
H560 H 0.00564 0.0232 0.29659 0.0
H561 H 0.74723 0.1295 0.30705 0.0
H562 H 0.40288 0.27529 0.60407 0.0
H563 H 0.41984 0.30611 0.64972 0.0
H564 H 0.35839 0.37233 0.58308 0.0
H565 H 0.34316 0.34218 0.5356 0.0
H566 H 0.40127 0.39764 0.60875 0.0
H567 H 0.35006 0.32346 0.6715 0.0
H568 H 0.33643 0.27404 0.69525 0.0
H569 H 0.42038 0.25535 0.76592 0.0
H570 H 0.43464 0.30456 0.74224 0.0
H571 H 0.40959 0.45766 0.7825 0.0
H572 H 0.38995 0.42903 0.73418 0.0
H573 H 0.47419 0.39445 0.74283 0.0
H574 H 0.49398 0.42366 0.79006 0.0
H575 H 0.41594 0.35515 0.74759 0.0
H576 H 0.46501 0.43264 0.6745 0.0
H577 H 0.47271 0.48412 0.65248 0.0
H578 H 0.38318 0.49816 0.6034 0.0
H579 H 0.37493 0.44681 0.62574 0.0
C580 C 0.39323 0.29655 0.59908 0.0
C581 C 0.37166 0.30638 0.56654 0.0
C582 C 0.40268 0.31408 0.62541 0.0
C583 C 0.38978 0.34131 0.62081 0.0
C584 C 0.36864 0.35141 0.58762 0.0
C585 C 0.3599 0.3342 0.56048 0.0
C586 C 0.39841 0.35907 0.65057 0.0
C587 C 0.40407 0.38824 0.63901 0.0
C588 C 0.402 0.34723 0.69036 0.0
C589 C 0.39347 0.31764 0.70485 0.0
C590 C 0.36566 0.30876 0.69194 0.0
C591 C 0.35782 0.28079 0.70541 0.0
C592 C 0.37755 0.26155 0.73201 0.0
C593 C 0.40513 0.27027 0.74529 0.0
C594 C 0.4131 0.29821 0.7319 0.0
C595 C 0.42379 0.44382 0.77411 0.0
C596 C 0.45324 0.44281 0.78977 0.0
C597 C 0.41263 0.42761 0.74656 0.0
C598 C 0.43071 0.40982 0.73496 0.0
C599 C 0.45998 0.40818 0.75139 0.0
C600 C 0.47122 0.42483 0.77823 0.0
C601 C 0.41923 0.393 0.70543 0.0
C602 C 0.41292 0.36422 0.71719 0.0
C603 C 0.41424 0.40533 0.66596 0.0
C604 C 0.41932 0.43603 0.6522 0.0
C605 C 0.44694 0.44678 0.65938 0.0
C606 C 0.45142 0.47591 0.64676 0.0
C607 C 0.42844 0.49442 0.62666 0.0
C608 C 0.40095 0.48382 0.61903 0.0
C609 C 0.39637 0.45471 0.63165 0.0
H610 H 0.43194 0.51697 0.61691 0.0
H611 H 0.37144 0.2399 0.74239 0.0
H612 H 0.60659 0.63041 0.51962 0.0
H613 H 0.60214 0.60614 0.46571 0.0
H614 H 0.55028 0.67715 0.39178 0.0
H615 H 0.55443 0.70155 0.44564 0.0
H616 H 0.5291 0.62544 0.3792 0.0
H617 H 0.61883 0.67155 0.38833 0.0
H618 H 0.66653 0.68422 0.4204 0.0
H619 H 0.69389 0.59551 0.44722 0.0
H620 H 0.6462 0.58224 0.41577 0.0
H621 H 0.54214 0.58436 0.20522 0.0
H622 H 0.54505 0.61219 0.25567 0.0
H623 H 0.59566 0.54373 0.33718 0.0
H624 H 0.5931 0.51603 0.28694 0.0
H625 H 0.61712 0.59677 0.34333 0.0
H626 H 0.5267 0.55069 0.33601 0.0
H627 H 0.47907 0.53819 0.30348 0.0
H628 H 0.4531 0.62735 0.27256 0.0
H629 H 0.50077 0.64042 0.30445 0.0
C630 C 0.59408 0.64082 0.49197 0.0
C631 C 0.58102 0.66802 0.48689 0.0
C632 C 0.59166 0.62696 0.46115 0.0
C633 C 0.57622 0.64004 0.42462 0.0
C634 C 0.56238 0.66674 0.4197 0.0
C635 C 0.56485 0.68067 0.45051 0.0
C636 C 0.57501 0.62603 0.39148 0.0
C637 C 0.54831 0.61955 0.37098 0.0
C638 C 0.60012 0.61798 0.38112 0.0
C639 C 0.62885 0.62587 0.40001 0.0
C640 C 0.63494 0.65471 0.40134 0.0
C641 C 0.66199 0.66201 0.41936 0.0
C642 C 0.6832 0.64068 0.43592 0.0
C643 C 0.67743 0.612 0.43442 0.0
C644 C 0.65039 0.60459 0.41648 0.0
C645 C 0.55412 0.57542 0.23382 0.0
C646 C 0.56728 0.54798 0.24223 0.0
C647 C 0.5556 0.59122 0.26263 0.0
C648 C 0.57035 0.57988 0.30022 0.0
C649 C 0.58411 0.55283 0.30839 0.0
C650 C 0.58248 0.53697 0.27974 0.0
C651 C 0.57124 0.59592 0.33134 0.0
C652 C 0.5979 0.6028 0.35143 0.0
C653 C 0.54611 0.60437 0.34125 0.0
C654 C 0.5174 0.59655 0.32224 0.0
C655 C 0.51091 0.56765 0.32199 0.0
C656 C 0.4839 0.56046 0.30372 0.0
C657 C 0.4631 0.58197 0.28586 0.0
C658 C 0.46926 0.61072 0.28634 0.0
C659 C 0.49626 0.61803 0.30453 0.0
H660 H 0.44219 0.57637 0.27173 0.0
H661 H 0.70414 0.64637 0.44984 0.0
H662 H 0.89085 0.11876 0.0058 0.0
H663 H 0.9163 0.11451 0.95561 0.0
H664 H 0.8546 0.05471 0.91539 0.0
H665 H 0.82927 0.05851 0.9657 0.0
H666 H 0.90742 0.03761 0.91472 0.0
H667 H 0.84989 0.12439 0.87012 0.0
H668 H 0.83177 0.17188 0.87344 0.0
H669 H 0.91611 0.20486 0.88081 0.0
H670 H 0.9348 0.15742 0.87806 0.0
H671 H 0.93408 0.10151 0.71068 0.0
H672 H 0.90964 0.10233 0.76273 0.0
H673 H 0.98144 0.05705 0.84406 0.0
H674 H 0.00542 0.05497 0.79208 0.0
H675 H 0.92201 0.12606 0.82302 0.0
H676 H 0.95902 0.01453 0.91741 0.0
H677 H 0.97337 0.96679 0.90975 0.0
H678 H 0.92259 0.98235 0.79517 0.0
H679 H 0.90766 0.03002 0.8023 0.0
C680 C 0.88282 0.10453 0.98647 0.0
C681 C 0.85791 0.08912 0.98961 0.0
C682 C 0.89733 0.1022 0.95772 0.0
C683 C 0.88713 0.08456 0.93146 0.0
C684 C 0.86283 0.06846 0.93531 0.0
C685 C 0.84832 0.07075 0.96404 0.0
C686 C 0.90118 0.08359 0.89918 0.0
C687 C 0.9107 0.05694 0.89474 0.0
C688 C 0.90495 0.10875 0.87265 0.0
C689 C 0.89378 0.13729 0.87429 0.0
C690 C 0.86461 0.14171 0.87276 0.0
C691 C 0.85423 0.16863 0.87449 0.0
C692 C 0.87279 0.19135 0.87744 0.0
C693 C 0.90176 0.18722 0.87859 0.0
C694 C 0.91225 0.16034 0.87692 0.0
C695 C 0.94452 0.09129 0.73952 0.0
C696 C 0.97166 0.07784 0.74701 0.0
C697 C 0.93063 0.09207 0.76933 0.0
C698 C 0.94355 0.07948 0.80726 0.0
C699 C 0.97082 0.06651 0.81496 0.0
C700 C 0.98465 0.06558 0.78517 0.0
C701 C 0.92856 0.08011 0.83876 0.0
C702 C 0.91887 0.10671 0.84308 0.0
C703 C 0.92408 0.05483 0.86465 0.0
C704 C 0.93242 0.02593 0.86033 0.0
C705 C 0.95079 0.00769 0.89067 0.0
C706 C 0.95904 0.98065 0.8864 0.0
C707 C 0.9489 0.97154 0.85199 0.0
C708 C 0.93044 0.98944 0.82179 0.0
C709 C 0.92212 0.01648 0.82592 0.0
H710 H 0.95539 0.95065 0.8487 0.0
H711 H 0.86471 0.21218 0.87876 0.0
H712 H 0.38531 0.4045 0.36682 0.0
H713 H 0.40291 0.42745 0.30998 0.0
H714 H 0.43878 0.34611 0.30465 0.0
H715 H 0.42144 0.32309 0.36128 0.0
H716 H 0.47648 0.38823 0.29794 0.0
H717 H 0.37914 0.37382 0.24159 0.0
H718 H 0.32687 0.37748 0.23308 0.0
H719 H 0.32982 0.46948 0.20734 0.0
H720 H 0.38219 0.46638 0.21624 0.0
H721 H 0.51514 0.43446 0.11706 0.0
H722 H 0.49759 0.40964 0.17261 0.0
H723 H 0.4441 0.48386 0.16491 0.0
H724 H 0.45914 0.50703 0.10631 0.0
H725 H 0.41501 0.44286 0.17888 0.0
H726 H 0.51433 0.45194 0.26586 0.0
H727 H 0.56679 0.4444 0.28516 0.0
H728 H 0.55958 0.36195 0.2538 0.0
H729 H 0.50711 0.36835 0.23638 0.0
C730 C 0.39688 0.3915 0.35348 0.0
C731 C 0.402 0.36197 0.36865 0.0
C732 C 0.40679 0.40462 0.32088 0.0
C733 C 0.42198 0.38844 0.30291 0.0
C734 C 0.42709 0.35899 0.31802 0.0
C735 C 0.41711 0.34587 0.35041 0.0
C736 C 0.43357 0.40227 0.26922 0.0
C737 C 0.46302 0.4001 0.27177 0.0
C738 C 0.41611 0.41795 0.23528 0.0
C739 C 0.38463 0.41986 0.23 0.0
C740 C 0.36868 0.39484 0.23447 0.0
C741 C 0.33902 0.39681 0.2295 0.0
C742 C 0.32504 0.4237 0.21979 0.0
C743 C 0.34068 0.44867 0.21493 0.0
C744 C 0.37035 0.44681 0.21991 0.0
C745 C 0.49972 0.44539 0.12753 0.0
C746 C 0.48837 0.47253 0.10762 0.0
C747 C 0.49009 0.43143 0.15992 0.0
C748 C 0.47011 0.445 0.17436 0.0
C749 C 0.45948 0.47266 0.15472 0.0
C750 C 0.46811 0.48603 0.12129 0.0
C751 C 0.4584 0.42985 0.20776 0.0
C752 C 0.42871 0.43148 0.20513 0.0
C753 C 0.47566 0.41366 0.24178 0.0
C754 C 0.50704 0.41106 0.24854 0.0
C755 C 0.52404 0.43242 0.26259 0.0
C756 C 0.55369 0.42819 0.27365 0.0
C757 C 0.56651 0.40299 0.27001 0.0
C758 C 0.54967 0.38162 0.25616 0.0
C759 C 0.52 0.3854 0.24607 0.0
H760 H 0.58946 0.3999 0.2783 0.0
H761 H 0.30207 0.42518 0.21594 0.0
H762 H 0.19086 0.84913 0.91286 0.0
H763 H 0.15625 0.87118 0.85521 0.0
H764 H 0.16209 0.95182 0.89301 0.0
H765 H 0.19655 0.92964 0.95115 0.0
H766 H 0.10809 0.94266 0.86288 0.0
H767 H 0.19657 0.93999 0.82392 0.0
H768 H 0.24124 0.91872 0.81696 0.0
H769 H 0.19337 0.86092 0.75281 0.0
H770 H 0.14839 0.88156 0.75986 0.0
H771 H 0.0492 0.02121 0.66827 0.0
H772 H 0.08009 0.00415 0.73157 0.0
H773 H 0.06567 0.91656 0.71911 0.0
H774 H 0.03363 0.93325 0.65716 0.0
H775 H 0.12506 0.93345 0.73619 0.0
H776 H 0.03627 0.93669 0.77758 0.0
H777 H 0.99236 0.95958 0.78437 0.0
H778 H 0.04229 0.01928 0.84286 0.0
H779 H 0.08651 0.99713 0.83572 0.0
C780 C 0.1847 0.87154 0.90893 0.0
C781 C 0.1962 0.88761 0.93665 0.0
C782 C 0.16499 0.88415 0.87593 0.0
C783 C 0.15686 0.91328 0.86949 0.0
C784 C 0.16799 0.92929 0.89742 0.0
C785 C 0.18754 0.91657 0.93073 0.0
C786 C 0.13708 0.92693 0.83329 0.0
C787 C 0.11204 0.94106 0.83516 0.0
C788 C 0.14208 0.92465 0.79707 0.0
C789 C 0.1691 0.91215 0.79276 0.0
C790 C 0.19557 0.92258 0.8086 0.0
C791 C 0.22095 0.91067 0.80459 0.0
C792 C 0.22015 0.88843 0.78454 0.0
C793 C 0.19395 0.87812 0.76838 0.0
C794 C 0.16851 0.88993 0.77235 0.0
C795 C 0.05214 0.99834 0.67934 0.0
C796 C 0.03934 0.9786 0.65734 0.0
C797 C 0.06986 0.98865 0.71541 0.0
C798 C 0.0752 0.95914 0.72975 0.0
C799 C 0.06189 0.93943 0.70834 0.0
C800 C 0.0438 0.94905 0.67277 0.0
C801 C 0.09601 0.9486 0.76596 0.0
C802 C 0.12129 0.93518 0.76398 0.0
C803 C 0.09134 0.95188 0.80188 0.0
C804 C 0.06472 0.96549 0.80564 0.0
C805 C 0.0379 0.95496 0.79141 0.0
C806 C 0.01294 0.96775 0.79541 0.0
C807 C 0.01454 0.99093 0.8139 0.0
C808 C 0.04109 0.00137 0.82844 0.0
C809 C 0.0661 0.98872 0.82441 0.0
H810 H 0.99522 0.00077 0.81704 0.0
H811 H 0.23982 0.87924 0.78146 0.0
loop_
_geom_bond_atom_site_label_1
_geom_bond_atom_site_label_2
_geom_bond_distance
_geom_bond_site_symmetry_2
_ccdc_geom_bond_type
O0 Cd1 2.300 1_556 S
O0 C7 1.275 . S
Cd1 O0 2.300 1_554 S
Cd1 O9 2.381 . S
Cd1 O10 2.378 . S
O2 Cd3 2.385 . S
O2 C7 1.255 1_554 S
Cd3 O2 2.385 . S
Cd3 O4 2.317 . S
O4 Cd3 2.317 . S
O4 C5 1.232 . S
C5 O4 1.232 . S
C5 O6 1.218 . S
O6 C5 1.218 . S
C7 O0 1.275 . S
C7 O2 1.255 1_556 S
C8 O9 1.258 . S
C8 O10 1.256 . S
O9 Cd1 2.381 . S
O9 C8 1.258 . S
O10 Cd1 2.378 . S
O10 C8 1.256 . S
O11 Cd12 2.300 . S
O11 C18 1.275 . S
Cd12 O11 2.300 . S
Cd12 O20 2.381 . S
Cd12 O21 2.378 . S
O13 Cd14 2.385 . S
O13 C18 1.255 . S
Cd14 O13 2.385 . S
Cd14 O15 2.317 . S
O15 Cd14 2.317 . S
O15 C16 1.232 . S
C16 O15 1.232 . S
C16 O17 1.218 . S
O17 C16 1.218 . S
C18 O11 1.275 . S
C18 O13 1.255 . S
C19 O20 1.258 . S
C19 O21 1.256 . S
O20 Cd12 2.381 . S
O20 C19 1.258 . S
O21 Cd12 2.378 . S
O21 C19 1.256 . S
O22 Cd23 2.300 . S
O22 C29 1.275 . S
Cd23 O22 2.300 . S
Cd23 O31 2.381 . S
Cd23 O32 2.378 . S
O24 Cd25 2.385 . S
O24 C29 1.255 . S
Cd25 O24 2.385 . S
Cd25 O26 2.317 1_554 S
O26 Cd25 2.317 1_556 S
O26 C27 1.232 . S
C27 O26 1.232 . S
C27 O28 1.218 1_556 S
O28 C27 1.218 1_554 S
C29 O22 1.275 . S
C29 O24 1.255 . S
C30 O31 1.258 . S
C30 O32 1.256 . S
O31 Cd23 2.381 . S
O31 C30 1.258 . S
O32 Cd23 2.378 . S
O32 C30 1.256 . S
O33 Cd34 2.300 . S
O33 C40 1.275 . S
Cd34 O33 2.300 . S
Cd34 O42 2.381 . S
Cd34 O43 2.378 . S
O35 Cd36 2.385 . S
O35 C40 1.255 . S
Cd36 O35 2.385 . S
Cd36 O37 2.317 . S
O37 Cd36 2.317 . S
O37 C38 1.232 . S
C38 O37 1.232 . S
C38 O39 1.218 . S
O39 C38 1.218 . S
C40 O33 1.275 . S
C40 O35 1.255 . S
C41 O42 1.258 . S
C41 O43 1.256 . S
O42 Cd34 2.381 . S
O42 C41 1.258 . S
O43 Cd34 2.378 . S
O43 C41 1.256 . S
C44 C46 1.422 . S
C44 C48 1.415 . S
C44 N50 1.369 . S
C45 C46 1.421 . S
C45 C47 1.417 . S
C45 C57 1.422 . S
C46 C44 1.422 . S
C46 C45 1.421 . S
C46 N56 1.359 . S
C47 C45 1.417 . S
C47 C49 1.329 . S
C47 H66 0.930 . S
C48 C44 1.415 . S
C48 C49 1.437 . S
C48 C52 1.413 . S
C49 C47 1.329 . S
C49 C48 1.437 . S
C49 H71 0.929 . S
N50 C44 1.369 . S
N50 C51 1.338 1_655 S
N50 Gd55 2.622 . S
C51 N50 1.338 1_455 S
C51 C53 1.378 . S
C51 H63 0.929 . S
C52 C48 1.413 . S
C52 C53 1.348 1_655 S
C52 H68 0.931 . S
C53 C51 1.378 . S
C53 C52 1.348 1_455 S
C53 H69 0.930 . S
Gd54 N74 2.622 . S
Gd54 N81 2.570 . S
Gd54 O88 2.353 1_465 S
Gd54 O89 2.468 . S
Gd54 O90 2.427 . S
Gd54 O92 2.388 1_455 S
Gd54 O93 2.386 . S
Gd54 O97 2.307 1_565 S
Gd54 C107 2.805 . S
Gd55 N50 2.622 . S
Gd55 N56 2.570 . S
Gd55 O87 2.386 . S
Gd55 O91 2.307 1_545 S
Gd55 O94 2.353 1_655 S
Gd55 O95 2.468 . S
Gd55 O96 2.427 . S
Gd55 O98 2.388 1_655 S
Gd55 C119 2.805 . S
N56 C46 1.359 . S
N56 Gd55 2.570 . S
N56 C58 1.343 . S
C57 C45 1.422 . S
C57 C59 1.321 . S
C57 H65 0.931 . S
C58 N56 1.343 . S
C58 C59 1.390 . S
C58 H60 0.931 . S
C59 C57 1.321 . S
C59 C58 1.390 . S
C59 H61 0.930 . S
H60 C58 0.931 . S
H61 C59 0.930 . S
H62 C85 0.931 . S
H63 C51 0.929 . S
H64 C86 0.930 . S
H65 C57 0.931 . S
H66 C47 0.930 . S
H67 C76 0.929 1_655 S
H68 C52 0.931 . S
H69 C53 0.930 . S
H70 C108 0.930 . S
H71 C49 0.929 . S
H72 C77 0.931 . S
H73 C78 0.930 1_655 S
N74 Gd54 2.622 . S
N74 C75 1.369 . S
N74 C76 1.338 . S
C75 N74 1.369 . S
C75 C79 1.415 . S
C75 C82 1.422 . S
C76 H67 0.929 1_455 S
C76 N74 1.338 . S
C76 C78 1.378 . S
C77 H72 0.931 . S
C77 C78 1.348 . S
C77 C79 1.413 . S
C78 H73 0.930 1_455 S
C78 C76 1.378 . S
C78 C77 1.348 . S
C79 C75 1.415 . S
C79 C77 1.413 . S
C79 C109 1.437 . S
H80 C109 0.929 . S
N81 Gd54 2.570 . S
N81 C82 1.359 . S
N81 C85 1.343 . S
C82 C75 1.422 . S
C82 N81 1.359 . S
C82 C84 1.421 . S
C83 C84 1.422 . S
C83 C86 1.321 . S
C83 H110 0.931 . S
C84 C82 1.421 . S
C84 C83 1.422 . S
C84 C108 1.417 . S
C85 H62 0.931 . S
C85 N81 1.343 . S
C85 C86 1.390 . S
C86 H64 0.930 . S
C86 C83 1.321 . S
C86 C85 1.390 . S
O87 Gd55 2.386 . S
O87 C99 1.265 . S
O88 Gd54 2.353 1_645 S
O88 C99 1.242 . S
O89 Gd54 2.468 . S
O89 C107 1.263 . S
O90 Gd54 2.427 . S
O90 C107 1.252 . S
O91 Gd55 2.307 1_565 S
O91 C100 1.261 . S
O92 Gd54 2.388 1_655 S
O92 C100 1.252 . S
O93 Gd54 2.386 . S
O93 C111 1.265 . S
O94 Gd55 2.353 1_455 S
O94 C111 1.242 1_545 S
O95 Gd55 2.468 . S
O95 C119 1.263 . S
O96 Gd55 2.427 . S
O96 C119 1.252 . S
O97 Gd54 2.307 1_545 S
O97 C112 1.261 . S
O98 Gd55 2.388 1_455 S
O98 C112 1.252 . S
C99 O87 1.265 . S
C99 O88 1.242 . S
C100 O91 1.261 . S
C100 O92 1.252 . S
C101 C104 1.394 . S
C101 C106 1.370 . S
C101 C107 1.500 . S
C102 C105 1.383 . S
C102 C106 1.395 . S
C103 C104 1.396 . S
C103 C105 1.365 . S
C103 H120 0.929 . S
C104 C101 1.394 . S
C104 C103 1.396 . S
C104 H121 0.930 . S
C105 C102 1.383 . S
C105 C103 1.365 . S
C105 H122 0.931 . S
C106 C101 1.370 . S
C106 C102 1.395 . S
C106 H123 0.930 . S
C107 Gd54 2.805 . S
C107 O89 1.263 . S
C107 O90 1.252 . S
C107 C101 1.500 . S
C108 H70 0.930 . S
C108 C84 1.417 . S
C108 C109 1.329 . S
C109 C79 1.437 . S
C109 H80 0.929 . S
C109 C108 1.329 . S
H110 C83 0.931 . S
C111 O93 1.265 . S
C111 O94 1.242 1_565 S
C112 O97 1.261 . S
C112 O98 1.252 . S
C113 C116 1.394 . S
C113 C118 1.370 . S
C113 C119 1.500 . S
C114 C117 1.383 . S
C114 C118 1.395 . S
C115 C116 1.396 . S
C115 C117 1.365 . S
C115 H124 0.929 . S
C116 C113 1.394 . S
C116 C115 1.396 . S
C116 H125 0.930 . S
C117 C114 1.383 . S
C117 C115 1.365 . S
C117 H126 0.931 . S
C118 C113 1.370 . S
C118 C114 1.395 . S
C118 H127 0.930 . S
C119 Gd55 2.805 . S
C119 O95 1.263 . S
C119 O96 1.252 . S
C119 C113 1.500 . S
H120 C103 0.929 . S
H121 C104 0.930 . S
H122 C105 0.931 . S
H123 C106 0.930 . S
H124 C115 0.929 . S
H125 C116 0.930 . S
H126 C117 0.931 . S
H127 C118 0.930 . S
C128 C130 1.422 . S
C128 C132 1.415 . S
C128 N134 1.369 . S
C129 C130 1.421 . S
C129 C131 1.417 . S
C129 C141 1.422 . S
C130 C128 1.422 . S
C130 C129 1.421 . S
C130 N140 1.359 . S
C131 C129 1.417 . S
C131 C133 1.329 . S
C131 H150 0.930 . S
C132 C128 1.415 . S
C132 C133 1.437 . S
C132 C136 1.413 . S
C133 C131 1.329 . S
C133 C132 1.437 . S
C133 H155 0.929 . S
N134 C128 1.369 . S
N134 C135 1.338 . S
N134 Gd139 2.622 . S
C135 N134 1.338 . S
C135 C137 1.378 . S
C135 H147 0.929 . S
C136 C132 1.413 . S
C136 C137 1.348 . S
C136 H152 0.931 . S
C137 C135 1.378 . S
C137 C136 1.348 . S
C137 H153 0.930 . S
Gd138 N158 2.622 . S
Gd138 N165 2.570 1_556 S
Gd138 O172 2.353 . S
Gd138 O173 2.468 . S
Gd138 O174 2.427 . S
Gd138 O176 2.388 . S
Gd138 O177 2.386 1_556 S
Gd138 O181 2.307 1_556 S
Gd138 C191 2.805 . S
Gd139 N134 2.622 . S
Gd139 N140 2.570 . S
Gd139 O171 2.386 1_554 S
Gd139 O175 2.307 . S
Gd139 O178 2.353 . S
Gd139 O179 2.468 . S
Gd139 O180 2.427 . S
Gd139 O182 2.388 . S
Gd139 C203 2.805 . S
N140 C130 1.359 . S
N140 Gd139 2.570 . S
N140 C142 1.343 . S
C141 C129 1.422 . S
C141 C143 1.321 . S
C141 H149 0.936 . S
C142 N140 1.343 . S
C142 C143 1.390 . S
C142 H144 0.931 . S
C143 C141 1.321 . S
C143 C142 1.390 . S
C143 H145 0.930 . S
H144 C142 0.931 . S
H145 C143 0.930 . S
H146 C169 0.931 . S
H147 C135 0.929 . S
H148 C170 0.930 . S
H149 C141 0.936 . S
H150 C131 0.930 . S
H151 C160 0.929 . S
H152 C136 0.931 . S
H153 C137 0.930 . S
H154 C192 0.930 . S
H155 C133 0.929 . S
H156 C161 0.935 . S
H157 C162 0.930 . S
N158 Gd138 2.622 . S
N158 C159 1.369 1_556 S
N158 C160 1.338 . S
C159 N158 1.369 1_554 S
C159 C163 1.415 . S
C159 C166 1.422 . S
C160 H151 0.929 . S
C160 N158 1.338 . S
C160 C162 1.378 . S
C161 H156 0.935 . S
C161 C162 1.345 1_554 S
C161 C163 1.412 . S
C162 H157 0.930 . S
C162 C160 1.378 . S
C162 C161 1.345 1_556 S
C163 C159 1.415 . S
C163 C161 1.412 . S
C163 C193 1.437 . S
H164 C193 0.929 . S
N165 Gd138 2.570 1_554 S
N165 C166 1.359 . S
N165 C169 1.343 . S
C166 C159 1.422 . S
C166 N165 1.359 . S
C166 C168 1.421 . S
C167 C168 1.422 . S
C167 C170 1.321 . S
C167 H194 0.931 . S
C168 C166 1.421 . S
C168 C167 1.422 . S
C168 C192 1.417 . S
C169 H146 0.931 . S
C169 N165 1.343 . S
C169 C170 1.390 . S
C170 H148 0.930 . S
C170 C167 1.321 . S
C170 C169 1.390 . S
O171 Gd139 2.386 1_556 S
O171 C183 1.265 . S
O172 Gd138 2.353 . S
O172 C183 1.242 . S
O173 Gd138 2.468 . S
O173 C191 1.263 . S
O174 Gd138 2.427 . S
O174 C191 1.252 . S
O175 Gd139 2.307 . S
O175 C184 1.261 . S
O176 Gd138 2.388 . S
O176 C184 1.252 1_556 S
O177 Gd138 2.386 1_554 S
O177 C195 1.265 . S
O178 Gd139 2.353 . S
O178 C195 1.242 . S
O179 Gd139 2.468 . S
O179 C203 1.263 . S
O180 Gd139 2.427 . S
O180 C203 1.252 . S
O181 Gd138 2.307 1_554 S
O181 C196 1.261 . S
O182 Gd139 2.388 . S
O182 C196 1.252 . S
C183 O171 1.265 . S
C183 O172 1.242 . S
C184 O175 1.261 . S
C184 O176 1.252 1_554 S
C185 C188 1.394 . S
C185 C190 1.370 . S
C185 C191 1.500 . S
C186 C189 1.383 . S
C186 C190 1.395 . S
C187 C188 1.396 . S
C187 C189 1.365 . S
C187 H204 0.929 . S
C188 C185 1.394 . S
C188 C187 1.396 . S
C188 H205 0.930 . S
C189 C186 1.383 . S
C189 C187 1.365 . S
C189 H206 0.931 . S
C190 C185 1.370 . S
C190 C186 1.395 . S
C190 H207 0.930 . S
C191 Gd138 2.805 . S
C191 O173 1.263 . S
C191 O174 1.252 . S
C191 C185 1.500 . S
C192 H154 0.930 . S
C192 C168 1.417 . S
C192 C193 1.329 . S
C193 C163 1.437 . S
C193 H164 0.929 . S
C193 C192 1.329 . S
H194 C167 0.931 . S
C195 O177 1.265 . S
C195 O178 1.242 . S
C196 O181 1.261 . S
C196 O182 1.252 . S
C197 C200 1.394 . S
C197 C202 1.370 . S
C197 C203 1.500 . S
C198 C201 1.383 . S
C198 C202 1.395 . S
C199 C200 1.396 . S
C199 C201 1.365 . S
C199 H208 0.929 . S
C200 C197 1.394 . S
C200 C199 1.396 . S
C200 H209 0.930 . S
C201 C198 1.383 . S
C201 C199 1.365 . S
C201 H210 0.931 . S
C202 C197 1.370 . S
C202 C198 1.395 . S
C202 H211 0.930 . S
C203 Gd139 2.805 . S
C203 O179 1.263 . S
C203 O180 1.252 . S
C203 C197 1.500 . S
H204 C187 0.929 . S
H205 C188 0.930 . S
H206 C189 0.931 . S
H207 C190 0.930 . S
H208 C199 0.929 . S
H209 C200 0.930 . S
H210 C201 0.931 . S
H211 C202 0.930 . S
H212 C230 0.951 . S
H213 C232 0.951 . S
H214 C234 0.950 . S
H215 C235 0.950 . S
H216 C237 0.950 . S
H217 C240 0.950 . S
H218 C241 0.950 . S
H219 C243 0.950 . S
H220 C244 0.950 . S
H221 C245 0.951 . S
H222 C247 0.951 . S
H223 C249 0.950 . S
H224 C250 0.950 . S
H225 C252 0.950 . S
H226 C255 0.950 . S
H227 C256 0.950 . S
H228 C258 0.950 . S
H229 C259 0.950 . S
C230 H212 0.951 . S
C230 C231 1.366 . S
C230 C232 1.388 . S
C231 C230 1.366 . S
C231 C235 1.385 . S
C232 H213 0.951 . S
C232 C230 1.388 . S
C232 C233 1.366 . S
C233 C232 1.366 . S
C233 C234 1.414 . S
C233 C236 1.499 . S
C234 H214 0.950 . S
C234 C233 1.414 . S
C234 C235 1.374 . S
C235 H215 0.950 . S
C235 C231 1.385 . S
C235 C234 1.374 . S
C236 C233 1.499 . S
C236 C237 1.373 . S
C236 C238 1.389 . S
C237 H216 0.950 . S
C237 C236 1.373 . S
C237 C253 1.377 . S
C238 C236 1.389 . S
C238 C239 1.524 . S
C238 C252 1.377 . S
C239 C238 1.524 . S
C239 C240 1.397 . S
C239 C244 1.363 . S
C240 H217 0.950 . S
C240 C239 1.397 . S
C240 C241 1.334 . S
C241 H218 0.950 . S
C241 C240 1.334 . S
C241 C242 1.287 . S
C242 C241 1.287 . S
C242 C243 1.524 . S
C242 H261 0.913 . S
C243 H219 0.950 . S
C243 C242 1.524 . S
C243 C244 1.415 . S
C244 H220 0.950 . S
C244 C239 1.363 . S
C244 C243 1.415 . S
C245 H221 0.951 . S
C245 C246 1.366 . S
C245 C247 1.388 . S
C246 C245 1.366 . S
C246 C250 1.385 . S
C247 H222 0.951 . S
C247 C245 1.388 . S
C247 C248 1.366 . S
C248 C247 1.366 . S
C248 C249 1.414 . S
C248 C251 1.499 . S
C249 H223 0.950 . S
C249 C248 1.414 . S
C249 C250 1.374 . S
C250 H224 0.950 . S
C250 C246 1.385 . S
C250 C249 1.374 . S
C251 C248 1.499 . S
C251 C252 1.373 . S
C251 C253 1.389 . S
C252 H225 0.950 . S
C252 C238 1.377 . S
C252 C251 1.373 . S
C253 C237 1.377 . S
C253 C251 1.389 . S
C253 C254 1.524 . S
C254 C253 1.524 . S
C254 C255 1.397 . S
C254 C259 1.363 . S
C255 H226 0.950 . S
C255 C254 1.397 . S
C255 C256 1.334 . S
C256 H227 0.950 . S
C256 C255 1.334 . S
C256 C257 1.287 . S
C257 C256 1.287 . S
C257 C258 1.524 . S
C257 H260 0.979 1_545 S
C258 H228 0.950 . S
C258 C257 1.524 . S
C258 C259 1.415 . S
C259 H229 0.950 . S
C259 C254 1.363 . S
C259 C258 1.415 . S
H260 C257 0.979 1_565 S
H261 C242 0.913 . S
H262 C280 0.951 . S
H263 C282 0.951 . S
H264 C284 0.950 . S
H265 C285 0.950 . S
H266 C287 0.950 . S
H267 C290 0.950 . S
H268 C291 0.950 . S
H269 C293 0.950 . S
H270 C294 0.950 . S
H271 C295 0.951 1_556 S
H272 C297 0.951 1_556 S
H273 C299 0.950 . S
H274 C300 0.950 . S
H275 C302 0.950 . S
H276 C305 0.950 . S
H277 C306 0.950 . S
H278 C308 0.950 . S
H279 C309 0.950 . S
C280 H262 0.951 . S
C280 C281 1.366 . S
C280 C282 1.388 . S
C281 C280 1.366 . S
C281 C285 1.385 . S
C282 H263 0.951 . S
C282 C280 1.388 . S
C282 C283 1.366 . S
C283 C282 1.366 . S
C283 C284 1.414 . S
C283 C286 1.499 . S
C284 H264 0.950 . S
C284 C283 1.414 . S
C284 C285 1.374 . S
C285 H265 0.950 . S
C285 C281 1.385 . S
C285 C284 1.374 . S
C286 C283 1.499 . S
C286 C287 1.373 . S
C286 C288 1.389 . S
C287 H266 0.950 . S
C287 C286 1.373 . S
C287 C303 1.377 . S
C288 C286 1.389 . S
C288 C289 1.524 . S
C288 C302 1.377 . S
C289 C288 1.524 . S
C289 C290 1.397 1_554 S
C289 C294 1.363 . S
C290 H267 0.950 . S
C290 C289 1.397 1_556 S
C290 C291 1.334 . S
C291 H268 0.950 . S
C291 C290 1.334 . S
C291 C292 1.287 . S
C292 C291 1.287 . S
C292 C293 1.524 1_556 S
C292 H311 0.913 . S
C293 H269 0.950 . S
C293 C292 1.524 1_554 S
C293 C294 1.415 . S
C294 H270 0.950 . S
C294 C289 1.363 . S
C294 C293 1.415 . S
C295 H271 0.951 1_554 S
C295 C296 1.366 . S
C295 C297 1.388 . S
C296 C295 1.366 . S
C296 C300 1.385 . S
C297 H272 0.951 1_554 S
C297 C295 1.388 . S
C297 C298 1.366 . S
C298 C297 1.366 . S
C298 C299 1.414 . S
C298 C301 1.499 . S
C299 H273 0.950 . S
C299 C298 1.414 . S
C299 C300 1.374 . S
C300 H274 0.950 . S
C300 C296 1.385 . S
C300 C299 1.374 . S
C301 C298 1.499 . S
C301 C302 1.373 . S
C301 C303 1.389 . S
C302 H275 0.950 . S
C302 C288 1.377 . S
C302 C301 1.373 . S
C303 C287 1.377 . S
C303 C301 1.389 . S
C303 C304 1.524 . S
C304 C303 1.524 . S
C304 C305 1.397 . S
C304 C309 1.363 . S
C305 H276 0.950 . S
C305 C304 1.397 . S
C305 C306 1.334 . S
C306 H277 0.950 . S
C306 C305 1.334 . S
C306 C307 1.287 . S
C307 C306 1.287 . S
C307 C308 1.524 . S
C307 H310 0.999 . S
C308 H278 0.950 . S
C308 C307 1.524 . S
C308 C309 1.415 . S
C309 H279 0.950 . S
C309 C304 1.363 . S
C309 C308 1.415 . S
H310 C307 0.999 . S
H311 C292 0.913 . S
H312 C330 0.951 . S
H313 C332 0.951 . S
H314 C334 0.950 . S
H315 C335 0.950 . S
H316 C337 0.950 . S
H317 C340 0.950 . S
H318 C341 0.950 . S
H319 C343 0.950 . S
H320 C344 0.950 . S
H321 C345 0.951 . S
H322 C347 0.951 . S
H323 C349 0.950 . S
H324 C350 0.950 . S
H325 C352 0.950 . S
H326 C355 0.950 . S
H327 C356 0.950 . S
H328 C358 0.950 . S
H329 C359 0.950 . S
C330 H312 0.951 . S
C330 C331 1.366 . S
C330 C332 1.388 . S
C331 C330 1.366 . S
C331 C335 1.385 . S
C332 H313 0.951 . S
C332 C330 1.388 . S
C332 C333 1.366 . S
C333 C332 1.366 . S
C333 C334 1.414 . S
C333 C336 1.499 . S
C334 H314 0.950 . S
C334 C333 1.414 . S
C334 C335 1.374 . S
C335 H315 0.950 . S
C335 C331 1.385 . S
C335 C334 1.374 . S
C336 C333 1.499 . S
C336 C337 1.373 . S
C336 C338 1.389 . S
C337 H316 0.950 . S
C337 C336 1.373 . S
C337 C353 1.377 . S
C338 C336 1.389 . S
C338 C339 1.524 . S
C338 C352 1.377 . S
C339 C338 1.524 . S
C339 C340 1.397 . S
C339 C344 1.363 . S
C340 H317 0.950 . S
C340 C339 1.397 . S
C340 C341 1.334 . S
C341 H318 0.950 . S
C341 C340 1.334 . S
C341 C342 1.287 . S
C342 C341 1.287 . S
C342 C343 1.524 . S
C342 H361 0.913 . S
C343 H319 0.950 . S
C343 C342 1.524 . S
C343 C344 1.415 . S
C344 H320 0.950 . S
C344 C339 1.363 . S
C344 C343 1.415 . S
C345 H321 0.951 . S
C345 C346 1.366 . S
C345 C347 1.388 . S
C346 C345 1.366 . S
C346 C350 1.385 . S
C347 H322 0.951 . S
C347 C345 1.388 . S
C347 C348 1.366 . S
C348 C347 1.366 . S
C348 C349 1.414 . S
C348 C351 1.499 . S
C349 H323 0.950 . S
C349 C348 1.414 . S
C349 C350 1.374 . S
C350 H324 0.950 . S
C350 C346 1.385 . S
C350 C349 1.374 . S
C351 C348 1.499 . S
C351 C352 1.373 . S
C351 C353 1.389 . S
C352 H325 0.950 . S
C352 C338 1.377 . S
C352 C351 1.373 . S
C353 C337 1.377 . S
C353 C351 1.389 . S
C353 C354 1.524 . S
C354 C353 1.524 . S
C354 C355 1.397 . S
C354 C359 1.363 . S
C355 H326 0.950 . S
C355 C354 1.397 . S
C355 C356 1.334 . S
C356 H327 0.950 . S
C356 C355 1.334 . S
C356 C357 1.287 . S
C357 C356 1.287 . S
C357 C358 1.524 . S
C357 H360 0.999 . S
C358 H328 0.950 . S
C358 C357 1.524 . S
C358 C359 1.415 . S
C359 H329 0.950 . S
C359 C354 1.363 . S
C359 C358 1.415 . S
H360 C357 0.999 . S
H361 C342 0.913 . S
H362 C380 0.951 . S
H363 C382 0.951 . S
H364 C384 0.950 . S
H365 C385 0.950 . S
H366 C387 0.950 . S
H367 C390 0.950 . S
H368 C391 0.950 . S
H369 C393 0.950 . S
H370 C394 0.950 . S
H371 C395 0.951 1_556 S
H372 C397 0.951 1_556 S
H373 C399 0.950 . S
H374 C400 0.950 . S
H375 C402 0.950 . S
H376 C405 0.950 . S
H377 C406 0.950 . S
H378 C408 0.950 . S
H379 C409 0.950 . S
C380 H362 0.951 . S
C380 C381 1.366 . S
C380 C382 1.388 . S
C381 C380 1.366 . S
C381 C385 1.385 . S
C382 H363 0.951 . S
C382 C380 1.388 . S
C382 C383 1.366 . S
C383 C382 1.366 . S
C383 C384 1.414 . S
C383 C386 1.499 . S
C384 H364 0.950 . S
C384 C383 1.414 . S
C384 C385 1.374 . S
C385 H365 0.950 . S
C385 C381 1.385 . S
C385 C384 1.374 . S
C386 C383 1.499 . S
C386 C387 1.373 1_554 S
C386 C388 1.389 . S
C387 H366 0.950 . S
C387 C386 1.373 1_556 S
C387 C403 1.377 . S
C388 C386 1.389 . S
C388 C389 1.524 . S
C388 C402 1.377 . S
C389 C388 1.524 . S
C389 C390 1.397 . S
C389 C394 1.363 . S
C390 H367 0.950 . S
C390 C389 1.397 . S
C390 C391 1.334 . S
C391 H368 0.950 . S
C391 C390 1.334 . S
C391 C392 1.287 . S
C392 C391 1.287 . S
C392 C393 1.524 . S
C392 H411 0.913 . S
C393 H369 0.950 . S
C393 C392 1.524 . S
C393 C394 1.415 . S
C394 H370 0.950 . S
C394 C389 1.363 . S
C394 C393 1.415 . S
C395 H371 0.951 1_554 S
C395 C396 1.366 . S
C395 C397 1.388 . S
C396 C395 1.366 . S
C396 C400 1.385 . S
C397 H372 0.951 1_554 S
C397 C395 1.388 . S
C397 C398 1.366 . S
C398 C397 1.366 . S
C398 C399 1.414 . S
C398 C401 1.499 . S
C399 H373 0.950 . S
C399 C398 1.414 . S
C399 C400 1.374 . S
C400 H374 0.950 . S
C400 C396 1.385 . S
C400 C399 1.374 . S
C401 C398 1.499 . S
C401 C402 1.373 . S
C401 C403 1.389 1_554 S
C402 H375 0.950 . S
C402 C388 1.377 . S
C402 C401 1.373 . S
C403 C387 1.377 . S
C403 C401 1.389 1_556 S
C403 C404 1.524 . S
C404 C403 1.524 . S
C404 C405 1.397 . S
C404 C409 1.363 . S
C405 H376 0.950 . S
C405 C404 1.397 . S
C405 C406 1.334 . S
C406 H377 0.950 . S
C406 C405 1.334 . S
C406 C407 1.287 . S
C407 C406 1.287 . S
C407 C408 1.524 . S
C407 H410 0.999 . S
C408 H378 0.950 . S
C408 C407 1.524 . S
C408 C409 1.415 . S
C409 H379 0.950 . S
C409 C404 1.363 . S
C409 C408 1.415 . S
H410 C407 0.999 . S
H411 C392 0.913 . S
H412 C430 0.951 . S
H413 C432 0.951 . S
H414 C434 0.950 . S
H415 C435 0.950 . S
H416 C437 0.950 . S
H417 C440 0.950 . S
H418 C441 0.950 . S
H419 C443 0.950 . S
H420 C444 0.950 . S
H421 C445 0.951 . S
H422 C447 0.951 . S
H423 C449 0.950 . S
H424 C450 0.950 . S
H425 C452 0.950 . S
H426 C455 0.950 . S
H427 C456 0.950 . S
H428 C458 0.950 . S
H429 C459 0.950 . S
C430 H412 0.951 . S
C430 C431 1.366 . S
C430 C432 1.388 . S
C431 C430 1.366 . S
C431 C435 1.385 . S
C432 H413 0.951 . S
C432 C430 1.388 . S
C432 C433 1.366 . S
C433 C432 1.366 . S
C433 C434 1.414 . S
C433 C436 1.499 . S
C434 H414 0.950 . S
C434 C433 1.414 . S
C434 C435 1.374 . S
C435 H415 0.950 . S
C435 C431 1.385 . S
C435 C434 1.374 . S
C436 C433 1.499 . S
C436 C437 1.373 . S
C436 C438 1.389 . S
C437 H416 0.950 . S
C437 C436 1.373 . S
C437 C453 1.377 . S
C438 C436 1.389 . S
C438 C439 1.524 . S
C438 C452 1.377 . S
C439 C438 1.524 . S
C439 C440 1.397 . S
C439 C444 1.363 . S
C440 H417 0.950 . S
C440 C439 1.397 . S
C440 C441 1.334 . S
C441 H418 0.950 . S
C441 C440 1.334 . S
C441 C442 1.287 . S
C442 C441 1.287 . S
C442 C443 1.524 . S
C442 H461 0.913 . S
C443 H419 0.950 . S
C443 C442 1.524 . S
C443 C444 1.415 . S
C444 H420 0.950 . S
C444 C439 1.363 . S
C444 C443 1.415 . S
C445 H421 0.951 . S
C445 C446 1.366 . S
C445 C447 1.388 . S
C446 C445 1.366 . S
C446 C450 1.385 . S
C447 H422 0.951 . S
C447 C445 1.388 . S
C447 C448 1.366 . S
C448 C447 1.366 . S
C448 C449 1.414 . S
C448 C451 1.499 . S
C449 H423 0.950 . S
C449 C448 1.414 . S
C449 C450 1.374 . S
C450 H424 0.950 . S
C450 C446 1.385 . S
C450 C449 1.374 . S
C451 C448 1.499 . S
C451 C452 1.373 . S
C451 C453 1.389 . S
C452 H425 0.950 . S
C452 C438 1.377 . S
C452 C451 1.373 . S
C453 C437 1.377 . S
C453 C451 1.389 . S
C453 C454 1.524 . S
C454 C453 1.524 . S
C454 C455 1.397 . S
C454 C459 1.363 . S
C455 H426 0.950 . S
C455 C454 1.397 . S
C455 C456 1.334 . S
C456 H427 0.950 . S
C456 C455 1.334 . S
C456 C457 1.287 . S
C457 C456 1.287 . S
C457 C458 1.524 . S
C457 H460 0.999 . S
C458 H428 0.950 . S
C458 C457 1.524 . S
C458 C459 1.415 . S
C459 H429 0.950 . S
C459 C454 1.363 . S
C459 C458 1.415 . S
H460 C457 0.999 . S
H461 C442 0.913 . S
H462 C480 0.951 . S
H463 C482 0.951 . S
H464 C484 0.950 . S
H465 C485 0.950 . S
H466 C487 0.950 . S
H467 C490 0.950 . S
H468 C491 0.950 . S
H469 C493 0.950 . S
H470 C494 0.950 . S
H471 C495 0.951 . S
H472 C497 0.951 . S
H473 C499 0.950 . S
H474 C500 0.950 . S
H475 C502 0.950 . S
H476 C505 0.950 . S
H477 C506 0.950 . S
H478 C508 0.950 . S
H479 C509 0.950 . S
C480 H462 0.951 . S
C480 C481 1.366 . S
C480 C482 1.388 . S
C481 C480 1.366 . S
C481 C485 1.385 . S
C482 H463 0.951 . S
C482 C480 1.388 . S
C482 C483 1.366 . S
C483 C482 1.366 . S
C483 C484 1.414 . S
C483 C486 1.499 . S
C484 H464 0.950 . S
C484 C483 1.414 . S
C484 C485 1.374 . S
C485 H465 0.950 . S
C485 C481 1.385 . S
C485 C484 1.374 . S
C486 C483 1.499 . S
C486 C487 1.373 . S
C486 C488 1.389 . S
C487 H466 0.950 . S
C487 C486 1.373 . S
C487 C503 1.377 . S
C488 C486 1.389 . S
C488 C489 1.524 . S
C488 C502 1.377 . S
C489 C488 1.524 . S
C489 C490 1.397 . S
C489 C494 1.363 . S
C490 H467 0.950 . S
C490 C489 1.397 . S
C490 C491 1.334 . S
C491 H468 0.950 . S
C491 C490 1.334 . S
C491 C492 1.287 . S
C492 C491 1.287 . S
C492 C493 1.524 . S
C492 H511 0.913 . S
C493 H469 0.950 . S
C493 C492 1.524 . S
C493 C494 1.415 . S
C494 H470 0.950 . S
C494 C489 1.363 . S
C494 C493 1.415 . S
C495 H471 0.951 . S
C495 C496 1.366 . S
C495 C497 1.388 . S
C496 C495 1.366 . S
C496 C500 1.385 . S
C497 H472 0.951 . S
C497 C495 1.388 . S
C497 C498 1.366 . S
C498 C497 1.366 . S
C498 C499 1.414 . S
C498 C501 1.499 . S
C499 H473 0.950 . S
C499 C498 1.414 . S
C499 C500 1.374 . S
C500 H474 0.950 . S
C500 C496 1.385 . S
C500 C499 1.374 . S
C501 C498 1.499 . S
C501 C502 1.373 . S
C501 C503 1.389 . S
C502 H475 0.950 . S
C502 C488 1.377 . S
C502 C501 1.373 . S
C503 C487 1.377 . S
C503 C501 1.389 . S
C503 C504 1.524 . S
C504 C503 1.524 . S
C504 C505 1.397 . S
C504 C509 1.363 . S
C505 H476 0.950 . S
C505 C504 1.397 . S
C505 C506 1.334 . S
C506 H477 0.950 . S
C506 C505 1.334 . S
C506 C507 1.287 . S
C507 C506 1.287 . S
C507 C508 1.524 . S
C507 H510 0.999 . S
C508 H478 0.950 . S
C508 C507 1.524 . S
C508 C509 1.415 . S
C509 H479 0.950 . S
C509 C504 1.363 . S
C509 C508 1.415 . S
H510 C507 0.999 . S
H511 C492 0.913 . S
H512 C530 0.951 . S
H513 C532 0.951 . S
H514 C534 0.950 . S
H515 C535 0.950 . S
H516 C537 0.950 . S
H517 C540 0.950 . S
H518 C541 0.950 . S
H519 C543 0.950 . S
H520 C544 0.950 . S
H521 C545 0.951 . S
H522 C547 0.951 . S
H523 C549 0.950 . S
H524 C550 0.950 1_565 S
H525 C552 0.950 . S
H526 C555 0.950 . S
H527 C556 0.950 1_455 S
H528 C558 0.950 . S
H529 C559 0.950 . S
C530 H512 0.951 . S
C530 C531 1.366 . S
C530 C532 1.388 . S
C531 C530 1.366 . S
C531 C535 1.385 . S
C532 H513 0.951 . S
C532 C530 1.388 . S
C532 C533 1.366 . S
C533 C532 1.366 . S
C533 C534 1.414 . S
C533 C536 1.499 . S
C534 H514 0.950 . S
C534 C533 1.414 . S
C534 C535 1.374 . S
C535 H515 0.950 . S
C535 C531 1.385 . S
C535 C534 1.374 . S
C536 C533 1.499 . S
C536 C537 1.373 . S
C536 C538 1.389 . S
C537 H516 0.950 . S
C537 C536 1.373 . S
C537 C553 1.377 . S
C538 C536 1.389 . S
C538 C539 1.524 . S
C538 C552 1.377 . S
C539 C538 1.524 . S
C539 C540 1.397 . S
C539 C544 1.363 . S
C540 H517 0.950 . S
C540 C539 1.397 . S
C540 C541 1.334 . S
C541 H518 0.950 . S
C541 C540 1.334 . S
C541 C542 1.287 . S
C542 C541 1.287 . S
C542 C543 1.524 . S
C542 H561 0.913 . S
C543 H519 0.950 . S
C543 C542 1.524 . S
C543 C544 1.415 . S
C544 H520 0.950 . S
C544 C539 1.363 . S
C544 C543 1.415 . S
C545 H521 0.951 . S
C545 C546 1.366 . S
C545 C547 1.388 . S
C546 C545 1.366 . S
C546 C550 1.385 . S
C547 H522 0.951 . S
C547 C545 1.388 . S
C547 C548 1.366 . S
C548 C547 1.366 . S
C548 C549 1.414 . S
C548 C551 1.499 . S
C549 H523 0.950 . S
C549 C548 1.414 . S
C549 C550 1.374 . S
C550 H524 0.950 1_545 S
C550 C546 1.385 . S
C550 C549 1.374 . S
C551 C548 1.499 . S
C551 C552 1.373 . S
C551 C553 1.389 . S
C552 H525 0.950 . S
C552 C538 1.377 . S
C552 C551 1.373 . S
C553 C537 1.377 . S
C553 C551 1.389 . S
C553 C554 1.524 . S
C554 C553 1.524 . S
C554 C555 1.397 . S
C554 C559 1.363 . S
C555 H526 0.950 . S
C555 C554 1.397 . S
C555 C556 1.334 . S
C556 H527 0.950 1_655 S
C556 C555 1.334 . S
C556 C557 1.294 . S
C557 C556 1.294 . S
C557 C558 1.539 . S
C557 H560 0.975 1_655 S
C558 H528 0.950 . S
C558 C557 1.539 . S
C558 C559 1.415 . S
C559 H529 0.950 . S
C559 C554 1.363 . S
C559 C558 1.415 . S
H560 C557 0.975 1_455 S
H561 C542 0.913 . S
H562 C580 0.951 . S
H563 C582 0.951 . S
H564 C584 0.950 . S
H565 C585 0.950 . S
H566 C587 0.950 . S
H567 C590 0.950 . S
H568 C591 0.950 . S
H569 C593 0.950 . S
H570 C594 0.950 . S
H571 C595 0.951 . S
H572 C597 0.951 . S
H573 C599 0.950 . S
H574 C600 0.950 . S
H575 C602 0.950 . S
H576 C605 0.950 . S
H577 C606 0.950 . S
H578 C608 0.950 . S
H579 C609 0.950 . S
C580 H562 0.951 . S
C580 C581 1.366 . S
C580 C582 1.388 . S
C581 C580 1.366 . S
C581 C585 1.385 . S
C582 H563 0.951 . S
C582 C580 1.388 . S
C582 C583 1.366 . S
C583 C582 1.366 . S
C583 C584 1.414 . S
C583 C586 1.499 . S
C584 H564 0.950 . S
C584 C583 1.414 . S
C584 C585 1.374 . S
C585 H565 0.950 . S
C585 C581 1.385 . S
C585 C584 1.374 . S
C586 C583 1.499 . S
C586 C587 1.373 . S
C586 C588 1.389 . S
C587 H566 0.950 . S
C587 C586 1.373 . S
C587 C603 1.377 . S
C588 C586 1.389 . S
C588 C589 1.524 . S
C588 C602 1.377 . S
C589 C588 1.524 . S
C589 C590 1.397 . S
C589 C594 1.363 . S
C590 H567 0.950 . S
C590 C589 1.397 . S
C590 C591 1.334 . S
C591 H568 0.950 . S
C591 C590 1.334 . S
C591 C592 1.287 . S
C592 C591 1.287 . S
C592 C593 1.524 . S
C592 H611 0.913 . S
C593 H569 0.950 . S
C593 C592 1.524 . S
C593 C594 1.415 . S
C594 H570 0.950 . S
C594 C589 1.363 . S
C594 C593 1.415 . S
C595 H571 0.951 . S
C595 C596 1.366 . S
C595 C597 1.388 . S
C596 C595 1.366 . S
C596 C600 1.385 . S
C597 H572 0.951 . S
C597 C595 1.388 . S
C597 C598 1.366 . S
C598 C597 1.366 . S
C598 C599 1.414 . S
C598 C601 1.499 . S
C599 H573 0.950 . S
C599 C598 1.414 . S
C599 C600 1.374 . S
C600 H574 0.950 . S
C600 C596 1.385 . S
C600 C599 1.374 . S
C601 C598 1.499 . S
C601 C602 1.373 . S
C601 C603 1.389 . S
C602 H575 0.950 . S
C602 C588 1.377 . S
C602 C601 1.373 . S
C603 C587 1.377 . S
C603 C601 1.389 . S
C603 C604 1.524 . S
C604 C603 1.524 . S
C604 C605 1.397 . S
C604 C609 1.363 . S
C605 H576 0.950 . S
C605 C604 1.397 . S
C605 C606 1.334 . S
C606 H577 0.950 . S
C606 C605 1.334 . S
C606 C607 1.287 . S
C607 C606 1.287 . S
C607 C608 1.524 . S
C607 H610 0.999 . S
C608 H578 0.950 . S
C608 C607 1.524 . S
C608 C609 1.415 . S
C609 H579 0.950 . S
C609 C604 1.363 . S
C609 C608 1.415 . S
H610 C607 0.999 . S
H611 C592 0.913 . S
H612 C630 0.951 . S
H613 C632 0.951 . S
H614 C634 0.950 . S
H615 C635 0.950 . S
H616 C637 0.950 . S
H617 C640 0.950 . S
H618 C641 0.950 . S
H619 C643 0.950 . S
H620 C644 0.950 . S
H621 C645 0.951 . S
H622 C647 0.951 . S
H623 C649 0.950 . S
H624 C650 0.950 . S
H625 C652 0.950 . S
H626 C655 0.950 . S
H627 C656 0.950 . S
H628 C658 0.950 . S
H629 C659 0.950 . S
C630 H612 0.951 . S
C630 C631 1.366 . S
C630 C632 1.388 . S
C631 C630 1.366 . S
C631 C635 1.385 . S
C632 H613 0.951 . S
C632 C630 1.388 . S
C632 C633 1.366 . S
C633 C632 1.366 . S
C633 C634 1.414 . S
C633 C636 1.499 . S
C634 H614 0.950 . S
C634 C633 1.414 . S
C634 C635 1.374 . S
C635 H615 0.950 . S
C635 C631 1.385 . S
C635 C634 1.374 . S
C636 C633 1.499 . S
C636 C637 1.373 . S
C636 C638 1.389 . S
C637 H616 0.950 . S
C637 C636 1.373 . S
C637 C653 1.377 . S
C638 C636 1.389 . S
C638 C639 1.524 . S
C638 C652 1.377 . S
C639 C638 1.524 . S
C639 C640 1.397 . S
C639 C644 1.363 . S
C640 H617 0.950 . S
C640 C639 1.397 . S
C640 C641 1.334 . S
C641 H618 0.950 . S
C641 C640 1.334 . S
C641 C642 1.287 . S
C642 C641 1.287 . S
C642 C643 1.524 . S
C642 H661 0.913 . S
C643 H619 0.950 . S
C643 C642 1.524 . S
C643 C644 1.415 . S
C644 H620 0.950 . S
C644 C639 1.363 . S
C644 C643 1.415 . S
C645 H621 0.951 . S
C645 C646 1.366 . S
C645 C647 1.388 . S
C646 C645 1.366 . S
C646 C650 1.385 . S
C647 H622 0.951 . S
C647 C645 1.388 . S
C647 C648 1.366 . S
C648 C647 1.366 . S
C648 C649 1.414 . S
C648 C651 1.499 . S
C649 H623 0.950 . S
C649 C648 1.414 . S
C649 C650 1.374 . S
C650 H624 0.950 . S
C650 C646 1.385 . S
C650 C649 1.374 . S
C651 C648 1.499 . S
C651 C652 1.373 . S
C651 C653 1.389 . S
C652 H625 0.950 . S
C652 C638 1.377 . S
C652 C651 1.373 . S
C653 C637 1.377 . S
C653 C651 1.389 . S
C653 C654 1.524 . S
C654 C653 1.524 . S
C654 C655 1.397 . S
C654 C659 1.363 . S
C655 H626 0.950 . S
C655 C654 1.397 . S
C655 C656 1.334 . S
C656 H627 0.950 . S
C656 C655 1.334 . S
C656 C657 1.287 . S
C657 C656 1.287 . S
C657 C658 1.524 . S
C657 H660 0.999 . S
C658 H628 0.950 . S
C658 C657 1.524 . S
C658 C659 1.415 . S
C659 H629 0.950 . S
C659 C654 1.363 . S
C659 C658 1.415 . S
H660 C657 0.999 . S
H661 C642 0.913 . S
H662 C680 0.951 . S
H663 C682 0.951 . S
H664 C684 0.950 . S
H665 C685 0.950 . S
H666 C687 0.950 . S
H667 C690 0.950 . S
H668 C691 0.950 . S
H669 C693 0.950 . S
H670 C694 0.950 . S
H671 C695 0.951 . S
H672 C697 0.951 . S
H673 C699 0.950 . S
H674 C700 0.950 . S
H675 C702 0.950 . S
H676 C705 0.950 . S
H677 C706 0.950 . S
H678 C708 0.950 . S
H679 C709 0.938 1_545 S
C680 H662 0.951 . S
C680 C681 1.366 . S
C680 C682 1.388 . S
C681 C680 1.366 . S
C681 C685 1.385 . S
C682 H663 0.951 . S
C682 C680 1.388 . S
C682 C683 1.366 . S
C683 C682 1.366 . S
C683 C684 1.414 . S
C683 C686 1.499 . S
C684 H664 0.950 . S
C684 C683 1.414 . S
C684 C685 1.374 . S
C685 H665 0.950 . S
C685 C681 1.385 . S
C685 C684 1.374 . S
C686 C683 1.499 . S
C686 C687 1.373 . S
C686 C688 1.389 . S
C687 H666 0.950 . S
C687 C686 1.373 . S
C687 C703 1.377 . S
C688 C686 1.389 . S
C688 C689 1.524 . S
C688 C702 1.377 . S
C689 C688 1.524 . S
C689 C690 1.397 . S
C689 C694 1.363 . S
C690 H667 0.950 . S
C690 C689 1.397 . S
C690 C691 1.334 . S
C691 H668 0.950 . S
C691 C690 1.334 . S
C691 C692 1.287 . S
C692 C691 1.287 . S
C692 C693 1.524 . S
C692 H711 0.913 . S
C693 H669 0.950 . S
C693 C692 1.524 . S
C693 C694 1.415 . S
C694 H670 0.950 . S
C694 C689 1.363 . S
C694 C693 1.415 . S
C695 H671 0.951 . S
C695 C696 1.366 . S
C695 C697 1.388 . S
C696 C695 1.366 . S
C696 C700 1.385 . S
C697 H672 0.951 . S
C697 C695 1.388 . S
C697 C698 1.366 . S
C698 C697 1.366 . S
C698 C699 1.414 . S
C698 C701 1.499 . S
C699 H673 0.950 . S
C699 C698 1.414 . S
C699 C700 1.374 . S
C700 H674 0.950 . S
C700 C696 1.385 . S
C700 C699 1.374 . S
C701 C698 1.499 . S
C701 C702 1.373 . S
C701 C703 1.389 . S
C702 H675 0.950 . S
C702 C688 1.377 . S
C702 C701 1.373 . S
C703 C687 1.377 . S
C703 C701 1.389 . S
C703 C704 1.524 . S
C704 C703 1.524 . S
C704 C705 1.397 . S
C704 C709 1.342 1_545 S
C705 H676 0.950 . S
C705 C704 1.397 . S
C705 C706 1.334 1_545 S
C706 H677 0.950 . S
C706 C705 1.334 1_565 S
C706 C707 1.287 . S
C707 C706 1.287 . S
C707 C708 1.524 . S
C707 H710 0.999 . S
C708 H678 0.950 . S
C708 C707 1.524 . S
C708 C709 1.449 . S
C709 H679 0.938 1_565 S
C709 C704 1.342 1_565 S
C709 C708 1.449 . S
H710 C707 0.999 . S
H711 C692 0.913 . S
H712 C730 0.951 . S
H713 C732 0.951 . S
H714 C734 0.950 . S
H715 C735 0.950 . S
H716 C737 0.950 . S
H717 C740 0.950 . S
H718 C741 0.950 . S
H719 C743 0.950 . S
H720 C744 0.950 . S
H721 C745 0.951 . S
H722 C747 0.951 . S
H723 C749 0.950 . S
H724 C750 0.950 . S
H725 C752 0.950 . S
H726 C755 0.950 . S
H727 C756 0.950 . S
H728 C758 0.950 . S
H729 C759 0.950 . S
C730 H712 0.951 . S
C730 C731 1.366 . S
C730 C732 1.388 . S
C731 C730 1.366 . S
C731 C735 1.385 . S
C732 H713 0.951 . S
C732 C730 1.388 . S
C732 C733 1.366 . S
C733 C732 1.366 . S
C733 C734 1.414 . S
C733 C736 1.499 . S
C734 H714 0.950 . S
C734 C733 1.414 . S
C734 C735 1.374 . S
C735 H715 0.950 . S
C735 C731 1.385 . S
C735 C734 1.374 . S
C736 C733 1.499 . S
C736 C737 1.373 . S
C736 C738 1.389 . S
C737 H716 0.950 . S
C737 C736 1.373 . S
C737 C753 1.377 . S
C738 C736 1.389 . S
C738 C739 1.524 . S
C738 C752 1.377 . S
C739 C738 1.524 . S
C739 C740 1.397 . S
C739 C744 1.363 . S
C740 H717 0.950 . S
C740 C739 1.397 . S
C740 C741 1.334 . S
C741 H718 0.950 . S
C741 C740 1.334 . S
C741 C742 1.287 . S
C742 C741 1.287 . S
C742 C743 1.524 . S
C742 H761 0.913 . S
C743 H719 0.950 . S
C743 C742 1.524 . S
C743 C744 1.415 . S
C744 H720 0.950 . S
C744 C739 1.363 . S
C744 C743 1.415 . S
C745 H721 0.951 . S
C745 C746 1.366 . S
C745 C747 1.388 . S
C746 C745 1.366 . S
C746 C750 1.385 . S
C747 H722 0.951 . S
C747 C745 1.388 . S
C747 C748 1.366 . S
C748 C747 1.366 . S
C748 C749 1.414 . S
C748 C751 1.499 . S
C749 H723 0.950 . S
C749 C748 1.414 . S
C749 C750 1.374 . S
C750 H724 0.950 . S
C750 C746 1.385 . S
C750 C749 1.374 . S
C751 C748 1.499 . S
C751 C752 1.373 . S
C751 C753 1.389 . S
C752 H725 0.950 . S
C752 C738 1.377 . S
C752 C751 1.373 . S
C753 C737 1.377 . S
C753 C751 1.389 . S
C753 C754 1.524 . S
C754 C753 1.524 . S
C754 C755 1.397 . S
C754 C759 1.363 . S
C755 H726 0.950 . S
C755 C754 1.397 . S
C755 C756 1.334 . S
C756 H727 0.950 . S
C756 C755 1.334 . S
C756 C757 1.287 . S
C757 C756 1.287 . S
C757 C758 1.524 . S
C757 H760 0.999 . S
C758 H728 0.950 . S
C758 C757 1.524 . S
C758 C759 1.415 . S
C759 H729 0.950 . S
C759 C754 1.363 . S
C759 C758 1.415 . S
H760 C757 0.999 . S
H761 C742 0.913 . S
H762 C780 0.951 . S
H763 C782 0.951 . S
H764 C784 0.950 . S
H765 C785 0.950 . S
H766 C787 0.950 . S
H767 C790 0.950 . S
H768 C791 0.950 . S
H769 C793 0.950 . S
H770 C794 0.950 . S
H771 C795 0.951 1_545 S
H772 C797 0.951 . S
H773 C799 0.950 . S
H774 C800 0.950 . S
H775 C802 0.950 . S
H776 C805 0.950 . S
H777 C806 0.950 . S
H778 C808 0.950 . S
H779 C809 0.950 . S
C780 H762 0.951 . S
C780 C781 1.366 . S
C780 C782 1.388 . S
C781 C780 1.366 . S
C781 C785 1.385 . S
C782 H763 0.951 . S
C782 C780 1.388 . S
C782 C783 1.366 . S
C783 C782 1.366 . S
C783 C784 1.414 . S
C783 C786 1.499 . S
C784 H764 0.950 . S
C784 C783 1.414 . S
C784 C785 1.374 . S
C785 H765 0.950 . S
C785 C781 1.385 . S
C785 C784 1.374 . S
C786 C783 1.499 . S
C786 C787 1.373 . S
C786 C788 1.389 . S
C787 H766 0.950 . S
C787 C786 1.373 . S
C787 C803 1.377 . S
C788 C786 1.389 . S
C788 C789 1.524 . S
C788 C802 1.377 . S
C789 C788 1.524 . S
C789 C790 1.397 . S
C789 C794 1.363 . S
C790 H767 0.950 . S
C790 C789 1.397 . S
C790 C791 1.334 . S
C791 H768 0.950 . S
C791 C790 1.334 . S
C791 C792 1.287 . S
C792 C791 1.287 . S
C792 C793 1.524 . S
C792 H811 0.913 . S
C793 H769 0.950 . S
C793 C792 1.524 . S
C793 C794 1.415 . S
C794 H770 0.950 . S
C794 C789 1.363 . S
C794 C793 1.415 . S
C795 H771 0.951 1_565 S
C795 C796 1.366 . S
C795 C797 1.388 . S
C796 C795 1.366 . S
C796 C800 1.385 . S
C797 H772 0.951 . S
C797 C795 1.388 . S
C797 C798 1.366 . S
C798 C797 1.366 . S
C798 C799 1.414 . S
C798 C801 1.499 . S
C799 H773 0.950 . S
C799 C798 1.414 . S
C799 C800 1.374 . S
C800 H774 0.950 . S
C800 C796 1.385 . S
C800 C799 1.374 . S
C801 C798 1.499 . S
C801 C802 1.373 . S
C801 C803 1.389 . S
C802 H775 0.950 . S
C802 C788 1.377 . S
C802 C801 1.373 . S
C803 C787 1.377 . S
C803 C801 1.389 . S
C803 C804 1.524 . S
C804 C803 1.524 . S
C804 C805 1.397 . S
C804 C809 1.363 . S
C805 H776 0.950 . S
C805 C804 1.397 . S
C805 C806 1.334 . S
C806 H777 0.950 . S
C806 C805 1.334 . S
C806 C807 1.287 . S
C807 C806 1.287 . S
C807 C808 1.524 1_565 S
C807 H810 0.999 1_565 S
C808 H778 0.950 . S
C808 C807 1.524 1_545 S
C808 C809 1.415 1_545 S
C809 H779 0.950 . S
C809 C804 1.363 . S
C809 C808 1.415 1_565 S
H810 C807 0.999 1_545 S
H811 C792 0.913 . S
C246 C112 1.650 . S
C231 C41 1.651 . S
C281 C8 1.664 . S
C296 C184 1.655 . S
C331 C19 1.744 . S
C346 C100 1.754 . S
C381 C30 1.631 . S
C396 C196 1.634 . S
C446 C102 1.502 . S
C431 C5 1.514 . S
C496 C183 1.817 . S
C481 C18 1.760 . S
C531 C29 1.629 . S
C546 C99 1.722 . S
C581 C40 1.617 . S
C596 C186 1.528 . S
C646 C198 1.383 . S
C631 C16 1.316 . S
C696 C114 1.362 . S
C681 C27 1.298 . S
C746 C195 1.552 . S
C731 C38 1.304 . S
C781 C7 1.470 . S
C796 C111 1.508 . S
