# Generated by pormake.
# Topology myd, (4,6)-cn, num edge types: 1
# Building blocks:
#     Node 0, Type 0, BuildingBlock: NAWXER_clean_sbu_0, # of connection points: 4
#     Node 1, Type 0, BuildingBlock: NAWXER_clean_sbu_0, # of connection points: 4
#     Node 2, Type 0, BuildingBlock: NAWXER_clean_sbu_0, # of connection points: 4
#     Node 3, Type 0, BuildingBlock: NAWXER_clean_sbu_0, # of connection points: 4
#     Node 4, Type 0, BuildingBlock: NAWXER_clean_sbu_0, # of connection points: 4
#     Node 5, Type 0, BuildingBlock: NAWXER_clean_sbu_0, # of connection points: 4
#     Node 6, Type 0, BuildingBlock: NAWXER_clean_sbu_0, # of connection points: 4
#     Node 7, Type 0, BuildingBlock: NAWXER_clean_sbu_0, # of connection points: 4
#     Node 8, Type 0, BuildingBlock: NAWXER_clean_sbu_0, # of connection points: 4
#     Node 9, Type 0, BuildingBlock: NAWXER_clean_sbu_0, # of connection points: 4
#     Node 10, Type 0, BuildingBlock: NAWXER_clean_sbu_0, # of connection points: 4
#     Node 11, Type 0, BuildingBlock: NAWXER_clean_sbu_0, # of connection points: 4
#     Node 12, Type 1, BuildingBlock: CUWYAW_clean_sbu_0, # of connection points: 6
#     Node 13, Type 1, BuildingBlock: CUWYAW_clean_sbu_0, # of connection points: 6
#     Node 14, Type 1, BuildingBlock: CUWYAW_clean_sbu_0, # of connection points: 6
#     Node 15, Type 1, BuildingBlock: CUWYAW_clean_sbu_0, # of connection points: 6
#     Node 16, Type 1, BuildingBlock: CUWYAW_clean_sbu_0, # of connection points: 6
#     Node 17, Type 1, BuildingBlock: CUWYAW_clean_sbu_0, # of connection points: 6
#     Node 18, Type 1, BuildingBlock: CUWYAW_clean_sbu_0, # of connection points: 6
#     Node 19, Type 1, BuildingBlock: CUWYAW_clean_sbu_0, # of connection points: 6
#     Edge 20, Type (0, 1), BuildingBlock: AJUNOK_clean_linker_0, # of connection points: 2
#     Edge 21, Type (0, 1), BuildingBlock: AJUNOK_clean_linker_0, # of connection points: 2
#     Edge 22, Type (0, 1), BuildingBlock: AJUNOK_clean_linker_0, # of connection points: 2
#     Edge 23, Type (0, 1), BuildingBlock: AJUNOK_clean_linker_0, # of connection points: 2
#     Edge 24, Type (0, 1), BuildingBlock: AJUNOK_clean_linker_0, # of connection points: 2
#     Edge 25, Type (0, 1), BuildingBlock: AJUNOK_clean_linker_0, # of connection points: 2
#     Edge 26, Type (0, 1), BuildingBlock: AJUNOK_clean_linker_0, # of connection points: 2
#     Edge 27, Type (0, 1), BuildingBlock: AJUNOK_clean_linker_0, # of connection points: 2
#     Edge 28, Type (0, 1), BuildingBlock: AJUNOK_clean_linker_0, # of connection points: 2
#     Edge 29, Type (0, 1), BuildingBlock: AJUNOK_clean_linker_0, # of connection points: 2
#     Edge 30, Type (0, 1), BuildingBlock: AJUNOK_clean_linker_0, # of connection points: 2
#     Edge 31, Type (0, 1), BuildingBlock: AJUNOK_clean_linker_0, # of connection points: 2
#     Edge 32, Type (0, 1), BuildingBlock: AJUNOK_clean_linker_0, # of connection points: 2
#     Edge 33, Type (0, 1), BuildingBlock: AJUNOK_clean_linker_0, # of connection points: 2
#     Edge 34, Type (0, 1), BuildingBlock: AJUNOK_clean_linker_0, # of connection points: 2
#     Edge 35, Type (0, 1), BuildingBlock: AJUNOK_clean_linker_0, # of connection points: 2
#     Edge 36, Type (0, 1), BuildingBlock: AJUNOK_clean_linker_0, # of connection points: 2
#     Edge 37, Type (0, 1), BuildingBlock: AJUNOK_clean_linker_0, # of connection points: 2
#     Edge 38, Type (0, 1), BuildingBlock: AJUNOK_clean_linker_0, # of connection points: 2
#     Edge 39, Type (0, 1), BuildingBlock: AJUNOK_clean_linker_0, # of connection points: 2
#     Edge 40, Type (0, 1), BuildingBlock: AJUNOK_clean_linker_0, # of connection points: 2
#     Edge 41, Type (0, 1), BuildingBlock: AJUNOK_clean_linker_0, # of connection points: 2
#     Edge 42, Type (0, 1), BuildingBlock: AJUNOK_clean_linker_0, # of connection points: 2
#     Edge 43, Type (0, 1), BuildingBlock: AJUNOK_clean_linker_0, # of connection points: 2
#     Edge 44, Type (0, 1), BuildingBlock: AJUNOK_clean_linker_0, # of connection points: 2
#     Edge 45, Type (0, 1), BuildingBlock: AJUNOK_clean_linker_0, # of connection points: 2
#     Edge 46, Type (0, 1), BuildingBlock: AJUNOK_clean_linker_0, # of connection points: 2
#     Edge 47, Type (0, 1), BuildingBlock: AJUNOK_clean_linker_0, # of connection points: 2
#     Edge 48, Type (0, 1), BuildingBlock: AJUNOK_clean_linker_0, # of connection points: 2
#     Edge 49, Type (0, 1), BuildingBlock: AJUNOK_clean_linker_0, # of connection points: 2
#     Edge 50, Type (0, 1), BuildingBlock: AJUNOK_clean_linker_0, # of connection points: 2
#     Edge 51, Type (0, 1), BuildingBlock: AJUNOK_clean_linker_0, # of connection points: 2
#     Edge 52, Type (0, 1), BuildingBlock: AJUNOK_clean_linker_0, # of connection points: 2
#     Edge 53, Type (0, 1), BuildingBlock: AJUNOK_clean_linker_0, # of connection points: 2
#     Edge 54, Type (0, 1), BuildingBlock: AJUNOK_clean_linker_0, # of connection points: 2
#     Edge 55, Type (0, 1), BuildingBlock: AJUNOK_clean_linker_0, # of connection points: 2
#     Edge 56, Type (0, 1), BuildingBlock: AJUNOK_clean_linker_0, # of connection points: 2
#     Edge 57, Type (0, 1), BuildingBlock: AJUNOK_clean_linker_0, # of connection points: 2
#     Edge 58, Type (0, 1), BuildingBlock: AJUNOK_clean_linker_0, # of connection points: 2
#     Edge 59, Type (0, 1), BuildingBlock: AJUNOK_clean_linker_0, # of connection points: 2
#     Edge 60, Type (0, 1), BuildingBlock: AJUNOK_clean_linker_0, # of connection points: 2
#     Edge 61, Type (0, 1), BuildingBlock: AJUNOK_clean_linker_0, # of connection points: 2
#     Edge 62, Type (0, 1), BuildingBlock: AJUNOK_clean_linker_0, # of connection points: 2
#     Edge 63, Type (0, 1), BuildingBlock: AJUNOK_clean_linker_0, # of connection points: 2
#     Edge 64, Type (0, 1), BuildingBlock: AJUNOK_clean_linker_0, # of connection points: 2
#     Edge 65, Type (0, 1), BuildingBlock: AJUNOK_clean_linker_0, # of connection points: 2
#     Edge 66, Type (0, 1), BuildingBlock: AJUNOK_clean_linker_0, # of connection points: 2
#     Edge 67, Type (0, 1), BuildingBlock: AJUNOK_clean_linker_0, # of connection points: 2
# Relax obj value: 0.449
# Max RMSD: 0.426
# Mean RMSD: 0.189
data_MOF--net-myd--node1-NAWXER_clean_sbu_0--node2-CUWYAW_clean_sbu_0--edge1-AJUNOK_clean_linker_0
_symmetry_space_group_name_H-M    P1
_symmetry_Int_Tables_number       1
_symmetry_cell_setting            triclinic
loop_
_symmetry_equiv_pos_as_xyz
'x, y, z'
_cell_length_a     37.84145
_cell_length_b     36.164076
_cell_length_c     36.752678
_cell_angle_alpha  86.135183
_cell_angle_beta   87.326863
_cell_angle_gamma 80.665422
loop_
_atom_site_label
_atom_site_type_symbol
_atom_site_fract_x
_atom_site_fract_y
_atom_site_fract_z
_atom_type_partial_charge
C0 C 0.07489 0.28588 0.31479 0.0
C1 C 0.04752 0.38056 0.41254 0.0
O2 O 0.09907 0.30102 0.32867 0.0
Zn3 Zn 0.06466 0.33201 0.36114 0.0
O4 O 0.04212 0.29494 0.32484 0.0
Zn5 Zn 1.00907 0.32743 0.36309 0.0
O6 O 0.98046 0.36077 0.32342 0.0
O7 O 0.03684 0.36736 0.31656 0.0
O8 O 0.01982 0.36664 0.40414 0.0
O9 O 0.07702 0.36899 0.39564 0.0
O10 O 0.05524 0.28091 0.39357 0.0
O11 O 0.9982 0.27805 0.38955 0.0
C12 C 1.00482 0.37535 0.3049 0.0
C13 C 0.02928 0.26216 0.39962 0.0
C14 C 0.98116 0.78805 0.31969 0.0
C15 C 0.99933 0.68802 0.23509 0.0
O16 O 0.0137 0.77149 0.31698 0.0
Zn17 Zn 0.04503 0.72729 0.28757 0.0
O18 O 0.95686 0.7763 0.30293 0.0
Zn19 Zn 0.98913 0.73678 0.27965 0.0
O20 O 1.00569 0.69755 0.32441 0.0
O21 O 0.06438 0.69278 0.32667 0.0
O22 O 0.97034 0.70758 0.24597 0.0
O23 O 0.02914 0.69248 0.24802 0.0
O24 O 0.0761 0.75763 0.26036 0.0
O25 O 0.01924 0.77267 0.24666 0.0
C26 C 0.03513 0.68341 0.33949 0.0
C27 C 0.05157 0.77909 0.24313 0.0
C28 C 0.4043 0.03793 0.25616 0.0
C29 C 0.30776 1.02216 0.35782 0.0
O30 O 0.39764 1.00661 0.27102 0.0
Zn31 Zn 0.35988 1.0219 0.31254 0.0
O32 O 0.38912 0.06781 0.2712 0.0
Zn33 Zn 0.35218 0.0824 0.31723 0.0
O34 O 0.38017 0.09499 0.36074 0.0
O35 O 0.38789 0.03374 0.35999 0.0
O36 O 0.31649 0.05436 0.3501 0.0
O37 O 0.3252 0.9936 0.34233 0.0
O38 O 0.3165 0.05163 0.2806 0.0
O39 O 0.31019 0.11181 0.28932 0.0
C40 C 0.39266 0.06291 0.376 0.0
C41 C 0.29906 0.08475 0.27472 0.0
C42 C 0.73289 0.57742 0.36637 0.0
C43 C 0.63088 0.57573 0.45079 0.0
O44 O 0.72336 0.54498 0.37177 0.0
Zn45 Zn 0.68155 0.51974 0.40022 0.0
O46 O 0.71484 0.6056 0.38124 0.0
Zn47 Zn 0.67919 0.57837 0.4052 0.0
O48 O 0.70919 0.5415 0.44512 0.0
O49 O 0.70811 0.48266 0.43181 0.0
O50 O 0.64225 0.60453 0.43587 0.0
O51 O 0.64176 0.54364 0.43807 0.0
O52 O 0.65783 0.50195 0.36192 0.0
O53 O 0.65467 0.56356 0.35888 0.0
C54 C 0.71707 0.50604 0.45254 0.0
C55 C 0.64945 0.53355 0.3448 0.0
C56 C 0.33868 0.40778 0.05051 0.0
C57 C 0.43559 0.29596 0.05163 0.0
O58 O 0.35625 0.40388 1.02006 0.0
Zn59 Zn 0.40038 0.36557 0.99895 0.0
O60 O 0.35313 0.39152 0.07944 0.0
Zn61 Zn 0.39651 0.36043 0.05882 0.0
O62 O 0.43262 0.39835 0.04362 0.0
O63 O 0.43766 0.39843 0.98384 0.0
O64 O 0.4236 0.31274 0.08023 0.0
O65 O 0.42958 0.31319 1.0204 0.0
O66 O 0.36436 0.34193 0.9717 0.0
O67 O 0.3625 0.3338 0.03143 0.0
C68 C 0.44665 0.41009 1.01361 0.0
C69 C 0.34998 0.32875 1.00112 0.0
C70 C 0.28882 0.84773 0.54186 0.0
C71 C 0.39569 0.75263 0.57923 0.0
O72 O 0.30616 0.82899 0.5165 0.0
Zn73 Zn 0.35003 0.78411 0.50845 0.0
O74 O 0.29839 0.83968 0.5747 0.0
Zn75 Zn 0.33894 0.79822 0.56459 0.0
O76 O 0.37439 0.82921 0.53423 0.0
O77 O 0.38284 0.81184 0.47753 0.0
O78 O 0.37399 0.77272 0.60038 0.0
O79 O 0.38881 0.75344 0.54532 0.0
O80 O 0.32344 0.7463 0.49093 0.0
O81 O 0.30984 0.75603 0.54884 0.0
C82 C 0.38957 0.83212 0.50264 0.0
C83 C 0.30548 0.73935 0.52009 0.0
C84 C 0.83535 0.90816 0.47137 0.0
C85 C 0.93047 0.79439 0.49812 0.0
O86 O 0.8516 0.88804 0.44634 0.0
Zn87 Zn 0.89408 0.85768 0.47387 0.0
O88 O 0.84997 0.90636 0.50213 0.0
Zn89 Zn 0.88832 0.86981 0.53249 0.0
O90 O 0.92132 0.90363 0.54662 0.0
O91 O 0.93092 0.89415 0.48812 0.0
O92 O 0.92027 0.81652 0.52367 0.0
O93 O 0.92329 0.80648 0.46532 0.0
O94 O 0.85549 0.83479 0.50433 0.0
O95 O 0.84823 0.84973 0.56138 0.0
C96 C 0.9385 0.90961 0.5167 0.0
C97 C 0.83815 0.83362 0.53449 0.0
C98 C 0.50912 0.87822 0.79812 0.0
C99 C 0.53923 0.76811 0.89536 0.0
O100 O 0.48607 0.86156 0.81661 0.0
Zn101 Zn 0.51586 0.8316 0.85725 0.0
O102 O 0.54126 0.8729 0.80958 0.0
Zn103 Zn 0.57226 0.83727 0.85186 0.0
O104 O 0.60424 0.80697 0.81598 0.0
O105 O 0.54736 0.79984 0.81895 0.0
O106 O 0.56459 0.78644 0.88488 0.0
O107 O 0.50714 0.78391 0.88876 0.0
O108 O 0.52833 0.87305 0.89322 0.0
O109 O 0.58611 0.87322 0.88638 0.0
C110 C 0.57883 0.79137 0.80512 0.0
C111 C 0.55624 0.88628 0.90184 0.0
C112 C 0.52315 0.19165 0.82977 0.0
C113 C 0.52803 0.28924 0.72992 0.0
O114 O 0.49266 0.2054 0.81675 0.0
Zn115 Zn 0.47205 0.24143 0.77139 0.0
O116 O 0.55163 0.19981 0.81362 0.0
Zn117 Zn 0.52904 0.23481 0.77484 0.0
O118 O 0.49797 0.2774 0.80669 0.0
O119 O 0.44018 0.28054 0.79703 0.0
O120 O 0.55516 0.26916 0.74456 0.0
O121 O 0.49704 0.27991 0.73645 0.0
O122 O 0.45445 0.20817 0.73912 0.0
O123 O 0.51339 0.19861 0.73681 0.0
C124 C 0.46535 0.29265 0.81223 0.0
C125 C 0.48382 0.19082 0.72624 0.0
C126 C 0.7961 0.59266 0.78411 0.0
C127 C 0.88986 0.56957 0.88623 0.0
O128 O 0.80864 0.61954 0.7975 0.0
Zn129 Zn 0.85007 0.59033 0.82692 0.0
O130 O 0.8118 0.55905 0.79138 0.0
Zn131 Zn 0.85535 0.52929 0.82332 0.0
O132 O 0.82125 0.50301 0.85628 0.0
O133 O 0.81419 0.56428 0.86043 0.0
O134 O 0.88509 0.54116 0.86901 0.0
O135 O 0.87728 0.60213 0.87195 0.0
O136 O 0.88696 0.57298 0.78155 0.0
O137 O 0.89198 0.51181 0.78188 0.0
C138 C 0.80484 0.53287 0.87043 0.0
C139 C 0.90058 0.5423 0.76697 0.0
C140 C 0.23463 0.078 0.85713 0.0
C141 C 0.13918 0.07673 0.9486 0.0
O142 O 0.2247 0.0456 0.86112 0.0
Zn143 Zn 0.18344 1.02046 0.89294 0.0
O144 O 0.21832 0.10518 0.87461 0.0
Zn145 Zn 0.18368 0.07764 0.89848 0.0
O146 O 0.21639 0.0385 0.93488 0.0
O147 O 0.21186 0.98085 0.92004 0.0
O148 O 0.15012 0.10453 0.9314 0.0
O149 O 0.14818 0.04398 0.93643 0.0
O150 O 0.15544 1.00483 0.85656 0.0
O151 O 0.15587 0.06567 0.85261 0.0
C152 C 0.22383 1.00272 0.94028 0.0
C153 C 0.14795 0.03641 0.8392 0.0
C154 C 0.80583 0.24356 1.02054 0.0
C155 C 0.88908 0.33536 1.0137 0.0
O156 O 0.80887 0.25972 0.04994 0.0
Zn157 Zn 0.83586 0.30027 0.07054 0.0
O158 O 0.82462 0.25141 0.99222 0.0
Zn159 Zn 0.84795 0.28968 1.01333 0.0
O160 O 0.88534 0.25661 0.05034 0.0
O161 O 0.86913 0.27132 0.10647 0.0
O162 O 0.88209 0.31849 0.98617 0.0
O163 O 0.87279 0.33066 0.04435 0.0
O164 O 0.79538 0.3414 0.081 0.0
O165 O 0.80207 0.33299 1.02223 0.0
C166 C 0.89134 0.25273 0.08456 0.0
C167 C 0.78477 0.35024 0.04862 0.0
C168 C 0.04846 0.0545 0.21198 0.0
Eu169 Eu 0.08207 0.10252 0.17416 0.0
C170 C 0.04661 1.01434 0.20968 0.0
C171 C 0.06384 0.99431 0.18059 0.0
C172 C 0.06446 0.9556 0.18007 0.0
C173 C 0.04756 0.93655 0.20845 0.0
C174 C 0.02833 0.95685 0.23621 0.0
C175 C 0.02817 0.99548 0.23708 0.0
C176 C 0.10604 0.08809 0.10345 0.0
C177 C 0.16667 0.10762 0.18915 0.0
C178 C 0.14533 0.21458 0.0923 0.0
Eu179 Eu 0.11722 0.16868 0.13679 0.0
C180 C 0.16202 0.2395 0.06597 0.0
C181 C 0.16227 0.27699 0.07332 0.0
C182 C 0.18668 0.29712 0.05444 0.0
C183 C 0.211 0.27997 0.028 0.0
C184 C 0.20752 0.2441 1.01782 0.0
C185 C 0.18317 0.22405 0.03664 0.0
C186 C 0.10216 0.17425 0.20949 0.0
C187 C 0.03118 0.17159 0.13137 0.0
O188 O 0.07927 0.06265 0.22114 0.0
O189 O 0.03425 0.07672 0.18514 0.0
O190 O 0.09153 0.06466 0.12475 0.0
O191 O 0.10828 0.11497 0.12203 0.0
O192 O 0.13722 0.09392 0.20099 0.0
O193 O 0.16626 0.13221 0.16066 0.0
O194 O 0.15491 0.17803 0.09258 0.0
O195 O 0.12016 0.22664 0.11651 0.0
O196 O 0.12974 0.18444 0.19179 0.0
O197 O 0.08225 0.16266 0.18728 0.0
O198 O 0.06037 0.18275 0.11613 0.0
O199 O 0.0329 0.14497 0.15816 0.0
H200 H 0.07784 1.00819 0.15891 0.0
H201 H 0.07913 0.94036 0.15825 0.0
H202 H 0.01421 0.94256 0.25765 0.0
H203 H 0.01427 1.01044 0.25948 0.0
H204 H 0.14603 0.2896 0.0957 0.0
H205 H 0.18879 0.32481 0.06279 0.0
H206 H 0.22606 0.22997 0.99797 0.0
H207 H 0.18312 0.19526 0.03018 0.0
C208 C 0.86846 0.53333 0.13407 0.0
Eu209 Eu 0.93613 0.51674 0.11429 0.0
C210 C 0.85191 0.54853 0.16826 0.0
C211 C 0.87299 0.54797 0.19871 0.0
C212 C 0.85784 0.5604 0.23181 0.0
C213 C 0.82099 0.57321 0.23549 0.0
C214 C 0.80001 0.57602 0.20444 0.0
C215 C 0.81543 0.56375 0.17097 0.0
C216 C 0.97914 0.47725 0.16899 0.0
C217 C 0.98416 0.5724 0.13744 0.0
C218 C 0.07533 0.49005 0.07509 0.0
Eu219 Eu 1.00572 0.5007 0.08765 0.0
C220 C 0.10893 0.47414 0.05513 0.0
C221 C 0.13108 0.49855 0.03832 0.0
C222 C 0.16734 0.48551 0.02975 0.0
C223 C 0.18224 0.44784 0.03811 0.0
C224 C 0.15882 0.42259 0.05018 0.0
C225 C 0.12269 0.43562 0.05902 0.0
C226 C 0.96204 0.52821 0.02982 0.0
C227 C 0.95664 0.44519 0.06661 0.0
O228 O 0.88569 0.55598 0.11374 0.0
O229 O 0.88659 0.49936 0.1371 0.0
O230 O 0.95635 0.50742 0.17219 0.0
O231 O 0.98029 0.47008 0.1354 0.0
O232 O 0.95116 0.57044 0.13014 0.0
O233 O 1.01006 0.54597 0.12722 0.0
O234 O 0.05846 0.46773 0.09639 0.0
O235 O 0.05387 0.51872 0.06076 0.0
O236 O 0.98938 0.50165 0.02922 0.0
O237 O 0.95906 0.54144 0.06173 0.0
O238 O 0.98997 0.44587 0.07483 0.0
O239 O 0.93102 0.47287 0.07488 0.0
H240 H 0.90103 0.53687 0.19738 0.0
H241 H 0.8747 0.55836 0.25508 0.0
H242 H 0.77142 0.58582 0.20649 0.0
H243 H 0.79872 0.56508 0.14764 0.0
H244 H 0.12121 0.52836 0.03466 0.0
H245 H 0.18435 0.50564 1.01977 0.0
H246 H 0.16907 0.3931 0.0555 0.0
H247 H 0.10634 0.41587 0.0714 0.0
C248 C 0.12817 0.06418 0.56908 0.0
Eu249 Eu 0.11413 0.04007 0.50697 0.0
C250 C 0.13017 0.05189 0.608 0.0
C251 C 0.09935 0.04652 0.62929 0.0
C252 C 0.10144 0.03925 0.66697 0.0
C253 C 0.13423 0.03737 0.68367 0.0
C254 C 0.1653 0.04097 0.66238 0.0
C255 C 0.16328 0.04813 0.62473 0.0
C256 C 0.05441 1.00313 0.50601 0.0
C257 C 0.16285 0.9594 0.50094 0.0
C258 C 0.08781 0.9793 0.38786 0.0
Eu259 Eu 0.10878 1.00946 0.44364 0.0
C260 C 0.05799 0.974 0.36607 0.0
C261 C 0.06654 0.95145 0.33647 0.0
C262 C 0.04192 0.93007 0.32566 0.0
C263 C 1.00825 0.9319 0.34369 0.0
C264 C 0.99787 0.95865 0.36965 0.0
C265 C 0.02278 0.97978 0.38089 0.0
C266 C 0.17558 0.02583 0.44244 0.0
C267 C 0.08024 0.10097 0.44896 0.0
O268 O 0.15261 0.04695 0.54721 0.0
O269 O 0.09657 0.07136 0.55492 0.0
O270 O 0.05299 0.03728 0.51521 0.0
O271 O 0.08614 0.99157 0.49639 0.0
O272 O 0.15424 0.98811 0.52133 0.0
O273 O 0.14717 0.95958 0.46942 0.0
O274 O 0.08692 0.96495 0.42133 0.0
O275 O 0.10027 1.01101 0.3847 0.0
O276 O 0.16639 0.99632 0.43042 0.0
O277 O 0.14787 0.04794 0.4542 0.0
O278 O 0.07425 0.06989 0.43421 0.0
O279 O 0.10127 0.09637 0.47666 0.0
H280 H 0.07346 0.04926 0.61714 0.0
H281 H 0.07721 0.03699 0.6833 0.0
H282 H 0.19075 0.0399 0.67508 0.0
H283 H 0.18735 0.05221 0.60886 0.0
H284 H 0.09374 0.94632 0.32512 0.0
H285 H 0.05076 0.90876 0.3064 0.0
H286 H 0.9722 0.95989 0.38423 0.0
H287 H 0.01596 0.99686 0.4041 0.0
C288 C 0.09896 0.59177 0.57671 0.0
Eu289 Eu 0.04133 0.56739 0.55643 0.0
C290 C 0.12802 0.613 0.56122 0.0
C291 C 0.16211 0.59411 0.5506 0.0
C292 C 0.19037 0.61406 0.53987 0.0
C293 C 0.18564 0.65361 0.5395 0.0
C294 C 0.15131 0.67249 0.5495 0.0
C295 C 0.12305 0.65258 0.56006 0.0
C296 C 0.04285 0.50373 0.51677 0.0
C297 C 0.02223 0.59036 0.47299 0.0
C298 C 0.91941 0.51984 0.5196 0.0
Eu299 Eu 0.97002 0.55685 0.53076 0.0
C300 C 0.88522 0.51651 0.53891 0.0
C301 C 0.85615 0.54593 0.5371 0.0
C302 C 0.82195 0.5387 0.54729 0.0
C303 C 0.81688 0.50176 0.55779 0.0
C304 C 0.84654 0.47528 0.56809 0.0
C305 C 0.88079 0.48227 0.55756 0.0
C306 C 0.96505 0.63242 0.53564 0.0
C307 C 0.9765 0.55471 0.61908 0.0
O308 O 0.06643 0.61034 0.57974 0.0
O309 O 0.09901 0.55744 0.56742 0.0
O310 O 0.06724 0.52522 0.51492 0.0
O311 O 0.01965 0.51609 0.54118 0.0
O312 O 0.03748 0.59983 0.50185 0.0
O313 O 0.99855 0.56703 0.47651 0.0
O314 O 0.94764 0.50563 0.53792 0.0
O315 O 0.92257 0.55166 0.50131 0.0
O316 O 0.93916 0.61587 0.5264 0.0
O317 O 0.99243 0.60797 0.54318 0.0
O318 O 0.95537 0.55822 0.59113 0.0
O319 O 1.01185 0.55411 0.61286 0.0
H320 H 0.16728 0.56374 0.55136 0.0
H321 H 0.21621 0.59834 0.53227 0.0
H322 H 0.14647 0.70271 0.55068 0.0
H323 H 0.0975 0.66836 0.56845 0.0
H324 H 0.85915 0.57332 0.52465 0.0
H325 H 0.79936 0.5602 0.54052 0.0
H326 H 0.84309 0.44699 0.57746 0.0
H327 H 0.90322 0.45966 0.56073 0.0
C328 C 0.37198 0.03284 0.62854 0.0
Eu329 Eu 0.43617 1.00701 0.60467 0.0
C330 C 0.35851 0.04722 0.6641 0.0
C331 C 0.36634 0.02571 0.69687 0.0
C332 C 0.35182 0.03879 0.73011 0.0
C333 C 0.32972 0.07394 0.73139 0.0
C334 C 0.32413 0.09657 0.69886 0.0
C335 C 0.33826 0.08325 0.66551 0.0
C336 C 0.47835 0.95614 0.65015 0.0
C337 C 0.48275 0.06638 0.63167 0.0
C338 C 0.57944 0.97727 0.56753 0.0
Eu339 Eu 0.50968 0.99892 0.57703 0.0
C340 C 0.61237 0.96604 0.54341 0.0
C341 C 0.6251 0.99163 0.51726 0.0
C342 C 0.65919 0.98307 0.49966 0.0
C343 C 0.68162 0.94856 0.50731 0.0
C344 C 0.66835 0.92237 0.53229 0.0
C345 C 0.63441 0.93107 0.55019 0.0
C346 C 0.46941 0.03319 0.51787 0.0
C347 C 0.45669 0.94743 0.54691 0.0
O348 O 0.39198 0.05354 0.60905 0.0
O349 O 0.38435 0.99688 0.62795 0.0
O350 O 0.44817 0.95162 0.63724 0.0
O351 O 0.48719 0.98683 0.63536 0.0
O352 O 0.4517 0.05506 0.63172 0.0
O353 O 0.51021 0.04977 0.61188 0.0
O354 O 0.5568 0.95384 0.57586 0.0
O355 O 0.56357 1.0123 0.56567 0.0
O356 O 0.50397 0.02672 0.51906 0.0
O357 O 0.45728 1.02367 0.54947 0.0
O358 O 0.48968 0.9467 0.55807 0.0
O359 O 0.43083 0.97384 0.55713 0.0
H360 H 0.38275 0.99823 0.69679 0.0
H361 H 0.35626 1.02031 0.75445 0.0
H362 H 0.30749 0.12393 0.69903 0.0
H363 H 0.33265 0.10073 0.64069 0.0
H364 H 0.60935 1.01899 0.51138 0.0
H365 H 0.66855 1.00402 0.4808 0.0
H366 H 0.68501 0.89579 0.53936 0.0
H367 H 0.62603 0.91091 0.57059 0.0
C368 C 0.55049 0.55886 0.71749 0.0
Eu369 Eu 0.58411 0.6034 0.67518 0.0
C370 C 0.53838 0.52276 0.71217 0.0
C371 C 0.5406 0.50803 0.67749 0.0
C372 C 0.53675 0.47059 0.6738 0.0
C373 C 0.52949 0.44773 0.70465 0.0
C374 C 0.52441 0.46329 0.73888 0.0
C375 C 0.5291 0.50044 0.74266 0.0
C376 C 0.60624 0.58291 0.6058 0.0
C377 C 0.66703 0.61253 0.69325 0.0
C378 C 0.66122 0.69744 0.58369 0.0
Eu379 Eu 0.62063 0.66506 0.62921 0.0
C380 C 0.66339 0.72894 0.55731 0.0
C381 C 0.65325 0.76605 0.56733 0.0
C382 C 0.67174 0.79391 0.5518 0.0
C383 C 0.70081 0.78414 0.52724 0.0
C384 C 0.7051 0.74891 0.51193 0.0
C385 C 0.68606 0.72151 0.52677 0.0
C386 C 0.5851 0.68966 0.69031 0.0
C387 C 0.53546 0.67021 0.62427 0.0
O388 O 0.58535 0.55738 0.71655 0.0
O389 O 0.53396 0.58895 0.69972 0.0
O390 O 0.59004 0.56216 0.62845 0.0
O391 O 0.61175 0.6093 0.62333 0.0
O392 O 0.6375 0.59857 0.70445 0.0
O393 O 0.66731 0.63515 0.66323 0.0
O394 O 0.64476 0.67048 0.57455 0.0
O395 O 0.65711 0.70473 0.61825 0.0
O396 O 0.58707 0.70991 0.65984 0.0
O397 O 0.6028 0.65707 0.6873 0.0
O398 O 0.56487 0.6789 0.60705 0.0
O399 O 0.53663 0.64607 0.65344 0.0
H400 H 0.54648 0.52491 0.65338 0.0
H401 H 0.54031 0.45924 0.64709 0.0
H402 H 0.51856 0.4461 0.76298 0.0
H403 H 0.52706 0.51117 0.76962 0.0
H404 H 0.63477 0.77246 0.59029 0.0
H405 H 0.66692 0.82135 0.56292 0.0
H406 H 0.72694 0.74001 0.49284 0.0
H407 H 0.69352 0.69306 0.51827 0.0
C408 C 0.63305 0.57435 0.07612 0.0
Eu409 Eu 0.61348 0.54977 1.01656 0.0
C410 C 0.63581 0.5611 0.1146 0.0
C411 C 0.60491 0.55817 0.13664 0.0
C412 C 0.60784 0.54754 0.17355 0.0
C413 C 0.64158 0.53992 0.18886 0.0
C414 C 0.67258 0.54175 0.16686 0.0
C415 C 0.66971 0.55221 0.12982 0.0
C416 C 0.55702 0.50856 1.0182 0.0
C417 C 0.66032 0.46652 1.0098 0.0
C418 C 0.56958 0.49699 0.9006 0.0
Eu419 Eu 0.60736 0.51582 0.95174 0.0
C420 C 0.54663 0.47093 0.88893 0.0
C421 C 0.55795 0.44895 0.85926 0.0
C422 C 0.5358 0.42559 0.84658 0.0
C423 C 0.50202 0.42376 0.86346 0.0
C424 C 0.4902 0.4464 0.89249 0.0
C425 C 0.51213 0.47016 0.90486 0.0
C426 C 0.67219 0.53385 0.95013 0.0
C427 C 0.58228 0.60929 0.95411 0.0
O428 O 0.6555 0.55588 0.05322 0.0
O429 O 0.60086 0.58334 0.06363 0.0
O430 O 0.55441 0.54136 0.03109 0.0
O431 O 0.58846 0.49982 1.00638 0.0
O432 O 0.65539 0.49801 0.02681 0.0
O433 O 0.6406 0.4639 0.98117 0.0
O434 O 0.5565 0.51884 0.92661 0.0
O435 O 0.60428 0.48582 0.90233 0.0
O436 O 0.66389 0.50537 0.93456 0.0
O437 O 0.64439 0.55569 0.96236 0.0
O438 O 0.58783 0.57921 0.93441 0.0
O439 O 0.59103 0.60544 0.98831 0.0
H440 H 0.5784 0.56497 0.12568 0.0
H441 H 0.5837 0.54704 0.19053 0.0
H442 H 0.6988 0.53636 0.17861 0.0
H443 H 0.69386 0.55428 0.11328 0.0
H444 H 0.58399 0.44972 0.84594 0.0
H445 H 0.54556 0.40795 0.82439 0.0
H446 H 0.46434 0.4451 0.90603 0.0
H447 H 0.50218 0.48745 0.92723 0.0
C448 C 0.60204 0.09691 0.06521 0.0
Eu449 Eu 0.54479 0.07167 0.04642 0.0
C450 C 0.6312 0.11632 0.04777 0.0
C451 C 0.6653 0.0963 0.0387 0.0
C452 C 0.69397 0.11537 0.02748 0.0
C453 C 0.68918 0.15482 1.0254 0.0
C454 C 0.65471 0.17471 0.03241 0.0
C455 C 0.62616 0.1558 0.04338 0.0
C456 C 0.54699 1.01096 1.00344 0.0
C457 C 0.51893 0.09855 0.965 0.0
C458 C 0.42446 1.01755 1.01819 0.0
Eu459 Eu 0.47265 0.05875 1.02497 0.0
C460 C 0.39053 1.01188 0.03637 0.0
C461 C 0.36076 0.04049 0.03608 0.0
C462 C 0.32674 0.03115 0.04293 0.0
C463 C 0.32283 0.99317 0.04833 0.0
C464 C 0.3527 0.96643 0.05737 0.0
C465 C 0.38678 0.97564 0.05048 0.0
C466 C 0.46374 0.13249 0.03992 0.0
C467 C 0.48435 0.05385 0.112 0.0
O468 O 0.56972 0.11625 0.06614 0.0
O469 O 0.60193 0.06161 0.05931 0.0
O470 O 0.57097 0.03285 1.00225 0.0
O471 O 0.5246 1.0206 0.02942 0.0
O472 O 0.53661 0.10664 0.99289 0.0
O473 O 0.49565 0.0748 0.96915 0.0
O474 O 0.45268 1.00665 0.03776 0.0
O475 O 0.42562 0.04869 0.99774 0.0
O476 O 0.43862 0.11555 0.02922 0.0
O477 O 0.49295 0.10946 0.04204 0.0
O478 O 0.46113 0.05796 0.08594 0.0
O479 O 0.51915 0.05453 0.10361 0.0
H480 H 0.67025 0.06593 0.04181 0.0
H481 H 0.72034 0.09933 1.02265 0.0
H482 H 0.65026 0.20513 0.03114 0.0
H483 H 0.60046 0.17237 0.05002 0.0
H484 H 0.3633 0.06906 0.02685 0.0
H485 H 0.30378 0.05247 0.03697 0.0
H486 H 0.34999 0.93715 0.06246 0.0
H487 H 0.40977 0.95349 0.05209 0.0
C488 C 0.05615 0.21013 0.44595 0.0
C489 C 0.03765 0.22074 0.41345 0.0
C490 C 0.0685 0.17191 0.45709 0.0
C491 C 0.06406 0.14143 0.43612 0.0
H492 H 0.06158 0.23174 0.46294 0.0
H493 H 0.08239 0.16637 0.48246 0.0
S494 S 0.02085 0.15341 0.34641 0.0
N495 N 0.01748 0.19687 0.35915 0.0
N496 N 0.04091 0.12588 0.37959 0.0
C497 C 0.04591 0.15164 0.40326 0.0
C498 C 0.03288 0.19076 0.39209 0.0
C499 C 0.06772 0.43908 0.43565 0.0
C500 C 0.04519 0.41131 0.44004 0.0
C501 C 0.06624 0.46825 0.46016 0.0
C502 C 0.04251 0.47159 0.49123 0.0
H503 H 0.08658 0.43868 0.41254 0.0
H504 H 0.08412 0.48864 0.45449 0.0
S505 S 0.97984 0.40425 0.51803 0.0
N506 N 0.99904 0.38864 0.47949 0.0
N507 N 0.99753 0.44172 0.52589 0.0
C508 C 0.02032 0.44349 0.49648 0.0
C509 C 0.02133 0.41406 0.47101 0.0
C510 C 0.03097 0.8367 0.20379 0.0
C511 C 0.05723 0.81632 0.22665 0.0
C512 C 0.02885 0.87554 0.1964 0.0
C513 C 0.05304 0.89521 0.21148 0.0
H514 H 1.01049 0.82296 0.19332 0.0
H515 H 1.00722 0.89052 0.18026 0.0
S516 S 0.12837 0.85559 0.27034 0.0
N517 N 0.10937 0.81908 0.26224 0.0
N518 N 0.10534 0.89201 0.24785 0.0
C519 C 0.08071 0.87514 0.23234 0.0
C520 C 0.08296 0.83563 0.23992 0.0
C521 C 0.01714 0.65496 0.17726 0.0
C522 C 0.99792 0.65736 0.21099 0.0
C523 C 0.01352 0.62675 0.15357 0.0
C524 C 0.99068 0.60027 0.16313 0.0
H525 H 0.03418 0.67555 0.16877 0.0
H526 H 0.02781 0.6263 0.12734 0.0
S527 S 0.94073 0.59059 0.25166 0.0
N528 N 0.95938 0.62838 0.2547 0.0
N529 N 0.9527 0.57553 0.21077 0.0
C530 C 0.9731 0.60142 0.1977 0.0
C531 C 0.9767 0.62995 0.22151 0.0
C532 C 0.4225 0.0747 0.19783 0.0
C533 C 0.42739 0.04114 0.22061 0.0
C534 C 0.44201 0.07879 0.16407 0.0
C535 C 0.46878 0.05017 0.15116 0.0
H536 H 0.40243 0.098 0.20558 0.0
H537 H 0.43556 0.10473 0.14749 0.0
S538 S 0.49291 0.9563 0.19914 0.0
N539 N 0.46149 0.97816 0.22642 0.0
N540 N 0.49849 0.9864 0.16427 0.0
C541 C 0.47444 1.01661 0.1737 0.0
C542 C 0.45387 1.01202 0.20783 0.0
C543 C 0.65474 0.56508 0.2837 0.0
C544 C 0.64342 0.53535 0.30554 0.0
C545 C 0.65514 0.56541 0.24585 0.0
C546 C 0.64372 0.5364 0.22852 0.0
H547 H 0.66463 0.58777 0.29577 0.0
H548 H 0.66407 0.58878 0.22999 0.0
S549 S 0.61161 0.45232 0.27247 0.0
N550 N 0.62093 0.47589 0.30686 0.0
N551 N 0.62069 0.47737 0.23493 0.0
C552 C 0.63196 0.50672 0.24961 0.0
C553 C 0.63207 0.50597 0.28838 0.0
C554 C 0.3934 0.05136 0.4463 0.0
C555 C 0.41165 0.05834 0.41247 0.0
C556 C 0.41143 0.04422 0.48015 0.0
C557 C 0.44893 0.04326 0.48219 0.0
H558 H 0.36484 0.05094 0.44661 0.0
H559 H 0.39586 0.03874 0.50483 0.0
S560 S 0.50972 0.05718 0.40137 0.0
N561 N 0.46978 0.0621 0.3837 0.0
N562 N 0.50332 0.04898 0.44574 0.0
C563 C 0.46727 0.04987 0.44834 0.0
C564 C 0.44891 0.0572 0.41415 0.0
C565 C 0.6068 0.61141 0.50476 0.0
C566 C 0.6159 0.57675 0.48873 0.0
C567 C 0.60289 0.61318 0.54271 0.0
C568 C 0.60847 0.58052 0.56596 0.0
H569 H 0.60431 0.63748 0.48803 0.0
H570 H 0.59562 0.64035 0.55381 0.0
S571 S 0.62859 0.48254 0.53836 0.0
N572 N 0.62661 0.50845 0.49958 0.0
N573 N 0.62014 0.5125 0.5708 0.0
C574 C 0.61509 0.54564 0.55049 0.0
C575 C 0.61857 0.54359 0.51187 0.0
C576 C 0.28358 0.439 1.01657 0.0
C577 C 0.2989 0.42122 0.04903 0.0
C578 C 0.24607 0.44695 1.01261 0.0
C579 C 0.22212 0.4367 0.04058 0.0
H580 H 0.30072 0.44648 0.99374 0.0
H581 H 0.23576 0.4609 0.98736 0.0
S582 S 0.24768 0.38766 0.12977 0.0
N583 N 0.28629 0.39243 0.10877 0.0
N584 N 0.21657 0.40719 0.10142 0.0
C585 C 0.23702 0.41838 0.07268 0.0
C586 C 0.27504 0.41077 0.0769 0.0
C587 C 0.27966 0.68125 0.54123 0.0
C588 C 0.27653 0.71575 0.52063 0.0
C589 C 0.25068 0.66098 0.54604 0.0
C590 C 0.21688 0.67469 0.53121 0.0
H591 H 0.30454 0.67015 0.55435 0.0
H592 H 0.25449 0.63494 0.56277 0.0
S593 S 0.19501 0.76445 0.47512 0.0
N594 N 0.23729 0.763 0.48528 0.0
N595 N 0.18293 0.72545 0.49409 0.0
C596 C 0.21371 0.70924 0.51018 0.0
C597 C 0.24342 0.72957 0.50499 0.0
C598 C 0.9614 0.97157 0.52196 0.0
C599 C 0.9681 0.93312 0.51483 0.0
C600 C 0.98908 0.99405 0.51917 0.0
C601 C 0.0249 0.97902 0.5096 0.0
H602 H 0.93437 0.9846 0.52915 0.0
H603 H 0.98227 1.02351 0.52439 0.0
S604 S 0.05715 0.87877 0.49175 0.0
N605 N 0.01357 0.88071 0.49954 0.0
N606 N 0.06531 0.92185 0.49538 0.0
C607 C 0.03189 0.94023 0.50337 0.0
C608 C 1.00368 0.91766 0.50567 0.0
C609 C 0.44145 0.69325 0.58537 0.0
C610 C 0.43073 0.73147 0.59218 0.0
C611 C 0.47511 0.67338 0.59609 0.0
C612 C 0.49996 0.69131 0.61279 0.0
H613 H 0.42351 0.67849 0.57194 0.0
H614 H 0.48193 0.64392 0.59082 0.0
S615 S 0.48705 0.79193 0.63265 0.0
N616 N 0.449 0.78682 0.61472 0.0
N617 N 0.51239 0.75015 0.6332 0.0
C618 C 0.49017 0.7298 0.61831 0.0
C619 C 0.4556 0.7497 0.60843 0.0
C620 C 0.52803 0.70971 0.93682 0.0
C621 C 0.5489 0.727 0.90977 0.0
C622 C 0.53854 0.67182 0.95072 0.0
C623 C 0.56961 0.64861 0.93725 0.0
H624 H 0.50388 0.72587 0.9481 0.0
H625 H 0.5221 0.66055 0.97228 0.0
S626 S 0.63299 0.67865 0.8656 0.0
N627 N 0.60242 0.71641 0.87002 0.0
N628 N 0.62058 0.64605 0.89482 0.0
C629 C 0.59002 0.66513 0.90968 0.0
C630 C 0.58009 0.70383 0.89634 0.0
C631 C 0.58395 0.92751 0.9436 0.0
C632 C 0.55329 0.91726 0.92875 0.0
C633 C 0.58152 0.95706 0.96782 0.0
C634 C 0.54832 0.97806 0.97897 0.0
H635 H 0.61027 0.91263 0.93636 0.0
H636 H 0.6061 0.96353 0.97795 0.0
S637 S 0.46019 0.96628 0.94468 0.0
N638 N 0.4886 0.93293 0.92569 0.0
N639 N 0.48455 0.98825 0.96952 0.0
C640 C 0.51768 0.9686 0.96368 0.0
C641 C 0.52003 0.93844 0.93921 0.0
C642 C 0.49725 0.35386 0.71134 0.0
C643 C 0.52953 0.32798 0.7137 0.0
C644 C 0.49729 0.39264 0.70642 0.0
C645 C 0.52953 0.40703 0.70222 0.0
H646 H 0.47156 0.3445 0.716 0.0
H647 H 0.47199 0.41157 0.70755 0.0
S648 S 0.62095 0.35193 0.69845 0.0
N649 N 0.59448 0.31994 0.70646 0.0
N650 N 0.59428 0.39291 0.6955 0.0
C651 C 0.56179 0.38164 0.70073 0.0
C652 C 0.56187 0.34209 0.70672 0.0
C653 C 0.50746 0.15456 0.67106 0.0
C654 C 0.4841 0.1592 0.70212 0.0
C655 C 0.50797 0.12411 0.64858 0.0
C656 C 0.48547 0.09693 0.65669 0.0
H657 H 0.52498 0.17498 0.66372 0.0
H658 H 0.52543 0.12234 0.62436 0.0
S659 S 0.42386 0.09331 0.73853 0.0
N660 N 0.44068 0.13225 0.74161 0.0
N661 N 0.44212 0.07497 0.70082 0.0
C662 C 0.46327 0.10064 0.68878 0.0
C663 C 0.46243 0.13173 0.71106 0.0
C664 C 0.95837 0.5333 0.72461 0.0
C665 C 0.92072 0.54393 0.72971 0.0
C666 C 0.97658 0.53729 0.68967 0.0
C667 C 0.95818 0.55174 0.65763 0.0
H668 H 0.97404 0.52218 0.74794 0.0
H669 H 1.00532 0.52854 0.68777 0.0
S670 S 0.8592 0.58396 0.6562 0.0
N671 N 0.86617 0.56997 0.6993 0.0
N672 N 0.89894 0.57696 0.63505 0.0
C673 C 0.92042 0.56235 0.66285 0.0
C674 C 0.90224 0.55864 0.69821 0.0
C675 C 0.13638 1.0047 0.78351 0.0
C676 C 0.13827 0.03815 0.80051 0.0
C677 C 0.13464 1.00444 0.74552 0.0
C678 C 0.13501 0.03752 0.72348 0.0
H679 H 0.13764 0.97824 0.79945 0.0
H680 H 0.13394 0.97816 0.73325 0.0
S681 S 0.13777 0.13257 0.75351 0.0
N682 N 0.13842 0.10564 0.79164 0.0
N683 N 0.13604 0.10445 0.72032 0.0
C684 C 0.13589 0.07116 0.73983 0.0
C685 C 0.13715 0.07169 0.77837 0.0
C686 C 0.93361 0.52968 0.92959 0.0
C687 C 0.90843 0.5626 0.92316 0.0
C688 C 0.94991 0.51989 0.96365 0.0
C689 C 0.94202 0.54179 0.99449 0.0
H690 H 0.94101 0.51085 0.90781 0.0
H691 H 0.969 0.49413 0.96577 0.0
S692 S 0.87462 0.62893 0.99491 0.0
N693 N 0.87442 0.61616 0.95255 0.0
N694 N 0.90453 0.59749 1.01631 0.0
C695 C 0.91602 0.57441 0.9891 0.0
C696 C 0.89955 0.58479 0.95382 0.0
C697 C 0.125 0.04814 1.01045 0.0
C698 C 0.12453 0.08046 0.9866 0.0
C699 C 0.1188 0.05091 0.04819 0.0
C700 C 0.11221 0.08602 0.06356 0.0
H701 H 0.13176 1.02038 1.0002 0.0
H702 H 0.12014 1.02533 0.06557 0.0
S703 S 0.10289 0.17911 1.01298 0.0
N704 N 0.11323 0.14874 0.9811 0.0
N705 N 0.1016 0.15366 0.05187 0.0
C706 C 0.10992 0.11846 0.04001 0.0
C707 C 0.11595 0.11574 1.00159 0.0
C708 C 0.7701 0.90575 0.45778 0.0
C709 C 0.79591 0.92497 0.47146 0.0
C710 C 0.73317 0.91363 0.46868 0.0
C711 C 0.72016 0.94187 0.49296 0.0
H712 H 0.77878 0.88282 0.44039 0.0
H713 H 0.71482 0.89689 0.45871 0.0
S714 S 0.77549 1.00185 0.53523 0.0
N715 N 0.80458 0.97463 0.50987 0.0
N716 N 0.73604 0.98985 0.52905 0.0
C717 C 0.74526 0.96249 0.5052 0.0
C718 C 0.78268 0.9541 0.4947 0.0
C719 C 0.75375 0.21787 0.05057 0.0
C720 C 0.77796 0.21865 1.02025 0.0
C721 C 0.72567 0.19702 0.05157 0.0
C722 C 0.7204 0.17545 1.02255 0.0
H723 H 0.75592 0.23411 0.07384 0.0
H724 H 0.70776 0.19782 0.07549 0.0
S725 S 0.77625 0.16644 0.93693 0.0
N726 N 0.79487 0.19522 0.96032 0.0
N727 N 0.74205 0.15525 0.96263 0.0
C728 C 0.74463 0.17505 0.99222 0.0
C729 C 0.77331 0.19687 0.99094 0.0
C730 C 0.46918 0.46714 0.03594 0.0
C731 C 0.47447 0.4355 1.01445 0.0
C732 C 0.49554 0.49088 0.03716 0.0
C733 C 0.52881 0.48336 1.01784 0.0
H734 H 0.44426 0.4739 0.05157 0.0
H735 H 0.4899 0.51508 0.05356 0.0
S736 S 0.55843 0.40009 0.96327 0.0
N737 N 0.51697 0.39606 0.97687 0.0
N738 N 0.56654 0.43897 0.98001 0.0
C739 C 0.53494 0.45057 0.99804 0.0
C740 C 0.50787 0.42717 0.9961 0.0
C741 C 0.94137 0.23784 0.1295 0.0
C742 C 0.92595 0.22978 0.09729 0.0
C743 C 0.97528 0.21889 0.1403 0.0
C744 C 0.99531 0.19101 0.11943 0.0
H745 H 0.92756 0.2597 0.14612 0.0
H746 H 0.98614 0.22646 0.16501 0.0
S747 S 0.96744 0.15802 0.03346 0.0
N748 N 0.93388 0.19086 0.04499 0.0
N749 N 0.99719 0.15571 0.06539 0.0
C750 C 0.98037 0.18241 0.08734 0.0
C751 C 0.94588 0.20164 0.07628 0.0
C752 C 0.06271 0.26003 0.25675 0.0
C753 C 0.08258 0.25618 0.28862 0.0
C754 C 0.06578 0.23096 0.23287 0.0
C755 C 0.08847 0.19681 0.2403 0.0
H756 H 0.04509 0.28607 0.2499 0.0
H757 H 0.05211 0.23614 0.20731 0.0
S758 S 0.13944 0.16919 0.32407 0.0
N759 N 0.12068 0.21318 0.32943 0.0
N760 N 0.12719 0.15868 0.28392 0.0
C761 C 0.10635 0.1915 0.27332 0.0
C762 C 0.10323 0.22115 0.29769 0.0
C763 C 0.02582 0.40798 0.24484 0.0
C764 C 0.9974 0.40016 0.26942 0.0
C765 C 0.01997 0.43114 0.21189 0.0
C766 C 0.98534 0.44839 0.20159 0.0
H767 H 0.05315 0.39611 0.25113 0.0
H768 H 0.04298 0.43643 0.19488 0.0
S769 S 0.90122 0.43735 0.25493 0.0
N770 N 0.9328 0.41166 0.27943 0.0
N771 N 0.92208 0.45523 0.21912 0.0
C772 C 0.95674 0.44063 0.22569 0.0
C773 C 0.96261 0.41663 0.25887 0.0
C774 C 0.96162 0.85663 0.31063 0.0
C775 C 0.97541 0.82564 0.33398 0.0
C776 C 0.96966 0.89256 0.31534 0.0
C777 C 0.99074 0.89845 0.34415 0.0
H778 H 0.94802 0.85237 0.28631 0.0
H779 H 0.96162 0.91507 0.29499 0.0
S780 S 0.03012 0.82764 0.41456 0.0
N781 N 1.00879 0.80398 0.38824 0.0
N782 N 0.0229 0.87159 0.39774 0.0
C783 C 1.00184 0.8685 0.36945 0.0
C784 C 0.99426 0.83203 0.36432 0.0
C785 C 1.00553 0.63713 0.37855 0.0
C786 C 0.03437 0.65722 0.37222 0.0
C787 C 1.00275 0.61394 0.41035 0.0
C788 C 0.02842 0.6104 0.43735 0.0
H789 H 0.98463 0.63968 0.35895 0.0
H790 H 0.97953 0.59992 0.4144 0.0
S791 S 0.10954 0.65651 0.43379 0.0
N792 N 0.08957 0.67139 0.39531 0.0
N793 N 0.08432 0.62807 0.45513 0.0
C794 C 0.05785 0.62969 0.431 0.0
C795 C 0.06084 0.65302 0.39845 0.0
C796 C 0.24896 0.1256 0.23914 0.0
C797 C 0.2651 0.08987 0.25297 0.0
C798 C 0.21764 0.13058 0.2185 0.0
C799 C 0.2001 0.10032 0.21125 0.0
H800 H 0.26081 0.15006 0.24393 0.0
H801 H 0.2067 0.15877 0.20847 0.0
S802 S 0.22993 1.00074 0.24176 0.0
N803 N 0.26008 1.02318 0.25772 0.0
N804 N 0.2011 0.03315 0.22025 0.0
C805 C 0.21531 0.06449 0.22546 0.0
C806 C 0.24771 0.05916 0.24583 0.0
C807 C 0.75694 0.61159 0.31181 0.0
C808 C 0.76155 0.58168 0.33859 0.0
C809 C 0.77768 0.60986 0.27903 0.0
C810 C 0.80385 0.57843 0.27236 0.0
H811 H 0.73536 0.63495 0.31486 0.0
H812 H 0.77208 0.63239 0.25812 0.0
S813 S 0.82938 0.4955 0.33652 0.0
N814 N 0.79674 0.52213 0.35834 0.0
N815 N 0.83537 0.51851 0.29699 0.0
C816 C 0.81061 0.54996 0.3004 0.0
C817 C 0.78954 0.55173 0.3335 0.0
C818 C 0.24161 0.03977 0.36625 0.0
C819 C 0.27427 1.02173 0.38072 0.0
C820 C 0.20991 0.04631 0.38812 0.0
C821 C 0.20944 0.03576 0.42571 0.0
H822 H 0.24051 0.0487 0.33752 0.0
H823 H 0.18504 0.0575 0.37499 0.0
S824 S 0.28854 0.9919 0.47812 0.0
N825 N 0.30485 0.99702 0.43587 0.0
N826 N 0.24518 1.00828 0.47679 0.0
C827 C 0.24227 1.01933 0.44084 0.0
C828 C 0.27464 1.01265 0.41851 0.0
C829 C 0.7279 0.51073 0.51754 0.0
C830 C 0.73767 0.49331 0.48471 0.0
C831 C 0.75238 0.5082 0.54526 0.0
C832 C 0.78732 0.48871 0.54036 0.0
H833 H 0.70235 0.52896 0.52051 0.0
H834 H 0.74543 0.52516 0.56853 0.0
S835 S 0.82397 0.43536 0.46024 0.0
N836 N 0.78239 0.45304 0.45005 0.0
N837 N 0.82896 0.44837 0.50161 0.0
C838 C 0.79577 0.46771 0.50917 0.0
C839 C 0.77076 0.4702 0.48121 0.0
C840 C 0.29845 0.31306 0.04026 0.0
C841 C 0.31459 0.31518 1.00466 0.0
C842 C 0.26455 0.3035 0.04676 0.0
C843 C 0.24472 0.29487 1.01824 0.0
H844 H 0.3118 0.31915 0.06408 0.0
H845 H 0.25432 0.30174 0.07478 0.0
S846 S 0.27346 0.29458 0.92041 0.0
N847 N 0.30744 0.30724 0.94054 0.0
N848 N 0.24312 0.28817 0.95305 0.0
C849 C 0.26005 0.29626 0.98257 0.0
C850 C 0.29497 0.30668 0.97572 0.0
C851 C 0.23058 0.89086 0.55798 0.0
C852 C 0.25733 0.8774 0.5319 0.0
C853 C 0.19986 0.91684 0.54789 0.0
C854 C 0.19412 0.92987 0.51117 0.0
H855 H 0.23316 0.881 0.58637 0.0
H856 H 0.18026 0.92656 0.56898 0.0
S857 S 0.25822 0.90809 0.43315 0.0
N858 N 0.2775 0.88307 0.46816 0.0
N859 N 0.21969 0.92997 0.44947 0.0
C860 C 0.22105 0.9174 0.48513 0.0
C861 C 0.25256 0.89176 0.4954 0.0
C862 C 0.95841 0.72774 0.48211 0.0
C863 C 0.94513 0.75361 0.50853 0.0
C864 C 0.96754 0.68877 0.49158 0.0
C865 C 0.96413 0.67379 0.52788 0.0
H866 H 0.96056 0.73741 0.45367 0.0
H867 H 0.97578 0.66997 0.46996 0.0
S868 S 0.9305 0.72819 0.60758 0.0
N869 N 0.92949 0.76017 0.57326 0.0
N870 N 0.9464 0.68772 0.59007 0.0
C871 C 0.95186 0.69916 0.55456 0.0
C872 C 0.94258 0.73872 0.54518 0.0
C873 C 0.39767 0.89809 0.49321 0.0
C874 C 0.4137 0.86036 0.49742 0.0
C875 C 0.41384 0.92658 0.50623 0.0
C876 C 0.44656 0.91841 0.52434 0.0
H877 H 0.3707 0.90528 0.48339 0.0
H878 H 0.39906 0.95491 0.50462 0.0
S879 S 0.50296 0.82481 0.53493 0.0
N880 N 0.46666 0.81682 0.51542 0.0
N881 N 0.49734 0.87052 0.53976 0.0
C882 C 0.46494 0.8814 0.52466 0.0
C883 C 0.44834 0.8523 0.51132 0.0
C884 C 0.55106 0.75535 0.76228 0.0
C885 C 0.58278 0.76322 0.77708 0.0
C886 C 0.55195 0.72919 0.73602 0.0
C887 C 0.58445 0.70929 0.72379 0.0
H888 H 0.52496 0.77026 0.77026 0.0
H889 H 0.5271 0.72553 0.7242 0.0
S890 S 0.67505 0.71732 0.75366 0.0
N891 N 0.64769 0.7475 0.77789 0.0
N892 N 0.64929 0.69799 0.72791 0.0
C893 C 0.6164 0.71566 0.7387 0.0
C894 C 0.61559 0.74274 0.76547 0.0
C895 C 0.48111 0.88566 0.73521 0.0
C896 C 0.50079 0.89988 0.76129 0.0
C897 C 0.47547 0.90344 0.69972 0.0
C898 C 0.48876 0.93695 0.68774 0.0
H899 H 0.47047 0.8599 0.74199 0.0
H900 H 0.46015 0.89064 0.68133 0.0
S901 S 0.54019 0.98773 0.74607 0.0
N902 N 0.53301 0.95061 0.77244 0.0
N903 N 0.5215 0.98433 0.7069 0.0
C904 C 0.50822 0.95178 0.71373 0.0
C905 C 0.51443 0.93327 0.74988 0.0
C906 C 0.45771 0.36181 0.80698 0.0
C907 C 0.45986 0.32867 0.82975 0.0
C908 C 0.46905 0.39403 0.81873 0.0
C909 C 0.48188 0.39426 0.85397 0.0
H910 H 0.45072 0.36164 0.77877 0.0
H911 H 0.46984 0.41797 0.79951 0.0
S912 S 0.48842 0.31667 0.92545 0.0
N913 N 0.47295 0.29945 0.88997 0.0
N914 N 0.49265 0.36037 0.91255 0.0
C915 C 0.48082 0.36269 0.87801 0.0
C916 C 0.47012 0.32976 0.8658 0.0
C917 C 0.54386 0.13192 0.86776 0.0
C918 C 0.52406 0.16843 0.8647 0.0
C919 C 0.54185 0.10879 0.90011 0.0
C920 C 0.52052 0.12184 0.93048 0.0
H921 H 0.56018 0.12086 0.84475 0.0
H922 H 0.55709 0.08069 0.90144 0.0
S923 S 0.46563 0.2158 0.93725 0.0
N924 N 0.48338 0.21655 0.89532 0.0
N925 N 0.48079 0.17382 0.95604 0.0
C926 C 0.50153 0.15848 0.92799 0.0
C927 C 0.50297 0.1816 0.8951 0.0
C928 C 0.76045 0.62034 0.72852 0.0
C929 C 0.76259 0.59859 0.76186 0.0
C930 C 0.73016 0.62375 0.70637 0.0
C931 C 0.69995 0.60619 0.71661 0.0
H932 H 0.78274 0.63423 0.71901 0.0
H933 H 0.73046 0.64071 0.68097 0.0
S934 S 0.69172 0.54602 0.80171 0.0
N935 N 0.73193 0.55796 0.80321 0.0
N936 N 0.67465 0.56649 0.76352 0.0
C937 C 0.70178 0.58447 0.75006 0.0
C938 C 0.73305 0.58011 0.77201 0.0
C939 C 0.24711 0.0953 0.79252 0.0
C940 C 0.26024 0.08485 0.82736 0.0
C941 C 0.27035 0.09472 0.76181 0.0
C942 C 0.30757 0.08353 0.76492 0.0
H943 H 0.21849 0.10178 0.78872 0.0
H944 H 0.25868 0.1004 0.73526 0.0
S945 S 0.35529 0.05985 0.85153 0.0
N946 N 0.3124 0.0672 0.86435 0.0
N947 N 0.35669 0.067 0.80661 0.0
C948 C 0.32117 0.07602 0.8002 0.0
C949 C 0.29731 0.07637 0.83148 0.0
C950 C 0.74303 0.56351 0.88733 0.0
C951 C 0.77221 0.53469 0.89494 0.0
C952 C 0.71116 0.56721 0.90882 0.0
C953 C 0.70784 0.54347 0.94004 0.0
H954 H 0.74437 0.58287 0.86374 0.0
H955 H 0.68819 0.58684 0.89939 0.0
S956 S 0.7803 0.47258 0.97949 0.0
N957 N 0.79834 0.4878 0.9406 0.0
N958 N 0.73893 0.49574 0.98207 0.0
C959 C 0.73835 0.51783 0.95065 0.0
C960 C 0.77047 0.51317 0.92798 0.0
C961 C 0.23492 0.99785 1.0058 0.0
C962 C 0.24634 0.98789 0.97036 0.0
C963 C 0.25944 0.99468 0.03354 0.0
C964 C 0.29583 0.9816 0.0262 0.0
H965 H 0.20753 1.011 1.01127 0.0
H966 H 0.25062 1.00587 0.05964 0.0
S967 S 0.33825 0.95159 0.93745 0.0
N968 N 0.2952 0.96331 0.92943 0.0
N969 N 0.34175 0.95731 0.98123 0.0
C970 C 0.30686 0.96882 0.99137 0.0
C971 C 0.28189 0.97209 0.96334 0.0
C972 C 0.7788 0.82234 0.56305 0.0
C973 C 0.80265 0.82131 0.53272 0.0
C974 C 0.74441 0.81327 0.56031 0.0
C975 C 0.73221 0.80384 0.52689 0.0
H976 H 0.78693 0.82948 0.58921 0.0
H977 H 0.72801 0.81184 0.58514 0.0
S978 S 0.78243 0.8004 0.43801 0.0
N979 N 0.81075 0.81044 0.46721 0.0
N980 N 0.74499 0.79801 0.46213 0.0
C981 C 0.7548 0.80515 0.49582 0.0
C982 C 0.79031 0.81242 0.49875 0.0
C983 C 0.732 0.37737 1.00963 0.0
C984 C 0.75224 0.37941 0.04063 0.0
C985 C 0.70183 0.40454 1.00065 0.0
C986 C 0.69046 0.43563 1.02187 0.0
H987 H 0.73954 0.35437 0.99197 0.0
H988 H 0.68779 0.40151 0.9763 0.0
S989 S 0.73523 0.45539 0.10528 0.0
N990 N 0.75898 0.41576 0.09222 0.0
N991 N 0.70319 0.4668 0.07564 0.0
C992 C 0.71064 0.43802 0.0531 0.0
C993 C 0.74114 0.41006 0.06236 0.0
C994 C 0.47954 0.23455 0.04772 0.0
C995 C 0.44437 0.25407 0.05279 0.0
C996 C 0.48622 0.195 0.04485 0.0
C997 C 0.45786 0.17381 0.04584 0.0
H998 H 0.50189 0.24994 0.04542 0.0
H999 H 0.51357 0.18118 0.04059 0.0
S1000 S 0.36084 0.21262 0.05488 0.0
N1001 N 0.38118 0.24946 0.05669 0.0
N1002 N 0.39316 0.17647 0.05041 0.0
C1003 C 0.4227 0.19349 0.0501 0.0
C1004 C 0.41611 0.23319 0.05369 0.0
C1005 C 0.9078 0.39713 1.00152 0.0
C1006 C 0.91686 0.35927 1.01345 0.0
C1007 C 0.92293 0.42486 1.01728 0.0
C1008 C 0.94773 0.41542 0.04511 0.0
H1009 H 0.88606 0.40575 0.98307 0.0
H1010 H 0.9134 0.45406 1.00934 0.0
S1011 S 0.98331 0.31989 0.08269 0.0
N1012 N 0.95469 0.3134 0.05202 0.0
N1013 N 0.98346 0.36563 0.0812 0.0
C1014 C 0.95978 0.37749 0.05453 0.0
C1015 C 0.94427 0.34931 0.03865 0.0
loop_
_geom_bond_atom_site_label_1
_geom_bond_atom_site_label_2
_geom_bond_distance
_geom_bond_site_symmetry_2
_ccdc_geom_bond_type
C0 O2 1.247 . S
C0 O4 1.262 . S
C1 O8 1.247 1_455 S
C1 O9 1.258 . S
O2 C0 1.247 . S
O2 Zn3 2.028 . S
Zn3 O2 2.028 . S
Zn3 O7 2.035 . S
Zn3 O9 2.035 . S
Zn3 O10 2.028 . S
O4 C0 1.262 . S
O4 Zn5 2.034 1_455 S
Zn5 O4 2.034 1_655 S
Zn5 O6 2.028 . S
Zn5 O8 2.028 . S
Zn5 O11 2.035 1_655 S
O6 Zn5 2.028 . S
O6 C12 1.247 1_655 S
O7 Zn3 2.035 . S
O7 C12 1.258 . S
O8 C1 1.247 1_655 S
O8 Zn5 2.028 . S
O9 C1 1.258 . S
O9 Zn3 2.035 . S
O10 Zn3 2.028 . S
O10 C13 1.247 . S
O11 Zn5 2.035 1_455 S
O11 C13 1.258 . S
C12 O6 1.247 1_455 S
C12 O7 1.258 . S
C13 O10 1.247 . S
C13 O11 1.258 . S
C14 O16 1.247 . S
C14 O18 1.258 1_455 S
C15 O22 1.247 . S
C15 O23 1.258 1_655 S
O16 C14 1.247 . S
O16 Zn17 2.028 . S
Zn17 O16 2.028 . S
Zn17 O21 2.035 . S
Zn17 O23 2.035 . S
Zn17 O24 2.028 . S
O18 C14 1.258 1_655 S
O18 Zn19 2.035 . S
Zn19 O18 2.035 . S
Zn19 O20 2.028 . S
Zn19 O22 2.028 . S
Zn19 O25 2.035 . S
O20 Zn19 2.028 . S
O20 C26 1.247 . S
O21 Zn17 2.035 . S
O21 C26 1.258 1_455 S
O22 C15 1.247 . S
O22 Zn19 2.028 . S
O23 C15 1.258 1_455 S
O23 Zn17 2.035 . S
O24 Zn17 2.028 . S
O24 C27 1.247 . S
O25 Zn19 2.035 . S
O25 C27 1.258 1_655 S
C26 O20 1.247 . S
C26 O21 1.258 1_655 S
C27 O24 1.247 . S
C27 O25 1.258 1_455 S
C28 O30 1.247 1_545 S
C28 O32 1.258 . S
C29 O36 1.247 1_565 S
C29 O37 1.258 . S
O30 C28 1.247 1_565 S
O30 Zn31 2.028 . S
Zn31 O30 2.028 . S
Zn31 O35 2.035 . S
Zn31 O37 2.035 . S
Zn31 O38 2.028 . S
O32 C28 1.258 . S
O32 Zn33 2.035 . S
Zn33 O32 2.035 . S
Zn33 O34 2.028 . S
Zn33 O36 2.028 . S
Zn33 O39 2.035 . S
O34 Zn33 2.028 . S
O34 C40 1.247 1_545 S
O35 Zn31 2.035 . S
O35 C40 1.258 . S
O36 C29 1.247 1_545 S
O36 Zn33 2.028 . S
O37 C29 1.258 . S
O37 Zn31 2.035 . S
O38 Zn31 2.028 . S
O38 C41 1.247 1_565 S
O39 Zn33 2.035 . S
O39 C41 1.258 . S
C40 O34 1.247 1_565 S
C40 O35 1.258 . S
C41 O38 1.247 1_545 S
C41 O39 1.258 . S
C42 O44 1.247 . S
C42 O46 1.258 . S
C43 O50 1.247 . S
C43 O51 1.258 . S
O44 C42 1.247 . S
O44 Zn45 2.028 . S
Zn45 O44 2.028 . S
Zn45 O49 2.035 . S
Zn45 O51 2.035 . S
Zn45 O52 2.028 . S
O46 C42 1.258 . S
O46 Zn47 2.035 . S
Zn47 O46 2.035 . S
Zn47 O48 2.028 . S
Zn47 O50 2.028 . S
Zn47 O53 2.035 . S
O48 Zn47 2.028 . S
O48 C54 1.247 . S
O49 Zn45 2.035 . S
O49 C54 1.258 . S
O50 C43 1.247 . S
O50 Zn47 2.028 . S
O51 C43 1.258 . S
O51 Zn45 2.035 . S
O52 Zn45 2.028 . S
O52 C55 1.247 . S
O53 Zn47 2.035 . S
O53 C55 1.258 . S
C54 O48 1.247 . S
C54 O49 1.258 . S
C55 O52 1.247 . S
C55 O53 1.258 . S
C56 O58 1.247 1_554 S
C56 O60 1.258 . S
C57 O64 1.247 1_556 S
C57 O65 1.258 . S
O58 C56 1.247 1_556 S
O58 Zn59 2.028 . S
Zn59 O58 2.028 . S
Zn59 O63 2.035 . S
Zn59 O65 2.035 . S
Zn59 O66 2.028 . S
O60 C56 1.258 . S
O60 Zn61 2.035 . S
Zn61 O60 2.035 . S
Zn61 O62 2.028 . S
Zn61 O64 2.028 . S
Zn61 O67 2.035 . S
O62 Zn61 2.028 . S
O62 C68 1.247 1_554 S
O63 Zn59 2.035 . S
O63 C68 1.258 . S
O64 C57 1.247 1_554 S
O64 Zn61 2.028 . S
O65 C57 1.258 . S
O65 Zn59 2.035 . S
O66 Zn59 2.028 . S
O66 C69 1.247 1_556 S
O67 Zn61 2.035 . S
O67 C69 1.258 . S
C68 O62 1.247 1_556 S
C68 O63 1.258 . S
C69 O66 1.247 1_554 S
C69 O67 1.258 . S
C70 O72 1.247 . S
C70 O74 1.258 . S
C71 O78 1.247 . S
C71 O79 1.258 . S
O72 C70 1.247 . S
O72 Zn73 2.028 . S
Zn73 O72 2.028 . S
Zn73 O77 2.035 . S
Zn73 O79 2.035 . S
Zn73 O80 2.028 . S
O74 C70 1.258 . S
O74 Zn75 2.035 . S
Zn75 O74 2.035 . S
Zn75 O76 2.028 . S
Zn75 O78 2.028 . S
Zn75 O81 2.035 . S
O76 Zn75 2.028 . S
O76 C82 1.247 . S
O77 Zn73 2.035 . S
O77 C82 1.258 . S
O78 C71 1.247 . S
O78 Zn75 2.028 . S
O79 C71 1.258 . S
O79 Zn73 2.035 . S
O80 Zn73 2.028 . S
O80 C83 1.247 . S
O81 Zn75 2.035 . S
O81 C83 1.258 . S
C82 O76 1.247 . S
C82 O77 1.258 . S
C83 O80 1.247 . S
C83 O81 1.258 . S
C84 O86 1.247 . S
C84 O88 1.258 . S
C85 O92 1.247 . S
C85 O93 1.258 . S
O86 C84 1.247 . S
O86 Zn87 2.028 . S
Zn87 O86 2.028 . S
Zn87 O91 2.035 . S
Zn87 O93 2.035 . S
Zn87 O94 2.028 . S
O88 C84 1.258 . S
O88 Zn89 2.035 . S
Zn89 O88 2.035 . S
Zn89 O90 2.028 . S
Zn89 O92 2.028 . S
Zn89 O95 2.035 . S
O90 Zn89 2.028 . S
O90 C96 1.247 . S
O91 Zn87 2.035 . S
O91 C96 1.258 . S
O92 C85 1.247 . S
O92 Zn89 2.028 . S
O93 C85 1.258 . S
O93 Zn87 2.035 . S
O94 Zn87 2.028 . S
O94 C97 1.247 . S
O95 Zn89 2.035 . S
O95 C97 1.258 . S
C96 O90 1.247 . S
C96 O91 1.258 . S
C97 O94 1.247 . S
C97 O95 1.258 . S
C98 O100 1.247 . S
C98 O102 1.258 . S
C99 O106 1.247 . S
C99 O107 1.258 . S
O100 C98 1.247 . S
O100 Zn101 2.028 . S
Zn101 O100 2.028 . S
Zn101 O105 2.035 . S
Zn101 O107 2.035 . S
Zn101 O108 2.028 . S
O102 C98 1.258 . S
O102 Zn103 2.035 . S
Zn103 O102 2.035 . S
Zn103 O104 2.028 . S
Zn103 O106 2.028 . S
Zn103 O109 2.035 . S
O104 Zn103 2.028 . S
O104 C110 1.247 . S
O105 Zn101 2.035 . S
O105 C110 1.258 . S
O106 C99 1.247 . S
O106 Zn103 2.028 . S
O107 C99 1.258 . S
O107 Zn101 2.035 . S
O108 Zn101 2.028 . S
O108 C111 1.247 . S
O109 Zn103 2.035 . S
O109 C111 1.258 . S
C110 O104 1.247 . S
C110 O105 1.258 . S
C111 O108 1.247 . S
C111 O109 1.258 . S
C112 O114 1.247 . S
C112 O116 1.258 . S
C113 O120 1.247 . S
C113 O121 1.258 . S
O114 C112 1.247 . S
O114 Zn115 2.028 . S
Zn115 O114 2.028 . S
Zn115 O119 2.035 . S
Zn115 O121 2.035 . S
Zn115 O122 2.028 . S
O116 C112 1.258 . S
O116 Zn117 2.035 . S
Zn117 O116 2.035 . S
Zn117 O118 2.028 . S
Zn117 O120 2.028 . S
Zn117 O123 2.035 . S
O118 Zn117 2.028 . S
O118 C124 1.247 . S
O119 Zn115 2.035 . S
O119 C124 1.258 . S
O120 C113 1.247 . S
O120 Zn117 2.028 . S
O121 C113 1.258 . S
O121 Zn115 2.035 . S
O122 Zn115 2.028 . S
O122 C125 1.247 . S
O123 Zn117 2.035 . S
O123 C125 1.258 . S
C124 O118 1.247 . S
C124 O119 1.258 . S
C125 O122 1.247 . S
C125 O123 1.258 . S
C126 O128 1.247 . S
C126 O130 1.258 . S
C127 O134 1.247 . S
C127 O135 1.258 . S
O128 C126 1.247 . S
O128 Zn129 2.028 . S
Zn129 O128 2.028 . S
Zn129 O133 2.035 . S
Zn129 O135 2.035 . S
Zn129 O136 2.028 . S
O130 C126 1.258 . S
O130 Zn131 2.035 . S
Zn131 O130 2.035 . S
Zn131 O132 2.028 . S
Zn131 O134 2.028 . S
Zn131 O137 2.035 . S
O132 Zn131 2.028 . S
O132 C138 1.247 . S
O133 Zn129 2.035 . S
O133 C138 1.258 . S
O134 C127 1.247 . S
O134 Zn131 2.028 . S
O135 C127 1.258 . S
O135 Zn129 2.035 . S
O136 Zn129 2.028 . S
O136 C139 1.247 . S
O137 Zn131 2.035 . S
O137 C139 1.258 . S
C138 O132 1.247 . S
C138 O133 1.258 . S
C139 O136 1.247 . S
C139 O137 1.258 . S
C140 O142 1.247 1_545 S
C140 O144 1.258 . S
C141 O148 1.247 . S
C141 O149 1.258 1_545 S
O142 C140 1.247 1_565 S
O142 Zn143 2.028 . S
Zn143 O142 2.028 . S
Zn143 O147 2.035 . S
Zn143 O149 2.035 . S
Zn143 O150 2.028 . S
O144 C140 1.258 . S
O144 Zn145 2.035 . S
Zn145 O144 2.035 . S
Zn145 O146 2.028 . S
Zn145 O148 2.028 . S
Zn145 O151 2.035 . S
O146 Zn145 2.028 . S
O146 C152 1.247 . S
O147 Zn143 2.035 . S
O147 C152 1.258 1_565 S
O148 C141 1.247 . S
O148 Zn145 2.028 . S
O149 C141 1.258 1_565 S
O149 Zn143 2.035 . S
O150 Zn143 2.028 . S
O150 C153 1.247 1_565 S
O151 Zn145 2.035 . S
O151 C153 1.258 . S
C152 O146 1.247 . S
C152 O147 1.258 1_545 S
C153 O150 1.247 1_545 S
C153 O151 1.258 . S
C154 O156 1.247 1_556 S
C154 O158 1.258 . S
C155 O162 1.247 1_554 S
C155 O163 1.258 . S
O156 C154 1.247 1_554 S
O156 Zn157 2.028 . S
Zn157 O156 2.028 . S
Zn157 O161 2.035 . S
Zn157 O163 2.035 . S
Zn157 O164 2.028 . S
O158 C154 1.258 . S
O158 Zn159 2.035 . S
Zn159 O158 2.035 . S
Zn159 O160 2.028 . S
Zn159 O162 2.028 . S
Zn159 O165 2.035 . S
O160 Zn159 2.028 . S
O160 C166 1.247 1_556 S
O161 Zn157 2.035 . S
O161 C166 1.258 . S
O162 C155 1.247 1_556 S
O162 Zn159 2.028 . S
O163 C155 1.258 . S
O163 Zn157 2.035 . S
O164 Zn157 2.028 . S
O164 C167 1.247 1_554 S
O165 Zn159 2.035 . S
O165 C167 1.258 . S
C166 O160 1.247 1_554 S
C166 O161 1.258 . S
C167 O164 1.247 1_556 S
C167 O165 1.258 . S
C168 Eu169 2.835 1_565 S
C168 C170 1.500 . S
C168 O188 1.257 1_565 S
C168 O189 1.260 . S
Eu169 C168 2.835 1_545 S
Eu169 O188 2.473 . S
Eu169 O189 2.480 1_545 S
Eu169 O190 2.430 . S
Eu169 O191 2.670 . S
Eu169 O192 2.394 . S
Eu169 O197 2.355 . S
Eu169 O199 2.374 . S
C170 C168 1.500 . S
C170 C171 1.377 . S
C170 C175 1.377 . S
C171 C170 1.377 . S
C171 C172 1.395 . S
C171 H200 0.931 . S
C172 C171 1.395 . S
C172 C173 1.383 . S
C172 H201 0.931 . S
C173 C172 1.383 . S
C173 C174 1.394 . S
C174 C173 1.394 . S
C174 C175 1.378 . S
C174 H202 0.931 . S
C175 C170 1.377 . S
C175 C174 1.378 . S
C175 H203 0.931 . S
C176 O190 1.259 . S
C176 O191 1.270 . S
C177 O192 1.251 . S
C177 O193 1.251 . S
C178 Eu179 2.835 . S
C178 C180 1.500 . S
C178 O194 1.257 . S
C178 O195 1.260 . S
Eu179 C178 2.835 . S
Eu179 O191 2.355 . S
Eu179 O193 2.374 . S
Eu179 O194 2.473 . S
Eu179 O195 2.480 . S
Eu179 O196 2.430 . S
Eu179 O197 2.670 . S
Eu179 O198 2.394 . S
C180 C178 1.500 . S
C180 C181 1.377 . S
C180 C185 1.362 1_554 S
C181 C180 1.377 . S
C181 C182 1.395 . S
C181 H204 0.931 . S
C182 C181 1.395 . S
C182 C183 1.383 1_554 S
C182 H205 0.931 . S
C183 C182 1.383 1_556 S
C183 C184 1.394 . S
C184 C183 1.394 . S
C184 C185 1.386 . S
C184 H206 0.931 . S
C185 C180 1.362 1_556 S
C185 C184 1.386 . S
C185 H207 0.938 . S
C186 O196 1.259 . S
C186 O197 1.270 . S
C187 O198 1.251 . S
C187 O199 1.251 . S
O188 C168 1.257 1_545 S
O188 Eu169 2.473 . S
O189 C168 1.260 . S
O189 Eu169 2.480 1_565 S
O190 Eu169 2.430 . S
O190 C176 1.259 . S
O191 Eu169 2.670 . S
O191 C176 1.270 . S
O191 Eu179 2.355 . S
O192 Eu169 2.394 . S
O192 C177 1.251 . S
O193 C177 1.251 . S
O193 Eu179 2.374 . S
O194 C178 1.257 . S
O194 Eu179 2.473 . S
O195 C178 1.260 . S
O195 Eu179 2.480 . S
O196 Eu179 2.430 . S
O196 C186 1.259 . S
O197 Eu169 2.355 . S
O197 Eu179 2.670 . S
O197 C186 1.270 . S
O198 Eu179 2.394 . S
O198 C187 1.251 . S
O199 Eu169 2.374 . S
O199 C187 1.251 . S
H200 C171 0.931 . S
H201 C172 0.931 . S
H202 C174 0.931 . S
H203 C175 0.931 . S
H204 C181 0.931 . S
H205 C182 0.931 . S
H206 C184 0.931 . S
H207 C185 0.938 . S
C208 Eu209 2.835 . S
C208 C210 1.500 . S
C208 O228 1.257 . S
C208 O229 1.260 . S
Eu209 C208 2.835 . S
Eu209 O228 2.473 . S
Eu209 O229 2.480 . S
Eu209 O230 2.430 . S
Eu209 O231 2.670 . S
Eu209 O232 2.394 . S
Eu209 O237 2.355 . S
Eu209 O239 2.374 . S
C210 C208 1.500 . S
C210 C211 1.377 . S
C210 C215 1.377 . S
C211 C210 1.377 . S
C211 C212 1.395 . S
C211 H240 0.931 . S
C212 C211 1.395 . S
C212 C213 1.383 . S
C212 H241 0.931 . S
C213 C212 1.383 . S
C213 C214 1.394 . S
C214 C213 1.394 . S
C214 C215 1.378 . S
C214 H242 0.931 . S
C215 C210 1.377 . S
C215 C214 1.378 . S
C215 H243 0.931 . S
C216 O230 1.259 . S
C216 O231 1.270 . S
C217 O232 1.251 . S
C217 O233 1.251 . S
C218 Eu219 2.835 . S
C218 C220 1.500 . S
C218 O234 1.257 . S
C218 O235 1.260 . S
Eu219 C218 2.835 . S
Eu219 O231 2.355 1_455 S
Eu219 O233 2.374 1_455 S
Eu219 O234 2.473 . S
Eu219 O235 2.480 . S
Eu219 O236 2.430 1_455 S
Eu219 O237 2.670 1_455 S
Eu219 O238 2.394 1_455 S
C220 C218 1.500 . S
C220 C221 1.377 1_554 S
C220 C225 1.377 . S
C221 C220 1.377 1_556 S
C221 C222 1.395 . S
C221 H244 0.931 . S
C222 C221 1.395 . S
C222 C223 1.383 . S
C222 H245 0.931 . S
C223 C222 1.383 . S
C223 C224 1.394 1_556 S
C224 C223 1.394 1_554 S
C224 C225 1.378 . S
C224 H246 0.931 . S
C225 C220 1.377 . S
C225 C224 1.378 . S
C225 H247 0.931 . S
C226 O236 1.259 . S
C226 O237 1.270 . S
C227 O238 1.251 . S
C227 O239 1.251 . S
O228 C208 1.257 . S
O228 Eu209 2.473 . S
O229 C208 1.260 . S
O229 Eu209 2.480 . S
O230 Eu209 2.430 . S
O230 C216 1.259 . S
O231 Eu209 2.670 . S
O231 C216 1.270 . S
O231 Eu219 2.355 1_655 S
O232 Eu209 2.394 . S
O232 C217 1.251 . S
O233 C217 1.251 . S
O233 Eu219 2.374 1_655 S
O234 C218 1.257 . S
O234 Eu219 2.473 . S
O235 C218 1.260 . S
O235 Eu219 2.480 . S
O236 Eu219 2.430 1_655 S
O236 C226 1.259 . S
O237 Eu209 2.355 . S
O237 Eu219 2.670 1_655 S
O237 C226 1.270 . S
O238 Eu219 2.394 1_655 S
O238 C227 1.251 . S
O239 Eu209 2.374 . S
O239 C227 1.251 . S
H240 C211 0.931 . S
H241 C212 0.931 . S
H242 C214 0.931 . S
H243 C215 0.931 . S
H244 C221 0.931 . S
H245 C222 0.931 . S
H246 C224 0.931 . S
H247 C225 0.931 . S
C248 Eu249 2.835 . S
C248 C250 1.500 . S
C248 O268 1.257 . S
C248 O269 1.260 . S
Eu249 C248 2.835 . S
Eu249 O268 2.473 . S
Eu249 O269 2.480 . S
Eu249 O270 2.430 1_545 S
Eu249 O271 2.670 1_545 S
Eu249 O272 2.394 1_545 S
Eu249 O277 2.350 1_545 S
Eu249 O279 2.374 . S
C250 C248 1.500 . S
C250 C251 1.377 . S
C250 C255 1.377 . S
C251 C250 1.377 . S
C251 C252 1.395 . S
C251 H280 0.931 . S
C252 C251 1.395 . S
C252 C253 1.383 . S
C252 H281 0.931 . S
C253 C252 1.383 . S
C253 C254 1.394 . S
C254 C253 1.394 . S
C254 C255 1.378 . S
C254 H282 0.931 . S
C255 C250 1.377 . S
C255 C254 1.378 . S
C255 H283 0.931 . S
C256 O270 1.259 . S
C256 O271 1.270 . S
C257 O272 1.251 . S
C257 O273 1.251 . S
C258 Eu259 2.835 . S
C258 C260 1.500 . S
C258 O274 1.257 . S
C258 O275 1.260 . S
Eu259 C258 2.835 . S
Eu259 O271 2.355 . S
Eu259 O273 2.374 . S
Eu259 O274 2.473 . S
Eu259 O275 2.480 . S
Eu259 O276 2.430 . S
Eu259 O277 2.690 . S
Eu259 O278 2.394 1_565 S
C260 C258 1.500 . S
C260 C261 1.377 . S
C260 C265 1.377 . S
C261 C260 1.377 . S
C261 C262 1.395 . S
C261 H284 0.931 . S
C262 C261 1.395 . S
C262 C263 1.383 . S
C262 H285 0.931 . S
C263 C262 1.383 . S
C263 C264 1.394 1_455 S
C264 C263 1.394 1_655 S
C264 C265 1.378 1_655 S
C264 H286 0.931 . S
C265 C260 1.377 . S
C265 C264 1.378 1_455 S
C265 H287 0.931 1_455 S
C266 O276 1.259 1_545 S
C266 O277 1.264 1_545 S
C267 O278 1.251 . S
C267 O279 1.251 . S
O268 C248 1.257 . S
O268 Eu249 2.473 . S
O269 C248 1.260 . S
O269 Eu249 2.480 . S
O270 Eu249 2.430 1_565 S
O270 C256 1.259 . S
O271 Eu249 2.670 1_565 S
O271 C256 1.270 . S
O271 Eu259 2.355 . S
O272 Eu249 2.394 1_565 S
O272 C257 1.251 . S
O273 C257 1.251 . S
O273 Eu259 2.374 . S
O274 C258 1.257 . S
O274 Eu259 2.473 . S
O275 C258 1.260 . S
O275 Eu259 2.480 . S
O276 Eu259 2.430 . S
O276 C266 1.259 1_565 S
O277 Eu249 2.350 1_565 S
O277 Eu259 2.690 . S
O277 C266 1.264 1_565 S
O278 Eu259 2.394 1_545 S
O278 C267 1.251 . S
O279 Eu249 2.374 . S
O279 C267 1.251 . S
H280 C251 0.931 . S
H281 C252 0.931 . S
H282 C254 0.931 . S
H283 C255 0.931 . S
H284 C261 0.931 . S
H285 C262 0.931 . S
H286 C264 0.931 . S
H287 C265 0.931 1_655 S
C288 Eu289 2.835 . S
C288 C290 1.500 . S
C288 O308 1.257 . S
C288 O309 1.260 . S
Eu289 C288 2.835 . S
Eu289 O308 2.473 . S
Eu289 O309 2.480 . S
Eu289 O310 2.430 . S
Eu289 O311 2.670 . S
Eu289 O312 2.394 . S
Eu289 O317 2.355 1_455 S
Eu289 O319 2.374 1_455 S
C290 C288 1.500 . S
C290 C291 1.377 . S
C290 C295 1.377 . S
C291 C290 1.377 . S
C291 C292 1.395 . S
C291 H320 0.931 . S
C292 C291 1.395 . S
C292 C293 1.383 . S
C292 H321 0.931 . S
C293 C292 1.383 . S
C293 C294 1.394 . S
C294 C293 1.394 . S
C294 C295 1.378 . S
C294 H322 0.931 . S
C295 C290 1.377 . S
C295 C294 1.378 . S
C295 H323 0.931 . S
C296 O310 1.259 . S
C296 O311 1.270 . S
C297 O312 1.251 . S
C297 O313 1.251 . S
C298 Eu299 2.835 . S
C298 C300 1.500 . S
C298 O314 1.257 . S
C298 O315 1.260 . S
Eu299 C298 2.835 . S
Eu299 O311 2.355 1_655 S
Eu299 O313 2.374 1_655 S
Eu299 O314 2.473 . S
Eu299 O315 2.480 . S
Eu299 O316 2.430 . S
Eu299 O317 2.670 . S
Eu299 O318 2.394 . S
C300 C298 1.500 . S
C300 C301 1.377 . S
C300 C305 1.377 . S
C301 C300 1.377 . S
C301 C302 1.395 . S
C301 H324 0.931 . S
C302 C301 1.395 . S
C302 C303 1.383 . S
C302 H325 0.931 . S
C303 C302 1.383 . S
C303 C304 1.394 . S
C304 C303 1.394 . S
C304 C305 1.378 . S
C304 H326 0.931 . S
C305 C300 1.377 . S
C305 C304 1.378 . S
C305 H327 0.931 . S
C306 O316 1.259 . S
C306 O317 1.270 . S
C307 O318 1.251 . S
C307 O319 1.251 . S
O308 C288 1.257 . S
O308 Eu289 2.473 . S
O309 C288 1.260 . S
O309 Eu289 2.480 . S
O310 Eu289 2.430 . S
O310 C296 1.259 . S
O311 Eu289 2.670 . S
O311 C296 1.270 . S
O311 Eu299 2.355 1_455 S
O312 Eu289 2.394 . S
O312 C297 1.251 . S
O313 C297 1.251 . S
O313 Eu299 2.374 1_455 S
O314 C298 1.257 . S
O314 Eu299 2.473 . S
O315 C298 1.260 . S
O315 Eu299 2.480 . S
O316 Eu299 2.430 . S
O316 C306 1.259 . S
O317 Eu289 2.355 1_655 S
O317 Eu299 2.670 . S
O317 C306 1.270 . S
O318 Eu299 2.394 . S
O318 C307 1.251 . S
O319 Eu289 2.374 1_655 S
O319 C307 1.251 . S
H320 C291 0.931 . S
H321 C292 0.931 . S
H322 C294 0.931 . S
H323 C295 0.931 . S
H324 C301 0.931 . S
H325 C302 0.931 . S
H326 C304 0.931 . S
H327 C305 0.931 . S
C328 Eu329 2.835 1_545 S
C328 C330 1.500 . S
C328 O348 1.257 . S
C328 O349 1.260 . S
Eu329 C328 2.835 1_565 S
Eu329 O348 2.473 1_565 S
Eu329 O349 2.480 1_565 S
Eu329 O350 2.430 . S
Eu329 O351 2.670 . S
Eu329 O352 2.394 1_565 S
Eu329 O357 2.355 1_565 S
Eu329 O359 2.374 . S
C330 C328 1.500 . S
C330 C331 1.377 . S
C330 C335 1.377 . S
C331 C330 1.377 . S
C331 C332 1.395 . S
C331 H360 0.931 . S
C332 C331 1.395 . S
C332 C333 1.383 . S
C332 H361 0.931 . S
C333 C332 1.383 . S
C333 C334 1.394 . S
C334 C333 1.394 . S
C334 C335 1.378 . S
C334 H362 0.931 . S
C335 C330 1.377 . S
C335 C334 1.378 . S
C335 H363 0.931 . S
C336 O350 1.259 . S
C336 O351 1.270 . S
C337 O352 1.251 . S
C337 O353 1.251 . S
C338 Eu339 2.835 1_565 S
C338 C340 1.500 . S
C338 O354 1.257 . S
C338 O355 1.260 . S
Eu339 C338 2.835 1_545 S
Eu339 O351 2.355 1_545 S
Eu339 O353 2.374 . S
Eu339 O354 2.473 1_545 S
Eu339 O355 2.480 1_545 S
Eu339 O356 2.430 . S
Eu339 O357 2.670 . S
Eu339 O358 2.394 1_545 S
C340 C338 1.500 . S
C340 C341 1.377 . S
C340 C345 1.377 . S
C341 C340 1.377 . S
C341 C342 1.395 . S
C341 H364 0.931 . S
C342 C341 1.395 . S
C342 C343 1.383 . S
C342 H365 0.931 . S
C343 C342 1.383 . S
C343 C344 1.394 . S
C344 C343 1.394 . S
C344 C345 1.378 . S
C344 H366 0.931 . S
C345 C340 1.377 . S
C345 C344 1.378 . S
C345 H367 0.931 . S
C346 O356 1.259 . S
C346 O357 1.270 . S
C347 O358 1.251 . S
C347 O359 1.251 . S
O348 C328 1.257 . S
O348 Eu329 2.473 1_545 S
O349 C328 1.260 . S
O349 Eu329 2.480 1_545 S
O350 Eu329 2.430 . S
O350 C336 1.259 . S
O351 Eu329 2.670 . S
O351 C336 1.270 . S
O351 Eu339 2.355 1_565 S
O352 Eu329 2.394 1_545 S
O352 C337 1.251 . S
O353 C337 1.251 . S
O353 Eu339 2.374 . S
O354 C338 1.257 . S
O354 Eu339 2.473 1_565 S
O355 C338 1.260 . S
O355 Eu339 2.480 1_565 S
O356 Eu339 2.430 . S
O356 C346 1.259 . S
O357 Eu329 2.355 1_545 S
O357 Eu339 2.670 . S
O357 C346 1.270 . S
O358 Eu339 2.394 1_565 S
O358 C347 1.251 . S
O359 Eu329 2.374 . S
O359 C347 1.251 . S
H360 C331 0.931 . S
H361 C332 0.931 . S
H362 C334 0.931 . S
H363 C335 0.931 . S
H364 C341 0.931 . S
H365 C342 0.931 . S
H366 C344 0.931 . S
H367 C345 0.931 . S
C368 Eu369 2.835 . S
C368 C370 1.500 . S
C368 O388 1.257 . S
C368 O389 1.260 . S
Eu369 C368 2.835 . S
Eu369 O388 2.473 . S
Eu369 O389 2.480 . S
Eu369 O390 2.430 . S
Eu369 O391 2.670 . S
Eu369 O392 2.394 . S
Eu369 O397 2.355 . S
Eu369 O399 2.374 . S
C370 C368 1.500 . S
C370 C371 1.377 . S
C370 C375 1.377 . S
C371 C370 1.377 . S
C371 C372 1.395 . S
C371 H400 0.931 . S
C372 C371 1.395 . S
C372 C373 1.383 . S
C372 H401 0.931 . S
C373 C372 1.383 . S
C373 C374 1.394 . S
C374 C373 1.394 . S
C374 C375 1.378 . S
C374 H402 0.931 . S
C375 C370 1.377 . S
C375 C374 1.378 . S
C375 H403 0.931 . S
C376 O390 1.259 . S
C376 O391 1.270 . S
C377 O392 1.251 . S
C377 O393 1.251 . S
C378 Eu379 2.835 . S
C378 C380 1.500 . S
C378 O394 1.257 . S
C378 O395 1.260 . S
Eu379 C378 2.835 . S
Eu379 O391 2.355 . S
Eu379 O393 2.374 . S
Eu379 O394 2.473 . S
Eu379 O395 2.480 . S
Eu379 O396 2.430 . S
Eu379 O397 2.670 . S
Eu379 O398 2.394 . S
C380 C378 1.500 . S
C380 C381 1.377 . S
C380 C385 1.377 . S
C381 C380 1.377 . S
C381 C382 1.395 . S
C381 H404 0.931 . S
C382 C381 1.395 . S
C382 C383 1.383 . S
C382 H405 0.931 . S
C383 C382 1.383 . S
C383 C384 1.394 . S
C384 C383 1.394 . S
C384 C385 1.378 . S
C384 H406 0.931 . S
C385 C380 1.377 . S
C385 C384 1.378 . S
C385 H407 0.931 . S
C386 O396 1.259 . S
C386 O397 1.270 . S
C387 O398 1.251 . S
C387 O399 1.251 . S
O388 C368 1.257 . S
O388 Eu369 2.473 . S
O389 C368 1.260 . S
O389 Eu369 2.480 . S
O390 Eu369 2.430 . S
O390 C376 1.259 . S
O391 Eu369 2.670 . S
O391 C376 1.270 . S
O391 Eu379 2.355 . S
O392 Eu369 2.394 . S
O392 C377 1.251 . S
O393 C377 1.251 . S
O393 Eu379 2.374 . S
O394 C378 1.257 . S
O394 Eu379 2.473 . S
O395 C378 1.260 . S
O395 Eu379 2.480 . S
O396 Eu379 2.430 . S
O396 C386 1.259 . S
O397 Eu369 2.355 . S
O397 Eu379 2.670 . S
O397 C386 1.270 . S
O398 Eu379 2.394 . S
O398 C387 1.251 . S
O399 Eu369 2.374 . S
O399 C387 1.251 . S
H400 C371 0.931 . S
H401 C372 0.931 . S
H402 C374 0.931 . S
H403 C375 0.931 . S
H404 C381 0.931 . S
H405 C382 0.931 . S
H406 C384 0.931 . S
H407 C385 0.931 . S
C408 Eu409 2.835 . S
C408 C410 1.500 . S
C408 O428 1.257 . S
C408 O429 1.260 . S
Eu409 C408 2.835 . S
Eu409 O428 2.473 . S
Eu409 O429 2.480 . S
Eu409 O430 2.430 . S
Eu409 O431 2.670 1_554 S
Eu409 O432 2.394 . S
Eu409 O437 2.355 1_554 S
Eu409 O439 2.374 1_554 S
C410 C408 1.500 . S
C410 C411 1.377 . S
C410 C415 1.377 . S
C411 C410 1.377 . S
C411 C412 1.395 . S
C411 H440 0.931 . S
C412 C411 1.395 . S
C412 C413 1.383 . S
C412 H441 0.931 . S
C413 C412 1.383 . S
C413 C414 1.394 . S
C414 C413 1.394 . S
C414 C415 1.378 . S
C414 H442 0.931 . S
C415 C410 1.377 . S
C415 C414 1.378 . S
C415 H443 0.931 . S
C416 O430 1.259 . S
C416 O431 1.270 1_554 S
C417 O432 1.251 . S
C417 O433 1.251 1_554 S
C418 Eu419 2.835 . S
C418 C420 1.500 . S
C418 O434 1.257 . S
C418 O435 1.260 . S
Eu419 C418 2.835 . S
Eu419 O431 2.355 . S
Eu419 O433 2.374 . S
Eu419 O434 2.473 . S
Eu419 O435 2.480 . S
Eu419 O436 2.430 . S
Eu419 O437 2.670 . S
Eu419 O438 2.394 . S
C420 C418 1.500 . S
C420 C421 1.377 . S
C420 C425 1.377 . S
C421 C420 1.377 . S
C421 C422 1.395 . S
C421 H444 0.931 . S
C422 C421 1.395 . S
C422 C423 1.383 . S
C422 H445 0.931 . S
C423 C422 1.383 . S
C423 C424 1.394 . S
C424 C423 1.394 . S
C424 C425 1.378 . S
C424 H446 0.931 . S
C425 C420 1.377 . S
C425 C424 1.378 . S
C425 H447 0.931 . S
C426 O436 1.259 . S
C426 O437 1.270 . S
C427 O438 1.251 . S
C427 O439 1.251 . S
O428 C408 1.257 . S
O428 Eu409 2.473 . S
O429 C408 1.260 . S
O429 Eu409 2.480 . S
O430 Eu409 2.430 . S
O430 C416 1.259 . S
O431 Eu409 2.670 1_556 S
O431 C416 1.270 1_556 S
O431 Eu419 2.355 . S
O432 Eu409 2.394 . S
O432 C417 1.251 . S
O433 C417 1.251 1_556 S
O433 Eu419 2.374 . S
O434 C418 1.257 . S
O434 Eu419 2.473 . S
O435 C418 1.260 . S
O435 Eu419 2.480 . S
O436 Eu419 2.430 . S
O436 C426 1.259 . S
O437 Eu409 2.355 1_556 S
O437 Eu419 2.670 . S
O437 C426 1.270 . S
O438 Eu419 2.394 . S
O438 C427 1.251 . S
O439 Eu409 2.374 1_556 S
O439 C427 1.251 . S
H440 C411 0.931 . S
H441 C412 0.931 . S
H442 C414 0.931 . S
H443 C415 0.931 . S
H444 C421 0.931 . S
H445 C422 0.931 . S
H446 C424 0.931 . S
H447 C425 0.931 . S
C448 Eu449 2.835 . S
C448 C450 1.500 1_554 S
C448 O468 1.257 . S
C448 O469 1.260 . S
Eu449 C448 2.835 . S
Eu449 O468 2.473 . S
Eu449 O469 2.480 . S
Eu449 O470 2.430 1_544 S
Eu449 O471 2.670 1_554 S
Eu449 O472 2.394 1_554 S
Eu449 O477 2.355 . S
Eu449 O479 2.374 . S
C450 C448 1.500 1_556 S
C450 C451 1.377 . S
C450 C455 1.377 . S
C451 C450 1.377 . S
C451 C452 1.395 . S
C451 H480 0.931 . S
C452 C451 1.395 . S
C452 C453 1.383 . S
C452 H481 0.931 . S
C453 C452 1.383 . S
C453 C454 1.394 . S
C454 C453 1.394 . S
C454 C455 1.378 . S
C454 H482 0.931 . S
C455 C450 1.377 . S
C455 C454 1.378 . S
C455 H483 0.931 . S
C456 O470 1.259 . S
C456 O471 1.270 1_565 S
C457 O472 1.251 . S
C457 O473 1.251 . S
C458 Eu459 2.835 . S
C458 C460 1.500 1_556 S
C458 O474 1.268 . S
C458 O475 1.260 . S
Eu459 C458 2.835 . S
Eu459 O471 2.355 . S
Eu459 O473 2.374 . S
Eu459 O474 2.492 . S
Eu459 O475 2.480 . S
Eu459 O476 2.430 1_556 S
Eu459 O477 2.670 1_556 S
Eu459 O478 2.394 1_556 S
C460 C458 1.500 1_554 S
C460 C461 1.377 . S
C460 C465 1.377 1_545 S
C461 C460 1.377 . S
C461 C462 1.395 . S
C461 H484 0.931 . S
C462 C461 1.395 . S
C462 C463 1.383 1_545 S
C462 H485 0.931 . S
C463 C462 1.383 1_565 S
C463 C464 1.394 . S
C464 C463 1.394 . S
C464 C465 1.378 . S
C464 H486 0.931 . S
C465 C460 1.377 1_565 S
C465 C464 1.378 . S
C465 H487 0.931 . S
C466 O476 1.259 . S
C466 O477 1.270 . S
C467 O478 1.251 . S
C467 O479 1.251 . S
O468 C448 1.257 . S
O468 Eu449 2.473 . S
O469 C448 1.260 . S
O469 Eu449 2.480 . S
O470 Eu449 2.430 1_566 S
O470 C456 1.259 . S
O471 Eu449 2.670 1_556 S
O471 C456 1.270 1_545 S
O471 Eu459 2.355 . S
O472 Eu449 2.394 1_556 S
O472 C457 1.251 . S
O473 C457 1.251 . S
O473 Eu459 2.374 . S
O474 C458 1.268 . S
O474 Eu459 2.492 . S
O475 C458 1.260 . S
O475 Eu459 2.480 . S
O476 Eu459 2.430 1_554 S
O476 C466 1.259 . S
O477 Eu449 2.355 . S
O477 Eu459 2.670 1_554 S
O477 C466 1.270 . S
O478 Eu459 2.394 1_554 S
O478 C467 1.251 . S
O479 Eu449 2.374 . S
O479 C467 1.251 . S
H480 C451 0.931 . S
H481 C452 0.931 . S
H482 C454 0.931 . S
H483 C455 0.931 . S
H484 C461 0.931 . S
H485 C462 0.931 . S
H486 C464 0.931 . S
H487 C465 0.931 . S
C488 C489 1.369 . S
C488 C490 1.419 . S
C488 H492 0.930 . S
C489 C488 1.369 . S
C489 C498 1.429 . S
C490 C488 1.419 . S
C490 C491 1.363 . S
C490 H493 0.929 . S
C491 C490 1.363 . S
C491 C497 1.428 . S
H492 C488 0.930 . S
H493 C490 0.929 . S
S494 N495 1.613 . S
S494 N496 1.610 . S
N495 S494 1.613 . S
N495 C498 1.350 . S
N496 S494 1.610 . S
N496 C497 1.351 . S
C497 C491 1.428 . S
C497 N496 1.351 . S
C497 C498 1.434 . S
C498 C489 1.429 . S
C498 N495 1.350 . S
C498 C497 1.434 . S
C499 C500 1.369 . S
C499 C501 1.419 . S
C499 H503 0.930 . S
C500 C499 1.369 . S
C500 C509 1.429 . S
C501 C499 1.419 . S
C501 C502 1.363 . S
C501 H504 0.929 . S
C502 C501 1.363 . S
C502 C508 1.428 . S
H503 C499 0.930 . S
H504 C501 0.929 . S
S505 N506 1.613 . S
S505 N507 1.610 . S
N506 S505 1.613 . S
N506 C509 1.350 1_655 S
N507 S505 1.610 . S
N507 C508 1.351 1_655 S
C508 C502 1.428 . S
C508 N507 1.351 1_455 S
C508 C509 1.434 . S
C509 C500 1.429 . S
C509 N506 1.350 1_455 S
C509 C508 1.434 . S
C510 C511 1.369 1_655 S
C510 C512 1.419 . S
C510 H514 0.930 . S
C511 C510 1.369 1_455 S
C511 C520 1.429 . S
C512 C510 1.419 . S
C512 C513 1.363 1_655 S
C512 H515 0.929 . S
C513 C512 1.363 1_455 S
C513 C519 1.428 . S
H514 C510 0.930 . S
H515 C512 0.929 . S
S516 N517 1.613 . S
S516 N518 1.610 . S
N517 S516 1.613 . S
N517 C520 1.350 . S
N518 S516 1.610 . S
N518 C519 1.351 . S
C519 C513 1.428 . S
C519 N518 1.351 . S
C519 C520 1.434 . S
C520 C511 1.429 . S
C520 N517 1.350 . S
C520 C519 1.434 . S
C521 C522 1.361 1_455 S
C521 C523 1.413 1_455 S
C521 H525 0.945 . S
C522 C521 1.361 1_655 S
C522 C531 1.429 . S
C523 C521 1.413 1_655 S
C523 C524 1.363 . S
C523 H526 0.929 1_655 S
C524 C523 1.363 . S
C524 C530 1.428 . S
H525 C521 0.945 . S
H526 C523 0.929 1_455 S
S527 N528 1.613 . S
S527 N529 1.610 . S
N528 S527 1.613 . S
N528 C531 1.350 . S
N529 S527 1.610 . S
N529 C530 1.351 . S
C530 C524 1.428 . S
C530 N529 1.351 . S
C530 C531 1.434 . S
C531 C522 1.429 . S
C531 N528 1.350 . S
C531 C530 1.434 . S
C532 C533 1.369 . S
C532 C534 1.419 . S
C532 H536 0.930 . S
C533 C532 1.369 . S
C533 C542 1.429 1_545 S
C534 C532 1.419 . S
C534 C535 1.363 . S
C534 H537 0.929 . S
C535 C534 1.363 . S
C535 C541 1.428 1_545 S
H536 C532 0.930 . S
H537 C534 0.929 . S
S538 N539 1.613 . S
S538 N540 1.610 . S
N539 S538 1.613 . S
N539 C542 1.350 . S
N540 S538 1.610 . S
N540 C541 1.351 . S
C541 C535 1.428 1_565 S
C541 N540 1.351 . S
C541 C542 1.434 . S
C542 C533 1.429 1_565 S
C542 N539 1.350 . S
C542 C541 1.434 . S
C543 C544 1.369 . S
C543 C545 1.419 . S
C543 H547 0.930 . S
C544 C543 1.369 . S
C544 C553 1.429 . S
C545 C543 1.419 . S
C545 C546 1.363 . S
C545 H548 0.929 . S
C546 C545 1.363 . S
C546 C552 1.428 . S
H547 C543 0.930 . S
H548 C545 0.929 . S
S549 N550 1.613 . S
S549 N551 1.610 . S
N550 S549 1.613 . S
N550 C553 1.350 . S
N551 S549 1.610 . S
N551 C552 1.351 . S
C552 C546 1.428 . S
C552 N551 1.351 . S
C552 C553 1.434 . S
C553 C544 1.429 . S
C553 N550 1.350 . S
C553 C552 1.434 . S
C554 C555 1.369 . S
C554 C556 1.419 . S
C554 H558 0.930 . S
C555 C554 1.369 . S
C555 C564 1.429 . S
C556 C554 1.419 . S
C556 C557 1.363 . S
C556 H559 0.929 . S
C557 C556 1.363 . S
C557 C563 1.428 . S
H558 C554 0.930 . S
H559 C556 0.929 . S
S560 N561 1.613 . S
S560 N562 1.610 . S
N561 S560 1.613 . S
N561 C564 1.350 . S
N562 S560 1.610 . S
N562 C563 1.351 . S
C563 C557 1.428 . S
C563 N562 1.351 . S
C563 C564 1.434 . S
C564 C555 1.429 . S
C564 N561 1.350 . S
C564 C563 1.434 . S
C565 C566 1.369 . S
C565 C567 1.419 . S
C565 H569 0.930 . S
C566 C565 1.369 . S
C566 C575 1.429 . S
C567 C565 1.419 . S
C567 C568 1.363 . S
C567 H570 0.929 . S
C568 C567 1.363 . S
C568 C574 1.428 . S
H569 C565 0.930 . S
H570 C567 0.929 . S
S571 N572 1.613 . S
S571 N573 1.610 . S
N572 S571 1.613 . S
N572 C575 1.350 . S
N573 S571 1.610 . S
N573 C574 1.351 . S
C574 C568 1.428 . S
C574 N573 1.351 . S
C574 C575 1.434 . S
C575 C566 1.429 . S
C575 N572 1.350 . S
C575 C574 1.434 . S
C576 C577 1.359 1_556 S
C576 C578 1.419 . S
C576 H580 0.930 . S
C577 C576 1.359 1_554 S
C577 C586 1.434 . S
C578 C576 1.419 . S
C578 C579 1.363 . S
C578 H581 0.929 . S
C579 C578 1.363 . S
C579 C585 1.428 1_556 S
H580 C576 0.930 . S
H581 C578 0.929 . S
S582 N583 1.613 . S
S582 N584 1.610 . S
N583 S582 1.613 . S
N583 C586 1.350 . S
N584 S582 1.610 . S
N584 C585 1.351 . S
C585 C579 1.428 1_554 S
C585 N584 1.351 . S
C585 C586 1.434 . S
C586 C577 1.434 . S
C586 N583 1.350 . S
C586 C585 1.434 . S
C587 C588 1.369 . S
C587 C589 1.419 . S
C587 H591 0.930 . S
C588 C587 1.369 . S
C588 C597 1.429 . S
C589 C587 1.419 . S
C589 C590 1.363 . S
C589 H592 0.929 . S
C590 C589 1.363 . S
C590 C596 1.428 . S
H591 C587 0.930 . S
H592 C589 0.929 . S
S593 N594 1.613 . S
S593 N595 1.610 . S
N594 S593 1.613 . S
N594 C597 1.350 . S
N595 S593 1.610 . S
N595 C596 1.351 . S
C596 C590 1.428 . S
C596 N595 1.351 . S
C596 C597 1.434 . S
C597 C588 1.429 . S
C597 N594 1.350 . S
C597 C596 1.434 . S
C598 C599 1.369 . S
C598 C600 1.419 . S
C598 H602 0.930 . S
C599 C598 1.369 . S
C599 C608 1.429 . S
C600 C598 1.419 . S
C600 C601 1.363 . S
C600 H603 0.929 . S
C601 C600 1.363 . S
C601 C607 1.428 1_655 S
H602 C598 0.930 . S
H603 C600 0.929 . S
S604 N605 1.613 1_455 S
S604 N606 1.610 . S
N605 S604 1.613 1_655 S
N605 C608 1.350 . S
N606 S604 1.610 . S
N606 C607 1.351 . S
C607 C601 1.428 1_455 S
C607 N606 1.351 . S
C607 C608 1.434 1_455 S
C608 C599 1.429 . S
C608 N605 1.350 . S
C608 C607 1.434 1_655 S
C609 C610 1.369 . S
C609 C611 1.419 . S
C609 H613 0.930 . S
C610 C609 1.369 . S
C610 C619 1.429 . S
C611 C609 1.419 . S
C611 C612 1.363 . S
C611 H614 0.929 . S
C612 C611 1.363 . S
C612 C618 1.428 . S
H613 C609 0.930 . S
H614 C611 0.929 . S
S615 N616 1.613 . S
S615 N617 1.610 . S
N616 S615 1.613 . S
N616 C619 1.350 . S
N617 S615 1.610 . S
N617 C618 1.351 . S
C618 C612 1.428 . S
C618 N617 1.351 . S
C618 C619 1.434 . S
C619 C610 1.429 . S
C619 N616 1.350 . S
C619 C618 1.434 . S
C620 C621 1.369 . S
C620 C622 1.419 . S
C620 H624 0.930 . S
C621 C620 1.369 . S
C621 C630 1.429 . S
C622 C620 1.419 . S
C622 C623 1.363 . S
C622 H625 0.929 . S
C623 C622 1.363 . S
C623 C629 1.428 . S
H624 C620 0.930 . S
H625 C622 0.929 . S
S626 N627 1.613 . S
S626 N628 1.610 . S
N627 S626 1.613 . S
N627 C630 1.350 . S
N628 S626 1.610 . S
N628 C629 1.351 . S
C629 C623 1.428 . S
C629 N628 1.351 . S
C629 C630 1.434 . S
C630 C621 1.429 . S
C630 N627 1.350 . S
C630 C629 1.434 . S
C631 C632 1.369 . S
C631 C633 1.419 . S
C631 H635 0.930 . S
C632 C631 1.369 . S
C632 C641 1.429 . S
C633 C631 1.419 . S
C633 C634 1.363 . S
C633 H636 0.929 . S
C634 C633 1.363 . S
C634 C640 1.428 . S
H635 C631 0.930 . S
H636 C633 0.929 . S
S637 N638 1.613 . S
S637 N639 1.610 . S
N638 S637 1.613 . S
N638 C641 1.350 . S
N639 S637 1.610 . S
N639 C640 1.351 . S
C640 C634 1.428 . S
C640 N639 1.351 . S
C640 C641 1.434 . S
C641 C632 1.429 . S
C641 N638 1.350 . S
C641 C640 1.434 . S
C642 C643 1.369 . S
C642 C644 1.419 . S
C642 H646 0.930 . S
C643 C642 1.369 . S
C643 C652 1.429 . S
C644 C642 1.419 . S
C644 C645 1.363 . S
C644 H647 0.929 . S
C645 C644 1.363 . S
C645 C651 1.428 . S
H646 C642 0.930 . S
H647 C644 0.929 . S
S648 N649 1.613 . S
S648 N650 1.610 . S
N649 S648 1.613 . S
N649 C652 1.350 . S
N650 S648 1.610 . S
N650 C651 1.351 . S
C651 C645 1.428 . S
C651 N650 1.351 . S
C651 C652 1.434 . S
C652 C643 1.429 . S
C652 N649 1.350 . S
C652 C651 1.434 . S
C653 C654 1.369 . S
C653 C655 1.419 . S
C653 H657 0.930 . S
C654 C653 1.369 . S
C654 C663 1.429 . S
C655 C653 1.419 . S
C655 C656 1.363 . S
C655 H658 0.929 . S
C656 C655 1.363 . S
C656 C662 1.428 . S
H657 C653 0.930 . S
H658 C655 0.929 . S
S659 N660 1.613 . S
S659 N661 1.610 . S
N660 S659 1.613 . S
N660 C663 1.350 . S
N661 S659 1.610 . S
N661 C662 1.351 . S
C662 C656 1.428 . S
C662 N661 1.351 . S
C662 C663 1.434 . S
C663 C654 1.429 . S
C663 N660 1.350 . S
C663 C662 1.434 . S
C664 C665 1.369 . S
C664 C666 1.419 . S
C664 H668 0.930 . S
C665 C664 1.369 . S
C665 C674 1.429 . S
C666 C664 1.419 . S
C666 C667 1.363 . S
C666 H669 0.929 . S
C667 C666 1.363 . S
C667 C673 1.428 . S
H668 C664 0.930 . S
H669 C666 0.929 . S
S670 N671 1.613 . S
S670 N672 1.610 . S
N671 S670 1.613 . S
N671 C674 1.350 . S
N672 S670 1.610 . S
N672 C673 1.351 . S
C673 C667 1.428 . S
C673 N672 1.351 . S
C673 C674 1.434 . S
C674 C665 1.429 . S
C674 N671 1.350 . S
C674 C673 1.434 . S
C675 C676 1.369 1_565 S
C675 C677 1.419 . S
C675 H679 0.930 . S
C676 C675 1.369 1_545 S
C676 C685 1.429 . S
C677 C675 1.419 . S
C677 C678 1.363 1_565 S
C677 H680 0.929 . S
C678 C677 1.363 1_545 S
C678 C684 1.428 . S
H679 C675 0.930 . S
H680 C677 0.929 . S
S681 N682 1.613 . S
S681 N683 1.610 . S
N682 S681 1.613 . S
N682 C685 1.350 . S
N683 S681 1.610 . S
N683 C684 1.351 . S
C684 C678 1.428 . S
C684 N683 1.351 . S
C684 C685 1.434 . S
C685 C676 1.429 . S
C685 N682 1.350 . S
C685 C684 1.434 . S
C686 C687 1.369 . S
C686 C688 1.419 . S
C686 H690 0.930 . S
C687 C686 1.369 . S
C687 C696 1.429 . S
C688 C686 1.419 . S
C688 C689 1.363 . S
C688 H691 0.929 . S
C689 C688 1.363 . S
C689 C695 1.428 . S
H690 C686 0.930 . S
H691 C688 0.929 . S
S692 N693 1.613 . S
S692 N694 1.610 . S
N693 S692 1.613 . S
N693 C696 1.350 . S
N694 S692 1.610 . S
N694 C695 1.351 . S
C695 C689 1.428 . S
C695 N694 1.351 . S
C695 C696 1.434 . S
C696 C687 1.429 . S
C696 N693 1.350 . S
C696 C695 1.434 . S
C697 C698 1.369 . S
C697 C699 1.419 1_556 S
C697 H701 0.930 1_545 S
C698 C697 1.369 . S
C698 C707 1.429 . S
C699 C697 1.419 1_554 S
C699 C700 1.363 . S
C699 H702 0.929 1_545 S
C700 C699 1.363 . S
C700 C706 1.428 1_554 S
H701 C697 0.930 1_565 S
H702 C699 0.929 1_565 S
S703 N704 1.613 . S
S703 N705 1.610 . S
N704 S703 1.613 . S
N704 C707 1.350 . S
N705 S703 1.610 . S
N705 C706 1.351 . S
C706 C700 1.428 1_556 S
C706 N705 1.351 . S
C706 C707 1.434 . S
C707 C698 1.429 . S
C707 N704 1.350 . S
C707 C706 1.434 . S
C708 C709 1.369 . S
C708 C710 1.419 . S
C708 H712 0.930 . S
C709 C708 1.369 . S
C709 C718 1.429 . S
C710 C708 1.419 . S
C710 C711 1.363 . S
C710 H713 0.929 . S
C711 C710 1.363 . S
C711 C717 1.428 . S
H712 C708 0.930 . S
H713 C710 0.929 . S
S714 N715 1.613 . S
S714 N716 1.610 . S
N715 S714 1.613 . S
N715 C718 1.350 . S
N716 S714 1.610 . S
N716 C717 1.351 . S
C717 C711 1.428 . S
C717 N716 1.351 . S
C717 C718 1.434 . S
C718 C709 1.429 . S
C718 N715 1.350 . S
C718 C717 1.434 . S
C719 C720 1.369 1_554 S
C719 C721 1.419 . S
C719 H723 0.930 . S
C720 C719 1.369 1_556 S
C720 C729 1.429 . S
C721 C719 1.419 . S
C721 C722 1.363 1_554 S
C721 H724 0.929 . S
C722 C721 1.363 1_556 S
C722 C728 1.428 . S
H723 C719 0.930 . S
H724 C721 0.929 . S
S725 N726 1.613 . S
S725 N727 1.610 . S
N726 S725 1.613 . S
N726 C729 1.350 . S
N727 S725 1.610 . S
N727 C728 1.351 . S
C728 C722 1.428 . S
C728 N727 1.351 . S
C728 C729 1.434 . S
C729 C720 1.429 . S
C729 N726 1.350 . S
C729 C728 1.434 . S
C730 C731 1.369 1_554 S
C730 C732 1.419 . S
C730 H734 0.930 . S
C731 C730 1.369 1_556 S
C731 C740 1.429 . S
C732 C730 1.419 . S
C732 C733 1.363 . S
C732 H735 0.929 . S
C733 C732 1.363 . S
C733 C739 1.428 1_554 S
H734 C730 0.930 . S
H735 C732 0.929 . S
S736 N737 1.613 . S
S736 N738 1.610 . S
N737 S736 1.613 . S
N737 C740 1.350 . S
N738 S736 1.610 . S
N738 C739 1.351 . S
C739 C733 1.428 1_556 S
C739 N738 1.351 . S
C739 C740 1.434 . S
C740 C731 1.429 . S
C740 N737 1.350 . S
C740 C739 1.434 . S
C741 C742 1.369 . S
C741 C743 1.419 1_655 S
C741 H745 0.930 . S
C742 C741 1.369 . S
C742 C751 1.429 . S
C743 C741 1.419 1_455 S
C743 C744 1.363 . S
C743 H746 0.929 . S
C744 C743 1.363 . S
C744 C750 1.428 1_455 S
H745 C741 0.930 . S
H746 C743 0.929 . S
S747 N748 1.613 . S
S747 N749 1.610 1_556 S
N748 S747 1.613 . S
N748 C751 1.350 1_556 S
N749 S747 1.610 1_554 S
N749 C750 1.351 . S
C750 C744 1.428 1_655 S
C750 N749 1.351 . S
C750 C751 1.434 . S
C751 C742 1.429 . S
C751 N748 1.350 1_554 S
C751 C750 1.434 . S
C752 C753 1.369 . S
C752 C754 1.419 . S
C752 H756 0.930 . S
C753 C752 1.369 . S
C753 C762 1.429 . S
C754 C752 1.419 . S
C754 C755 1.363 . S
C754 H757 0.929 . S
C755 C754 1.363 . S
C755 C761 1.428 . S
H756 C752 0.930 . S
H757 C754 0.929 . S
S758 N759 1.613 . S
S758 N760 1.610 . S
N759 S758 1.613 . S
N759 C762 1.350 . S
N760 S758 1.610 . S
N760 C761 1.351 . S
C761 C755 1.428 . S
C761 N760 1.351 . S
C761 C762 1.434 . S
C762 C753 1.429 . S
C762 N759 1.350 . S
C762 C761 1.434 . S
C763 C764 1.369 . S
C763 C765 1.419 . S
C763 H767 0.930 . S
C764 C763 1.369 . S
C764 C773 1.429 1_455 S
C765 C763 1.419 . S
C765 C766 1.363 . S
C765 H768 0.929 . S
C766 C765 1.363 . S
C766 C772 1.428 1_455 S
H767 C763 0.930 . S
H768 C765 0.929 . S
S769 N770 1.613 . S
S769 N771 1.610 . S
N770 S769 1.613 . S
N770 C773 1.350 . S
N771 S769 1.610 . S
N771 C772 1.351 . S
C772 C766 1.428 1_655 S
C772 N771 1.351 . S
C772 C773 1.434 . S
C773 C764 1.429 1_655 S
C773 N770 1.350 . S
C773 C772 1.434 . S
C774 C775 1.369 . S
C774 C776 1.419 . S
C774 H778 0.930 . S
C775 C774 1.369 . S
C775 C784 1.429 . S
C776 C774 1.419 . S
C776 C777 1.364 . S
C776 H779 0.928 1_455 S
C777 C776 1.364 . S
C777 C783 1.429 . S
H778 C774 0.930 . S
H779 C776 0.928 1_655 S
S780 N781 1.613 . S
S780 N782 1.610 . S
N781 S780 1.613 . S
N781 C784 1.350 . S
N782 S780 1.610 . S
N782 C783 1.351 . S
C783 C777 1.429 . S
C783 N782 1.351 . S
C783 C784 1.434 . S
C784 C775 1.429 . S
C784 N781 1.350 . S
C784 C783 1.434 . S
C785 C786 1.369 1_655 S
C785 C787 1.419 . S
C785 H789 0.930 . S
C786 C785 1.369 1_455 S
C786 C795 1.429 . S
C787 C785 1.419 . S
C787 C788 1.363 1_655 S
C787 H790 0.929 . S
C788 C787 1.363 1_455 S
C788 C794 1.428 . S
H789 C785 0.930 . S
H790 C787 0.929 . S
S791 N792 1.613 . S
S791 N793 1.610 . S
N792 S791 1.613 . S
N792 C795 1.350 . S
N793 S791 1.610 . S
N793 C794 1.351 . S
C794 C788 1.428 . S
C794 N793 1.351 . S
C794 C795 1.434 . S
C795 C786 1.429 . S
C795 N792 1.350 . S
C795 C794 1.434 . S
C796 C797 1.369 . S
C796 C798 1.419 . S
C796 H800 0.930 . S
C797 C796 1.369 . S
C797 C806 1.429 1_545 S
C798 C796 1.419 . S
C798 C799 1.363 . S
C798 H801 0.929 . S
C799 C798 1.363 . S
C799 C805 1.428 1_545 S
H800 C796 0.930 . S
H801 C798 0.929 . S
S802 N803 1.613 . S
S802 N804 1.610 . S
N803 S802 1.613 . S
N803 C806 1.350 . S
N804 S802 1.610 . S
N804 C805 1.351 . S
C805 C799 1.428 1_565 S
C805 N804 1.351 . S
C805 C806 1.434 . S
C806 C797 1.429 1_565 S
C806 N803 1.350 . S
C806 C805 1.434 . S
C807 C808 1.369 . S
C807 C809 1.419 . S
C807 H811 0.930 . S
C808 C807 1.369 . S
C808 C817 1.429 . S
C809 C807 1.419 . S
C809 C810 1.363 . S
C809 H812 0.929 . S
C810 C809 1.363 . S
C810 C816 1.428 . S
H811 C807 0.930 . S
H812 C809 0.929 . S
S813 N814 1.613 . S
S813 N815 1.610 . S
N814 S813 1.613 . S
N814 C817 1.350 . S
N815 S813 1.610 . S
N815 C816 1.351 . S
C816 C810 1.428 . S
C816 N815 1.351 . S
C816 C817 1.434 . S
C817 C808 1.429 . S
C817 N814 1.350 . S
C817 C816 1.434 . S
C818 C819 1.369 1_545 S
C818 C820 1.419 . S
C818 H822 0.930 . S
C819 C818 1.369 1_565 S
C819 C828 1.429 . S
C820 C818 1.419 . S
C820 C821 1.363 . S
C820 H823 0.929 . S
C821 C820 1.363 . S
C821 C827 1.428 1_545 S
H822 C818 0.930 . S
H823 C820 0.929 . S
S824 N825 1.613 . S
S824 N826 1.610 . S
N825 S824 1.613 . S
N825 C828 1.350 . S
N826 S824 1.610 . S
N826 C827 1.351 . S
C827 C821 1.428 1_565 S
C827 N826 1.351 . S
C827 C828 1.434 . S
C828 C819 1.429 . S
C828 N825 1.350 . S
C828 C827 1.434 . S
C829 C830 1.369 . S
C829 C831 1.419 . S
C829 H833 0.930 . S
C830 C829 1.369 . S
C830 C839 1.429 . S
C831 C829 1.419 . S
C831 C832 1.363 . S
C831 H834 0.929 . S
C832 C831 1.363 . S
C832 C838 1.428 . S
H833 C829 0.930 . S
H834 C831 0.929 . S
S835 N836 1.613 . S
S835 N837 1.610 . S
N836 S835 1.613 . S
N836 C839 1.350 . S
N837 S835 1.610 . S
N837 C838 1.351 . S
C838 C832 1.428 . S
C838 N837 1.351 . S
C838 C839 1.434 . S
C839 C830 1.429 . S
C839 N836 1.350 . S
C839 C838 1.434 . S
C840 C841 1.369 . S
C840 C842 1.419 . S
C840 H844 0.930 . S
C841 C840 1.369 . S
C841 C850 1.429 1_554 S
C842 C840 1.419 . S
C842 C843 1.363 1_554 S
C842 H845 0.929 . S
C843 C842 1.363 1_556 S
C843 C849 1.428 . S
H844 C840 0.930 . S
H845 C842 0.929 . S
S846 N847 1.613 . S
S846 N848 1.610 . S
N847 S846 1.613 . S
N847 C850 1.350 . S
N848 S846 1.610 . S
N848 C849 1.351 . S
C849 C843 1.428 . S
C849 N848 1.351 . S
C849 C850 1.434 . S
C850 C841 1.429 1_556 S
C850 N847 1.350 . S
C850 C849 1.434 . S
C851 C852 1.369 . S
C851 C853 1.419 . S
C851 H855 0.930 . S
C852 C851 1.369 . S
C852 C861 1.429 . S
C853 C851 1.419 . S
C853 C854 1.363 . S
C853 H856 0.929 . S
C854 C853 1.363 . S
C854 C860 1.428 . S
H855 C851 0.930 . S
H856 C853 0.929 . S
S857 N858 1.613 . S
S857 N859 1.610 . S
N858 S857 1.613 . S
N858 C861 1.350 . S
N859 S857 1.610 . S
N859 C860 1.351 . S
C860 C854 1.428 . S
C860 N859 1.351 . S
C860 C861 1.434 . S
C861 C852 1.429 . S
C861 N858 1.350 . S
C861 C860 1.434 . S
C862 C863 1.369 . S
C862 C864 1.419 . S
C862 H866 0.930 . S
C863 C862 1.369 . S
C863 C872 1.429 . S
C864 C862 1.419 . S
C864 C865 1.363 . S
C864 H867 0.929 . S
C865 C864 1.363 . S
C865 C871 1.428 . S
H866 C862 0.930 . S
H867 C864 0.929 . S
S868 N869 1.613 . S
S868 N870 1.610 . S
N869 S868 1.613 . S
N869 C872 1.350 . S
N870 S868 1.610 . S
N870 C871 1.351 . S
C871 C865 1.428 . S
C871 N870 1.351 . S
C871 C872 1.434 . S
C872 C863 1.429 . S
C872 N869 1.350 . S
C872 C871 1.434 . S
C873 C874 1.369 . S
C873 C875 1.419 . S
C873 H877 0.930 . S
C874 C873 1.369 . S
C874 C883 1.429 . S
C875 C873 1.419 . S
C875 C876 1.363 . S
C875 H878 0.929 . S
C876 C875 1.363 . S
C876 C882 1.428 . S
H877 C873 0.930 . S
H878 C875 0.929 . S
S879 N880 1.613 . S
S879 N881 1.610 . S
N880 S879 1.613 . S
N880 C883 1.350 . S
N881 S879 1.610 . S
N881 C882 1.351 . S
C882 C876 1.428 . S
C882 N881 1.351 . S
C882 C883 1.434 . S
C883 C874 1.429 . S
C883 N880 1.350 . S
C883 C882 1.434 . S
C884 C885 1.369 . S
C884 C886 1.419 . S
C884 H888 0.930 . S
C885 C884 1.369 . S
C885 C894 1.429 . S
C886 C884 1.419 . S
C886 C887 1.363 . S
C886 H889 0.929 . S
C887 C886 1.363 . S
C887 C893 1.428 . S
H888 C884 0.930 . S
H889 C886 0.929 . S
S890 N891 1.613 . S
S890 N892 1.610 . S
N891 S890 1.613 . S
N891 C894 1.350 . S
N892 S890 1.610 . S
N892 C893 1.351 . S
C893 C887 1.428 . S
C893 N892 1.351 . S
C893 C894 1.434 . S
C894 C885 1.429 . S
C894 N891 1.350 . S
C894 C893 1.434 . S
C895 C896 1.369 . S
C895 C897 1.419 . S
C895 H899 0.930 . S
C896 C895 1.369 . S
C896 C905 1.429 . S
C897 C895 1.419 . S
C897 C898 1.363 . S
C897 H900 0.929 . S
C898 C897 1.363 . S
C898 C904 1.428 . S
H899 C895 0.930 . S
H900 C897 0.929 . S
S901 N902 1.613 . S
S901 N903 1.610 . S
N902 S901 1.613 . S
N902 C905 1.350 . S
N903 S901 1.610 . S
N903 C904 1.351 . S
C904 C898 1.428 . S
C904 N903 1.351 . S
C904 C905 1.434 . S
C905 C896 1.429 . S
C905 N902 1.350 . S
C905 C904 1.434 . S
C906 C907 1.369 . S
C906 C908 1.419 . S
C906 H910 0.930 . S
C907 C906 1.369 . S
C907 C916 1.429 . S
C908 C906 1.419 . S
C908 C909 1.363 . S
C908 H911 0.929 . S
C909 C908 1.363 . S
C909 C915 1.428 . S
H910 C906 0.930 . S
H911 C908 0.929 . S
S912 N913 1.613 . S
S912 N914 1.610 . S
N913 S912 1.613 . S
N913 C916 1.350 . S
N914 S912 1.610 . S
N914 C915 1.351 . S
C915 C909 1.428 . S
C915 N914 1.351 . S
C915 C916 1.434 . S
C916 C907 1.429 . S
C916 N913 1.350 . S
C916 C915 1.434 . S
C917 C918 1.369 . S
C917 C919 1.419 . S
C917 H921 0.930 . S
C918 C917 1.369 . S
C918 C927 1.429 . S
C919 C917 1.419 . S
C919 C920 1.363 . S
C919 H922 0.929 . S
C920 C919 1.363 . S
C920 C926 1.428 . S
H921 C917 0.930 . S
H922 C919 0.929 . S
S923 N924 1.613 . S
S923 N925 1.610 . S
N924 S923 1.613 . S
N924 C927 1.350 . S
N925 S923 1.610 . S
N925 C926 1.351 . S
C926 C920 1.428 . S
C926 N925 1.351 . S
C926 C927 1.434 . S
C927 C918 1.429 . S
C927 N924 1.350 . S
C927 C926 1.434 . S
C928 C929 1.369 . S
C928 C930 1.419 . S
C928 H932 0.930 . S
C929 C928 1.369 . S
C929 C938 1.429 . S
C930 C928 1.419 . S
C930 C931 1.363 . S
C930 H933 0.929 . S
C931 C930 1.363 . S
C931 C937 1.428 . S
H932 C928 0.930 . S
H933 C930 0.929 . S
S934 N935 1.613 . S
S934 N936 1.610 . S
N935 S934 1.613 . S
N935 C938 1.350 . S
N936 S934 1.610 . S
N936 C937 1.351 . S
C937 C931 1.428 . S
C937 N936 1.351 . S
C937 C938 1.434 . S
C938 C929 1.429 . S
C938 N935 1.350 . S
C938 C937 1.434 . S
C939 C940 1.369 . S
C939 C941 1.419 . S
C939 H943 0.930 . S
C940 C939 1.369 . S
C940 C949 1.429 . S
C941 C939 1.419 . S
C941 C942 1.363 . S
C941 H944 0.929 . S
C942 C941 1.363 . S
C942 C948 1.428 . S
H943 C939 0.930 . S
H944 C941 0.929 . S
S945 N946 1.613 . S
S945 N947 1.610 . S
N946 S945 1.613 . S
N946 C949 1.350 . S
N947 S945 1.610 . S
N947 C948 1.351 . S
C948 C942 1.428 . S
C948 N947 1.351 . S
C948 C949 1.434 . S
C949 C940 1.429 . S
C949 N946 1.350 . S
C949 C948 1.434 . S
C950 C951 1.369 . S
C950 C952 1.419 . S
C950 H954 0.930 . S
C951 C950 1.369 . S
C951 C960 1.429 . S
C952 C950 1.419 . S
C952 C953 1.363 . S
C952 H955 0.929 . S
C953 C952 1.363 . S
C953 C959 1.428 . S
H954 C950 0.930 . S
H955 C952 0.929 . S
S956 N957 1.613 . S
S956 N958 1.610 . S
N957 S956 1.613 . S
N957 C960 1.350 . S
N958 S956 1.610 . S
N958 C959 1.351 . S
C959 C953 1.428 . S
C959 N958 1.351 . S
C959 C960 1.434 . S
C960 C951 1.429 . S
C960 N957 1.350 . S
C960 C959 1.434 . S
C961 C962 1.369 . S
C961 C963 1.419 1_546 S
C961 H965 0.930 . S
C962 C961 1.369 . S
C962 C971 1.429 1_545 S
C963 C961 1.419 1_564 S
C963 C964 1.363 1_554 S
C963 H966 0.929 . S
C964 C963 1.363 1_556 S
C964 C970 1.428 . S
H965 C961 0.930 . S
H966 C963 0.929 . S
S967 N968 1.613 . S
S967 N969 1.610 . S
N968 S967 1.613 . S
N968 C971 1.350 . S
N969 S967 1.610 . S
N969 C970 1.351 . S
C970 C964 1.428 . S
C970 N969 1.351 . S
C970 C971 1.434 . S
C971 C962 1.429 1_565 S
C971 N968 1.350 . S
C971 C970 1.434 . S
C972 C973 1.369 . S
C972 C974 1.419 . S
C972 H976 0.930 . S
C973 C972 1.369 . S
C973 C982 1.429 . S
C974 C972 1.419 . S
C974 C975 1.363 . S
C974 H977 0.929 . S
C975 C974 1.363 . S
C975 C981 1.428 . S
H976 C972 0.930 . S
H977 C974 0.929 . S
S978 N979 1.613 . S
S978 N980 1.610 . S
N979 S978 1.613 . S
N979 C982 1.350 . S
N980 S978 1.610 . S
N980 C981 1.351 . S
C981 C975 1.428 . S
C981 N980 1.351 . S
C981 C982 1.434 . S
C982 C973 1.429 . S
C982 N979 1.350 . S
C982 C981 1.434 . S
C983 C984 1.369 . S
C983 C985 1.419 . S
C983 H987 0.930 . S
C984 C983 1.369 . S
C984 C993 1.429 1_556 S
C985 C983 1.419 . S
C985 C986 1.363 1_556 S
C985 H988 0.929 . S
C986 C985 1.363 1_554 S
C986 C992 1.428 . S
H987 C983 0.930 . S
H988 C985 0.929 . S
S989 N990 1.613 . S
S989 N991 1.610 . S
N990 S989 1.613 . S
N990 C993 1.350 . S
N991 S989 1.610 . S
N991 C992 1.351 . S
C992 C986 1.428 . S
C992 N991 1.351 . S
C992 C993 1.434 . S
C993 C984 1.429 1_554 S
C993 N990 1.350 . S
C993 C992 1.434 . S
C994 C995 1.369 1_554 S
C994 C996 1.419 . S
C994 H998 0.930 . S
C995 C994 1.369 1_556 S
C995 C1004 1.429 1_556 S
C996 C994 1.419 . S
C996 C997 1.363 . S
C996 H999 0.929 . S
C997 C996 1.363 . S
C997 C1003 1.428 . S
H998 C994 0.930 . S
H999 C996 0.929 . S
S1000 N1001 1.613 1_554 S
S1000 N1002 1.610 . S
N1001 S1000 1.613 1_556 S
N1001 C1004 1.350 1_556 S
N1002 S1000 1.610 . S
N1002 C1003 1.351 . S
C1003 C997 1.428 . S
C1003 N1002 1.351 . S
C1003 C1004 1.434 . S
C1004 C995 1.429 1_554 S
C1004 N1001 1.350 1_554 S
C1004 C1003 1.434 . S
C1005 C1006 1.369 . S
C1005 C1007 1.419 . S
C1005 H1009 0.930 1_554 S
C1006 C1005 1.369 . S
C1006 C1015 1.429 . S
C1007 C1005 1.419 . S
C1007 C1008 1.363 . S
C1007 H1010 0.929 . S
C1008 C1007 1.363 . S
C1008 C1014 1.428 . S
H1009 C1005 0.930 1_556 S
H1010 C1007 0.929 . S
S1011 N1012 1.613 . S
S1011 N1013 1.610 . S
N1012 S1011 1.613 . S
N1012 C1015 1.350 . S
N1013 S1011 1.610 . S
N1013 C1014 1.351 . S
C1014 C1008 1.428 . S
C1014 N1013 1.351 . S
C1014 C1015 1.434 . S
C1015 C1006 1.429 . S
C1015 N1012 1.350 . S
C1015 C1014 1.434 . S
C489 C13 2.330 . S
C491 C267 2.122 . S
C502 C296 3.025 . S
C500 C1 3.012 . S
C513 C173 1.443 . S
C511 C27 1.428 . S
C522 C15 1.443 . S
C524 C217 1.407 . S
C533 C28 3.070 . S
C535 C467 2.967 . S
C544 C55 1.910 . S
C546 C413 1.940 . S
C557 C346 2.686 . S
C555 C40 2.789 1_545 S
C566 C43 0.927 . S
C568 C376 0.900 . S
C579 C223 2.020 . S
C577 C56 2.085 . S
C590 C293 2.092 . S
C588 C83 2.099 . S
C599 C96 2.047 . S
C601 C256 2.089 1_655 S
C610 C71 1.795 . S
C612 C387 1.742 . S
C623 C427 2.295 . S
C621 C99 2.523 . S
C634 C456 2.719 . S
C632 C111 2.697 . S
C643 C113 1.481 . S
C645 C373 1.483 . S
C656 C337 1.669 . S
C654 C125 1.674 . S
C665 C139 2.792 . S
C667 C307 2.713 . S
C676 C153 1.740 . S
C678 C253 1.804 . S
C689 C226 2.773 1_556 S
C687 C127 2.870 . S
C698 C141 1.129 . S
C700 C176 1.101 . S
C711 C343 1.795 . S
C709 C84 1.826 . S
C722 C453 1.985 . S
C720 C154 1.999 . S
C731 C68 1.678 . S
C733 C416 1.691 . S
C742 C166 1.807 . S
C744 C187 1.749 . S
C755 C186 1.460 . S
C753 C0 1.558 . S
C764 C12 2.183 . S
C766 C216 1.966 1_455 S
C777 C263 1.874 . S
C775 C14 2.256 . S
C788 C297 1.960 . S
C786 C26 2.005 1_455 S
C797 C41 2.073 . S
C799 C177 2.006 . S
C808 C42 1.948 . S
C810 C213 1.743 . S
C821 C266 1.268 . S
C819 C29 1.514 . S
C830 C54 1.465 . S
C832 C303 1.220 . S
C841 C69 2.080 . S
C843 C183 1.783 . S
C854 C257 2.532 . S
C852 C70 2.636 . S
C863 C85 2.271 . S
C865 C306 2.106 . S
C874 C82 1.256 . S
C876 C347 1.204 . S
C887 C386 1.351 . S
C885 C110 1.439 . S
C896 C98 2.227 . S
C898 C336 2.001 . S
C907 C124 2.044 . S
C909 C423 1.731 . S
C918 C112 2.188 . S
C920 C457 2.100 . S
C929 C126 2.257 . S
C931 C377 2.194 . S
C942 C333 1.721 . S
C940 C140 1.929 . S
C951 C138 1.396 . S
C953 C426 1.187 . S
C964 C463 1.171 1_556 S
C962 C152 1.386 . S
C975 C383 1.615 . S
C973 C97 1.845 . S
C986 C417 2.636 . S
C984 C167 2.717 . S
C997 C466 1.880 . S
C995 C57 1.967 . S
C1006 C155 1.119 . S
C1008 C227 1.079 . S
