# Generated by pormake.
# Topology anh, (6,3)-cn, num edge types: 1
# Building blocks:
#     Node 0, Type 0, BuildingBlock: BETFAJ_clean_sbu_0, # of connection points: 6
#     Node 1, Type 0, BuildingBlock: BETFAJ_clean_sbu_0, # of connection points: 6
#     Node 2, Type 0, BuildingBlock: BETFAJ_clean_sbu_0, # of connection points: 6
#     Node 3, Type 1, BuildingBlock: OLANEW_clean_sbu_2, # of connection points: 3
#     Node 4, Type 1, BuildingBlock: OLANEW_clean_sbu_2, # of connection points: 3
#     Node 5, Type 1, BuildingBlock: OLANEW_clean_sbu_2, # of connection points: 3
#     Node 6, Type 1, BuildingBlock: OLANEW_clean_sbu_2, # of connection points: 3
#     Node 7, Type 1, BuildingBlock: OLANEW_clean_sbu_2, # of connection points: 3
#     Node 8, Type 1, BuildingBlock: OLANEW_clean_sbu_2, # of connection points: 3
#     Edge 9, Type (0, 1), BuildingBlock: XUDNAN_clean_linker_2, # of connection points: 2
#     Edge 10, Type (0, 1), BuildingBlock: XUDNAN_clean_linker_2, # of connection points: 2
#     Edge 11, Type (0, 1), BuildingBlock: XUDNAN_clean_linker_2, # of connection points: 2
#     Edge 12, Type (0, 1), BuildingBlock: XUDNAN_clean_linker_2, # of connection points: 2
#     Edge 13, Type (0, 1), BuildingBlock: XUDNAN_clean_linker_2, # of connection points: 2
#     Edge 14, Type (0, 1), BuildingBlock: XUDNAN_clean_linker_2, # of connection points: 2
#     Edge 15, Type (0, 1), BuildingBlock: XUDNAN_clean_linker_2, # of connection points: 2
#     Edge 16, Type (0, 1), BuildingBlock: XUDNAN_clean_linker_2, # of connection points: 2
#     Edge 17, Type (0, 1), BuildingBlock: XUDNAN_clean_linker_2, # of connection points: 2
#     Edge 18, Type (0, 1), BuildingBlock: XUDNAN_clean_linker_2, # of connection points: 2
#     Edge 19, Type (0, 1), BuildingBlock: XUDNAN_clean_linker_2, # of connection points: 2
#     Edge 20, Type (0, 1), BuildingBlock: XUDNAN_clean_linker_2, # of connection points: 2
#     Edge 21, Type (0, 1), BuildingBlock: XUDNAN_clean_linker_2, # of connection points: 2
#     Edge 22, Type (0, 1), BuildingBlock: XUDNAN_clean_linker_2, # of connection points: 2
#     Edge 23, Type (0, 1), BuildingBlock: XUDNAN_clean_linker_2, # of connection points: 2
#     Edge 24, Type (0, 1), BuildingBlock: XUDNAN_clean_linker_2, # of connection points: 2
#     Edge 25, Type (0, 1), BuildingBlock: XUDNAN_clean_linker_2, # of connection points: 2
#     Edge 26, Type (0, 1), BuildingBlock: XUDNAN_clean_linker_2, # of connection points: 2
# Relax obj value: 0.141
# Max RMSD: 0.169
# Mean RMSD: 0.114
data_MOF--net-anh--node1-BETFAJ_clean_sbu_0--node2-OLANEW_clean_sbu_2--edge1-XUDNAN_clean_linker_2
_symmetry_space_group_name_H-M    P1
_symmetry_Int_Tables_number       1
_symmetry_cell_setting            triclinic
loop_
_symmetry_equiv_pos_as_xyz
'x, y, z'
_cell_length_a     36.978494
_cell_length_b     41.207768
_cell_length_c     50.365213
_cell_angle_alpha  91.812958
_cell_angle_beta   89.676829
_cell_angle_gamma 129.72347
loop_
_atom_site_label
_atom_site_type_symbol
_atom_site_fract_x
_atom_site_fract_y
_atom_site_fract_z
_atom_type_partial_charge
Sm0 Sm 0.04843 0.50825 0.12958 0.0
Sm1 Sm 0.99227 0.5315 0.15445 0.0
C2 C 0.10643 0.50441 0.10173 0.0
C3 C 0.15619 0.52485 0.10577 0.0
C4 C 0.1857 0.56259 0.12114 0.0
C5 C 0.23101 0.57874 0.12838 0.0
C6 C 0.24713 0.55696 0.1207 0.0
C7 C 0.21808 0.51998 0.10449 0.0
C8 C 0.17292 0.50407 0.09708 0.0
C9 C 0.04314 0.50358 0.18378 0.0
C10 C 0.10169 0.60867 0.14669 0.0
C11 C 0.93825 0.5365 0.18578 0.0
C12 C 0.88794 0.51179 0.19041 0.0
C13 C 0.87325 0.52081 0.21305 0.0
C14 C 0.82548 0.49923 0.21693 0.0
C15 C 0.7917 0.46834 0.19815 0.0
C16 C 0.80661 0.45822 0.17599 0.0
C17 C 0.85442 0.4798 0.17217 0.0
C18 C 0.99833 0.53626 0.1 0.0
C19 C 0.9376 0.43174 0.13694 0.0
O20 O 0.09701 0.52908 0.09585 0.0
O21 O 0.0785 0.47714 0.11957 0.0
O22 O 0.04931 0.5323 0.17077 0.0
O23 O 0.04312 0.47779 0.1684 0.0
O24 O 0.10258 0.58201 0.13193 0.0
O25 O 0.06458 0.59567 0.16056 0.0
O26 O 0.95633 0.51916 0.19279 0.0
O27 O 0.95329 0.55472 0.16291 0.0
O28 O 0.99192 0.50765 0.11327 0.0
O29 O 0.99791 0.56208 0.1152 0.0
O30 O 0.93788 0.4588 0.15188 0.0
O31 O 0.97445 0.4438 0.12292 0.0
H32 H 0.17307 0.57865 0.12845 0.0
H33 H 0.25252 0.6071 0.14102 0.0
H34 H 0.22993 0.50288 0.09804 0.0
H35 H 0.15045 0.47474 0.0854 0.0
H36 H 0.89878 0.54513 0.22746 0.0
H37 H 0.81501 0.50732 0.23435 0.0
H38 H 0.78156 0.43495 0.16102 0.0
H39 H 0.86535 0.47234 0.15465 0.0
Sm40 Sm 0.57673 0.01226 0.47946 0.0
Sm41 Sm 0.51885 0.04048 0.47414 0.0
C42 C 0.61199 0.976 0.49404 0.0
C43 C 0.59311 0.93354 0.50136 0.0
C44 C 0.54626 0.9038 0.50904 0.0
C45 C 0.52825 0.86341 0.51589 0.0
C46 C 0.55708 0.85215 0.5157 0.0
C47 C 0.60419 0.88224 0.50797 0.0
C48 C 0.62194 0.92251 0.50075 0.0
C49 C 0.56569 0.02592 0.4283 0.0
C50 C 0.46034 0.94118 0.47406 0.0
C51 C 0.48503 0.07884 0.46201 0.0
C52 C 0.50129 0.12182 0.46637 0.0
C53 C 0.47309 0.13151 0.45824 0.0
C54 C 0.48834 0.17233 0.46253 0.0
C55 C 0.53218 0.20417 0.47495 0.0
C56 C 0.56031 0.19418 0.48304 0.0
C57 C 0.54497 0.15337 0.47882 0.0
C58 C 0.53339 0.02909 0.52536 0.0
C59 C 0.63563 0.11218 0.47793 0.0
O60 O 0.60393 0.99569 0.51068 0.0
O61 O 0.60596 0.98022 0.46923 0.0
O62 O 0.53378 0.00761 0.44538 0.0
O63 O 0.6047 0.03634 0.43763 0.0
O64 O 0.49927 0.95114 0.48447 0.0
O65 O 0.46012 0.97036 0.46428 0.0
O66 O 0.50987 0.07505 0.44568 0.0
O67 O 0.47336 0.05695 0.48331 0.0
O68 O 0.56352 0.04679 0.50748 0.0
O69 O 0.49359 0.01782 0.51694 0.0
O70 O 0.59558 0.10261 0.47022 0.0
O71 O 0.63747 0.08298 0.48567 0.0
H72 H 0.52372 0.91198 0.50993 0.0
H73 H 0.49165 0.84104 0.52128 0.0
H74 H 0.62771 0.87507 0.50799 0.0
H75 H 0.65832 0.94519 0.49496 0.0
H76 H 0.43928 0.10751 0.44858 0.0
H77 H 0.46605 0.17909 0.45583 0.0
H78 H 0.59389 0.21772 0.49304 0.0
H79 H 0.56709 0.1464 0.48544 0.0
Sm80 Sm 0.57511 0.55961 0.85143 0.0
Sm81 Sm 0.50005 0.46433 0.85406 0.0
C82 C 0.62179 0.63866 0.83768 0.0
C83 C 0.60783 0.66492 0.8353 0.0
C84 C 0.62984 0.6972 0.817 0.0
C85 C 0.61389 0.71975 0.81308 0.0
C86 C 0.57537 0.71017 0.82728 0.0
C87 C 0.55411 0.67833 0.84601 0.0
C88 C 0.57015 0.65596 0.84995 0.0
C89 C 0.55007 0.53025 0.90179 0.0
C90 C 0.46119 0.51483 0.85086 0.0
C91 C 0.45059 0.3837 0.86491 0.0
C92 C 0.45804 0.35242 0.86267 0.0
C93 C 0.49559 0.35893 0.87608 0.0
C94 C 0.50331 0.32995 0.87275 0.0
C95 C 0.47368 0.29383 0.85595 0.0
C96 C 0.43573 0.28707 0.84288 0.0
C97 C 0.42796 0.316 0.84626 0.0
C98 C 0.52628 0.49391 0.8036 0.0
C99 C 0.61451 0.51008 0.85837 0.0
O100 O 0.60202 0.60701 0.82037 0.0
O101 O 0.62321 0.62834 0.86174 0.0
O102 O 0.52216 0.51723 0.88232 0.0
O103 O 0.59295 0.56196 0.89563 0.0
O104 O 0.50458 0.54637 0.84357 0.0
O105 O 0.45052 0.47976 0.85956 0.0
O106 O 0.47601 0.41454 0.88272 0.0
O107 O 0.44604 0.3962 0.84255 0.0
O108 O 0.55393 0.50644 0.82316 0.0
O109 O 0.48308 0.46384 0.81008 0.0
O110 O 0.5701 0.47729 0.86316 0.0
O111 O 0.62628 0.54583 0.85015 0.0
H112 H 0.65871 0.70433 0.80533 0.0
H113 H 0.63076 0.74376 0.79832 0.0
H114 H 0.52479 0.67047 0.85753 0.0
H115 H 0.55245 0.63103 0.86411 0.0
H116 H 0.51941 0.38665 0.88892 0.0
H117 H 0.53315 0.33637 0.88289 0.0
H118 H 0.41187 0.25928 0.83009 0.0
H119 H 0.39863 0.31012 0.83582 0.0
O120 O 0.59633 0.04006 0.22324 0.0
Cd121 Cd 0.6168 0.0455 0.17617 0.0
O122 O 0.52136 0.9822 0.2206 0.0
Cd123 Cd 0.50656 0.95581 0.17991 0.0
O124 O 0.44045 0.8982 0.16259 0.0
C125 C 0.40513 0.8959 0.16756 0.0
O126 O 0.41244 0.92808 0.1802 0.0
C127 C 0.55671 0.01326 0.23403 0.0
C128 C 0.67891 0.13021 0.16135 0.0
O129 O 0.63421 0.10852 0.16043 0.0
O130 O 0.69462 0.11189 0.16913 0.0
O131 O 0.59063 0.53093 0.59499 0.0
Cd132 Cd 0.58194 0.52653 0.54658 0.0
O133 O 0.52438 0.51941 0.60139 0.0
Cd134 Cd 0.51991 0.53627 0.56158 0.0
O135 O 0.51588 0.58253 0.54533 0.0
C136 C 0.49098 0.58797 0.55898 0.0
O137 O 0.46884 0.56432 0.57954 0.0
C138 C 0.55916 0.52358 0.61057 0.0
C139 C 0.58329 0.46366 0.52542 0.0
O140 O 0.62111 0.50217 0.52798 0.0
O141 O 0.54466 0.45491 0.53255 0.0
O142 O 0.07986 0.5127 0.90807 0.0
Cd143 Cd 0.10556 0.49691 0.86731 0.0
O144 O 0.02662 0.51421 0.8898 0.0
Cd145 Cd 0.96726 0.51587 0.88971 0.0
O146 O 0.90006 0.50527 0.88695 0.0
C147 C 0.89608 0.53245 0.88007 0.0
O148 O 0.93413 0.57045 0.87425 0.0
C149 C 0.04875 0.51715 0.91036 0.0
C150 C 0.193 0.51365 0.86675 0.0
O151 O 0.18958 0.54159 0.86066 0.0
O152 O 0.15553 0.47807 0.87424 0.0
O153 O 0.04911 0.5669 0.38559 0.0
Cd154 Cd 0.05481 0.59113 0.43161 0.0
O155 O 1.00557 0.49886 0.3933 0.0
Cd156 Cd 0.98693 0.49338 0.43507 0.0
O157 O 0.93703 0.43762 0.45856 0.0
C158 C 0.89428 0.41269 0.45061 0.0
O159 O 0.8819 0.42351 0.43052 0.0
C160 C 0.02853 0.52914 0.37742 0.0
C161 C 0.14733 0.66262 0.44532 0.0
O162 O 0.13235 0.62525 0.44919 0.0
O163 O 0.11856 0.66633 0.43504 0.0
O164 O 0.5146 0.97615 0.72761 0.0
Cd165 Cd 0.50634 0.96505 0.77551 0.0
O166 O 0.57288 0.0447 0.73268 0.0
Cd167 Cd 0.55787 0.05112 0.77373 0.0
O168 O 0.54357 0.08455 0.8007 0.0
C169 C 0.53043 0.10283 0.78949 0.0
O170 O 0.5255 0.09943 0.76348 0.0
C171 C 0.54731 0.01151 0.71779 0.0
C172 C 0.5082 0.90024 0.78816 0.0
O173 O 0.46938 0.89258 0.78317 0.0
O174 O 0.54629 0.93861 0.78733 0.0
O175 O 0.46427 0.44917 0.10351 0.0
Cd176 Cd 0.45042 0.44225 0.15152 0.0
O177 O 0.54006 0.50407 0.10382 0.0
Cd178 Cd 0.53731 0.52071 0.14462 0.0
O179 O 0.50023 0.53971 0.16337 0.0
C180 C 0.51597 0.5773 0.16082 0.0
O181 O 0.55762 0.60492 0.15047 0.0
C182 C 0.5026 0.47431 0.09116 0.0
C183 C 0.50538 0.42629 0.17515 0.0
O184 O 0.46563 0.39607 0.16421 0.0
O185 O 0.51794 0.46333 0.17575 0.0
H186 H 0.26463 0.50835 0.14216 0.0
H187 H 0.33232 0.63725 0.12224 0.0
H188 H 0.40899 0.65939 0.13755 0.0
H189 H 0.33938 0.53437 0.2013 0.0
H190 H 0.33914 0.49117 0.19381 0.0
H191 H 0.28919 0.48693 0.18459 0.0
H192 H 0.29596 0.47022 0.1356 0.0
H193 H 0.34545 0.474 0.14473 0.0
H194 H 0.35103 0.50621 0.11893 0.0
H195 H 0.47909 0.66505 0.14942 0.0
H196 H 0.53634 0.65356 0.1557 0.0
H197 H 0.42154 0.52119 0.16914 0.0
C198 C 0.29556 0.54132 0.14122 0.0
C199 C 0.2928 0.5711 0.13088 0.0
C200 C 0.33382 0.61402 0.13022 0.0
C201 C 0.37738 0.62685 0.13894 0.0
C202 C 0.37897 0.59645 0.14868 0.0
C203 C 0.33899 0.55461 0.15003 0.0
C204 C 0.35032 0.52745 0.15933 0.0
C205 C 0.32819 0.5089 0.18637 0.0
C206 C 0.3348 0.49244 0.1384 0.0
C207 C 0.40324 0.56014 0.16182 0.0
C208 C 0.41917 0.5999 0.15602 0.0
C209 C 0.46701 0.63425 0.15452 0.0
C210 C 0.49928 0.62742 0.15812 0.0
C211 C 0.48344 0.58652 0.16303 0.0
C212 C 0.43488 0.55297 0.16587 0.0
H213 H 0.64991 0.1784 0.45415 0.0
H214 H 0.71957 0.14725 0.50306 0.0
H215 H 0.79177 0.22208 0.50425 0.0
H216 H 0.74875 0.25149 0.41456 0.0
H217 H 0.7356 0.28652 0.41188 0.0
H218 H 0.68881 0.23111 0.4164 0.0
H219 H 0.66233 0.24896 0.45792 0.0
H220 H 0.70928 0.30455 0.45388 0.0
H221 H 0.70366 0.28103 0.48484 0.0
H222 H 0.85706 0.30027 0.49921 0.0
H223 H 0.91195 0.37438 0.48565 0.0
H224 H 0.79987 0.35366 0.43915 0.0
C225 C 0.68021 0.18731 0.46529 0.0
C226 C 0.67902 0.15696 0.4786 0.0
C227 C 0.71966 0.16991 0.49266 0.0
C228 C 0.76076 0.21239 0.49358 0.0
C229 C 0.76073 0.24149 0.48022 0.0
C230 C 0.72161 0.22943 0.46618 0.0
C231 C 0.73146 0.26637 0.45232 0.0
C232 C 0.72584 0.25839 0.422 0.0
C233 C 0.69982 0.2758 0.46289 0.0
C234 C 0.7824 0.30109 0.46057 0.0
C235 C 0.7985 0.28623 0.47691 0.0
C236 C 0.84479 0.31229 0.4865 0.0
C237 C 0.8757 0.35439 0.47874 0.0
C238 C 0.8603 0.36991 0.46133 0.0
C239 C 0.81278 0.34289 0.45254 0.0
H240 H 0.62449 0.79481 0.81907 0.0
H241 H 0.48285 0.67503 0.82315 0.0
H242 H 0.45051 0.71069 0.81431 0.0
H243 H 0.60049 0.85894 0.85046 0.0
H244 H 0.63895 0.90298 0.82938 0.0
H245 H 0.65112 0.86814 0.83633 0.0
H246 H 0.65149 0.85407 0.78586 0.0
H247 H 0.63938 0.8889 0.77876 0.0
H248 H 0.60113 0.83531 0.76548 0.0
H249 H 0.43337 0.75903 0.80425 0.0
H250 H 0.43265 0.81683 0.79414 0.0
H251 H 0.58535 0.9054 0.79641 0.0
C252 C 0.58668 0.77604 0.81797 0.0
C253 C 0.55624 0.73208 0.82197 0.0
C254 C 0.50693 0.7088 0.82061 0.0
C255 C 0.48819 0.72874 0.81543 0.0
C256 C 0.51915 0.77205 0.81163 0.0
C257 C 0.56733 0.79547 0.81286 0.0
C258 C 0.59281 0.84162 0.80801 0.0
C259 C 0.62259 0.86956 0.83251 0.0
C260 C 0.62298 0.85579 0.78304 0.0
C261 C 0.5514 0.84043 0.80376 0.0
C262 C 0.50925 0.79998 0.80592 0.0
C263 C 0.46617 0.79086 0.80256 0.0
C264 C 0.46614 0.82393 0.79681 0.0
C265 C 0.5089 0.86571 0.79451 0.0
C266 C 0.55204 0.87388 0.79811 0.0
H267 H 0.75883 0.50968 0.21164 0.0
H268 H 0.71222 0.38587 0.18805 0.0
H269 H 0.62999 0.35824 0.18594 0.0
H270 H 0.65316 0.4727 0.25124 0.0
H271 H 0.65548 0.51502 0.23986 0.0
H272 H 0.70898 0.52276 0.24389 0.0
H273 H 0.72982 0.54494 0.19496 0.0
H274 H 0.6765 0.5371 0.19074 0.0
H275 H 0.68841 0.50963 0.1688 0.0
H276 H 0.55486 0.34702 0.18061 0.0
H277 H 0.49429 0.35369 0.17143 0.0
H278 H 0.59113 0.48489 0.19912 0.0
C279 C 0.7312 0.47635 0.20703 0.0
C280 C 0.74183 0.44982 0.20027 0.0
C281 C 0.7048 0.40676 0.19329 0.0
C282 C 0.65801 0.39074 0.19225 0.0
C283 C 0.64891 0.41812 0.19845 0.0
C284 C 0.68456 0.45999 0.20588 0.0
C285 C 0.66664 0.48415 0.2087 0.0
C286 C 0.67134 0.49955 0.23765 0.0
C287 C 0.69182 0.5211 0.18966 0.0
C288 C 0.6157 0.44983 0.20061 0.0
C289 C 0.60581 0.41174 0.19523 0.0
C290 C 0.56196 0.37646 0.18526 0.0
C291 C 0.52778 0.38055 0.18009 0.0
C292 C 0.53797 0.41977 0.18465 0.0
C293 C 0.58207 0.45436 0.1957 0.0
H294 H 0.37311 0.90824 0.45423 0.0
H295 H 0.44836 0.87219 0.49076 0.0
H296 H 0.37659 0.79765 0.48797 0.0
H297 H 0.26222 0.83188 0.48641 0.0
H298 H 0.22726 0.82177 0.45757 0.0
H299 H 0.28452 0.87262 0.46286 0.0
H300 H 0.30964 0.86536 0.4164 0.0
H301 H 0.25249 0.81448 0.41097 0.0
H302 H 0.30459 0.81969 0.4082 0.0
H303 H 0.29696 0.72664 0.48047 0.0
H304 H 0.21497 0.66433 0.46906 0.0
H305 H 0.19101 0.74613 0.43745 0.0
C306 C 0.37454 0.88475 0.46175 0.0
C307 C 0.41663 0.89633 0.47281 0.0
C308 C 0.41677 0.8644 0.48232 0.0
C309 C 0.37606 0.82182 0.48079 0.0
C310 C 0.33531 0.81153 0.46972 0.0
C311 C 0.33416 0.84204 0.46039 0.0
C312 C 0.28588 0.82242 0.44914 0.0
C313 C 0.26367 0.83811 0.46495 0.0
C314 C 0.28832 0.831 0.41941 0.0
C315 C 0.26016 0.77611 0.45351 0.0
C316 C 0.28933 0.77055 0.46542 0.0
C317 C 0.27373 0.73061 0.4712 0.0
C318 C 0.22707 0.69538 0.46462 0.0
C319 C 0.19645 0.70025 0.45239 0.0
C320 C 0.21342 0.74129 0.44685 0.0
H321 H 0.46925 0.25579 0.80894 0.0
H322 H 0.49932 0.26415 0.89318 0.0
H323 H 0.51593 0.21522 0.88574 0.0
H324 H 0.41151 0.14497 0.79865 0.0
H325 H 0.43596 0.15188 0.76623 0.0
H326 H 0.42583 0.18699 0.77842 0.0
H327 H 0.51328 0.25125 0.77086 0.0
H328 H 0.52369 0.21635 0.75868 0.0
H329 H 0.55874 0.25319 0.78598 0.0
H330 H 0.52983 0.16534 0.86873 0.0
H331 H 0.54123 0.12007 0.84346 0.0
H332 H 0.50158 0.14471 0.7706 0.0
C333 C 0.47875 0.24694 0.8259 0.0
C334 C 0.48284 0.26374 0.85167 0.0
C335 C 0.49634 0.25199 0.87322 0.0
C336 C 0.50559 0.22403 0.86921 0.0
C337 C 0.50128 0.20812 0.84353 0.0
C338 C 0.48822 0.21923 0.82225 0.0
C339 C 0.48703 0.1985 0.79654 0.0
C340 C 0.43711 0.16882 0.78425 0.0
C341 C 0.52282 0.23181 0.77686 0.0
C342 C 0.50151 0.174 0.80663 0.0
C343 C 0.50947 0.1798 0.83379 0.0
C344 C 0.5236 0.16053 0.84745 0.0
C345 C 0.52996 0.13485 0.83294 0.0
C346 C 0.5223 0.12876 0.80505 0.0
C347 C 0.5077 0.14859 0.7919 0.0
H348 H 0.57775 0.80238 0.49588 0.0
H349 H 0.49475 0.80586 0.5555 0.0
H350 H 0.46423 0.73619 0.5702 0.0
H351 H 0.49476 0.68943 0.48029 0.0
H352 H 0.53992 0.68484 0.47712 0.0
H353 H 0.55257 0.73362 0.46959 0.0
H354 H 0.62238 0.77419 0.50342 0.0
H355 H 0.61008 0.72562 0.51096 0.0
H356 H 0.61229 0.75759 0.53725 0.0
H357 H 0.44514 0.66791 0.5799 0.0
H358 H 0.44156 0.60678 0.58547 0.0
H359 H 0.53942 0.64833 0.521 0.0
C360 C 0.55322 0.78862 0.51206 0.0
C361 C 0.53835 0.80968 0.52427 0.0
C362 C 0.50591 0.79015 0.54529 0.0
C363 C 0.48851 0.75059 0.55393 0.0
C364 C 0.50397 0.73087 0.54149 0.0
C365 C 0.53576 0.74924 0.52111 0.0
C366 C 0.54851 0.72225 0.51211 0.0
C367 C 0.533 0.70661 0.48305 0.0
C368 C 0.60145 0.74635 0.51619 0.0
C369 C 0.51948 0.6862 0.53094 0.0
C370 C 0.49366 0.69165 0.54749 0.0
C371 C 0.46503 0.66318 0.567 0.0
C372 C 0.46326 0.62852 0.56999 0.0
C373 C 0.4902 0.62268 0.55369 0.0
C374 C 0.51819 0.65173 0.53367 0.0
H375 H 0.71144 0.57062 0.85347 0.0
H376 H 0.60108 0.43951 0.87244 0.0
H377 H 0.66045 0.43129 0.88002 0.0
H378 H 0.7852 0.55445 0.81876 0.0
H379 H 0.83953 0.60316 0.83139 0.0
H380 H 0.78832 0.59902 0.82732 0.0
H381 H 0.79498 0.62154 0.87682 0.0
H382 H 0.84615 0.62568 0.88105 0.0
H383 H 0.79628 0.59232 0.90214 0.0
H384 H 0.73178 0.43694 0.88604 0.0
H385 H 0.80997 0.45606 0.88943 0.0
H386 H 0.87503 0.58333 0.86648 0.0
C387 C 0.69972 0.54016 0.85916 0.0
C388 C 0.65125 0.50575 0.86239 0.0
C389 C 0.63773 0.46648 0.86989 0.0
C390 C 0.67131 0.46142 0.87425 0.0
C391 C 0.71862 0.49588 0.87104 0.0
C392 C 0.73292 0.5345 0.86362 0.0
C393 C 0.78615 0.5664 0.8616 0.0
C394 C 0.80064 0.58165 0.83307 0.0
C395 C 0.80712 0.60369 0.8816 0.0
C396 C 0.79941 0.53967 0.86905 0.0
C397 C 0.75986 0.4991 0.87444 0.0
C398 C 0.76301 0.46863 0.88184 0.0
C399 C 0.80769 0.47983 0.88373 0.0
C400 C 0.84891 0.5212 0.87824 0.0
C401 C 0.84438 0.55142 0.87082 0.0
H402 H 0.19545 0.64827 0.13734 0.0
H403 H 0.10074 0.67253 0.15938 0.0
H404 H 0.16772 0.74855 0.16361 0.0
H405 H 0.28671 0.72357 0.18327 0.0
H406 H 0.33437 0.74003 0.16164 0.0
H407 H 0.27872 0.68749 0.15791 0.0
H408 H 0.2737 0.70003 0.10857 0.0
H409 H 0.32938 0.75271 0.11208 0.0
H410 H 0.2783 0.7447 0.10003 0.0
H411 H 0.24349 0.82076 0.1674 0.0
H412 H 0.32543 0.88599 0.17277 0.0
H413 H 0.37388 0.81716 0.1496 0.0
C414 C 0.18884 0.66968 0.14268 0.0
C415 C 0.14274 0.65438 0.14795 0.0
C416 C 0.13566 0.68339 0.15533 0.0
C417 C 0.17348 0.72673 0.15766 0.0
C418 C 0.21841 0.74078 0.15265 0.0
C419 C 0.22651 0.71331 0.14543 0.0
C420 C 0.2789 0.73694 0.14285 0.0
C421 C 0.29565 0.72106 0.1626 0.0
C422 C 0.29076 0.73338 0.11417 0.0
C423 C 0.29875 0.78177 0.15016 0.0
C424 C 0.26297 0.78306 0.15538 0.0
C425 C 0.27189 0.82029 0.16324 0.0
C426 C 0.31868 0.85723 0.16625 0.0
C427 C 0.35625 0.85687 0.16159 0.0
C428 C 0.34601 0.8186 0.15308 0.0
H429 H 0.48052 0.22722 0.4924 0.0
H430 H 0.62073 0.27932 0.4683 0.0
H431 H 0.64866 0.35133 0.47758 0.0
H432 H 0.48216 0.30852 0.46447 0.0
H433 H 0.44984 0.30839 0.49146 0.0
H434 H 0.44073 0.26098 0.48229 0.0
H435 H 0.46056 0.25653 0.53062 0.0
H436 H 0.46983 0.30394 0.53991 0.0
H437 H 0.51568 0.30098 0.54579 0.0
H438 H 0.66176 0.41763 0.4906 0.0
H439 H 0.65916 0.47342 0.50643 0.0
H440 H 0.51004 0.37816 0.52135 0.0
C441 C 0.51695 0.25377 0.48872 0.0
C442 C 0.54848 0.24756 0.47967 0.0
C443 C 0.59608 0.28322 0.47556 0.0
C444 C 0.6122 0.32427 0.48061 0.0
C445 C 0.58027 0.32922 0.48969 0.0
C446 C 0.53362 0.29496 0.49366 0.0
C447 C 0.50678 0.30892 0.5041 0.0
C448 C 0.46756 0.29593 0.4844 0.0
C449 C 0.48707 0.29156 0.53175 0.0
C450 C 0.5457 0.35637 0.50556 0.0
C451 C 0.58778 0.36742 0.49709 0.0
C452 C 0.62895 0.40936 0.49715 0.0
C453 C 0.62712 0.44084 0.5062 0.0
C454 C 0.5844 0.43024 0.51508 0.0
C455 C 0.54319 0.38737 0.51457 0.0
H456 H 0.36864 0.46075 0.86782 0.0
H457 H 0.4725 0.58292 0.83339 0.0
H458 H 0.41643 0.59615 0.83503 0.0
H459 H 0.26791 0.43605 0.83232 0.0
H460 H 0.22882 0.41042 0.85987 0.0
H461 H 0.27728 0.41036 0.85627 0.0
H462 H 0.30711 0.4437 0.90373 0.0
H463 H 0.25891 0.4441 0.90742 0.0
H464 H 0.31856 0.4924 0.9122 0.0
H465 H 0.35002 0.59733 0.84096 0.0
H466 H 0.27597 0.58455 0.84847 0.0
H467 H 0.21292 0.46094 0.87804 0.0
C468 C 0.37953 0.49019 0.8605 0.0
C469 C 0.42543 0.5209 0.85066 0.0
C470 C 0.43796 0.55896 0.84127 0.0
C471 C 0.40624 0.56684 0.84208 0.0
C472 C 0.36165 0.53627 0.85216 0.0
C473 C 0.34802 0.49853 0.86101 0.0
C474 C 0.29759 0.47088 0.87055 0.0
C475 C 0.26604 0.42948 0.85375 0.0
C476 C 0.29544 0.46227 0.90024 0.0
C477 C 0.28516 0.49902 0.8657 0.0
C478 C 0.32283 0.53667 0.8552 0.0
C479 C 0.32023 0.5679 0.8491 0.0
C480 C 0.27793 0.56035 0.85352 0.0
C481 C 0.23837 0.52175 0.86387 0.0
C482 C 0.24239 0.49082 0.87016 0.0
H483 H 0.92706 0.35938 0.13878 0.0
H484 H 0.84914 0.40473 0.13336 0.0
H485 H 0.77445 0.33174 0.13576 0.0
H486 H 0.84153 0.25711 0.10196 0.0
H487 H 0.85052 0.22904 0.12393 0.0
H488 H 0.89776 0.28414 0.11839 0.0
H489 H 0.90578 0.30044 0.1691 0.0
H490 H 0.85843 0.24552 0.17479 0.0
H491 H 0.85511 0.285 0.18732 0.0
H492 H 0.70868 0.25506 0.14109 0.0
H493 H 0.65557 0.17951 0.15104 0.0
H494 H 0.77531 0.18308 0.15577 0.0
C495 C 0.89414 0.35361 0.13738 0.0
C496 C 0.89363 0.38745 0.13544 0.0
C497 C 0.85011 0.3791 0.13462 0.0
C498 C 0.80755 0.33777 0.13591 0.0
C499 C 0.80907 0.30509 0.13837 0.0
C500 C 0.85115 0.31242 0.13922 0.0
C501 C 0.8428 0.27197 0.14431 0.0
C502 C 0.85912 0.25985 0.12074 0.0
C503 C 0.86696 0.27599 0.17043 0.0
C504 C 0.78961 0.24103 0.14646 0.0
C505 C 0.77094 0.26079 0.1426 0.0
C506 C 0.72283 0.23916 0.14404 0.0
C507 C 0.69292 0.19619 0.14972 0.0
C508 C 0.71116 0.17526 0.15422 0.0
C509 C 0.76023 0.19811 0.15242 0.0
H510 H 1.01512 0.49331 0.06718 0.0
H511 H 0.99282 0.58461 0.06718 0.0
H512 H 1.00118 0.58846 0.01829 0.0
H513 H 0.10504 0.54372 0.01803 0.0
H514 H 0.08674 0.49483 0.0031 0.0
H515 H 0.07656 0.49769 0.03778 0.0
H516 H 0.98771 0.43527 0.03038 0.0
H517 H 0.99745 0.43201 0.99566 0.0
H518 H 0.95531 0.4384 0.00547 0.0
H519 H 1.01081 0.58119 0.96912 0.0
H520 H 0.02675 0.56749 0.92414 0.0
H521 H 0.04756 0.48435 0.95694 0.0
C522 C 1.01194 0.51406 0.05687 0.0
C523 C 1.0031 0.53853 0.07085 0.0
C524 C 0.99947 0.56554 0.05676 0.0
C525 C 1.0041 0.56787 0.02902 0.0
C526 C 1.01298 0.5434 0.0158 0.0
C527 C 0.01738 0.51737 0.02931 0.0
C528 C 0.02897 0.49573 0.01065 0.0
C529 C 0.07719 0.50879 0.01782 0.0
C530 C 0.99003 0.44749 0.01054 0.0
C531 C 0.03012 0.51341 0.98446 0.0
C532 C 0.02031 0.5405 0.98778 0.0
C533 C 0.01853 0.56004 0.9663 0.0
C534 C 0.02723 0.55181 0.94081 0.0
C535 C 0.03796 0.52462 0.93707 0.0
C536 C 0.03958 0.5054 0.95925 0.0
H537 H 0.62885 0.05808 0.38796 0.0
H538 H 0.48241 0.99442 0.40448 0.0
H539 H 0.46578 0.98949 0.35643 0.0
H540 H 0.63803 0.11789 0.33118 0.0
H541 H 0.67598 0.11208 0.31319 0.0
H542 H 0.67727 0.1141 0.34901 0.0
H543 H 0.66042 0.04264 0.3489 0.0
H544 H 0.65887 0.0403 0.31316 0.0
H545 H 0.60932 0.99742 0.3312 0.0
H546 H 0.46327 0.9846 0.30691 0.0
H547 H 0.47546 0.98278 0.25889 0.0
H548 H 0.62421 0.05181 0.274 0.0
C549 C 0.59347 0.04375 0.38146 0.0
C550 C 0.55685 0.02655 0.39986 0.0
C551 C 0.51095 0.0078 0.39067 0.0
C552 C 0.5012 0.00492 0.36344 0.0
C553 C 0.53787 0.02138 0.34574 0.0
C554 C 0.5832 0.04083 0.35434 0.0
C555 C 0.6157 0.05414 0.33107 0.0
C556 C 0.65401 0.10243 0.33112 0.0
C557 C 0.63733 0.03231 0.33109 0.0
C558 C 0.58125 0.038 0.30803 0.0
C559 C 0.53661 0.01939 0.31699 0.0
C560 C 0.49818 0.99966 0.29962 0.0
C561 C 0.50545 0.99864 0.27239 0.0
C562 C 0.55083 0.01741 0.2627 0.0
C563 C 0.5893 0.03786 0.28079 0.0
H564 H 0.47158 0.47472 0.76006 0.0
H565 H 0.61528 0.53706 0.7848 0.0
H566 H 0.63953 0.55053 0.73783 0.0
H567 H 0.46945 0.42411 0.70085 0.0
H568 H 0.43473 0.43221 0.68193 0.0
H569 H 0.42894 0.42798 0.71744 0.0
H570 H 0.44812 0.50045 0.72158 0.0
H571 H 0.45355 0.50474 0.68606 0.0
H572 H 0.50142 0.546 0.7075 0.0
H573 H 0.64682 0.55366 0.6878 0.0
H574 H 0.63835 0.5526 0.63903 0.0
H575 H 0.49042 0.49094 0.64764 0.0
C576 C 0.50818 0.49139 0.75557 0.0
C577 C 0.54157 0.50466 0.77592 0.0
C578 C 0.58921 0.52665 0.7694 0.0
C579 C 0.60323 0.53429 0.74282 0.0
C580 C 0.56924 0.52016 0.72313 0.0
C581 C 0.52284 0.49972 0.72924 0.0
C582 C 0.49335 0.48842 0.70449 0.0
C583 C 0.45432 0.44032 0.70098 0.0
C584 C 0.47293 0.51128 0.70494 0.0
C585 C 0.53029 0.50532 0.68344 0.0
C586 C 0.57376 0.52321 0.69454 0.0
C587 C 0.61302 0.54002 0.67891 0.0
C588 C 0.60781 0.53908 0.65123 0.0
C589 C 0.56379 0.52185 0.63954 0.0
C590 C 0.52461 0.50459 0.65597 0.0
H591 H 0.47172 0.98347 0.56549 0.0
H592 H 0.62033 0.07202 0.54784 0.0
H593 H 0.64009 0.0737 0.59487 0.0
H594 H 0.47817 0.02748 0.62822 0.0
H595 H 0.43501 0.97771 0.64351 0.0
H596 H 0.43242 0.98178 0.60821 0.0
H597 H 0.43486 0.92083 0.59987 0.0
H598 H 0.43742 0.91654 0.6352 0.0
H599 H 0.48212 0.92475 0.61423 0.0
H600 H 0.64372 0.07182 0.64428 0.0
H601 H 0.63093 0.06189 0.6926 0.0
H602 H 0.48035 0.97015 0.67806 0.0
C603 C 0.50836 0.00288 0.57156 0.0
C604 C 0.54454 0.02783 0.55317 0.0
C605 C 0.59211 0.05271 0.56168 0.0
C606 C 0.60367 0.05385 0.58832 0.0
C607 C 0.56724 0.02931 0.60608 0.0
C608 C 0.52055 0.0038 0.59804 0.0
C609 C 0.48826 0.98092 0.62127 0.0
C610 C 0.45662 0.99269 0.62555 0.0
C611 C 0.45894 0.93291 0.61741 0.0
C612 C 0.52411 0.9985 0.64372 0.0
C613 C 0.56946 0.02648 0.6345 0.0
C614 C 0.60845 0.04934 0.65169 0.0
C615 C 0.60088 0.04362 0.67906 0.0
C616 C 0.55479 0.01479 0.68889 0.0
C617 C 0.516 0.99157 0.67094 0.0
H618 H 0.60401 0.55944 0.94726 0.0
H619 H 0.46236 0.46178 0.91625 0.0
H620 H 0.43666 0.43247 0.96088 0.0
H621 H 0.60474 0.49547 0.99597 0.0
H622 H 0.63724 0.53827 0.02049 0.0
H623 H 0.6456 0.54925 0.98563 0.0
H624 H 0.62516 0.59849 0.99245 0.0
H625 H 0.61695 0.58782 0.02729 0.0
H626 H 0.57031 0.57834 0.00755 0.0
H627 H 0.4254 0.41617 0.00902 0.0
H628 H 0.42797 0.41637 0.05792 0.0
H629 H 0.57668 0.52575 0.05793 0.0
C630 C 0.56774 0.5316 0.94985 0.0
C631 C 0.5352 0.51258 0.92836 0.0
C632 C 0.48788 0.47658 0.93248 0.0
C633 C 0.47301 0.45965 0.95772 0.0
C634 C 0.5059 0.47921 0.97857 0.0
C635 C 0.55223 0.51451 0.97496 0.0
C636 C 0.57967 0.53121 1.00103 0.0
C637 C 0.61914 0.52836 1.00075 0.0
C638 C 0.59914 0.57664 0.00745 0.0
C639 C 0.54127 0.50033 0.01992 0.0
C640 C 0.49919 0.47024 0.0065 0.0
C641 C 0.45823 0.43936 0.01976 0.0
C642 C 0.46007 0.43975 0.04756 0.0
C643 C 0.50253 0.47105 0.06181 0.0
C644 C 0.54377 0.5012 0.04766 0.0
H645 H 0.05459 0.56084 0.22021 0.0
H646 H 0.02408 0.44021 0.2129 0.0
H647 H 0.01812 0.4345 0.26159 0.0
H648 H 0.12614 0.59815 0.2801 0.0
H649 H 0.10454 0.62352 0.29419 0.0
H650 H 0.10611 0.61824 0.25865 0.0
H651 H 0.01706 0.57999 0.25506 0.0
H652 H 1.01521 0.58526 0.29059 0.0
H653 H 0.97622 0.53386 0.27415 0.0
H654 H 1.01381 0.44071 0.31035 0.0
H655 H 1.01288 0.45906 0.35719 0.0
H656 H 0.04857 0.57696 0.33388 0.0
C657 C 0.0467 0.5333 0.22894 0.0
C658 C 0.03984 0.50094 0.2129 0.0
C659 C 0.02959 0.46537 0.2249 0.0
C660 C 0.02609 0.46182 0.2525 0.0
C661 C 0.03317 0.49424 0.2678 0.0
C662 C 0.04338 0.52937 0.25656 0.0
C663 C 0.04948 0.55964 0.27772 0.0
C664 C 0.09955 0.60242 0.27765 0.0
C665 C 1.01227 0.56499 0.27417 0.0
C666 C 0.04113 0.53597 0.30257 0.0
C667 C 0.03155 0.49823 0.29627 0.0
C668 C 0.02146 0.47024 0.3156 0.0
C669 C 0.02095 0.48095 0.34215 0.0
C670 C 0.03083 0.51951 0.34922 0.0
C671 C 0.04137 0.54748 0.32911 0.0
loop_
_geom_bond_atom_site_label_1
_geom_bond_atom_site_label_2
_geom_bond_distance
_geom_bond_site_symmetry_2
_ccdc_geom_bond_type
Sm0 C2 2.846 . S
Sm0 O20 2.543 . S
Sm0 O21 2.450 . S
Sm0 O22 2.681 . S
Sm0 O23 2.464 . S
Sm0 O24 2.396 . S
Sm0 O28 2.386 . S
Sm0 O31 2.408 1_455 S
Sm1 C11 2.846 . S
Sm1 O22 2.386 1_655 S
Sm1 O25 2.408 1_655 S
Sm1 O26 2.543 . S
Sm1 O27 2.450 . S
Sm1 O28 2.681 1_655 S
Sm1 O29 2.464 . S
Sm1 O30 2.396 . S
C2 Sm0 2.846 . S
C2 C3 1.506 . S
C2 O20 1.261 . S
C2 O21 1.242 . S
C3 C2 1.506 . S
C3 C4 1.358 . S
C3 C8 1.382 . S
C4 C3 1.358 . S
C4 C5 1.385 . S
C4 H32 0.930 . S
C5 C4 1.385 . S
C5 C6 1.395 . S
C5 H33 0.929 . S
C6 C5 1.395 . S
C6 C7 1.335 . S
C7 C6 1.335 . S
C7 C8 1.398 . S
C7 H34 0.930 . S
C8 C3 1.382 . S
C8 C7 1.398 . S
C8 H35 0.929 . S
C9 O22 1.271 . S
C9 O23 1.251 . S
C10 O24 1.252 . S
C10 O25 1.272 . S
C11 Sm1 2.846 . S
C11 C12 1.506 . S
C11 O26 1.261 . S
C11 O27 1.242 . S
C12 C11 1.506 . S
C12 C13 1.358 . S
C12 C17 1.382 . S
C13 C12 1.358 . S
C13 C14 1.385 . S
C13 H36 0.930 . S
C14 C13 1.385 . S
C14 C15 1.395 . S
C14 H37 0.929 . S
C15 C14 1.395 . S
C15 C16 1.335 . S
C16 C15 1.335 . S
C16 C17 1.398 . S
C16 H38 0.930 . S
C17 C12 1.382 . S
C17 C16 1.398 . S
C17 H39 0.929 . S
C18 O28 1.271 . S
C18 O29 1.251 1_455 S
C19 O30 1.252 . S
C19 O31 1.272 . S
O20 Sm0 2.543 . S
O20 C2 1.261 . S
O21 Sm0 2.450 . S
O21 C2 1.242 . S
O22 Sm0 2.681 . S
O22 Sm1 2.386 1_455 S
O22 C9 1.271 . S
O23 Sm0 2.464 . S
O23 C9 1.251 . S
O24 Sm0 2.396 . S
O24 C10 1.252 . S
O25 Sm1 2.408 1_455 S
O25 C10 1.272 . S
O26 Sm1 2.543 . S
O26 C11 1.261 . S
O27 Sm1 2.450 . S
O27 C11 1.242 . S
O28 Sm0 2.386 . S
O28 Sm1 2.681 1_455 S
O28 C18 1.271 . S
O29 Sm1 2.464 . S
O29 C18 1.251 1_655 S
O30 Sm1 2.396 . S
O30 C19 1.252 . S
O31 Sm0 2.408 1_655 S
O31 C19 1.272 . S
H32 C4 0.930 . S
H33 C5 0.929 . S
H34 C7 0.930 . S
H35 C8 0.929 . S
H36 C13 0.930 . S
H37 C14 0.929 . S
H38 C16 0.930 . S
H39 C17 0.929 . S
Sm40 C42 2.846 . S
Sm40 O60 2.543 . S
Sm40 O61 2.450 . S
Sm40 O62 2.681 1_565 S
Sm40 O63 2.464 . S
Sm40 O64 2.396 . S
Sm40 O68 2.386 1_565 S
Sm40 O71 2.408 1_565 S
Sm41 C51 2.846 . S
Sm41 O62 2.386 . S
Sm41 O65 2.408 1_545 S
Sm41 O66 2.543 . S
Sm41 O67 2.450 . S
Sm41 O68 2.681 . S
Sm41 O69 2.464 . S
Sm41 O70 2.396 . S
C42 Sm40 2.846 . S
C42 C43 1.506 . S
C42 O60 1.261 . S
C42 O61 1.242 . S
C43 C42 1.506 . S
C43 C44 1.358 . S
C43 C48 1.382 . S
C44 C43 1.358 . S
C44 C45 1.385 . S
C44 H72 0.930 . S
C45 C44 1.385 . S
C45 C46 1.395 . S
C45 H73 0.929 . S
C46 C45 1.395 . S
C46 C47 1.335 . S
C47 C46 1.335 . S
C47 C48 1.398 . S
C47 H74 0.930 . S
C48 C43 1.382 . S
C48 C47 1.398 . S
C48 H75 0.929 . S
C49 O62 1.271 . S
C49 O63 1.251 1_545 S
C50 O64 1.252 . S
C50 O65 1.272 . S
C51 Sm41 2.846 . S
C51 C52 1.506 . S
C51 O66 1.261 . S
C51 O67 1.242 . S
C52 C51 1.506 . S
C52 C53 1.358 . S
C52 C57 1.382 . S
C53 C52 1.358 . S
C53 C54 1.385 . S
C53 H76 0.930 . S
C54 C53 1.385 . S
C54 C55 1.395 . S
C54 H77 0.929 . S
C55 C54 1.395 . S
C55 C56 1.335 . S
C56 C55 1.335 . S
C56 C57 1.398 . S
C56 H78 0.930 . S
C57 C52 1.382 . S
C57 C56 1.398 . S
C57 H79 0.929 . S
C58 O68 1.271 . S
C58 O69 1.251 . S
C59 O70 1.252 . S
C59 O71 1.272 . S
O60 Sm40 2.543 . S
O60 C42 1.261 . S
O61 Sm40 2.450 . S
O61 C42 1.242 . S
O62 Sm40 2.681 1_545 S
O62 Sm41 2.386 . S
O62 C49 1.271 . S
O63 Sm40 2.464 . S
O63 C49 1.251 1_565 S
O64 Sm40 2.396 . S
O64 C50 1.252 . S
O65 Sm41 2.408 1_565 S
O65 C50 1.272 . S
O66 Sm41 2.543 . S
O66 C51 1.261 . S
O67 Sm41 2.450 . S
O67 C51 1.242 . S
O68 Sm40 2.386 1_545 S
O68 Sm41 2.681 . S
O68 C58 1.271 . S
O69 Sm41 2.464 . S
O69 C58 1.251 . S
O70 Sm41 2.396 . S
O70 C59 1.252 . S
O71 Sm40 2.408 1_545 S
O71 C59 1.272 . S
H72 C44 0.930 . S
H73 C45 0.929 . S
H74 C47 0.930 . S
H75 C48 0.929 . S
H76 C53 0.930 . S
H77 C54 0.929 . S
H78 C56 0.930 . S
H79 C57 0.929 . S
Sm80 C82 2.846 . S
Sm80 O100 2.543 . S
Sm80 O101 2.450 . S
Sm80 O102 2.681 . S
Sm80 O103 2.464 . S
Sm80 O104 2.396 . S
Sm80 O108 2.386 . S
Sm80 O111 2.408 . S
Sm81 C91 2.846 . S
Sm81 O102 2.386 . S
Sm81 O105 2.408 . S
Sm81 O106 2.543 . S
Sm81 O107 2.450 . S
Sm81 O108 2.681 . S
Sm81 O109 2.464 . S
Sm81 O110 2.396 . S
C82 Sm80 2.846 . S
C82 C83 1.506 . S
C82 O100 1.261 . S
C82 O101 1.242 . S
C83 C82 1.506 . S
C83 C84 1.358 . S
C83 C88 1.382 . S
C84 C83 1.358 . S
C84 C85 1.385 . S
C84 H112 0.930 . S
C85 C84 1.385 . S
C85 C86 1.395 . S
C85 H113 0.929 . S
C86 C85 1.395 . S
C86 C87 1.335 . S
C87 C86 1.335 . S
C87 C88 1.398 . S
C87 H114 0.930 . S
C88 C83 1.382 . S
C88 C87 1.398 . S
C88 H115 0.929 . S
C89 O102 1.271 . S
C89 O103 1.251 . S
C90 O104 1.252 . S
C90 O105 1.272 . S
C91 Sm81 2.846 . S
C91 C92 1.506 . S
C91 O106 1.261 . S
C91 O107 1.242 . S
C92 C91 1.506 . S
C92 C93 1.358 . S
C92 C97 1.382 . S
C93 C92 1.358 . S
C93 C94 1.385 . S
C93 H116 0.930 . S
C94 C93 1.385 . S
C94 C95 1.395 . S
C94 H117 0.929 . S
C95 C94 1.395 . S
C95 C96 1.335 . S
C96 C95 1.335 . S
C96 C97 1.398 . S
C96 H118 0.930 . S
C97 C92 1.382 . S
C97 C96 1.398 . S
C97 H119 0.929 . S
C98 O108 1.271 . S
C98 O109 1.251 . S
C99 O110 1.252 . S
C99 O111 1.272 . S
O100 Sm80 2.543 . S
O100 C82 1.261 . S
O101 Sm80 2.450 . S
O101 C82 1.242 . S
O102 Sm80 2.681 . S
O102 Sm81 2.386 . S
O102 C89 1.271 . S
O103 Sm80 2.464 . S
O103 C89 1.251 . S
O104 Sm80 2.396 . S
O104 C90 1.252 . S
O105 Sm81 2.408 . S
O105 C90 1.272 . S
O106 Sm81 2.543 . S
O106 C91 1.261 . S
O107 Sm81 2.450 . S
O107 C91 1.242 . S
O108 Sm80 2.386 . S
O108 Sm81 2.681 . S
O108 C98 1.271 . S
O109 Sm81 2.464 . S
O109 C98 1.251 . S
O110 Sm81 2.396 . S
O110 C99 1.252 . S
O111 Sm80 2.408 . S
O111 C99 1.272 . S
H112 C84 0.930 . S
H113 C85 0.929 . S
H114 C87 0.930 . S
H115 C88 0.929 . S
H116 C93 0.930 . S
H117 C94 0.929 . S
H118 C96 0.930 . S
H119 C97 0.929 . S
O120 Cd121 2.300 . S
O120 C127 1.275 . S
Cd121 O120 2.300 . S
Cd121 O129 2.381 . S
Cd121 O130 2.378 . S
O122 Cd123 2.385 . S
O122 C127 1.255 1_565 S
Cd123 O122 2.385 . S
Cd123 O124 2.317 . S
O124 Cd123 2.317 . S
O124 C125 1.232 . S
C125 O124 1.232 . S
C125 O126 1.218 . S
O126 C125 1.218 . S
C127 O120 1.275 . S
C127 O122 1.255 1_545 S
C128 O129 1.258 . S
C128 O130 1.256 . S
O129 Cd121 2.381 . S
O129 C128 1.258 . S
O130 Cd121 2.378 . S
O130 C128 1.256 . S
O131 Cd132 2.300 . S
O131 C138 1.275 . S
Cd132 O131 2.300 . S
Cd132 O140 2.381 . S
Cd132 O141 2.378 . S
O133 Cd134 2.385 . S
O133 C138 1.255 . S
Cd134 O133 2.385 . S
Cd134 O135 2.317 . S
O135 Cd134 2.317 . S
O135 C136 1.232 . S
C136 O135 1.232 . S
C136 O137 1.218 . S
O137 C136 1.218 . S
C138 O131 1.275 . S
C138 O133 1.255 . S
C139 O140 1.258 . S
C139 O141 1.256 . S
O140 Cd132 2.381 . S
O140 C139 1.258 . S
O141 Cd132 2.378 . S
O141 C139 1.256 . S
O142 Cd143 2.300 . S
O142 C149 1.275 . S
Cd143 O142 2.300 . S
Cd143 O151 2.381 . S
Cd143 O152 2.378 . S
O144 Cd145 2.385 . S
O144 C149 1.255 1_655 S
Cd145 O144 2.385 . S
Cd145 O146 2.317 . S
O146 Cd145 2.317 . S
O146 C147 1.232 . S
C147 O146 1.232 . S
C147 O148 1.218 . S
O148 C147 1.218 . S
C149 O142 1.275 . S
C149 O144 1.255 1_455 S
C150 O151 1.258 . S
C150 O152 1.256 . S
O151 Cd143 2.381 . S
O151 C150 1.258 . S
O152 Cd143 2.378 . S
O152 C150 1.256 . S
O153 Cd154 2.300 . S
O153 C160 1.275 1_455 S
Cd154 O153 2.300 . S
Cd154 O162 2.381 . S
Cd154 O163 2.378 . S
O155 Cd156 2.385 . S
O155 C160 1.255 . S
Cd156 O155 2.385 . S
Cd156 O157 2.317 . S
O157 Cd156 2.317 . S
O157 C158 1.232 . S
C158 O157 1.232 . S
C158 O159 1.218 . S
O159 C158 1.218 . S
C160 O153 1.275 1_655 S
C160 O155 1.255 . S
C161 O162 1.258 . S
C161 O163 1.256 . S
O162 Cd154 2.381 . S
O162 C161 1.258 . S
O163 Cd154 2.378 . S
O163 C161 1.256 . S
O164 Cd165 2.300 . S
O164 C171 1.275 1_565 S
Cd165 O164 2.300 . S
Cd165 O173 2.381 . S
Cd165 O174 2.378 . S
O166 Cd167 2.385 . S
O166 C171 1.255 . S
Cd167 O166 2.385 . S
Cd167 O168 2.317 . S
O168 Cd167 2.317 . S
O168 C169 1.232 . S
C169 O168 1.232 . S
C169 O170 1.218 . S
O170 C169 1.218 . S
C171 O164 1.275 1_545 S
C171 O166 1.255 . S
C172 O173 1.258 . S
C172 O174 1.256 . S
O173 Cd165 2.381 . S
O173 C172 1.258 . S
O174 Cd165 2.378 . S
O174 C172 1.256 . S
O175 Cd176 2.300 . S
O175 C182 1.275 . S
Cd176 O175 2.300 . S
Cd176 O184 2.381 . S
Cd176 O185 2.378 . S
O177 Cd178 2.385 . S
O177 C182 1.255 . S
Cd178 O177 2.385 . S
Cd178 O179 2.317 . S
O179 Cd178 2.317 . S
O179 C180 1.232 . S
C180 O179 1.232 . S
C180 O181 1.218 . S
O181 C180 1.218 . S
C182 O175 1.275 . S
C182 O177 1.255 . S
C183 O184 1.258 . S
C183 O185 1.256 . S
O184 Cd176 2.381 . S
O184 C183 1.258 . S
O185 Cd176 2.378 . S
O185 C183 1.256 . S
H186 C198 0.930 . S
H187 C200 0.930 . S
H188 C201 0.930 . S
H189 C205 0.959 . S
H190 C205 0.959 . S
H191 C205 0.961 . S
H192 C206 0.960 . S
H193 C206 0.961 . S
H194 C206 0.959 . S
H195 C209 0.929 . S
H196 C210 0.931 . S
H197 C212 0.930 . S
C198 H186 0.930 . S
C198 C199 1.399 . S
C198 C203 1.399 . S
C199 C198 1.399 . S
C199 C200 1.376 . S
C200 H187 0.930 . S
C200 C199 1.376 . S
C200 C201 1.388 . S
C201 H188 0.930 . S
C201 C200 1.388 . S
C201 C202 1.390 . S
C202 C201 1.390 . S
C202 C203 1.394 . S
C202 C208 1.465 . S
C203 C198 1.399 . S
C203 C202 1.394 . S
C203 C204 1.516 . S
C204 C203 1.516 . S
C204 C205 1.502 . S
C204 C206 1.561 . S
C204 C207 1.526 . S
C205 H189 0.959 . S
C205 H190 0.959 . S
C205 H191 0.961 . S
C205 C204 1.502 . S
C206 H192 0.960 . S
C206 H193 0.961 . S
C206 H194 0.959 . S
C206 C204 1.561 . S
C207 C204 1.526 . S
C207 C208 1.396 . S
C207 C212 1.390 . S
C208 C202 1.465 . S
C208 C207 1.396 . S
C208 C209 1.399 . S
C209 H195 0.929 . S
C209 C208 1.399 . S
C209 C210 1.385 . S
C210 H196 0.931 . S
C210 C209 1.385 . S
C210 C211 1.389 . S
C211 C210 1.389 . S
C211 C212 1.387 . S
C212 H197 0.930 . S
C212 C207 1.390 . S
C212 C211 1.387 . S
H213 C225 0.930 . S
H214 C227 0.930 . S
H215 C228 0.930 . S
H216 C232 0.959 . S
H217 C232 0.959 . S
H218 C232 0.961 . S
H219 C233 0.960 . S
H220 C233 0.961 . S
H221 C233 0.959 . S
H222 C236 0.929 . S
H223 C237 0.931 . S
H224 C239 0.930 . S
C225 H213 0.930 . S
C225 C226 1.399 . S
C225 C230 1.399 . S
C226 C225 1.399 . S
C226 C227 1.376 . S
C227 H214 0.930 . S
C227 C226 1.376 . S
C227 C228 1.388 . S
C228 H215 0.930 . S
C228 C227 1.388 . S
C228 C229 1.390 . S
C229 C228 1.390 . S
C229 C230 1.394 . S
C229 C235 1.465 . S
C230 C225 1.399 . S
C230 C229 1.394 . S
C230 C231 1.516 . S
C231 C230 1.516 . S
C231 C232 1.502 . S
C231 C233 1.561 . S
C231 C234 1.526 . S
C232 H216 0.959 . S
C232 H217 0.959 . S
C232 H218 0.961 . S
C232 C231 1.502 . S
C233 H219 0.960 . S
C233 H220 0.961 . S
C233 H221 0.959 . S
C233 C231 1.561 . S
C234 C231 1.526 . S
C234 C235 1.396 . S
C234 C239 1.390 . S
C235 C229 1.465 . S
C235 C234 1.396 . S
C235 C236 1.399 . S
C236 H222 0.929 . S
C236 C235 1.399 . S
C236 C237 1.385 . S
C237 H223 0.931 . S
C237 C236 1.385 . S
C237 C238 1.389 . S
C238 C237 1.389 . S
C238 C239 1.387 . S
C239 H224 0.930 . S
C239 C234 1.390 . S
C239 C238 1.387 . S
H240 C252 0.930 . S
H241 C254 0.930 . S
H242 C255 0.930 . S
H243 C259 0.959 . S
H244 C259 0.959 . S
H245 C259 0.961 . S
H246 C260 0.960 . S
H247 C260 0.961 . S
H248 C260 0.959 . S
H249 C263 0.929 . S
H250 C264 0.931 . S
H251 C266 0.930 . S
C252 H240 0.930 . S
C252 C253 1.399 . S
C252 C257 1.399 . S
C253 C252 1.399 . S
C253 C254 1.376 . S
C254 H241 0.930 . S
C254 C253 1.376 . S
C254 C255 1.388 . S
C255 H242 0.930 . S
C255 C254 1.388 . S
C255 C256 1.390 . S
C256 C255 1.390 . S
C256 C257 1.394 . S
C256 C262 1.465 . S
C257 C252 1.399 . S
C257 C256 1.394 . S
C257 C258 1.516 . S
C258 C257 1.516 . S
C258 C259 1.502 . S
C258 C260 1.561 . S
C258 C261 1.526 . S
C259 H243 0.959 . S
C259 H244 0.959 . S
C259 H245 0.961 . S
C259 C258 1.502 . S
C260 H246 0.960 . S
C260 H247 0.961 . S
C260 H248 0.959 . S
C260 C258 1.561 . S
C261 C258 1.526 . S
C261 C262 1.396 . S
C261 C266 1.390 . S
C262 C256 1.465 . S
C262 C261 1.396 . S
C262 C263 1.399 . S
C263 H249 0.929 . S
C263 C262 1.399 . S
C263 C264 1.385 . S
C264 H250 0.931 . S
C264 C263 1.385 . S
C264 C265 1.389 . S
C265 C264 1.389 . S
C265 C266 1.387 . S
C266 H251 0.930 . S
C266 C261 1.390 . S
C266 C265 1.387 . S
H267 C279 0.930 . S
H268 C281 0.930 . S
H269 C282 0.930 . S
H270 C286 0.959 . S
H271 C286 0.959 . S
H272 C286 0.961 . S
H273 C287 0.960 . S
H274 C287 0.961 . S
H275 C287 0.959 . S
H276 C290 0.929 . S
H277 C291 0.931 . S
H278 C293 0.930 . S
C279 H267 0.930 . S
C279 C280 1.399 . S
C279 C284 1.399 . S
C280 C279 1.399 . S
C280 C281 1.376 . S
C281 H268 0.930 . S
C281 C280 1.376 . S
C281 C282 1.388 . S
C282 H269 0.930 . S
C282 C281 1.388 . S
C282 C283 1.390 . S
C283 C282 1.390 . S
C283 C284 1.394 . S
C283 C289 1.465 . S
C284 C279 1.399 . S
C284 C283 1.394 . S
C284 C285 1.516 . S
C285 C284 1.516 . S
C285 C286 1.502 . S
C285 C287 1.561 . S
C285 C288 1.526 . S
C286 H270 0.959 . S
C286 H271 0.959 . S
C286 H272 0.961 . S
C286 C285 1.502 . S
C287 H273 0.960 . S
C287 H274 0.961 . S
C287 H275 0.959 . S
C287 C285 1.561 . S
C288 C285 1.526 . S
C288 C289 1.396 . S
C288 C293 1.390 . S
C289 C283 1.465 . S
C289 C288 1.396 . S
C289 C290 1.399 . S
C290 H276 0.929 . S
C290 C289 1.399 . S
C290 C291 1.385 . S
C291 H277 0.931 . S
C291 C290 1.385 . S
C291 C292 1.389 . S
C292 C291 1.389 . S
C292 C293 1.387 . S
C293 H278 0.930 . S
C293 C288 1.390 . S
C293 C292 1.387 . S
H294 C306 0.930 . S
H295 C308 0.930 . S
H296 C309 0.930 . S
H297 C313 0.959 . S
H298 C313 0.959 . S
H299 C313 0.961 . S
H300 C314 0.960 . S
H301 C314 0.961 . S
H302 C314 0.959 . S
H303 C317 0.929 . S
H304 C318 0.931 . S
H305 C320 0.930 . S
C306 H294 0.930 . S
C306 C307 1.399 . S
C306 C311 1.399 . S
C307 C306 1.399 . S
C307 C308 1.376 . S
C308 H295 0.930 . S
C308 C307 1.376 . S
C308 C309 1.388 . S
C309 H296 0.930 . S
C309 C308 1.388 . S
C309 C310 1.390 . S
C310 C309 1.390 . S
C310 C311 1.394 . S
C310 C316 1.465 . S
C311 C306 1.399 . S
C311 C310 1.394 . S
C311 C312 1.516 . S
C312 C311 1.516 . S
C312 C313 1.502 . S
C312 C314 1.561 . S
C312 C315 1.526 . S
C313 H297 0.959 . S
C313 H298 0.959 . S
C313 H299 0.961 . S
C313 C312 1.502 . S
C314 H300 0.960 . S
C314 H301 0.961 . S
C314 H302 0.959 . S
C314 C312 1.561 . S
C315 C312 1.526 . S
C315 C316 1.396 . S
C315 C320 1.390 . S
C316 C310 1.465 . S
C316 C315 1.396 . S
C316 C317 1.399 . S
C317 H303 0.929 . S
C317 C316 1.399 . S
C317 C318 1.385 . S
C318 H304 0.931 . S
C318 C317 1.385 . S
C318 C319 1.389 . S
C319 C318 1.389 . S
C319 C320 1.387 . S
C320 H305 0.930 . S
C320 C315 1.390 . S
C320 C319 1.387 . S
H321 C333 0.930 . S
H322 C335 0.930 . S
H323 C336 0.930 . S
H324 C340 0.959 . S
H325 C340 0.959 . S
H326 C340 0.961 . S
H327 C341 0.960 . S
H328 C341 0.961 . S
H329 C341 0.959 . S
H330 C344 0.929 . S
H331 C345 0.931 . S
H332 C347 0.930 . S
C333 H321 0.930 . S
C333 C334 1.399 . S
C333 C338 1.399 . S
C334 C333 1.399 . S
C334 C335 1.376 . S
C335 H322 0.930 . S
C335 C334 1.376 . S
C335 C336 1.388 . S
C336 H323 0.930 . S
C336 C335 1.388 . S
C336 C337 1.390 . S
C337 C336 1.390 . S
C337 C338 1.394 . S
C337 C343 1.465 . S
C338 C333 1.399 . S
C338 C337 1.394 . S
C338 C339 1.516 . S
C339 C338 1.516 . S
C339 C340 1.502 . S
C339 C341 1.561 . S
C339 C342 1.526 . S
C340 H324 0.959 . S
C340 H325 0.959 . S
C340 H326 0.961 . S
C340 C339 1.502 . S
C341 H327 0.960 . S
C341 H328 0.961 . S
C341 H329 0.959 . S
C341 C339 1.561 . S
C342 C339 1.526 . S
C342 C343 1.396 . S
C342 C347 1.390 . S
C343 C337 1.465 . S
C343 C342 1.396 . S
C343 C344 1.399 . S
C344 H330 0.929 . S
C344 C343 1.399 . S
C344 C345 1.385 . S
C345 H331 0.931 . S
C345 C344 1.385 . S
C345 C346 1.389 . S
C346 C345 1.389 . S
C346 C347 1.387 . S
C347 H332 0.930 . S
C347 C342 1.390 . S
C347 C346 1.387 . S
H348 C360 0.930 . S
H349 C362 0.930 . S
H350 C363 0.930 . S
H351 C367 0.959 . S
H352 C367 0.959 . S
H353 C367 0.961 . S
H354 C368 0.960 . S
H355 C368 0.961 . S
H356 C368 0.959 . S
H357 C371 0.929 . S
H358 C372 0.931 . S
H359 C374 0.930 . S
C360 H348 0.930 . S
C360 C361 1.399 . S
C360 C365 1.399 . S
C361 C360 1.399 . S
C361 C362 1.376 . S
C362 H349 0.930 . S
C362 C361 1.376 . S
C362 C363 1.388 . S
C363 H350 0.930 . S
C363 C362 1.388 . S
C363 C364 1.390 . S
C364 C363 1.390 . S
C364 C365 1.394 . S
C364 C370 1.465 . S
C365 C360 1.399 . S
C365 C364 1.394 . S
C365 C366 1.516 . S
C366 C365 1.516 . S
C366 C367 1.502 . S
C366 C368 1.561 . S
C366 C369 1.526 . S
C367 H351 0.959 . S
C367 H352 0.959 . S
C367 H353 0.961 . S
C367 C366 1.502 . S
C368 H354 0.960 . S
C368 H355 0.961 . S
C368 H356 0.959 . S
C368 C366 1.561 . S
C369 C366 1.526 . S
C369 C370 1.396 . S
C369 C374 1.390 . S
C370 C364 1.465 . S
C370 C369 1.396 . S
C370 C371 1.399 . S
C371 H357 0.929 . S
C371 C370 1.399 . S
C371 C372 1.385 . S
C372 H358 0.931 . S
C372 C371 1.385 . S
C372 C373 1.389 . S
C373 C372 1.389 . S
C373 C374 1.387 . S
C374 H359 0.930 . S
C374 C369 1.390 . S
C374 C373 1.387 . S
H375 C387 0.930 . S
H376 C389 0.930 . S
H377 C390 0.930 . S
H378 C394 0.959 . S
H379 C394 0.959 . S
H380 C394 0.961 . S
H381 C395 0.960 . S
H382 C395 0.961 . S
H383 C395 0.959 . S
H384 C398 0.929 . S
H385 C399 0.931 . S
H386 C401 0.930 . S
C387 H375 0.930 . S
C387 C388 1.399 . S
C387 C392 1.399 . S
C388 C387 1.399 . S
C388 C389 1.376 . S
C389 H376 0.930 . S
C389 C388 1.376 . S
C389 C390 1.388 . S
C390 H377 0.930 . S
C390 C389 1.388 . S
C390 C391 1.390 . S
C391 C390 1.390 . S
C391 C392 1.394 . S
C391 C397 1.465 . S
C392 C387 1.399 . S
C392 C391 1.394 . S
C392 C393 1.516 . S
C393 C392 1.516 . S
C393 C394 1.502 . S
C393 C395 1.561 . S
C393 C396 1.526 . S
C394 H378 0.959 . S
C394 H379 0.959 . S
C394 H380 0.961 . S
C394 C393 1.502 . S
C395 H381 0.960 . S
C395 H382 0.961 . S
C395 H383 0.959 . S
C395 C393 1.561 . S
C396 C393 1.526 . S
C396 C397 1.396 . S
C396 C401 1.390 . S
C397 C391 1.465 . S
C397 C396 1.396 . S
C397 C398 1.399 . S
C398 H384 0.929 . S
C398 C397 1.399 . S
C398 C399 1.385 . S
C399 H385 0.931 . S
C399 C398 1.385 . S
C399 C400 1.389 . S
C400 C399 1.389 . S
C400 C401 1.387 . S
C401 H386 0.930 . S
C401 C396 1.390 . S
C401 C400 1.387 . S
H402 C414 0.930 . S
H403 C416 0.930 . S
H404 C417 0.930 . S
H405 C421 0.959 . S
H406 C421 0.959 . S
H407 C421 0.961 . S
H408 C422 0.960 . S
H409 C422 0.961 . S
H410 C422 0.959 . S
H411 C425 0.929 . S
H412 C426 0.931 . S
H413 C428 0.930 . S
C414 H402 0.930 . S
C414 C415 1.399 . S
C414 C419 1.399 . S
C415 C414 1.399 . S
C415 C416 1.376 . S
C416 H403 0.930 . S
C416 C415 1.376 . S
C416 C417 1.388 . S
C417 H404 0.930 . S
C417 C416 1.388 . S
C417 C418 1.390 . S
C418 C417 1.390 . S
C418 C419 1.394 . S
C418 C424 1.465 . S
C419 C414 1.399 . S
C419 C418 1.394 . S
C419 C420 1.516 . S
C420 C419 1.516 . S
C420 C421 1.502 . S
C420 C422 1.561 . S
C420 C423 1.526 . S
C421 H405 0.959 . S
C421 H406 0.959 . S
C421 H407 0.961 . S
C421 C420 1.502 . S
C422 H408 0.960 . S
C422 H409 0.961 . S
C422 H410 0.959 . S
C422 C420 1.561 . S
C423 C420 1.526 . S
C423 C424 1.396 . S
C423 C428 1.390 . S
C424 C418 1.465 . S
C424 C423 1.396 . S
C424 C425 1.399 . S
C425 H411 0.929 . S
C425 C424 1.399 . S
C425 C426 1.385 . S
C426 H412 0.931 . S
C426 C425 1.385 . S
C426 C427 1.389 . S
C427 C426 1.389 . S
C427 C428 1.387 . S
C428 H413 0.930 . S
C428 C423 1.390 . S
C428 C427 1.387 . S
H429 C441 0.930 . S
H430 C443 0.930 . S
H431 C444 0.930 . S
H432 C448 0.959 . S
H433 C448 0.959 . S
H434 C448 0.961 . S
H435 C449 0.960 . S
H436 C449 0.961 . S
H437 C449 0.959 . S
H438 C452 0.929 . S
H439 C453 0.931 . S
H440 C455 0.930 . S
C441 H429 0.930 . S
C441 C442 1.399 . S
C441 C446 1.399 . S
C442 C441 1.399 . S
C442 C443 1.376 . S
C443 H430 0.930 . S
C443 C442 1.376 . S
C443 C444 1.388 . S
C444 H431 0.930 . S
C444 C443 1.388 . S
C444 C445 1.390 . S
C445 C444 1.390 . S
C445 C446 1.394 . S
C445 C451 1.465 . S
C446 C441 1.399 . S
C446 C445 1.394 . S
C446 C447 1.516 . S
C447 C446 1.516 . S
C447 C448 1.502 . S
C447 C449 1.561 . S
C447 C450 1.526 . S
C448 H432 0.959 . S
C448 H433 0.959 . S
C448 H434 0.961 . S
C448 C447 1.502 . S
C449 H435 0.960 . S
C449 H436 0.961 . S
C449 H437 0.959 . S
C449 C447 1.561 . S
C450 C447 1.526 . S
C450 C451 1.396 . S
C450 C455 1.390 . S
C451 C445 1.465 . S
C451 C450 1.396 . S
C451 C452 1.399 . S
C452 H438 0.929 . S
C452 C451 1.399 . S
C452 C453 1.385 . S
C453 H439 0.931 . S
C453 C452 1.385 . S
C453 C454 1.389 . S
C454 C453 1.389 . S
C454 C455 1.387 . S
C455 H440 0.930 . S
C455 C450 1.390 . S
C455 C454 1.387 . S
H456 C468 0.930 . S
H457 C470 0.930 . S
H458 C471 0.930 . S
H459 C475 0.959 . S
H460 C475 0.959 . S
H461 C475 0.961 . S
H462 C476 0.960 . S
H463 C476 0.961 . S
H464 C476 0.959 . S
H465 C479 0.929 . S
H466 C480 0.931 . S
H467 C482 0.930 . S
C468 H456 0.930 . S
C468 C469 1.399 . S
C468 C473 1.399 . S
C469 C468 1.399 . S
C469 C470 1.376 . S
C470 H457 0.930 . S
C470 C469 1.376 . S
C470 C471 1.388 . S
C471 H458 0.930 . S
C471 C470 1.388 . S
C471 C472 1.390 . S
C472 C471 1.390 . S
C472 C473 1.394 . S
C472 C478 1.465 . S
C473 C468 1.399 . S
C473 C472 1.394 . S
C473 C474 1.516 . S
C474 C473 1.516 . S
C474 C475 1.502 . S
C474 C476 1.561 . S
C474 C477 1.526 . S
C475 H459 0.959 . S
C475 H460 0.959 . S
C475 H461 0.961 . S
C475 C474 1.502 . S
C476 H462 0.960 . S
C476 H463 0.961 . S
C476 H464 0.959 . S
C476 C474 1.561 . S
C477 C474 1.526 . S
C477 C478 1.396 . S
C477 C482 1.390 . S
C478 C472 1.465 . S
C478 C477 1.396 . S
C478 C479 1.399 . S
C479 H465 0.929 . S
C479 C478 1.399 . S
C479 C480 1.385 . S
C480 H466 0.931 . S
C480 C479 1.385 . S
C480 C481 1.389 . S
C481 C480 1.389 . S
C481 C482 1.387 . S
C482 H467 0.930 . S
C482 C477 1.390 . S
C482 C481 1.387 . S
H483 C495 0.930 . S
H484 C497 0.930 . S
H485 C498 0.930 . S
H486 C502 0.959 . S
H487 C502 0.959 . S
H488 C502 0.961 . S
H489 C503 0.960 . S
H490 C503 0.961 . S
H491 C503 0.959 . S
H492 C506 0.929 . S
H493 C507 0.931 . S
H494 C509 0.930 . S
C495 H483 0.930 . S
C495 C496 1.399 . S
C495 C500 1.399 . S
C496 C495 1.399 . S
C496 C497 1.376 . S
C497 H484 0.930 . S
C497 C496 1.376 . S
C497 C498 1.388 . S
C498 H485 0.930 . S
C498 C497 1.388 . S
C498 C499 1.390 . S
C499 C498 1.390 . S
C499 C500 1.394 . S
C499 C505 1.465 . S
C500 C495 1.399 . S
C500 C499 1.394 . S
C500 C501 1.516 . S
C501 C500 1.516 . S
C501 C502 1.502 . S
C501 C503 1.561 . S
C501 C504 1.526 . S
C502 H486 0.959 . S
C502 H487 0.959 . S
C502 H488 0.961 . S
C502 C501 1.502 . S
C503 H489 0.960 . S
C503 H490 0.961 . S
C503 H491 0.959 . S
C503 C501 1.561 . S
C504 C501 1.526 . S
C504 C505 1.396 . S
C504 C509 1.390 . S
C505 C499 1.465 . S
C505 C504 1.396 . S
C505 C506 1.399 . S
C506 H492 0.929 . S
C506 C505 1.399 . S
C506 C507 1.385 . S
C507 H493 0.931 . S
C507 C506 1.385 . S
C507 C508 1.389 . S
C508 C507 1.389 . S
C508 C509 1.387 . S
C509 H494 0.930 . S
C509 C504 1.390 . S
C509 C508 1.387 . S
H510 C522 0.930 . S
H511 C524 0.930 . S
H512 C525 0.930 . S
H513 C529 0.959 . S
H514 C529 0.959 1_556 S
H515 C529 0.961 . S
H516 C530 0.960 . S
H517 C530 0.961 1_556 S
H518 C530 0.959 . S
H519 C533 0.929 . S
H520 C534 0.931 . S
H521 C536 0.930 . S
C522 H510 0.930 . S
C522 C523 1.399 . S
C522 C527 1.399 . S
C523 C522 1.399 . S
C523 C524 1.376 . S
C524 H511 0.930 . S
C524 C523 1.376 . S
C524 C525 1.388 . S
C525 H512 0.930 . S
C525 C524 1.388 . S
C525 C526 1.390 . S
C526 C525 1.390 . S
C526 C527 1.394 . S
C526 C532 1.465 . S
C527 C522 1.399 . S
C527 C526 1.394 . S
C527 C528 1.516 . S
C528 C527 1.516 . S
C528 C529 1.502 . S
C528 C530 1.561 1_455 S
C528 C531 1.526 1_554 S
C529 H513 0.959 . S
C529 H514 0.959 1_554 S
C529 H515 0.961 . S
C529 C528 1.502 . S
C530 H516 0.960 . S
C530 H517 0.961 1_554 S
C530 H518 0.959 . S
C530 C528 1.561 1_655 S
C531 C528 1.526 1_556 S
C531 C532 1.396 1_556 S
C531 C536 1.390 . S
C532 C526 1.465 . S
C532 C531 1.396 1_554 S
C532 C533 1.399 1_554 S
C533 H519 0.929 . S
C533 C532 1.399 1_556 S
C533 C534 1.385 . S
C534 H520 0.931 . S
C534 C533 1.385 . S
C534 C535 1.389 . S
C535 C534 1.389 . S
C535 C536 1.387 . S
C536 H521 0.930 . S
C536 C531 1.390 . S
C536 C535 1.387 . S
H537 C549 0.930 . S
H538 C551 0.930 . S
H539 C552 0.930 . S
H540 C556 0.959 . S
H541 C556 0.959 . S
H542 C556 0.961 . S
H543 C557 0.960 . S
H544 C557 0.961 . S
H545 C557 0.959 . S
H546 C560 0.929 . S
H547 C561 0.931 . S
H548 C563 0.930 . S
C549 H537 0.930 . S
C549 C550 1.399 . S
C549 C554 1.399 . S
C550 C549 1.399 . S
C550 C551 1.376 1_545 S
C551 H538 0.930 . S
C551 C550 1.376 1_565 S
C551 C552 1.388 . S
C552 H539 0.930 . S
C552 C551 1.388 . S
C552 C553 1.390 . S
C553 C552 1.390 . S
C553 C554 1.394 1_565 S
C553 C559 1.465 . S
C554 C549 1.399 . S
C554 C553 1.394 1_545 S
C554 C555 1.516 . S
C555 C554 1.516 . S
C555 C556 1.502 . S
C555 C557 1.561 . S
C555 C558 1.526 . S
C556 H540 0.959 . S
C556 H541 0.959 . S
C556 H542 0.961 . S
C556 C555 1.502 . S
C557 H543 0.960 . S
C557 H544 0.961 . S
C557 H545 0.959 . S
C557 C555 1.561 . S
C558 C555 1.526 . S
C558 C559 1.396 1_545 S
C558 C563 1.390 . S
C559 C553 1.465 . S
C559 C558 1.396 1_565 S
C559 C560 1.399 . S
C560 H546 0.929 . S
C560 C559 1.399 . S
C560 C561 1.385 . S
C561 H547 0.931 . S
C561 C560 1.385 . S
C561 C562 1.389 1_565 S
C562 C561 1.389 1_545 S
C562 C563 1.387 . S
C563 H548 0.930 . S
C563 C558 1.390 . S
C563 C562 1.387 . S
H564 C576 0.930 . S
H565 C578 0.930 . S
H566 C579 0.930 . S
H567 C583 0.959 . S
H568 C583 0.959 . S
H569 C583 0.961 . S
H570 C584 0.960 . S
H571 C584 0.961 . S
H572 C584 0.959 . S
H573 C587 0.929 . S
H574 C588 0.931 . S
H575 C590 0.930 . S
C576 H564 0.930 . S
C576 C577 1.399 . S
C576 C581 1.399 . S
C577 C576 1.399 . S
C577 C578 1.376 . S
C578 H565 0.930 . S
C578 C577 1.376 . S
C578 C579 1.388 . S
C579 H566 0.930 . S
C579 C578 1.388 . S
C579 C580 1.390 . S
C580 C579 1.390 . S
C580 C581 1.394 . S
C580 C586 1.465 . S
C581 C576 1.399 . S
C581 C580 1.394 . S
C581 C582 1.516 . S
C582 C581 1.516 . S
C582 C583 1.502 . S
C582 C584 1.561 . S
C582 C585 1.526 . S
C583 H567 0.959 . S
C583 H568 0.959 . S
C583 H569 0.961 . S
C583 C582 1.502 . S
C584 H570 0.960 . S
C584 H571 0.961 . S
C584 H572 0.959 . S
C584 C582 1.561 . S
C585 C582 1.526 . S
C585 C586 1.396 . S
C585 C590 1.390 . S
C586 C580 1.465 . S
C586 C585 1.396 . S
C586 C587 1.399 . S
C587 H573 0.929 . S
C587 C586 1.399 . S
C587 C588 1.385 . S
C588 H574 0.931 . S
C588 C587 1.385 . S
C588 C589 1.389 . S
C589 C588 1.389 . S
C589 C590 1.387 . S
C590 H575 0.930 . S
C590 C585 1.390 . S
C590 C589 1.387 . S
H591 C603 0.930 . S
H592 C605 0.930 . S
H593 C606 0.930 . S
H594 C610 0.959 . S
H595 C610 0.959 . S
H596 C610 0.961 . S
H597 C611 0.960 . S
H598 C611 0.961 . S
H599 C611 0.959 . S
H600 C614 0.929 . S
H601 C615 0.931 . S
H602 C617 0.930 . S
C603 H591 0.930 . S
C603 C604 1.399 1_565 S
C603 C608 1.399 . S
C604 C603 1.399 1_545 S
C604 C605 1.376 . S
C605 H592 0.930 . S
C605 C604 1.376 . S
C605 C606 1.388 . S
C606 H593 0.930 . S
C606 C605 1.388 . S
C606 C607 1.390 . S
C607 C606 1.390 . S
C607 C608 1.394 1_545 S
C607 C613 1.465 . S
C608 C603 1.399 . S
C608 C607 1.394 1_565 S
C608 C609 1.516 . S
C609 C608 1.516 . S
C609 C610 1.502 . S
C609 C611 1.561 . S
C609 C612 1.526 . S
C610 H594 0.959 . S
C610 H595 0.959 . S
C610 H596 0.961 . S
C610 C609 1.502 . S
C611 H597 0.960 . S
C611 H598 0.961 . S
C611 H599 0.959 . S
C611 C609 1.561 . S
C612 C609 1.526 . S
C612 C613 1.396 1_565 S
C612 C617 1.390 . S
C613 C607 1.465 . S
C613 C612 1.396 1_545 S
C613 C614 1.399 . S
C614 H600 0.929 . S
C614 C613 1.399 . S
C614 C615 1.385 . S
C615 H601 0.931 . S
C615 C614 1.385 . S
C615 C616 1.389 . S
C616 C615 1.389 . S
C616 C617 1.387 1_545 S
C617 H602 0.930 . S
C617 C612 1.390 . S
C617 C616 1.387 1_565 S
H618 C630 0.930 . S
H619 C632 0.930 . S
H620 C633 0.930 . S
H621 C637 0.959 . S
H622 C637 0.959 . S
H623 C637 0.961 . S
H624 C638 0.960 . S
H625 C638 0.961 . S
H626 C638 0.959 . S
H627 C641 0.923 1_556 S
H628 C642 0.931 . S
H629 C644 0.930 . S
C630 H618 0.930 . S
C630 C631 1.399 . S
C630 C635 1.399 . S
C631 C630 1.399 . S
C631 C632 1.376 . S
C632 H619 0.930 . S
C632 C631 1.376 . S
C632 C633 1.388 . S
C633 H620 0.930 . S
C633 C632 1.388 . S
C633 C634 1.390 . S
C634 C633 1.390 . S
C634 C635 1.394 . S
C634 C640 1.465 . S
C635 C630 1.399 . S
C635 C634 1.394 . S
C635 C636 1.516 . S
C636 C635 1.516 . S
C636 C637 1.502 . S
C636 C638 1.561 . S
C636 C639 1.526 . S
C637 H621 0.959 . S
C637 H622 0.959 . S
C637 H623 0.961 . S
C637 C636 1.502 . S
C638 H624 0.960 . S
C638 H625 0.961 . S
C638 H626 0.959 . S
C638 C636 1.561 . S
C639 C636 1.526 . S
C639 C640 1.396 . S
C639 C644 1.390 1_556 S
C640 C634 1.465 . S
C640 C639 1.396 . S
C640 C641 1.391 1_556 S
C641 H627 0.923 1_554 S
C641 C640 1.391 1_554 S
C641 C642 1.400 . S
C642 H628 0.931 . S
C642 C641 1.400 . S
C642 C643 1.389 . S
C643 C642 1.389 . S
C643 C644 1.387 . S
C644 H629 0.930 . S
C644 C639 1.390 1_554 S
C644 C643 1.387 . S
H645 C657 0.930 . S
H646 C659 0.930 . S
H647 C660 0.930 . S
H648 C664 0.959 . S
H649 C664 0.959 . S
H650 C664 0.961 . S
H651 C665 0.960 . S
H652 C665 0.961 . S
H653 C665 0.959 . S
H654 C668 0.929 . S
H655 C669 0.931 . S
H656 C671 0.930 . S
C657 H645 0.930 . S
C657 C658 1.399 . S
C657 C662 1.399 . S
C658 C657 1.399 . S
C658 C659 1.376 1_455 S
C659 H646 0.930 . S
C659 C658 1.376 1_655 S
C659 C660 1.388 . S
C660 H647 0.930 . S
C660 C659 1.388 . S
C660 C661 1.390 . S
C661 C660 1.390 . S
C661 C662 1.394 1_655 S
C661 C667 1.465 . S
C662 C657 1.399 . S
C662 C661 1.394 1_455 S
C662 C663 1.516 . S
C663 C662 1.516 . S
C663 C664 1.502 . S
C663 C665 1.561 . S
C663 C666 1.526 . S
C664 H648 0.959 . S
C664 H649 0.959 . S
C664 H650 0.961 . S
C664 C663 1.502 . S
C665 H651 0.960 . S
C665 H652 0.961 . S
C665 H653 0.959 . S
C665 C663 1.561 . S
C666 C663 1.526 . S
C666 C667 1.396 1_455 S
C666 C671 1.390 . S
C667 C661 1.465 . S
C667 C666 1.396 1_655 S
C667 C668 1.399 . S
C668 H654 0.929 . S
C668 C667 1.399 . S
C668 C669 1.385 . S
C669 H655 0.931 . S
C669 C668 1.385 . S
C669 C670 1.389 . S
C670 C669 1.389 . S
C670 C671 1.387 1_655 S
C671 H656 0.930 . S
C671 C666 1.390 . S
C671 C670 1.387 1_455 S
C199 C6 0.634 . S
C211 C180 0.669 . S
C226 C59 2.035 . S
C238 C158 1.770 . S
C253 C86 1.061 . S
C265 C172 1.088 . S
C280 C15 0.210 . S
C292 C183 0.117 . S
C319 C161 1.829 . S
C307 C50 1.866 . S
C346 C169 1.218 . S
C334 C95 1.410 . S
C361 C46 1.329 . S
C373 C136 1.137 . S
C388 C99 3.259 . S
C400 C147 2.878 . S
C415 C10 2.085 . S
C427 C125 1.801 . S
C454 C139 1.041 . S
C442 C55 1.057 . S
C481 C150 2.839 . S
C469 C90 2.886 . S
C496 C19 1.800 . S
C508 C128 1.731 . S
C535 C149 1.681 . S
C523 C18 1.612 . S
C550 C49 1.366 . S
C562 C127 1.390 . S
C577 C98 1.522 . S
C589 C138 1.509 . S
C616 C171 1.435 . S
C604 C58 1.461 . S
C643 C182 1.239 . S
C631 C89 1.243 . S
C658 C9 1.419 . S
C670 C160 1.422 . S
