# Generated by pormake.
# Topology iac, (4,6)-cn, num edge types: 1
# Building blocks:
#     Node 0, Type 0, BuildingBlock: QUQFOY_clean_sbu_3, # of connection points: 4
#     Node 1, Type 0, BuildingBlock: QUQFOY_clean_sbu_3, # of connection points: 4
#     Node 2, Type 0, BuildingBlock: QUQFOY_clean_sbu_3, # of connection points: 4
#     Node 3, Type 0, BuildingBlock: QUQFOY_clean_sbu_3, # of connection points: 4
#     Node 4, Type 0, BuildingBlock: QUQFOY_clean_sbu_3, # of connection points: 4
#     Node 5, Type 0, BuildingBlock: QUQFOY_clean_sbu_3, # of connection points: 4
#     Node 6, Type 0, BuildingBlock: QUQFOY_clean_sbu_3, # of connection points: 4
#     Node 7, Type 0, BuildingBlock: QUQFOY_clean_sbu_3, # of connection points: 4
#     Node 8, Type 0, BuildingBlock: QUQFOY_clean_sbu_3, # of connection points: 4
#     Node 9, Type 0, BuildingBlock: QUQFOY_clean_sbu_3, # of connection points: 4
#     Node 10, Type 0, BuildingBlock: QUQFOY_clean_sbu_3, # of connection points: 4
#     Node 11, Type 0, BuildingBlock: QUQFOY_clean_sbu_3, # of connection points: 4
#     Node 12, Type 0, BuildingBlock: QUQFOY_clean_sbu_3, # of connection points: 4
#     Node 13, Type 0, BuildingBlock: QUQFOY_clean_sbu_3, # of connection points: 4
#     Node 14, Type 0, BuildingBlock: QUQFOY_clean_sbu_3, # of connection points: 4
#     Node 15, Type 0, BuildingBlock: QUQFOY_clean_sbu_3, # of connection points: 4
#     Node 16, Type 0, BuildingBlock: QUQFOY_clean_sbu_3, # of connection points: 4
#     Node 17, Type 0, BuildingBlock: QUQFOY_clean_sbu_3, # of connection points: 4
#     Node 18, Type 0, BuildingBlock: QUQFOY_clean_sbu_3, # of connection points: 4
#     Node 19, Type 0, BuildingBlock: QUQFOY_clean_sbu_3, # of connection points: 4
#     Node 20, Type 0, BuildingBlock: QUQFOY_clean_sbu_3, # of connection points: 4
#     Node 21, Type 0, BuildingBlock: QUQFOY_clean_sbu_3, # of connection points: 4
#     Node 22, Type 0, BuildingBlock: QUQFOY_clean_sbu_3, # of connection points: 4
#     Node 23, Type 0, BuildingBlock: QUQFOY_clean_sbu_3, # of connection points: 4
#     Node 24, Type 1, BuildingBlock: FUNLAD_clean_sbu_0, # of connection points: 6
#     Node 25, Type 1, BuildingBlock: FUNLAD_clean_sbu_0, # of connection points: 6
#     Node 26, Type 1, BuildingBlock: FUNLAD_clean_sbu_0, # of connection points: 6
#     Node 27, Type 1, BuildingBlock: FUNLAD_clean_sbu_0, # of connection points: 6
#     Node 28, Type 1, BuildingBlock: FUNLAD_clean_sbu_0, # of connection points: 6
#     Node 29, Type 1, BuildingBlock: FUNLAD_clean_sbu_0, # of connection points: 6
#     Node 30, Type 1, BuildingBlock: FUNLAD_clean_sbu_0, # of connection points: 6
#     Node 31, Type 1, BuildingBlock: FUNLAD_clean_sbu_0, # of connection points: 6
#     Node 32, Type 1, BuildingBlock: FUNLAD_clean_sbu_0, # of connection points: 6
#     Node 33, Type 1, BuildingBlock: FUNLAD_clean_sbu_0, # of connection points: 6
#     Node 34, Type 1, BuildingBlock: FUNLAD_clean_sbu_0, # of connection points: 6
#     Node 35, Type 1, BuildingBlock: FUNLAD_clean_sbu_0, # of connection points: 6
#     Node 36, Type 1, BuildingBlock: FUNLAD_clean_sbu_0, # of connection points: 6
#     Node 37, Type 1, BuildingBlock: FUNLAD_clean_sbu_0, # of connection points: 6
#     Node 38, Type 1, BuildingBlock: FUNLAD_clean_sbu_0, # of connection points: 6
#     Node 39, Type 1, BuildingBlock: FUNLAD_clean_sbu_0, # of connection points: 6
#     Edge 40, Type (0, 1), BuildingBlock: ZUJKAS_clean_linker_0, # of connection points: 2
#     Edge 41, Type (0, 1), BuildingBlock: ZUJKAS_clean_linker_0, # of connection points: 2
#     Edge 42, Type (0, 1), BuildingBlock: ZUJKAS_clean_linker_0, # of connection points: 2
#     Edge 43, Type (0, 1), BuildingBlock: ZUJKAS_clean_linker_0, # of connection points: 2
#     Edge 44, Type (0, 1), BuildingBlock: ZUJKAS_clean_linker_0, # of connection points: 2
#     Edge 45, Type (0, 1), BuildingBlock: ZUJKAS_clean_linker_0, # of connection points: 2
#     Edge 46, Type (0, 1), BuildingBlock: ZUJKAS_clean_linker_0, # of connection points: 2
#     Edge 47, Type (0, 1), BuildingBlock: ZUJKAS_clean_linker_0, # of connection points: 2
#     Edge 48, Type (0, 1), BuildingBlock: ZUJKAS_clean_linker_0, # of connection points: 2
#     Edge 49, Type (0, 1), BuildingBlock: ZUJKAS_clean_linker_0, # of connection points: 2
#     Edge 50, Type (0, 1), BuildingBlock: ZUJKAS_clean_linker_0, # of connection points: 2
#     Edge 51, Type (0, 1), BuildingBlock: ZUJKAS_clean_linker_0, # of connection points: 2
#     Edge 52, Type (0, 1), BuildingBlock: ZUJKAS_clean_linker_0, # of connection points: 2
#     Edge 53, Type (0, 1), BuildingBlock: ZUJKAS_clean_linker_0, # of connection points: 2
#     Edge 54, Type (0, 1), BuildingBlock: ZUJKAS_clean_linker_0, # of connection points: 2
#     Edge 55, Type (0, 1), BuildingBlock: ZUJKAS_clean_linker_0, # of connection points: 2
#     Edge 56, Type (0, 1), BuildingBlock: ZUJKAS_clean_linker_0, # of connection points: 2
#     Edge 57, Type (0, 1), BuildingBlock: ZUJKAS_clean_linker_0, # of connection points: 2
#     Edge 58, Type (0, 1), BuildingBlock: ZUJKAS_clean_linker_0, # of connection points: 2
#     Edge 59, Type (0, 1), BuildingBlock: ZUJKAS_clean_linker_0, # of connection points: 2
#     Edge 60, Type (0, 1), BuildingBlock: ZUJKAS_clean_linker_0, # of connection points: 2
#     Edge 61, Type (0, 1), BuildingBlock: ZUJKAS_clean_linker_0, # of connection points: 2
#     Edge 62, Type (0, 1), BuildingBlock: ZUJKAS_clean_linker_0, # of connection points: 2
#     Edge 63, Type (0, 1), BuildingBlock: ZUJKAS_clean_linker_0, # of connection points: 2
#     Edge 64, Type (0, 1), BuildingBlock: ZUJKAS_clean_linker_0, # of connection points: 2
#     Edge 65, Type (0, 1), BuildingBlock: ZUJKAS_clean_linker_0, # of connection points: 2
#     Edge 66, Type (0, 1), BuildingBlock: ZUJKAS_clean_linker_0, # of connection points: 2
#     Edge 67, Type (0, 1), BuildingBlock: ZUJKAS_clean_linker_0, # of connection points: 2
#     Edge 68, Type (0, 1), BuildingBlock: ZUJKAS_clean_linker_0, # of connection points: 2
#     Edge 69, Type (0, 1), BuildingBlock: ZUJKAS_clean_linker_0, # of connection points: 2
#     Edge 70, Type (0, 1), BuildingBlock: ZUJKAS_clean_linker_0, # of connection points: 2
#     Edge 71, Type (0, 1), BuildingBlock: ZUJKAS_clean_linker_0, # of connection points: 2
#     Edge 72, Type (0, 1), BuildingBlock: ZUJKAS_clean_linker_0, # of connection points: 2
#     Edge 73, Type (0, 1), BuildingBlock: ZUJKAS_clean_linker_0, # of connection points: 2
#     Edge 74, Type (0, 1), BuildingBlock: ZUJKAS_clean_linker_0, # of connection points: 2
#     Edge 75, Type (0, 1), BuildingBlock: ZUJKAS_clean_linker_0, # of connection points: 2
#     Edge 76, Type (0, 1), BuildingBlock: ZUJKAS_clean_linker_0, # of connection points: 2
#     Edge 77, Type (0, 1), BuildingBlock: ZUJKAS_clean_linker_0, # of connection points: 2
#     Edge 78, Type (0, 1), BuildingBlock: ZUJKAS_clean_linker_0, # of connection points: 2
#     Edge 79, Type (0, 1), BuildingBlock: ZUJKAS_clean_linker_0, # of connection points: 2
#     Edge 80, Type (0, 1), BuildingBlock: ZUJKAS_clean_linker_0, # of connection points: 2
#     Edge 81, Type (0, 1), BuildingBlock: ZUJKAS_clean_linker_0, # of connection points: 2
#     Edge 82, Type (0, 1), BuildingBlock: ZUJKAS_clean_linker_0, # of connection points: 2
#     Edge 83, Type (0, 1), BuildingBlock: ZUJKAS_clean_linker_0, # of connection points: 2
#     Edge 84, Type (0, 1), BuildingBlock: ZUJKAS_clean_linker_0, # of connection points: 2
#     Edge 85, Type (0, 1), BuildingBlock: ZUJKAS_clean_linker_0, # of connection points: 2
#     Edge 86, Type (0, 1), BuildingBlock: ZUJKAS_clean_linker_0, # of connection points: 2
#     Edge 87, Type (0, 1), BuildingBlock: ZUJKAS_clean_linker_0, # of connection points: 2
#     Edge 88, Type (0, 1), BuildingBlock: ZUJKAS_clean_linker_0, # of connection points: 2
#     Edge 89, Type (0, 1), BuildingBlock: ZUJKAS_clean_linker_0, # of connection points: 2
#     Edge 90, Type (0, 1), BuildingBlock: ZUJKAS_clean_linker_0, # of connection points: 2
#     Edge 91, Type (0, 1), BuildingBlock: ZUJKAS_clean_linker_0, # of connection points: 2
#     Edge 92, Type (0, 1), BuildingBlock: ZUJKAS_clean_linker_0, # of connection points: 2
#     Edge 93, Type (0, 1), BuildingBlock: ZUJKAS_clean_linker_0, # of connection points: 2
#     Edge 94, Type (0, 1), BuildingBlock: ZUJKAS_clean_linker_0, # of connection points: 2
#     Edge 95, Type (0, 1), BuildingBlock: ZUJKAS_clean_linker_0, # of connection points: 2
#     Edge 96, Type (0, 1), BuildingBlock: ZUJKAS_clean_linker_0, # of connection points: 2
#     Edge 97, Type (0, 1), BuildingBlock: ZUJKAS_clean_linker_0, # of connection points: 2
#     Edge 98, Type (0, 1), BuildingBlock: ZUJKAS_clean_linker_0, # of connection points: 2
#     Edge 99, Type (0, 1), BuildingBlock: ZUJKAS_clean_linker_0, # of connection points: 2
#     Edge 100, Type (0, 1), BuildingBlock: ZUJKAS_clean_linker_0, # of connection points: 2
#     Edge 101, Type (0, 1), BuildingBlock: ZUJKAS_clean_linker_0, # of connection points: 2
#     Edge 102, Type (0, 1), BuildingBlock: ZUJKAS_clean_linker_0, # of connection points: 2
#     Edge 103, Type (0, 1), BuildingBlock: ZUJKAS_clean_linker_0, # of connection points: 2
#     Edge 104, Type (0, 1), BuildingBlock: ZUJKAS_clean_linker_0, # of connection points: 2
#     Edge 105, Type (0, 1), BuildingBlock: ZUJKAS_clean_linker_0, # of connection points: 2
#     Edge 106, Type (0, 1), BuildingBlock: ZUJKAS_clean_linker_0, # of connection points: 2
#     Edge 107, Type (0, 1), BuildingBlock: ZUJKAS_clean_linker_0, # of connection points: 2
#     Edge 108, Type (0, 1), BuildingBlock: ZUJKAS_clean_linker_0, # of connection points: 2
#     Edge 109, Type (0, 1), BuildingBlock: ZUJKAS_clean_linker_0, # of connection points: 2
#     Edge 110, Type (0, 1), BuildingBlock: ZUJKAS_clean_linker_0, # of connection points: 2
#     Edge 111, Type (0, 1), BuildingBlock: ZUJKAS_clean_linker_0, # of connection points: 2
#     Edge 112, Type (0, 1), BuildingBlock: ZUJKAS_clean_linker_0, # of connection points: 2
#     Edge 113, Type (0, 1), BuildingBlock: ZUJKAS_clean_linker_0, # of connection points: 2
#     Edge 114, Type (0, 1), BuildingBlock: ZUJKAS_clean_linker_0, # of connection points: 2
#     Edge 115, Type (0, 1), BuildingBlock: ZUJKAS_clean_linker_0, # of connection points: 2
#     Edge 116, Type (0, 1), BuildingBlock: ZUJKAS_clean_linker_0, # of connection points: 2
#     Edge 117, Type (0, 1), BuildingBlock: ZUJKAS_clean_linker_0, # of connection points: 2
#     Edge 118, Type (0, 1), BuildingBlock: ZUJKAS_clean_linker_0, # of connection points: 2
#     Edge 119, Type (0, 1), BuildingBlock: ZUJKAS_clean_linker_0, # of connection points: 2
#     Edge 120, Type (0, 1), BuildingBlock: ZUJKAS_clean_linker_0, # of connection points: 2
#     Edge 121, Type (0, 1), BuildingBlock: ZUJKAS_clean_linker_0, # of connection points: 2
#     Edge 122, Type (0, 1), BuildingBlock: ZUJKAS_clean_linker_0, # of connection points: 2
#     Edge 123, Type (0, 1), BuildingBlock: ZUJKAS_clean_linker_0, # of connection points: 2
#     Edge 124, Type (0, 1), BuildingBlock: ZUJKAS_clean_linker_0, # of connection points: 2
#     Edge 125, Type (0, 1), BuildingBlock: ZUJKAS_clean_linker_0, # of connection points: 2
#     Edge 126, Type (0, 1), BuildingBlock: ZUJKAS_clean_linker_0, # of connection points: 2
#     Edge 127, Type (0, 1), BuildingBlock: ZUJKAS_clean_linker_0, # of connection points: 2
#     Edge 128, Type (0, 1), BuildingBlock: ZUJKAS_clean_linker_0, # of connection points: 2
#     Edge 129, Type (0, 1), BuildingBlock: ZUJKAS_clean_linker_0, # of connection points: 2
#     Edge 130, Type (0, 1), BuildingBlock: ZUJKAS_clean_linker_0, # of connection points: 2
#     Edge 131, Type (0, 1), BuildingBlock: ZUJKAS_clean_linker_0, # of connection points: 2
#     Edge 132, Type (0, 1), BuildingBlock: ZUJKAS_clean_linker_0, # of connection points: 2
#     Edge 133, Type (0, 1), BuildingBlock: ZUJKAS_clean_linker_0, # of connection points: 2
#     Edge 134, Type (0, 1), BuildingBlock: ZUJKAS_clean_linker_0, # of connection points: 2
#     Edge 135, Type (0, 1), BuildingBlock: ZUJKAS_clean_linker_0, # of connection points: 2
# Relax obj value: 0.300
# Max RMSD: 0.260
# Mean RMSD: 0.125
data_MOF--net-iac--node1-QUQFOY_clean_sbu_3--node2-FUNLAD_clean_sbu_0--edge1-ZUJKAS_clean_linker_0
_symmetry_space_group_name_H-M    P1
_symmetry_Int_Tables_number       1
_symmetry_cell_setting            triclinic
loop_
_symmetry_equiv_pos_as_xyz
'x, y, z'
_cell_length_a     71.057668
_cell_length_b     70.129958
_cell_length_c     75.696651
_cell_angle_alpha  90.964067
_cell_angle_beta   91.797857
_cell_angle_gamma 90.770701
loop_
_atom_site_label
_atom_site_type_symbol
_atom_site_fract_x
_atom_site_fract_y
_atom_site_fract_z
_atom_type_partial_charge
C0 C 0.02313 0.21126 0.20074 0.0
O1 O 0.03884 0.20878 0.20876 0.0
Cd2 Cd 0.06816 0.22031 0.19803 0.0
O3 O 0.02221 0.22071 0.1865 0.0
Cd4 Cd 0.04426 0.23764 0.16744 0.0
C5 C 0.06838 0.19734 0.15862 0.0
O6 O 0.06311 0.25357 0.19064 0.0
O7 O 0.07388 0.25497 0.16433 0.0
O8 O 0.02163 0.26206 0.1586 0.0
C9 C 0.07477 0.26082 0.18025 0.0
O10 O 0.07576 0.19767 0.17415 0.0
C11 C 0.02341 0.25882 0.14216 0.0
O12 O 0.05651 0.20973 0.15389 0.0
O13 O 0.03399 0.24521 0.13785 0.0
C14 C -0.00513 0.75421 0.35662 0.0
O15 O 0.00677 0.76321 0.34764 0.0
Cd16 Cd 0.03884 0.76831 0.35652 0.0
O17 O -0.00018 0.74648 0.37115 0.0
Cd18 Cd 0.029 0.74205 0.38959 0.0
C19 C 0.03159 0.7898 0.39698 0.0
O20 O 0.0489 0.73736 0.36476 0.0
O21 O 0.06388 0.74107 0.38971 0.0
O22 O 0.01754 0.70976 0.39421 0.0
C23 C 0.06447 0.73742 0.37327 0.0
O24 O 0.0372 0.79104 0.38122 0.0
C25 C 0.02105 0.70979 0.41076 0.0
O26 O 0.0269 0.77372 0.40322 0.0
O27 O 0.02787 0.72512 0.41766 0.0
C28 C 0.52532 0.70357 0.68747 0.0
O29 O 0.54233 0.69903 0.69055 0.0
Cd30 Cd 0.56776 0.71256 0.6743 0.0
O31 O 0.52122 0.71562 0.67561 0.0
Cd32 Cd 0.53777 0.73504 0.65416 0.0
C33 C 0.55616 0.6978 0.63254 0.0
O34 O 0.56375 0.74666 0.67323 0.0
O35 O 0.5666 0.75089 0.64523 0.0
O36 O 0.51704 0.76225 0.65758 0.0
C37 C 0.57235 0.75474 0.66091 0.0
O38 O 0.56835 0.69688 0.64516 0.0
C39 C 0.5129 0.76329 0.64119 0.0
O40 O 0.54263 0.7094 0.63335 0.0
O41 O 0.5192 0.75029 0.63122 0.0
C42 C 0.49322 0.25724 0.85748 0.0
O43 O 0.50522 0.26644 0.84877 0.0
Cd44 Cd 0.53725 0.27084 0.85813 0.0
O45 O 0.49811 0.24901 0.87178 0.0
Cd46 Cd 0.52728 0.24382 0.89007 0.0
C47 C 0.52992 0.29129 0.89893 0.0
O48 O 0.54719 0.2394 0.86514 0.0
O49 O 0.56217 0.24238 0.89018 0.0
O50 O 0.51542 0.2115 0.89381 0.0
C51 C 0.56271 0.23887 0.87372 0.0
O52 O 0.5356 0.29304 0.88324 0.0
C53 C 0.51874 0.21101 0.91037 0.0
O54 O 0.52525 0.275 0.90468 0.0
O55 O 0.5257 0.22606 0.91769 0.0
C56 C 0.10464 0.01703 0.26432 0.0
O57 O 0.09388 0.02251 0.25174 0.0
Cd58 Cd 0.10196 0.02176 0.22137 0.0
O59 O 0.12049 0.00957 0.26118 0.0
Cd60 Cd 0.13927 0.00081 0.23517 0.0
C61 C 0.14306 0.04783 0.22638 0.0
O62 O 0.11319 0.99023 0.21589 0.0
O63 O 0.13969 -0.00578 0.2033 0.0
O64 O 0.14832 0.97177 0.2502 0.0
C65 C 0.12268 0.98858 0.20207 0.0
O66 O 0.12608 0.04698 0.22049 0.0
C67 C 0.1657 0.97329 0.24693 0.0
O68 O 0.15091 0.03325 0.23298 0.0
O69 O 0.17086 0.988 0.2387 0.0
C70 C 0.29222 0.91746 0.53063 0.0
O71 O 0.27949 0.92728 0.5231 0.0
Cd72 Cd 0.2473 0.91795 0.51926 0.0
O73 O 0.28818 0.90166 0.53784 0.0
Cd74 Cd 0.25976 0.88155 0.54301 0.0
C75 C 0.25558 0.87499 0.49849 0.0
O76 O 0.23918 0.90793 0.54798 0.0
O77 O 0.22502 0.88077 0.54528 0.0
O78 O 0.27311 0.87347 0.57203 0.0
C79 C 0.22389 0.89855 0.54823 0.0
O80 O 0.24932 0.89188 0.49744 0.0
C81 C 0.27001 0.85564 0.57016 0.0
O82 O 0.26077 0.86821 0.51332 0.0
O83 O 0.26236 0.84995 0.55559 0.0
C84 C 0.4223 -0.00407 0.75693 0.0
O85 O 0.43326 0.99147 0.74464 0.0
Cd86 Cd 0.4245 -0.00655 0.71409 0.0
O87 O 0.40625 0.00308 0.75338 0.0
Cd88 Cd 0.38715 0.013 0.72719 0.0
C89 C 0.38393 0.96638 0.71576 0.0
O90 O 0.4129 0.02516 0.7106 0.0
O91 O 0.38696 0.02045 0.69553 0.0
O92 O 0.37853 0.04171 0.74302 0.0
C93 C 0.40365 0.02713 0.69622 0.0
O94 O 0.40086 0.96769 0.71081 0.0
C95 C 0.36091 0.0396 0.74024 0.0
O96 O 0.37585 0.98067 0.72256 0.0
O97 O 0.35538 0.02477 0.7316 0.0
C98 C 0.29955 0.07357 0.03212 0.0
O99 O 0.28405 0.06987 0.03929 0.0
Cd100 Cd 0.25805 0.0909 0.03605 0.0
O101 O 0.30165 0.08877 0.02336 0.0
Cd102 Cd 0.28277 0.1165 0.01527 0.0
C103 C 0.27623 0.12983 0.05731 0.0
O104 O 0.25636 0.09747 0.00467 0.0
O105 O 0.2506 0.12752 0.00759 0.0
O106 O 0.29923 0.11985 0.98762 0.0
C107 C 0.24602 0.1114 0.00082 0.0
O108 O 0.26329 0.11715 0.05766 0.0
C109 C 0.30171 0.13775 0.98948 0.0
O110 O 0.28614 0.13149 0.04379 0.0
O111 O 0.29659 0.14527 0.00386 0.0
C112 C 0.78964 0.41359 0.03535 0.0
O113 O 0.77747 0.4246 0.02857 0.0
Cd114 Cd 0.74529 0.41634 0.02282 0.0
O115 O 0.78482 0.39726 0.04102 0.0
Cd116 Cd 0.75516 0.37835 0.04378 0.0
C117 C 0.7537 0.37521 -0.00079 0.0
O118 O 0.73436 0.40447 0.05011 0.0
O119 O 0.72059 0.37816 0.04184 0.0
O120 O 0.76524 0.36728 0.07293 0.0
C121 C 0.71914 0.3951 0.04767 0.0
O122 O 0.74763 0.39223 -0.00095 0.0
C123 C 0.7615 0.34981 0.06946 0.0
O124 O 0.75808 0.36726 0.01371 0.0
O125 O 0.75525 0.34569 0.05396 0.0
C126 C 0.92085 0.48623 0.26497 0.0
O127 O 0.93137 0.47925 0.25332 0.0
Cd128 Cd 0.92449 0.48011 0.2222 0.0
O129 O 0.90592 0.49504 0.26051 0.0
Cd130 Cd 0.88859 0.50407 0.23322 0.0
C131 C 0.88193 0.45714 0.22407 0.0
O132 O 0.91565 0.51216 0.21617 0.0
O133 O 0.88957 0.50829 0.20117 0.0
O134 O 0.88131 0.53412 0.24771 0.0
C135 C 0.90682 0.51318 0.20144 0.0
O136 O 0.89852 0.45691 0.21818 0.0
C137 C 0.86391 0.53365 0.24329 0.0
O138 O 0.87543 0.4721 0.23125 0.0
O139 O 0.8579 0.51916 0.23441 0.0
C140 C 0.80694 0.57924 0.54744 0.0
O141 O 0.79122 0.57344 0.55294 0.0
Cd142 Cd 0.76211 0.58529 0.54151 0.0
O143 O 0.80767 0.59168 0.53538 0.0
Cd144 Cd 0.78524 0.61042 0.51759 0.0
C145 C 0.76735 0.63172 0.55352 0.0
O146 O 0.76501 0.5838 0.50962 0.0
O147 O 0.75322 0.61137 0.50403 0.0
O148 O 0.8033 0.61152 0.49052 0.0
C149 C 0.75274 0.59346 0.50147 0.0
O150 O 0.75856 0.61627 0.55661 0.0
C151 C 0.80438 0.62962 0.49057 0.0
O152 O 0.77821 0.63269 0.5406 0.0
O153 O 0.7976 0.63837 0.50364 0.0
C154 C 0.60589 0.52094 0.76787 0.0
O155 O 0.59646 0.52788 0.75504 0.0
Cd156 Cd 0.60356 0.52433 0.72453 0.0
O157 O 0.62038 0.51089 0.76516 0.0
Cd158 Cd 0.63829 0.50001 0.73927 0.0
C159 C 0.64676 0.54605 0.72854 0.0
O160 O 0.61129 0.49166 0.72024 0.0
O161 O 0.6379 0.49269 0.70745 0.0
O162 O 0.64497 0.47017 0.75422 0.0
C163 C 0.62043 0.48879 0.70638 0.0
O164 O 0.63018 0.54622 0.72165 0.0
C165 C 0.66232 0.47016 0.75066 0.0
O166 O 0.65275 0.53152 0.73674 0.0
O167 O 0.6686 0.4845 0.74255 0.0
C168 C 0.96027 0.78115 0.84911 0.0
O169 O 0.96732 0.79252 0.83814 0.0
Cd170 Cd -0.00083 0.80417 0.84301 0.0
O171 O 0.97019 0.77517 0.86205 0.0
Cd172 Cd 0.0014 0.77582 0.87603 0.0
C173 C -0.0041 0.82245 0.88534 0.0
O174 O 0.01816 0.77664 0.84869 0.0
O175 O 0.03511 0.77998 0.87281 0.0
O176 O -0.00677 0.74271 0.87911 0.0
C177 C 0.03435 0.77876 0.85606 0.0
O178 O -0.00221 0.82545 0.86893 0.0
C179 C -0.00262 0.74201 0.89551 0.0
O180 O -0.0041 0.80559 0.89127 0.0
O181 O 0.00444 0.75701 0.90287 0.0
C182 C 0.98246 0.24258 0.67561 0.0
O183 O -0.00729 0.23062 0.68369 0.0
Cd184 Cd 0.0247 0.22397 0.67669 0.0
O185 O 0.98852 0.2514 0.6623 0.0
Cd186 Cd 0.01728 0.25234 0.64466 0.0
C187 C 0.01823 0.20472 0.63521 0.0
O188 O 0.03867 0.25428 0.67039 0.0
O189 O 0.05179 0.25244 0.64514 0.0
O190 O 0.00985 0.28555 0.63894 0.0
C191 C 0.05367 0.2543 0.66178 0.0
O192 O 0.02373 0.20235 0.65117 0.0
C193 C 0.01132 0.28418 0.62229 0.0
O194 O 0.01363 0.22117 0.62982 0.0
O195 O 0.01539 0.2679 0.61602 0.0
C196 C 0.45929 0.27943 0.34931 0.0
O197 O 0.46111 0.29446 0.34039 0.0
Cd198 Cd 0.48763 0.31547 0.34641 0.0
O199 O 0.47204 0.27478 0.36046 0.0
Cd200 Cd 0.5031 0.28497 0.37178 0.0
C201 C 0.48303 0.32254 0.39092 0.0
O202 O 0.51625 0.29745 0.34491 0.0
O203 O 0.53135 0.30455 0.36948 0.0
O204 O 0.51066 0.25152 0.36902 0.0
C205 C 0.53075 0.30475 0.35271 0.0
O206 O 0.48226 0.32972 0.37558 0.0
C207 C 0.51556 0.24964 0.38516 0.0
O208 O 0.48918 0.30581 0.39318 0.0
O209 O 0.51569 0.26459 0.3949 0.0
C210 C 0.48602 0.74364 0.17451 0.0
O211 O 0.4973 0.73317 0.1832 0.0
Cd212 Cd 0.52936 0.72767 0.17604 0.0
O213 O 0.49131 0.75203 0.16066 0.0
Cd214 Cd 0.52036 0.75452 0.14335 0.0
C215 C 0.52305 0.70688 0.13508 0.0
O216 O 0.54159 0.75849 0.169 0.0
O217 O 0.555 0.75503 0.14407 0.0
O218 O 0.51168 0.78716 0.13616 0.0
C219 C 0.55668 0.75828 0.16056 0.0
O220 O 0.52891 0.70512 0.15103 0.0
C221 C 0.5137 0.78509 0.11963 0.0
O222 O 0.51777 0.72299 0.12939 0.0
O223 O 0.5186 0.76875 0.11416 0.0
C224 C 0.93174 0.00738 0.81183 0.0
O225 O 0.94077 -0.00657 0.80558 0.0
Cd226 Cd 0.93175 0.97676 0.77856 0.0
O227 O 0.9169 0.01328 0.80397 0.0
Cd228 Cd 0.89701 0.00581 0.77758 0.0
C229 C 0.88837 0.96042 0.79027 0.0
O230 O 0.92242 0.00016 0.7574 0.0
O231 O 0.89416 -0.00559 0.74707 0.0
O232 O 0.89217 0.03986 0.77527 0.0
C233 C 0.91168 -0.00494 0.74442 0.0
O234 O 0.90516 0.9566 0.78612 0.0
C235 C 0.87433 0.03885 0.77541 0.0
O236 O 0.88227 0.97737 0.7894 0.0
O237 O 0.86694 0.02233 0.77642 0.0
C238 C 0.79256 0.09165 0.4904 0.0
O239 O 0.78039 0.08124 0.49773 0.0
Cd240 Cd 0.74815 0.08865 0.50241 0.0
O241 O 0.78826 0.10804 0.48455 0.0
Cd242 Cd 0.76011 0.12865 0.48207 0.0
C243 C 0.7539 0.13068 0.52653 0.0
O244 O 0.73869 0.10264 0.47541 0.0
O245 O 0.72536 0.12967 0.47868 0.0
O246 O 0.76997 0.13902 0.4533 0.0
C247 C 0.72356 0.11188 0.47576 0.0
O248 O 0.74826 0.11335 0.52558 0.0
C249 C 0.76932 0.15675 0.4569 0.0
O250 O 0.76008 0.13906 0.51302 0.0
O251 O 0.76469 0.16146 0.47243 0.0
C252 C 0.60541 0.99258 0.31111 0.0
O253 O 0.59557 0.00269 0.30068 0.0
Cd254 Cd 0.60562 0.01467 0.27312 0.0
O255 O 0.62209 0.98791 0.30729 0.0
Cd256 Cd 0.64386 0.9925 0.2827 0.0
C257 C 0.64509 0.04047 0.28685 0.0
O258 O 0.62052 0.9887 0.25875 0.0
O259 O 0.64783 -0.00132 0.25123 0.0
O260 O 0.65375 0.95984 0.28646 0.0
C261 C 0.63125 -0.00648 0.24653 0.0
O262 O 0.62859 0.04011 0.27976 0.0
C263 C 0.67128 0.96357 0.28711 0.0
O264 O 0.65344 0.02506 0.29072 0.0
O265 O 0.67618 0.981 0.28618 0.0
C266 C 0.75625 0.91833 0.03283 0.0
O267 O 0.74109 0.92665 0.02838 0.0
Cd268 Cd 0.71094 0.91072 0.0259 0.0
O269 O 0.75638 0.90046 0.03558 0.0
Cd270 Cd 0.73617 0.87174 0.0358 0.0
C271 C 0.71924 0.87688 -0.00645 0.0
O272 O 0.71209 0.88875 0.04954 0.0
O273 O 0.70424 0.85988 0.04282 0.0
O274 O 0.75713 0.86097 0.05909 0.0
C275 C 0.69926 0.87611 0.0485 0.0
O276 O 0.71017 0.89149 -0.0015 0.0
C277 C 0.76031 0.84485 0.05199 0.0
O278 O 0.73053 0.86845 0.00414 0.0
O279 O 0.75174 0.8409 0.03737 0.0
C280 C 0.28861 0.5912 -0.00372 0.0
O281 O 0.27677 0.5816 0.00486 0.0
Cd282 Cd 0.24422 0.58871 0.00809 0.0
O283 O 0.28381 0.60652 0.98859 0.0
Cd284 Cd 0.25534 0.62639 0.98443 0.0
C285 C 0.24795 0.63286 0.02853 0.0
O286 O 0.2347 0.59941 0.97963 0.0
O287 O 0.22061 0.6263 0.9804 0.0
O288 O 0.26348 0.63484 0.95453 0.0
C289 C 0.21935 0.6083 0.97879 0.0
O290 O 0.2432 0.61531 0.02921 0.0
C291 C 0.26518 0.65262 0.95776 0.0
O292 O 0.25377 0.63998 0.01428 0.0
O293 O 0.2623 0.65825 0.97346 0.0
C294 C 0.11235 0.50684 0.80948 0.0
O295 O 0.10481 0.51884 0.79917 0.0
Cd296 Cd 0.11773 0.53011 0.7725 0.0
O297 O 0.12833 0.49978 0.80619 0.0
Cd298 Cd 0.15207 0.50249 0.78293 0.0
C299 C 0.15944 0.54991 0.78852 0.0
O300 O 0.12977 0.50266 0.75799 0.0
O301 O 0.15862 0.50904 0.75208 0.0
O302 O 0.15867 0.46866 0.78513 0.0
C303 C 0.14182 0.50624 0.74648 0.0
O304 O 0.14341 0.5521 0.78088 0.0
C305 C 0.17638 0.47085 0.78717 0.0
O306 O 0.16539 0.53334 0.79214 0.0
O307 O 0.18273 0.48786 0.78787 0.0
C308 C 0.25532 0.43231 0.52131 0.0
O309 O 0.23889 0.43876 0.51848 0.0
Cd310 Cd 0.21033 0.42106 0.52282 0.0
O311 O 0.2577 0.4154 0.52684 0.0
Cd312 Cd 0.24039 0.38656 0.53584 0.0
C313 C 0.21707 0.38145 0.496 0.0
O314 O 0.21716 0.40498 0.54958 0.0
O315 O 0.21125 0.37504 0.54976 0.0
O316 O 0.2671 0.38184 0.55613 0.0
C317 C 0.20549 0.39179 0.55262 0.0
O318 O 0.2077 0.39639 0.49941 0.0
C319 C 0.26794 0.36399 0.55316 0.0
O320 O 0.23033 0.37602 0.50639 0.0
O321 O 0.2559 0.35669 0.54219 0.0
C322 C 0.42039 0.51028 0.30129 0.0
O323 O 0.43061 0.49966 0.29195 0.0
Cd324 Cd 0.41824 0.48247 0.26654 0.0
O325 O 0.40327 0.5131 0.29673 0.0
Cd326 Cd 0.38001 0.50556 0.27276 0.0
C327 C 0.38044 0.45998 0.28557 0.0
O328 O 0.40147 0.50473 0.24884 0.0
O329 O 0.37394 0.49261 0.2427 0.0
O330 O 0.37372 0.5391 0.27346 0.0
C331 C 0.39015 0.49714 0.23744 0.0
O332 O 0.39641 0.45906 0.27841 0.0
C333 C 0.35599 0.53755 0.27455 0.0
O334 O 0.37159 0.47563 0.28636 0.0
O335 O 0.34908 0.52073 0.27485 0.0
C336 C 0.98773 0.04296 0.98646 0.0
N337 N 0.96941 0.01783 0.03237 0.0
C338 C 0.95737 0.03258 0.03426 0.0
C339 C 0.93959 0.02947 0.04106 0.0
C340 C 0.93416 0.01097 0.04583 0.0
C341 C 0.9473 -0.00376 0.04457 0.0
C342 C 0.96493 2e-05 0.03781 0.0
Zn343 Zn -0.00631 0.02179 0.01943 0.0
C344 C 0.0005 0.99038 -0.00621 0.0
N345 N 0.04433 0.03 0.99225 0.0
C346 C 0.04743 0.04754 0.98542 0.0
C347 C 0.05669 0.01558 0.99003 0.0
C348 C 0.07321 0.01871 0.98094 0.0
C349 C 0.07685 0.03678 0.97399 0.0
C350 C 0.06363 0.05122 0.97613 0.0
Zn351 Zn 0.02042 0.02581 0.00566 0.0
O352 O 0.97871 0.03639 -0.00073 0.0
C353 C 0.01452 0.05682 0.03162 0.0
O354 O 0.0054 0.04082 0.98611 0.0
H355 H 0.05384 0.00172 -0.00452 0.0
H356 H 0.96129 0.04665 0.02988 0.0
H357 H 0.03744 0.05881 0.98739 0.0
O358 O -0.0007 0.04758 0.03395 0.0
O359 O 0.02576 0.05095 0.02011 0.0
H360 H 0.97475 0.98852 0.03619 0.0
O361 O 0.03524 0.01066 0.02549 0.0
O362 O 0.0087 0.00693 0.03917 0.0
O363 O 0.01513 0.00043 0.99138 0.0
O364 O 0.98871 -0.00409 0.00499 0.0
C365 C 0.02631 0.00426 0.03846 0.0
H366 H 0.92998 0.04127 0.04201 0.0
H367 H 0.94367 0.98169 0.0478 0.0
H368 H 0.08314 0.00723 0.97955 0.0
H369 H 0.06612 0.06546 0.9713 0.0
C370 C 0.30365 0.76305 0.24784 0.0
N371 N 0.2504 0.74953 0.22543 0.0
C372 C 0.25681 0.75892 0.21119 0.0
C373 C 0.25173 0.75262 0.1941 0.0
C374 C 0.23983 0.73656 0.19164 0.0
C375 C 0.23249 0.72792 0.20661 0.0
C376 C 0.23807 0.73459 0.22346 0.0
Zn377 Zn 0.26173 0.75613 0.24986 0.0
C378 C 0.27557 0.72104 0.26769 0.0
N379 N 0.28726 0.76877 0.30032 0.0
C380 C 0.2977 0.78501 0.30298 0.0
C381 C 0.28158 0.75817 0.31412 0.0
C382 C 0.28512 0.76459 0.33144 0.0
C383 C 0.29456 0.7821 0.33457 0.0
C384 C 0.30156 0.79197 0.32011 0.0
Zn385 Zn 0.27623 0.7623 0.27576 0.0
O386 O 0.28874 0.75881 0.23883 0.0
C387 C 0.2619 0.79732 0.25804 0.0
O388 O 0.30271 0.76583 0.26442 0.0
H389 H 0.2732 0.74535 0.31169 0.0
H390 H 0.2666 0.77078 0.21306 0.0
H391 H 0.30208 0.79319 0.2918 0.0
O392 O 0.25688 0.78537 0.24594 0.0
O393 O 0.27025 0.79149 0.27197 0.0
H394 H 0.23316 0.72732 0.23497 0.0
O395 O 0.2497 0.75864 0.28687 0.0
O396 O 0.235 0.75337 0.26134 0.0
O397 O 0.2818 0.73306 0.27926 0.0
O398 O 0.2666 0.7269 0.2541 0.0
C399 C 0.23455 0.75505 0.27805 0.0
H400 H 0.25792 0.75963 0.183 0.0
H401 H 0.223 0.71572 0.20535 0.0
H402 H 0.27931 0.75661 0.34216 0.0
H403 H 0.30913 0.8054 0.32198 0.0
C404 C 0.50493 0.01621 0.54192 0.0
N405 N 0.52931 0.96452 0.52843 0.0
C406 C 0.53791 0.96561 0.54472 0.0
C407 C 0.53897 0.94946 0.55522 0.0
C408 C 0.53107 0.93212 0.54883 0.0
C409 C 0.52363 0.93113 0.53142 0.0
C410 C 0.52289 0.94759 0.52141 0.0
Zn411 Zn 0.52139 0.98873 0.51606 0.0
C412 C 0.47978 0.98539 0.50563 0.0
N413 N 0.50113 0.03864 0.49141 0.0
C414 C 0.50646 0.05532 0.49965 0.0
C415 C 0.49343 0.03833 0.47471 0.0
C416 C 0.49208 0.0552 0.4652 0.0
C417 C 0.49873 0.0724 0.47304 0.0
C418 C 0.50526 0.07243 0.49072 0.0
Zn419 Zn 0.50898 0.01418 0.50348 0.0
O420 O 0.51345 0.00046 0.5407 0.0
C421 C 0.55044 0.01778 0.51388 0.0
O422 O 0.50119 0.02548 0.52804 0.0
H423 H 0.48933 0.0249 0.4684 0.0
H424 H 0.54289 0.97925 0.55003 0.0
H425 H 0.51271 0.05527 0.51285 0.0
O426 O 0.54874 0.00084 0.51938 0.0
O427 O 0.53619 0.02602 0.50719 0.0
H428 H 0.51596 0.94709 0.50848 0.0
O429 O 0.5169 0.0025 0.47897 0.0
O430 O 0.52919 0.97732 0.49139 0.0
O431 O 0.48188 0.00219 0.49993 0.0
O432 O 0.49384 0.97696 0.51253 0.0
C433 C 0.52542 0.98675 0.47759 0.0
H434 H 0.54511 0.95075 0.56847 0.0
H435 H 0.51721 0.91813 0.52601 0.0
H436 H 0.48698 0.05459 0.45157 0.0
H437 H 0.5102 0.08545 0.49734 0.0
C438 C 0.27454 0.21627 0.76171 0.0
N439 N 0.25352 0.2484 0.80307 0.0
C440 C 0.24238 0.23297 0.80615 0.0
C441 C 0.24035 0.22669 0.82339 0.0
C442 C 0.25 0.23635 0.83743 0.0
C443 C 0.25962 0.25343 0.83396 0.0
C444 C 0.26122 0.25921 0.81659 0.0
Zn445 Zn 0.26393 0.25257 0.77875 0.0
C446 C 0.30601 0.25693 0.7819 0.0
N447 N 0.28903 0.26138 0.72929 0.0
C448 C 0.285 0.24875 0.71583 0.0
C449 C 0.30104 0.27636 0.72721 0.0
C450 C 0.30909 0.27944 0.71093 0.0
C451 C 0.30501 0.26679 0.69666 0.0
C452 C 0.29302 0.25108 0.6994 0.0
Zn453 Zn 0.27739 0.25756 0.75321 0.0
O454 O 0.26639 0.22284 0.77514 0.0
C455 C 0.23537 0.25306 0.74996 0.0
O456 O 0.28075 0.22773 0.7504 0.0
H457 H 0.30421 0.28612 0.73815 0.0
H458 H 0.23635 0.22464 0.79517 0.0
H459 H 0.27546 0.23688 0.71777 0.0
O460 O 0.23683 0.25147 0.76666 0.0
O461 O 0.25015 0.25542 0.74113 0.0
H462 H 0.27013 0.27135 0.81385 0.0
O463 O 0.27388 0.28747 0.75652 0.0
O464 O 0.26147 0.28222 0.78217 0.0
O465 O 0.30435 0.25964 0.76541 0.0
O466 O 0.29138 0.25359 0.79059 0.0
C467 C 0.26667 0.29385 0.77055 0.0
H468 H 0.23249 0.21364 0.82556 0.0
H469 H 0.26743 0.26128 0.84429 0.0
H470 H 0.3179 0.29199 0.70946 0.0
H471 H 0.28966 0.24077 0.68893 0.0
C472 C 0.04821 0.99123 0.51714 0.0
N473 N 0.02756 0.02046 0.47297 0.0
C474 C 0.04441 0.0299 0.4729 0.0
C475 C 0.05186 0.0357 0.45696 0.0
C476 C 0.04173 0.03189 0.44104 0.0
C477 C 0.02405 0.0228 0.44161 0.0
C478 C 0.01725 0.01709 0.45776 0.0
Zn479 Zn 0.0179 0.00906 0.49558 0.0
C480 C 0.00772 0.96754 0.4895 0.0
N481 N -0.00289 0.98335 0.54163 0.0
C482 C 0.00686 0.98756 0.55697 0.0
C483 C 0.98108 0.97251 0.54144 0.0
C484 C 0.97396 0.96592 0.55726 0.0
C485 C 0.98349 0.97054 0.57334 0.0
C486 C 0.00029 0.98129 0.57301 0.0
Zn487 Zn 0.00667 -0.00511 0.51908 0.0
O488 O 0.04562 0.0007 0.50313 0.0
C489 C 0.01702 0.03633 0.52527 0.0
O490 O 0.03422 0.98709 0.52642 0.0
H491 H 0.97359 0.96932 0.52906 0.0
H492 H 0.05235 0.03243 0.48516 0.0
H493 H 0.01952 -0.00372 0.55683 0.0
O494 O 0.02191 0.03543 0.50928 0.0
O495 O 0.0104 0.0215 0.53239 0.0
H496 H 0.00401 0.00936 0.45807 0.0
O497 O 0.97917 0.00279 0.51159 0.0
O498 O 0.99001 0.01726 0.48847 0.0
O499 O 0.00309 0.96851 0.50556 0.0
O500 O 0.01389 0.98242 0.48213 0.0
C501 C 0.97622 0.01264 0.49788 0.0
H502 H 0.06552 0.04274 0.45703 0.0
H503 H 0.01594 0.01929 0.42961 0.0
H504 H 0.96102 0.95758 0.55693 0.0
H505 H 0.00791 0.98553 0.58509 0.0
C506 C 0.28464 0.75257 0.72864 0.0
N507 N 0.32626 0.73329 0.76422 0.0
C508 C 0.3286 0.71755 0.75382 0.0
C509 C 0.34588 0.70835 0.75384 0.0
C510 C 0.36089 0.71547 0.76462 0.0
C511 C 0.35804 0.73166 0.77531 0.0
C512 C 0.34051 0.74038 0.77492 0.0
Zn513 Zn 0.30068 0.74585 0.76445 0.0
C514 C 0.30357 0.78817 0.76375 0.0
N515 N 0.2468 0.77141 0.76611 0.0
C516 C 0.23342 0.76491 0.75417 0.0
C517 C 0.24252 0.78394 0.77924 0.0
C518 C 0.22388 0.78924 0.78155 0.0
C519 C 0.20958 0.78177 0.77005 0.0
C520 C 0.21471 0.77014 0.75575 0.0
Zn521 Zn 0.27281 0.75959 0.76565 0.0
O522 O 0.29897 0.74535 0.73629 0.0
C523 C 0.26964 0.71738 0.76622 0.0
O524 O 0.27162 0.75932 0.73788 0.0
H525 H 0.2534 0.78902 0.78854 0.0
H526 H 0.31705 0.71216 0.74544 0.0
H527 H 0.23704 0.75487 0.74388 0.0
O528 O 0.28745 0.7186 0.76554 0.0
O529 O 0.26004 0.73249 0.76596 0.0
H530 H 0.33827 0.75282 0.78319 0.0
O531 O 0.27436 0.75945 0.79358 0.0
O532 O 0.30232 0.74675 0.79244 0.0
O533 O 0.28584 0.78678 0.76527 0.0
O534 O 0.31338 0.77315 0.76338 0.0
C535 C 0.28887 0.75294 0.80147 0.0
H536 H 0.34759 0.6961 0.74517 0.0
H537 H 0.36924 0.73753 0.78387 0.0
H538 H 0.22066 0.79811 0.79286 0.0
H539 H 0.20426 0.76439 0.74632 0.0
C540 C 0.50898 0.95611 0.01996 0.0
N541 N 0.52395 0.00829 0.04403 0.0
C542 C 0.51518 0.00135 0.05833 0.0
C543 C 0.52307 0.00432 0.07524 0.0
C544 C 0.54022 0.01437 0.07744 0.0
C545 C 0.54832 0.02246 0.06258 0.0
C546 C 0.53988 0.01922 0.04587 0.0
Zn547 Zn 0.51484 -0.00103 0.01964 0.0
C548 C 0.54701 0.98626 -0.00164 0.0
N549 N 0.49693 0.97647 0.9694 0.0
C550 C 0.48119 0.96531 0.96708 0.0
C551 C 0.50662 0.98279 0.95539 0.0
C552 C 0.50031 0.97837 0.93821 0.0
C553 C 0.48374 0.96751 0.93539 0.0
C554 C 0.47423 0.96073 0.95004 0.0
Zn555 Zn 0.5057 0.98595 -0.00616 0.0
O556 O 0.51366 0.97078 0.02924 0.0
C557 C 0.47359 -0.00307 0.01581 0.0
O558 O 0.50458 0.95799 0.00369 0.0
H559 H 0.51895 0.99184 0.95752 0.0
H560 H 0.50256 0.99266 0.05656 0.0
H561 H 0.47373 0.96043 0.97842 0.0
O562 O 0.48664 0.00293 0.02639 0.0
O563 O 0.47766 0.98965 0.00098 0.0
H564 H 0.54662 0.02457 0.0343 0.0
O565 O 0.50679 0.01441 0.98421 0.0
O566 O 0.51599 0.02682 0.00989 0.0
O567 O 0.53391 0.98149 0.98733 0.0
O568 O 0.5429 -0.00554 0.01278 0.0
C569 C 0.51151 0.02896 -0.00632 0.0
H570 H 0.51619 -0.00187 0.0864 0.0
H571 H 0.5616 0.03021 0.06368 0.0
H572 H 0.50786 0.98416 0.92726 0.0
H573 H 0.4614 0.95229 0.94834 0.0
C574 C 0.23996 0.22281 0.27113 0.0
N575 N 0.28676 0.24694 0.24803 0.0
C576 C 0.29218 0.22873 0.24477 0.0
C577 C 0.29997 0.22385 0.2287 0.0
C578 C 0.30196 0.23781 0.2158 0.0
C579 C 0.29747 0.25675 0.21996 0.0
C580 C 0.28992 0.26106 0.23632 0.0
Zn581 Zn 0.27083 0.25199 0.26938 0.0
C582 C 0.23935 0.27724 0.26162 0.0
N583 N 0.23724 0.26099 0.31414 0.0
C584 C 0.23262 0.24717 0.32573 0.0
C585 C 0.23149 0.27927 0.31638 0.0
C586 C 0.22082 0.28433 0.33074 0.0
C587 C 0.21625 0.27055 0.34316 0.0
C588 C 0.22219 0.25173 0.34055 0.0
Zn589 Zn 0.25352 0.25557 0.29305 0.0
O590 O 0.25371 0.22832 0.26211 0.0
C591 C 0.28538 0.23077 0.30094 0.0
O592 O 0.23623 0.2318 0.28529 0.0
H593 H 0.23555 0.29012 0.30722 0.0
H594 H 0.2894 0.2177 0.25419 0.0
H595 H 0.23734 0.23273 0.32366 0.0
O596 O 0.28828 0.23454 0.28488 0.0
O597 O 0.27113 0.23774 0.30831 0.0
H598 H 0.28559 0.27546 0.23926 0.0
O599 O 0.271 0.27926 0.30047 0.0
O600 O 0.28781 0.27568 0.27685 0.0
O601 O 0.23637 0.2735 0.27763 0.0
O602 O 0.2531 0.26962 0.25406 0.0
C603 C 0.28451 0.2847 0.29108 0.0
H604 H 0.30298 0.20903 0.22589 0.0
H605 H 0.29885 0.26788 0.21031 0.0
H606 H 0.21692 0.2991 0.33254 0.0
H607 H 0.21902 0.24078 0.34998 0.0
C608 C 0.54484 0.49108 0.01957 0.0
N609 N 0.52366 0.51949 0.97515 0.0
C610 C 0.54051 0.52886 0.97439 0.0
C611 C 0.54773 0.53362 0.95803 0.0
C612 C 0.53748 0.52855 0.94245 0.0
C613 C 0.51974 0.51978 0.94374 0.0
C614 C 0.5131 0.51531 0.96027 0.0
Zn615 Zn 0.5143 0.50882 -0.00185 0.0
C616 C 0.50363 0.46733 -0.0071 0.0
N617 N 0.49384 0.4841 0.04476 0.0
C618 C 0.50397 0.48693 0.06013 0.0
C619 C 0.47689 0.47484 0.0444 0.0
C620 C 0.46901 0.46894 0.06008 0.0
C621 C 0.47882 0.47235 0.07626 0.0
C622 C 0.4968 0.48095 0.07606 0.0
Zn623 Zn 0.50356 0.49524 0.02213 0.0
O624 O 0.54188 0.49993 0.00526 0.0
C625 C 0.51453 0.53653 0.02763 0.0
O626 O 0.53117 0.48746 0.02943 0.0
H627 H 0.46914 0.4726 0.03201 0.0
H628 H 0.54867 0.53199 0.98641 0.0
H629 H 0.51743 0.49432 0.06012 0.0
O630 O 0.51916 0.53527 0.01156 0.0
O631 O 0.50768 0.52198 0.03505 0.0
H632 H 0.49978 0.50781 0.96114 0.0
O633 O 0.47601 0.50326 0.0146 0.0
O634 O 0.48658 0.51762 0.99135 0.0
O635 O 0.49965 0.46861 0.0091 0.0
O636 O 0.5095 0.48206 0.98511 0.0
C637 C 0.47291 0.51308 0.00091 0.0
H638 H 0.56151 0.54033 0.95754 0.0
H639 H 0.51127 0.51592 0.93204 0.0
H640 H 0.45504 0.46258 0.05953 0.0
H641 H 0.50508 0.4835 0.08814 0.0
C642 C 0.76457 0.24341 0.2246 0.0
N643 N 0.80787 0.22262 0.25733 0.0
C644 C 0.80822 0.20735 0.24602 0.0
C645 C 0.82478 0.19715 0.24409 0.0
C646 C 0.841 0.20265 0.25404 0.0
C647 C 0.84009 0.21817 0.26592 0.0
C648 C 0.82332 0.22806 0.2673 0.0
Zn649 Zn 0.78388 0.23778 0.25943 0.0
C650 C 0.79016 0.27915 0.25558 0.0
N651 N 0.7334 0.2688 0.26414 0.0
C652 C 0.71741 0.2626 0.25539 0.0
C653 C 0.73347 0.28447 0.27497 0.0
C654 C 0.71678 0.29405 0.27802 0.0
C655 C 0.69988 0.28747 0.26976 0.0
C656 C 0.70043 0.27183 0.25795 0.0
Zn657 Zn 0.75743 0.25373 0.2619 0.0
O658 O 0.77956 0.23682 0.23159 0.0
C659 C 0.75081 0.2124 0.26542 0.0
O660 O 0.75229 0.25063 0.23443 0.0
H661 H 0.74638 0.2892 0.28172 0.0
H662 H 0.7957 0.20321 0.23832 0.0
H663 H 0.71771 0.25015 0.24679 0.0
O664 O 0.76821 0.21204 0.26204 0.0
O665 O 0.74256 0.22831 0.26635 0.0
H666 H 0.82273 0.24028 0.27615 0.0
O667 O 0.76289 0.25665 0.28959 0.0
O668 O 0.788 0.23915 0.2871 0.0
O669 O 0.77243 0.27899 0.25714 0.0
O670 O 0.79923 0.26372 0.25687 0.0
C671 C 0.7769 0.24838 0.29676 0.0
H672 H 0.82497 0.18523 0.23481 0.0
H673 H 0.85241 0.22306 0.27358 0.0
H674 H 0.71699 0.30587 0.28741 0.0
H675 H 0.68778 0.26645 0.25112 0.0
C676 C 0.00895 0.4586 0.52702 0.0
N677 N 0.03301 0.50943 0.54722 0.0
C678 C 0.0269 0.50313 0.56296 0.0
C679 C 0.0375 0.50683 0.57844 0.0
C680 C 0.05458 0.51705 0.57769 0.0
C681 C 0.06008 0.52421 0.56142 0.0
C682 C 0.04901 0.52018 0.54623 0.0
Zn683 Zn 0.01916 0.50037 0.52473 0.0
C684 C 0.04561 0.48414 0.49953 0.0
N685 N 0.99103 0.47927 0.47807 0.0
C686 C 0.97403 0.47005 0.47777 0.0
C687 C -4e-05 0.4832 0.4629 0.0
C688 C -0.00809 0.47774 0.44661 0.0
C689 C 0.97435 0.46839 0.44584 0.0
C690 C 0.96527 0.46458 0.46162 0.0
Zn691 Zn 0.00416 0.48845 0.50095 0.0
O692 O 0.01773 0.47237 0.53487 0.0
C693 C 0.97798 0.5034 0.52726 0.0
O694 O 0.00101 0.46127 0.51202 0.0
H695 H 0.01328 0.49083 0.4634 0.0
H696 H 0.01411 0.49464 0.56344 0.0
H697 H 0.96719 0.46711 0.49001 0.0
O698 O -0.00662 0.50641 0.53583 0.0
O699 O 0.97819 0.49665 0.51156 0.0
H700 H 0.0536 0.52499 0.53354 0.0
O701 O 0.00733 0.51605 0.49 0.0
O702 O 0.02039 0.52806 0.51442 0.0
O703 O 0.03043 0.47964 0.49114 0.0
O704 O 0.04491 0.4939 0.51373 0.0
C705 C 0.01425 0.53031 0.49867 0.0
H706 H 0.03263 0.50134 0.59081 0.0
H707 H 0.07321 0.53205 0.56029 0.0
H708 H -0.00087 0.4813 0.43468 0.0
H709 H 0.95164 0.45747 0.46144 0.0
C710 C 0.77598 0.71313 0.26189 0.0
N711 N 0.75609 0.74507 0.30418 0.0
C712 C 0.74798 0.7281 0.30827 0.0
C713 C 0.74862 0.72191 0.32571 0.0
C714 C 0.75744 0.73349 0.33895 0.0
C715 C 0.76317 0.75202 0.33465 0.0
C716 C 0.7626 0.75746 0.31706 0.0
Zn717 Zn 0.76546 0.7492 0.27935 0.0
C718 C 0.80759 0.75382 0.28165 0.0
N719 N 0.78917 0.75809 0.22933 0.0
C720 C 0.78255 0.74649 0.21589 0.0
C721 C 0.80322 0.77105 0.2269 0.0
C722 C 0.81108 0.77282 0.21032 0.0
C723 C 0.80442 0.76108 0.19619 0.0
C724 C 0.79001 0.74774 0.19916 0.0
Zn725 Zn 0.77841 0.75461 0.25361 0.0
O726 O 0.76905 0.71947 0.27602 0.0
C727 C 0.73622 0.75004 0.25133 0.0
O728 O 0.78081 0.72476 0.25016 0.0
H729 H 0.80835 0.78001 0.23783 0.0
H730 H 0.74274 0.71851 0.29786 0.0
H731 H 0.7714 0.73625 0.21813 0.0
O732 O 0.73799 0.74706 0.26784 0.0
O733 O 0.75078 0.75348 0.2425 0.0
H734 H 0.76918 0.77082 0.31362 0.0
O735 O 0.77591 0.78453 0.25723 0.0
O736 O 0.76219 0.7789 0.2822 0.0
O737 O 0.80578 0.75575 0.26505 0.0
O738 O 0.79302 0.75128 0.29062 0.0
C739 C 0.76799 0.7907 0.27098 0.0
H740 H 0.74395 0.70752 0.32839 0.0
H741 H 0.76956 0.76162 0.34454 0.0
H742 H 0.82219 0.78327 0.20856 0.0
H743 H 0.78418 0.73872 0.18854 0.0
C744 C 0.80134 0.26235 0.74895 0.0
N745 N 0.74998 0.24151 0.72777 0.0
C746 C 0.75405 0.25193 0.71335 0.0
C747 C 0.74991 0.24465 0.69638 0.0
C748 C 0.74156 0.22645 0.69428 0.0
C749 C 0.73644 0.21656 0.70942 0.0
C750 C 0.74081 0.22439 0.72613 0.0
Zn751 Zn 0.76086 0.25002 0.75188 0.0
C752 C 0.77998 0.21729 0.76979 0.0
N753 N 0.78573 0.26646 0.80167 0.0
C754 C 0.79466 0.2837 0.8033 0.0
C755 C 0.78154 0.25611 0.8161 0.0
C756 C 0.78499 0.26375 0.83304 0.0
C757 C 0.79285 0.28217 0.8351 0.0
C758 C 0.79844 0.29184 0.81999 0.0
Zn759 Zn 0.77491 0.25798 0.77758 0.0
O760 O 0.78696 0.25604 0.7402 0.0
C761 C 0.75558 0.29069 0.75989 0.0
O762 O 0.80034 0.26519 0.7655 0.0
H763 H 0.77442 0.24245 0.81448 0.0
H764 H 0.76143 0.26546 0.71497 0.0
H765 H 0.79786 0.29167 0.79163 0.0
O766 O 0.75198 0.27837 0.74771 0.0
O767 O 0.76483 0.28582 0.77367 0.0
H768 H 0.7377 0.21637 0.73778 0.0
O769 O 0.74932 0.25066 0.78936 0.0
O770 O 0.73503 0.24386 0.7639 0.0
O771 O 0.78471 0.22999 0.78131 0.0
O772 O 0.76988 0.22185 0.75642 0.0
C773 C 0.73458 0.24531 0.78064 0.0
H774 H 0.75425 0.25267 0.68508 0.0
H775 H 0.72977 0.20259 0.70835 0.0
H776 H 0.78031 0.25584 0.8443 0.0
H777 H 0.80481 0.30594 0.82101 0.0
C778 C 0.73626 0.72783 0.76061 0.0
N779 N 0.78144 0.75452 0.73662 0.0
C780 C 0.78596 0.73628 0.73239 0.0
C781 C 0.79288 0.73192 0.71581 0.0
C782 C 0.79531 0.74652 0.70354 0.0
C783 C 0.7924 0.76547 0.70901 0.0
C784 C 0.78527 0.76916 0.72566 0.0
Zn785 Zn 0.76496 0.75928 0.75764 0.0
C786 C 0.73125 0.78092 0.74709 0.0
N787 N 0.72922 0.76866 0.80072 0.0
C788 C 0.72615 0.75526 0.81313 0.0
C789 C 0.72237 0.78659 0.80238 0.0
C790 C 0.71282 0.79196 0.81739 0.0
C791 C 0.71029 0.77878 0.83089 0.0
C792 C 0.71665 0.76006 0.82844 0.0
Zn793 Zn 0.74605 0.76331 0.78005 0.0
O794 O 0.74934 0.73413 0.75116 0.0
C795 C 0.78024 0.7421 0.79043 0.0
O796 O 0.73172 0.73724 0.77429 0.0
H797 H 0.72507 0.79705 0.79241 0.0
H798 H 0.78287 0.72489 0.74135 0.0
H799 H 0.73169 0.74108 0.81149 0.0
O800 O 0.7832 0.74384 0.77406 0.0
O801 O 0.76546 0.74912 0.7968 0.0
H802 H 0.7816 0.78357 0.72932 0.0
O803 O 0.76081 0.78932 0.78577 0.0
O804 O 0.78022 0.7843 0.7643 0.0
O805 O 0.727 0.77757 0.76292 0.0
O806 O 0.7467 0.77493 0.74136 0.0
C807 C 0.77494 0.79458 0.77713 0.0
H808 H 0.79473 0.71707 0.71221 0.0
H809 H 0.79445 0.7772 0.70012 0.0
H810 H 0.70849 0.80664 0.81883 0.0
H811 H 0.71486 0.74943 0.83849 0.0
C812 C 0.49632 0.52228 0.47387 0.0
N813 N 0.47346 0.51798 0.52367 0.0
C814 C 0.46162 0.53171 0.51771 0.0
C815 C 0.44257 0.53094 0.52162 0.0
C816 C 0.43579 0.516 0.53189 0.0
C817 C 0.44877 0.50335 0.53949 0.0
C818 C 0.4676 0.50446 0.53502 0.0
Zn819 Zn 0.49873 0.51446 0.51226 0.0
C820 C 0.50243 0.47453 0.4988 0.0
N821 N 0.55069 0.50563 0.48736 0.0
C822 C 0.55606 0.51872 0.47538 0.0
C823 C 0.56193 0.49082 0.49185 0.0
C824 C 0.57984 0.48938 0.48493 0.0
C825 C 0.586 0.50319 0.47313 0.0
C826 C 0.5737 0.51767 0.46796 0.0
Zn827 Zn 0.52583 0.50944 0.49934 0.0
O828 O 0.48655 0.5223 0.48761 0.0
C829 C 0.52246 0.5492 0.51321 0.0
O830 O 0.5134 0.51733 0.47503 0.0
H831 H 0.55729 0.4805 0.5013 0.0
H832 H 0.46662 0.54241 0.50879 0.0
H833 H 0.54697 0.53046 0.47209 0.0
O834 O 0.50642 0.54307 0.51773 0.0
O835 O 0.53339 0.53808 0.50515 0.0
H836 H 0.47721 0.49366 0.53959 0.0
O837 O 0.53805 0.50154 0.52385 0.0
O838 O 0.51127 0.5066 0.53668 0.0
O839 O 0.51819 0.48094 0.49391 0.0
O840 O 0.49135 0.48558 0.50673 0.0
C841 C 0.5284 0.50164 0.53768 0.0
H842 H 0.43308 0.54098 0.51545 0.0
H843 H 0.44419 0.49186 0.5478 0.0
H844 H 0.58905 0.47807 0.48925 0.0
H845 H 0.57811 0.5288 0.45918 0.0
C846 C 0.0043 0.4996 0.04032 0.0
N847 N 0.02815 0.45216 0.01628 0.0
C848 C 0.03768 0.4498 0.03194 0.0
C849 C 0.03927 0.43163 0.03905 0.0
C850 C 0.03087 0.41596 0.02993 0.0
C851 C 0.02272 0.41862 0.01307 0.0
C852 C 0.02151 0.43696 0.00645 0.0
Zn853 Zn 0.01858 0.47825 0.00944 0.0
C854 C 0.97669 0.47534 0.00173 0.0
N855 N -0.00499 0.53124 -0.00492 0.0
C856 C -0.00037 0.54649 0.00575 0.0
C857 C 0.98446 0.53323 0.97994 0.0
C858 C 0.97882 0.55129 0.97463 0.0
C859 C 0.98397 0.56739 0.9851 0.0
C860 C -0.00593 0.56473 0.00109 0.0
Zn861 Zn 0.0053 0.50538 0.0017 0.0
O862 O 0.01258 0.48429 0.03623 0.0
C863 C 0.04701 0.50864 0.00966 0.0
O864 O -0.0002 0.51122 0.02832 0.0
H865 H 0.9809 0.52088 0.97171 0.0
H866 H 0.04274 0.46212 0.03955 0.0
H867 H 0.00807 0.54461 0.0177 0.0
O868 O 0.04576 0.4909 0.01278 0.0
O869 O 0.03232 0.51767 0.00509 0.0
H870 H 0.0139 0.43917 -0.00593 0.0
O871 O 0.01106 0.49925 0.97497 0.0
O872 O 0.0244 0.47252 0.98273 0.0
O873 O 0.97833 0.49297 -0.0015 0.0
O874 O -0.00876 0.46602 0.00611 0.0
C875 C 0.01969 0.48416 0.97077 0.0
H876 H 0.04559 0.43011 0.05215 0.0
H877 H 0.01627 0.40681 0.00561 0.0
H878 H 0.97126 0.55266 0.96208 0.0
H879 H -0.00193 0.57667 0.00972 0.0
H880 H 0.06992 0.15926 0.16514 0.0
H881 H 0.06519 0.13377 0.14276 0.0
H882 H 0.06933 0.17515 0.10148 0.0
H883 H 0.07354 0.20058 0.12371 0.0
H884 H 0.03481 0.15616 0.10216 0.0
H885 H 0.09409 0.1052 0.10404 0.0
H886 H 0.0847 0.1115 0.12511 0.0
H887 H 0.09641 0.12937 0.11258 0.0
C888 C 0.07066 0.16272 0.15128 0.0
C889 C 0.07196 0.18178 0.14605 0.0
C890 C 0.06793 0.14818 0.13852 0.0
C891 C 0.06684 0.15265 0.1205 0.0
C892 C 0.07009 0.17147 0.11533 0.0
H893 H 0.04544 0.07984 0.02907 0.0
H894 H 0.0576 0.10338 0.05077 0.0
C895 C 0.07255 0.18594 0.12801 0.0
C896 C 0.05905 0.1387 0.10731 0.0
H897 H 0.06671 0.09587 0.08703 0.0
C898 C 0.04182 0.143 0.09879 0.0
C899 C 0.06824 0.1216 0.10303 0.0
C900 C 0.08696 0.11663 0.11154 0.0
C901 C 0.03352 0.13066 0.086 0.0
C902 C 0.04256 0.11343 0.08187 0.0
C903 C 0.05981 0.1091 0.09036 0.0
C904 C 0.03452 0.09992 0.06845 0.0
C905 C 0.01534 0.1363 0.07679 0.0
C906 C 0.01734 0.09049 0.07113 0.0
C907 C 0.01025 0.07709 0.05869 0.0
C908 C 0.02035 0.07286 0.04348 0.0
C909 C 0.03731 0.08278 0.04065 0.0
C910 C 0.04435 0.09614 0.05306 0.0
H911 H 0.01251 0.15174 0.07859 0.0
H912 H 0.01562 0.13293 0.06241 0.0
H913 H 0.00349 0.12814 0.08236 0.0
H914 H 0.00967 0.09313 0.08305 0.0
H915 H -0.00276 0.06957 0.06131 0.0
H916 H 0.06899 0.7304 0.33823 0.0
H917 H 0.09819 0.73153 0.32213 0.0
H918 H 0.12956 0.7435 0.37085 0.0
H919 H 0.10028 0.74257 0.38713 0.0
H920 H 0.13654 0.76913 0.34326 0.0
H921 H 0.14188 0.6938 0.32037 0.0
H922 H 0.11947 0.70446 0.31566 0.0
H923 H 0.12709 0.70095 0.33822 0.0
C924 C 0.08212 0.73304 0.34558 0.0
C925 C 0.08236 0.73645 0.36394 0.0
C926 C 0.0988 0.73356 0.33636 0.0
C927 C 0.116 0.73738 0.34535 0.0
C928 C 0.11637 0.74042 0.36373 0.0
H929 H 0.2297 0.75788 0.31351 0.0
H930 H 0.20066 0.75368 0.32934 0.0
C931 C 0.09967 0.73987 0.37299 0.0
C932 C 0.13338 0.7396 0.33534 0.0
H933 H 0.16257 0.71625 0.30758 0.0
C934 C 0.14233 0.75755 0.33556 0.0
C935 C 0.1407 0.72449 0.32517 0.0
C936 C 0.13191 0.70478 0.32491 0.0
C937 C 0.15835 0.76088 0.32568 0.0
C938 C 0.16575 0.74575 0.31559 0.0
C939 C 0.15677 0.72781 0.3153 0.0
C940 C 0.18325 0.74813 0.30581 0.0
C941 C 0.16704 0.78065 0.32589 0.0
C942 C 0.18311 0.74595 0.28734 0.0
C943 C 0.19976 0.74827 0.27819 0.0
C944 C 0.21678 0.75268 0.28743 0.0
C945 C 0.21682 0.75462 0.30596 0.0
C946 C 0.20023 0.75231 0.31505 0.0
H947 H 0.15697 0.7916 0.33029 0.0
H948 H 0.1794 0.7811 0.33523 0.0
H949 H 0.17194 0.78443 0.31259 0.0
H950 H 0.1701 0.7426 0.28003 0.0
H951 H 0.19931 0.7466 0.26393 0.0
H952 H 0.50297 0.79586 0.65871 0.0
H953 H 0.49866 0.82713 0.64549 0.0
H954 H 0.50102 0.80134 0.59346 0.0
H955 H 0.50484 0.77015 0.6065 0.0
H956 H 0.52712 0.84122 0.62726 0.0
H957 H 0.4628 0.84188 0.5845 0.0
H958 H 0.4664 0.82436 0.60146 0.0
H959 H 0.47635 0.82108 0.58002 0.0
C960 C 0.50177 0.79675 0.64445 0.0
C961 C 0.50453 0.7806 0.63363 0.0
C962 C 0.49936 0.81464 0.63692 0.0
C963 C 0.49954 0.81658 0.6185 0.0
C964 C 0.50048 0.80019 0.60769 0.0
H965 H 0.53501 0.89407 0.54118 0.0
H966 H 0.52654 0.8672 0.55971 0.0
C967 C 0.50281 0.78233 0.61519 0.0
C968 C 0.50236 0.83557 0.61069 0.0
H969 H 0.48826 0.86318 0.57618 0.0
C970 C 0.51835 0.84627 0.61637 0.0
C971 C 0.49099 0.84206 0.59642 0.0
C972 C 0.47308 0.8318 0.59038 0.0
C973 C 0.52386 0.86272 0.60752 0.0
C974 C 0.51304 0.86859 0.5927 0.0
C975 C 0.49662 0.85842 0.58746 0.0
C976 C 0.51898 0.88484 0.58202 0.0
C977 C 0.54169 0.87321 0.61349 0.0
C978 C 0.51775 0.90353 0.58863 0.0
C979 C 0.52249 0.9189 0.57808 0.0
C980 C 0.52852 0.91578 0.56074 0.0
C981 C 0.53025 0.89694 0.5544 0.0
C982 C 0.52543 0.8816 0.56494 0.0
H983 H 0.54973 0.86541 0.62385 0.0
H984 H 0.55088 0.87549 0.60209 0.0
H985 H 0.53808 0.88744 0.61894 0.0
H986 H 0.51265 0.90624 0.60176 0.0
H987 H 0.52064 0.93322 0.58325 0.0
H988 H 0.47895 0.26958 0.82588 0.0
H989 H 0.44625 0.26819 0.81501 0.0
H990 H 0.42989 0.24127 0.86306 0.0
H991 H 0.46268 0.24253 0.87415 0.0
H992 H 0.42234 0.23273 0.81183 0.0
H993 H 0.39497 0.28953 0.85615 0.0
H994 H 0.41966 0.28785 0.85142 0.0
H995 H 0.40913 0.27116 0.86597 0.0
C996 C 0.46844 0.26337 0.83419 0.0
C997 C 0.47342 0.2562 0.85091 0.0
C998 C 0.44978 0.26259 0.82793 0.0
C999 C 0.43575 0.25478 0.83832 0.0
C1000 C 0.44058 0.24752 0.85497 0.0
H1001 H 0.31459 0.24862 0.81635 0.0
H1002 H 0.34589 0.24709 0.83061 0.0
C1003 C 0.4593 0.24819 0.86123 0.0
C1004 C 0.41611 0.25408 0.83146 0.0
H1005 H 0.37344 0.27509 0.83561 0.0
C1006 C 0.41158 0.24189 0.81705 0.0
C1007 C 0.40221 0.26599 0.83845 0.0
C1008 C 0.40662 0.27949 0.8538 0.0
C1009 C 0.39343 0.24142 0.80927 0.0
C1010 C 0.37966 0.25384 0.81584 0.0
C1011 C 0.38408 0.26568 0.83056 0.0
C1012 C 0.36075 0.2551 0.80729 0.0
C1013 C 0.38914 0.22756 0.79417 0.0
C1014 C 0.35878 0.26051 0.78958 0.0
C1015 C 0.34096 0.26132 0.78137 0.0
C1016 C 0.32479 0.25693 0.7908 0.0
C1017 C 0.32678 0.25203 0.8087 0.0
C1018 C 0.34463 0.25114 0.81688 0.0
H1019 H 0.39912 0.21549 0.79423 0.0
H1020 H 0.37457 0.22171 0.79474 0.0
H1021 H 0.39048 0.23505 0.78147 0.0
H1022 H 0.37104 0.26408 0.78209 0.0
H1023 H 0.33989 0.2653 0.76761 0.0
H1024 H 0.01853 0.79328 0.43061 0.0
H1025 H 0.01366 0.82277 0.44752 0.0
H1026 H 0.03482 0.85564 0.40461 0.0
H1027 H 0.03998 0.82635 0.3877 0.0
H1028 H 0.04959 0.86697 0.43798 0.0
H1029 H 0.97145 0.86103 0.43733 0.0
H1030 H 0.98377 0.84071 0.44571 0.0
H1031 H 0.98564 0.84687 0.42288 0.0
C1032 C 0.02223 0.80677 0.42479 0.0
C1033 C 0.02957 0.80744 0.40775 0.0
C1034 C 0.0193 0.8236 0.43443 0.0
C1035 C 0.02357 0.84136 0.42717 0.0
C1036 C 0.03132 0.84206 0.41039 0.0
H1037 H 0.01761 0.96061 0.45545 0.0
H1038 H 0.02072 0.92963 0.44067 0.0
C1039 C 0.03426 0.82528 0.40075 0.0
C1040 C 0.02013 0.85931 0.43702 0.0
H1041 H 0.98537 0.88693 0.4536 0.0
C1042 C 0.03556 0.87134 0.44141 0.0
C1043 C 0.0018 0.86491 0.44148 0.0
C1044 C 0.98466 0.85282 0.43651 0.0
C1045 C 0.03316 0.88886 0.45019 0.0
C1046 C 0.01481 0.8946 0.4544 0.0
C1047 C -0.0006 0.88245 0.45028 0.0
C1048 C 0.01141 0.91333 0.46286 0.0
C1049 C 0.05031 0.90102 0.45502 0.0
C1050 C 0.0044 0.9144 0.47995 0.0
C1051 C 0.00251 0.9321 0.48844 0.0
C1052 C 0.00753 0.949 0.47989 0.0
C1053 C 0.01374 0.94787 0.46245 0.0
C1054 C 0.01563 0.93019 0.45401 0.0
H1055 H 0.06345 0.89263 0.45484 0.0
H1056 H 0.05155 0.91262 0.44531 0.0
H1057 H 0.04908 0.90768 0.46834 0.0
H1058 H 0.00094 0.90151 0.48692 0.0
H1059 H -0.00237 0.93249 0.50185 0.0
H1060 H 0.52852 0.68091 0.71668 0.0
H1061 H 0.50299 0.66999 0.73532 0.0
H1062 H 0.46255 0.69744 0.70087 0.0
H1063 H 0.48763 0.70804 0.68221 0.0
H1064 H 0.48011 0.69274 0.7535 0.0
H1065 H 0.43598 0.6475 0.70866 0.0
H1066 H 0.4602 0.65324 0.70409 0.0
H1067 H 0.44153 0.66909 0.69754 0.0
C1068 C 0.51413 0.68428 0.71292 0.0
C1069 C 0.5101 0.69541 0.698 0.0
C1070 C 0.49959 0.678 0.72356 0.0
C1071 C 0.48084 0.68255 0.71927 0.0
C1072 C 0.47683 0.69324 0.70415 0.0
H1073 H 0.39458 0.73399 0.7627 0.0
H1074 H 0.42504 0.7202 0.75717 0.0
C1075 C 0.49126 0.69951 0.69359 0.0
C1076 C 0.4655 0.67854 0.73149 0.0
H1077 H 0.41866 0.66772 0.7297 0.0
C1078 C 0.46681 0.68667 0.74856 0.0
C1079 C 0.44831 0.67002 0.72539 0.0
C1080 C 0.44654 0.65927 0.70798 0.0
C1081 C 0.45074 0.68879 0.75865 0.0
C1082 C 0.43299 0.68308 0.75123 0.0
C1083 C 0.43217 0.67261 0.73525 0.0
C1084 C 0.4152 0.69084 0.75786 0.0
C1085 C 0.45281 0.69812 0.77671 0.0
C1086 C 0.39938 0.67898 0.75993 0.0
C1087 C 0.38178 0.68691 0.76287 0.0
C1088 C 0.37974 0.70683 0.76375 0.0
C1089 C 0.39575 0.7186 0.76241 0.0
C1090 C 0.41325 0.71069 0.75937 0.0
H1091 H 0.46623 0.69389 0.78339 0.0
H1092 H 0.45333 0.71384 0.7753 0.0
H1093 H 0.44094 0.69429 0.78523 0.0
H1094 H 0.40052 0.66363 0.75864 0.0
H1095 H 0.36968 0.6775 0.764 0.0
H1096 H 0.50429 0.17708 0.89771 0.0
H1097 H 0.5017 0.14709 0.91346 0.0
H1098 H 0.52397 0.17471 0.96111 0.0
H1099 H 0.52647 0.20491 0.94549 0.0
H1100 H 0.5327 0.12867 0.92957 0.0
H1101 H 0.47749 0.14482 0.97787 0.0
H1102 H 0.48089 0.1589 0.95843 0.0
H1103 H 0.49664 0.1618 0.97733 0.0
C1104 C 0.5084 0.17687 0.91161 0.0
C1105 C 0.51562 0.19337 0.92036 0.0
C1106 C 0.50692 0.15971 0.92057 0.0
C1107 C 0.5125 0.15873 0.93846 0.0
C1108 C 0.51929 0.17526 0.94738 0.0
H1109 H 0.52177 0.06291 0.00988 0.0
H1110 H 0.5223 0.09457 -0.00327 0.0
C1111 C 0.52079 0.19247 0.93841 0.0
C1112 C 0.51245 0.14008 0.94733 0.0
H1113 H 0.49289 0.11523 0.98071 0.0
C1114 C 0.52397 0.1257 0.94073 0.0
C1115 C 0.50116 0.13636 0.96197 0.0
C1116 C 0.48822 0.1512 0.96929 0.0
C1117 C 0.52455 0.10765 0.94838 0.0
C1118 C 0.51301 0.10378 0.96282 0.0
C1119 C 0.50168 0.11824 0.9696 0.0
C1120 C 0.51233 0.08468 0.97084 0.0
C1121 C 0.53774 0.09298 0.94112 0.0
C1122 C 0.50629 0.0687 0.96068 0.0
C1123 C 0.50604 0.0506 0.9681 0.0
C1124 C 0.51168 0.04817 0.98589 0.0
C1125 C 0.51741 0.06428 -0.00388 0.0
C1126 C 0.51768 0.08238 0.98866 0.0
H1127 H 0.54912 0.09969 0.93353 0.0
H1128 H 0.54425 0.0845 0.95189 0.0
H1129 H 0.52969 0.08306 0.93204 0.0
H1130 H 0.50174 0.07023 0.94699 0.0
H1131 H 0.50141 0.03854 0.95989 0.0
H1132 H 0.07528 0.28272 0.21026 0.0
H1133 H 0.10199 0.301 0.22316 0.0
H1134 H 0.13508 0.28579 0.17829 0.0
H1135 H 0.10818 0.26836 0.16501 0.0
H1136 H 0.1312 0.28251 0.23304 0.0
H1137 H 0.15606 0.33787 0.18831 0.0
H1138 H 0.1328 0.32721 0.18584 0.0
H1139 H 0.15279 0.31579 0.17631 0.0
C1140 C 0.08812 0.28374 0.20296 0.0
C1141 C 0.08984 0.27391 0.18681 0.0
C1142 C 0.1033 0.29431 0.21025 0.0
C1143 C 0.12052 0.29493 0.20164 0.0
C1144 C 0.12183 0.28603 0.18498 0.0
H1145 H 0.2311 0.27568 0.22624 0.0
H1146 H 0.2026 0.28789 0.21174 0.0
C1147 C 0.10652 0.27579 0.17751 0.0
C1148 C 0.13791 0.30095 0.21157 0.0
H1149 H 0.18061 0.32292 0.20699 0.0
C1150 C 0.14175 0.29188 0.22763 0.0
C1151 C 0.15174 0.31305 0.20444 0.0
C1152 C 0.14801 0.32416 0.18785 0.0
C1153 C 0.1595 0.29326 0.23602 0.0
C1154 C 0.17373 0.30436 0.2283 0.0
C1155 C 0.16963 0.31444 0.21284 0.0
C1156 C 0.19339 0.30316 0.23494 0.0
C1157 C 0.16324 0.28154 0.25232 0.0
C1158 C 0.19817 0.30881 0.25236 0.0
C1159 C 0.21415 0.30146 0.26078 0.0
C1160 C 0.22571 0.28879 0.25168 0.0
C1161 C 0.22229 0.28529 0.23355 0.0
C1162 C 0.20609 0.29236 0.22523 0.0
H1163 H 0.1515 0.27144 0.25488 0.0
H1164 H 0.17633 0.27323 0.25102 0.0
H1165 H 0.1651 0.29119 0.26403 0.0
H1166 H 0.18861 0.31736 0.25994 0.0
H1167 H 0.21674 0.30466 0.27471 0.0
H1168 H 0.1376 0.99113 0.16934 0.0
H1169 H 0.12087 0.98699 0.14076 0.0
H1170 H 0.07054 0.97026 0.16724 0.0
H1171 H 0.08701 0.97475 0.19589 0.0
H1172 H 0.09989 0.9566 0.12339 0.0
H1173 H 0.05564 0.01864 0.14057 0.0
H1174 H 0.07666 0.01277 0.15317 0.0
H1175 H 0.05517 -0.00047 0.15604 0.0
C1176 C 0.12304 0.98634 0.16907 0.0
C1177 C 0.11349 0.98361 0.18484 0.0
C1178 C 0.11354 0.98391 0.15274 0.0
C1179 C 0.09442 0.97865 0.15197 0.0
C1180 C 0.08522 0.97466 0.16763 0.0
H1181 H 0.01106 0.98704 0.0668 0.0
H1182 H 0.02761 0.97676 0.09365 0.0
C1183 C 0.09465 0.97722 0.18396 0.0
C1184 C 0.08371 0.97908 0.13495 0.0
H1185 H 0.0489 0.00318 0.11329 0.0
C1186 C 0.08866 0.96669 0.12115 0.0
C1187 C 0.06919 0.99239 0.13212 0.0
C1188 C 0.06391 0.00672 0.14617 0.0
C1189 C 0.07933 0.9672 0.10453 0.0
C1190 C 0.06491 0.9806 0.10172 0.0
C1191 C 0.05986 0.9928 0.11559 0.0
C1192 C 0.05541 0.98316 0.0843 0.0
C1193 C 0.0849 0.95342 0.09018 0.0
C1194 C 0.06563 0.98973 0.07 0.0
C1195 C 0.05621 -0.00438 0.0546 0.0
C1196 C 0.03643 -0.00477 0.05338 0.0
C1197 C 0.02631 0.98765 0.06737 0.0
C1198 C 0.03573 0.98171 0.08271 0.0
H1199 H 0.09224 0.94086 0.09572 0.0
H1200 H 0.0724 0.94839 0.08216 0.0
H1201 H 0.09466 0.96074 0.08126 0.0
H1202 H 0.08081 0.99131 0.0711 0.0
H1203 H 0.06439 0.0014 0.04405 0.0
H1204 H 0.26729 0.83806 0.49565 0.0
H1205 H 0.27567 0.82082 0.46872 0.0
H1206 H 0.25923 0.86902 0.4375 0.0
H1207 H 0.25083 0.88645 0.46428 0.0
H1208 H 0.25292 0.81238 0.43644 0.0
H1209 H 0.31549 0.85865 0.42569 0.0
H1210 H 0.30418 0.85749 0.4467 0.0
H1211 H 0.29388 0.87106 0.42906 0.0
C1212 C 0.26528 0.84496 0.48305 0.0
C1213 C 0.25853 0.86371 0.48214 0.0
C1214 C 0.27009 0.83508 0.46771 0.0
C1215 C 0.26837 0.84383 0.45125 0.0
C1216 C 0.26093 0.8622 0.45017 0.0
H1217 H 0.28757 0.8192 0.34293 0.0
H1218 H 0.28318 0.83313 0.3722 0.0
C1219 C 0.25604 0.87207 0.46548 0.0
C1220 C 0.27466 0.83391 0.43517 0.0
H1221 H 0.3065 0.83688 0.40249 0.0
C1222 C 0.26473 0.81758 0.42906 0.0
C1223 C 0.29012 0.84077 0.42572 0.0
C1224 C 0.30168 0.85786 0.43216 0.0
C1225 C 0.26939 0.80832 0.41325 0.0
C1226 C 0.28465 0.8154 0.4036 0.0
C1227 C 0.29485 0.83148 0.40997 0.0
C1228 C 0.28934 0.80719 0.38619 0.0
C1229 C 0.25747 0.79154 0.40665 0.0
C1230 C 0.29493 0.78816 0.38444 0.0
C1231 C 0.29755 0.78013 0.36768 0.0
C1232 C 0.29476 0.79109 0.35245 0.0
C1233 C 0.29011 0.81043 0.35438 0.0
C1234 C 0.28746 0.81839 0.3711 0.0
H1235 H 0.24399 0.79047 0.41364 0.0
H1236 H 0.25426 0.79259 0.39225 0.0
H1237 H 0.26532 0.77818 0.40888 0.0
H1238 H 0.29686 0.77941 0.396 0.0
H1239 H 0.30135 0.76527 0.36661 0.0
H1240 H 0.43429 0.05052 0.6949 0.0
H1241 H 0.45259 0.05788 0.66899 0.0
H1242 H 0.41361 0.02407 0.63621 0.0
H1243 H 0.39477 0.0176 0.66189 0.0
H1244 H 0.47111 0.03405 0.65122 0.0
H1245 H 0.42142 0.06697 0.60403 0.0
H1246 H 0.416 0.06412 0.62698 0.0
H1247 H 0.41146 0.04493 0.61116 0.0
C1248 C 0.42941 0.04508 0.68205 0.0
C1249 C 0.41317 0.03349 0.68033 0.0
C1250 C 0.43986 0.04929 0.66728 0.0
C1251 C 0.43439 0.04173 0.65058 0.0
C1252 C 0.41782 0.03059 0.6488 0.0
H1253 H 0.50133 -0.00441 0.57176 0.0
H1254 H 0.48642 0.00539 0.5989 0.0
C1255 C 0.40713 0.02674 0.66352 0.0
C1256 C 0.44716 0.04338 0.63554 0.0
H1257 H 0.44724 0.04947 0.59098 0.0
C1258 C 0.46597 0.03786 0.63812 0.0
C1259 C 0.44072 0.04879 0.6185 0.0
C1260 C 0.42135 0.05675 0.61509 0.0
C1261 C 0.47808 0.03632 0.62394 0.0
C1262 C 0.47097 0.03965 0.60663 0.0
C1263 C 0.45261 0.04652 0.60421 0.0
C1264 C 0.48164 0.03447 0.5908 0.0
C1265 C 0.49826 0.03085 0.6277 0.0
C1266 C 0.48361 0.04742 0.57701 0.0
C1267 C 0.49175 0.04168 0.56126 0.0
C1268 C 0.49815 0.02293 0.5591 0.0
C1269 C 0.49672 0.01019 0.57311 0.0
C1270 C 0.48833 0.01584 0.58872 0.0
H1271 H 0.50325 0.03627 0.64094 0.0
H1272 H 0.49925 0.01508 0.62777 0.0
H1273 H 0.5078 0.03649 0.61762 0.0
H1274 H 0.47845 0.06183 0.57829 0.0
H1275 H 0.49269 0.05181 0.55066 0.0
H1276 H 0.30612 0.12648 0.95519 0.0
H1277 H 0.30277 0.14693 0.9296 0.0
H1278 H 0.30389 0.19667 0.96393 0.0
H1279 H 0.30708 0.17631 0.98965 0.0
H1280 H 0.27027 0.19095 0.94462 0.0
H1281 H 0.33107 0.18635 0.90074 0.0
H1282 H 0.32293 0.16354 0.90804 0.0
H1283 H 0.33274 0.18057 0.92391 0.0
C1284 C 0.30647 0.1418 0.95728 0.0
C1285 C 0.30646 0.14978 0.97443 0.0
C1286 C 0.30462 0.1535 0.94261 0.0
C1287 C 0.30297 0.17329 0.94492 0.0
C1288 C 0.30511 0.18141 0.96192 0.0
H1289 H 0.25169 0.25309 0.87056 0.0
H1290 H 0.26436 0.23891 0.89765 0.0
C1291 C 0.30694 0.16974 0.97659 0.0
C1292 C 0.29527 0.18475 0.93029 0.0
H1293 H 0.30184 0.19646 0.88741 0.0
C1294 C 0.2773 0.19249 0.93219 0.0
C1295 C 0.3044 0.18648 0.9141 0.0
C1296 C 0.32393 0.17894 0.91159 0.0
C1297 C 0.26783 0.20121 0.91804 0.0
C1298 C 0.27676 0.2025 0.90171 0.0
C1299 C 0.29499 0.19531 0.89996 0.0
C1300 C 0.26729 0.21073 0.88603 0.0
C1301 C 0.24805 0.20816 0.92048 0.0
C1302 C 0.26449 0.19951 0.87066 0.0
C1303 C 0.2575 0.20759 0.85515 0.0
C1304 C 0.25318 0.2271 0.85472 0.0
C1305 C 0.25499 0.23806 0.87044 0.0
C1306 C 0.26213 0.22996 0.88595 0.0
H1307 H 0.24163 0.20198 0.93233 0.0
H1308 H 0.24838 0.2239 0.9222 0.0
H1309 H 0.23888 0.20453 0.90871 0.0
H1310 H 0.26838 0.18461 0.87051 0.0
H1311 H 0.25663 0.19878 0.84326 0.0
H1312 H 0.07173 0.03193 0.27569 0.0
H1313 H 0.06259 0.03761 0.30612 0.0
H1314 H 0.11524 0.01458 0.32522 0.0
H1315 H 0.12465 0.00896 0.29477 0.0
H1316 H 0.05919 0.00988 0.33237 0.0
H1317 H 0.11188 0.06617 0.35214 0.0
H1318 H 0.1065 0.05972 0.32932 0.0
H1319 H 0.1214 0.04484 0.34266 0.0
C1320 C 0.08142 0.0281 0.28633 0.0
C1321 C 0.09894 0.02 0.28279 0.0
C1322 C 0.07618 0.0314 0.30371 0.0
C1323 C 0.08837 0.0268 0.31786 0.0
C1324 C 0.1058 0.01859 0.31444 0.0
H1325 H 0.07739 0.02423 0.43093 0.0
H1326 H 0.08926 0.02511 0.40094 0.0
C1327 C 0.11108 0.01524 0.29704 0.0
C1328 C 0.08237 0.02974 0.3362 0.0
H1329 H 0.09303 0.05393 0.37483 0.0
C1330 C 0.0665 0.01959 0.34164 0.0
C1331 C 0.09204 0.04237 0.34821 0.0
C1332 C 0.10882 0.05405 0.34281 0.0
C1333 C 0.06018 0.02147 0.35891 0.0
C1334 C 0.06977 0.03417 0.37092 0.0
C1335 C 0.08567 0.04432 0.36551 0.0
C1336 C 0.0637 0.03653 0.3893 0.0
C1337 C 0.04357 0.00948 0.36427 0.0
C1338 C 0.04573 0.04347 0.39273 0.0
C1339 C 0.03892 0.04296 0.40981 0.0
C1340 C 0.05005 0.03568 0.42374 0.0
C1341 C 0.06855 0.03003 0.42048 0.0
C1342 C 0.07532 0.03045 0.40336 0.0
H1343 H 0.04069 -0.00266 0.35491 0.0
H1344 H 0.04596 0.00375 0.37773 0.0
H1345 H 0.03083 0.01845 0.36443 0.0
H1346 H 0.03672 0.04858 0.38207 0.0
H1347 H 0.02472 0.04768 0.41202 0.0
H1348 H 0.26037 0.81787 0.57143 0.0
H1349 H 0.26457 0.79657 0.59646 0.0
H1350 H 0.29371 0.84154 0.62622 0.0
H1351 H 0.28917 0.86309 0.60142 0.0
H1352 H 0.29568 0.78358 0.61599 0.0
H1353 H 0.24958 0.82823 0.65709 0.0
H1354 H 0.25148 0.83145 0.63363 0.0
H1355 H 0.26935 0.84106 0.64875 0.0
C1356 C 0.2678 0.82319 0.58326 0.0
C1357 C 0.27421 0.84224 0.58456 0.0
C1358 C 0.27023 0.81098 0.59752 0.0
C1359 C 0.27913 0.81759 0.61328 0.0
C1360 C 0.28644 0.83629 0.61428 0.0
H1361 H 0.31421 0.7565 0.70675 0.0
H1362 H 0.3129 0.76945 0.67692 0.0
C1363 C 0.28388 0.84856 0.60009 0.0
C1364 C 0.27978 0.80533 0.62901 0.0
H1365 H 0.26558 0.80324 0.67152 0.0
C1366 C 0.28905 0.78779 0.62814 0.0
C1367 C 0.2708 0.81072 0.6447 0.0
C1368 C 0.25958 0.82879 0.6461 0.0
C1369 C 0.2899 0.77565 0.64273 0.0
C1370 C 0.28151 0.78141 0.65862 0.0
C1371 C 0.27204 0.79883 0.65934 0.0
C1372 C 0.28244 0.76997 0.67491 0.0
C1373 C 0.29951 0.75671 0.64091 0.0
C1374 C 0.26578 0.76558 0.68356 0.0
C1375 C 0.26651 0.75855 0.70068 0.0
C1376 C 0.28393 0.75557 0.7094 0.0
C1377 C 0.3006 0.75849 0.70025 0.0
C1378 C 0.29986 0.76584 0.68317 0.0
H1379 H 0.30002 0.75197 0.62686 0.0
H1380 H 0.31422 0.75814 0.64618 0.0
H1381 H 0.29225 0.74551 0.64847 0.0
H1382 H 0.25219 0.76862 0.67743 0.0
H1383 H 0.25345 0.75634 0.70742 0.0
H1384 H 0.45599 0.98244 0.76936 0.0
H1385 H 0.46488 0.97479 0.79982 0.0
H1386 H 0.41048 0.99275 0.81689 0.0
H1387 H 0.40133 0.00039 0.78642 0.0
H1388 H 0.46528 0.00069 0.8295 0.0
H1389 H 0.41703 0.93856 0.83777 0.0
H1390 H 0.42288 0.94745 0.81633 0.0
H1391 H 0.40633 0.9599 0.82958 0.0
C1392 C 0.44588 0.98477 0.77956 0.0
C1393 C 0.42793 0.99201 0.77545 0.0
C1394 C 0.45098 0.98035 0.79694 0.0
C1395 C 0.43821 0.98293 0.81048 0.0
C1396 C 0.42037 0.99034 0.80652 0.0
H1397 H 0.44748 0.97299 0.924 0.0
H1398 H 0.43579 0.97477 0.89329 0.0
C1399 C 0.41525 -0.00517 0.78914 0.0
C1400 C 0.44393 0.97861 0.82885 0.0
H1401 H 0.43474 0.94928 0.86317 0.0
C1402 C 0.45868 0.98941 0.83686 0.0
C1403 C 0.43516 0.96394 0.83835 0.0
C1404 C 0.41955 0.95166 0.83008 0.0
C1405 C 0.4648 0.98608 0.85428 0.0
C1406 C 0.4562 0.97126 0.86374 0.0
C1407 C 0.44135 0.96052 0.85578 0.0
C1408 C 0.46233 0.96711 0.88206 0.0
C1409 C 0.48015 -0.00126 0.86253 0.0
C1410 C 0.48083 0.96134 0.88579 0.0
C1411 C 0.48753 0.96035 0.90325 0.0
C1412 C 0.47575 0.96493 0.91723 0.0
C1413 C 0.45681 0.96929 0.91347 0.0
C1414 C 0.45015 0.97038 0.89597 0.0
H1415 H 0.48196 0.01215 0.85512 0.0
H1416 H 0.47707 0.00246 0.87645 0.0
H1417 H 0.49369 0.99106 0.86247 0.0
H1418 H 0.4903 0.95839 0.87517 0.0
H1419 H 0.50211 0.9567 0.90583 0.0
H1420 H 0.2544 0.13623 0.08598 0.0
H1421 H 0.26175 0.1574 0.11142 0.0
H1422 H 0.31498 0.17245 0.08915 0.0
H1423 H 0.30754 0.15195 0.06354 0.0
H1424 H 0.29019 0.15547 0.13527 0.0
H1425 H 0.2949 0.22433 0.10067 0.0
H1426 H 0.28521 0.20297 0.09012 0.0
H1427 H 0.31031 0.20665 0.09204 0.0
C1428 C 0.26759 0.14418 0.08646 0.0
C1429 C 0.28031 0.14254 0.07272 0.0
C1430 C 0.27177 0.15625 0.10097 0.0
C1431 C 0.28875 0.16677 0.10197 0.0
C1432 C 0.30157 0.16493 0.08838 0.0
H1433 H 0.32908 0.21381 0.20394 0.0
H1434 H 0.32923 0.19793 0.17483 0.0
C1435 C 0.29732 0.15308 0.07381 0.0
C1436 C 0.29347 0.17897 0.11764 0.0
H1437 H 0.30558 0.22441 0.13078 0.0
C1438 C 0.29353 0.17055 0.13431 0.0
C1439 C 0.29772 0.19865 0.1163 0.0
C1440 C 0.29687 0.20874 0.09884 0.0
C1441 C 0.29755 0.18131 0.14975 0.0
C1442 C 0.30227 0.2009 0.14839 0.0
C1443 C 0.30232 0.20931 0.13171 0.0
C1444 C 0.30521 0.2132 0.1643 0.0
C1445 C 0.29597 0.17171 0.16737 0.0
C1446 C 0.29265 0.22805 0.16742 0.0
C1447 C 0.29278 0.23733 0.18384 0.0
C1448 C 0.30541 0.23182 0.19741 0.0
C1449 C 0.31908 0.21814 0.19373 0.0
C1450 C 0.31909 0.20901 0.1772 0.0
H1451 H 0.28801 0.15798 0.16616 0.0
H1452 H 0.31028 0.16864 0.17278 0.0
H1453 H 0.28885 0.18107 0.17699 0.0
H1454 H 0.2819 0.23156 0.15759 0.0
H1455 H 0.28199 0.24772 0.18635 0.0
H1456 H 0.24555 0.09456 0.96862 0.0
H1457 H 0.21787 0.08534 0.95026 0.0
H1458 H 0.18209 0.11099 0.98893 0.0
H1459 H 0.2099 0.12148 0.00646 0.0
H1460 H 0.19499 0.06069 0.95835 0.0
H1461 H 0.15202 0.12363 0.94672 0.0
H1462 H 0.17632 0.12588 0.95427 0.0
H1463 H 0.15771 0.12368 0.96989 0.0
C1464 C 0.23172 0.09874 0.9728 0.0
C1465 C 0.22964 0.10864 0.98885 0.0
C1466 C 0.21595 0.0935 0.96233 0.0
C1467 C 0.19781 0.09758 0.96805 0.0
C1468 C 0.19586 0.10821 0.98383 0.0
H1469 H 0.11141 0.02804 0.98733 0.0
H1470 H 0.14147 0.04098 0.97855 0.0
C1471 C 0.21172 0.11402 -0.006 0.0
C1472 C 0.18112 0.08794 0.95946 0.0
H1473 H 0.13396 0.09377 0.95298 0.0
C1474 C 0.18178 0.0681 0.95659 0.0
C1475 C 0.16391 0.09742 0.9564 0.0
C1476 C 0.16259 0.11887 0.95679 0.0
C1477 C 0.16536 0.05733 0.95297 0.0
C1478 C 0.14781 0.06653 0.95297 0.0
C1479 C 0.14737 0.08656 0.95354 0.0
C1480 C 0.13008 0.05585 0.95578 0.0
C1481 C 0.16696 0.03608 0.95011 0.0
C1482 C 0.11357 0.05985 0.94596 0.0
C1483 C 0.09622 0.05266 0.9512 0.0
C1484 C 0.09518 0.04134 0.96631 0.0
C1485 C 0.11183 0.03642 0.97545 0.0
C1486 C 0.12908 0.04376 0.97035 0.0
H1487 H 0.17971 0.03275 0.94258 0.0
H1488 H 0.16853 0.02908 0.96311 0.0
H1489 H 0.15442 0.02992 0.94285 0.0
H1490 H 0.114 0.06924 0.93476 0.0
H1491 H 0.08354 0.05657 0.94389 0.0
H1492 H 0.68594 0.38311 0.03184 0.0
H1493 H 0.65672 0.40097 0.02921 0.0
H1494 H 0.68162 0.44642 0.06164 0.0
H1495 H 0.71116 0.42896 0.06369 0.0
H1496 H 0.63239 0.41385 0.05214 0.0
H1497 H 0.66497 0.47529 0.01878 0.0
H1498 H 0.67732 0.45338 0.02262 0.0
H1499 H 0.67549 0.47087 0.04014 0.0
C1500 C 0.68515 0.39686 0.03849 0.0
C1501 C 0.70087 0.40478 0.04779 0.0
C1502 C 0.66846 0.40706 0.03697 0.0
C1503 C 0.66716 0.42524 0.04486 0.0
C1504 C 0.68252 0.4327 0.05497 0.0
H1505 H 0.55812 0.48043 0.05203 0.0
H1506 H 0.58838 0.46584 0.05928 0.0
C1507 C 0.69932 0.42265 0.05626 0.0
C1508 C 0.64978 0.43639 0.04224 0.0
H1509 H 0.63313 0.47851 0.02658 0.0
C1510 C 0.63254 0.42799 0.04656 0.0
C1511 C 0.65 0.45473 0.03469 0.0
C1512 C 0.66791 0.46403 0.02862 0.0
C1513 C 0.61547 0.43734 0.04345 0.0
C1514 C 0.61574 0.45592 0.0364 0.0
C1515 C 0.63299 0.46437 0.03217 0.0
C1516 C 0.59821 0.46642 0.0325 0.0
C1517 C 0.59733 0.4269 0.04713 0.0
C1518 C 0.59417 0.47262 0.01526 0.0
C1519 C 0.57709 0.48138 0.01118 0.0
C1520 C 0.56371 0.48391 0.02425 0.0
C1521 C 0.56809 0.47841 0.04165 0.0
C1522 C 0.5853 0.46995 0.04578 0.0
H1523 H 0.59933 0.41122 0.0476 0.0
H1524 H 0.59224 0.43166 0.06017 0.0
H1525 H 0.58626 0.42987 0.0369 0.0
H1526 H 0.60401 0.47016 0.00484 0.0
H1527 H 0.57409 0.4855 -0.00234 0.0
H1528 H 0.8827 0.4271 0.20062 0.0
H1529 H 0.86545 0.3967 0.20226 0.0
H1530 H 0.84044 0.41613 0.25049 0.0
H1531 H 0.85657 0.44678 0.24822 0.0
H1532 H 0.86789 0.37026 0.22468 0.0
H1533 H 0.79486 0.39529 0.22633 0.0
H1534 H 0.8141 0.411 0.22109 0.0
H1535 H 0.80844 0.40684 0.24381 0.0
C1536 C 0.87319 0.42495 0.21134 0.0
C1537 C 0.87075 0.43932 0.22417 0.0
C1538 C 0.8634 0.40759 0.21231 0.0
C1539 C 0.8513 0.40423 0.2263 0.0
C1540 C 0.84906 0.41859 0.23918 0.0
H1541 H 0.82423 0.29319 0.26779 0.0
H1542 H 0.83932 0.3233 0.25965 0.0
C1543 C 0.85841 0.43608 0.23795 0.0
C1544 C 0.84199 0.38535 0.22819 0.0
H1545 H 0.80047 0.36433 0.23887 0.0
C1546 C 0.85306 0.36892 0.22747 0.0
C1547 C 0.82256 0.38347 0.23146 0.0
C1548 C 0.80931 0.40011 0.2305 0.0
C1549 C 0.84539 0.35079 0.23055 0.0
C1550 C 0.82635 0.34915 0.23539 0.0
C1551 C 0.81516 0.36552 0.2355 0.0
C1552 C 0.81758 0.33072 0.24029 0.0
C1553 C 0.85777 0.33365 0.22827 0.0
C1554 C 0.79998 0.32524 0.23276 0.0
C1555 C 0.79102 0.30859 0.23803 0.0
C1556 C 0.79969 0.29684 0.25059 0.0
C1557 C 0.81739 0.30204 0.25798 0.0
C1558 C 0.82609 0.31909 0.25314 0.0
H1559 H 0.8689 0.33646 0.21862 0.0
H1560 H 0.86491 0.33047 0.2411 0.0
H1561 H 0.84949 0.32088 0.22365 0.0
H1562 H 0.7931 0.33389 0.22282 0.0
H1563 H 0.77742 0.3047 0.23203 0.0
H1564 H 0.81089 0.55023 0.57104 0.0
H1565 H 0.84006 0.53418 0.57971 0.0
H1566 H 0.87154 0.57296 0.54782 0.0
H1567 H 0.84277 0.58919 0.5394 0.0
H1568 H 0.86117 0.51552 0.55687 0.0
H1569 H 0.90594 0.57008 0.59071 0.0
H1570 H 0.88073 0.57264 0.58812 0.0
H1571 H 0.89611 0.58003 0.5709 0.0
C1572 C 0.8241 0.55558 0.5662 0.0
C1573 C 0.82453 0.57088 0.55441 0.0
C1574 C 0.84072 0.54644 0.57122 0.0
C1575 C 0.85797 0.55259 0.56466 0.0
C1576 C 0.85846 0.56831 0.55347 0.0
H1577 H 0.943 0.50526 0.51154 0.0
H1578 H 0.91365 0.51314 0.52565 0.0
C1579 C 0.84193 0.57744 0.54846 0.0
C1580 C 0.8751 0.54114 0.56704 0.0
H1581 H 0.92256 0.54744 0.57132 0.0
C1582 C 0.87458 0.52226 0.5606 0.0
C1583 C 0.89252 0.54966 0.57241 0.0
C1584 C 0.89379 0.56916 0.58112 0.0
C1585 C 0.89124 0.51256 0.55731 0.0
C1586 C 0.90867 0.52225 0.56013 0.0
C1587 C 0.90916 0.54019 0.56867 0.0
C1588 C 0.92608 0.51543 0.55214 0.0
C1589 C 0.88993 0.49242 0.55002 0.0
C1590 C 0.9429 0.51462 0.56226 0.0
C1591 C 0.95977 0.51059 0.55414 0.0
C1592 C 0.96007 0.50727 0.53577 0.0
C1593 C 0.94317 0.50769 0.52572 0.0
C1594 C 0.92635 0.51194 0.53382 0.0
H1595 H 0.87765 0.48472 0.55539 0.0
H1596 H 0.8878 0.49279 0.53544 0.0
H1597 H 0.90289 0.48432 0.55318 0.0
H1598 H 0.94302 0.51746 0.57638 0.0
H1599 H 0.97259 0.51019 0.56226 0.0
H1600 H 0.12869 0.08332 0.22096 0.0
H1601 H 0.14475 0.11399 0.22627 0.0
H1602 H 0.19651 0.08495 0.2387 0.0
H1603 H 0.18048 0.05421 0.23384 0.0
H1604 H 0.18754 0.11039 0.2642 0.0
H1605 H 0.18242 0.14432 0.19858 0.0
H1606 H 0.16017 0.13621 0.20643 0.0
H1607 H 0.17804 0.11917 0.20151 0.0
C1608 C 0.14358 0.08345 0.22449 0.0
C1609 C 0.15329 0.06633 0.22707 0.0
C1610 C 0.15276 0.10101 0.22744 0.0
C1611 C 0.17185 0.10173 0.23274 0.0
C1612 C 0.18176 0.08468 0.23461 0.0
H1613 H 0.24677 0.19897 0.24335 0.0
H1614 H 0.22931 0.17013 0.23417 0.0
C1615 C 0.17257 0.06714 0.23181 0.0
C1616 C 0.18112 0.1201 0.23786 0.0
H1617 H 0.19245 0.1643 0.22293 0.0
C1618 C 0.18868 0.12216 0.25515 0.0
C1619 C 0.18264 0.13536 0.22601 0.0
C1620 C 0.17555 0.13365 0.20704 0.0
C1621 C 0.19775 0.1391 0.26095 0.0
C1622 C 0.19885 0.15454 0.24925 0.0
C1623 C 0.19135 0.15248 0.23193 0.0
C1624 C 0.20867 0.17258 0.25446 0.0
C1625 C 0.20649 0.14009 0.27939 0.0
C1626 C 0.20263 0.18369 0.26876 0.0
C1627 C 0.21269 0.20015 0.27417 0.0
C1628 C 0.2288 0.20584 0.26522 0.0
C1629 C 0.23444 0.19495 0.25057 0.0
C1630 C 0.22446 0.17849 0.24526 0.0
H1631 H 0.20847 0.12567 0.28497 0.0
H1632 H 0.22035 0.14759 0.27952 0.0
H1633 H 0.19709 0.14811 0.28818 0.0
H1634 H 0.19023 0.17955 0.2758 0.0
H1635 H 0.2079 0.20833 0.28539 0.0
H1636 H 0.32396 0.89829 0.54107 0.0
H1637 H 0.35673 0.90789 0.53674 0.0
H1638 H 0.33811 0.96056 0.51386 0.0
H1639 H 0.30542 0.95109 0.51792 0.0
H1640 H 0.36368 0.94 0.49325 0.0
H1641 H 0.38921 0.94909 0.56318 0.0
H1642 H 0.3777 0.9267 0.55763 0.0
H1643 H 0.36448 0.94833 0.55689 0.0
C1644 C 0.32685 0.91203 0.53535 0.0
C1645 C 0.31207 0.92391 0.52981 0.0
C1646 C 0.34557 0.9175 0.53292 0.0
C1647 C 0.34977 0.93496 0.52507 0.0
C1648 C 0.3351 0.94702 0.51993 0.0
H1649 H 0.44612 0.0002 0.49445 0.0
H1650 H 0.41474 0.98627 0.49793 0.0
C1651 C 0.31643 0.94158 0.52231 0.0
C1652 C 0.36938 0.94041 0.52138 0.0
H1653 H 0.41168 0.95277 0.54113 0.0
C1654 C 0.37421 0.94277 0.5037 0.0
C1655 C 0.38304 0.94388 0.53506 0.0
C1656 C 0.3784 0.94203 0.55428 0.0
C1657 C 0.39238 0.94864 0.49932 0.0
C1658 C 0.40592 0.95252 0.51302 0.0
C1659 C 0.40121 0.94977 0.53068 0.0
C1660 C 0.42486 0.96013 0.50942 0.0
C1661 C 0.39697 0.95055 0.4801 0.0
C1662 C 0.44088 0.95001 0.51473 0.0
C1663 C 0.45879 0.95793 0.51282 0.0
C1664 C 0.46098 0.9762 0.50568 0.0
C1665 C 0.4449 0.98607 0.49991 0.0
C1666 C 0.42698 0.97811 0.50183 0.0
H1667 H 0.38696 0.94219 0.47135 0.0
H1668 H 0.39601 0.96576 0.4764 0.0
H1669 H 0.4115 0.94573 0.47766 0.0
H1670 H 0.43948 0.93613 0.52066 0.0
H1671 H 0.47089 0.94994 0.5174 0.0
H1672 H 0.82823 0.5398 0.2303 0.0
H1673 H 0.8096 0.56864 0.23405 0.0
H1674 H 0.8529 0.59259 0.26929 0.0
H1675 H 0.87179 0.56407 0.2653 0.0
H1676 H 0.79523 0.58842 0.26307 0.0
H1677 H 0.84934 0.63108 0.22945 0.0
H1678 H 0.84935 0.60536 0.22944 0.0
H1679 H 0.85849 0.61875 0.24838 0.0
C1680 C 0.83368 0.55113 0.239 0.0
C1681 C 0.85159 0.54983 0.2473 0.0
C1682 C 0.82301 0.56756 0.24114 0.0
C1683 C 0.83008 0.58286 0.25164 0.0
C1684 C 0.84741 0.58108 0.26081 0.0
H1685 H 0.77692 0.68588 0.28726 0.0
H1686 H 0.78761 0.65307 0.28404 0.0
C1687 C 0.85815 0.56477 0.25856 0.0
C1688 C 0.81995 0.60113 0.25215 0.0
H1689 H 0.82514 0.64831 0.24315 0.0
C1690 C 0.80167 0.60153 0.25864 0.0
C1691 C 0.82828 0.61809 0.24599 0.0
C1692 C 0.84736 0.61833 0.23775 0.0
C1693 C 0.79168 0.61865 0.2596 0.0
C1694 C 0.80039 0.63576 0.25422 0.0
C1695 C 0.8185 0.6352 0.24736 0.0
C1696 C 0.79136 0.6546 0.25581 0.0
C1697 C 0.77185 0.61819 0.26615 0.0
C1698 C 0.78994 0.66638 0.24104 0.0
C1699 C 0.78422 0.68523 0.2429 0.0
C1700 C 0.7797 0.69261 0.25958 0.0
C1701 C 0.78022 0.68054 0.27422 0.0
C1702 C 0.78619 0.66173 0.27238 0.0
H1703 H 0.76529 0.60378 0.26437 0.0
H1704 H 0.77217 0.62179 0.28049 0.0
H1705 H 0.76286 0.62868 0.25919 0.0
H1706 H 0.79389 0.66117 0.22814 0.0
H1707 H 0.78384 0.69417 0.23136 0.0
H1708 H 0.69704 0.46287 0.73796 0.0
H1709 H 0.71447 0.43316 0.7401 0.0
H1710 H 0.67216 0.41007 0.77369 0.0
H1711 H 0.65429 0.43952 0.77109 0.0
H1712 H 0.73024 0.4132 0.76642 0.0
H1713 H 0.67194 0.37084 0.73419 0.0
H1714 H 0.67197 0.39655 0.73519 0.0
H1715 H 0.66505 0.38297 0.75396 0.0
C1716 C 0.69153 0.45154 0.74595 0.0
C1717 C 0.67417 0.45342 0.75417 0.0
C1718 C 0.70151 0.43456 0.74715 0.0
C1719 C 0.69436 0.41922 0.75667 0.0
C1720 C 0.67764 0.42152 0.76583 0.0
H1721 H 0.75455 0.31762 0.78619 0.0
H1722 H 0.74067 0.34916 0.78483 0.0
C1723 C 0.66752 0.43841 0.76446 0.0
C1724 C 0.70409 0.40066 0.75647 0.0
H1725 H 0.69752 0.3534 0.74634 0.0
C1726 C 0.72312 0.40012 0.76198 0.0
C1727 C 0.6949 0.38369 0.75026 0.0
C1728 C 0.67491 0.38352 0.74289 0.0
C1729 C 0.73312 0.383 0.76179 0.0
C1730 C 0.72365 0.36587 0.75641 0.0
C1731 C 0.70472 0.36649 0.7506 0.0
C1732 C 0.73292 0.34707 0.75697 0.0
C1733 C 0.75379 0.38353 0.76703 0.0
C1734 C 0.73278 0.33515 0.74185 0.0
C1735 C 0.74039 0.3169 0.74267 0.0
C1736 C 0.74835 0.31029 0.75861 0.0
C1737 C 0.7487 0.32235 0.77365 0.0
C1738 C 0.74088 0.34048 0.77288 0.0
H1739 H 0.7601 0.39789 0.76507 0.0
H1740 H 0.75548 0.38021 0.78127 0.0
H1741 H 0.76175 0.37291 0.75932 0.0
H1742 H 0.7266 0.33992 0.72945 0.0
H1743 H 0.73991 0.30793 0.73086 0.0
H1744 H -0.00283 0.86043 0.87786 0.0
H1745 H -0.00529 0.8873 0.89857 0.0
H1746 H 0.98692 0.84834 0.9413 0.0
H1747 H 0.98962 0.82132 0.92077 0.0
H1748 H 0.9653 0.89717 0.92149 0.0
H1749 H 0.03257 0.88168 0.95781 0.0
H1750 H 0.0263 0.87083 0.93662 0.0
H1751 H 0.01557 0.86247 0.95626 0.0
C1752 C -0.0051 0.85754 0.89165 0.0
C1753 C -0.00623 0.83873 0.8977 0.0
C1754 C -0.00656 0.87291 0.90344 0.0
C1755 C 0.99084 0.86973 0.92144 0.0
C1756 C 0.98921 0.85102 0.92748 0.0
H1757 H 0.97143 0.96451 -0.00386 0.0
H1758 H 0.96735 0.93419 0.97974 0.0
C1759 C 0.99073 0.83563 0.91571 0.0
C1760 C 0.99045 0.8861 0.93389 0.0
H1761 H 0.01572 0.90833 0.96747 0.0
C1762 C 0.97619 0.89958 0.93167 0.0
C1763 C 0.00479 0.88912 0.94704 0.0
C1764 C 0.02078 0.87537 0.94956 0.0
C1765 C 0.97615 0.91633 0.94204 0.0
C1766 C 0.99064 0.91946 0.95501 0.0
C1767 C 0.0046 0.90574 0.95754 0.0
C1768 C -0.00732 0.93767 0.96492 0.0
C1769 C 0.96114 0.93093 0.93856 0.0
C1770 C 0.00835 0.94942 0.96208 0.0
C1771 C 0.01076 0.9666 0.9714 0.0
C1772 C -0.00246 0.97232 0.98379 0.0
C1773 C 0.9818 0.9605 0.98662 0.0
C1774 C 0.97941 0.94324 0.97726 0.0
H1775 H 0.95273 0.92765 0.92623 0.0
H1776 H 0.95143 0.93124 0.94975 0.0
H1777 H 0.96756 0.94538 0.93754 0.0
H1778 H 0.01872 0.94529 0.9526 0.0
H1779 H 0.02304 0.97535 0.96891 0.0
H1780 H 0.96192 0.27474 0.67035 0.0
H1781 H 0.93158 0.28254 0.68287 0.0
H1782 H 0.9297 0.22746 0.70739 0.0
H1783 H 0.96039 0.21998 0.69564 0.0
H1784 H 0.89788 0.26804 0.67894 0.0
H1785 H 0.91994 0.26072 0.74901 0.0
H1786 H 0.93661 0.26065 0.73154 0.0
H1787 H 0.92413 0.23908 0.73697 0.0
C1788 C 0.95503 0.26432 0.67844 0.0
C1789 C 0.9636 0.24683 0.68218 0.0
C1790 C 0.93771 0.2688 0.68561 0.0
C1791 C 0.92858 0.2558 0.69647 0.0
C1792 C 0.93679 0.23802 0.6996 0.0
H1793 H 0.81163 0.24639 0.7178 0.0
H1794 H 0.84249 0.2477 0.70474 0.0
C1795 C 0.95425 0.23368 0.69274 0.0
C1796 C 0.91027 0.26058 0.70421 0.0
H1797 H 0.88654 0.25948 0.74264 0.0
C1798 C 0.89547 0.26643 0.69292 0.0
C1799 C 0.90721 0.25904 0.72252 0.0
C1800 C 0.9229 0.25475 0.73571 0.0
C1801 C 0.87747 0.26986 0.6993 0.0
C1802 C 0.87402 0.26663 0.71733 0.0
C1803 C 0.88905 0.26168 0.72876 0.0
C1804 C 0.85482 0.26722 0.72451 0.0
C1805 C 0.86246 0.27701 0.68662 0.0
C1806 C 0.8515 0.27735 0.74026 0.0
C1807 C 0.83396 0.27616 0.74806 0.0
C1808 C 0.81937 0.265 0.74012 0.0
C1809 C 0.82253 0.25532 0.72411 0.0
C1810 C 0.84016 0.2562 0.71653 0.0
H1811 H 0.86876 0.28554 0.67601 0.0
H1812 H 0.85496 0.26464 0.68016 0.0
H1813 H 0.85206 0.28593 0.69346 0.0
H1814 H 0.86262 0.28588 0.74672 0.0
H1815 H 0.8319 0.28378 0.7604 0.0
H1816 H 0.52421 0.24108 0.41948 0.0
H1817 H 0.52339 0.20952 0.4327 0.0
H1818 H 0.51186 0.18377 0.38129 0.0
H1819 H 0.5129 0.2152 0.36791 0.0
H1820 H 0.49081 0.1865 0.43045 0.0
H1821 H 0.55224 0.14913 0.40311 0.0
H1822 H 0.55011 0.17477 0.40297 0.0
H1823 H 0.53705 0.16023 0.38699 0.0
C1824 C 0.52197 0.22867 0.41093 0.0
C1825 C 0.51854 0.23062 0.39267 0.0
C1826 C 0.52144 0.21068 0.4185 0.0
C1827 C 0.5176 0.19437 0.40794 0.0
C1828 C 0.51511 0.19617 0.38961 0.0
H1829 H 0.47334 0.08713 0.44897 0.0
H1830 H 0.47717 0.11619 0.43169 0.0
C1831 C 0.51566 0.21415 0.38201 0.0
C1832 C 0.51442 0.17581 0.41633 0.0
H1833 H 0.53074 0.13041 0.41904 0.0
C1834 C 0.49953 0.17421 0.42798 0.0
C1835 C 0.52583 0.15989 0.41299 0.0
C1836 C 0.54231 0.16104 0.40095 0.0
C1837 C 0.49583 0.1571 0.43658 0.0
C1838 C 0.50717 0.14114 0.43319 0.0
C1839 C 0.52198 0.14268 0.42142 0.0
C1840 C 0.50487 0.12321 0.44285 0.0
C1841 C 0.48019 0.15638 0.44961 0.0
C1842 C 0.51933 0.11745 0.45447 0.0
C1843 C 0.51723 0.10096 0.46421 0.0
C1844 C 0.50061 0.08988 0.46252 0.0
C1845 C 0.48626 0.09545 0.45057 0.0
C1846 C 0.48838 0.11204 0.44079 0.0
H1847 H 0.47518 0.17084 0.45317 0.0
H1848 H 0.46811 0.14808 0.44369 0.0
H1849 H 0.48493 0.14917 0.46188 0.0
H1850 H 0.53219 0.12586 0.45614 0.0
H1851 H 0.52874 0.09679 0.47298 0.0
H1852 H 0.56418 0.76716 0.19529 0.0
H1853 H 0.59472 0.76653 0.21117 0.0
H1854 H 0.62149 0.75016 0.16301 0.0
H1855 H 0.59104 0.7509 0.14693 0.0
H1856 H 0.62779 0.72635 0.1967 0.0
H1857 H 0.64203 0.80451 0.20371 0.0
H1858 H 0.61871 0.79578 0.20816 0.0
H1859 H 0.62707 0.79445 0.18608 0.0
C1860 C 0.57659 0.76358 0.18804 0.0
C1861 C 0.57524 0.75905 0.16987 0.0
C1862 C 0.59399 0.76326 0.19713 0.0
C1863 C 0.61024 0.75834 0.1882 0.0
C1864 C 0.60902 0.75402 0.17005 0.0
H1865 H 0.72786 0.76008 0.21741 0.0
H1866 H 0.69683 0.76163 0.20277 0.0
C1867 C 0.59166 0.75449 0.16091 0.0
C1868 C 0.62844 0.75704 0.19796 0.0
H1869 H 0.66386 0.78399 0.21748 0.0
C1870 C 0.6357 0.73891 0.2013 0.0
C1871 C 0.63859 0.77351 0.20384 0.0
C1872 C 0.63135 0.79323 0.20025 0.0
C1873 C 0.65298 0.73683 0.21048 0.0
C1874 C 0.66313 0.75329 0.21638 0.0
C1875 C 0.65589 0.77143 0.213 0.0
C1876 C 0.68175 0.75199 0.22539 0.0
C1877 C 0.66051 0.71711 0.21355 0.0
C1878 C 0.68341 0.74604 0.24295 0.0
C1879 C 0.70115 0.7452 0.25144 0.0
C1880 C 0.71743 0.75024 0.24241 0.0
C1881 C 0.71562 0.75604 0.22474 0.0
C1882 C 0.69792 0.757 0.21635 0.0
H1883 H 0.65196 0.70591 0.20638 0.0
H1884 H 0.67529 0.71628 0.20928 0.0
H1885 H 0.66049 0.71409 0.2279 0.0
H1886 H 0.67099 0.74222 0.25012 0.0
H1887 H 0.70209 0.74071 0.26505 0.0
H1888 H 0.00587 0.20374 0.60049 0.0
H1889 H 0.00588 0.17647 0.57984 0.0
H1890 H 0.02953 0.14131 0.62085 0.0
H1891 H 0.02965 0.16837 0.64157 0.0
H1892 H 0.04797 0.13957 0.58707 0.0
H1893 H 0.97023 0.12853 0.58153 0.0
H1894 H 0.97899 0.15233 0.57806 0.0
H1895 H 0.98154 0.14203 0.59952 0.0
C1896 C 0.011 0.19019 0.60515 0.0
C1897 C 0.0177 0.18823 0.62272 0.0
C1898 C 0.01096 0.17464 0.59334 0.0
C1899 C 0.0176 0.15691 0.5989 0.0
C1900 C 0.02434 0.15491 0.61636 0.0
H1901 H 0.00589 0.04285 0.55894 0.0
H1902 H 0.00666 0.07298 0.57553 0.0
C1903 C 0.02433 0.17039 0.62818 0.0
C1904 C 0.01769 0.14036 0.58657 0.0
H1905 H 0.98883 0.10809 0.56454 0.0
C1906 C 0.03507 0.13274 0.58201 0.0
C1907 C 0.0008 0.13149 0.58015 0.0
C1908 C 0.98178 0.13886 0.58511 0.0
C1909 C 0.03601 0.11627 0.5713 0.0
C1910 C 0.01912 0.10735 0.56497 0.0
C1911 C 0.00174 0.1151 0.56936 0.0
C1912 C 0.01913 0.08921 0.55475 0.0
C1913 C 0.055 0.10816 0.5673 0.0
C1914 C 0.02593 0.08842 0.53755 0.0
C1915 C 0.0255 0.07117 0.52796 0.0
C1916 C 0.01826 0.0545 0.53547 0.0
C1917 C 0.01159 0.05541 0.55276 0.0
C1918 C 0.01197 0.07261 0.56227 0.0
H1919 H 0.06652 0.115 0.57551 0.0
H1920 H 0.05506 0.09255 0.56956 0.0
H1921 H 0.05797 0.11046 0.55319 0.0
H1922 H 0.03133 0.10117 0.53149 0.0
H1923 H 0.03067 0.07095 0.51466 0.0
H1924 H 0.56077 0.32608 0.36536 0.0
H1925 H 0.58937 0.33407 0.34977 0.0
H1926 H 0.56591 0.30665 0.30242 0.0
H1927 H 0.5371 0.29929 0.3177 0.0
H1928 H 0.61157 0.30776 0.33876 0.0
H1929 H 0.59208 0.35087 0.28099 0.0
H1930 H 0.57651 0.34772 0.29917 0.0
H1931 H 0.57711 0.33015 0.28153 0.0
C1932 C 0.56155 0.32219 0.3515 0.0
C1933 C 0.54682 0.3119 0.34277 0.0
C1934 C 0.57785 0.32684 0.34259 0.0
C1935 C 0.57973 0.32116 0.32486 0.0
C1936 C 0.56463 0.31168 0.31592 0.0
H1937 H 0.66726 0.26802 0.27542 0.0
H1938 H 0.6386 0.28034 0.28786 0.0
C1939 C 0.54823 0.30727 0.32475 0.0
C1940 C 0.59837 0.32205 0.31669 0.0
H1941 H 0.61973 0.33057 0.27774 0.0
C1942 C 0.61345 0.31327 0.32562 0.0
C1943 C 0.60096 0.32934 0.29959 0.0
C1944 C 0.58582 0.34023 0.28989 0.0
C1945 C 0.63053 0.31028 0.31741 0.0
C1946 C 0.63246 0.31594 0.29975 0.0
C1947 C 0.618 0.32599 0.29122 0.0
C1948 C 0.64863 0.30957 0.28962 0.0
C1949 C 0.64611 0.30022 0.32737 0.0
C1950 C 0.6634 0.32216 0.28593 0.0
C1951 C 0.67984 0.31518 0.27863 0.0
C1952 C 0.68164 0.29554 0.27494 0.0
C1953 C 0.6663 0.28323 0.27784 0.0
C1954 C 0.64995 0.29021 0.28507 0.0
H1955 H 0.64423 0.30092 0.34188 0.0
H1956 H 0.64609 0.28497 0.32318 0.0
H1957 H 0.66007 0.30652 0.32443 0.0
H1958 H 0.66252 0.33717 0.28937 0.0
H1959 H 0.69133 0.32504 0.27633 0.0
H1960 H 0.51995 0.78544 0.08419 0.0
H1961 H 0.51769 0.81266 0.06443 0.0
H1962 H 0.49961 0.84814 0.10758 0.0
H1963 H 0.50179 0.82104 0.12746 0.0
H1964 H 0.47843 0.85149 0.07354 0.0
H1965 H 0.55629 0.85862 0.06876 0.0
H1966 H 0.54603 0.83538 0.06422 0.0
H1967 H 0.54544 0.84546 0.08613 0.0
C1968 C 0.51537 0.799 0.08946 0.0
C1969 C 0.51117 0.80114 0.10741 0.0
C1970 C 0.51414 0.81452 0.07816 0.0
C1971 C 0.50867 0.83238 0.08463 0.0
C1972 C 0.50389 0.83443 0.10239 0.0
H1973 H 0.52153 0.9473 0.05314 0.0
H1974 H 0.5209 0.91622 0.06713 0.0
C1975 C 0.50519 0.81896 0.11371 0.0
C1976 C 0.50859 0.84918 0.07312 0.0
H1977 H 0.53777 0.88059 0.05305 0.0
C1978 C 0.49135 0.85778 0.06888 0.0
C1979 C 0.52553 0.85734 0.06724 0.0
C1980 C 0.54443 0.84887 0.07186 0.0
C1981 C 0.49065 0.87456 0.05905 0.0
C1982 C 0.50761 0.88282 0.05336 0.0
C1983 C 0.52481 0.87406 0.05737 0.0
C1984 C 0.50796 0.9014 0.0445 0.0
C1985 C 0.47191 0.88377 0.05533 0.0
C1986 C 0.501 0.90324 0.02708 0.0
C1987 C 0.50141 0.92102 0.01896 0.0
C1988 C 0.50871 0.93718 0.02822 0.0
C1989 C 0.51574 0.93516 0.04565 0.0
C1990 C 0.51544 0.91742 0.05367 0.0
H1991 H 0.46032 0.87677 0.06244 0.0
H1992 H 0.4726 0.89911 0.05923 0.0
H1993 H 0.46849 0.88287 0.04093 0.0
H1994 H 0.49532 0.89094 0.01978 0.0
H1995 H 0.4959 0.92212 0.00551 0.0
H1996 H 0.94082 0.75881 0.87157 0.0
H1997 H 0.90853 0.74684 0.86786 0.0
H1998 H 0.90296 0.77554 0.81805 0.0
H1999 H 0.93524 0.7879 0.82174 0.0
H2000 H 0.87301 0.78119 0.84081 0.0
H2001 H 0.88998 0.70426 0.83325 0.0
H2002 H 0.89964 0.71641 0.85265 0.0
H2003 H 0.90746 0.72295 0.83123 0.0
C2004 C 0.93276 0.76259 0.85979 0.0
C2005 C 0.94061 0.77427 0.84688 0.0
C2006 C 0.91435 0.75562 0.85768 0.0
C2007 C 0.90355 0.76008 0.84258 0.0
C2008 C 0.91121 0.7719 0.82977 0.0
H2009 H 0.8129 0.72554 0.7809 0.0
H2010 H 0.84189 0.72532 0.79883 0.0
C2011 C 0.92961 0.77895 0.83189 0.0
C2012 C 0.88406 0.75281 0.84016 0.0
H2013 H 0.85799 0.71244 0.83094 0.0
C2014 C 0.86962 0.76615 0.8389 0.0
C2015 C 0.87985 0.73315 0.83777 0.0
C2016 C 0.89502 0.71831 0.83866 0.0
C2017 C 0.85113 0.76049 0.83433 0.0
C2018 C 0.84696 0.74086 0.83137 0.0
C2019 C 0.86125 0.72741 0.8335 0.0
C2020 C 0.82888 0.73474 0.82287 0.0
C2021 C 0.83655 0.77572 0.83147 0.0
C2022 C 0.81175 0.73856 0.83085 0.0
C2023 C 0.79511 0.73891 0.82055 0.0
C2024 C 0.79553 0.73534 0.80223 0.0
C2025 C 0.81222 0.72877 0.79491 0.0
C2026 C 0.82882 0.72853 0.80517 0.0
H2027 H 0.84286 0.79031 0.83185 0.0
H2028 H 0.829 0.77351 0.81851 0.0
H2029 H 0.82606 0.77494 0.84199 0.0
H2030 H 0.81154 0.74298 0.84462 0.0
H2031 H 0.78237 0.74371 0.82663 0.0
H2032 H 0.95246 0.99132 0.83835 0.0
H2033 H 0.96027 0.00501 0.86754 0.0
H2034 H 0.93338 0.05748 0.85275 0.0
H2035 H 0.92464 0.04343 0.82378 0.0
H2036 H 0.98098 0.03398 0.87812 0.0
H2037 H 0.90758 0.04739 0.89764 0.0
H2038 H 0.91294 0.034 0.87795 0.0
H2039 H 0.91425 0.05965 0.87815 0.0
C2040 C 0.94825 0.00579 0.8413 0.0
C2041 C 0.93782 0.01626 0.82888 0.0
C2042 C 0.9527 0.01361 0.85799 0.0
C2043 C 0.94707 0.03216 0.86248 0.0
C2044 C 0.93734 0.04295 0.8498 0.0
H2045 H -0.00055 0.06977 0.96346 0.0
H2046 H 0.98757 0.07332 0.93298 0.0
C2047 C 0.93251 0.03496 0.83321 0.0
C2048 C 0.95154 0.03993 0.88048 0.0
H2049 H 0.93175 0.05664 0.91815 0.0
C2050 C 0.97024 0.03905 0.88686 0.0
C2051 C 0.93745 0.04647 0.89185 0.0
C2052 C 0.91691 0.04679 0.88614 0.0
C2053 C 0.97516 0.04351 0.90451 0.0
C2054 C 0.96109 0.05009 0.91593 0.0
C2055 C 0.94253 0.05184 0.90932 0.0
C2056 C 0.96492 0.05262 0.9352 0.0
C2057 C -0.00488 0.03982 0.91094 0.0
C2058 C 0.95484 0.04147 0.94702 0.0
C2059 C 0.96111 0.04007 0.96459 0.0
C2060 C 0.97775 0.0495 0.97044 0.0
C2061 C 0.98668 0.06221 0.95914 0.0
C2062 C 0.98004 0.06406 0.9417 0.0
H2063 H 0.00273 0.03057 0.90157 0.0
H2064 H 0.00299 0.05355 0.91229 0.0
H2065 H -0.00467 0.03283 0.924 0.0
H2066 H 0.94301 0.03266 0.94235 0.0
H2067 H 0.95402 0.03015 0.97305 0.0
H2068 H 0.73812 0.11862 0.55694 0.0
H2069 H 0.7347 0.13674 0.58445 0.0
H2070 H 0.76278 0.1851 0.56204 0.0
H2071 H 0.76635 0.1671 0.53438 0.0
H2072 H 0.77611 0.17469 0.59681 0.0
H2073 H 0.69839 0.18204 0.59212 0.0
H2074 H 0.70665 0.15814 0.58904 0.0
H2075 H 0.71227 0.17604 0.57327 0.0
C2076 C 0.74361 0.1331 0.55782 0.0
C2077 C 0.75248 0.14143 0.54342 0.0
C2078 C 0.74151 0.14346 0.57352 0.0
C2079 C 0.74821 0.16231 0.57512 0.0
C2080 C 0.75738 0.17059 0.56095 0.0
H2081 H 0.72999 0.24201 0.6628 0.0
H2082 H 0.7311 0.22719 0.63324 0.0
C2083 C 0.75942 0.16027 0.54519 0.0
C2084 C 0.74614 0.17315 0.59182 0.0
H2085 H 0.71343 0.19048 0.61979 0.0
C2086 C 0.76244 0.17829 0.60179 0.0
C2087 C 0.72825 0.17795 0.59813 0.0
C2088 C 0.71037 0.17343 0.58754 0.0
C2089 C 0.76129 0.18758 0.61825 0.0
C2090 C 0.74339 0.19168 0.62488 0.0
C2091 C 0.72711 0.18713 0.61467 0.0
C2092 C 0.74142 0.20021 0.64267 0.0
C2093 C 0.77922 0.19287 0.62849 0.0
C2094 C 0.74639 0.18971 0.65765 0.0
C2095 C 0.74575 0.19807 0.67446 0.0
C2096 C 0.74011 0.21709 0.67658 0.0
C2097 C 0.73453 0.22738 0.66155 0.0
C2098 C 0.7351 0.21895 0.6447 0.0
H2099 H 0.79168 0.19253 0.61999 0.0
H2100 H 0.77822 0.20732 0.63458 0.0
H2101 H 0.78149 0.18256 0.63929 0.0
H2102 H 0.75114 0.17516 0.65629 0.0
H2103 H 0.75037 0.18984 0.68573 0.0
H2104 H 0.6216 0.96992 0.33642 0.0
H2105 H 0.60828 0.96047 0.36447 0.0
H2106 H 0.55802 0.99192 0.35184 0.0
H2107 H 0.57096 0.00113 0.3238 0.0
H2108 H 0.59845 0.98428 0.39117 0.0
H2109 H 0.536 0.94201 0.36818 0.0
H2110 H 0.55501 0.9478 0.35381 0.0
H2111 H 0.53671 0.96476 0.35775 0.0
C2112 C 0.60762 0.97465 0.33954 0.0
C2113 C 0.59734 0.98628 0.32786 0.0
C2114 C 0.60003 0.96919 0.35554 0.0
C2115 C 0.58201 0.97516 0.36005 0.0
C2116 C 0.57172 0.98668 0.34839 0.0
H2117 H 0.51588 0.00109 0.44538 0.0
H2118 H 0.53009 -0.0063 0.41717 0.0
C2119 C 0.57924 0.9921 0.33242 0.0
C2120 C 0.57451 0.97096 0.3776 0.0
H2121 H 0.53462 0.95616 0.39762 0.0
C2122 C 0.58471 0.97768 0.39266 0.0
C2123 C 0.55662 0.96227 0.37948 0.0
C2124 C 0.54556 0.95362 0.36393 0.0
C2125 C 0.57688 0.97723 0.40942 0.0
C2126 C 0.55849 0.96972 0.41109 0.0
C2127 C 0.54871 0.96198 0.39622 0.0
C2128 C 0.54841 0.972 0.4277 0.0
C2129 C 0.58781 0.98589 0.42506 0.0
C2130 C 0.5537 0.96179 0.44279 0.0
C2131 C 0.54555 0.96593 0.45897 0.0
C2132 C 0.53213 0.98042 0.46023 0.0
C2133 C 0.52627 0.98994 0.44486 0.0
C2134 C 0.53431 0.98571 0.42873 0.0
H2135 H 0.60122 0.99275 0.42119 0.0
H2136 H 0.57919 -0.00328 0.43183 0.0
H2137 H 0.59117 0.9746 0.43472 0.0
H2138 H 0.56451 0.95108 0.44215 0.0
H2139 H 0.55033 0.95834 0.47058 0.0
H2140 H 0.78304 0.85157 0.08095 0.0
H2141 H 0.80196 0.82874 0.09713 0.0
H2142 H 0.78607 0.78469 0.05884 0.0
H2143 H 0.76675 0.80764 0.0425 0.0
H2144 H 0.7781 0.775 0.09174 0.0
H2145 H 0.85116 0.80149 0.09324 0.0
H2146 H 0.83597 0.82103 0.09777 0.0
H2147 H 0.83401 0.80876 0.07662 0.0
C2148 C 0.7838 0.83712 0.07575 0.0
C2149 C 0.77324 0.83133 0.06058 0.0
C2150 C 0.79491 0.82413 0.08487 0.0
C2151 C 0.79579 0.8051 0.07898 0.0
C2152 C 0.78582 0.7994 0.06343 0.0
H2153 H 0.81275 0.73367 0.17146 0.0
H2154 H 0.81719 0.73855 0.13984 0.0
C2155 C 0.7747 0.81247 0.05421 0.0
C2156 C 0.80417 0.79091 0.091 0.0
H2157 H 0.84028 0.78783 0.12146 0.0
C2158 C 0.79201 0.77716 0.09782 0.0
C2159 C 0.82241 0.79355 0.09872 0.0
C2160 C 0.83666 0.80689 0.09102 0.0
C2161 C 0.79652 0.76806 0.1137 0.0
C2162 C 0.81378 0.7727 0.12271 0.0
C2163 C 0.82695 0.78451 0.11463 0.0
C2164 C 0.81615 0.76932 0.14184 0.0
C2165 C 0.78185 0.75533 0.12169 0.0
C2166 C 0.81527 0.78503 0.15349 0.0
C2167 C 0.81276 0.78232 0.17145 0.0
C2168 C 0.81107 0.76382 0.17806 0.0
C2169 C 0.81362 0.74809 0.16662 0.0
C2170 C 0.81623 0.75083 0.14861 0.0
H2171 H 0.76863 0.75436 0.11347 0.0
H2172 H 0.78746 0.74073 0.12309 0.0
H2173 H 0.7784 0.76074 0.13506 0.0
H2174 H 0.81512 0.79943 0.1485 0.0
H2175 H 0.81075 0.79472 0.17987 0.0
H2176 H 0.94822 0.98784 0.73691 0.0
H2177 H 0.96069 0.97867 0.70828 0.0
H2178 H 0.90479 0.9806 0.6845 0.0
H2179 H 0.89212 0.98918 0.7132 0.0
H2180 H 0.92416 0.94964 0.67301 0.0
H2181 H 0.96783 0.01553 0.66858 0.0
H2182 H 0.97301 0.00205 0.68803 0.0
H2183 H 0.95025 0.01268 0.68503 0.0
C2184 C 0.9386 0.98632 0.72557 0.0
C2185 C 0.91924 0.98941 0.72722 0.0
C2186 C 0.94574 0.98114 0.70923 0.0
C2187 C 0.9337 0.97932 0.69423 0.0
C2188 C 0.91431 0.982 0.69592 0.0
H2189 H 0.94663 0.97254 0.58244 0.0
H2190 H 0.93429 0.97065 0.61213 0.0
C2191 C 0.90712 0.98696 0.7123 0.0
C2192 C 0.94133 0.97506 0.67667 0.0
H2193 H 0.97163 0.99194 0.64636 0.0
C2194 C 0.93455 0.95886 0.66717 0.0
C2195 C 0.9548 0.98721 0.66906 0.0
C2196 C 0.96177 0.00544 0.67811 0.0
C2197 C 0.94098 0.95446 0.65025 0.0
C2198 C 0.95449 0.96656 0.64278 0.0
C2199 C 0.9614 0.98261 0.65231 0.0
C2200 C 0.96102 0.96364 0.62465 0.0
C2201 C 0.93339 0.93696 0.64047 0.0
C2202 C 0.98002 0.95984 0.6219 0.0
C2203 C 0.9871 0.96076 0.60495 0.0
C2204 C 0.97533 0.96578 0.59053 0.0
C2205 C 0.95603 0.96843 0.59321 0.0
C2206 C 0.94894 0.96739 0.61017 0.0
H2207 H 0.92582 0.92719 0.64931 0.0
H2208 H 0.92341 0.94137 0.62978 0.0
H2209 H 0.94498 0.92909 0.63423 0.0
H2210 H 0.98952 0.95698 0.63299 0.0
H2211 H 0.00196 0.95833 0.60326 0.0
H2212 H 0.76798 0.19568 0.46038 0.0
H2213 H 0.77073 0.21914 0.43684 0.0
H2214 H 0.78091 0.17381 0.39933 0.0
H2215 H 0.77826 0.15033 0.42262 0.0
H2216 H 0.8034 0.22274 0.40845 0.0
H2217 H 0.73042 0.20555 0.38404 0.0
H2218 H 0.7383 0.20188 0.40665 0.0
H2219 H 0.74489 0.18549 0.38954 0.0
C2220 C 0.77104 0.19075 0.44716 0.0
C2221 C 0.77276 0.17115 0.44331 0.0
C2222 C 0.77264 0.20415 0.43378 0.0
C2223 C 0.77591 0.1981 0.41643 0.0
C2224 C 0.77833 0.17867 0.41269 0.0
H2225 H 0.80451 0.23074 0.31593 0.0
H2226 H 0.80484 0.22412 0.34737 0.0
C2227 C 0.77679 0.1653 0.42601 0.0
C2228 C 0.77562 0.2117 0.4018 0.0
H2229 H 0.75007 0.22217 0.36452 0.0
C2230 C 0.79164 0.22298 0.39897 0.0
C2231 C 0.76011 0.21215 0.38972 0.0
C2232 C 0.74235 0.20075 0.39262 0.0
C2233 C 0.793 0.23382 0.38361 0.0
C2234 C 0.77807 0.23303 0.37078 0.0
C2235 C 0.76155 0.22276 0.37431 0.0
C2236 C 0.77999 0.24052 0.35274 0.0
C2237 C 0.81058 0.24562 0.38109 0.0
C2238 C 0.766 0.25211 0.34525 0.0
C2239 C 0.76561 0.25572 0.32714 0.0
C2240 C 0.77916 0.24768 0.31622 0.0
C2241 C 0.79383 0.23712 0.32396 0.0
C2242 C 0.79417 0.23348 0.34202 0.0
H2243 H 0.81693 0.25049 0.39401 0.0
H2244 H 0.82112 0.23675 0.37438 0.0
H2245 H 0.80763 0.25828 0.37288 0.0
H2246 H 0.75485 0.25758 0.35328 0.0
H2247 H 0.75416 0.26397 0.32159 0.0
H2248 H 0.59582 0.98557 0.23352 0.0
H2249 H 0.58303 0.99168 0.20385 0.0
H2250 H 0.637 0.01392 0.18886 0.0
H2251 H 0.65003 0.00765 0.2185 0.0
H2252 H 0.58183 0.0277 0.18705 0.0
H2253 H 0.62258 0.97397 0.14972 0.0
H2254 H 0.62045 0.97325 0.17341 0.0
H2255 H 0.63601 0.99032 0.16385 0.0
C2256 C 0.60502 0.9916 0.22388 0.0
C2257 C 0.62393 -0.00389 0.22831 0.0
C2258 C 0.59769 -0.00485 0.20698 0.0
C2259 C 0.60912 0.00316 0.19421 0.0
C2260 C 0.62805 0.00752 0.1985 0.0
H2261 H 0.55987 0.04417 0.0937 0.0
H2262 H 0.57817 0.04349 0.12175 0.0
C2263 C 0.63542 0.00395 0.21543 0.0
C2264 C 0.60095 0.00718 0.17652 0.0
H2265 H 0.60142 0.99278 0.13329 0.0
C2266 C 0.58619 0.02023 0.17523 0.0
C2267 C 0.60674 -0.00267 0.16123 0.0
C2268 C 0.62222 0.98282 0.16202 0.0
C2269 C 0.57664 0.0233 0.15907 0.0
C2270 C 0.5822 0.01319 0.14385 0.0
C2271 C 0.59732 0.00056 0.14503 0.0
C2272 C 0.57132 0.01401 0.12697 0.0
C2273 C 0.56018 0.03667 0.15851 0.0
C2274 C 0.56164 -0.00238 0.12066 0.0
C2275 C 0.55133 -0.00207 0.10473 0.0
C2276 C 0.55049 0.01466 0.09477 0.0
C2277 C 0.56026 0.03109 0.1011 0.0
C2278 C 0.57061 0.03077 0.11712 0.0
H2279 H 0.55591 0.0411 0.17195 0.0
H2280 H 0.56407 0.04966 0.15122 0.0
H2281 H 0.54788 0.02983 0.1514 0.0
H2282 H 0.56211 0.98454 0.12807 0.0
H2283 H 0.54434 0.9849 0.10004 0.0
H2284 H 0.73699 0.84688 0.97823 0.0
H2285 H 0.72859 0.83071 0.95027 0.0
H2286 H 0.68408 0.87081 0.94081 0.0
H2287 H 0.69245 0.88729 0.9688 0.0
H2288 H 0.69206 0.81407 0.94127 0.0
H2289 H 0.71408 0.87018 0.89455 0.0
H2290 H 0.72241 0.87012 0.91733 0.0
H2291 H 0.69878 0.87717 0.91194 0.0
C2292 C 0.72554 0.85244 0.97015 0.0
C2293 C 0.7154 0.8684 0.97576 0.0
C2294 C 0.72072 0.84312 0.95422 0.0
C2295 C 0.70574 0.84959 0.94354 0.0
C2296 C 0.6958 0.86573 0.94884 0.0
H2297 H 0.68139 0.80331 0.83718 0.0
H2298 H 0.67508 0.81953 0.86524 0.0
C2299 C 0.70063 0.87512 0.96481 0.0
C2300 C 0.70047 0.839 0.92708 0.0
H2301 H 0.70294 0.84111 0.88228 0.0
C2302 C 0.69419 0.82003 0.92833 0.0
C2303 C 0.70308 0.84693 0.91029 0.0
C2304 C 0.71005 0.86718 0.90831 0.0
C2305 C 0.69118 0.80848 0.91319 0.0
C2306 C 0.69485 0.81606 0.89646 0.0
C2307 C 0.70011 0.83535 0.89515 0.0
C2308 C 0.69577 0.80383 0.88044 0.0
C2309 C 0.6845 0.78815 0.91527 0.0
C2310 C 0.70913 0.78931 0.87984 0.0
C2311 C 0.71285 0.78013 0.86387 0.0
C2312 C 0.70335 0.78542 0.84818 0.0
C2313 C 0.68909 0.7991 0.84903 0.0
C2314 C 0.68541 0.80832 0.86503 0.0
H2315 H 0.67627 0.78658 0.92742 0.0
H2316 H 0.67567 0.7832 0.90368 0.0
H2317 H 0.6969 0.77876 0.91649 0.0
H2318 H 0.71761 0.78594 0.89149 0.0
H2319 H 0.72413 0.76991 0.86365 0.0
H2320 H 0.76385 0.9548 0.02241 0.0
H2321 H 0.79327 0.97302 0.02742 0.0
H2322 H 0.81721 0.92572 0.05561 0.0
H2323 H 0.78825 0.90727 0.05023 0.0
H2324 H 0.81241 0.98444 0.05804 0.0
H2325 H 0.85584 0.93533 0.01874 0.0
H2326 H 0.83047 0.93405 0.01808 0.0
H2327 H 0.84374 0.92344 0.03593 0.0
C2328 C 0.77544 0.94827 0.02959 0.0
C2329 C 0.77384 0.92951 0.0357 0.0
C2330 C 0.79218 0.9587 0.03249 0.0
C2331 C 0.80749 0.95057 0.04161 0.0
C2332 C 0.80572 0.93207 0.04815 0.0
H2333 H 0.92121 0.98598 0.07032 0.0
H2334 H 0.88908 0.97328 0.07195 0.0
C2335 C 0.78914 0.92156 0.04507 0.0
C2336 C 0.82545 0.96126 0.04416 0.0
H2337 H 0.87237 0.95876 0.03641 0.0
C2338 C 0.82552 0.97889 0.05325 0.0
C2339 C 0.84248 0.954 0.0378 0.0
C2340 C 0.84315 0.93577 0.02694 0.0
C2341 C 0.84234 0.98931 0.05641 0.0
C2342 C 0.85932 0.98179 0.05038 0.0
C2343 C 0.85925 0.96425 0.04125 0.0
C2344 C 0.87738 0.99223 0.05237 0.0
C2345 C 0.84198 0.00817 0.06624 0.0
C2346 C 0.88117 0.00738 0.04115 0.0
C2347 C 0.89953 0.01445 0.03995 0.0
C2348 C 0.91435 0.00642 0.04997 0.0
C2349 C 0.91016 0.99222 0.06221 0.0
C2350 C 0.89182 0.98506 0.06328 0.0
H2351 H 0.82812 0.01077 0.07218 0.0
H2352 H 0.85313 0.00871 0.07686 0.0
H2353 H 0.84495 0.01985 0.05697 0.0
H2354 H 0.87019 0.01285 0.03245 0.0
H2355 H 0.90225 0.02521 0.03023 0.0
H2356 H 0.30439 0.56113 0.01341 0.0
H2357 H 0.3361 0.54882 0.01063 0.0
H2358 H 0.34845 0.59232 0.97292 0.0
H2359 H 0.31676 0.60504 0.97585 0.0
H2360 H 0.35266 0.5347 0.98049 0.0
H2361 H 0.39256 0.59751 0.00869 0.0
H2362 H 0.3675 0.59451 0.01104 0.0
H2363 H 0.37661 0.6024 0.9905 0.0
C2364 C 0.31384 0.56819 0.00459 0.0
C2365 C 0.30805 0.58413 -0.0051 0.0
C2366 C 0.33196 0.5611 0.00299 0.0
C2367 C 0.34465 0.56977 0.9917 0.0
C2368 C 0.33896 0.58564 0.98195 0.0
H2369 H 0.46222 0.53905 0.97607 0.0
H2370 H 0.43084 0.55248 0.97125 0.0
C2371 C 0.32083 0.59284 0.9836 0.0
C2372 C 0.36371 0.56184 0.99006 0.0
H2373 H 0.41033 0.57161 -0.00143 0.0
C2374 C 0.36529 0.5428 0.98434 0.0
C2375 C 0.38014 0.5725 -0.00498 0.0
C2376 C 0.37922 0.59281 0.0018 0.0
C2377 C 0.38285 0.53398 0.98378 0.0
C2378 C 0.39918 0.54446 0.98924 0.0
C2379 C 0.39772 0.56368 -0.00564 0.0
C2380 C 0.41773 0.53534 0.99106 0.0
C2381 C 0.3838 0.51349 0.97753 0.0
C2382 C 0.42064 0.52127 0.00376 0.0
C2383 C 0.43849 0.51366 0.00661 0.0
C2384 C 0.45376 0.52001 -0.0032 0.0
C2385 C 0.45071 0.53382 0.98379 0.0
C2386 C 0.43284 0.54153 0.98103 0.0
H2387 H 0.37107 0.50916 0.96946 0.0
H2388 H 0.39646 0.51113 0.96959 0.0
H2389 H 0.38471 0.50411 0.98918 0.0
H2390 H 0.40919 0.51656 0.01182 0.0
H2391 H 0.44037 0.50307 0.01674 0.0
H2392 H 0.15078 0.58741 0.7844 0.0
H2393 H 0.17268 0.61451 0.78441 0.0
H2394 H 0.21854 0.57769 0.7989 0.0
H2395 H 0.19675 0.55034 0.79885 0.0
H2396 H 0.1999 0.62973 0.81115 0.0
H2397 H 0.23228 0.60099 0.75025 0.0
H2398 H 0.20984 0.59243 0.75764 0.0
H2399 H 0.23119 0.58548 0.7689 0.0
C2400 C 0.16546 0.58507 0.78785 0.0
C2401 C 0.17206 0.56667 0.7914 0.0
C2402 C 0.17794 0.60059 0.78788 0.0
C2403 C 0.1972 0.59796 0.79137 0.0
C2404 C 0.20372 0.57987 0.79594 0.0
H2405 H 0.28587 0.68281 0.77245 0.0
H2406 H 0.26979 0.653 0.7799 0.0
C2407 C 0.19123 0.56431 0.79598 0.0
C2408 C 0.21046 0.614 0.78899 0.0
H2409 H 0.24273 0.63116 0.76061 0.0
C2410 C 0.20944 0.63 0.80024 0.0
C2411 C 0.22287 0.61419 0.77475 0.0
C2412 C 0.22414 0.59744 0.76208 0.0
C2413 C 0.22025 0.64645 0.79737 0.0
C2414 C 0.23203 0.64696 0.78265 0.0
C2415 C 0.23362 0.63069 0.77183 0.0
C2416 C 0.24181 0.66467 0.77761 0.0
C2417 C 0.21886 0.66319 0.81004 0.0
C2418 C 0.23132 0.68081 0.77328 0.0
C2419 C 0.24039 0.69777 0.76901 0.0
C2420 C 0.26015 0.69885 0.76885 0.0
C2421 C 0.27063 0.68242 0.77248 0.0
C2422 C 0.2615 0.66542 0.77681 0.0
H2423 H 0.21405 0.65862 0.82315 0.0
H2424 H 0.23261 0.67078 0.81188 0.0
H2425 H 0.20843 0.67337 0.80463 0.0
H2426 H 0.21607 0.68033 0.77335 0.0
H2427 H 0.2319 0.71012 0.76613 0.0
H2428 H 0.18838 0.4246 0.56167 0.0
H2429 H 0.15885 0.43598 0.54857 0.0
H2430 H 0.14811 0.38065 0.52437 0.0
H2431 H 0.17756 0.36905 0.5376 0.0
H2432 H 0.15692 0.43327 0.50936 0.0
H2433 H 0.09549 0.39982 0.54165 0.0
H2434 H 0.11795 0.4032 0.55322 0.0
H2435 H 0.11523 0.3852 0.53623 0.0
C2436 C 0.17932 0.41462 0.55422 0.0
C2437 C 0.18532 0.39602 0.55053 0.0
C2438 C 0.16256 0.42116 0.54665 0.0
C2439 C 0.15152 0.40918 0.53539 0.0
C2440 C 0.15645 0.39004 0.53312 0.0
H2441 H 0.05004 0.4504 0.48187 0.0
H2442 H 0.07763 0.43003 0.48475 0.0
C2443 C 0.17323 0.38342 0.54078 0.0
C2444 C 0.13661 0.4176 0.52416 0.0
H2445 H 0.0891 0.422 0.5194 0.0
C2446 C 0.14206 0.43066 0.51137 0.0
C2447 C 0.11736 0.41378 0.52661 0.0
C2448 C 0.11099 0.3998 0.54019 0.0
C2449 C 0.12866 0.44086 0.50159 0.0
C2450 C 0.1094 0.43805 0.50489 0.0
C2451 C 0.10392 0.42406 0.51686 0.0
C2452 C 0.09499 0.45145 0.4985 0.0
C2453 C 0.13524 0.455 0.48823 0.0
C2454 C 0.09603 0.47049 0.50449 0.0
C2455 C 0.08034 0.48209 0.50293 0.0
C2456 C 0.06338 0.47479 0.4954 0.0
C2457 C 0.06298 0.45642 0.48766 0.0
C2458 C 0.07868 0.44472 0.48939 0.0
H2459 H 0.14896 0.45078 0.48282 0.0
H2460 H 0.12478 0.45635 0.47712 0.0
H2461 H 0.13723 0.46919 0.49478 0.0
H2462 H 0.10839 0.47588 0.51179 0.0
H2463 H 0.081 0.4962 0.50899 0.0
H2464 H 0.8511 0.96264 0.7982 0.0
H2465 H 0.82912 0.9361 0.80246 0.0
H2466 H 0.87435 0.89626 0.79679 0.0
H2467 H 0.89643 0.92258 0.79281 0.0
H2468 H 0.82171 0.90912 0.77689 0.0
H2469 H 0.84671 0.87426 0.8381 0.0
H2470 H 0.85374 0.89825 0.83263 0.0
H2471 H 0.86543 0.87807 0.82314 0.0
C2472 C 0.85645 0.94825 0.79823 0.0
C2473 C 0.8755 0.94472 0.79503 0.0
C2474 C 0.84388 0.93312 0.8007 0.0
C2475 C 0.85016 0.91425 0.80015 0.0
C2476 C 0.86928 0.91073 0.79768 0.0
H2477 H 0.80313 0.81157 0.75925 0.0
H2478 H 0.81954 0.84159 0.7667 0.0
C2479 C 0.88186 0.92582 0.79522 0.0
C2480 C 0.83651 0.89816 0.79977 0.0
H2481 H 0.82808 0.85451 0.81739 0.0
C2482 C 0.82284 0.89736 0.78598 0.0
C2483 C 0.83793 0.88291 0.8117 0.0
C2484 C 0.85163 0.88348 0.82733 0.0
C2485 C 0.81132 0.88119 0.78316 0.0
C2486 C 0.81369 0.86541 0.79431 0.0
C2487 C 0.82652 0.86661 0.80875 0.0
C2488 C 0.80395 0.84711 0.7903 0.0
C2489 C 0.79706 0.88084 0.76795 0.0
C2490 C 0.79003 0.84022 0.80133 0.0
C2491 C 0.78055 0.82308 0.79709 0.0
C2492 C 0.78506 0.81254 0.78184 0.0
C2493 C 0.7993 0.81937 0.77104 0.0
C2494 C 0.80865 0.83652 0.77524 0.0
H2495 H 0.79376 0.89545 0.76344 0.0
H2496 H 0.80284 0.87275 0.75666 0.0
H2497 H 0.7838 0.87362 0.77172 0.0
H2498 H 0.78633 0.84823 0.81306 0.0
H2499 H 0.76971 0.81812 0.80571 0.0
H2500 H 0.68897 0.12776 0.4798 0.0
H2501 H 0.65962 0.11112 0.48671 0.0
H2502 H 0.68766 0.05712 0.48317 0.0
H2503 H 0.71701 0.07353 0.47622 0.0
H2504 H 0.63981 0.07888 0.46658 0.0
H2505 H 0.66555 0.06116 0.5345 0.0
H2506 H 0.67591 0.08009 0.52195 0.0
H2507 H 0.68086 0.05567 0.51667 0.0
C2508 C 0.68882 0.11234 0.48027 0.0
C2509 C 0.70531 0.10196 0.4776 0.0
C2510 C 0.67209 0.10288 0.48425 0.0
C2511 C 0.67168 0.08298 0.48572 0.0
C2512 C 0.68786 0.07253 0.48232 0.0
H2513 H 0.58541 0.0018 0.5159 0.0
H2514 H 0.61547 0.01766 0.50981 0.0
C2515 C 0.70456 0.08193 0.47827 0.0
C2516 C 0.65442 0.07314 0.49119 0.0
H2517 H 0.63561 0.04895 0.52534 0.0
C2518 C 0.63882 0.07235 0.47942 0.0
C2519 C 0.65337 0.06459 0.50791 0.0
C2520 C 0.66974 0.06545 0.5211 0.0
C2521 C 0.62212 0.06302 0.48389 0.0
C2522 C 0.62092 0.05473 0.50075 0.0
C2523 C 0.6366 0.05538 0.51246 0.0
C2524 C 0.60335 0.04557 0.50646 0.0
C2525 C 0.60602 0.06184 0.47039 0.0
C2526 C 0.58687 0.05623 0.50739 0.0
C2527 C 0.56978 0.04726 0.51077 0.0
C2528 C 0.56893 0.02749 0.51351 0.0
C2529 C 0.58567 0.01705 0.51384 0.0
C2530 C 0.6028 0.02606 0.5103 0.0
H2531 H 0.61092 0.06412 0.45678 0.0
H2532 H 0.59868 0.04778 0.47073 0.0
H2533 H 0.5957 0.07309 0.47338 0.0
H2534 H 0.58712 0.07141 0.50494 0.0
H2535 H 0.55713 0.05572 0.51066 0.0
H2536 H 0.21491 0.47122 0.78779 0.0
H2537 H 0.2356 0.44375 0.78475 0.0
H2538 H 0.18724 0.40589 0.78405 0.0
H2539 H 0.16648 0.43317 0.78684 0.0
H2540 H 0.24071 0.41087 0.8053 0.0
H2541 H 0.21329 0.39283 0.73772 0.0
H2542 H 0.209 0.41546 0.74847 0.0
H2543 H 0.19496 0.39479 0.7534 0.0
C2544 C 0.20871 0.45702 0.78714 0.0
C2545 C 0.18906 0.45434 0.78737 0.0
C2546 C 0.22054 0.44138 0.78539 0.0
C2547 C 0.21288 0.42288 0.78379 0.0
C2548 C 0.19336 0.42012 0.78485 0.0
H2549 H 0.25082 0.31133 0.79871 0.0
H2550 H 0.24186 0.34455 0.80156 0.0
C2551 C 0.18154 0.43571 0.78655 0.0
C2552 C 0.2251 0.40636 0.7807 0.0
H2553 H 0.23039 0.36837 0.75273 0.0
C2554 C 0.23869 0.40169 0.7937 0.0
C2555 C 0.22277 0.39473 0.76533 0.0
C2556 C 0.20936 0.3998 0.75034 0.0
C2557 C 0.24916 0.38495 0.79225 0.0
C2558 C 0.24566 0.37249 0.77758 0.0
C2559 C 0.23294 0.37782 0.76406 0.0
C2560 C 0.25347 0.35305 0.77675 0.0
C2561 C 0.26366 0.38064 0.80656 0.0
C2562 C 0.26284 0.34668 0.76174 0.0
C2563 C 0.26779 0.32753 0.75993 0.0
C2564 C 0.26331 0.31444 0.77307 0.0
C2565 C 0.2545 0.32103 0.78834 0.0
C2566 C 0.24953 0.3401 0.7901 0.0
H2567 H 0.26943 0.39398 0.8129 0.0
H2568 H 0.25691 0.37221 0.81697 0.0
H2569 H 0.27548 0.3723 0.80129 0.0
H2570 H 0.26587 0.35643 0.75121 0.0
H2571 H 0.27459 0.32289 0.74802 0.0
H2572 H 0.36805 0.57442 0.27601 0.0
H2573 H 0.34906 0.60304 0.27553 0.0
H2574 H 0.29833 0.56851 0.27361 0.0
H2575 H 0.31737 0.53949 0.27425 0.0
H2576 H 0.32235 0.61144 0.24769 0.0
H2577 H 0.29075 0.6091 0.3141 0.0
H2578 H 0.31157 0.59588 0.3089 0.0
H2579 H 0.28896 0.58797 0.30025 0.0
C2580 C 0.35286 0.57283 0.27561 0.0
C2581 C 0.34419 0.55469 0.27511 0.0
C2582 C 0.34204 0.58921 0.27534 0.0
C2583 C 0.32235 0.58784 0.27461 0.0
C2584 C 0.31354 0.5698 0.27438 0.0
H2585 H 0.26155 0.69162 0.24692 0.0
H2586 H 0.26955 0.6579 0.24872 0.0
C2587 C 0.32441 0.55329 0.27467 0.0
C2588 C 0.31138 0.6055 0.27322 0.0
H2589 H 0.28424 0.63593 0.29675 0.0
C2590 C 0.31378 0.61672 0.25828 0.0
C2591 C 0.30037 0.61227 0.28715 0.0
C2592 C 0.29775 0.6008 0.3036 0.0
C2593 C 0.30605 0.63493 0.25716 0.0
C2594 C 0.29532 0.64191 0.27125 0.0
C2595 C 0.29239 0.63043 0.28596 0.0
C2596 C 0.28847 0.6617 0.2715 0.0
C2597 C 0.31025 0.64692 0.24133 0.0
C2598 C 0.29589 0.67481 0.28416 0.0
C2599 C 0.29128 0.69406 0.28325 0.0
C2600 C 0.27919 0.70049 0.26962 0.0
C2601 C 0.27111 0.68715 0.25744 0.0
C2602 C 0.27565 0.66789 0.25843 0.0
H2603 H 0.3218 0.64091 0.23349 0.0
H2604 H 0.29747 0.64756 0.23257 0.0
H2605 H 0.31425 0.66172 0.24551 0.0
H2606 H 0.3058 0.67026 0.29436 0.0
H2607 H 0.29763 0.70397 0.29289 0.0
H2608 H 0.5856 0.67524 0.6232 0.0
H2609 H 0.58698 0.65389 0.59733 0.0
H2610 H 0.53092 0.67042 0.58089 0.0
H2611 H 0.52965 0.69206 0.6062 0.0
H2612 H 0.56524 0.62387 0.59085 0.0
H2613 H 0.5561 0.67199 0.53453 0.0
H2614 H 0.56209 0.68077 0.55659 0.0
H2615 H 0.53787 0.67593 0.54993 0.0
C2616 C 0.57368 0.67449 0.61392 0.0
C2617 C 0.55751 0.68532 0.61675 0.0
C2618 C 0.57454 0.66238 0.59912 0.0
C2619 C 0.55924 0.66091 0.58695 0.0
C2620 C 0.54317 0.67182 0.58972 0.0
H2621 H 0.50211 0.57746 0.52838 0.0
H2622 H 0.51456 0.60644 0.54311 0.0
C2623 C 0.54237 0.68402 0.60436 0.0
C2624 C 0.55889 0.64633 0.5726 0.0
H2625 H 0.54484 0.63905 0.52943 0.0
C2626 C 0.56135 0.62724 0.5773 0.0
C2627 C 0.5539 0.65074 0.55489 0.0
C2628 C 0.55256 0.67102 0.54868 0.0
C2629 C 0.55747 0.61238 0.56511 0.0
C2630 C 0.55096 0.61679 0.54787 0.0
C2631 C 0.54968 0.63583 0.54276 0.0
C2632 C 0.54334 0.60167 0.5359 0.0
C2633 C 0.55918 0.59199 0.57098 0.0
C2634 C 0.55542 0.58991 0.52652 0.0
C2635 C 0.54836 0.57336 0.51804 0.0
C2636 C 0.52918 0.56833 0.51905 0.0
C2637 C 0.51696 0.58088 0.52749 0.0
C2638 C 0.52401 0.59746 0.53584 0.0
H2639 H 0.5645 0.591 0.58489 0.0
H2640 H 0.54522 0.58469 0.56972 0.0
H2641 H 0.56891 0.58423 0.56232 0.0
H2642 H 0.5704 0.59301 0.52655 0.0
H2643 H 0.55813 0.56399 0.5116 0.0
H2644 H 0.59871 0.24199 0.88768 0.0
H2645 H 0.62809 0.24045 0.87155 0.0
H2646 H 0.59632 0.22893 0.82298 0.0
H2647 H 0.56701 0.23068 0.83885 0.0
H2648 H 0.64287 0.21079 0.84963 0.0
H2649 H 0.62794 0.27679 0.81239 0.0
H2650 H 0.61524 0.27029 0.83172 0.0
H2651 H 0.60958 0.25895 0.81072 0.0
C2652 C 0.59801 0.23905 0.87358 0.0
C2653 C 0.58057 0.23668 0.86449 0.0
C2654 C 0.61477 0.23815 0.86441 0.0
C2655 C 0.61429 0.23491 0.84606 0.0
C2656 C 0.59694 0.23182 0.83709 0.0
H2657 H 0.6997 0.23605 0.76628 0.0
H2658 H 0.67044 0.23149 0.78206 0.0
C2659 C 0.58022 0.23277 0.8462 0.0
C2660 C 0.63186 0.23522 0.83613 0.0
H2661 H 0.65452 0.25924 0.80405 0.0
C2662 C 0.64548 0.22138 0.83968 0.0
C2663 C 0.63513 0.24906 0.82317 0.0
C2664 C 0.6213 0.26473 0.81933 0.0
C2665 C 0.66227 0.2209 0.83041 0.0
C2666 C 0.66554 0.23478 0.81748 0.0
C2667 C 0.65187 0.24854 0.81389 0.0
C2668 C 0.68342 0.23594 0.80807 0.0
C2669 C 0.67624 0.20541 0.83435 0.0
C2670 C 0.70032 0.23996 0.81751 0.0
C2671 C 0.717 0.24261 0.80858 0.0
C2672 C 0.71705 0.24139 0.79 0.0
C2673 C 0.70013 0.23706 0.78058 0.0
C2674 C 0.68342 0.23445 0.78956 0.0
H2675 H 0.66953 0.19309 0.84084 0.0
H2676 H 0.68285 0.20028 0.82208 0.0
H2677 H 0.68755 0.21121 0.84344 0.0
H2678 H 0.70054 0.24156 0.83177 0.0
H2679 H 0.72979 0.24595 0.81624 0.0
H2680 H 0.00055 0.28951 0.1469 0.0
H2681 H -0.00547 0.31489 0.12573 0.0
H2682 H 0.02492 0.28369 0.08638 0.0
H2683 H 0.03019 0.25809 0.10704 0.0
H2684 H 0.02173 0.33574 0.11436 0.0
H2685 H 0.9844 0.30461 0.05563 0.0
H2686 H 0.98584 0.29233 0.07638 0.0
H2687 H 0.00465 0.29067 0.06099 0.0
C2688 C 0.00534 0.28779 0.13353 0.0
C2689 C 0.01598 0.27191 0.12868 0.0
C2690 C 0.00193 0.3023 0.12146 0.0
C2691 C 0.0092 0.30118 0.10443 0.0
C2692 C 0.01875 0.28473 0.09925 0.0
H2693 H 0.0568 0.39535 0.0488 0.0
H2694 H 0.05065 0.36702 0.06642 0.0
C2695 C 0.02191 0.27013 0.11119 0.0
C2696 C 0.0096 0.3182 0.09313 0.0
H2697 H 0.00417 0.3325 0.05045 0.0
C2698 C 0.01753 0.33512 0.10045 0.0
C2699 C 0.00402 0.3175 0.07503 0.0
C2700 C -0.00593 0.30033 0.06664 0.0
C2701 C 0.02075 0.35106 0.09004 0.0
C2702 C 0.01655 0.34983 0.07167 0.0
C2703 C 0.00783 0.33325 0.06447 0.0
C2704 C 0.02076 0.36576 0.0598 0.0
C2705 C 0.02853 0.36908 0.09889 0.0
C2706 C 0.00623 0.37374 0.04954 0.0
C2707 C 0.0098 0.38958 0.03923 0.0
C2708 C 0.02796 0.39776 0.03906 0.0
C2709 C 0.04267 0.38936 0.04884 0.0
C2710 C 0.03913 0.37332 0.05897 0.0
H2711 H 0.02543 0.36958 0.11319 0.0
H2712 H 0.04406 0.36951 0.09776 0.0
H2713 H 0.02262 0.38198 0.09262 0.0
H2714 H -0.00802 0.36809 0.04994 0.0
H2715 H -0.00186 0.39594 0.032 0.0
H2716 H 0.98058 0.76512 0.32456 0.0
H2717 H 0.94785 0.76346 0.31383 0.0
H2718 H 0.93154 0.73869 0.36289 0.0
H2719 H 0.96438 0.74023 0.37386 0.0
H2720 H 0.92343 0.72802 0.31216 0.0
H2721 H 0.89738 0.78741 0.35432 0.0
H2722 H 0.92198 0.78512 0.34943 0.0
H2723 H 0.9114 0.76928 0.36472 0.0
C2724 C 0.97008 0.75931 0.33312 0.0
C2725 C 0.97508 0.75285 0.3501 0.0
C2726 C 0.95141 0.75836 0.32694 0.0
C2727 C 0.93739 0.7511 0.33765 0.0
C2728 C 0.94224 0.74449 0.35454 0.0
H2729 H 0.81618 0.74693 0.31635 0.0
H2730 H 0.84748 0.7452 0.33051 0.0
C2731 C 0.96098 0.74533 0.36073 0.0
C2732 C 0.91772 0.75042 0.33093 0.0
H2733 H 0.87557 0.77265 0.33427 0.0
C2734 C 0.91289 0.73767 0.31703 0.0
C2735 C 0.90412 0.76299 0.33746 0.0
C2736 C 0.90887 0.77709 0.35226 0.0
C2737 C 0.89472 0.73728 0.30928 0.0
C2738 C 0.88127 0.75034 0.31536 0.0
C2739 C 0.88598 0.76275 0.3296 0.0
C2740 C 0.86238 0.75166 0.3068 0.0
C2741 C 0.89007 0.72282 0.29475 0.0
C2742 C 0.86045 0.75627 0.28888 0.0
C2743 C 0.84261 0.7572 0.28071 0.0
C2744 C 0.82642 0.75374 0.29041 0.0
C2745 C 0.8284 0.74963 0.3085 0.0
C2746 C 0.84625 0.74862 0.31662 0.0
H2747 H 0.89978 0.71053 0.29528 0.0
H2748 H 0.87539 0.71737 0.29558 0.0
H2749 H 0.89155 0.72966 0.28175 0.0
H2750 H 0.87275 0.75913 0.2812 0.0
H2751 H 0.84154 0.76054 0.2668 0.0
H2752 H 0.51724 0.29359 0.93277 0.0
H2753 H 0.5108 0.32256 0.94995 0.0
H2754 H 0.53056 0.35703 0.90752 0.0
H2755 H 0.53697 0.32831 0.89022 0.0
H2756 H 0.53587 0.35393 0.96043 0.0
H2757 H 0.47657 0.37629 0.91634 0.0
H2758 H 0.48559 0.35233 0.9161 0.0
H2759 H 0.49789 0.37108 0.90517 0.0
C2760 C 0.52032 0.30733 0.92712 0.0
C2761 C 0.52749 0.30861 0.91005 0.0
C2762 C 0.51661 0.32384 0.93696 0.0
C2763 C 0.51988 0.34188 0.92983 0.0
C2764 C 0.5276 0.34322 0.91308 0.0
H2765 H 0.51234 0.45976 0.95865 0.0
H2766 H 0.51486 0.42853 0.94422 0.0
C2767 C 0.53136 0.32676 0.90327 0.0
C2768 C 0.5152 0.35939 0.93982 0.0
H2769 H 0.48812 0.39916 0.93773 0.0
C2770 C 0.5253 0.36375 0.95561 0.0
C2771 C 0.50138 0.37209 0.93345 0.0
C2772 C 0.48959 0.36769 0.91692 0.0
C2773 C 0.52246 0.38093 0.96488 0.0
C2774 C 0.5089 0.39383 0.95829 0.0
C2775 C 0.4985 0.38923 0.94272 0.0
C2776 C 0.50605 0.41265 0.96685 0.0
C2777 C 0.53452 0.38548 0.98122 0.0
C2778 C 0.49972 0.41406 0.98419 0.0
C2779 C 0.49827 0.4319 -0.00749 0.0
C2780 C 0.50304 0.44863 0.98357 0.0
C2781 C 0.50861 0.44716 0.96593 0.0
C2782 C 0.51007 0.42933 0.95766 0.0
H2783 H 0.54694 0.37606 0.9823 0.0
H2784 H 0.53954 0.40054 0.98124 0.0
H2785 H 0.52602 0.38344 -0.0069 0.0
H2786 H 0.49617 0.40134 0.99137 0.0
H2787 H 0.49384 0.43255 0.00607 0.0
H2788 H 0.98768 0.2114 0.18579 0.0
H2789 H 0.95858 0.20022 0.1987 0.0
H2790 H 0.9898 0.18197 0.245 0.0
H2791 H 0.01913 0.19316 0.23224 0.0
H2792 H 0.94819 0.1619 0.21362 0.0
H2793 H 0.95096 0.2231 0.26179 0.0
H2794 H 0.96459 0.22317 0.24207 0.0
H2795 H 0.9713 0.20822 0.26013 0.0
C2796 C 0.98843 0.20489 0.19866 0.0
C2797 C 0.0057 0.20338 0.20808 0.0
C2798 C 0.97181 0.19839 0.20595 0.0
C2799 C 0.97213 0.19037 0.22278 0.0
C2800 C 0.98935 0.18821 0.232 0.0
H2801 H 0.86703 0.19088 0.27875 0.0
H2802 H 0.89946 0.18138 0.27349 0.0
C2803 C 0.00605 0.19464 0.22469 0.0
C2804 C 0.95416 0.18592 0.23109 0.0
H2805 H 0.92311 0.20515 0.25947 0.0
C2806 C 0.94277 0.17107 0.22391 0.0
C2807 C 0.94732 0.19781 0.24461 0.0
C2808 C 0.95906 0.21404 0.25264 0.0
C2809 C 0.92423 0.16841 0.22931 0.0
C2810 C 0.91687 0.18128 0.24183 0.0
C2811 C 0.92875 0.19529 0.24986 0.0
C2812 C 0.89646 0.18248 0.24497 0.0
C2813 C 0.9126 0.15218 0.22122 0.0
C2814 C 0.88389 0.18573 0.23069 0.0
C2815 C 0.86541 0.19104 0.23366 0.0
C2816 C 0.85926 0.1935 0.25099 0.0
C2817 C 0.87151 0.18923 0.26527 0.0
C2818 C 0.88997 0.18372 0.26228 0.0
H2819 H 0.92162 0.13984 0.21803 0.0
H2820 H 0.90144 0.14739 0.23016 0.0
H2821 H 0.90584 0.1569 0.20865 0.0
H2822 H 0.88869 0.18546 0.21725 0.0
H2823 H 0.85635 0.1945 0.22243 0.0
H2824 H 0.03028 0.70447 0.44572 0.0
H2825 H 0.02861 0.67457 0.46197 0.0
H2826 H 0.00403 0.64606 0.41572 0.0
H2827 H 0.00583 0.67571 0.39934 0.0
H2828 H -0.00231 0.64947 0.46881 0.0
H2829 H 0.05133 0.61485 0.42776 0.0
H2830 H 0.04758 0.64026 0.42785 0.0
H2831 H 0.0319 0.62452 0.41528 0.0
C2832 C 0.02438 0.69186 0.43906 0.0
C2833 C 0.01837 0.69239 0.4212 0.0
C2834 C 0.02344 0.67482 0.44836 0.0
C2835 C 0.01654 0.65807 0.43992 0.0
C2836 C 0.00977 0.65876 0.42234 0.0
H2837 H 0.00267 0.53968 0.46522 0.0
H2838 H 0.00311 0.57118 0.45193 0.0
C2839 C 0.01073 0.67574 0.41304 0.0
C2840 C 0.01686 0.63971 0.44926 0.0
H2841 H 0.03497 0.59492 0.44732 0.0
C2842 C 0.00592 0.63756 0.46423 0.0
C2843 C 0.02771 0.62427 0.44324 0.0
C2844 C 0.04044 0.62608 0.42775 0.0
C2845 C 0.00507 0.6201 0.47302 0.0
C2846 C 0.01565 0.60457 0.46679 0.0
C2847 C 0.02681 0.60684 0.452 0.0
C2848 C 0.01511 0.58567 0.47518 0.0
C2849 C -0.00755 0.61823 0.48858 0.0
C2850 C 0.02193 0.58338 0.49259 0.0
C2851 C 0.02173 0.56538 0.50024 0.0
C2852 C 0.01478 0.54935 0.49056 0.0
C2853 C 0.0081 0.55171 0.47306 0.0
C2854 C 0.00832 0.5697 0.46543 0.0
H2855 H 0.98217 0.63 0.48924 0.0
H2856 H 0.9846 0.60442 0.48793 0.0
H2857 H 0.0012 0.61864 0.50098 0.0
H2858 H 0.02756 0.59549 0.50021 0.0
H2859 H 0.02704 0.56403 0.51373 0.0
H2860 H 0.58503 0.76841 0.69295 0.0
H2861 H 0.6139 0.78656 0.69963 0.0
H2862 H 0.62604 0.7874 0.64415 0.0
H2863 H 0.597 0.76911 0.63732 0.0
H2864 H 0.65386 0.77188 0.66486 0.0
H2865 H 0.63411 0.84077 0.69426 0.0
H2866 H 0.62045 0.8218 0.70325 0.0
H2867 H 0.61817 0.82675 0.68 0.0
C2868 C 0.59366 0.77273 0.68213 0.0
C2869 C 0.58891 0.76717 0.66465 0.0
C2870 C 0.61001 0.78337 0.68593 0.0
C2871 C 0.62189 0.78867 0.67233 0.0
C2872 C 0.61686 0.78372 0.65477 0.0
H2873 H 0.73767 0.79474 0.71423 0.0
H2874 H 0.71387 0.80442 0.6922 0.0
C2875 C 0.60038 0.77316 0.65093 0.0
C2876 C 0.64093 0.79607 0.67711 0.0
H2877 H 0.66283 0.82631 0.70709 0.0
C2878 C 0.65611 0.7842 0.67356 0.0
C2879 C 0.64376 0.81227 0.68825 0.0
C2880 C 0.62824 0.82622 0.69149 0.0
C2881 C 0.67338 0.78653 0.68281 0.0
C2882 C 0.67551 0.80148 0.69557 0.0
C2883 C 0.66108 0.81476 0.69744 0.0
C2884 C 0.69048 0.80085 0.70952 0.0
C2885 C 0.68833 0.7717 0.68025 0.0
C2886 C 0.6853 0.79703 0.72686 0.0
C2887 C 0.69882 0.79178 0.73951 0.0
C2888 C 0.71771 0.79009 0.73493 0.0
C2889 C 0.72312 0.79556 0.718 0.0
C2890 C 0.70958 0.80109 0.70541 0.0
H2891 H 0.68345 0.75987 0.67122 0.0
H2892 H 0.70089 0.77845 0.6745 0.0
H2893 H 0.69269 0.76553 0.69313 0.0
H2894 H 0.67061 0.79681 0.73031 0.0
H2895 H 0.69426 0.78784 0.75249 0.0
H2896 H 0.63595 0.48611 0.67384 0.0
H2897 H 0.6191 0.48396 0.64513 0.0
H2898 H 0.56614 0.48082 0.67131 0.0
H2899 H 0.58278 0.4831 0.70005 0.0
H2900 H 0.59091 0.45636 0.6301 0.0
H2901 H 0.56397 0.52974 0.64048 0.0
H2902 H 0.58337 0.5204 0.65348 0.0
H2903 H 0.55964 0.51319 0.65782 0.0
C2904 C 0.6207 0.48472 0.67349 0.0
C2905 C 0.61063 0.48505 0.68918 0.0
C2906 C 0.61115 0.48344 0.6571 0.0
C2907 C 0.59143 0.48251 0.6562 0.0
C2908 C 0.58139 0.48177 0.67182 0.0
H2909 H 0.51124 0.49833 0.56928 0.0
H2910 H 0.52604 0.49135 0.59799 0.0
C2911 C 0.59091 0.48305 0.6882 0.0
C2912 C 0.58133 0.48378 0.63897 0.0
H2913 H 0.55371 0.51339 0.61446 0.0
C2914 C 0.58272 0.46877 0.62663 0.0
C2915 C 0.57075 0.50005 0.6346 0.0
C2916 C 0.5694 0.51686 0.64719 0.0
C2917 C 0.57357 0.46954 0.60996 0.0
C2918 C 0.56313 0.4859 0.60554 0.0
C2919 C 0.56167 0.50083 0.61796 0.0
C2920 C 0.55402 0.48826 0.58792 0.0
C2921 C 0.57497 0.45277 0.59735 0.0
C2922 C 0.56489 0.4888 0.57278 0.0
C2923 C 0.55649 0.49275 0.55636 0.0
C2924 C 0.5371 0.49643 0.55485 0.0
C2925 C 0.52622 0.49561 0.57001 0.0
C2926 C 0.53462 0.49159 0.58641 0.0
H2927 H 0.57874 0.43952 0.6044 0.0
H2928 H 0.56151 0.45027 0.58976 0.0
H2929 H 0.58615 0.45576 0.58782 0.0
H2930 H 0.57996 0.48672 0.57374 0.0
H2931 H 0.56527 0.49335 0.54493 0.0
H2932 H 0.76576 0.33867 -0.00516 0.0
H2933 H 0.77419 0.32274 0.96734 0.0
H2934 H 0.75781 0.37237 0.93804 0.0
H2935 H 0.7495 0.38859 0.96552 0.0
H2936 H 0.75203 0.31466 0.93648 0.0
H2937 H 0.81248 0.36292 0.9235 0.0
H2938 H 0.80165 0.36196 0.94474 0.0
H2939 H 0.79061 0.37478 0.92695 0.0
C2940 C 0.76385 0.34621 0.98256 0.0
C2941 C 0.75708 0.36498 0.9824 0.0
C2942 C 0.76869 0.33707 0.96687 0.0
C2943 C 0.76696 0.34654 0.95077 0.0
C2944 C 0.75961 0.365 0.95043 0.0
H2945 H 0.78328 0.31899 0.84195 0.0
H2946 H 0.77893 0.33416 0.87071 0.0
C2947 C 0.75473 0.37418 0.96612 0.0
C2948 C 0.77282 0.33702 0.93433 0.0
H2949 H 0.80351 0.34062 0.90072 0.0
C2950 C 0.76336 0.32022 0.9287 0.0
C2951 C 0.78767 0.34435 0.92432 0.0
C2952 C 0.79884 0.3619 0.93022 0.0
C2953 C 0.76798 0.31082 0.91297 0.0
C2954 C 0.78268 0.31827 0.90284 0.0
C2955 C 0.7923 0.33494 0.90859 0.0
C2956 C 0.78745 0.30958 0.88569 0.0
C2957 C 0.7567 0.29335 0.90701 0.0
C2958 C 0.79434 0.29095 0.88467 0.0
C2959 C 0.79699 0.28223 0.86821 0.0
C2960 C 0.79287 0.29208 0.85255 0.0
C2961 C 0.78687 0.31109 0.85373 0.0
C2962 C 0.78424 0.31975 0.87015 0.0
H2963 H 0.74349 0.29181 0.91436 0.0
H2964 H 0.75304 0.2939 0.89265 0.0
H2965 H 0.76525 0.28045 0.90932 0.0
H2966 H 0.79723 0.28302 0.89658 0.0
H2967 H 0.80185 0.26767 0.86773 0.0
H2968 H 0.89568 0.50182 0.16807 0.0
H2969 H 0.91449 0.50232 0.14162 0.0
H2970 H 0.95963 0.53129 0.17114 0.0
H2971 H 0.94119 0.53 0.19787 0.0
H2972 H 0.92935 0.52928 0.12259 0.0
H2973 H 0.98697 0.48637 0.15204 0.0
H2974 H 0.96502 0.48994 0.16284 0.0
H2975 H 0.98312 0.50817 0.16402 0.0
C2976 C 0.90956 0.50841 0.16889 0.0
C2977 C 0.9171 0.51566 0.18504 0.0
C2978 C 0.92031 0.50867 0.15378 0.0
C2979 C 0.93866 0.5164 0.15452 0.0
C2980 C 0.94576 0.52468 0.17041 0.0
H2981 H -0.00349 0.53383 0.05571 0.0
H2982 H 0.98254 0.53932 0.08444 0.0
C2983 C 0.93516 0.52409 0.18561 0.0
C2984 C 0.95037 0.51537 0.13871 0.0
H2985 H -0.00816 0.49853 0.12355 0.0
C2986 C 0.94303 0.52258 0.12279 0.0
C2987 C 0.96809 0.50635 0.13897 0.0
C2988 C 0.97619 0.49709 0.15533 0.0
C2989 C 0.95278 0.52082 0.10705 0.0
C2990 C 0.97075 0.5123 0.10741 0.0
C2991 C 0.97818 0.50528 0.12337 0.0
C2992 C 0.98148 0.50944 0.09116 0.0
C2993 C 0.94333 0.52738 0.09011 0.0
C2994 C 0.98671 0.49098 0.08598 0.0
C2995 C -0.00482 0.48788 0.06981 0.0
C2996 C -0.00168 0.50317 0.0585 0.0
C2997 C -0.00601 0.52176 0.06411 0.0
C2998 C 0.98588 0.52489 0.08043 0.0
H2999 H 0.92784 0.52852 0.09135 0.0
H3000 H 0.94889 0.54172 0.08687 0.0
H3001 H 0.94611 0.51747 0.07893 0.0
H3002 H 0.98357 0.47886 0.09413 0.0
H3003 H -0.00164 0.4734 0.06579 0.0
H3004 H 0.81469 0.66704 0.48893 0.0
H3005 H 0.81259 0.68657 0.46251 0.0
H3006 H 0.8023 0.63596 0.4303 0.0
H3007 H 0.80493 0.61629 0.45658 0.0
H3008 H 0.82154 0.66509 0.41272 0.0
H3009 H 0.75742 0.69102 0.44529 0.0
H3010 H 0.77899 0.69523 0.45782 0.0
H3011 H 0.7708 0.67118 0.45347 0.0
C3012 C 0.8127 0.66003 0.47613 0.0
C3013 C 0.80957 0.64022 0.47479 0.0
C3014 C 0.8114 0.6712 0.46109 0.0
C3015 C 0.80664 0.66271 0.44462 0.0
C3016 C 0.80578 0.64276 0.44296 0.0
H3017 H 0.73835 0.70811 0.35945 0.0
H3018 H 0.75096 0.69117 0.38516 0.0
C3019 C 0.80734 0.63154 0.45799 0.0
C3020 C 0.79979 0.67449 0.42984 0.0
H3021 H 0.76406 0.70406 0.41769 0.0
C3022 C 0.80906 0.67372 0.41379 0.0
C3023 C 0.78318 0.6853 0.43123 0.0
C3024 C 0.77188 0.68565 0.4478 0.0
C3025 C 0.80223 0.68366 0.39904 0.0
C3026 C 0.78592 0.69488 0.4006 0.0
C3027 C 0.77664 0.69556 0.41663 0.0
C3028 C 0.77803 0.70576 0.38564 0.0
C3029 C 0.8122 0.68159 0.38181 0.0
C3030 C 0.78885 0.71995 0.37784 0.0
C3031 C 0.78179 0.72948 0.36312 0.0
C3032 C 0.7636 0.72522 0.35606 0.0
C3033 C 0.75245 0.71159 0.36445 0.0
C3034 C 0.75961 0.70195 0.37914 0.0
H3035 H 0.8211 0.66869 0.38155 0.0
H3036 H 0.80196 0.68075 0.37042 0.0
H3037 H 0.8215 0.69421 0.3801 0.0
H3038 H 0.80293 0.72339 0.38292 0.0
H3039 H 0.79095 0.73962 0.35686 0.0
H3040 H 0.58114 0.54776 0.77879 0.0
H3041 H 0.5714 0.55442 0.80887 0.0
H3042 H 0.6074 0.5098 0.82823 0.0
H3043 H 0.61769 0.50344 0.79822 0.0
H3044 H 0.55295 0.53161 0.82957 0.0
H3045 H 0.62055 0.55192 0.86329 0.0
H3046 H 0.61782 0.55028 0.83952 0.0
H3047 H 0.62196 0.52919 0.85226 0.0
C3048 C 0.5871 0.53944 0.78947 0.0
C3049 C 0.60017 0.52503 0.78613 0.0
C3050 C 0.58157 0.54333 0.80666 0.0
C3051 C 0.58892 0.53285 0.82084 0.0
C3052 C 0.60197 0.51845 0.81756 0.0
H3053 H 0.53763 0.50251 0.91557 0.0
H3054 H 0.55009 0.50629 0.8862 0.0
C3055 C 0.60769 0.51469 0.80038 0.0
C3056 C 0.58173 0.53588 0.83881 0.0
H3057 H 0.59548 0.54214 0.88216 0.0
C3058 C 0.56225 0.53421 0.84102 0.0
C3059 C 0.5938 0.53966 0.85372 0.0
C3060 C 0.61467 0.54308 0.85206 0.0
C3061 C 0.55461 0.5352 0.85782 0.0
C3062 C 0.56683 0.53741 0.87283 0.0
C3063 C 0.58619 0.54016 0.87061 0.0
C3064 C 0.55985 0.53535 0.89089 0.0
C3065 C 0.53352 0.53357 0.85935 0.0
C3066 C 0.56187 0.55023 0.90347 0.0
C3067 C 0.55479 0.54807 0.92039 0.0
C3068 C 0.54562 0.53101 0.92486 0.0
C3069 C 0.54417 0.516 0.91234 0.0
C3070 C 0.55128 0.51813 0.89557 0.0
H3071 H 0.52606 0.53816 0.84705 0.0
H3072 H 0.52957 0.51845 0.86154 0.0
H3073 H 0.52857 0.54229 0.87062 0.0
H3074 H 0.56864 0.56356 0.90012 0.0
H3075 H 0.55613 0.55983 0.92983 0.0
H3076 H 0.74873 0.31292 0.0674 0.0
H3077 H 0.74831 0.28977 0.09122 0.0
H3078 H 0.77799 0.33008 0.12598 0.0
H3079 H 0.77801 0.35349 0.10241 0.0
H3080 H 0.77549 0.27262 0.1121 0.0
H3081 H 0.73026 0.31885 0.15232 0.0
H3082 H 0.73469 0.32347 0.12945 0.0
H3083 H 0.75168 0.33066 0.1465 0.0
C3084 C 0.7553 0.3168 0.08008 0.0
C3085 C 0.76317 0.33512 0.08314 0.0
C3086 C 0.75507 0.30354 0.09365 0.0
C3087 C 0.76274 0.30838 0.11044 0.0
C3088 C 0.77157 0.32626 0.11322 0.0
H3089 H 0.79268 0.24401 0.20098 0.0
H3090 H 0.79056 0.25605 0.17099 0.0
C3091 C 0.77165 0.33958 0.09973 0.0
C3092 C 0.76079 0.29514 0.1253 0.0
H3093 H 0.74449 0.29272 0.16704 0.0
C3094 C 0.76856 0.27688 0.12408 0.0
C3095 C 0.75128 0.30056 0.14069 0.0
C3096 C 0.74132 0.31937 0.14228 0.0
C3097 C 0.7678 0.26419 0.13822 0.0
C3098 C 0.75942 0.27015 0.15406 0.0
C3099 C 0.751 0.28813 0.15494 0.0
C3100 C 0.76022 0.2588 0.17041 0.0
C3101 C 0.77595 0.24458 0.13599 0.0
C3102 C 0.74385 0.25596 0.18003 0.0
C3103 C 0.74509 0.24952 0.19736 0.0
C3104 C 0.7627 0.24557 0.20529 0.0
C3105 C 0.77889 0.24679 0.19515 0.0
C3106 C 0.77768 0.25358 0.17792 0.0
H3107 H 0.77524 0.23983 0.1219 0.0
H3108 H 0.79101 0.24502 0.14034 0.0
H3109 H 0.76847 0.2339 0.14396 0.0
H3110 H 0.73021 0.25986 0.1745 0.0
H3111 H 0.73237 0.24862 0.20486 0.0
H3112 H 0.90094 0.49789 0.29348 0.0
H3113 H 0.90824 0.49208 0.32471 0.0
H3114 H 0.95809 0.46177 0.31049 0.0
H3115 H 0.95108 0.46761 0.27928 0.0
H3116 H 0.91345 0.45597 0.34185 0.0
H3117 H 0.97705 0.50297 0.34674 0.0
H3118 H 0.95983 0.50429 0.32878 0.0
H3119 H 0.97699 0.4857 0.32895 0.0
C3120 C 0.91352 0.49009 0.29699 0.0
C3121 C 0.92551 0.48333 0.28389 0.0
C3122 C 0.9176 0.48671 0.31482 0.0
C3123 C 0.93375 0.47665 0.31983 0.0
C3124 C 0.94568 0.46979 0.30683 0.0
H3125 H 0.98984 0.44987 0.41818 0.0
H3126 H 0.97791 0.44889 0.38752 0.0
C3127 C 0.94163 0.47314 0.28902 0.0
C3128 C 0.93827 0.4734 0.33868 0.0
H3129 H 0.97126 0.48348 0.37122 0.0
C3130 C 0.92604 0.462 0.34835 0.0
C3131 C 0.95467 0.48138 0.34701 0.0
C3132 C 0.96783 0.49441 0.33742 0.0
C3133 C 0.93007 0.45799 0.36617 0.0
C3134 C 0.9466 0.46581 0.37443 0.0
C3135 C 0.95869 0.47734 0.36475 0.0
C3136 C 0.95168 0.46271 0.39321 0.0
C3137 C 0.91688 0.44518 0.37592 0.0
C3138 C 0.94054 0.47017 0.40659 0.0
C3139 C 0.9473 0.47065 0.42413 0.0
C3140 C 0.96537 0.46389 0.4284 0.0
C3141 C 0.97592 0.45528 0.41516 0.0
C3142 C 0.96912 0.45469 0.39769 0.0
H3143 H 0.90751 0.43666 0.36669 0.0
H3144 H 0.92486 0.43532 0.38459 0.0
H3145 H 0.90788 0.45407 0.3844 0.0
H3146 H 0.92719 0.47673 0.40333 0.0
H3147 H 0.93902 0.47754 0.43411 0.0
H3148 H 0.75492 0.63236 0.58736 0.0
H3149 H 0.75948 0.6582 0.60921 0.0
H3150 H 0.78315 0.69398 0.56952 0.0
H3151 H 0.77898 0.66815 0.54769 0.0
H3152 H 0.80609 0.69181 0.59846 0.0
H3153 H 0.73386 0.70838 0.61846 0.0
H3154 H 0.73852 0.68336 0.61977 0.0
H3155 H 0.73851 0.69479 0.59864 0.0
C3156 C 0.76064 0.64589 0.58318 0.0
C3157 C 0.7667 0.64818 0.56586 0.0
C3158 C 0.7632 0.66067 0.59566 0.0
C3159 C 0.77155 0.67804 0.59093 0.0
C3160 C 0.77669 0.68069 0.57342 0.0
H3161 H 0.77865 0.76353 0.67496 0.0
H3162 H 0.77596 0.75087 0.6449 0.0
C3163 C 0.77426 0.66591 0.56098 0.0
C3164 C 0.77667 0.69261 0.60462 0.0
H3165 H 0.75897 0.71765 0.63909 0.0
C3166 C 0.79576 0.69775 0.60717 0.0
C3167 C 0.76316 0.70059 0.61575 0.0
C3168 C 0.74235 0.69665 0.6129 0.0
C3169 C 0.80181 0.70986 0.6212 0.0
C3170 C 0.78846 0.71664 0.63314 0.0
C3171 C 0.76926 0.71233 0.63 0.0
C3172 C 0.79399 0.72681 0.64981 0.0
C3173 C 0.82245 0.71505 0.62318 0.0
C3174 C 0.80581 0.718 0.66234 0.0
C3175 C 0.80774 0.72544 0.67953 0.0
C3176 C 0.79756 0.7416 0.68458 0.0
C3177 C 0.7869 0.75119 0.67159 0.0
C3178 C 0.78517 0.74387 0.65437 0.0
H3179 H 0.82927 0.71482 0.61017 0.0
H3180 H 0.82463 0.7294 0.6294 0.0
H3181 H 0.82961 0.70441 0.63164 0.0
H3182 H 0.81253 0.70465 0.65923 0.0
H3183 H 0.8163 0.71788 0.68913 0.0
H3184 H 0.71526 0.60062 0.50082 0.0
H3185 H 0.69036 0.58123 0.48605 0.0
H3186 H 0.73238 0.5464 0.46172 0.0
H3187 H 0.75719 0.56487 0.47768 0.0
H3188 H 0.67912 0.57169 0.45412 0.0
H3189 H 0.70533 0.50623 0.48686 0.0
H3190 H 0.71523 0.52946 0.49206 0.0
H3191 H 0.72137 0.51703 0.47208 0.0
C3192 C 0.71909 0.5889 0.49221 0.0
C3193 C 0.73796 0.58389 0.49058 0.0
C3194 C 0.70493 0.57786 0.48372 0.0
C3195 C 0.7095 0.56198 0.47316 0.0
C3196 C 0.72849 0.55808 0.47033 0.0
H3197 H 0.60088 0.50826 0.4405 0.0
H3198 H 0.63338 0.51811 0.43472 0.0
C3199 C 0.74262 0.56869 0.47932 0.0
C3200 C 0.69427 0.54888 0.46646 0.0
H3201 H 0.67668 0.5038 0.47124 0.0
C3202 C 0.67863 0.55677 0.45765 0.0
C3203 C 0.6938 0.52933 0.47095 0.0
C3204 C 0.70974 0.52001 0.48112 0.0
C3205 C 0.66186 0.54626 0.45479 0.0
C3206 C 0.66108 0.527 0.46013 0.0
C3207 C 0.67737 0.51856 0.46721 0.0
C3208 C 0.6429 0.51683 0.46214 0.0
C3209 C 0.64475 0.55646 0.44758 0.0
C3210 C 0.63797 0.51128 0.47914 0.0
C3211 C 0.61972 0.50514 0.48233 0.0
C3212 C 0.606 0.50466 0.46861 0.0
C3213 C 0.61125 0.50871 0.45131 0.0
C3214 C 0.62971 0.51449 0.44804 0.0
H3215 H 0.64715 0.5721 0.44681 0.0
H3216 H 0.64115 0.55099 0.43404 0.0
H3217 H 0.63246 0.5539 0.45597 0.0
H3218 H 0.64789 0.51291 0.49024 0.0
H3219 H 0.61601 0.50227 0.49581 0.0
H3220 H 0.218 0.93682 0.55009 0.0
H3221 H 0.18806 0.95326 0.54708 0.0
H3222 H 0.15855 0.89912 0.54338 0.0
H3223 H 0.18857 0.88248 0.54607 0.0
H3224 H 0.14859 0.92332 0.51665 0.0
H3225 H 0.14596 0.96089 0.58155 0.0
H3226 H 0.16743 0.96518 0.5703 0.0
H3227 H 0.16183 0.94152 0.5775 0.0
C3228 C 0.20513 0.92838 0.54889 0.0
C3229 C 0.20563 0.90834 0.54828 0.0
C3230 C 0.18802 0.93782 0.54727 0.0
C3231 C 0.17109 0.92741 0.54522 0.0
C3232 C 0.17149 0.9074 0.54503 0.0
H3233 H 0.05782 0.97025 0.54595 0.0
H3234 H 0.08806 0.95556 0.55279 0.0
C3235 C 0.18862 0.89793 0.54659 0.0
C3236 C 0.15315 0.9374 0.54195 0.0
H3237 H 0.12408 0.97084 0.55911 0.0
C3238 C 0.14316 0.93363 0.52597 0.0
C3239 C 0.1461 0.95077 0.55419 0.0
C3240 C 0.15578 0.95472 0.57192 0.0
C3241 C 0.12636 0.94303 0.52178 0.0
C3242 C 0.11962 0.95684 0.53376 0.0
C3243 C 0.12947 0.96044 0.54986 0.0
C3244 C 0.10187 0.96702 0.53014 0.0
C3245 C 0.1158 0.93783 0.50472 0.0
C3246 C 0.09981 0.97875 0.51539 0.0
C3247 C 0.0825 0.98714 0.51137 0.0
C3248 C 0.06703 0.98399 0.52214 0.0
C3249 C 0.06942 0.97288 0.53732 0.0
C3250 C 0.08669 0.96449 0.54129 0.0
H3251 H 0.1204 0.92395 0.49917 0.0
H3252 H 0.1004 0.93703 0.50672 0.0
H3253 H 0.11848 0.94896 0.49482 0.0
H3254 H 0.11151 0.98116 0.50683 0.0
H3255 H 0.08113 -0.00427 0.49965 0.0
H3256 H 0.39919 0.93141 0.70937 0.0
H3257 H 0.38495 0.90029 0.71516 0.0
H3258 H 0.33316 0.92751 0.72865 0.0
H3259 H 0.34718 0.95866 0.72288 0.0
H3260 H 0.37141 0.89267 0.74984 0.0
H3261 H 0.31601 0.88098 0.69718 0.0
H3262 H 0.33568 0.89724 0.6948 0.0
H3263 H 0.31612 0.90408 0.70783 0.0
C3264 C 0.38461 0.93077 0.71312 0.0
C3265 C 0.37436 0.94753 0.71581 0.0
C3266 C 0.37654 0.91298 0.71646 0.0
C3267 C 0.35803 0.91166 0.72227 0.0
C3268 C 0.3474 0.92824 0.72396 0.0
H3269 H 0.28691 0.8231 0.76357 0.0
H3270 H 0.30079 0.85334 0.75445 0.0
C3271 C 0.35547 0.94604 0.72072 0.0
C3272 C 0.35058 0.89334 0.72858 0.0
H3273 H 0.31534 0.86034 0.72173 0.0
C3274 C 0.35925 0.88547 0.74362 0.0
C3275 C 0.33462 0.88422 0.72052 0.0
C3276 C 0.32511 0.89193 0.7041 0.0
C3277 C 0.35213 0.86882 0.75109 0.0
C3278 C 0.33616 0.85964 0.74303 0.0
C3279 C 0.32755 0.86747 0.72791 0.0
C3280 C 0.3283 0.84171 0.7499 0.0
C3281 C 0.36145 0.86153 0.7678 0.0
C3282 C 0.33927 0.82526 0.75056 0.0
C3283 C 0.33146 0.80802 0.75591 0.0
C3284 C 0.31245 0.80689 0.76047 0.0
C3285 C 0.30161 0.82351 0.76019 0.0
C3286 C 0.30948 0.84077 0.75491 0.0
H3287 H 0.36984 0.8729 0.77493 0.0
H3288 H 0.35087 0.85576 0.77686 0.0
H3289 H 0.37116 0.84988 0.76436 0.0
H3290 H 0.35372 0.8256 0.74642 0.0
H3291 H 0.34016 0.79544 0.75584 0.0
H3292 H 0.33457 0.0779 0.01922 0.0
H3293 H 0.3599 0.05497 0.01959 0.0
H3294 H 0.32556 0.01542 0.04793 0.0
H3295 H 0.29985 0.0385 0.04775 0.0
H3296 H 0.3643 0.02014 0.06111 0.0
H3297 H 0.35921 0.00505 0.9893 0.0
H3298 H 0.35914 0.03022 -0.00608 0.0
H3299 H 0.34016 0.01538 0.00133 0.0
C3300 C 0.33231 0.06437 0.02557 0.0
C3301 C 0.31513 0.05995 0.03331 0.0
C3302 C 0.34678 0.05126 0.02569 0.0
C3303 C 0.34435 0.03343 0.03345 0.0
C3304 C 0.32751 0.02908 0.04172 0.0
H3305 H 0.44486 0.97355 0.00427 0.0
H3306 H 0.41175 0.97541 0.01184 0.0
C3307 C 0.31291 0.04226 0.0416 0.0
C3308 C 0.35982 0.01975 0.03282 0.0
H3309 H 0.39031 0.00214 0.00321 0.0
C3310 C 0.3698 0.01564 0.04852 0.0
C3311 C 0.36657 0.01337 0.01645 0.0
C3312 C 0.35557 0.01605 -0.00069 0.0
C3313 C 0.38753 0.00713 0.04807 0.0
C3314 C 0.39548 0.00327 0.03149 0.0
C3315 C 0.38446 0.00542 0.01595 0.0
C3316 C 0.4158 -0.00026 0.02962 0.0
C3317 C 0.39779 0.00308 0.06531 0.0
C3318 C 0.42913 0.01265 0.03726 0.0
C3319 C 0.44807 0.01143 0.03316 0.0
C3320 C 0.45386 -0.00234 0.02093 0.0
C3321 C 0.44065 0.98449 0.01356 0.0
C3322 C 0.42179 0.98543 0.01798 0.0
H3323 H 0.3877 -0.00125 0.07547 0.0
H3324 H 0.40832 0.99166 0.06378 0.0
H3325 H 0.40511 0.01628 0.07028 0.0
H3326 H 0.4248 0.02426 0.04575 0.0
H3327 H 0.45802 0.02174 0.03898 0.0
H3328 H 0.67784 0.55482 0.7494 0.0
H3329 H 0.69384 0.58577 0.75266 0.0
H3330 H 0.65823 0.60805 0.71089 0.0
H3331 H 0.64173 0.5773 0.70791 0.0
H3332 H 0.71332 0.60877 0.73119 0.0
H3333 H 0.6478 0.64402 0.75161 0.0
H3334 H 0.64959 0.61847 0.7494 0.0
H3335 H 0.64579 0.63279 0.73014 0.0
C3336 C 0.67355 0.56622 0.74075 0.0
C3337 C 0.65834 0.5637 0.72857 0.0
C3338 C 0.6827 0.58391 0.74264 0.0
C3339 C 0.67688 0.59932 0.73233 0.0
C3340 C 0.66256 0.59649 0.71934 0.0
H3341 H 0.73832 0.70759 0.72967 0.0
H3342 H 0.72383 0.6766 0.72224 0.0
C3343 C 0.65324 0.57887 0.71757 0.0
C3344 C 0.68526 0.61851 0.73577 0.0
H3345 H 0.67439 0.66405 0.74788 0.0
C3346 C 0.70483 0.62088 0.73483 0.0
C3347 C 0.67416 0.63418 0.74084 0.0
C3348 C 0.6532 0.63225 0.74325 0.0
C3349 C 0.71363 0.63854 0.73875 0.0
C3350 C 0.70246 0.65435 0.74327 0.0
C3351 C 0.68289 0.65195 0.74425 0.0
C3352 C 0.71079 0.6734 0.7475 0.0
C3353 C 0.73484 0.63992 0.73852 0.0
C3354 C 0.70761 0.68225 0.7639 0.0
C3355 C 0.71558 0.70014 0.76807 0.0
C3356 C 0.72693 0.70943 0.75592 0.0
C3357 C 0.72979 0.7007 0.73938 0.0
C3358 C 0.72164 0.68292 0.73515 0.0
H3359 H 0.7414 0.6257 0.73982 0.0
H3360 H 0.73908 0.64592 0.72574 0.0
H3361 H 0.74054 0.64941 0.74936 0.0
H3362 H 0.69916 0.67519 0.77357 0.0
H3363 H 0.71313 0.7065 0.78092 0.0
H3364 H 0.80446 0.44796 0.0262 0.0
H3365 H 0.8373 0.45549 0.02057 0.0
H3366 H 0.85336 0.39928 0.03697 0.0
H3367 H 0.8204 0.39151 0.04276 0.0
H3368 H 0.87792 0.43098 0.04953 0.0
H3369 H 0.86304 0.43081 0.97709 0.0
H3370 H 0.84765 0.44552 0.98966 0.0
H3371 H 0.84725 0.42012 -0.00754 0.0
C3372 C 0.81495 0.43723 0.02884 0.0
C3373 C 0.80977 0.41904 0.03473 0.0
C3374 C 0.83369 0.44155 0.02552 0.0
C3375 C 0.84758 0.42777 0.02798 0.0
C3376 C 0.84273 0.41 0.03485 0.0
H3377 H 0.96839 0.43853 0.01024 0.0
H3378 H 0.93731 0.42488 0.01567 0.0
C3379 C 0.82392 0.40563 0.03819 0.0
C3380 C 0.86701 0.43189 0.02273 0.0
H3381 H 0.89274 0.44375 0.98712 0.0
C3382 C 0.88128 0.43354 0.03588 0.0
C3383 C 0.87123 0.43511 0.00488 0.0
C3384 C 0.85654 0.43264 0.99016 0.0
C3385 C 0.8996 0.43925 0.03173 0.0
C3386 C 0.90366 0.44307 0.01394 0.0
C3387 C 0.8895 0.44084 0.00074 0.0
C3388 C 0.92224 0.45049 0.00896 0.0
C3389 C 0.91425 0.44194 0.04647 0.0
C3390 C 0.92388 0.46909 0.00262 0.0
C3391 C 0.94157 0.47692 -0.0006 0.0
C3392 C 0.9579 0.46621 0.00243 0.0
C3393 C 0.95609 0.4472 0.00787 0.0
C3394 C 0.93838 0.4394 0.01109 0.0
H3395 H 0.90792 0.44189 0.05971 0.0
H3396 H 0.92448 0.43015 0.04587 0.0
H3397 H 0.92213 0.45558 0.045 0.0
H3398 H 0.9115 0.47779 0.00078 0.0
H3399 H 0.94248 0.49158 -0.00483 0.0
H3400 H 0.32233 0.03813 0.7384 0.0
H3401 H 0.30076 0.06412 0.74498 0.0
H3402 H 0.3481 0.10047 0.76052 0.0
H3403 H 0.36958 0.07454 0.75457 0.0
H3404 H 0.31882 0.10512 0.78221 0.0
H3405 H 0.29443 0.10827 0.71168 0.0
H3406 H 0.29041 0.08604 0.72247 0.0
H3407 H 0.31408 0.09398 0.71873 0.0
C3408 C 0.32808 0.05161 0.74342 0.0
C3409 C 0.34765 0.05439 0.74579 0.0
C3410 C 0.31576 0.06645 0.74708 0.0
C3411 C 0.32287 0.08432 0.75289 0.0
C3412 C 0.34232 0.0868 0.756 0.0
H3413 H 0.2968 0.19842 0.73812 0.0
H3414 H 0.30461 0.16471 0.73681 0.0
C3415 C 0.35459 0.07197 0.75254 0.0
C3416 C 0.31047 0.10097 0.75483 0.0
H3417 H 0.28414 0.13222 0.73081 0.0
C3418 C 0.31097 0.11094 0.77107 0.0
C3419 C 0.30034 0.1085 0.7402 0.0
C3420 C 0.29982 0.09878 0.72224 0.0
C3421 C 0.30259 0.12883 0.77282 0.0
C3422 C 0.29298 0.13665 0.75803 0.0
C3423 C 0.29149 0.12613 0.74211 0.0
C3424 C 0.28661 0.15665 0.75808 0.0
C3425 C 0.30523 0.13973 0.79012 0.0
C3426 C 0.27353 0.16322 0.7702 0.0
C3427 C 0.26923 0.1826 0.77115 0.0
C3428 C 0.27772 0.1956 0.75979 0.0
C3429 C 0.29007 0.18878 0.74709 0.0
C3430 C 0.29451 0.1695 0.74629 0.0
H3431 H 0.31612 0.13327 0.79893 0.0
H3432 H 0.30938 0.15478 0.78782 0.0
H3433 H 0.29176 0.13969 0.79714 0.0
H3434 H 0.26694 0.15346 0.77913 0.0
H3435 H 0.25948 0.18742 0.78095 0.0
H3436 H 0.20114 0.96866 0.23477 0.0
H3437 H 0.22077 0.94042 0.23763 0.0
H3438 H 0.17998 0.91488 0.27136 0.0
H3439 H 0.15999 0.9428 0.26813 0.0
H3440 H 0.23753 0.92078 0.26493 0.0
H3441 H 0.18179 0.87675 0.23053 0.0
H3442 H 0.18092 0.90242 0.23173 0.0
H3443 H 0.17389 0.88841 0.25017 0.0
C3444 C 0.19647 0.95714 0.243 0.0
C3445 C 0.1789 0.95778 0.251 0.0
C3446 C 0.20771 0.94103 0.24462 0.0
C3447 C 0.20158 0.9254 0.25434 0.0
C3448 C 0.1847 0.9266 0.2634 0.0
H3449 H 0.26213 0.82441 0.28434 0.0
H3450 H 0.24953 0.85655 0.28273 0.0
C3451 C 0.17335 0.94259 0.26162 0.0
C3452 C 0.21219 0.90739 0.25404 0.0
H3453 H 0.20768 0.86018 0.24304 0.0
C3454 C 0.23107 0.90752 0.26009 0.0
C3455 C 0.20385 0.89023 0.24731 0.0
C3456 C 0.18407 0.88942 0.23939 0.0
C3457 C 0.24171 0.89077 0.25999 0.0
C3458 C 0.23304 0.87343 0.25406 0.0
C3459 C 0.21429 0.87345 0.24768 0.0
C3460 C 0.24283 0.85492 0.25463 0.0
C3461 C 0.26214 0.8919 0.266 0.0
C3462 C 0.24317 0.84323 0.2394 0.0
C3463 C 0.25 0.8247 0.24035 0.0
C3464 C 0.25674 0.81756 0.25655 0.0
C3465 C 0.25715 0.82956 0.27163 0.0
C3466 C 0.25008 0.84801 0.27071 0.0
H3467 H 0.26806 0.90651 0.2645 0.0
H3468 H 0.26336 0.88833 0.28021 0.0
H3469 H 0.27077 0.88172 0.25844 0.0
H3470 H 0.23761 0.84827 0.22685 0.0
H3471 H 0.24958 0.81581 0.22849 0.0
H3472 H 0.47824 0.31044 0.42469 0.0
H3473 H 0.47237 0.33015 0.45084 0.0
H3474 H 0.47041 0.38014 0.41839 0.0
H3475 H 0.47564 0.36057 0.39225 0.0
H3476 H 0.49525 0.35597 0.46399 0.0
H3477 H 0.42839 0.39171 0.45014 0.0
H3478 H 0.4352 0.37081 0.43774 0.0
H3479 H 0.44258 0.39433 0.43119 0.0
C3480 C 0.47616 0.32559 0.42309 0.0
C3481 C 0.47752 0.33399 0.40642 0.0
C3482 C 0.47272 0.3368 0.43804 0.0
C3483 C 0.4706 0.35657 0.43656 0.0
C3484 C 0.47135 0.36484 0.41982 0.0
H3485 H 0.52206 0.4482 0.48044 0.0
H3486 H 0.51175 0.41633 0.47122 0.0
C3487 C 0.47459 0.35365 0.40488 0.0
C3488 C 0.47052 0.36907 0.4525 0.0
H3489 H 0.45296 0.41156 0.46616 0.0
C3490 C 0.48561 0.36779 0.46483 0.0
C3491 C 0.45763 0.38414 0.45412 0.0
C3492 C 0.43993 0.38514 0.44267 0.0
C3493 C 0.48951 0.38248 0.47721 0.0
C3494 C 0.47836 0.39901 0.47682 0.0
C3495 C 0.46186 0.39912 0.46612 0.0
C3496 C 0.48529 0.41732 0.48468 0.0
C3497 C 0.50617 0.3806 0.48987 0.0
C3498 C 0.4737 0.42869 0.49506 0.0
C3499 C 0.47945 0.44718 0.50012 0.0
C3500 C 0.49684 0.45457 0.49476 0.0
C3501 C 0.50861 0.44293 0.48482 0.0
C3502 C 0.50283 0.42457 0.47973 0.0
H3503 H 0.50782 0.36554 0.49389 0.0
H3504 H 0.5192 0.38488 0.48317 0.0
H3505 H 0.50476 0.38969 0.5019 0.0
H3506 H 0.46002 0.42344 0.49884 0.0
H3507 H 0.4701 0.45582 0.50783 0.0
H3508 H 0.45835 0.76625 0.16041 0.0
H3509 H 0.42676 0.77122 0.17153 0.0
H3510 H 0.43857 0.7326 0.21407 0.0
H3511 H 0.47001 0.72737 0.20304 0.0
H3512 H 0.4036 0.72599 0.19619 0.0
H3513 H 0.41402 0.80206 0.21661 0.0
H3514 H 0.41959 0.79627 0.19416 0.0
H3515 H 0.43341 0.78655 0.21202 0.0
C3516 C 0.45423 0.7588 0.17213 0.0
C3517 C 0.46674 0.74645 0.18086 0.0
C3518 C 0.43623 0.76175 0.17851 0.0
C3519 C 0.43048 0.75247 0.19374 0.0
C3520 C 0.44281 0.73996 0.20233 0.0
H3521 H 0.33845 0.77026 0.26323 0.0
H3522 H 0.36894 0.76858 0.24917 0.0
C3523 C 0.46078 0.737 0.19599 0.0
C3524 C 0.4115 0.75545 0.20067 0.0
H3525 H 0.38354 0.78876 0.21963 0.0
C3526 C 0.39916 0.73972 0.20126 0.0
C3527 C 0.40591 0.77335 0.20742 0.0
C3528 C 0.41893 0.79053 0.2077 0.0
C3529 C 0.38131 0.74138 0.20846 0.0
C3530 C 0.37561 0.75933 0.21501 0.0
C3531 C 0.38795 0.77508 0.21444 0.0
C3532 C 0.35713 0.76178 0.2231 0.0
C3533 C 0.36889 0.72383 0.20942 0.0
C3534 C 0.34044 0.75898 0.21296 0.0
C3535 C 0.32302 0.7599 0.22093 0.0
C3536 C 0.322 0.7637 0.23919 0.0
C3537 C 0.33875 0.76722 0.24917 0.0
C3538 C 0.35617 0.7663 0.24116 0.0
H3539 H 0.37689 0.71051 0.20737 0.0
H3540 H 0.36208 0.72318 0.22241 0.0
H3541 H 0.35761 0.72439 0.19898 0.0
H3542 H 0.34092 0.75577 0.19894 0.0
H3543 H 0.31038 0.75725 0.21284 0.0
H3544 H 0.97473 0.7122 0.88499 0.0
H3545 H 0.96665 0.68404 0.90179 0.0
H3546 H 0.00251 0.70448 0.94534 0.0
H3547 H 0.0101 0.73314 0.92881 0.0
H3548 H 0.98914 0.65715 0.91283 0.0
H3549 H 0.9561 0.68975 0.97104 0.0
H3550 H 0.96082 0.70306 0.95141 0.0
H3551 H 0.97921 0.69942 0.96788 0.0
C3552 C 0.98084 0.71074 0.89818 0.0
C3553 C -0.00691 0.72482 0.90561 0.0
C3554 C 0.97613 0.69469 0.90779 0.0
C3555 C 0.98367 0.69234 0.92494 0.0
C3556 C -0.00394 0.70629 0.93234 0.0
H3557 H 0.00745 0.59844 0.98828 0.0
H3558 H 0.00351 0.62942 0.97475 0.0
C3559 C 0.00058 0.72253 0.92281 0.0
C3560 C 0.97973 0.67457 0.93448 0.0
H3561 H 0.9663 0.65723 0.97412 0.0
C3562 C 0.9838 0.65717 0.9261 0.0
C3563 C 0.97264 0.67462 0.95175 0.0
C3564 C 0.96675 0.69272 0.96096 0.0
C3565 C 0.98182 0.63988 0.93484 0.0
C3566 C 0.97572 0.64006 0.95239 0.0
C3567 C 0.971 0.65729 0.96062 0.0
C3568 C 0.97618 0.62258 0.96281 0.0
C3569 C 0.98702 0.62154 0.92559 0.0
C3570 C 0.96182 0.60877 0.96084 0.0
C3571 C 0.96389 0.59102 0.96875 0.0
C3572 C 0.98042 0.58689 0.9786 0.0
C3573 C -0.00561 0.60119 0.98108 0.0
C3574 C -0.00777 0.6189 0.9733 0.0
H3575 H -0.00824 0.62391 0.91194 0.0
H3576 H -0.00153 0.61447 0.93323 0.0
H3577 H 0.97469 0.61164 0.92495 0.0
H3578 H 0.94936 0.61148 0.9527 0.0
H3579 H 0.95277 0.58042 0.96681 0.0
H3580 H 0.08812 0.25456 0.64672 0.0
H3581 H 0.11907 0.25427 0.66189 0.0
H3582 H 0.09244 0.25505 0.7123 0.0
H3583 H 0.06146 0.25523 0.6973 0.0
H3584 H 0.13453 0.28146 0.68771 0.0
H3585 H 0.12769 0.2083 0.71417 0.0
H3586 H 0.11274 0.21681 0.69633 0.0
H3587 H 0.10856 0.22396 0.71874 0.0
C3588 C 0.08886 0.25467 0.66103 0.0
C3589 C 0.07237 0.25481 0.67083 0.0
C3590 C 0.10652 0.25452 0.66966 0.0
C3591 C 0.10796 0.25436 0.68817 0.0
C3592 C 0.09157 0.25484 0.69799 0.0
H3593 H 0.20085 0.2508 0.76486 0.0
H3594 H 0.16994 0.25148 0.74971 0.0
C3595 C 0.0739 0.25505 0.68939 0.0
C3596 C 0.12664 0.25384 0.69725 0.0
H3597 H 0.15442 0.22652 0.72396 0.0
C3598 C 0.13896 0.26944 0.69559 0.0
C3599 C 0.13223 0.23813 0.70752 0.0
C3600 C 0.11971 0.22075 0.70923 0.0
C3601 C 0.15671 0.26991 0.70423 0.0
C3602 C 0.16236 0.25416 0.71446 0.0
C3603 C 0.15001 0.23856 0.71611 0.0
C3604 C 0.18107 0.25356 0.72352 0.0
C3605 C 0.16908 0.28742 0.70264 0.0
C3606 C 0.1975 0.25416 0.71375 0.0
C3607 C 0.21515 0.25383 0.72234 0.0
C3608 C 0.21667 0.25273 0.74086 0.0
C3609 C 0.20016 0.2517 0.75058 0.0
C3610 C 0.1825 0.25209 0.74196 0.0
H3611 H 0.16085 0.29999 0.69839 0.0
H3612 H 0.17655 0.29099 0.71541 0.0
H3613 H 0.1798 0.28465 0.6926 0.0
H3614 H 0.19667 0.25486 0.69946 0.0
H3615 H 0.2276 0.25449 0.71445 0.0
H3616 H 0.53573 0.67096 0.14179 0.0
H3617 H 0.53528 0.64338 0.1216 0.0
H3618 H 0.50918 0.67707 0.08074 0.0
H3619 H 0.50947 0.70477 0.10083 0.0
H3620 H 0.49158 0.64107 0.08598 0.0
H3621 H 0.56873 0.63496 0.07837 0.0
H3622 H 0.56151 0.63627 0.10089 0.0
H3623 H 0.55798 0.65633 0.08677 0.0
C3624 C 0.52992 0.67256 0.1285 0.0
C3625 C 0.52267 0.6901 0.12293 0.0
C3626 C 0.5298 0.65681 0.11696 0.0
C3627 C 0.52246 0.65831 0.09963 0.0
C3628 C 0.51503 0.6757 0.09405 0.0
H3629 H 0.52948 0.57042 0.01658 0.0
H3630 H 0.53146 0.60083 0.0331 0.0
C3631 C 0.51521 0.6915 0.10556 0.0
C3632 C 0.52189 0.6415 0.08757 0.0
H3633 H 0.5497 0.60873 0.06762 0.0
C3634 C 0.50427 0.63408 0.08184 0.0
C3635 C 0.5385 0.63259 0.08204 0.0
C3636 C 0.55777 0.64051 0.08718 0.0
C3637 C 0.50281 0.61754 0.07119 0.0
C3638 C 0.51939 0.60814 0.06633 0.0
C3639 C 0.53703 0.61593 0.07152 0.0
C3640 C 0.51862 0.58979 0.05643 0.0
C3641 C 0.48353 0.61017 0.0653 0.0
C3642 C 0.51109 0.57354 0.06427 0.0
C3643 C 0.51001 0.55621 0.05496 0.0
C3644 C 0.51647 0.5548 0.03761 0.0
C3645 C 0.52433 0.57106 0.02989 0.0
C3646 C 0.52548 0.58842 0.03929 0.0
H3647 H 0.47269 0.62136 0.06639 0.0
H3648 H 0.48355 0.60481 0.05141 0.0
H3649 H 0.47946 0.59815 0.0738 0.0
H3650 H 0.50602 0.57428 0.07761 0.0
H3651 H 0.50395 0.54397 0.06133 0.0
H3652 H 0.03691 0.77594 0.82019 0.0
H3653 H 0.06548 0.77798 0.80301 0.0
H3654 H 0.09873 0.78781 0.85103 0.0
H3655 H 0.07035 0.7855 0.86833 0.0
H3656 H 0.09272 0.80766 0.8008 0.0
H3657 H 0.1231 0.74131 0.82784 0.0
H3658 H 0.09876 0.74753 0.83039 0.0
H3659 H 0.11684 0.75844 0.84447 0.0
C3660 C 0.05032 0.77851 0.82709 0.0
C3661 C 0.05144 0.78037 0.84562 0.0
C3662 C 0.06657 0.77975 0.81725 0.0
C3663 C 0.08416 0.7828 0.8258 0.0
C3664 C 0.08528 0.78512 0.84424 0.0
H3665 H 0.19232 0.81311 0.78446 0.0
H3666 H 0.16063 0.81425 0.79609 0.0
C3667 C 0.06906 0.78383 0.85409 0.0
C3668 C 0.10146 0.78311 0.81551 0.0
H3669 H 0.14321 0.76057 0.81095 0.0
C3670 C 0.10376 0.79733 0.80289 0.0
C3671 C 0.11562 0.76942 0.81815 0.0
C3672 C 0.11344 0.75319 0.83082 0.0
C3673 C 0.12016 0.79845 0.79307 0.0
C3674 C 0.13463 0.78518 0.79621 0.0
C3675 C 0.13212 0.77079 0.80862 0.0
C3676 C 0.15264 0.78577 0.78697 0.0
C3677 C 0.12175 0.81365 0.77931 0.0
C3678 C 0.15859 0.76945 0.77793 0.0
C3679 C 0.17679 0.76856 0.7717 0.0
C3680 C 0.18943 0.78406 0.77424 0.0
C3681 C 0.18305 0.80083 0.78246 0.0
C3682 C 0.16484 0.80162 0.78889 0.0
H3683 H 0.10769 0.81895 0.77502 0.0
H3684 H 0.13004 0.82592 0.78502 0.0
H3685 H 0.12905 0.80822 0.76753 0.0
H3686 H 0.14941 0.75703 0.7764 0.0
H3687 H 0.1812 0.75526 0.76577 0.0
H3688 H 0.01569 0.2859 0.58659 0.0
H3689 H 0.01358 0.31414 0.56806 0.0
H3690 H -0.00023 0.3484 0.61356 0.0
H3691 H 0.00173 0.32028 0.63217 0.0
H3692 H 0.97704 0.3549 0.58194 0.0
H3693 H 0.05412 0.35762 0.5709 0.0
H3694 H 0.04229 0.3353 0.5657 0.0
H3695 H 0.04404 0.34375 0.58822 0.0
C3696 C 0.0121 0.29943 0.59263 0.0
C3697 C 0.00901 0.30091 0.61086 0.0
C3698 C 0.01096 0.31553 0.58204 0.0
C3699 C 0.00674 0.33333 0.58952 0.0
C3700 C 0.00309 0.33475 0.60758 0.0
H3701 H 0.02593 0.44809 0.55809 0.0
H3702 H 0.02457 0.41698 0.57201 0.0
C3703 C 0.00426 0.31869 0.61819 0.0
C3704 C 0.00668 0.35068 0.57871 0.0
H3705 H 0.03561 0.38101 0.55706 0.0
C3706 C 0.98978 0.36057 0.57636 0.0
C3707 C 0.02341 0.35804 0.57164 0.0
C3708 C 0.04206 0.34827 0.5743 0.0
C3709 C 0.98921 0.37782 0.56724 0.0
C3710 C 0.00595 0.3852 0.56021 0.0
C3711 C 0.0228 0.37519 0.56239 0.0
C3712 C 0.00656 0.40389 0.55154 0.0
C3713 C 0.97087 0.38836 0.56566 0.0
C3714 C -0.00302 0.40673 0.53534 0.0
C3715 C -0.00227 0.42452 0.52729 0.0
C3716 C 0.00811 0.43971 0.53535 0.0
C3717 C 0.01777 0.43672 0.55155 0.0
C3718 C 0.01705 0.41895 0.55952 0.0
H3719 H 0.96008 0.38247 0.57446 0.0
H3720 H 0.9731 0.40373 0.56895 0.0
H3721 H 0.96529 0.3872 0.55183 0.0
H3722 H 0.98901 0.39517 0.52888 0.0
H3723 H 0.99019 0.42637 0.5148 0.0
H3724 H 0.44917 0.24928 0.36954 0.0
H3725 H 0.41918 0.23177 0.36848 0.0
H3726 H 0.40026 0.26527 0.32424 0.0
H3727 H 0.43001 0.28315 0.32541 0.0
H3728 H 0.37585 0.2645 0.35269 0.0
H3729 H 0.39754 0.1914 0.33273 0.0
H3730 H 0.40978 0.20271 0.35135 0.0
H3731 H 0.41239 0.21211 0.32966 0.0
C3732 C 0.43871 0.25279 0.35943 0.0
C3733 C 0.44191 0.26769 0.34758 0.0
C3734 C 0.42164 0.24268 0.35882 0.0
C3735 C 0.40763 0.24717 0.34623 0.0
C3736 C 0.41098 0.26163 0.33407 0.0
H3737 H 0.31747 0.21514 0.28895 0.0
H3738 H 0.34656 0.21228 0.30622 0.0
C3739 C 0.42797 0.27183 0.33474 0.0
C3740 C 0.38887 0.23791 0.34627 0.0
H3741 H 0.36511 0.19689 0.33438 0.0
C3742 C 0.37341 0.24962 0.34902 0.0
C3743 C 0.38596 0.21846 0.34173 0.0
C3744 C 0.40223 0.20537 0.33859 0.0
C3745 C 0.35499 0.24293 0.34573 0.0
C3746 C 0.352 0.2237 0.34009 0.0
C3747 C 0.36746 0.21153 0.33886 0.0
C3748 C 0.33388 0.21771 0.33143 0.0
C3749 C 0.33918 0.2571 0.34664 0.0
C3750 C 0.31679 0.21977 0.34004 0.0
C3751 C 0.30007 0.22192 0.33009 0.0
C3752 C 0.30037 0.22159 0.31151 0.0
C3753 C 0.3169 0.21604 0.30323 0.0
C3754 C 0.33358 0.21423 0.31313 0.0
H3755 H 0.34441 0.27194 0.34912 0.0
H3756 H 0.33065 0.25684 0.3341 0.0
H3757 H 0.32984 0.25332 0.35756 0.0
H3758 H 0.31669 0.22181 0.35425 0.0
H3759 H 0.28741 0.2257 0.33686 0.0
H3760 H 0.45597 0.5069 0.31562 0.0
H3761 H 0.46706 0.51677 0.3453 0.0
H3762 H 0.4132 0.54183 0.355 0.0
H3763 H 0.40188 0.53199 0.32537 0.0
H3764 H 0.46726 0.55451 0.36458 0.0
H3765 H 0.42087 0.49823 0.39203 0.0
H3766 H 0.42687 0.49832 0.36904 0.0
H3767 H 0.4102 0.51503 0.37722 0.0
C3768 C 0.44655 0.51475 0.32394 0.0
C3769 C 0.42795 0.51841 0.31823 0.0
C3770 C 0.45294 0.52044 0.34085 0.0
C3771 C 0.44084 0.52981 0.35229 0.0
C3772 C 0.42264 0.53445 0.34633 0.0
H3773 H 0.46064 0.53487 0.46678 0.0
H3774 H 0.44618 0.54121 0.43774 0.0
C3775 C 0.41623 0.5288 0.32941 0.0
C3776 C 0.44677 0.533 0.37093 0.0
H3777 H 0.44126 0.51477 0.41191 0.0
C3778 C 0.46145 0.54604 0.37502 0.0
C3779 C 0.43902 0.52196 0.38443 0.0
C3780 C 0.42344 0.5075 0.38057 0.0
C3781 C 0.46898 0.54796 0.39231 0.0
C3782 C 0.46189 0.53619 0.40563 0.0
C3783 C 0.44664 0.52379 0.40166 0.0
C3784 C 0.47122 0.53493 0.42328 0.0
C3785 C 0.48458 0.56239 0.39608 0.0
C3786 C 0.49007 0.52935 0.42473 0.0
C3787 C 0.49836 0.52575 0.44124 0.0
C3788 C 0.48786 0.52743 0.4566 0.0
C3789 C 0.46908 0.53341 0.45517 0.0
C3790 C 0.46081 0.5371 0.43862 0.0
H3791 H 0.4837 0.57444 0.38677 0.0
H3792 H 0.48418 0.56816 0.40982 0.0
H3793 H 0.49836 0.55545 0.39434 0.0
H3794 H 0.4982 0.52705 0.41303 0.0
H3795 H 0.51285 0.52112 0.44189 0.0
H3796 H 0.23936 0.62204 0.06186 0.0
H3797 H 0.23521 0.64249 0.08778 0.0
H3798 H 0.24752 0.69214 0.0571 0.0
H3799 H 0.2521 0.67173 0.03109 0.0
H3800 H 0.26622 0.69274 0.08903 0.0
H3801 H 0.19083 0.67606 0.09811 0.0
H3802 H 0.20482 0.65499 0.09724 0.0
H3803 H 0.2027 0.66982 0.07812 0.0
C3804 C 0.24116 0.63731 0.06057 0.0
C3805 C 0.24599 0.64525 0.04436 0.0
C3806 C 0.23861 0.64899 0.07538 0.0
C3807 C 0.24059 0.66885 0.07424 0.0
C3808 C 0.24573 0.67684 0.05819 0.0
H3809 H 0.23464 0.75468 0.15992 0.0
H3810 H 0.23336 0.73998 0.13028 0.0
C3811 C 0.24839 0.66515 0.04336 0.0
C3812 C 0.23807 0.68114 0.09005 0.0
H3813 H 0.20764 0.69066 0.123 0.0
C3814 C 0.25331 0.69255 0.0963 0.0
C3815 C 0.22115 0.68094 0.09945 0.0
C3816 C 0.20388 0.66994 0.09278 0.0
C3817 C 0.25242 0.70302 0.1122 0.0
C3818 C 0.23582 0.70209 0.12196 0.0
C3819 C 0.22035 0.69124 0.11544 0.0
C3820 C 0.23491 0.71108 0.13966 0.0
C3821 C 0.26946 0.71435 0.11888 0.0
C3822 C 0.23575 0.6996 0.15461 0.0
C3823 C 0.23669 0.70789 0.17149 0.0
C3824 C 0.23664 0.72786 0.17374 0.0
C3825 C 0.235 0.73929 0.15866 0.0
C3826 C 0.23418 0.73094 0.14174 0.0
H3827 H 0.28191 0.71196 0.11064 0.0
H3828 H 0.2662 0.72979 0.11881 0.0
H3829 H 0.27314 0.71051 0.13272 0.0
H3830 H 0.23638 0.68422 0.1532 0.0
H3831 H 0.23827 0.69864 0.18273 0.0
H3832 H 0.08045 0.5222 0.8225 0.0
H3833 H 0.06405 0.51306 0.84893 0.0
H3834 H 0.10456 0.4689 0.85865 0.0
H3835 H 0.1214 0.47823 0.83236 0.0
H3836 H 0.04744 0.47886 0.85775 0.0
H3837 H 0.1061 0.49888 0.90516 0.0
H3838 H 0.1059 0.50578 0.88231 0.0
H3839 H 0.11197 0.48189 0.88827 0.0
C3840 C 0.08593 0.51055 0.83025 0.0
C3841 C 0.10234 0.50105 0.8254 0.0
C3842 C 0.07649 0.50532 0.84532 0.0
C3843 C 0.08322 0.49047 0.85584 0.0
C3844 C 0.09935 0.48065 0.85088 0.0
H3845 H 0.0429 0.45648 0.95857 0.0
H3846 H 0.05702 0.45465 0.92956 0.0
C3847 C 0.10892 0.48597 0.83584 0.0
C3848 C 0.07339 0.48564 0.87213 0.0
H3849 H 0.07858 0.48612 0.91709 0.0
C3850 C 0.05427 0.48031 0.87073 0.0
C3851 C 0.08237 0.48754 0.88903 0.0
C3852 C 0.10267 0.49399 0.89139 0.0
C3853 C 0.04378 0.47717 0.88583 0.0
C3854 C 0.05265 0.47956 0.90268 0.0
C3855 C 0.0719 0.48424 0.90409 0.0
C3856 C 0.04202 0.47881 0.91909 0.0
C3857 C 0.02327 0.47154 0.88367 0.0
C3858 C 0.0287 0.49284 0.92264 0.0
C3859 C 0.02068 0.49401 0.93921 0.0
C3860 C 0.02589 0.48118 0.95251 0.0
C3861 C 0.03857 0.46657 0.94861 0.0
C3862 C 0.04667 0.46549 0.93206 0.0
H3863 H 0.0199 0.46543 0.87029 0.0
H3864 H 0.01932 0.46097 0.89371 0.0
H3865 H 0.01452 0.48436 0.88553 0.0
H3866 H 0.02518 0.50343 0.91287 0.0
H3867 H 0.01097 0.50542 0.94181 0.0
H3868 H 0.26379 0.32661 0.56094 0.0
H3869 H 0.28329 0.30828 0.58135 0.0
H3870 H 0.32263 0.35561 0.587 0.0
H3871 H 0.30234 0.37452 0.56745 0.0
H3872 H 0.318 0.29541 0.5851 0.0
H3873 H 0.30683 0.35167 0.63656 0.0
H3874 H 0.29511 0.3522 0.61518 0.0
H3875 H 0.31955 0.35912 0.61774 0.0
C3876 C 0.2767 0.33302 0.56638 0.0
C3877 C 0.28137 0.35208 0.563 0.0
C3878 C 0.28792 0.32251 0.57797 0.0
C3879 C 0.30418 0.33075 0.5861 0.0
C3880 C 0.30981 0.3492 0.58137 0.0
H3881 H 0.33881 0.2832 0.68771 0.0
H3882 H 0.34633 0.29657 0.65909 0.0
C3883 C 0.29828 0.35994 0.57017 0.0
C3884 C 0.31358 0.32071 0.60094 0.0
H3885 H 0.31914 0.32303 0.64585 0.0
C3886 C 0.31866 0.30158 0.59834 0.0
C3887 C 0.31457 0.3288 0.61825 0.0
C3888 C 0.30862 0.349 0.62221 0.0
C3889 C 0.32308 0.28992 0.61272 0.0
C3890 C 0.32263 0.29768 0.63 0.0
C3891 C 0.31951 0.31721 0.63249 0.0
C3892 C 0.3211 0.28554 0.64563 0.0
C3893 C 0.32707 0.26913 0.60944 0.0
C3894 C 0.30462 0.27462 0.64737 0.0
C3895 C 0.29996 0.2675 0.66376 0.0
C3896 C 0.31179 0.27106 0.67874 0.0
C3897 C 0.32912 0.28061 0.67657 0.0
C3898 C 0.33362 0.28801 0.66018 0.0
H3899 H 0.33279 0.26673 0.5961 0.0
H3900 H 0.3372 0.26368 0.61956 0.0
H3901 H 0.31375 0.26077 0.61015 0.0
H3902 H 0.29455 0.27296 0.63638 0.0
H3903 H 0.2864 0.26048 0.66484 0.0
H3904 H 0.42262 0.5077 0.22219 0.0
H3905 H 0.4347 0.49621 0.19422 0.0
H3906 H 0.38515 0.4606 0.18564 0.0
H3907 H 0.37269 0.47245 0.21355 0.0
H3908 H 0.44283 0.45885 0.18494 0.0
H3909 H 0.38838 0.48915 0.1392 0.0
H3910 H 0.39094 0.49669 0.16207 0.0
H3911 H 0.38013 0.47404 0.15636 0.0
C3912 C 0.4142 0.49755 0.21429 0.0
C3913 C 0.3967 0.491 0.22001 0.0
C3914 C 0.42115 0.49095 0.19836 0.0
C3915 C 0.41078 0.47762 0.18787 0.0
C3916 C 0.39322 0.4711 0.19345 0.0
H3917 H 0.45478 0.44275 0.0843 0.0
H3918 H 0.43714 0.43915 0.11142 0.0
C3919 C 0.38615 0.47785 0.20937 0.0
C3920 C 0.41875 0.47065 0.17122 0.0
H3921 H 0.4142 0.4744 0.12642 0.0
C3922 C 0.43641 0.46191 0.17212 0.0
C3923 C 0.41024 0.47456 0.15455 0.0
C3924 C 0.39144 0.48423 0.15286 0.0
C3925 C 0.44634 0.45811 0.15681 0.0
C3926 C 0.43835 0.46312 0.14029 0.0
C3927 C 0.42015 0.47054 0.13922 0.0
C3928 C 0.44986 0.46396 0.12451 0.0
C3929 C 0.46575 0.44973 0.15839 0.0
C3930 C 0.46275 0.47907 0.12308 0.0
C3931 C 0.4725 0.48143 0.1076 0.0
C3932 C 0.46969 0.46858 0.09326 0.0
C3933 C 0.45712 0.45305 0.09499 0.0
C3934 C 0.44713 0.45086 0.11047 0.0
H3935 H 0.46824 0.44288 0.17136 0.0
H3936 H 0.46781 0.43905 0.14765 0.0
H3937 H 0.47643 0.46128 0.15706 0.0
H3938 H 0.46477 0.48945 0.13377 0.0
H3939 H 0.48166 0.49382 0.10668 0.0
H3940 H 0.26429 0.646 0.92223 0.0
H3941 H 0.27219 0.66822 0.89908 0.0
H3942 H 0.28581 0.71177 0.93855 0.0
H3943 H 0.27715 0.68973 0.96184 0.0
H3944 H 0.2662 0.72646 0.91222 0.0
H3945 H 0.32311 0.68428 0.88391 0.0
H3946 H 0.30198 0.6701 0.88425 0.0
H3947 H 0.31302 0.67851 0.90476 0.0
C3948 C 0.26906 0.66027 0.926 0.0
C3949 C 0.27022 0.66609 0.94384 0.0
C3950 C 0.27372 0.67293 0.91276 0.0
C3951 C 0.28009 0.69151 0.91709 0.0
C3952 C 0.2811 0.69744 0.93491 0.0
H3953 H 0.31955 0.74916 0.82368 0.0
H3954 H 0.31963 0.73911 0.85448 0.0
C3955 C 0.27615 0.68485 0.94818 0.0
C3956 C 0.28493 0.70484 0.90287 0.0
H3957 H 0.30827 0.70694 0.86432 0.0
C3958 C 0.27568 0.72238 0.9019 0.0
C3959 C 0.29775 0.69987 0.88969 0.0
C3960 C 0.30968 0.68226 0.89083 0.0
C3961 C 0.2779 0.73443 0.88746 0.0
C3962 C 0.28914 0.72842 0.87333 0.0
C3963 C 0.29938 0.71151 0.87494 0.0
C3964 C 0.28924 0.73831 0.85613 0.0
C3965 C 0.26805 0.75335 0.8875 0.0
C3966 C 0.27219 0.74185 0.84694 0.0
C3967 C 0.27215 0.74805 0.82952 0.0
C3968 C 0.28914 0.75026 0.82076 0.0
C3969 C 0.30624 0.74752 0.83013 0.0
C3970 C 0.30629 0.74175 0.84771 0.0
H3971 H 0.26706 0.75913 0.9012 0.0
H3972 H 0.27544 0.76403 0.87945 0.0
H3973 H 0.25346 0.75131 0.88207 0.0
H3974 H 0.25883 0.73874 0.85284 0.0
H3975 H 0.25875 0.74983 0.82255 0.0
H3976 H 0.16409 0.51739 0.71958 0.0
H3977 H 0.15402 0.5245 0.68916 0.0
H3978 H 0.09671 0.50999 0.70122 0.0
H3979 H 0.10654 0.50311 0.73158 0.0
H3980 H 0.13648 0.50053 0.66414 0.0
H3981 H 0.09159 0.56227 0.67865 0.0
H3982 H 0.1086 0.55322 0.69454 0.0
H3983 H 0.08569 0.54209 0.69174 0.0
C3984 C 0.14934 0.51576 0.71574 0.0
C3985 C 0.13607 0.50979 0.72797 0.0
C3986 C 0.14363 0.51987 0.6984 0.0
C3987 C 0.12459 0.51819 0.69312 0.0
C3988 C 0.1114 0.51188 0.70521 0.0
H3989 H 0.06322 0.48958 0.60135 0.0
H3990 H 0.08347 0.49246 0.62785 0.0
C3991 C 0.11707 0.50779 0.7225 0.0
C3992 C 0.1184 0.52202 0.67475 0.0
H3993 H 0.08491 0.54562 0.65083 0.0
C3994 C 0.12549 0.51067 0.66114 0.0
C3995 C 0.10439 0.53557 0.67082 0.0
C3996 C 0.09728 0.54913 0.6847 0.0
C3997 C 0.11781 0.51143 0.64389 0.0
C3998 C 0.1025 0.52362 0.64037 0.0
C3999 C 0.09648 0.53609 0.65365 0.0
C4000 C 0.09113 0.522 0.62377 0.0
C4001 C 0.12573 0.49873 0.62975 0.0
C4002 C 0.08835 0.53784 0.61296 0.0
C4003 C 0.07653 0.5363 0.59787 0.0
C4004 C 0.06715 0.51898 0.59357 0.0
C4005 C 0.07003 0.50318 0.60446 0.0
C4006 C 0.08184 0.50472 0.61944 0.0
H4007 H 0.14077 0.49556 0.63271 0.0
H4008 H 0.1178 0.48498 0.62921 0.0
H4009 H 0.1245 0.50536 0.61655 0.0
H4010 H 0.09524 0.55136 0.61626 0.0
H4011 H 0.07446 0.54872 0.58975 0.0
H4012 H 0.19011 0.38828 0.47019 0.0
H4013 H 0.18104 0.36764 0.44479 0.0
H4014 H 0.2229 0.32702 0.46106 0.0
H4015 H 0.23202 0.34734 0.48637 0.0
H4016 H 0.20517 0.35578 0.4181 0.0
H4017 H 0.17529 0.29368 0.45224 0.0
H4018 H 0.17831 0.3169 0.46276 0.0
H4019 H 0.19794 0.30108 0.46126 0.0
C4020 C 0.19735 0.37493 0.46838 0.0
C4021 C 0.21181 0.36947 0.4803 0.0
C4022 C 0.19207 0.36313 0.45394 0.0
C4023 C 0.201 0.34564 0.45134 0.0
C4024 C 0.21549 0.34024 0.46313 0.0
H4025 H 0.22784 0.26318 0.37686 0.0
H4026 H 0.2186 0.28038 0.40349 0.0
C4027 C 0.22083 0.352 0.47748 0.0
C4028 C 0.19649 0.33364 0.43553 0.0
H4029 H 0.18571 0.28784 0.42261 0.0
C4030 C 0.20047 0.34105 0.41897 0.0
C4031 C 0.19037 0.31447 0.43682 0.0
C4032 C 0.18505 0.3061 0.45422 0.0
C4033 C 0.19985 0.32938 0.40376 0.0
C4034 C 0.19465 0.3099 0.40517 0.0
C4035 C 0.18965 0.30277 0.42159 0.0
C4036 C 0.19671 0.29641 0.39018 0.0
C4037 C 0.20605 0.3377 0.38656 0.0
C4038 C 0.18666 0.29892 0.37417 0.0
C4039 C 0.19201 0.2892 0.35893 0.0
C4040 C 0.20729 0.27668 0.3596 0.0
C4041 C 0.21598 0.27269 0.37601 0.0
C4042 C 0.21074 0.28255 0.39121 0.0
H4043 H 0.21283 0.35198 0.3885 0.0
H4044 H 0.21614 0.32813 0.38002 0.0
H4045 H 0.1936 0.33926 0.37751 0.0
H4046 H 0.17552 0.30928 0.37323 0.0
H4047 H 0.18496 0.29232 0.34643 0.0
H4048 H 0.29221 0.42216 0.52179 0.0
H4049 H 0.31978 0.44326 0.52157 0.0
H4050 H 0.28386 0.49206 0.5167 0.0
H4051 H 0.256 0.47103 0.51684 0.0
H4052 H 0.32828 0.47413 0.49391 0.0
H4053 H 0.32011 0.49911 0.56362 0.0
H4054 H 0.31007 0.47659 0.55584 0.0
H4055 H 0.30008 0.49846 0.54836 0.0
C4056 C 0.29011 0.43735 0.52051 0.0
C4057 C 0.27191 0.44493 0.51943 0.0
C4058 C 0.30587 0.44936 0.52037 0.0
C4059 C 0.30374 0.46913 0.51927 0.0
C4060 C 0.28568 0.4768 0.51766 0.0
H4061 H 0.40642 0.54108 0.53486 0.0
H4062 H 0.37262 0.5335 0.53095 0.0
C4063 C 0.26984 0.46476 0.51767 0.0
C4064 C 0.32064 0.48151 0.52042 0.0
H4065 H 0.34893 0.50597 0.55045 0.0
C4066 C 0.33264 0.4815 0.50611 0.0
C4067 C 0.32612 0.49114 0.53634 0.0
C4068 C 0.31352 0.49142 0.55201 0.0
C4069 C 0.35057 0.48998 0.50766 0.0
C4070 C 0.35666 0.49829 0.52404 0.0
C4071 C 0.34416 0.49951 0.53795 0.0
C4072 C 0.37667 0.50317 0.52759 0.0
C4073 C 0.3632 0.48922 0.49202 0.0
C4074 C 0.38986 0.48852 0.52759 0.0
C4075 C 0.40896 0.49273 0.52977 0.0
C4076 C 0.41531 0.51171 0.53217 0.0
C4077 C 0.40196 0.52634 0.53292 0.0
C4078 C 0.38271 0.52207 0.53072 0.0
H4079 H 0.3549 0.4878 0.47937 0.0
H4080 H 0.37231 0.50219 0.49158 0.0
H4081 H 0.37242 0.47662 0.49314 0.0
H4082 H 0.38537 0.47381 0.52544 0.0
H4083 H 0.41879 0.48112 0.52877 0.0
H4084 H 0.80521 0.05595 0.49753 0.0
H4085 H 0.83714 0.04407 0.49503 0.0
H4086 H 0.85564 0.09877 0.47645 0.0
H4087 H 0.82361 0.11092 0.47888 0.0
H4088 H 0.86123 0.04416 0.46332 0.0
H4089 H 0.88965 0.08613 0.52168 0.0
H4090 H 0.86476 0.08143 0.51812 0.0
H4091 H 0.87647 0.09865 0.50492 0.0
C4092 C 0.81602 0.06551 0.49289 0.0
C4093 C 0.81188 0.08445 0.48852 0.0
C4094 C 0.83423 0.05864 0.49139 0.0
C4095 C 0.84866 0.07058 0.48564 0.0
C4096 C 0.84463 0.0894 0.48101 0.0
H4097 H 0.96473 0.03406 0.46967 0.0
H4098 H 0.93377 0.04843 0.46468 0.0
C4099 C 0.82635 0.09629 0.48241 0.0
C4100 C 0.86804 0.06334 0.48517 0.0
H4101 H 0.91031 0.06519 0.50778 0.0
C4102 C 0.87208 0.04889 0.47286 0.0
C4103 C 0.88199 0.06951 0.49777 0.0
C4104 C 0.87811 0.08471 0.51148 0.0
C4105 C 0.88975 0.04017 0.47306 0.0
C4106 C 0.90354 0.04608 0.4859 0.0
C4107 C 0.89963 0.0608 0.49794 0.0
C4108 C 0.92169 0.03631 0.48791 0.0
C4109 C 0.89341 0.02424 0.46004 0.0
C4110 C 0.92494 0.02465 0.5025 0.0
C4111 C 0.94248 0.01639 0.50536 0.0
C4112 C 0.95716 0.01981 0.49374 0.0
C4113 C 0.9537 0.03115 0.47885 0.0
C4114 C 0.93606 0.03935 0.47596 0.0
H4115 H 0.88066 0.02027 0.45186 0.0
H4116 H 0.9047 0.02871 0.45113 0.0
H4117 H 0.89839 0.01145 0.46717 0.0
H4118 H 0.91395 0.0222 0.51184 0.0
H4119 H 0.94466 0.00774 0.51695 0.0
H4120 H 0.68079 0.04705 0.30064 0.0
H4121 H 0.69905 0.07687 0.2999 0.0
H4122 H 0.65109 0.10524 0.27669 0.0
H4123 H 0.63269 0.07565 0.27738 0.0
H4124 H 0.68673 0.10606 0.2573 0.0
H4125 H 0.69421 0.12958 0.32786 0.0
H4126 H 0.69826 0.10482 0.32275 0.0
H4127 H 0.67508 0.11425 0.31973 0.0
C4128 C 0.674 0.05971 0.2957 0.0
C4129 C 0.65532 0.05892 0.28894 0.0
C4130 C 0.68444 0.07673 0.29534 0.0
C4131 C 0.67635 0.09315 0.28827 0.0
C4132 C 0.65751 0.09265 0.28223 0.0
H4133 H 0.71492 0.20882 0.27683 0.0
H4134 H 0.69763 0.17938 0.28277 0.0
C4135 C 0.64704 0.07572 0.28265 0.0
C4136 C 0.68796 0.11037 0.28554 0.0
H4137 H 0.71064 0.14761 0.30699 0.0
C4138 C 0.69201 0.11515 0.26814 0.0
C4139 C 0.6947 0.12209 0.29976 0.0
C4140 C 0.69032 0.1176 0.31861 0.0
C4141 C 0.7027 0.13147 0.26455 0.0
C4142 C 0.70951 0.14317 0.27876 0.0
C4143 C 0.70544 0.13844 0.29618 0.0
C4144 C 0.72031 0.16081 0.27565 0.0
C4145 C 0.70638 0.13632 0.24561 0.0
C4146 C 0.73879 0.15997 0.26975 0.0
C4147 C 0.74876 0.17675 0.26636 0.0
C4148 C 0.74032 0.19459 0.26877 0.0
C4149 C 0.72179 0.19531 0.27476 0.0
C4150 C 0.71191 0.17854 0.27824 0.0
H4151 H 0.69782 0.12732 0.23609 0.0
H4152 H 0.70326 0.15154 0.24319 0.0
H4153 H 0.72148 0.13411 0.24301 0.0
H4154 H 0.74547 0.14634 0.26776 0.0
H4155 H 0.76302 0.17574 0.26182 0.0
H4156 H 0.68304 0.90625 0.06432 0.0
H4157 H 0.65583 0.92342 0.05258 0.0
H4158 H 0.64528 0.87855 0.01372 0.0
H4159 H 0.67226 0.86112 0.02562 0.0
H4160 H 0.6578 0.93481 0.01698 0.0
H4161 H 0.59207 0.89345 0.02881 0.0
H4162 H 0.61353 0.89018 0.04175 0.0
H4163 H 0.61119 0.88034 0.01974 0.0
C4164 C 0.67439 0.89966 0.0538 0.0
C4165 C 0.67975 0.88243 0.04583 0.0
C4166 C 0.65898 0.90953 0.04702 0.0
C4167 C 0.64872 0.9023 0.03221 0.0
C4168 C 0.65293 0.88425 0.02527 0.0
H4169 H 0.55811 0.95897 0.97491 0.0
H4170 H 0.58579 0.93899 0.97871 0.0
C4171 C 0.66831 0.87426 0.03215 0.0
C4172 C 0.63553 0.91486 0.02269 0.0
H4173 H 0.58924 0.92098 0.01154 0.0
C4174 C 0.6428 0.93177 0.01571 0.0
C4175 C 0.6161 0.91062 0.02079 0.0
C4176 C 0.60765 0.89274 0.02825 0.0
C4177 C 0.631 0.94493 0.00737 0.0
C4178 C 0.61146 0.94109 0.00616 0.0
C4179 C 0.60429 0.92379 0.01243 0.0
C4180 C 0.59788 0.9557 0.0006 0.0
C4181 C 0.63946 0.96293 0.00019 0.0
C4182 C 0.59612 0.97223 0.01107 0.0
C4183 C 0.58034 0.98364 0.00898 0.0
C4184 C 0.56605 0.97858 -0.00354 0.0
C4185 C 0.56886 0.96321 0.98471 0.0
C4186 C 0.58462 0.95171 0.98689 0.0
H4187 H 0.6545 0.96101 -0.00295 0.0
H4188 H 0.63163 0.96751 0.9881 0.0
H4189 H 0.63875 0.97451 0.01031 0.0
H4190 H 0.60611 0.97541 0.02186 0.0
H4191 H 0.5786 -0.00454 0.01816 0.0
H4192 H 0.34885 0.45666 0.30521 0.0
H4193 H 0.33328 0.4272 0.31419 0.0
H4194 H 0.3764 0.39424 0.28953 0.0
H4195 H 0.39228 0.42345 0.28102 0.0
H4196 H 0.31847 0.40122 0.29209 0.0
H4197 H 0.3715 0.36587 0.33458 0.0
H4198 H 0.37352 0.39072 0.32895 0.0
H4199 H 0.38141 0.37241 0.31403 0.0
C4200 C 0.35519 0.44314 0.30199 0.0
C4201 C 0.37177 0.4424 0.29236 0.0
C4202 C 0.34631 0.42633 0.30717 0.0
C4203 C 0.35385 0.40853 0.30281 0.0
C4204 C 0.37062 0.40779 0.29354 0.0
H4205 H 0.31646 0.29791 0.2761 0.0
H4206 H 0.33313 0.32804 0.28267 0.0
C4207 C 0.37959 0.42455 0.2885 0.0
C4208 C 0.34312 0.39073 0.3059 0.0
H4209 H 0.3481 0.34493 0.31977 0.0
C4210 C 0.32477 0.38906 0.29855 0.0
C4211 C 0.35135 0.37488 0.31435 0.0
C4212 C 0.37046 0.37614 0.32358 0.0
C4213 C 0.31491 0.37164 0.29843 0.0
C4214 C 0.32364 0.35556 0.30586 0.0
C4215 C 0.34157 0.35736 0.31399 0.0
C4216 C 0.31493 0.33647 0.30371 0.0
C4217 C 0.29563 0.37022 0.28952 0.0
C4218 C 0.29948 0.33121 0.31368 0.0
C4219 C 0.28993 0.31399 0.31 0.0
C4220 C 0.29567 0.30191 0.2962 0.0
C4221 C 0.31163 0.30696 0.28672 0.0
C4222 C 0.32122 0.3241 0.2905 0.0
H4223 H 0.29131 0.38384 0.2834 0.0
H4224 H 0.2954 0.35886 0.27911 0.0
H4225 H 0.28508 0.36624 0.29937 0.0
H4226 H 0.2945 0.34068 0.32393 0.0
H4227 H 0.2777 0.31047 0.31755 0.0
H4228 H 0.21347 0.56987 0.97914 0.0
H4229 H 0.18405 0.55282 0.98452 0.0
H4230 H 0.15491 0.60628 0.98734 0.0
H4231 H 0.1843 0.62351 0.98183 0.0
H4232 H 0.16238 0.55812 0.01523 0.0
H4233 H 0.12148 0.5727 0.95323 0.0
H4234 H 0.14677 0.57559 0.9551 0.0
H4235 H 0.13178 0.59335 0.96433 0.0
C4236 C 0.20076 0.57801 0.98065 0.0
C4237 C 0.20119 0.59804 0.98008 0.0
C4238 C 0.184 0.56824 0.98378 0.0
C4239 C 0.16736 0.5783 0.98623 0.0
C4240 C 0.16759 0.59826 0.98523 0.0
H4241 H 0.05331 0.54693 0.00915 0.0
H4242 H 0.08317 0.56358 0.00516 0.0
C4243 C 0.18438 0.60808 0.98213 0.0
C4244 C 0.14999 0.56793 0.99075 0.0
H4245 H 0.10505 0.55786 0.97613 0.0
C4246 C 0.14984 0.55797 0.00668 0.0
C4247 C 0.13373 0.56784 0.97954 0.0
C4248 C 0.13339 0.5778 0.96202 0.0
C4249 C 0.13364 0.54816 0.01188 0.0
C4250 C 0.11736 0.54809 0.00067 0.0
C4251 C 0.11757 0.558 0.98471 0.0
C4252 C 0.09982 0.53798 0.0052 0.0
C4253 C 0.13395 0.53836 0.02948 0.0
C4254 C 0.09937 0.51807 0.00691 0.0
C4255 C 0.08229 0.50847 0.00933 0.0
C4256 C 0.06541 0.51866 0.00982 0.0
C4257 C 0.06606 0.53866 0.00874 0.0
C4258 C 0.0831 0.54821 0.00643 0.0
H4259 H 0.14565 0.5438 0.03834 0.0
H4260 H 0.12045 0.54032 0.03624 0.0
H4261 H 0.13597 0.52285 0.0273 0.0
H4262 H 0.1121 0.5099 0.00569 0.0
H4263 H 0.0822 0.49305 0.00999 0.0
H4264 H 0.6644 0.92565 0.29092 0.0
H4265 H 0.68676 0.89971 0.28869 0.0
H4266 H 0.73191 0.94037 0.28189 0.0
H4267 H 0.70957 0.96659 0.28429 0.0
H4268 H 0.70863 0.89382 0.25806 0.0
H4269 H 0.75278 0.90285 0.31985 0.0
H4270 H 0.72965 0.91305 0.31745 0.0
H4271 H 0.74913 0.92352 0.30644 0.0
C4272 C 0.67912 0.92913 0.2892 0.0
C4273 C 0.68522 0.94815 0.28771 0.0
C4274 C 0.69186 0.91429 0.28792 0.0
C4275 C 0.71095 0.91816 0.28517 0.0
C4276 C 0.71726 0.93714 0.28422 0.0
H4277 H 0.77633 0.82004 0.24886 0.0
H4278 H 0.76654 0.85332 0.25171 0.0
C4279 C 0.70448 0.95207 0.28555 0.0
C4280 C 0.72374 0.9021 0.2821 0.0
H4281 H 0.75943 0.87679 0.30115 0.0
C4282 C 0.71993 0.89019 0.26733 0.0
C4283 C 0.73841 0.89753 0.29427 0.0
C4284 C 0.74278 0.90979 0.31048 0.0
C4285 C 0.72982 0.87328 0.26477 0.0
C4286 C 0.74418 0.86839 0.27718 0.0
C4287 C 0.74852 0.88071 0.2916 0.0
C4288 C 0.75297 0.84941 0.27661 0.0
C4289 C 0.72405 0.86027 0.24939 0.0
C4290 C 0.74934 0.83651 0.29007 0.0
C4291 C 0.75497 0.81761 0.28855 0.0
C4292 C 0.76433 0.81124 0.2735 0.0
C4293 C 0.76896 0.82447 0.26051 0.0
C4294 C 0.76336 0.84346 0.2621 0.0
H4295 H 0.71056 0.8646 0.24292 0.0
H4296 H 0.73509 0.86067 0.23936 0.0
H4297 H 0.7225 0.84532 0.25378 0.0
H4298 H 0.74137 0.84084 0.30139 0.0
H4299 H 0.75135 0.80785 0.29888 0.0
H4300 H 0.83594 0.04125 0.77608 0.0
H4301 H 0.81704 0.07021 0.77484 0.0
H4302 H 0.86772 0.10441 0.77203 0.0
H4303 H 0.88667 0.07565 0.77309 0.0
H4304 H 0.81864 0.10238 0.79816 0.0
H4305 H 0.83503 0.1217 0.72952 0.0
H4306 H 0.83929 0.09826 0.7382 0.0
H4307 H 0.85554 0.11759 0.74333 0.0
C4308 C 0.84304 0.05494 0.77512 0.0
C4309 C 0.86278 0.05618 0.77458 0.0
C4310 C 0.83223 0.07144 0.77445 0.0
C4311 C 0.841 0.08937 0.7731 0.0
C4312 C 0.86069 0.09065 0.77274 0.0
H4313 H 0.80419 0.20319 0.79503 0.0
H4314 H 0.81702 0.17104 0.79627 0.0
C4315 C 0.87149 0.07421 0.77342 0.0
C4316 C 0.82968 0.10686 0.77236 0.0
H4317 H 0.8209 0.14575 0.74714 0.0
C4318 C 0.81895 0.1118 0.78696 0.0
C4319 C 0.82994 0.11893 0.75761 0.0
C4320 C 0.84042 0.1138 0.74119 0.0
C4321 C 0.80899 0.12894 0.78745 0.0
C4322 C 0.81006 0.14148 0.77307 0.0
C4323 C 0.82025 0.13618 0.75822 0.0
C4324 C 0.80114 0.1604 0.77321 0.0
C4325 C 0.79741 0.13345 0.80331 0.0
C4326 C 0.78812 0.16511 0.75974 0.0
C4327 C 0.78091 0.18349 0.75889 0.0
C4328 C 0.78666 0.19753 0.77147 0.0
C4329 C 0.79942 0.19267 0.78518 0.0
C4330 C 0.80667 0.17427 0.78599 0.0
H4331 H 0.79367 0.12033 0.81053 0.0
H4332 H 0.80571 0.14297 0.81255 0.0
H4333 H 0.78425 0.14085 0.79938 0.0
H4334 H 0.78375 0.15461 0.74971 0.0
H4335 H 0.77107 0.18675 0.74817 0.0
loop_
_geom_bond_atom_site_label_1
_geom_bond_atom_site_label_2
_geom_bond_distance
_geom_bond_site_symmetry_2
_ccdc_geom_bond_type
C0 O1 1.306 . S
C0 O3 1.160 . S
O1 C0 1.306 . S
O1 Cd2 2.228 . S
Cd2 O1 2.228 . S
Cd2 O6 2.273 . S
Cd2 O10 2.277 . S
O3 C0 1.160 . S
O3 Cd4 2.203 . S
Cd4 O3 2.203 . S
Cd4 O6 2.411 . S
Cd4 O7 2.333 . S
Cd4 O8 2.352 . S
Cd4 O12 2.277 . S
Cd4 O13 2.356 . S
C5 O10 1.209 . S
C5 O12 1.226 . S
O6 Cd2 2.273 . S
O6 Cd4 2.411 . S
O6 C9 1.320 . S
O7 Cd4 2.333 . S
O7 C9 1.214 . S
O8 Cd4 2.352 . S
O8 C11 1.258 . S
C9 O6 1.320 . S
C9 O7 1.214 . S
O10 Cd2 2.277 . S
O10 C5 1.209 . S
C11 O8 1.258 . S
C11 O13 1.282 . S
O12 Cd4 2.277 . S
O12 C5 1.226 . S
O13 Cd4 2.356 . S
O13 C11 1.282 . S
C14 O15 1.308 1_655 S
C14 O17 1.160 . S
O15 C14 1.308 1_455 S
O15 Cd16 2.225 . S
Cd16 O15 2.225 . S
Cd16 O20 2.273 . S
Cd16 O24 2.277 . S
O17 C14 1.160 . S
O17 Cd18 2.203 1_655 S
Cd18 O17 2.203 1_455 S
Cd18 O20 2.411 . S
Cd18 O21 2.333 . S
Cd18 O22 2.352 . S
Cd18 O26 2.277 . S
Cd18 O27 2.356 . S
C19 O24 1.209 . S
C19 O26 1.226 . S
O20 Cd16 2.273 . S
O20 Cd18 2.411 . S
O20 C23 1.320 . S
O21 Cd18 2.333 . S
O21 C23 1.214 . S
O22 Cd18 2.352 . S
O22 C25 1.258 . S
C23 O20 1.320 . S
C23 O21 1.214 . S
O24 Cd16 2.277 . S
O24 C19 1.209 . S
C25 O22 1.258 . S
C25 O27 1.282 . S
O26 Cd18 2.277 . S
O26 C19 1.226 . S
O27 Cd18 2.356 . S
O27 C25 1.282 . S
C28 O29 1.306 . S
C28 O31 1.160 . S
O29 C28 1.306 . S
O29 Cd30 2.228 . S
Cd30 O29 2.228 . S
Cd30 O34 2.273 . S
Cd30 O38 2.277 . S
O31 C28 1.160 . S
O31 Cd32 2.203 . S
Cd32 O31 2.203 . S
Cd32 O34 2.411 . S
Cd32 O35 2.333 . S
Cd32 O36 2.352 . S
Cd32 O40 2.277 . S
Cd32 O41 2.356 . S
C33 O38 1.209 . S
C33 O40 1.226 . S
O34 Cd30 2.273 . S
O34 Cd32 2.411 . S
O34 C37 1.320 . S
O35 Cd32 2.333 . S
O35 C37 1.214 . S
O36 Cd32 2.352 . S
O36 C39 1.258 . S
C37 O34 1.320 . S
C37 O35 1.214 . S
O38 Cd30 2.277 . S
O38 C33 1.209 . S
C39 O36 1.258 . S
C39 O41 1.282 . S
O40 Cd32 2.277 . S
O40 C33 1.226 . S
O41 Cd32 2.356 . S
O41 C39 1.282 . S
C42 O43 1.306 . S
C42 O45 1.160 . S
O43 C42 1.306 . S
O43 Cd44 2.228 . S
Cd44 O43 2.228 . S
Cd44 O48 2.273 . S
Cd44 O52 2.277 . S
O45 C42 1.160 . S
O45 Cd46 2.203 . S
Cd46 O45 2.203 . S
Cd46 O48 2.411 . S
Cd46 O49 2.333 . S
Cd46 O50 2.352 . S
Cd46 O54 2.277 . S
Cd46 O55 2.356 . S
C47 O52 1.209 . S
C47 O54 1.226 . S
O48 Cd44 2.273 . S
O48 Cd46 2.411 . S
O48 C51 1.320 . S
O49 Cd46 2.333 . S
O49 C51 1.214 . S
O50 Cd46 2.352 . S
O50 C53 1.258 . S
C51 O48 1.320 . S
C51 O49 1.214 . S
O52 Cd44 2.277 . S
O52 C47 1.209 . S
C53 O50 1.258 . S
C53 O55 1.282 . S
O54 Cd46 2.277 . S
O54 C47 1.226 . S
O55 Cd46 2.356 . S
O55 C53 1.282 . S
C56 O57 1.306 . S
C56 O59 1.160 . S
O57 C56 1.306 . S
O57 Cd58 2.228 . S
Cd58 O57 2.228 . S
Cd58 O62 2.273 . S
Cd58 O66 2.277 . S
O59 C56 1.160 . S
O59 Cd60 2.203 . S
Cd60 O59 2.203 . S
Cd60 O62 2.411 . S
Cd60 O63 2.333 . S
Cd60 O64 2.352 1_545 S
Cd60 O68 2.277 . S
Cd60 O69 2.356 1_545 S
C61 O66 1.209 . S
C61 O68 1.226 . S
O62 Cd58 2.273 . S
O62 Cd60 2.411 . S
O62 C65 1.320 . S
O63 Cd60 2.333 . S
O63 C65 1.214 . S
O64 Cd60 2.352 1_565 S
O64 C67 1.258 . S
C65 O62 1.320 . S
C65 O63 1.214 . S
O66 Cd58 2.277 . S
O66 C61 1.209 . S
C67 O64 1.258 . S
C67 O69 1.282 . S
O68 Cd60 2.277 . S
O68 C61 1.226 . S
O69 Cd60 2.356 1_565 S
O69 C67 1.282 . S
C70 O71 1.306 . S
C70 O73 1.160 . S
O71 C70 1.306 . S
O71 Cd72 2.228 . S
Cd72 O71 2.228 . S
Cd72 O76 2.273 . S
Cd72 O80 2.277 . S
O73 C70 1.160 . S
O73 Cd74 2.203 . S
Cd74 O73 2.203 . S
Cd74 O76 2.411 . S
Cd74 O77 2.333 . S
Cd74 O78 2.352 . S
Cd74 O82 2.277 . S
Cd74 O83 2.356 . S
C75 O80 1.209 . S
C75 O82 1.226 . S
O76 Cd72 2.273 . S
O76 Cd74 2.411 . S
O76 C79 1.320 . S
O77 Cd74 2.333 . S
O77 C79 1.214 . S
O78 Cd74 2.352 . S
O78 C81 1.258 . S
C79 O76 1.320 . S
C79 O77 1.214 . S
O80 Cd72 2.277 . S
O80 C75 1.209 . S
C81 O78 1.258 . S
C81 O83 1.282 . S
O82 Cd74 2.277 . S
O82 C75 1.226 . S
O83 Cd74 2.356 . S
O83 C81 1.282 . S
C84 O85 1.306 1_545 S
C84 O87 1.160 . S
O85 C84 1.306 1_565 S
O85 Cd86 2.228 . S
Cd86 O85 2.228 . S
Cd86 O90 2.273 1_565 S
Cd86 O94 2.277 . S
O87 C84 1.160 . S
O87 Cd88 2.203 . S
Cd88 O87 2.203 . S
Cd88 O90 2.411 . S
Cd88 O91 2.333 . S
Cd88 O92 2.352 . S
Cd88 O96 2.277 1_545 S
Cd88 O97 2.356 . S
C89 O94 1.209 . S
C89 O96 1.226 . S
O90 Cd86 2.273 1_545 S
O90 Cd88 2.411 . S
O90 C93 1.320 . S
O91 Cd88 2.333 . S
O91 C93 1.214 . S
O92 Cd88 2.352 . S
O92 C95 1.258 . S
C93 O90 1.320 . S
C93 O91 1.214 . S
O94 Cd86 2.277 . S
O94 C89 1.209 . S
C95 O92 1.258 . S
C95 O97 1.282 . S
O96 Cd88 2.277 1_565 S
O96 C89 1.226 . S
O97 Cd88 2.356 . S
O97 C95 1.282 . S
C98 O99 1.306 . S
C98 O101 1.160 . S
O99 C98 1.306 . S
O99 Cd100 2.228 . S
Cd100 O99 2.228 . S
Cd100 O104 2.273 . S
Cd100 O108 2.277 . S
O101 C98 1.160 . S
O101 Cd102 2.203 . S
Cd102 O101 2.203 . S
Cd102 O104 2.411 . S
Cd102 O105 2.333 . S
Cd102 O106 2.352 1_554 S
Cd102 O110 2.277 . S
Cd102 O111 2.356 1_554 S
C103 O108 1.209 . S
C103 O110 1.226 . S
O104 Cd100 2.273 . S
O104 Cd102 2.411 . S
O104 C107 1.320 . S
O105 Cd102 2.333 . S
O105 C107 1.214 . S
O106 Cd102 2.352 1_556 S
O106 C109 1.258 . S
C107 O104 1.320 . S
C107 O105 1.214 . S
O108 Cd100 2.277 . S
O108 C103 1.209 . S
C109 O106 1.258 . S
C109 O111 1.282 . S
O110 Cd102 2.277 . S
O110 C103 1.226 . S
O111 Cd102 2.356 1_556 S
O111 C109 1.282 . S
C112 O113 1.306 . S
C112 O115 1.160 . S
O113 C112 1.306 . S
O113 Cd114 2.228 . S
Cd114 O113 2.228 . S
Cd114 O118 2.273 . S
Cd114 O122 2.277 . S
O115 C112 1.160 . S
O115 Cd116 2.203 . S
Cd116 O115 2.203 . S
Cd116 O118 2.411 . S
Cd116 O119 2.333 . S
Cd116 O120 2.352 . S
Cd116 O124 2.277 . S
Cd116 O125 2.356 . S
C117 O122 1.209 . S
C117 O124 1.226 . S
O118 Cd114 2.273 . S
O118 Cd116 2.411 . S
O118 C121 1.320 . S
O119 Cd116 2.333 . S
O119 C121 1.214 . S
O120 Cd116 2.352 . S
O120 C123 1.258 . S
C121 O118 1.320 . S
C121 O119 1.214 . S
O122 Cd114 2.277 . S
O122 C117 1.209 . S
C123 O120 1.258 . S
C123 O125 1.282 . S
O124 Cd116 2.277 . S
O124 C117 1.226 . S
O125 Cd116 2.356 . S
O125 C123 1.282 . S
C126 O127 1.306 . S
C126 O129 1.160 . S
O127 C126 1.306 . S
O127 Cd128 2.228 . S
Cd128 O127 2.228 . S
Cd128 O132 2.273 . S
Cd128 O136 2.277 . S
O129 C126 1.160 . S
O129 Cd130 2.203 . S
Cd130 O129 2.203 . S
Cd130 O132 2.411 . S
Cd130 O133 2.333 . S
Cd130 O134 2.352 . S
Cd130 O138 2.277 . S
Cd130 O139 2.356 . S
C131 O136 1.209 . S
C131 O138 1.226 . S
O132 Cd128 2.273 . S
O132 Cd130 2.411 . S
O132 C135 1.320 . S
O133 Cd130 2.333 . S
O133 C135 1.214 . S
O134 Cd130 2.352 . S
O134 C137 1.258 . S
C135 O132 1.320 . S
C135 O133 1.214 . S
O136 Cd128 2.277 . S
O136 C131 1.209 . S
C137 O134 1.258 . S
C137 O139 1.282 . S
O138 Cd130 2.277 . S
O138 C131 1.226 . S
O139 Cd130 2.356 . S
O139 C137 1.282 . S
C140 O141 1.306 . S
C140 O143 1.160 . S
O141 C140 1.306 . S
O141 Cd142 2.228 . S
Cd142 O141 2.228 . S
Cd142 O146 2.273 . S
Cd142 O150 2.277 . S
O143 C140 1.160 . S
O143 Cd144 2.203 . S
Cd144 O143 2.203 . S
Cd144 O146 2.411 . S
Cd144 O147 2.333 . S
Cd144 O148 2.352 . S
Cd144 O152 2.277 . S
Cd144 O153 2.356 . S
C145 O150 1.209 . S
C145 O152 1.226 . S
O146 Cd142 2.273 . S
O146 Cd144 2.411 . S
O146 C149 1.320 . S
O147 Cd144 2.333 . S
O147 C149 1.214 . S
O148 Cd144 2.352 . S
O148 C151 1.258 . S
C149 O146 1.320 . S
C149 O147 1.214 . S
O150 Cd142 2.277 . S
O150 C145 1.209 . S
C151 O148 1.258 . S
C151 O153 1.282 . S
O152 Cd144 2.277 . S
O152 C145 1.226 . S
O153 Cd144 2.356 . S
O153 C151 1.282 . S
C154 O155 1.306 . S
C154 O157 1.160 . S
O155 C154 1.306 . S
O155 Cd156 2.228 . S
Cd156 O155 2.228 . S
Cd156 O160 2.273 . S
Cd156 O164 2.277 . S
O157 C154 1.160 . S
O157 Cd158 2.203 . S
Cd158 O157 2.203 . S
Cd158 O160 2.411 . S
Cd158 O161 2.333 . S
Cd158 O162 2.352 . S
Cd158 O166 2.277 . S
Cd158 O167 2.356 . S
C159 O164 1.209 . S
C159 O166 1.226 . S
O160 Cd156 2.273 . S
O160 Cd158 2.411 . S
O160 C163 1.320 . S
O161 Cd158 2.333 . S
O161 C163 1.214 . S
O162 Cd158 2.352 . S
O162 C165 1.258 . S
C163 O160 1.320 . S
C163 O161 1.214 . S
O164 Cd156 2.277 . S
O164 C159 1.209 . S
C165 O162 1.258 . S
C165 O167 1.282 . S
O166 Cd158 2.277 . S
O166 C159 1.226 . S
O167 Cd158 2.356 . S
O167 C165 1.282 . S
C168 O169 1.306 . S
C168 O171 1.160 . S
O169 C168 1.306 . S
O169 Cd170 2.228 1_655 S
Cd170 O169 2.228 1_455 S
Cd170 O174 2.273 . S
Cd170 O178 2.277 . S
O171 C168 1.160 . S
O171 Cd172 2.203 1_655 S
Cd172 O171 2.203 1_455 S
Cd172 O174 2.411 . S
Cd172 O175 2.333 . S
Cd172 O176 2.350 1_455 S
Cd172 O180 2.277 1_455 S
Cd172 O181 2.356 . S
C173 O178 1.215 . S
C173 O180 1.224 1_455 S
O174 Cd170 2.273 . S
O174 Cd172 2.411 . S
O174 C177 1.320 . S
O175 Cd172 2.333 . S
O175 C177 1.214 . S
O176 Cd172 2.350 1_655 S
O176 C179 1.255 1_655 S
C177 O174 1.320 . S
C177 O175 1.214 . S
O178 Cd170 2.277 . S
O178 C173 1.215 . S
C179 O176 1.255 1_455 S
C179 O181 1.282 . S
O180 Cd172 2.277 1_655 S
O180 C173 1.224 1_655 S
O181 Cd172 2.356 . S
O181 C179 1.282 . S
C182 O183 1.306 1_655 S
C182 O185 1.160 . S
O183 C182 1.306 1_455 S
O183 Cd184 2.228 . S
Cd184 O183 2.228 . S
Cd184 O188 2.273 . S
Cd184 O192 2.277 . S
O185 C182 1.160 . S
O185 Cd186 2.203 1_655 S
Cd186 O185 2.203 1_455 S
Cd186 O188 2.411 . S
Cd186 O189 2.333 . S
Cd186 O190 2.352 . S
Cd186 O194 2.277 . S
Cd186 O195 2.356 . S
C187 O192 1.209 . S
C187 O194 1.226 . S
O188 Cd184 2.273 . S
O188 Cd186 2.411 . S
O188 C191 1.320 . S
O189 Cd186 2.333 . S
O189 C191 1.214 . S
O190 Cd186 2.352 . S
O190 C193 1.258 . S
C191 O188 1.320 . S
C191 O189 1.214 . S
O192 Cd184 2.277 . S
O192 C187 1.209 . S
C193 O190 1.258 . S
C193 O195 1.282 . S
O194 Cd186 2.277 . S
O194 C187 1.226 . S
O195 Cd186 2.356 . S
O195 C193 1.282 . S
C196 O197 1.306 . S
C196 O199 1.160 . S
O197 C196 1.306 . S
O197 Cd198 2.228 . S
Cd198 O197 2.228 . S
Cd198 O202 2.273 . S
Cd198 O206 2.277 . S
O199 C196 1.160 . S
O199 Cd200 2.203 . S
Cd200 O199 2.203 . S
Cd200 O202 2.411 . S
Cd200 O203 2.333 . S
Cd200 O204 2.352 . S
Cd200 O208 2.277 . S
Cd200 O209 2.356 . S
C201 O206 1.209 . S
C201 O208 1.226 . S
O202 Cd198 2.273 . S
O202 Cd200 2.411 . S
O202 C205 1.320 . S
O203 Cd200 2.333 . S
O203 C205 1.214 . S
O204 Cd200 2.352 . S
O204 C207 1.258 . S
C205 O202 1.320 . S
C205 O203 1.214 . S
O206 Cd198 2.277 . S
O206 C201 1.209 . S
C207 O204 1.258 . S
C207 O209 1.282 . S
O208 Cd200 2.277 . S
O208 C201 1.226 . S
O209 Cd200 2.356 . S
O209 C207 1.282 . S
C210 O211 1.306 . S
C210 O213 1.160 . S
O211 C210 1.306 . S
O211 Cd212 2.228 . S
Cd212 O211 2.228 . S
Cd212 O216 2.273 . S
Cd212 O220 2.277 . S
O213 C210 1.160 . S
O213 Cd214 2.203 . S
Cd214 O213 2.203 . S
Cd214 O216 2.411 . S
Cd214 O217 2.333 . S
Cd214 O218 2.352 . S
Cd214 O222 2.277 . S
Cd214 O223 2.356 . S
C215 O220 1.209 . S
C215 O222 1.226 . S
O216 Cd212 2.273 . S
O216 Cd214 2.411 . S
O216 C219 1.320 . S
O217 Cd214 2.333 . S
O217 C219 1.214 . S
O218 Cd214 2.352 . S
O218 C221 1.258 . S
C219 O216 1.320 . S
C219 O217 1.214 . S
O220 Cd212 2.277 . S
O220 C215 1.209 . S
C221 O218 1.258 . S
C221 O223 1.282 . S
O222 Cd214 2.277 . S
O222 C215 1.226 . S
O223 Cd214 2.356 . S
O223 C221 1.282 . S
C224 O225 1.306 1_545 S
C224 O227 1.160 . S
O225 C224 1.306 1_565 S
O225 Cd226 2.228 . S
Cd226 O225 2.228 . S
Cd226 O230 2.273 1_565 S
Cd226 O234 2.277 . S
O227 C224 1.160 . S
O227 Cd228 2.203 . S
Cd228 O227 2.203 . S
Cd228 O230 2.411 . S
Cd228 O231 2.333 . S
Cd228 O232 2.352 . S
Cd228 O236 2.277 1_545 S
Cd228 O237 2.356 . S
C229 O234 1.209 . S
C229 O236 1.226 . S
O230 Cd226 2.273 1_545 S
O230 Cd228 2.411 . S
O230 C233 1.320 . S
O231 Cd228 2.333 . S
O231 C233 1.214 . S
O232 Cd228 2.352 . S
O232 C235 1.258 . S
C233 O230 1.320 . S
C233 O231 1.214 . S
O234 Cd226 2.277 . S
O234 C229 1.209 . S
C235 O232 1.258 . S
C235 O237 1.282 . S
O236 Cd228 2.277 1_565 S
O236 C229 1.226 . S
O237 Cd228 2.356 . S
O237 C235 1.282 . S
C238 O239 1.306 . S
C238 O241 1.160 . S
O239 C238 1.306 . S
O239 Cd240 2.228 . S
Cd240 O239 2.228 . S
Cd240 O244 2.273 . S
Cd240 O248 2.277 . S
O241 C238 1.160 . S
O241 Cd242 2.203 . S
Cd242 O241 2.203 . S
Cd242 O244 2.411 . S
Cd242 O245 2.333 . S
Cd242 O246 2.352 . S
Cd242 O250 2.277 . S
Cd242 O251 2.356 . S
C243 O248 1.209 . S
C243 O250 1.226 . S
O244 Cd240 2.273 . S
O244 Cd242 2.411 . S
O244 C247 1.320 . S
O245 Cd242 2.333 . S
O245 C247 1.214 . S
O246 Cd242 2.352 . S
O246 C249 1.258 . S
C247 O244 1.320 . S
C247 O245 1.214 . S
O248 Cd240 2.277 . S
O248 C243 1.209 . S
C249 O246 1.258 . S
C249 O251 1.282 . S
O250 Cd242 2.277 . S
O250 C243 1.226 . S
O251 Cd242 2.356 . S
O251 C249 1.282 . S
C252 O253 1.306 . S
C252 O255 1.160 . S
O253 C252 1.306 . S
O253 Cd254 2.228 . S
Cd254 O253 2.228 . S
Cd254 O258 2.273 . S
Cd254 O262 2.277 . S
O255 C252 1.160 . S
O255 Cd256 2.203 . S
Cd256 O255 2.203 . S
Cd256 O258 2.411 . S
Cd256 O259 2.333 . S
Cd256 O260 2.352 1_545 S
Cd256 O264 2.277 . S
Cd256 O265 2.356 1_545 S
C257 O262 1.209 . S
C257 O264 1.226 . S
O258 Cd254 2.273 . S
O258 Cd256 2.411 . S
O258 C261 1.320 . S
O259 Cd256 2.333 . S
O259 C261 1.214 . S
O260 Cd256 2.352 1_565 S
O260 C263 1.258 . S
C261 O258 1.320 . S
C261 O259 1.214 . S
O262 Cd254 2.277 . S
O262 C257 1.209 . S
C263 O260 1.258 . S
C263 O265 1.282 . S
O264 Cd256 2.277 . S
O264 C257 1.226 . S
O265 Cd256 2.356 1_565 S
O265 C263 1.282 . S
C266 O267 1.306 . S
C266 O269 1.160 . S
O267 C266 1.306 . S
O267 Cd268 2.228 1_554 S
Cd268 O267 2.228 1_556 S
Cd268 O272 2.273 1_556 S
Cd268 O276 2.277 . S
O269 C266 1.160 . S
O269 Cd270 2.203 . S
Cd270 O269 2.203 . S
Cd270 O272 2.411 . S
Cd270 O273 2.333 . S
Cd270 O274 2.352 . S
Cd270 O278 2.294 . S
Cd270 O279 2.356 . S
C271 O276 1.209 . S
C271 O278 1.209 1_556 S
O272 Cd268 2.273 1_554 S
O272 Cd270 2.411 . S
O272 C275 1.320 . S
O273 Cd270 2.333 . S
O273 C275 1.214 . S
O274 Cd270 2.352 . S
O274 C277 1.258 . S
C275 O272 1.320 . S
C275 O273 1.214 . S
O276 Cd268 2.277 . S
O276 C271 1.209 . S
C277 O274 1.258 . S
C277 O279 1.282 . S
O278 Cd270 2.294 . S
O278 C271 1.209 1_554 S
O279 Cd270 2.356 . S
O279 C277 1.282 . S
C280 O281 1.306 . S
C280 O283 1.160 1_554 S
O281 C280 1.306 . S
O281 Cd282 2.228 . S
Cd282 O281 2.228 . S
Cd282 O286 2.329 . S
Cd282 O290 2.277 . S
O283 C280 1.160 1_556 S
O283 Cd284 2.203 . S
Cd284 O283 2.203 . S
Cd284 O286 2.402 1_556 S
Cd284 O287 2.333 . S
Cd284 O288 2.352 . S
Cd284 O292 2.277 1_556 S
Cd284 O293 2.356 . S
C285 O290 1.209 . S
C285 O292 1.226 . S
O286 Cd282 2.329 . S
O286 Cd284 2.402 1_554 S
O286 C289 1.316 1_554 S
O287 Cd284 2.333 . S
O287 C289 1.222 . S
O288 Cd284 2.352 . S
O288 C291 1.258 . S
C289 O286 1.316 1_556 S
C289 O287 1.222 . S
O290 Cd282 2.277 . S
O290 C285 1.209 . S
C291 O288 1.258 . S
C291 O293 1.282 . S
O292 Cd284 2.277 1_554 S
O292 C285 1.226 . S
O293 Cd284 2.356 . S
O293 C291 1.282 . S
C294 O295 1.306 . S
C294 O297 1.160 . S
O295 C294 1.306 . S
O295 Cd296 2.228 . S
Cd296 O295 2.228 . S
Cd296 O300 2.273 . S
Cd296 O304 2.277 . S
O297 C294 1.160 . S
O297 Cd298 2.203 . S
Cd298 O297 2.203 . S
Cd298 O300 2.411 . S
Cd298 O301 2.333 . S
Cd298 O302 2.352 . S
Cd298 O306 2.277 . S
Cd298 O307 2.356 . S
C299 O304 1.209 . S
C299 O306 1.226 . S
O300 Cd296 2.273 . S
O300 Cd298 2.411 . S
O300 C303 1.320 . S
O301 Cd298 2.333 . S
O301 C303 1.214 . S
O302 Cd298 2.352 . S
O302 C305 1.258 . S
C303 O300 1.320 . S
C303 O301 1.214 . S
O304 Cd296 2.277 . S
O304 C299 1.209 . S
C305 O302 1.258 . S
C305 O307 1.282 . S
O306 Cd298 2.277 . S
O306 C299 1.226 . S
O307 Cd298 2.356 . S
O307 C305 1.282 . S
C308 O309 1.306 . S
C308 O311 1.160 . S
O309 C308 1.306 . S
O309 Cd310 2.228 . S
Cd310 O309 2.228 . S
Cd310 O314 2.273 . S
Cd310 O318 2.277 . S
O311 C308 1.160 . S
O311 Cd312 2.203 . S
Cd312 O311 2.203 . S
Cd312 O314 2.411 . S
Cd312 O315 2.333 . S
Cd312 O316 2.352 . S
Cd312 O320 2.277 . S
Cd312 O321 2.356 . S
C313 O318 1.209 . S
C313 O320 1.226 . S
O314 Cd310 2.273 . S
O314 Cd312 2.411 . S
O314 C317 1.320 . S
O315 Cd312 2.333 . S
O315 C317 1.214 . S
O316 Cd312 2.352 . S
O316 C319 1.258 . S
C317 O314 1.320 . S
C317 O315 1.214 . S
O318 Cd310 2.277 . S
O318 C313 1.209 . S
C319 O316 1.258 . S
C319 O321 1.282 . S
O320 Cd312 2.277 . S
O320 C313 1.226 . S
O321 Cd312 2.356 . S
O321 C319 1.282 . S
C322 O323 1.306 . S
C322 O325 1.160 . S
O323 C322 1.306 . S
O323 Cd324 2.228 . S
Cd324 O323 2.228 . S
Cd324 O328 2.273 . S
Cd324 O332 2.277 . S
O325 C322 1.160 . S
O325 Cd326 2.203 . S
Cd326 O325 2.203 . S
Cd326 O328 2.411 . S
Cd326 O329 2.333 . S
Cd326 O330 2.352 . S
Cd326 O334 2.277 . S
Cd326 O335 2.356 . S
C327 O332 1.209 . S
C327 O334 1.226 . S
O328 Cd324 2.273 . S
O328 Cd326 2.411 . S
O328 C331 1.320 . S
O329 Cd326 2.333 . S
O329 C331 1.214 . S
O330 Cd326 2.352 . S
O330 C333 1.258 . S
C331 O328 1.320 . S
C331 O329 1.214 . S
O332 Cd324 2.277 . S
O332 C327 1.209 . S
C333 O330 1.258 . S
C333 O335 1.282 . S
O334 Cd326 2.277 . S
O334 C327 1.226 . S
O335 Cd326 2.356 . S
O335 C333 1.282 . S
C336 O352 1.232 1_556 S
C336 O354 1.254 . S
N337 C338 1.333 1_565 S
N337 C342 1.307 . S
N337 Zn343 2.020 1_665 S
C338 N337 1.333 1_545 S
C338 C339 1.370 1_545 S
C338 H356 0.952 . S
C339 C338 1.370 1_565 S
C339 C340 1.426 . S
C339 H366 0.925 1_565 S
C340 C339 1.426 . S
C340 C341 1.357 . S
C341 C340 1.357 . S
C341 C342 1.370 . S
C341 H367 0.950 . S
C342 N337 1.307 . S
C342 C341 1.370 . S
C342 H360 0.948 . S
Zn343 N337 2.020 1_445 S
Zn343 O352 2.067 . S
Zn343 O358 2.034 . S
Zn343 O362 2.025 1_545 S
Zn343 O364 2.024 1_545 S
C344 O363 1.246 . S
C344 O364 1.249 . S
N345 C346 1.307 1_554 S
N345 C347 1.333 . S
N345 Zn351 2.020 . S
C346 N345 1.307 1_556 S
C346 C350 1.370 . S
C346 H357 0.948 . S
C347 N345 1.333 . S
C347 C348 1.379 . S
C347 H355 0.952 . S
C348 C347 1.379 . S
C348 C349 1.390 . S
C348 H368 0.949 . S
C349 C348 1.390 . S
C349 C350 1.357 1_554 S
C350 C346 1.370 . S
C350 C349 1.357 1_556 S
C350 H369 0.950 . S
Zn351 N345 2.020 . S
Zn351 O354 2.025 1_554 S
Zn351 O359 2.024 . S
Zn351 O361 2.039 . S
Zn351 O363 2.034 1_545 S
O352 C336 1.232 1_554 S
O352 Zn343 2.067 . S
C353 O358 1.246 . S
C353 O359 1.249 . S
O354 C336 1.254 . S
O354 Zn351 2.025 1_556 S
H355 C347 0.952 . S
H356 C338 0.952 . S
H357 C346 0.948 . S
O358 Zn343 2.034 . S
O358 C353 1.246 . S
O359 Zn351 2.024 . S
O359 C353 1.249 . S
H360 C342 0.948 . S
O361 Zn351 2.039 . S
O361 C365 1.264 . S
O362 Zn343 2.025 1_565 S
O362 C365 1.248 1_565 S
O363 C344 1.246 . S
O363 Zn351 2.034 1_565 S
O364 Zn343 2.024 1_565 S
O364 C344 1.249 . S
C365 O361 1.264 . S
C365 O362 1.248 1_545 S
H366 C339 0.925 1_545 S
H367 C341 0.950 . S
H368 C348 0.949 . S
H369 C350 0.950 . S
C370 O386 1.251 . S
C370 O388 1.254 . S
N371 C372 1.333 . S
N371 C376 1.307 . S
N371 Zn377 2.020 . S
C372 N371 1.333 . S
C372 C373 1.379 . S
C372 H390 0.952 . S
C373 C372 1.379 . S
C373 C374 1.390 . S
C373 H400 0.949 . S
C374 C373 1.390 . S
C374 C375 1.357 . S
C375 C374 1.357 . S
C375 C376 1.370 . S
C375 H401 0.950 . S
C376 N371 1.307 . S
C376 C375 1.370 . S
C376 H394 0.948 . S
Zn377 N371 2.020 . S
Zn377 O386 2.039 . S
Zn377 O392 2.034 . S
Zn377 O396 2.025 . S
Zn377 O398 2.024 . S
C378 O397 1.246 . S
C378 O398 1.249 . S
N379 C380 1.307 . S
N379 C381 1.333 . S
N379 Zn385 2.020 . S
C380 N379 1.307 . S
C380 C384 1.370 . S
C380 H391 0.948 . S
C381 N379 1.333 . S
C381 C382 1.379 . S
C381 H389 0.952 . S
C382 C381 1.379 . S
C382 C383 1.390 . S
C382 H402 0.949 . S
C383 C382 1.390 . S
C383 C384 1.357 . S
C384 C380 1.370 . S
C384 C383 1.357 . S
C384 H403 0.950 . S
Zn385 N379 2.020 . S
Zn385 O388 2.025 . S
Zn385 O393 2.024 . S
Zn385 O395 2.039 . S
Zn385 O397 2.034 . S
O386 C370 1.251 . S
O386 Zn377 2.039 . S
C387 O392 1.246 . S
C387 O393 1.249 . S
O388 C370 1.254 . S
O388 Zn385 2.025 . S
H389 C381 0.952 . S
H390 C372 0.952 . S
H391 C380 0.948 . S
O392 Zn377 2.034 . S
O392 C387 1.246 . S
O393 Zn385 2.024 . S
O393 C387 1.249 . S
H394 C376 0.948 . S
O395 Zn385 2.039 . S
O395 C399 1.251 . S
O396 Zn377 2.025 . S
O396 C399 1.254 . S
O397 C378 1.246 . S
O397 Zn385 2.034 . S
O398 Zn377 2.024 . S
O398 C378 1.249 . S
C399 O395 1.251 . S
C399 O396 1.254 . S
H400 C373 0.949 . S
H401 C375 0.950 . S
H402 C382 0.949 . S
H403 C384 0.950 . S
C404 O420 1.251 . S
C404 O422 1.254 . S
N405 C406 1.333 . S
N405 C410 1.307 . S
N405 Zn411 2.020 . S
C406 N405 1.333 . S
C406 C407 1.379 . S
C406 H424 0.952 . S
C407 C406 1.379 . S
C407 C408 1.390 . S
C407 H434 0.949 . S
C408 C407 1.390 . S
C408 C409 1.357 . S
C409 C408 1.357 . S
C409 C410 1.370 . S
C409 H435 0.950 . S
C410 N405 1.307 . S
C410 C409 1.370 . S
C410 H428 0.948 . S
Zn411 N405 2.020 . S
Zn411 O420 2.039 1_565 S
Zn411 O426 2.034 1_565 S
Zn411 O430 2.025 . S
Zn411 O432 2.024 . S
C412 O431 1.246 1_565 S
C412 O432 1.249 . S
N413 C414 1.307 . S
N413 C415 1.333 . S
N413 Zn419 2.020 . S
C414 N413 1.307 . S
C414 C418 1.370 . S
C414 H425 0.948 . S
C415 N413 1.333 . S
C415 C416 1.379 . S
C415 H423 0.952 . S
C416 C415 1.379 . S
C416 C417 1.390 . S
C416 H436 0.949 . S
C417 C416 1.390 . S
C417 C418 1.357 . S
C418 C414 1.370 . S
C418 C417 1.357 . S
C418 H437 0.950 . S
Zn419 N413 2.020 . S
Zn419 O422 2.025 . S
Zn419 O427 2.024 . S
Zn419 O429 2.039 . S
Zn419 O431 2.034 . S
O420 C404 1.251 . S
O420 Zn411 2.039 1_545 S
C421 O426 1.246 . S
C421 O427 1.249 . S
O422 C404 1.254 . S
O422 Zn419 2.025 . S
H423 C415 0.952 . S
H424 C406 0.952 . S
H425 C414 0.948 . S
O426 Zn411 2.034 1_545 S
O426 C421 1.246 . S
O427 Zn419 2.024 . S
O427 C421 1.249 . S
H428 C410 0.948 . S
O429 Zn419 2.039 . S
O429 C433 1.251 . S
O430 Zn411 2.025 . S
O430 C433 1.254 1_565 S
O431 C412 1.246 1_545 S
O431 Zn419 2.034 . S
O432 Zn411 2.024 . S
O432 C412 1.249 . S
C433 O429 1.251 . S
C433 O430 1.254 1_545 S
H434 C407 0.949 . S
H435 C409 0.950 . S
H436 C416 0.949 . S
H437 C418 0.950 . S
C438 O454 1.251 . S
C438 O456 1.254 . S
N439 C440 1.333 . S
N439 C444 1.307 . S
N439 Zn445 2.020 . S
C440 N439 1.333 . S
C440 C441 1.379 . S
C440 H458 0.952 . S
C441 C440 1.379 . S
C441 C442 1.390 . S
C441 H468 0.949 . S
C442 C441 1.390 . S
C442 C443 1.357 . S
C443 C442 1.357 . S
C443 C444 1.370 . S
C443 H469 0.950 . S
C444 N439 1.307 . S
C444 C443 1.370 . S
C444 H462 0.948 . S
Zn445 N439 2.020 . S
Zn445 O454 2.039 . S
Zn445 O460 2.034 . S
Zn445 O464 2.025 . S
Zn445 O466 2.024 . S
C446 O465 1.246 . S
C446 O466 1.249 . S
N447 C448 1.307 . S
N447 C449 1.333 . S
N447 Zn453 2.020 . S
C448 N447 1.307 . S
C448 C452 1.370 . S
C448 H459 0.948 . S
C449 N447 1.333 . S
C449 C450 1.379 . S
C449 H457 0.952 . S
C450 C449 1.379 . S
C450 C451 1.390 . S
C450 H470 0.949 . S
C451 C450 1.390 . S
C451 C452 1.357 . S
C452 C448 1.370 . S
C452 C451 1.357 . S
C452 H471 0.950 . S
Zn453 N447 2.020 . S
Zn453 O456 2.025 . S
Zn453 O461 2.024 . S
Zn453 O463 2.039 . S
Zn453 O465 2.034 . S
O454 C438 1.251 . S
O454 Zn445 2.039 . S
C455 O460 1.246 . S
C455 O461 1.249 . S
O456 C438 1.254 . S
O456 Zn453 2.025 . S
H457 C449 0.952 . S
H458 C440 0.952 . S
H459 C448 0.948 . S
O460 Zn445 2.034 . S
O460 C455 1.246 . S
O461 Zn453 2.024 . S
O461 C455 1.249 . S
H462 C444 0.948 . S
O463 Zn453 2.039 . S
O463 C467 1.251 . S
O464 Zn445 2.025 . S
O464 C467 1.254 . S
O465 C446 1.246 . S
O465 Zn453 2.034 . S
O466 Zn445 2.024 . S
O466 C446 1.249 . S
C467 O463 1.251 . S
C467 O464 1.254 . S
H468 C441 0.949 . S
H469 C443 0.950 . S
H470 C450 0.949 . S
H471 C452 0.950 . S
C472 O488 1.251 1_565 S
C472 O490 1.254 . S
N473 C474 1.333 . S
N473 C478 1.307 . S
N473 Zn479 2.020 . S
C474 N473 1.333 . S
C474 C475 1.379 . S
C474 H492 0.952 . S
C475 C474 1.379 . S
C475 C476 1.390 . S
C475 H502 0.949 . S
C476 C475 1.390 . S
C476 C477 1.357 . S
C477 C476 1.357 . S
C477 C478 1.370 . S
C477 H503 0.950 . S
C478 N473 1.307 . S
C478 C477 1.370 . S
C478 H496 0.948 . S
Zn479 N473 2.020 . S
Zn479 O488 2.039 . S
Zn479 O494 2.034 . S
Zn479 O498 2.025 . S
Zn479 O500 2.024 1_545 S
C480 O499 1.246 . S
C480 O500 1.249 . S
N481 C482 1.307 . S
N481 C483 1.333 1_455 S
N481 Zn487 2.020 1_565 S
C482 N481 1.307 . S
C482 C486 1.370 . S
C482 H493 0.934 1_565 S
C483 N481 1.333 1_655 S
C483 C484 1.379 . S
C483 H491 0.952 . S
C484 C483 1.379 . S
C484 C485 1.390 . S
C484 H504 0.949 . S
C485 C484 1.390 . S
C485 C486 1.357 1_655 S
C486 C482 1.370 . S
C486 C485 1.357 1_455 S
C486 H505 0.950 . S
Zn487 N481 2.020 1_545 S
Zn487 O490 2.025 1_545 S
Zn487 O495 2.024 . S
Zn487 O497 2.039 1_455 S
Zn487 O499 2.034 1_545 S
O488 C472 1.251 1_545 S
O488 Zn479 2.039 . S
C489 O494 1.246 . S
C489 O495 1.249 . S
O490 C472 1.254 . S
O490 Zn487 2.025 1_565 S
H491 C483 0.952 . S
H492 C474 0.952 . S
H493 C482 0.934 1_545 S
O494 Zn479 2.034 . S
O494 C489 1.246 . S
O495 Zn487 2.024 . S
O495 C489 1.249 . S
H496 C478 0.948 . S
O497 Zn487 2.039 1_655 S
O497 C501 1.251 . S
O498 Zn479 2.025 . S
O498 C501 1.254 1_455 S
O499 C480 1.246 . S
O499 Zn487 2.034 1_565 S
O500 Zn479 2.024 1_565 S
O500 C480 1.249 . S
C501 O497 1.251 . S
C501 O498 1.254 1_655 S
H502 C475 0.949 . S
H503 C477 0.950 . S
H504 C484 0.949 . S
H505 C486 0.950 . S
C506 O522 1.251 . S
C506 O524 1.254 . S
N507 C508 1.333 . S
N507 C512 1.307 . S
N507 Zn513 2.020 . S
C508 N507 1.333 . S
C508 C509 1.379 . S
C508 H526 0.952 . S
C509 C508 1.379 . S
C509 C510 1.390 . S
C509 H536 0.949 . S
C510 C509 1.390 . S
C510 C511 1.357 . S
C511 C510 1.357 . S
C511 C512 1.370 . S
C511 H537 0.950 . S
C512 N507 1.307 . S
C512 C511 1.370 . S
C512 H530 0.948 . S
Zn513 N507 2.020 . S
Zn513 O522 2.039 . S
Zn513 O528 2.034 . S
Zn513 O532 2.025 . S
Zn513 O534 2.024 . S
C514 O533 1.246 . S
C514 O534 1.249 . S
N515 C516 1.307 . S
N515 C517 1.333 . S
N515 Zn521 2.020 . S
C516 N515 1.307 . S
C516 C520 1.370 . S
C516 H527 0.948 . S
C517 N515 1.333 . S
C517 C518 1.379 . S
C517 H525 0.952 . S
C518 C517 1.379 . S
C518 C519 1.390 . S
C518 H538 0.949 . S
C519 C518 1.390 . S
C519 C520 1.357 . S
C520 C516 1.370 . S
C520 C519 1.357 . S
C520 H539 0.950 . S
Zn521 N515 2.020 . S
Zn521 O524 2.025 . S
Zn521 O529 2.024 . S
Zn521 O531 2.039 . S
Zn521 O533 2.034 . S
O522 C506 1.251 . S
O522 Zn513 2.039 . S
C523 O528 1.246 . S
C523 O529 1.249 . S
O524 C506 1.254 . S
O524 Zn521 2.025 . S
H525 C517 0.952 . S
H526 C508 0.952 . S
H527 C516 0.948 . S
O528 Zn513 2.034 . S
O528 C523 1.246 . S
O529 Zn521 2.024 . S
O529 C523 1.249 . S
H530 C512 0.948 . S
O531 Zn521 2.039 . S
O531 C535 1.251 . S
O532 Zn513 2.025 . S
O532 C535 1.254 . S
O533 C514 1.246 . S
O533 Zn521 2.034 . S
O534 Zn513 2.024 . S
O534 C514 1.249 . S
C535 O531 1.251 . S
C535 O532 1.254 . S
H536 C509 0.949 . S
H537 C511 0.950 . S
H538 C518 0.949 . S
H539 C520 0.950 . S
C540 O556 1.251 . S
C540 O558 1.254 . S
N541 C542 1.333 . S
N541 C546 1.307 . S
N541 Zn547 2.020 . S
C542 N541 1.333 . S
C542 C543 1.379 . S
C542 H560 0.952 . S
C543 C542 1.379 . S
C543 C544 1.390 . S
C543 H570 0.949 . S
C544 C543 1.390 . S
C544 C545 1.357 . S
C545 C544 1.357 . S
C545 C546 1.370 . S
C545 H571 0.950 . S
C546 N541 1.307 . S
C546 C545 1.370 . S
C546 H564 0.948 . S
Zn547 N541 2.020 . S
Zn547 O556 2.039 1_545 S
Zn547 O562 2.034 . S
Zn547 O566 2.025 . S
Zn547 O568 2.024 . S
C548 O567 1.246 . S
C548 O568 1.249 1_565 S
N549 C550 1.307 . S
N549 C551 1.333 1_565 S
N549 Zn555 2.020 1_566 S
C550 N549 1.307 . S
C550 C554 1.370 . S
C550 H561 0.948 . S
C551 N549 1.333 1_545 S
C551 C552 1.383 . S
C551 H559 0.952 . S
C552 C551 1.383 . S
C552 C553 1.377 1_545 S
C552 H572 0.959 . S
C553 C552 1.377 1_565 S
C553 C554 1.357 . S
C554 C550 1.370 . S
C554 C553 1.357 . S
C554 H573 0.950 . S
Zn555 N549 2.020 1_544 S
Zn555 O558 2.025 1_545 S
Zn555 O563 2.024 . S
Zn555 O565 2.039 1_554 S
Zn555 O567 2.034 1_545 S
O556 C540 1.251 . S
O556 Zn547 2.039 1_565 S
C557 O562 1.246 . S
C557 O563 1.249 . S
O558 C540 1.254 . S
O558 Zn555 2.025 1_565 S
H559 C551 0.952 . S
H560 C542 0.952 . S
H561 C550 0.948 . S
O562 Zn547 2.034 . S
O562 C557 1.246 . S
O563 Zn555 2.024 . S
O563 C557 1.249 . S
H564 C546 0.948 . S
O565 Zn555 2.039 1_556 S
O565 C569 1.251 1_556 S
O566 Zn547 2.025 . S
O566 C569 1.254 . S
O567 C548 1.246 . S
O567 Zn555 2.034 1_565 S
O568 Zn547 2.024 . S
O568 C548 1.249 1_545 S
C569 O565 1.251 1_554 S
C569 O566 1.254 . S
H570 C543 0.949 . S
H571 C545 0.950 . S
H572 C552 0.959 . S
H573 C554 0.950 . S
C574 O590 1.251 . S
C574 O592 1.254 . S
N575 C576 1.333 . S
N575 C580 1.307 . S
N575 Zn581 2.020 . S
C576 N575 1.333 . S
C576 C577 1.379 . S
C576 H594 0.952 . S
C577 C576 1.379 . S
C577 C578 1.390 . S
C577 H604 0.949 . S
C578 C577 1.390 . S
C578 C579 1.357 . S
C579 C578 1.357 . S
C579 C580 1.370 . S
C579 H605 0.950 . S
C580 N575 1.307 . S
C580 C579 1.370 . S
C580 H598 0.948 . S
Zn581 N575 2.020 . S
Zn581 O590 2.039 . S
Zn581 O596 2.034 . S
Zn581 O600 2.025 . S
Zn581 O602 2.024 . S
C582 O601 1.246 . S
C582 O602 1.249 . S
N583 C584 1.307 . S
N583 C585 1.333 . S
N583 Zn589 2.020 . S
C584 N583 1.307 . S
C584 C588 1.370 . S
C584 H595 0.948 . S
C585 N583 1.333 . S
C585 C586 1.379 . S
C585 H593 0.952 . S
C586 C585 1.379 . S
C586 C587 1.390 . S
C586 H606 0.949 . S
C587 C586 1.390 . S
C587 C588 1.357 . S
C588 C584 1.370 . S
C588 C587 1.357 . S
C588 H607 0.950 . S
Zn589 N583 2.020 . S
Zn589 O592 2.025 . S
Zn589 O597 2.024 . S
Zn589 O599 2.039 . S
Zn589 O601 2.034 . S
O590 C574 1.251 . S
O590 Zn581 2.039 . S
C591 O596 1.246 . S
C591 O597 1.249 . S
O592 C574 1.254 . S
O592 Zn589 2.025 . S
H593 C585 0.952 . S
H594 C576 0.952 . S
H595 C584 0.948 . S
O596 Zn581 2.034 . S
O596 C591 1.246 . S
O597 Zn589 2.024 . S
O597 C591 1.249 . S
H598 C580 0.948 . S
O599 Zn589 2.039 . S
O599 C603 1.251 . S
O600 Zn581 2.025 . S
O600 C603 1.254 . S
O601 C582 1.246 . S
O601 Zn589 2.034 . S
O602 Zn581 2.024 . S
O602 C582 1.249 . S
C603 O599 1.251 . S
C603 O600 1.254 . S
H604 C577 0.949 . S
H605 C579 0.950 . S
H606 C586 0.949 . S
H607 C588 0.950 . S
C608 O624 1.251 . S
C608 O626 1.254 . S
N609 C610 1.333 . S
N609 C614 1.307 . S
N609 Zn615 2.020 1_556 S
C610 N609 1.333 . S
C610 C611 1.379 . S
C610 H628 0.952 . S
C611 C610 1.379 . S
C611 C612 1.390 . S
C611 H638 0.949 . S
C612 C611 1.390 . S
C612 C613 1.357 . S
C613 C612 1.357 . S
C613 C614 1.370 . S
C613 H639 0.950 . S
C614 N609 1.307 . S
C614 C613 1.370 . S
C614 H632 0.948 . S
Zn615 N609 2.020 1_554 S
Zn615 O624 2.039 . S
Zn615 O630 2.034 . S
Zn615 O634 2.025 . S
Zn615 O636 2.024 1_554 S
C616 O635 1.246 . S
C616 O636 1.249 1_554 S
N617 C618 1.307 . S
N617 C619 1.333 . S
N617 Zn623 2.020 . S
C618 N617 1.307 . S
C618 C622 1.370 . S
C618 H629 0.948 . S
C619 N617 1.333 . S
C619 C620 1.379 . S
C619 H627 0.952 . S
C620 C619 1.379 . S
C620 C621 1.390 . S
C620 H640 0.949 . S
C621 C620 1.390 . S
C621 C622 1.357 . S
C622 C618 1.370 . S
C622 C621 1.357 . S
C622 H641 0.950 . S
Zn623 N617 2.020 . S
Zn623 O626 2.025 . S
Zn623 O631 2.024 . S
Zn623 O633 2.039 . S
Zn623 O635 2.034 . S
O624 C608 1.251 . S
O624 Zn615 2.039 . S
C625 O630 1.246 . S
C625 O631 1.249 . S
O626 C608 1.254 . S
O626 Zn623 2.025 . S
H627 C619 0.952 . S
H628 C610 0.952 . S
H629 C618 0.948 . S
O630 Zn615 2.034 . S
O630 C625 1.246 . S
O631 Zn623 2.024 . S
O631 C625 1.249 . S
H632 C614 0.948 . S
O633 Zn623 2.039 . S
O633 C637 1.251 . S
O634 Zn615 2.025 . S
O634 C637 1.254 . S
O635 C616 1.246 . S
O635 Zn623 2.034 . S
O636 Zn615 2.024 1_556 S
O636 C616 1.249 1_556 S
C637 O633 1.251 . S
C637 O634 1.254 . S
H638 C611 0.949 . S
H639 C613 0.950 . S
H640 C620 0.949 . S
H641 C622 0.950 . S
C642 O658 1.251 . S
C642 O660 1.254 . S
N643 C644 1.333 . S
N643 C648 1.307 . S
N643 Zn649 2.020 . S
C644 N643 1.333 . S
C644 C645 1.379 . S
C644 H662 0.952 . S
C645 C644 1.379 . S
C645 C646 1.390 . S
C645 H672 0.949 . S
C646 C645 1.390 . S
C646 C647 1.357 . S
C647 C646 1.357 . S
C647 C648 1.370 . S
C647 H673 0.950 . S
C648 N643 1.307 . S
C648 C647 1.370 . S
C648 H666 0.948 . S
Zn649 N643 2.020 . S
Zn649 O658 2.039 . S
Zn649 O664 2.034 . S
Zn649 O668 2.025 . S
Zn649 O670 2.024 . S
C650 O669 1.246 . S
C650 O670 1.249 . S
N651 C652 1.307 . S
N651 C653 1.333 . S
N651 Zn657 2.020 . S
C652 N651 1.307 . S
C652 C656 1.370 . S
C652 H663 0.948 . S
C653 N651 1.333 . S
C653 C654 1.379 . S
C653 H661 0.952 . S
C654 C653 1.379 . S
C654 C655 1.390 . S
C654 H674 0.949 . S
C655 C654 1.390 . S
C655 C656 1.357 . S
C656 C652 1.370 . S
C656 C655 1.357 . S
C656 H675 0.950 . S
Zn657 N651 2.020 . S
Zn657 O660 2.025 . S
Zn657 O665 2.024 . S
Zn657 O667 2.039 . S
Zn657 O669 2.034 . S
O658 C642 1.251 . S
O658 Zn649 2.039 . S
C659 O664 1.246 . S
C659 O665 1.249 . S
O660 C642 1.254 . S
O660 Zn657 2.025 . S
H661 C653 0.952 . S
H662 C644 0.952 . S
H663 C652 0.948 . S
O664 Zn649 2.034 . S
O664 C659 1.246 . S
O665 Zn657 2.024 . S
O665 C659 1.249 . S
H666 C648 0.948 . S
O667 Zn657 2.039 . S
O667 C671 1.251 . S
O668 Zn649 2.025 . S
O668 C671 1.254 . S
O669 C650 1.246 . S
O669 Zn657 2.034 . S
O670 Zn649 2.024 . S
O670 C650 1.249 . S
C671 O667 1.251 . S
C671 O668 1.254 . S
H672 C645 0.949 . S
H673 C647 0.950 . S
H674 C654 0.949 . S
H675 C656 0.950 . S
C676 O692 1.251 . S
C676 O694 1.254 . S
N677 C678 1.333 . S
N677 C682 1.307 . S
N677 Zn683 2.020 . S
C678 N677 1.333 . S
C678 C679 1.379 . S
C678 H696 0.952 . S
C679 C678 1.379 . S
C679 C680 1.390 . S
C679 H706 0.949 . S
C680 C679 1.390 . S
C680 C681 1.357 . S
C681 C680 1.357 . S
C681 C682 1.370 . S
C681 H707 0.950 . S
C682 N677 1.307 . S
C682 C681 1.370 . S
C682 H700 0.948 . S
Zn683 N677 2.020 . S
Zn683 O692 2.039 . S
Zn683 O698 2.034 . S
Zn683 O702 2.025 . S
Zn683 O704 2.024 . S
C684 O703 1.246 . S
C684 O704 1.249 . S
N685 C686 1.307 1_455 S
N685 C687 1.333 . S
N685 Zn691 2.020 . S
C686 N685 1.307 1_655 S
C686 C690 1.370 . S
C686 H697 0.948 . S
C687 N685 1.333 . S
C687 C688 1.379 . S
C687 H695 0.952 . S
C688 C687 1.379 . S
C688 C689 1.390 1_455 S
C688 H708 0.949 . S
C689 C688 1.390 1_655 S
C689 C690 1.357 . S
C690 C686 1.370 . S
C690 C689 1.357 . S
C690 H709 0.950 . S
Zn691 N685 2.020 . S
Zn691 O694 2.025 . S
Zn691 O699 2.024 1_455 S
Zn691 O701 2.039 . S
Zn691 O703 2.034 . S
O692 C676 1.251 . S
O692 Zn683 2.039 . S
C693 O698 1.246 1_655 S
C693 O699 1.249 . S
O694 C676 1.254 . S
O694 Zn691 2.025 . S
H695 C687 0.952 . S
H696 C678 0.952 . S
H697 C686 0.948 . S
O698 Zn683 2.034 . S
O698 C693 1.246 1_455 S
O699 Zn691 2.024 1_655 S
O699 C693 1.249 . S
H700 C682 0.948 . S
O701 Zn691 2.039 . S
O701 C705 1.251 . S
O702 Zn683 2.025 . S
O702 C705 1.254 . S
O703 C684 1.246 . S
O703 Zn691 2.034 . S
O704 Zn683 2.024 . S
O704 C684 1.249 . S
C705 O701 1.251 . S
C705 O702 1.254 . S
H706 C679 0.949 . S
H707 C681 0.950 . S
H708 C688 0.949 . S
H709 C690 0.950 . S
C710 O726 1.251 . S
C710 O728 1.254 . S
N711 C712 1.333 . S
N711 C716 1.307 . S
N711 Zn717 2.020 . S
C712 N711 1.333 . S
C712 C713 1.379 . S
C712 H730 0.952 . S
C713 C712 1.379 . S
C713 C714 1.390 . S
C713 H740 0.949 . S
C714 C713 1.390 . S
C714 C715 1.357 . S
C715 C714 1.357 . S
C715 C716 1.370 . S
C715 H741 0.950 . S
C716 N711 1.307 . S
C716 C715 1.370 . S
C716 H734 0.948 . S
Zn717 N711 2.020 . S
Zn717 O726 2.039 . S
Zn717 O732 2.034 . S
Zn717 O736 2.025 . S
Zn717 O738 2.024 . S
C718 O737 1.246 . S
C718 O738 1.249 . S
N719 C720 1.307 . S
N719 C721 1.333 . S
N719 Zn725 2.020 . S
C720 N719 1.307 . S
C720 C724 1.370 . S
C720 H731 0.948 . S
C721 N719 1.333 . S
C721 C722 1.379 . S
C721 H729 0.952 . S
C722 C721 1.379 . S
C722 C723 1.390 . S
C722 H742 0.949 . S
C723 C722 1.390 . S
C723 C724 1.357 . S
C724 C720 1.370 . S
C724 C723 1.357 . S
C724 H743 0.950 . S
Zn725 N719 2.020 . S
Zn725 O728 2.025 . S
Zn725 O733 2.024 . S
Zn725 O735 2.039 . S
Zn725 O737 2.034 . S
O726 C710 1.251 . S
O726 Zn717 2.039 . S
C727 O732 1.246 . S
C727 O733 1.249 . S
O728 C710 1.254 . S
O728 Zn725 2.025 . S
H729 C721 0.952 . S
H730 C712 0.952 . S
H731 C720 0.948 . S
O732 Zn717 2.034 . S
O732 C727 1.246 . S
O733 Zn725 2.024 . S
O733 C727 1.249 . S
H734 C716 0.948 . S
O735 Zn725 2.039 . S
O735 C739 1.251 . S
O736 Zn717 2.025 . S
O736 C739 1.254 . S
O737 C718 1.246 . S
O737 Zn725 2.034 . S
O738 Zn717 2.024 . S
O738 C718 1.249 . S
C739 O735 1.251 . S
C739 O736 1.254 . S
H740 C713 0.949 . S
H741 C715 0.950 . S
H742 C722 0.949 . S
H743 C724 0.950 . S
C744 O760 1.251 . S
C744 O762 1.254 . S
N745 C746 1.333 . S
N745 C750 1.307 . S
N745 Zn751 2.020 . S
C746 N745 1.333 . S
C746 C747 1.379 . S
C746 H764 0.952 . S
C747 C746 1.379 . S
C747 C748 1.390 . S
C747 H774 0.949 . S
C748 C747 1.390 . S
C748 C749 1.357 . S
C749 C748 1.357 . S
C749 C750 1.370 . S
C749 H775 0.950 . S
C750 N745 1.307 . S
C750 C749 1.370 . S
C750 H768 0.948 . S
Zn751 N745 2.020 . S
Zn751 O760 2.039 . S
Zn751 O766 2.034 . S
Zn751 O770 2.025 . S
Zn751 O772 2.024 . S
C752 O771 1.246 . S
C752 O772 1.249 . S
N753 C754 1.307 . S
N753 C755 1.333 . S
N753 Zn759 2.020 . S
C754 N753 1.307 . S
C754 C758 1.370 . S
C754 H765 0.948 . S
C755 N753 1.333 . S
C755 C756 1.379 . S
C755 H763 0.952 . S
C756 C755 1.379 . S
C756 C757 1.390 . S
C756 H776 0.949 . S
C757 C756 1.390 . S
C757 C758 1.357 . S
C758 C754 1.370 . S
C758 C757 1.357 . S
C758 H777 0.950 . S
Zn759 N753 2.020 . S
Zn759 O762 2.025 . S
Zn759 O767 2.024 . S
Zn759 O769 2.039 . S
Zn759 O771 2.034 . S
O760 C744 1.251 . S
O760 Zn751 2.039 . S
C761 O766 1.246 . S
C761 O767 1.249 . S
O762 C744 1.254 . S
O762 Zn759 2.025 . S
H763 C755 0.952 . S
H764 C746 0.952 . S
H765 C754 0.948 . S
O766 Zn751 2.034 . S
O766 C761 1.246 . S
O767 Zn759 2.024 . S
O767 C761 1.249 . S
H768 C750 0.948 . S
O769 Zn759 2.039 . S
O769 C773 1.251 . S
O770 Zn751 2.025 . S
O770 C773 1.254 . S
O771 C752 1.246 . S
O771 Zn759 2.034 . S
O772 Zn751 2.024 . S
O772 C752 1.249 . S
C773 O769 1.251 . S
C773 O770 1.254 . S
H774 C747 0.949 . S
H775 C749 0.950 . S
H776 C756 0.949 . S
H777 C758 0.950 . S
C778 O794 1.251 . S
C778 O796 1.254 . S
N779 C780 1.333 . S
N779 C784 1.307 . S
N779 Zn785 2.020 . S
C780 N779 1.333 . S
C780 C781 1.379 . S
C780 H798 0.952 . S
C781 C780 1.379 . S
C781 C782 1.390 . S
C781 H808 0.949 . S
C782 C781 1.390 . S
C782 C783 1.357 . S
C783 C782 1.357 . S
C783 C784 1.370 . S
C783 H809 0.950 . S
C784 N779 1.307 . S
C784 C783 1.370 . S
C784 H802 0.948 . S
Zn785 N779 2.020 . S
Zn785 O794 2.039 . S
Zn785 O800 2.034 . S
Zn785 O804 2.025 . S
Zn785 O806 2.024 . S
C786 O805 1.246 . S
C786 O806 1.249 . S
N787 C788 1.307 . S
N787 C789 1.333 . S
N787 Zn793 2.020 . S
C788 N787 1.307 . S
C788 C792 1.370 . S
C788 H799 0.948 . S
C789 N787 1.333 . S
C789 C790 1.379 . S
C789 H797 0.952 . S
C790 C789 1.379 . S
C790 C791 1.390 . S
C790 H810 0.949 . S
C791 C790 1.390 . S
C791 C792 1.357 . S
C792 C788 1.370 . S
C792 C791 1.357 . S
C792 H811 0.950 . S
Zn793 N787 2.020 . S
Zn793 O796 2.025 . S
Zn793 O801 2.024 . S
Zn793 O803 2.039 . S
Zn793 O805 2.034 . S
O794 C778 1.251 . S
O794 Zn785 2.039 . S
C795 O800 1.246 . S
C795 O801 1.249 . S
O796 C778 1.254 . S
O796 Zn793 2.025 . S
H797 C789 0.952 . S
H798 C780 0.952 . S
H799 C788 0.948 . S
O800 Zn785 2.034 . S
O800 C795 1.246 . S
O801 Zn793 2.024 . S
O801 C795 1.249 . S
H802 C784 0.948 . S
O803 Zn793 2.039 . S
O803 C807 1.251 . S
O804 Zn785 2.025 . S
O804 C807 1.254 . S
O805 C786 1.246 . S
O805 Zn793 2.034 . S
O806 Zn785 2.024 . S
O806 C786 1.249 . S
C807 O803 1.251 . S
C807 O804 1.254 . S
H808 C781 0.949 . S
H809 C783 0.950 . S
H810 C790 0.949 . S
H811 C792 0.950 . S
C812 O828 1.251 . S
C812 O830 1.254 . S
N813 C814 1.333 . S
N813 C818 1.307 . S
N813 Zn819 2.020 . S
C814 N813 1.333 . S
C814 C815 1.379 . S
C814 H832 0.952 . S
C815 C814 1.379 . S
C815 C816 1.390 . S
C815 H842 0.949 . S
C816 C815 1.390 . S
C816 C817 1.357 . S
C817 C816 1.357 . S
C817 C818 1.370 . S
C817 H843 0.950 . S
C818 N813 1.307 . S
C818 C817 1.370 . S
C818 H836 0.948 . S
Zn819 N813 2.020 . S
Zn819 O828 2.039 . S
Zn819 O834 2.034 . S
Zn819 O838 2.025 . S
Zn819 O840 2.024 . S
C820 O839 1.246 . S
C820 O840 1.249 . S
N821 C822 1.307 . S
N821 C823 1.333 . S
N821 Zn827 2.020 . S
C822 N821 1.307 . S
C822 C826 1.370 . S
C822 H833 0.948 . S
C823 N821 1.333 . S
C823 C824 1.379 . S
C823 H831 0.952 . S
C824 C823 1.379 . S
C824 C825 1.390 . S
C824 H844 0.949 . S
C825 C824 1.390 . S
C825 C826 1.357 . S
C826 C822 1.370 . S
C826 C825 1.357 . S
C826 H845 0.950 . S
Zn827 N821 2.020 . S
Zn827 O830 2.025 . S
Zn827 O835 2.024 . S
Zn827 O837 2.039 . S
Zn827 O839 2.034 . S
O828 C812 1.251 . S
O828 Zn819 2.039 . S
C829 O834 1.246 . S
C829 O835 1.249 . S
O830 C812 1.254 . S
O830 Zn827 2.025 . S
H831 C823 0.952 . S
H832 C814 0.952 . S
H833 C822 0.948 . S
O834 Zn819 2.034 . S
O834 C829 1.246 . S
O835 Zn827 2.024 . S
O835 C829 1.249 . S
H836 C818 0.948 . S
O837 Zn827 2.039 . S
O837 C841 1.251 . S
O838 Zn819 2.025 . S
O838 C841 1.254 . S
O839 C820 1.246 . S
O839 Zn827 2.034 . S
O840 Zn819 2.024 . S
O840 C820 1.249 . S
C841 O837 1.251 . S
C841 O838 1.254 . S
H842 C815 0.949 . S
H843 C817 0.950 . S
H844 C824 0.949 . S
H845 C826 0.950 . S
C846 O862 1.251 . S
C846 O864 1.254 . S
N847 C848 1.333 . S
N847 C852 1.307 . S
N847 Zn853 2.020 . S
C848 N847 1.333 . S
C848 C849 1.379 . S
C848 H866 0.952 . S
C849 C848 1.379 . S
C849 C850 1.390 . S
C849 H876 0.949 . S
C850 C849 1.390 . S
C850 C851 1.357 . S
C851 C850 1.357 . S
C851 C852 1.370 . S
C851 H877 0.950 . S
C852 N847 1.307 . S
C852 C851 1.370 . S
C852 H870 0.948 . S
Zn853 N847 2.020 . S
Zn853 O862 2.039 . S
Zn853 O868 2.034 . S
Zn853 O872 2.025 . S
Zn853 O874 2.024 . S
C854 O873 1.246 . S
C854 O874 1.249 1_655 S
N855 C856 1.307 . S
N855 C857 1.333 1_554 S
N855 Zn861 2.020 . S
C856 N855 1.307 . S
C856 C860 1.370 . S
C856 H867 0.948 . S
C857 N855 1.333 1_556 S
C857 C858 1.379 . S
C857 H865 0.952 . S
C858 C857 1.379 . S
C858 C859 1.388 1_455 S
C858 H878 0.949 1_455 S
C859 C858 1.388 1_655 S
C859 C860 1.352 1_656 S
C860 C856 1.370 . S
C860 C859 1.352 1_454 S
C860 H879 0.950 . S
Zn861 N855 2.020 . S
Zn861 O864 2.025 . S
Zn861 O869 2.024 . S
Zn861 O871 2.039 1_554 S
Zn861 O873 2.034 1_455 S
O862 C846 1.251 . S
O862 Zn853 2.039 . S
C863 O868 1.246 . S
C863 O869 1.249 . S
O864 C846 1.254 . S
O864 Zn861 2.025 . S
H865 C857 0.952 . S
H866 C848 0.952 . S
H867 C856 0.948 . S
O868 Zn853 2.034 . S
O868 C863 1.246 . S
O869 Zn861 2.024 . S
O869 C863 1.249 . S
H870 C852 0.948 . S
O871 Zn861 2.039 1_556 S
O871 C875 1.251 . S
O872 Zn853 2.025 . S
O872 C875 1.254 1_554 S
O873 C854 1.246 . S
O873 Zn861 2.034 1_655 S
O874 Zn853 2.024 . S
O874 C854 1.249 1_455 S
C875 O871 1.251 . S
C875 O872 1.254 1_556 S
H876 C849 0.949 . S
H877 C851 0.950 . S
H878 C858 0.949 1_655 S
H879 C860 0.950 . S
H880 C888 0.929 . S
H881 C890 0.930 . S
H882 C892 0.930 . S
H883 C895 0.929 . S
H884 C898 0.930 . S
H885 C900 0.960 . S
H886 C900 0.960 . S
H887 C900 0.960 . S
C888 H880 0.929 . S
C888 C889 1.377 . S
C888 C890 1.384 . S
C889 C888 1.377 . S
C889 C895 1.390 . S
C890 H881 0.930 . S
C890 C888 1.384 . S
C890 C891 1.372 . S
C891 C890 1.372 . S
C891 C892 1.400 . S
C891 C896 1.490 . S
C892 H882 0.930 . S
C892 C891 1.400 . S
C892 C895 1.386 . S
H893 C909 0.930 . S
H894 C910 0.931 . S
C895 H883 0.929 . S
C895 C889 1.390 . S
C895 C892 1.386 . S
C896 C891 1.490 . S
C896 C898 1.395 . S
C896 C899 1.403 . S
H897 C903 0.930 . S
C898 H884 0.930 . S
C898 C896 1.395 . S
C898 C901 1.403 . S
C899 C896 1.403 . S
C899 C900 1.524 . S
C899 C903 1.400 . S
C900 H885 0.960 . S
C900 H886 0.960 . S
C900 H887 0.960 . S
C900 C899 1.524 . S
C901 C898 1.403 . S
C901 C902 1.392 . S
C901 C905 1.495 1_455 S
C902 C901 1.392 . S
C902 C903 1.385 . S
C902 C904 1.478 . S
C903 H897 0.930 . S
C903 C899 1.400 . S
C903 C902 1.385 . S
C904 C902 1.478 . S
C904 C906 1.381 . S
C904 C910 1.383 . S
C905 C901 1.495 1_655 S
C905 H911 0.959 . S
C905 H912 0.961 . S
C905 H913 0.960 . S
C906 C904 1.381 . S
C906 C907 1.394 . S
C906 H914 0.930 . S
C907 C906 1.394 . S
C907 C908 1.383 . S
C907 H915 0.929 . S
C908 C907 1.383 . S
C908 C909 1.377 . S
C909 H893 0.930 . S
C909 C908 1.377 . S
C909 C910 1.379 . S
C910 H894 0.931 . S
C910 C904 1.383 . S
C910 C909 1.379 . S
H911 C905 0.959 . S
H912 C905 0.961 . S
H913 C905 0.960 . S
H914 C906 0.930 . S
H915 C907 0.929 . S
H916 C924 0.929 . S
H917 C926 0.930 . S
H918 C928 0.930 . S
H919 C931 0.929 . S
H920 C934 0.930 . S
H921 C936 0.960 . S
H922 C936 0.960 . S
H923 C936 0.960 . S
C924 H916 0.929 . S
C924 C925 1.377 . S
C924 C926 1.384 . S
C925 C924 1.377 . S
C925 C931 1.390 . S
C926 H917 0.930 . S
C926 C924 1.384 . S
C926 C927 1.372 . S
C927 C926 1.372 . S
C927 C928 1.400 . S
C927 C932 1.490 . S
C928 H918 0.930 . S
C928 C927 1.400 . S
C928 C931 1.386 . S
H929 C945 0.930 . S
H930 C946 0.931 . S
C931 H919 0.929 . S
C931 C925 1.390 . S
C931 C928 1.386 . S
C932 C927 1.490 . S
C932 C934 1.395 . S
C932 C935 1.403 . S
H933 C939 0.930 . S
C934 H920 0.930 . S
C934 C932 1.395 . S
C934 C937 1.403 . S
C935 C932 1.403 . S
C935 C936 1.524 . S
C935 C939 1.400 . S
C936 H921 0.960 . S
C936 H922 0.960 . S
C936 H923 0.960 . S
C936 C935 1.524 . S
C937 C934 1.403 . S
C937 C938 1.392 . S
C937 C941 1.495 . S
C938 C937 1.392 . S
C938 C939 1.385 . S
C938 C940 1.478 . S
C939 H933 0.930 . S
C939 C935 1.400 . S
C939 C938 1.385 . S
C940 C938 1.478 . S
C940 C942 1.381 . S
C940 C946 1.383 . S
C941 C937 1.495 . S
C941 H947 0.959 . S
C941 H948 0.961 . S
C941 H949 0.960 . S
C942 C940 1.381 . S
C942 C943 1.394 . S
C942 H950 0.930 . S
C943 C942 1.394 . S
C943 C944 1.383 . S
C943 H951 0.929 . S
C944 C943 1.383 . S
C944 C945 1.377 . S
C945 H929 0.930 . S
C945 C944 1.377 . S
C945 C946 1.379 . S
C946 H930 0.931 . S
C946 C940 1.383 . S
C946 C945 1.379 . S
H947 C941 0.959 . S
H948 C941 0.961 . S
H949 C941 0.960 . S
H950 C942 0.930 . S
H951 C943 0.929 . S
H952 C960 0.929 . S
H953 C962 0.930 . S
H954 C964 0.930 . S
H955 C967 0.929 . S
H956 C970 0.930 . S
H957 C972 0.960 . S
H958 C972 0.960 . S
H959 C972 0.960 . S
C960 H952 0.929 . S
C960 C961 1.377 . S
C960 C962 1.384 . S
C961 C960 1.377 . S
C961 C967 1.390 . S
C962 H953 0.930 . S
C962 C960 1.384 . S
C962 C963 1.372 . S
C963 C962 1.372 . S
C963 C964 1.400 . S
C963 C968 1.490 . S
C964 H954 0.930 . S
C964 C963 1.400 . S
C964 C967 1.386 . S
H965 C981 0.930 . S
H966 C982 0.931 . S
C967 H955 0.929 . S
C967 C961 1.390 . S
C967 C964 1.386 . S
C968 C963 1.490 . S
C968 C970 1.395 . S
C968 C971 1.403 . S
H969 C975 0.930 . S
C970 H956 0.930 . S
C970 C968 1.395 . S
C970 C973 1.403 . S
C971 C968 1.403 . S
C971 C972 1.524 . S
C971 C975 1.400 . S
C972 H957 0.960 . S
C972 H958 0.960 . S
C972 H959 0.960 . S
C972 C971 1.524 . S
C973 C970 1.403 . S
C973 C974 1.392 . S
C973 C977 1.495 . S
C974 C973 1.392 . S
C974 C975 1.385 . S
C974 C976 1.478 . S
C975 H969 0.930 . S
C975 C971 1.400 . S
C975 C974 1.385 . S
C976 C974 1.478 . S
C976 C978 1.381 . S
C976 C982 1.383 . S
C977 C973 1.495 . S
C977 H983 0.959 . S
C977 H984 0.961 . S
C977 H985 0.960 . S
C978 C976 1.381 . S
C978 C979 1.394 . S
C978 H986 0.930 . S
C979 C978 1.394 . S
C979 C980 1.383 . S
C979 H987 0.929 . S
C980 C979 1.383 . S
C980 C981 1.377 . S
C981 H965 0.930 . S
C981 C980 1.377 . S
C981 C982 1.379 . S
C982 H966 0.931 . S
C982 C976 1.383 . S
C982 C981 1.379 . S
H983 C977 0.959 . S
H984 C977 0.961 . S
H985 C977 0.960 . S
H986 C978 0.930 . S
H987 C979 0.929 . S
H988 C996 0.929 . S
H989 C998 0.930 . S
H990 C1000 0.930 . S
H991 C1003 0.929 . S
H992 C1006 0.930 . S
H993 C1008 0.960 . S
H994 C1008 0.960 . S
H995 C1008 0.960 . S
C996 H988 0.929 . S
C996 C997 1.377 . S
C996 C998 1.384 . S
C997 C996 1.377 . S
C997 C1003 1.390 . S
C998 H989 0.930 . S
C998 C996 1.384 . S
C998 C999 1.372 . S
C999 C998 1.372 . S
C999 C1000 1.400 . S
C999 C1004 1.490 . S
C1000 H990 0.930 . S
C1000 C999 1.400 . S
C1000 C1003 1.386 . S
H1001 C1017 0.930 . S
H1002 C1018 0.931 . S
C1003 H991 0.929 . S
C1003 C997 1.390 . S
C1003 C1000 1.386 . S
C1004 C999 1.490 . S
C1004 C1006 1.395 . S
C1004 C1007 1.403 . S
H1005 C1011 0.930 . S
C1006 H992 0.930 . S
C1006 C1004 1.395 . S
C1006 C1009 1.403 . S
C1007 C1004 1.403 . S
C1007 C1008 1.524 . S
C1007 C1011 1.400 . S
C1008 H993 0.960 . S
C1008 H994 0.960 . S
C1008 H995 0.960 . S
C1008 C1007 1.524 . S
C1009 C1006 1.403 . S
C1009 C1010 1.392 . S
C1009 C1013 1.495 . S
C1010 C1009 1.392 . S
C1010 C1011 1.385 . S
C1010 C1012 1.478 . S
C1011 H1005 0.930 . S
C1011 C1007 1.400 . S
C1011 C1010 1.385 . S
C1012 C1010 1.478 . S
C1012 C1014 1.381 . S
C1012 C1018 1.383 . S
C1013 C1009 1.495 . S
C1013 H1019 0.959 . S
C1013 H1020 0.961 . S
C1013 H1021 0.960 . S
C1014 C1012 1.381 . S
C1014 C1015 1.394 . S
C1014 H1022 0.930 . S
C1015 C1014 1.394 . S
C1015 C1016 1.383 . S
C1015 H1023 0.929 . S
C1016 C1015 1.383 . S
C1016 C1017 1.377 . S
C1017 H1001 0.930 . S
C1017 C1016 1.377 . S
C1017 C1018 1.379 . S
C1018 H1002 0.931 . S
C1018 C1012 1.383 . S
C1018 C1017 1.379 . S
H1019 C1013 0.959 . S
H1020 C1013 0.961 . S
H1021 C1013 0.960 . S
H1022 C1014 0.930 . S
H1023 C1015 0.929 . S
H1024 C1032 0.929 . S
H1025 C1034 0.930 . S
H1026 C1036 0.930 1_655 S
H1027 C1039 0.929 1_655 S
H1028 C1042 0.930 . S
H1029 C1044 0.960 . S
H1030 C1044 0.960 . S
H1031 C1044 0.960 . S
C1032 H1024 0.929 . S
C1032 C1033 1.377 . S
C1032 C1034 1.384 . S
C1033 C1032 1.377 . S
C1033 C1039 1.390 . S
C1034 H1025 0.930 . S
C1034 C1032 1.384 . S
C1034 C1035 1.372 . S
C1035 C1034 1.372 . S
C1035 C1036 1.400 . S
C1035 C1040 1.490 . S
C1036 H1026 0.930 1_455 S
C1036 C1035 1.400 . S
C1036 C1039 1.386 . S
H1037 C1053 0.930 1_655 S
H1038 C1054 0.931 1_655 S
C1039 H1027 0.929 1_455 S
C1039 C1033 1.390 . S
C1039 C1036 1.386 . S
C1040 C1035 1.490 . S
C1040 C1042 1.395 . S
C1040 C1043 1.403 . S
H1041 C1047 0.930 1_655 S
C1042 H1028 0.930 . S
C1042 C1040 1.395 . S
C1042 C1045 1.403 . S
C1043 C1040 1.403 . S
C1043 C1044 1.524 1_455 S
C1043 C1047 1.400 . S
C1044 H1029 0.960 . S
C1044 H1030 0.960 . S
C1044 H1031 0.960 . S
C1044 C1043 1.524 1_655 S
C1045 C1042 1.403 . S
C1045 C1046 1.392 . S
C1045 C1049 1.495 . S
C1046 C1045 1.392 . S
C1046 C1047 1.385 . S
C1046 C1048 1.478 . S
C1047 H1041 0.930 1_455 S
C1047 C1043 1.400 . S
C1047 C1046 1.385 . S
C1048 C1046 1.478 . S
C1048 C1050 1.381 . S
C1048 C1054 1.383 . S
C1049 C1045 1.495 . S
C1049 H1055 0.959 . S
C1049 H1056 0.961 . S
C1049 H1057 0.960 . S
C1050 C1048 1.381 . S
C1050 C1051 1.394 . S
C1050 H1058 0.930 . S
C1051 C1050 1.394 . S
C1051 C1052 1.383 . S
C1051 H1059 0.929 . S
C1052 C1051 1.383 . S
C1052 C1053 1.377 . S
C1053 H1037 0.930 1_455 S
C1053 C1052 1.377 . S
C1053 C1054 1.379 . S
C1054 H1038 0.931 1_455 S
C1054 C1048 1.383 . S
C1054 C1053 1.379 . S
H1055 C1049 0.959 . S
H1056 C1049 0.961 . S
H1057 C1049 0.960 . S
H1058 C1050 0.930 . S
H1059 C1051 0.929 . S
H1060 C1068 0.929 . S
H1061 C1070 0.930 . S
H1062 C1072 0.930 . S
H1063 C1075 0.929 . S
H1064 C1078 0.930 . S
H1065 C1080 0.960 . S
H1066 C1080 0.960 . S
H1067 C1080 0.960 . S
C1068 H1060 0.929 . S
C1068 C1069 1.377 . S
C1068 C1070 1.384 . S
C1069 C1068 1.377 . S
C1069 C1075 1.390 . S
C1070 H1061 0.930 . S
C1070 C1068 1.384 . S
C1070 C1071 1.372 . S
C1071 C1070 1.372 . S
C1071 C1072 1.400 . S
C1071 C1076 1.490 . S
C1072 H1062 0.930 . S
C1072 C1071 1.400 . S
C1072 C1075 1.386 . S
H1073 C1089 0.930 . S
H1074 C1090 0.931 . S
C1075 H1063 0.929 . S
C1075 C1069 1.390 . S
C1075 C1072 1.386 . S
C1076 C1071 1.490 . S
C1076 C1078 1.395 . S
C1076 C1079 1.403 . S
H1077 C1083 0.930 . S
C1078 H1064 0.930 . S
C1078 C1076 1.395 . S
C1078 C1081 1.403 . S
C1079 C1076 1.403 . S
C1079 C1080 1.524 . S
C1079 C1083 1.400 . S
C1080 H1065 0.960 . S
C1080 H1066 0.960 . S
C1080 H1067 0.960 . S
C1080 C1079 1.524 . S
C1081 C1078 1.403 . S
C1081 C1082 1.392 . S
C1081 C1085 1.495 . S
C1082 C1081 1.392 . S
C1082 C1083 1.385 . S
C1082 C1084 1.478 . S
C1083 H1077 0.930 . S
C1083 C1079 1.400 . S
C1083 C1082 1.385 . S
C1084 C1082 1.478 . S
C1084 C1086 1.381 . S
C1084 C1090 1.383 . S
C1085 C1081 1.495 . S
C1085 H1091 0.959 . S
C1085 H1092 0.961 . S
C1085 H1093 0.960 . S
C1086 C1084 1.381 . S
C1086 C1087 1.394 . S
C1086 H1094 0.930 . S
C1087 C1086 1.394 . S
C1087 C1088 1.383 . S
C1087 H1095 0.929 . S
C1088 C1087 1.383 . S
C1088 C1089 1.377 . S
C1089 H1073 0.930 . S
C1089 C1088 1.377 . S
C1089 C1090 1.379 . S
C1090 H1074 0.931 . S
C1090 C1084 1.383 . S
C1090 C1089 1.379 . S
H1091 C1085 0.959 . S
H1092 C1085 0.961 . S
H1093 C1085 0.960 . S
H1094 C1086 0.930 . S
H1095 C1087 0.929 . S
H1096 C1104 0.929 . S
H1097 C1106 0.930 . S
H1098 C1108 0.930 . S
H1099 C1111 0.929 . S
H1100 C1114 0.930 . S
H1101 C1116 0.960 . S
H1102 C1116 0.960 . S
H1103 C1116 0.960 . S
C1104 H1096 0.929 . S
C1104 C1105 1.377 . S
C1104 C1106 1.384 . S
C1105 C1104 1.377 . S
C1105 C1111 1.390 . S
C1106 H1097 0.930 . S
C1106 C1104 1.384 . S
C1106 C1107 1.372 . S
C1107 C1106 1.372 . S
C1107 C1108 1.400 . S
C1107 C1112 1.490 . S
C1108 H1098 0.930 . S
C1108 C1107 1.400 . S
C1108 C1111 1.386 . S
H1109 C1125 0.930 . S
H1110 C1126 0.931 . S
C1111 H1099 0.929 . S
C1111 C1105 1.390 . S
C1111 C1108 1.386 . S
C1112 C1107 1.490 . S
C1112 C1114 1.395 . S
C1112 C1115 1.403 . S
H1113 C1119 0.930 . S
C1114 H1100 0.930 . S
C1114 C1112 1.395 . S
C1114 C1117 1.403 . S
C1115 C1112 1.403 . S
C1115 C1116 1.524 . S
C1115 C1119 1.400 . S
C1116 H1101 0.960 . S
C1116 H1102 0.960 . S
C1116 H1103 0.960 . S
C1116 C1115 1.524 . S
C1117 C1114 1.403 . S
C1117 C1118 1.392 . S
C1117 C1121 1.495 . S
C1118 C1117 1.392 . S
C1118 C1119 1.385 . S
C1118 C1120 1.478 . S
C1119 H1113 0.930 . S
C1119 C1115 1.400 . S
C1119 C1118 1.385 . S
C1120 C1118 1.478 . S
C1120 C1122 1.381 . S
C1120 C1126 1.383 . S
C1121 C1117 1.495 . S
C1121 H1127 0.959 . S
C1121 H1128 0.961 . S
C1121 H1129 0.960 . S
C1122 C1120 1.381 . S
C1122 C1123 1.394 . S
C1122 H1130 0.930 . S
C1123 C1122 1.394 . S
C1123 C1124 1.386 . S
C1123 H1131 0.929 1_556 S
C1124 C1123 1.386 . S
C1124 C1125 1.388 . S
C1125 H1109 0.930 . S
C1125 C1124 1.388 . S
C1125 C1126 1.379 . S
C1126 H1110 0.931 . S
C1126 C1120 1.383 . S
C1126 C1125 1.379 . S
H1127 C1121 0.959 . S
H1128 C1121 0.961 . S
H1129 C1121 0.960 . S
H1130 C1122 0.930 . S
H1131 C1123 0.929 1_554 S
H1132 C1140 0.929 . S
H1133 C1142 0.930 . S
H1134 C1144 0.930 . S
H1135 C1147 0.929 . S
H1136 C1150 0.930 . S
H1137 C1152 0.960 . S
H1138 C1152 0.960 . S
H1139 C1152 0.960 . S
C1140 H1132 0.929 . S
C1140 C1141 1.377 . S
C1140 C1142 1.384 . S
C1141 C1140 1.377 . S
C1141 C1147 1.390 . S
C1142 H1133 0.930 . S
C1142 C1140 1.384 . S
C1142 C1143 1.372 . S
C1143 C1142 1.372 . S
C1143 C1144 1.400 . S
C1143 C1148 1.490 . S
C1144 H1134 0.930 . S
C1144 C1143 1.400 . S
C1144 C1147 1.386 . S
H1145 C1161 0.930 . S
H1146 C1162 0.931 . S
C1147 H1135 0.929 . S
C1147 C1141 1.390 . S
C1147 C1144 1.386 . S
C1148 C1143 1.490 . S
C1148 C1150 1.395 . S
C1148 C1151 1.403 . S
H1149 C1155 0.930 . S
C1150 H1136 0.930 . S
C1150 C1148 1.395 . S
C1150 C1153 1.403 . S
C1151 C1148 1.403 . S
C1151 C1152 1.524 . S
C1151 C1155 1.400 . S
C1152 H1137 0.960 . S
C1152 H1138 0.960 . S
C1152 H1139 0.960 . S
C1152 C1151 1.524 . S
C1153 C1150 1.403 . S
C1153 C1154 1.392 . S
C1153 C1157 1.495 . S
C1154 C1153 1.392 . S
C1154 C1155 1.385 . S
C1154 C1156 1.478 . S
C1155 H1149 0.930 . S
C1155 C1151 1.400 . S
C1155 C1154 1.385 . S
C1156 C1154 1.478 . S
C1156 C1158 1.381 . S
C1156 C1162 1.383 . S
C1157 C1153 1.495 . S
C1157 H1163 0.959 . S
C1157 H1164 0.961 . S
C1157 H1165 0.960 . S
C1158 C1156 1.381 . S
C1158 C1159 1.394 . S
C1158 H1166 0.930 . S
C1159 C1158 1.394 . S
C1159 C1160 1.383 . S
C1159 H1167 0.929 . S
C1160 C1159 1.383 . S
C1160 C1161 1.377 . S
C1161 H1145 0.930 . S
C1161 C1160 1.377 . S
C1161 C1162 1.379 . S
C1162 H1146 0.931 . S
C1162 C1156 1.383 . S
C1162 C1161 1.379 . S
H1163 C1157 0.959 . S
H1164 C1157 0.961 . S
H1165 C1157 0.960 . S
H1166 C1158 0.930 . S
H1167 C1159 0.929 . S
H1168 C1176 0.929 . S
H1169 C1178 0.930 . S
H1170 C1180 0.930 . S
H1171 C1183 0.929 . S
H1172 C1186 0.930 . S
H1173 C1188 0.960 . S
H1174 C1188 0.960 . S
H1175 C1188 0.960 1_565 S
C1176 H1168 0.929 . S
C1176 C1177 1.377 . S
C1176 C1178 1.384 . S
C1177 C1176 1.377 . S
C1177 C1183 1.390 1_545 S
C1178 H1169 0.930 . S
C1178 C1176 1.384 . S
C1178 C1179 1.372 . S
C1179 C1178 1.372 . S
C1179 C1180 1.400 1_545 S
C1179 C1184 1.490 . S
C1180 H1170 0.930 . S
C1180 C1179 1.400 1_565 S
C1180 C1183 1.386 . S
H1181 C1197 0.930 . S
H1182 C1198 0.931 . S
C1183 H1171 0.929 . S
C1183 C1177 1.390 1_565 S
C1183 C1180 1.386 . S
C1184 C1179 1.490 . S
C1184 C1186 1.395 . S
C1184 C1187 1.403 . S
H1185 C1191 0.930 . S
C1186 H1172 0.930 . S
C1186 C1184 1.395 . S
C1186 C1189 1.403 . S
C1187 C1184 1.403 . S
C1187 C1188 1.524 . S
C1187 C1191 1.400 . S
C1188 H1173 0.960 . S
C1188 H1174 0.960 . S
C1188 H1175 0.960 1_545 S
C1188 C1187 1.524 . S
C1189 C1186 1.403 . S
C1189 C1190 1.392 . S
C1189 C1193 1.495 . S
C1190 C1189 1.392 . S
C1190 C1191 1.385 . S
C1190 C1192 1.478 . S
C1191 H1185 0.930 . S
C1191 C1187 1.400 . S
C1191 C1190 1.385 . S
C1192 C1190 1.478 . S
C1192 C1194 1.381 . S
C1192 C1198 1.383 1_545 S
C1193 C1189 1.495 . S
C1193 H1199 0.959 . S
C1193 H1200 0.961 1_545 S
C1193 H1201 0.960 . S
C1194 C1192 1.381 . S
C1194 C1195 1.394 . S
C1194 H1202 0.930 . S
C1195 C1194 1.394 . S
C1195 C1196 1.332 1_545 S
C1195 H1203 0.929 . S
C1196 C1195 1.332 1_565 S
C1196 C1197 1.425 . S
C1197 H1181 0.930 . S
C1197 C1196 1.425 . S
C1197 C1198 1.379 . S
C1198 H1182 0.931 . S
C1198 C1192 1.383 1_565 S
C1198 C1197 1.379 . S
H1199 C1193 0.959 . S
H1200 C1193 0.961 1_565 S
H1201 C1193 0.960 . S
H1202 C1194 0.930 . S
H1203 C1195 0.929 . S
H1204 C1212 0.929 . S
H1205 C1214 0.930 . S
H1206 C1216 0.930 . S
H1207 C1219 0.929 . S
H1208 C1222 0.930 . S
H1209 C1224 0.960 . S
H1210 C1224 0.960 . S
H1211 C1224 0.960 . S
C1212 H1204 0.929 . S
C1212 C1213 1.377 . S
C1212 C1214 1.384 . S
C1213 C1212 1.377 . S
C1213 C1219 1.390 . S
C1214 H1205 0.930 . S
C1214 C1212 1.384 . S
C1214 C1215 1.372 . S
C1215 C1214 1.372 . S
C1215 C1216 1.400 . S
C1215 C1220 1.490 . S
C1216 H1206 0.930 . S
C1216 C1215 1.400 . S
C1216 C1219 1.386 . S
H1217 C1233 0.930 . S
H1218 C1234 0.931 . S
C1219 H1207 0.929 . S
C1219 C1213 1.390 . S
C1219 C1216 1.386 . S
C1220 C1215 1.490 . S
C1220 C1222 1.395 . S
C1220 C1223 1.403 . S
H1221 C1227 0.930 . S
C1222 H1208 0.930 . S
C1222 C1220 1.395 . S
C1222 C1225 1.403 . S
C1223 C1220 1.403 . S
C1223 C1224 1.524 . S
C1223 C1227 1.400 . S
C1224 H1209 0.960 . S
C1224 H1210 0.960 . S
C1224 H1211 0.960 . S
C1224 C1223 1.524 . S
C1225 C1222 1.403 . S
C1225 C1226 1.392 . S
C1225 C1229 1.495 . S
C1226 C1225 1.392 . S
C1226 C1227 1.385 . S
C1226 C1228 1.478 . S
C1227 H1221 0.930 . S
C1227 C1223 1.400 . S
C1227 C1226 1.385 . S
C1228 C1226 1.478 . S
C1228 C1230 1.381 . S
C1228 C1234 1.383 . S
C1229 C1225 1.495 . S
C1229 H1235 0.959 . S
C1229 H1236 0.961 . S
C1229 H1237 0.960 . S
C1230 C1228 1.381 . S
C1230 C1231 1.394 . S
C1230 H1238 0.930 . S
C1231 C1230 1.394 . S
C1231 C1232 1.383 . S
C1231 H1239 0.929 . S
C1232 C1231 1.383 . S
C1232 C1233 1.377 . S
C1233 H1217 0.930 . S
C1233 C1232 1.377 . S
C1233 C1234 1.379 . S
C1234 H1218 0.931 . S
C1234 C1228 1.383 . S
C1234 C1233 1.379 . S
H1235 C1229 0.959 . S
H1236 C1229 0.961 . S
H1237 C1229 0.960 . S
H1238 C1230 0.930 . S
H1239 C1231 0.929 . S
H1240 C1248 0.929 . S
H1241 C1250 0.930 . S
H1242 C1252 0.930 . S
H1243 C1255 0.929 . S
H1244 C1258 0.930 . S
H1245 C1260 0.960 . S
H1246 C1260 0.960 . S
H1247 C1260 0.960 . S
C1248 H1240 0.929 . S
C1248 C1249 1.377 . S
C1248 C1250 1.384 . S
C1249 C1248 1.377 . S
C1249 C1255 1.390 1_545 S
C1250 H1241 0.930 . S
C1250 C1248 1.384 . S
C1250 C1251 1.372 . S
C1251 C1250 1.372 . S
C1251 C1252 1.400 1_545 S
C1251 C1256 1.490 . S
C1252 H1242 0.930 . S
C1252 C1251 1.400 1_565 S
C1252 C1255 1.386 . S
H1253 C1269 0.930 1_565 S
H1254 C1270 0.931 1_565 S
C1255 H1243 0.929 . S
C1255 C1249 1.390 1_565 S
C1255 C1252 1.386 . S
C1256 C1251 1.490 . S
C1256 C1258 1.395 . S
C1256 C1259 1.403 . S
H1257 C1263 0.930 . S
C1258 H1244 0.930 . S
C1258 C1256 1.395 . S
C1258 C1261 1.403 . S
C1259 C1256 1.403 . S
C1259 C1260 1.524 . S
C1259 C1263 1.400 . S
C1260 H1245 0.960 . S
C1260 H1246 0.960 . S
C1260 H1247 0.960 . S
C1260 C1259 1.524 . S
C1261 C1258 1.403 . S
C1261 C1262 1.392 . S
C1261 C1265 1.495 . S
C1262 C1261 1.392 . S
C1262 C1263 1.385 . S
C1262 C1264 1.478 . S
C1263 H1257 0.930 . S
C1263 C1259 1.400 . S
C1263 C1262 1.385 . S
C1264 C1262 1.478 . S
C1264 C1266 1.381 . S
C1264 C1270 1.383 . S
C1265 C1261 1.495 . S
C1265 H1271 0.959 . S
C1265 H1272 0.961 1_545 S
C1265 H1273 0.960 . S
C1266 C1264 1.381 . S
C1266 C1267 1.394 . S
C1266 H1274 0.930 . S
C1267 C1266 1.394 . S
C1267 C1268 1.383 . S
C1267 H1275 0.929 . S
C1268 C1267 1.383 . S
C1268 C1269 1.377 . S
C1269 H1253 0.930 1_545 S
C1269 C1268 1.377 . S
C1269 C1270 1.379 . S
C1270 H1254 0.931 1_545 S
C1270 C1264 1.383 . S
C1270 C1269 1.379 . S
H1271 C1265 0.959 . S
H1272 C1265 0.961 1_565 S
H1273 C1265 0.960 . S
H1274 C1266 0.930 . S
H1275 C1267 0.929 . S
H1276 C1284 0.929 . S
H1277 C1286 0.930 . S
H1278 C1288 0.930 . S
H1279 C1291 0.929 . S
H1280 C1294 0.930 . S
H1281 C1296 0.960 . S
H1282 C1296 0.960 . S
H1283 C1296 0.960 . S
C1284 H1276 0.929 . S
C1284 C1285 1.377 . S
C1284 C1286 1.384 . S
C1285 C1284 1.377 . S
C1285 C1291 1.390 . S
C1286 H1277 0.930 . S
C1286 C1284 1.384 . S
C1286 C1287 1.372 . S
C1287 C1286 1.372 . S
C1287 C1288 1.400 . S
C1287 C1292 1.490 . S
C1288 H1278 0.930 . S
C1288 C1287 1.400 . S
C1288 C1291 1.386 . S
H1289 C1305 0.930 . S
H1290 C1306 0.931 . S
C1291 H1279 0.929 . S
C1291 C1285 1.390 . S
C1291 C1288 1.386 . S
C1292 C1287 1.490 . S
C1292 C1294 1.395 . S
C1292 C1295 1.403 . S
H1293 C1299 0.930 . S
C1294 H1280 0.930 . S
C1294 C1292 1.395 . S
C1294 C1297 1.403 . S
C1295 C1292 1.403 . S
C1295 C1296 1.524 . S
C1295 C1299 1.400 . S
C1296 H1281 0.960 . S
C1296 H1282 0.960 . S
C1296 H1283 0.960 . S
C1296 C1295 1.524 . S
C1297 C1294 1.403 . S
C1297 C1298 1.392 . S
C1297 C1301 1.495 . S
C1298 C1297 1.392 . S
C1298 C1299 1.385 . S
C1298 C1300 1.478 . S
C1299 H1293 0.930 . S
C1299 C1295 1.400 . S
C1299 C1298 1.385 . S
C1300 C1298 1.478 . S
C1300 C1302 1.381 . S
C1300 C1306 1.383 . S
C1301 C1297 1.495 . S
C1301 H1307 0.959 . S
C1301 H1308 0.961 . S
C1301 H1309 0.960 . S
C1302 C1300 1.381 . S
C1302 C1303 1.394 . S
C1302 H1310 0.930 . S
C1303 C1302 1.394 . S
C1303 C1304 1.383 . S
C1303 H1311 0.929 . S
C1304 C1303 1.383 . S
C1304 C1305 1.377 . S
C1305 H1289 0.930 . S
C1305 C1304 1.377 . S
C1305 C1306 1.379 . S
C1306 H1290 0.931 . S
C1306 C1300 1.383 . S
C1306 C1305 1.379 . S
H1307 C1301 0.959 . S
H1308 C1301 0.961 . S
H1309 C1301 0.960 . S
H1310 C1302 0.930 . S
H1311 C1303 0.929 . S
H1312 C1320 0.929 . S
H1313 C1322 0.930 . S
H1314 C1324 0.958 . S
H1315 C1327 0.929 1_565 S
H1316 C1330 0.930 . S
H1317 C1332 0.960 . S
H1318 C1332 0.960 . S
H1319 C1332 0.960 . S
C1320 H1312 0.929 . S
C1320 C1321 1.377 . S
C1320 C1322 1.384 . S
C1321 C1320 1.377 . S
C1321 C1327 1.390 . S
C1322 H1313 0.930 . S
C1322 C1320 1.384 . S
C1322 C1323 1.372 . S
C1323 C1322 1.372 . S
C1323 C1324 1.400 . S
C1323 C1328 1.490 . S
C1324 H1314 0.958 . S
C1324 C1323 1.400 . S
C1324 C1327 1.386 . S
H1325 C1341 0.930 . S
H1326 C1342 0.931 . S
C1327 H1315 0.929 1_545 S
C1327 C1321 1.390 . S
C1327 C1324 1.386 . S
C1328 C1323 1.490 . S
C1328 C1330 1.395 . S
C1328 C1331 1.403 . S
H1329 C1335 0.930 . S
C1330 H1316 0.930 . S
C1330 C1328 1.395 . S
C1330 C1333 1.403 . S
C1331 C1328 1.403 . S
C1331 C1332 1.524 . S
C1331 C1335 1.400 . S
C1332 H1317 0.960 . S
C1332 H1318 0.960 . S
C1332 H1319 0.960 . S
C1332 C1331 1.524 . S
C1333 C1330 1.403 . S
C1333 C1334 1.392 . S
C1333 C1337 1.495 . S
C1334 C1333 1.392 . S
C1334 C1335 1.385 . S
C1334 C1336 1.478 . S
C1335 H1329 0.930 . S
C1335 C1331 1.400 . S
C1335 C1334 1.385 . S
C1336 C1334 1.478 . S
C1336 C1338 1.381 . S
C1336 C1342 1.383 . S
C1337 C1333 1.495 . S
C1337 H1343 0.959 . S
C1337 H1344 0.961 . S
C1337 H1345 0.960 . S
C1338 C1336 1.381 . S
C1338 C1339 1.394 . S
C1338 H1346 0.930 . S
C1339 C1338 1.394 . S
C1339 C1340 1.383 . S
C1339 H1347 0.929 . S
C1340 C1339 1.383 . S
C1340 C1341 1.377 . S
C1341 H1325 0.930 . S
C1341 C1340 1.377 . S
C1341 C1342 1.379 . S
C1342 H1326 0.931 . S
C1342 C1336 1.383 . S
C1342 C1341 1.379 . S
H1343 C1337 0.959 . S
H1344 C1337 0.961 . S
H1345 C1337 0.960 . S
H1346 C1338 0.930 . S
H1347 C1339 0.929 . S
H1348 C1356 0.929 . S
H1349 C1358 0.930 . S
H1350 C1360 0.930 . S
H1351 C1363 0.929 . S
H1352 C1366 0.930 . S
H1353 C1368 0.960 . S
H1354 C1368 0.960 . S
H1355 C1368 0.960 . S
C1356 H1348 0.929 . S
C1356 C1357 1.377 . S
C1356 C1358 1.384 . S
C1357 C1356 1.377 . S
C1357 C1363 1.390 . S
C1358 H1349 0.930 . S
C1358 C1356 1.384 . S
C1358 C1359 1.372 . S
C1359 C1358 1.372 . S
C1359 C1360 1.400 . S
C1359 C1364 1.490 . S
C1360 H1350 0.930 . S
C1360 C1359 1.400 . S
C1360 C1363 1.386 . S
H1361 C1377 0.930 . S
H1362 C1378 0.931 . S
C1363 H1351 0.929 . S
C1363 C1357 1.390 . S
C1363 C1360 1.386 . S
C1364 C1359 1.490 . S
C1364 C1366 1.395 . S
C1364 C1367 1.403 . S
H1365 C1371 0.930 . S
C1366 H1352 0.930 . S
C1366 C1364 1.395 . S
C1366 C1369 1.403 . S
C1367 C1364 1.403 . S
C1367 C1368 1.524 . S
C1367 C1371 1.400 . S
C1368 H1353 0.960 . S
C1368 H1354 0.960 . S
C1368 H1355 0.960 . S
C1368 C1367 1.524 . S
C1369 C1366 1.403 . S
C1369 C1370 1.392 . S
C1369 C1373 1.495 . S
C1370 C1369 1.392 . S
C1370 C1371 1.385 . S
C1370 C1372 1.478 . S
C1371 H1365 0.930 . S
C1371 C1367 1.400 . S
C1371 C1370 1.385 . S
C1372 C1370 1.478 . S
C1372 C1374 1.381 . S
C1372 C1378 1.383 . S
C1373 C1369 1.495 . S
C1373 H1379 0.959 . S
C1373 H1380 0.961 . S
C1373 H1381 0.960 . S
C1374 C1372 1.381 . S
C1374 C1375 1.394 . S
C1374 H1382 0.930 . S
C1375 C1374 1.394 . S
C1375 C1376 1.383 . S
C1375 H1383 0.929 . S
C1376 C1375 1.383 . S
C1376 C1377 1.377 . S
C1377 H1361 0.930 . S
C1377 C1376 1.377 . S
C1377 C1378 1.379 . S
C1378 H1362 0.931 . S
C1378 C1372 1.383 . S
C1378 C1377 1.379 . S
H1379 C1373 0.959 . S
H1380 C1373 0.961 . S
H1381 C1373 0.960 . S
H1382 C1374 0.930 . S
H1383 C1375 0.929 . S
H1384 C1392 0.929 . S
H1385 C1394 0.929 1_565 S
H1386 C1396 0.930 . S
H1387 C1399 0.929 . S
H1388 C1402 0.930 . S
H1389 C1404 0.960 . S
H1390 C1404 0.960 . S
H1391 C1404 0.960 . S
C1392 H1384 0.929 . S
C1392 C1393 1.377 . S
C1392 C1394 1.385 . S
C1393 C1392 1.377 . S
C1393 C1399 1.390 . S
C1394 H1385 0.929 1_545 S
C1394 C1392 1.385 . S
C1394 C1395 1.372 . S
C1395 C1394 1.372 . S
C1395 C1396 1.407 . S
C1395 C1400 1.485 1_545 S
C1396 H1386 0.930 . S
C1396 C1395 1.407 . S
C1396 C1399 1.386 . S
H1397 C1413 0.930 . S
H1398 C1414 0.943 . S
C1399 H1387 0.929 . S
C1399 C1393 1.390 . S
C1399 C1396 1.386 . S
C1400 C1395 1.485 1_565 S
C1400 C1402 1.395 1_565 S
C1400 C1403 1.403 . S
H1401 C1407 0.930 . S
C1402 H1388 0.930 . S
C1402 C1400 1.395 1_545 S
C1402 C1405 1.403 . S
C1403 C1400 1.403 . S
C1403 C1404 1.524 . S
C1403 C1407 1.400 . S
C1404 H1389 0.960 . S
C1404 H1390 0.960 . S
C1404 H1391 0.960 . S
C1404 C1403 1.524 . S
C1405 C1402 1.403 . S
C1405 C1406 1.392 1_545 S
C1405 C1409 1.495 . S
C1406 C1405 1.392 1_565 S
C1406 C1407 1.385 . S
C1406 C1408 1.478 . S
C1407 H1401 0.930 . S
C1407 C1403 1.400 . S
C1407 C1406 1.385 . S
C1408 C1406 1.478 . S
C1408 C1410 1.381 . S
C1408 C1414 1.383 . S
C1409 C1405 1.495 . S
C1409 H1415 0.959 . S
C1409 H1416 0.961 . S
C1409 H1417 0.960 . S
C1410 C1408 1.381 . S
C1410 C1411 1.394 . S
C1410 H1418 0.930 . S
C1411 C1410 1.394 . S
C1411 C1412 1.383 . S
C1411 H1419 0.929 . S
C1412 C1411 1.383 . S
C1412 C1413 1.377 . S
C1413 H1397 0.930 . S
C1413 C1412 1.377 . S
C1413 C1414 1.379 . S
C1414 H1398 0.943 . S
C1414 C1408 1.383 . S
C1414 C1413 1.379 . S
H1415 C1409 0.959 . S
H1416 C1409 0.961 . S
H1417 C1409 0.960 . S
H1418 C1410 0.930 . S
H1419 C1411 0.929 . S
H1420 C1428 0.929 . S
H1421 C1430 0.930 . S
H1422 C1432 0.930 . S
H1423 C1435 0.929 . S
H1424 C1438 0.930 . S
H1425 C1440 0.960 . S
H1426 C1440 0.960 . S
H1427 C1440 0.960 . S
C1428 H1420 0.929 . S
C1428 C1429 1.377 . S
C1428 C1430 1.384 . S
C1429 C1428 1.377 . S
C1429 C1435 1.390 . S
C1430 H1421 0.930 . S
C1430 C1428 1.384 . S
C1430 C1431 1.372 . S
C1431 C1430 1.372 . S
C1431 C1432 1.400 . S
C1431 C1436 1.490 . S
C1432 H1422 0.930 . S
C1432 C1431 1.400 . S
C1432 C1435 1.386 . S
H1433 C1449 0.930 . S
H1434 C1450 0.931 . S
C1435 H1423 0.929 . S
C1435 C1429 1.390 . S
C1435 C1432 1.386 . S
C1436 C1431 1.490 . S
C1436 C1438 1.395 . S
C1436 C1439 1.403 . S
H1437 C1443 0.930 . S
C1438 H1424 0.930 . S
C1438 C1436 1.395 . S
C1438 C1441 1.403 . S
C1439 C1436 1.403 . S
C1439 C1440 1.524 . S
C1439 C1443 1.400 . S
C1440 H1425 0.960 . S
C1440 H1426 0.960 . S
C1440 H1427 0.960 . S
C1440 C1439 1.524 . S
C1441 C1438 1.403 . S
C1441 C1442 1.392 . S
C1441 C1445 1.495 . S
C1442 C1441 1.392 . S
C1442 C1443 1.385 . S
C1442 C1444 1.478 . S
C1443 H1437 0.930 . S
C1443 C1439 1.400 . S
C1443 C1442 1.385 . S
C1444 C1442 1.478 . S
C1444 C1446 1.381 . S
C1444 C1450 1.383 . S
C1445 C1441 1.495 . S
C1445 H1451 0.959 . S
C1445 H1452 0.961 . S
C1445 H1453 0.960 . S
C1446 C1444 1.381 . S
C1446 C1447 1.394 . S
C1446 H1454 0.930 . S
C1447 C1446 1.394 . S
C1447 C1448 1.383 . S
C1447 H1455 0.929 . S
C1448 C1447 1.383 . S
C1448 C1449 1.377 . S
C1449 H1433 0.930 . S
C1449 C1448 1.377 . S
C1449 C1450 1.379 . S
C1450 H1434 0.931 . S
C1450 C1444 1.383 . S
C1450 C1449 1.379 . S
H1451 C1445 0.959 . S
H1452 C1445 0.961 . S
H1453 C1445 0.960 . S
H1454 C1446 0.930 . S
H1455 C1447 0.929 . S
H1456 C1464 0.929 1_556 S
H1457 C1466 0.878 1_556 S
H1458 C1468 0.930 . S
H1459 C1471 0.929 . S
H1460 C1474 0.938 . S
H1461 C1476 0.960 . S
H1462 C1476 0.960 . S
H1463 C1476 0.960 . S
C1464 H1456 0.929 1_554 S
C1464 C1465 1.377 . S
C1464 C1466 1.392 . S
C1465 C1464 1.377 . S
C1465 C1471 1.390 . S
C1466 H1457 0.878 1_554 S
C1466 C1464 1.392 . S
C1466 C1467 1.417 . S
C1467 C1466 1.417 . S
C1467 C1468 1.400 . S
C1467 C1472 1.490 . S
C1468 H1458 0.930 . S
C1468 C1467 1.400 . S
C1468 C1471 1.386 . S
H1469 C1485 0.930 . S
H1470 C1486 0.931 . S
C1471 H1459 0.929 . S
C1471 C1465 1.390 . S
C1471 C1468 1.386 . S
C1472 C1467 1.490 . S
C1472 C1474 1.384 1_554 S
C1472 C1475 1.403 . S
H1473 C1479 0.930 . S
C1474 H1460 0.938 . S
C1474 C1472 1.384 1_556 S
C1474 C1477 1.406 . S
C1475 C1472 1.403 . S
C1475 C1476 1.524 . S
C1475 C1479 1.400 . S
C1476 H1461 0.960 . S
C1476 H1462 0.960 . S
C1476 H1463 0.960 . S
C1476 C1475 1.524 . S
C1477 C1474 1.406 . S
C1477 C1478 1.392 1_556 S
C1477 C1481 1.495 . S
C1478 C1477 1.392 1_554 S
C1478 C1479 1.385 . S
C1478 C1480 1.478 . S
C1479 H1473 0.930 . S
C1479 C1475 1.400 . S
C1479 C1478 1.385 . S
C1480 C1478 1.478 . S
C1480 C1482 1.381 1_554 S
C1480 C1486 1.383 . S
C1481 C1477 1.495 . S
C1481 H1487 0.959 . S
C1481 H1488 0.961 . S
C1481 H1489 0.960 . S
C1482 C1480 1.381 1_556 S
C1482 C1483 1.394 . S
C1482 H1490 0.930 . S
C1483 C1482 1.394 . S
C1483 C1484 1.383 . S
C1483 H1491 0.929 . S
C1484 C1483 1.383 . S
C1484 C1485 1.377 1_556 S
C1485 H1469 0.930 . S
C1485 C1484 1.377 1_554 S
C1485 C1486 1.379 . S
C1486 H1470 0.931 . S
C1486 C1480 1.383 . S
C1486 C1485 1.379 . S
H1487 C1481 0.959 . S
H1488 C1481 0.961 . S
H1489 C1481 0.960 . S
H1490 C1482 0.930 . S
H1491 C1483 0.929 . S
H1492 C1500 0.929 . S
H1493 C1502 0.930 . S
H1494 C1504 0.930 . S
H1495 C1507 0.929 . S
H1496 C1510 0.930 . S
H1497 C1512 0.960 . S
H1498 C1512 0.960 . S
H1499 C1512 0.960 . S
C1500 H1492 0.929 . S
C1500 C1501 1.377 . S
C1500 C1502 1.384 . S
C1501 C1500 1.377 . S
C1501 C1507 1.390 . S
C1502 H1493 0.930 . S
C1502 C1500 1.384 . S
C1502 C1503 1.372 . S
C1503 C1502 1.372 . S
C1503 C1504 1.400 . S
C1503 C1508 1.490 . S
C1504 H1494 0.930 . S
C1504 C1503 1.400 . S
C1504 C1507 1.386 . S
H1505 C1521 0.930 . S
H1506 C1522 0.931 . S
C1507 H1495 0.929 . S
C1507 C1501 1.390 . S
C1507 C1504 1.386 . S
C1508 C1503 1.490 . S
C1508 C1510 1.395 . S
C1508 C1511 1.403 . S
H1509 C1515 0.930 . S
C1510 H1496 0.930 . S
C1510 C1508 1.395 . S
C1510 C1513 1.403 . S
C1511 C1508 1.403 . S
C1511 C1512 1.524 . S
C1511 C1515 1.400 . S
C1512 H1497 0.960 . S
C1512 H1498 0.960 . S
C1512 H1499 0.960 . S
C1512 C1511 1.524 . S
C1513 C1510 1.403 . S
C1513 C1514 1.392 . S
C1513 C1517 1.495 . S
C1514 C1513 1.392 . S
C1514 C1515 1.385 . S
C1514 C1516 1.478 . S
C1515 H1509 0.930 . S
C1515 C1511 1.400 . S
C1515 C1514 1.385 . S
C1516 C1514 1.478 . S
C1516 C1518 1.381 . S
C1516 C1522 1.383 . S
C1517 C1513 1.495 . S
C1517 H1523 0.959 . S
C1517 H1524 0.961 . S
C1517 H1525 0.960 . S
C1518 C1516 1.381 . S
C1518 C1519 1.394 . S
C1518 H1526 0.930 . S
C1519 C1518 1.394 . S
C1519 C1520 1.383 . S
C1519 H1527 0.929 . S
C1520 C1519 1.383 . S
C1520 C1521 1.377 . S
C1521 H1505 0.930 . S
C1521 C1520 1.377 . S
C1521 C1522 1.379 . S
C1522 H1506 0.931 . S
C1522 C1516 1.383 . S
C1522 C1521 1.379 . S
H1523 C1517 0.959 . S
H1524 C1517 0.961 . S
H1525 C1517 0.960 . S
H1526 C1518 0.930 . S
H1527 C1519 0.929 . S
H1528 C1536 0.929 . S
H1529 C1538 0.930 . S
H1530 C1540 0.930 . S
H1531 C1543 0.929 . S
H1532 C1546 0.930 . S
H1533 C1548 0.960 . S
H1534 C1548 0.960 . S
H1535 C1548 0.960 . S
C1536 H1528 0.929 . S
C1536 C1537 1.377 . S
C1536 C1538 1.384 . S
C1537 C1536 1.377 . S
C1537 C1543 1.390 . S
C1538 H1529 0.930 . S
C1538 C1536 1.384 . S
C1538 C1539 1.372 . S
C1539 C1538 1.372 . S
C1539 C1540 1.400 . S
C1539 C1544 1.490 . S
C1540 H1530 0.930 . S
C1540 C1539 1.400 . S
C1540 C1543 1.386 . S
H1541 C1557 0.930 . S
H1542 C1558 0.931 . S
C1543 H1531 0.929 . S
C1543 C1537 1.390 . S
C1543 C1540 1.386 . S
C1544 C1539 1.490 . S
C1544 C1546 1.395 . S
C1544 C1547 1.403 . S
H1545 C1551 0.930 . S
C1546 H1532 0.930 . S
C1546 C1544 1.395 . S
C1546 C1549 1.403 . S
C1547 C1544 1.403 . S
C1547 C1548 1.524 . S
C1547 C1551 1.400 . S
C1548 H1533 0.960 . S
C1548 H1534 0.960 . S
C1548 H1535 0.960 . S
C1548 C1547 1.524 . S
C1549 C1546 1.403 . S
C1549 C1550 1.392 . S
C1549 C1553 1.495 . S
C1550 C1549 1.392 . S
C1550 C1551 1.385 . S
C1550 C1552 1.478 . S
C1551 H1545 0.930 . S
C1551 C1547 1.400 . S
C1551 C1550 1.385 . S
C1552 C1550 1.478 . S
C1552 C1554 1.381 . S
C1552 C1558 1.383 . S
C1553 C1549 1.495 . S
C1553 H1559 0.959 . S
C1553 H1560 0.961 . S
C1553 H1561 0.960 . S
C1554 C1552 1.381 . S
C1554 C1555 1.394 . S
C1554 H1562 0.930 . S
C1555 C1554 1.394 . S
C1555 C1556 1.383 . S
C1555 H1563 0.929 . S
C1556 C1555 1.383 . S
C1556 C1557 1.377 . S
C1557 H1541 0.930 . S
C1557 C1556 1.377 . S
C1557 C1558 1.379 . S
C1558 H1542 0.931 . S
C1558 C1552 1.383 . S
C1558 C1557 1.379 . S
H1559 C1553 0.959 . S
H1560 C1553 0.961 . S
H1561 C1553 0.960 . S
H1562 C1554 0.930 . S
H1563 C1555 0.929 . S
H1564 C1572 0.929 . S
H1565 C1574 0.930 . S
H1566 C1576 0.930 . S
H1567 C1579 0.929 . S
H1568 C1582 0.930 . S
H1569 C1584 0.960 . S
H1570 C1584 0.960 . S
H1571 C1584 0.960 . S
C1572 H1564 0.929 . S
C1572 C1573 1.377 . S
C1572 C1574 1.384 . S
C1573 C1572 1.377 . S
C1573 C1579 1.390 . S
C1574 H1565 0.930 . S
C1574 C1572 1.384 . S
C1574 C1575 1.372 . S
C1575 C1574 1.372 . S
C1575 C1576 1.400 . S
C1575 C1580 1.490 . S
C1576 H1566 0.930 . S
C1576 C1575 1.400 . S
C1576 C1579 1.386 . S
H1577 C1593 0.930 . S
H1578 C1594 0.931 . S
C1579 H1567 0.929 . S
C1579 C1573 1.390 . S
C1579 C1576 1.386 . S
C1580 C1575 1.490 . S
C1580 C1582 1.395 . S
C1580 C1583 1.403 . S
H1581 C1587 0.930 . S
C1582 H1568 0.930 . S
C1582 C1580 1.395 . S
C1582 C1585 1.403 . S
C1583 C1580 1.403 . S
C1583 C1584 1.524 . S
C1583 C1587 1.400 . S
C1584 H1569 0.960 . S
C1584 H1570 0.960 . S
C1584 H1571 0.960 . S
C1584 C1583 1.524 . S
C1585 C1582 1.403 . S
C1585 C1586 1.392 . S
C1585 C1589 1.495 . S
C1586 C1585 1.392 . S
C1586 C1587 1.385 . S
C1586 C1588 1.478 . S
C1587 H1581 0.930 . S
C1587 C1583 1.400 . S
C1587 C1586 1.385 . S
C1588 C1586 1.478 . S
C1588 C1590 1.381 . S
C1588 C1594 1.383 . S
C1589 C1585 1.495 . S
C1589 H1595 0.959 . S
C1589 H1596 0.961 . S
C1589 H1597 0.960 . S
C1590 C1588 1.381 . S
C1590 C1591 1.394 . S
C1590 H1598 0.930 . S
C1591 C1590 1.394 . S
C1591 C1592 1.383 . S
C1591 H1599 0.929 . S
C1592 C1591 1.383 . S
C1592 C1593 1.377 . S
C1593 H1577 0.930 . S
C1593 C1592 1.377 . S
C1593 C1594 1.379 . S
C1594 H1578 0.931 . S
C1594 C1588 1.383 . S
C1594 C1593 1.379 . S
H1595 C1589 0.959 . S
H1596 C1589 0.961 . S
H1597 C1589 0.960 . S
H1598 C1590 0.930 . S
H1599 C1591 0.929 . S
H1600 C1608 0.929 . S
H1601 C1610 0.930 . S
H1602 C1612 0.930 . S
H1603 C1615 0.929 . S
H1604 C1618 0.930 . S
H1605 C1620 0.960 . S
H1606 C1620 0.960 . S
H1607 C1620 0.960 . S
C1608 H1600 0.929 . S
C1608 C1609 1.377 . S
C1608 C1610 1.384 . S
C1609 C1608 1.377 . S
C1609 C1615 1.390 . S
C1610 H1601 0.930 . S
C1610 C1608 1.384 . S
C1610 C1611 1.372 . S
C1611 C1610 1.372 . S
C1611 C1612 1.400 . S
C1611 C1616 1.490 . S
C1612 H1602 0.930 . S
C1612 C1611 1.400 . S
C1612 C1615 1.386 . S
H1613 C1629 0.930 . S
H1614 C1630 0.931 . S
C1615 H1603 0.929 . S
C1615 C1609 1.390 . S
C1615 C1612 1.386 . S
C1616 C1611 1.490 . S
C1616 C1618 1.395 . S
C1616 C1619 1.403 . S
H1617 C1623 0.930 . S
C1618 H1604 0.930 . S
C1618 C1616 1.395 . S
C1618 C1621 1.403 . S
C1619 C1616 1.403 . S
C1619 C1620 1.524 . S
C1619 C1623 1.400 . S
C1620 H1605 0.960 . S
C1620 H1606 0.960 . S
C1620 H1607 0.960 . S
C1620 C1619 1.524 . S
C1621 C1618 1.403 . S
C1621 C1622 1.392 . S
C1621 C1625 1.495 . S
C1622 C1621 1.392 . S
C1622 C1623 1.385 . S
C1622 C1624 1.478 . S
C1623 H1617 0.930 . S
C1623 C1619 1.400 . S
C1623 C1622 1.385 . S
C1624 C1622 1.478 . S
C1624 C1626 1.381 . S
C1624 C1630 1.383 . S
C1625 C1621 1.495 . S
C1625 H1631 0.959 . S
C1625 H1632 0.961 . S
C1625 H1633 0.960 . S
C1626 C1624 1.381 . S
C1626 C1627 1.394 . S
C1626 H1634 0.930 . S
C1627 C1626 1.394 . S
C1627 C1628 1.383 . S
C1627 H1635 0.929 . S
C1628 C1627 1.383 . S
C1628 C1629 1.377 . S
C1629 H1613 0.930 . S
C1629 C1628 1.377 . S
C1629 C1630 1.379 . S
C1630 H1614 0.931 . S
C1630 C1624 1.383 . S
C1630 C1629 1.379 . S
H1631 C1625 0.959 . S
H1632 C1625 0.961 . S
H1633 C1625 0.960 . S
H1634 C1626 0.930 . S
H1635 C1627 0.929 . S
H1636 C1644 0.929 . S
H1637 C1646 0.930 . S
H1638 C1648 0.930 . S
H1639 C1651 0.929 . S
H1640 C1654 0.930 . S
H1641 C1656 0.960 . S
H1642 C1656 0.960 . S
H1643 C1656 0.960 . S
C1644 H1636 0.929 . S
C1644 C1645 1.377 . S
C1644 C1646 1.384 . S
C1645 C1644 1.377 . S
C1645 C1651 1.390 . S
C1646 H1637 0.930 . S
C1646 C1644 1.384 . S
C1646 C1647 1.372 . S
C1647 C1646 1.372 . S
C1647 C1648 1.400 . S
C1647 C1652 1.490 . S
C1648 H1638 0.930 . S
C1648 C1647 1.400 . S
C1648 C1651 1.386 . S
H1649 C1665 0.967 . S
H1650 C1666 0.961 . S
C1651 H1639 0.929 . S
C1651 C1645 1.390 . S
C1651 C1648 1.386 . S
C1652 C1647 1.490 . S
C1652 C1654 1.395 . S
C1652 C1655 1.403 . S
H1653 C1659 0.930 . S
C1654 H1640 0.930 . S
C1654 C1652 1.395 . S
C1654 C1657 1.403 . S
C1655 C1652 1.403 . S
C1655 C1656 1.524 . S
C1655 C1659 1.400 . S
C1656 H1641 0.960 . S
C1656 H1642 0.960 . S
C1656 H1643 0.960 . S
C1656 C1655 1.524 . S
C1657 C1654 1.403 . S
C1657 C1658 1.392 . S
C1657 C1661 1.495 . S
C1658 C1657 1.392 . S
C1658 C1659 1.385 . S
C1658 C1660 1.478 . S
C1659 H1653 0.930 . S
C1659 C1655 1.400 . S
C1659 C1658 1.385 . S
C1660 C1658 1.478 . S
C1660 C1662 1.381 . S
C1660 C1666 1.383 . S
C1661 C1657 1.495 . S
C1661 H1667 0.959 . S
C1661 H1668 0.961 . S
C1661 H1669 0.960 . S
C1662 C1660 1.381 . S
C1662 C1663 1.394 . S
C1662 H1670 0.930 . S
C1663 C1662 1.394 . S
C1663 C1664 1.383 . S
C1663 H1671 0.929 . S
C1664 C1663 1.383 . S
C1664 C1665 1.357 1_565 S
C1665 H1649 0.967 . S
C1665 C1664 1.357 1_545 S
C1665 C1666 1.363 1_545 S
C1666 H1650 0.961 . S
C1666 C1660 1.383 . S
C1666 C1665 1.363 1_565 S
H1667 C1661 0.959 . S
H1668 C1661 0.961 . S
H1669 C1661 0.960 . S
H1670 C1662 0.930 . S
H1671 C1663 0.929 . S
H1672 C1680 0.929 . S
H1673 C1682 0.930 . S
H1674 C1684 0.930 . S
H1675 C1687 0.929 . S
H1676 C1690 0.930 . S
H1677 C1692 0.960 . S
H1678 C1692 0.960 . S
H1679 C1692 0.960 . S
C1680 H1672 0.929 . S
C1680 C1681 1.377 . S
C1680 C1682 1.384 . S
C1681 C1680 1.377 . S
C1681 C1687 1.390 . S
C1682 H1673 0.930 . S
C1682 C1680 1.384 . S
C1682 C1683 1.372 . S
C1683 C1682 1.372 . S
C1683 C1684 1.400 . S
C1683 C1688 1.490 . S
C1684 H1674 0.930 . S
C1684 C1683 1.400 . S
C1684 C1687 1.386 . S
H1685 C1701 0.930 . S
H1686 C1702 0.931 . S
C1687 H1675 0.929 . S
C1687 C1681 1.390 . S
C1687 C1684 1.386 . S
C1688 C1683 1.490 . S
C1688 C1690 1.395 . S
C1688 C1691 1.403 . S
H1689 C1695 0.930 . S
C1690 H1676 0.930 . S
C1690 C1688 1.395 . S
C1690 C1693 1.403 . S
C1691 C1688 1.403 . S
C1691 C1692 1.524 . S
C1691 C1695 1.400 . S
C1692 H1677 0.960 . S
C1692 H1678 0.960 . S
C1692 H1679 0.960 . S
C1692 C1691 1.524 . S
C1693 C1690 1.403 . S
C1693 C1694 1.392 . S
C1693 C1697 1.495 . S
C1694 C1693 1.392 . S
C1694 C1695 1.385 . S
C1694 C1696 1.478 . S
C1695 H1689 0.930 . S
C1695 C1691 1.400 . S
C1695 C1694 1.385 . S
C1696 C1694 1.478 . S
C1696 C1698 1.381 . S
C1696 C1702 1.383 . S
C1697 C1693 1.495 . S
C1697 H1703 0.959 . S
C1697 H1704 0.961 . S
C1697 H1705 0.960 . S
C1698 C1696 1.381 . S
C1698 C1699 1.394 . S
C1698 H1706 0.930 . S
C1699 C1698 1.394 . S
C1699 C1700 1.383 . S
C1699 H1707 0.929 . S
C1700 C1699 1.383 . S
C1700 C1701 1.377 . S
C1701 H1685 0.930 . S
C1701 C1700 1.377 . S
C1701 C1702 1.379 . S
C1702 H1686 0.931 . S
C1702 C1696 1.383 . S
C1702 C1701 1.379 . S
H1703 C1697 0.959 . S
H1704 C1697 0.961 . S
H1705 C1697 0.960 . S
H1706 C1698 0.930 . S
H1707 C1699 0.929 . S
H1708 C1716 0.929 . S
H1709 C1718 0.930 . S
H1710 C1720 0.930 . S
H1711 C1723 0.929 . S
H1712 C1726 0.930 . S
H1713 C1728 0.960 . S
H1714 C1728 0.960 . S
H1715 C1728 0.960 . S
C1716 H1708 0.929 . S
C1716 C1717 1.377 . S
C1716 C1718 1.384 . S
C1717 C1716 1.377 . S
C1717 C1723 1.390 . S
C1718 H1709 0.930 . S
C1718 C1716 1.384 . S
C1718 C1719 1.372 . S
C1719 C1718 1.372 . S
C1719 C1720 1.400 . S
C1719 C1724 1.490 . S
C1720 H1710 0.930 . S
C1720 C1719 1.400 . S
C1720 C1723 1.386 . S
H1721 C1737 0.930 . S
H1722 C1738 0.931 . S
C1723 H1711 0.929 . S
C1723 C1717 1.390 . S
C1723 C1720 1.386 . S
C1724 C1719 1.490 . S
C1724 C1726 1.395 . S
C1724 C1727 1.403 . S
H1725 C1731 0.930 . S
C1726 H1712 0.930 . S
C1726 C1724 1.395 . S
C1726 C1729 1.403 . S
C1727 C1724 1.403 . S
C1727 C1728 1.524 . S
C1727 C1731 1.400 . S
C1728 H1713 0.960 . S
C1728 H1714 0.960 . S
C1728 H1715 0.960 . S
C1728 C1727 1.524 . S
C1729 C1726 1.403 . S
C1729 C1730 1.392 . S
C1729 C1733 1.495 . S
C1730 C1729 1.392 . S
C1730 C1731 1.385 . S
C1730 C1732 1.478 . S
C1731 H1725 0.930 . S
C1731 C1727 1.400 . S
C1731 C1730 1.385 . S
C1732 C1730 1.478 . S
C1732 C1734 1.381 . S
C1732 C1738 1.383 . S
C1733 C1729 1.495 . S
C1733 H1739 0.959 . S
C1733 H1740 0.961 . S
C1733 H1741 0.960 . S
C1734 C1732 1.381 . S
C1734 C1735 1.394 . S
C1734 H1742 0.930 . S
C1735 C1734 1.394 . S
C1735 C1736 1.383 . S
C1735 H1743 0.929 . S
C1736 C1735 1.383 . S
C1736 C1737 1.377 . S
C1737 H1721 0.930 . S
C1737 C1736 1.377 . S
C1737 C1738 1.379 . S
C1738 H1722 0.931 . S
C1738 C1732 1.383 . S
C1738 C1737 1.379 . S
H1739 C1733 0.959 . S
H1740 C1733 0.961 . S
H1741 C1733 0.960 . S
H1742 C1734 0.930 . S
H1743 C1735 0.929 . S
H1744 C1752 0.929 . S
H1745 C1754 0.929 1_655 S
H1746 C1756 0.930 . S
H1747 C1759 0.929 . S
H1748 C1762 0.930 . S
H1749 C1764 0.960 . S
H1750 C1764 0.960 . S
H1751 C1764 0.960 . S
C1752 H1744 0.929 . S
C1752 C1753 1.377 1_655 S
C1752 C1754 1.383 1_655 S
C1753 C1752 1.377 1_455 S
C1753 C1759 1.390 . S
C1754 H1745 0.929 1_455 S
C1754 C1752 1.383 1_455 S
C1754 C1755 1.374 . S
C1755 C1754 1.374 . S
C1755 C1756 1.400 . S
C1755 C1760 1.490 . S
C1756 H1746 0.930 . S
C1756 C1755 1.400 . S
C1756 C1759 1.386 . S
H1757 C1773 0.930 . S
H1758 C1774 0.936 . S
C1759 H1747 0.929 . S
C1759 C1753 1.390 . S
C1759 C1756 1.386 . S
C1760 C1755 1.490 . S
C1760 C1762 1.395 1_455 S
C1760 C1763 1.403 . S
H1761 C1767 0.930 . S
C1762 H1748 0.930 . S
C1762 C1760 1.395 1_655 S
C1762 C1765 1.403 . S
C1763 C1760 1.403 . S
C1763 C1764 1.524 . S
C1763 C1767 1.400 . S
C1764 H1749 0.960 . S
C1764 H1750 0.960 . S
C1764 H1751 0.960 . S
C1764 C1763 1.524 . S
C1765 C1762 1.403 . S
C1765 C1766 1.392 1_655 S
C1765 C1769 1.495 . S
C1766 C1765 1.392 1_455 S
C1766 C1767 1.385 . S
C1766 C1768 1.478 . S
C1767 H1761 0.930 . S
C1767 C1763 1.400 . S
C1767 C1766 1.385 . S
C1768 C1766 1.478 . S
C1768 C1770 1.381 . S
C1768 C1774 1.383 . S
C1769 C1765 1.495 . S
C1769 H1775 0.959 . S
C1769 H1776 0.961 . S
C1769 H1777 0.960 . S
C1770 C1768 1.381 . S
C1770 C1771 1.394 . S
C1770 H1778 0.930 . S
C1771 C1770 1.394 . S
C1771 C1772 1.383 1_556 S
C1771 H1779 0.929 . S
C1772 C1771 1.383 1_554 S
C1772 C1773 1.377 . S
C1773 H1757 0.930 . S
C1773 C1772 1.377 . S
C1773 C1774 1.379 1_554 S
C1774 H1758 0.936 . S
C1774 C1768 1.383 . S
C1774 C1773 1.379 1_556 S
H1775 C1769 0.959 . S
H1776 C1769 0.961 . S
H1777 C1769 0.960 . S
H1778 C1770 0.930 . S
H1779 C1771 0.929 . S
H1780 C1788 0.929 . S
H1781 C1790 0.930 . S
H1782 C1792 0.930 . S
H1783 C1795 0.929 . S
H1784 C1798 0.930 . S
H1785 C1800 0.960 . S
H1786 C1800 0.960 . S
H1787 C1800 0.960 . S
C1788 H1780 0.929 . S
C1788 C1789 1.377 . S
C1788 C1790 1.384 . S
C1789 C1788 1.377 . S
C1789 C1795 1.390 . S
C1790 H1781 0.930 . S
C1790 C1788 1.384 . S
C1790 C1791 1.372 . S
C1791 C1790 1.372 . S
C1791 C1792 1.400 . S
C1791 C1796 1.490 . S
C1792 H1782 0.930 . S
C1792 C1791 1.400 . S
C1792 C1795 1.386 . S
H1793 C1809 0.930 . S
H1794 C1810 0.931 . S
C1795 H1783 0.929 . S
C1795 C1789 1.390 . S
C1795 C1792 1.386 . S
C1796 C1791 1.490 . S
C1796 C1798 1.395 . S
C1796 C1799 1.403 . S
H1797 C1803 0.930 . S
C1798 H1784 0.930 . S
C1798 C1796 1.395 . S
C1798 C1801 1.403 . S
C1799 C1796 1.403 . S
C1799 C1800 1.524 . S
C1799 C1803 1.400 . S
C1800 H1785 0.960 . S
C1800 H1786 0.960 . S
C1800 H1787 0.960 . S
C1800 C1799 1.524 . S
C1801 C1798 1.403 . S
C1801 C1802 1.392 . S
C1801 C1805 1.495 . S
C1802 C1801 1.392 . S
C1802 C1803 1.385 . S
C1802 C1804 1.478 . S
C1803 H1797 0.930 . S
C1803 C1799 1.400 . S
C1803 C1802 1.385 . S
C1804 C1802 1.478 . S
C1804 C1806 1.381 . S
C1804 C1810 1.383 . S
C1805 C1801 1.495 . S
C1805 H1811 0.959 . S
C1805 H1812 0.961 . S
C1805 H1813 0.960 . S
C1806 C1804 1.381 . S
C1806 C1807 1.394 . S
C1806 H1814 0.930 . S
C1807 C1806 1.394 . S
C1807 C1808 1.383 . S
C1807 H1815 0.929 . S
C1808 C1807 1.383 . S
C1808 C1809 1.377 . S
C1809 H1793 0.930 . S
C1809 C1808 1.377 . S
C1809 C1810 1.379 . S
C1810 H1794 0.931 . S
C1810 C1804 1.383 . S
C1810 C1809 1.379 . S
H1811 C1805 0.959 . S
H1812 C1805 0.961 . S
H1813 C1805 0.960 . S
H1814 C1806 0.930 . S
H1815 C1807 0.929 . S
H1816 C1824 0.929 . S
H1817 C1826 0.930 . S
H1818 C1828 0.930 . S
H1819 C1831 0.929 . S
H1820 C1834 0.930 . S
H1821 C1836 0.960 . S
H1822 C1836 0.960 . S
H1823 C1836 0.960 . S
C1824 H1816 0.929 . S
C1824 C1825 1.377 . S
C1824 C1826 1.384 . S
C1825 C1824 1.377 . S
C1825 C1831 1.390 . S
C1826 H1817 0.930 . S
C1826 C1824 1.384 . S
C1826 C1827 1.372 . S
C1827 C1826 1.372 . S
C1827 C1828 1.400 . S
C1827 C1832 1.490 . S
C1828 H1818 0.930 . S
C1828 C1827 1.400 . S
C1828 C1831 1.386 . S
H1829 C1845 0.930 . S
H1830 C1846 0.931 . S
C1831 H1819 0.929 . S
C1831 C1825 1.390 . S
C1831 C1828 1.386 . S
C1832 C1827 1.490 . S
C1832 C1834 1.395 . S
C1832 C1835 1.403 . S
H1833 C1839 0.930 . S
C1834 H1820 0.930 . S
C1834 C1832 1.395 . S
C1834 C1837 1.403 . S
C1835 C1832 1.403 . S
C1835 C1836 1.524 . S
C1835 C1839 1.400 . S
C1836 H1821 0.960 . S
C1836 H1822 0.960 . S
C1836 H1823 0.960 . S
C1836 C1835 1.524 . S
C1837 C1834 1.403 . S
C1837 C1838 1.392 . S
C1837 C1841 1.495 . S
C1838 C1837 1.392 . S
C1838 C1839 1.385 . S
C1838 C1840 1.478 . S
C1839 H1833 0.930 . S
C1839 C1835 1.400 . S
C1839 C1838 1.385 . S
C1840 C1838 1.478 . S
C1840 C1842 1.381 . S
C1840 C1846 1.383 . S
C1841 C1837 1.495 . S
C1841 H1847 0.959 . S
C1841 H1848 0.961 . S
C1841 H1849 0.960 . S
C1842 C1840 1.381 . S
C1842 C1843 1.394 . S
C1842 H1850 0.930 . S
C1843 C1842 1.394 . S
C1843 C1844 1.383 . S
C1843 H1851 0.929 . S
C1844 C1843 1.383 . S
C1844 C1845 1.377 . S
C1845 H1829 0.930 . S
C1845 C1844 1.377 . S
C1845 C1846 1.379 . S
C1846 H1830 0.931 . S
C1846 C1840 1.383 . S
C1846 C1845 1.379 . S
H1847 C1841 0.959 . S
H1848 C1841 0.961 . S
H1849 C1841 0.960 . S
H1850 C1842 0.930 . S
H1851 C1843 0.929 . S
H1852 C1860 0.929 . S
H1853 C1862 0.930 . S
H1854 C1864 0.930 . S
H1855 C1867 0.929 . S
H1856 C1870 0.930 . S
H1857 C1872 0.960 . S
H1858 C1872 0.960 . S
H1859 C1872 0.960 . S
C1860 H1852 0.929 . S
C1860 C1861 1.377 . S
C1860 C1862 1.384 . S
C1861 C1860 1.377 . S
C1861 C1867 1.390 . S
C1862 H1853 0.930 . S
C1862 C1860 1.384 . S
C1862 C1863 1.372 . S
C1863 C1862 1.372 . S
C1863 C1864 1.400 . S
C1863 C1868 1.490 . S
C1864 H1854 0.930 . S
C1864 C1863 1.400 . S
C1864 C1867 1.386 . S
H1865 C1881 0.930 . S
H1866 C1882 0.931 . S
C1867 H1855 0.929 . S
C1867 C1861 1.390 . S
C1867 C1864 1.386 . S
C1868 C1863 1.490 . S
C1868 C1870 1.395 . S
C1868 C1871 1.403 . S
H1869 C1875 0.930 . S
C1870 H1856 0.930 . S
C1870 C1868 1.395 . S
C1870 C1873 1.403 . S
C1871 C1868 1.403 . S
C1871 C1872 1.524 . S
C1871 C1875 1.400 . S
C1872 H1857 0.960 . S
C1872 H1858 0.960 . S
C1872 H1859 0.960 . S
C1872 C1871 1.524 . S
C1873 C1870 1.403 . S
C1873 C1874 1.392 . S
C1873 C1877 1.495 . S
C1874 C1873 1.392 . S
C1874 C1875 1.385 . S
C1874 C1876 1.478 . S
C1875 H1869 0.930 . S
C1875 C1871 1.400 . S
C1875 C1874 1.385 . S
C1876 C1874 1.478 . S
C1876 C1878 1.381 . S
C1876 C1882 1.383 . S
C1877 C1873 1.495 . S
C1877 H1883 0.959 . S
C1877 H1884 0.961 . S
C1877 H1885 0.960 . S
C1878 C1876 1.381 . S
C1878 C1879 1.394 . S
C1878 H1886 0.930 . S
C1879 C1878 1.394 . S
C1879 C1880 1.383 . S
C1879 H1887 0.929 . S
C1880 C1879 1.383 . S
C1880 C1881 1.377 . S
C1881 H1865 0.930 . S
C1881 C1880 1.377 . S
C1881 C1882 1.379 . S
C1882 H1866 0.931 . S
C1882 C1876 1.383 . S
C1882 C1881 1.379 . S
H1883 C1877 0.959 . S
H1884 C1877 0.961 . S
H1885 C1877 0.960 . S
H1886 C1878 0.930 . S
H1887 C1879 0.929 . S
H1888 C1896 0.929 . S
H1889 C1898 0.930 . S
H1890 C1900 0.930 . S
H1891 C1903 0.929 . S
H1892 C1906 0.930 . S
H1893 C1908 0.960 . S
H1894 C1908 0.960 . S
H1895 C1908 0.960 . S
C1896 H1888 0.929 . S
C1896 C1897 1.377 . S
C1896 C1898 1.384 . S
C1897 C1896 1.377 . S
C1897 C1903 1.390 . S
C1898 H1889 0.930 . S
C1898 C1896 1.384 . S
C1898 C1899 1.372 . S
C1899 C1898 1.372 . S
C1899 C1900 1.400 . S
C1899 C1904 1.490 . S
C1900 H1890 0.930 . S
C1900 C1899 1.400 . S
C1900 C1903 1.386 . S
H1901 C1917 0.930 . S
H1902 C1918 0.931 . S
C1903 H1891 0.929 . S
C1903 C1897 1.390 . S
C1903 C1900 1.386 . S
C1904 C1899 1.490 . S
C1904 C1906 1.395 . S
C1904 C1907 1.403 . S
H1905 C1911 0.930 . S
C1906 H1892 0.930 . S
C1906 C1904 1.395 . S
C1906 C1909 1.403 . S
C1907 C1904 1.403 . S
C1907 C1908 1.524 1_455 S
C1907 C1911 1.400 . S
C1908 H1893 0.960 . S
C1908 H1894 0.960 . S
C1908 H1895 0.960 . S
C1908 C1907 1.524 1_655 S
C1909 C1906 1.403 . S
C1909 C1910 1.392 . S
C1909 C1913 1.495 . S
C1910 C1909 1.392 . S
C1910 C1911 1.385 . S
C1910 C1912 1.478 . S
C1911 H1905 0.930 . S
C1911 C1907 1.400 . S
C1911 C1910 1.385 . S
C1912 C1910 1.478 . S
C1912 C1914 1.381 . S
C1912 C1918 1.383 . S
C1913 C1909 1.495 . S
C1913 H1919 0.959 . S
C1913 H1920 0.961 . S
C1913 H1921 0.960 . S
C1914 C1912 1.381 . S
C1914 C1915 1.394 . S
C1914 H1922 0.930 . S
C1915 C1914 1.394 . S
C1915 C1916 1.383 . S
C1915 H1923 0.929 . S
C1916 C1915 1.383 . S
C1916 C1917 1.377 . S
C1917 H1901 0.930 . S
C1917 C1916 1.377 . S
C1917 C1918 1.379 . S
C1918 H1902 0.931 . S
C1918 C1912 1.383 . S
C1918 C1917 1.379 . S
H1919 C1913 0.959 . S
H1920 C1913 0.961 . S
H1921 C1913 0.960 . S
H1922 C1914 0.930 . S
H1923 C1915 0.929 . S
H1924 C1932 0.929 . S
H1925 C1934 0.930 . S
H1926 C1936 0.930 . S
H1927 C1939 0.929 . S
H1928 C1942 0.930 . S
H1929 C1944 0.960 . S
H1930 C1944 0.960 . S
H1931 C1944 0.960 . S
C1932 H1924 0.929 . S
C1932 C1933 1.377 . S
C1932 C1934 1.384 . S
C1933 C1932 1.377 . S
C1933 C1939 1.390 . S
C1934 H1925 0.930 . S
C1934 C1932 1.384 . S
C1934 C1935 1.372 . S
C1935 C1934 1.372 . S
C1935 C1936 1.400 . S
C1935 C1940 1.490 . S
C1936 H1926 0.930 . S
C1936 C1935 1.400 . S
C1936 C1939 1.386 . S
H1937 C1953 0.930 . S
H1938 C1954 0.931 . S
C1939 H1927 0.929 . S
C1939 C1933 1.390 . S
C1939 C1936 1.386 . S
C1940 C1935 1.490 . S
C1940 C1942 1.395 . S
C1940 C1943 1.403 . S
H1941 C1947 0.930 . S
C1942 H1928 0.930 . S
C1942 C1940 1.395 . S
C1942 C1945 1.403 . S
C1943 C1940 1.403 . S
C1943 C1944 1.524 . S
C1943 C1947 1.400 . S
C1944 H1929 0.960 . S
C1944 H1930 0.960 . S
C1944 H1931 0.960 . S
C1944 C1943 1.524 . S
C1945 C1942 1.403 . S
C1945 C1946 1.392 . S
C1945 C1949 1.495 . S
C1946 C1945 1.392 . S
C1946 C1947 1.385 . S
C1946 C1948 1.478 . S
C1947 H1941 0.930 . S
C1947 C1943 1.400 . S
C1947 C1946 1.385 . S
C1948 C1946 1.478 . S
C1948 C1950 1.381 . S
C1948 C1954 1.383 . S
C1949 C1945 1.495 . S
C1949 H1955 0.959 . S
C1949 H1956 0.961 . S
C1949 H1957 0.960 . S
C1950 C1948 1.381 . S
C1950 C1951 1.394 . S
C1950 H1958 0.930 . S
C1951 C1950 1.394 . S
C1951 C1952 1.383 . S
C1951 H1959 0.929 . S
C1952 C1951 1.383 . S
C1952 C1953 1.377 . S
C1953 H1937 0.930 . S
C1953 C1952 1.377 . S
C1953 C1954 1.379 . S
C1954 H1938 0.931 . S
C1954 C1948 1.383 . S
C1954 C1953 1.379 . S
H1955 C1949 0.959 . S
H1956 C1949 0.961 . S
H1957 C1949 0.960 . S
H1958 C1950 0.930 . S
H1959 C1951 0.929 . S
H1960 C1968 0.929 . S
H1961 C1970 0.930 . S
H1962 C1972 0.930 . S
H1963 C1975 0.929 . S
H1964 C1978 0.930 . S
H1965 C1980 0.960 . S
H1966 C1980 0.960 . S
H1967 C1980 0.960 . S
C1968 H1960 0.929 . S
C1968 C1969 1.377 . S
C1968 C1970 1.384 . S
C1969 C1968 1.377 . S
C1969 C1975 1.390 . S
C1970 H1961 0.930 . S
C1970 C1968 1.384 . S
C1970 C1971 1.372 . S
C1971 C1970 1.372 . S
C1971 C1972 1.400 . S
C1971 C1976 1.490 . S
C1972 H1962 0.930 . S
C1972 C1971 1.400 . S
C1972 C1975 1.386 . S
H1973 C1989 0.930 . S
H1974 C1990 0.931 . S
C1975 H1963 0.929 . S
C1975 C1969 1.390 . S
C1975 C1972 1.386 . S
C1976 C1971 1.490 . S
C1976 C1978 1.395 . S
C1976 C1979 1.403 . S
H1977 C1983 0.930 . S
C1978 H1964 0.930 . S
C1978 C1976 1.395 . S
C1978 C1981 1.403 . S
C1979 C1976 1.403 . S
C1979 C1980 1.524 . S
C1979 C1983 1.400 . S
C1980 H1965 0.960 . S
C1980 H1966 0.960 . S
C1980 H1967 0.960 . S
C1980 C1979 1.524 . S
C1981 C1978 1.403 . S
C1981 C1982 1.392 . S
C1981 C1985 1.495 . S
C1982 C1981 1.392 . S
C1982 C1983 1.385 . S
C1982 C1984 1.478 . S
C1983 H1977 0.930 . S
C1983 C1979 1.400 . S
C1983 C1982 1.385 . S
C1984 C1982 1.478 . S
C1984 C1986 1.381 . S
C1984 C1990 1.383 . S
C1985 C1981 1.495 . S
C1985 H1991 0.959 . S
C1985 H1992 0.961 . S
C1985 H1993 0.960 . S
C1986 C1984 1.381 . S
C1986 C1987 1.394 . S
C1986 H1994 0.930 . S
C1987 C1986 1.394 . S
C1987 C1988 1.383 . S
C1987 H1995 0.929 . S
C1988 C1987 1.383 . S
C1988 C1989 1.377 . S
C1989 H1973 0.930 . S
C1989 C1988 1.377 . S
C1989 C1990 1.379 . S
C1990 H1974 0.931 . S
C1990 C1984 1.383 . S
C1990 C1989 1.379 . S
H1991 C1985 0.959 . S
H1992 C1985 0.961 . S
H1993 C1985 0.960 . S
H1994 C1986 0.930 . S
H1995 C1987 0.929 . S
H1996 C2004 0.929 . S
H1997 C2006 0.930 . S
H1998 C2008 0.930 . S
H1999 C2011 0.929 . S
H2000 C2014 0.930 . S
H2001 C2016 0.960 . S
H2002 C2016 0.960 . S
H2003 C2016 0.960 . S
C2004 H1996 0.929 . S
C2004 C2005 1.377 . S
C2004 C2006 1.384 . S
C2005 C2004 1.377 . S
C2005 C2011 1.390 . S
C2006 H1997 0.930 . S
C2006 C2004 1.384 . S
C2006 C2007 1.372 . S
C2007 C2006 1.372 . S
C2007 C2008 1.400 . S
C2007 C2012 1.490 . S
C2008 H1998 0.930 . S
C2008 C2007 1.400 . S
C2008 C2011 1.386 . S
H2009 C2025 0.930 . S
H2010 C2026 0.931 . S
C2011 H1999 0.929 . S
C2011 C2005 1.390 . S
C2011 C2008 1.386 . S
C2012 C2007 1.490 . S
C2012 C2014 1.395 . S
C2012 C2015 1.403 . S
H2013 C2019 0.930 . S
C2014 H2000 0.930 . S
C2014 C2012 1.395 . S
C2014 C2017 1.403 . S
C2015 C2012 1.403 . S
C2015 C2016 1.524 . S
C2015 C2019 1.400 . S
C2016 H2001 0.960 . S
C2016 H2002 0.960 . S
C2016 H2003 0.960 . S
C2016 C2015 1.524 . S
C2017 C2014 1.403 . S
C2017 C2018 1.392 . S
C2017 C2021 1.495 . S
C2018 C2017 1.392 . S
C2018 C2019 1.385 . S
C2018 C2020 1.478 . S
C2019 H2013 0.930 . S
C2019 C2015 1.400 . S
C2019 C2018 1.385 . S
C2020 C2018 1.478 . S
C2020 C2022 1.381 . S
C2020 C2026 1.383 . S
C2021 C2017 1.495 . S
C2021 H2027 0.959 . S
C2021 H2028 0.961 . S
C2021 H2029 0.960 . S
C2022 C2020 1.381 . S
C2022 C2023 1.394 . S
C2022 H2030 0.930 . S
C2023 C2022 1.394 . S
C2023 C2024 1.383 . S
C2023 H2031 0.929 . S
C2024 C2023 1.383 . S
C2024 C2025 1.377 . S
C2025 H2009 0.930 . S
C2025 C2024 1.377 . S
C2025 C2026 1.379 . S
C2026 H2010 0.931 . S
C2026 C2020 1.383 . S
C2026 C2025 1.379 . S
H2027 C2021 0.959 . S
H2028 C2021 0.961 . S
H2029 C2021 0.960 . S
H2030 C2022 0.930 . S
H2031 C2023 0.929 . S
H2032 C2040 0.929 . S
H2033 C2042 0.930 . S
H2034 C2044 0.930 . S
H2035 C2047 0.929 . S
H2036 C2050 0.930 . S
H2037 C2052 0.960 . S
H2038 C2052 0.960 . S
H2039 C2052 0.960 . S
C2040 H2032 0.929 . S
C2040 C2041 1.377 1_565 S
C2040 C2042 1.384 . S
C2041 C2040 1.377 1_545 S
C2041 C2047 1.390 . S
C2042 H2033 0.930 . S
C2042 C2040 1.384 . S
C2042 C2043 1.372 1_565 S
C2043 C2042 1.372 1_545 S
C2043 C2044 1.400 . S
C2043 C2048 1.490 . S
C2044 H2034 0.930 . S
C2044 C2043 1.400 . S
C2044 C2047 1.386 . S
H2045 C2061 0.930 . S
H2046 C2062 0.931 . S
C2047 H2035 0.929 . S
C2047 C2041 1.390 . S
C2047 C2044 1.386 . S
C2048 C2043 1.490 . S
C2048 C2050 1.395 . S
C2048 C2051 1.403 . S
H2049 C2055 0.930 . S
C2050 H2036 0.930 . S
C2050 C2048 1.395 . S
C2050 C2053 1.403 . S
C2051 C2048 1.403 . S
C2051 C2052 1.524 . S
C2051 C2055 1.400 . S
C2052 H2037 0.960 . S
C2052 H2038 0.960 . S
C2052 H2039 0.960 . S
C2052 C2051 1.524 . S
C2053 C2050 1.403 . S
C2053 C2054 1.392 . S
C2053 C2057 1.495 1_655 S
C2054 C2053 1.392 . S
C2054 C2055 1.385 . S
C2054 C2056 1.478 . S
C2055 H2049 0.930 . S
C2055 C2051 1.400 . S
C2055 C2054 1.385 . S
C2056 C2054 1.478 . S
C2056 C2058 1.399 . S
C2056 C2062 1.383 . S
C2057 C2053 1.495 1_455 S
C2057 H2063 0.959 . S
C2057 H2064 0.961 . S
C2057 H2065 0.960 1_545 S
C2058 C2056 1.399 . S
C2058 C2059 1.396 1_655 S
C2058 H2066 0.910 1_545 S
C2059 C2058 1.396 1_455 S
C2059 C2060 1.383 . S
C2059 H2067 0.929 1_545 S
C2060 C2059 1.383 . S
C2060 C2061 1.377 1_455 S
C2061 H2045 0.930 . S
C2061 C2060 1.377 1_655 S
C2061 C2062 1.379 . S
C2062 H2046 0.931 . S
C2062 C2056 1.383 . S
C2062 C2061 1.379 . S
H2063 C2057 0.959 . S
H2064 C2057 0.961 . S
H2065 C2057 0.960 1_565 S
H2066 C2058 0.910 1_565 S
H2067 C2059 0.929 1_565 S
H2068 C2076 0.929 . S
H2069 C2078 0.930 . S
H2070 C2080 0.930 . S
H2071 C2083 0.929 . S
H2072 C2086 0.930 . S
H2073 C2088 0.960 . S
H2074 C2088 0.960 . S
H2075 C2088 0.960 . S
C2076 H2068 0.929 . S
C2076 C2077 1.377 . S
C2076 C2078 1.384 . S
C2077 C2076 1.377 . S
C2077 C2083 1.390 . S
C2078 H2069 0.930 . S
C2078 C2076 1.384 . S
C2078 C2079 1.372 . S
C2079 C2078 1.372 . S
C2079 C2080 1.400 . S
C2079 C2084 1.490 . S
C2080 H2070 0.930 . S
C2080 C2079 1.400 . S
C2080 C2083 1.386 . S
H2081 C2097 0.930 . S
H2082 C2098 0.931 . S
C2083 H2071 0.929 . S
C2083 C2077 1.390 . S
C2083 C2080 1.386 . S
C2084 C2079 1.490 . S
C2084 C2086 1.395 . S
C2084 C2087 1.403 . S
H2085 C2091 0.930 . S
C2086 H2072 0.930 . S
C2086 C2084 1.395 . S
C2086 C2089 1.403 . S
C2087 C2084 1.403 . S
C2087 C2088 1.524 . S
C2087 C2091 1.400 . S
C2088 H2073 0.960 . S
C2088 H2074 0.960 . S
C2088 H2075 0.960 . S
C2088 C2087 1.524 . S
C2089 C2086 1.403 . S
C2089 C2090 1.392 . S
C2089 C2093 1.495 . S
C2090 C2089 1.392 . S
C2090 C2091 1.385 . S
C2090 C2092 1.478 . S
C2091 H2085 0.930 . S
C2091 C2087 1.400 . S
C2091 C2090 1.385 . S
C2092 C2090 1.478 . S
C2092 C2094 1.381 . S
C2092 C2098 1.383 . S
C2093 C2089 1.495 . S
C2093 H2099 0.959 . S
C2093 H2100 0.961 . S
C2093 H2101 0.960 . S
C2094 C2092 1.381 . S
C2094 C2095 1.394 . S
C2094 H2102 0.930 . S
C2095 C2094 1.394 . S
C2095 C2096 1.383 . S
C2095 H2103 0.929 . S
C2096 C2095 1.383 . S
C2096 C2097 1.377 . S
C2097 H2081 0.930 . S
C2097 C2096 1.377 . S
C2097 C2098 1.379 . S
C2098 H2082 0.931 . S
C2098 C2092 1.383 . S
C2098 C2097 1.379 . S
H2099 C2093 0.959 . S
H2100 C2093 0.961 . S
H2101 C2093 0.960 . S
H2102 C2094 0.930 . S
H2103 C2095 0.929 . S
H2104 C2112 0.929 . S
H2105 C2114 0.930 . S
H2106 C2116 0.930 . S
H2107 C2119 0.929 . S
H2108 C2122 0.930 . S
H2109 C2124 0.960 . S
H2110 C2124 0.960 . S
H2111 C2124 0.960 . S
C2112 H2104 0.929 . S
C2112 C2113 1.377 . S
C2112 C2114 1.384 . S
C2113 C2112 1.377 . S
C2113 C2119 1.390 . S
C2114 H2105 0.930 . S
C2114 C2112 1.384 . S
C2114 C2115 1.372 . S
C2115 C2114 1.372 . S
C2115 C2116 1.400 . S
C2115 C2120 1.490 . S
C2116 H2106 0.930 . S
C2116 C2115 1.400 . S
C2116 C2119 1.386 . S
H2117 C2133 0.930 . S
H2118 C2134 0.931 . S
C2119 H2107 0.929 . S
C2119 C2113 1.390 . S
C2119 C2116 1.386 . S
C2120 C2115 1.490 . S
C2120 C2122 1.395 . S
C2120 C2123 1.403 1_545 S
H2121 C2127 0.930 . S
C2122 H2108 0.930 . S
C2122 C2120 1.395 . S
C2122 C2125 1.403 . S
C2123 C2120 1.403 1_565 S
C2123 C2124 1.524 . S
C2123 C2127 1.400 . S
C2124 H2109 0.960 . S
C2124 H2110 0.960 . S
C2124 H2111 0.960 . S
C2124 C2123 1.524 . S
C2125 C2122 1.403 . S
C2125 C2126 1.392 . S
C2125 C2129 1.495 . S
C2126 C2125 1.392 . S
C2126 C2127 1.385 1_545 S
C2126 C2128 1.478 . S
C2127 H2121 0.930 . S
C2127 C2123 1.400 . S
C2127 C2126 1.385 1_565 S
C2128 C2126 1.478 . S
C2128 C2130 1.381 . S
C2128 C2134 1.383 . S
C2129 C2125 1.495 . S
C2129 H2135 0.959 . S
C2129 H2136 0.961 . S
C2129 H2137 0.960 . S
C2130 C2128 1.381 . S
C2130 C2131 1.394 . S
C2130 H2138 0.930 . S
C2131 C2130 1.394 . S
C2131 C2132 1.383 . S
C2131 H2139 0.929 . S
C2132 C2131 1.383 . S
C2132 C2133 1.377 . S
C2133 H2117 0.930 . S
C2133 C2132 1.377 . S
C2133 C2134 1.379 . S
C2134 H2118 0.931 . S
C2134 C2128 1.383 . S
C2134 C2133 1.379 . S
H2135 C2129 0.959 . S
H2136 C2129 0.961 . S
H2137 C2129 0.960 . S
H2138 C2130 0.930 . S
H2139 C2131 0.929 . S
H2140 C2148 0.929 . S
H2141 C2150 0.930 . S
H2142 C2152 0.930 . S
H2143 C2155 0.929 . S
H2144 C2158 0.930 . S
H2145 C2160 0.960 . S
H2146 C2160 0.960 . S
H2147 C2160 0.960 . S
C2148 H2140 0.929 . S
C2148 C2149 1.377 . S
C2148 C2150 1.384 . S
C2149 C2148 1.377 . S
C2149 C2155 1.390 . S
C2150 H2141 0.930 . S
C2150 C2148 1.384 . S
C2150 C2151 1.372 . S
C2151 C2150 1.372 . S
C2151 C2152 1.400 . S
C2151 C2156 1.490 . S
C2152 H2142 0.930 . S
C2152 C2151 1.400 . S
C2152 C2155 1.386 . S
H2153 C2169 0.930 . S
H2154 C2170 0.931 . S
C2155 H2143 0.929 . S
C2155 C2149 1.390 . S
C2155 C2152 1.386 . S
C2156 C2151 1.490 . S
C2156 C2158 1.395 . S
C2156 C2159 1.403 . S
H2157 C2163 0.930 . S
C2158 H2144 0.930 . S
C2158 C2156 1.395 . S
C2158 C2161 1.403 . S
C2159 C2156 1.403 . S
C2159 C2160 1.524 . S
C2159 C2163 1.400 . S
C2160 H2145 0.960 . S
C2160 H2146 0.960 . S
C2160 H2147 0.960 . S
C2160 C2159 1.524 . S
C2161 C2158 1.403 . S
C2161 C2162 1.392 . S
C2161 C2165 1.495 . S
C2162 C2161 1.392 . S
C2162 C2163 1.385 . S
C2162 C2164 1.478 . S
C2163 H2157 0.930 . S
C2163 C2159 1.400 . S
C2163 C2162 1.385 . S
C2164 C2162 1.478 . S
C2164 C2166 1.381 . S
C2164 C2170 1.383 . S
C2165 C2161 1.495 . S
C2165 H2171 0.959 . S
C2165 H2172 0.961 . S
C2165 H2173 0.960 . S
C2166 C2164 1.381 . S
C2166 C2167 1.394 . S
C2166 H2174 0.930 . S
C2167 C2166 1.394 . S
C2167 C2168 1.383 . S
C2167 H2175 0.929 . S
C2168 C2167 1.383 . S
C2168 C2169 1.377 . S
C2169 H2153 0.930 . S
C2169 C2168 1.377 . S
C2169 C2170 1.379 . S
C2170 H2154 0.931 . S
C2170 C2164 1.383 . S
C2170 C2169 1.379 . S
H2171 C2165 0.959 . S
H2172 C2165 0.961 . S
H2173 C2165 0.960 . S
H2174 C2166 0.930 . S
H2175 C2167 0.929 . S
H2176 C2184 0.929 . S
H2177 C2186 0.930 . S
H2178 C2188 0.930 . S
H2179 C2191 0.929 . S
H2180 C2194 0.930 . S
H2181 C2196 0.960 . S
H2182 C2196 0.960 . S
H2183 C2196 0.960 . S
C2184 H2176 0.929 . S
C2184 C2185 1.377 1_565 S
C2184 C2186 1.384 . S
C2185 C2184 1.377 1_545 S
C2185 C2191 1.390 . S
C2186 H2177 0.930 . S
C2186 C2184 1.384 . S
C2186 C2187 1.398 . S
C2187 C2186 1.398 . S
C2187 C2188 1.368 1_565 S
C2187 C2192 1.498 . S
C2188 H2178 0.930 . S
C2188 C2187 1.368 1_545 S
C2188 C2191 1.386 . S
H2189 C2205 0.958 . S
H2190 C2206 0.908 1_545 S
C2191 H2179 0.929 . S
C2191 C2185 1.390 . S
C2191 C2188 1.386 . S
C2192 C2187 1.498 . S
C2192 C2194 1.395 . S
C2192 C2195 1.403 1_565 S
H2193 C2199 0.930 . S
C2194 H2180 0.930 . S
C2194 C2192 1.395 . S
C2194 C2197 1.403 . S
C2195 C2192 1.403 1_545 S
C2195 C2196 1.524 . S
C2195 C2199 1.400 . S
C2196 H2181 0.960 . S
C2196 H2182 0.960 . S
C2196 H2183 0.960 . S
C2196 C2195 1.524 . S
C2197 C2194 1.403 . S
C2197 C2198 1.392 . S
C2197 C2201 1.495 . S
C2198 C2197 1.392 . S
C2198 C2199 1.385 1_565 S
C2198 C2200 1.478 . S
C2199 H2193 0.930 . S
C2199 C2195 1.400 . S
C2199 C2198 1.385 1_545 S
C2200 C2198 1.478 . S
C2200 C2202 1.381 . S
C2200 C2206 1.383 . S
C2201 C2197 1.495 . S
C2201 H2207 0.959 . S
C2201 H2208 0.961 . S
C2201 H2209 0.960 . S
C2202 C2200 1.381 . S
C2202 C2203 1.394 . S
C2202 H2210 0.930 . S
C2203 C2202 1.394 . S
C2203 C2204 1.383 . S
C2203 H2211 0.929 1_655 S
C2204 C2203 1.383 . S
C2204 C2205 1.377 . S
C2205 H2189 0.958 . S
C2205 C2204 1.377 . S
C2205 C2206 1.379 . S
C2206 H2190 0.908 1_565 S
C2206 C2200 1.383 . S
C2206 C2205 1.379 . S
H2207 C2201 0.959 . S
H2208 C2201 0.961 . S
H2209 C2201 0.960 . S
H2210 C2202 0.930 . S
H2211 C2203 0.929 1_455 S
H2212 C2220 0.929 . S
H2213 C2222 0.930 . S
H2214 C2224 0.930 . S
H2215 C2227 0.929 . S
H2216 C2230 0.930 . S
H2217 C2232 0.960 . S
H2218 C2232 0.960 . S
H2219 C2232 0.960 . S
C2220 H2212 0.929 . S
C2220 C2221 1.377 . S
C2220 C2222 1.384 . S
C2221 C2220 1.377 . S
C2221 C2227 1.390 . S
C2222 H2213 0.930 . S
C2222 C2220 1.384 . S
C2222 C2223 1.372 . S
C2223 C2222 1.372 . S
C2223 C2224 1.400 . S
C2223 C2228 1.490 . S
C2224 H2214 0.930 . S
C2224 C2223 1.400 . S
C2224 C2227 1.386 . S
H2225 C2241 0.930 . S
H2226 C2242 0.931 . S
C2227 H2215 0.929 . S
C2227 C2221 1.390 . S
C2227 C2224 1.386 . S
C2228 C2223 1.490 . S
C2228 C2230 1.395 . S
C2228 C2231 1.403 . S
H2229 C2235 0.930 . S
C2230 H2216 0.930 . S
C2230 C2228 1.395 . S
C2230 C2233 1.403 . S
C2231 C2228 1.403 . S
C2231 C2232 1.524 . S
C2231 C2235 1.400 . S
C2232 H2217 0.960 . S
C2232 H2218 0.960 . S
C2232 H2219 0.960 . S
C2232 C2231 1.524 . S
C2233 C2230 1.403 . S
C2233 C2234 1.392 . S
C2233 C2237 1.495 . S
C2234 C2233 1.392 . S
C2234 C2235 1.385 . S
C2234 C2236 1.478 . S
C2235 H2229 0.930 . S
C2235 C2231 1.400 . S
C2235 C2234 1.385 . S
C2236 C2234 1.478 . S
C2236 C2238 1.381 . S
C2236 C2242 1.383 . S
C2237 C2233 1.495 . S
C2237 H2243 0.959 . S
C2237 H2244 0.961 . S
C2237 H2245 0.960 . S
C2238 C2236 1.381 . S
C2238 C2239 1.394 . S
C2238 H2246 0.930 . S
C2239 C2238 1.394 . S
C2239 C2240 1.383 . S
C2239 H2247 0.929 . S
C2240 C2239 1.383 . S
C2240 C2241 1.377 . S
C2241 H2225 0.930 . S
C2241 C2240 1.377 . S
C2241 C2242 1.379 . S
C2242 H2226 0.931 . S
C2242 C2236 1.383 . S
C2242 C2241 1.379 . S
H2243 C2237 0.959 . S
H2244 C2237 0.961 . S
H2245 C2237 0.960 . S
H2246 C2238 0.930 . S
H2247 C2239 0.929 . S
H2248 C2256 0.929 1_565 S
H2249 C2258 0.930 1_565 S
H2250 C2260 0.930 . S
H2251 C2263 0.929 . S
H2252 C2266 0.930 . S
H2253 C2268 0.960 . S
H2254 C2268 0.960 1_565 S
H2255 C2268 0.960 . S
C2256 H2248 0.929 1_545 S
C2256 C2257 1.377 . S
C2256 C2258 1.384 . S
C2257 C2256 1.377 . S
C2257 C2263 1.390 . S
C2258 H2249 0.930 1_545 S
C2258 C2256 1.384 . S
C2258 C2259 1.372 . S
C2259 C2258 1.372 . S
C2259 C2260 1.400 . S
C2259 C2264 1.490 . S
C2260 H2250 0.930 . S
C2260 C2259 1.400 . S
C2260 C2263 1.386 . S
H2261 C2277 0.930 . S
H2262 C2278 0.931 . S
C2263 H2251 0.929 . S
C2263 C2257 1.390 . S
C2263 C2260 1.386 . S
C2264 C2259 1.490 . S
C2264 C2266 1.395 . S
C2264 C2267 1.403 . S
H2265 C2271 0.930 . S
C2266 H2252 0.930 . S
C2266 C2264 1.395 . S
C2266 C2269 1.403 . S
C2267 C2264 1.403 . S
C2267 C2268 1.524 . S
C2267 C2271 1.400 . S
C2268 H2253 0.960 . S
C2268 H2254 0.960 1_545 S
C2268 H2255 0.960 . S
C2268 C2267 1.524 . S
C2269 C2266 1.403 . S
C2269 C2270 1.392 . S
C2269 C2273 1.495 . S
C2270 C2269 1.392 . S
C2270 C2271 1.385 . S
C2270 C2272 1.478 . S
C2271 H2265 0.930 . S
C2271 C2267 1.400 . S
C2271 C2270 1.385 . S
C2272 C2270 1.478 . S
C2272 C2274 1.381 . S
C2272 C2278 1.383 . S
C2273 C2269 1.495 . S
C2273 H2279 0.959 . S
C2273 H2280 0.961 . S
C2273 H2281 0.960 . S
C2274 C2272 1.381 . S
C2274 C2275 1.394 . S
C2274 H2282 0.930 . S
C2275 C2274 1.394 . S
C2275 C2276 1.383 . S
C2275 H2283 0.929 . S
C2276 C2275 1.383 . S
C2276 C2277 1.377 . S
C2277 H2261 0.930 . S
C2277 C2276 1.377 . S
C2277 C2278 1.379 . S
C2278 H2262 0.931 . S
C2278 C2272 1.383 . S
C2278 C2277 1.379 . S
H2279 C2273 0.959 . S
H2280 C2273 0.961 . S
H2281 C2273 0.960 . S
H2282 C2274 0.930 . S
H2283 C2275 0.929 . S
H2284 C2292 0.929 . S
H2285 C2294 0.930 . S
H2286 C2296 0.930 . S
H2287 C2299 0.929 . S
H2288 C2302 0.930 . S
H2289 C2304 0.960 . S
H2290 C2304 0.960 . S
H2291 C2304 0.960 . S
C2292 H2284 0.929 . S
C2292 C2293 1.377 . S
C2292 C2294 1.384 . S
C2293 C2292 1.377 . S
C2293 C2299 1.390 . S
C2294 H2285 0.930 . S
C2294 C2292 1.384 . S
C2294 C2295 1.372 . S
C2295 C2294 1.372 . S
C2295 C2296 1.400 . S
C2295 C2300 1.490 . S
C2296 H2286 0.930 . S
C2296 C2295 1.400 . S
C2296 C2299 1.386 . S
H2297 C2313 0.930 . S
H2298 C2314 0.931 . S
C2299 H2287 0.929 . S
C2299 C2293 1.390 . S
C2299 C2296 1.386 . S
C2300 C2295 1.490 . S
C2300 C2302 1.395 . S
C2300 C2303 1.403 . S
H2301 C2307 0.930 . S
C2302 H2288 0.930 . S
C2302 C2300 1.395 . S
C2302 C2305 1.403 . S
C2303 C2300 1.403 . S
C2303 C2304 1.524 . S
C2303 C2307 1.400 . S
C2304 H2289 0.960 . S
C2304 H2290 0.960 . S
C2304 H2291 0.960 . S
C2304 C2303 1.524 . S
C2305 C2302 1.403 . S
C2305 C2306 1.392 . S
C2305 C2309 1.495 . S
C2306 C2305 1.392 . S
C2306 C2307 1.385 . S
C2306 C2308 1.478 . S
C2307 H2301 0.930 . S
C2307 C2303 1.400 . S
C2307 C2306 1.385 . S
C2308 C2306 1.478 . S
C2308 C2310 1.381 . S
C2308 C2314 1.383 . S
C2309 C2305 1.495 . S
C2309 H2315 0.959 . S
C2309 H2316 0.961 . S
C2309 H2317 0.960 . S
C2310 C2308 1.381 . S
C2310 C2311 1.394 . S
C2310 H2318 0.930 . S
C2311 C2310 1.394 . S
C2311 C2312 1.383 . S
C2311 H2319 0.929 . S
C2312 C2311 1.383 . S
C2312 C2313 1.377 . S
C2313 H2297 0.930 . S
C2313 C2312 1.377 . S
C2313 C2314 1.379 . S
C2314 H2298 0.931 . S
C2314 C2308 1.383 . S
C2314 C2313 1.379 . S
H2315 C2309 0.959 . S
H2316 C2309 0.961 . S
H2317 C2309 0.960 . S
H2318 C2310 0.930 . S
H2319 C2311 0.929 . S
H2320 C2328 0.929 1_556 S
H2321 C2330 0.930 . S
H2322 C2332 0.930 . S
H2323 C2335 0.929 . S
H2324 C2338 0.930 . S
H2325 C2340 0.960 . S
H2326 C2340 0.960 . S
H2327 C2340 0.960 . S
C2328 H2320 0.929 1_554 S
C2328 C2329 1.377 . S
C2328 C2330 1.384 . S
C2329 C2328 1.377 . S
C2329 C2335 1.390 . S
C2330 H2321 0.930 . S
C2330 C2328 1.384 . S
C2330 C2331 1.372 . S
C2331 C2330 1.372 . S
C2331 C2332 1.400 . S
C2331 C2336 1.490 . S
C2332 H2322 0.930 . S
C2332 C2331 1.400 . S
C2332 C2335 1.386 . S
H2333 C2349 0.930 . S
H2334 C2350 0.931 . S
C2335 H2323 0.929 . S
C2335 C2329 1.390 . S
C2335 C2332 1.386 . S
C2336 C2331 1.490 . S
C2336 C2338 1.395 . S
C2336 C2339 1.403 . S
H2337 C2343 0.930 . S
C2338 H2324 0.930 . S
C2338 C2336 1.395 . S
C2338 C2341 1.403 . S
C2339 C2336 1.403 . S
C2339 C2340 1.524 . S
C2339 C2343 1.400 . S
C2340 H2325 0.960 . S
C2340 H2326 0.960 . S
C2340 H2327 0.960 . S
C2340 C2339 1.524 . S
C2341 C2338 1.403 . S
C2341 C2342 1.392 . S
C2341 C2345 1.495 . S
C2342 C2341 1.392 . S
C2342 C2343 1.385 . S
C2342 C2344 1.478 . S
C2343 H2337 0.930 . S
C2343 C2339 1.400 . S
C2343 C2342 1.385 . S
C2344 C2342 1.478 . S
C2344 C2346 1.381 . S
C2344 C2350 1.383 . S
C2345 C2341 1.495 . S
C2345 H2351 0.956 1_565 S
C2345 H2352 0.961 . S
C2345 H2353 0.960 1_565 S
C2346 C2344 1.381 . S
C2346 C2347 1.394 . S
C2346 H2354 0.930 . S
C2347 C2346 1.394 . S
C2347 C2348 1.383 . S
C2347 H2355 0.929 . S
C2348 C2347 1.383 . S
C2348 C2349 1.377 . S
C2349 H2333 0.930 . S
C2349 C2348 1.377 . S
C2349 C2350 1.379 . S
C2350 H2334 0.931 . S
C2350 C2344 1.383 . S
C2350 C2349 1.379 . S
H2351 C2345 0.956 1_545 S
H2352 C2345 0.961 . S
H2353 C2345 0.960 1_545 S
H2354 C2346 0.930 . S
H2355 C2347 0.929 . S
H2356 C2364 0.929 . S
H2357 C2366 0.930 . S
H2358 C2368 0.930 . S
H2359 C2371 0.929 . S
H2360 C2374 0.930 . S
H2361 C2376 0.960 . S
H2362 C2376 0.960 . S
H2363 C2376 0.960 . S
C2364 H2356 0.929 . S
C2364 C2365 1.377 . S
C2364 C2366 1.384 . S
C2365 C2364 1.377 . S
C2365 C2371 1.390 1_554 S
C2366 H2357 0.930 . S
C2366 C2364 1.384 . S
C2366 C2367 1.372 . S
C2367 C2366 1.372 . S
C2367 C2368 1.400 1_554 S
C2367 C2372 1.490 . S
C2368 H2358 0.930 . S
C2368 C2367 1.400 1_556 S
C2368 C2371 1.386 . S
H2369 C2385 0.930 . S
H2370 C2386 0.931 . S
C2371 H2359 0.929 . S
C2371 C2365 1.390 1_556 S
C2371 C2368 1.386 . S
C2372 C2367 1.490 . S
C2372 C2374 1.395 . S
C2372 C2375 1.403 . S
H2373 C2379 0.930 . S
C2374 H2360 0.930 . S
C2374 C2372 1.395 . S
C2374 C2377 1.403 . S
C2375 C2372 1.403 . S
C2375 C2376 1.524 . S
C2375 C2379 1.400 . S
C2376 H2361 0.960 . S
C2376 H2362 0.960 . S
C2376 H2363 0.960 . S
C2376 C2375 1.524 . S
C2377 C2374 1.403 . S
C2377 C2378 1.392 . S
C2377 C2381 1.495 . S
C2378 C2377 1.392 . S
C2378 C2379 1.385 . S
C2378 C2380 1.478 . S
C2379 H2373 0.930 . S
C2379 C2375 1.400 . S
C2379 C2378 1.385 . S
C2380 C2378 1.478 . S
C2380 C2382 1.381 . S
C2380 C2386 1.383 1_554 S
C2381 C2377 1.495 . S
C2381 H2387 0.959 . S
C2381 H2388 0.961 1_554 S
C2381 H2389 0.960 . S
C2382 C2380 1.381 . S
C2382 C2383 1.394 . S
C2382 H2390 0.930 . S
C2383 C2382 1.394 . S
C2383 C2384 1.383 . S
C2383 H2391 0.929 . S
C2384 C2383 1.383 . S
C2384 C2385 1.377 1_554 S
C2385 H2369 0.930 . S
C2385 C2384 1.377 1_556 S
C2385 C2386 1.379 . S
C2386 H2370 0.931 . S
C2386 C2380 1.383 1_556 S
C2386 C2385 1.379 . S
H2387 C2381 0.959 . S
H2388 C2381 0.961 1_556 S
H2389 C2381 0.960 . S
H2390 C2382 0.930 . S
H2391 C2383 0.929 . S
H2392 C2400 0.929 . S
H2393 C2402 0.930 . S
H2394 C2404 0.930 . S
H2395 C2407 0.929 . S
H2396 C2410 0.930 . S
H2397 C2412 0.960 . S
H2398 C2412 0.960 . S
H2399 C2412 0.960 . S
C2400 H2392 0.929 . S
C2400 C2401 1.377 . S
C2400 C2402 1.384 . S
C2401 C2400 1.377 . S
C2401 C2407 1.390 . S
C2402 H2393 0.930 . S
C2402 C2400 1.384 . S
C2402 C2403 1.372 . S
C2403 C2402 1.372 . S
C2403 C2404 1.400 . S
C2403 C2408 1.490 . S
C2404 H2394 0.930 . S
C2404 C2403 1.400 . S
C2404 C2407 1.386 . S
H2405 C2421 0.930 . S
H2406 C2422 0.931 . S
C2407 H2395 0.929 . S
C2407 C2401 1.390 . S
C2407 C2404 1.386 . S
C2408 C2403 1.490 . S
C2408 C2410 1.395 . S
C2408 C2411 1.403 . S
H2409 C2415 0.930 . S
C2410 H2396 0.930 . S
C2410 C2408 1.395 . S
C2410 C2413 1.403 . S
C2411 C2408 1.403 . S
C2411 C2412 1.524 . S
C2411 C2415 1.400 . S
C2412 H2397 0.960 . S
C2412 H2398 0.960 . S
C2412 H2399 0.960 . S
C2412 C2411 1.524 . S
C2413 C2410 1.403 . S
C2413 C2414 1.392 . S
C2413 C2417 1.495 . S
C2414 C2413 1.392 . S
C2414 C2415 1.385 . S
C2414 C2416 1.478 . S
C2415 H2409 0.930 . S
C2415 C2411 1.400 . S
C2415 C2414 1.385 . S
C2416 C2414 1.478 . S
C2416 C2418 1.381 . S
C2416 C2422 1.383 . S
C2417 C2413 1.495 . S
C2417 H2423 0.959 . S
C2417 H2424 0.961 . S
C2417 H2425 0.960 . S
C2418 C2416 1.381 . S
C2418 C2419 1.394 . S
C2418 H2426 0.930 . S
C2419 C2418 1.394 . S
C2419 C2420 1.383 . S
C2419 H2427 0.929 . S
C2420 C2419 1.383 . S
C2420 C2421 1.377 . S
C2421 H2405 0.930 . S
C2421 C2420 1.377 . S
C2421 C2422 1.379 . S
C2422 H2406 0.931 . S
C2422 C2416 1.383 . S
C2422 C2421 1.379 . S
H2423 C2417 0.959 . S
H2424 C2417 0.961 . S
H2425 C2417 0.960 . S
H2426 C2418 0.930 . S
H2427 C2419 0.929 . S
H2428 C2436 0.929 . S
H2429 C2438 0.930 . S
H2430 C2440 0.930 . S
H2431 C2443 0.929 . S
H2432 C2446 0.930 . S
H2433 C2448 0.960 . S
H2434 C2448 0.960 . S
H2435 C2448 0.960 . S
C2436 H2428 0.929 . S
C2436 C2437 1.377 . S
C2436 C2438 1.384 . S
C2437 C2436 1.377 . S
C2437 C2443 1.390 . S
C2438 H2429 0.930 . S
C2438 C2436 1.384 . S
C2438 C2439 1.372 . S
C2439 C2438 1.372 . S
C2439 C2440 1.400 . S
C2439 C2444 1.490 . S
C2440 H2430 0.930 . S
C2440 C2439 1.400 . S
C2440 C2443 1.386 . S
H2441 C2457 0.930 . S
H2442 C2458 0.931 . S
C2443 H2431 0.929 . S
C2443 C2437 1.390 . S
C2443 C2440 1.386 . S
C2444 C2439 1.490 . S
C2444 C2446 1.395 . S
C2444 C2447 1.403 . S
H2445 C2451 0.930 . S
C2446 H2432 0.930 . S
C2446 C2444 1.395 . S
C2446 C2449 1.403 . S
C2447 C2444 1.403 . S
C2447 C2448 1.524 . S
C2447 C2451 1.400 . S
C2448 H2433 0.960 . S
C2448 H2434 0.960 . S
C2448 H2435 0.960 . S
C2448 C2447 1.524 . S
C2449 C2446 1.403 . S
C2449 C2450 1.392 . S
C2449 C2453 1.495 . S
C2450 C2449 1.392 . S
C2450 C2451 1.385 . S
C2450 C2452 1.478 . S
C2451 H2445 0.930 . S
C2451 C2447 1.400 . S
C2451 C2450 1.385 . S
C2452 C2450 1.478 . S
C2452 C2454 1.381 . S
C2452 C2458 1.383 . S
C2453 C2449 1.495 . S
C2453 H2459 0.959 . S
C2453 H2460 0.961 . S
C2453 H2461 0.960 . S
C2454 C2452 1.381 . S
C2454 C2455 1.394 . S
C2454 H2462 0.930 . S
C2455 C2454 1.394 . S
C2455 C2456 1.383 . S
C2455 H2463 0.929 . S
C2456 C2455 1.383 . S
C2456 C2457 1.377 . S
C2457 H2441 0.930 . S
C2457 C2456 1.377 . S
C2457 C2458 1.379 . S
C2458 H2442 0.931 . S
C2458 C2452 1.383 . S
C2458 C2457 1.379 . S
H2459 C2453 0.959 . S
H2460 C2453 0.961 . S
H2461 C2453 0.960 . S
H2462 C2454 0.930 . S
H2463 C2455 0.929 . S
H2464 C2472 0.929 . S
H2465 C2474 0.930 . S
H2466 C2476 0.930 . S
H2467 C2479 0.929 . S
H2468 C2482 0.930 . S
H2469 C2484 0.960 . S
H2470 C2484 0.960 . S
H2471 C2484 0.960 . S
C2472 H2464 0.929 . S
C2472 C2473 1.377 . S
C2472 C2474 1.384 . S
C2473 C2472 1.377 . S
C2473 C2479 1.390 . S
C2474 H2465 0.930 . S
C2474 C2472 1.384 . S
C2474 C2475 1.372 . S
C2475 C2474 1.372 . S
C2475 C2476 1.400 . S
C2475 C2480 1.490 . S
C2476 H2466 0.930 . S
C2476 C2475 1.400 . S
C2476 C2479 1.386 . S
H2477 C2493 0.930 . S
H2478 C2494 0.931 . S
C2479 H2467 0.929 . S
C2479 C2473 1.390 . S
C2479 C2476 1.386 . S
C2480 C2475 1.490 . S
C2480 C2482 1.395 . S
C2480 C2483 1.403 . S
H2481 C2487 0.930 . S
C2482 H2468 0.930 . S
C2482 C2480 1.395 . S
C2482 C2485 1.403 . S
C2483 C2480 1.403 . S
C2483 C2484 1.524 . S
C2483 C2487 1.400 . S
C2484 H2469 0.960 . S
C2484 H2470 0.960 . S
C2484 H2471 0.960 . S
C2484 C2483 1.524 . S
C2485 C2482 1.403 . S
C2485 C2486 1.392 . S
C2485 C2489 1.495 . S
C2486 C2485 1.392 . S
C2486 C2487 1.385 . S
C2486 C2488 1.478 . S
C2487 H2481 0.930 . S
C2487 C2483 1.400 . S
C2487 C2486 1.385 . S
C2488 C2486 1.478 . S
C2488 C2490 1.381 . S
C2488 C2494 1.383 . S
C2489 C2485 1.495 . S
C2489 H2495 0.959 . S
C2489 H2496 0.961 . S
C2489 H2497 0.960 . S
C2490 C2488 1.381 . S
C2490 C2491 1.394 . S
C2490 H2498 0.930 . S
C2491 C2490 1.394 . S
C2491 C2492 1.383 . S
C2491 H2499 0.929 . S
C2492 C2491 1.383 . S
C2492 C2493 1.377 . S
C2493 H2477 0.930 . S
C2493 C2492 1.377 . S
C2493 C2494 1.379 . S
C2494 H2478 0.931 . S
C2494 C2488 1.383 . S
C2494 C2493 1.379 . S
H2495 C2489 0.959 . S
H2496 C2489 0.961 . S
H2497 C2489 0.960 . S
H2498 C2490 0.930 . S
H2499 C2491 0.929 . S
H2500 C2508 0.929 . S
H2501 C2510 0.930 . S
H2502 C2512 0.930 . S
H2503 C2515 0.929 . S
H2504 C2518 0.930 . S
H2505 C2520 0.960 . S
H2506 C2520 0.960 . S
H2507 C2520 0.960 . S
C2508 H2500 0.929 . S
C2508 C2509 1.377 . S
C2508 C2510 1.384 . S
C2509 C2508 1.377 . S
C2509 C2515 1.390 . S
C2510 H2501 0.930 . S
C2510 C2508 1.384 . S
C2510 C2511 1.372 . S
C2511 C2510 1.372 . S
C2511 C2512 1.400 . S
C2511 C2516 1.490 . S
C2512 H2502 0.930 . S
C2512 C2511 1.400 . S
C2512 C2515 1.386 . S
H2513 C2529 0.930 . S
H2514 C2530 0.931 . S
C2515 H2503 0.929 . S
C2515 C2509 1.390 . S
C2515 C2512 1.386 . S
C2516 C2511 1.490 . S
C2516 C2518 1.395 . S
C2516 C2519 1.403 . S
H2517 C2523 0.930 . S
C2518 H2504 0.930 . S
C2518 C2516 1.395 . S
C2518 C2521 1.403 . S
C2519 C2516 1.403 . S
C2519 C2520 1.524 . S
C2519 C2523 1.400 . S
C2520 H2505 0.960 . S
C2520 H2506 0.960 . S
C2520 H2507 0.960 . S
C2520 C2519 1.524 . S
C2521 C2518 1.403 . S
C2521 C2522 1.392 . S
C2521 C2525 1.495 . S
C2522 C2521 1.392 . S
C2522 C2523 1.385 . S
C2522 C2524 1.478 . S
C2523 H2517 0.930 . S
C2523 C2519 1.400 . S
C2523 C2522 1.385 . S
C2524 C2522 1.478 . S
C2524 C2526 1.381 . S
C2524 C2530 1.383 . S
C2525 C2521 1.495 . S
C2525 H2531 0.959 . S
C2525 H2532 0.961 . S
C2525 H2533 0.960 . S
C2526 C2524 1.381 . S
C2526 C2527 1.394 . S
C2526 H2534 0.930 . S
C2527 C2526 1.394 . S
C2527 C2528 1.383 . S
C2527 H2535 0.929 . S
C2528 C2527 1.383 . S
C2528 C2529 1.377 . S
C2529 H2513 0.930 . S
C2529 C2528 1.377 . S
C2529 C2530 1.379 . S
C2530 H2514 0.931 . S
C2530 C2524 1.383 . S
C2530 C2529 1.379 . S
H2531 C2525 0.959 . S
H2532 C2525 0.961 . S
H2533 C2525 0.960 . S
H2534 C2526 0.930 . S
H2535 C2527 0.929 . S
H2536 C2544 0.929 . S
H2537 C2546 0.930 . S
H2538 C2548 0.930 . S
H2539 C2551 0.929 . S
H2540 C2554 0.930 . S
H2541 C2556 0.960 . S
H2542 C2556 0.960 . S
H2543 C2556 0.960 . S
C2544 H2536 0.929 . S
C2544 C2545 1.377 . S
C2544 C2546 1.384 . S
C2545 C2544 1.377 . S
C2545 C2551 1.390 . S
C2546 H2537 0.930 . S
C2546 C2544 1.384 . S
C2546 C2547 1.372 . S
C2547 C2546 1.372 . S
C2547 C2548 1.400 . S
C2547 C2552 1.490 . S
C2548 H2538 0.930 . S
C2548 C2547 1.400 . S
C2548 C2551 1.386 . S
H2549 C2565 0.930 . S
H2550 C2566 0.931 . S
C2551 H2539 0.929 . S
C2551 C2545 1.390 . S
C2551 C2548 1.386 . S
C2552 C2547 1.490 . S
C2552 C2554 1.395 . S
C2552 C2555 1.403 . S
H2553 C2559 0.930 . S
C2554 H2540 0.930 . S
C2554 C2552 1.395 . S
C2554 C2557 1.403 . S
C2555 C2552 1.403 . S
C2555 C2556 1.524 . S
C2555 C2559 1.400 . S
C2556 H2541 0.960 . S
C2556 H2542 0.960 . S
C2556 H2543 0.960 . S
C2556 C2555 1.524 . S
C2557 C2554 1.403 . S
C2557 C2558 1.392 . S
C2557 C2561 1.495 . S
C2558 C2557 1.392 . S
C2558 C2559 1.385 . S
C2558 C2560 1.478 . S
C2559 H2553 0.930 . S
C2559 C2555 1.400 . S
C2559 C2558 1.385 . S
C2560 C2558 1.478 . S
C2560 C2562 1.381 . S
C2560 C2566 1.383 . S
C2561 C2557 1.495 . S
C2561 H2567 0.959 . S
C2561 H2568 0.961 . S
C2561 H2569 0.960 . S
C2562 C2560 1.381 . S
C2562 C2563 1.394 . S
C2562 H2570 0.930 . S
C2563 C2562 1.394 . S
C2563 C2564 1.383 . S
C2563 H2571 0.929 . S
C2564 C2563 1.383 . S
C2564 C2565 1.377 . S
C2565 H2549 0.930 . S
C2565 C2564 1.377 . S
C2565 C2566 1.379 . S
C2566 H2550 0.931 . S
C2566 C2560 1.383 . S
C2566 C2565 1.379 . S
H2567 C2561 0.959 . S
H2568 C2561 0.961 . S
H2569 C2561 0.960 . S
H2570 C2562 0.930 . S
H2571 C2563 0.929 . S
H2572 C2580 0.929 . S
H2573 C2582 0.930 . S
H2574 C2584 0.930 . S
H2575 C2587 0.929 . S
H2576 C2590 0.930 . S
H2577 C2592 0.960 . S
H2578 C2592 0.960 . S
H2579 C2592 0.960 . S
C2580 H2572 0.929 . S
C2580 C2581 1.377 . S
C2580 C2582 1.384 . S
C2581 C2580 1.377 . S
C2581 C2587 1.390 . S
C2582 H2573 0.930 . S
C2582 C2580 1.384 . S
C2582 C2583 1.372 . S
C2583 C2582 1.372 . S
C2583 C2584 1.400 . S
C2583 C2588 1.490 . S
C2584 H2574 0.930 . S
C2584 C2583 1.400 . S
C2584 C2587 1.386 . S
H2585 C2601 0.930 . S
H2586 C2602 0.931 . S
C2587 H2575 0.929 . S
C2587 C2581 1.390 . S
C2587 C2584 1.386 . S
C2588 C2583 1.490 . S
C2588 C2590 1.395 . S
C2588 C2591 1.403 . S
H2589 C2595 0.930 . S
C2590 H2576 0.930 . S
C2590 C2588 1.395 . S
C2590 C2593 1.403 . S
C2591 C2588 1.403 . S
C2591 C2592 1.524 . S
C2591 C2595 1.400 . S
C2592 H2577 0.960 . S
C2592 H2578 0.960 . S
C2592 H2579 0.960 . S
C2592 C2591 1.524 . S
C2593 C2590 1.403 . S
C2593 C2594 1.392 . S
C2593 C2597 1.495 . S
C2594 C2593 1.392 . S
C2594 C2595 1.385 . S
C2594 C2596 1.478 . S
C2595 H2589 0.930 . S
C2595 C2591 1.400 . S
C2595 C2594 1.385 . S
C2596 C2594 1.478 . S
C2596 C2598 1.381 . S
C2596 C2602 1.383 . S
C2597 C2593 1.495 . S
C2597 H2603 0.959 . S
C2597 H2604 0.961 . S
C2597 H2605 0.960 . S
C2598 C2596 1.381 . S
C2598 C2599 1.394 . S
C2598 H2606 0.930 . S
C2599 C2598 1.394 . S
C2599 C2600 1.383 . S
C2599 H2607 0.929 . S
C2600 C2599 1.383 . S
C2600 C2601 1.377 . S
C2601 H2585 0.930 . S
C2601 C2600 1.377 . S
C2601 C2602 1.379 . S
C2602 H2586 0.931 . S
C2602 C2596 1.383 . S
C2602 C2601 1.379 . S
H2603 C2597 0.959 . S
H2604 C2597 0.961 . S
H2605 C2597 0.960 . S
H2606 C2598 0.930 . S
H2607 C2599 0.929 . S
H2608 C2616 0.929 . S
H2609 C2618 0.930 . S
H2610 C2620 0.930 . S
H2611 C2623 0.929 . S
H2612 C2626 0.930 . S
H2613 C2628 0.960 . S
H2614 C2628 0.960 . S
H2615 C2628 0.960 . S
C2616 H2608 0.929 . S
C2616 C2617 1.377 . S
C2616 C2618 1.384 . S
C2617 C2616 1.377 . S
C2617 C2623 1.390 . S
C2618 H2609 0.930 . S
C2618 C2616 1.384 . S
C2618 C2619 1.372 . S
C2619 C2618 1.372 . S
C2619 C2620 1.400 . S
C2619 C2624 1.490 . S
C2620 H2610 0.930 . S
C2620 C2619 1.400 . S
C2620 C2623 1.386 . S
H2621 C2637 0.930 . S
H2622 C2638 0.931 . S
C2623 H2611 0.929 . S
C2623 C2617 1.390 . S
C2623 C2620 1.386 . S
C2624 C2619 1.490 . S
C2624 C2626 1.395 . S
C2624 C2627 1.403 . S
H2625 C2631 0.930 . S
C2626 H2612 0.930 . S
C2626 C2624 1.395 . S
C2626 C2629 1.403 . S
C2627 C2624 1.403 . S
C2627 C2628 1.524 . S
C2627 C2631 1.400 . S
C2628 H2613 0.960 . S
C2628 H2614 0.960 . S
C2628 H2615 0.960 . S
C2628 C2627 1.524 . S
C2629 C2626 1.403 . S
C2629 C2630 1.392 . S
C2629 C2633 1.495 . S
C2630 C2629 1.392 . S
C2630 C2631 1.385 . S
C2630 C2632 1.478 . S
C2631 H2625 0.930 . S
C2631 C2627 1.400 . S
C2631 C2630 1.385 . S
C2632 C2630 1.478 . S
C2632 C2634 1.381 . S
C2632 C2638 1.383 . S
C2633 C2629 1.495 . S
C2633 H2639 0.959 . S
C2633 H2640 0.961 . S
C2633 H2641 0.960 . S
C2634 C2632 1.381 . S
C2634 C2635 1.394 . S
C2634 H2642 0.930 . S
C2635 C2634 1.394 . S
C2635 C2636 1.383 . S
C2635 H2643 0.929 . S
C2636 C2635 1.383 . S
C2636 C2637 1.377 . S
C2637 H2621 0.930 . S
C2637 C2636 1.377 . S
C2637 C2638 1.379 . S
C2638 H2622 0.931 . S
C2638 C2632 1.383 . S
C2638 C2637 1.379 . S
H2639 C2633 0.959 . S
H2640 C2633 0.961 . S
H2641 C2633 0.960 . S
H2642 C2634 0.930 . S
H2643 C2635 0.929 . S
H2644 C2652 0.929 . S
H2645 C2654 0.930 . S
H2646 C2656 0.930 . S
H2647 C2659 0.929 . S
H2648 C2662 0.930 . S
H2649 C2664 0.960 . S
H2650 C2664 0.960 . S
H2651 C2664 0.960 . S
C2652 H2644 0.929 . S
C2652 C2653 1.377 . S
C2652 C2654 1.384 . S
C2653 C2652 1.377 . S
C2653 C2659 1.390 . S
C2654 H2645 0.930 . S
C2654 C2652 1.384 . S
C2654 C2655 1.372 . S
C2655 C2654 1.372 . S
C2655 C2656 1.400 . S
C2655 C2660 1.490 . S
C2656 H2646 0.930 . S
C2656 C2655 1.400 . S
C2656 C2659 1.386 . S
H2657 C2673 0.930 . S
H2658 C2674 0.931 . S
C2659 H2647 0.929 . S
C2659 C2653 1.390 . S
C2659 C2656 1.386 . S
C2660 C2655 1.490 . S
C2660 C2662 1.395 . S
C2660 C2663 1.403 . S
H2661 C2667 0.930 . S
C2662 H2648 0.930 . S
C2662 C2660 1.395 . S
C2662 C2665 1.403 . S
C2663 C2660 1.403 . S
C2663 C2664 1.524 . S
C2663 C2667 1.400 . S
C2664 H2649 0.960 . S
C2664 H2650 0.960 . S
C2664 H2651 0.960 . S
C2664 C2663 1.524 . S
C2665 C2662 1.403 . S
C2665 C2666 1.392 . S
C2665 C2669 1.495 . S
C2666 C2665 1.392 . S
C2666 C2667 1.385 . S
C2666 C2668 1.478 . S
C2667 H2661 0.930 . S
C2667 C2663 1.400 . S
C2667 C2666 1.385 . S
C2668 C2666 1.478 . S
C2668 C2670 1.381 . S
C2668 C2674 1.383 . S
C2669 C2665 1.495 . S
C2669 H2675 0.959 . S
C2669 H2676 0.961 . S
C2669 H2677 0.960 . S
C2670 C2668 1.381 . S
C2670 C2671 1.394 . S
C2670 H2678 0.930 . S
C2671 C2670 1.394 . S
C2671 C2672 1.383 . S
C2671 H2679 0.929 . S
C2672 C2671 1.383 . S
C2672 C2673 1.377 . S
C2673 H2657 0.930 . S
C2673 C2672 1.377 . S
C2673 C2674 1.379 . S
C2674 H2658 0.931 . S
C2674 C2668 1.383 . S
C2674 C2673 1.379 . S
H2675 C2669 0.959 . S
H2676 C2669 0.961 . S
H2677 C2669 0.960 . S
H2678 C2670 0.930 . S
H2679 C2671 0.929 . S
H2680 C2688 0.929 . S
H2681 C2690 0.930 . S
H2682 C2692 0.930 . S
H2683 C2695 0.929 . S
H2684 C2698 0.930 . S
H2685 C2700 0.960 . S
H2686 C2700 0.960 . S
H2687 C2700 0.960 . S
C2688 H2680 0.929 . S
C2688 C2689 1.377 . S
C2688 C2690 1.384 . S
C2689 C2688 1.377 . S
C2689 C2695 1.390 . S
C2690 H2681 0.930 . S
C2690 C2688 1.384 . S
C2690 C2691 1.372 . S
C2691 C2690 1.372 . S
C2691 C2692 1.400 . S
C2691 C2696 1.490 . S
C2692 H2682 0.930 . S
C2692 C2691 1.400 . S
C2692 C2695 1.386 . S
H2693 C2709 0.930 . S
H2694 C2710 0.931 . S
C2695 H2683 0.929 . S
C2695 C2689 1.390 . S
C2695 C2692 1.386 . S
C2696 C2691 1.490 . S
C2696 C2698 1.395 . S
C2696 C2699 1.403 . S
H2697 C2703 0.930 . S
C2698 H2684 0.930 . S
C2698 C2696 1.395 . S
C2698 C2701 1.403 . S
C2699 C2696 1.403 . S
C2699 C2700 1.524 . S
C2699 C2703 1.400 . S
C2700 H2685 0.960 . S
C2700 H2686 0.960 . S
C2700 H2687 0.960 . S
C2700 C2699 1.524 . S
C2701 C2698 1.403 . S
C2701 C2702 1.392 . S
C2701 C2705 1.495 . S
C2702 C2701 1.392 . S
C2702 C2703 1.385 . S
C2702 C2704 1.478 . S
C2703 H2697 0.930 . S
C2703 C2699 1.400 . S
C2703 C2702 1.385 . S
C2704 C2702 1.478 . S
C2704 C2706 1.381 . S
C2704 C2710 1.383 . S
C2705 C2701 1.495 . S
C2705 H2711 0.959 . S
C2705 H2712 0.961 . S
C2705 H2713 0.960 . S
C2706 C2704 1.381 . S
C2706 C2707 1.394 . S
C2706 H2714 0.930 . S
C2707 C2706 1.394 . S
C2707 C2708 1.383 . S
C2707 H2715 0.929 . S
C2708 C2707 1.383 . S
C2708 C2709 1.377 . S
C2709 H2693 0.930 . S
C2709 C2708 1.377 . S
C2709 C2710 1.379 . S
C2710 H2694 0.931 . S
C2710 C2704 1.383 . S
C2710 C2709 1.379 . S
H2711 C2705 0.959 . S
H2712 C2705 0.961 . S
H2713 C2705 0.960 . S
H2714 C2706 0.930 . S
H2715 C2707 0.929 . S
H2716 C2724 0.929 . S
H2717 C2726 0.930 . S
H2718 C2728 0.930 . S
H2719 C2731 0.929 . S
H2720 C2734 0.930 . S
H2721 C2736 0.960 . S
H2722 C2736 0.960 . S
H2723 C2736 0.960 . S
C2724 H2716 0.929 . S
C2724 C2725 1.377 . S
C2724 C2726 1.384 . S
C2725 C2724 1.377 . S
C2725 C2731 1.390 . S
C2726 H2717 0.930 . S
C2726 C2724 1.384 . S
C2726 C2727 1.372 . S
C2727 C2726 1.372 . S
C2727 C2728 1.400 . S
C2727 C2732 1.490 . S
C2728 H2718 0.930 . S
C2728 C2727 1.400 . S
C2728 C2731 1.386 . S
H2729 C2745 0.930 . S
H2730 C2746 0.931 . S
C2731 H2719 0.929 . S
C2731 C2725 1.390 . S
C2731 C2728 1.386 . S
C2732 C2727 1.490 . S
C2732 C2734 1.395 . S
C2732 C2735 1.403 . S
H2733 C2739 0.930 . S
C2734 H2720 0.930 . S
C2734 C2732 1.395 . S
C2734 C2737 1.403 . S
C2735 C2732 1.403 . S
C2735 C2736 1.524 . S
C2735 C2739 1.400 . S
C2736 H2721 0.960 . S
C2736 H2722 0.960 . S
C2736 H2723 0.960 . S
C2736 C2735 1.524 . S
C2737 C2734 1.403 . S
C2737 C2738 1.392 . S
C2737 C2741 1.495 . S
C2738 C2737 1.392 . S
C2738 C2739 1.385 . S
C2738 C2740 1.478 . S
C2739 H2733 0.930 . S
C2739 C2735 1.400 . S
C2739 C2738 1.385 . S
C2740 C2738 1.478 . S
C2740 C2742 1.381 . S
C2740 C2746 1.383 . S
C2741 C2737 1.495 . S
C2741 H2747 0.959 . S
C2741 H2748 0.961 . S
C2741 H2749 0.960 . S
C2742 C2740 1.381 . S
C2742 C2743 1.394 . S
C2742 H2750 0.930 . S
C2743 C2742 1.394 . S
C2743 C2744 1.383 . S
C2743 H2751 0.929 . S
C2744 C2743 1.383 . S
C2744 C2745 1.377 . S
C2745 H2729 0.930 . S
C2745 C2744 1.377 . S
C2745 C2746 1.379 . S
C2746 H2730 0.931 . S
C2746 C2740 1.383 . S
C2746 C2745 1.379 . S
H2747 C2741 0.959 . S
H2748 C2741 0.961 . S
H2749 C2741 0.960 . S
H2750 C2742 0.930 . S
H2751 C2743 0.929 . S
H2752 C2760 0.929 . S
H2753 C2762 0.930 . S
H2754 C2764 0.930 . S
H2755 C2767 0.929 . S
H2756 C2770 0.930 . S
H2757 C2772 0.960 . S
H2758 C2772 0.960 . S
H2759 C2772 0.960 . S
C2760 H2752 0.929 . S
C2760 C2761 1.377 . S
C2760 C2762 1.384 . S
C2761 C2760 1.377 . S
C2761 C2767 1.390 . S
C2762 H2753 0.930 . S
C2762 C2760 1.384 . S
C2762 C2763 1.372 . S
C2763 C2762 1.372 . S
C2763 C2764 1.400 . S
C2763 C2768 1.490 . S
C2764 H2754 0.930 . S
C2764 C2763 1.400 . S
C2764 C2767 1.386 . S
H2765 C2781 0.930 . S
H2766 C2782 0.931 . S
C2767 H2755 0.929 . S
C2767 C2761 1.390 . S
C2767 C2764 1.386 . S
C2768 C2763 1.490 . S
C2768 C2770 1.395 . S
C2768 C2771 1.403 . S
H2769 C2775 0.930 . S
C2770 H2756 0.930 . S
C2770 C2768 1.395 . S
C2770 C2773 1.403 . S
C2771 C2768 1.403 . S
C2771 C2772 1.524 . S
C2771 C2775 1.400 . S
C2772 H2757 0.960 . S
C2772 H2758 0.960 . S
C2772 H2759 0.960 . S
C2772 C2771 1.524 . S
C2773 C2770 1.403 . S
C2773 C2774 1.392 . S
C2773 C2777 1.495 . S
C2774 C2773 1.392 . S
C2774 C2775 1.385 . S
C2774 C2776 1.478 . S
C2775 H2769 0.930 . S
C2775 C2771 1.400 . S
C2775 C2774 1.385 . S
C2776 C2774 1.478 . S
C2776 C2778 1.381 1_556 S
C2776 C2782 1.383 . S
C2777 C2773 1.495 . S
C2777 H2783 0.959 . S
C2777 H2784 0.961 . S
C2777 H2785 0.960 . S
C2778 C2776 1.381 1_554 S
C2778 C2779 1.394 . S
C2778 H2786 0.930 . S
C2779 C2778 1.394 . S
C2779 C2780 1.383 . S
C2779 H2787 0.929 . S
C2780 C2779 1.383 . S
C2780 C2781 1.377 1_554 S
C2781 H2765 0.930 . S
C2781 C2780 1.377 1_556 S
C2781 C2782 1.379 . S
C2782 H2766 0.931 . S
C2782 C2776 1.383 . S
C2782 C2781 1.379 . S
H2783 C2777 0.959 . S
H2784 C2777 0.961 . S
H2785 C2777 0.960 . S
H2786 C2778 0.930 . S
H2787 C2779 0.929 . S
H2788 C2796 0.929 . S
H2789 C2798 0.930 . S
H2790 C2800 0.930 . S
H2791 C2803 0.929 . S
H2792 C2806 0.930 . S
H2793 C2808 0.960 . S
H2794 C2808 0.960 . S
H2795 C2808 0.960 . S
C2796 H2788 0.929 . S
C2796 C2797 1.377 1_655 S
C2796 C2798 1.384 . S
C2797 C2796 1.377 1_455 S
C2797 C2803 1.390 . S
C2798 H2789 0.930 . S
C2798 C2796 1.384 . S
C2798 C2799 1.372 . S
C2799 C2798 1.372 . S
C2799 C2800 1.400 . S
C2799 C2804 1.490 . S
C2800 H2790 0.930 . S
C2800 C2799 1.400 . S
C2800 C2803 1.386 1_655 S
H2801 C2817 0.930 . S
H2802 C2818 0.931 . S
C2803 H2791 0.929 . S
C2803 C2797 1.390 . S
C2803 C2800 1.386 1_455 S
C2804 C2799 1.490 . S
C2804 C2806 1.395 . S
C2804 C2807 1.403 . S
H2805 C2811 0.930 . S
C2806 H2792 0.930 . S
C2806 C2804 1.395 . S
C2806 C2809 1.403 . S
C2807 C2804 1.403 . S
C2807 C2808 1.524 . S
C2807 C2811 1.400 . S
C2808 H2793 0.960 . S
C2808 H2794 0.960 . S
C2808 H2795 0.960 . S
C2808 C2807 1.524 . S
C2809 C2806 1.403 . S
C2809 C2810 1.392 . S
C2809 C2813 1.495 . S
C2810 C2809 1.392 . S
C2810 C2811 1.385 . S
C2810 C2812 1.478 . S
C2811 H2805 0.930 . S
C2811 C2807 1.400 . S
C2811 C2810 1.385 . S
C2812 C2810 1.478 . S
C2812 C2814 1.381 . S
C2812 C2818 1.383 . S
C2813 C2809 1.495 . S
C2813 H2819 0.959 . S
C2813 H2820 0.961 . S
C2813 H2821 0.960 . S
C2814 C2812 1.381 . S
C2814 C2815 1.394 . S
C2814 H2822 0.930 . S
C2815 C2814 1.394 . S
C2815 C2816 1.383 . S
C2815 H2823 0.929 . S
C2816 C2815 1.383 . S
C2816 C2817 1.377 . S
C2817 H2801 0.930 . S
C2817 C2816 1.377 . S
C2817 C2818 1.379 . S
C2818 H2802 0.931 . S
C2818 C2812 1.383 . S
C2818 C2817 1.379 . S
H2819 C2813 0.959 . S
H2820 C2813 0.961 . S
H2821 C2813 0.960 . S
H2822 C2814 0.930 . S
H2823 C2815 0.929 . S
H2824 C2832 0.929 . S
H2825 C2834 0.930 . S
H2826 C2836 0.930 . S
H2827 C2839 0.929 . S
H2828 C2842 0.930 . S
H2829 C2844 0.960 . S
H2830 C2844 0.960 . S
H2831 C2844 0.960 . S
C2832 H2824 0.929 . S
C2832 C2833 1.377 . S
C2832 C2834 1.384 . S
C2833 C2832 1.377 . S
C2833 C2839 1.390 . S
C2834 H2825 0.930 . S
C2834 C2832 1.384 . S
C2834 C2835 1.372 . S
C2835 C2834 1.372 . S
C2835 C2836 1.400 . S
C2835 C2840 1.490 . S
C2836 H2826 0.930 . S
C2836 C2835 1.400 . S
C2836 C2839 1.386 . S
H2837 C2853 0.930 . S
H2838 C2854 0.931 . S
C2839 H2827 0.929 . S
C2839 C2833 1.390 . S
C2839 C2836 1.386 . S
C2840 C2835 1.490 . S
C2840 C2842 1.395 . S
C2840 C2843 1.403 . S
H2841 C2847 0.930 . S
C2842 H2828 0.930 . S
C2842 C2840 1.395 . S
C2842 C2845 1.403 . S
C2843 C2840 1.403 . S
C2843 C2844 1.524 . S
C2843 C2847 1.400 . S
C2844 H2829 0.960 . S
C2844 H2830 0.960 . S
C2844 H2831 0.960 . S
C2844 C2843 1.524 . S
C2845 C2842 1.403 . S
C2845 C2846 1.392 . S
C2845 C2849 1.495 . S
C2846 C2845 1.392 . S
C2846 C2847 1.385 . S
C2846 C2848 1.478 . S
C2847 H2841 0.930 . S
C2847 C2843 1.400 . S
C2847 C2846 1.385 . S
C2848 C2846 1.478 . S
C2848 C2850 1.381 . S
C2848 C2854 1.383 . S
C2849 C2845 1.495 . S
C2849 H2855 0.959 . S
C2849 H2856 0.961 . S
C2849 H2857 0.960 . S
C2850 C2848 1.381 . S
C2850 C2851 1.394 . S
C2850 H2858 0.930 . S
C2851 C2850 1.394 . S
C2851 C2852 1.383 . S
C2851 H2859 0.929 . S
C2852 C2851 1.383 . S
C2852 C2853 1.377 . S
C2853 H2837 0.930 . S
C2853 C2852 1.377 . S
C2853 C2854 1.379 . S
C2854 H2838 0.931 . S
C2854 C2848 1.383 . S
C2854 C2853 1.379 . S
H2855 C2849 0.959 . S
H2856 C2849 0.961 . S
H2857 C2849 0.960 . S
H2858 C2850 0.930 . S
H2859 C2851 0.929 . S
H2860 C2868 0.929 . S
H2861 C2870 0.930 . S
H2862 C2872 0.930 . S
H2863 C2875 0.929 . S
H2864 C2878 0.930 . S
H2865 C2880 0.960 . S
H2866 C2880 0.960 . S
H2867 C2880 0.960 . S
C2868 H2860 0.929 . S
C2868 C2869 1.377 . S
C2868 C2870 1.384 . S
C2869 C2868 1.377 . S
C2869 C2875 1.390 . S
C2870 H2861 0.930 . S
C2870 C2868 1.384 . S
C2870 C2871 1.372 . S
C2871 C2870 1.372 . S
C2871 C2872 1.400 . S
C2871 C2876 1.490 . S
C2872 H2862 0.930 . S
C2872 C2871 1.400 . S
C2872 C2875 1.386 . S
H2873 C2889 0.930 . S
H2874 C2890 0.931 . S
C2875 H2863 0.929 . S
C2875 C2869 1.390 . S
C2875 C2872 1.386 . S
C2876 C2871 1.490 . S
C2876 C2878 1.395 . S
C2876 C2879 1.403 . S
H2877 C2883 0.930 . S
C2878 H2864 0.930 . S
C2878 C2876 1.395 . S
C2878 C2881 1.403 . S
C2879 C2876 1.403 . S
C2879 C2880 1.524 . S
C2879 C2883 1.400 . S
C2880 H2865 0.960 . S
C2880 H2866 0.960 . S
C2880 H2867 0.960 . S
C2880 C2879 1.524 . S
C2881 C2878 1.403 . S
C2881 C2882 1.392 . S
C2881 C2885 1.495 . S
C2882 C2881 1.392 . S
C2882 C2883 1.385 . S
C2882 C2884 1.478 . S
C2883 H2877 0.930 . S
C2883 C2879 1.400 . S
C2883 C2882 1.385 . S
C2884 C2882 1.478 . S
C2884 C2886 1.381 . S
C2884 C2890 1.383 . S
C2885 C2881 1.495 . S
C2885 H2891 0.959 . S
C2885 H2892 0.961 . S
C2885 H2893 0.960 . S
C2886 C2884 1.381 . S
C2886 C2887 1.394 . S
C2886 H2894 0.930 . S
C2887 C2886 1.394 . S
C2887 C2888 1.383 . S
C2887 H2895 0.929 . S
C2888 C2887 1.383 . S
C2888 C2889 1.377 . S
C2889 H2873 0.930 . S
C2889 C2888 1.377 . S
C2889 C2890 1.379 . S
C2890 H2874 0.931 . S
C2890 C2884 1.383 . S
C2890 C2889 1.379 . S
H2891 C2885 0.959 . S
H2892 C2885 0.961 . S
H2893 C2885 0.960 . S
H2894 C2886 0.930 . S
H2895 C2887 0.929 . S
H2896 C2904 0.929 . S
H2897 C2906 0.930 . S
H2898 C2908 0.930 . S
H2899 C2911 0.929 . S
H2900 C2914 0.930 . S
H2901 C2916 0.960 . S
H2902 C2916 0.960 . S
H2903 C2916 0.960 . S
C2904 H2896 0.929 . S
C2904 C2905 1.377 . S
C2904 C2906 1.384 . S
C2905 C2904 1.377 . S
C2905 C2911 1.390 . S
C2906 H2897 0.930 . S
C2906 C2904 1.384 . S
C2906 C2907 1.372 . S
C2907 C2906 1.372 . S
C2907 C2908 1.400 . S
C2907 C2912 1.490 . S
C2908 H2898 0.930 . S
C2908 C2907 1.400 . S
C2908 C2911 1.386 . S
H2909 C2925 0.930 . S
H2910 C2926 0.931 . S
C2911 H2899 0.929 . S
C2911 C2905 1.390 . S
C2911 C2908 1.386 . S
C2912 C2907 1.490 . S
C2912 C2914 1.395 . S
C2912 C2915 1.403 . S
H2913 C2919 0.930 . S
C2914 H2900 0.930 . S
C2914 C2912 1.395 . S
C2914 C2917 1.403 . S
C2915 C2912 1.403 . S
C2915 C2916 1.524 . S
C2915 C2919 1.400 . S
C2916 H2901 0.960 . S
C2916 H2902 0.960 . S
C2916 H2903 0.960 . S
C2916 C2915 1.524 . S
C2917 C2914 1.403 . S
C2917 C2918 1.392 . S
C2917 C2921 1.495 . S
C2918 C2917 1.392 . S
C2918 C2919 1.385 . S
C2918 C2920 1.478 . S
C2919 H2913 0.930 . S
C2919 C2915 1.400 . S
C2919 C2918 1.385 . S
C2920 C2918 1.478 . S
C2920 C2922 1.381 . S
C2920 C2926 1.383 . S
C2921 C2917 1.495 . S
C2921 H2927 0.959 . S
C2921 H2928 0.961 . S
C2921 H2929 0.960 . S
C2922 C2920 1.381 . S
C2922 C2923 1.394 . S
C2922 H2930 0.930 . S
C2923 C2922 1.394 . S
C2923 C2924 1.383 . S
C2923 H2931 0.929 . S
C2924 C2923 1.383 . S
C2924 C2925 1.377 . S
C2925 H2909 0.930 . S
C2925 C2924 1.377 . S
C2925 C2926 1.379 . S
C2926 H2910 0.931 . S
C2926 C2920 1.383 . S
C2926 C2925 1.379 . S
H2927 C2921 0.959 . S
H2928 C2921 0.961 . S
H2929 C2921 0.960 . S
H2930 C2922 0.930 . S
H2931 C2923 0.929 . S
H2932 C2940 0.929 1_554 S
H2933 C2942 0.930 . S
H2934 C2944 0.930 . S
H2935 C2947 0.929 . S
H2936 C2950 0.930 . S
H2937 C2952 0.960 . S
H2938 C2952 0.960 . S
H2939 C2952 0.960 . S
C2940 H2932 0.929 1_556 S
C2940 C2941 1.377 . S
C2940 C2942 1.384 . S
C2941 C2940 1.377 . S
C2941 C2947 1.390 . S
C2942 H2933 0.930 . S
C2942 C2940 1.384 . S
C2942 C2943 1.372 . S
C2943 C2942 1.372 . S
C2943 C2944 1.400 . S
C2943 C2948 1.490 . S
C2944 H2934 0.930 . S
C2944 C2943 1.400 . S
C2944 C2947 1.386 . S
H2945 C2961 0.930 . S
H2946 C2962 0.931 . S
C2947 H2935 0.929 . S
C2947 C2941 1.390 . S
C2947 C2944 1.386 . S
C2948 C2943 1.490 . S
C2948 C2950 1.395 . S
C2948 C2951 1.403 . S
H2949 C2955 0.930 . S
C2950 H2936 0.930 . S
C2950 C2948 1.395 . S
C2950 C2953 1.403 . S
C2951 C2948 1.403 . S
C2951 C2952 1.524 . S
C2951 C2955 1.400 . S
C2952 H2937 0.960 . S
C2952 H2938 0.960 . S
C2952 H2939 0.960 . S
C2952 C2951 1.524 . S
C2953 C2950 1.403 . S
C2953 C2954 1.392 . S
C2953 C2957 1.495 . S
C2954 C2953 1.392 . S
C2954 C2955 1.385 . S
C2954 C2956 1.478 . S
C2955 H2949 0.930 . S
C2955 C2951 1.400 . S
C2955 C2954 1.385 . S
C2956 C2954 1.478 . S
C2956 C2958 1.381 . S
C2956 C2962 1.383 . S
C2957 C2953 1.495 . S
C2957 H2963 0.959 . S
C2957 H2964 0.961 . S
C2957 H2965 0.960 . S
C2958 C2956 1.381 . S
C2958 C2959 1.394 . S
C2958 H2966 0.930 . S
C2959 C2958 1.394 . S
C2959 C2960 1.383 . S
C2959 H2967 0.929 . S
C2960 C2959 1.383 . S
C2960 C2961 1.377 . S
C2961 H2945 0.930 . S
C2961 C2960 1.377 . S
C2961 C2962 1.379 . S
C2962 H2946 0.931 . S
C2962 C2956 1.383 . S
C2962 C2961 1.379 . S
H2963 C2957 0.959 . S
H2964 C2957 0.961 . S
H2965 C2957 0.960 . S
H2966 C2958 0.930 . S
H2967 C2959 0.929 . S
H2968 C2976 0.929 . S
H2969 C2978 0.930 . S
H2970 C2980 0.930 . S
H2971 C2983 0.929 . S
H2972 C2986 0.930 . S
H2973 C2988 0.960 . S
H2974 C2988 0.960 . S
H2975 C2988 0.960 . S
C2976 H2968 0.929 . S
C2976 C2977 1.377 . S
C2976 C2978 1.384 . S
C2977 C2976 1.377 . S
C2977 C2983 1.390 . S
C2978 H2969 0.930 . S
C2978 C2976 1.384 . S
C2978 C2979 1.372 . S
C2979 C2978 1.372 . S
C2979 C2980 1.400 . S
C2979 C2984 1.490 . S
C2980 H2970 0.930 . S
C2980 C2979 1.400 . S
C2980 C2983 1.386 . S
H2981 C2997 0.930 . S
H2982 C2998 0.931 . S
C2983 H2971 0.929 . S
C2983 C2977 1.390 . S
C2983 C2980 1.386 . S
C2984 C2979 1.490 . S
C2984 C2986 1.395 . S
C2984 C2987 1.403 . S
H2985 C2991 0.930 . S
C2986 H2972 0.930 . S
C2986 C2984 1.395 . S
C2986 C2989 1.403 . S
C2987 C2984 1.403 . S
C2987 C2988 1.524 . S
C2987 C2991 1.400 . S
C2988 H2973 0.960 . S
C2988 H2974 0.960 . S
C2988 H2975 0.960 . S
C2988 C2987 1.524 . S
C2989 C2986 1.403 . S
C2989 C2990 1.392 . S
C2989 C2993 1.495 . S
C2990 C2989 1.392 . S
C2990 C2991 1.385 . S
C2990 C2992 1.478 . S
C2991 H2985 0.930 . S
C2991 C2987 1.400 . S
C2991 C2990 1.385 . S
C2992 C2990 1.478 . S
C2992 C2994 1.381 . S
C2992 C2998 1.383 . S
C2993 C2989 1.495 . S
C2993 H2999 0.959 . S
C2993 H3000 0.961 . S
C2993 H3001 0.960 . S
C2994 C2992 1.381 . S
C2994 C2995 1.394 . S
C2994 H3002 0.930 . S
C2995 C2994 1.394 . S
C2995 C2996 1.383 1_655 S
C2995 H3003 0.929 . S
C2996 C2995 1.383 1_455 S
C2996 C2997 1.377 1_455 S
C2997 H2981 0.930 . S
C2997 C2996 1.377 1_655 S
C2997 C2998 1.379 . S
C2998 H2982 0.931 . S
C2998 C2992 1.383 . S
C2998 C2997 1.379 . S
H2999 C2993 0.959 . S
H3000 C2993 0.961 . S
H3001 C2993 0.960 . S
H3002 C2994 0.930 . S
H3003 C2995 0.929 . S
H3004 C3012 0.929 . S
H3005 C3014 0.930 . S
H3006 C3016 0.930 . S
H3007 C3019 0.929 . S
H3008 C3022 0.930 . S
H3009 C3024 0.960 . S
H3010 C3024 0.960 . S
H3011 C3024 0.960 . S
C3012 H3004 0.929 . S
C3012 C3013 1.377 . S
C3012 C3014 1.384 . S
C3013 C3012 1.377 . S
C3013 C3019 1.390 . S
C3014 H3005 0.930 . S
C3014 C3012 1.384 . S
C3014 C3015 1.372 . S
C3015 C3014 1.372 . S
C3015 C3016 1.400 . S
C3015 C3020 1.490 . S
C3016 H3006 0.930 . S
C3016 C3015 1.400 . S
C3016 C3019 1.386 . S
H3017 C3033 0.930 . S
H3018 C3034 0.931 . S
C3019 H3007 0.929 . S
C3019 C3013 1.390 . S
C3019 C3016 1.386 . S
C3020 C3015 1.490 . S
C3020 C3022 1.395 . S
C3020 C3023 1.403 . S
H3021 C3027 0.930 . S
C3022 H3008 0.930 . S
C3022 C3020 1.395 . S
C3022 C3025 1.403 . S
C3023 C3020 1.403 . S
C3023 C3024 1.524 . S
C3023 C3027 1.400 . S
C3024 H3009 0.960 . S
C3024 H3010 0.960 . S
C3024 H3011 0.960 . S
C3024 C3023 1.524 . S
C3025 C3022 1.403 . S
C3025 C3026 1.392 . S
C3025 C3029 1.495 . S
C3026 C3025 1.392 . S
C3026 C3027 1.385 . S
C3026 C3028 1.478 . S
C3027 H3021 0.930 . S
C3027 C3023 1.400 . S
C3027 C3026 1.385 . S
C3028 C3026 1.478 . S
C3028 C3030 1.381 . S
C3028 C3034 1.383 . S
C3029 C3025 1.495 . S
C3029 H3035 0.959 . S
C3029 H3036 0.961 . S
C3029 H3037 0.960 . S
C3030 C3028 1.381 . S
C3030 C3031 1.394 . S
C3030 H3038 0.930 . S
C3031 C3030 1.394 . S
C3031 C3032 1.383 . S
C3031 H3039 0.929 . S
C3032 C3031 1.383 . S
C3032 C3033 1.377 . S
C3033 H3017 0.930 . S
C3033 C3032 1.377 . S
C3033 C3034 1.379 . S
C3034 H3018 0.931 . S
C3034 C3028 1.383 . S
C3034 C3033 1.379 . S
H3035 C3029 0.959 . S
H3036 C3029 0.961 . S
H3037 C3029 0.960 . S
H3038 C3030 0.930 . S
H3039 C3031 0.929 . S
H3040 C3048 0.929 . S
H3041 C3050 0.930 . S
H3042 C3052 0.930 . S
H3043 C3055 0.929 . S
H3044 C3058 0.930 . S
H3045 C3060 0.960 . S
H3046 C3060 0.960 . S
H3047 C3060 0.960 . S
C3048 H3040 0.929 . S
C3048 C3049 1.377 . S
C3048 C3050 1.384 . S
C3049 C3048 1.377 . S
C3049 C3055 1.390 . S
C3050 H3041 0.930 . S
C3050 C3048 1.384 . S
C3050 C3051 1.372 . S
C3051 C3050 1.372 . S
C3051 C3052 1.400 . S
C3051 C3056 1.490 . S
C3052 H3042 0.930 . S
C3052 C3051 1.400 . S
C3052 C3055 1.386 . S
H3053 C3069 0.930 . S
H3054 C3070 0.931 . S
C3055 H3043 0.929 . S
C3055 C3049 1.390 . S
C3055 C3052 1.386 . S
C3056 C3051 1.490 . S
C3056 C3058 1.395 . S
C3056 C3059 1.403 . S
H3057 C3063 0.930 . S
C3058 H3044 0.930 . S
C3058 C3056 1.395 . S
C3058 C3061 1.403 . S
C3059 C3056 1.403 . S
C3059 C3060 1.524 . S
C3059 C3063 1.400 . S
C3060 H3045 0.960 . S
C3060 H3046 0.960 . S
C3060 H3047 0.960 . S
C3060 C3059 1.524 . S
C3061 C3058 1.403 . S
C3061 C3062 1.392 . S
C3061 C3065 1.495 . S
C3062 C3061 1.392 . S
C3062 C3063 1.385 . S
C3062 C3064 1.478 . S
C3063 H3057 0.930 . S
C3063 C3059 1.400 . S
C3063 C3062 1.385 . S
C3064 C3062 1.478 . S
C3064 C3066 1.381 . S
C3064 C3070 1.383 . S
C3065 C3061 1.495 . S
C3065 H3071 0.959 . S
C3065 H3072 0.961 . S
C3065 H3073 0.960 . S
C3066 C3064 1.381 . S
C3066 C3067 1.394 . S
C3066 H3074 0.930 . S
C3067 C3066 1.394 . S
C3067 C3068 1.383 . S
C3067 H3075 0.929 . S
C3068 C3067 1.383 . S
C3068 C3069 1.377 . S
C3069 H3053 0.930 . S
C3069 C3068 1.377 . S
C3069 C3070 1.379 . S
C3070 H3054 0.931 . S
C3070 C3064 1.383 . S
C3070 C3069 1.379 . S
H3071 C3065 0.959 . S
H3072 C3065 0.961 . S
H3073 C3065 0.960 . S
H3074 C3066 0.930 . S
H3075 C3067 0.929 . S
H3076 C3084 0.929 . S
H3077 C3086 0.930 . S
H3078 C3088 0.930 . S
H3079 C3091 0.929 . S
H3080 C3094 0.930 . S
H3081 C3096 0.960 . S
H3082 C3096 0.960 . S
H3083 C3096 0.960 . S
C3084 H3076 0.929 . S
C3084 C3085 1.377 . S
C3084 C3086 1.384 . S
C3085 C3084 1.377 . S
C3085 C3091 1.390 . S
C3086 H3077 0.930 . S
C3086 C3084 1.384 . S
C3086 C3087 1.372 . S
C3087 C3086 1.372 . S
C3087 C3088 1.400 . S
C3087 C3092 1.490 . S
C3088 H3078 0.930 . S
C3088 C3087 1.400 . S
C3088 C3091 1.386 . S
H3089 C3105 0.930 . S
H3090 C3106 0.931 . S
C3091 H3079 0.929 . S
C3091 C3085 1.390 . S
C3091 C3088 1.386 . S
C3092 C3087 1.490 . S
C3092 C3094 1.395 . S
C3092 C3095 1.403 . S
H3093 C3099 0.930 . S
C3094 H3080 0.930 . S
C3094 C3092 1.395 . S
C3094 C3097 1.403 . S
C3095 C3092 1.403 . S
C3095 C3096 1.524 . S
C3095 C3099 1.400 . S
C3096 H3081 0.960 . S
C3096 H3082 0.960 . S
C3096 H3083 0.960 . S
C3096 C3095 1.524 . S
C3097 C3094 1.403 . S
C3097 C3098 1.392 . S
C3097 C3101 1.495 . S
C3098 C3097 1.392 . S
C3098 C3099 1.385 . S
C3098 C3100 1.478 . S
C3099 H3093 0.930 . S
C3099 C3095 1.400 . S
C3099 C3098 1.385 . S
C3100 C3098 1.478 . S
C3100 C3102 1.381 . S
C3100 C3106 1.383 . S
C3101 C3097 1.495 . S
C3101 H3107 0.959 . S
C3101 H3108 0.961 . S
C3101 H3109 0.960 . S
C3102 C3100 1.381 . S
C3102 C3103 1.394 . S
C3102 H3110 0.930 . S
C3103 C3102 1.394 . S
C3103 C3104 1.383 . S
C3103 H3111 0.929 . S
C3104 C3103 1.383 . S
C3104 C3105 1.377 . S
C3105 H3089 0.930 . S
C3105 C3104 1.377 . S
C3105 C3106 1.379 . S
C3106 H3090 0.931 . S
C3106 C3100 1.383 . S
C3106 C3105 1.379 . S
H3107 C3101 0.959 . S
H3108 C3101 0.961 . S
H3109 C3101 0.960 . S
H3110 C3102 0.930 . S
H3111 C3103 0.929 . S
H3112 C3120 0.929 . S
H3113 C3122 0.930 . S
H3114 C3124 0.930 . S
H3115 C3127 0.929 . S
H3116 C3130 0.930 . S
H3117 C3132 0.960 . S
H3118 C3132 0.960 . S
H3119 C3132 0.960 . S
C3120 H3112 0.929 . S
C3120 C3121 1.377 . S
C3120 C3122 1.384 . S
C3121 C3120 1.377 . S
C3121 C3127 1.390 . S
C3122 H3113 0.930 . S
C3122 C3120 1.384 . S
C3122 C3123 1.372 . S
C3123 C3122 1.372 . S
C3123 C3124 1.400 . S
C3123 C3128 1.490 . S
C3124 H3114 0.930 . S
C3124 C3123 1.400 . S
C3124 C3127 1.386 . S
H3125 C3141 0.930 1_455 S
H3126 C3142 0.931 . S
C3127 H3115 0.929 . S
C3127 C3121 1.390 . S
C3127 C3124 1.386 . S
C3128 C3123 1.490 . S
C3128 C3130 1.395 . S
C3128 C3131 1.403 . S
H3129 C3135 0.930 . S
C3130 H3116 0.930 . S
C3130 C3128 1.395 . S
C3130 C3133 1.403 . S
C3131 C3128 1.403 . S
C3131 C3132 1.524 . S
C3131 C3135 1.400 . S
C3132 H3117 0.960 . S
C3132 H3118 0.960 . S
C3132 H3119 0.960 . S
C3132 C3131 1.524 . S
C3133 C3130 1.403 . S
C3133 C3134 1.392 . S
C3133 C3137 1.495 . S
C3134 C3133 1.392 . S
C3134 C3135 1.385 . S
C3134 C3136 1.478 . S
C3135 H3129 0.930 . S
C3135 C3131 1.400 . S
C3135 C3134 1.385 . S
C3136 C3134 1.478 . S
C3136 C3138 1.381 . S
C3136 C3142 1.383 . S
C3137 C3133 1.495 . S
C3137 H3143 0.959 . S
C3137 H3144 0.961 . S
C3137 H3145 0.960 . S
C3138 C3136 1.381 . S
C3138 C3139 1.394 . S
C3138 H3146 0.930 . S
C3139 C3138 1.394 . S
C3139 C3140 1.383 . S
C3139 H3147 0.929 . S
C3140 C3139 1.383 . S
C3140 C3141 1.377 . S
C3141 H3125 0.930 1_655 S
C3141 C3140 1.377 . S
C3141 C3142 1.379 . S
C3142 H3126 0.931 . S
C3142 C3136 1.383 . S
C3142 C3141 1.379 . S
H3143 C3137 0.959 . S
H3144 C3137 0.961 . S
H3145 C3137 0.960 . S
H3146 C3138 0.930 . S
H3147 C3139 0.929 . S
H3148 C3156 0.929 . S
H3149 C3158 0.930 . S
H3150 C3160 0.930 . S
H3151 C3163 0.929 . S
H3152 C3166 0.930 . S
H3153 C3168 0.960 . S
H3154 C3168 0.960 . S
H3155 C3168 0.960 . S
C3156 H3148 0.929 . S
C3156 C3157 1.377 . S
C3156 C3158 1.384 . S
C3157 C3156 1.377 . S
C3157 C3163 1.390 . S
C3158 H3149 0.930 . S
C3158 C3156 1.384 . S
C3158 C3159 1.372 . S
C3159 C3158 1.372 . S
C3159 C3160 1.400 . S
C3159 C3164 1.490 . S
C3160 H3150 0.930 . S
C3160 C3159 1.400 . S
C3160 C3163 1.386 . S
H3161 C3177 0.930 . S
H3162 C3178 0.931 . S
C3163 H3151 0.929 . S
C3163 C3157 1.390 . S
C3163 C3160 1.386 . S
C3164 C3159 1.490 . S
C3164 C3166 1.395 . S
C3164 C3167 1.403 . S
H3165 C3171 0.930 . S
C3166 H3152 0.930 . S
C3166 C3164 1.395 . S
C3166 C3169 1.403 . S
C3167 C3164 1.403 . S
C3167 C3168 1.524 . S
C3167 C3171 1.400 . S
C3168 H3153 0.960 . S
C3168 H3154 0.960 . S
C3168 H3155 0.960 . S
C3168 C3167 1.524 . S
C3169 C3166 1.403 . S
C3169 C3170 1.392 . S
C3169 C3173 1.495 . S
C3170 C3169 1.392 . S
C3170 C3171 1.385 . S
C3170 C3172 1.478 . S
C3171 H3165 0.930 . S
C3171 C3167 1.400 . S
C3171 C3170 1.385 . S
C3172 C3170 1.478 . S
C3172 C3174 1.381 . S
C3172 C3178 1.383 . S
C3173 C3169 1.495 . S
C3173 H3179 0.959 . S
C3173 H3180 0.961 . S
C3173 H3181 0.960 . S
C3174 C3172 1.381 . S
C3174 C3175 1.394 . S
C3174 H3182 0.930 . S
C3175 C3174 1.394 . S
C3175 C3176 1.383 . S
C3175 H3183 0.929 . S
C3176 C3175 1.383 . S
C3176 C3177 1.377 . S
C3177 H3161 0.930 . S
C3177 C3176 1.377 . S
C3177 C3178 1.379 . S
C3178 H3162 0.931 . S
C3178 C3172 1.383 . S
C3178 C3177 1.379 . S
H3179 C3173 0.959 . S
H3180 C3173 0.961 . S
H3181 C3173 0.960 . S
H3182 C3174 0.930 . S
H3183 C3175 0.929 . S
H3184 C3192 0.929 . S
H3185 C3194 0.930 . S
H3186 C3196 0.930 . S
H3187 C3199 0.929 . S
H3188 C3202 0.930 . S
H3189 C3204 0.960 . S
H3190 C3204 0.960 . S
H3191 C3204 0.960 . S
C3192 H3184 0.929 . S
C3192 C3193 1.377 . S
C3192 C3194 1.384 . S
C3193 C3192 1.377 . S
C3193 C3199 1.390 . S
C3194 H3185 0.930 . S
C3194 C3192 1.384 . S
C3194 C3195 1.372 . S
C3195 C3194 1.372 . S
C3195 C3196 1.400 . S
C3195 C3200 1.490 . S
C3196 H3186 0.930 . S
C3196 C3195 1.400 . S
C3196 C3199 1.386 . S
H3197 C3213 0.930 . S
H3198 C3214 0.931 . S
C3199 H3187 0.929 . S
C3199 C3193 1.390 . S
C3199 C3196 1.386 . S
C3200 C3195 1.490 . S
C3200 C3202 1.395 . S
C3200 C3203 1.403 . S
H3201 C3207 0.930 . S
C3202 H3188 0.930 . S
C3202 C3200 1.395 . S
C3202 C3205 1.403 . S
C3203 C3200 1.403 . S
C3203 C3204 1.524 . S
C3203 C3207 1.400 . S
C3204 H3189 0.960 . S
C3204 H3190 0.960 . S
C3204 H3191 0.960 . S
C3204 C3203 1.524 . S
C3205 C3202 1.403 . S
C3205 C3206 1.392 . S
C3205 C3209 1.495 . S
C3206 C3205 1.392 . S
C3206 C3207 1.385 . S
C3206 C3208 1.478 . S
C3207 H3201 0.930 . S
C3207 C3203 1.400 . S
C3207 C3206 1.385 . S
C3208 C3206 1.478 . S
C3208 C3210 1.381 . S
C3208 C3214 1.383 . S
C3209 C3205 1.495 . S
C3209 H3215 0.959 . S
C3209 H3216 0.961 . S
C3209 H3217 0.960 . S
C3210 C3208 1.381 . S
C3210 C3211 1.394 . S
C3210 H3218 0.930 . S
C3211 C3210 1.394 . S
C3211 C3212 1.383 . S
C3211 H3219 0.929 . S
C3212 C3211 1.383 . S
C3212 C3213 1.377 . S
C3213 H3197 0.930 . S
C3213 C3212 1.377 . S
C3213 C3214 1.379 . S
C3214 H3198 0.931 . S
C3214 C3208 1.383 . S
C3214 C3213 1.379 . S
H3215 C3209 0.959 . S
H3216 C3209 0.961 . S
H3217 C3209 0.960 . S
H3218 C3210 0.930 . S
H3219 C3211 0.929 . S
H3220 C3228 0.929 . S
H3221 C3230 0.930 . S
H3222 C3232 0.930 . S
H3223 C3235 0.929 . S
H3224 C3238 0.930 . S
H3225 C3240 0.960 . S
H3226 C3240 0.960 . S
H3227 C3240 0.960 . S
C3228 H3220 0.929 . S
C3228 C3229 1.377 . S
C3228 C3230 1.384 . S
C3229 C3228 1.377 . S
C3229 C3235 1.390 . S
C3230 H3221 0.930 . S
C3230 C3228 1.384 . S
C3230 C3231 1.372 . S
C3231 C3230 1.372 . S
C3231 C3232 1.400 . S
C3231 C3236 1.490 . S
C3232 H3222 0.930 . S
C3232 C3231 1.400 . S
C3232 C3235 1.386 . S
H3233 C3249 0.930 . S
H3234 C3250 0.931 . S
C3235 H3223 0.929 . S
C3235 C3229 1.390 . S
C3235 C3232 1.386 . S
C3236 C3231 1.490 . S
C3236 C3238 1.395 . S
C3236 C3239 1.403 . S
H3237 C3243 0.930 . S
C3238 H3224 0.930 . S
C3238 C3236 1.395 . S
C3238 C3241 1.403 . S
C3239 C3236 1.403 . S
C3239 C3240 1.524 . S
C3239 C3243 1.400 . S
C3240 H3225 0.960 . S
C3240 H3226 0.960 . S
C3240 H3227 0.960 . S
C3240 C3239 1.524 . S
C3241 C3238 1.403 . S
C3241 C3242 1.392 . S
C3241 C3245 1.495 . S
C3242 C3241 1.392 . S
C3242 C3243 1.385 . S
C3242 C3244 1.478 . S
C3243 H3237 0.930 . S
C3243 C3239 1.400 . S
C3243 C3242 1.385 . S
C3244 C3242 1.478 . S
C3244 C3246 1.381 . S
C3244 C3250 1.383 . S
C3245 C3241 1.495 . S
C3245 H3251 0.959 . S
C3245 H3252 0.961 . S
C3245 H3253 0.960 . S
C3246 C3244 1.381 . S
C3246 C3247 1.394 1_565 S
C3246 H3254 0.930 1_565 S
C3247 C3246 1.394 1_545 S
C3247 C3248 1.383 1_545 S
C3247 H3255 0.929 . S
C3248 C3247 1.383 1_565 S
C3248 C3249 1.377 . S
C3249 H3233 0.930 . S
C3249 C3248 1.377 . S
C3249 C3250 1.379 . S
C3250 H3234 0.931 . S
C3250 C3244 1.383 . S
C3250 C3249 1.379 . S
H3251 C3245 0.959 . S
H3252 C3245 0.961 . S
H3253 C3245 0.960 . S
H3254 C3246 0.930 1_545 S
H3255 C3247 0.929 . S
H3256 C3264 0.929 . S
H3257 C3266 0.930 . S
H3258 C3268 0.930 . S
H3259 C3271 0.929 . S
H3260 C3274 0.930 . S
H3261 C3276 0.960 . S
H3262 C3276 0.960 . S
H3263 C3276 0.960 . S
C3264 H3256 0.929 . S
C3264 C3265 1.377 . S
C3264 C3266 1.384 . S
C3265 C3264 1.377 . S
C3265 C3271 1.390 . S
C3266 H3257 0.930 . S
C3266 C3264 1.384 . S
C3266 C3267 1.372 . S
C3267 C3266 1.372 . S
C3267 C3268 1.400 . S
C3267 C3272 1.490 . S
C3268 H3258 0.930 . S
C3268 C3267 1.400 . S
C3268 C3271 1.386 . S
H3269 C3285 0.930 . S
H3270 C3286 0.931 . S
C3271 H3259 0.929 . S
C3271 C3265 1.390 . S
C3271 C3268 1.386 . S
C3272 C3267 1.490 . S
C3272 C3274 1.395 . S
C3272 C3275 1.403 . S
H3273 C3279 0.930 . S
C3274 H3260 0.930 . S
C3274 C3272 1.395 . S
C3274 C3277 1.403 . S
C3275 C3272 1.403 . S
C3275 C3276 1.524 . S
C3275 C3279 1.400 . S
C3276 H3261 0.960 . S
C3276 H3262 0.960 . S
C3276 H3263 0.960 . S
C3276 C3275 1.524 . S
C3277 C3274 1.403 . S
C3277 C3278 1.392 . S
C3277 C3281 1.495 . S
C3278 C3277 1.392 . S
C3278 C3279 1.385 . S
C3278 C3280 1.478 . S
C3279 H3273 0.930 . S
C3279 C3275 1.400 . S
C3279 C3278 1.385 . S
C3280 C3278 1.478 . S
C3280 C3282 1.381 . S
C3280 C3286 1.383 . S
C3281 C3277 1.495 . S
C3281 H3287 0.959 . S
C3281 H3288 0.961 . S
C3281 H3289 0.960 . S
C3282 C3280 1.381 . S
C3282 C3283 1.394 . S
C3282 H3290 0.930 . S
C3283 C3282 1.394 . S
C3283 C3284 1.383 . S
C3283 H3291 0.929 . S
C3284 C3283 1.383 . S
C3284 C3285 1.377 . S
C3285 H3269 0.930 . S
C3285 C3284 1.377 . S
C3285 C3286 1.379 . S
C3286 H3270 0.931 . S
C3286 C3280 1.383 . S
C3286 C3285 1.379 . S
H3287 C3281 0.959 . S
H3288 C3281 0.961 . S
H3289 C3281 0.960 . S
H3290 C3282 0.930 . S
H3291 C3283 0.929 . S
H3292 C3300 0.929 . S
H3293 C3302 0.930 . S
H3294 C3304 0.930 1_556 S
H3295 C3307 0.929 1_556 S
H3296 C3310 0.930 . S
H3297 C3312 0.960 . S
H3298 C3312 0.960 . S
H3299 C3312 0.960 . S
C3300 H3292 0.929 . S
C3300 C3301 1.377 . S
C3300 C3302 1.384 . S
C3301 C3300 1.377 . S
C3301 C3307 1.390 . S
C3302 H3293 0.930 . S
C3302 C3300 1.384 . S
C3302 C3303 1.372 . S
C3303 C3302 1.372 . S
C3303 C3304 1.400 . S
C3303 C3308 1.490 . S
C3304 H3294 0.930 1_554 S
C3304 C3303 1.400 . S
C3304 C3307 1.386 . S
H3305 C3321 0.930 . S
H3306 C3322 0.931 . S
C3307 H3295 0.929 1_554 S
C3307 C3301 1.390 . S
C3307 C3304 1.386 . S
C3308 C3303 1.490 . S
C3308 C3310 1.395 . S
C3308 C3311 1.403 . S
H3309 C3315 0.930 . S
C3310 H3296 0.930 . S
C3310 C3308 1.395 . S
C3310 C3313 1.403 . S
C3311 C3308 1.403 . S
C3311 C3312 1.524 . S
C3311 C3315 1.400 . S
C3312 H3297 0.960 . S
C3312 H3298 0.960 . S
C3312 H3299 0.960 . S
C3312 C3311 1.524 . S
C3313 C3310 1.403 . S
C3313 C3314 1.392 . S
C3313 C3317 1.495 . S
C3314 C3313 1.392 . S
C3314 C3315 1.385 . S
C3314 C3316 1.478 . S
C3315 H3309 0.930 . S
C3315 C3311 1.400 . S
C3315 C3314 1.385 . S
C3316 C3314 1.478 . S
C3316 C3318 1.381 . S
C3316 C3322 1.383 . S
C3317 C3313 1.495 . S
C3317 H3323 0.959 . S
C3317 H3324 0.961 . S
C3317 H3325 0.960 . S
C3318 C3316 1.381 . S
C3318 C3319 1.394 . S
C3318 H3326 0.930 . S
C3319 C3318 1.394 . S
C3319 C3320 1.383 . S
C3319 H3327 0.929 . S
C3320 C3319 1.383 . S
C3320 C3321 1.377 . S
C3321 H3305 0.930 . S
C3321 C3320 1.377 . S
C3321 C3322 1.379 . S
C3322 H3306 0.931 . S
C3322 C3316 1.383 . S
C3322 C3321 1.379 . S
H3323 C3317 0.959 . S
H3324 C3317 0.961 . S
H3325 C3317 0.960 . S
H3326 C3318 0.930 . S
H3327 C3319 0.929 . S
H3328 C3336 0.929 . S
H3329 C3338 0.930 . S
H3330 C3340 0.930 . S
H3331 C3343 0.929 . S
H3332 C3346 0.930 . S
H3333 C3348 0.960 . S
H3334 C3348 0.960 . S
H3335 C3348 0.960 . S
C3336 H3328 0.929 . S
C3336 C3337 1.377 . S
C3336 C3338 1.384 . S
C3337 C3336 1.377 . S
C3337 C3343 1.390 . S
C3338 H3329 0.930 . S
C3338 C3336 1.384 . S
C3338 C3339 1.372 . S
C3339 C3338 1.372 . S
C3339 C3340 1.400 . S
C3339 C3344 1.490 . S
C3340 H3330 0.930 . S
C3340 C3339 1.400 . S
C3340 C3343 1.386 . S
H3341 C3357 0.930 . S
H3342 C3358 0.931 . S
C3343 H3331 0.929 . S
C3343 C3337 1.390 . S
C3343 C3340 1.386 . S
C3344 C3339 1.490 . S
C3344 C3346 1.395 . S
C3344 C3347 1.403 . S
H3345 C3351 0.930 . S
C3346 H3332 0.930 . S
C3346 C3344 1.395 . S
C3346 C3349 1.403 . S
C3347 C3344 1.403 . S
C3347 C3348 1.524 . S
C3347 C3351 1.400 . S
C3348 H3333 0.960 . S
C3348 H3334 0.960 . S
C3348 H3335 0.960 . S
C3348 C3347 1.524 . S
C3349 C3346 1.403 . S
C3349 C3350 1.392 . S
C3349 C3353 1.495 . S
C3350 C3349 1.392 . S
C3350 C3351 1.385 . S
C3350 C3352 1.478 . S
C3351 H3345 0.930 . S
C3351 C3347 1.400 . S
C3351 C3350 1.385 . S
C3352 C3350 1.478 . S
C3352 C3354 1.381 . S
C3352 C3358 1.383 . S
C3353 C3349 1.495 . S
C3353 H3359 0.959 . S
C3353 H3360 0.961 . S
C3353 H3361 0.960 . S
C3354 C3352 1.381 . S
C3354 C3355 1.394 . S
C3354 H3362 0.930 . S
C3355 C3354 1.394 . S
C3355 C3356 1.383 . S
C3355 H3363 0.929 . S
C3356 C3355 1.383 . S
C3356 C3357 1.377 . S
C3357 H3341 0.930 . S
C3357 C3356 1.377 . S
C3357 C3358 1.379 . S
C3358 H3342 0.931 . S
C3358 C3352 1.383 . S
C3358 C3357 1.379 . S
H3359 C3353 0.959 . S
H3360 C3353 0.961 . S
H3361 C3353 0.960 . S
H3362 C3354 0.930 . S
H3363 C3355 0.929 . S
H3364 C3372 0.929 . S
H3365 C3374 0.930 . S
H3366 C3376 0.930 . S
H3367 C3379 0.929 . S
H3368 C3382 0.930 . S
H3369 C3384 0.960 1_556 S
H3370 C3384 0.960 . S
H3371 C3384 0.967 . S
C3372 H3364 0.929 . S
C3372 C3373 1.377 . S
C3372 C3374 1.384 . S
C3373 C3372 1.377 . S
C3373 C3379 1.390 . S
C3374 H3365 0.930 . S
C3374 C3372 1.384 . S
C3374 C3375 1.372 . S
C3375 C3374 1.372 . S
C3375 C3376 1.400 . S
C3375 C3380 1.490 . S
C3376 H3366 0.930 . S
C3376 C3375 1.400 . S
C3376 C3379 1.386 . S
H3377 C3393 0.930 1_556 S
H3378 C3394 0.892 1_556 S
C3379 H3367 0.929 . S
C3379 C3373 1.390 . S
C3379 C3376 1.386 . S
C3380 C3375 1.490 . S
C3380 C3382 1.395 . S
C3380 C3383 1.403 . S
H3381 C3387 0.930 . S
C3382 H3368 0.930 . S
C3382 C3380 1.395 . S
C3382 C3385 1.403 . S
C3383 C3380 1.403 . S
C3383 C3384 1.524 . S
C3383 C3387 1.400 . S
C3384 H3369 0.960 1_554 S
C3384 H3370 0.960 . S
C3384 H3371 0.967 . S
C3384 C3383 1.524 . S
C3385 C3382 1.403 . S
C3385 C3386 1.392 . S
C3385 C3389 1.495 . S
C3386 C3385 1.392 . S
C3386 C3387 1.385 . S
C3386 C3388 1.478 . S
C3387 H3381 0.930 . S
C3387 C3383 1.400 . S
C3387 C3386 1.385 . S
C3388 C3386 1.478 . S
C3388 C3390 1.381 . S
C3388 C3394 1.383 . S
C3389 C3385 1.495 . S
C3389 H3395 0.959 . S
C3389 H3396 0.961 . S
C3389 H3397 0.960 . S
C3390 C3388 1.381 . S
C3390 C3391 1.394 . S
C3390 H3398 0.930 . S
C3391 C3390 1.394 . S
C3391 C3392 1.383 . S
C3391 H3399 0.929 . S
C3392 C3391 1.383 . S
C3392 C3393 1.377 . S
C3393 H3377 0.930 1_554 S
C3393 C3392 1.377 . S
C3393 C3394 1.379 . S
C3394 H3378 0.892 1_554 S
C3394 C3388 1.383 . S
C3394 C3393 1.379 . S
H3395 C3389 0.959 . S
H3396 C3389 0.961 . S
H3397 C3389 0.960 . S
H3398 C3390 0.930 . S
H3399 C3391 0.929 . S
H3400 C3408 0.929 . S
H3401 C3410 0.930 . S
H3402 C3412 0.930 . S
H3403 C3415 0.929 . S
H3404 C3418 0.930 . S
H3405 C3420 0.960 . S
H3406 C3420 0.960 . S
H3407 C3420 0.960 . S
C3408 H3400 0.929 . S
C3408 C3409 1.377 . S
C3408 C3410 1.384 . S
C3409 C3408 1.377 . S
C3409 C3415 1.390 . S
C3410 H3401 0.930 . S
C3410 C3408 1.384 . S
C3410 C3411 1.372 . S
C3411 C3410 1.372 . S
C3411 C3412 1.400 . S
C3411 C3416 1.490 . S
C3412 H3402 0.930 . S
C3412 C3411 1.400 . S
C3412 C3415 1.386 . S
H3413 C3429 0.930 . S
H3414 C3430 0.931 . S
C3415 H3403 0.929 . S
C3415 C3409 1.390 . S
C3415 C3412 1.386 . S
C3416 C3411 1.490 . S
C3416 C3418 1.395 . S
C3416 C3419 1.403 . S
H3417 C3423 0.930 . S
C3418 H3404 0.930 . S
C3418 C3416 1.395 . S
C3418 C3421 1.403 . S
C3419 C3416 1.403 . S
C3419 C3420 1.524 . S
C3419 C3423 1.400 . S
C3420 H3405 0.960 . S
C3420 H3406 0.960 . S
C3420 H3407 0.960 . S
C3420 C3419 1.524 . S
C3421 C3418 1.403 . S
C3421 C3422 1.392 . S
C3421 C3425 1.495 . S
C3422 C3421 1.392 . S
C3422 C3423 1.385 . S
C3422 C3424 1.478 . S
C3423 H3417 0.930 . S
C3423 C3419 1.400 . S
C3423 C3422 1.385 . S
C3424 C3422 1.478 . S
C3424 C3426 1.381 . S
C3424 C3430 1.383 . S
C3425 C3421 1.495 . S
C3425 H3431 0.959 . S
C3425 H3432 0.961 . S
C3425 H3433 0.960 . S
C3426 C3424 1.381 . S
C3426 C3427 1.394 . S
C3426 H3434 0.930 . S
C3427 C3426 1.394 . S
C3427 C3428 1.383 . S
C3427 H3435 0.929 . S
C3428 C3427 1.383 . S
C3428 C3429 1.377 . S
C3429 H3413 0.930 . S
C3429 C3428 1.377 . S
C3429 C3430 1.379 . S
C3430 H3414 0.931 . S
C3430 C3424 1.383 . S
C3430 C3429 1.379 . S
H3431 C3425 0.959 . S
H3432 C3425 0.961 . S
H3433 C3425 0.960 . S
H3434 C3426 0.930 . S
H3435 C3427 0.929 . S
H3436 C3444 0.929 . S
H3437 C3446 0.930 . S
H3438 C3448 0.930 . S
H3439 C3451 0.929 . S
H3440 C3454 0.930 . S
H3441 C3456 0.960 . S
H3442 C3456 0.960 . S
H3443 C3456 0.960 . S
C3444 H3436 0.929 . S
C3444 C3445 1.377 . S
C3444 C3446 1.384 . S
C3445 C3444 1.377 . S
C3445 C3451 1.390 . S
C3446 H3437 0.930 . S
C3446 C3444 1.384 . S
C3446 C3447 1.372 . S
C3447 C3446 1.372 . S
C3447 C3448 1.400 . S
C3447 C3452 1.490 . S
C3448 H3438 0.930 . S
C3448 C3447 1.400 . S
C3448 C3451 1.386 . S
H3449 C3465 0.930 . S
H3450 C3466 0.931 . S
C3451 H3439 0.929 . S
C3451 C3445 1.390 . S
C3451 C3448 1.386 . S
C3452 C3447 1.490 . S
C3452 C3454 1.395 . S
C3452 C3455 1.403 . S
H3453 C3459 0.930 . S
C3454 H3440 0.930 . S
C3454 C3452 1.395 . S
C3454 C3457 1.403 . S
C3455 C3452 1.403 . S
C3455 C3456 1.524 . S
C3455 C3459 1.400 . S
C3456 H3441 0.960 . S
C3456 H3442 0.960 . S
C3456 H3443 0.960 . S
C3456 C3455 1.524 . S
C3457 C3454 1.403 . S
C3457 C3458 1.392 . S
C3457 C3461 1.495 . S
C3458 C3457 1.392 . S
C3458 C3459 1.385 . S
C3458 C3460 1.478 . S
C3459 H3453 0.930 . S
C3459 C3455 1.400 . S
C3459 C3458 1.385 . S
C3460 C3458 1.478 . S
C3460 C3462 1.381 . S
C3460 C3466 1.383 . S
C3461 C3457 1.495 . S
C3461 H3467 0.959 . S
C3461 H3468 0.961 . S
C3461 H3469 0.960 . S
C3462 C3460 1.381 . S
C3462 C3463 1.394 . S
C3462 H3470 0.930 . S
C3463 C3462 1.394 . S
C3463 C3464 1.383 . S
C3463 H3471 0.929 . S
C3464 C3463 1.383 . S
C3464 C3465 1.377 . S
C3465 H3449 0.930 . S
C3465 C3464 1.377 . S
C3465 C3466 1.379 . S
C3466 H3450 0.931 . S
C3466 C3460 1.383 . S
C3466 C3465 1.379 . S
H3467 C3461 0.959 . S
H3468 C3461 0.961 . S
H3469 C3461 0.960 . S
H3470 C3462 0.930 . S
H3471 C3463 0.929 . S
H3472 C3480 0.929 . S
H3473 C3482 0.930 . S
H3474 C3484 0.930 . S
H3475 C3487 0.929 . S
H3476 C3490 0.930 . S
H3477 C3492 0.960 . S
H3478 C3492 0.960 . S
H3479 C3492 0.960 . S
C3480 H3472 0.929 . S
C3480 C3481 1.377 . S
C3480 C3482 1.384 . S
C3481 C3480 1.377 . S
C3481 C3487 1.390 . S
C3482 H3473 0.930 . S
C3482 C3480 1.384 . S
C3482 C3483 1.372 . S
C3483 C3482 1.372 . S
C3483 C3484 1.400 . S
C3483 C3488 1.490 . S
C3484 H3474 0.930 . S
C3484 C3483 1.400 . S
C3484 C3487 1.386 . S
H3485 C3501 0.930 . S
H3486 C3502 0.931 . S
C3487 H3475 0.929 . S
C3487 C3481 1.390 . S
C3487 C3484 1.386 . S
C3488 C3483 1.490 . S
C3488 C3490 1.395 . S
C3488 C3491 1.403 . S
H3489 C3495 0.930 . S
C3490 H3476 0.930 . S
C3490 C3488 1.395 . S
C3490 C3493 1.403 . S
C3491 C3488 1.403 . S
C3491 C3492 1.524 . S
C3491 C3495 1.400 . S
C3492 H3477 0.960 . S
C3492 H3478 0.960 . S
C3492 H3479 0.960 . S
C3492 C3491 1.524 . S
C3493 C3490 1.403 . S
C3493 C3494 1.392 . S
C3493 C3497 1.495 . S
C3494 C3493 1.392 . S
C3494 C3495 1.385 . S
C3494 C3496 1.478 . S
C3495 H3489 0.930 . S
C3495 C3491 1.400 . S
C3495 C3494 1.385 . S
C3496 C3494 1.478 . S
C3496 C3498 1.381 . S
C3496 C3502 1.383 . S
C3497 C3493 1.495 . S
C3497 H3503 0.959 . S
C3497 H3504 0.961 . S
C3497 H3505 0.960 . S
C3498 C3496 1.381 . S
C3498 C3499 1.394 . S
C3498 H3506 0.930 . S
C3499 C3498 1.394 . S
C3499 C3500 1.383 . S
C3499 H3507 0.929 . S
C3500 C3499 1.383 . S
C3500 C3501 1.377 . S
C3501 H3485 0.930 . S
C3501 C3500 1.377 . S
C3501 C3502 1.379 . S
C3502 H3486 0.931 . S
C3502 C3496 1.383 . S
C3502 C3501 1.379 . S
H3503 C3497 0.959 . S
H3504 C3497 0.961 . S
H3505 C3497 0.960 . S
H3506 C3498 0.930 . S
H3507 C3499 0.929 . S
H3508 C3516 0.929 . S
H3509 C3518 0.930 . S
H3510 C3520 0.930 . S
H3511 C3523 0.929 . S
H3512 C3526 0.930 . S
H3513 C3528 0.960 . S
H3514 C3528 0.960 . S
H3515 C3528 0.960 . S
C3516 H3508 0.929 . S
C3516 C3517 1.377 . S
C3516 C3518 1.384 . S
C3517 C3516 1.377 . S
C3517 C3523 1.390 . S
C3518 H3509 0.930 . S
C3518 C3516 1.384 . S
C3518 C3519 1.372 . S
C3519 C3518 1.372 . S
C3519 C3520 1.400 . S
C3519 C3524 1.490 . S
C3520 H3510 0.930 . S
C3520 C3519 1.400 . S
C3520 C3523 1.386 . S
H3521 C3537 0.930 . S
H3522 C3538 0.931 . S
C3523 H3511 0.929 . S
C3523 C3517 1.390 . S
C3523 C3520 1.386 . S
C3524 C3519 1.490 . S
C3524 C3526 1.395 . S
C3524 C3527 1.403 . S
H3525 C3531 0.930 . S
C3526 H3512 0.930 . S
C3526 C3524 1.395 . S
C3526 C3529 1.403 . S
C3527 C3524 1.403 . S
C3527 C3528 1.524 . S
C3527 C3531 1.400 . S
C3528 H3513 0.960 . S
C3528 H3514 0.960 . S
C3528 H3515 0.960 . S
C3528 C3527 1.524 . S
C3529 C3526 1.403 . S
C3529 C3530 1.392 . S
C3529 C3533 1.495 . S
C3530 C3529 1.392 . S
C3530 C3531 1.385 . S
C3530 C3532 1.478 . S
C3531 H3525 0.930 . S
C3531 C3527 1.400 . S
C3531 C3530 1.385 . S
C3532 C3530 1.478 . S
C3532 C3534 1.381 . S
C3532 C3538 1.383 . S
C3533 C3529 1.495 . S
C3533 H3539 0.959 . S
C3533 H3540 0.961 . S
C3533 H3541 0.960 . S
C3534 C3532 1.381 . S
C3534 C3535 1.394 . S
C3534 H3542 0.930 . S
C3535 C3534 1.394 . S
C3535 C3536 1.383 . S
C3535 H3543 0.929 . S
C3536 C3535 1.383 . S
C3536 C3537 1.377 . S
C3537 H3521 0.930 . S
C3537 C3536 1.377 . S
C3537 C3538 1.379 . S
C3538 H3522 0.931 . S
C3538 C3532 1.383 . S
C3538 C3537 1.379 . S
H3539 C3533 0.959 . S
H3540 C3533 0.961 . S
H3541 C3533 0.960 . S
H3542 C3534 0.930 . S
H3543 C3535 0.929 . S
H3544 C3552 0.929 . S
H3545 C3554 0.930 . S
H3546 C3556 0.930 . S
H3547 C3559 0.929 . S
H3548 C3562 0.930 . S
H3549 C3564 0.960 . S
H3550 C3564 0.960 . S
H3551 C3564 0.960 . S
C3552 H3544 0.929 . S
C3552 C3553 1.354 1_655 S
C3552 C3554 1.384 . S
C3553 C3552 1.354 1_455 S
C3553 C3559 1.412 . S
C3554 H3545 0.930 . S
C3554 C3552 1.384 . S
C3554 C3555 1.396 . S
C3555 C3554 1.396 . S
C3555 C3556 1.375 1_655 S
C3555 C3560 1.491 . S
C3556 H3546 0.930 . S
C3556 C3555 1.375 1_455 S
C3556 C3559 1.386 . S
H3557 C3573 0.894 1_554 S
H3558 C3574 0.931 . S
C3559 H3547 0.929 . S
C3559 C3553 1.412 . S
C3559 C3556 1.386 . S
C3560 C3555 1.491 . S
C3560 C3562 1.395 1_655 S
C3560 C3563 1.403 . S
H3561 C3567 0.930 . S
C3562 H3548 0.930 . S
C3562 C3560 1.395 1_455 S
C3562 C3565 1.403 . S
C3563 C3560 1.403 . S
C3563 C3564 1.524 . S
C3563 C3567 1.400 . S
C3564 H3549 0.960 . S
C3564 H3550 0.960 . S
C3564 H3551 0.960 . S
C3564 C3563 1.524 . S
C3565 C3562 1.403 . S
C3565 C3566 1.382 1_455 S
C3565 C3569 1.495 . S
C3566 C3565 1.382 1_655 S
C3566 C3567 1.396 . S
C3566 C3568 1.478 . S
C3567 H3561 0.930 . S
C3567 C3563 1.400 . S
C3567 C3566 1.396 . S
C3568 C3566 1.478 . S
C3568 C3570 1.401 . S
C3568 C3574 1.365 1_655 S
C3569 C3565 1.495 . S
C3569 H3575 0.959 . S
C3569 H3576 0.961 . S
C3569 H3577 0.960 . S
C3570 C3568 1.401 . S
C3570 C3571 1.394 . S
C3570 H3578 0.930 . S
C3571 C3570 1.394 . S
C3571 C3572 1.383 . S
C3571 H3579 0.929 . S
C3572 C3571 1.383 . S
C3572 C3573 1.377 1_655 S
C3573 H3557 0.894 1_556 S
C3573 C3572 1.377 1_455 S
C3573 C3574 1.379 . S
C3574 H3558 0.931 . S
C3574 C3568 1.365 1_455 S
C3574 C3573 1.379 . S
H3575 C3569 0.959 . S
H3576 C3569 0.961 . S
H3577 C3569 0.960 . S
H3578 C3570 0.930 . S
H3579 C3571 0.929 . S
H3580 C3588 0.929 . S
H3581 C3590 0.930 . S
H3582 C3592 0.930 . S
H3583 C3595 0.929 . S
H3584 C3598 0.930 . S
H3585 C3600 0.960 . S
H3586 C3600 0.960 . S
H3587 C3600 0.960 . S
C3588 H3580 0.929 . S
C3588 C3589 1.377 . S
C3588 C3590 1.384 . S
C3589 C3588 1.377 . S
C3589 C3595 1.390 . S
C3590 H3581 0.930 . S
C3590 C3588 1.384 . S
C3590 C3591 1.372 . S
C3591 C3590 1.372 . S
C3591 C3592 1.400 . S
C3591 C3596 1.490 . S
C3592 H3582 0.930 . S
C3592 C3591 1.400 . S
C3592 C3595 1.386 . S
H3593 C3609 0.930 . S
H3594 C3610 0.931 . S
C3595 H3583 0.929 . S
C3595 C3589 1.390 . S
C3595 C3592 1.386 . S
C3596 C3591 1.490 . S
C3596 C3598 1.395 . S
C3596 C3599 1.403 . S
H3597 C3603 0.930 . S
C3598 H3584 0.930 . S
C3598 C3596 1.395 . S
C3598 C3601 1.403 . S
C3599 C3596 1.403 . S
C3599 C3600 1.524 . S
C3599 C3603 1.400 . S
C3600 H3585 0.960 . S
C3600 H3586 0.960 . S
C3600 H3587 0.960 . S
C3600 C3599 1.524 . S
C3601 C3598 1.403 . S
C3601 C3602 1.392 . S
C3601 C3605 1.495 . S
C3602 C3601 1.392 . S
C3602 C3603 1.385 . S
C3602 C3604 1.478 . S
C3603 H3597 0.930 . S
C3603 C3599 1.400 . S
C3603 C3602 1.385 . S
C3604 C3602 1.478 . S
C3604 C3606 1.381 . S
C3604 C3610 1.383 . S
C3605 C3601 1.495 . S
C3605 H3611 0.959 . S
C3605 H3612 0.961 . S
C3605 H3613 0.960 . S
C3606 C3604 1.381 . S
C3606 C3607 1.394 . S
C3606 H3614 0.930 . S
C3607 C3606 1.394 . S
C3607 C3608 1.383 . S
C3607 H3615 0.929 . S
C3608 C3607 1.383 . S
C3608 C3609 1.377 . S
C3609 H3593 0.930 . S
C3609 C3608 1.377 . S
C3609 C3610 1.379 . S
C3610 H3594 0.931 . S
C3610 C3604 1.383 . S
C3610 C3609 1.379 . S
H3611 C3605 0.959 . S
H3612 C3605 0.961 . S
H3613 C3605 0.960 . S
H3614 C3606 0.930 . S
H3615 C3607 0.929 . S
H3616 C3624 0.929 . S
H3617 C3626 0.930 . S
H3618 C3628 0.930 . S
H3619 C3631 0.929 . S
H3620 C3634 0.930 . S
H3621 C3636 0.960 . S
H3622 C3636 0.960 . S
H3623 C3636 0.960 . S
C3624 H3616 0.929 . S
C3624 C3625 1.377 . S
C3624 C3626 1.384 . S
C3625 C3624 1.377 . S
C3625 C3631 1.390 . S
C3626 H3617 0.930 . S
C3626 C3624 1.384 . S
C3626 C3627 1.372 . S
C3627 C3626 1.372 . S
C3627 C3628 1.400 . S
C3627 C3632 1.490 . S
C3628 H3618 0.930 . S
C3628 C3627 1.400 . S
C3628 C3631 1.386 . S
H3629 C3645 0.930 . S
H3630 C3646 0.931 . S
C3631 H3619 0.929 . S
C3631 C3625 1.390 . S
C3631 C3628 1.386 . S
C3632 C3627 1.490 . S
C3632 C3634 1.395 . S
C3632 C3635 1.403 . S
H3633 C3639 0.930 . S
C3634 H3620 0.930 . S
C3634 C3632 1.395 . S
C3634 C3637 1.403 . S
C3635 C3632 1.403 . S
C3635 C3636 1.524 . S
C3635 C3639 1.400 . S
C3636 H3621 0.960 . S
C3636 H3622 0.960 . S
C3636 H3623 0.960 . S
C3636 C3635 1.524 . S
C3637 C3634 1.403 . S
C3637 C3638 1.392 . S
C3637 C3641 1.495 . S
C3638 C3637 1.392 . S
C3638 C3639 1.385 . S
C3638 C3640 1.478 . S
C3639 H3633 0.930 . S
C3639 C3635 1.400 . S
C3639 C3638 1.385 . S
C3640 C3638 1.478 . S
C3640 C3642 1.381 . S
C3640 C3646 1.383 . S
C3641 C3637 1.495 . S
C3641 H3647 0.959 . S
C3641 H3648 0.961 . S
C3641 H3649 0.960 . S
C3642 C3640 1.381 . S
C3642 C3643 1.394 . S
C3642 H3650 0.930 . S
C3643 C3642 1.394 . S
C3643 C3644 1.383 . S
C3643 H3651 0.929 . S
C3644 C3643 1.383 . S
C3644 C3645 1.377 . S
C3645 H3629 0.930 . S
C3645 C3644 1.377 . S
C3645 C3646 1.379 . S
C3646 H3630 0.931 . S
C3646 C3640 1.383 . S
C3646 C3645 1.379 . S
H3647 C3641 0.959 . S
H3648 C3641 0.961 . S
H3649 C3641 0.960 . S
H3650 C3642 0.930 . S
H3651 C3643 0.929 . S
H3652 C3660 0.929 . S
H3653 C3662 0.930 . S
H3654 C3664 0.930 . S
H3655 C3667 0.929 . S
H3656 C3670 0.930 . S
H3657 C3672 0.960 . S
H3658 C3672 0.960 . S
H3659 C3672 0.960 . S
C3660 H3652 0.929 . S
C3660 C3661 1.377 . S
C3660 C3662 1.384 . S
C3661 C3660 1.377 . S
C3661 C3667 1.390 . S
C3662 H3653 0.930 . S
C3662 C3660 1.384 . S
C3662 C3663 1.372 . S
C3663 C3662 1.372 . S
C3663 C3664 1.400 . S
C3663 C3668 1.490 . S
C3664 H3654 0.930 . S
C3664 C3663 1.400 . S
C3664 C3667 1.386 . S
H3665 C3681 0.930 . S
H3666 C3682 0.931 . S
C3667 H3655 0.929 . S
C3667 C3661 1.390 . S
C3667 C3664 1.386 . S
C3668 C3663 1.490 . S
C3668 C3670 1.395 . S
C3668 C3671 1.403 . S
H3669 C3675 0.930 . S
C3670 H3656 0.930 . S
C3670 C3668 1.395 . S
C3670 C3673 1.403 . S
C3671 C3668 1.403 . S
C3671 C3672 1.524 . S
C3671 C3675 1.400 . S
C3672 H3657 0.960 . S
C3672 H3658 0.960 . S
C3672 H3659 0.960 . S
C3672 C3671 1.524 . S
C3673 C3670 1.403 . S
C3673 C3674 1.392 . S
C3673 C3677 1.495 . S
C3674 C3673 1.392 . S
C3674 C3675 1.385 . S
C3674 C3676 1.478 . S
C3675 H3669 0.930 . S
C3675 C3671 1.400 . S
C3675 C3674 1.385 . S
C3676 C3674 1.478 . S
C3676 C3678 1.381 . S
C3676 C3682 1.383 . S
C3677 C3673 1.495 . S
C3677 H3683 0.959 . S
C3677 H3684 0.961 . S
C3677 H3685 0.960 . S
C3678 C3676 1.381 . S
C3678 C3679 1.394 . S
C3678 H3686 0.930 . S
C3679 C3678 1.394 . S
C3679 C3680 1.383 . S
C3679 H3687 0.929 . S
C3680 C3679 1.383 . S
C3680 C3681 1.377 . S
C3681 H3665 0.930 . S
C3681 C3680 1.377 . S
C3681 C3682 1.379 . S
C3682 H3666 0.931 . S
C3682 C3676 1.383 . S
C3682 C3681 1.379 . S
H3683 C3677 0.959 . S
H3684 C3677 0.961 . S
H3685 C3677 0.960 . S
H3686 C3678 0.930 . S
H3687 C3679 0.929 . S
H3688 C3696 0.929 . S
H3689 C3698 0.930 . S
H3690 C3700 0.930 . S
H3691 C3703 0.929 . S
H3692 C3706 0.930 1_655 S
H3693 C3708 0.960 . S
H3694 C3708 0.960 . S
H3695 C3708 0.960 . S
C3696 H3688 0.929 . S
C3696 C3697 1.377 . S
C3696 C3698 1.384 . S
C3697 C3696 1.377 . S
C3697 C3703 1.390 . S
C3698 H3689 0.930 . S
C3698 C3696 1.384 . S
C3698 C3699 1.372 . S
C3699 C3698 1.372 . S
C3699 C3700 1.400 . S
C3699 C3704 1.490 . S
C3700 H3690 0.930 . S
C3700 C3699 1.400 . S
C3700 C3703 1.386 . S
H3701 C3717 0.930 . S
H3702 C3718 0.931 . S
C3703 H3691 0.929 . S
C3703 C3697 1.390 . S
C3703 C3700 1.386 . S
C3704 C3699 1.490 . S
C3704 C3706 1.395 . S
C3704 C3707 1.403 . S
H3705 C3711 0.930 . S
C3706 H3692 0.930 1_455 S
C3706 C3704 1.395 . S
C3706 C3709 1.403 . S
C3707 C3704 1.403 . S
C3707 C3708 1.524 . S
C3707 C3711 1.400 . S
C3708 H3693 0.960 . S
C3708 H3694 0.960 . S
C3708 H3695 0.960 . S
C3708 C3707 1.524 . S
C3709 C3706 1.403 . S
C3709 C3710 1.392 . S
C3709 C3713 1.495 1_455 S
C3710 C3709 1.392 . S
C3710 C3711 1.385 . S
C3710 C3712 1.478 . S
C3711 H3705 0.930 . S
C3711 C3707 1.400 . S
C3711 C3710 1.385 . S
C3712 C3710 1.478 . S
C3712 C3714 1.381 . S
C3712 C3718 1.383 . S
C3713 C3709 1.495 1_655 S
C3713 H3719 0.959 . S
C3713 H3720 0.961 . S
C3713 H3721 0.960 . S
C3714 C3712 1.381 . S
C3714 C3715 1.394 . S
C3714 H3722 0.930 . S
C3715 C3714 1.394 . S
C3715 C3716 1.383 . S
C3715 H3723 0.929 . S
C3716 C3715 1.383 . S
C3716 C3717 1.377 . S
C3717 H3701 0.930 . S
C3717 C3716 1.377 . S
C3717 C3718 1.379 . S
C3718 H3702 0.931 . S
C3718 C3712 1.383 . S
C3718 C3717 1.379 . S
H3719 C3713 0.959 . S
H3720 C3713 0.961 . S
H3721 C3713 0.960 . S
H3722 C3714 0.930 . S
H3723 C3715 0.929 . S
H3724 C3732 0.929 . S
H3725 C3734 0.930 . S
H3726 C3736 0.930 . S
H3727 C3739 0.929 . S
H3728 C3742 0.930 . S
H3729 C3744 0.960 . S
H3730 C3744 0.960 . S
H3731 C3744 0.960 . S
C3732 H3724 0.929 . S
C3732 C3733 1.377 . S
C3732 C3734 1.384 . S
C3733 C3732 1.377 . S
C3733 C3739 1.390 . S
C3734 H3725 0.930 . S
C3734 C3732 1.384 . S
C3734 C3735 1.372 . S
C3735 C3734 1.372 . S
C3735 C3736 1.400 . S
C3735 C3740 1.490 . S
C3736 H3726 0.930 . S
C3736 C3735 1.400 . S
C3736 C3739 1.386 . S
H3737 C3753 0.930 . S
H3738 C3754 0.931 . S
C3739 H3727 0.929 . S
C3739 C3733 1.390 . S
C3739 C3736 1.386 . S
C3740 C3735 1.490 . S
C3740 C3742 1.395 . S
C3740 C3743 1.403 . S
H3741 C3747 0.930 . S
C3742 H3728 0.930 . S
C3742 C3740 1.395 . S
C3742 C3745 1.403 . S
C3743 C3740 1.403 . S
C3743 C3744 1.524 . S
C3743 C3747 1.400 . S
C3744 H3729 0.960 . S
C3744 H3730 0.960 . S
C3744 H3731 0.960 . S
C3744 C3743 1.524 . S
C3745 C3742 1.403 . S
C3745 C3746 1.392 . S
C3745 C3749 1.495 . S
C3746 C3745 1.392 . S
C3746 C3747 1.385 . S
C3746 C3748 1.478 . S
C3747 H3741 0.930 . S
C3747 C3743 1.400 . S
C3747 C3746 1.385 . S
C3748 C3746 1.478 . S
C3748 C3750 1.381 . S
C3748 C3754 1.383 . S
C3749 C3745 1.495 . S
C3749 H3755 0.959 . S
C3749 H3756 0.961 . S
C3749 H3757 0.960 . S
C3750 C3748 1.381 . S
C3750 C3751 1.394 . S
C3750 H3758 0.930 . S
C3751 C3750 1.394 . S
C3751 C3752 1.383 . S
C3751 H3759 0.929 . S
C3752 C3751 1.383 . S
C3752 C3753 1.377 . S
C3753 H3737 0.930 . S
C3753 C3752 1.377 . S
C3753 C3754 1.379 . S
C3754 H3738 0.931 . S
C3754 C3748 1.383 . S
C3754 C3753 1.379 . S
H3755 C3749 0.959 . S
H3756 C3749 0.961 . S
H3757 C3749 0.960 . S
H3758 C3750 0.930 . S
H3759 C3751 0.929 . S
H3760 C3768 0.929 . S
H3761 C3770 0.930 . S
H3762 C3772 0.930 . S
H3763 C3775 0.929 . S
H3764 C3778 0.930 . S
H3765 C3780 0.960 . S
H3766 C3780 0.960 . S
H3767 C3780 0.960 . S
C3768 H3760 0.929 . S
C3768 C3769 1.377 . S
C3768 C3770 1.384 . S
C3769 C3768 1.377 . S
C3769 C3775 1.390 . S
C3770 H3761 0.930 . S
C3770 C3768 1.384 . S
C3770 C3771 1.372 . S
C3771 C3770 1.372 . S
C3771 C3772 1.400 . S
C3771 C3776 1.490 . S
C3772 H3762 0.930 . S
C3772 C3771 1.400 . S
C3772 C3775 1.386 . S
H3773 C3789 0.930 . S
H3774 C3790 0.931 . S
C3775 H3763 0.929 . S
C3775 C3769 1.390 . S
C3775 C3772 1.386 . S
C3776 C3771 1.490 . S
C3776 C3778 1.395 . S
C3776 C3779 1.403 . S
H3777 C3783 0.930 . S
C3778 H3764 0.930 . S
C3778 C3776 1.395 . S
C3778 C3781 1.403 . S
C3779 C3776 1.403 . S
C3779 C3780 1.524 . S
C3779 C3783 1.400 . S
C3780 H3765 0.960 . S
C3780 H3766 0.960 . S
C3780 H3767 0.960 . S
C3780 C3779 1.524 . S
C3781 C3778 1.403 . S
C3781 C3782 1.392 . S
C3781 C3785 1.495 . S
C3782 C3781 1.392 . S
C3782 C3783 1.385 . S
C3782 C3784 1.478 . S
C3783 H3777 0.930 . S
C3783 C3779 1.400 . S
C3783 C3782 1.385 . S
C3784 C3782 1.478 . S
C3784 C3786 1.381 . S
C3784 C3790 1.383 . S
C3785 C3781 1.495 . S
C3785 H3791 0.959 . S
C3785 H3792 0.961 . S
C3785 H3793 0.960 . S
C3786 C3784 1.381 . S
C3786 C3787 1.394 . S
C3786 H3794 0.930 . S
C3787 C3786 1.394 . S
C3787 C3788 1.383 . S
C3787 H3795 0.929 . S
C3788 C3787 1.383 . S
C3788 C3789 1.377 . S
C3789 H3773 0.930 . S
C3789 C3788 1.377 . S
C3789 C3790 1.379 . S
C3790 H3774 0.931 . S
C3790 C3784 1.383 . S
C3790 C3789 1.379 . S
H3791 C3785 0.959 . S
H3792 C3785 0.961 . S
H3793 C3785 0.960 . S
H3794 C3786 0.930 . S
H3795 C3787 0.929 . S
H3796 C3804 0.929 . S
H3797 C3806 0.930 . S
H3798 C3808 0.930 . S
H3799 C3811 0.929 . S
H3800 C3814 0.930 . S
H3801 C3816 0.960 . S
H3802 C3816 0.960 . S
H3803 C3816 0.960 . S
C3804 H3796 0.929 . S
C3804 C3805 1.377 . S
C3804 C3806 1.384 . S
C3805 C3804 1.377 . S
C3805 C3811 1.390 . S
C3806 H3797 0.930 . S
C3806 C3804 1.384 . S
C3806 C3807 1.372 . S
C3807 C3806 1.372 . S
C3807 C3808 1.400 . S
C3807 C3812 1.490 . S
C3808 H3798 0.930 . S
C3808 C3807 1.400 . S
C3808 C3811 1.386 . S
H3809 C3825 0.930 . S
H3810 C3826 0.931 . S
C3811 H3799 0.929 . S
C3811 C3805 1.390 . S
C3811 C3808 1.386 . S
C3812 C3807 1.490 . S
C3812 C3814 1.395 . S
C3812 C3815 1.403 . S
H3813 C3819 0.930 . S
C3814 H3800 0.930 . S
C3814 C3812 1.395 . S
C3814 C3817 1.403 . S
C3815 C3812 1.403 . S
C3815 C3816 1.524 . S
C3815 C3819 1.400 . S
C3816 H3801 0.960 . S
C3816 H3802 0.960 . S
C3816 H3803 0.960 . S
C3816 C3815 1.524 . S
C3817 C3814 1.403 . S
C3817 C3818 1.392 . S
C3817 C3821 1.495 . S
C3818 C3817 1.392 . S
C3818 C3819 1.385 . S
C3818 C3820 1.478 . S
C3819 H3813 0.930 . S
C3819 C3815 1.400 . S
C3819 C3818 1.385 . S
C3820 C3818 1.478 . S
C3820 C3822 1.381 . S
C3820 C3826 1.383 . S
C3821 C3817 1.495 . S
C3821 H3827 0.959 . S
C3821 H3828 0.961 . S
C3821 H3829 0.960 . S
C3822 C3820 1.381 . S
C3822 C3823 1.394 . S
C3822 H3830 0.930 . S
C3823 C3822 1.394 . S
C3823 C3824 1.383 . S
C3823 H3831 0.929 . S
C3824 C3823 1.383 . S
C3824 C3825 1.377 . S
C3825 H3809 0.930 . S
C3825 C3824 1.377 . S
C3825 C3826 1.379 . S
C3826 H3810 0.931 . S
C3826 C3820 1.383 . S
C3826 C3825 1.379 . S
H3827 C3821 0.959 . S
H3828 C3821 0.961 . S
H3829 C3821 0.960 . S
H3830 C3822 0.930 . S
H3831 C3823 0.929 . S
H3832 C3840 0.929 . S
H3833 C3842 0.930 . S
H3834 C3844 0.930 . S
H3835 C3847 0.929 . S
H3836 C3850 0.930 . S
H3837 C3852 0.960 . S
H3838 C3852 0.960 . S
H3839 C3852 0.960 . S
C3840 H3832 0.929 . S
C3840 C3841 1.377 . S
C3840 C3842 1.384 . S
C3841 C3840 1.377 . S
C3841 C3847 1.390 . S
C3842 H3833 0.930 . S
C3842 C3840 1.384 . S
C3842 C3843 1.372 . S
C3843 C3842 1.372 . S
C3843 C3844 1.400 . S
C3843 C3848 1.490 . S
C3844 H3834 0.930 . S
C3844 C3843 1.400 . S
C3844 C3847 1.386 . S
H3845 C3861 0.930 . S
H3846 C3862 0.931 . S
C3847 H3835 0.929 . S
C3847 C3841 1.390 . S
C3847 C3844 1.386 . S
C3848 C3843 1.490 . S
C3848 C3850 1.395 . S
C3848 C3851 1.403 . S
H3849 C3855 0.930 . S
C3850 H3836 0.930 . S
C3850 C3848 1.395 . S
C3850 C3853 1.403 . S
C3851 C3848 1.403 . S
C3851 C3852 1.524 . S
C3851 C3855 1.400 . S
C3852 H3837 0.960 . S
C3852 H3838 0.960 . S
C3852 H3839 0.960 . S
C3852 C3851 1.524 . S
C3853 C3850 1.403 . S
C3853 C3854 1.392 . S
C3853 C3857 1.495 . S
C3854 C3853 1.392 . S
C3854 C3855 1.385 . S
C3854 C3856 1.478 . S
C3855 H3849 0.930 . S
C3855 C3851 1.400 . S
C3855 C3854 1.385 . S
C3856 C3854 1.478 . S
C3856 C3858 1.381 . S
C3856 C3862 1.383 . S
C3857 C3853 1.495 . S
C3857 H3863 0.959 . S
C3857 H3864 0.961 . S
C3857 H3865 0.960 . S
C3858 C3856 1.381 . S
C3858 C3859 1.394 . S
C3858 H3866 0.930 . S
C3859 C3858 1.394 . S
C3859 C3860 1.383 . S
C3859 H3867 0.929 . S
C3860 C3859 1.383 . S
C3860 C3861 1.377 . S
C3861 H3845 0.930 . S
C3861 C3860 1.377 . S
C3861 C3862 1.379 . S
C3862 H3846 0.931 . S
C3862 C3856 1.383 . S
C3862 C3861 1.379 . S
H3863 C3857 0.959 . S
H3864 C3857 0.961 . S
H3865 C3857 0.960 . S
H3866 C3858 0.930 . S
H3867 C3859 0.929 . S
H3868 C3876 0.929 . S
H3869 C3878 0.930 . S
H3870 C3880 0.930 . S
H3871 C3883 0.929 . S
H3872 C3886 0.930 . S
H3873 C3888 0.960 . S
H3874 C3888 0.960 . S
H3875 C3888 0.960 . S
C3876 H3868 0.929 . S
C3876 C3877 1.377 . S
C3876 C3878 1.384 . S
C3877 C3876 1.377 . S
C3877 C3883 1.390 . S
C3878 H3869 0.930 . S
C3878 C3876 1.384 . S
C3878 C3879 1.372 . S
C3879 C3878 1.372 . S
C3879 C3880 1.400 . S
C3879 C3884 1.490 . S
C3880 H3870 0.930 . S
C3880 C3879 1.400 . S
C3880 C3883 1.386 . S
H3881 C3897 0.930 . S
H3882 C3898 0.931 . S
C3883 H3871 0.929 . S
C3883 C3877 1.390 . S
C3883 C3880 1.386 . S
C3884 C3879 1.490 . S
C3884 C3886 1.395 . S
C3884 C3887 1.403 . S
H3885 C3891 0.930 . S
C3886 H3872 0.930 . S
C3886 C3884 1.395 . S
C3886 C3889 1.403 . S
C3887 C3884 1.403 . S
C3887 C3888 1.524 . S
C3887 C3891 1.400 . S
C3888 H3873 0.960 . S
C3888 H3874 0.960 . S
C3888 H3875 0.960 . S
C3888 C3887 1.524 . S
C3889 C3886 1.403 . S
C3889 C3890 1.392 . S
C3889 C3893 1.495 . S
C3890 C3889 1.392 . S
C3890 C3891 1.385 . S
C3890 C3892 1.478 . S
C3891 H3885 0.930 . S
C3891 C3887 1.400 . S
C3891 C3890 1.385 . S
C3892 C3890 1.478 . S
C3892 C3894 1.381 . S
C3892 C3898 1.383 . S
C3893 C3889 1.495 . S
C3893 H3899 0.959 . S
C3893 H3900 0.961 . S
C3893 H3901 0.960 . S
C3894 C3892 1.381 . S
C3894 C3895 1.394 . S
C3894 H3902 0.930 . S
C3895 C3894 1.394 . S
C3895 C3896 1.383 . S
C3895 H3903 0.929 . S
C3896 C3895 1.383 . S
C3896 C3897 1.377 . S
C3897 H3881 0.930 . S
C3897 C3896 1.377 . S
C3897 C3898 1.379 . S
C3898 H3882 0.931 . S
C3898 C3892 1.383 . S
C3898 C3897 1.379 . S
H3899 C3893 0.959 . S
H3900 C3893 0.961 . S
H3901 C3893 0.960 . S
H3902 C3894 0.930 . S
H3903 C3895 0.929 . S
H3904 C3912 0.929 . S
H3905 C3914 0.930 . S
H3906 C3916 0.930 . S
H3907 C3919 0.929 . S
H3908 C3922 0.930 . S
H3909 C3924 0.960 . S
H3910 C3924 0.960 . S
H3911 C3924 0.960 . S
C3912 H3904 0.929 . S
C3912 C3913 1.377 . S
C3912 C3914 1.384 . S
C3913 C3912 1.377 . S
C3913 C3919 1.390 . S
C3914 H3905 0.930 . S
C3914 C3912 1.384 . S
C3914 C3915 1.372 . S
C3915 C3914 1.372 . S
C3915 C3916 1.400 . S
C3915 C3920 1.490 . S
C3916 H3906 0.930 . S
C3916 C3915 1.400 . S
C3916 C3919 1.386 . S
H3917 C3933 0.930 . S
H3918 C3934 0.931 . S
C3919 H3907 0.929 . S
C3919 C3913 1.390 . S
C3919 C3916 1.386 . S
C3920 C3915 1.490 . S
C3920 C3922 1.395 . S
C3920 C3923 1.403 . S
H3921 C3927 0.930 . S
C3922 H3908 0.930 . S
C3922 C3920 1.395 . S
C3922 C3925 1.403 . S
C3923 C3920 1.403 . S
C3923 C3924 1.524 . S
C3923 C3927 1.400 . S
C3924 H3909 0.960 . S
C3924 H3910 0.960 . S
C3924 H3911 0.960 . S
C3924 C3923 1.524 . S
C3925 C3922 1.403 . S
C3925 C3926 1.392 . S
C3925 C3929 1.495 . S
C3926 C3925 1.392 . S
C3926 C3927 1.385 . S
C3926 C3928 1.478 . S
C3927 H3921 0.930 . S
C3927 C3923 1.400 . S
C3927 C3926 1.385 . S
C3928 C3926 1.478 . S
C3928 C3930 1.381 . S
C3928 C3934 1.383 . S
C3929 C3925 1.495 . S
C3929 H3935 0.959 . S
C3929 H3936 0.961 . S
C3929 H3937 0.960 . S
C3930 C3928 1.381 . S
C3930 C3931 1.394 . S
C3930 H3938 0.930 . S
C3931 C3930 1.394 . S
C3931 C3932 1.383 . S
C3931 H3939 0.929 . S
C3932 C3931 1.383 . S
C3932 C3933 1.377 . S
C3933 H3917 0.930 . S
C3933 C3932 1.377 . S
C3933 C3934 1.379 . S
C3934 H3918 0.931 . S
C3934 C3928 1.383 . S
C3934 C3933 1.379 . S
H3935 C3929 0.959 . S
H3936 C3929 0.961 . S
H3937 C3929 0.960 . S
H3938 C3930 0.930 . S
H3939 C3931 0.929 . S
H3940 C3948 0.929 . S
H3941 C3950 0.930 . S
H3942 C3952 0.930 . S
H3943 C3955 0.929 . S
H3944 C3958 0.930 . S
H3945 C3960 0.960 . S
H3946 C3960 0.960 . S
H3947 C3960 0.960 . S
C3948 H3940 0.929 . S
C3948 C3949 1.377 . S
C3948 C3950 1.384 . S
C3949 C3948 1.377 . S
C3949 C3955 1.390 . S
C3950 H3941 0.930 . S
C3950 C3948 1.384 . S
C3950 C3951 1.372 . S
C3951 C3950 1.372 . S
C3951 C3952 1.400 . S
C3951 C3956 1.490 . S
C3952 H3942 0.930 . S
C3952 C3951 1.400 . S
C3952 C3955 1.386 . S
H3953 C3969 0.930 . S
H3954 C3970 0.931 . S
C3955 H3943 0.929 . S
C3955 C3949 1.390 . S
C3955 C3952 1.386 . S
C3956 C3951 1.490 . S
C3956 C3958 1.395 . S
C3956 C3959 1.403 . S
H3957 C3963 0.930 . S
C3958 H3944 0.930 . S
C3958 C3956 1.395 . S
C3958 C3961 1.403 . S
C3959 C3956 1.403 . S
C3959 C3960 1.524 . S
C3959 C3963 1.400 . S
C3960 H3945 0.960 . S
C3960 H3946 0.960 . S
C3960 H3947 0.960 . S
C3960 C3959 1.524 . S
C3961 C3958 1.403 . S
C3961 C3962 1.392 . S
C3961 C3965 1.495 . S
C3962 C3961 1.392 . S
C3962 C3963 1.385 . S
C3962 C3964 1.478 . S
C3963 H3957 0.930 . S
C3963 C3959 1.400 . S
C3963 C3962 1.385 . S
C3964 C3962 1.478 . S
C3964 C3966 1.381 . S
C3964 C3970 1.383 . S
C3965 C3961 1.495 . S
C3965 H3971 0.959 . S
C3965 H3972 0.961 . S
C3965 H3973 0.960 . S
C3966 C3964 1.381 . S
C3966 C3967 1.394 . S
C3966 H3974 0.930 . S
C3967 C3966 1.394 . S
C3967 C3968 1.383 . S
C3967 H3975 0.929 . S
C3968 C3967 1.383 . S
C3968 C3969 1.377 . S
C3969 H3953 0.930 . S
C3969 C3968 1.377 . S
C3969 C3970 1.379 . S
C3970 H3954 0.931 . S
C3970 C3964 1.383 . S
C3970 C3969 1.379 . S
H3971 C3965 0.959 . S
H3972 C3965 0.961 . S
H3973 C3965 0.960 . S
H3974 C3966 0.930 . S
H3975 C3967 0.929 . S
H3976 C3984 0.929 . S
H3977 C3986 0.930 . S
H3978 C3988 0.930 . S
H3979 C3991 0.929 . S
H3980 C3994 0.930 . S
H3981 C3996 0.960 . S
H3982 C3996 0.960 . S
H3983 C3996 0.960 . S
C3984 H3976 0.929 . S
C3984 C3985 1.377 . S
C3984 C3986 1.384 . S
C3985 C3984 1.377 . S
C3985 C3991 1.390 . S
C3986 H3977 0.930 . S
C3986 C3984 1.384 . S
C3986 C3987 1.372 . S
C3987 C3986 1.372 . S
C3987 C3988 1.400 . S
C3987 C3992 1.490 . S
C3988 H3978 0.930 . S
C3988 C3987 1.400 . S
C3988 C3991 1.386 . S
H3989 C4005 0.930 . S
H3990 C4006 0.931 . S
C3991 H3979 0.929 . S
C3991 C3985 1.390 . S
C3991 C3988 1.386 . S
C3992 C3987 1.490 . S
C3992 C3994 1.395 . S
C3992 C3995 1.403 . S
H3993 C3999 0.930 . S
C3994 H3980 0.930 . S
C3994 C3992 1.395 . S
C3994 C3997 1.403 . S
C3995 C3992 1.403 . S
C3995 C3996 1.524 . S
C3995 C3999 1.400 . S
C3996 H3981 0.960 . S
C3996 H3982 0.960 . S
C3996 H3983 0.960 . S
C3996 C3995 1.524 . S
C3997 C3994 1.403 . S
C3997 C3998 1.392 . S
C3997 C4001 1.495 . S
C3998 C3997 1.392 . S
C3998 C3999 1.385 . S
C3998 C4000 1.478 . S
C3999 H3993 0.930 . S
C3999 C3995 1.400 . S
C3999 C3998 1.385 . S
C4000 C3998 1.478 . S
C4000 C4002 1.381 . S
C4000 C4006 1.383 . S
C4001 C3997 1.495 . S
C4001 H4007 0.959 . S
C4001 H4008 0.961 . S
C4001 H4009 0.960 . S
C4002 C4000 1.381 . S
C4002 C4003 1.394 . S
C4002 H4010 0.930 . S
C4003 C4002 1.394 . S
C4003 C4004 1.383 . S
C4003 H4011 0.929 . S
C4004 C4003 1.383 . S
C4004 C4005 1.377 . S
C4005 H3989 0.930 . S
C4005 C4004 1.377 . S
C4005 C4006 1.379 . S
C4006 H3990 0.931 . S
C4006 C4000 1.383 . S
C4006 C4005 1.379 . S
H4007 C4001 0.959 . S
H4008 C4001 0.961 . S
H4009 C4001 0.960 . S
H4010 C4002 0.930 . S
H4011 C4003 0.929 . S
H4012 C4020 0.929 . S
H4013 C4022 0.930 . S
H4014 C4024 0.930 . S
H4015 C4027 0.929 . S
H4016 C4030 0.930 . S
H4017 C4032 0.960 . S
H4018 C4032 0.960 . S
H4019 C4032 0.960 . S
C4020 H4012 0.929 . S
C4020 C4021 1.377 . S
C4020 C4022 1.384 . S
C4021 C4020 1.377 . S
C4021 C4027 1.390 . S
C4022 H4013 0.930 . S
C4022 C4020 1.384 . S
C4022 C4023 1.372 . S
C4023 C4022 1.372 . S
C4023 C4024 1.400 . S
C4023 C4028 1.490 . S
C4024 H4014 0.930 . S
C4024 C4023 1.400 . S
C4024 C4027 1.386 . S
H4025 C4041 0.930 . S
H4026 C4042 0.931 . S
C4027 H4015 0.929 . S
C4027 C4021 1.390 . S
C4027 C4024 1.386 . S
C4028 C4023 1.490 . S
C4028 C4030 1.395 . S
C4028 C4031 1.403 . S
H4029 C4035 0.930 . S
C4030 H4016 0.930 . S
C4030 C4028 1.395 . S
C4030 C4033 1.403 . S
C4031 C4028 1.403 . S
C4031 C4032 1.524 . S
C4031 C4035 1.400 . S
C4032 H4017 0.960 . S
C4032 H4018 0.960 . S
C4032 H4019 0.960 . S
C4032 C4031 1.524 . S
C4033 C4030 1.403 . S
C4033 C4034 1.392 . S
C4033 C4037 1.495 . S
C4034 C4033 1.392 . S
C4034 C4035 1.385 . S
C4034 C4036 1.478 . S
C4035 H4029 0.930 . S
C4035 C4031 1.400 . S
C4035 C4034 1.385 . S
C4036 C4034 1.478 . S
C4036 C4038 1.381 . S
C4036 C4042 1.383 . S
C4037 C4033 1.495 . S
C4037 H4043 0.959 . S
C4037 H4044 0.961 . S
C4037 H4045 0.960 . S
C4038 C4036 1.381 . S
C4038 C4039 1.394 . S
C4038 H4046 0.930 . S
C4039 C4038 1.394 . S
C4039 C4040 1.383 . S
C4039 H4047 0.929 . S
C4040 C4039 1.383 . S
C4040 C4041 1.377 . S
C4041 H4025 0.930 . S
C4041 C4040 1.377 . S
C4041 C4042 1.379 . S
C4042 H4026 0.931 . S
C4042 C4036 1.383 . S
C4042 C4041 1.379 . S
H4043 C4037 0.959 . S
H4044 C4037 0.961 . S
H4045 C4037 0.960 . S
H4046 C4038 0.930 . S
H4047 C4039 0.929 . S
H4048 C4056 0.929 . S
H4049 C4058 0.930 . S
H4050 C4060 0.930 . S
H4051 C4063 0.929 . S
H4052 C4066 0.930 . S
H4053 C4068 0.960 . S
H4054 C4068 0.960 . S
H4055 C4068 0.960 . S
C4056 H4048 0.929 . S
C4056 C4057 1.377 . S
C4056 C4058 1.384 . S
C4057 C4056 1.377 . S
C4057 C4063 1.390 . S
C4058 H4049 0.930 . S
C4058 C4056 1.384 . S
C4058 C4059 1.372 . S
C4059 C4058 1.372 . S
C4059 C4060 1.400 . S
C4059 C4064 1.490 . S
C4060 H4050 0.930 . S
C4060 C4059 1.400 . S
C4060 C4063 1.386 . S
H4061 C4077 0.930 . S
H4062 C4078 0.931 . S
C4063 H4051 0.929 . S
C4063 C4057 1.390 . S
C4063 C4060 1.386 . S
C4064 C4059 1.490 . S
C4064 C4066 1.395 . S
C4064 C4067 1.403 . S
H4065 C4071 0.930 . S
C4066 H4052 0.930 . S
C4066 C4064 1.395 . S
C4066 C4069 1.403 . S
C4067 C4064 1.403 . S
C4067 C4068 1.524 . S
C4067 C4071 1.400 . S
C4068 H4053 0.960 . S
C4068 H4054 0.960 . S
C4068 H4055 0.960 . S
C4068 C4067 1.524 . S
C4069 C4066 1.403 . S
C4069 C4070 1.392 . S
C4069 C4073 1.495 . S
C4070 C4069 1.392 . S
C4070 C4071 1.385 . S
C4070 C4072 1.478 . S
C4071 H4065 0.930 . S
C4071 C4067 1.400 . S
C4071 C4070 1.385 . S
C4072 C4070 1.478 . S
C4072 C4074 1.381 . S
C4072 C4078 1.383 . S
C4073 C4069 1.495 . S
C4073 H4079 0.959 . S
C4073 H4080 0.961 . S
C4073 H4081 0.960 . S
C4074 C4072 1.381 . S
C4074 C4075 1.394 . S
C4074 H4082 0.930 . S
C4075 C4074 1.394 . S
C4075 C4076 1.383 . S
C4075 H4083 0.929 . S
C4076 C4075 1.383 . S
C4076 C4077 1.377 . S
C4077 H4061 0.930 . S
C4077 C4076 1.377 . S
C4077 C4078 1.379 . S
C4078 H4062 0.931 . S
C4078 C4072 1.383 . S
C4078 C4077 1.379 . S
H4079 C4073 0.959 . S
H4080 C4073 0.961 . S
H4081 C4073 0.960 . S
H4082 C4074 0.930 . S
H4083 C4075 0.929 . S
H4084 C4092 0.929 . S
H4085 C4094 0.930 . S
H4086 C4096 0.930 . S
H4087 C4099 0.929 . S
H4088 C4102 0.930 . S
H4089 C4104 0.960 . S
H4090 C4104 0.960 . S
H4091 C4104 0.960 . S
C4092 H4084 0.929 . S
C4092 C4093 1.377 . S
C4092 C4094 1.384 . S
C4093 C4092 1.377 . S
C4093 C4099 1.390 . S
C4094 H4085 0.930 . S
C4094 C4092 1.384 . S
C4094 C4095 1.372 . S
C4095 C4094 1.372 . S
C4095 C4096 1.400 . S
C4095 C4100 1.490 . S
C4096 H4086 0.930 . S
C4096 C4095 1.400 . S
C4096 C4099 1.386 . S
H4097 C4113 0.930 . S
H4098 C4114 0.931 . S
C4099 H4087 0.929 . S
C4099 C4093 1.390 . S
C4099 C4096 1.386 . S
C4100 C4095 1.490 . S
C4100 C4102 1.395 . S
C4100 C4103 1.403 . S
H4101 C4107 0.930 . S
C4102 H4088 0.930 . S
C4102 C4100 1.395 . S
C4102 C4105 1.403 . S
C4103 C4100 1.403 . S
C4103 C4104 1.524 . S
C4103 C4107 1.400 . S
C4104 H4089 0.960 . S
C4104 H4090 0.960 . S
C4104 H4091 0.960 . S
C4104 C4103 1.524 . S
C4105 C4102 1.403 . S
C4105 C4106 1.392 . S
C4105 C4109 1.495 . S
C4106 C4105 1.392 . S
C4106 C4107 1.385 . S
C4106 C4108 1.478 . S
C4107 H4101 0.930 . S
C4107 C4103 1.400 . S
C4107 C4106 1.385 . S
C4108 C4106 1.478 . S
C4108 C4110 1.381 . S
C4108 C4114 1.383 . S
C4109 C4105 1.495 . S
C4109 H4115 0.959 . S
C4109 H4116 0.961 . S
C4109 H4117 0.960 . S
C4110 C4108 1.381 . S
C4110 C4111 1.394 . S
C4110 H4118 0.930 . S
C4111 C4110 1.394 . S
C4111 C4112 1.383 . S
C4111 H4119 0.929 . S
C4112 C4111 1.383 . S
C4112 C4113 1.377 . S
C4113 H4097 0.930 . S
C4113 C4112 1.377 . S
C4113 C4114 1.379 . S
C4114 H4098 0.931 . S
C4114 C4108 1.383 . S
C4114 C4113 1.379 . S
H4115 C4109 0.959 . S
H4116 C4109 0.961 . S
H4117 C4109 0.960 . S
H4118 C4110 0.930 . S
H4119 C4111 0.929 . S
H4120 C4128 0.929 . S
H4121 C4130 0.930 . S
H4122 C4132 0.930 . S
H4123 C4135 0.929 . S
H4124 C4138 0.930 . S
H4125 C4140 0.960 . S
H4126 C4140 0.960 . S
H4127 C4140 0.960 . S
C4128 H4120 0.929 . S
C4128 C4129 1.377 . S
C4128 C4130 1.384 . S
C4129 C4128 1.377 . S
C4129 C4135 1.390 . S
C4130 H4121 0.930 . S
C4130 C4128 1.384 . S
C4130 C4131 1.372 . S
C4131 C4130 1.372 . S
C4131 C4132 1.400 . S
C4131 C4136 1.490 . S
C4132 H4122 0.930 . S
C4132 C4131 1.400 . S
C4132 C4135 1.386 . S
H4133 C4149 0.930 . S
H4134 C4150 0.931 . S
C4135 H4123 0.929 . S
C4135 C4129 1.390 . S
C4135 C4132 1.386 . S
C4136 C4131 1.490 . S
C4136 C4138 1.395 . S
C4136 C4139 1.403 . S
H4137 C4143 0.930 . S
C4138 H4124 0.930 . S
C4138 C4136 1.395 . S
C4138 C4141 1.403 . S
C4139 C4136 1.403 . S
C4139 C4140 1.524 . S
C4139 C4143 1.400 . S
C4140 H4125 0.960 . S
C4140 H4126 0.960 . S
C4140 H4127 0.960 . S
C4140 C4139 1.524 . S
C4141 C4138 1.403 . S
C4141 C4142 1.392 . S
C4141 C4145 1.495 . S
C4142 C4141 1.392 . S
C4142 C4143 1.385 . S
C4142 C4144 1.478 . S
C4143 H4137 0.930 . S
C4143 C4139 1.400 . S
C4143 C4142 1.385 . S
C4144 C4142 1.478 . S
C4144 C4146 1.381 . S
C4144 C4150 1.383 . S
C4145 C4141 1.495 . S
C4145 H4151 0.959 . S
C4145 H4152 0.961 . S
C4145 H4153 0.960 . S
C4146 C4144 1.381 . S
C4146 C4147 1.394 . S
C4146 H4154 0.930 . S
C4147 C4146 1.394 . S
C4147 C4148 1.383 . S
C4147 H4155 0.929 . S
C4148 C4147 1.383 . S
C4148 C4149 1.377 . S
C4149 H4133 0.930 . S
C4149 C4148 1.377 . S
C4149 C4150 1.379 . S
C4150 H4134 0.931 . S
C4150 C4144 1.383 . S
C4150 C4149 1.379 . S
H4151 C4145 0.959 . S
H4152 C4145 0.961 . S
H4153 C4145 0.960 . S
H4154 C4146 0.930 . S
H4155 C4147 0.929 . S
H4156 C4164 0.929 . S
H4157 C4166 0.930 . S
H4158 C4168 0.930 1_556 S
H4159 C4171 0.929 1_556 S
H4160 C4174 0.930 . S
H4161 C4176 0.960 . S
H4162 C4176 0.960 . S
H4163 C4176 0.960 . S
C4164 H4156 0.929 . S
C4164 C4165 1.377 . S
C4164 C4166 1.384 . S
C4165 C4164 1.377 . S
C4165 C4171 1.390 . S
C4166 H4157 0.930 . S
C4166 C4164 1.384 . S
C4166 C4167 1.372 . S
C4167 C4166 1.372 . S
C4167 C4168 1.400 . S
C4167 C4172 1.490 . S
C4168 H4158 0.930 1_554 S
C4168 C4167 1.400 . S
C4168 C4171 1.386 . S
H4169 C4185 0.930 . S
H4170 C4186 0.971 . S
C4171 H4159 0.929 1_554 S
C4171 C4165 1.390 . S
C4171 C4168 1.386 . S
C4172 C4167 1.490 . S
C4172 C4174 1.395 . S
C4172 C4175 1.403 . S
H4173 C4179 0.930 . S
C4174 H4160 0.930 . S
C4174 C4172 1.395 . S
C4174 C4177 1.403 . S
C4175 C4172 1.403 . S
C4175 C4176 1.524 . S
C4175 C4179 1.400 . S
C4176 H4161 0.960 . S
C4176 H4162 0.960 . S
C4176 H4163 0.960 . S
C4176 C4175 1.524 . S
C4177 C4174 1.403 . S
C4177 C4178 1.392 . S
C4177 C4181 1.552 . S
C4178 C4177 1.392 . S
C4178 C4179 1.385 . S
C4178 C4180 1.478 . S
C4179 H4173 0.930 . S
C4179 C4175 1.400 . S
C4179 C4178 1.385 . S
C4180 C4178 1.478 . S
C4180 C4182 1.381 . S
C4180 C4186 1.342 1_554 S
C4181 C4177 1.552 . S
C4181 H4187 0.945 1_565 S
C4181 H4188 0.946 1_565 S
C4181 H4189 0.937 1_565 S
C4182 C4180 1.381 . S
C4182 C4183 1.394 . S
C4182 H4190 0.930 . S
C4183 C4182 1.394 . S
C4183 C4184 1.383 . S
C4183 H4191 0.929 1_565 S
C4184 C4183 1.383 . S
C4184 C4185 1.377 1_554 S
C4185 H4169 0.930 . S
C4185 C4184 1.377 1_556 S
C4185 C4186 1.382 . S
C4186 H4170 0.971 . S
C4186 C4180 1.342 1_556 S
C4186 C4185 1.382 . S
H4187 C4181 0.945 1_545 S
H4188 C4181 0.946 1_545 S
H4189 C4181 0.937 1_545 S
H4190 C4182 0.930 . S
H4191 C4183 0.929 1_545 S
H4192 C4200 0.929 . S
H4193 C4202 0.930 . S
H4194 C4204 0.930 . S
H4195 C4207 0.929 . S
H4196 C4210 0.930 . S
H4197 C4212 0.960 . S
H4198 C4212 0.960 . S
H4199 C4212 0.960 . S
C4200 H4192 0.929 . S
C4200 C4201 1.377 . S
C4200 C4202 1.384 . S
C4201 C4200 1.377 . S
C4201 C4207 1.390 . S
C4202 H4193 0.930 . S
C4202 C4200 1.384 . S
C4202 C4203 1.372 . S
C4203 C4202 1.372 . S
C4203 C4204 1.400 . S
C4203 C4208 1.490 . S
C4204 H4194 0.930 . S
C4204 C4203 1.400 . S
C4204 C4207 1.386 . S
H4205 C4221 0.930 . S
H4206 C4222 0.931 . S
C4207 H4195 0.929 . S
C4207 C4201 1.390 . S
C4207 C4204 1.386 . S
C4208 C4203 1.490 . S
C4208 C4210 1.395 . S
C4208 C4211 1.403 . S
H4209 C4215 0.930 . S
C4210 H4196 0.930 . S
C4210 C4208 1.395 . S
C4210 C4213 1.403 . S
C4211 C4208 1.403 . S
C4211 C4212 1.524 . S
C4211 C4215 1.400 . S
C4212 H4197 0.960 . S
C4212 H4198 0.960 . S
C4212 H4199 0.960 . S
C4212 C4211 1.524 . S
C4213 C4210 1.403 . S
C4213 C4214 1.392 . S
C4213 C4217 1.495 . S
C4214 C4213 1.392 . S
C4214 C4215 1.385 . S
C4214 C4216 1.478 . S
C4215 H4209 0.930 . S
C4215 C4211 1.400 . S
C4215 C4214 1.385 . S
C4216 C4214 1.478 . S
C4216 C4218 1.381 . S
C4216 C4222 1.383 . S
C4217 C4213 1.495 . S
C4217 H4223 0.959 . S
C4217 H4224 0.961 . S
C4217 H4225 0.960 . S
C4218 C4216 1.381 . S
C4218 C4219 1.394 . S
C4218 H4226 0.930 . S
C4219 C4218 1.394 . S
C4219 C4220 1.383 . S
C4219 H4227 0.929 . S
C4220 C4219 1.383 . S
C4220 C4221 1.377 . S
C4221 H4205 0.930 . S
C4221 C4220 1.377 . S
C4221 C4222 1.379 . S
C4222 H4206 0.931 . S
C4222 C4216 1.383 . S
C4222 C4221 1.379 . S
H4223 C4217 0.959 . S
H4224 C4217 0.961 . S
H4225 C4217 0.960 . S
H4226 C4218 0.930 . S
H4227 C4219 0.929 . S
H4228 C4236 0.929 . S
H4229 C4238 0.930 . S
H4230 C4240 0.930 . S
H4231 C4243 0.929 . S
H4232 C4246 0.930 . S
H4233 C4248 0.960 . S
H4234 C4248 0.960 . S
H4235 C4248 0.934 1_554 S
C4236 H4228 0.929 . S
C4236 C4237 1.377 1_556 S
C4236 C4238 1.384 . S
C4237 C4236 1.377 1_554 S
C4237 C4243 1.390 . S
C4238 H4229 0.930 . S
C4238 C4236 1.384 . S
C4238 C4239 1.372 1_556 S
C4239 C4238 1.372 1_554 S
C4239 C4240 1.400 . S
C4239 C4244 1.490 . S
C4240 H4230 0.930 . S
C4240 C4239 1.400 . S
C4240 C4243 1.386 . S
H4241 C4257 0.930 . S
H4242 C4258 0.931 . S
C4243 H4231 0.929 . S
C4243 C4237 1.390 . S
C4243 C4240 1.386 . S
C4244 C4239 1.490 . S
C4244 C4246 1.395 . S
C4244 C4247 1.403 . S
H4245 C4251 0.930 . S
C4246 H4232 0.930 . S
C4246 C4244 1.395 . S
C4246 C4249 1.403 . S
C4247 C4244 1.403 . S
C4247 C4248 1.524 1_554 S
C4247 C4251 1.400 . S
C4248 H4233 0.960 . S
C4248 H4234 0.960 . S
C4248 H4235 0.934 1_556 S
C4248 C4247 1.524 1_556 S
C4249 C4246 1.403 . S
C4249 C4250 1.392 . S
C4249 C4253 1.495 . S
C4250 C4249 1.392 . S
C4250 C4251 1.385 . S
C4250 C4252 1.478 . S
C4251 H4245 0.930 . S
C4251 C4247 1.400 . S
C4251 C4250 1.385 . S
C4252 C4250 1.478 . S
C4252 C4254 1.381 . S
C4252 C4258 1.383 . S
C4253 C4249 1.495 . S
C4253 H4259 0.959 . S
C4253 H4260 0.961 . S
C4253 H4261 0.960 . S
C4254 C4252 1.381 . S
C4254 C4255 1.394 . S
C4254 H4262 0.930 . S
C4255 C4254 1.394 . S
C4255 C4256 1.383 . S
C4255 H4263 0.929 . S
C4256 C4255 1.383 . S
C4256 C4257 1.377 . S
C4257 H4241 0.930 . S
C4257 C4256 1.377 . S
C4257 C4258 1.379 . S
C4258 H4242 0.931 . S
C4258 C4252 1.383 . S
C4258 C4257 1.379 . S
H4259 C4253 0.959 . S
H4260 C4253 0.961 . S
H4261 C4253 0.960 . S
H4262 C4254 0.930 . S
H4263 C4255 0.929 . S
H4264 C4272 0.929 . S
H4265 C4274 0.930 . S
H4266 C4276 0.930 . S
H4267 C4279 0.929 . S
H4268 C4282 0.930 . S
H4269 C4284 0.960 . S
H4270 C4284 0.960 . S
H4271 C4284 0.960 . S
C4272 H4264 0.929 . S
C4272 C4273 1.377 . S
C4272 C4274 1.384 . S
C4273 C4272 1.377 . S
C4273 C4279 1.390 . S
C4274 H4265 0.930 . S
C4274 C4272 1.384 . S
C4274 C4275 1.372 . S
C4275 C4274 1.372 . S
C4275 C4276 1.400 . S
C4275 C4280 1.490 . S
C4276 H4266 0.930 . S
C4276 C4275 1.400 . S
C4276 C4279 1.386 . S
H4277 C4293 0.930 . S
H4278 C4294 0.931 . S
C4279 H4267 0.929 . S
C4279 C4273 1.390 . S
C4279 C4276 1.386 . S
C4280 C4275 1.490 . S
C4280 C4282 1.395 . S
C4280 C4283 1.403 . S
H4281 C4287 0.930 . S
C4282 H4268 0.930 . S
C4282 C4280 1.395 . S
C4282 C4285 1.403 . S
C4283 C4280 1.403 . S
C4283 C4284 1.524 . S
C4283 C4287 1.400 . S
C4284 H4269 0.960 . S
C4284 H4270 0.960 . S
C4284 H4271 0.960 . S
C4284 C4283 1.524 . S
C4285 C4282 1.403 . S
C4285 C4286 1.392 . S
C4285 C4289 1.495 . S
C4286 C4285 1.392 . S
C4286 C4287 1.385 . S
C4286 C4288 1.478 . S
C4287 H4281 0.930 . S
C4287 C4283 1.400 . S
C4287 C4286 1.385 . S
C4288 C4286 1.478 . S
C4288 C4290 1.381 . S
C4288 C4294 1.383 . S
C4289 C4285 1.495 . S
C4289 H4295 0.959 . S
C4289 H4296 0.961 . S
C4289 H4297 0.960 . S
C4290 C4288 1.381 . S
C4290 C4291 1.394 . S
C4290 H4298 0.930 . S
C4291 C4290 1.394 . S
C4291 C4292 1.383 . S
C4291 H4299 0.929 . S
C4292 C4291 1.383 . S
C4292 C4293 1.377 . S
C4293 H4277 0.930 . S
C4293 C4292 1.377 . S
C4293 C4294 1.379 . S
C4294 H4278 0.931 . S
C4294 C4288 1.383 . S
C4294 C4293 1.379 . S
H4295 C4289 0.959 . S
H4296 C4289 0.961 . S
H4297 C4289 0.960 . S
H4298 C4290 0.930 . S
H4299 C4291 0.929 . S
H4300 C4308 0.929 . S
H4301 C4310 0.930 . S
H4302 C4312 0.930 . S
H4303 C4315 0.929 . S
H4304 C4318 0.930 . S
H4305 C4320 0.960 . S
H4306 C4320 0.960 . S
H4307 C4320 0.960 . S
C4308 H4300 0.929 . S
C4308 C4309 1.377 . S
C4308 C4310 1.384 . S
C4309 C4308 1.377 . S
C4309 C4315 1.390 . S
C4310 H4301 0.930 . S
C4310 C4308 1.384 . S
C4310 C4311 1.372 . S
C4311 C4310 1.372 . S
C4311 C4312 1.400 . S
C4311 C4316 1.490 . S
C4312 H4302 0.930 . S
C4312 C4311 1.400 . S
C4312 C4315 1.386 . S
H4313 C4329 0.930 . S
H4314 C4330 0.931 . S
C4315 H4303 0.929 . S
C4315 C4309 1.390 . S
C4315 C4312 1.386 . S
C4316 C4311 1.490 . S
C4316 C4318 1.395 . S
C4316 C4319 1.403 . S
H4317 C4323 0.930 . S
C4318 H4304 0.930 . S
C4318 C4316 1.395 . S
C4318 C4321 1.403 . S
C4319 C4316 1.403 . S
C4319 C4320 1.524 . S
C4319 C4323 1.400 . S
C4320 H4305 0.960 . S
C4320 H4306 0.960 . S
C4320 H4307 0.960 . S
C4320 C4319 1.524 . S
C4321 C4318 1.403 . S
C4321 C4322 1.392 . S
C4321 C4325 1.495 . S
C4322 C4321 1.392 . S
C4322 C4323 1.385 . S
C4322 C4324 1.478 . S
C4323 H4317 0.930 . S
C4323 C4319 1.400 . S
C4323 C4322 1.385 . S
C4324 C4322 1.478 . S
C4324 C4326 1.381 . S
C4324 C4330 1.383 . S
C4325 C4321 1.495 . S
C4325 H4331 0.959 . S
C4325 H4332 0.961 . S
C4325 H4333 0.960 . S
C4326 C4324 1.381 . S
C4326 C4327 1.394 . S
C4326 H4334 0.930 . S
C4327 C4326 1.394 . S
C4327 C4328 1.383 . S
C4327 H4335 0.929 . S
C4328 C4327 1.383 . S
C4328 C4329 1.377 . S
C4329 H4313 0.930 . S
C4329 C4328 1.377 . S
C4329 C4330 1.379 . S
C4330 H4314 0.931 . S
C4330 C4324 1.383 . S
C4330 C4329 1.379 . S
H4331 C4325 0.959 . S
H4332 C4325 0.961 . S
H4333 C4325 0.960 . S
H4334 C4326 0.930 . S
H4335 C4327 0.929 . S
C908 C353 0.929 . S
C889 C5 0.912 . S
C925 C23 1.812 . S
C944 C399 1.789 . S
C961 C39 0.758 . S
C980 C408 0.755 . S
C1016 C446 1.571 . S
C997 C42 1.574 . S
C1033 C19 1.565 . S
C1052 C480 1.528 . S
C1088 C510 0.709 . S
C1069 C28 0.705 . S
C1124 C569 1.483 1_556 S
C1105 C53 1.514 . S
C1141 C9 0.812 . S
C1160 C582 0.816 . S
C1177 C65 1.323 . S
C1196 C365 1.297 1_565 S
C1213 C75 1.087 . S
C1232 C383 1.079 . S
C1268 C404 1.628 . S
C1249 C93 1.640 . S
C1304 C442 0.645 . S
C1285 C109 0.589 . S
C1321 C56 1.183 . S
C1340 C476 1.167 . S
C1376 C506 1.434 . S
C1357 C81 1.438 . S
C1412 C553 1.133 . S
C1393 C84 1.144 . S
C1448 C578 0.538 . S
C1429 C103 0.525 . S
C1484 C349 0.553 1_556 S
C1465 C107 0.496 . S
C1520 C608 1.528 . S
C1501 C121 1.536 . S
C1537 C131 1.350 . S
C1556 C650 1.318 . S
C1592 C693 0.525 . S
C1573 C140 0.513 . S
C1609 C61 1.296 . S
C1628 C574 1.297 . S
C1664 C412 1.323 . S
C1645 C70 1.316 . S
C1681 C137 1.244 . S
C1700 C710 1.241 . S
C1736 C761 1.436 . S
C1717 C165 1.444 . S
C1753 C173 0.874 . S
C1772 C344 0.837 . S
C1808 C744 1.739 . S
C1789 C182 1.748 . S
C1825 C207 0.746 . S
C1844 C417 0.755 . S
C1861 C219 1.542 . S
C1880 C727 1.518 . S
C1916 C489 1.505 . S
C1897 C187 1.518 . S
C1952 C655 0.689 . S
C1933 C205 0.697 . S
C1988 C540 1.482 . S
C1969 C221 1.475 . S
C2024 C795 0.744 . S
C2005 C168 0.785 . S
C2060 C336 1.261 . S
C2041 C224 1.269 . S
C2077 C243 1.050 . S
C2096 C748 1.027 . S
C2132 C433 1.541 . S
C2113 C252 1.571 . S
C2149 C277 0.541 . S
C2168 C723 0.498 . S
C2185 C233 1.191 . S
C2204 C485 1.195 . S
C2221 C249 1.412 . S
C2240 C671 1.414 . S
C2276 C544 1.139 . S
C2257 C261 1.136 . S
C2293 C271 0.504 . S
C2312 C791 0.533 . S
C2329 C266 0.456 . S
C2348 C340 0.514 . S
C2365 C280 1.477 . S
C2384 C637 1.481 . S
C2401 C299 1.285 . S
C2420 C523 1.261 . S
C2437 C317 0.468 . S
C2456 C684 0.522 . S
C2492 C807 1.247 . S
C2473 C229 1.252 . S
C2528 C421 1.268 . S
C2509 C247 1.297 . S
C2564 C467 1.215 . S
C2545 C305 1.215 . S
C2600 C378 1.418 . S
C2581 C333 1.424 . S
C2617 C33 0.905 . S
C2636 C829 0.877 . S
C2672 C773 1.792 . S
C2653 C51 1.813 . S
C2708 C850 0.740 . S
C2689 C11 0.756 . S
C2725 C14 1.574 . S
C2744 C718 1.572 . S
C2761 C47 1.565 . S
C2780 C616 1.536 . S
C2816 C646 0.730 . S
C2797 C0 0.710 . S
C2852 C705 1.512 . S
C2833 C25 1.515 . S
C2888 C786 0.788 . S
C2869 C37 0.822 . S
C2924 C841 1.301 . S
C2905 C163 1.323 . S
C2941 C117 1.087 1_556 S
C2960 C757 1.070 . S
C2977 C135 1.643 . S
C2996 C846 1.612 . S
C3032 C714 0.543 . S
C3013 C151 0.578 . S
C3068 C612 1.175 . S
C3049 C154 1.184 . S
C3085 C123 1.438 . S
C3104 C642 1.435 . S
C3140 C689 1.139 . S
C3121 C126 1.152 . S
C3157 C145 0.528 . S
C3176 C782 0.578 . S
C3212 C825 0.467 . S
C3193 C149 0.511 . S
C3248 C472 1.526 . S
C3229 C79 1.535 . S
C3284 C514 1.337 . S
C3265 C89 1.351 . S
C3301 C98 0.515 . S
C3320 C557 0.532 . S
C3356 C778 1.289 . S
C3337 C159 1.294 . S
C3373 C112 1.313 . S
C3392 C854 1.292 . S
C3428 C438 1.228 . S
C3409 C95 1.242 . S
C3464 C387 1.432 . S
C3445 C67 1.443 . S
C3481 C201 0.872 . S
C3500 C820 0.894 . S
C3536 C370 1.730 . S
C3517 C210 1.749 . S
C3572 C859 0.732 . S
C3553 C179 0.750 . S
C3589 C191 1.542 . S
C3608 C455 1.505 . S
C3625 C215 1.518 . S
C3644 C625 1.482 . S
C3661 C177 0.692 . S
C3680 C519 0.703 . S
C3697 C193 1.475 . S
C3716 C676 1.481 . S
C3733 C196 0.774 . S
C3752 C591 0.750 . S
C3788 C812 1.267 . S
C3769 C322 1.269 . S
C3805 C285 1.050 . S
C3824 C374 1.032 . S
C3860 C875 1.570 . S
C3841 C294 1.568 . S
C3877 C319 0.544 . S
C3896 C451 0.586 . S
C3913 C331 1.188 . S
C3932 C621 1.173 . S
C3968 C535 1.396 . S
C3949 C291 1.413 . S
C3985 C303 1.135 . S
C4004 C680 1.103 . S
C4040 C587 0.510 . S
C4021 C313 0.500 . S
C4076 C816 0.435 . S
C4057 C308 0.455 . S
C4112 C501 1.485 . S
C4093 C238 1.476 . S
C4129 C257 1.289 . S
C4148 C659 1.283 . S
C4184 C548 0.487 . S
C4165 C275 0.465 . S
C4220 C603 1.236 . S
C4201 C327 1.252 . S
C4237 C289 1.294 1_554 S
C4256 C863 1.300 . S
C4292 C739 1.206 . S
C4273 C263 1.217 . S
C4328 C752 1.418 . S
C4309 C235 1.424 . S
