# Generated by pormake.
# Topology soc, (4,6)-cn, num edge types: 1
# Building blocks:
#     Node 0, Type 0, BuildingBlock: ESEHIV_clean_sbu_0, # of connection points: 4
#     Node 1, Type 0, BuildingBlock: ESEHIV_clean_sbu_0, # of connection points: 4
#     Node 2, Type 0, BuildingBlock: ESEHIV_clean_sbu_0, # of connection points: 4
#     Node 3, Type 0, BuildingBlock: ESEHIV_clean_sbu_0, # of connection points: 4
#     Node 4, Type 0, BuildingBlock: ESEHIV_clean_sbu_0, # of connection points: 4
#     Node 5, Type 0, BuildingBlock: ESEHIV_clean_sbu_0, # of connection points: 4
#     Node 6, Type 0, BuildingBlock: ESEHIV_clean_sbu_0, # of connection points: 4
#     Node 7, Type 0, BuildingBlock: ESEHIV_clean_sbu_0, # of connection points: 4
#     Node 8, Type 0, BuildingBlock: ESEHIV_clean_sbu_0, # of connection points: 4
#     Node 9, Type 0, BuildingBlock: ESEHIV_clean_sbu_0, # of connection points: 4
#     Node 10, Type 0, BuildingBlock: ESEHIV_clean_sbu_0, # of connection points: 4
#     Node 11, Type 0, BuildingBlock: ESEHIV_clean_sbu_0, # of connection points: 4
#     Node 12, Type 1, BuildingBlock: BETDAH_clean_sbu_0, # of connection points: 6
#     Node 13, Type 1, BuildingBlock: BETDAH_clean_sbu_0, # of connection points: 6
#     Node 14, Type 1, BuildingBlock: BETDAH_clean_sbu_0, # of connection points: 6
#     Node 15, Type 1, BuildingBlock: BETDAH_clean_sbu_0, # of connection points: 6
#     Node 16, Type 1, BuildingBlock: BETDAH_clean_sbu_0, # of connection points: 6
#     Node 17, Type 1, BuildingBlock: BETDAH_clean_sbu_0, # of connection points: 6
#     Node 18, Type 1, BuildingBlock: BETDAH_clean_sbu_0, # of connection points: 6
#     Node 19, Type 1, BuildingBlock: BETDAH_clean_sbu_0, # of connection points: 6
#     Edge 20, Type (0, 1), BuildingBlock: ZUJKAS_clean_linker_0, # of connection points: 2
#     Edge 21, Type (0, 1), BuildingBlock: ZUJKAS_clean_linker_0, # of connection points: 2
#     Edge 22, Type (0, 1), BuildingBlock: ZUJKAS_clean_linker_0, # of connection points: 2
#     Edge 23, Type (0, 1), BuildingBlock: ZUJKAS_clean_linker_0, # of connection points: 2
#     Edge 24, Type (0, 1), BuildingBlock: ZUJKAS_clean_linker_0, # of connection points: 2
#     Edge 25, Type (0, 1), BuildingBlock: ZUJKAS_clean_linker_0, # of connection points: 2
#     Edge 26, Type (0, 1), BuildingBlock: ZUJKAS_clean_linker_0, # of connection points: 2
#     Edge 27, Type (0, 1), BuildingBlock: ZUJKAS_clean_linker_0, # of connection points: 2
#     Edge 28, Type (0, 1), BuildingBlock: ZUJKAS_clean_linker_0, # of connection points: 2
#     Edge 29, Type (0, 1), BuildingBlock: ZUJKAS_clean_linker_0, # of connection points: 2
#     Edge 30, Type (0, 1), BuildingBlock: ZUJKAS_clean_linker_0, # of connection points: 2
#     Edge 31, Type (0, 1), BuildingBlock: ZUJKAS_clean_linker_0, # of connection points: 2
#     Edge 32, Type (0, 1), BuildingBlock: ZUJKAS_clean_linker_0, # of connection points: 2
#     Edge 33, Type (0, 1), BuildingBlock: ZUJKAS_clean_linker_0, # of connection points: 2
#     Edge 34, Type (0, 1), BuildingBlock: ZUJKAS_clean_linker_0, # of connection points: 2
#     Edge 35, Type (0, 1), BuildingBlock: ZUJKAS_clean_linker_0, # of connection points: 2
#     Edge 36, Type (0, 1), BuildingBlock: ZUJKAS_clean_linker_0, # of connection points: 2
#     Edge 37, Type (0, 1), BuildingBlock: ZUJKAS_clean_linker_0, # of connection points: 2
#     Edge 38, Type (0, 1), BuildingBlock: ZUJKAS_clean_linker_0, # of connection points: 2
#     Edge 39, Type (0, 1), BuildingBlock: ZUJKAS_clean_linker_0, # of connection points: 2
#     Edge 40, Type (0, 1), BuildingBlock: ZUJKAS_clean_linker_0, # of connection points: 2
#     Edge 41, Type (0, 1), BuildingBlock: ZUJKAS_clean_linker_0, # of connection points: 2
#     Edge 42, Type (0, 1), BuildingBlock: ZUJKAS_clean_linker_0, # of connection points: 2
#     Edge 43, Type (0, 1), BuildingBlock: ZUJKAS_clean_linker_0, # of connection points: 2
#     Edge 44, Type (0, 1), BuildingBlock: ZUJKAS_clean_linker_0, # of connection points: 2
#     Edge 45, Type (0, 1), BuildingBlock: ZUJKAS_clean_linker_0, # of connection points: 2
#     Edge 46, Type (0, 1), BuildingBlock: ZUJKAS_clean_linker_0, # of connection points: 2
#     Edge 47, Type (0, 1), BuildingBlock: ZUJKAS_clean_linker_0, # of connection points: 2
#     Edge 48, Type (0, 1), BuildingBlock: ZUJKAS_clean_linker_0, # of connection points: 2
#     Edge 49, Type (0, 1), BuildingBlock: ZUJKAS_clean_linker_0, # of connection points: 2
#     Edge 50, Type (0, 1), BuildingBlock: ZUJKAS_clean_linker_0, # of connection points: 2
#     Edge 51, Type (0, 1), BuildingBlock: ZUJKAS_clean_linker_0, # of connection points: 2
#     Edge 52, Type (0, 1), BuildingBlock: ZUJKAS_clean_linker_0, # of connection points: 2
#     Edge 53, Type (0, 1), BuildingBlock: ZUJKAS_clean_linker_0, # of connection points: 2
#     Edge 54, Type (0, 1), BuildingBlock: ZUJKAS_clean_linker_0, # of connection points: 2
#     Edge 55, Type (0, 1), BuildingBlock: ZUJKAS_clean_linker_0, # of connection points: 2
#     Edge 56, Type (0, 1), BuildingBlock: ZUJKAS_clean_linker_0, # of connection points: 2
#     Edge 57, Type (0, 1), BuildingBlock: ZUJKAS_clean_linker_0, # of connection points: 2
#     Edge 58, Type (0, 1), BuildingBlock: ZUJKAS_clean_linker_0, # of connection points: 2
#     Edge 59, Type (0, 1), BuildingBlock: ZUJKAS_clean_linker_0, # of connection points: 2
#     Edge 60, Type (0, 1), BuildingBlock: ZUJKAS_clean_linker_0, # of connection points: 2
#     Edge 61, Type (0, 1), BuildingBlock: ZUJKAS_clean_linker_0, # of connection points: 2
#     Edge 62, Type (0, 1), BuildingBlock: ZUJKAS_clean_linker_0, # of connection points: 2
#     Edge 63, Type (0, 1), BuildingBlock: ZUJKAS_clean_linker_0, # of connection points: 2
#     Edge 64, Type (0, 1), BuildingBlock: ZUJKAS_clean_linker_0, # of connection points: 2
#     Edge 65, Type (0, 1), BuildingBlock: ZUJKAS_clean_linker_0, # of connection points: 2
#     Edge 66, Type (0, 1), BuildingBlock: ZUJKAS_clean_linker_0, # of connection points: 2
#     Edge 67, Type (0, 1), BuildingBlock: ZUJKAS_clean_linker_0, # of connection points: 2
# Relax obj value: 0.157
# Max RMSD: 0.248
# Mean RMSD: 0.165
data_MOF--net-soc--node1-ESEHIV_clean_sbu_0--node2-BETDAH_clean_sbu_0--edge1-ZUJKAS_clean_linker_0
_symmetry_space_group_name_H-M    P1
_symmetry_Int_Tables_number       1
_symmetry_cell_setting            triclinic
loop_
_symmetry_equiv_pos_as_xyz
'x, y, z'
_cell_length_a     64.624997
_cell_length_b     62.358364
_cell_length_c     55.463454
_cell_angle_alpha  84.13748
_cell_angle_beta   84.396617
_cell_angle_gamma 73.883127
loop_
_atom_site_label
_atom_site_type_symbol
_atom_site_fract_x
_atom_site_fract_y
_atom_site_fract_z
_atom_type_partial_charge
Cu0 Cu 0.02906 0.02835 0.34224 0.0
N1 N 0.03925 0.04631 0.36053 0.0
N2 N 0.05694 0.07053 0.36879 0.0
C3 C 0.05368 0.05772 0.35208 0.0
C4 C 0.04398 0.06699 0.38855 0.0
C5 C 0.03298 0.05214 0.38333 0.0
O6 O 0.05345 0.00947 0.32383 0.0
C7 C 0.98822 0.05583 0.33465 0.0
O8 O 0.98538 0.04844 0.35742 0.0
H9 H 0.06154 0.05666 0.33393 0.0
H10 H 0.02087 0.04649 0.3951 0.0
N11 N 1.0167 0.00816 0.36154 0.0
N12 N 0.99805 0.98271 0.37017 0.0
C13 C 1.00379 0.99747 0.35315 0.0
C14 C 0.01944 0.99984 0.38472 0.0
C15 C 1.00781 0.9842 0.39016 0.0
C16 C 0.06917 0.99901 0.33648 0.0
O17 O 0.06816 1.00303 0.35942 0.0
H18 H 0.99872 1.00062 0.3348 0.0
H19 H 0.02955 1.0044 0.39661 0.0
O20 O 1.00667 0.04886 0.32328 0.0
H21 H 0.04202 0.07508 0.4053 0.0
H22 H 1.00713 0.97428 0.40726 0.0
Cu23 Cu 0.04179 0.02778 0.74988 0.0
N24 N 0.02965 0.01078 0.73255 0.0
N25 N 1.01036 0.98755 0.72603 0.0
C26 C 1.01489 1.00017 0.74208 0.0
C27 C 0.02279 0.99032 0.70558 0.0
C28 C 0.03469 1.0047 0.70965 0.0
O29 O 1.0185 0.04705 0.76974 0.0
C30 C 0.08126 0.99682 0.7517 0.0
O31 O 0.0799 1.00269 0.72835 0.0
H32 H 1.00823 1.00107 0.76075 0.0
H33 H 0.04657 0.00985 0.69703 0.0
N34 N 0.05374 0.0475 0.72945 0.0
N35 N 0.07277 0.07237 0.71934 0.0
C36 C 0.0676 0.0576 0.73674 0.0
C37 C 0.04989 0.0561 0.70654 0.0
C38 C 0.06178 0.0714 0.70017 0.0
C39 C 1.00227 0.05797 0.75798 0.0
O40 O 1.00238 0.05455 0.73498 0.0
H41 H 0.07366 0.05417 0.75465 0.0
H42 H 0.03882 0.05201 0.69552 0.0
O43 O 0.06564 0.00633 0.76634 0.0
H44 H 0.0234 0.98238 0.68896 0.0
H45 H 0.06178 0.08151 0.68311 0.0
Cu46 Cu 0.32803 0.03294 0.08165 0.0
N47 N 0.34862 0.01327 0.06291 0.0
N48 N 0.3614 0.98482 0.0395 0.0
C49 C 0.34565 0.99446 0.05586 0.0
C50 C 0.37493 0.99808 0.03612 0.0
C51 C 0.36704 0.01563 0.05077 0.0
O52 O 0.30962 0.0146 0.09782 0.0
C53 C 0.325 0.07178 0.0509 0.0
O54 O 0.34383 0.06936 0.05946 0.0
H55 H 0.33133 0.98887 0.06128 0.0
H56 H 0.37367 0.02965 0.0516 0.0
N57 N 0.34171 0.04279 0.10475 0.0
N58 N 0.34732 0.06238 0.13379 0.0
C59 C 0.33413 0.06146 0.11671 0.0
C60 C 0.36037 0.03164 0.11439 0.0
C61 C 0.36387 0.04367 0.13236 0.0
C62 C 0.30622 0.01193 0.12085 0.0
O63 O 0.31171 0.02509 0.1346 0.0
H64 H 0.3188 0.07356 0.11366 0.0
H65 H 0.37041 0.01559 0.10913 0.0
O66 O 0.31413 0.05799 0.05905 0.0
H67 H 0.38898 0.99573 0.02331 0.0
H68 H 0.37741 0.03889 0.14365 0.0
Cu69 Cu 0.05793 0.30011 0.10422 0.0
N70 N 0.06911 0.31817 0.08029 0.0
N71 N 0.08789 0.32655 0.0463 0.0
C72 C 0.08377 0.31009 0.0622 0.0
C73 C 0.07536 0.3458 0.05485 0.0
C74 C 0.0637 0.34058 0.07575 0.0
O75 O 0.08083 0.28707 0.12702 0.0
C76 C 0.03521 0.29043 0.06947 0.0
O77 O 0.03082 0.31236 0.06669 0.0
H78 H 0.09105 0.29238 0.06067 0.0
H79 H 0.0517 0.35229 0.08636 0.0
N80 N 0.03329 0.31651 0.12164 0.0
N81 N 1.0003 0.32431 0.14104 0.0
C82 C 1.01565 0.30927 0.12854 0.0
C83 C 0.02905 0.33685 0.13015 0.0
C84 C 1.00873 0.34172 0.14208 0.0
C85 C 0.08839 0.30142 0.13558 0.0
O86 O 0.08038 0.32265 0.12861 0.0
H87 H 1.01436 0.29303 0.12476 0.0
H88 H 0.03991 0.34743 0.12801 0.0
O89 O 0.04759 0.27996 0.08604 0.0
H90 H 0.07413 0.36243 0.0462 0.0
H91 H 1.0008 0.35699 0.15066 0.0
Cu92 Cu 0.79319 0.9963 0.02026 0.0
N93 N 0.81132 0.00794 0.99768 0.0
N94 N 0.82115 0.03349 0.97143 0.0
C95 C 0.80649 0.02951 0.98901 0.0
C96 C 0.8358 0.01357 0.96871 0.0
C97 C 0.82972 0.99777 0.98509 0.0
O98 O 0.7762 0.02134 0.03837 0.0
C99 C 0.78821 0.9637 0.99361 0.0
O100 O 0.80846 0.95591 0.99885 0.0
H101 H 0.79196 0.04189 0.99484 0.0
H102 H 0.83784 0.98009 0.98723 0.0
N103 N 0.80861 0.97494 0.04261 0.0
N104 N 0.81458 0.94855 0.07342 0.0
C105 C 0.79985 0.96192 0.05894 0.0
C106 C 0.82966 0.9697 0.0468 0.0
C107 C 0.8334 0.95341 0.06589 0.0
C108 C 0.78794 0.03056 0.04869 0.0
O109 O 0.80898 0.02194 0.04678 0.0
H110 H 0.78285 0.96266 0.06044 0.0
H111 H 0.84138 0.97734 0.03685 0.0
O112 O 0.7771 0.98203 1.00199 0.0
H113 H 0.84973 0.01062 0.95572 0.0
H114 H 0.84876 0.94566 0.0735 0.0
Cu115 Cu 0.02301 0.74217 0.99844 0.0
N116 N 1.00977 0.728 0.97871 0.0
N117 N 0.98661 0.72316 0.95354 0.0
C118 C 0.99274 0.73799 0.9655 0.0
C119 C 1.00041 0.70309 0.95953 0.0
C120 C 1.01463 0.70613 0.97501 0.0
O121 O 1.00096 0.75604 0.02371 0.0
C122 C 0.05462 0.7661 0.9829 0.0
O123 O 0.05745 0.76505 1.00616 0.0
H124 H 0.98477 0.75573 0.96514 0.0
H125 H 0.02749 0.69324 0.98316 0.0
N126 N 0.04474 0.72156 0.015 0.0
N127 N 0.07058 0.71261 0.04123 0.0
C128 C 0.05034 0.72486 0.03676 0.0
C129 C 0.06177 0.70626 1.00547 0.0
C130 C 0.07767 0.70057 0.0217 0.0
C131 C 0.99245 0.74189 0.03638 0.0
O132 O 0.99884 0.72097 0.03079 0.0
H133 H 0.04048 0.73773 0.04785 0.0
H134 H 0.06346 0.70147 0.98703 0.0
O135 O 0.03864 0.76027 0.97647 0.0
H136 H 1.00039 0.68729 0.9531 0.0
H137 H 0.09395 0.69019 0.01815 0.0
Cu138 Cu 0.53852 0.51947 0.84145 0.0
N139 N 0.54937 0.53631 0.86049 0.0
N140 N 0.56741 0.55981 0.86966 0.0
C141 C 0.56221 0.54943 0.85188 0.0
C142 C 0.55743 0.55288 0.89031 0.0
C143 C 0.54626 0.5384 0.88458 0.0
O144 O 0.56329 0.49908 0.8246 0.0
C145 C 0.50267 0.55449 0.83454 0.0
O146 O 0.50397 0.5528 0.85818 0.0
H147 H 0.56777 0.55107 0.83291 0.0
H148 H 0.53638 0.53022 0.89703 0.0
N149 N 0.52356 0.50154 0.86047 0.0
N150 N 0.49994 0.48122 0.86913 0.0
C151 C 0.50643 0.49634 0.85328 0.0
C152 C 0.52817 0.48932 0.88168 0.0
C153 C 0.51357 0.47671 0.88707 0.0
C154 C 0.57836 0.48876 0.83827 0.0
O155 O 0.57609 0.49305 0.86122 0.0
H156 H 0.49958 0.50271 0.83608 0.0
H157 H 0.54157 0.48902 0.89207 0.0
O158 O 0.51698 0.54084 0.82183 0.0
H159 H 0.5578 0.5582 0.90819 0.0
H160 H 0.51329 0.46486 0.9027 0.0
Cu161 Cu 0.54123 0.5395 0.25455 0.0
N162 N 0.52747 0.52377 0.23739 0.0
N163 N 0.50732 0.50106 0.23165 0.0
C164 C 0.51477 0.51116 0.24801 0.0
C165 C 0.51577 0.5076 0.20981 0.0
C166 C 0.5282 0.52163 0.21341 0.0
O167 O 0.51875 0.56009 0.27389 0.0
C168 C 0.57728 0.50484 0.25664 0.0
O169 O 0.57473 0.50945 0.23328 0.0
H170 H 0.51152 0.5091 0.2675 0.0
H171 H 0.53728 0.52949 0.19957 0.0
N172 N 0.55589 0.55718 0.23437 0.0
N173 N 0.58029 0.57643 0.22391 0.0
C174 C 0.57378 0.56174 0.24038 0.0
C175 C 0.55076 0.56943 0.21329 0.0
C176 C 0.56582 0.58138 0.2068 0.0
C177 C 0.50304 0.57155 0.26168 0.0
O178 O 0.50346 0.56814 0.23864 0.0
H179 H 0.58134 0.55508 0.25713 0.0
H180 H 0.53679 0.57011 0.20368 0.0
O181 O 0.56349 0.51663 0.27152 0.0
H182 H 0.51312 0.50271 0.19244 0.0
H183 H 0.56594 0.59299 0.19092 0.0
Cu184 Cu 0.81685 0.54901 0.56412 0.0
N185 N 0.83397 0.5546 0.53642 0.0
N186 N 0.84579 0.57115 0.5023 0.0
C187 C 0.83184 0.57385 0.52226 0.0
C188 C 0.8572 0.54942 0.50413 0.0
C189 C 0.84987 0.53928 0.52519 0.0
O190 O 0.80654 0.5752 0.58277 0.0
C191 C 0.78522 0.54394 0.53426 0.0
O192 O 0.78985 0.56054 0.52028 0.0
H193 H 0.81964 0.58921 0.52598 0.0
H194 H 0.85532 0.5218 0.53158 0.0
N195 N 0.83332 0.52571 0.58359 0.0
N196 N 0.8425 0.49345 0.60658 0.0
C197 C 0.82676 0.50821 0.59444 0.0
C198 C 0.85392 0.52203 0.58898 0.0
C199 C 0.85963 0.50213 0.60325 0.0
C200 C 0.82005 0.5854 0.58748 0.0
O201 O 0.84018 0.5785 0.57862 0.0
H202 H 0.81066 0.50648 0.59349 0.0
H203 H 0.86414 0.53286 0.58265 0.0
O204 O 0.7938 0.53803 0.55443 0.0
H205 H 0.8698 0.54136 0.49108 0.0
H206 H 0.8753 0.49447 0.61016 0.0
Cu207 Cu 0.56792 0.773 0.57397 0.0
N208 N 0.59221 0.75695 0.55511 0.0
N209 N 0.61938 0.75011 0.52583 0.0
C210 C 0.6019 0.76539 0.53507 0.0
C211 C 0.6208 0.73138 0.54092 0.0
C212 C 0.60419 0.73568 0.55894 0.0
O213 O 0.57921 0.78747 0.59726 0.0
C214 C 0.54493 0.78466 0.53362 0.0
O215 O 0.55606 0.76407 0.52975 0.0
H216 H 0.59602 0.78242 0.52733 0.0
H217 H 0.60131 0.72419 0.57402 0.0
N218 N 0.55065 0.75566 0.591 0.0
N219 N 0.52193 0.74844 0.61325 0.0
C220 C 0.53236 0.76412 0.6049 0.0
C221 C 0.55182 0.73385 0.59035 0.0
C222 C 0.53428 0.72933 0.60413 0.0
C223 C 0.58674 0.77529 0.616 0.0
O224 O 0.58519 0.75461 0.61912 0.0
H225 H 0.52672 0.7816 0.6085 0.0
H226 H 0.56411 0.72218 0.57996 0.0
O227 O 0.54823 0.79333 0.55222 0.0
H228 H 0.63324 0.71576 0.53943 0.0
H229 H 0.53054 0.71334 0.60645 0.0
Cu230 Cu 0.27435 0.50443 0.5413 0.0
N231 N 0.25785 0.53128 0.52645 0.0
N232 N 0.25018 0.56475 0.5051 0.0
C233 C 0.26579 0.54773 0.51485 0.0
C234 C 0.23168 0.55866 0.51091 0.0
C235 C 0.23647 0.53806 0.52406 0.0
O236 O 0.30109 0.51063 0.54716 0.0
C237 C 0.28499 0.48255 0.49764 0.0
O238 O 0.29074 0.50061 0.4889 0.0
H239 H 0.28281 0.54689 0.5131 0.0
H240 H 0.22519 0.5286 0.5312 0.0
N241 N 0.26075 0.49613 0.57085 0.0
N242 N 0.25343 0.47524 0.60427 0.0
C243 C 0.26499 0.4755 0.58259 0.0
C244 C 0.24586 0.50938 0.58547 0.0
C245 C 0.24127 0.49655 0.60603 0.0
C246 C 0.31172 0.50317 0.56577 0.0
O247 O 0.30702 0.48691 0.58027 0.0
H248 H 0.2766 0.46104 0.57546 0.0
H249 H 0.23919 0.52721 0.58168 0.0
O250 O 0.27837 0.48075 0.5199 0.0
H251 H 0.21576 0.5684 0.50613 0.0
H252 H 0.23035 0.50264 0.62143 0.0
Cu253 Cu 0.51326 0.25632 0.53003 0.0
N254 N 0.53532 0.23949 0.50967 0.0
N255 N 0.56646 0.23099 0.48664 0.0
C256 C 0.55202 0.24678 0.49911 0.0
C257 C 0.55829 0.21308 0.4892 0.0
C258 C 0.53908 0.21837 0.50345 0.0
O259 O 0.5275 0.27445 0.54654 0.0
C260 C 0.48059 0.25761 0.50095 0.0
O261 O 0.48768 0.23623 0.50785 0.0
H262 H 0.55355 0.2634 0.50079 0.0
H263 H 0.52885 0.20744 0.50923 0.0
N264 N 0.50322 0.23801 0.55468 0.0
N265 N 0.48423 0.22843 0.5879 0.0
C266 C 0.48571 0.24463 0.57021 0.0
C267 C 0.51305 0.21685 0.56272 0.0
C268 C 0.5014 0.21092 0.58324 0.0
C269 C 0.54429 0.26249 0.55682 0.0
O270 O 0.54927 0.24067 0.55595 0.0
H271 H 0.47488 0.26136 0.56925 0.0
H272 H 0.52813 0.20675 0.55486 0.0
O273 O 0.48929 0.27119 0.50926 0.0
H274 H 0.56589 0.1971 0.4819 0.0
H275 H 0.50546 0.19511 0.59415 0.0
Ho276 Ho 0.27242 0.26978 0.33315 0.0
Ho277 Ho 0.30492 0.29083 0.29332 0.0
C278 C 0.3037 0.23942 0.29218 0.0
C279 C 0.24026 0.25635 0.35395 0.0
C280 C 0.22634 0.24169 0.3507 0.0
C281 C 0.20856 0.24883 0.33628 0.0
C282 C 0.1946 0.23529 0.33541 0.0
C283 C 0.198 0.21453 0.3492 0.0
C284 C 0.21603 0.20729 0.36315 0.0
C285 C 0.22995 0.22072 0.36396 0.0
C286 C 0.31031 0.27016 0.35152 0.0
C287 C 0.27596 0.32019 0.33634 0.0
C288 C 0.33714 0.30369 0.27186 0.0
C289 C 0.35236 0.31638 0.27604 0.0
C290 C 0.34725 0.33257 0.29308 0.0
C291 C 0.36072 0.34651 0.2943 0.0
C292 C 0.37952 0.34441 0.27856 0.0
C293 C 0.38497 0.32747 0.2623 0.0
C294 C 0.37149 0.31363 0.26106 0.0
C295 C 0.26669 0.29089 0.27522 0.0
O296 O 0.28641 0.2424 0.3079 0.0
O297 O 0.31467 0.25455 0.28623 0.0
O298 O 0.26052 0.24617 0.35759 0.0
O299 O 0.23781 0.27532 0.34033 0.0
O300 O 0.29501 0.2631 0.36386 0.0
O301 O 0.30438 0.27537 0.33027 0.0
O302 O 0.29282 0.31694 0.32008 0.0
O303 O 0.26399 0.30585 0.34184 0.0
O304 O 0.31692 0.31534 0.27043 0.0
O305 O 0.33936 0.28402 0.28392 0.0
O306 O 0.28175 0.29833 0.26292 0.0
O307 O 0.27312 0.28487 0.29612 0.0
H308 H 0.20512 0.26504 0.32612 0.0
H309 H 0.18076 0.2414 0.32461 0.0
H310 H 0.21933 0.19125 0.37368 0.0
H311 H 0.24335 0.21481 0.37544 0.0
H312 H 0.33254 0.33488 0.30489 0.0
H313 H 0.35622 0.3592 0.30724 0.0
H314 H 0.39917 0.32554 0.24973 0.0
H315 H 0.37562 0.30129 0.24772 0.0
Ho316 Ho 0.7861 0.29402 0.32358 0.0
Ho317 Ho 0.77422 0.26348 0.29001 0.0
C318 C 0.75393 0.2647 0.34569 0.0
C319 C 0.7886 0.32404 0.35109 0.0
C320 C 0.77677 0.33942 0.36952 0.0
C321 C 0.7603 0.35875 0.36327 0.0
C322 C 0.75227 0.37523 0.37972 0.0
C323 C 0.76052 0.37272 0.40271 0.0
C324 C 0.77608 0.35278 0.40937 0.0
C325 C 0.78415 0.33638 0.39292 0.0
C326 C 0.81663 0.25514 0.31602 0.0
C327 C 0.80652 0.29211 0.26879 0.0
C328 C 0.76655 0.2311 0.26992 0.0
C329 C 0.76226 0.22284 0.24746 0.0
C330 C 0.74686 0.21066 0.24902 0.0
C331 C 0.74388 0.20023 0.22903 0.0
C332 C 0.75626 0.20176 0.20693 0.0
C333 C 0.7712 0.21468 0.20515 0.0
C334 C 0.77421 0.22512 0.22527 0.0
C335 C 0.7513 0.30726 0.28625 0.0
O336 O 0.761 0.28226 0.3482 0.0
O337 O 0.75925 0.25342 0.32608 0.0
O338 O 0.79425 0.30251 0.35767 0.0
O339 O 0.78284 0.32862 0.32868 0.0
O340 O 0.82085 0.27376 0.31893 0.0
O341 O 0.79656 0.25767 0.31889 0.0
O342 O 0.80189 0.27281 0.26802 0.0
O343 O 0.798 0.30551 0.28634 0.0
O344 O 0.75134 0.24723 0.27938 0.0
O345 O 0.78606 0.23279 0.27205 0.0
O346 O 0.75668 0.29489 0.26797 0.0
O347 O 0.75729 0.29544 0.3053 0.0
H348 H 0.75425 0.36164 0.34535 0.0
H349 H 0.7401 0.39028 0.37415 0.0
H350 H 0.78301 0.35039 0.42678 0.0
H351 H 0.797 0.32179 0.39812 0.0
H352 H 0.7376 0.20855 0.26604 0.0
H353 H 0.7325 0.19016 0.23128 0.0
H354 H 0.78081 0.21645 0.18833 0.0
H355 H 0.78618 0.23448 0.22364 0.0
Ho356 Ho 0.80509 0.73995 0.27781 0.0
Ho357 Ho 0.8079 0.78604 0.29098 0.0
C358 C 0.77126 0.7662 0.3196 0.0
C359 C 0.80255 0.69934 0.27705 0.0
C360 C 0.78455 0.68977 0.27471 0.0
C361 C 0.78798 0.66653 0.27587 0.0
C362 C 0.77113 0.65743 0.27223 0.0
C363 C 0.75056 0.67147 0.2673 0.0
C364 C 0.74717 0.69482 0.26659 0.0
C365 C 0.764 0.70387 0.27029 0.0
C366 C 0.78276 0.77581 0.25013 0.0
C367 C 0.84052 0.76031 0.24797 0.0
C368 C 0.81019 0.82675 0.29214 0.0
C369 C 0.82585 0.83738 0.29987 0.0
C370 C 0.8271 0.85823 0.28873 0.0
C371 C 0.84181 0.86863 0.29596 0.0
C372 C 0.85547 0.85837 0.31454 0.0
C373 C 0.85421 0.83739 0.32558 0.0
C374 C 0.8396 0.82693 0.31823 0.0
C375 C 0.8305 0.75043 0.31846 0.0
O376 O 0.78201 0.74672 0.3113 0.0
O377 O 0.77584 0.78504 0.31064 0.0
O378 O 0.80763 0.71129 0.25782 0.0
O379 O 0.80196 0.70887 0.29713 0.0
O380 O 0.79026 0.75585 0.24293 0.0
O381 O 0.78503 0.77478 0.27248 0.0
O382 O 0.82936 0.77978 0.25608 0.0
O383 O 0.83674 0.74128 0.25762 0.0
O384 O 0.80042 0.81647 0.30937 0.0
O385 O 0.81633 0.81535 0.273 0.0
O386 O 0.82277 0.77029 0.32584 0.0
O387 O 0.82822 0.75125 0.29613 0.0
H388 H 0.80375 0.65542 0.27933 0.0
H389 H 0.77422 0.63939 0.27329 0.0
H390 H 0.73166 0.70614 0.26255 0.0
H391 H 0.76111 0.7219 0.26927 0.0
H392 H 0.81663 0.8665 0.2745 0.0
H393 H 0.84227 0.88487 0.28725 0.0
H394 H 0.86472 0.82894 0.33971 0.0
H395 H 0.83904 0.81071 0.3269 0.0
Ho396 Ho 0.27022 0.77232 0.28956 0.0
Ho397 Ho 0.29703 0.79148 0.31809 0.0
C398 C 0.29214 0.81027 0.26304 0.0
C399 C 0.24375 0.76152 0.26399 0.0
C400 C 0.23084 0.76636 0.24253 0.0
C401 C 0.20821 0.77231 0.246 0.0
C402 C 0.19564 0.7717 0.22709 0.0
C403 C 0.20547 0.76494 0.20434 0.0
C404 C 0.22804 0.76045 0.20039 0.0
C405 C 0.24061 0.76112 0.2193 0.0
C406 C 0.31041 0.74541 0.29647 0.0
C407 C 0.27418 0.75428 0.34476 0.0
C408 C 0.32327 0.80253 0.34368 0.0
C409 C 0.3368 0.79751 0.36452 0.0
C410 C 0.35465 0.77862 0.36628 0.0
C411 C 0.3694 0.77667 0.38381 0.0
C412 C 0.36662 0.79363 0.39974 0.0
C413 C 0.34812 0.8119 0.39865 0.0
C414 C 0.33341 0.81379 0.38123 0.0
C415 C 0.25709 0.8186 0.31089 0.0
O416 O 0.27608 0.80084 0.26355 0.0
O417 O 0.30516 0.80598 0.28091 0.0
O418 O 0.26477 0.7546 0.26047 0.0
O419 O 0.23737 0.77421 0.28215 0.0
O420 O 0.29329 0.73848 0.29688 0.0
O421 O 0.3057 0.76632 0.29134 0.0
O422 O 0.29078 0.76297 0.34408 0.0
O423 O 0.26127 0.75881 0.3268 0.0
O424 O 0.30232 0.8083 0.34822 0.0
O425 O 0.32962 0.7907 0.3248 0.0
O426 O 0.27425 0.82538 0.31079 0.0
O427 O 0.26158 0.79771 0.31616 0.0
H428 H 0.20024 0.77611 0.26378 0.0
H429 H 0.17831 0.77509 0.2308 0.0
H430 H 0.23606 0.75553 0.18295 0.0
H431 H 0.25802 0.75635 0.21601 0.0
H432 H 0.35768 0.76581 0.35358 0.0
H433 H 0.3833 0.76219 0.38443 0.0
H434 H 0.34556 0.82542 0.41034 0.0
H435 H 0.31989 0.82865 0.38003 0.0
Ho436 Ho 0.29294 0.77225 0.8093 0.0
Ho437 Ho 0.27442 0.75648 0.7712 0.0
C438 C 0.24866 0.76034 0.82509 0.0
C439 C 0.30995 0.79389 0.83554 0.0
C440 C 0.3059 0.80952 0.8548 0.0
C441 C 0.29756 0.8327 0.84958 0.0
C442 C 0.29814 0.84763 0.86648 0.0
C443 C 0.3071 0.83966 0.88885 0.0
C444 C 0.31416 0.81645 0.89463 0.0
C445 C 0.31363 0.80154 0.87772 0.0
C446 C 0.30852 0.72718 0.80574 0.0
C447 C 0.31829 0.76921 0.75556 0.0
C448 C 0.26144 0.73241 0.74395 0.0
C449 C 0.27297 0.71531 0.72737 0.0
C450 C 0.29326 0.70091 0.7325 0.0
C451 C 0.30407 0.68466 0.71671 0.0
C452 C 0.29488 0.68272 0.69537 0.0
C453 C 0.27475 0.69746 0.69006 0.0
C454 C 0.26387 0.7136 0.70598 0.0
C455 C 0.25914 0.80163 0.77418 0.0
O456 O 0.26115 0.77267 0.83003 0.0
O457 O 0.25233 0.7504 0.80445 0.0
O458 O 0.3084 0.77358 0.84176 0.0
O459 O 0.3029 0.80171 0.81419 0.0
O460 O 0.30348 0.7367 0.82597 0.0
O461 O 0.30492 0.74219 0.78853 0.0
O462 O 0.30651 0.75602 0.75118 0.0
O463 O 0.31399 0.77971 0.77576 0.0
O464 O 0.26237 0.75284 0.73717 0.0
O465 O 0.26424 0.727 0.76707 0.0
O466 O 0.26342 0.79183 0.75408 0.0
O467 O 0.26255 0.78684 0.79163 0.0
H468 H 0.29156 0.8394 0.83203 0.0
H469 H 0.29233 0.86545 0.86169 0.0
H470 H 0.32136 0.80979 0.91159 0.0
H471 H 0.32043 0.78378 0.88211 0.0
H472 H 0.3007 0.70213 0.74878 0.0
H473 H 0.31963 0.67365 0.72114 0.0
H474 H 0.26718 0.69618 0.67388 0.0
H475 H 0.24829 0.72466 0.70167 0.0
Ho476 Ho 0.27838 0.24766 0.8105 0.0
Ho477 Ho 0.2952 0.28538 0.83113 0.0
C478 C 0.24695 0.28311 0.84643 0.0
C479 C 0.2693 0.21061 0.80585 0.0
C480 C 0.25187 0.20322 0.79719 0.0
C481 C 0.24905 0.18232 0.80608 0.0
C482 C 0.23312 0.17449 0.79752 0.0
C483 C 0.21973 0.18745 0.77984 0.0
C484 C 0.22247 0.20854 0.77111 0.0
C485 C 0.23838 0.21642 0.7798 0.0
C486 C 0.26779 0.2872 0.78226 0.0
C487 C 0.32464 0.25433 0.79028 0.0
C488 C 0.31029 0.3176 0.84027 0.0
C489 C 0.32516 0.33116 0.8307 0.0
C490 C 0.31676 0.35394 0.82349 0.0
C491 C 0.33032 0.36811 0.81921 0.0
C492 C 0.35255 0.3598 0.82231 0.0
C493 C 0.36113 0.33671 0.82794 0.0
C494 C 0.34759 0.32253 0.83209 0.0
C495 C 0.29592 0.24782 0.86069 0.0
O496 O 0.25181 0.26289 0.83824 0.0
O497 O 0.25991 0.29645 0.84225 0.0
O498 O 0.28065 0.21993 0.78928 0.0
O499 O 0.2647 0.22089 0.82595 0.0
O500 O 0.26206 0.26958 0.77814 0.0
O501 O 0.27761 0.28231 0.80125 0.0
O502 O 0.31999 0.27355 0.80052 0.0
O503 O 0.31269 0.24002 0.79474 0.0
O504 O 0.31889 0.29652 0.84729 0.0
O505 O 0.29225 0.32093 0.82965 0.0
O506 O 0.29223 0.26764 0.86814 0.0
O507 O 0.30043 0.24863 0.83799 0.0
H508 H 0.25937 0.17192 0.81947 0.0
H509 H 0.23159 0.15805 0.80436 0.0
H510 H 0.21225 0.21897 0.75767 0.0
H511 H 0.24027 0.23269 0.77282 0.0
H512 H 0.29953 0.36106 0.82235 0.0
H513 H 0.32326 0.38575 0.81447 0.0
H514 H 0.37812 0.32974 0.8307 0.0
H515 H 0.35462 0.30507 0.8377 0.0
Ho516 Ho 0.78029 0.27533 0.78692 0.0
Ho517 Ho 0.81489 0.28639 0.81954 0.0
C518 C 0.81072 0.30775 0.76454 0.0
C519 C 0.74396 0.27937 0.76817 0.0
C520 C 0.73168 0.281 0.74631 0.0
C521 C 0.72002 0.30206 0.73635 0.0
C522 C 0.70536 0.30381 0.7187 0.0
C523 C 0.70178 0.28455 0.71058 0.0
C524 C 0.71399 0.26347 0.71998 0.0
C525 C 0.72864 0.26172 0.73766 0.0
C526 C 0.82089 0.24734 0.78004 0.0
C527 C 0.79215 0.24665 0.83738 0.0
C528 C 0.84407 0.2888 0.84733 0.0
C529 C 0.86028 0.27821 0.86543 0.0
C530 C 0.88247 0.273 0.85816 0.0
C531 C 0.89798 0.26756 0.87542 0.0
C532 C 0.89178 0.26728 0.9005 0.0
C533 C 0.86961 0.2714 0.90776 0.0
C534 C 0.85408 0.27688 0.89048 0.0
C535 C 0.77498 0.31555 0.81768 0.0
O536 O 0.79281 0.30144 0.76341 0.0
O537 O 0.82337 0.30147 0.78291 0.0
O538 O 0.75695 0.26003 0.77534 0.0
O539 O 0.75108 0.29641 0.77195 0.0
O540 O 0.80444 0.2462 0.76883 0.0
O541 O 0.81439 0.26403 0.79239 0.0
O542 O 0.80909 0.25463 0.83777 0.0
O543 O 0.77681 0.25488 0.82205 0.0
O544 O 0.82347 0.29266 0.85434 0.0
O545 O 0.84841 0.28399 0.82455 0.0
O546 O 0.79247 0.32137 0.81953 0.0
O547 O 0.77938 0.29451 0.81837 0.0
H548 H 0.72162 0.3173 0.74282 0.0
H549 H 0.69655 0.32034 0.7117 0.0
H550 H 0.71156 0.24823 0.71447 0.0
H551 H 0.73696 0.24522 0.74523 0.0
H552 H 0.88786 0.27412 0.83907 0.0
H553 H 0.91488 0.26411 0.86907 0.0
H554 H 0.86412 0.27157 0.92684 0.0
H555 H 0.83717 0.28111 0.89684 0.0
Ho556 Ho 0.759 0.77829 0.80598 0.0
Ho557 Ho 0.79082 0.7998 0.76928 0.0
C558 C 0.78167 0.7525 0.75955 0.0
C559 C 0.72688 0.76939 0.83265 0.0
C560 C 0.71533 0.75203 0.8349 0.0
C561 C 0.71747 0.73764 0.81641 0.0
C562 C 0.70641 0.72108 0.81904 0.0
C563 C 0.69315 0.71863 0.84025 0.0
C564 C 0.69112 0.73315 0.85869 0.0
C565 C 0.70213 0.7497 0.85601 0.0
C566 C 0.80138 0.76574 0.81435 0.0
C567 C 0.76542 0.82739 0.81433 0.0
C568 C 0.8253 0.80841 0.74834 0.0
C569 C 0.84245 0.81812 0.75351 0.0
C570 C 0.84131 0.82879 0.77485 0.0
C571 C 0.85676 0.83995 0.7781 0.0
C572 C 0.87348 0.84066 0.75999 0.0
C573 C 0.87481 0.82928 0.739 0.0
C574 C 0.85945 0.8181 0.73585 0.0
C575 C 0.75104 0.80731 0.75201 0.0
O576 O 0.76468 0.75598 0.77556 0.0
O577 O 0.79546 0.7651 0.75705 0.0
O578 O 0.74679 0.76288 0.83896 0.0
O579 O 0.72466 0.7827 0.81268 0.0
O580 O 0.78878 0.75252 0.81842 0.0
O581 O 0.7906 0.78507 0.80709 0.0
O582 O 0.78134 0.82528 0.79697 0.0
O583 O 0.75411 0.81247 0.81951 0.0
O584 O 0.80601 0.82244 0.74732 0.0
O585 O 0.82517 0.78891 0.75971 0.0
O586 O 0.76647 0.81469 0.74052 0.0
O587 O 0.7581 0.79748 0.77154 0.0
H588 H 0.72773 0.73917 0.80002 0.0
H589 H 0.70846 0.71002 0.80463 0.0
H590 H 0.6808 0.7319 0.87508 0.0
H591 H 0.70031 0.76071 0.87043 0.0
H592 H 0.82819 0.82901 0.78864 0.0
H593 H 0.8554 0.84832 0.79459 0.0
H594 H 0.8872 0.82977 0.72449 0.0
H595 H 0.86045 0.81005 0.71919 0.0
H596 H 0.07563 0.08398 0.40413 0.0
H597 H 0.0989 0.10935 0.39898 0.0
H598 H 0.09339 0.11586 0.32157 0.0
H599 H 0.06971 0.09101 0.3266 0.0
H600 H 0.13877 0.10366 0.37065 0.0
H601 H 0.07806 0.18126 0.33936 0.0
H602 H 0.07057 0.15704 0.35414 0.0
H603 H 0.08049 0.15729 0.32274 0.0
C604 C 0.07914 0.09101 0.38604 0.0
C605 C 0.07073 0.08545 0.3658 0.0
C606 C 0.09254 0.10541 0.38311 0.0
C607 C 0.09765 0.11472 0.35993 0.0
C608 C 0.08938 0.10916 0.33967 0.0
H609 H 0.17847 0.20508 0.3112 0.0
H610 H 0.15425 0.18072 0.31277 0.0
C611 C 0.07603 0.09471 0.34257 0.0
C612 C 0.11214 0.1297 0.35693 0.0
H613 H 0.11418 0.18316 0.33871 0.0
C614 C 0.1334 0.12105 0.36371 0.0
C615 C 0.10512 0.15233 0.34766 0.0
C616 C 0.08227 0.16267 0.34071 0.0
C617 C 0.14787 0.13439 0.36143 0.0
C618 C 0.14076 0.15715 0.35262 0.0
C619 C 0.11959 0.16572 0.34547 0.0
C620 C 0.15484 0.17246 0.3516 0.0
C621 C 0.17076 0.12389 0.3682 0.0
C622 C 0.16272 0.17635 0.37296 0.0
C623 C 0.17647 0.1902 0.37212 0.0
C624 C 0.18256 0.20063 0.3499 0.0
C625 C 0.17407 0.19732 0.32859 0.0
C626 C 0.16031 0.18335 0.32944 0.0
H627 H 0.17531 0.10538 0.36771 0.0
H628 H 0.18241 0.13065 0.3558 0.0
H629 H 0.17224 0.12767 0.38698 0.0
H630 H 0.15822 0.16863 0.39034 0.0
H631 H 0.18228 0.19282 0.38895 0.0
H632 H 0.99068 0.09339 0.30529 0.0
H633 H 0.96043 0.12652 0.29659 0.0
H634 H 0.91558 0.09111 0.33147 0.0
H635 H 0.94564 0.05857 0.34103 0.0
H636 H 0.92232 0.13738 0.27362 0.0
H637 H 0.90466 0.14315 0.37292 0.0
H638 H 0.92877 0.1243 0.36015 0.0
H639 H 0.90357 0.11686 0.36347 0.0
C640 C 0.9743 0.09258 0.31054 0.0
C641 C 0.97045 0.07356 0.32402 0.0
C642 C 0.95705 0.11151 0.30568 0.0
C643 C 0.93577 0.11154 0.31405 0.0
C644 C 0.93188 0.09176 0.32552 0.0
H645 H 0.81147 0.21273 0.31998 0.0
H646 H 0.84005 0.17739 0.31686 0.0
C647 C 0.94905 0.0731 0.33078 0.0
C648 C 0.91784 0.13253 0.31258 0.0
H649 H 0.87904 0.16744 0.34769 0.0
C650 C 0.9129 0.14398 0.2898 0.0
C651 C 0.90565 0.14133 0.33376 0.0
C652 C 0.91105 0.13092 0.35896 0.0
C653 C 0.89584 0.1637 0.28766 0.0
C654 C 0.88343 0.17208 0.30879 0.0
C655 C 0.8884 0.16073 0.3315 0.0
C656 C 0.86592 0.1933 0.30805 0.0
C657 C 0.891 0.17542 0.26289 0.0
C658 C 0.87105 0.21385 0.30409 0.0
C659 C 0.85487 0.23394 0.3062 0.0
C660 C 0.83325 0.23384 0.31218 0.0
C661 C 0.82801 0.21327 0.31536 0.0
C662 C 0.84428 0.19313 0.31355 0.0
H663 H 0.89979 0.16502 0.24805 0.0
H664 H 0.87339 0.17976 0.26063 0.0
H665 H 0.89585 0.19127 0.26113 0.0
H666 H 0.88768 0.21433 0.30013 0.0
H667 H 0.85934 0.24957 0.30353 0.0
H668 H 0.99125 0.96804 0.328 0.0
H669 H 0.96733 0.9452 0.32245 0.0
H670 H 0.95129 0.94025 0.39976 0.0
H671 H 0.97462 0.96402 0.40543 0.0
H672 H 0.96836 0.90231 0.34045 0.0
H673 H 0.89198 0.96225 0.37272 0.0
H674 H 0.91688 0.97013 0.3659 0.0
H675 H 0.91261 0.95424 0.39393 0.0
C676 C 0.98245 0.96243 0.34385 0.0
C677 C 0.98466 0.96822 0.36715 0.0
C678 C 0.96891 0.94915 0.34065 0.0
C679 C 0.95725 0.94132 0.36062 0.0
C680 C 0.9598 0.9465 0.38402 0.0
H681 H 0.864 0.86254 0.36095 0.0
H682 H 0.88944 0.88121 0.3737 0.0
C683 C 0.97334 0.95989 0.38725 0.0
C684 C 0.94251 0.92774 0.35665 0.0
H685 H 0.88939 0.92776 0.36118 0.0
C686 C 0.95111 0.90783 0.34509 0.0
C687 C 0.92 0.93497 0.36273 0.0
C688 C 0.90972 0.95665 0.37432 0.0
C689 C 0.93778 0.89509 0.33917 0.0
C690 C 0.91526 0.90257 0.34477 0.0
C691 C 0.90669 0.92211 0.35694 0.0
C692 C 0.90023 0.89089 0.33711 0.0
C693 C 0.94787 0.87374 0.32691 0.0
C694 C 0.89778 0.89037 0.31234 0.0
C695 C 0.88328 0.87979 0.30502 0.0
C696 C 0.87096 0.86951 0.32235 0.0
C697 C 0.87345 0.87008 0.34718 0.0
C698 C 0.88787 0.88081 0.35449 0.0
H699 H 0.96547 0.86751 0.32924 0.0
H700 H 0.94001 0.86045 0.33421 0.0
H701 H 0.94564 0.87694 0.30715 0.0
H702 H 0.90698 0.89833 0.29867 0.0
H703 H 0.88183 0.8795 0.28577 0.0
H704 H 0.10849 0.98306 0.35435 0.0
H705 H 0.13694 0.94994 0.3437 0.0
H706 H 0.09956 0.93975 0.28772 0.0
H707 H 0.07089 0.97346 0.29812 0.0
H708 H 0.13194 0.90724 0.34715 0.0
H709 H 0.16001 0.93171 0.25293 0.0
H710 H 0.14376 0.95199 0.27297 0.0
H711 H 0.13157 0.9344 0.25879 0.0
C712 C 0.1064 0.97402 0.33948 0.0
C713 C 0.08741 0.98088 0.32709 0.0
C714 C 0.12269 0.95501 0.33347 0.0
C715 C 0.12043 0.94228 0.31496 0.0
C716 C 0.1018 0.94945 0.30189 0.0
H717 H 0.21742 0.80933 0.31592 0.0
H718 H 0.18173 0.83667 0.3136 0.0
C719 C 0.08544 0.96872 0.30781 0.0
C720 C 0.1373 0.92101 0.31064 0.0
H721 H 0.17834 0.8964 0.27034 0.0
C722 C 0.14193 0.90469 0.33023 0.0
C723 C 0.15028 0.91773 0.28857 0.0
C724 C 0.14635 0.93489 0.2671 0.0
C725 C 0.15983 0.88583 0.32887 0.0
C726 C 0.17326 0.88287 0.30704 0.0
C727 C 0.16797 0.89861 0.28701 0.0
C728 C 0.19443 0.86555 0.30583 0.0
C729 C 0.16498 0.87005 0.35133 0.0
C730 C 0.21339 0.87252 0.30126 0.0
C731 C 0.23358 0.85703 0.30236 0.0
C732 C 0.23537 0.83414 0.3081 0.0
C733 C 0.21648 0.8269 0.3117 0.0
C734 C 0.19612 0.84252 0.31049 0.0
H735 H 0.15529 0.87701 0.36782 0.0
H736 H 0.16136 0.85408 0.34881 0.0
H737 H 0.18236 0.86627 0.35454 0.0
H738 H 0.21258 0.89013 0.29759 0.0
H739 H 0.24784 0.86312 0.29921 0.0
H740 H 0.08855 0.97378 0.79706 0.0
H741 H 0.12011 0.94262 0.8078 0.0
H742 H 0.14844 0.94803 0.73454 0.0
H743 H 0.11769 0.97888 0.72393 0.0
H744 H 0.13557 0.90146 0.78803 0.0
H745 H 0.19867 0.94655 0.77307 0.0
H746 H 0.17026 0.96098 0.77589 0.0
H747 H 0.18294 0.95111 0.7472 0.0
C748 C 0.10168 0.9685 0.78341 0.0
C749 C 0.10053 0.97895 0.75966 0.0
C750 C 0.11968 0.95066 0.78952 0.0
C751 C 0.13693 0.94319 0.7721 0.0
C752 C 0.13573 0.95376 0.74853 0.0
H753 H 0.24514 0.83387 0.73771 0.0
H754 H 0.21598 0.86862 0.74051 0.0
C755 C 0.11791 0.97139 0.74244 0.0
C756 C 0.15573 0.92361 0.77759 0.0
H757 H 0.21093 0.90645 0.77036 0.0
C758 C 0.15205 0.90262 0.7847 0.0
C759 C 0.17732 0.92504 0.77326 0.0
C760 C 0.18254 0.94719 0.76719 0.0
C761 C 0.16926 0.88295 0.78615 0.0
C762 C 0.19074 0.8843 0.78051 0.0
C763 C 0.19447 0.90537 0.77445 0.0
C764 C 0.2094 0.86391 0.7794 0.0
C765 C 0.16431 0.8607 0.79255 0.0
C766 C 0.21584 0.84999 0.80042 0.0
C767 C 0.23264 0.8302 0.79888 0.0
C768 C 0.24326 0.82388 0.77626 0.0
C769 C 0.23727 0.83824 0.75537 0.0
C770 C 0.22058 0.85809 0.75696 0.0
H771 H 0.14677 0.86214 0.79269 0.0
H772 H 0.1732 0.84842 0.77944 0.0
H773 H 0.16968 0.854 0.81089 0.0
H774 H 0.20767 0.85429 0.81798 0.0
H775 H 0.23688 0.81953 0.81533 0.0
H776 H 0.09647 0.08951 0.68309 0.0
H777 H 0.12179 0.11159 0.68778 0.0
H778 H 0.10574 0.10917 0.76509 0.0
H779 H 0.08027 0.08772 0.76062 0.0
H780 H 0.1129 0.15516 0.71586 0.0
H781 H 0.17413 0.07988 0.75144 0.0
H782 H 0.1535 0.07823 0.73247 0.0
H783 H 0.14682 0.08296 0.76402 0.0
C784 C 0.09813 0.09396 0.70102 0.0
C785 C 0.08661 0.08654 0.72153 0.0
C786 C 0.11261 0.1065 0.70365 0.0
C787 C 0.11572 0.1117 0.7268 0.0
C788 C 0.1037 0.10504 0.74712 0.0
H789 H 0.19212 0.16612 0.80573 0.0
H790 H 0.16698 0.14903 0.78996 0.0
C791 C 0.08927 0.09262 0.74453 0.0
C792 C 0.13208 0.12332 0.73033 0.0
H793 H 0.17918 0.11525 0.75719 0.0
C794 C 0.1276 0.14649 0.72451 0.0
C795 C 0.15114 0.11182 0.74165 0.0
C796 C 0.15687 0.08681 0.74764 0.0
C797 C 0.14128 0.1587 0.73089 0.0
C798 C 0.15994 0.14727 0.74308 0.0
C799 C 0.16479 0.12396 0.74797 0.0
C800 C 0.17407 0.15916 0.75227 0.0
C801 C 0.13519 0.18378 0.72561 0.0
C802 C 0.18626 0.17065 0.73628 0.0
C803 C 0.20069 0.18042 0.74526 0.0
C804 C 0.20327 0.17865 0.77035 0.0
C805 C 0.1907 0.1675 0.7863 0.0
C806 C 0.17628 0.15782 0.77733 0.0
H807 H 0.11833 0.19044 0.72028 0.0
H808 H 0.13702 0.19212 0.74173 0.0
H809 H 0.14614 0.18827 0.71046 0.0
H810 H 0.18506 0.17152 0.71685 0.0
H811 H 0.21036 0.18867 0.73251 0.0
H812 H 1.00156 0.08447 0.79535 0.0
H813 H 0.9719 0.11689 0.80758 0.0
H814 H 0.9324 0.10347 0.75576 0.0
H815 H 0.96158 0.07151 0.74363 0.0
H816 H 0.95246 0.15491 0.77577 0.0
H817 H 0.89137 0.11278 0.81726 0.0
H818 H 0.91969 0.09822 0.81312 0.0
H819 H 0.90259 0.10288 0.78827 0.0
C820 C 0.98635 0.08818 0.78704 0.0
C821 C 0.98391 0.07537 0.76858 0.0
C822 C 0.96948 0.10678 0.7939 0.0
C823 C 0.94979 0.11252 0.78277 0.0
C824 C 0.94722 0.09923 0.76495 0.0
H825 H 0.83405 0.21085 0.7541 0.0
H826 H 0.86629 0.17941 0.75814 0.0
C827 C 0.96402 0.08096 0.75794 0.0
C828 C 0.93227 0.13315 0.78809 0.0
H829 H 0.87778 0.15121 0.80161 0.0
C830 C 0.93622 0.15417 0.78197 0.0
C831 C 0.91105 0.13222 0.7962 0.0
C832 C 0.90594 0.1103 0.80433 0.0
C833 C 0.91927 0.17411 0.78216 0.0
C834 C 0.89786 0.173 0.78885 0.0
C835 C 0.89414 0.15208 0.79626 0.0
C836 C 0.87884 0.19292 0.78617 0.0
C837 C 0.92417 0.19609 0.77384 0.0
C838 C 0.87514 0.21117 0.80049 0.0
C839 C 0.85661 0.22931 0.79816 0.0
C840 C 0.8415 0.22945 0.78148 0.0
C841 C 0.84542 0.2113 0.76703 0.0
C842 C 0.86383 0.19326 0.76938 0.0
H843 H 0.94105 0.19375 0.76597 0.0
H844 H 0.91299 0.20554 0.76005 0.0
H845 H 0.92172 0.20642 0.78956 0.0
H846 H 0.88632 0.21117 0.81382 0.0
H847 H 0.85385 0.24289 0.80978 0.0
H848 H 1.01466 0.94844 0.70625 0.0
H849 H 0.99112 0.92339 0.71508 0.0
H850 H 0.95073 0.96868 0.7651 0.0
H851 H 0.97409 0.99388 0.75626 0.0
H852 H 0.9787 0.9051 0.76714 0.0
H853 H 0.91068 0.95593 0.71367 0.0
H854 H 0.93803 0.95797 0.70688 0.0
H855 H 0.92242 0.97016 0.73304 0.0
C856 C 1.00065 0.95317 0.71892 0.0
C857 C 0.9962 0.97314 0.73055 0.0
C858 C 0.98733 0.93879 0.72407 0.0
C859 C 0.96923 0.94429 0.74068 0.0
C860 C 0.96463 0.96424 0.75218 0.0
H861 H 0.86423 0.88211 0.77735 0.0
H862 H 0.88807 0.90656 0.77609 0.0
C863 C 0.97802 0.97853 0.7472 0.0
C864 C 0.95521 0.92906 0.7461 0.0
H865 H 0.90617 0.92296 0.73545 0.0
C866 C 0.96282 0.90894 0.76028 0.0
C867 C 0.93449 0.93433 0.73727 0.0
C868 C 0.92582 0.9557 0.72175 0.0
C869 C 0.95013 0.89386 0.76594 0.0
C870 C 0.92956 0.89885 0.75659 0.0
C871 C 0.92191 0.91916 0.74264 0.0
C872 C 0.91599 0.88295 0.76015 0.0
C873 C 0.95876 0.87294 0.78217 0.0
C874 C 0.92384 0.8614 0.75199 0.0
C875 C 0.91035 0.84724 0.75304 0.0
C876 C 0.88859 0.85447 0.76191 0.0
C877 C 0.88095 0.87585 0.77073 0.0
C878 C 0.89451 0.88994 0.76982 0.0
H879 H 0.97087 0.87515 0.79392 0.0
H880 H 0.94558 0.86815 0.79392 0.0
H881 H 0.96687 0.85896 0.77073 0.0
H882 H 0.94021 0.85578 0.74399 0.0
H883 H 0.91683 0.83081 0.74634 0.0
H884 H 0.35982 0.05614 0.17978 0.0
H885 H 0.35272 0.08425 0.20943 0.0
H886 H 0.31981 0.13454 0.15651 0.0
H887 H 0.32658 0.10639 0.12693 0.0
H888 H 0.36485 0.122 0.20892 0.0
H889 H 0.2756 0.14281 0.21366 0.0
H890 H 0.29256 0.11889 0.19899 0.0
H891 H 0.28705 0.14636 0.18323 0.0
C892 C 0.35115 0.0732 0.17444 0.0
C893 C 0.34365 0.07904 0.15106 0.0
C894 C 0.34702 0.08923 0.19143 0.0
C895 C 0.33536 0.11141 0.18537 0.0
C896 C 0.32828 0.1174 0.16185 0.0
H897 H 0.33316 0.23003 0.25319 0.0
H898 H 0.34146 0.19765 0.22934 0.0
C899 C 0.33222 0.10133 0.14492 0.0
C900 C 0.33106 0.12838 0.20345 0.0
H901 H 0.29078 0.16801 0.23106 0.0
C902 C 0.34864 0.13193 0.21392 0.0
C903 C 0.30987 0.14103 0.21037 0.0
C904 C 0.29018 0.13694 0.20118 0.0
C905 C 0.34567 0.14828 0.23051 0.0
C906 C 0.3246 0.16183 0.2363 0.0
C907 C 0.30696 0.15778 0.22643 0.0
C908 C 0.32048 0.18082 0.25183 0.0
C909 C 0.36515 0.1507 0.24178 0.0
C910 C 0.30558 0.18242 0.27221 0.0
C911 C 0.30052 0.20115 0.28578 0.0
C912 C 0.31029 0.21867 0.2792 0.0
C913 C 0.32548 0.21679 0.259 0.0
C914 C 0.33037 0.19817 0.24537 0.0
H915 H 0.37832 0.13484 0.242 0.0
H916 H 0.37144 0.16376 0.23085 0.0
H917 H 0.36101 0.15569 0.26068 0.0
H918 H 0.29766 0.16928 0.27745 0.0
H919 H 0.28872 0.20204 0.30117 0.0
H920 H 0.97528 0.3465 0.17798 0.0
H921 H 0.94063 0.34187 0.1961 0.0
H922 H 0.94334 0.29213 0.14651 0.0
H923 H 0.97777 0.29692 0.12787 0.0
H924 H 0.90081 0.34626 0.17224 0.0
H925 H 0.9353 0.26096 0.21589 0.0
H926 H 0.95168 0.27976 0.20543 0.0
H927 H 0.94261 0.26528 0.184 0.0
C928 C 0.96849 0.33474 0.17068 0.0
C929 C 0.97954 0.32199 0.15149 0.0
C930 C 0.94868 0.33206 0.18116 0.0
C931 C 0.93957 0.31648 0.17283 0.0
C932 C 0.95029 0.30399 0.15346 0.0
H933 H 0.82825 0.2689 0.23037 0.0
H934 H 0.85907 0.27585 0.20469 0.0
C935 C 0.97005 0.30671 0.14289 0.0
C936 C 0.91895 0.31316 0.1846 0.0
H937 H 0.89749 0.27539 0.21997 0.0
C938 C 0.90003 0.33077 0.18265 0.0
C939 C 0.918 0.29289 0.19804 0.0
C940 C 0.93796 0.27364 0.2012 0.0
C941 C 0.88011 0.32862 0.19373 0.0
C942 C 0.87921 0.3085 0.20762 0.0
C943 C 0.89814 0.29079 0.20928 0.0
C944 C 0.85911 0.30568 0.22148 0.0
C945 C 0.86018 0.34781 0.19012 0.0
C946 C 0.8487 0.32024 0.23932 0.0
C947 C 0.83096 0.31643 0.2539 0.0
C948 C 0.82341 0.29776 0.25119 0.0
C949 C 0.83356 0.28348 0.23293 0.0
C950 C 0.85124 0.28738 0.21826 0.0
H951 H 0.86215 0.35849 0.17321 0.0
H952 H 0.84571 0.34171 0.18925 0.0
H953 H 0.85732 0.35847 0.20561 0.0
H954 H 0.85476 0.33414 0.2426 0.0
H955 H 0.82371 0.32768 0.2679 0.0
H956 H 0.78418 0.92584 0.0769 0.0
H957 H 0.77727 0.89933 0.11011 0.0
H958 H 0.82929 0.90854 0.14748 0.0
H959 H 0.83636 0.93512 0.11415 0.0
H960 H 0.83101 0.86467 0.14644 0.0
H961 H 0.74833 0.91169 0.17741 0.0
H962 H 0.75097 0.90794 0.1455 0.0
H963 H 0.76603 0.92441 0.15724 0.0
C964 C 0.79398 0.92248 0.09232 0.0
C965 C 0.81073 0.93272 0.09296 0.0
C966 C 0.78995 0.90736 0.11134 0.0
C967 C 0.80244 0.90235 0.13153 0.0
C968 C 0.81934 0.91233 0.13214 0.0
H969 H 0.77406 0.81927 0.26152 0.0
H970 H 0.77862 0.85138 0.23397 0.0
C971 C 0.82345 0.9274 0.11303 0.0
C972 C 0.79852 0.88577 0.15131 0.0
H973 H 0.75914 0.87261 0.19093 0.0
C974 C 0.81536 0.86653 0.15634 0.0
C975 C 0.77821 0.88838 0.16453 0.0
C976 C 0.75992 0.90933 0.1611 0.0
C977 C 0.81218 0.84939 0.17348 0.0
C978 C 0.79148 0.85136 0.18554 0.0
C979 C 0.77489 0.87101 0.18135 0.0
C980 C 0.7867 0.83278 0.2019 0.0
C981 C 0.83102 0.8293 0.17855 0.0
C982 C 0.78884 0.81206 0.19277 0.0
C983 C 0.78635 0.79382 0.20839 0.0
C984 C 0.78157 0.79601 0.23341 0.0
C985 C 0.77799 0.81712 0.24232 0.0
C986 C 0.78059 0.83542 0.22664 0.0
H987 H 0.84672 0.83312 0.17329 0.0
H988 H 0.83055 0.82335 0.1981 0.0
H989 H 0.8302 0.81548 0.16787 0.0
H990 H 0.79303 0.80984 0.17362 0.0
H991 H 0.789 0.77778 0.20097 0.0
H992 H 0.06378 0.74945 0.06668 0.0
H993 H 0.0873 0.75635 0.09478 0.0
H994 H 0.13123 0.69125 0.08526 0.0
H995 H 0.10743 0.68382 0.05722 0.0
H996 H 0.10309 0.73087 0.13898 0.0
H997 H 0.16844 0.73655 0.06742 0.0
H998 H 0.14128 0.73841 0.06033 0.0
H999 H 0.15914 0.71174 0.06928 0.0
C1000 C 0.07814 0.73629 0.07078 0.0
C1001 C 0.08363 0.71599 0.0595 0.0
C1002 C 0.09169 0.7404 0.0868 0.0
C1003 C 0.11111 0.72446 0.09181 0.0
C1004 C 0.11645 0.70393 0.08127 0.0
H1005 H 0.2155 0.72906 0.17685 0.0
H1006 H 0.19273 0.71935 0.14942 0.0
C1007 C 0.10282 0.69972 0.06526 0.0
C1008 C 0.12584 0.7297 0.10778 0.0
H1009 H 0.17466 0.74089 0.10759 0.0
C1010 C 0.11877 0.73302 0.13218 0.0
C1011 C 0.14623 0.73251 0.09877 0.0
C1012 C 0.15427 0.7298 0.07248 0.0
C1013 C 0.13166 0.73892 0.14793 0.0
C1014 C 0.15192 0.74211 0.13884 0.0
C1015 C 0.15908 0.73855 0.11447 0.0
C1016 C 0.16607 0.74884 0.15442 0.0
C1017 C 0.12361 0.74128 0.17426 0.0
C1018 C 0.15888 0.76899 0.16579 0.0
C1019 C 0.17189 0.77463 0.18146 0.0
C1020 C 0.19244 0.76034 0.18582 0.0
C1021 C 0.19989 0.74059 0.17365 0.0
C1022 C 0.18684 0.73493 0.15809 0.0
H1023 H 0.11089 0.73248 0.17966 0.0
H1024 H 0.13701 0.73453 0.18639 0.0
H1025 H 0.11651 0.75927 0.17712 0.0
H1026 H 0.14311 0.78026 0.16271 0.0
H1027 H 0.16582 0.79008 0.19032 0.0
H1028 H 0.3733 0.98074 0.99166 0.0
H1029 H 0.36568 0.95394 0.96672 0.0
H1030 H 0.3404 0.92165 0.03086 0.0
H1031 H 0.34778 0.94854 0.05577 0.0
H1032 H 0.37696 0.90681 0.96729 0.0
H1033 H 0.28896 0.94254 0.98838 0.0
H1034 H 0.30882 0.95599 0.99527 0.0
H1035 H 0.30414 0.9326 0.01463 0.0
C1036 C 0.36661 0.96759 1.00047 0.0
C1037 C 0.36087 0.96682 0.02557 0.0
C1038 C 0.36215 0.95239 0.98622 0.0
C1039 C 0.35197 0.93623 0.99692 0.0
C1040 C 0.34775 0.93439 0.02221 0.0
H1041 H 0.30106 0.83881 0.93852 0.0
H1042 H 0.31213 0.86217 0.96502 0.0
C1043 C 0.35204 0.94965 0.0364 0.0
C1044 C 0.34462 0.92219 0.98153 0.0
H1045 H 0.29934 0.91067 0.9656 0.0
C1046 C 0.36001 0.90765 0.96686 0.0
C1047 C 0.32245 0.92346 0.981 0.0
C1048 C 0.30509 0.93962 0.99548 0.0
C1049 C 0.35382 0.89405 0.95188 0.0
C1050 C 0.33167 0.8953 0.95141 0.0
C1051 C 0.3163 0.90976 0.96613 0.0
C1052 C 0.32412 0.88194 0.93545 0.0
C1053 C 0.37101 0.87822 0.93689 0.0
C1054 C 0.32666 0.88585 0.91014 0.0
C1055 C 0.32034 0.87263 0.89502 0.0
C1056 C 0.31132 0.85529 0.90497 0.0
C1057 C 0.30813 0.85192 0.93036 0.0
C1058 C 0.3144 0.86523 0.94549 0.0
H1059 H 0.38732 0.87559 0.9434 0.0
H1060 H 0.36748 0.86174 0.93729 0.0
H1061 H 0.37129 0.88533 0.91773 0.0
H1062 H 0.33383 0.89893 0.90211 0.0
H1063 H 0.32326 0.87547 0.87554 0.0
H1064 H 0.10854 0.3563 0.02372 0.0
H1065 H 0.13292 0.35152 0.9868 0.0
H1066 H 0.12417 0.28598 0.98251 0.0
H1067 H 0.09938 0.29086 0.0189 0.0
H1068 H 0.17156 0.31796 0.98033 0.0
H1069 H 0.11411 0.31497 0.91349 0.0
H1070 H 0.10532 0.32539 0.94304 0.0
H1071 H 0.11403 0.29575 0.93989 0.0
C1072 C 0.11155 0.34102 0.01473 0.0
C1073 C 0.102 0.32397 0.02434 0.0
C1074 C 0.12556 0.33827 0.99369 0.0
C1075 C 0.13012 0.31853 0.98172 0.0
C1076 C 0.12057 0.30152 0.99119 0.0
H1077 H 0.21924 0.25845 0.8655 0.0
H1078 H 0.18999 0.26849 0.89721 0.0
C1079 C 0.10662 0.30422 1.01223 0.0
C1080 C 0.14577 0.31517 0.96011 0.0
H1081 H 0.15155 0.30389 0.90043 0.0
C1082 C 0.16715 0.31511 0.96279 0.0
C1083 C 0.13998 0.31134 0.93729 0.0
C1084 C 0.11707 0.31205 0.93311 0.0
C1085 C 0.18305 0.31072 0.94345 0.0
C1086 C 0.17731 0.30673 0.92066 0.0
C1087 C 0.15588 0.30699 0.9179 0.0
C1088 C 0.19355 0.30165 0.89974 0.0
C1089 C 0.20603 0.30964 0.94783 0.0
C1090 C 0.20473 0.31727 0.89004 0.0
C1091 C 0.22149 0.3116 0.87194 0.0
C1092 C 0.2273 0.29022 0.86306 0.0
C1093 C 0.21526 0.27504 0.87191 0.0
C1094 C 0.19853 0.28073 0.89008 0.0
H1095 H 0.20866 0.30772 0.96752 0.0
H1096 H 0.2176 0.29548 0.93892 0.0
H1097 H 0.2097 0.32539 0.94 0.0
H1098 H 0.20082 0.33369 0.89689 0.0
H1099 H 0.23026 0.32379 0.86542 0.0
H1100 H 0.80647 0.07449 0.988 0.0
H1101 H 0.80086 0.11046 0.96398 0.0
H1102 H 0.827 0.07621 0.89941 0.0
H1103 H 0.83298 0.04005 0.92361 0.0
H1104 H 0.84149 0.11278 0.90162 0.0
H1105 H 0.7526 0.13549 0.91921 0.0
H1106 H 0.7662 0.12939 0.94679 0.0
H1107 H 0.76946 0.10767 0.92657 0.0
C1108 C 0.81103 0.07466 0.96868 0.0
C1109 C 0.81993 0.05453 0.95758 0.0
C1110 C 0.80771 0.09518 0.95496 0.0
C1111 C 0.81292 0.09596 0.9298 0.0
C1112 C 0.82266 0.07593 0.91879 0.0
H1113 H 0.76889 0.21675 0.833 0.0
H1114 H 0.77341 0.17973 0.85478 0.0
C1115 C 0.82618 0.05534 0.9326 0.0
C1116 C 0.80825 0.11776 0.91515 0.0
H1117 H 0.76792 0.16515 0.90267 0.0
C1118 C 0.82539 0.12416 0.90168 0.0
C1119 C 0.78713 0.13239 0.91482 0.0
C1120 C 0.76776 0.1258 0.92741 0.0
C1121 C 0.82212 0.14518 0.88864 0.0
C1122 C 0.80125 0.16036 0.88964 0.0
C1123 C 0.78396 0.15363 0.90231 0.0
C1124 C 0.79716 0.18339 0.87785 0.0
C1125 C 0.84102 0.15083 0.87376 0.0
C1126 C 0.80831 0.19802 0.88437 0.0
C1127 C 0.80581 0.2191 0.87198 0.0
C1128 C 0.79189 0.22606 0.85303 0.0
C1129 C 0.7797 0.21191 0.84755 0.0
C1130 C 0.78235 0.19072 0.85987 0.0
H1131 H 0.85379 0.13549 0.86905 0.0
H1132 H 0.83587 0.16103 0.85669 0.0
H1133 H 0.84825 0.16062 0.88449 0.0
H1134 H 0.81933 0.19294 0.8987 0.0
H1135 H 0.81526 0.22968 0.87684 0.0
H1136 H 0.96773 0.76257 0.92857 0.0
H1137 H 0.93712 0.7702 0.90326 0.0
H1138 H 0.93485 0.70159 0.91732 0.0
H1139 H 0.96491 0.69398 0.94318 0.0
H1140 H 0.93262 0.75034 0.86128 0.0
H1141 H 0.87286 0.73691 0.93603 0.0
H1142 H 0.89871 0.74052 0.94151 0.0
H1143 H 0.89671 0.7139 0.93376 0.0
C1144 C 0.9606 0.74915 0.92653 0.0
C1145 C 0.9688 0.72767 0.93814 0.0
C1146 C 0.94319 0.75351 0.91188 0.0
C1147 C 0.93348 0.73656 0.90865 0.0
C1148 C 0.94183 0.71504 0.91986 0.0
H1149 H 0.82466 0.72612 0.83545 0.0
H1150 H 0.85782 0.71923 0.85638 0.0
C1151 C 0.95922 0.71066 0.93447 0.0
C1152 C 0.91464 0.74129 0.89361 0.0
H1153 H 0.86189 0.74031 0.89591 0.0
C1154 C 0.91711 0.74827 0.86885 0.0
C1155 C 0.89439 0.73865 0.90351 0.0
C1156 C 0.89037 0.73229 0.9302 0.0
C1157 C 0.90005 0.75206 0.8536 0.0
C1158 C 0.87988 0.74912 0.86347 0.0
C1159 C 0.87738 0.74239 0.88829 0.0
C1160 C 0.86104 0.75292 0.84857 0.0
C1161 C 0.90395 0.7586 0.82694 0.0
C1162 C 0.85193 0.77408 0.8369 0.0
C1163 C 0.83301 0.77802 0.82483 0.0
C1164 C 0.82275 0.76092 0.82439 0.0
C1165 C 0.83221 0.73961 0.83547 0.0
C1166 C 0.85113 0.73567 0.84749 0.0
H1167 H 0.92145 0.75429 0.82109 0.0
H1168 H 0.89576 0.75025 0.81559 0.0
H1169 H 0.89732 0.77697 0.8235 0.0
H1170 H 0.85899 0.78779 0.83786 0.0
H1171 H 0.82599 0.79466 0.8166 0.0
H1172 H 0.10517 0.33003 0.15606 0.0
H1173 H 0.13405 0.32175 0.18324 0.0
H1174 H 0.14076 0.2511 0.18243 0.0
H1175 H 0.11156 0.25934 0.15451 0.0
H1176 H 0.13758 0.3002 0.22927 0.0
H1177 H 0.20274 0.25533 0.1646 0.0
H1178 H 0.17679 0.27164 0.15486 0.0
H1179 H 0.17948 0.24464 0.17093 0.0
C1180 C 0.11266 0.31264 0.16153 0.0
C1181 C 0.10595 0.29535 0.15284 0.0
C1182 C 0.12925 0.30795 0.17726 0.0
C1183 C 0.13984 0.28581 0.18488 0.0
C1184 C 0.1331 0.26835 0.17658 0.0
H1185 H 0.23704 0.26798 0.29497 0.0
H1186 H 0.20571 0.26372 0.27569 0.0
C1187 C 0.11632 0.27307 0.16069 0.0
C1188 C 0.15802 0.28166 0.20114 0.0
H1189 H 0.21304 0.26236 0.20179 0.0
C1190 C 0.15404 0.29156 0.22345 0.0
C1191 C 0.17959 0.27056 0.19356 0.0
C1192 C 0.18509 0.26003 0.16963 0.0
C1193 C 0.17095 0.29139 0.23781 0.0
C1194 C 0.19255 0.28093 0.22983 0.0
C1195 C 0.19649 0.2703 0.208 0.0
C1196 C 0.21136 0.28312 0.24224 0.0
C1197 C 0.16572 0.3035 0.26076 0.0
C1198 C 0.22507 0.29526 0.22998 0.0
C1199 C 0.24267 0.29788 0.24106 0.0
C1200 C 0.2472 0.28836 0.26472 0.0
C1201 C 0.23364 0.276 0.27703 0.0
C1202 C 0.21582 0.27346 0.26593 0.0
H1203 H 0.14851 0.31327 0.26277 0.0
H1204 H 0.16913 0.29113 0.27672 0.0
H1205 H 0.17604 0.31505 0.26096 0.0
H1206 H 0.22206 0.30289 0.21176 0.0
H1207 H 0.25284 0.30738 0.23095 0.0
H1208 H 0.06121 0.757 0.93465 0.0
H1209 H 0.09356 0.7565 0.90734 0.0
H1210 H 0.12086 0.7818 0.96258 0.0
H1211 H 0.08893 0.78183 0.99009 0.0
H1212 H 0.11432 0.7873 0.88754 0.0
H1213 H 0.16813 0.72602 0.94918 0.0
H1214 H 0.1391 0.73271 0.95383 0.0
H1215 H 0.15351 0.75089 0.96345 0.0
C1216 C 0.07396 0.76276 0.94089 0.0
C1217 C 0.07243 0.76932 0.96472 0.0
C1218 C 0.09255 0.76237 0.92525 0.0
C1219 C 0.11006 0.7685 0.93303 0.0
C1220 C 0.10798 0.77628 0.9563 0.0
H1221 H 0.23687 0.77703 0.86987 0.0
H1222 H 0.20332 0.77874 0.89525 0.0
C1223 C 0.08953 0.77652 0.97198 0.0
C1224 C 0.13059 0.76639 0.9171 0.0
H1225 H 0.18534 0.743 0.91568 0.0
C1226 C 0.12981 0.77748 0.89367 0.0
C1227 C 0.15095 0.7535 0.92489 0.0
C1228 C 0.15302 0.73991 0.9491 0.0
C1229 C 0.14871 0.77654 0.87823 0.0
C1230 C 0.16904 0.76395 0.88622 0.0
C1231 C 0.16983 0.75274 0.90954 0.0
C1232 C 0.18969 0.76238 0.87077 0.0
C1233 C 0.14685 0.78949 0.85367 0.0
C1234 C 0.19356 0.75216 0.8487 0.0
C1235 C 0.21288 0.75097 0.83418 0.0
C1236 C 0.22882 0.76002 0.84134 0.0
C1237 C 0.22504 0.76988 0.86368 0.0
C1238 C 0.2058 0.77091 0.87825 0.0
H1239 H 0.13096 0.80213 0.85234 0.0
H1240 H 0.15984 0.79813 0.84982 0.0
H1241 H 0.14862 0.77771 0.83943 0.0
H1242 H 0.18161 0.74509 0.84266 0.0
H1243 H 0.21514 0.74326 0.81714 0.0
H1244 H 0.29255 0.07636 0.02012 0.0
H1245 H 0.28447 0.10308 0.98417 0.0
H1246 H 0.33369 0.13305 1.00013 0.0
H1247 H 0.34198 0.10652 0.0355 0.0
H1248 H 0.27147 0.14946 0.97796 0.0
H1249 H 0.35184 0.11825 0.9303 0.0
H1250 H 0.34238 0.10299 0.95651 0.0
H1251 H 0.35395 0.1255 0.96026 0.0
C1252 C 0.30152 0.08876 0.01602 0.0
C1253 C 0.31806 0.08911 0.0306 0.0
C1254 C 0.29695 0.10397 0.99542 0.0
C1255 C 0.30889 0.11971 0.98901 0.0
C1256 C 0.3247 0.12066 1.00419 0.0
H1257 H 0.2851 0.24636 0.90905 0.0
H1258 H 0.28621 0.2137 0.93749 0.0
C1259 C 0.32931 0.10552 0.02459 0.0
C1260 C 0.30496 0.13542 0.96671 0.0
H1261 H 0.33133 0.15528 0.91663 0.0
C1262 C 0.28448 0.15051 0.96436 0.0
C1263 C 0.32173 0.13654 0.94853 0.0
C1264 C 0.34364 0.11978 0.94886 0.0
C1265 C 0.28073 0.16752 0.94524 0.0
C1266 C 0.29802 0.16981 0.92827 0.0
C1267 C 0.31811 0.15383 0.92976 0.0
C1268 C 0.29618 0.18965 0.91024 0.0
C1269 C 0.25827 0.18299 0.9436 0.0
C1270 C 0.30193 0.18717 0.88531 0.0
C1271 C 0.30154 0.206 0.86888 0.0
C1272 C 0.29557 0.22759 0.87717 0.0
C1273 C 0.2897 0.22997 0.90204 0.0
C1274 C 0.29012 0.21127 0.91835 0.0
H1275 H 0.24587 0.17453 0.9516 0.0
H1276 H 0.25669 0.19768 0.95406 0.0
H1277 H 0.25485 0.18904 0.92449 0.0
H1278 H 0.30688 0.17066 0.8786 0.0
H1279 H 0.30621 0.20365 0.84983 0.0
H1280 H 1.01437 0.25713 0.08063 0.0
H1281 H 0.9919 0.24546 0.05368 0.0
H1282 H 1.01077 0.28827 0.99461 0.0
H1283 H 0.03282 0.29993 0.02125 0.0
H1284 H 0.9567 0.27635 0.02964 0.0
H1285 H 1.0172 0.22996 0.96251 0.0
H1286 H 0.02401 0.23456 0.99204 0.0
H1287 H 0.02148 0.25631 0.96767 0.0
C1288 C 1.01423 0.2634 0.06168 0.0
C1289 C 0.02554 0.27923 0.05294 0.0
C1290 C 1.00124 0.25692 0.04635 0.0
C1291 C 0.99977 0.2658 0.02197 0.0
C1292 C 1.01187 0.28083 1.01313 0.0
H1293 H 0.92719 0.28391 0.89715 0.0
H1294 H 0.95288 0.28077 0.92765 0.0
C1295 C 0.02448 0.28752 0.02842 0.0
C1296 C 0.98426 0.26131 1.00611 0.0
H1297 H 0.98111 0.24477 0.94994 0.0
C1298 C 0.96201 0.26902 1.01243 0.0
C1299 C 0.99115 0.25192 0.98354 0.0
C1300 C 1.01477 0.24251 0.97609 0.0
C1301 C 0.94653 0.26874 0.99628 0.0
C1302 C 0.95345 0.26005 0.97331 0.0
C1303 C 0.97571 0.25153 0.96743 0.0
C1304 C 0.93801 0.26093 0.95453 0.0
C1305 C 0.92297 0.2789 1.00347 0.0
C1306 C 0.92117 0.25048 0.95911 0.0
C1307 C 0.90637 0.25222 0.94157 0.0
C1308 C 0.90816 0.26426 0.91888 0.0
C1309 C 0.92538 0.27422 0.91419 0.0
C1310 C 0.94009 0.27254 0.93173 0.0
H1311 H 0.92072 0.2895 0.01896 0.0
H1312 H 0.91461 0.28926 0.98796 0.0
H1313 H 0.91508 0.2653 1.00908 0.0
H1314 H 0.91945 0.24096 0.97628 0.0
H1315 H 0.89357 0.24403 0.94576 0.0
H1316 H 0.80764 0.9228 0.97753 0.0
H1317 H 0.79604 0.90391 0.94734 0.0
H1318 H 0.73779 0.95791 0.94127 0.0
H1319 H 0.74961 0.97741 0.97155 0.0
H1320 H 0.7599 0.88894 0.94701 0.0
H1321 H 0.76376 0.95336 0.87066 0.0
H1322 H 0.77535 0.95298 0.89906 0.0
H1323 H 0.74663 0.9627 0.89722 0.0
C1324 C 0.79229 0.93075 0.96992 0.0
C1325 C 0.77963 0.95175 0.97684 0.0
C1326 C 0.78566 0.91985 0.95265 0.0
C1327 C 0.7662 0.9296 0.94178 0.0
C1328 C 0.75306 0.95026 0.94913 0.0
H1329 H 0.73117 0.8415 0.84753 0.0
H1330 H 0.72723 0.86881 0.8775 0.0
C1331 C 0.75974 0.96129 0.96655 0.0
C1332 C 0.76036 0.9179 0.92252 0.0
H1333 H 0.75676 0.9203 0.86118 0.0
C1334 C 0.75886 0.8959 0.92829 0.0
C1335 C 0.75926 0.92695 0.89807 0.0
C1336 C 0.76147 0.95023 0.89069 0.0
C1337 C 0.75725 0.88237 0.91021 0.0
C1338 C 0.75654 0.89127 0.88567 0.0
C1339 C 0.75719 0.91357 0.88 0.0
C1340 C 0.75719 0.87704 0.86553 0.0
C1341 C 0.75763 0.85825 0.91744 0.0
C1342 C 0.77473 0.87347 0.84797 0.0
C1343 C 0.7769 0.8581 0.83058 0.0
C1344 C 0.76157 0.8459 0.83047 0.0
C1345 C 0.74342 0.85038 0.84728 0.0
C1346 C 0.74118 0.86592 0.86452 0.0
H1347 H 0.76307 0.85279 0.93602 0.0
H1348 H 0.74111 0.85629 0.91721 0.0
H1349 H 0.76848 0.84696 0.90451 0.0
H1350 H 0.78725 0.88191 0.84832 0.0
H1351 H 0.79107 0.85511 0.81792 0.0
H1352 H 0.97178 0.71418 0.06334 0.0
H1353 H 0.94688 0.72145 0.0991 0.0
H1354 H 0.95125 0.78948 0.09454 0.0
H1355 H 0.97655 0.78229 0.05807 0.0
H1356 H 0.95507 0.73445 0.14331 0.0
H1357 H 0.88523 0.79655 0.10259 0.0
H1358 H 0.9067 0.779 0.08428 0.0
H1359 H 0.91109 0.80244 0.09724 0.0
C1360 C 0.96749 0.73082 0.06968 0.0
C1361 C 0.97632 0.74765 0.05764 0.0
C1362 C 0.95316 0.73492 0.0903 0.0
C1363 C 0.94699 0.75602 0.0996 0.0
C1364 C 0.9555 0.7731 0.08758 0.0
H1365 H 0.85476 0.79562 0.22595 0.0
H1366 H 0.88095 0.79572 0.19097 0.0
C1367 C 0.97003 0.76896 0.06676 0.0
C1368 C 0.93226 0.75934 0.12233 0.0
H1369 H 0.88102 0.78557 0.14427 0.0
C1370 C 0.93893 0.74576 0.14352 0.0
C1371 C 0.9112 0.77414 0.12279 0.0
C1372 C 0.90294 0.78882 0.10053 0.0
C1373 C 0.92515 0.74629 0.16489 0.0
C1374 C 0.90376 0.76041 0.16509 0.0
C1375 C 0.8973 0.77458 0.14416 0.0
C1376 C 0.88778 0.7603 0.18661 0.0
C1377 C 0.93376 0.73177 0.18713 0.0
C1378 C 0.88256 0.74042 0.19587 0.0
C1379 C 0.86755 0.7403 0.21596 0.0
C1380 C 0.85719 0.76011 0.22722 0.0
C1381 C 0.86235 0.78002 0.21782 0.0
C1382 C 0.87736 0.78012 0.19773 0.0
H1383 H 0.95166 0.72764 0.18652 0.0
H1384 H 0.92697 0.74009 0.20403 0.0
H1385 H 0.92922 0.7158 0.18793 0.0
H1386 H 0.8899 0.72497 0.18735 0.0
H1387 H 0.86386 0.7247 0.22244 0.0
H1388 H 0.29671 1.00207 0.16908 0.0
H1389 H 0.29225 0.96668 0.18891 0.0
H1390 H 0.29746 0.94028 0.11903 0.0
H1391 H 0.30231 0.97565 0.09895 0.0
H1392 H 0.26301 0.94216 0.18623 0.0
H1393 H 0.34567 0.89473 0.15421 0.0
H1394 H 0.33685 0.92493 0.15168 0.0
H1395 H 0.32866 0.90932 0.13064 0.0
C1396 C 0.29666 0.98887 0.15783 0.0
C1397 C 0.30003 0.99173 0.13238 0.0
C1398 C 0.29411 0.96859 0.16924 0.0
C1399 C 0.29495 0.9506 0.15555 0.0
C1400 C 0.29721 0.95373 0.13005 0.0
H1401 H 0.2653 0.82814 0.22626 0.0
H1402 H 0.26562 0.86098 0.19811 0.0
C1403 C 0.29976 0.97408 0.11857 0.0
C1404 C 0.29426 0.92848 0.16821 0.0
H1405 H 0.32442 0.87423 0.17812 0.0
C1406 C 0.27635 0.92726 0.18429 0.0
C1407 C 0.31181 0.90907 0.16597 0.0
C1408 C 0.33194 0.90949 0.14987 0.0
C1409 C 0.2756 0.90732 0.19833 0.0
C1410 C 0.29311 0.88788 0.196 0.0
C1411 C 0.31092 0.88904 0.17974 0.0
C1412 C 0.29386 0.86668 0.21147 0.0
C1413 C 0.25642 0.90749 0.21625 0.0
C1414 C 0.31016 0.85827 0.22765 0.0
C1415 C 0.31014 0.83938 0.24364 0.0
C1416 C 0.29385 0.82833 0.24377 0.0
C1417 C 0.27808 0.83619 0.22676 0.0
C1418 C 0.27812 0.85513 0.21076 0.0
H1419 H 0.2468 0.92479 0.21973 0.0
H1420 H 0.24572 0.89899 0.20884 0.0
H1421 H 0.26167 0.89836 0.23382 0.0
H1422 H 0.32256 0.86678 0.22847 0.0
H1423 H 0.32258 0.83386 0.2564 0.0
H1424 H 0.74557 0.05001 0.06474 0.0
H1425 H 0.73221 0.08368 0.08762 0.0
H1426 H 0.7969 0.09085 0.08447 0.0
H1427 H 0.81021 0.05778 0.06195 0.0
H1428 H 0.74674 0.08986 0.1333 0.0
H1429 H 0.76099 0.15388 0.06194 0.0
H1430 H 0.75919 0.12675 0.05511 0.0
H1431 H 0.78403 0.12999 0.06434 0.0
C1432 C 0.75683 0.05895 0.06876 0.0
C1433 C 0.77895 0.05119 0.06158 0.0
C1434 C 0.7492 0.07813 0.08181 0.0
C1435 C 0.76353 0.08996 0.08736 0.0
C1436 C 0.78549 0.08228 0.07996 0.0
H1437 H 0.78894 0.17885 0.17631 0.0
H1438 H 0.78662 0.15415 0.14582 0.0
C1439 C 0.79309 0.06319 0.06724 0.0
C1440 C 0.75635 0.10949 0.10227 0.0
H1441 H 0.76061 0.16275 0.1035 0.0
C1442 C 0.74917 0.10603 0.12669 0.0
C1443 C 0.75959 0.13054 0.09357 0.0
C1444 C 0.76617 0.13561 0.06723 0.0
C1445 C 0.74671 0.12251 0.14305 0.0
C1446 C 0.75131 0.14302 0.13464 0.0
C1447 C 0.75724 0.14695 0.10993 0.0
C1448 C 0.75202 0.15965 0.15162 0.0
C1449 C 0.74054 0.11737 0.16952 0.0
C1450 C 0.73323 0.17143 0.16448 0.0
C1451 C 0.73446 0.18579 0.18179 0.0
C1452 C 0.75453 0.1886 0.18659 0.0
C1453 C 0.77319 0.17736 0.17294 0.0
C1454 C 0.77192 0.1631 0.15559 0.0
H1455 H 0.74044 0.09958 0.17365 0.0
H1456 H 0.75191 0.12114 0.18118 0.0
H1457 H 0.72414 0.12809 0.1744 0.0
H1458 H 0.71767 0.16926 0.16138 0.0
H1459 H 0.7197 0.19447 0.19163 0.0
H1460 H 0.5742 0.58618 0.82933 0.0
H1461 H 0.59689 0.61196 0.82459 0.0
H1462 H 0.61307 0.59481 0.89899 0.0
H1463 H 0.59053 0.56872 0.90387 0.0
H1464 H 0.60053 0.64132 0.88548 0.0
H1465 H 0.66328 0.59563 0.81935 0.0
H1466 H 0.63609 0.60101 0.81082 0.0
H1467 H 0.64449 0.58273 0.83736 0.0
C1468 C 0.5828 0.5876 0.84462 0.0
C1469 C 0.58065 0.57522 0.86695 0.0
C1470 C 0.59576 0.60238 0.84186 0.0
C1471 C 0.60693 0.60499 0.86131 0.0
C1472 C 0.60465 0.59292 0.88372 0.0
H1473 H 0.68836 0.6911 0.88081 0.0
H1474 H 0.66769 0.6633 0.88618 0.0
C1475 C 0.59168 0.57811 0.88651 0.0
C1476 C 0.62044 0.62087 0.85844 0.0
H1477 H 0.66429 0.63237 0.82597 0.0
C1478 C 0.61456 0.63931 0.87261 0.0
C1479 C 0.63867 0.61819 0.84156 0.0
C1480 C 0.64617 0.59822 0.82654 0.0
C1481 C 0.62618 0.65547 0.86995 0.0
C1482 C 0.64437 0.65284 0.853 0.0
C1483 C 0.65031 0.63433 0.83892 0.0
C1484 C 0.65739 0.6692 0.84955 0.0
C1485 C 0.61855 0.67551 0.88486 0.0
C1486 C 0.65897 0.68121 0.82695 0.0
C1487 C 0.67081 0.69708 0.8238 0.0
C1488 C 0.68132 0.70114 0.8432 0.0
C1489 C 0.68009 0.68867 0.86566 0.0
C1490 C 0.6683 0.67279 0.86876 0.0
H1491 H 0.60153 0.67789 0.89229 0.0
H1492 H 0.62878 0.67301 0.9004 0.0
H1493 H 0.6199 0.69103 0.87384 0.0
H1494 H 0.65073 0.67858 0.81187 0.0
H1495 H 0.67132 0.70652 0.80635 0.0
H1496 H 0.48178 0.59391 0.8527 0.0
H1497 H 0.44875 0.62078 0.83997 0.0
H1498 H 0.44809 0.58144 0.78065 0.0
H1499 H 0.48167 0.55417 0.79338 0.0
H1500 H 0.43918 0.64588 0.79265 0.0
H1501 H 0.38816 0.58784 0.82259 0.0
H1502 H 0.41463 0.58342 0.83333 0.0
H1503 H 0.41207 0.57813 0.80276 0.0
C1504 C 0.47481 0.59102 0.83675 0.0
C1505 C 0.48433 0.57185 0.82409 0.0
C1506 C 0.4559 0.60645 0.82949 0.0
C1507 C 0.44579 0.60304 0.80954 0.0
C1508 C 0.45555 0.5843 0.79624 0.0
H1509 H 0.33248 0.71118 0.76467 0.0
H1510 H 0.36478 0.67945 0.76221 0.0
C1511 C 0.4748 0.56885 0.80338 0.0
C1512 C 0.42469 0.61896 0.80371 0.0
H1513 H 0.37019 0.62525 0.81129 0.0
C1514 C 0.42409 0.6413 0.79622 0.0
C1515 C 0.40502 0.61301 0.80879 0.0
C1516 C 0.40477 0.58935 0.81742 0.0
C1517 C 0.4044 0.65798 0.79435 0.0
C1518 C 0.38469 0.65215 0.79999 0.0
C1519 C 0.38528 0.62968 0.80685 0.0
C1520 C 0.3635 0.66951 0.80073 0.0
C1521 C 0.40484 0.68192 0.78754 0.0
C1522 C 0.35142 0.67389 0.82303 0.0
C1523 C 0.33284 0.69196 0.82448 0.0
C1524 C 0.3259 0.70594 0.80363 0.0
C1525 C 0.33734 0.70074 0.78109 0.0
C1526 C 0.35593 0.68269 0.77966 0.0
H1527 H 0.42124 0.68419 0.78807 0.0
H1528 H 0.39969 0.68694 0.76881 0.0
H1529 H 0.39348 0.69335 0.79996 0.0
H1530 H 0.35689 0.6639 0.83952 0.0
H1531 H 0.32439 0.69549 0.84208 0.0
H1532 H 0.46372 0.49942 0.84552 0.0
H1533 H 0.43711 0.48054 0.83682 0.0
H1534 H 0.47213 0.4201 0.87603 0.0
H1535 H 0.49879 0.43892 0.88482 0.0
H1536 H 0.44465 0.44309 0.81115 0.0
H1537 H 0.4102 0.42775 0.90486 0.0
H1538 H 0.42654 0.44707 0.89735 0.0
H1539 H 0.43908 0.41747 0.90121 0.0
C1540 C 0.46569 0.48214 0.85237 0.0
C1541 C 0.48336 0.47064 0.86584 0.0
C1542 C 0.45047 0.4714 0.84744 0.0
C1543 C 0.45256 0.449 0.85595 0.0
C1544 C 0.46999 0.43754 0.8697 0.0
H1545 H 0.39472 0.35419 0.8043 0.0
H1546 H 0.41856 0.37711 0.81083 0.0
C1547 C 0.4852 0.44831 0.87474 0.0
C1548 C 0.43699 0.4374 0.84954 0.0
H1549 H 0.40071 0.40915 0.87402 0.0
C1550 C 0.43493 0.43576 0.82487 0.0
C1551 C 0.42419 0.4281 0.86748 0.0
C1552 C 0.42491 0.43033 0.8942 0.0
C1553 C 0.42066 0.4247 0.81765 0.0
C1554 C 0.40842 0.41473 0.83562 0.0
C1555 C 0.41022 0.4167 0.86027 0.0
C1556 C 0.39366 0.40206 0.82942 0.0
C1557 C 0.41862 0.42402 0.79089 0.0
C1558 C 0.37179 0.40849 0.83769 0.0
C1559 C 0.35822 0.39529 0.8343 0.0
C1560 C 0.36628 0.37533 0.8226 0.0
C1561 C 0.38805 0.36937 0.81353 0.0
C1562 C 0.40164 0.38257 0.81702 0.0
H1563 H 0.42432 0.43747 0.77987 0.0
H1564 H 0.42867 0.40769 0.78485 0.0
H1565 H 0.40163 0.42578 0.78714 0.0
H1566 H 0.36535 0.42342 0.84741 0.0
H1567 H 0.34167 0.4002 0.84192 0.0
H1568 H 0.58522 0.46449 0.79756 0.0
H1569 H 0.61648 0.43257 0.78793 0.0
H1570 H 0.64656 0.44215 0.85053 0.0
H1571 H 0.61582 0.47347 0.86024 0.0
H1572 H 0.66255 0.42809 0.78012 0.0
H1573 H 0.64338 0.37678 0.86211 0.0
H1574 H 0.62409 0.40156 0.85018 0.0
H1575 H 0.6444 0.40395 0.86898 0.0
C1576 C 0.59864 0.4599 0.80905 0.0
C1577 C 0.59787 0.47136 0.82985 0.0
C1578 C 0.61644 0.44164 0.80359 0.0
C1579 C 0.63363 0.43462 0.81888 0.0
C1580 C 0.63328 0.44684 0.83882 0.0
H1581 H 0.76578 0.36078 0.80982 0.0
H1582 H 0.73046 0.38778 0.80674 0.0
C1583 C 0.61565 0.46486 0.84429 0.0
C1584 C 0.65194 0.41438 0.81479 0.0
H1585 H 0.67984 0.36572 0.84442 0.0
C1586 C 0.66616 0.41425 0.79396 0.0
C1587 C 0.65649 0.39605 0.83258 0.0
C1588 C 0.64116 0.39442 0.8546 0.0
C1589 C 0.68547 0.397 0.79123 0.0
C1590 C 0.69089 0.37966 0.81006 0.0
C1591 C 0.67595 0.37909 0.83011 0.0
C1592 C 0.7125 0.3629 0.81027 0.0
C1593 C 0.69994 0.39768 0.76828 0.0
C1594 C 0.71432 0.33979 0.81399 0.0
C1595 C 0.7346 0.32426 0.81615 0.0
C1596 C 0.75344 0.33155 0.81465 0.0
C1597 C 0.75159 0.35462 0.81088 0.0
C1598 C 0.73137 0.37009 0.80882 0.0
H1599 H 0.69049 0.40656 0.75279 0.0
H1600 H 0.71179 0.40695 0.77103 0.0
H1601 H 0.70891 0.38057 0.7634 0.0
H1602 H 0.70001 0.33378 0.81547 0.0
H1603 H 0.7355 0.30661 0.81933 0.0
H1604 H 0.58864 0.48784 0.30323 0.0
H1605 H 0.62008 0.45662 0.31422 0.0
H1606 H 0.63918 0.44882 0.23825 0.0
H1607 H 0.60854 0.47958 0.22724 0.0
H1608 H 0.63103 0.41181 0.30183 0.0
H1609 H 0.69484 0.45174 0.2643 0.0
H1610 H 0.6671 0.46758 0.27005 0.0
H1611 H 0.67558 0.45357 0.24248 0.0
C1612 C 0.59967 0.47953 0.28894 0.0
C1613 C 0.59607 0.48635 0.26437 0.0
C1614 C 0.6176 0.46172 0.29522 0.0
C1615 C 0.63227 0.45068 0.27703 0.0
C1616 C 0.62848 0.45741 0.25262 0.0
H1617 H 0.73253 0.33329 0.24727 0.0
H1618 H 0.70434 0.36901 0.24788 0.0
C1619 C 0.61075 0.475 0.24638 0.0
C1620 C 0.6511 0.43143 0.28292 0.0
H1621 H 0.70528 0.41127 0.26847 0.0
C1622 C 0.64735 0.41181 0.29504 0.0
C1623 C 0.67242 0.43142 0.27405 0.0
C1624 C 0.67777 0.4523 0.26222 0.0
C1625 C 0.66411 0.39186 0.2972 0.0
C1626 C 0.68515 0.3916 0.28709 0.0
C1627 C 0.68909 0.41145 0.27597 0.0
C1628 C 0.703 0.37061 0.2868 0.0
C1629 C 0.65905 0.37091 0.3092 0.0
C1630 C 0.71193 0.35998 0.3084 0.0
C1631 C 0.72808 0.33968 0.30807 0.0
C1632 C 0.73555 0.32962 0.28612 0.0
C1633 C 0.72704 0.34061 0.26442 0.0
C1634 C 0.71095 0.36099 0.26477 0.0
H1635 H 0.64141 0.37314 0.31303 0.0
H1636 H 0.66564 0.35676 0.29752 0.0
H1637 H 0.66685 0.36627 0.32665 0.0
H1638 H 0.70626 0.36728 0.32555 0.0
H1639 H 0.73444 0.33165 0.32507 0.0
H1640 H 0.61745 0.5565 0.24526 0.0
H1641 H 0.64616 0.57348 0.2514 0.0
H1642 H 0.61222 0.63483 0.21288 0.0
H1643 H 0.58338 0.61786 0.20661 0.0
H1644 H 0.65636 0.62282 0.20015 0.0
H1645 H 0.64026 0.61984 0.3003 0.0
H1646 H 0.64517 0.59307 0.2883 0.0
H1647 H 0.62174 0.6152 0.28035 0.0
C1648 C 0.61605 0.57363 0.23816 0.0
C1649 C 0.59799 0.58592 0.22571 0.0
C1650 C 0.63246 0.58332 0.24171 0.0
C1651 C 0.63108 0.60558 0.23309 0.0
C1652 C 0.61351 0.61766 0.21984 0.0
H1653 H 0.70756 0.6855 0.28234 0.0
H1654 H 0.67836 0.67051 0.27292 0.0
C1655 C 0.5971 0.60792 0.21617 0.0
C1656 C 0.6479 0.61625 0.23816 0.0
H1657 H 0.67256 0.62899 0.2844 0.0
C1658 C 0.65985 0.62428 0.21856 0.0
C1659 C 0.65218 0.61847 0.2622 0.0
C1660 C 0.63903 0.6114 0.28401 0.0
C1661 C 0.67636 0.63397 0.22235 0.0
C1662 C 0.68127 0.63528 0.24639 0.0
C1663 C 0.66895 0.62774 0.26598 0.0
C1664 C 0.69904 0.64451 0.25169 0.0
C1665 C 0.68816 0.643 0.20058 0.0
C1666 C 0.72042 0.63469 0.24316 0.0
C1667 C 0.73714 0.64334 0.24833 0.0
C1668 C 0.73284 0.66189 0.26233 0.0
C1669 C 0.71142 0.67144 0.27118 0.0
C1670 C 0.69472 0.66281 0.26594 0.0
H1671 H 0.67861 0.64652 0.18432 0.0
H1672 H 0.69192 0.65862 0.20433 0.0
H1673 H 0.7036 0.63037 0.19615 0.0
H1674 H 0.72422 0.62025 0.23258 0.0
H1675 H 0.75338 0.63568 0.24103 0.0
H1676 H 0.50107 0.59567 0.30157 0.0
H1677 H 0.47156 0.62815 0.3139 0.0
H1678 H 0.43447 0.61942 0.25689 0.0
H1679 H 0.46357 0.58762 0.24445 0.0
H1680 H 0.43807 0.66277 0.25628 0.0
H1681 H 0.41117 0.63212 0.34859 0.0
H1682 H 0.43941 0.6305 0.34262 0.0
H1683 H 0.42767 0.61335 0.32718 0.0
C1684 C 0.48644 0.60051 0.29201 0.0
C1685 C 0.48472 0.58914 0.27196 0.0
C1686 C 0.4696 0.61906 0.29904 0.0
C1687 C 0.45078 0.62628 0.28626 0.0
C1688 C 0.44885 0.61433 0.26691 0.0
H1689 H 0.32102 0.7003 0.3048 0.0
H1690 H 0.3569 0.67415 0.30509 0.0
C1691 C 0.46555 0.59607 0.25985 0.0
C1692 C 0.43322 0.64676 0.2918 0.0
H1693 H 0.39106 0.66731 0.33278 0.0
C1694 C 0.42797 0.66397 0.27316 0.0
C1695 C 0.42003 0.64825 0.31379 0.0
C1696 C 0.42465 0.63007 0.33423 0.0
C1697 C 0.40931 0.68197 0.27534 0.0
C1698 C 0.39569 0.68313 0.29706 0.0
C1699 C 0.40153 0.66649 0.31619 0.0
C1700 C 0.37406 0.69971 0.29901 0.0
C1701 C 0.40365 0.69874 0.25375 0.0
C1702 C 0.3716 0.72297 0.29599 0.0
C1703 C 0.35092 0.73807 0.29553 0.0
C1704 C 0.33241 0.73013 0.29832 0.0
C1705 C 0.33495 0.70696 0.30237 0.0
C1706 C 0.3555 0.69195 0.30269 0.0
H1707 H 0.41355 0.69294 0.23692 0.0
H1708 H 0.38634 0.70208 0.2504 0.0
H1709 H 0.40661 0.71475 0.25744 0.0
H1710 H 0.38564 0.72942 0.29361 0.0
H1711 H 0.34944 0.75585 0.2926 0.0
H1712 H 0.50438 0.46861 0.20397 0.0
H1713 H 0.48193 0.44264 0.21336 0.0
H1714 H 0.4571 0.47306 0.2804 0.0
H1715 H 0.47924 0.49923 0.27107 0.0
H1716 H 0.47079 0.42594 0.28574 0.0
H1717 H 0.41594 0.45673 0.21113 0.0
H1718 H 0.4442 0.44987 0.20144 0.0
H1719 H 0.43286 0.4727 0.22027 0.0
C1720 C 0.49394 0.47001 0.22055 0.0
C1721 C 0.49367 0.48606 0.23675 0.0
C1722 C 0.48113 0.45511 0.2259 0.0
C1723 C 0.4677 0.45606 0.24747 0.0
C1724 C 0.46737 0.47203 0.26366 0.0
H1725 H 0.36508 0.38985 0.28041 0.0
H1726 H 0.3865 0.417 0.27501 0.0
C1727 C 0.48014 0.48693 0.25833 0.0
C1728 C 0.45435 0.44009 0.25348 0.0
H1729 H 0.41343 0.42307 0.23387 0.0
C1730 C 0.4582 0.42534 0.27445 0.0
C1731 C 0.43776 0.43954 0.23889 0.0
C1732 C 0.43224 0.45567 0.21679 0.0
C1733 C 0.44616 0.40976 0.28099 0.0
C1734 C 0.43002 0.40875 0.266 0.0
C1735 C 0.42591 0.42378 0.24527 0.0
C1736 C 0.41729 0.39212 0.27129 0.0
C1737 C 0.45064 0.39469 0.30404 0.0
C1738 C 0.42752 0.36912 0.27123 0.0
C1739 C 0.41533 0.35355 0.27447 0.0
C1740 C 0.39266 0.36069 0.27772 0.0
C1741 C 0.38252 0.38375 0.27832 0.0
C1742 C 0.39471 0.3993 0.27503 0.0
H1743 H 0.45925 0.40143 0.31656 0.0
H1744 H 0.43542 0.39242 0.31369 0.0
H1745 H 0.46098 0.378 0.29941 0.0
H1746 H 0.44489 0.36322 0.26802 0.0
H1747 H 0.42365 0.33591 0.27406 0.0
H1748 H 0.78188 0.59989 0.61516 0.0
H1749 H 0.77294 0.62902 0.64404 0.0
H1750 H 0.83527 0.64134 0.62614 0.0
H1751 H 0.8443 0.61249 0.59733 0.0
H1752 H 0.79658 0.62996 0.68504 0.0
H1753 H 0.79264 0.70432 0.61975 0.0
H1754 H 0.79101 0.67786 0.61069 0.0
H1755 H 0.81674 0.68186 0.61554 0.0
C1756 C 0.79358 0.60898 0.61718 0.0
C1757 C 0.81379 0.60388 0.60388 0.0
C1758 C 0.78847 0.62556 0.63374 0.0
C1759 C 0.80334 0.63751 0.63703 0.0
C1760 C 0.8234 0.6326 0.6236 0.0
H1761 H 0.81594 0.73764 0.72662 0.0
H1762 H 0.82028 0.70925 0.69787 0.0
C1763 C 0.82857 0.616 0.6072 0.0
C1764 C 0.79845 0.65446 0.65522 0.0
H1765 H 0.79419 0.70948 0.66141 0.0
C1766 C 0.79581 0.64741 0.67991 0.0
C1767 C 0.79755 0.67717 0.64845 0.0
C1768 C 0.79944 0.68586 0.62215 0.0
C1769 C 0.79306 0.66232 0.69809 0.0
C1770 C 0.79251 0.68498 0.69134 0.0
C1771 C 0.79473 0.69209 0.6666 0.0
C1772 C 0.79003 0.70157 0.7096 0.0
C1773 C 0.79158 0.65348 0.72438 0.0
C1774 C 0.77156 0.70674 0.72578 0.0
C1775 C 0.76907 0.7229 0.74238 0.0
C1776 C 0.78492 0.7344 0.74297 0.0
C1777 C 0.80342 0.72912 0.72675 0.0
C1778 C 0.80592 0.71291 0.71024 0.0
H1779 H 0.79785 0.63495 0.72659 0.0
H1780 H 0.80072 0.66093 0.73557 0.0
H1781 H 0.77441 0.65798 0.73153 0.0
H1782 H 0.75886 0.69858 0.72528 0.0
H1783 H 0.75449 0.72667 0.7544 0.0
H1784 H 0.48976 0.78719 0.6178 0.0
H1785 H 0.45533 0.79222 0.64211 0.0
H1786 H 0.4724 0.72187 0.66541 0.0
H1787 H 0.50711 0.71679 0.64175 0.0
H1788 H 0.42185 0.77348 0.63918 0.0
H1789 H 0.45444 0.75001 0.72981 0.0
H1790 H 0.4708 0.75593 0.70304 0.0
H1791 H 0.46529 0.72905 0.70865 0.0
C1792 C 0.48642 0.7728 0.62834 0.0
C1793 C 0.50149 0.75157 0.6278 0.0
C1794 C 0.46656 0.77569 0.64214 0.0
C1795 C 0.46126 0.75751 0.65596 0.0
C1796 C 0.47617 0.73629 0.65534 0.0
H1797 H 0.33373 0.74706 0.71445 0.0
H1798 H 0.36772 0.7453 0.69014 0.0
C1799 C 0.49601 0.73336 0.64152 0.0
C1800 C 0.44 0.76065 0.67054 0.0
H1801 H 0.41699 0.75347 0.72802 0.0
C1802 C 0.42082 0.76918 0.65862 0.0
C1803 C 0.43849 0.75536 0.69601 0.0
C1804 C 0.45833 0.74728 0.71021 0.0
C1805 C 0.40034 0.77207 0.67129 0.0
C1806 C 0.39885 0.766 0.69661 0.0
C1807 C 0.41802 0.75795 0.70861 0.0
C1808 C 0.37764 0.76777 0.71097 0.0
C1809 C 0.38045 0.78191 0.65745 0.0
C1810 C 0.37182 0.78074 0.73112 0.0
C1811 C 0.35231 0.78175 0.74517 0.0
C1812 C 0.33819 0.76967 0.73954 0.0
C1813 C 0.34401 0.7568 0.71925 0.0
C1814 C 0.36349 0.75582 0.70521 0.0
H1815 H 0.3841 0.79141 0.64025 0.0
H1816 H 0.37413 0.76817 0.65275 0.0
H1817 H 0.36759 0.79325 0.66856 0.0
H1818 H 0.38244 0.79004 0.73606 0.0
H1819 H 0.3485 0.79172 0.76071 0.0
H1820 H 0.28785 0.43919 0.61184 0.0
H1821 H 0.29008 0.40795 0.6428 0.0
H1822 H 0.22423 0.4374 0.66898 0.0
H1823 H 0.22198 0.46883 0.63817 0.0
H1824 H 0.24997 0.42241 0.70625 0.0
H1825 H 0.26448 0.35591 0.64264 0.0
H1826 H 0.28395 0.37187 0.63782 0.0
H1827 H 0.25607 0.38529 0.63272 0.0
C1828 C 0.27374 0.43891 0.62396 0.0
C1829 C 0.25467 0.45651 0.62232 0.0
C1830 C 0.27503 0.42098 0.6417 0.0
C1831 C 0.2572 0.42003 0.65803 0.0
C1832 C 0.23821 0.43767 0.65659 0.0
H1833 H 0.24192 0.30041 0.74474 0.0
H1834 H 0.23883 0.33336 0.71587 0.0
C1835 C 0.23695 0.45569 0.63896 0.0
C1836 C 0.25841 0.40085 0.67682 0.0
H1837 H 0.26882 0.34384 0.6843 0.0
C1838 C 0.25403 0.40523 0.70144 0.0
C1839 C 0.26343 0.37841 0.67061 0.0
C1840 C 0.26704 0.37255 0.64451 0.0
C1841 C 0.25475 0.38785 0.71995 0.0
C1842 C 0.26045 0.36535 0.71378 0.0
C1843 C 0.26464 0.36102 0.68914 0.0
C1844 C 0.26159 0.34604 0.73239 0.0
C1845 C 0.24887 0.39385 0.74588 0.0
C1846 C 0.27537 0.34209 0.75146 0.0
C1847 C 0.27695 0.32333 0.76819 0.0
C1848 C 0.26499 0.30802 0.76599 0.0
C1849 C 0.25123 0.31199 0.74697 0.0
C1850 C 0.24951 0.3308 0.73041 0.0
H1851 H 0.2391 0.41152 0.74681 0.0
H1852 H 0.23965 0.38279 0.75605 0.0
H1853 H 0.26388 0.39183 0.75507 0.0
H1854 H 0.28533 0.35319 0.75308 0.0
H1855 H 0.28805 0.32042 0.78233 0.0
H1856 H 0.53507 0.30004 0.58319 0.0
H1857 H 0.56021 0.3106 0.60762 0.0
H1858 H 0.61189 0.25561 0.58237 0.0
H1859 H 0.58727 0.24524 0.55823 0.0
H1860 H 0.58348 0.28301 0.64532 0.0
H1861 H 0.64051 0.30652 0.57355 0.0
H1862 H 0.61405 0.30497 0.56738 0.0
H1863 H 0.63616 0.27998 0.56948 0.0
C1864 C 0.55192 0.29062 0.58246 0.0
C1865 C 0.55917 0.27183 0.56876 0.0
C1866 C 0.56624 0.29655 0.59653 0.0
C1867 C 0.58809 0.28405 0.59667 0.0
C1868 C 0.59532 0.26581 0.5823 0.0
H1869 H 0.70311 0.25857 0.67279 0.0
H1870 H 0.67463 0.26068 0.64589 0.0
C1871 C 0.58111 0.25981 0.56858 0.0
C1872 C 0.60323 0.28857 0.61304 0.0
H1873 H 0.65396 0.29545 0.61323 0.0
C1874 C 0.5987 0.2862 0.63832 0.0
C1875 C 0.62321 0.29256 0.60398 0.0
C1876 C 0.6287 0.29638 0.57711 0.0
C1877 C 0.614 0.28652 0.65467 0.0
C1878 C 0.63432 0.28968 0.64556 0.0
C1879 C 0.63851 0.29286 0.6203 0.0
C1880 C 0.65173 0.28887 0.66184 0.0
C1881 C 0.60867 0.28238 0.68154 0.0
C1882 C 0.6486 0.3042 0.67962 0.0
C1883 C 0.66486 0.30296 0.69516 0.0
C1884 C 0.68476 0.28641 0.69327 0.0
C1885 C 0.68796 0.27134 0.6751 0.0
C1886 C 0.6717 0.27262 0.65955 0.0
H1887 H 0.59469 0.27513 0.6852 0.0
H1888 H 0.62274 0.27087 0.69034 0.0
H1889 H 0.6045 0.29849 0.69012 0.0
H1890 H 0.63353 0.31715 0.68154 0.0
H1891 H 0.66161 0.31475 0.70901 0.0
H1892 H 0.77049 0.54747 0.48901 0.0
H1893 H 0.75817 0.51962 0.47081 0.0
H1894 H 0.7619 0.47948 0.53916 0.0
H1895 H 0.77465 0.50707 0.55744 0.0
H1896 H 0.78502 0.45634 0.50249 0.0
H1897 H 0.70342 0.49984 0.47339 0.0
H1898 H 0.72286 0.51502 0.46292 0.0
H1899 H 0.71625 0.51075 0.49502 0.0
C1900 C 0.76818 0.53301 0.50038 0.0
C1901 C 0.77373 0.52945 0.52465 0.0
C1902 C 0.76097 0.51714 0.48996 0.0
C1903 C 0.75891 0.49752 0.50365 0.0
C1904 C 0.76329 0.49453 0.52826 0.0
H1905 H 0.7524 0.37103 0.45232 0.0
H1906 H 0.74876 0.40122 0.47878 0.0
C1907 C 0.77057 0.51035 0.53869 0.0
C1908 C 0.75509 0.47893 0.49153 0.0
H1909 H 0.72201 0.46622 0.45398 0.0
C1910 C 0.77103 0.45837 0.49225 0.0
C1911 C 0.73692 0.48164 0.47803 0.0
C1912 C 0.71879 0.50295 0.47746 0.0
C1913 C 0.76981 0.44079 0.47905 0.0
C1914 C 0.75193 0.44369 0.46504 0.0
C1915 C 0.73568 0.46403 0.46477 0.0
C1916 C 0.75076 0.42627 0.44928 0.0
C1917 C 0.78821 0.41965 0.4793 0.0
C1918 C 0.75202 0.43063 0.42394 0.0
C1919 C 0.75404 0.41346 0.40879 0.0
C1920 C 0.7548 0.39158 0.41871 0.0
C1921 C 0.75223 0.3876 0.44412 0.0
C1922 C 0.75014 0.40482 0.45926 0.0
H1923 H 0.80271 0.42193 0.48683 0.0
H1924 H 0.78304 0.40615 0.49078 0.0
H1925 H 0.79282 0.41405 0.46068 0.0
H1926 H 0.75251 0.44707 0.41587 0.0
H1927 H 0.75619 0.41708 0.38934 0.0
H1928 H 0.62661 0.78914 0.50472 0.0
H1929 H 0.65063 0.79385 0.46876 0.0
H1930 H 0.66915 0.72258 0.46274 0.0
H1931 H 0.64485 0.71777 0.4982 0.0
H1932 H 0.69527 0.77613 0.46079 0.0
H1933 H 0.65267 0.74697 0.39415 0.0
H1934 H 0.64052 0.75425 0.42396 0.0
H1935 H 0.6595 0.7274 0.42009 0.0
C1936 C 0.63556 0.77446 0.49562 0.0
C1937 C 0.63359 0.75305 0.50449 0.0
C1938 C 0.64943 0.77719 0.47508 0.0
C1939 C 0.66153 0.75863 0.46271 0.0
C1940 C 0.65973 0.73725 0.47161 0.0
H1941 H 0.75776 0.73066 0.34189 0.0
H1942 H 0.73098 0.73041 0.37602 0.0
C1943 C 0.64594 0.7345 0.49215 0.0
C1944 C 0.6764 0.76148 0.44088 0.0
H1945 H 0.68771 0.75087 0.38096 0.0
C1946 C 0.69349 0.7708 0.44328 0.0
C1947 C 0.67416 0.75456 0.41795 0.0
C1948 C 0.65561 0.74543 0.41373 0.0
C1949 C 0.70876 0.77264 0.42372 0.0
C1950 C 0.70671 0.76539 0.40087 0.0
C1951 C 0.68939 0.75642 0.3984 0.0
C1952 C 0.7228 0.76606 0.37961 0.0
C1953 C 0.72743 0.78157 0.428 0.0
C1954 C 0.72703 0.78626 0.36975 0.0
C1955 C 0.74248 0.78648 0.35008 0.0
C1956 C 0.75397 0.76651 0.33968 0.0
C1957 C 0.74933 0.74641 0.34931 0.0
C1958 C 0.73394 0.74621 0.36892 0.0
H1959 H 0.72969 0.78107 0.44768 0.0
H1960 H 0.74269 0.77185 0.41882 0.0
H1961 H 0.72422 0.79925 0.42045 0.0
H1962 H 0.71835 0.80191 0.37723 0.0
H1963 H 0.74552 0.80228 0.34316 0.0
H1964 H 0.22368 0.59077 0.47193 0.0
H1965 H 0.22853 0.62415 0.4475 0.0
H1966 H 0.28745 0.61796 0.48123 0.0
H1967 H 0.2827 0.58459 0.50584 0.0
H1968 H 0.23148 0.66468 0.46145 0.0
H1969 H 0.30695 0.62222 0.40917 0.0
H1970 H 0.29008 0.60695 0.42711 0.0
H1971 H 0.30808 0.61813 0.44158 0.0
C1972 C 0.23762 0.59652 0.47434 0.0
C1973 C 0.25285 0.58477 0.49085 0.0
C1974 C 0.24041 0.61562 0.46023 0.0
C1975 C 0.25854 0.62343 0.46218 0.0
C1976 C 0.2736 0.612 0.47892 0.0
H1977 H 0.3009 0.73448 0.38123 0.0
H1978 H 0.29706 0.70403 0.41152 0.0
C1979 C 0.27084 0.59287 0.49303 0.0
C1980 C 0.26147 0.64364 0.44683 0.0
H1981 H 0.295 0.66162 0.40264 0.0
C1982 C 0.24538 0.66399 0.4486 0.0
C1983 C 0.27966 0.64285 0.43011 0.0
C1984 C 0.29711 0.62135 0.42664 0.0
C1985 C 0.24697 0.6835 0.4342 0.0
C1986 C 0.26496 0.68261 0.41718 0.0
C1987 C 0.28124 0.66236 0.41571 0.0
C1988 C 0.26666 0.70212 0.39988 0.0
C1989 C 0.22944 0.70495 0.43755 0.0
C1990 C 0.25088 0.71127 0.38323 0.0
C1991 C 0.25301 0.72867 0.36595 0.0
C1992 C 0.27105 0.73734 0.36476 0.0
C1993 C 0.28671 0.72839 0.3817 0.0
C1994 C 0.28458 0.71089 0.39898 0.0
H1995 H 0.22065 0.70463 0.45578 0.0
H1996 H 0.23616 0.71966 0.43525 0.0
H1997 H 0.21756 0.70712 0.42373 0.0
H1998 H 0.23714 0.70454 0.38315 0.0
H1999 H 0.24067 0.73499 0.35316 0.0
H2000 H 0.46108 0.2307 0.48154 0.0
H2001 H 0.43425 0.2403 0.45176 0.0
H2002 H 0.43385 0.3097 0.44929 0.0
H2003 H 0.46117 0.30012 0.47969 0.0
H2004 H 0.39178 0.30271 0.4518 0.0
H2005 H 0.444 0.25608 0.37888 0.0
H2006 H 0.44462 0.23909 0.40706 0.0
H2007 H 0.45474 0.26343 0.4048 0.0
C2008 C 0.45548 0.24808 0.47476 0.0
C2009 C 0.46355 0.26461 0.48307 0.0
C2010 C 0.44013 0.25351 0.45747 0.0
C2011 C 0.43229 0.27563 0.44773 0.0
C2012 C 0.43983 0.29243 0.45629 0.0
H2013 H 0.34262 0.28939 0.33061 0.0
H2014 H 0.37265 0.29525 0.35117 0.0
C2015 C 0.45542 0.28695 0.4737 0.0
C2016 C 0.41577 0.28072 0.42929 0.0
H2017 H 0.4055 0.26255 0.37659 0.0
C2018 C 0.39493 0.29432 0.4351 0.0
C2019 C 0.41977 0.27015 0.40718 0.0
C2020 C 0.44207 0.25656 0.39896 0.0
C2021 C 0.37777 0.2962 0.42042 0.0
C2022 C 0.38139 0.28393 0.39953 0.0
C2023 C 0.40255 0.27176 0.39272 0.0
C2024 C 0.36313 0.28125 0.3865 0.0
C2025 C 0.3557 0.31085 0.42781 0.0
C2026 C 0.34805 0.2711 0.39924 0.0
C2027 C 0.33125 0.26753 0.38754 0.0
C2028 C 0.32895 0.27395 0.36266 0.0
C2029 C 0.34404 0.28409 0.3497 0.0
C2030 C 0.36112 0.28754 0.3615 0.0
H2031 H 0.35687 0.3245 0.43857 0.0
H2032 H 0.34654 0.31839 0.41169 0.0
H2033 H 0.34646 0.30057 0.43934 0.0
H2034 H 0.34942 0.26561 0.41833 0.0
H2035 H 0.31998 0.25965 0.39812 0.0
H2036 H 0.60498 0.81065 0.6087 0.0
H2037 H 0.63023 0.81898 0.63441 0.0
H2038 H 0.62191 0.76547 0.68686 0.0
H2039 H 0.59716 0.75682 0.66123 0.0
H2040 H 0.62787 0.82957 0.68324 0.0
H2041 H 0.68678 0.74749 0.66853 0.0
H2042 H 0.66372 0.75868 0.65071 0.0
H2043 H 0.6606 0.74529 0.68063 0.0
C2044 C 0.60832 0.80089 0.62587 0.0
C2045 C 0.59931 0.78288 0.63277 0.0
C2046 C 0.62277 0.80563 0.64052 0.0
C2047 C 0.62836 0.79248 0.66227 0.0
C2048 C 0.61828 0.77546 0.66986 0.0
H2049 H 0.72384 0.78092 0.76663 0.0
H2050 H 0.69234 0.77902 0.74652 0.0
C2051 C 0.60404 0.77061 0.65521 0.0
C2052 C 0.64544 0.79571 0.67652 0.0
H2053 H 0.69456 0.76865 0.69786 0.0
C2054 C 0.64249 0.8163 0.68638 0.0
C2055 C 0.66455 0.77838 0.68055 0.0
C2056 C 0.66926 0.75629 0.66937 0.0
C2057 C 0.65796 0.81986 0.70058 0.0
C2058 C 0.67695 0.80244 0.70476 0.0
C2059 C 0.67989 0.7819 0.69485 0.0
C2060 C 0.69448 0.80532 0.71851 0.0
C2061 C 0.65373 0.84207 0.71131 0.0
C2062 C 0.70609 0.82076 0.70952 0.0
C2063 C 0.72405 0.82187 0.72103 0.0
C2064 C 0.7307 0.8076 0.74176 0.0
C2065 C 0.71881 0.79247 0.75106 0.0
C2066 C 0.70091 0.79127 0.73946 0.0
H2067 H 0.63634 0.85135 0.71177 0.0
H2068 H 0.6591 0.83974 0.73006 0.0
H2069 H 0.66296 0.85252 0.70003 0.0
H2070 H 0.70175 0.83142 0.6931 0.0
H2071 H 0.73306 0.83354 0.71334 0.0
H2072 H 0.59022 0.25878 0.49533 0.0
H2073 H 0.62342 0.26304 0.47293 0.0
H2074 H 0.6227 0.21084 0.42794 0.0
H2075 H 0.58891 0.2071 0.4496 0.0
H2076 H 0.66339 0.23326 0.46641 0.0
H2077 H 0.62754 0.26182 0.37788 0.0
H2078 H 0.61127 0.26024 0.40601 0.0
H2079 H 0.62388 0.23537 0.39058 0.0
C2080 C 0.59688 0.2484 0.48045 0.0
C2081 C 0.58661 0.23282 0.47404 0.0
C2082 C 0.61602 0.25072 0.46782 0.0
C2083 C 0.62534 0.23755 0.44849 0.0
C2084 C 0.61554 0.22152 0.44247 0.0
H2085 H 0.73669 0.22925 0.34674 0.0
H2086 H 0.70683 0.22188 0.37356 0.0
C2087 C 0.59632 0.21924 0.45505 0.0
C2088 C 0.64524 0.24072 0.43459 0.0
H2089 H 0.6656 0.25413 0.37766 0.0
C2090 C 0.66388 0.23789 0.44702 0.0
C2091 C 0.64579 0.24693 0.40932 0.0
C2092 C 0.62601 0.25149 0.39517 0.0
C2093 C 0.68317 0.24064 0.43473 0.0
C2094 C 0.68374 0.24654 0.40945 0.0
C2095 C 0.66511 0.24947 0.39705 0.0
C2096 C 0.70347 0.24971 0.39526 0.0
C2097 C 0.7029 0.23682 0.44875 0.0
C2098 C 0.71174 0.26763 0.39883 0.0
C2099 C 0.72888 0.27197 0.38345 0.0
C2100 C 0.73795 0.2585 0.36417 0.0
C2101 C 0.73011 0.24004 0.36132 0.0
C2102 C 0.713 0.23577 0.37663 0.0
H2103 H 0.70109 0.22796 0.46693 0.0
H2104 H 0.71747 0.22693 0.43851 0.0
H2105 H 0.70558 0.25322 0.45139 0.0
H2106 H 0.7044 0.27877 0.41291 0.0
H2107 H 0.73443 0.28637 0.38611 0.0
H2108 H 0.8578 0.56358 0.45501 0.0
H2109 H 0.8594 0.59164 0.42114 0.0
H2110 H 0.83792 0.64401 0.47028 0.0
H2111 H 0.83659 0.61604 0.50432 0.0
H2112 H 0.82397 0.62888 0.40608 0.0
H2113 H 0.89296 0.65597 0.43234 0.0
H2114 H 0.8876 0.62981 0.44422 0.0
H2115 H 0.87213 0.65562 0.45623 0.0
C2116 C 0.85371 0.58104 0.45868 0.0
C2117 C 0.84716 0.58759 0.4824 0.0
C2118 C 0.85451 0.59703 0.43928 0.0
C2119 C 0.84903 0.61982 0.44328 0.0
C2120 C 0.84251 0.62645 0.4669 0.0
H2121 H 0.82914 0.74806 0.3675 0.0
H2122 H 0.8356 0.71458 0.39563 0.0
C2123 C 0.84157 0.61048 0.48628 0.0
C2124 C 0.84936 0.63684 0.4227 0.0
H2125 H 0.87203 0.6791 0.40164 0.0
C2126 C 0.83465 0.6397 0.40485 0.0
C2127 C 0.86337 0.65082 0.42122 0.0
C2128 C 0.88006 0.64784 0.43939 0.0
C2129 C 0.83282 0.65698 0.38617 0.0
C2130 C 0.84642 0.6714 0.3851 0.0
C2131 C 0.86165 0.668 0.4025 0.0
C2132 C 0.84377 0.69136 0.36752 0.0
C2133 C 0.81564 0.66034 0.36849 0.0
C2134 C 0.84667 0.68941 0.34231 0.0
C2135 C 0.84293 0.70863 0.32611 0.0
C2136 C 0.83632 0.72997 0.33496 0.0
C2137 C 0.83417 0.73181 0.36016 0.0
C2138 C 0.83786 0.71269 0.37626 0.0
H2139 H 0.80377 0.65067 0.37475 0.0
H2140 H 0.80682 0.67833 0.36575 0.0
H2141 H 0.82337 0.65467 0.35065 0.0
H2142 H 0.85163 0.67307 0.33519 0.0
H2143 H 0.84487 0.7068 0.30674 0.0
H2144 H 0.50472 0.80934 0.54934 0.0
H2145 H 0.47166 0.81559 0.52804 0.0
H2146 H 0.50996 0.78831 0.46459 0.0
H2147 H 0.54282 0.78169 0.48581 0.0
H2148 H 0.45631 0.83652 0.47916 0.0
H2149 H 0.47301 0.74395 0.49108 0.0
H2150 H 0.4859 0.75934 0.50787 0.0
H2151 H 0.49527 0.75374 0.47695 0.0
C2152 C 0.50608 0.80552 0.53054 0.0
C2153 C 0.52623 0.79492 0.5192 0.0
C2154 C 0.48721 0.80896 0.51846 0.0
C2155 C 0.48844 0.80195 0.49497 0.0
C2156 C 0.50872 0.7935 0.48285 0.0
H2157 H 0.41038 0.78073 0.38962 0.0
H2158 H 0.43842 0.78327 0.41481 0.0
C2159 C 0.52745 0.78984 0.49493 0.0
C2160 C 0.46884 0.80073 0.48407 0.0
H2161 H 0.44584 0.7631 0.46458 0.0
C2162 C 0.45381 0.82053 0.4762 0.0
C2163 C 0.46561 0.77978 0.48049 0.0
C2164 C 0.48067 0.75797 0.48973 0.0
C2165 C 0.43608 0.81986 0.46373 0.0
C2166 C 0.4334 0.79888 0.45931 0.0
C2167 C 0.44806 0.77914 0.4679 0.0
C2168 C 0.41617 0.79695 0.44464 0.0
C2169 C 0.42082 0.84151 0.45454 0.0
C2170 C 0.39443 0.80326 0.45341 0.0
C2171 C 0.37833 0.8015 0.43921 0.0
C2172 C 0.38372 0.79343 0.41596 0.0
C2173 C 0.40563 0.78666 0.40755 0.0
C2174 C 0.42168 0.78832 0.42181 0.0
H2175 H 0.4269 0.85623 0.45638 0.0
H2176 H 0.41818 0.84098 0.43514 0.0
H2177 H 0.40494 0.84382 0.46506 0.0
H2178 H 0.38993 0.80956 0.47122 0.0
H2179 H 0.36166 0.80656 0.44639 0.0
H2180 H 0.29952 0.47995 0.44966 0.0
H2181 H 0.2964 0.45268 0.42234 0.0
H2182 H 0.26586 0.41917 0.48127 0.0
H2183 H 0.26894 0.44623 0.50876 0.0
H2184 H 0.31243 0.40278 0.42933 0.0
H2185 H 0.22336 0.435 0.42485 0.0
H2186 H 0.23961 0.45167 0.43406 0.0
H2187 H 0.23344 0.42978 0.45462 0.0
C2188 C 0.29223 0.46673 0.45686 0.0
C2189 C 0.2844 0.46533 0.48138 0.0
C2190 C 0.29045 0.45118 0.44122 0.0
C2191 C 0.28064 0.43415 0.44976 0.0
C2192 C 0.27322 0.43241 0.47429 0.0
H2193 H 0.25277 0.32712 0.38038 0.0
H2194 H 0.25299 0.35535 0.40795 0.0
C2195 C 0.2751 0.44783 0.48998 0.0
C2196 C 0.27821 0.41814 0.43301 0.0
H2197 H 0.24073 0.40255 0.40454 0.0
C2198 C 0.29679 0.40273 0.42383 0.0
C2199 C 0.25773 0.41806 0.42612 0.0
C2200 C 0.23734 0.43457 0.43524 0.0
C2201 C 0.29544 0.38706 0.40802 0.0
C2202 C 0.27499 0.38727 0.40069 0.0
C2203 C 0.25637 0.40254 0.41009 0.0
C2204 C 0.27276 0.37182 0.3831 0.0
C2205 C 0.31588 0.37011 0.39971 0.0
C2206 C 0.28294 0.3724 0.35964 0.0
C2207 C 0.28285 0.35637 0.34388 0.0
C2208 C 0.27238 0.33951 0.35119 0.0
C2209 C 0.26093 0.33989 0.37414 0.0
C2210 C 0.26113 0.35593 0.38997 0.0
H2211 H 0.32897 0.36814 0.41203 0.0
H2212 H 0.31299 0.35349 0.39872 0.0
H2213 H 0.32163 0.37582 0.3813 0.0
H2214 H 0.29154 0.38489 0.35376 0.0
H2215 H 0.29164 0.35675 0.32625 0.0
H2216 H 0.49141 0.2104 0.63377 0.0
H2217 H 0.46516 0.21398 0.669 0.0
H2218 H 0.41532 0.25358 0.62391 0.0
H2219 H 0.44185 0.2507 0.58881 0.0
H2220 H 0.41208 0.27171 0.66477 0.0
H2221 H 0.42047 0.18133 0.6869 0.0
H2222 H 0.44574 0.1879 0.68714 0.0
H2223 H 0.43256 0.19188 0.6592 0.0
C2224 C 0.4748 0.21967 0.63136 0.0
C2225 C 0.46861 0.23012 0.60851 0.0
C2226 C 0.45976 0.22163 0.65149 0.0
C2227 C 0.43807 0.2336 0.64909 0.0
C2228 C 0.43191 0.24415 0.62626 0.0
H2229 H 0.33162 0.22539 0.75469 0.0
H2230 H 0.35936 0.22063 0.721 0.0
C2231 C 0.44705 0.24253 0.60621 0.0
C2232 C 0.42197 0.23574 0.67047 0.0
H2233 H 0.40121 0.20568 0.71691 0.0
C2234 C 0.40963 0.25724 0.67608 0.0
C2235 C 0.41848 0.21688 0.6851 0.0
C2236 C 0.42985 0.19321 0.67914 0.0
C2237 C 0.39408 0.26044 0.69589 0.0
C2238 C 0.39131 0.24165 0.71118 0.0
C2239 C 0.40352 0.22013 0.70546 0.0
C2240 C 0.37519 0.24384 0.73255 0.0
C2241 C 0.38034 0.28392 0.69967 0.0
C2242 C 0.37511 0.25798 0.75075 0.0
C2243 C 0.35901 0.26102 0.76989 0.0
C2244 C 0.34299 0.24949 0.77157 0.0
C2245 C 0.34376 0.23446 0.75403 0.0
C2246 C 0.35962 0.23175 0.73468 0.0
H2247 H 0.37985 0.29505 0.68263 0.0
H2248 H 0.36352 0.28404 0.70624 0.0
H2249 H 0.38733 0.29108 0.71338 0.0
H2250 H 0.38735 0.26692 0.75003 0.0
H2251 H 0.35901 0.27255 0.78324 0.0
H2252 H 0.86626 0.4716 0.64388 0.0
H2253 H 0.86276 0.43744 0.66781 0.0
H2254 H 0.81199 0.43442 0.62438 0.0
H2255 H 0.81557 0.46829 0.60013 0.0
H2256 H 0.80178 0.43123 0.6753 0.0
H2257 H 0.88044 0.3719 0.64905 0.0
H2258 H 0.88217 0.39794 0.65877 0.0
H2259 H 0.86949 0.3979 0.63137 0.0
C2260 C 0.85461 0.46348 0.63913 0.0
C2261 C 0.84114 0.4728 0.62012 0.0
C2262 C 0.85264 0.44395 0.65283 0.0
C2263 C 0.83726 0.43331 0.64768 0.0
C2264 C 0.82398 0.44238 0.62859 0.0
H2265 H 0.78999 0.3244 0.72299 0.0
H2266 H 0.79693 0.35368 0.69311 0.0
C2267 C 0.82595 0.46186 0.61487 0.0
C2268 C 0.83409 0.41352 0.66312 0.0
H2269 H 0.8591 0.35945 0.68194 0.0
C2270 C 0.81423 0.41546 0.67663 0.0
C2271 C 0.85042 0.39306 0.66485 0.0
C2272 C 0.87179 0.3899 0.65011 0.0
C2273 C 0.81042 0.39764 0.69233 0.0
C2274 C 0.82676 0.37715 0.6941 0.0
C2275 C 0.84659 0.37515 0.68045 0.0
C2276 C 0.8238 0.35793 0.71076 0.0
C2277 C 0.78919 0.40116 0.70745 0.0
C2278 C 0.83723 0.34991 0.72994 0.0
C2279 C 0.83346 0.33303 0.74693 0.0
C2280 C 0.81616 0.32382 0.74504 0.0
C2281 C 0.80332 0.33123 0.72516 0.0
C2282 C 0.80718 0.34806 0.70811 0.0
H2283 H 0.78075 0.41923 0.70843 0.0
H2284 H 0.77849 0.39327 0.69914 0.0
H2285 H 0.79163 0.39334 0.72623 0.0
H2286 H 0.85022 0.35723 0.73221 0.0
H2287 H 0.84374 0.32772 0.76193 0.0
H2288 H 0.32447 0.50213 0.61157 0.0
H2289 H 0.33301 0.5329 0.62874 0.0
H2290 H 0.3349 0.56727 0.5574 0.0
H2291 H 0.32594 0.53678 0.54005 0.0
H2292 H 0.36333 0.56089 0.62068 0.0
H2293 H 0.27978 0.60403 0.59502 0.0
H2294 H 0.29104 0.57421 0.5942 0.0
H2295 H 0.29905 0.59299 0.57073 0.0
C2296 C 0.32747 0.51582 0.59936 0.0
C2297 C 0.32394 0.51732 0.57454 0.0
C2298 C 0.33239 0.5334 0.60923 0.0
C2299 C 0.33403 0.55255 0.59439 0.0
C2300 C 0.33332 0.55276 0.56918 0.0
H2301 H 0.30084 0.68624 0.6458 0.0
H2302 H 0.31512 0.65575 0.61908 0.0
C2303 C 0.32822 0.5353 0.55931 0.0
C2304 C 0.33234 0.57349 0.60573 0.0
H2305 H 0.29632 0.62341 0.61743 0.0
C2306 C 0.34884 0.57474 0.61975 0.0
C2307 C 0.31334 0.59144 0.60453 0.0
C2308 C 0.29468 0.59068 0.59049 0.0
C2309 C 0.34668 0.59344 0.63293 0.0
C2310 C 0.32732 0.61101 0.63241 0.0
C2311 C 0.31119 0.61001 0.61772 0.0
C2312 C 0.32237 0.62972 0.64841 0.0
C2313 C 0.36506 0.59413 0.64734 0.0
C2314 C 0.32197 0.62526 0.67375 0.0
C2315 C 0.31388 0.64265 0.68902 0.0
C2316 C 0.30574 0.66476 0.6792 0.0
C2317 C 0.30681 0.66931 0.65384 0.0
C2318 C 0.31509 0.65194 0.63859 0.0
H2319 H 0.38078 0.58416 0.63931 0.0
H2320 H 0.36589 0.61157 0.64831 0.0
H2321 H 0.36265 0.58674 0.66612 0.0
H2322 H 0.32686 0.60822 0.68179 0.0
H2323 H 0.313 0.63862 0.70849 0.0
loop_
_geom_bond_atom_site_label_1
_geom_bond_atom_site_label_2
_geom_bond_distance
_geom_bond_site_symmetry_2
_ccdc_geom_bond_type
Cu0 N1 2.038 . S
Cu0 O6 1.951 1_545 S
Cu0 N11 1.947 1_545 S
Cu0 O20 1.983 . S
N1 Cu0 2.038 . S
N1 C3 1.263 . S
N1 C5 1.389 . S
N2 C3 1.358 . S
N2 C4 1.400 . S
C3 N1 1.263 . S
C3 N2 1.358 . S
C3 H9 0.930 . S
C4 N2 1.400 . S
C4 C5 1.351 . S
C4 H21 0.930 . S
C5 N1 1.389 . S
C5 C4 1.351 . S
C5 H10 0.930 . S
O6 Cu0 1.951 1_565 S
O6 C16 1.282 . S
C7 O8 1.261 1_655 S
C7 O20 1.251 1_655 S
O8 C7 1.261 1_455 S
H9 C3 0.930 . S
H10 C5 0.930 . S
N11 Cu0 1.947 1_565 S
N11 C13 1.335 1_455 S
N11 C14 1.390 . S
N12 C13 1.345 . S
N12 C15 1.336 1_655 S
C13 N11 1.335 1_655 S
C13 N12 1.345 . S
C13 H18 0.930 . S
C14 N11 1.390 . S
C14 C15 1.346 . S
C14 H19 0.930 . S
C15 N12 1.336 1_455 S
C15 C14 1.346 . S
C15 H22 0.929 . S
C16 O6 1.282 . S
C16 O17 1.216 . S
O17 C16 1.216 . S
H18 C13 0.930 . S
H19 C14 0.930 . S
O20 Cu0 1.983 . S
O20 C7 1.251 1_455 S
H21 C4 0.930 . S
H22 C15 0.929 . S
Cu23 N24 1.999 1_455 S
Cu23 O29 1.974 1_455 S
Cu23 N34 1.985 . S
Cu23 O43 1.959 . S
N24 Cu23 1.999 1_655 S
N24 C26 1.263 . S
N24 C28 1.389 1_645 S
N25 C26 1.358 1_565 S
N25 C27 1.400 . S
C26 N24 1.263 . S
C26 N25 1.358 1_545 S
C26 H32 0.930 . S
C27 N25 1.400 . S
C27 C28 1.351 1_655 S
C27 H44 0.930 . S
C28 N24 1.389 1_465 S
C28 C27 1.351 1_455 S
C28 H33 0.930 . S
O29 Cu23 1.974 1_655 S
O29 C39 1.282 . S
C30 O31 1.261 . S
C30 O43 1.251 . S
O31 C30 1.261 . S
H32 C26 0.930 . S
H33 C28 0.930 . S
N34 Cu23 1.985 . S
N34 C36 1.335 . S
N34 C37 1.390 . S
N35 C36 1.345 . S
N35 C38 1.336 . S
C36 N34 1.335 . S
C36 N35 1.345 . S
C36 H41 0.930 . S
C37 N34 1.390 . S
C37 C38 1.346 . S
C37 H42 0.930 . S
C38 N35 1.336 . S
C38 C37 1.346 . S
C38 H45 0.929 . S
C39 O29 1.282 . S
C39 O40 1.216 . S
O40 C39 1.216 . S
H41 C36 0.930 . S
H42 C37 0.930 . S
O43 Cu23 1.959 . S
O43 C30 1.251 . S
H44 C27 0.930 . S
H45 C38 0.929 . S
Cu46 N47 1.999 . S
Cu46 O52 1.974 . S
Cu46 N57 1.985 . S
Cu46 O66 1.959 . S
N47 Cu46 1.999 . S
N47 C49 1.263 1_545 S
N47 C51 1.389 . S
N48 C49 1.358 . S
N48 C50 1.400 . S
C49 N47 1.263 1_565 S
C49 N48 1.358 . S
C49 H55 0.930 . S
C50 N48 1.400 . S
C50 C51 1.351 1_565 S
C50 H67 0.889 1_554 S
C51 N47 1.389 . S
C51 C50 1.351 1_545 S
C51 H56 0.930 . S
O52 Cu46 1.974 . S
O52 C62 1.282 . S
C53 O54 1.261 . S
C53 O66 1.251 . S
O54 C53 1.261 . S
H55 C49 0.930 . S
H56 C51 0.930 . S
N57 Cu46 1.985 . S
N57 C59 1.335 . S
N57 C60 1.390 . S
N58 C59 1.345 . S
N58 C61 1.336 . S
C59 N57 1.335 . S
C59 N58 1.345 . S
C59 H64 0.930 . S
C60 N57 1.390 . S
C60 C61 1.346 . S
C60 H65 0.930 . S
C61 N58 1.336 . S
C61 C60 1.346 . S
C61 H68 0.929 . S
C62 O52 1.282 . S
C62 O63 1.216 . S
O63 C62 1.216 . S
H64 C59 0.930 . S
H65 C60 0.930 . S
O66 Cu46 1.959 . S
O66 C53 1.251 . S
H67 C50 0.889 1_556 S
H68 C61 0.929 . S
Cu69 N70 1.999 . S
Cu69 O75 1.974 . S
Cu69 N80 1.985 . S
Cu69 O89 1.959 . S
N70 Cu69 1.999 . S
N70 C72 1.263 . S
N70 C74 1.389 . S
N71 C72 1.358 . S
N71 C73 1.400 1_554 S
C72 N70 1.263 . S
C72 N71 1.358 . S
C72 H78 0.930 . S
C73 N71 1.400 1_556 S
C73 C74 1.351 1_556 S
C73 H90 0.930 . S
C74 N70 1.389 . S
C74 C73 1.351 1_554 S
C74 H79 0.930 . S
O75 Cu69 1.974 . S
O75 C85 1.282 . S
C76 O77 1.261 . S
C76 O89 1.251 . S
O77 C76 1.261 . S
H78 C72 0.930 . S
H79 C74 0.930 . S
N80 Cu69 1.985 . S
N80 C82 1.335 1_455 S
N80 C83 1.390 . S
N81 C82 1.345 . S
N81 C84 1.336 . S
C82 N80 1.335 1_655 S
C82 N81 1.345 . S
C82 H87 0.930 . S
C83 N80 1.390 . S
C83 C84 1.346 1_455 S
C83 H88 0.930 . S
C84 N81 1.336 . S
C84 C83 1.346 1_655 S
C84 H91 0.929 . S
C85 O75 1.282 . S
C85 O86 1.216 . S
O86 C85 1.216 . S
H87 C82 0.930 . S
H88 C83 0.930 . S
O89 Cu69 1.959 . S
O89 C76 1.251 . S
H90 C73 0.930 . S
H91 C84 0.929 . S
Cu92 N93 1.999 1_554 S
Cu92 O98 1.974 . S
Cu92 N103 1.985 1_545 S
Cu92 O112 1.959 1_544 S
N93 Cu92 1.999 1_556 S
N93 C95 1.263 . S
N93 C97 1.389 . S
N94 C95 1.358 . S
N94 C96 1.400 . S
C95 N93 1.263 . S
C95 N94 1.358 . S
C95 H101 0.930 . S
C96 N94 1.400 . S
C96 C97 1.351 . S
C96 H113 0.930 . S
C97 N93 1.389 . S
C97 C96 1.351 . S
C97 H102 0.930 . S
O98 Cu92 1.974 . S
O98 C108 1.282 . S
C99 O100 1.261 . S
C99 O112 1.251 . S
O100 C99 1.261 . S
H101 C95 0.930 . S
H102 C97 0.930 . S
N103 Cu92 1.985 1_565 S
N103 C105 1.335 . S
N103 C106 1.390 . S
N104 C105 1.345 . S
N104 C107 1.336 . S
C105 N103 1.335 . S
C105 N104 1.345 . S
C105 H110 0.930 . S
C106 N103 1.390 . S
C106 C107 1.346 . S
C106 H111 0.930 . S
C107 N104 1.336 . S
C107 C106 1.346 . S
C107 H114 0.929 . S
C108 O98 1.282 . S
C108 O109 1.216 . S
O109 C108 1.216 . S
H110 C105 0.930 . S
H111 C106 0.930 . S
O112 Cu92 1.959 1_566 S
O112 C99 1.251 . S
H113 C96 0.930 . S
H114 C107 0.929 . S
Cu115 N116 1.999 1_454 S
Cu115 O121 1.974 1_455 S
Cu115 N126 1.985 . S
Cu115 O135 1.959 1_554 S
N116 Cu115 1.999 1_656 S
N116 C118 1.263 . S
N116 C120 1.384 1_655 S
N117 C118 1.358 . S
N117 C119 1.400 . S
C118 N116 1.263 . S
C118 N117 1.358 . S
C118 H124 0.920 1_556 S
C119 N117 1.400 . S
C119 C120 1.303 1_655 S
C119 H136 0.930 . S
C120 N116 1.384 1_455 S
C120 C119 1.303 1_455 S
C120 H125 0.977 . S
O121 Cu115 1.974 1_655 S
O121 C131 1.282 . S
C122 O123 1.261 . S
C122 O135 1.251 . S
O123 C122 1.261 . S
H124 C118 0.920 1_554 S
H125 C120 0.977 . S
N126 Cu115 1.985 . S
N126 C128 1.335 . S
N126 C129 1.390 . S
N127 C128 1.345 . S
N127 C130 1.336 . S
C128 N126 1.335 . S
C128 N127 1.345 . S
C128 H133 0.930 . S
C129 N126 1.390 . S
C129 C130 1.346 . S
C129 H134 0.930 . S
C130 N127 1.336 . S
C130 C129 1.346 . S
C130 H137 0.929 . S
C131 O121 1.282 . S
C131 O132 1.216 . S
O132 C131 1.216 . S
H133 C128 0.930 . S
H134 C129 0.930 . S
O135 Cu115 1.959 1_556 S
O135 C122 1.251 . S
H136 C119 0.930 . S
H137 C130 0.929 . S
Cu138 N139 1.999 . S
Cu138 O144 1.974 . S
Cu138 N149 1.985 . S
Cu138 O158 1.959 . S
N139 Cu138 1.999 . S
N139 C141 1.263 . S
N139 C143 1.389 . S
N140 C141 1.358 . S
N140 C142 1.400 . S
C141 N139 1.263 . S
C141 N140 1.358 . S
C141 H147 0.930 . S
C142 N140 1.400 . S
C142 C143 1.351 . S
C142 H159 0.930 . S
C143 N139 1.389 . S
C143 C142 1.351 . S
C143 H148 0.930 . S
O144 Cu138 1.974 . S
O144 C154 1.282 . S
C145 O146 1.261 . S
C145 O158 1.251 . S
O146 C145 1.261 . S
H147 C141 0.930 . S
H148 C143 0.930 . S
N149 Cu138 1.985 . S
N149 C151 1.335 . S
N149 C152 1.390 . S
N150 C151 1.345 . S
N150 C153 1.336 . S
C151 N149 1.335 . S
C151 N150 1.345 . S
C151 H156 0.930 . S
C152 N149 1.390 . S
C152 C153 1.346 . S
C152 H157 0.930 . S
C153 N150 1.336 . S
C153 C152 1.346 . S
C153 H160 0.929 . S
C154 O144 1.282 . S
C154 O155 1.216 . S
O155 C154 1.216 . S
H156 C151 0.930 . S
H157 C152 0.930 . S
O158 Cu138 1.959 . S
O158 C145 1.251 . S
H159 C142 0.930 . S
H160 C153 0.929 . S
Cu161 N162 1.999 . S
Cu161 O167 1.974 . S
Cu161 N172 1.985 . S
Cu161 O181 1.959 . S
N162 Cu161 1.999 . S
N162 C164 1.263 . S
N162 C166 1.389 . S
N163 C164 1.358 . S
N163 C165 1.400 . S
C164 N162 1.263 . S
C164 N163 1.358 . S
C164 H170 0.930 . S
C165 N163 1.400 . S
C165 C166 1.351 . S
C165 H182 0.930 . S
C166 N162 1.389 . S
C166 C165 1.351 . S
C166 H171 0.930 . S
O167 Cu161 1.974 . S
O167 C177 1.282 . S
C168 O169 1.261 . S
C168 O181 1.251 . S
O169 C168 1.261 . S
H170 C164 0.930 . S
H171 C166 0.930 . S
N172 Cu161 1.985 . S
N172 C174 1.335 . S
N172 C175 1.390 . S
N173 C174 1.345 . S
N173 C176 1.336 . S
C174 N172 1.335 . S
C174 N173 1.345 . S
C174 H179 0.930 . S
C175 N172 1.390 . S
C175 C176 1.346 . S
C175 H180 0.930 . S
C176 N173 1.336 . S
C176 C175 1.346 . S
C176 H183 0.929 . S
C177 O167 1.282 . S
C177 O178 1.216 . S
O178 C177 1.216 . S
H179 C174 0.930 . S
H180 C175 0.930 . S
O181 Cu161 1.959 . S
O181 C168 1.251 . S
H182 C165 0.930 . S
H183 C176 0.929 . S
Cu184 N185 1.999 . S
Cu184 O190 1.974 . S
Cu184 N195 1.985 . S
Cu184 O204 1.959 . S
N185 Cu184 1.999 . S
N185 C187 1.263 . S
N185 C189 1.389 . S
N186 C187 1.358 . S
N186 C188 1.400 . S
C187 N185 1.263 . S
C187 N186 1.358 . S
C187 H193 0.930 . S
C188 N186 1.400 . S
C188 C189 1.351 . S
C188 H205 0.930 . S
C189 N185 1.389 . S
C189 C188 1.351 . S
C189 H194 0.930 . S
O190 Cu184 1.974 . S
O190 C200 1.282 . S
C191 O192 1.261 . S
C191 O204 1.251 . S
O192 C191 1.261 . S
H193 C187 0.930 . S
H194 C189 0.930 . S
N195 Cu184 1.985 . S
N195 C197 1.335 . S
N195 C198 1.390 . S
N196 C197 1.345 . S
N196 C199 1.336 . S
C197 N195 1.335 . S
C197 N196 1.345 . S
C197 H202 0.930 . S
C198 N195 1.390 . S
C198 C199 1.346 . S
C198 H203 0.930 . S
C199 N196 1.336 . S
C199 C198 1.346 . S
C199 H206 0.929 . S
C200 O190 1.282 . S
C200 O201 1.216 . S
O201 C200 1.216 . S
H202 C197 0.930 . S
H203 C198 0.930 . S
O204 Cu184 1.959 . S
O204 C191 1.251 . S
H205 C188 0.930 . S
H206 C199 0.929 . S
Cu207 N208 1.999 . S
Cu207 O213 1.974 . S
Cu207 N218 1.985 . S
Cu207 O227 1.959 . S
N208 Cu207 1.999 . S
N208 C210 1.263 . S
N208 C212 1.389 . S
N209 C210 1.358 . S
N209 C211 1.400 . S
C210 N208 1.263 . S
C210 N209 1.358 . S
C210 H216 0.930 . S
C211 N209 1.400 . S
C211 C212 1.351 . S
C211 H228 0.930 . S
C212 N208 1.389 . S
C212 C211 1.351 . S
C212 H217 0.930 . S
O213 Cu207 1.974 . S
O213 C223 1.282 . S
C214 O215 1.261 . S
C214 O227 1.251 . S
O215 C214 1.261 . S
H216 C210 0.930 . S
H217 C212 0.930 . S
N218 Cu207 1.985 . S
N218 C220 1.335 . S
N218 C221 1.390 . S
N219 C220 1.345 . S
N219 C222 1.336 . S
C220 N218 1.335 . S
C220 N219 1.345 . S
C220 H225 0.930 . S
C221 N218 1.390 . S
C221 C222 1.346 . S
C221 H226 0.930 . S
C222 N219 1.336 . S
C222 C221 1.346 . S
C222 H229 0.929 . S
C223 O213 1.282 . S
C223 O224 1.216 . S
O224 C223 1.216 . S
H225 C220 0.930 . S
H226 C221 0.930 . S
O227 Cu207 1.959 . S
O227 C214 1.251 . S
H228 C211 0.930 . S
H229 C222 0.929 . S
Cu230 N231 1.999 . S
Cu230 O236 1.974 . S
Cu230 N241 1.985 . S
Cu230 O250 1.959 . S
N231 Cu230 1.999 . S
N231 C233 1.263 . S
N231 C235 1.389 . S
N232 C233 1.358 . S
N232 C234 1.400 . S
C233 N231 1.263 . S
C233 N232 1.358 . S
C233 H239 0.930 . S
C234 N232 1.400 . S
C234 C235 1.351 . S
C234 H251 0.930 . S
C235 N231 1.389 . S
C235 C234 1.351 . S
C235 H240 0.930 . S
O236 Cu230 1.974 . S
O236 C246 1.282 . S
C237 O238 1.261 . S
C237 O250 1.251 . S
O238 C237 1.261 . S
H239 C233 0.930 . S
H240 C235 0.930 . S
N241 Cu230 1.985 . S
N241 C243 1.335 . S
N241 C244 1.390 . S
N242 C243 1.345 . S
N242 C245 1.336 . S
C243 N241 1.335 . S
C243 N242 1.345 . S
C243 H248 0.930 . S
C244 N241 1.390 . S
C244 C245 1.346 . S
C244 H249 0.930 . S
C245 N242 1.336 . S
C245 C244 1.346 . S
C245 H252 0.929 . S
C246 O236 1.282 . S
C246 O247 1.216 . S
O247 C246 1.216 . S
H248 C243 0.930 . S
H249 C244 0.930 . S
O250 Cu230 1.959 . S
O250 C237 1.251 . S
H251 C234 0.930 . S
H252 C245 0.929 . S
Cu253 N254 1.999 . S
Cu253 O259 1.974 . S
Cu253 N264 1.985 . S
Cu253 O273 1.959 . S
N254 Cu253 1.999 . S
N254 C256 1.263 . S
N254 C258 1.389 . S
N255 C256 1.358 . S
N255 C257 1.400 . S
C256 N254 1.263 . S
C256 N255 1.358 . S
C256 H262 0.930 . S
C257 N255 1.400 . S
C257 C258 1.351 . S
C257 H274 0.930 . S
C258 N254 1.389 . S
C258 C257 1.351 . S
C258 H263 0.930 . S
O259 Cu253 1.974 . S
O259 C269 1.282 . S
C260 O261 1.261 . S
C260 O273 1.251 . S
O261 C260 1.261 . S
H262 C256 0.930 . S
H263 C258 0.930 . S
N264 Cu253 1.985 . S
N264 C266 1.335 . S
N264 C267 1.390 . S
N265 C266 1.345 . S
N265 C268 1.336 . S
C266 N264 1.335 . S
C266 N265 1.345 . S
C266 H271 0.930 . S
C267 N264 1.390 . S
C267 C268 1.346 . S
C267 H272 0.930 . S
C268 N265 1.336 . S
C268 C267 1.346 . S
C268 H275 0.929 . S
C269 O259 1.282 . S
C269 O270 1.216 . S
O270 C269 1.216 . S
H271 C266 0.930 . S
H272 C267 0.930 . S
O273 Cu253 1.959 . S
O273 C260 1.251 . S
H274 C257 0.930 . S
H275 C268 0.929 . S
Ho276 C279 2.811 . S
Ho276 O296 2.322 . S
Ho276 O298 2.378 . S
Ho276 O299 2.524 . S
Ho276 O300 2.381 . S
Ho276 O301 2.669 . S
Ho276 O303 2.346 . S
Ho276 O307 2.305 . S
Ho277 C288 2.811 . S
Ho277 O297 2.346 . S
Ho277 O301 2.305 . S
Ho277 O302 2.322 . S
Ho277 O304 2.378 . S
Ho277 O305 2.524 . S
Ho277 O306 2.381 . S
Ho277 O307 2.669 . S
C278 O296 1.259 . S
C278 O297 1.268 . S
C279 Ho276 2.811 . S
C279 C280 1.488 . S
C279 O298 1.215 . S
C279 O299 1.289 . S
C280 C279 1.488 . S
C280 C281 1.348 . S
C280 C285 1.413 . S
C281 C280 1.348 . S
C281 C282 1.442 . S
C281 H308 0.930 . S
C282 C281 1.442 . S
C282 C283 1.381 . S
C282 H309 0.931 . S
C283 C282 1.381 . S
C283 C284 1.321 . S
C284 C283 1.321 . S
C284 C285 1.403 . S
C284 H310 0.934 . S
C285 C280 1.413 . S
C285 C284 1.403 . S
C285 H311 0.930 . S
C286 O300 1.275 . S
C286 O301 1.256 . S
C287 O302 1.259 . S
C287 O303 1.268 . S
C288 Ho277 2.811 . S
C288 C289 1.488 . S
C288 O304 1.215 . S
C288 O305 1.289 . S
C289 C288 1.488 . S
C289 C290 1.348 . S
C289 C294 1.413 . S
C290 C289 1.348 . S
C290 C291 1.442 . S
C290 H312 0.930 . S
C291 C290 1.442 . S
C291 C292 1.381 . S
C291 H313 0.931 . S
C292 C291 1.381 . S
C292 C293 1.321 . S
C293 C292 1.321 . S
C293 C294 1.403 . S
C293 H314 0.934 . S
C294 C289 1.413 . S
C294 C293 1.403 . S
C294 H315 0.930 . S
C295 O306 1.275 . S
C295 O307 1.256 . S
O296 Ho276 2.322 . S
O296 C278 1.259 . S
O297 Ho277 2.346 . S
O297 C278 1.268 . S
O298 Ho276 2.378 . S
O298 C279 1.215 . S
O299 Ho276 2.524 . S
O299 C279 1.289 . S
O300 Ho276 2.381 . S
O300 C286 1.275 . S
O301 Ho276 2.669 . S
O301 Ho277 2.305 . S
O301 C286 1.256 . S
O302 Ho277 2.322 . S
O302 C287 1.259 . S
O303 Ho276 2.346 . S
O303 C287 1.268 . S
O304 Ho277 2.378 . S
O304 C288 1.215 . S
O305 Ho277 2.524 . S
O305 C288 1.289 . S
O306 Ho277 2.381 . S
O306 C295 1.275 . S
O307 Ho276 2.305 . S
O307 Ho277 2.669 . S
O307 C295 1.256 . S
H308 C281 0.930 . S
H309 C282 0.931 . S
H310 C284 0.934 . S
H311 C285 0.930 . S
H312 C290 0.930 . S
H313 C291 0.931 . S
H314 C293 0.934 . S
H315 C294 0.930 . S
Ho316 C319 2.811 . S
Ho316 O336 2.322 . S
Ho316 O338 2.378 . S
Ho316 O339 2.524 . S
Ho316 O340 2.381 . S
Ho316 O341 2.669 . S
Ho316 O343 2.346 . S
Ho316 O347 2.305 . S
Ho317 C328 2.811 . S
Ho317 O337 2.346 . S
Ho317 O341 2.305 . S
Ho317 O342 2.322 . S
Ho317 O344 2.378 . S
Ho317 O345 2.524 . S
Ho317 O346 2.381 . S
Ho317 O347 2.669 . S
C318 O336 1.259 . S
C318 O337 1.268 . S
C319 Ho316 2.811 . S
C319 C320 1.488 . S
C319 O338 1.215 . S
C319 O339 1.289 . S
C320 C319 1.488 . S
C320 C321 1.348 . S
C320 C325 1.413 . S
C321 C320 1.348 . S
C321 C322 1.442 . S
C321 H348 0.930 . S
C322 C321 1.442 . S
C322 C323 1.381 . S
C322 H349 0.931 . S
C323 C322 1.381 . S
C323 C324 1.321 . S
C324 C323 1.321 . S
C324 C325 1.403 . S
C324 H350 0.934 . S
C325 C320 1.413 . S
C325 C324 1.403 . S
C325 H351 0.930 . S
C326 O340 1.275 . S
C326 O341 1.256 . S
C327 O342 1.259 . S
C327 O343 1.268 . S
C328 Ho317 2.811 . S
C328 C329 1.488 . S
C328 O344 1.215 . S
C328 O345 1.289 . S
C329 C328 1.488 . S
C329 C330 1.348 . S
C329 C334 1.413 . S
C330 C329 1.348 . S
C330 C331 1.442 . S
C330 H352 0.930 . S
C331 C330 1.442 . S
C331 C332 1.381 . S
C331 H353 0.931 . S
C332 C331 1.381 . S
C332 C333 1.321 . S
C333 C332 1.321 . S
C333 C334 1.403 . S
C333 H354 0.934 . S
C334 C329 1.413 . S
C334 C333 1.403 . S
C334 H355 0.930 . S
C335 O346 1.275 . S
C335 O347 1.256 . S
O336 Ho316 2.322 . S
O336 C318 1.259 . S
O337 Ho317 2.346 . S
O337 C318 1.268 . S
O338 Ho316 2.378 . S
O338 C319 1.215 . S
O339 Ho316 2.524 . S
O339 C319 1.289 . S
O340 Ho316 2.381 . S
O340 C326 1.275 . S
O341 Ho316 2.669 . S
O341 Ho317 2.305 . S
O341 C326 1.256 . S
O342 Ho317 2.322 . S
O342 C327 1.259 . S
O343 Ho316 2.346 . S
O343 C327 1.268 . S
O344 Ho317 2.378 . S
O344 C328 1.215 . S
O345 Ho317 2.524 . S
O345 C328 1.289 . S
O346 Ho317 2.381 . S
O346 C335 1.275 . S
O347 Ho316 2.305 . S
O347 Ho317 2.669 . S
O347 C335 1.256 . S
H348 C321 0.930 . S
H349 C322 0.931 . S
H350 C324 0.934 . S
H351 C325 0.930 . S
H352 C330 0.930 . S
H353 C331 0.931 . S
H354 C333 0.934 . S
H355 C334 0.930 . S
Ho356 C359 2.811 . S
Ho356 O376 2.322 . S
Ho356 O378 2.378 . S
Ho356 O379 2.524 . S
Ho356 O380 2.381 . S
Ho356 O381 2.669 . S
Ho356 O383 2.346 . S
Ho356 O387 2.305 . S
Ho357 C368 2.811 . S
Ho357 O377 2.346 . S
Ho357 O381 2.305 . S
Ho357 O382 2.322 . S
Ho357 O384 2.378 . S
Ho357 O385 2.524 . S
Ho357 O386 2.381 . S
Ho357 O387 2.669 . S
C358 O376 1.259 . S
C358 O377 1.268 . S
C359 Ho356 2.811 . S
C359 C360 1.488 . S
C359 O378 1.215 . S
C359 O379 1.289 . S
C360 C359 1.488 . S
C360 C361 1.348 . S
C360 C365 1.413 . S
C361 C360 1.348 . S
C361 C362 1.442 . S
C361 H388 0.930 . S
C362 C361 1.442 . S
C362 C363 1.381 . S
C362 H389 0.931 . S
C363 C362 1.381 . S
C363 C364 1.321 . S
C364 C363 1.321 . S
C364 C365 1.403 . S
C364 H390 0.934 . S
C365 C360 1.413 . S
C365 C364 1.403 . S
C365 H391 0.930 . S
C366 O380 1.275 . S
C366 O381 1.256 . S
C367 O382 1.259 . S
C367 O383 1.268 . S
C368 Ho357 2.811 . S
C368 C369 1.488 . S
C368 O384 1.215 . S
C368 O385 1.289 . S
C369 C368 1.488 . S
C369 C370 1.348 . S
C369 C374 1.413 . S
C370 C369 1.348 . S
C370 C371 1.442 . S
C370 H392 0.930 . S
C371 C370 1.442 . S
C371 C372 1.381 . S
C371 H393 0.931 . S
C372 C371 1.381 . S
C372 C373 1.321 . S
C373 C372 1.321 . S
C373 C374 1.403 . S
C373 H394 0.934 . S
C374 C369 1.413 . S
C374 C373 1.403 . S
C374 H395 0.930 . S
C375 O386 1.275 . S
C375 O387 1.256 . S
O376 Ho356 2.322 . S
O376 C358 1.259 . S
O377 Ho357 2.346 . S
O377 C358 1.268 . S
O378 Ho356 2.378 . S
O378 C359 1.215 . S
O379 Ho356 2.524 . S
O379 C359 1.289 . S
O380 Ho356 2.381 . S
O380 C366 1.275 . S
O381 Ho356 2.669 . S
O381 Ho357 2.305 . S
O381 C366 1.256 . S
O382 Ho357 2.322 . S
O382 C367 1.259 . S
O383 Ho356 2.346 . S
O383 C367 1.268 . S
O384 Ho357 2.378 . S
O384 C368 1.215 . S
O385 Ho357 2.524 . S
O385 C368 1.289 . S
O386 Ho357 2.381 . S
O386 C375 1.275 . S
O387 Ho356 2.305 . S
O387 Ho357 2.669 . S
O387 C375 1.256 . S
H388 C361 0.930 . S
H389 C362 0.931 . S
H390 C364 0.934 . S
H391 C365 0.930 . S
H392 C370 0.930 . S
H393 C371 0.931 . S
H394 C373 0.934 . S
H395 C374 0.930 . S
Ho396 C399 2.811 . S
Ho396 O416 2.322 . S
Ho396 O418 2.378 . S
Ho396 O419 2.524 . S
Ho396 O420 2.381 . S
Ho396 O421 2.669 . S
Ho396 O423 2.346 . S
Ho396 O427 2.305 . S
Ho397 C408 2.811 . S
Ho397 O417 2.346 . S
Ho397 O421 2.305 . S
Ho397 O422 2.322 . S
Ho397 O424 2.378 . S
Ho397 O425 2.524 . S
Ho397 O426 2.381 . S
Ho397 O427 2.669 . S
C398 O416 1.259 . S
C398 O417 1.268 . S
C399 Ho396 2.811 . S
C399 C400 1.488 . S
C399 O418 1.215 . S
C399 O419 1.289 . S
C400 C399 1.488 . S
C400 C401 1.348 . S
C400 C405 1.413 . S
C401 C400 1.348 . S
C401 C402 1.442 . S
C401 H428 0.930 . S
C402 C401 1.442 . S
C402 C403 1.381 . S
C402 H429 0.931 . S
C403 C402 1.381 . S
C403 C404 1.321 . S
C404 C403 1.321 . S
C404 C405 1.403 . S
C404 H430 0.934 . S
C405 C400 1.413 . S
C405 C404 1.403 . S
C405 H431 0.930 . S
C406 O420 1.275 . S
C406 O421 1.256 . S
C407 O422 1.259 . S
C407 O423 1.268 . S
C408 Ho397 2.811 . S
C408 C409 1.488 . S
C408 O424 1.215 . S
C408 O425 1.289 . S
C409 C408 1.488 . S
C409 C410 1.348 . S
C409 C414 1.413 . S
C410 C409 1.348 . S
C410 C411 1.442 . S
C410 H432 0.930 . S
C411 C410 1.442 . S
C411 C412 1.381 . S
C411 H433 0.931 . S
C412 C411 1.381 . S
C412 C413 1.321 . S
C413 C412 1.321 . S
C413 C414 1.403 . S
C413 H434 0.934 . S
C414 C409 1.413 . S
C414 C413 1.403 . S
C414 H435 0.930 . S
C415 O426 1.275 . S
C415 O427 1.256 . S
O416 Ho396 2.322 . S
O416 C398 1.259 . S
O417 Ho397 2.346 . S
O417 C398 1.268 . S
O418 Ho396 2.378 . S
O418 C399 1.215 . S
O419 Ho396 2.524 . S
O419 C399 1.289 . S
O420 Ho396 2.381 . S
O420 C406 1.275 . S
O421 Ho396 2.669 . S
O421 Ho397 2.305 . S
O421 C406 1.256 . S
O422 Ho397 2.322 . S
O422 C407 1.259 . S
O423 Ho396 2.346 . S
O423 C407 1.268 . S
O424 Ho397 2.378 . S
O424 C408 1.215 . S
O425 Ho397 2.524 . S
O425 C408 1.289 . S
O426 Ho397 2.381 . S
O426 C415 1.275 . S
O427 Ho396 2.305 . S
O427 Ho397 2.669 . S
O427 C415 1.256 . S
H428 C401 0.930 . S
H429 C402 0.931 . S
H430 C404 0.934 . S
H431 C405 0.930 . S
H432 C410 0.930 . S
H433 C411 0.931 . S
H434 C413 0.934 . S
H435 C414 0.930 . S
Ho436 C439 2.811 . S
Ho436 O456 2.322 . S
Ho436 O458 2.378 . S
Ho436 O459 2.524 . S
Ho436 O460 2.381 . S
Ho436 O461 2.669 . S
Ho436 O463 2.346 . S
Ho436 O467 2.305 . S
Ho437 C448 2.811 . S
Ho437 O457 2.346 . S
Ho437 O461 2.305 . S
Ho437 O462 2.322 . S
Ho437 O464 2.378 . S
Ho437 O465 2.524 . S
Ho437 O466 2.381 . S
Ho437 O467 2.669 . S
C438 O456 1.259 . S
C438 O457 1.268 . S
C439 Ho436 2.811 . S
C439 C440 1.488 . S
C439 O458 1.215 . S
C439 O459 1.289 . S
C440 C439 1.488 . S
C440 C441 1.348 . S
C440 C445 1.413 . S
C441 C440 1.348 . S
C441 C442 1.442 . S
C441 H468 0.930 . S
C442 C441 1.442 . S
C442 C443 1.381 . S
C442 H469 0.931 . S
C443 C442 1.381 . S
C443 C444 1.321 . S
C444 C443 1.321 . S
C444 C445 1.403 . S
C444 H470 0.934 . S
C445 C440 1.413 . S
C445 C444 1.403 . S
C445 H471 0.930 . S
C446 O460 1.275 . S
C446 O461 1.256 . S
C447 O462 1.259 . S
C447 O463 1.268 . S
C448 Ho437 2.811 . S
C448 C449 1.488 . S
C448 O464 1.215 . S
C448 O465 1.289 . S
C449 C448 1.488 . S
C449 C450 1.348 . S
C449 C454 1.413 . S
C450 C449 1.348 . S
C450 C451 1.442 . S
C450 H472 0.930 . S
C451 C450 1.442 . S
C451 C452 1.381 . S
C451 H473 0.931 . S
C452 C451 1.381 . S
C452 C453 1.321 . S
C453 C452 1.321 . S
C453 C454 1.403 . S
C453 H474 0.934 . S
C454 C449 1.413 . S
C454 C453 1.403 . S
C454 H475 0.930 . S
C455 O466 1.275 . S
C455 O467 1.256 . S
O456 Ho436 2.322 . S
O456 C438 1.259 . S
O457 Ho437 2.346 . S
O457 C438 1.268 . S
O458 Ho436 2.378 . S
O458 C439 1.215 . S
O459 Ho436 2.524 . S
O459 C439 1.289 . S
O460 Ho436 2.381 . S
O460 C446 1.275 . S
O461 Ho436 2.669 . S
O461 Ho437 2.305 . S
O461 C446 1.256 . S
O462 Ho437 2.322 . S
O462 C447 1.259 . S
O463 Ho436 2.346 . S
O463 C447 1.268 . S
O464 Ho437 2.378 . S
O464 C448 1.215 . S
O465 Ho437 2.524 . S
O465 C448 1.289 . S
O466 Ho437 2.381 . S
O466 C455 1.275 . S
O467 Ho436 2.305 . S
O467 Ho437 2.669 . S
O467 C455 1.256 . S
H468 C441 0.930 . S
H469 C442 0.931 . S
H470 C444 0.934 . S
H471 C445 0.930 . S
H472 C450 0.930 . S
H473 C451 0.931 . S
H474 C453 0.934 . S
H475 C454 0.930 . S
Ho476 C479 2.811 . S
Ho476 O496 2.322 . S
Ho476 O498 2.378 . S
Ho476 O499 2.524 . S
Ho476 O500 2.381 . S
Ho476 O501 2.669 . S
Ho476 O503 2.346 . S
Ho476 O507 2.305 . S
Ho477 C488 2.811 . S
Ho477 O497 2.346 . S
Ho477 O501 2.305 . S
Ho477 O502 2.322 . S
Ho477 O504 2.378 . S
Ho477 O505 2.524 . S
Ho477 O506 2.381 . S
Ho477 O507 2.669 . S
C478 O496 1.259 . S
C478 O497 1.268 . S
C479 Ho476 2.811 . S
C479 C480 1.488 . S
C479 O498 1.215 . S
C479 O499 1.289 . S
C480 C479 1.488 . S
C480 C481 1.348 . S
C480 C485 1.413 . S
C481 C480 1.348 . S
C481 C482 1.442 . S
C481 H508 0.930 . S
C482 C481 1.442 . S
C482 C483 1.381 . S
C482 H509 0.931 . S
C483 C482 1.381 . S
C483 C484 1.321 . S
C484 C483 1.321 . S
C484 C485 1.403 . S
C484 H510 0.934 . S
C485 C480 1.413 . S
C485 C484 1.403 . S
C485 H511 0.930 . S
C486 O500 1.275 . S
C486 O501 1.256 . S
C487 O502 1.259 . S
C487 O503 1.268 . S
C488 Ho477 2.811 . S
C488 C489 1.488 . S
C488 O504 1.215 . S
C488 O505 1.289 . S
C489 C488 1.488 . S
C489 C490 1.348 . S
C489 C494 1.413 . S
C490 C489 1.348 . S
C490 C491 1.442 . S
C490 H512 0.930 . S
C491 C490 1.442 . S
C491 C492 1.381 . S
C491 H513 0.931 . S
C492 C491 1.381 . S
C492 C493 1.321 . S
C493 C492 1.321 . S
C493 C494 1.403 . S
C493 H514 0.934 . S
C494 C489 1.413 . S
C494 C493 1.403 . S
C494 H515 0.930 . S
C495 O506 1.275 . S
C495 O507 1.256 . S
O496 Ho476 2.322 . S
O496 C478 1.259 . S
O497 Ho477 2.346 . S
O497 C478 1.268 . S
O498 Ho476 2.378 . S
O498 C479 1.215 . S
O499 Ho476 2.524 . S
O499 C479 1.289 . S
O500 Ho476 2.381 . S
O500 C486 1.275 . S
O501 Ho476 2.669 . S
O501 Ho477 2.305 . S
O501 C486 1.256 . S
O502 Ho477 2.322 . S
O502 C487 1.259 . S
O503 Ho476 2.346 . S
O503 C487 1.268 . S
O504 Ho477 2.378 . S
O504 C488 1.215 . S
O505 Ho477 2.524 . S
O505 C488 1.289 . S
O506 Ho477 2.381 . S
O506 C495 1.275 . S
O507 Ho476 2.305 . S
O507 Ho477 2.669 . S
O507 C495 1.256 . S
H508 C481 0.930 . S
H509 C482 0.931 . S
H510 C484 0.934 . S
H511 C485 0.930 . S
H512 C490 0.930 . S
H513 C491 0.931 . S
H514 C493 0.934 . S
H515 C494 0.930 . S
Ho516 C519 2.811 . S
Ho516 O536 2.322 . S
Ho516 O538 2.378 . S
Ho516 O539 2.524 . S
Ho516 O540 2.381 . S
Ho516 O541 2.669 . S
Ho516 O543 2.346 . S
Ho516 O547 2.305 . S
Ho517 C528 2.811 . S
Ho517 O537 2.346 . S
Ho517 O541 2.305 . S
Ho517 O542 2.322 . S
Ho517 O544 2.378 . S
Ho517 O545 2.524 . S
Ho517 O546 2.381 . S
Ho517 O547 2.669 . S
C518 O536 1.259 . S
C518 O537 1.268 . S
C519 Ho516 2.811 . S
C519 C520 1.488 . S
C519 O538 1.215 . S
C519 O539 1.289 . S
C520 C519 1.488 . S
C520 C521 1.348 . S
C520 C525 1.413 . S
C521 C520 1.348 . S
C521 C522 1.442 . S
C521 H548 0.930 . S
C522 C521 1.442 . S
C522 C523 1.381 . S
C522 H549 0.931 . S
C523 C522 1.381 . S
C523 C524 1.321 . S
C524 C523 1.321 . S
C524 C525 1.403 . S
C524 H550 0.934 . S
C525 C520 1.413 . S
C525 C524 1.403 . S
C525 H551 0.930 . S
C526 O540 1.275 . S
C526 O541 1.256 . S
C527 O542 1.259 . S
C527 O543 1.268 . S
C528 Ho517 2.811 . S
C528 C529 1.488 . S
C528 O544 1.215 . S
C528 O545 1.289 . S
C529 C528 1.488 . S
C529 C530 1.348 . S
C529 C534 1.413 . S
C530 C529 1.348 . S
C530 C531 1.442 . S
C530 H552 0.930 . S
C531 C530 1.442 . S
C531 C532 1.381 . S
C531 H553 0.931 . S
C532 C531 1.381 . S
C532 C533 1.321 . S
C533 C532 1.321 . S
C533 C534 1.403 . S
C533 H554 0.934 . S
C534 C529 1.413 . S
C534 C533 1.403 . S
C534 H555 0.930 . S
C535 O546 1.275 . S
C535 O547 1.256 . S
O536 Ho516 2.322 . S
O536 C518 1.259 . S
O537 Ho517 2.346 . S
O537 C518 1.268 . S
O538 Ho516 2.378 . S
O538 C519 1.215 . S
O539 Ho516 2.524 . S
O539 C519 1.289 . S
O540 Ho516 2.381 . S
O540 C526 1.275 . S
O541 Ho516 2.669 . S
O541 Ho517 2.305 . S
O541 C526 1.256 . S
O542 Ho517 2.322 . S
O542 C527 1.259 . S
O543 Ho516 2.346 . S
O543 C527 1.268 . S
O544 Ho517 2.378 . S
O544 C528 1.215 . S
O545 Ho517 2.524 . S
O545 C528 1.289 . S
O546 Ho517 2.381 . S
O546 C535 1.275 . S
O547 Ho516 2.305 . S
O547 Ho517 2.669 . S
O547 C535 1.256 . S
H548 C521 0.930 . S
H549 C522 0.931 . S
H550 C524 0.934 . S
H551 C525 0.930 . S
H552 C530 0.930 . S
H553 C531 0.931 . S
H554 C533 0.934 . S
H555 C534 0.930 . S
Ho556 C559 2.811 . S
Ho556 O576 2.322 . S
Ho556 O578 2.378 . S
Ho556 O579 2.524 . S
Ho556 O580 2.381 . S
Ho556 O581 2.669 . S
Ho556 O583 2.346 . S
Ho556 O587 2.305 . S
Ho557 C568 2.811 . S
Ho557 O577 2.346 . S
Ho557 O581 2.305 . S
Ho557 O582 2.322 . S
Ho557 O584 2.378 . S
Ho557 O585 2.524 . S
Ho557 O586 2.381 . S
Ho557 O587 2.669 . S
C558 O576 1.259 . S
C558 O577 1.268 . S
C559 Ho556 2.811 . S
C559 C560 1.488 . S
C559 O578 1.215 . S
C559 O579 1.289 . S
C560 C559 1.488 . S
C560 C561 1.348 . S
C560 C565 1.413 . S
C561 C560 1.348 . S
C561 C562 1.442 . S
C561 H588 0.930 . S
C562 C561 1.442 . S
C562 C563 1.381 . S
C562 H589 0.931 . S
C563 C562 1.381 . S
C563 C564 1.321 . S
C564 C563 1.321 . S
C564 C565 1.403 . S
C564 H590 0.934 . S
C565 C560 1.413 . S
C565 C564 1.403 . S
C565 H591 0.930 . S
C566 O580 1.275 . S
C566 O581 1.256 . S
C567 O582 1.259 . S
C567 O583 1.268 . S
C568 Ho557 2.811 . S
C568 C569 1.488 . S
C568 O584 1.215 . S
C568 O585 1.289 . S
C569 C568 1.488 . S
C569 C570 1.348 . S
C569 C574 1.413 . S
C570 C569 1.348 . S
C570 C571 1.442 . S
C570 H592 0.930 . S
C571 C570 1.442 . S
C571 C572 1.381 . S
C571 H593 0.931 . S
C572 C571 1.381 . S
C572 C573 1.321 . S
C573 C572 1.321 . S
C573 C574 1.403 . S
C573 H594 0.934 . S
C574 C569 1.413 . S
C574 C573 1.403 . S
C574 H595 0.930 . S
C575 O586 1.275 . S
C575 O587 1.256 . S
O576 Ho556 2.322 . S
O576 C558 1.259 . S
O577 Ho557 2.346 . S
O577 C558 1.268 . S
O578 Ho556 2.378 . S
O578 C559 1.215 . S
O579 Ho556 2.524 . S
O579 C559 1.289 . S
O580 Ho556 2.381 . S
O580 C566 1.275 . S
O581 Ho556 2.669 . S
O581 Ho557 2.305 . S
O581 C566 1.256 . S
O582 Ho557 2.322 . S
O582 C567 1.259 . S
O583 Ho556 2.346 . S
O583 C567 1.268 . S
O584 Ho557 2.378 . S
O584 C568 1.215 . S
O585 Ho557 2.524 . S
O585 C568 1.289 . S
O586 Ho557 2.381 . S
O586 C575 1.275 . S
O587 Ho556 2.305 . S
O587 Ho557 2.669 . S
O587 C575 1.256 . S
H588 C561 0.930 . S
H589 C562 0.931 . S
H590 C564 0.934 . S
H591 C565 0.930 . S
H592 C570 0.930 . S
H593 C571 0.931 . S
H594 C573 0.934 . S
H595 C574 0.930 . S
H596 C604 0.929 . S
H597 C606 0.930 . S
H598 C608 0.930 . S
H599 C611 0.929 . S
H600 C614 0.930 . S
H601 C616 0.960 . S
H602 C616 0.960 . S
H603 C616 0.960 . S
C604 H596 0.929 . S
C604 C605 1.377 . S
C604 C606 1.384 . S
C605 C604 1.377 . S
C605 C611 1.390 . S
C606 H597 0.930 . S
C606 C604 1.384 . S
C606 C607 1.372 . S
C607 C606 1.372 . S
C607 C608 1.400 . S
C607 C612 1.490 . S
C608 H598 0.930 . S
C608 C607 1.400 . S
C608 C611 1.386 . S
H609 C625 0.930 . S
H610 C626 0.931 . S
C611 H599 0.929 . S
C611 C605 1.390 . S
C611 C608 1.386 . S
C612 C607 1.490 . S
C612 C614 1.395 . S
C612 C615 1.403 . S
H613 C619 0.930 . S
C614 H600 0.930 . S
C614 C612 1.395 . S
C614 C617 1.403 . S
C615 C612 1.403 . S
C615 C616 1.524 . S
C615 C619 1.400 . S
C616 H601 0.960 . S
C616 H602 0.960 . S
C616 H603 0.960 . S
C616 C615 1.524 . S
C617 C614 1.403 . S
C617 C618 1.392 . S
C617 C621 1.495 . S
C618 C617 1.392 . S
C618 C619 1.385 . S
C618 C620 1.478 . S
C619 H613 0.930 . S
C619 C615 1.400 . S
C619 C618 1.385 . S
C620 C618 1.478 . S
C620 C622 1.381 . S
C620 C626 1.383 . S
C621 C617 1.495 . S
C621 H627 0.959 . S
C621 H628 0.961 . S
C621 H629 0.960 . S
C622 C620 1.381 . S
C622 C623 1.394 . S
C622 H630 0.930 . S
C623 C622 1.394 . S
C623 C624 1.383 . S
C623 H631 0.929 . S
C624 C623 1.383 . S
C624 C625 1.377 . S
C625 H609 0.930 . S
C625 C624 1.377 . S
C625 C626 1.379 . S
C626 H610 0.931 . S
C626 C620 1.383 . S
C626 C625 1.379 . S
H627 C621 0.959 . S
H628 C621 0.961 . S
H629 C621 0.960 . S
H630 C622 0.930 . S
H631 C623 0.929 . S
H632 C640 0.929 . S
H633 C642 0.930 . S
H634 C644 0.930 . S
H635 C647 0.929 . S
H636 C650 0.930 . S
H637 C652 0.960 . S
H638 C652 0.960 . S
H639 C652 0.960 . S
C640 H632 0.929 . S
C640 C641 1.377 . S
C640 C642 1.384 . S
C641 C640 1.377 . S
C641 C647 1.390 . S
C642 H633 0.930 . S
C642 C640 1.384 . S
C642 C643 1.372 . S
C643 C642 1.372 . S
C643 C644 1.400 . S
C643 C648 1.490 . S
C644 H634 0.930 . S
C644 C643 1.400 . S
C644 C647 1.386 . S
H645 C661 0.930 . S
H646 C662 0.931 . S
C647 H635 0.929 . S
C647 C641 1.390 . S
C647 C644 1.386 . S
C648 C643 1.490 . S
C648 C650 1.395 . S
C648 C651 1.403 . S
H649 C655 0.930 . S
C650 H636 0.930 . S
C650 C648 1.395 . S
C650 C653 1.403 . S
C651 C648 1.403 . S
C651 C652 1.524 . S
C651 C655 1.400 . S
C652 H637 0.960 . S
C652 H638 0.960 . S
C652 H639 0.960 . S
C652 C651 1.524 . S
C653 C650 1.403 . S
C653 C654 1.392 . S
C653 C657 1.495 . S
C654 C653 1.392 . S
C654 C655 1.385 . S
C654 C656 1.478 . S
C655 H649 0.930 . S
C655 C651 1.400 . S
C655 C654 1.385 . S
C656 C654 1.478 . S
C656 C658 1.381 . S
C656 C662 1.383 . S
C657 C653 1.495 . S
C657 H663 0.959 . S
C657 H664 0.961 . S
C657 H665 0.960 . S
C658 C656 1.381 . S
C658 C659 1.394 . S
C658 H666 0.930 . S
C659 C658 1.394 . S
C659 C660 1.383 . S
C659 H667 0.929 . S
C660 C659 1.383 . S
C660 C661 1.377 . S
C661 H645 0.930 . S
C661 C660 1.377 . S
C661 C662 1.379 . S
C662 H646 0.931 . S
C662 C656 1.383 . S
C662 C661 1.379 . S
H663 C657 0.959 . S
H664 C657 0.961 . S
H665 C657 0.960 . S
H666 C658 0.930 . S
H667 C659 0.929 . S
H668 C676 0.929 . S
H669 C678 0.930 . S
H670 C680 0.930 . S
H671 C683 0.929 . S
H672 C686 0.930 . S
H673 C688 0.960 . S
H674 C688 0.960 . S
H675 C688 0.960 . S
C676 H668 0.929 . S
C676 C677 1.377 . S
C676 C678 1.384 . S
C677 C676 1.377 . S
C677 C683 1.390 . S
C678 H669 0.930 . S
C678 C676 1.384 . S
C678 C679 1.372 . S
C679 C678 1.372 . S
C679 C680 1.400 . S
C679 C684 1.490 . S
C680 H670 0.930 . S
C680 C679 1.400 . S
C680 C683 1.386 . S
H681 C697 0.930 . S
H682 C698 0.931 . S
C683 H671 0.929 . S
C683 C677 1.390 . S
C683 C680 1.386 . S
C684 C679 1.490 . S
C684 C686 1.395 . S
C684 C687 1.403 . S
H685 C691 0.930 . S
C686 H672 0.930 . S
C686 C684 1.395 . S
C686 C689 1.403 . S
C687 C684 1.403 . S
C687 C688 1.524 . S
C687 C691 1.400 . S
C688 H673 0.960 . S
C688 H674 0.960 . S
C688 H675 0.960 . S
C688 C687 1.524 . S
C689 C686 1.403 . S
C689 C690 1.392 . S
C689 C693 1.495 . S
C690 C689 1.392 . S
C690 C691 1.385 . S
C690 C692 1.478 . S
C691 H685 0.930 . S
C691 C687 1.400 . S
C691 C690 1.385 . S
C692 C690 1.478 . S
C692 C694 1.381 . S
C692 C698 1.383 . S
C693 C689 1.495 . S
C693 H699 0.959 . S
C693 H700 0.961 . S
C693 H701 0.960 . S
C694 C692 1.381 . S
C694 C695 1.394 . S
C694 H702 0.930 . S
C695 C694 1.394 . S
C695 C696 1.383 . S
C695 H703 0.929 . S
C696 C695 1.383 . S
C696 C697 1.377 . S
C697 H681 0.930 . S
C697 C696 1.377 . S
C697 C698 1.379 . S
C698 H682 0.931 . S
C698 C692 1.383 . S
C698 C697 1.379 . S
H699 C693 0.959 . S
H700 C693 0.961 . S
H701 C693 0.960 . S
H702 C694 0.930 . S
H703 C695 0.929 . S
H704 C712 0.929 . S
H705 C714 0.930 . S
H706 C716 0.930 . S
H707 C719 0.929 . S
H708 C722 0.930 . S
H709 C724 0.960 . S
H710 C724 0.960 . S
H711 C724 0.960 . S
C712 H704 0.929 . S
C712 C713 1.377 . S
C712 C714 1.384 . S
C713 C712 1.377 . S
C713 C719 1.390 . S
C714 H705 0.930 . S
C714 C712 1.384 . S
C714 C715 1.372 . S
C715 C714 1.372 . S
C715 C716 1.400 . S
C715 C720 1.490 . S
C716 H706 0.930 . S
C716 C715 1.400 . S
C716 C719 1.386 . S
H717 C733 0.930 . S
H718 C734 0.931 . S
C719 H707 0.929 . S
C719 C713 1.390 . S
C719 C716 1.386 . S
C720 C715 1.490 . S
C720 C722 1.395 . S
C720 C723 1.403 . S
H721 C727 0.930 . S
C722 H708 0.930 . S
C722 C720 1.395 . S
C722 C725 1.403 . S
C723 C720 1.403 . S
C723 C724 1.524 . S
C723 C727 1.400 . S
C724 H709 0.960 . S
C724 H710 0.960 . S
C724 H711 0.960 . S
C724 C723 1.524 . S
C725 C722 1.403 . S
C725 C726 1.392 . S
C725 C729 1.495 . S
C726 C725 1.392 . S
C726 C727 1.385 . S
C726 C728 1.478 . S
C727 H721 0.930 . S
C727 C723 1.400 . S
C727 C726 1.385 . S
C728 C726 1.478 . S
C728 C730 1.381 . S
C728 C734 1.383 . S
C729 C725 1.495 . S
C729 H735 0.959 . S
C729 H736 0.961 . S
C729 H737 0.960 . S
C730 C728 1.381 . S
C730 C731 1.394 . S
C730 H738 0.930 . S
C731 C730 1.394 . S
C731 C732 1.383 . S
C731 H739 0.929 . S
C732 C731 1.383 . S
C732 C733 1.377 . S
C733 H717 0.930 . S
C733 C732 1.377 . S
C733 C734 1.379 . S
C734 H718 0.931 . S
C734 C728 1.383 . S
C734 C733 1.379 . S
H735 C729 0.959 . S
H736 C729 0.961 . S
H737 C729 0.960 . S
H738 C730 0.930 . S
H739 C731 0.929 . S
H740 C748 0.929 . S
H741 C750 0.930 . S
H742 C752 0.930 . S
H743 C755 0.929 . S
H744 C758 0.930 . S
H745 C760 0.960 . S
H746 C760 0.960 . S
H747 C760 0.960 . S
C748 H740 0.929 . S
C748 C749 1.377 . S
C748 C750 1.384 . S
C749 C748 1.377 . S
C749 C755 1.390 . S
C750 H741 0.930 . S
C750 C748 1.384 . S
C750 C751 1.372 . S
C751 C750 1.372 . S
C751 C752 1.400 . S
C751 C756 1.490 . S
C752 H742 0.930 . S
C752 C751 1.400 . S
C752 C755 1.386 . S
H753 C769 0.930 . S
H754 C770 0.931 . S
C755 H743 0.929 . S
C755 C749 1.390 . S
C755 C752 1.386 . S
C756 C751 1.490 . S
C756 C758 1.395 . S
C756 C759 1.403 . S
H757 C763 0.930 . S
C758 H744 0.930 . S
C758 C756 1.395 . S
C758 C761 1.403 . S
C759 C756 1.403 . S
C759 C760 1.524 . S
C759 C763 1.400 . S
C760 H745 0.960 . S
C760 H746 0.960 . S
C760 H747 0.960 . S
C760 C759 1.524 . S
C761 C758 1.403 . S
C761 C762 1.392 . S
C761 C765 1.495 . S
C762 C761 1.392 . S
C762 C763 1.385 . S
C762 C764 1.478 . S
C763 H757 0.930 . S
C763 C759 1.400 . S
C763 C762 1.385 . S
C764 C762 1.478 . S
C764 C766 1.381 . S
C764 C770 1.383 . S
C765 C761 1.495 . S
C765 H771 0.959 . S
C765 H772 0.961 . S
C765 H773 0.960 . S
C766 C764 1.381 . S
C766 C767 1.394 . S
C766 H774 0.930 . S
C767 C766 1.394 . S
C767 C768 1.383 . S
C767 H775 0.929 . S
C768 C767 1.383 . S
C768 C769 1.377 . S
C769 H753 0.930 . S
C769 C768 1.377 . S
C769 C770 1.379 . S
C770 H754 0.931 . S
C770 C764 1.383 . S
C770 C769 1.379 . S
H771 C765 0.959 . S
H772 C765 0.961 . S
H773 C765 0.960 . S
H774 C766 0.930 . S
H775 C767 0.929 . S
H776 C784 0.929 . S
H777 C786 0.930 . S
H778 C788 0.930 . S
H779 C791 0.929 . S
H780 C794 0.930 . S
H781 C796 0.960 . S
H782 C796 0.960 . S
H783 C796 0.960 . S
C784 H776 0.929 . S
C784 C785 1.377 . S
C784 C786 1.384 . S
C785 C784 1.377 . S
C785 C791 1.390 . S
C786 H777 0.930 . S
C786 C784 1.384 . S
C786 C787 1.372 . S
C787 C786 1.372 . S
C787 C788 1.400 . S
C787 C792 1.490 . S
C788 H778 0.930 . S
C788 C787 1.400 . S
C788 C791 1.386 . S
H789 C805 0.930 . S
H790 C806 0.931 . S
C791 H779 0.929 . S
C791 C785 1.390 . S
C791 C788 1.386 . S
C792 C787 1.490 . S
C792 C794 1.395 . S
C792 C795 1.403 . S
H793 C799 0.930 . S
C794 H780 0.930 . S
C794 C792 1.395 . S
C794 C797 1.403 . S
C795 C792 1.403 . S
C795 C796 1.524 . S
C795 C799 1.400 . S
C796 H781 0.960 . S
C796 H782 0.960 . S
C796 H783 0.960 . S
C796 C795 1.524 . S
C797 C794 1.403 . S
C797 C798 1.392 . S
C797 C801 1.495 . S
C798 C797 1.392 . S
C798 C799 1.385 . S
C798 C800 1.478 . S
C799 H793 0.930 . S
C799 C795 1.400 . S
C799 C798 1.385 . S
C800 C798 1.478 . S
C800 C802 1.381 . S
C800 C806 1.383 . S
C801 C797 1.495 . S
C801 H807 0.959 . S
C801 H808 0.961 . S
C801 H809 0.960 . S
C802 C800 1.381 . S
C802 C803 1.394 . S
C802 H810 0.930 . S
C803 C802 1.394 . S
C803 C804 1.383 . S
C803 H811 0.929 . S
C804 C803 1.383 . S
C804 C805 1.377 . S
C805 H789 0.930 . S
C805 C804 1.377 . S
C805 C806 1.379 . S
C806 H790 0.931 . S
C806 C800 1.383 . S
C806 C805 1.379 . S
H807 C801 0.959 . S
H808 C801 0.961 . S
H809 C801 0.960 . S
H810 C802 0.930 . S
H811 C803 0.929 . S
H812 C820 0.929 . S
H813 C822 0.930 . S
H814 C824 0.930 . S
H815 C827 0.929 . S
H816 C830 0.930 . S
H817 C832 0.960 . S
H818 C832 0.960 . S
H819 C832 0.960 . S
C820 H812 0.929 . S
C820 C821 1.377 . S
C820 C822 1.384 . S
C821 C820 1.377 . S
C821 C827 1.390 . S
C822 H813 0.930 . S
C822 C820 1.384 . S
C822 C823 1.372 . S
C823 C822 1.372 . S
C823 C824 1.400 . S
C823 C828 1.490 . S
C824 H814 0.930 . S
C824 C823 1.400 . S
C824 C827 1.386 . S
H825 C841 0.930 . S
H826 C842 0.931 . S
C827 H815 0.929 . S
C827 C821 1.390 . S
C827 C824 1.386 . S
C828 C823 1.490 . S
C828 C830 1.395 . S
C828 C831 1.403 . S
H829 C835 0.930 . S
C830 H816 0.930 . S
C830 C828 1.395 . S
C830 C833 1.403 . S
C831 C828 1.403 . S
C831 C832 1.524 . S
C831 C835 1.400 . S
C832 H817 0.960 . S
C832 H818 0.960 . S
C832 H819 0.960 . S
C832 C831 1.524 . S
C833 C830 1.403 . S
C833 C834 1.392 . S
C833 C837 1.495 . S
C834 C833 1.392 . S
C834 C835 1.385 . S
C834 C836 1.478 . S
C835 H829 0.930 . S
C835 C831 1.400 . S
C835 C834 1.385 . S
C836 C834 1.478 . S
C836 C838 1.381 . S
C836 C842 1.383 . S
C837 C833 1.495 . S
C837 H843 0.959 . S
C837 H844 0.961 . S
C837 H845 0.960 . S
C838 C836 1.381 . S
C838 C839 1.394 . S
C838 H846 0.930 . S
C839 C838 1.394 . S
C839 C840 1.383 . S
C839 H847 0.929 . S
C840 C839 1.383 . S
C840 C841 1.377 . S
C841 H825 0.930 . S
C841 C840 1.377 . S
C841 C842 1.379 . S
C842 H826 0.931 . S
C842 C836 1.383 . S
C842 C841 1.379 . S
H843 C837 0.959 . S
H844 C837 0.961 . S
H845 C837 0.960 . S
H846 C838 0.930 . S
H847 C839 0.929 . S
H848 C856 0.929 . S
H849 C858 0.930 . S
H850 C860 0.930 . S
H851 C863 0.929 1_545 S
H852 C866 0.930 . S
H853 C868 0.960 . S
H854 C868 0.960 . S
H855 C868 0.960 . S
C856 H848 0.929 . S
C856 C857 1.377 . S
C856 C858 1.384 . S
C857 C856 1.377 . S
C857 C863 1.390 . S
C858 H849 0.930 . S
C858 C856 1.384 . S
C858 C859 1.372 . S
C859 C858 1.372 . S
C859 C860 1.400 . S
C859 C864 1.490 . S
C860 H850 0.930 . S
C860 C859 1.400 . S
C860 C863 1.386 . S
H861 C877 0.930 . S
H862 C878 0.931 . S
C863 H851 0.929 1_565 S
C863 C857 1.390 . S
C863 C860 1.386 . S
C864 C859 1.490 . S
C864 C866 1.395 . S
C864 C867 1.403 . S
H865 C871 0.930 . S
C866 H852 0.930 . S
C866 C864 1.395 . S
C866 C869 1.403 . S
C867 C864 1.403 . S
C867 C868 1.524 . S
C867 C871 1.400 . S
C868 H853 0.960 . S
C868 H854 0.960 . S
C868 H855 0.960 . S
C868 C867 1.524 . S
C869 C866 1.403 . S
C869 C870 1.392 . S
C869 C873 1.495 . S
C870 C869 1.392 . S
C870 C871 1.385 . S
C870 C872 1.478 . S
C871 H865 0.930 . S
C871 C867 1.400 . S
C871 C870 1.385 . S
C872 C870 1.478 . S
C872 C874 1.381 . S
C872 C878 1.383 . S
C873 C869 1.495 . S
C873 H879 0.959 . S
C873 H880 0.961 . S
C873 H881 0.960 . S
C874 C872 1.381 . S
C874 C875 1.394 . S
C874 H882 0.930 . S
C875 C874 1.394 . S
C875 C876 1.383 . S
C875 H883 0.929 . S
C876 C875 1.383 . S
C876 C877 1.377 . S
C877 H861 0.930 . S
C877 C876 1.377 . S
C877 C878 1.379 . S
C878 H862 0.931 . S
C878 C872 1.383 . S
C878 C877 1.379 . S
H879 C873 0.959 . S
H880 C873 0.961 . S
H881 C873 0.960 . S
H882 C874 0.930 . S
H883 C875 0.929 . S
H884 C892 0.929 . S
H885 C894 0.930 . S
H886 C896 0.930 . S
H887 C899 0.929 . S
H888 C902 0.930 . S
H889 C904 0.960 . S
H890 C904 0.960 . S
H891 C904 0.960 . S
C892 H884 0.929 . S
C892 C893 1.377 . S
C892 C894 1.384 . S
C893 C892 1.377 . S
C893 C899 1.390 . S
C894 H885 0.930 . S
C894 C892 1.384 . S
C894 C895 1.372 . S
C895 C894 1.372 . S
C895 C896 1.400 . S
C895 C900 1.490 . S
C896 H886 0.930 . S
C896 C895 1.400 . S
C896 C899 1.386 . S
H897 C913 0.930 . S
H898 C914 0.931 . S
C899 H887 0.929 . S
C899 C893 1.390 . S
C899 C896 1.386 . S
C900 C895 1.490 . S
C900 C902 1.395 . S
C900 C903 1.403 . S
H901 C907 0.930 . S
C902 H888 0.930 . S
C902 C900 1.395 . S
C902 C905 1.403 . S
C903 C900 1.403 . S
C903 C904 1.524 . S
C903 C907 1.400 . S
C904 H889 0.960 . S
C904 H890 0.960 . S
C904 H891 0.960 . S
C904 C903 1.524 . S
C905 C902 1.403 . S
C905 C906 1.392 . S
C905 C909 1.495 . S
C906 C905 1.392 . S
C906 C907 1.385 . S
C906 C908 1.478 . S
C907 H901 0.930 . S
C907 C903 1.400 . S
C907 C906 1.385 . S
C908 C906 1.478 . S
C908 C910 1.381 . S
C908 C914 1.383 . S
C909 C905 1.495 . S
C909 H915 0.959 . S
C909 H916 0.961 . S
C909 H917 0.960 . S
C910 C908 1.381 . S
C910 C911 1.394 . S
C910 H918 0.930 . S
C911 C910 1.394 . S
C911 C912 1.383 . S
C911 H919 0.929 . S
C912 C911 1.383 . S
C912 C913 1.377 . S
C913 H897 0.930 . S
C913 C912 1.377 . S
C913 C914 1.379 . S
C914 H898 0.931 . S
C914 C908 1.383 . S
C914 C913 1.379 . S
H915 C909 0.959 . S
H916 C909 0.961 . S
H917 C909 0.960 . S
H918 C910 0.930 . S
H919 C911 0.929 . S
H920 C928 0.929 . S
H921 C930 0.930 . S
H922 C932 0.930 . S
H923 C935 0.929 . S
H924 C938 0.930 . S
H925 C940 0.960 . S
H926 C940 0.960 . S
H927 C940 0.960 . S
C928 H920 0.929 . S
C928 C929 1.377 . S
C928 C930 1.384 . S
C929 C928 1.377 . S
C929 C935 1.390 . S
C930 H921 0.930 . S
C930 C928 1.384 . S
C930 C931 1.372 . S
C931 C930 1.372 . S
C931 C932 1.400 . S
C931 C936 1.490 . S
C932 H922 0.930 . S
C932 C931 1.400 . S
C932 C935 1.386 . S
H933 C949 0.930 . S
H934 C950 0.931 . S
C935 H923 0.929 . S
C935 C929 1.390 . S
C935 C932 1.386 . S
C936 C931 1.490 . S
C936 C938 1.395 . S
C936 C939 1.403 . S
H937 C943 0.930 . S
C938 H924 0.930 . S
C938 C936 1.395 . S
C938 C941 1.403 . S
C939 C936 1.403 . S
C939 C940 1.524 . S
C939 C943 1.400 . S
C940 H925 0.960 . S
C940 H926 0.960 . S
C940 H927 0.960 . S
C940 C939 1.524 . S
C941 C938 1.403 . S
C941 C942 1.392 . S
C941 C945 1.495 . S
C942 C941 1.392 . S
C942 C943 1.385 . S
C942 C944 1.478 . S
C943 H937 0.930 . S
C943 C939 1.400 . S
C943 C942 1.385 . S
C944 C942 1.478 . S
C944 C946 1.381 . S
C944 C950 1.383 . S
C945 C941 1.495 . S
C945 H951 0.959 . S
C945 H952 0.961 . S
C945 H953 0.960 . S
C946 C944 1.381 . S
C946 C947 1.394 . S
C946 H954 0.930 . S
C947 C946 1.394 . S
C947 C948 1.383 . S
C947 H955 0.929 . S
C948 C947 1.383 . S
C948 C949 1.377 . S
C949 H933 0.930 . S
C949 C948 1.377 . S
C949 C950 1.379 . S
C950 H934 0.931 . S
C950 C944 1.383 . S
C950 C949 1.379 . S
H951 C945 0.959 . S
H952 C945 0.961 . S
H953 C945 0.960 . S
H954 C946 0.930 . S
H955 C947 0.929 . S
H956 C964 0.929 . S
H957 C966 0.930 . S
H958 C968 0.930 . S
H959 C971 0.929 . S
H960 C974 0.930 . S
H961 C976 0.960 . S
H962 C976 0.960 . S
H963 C976 0.960 . S
C964 H956 0.929 . S
C964 C965 1.377 . S
C964 C966 1.384 . S
C965 C964 1.377 . S
C965 C971 1.390 . S
C966 H957 0.930 . S
C966 C964 1.384 . S
C966 C967 1.372 . S
C967 C966 1.372 . S
C967 C968 1.400 . S
C967 C972 1.490 . S
C968 H958 0.930 . S
C968 C967 1.400 . S
C968 C971 1.386 . S
H969 C985 0.930 . S
H970 C986 0.931 . S
C971 H959 0.929 . S
C971 C965 1.390 . S
C971 C968 1.386 . S
C972 C967 1.490 . S
C972 C974 1.395 . S
C972 C975 1.403 . S
H973 C979 0.930 . S
C974 H960 0.930 . S
C974 C972 1.395 . S
C974 C977 1.403 . S
C975 C972 1.403 . S
C975 C976 1.524 . S
C975 C979 1.400 . S
C976 H961 0.960 . S
C976 H962 0.960 . S
C976 H963 0.960 . S
C976 C975 1.524 . S
C977 C974 1.403 . S
C977 C978 1.392 . S
C977 C981 1.495 . S
C978 C977 1.392 . S
C978 C979 1.385 . S
C978 C980 1.478 . S
C979 H973 0.930 . S
C979 C975 1.400 . S
C979 C978 1.385 . S
C980 C978 1.478 . S
C980 C982 1.381 . S
C980 C986 1.383 . S
C981 C977 1.495 . S
C981 H987 0.959 . S
C981 H988 0.961 . S
C981 H989 0.960 . S
C982 C980 1.381 . S
C982 C983 1.394 . S
C982 H990 0.930 . S
C983 C982 1.394 . S
C983 C984 1.383 . S
C983 H991 0.929 . S
C984 C983 1.383 . S
C984 C985 1.377 . S
C985 H969 0.930 . S
C985 C984 1.377 . S
C985 C986 1.379 . S
C986 H970 0.931 . S
C986 C980 1.383 . S
C986 C985 1.379 . S
H987 C981 0.959 . S
H988 C981 0.961 . S
H989 C981 0.960 . S
H990 C982 0.930 . S
H991 C983 0.929 . S
H992 C1000 0.929 . S
H993 C1002 0.930 . S
H994 C1004 0.930 . S
H995 C1007 0.929 . S
H996 C1010 0.930 . S
H997 C1012 0.960 . S
H998 C1012 0.960 . S
H999 C1012 0.960 . S
C1000 H992 0.929 . S
C1000 C1001 1.377 . S
C1000 C1002 1.384 . S
C1001 C1000 1.377 . S
C1001 C1007 1.390 . S
C1002 H993 0.930 . S
C1002 C1000 1.384 . S
C1002 C1003 1.372 . S
C1003 C1002 1.372 . S
C1003 C1004 1.400 . S
C1003 C1008 1.490 . S
C1004 H994 0.930 . S
C1004 C1003 1.400 . S
C1004 C1007 1.386 . S
H1005 C1021 0.930 . S
H1006 C1022 0.931 . S
C1007 H995 0.929 . S
C1007 C1001 1.390 . S
C1007 C1004 1.386 . S
C1008 C1003 1.490 . S
C1008 C1010 1.395 . S
C1008 C1011 1.403 . S
H1009 C1015 0.930 . S
C1010 H996 0.930 . S
C1010 C1008 1.395 . S
C1010 C1013 1.403 . S
C1011 C1008 1.403 . S
C1011 C1012 1.524 . S
C1011 C1015 1.400 . S
C1012 H997 0.960 . S
C1012 H998 0.960 . S
C1012 H999 0.960 . S
C1012 C1011 1.524 . S
C1013 C1010 1.403 . S
C1013 C1014 1.392 . S
C1013 C1017 1.495 . S
C1014 C1013 1.392 . S
C1014 C1015 1.385 . S
C1014 C1016 1.478 . S
C1015 H1009 0.930 . S
C1015 C1011 1.400 . S
C1015 C1014 1.385 . S
C1016 C1014 1.478 . S
C1016 C1018 1.381 . S
C1016 C1022 1.383 . S
C1017 C1013 1.495 . S
C1017 H1023 0.959 . S
C1017 H1024 0.961 . S
C1017 H1025 0.960 . S
C1018 C1016 1.381 . S
C1018 C1019 1.394 . S
C1018 H1026 0.930 . S
C1019 C1018 1.394 . S
C1019 C1020 1.383 . S
C1019 H1027 0.929 . S
C1020 C1019 1.383 . S
C1020 C1021 1.377 . S
C1021 H1005 0.930 . S
C1021 C1020 1.377 . S
C1021 C1022 1.379 . S
C1022 H1006 0.931 . S
C1022 C1016 1.383 . S
C1022 C1021 1.379 . S
H1023 C1017 0.959 . S
H1024 C1017 0.961 . S
H1025 C1017 0.960 . S
H1026 C1018 0.930 . S
H1027 C1019 0.929 . S
H1028 C1036 0.949 1_556 S
H1029 C1038 0.930 . S
H1030 C1040 0.930 . S
H1031 C1043 0.929 . S
H1032 C1046 0.930 . S
H1033 C1048 0.960 . S
H1034 C1048 0.960 . S
H1035 C1048 0.960 . S
C1036 H1028 0.949 1_554 S
C1036 C1037 1.377 . S
C1036 C1038 1.384 1_554 S
C1037 C1036 1.377 . S
C1037 C1043 1.390 . S
C1038 H1029 0.930 . S
C1038 C1036 1.384 1_556 S
C1038 C1039 1.372 . S
C1039 C1038 1.372 . S
C1039 C1040 1.400 1_556 S
C1039 C1044 1.490 . S
C1040 H1030 0.930 . S
C1040 C1039 1.400 1_554 S
C1040 C1043 1.386 . S
H1041 C1057 0.930 . S
H1042 C1058 0.931 . S
C1043 H1031 0.929 . S
C1043 C1037 1.390 . S
C1043 C1040 1.386 . S
C1044 C1039 1.490 . S
C1044 C1046 1.395 . S
C1044 C1047 1.403 . S
H1045 C1051 0.930 . S
C1046 H1032 0.930 . S
C1046 C1044 1.395 . S
C1046 C1049 1.403 . S
C1047 C1044 1.403 . S
C1047 C1048 1.524 1_556 S
C1047 C1051 1.400 . S
C1048 H1033 0.960 . S
C1048 H1034 0.960 . S
C1048 H1035 0.960 . S
C1048 C1047 1.524 1_554 S
C1049 C1046 1.403 . S
C1049 C1050 1.392 . S
C1049 C1053 1.495 . S
C1050 C1049 1.392 . S
C1050 C1051 1.385 . S
C1050 C1052 1.478 . S
C1051 H1045 0.930 . S
C1051 C1047 1.400 . S
C1051 C1050 1.385 . S
C1052 C1050 1.478 . S
C1052 C1054 1.381 . S
C1052 C1058 1.383 . S
C1053 C1049 1.495 . S
C1053 H1059 0.959 . S
C1053 H1060 0.961 . S
C1053 H1061 0.960 . S
C1054 C1052 1.381 . S
C1054 C1055 1.394 . S
C1054 H1062 0.930 . S
C1055 C1054 1.394 . S
C1055 C1056 1.383 . S
C1055 H1063 0.929 . S
C1056 C1055 1.383 . S
C1056 C1057 1.377 . S
C1057 H1041 0.930 . S
C1057 C1056 1.377 . S
C1057 C1058 1.379 . S
C1058 H1042 0.931 . S
C1058 C1052 1.383 . S
C1058 C1057 1.379 . S
H1059 C1053 0.959 . S
H1060 C1053 0.961 . S
H1061 C1053 0.960 . S
H1062 C1054 0.930 . S
H1063 C1055 0.929 . S
H1064 C1072 0.929 . S
H1065 C1074 0.930 . S
H1066 C1076 0.930 . S
H1067 C1079 0.929 . S
H1068 C1082 0.930 . S
H1069 C1084 0.960 . S
H1070 C1084 0.960 . S
H1071 C1084 0.960 . S
C1072 H1064 0.929 . S
C1072 C1073 1.377 . S
C1072 C1074 1.384 . S
C1073 C1072 1.377 . S
C1073 C1079 1.390 . S
C1074 H1065 0.930 . S
C1074 C1072 1.384 . S
C1074 C1075 1.372 . S
C1075 C1074 1.372 . S
C1075 C1076 1.400 . S
C1075 C1080 1.490 . S
C1076 H1066 0.930 . S
C1076 C1075 1.400 . S
C1076 C1079 1.386 . S
H1077 C1093 0.930 . S
H1078 C1094 0.931 . S
C1079 H1067 0.929 . S
C1079 C1073 1.390 . S
C1079 C1076 1.386 . S
C1080 C1075 1.490 . S
C1080 C1082 1.395 . S
C1080 C1083 1.403 . S
H1081 C1087 0.930 . S
C1082 H1068 0.930 . S
C1082 C1080 1.395 . S
C1082 C1085 1.403 . S
C1083 C1080 1.403 . S
C1083 C1084 1.524 . S
C1083 C1087 1.400 . S
C1084 H1069 0.960 . S
C1084 H1070 0.960 . S
C1084 H1071 0.960 . S
C1084 C1083 1.524 . S
C1085 C1082 1.403 . S
C1085 C1086 1.392 . S
C1085 C1089 1.495 . S
C1086 C1085 1.392 . S
C1086 C1087 1.385 . S
C1086 C1088 1.478 . S
C1087 H1081 0.930 . S
C1087 C1083 1.400 . S
C1087 C1086 1.385 . S
C1088 C1086 1.478 . S
C1088 C1090 1.381 . S
C1088 C1094 1.383 . S
C1089 C1085 1.495 . S
C1089 H1095 0.959 . S
C1089 H1096 0.961 . S
C1089 H1097 0.960 . S
C1090 C1088 1.381 . S
C1090 C1091 1.394 . S
C1090 H1098 0.930 . S
C1091 C1090 1.394 . S
C1091 C1092 1.383 . S
C1091 H1099 0.929 . S
C1092 C1091 1.383 . S
C1092 C1093 1.377 . S
C1093 H1077 0.930 . S
C1093 C1092 1.377 . S
C1093 C1094 1.379 . S
C1094 H1078 0.931 . S
C1094 C1088 1.383 . S
C1094 C1093 1.379 . S
H1095 C1089 0.959 . S
H1096 C1089 0.961 . S
H1097 C1089 0.960 . S
H1098 C1090 0.930 . S
H1099 C1091 0.929 . S
H1100 C1108 0.929 . S
H1101 C1110 0.930 . S
H1102 C1112 0.930 . S
H1103 C1115 0.929 . S
H1104 C1118 0.930 . S
H1105 C1120 0.960 . S
H1106 C1120 0.960 . S
H1107 C1120 0.960 . S
C1108 H1100 0.929 . S
C1108 C1109 1.377 . S
C1108 C1110 1.384 . S
C1109 C1108 1.377 . S
C1109 C1115 1.390 . S
C1110 H1101 0.930 . S
C1110 C1108 1.384 . S
C1110 C1111 1.372 . S
C1111 C1110 1.372 . S
C1111 C1112 1.400 . S
C1111 C1116 1.490 . S
C1112 H1102 0.930 . S
C1112 C1111 1.400 . S
C1112 C1115 1.386 . S
H1113 C1129 0.930 . S
H1114 C1130 0.931 . S
C1115 H1103 0.929 . S
C1115 C1109 1.390 . S
C1115 C1112 1.386 . S
C1116 C1111 1.490 . S
C1116 C1118 1.395 . S
C1116 C1119 1.403 . S
H1117 C1123 0.930 . S
C1118 H1104 0.930 . S
C1118 C1116 1.395 . S
C1118 C1121 1.403 . S
C1119 C1116 1.403 . S
C1119 C1120 1.524 . S
C1119 C1123 1.400 . S
C1120 H1105 0.960 . S
C1120 H1106 0.960 . S
C1120 H1107 0.960 . S
C1120 C1119 1.524 . S
C1121 C1118 1.403 . S
C1121 C1122 1.392 . S
C1121 C1125 1.495 . S
C1122 C1121 1.392 . S
C1122 C1123 1.385 . S
C1122 C1124 1.478 . S
C1123 H1117 0.930 . S
C1123 C1119 1.400 . S
C1123 C1122 1.385 . S
C1124 C1122 1.478 . S
C1124 C1126 1.381 . S
C1124 C1130 1.383 . S
C1125 C1121 1.495 . S
C1125 H1131 0.959 . S
C1125 H1132 0.961 . S
C1125 H1133 0.960 . S
C1126 C1124 1.381 . S
C1126 C1127 1.394 . S
C1126 H1134 0.930 . S
C1127 C1126 1.394 . S
C1127 C1128 1.383 . S
C1127 H1135 0.929 . S
C1128 C1127 1.383 . S
C1128 C1129 1.377 . S
C1129 H1113 0.930 . S
C1129 C1128 1.377 . S
C1129 C1130 1.379 . S
C1130 H1114 0.931 . S
C1130 C1124 1.383 . S
C1130 C1129 1.379 . S
H1131 C1125 0.959 . S
H1132 C1125 0.961 . S
H1133 C1125 0.960 . S
H1134 C1126 0.930 . S
H1135 C1127 0.929 . S
H1136 C1144 0.929 . S
H1137 C1146 0.930 . S
H1138 C1148 0.930 . S
H1139 C1151 0.929 . S
H1140 C1154 0.930 . S
H1141 C1156 0.960 . S
H1142 C1156 0.960 . S
H1143 C1156 0.960 . S
C1144 H1136 0.929 . S
C1144 C1145 1.377 . S
C1144 C1146 1.384 . S
C1145 C1144 1.377 . S
C1145 C1151 1.390 . S
C1146 H1137 0.930 . S
C1146 C1144 1.384 . S
C1146 C1147 1.372 . S
C1147 C1146 1.372 . S
C1147 C1148 1.400 . S
C1147 C1152 1.490 . S
C1148 H1138 0.930 . S
C1148 C1147 1.400 . S
C1148 C1151 1.386 . S
H1149 C1165 0.930 . S
H1150 C1166 0.931 . S
C1151 H1139 0.929 . S
C1151 C1145 1.390 . S
C1151 C1148 1.386 . S
C1152 C1147 1.490 . S
C1152 C1154 1.395 . S
C1152 C1155 1.403 . S
H1153 C1159 0.930 . S
C1154 H1140 0.930 . S
C1154 C1152 1.395 . S
C1154 C1157 1.403 . S
C1155 C1152 1.403 . S
C1155 C1156 1.524 . S
C1155 C1159 1.400 . S
C1156 H1141 0.960 . S
C1156 H1142 0.960 . S
C1156 H1143 0.960 . S
C1156 C1155 1.524 . S
C1157 C1154 1.403 . S
C1157 C1158 1.392 . S
C1157 C1161 1.495 . S
C1158 C1157 1.392 . S
C1158 C1159 1.385 . S
C1158 C1160 1.478 . S
C1159 H1153 0.930 . S
C1159 C1155 1.400 . S
C1159 C1158 1.385 . S
C1160 C1158 1.478 . S
C1160 C1162 1.381 . S
C1160 C1166 1.383 . S
C1161 C1157 1.495 . S
C1161 H1167 0.959 . S
C1161 H1168 0.961 . S
C1161 H1169 0.960 . S
C1162 C1160 1.381 . S
C1162 C1163 1.394 . S
C1162 H1170 0.930 . S
C1163 C1162 1.394 . S
C1163 C1164 1.383 . S
C1163 H1171 0.929 . S
C1164 C1163 1.383 . S
C1164 C1165 1.377 . S
C1165 H1149 0.930 . S
C1165 C1164 1.377 . S
C1165 C1166 1.379 . S
C1166 H1150 0.931 . S
C1166 C1160 1.383 . S
C1166 C1165 1.379 . S
H1167 C1161 0.959 . S
H1168 C1161 0.961 . S
H1169 C1161 0.960 . S
H1170 C1162 0.930 . S
H1171 C1163 0.929 . S
H1172 C1180 0.929 . S
H1173 C1182 0.930 . S
H1174 C1184 0.930 . S
H1175 C1187 0.929 . S
H1176 C1190 0.930 . S
H1177 C1192 0.960 . S
H1178 C1192 0.960 . S
H1179 C1192 0.960 . S
C1180 H1172 0.929 . S
C1180 C1181 1.377 . S
C1180 C1182 1.384 . S
C1181 C1180 1.377 . S
C1181 C1187 1.390 . S
C1182 H1173 0.930 . S
C1182 C1180 1.384 . S
C1182 C1183 1.372 . S
C1183 C1182 1.372 . S
C1183 C1184 1.400 . S
C1183 C1188 1.490 . S
C1184 H1174 0.930 . S
C1184 C1183 1.400 . S
C1184 C1187 1.386 . S
H1185 C1201 0.930 . S
H1186 C1202 0.931 . S
C1187 H1175 0.929 . S
C1187 C1181 1.390 . S
C1187 C1184 1.386 . S
C1188 C1183 1.490 . S
C1188 C1190 1.395 . S
C1188 C1191 1.403 . S
H1189 C1195 0.930 . S
C1190 H1176 0.930 . S
C1190 C1188 1.395 . S
C1190 C1193 1.403 . S
C1191 C1188 1.403 . S
C1191 C1192 1.524 . S
C1191 C1195 1.400 . S
C1192 H1177 0.960 . S
C1192 H1178 0.960 . S
C1192 H1179 0.960 . S
C1192 C1191 1.524 . S
C1193 C1190 1.403 . S
C1193 C1194 1.392 . S
C1193 C1197 1.495 . S
C1194 C1193 1.392 . S
C1194 C1195 1.385 . S
C1194 C1196 1.478 . S
C1195 H1189 0.930 . S
C1195 C1191 1.400 . S
C1195 C1194 1.385 . S
C1196 C1194 1.478 . S
C1196 C1198 1.381 . S
C1196 C1202 1.383 . S
C1197 C1193 1.495 . S
C1197 H1203 0.959 . S
C1197 H1204 0.961 . S
C1197 H1205 0.960 . S
C1198 C1196 1.381 . S
C1198 C1199 1.394 . S
C1198 H1206 0.930 . S
C1199 C1198 1.394 . S
C1199 C1200 1.383 . S
C1199 H1207 0.929 . S
C1200 C1199 1.383 . S
C1200 C1201 1.377 . S
C1201 H1185 0.930 . S
C1201 C1200 1.377 . S
C1201 C1202 1.379 . S
C1202 H1186 0.931 . S
C1202 C1196 1.383 . S
C1202 C1201 1.379 . S
H1203 C1197 0.959 . S
H1204 C1197 0.961 . S
H1205 C1197 0.960 . S
H1206 C1198 0.930 . S
H1207 C1199 0.929 . S
H1208 C1216 0.929 . S
H1209 C1218 0.930 . S
H1210 C1220 0.930 . S
H1211 C1223 0.929 . S
H1212 C1226 0.930 . S
H1213 C1228 0.960 . S
H1214 C1228 0.960 . S
H1215 C1228 0.960 . S
C1216 H1208 0.929 . S
C1216 C1217 1.377 . S
C1216 C1218 1.384 . S
C1217 C1216 1.377 . S
C1217 C1223 1.390 . S
C1218 H1209 0.930 . S
C1218 C1216 1.384 . S
C1218 C1219 1.372 . S
C1219 C1218 1.372 . S
C1219 C1220 1.400 . S
C1219 C1224 1.490 . S
C1220 H1210 0.930 . S
C1220 C1219 1.400 . S
C1220 C1223 1.386 . S
H1221 C1237 0.930 . S
H1222 C1238 0.931 . S
C1223 H1211 0.929 . S
C1223 C1217 1.390 . S
C1223 C1220 1.386 . S
C1224 C1219 1.490 . S
C1224 C1226 1.395 . S
C1224 C1227 1.403 . S
H1225 C1231 0.930 . S
C1226 H1212 0.930 . S
C1226 C1224 1.395 . S
C1226 C1229 1.403 . S
C1227 C1224 1.403 . S
C1227 C1228 1.524 . S
C1227 C1231 1.400 . S
C1228 H1213 0.960 . S
C1228 H1214 0.960 . S
C1228 H1215 0.960 . S
C1228 C1227 1.524 . S
C1229 C1226 1.403 . S
C1229 C1230 1.392 . S
C1229 C1233 1.495 . S
C1230 C1229 1.392 . S
C1230 C1231 1.385 . S
C1230 C1232 1.478 . S
C1231 H1225 0.930 . S
C1231 C1227 1.400 . S
C1231 C1230 1.385 . S
C1232 C1230 1.478 . S
C1232 C1234 1.381 . S
C1232 C1238 1.383 . S
C1233 C1229 1.495 . S
C1233 H1239 0.959 . S
C1233 H1240 0.961 . S
C1233 H1241 0.960 . S
C1234 C1232 1.381 . S
C1234 C1235 1.394 . S
C1234 H1242 0.930 . S
C1235 C1234 1.394 . S
C1235 C1236 1.383 . S
C1235 H1243 0.929 . S
C1236 C1235 1.383 . S
C1236 C1237 1.377 . S
C1237 H1221 0.930 . S
C1237 C1236 1.377 . S
C1237 C1238 1.379 . S
C1238 H1222 0.931 . S
C1238 C1232 1.383 . S
C1238 C1237 1.379 . S
H1239 C1233 0.959 . S
H1240 C1233 0.961 . S
H1241 C1233 0.960 . S
H1242 C1234 0.930 . S
H1243 C1235 0.929 . S
H1244 C1252 0.929 . S
H1245 C1254 0.930 . S
H1246 C1256 0.931 . S
H1247 C1259 0.929 . S
H1248 C1262 0.930 . S
H1249 C1264 0.960 . S
H1250 C1264 0.960 . S
H1251 C1264 0.960 . S
C1252 H1244 0.929 . S
C1252 C1253 1.377 1_556 S
C1252 C1254 1.384 . S
C1253 C1252 1.377 1_554 S
C1253 C1259 1.390 . S
C1254 H1245 0.930 . S
C1254 C1252 1.384 . S
C1254 C1255 1.372 . S
C1255 C1254 1.372 . S
C1255 C1256 1.400 . S
C1255 C1260 1.490 . S
C1256 H1246 0.931 . S
C1256 C1255 1.400 . S
C1256 C1259 1.386 1_556 S
H1257 C1273 0.930 . S
H1258 C1274 0.931 . S
C1259 H1247 0.929 . S
C1259 C1253 1.390 . S
C1259 C1256 1.386 1_554 S
C1260 C1255 1.490 . S
C1260 C1262 1.395 . S
C1260 C1263 1.403 . S
H1261 C1267 0.930 . S
C1262 H1248 0.930 . S
C1262 C1260 1.395 . S
C1262 C1265 1.403 . S
C1263 C1260 1.403 . S
C1263 C1264 1.524 . S
C1263 C1267 1.400 . S
C1264 H1249 0.960 . S
C1264 H1250 0.960 . S
C1264 H1251 0.960 . S
C1264 C1263 1.524 . S
C1265 C1262 1.403 . S
C1265 C1266 1.392 . S
C1265 C1269 1.495 . S
C1266 C1265 1.392 . S
C1266 C1267 1.385 . S
C1266 C1268 1.478 . S
C1267 H1261 0.930 . S
C1267 C1263 1.400 . S
C1267 C1266 1.385 . S
C1268 C1266 1.478 . S
C1268 C1270 1.381 . S
C1268 C1274 1.383 . S
C1269 C1265 1.495 . S
C1269 H1275 0.959 . S
C1269 H1276 0.961 . S
C1269 H1277 0.960 . S
C1270 C1268 1.381 . S
C1270 C1271 1.394 . S
C1270 H1278 0.930 . S
C1271 C1270 1.394 . S
C1271 C1272 1.383 . S
C1271 H1279 0.929 . S
C1272 C1271 1.383 . S
C1272 C1273 1.377 . S
C1273 H1257 0.930 . S
C1273 C1272 1.377 . S
C1273 C1274 1.379 . S
C1274 H1258 0.931 . S
C1274 C1268 1.383 . S
C1274 C1273 1.379 . S
H1275 C1269 0.959 . S
H1276 C1269 0.961 . S
H1277 C1269 0.960 . S
H1278 C1270 0.930 . S
H1279 C1271 0.929 . S
H1280 C1288 0.929 . S
H1281 C1290 0.930 . S
H1282 C1292 0.930 . S
H1283 C1295 0.929 1_455 S
H1284 C1298 0.930 . S
H1285 C1300 0.960 . S
H1286 C1300 0.960 1_554 S
H1287 C1300 0.960 . S
C1288 H1280 0.929 . S
C1288 C1289 1.377 . S
C1288 C1290 1.384 . S
C1289 C1288 1.377 . S
C1289 C1295 1.390 1_554 S
C1290 H1281 0.930 . S
C1290 C1288 1.384 . S
C1290 C1291 1.372 1_554 S
C1291 C1290 1.372 1_556 S
C1291 C1292 1.400 . S
C1291 C1296 1.490 . S
C1292 H1282 0.930 . S
C1292 C1291 1.400 . S
C1292 C1295 1.386 . S
H1293 C1309 0.930 . S
H1294 C1310 0.931 . S
C1295 H1283 0.929 1_655 S
C1295 C1289 1.390 1_556 S
C1295 C1292 1.386 . S
C1296 C1291 1.490 . S
C1296 C1298 1.395 . S
C1296 C1299 1.403 . S
H1297 C1303 0.930 . S
C1298 H1284 0.930 . S
C1298 C1296 1.395 . S
C1298 C1301 1.403 . S
C1299 C1296 1.403 . S
C1299 C1300 1.524 . S
C1299 C1303 1.400 . S
C1300 H1285 0.960 . S
C1300 H1286 0.960 1_556 S
C1300 H1287 0.960 . S
C1300 C1299 1.524 . S
C1301 C1298 1.403 . S
C1301 C1302 1.392 . S
C1301 C1305 1.495 . S
C1302 C1301 1.392 . S
C1302 C1303 1.385 . S
C1302 C1304 1.478 . S
C1303 H1297 0.930 . S
C1303 C1299 1.400 . S
C1303 C1302 1.385 . S
C1304 C1302 1.478 . S
C1304 C1306 1.381 . S
C1304 C1310 1.383 . S
C1305 C1301 1.495 . S
C1305 H1311 0.959 . S
C1305 H1312 0.961 . S
C1305 H1313 0.960 . S
C1306 C1304 1.381 . S
C1306 C1307 1.394 . S
C1306 H1314 0.930 . S
C1307 C1306 1.394 . S
C1307 C1308 1.383 . S
C1307 H1315 0.929 . S
C1308 C1307 1.383 . S
C1308 C1309 1.377 . S
C1309 H1293 0.930 . S
C1309 C1308 1.377 . S
C1309 C1310 1.379 . S
C1310 H1294 0.931 . S
C1310 C1304 1.383 . S
C1310 C1309 1.379 . S
H1311 C1305 0.959 . S
H1312 C1305 0.961 . S
H1313 C1305 0.960 . S
H1314 C1306 0.930 . S
H1315 C1307 0.929 . S
H1316 C1324 0.929 . S
H1317 C1326 0.930 . S
H1318 C1328 0.930 . S
H1319 C1331 0.929 . S
H1320 C1334 0.930 . S
H1321 C1336 0.960 . S
H1322 C1336 0.960 . S
H1323 C1336 0.960 . S
C1324 H1316 0.929 . S
C1324 C1325 1.377 . S
C1324 C1326 1.384 . S
C1325 C1324 1.377 . S
C1325 C1331 1.390 . S
C1326 H1317 0.930 . S
C1326 C1324 1.384 . S
C1326 C1327 1.372 . S
C1327 C1326 1.372 . S
C1327 C1328 1.400 . S
C1327 C1332 1.490 . S
C1328 H1318 0.930 . S
C1328 C1327 1.400 . S
C1328 C1331 1.386 . S
H1329 C1345 0.930 . S
H1330 C1346 0.931 . S
C1331 H1319 0.929 . S
C1331 C1325 1.390 . S
C1331 C1328 1.386 . S
C1332 C1327 1.490 . S
C1332 C1334 1.395 . S
C1332 C1335 1.403 . S
H1333 C1339 0.930 . S
C1334 H1320 0.930 . S
C1334 C1332 1.395 . S
C1334 C1337 1.403 . S
C1335 C1332 1.403 . S
C1335 C1336 1.524 . S
C1335 C1339 1.400 . S
C1336 H1321 0.960 . S
C1336 H1322 0.960 . S
C1336 H1323 0.960 . S
C1336 C1335 1.524 . S
C1337 C1334 1.403 . S
C1337 C1338 1.392 . S
C1337 C1341 1.495 . S
C1338 C1337 1.392 . S
C1338 C1339 1.385 . S
C1338 C1340 1.478 . S
C1339 H1333 0.930 . S
C1339 C1335 1.400 . S
C1339 C1338 1.385 . S
C1340 C1338 1.478 . S
C1340 C1342 1.381 . S
C1340 C1346 1.383 . S
C1341 C1337 1.495 . S
C1341 H1347 0.959 . S
C1341 H1348 0.961 . S
C1341 H1349 0.960 . S
C1342 C1340 1.381 . S
C1342 C1343 1.394 . S
C1342 H1350 0.930 . S
C1343 C1342 1.394 . S
C1343 C1344 1.383 . S
C1343 H1351 0.929 . S
C1344 C1343 1.383 . S
C1344 C1345 1.377 . S
C1345 H1329 0.930 . S
C1345 C1344 1.377 . S
C1345 C1346 1.379 . S
C1346 H1330 0.931 . S
C1346 C1340 1.383 . S
C1346 C1345 1.379 . S
H1347 C1341 0.959 . S
H1348 C1341 0.961 . S
H1349 C1341 0.960 . S
H1350 C1342 0.930 . S
H1351 C1343 0.929 . S
H1352 C1360 0.929 . S
H1353 C1362 0.930 . S
H1354 C1364 0.930 . S
H1355 C1367 0.929 . S
H1356 C1370 0.930 . S
H1357 C1372 0.960 . S
H1358 C1372 0.960 . S
H1359 C1372 0.960 . S
C1360 H1352 0.929 . S
C1360 C1361 1.377 . S
C1360 C1362 1.384 . S
C1361 C1360 1.377 . S
C1361 C1367 1.390 . S
C1362 H1353 0.930 . S
C1362 C1360 1.384 . S
C1362 C1363 1.372 . S
C1363 C1362 1.372 . S
C1363 C1364 1.400 . S
C1363 C1368 1.490 . S
C1364 H1354 0.930 . S
C1364 C1363 1.400 . S
C1364 C1367 1.386 . S
H1365 C1381 0.930 . S
H1366 C1382 0.931 . S
C1367 H1355 0.929 . S
C1367 C1361 1.390 . S
C1367 C1364 1.386 . S
C1368 C1363 1.490 . S
C1368 C1370 1.395 . S
C1368 C1371 1.403 . S
H1369 C1375 0.930 . S
C1370 H1356 0.930 . S
C1370 C1368 1.395 . S
C1370 C1373 1.403 . S
C1371 C1368 1.403 . S
C1371 C1372 1.524 . S
C1371 C1375 1.400 . S
C1372 H1357 0.960 . S
C1372 H1358 0.960 . S
C1372 H1359 0.960 . S
C1372 C1371 1.524 . S
C1373 C1370 1.403 . S
C1373 C1374 1.392 . S
C1373 C1377 1.495 . S
C1374 C1373 1.392 . S
C1374 C1375 1.385 . S
C1374 C1376 1.478 . S
C1375 H1369 0.930 . S
C1375 C1371 1.400 . S
C1375 C1374 1.385 . S
C1376 C1374 1.478 . S
C1376 C1378 1.381 . S
C1376 C1382 1.383 . S
C1377 C1373 1.495 . S
C1377 H1383 0.959 . S
C1377 H1384 0.961 . S
C1377 H1385 0.960 . S
C1378 C1376 1.381 . S
C1378 C1379 1.394 . S
C1378 H1386 0.930 . S
C1379 C1378 1.394 . S
C1379 C1380 1.383 . S
C1379 H1387 0.929 . S
C1380 C1379 1.383 . S
C1380 C1381 1.377 . S
C1381 H1365 0.930 . S
C1381 C1380 1.377 . S
C1381 C1382 1.379 . S
C1382 H1366 0.931 . S
C1382 C1376 1.383 . S
C1382 C1381 1.379 . S
H1383 C1377 0.959 . S
H1384 C1377 0.961 . S
H1385 C1377 0.960 . S
H1386 C1378 0.930 . S
H1387 C1379 0.929 . S
H1388 C1396 0.929 . S
H1389 C1398 0.930 . S
H1390 C1400 0.930 . S
H1391 C1403 0.929 . S
H1392 C1406 0.930 . S
H1393 C1408 0.960 . S
H1394 C1408 0.960 . S
H1395 C1408 0.960 . S
C1396 H1388 0.929 . S
C1396 C1397 1.377 . S
C1396 C1398 1.384 . S
C1397 C1396 1.377 . S
C1397 C1403 1.390 . S
C1398 H1389 0.930 . S
C1398 C1396 1.384 . S
C1398 C1399 1.372 . S
C1399 C1398 1.372 . S
C1399 C1400 1.400 . S
C1399 C1404 1.490 . S
C1400 H1390 0.930 . S
C1400 C1399 1.400 . S
C1400 C1403 1.386 . S
H1401 C1417 0.930 . S
H1402 C1418 0.931 . S
C1403 H1391 0.929 . S
C1403 C1397 1.390 . S
C1403 C1400 1.386 . S
C1404 C1399 1.490 . S
C1404 C1406 1.395 . S
C1404 C1407 1.403 . S
H1405 C1411 0.930 . S
C1406 H1392 0.930 . S
C1406 C1404 1.395 . S
C1406 C1409 1.403 . S
C1407 C1404 1.403 . S
C1407 C1408 1.524 . S
C1407 C1411 1.400 . S
C1408 H1393 0.960 . S
C1408 H1394 0.960 . S
C1408 H1395 0.960 . S
C1408 C1407 1.524 . S
C1409 C1406 1.403 . S
C1409 C1410 1.392 . S
C1409 C1413 1.495 . S
C1410 C1409 1.392 . S
C1410 C1411 1.385 . S
C1410 C1412 1.478 . S
C1411 H1405 0.930 . S
C1411 C1407 1.400 . S
C1411 C1410 1.385 . S
C1412 C1410 1.478 . S
C1412 C1414 1.381 . S
C1412 C1418 1.383 . S
C1413 C1409 1.495 . S
C1413 H1419 0.959 . S
C1413 H1420 0.961 . S
C1413 H1421 0.960 . S
C1414 C1412 1.381 . S
C1414 C1415 1.394 . S
C1414 H1422 0.930 . S
C1415 C1414 1.394 . S
C1415 C1416 1.383 . S
C1415 H1423 0.929 . S
C1416 C1415 1.383 . S
C1416 C1417 1.377 . S
C1417 H1401 0.930 . S
C1417 C1416 1.377 . S
C1417 C1418 1.379 . S
C1418 H1402 0.931 . S
C1418 C1412 1.383 . S
C1418 C1417 1.379 . S
H1419 C1413 0.959 . S
H1420 C1413 0.961 . S
H1421 C1413 0.960 . S
H1422 C1414 0.930 . S
H1423 C1415 0.929 . S
H1424 C1432 0.929 . S
H1425 C1434 0.930 . S
H1426 C1436 0.930 . S
H1427 C1439 0.929 . S
H1428 C1442 0.930 . S
H1429 C1444 0.960 . S
H1430 C1444 0.960 . S
H1431 C1444 0.960 . S
C1432 H1424 0.929 . S
C1432 C1433 1.377 . S
C1432 C1434 1.384 . S
C1433 C1432 1.377 . S
C1433 C1439 1.390 . S
C1434 H1425 0.930 . S
C1434 C1432 1.384 . S
C1434 C1435 1.372 . S
C1435 C1434 1.372 . S
C1435 C1436 1.400 . S
C1435 C1440 1.490 . S
C1436 H1426 0.930 . S
C1436 C1435 1.400 . S
C1436 C1439 1.386 . S
H1437 C1453 0.930 . S
H1438 C1454 0.931 . S
C1439 H1427 0.929 . S
C1439 C1433 1.390 . S
C1439 C1436 1.386 . S
C1440 C1435 1.490 . S
C1440 C1442 1.395 . S
C1440 C1443 1.403 . S
H1441 C1447 0.930 . S
C1442 H1428 0.930 . S
C1442 C1440 1.395 . S
C1442 C1445 1.403 . S
C1443 C1440 1.403 . S
C1443 C1444 1.524 . S
C1443 C1447 1.400 . S
C1444 H1429 0.960 . S
C1444 H1430 0.960 . S
C1444 H1431 0.960 . S
C1444 C1443 1.524 . S
C1445 C1442 1.403 . S
C1445 C1446 1.392 . S
C1445 C1449 1.495 . S
C1446 C1445 1.392 . S
C1446 C1447 1.385 . S
C1446 C1448 1.478 . S
C1447 H1441 0.930 . S
C1447 C1443 1.400 . S
C1447 C1446 1.385 . S
C1448 C1446 1.478 . S
C1448 C1450 1.381 . S
C1448 C1454 1.383 . S
C1449 C1445 1.495 . S
C1449 H1455 0.959 . S
C1449 H1456 0.961 . S
C1449 H1457 0.960 . S
C1450 C1448 1.381 . S
C1450 C1451 1.394 . S
C1450 H1458 0.930 . S
C1451 C1450 1.394 . S
C1451 C1452 1.383 . S
C1451 H1459 0.929 . S
C1452 C1451 1.383 . S
C1452 C1453 1.377 . S
C1453 H1437 0.930 . S
C1453 C1452 1.377 . S
C1453 C1454 1.379 . S
C1454 H1438 0.931 . S
C1454 C1448 1.383 . S
C1454 C1453 1.379 . S
H1455 C1449 0.959 . S
H1456 C1449 0.961 . S
H1457 C1449 0.960 . S
H1458 C1450 0.930 . S
H1459 C1451 0.929 . S
H1460 C1468 0.929 . S
H1461 C1470 0.930 . S
H1462 C1472 0.930 . S
H1463 C1475 0.929 . S
H1464 C1478 0.930 . S
H1465 C1480 0.960 . S
H1466 C1480 0.960 . S
H1467 C1480 0.960 . S
C1468 H1460 0.929 . S
C1468 C1469 1.377 . S
C1468 C1470 1.384 . S
C1469 C1468 1.377 . S
C1469 C1475 1.390 . S
C1470 H1461 0.930 . S
C1470 C1468 1.384 . S
C1470 C1471 1.372 . S
C1471 C1470 1.372 . S
C1471 C1472 1.400 . S
C1471 C1476 1.490 . S
C1472 H1462 0.930 . S
C1472 C1471 1.400 . S
C1472 C1475 1.386 . S
H1473 C1489 0.930 . S
H1474 C1490 0.931 . S
C1475 H1463 0.929 . S
C1475 C1469 1.390 . S
C1475 C1472 1.386 . S
C1476 C1471 1.490 . S
C1476 C1478 1.395 . S
C1476 C1479 1.403 . S
H1477 C1483 0.930 . S
C1478 H1464 0.930 . S
C1478 C1476 1.395 . S
C1478 C1481 1.403 . S
C1479 C1476 1.403 . S
C1479 C1480 1.524 . S
C1479 C1483 1.400 . S
C1480 H1465 0.960 . S
C1480 H1466 0.960 . S
C1480 H1467 0.960 . S
C1480 C1479 1.524 . S
C1481 C1478 1.403 . S
C1481 C1482 1.392 . S
C1481 C1485 1.495 . S
C1482 C1481 1.392 . S
C1482 C1483 1.385 . S
C1482 C1484 1.478 . S
C1483 H1477 0.930 . S
C1483 C1479 1.400 . S
C1483 C1482 1.385 . S
C1484 C1482 1.478 . S
C1484 C1486 1.381 . S
C1484 C1490 1.383 . S
C1485 C1481 1.495 . S
C1485 H1491 0.959 . S
C1485 H1492 0.961 . S
C1485 H1493 0.960 . S
C1486 C1484 1.381 . S
C1486 C1487 1.394 . S
C1486 H1494 0.930 . S
C1487 C1486 1.394 . S
C1487 C1488 1.383 . S
C1487 H1495 0.929 . S
C1488 C1487 1.383 . S
C1488 C1489 1.377 . S
C1489 H1473 0.930 . S
C1489 C1488 1.377 . S
C1489 C1490 1.379 . S
C1490 H1474 0.931 . S
C1490 C1484 1.383 . S
C1490 C1489 1.379 . S
H1491 C1485 0.959 . S
H1492 C1485 0.961 . S
H1493 C1485 0.960 . S
H1494 C1486 0.930 . S
H1495 C1487 0.929 . S
H1496 C1504 0.929 . S
H1497 C1506 0.930 . S
H1498 C1508 0.930 . S
H1499 C1511 0.929 . S
H1500 C1514 0.930 . S
H1501 C1516 0.960 . S
H1502 C1516 0.960 . S
H1503 C1516 0.960 . S
C1504 H1496 0.929 . S
C1504 C1505 1.377 . S
C1504 C1506 1.384 . S
C1505 C1504 1.377 . S
C1505 C1511 1.390 . S
C1506 H1497 0.930 . S
C1506 C1504 1.384 . S
C1506 C1507 1.372 . S
C1507 C1506 1.372 . S
C1507 C1508 1.400 . S
C1507 C1512 1.490 . S
C1508 H1498 0.930 . S
C1508 C1507 1.400 . S
C1508 C1511 1.386 . S
H1509 C1525 0.930 . S
H1510 C1526 0.931 . S
C1511 H1499 0.929 . S
C1511 C1505 1.390 . S
C1511 C1508 1.386 . S
C1512 C1507 1.490 . S
C1512 C1514 1.395 . S
C1512 C1515 1.403 . S
H1513 C1519 0.930 . S
C1514 H1500 0.930 . S
C1514 C1512 1.395 . S
C1514 C1517 1.403 . S
C1515 C1512 1.403 . S
C1515 C1516 1.524 . S
C1515 C1519 1.400 . S
C1516 H1501 0.960 . S
C1516 H1502 0.960 . S
C1516 H1503 0.960 . S
C1516 C1515 1.524 . S
C1517 C1514 1.403 . S
C1517 C1518 1.392 . S
C1517 C1521 1.495 . S
C1518 C1517 1.392 . S
C1518 C1519 1.385 . S
C1518 C1520 1.478 . S
C1519 H1513 0.930 . S
C1519 C1515 1.400 . S
C1519 C1518 1.385 . S
C1520 C1518 1.478 . S
C1520 C1522 1.381 . S
C1520 C1526 1.383 . S
C1521 C1517 1.495 . S
C1521 H1527 0.959 . S
C1521 H1528 0.961 . S
C1521 H1529 0.960 . S
C1522 C1520 1.381 . S
C1522 C1523 1.394 . S
C1522 H1530 0.930 . S
C1523 C1522 1.394 . S
C1523 C1524 1.383 . S
C1523 H1531 0.929 . S
C1524 C1523 1.383 . S
C1524 C1525 1.377 . S
C1525 H1509 0.930 . S
C1525 C1524 1.377 . S
C1525 C1526 1.379 . S
C1526 H1510 0.931 . S
C1526 C1520 1.383 . S
C1526 C1525 1.379 . S
H1527 C1521 0.959 . S
H1528 C1521 0.961 . S
H1529 C1521 0.960 . S
H1530 C1522 0.930 . S
H1531 C1523 0.929 . S
H1532 C1540 0.929 . S
H1533 C1542 0.930 . S
H1534 C1544 0.930 . S
H1535 C1547 0.929 . S
H1536 C1550 0.930 . S
H1537 C1552 0.960 . S
H1538 C1552 0.960 . S
H1539 C1552 0.960 . S
C1540 H1532 0.929 . S
C1540 C1541 1.377 . S
C1540 C1542 1.384 . S
C1541 C1540 1.377 . S
C1541 C1547 1.390 . S
C1542 H1533 0.930 . S
C1542 C1540 1.384 . S
C1542 C1543 1.372 . S
C1543 C1542 1.372 . S
C1543 C1544 1.400 . S
C1543 C1548 1.490 . S
C1544 H1534 0.930 . S
C1544 C1543 1.400 . S
C1544 C1547 1.386 . S
H1545 C1561 0.930 . S
H1546 C1562 0.931 . S
C1547 H1535 0.929 . S
C1547 C1541 1.390 . S
C1547 C1544 1.386 . S
C1548 C1543 1.490 . S
C1548 C1550 1.395 . S
C1548 C1551 1.403 . S
H1549 C1555 0.930 . S
C1550 H1536 0.930 . S
C1550 C1548 1.395 . S
C1550 C1553 1.403 . S
C1551 C1548 1.403 . S
C1551 C1552 1.524 . S
C1551 C1555 1.400 . S
C1552 H1537 0.960 . S
C1552 H1538 0.960 . S
C1552 H1539 0.960 . S
C1552 C1551 1.524 . S
C1553 C1550 1.403 . S
C1553 C1554 1.392 . S
C1553 C1557 1.495 . S
C1554 C1553 1.392 . S
C1554 C1555 1.385 . S
C1554 C1556 1.478 . S
C1555 H1549 0.930 . S
C1555 C1551 1.400 . S
C1555 C1554 1.385 . S
C1556 C1554 1.478 . S
C1556 C1558 1.381 . S
C1556 C1562 1.383 . S
C1557 C1553 1.495 . S
C1557 H1563 0.959 . S
C1557 H1564 0.961 . S
C1557 H1565 0.960 . S
C1558 C1556 1.381 . S
C1558 C1559 1.394 . S
C1558 H1566 0.930 . S
C1559 C1558 1.394 . S
C1559 C1560 1.383 . S
C1559 H1567 0.929 . S
C1560 C1559 1.383 . S
C1560 C1561 1.377 . S
C1561 H1545 0.930 . S
C1561 C1560 1.377 . S
C1561 C1562 1.379 . S
C1562 H1546 0.931 . S
C1562 C1556 1.383 . S
C1562 C1561 1.379 . S
H1563 C1557 0.959 . S
H1564 C1557 0.961 . S
H1565 C1557 0.960 . S
H1566 C1558 0.930 . S
H1567 C1559 0.929 . S
H1568 C1576 0.929 . S
H1569 C1578 0.930 . S
H1570 C1580 0.930 . S
H1571 C1583 0.929 . S
H1572 C1586 0.930 . S
H1573 C1588 0.960 . S
H1574 C1588 0.960 . S
H1575 C1588 0.960 . S
C1576 H1568 0.929 . S
C1576 C1577 1.377 . S
C1576 C1578 1.384 . S
C1577 C1576 1.377 . S
C1577 C1583 1.390 . S
C1578 H1569 0.930 . S
C1578 C1576 1.384 . S
C1578 C1579 1.372 . S
C1579 C1578 1.372 . S
C1579 C1580 1.400 . S
C1579 C1584 1.490 . S
C1580 H1570 0.930 . S
C1580 C1579 1.400 . S
C1580 C1583 1.386 . S
H1581 C1597 0.930 . S
H1582 C1598 0.931 . S
C1583 H1571 0.929 . S
C1583 C1577 1.390 . S
C1583 C1580 1.386 . S
C1584 C1579 1.490 . S
C1584 C1586 1.395 . S
C1584 C1587 1.403 . S
H1585 C1591 0.930 . S
C1586 H1572 0.930 . S
C1586 C1584 1.395 . S
C1586 C1589 1.403 . S
C1587 C1584 1.403 . S
C1587 C1588 1.524 . S
C1587 C1591 1.400 . S
C1588 H1573 0.960 . S
C1588 H1574 0.960 . S
C1588 H1575 0.960 . S
C1588 C1587 1.524 . S
C1589 C1586 1.403 . S
C1589 C1590 1.392 . S
C1589 C1593 1.495 . S
C1590 C1589 1.392 . S
C1590 C1591 1.385 . S
C1590 C1592 1.478 . S
C1591 H1585 0.930 . S
C1591 C1587 1.400 . S
C1591 C1590 1.385 . S
C1592 C1590 1.478 . S
C1592 C1594 1.381 . S
C1592 C1598 1.383 . S
C1593 C1589 1.495 . S
C1593 H1599 0.959 . S
C1593 H1600 0.961 . S
C1593 H1601 0.960 . S
C1594 C1592 1.381 . S
C1594 C1595 1.394 . S
C1594 H1602 0.930 . S
C1595 C1594 1.394 . S
C1595 C1596 1.383 . S
C1595 H1603 0.929 . S
C1596 C1595 1.383 . S
C1596 C1597 1.377 . S
C1597 H1581 0.930 . S
C1597 C1596 1.377 . S
C1597 C1598 1.379 . S
C1598 H1582 0.931 . S
C1598 C1592 1.383 . S
C1598 C1597 1.379 . S
H1599 C1593 0.959 . S
H1600 C1593 0.961 . S
H1601 C1593 0.960 . S
H1602 C1594 0.930 . S
H1603 C1595 0.929 . S
H1604 C1612 0.929 . S
H1605 C1614 0.930 . S
H1606 C1616 0.930 . S
H1607 C1619 0.929 . S
H1608 C1622 0.930 . S
H1609 C1624 0.960 . S
H1610 C1624 0.960 . S
H1611 C1624 0.960 . S
C1612 H1604 0.929 . S
C1612 C1613 1.377 . S
C1612 C1614 1.384 . S
C1613 C1612 1.377 . S
C1613 C1619 1.390 . S
C1614 H1605 0.930 . S
C1614 C1612 1.384 . S
C1614 C1615 1.372 . S
C1615 C1614 1.372 . S
C1615 C1616 1.400 . S
C1615 C1620 1.490 . S
C1616 H1606 0.930 . S
C1616 C1615 1.400 . S
C1616 C1619 1.386 . S
H1617 C1633 0.930 . S
H1618 C1634 0.931 . S
C1619 H1607 0.929 . S
C1619 C1613 1.390 . S
C1619 C1616 1.386 . S
C1620 C1615 1.490 . S
C1620 C1622 1.395 . S
C1620 C1623 1.403 . S
H1621 C1627 0.930 . S
C1622 H1608 0.930 . S
C1622 C1620 1.395 . S
C1622 C1625 1.403 . S
C1623 C1620 1.403 . S
C1623 C1624 1.524 . S
C1623 C1627 1.400 . S
C1624 H1609 0.960 . S
C1624 H1610 0.960 . S
C1624 H1611 0.960 . S
C1624 C1623 1.524 . S
C1625 C1622 1.403 . S
C1625 C1626 1.392 . S
C1625 C1629 1.495 . S
C1626 C1625 1.392 . S
C1626 C1627 1.385 . S
C1626 C1628 1.478 . S
C1627 H1621 0.930 . S
C1627 C1623 1.400 . S
C1627 C1626 1.385 . S
C1628 C1626 1.478 . S
C1628 C1630 1.381 . S
C1628 C1634 1.383 . S
C1629 C1625 1.495 . S
C1629 H1635 0.959 . S
C1629 H1636 0.961 . S
C1629 H1637 0.960 . S
C1630 C1628 1.381 . S
C1630 C1631 1.394 . S
C1630 H1638 0.930 . S
C1631 C1630 1.394 . S
C1631 C1632 1.383 . S
C1631 H1639 0.929 . S
C1632 C1631 1.383 . S
C1632 C1633 1.377 . S
C1633 H1617 0.930 . S
C1633 C1632 1.377 . S
C1633 C1634 1.379 . S
C1634 H1618 0.931 . S
C1634 C1628 1.383 . S
C1634 C1633 1.379 . S
H1635 C1629 0.959 . S
H1636 C1629 0.961 . S
H1637 C1629 0.960 . S
H1638 C1630 0.930 . S
H1639 C1631 0.929 . S
H1640 C1648 0.929 . S
H1641 C1650 0.930 . S
H1642 C1652 0.930 . S
H1643 C1655 0.929 . S
H1644 C1658 0.930 . S
H1645 C1660 0.960 . S
H1646 C1660 0.960 . S
H1647 C1660 0.960 . S
C1648 H1640 0.929 . S
C1648 C1649 1.377 . S
C1648 C1650 1.384 . S
C1649 C1648 1.377 . S
C1649 C1655 1.390 . S
C1650 H1641 0.930 . S
C1650 C1648 1.384 . S
C1650 C1651 1.372 . S
C1651 C1650 1.372 . S
C1651 C1652 1.400 . S
C1651 C1656 1.490 . S
C1652 H1642 0.930 . S
C1652 C1651 1.400 . S
C1652 C1655 1.386 . S
H1653 C1669 0.930 . S
H1654 C1670 0.931 . S
C1655 H1643 0.929 . S
C1655 C1649 1.390 . S
C1655 C1652 1.386 . S
C1656 C1651 1.490 . S
C1656 C1658 1.395 . S
C1656 C1659 1.403 . S
H1657 C1663 0.930 . S
C1658 H1644 0.930 . S
C1658 C1656 1.395 . S
C1658 C1661 1.403 . S
C1659 C1656 1.403 . S
C1659 C1660 1.524 . S
C1659 C1663 1.400 . S
C1660 H1645 0.960 . S
C1660 H1646 0.960 . S
C1660 H1647 0.960 . S
C1660 C1659 1.524 . S
C1661 C1658 1.403 . S
C1661 C1662 1.392 . S
C1661 C1665 1.495 . S
C1662 C1661 1.392 . S
C1662 C1663 1.385 . S
C1662 C1664 1.478 . S
C1663 H1657 0.930 . S
C1663 C1659 1.400 . S
C1663 C1662 1.385 . S
C1664 C1662 1.478 . S
C1664 C1666 1.381 . S
C1664 C1670 1.383 . S
C1665 C1661 1.495 . S
C1665 H1671 0.959 . S
C1665 H1672 0.961 . S
C1665 H1673 0.960 . S
C1666 C1664 1.381 . S
C1666 C1667 1.394 . S
C1666 H1674 0.930 . S
C1667 C1666 1.394 . S
C1667 C1668 1.383 . S
C1667 H1675 0.929 . S
C1668 C1667 1.383 . S
C1668 C1669 1.377 . S
C1669 H1653 0.930 . S
C1669 C1668 1.377 . S
C1669 C1670 1.379 . S
C1670 H1654 0.931 . S
C1670 C1664 1.383 . S
C1670 C1669 1.379 . S
H1671 C1665 0.959 . S
H1672 C1665 0.961 . S
H1673 C1665 0.960 . S
H1674 C1666 0.930 . S
H1675 C1667 0.929 . S
H1676 C1684 0.929 . S
H1677 C1686 0.930 . S
H1678 C1688 0.930 . S
H1679 C1691 0.929 . S
H1680 C1694 0.930 . S
H1681 C1696 0.960 . S
H1682 C1696 0.960 . S
H1683 C1696 0.960 . S
C1684 H1676 0.929 . S
C1684 C1685 1.377 . S
C1684 C1686 1.384 . S
C1685 C1684 1.377 . S
C1685 C1691 1.390 . S
C1686 H1677 0.930 . S
C1686 C1684 1.384 . S
C1686 C1687 1.372 . S
C1687 C1686 1.372 . S
C1687 C1688 1.400 . S
C1687 C1692 1.490 . S
C1688 H1678 0.930 . S
C1688 C1687 1.400 . S
C1688 C1691 1.386 . S
H1689 C1705 0.930 . S
H1690 C1706 0.931 . S
C1691 H1679 0.929 . S
C1691 C1685 1.390 . S
C1691 C1688 1.386 . S
C1692 C1687 1.490 . S
C1692 C1694 1.395 . S
C1692 C1695 1.403 . S
H1693 C1699 0.930 . S
C1694 H1680 0.930 . S
C1694 C1692 1.395 . S
C1694 C1697 1.403 . S
C1695 C1692 1.403 . S
C1695 C1696 1.524 . S
C1695 C1699 1.400 . S
C1696 H1681 0.960 . S
C1696 H1682 0.960 . S
C1696 H1683 0.960 . S
C1696 C1695 1.524 . S
C1697 C1694 1.403 . S
C1697 C1698 1.392 . S
C1697 C1701 1.495 . S
C1698 C1697 1.392 . S
C1698 C1699 1.385 . S
C1698 C1700 1.478 . S
C1699 H1693 0.930 . S
C1699 C1695 1.400 . S
C1699 C1698 1.385 . S
C1700 C1698 1.478 . S
C1700 C1702 1.381 . S
C1700 C1706 1.383 . S
C1701 C1697 1.495 . S
C1701 H1707 0.959 . S
C1701 H1708 0.961 . S
C1701 H1709 0.960 . S
C1702 C1700 1.381 . S
C1702 C1703 1.394 . S
C1702 H1710 0.930 . S
C1703 C1702 1.394 . S
C1703 C1704 1.383 . S
C1703 H1711 0.929 . S
C1704 C1703 1.383 . S
C1704 C1705 1.377 . S
C1705 H1689 0.930 . S
C1705 C1704 1.377 . S
C1705 C1706 1.379 . S
C1706 H1690 0.931 . S
C1706 C1700 1.383 . S
C1706 C1705 1.379 . S
H1707 C1701 0.959 . S
H1708 C1701 0.961 . S
H1709 C1701 0.960 . S
H1710 C1702 0.930 . S
H1711 C1703 0.929 . S
H1712 C1720 0.929 . S
H1713 C1722 0.930 . S
H1714 C1724 0.930 . S
H1715 C1727 0.929 . S
H1716 C1730 0.930 . S
H1717 C1732 0.960 . S
H1718 C1732 0.960 . S
H1719 C1732 0.960 . S
C1720 H1712 0.929 . S
C1720 C1721 1.377 . S
C1720 C1722 1.384 . S
C1721 C1720 1.377 . S
C1721 C1727 1.390 . S
C1722 H1713 0.930 . S
C1722 C1720 1.384 . S
C1722 C1723 1.372 . S
C1723 C1722 1.372 . S
C1723 C1724 1.400 . S
C1723 C1728 1.490 . S
C1724 H1714 0.930 . S
C1724 C1723 1.400 . S
C1724 C1727 1.386 . S
H1725 C1741 0.930 . S
H1726 C1742 0.931 . S
C1727 H1715 0.929 . S
C1727 C1721 1.390 . S
C1727 C1724 1.386 . S
C1728 C1723 1.490 . S
C1728 C1730 1.395 . S
C1728 C1731 1.403 . S
H1729 C1735 0.930 . S
C1730 H1716 0.930 . S
C1730 C1728 1.395 . S
C1730 C1733 1.403 . S
C1731 C1728 1.403 . S
C1731 C1732 1.524 . S
C1731 C1735 1.400 . S
C1732 H1717 0.960 . S
C1732 H1718 0.960 . S
C1732 H1719 0.960 . S
C1732 C1731 1.524 . S
C1733 C1730 1.403 . S
C1733 C1734 1.392 . S
C1733 C1737 1.495 . S
C1734 C1733 1.392 . S
C1734 C1735 1.385 . S
C1734 C1736 1.478 . S
C1735 H1729 0.930 . S
C1735 C1731 1.400 . S
C1735 C1734 1.385 . S
C1736 C1734 1.478 . S
C1736 C1738 1.381 . S
C1736 C1742 1.383 . S
C1737 C1733 1.495 . S
C1737 H1743 0.959 . S
C1737 H1744 0.961 . S
C1737 H1745 0.960 . S
C1738 C1736 1.381 . S
C1738 C1739 1.394 . S
C1738 H1746 0.930 . S
C1739 C1738 1.394 . S
C1739 C1740 1.383 . S
C1739 H1747 0.929 . S
C1740 C1739 1.383 . S
C1740 C1741 1.377 . S
C1741 H1725 0.930 . S
C1741 C1740 1.377 . S
C1741 C1742 1.379 . S
C1742 H1726 0.931 . S
C1742 C1736 1.383 . S
C1742 C1741 1.379 . S
H1743 C1737 0.959 . S
H1744 C1737 0.961 . S
H1745 C1737 0.960 . S
H1746 C1738 0.930 . S
H1747 C1739 0.929 . S
H1748 C1756 0.929 . S
H1749 C1758 0.930 . S
H1750 C1760 0.930 . S
H1751 C1763 0.929 . S
H1752 C1766 0.930 . S
H1753 C1768 0.960 . S
H1754 C1768 0.960 . S
H1755 C1768 0.960 . S
C1756 H1748 0.929 . S
C1756 C1757 1.377 . S
C1756 C1758 1.384 . S
C1757 C1756 1.377 . S
C1757 C1763 1.390 . S
C1758 H1749 0.930 . S
C1758 C1756 1.384 . S
C1758 C1759 1.372 . S
C1759 C1758 1.372 . S
C1759 C1760 1.400 . S
C1759 C1764 1.490 . S
C1760 H1750 0.930 . S
C1760 C1759 1.400 . S
C1760 C1763 1.386 . S
H1761 C1777 0.930 . S
H1762 C1778 0.931 . S
C1763 H1751 0.929 . S
C1763 C1757 1.390 . S
C1763 C1760 1.386 . S
C1764 C1759 1.490 . S
C1764 C1766 1.395 . S
C1764 C1767 1.403 . S
H1765 C1771 0.930 . S
C1766 H1752 0.930 . S
C1766 C1764 1.395 . S
C1766 C1769 1.403 . S
C1767 C1764 1.403 . S
C1767 C1768 1.524 . S
C1767 C1771 1.400 . S
C1768 H1753 0.960 . S
C1768 H1754 0.960 . S
C1768 H1755 0.960 . S
C1768 C1767 1.524 . S
C1769 C1766 1.403 . S
C1769 C1770 1.392 . S
C1769 C1773 1.495 . S
C1770 C1769 1.392 . S
C1770 C1771 1.385 . S
C1770 C1772 1.478 . S
C1771 H1765 0.930 . S
C1771 C1767 1.400 . S
C1771 C1770 1.385 . S
C1772 C1770 1.478 . S
C1772 C1774 1.381 . S
C1772 C1778 1.383 . S
C1773 C1769 1.495 . S
C1773 H1779 0.959 . S
C1773 H1780 0.961 . S
C1773 H1781 0.960 . S
C1774 C1772 1.381 . S
C1774 C1775 1.394 . S
C1774 H1782 0.930 . S
C1775 C1774 1.394 . S
C1775 C1776 1.383 . S
C1775 H1783 0.929 . S
C1776 C1775 1.383 . S
C1776 C1777 1.377 . S
C1777 H1761 0.930 . S
C1777 C1776 1.377 . S
C1777 C1778 1.379 . S
C1778 H1762 0.931 . S
C1778 C1772 1.383 . S
C1778 C1777 1.379 . S
H1779 C1773 0.959 . S
H1780 C1773 0.961 . S
H1781 C1773 0.960 . S
H1782 C1774 0.930 . S
H1783 C1775 0.929 . S
H1784 C1792 0.929 . S
H1785 C1794 0.930 . S
H1786 C1796 0.930 . S
H1787 C1799 0.929 . S
H1788 C1802 0.930 . S
H1789 C1804 0.960 . S
H1790 C1804 0.960 . S
H1791 C1804 0.960 . S
C1792 H1784 0.929 . S
C1792 C1793 1.377 . S
C1792 C1794 1.384 . S
C1793 C1792 1.377 . S
C1793 C1799 1.390 . S
C1794 H1785 0.930 . S
C1794 C1792 1.384 . S
C1794 C1795 1.372 . S
C1795 C1794 1.372 . S
C1795 C1796 1.400 . S
C1795 C1800 1.490 . S
C1796 H1786 0.930 . S
C1796 C1795 1.400 . S
C1796 C1799 1.386 . S
H1797 C1813 0.930 . S
H1798 C1814 0.931 . S
C1799 H1787 0.929 . S
C1799 C1793 1.390 . S
C1799 C1796 1.386 . S
C1800 C1795 1.490 . S
C1800 C1802 1.395 . S
C1800 C1803 1.403 . S
H1801 C1807 0.930 . S
C1802 H1788 0.930 . S
C1802 C1800 1.395 . S
C1802 C1805 1.403 . S
C1803 C1800 1.403 . S
C1803 C1804 1.524 . S
C1803 C1807 1.400 . S
C1804 H1789 0.960 . S
C1804 H1790 0.960 . S
C1804 H1791 0.960 . S
C1804 C1803 1.524 . S
C1805 C1802 1.403 . S
C1805 C1806 1.392 . S
C1805 C1809 1.495 . S
C1806 C1805 1.392 . S
C1806 C1807 1.385 . S
C1806 C1808 1.478 . S
C1807 H1801 0.930 . S
C1807 C1803 1.400 . S
C1807 C1806 1.385 . S
C1808 C1806 1.478 . S
C1808 C1810 1.381 . S
C1808 C1814 1.383 . S
C1809 C1805 1.495 . S
C1809 H1815 0.959 . S
C1809 H1816 0.961 . S
C1809 H1817 0.960 . S
C1810 C1808 1.381 . S
C1810 C1811 1.394 . S
C1810 H1818 0.930 . S
C1811 C1810 1.394 . S
C1811 C1812 1.383 . S
C1811 H1819 0.929 . S
C1812 C1811 1.383 . S
C1812 C1813 1.377 . S
C1813 H1797 0.930 . S
C1813 C1812 1.377 . S
C1813 C1814 1.379 . S
C1814 H1798 0.931 . S
C1814 C1808 1.383 . S
C1814 C1813 1.379 . S
H1815 C1809 0.959 . S
H1816 C1809 0.961 . S
H1817 C1809 0.960 . S
H1818 C1810 0.930 . S
H1819 C1811 0.929 . S
H1820 C1828 0.929 . S
H1821 C1830 0.930 . S
H1822 C1832 0.930 . S
H1823 C1835 0.929 . S
H1824 C1838 0.930 . S
H1825 C1840 0.960 . S
H1826 C1840 0.960 . S
H1827 C1840 0.960 . S
C1828 H1820 0.929 . S
C1828 C1829 1.377 . S
C1828 C1830 1.384 . S
C1829 C1828 1.377 . S
C1829 C1835 1.390 . S
C1830 H1821 0.930 . S
C1830 C1828 1.384 . S
C1830 C1831 1.372 . S
C1831 C1830 1.372 . S
C1831 C1832 1.400 . S
C1831 C1836 1.490 . S
C1832 H1822 0.930 . S
C1832 C1831 1.400 . S
C1832 C1835 1.386 . S
H1833 C1849 0.930 . S
H1834 C1850 0.931 . S
C1835 H1823 0.929 . S
C1835 C1829 1.390 . S
C1835 C1832 1.386 . S
C1836 C1831 1.490 . S
C1836 C1838 1.395 . S
C1836 C1839 1.403 . S
H1837 C1843 0.930 . S
C1838 H1824 0.930 . S
C1838 C1836 1.395 . S
C1838 C1841 1.403 . S
C1839 C1836 1.403 . S
C1839 C1840 1.524 . S
C1839 C1843 1.400 . S
C1840 H1825 0.960 . S
C1840 H1826 0.960 . S
C1840 H1827 0.960 . S
C1840 C1839 1.524 . S
C1841 C1838 1.403 . S
C1841 C1842 1.392 . S
C1841 C1845 1.495 . S
C1842 C1841 1.392 . S
C1842 C1843 1.385 . S
C1842 C1844 1.478 . S
C1843 H1837 0.930 . S
C1843 C1839 1.400 . S
C1843 C1842 1.385 . S
C1844 C1842 1.478 . S
C1844 C1846 1.381 . S
C1844 C1850 1.383 . S
C1845 C1841 1.495 . S
C1845 H1851 0.959 . S
C1845 H1852 0.961 . S
C1845 H1853 0.960 . S
C1846 C1844 1.381 . S
C1846 C1847 1.394 . S
C1846 H1854 0.930 . S
C1847 C1846 1.394 . S
C1847 C1848 1.383 . S
C1847 H1855 0.929 . S
C1848 C1847 1.383 . S
C1848 C1849 1.377 . S
C1849 H1833 0.930 . S
C1849 C1848 1.377 . S
C1849 C1850 1.379 . S
C1850 H1834 0.931 . S
C1850 C1844 1.383 . S
C1850 C1849 1.379 . S
H1851 C1845 0.959 . S
H1852 C1845 0.961 . S
H1853 C1845 0.960 . S
H1854 C1846 0.930 . S
H1855 C1847 0.929 . S
H1856 C1864 0.929 . S
H1857 C1866 0.930 . S
H1858 C1868 0.930 . S
H1859 C1871 0.929 . S
H1860 C1874 0.930 . S
H1861 C1876 0.960 . S
H1862 C1876 0.960 . S
H1863 C1876 0.960 . S
C1864 H1856 0.929 . S
C1864 C1865 1.377 . S
C1864 C1866 1.384 . S
C1865 C1864 1.377 . S
C1865 C1871 1.390 . S
C1866 H1857 0.930 . S
C1866 C1864 1.384 . S
C1866 C1867 1.372 . S
C1867 C1866 1.372 . S
C1867 C1868 1.400 . S
C1867 C1872 1.490 . S
C1868 H1858 0.930 . S
C1868 C1867 1.400 . S
C1868 C1871 1.386 . S
H1869 C1885 0.930 . S
H1870 C1886 0.931 . S
C1871 H1859 0.929 . S
C1871 C1865 1.390 . S
C1871 C1868 1.386 . S
C1872 C1867 1.490 . S
C1872 C1874 1.395 . S
C1872 C1875 1.403 . S
H1873 C1879 0.930 . S
C1874 H1860 0.930 . S
C1874 C1872 1.395 . S
C1874 C1877 1.403 . S
C1875 C1872 1.403 . S
C1875 C1876 1.524 . S
C1875 C1879 1.400 . S
C1876 H1861 0.960 . S
C1876 H1862 0.960 . S
C1876 H1863 0.960 . S
C1876 C1875 1.524 . S
C1877 C1874 1.403 . S
C1877 C1878 1.392 . S
C1877 C1881 1.495 . S
C1878 C1877 1.392 . S
C1878 C1879 1.385 . S
C1878 C1880 1.478 . S
C1879 H1873 0.930 . S
C1879 C1875 1.400 . S
C1879 C1878 1.385 . S
C1880 C1878 1.478 . S
C1880 C1882 1.381 . S
C1880 C1886 1.383 . S
C1881 C1877 1.495 . S
C1881 H1887 0.959 . S
C1881 H1888 0.961 . S
C1881 H1889 0.960 . S
C1882 C1880 1.381 . S
C1882 C1883 1.394 . S
C1882 H1890 0.930 . S
C1883 C1882 1.394 . S
C1883 C1884 1.383 . S
C1883 H1891 0.929 . S
C1884 C1883 1.383 . S
C1884 C1885 1.377 . S
C1885 H1869 0.930 . S
C1885 C1884 1.377 . S
C1885 C1886 1.379 . S
C1886 H1870 0.931 . S
C1886 C1880 1.383 . S
C1886 C1885 1.379 . S
H1887 C1881 0.959 . S
H1888 C1881 0.961 . S
H1889 C1881 0.960 . S
H1890 C1882 0.930 . S
H1891 C1883 0.929 . S
H1892 C1900 0.929 . S
H1893 C1902 0.930 . S
H1894 C1904 0.930 . S
H1895 C1907 0.929 . S
H1896 C1910 0.930 . S
H1897 C1912 0.960 . S
H1898 C1912 0.960 . S
H1899 C1912 0.960 . S
C1900 H1892 0.929 . S
C1900 C1901 1.377 . S
C1900 C1902 1.384 . S
C1901 C1900 1.377 . S
C1901 C1907 1.390 . S
C1902 H1893 0.930 . S
C1902 C1900 1.384 . S
C1902 C1903 1.372 . S
C1903 C1902 1.372 . S
C1903 C1904 1.400 . S
C1903 C1908 1.490 . S
C1904 H1894 0.930 . S
C1904 C1903 1.400 . S
C1904 C1907 1.386 . S
H1905 C1921 0.930 . S
H1906 C1922 0.931 . S
C1907 H1895 0.929 . S
C1907 C1901 1.390 . S
C1907 C1904 1.386 . S
C1908 C1903 1.490 . S
C1908 C1910 1.395 . S
C1908 C1911 1.403 . S
H1909 C1915 0.930 . S
C1910 H1896 0.930 . S
C1910 C1908 1.395 . S
C1910 C1913 1.403 . S
C1911 C1908 1.403 . S
C1911 C1912 1.524 . S
C1911 C1915 1.400 . S
C1912 H1897 0.960 . S
C1912 H1898 0.960 . S
C1912 H1899 0.960 . S
C1912 C1911 1.524 . S
C1913 C1910 1.403 . S
C1913 C1914 1.392 . S
C1913 C1917 1.495 . S
C1914 C1913 1.392 . S
C1914 C1915 1.385 . S
C1914 C1916 1.478 . S
C1915 H1909 0.930 . S
C1915 C1911 1.400 . S
C1915 C1914 1.385 . S
C1916 C1914 1.478 . S
C1916 C1918 1.381 . S
C1916 C1922 1.383 . S
C1917 C1913 1.495 . S
C1917 H1923 0.959 . S
C1917 H1924 0.961 . S
C1917 H1925 0.960 . S
C1918 C1916 1.381 . S
C1918 C1919 1.394 . S
C1918 H1926 0.930 . S
C1919 C1918 1.394 . S
C1919 C1920 1.383 . S
C1919 H1927 0.929 . S
C1920 C1919 1.383 . S
C1920 C1921 1.377 . S
C1921 H1905 0.930 . S
C1921 C1920 1.377 . S
C1921 C1922 1.379 . S
C1922 H1906 0.931 . S
C1922 C1916 1.383 . S
C1922 C1921 1.379 . S
H1923 C1917 0.959 . S
H1924 C1917 0.961 . S
H1925 C1917 0.960 . S
H1926 C1918 0.930 . S
H1927 C1919 0.929 . S
H1928 C1936 0.929 . S
H1929 C1938 0.930 . S
H1930 C1940 0.930 . S
H1931 C1943 0.929 . S
H1932 C1946 0.930 . S
H1933 C1948 0.960 . S
H1934 C1948 0.960 . S
H1935 C1948 0.960 . S
C1936 H1928 0.929 . S
C1936 C1937 1.377 . S
C1936 C1938 1.384 . S
C1937 C1936 1.377 . S
C1937 C1943 1.390 . S
C1938 H1929 0.930 . S
C1938 C1936 1.384 . S
C1938 C1939 1.372 . S
C1939 C1938 1.372 . S
C1939 C1940 1.400 . S
C1939 C1944 1.490 . S
C1940 H1930 0.930 . S
C1940 C1939 1.400 . S
C1940 C1943 1.386 . S
H1941 C1957 0.930 . S
H1942 C1958 0.931 . S
C1943 H1931 0.929 . S
C1943 C1937 1.390 . S
C1943 C1940 1.386 . S
C1944 C1939 1.490 . S
C1944 C1946 1.395 . S
C1944 C1947 1.403 . S
H1945 C1951 0.930 . S
C1946 H1932 0.930 . S
C1946 C1944 1.395 . S
C1946 C1949 1.403 . S
C1947 C1944 1.403 . S
C1947 C1948 1.524 . S
C1947 C1951 1.400 . S
C1948 H1933 0.960 . S
C1948 H1934 0.960 . S
C1948 H1935 0.960 . S
C1948 C1947 1.524 . S
C1949 C1946 1.403 . S
C1949 C1950 1.392 . S
C1949 C1953 1.495 . S
C1950 C1949 1.392 . S
C1950 C1951 1.385 . S
C1950 C1952 1.478 . S
C1951 H1945 0.930 . S
C1951 C1947 1.400 . S
C1951 C1950 1.385 . S
C1952 C1950 1.478 . S
C1952 C1954 1.381 . S
C1952 C1958 1.383 . S
C1953 C1949 1.495 . S
C1953 H1959 0.959 . S
C1953 H1960 0.961 . S
C1953 H1961 0.960 . S
C1954 C1952 1.381 . S
C1954 C1955 1.394 . S
C1954 H1962 0.930 . S
C1955 C1954 1.394 . S
C1955 C1956 1.383 . S
C1955 H1963 0.929 . S
C1956 C1955 1.383 . S
C1956 C1957 1.377 . S
C1957 H1941 0.930 . S
C1957 C1956 1.377 . S
C1957 C1958 1.379 . S
C1958 H1942 0.931 . S
C1958 C1952 1.383 . S
C1958 C1957 1.379 . S
H1959 C1953 0.959 . S
H1960 C1953 0.961 . S
H1961 C1953 0.960 . S
H1962 C1954 0.930 . S
H1963 C1955 0.929 . S
H1964 C1972 0.929 . S
H1965 C1974 0.930 . S
H1966 C1976 0.930 . S
H1967 C1979 0.929 . S
H1968 C1982 0.930 . S
H1969 C1984 0.960 . S
H1970 C1984 0.960 . S
H1971 C1984 0.960 . S
C1972 H1964 0.929 . S
C1972 C1973 1.377 . S
C1972 C1974 1.384 . S
C1973 C1972 1.377 . S
C1973 C1979 1.390 . S
C1974 H1965 0.930 . S
C1974 C1972 1.384 . S
C1974 C1975 1.372 . S
C1975 C1974 1.372 . S
C1975 C1976 1.400 . S
C1975 C1980 1.490 . S
C1976 H1966 0.930 . S
C1976 C1975 1.400 . S
C1976 C1979 1.386 . S
H1977 C1993 0.930 . S
H1978 C1994 0.931 . S
C1979 H1967 0.929 . S
C1979 C1973 1.390 . S
C1979 C1976 1.386 . S
C1980 C1975 1.490 . S
C1980 C1982 1.395 . S
C1980 C1983 1.403 . S
H1981 C1987 0.930 . S
C1982 H1968 0.930 . S
C1982 C1980 1.395 . S
C1982 C1985 1.403 . S
C1983 C1980 1.403 . S
C1983 C1984 1.524 . S
C1983 C1987 1.400 . S
C1984 H1969 0.960 . S
C1984 H1970 0.960 . S
C1984 H1971 0.960 . S
C1984 C1983 1.524 . S
C1985 C1982 1.403 . S
C1985 C1986 1.392 . S
C1985 C1989 1.495 . S
C1986 C1985 1.392 . S
C1986 C1987 1.385 . S
C1986 C1988 1.478 . S
C1987 H1981 0.930 . S
C1987 C1983 1.400 . S
C1987 C1986 1.385 . S
C1988 C1986 1.478 . S
C1988 C1990 1.381 . S
C1988 C1994 1.383 . S
C1989 C1985 1.495 . S
C1989 H1995 0.959 . S
C1989 H1996 0.961 . S
C1989 H1997 0.960 . S
C1990 C1988 1.381 . S
C1990 C1991 1.394 . S
C1990 H1998 0.930 . S
C1991 C1990 1.394 . S
C1991 C1992 1.383 . S
C1991 H1999 0.929 . S
C1992 C1991 1.383 . S
C1992 C1993 1.377 . S
C1993 H1977 0.930 . S
C1993 C1992 1.377 . S
C1993 C1994 1.379 . S
C1994 H1978 0.931 . S
C1994 C1988 1.383 . S
C1994 C1993 1.379 . S
H1995 C1989 0.959 . S
H1996 C1989 0.961 . S
H1997 C1989 0.960 . S
H1998 C1990 0.930 . S
H1999 C1991 0.929 . S
H2000 C2008 0.929 . S
H2001 C2010 0.930 . S
H2002 C2012 0.930 . S
H2003 C2015 0.929 . S
H2004 C2018 0.930 . S
H2005 C2020 0.960 . S
H2006 C2020 0.960 . S
H2007 C2020 0.960 . S
C2008 H2000 0.929 . S
C2008 C2009 1.377 . S
C2008 C2010 1.384 . S
C2009 C2008 1.377 . S
C2009 C2015 1.390 . S
C2010 H2001 0.930 . S
C2010 C2008 1.384 . S
C2010 C2011 1.372 . S
C2011 C2010 1.372 . S
C2011 C2012 1.400 . S
C2011 C2016 1.490 . S
C2012 H2002 0.930 . S
C2012 C2011 1.400 . S
C2012 C2015 1.386 . S
H2013 C2029 0.930 . S
H2014 C2030 0.931 . S
C2015 H2003 0.929 . S
C2015 C2009 1.390 . S
C2015 C2012 1.386 . S
C2016 C2011 1.490 . S
C2016 C2018 1.395 . S
C2016 C2019 1.403 . S
H2017 C2023 0.930 . S
C2018 H2004 0.930 . S
C2018 C2016 1.395 . S
C2018 C2021 1.403 . S
C2019 C2016 1.403 . S
C2019 C2020 1.524 . S
C2019 C2023 1.400 . S
C2020 H2005 0.960 . S
C2020 H2006 0.960 . S
C2020 H2007 0.960 . S
C2020 C2019 1.524 . S
C2021 C2018 1.403 . S
C2021 C2022 1.392 . S
C2021 C2025 1.495 . S
C2022 C2021 1.392 . S
C2022 C2023 1.385 . S
C2022 C2024 1.478 . S
C2023 H2017 0.930 . S
C2023 C2019 1.400 . S
C2023 C2022 1.385 . S
C2024 C2022 1.478 . S
C2024 C2026 1.381 . S
C2024 C2030 1.383 . S
C2025 C2021 1.495 . S
C2025 H2031 0.959 . S
C2025 H2032 0.961 . S
C2025 H2033 0.960 . S
C2026 C2024 1.381 . S
C2026 C2027 1.394 . S
C2026 H2034 0.930 . S
C2027 C2026 1.394 . S
C2027 C2028 1.383 . S
C2027 H2035 0.929 . S
C2028 C2027 1.383 . S
C2028 C2029 1.377 . S
C2029 H2013 0.930 . S
C2029 C2028 1.377 . S
C2029 C2030 1.379 . S
C2030 H2014 0.931 . S
C2030 C2024 1.383 . S
C2030 C2029 1.379 . S
H2031 C2025 0.959 . S
H2032 C2025 0.961 . S
H2033 C2025 0.960 . S
H2034 C2026 0.930 . S
H2035 C2027 0.929 . S
H2036 C2044 0.929 . S
H2037 C2046 0.930 . S
H2038 C2048 0.930 . S
H2039 C2051 0.929 . S
H2040 C2054 0.930 . S
H2041 C2056 0.960 . S
H2042 C2056 0.960 . S
H2043 C2056 0.960 . S
C2044 H2036 0.929 . S
C2044 C2045 1.377 . S
C2044 C2046 1.384 . S
C2045 C2044 1.377 . S
C2045 C2051 1.390 . S
C2046 H2037 0.930 . S
C2046 C2044 1.384 . S
C2046 C2047 1.372 . S
C2047 C2046 1.372 . S
C2047 C2048 1.400 . S
C2047 C2052 1.490 . S
C2048 H2038 0.930 . S
C2048 C2047 1.400 . S
C2048 C2051 1.386 . S
H2049 C2065 0.930 . S
H2050 C2066 0.931 . S
C2051 H2039 0.929 . S
C2051 C2045 1.390 . S
C2051 C2048 1.386 . S
C2052 C2047 1.490 . S
C2052 C2054 1.395 . S
C2052 C2055 1.403 . S
H2053 C2059 0.930 . S
C2054 H2040 0.930 . S
C2054 C2052 1.395 . S
C2054 C2057 1.403 . S
C2055 C2052 1.403 . S
C2055 C2056 1.524 . S
C2055 C2059 1.400 . S
C2056 H2041 0.960 . S
C2056 H2042 0.960 . S
C2056 H2043 0.960 . S
C2056 C2055 1.524 . S
C2057 C2054 1.403 . S
C2057 C2058 1.392 . S
C2057 C2061 1.495 . S
C2058 C2057 1.392 . S
C2058 C2059 1.385 . S
C2058 C2060 1.478 . S
C2059 H2053 0.930 . S
C2059 C2055 1.400 . S
C2059 C2058 1.385 . S
C2060 C2058 1.478 . S
C2060 C2062 1.381 . S
C2060 C2066 1.383 . S
C2061 C2057 1.495 . S
C2061 H2067 0.959 . S
C2061 H2068 0.961 . S
C2061 H2069 0.960 . S
C2062 C2060 1.381 . S
C2062 C2063 1.394 . S
C2062 H2070 0.930 . S
C2063 C2062 1.394 . S
C2063 C2064 1.383 . S
C2063 H2071 0.929 . S
C2064 C2063 1.383 . S
C2064 C2065 1.377 . S
C2065 H2049 0.930 . S
C2065 C2064 1.377 . S
C2065 C2066 1.379 . S
C2066 H2050 0.931 . S
C2066 C2060 1.383 . S
C2066 C2065 1.379 . S
H2067 C2061 0.959 . S
H2068 C2061 0.961 . S
H2069 C2061 0.960 . S
H2070 C2062 0.930 . S
H2071 C2063 0.929 . S
H2072 C2080 0.929 . S
H2073 C2082 0.930 . S
H2074 C2084 0.930 . S
H2075 C2087 0.929 . S
H2076 C2090 0.930 . S
H2077 C2092 0.960 . S
H2078 C2092 0.960 . S
H2079 C2092 0.960 . S
C2080 H2072 0.929 . S
C2080 C2081 1.377 . S
C2080 C2082 1.384 . S
C2081 C2080 1.377 . S
C2081 C2087 1.390 . S
C2082 H2073 0.930 . S
C2082 C2080 1.384 . S
C2082 C2083 1.372 . S
C2083 C2082 1.372 . S
C2083 C2084 1.400 . S
C2083 C2088 1.490 . S
C2084 H2074 0.930 . S
C2084 C2083 1.400 . S
C2084 C2087 1.386 . S
H2085 C2101 0.930 . S
H2086 C2102 0.931 . S
C2087 H2075 0.929 . S
C2087 C2081 1.390 . S
C2087 C2084 1.386 . S
C2088 C2083 1.490 . S
C2088 C2090 1.395 . S
C2088 C2091 1.403 . S
H2089 C2095 0.930 . S
C2090 H2076 0.930 . S
C2090 C2088 1.395 . S
C2090 C2093 1.403 . S
C2091 C2088 1.403 . S
C2091 C2092 1.524 . S
C2091 C2095 1.400 . S
C2092 H2077 0.960 . S
C2092 H2078 0.960 . S
C2092 H2079 0.960 . S
C2092 C2091 1.524 . S
C2093 C2090 1.403 . S
C2093 C2094 1.392 . S
C2093 C2097 1.495 . S
C2094 C2093 1.392 . S
C2094 C2095 1.385 . S
C2094 C2096 1.478 . S
C2095 H2089 0.930 . S
C2095 C2091 1.400 . S
C2095 C2094 1.385 . S
C2096 C2094 1.478 . S
C2096 C2098 1.381 . S
C2096 C2102 1.383 . S
C2097 C2093 1.495 . S
C2097 H2103 0.959 . S
C2097 H2104 0.961 . S
C2097 H2105 0.960 . S
C2098 C2096 1.381 . S
C2098 C2099 1.394 . S
C2098 H2106 0.930 . S
C2099 C2098 1.394 . S
C2099 C2100 1.383 . S
C2099 H2107 0.929 . S
C2100 C2099 1.383 . S
C2100 C2101 1.377 . S
C2101 H2085 0.930 . S
C2101 C2100 1.377 . S
C2101 C2102 1.379 . S
C2102 H2086 0.931 . S
C2102 C2096 1.383 . S
C2102 C2101 1.379 . S
H2103 C2097 0.959 . S
H2104 C2097 0.961 . S
H2105 C2097 0.960 . S
H2106 C2098 0.930 . S
H2107 C2099 0.929 . S
H2108 C2116 0.929 . S
H2109 C2118 0.930 . S
H2110 C2120 0.930 . S
H2111 C2123 0.929 . S
H2112 C2126 0.930 . S
H2113 C2128 0.960 . S
H2114 C2128 0.960 . S
H2115 C2128 0.960 . S
C2116 H2108 0.929 . S
C2116 C2117 1.377 . S
C2116 C2118 1.384 . S
C2117 C2116 1.377 . S
C2117 C2123 1.390 . S
C2118 H2109 0.930 . S
C2118 C2116 1.384 . S
C2118 C2119 1.372 . S
C2119 C2118 1.372 . S
C2119 C2120 1.400 . S
C2119 C2124 1.490 . S
C2120 H2110 0.930 . S
C2120 C2119 1.400 . S
C2120 C2123 1.386 . S
H2121 C2137 0.930 . S
H2122 C2138 0.931 . S
C2123 H2111 0.929 . S
C2123 C2117 1.390 . S
C2123 C2120 1.386 . S
C2124 C2119 1.490 . S
C2124 C2126 1.395 . S
C2124 C2127 1.403 . S
H2125 C2131 0.930 . S
C2126 H2112 0.930 . S
C2126 C2124 1.395 . S
C2126 C2129 1.403 . S
C2127 C2124 1.403 . S
C2127 C2128 1.524 . S
C2127 C2131 1.400 . S
C2128 H2113 0.960 . S
C2128 H2114 0.960 . S
C2128 H2115 0.960 . S
C2128 C2127 1.524 . S
C2129 C2126 1.403 . S
C2129 C2130 1.392 . S
C2129 C2133 1.495 . S
C2130 C2129 1.392 . S
C2130 C2131 1.385 . S
C2130 C2132 1.478 . S
C2131 H2125 0.930 . S
C2131 C2127 1.400 . S
C2131 C2130 1.385 . S
C2132 C2130 1.478 . S
C2132 C2134 1.381 . S
C2132 C2138 1.383 . S
C2133 C2129 1.495 . S
C2133 H2139 0.959 . S
C2133 H2140 0.961 . S
C2133 H2141 0.960 . S
C2134 C2132 1.381 . S
C2134 C2135 1.394 . S
C2134 H2142 0.930 . S
C2135 C2134 1.394 . S
C2135 C2136 1.383 . S
C2135 H2143 0.929 . S
C2136 C2135 1.383 . S
C2136 C2137 1.377 . S
C2137 H2121 0.930 . S
C2137 C2136 1.377 . S
C2137 C2138 1.379 . S
C2138 H2122 0.931 . S
C2138 C2132 1.383 . S
C2138 C2137 1.379 . S
H2139 C2133 0.959 . S
H2140 C2133 0.961 . S
H2141 C2133 0.960 . S
H2142 C2134 0.930 . S
H2143 C2135 0.929 . S
H2144 C2152 0.929 . S
H2145 C2154 0.930 . S
H2146 C2156 0.930 . S
H2147 C2159 0.929 . S
H2148 C2162 0.930 . S
H2149 C2164 0.960 . S
H2150 C2164 0.960 . S
H2151 C2164 0.960 . S
C2152 H2144 0.929 . S
C2152 C2153 1.377 . S
C2152 C2154 1.384 . S
C2153 C2152 1.377 . S
C2153 C2159 1.390 . S
C2154 H2145 0.930 . S
C2154 C2152 1.384 . S
C2154 C2155 1.372 . S
C2155 C2154 1.372 . S
C2155 C2156 1.400 . S
C2155 C2160 1.490 . S
C2156 H2146 0.930 . S
C2156 C2155 1.400 . S
C2156 C2159 1.386 . S
H2157 C2173 0.930 . S
H2158 C2174 0.931 . S
C2159 H2147 0.929 . S
C2159 C2153 1.390 . S
C2159 C2156 1.386 . S
C2160 C2155 1.490 . S
C2160 C2162 1.395 . S
C2160 C2163 1.403 . S
H2161 C2167 0.930 . S
C2162 H2148 0.930 . S
C2162 C2160 1.395 . S
C2162 C2165 1.403 . S
C2163 C2160 1.403 . S
C2163 C2164 1.524 . S
C2163 C2167 1.400 . S
C2164 H2149 0.960 . S
C2164 H2150 0.960 . S
C2164 H2151 0.960 . S
C2164 C2163 1.524 . S
C2165 C2162 1.403 . S
C2165 C2166 1.392 . S
C2165 C2169 1.495 . S
C2166 C2165 1.392 . S
C2166 C2167 1.385 . S
C2166 C2168 1.478 . S
C2167 H2161 0.930 . S
C2167 C2163 1.400 . S
C2167 C2166 1.385 . S
C2168 C2166 1.478 . S
C2168 C2170 1.381 . S
C2168 C2174 1.383 . S
C2169 C2165 1.495 . S
C2169 H2175 0.959 . S
C2169 H2176 0.961 . S
C2169 H2177 0.960 . S
C2170 C2168 1.381 . S
C2170 C2171 1.394 . S
C2170 H2178 0.930 . S
C2171 C2170 1.394 . S
C2171 C2172 1.383 . S
C2171 H2179 0.929 . S
C2172 C2171 1.383 . S
C2172 C2173 1.377 . S
C2173 H2157 0.930 . S
C2173 C2172 1.377 . S
C2173 C2174 1.379 . S
C2174 H2158 0.931 . S
C2174 C2168 1.383 . S
C2174 C2173 1.379 . S
H2175 C2169 0.959 . S
H2176 C2169 0.961 . S
H2177 C2169 0.960 . S
H2178 C2170 0.930 . S
H2179 C2171 0.929 . S
H2180 C2188 0.929 . S
H2181 C2190 0.930 . S
H2182 C2192 0.930 . S
H2183 C2195 0.929 . S
H2184 C2198 0.930 . S
H2185 C2200 0.960 . S
H2186 C2200 0.960 . S
H2187 C2200 0.960 . S
C2188 H2180 0.929 . S
C2188 C2189 1.377 . S
C2188 C2190 1.384 . S
C2189 C2188 1.377 . S
C2189 C2195 1.390 . S
C2190 H2181 0.930 . S
C2190 C2188 1.384 . S
C2190 C2191 1.372 . S
C2191 C2190 1.372 . S
C2191 C2192 1.400 . S
C2191 C2196 1.490 . S
C2192 H2182 0.930 . S
C2192 C2191 1.400 . S
C2192 C2195 1.386 . S
H2193 C2209 0.930 . S
H2194 C2210 0.931 . S
C2195 H2183 0.929 . S
C2195 C2189 1.390 . S
C2195 C2192 1.386 . S
C2196 C2191 1.490 . S
C2196 C2198 1.395 . S
C2196 C2199 1.403 . S
H2197 C2203 0.930 . S
C2198 H2184 0.930 . S
C2198 C2196 1.395 . S
C2198 C2201 1.403 . S
C2199 C2196 1.403 . S
C2199 C2200 1.524 . S
C2199 C2203 1.400 . S
C2200 H2185 0.960 . S
C2200 H2186 0.960 . S
C2200 H2187 0.960 . S
C2200 C2199 1.524 . S
C2201 C2198 1.403 . S
C2201 C2202 1.392 . S
C2201 C2205 1.495 . S
C2202 C2201 1.392 . S
C2202 C2203 1.385 . S
C2202 C2204 1.478 . S
C2203 H2197 0.930 . S
C2203 C2199 1.400 . S
C2203 C2202 1.385 . S
C2204 C2202 1.478 . S
C2204 C2206 1.381 . S
C2204 C2210 1.383 . S
C2205 C2201 1.495 . S
C2205 H2211 0.959 . S
C2205 H2212 0.961 . S
C2205 H2213 0.960 . S
C2206 C2204 1.381 . S
C2206 C2207 1.394 . S
C2206 H2214 0.930 . S
C2207 C2206 1.394 . S
C2207 C2208 1.383 . S
C2207 H2215 0.929 . S
C2208 C2207 1.383 . S
C2208 C2209 1.377 . S
C2209 H2193 0.930 . S
C2209 C2208 1.377 . S
C2209 C2210 1.379 . S
C2210 H2194 0.931 . S
C2210 C2204 1.383 . S
C2210 C2209 1.379 . S
H2211 C2205 0.959 . S
H2212 C2205 0.961 . S
H2213 C2205 0.960 . S
H2214 C2206 0.930 . S
H2215 C2207 0.929 . S
H2216 C2224 0.929 . S
H2217 C2226 0.930 . S
H2218 C2228 0.930 . S
H2219 C2231 0.929 . S
H2220 C2234 0.930 . S
H2221 C2236 0.960 . S
H2222 C2236 0.960 . S
H2223 C2236 0.960 . S
C2224 H2216 0.929 . S
C2224 C2225 1.377 . S
C2224 C2226 1.384 . S
C2225 C2224 1.377 . S
C2225 C2231 1.390 . S
C2226 H2217 0.930 . S
C2226 C2224 1.384 . S
C2226 C2227 1.372 . S
C2227 C2226 1.372 . S
C2227 C2228 1.400 . S
C2227 C2232 1.490 . S
C2228 H2218 0.930 . S
C2228 C2227 1.400 . S
C2228 C2231 1.386 . S
H2229 C2245 0.930 . S
H2230 C2246 0.931 . S
C2231 H2219 0.929 . S
C2231 C2225 1.390 . S
C2231 C2228 1.386 . S
C2232 C2227 1.490 . S
C2232 C2234 1.395 . S
C2232 C2235 1.403 . S
H2233 C2239 0.930 . S
C2234 H2220 0.930 . S
C2234 C2232 1.395 . S
C2234 C2237 1.403 . S
C2235 C2232 1.403 . S
C2235 C2236 1.524 . S
C2235 C2239 1.400 . S
C2236 H2221 0.960 . S
C2236 H2222 0.960 . S
C2236 H2223 0.960 . S
C2236 C2235 1.524 . S
C2237 C2234 1.403 . S
C2237 C2238 1.392 . S
C2237 C2241 1.495 . S
C2238 C2237 1.392 . S
C2238 C2239 1.385 . S
C2238 C2240 1.478 . S
C2239 H2233 0.930 . S
C2239 C2235 1.400 . S
C2239 C2238 1.385 . S
C2240 C2238 1.478 . S
C2240 C2242 1.381 . S
C2240 C2246 1.383 . S
C2241 C2237 1.495 . S
C2241 H2247 0.959 . S
C2241 H2248 0.961 . S
C2241 H2249 0.960 . S
C2242 C2240 1.381 . S
C2242 C2243 1.394 . S
C2242 H2250 0.930 . S
C2243 C2242 1.394 . S
C2243 C2244 1.383 . S
C2243 H2251 0.929 . S
C2244 C2243 1.383 . S
C2244 C2245 1.377 . S
C2245 H2229 0.930 . S
C2245 C2244 1.377 . S
C2245 C2246 1.379 . S
C2246 H2230 0.931 . S
C2246 C2240 1.383 . S
C2246 C2245 1.379 . S
H2247 C2241 0.959 . S
H2248 C2241 0.961 . S
H2249 C2241 0.960 . S
H2250 C2242 0.930 . S
H2251 C2243 0.929 . S
H2252 C2260 0.929 . S
H2253 C2262 0.930 . S
H2254 C2264 0.930 . S
H2255 C2267 0.929 . S
H2256 C2270 0.930 . S
H2257 C2272 0.960 . S
H2258 C2272 0.960 . S
H2259 C2272 0.960 . S
C2260 H2252 0.929 . S
C2260 C2261 1.377 . S
C2260 C2262 1.384 . S
C2261 C2260 1.377 . S
C2261 C2267 1.390 . S
C2262 H2253 0.930 . S
C2262 C2260 1.384 . S
C2262 C2263 1.372 . S
C2263 C2262 1.372 . S
C2263 C2264 1.400 . S
C2263 C2268 1.490 . S
C2264 H2254 0.930 . S
C2264 C2263 1.400 . S
C2264 C2267 1.386 . S
H2265 C2281 0.930 . S
H2266 C2282 0.931 . S
C2267 H2255 0.929 . S
C2267 C2261 1.390 . S
C2267 C2264 1.386 . S
C2268 C2263 1.490 . S
C2268 C2270 1.395 . S
C2268 C2271 1.403 . S
H2269 C2275 0.930 . S
C2270 H2256 0.930 . S
C2270 C2268 1.395 . S
C2270 C2273 1.403 . S
C2271 C2268 1.403 . S
C2271 C2272 1.524 . S
C2271 C2275 1.400 . S
C2272 H2257 0.960 . S
C2272 H2258 0.960 . S
C2272 H2259 0.960 . S
C2272 C2271 1.524 . S
C2273 C2270 1.403 . S
C2273 C2274 1.392 . S
C2273 C2277 1.495 . S
C2274 C2273 1.392 . S
C2274 C2275 1.385 . S
C2274 C2276 1.478 . S
C2275 H2269 0.930 . S
C2275 C2271 1.400 . S
C2275 C2274 1.385 . S
C2276 C2274 1.478 . S
C2276 C2278 1.381 . S
C2276 C2282 1.383 . S
C2277 C2273 1.495 . S
C2277 H2283 0.959 . S
C2277 H2284 0.961 . S
C2277 H2285 0.960 . S
C2278 C2276 1.381 . S
C2278 C2279 1.394 . S
C2278 H2286 0.930 . S
C2279 C2278 1.394 . S
C2279 C2280 1.383 . S
C2279 H2287 0.929 . S
C2280 C2279 1.383 . S
C2280 C2281 1.377 . S
C2281 H2265 0.930 . S
C2281 C2280 1.377 . S
C2281 C2282 1.379 . S
C2282 H2266 0.931 . S
C2282 C2276 1.383 . S
C2282 C2281 1.379 . S
H2283 C2277 0.959 . S
H2284 C2277 0.961 . S
H2285 C2277 0.960 . S
H2286 C2278 0.930 . S
H2287 C2279 0.929 . S
H2288 C2296 0.929 . S
H2289 C2298 0.930 . S
H2290 C2300 0.930 . S
H2291 C2303 0.929 . S
H2292 C2306 0.930 . S
H2293 C2308 0.960 . S
H2294 C2308 0.960 . S
H2295 C2308 0.960 . S
C2296 H2288 0.929 . S
C2296 C2297 1.377 . S
C2296 C2298 1.384 . S
C2297 C2296 1.377 . S
C2297 C2303 1.390 . S
C2298 H2289 0.930 . S
C2298 C2296 1.384 . S
C2298 C2299 1.372 . S
C2299 C2298 1.372 . S
C2299 C2300 1.400 . S
C2299 C2304 1.490 . S
C2300 H2290 0.930 . S
C2300 C2299 1.400 . S
C2300 C2303 1.386 . S
H2301 C2317 0.930 . S
H2302 C2318 0.931 . S
C2303 H2291 0.929 . S
C2303 C2297 1.390 . S
C2303 C2300 1.386 . S
C2304 C2299 1.490 . S
C2304 C2306 1.395 . S
C2304 C2307 1.403 . S
H2305 C2311 0.930 . S
C2306 H2292 0.930 . S
C2306 C2304 1.395 . S
C2306 C2309 1.403 . S
C2307 C2304 1.403 . S
C2307 C2308 1.524 . S
C2307 C2311 1.400 . S
C2308 H2293 0.960 . S
C2308 H2294 0.960 . S
C2308 H2295 0.960 . S
C2308 C2307 1.524 . S
C2309 C2306 1.403 . S
C2309 C2310 1.392 . S
C2309 C2313 1.495 . S
C2310 C2309 1.392 . S
C2310 C2311 1.385 . S
C2310 C2312 1.478 . S
C2311 H2305 0.930 . S
C2311 C2307 1.400 . S
C2311 C2310 1.385 . S
C2312 C2310 1.478 . S
C2312 C2314 1.381 . S
C2312 C2318 1.383 . S
C2313 C2309 1.495 . S
C2313 H2319 0.959 . S
C2313 H2320 0.961 . S
C2313 H2321 0.960 . S
C2314 C2312 1.381 . S
C2314 C2315 1.394 . S
C2314 H2322 0.930 . S
C2315 C2314 1.394 . S
C2315 C2316 1.383 . S
C2315 H2323 0.929 . S
C2316 C2315 1.383 . S
C2316 C2317 1.377 . S
C2317 H2301 0.930 . S
C2317 C2316 1.377 . S
C2317 C2318 1.379 . S
C2318 H2302 0.931 . S
C2318 C2312 1.383 . S
C2318 C2317 1.379 . S
H2319 C2313 0.959 . S
H2320 C2313 0.961 . S
H2321 C2313 0.960 . S
H2322 C2314 0.930 . S
H2323 C2315 0.929 . S
C624 C283 1.410 . S
C605 N2 1.385 . S
C660 C326 2.809 . S
C641 C7 2.832 . S
C696 C372 1.711 . S
C677 N12 1.604 . S
C713 C16 1.861 . S
C732 C415 1.900 . S
C768 C455 2.879 . S
C749 C30 2.899 1_565 S
C804 C483 1.491 . S
C785 N35 1.465 . S
C821 C39 2.024 . S
C840 C526 2.002 . S
C876 C572 1.248 . S
C857 N25 1.201 . S
C912 C278 1.163 . S
C893 N58 1.126 . S
C929 N81 1.861 . S
C948 C327 1.864 . S
C984 C366 1.391 . S
C965 N104 1.386 . S
C1001 N127 1.064 . S
C1020 C403 1.075 . S
C1056 C443 0.633 . S
C1037 N48 0.682 . S
C1092 C478 1.584 . S
C1073 N71 1.566 1_556 S
C1109 N94 1.078 . S
C1128 C527 1.079 . S
C1164 C566 2.015 . S
C1145 N117 2.012 . S
C1181 C85 2.543 . S
C1200 C295 2.495 . S
C1217 C122 2.351 . S
C1236 C438 2.311 . S
C1253 C53 2.025 . S
C1272 C495 1.975 . S
C1308 C532 1.280 . S
C1289 C76 1.332 1_655 S
C1344 C567 1.736 . S
C1325 C99 1.747 . S
C1380 C367 2.014 . S
C1361 C131 1.998 . S
C1416 C398 1.451 . S
C1397 C62 1.457 1_565 S
C1433 C108 0.963 . S
C1452 C332 0.947 . S
C1488 C563 1.448 . S
C1469 N140 1.450 . S
C1505 C145 2.830 . S
C1524 C446 2.793 . S
C1560 C492 1.610 . S
C1541 N150 1.509 . S
C1577 C154 1.866 . S
C1596 C535 1.903 . S
C1632 C335 2.885 . S
C1613 C168 2.906 . S
C1649 N173 1.351 . S
C1668 C363 1.367 . S
C1704 C406 2.000 . S
C1685 C177 2.028 . S
C1740 C292 1.316 . S
C1721 N163 1.262 . S
C1776 C558 1.632 . S
C1757 C200 1.624 . S
C1812 C447 2.157 . S
C1793 N219 2.156 . S
C1829 N242 1.627 . S
C1848 C486 1.679 . S
C1884 C523 1.277 . S
C1865 C269 1.350 . S
C1920 C323 0.951 . S
C1901 C191 0.986 . S
C1937 N209 1.813 . S
C1956 C358 1.837 . S
C1973 N232 1.387 . S
C1992 C407 1.341 . S
C2009 C260 2.551 . S
C2028 C286 2.491 . S
C2045 C223 2.254 . S
C2064 C575 2.212 . S
C2081 N255 1.883 . S
C2100 C318 1.897 . S
C2117 N186 1.509 . S
C2136 C375 1.528 . S
C2172 C412 0.995 . S
C2153 C214 1.022 . S
C2208 C287 1.436 . S
C2189 C237 1.434 . S
C2244 C487 1.579 . S
C2225 N265 1.512 . S
C2280 C518 1.096 . S
C2261 N196 1.078 . S
C2316 C452 0.695 . S
C2297 C246 0.656 . S
