# Generated by pormake.
# Topology tbo, (3,4)-cn, num edge types: 1
# Building blocks:
#     Node 0, Type 0, BuildingBlock: OLANEW_clean_sbu_2, # of connection points: 3
#     Node 1, Type 0, BuildingBlock: OLANEW_clean_sbu_2, # of connection points: 3
#     Node 2, Type 0, BuildingBlock: OLANEW_clean_sbu_2, # of connection points: 3
#     Node 3, Type 0, BuildingBlock: OLANEW_clean_sbu_2, # of connection points: 3
#     Node 4, Type 0, BuildingBlock: OLANEW_clean_sbu_2, # of connection points: 3
#     Node 5, Type 0, BuildingBlock: OLANEW_clean_sbu_2, # of connection points: 3
#     Node 6, Type 0, BuildingBlock: OLANEW_clean_sbu_2, # of connection points: 3
#     Node 7, Type 0, BuildingBlock: OLANEW_clean_sbu_2, # of connection points: 3
#     Node 8, Type 0, BuildingBlock: OLANEW_clean_sbu_2, # of connection points: 3
#     Node 9, Type 0, BuildingBlock: OLANEW_clean_sbu_2, # of connection points: 3
#     Node 10, Type 0, BuildingBlock: OLANEW_clean_sbu_2, # of connection points: 3
#     Node 11, Type 0, BuildingBlock: OLANEW_clean_sbu_2, # of connection points: 3
#     Node 12, Type 0, BuildingBlock: OLANEW_clean_sbu_2, # of connection points: 3
#     Node 13, Type 0, BuildingBlock: OLANEW_clean_sbu_2, # of connection points: 3
#     Node 14, Type 0, BuildingBlock: OLANEW_clean_sbu_2, # of connection points: 3
#     Node 15, Type 0, BuildingBlock: OLANEW_clean_sbu_2, # of connection points: 3
#     Node 16, Type 0, BuildingBlock: OLANEW_clean_sbu_2, # of connection points: 3
#     Node 17, Type 0, BuildingBlock: OLANEW_clean_sbu_2, # of connection points: 3
#     Node 18, Type 0, BuildingBlock: OLANEW_clean_sbu_2, # of connection points: 3
#     Node 19, Type 0, BuildingBlock: OLANEW_clean_sbu_2, # of connection points: 3
#     Node 20, Type 0, BuildingBlock: OLANEW_clean_sbu_2, # of connection points: 3
#     Node 21, Type 0, BuildingBlock: OLANEW_clean_sbu_2, # of connection points: 3
#     Node 22, Type 0, BuildingBlock: OLANEW_clean_sbu_2, # of connection points: 3
#     Node 23, Type 0, BuildingBlock: OLANEW_clean_sbu_2, # of connection points: 3
#     Node 24, Type 0, BuildingBlock: OLANEW_clean_sbu_2, # of connection points: 3
#     Node 25, Type 0, BuildingBlock: OLANEW_clean_sbu_2, # of connection points: 3
#     Node 26, Type 0, BuildingBlock: OLANEW_clean_sbu_2, # of connection points: 3
#     Node 27, Type 0, BuildingBlock: OLANEW_clean_sbu_2, # of connection points: 3
#     Node 28, Type 0, BuildingBlock: OLANEW_clean_sbu_2, # of connection points: 3
#     Node 29, Type 0, BuildingBlock: OLANEW_clean_sbu_2, # of connection points: 3
#     Node 30, Type 0, BuildingBlock: OLANEW_clean_sbu_2, # of connection points: 3
#     Node 31, Type 0, BuildingBlock: OLANEW_clean_sbu_2, # of connection points: 3
#     Node 32, Type 1, BuildingBlock: ESEHIV_clean_sbu_0, # of connection points: 4
#     Node 33, Type 1, BuildingBlock: ESEHIV_clean_sbu_0, # of connection points: 4
#     Node 34, Type 1, BuildingBlock: ESEHIV_clean_sbu_0, # of connection points: 4
#     Node 35, Type 1, BuildingBlock: ESEHIV_clean_sbu_0, # of connection points: 4
#     Node 36, Type 1, BuildingBlock: ESEHIV_clean_sbu_0, # of connection points: 4
#     Node 37, Type 1, BuildingBlock: ESEHIV_clean_sbu_0, # of connection points: 4
#     Node 38, Type 1, BuildingBlock: ESEHIV_clean_sbu_0, # of connection points: 4
#     Node 39, Type 1, BuildingBlock: ESEHIV_clean_sbu_0, # of connection points: 4
#     Node 40, Type 1, BuildingBlock: ESEHIV_clean_sbu_0, # of connection points: 4
#     Node 41, Type 1, BuildingBlock: ESEHIV_clean_sbu_0, # of connection points: 4
#     Node 42, Type 1, BuildingBlock: ESEHIV_clean_sbu_0, # of connection points: 4
#     Node 43, Type 1, BuildingBlock: ESEHIV_clean_sbu_0, # of connection points: 4
#     Node 44, Type 1, BuildingBlock: ESEHIV_clean_sbu_0, # of connection points: 4
#     Node 45, Type 1, BuildingBlock: ESEHIV_clean_sbu_0, # of connection points: 4
#     Node 46, Type 1, BuildingBlock: ESEHIV_clean_sbu_0, # of connection points: 4
#     Node 47, Type 1, BuildingBlock: ESEHIV_clean_sbu_0, # of connection points: 4
#     Node 48, Type 1, BuildingBlock: ESEHIV_clean_sbu_0, # of connection points: 4
#     Node 49, Type 1, BuildingBlock: ESEHIV_clean_sbu_0, # of connection points: 4
#     Node 50, Type 1, BuildingBlock: ESEHIV_clean_sbu_0, # of connection points: 4
#     Node 51, Type 1, BuildingBlock: ESEHIV_clean_sbu_0, # of connection points: 4
#     Node 52, Type 1, BuildingBlock: ESEHIV_clean_sbu_0, # of connection points: 4
#     Node 53, Type 1, BuildingBlock: ESEHIV_clean_sbu_0, # of connection points: 4
#     Node 54, Type 1, BuildingBlock: ESEHIV_clean_sbu_0, # of connection points: 4
#     Node 55, Type 1, BuildingBlock: ESEHIV_clean_sbu_0, # of connection points: 4
#     Edge 56, Type (0, 1), BuildingBlock: OJICUG_clean_linker_0, # of connection points: 2
#     Edge 57, Type (0, 1), BuildingBlock: OJICUG_clean_linker_0, # of connection points: 2
#     Edge 58, Type (0, 1), BuildingBlock: OJICUG_clean_linker_0, # of connection points: 2
#     Edge 59, Type (0, 1), BuildingBlock: OJICUG_clean_linker_0, # of connection points: 2
#     Edge 60, Type (0, 1), BuildingBlock: OJICUG_clean_linker_0, # of connection points: 2
#     Edge 61, Type (0, 1), BuildingBlock: OJICUG_clean_linker_0, # of connection points: 2
#     Edge 62, Type (0, 1), BuildingBlock: OJICUG_clean_linker_0, # of connection points: 2
#     Edge 63, Type (0, 1), BuildingBlock: OJICUG_clean_linker_0, # of connection points: 2
#     Edge 64, Type (0, 1), BuildingBlock: OJICUG_clean_linker_0, # of connection points: 2
#     Edge 65, Type (0, 1), BuildingBlock: OJICUG_clean_linker_0, # of connection points: 2
#     Edge 66, Type (0, 1), BuildingBlock: OJICUG_clean_linker_0, # of connection points: 2
#     Edge 67, Type (0, 1), BuildingBlock: OJICUG_clean_linker_0, # of connection points: 2
#     Edge 68, Type (0, 1), BuildingBlock: OJICUG_clean_linker_0, # of connection points: 2
#     Edge 69, Type (0, 1), BuildingBlock: OJICUG_clean_linker_0, # of connection points: 2
#     Edge 70, Type (0, 1), BuildingBlock: OJICUG_clean_linker_0, # of connection points: 2
#     Edge 71, Type (0, 1), BuildingBlock: OJICUG_clean_linker_0, # of connection points: 2
#     Edge 72, Type (0, 1), BuildingBlock: OJICUG_clean_linker_0, # of connection points: 2
#     Edge 73, Type (0, 1), BuildingBlock: OJICUG_clean_linker_0, # of connection points: 2
#     Edge 74, Type (0, 1), BuildingBlock: OJICUG_clean_linker_0, # of connection points: 2
#     Edge 75, Type (0, 1), BuildingBlock: OJICUG_clean_linker_0, # of connection points: 2
#     Edge 76, Type (0, 1), BuildingBlock: OJICUG_clean_linker_0, # of connection points: 2
#     Edge 77, Type (0, 1), BuildingBlock: OJICUG_clean_linker_0, # of connection points: 2
#     Edge 78, Type (0, 1), BuildingBlock: OJICUG_clean_linker_0, # of connection points: 2
#     Edge 79, Type (0, 1), BuildingBlock: OJICUG_clean_linker_0, # of connection points: 2
#     Edge 80, Type (0, 1), BuildingBlock: OJICUG_clean_linker_0, # of connection points: 2
#     Edge 81, Type (0, 1), BuildingBlock: OJICUG_clean_linker_0, # of connection points: 2
#     Edge 82, Type (0, 1), BuildingBlock: OJICUG_clean_linker_0, # of connection points: 2
#     Edge 83, Type (0, 1), BuildingBlock: OJICUG_clean_linker_0, # of connection points: 2
#     Edge 84, Type (0, 1), BuildingBlock: OJICUG_clean_linker_0, # of connection points: 2
#     Edge 85, Type (0, 1), BuildingBlock: OJICUG_clean_linker_0, # of connection points: 2
#     Edge 86, Type (0, 1), BuildingBlock: OJICUG_clean_linker_0, # of connection points: 2
#     Edge 87, Type (0, 1), BuildingBlock: OJICUG_clean_linker_0, # of connection points: 2
#     Edge 88, Type (0, 1), BuildingBlock: OJICUG_clean_linker_0, # of connection points: 2
#     Edge 89, Type (0, 1), BuildingBlock: OJICUG_clean_linker_0, # of connection points: 2
#     Edge 90, Type (0, 1), BuildingBlock: OJICUG_clean_linker_0, # of connection points: 2
#     Edge 91, Type (0, 1), BuildingBlock: OJICUG_clean_linker_0, # of connection points: 2
#     Edge 92, Type (0, 1), BuildingBlock: OJICUG_clean_linker_0, # of connection points: 2
#     Edge 93, Type (0, 1), BuildingBlock: OJICUG_clean_linker_0, # of connection points: 2
#     Edge 94, Type (0, 1), BuildingBlock: OJICUG_clean_linker_0, # of connection points: 2
#     Edge 95, Type (0, 1), BuildingBlock: OJICUG_clean_linker_0, # of connection points: 2
#     Edge 96, Type (0, 1), BuildingBlock: OJICUG_clean_linker_0, # of connection points: 2
#     Edge 97, Type (0, 1), BuildingBlock: OJICUG_clean_linker_0, # of connection points: 2
#     Edge 98, Type (0, 1), BuildingBlock: OJICUG_clean_linker_0, # of connection points: 2
#     Edge 99, Type (0, 1), BuildingBlock: OJICUG_clean_linker_0, # of connection points: 2
#     Edge 100, Type (0, 1), BuildingBlock: OJICUG_clean_linker_0, # of connection points: 2
#     Edge 101, Type (0, 1), BuildingBlock: OJICUG_clean_linker_0, # of connection points: 2
#     Edge 102, Type (0, 1), BuildingBlock: OJICUG_clean_linker_0, # of connection points: 2
#     Edge 103, Type (0, 1), BuildingBlock: OJICUG_clean_linker_0, # of connection points: 2
#     Edge 104, Type (0, 1), BuildingBlock: OJICUG_clean_linker_0, # of connection points: 2
#     Edge 105, Type (0, 1), BuildingBlock: OJICUG_clean_linker_0, # of connection points: 2
#     Edge 106, Type (0, 1), BuildingBlock: OJICUG_clean_linker_0, # of connection points: 2
#     Edge 107, Type (0, 1), BuildingBlock: OJICUG_clean_linker_0, # of connection points: 2
#     Edge 108, Type (0, 1), BuildingBlock: OJICUG_clean_linker_0, # of connection points: 2
#     Edge 109, Type (0, 1), BuildingBlock: OJICUG_clean_linker_0, # of connection points: 2
#     Edge 110, Type (0, 1), BuildingBlock: OJICUG_clean_linker_0, # of connection points: 2
#     Edge 111, Type (0, 1), BuildingBlock: OJICUG_clean_linker_0, # of connection points: 2
#     Edge 112, Type (0, 1), BuildingBlock: OJICUG_clean_linker_0, # of connection points: 2
#     Edge 113, Type (0, 1), BuildingBlock: OJICUG_clean_linker_0, # of connection points: 2
#     Edge 114, Type (0, 1), BuildingBlock: OJICUG_clean_linker_0, # of connection points: 2
#     Edge 115, Type (0, 1), BuildingBlock: OJICUG_clean_linker_0, # of connection points: 2
#     Edge 116, Type (0, 1), BuildingBlock: OJICUG_clean_linker_0, # of connection points: 2
#     Edge 117, Type (0, 1), BuildingBlock: OJICUG_clean_linker_0, # of connection points: 2
#     Edge 118, Type (0, 1), BuildingBlock: OJICUG_clean_linker_0, # of connection points: 2
#     Edge 119, Type (0, 1), BuildingBlock: OJICUG_clean_linker_0, # of connection points: 2
#     Edge 120, Type (0, 1), BuildingBlock: OJICUG_clean_linker_0, # of connection points: 2
#     Edge 121, Type (0, 1), BuildingBlock: OJICUG_clean_linker_0, # of connection points: 2
#     Edge 122, Type (0, 1), BuildingBlock: OJICUG_clean_linker_0, # of connection points: 2
#     Edge 123, Type (0, 1), BuildingBlock: OJICUG_clean_linker_0, # of connection points: 2
#     Edge 124, Type (0, 1), BuildingBlock: OJICUG_clean_linker_0, # of connection points: 2
#     Edge 125, Type (0, 1), BuildingBlock: OJICUG_clean_linker_0, # of connection points: 2
#     Edge 126, Type (0, 1), BuildingBlock: OJICUG_clean_linker_0, # of connection points: 2
#     Edge 127, Type (0, 1), BuildingBlock: OJICUG_clean_linker_0, # of connection points: 2
#     Edge 128, Type (0, 1), BuildingBlock: OJICUG_clean_linker_0, # of connection points: 2
#     Edge 129, Type (0, 1), BuildingBlock: OJICUG_clean_linker_0, # of connection points: 2
#     Edge 130, Type (0, 1), BuildingBlock: OJICUG_clean_linker_0, # of connection points: 2
#     Edge 131, Type (0, 1), BuildingBlock: OJICUG_clean_linker_0, # of connection points: 2
#     Edge 132, Type (0, 1), BuildingBlock: OJICUG_clean_linker_0, # of connection points: 2
#     Edge 133, Type (0, 1), BuildingBlock: OJICUG_clean_linker_0, # of connection points: 2
#     Edge 134, Type (0, 1), BuildingBlock: OJICUG_clean_linker_0, # of connection points: 2
#     Edge 135, Type (0, 1), BuildingBlock: OJICUG_clean_linker_0, # of connection points: 2
#     Edge 136, Type (0, 1), BuildingBlock: OJICUG_clean_linker_0, # of connection points: 2
#     Edge 137, Type (0, 1), BuildingBlock: OJICUG_clean_linker_0, # of connection points: 2
#     Edge 138, Type (0, 1), BuildingBlock: OJICUG_clean_linker_0, # of connection points: 2
#     Edge 139, Type (0, 1), BuildingBlock: OJICUG_clean_linker_0, # of connection points: 2
#     Edge 140, Type (0, 1), BuildingBlock: OJICUG_clean_linker_0, # of connection points: 2
#     Edge 141, Type (0, 1), BuildingBlock: OJICUG_clean_linker_0, # of connection points: 2
#     Edge 142, Type (0, 1), BuildingBlock: OJICUG_clean_linker_0, # of connection points: 2
#     Edge 143, Type (0, 1), BuildingBlock: OJICUG_clean_linker_0, # of connection points: 2
#     Edge 144, Type (0, 1), BuildingBlock: OJICUG_clean_linker_0, # of connection points: 2
#     Edge 145, Type (0, 1), BuildingBlock: OJICUG_clean_linker_0, # of connection points: 2
#     Edge 146, Type (0, 1), BuildingBlock: OJICUG_clean_linker_0, # of connection points: 2
#     Edge 147, Type (0, 1), BuildingBlock: OJICUG_clean_linker_0, # of connection points: 2
#     Edge 148, Type (0, 1), BuildingBlock: OJICUG_clean_linker_0, # of connection points: 2
#     Edge 149, Type (0, 1), BuildingBlock: OJICUG_clean_linker_0, # of connection points: 2
#     Edge 150, Type (0, 1), BuildingBlock: OJICUG_clean_linker_0, # of connection points: 2
#     Edge 151, Type (0, 1), BuildingBlock: OJICUG_clean_linker_0, # of connection points: 2
# Relax obj value: 0.026
# Max RMSD: 0.198
# Mean RMSD: 0.108
data_MOF--net-tbo--node1-OLANEW_clean_sbu_2--node2-ESEHIV_clean_sbu_0--edge1-OJICUG_clean_linker_0
_symmetry_space_group_name_H-M    P1
_symmetry_Int_Tables_number       1
_symmetry_cell_setting            triclinic
loop_
_symmetry_equiv_pos_as_xyz
'x, y, z'
_cell_length_a     59.375041
_cell_length_b     60.872698
_cell_length_c     58.001904
_cell_angle_alpha  95.857403
_cell_angle_beta   91.408128
_cell_angle_gamma 97.338517
loop_
_atom_site_label
_atom_site_type_symbol
_atom_site_fract_x
_atom_site_fract_y
_atom_site_fract_z
_atom_type_partial_charge
O0 O 0.20877 0.17433 0.19549 0.0
Cd1 Cd 0.1996 0.15363 0.22903 0.0
O2 O 0.1793 0.19336 0.19558 0.0
Cd3 Cd 0.16011 0.18581 0.22639 0.0
O4 O 0.13342 0.19719 0.24879 0.0
C5 C 0.11421 0.18564 0.25055 0.0
O6 O 0.11038 0.16543 0.23968 0.0
C7 C 0.19748 0.18804 0.18659 0.0
C8 C 0.22403 0.11729 0.23292 0.0
O9 O 0.20554 0.11519 0.22055 0.0
O10 O 0.23132 0.13666 0.24313 0.0
O11 O 0.90139 0.24671 0.18051 0.0
Cd12 Cd 0.87054 0.2338 0.151 0.0
O13 O 0.89236 0.21529 0.19607 0.0
Cd14 Cd 0.86424 0.19588 0.175 0.0
O15 O 0.84289 0.16391 0.17714 0.0
C16 C 0.84982 0.15221 0.19218 0.0
O17 O 0.86867 0.15988 0.20432 0.0
C18 C 0.90464 0.23406 0.19615 0.0
C19 C 0.86503 0.25677 0.11194 0.0
O20 O 0.85579 0.26223 0.13108 0.0
O21 O 0.87779 0.24127 0.11161 0.0
O22 O 0.86377 0.81501 0.17449 0.0
Cd23 Cd 0.88313 0.8378 0.20842 0.0
O24 O 0.84358 0.84226 0.16977 0.0
Cd25 Cd 0.85782 0.86765 0.19736 0.0
O26 O 0.8528 0.90026 0.21453 0.0
C27 C 0.83714 0.90915 0.20515 0.0
O28 O 0.8261 0.89844 0.18659 0.0
C29 C 0.84824 0.82275 0.16354 0.0
C30 C 0.92087 0.82175 0.2272 0.0
O31 O 0.90068 0.8148 0.23289 0.0
O32 O 0.92321 0.83595 0.21228 0.0
O33 O 0.20759 0.88043 0.19363 0.0
Cd34 Cd 0.19728 0.84658 0.16696 0.0
O35 O 0.18026 0.87158 0.21732 0.0
Cd36 Cd 0.16765 0.83859 0.19993 0.0
O37 O 0.14521 0.80744 0.2015 0.0
C38 C 0.12627 0.80359 0.19019 0.0
O39 O 0.12122 0.81775 0.17583 0.0
C40 C 0.19679 0.8852 0.21176 0.0
C41 C 0.22819 0.84045 0.13192 0.0
O42 O 0.21235 0.85264 0.12969 0.0
O43 O 0.22964 0.83143 0.15084 0.0
O44 O 0.20204 0.86562 0.85893 0.0
Cd45 Cd 0.18166 0.82999 0.86843 0.0
O46 O 0.17687 0.87494 0.83414 0.0
Cd47 Cd 0.14928 0.8474 0.83357 0.0
O48 O 0.11666 0.82793 0.82163 0.0
C49 C 0.10554 0.83344 0.80453 0.0
O50 O 0.11395 0.8508 0.79429 0.0
C51 C 0.19603 0.87901 0.84514 0.0
C52 C 0.20752 0.8095 0.89929 0.0
O53 O 0.21048 0.80739 0.8774 0.0
O54 O 0.19218 0.82117 0.90675 0.0
O55 O 0.23917 0.16543 0.92071 0.0
Cd56 Cd 0.22856 0.15609 0.87937 0.0
O57 O 0.20466 0.17196 0.93004 0.0
Cd58 Cd 0.18793 0.17027 0.89576 0.0
O59 O 0.16116 0.18498 0.87829 0.0
C60 C 0.15574 0.20264 0.88921 0.0
O61 O 0.16668 0.21043 0.90891 0.0
C62 C 0.22513 0.17044 0.93598 0.0
C63 C 0.24577 0.11824 0.85894 0.0
O64 O 0.25777 0.13744 0.861 0.0
O65 O 0.22569 0.11682 0.86679 0.0
O66 O 0.84611 0.20877 0.86549 0.0
Cd67 Cd 0.86058 0.18928 0.83084 0.0
O68 O 0.82146 0.17895 0.86538 0.0
Cd69 Cd 0.79469 0.15421 0.87595 0.0
O70 O 0.77458 0.12139 0.87378 0.0
C71 C 0.75896 0.11607 0.85809 0.0
O72 O 0.75421 0.13113 0.84466 0.0
C73 C 0.82931 0.19835 0.8747 0.0
C74 C 0.90719 0.19985 0.82517 0.0
O75 O 0.89272 0.21032 0.81556 0.0
O76 O 0.89963 0.18453 0.83767 0.0
O77 O 0.86964 0.83353 0.83025 0.0
Cd78 Cd 0.84453 0.85796 0.85037 0.0
O79 O 0.86264 0.8062 0.85248 0.0
Cd80 Cd 0.83826 0.81905 0.87667 0.0
O81 O 0.81808 0.81559 0.90784 0.0
C82 C 0.82781 0.80841 0.92482 0.0
O83 O 0.849 0.80454 0.92289 0.0
C84 C 0.87295 0.81438 0.83567 0.0
C85 C 0.82235 0.88575 0.82389 0.0
O86 O 0.8422 0.89242 0.83313 0.0
O87 O 0.81346 0.86586 0.8265 0.0
O88 O 0.20959 0.66413 0.65634 0.0
Cd89 Cd 0.19044 0.64297 0.68575 0.0
O90 O 0.18491 0.68677 0.6479 0.0
Cd91 Cd 0.15768 0.67772 0.67173 0.0
O92 O 0.12499 0.6805 0.68856 0.0
C93 C 0.11459 0.69645 0.68333 0.0
O94 O 0.1239 0.70972 0.6687 0.0
C95 C 0.20389 0.67942 0.6448 0.0
C96 C 0.21676 0.61144 0.70098 0.0
O97 O 0.20341 0.60677 0.68296 0.0
O98 O 0.21776 0.63099 0.71183 0.0
O99 O 0.88222 0.71167 0.62374 0.0
Cd100 Cd 0.84632 0.69103 0.60614 0.0
O101 O 0.86708 0.71684 0.65783 0.0
Cd102 Cd 0.83683 0.69244 0.6497 0.0
O103 O 0.81818 0.66136 0.65915 0.0
C104 C 0.82175 0.65759 0.68001 0.0
O105 O 0.83514 0.67254 0.6937 0.0
C106 C 0.88375 0.72039 0.64474 0.0
C107 C 0.8279 0.71053 0.56938 0.0
O108 O 0.82425 0.7169 0.59056 0.0
O109 O 0.84039 0.69497 0.56545 0.0
O110 O 0.89145 0.33882 0.69448 0.0
Cd111 Cd 0.90489 0.36597 0.72772 0.0
O112 O 0.85976 0.35361 0.69087 0.0
Cd113 Cd 0.86745 0.38152 0.71817 0.0
O114 O 0.8625 0.412 0.74009 0.0
C115 C 0.86608 0.43072 0.73197 0.0
O116 O 0.87396 0.43141 0.71104 0.0
C117 C 0.87221 0.33877 0.68431 0.0
C118 C 0.93877 0.35174 0.75469 0.0
O119 O 0.91767 0.34598 0.75803 0.0
O120 O 0.94386 0.36425 0.73859 0.0
O121 O 0.16797 0.40195 0.71952 0.0
Cd122 Cd 0.15498 0.36849 0.6936 0.0
O123 O 0.18717 0.38366 0.74229 0.0
Cd124 Cd 0.16916 0.35112 0.7287 0.0
O125 O 0.14466 0.3216 0.7316 0.0
C126 C 0.12507 0.31914 0.72162 0.0
O127 O 0.12016 0.33385 0.70785 0.0
C128 C 0.18203 0.40202 0.73641 0.0
C129 C 0.18893 0.36288 0.66188 0.0
O130 O 0.17321 0.3748 0.65804 0.0
O131 O 0.18828 0.35312 0.68046 0.0
O132 O 0.2248 0.37833 0.38246 0.0
Cd133 Cd 0.19511 0.34897 0.39204 0.0
O134 O 0.20137 0.4018 0.37351 0.0
Cd135 Cd 0.17012 0.37827 0.37352 0.0
O136 O 0.13732 0.35724 0.36586 0.0
C137 C 0.12485 0.35926 0.3482 0.0
O138 O 0.13175 0.37433 0.33435 0.0
C139 C 0.22151 0.39732 0.37667 0.0
C140 C 0.20506 0.33323 0.43449 0.0
O141 O 0.21217 0.32451 0.41543 0.0
O142 O 0.19316 0.34928 0.43348 0.0
O143 O 0.21474 0.62473 0.39615 0.0
Cd144 Cd 0.19155 0.6073 0.3616 0.0
O145 O 0.19219 0.65033 0.40447 0.0
Cd146 Cd 0.16811 0.6434 0.37462 0.0
O147 O 0.14118 0.65573 0.35489 0.0
C148 C 0.13397 0.67294 0.36485 0.0
O149 O 0.14281 0.68124 0.38538 0.0
C150 C 0.20964 0.64128 0.40933 0.0
C151 C 0.21323 0.576 0.33444 0.0
O152 O 0.21605 0.59671 0.33131 0.0
O153 O 0.20002 0.56993 0.35042 0.0
O154 O 0.84937 0.73908 0.30081 0.0
Cd155 Cd 0.85425 0.71844 0.26304 0.0
O156 O 0.85923 0.70952 0.31447 0.0
Cd157 Cd 0.86233 0.68419 0.33797 0.0
O158 O 0.85403 0.64856 0.34088 0.0
C159 C 0.85494 0.63526 0.32261 0.0
O160 O 0.86207 0.64344 0.30358 0.0
C161 C 0.85289 0.7287 0.3182 0.0
C162 C 0.89843 0.70793 0.25899 0.0
O163 O 0.89238 0.72504 0.25055 0.0
O164 O 0.88351 0.6956 0.26916 0.0
O165 O 0.86604 0.33765 0.37607 0.0
Cd166 Cd 0.83009 0.3507 0.38842 0.0
O167 O 0.86415 0.31345 0.40205 0.0
Cd168 Cd 0.83402 0.32102 0.42116 0.0
O169 O 0.81206 0.31399 0.45036 0.0
C170 C 0.81493 0.32601 0.46975 0.0
O171 O 0.83013 0.34385 0.47162 0.0
C172 C 0.87409 0.322 0.38522 0.0
C173 C 0.81853 0.38981 0.37185 0.0
O174 O 0.82874 0.39035 0.39168 0.0
O175 O 0.8144 0.37094 0.35951 0.0
O176 O 0.73049 0.15924 0.68236 0.0
Cd177 Cd 0.71458 0.13792 0.71342 0.0
O178 O 0.7041 0.18149 0.67912 0.0
Cd179 Cd 0.68031 0.17118 0.70569 0.0
O180 O 0.64905 0.17533 0.72455 0.0
C181 C 0.63798 0.19031 0.71799 0.0
O182 O 0.64592 0.20152 0.70107 0.0
C183 C 0.72268 0.1748 0.67276 0.0
C184 C 0.73886 0.10338 0.7252 0.0
O185 O 0.7236 0.10011 0.70875 0.0
O186 O 0.7431 0.12308 0.7358 0.0
O187 O 0.3864 0.21625 0.68558 0.0
Cd188 Cd 0.34848 0.19836 0.67087 0.0
O189 O 0.40024 0.1842 0.68245 0.0
Cd190 Cd 0.36771 0.16255 0.6784 0.0
O191 O 0.34448 0.13417 0.6879 0.0
C192 C 0.35231 0.12236 0.7023 0.0
O193 O 0.37341 0.12776 0.71029 0.0
C194 C 0.40327 0.20533 0.68654 0.0
C195 C 0.32921 0.2224 0.63847 0.0
O196 O 0.32359 0.22424 0.6597 0.0
O197 O 0.34375 0.20922 0.63258 0.0
O198 O 0.37726 0.80993 0.67741 0.0
Cd199 Cd 0.3902 0.83362 0.71347 0.0
O200 O 0.36824 0.83765 0.65882 0.0
Cd201 Cd 0.3714 0.86308 0.68885 0.0
O202 O 0.36189 0.8911 0.71198 0.0
C203 C 0.34229 0.89679 0.70847 0.0
O204 O 0.32903 0.88563 0.69162 0.0
C205 C 0.37039 0.81713 0.65898 0.0
C206 C 0.43229 0.82564 0.73191 0.0
O207 O 0.41366 0.81426 0.73678 0.0
O208 O 0.43112 0.84066 0.71812 0.0
O209 O 0.68138 0.87276 0.63564 0.0
Cd210 Cd 0.67317 0.84255 0.60437 0.0
O211 O 0.69179 0.85084 0.66078 0.0
Cd212 Cd 0.67469 0.81953 0.64299 0.0
O213 O 0.65128 0.79754 0.66175 0.0
C214 C 0.6592 0.79526 0.68181 0.0
O215 O 0.68024 0.80403 0.68751 0.0
C216 C 0.68999 0.87026 0.65533 0.0
C217 C 0.70956 0.8408 0.57467 0.0
O218 O 0.69414 0.85319 0.57134 0.0
O219 O 0.7078 0.82932 0.59204 0.0
O220 O 0.69582 0.88746 0.33352 0.0
Cd221 Cd 0.67305 0.85269 0.34229 0.0
O222 O 0.67005 0.8981 0.31051 0.0
Cd223 Cd 0.64231 0.8717 0.31452 0.0
O224 O 0.60825 0.85295 0.31363 0.0
C225 C 0.59475 0.85257 0.29616 0.0
O226 O 0.60172 0.86317 0.27848 0.0
C227 C 0.68985 0.90122 0.32014 0.0
C228 C 0.69858 0.82679 0.36754 0.0
O229 O 0.69914 0.82588 0.34539 0.0
O230 O 0.68581 0.83981 0.37789 0.0
O231 O 0.74042 0.17825 0.40133 0.0
Cd232 Cd 0.72481 0.17398 0.36153 0.0
O233 O 0.70959 0.18851 0.41717 0.0
Cd234 Cd 0.69046 0.18857 0.38414 0.0
O235 O 0.66911 0.19799 0.35609 0.0
C236 C 0.64771 0.19218 0.35474 0.0
O237 O 0.63841 0.17951 0.3699 0.0
C238 C 0.72987 0.18403 0.4193 0.0
C239 C 0.74094 0.13814 0.33626 0.0
O240 O 0.75258 0.15752 0.33879 0.0
O241 O 0.72147 0.13573 0.34542 0.0
O242 O 0.36122 0.24008 0.41639 0.0
Cd243 Cd 0.37062 0.21409 0.38446 0.0
O244 O 0.35233 0.21413 0.43964 0.0
Cd245 Cd 0.35139 0.18565 0.41326 0.0
O246 O 0.3381 0.15356 0.39404 0.0
C247 C 0.32061 0.1426 0.40156 0.0
O248 O 0.31152 0.15091 0.4204 0.0
C249 C 0.3557 0.2346 0.43624 0.0
C250 C 0.41487 0.22839 0.3725 0.0
O251 O 0.3978 0.23474 0.36231 0.0
O252 O 0.41095 0.21484 0.38789 0.0
O253 O 0.36274 0.8549 0.35522 0.0
Cd254 Cd 0.33632 0.88061 0.36993 0.0
O255 O 0.35334 0.82876 0.37849 0.0
Cd256 Cd 0.32895 0.84161 0.40259 0.0
O257 O 0.31391 0.83456 0.43591 0.0
C258 C 0.29855 0.818 0.43645 0.0
O259 O 0.29071 0.80668 0.41676 0.0
C260 C 0.36487 0.83594 0.36192 0.0
C261 C 0.33376 0.91811 0.34559 0.0
O262 O 0.34771 0.91889 0.36298 0.0
O263 O 0.32146 0.89948 0.33928 0.0
O264 O 0.69644 0.67418 0.19043 0.0
Cd265 Cd 0.68234 0.66251 0.22758 0.0
O266 O 0.66654 0.69143 0.1853 0.0
Cd267 Cd 0.64748 0.68331 0.21587 0.0
O268 O 0.61765 0.68811 0.23652 0.0
C269 C 0.60884 0.70545 0.23279 0.0
O270 O 0.6185 0.71841 0.21805 0.0
C271 C 0.68551 0.68606 0.17849 0.0
C272 C 0.6989 0.62586 0.24473 0.0
O273 O 0.68043 0.62341 0.23229 0.0
O274 O 0.70995 0.64548 0.24847 0.0
O275 O 0.36084 0.70154 0.16943 0.0
Cd276 Cd 0.33013 0.67491 0.14937 0.0
O277 O 0.38178 0.6773 0.18211 0.0
Cd278 Cd 0.36074 0.64497 0.17517 0.0
O279 O 0.35713 0.61329 0.19072 0.0
C280 C 0.34011 0.60768 0.2027 0.0
O281 O 0.32373 0.62031 0.20428 0.0
C282 C 0.37876 0.69728 0.17966 0.0
C283 C 0.31487 0.68931 0.10785 0.0
O284 O 0.30631 0.69516 0.12725 0.0
O285 O 0.33055 0.67667 0.10807 0.0
O286 O 0.37757 0.27564 0.17965 0.0
Cd287 Cd 0.39659 0.29249 0.21644 0.0
O288 O 0.35965 0.30407 0.17207 0.0
Cd289 Cd 0.36573 0.32848 0.2028 0.0
O290 O 0.35789 0.35874 0.22358 0.0
C291 C 0.33952 0.36665 0.21935 0.0
O292 O 0.3254 0.35628 0.20278 0.0
C293 C 0.36491 0.28465 0.16637 0.0
C294 C 0.43555 0.27361 0.22849 0.0
O295 O 0.41572 0.26539 0.23411 0.0
O296 O 0.43697 0.29052 0.21686 0.0
O297 O 0.74449 0.3849 0.20468 0.0
Cd298 Cd 0.72025 0.34959 0.19283 0.0
O299 O 0.71715 0.40505 0.19859 0.0
Cd300 Cd 0.69078 0.37637 0.19398 0.0
O301 O 0.66392 0.35667 0.21091 0.0
C302 C 0.66525 0.35974 0.23294 0.0
O303 O 0.6823 0.37354 0.24305 0.0
C304 C 0.73776 0.40388 0.20425 0.0
C305 C 0.72686 0.33217 0.14742 0.0
O306 O 0.7116 0.34497 0.15179 0.0
O307 O 0.73901 0.32773 0.16449 0.0
O308 O 0.72163 0.40517 0.84909 0.0
Cd309 Cd 0.70872 0.37376 0.87131 0.0
O310 O 0.68941 0.40171 0.82835 0.0
Cd311 Cd 0.66968 0.3729 0.84082 0.0
O312 O 0.63923 0.34835 0.8352 0.0
C313 C 0.62625 0.34936 0.81764 0.0
O314 O 0.6317 0.36492 0.80389 0.0
C315 C 0.70934 0.41168 0.83345 0.0
C316 C 0.73732 0.36525 0.90797 0.0
O317 O 0.73912 0.35627 0.88723 0.0
O318 O 0.7226 0.37883 0.91126 0.0
O319 O 0.75967 0.68356 0.91522 0.0
Cd320 Cd 0.75197 0.68233 0.87355 0.0
O321 O 0.72399 0.68406 0.92495 0.0
Cd322 Cd 0.70865 0.68994 0.89157 0.0
O323 O 0.68365 0.70382 0.87035 0.0
C324 C 0.67821 0.7228 0.8777 0.0
O325 O 0.68825 0.73328 0.89689 0.0
C326 C 0.7447 0.68311 0.93053 0.0
C327 C 0.75926 0.64138 0.85032 0.0
O328 O 0.77557 0.6574 0.85408 0.0
O329 O 0.73963 0.64473 0.85758 0.0
O330 O 0.38961 0.71305 0.8734 0.0
Cd331 Cd 0.39955 0.68839 0.83995 0.0
O332 O 0.36826 0.68282 0.88034 0.0
Cd333 Cd 0.34481 0.65817 0.89579 0.0
O334 O 0.32733 0.62409 0.89136 0.0
C335 C 0.30951 0.61988 0.87825 0.0
O336 O 0.30121 0.6365 0.86973 0.0
C337 C 0.37504 0.7034 0.886 0.0
C338 C 0.44315 0.69831 0.82374 0.0
O339 O 0.42623 0.7064 0.81529 0.0
O340 O 0.43951 0.68582 0.84012 0.0
O341 O 0.38899 0.3343 0.84871 0.0
Cd342 Cd 0.35953 0.35652 0.86367 0.0
O343 O 0.38039 0.30774 0.87148 0.0
Cd344 Cd 0.35192 0.31957 0.89021 0.0
O345 O 0.32742 0.31307 0.91723 0.0
C346 C 0.32801 0.32556 0.93626 0.0
O347 O 0.34277 0.34372 0.93922 0.0
C348 C 0.3926 0.3159 0.85589 0.0
C349 C 0.35122 0.39264 0.83938 0.0
O350 O 0.36708 0.39477 0.85516 0.0
O351 O 0.33969 0.37334 0.83462 0.0
Cu352 Cu 0.27361 0.24633 0.05755 0.0
N353 N 0.27265 0.27141 0.0417 0.0
N354 N 0.28116 0.29463 0.01474 0.0
C355 C 0.27963 0.27338 0.02 0.0
C356 C 0.27479 0.30644 0.03391 0.0
C357 C 0.26968 0.2921 0.05053 0.0
O358 O 0.26995 0.22064 0.03412 0.0
C359 C 0.31093 0.23947 0.08802 0.0
O360 O 0.30124 0.21893 0.08877 0.0
H361 H 0.28513 0.25978 0.00898 0.0
H362 H 0.26547 0.29669 0.06826 0.0
N363 N 0.25062 0.24414 0.07914 0.0
N364 N 0.22954 0.23275 0.10827 0.0
C365 C 0.24765 0.22959 0.0952 0.0
C366 C 0.23376 0.25684 0.08202 0.0
C367 C 0.22081 0.24994 0.09995 0.0
C368 C 0.24981 0.21179 0.02793 0.0
O369 O 0.23274 0.21875 0.03925 0.0
H370 H 0.25835 0.21674 0.09697 0.0
H371 H 0.23098 0.27018 0.07177 0.0
O372 O 0.30251 0.25186 0.07466 0.0
H373 H 0.27473 0.3243 0.03614 0.0
H374 H 0.2063 0.25733 0.10649 0.0
Cu375 Cu 0.78913 0.29173 0.00432 0.0
N376 N 0.76371 0.29237 0.02242 0.0
N377 N 0.74366 0.29926 0.05381 0.0
C378 C 0.76452 0.29817 0.04545 0.0
C379 C 0.72909 0.29387 0.03525 0.0
C380 C 0.74154 0.28955 0.01587 0.0
O381 O 0.81494 0.29529 0.02666 0.0
C382 C 0.77861 0.33125 0.98604 0.0
O383 O 0.77104 0.33637 0.00673 0.0
H384 H 0.78024 0.30251 0.05569 0.0
H385 H 0.73501 0.28533 0.99818 0.0
N386 N 0.78719 0.26433 0.98633 0.0
N387 N 0.7931 0.23888 0.95733 0.0
C388 C 0.79833 0.26018 0.96676 0.0
C389 C 0.77433 0.24507 0.98937 0.0
C390 C 0.77791 0.2293 0.97145 0.0
C391 C 0.83025 0.28237 0.02632 0.0
O392 O 0.83186 0.2685 0.00775 0.0
H393 H 0.80989 0.27266 0.9595 0.0
H394 H 0.76312 0.2427 0.00359 0.0
O395 O 0.78891 0.31416 0.98254 0.0
H396 H 0.71082 0.29336 0.0356 0.0
H397 H 0.77019 0.21209 0.96916 0.0
Cu398 Cu 0.77236 0.74085 0.05474 0.0
N399 N 0.7701 0.76254 0.03442 0.0
N400 N 0.77952 0.78225 0.00473 0.0
C401 C 0.78492 0.76629 0.01764 0.0
C402 C 0.76039 0.78878 0.01377 0.0
C403 C 0.75464 0.77662 0.03215 0.0
O404 O 0.77959 0.71561 0.0342 0.0
C405 C 0.79102 0.77098 0.08978 0.0
O406 O 0.77173 0.77822 0.08482 0.0
H407 H 0.79916 0.75703 0.01469 0.0
H408 H 0.74024 0.77796 0.04302 0.0
N409 N 0.74515 0.73355 0.06959 0.0
N410 N 0.72109 0.72077 0.09579 0.0
C411 C 0.74308 0.72544 0.09034 0.0
C412 C 0.72379 0.734 0.06157 0.0
C413 C 0.70894 0.72619 0.07768 0.0
C414 C 0.76479 0.69877 0.02839 0.0
O415 O 0.74813 0.69418 0.04231 0.0
H416 H 0.75748 0.72305 0.10117 0.0
H417 H 0.71933 0.73911 0.04492 0.0
O418 O 0.79565 0.75322 0.07835 0.0
H419 H 0.75131 0.80154 0.00771 0.0
H420 H 0.69059 0.72415 0.07586 0.0
Cu421 Cu 0.28909 0.7685 0.00457 0.0
N422 N 0.29083 0.79493 0.02414 0.0
N423 N 0.28151 0.81781 0.05396 0.0
C424 C 0.28189 0.79647 0.04523 0.0
C425 C 0.29068 0.83024 0.03771 0.0
C426 C 0.29648 0.81604 0.01931 0.0
O427 O 0.28376 0.74496 0.02514 0.0
C428 C 0.26975 0.7807 0.96432 0.0
O429 O 0.29071 0.79016 0.9627 0.0
H430 H 0.27421 0.78218 0.05324 0.0
H431 H 0.30311 0.82074 0.00306 0.0
N432 N 0.31639 0.76596 0.98968 0.0
N433 N 0.34065 0.75347 0.9641 0.0
C434 C 0.31872 0.75285 0.96997 0.0
C435 C 0.33753 0.77539 0.99653 0.0
C436 C 0.35255 0.76776 0.98075 0.0
C437 C 0.29395 0.72769 0.02388 0.0
O438 O 0.30559 0.72293 0.00551 0.0
H439 H 0.3045 0.74293 0.96028 0.0
H440 H 0.34174 0.78666 0.01213 0.0
O441 O 0.26482 0.7695 0.98138 0.0
H442 H 0.29224 0.84823 0.03867 0.0
H443 H 0.37084 0.77193 0.98186 0.0
Cu444 Cu 0.00304 0.27544 0.30558 0.0
N445 N 0.01645 0.24904 0.30443 0.0
N446 N 0.0407 0.22453 0.295 0.0
C447 C 0.03569 0.24542 0.29361 0.0
C448 C 0.02393 0.21466 0.30721 0.0
C449 C 0.00906 0.22981 0.31306 0.0
O450 O 0.02801 0.29979 0.31018 0.0
C451 C 0.96874 0.25776 0.27465 0.0
O452 O 0.96619 0.24491 0.29153 0.0
H453 H 0.04549 0.25774 0.28441 0.0
H454 H 0.99378 0.22689 0.32266 0.0
N455 N 0.98372 0.27789 0.33064 0.0
N456 N 0.955 0.28695 0.3526 0.0
C457 C 0.9651 0.28854 0.33203 0.0
C458 C 0.98551 0.26936 0.35099 0.0
C459 C 0.96794 0.27491 0.36452 0.0
C460 C 0.0411 0.29929 0.32784 0.0
O461 O 0.03637 0.28331 0.34125 0.0
H462 H 0.95892 0.29693 0.31805 0.0
H463 H -0.0013 0.25976 0.35571 0.0
O464 O 0.98468 0.27405 0.27689 0.0
H465 H 0.02252 0.19771 0.31167 0.0
H466 H 0.96515 0.27056 0.38195 0.0
Cu467 Cu 0.77712 0.02308 0.25669 0.0
N468 N 0.78452 0.04148 0.23142 0.0
N469 N 0.79896 0.06944 0.21177 0.0
C470 C 0.79948 0.06015 0.23197 0.0
C471 C 0.78314 0.05592 0.19804 0.0
C472 C 0.77427 0.03871 0.21022 0.0
O473 O 0.76387 0.04866 0.27439 0.0
C474 C 0.80882 0.99139 0.24628 0.0
O475 O 0.81983 0.00269 0.26456 0.0
H476 H 0.81003 0.06711 0.24707 0.0
H477 H 0.76103 0.02531 0.2042 0.0
N478 N 0.7692 0.00447 0.2816 0.0
N479 N 0.75194 0.97726 0.30051 0.0
C480 C 0.75242 0.98729 0.28074 0.0
C481 C 0.77976 0.00549 0.30252 0.0
C482 C 0.76915 0.98867 0.31424 0.0
C483 C 0.7767 0.06328 0.28756 0.0
O484 O 0.79843 0.06144 0.28974 0.0
H485 H 0.74116 0.98199 0.2657 0.0
H486 H 0.79423 0.01747 0.30869 0.0
O487 O 0.79032 -0.00264 0.23918 0.0
H488 H 0.77826 0.05825 0.18045 0.0
H489 H 0.77366 0.98526 0.3316 0.0
Cu490 Cu 0.03319 0.73705 0.26781 0.0
N491 N 0.02212 0.76441 0.272 0.0
N492 N -0.00132 0.78941 0.26615 0.0
C493 C 0.0008 0.76763 0.26623 0.0
C494 C 0.01952 0.80038 0.27233 0.0
C495 C 0.03396 0.78488 0.27595 0.0
O496 O 0.00728 0.71627 0.2552 0.0
C497 C 0.05372 0.74771 0.22698 0.0
O498 O 0.03273 0.7498 0.22074 0.0
H499 H 0.98755 0.75422 0.26036 0.0
H500 H 0.05209 0.7882 0.27968 0.0
N501 N 0.04451 0.72996 0.29602 0.0
N502 N 0.06553 0.71649 0.32241 0.0
C503 C 0.06109 0.71736 0.29956 0.0
C504 C 0.03822 0.73731 0.31723 0.0
C505 C 0.05109 0.72902 0.33354 0.0
C506 C 0.99411 0.70533 0.26817 0.0
O507 O 0.00113 0.70343 0.28943 0.0
H508 H 0.07008 0.70949 0.28567 0.0
H509 H 0.02522 0.74806 0.32055 0.0
O510 O 0.05744 0.74051 0.24635 0.0
H511 H 0.02421 0.81823 0.27321 0.0
H512 H 0.04982 0.73195 0.35215 0.0
Cu513 Cu 0.27193 0.01641 0.29493 0.0
N514 N 0.27125 0.03174 0.3243 0.0
N515 N 0.28013 0.05915 0.35296 0.0
C516 C 0.28195 0.05244 0.33026 0.0
C517 C 0.26751 0.04197 0.36154 0.0
C518 C 0.2621 0.02502 0.34379 0.0
O519 O 0.27366 0.03946 0.2736 0.0
C520 C 0.31104 -0.00155 0.311 0.0
O521 O 0.31454 0.01646 0.32581 0.0
H522 H 0.29113 0.06223 0.31811 0.0
H523 H 0.25267 0.0088 0.34509 0.0
N524 N 0.24549 -0.00336 0.28809 0.0
N525 N 0.22339 0.96691 0.27053 0.0
C526 C 0.24467 0.97775 0.27373 0.0
C527 C 0.22403 -0.00216 0.29448 0.0
C528 C 0.2103 0.9794 0.2837 0.0
C529 C 0.26056 0.03826 0.25563 0.0
O530 O 0.24898 0.01899 0.24785 0.0
H531 H 0.25948 0.97223 0.26563 0.0
H532 H 0.21871 0.01132 0.30578 0.0
O533 O 0.29597 -0.00276 0.29472 0.0
H534 H 0.26309 0.04139 0.37948 0.0
H535 H 0.19207 0.97583 0.28494 0.0
Cu536 Cu 0.98668 0.75827 0.74183 0.0
N537 N 0.00158 0.73313 0.73522 0.0
N538 N 0.0295 0.71391 0.72274 0.0
C539 C 0.02237 0.73414 0.72632 0.0
C540 C 0.01248 0.69955 0.72989 0.0
C541 C -0.00479 0.71147 0.73751 0.0
O542 O 0.01069 0.78247 0.75194 0.0
C543 C 0.96809 0.7522 0.69501 0.0
O544 O 0.9851 0.74099 0.68986 0.0
H545 H 0.03209 0.74957 0.72261 0.0
H546 H 0.97913 0.70478 0.744 0.0
N547 N 0.9666 0.75589 0.76608 0.0
N548 N 0.93955 0.7654 0.79006 0.0
C549 C 0.95141 0.77016 0.77118 0.0
C550 C 0.96436 0.74146 0.78219 0.0
C551 C 0.9477 0.74727 0.79699 0.0
C552 C 0.02186 0.77916 0.77006 0.0
O553 O 0.01556 0.76104 0.78003 0.0
H554 H 0.94922 0.78378 0.7611 0.0
H555 H 0.97441 0.72798 0.7834 0.0
O556 O 0.96763 0.76254 0.7152 0.0
H557 H 0.01226 0.68169 0.72917 0.0
H558 H 0.9425 0.73904 0.81203 0.0
Cu559 Cu 0.27907 0.00125 0.78 0.0
N560 N 0.2838 0.01985 0.75454 0.0
N561 N 0.29733 0.04659 0.73296 0.0
C562 C 0.30009 0.03708 0.75277 0.0
C563 C 0.27867 0.03471 0.72194 0.0
C564 C 0.27038 0.01825 0.73529 0.0
O565 O 0.26692 0.02665 0.79946 0.0
C566 C 0.31096 0.97099 0.76394 0.0
O567 O 0.3242 0.9829 0.78035 0.0
H568 H 0.31335 0.04277 0.76593 0.0
H569 H 0.25552 0.00604 0.73137 0.0
N570 N 0.27352 0.98231 0.80502 0.0
N571 N 0.25725 0.95536 0.82488 0.0
C572 C 0.25634 0.9657 0.80539 0.0
C573 C 0.28585 0.98266 0.82483 0.0
C574 C 0.27584 0.96598 0.83715 0.0
C575 C 0.2804 0.04198 0.81106 0.0
O576 O 0.30237 0.04102 0.81075 0.0
H577 H 0.24372 0.96106 0.79138 0.0
H578 H 0.30101 -0.00585 0.82989 0.0
O579 O 0.291 0.97579 0.76047 0.0
H580 H 0.27155 0.03755 0.70532 0.0
H581 H 0.28169 0.96214 0.85391 0.0
Cu582 Cu 0.03839 0.26176 0.8092 0.0
N583 N 0.02933 0.29003 0.81213 0.0
N584 N 0.00876 0.3167 0.80402 0.0
C585 C 0.009 0.29465 0.80468 0.0
C586 C 0.02975 0.32636 0.81156 0.0
C587 C 0.04242 0.30982 0.81659 0.0
O588 O 0.01057 0.24099 0.80455 0.0
C589 C 0.05298 0.26828 0.76436 0.0
O590 O 0.0322 0.27289 0.761 0.0
H591 H -0.00466 0.28196 0.7979 0.0
H592 H 0.0603 0.31192 0.82158 0.0
N593 N 0.05527 0.25755 0.83553 0.0
N594 N 0.08161 0.24612 0.85804 0.0
C595 C 0.07253 0.24525 0.83632 0.0
C596 C 0.05329 0.26655 0.85741 0.0
C597 C 0.06949 0.25952 0.87135 0.0
C598 C 0.00337 0.22787 0.81927 0.0
O599 O 0.01666 0.22549 0.83703 0.0
H600 H 0.07854 0.23622 0.82114 0.0
H601 H 0.04096 0.27748 0.86279 0.0
O602 O 0.05819 0.26087 0.78323 0.0
H603 H 0.03582 0.34396 0.81232 0.0
H604 H 0.07197 0.2638 0.88989 0.0
Cu605 Cu 0.752 0.98448 0.77189 0.0
N606 N 0.74126 -0.00316 0.79967 0.0
N607 N 0.73499 0.02408 0.82672 0.0
C608 C 0.73648 0.01786 0.80385 0.0
C609 C 0.73808 0.00585 0.83727 0.0
C610 C 0.74193 0.9891 0.82055 0.0
O611 O 0.76177 0.00878 0.75338 0.0
C612 C 0.76727 0.94628 0.78558 0.0
O613 O 0.74521 0.94097 0.78676 0.0
H614 H 0.73643 0.02911 0.79058 0.0
H615 H 0.74677 0.9731 0.82365 0.0
N616 N 0.72812 0.96759 0.75423 0.0
N617 N 0.70994 0.94329 0.72646 0.0
C618 C 0.72975 0.95012 0.73846 0.0
C619 C 0.7066 0.97207 0.75207 0.0
C620 C 0.6953 0.95705 0.73489 0.0
C621 C 0.77197 0.02786 0.76126 0.0
O622 O 0.78163 0.03046 0.78216 0.0
H623 H 0.74538 0.94309 0.73527 0.0
H624 H 0.69986 0.98571 0.76182 0.0
O625 O 0.77476 0.96519 0.77907 0.0
H626 H 0.73917 0.00513 0.85582 0.0
H627 H 0.67777 0.95637 0.72897 0.0
Cu628 Cu 0.28139 0.73348 0.53823 0.0
N629 N 0.31047 0.74201 0.55196 0.0
N630 N 0.33727 0.75954 0.5775 0.0
C631 C 0.31527 0.75069 0.57412 0.0
C632 C 0.34671 0.75631 0.55672 0.0
C633 C 0.33016 0.74533 0.54101 0.0
O634 O 0.25994 0.72711 0.56237 0.0
C635 C 0.28438 0.7762 0.52076 0.0
O636 O 0.29803 0.78343 0.53885 0.0
H637 H 0.30253 0.75215 0.58703 0.0
H638 H 0.33193 0.74145 0.52258 0.0
N639 N 0.2801 0.70768 0.51756 0.0
N640 N 0.26646 0.68221 0.48827 0.0
C641 C 0.26391 0.70172 0.50066 0.0
C642 C 0.29359 0.69149 0.5159 0.0
C643 C 0.28523 0.67574 0.4978 0.0
C644 C 0.26415 0.71187 0.57476 0.0
O645 O 0.28243 0.70221 0.57069 0.0
H646 H 0.25066 0.7118 0.49747 0.0
H647 H 0.30833 0.6911 0.52711 0.0
O648 O 0.27412 0.75636 0.51905 0.0
H649 H 0.36403 0.76239 0.55296 0.0
H650 H 0.29227 0.66058 0.49239 0.0
Cu651 Cu 0.78934 0.77927 0.45808 0.0
N652 N 0.8147 0.77801 0.43961 0.0
N653 N 0.83462 0.76721 0.40926 0.0
C654 C 0.8138 0.76787 0.41779 0.0
C655 C 0.84935 0.77713 0.42641 0.0
C656 C 0.83698 0.78386 0.44515 0.0
O657 O 0.76245 0.7783 0.43769 0.0
C658 C 0.80428 0.75976 0.4951 0.0
O659 O 0.81812 0.77852 0.49671 0.0
H660 H 0.79815 0.76052 0.40854 0.0
H661 H 0.84377 0.79201 0.46176 0.0
N662 N 0.78946 0.80561 0.47765 0.0
N663 N 0.77575 0.82694 0.50624 0.0
C664 C 0.77775 0.80606 0.49719 0.0
C665 C 0.79518 0.82708 0.47406 0.0
C666 C 0.78663 0.84034 0.49172 0.0
C667 C 0.76453 0.7918 0.42218 0.0
O668 O 0.78414 0.80408 0.42048 0.0
H669 H 0.7692 0.79121 0.50359 0.0
H670 H 0.80357 0.83264 0.45895 0.0
O671 O 0.7893 0.75561 0.47853 0.0
H672 H 0.86767 0.77936 0.42542 0.0
H673 H 0.78746 0.8583 0.4932 0.0
Cu674 Cu 0.78681 0.24309 0.56685 0.0
N675 N 0.78769 0.22047 0.54281 0.0
N676 N 0.77699 0.20117 0.50854 0.0
C677 C 0.77217 0.21689 0.52512 0.0
C678 C 0.79646 0.19453 0.51619 0.0
C679 C 0.80301 0.20646 0.53743 0.0
O680 O 0.77744 0.26709 0.55046 0.0
C681 C 0.77266 0.2156 0.59975 0.0
O682 O 0.79175 0.20831 0.59356 0.0
H683 H 0.75814 0.22652 0.524 0.0
H684 H 0.81813 0.20541 0.54784 0.0
N685 N 0.81506 0.25278 0.58196 0.0
N686 N 0.83949 0.27278 0.60847 0.0
C687 C 0.81759 0.2646 0.60297 0.0
C688 C 0.83615 0.25307 0.57392 0.0
C689 C 0.85131 0.26533 0.59033 0.0
C690 C 0.78774 0.28691 0.55245 0.0
O691 O 0.80108 0.29396 0.5708 0.0
H692 H 0.80337 0.26811 0.61343 0.0
H693 H 0.84009 0.24601 0.55686 0.0
O694 O 0.76625 0.23163 0.58981 0.0
H695 H 0.80549 0.18219 0.507 0.0
H696 H 0.86937 0.26963 0.58839 0.0
Cu697 Cu 0.27894 0.30711 0.548 0.0
N698 N 0.27503 0.3322 0.56796 0.0
N699 N 0.25795 0.35143 0.5957 0.0
C700 C 0.26307 0.33126 0.58731 0.0
C701 C 0.26737 0.36571 0.5812 0.0
C702 C 0.2779 0.35378 0.56407 0.0
O703 O 0.28124 0.28253 0.56671 0.0
C704 C 0.23794 0.31243 0.52321 0.0
O705 O 0.23333 0.32491 0.54187 0.0
H706 H 0.25633 0.31575 0.59371 0.0
H707 H 0.28534 0.36011 0.54886 0.0
N708 N 0.30549 0.31042 0.53159 0.0
N709 N 0.33055 0.29866 0.5067 0.0
C710 C 0.31321 0.29273 0.52026 0.0
C711 C 0.3184 0.3284 0.52506 0.0
C712 C 0.33392 0.32114 0.50957 0.0
C713 C 0.30033 0.283 0.57744 0.0
O714 O 0.31638 0.29964 0.57565 0.0
H715 H 0.30516 0.27581 0.52082 0.0
H716 H 0.31609 0.34549 0.53025 0.0
O717 O 0.25494 0.30164 0.52374 0.0
H718 H 0.26564 0.38326 0.58212 0.0
H719 H 0.34615 0.33156 0.50056 0.0
Cu720 Cu 0.78968 0.53138 0.7623 0.0
N721 N 0.78677 0.54557 0.73555 0.0
N722 N 0.79083 0.57295 0.71238 0.0
C723 C 0.79074 0.5677 0.73448 0.0
C724 C 0.78656 0.55322 0.69907 0.0
C725 C 0.78422 0.53639 0.7134 0.0
O726 O 0.78963 0.55399 0.78854 0.0
C727 C 0.82323 0.50397 0.77337 0.0
O728 O 0.81293 0.50243 0.79302 0.0
H729 H 0.79435 0.57959 0.7497 0.0
H730 H 0.78209 0.51868 0.70802 0.0
N731 N 0.76548 0.50884 0.76424 0.0
N732 N 0.74331 0.48102 0.77803 0.0
C733 C 0.76089 0.49739 0.78264 0.0
C734 C 0.75008 0.49959 0.7475 0.0
C735 C 0.73637 0.48245 0.75595 0.0
C736 C 0.77046 0.56049 0.79288 0.0
O737 O 0.75241 0.55081 0.7805 0.0
H738 H 0.77027 0.50103 0.79909 0.0
H739 H 0.74913 0.50463 0.73021 0.0
O740 O 0.81712 0.51716 0.75947 0.0
H741 H 0.78651 0.55095 0.68032 0.0
H742 H 0.72286 0.47143 0.74629 0.0
Cu743 Cu 0.27789 0.50772 0.78617 0.0
N744 N 0.3043 0.49433 0.78939 0.0
N745 N 0.32653 0.46947 0.79929 0.0
C746 C 0.30501 0.47391 0.7962 0.0
C747 C 0.33989 0.48786 0.79413 0.0
C748 C 0.32611 0.50315 0.78797 0.0
O749 O 0.25272 0.48402 0.78443 0.0
C750 C 0.28682 0.53191 0.83107 0.0
O751 O 0.29856 0.51588 0.83563 0.0
H752 H 0.28999 0.46295 0.79987 0.0
H753 H 0.33158 0.51976 0.78348 0.0
N754 N 0.27727 0.52182 0.75903 0.0
N755 N 0.2664 0.54486 0.73443 0.0
C756 C 0.2679 0.54056 0.75677 0.0
C757 C 0.28212 0.51405 0.73743 0.0
C758 C 0.27542 0.52823 0.72219 0.0
C759 C 0.23374 0.48497 0.7742 0.0
O760 O 0.2297 0.50374 0.76662 0.0
H761 H 0.26087 0.54996 0.77108 0.0
H762 H 0.289 0.49862 0.73297 0.0
O763 O 0.27596 0.53048 0.81169 0.0
H764 H 0.35828 0.49023 0.79503 0.0
H765 H 0.2765 0.52608 0.70352 0.0
Cu766 Cu 0.30139 0.48521 0.28764 0.0
N767 N 0.30504 0.47836 0.31803 0.0
N768 N 0.29209 0.4602 0.34763 0.0
C769 C 0.29502 0.45901 0.32462 0.0
C770 C 0.30074 0.48114 0.35601 0.0
C771 C 0.30892 0.4923 0.3377 0.0
O772 O 0.30234 0.45756 0.26765 0.0
C773 C 0.27509 0.51868 0.29689 0.0
O774 O 0.29517 0.52847 0.30478 0.0
H775 H 0.2872 0.44535 0.31241 0.0
H776 H 0.31483 0.50991 0.33839 0.0
N777 N 0.32392 0.50637 0.27802 0.0
N778 N 0.338 0.53457 0.25855 0.0
C779 C 0.31999 0.51934 0.26132 0.0
C780 C 0.34539 0.51336 0.286 0.0
C781 C 0.35418 0.53077 0.27389 0.0
C782 C 0.32076 0.44915 0.27015 0.0
O783 O 0.33645 0.45972 0.2851 0.0
H784 H 0.30385 0.51802 0.25185 0.0
H785 H 0.35375 0.50677 0.30005 0.0
O786 O 0.27306 0.49854 0.2876 0.0
H787 H 0.29937 0.48841 0.37366 0.0
H788 H 0.37076 0.54051 0.27686 0.0
Cu789 Cu 0.77608 0.51185 0.29611 0.0
N790 N 0.77644 0.494 0.32068 0.0
N791 N 0.78468 0.46736 0.34222 0.0
C792 C 0.78691 0.47567 0.32155 0.0
C793 C 0.77224 0.48091 0.35482 0.0
C794 C 0.76708 0.49723 0.34146 0.0
O795 O 0.77232 0.49282 0.26707 0.0
C796 C 0.80593 0.54682 0.31736 0.0
O797 O 0.79263 0.54256 0.33456 0.0
H798 H 0.79641 0.46879 0.30755 0.0
H799 H 0.75739 0.51067 0.34664 0.0
N800 N 0.751 0.52749 0.29681 0.0
N801 N 0.72879 0.55236 0.28698 0.0
C802 C 0.75006 0.54674 0.28745 0.0
C803 C 0.72963 0.52068 0.30256 0.0
C804 C 0.71587 0.53601 0.29654 0.0
C805 C 0.78589 0.48014 0.25807 0.0
O806 O 0.80622 0.48052 0.26766 0.0
H807 H 0.76446 0.55572 0.27985 0.0
H808 H 0.72426 0.50517 0.30964 0.0
O809 O 0.80265 0.53425 0.29831 0.0
H810 H 0.76709 0.47906 0.37237 0.0
H811 H 0.6977 0.53493 0.29854 0.0
Cu812 Cu 0.5116 0.25679 0.77357 0.0
N813 N 0.49277 0.25768 0.79883 0.0
N814 N 0.46551 0.26893 0.82143 0.0
C815 C 0.47645 0.27109 0.80149 0.0
C816 C 0.47542 0.25343 0.83168 0.0
C817 C 0.49225 0.24654 0.81771 0.0
O818 O 0.4911 0.25554 0.74651 0.0
C819 C 0.54689 0.2838 0.79666 0.0
O820 O 0.54292 0.26791 0.81032 0.0
H821 H 0.47263 0.28208 0.78881 0.0
H822 H 0.50346 0.23451 0.82121 0.0
N823 N 0.52788 0.23227 0.77134 0.0
N824 N 0.55591 0.21244 0.76074 0.0
C825 C 0.54814 0.23239 0.76141 0.0
C826 C 0.52258 0.21153 0.77739 0.0
C827 C 0.53992 0.19926 0.77094 0.0
C828 C 0.49062 0.24093 0.72909 0.0
O829 O 0.50716 0.22855 0.72689 0.0
H830 H 0.55686 0.24691 0.75458 0.0
H831 H 0.50701 0.20561 0.78539 0.0
O832 O 0.53429 0.28296 0.77838 0.0
H833 H 0.47115 0.24772 0.84829 0.0
H834 H 0.54032 0.18182 0.7729 0.0
Cu835 Cu 0.5614 0.76431 0.78052 0.0
N836 N 0.5794 0.76674 0.80792 0.0
N837 N 0.60606 0.76046 0.83357 0.0
C838 C 0.59678 0.75518 0.81187 0.0
C839 C 0.59396 0.77599 0.84356 0.0
C840 C 0.57756 0.77981 0.82772 0.0
O841 O 0.5807 0.76226 0.75391 0.0
C842 C 0.53402 0.72733 0.79669 0.0
O843 O 0.55043 0.7276 0.81233 0.0
H844 H 0.6025 0.74321 0.79896 0.0
H845 H 0.56502 0.79113 0.8305 0.0
N846 N 0.54632 0.78923 0.77873 0.0
N847 N 0.5184 0.80857 0.76943 0.0
C848 C 0.52445 0.78821 0.77148 0.0
C849 C 0.55449 0.81102 0.78146 0.0
C850 C 0.53728 0.82302 0.7757 0.0
C851 C 0.5996 0.77493 0.75555 0.0
O852 O 0.605 0.78809 0.7748 0.0
H853 H 0.51349 0.77271 0.76675 0.0
H854 H 0.57185 0.81766 0.78663 0.0
O855 O 0.53695 0.73976 0.78036 0.0
H856 H 0.5964 0.78376 0.86122 0.0
H857 H 0.53865 0.84094 0.77585 0.0
Cu858 Cu 0.4752 0.76486 0.27431 0.0
N859 N 0.45524 0.76775 0.29861 0.0
N860 N 0.42952 0.78127 0.32185 0.0
C861 C 0.44205 0.78405 0.30294 0.0
C862 C 0.43539 0.76257 0.32978 0.0
C863 C 0.45121 0.75433 0.31547 0.0
O864 O 0.45829 0.75492 0.24526 0.0
C865 C 0.50719 0.79839 0.2933 0.0
O866 O 0.50195 0.78766 0.31137 0.0
H867 H 0.44158 0.79756 0.29227 0.0
H868 H 0.45931 0.73967 0.31736 0.0
N869 N 0.49392 0.74294 0.27805 0.0
N870 N 0.52442 0.72528 0.2717 0.0
C871 C 0.51577 0.74479 0.27207 0.0
C872 C 0.48841 0.72148 0.28174 0.0
C873 C 0.50726 0.71058 0.27802 0.0
C874 C 0.44012 0.76141 0.23798 0.0
O875 O 0.43236 0.77846 0.24936 0.0
H876 H 0.52471 0.76001 0.26691 0.0
H877 H 0.47152 0.71395 0.28527 0.0
O878 O 0.49592 0.79218 0.27426 0.0
H879 H 0.42901 0.75542 0.34504 0.0
H880 H 0.50773 0.6929 0.27835 0.0
Cu881 Cu 0.55317 0.26297 0.30056 0.0
N882 N 0.53607 0.26441 0.3271 0.0
N883 N 0.50639 0.25915 0.34977 0.0
C884 C 0.51327 0.26188 0.32812 0.0
C885 C 0.52566 0.26046 0.36296 0.0
C886 C 0.54392 0.26367 0.34892 0.0
O887 O 0.5324 0.26061 0.27367 0.0
C888 C 0.59148 0.23847 0.2988 0.0
O889 O 0.60149 0.25467 0.2879 0.0
H890 H 0.50191 0.26052 0.31306 0.0
H891 H 0.56165 0.26412 0.35397 0.0
N892 N 0.57285 0.28944 0.30071 0.0
N893 N 0.59845 0.31579 0.28895 0.0
C894 C 0.58432 0.29679 0.28265 0.0
C895 C 0.57953 0.30449 0.31897 0.0
C896 C 0.59532 0.32075 0.3118 0.0
C897 C 0.51531 0.24567 0.26976 0.0
O898 O 0.51334 0.22863 0.28211 0.0
H899 H 0.58308 0.28771 0.26553 0.0
H900 H 0.57369 0.30348 0.33638 0.0
O901 O 0.57052 0.23807 0.30322 0.0
H902 H 0.52653 0.25834 0.38125 0.0
H903 H 0.60396 0.33496 0.32269 0.0
C904 C 0.19138 0.21065 0.15377 0.0
C905 C 0.20563 0.19854 0.16576 0.0
H906 H 0.18746 0.23041 0.126 0.0
C907 C 0.22772 0.19722 0.15802 0.0
H908 H 0.17418 0.21186 0.15907 0.0
C909 C 0.23552 0.20822 0.13908 0.0
C910 C 0.22136 0.22067 0.12731 0.0
H911 H 0.23917 0.1881 0.16689 0.0
H912 H 0.25283 0.20733 0.13405 0.0
C913 C 0.19909 0.22146 0.13479 0.0
C914 C 0.86711 0.25812 0.06889 0.0
C915 C 0.85933 0.26647 0.09033 0.0
H916 H 0.86431 0.25683 0.03188 0.0
C917 C 0.84422 0.28251 0.09055 0.0
H918 H 0.87884 0.24584 0.06804 0.0
C919 C 0.83595 0.28893 0.06975 0.0
C920 C 0.8425 0.27936 0.04823 0.0
H921 H 0.83796 0.28939 0.10675 0.0
H922 H 0.82347 0.30048 0.07056 0.0
C923 C 0.85877 0.26445 0.0481 0.0
C924 C 0.81601 0.81769 0.13438 0.0
C925 C 0.8346 0.80921 0.14406 0.0
H926 H 0.788 0.81241 0.11 0.0
C927 C 0.83929 0.7879 0.13526 0.0
H928 H 0.81179 0.834 0.14061 0.0
C929 C 0.82546 0.77535 0.1173 0.0
C930 C 0.80663 0.78387 0.10806 0.0
H931 H 0.85351 0.78089 0.14233 0.0
H932 H 0.82927 0.75894 0.11092 0.0
C933 C 0.80223 0.80521 0.11676 0.0
C934 C 0.24429 0.84848 0.09359 0.0
C935 C 0.24363 0.83606 0.11278 0.0
H936 H 0.25715 0.85255 0.05985 0.0
C937 C 0.25703 0.81863 0.11296 0.0
H938 H 0.23422 0.86206 0.09295 0.0
C939 C 0.27 0.81312 0.09394 0.0
C940 C 0.27014 0.8251 0.07447 0.0
H941 H 0.25694 0.80876 0.12748 0.0
H942 H 0.27968 0.79924 0.09427 0.0
C943 C 0.25754 0.84316 0.0747 0.0
C944 C 0.21576 0.79675 0.93827 0.0
C945 C 0.2222 0.79971 0.91547 0.0
H946 H 0.22559 0.78764 0.9716 0.0
C947 C 0.24345 0.79424 0.90848 0.0
H948 H 0.19944 0.80073 0.94412 0.0
C949 C 0.25844 0.78715 0.92424 0.0
C950 C 0.25233 0.78481 0.94718 0.0
H951 H 0.24893 0.79632 0.89107 0.0
H952 H 0.2751 0.78399 0.9186 0.0
C953 C 0.23062 0.78909 0.95394 0.0
C954 C 0.25556 0.18476 0.96681 0.0
C955 C 0.2327 0.17679 0.96057 0.0
H956 H 0.2791 0.20216 0.99326 0.0
C957 C 0.21644 0.17747 0.97771 0.0
H958 H 0.26849 0.18445 0.95398 0.0
C959 C 0.2225 0.18741 0.0001 0.0
C960 C 0.24495 0.19709 0.00591 0.0
H961 H 0.19874 0.1712 0.97357 0.0
H962 H 0.20926 0.18852 0.01253 0.0
C963 C 0.26164 0.1949 0.98932 0.0
C964 C 0.79757 0.2015 0.9024 0.0
C965 C 0.81981 0.20855 0.89603 0.0
H966 H 0.77162 0.20564 0.92693 0.0
C967 C 0.83297 0.22596 0.91006 0.0
H968 H 0.78659 0.18888 0.89154 0.0
C969 C 0.82422 0.23586 0.93012 0.0
C970 C 0.8021 0.22858 0.93667 0.0
H971 H 0.85015 0.23185 0.90565 0.0
H972 H 0.8349 0.24902 0.9407 0.0
C973 C 0.78888 0.21127 0.9226 0.0
C974 C 0.79215 0.80522 0.94778 0.0
C975 C 0.81538 0.80309 0.94591 0.0
H976 H 0.76245 0.80015 0.96793 0.0
C977 C 0.82668 0.79495 0.96418 0.0
H978 H 0.78293 0.81142 0.93402 0.0
C979 C 0.81501 0.78857 0.98354 0.0
C980 C 0.79167 0.79012 0.98523 0.0
H981 H 0.84459 0.79322 0.96347 0.0
H982 H 0.82434 0.78238 0.99721 0.0
C983 C 0.78043 0.79883 0.96726 0.0
C984 C 0.07522 0.18222 0.26682 0.0
C985 C 0.09577 0.19546 0.2632 0.0
H986 H 0.04164 0.18106 0.2797 0.0
C987 C 0.0981 0.21835 0.27088 0.0
H988 H 0.07282 0.16454 0.26113 0.0
C989 C 0.08014 0.22783 0.28143 0.0
C990 C 0.05949 0.21464 0.28478 0.0
H991 H 0.11367 0.22906 0.26838 0.0
H992 H 0.08245 0.24551 0.28704 0.0
C993 C 0.05735 0.19167 0.27758 0.0
C994 C 0.81615 0.12243 0.18459 0.0
C995 C 0.83684 0.13063 0.19661 0.0
H996 H 0.78776 0.09673 0.18013 0.0
C997 C 0.845 0.11815 0.21337 0.0
H998 H 0.80934 0.13164 0.17162 0.0
C999 C 0.8327 0.09809 0.21818 0.0
C1000 C 0.81189 0.08994 0.20636 0.0
H1001 H 0.86093 0.12389 0.22291 0.0
H1002 H 0.83964 0.08891 0.23107 0.0
C1003 C 0.80383 0.10232 0.18941 0.0
C1004 C 0.93819 0.79528 0.25054 0.0
C1005 C 0.9409 0.81377 0.23773 0.0
H1006 H 0.95454 0.77312 0.26975 0.0
C1007 C 0.96292 0.82465 0.23519 0.0
H1008 H 0.92146 0.78655 0.25286 0.0
C1009 C 0.98183 0.81709 0.24511 0.0
C1010 C 0.97915 0.79833 0.25752 0.0
H1011 H 0.96556 0.839 0.2255 0.0
H1012 H -0.00141 0.82555 0.24247 0.0
C1013 C 0.95712 0.78756 0.26019 0.0
C1014 C 0.22238 0.92123 0.22163 0.0
C1015 C 0.20338 0.90649 0.22661 0.0
H1016 H 0.24343 0.95211 0.23146 0.0
C1017 C 0.19077 0.91221 0.24606 0.0
H1018 H 0.23241 0.91743 0.20674 0.0
C1019 C 0.19714 0.93211 0.26031 0.0
C1020 C 0.21634 0.94669 0.25551 0.0
H1021 H 0.176 0.90125 0.25041 0.0
H1022 H 0.1873 0.93586 0.27532 0.0
C1023 C 0.22879 0.94107 0.23592 0.0
C1024 C 0.07194 0.82533 0.7762 0.0
C1025 C 0.08362 0.82027 0.79602 0.0
H1026 H 0.04317 0.8164 0.75237 0.0
C1027 C 0.0743 0.80225 0.80754 0.0
H1028 H 0.07864 0.83916 0.76694 0.0
C1029 C 0.05404 0.78936 0.79927 0.0
C1030 C 0.04254 0.79408 0.77921 0.0
H1031 H 0.08274 0.79792 0.82289 0.0
H1032 H 0.04757 0.77545 0.80854 0.0
C1033 C 0.05159 0.81235 0.76786 0.0
C1034 C 0.24001 0.07877 0.84022 0.0
C1035 C 0.25469 0.09842 0.84741 0.0
H1036 H 0.23656 0.0456 0.82291 0.0
C1037 C 0.27793 0.09913 0.843 0.0
H1038 H 0.22201 0.07771 0.8433 0.0
C1039 C 0.2863 0.08067 0.83157 0.0
C1040 C 0.27157 0.06117 0.82398 0.0
H1041 H 0.28969 0.11399 0.84837 0.0
H1042 H 0.30428 0.08183 0.82834 0.0
C1043 C 0.24833 0.0604 0.82847 0.0
C1044 C 0.94776 0.19672 0.83583 0.0
C1045 C 0.93189 0.20556 0.82226 0.0
H1046 H 0.98282 0.1967 0.84541 0.0
C1047 C 0.93987 0.22034 0.80628 0.0
H1048 H 0.94218 0.18521 0.84823 0.0
C1049 C 0.96317 0.2267 0.80445 0.0
C1050 C 0.97902 0.2186 0.81874 0.0
H1051 H 0.92809 0.22731 0.79544 0.0
H1052 H 0.9687 0.23863 0.79244 0.0
C1053 C 0.97107 0.20326 0.83417 0.0
C1054 C 0.81873 0.92291 0.80919 0.0
C1055 C 0.80937 0.90087 0.81183 0.0
H1056 H 0.81289 0.95463 0.79854 0.0
C1057 C 0.78678 0.8937 0.80409 0.0
H1058 H 0.83611 0.92898 0.81493 0.0
C1059 C 0.77356 0.90835 0.79492 0.0
C1060 C 0.78256 0.93059 0.79302 0.0
H1061 H 0.779 0.87686 0.80574 0.0
H1062 H 0.75604 0.90229 0.7897 0.0
C1063 C 0.80547 0.93761 0.79976 0.0
C1064 C 0.25385 0.0992 0.25288 0.0
C1065 C 0.23578 0.09764 0.23638 0.0
H1066 H 0.27611 0.08176 0.27177 0.0
C1067 C 0.22801 0.07672 0.22432 0.0
H1068 H 0.26034 0.11507 0.26243 0.0
C1069 C 0.23717 0.05765 0.22952 0.0
C1070 C 0.25427 0.05897 0.24704 0.0
H1071 H 0.21427 0.07491 0.21135 0.0
H1072 H 0.23008 0.04172 0.2205 0.0
C1073 C 0.26297 0.08008 0.25818 0.0
C1074 C 0.23382 0.90337 0.85094 0.0
C1075 C 0.21161 0.89924 0.84105 0.0
H1076 H 0.26583 0.92432 0.85339 0.0
C1077 C 0.20453 0.91434 0.82647 0.0
H1078 H 0.23986 0.89208 0.86223 0.0
C1079 C 0.21936 0.93283 0.8215 0.0
C1080 C 0.24172 0.93674 0.83093 0.0
H1081 H 0.18752 0.91184 0.81866 0.0
H1082 H 0.21321 0.94408 0.81027 0.0
C1083 C 0.2487 0.92192 0.84594 0.0
C1084 C 0.13155 0.2335 0.89309 0.0
C1085 C 0.13701 0.21398 0.8806 0.0
H1086 H 0.11001 0.25913 0.89562 0.0
C1087 C 0.12413 0.20535 0.86028 0.0
H1088 H 0.14116 0.2407 0.90876 0.0
C1089 C 0.10606 0.21592 0.85279 0.0
C1090 C 0.10045 0.23534 0.86546 0.0
H1091 H 0.12784 0.19031 0.85028 0.0
H1092 H 0.09624 0.20862 0.83731 0.0
C1093 C 0.11353 0.24403 0.88563 0.0
C1094 C 0.75566 0.07602 0.86566 0.0
C1095 C 0.74908 0.09247 0.85253 0.0
H1096 H 0.75627 0.04131 0.86784 0.0
C1097 C 0.73486 0.08586 0.83265 0.0
H1098 H 0.76648 0.08054 0.88117 0.0
C1099 C 0.72884 0.06328 0.82508 0.0
C1100 C 0.73692 0.04682 0.83719 0.0
H1101 H 0.72927 0.0981 0.82226 0.0
H1102 H 0.7187 0.05872 0.80914 0.0
C1103 C 0.74964 0.05345 0.85808 0.0
C1104 C 0.9041 0.81135 0.80716 0.0
C1105 C 0.88946 0.80158 0.82303 0.0
H1106 H 0.93166 0.80788 0.78466 0.0
C1107 C 0.89125 0.77953 0.8274 0.0
H1108 H 0.9033 0.82832 0.80345 0.0
C1109 C 0.9074 0.76767 0.81645 0.0
C1110 C 0.92238 0.77751 0.80087 0.0
H1111 H 0.88019 0.77137 0.83941 0.0
H1112 H 0.90803 0.75072 0.82021 0.0
C1113 C 0.92038 0.79951 0.79629 0.0
C1114 C 0.81231 0.93942 0.20536 0.0
C1115 C 0.83071 0.93074 0.21521 0.0
H1116 H 0.79104 0.96532 0.20735 0.0
C1117 C 0.84243 0.94263 0.23489 0.0
H1118 H 0.80292 0.93072 0.19017 0.0
C1119 C 0.83563 0.9626 0.24472 0.0
C1120 C 0.81693 0.97102 0.23512 0.0
H1121 H 0.8567 0.93643 0.24286 0.0
H1122 H 0.84482 0.97122 0.26006 0.0
C1123 C 0.80548 0.95929 0.21522 0.0
C1124 C 0.08651 0.78367 0.18649 0.0
C1125 C 0.10864 0.78587 0.19637 0.0
H1126 H 0.05176 0.76959 0.18822 0.0
C1127 C 0.11307 0.77266 0.21406 0.0
H1128 H 0.08254 0.79343 0.17268 0.0
C1129 C 0.09541 0.75897 0.22298 0.0
C1130 C 0.07294 0.75819 0.21438 0.0
H1131 H 0.12998 0.77376 0.2219 0.0
H1132 H 0.09921 0.74995 0.23745 0.0
C1133 C 0.06884 0.76996 0.1954 0.0
C1134 C 0.92462 0.22577 0.23186 0.0
C1135 C 0.92216 0.24068 0.21526 0.0
H1136 H 0.94096 0.21943 0.26305 0.0
C1137 C 0.93598 0.26147 0.21782 0.0
H1138 H 0.91449 0.20954 0.23057 0.0
C1139 C 0.95159 0.26721 0.23686 0.0
C1140 C 0.95344 0.2523 0.25365 0.0
H1141 H 0.93455 0.27333 0.20534 0.0
H1142 H 0.96185 0.28338 0.23866 0.0
C1143 C 0.9399 0.23149 0.25069 0.0
C1144 C 0.24024 0.68018 0.62358 0.0
C1145 C 0.21943 0.68844 0.62728 0.0
H1146 H 0.27048 0.68109 0.60436 0.0
C1147 C 0.21361 0.70505 0.61384 0.0
H1148 H 0.24536 0.66744 0.63357 0.0
C1149 C 0.22816 0.71297 0.59693 0.0
C1150 C 0.24881 0.70442 0.5931 0.0
H1151 H 0.19773 0.71184 0.61623 0.0
H1152 H 0.22312 0.7256 0.58673 0.0
C1153 C 0.25469 0.68804 0.60674 0.0
C1154 C 0.81115 0.74242 0.55484 0.0
C1155 C 0.81881 0.72157 0.55016 0.0
H1156 H 0.80043 0.77076 0.54075 0.0
C1157 C 0.81877 0.71209 0.52695 0.0
H1158 H 0.81094 0.75018 0.57248 0.0
C1159 C 0.81214 0.72372 0.50877 0.0
C1160 C 0.80581 0.74509 0.51357 0.0
H1161 H 0.82446 0.69599 0.52281 0.0
H1162 H 0.81327 0.71661 0.491 0.0
C1163 C 0.80501 0.75416 0.53672 0.0
C1164 C 0.87814 0.30631 0.65536 0.0
C1165 C 0.86399 0.32148 0.66492 0.0
H1166 H 0.88138 0.27882 0.62985 0.0
C1167 C 0.84168 0.32011 0.6557 0.0
H1168 H 0.89542 0.3069 0.66204 0.0
C1169 C 0.83368 0.30405 0.63744 0.0
C1170 C 0.84778 0.28893 0.62776 0.0
H1171 H 0.83029 0.3315 0.66256 0.0
H1172 H 0.81653 0.30383 0.63059 0.0
C1173 C 0.87014 0.29028 0.63688 0.0
C1174 C 0.2227 0.34517 0.64798 0.0
C1175 C 0.20734 0.36058 0.64539 0.0
H1176 H 0.25108 0.33037 0.6342 0.0
C1177 C 0.20972 0.3738 0.62687 0.0
H1178 H 0.22141 0.33481 0.66213 0.0
C1179 C 0.22685 0.37139 0.61104 0.0
C1180 C 0.24182 0.35555 0.61326 0.0
H1181 H 0.19824 0.38592 0.62446 0.0
H1182 H 0.22784 0.38139 0.59662 0.0
C1183 C 0.23968 0.34261 0.63201 0.0
C1184 C 0.2263 0.30976 0.4583 0.0
C1185 C 0.21126 0.32572 0.45709 0.0
H1186 H 0.24631 0.29276 0.4801 0.0
C1187 C 0.2031 0.33527 0.47782 0.0
H1188 H 0.2328 0.30196 0.44267 0.0
C1189 C 0.21072 0.32988 0.4993 0.0
C1190 C 0.22676 0.31487 0.50058 0.0
H1191 H 0.19134 0.34746 0.47752 0.0
H1192 H 0.20473 0.33823 0.51491 0.0
C1193 C 0.23398 0.30441 0.4798 0.0
C1194 C 0.21611 0.66618 0.4466 0.0
C1195 C 0.22409 0.65065 0.43021 0.0
H1196 H 0.2228 0.68777 0.47795 0.0
C1197 C 0.24605 0.64494 0.43371 0.0
H1198 H 0.19921 0.67082 0.44466 0.0
C1199 C 0.25989 0.65503 0.45285 0.0
C1200 C 0.25203 0.67096 0.46899 0.0
H1201 H 0.25274 0.63306 0.42139 0.0
H1202 H 0.2769 0.65069 0.45465 0.0
C1203 C 0.2298 0.67608 0.46573 0.0
C1204 C 0.86122 0.73442 0.36126 0.0
C1205 C 0.84829 0.73832 0.34181 0.0
H1206 H 0.86728 0.74116 0.39818 0.0
C1207 C 0.83109 0.75208 0.34495 0.0
H1208 H 0.87475 0.72409 0.35928 0.0
C1209 C 0.82661 0.76143 0.3671 0.0
C1210 C 0.83964 0.75775 0.38651 0.0
H1211 H 0.82087 0.75539 0.33028 0.0
H1212 H 0.81311 0.7718 0.36909 0.0
C1213 C 0.85712 0.74431 0.38341 0.0
C1214 C 0.78947 0.29789 0.48938 0.0
C1215 C 0.80409 0.31812 0.49077 0.0
H1216 H 0.77235 0.27233 0.50779 0.0
C1217 C 0.81007 0.32963 0.51279 0.0
H1218 H 0.78432 0.28867 0.47272 0.0
C1219 C 0.80319 0.32026 0.53294 0.0
C1220 C 0.79009 0.29919 0.53158 0.0
H1221 H 0.8211 0.34536 0.51454 0.0
H1222 H 0.80923 0.329 0.54959 0.0
C1223 C 0.78249 0.28856 0.50955 0.0
C1224 C 0.08155 0.68619 0.70858 0.0
C1225 C 0.09249 0.70041 0.69344 0.0
H1226 H 0.05291 0.67935 0.72986 0.0
C1227 C 0.08209 0.71879 0.68789 0.0
H1228 H 0.08907 0.67187 0.71321 0.0
C1229 C 0.06148 0.72302 0.69736 0.0
C1230 C 0.05057 0.709 0.71266 0.0
H1231 H 0.08989 0.73005 0.67621 0.0
H1232 H 0.05398 0.73724 0.69245 0.0
C1233 C 0.06077 0.69041 0.71803 0.0
C1234 C 0.81768 0.6322 0.71135 0.0
C1235 C 0.81239 0.63627 0.68855 0.0
H1236 H 0.81537 0.60911 0.73668 0.0
C1237 C 0.79893 0.61949 0.674 0.0
H1238 H 0.82801 0.64473 0.72306 0.0
C1239 C 0.79142 0.59892 0.68195 0.0
C1240 C 0.79723 0.59465 0.7046 0.0
H1241 H 0.79446 0.62212 0.65637 0.0
H1242 H 0.78117 0.58635 0.67027 0.0
C1243 C 0.81024 0.6117 0.71925 0.0
C1244 C 0.97957 0.35292 0.7676 0.0
C1245 C 0.95669 0.34378 0.76866 0.0
H1246 H 0.01413 0.35158 0.77827 0.0
C1247 C 0.95116 0.32653 0.78271 0.0
H1248 H 0.98438 0.36629 0.75699 0.0
C1249 C 0.96822 0.31807 0.79479 0.0
C1250 C 0.99113 0.32687 0.79335 0.0
H1251 H 0.93369 0.31916 0.78395 0.0
H1252 H 0.96354 0.30445 0.80511 0.0
C1253 C -0.0034 0.34464 0.77994 0.0
C1254 C 0.18767 0.44378 0.74198 0.0
C1255 C 0.19336 0.42341 0.74827 0.0
H1256 H 0.19573 0.47926 0.74552 0.0
C1257 C 0.21088 0.4237 0.76509 0.0
H1258 H 0.17414 0.44416 0.72922 0.0
C1259 C 0.22326 0.44383 0.77444 0.0
C1260 C 0.21834 0.46413 0.76724 0.0
H1261 H 0.2156 0.40833 0.77046 0.0
H1262 H 0.23722 0.4434 0.78669 0.0
C1263 C 0.2 0.46393 0.7514 0.0
C1264 C 0.08938 0.34606 0.32325 0.0
C1265 C 0.103 0.34451 0.34311 0.0
H1266 H 0.05905 0.33307 0.30277 0.0
C1267 C 0.0957 0.32848 0.35801 0.0
H1268 H 0.0945 0.35826 0.31141 0.0
C1269 C 0.07548 0.31416 0.35308 0.0
C1270 C 0.06196 0.31544 0.3331 0.0
H1271 H 0.10568 0.32683 0.37348 0.0
H1272 H 0.07057 0.30191 0.36495 0.0
C1273 C 0.06905 0.33166 0.3183 0.0
C1274 C 0.22274 0.53709 0.32392 0.0
C1275 C 0.22613 0.55998 0.32106 0.0
H1276 H 0.23545 0.50553 0.31766 0.0
C1277 C 0.24335 0.56785 0.30664 0.0
H1278 H 0.20952 0.53048 0.33481 0.0
C1279 C 0.25806 0.55362 0.29695 0.0
C1280 C 0.25565 0.53114 0.30107 0.0
H1281 H 0.24636 0.5853 0.3039 0.0
H1282 H 0.27221 0.56051 0.2873 0.0
C1283 C 0.23736 0.52273 0.31388 0.0
C1284 C 0.93102 0.69097 0.27473 0.0
C1285 C 0.92232 0.70352 0.25838 0.0
H1286 H 0.96079 0.68151 0.29055 0.0
C1287 C 0.9371 0.7134 0.24274 0.0
H1288 H 0.91999 0.68305 0.28692 0.0
C1289 C 0.96038 0.71203 0.24442 0.0
C1290 C 0.96942 0.7013 0.26222 0.0
H1291 H 0.93081 0.72293 0.22975 0.0
H1292 H 0.97141 0.72076 0.23278 0.0
C1293 C 0.95439 0.69003 0.27676 0.0
C1294 C 0.80959 0.42902 0.37975 0.0
C1295 C 0.81084 0.41016 0.3639 0.0
H1296 H 0.80013 0.46193 0.38527 0.0
C1297 C 0.80379 0.41066 0.34065 0.0
H1298 H 0.81481 0.42917 0.3978 0.0
C1299 C 0.79559 0.42954 0.33345 0.0
C1300 C 0.79386 0.44819 0.34943 0.0
H1301 H 0.80453 0.39641 0.32801 0.0
H1302 H 0.79008 0.42936 0.3155 0.0
C1303 C 0.80102 0.44773 0.37263 0.0
C1304 C 0.24209 0.59861 0.73087 0.0
C1305 C 0.23032 0.59465 0.70919 0.0
H1306 H 0.26288 0.58591 0.75581 0.0
C1307 C 0.23133 0.57432 0.69562 0.0
H1308 H 0.24172 0.6141 0.74176 0.0
C1309 C 0.24359 0.55823 0.70362 0.0
C1310 C 0.25495 0.56198 0.72552 0.0
H1311 H 0.22251 0.57073 0.67882 0.0
H1312 H 0.24363 0.5426 0.69292 0.0
C1313 C 0.25415 0.58242 0.73898 0.0
C1314 C 0.26121 0.40678 0.36368 0.0
C1315 C 0.24105 0.41383 0.37219 0.0
H1316 H 0.29335 0.41636 0.34882 0.0
C1317 C 0.23913 0.43673 0.37476 0.0
H1318 H 0.26311 0.38924 0.36138 0.0
C1319 C 0.25671 0.45219 0.36823 0.0
C1320 C 0.27627 0.44499 0.35852 0.0
H1321 H 0.22382 0.44265 0.38131 0.0
H1322 H 0.25449 0.46965 0.3695 0.0
C1323 C 0.2785 0.42221 0.35655 0.0
C1324 C 0.10834 0.70254 0.3655 0.0
C1325 C 0.1162 0.68383 0.35371 0.0
H1326 H 0.08645 0.72769 0.36476 0.0
C1327 C 0.10708 0.67596 0.33135 0.0
H1328 H 0.11503 0.70913 0.38271 0.0
C1329 C 0.09049 0.68665 0.32103 0.0
C1330 C 0.08263 0.70537 0.33289 0.0
H1331 H 0.11275 0.66157 0.3218 0.0
H1332 H 0.08365 0.68008 0.30389 0.0
C1333 C 0.09179 0.71315 0.35524 0.0
C1334 C 0.83635 0.603 0.34185 0.0
C1335 C 0.8454 0.61148 0.32193 0.0
H1336 H 0.81713 0.57582 0.35607 0.0
C1337 C 0.8436 0.59746 0.30092 0.0
H1338 H 0.8376 0.61326 0.35835 0.0
C1339 C 0.83182 0.57589 0.29959 0.0
C1340 C 0.82161 0.56794 0.31925 0.0
H1341 H 0.85051 0.60342 0.28526 0.0
H1342 H 0.82986 0.56587 0.28295 0.0
C1343 C 0.82461 0.58149 0.34053 0.0
C1344 C 0.9026 0.29503 0.38595 0.0
C1345 C 0.89492 0.3132 0.37642 0.0
H1346 H 0.92707 0.27225 0.38568 0.0
C1347 C 0.90726 0.32249 0.35855 0.0
H1348 H 0.89352 0.28726 0.3996 0.0
C1349 C 0.92686 0.31387 0.35059 0.0
C1350 C 0.93459 0.29577 0.36032 0.0
H1351 H 0.90185 0.33649 0.35078 0.0
H1352 H 0.93612 0.32163 0.33708 0.0
C1353 C 0.92205 0.28644 0.37801 0.0
C1354 C 0.85889 0.47054 0.73363 0.0
C1355 C 0.85854 0.45086 0.74446 0.0
H1356 H 0.84826 0.5029 0.7344 0.0
C1357 C 0.84917 0.45011 0.76644 0.0
H1358 H 0.86614 0.47179 0.71679 0.0
C1359 C 0.83905 0.46807 0.77665 0.0
C1360 C 0.83796 0.48711 0.76503 0.0
H1361 H 0.84879 0.43528 0.77536 0.0
H1362 H 0.83102 0.46649 0.79307 0.0
C1363 C 0.84866 0.48843 0.74376 0.0
C1364 C 0.08419 0.30248 0.72143 0.0
C1365 C 0.10692 0.30245 0.72881 0.0
H1366 H 0.0492 0.29137 0.72665 0.0
C1367 C 0.11176 0.28803 0.74519 0.0
H1368 H 0.07987 0.31321 0.70866 0.0
C1369 C 0.09417 0.27544 0.75546 0.0
C1370 C 0.07135 0.27703 0.7496 0.0
H1371 H 0.1291 0.28736 0.75105 0.0
H1372 H 0.09847 0.26551 0.769 0.0
C1373 C 0.06658 0.2899 0.73173 0.0
C1374 C 0.92637 0.72863 0.64534 0.0
C1375 C 0.90557 0.73248 0.65503 0.0
H1376 H 0.9626 0.73195 0.65036 0.0
C1377 C 0.90591 0.74584 0.67633 0.0
H1378 H 0.9267 0.71842 0.62895 0.0
C1379 C 0.92645 0.75381 0.68846 0.0
C1380 C 0.94716 0.74834 0.67975 0.0
H1381 H 0.8902 0.7493 0.68418 0.0
H1382 H 0.92592 0.76307 0.70537 0.0
C1383 C 0.94695 0.73636 0.65765 0.0
C1384 C 0.72715 0.20273 0.64336 0.0
C1385 C 0.73529 0.18529 0.65396 0.0
H1386 H 0.73245 0.22602 0.61795 0.0
C1387 C 0.75563 0.17798 0.64642 0.0
H1388 H 0.71152 0.20882 0.64871 0.0
C1389 C 0.76755 0.18782 0.62881 0.0
C1390 C 0.75949 0.20528 0.61824 0.0
H1391 H 0.76243 0.16461 0.65411 0.0
H1392 H 0.78318 0.18169 0.62355 0.0
C1393 C 0.73913 0.21262 0.6257 0.0
C1394 C 0.2996 0.24486 0.62498 0.0
C1395 C 0.32016 0.23596 0.62149 0.0
H1396 H 0.27665 0.26634 0.61307 0.0
C1397 C 0.33274 0.24104 0.6021 0.0
H1398 H 0.28952 0.24114 0.63974 0.0
C1399 C 0.32563 0.25569 0.58726 0.0
C1400 C 0.30544 0.26501 0.59106 0.0
H1401 H 0.34865 0.23449 0.59896 0.0
H1402 H 0.3362 0.26017 0.57306 0.0
C1403 C 0.29214 0.25908 0.60967 0.0
C1404 C 0.35305 0.77982 0.63976 0.0
C1405 C 0.36365 0.80155 0.63793 0.0
H1406 H 0.33579 0.74948 0.62167 0.0
C1407 C 0.36639 0.80878 0.61579 0.0
H1408 H 0.35054 0.77389 0.65661 0.0
C1409 C 0.35854 0.79463 0.5959 0.0
C1410 C 0.34718 0.77324 0.5978 0.0
H1411 H 0.37447 0.82545 0.61387 0.0
H1412 H 0.36054 0.80067 0.57905 0.0
C1413 C 0.34455 0.76592 0.61987 0.0
C1414 C 0.74292 0.82282 0.56023 0.0
C1415 C 0.72829 0.83902 0.55841 0.0
H1416 H 0.76974 0.80652 0.54507 0.0
C1417 C 0.73112 0.85273 0.54028 0.0
H1418 H 0.74133 0.81207 0.57404 0.0
C1419 C 0.7476 0.84965 0.52379 0.0
C1420 C 0.76139 0.83265 0.52499 0.0
H1421 H 0.72021 0.86546 0.53847 0.0
H1422 H 0.74879 0.85981 0.50949 0.0
C1423 C 0.75919 0.81961 0.54365 0.0
C1424 C 0.73268 0.8069 0.37061 0.0
C1425 C 0.71342 0.81433 0.38081 0.0
H1426 H 0.76401 0.79381 0.37597 0.0
C1427 C 0.70954 0.81116 0.40418 0.0
H1428 H 0.73618 0.80908 0.35269 0.0
C1429 C 0.72523 0.80175 0.41734 0.0
C1430 C 0.74523 0.79583 0.40745 0.0
H1431 H 0.69478 0.81663 0.41248 0.0
H1432 H 0.72252 0.80057 0.4356 0.0
C1433 C 0.74857 0.79805 0.38388 0.0
C1434 C 0.73015 0.19317 0.46251 0.0
C1435 C 0.74156 0.18655 0.44256 0.0
H1436 H 0.73228 0.20246 0.49912 0.0
C1437 C 0.76453 0.18331 0.44498 0.0
H1438 H 0.71242 0.19564 0.46138 0.0
C1439 C 0.776 0.18737 0.46671 0.0
C1440 C 0.76478 0.1948 0.48651 0.0
H1441 H 0.77386 0.17817 0.43 0.0
H1442 H 0.79385 0.18546 0.46781 0.0
C1443 C 0.74159 0.1972 0.48419 0.0
C1444 C 0.35247 0.27431 0.45102 0.0
C1445 C 0.3521 0.25188 0.45518 0.0
H1446 H 0.34589 0.30695 0.46434 0.0
C1447 C 0.34709 0.24586 0.47741 0.0
H1448 H 0.35641 0.27952 0.43412 0.0
C1449 C 0.3413 0.26159 0.49468 0.0
C1450 C 0.3403 0.28369 0.49014 0.0
H1451 H 0.34699 0.22883 0.48133 0.0
H1452 H 0.33693 0.2563 0.51145 0.0
C1453 C 0.34662 0.29008 0.46837 0.0
C1454 C 0.27638 0.79014 0.45909 0.0
C1455 C 0.29204 0.80952 0.45883 0.0
H1456 H 0.2614 0.76459 0.47884 0.0
C1457 C 0.30286 0.8194 0.47989 0.0
H1458 H 0.26759 0.78216 0.44326 0.0
C1459 C 0.29925 0.80932 0.50039 0.0
C1460 C 0.28475 0.78912 0.50031 0.0
H1461 H 0.3149 0.8344 0.48038 0.0
H1462 H 0.30869 0.81683 0.51605 0.0
C1463 C 0.27278 0.78007 0.47957 0.0
C1464 C 0.60538 0.21255 0.72157 0.0
C1465 C 0.6167 0.19549 0.72908 0.0
H1466 H 0.57724 0.23101 0.72535 0.0
C1467 C 0.60747 0.18378 0.74709 0.0
H1468 H 0.61186 0.22187 0.70767 0.0
C1469 C 0.58745 0.18916 0.75741 0.0
C1470 C 0.57632 0.20644 0.75001 0.0
H1471 H 0.61574 0.17052 0.75329 0.0
H1472 H 0.5809 0.18004 0.77141 0.0
C1473 C 0.58552 0.21794 0.73187 0.0
C1474 C 0.34715 0.0898 0.72575 0.0
C1475 C 0.33806 0.10287 0.71012 0.0
H1476 H 0.34151 0.06159 0.74501 0.0
C1477 C 0.31532 0.09714 0.70218 0.0
H1478 H 0.36463 0.09369 0.73219 0.0
C1479 C 0.30199 0.07876 0.70969 0.0
C1480 C 0.31108 0.06563 0.7253 0.0
H1481 H 0.30775 0.1069 0.69022 0.0
H1482 H 0.28447 0.07504 0.70344 0.0
C1483 C 0.33383 0.07142 0.73324 0.0
C1484 C 0.47447 0.8359 0.739 0.0
C1485 C 0.45445 0.82156 0.74195 0.0
H1486 H 0.5105 0.84308 0.74551 0.0
C1487 C 0.4558 0.80325 0.75463 0.0
H1488 H 0.47403 0.8502 0.72939 0.0
C1489 C 0.4767 0.79917 0.76381 0.0
C1490 C 0.49675 0.8134 0.76074 0.0
H1491 H 0.44072 0.79191 0.75731 0.0
H1492 H 0.47713 0.7849 0.77344 0.0
C1493 C 0.49536 0.83193 0.74839 0.0
C1494 C 0.68683 0.9095 0.67133 0.0
C1495 C 0.69642 0.8897 0.67272 0.0
H1496 H 0.68344 0.94208 0.68768 0.0
C1497 C 0.71102 0.88811 0.69174 0.0
H1498 H 0.6754 0.91117 0.65695 0.0
C1499 C 0.71575 0.90586 0.70914 0.0
C1500 C 0.70564 0.92537 0.7081 0.0
H1501 H 0.71866 0.87306 0.6933 0.0
H1502 H 0.72684 0.90411 0.72376 0.0
C1503 C 0.69123 0.92709 0.68899 0.0
C1504 C 0.56315 0.8313 0.31564 0.0
C1505 C 0.57159 0.8401 0.29564 0.0
H1506 H 0.53608 0.81174 0.33067 0.0
C1507 C 0.55784 0.83652 0.27514 0.0
H1508 H 0.57317 0.83392 0.33177 0.0
C1509 C 0.53646 0.82367 0.27446 0.0
C1510 C 0.52836 0.8143 0.29432 0.0
H1511 H 0.56382 0.84316 0.25944 0.0
H1512 H 0.52657 0.8206 0.25825 0.0
C1513 C 0.54177 0.81865 0.31501 0.0
C1514 C 0.77328 0.12005 0.31956 0.0
C1515 C 0.74994 0.11905 0.32351 0.0
H1516 H 0.80006 0.10307 0.30538 0.0
C1517 C 0.7354 0.09957 0.31546 0.0
H1518 H 0.78492 0.1348 0.32564 0.0
C1519 C 0.74404 0.08149 0.30355 0.0
C1520 C 0.76743 0.08241 0.29989 0.0
H1521 H 0.71732 0.09834 0.31821 0.0
H1522 H 0.73244 0.06671 0.29748 0.0
C1523 C 0.78197 0.10184 0.30806 0.0
C1524 C 0.45696 0.23098 0.37948 0.0
C1525 C 0.43842 0.23671 0.36692 0.0
H1526 H 0.49307 0.23361 0.38391 0.0
C1527 C 0.44261 0.25063 0.34918 0.0
H1528 H 0.45432 0.22034 0.3933 0.0
C1529 C 0.46488 0.25837 0.34389 0.0
C1530 C 0.48345 0.25243 0.35628 0.0
H1531 H 0.4287 0.25547 0.33926 0.0
H1532 H 0.46757 0.26899 0.33008 0.0
C1533 C 0.47921 0.23879 0.37426 0.0
C1534 C 0.31567 0.93735 0.31496 0.0
C1535 C 0.33075 0.93845 0.33427 0.0
H1536 H 0.29799 0.95536 0.29207 0.0
C1537 C 0.34155 0.95945 0.34376 0.0
H1538 H 0.30717 0.92145 0.3071 0.0
C1539 C 0.33626 0.97894 0.33516 0.0
C1540 C 0.32014 0.97792 0.31676 0.0
H1541 H 0.35336 0.96095 0.35854 0.0
H1542 H 0.34408 -0.00514 0.34364 0.0
C1543 C 0.3105 0.95683 0.30624 0.0
C1544 C 0.76441 0.08758 0.75275 0.0
C1545 C 0.75018 0.08466 0.73262 0.0
H1546 H 0.78277 0.07205 0.77744 0.0
C1547 C 0.74561 0.06326 0.7205 0.0
H1548 H 0.76836 0.10384 0.76249 0.0
C1549 C 0.75401 0.04504 0.72898 0.0
C1550 C 0.76715 0.04771 0.74986 0.0
H1551 H 0.73487 0.0604 0.70485 0.0
H1552 H 0.74932 0.02868 0.71967 0.0
C1553 C 0.77278 0.06933 0.76128 0.0
C1554 C 0.72769 0.9254 0.32629 0.0
C1555 C 0.70592 0.9209 0.31542 0.0
H1556 H 0.75946 0.94675 0.32997 0.0
C1557 C 0.69957 0.93539 0.29973 0.0
H1558 H 0.73317 0.91459 0.33844 0.0
C1559 C 0.71461 0.9538 0.29492 0.0
C1560 C 0.7364 0.9583 0.30571 0.0
H1561 H 0.68293 0.93252 0.29106 0.0
H1562 H 0.70903 0.96467 0.28292 0.0
C1563 C 0.74274 0.94392 0.32153 0.0
C1564 C 0.64295 0.2157 0.32221 0.0
C1565 C 0.63319 0.20152 0.33798 0.0
H1566 H 0.63746 0.23813 0.29716 0.0
C1567 C 0.60935 0.19757 0.33864 0.0
H1568 H 0.66123 0.21897 0.32108 0.0
C1569 C 0.59566 0.20857 0.32489 0.0
C1570 C 0.6055 0.22375 0.3101 0.0
H1571 H 0.60122 0.18663 0.35046 0.0
H1572 H 0.57742 0.20589 0.32662 0.0
C1573 C 0.62927 0.22664 0.30841 0.0
C1574 C 0.2909 0.10905 0.39752 0.0
C1575 C 0.31039 0.12095 0.38923 0.0
H1576 H 0.26587 0.08019 0.39239 0.0
C1577 C 0.3199 0.11202 0.369 0.0
H1578 H 0.28311 0.11545 0.41306 0.0
C1579 C 0.31005 0.09175 0.35723 0.0
C1580 C 0.29044 0.07991 0.36538 0.0
H1581 H 0.33497 0.12067 0.3622 0.0
H1582 H 0.31802 0.08529 0.34186 0.0
C1583 C 0.28105 0.08875 0.38574 0.0
C1584 C 0.39734 0.83035 0.33558 0.0
C1585 C 0.38118 0.8219 0.35084 0.0
H1586 H 0.42562 0.82435 0.31476 0.0
C1587 C 0.38101 0.79981 0.356 0.0
H1588 H 0.39802 0.84732 0.33129 0.0
C1589 C 0.39666 0.78656 0.34638 0.0
C1590 C 0.41311 0.79502 0.33141 0.0
H1591 H 0.36871 0.79262 0.36752 0.0
H1592 H 0.39565 0.76959 0.35063 0.0
C1593 C 0.41316 0.8171 0.32603 0.0
C1594 C 0.34851 0.92832 0.74058 0.0
C1595 C 0.33442 0.91576 0.72283 0.0
H1596 H 0.35222 0.95559 0.76743 0.0
C1597 C 0.31259 0.92155 0.71877 0.0
H1598 H 0.36542 0.92432 0.74417 0.0
C1599 C 0.30502 0.93945 0.73208 0.0
C1600 C 0.31909 0.95204 0.7498 0.0
H1601 H 0.30126 0.91226 0.70526 0.0
H1602 H 0.2881 0.9434 0.72843 0.0
C1603 C 0.34093 0.94627 0.7539 0.0
C1604 C 0.62125 0.7782 0.69487 0.0
C1605 C 0.64431 0.78643 0.69981 0.0
H1606 H 0.58886 0.76764 0.70876 0.0
C1607 C 0.65275 0.78821 0.72287 0.0
H1608 H 0.61425 0.77656 0.67726 0.0
C1609 C 0.63826 0.7834 0.74074 0.0
C1610 C 0.61503 0.77634 0.73601 0.0
H1611 H 0.67041 0.79432 0.72735 0.0
H1612 H 0.64516 0.78589 0.75842 0.0
C1613 C 0.60673 0.77303 0.71285 0.0
C1614 C 0.44539 0.20574 0.68959 0.0
C1615 C 0.42625 0.21667 0.69411 0.0
H1616 H 0.48079 0.20513 0.69649 0.0
C1617 C 0.42917 0.23738 0.70772 0.0
H1618 H 0.44377 0.18988 0.67894 0.0
C1619 C 0.45048 0.2461 0.71804 0.0
C1620 C 0.46932 0.23439 0.71469 0.0
H1621 H 0.41476 0.24624 0.71148 0.0
H1622 H 0.45192 0.26146 0.7295 0.0
C1623 C 0.46668 0.21456 0.6996 0.0
C1624 C 0.7164 0.69043 0.14944 0.0
C1625 C 0.69477 0.69437 0.15691 0.0
H1626 H 0.74169 0.69557 0.1241 0.0
C1627 C 0.68202 0.70699 0.14379 0.0
H1628 H 0.72668 0.68079 0.15909 0.0
C1629 C 0.69064 0.71554 0.12387 0.0
C1630 C 0.71229 0.71177 0.11641 0.0
H1631 H 0.66533 0.71047 0.14898 0.0
H1632 H 0.68041 0.72545 0.11454 0.0
C1633 C 0.72507 0.69906 0.12945 0.0
C1634 C 0.31605 0.68983 0.0647 0.0
C1635 C 0.30746 0.69748 0.08598 0.0
H1636 H 0.31816 0.69297 0.0284 0.0
C1637 C 0.29249 0.71365 0.08622 0.0
H1638 H 0.32747 0.67727 0.06383 0.0
C1639 C 0.28712 0.72271 0.06582 0.0
C1640 C 0.29653 0.71574 0.04471 0.0
H1641 H 0.28546 0.71983 0.1023 0.0
H1642 H 0.27624 0.73575 0.0668 0.0
C1643 C 0.31061 0.6988 0.04432 0.0
C1644 C 0.34939 0.24892 0.14237 0.0
C1645 C 0.35479 0.27223 0.14453 0.0
H1646 H 0.33112 0.22007 0.12266 0.0
C1647 C 0.34833 0.28402 0.12644 0.0
H1648 H 0.35419 0.23941 0.15608 0.0
C1649 C 0.3355 0.27301 0.10725 0.0
C1650 C 0.32845 0.24994 0.10586 0.0
H1651 H 0.3525 0.30196 0.12748 0.0
H1652 H 0.3301 0.28287 0.09412 0.0
C1653 C 0.33617 0.23787 0.12324 0.0
C1654 C 0.74889 0.31093 0.11862 0.0
C1655 C 0.73055 0.32295 0.12337 0.0
H1656 H 0.76724 0.29375 0.09279 0.0
C1657 C 0.716 0.32626 0.1049 0.0
H1658 H 0.76037 0.30798 0.13244 0.0
C1659 C 0.71992 0.31801 0.08214 0.0
C1660 C 0.73858 0.30645 0.07735 0.0
H1661 H 0.70167 0.3354 0.10798 0.0
H1662 H 0.70872 0.32123 0.06822 0.0
C1663 C 0.75289 0.30284 0.09588 0.0
C1664 C 0.76531 0.34257 0.92426 0.0
C1665 C 0.75059 0.35887 0.92777 0.0
H1666 H 0.78597 0.32125 0.93981 0.0
C1667 C 0.74734 0.36777 0.95061 0.0
H1668 H 0.76831 0.33541 0.90691 0.0
C1669 C 0.75752 0.35968 0.96951 0.0
C1670 C 0.77121 0.34247 0.96605 0.0
H1671 H 0.73623 0.38043 0.95398 0.0
H1672 H 0.75387 0.36632 0.98686 0.0
C1673 C 0.77551 0.33447 0.94317 0.0
C1674 C 0.73535 0.67578 0.97105 0.0
C1675 C 0.75145 0.68319 0.95528 0.0
H1676 H 0.72727 0.67403 0.00654 0.0
C1677 C 0.77336 0.6925 0.96373 0.0
H1678 H 0.71843 0.66828 0.96503 0.0
C1679 C 0.77841 0.69609 0.98764 0.0
C1680 C 0.76175 0.69009 0.00351 0.0
H1681 H 0.78615 0.6983 0.95197 0.0
H1682 H 0.79494 0.70466 0.9937 0.0
C1683 C 0.74052 0.67896 0.99488 0.0
C1684 C 0.37877 0.73599 0.91662 0.0
C1685 C 0.36637 0.71598 0.90643 0.0
H1686 H 0.38033 0.76365 0.94282 0.0
C1687 C 0.34537 0.7086 0.91549 0.0
H1688 H 0.39497 0.74223 0.90995 0.0
C1689 C 0.33704 0.7208 0.93441 0.0
C1690 C 0.34943 0.7408 0.94468 0.0
H1691 H 0.33501 0.69369 0.90769 0.0
H1692 H 0.32089 0.71441 0.94101 0.0
C1693 C 0.37045 0.74821 0.93557 0.0
C1694 C 0.31451 0.33228 0.97671 0.0
C1695 C 0.31404 0.31846 0.95571 0.0
H1696 H 0.3045 0.33558 0.01193 0.0
C1697 C 0.30122 0.29722 0.95403 0.0
H1698 H 0.32418 0.34875 0.97862 0.0
C1699 C 0.28993 0.28966 0.97319 0.0
C1700 C 0.29104 0.3032 0.99443 0.0
H1701 H 0.30041 0.28615 0.9381 0.0
H1702 H 0.28055 0.27308 0.97147 0.0
C1703 C 0.3031 0.32477 0.99582 0.0
C1704 C 0.57811 0.72967 0.23853 0.0
C1705 C 0.58761 0.71072 0.24381 0.0
H1706 H 0.55077 0.74893 0.24271 0.0
C1707 C 0.5763 0.69686 0.25903 0.0
H1708 H 0.58628 0.7407 0.22683 0.0
C1709 C 0.55575 0.70175 0.26847 0.0
C1710 C 0.54609 0.72059 0.26289 0.0
H1711 H 0.5832 0.68215 0.26349 0.0
H1712 H 0.54745 0.69077 0.28012 0.0
C1713 C 0.55768 0.73451 0.24787 0.0
C1714 C 0.35921 0.57819 0.21995 0.0
C1715 C 0.3395 0.58817 0.21618 0.0
H1716 H 0.37422 0.55336 0.23666 0.0
C1717 C 0.31933 0.57998 0.22635 0.0
H1718 H 0.37507 0.58419 0.21247 0.0
C1719 C 0.31886 0.56231 0.24001 0.0
C1720 C 0.3386 0.55253 0.24407 0.0
H1721 H 0.30387 0.58731 0.22388 0.0
H1722 H 0.3031 0.55664 0.24785 0.0
C1723 C 0.35881 0.56067 0.23392 0.0
C1724 C 0.45444 0.2456 0.24836 0.0
C1725 C 0.45624 0.26464 0.23634 0.0
H1726 H 0.47169 0.22437 0.26792 0.0
C1727 C 0.47799 0.27581 0.23315 0.0
H1728 H 0.43797 0.2365 0.25101 0.0
C1729 C 0.49736 0.26887 0.24289 0.0
C1730 C 0.49546 0.2505 0.25592 0.0
H1731 H 0.48003 0.29047 0.22389 0.0
H1732 H 0.51375 0.27844 0.24093 0.0
C1733 C 0.47383 0.23855 0.25795 0.0
C1734 C 0.74451 0.44514 0.21461 0.0
C1735 C 0.75278 0.42444 0.21344 0.0
H1736 H 0.74874 0.4791 0.2294 0.0
C1737 C 0.77419 0.42332 0.22391 0.0
H1738 H 0.72823 0.44672 0.20653 0.0
C1739 C 0.78607 0.44204 0.23699 0.0
C1740 C 0.77667 0.46215 0.2399 0.0
H1741 H 0.78115 0.40767 0.22321 0.0
H1742 H 0.80178 0.44029 0.24611 0.0
C1743 C 0.75628 0.46375 0.22774 0.0
C1744 C 0.59938 0.31679 0.82744 0.0
C1745 C 0.60551 0.33309 0.81247 0.0
H1746 H 0.57611 0.28869 0.83425 0.0
C1747 C 0.59176 0.33352 0.79243 0.0
H1748 H 0.60952 0.316 0.84304 0.0
C1749 C 0.57247 0.31776 0.78732 0.0
C1750 C 0.56656 0.3013 0.80218 0.0
H1751 H 0.59599 0.3459 0.78054 0.0
H1752 H 0.56238 0.31834 0.77164 0.0
C1753 C 0.58015 0.30112 0.82237 0.0
C1754 C 0.74397 0.6037 0.83081 0.0
C1755 C 0.7627 0.61987 0.83732 0.0
H1756 H 0.73184 0.57227 0.81187 0.0
C1757 C 0.78446 0.61556 0.83056 0.0
H1758 H 0.727 0.6064 0.83579 0.0
C1759 C 0.78728 0.59577 0.81696 0.0
C1760 C 0.76836 0.58006 0.80968 0.0
H1761 H 0.79926 0.62765 0.83541 0.0
H1762 H 0.80413 0.59317 0.81145 0.0
C1763 C 0.74676 0.5841 0.81708 0.0
C1764 C 0.46984 0.71592 0.79603 0.0
C1765 C 0.4663 0.70365 0.81517 0.0
H1766 H 0.49397 0.73256 0.77475 0.0
C1767 C 0.48517 0.69712 0.82648 0.0
H1768 H 0.45564 0.72102 0.78678 0.0
C1769 C 0.50719 0.70373 0.81959 0.0
C1770 C 0.51081 0.71691 0.80114 0.0
H1771 H 0.48302 0.6875 0.84117 0.0
H1772 H 0.52141 0.69919 0.82928 0.0
C1773 C 0.49184 0.72239 0.78902 0.0
C1774 C 0.32586 0.41049 0.81364 0.0
C1775 C 0.34571 0.41208 0.82777 0.0
H1776 H 0.30428 0.42746 0.79344 0.0
C1777 C 0.35968 0.4327 0.83152 0.0
H1778 H 0.31472 0.39489 0.81036 0.0
C1779 C 0.35372 0.45136 0.82171 0.0
C1780 C 0.33352 0.44992 0.80813 0.0
H1781 H 0.37509 0.43452 0.8423 0.0
H1782 H 0.36458 0.46708 0.82537 0.0
C1783 C 0.31979 0.4292 0.80404 0.0
C1784 C 0.6924 0.58654 0.25512 0.0
C1785 C 0.70682 0.60677 0.25516 0.0
H1786 H 0.68803 0.55345 0.26531 0.0
C1787 C 0.72858 0.60877 0.26592 0.0
H1788 H 0.67551 0.58445 0.24706 0.0
C1789 C 0.73577 0.59094 0.2763 0.0
C1790 C 0.72127 0.5708 0.27646 0.0
H1791 H 0.7401 0.62412 0.26632 0.0
H1792 H 0.75259 0.59301 0.28451 0.0
C1793 C 0.69949 0.56883 0.26577 0.0
C1794 C 0.70391 0.43747 0.80343 0.0
C1795 C 0.71808 0.43046 0.8203 0.0
H1796 H 0.7007 0.45914 0.77712 0.0
C1797 C 0.74054 0.44108 0.8237 0.0
H1798 H 0.68645 0.42982 0.80039 0.0
C1799 C 0.74873 0.45797 0.81016 0.0
C1800 C 0.73464 0.46455 0.79293 0.0
H1801 H 0.75191 0.43609 0.8365 0.0
H1802 H 0.76627 0.46541 0.81276 0.0
C1803 C 0.71209 0.45425 0.78994 0.0
C1804 C 0.65485 0.75386 0.87384 0.0
C1805 C 0.66019 0.73268 0.86561 0.0
H1806 H 0.63389 0.77939 0.87002 0.0
C1807 C 0.64774 0.72096 0.84625 0.0
H1808 H 0.66414 0.76344 0.88864 0.0
C1809 C 0.63016 0.73011 0.83562 0.0
C1810 C 0.62461 0.7512 0.84407 0.0
H1811 H 0.65135 0.70458 0.83948 0.0
H1812 H 0.62064 0.72039 0.82108 0.0
C1813 C 0.63734 0.76299 0.86322 0.0
C1814 C 0.28323 0.59215 0.85216 0.0
C1815 C 0.30078 0.59658 0.86936 0.0
H1816 H 0.26487 0.56817 0.82673 0.0
C1817 C 0.31146 0.57877 0.87607 0.0
H1818 H 0.2745 0.60543 0.84671 0.0
C1819 C 0.30587 0.55732 0.86462 0.0
C1820 C 0.28955 0.55328 0.8462 0.0
H1821 H 0.32492 0.58158 0.88939 0.0
H1822 H 0.31522 0.54421 0.86941 0.0
C1823 C 0.2777 0.57075 0.84069 0.0
C1824 C 0.4145 0.28317 0.85416 0.0
C1825 C 0.41124 0.30382 0.84659 0.0
H1826 H 0.43393 0.25585 0.852 0.0
C1827 C 0.42613 0.31277 0.83046 0.0
H1828 H 0.40334 0.27568 0.86652 0.0
C1829 C 0.44389 0.30137 0.82223 0.0
C1830 C 0.44718 0.28073 0.82989 0.0
H1831 H 0.42421 0.32866 0.82432 0.0
H1832 H 0.45522 0.30896 0.81012 0.0
C1833 C 0.43219 0.27179 0.84594 0.0
C1834 C 0.34984 0.39918 0.24948 0.0
C1835 C 0.33431 0.38754 0.23249 0.0
H1836 H 0.35774 0.42751 0.2745 0.0
C1837 C 0.31394 0.39625 0.22802 0.0
H1838 H 0.36568 0.39301 0.25341 0.0
C1839 C 0.3093 0.4162 0.24022 0.0
C1840 C 0.32498 0.42787 0.25709 0.0
H1841 H 0.30157 0.3877 0.21503 0.0
H1842 H 0.29354 0.42251 0.23636 0.0
C1843 C 0.34525 0.41905 0.26158 0.0
C1844 C 0.65049 0.35117 0.27146 0.0
C1845 C 0.64789 0.34841 0.24715 0.0
H1846 H 0.63713 0.34286 0.30371 0.0
C1847 C 0.62856 0.33498 0.23677 0.0
H1848 H 0.6652 0.36135 0.28005 0.0
C1849 C 0.61222 0.3245 0.25044 0.0
C1850 C 0.61488 0.32716 0.27479 0.0
H1851 H 0.62598 0.33262 0.21808 0.0
H1852 H 0.59743 0.31445 0.24189 0.0
C1853 C 0.63423 0.34066 0.28509 0.0
C1854 C 0.38935 0.73647 0.19847 0.0
C1855 C 0.39565 0.71552 0.19081 0.0
H1856 H 0.39853 0.76758 0.2195 0.0
C1857 C 0.41774 0.7112 0.19623 0.0
H1858 H 0.37244 0.74029 0.19456 0.0
C1859 C 0.4327 0.72682 0.21025 0.0
C1860 C 0.42586 0.74708 0.21949 0.0
H1861 H 0.42321 0.69532 0.19035 0.0
H1862 H 0.44924 0.72245 0.21481 0.0
C1863 C 0.40429 0.75208 0.21281 0.0
loop_
_geom_bond_atom_site_label_1
_geom_bond_atom_site_label_2
_geom_bond_distance
_geom_bond_site_symmetry_2
_ccdc_geom_bond_type
O0 Cd1 2.300 . S
O0 C7 1.275 . S
Cd1 O0 2.300 . S
Cd1 O9 2.381 . S
Cd1 O10 2.378 . S
O2 Cd3 2.385 . S
O2 C7 1.255 . S
Cd3 O2 2.385 . S
Cd3 O4 2.317 . S
O4 Cd3 2.317 . S
O4 C5 1.232 . S
C5 O4 1.232 . S
C5 O6 1.218 . S
O6 C5 1.218 . S
C7 O0 1.275 . S
C7 O2 1.255 . S
C8 O9 1.258 . S
C8 O10 1.256 . S
O9 Cd1 2.381 . S
O9 C8 1.258 . S
O10 Cd1 2.378 . S
O10 C8 1.256 . S
O11 Cd12 2.300 . S
O11 C18 1.275 . S
Cd12 O11 2.300 . S
Cd12 O20 2.381 . S
Cd12 O21 2.378 . S
O13 Cd14 2.385 . S
O13 C18 1.255 . S
Cd14 O13 2.385 . S
Cd14 O15 2.317 . S
O15 Cd14 2.317 . S
O15 C16 1.232 . S
C16 O15 1.232 . S
C16 O17 1.218 . S
O17 C16 1.218 . S
C18 O11 1.275 . S
C18 O13 1.255 . S
C19 O20 1.258 . S
C19 O21 1.256 . S
O20 Cd12 2.381 . S
O20 C19 1.258 . S
O21 Cd12 2.378 . S
O21 C19 1.256 . S
O22 Cd23 2.300 . S
O22 C29 1.275 . S
Cd23 O22 2.300 . S
Cd23 O31 2.381 . S
Cd23 O32 2.378 . S
O24 Cd25 2.385 . S
O24 C29 1.255 . S
Cd25 O24 2.385 . S
Cd25 O26 2.317 . S
O26 Cd25 2.317 . S
O26 C27 1.232 . S
C27 O26 1.232 . S
C27 O28 1.218 . S
O28 C27 1.218 . S
C29 O22 1.275 . S
C29 O24 1.255 . S
C30 O31 1.258 . S
C30 O32 1.256 . S
O31 Cd23 2.381 . S
O31 C30 1.258 . S
O32 Cd23 2.378 . S
O32 C30 1.256 . S
O33 Cd34 2.300 . S
O33 C40 1.275 . S
Cd34 O33 2.300 . S
Cd34 O42 2.381 . S
Cd34 O43 2.378 . S
O35 Cd36 2.385 . S
O35 C40 1.255 . S
Cd36 O35 2.385 . S
Cd36 O37 2.317 . S
O37 Cd36 2.317 . S
O37 C38 1.232 . S
C38 O37 1.232 . S
C38 O39 1.218 . S
O39 C38 1.218 . S
C40 O33 1.275 . S
C40 O35 1.255 . S
C41 O42 1.258 . S
C41 O43 1.256 . S
O42 Cd34 2.381 . S
O42 C41 1.258 . S
O43 Cd34 2.378 . S
O43 C41 1.256 . S
O44 Cd45 2.300 . S
O44 C51 1.275 . S
Cd45 O44 2.300 . S
Cd45 O53 2.381 . S
Cd45 O54 2.378 . S
O46 Cd47 2.385 . S
O46 C51 1.255 . S
Cd47 O46 2.385 . S
Cd47 O48 2.317 . S
O48 Cd47 2.317 . S
O48 C49 1.232 . S
C49 O48 1.232 . S
C49 O50 1.218 . S
O50 C49 1.218 . S
C51 O44 1.275 . S
C51 O46 1.255 . S
C52 O53 1.258 . S
C52 O54 1.256 . S
O53 Cd45 2.381 . S
O53 C52 1.258 . S
O54 Cd45 2.378 . S
O54 C52 1.256 . S
O55 Cd56 2.300 . S
O55 C62 1.275 . S
Cd56 O55 2.300 . S
Cd56 O64 2.381 . S
Cd56 O65 2.378 . S
O57 Cd58 2.385 . S
O57 C62 1.255 . S
Cd58 O57 2.385 . S
Cd58 O59 2.317 . S
O59 Cd58 2.317 . S
O59 C60 1.232 . S
C60 O59 1.232 . S
C60 O61 1.218 . S
O61 C60 1.218 . S
C62 O55 1.275 . S
C62 O57 1.255 . S
C63 O64 1.258 . S
C63 O65 1.256 . S
O64 Cd56 2.381 . S
O64 C63 1.258 . S
O65 Cd56 2.378 . S
O65 C63 1.256 . S
O66 Cd67 2.300 . S
O66 C73 1.275 . S
Cd67 O66 2.300 . S
Cd67 O75 2.381 . S
Cd67 O76 2.378 . S
O68 Cd69 2.385 . S
O68 C73 1.255 . S
Cd69 O68 2.385 . S
Cd69 O70 2.317 . S
O70 Cd69 2.317 . S
O70 C71 1.232 . S
C71 O70 1.232 . S
C71 O72 1.218 . S
O72 C71 1.218 . S
C73 O66 1.275 . S
C73 O68 1.255 . S
C74 O75 1.258 . S
C74 O76 1.256 . S
O75 Cd67 2.381 . S
O75 C74 1.258 . S
O76 Cd67 2.378 . S
O76 C74 1.256 . S
O77 Cd78 2.300 . S
O77 C84 1.275 . S
Cd78 O77 2.300 . S
Cd78 O86 2.381 . S
Cd78 O87 2.378 . S
O79 Cd80 2.385 . S
O79 C84 1.255 . S
Cd80 O79 2.385 . S
Cd80 O81 2.317 . S
O81 Cd80 2.317 . S
O81 C82 1.232 . S
C82 O81 1.232 . S
C82 O83 1.218 . S
O83 C82 1.218 . S
C84 O77 1.275 . S
C84 O79 1.255 . S
C85 O86 1.258 . S
C85 O87 1.256 . S
O86 Cd78 2.381 . S
O86 C85 1.258 . S
O87 Cd78 2.378 . S
O87 C85 1.256 . S
O88 Cd89 2.300 . S
O88 C95 1.275 . S
Cd89 O88 2.300 . S
Cd89 O97 2.381 . S
Cd89 O98 2.378 . S
O90 Cd91 2.385 . S
O90 C95 1.255 . S
Cd91 O90 2.385 . S
Cd91 O92 2.317 . S
O92 Cd91 2.317 . S
O92 C93 1.232 . S
C93 O92 1.232 . S
C93 O94 1.218 . S
O94 C93 1.218 . S
C95 O88 1.275 . S
C95 O90 1.255 . S
C96 O97 1.258 . S
C96 O98 1.256 . S
O97 Cd89 2.381 . S
O97 C96 1.258 . S
O98 Cd89 2.378 . S
O98 C96 1.256 . S
O99 Cd100 2.300 . S
O99 C106 1.275 . S
Cd100 O99 2.300 . S
Cd100 O108 2.381 . S
Cd100 O109 2.378 . S
O101 Cd102 2.385 . S
O101 C106 1.255 . S
Cd102 O101 2.385 . S
Cd102 O103 2.317 . S
O103 Cd102 2.317 . S
O103 C104 1.232 . S
C104 O103 1.232 . S
C104 O105 1.218 . S
O105 C104 1.218 . S
C106 O99 1.275 . S
C106 O101 1.255 . S
C107 O108 1.258 . S
C107 O109 1.256 . S
O108 Cd100 2.381 . S
O108 C107 1.258 . S
O109 Cd100 2.378 . S
O109 C107 1.256 . S
O110 Cd111 2.300 . S
O110 C117 1.275 . S
Cd111 O110 2.300 . S
Cd111 O119 2.381 . S
Cd111 O120 2.378 . S
O112 Cd113 2.385 . S
O112 C117 1.255 . S
Cd113 O112 2.385 . S
Cd113 O114 2.317 . S
O114 Cd113 2.317 . S
O114 C115 1.232 . S
C115 O114 1.232 . S
C115 O116 1.218 . S
O116 C115 1.218 . S
C117 O110 1.275 . S
C117 O112 1.255 . S
C118 O119 1.258 . S
C118 O120 1.256 . S
O119 Cd111 2.381 . S
O119 C118 1.258 . S
O120 Cd111 2.378 . S
O120 C118 1.256 . S
O121 Cd122 2.300 . S
O121 C128 1.275 . S
Cd122 O121 2.300 . S
Cd122 O130 2.381 . S
Cd122 O131 2.378 . S
O123 Cd124 2.385 . S
O123 C128 1.255 . S
Cd124 O123 2.385 . S
Cd124 O125 2.317 . S
O125 Cd124 2.317 . S
O125 C126 1.232 . S
C126 O125 1.232 . S
C126 O127 1.218 . S
O127 C126 1.218 . S
C128 O121 1.275 . S
C128 O123 1.255 . S
C129 O130 1.258 . S
C129 O131 1.256 . S
O130 Cd122 2.381 . S
O130 C129 1.258 . S
O131 Cd122 2.378 . S
O131 C129 1.256 . S
O132 Cd133 2.300 . S
O132 C139 1.275 . S
Cd133 O132 2.300 . S
Cd133 O141 2.381 . S
Cd133 O142 2.378 . S
O134 Cd135 2.385 . S
O134 C139 1.255 . S
Cd135 O134 2.385 . S
Cd135 O136 2.317 . S
O136 Cd135 2.317 . S
O136 C137 1.232 . S
C137 O136 1.232 . S
C137 O138 1.218 . S
O138 C137 1.218 . S
C139 O132 1.275 . S
C139 O134 1.255 . S
C140 O141 1.258 . S
C140 O142 1.256 . S
O141 Cd133 2.381 . S
O141 C140 1.258 . S
O142 Cd133 2.378 . S
O142 C140 1.256 . S
O143 Cd144 2.300 . S
O143 C150 1.275 . S
Cd144 O143 2.300 . S
Cd144 O152 2.381 . S
Cd144 O153 2.378 . S
O145 Cd146 2.385 . S
O145 C150 1.255 . S
Cd146 O145 2.385 . S
Cd146 O147 2.317 . S
O147 Cd146 2.317 . S
O147 C148 1.232 . S
C148 O147 1.232 . S
C148 O149 1.218 . S
O149 C148 1.218 . S
C150 O143 1.275 . S
C150 O145 1.255 . S
C151 O152 1.258 . S
C151 O153 1.256 . S
O152 Cd144 2.381 . S
O152 C151 1.258 . S
O153 Cd144 2.378 . S
O153 C151 1.256 . S
O154 Cd155 2.300 . S
O154 C161 1.275 . S
Cd155 O154 2.300 . S
Cd155 O163 2.381 . S
Cd155 O164 2.378 . S
O156 Cd157 2.385 . S
O156 C161 1.255 . S
Cd157 O156 2.385 . S
Cd157 O158 2.317 . S
O158 Cd157 2.317 . S
O158 C159 1.232 . S
C159 O158 1.232 . S
C159 O160 1.218 . S
O160 C159 1.218 . S
C161 O154 1.275 . S
C161 O156 1.255 . S
C162 O163 1.258 . S
C162 O164 1.256 . S
O163 Cd155 2.381 . S
O163 C162 1.258 . S
O164 Cd155 2.378 . S
O164 C162 1.256 . S
O165 Cd166 2.300 . S
O165 C172 1.275 . S
Cd166 O165 2.300 . S
Cd166 O174 2.381 . S
Cd166 O175 2.378 . S
O167 Cd168 2.385 . S
O167 C172 1.255 . S
Cd168 O167 2.385 . S
Cd168 O169 2.317 . S
O169 Cd168 2.317 . S
O169 C170 1.232 . S
C170 O169 1.232 . S
C170 O171 1.218 . S
O171 C170 1.218 . S
C172 O165 1.275 . S
C172 O167 1.255 . S
C173 O174 1.258 . S
C173 O175 1.256 . S
O174 Cd166 2.381 . S
O174 C173 1.258 . S
O175 Cd166 2.378 . S
O175 C173 1.256 . S
O176 Cd177 2.300 . S
O176 C183 1.275 . S
Cd177 O176 2.300 . S
Cd177 O185 2.381 . S
Cd177 O186 2.378 . S
O178 Cd179 2.385 . S
O178 C183 1.255 . S
Cd179 O178 2.385 . S
Cd179 O180 2.317 . S
O180 Cd179 2.317 . S
O180 C181 1.232 . S
C181 O180 1.232 . S
C181 O182 1.218 . S
O182 C181 1.218 . S
C183 O176 1.275 . S
C183 O178 1.255 . S
C184 O185 1.258 . S
C184 O186 1.256 . S
O185 Cd177 2.381 . S
O185 C184 1.258 . S
O186 Cd177 2.378 . S
O186 C184 1.256 . S
O187 Cd188 2.300 . S
O187 C194 1.275 . S
Cd188 O187 2.300 . S
Cd188 O196 2.381 . S
Cd188 O197 2.378 . S
O189 Cd190 2.385 . S
O189 C194 1.255 . S
Cd190 O189 2.385 . S
Cd190 O191 2.317 . S
O191 Cd190 2.317 . S
O191 C192 1.232 . S
C192 O191 1.232 . S
C192 O193 1.218 . S
O193 C192 1.218 . S
C194 O187 1.275 . S
C194 O189 1.255 . S
C195 O196 1.258 . S
C195 O197 1.256 . S
O196 Cd188 2.381 . S
O196 C195 1.258 . S
O197 Cd188 2.378 . S
O197 C195 1.256 . S
O198 Cd199 2.300 . S
O198 C205 1.275 . S
Cd199 O198 2.300 . S
Cd199 O207 2.381 . S
Cd199 O208 2.378 . S
O200 Cd201 2.385 . S
O200 C205 1.255 . S
Cd201 O200 2.385 . S
Cd201 O202 2.317 . S
O202 Cd201 2.317 . S
O202 C203 1.232 . S
C203 O202 1.232 . S
C203 O204 1.218 . S
O204 C203 1.218 . S
C205 O198 1.275 . S
C205 O200 1.255 . S
C206 O207 1.258 . S
C206 O208 1.256 . S
O207 Cd199 2.381 . S
O207 C206 1.258 . S
O208 Cd199 2.378 . S
O208 C206 1.256 . S
O209 Cd210 2.300 . S
O209 C216 1.275 . S
Cd210 O209 2.300 . S
Cd210 O218 2.381 . S
Cd210 O219 2.378 . S
O211 Cd212 2.385 . S
O211 C216 1.255 . S
Cd212 O211 2.385 . S
Cd212 O213 2.317 . S
O213 Cd212 2.317 . S
O213 C214 1.232 . S
C214 O213 1.232 . S
C214 O215 1.218 . S
O215 C214 1.218 . S
C216 O209 1.275 . S
C216 O211 1.255 . S
C217 O218 1.258 . S
C217 O219 1.256 . S
O218 Cd210 2.381 . S
O218 C217 1.258 . S
O219 Cd210 2.378 . S
O219 C217 1.256 . S
O220 Cd221 2.300 . S
O220 C227 1.275 . S
Cd221 O220 2.300 . S
Cd221 O229 2.381 . S
Cd221 O230 2.378 . S
O222 Cd223 2.385 . S
O222 C227 1.255 . S
Cd223 O222 2.385 . S
Cd223 O224 2.317 . S
O224 Cd223 2.317 . S
O224 C225 1.232 . S
C225 O224 1.232 . S
C225 O226 1.218 . S
O226 C225 1.218 . S
C227 O220 1.275 . S
C227 O222 1.255 . S
C228 O229 1.258 . S
C228 O230 1.256 . S
O229 Cd221 2.381 . S
O229 C228 1.258 . S
O230 Cd221 2.378 . S
O230 C228 1.256 . S
O231 Cd232 2.300 . S
O231 C238 1.275 . S
Cd232 O231 2.300 . S
Cd232 O240 2.381 . S
Cd232 O241 2.378 . S
O233 Cd234 2.385 . S
O233 C238 1.255 . S
Cd234 O233 2.385 . S
Cd234 O235 2.317 . S
O235 Cd234 2.317 . S
O235 C236 1.232 . S
C236 O235 1.232 . S
C236 O237 1.218 . S
O237 C236 1.218 . S
C238 O231 1.275 . S
C238 O233 1.255 . S
C239 O240 1.258 . S
C239 O241 1.256 . S
O240 Cd232 2.381 . S
O240 C239 1.258 . S
O241 Cd232 2.378 . S
O241 C239 1.256 . S
O242 Cd243 2.300 . S
O242 C249 1.275 . S
Cd243 O242 2.300 . S
Cd243 O251 2.381 . S
Cd243 O252 2.378 . S
O244 Cd245 2.385 . S
O244 C249 1.255 . S
Cd245 O244 2.385 . S
Cd245 O246 2.317 . S
O246 Cd245 2.317 . S
O246 C247 1.232 . S
C247 O246 1.232 . S
C247 O248 1.218 . S
O248 C247 1.218 . S
C249 O242 1.275 . S
C249 O244 1.255 . S
C250 O251 1.258 . S
C250 O252 1.256 . S
O251 Cd243 2.381 . S
O251 C250 1.258 . S
O252 Cd243 2.378 . S
O252 C250 1.256 . S
O253 Cd254 2.300 . S
O253 C260 1.275 . S
Cd254 O253 2.300 . S
Cd254 O262 2.381 . S
Cd254 O263 2.378 . S
O255 Cd256 2.385 . S
O255 C260 1.255 . S
Cd256 O255 2.385 . S
Cd256 O257 2.317 . S
O257 Cd256 2.317 . S
O257 C258 1.232 . S
C258 O257 1.232 . S
C258 O259 1.218 . S
O259 C258 1.218 . S
C260 O253 1.275 . S
C260 O255 1.255 . S
C261 O262 1.258 . S
C261 O263 1.256 . S
O262 Cd254 2.381 . S
O262 C261 1.258 . S
O263 Cd254 2.378 . S
O263 C261 1.256 . S
O264 Cd265 2.300 . S
O264 C271 1.275 . S
Cd265 O264 2.300 . S
Cd265 O273 2.381 . S
Cd265 O274 2.378 . S
O266 Cd267 2.385 . S
O266 C271 1.255 . S
Cd267 O266 2.385 . S
Cd267 O268 2.317 . S
O268 Cd267 2.317 . S
O268 C269 1.232 . S
C269 O268 1.232 . S
C269 O270 1.218 . S
O270 C269 1.218 . S
C271 O264 1.275 . S
C271 O266 1.255 . S
C272 O273 1.258 . S
C272 O274 1.256 . S
O273 Cd265 2.381 . S
O273 C272 1.258 . S
O274 Cd265 2.378 . S
O274 C272 1.256 . S
O275 Cd276 2.300 . S
O275 C282 1.275 . S
Cd276 O275 2.300 . S
Cd276 O284 2.381 . S
Cd276 O285 2.378 . S
O277 Cd278 2.385 . S
O277 C282 1.255 . S
Cd278 O277 2.385 . S
Cd278 O279 2.317 . S
O279 Cd278 2.317 . S
O279 C280 1.232 . S
C280 O279 1.232 . S
C280 O281 1.218 . S
O281 C280 1.218 . S
C282 O275 1.275 . S
C282 O277 1.255 . S
C283 O284 1.258 . S
C283 O285 1.256 . S
O284 Cd276 2.381 . S
O284 C283 1.258 . S
O285 Cd276 2.378 . S
O285 C283 1.256 . S
O286 Cd287 2.300 . S
O286 C293 1.275 . S
Cd287 O286 2.300 . S
Cd287 O295 2.381 . S
Cd287 O296 2.378 . S
O288 Cd289 2.385 . S
O288 C293 1.255 . S
Cd289 O288 2.385 . S
Cd289 O290 2.317 . S
O290 Cd289 2.317 . S
O290 C291 1.232 . S
C291 O290 1.232 . S
C291 O292 1.218 . S
O292 C291 1.218 . S
C293 O286 1.275 . S
C293 O288 1.255 . S
C294 O295 1.258 . S
C294 O296 1.256 . S
O295 Cd287 2.381 . S
O295 C294 1.258 . S
O296 Cd287 2.378 . S
O296 C294 1.256 . S
O297 Cd298 2.300 . S
O297 C304 1.275 . S
Cd298 O297 2.300 . S
Cd298 O306 2.381 . S
Cd298 O307 2.378 . S
O299 Cd300 2.385 . S
O299 C304 1.255 . S
Cd300 O299 2.385 . S
Cd300 O301 2.317 . S
O301 Cd300 2.317 . S
O301 C302 1.232 . S
C302 O301 1.232 . S
C302 O303 1.218 . S
O303 C302 1.218 . S
C304 O297 1.275 . S
C304 O299 1.255 . S
C305 O306 1.258 . S
C305 O307 1.256 . S
O306 Cd298 2.381 . S
O306 C305 1.258 . S
O307 Cd298 2.378 . S
O307 C305 1.256 . S
O308 Cd309 2.300 . S
O308 C315 1.275 . S
Cd309 O308 2.300 . S
Cd309 O317 2.381 . S
Cd309 O318 2.378 . S
O310 Cd311 2.385 . S
O310 C315 1.255 . S
Cd311 O310 2.385 . S
Cd311 O312 2.317 . S
O312 Cd311 2.317 . S
O312 C313 1.232 . S
C313 O312 1.232 . S
C313 O314 1.218 . S
O314 C313 1.218 . S
C315 O308 1.275 . S
C315 O310 1.255 . S
C316 O317 1.258 . S
C316 O318 1.256 . S
O317 Cd309 2.381 . S
O317 C316 1.258 . S
O318 Cd309 2.378 . S
O318 C316 1.256 . S
O319 Cd320 2.300 . S
O319 C326 1.275 . S
Cd320 O319 2.300 . S
Cd320 O328 2.381 . S
Cd320 O329 2.378 . S
O321 Cd322 2.385 . S
O321 C326 1.255 . S
Cd322 O321 2.385 . S
Cd322 O323 2.317 . S
O323 Cd322 2.317 . S
O323 C324 1.232 . S
C324 O323 1.232 . S
C324 O325 1.218 . S
O325 C324 1.218 . S
C326 O319 1.275 . S
C326 O321 1.255 . S
C327 O328 1.258 . S
C327 O329 1.256 . S
O328 Cd320 2.381 . S
O328 C327 1.258 . S
O329 Cd320 2.378 . S
O329 C327 1.256 . S
O330 Cd331 2.300 . S
O330 C337 1.275 . S
Cd331 O330 2.300 . S
Cd331 O339 2.381 . S
Cd331 O340 2.378 . S
O332 Cd333 2.385 . S
O332 C337 1.255 . S
Cd333 O332 2.385 . S
Cd333 O334 2.317 . S
O334 Cd333 2.317 . S
O334 C335 1.232 . S
C335 O334 1.232 . S
C335 O336 1.218 . S
O336 C335 1.218 . S
C337 O330 1.275 . S
C337 O332 1.255 . S
C338 O339 1.258 . S
C338 O340 1.256 . S
O339 Cd331 2.381 . S
O339 C338 1.258 . S
O340 Cd331 2.378 . S
O340 C338 1.256 . S
O341 Cd342 2.300 . S
O341 C348 1.275 . S
Cd342 O341 2.300 . S
Cd342 O350 2.381 . S
Cd342 O351 2.378 . S
O343 Cd344 2.385 . S
O343 C348 1.255 . S
Cd344 O343 2.385 . S
Cd344 O345 2.317 . S
O345 Cd344 2.317 . S
O345 C346 1.232 . S
C346 O345 1.232 . S
C346 O347 1.218 . S
O347 C346 1.218 . S
C348 O341 1.275 . S
C348 O343 1.255 . S
C349 O350 1.258 . S
C349 O351 1.256 . S
O350 Cd342 2.381 . S
O350 C349 1.258 . S
O351 Cd342 2.378 . S
O351 C349 1.256 . S
Cu352 N353 1.999 . S
Cu352 O358 1.974 . S
Cu352 N363 1.985 . S
Cu352 O372 1.959 . S
N353 Cu352 1.999 . S
N353 C355 1.263 . S
N353 C357 1.389 . S
N354 C355 1.358 . S
N354 C356 1.400 . S
C355 N353 1.263 . S
C355 N354 1.358 . S
C355 H361 0.930 . S
C356 N354 1.400 . S
C356 C357 1.351 . S
C356 H373 0.930 . S
C357 N353 1.389 . S
C357 C356 1.351 . S
C357 H362 0.930 . S
O358 Cu352 1.974 . S
O358 C368 1.282 . S
C359 O360 1.261 . S
C359 O372 1.251 . S
O360 C359 1.261 . S
H361 C355 0.930 . S
H362 C357 0.930 . S
N363 Cu352 1.985 . S
N363 C365 1.335 . S
N363 C366 1.390 . S
N364 C365 1.345 . S
N364 C367 1.336 . S
C365 N363 1.335 . S
C365 N364 1.345 . S
C365 H370 0.930 . S
C366 N363 1.390 . S
C366 C367 1.346 . S
C366 H371 0.930 . S
C367 N364 1.336 . S
C367 C366 1.346 . S
C367 H374 0.929 . S
C368 O358 1.282 . S
C368 O369 1.216 . S
O369 C368 1.216 . S
H370 C365 0.930 . S
H371 C366 0.930 . S
O372 Cu352 1.959 . S
O372 C359 1.251 . S
H373 C356 0.930 . S
H374 C367 0.929 . S
Cu375 N376 1.999 . S
Cu375 O381 1.974 . S
Cu375 N386 1.985 1_554 S
Cu375 O395 1.959 1_554 S
N376 Cu375 1.999 . S
N376 C378 1.263 . S
N376 C380 1.389 . S
N377 C378 1.358 . S
N377 C379 1.400 . S
C378 N376 1.263 . S
C378 N377 1.358 . S
C378 H384 0.930 . S
C379 N377 1.400 . S
C379 C380 1.351 . S
C379 H396 0.930 . S
C380 N376 1.389 . S
C380 C379 1.351 . S
C380 H385 0.930 . S
O381 Cu375 1.974 . S
O381 C391 1.282 . S
C382 O383 1.261 . S
C382 O395 1.251 . S
O383 C382 1.261 . S
H384 C378 0.930 . S
H385 C380 0.930 . S
N386 Cu375 1.985 1_556 S
N386 C388 1.335 . S
N386 C389 1.390 . S
N387 C388 1.345 . S
N387 C390 1.336 . S
C388 N386 1.335 . S
C388 N387 1.345 . S
C388 H393 0.930 . S
C389 N386 1.390 . S
C389 C390 1.346 . S
C389 H394 0.930 1_556 S
C390 N387 1.336 . S
C390 C389 1.346 . S
C390 H397 0.929 . S
C391 O381 1.282 . S
C391 O392 1.216 . S
O392 C391 1.216 . S
H393 C388 0.930 . S
H394 C389 0.930 1_554 S
O395 Cu375 1.959 1_556 S
O395 C382 1.251 . S
H396 C379 0.930 . S
H397 C390 0.929 . S
Cu398 N399 1.999 . S
Cu398 O404 1.974 . S
Cu398 N409 1.985 . S
Cu398 O418 1.959 . S
N399 Cu398 1.999 . S
N399 C401 1.298 . S
N399 C403 1.389 . S
N400 C401 1.341 1_556 S
N400 C402 1.400 1_556 S
C401 N399 1.298 . S
C401 N400 1.341 1_554 S
C401 H407 0.915 1_554 S
C402 N400 1.400 1_554 S
C402 C403 1.351 . S
C402 H419 0.930 . S
C403 N399 1.389 . S
C403 C402 1.351 . S
C403 H408 0.930 . S
O404 Cu398 1.974 . S
O404 C414 1.287 . S
C405 O406 1.261 . S
C405 O418 1.251 . S
O406 C405 1.261 . S
H407 C401 0.915 1_556 S
H408 C403 0.930 . S
N409 Cu398 1.985 . S
N409 C411 1.335 . S
N409 C412 1.390 . S
N410 C411 1.345 . S
N410 C413 1.336 . S
C411 N409 1.335 . S
C411 N410 1.345 . S
C411 H416 0.930 . S
C412 N409 1.390 . S
C412 C413 1.346 . S
C412 H417 0.930 . S
C413 N410 1.336 . S
C413 C412 1.346 . S
C413 H420 0.929 . S
C414 O404 1.287 . S
C414 O415 1.219 . S
O415 C414 1.219 . S
H416 C411 0.930 . S
H417 C412 0.930 . S
O418 Cu398 1.959 . S
O418 C405 1.251 . S
H419 C402 0.930 . S
H420 C413 0.929 . S
Cu421 N422 1.999 1_556 S
Cu421 O427 1.974 1_556 S
Cu421 N432 1.985 . S
Cu421 O441 1.959 . S
N422 Cu421 1.999 1_554 S
N422 C424 1.263 . S
N422 C426 1.389 . S
N423 C424 1.358 . S
N423 C425 1.400 . S
C424 N422 1.263 . S
C424 N423 1.358 . S
C424 H430 0.930 . S
C425 N423 1.400 . S
C425 C426 1.351 . S
C425 H442 0.930 . S
C426 N422 1.389 . S
C426 C425 1.351 . S
C426 H431 0.930 . S
O427 Cu421 1.974 1_554 S
O427 C437 1.282 . S
C428 O429 1.261 . S
C428 O441 1.251 . S
O429 C428 1.261 . S
H430 C424 0.930 . S
H431 C426 0.930 . S
N432 Cu421 1.985 . S
N432 C434 1.335 . S
N432 C435 1.390 . S
N433 C434 1.345 . S
N433 C436 1.336 . S
C434 N432 1.335 . S
C434 N433 1.345 . S
C434 H439 0.930 . S
C435 N432 1.390 . S
C435 C436 1.346 . S
C435 H440 0.930 . S
C436 N433 1.336 . S
C436 C435 1.346 . S
C436 H443 0.929 . S
C437 O427 1.282 . S
C437 O438 1.216 . S
O438 C437 1.216 . S
H439 C434 0.930 . S
H440 C435 0.930 . S
O441 Cu421 1.959 . S
O441 C428 1.251 . S
H442 C425 0.930 . S
H443 C436 0.929 . S
Cu444 N445 1.999 . S
Cu444 O450 1.974 . S
Cu444 N455 1.985 1_455 S
Cu444 O464 1.959 1_455 S
N445 Cu444 1.999 . S
N445 C447 1.263 . S
N445 C449 1.389 . S
N446 C447 1.358 . S
N446 C448 1.400 . S
C447 N445 1.263 . S
C447 N446 1.358 . S
C447 H453 0.930 . S
C448 N446 1.400 . S
C448 C449 1.351 . S
C448 H465 0.930 . S
C449 N445 1.389 . S
C449 C448 1.351 . S
C449 H454 0.930 . S
O450 Cu444 1.974 . S
O450 C460 1.282 . S
C451 O452 1.261 . S
C451 O464 1.251 . S
O452 C451 1.261 . S
H453 C447 0.930 . S
H454 C449 0.930 . S
N455 Cu444 1.985 1_655 S
N455 C457 1.335 . S
N455 C458 1.390 . S
N456 C457 1.345 . S
N456 C459 1.336 . S
C457 N455 1.335 . S
C457 N456 1.345 . S
C457 H462 0.930 . S
C458 N455 1.390 . S
C458 C459 1.346 . S
C458 H463 0.930 1_655 S
C459 N456 1.336 . S
C459 C458 1.346 . S
C459 H466 0.929 . S
C460 O450 1.282 . S
C460 O461 1.216 . S
O461 C460 1.216 . S
H462 C457 0.930 . S
H463 C458 0.930 1_455 S
O464 Cu444 1.959 1_655 S
O464 C451 1.251 . S
H465 C448 0.930 . S
H466 C459 0.929 . S
Cu467 N468 2.010 . S
Cu467 O473 1.987 . S
Cu467 N478 1.975 1_545 S
Cu467 O487 1.946 1_545 S
N468 Cu467 2.010 . S
N468 C470 1.263 . S
N468 C472 1.389 . S
N469 C470 1.358 . S
N469 C471 1.400 . S
C470 N468 1.263 . S
C470 N469 1.358 . S
C470 H476 0.930 . S
C471 N469 1.400 . S
C471 C472 1.351 . S
C471 H488 0.930 . S
C472 N468 1.389 . S
C472 C471 1.351 . S
C472 H477 0.930 . S
O473 Cu467 1.987 . S
O473 C483 1.282 . S
C474 O475 1.261 . S
C474 O487 1.251 . S
O475 C474 1.261 . S
H476 C470 0.930 . S
H477 C472 0.930 . S
N478 Cu467 1.975 1_565 S
N478 C480 1.335 . S
N478 C481 1.390 . S
N479 C480 1.345 . S
N479 C482 1.336 . S
C480 N478 1.335 . S
C480 N479 1.345 . S
C480 H485 0.930 . S
C481 N478 1.390 . S
C481 C482 1.346 . S
C481 H486 0.930 1_565 S
C482 N479 1.336 . S
C482 C481 1.346 . S
C482 H489 0.929 . S
C483 O473 1.282 . S
C483 O484 1.216 . S
O484 C483 1.216 . S
H485 C480 0.930 . S
H486 C481 0.930 1_545 S
O487 Cu467 1.946 1_565 S
O487 C474 1.251 . S
H488 C471 0.930 . S
H489 C482 0.929 . S
Cu490 N491 1.999 . S
Cu490 O496 1.974 . S
Cu490 N501 1.985 . S
Cu490 O510 1.959 . S
N491 Cu490 1.999 . S
N491 C493 1.263 . S
N491 C495 1.389 . S
N492 C493 1.358 1_655 S
N492 C494 1.400 1_655 S
C493 N491 1.263 . S
C493 N492 1.358 1_455 S
C493 H499 0.921 1_455 S
C494 N492 1.400 1_455 S
C494 C495 1.351 . S
C494 H511 0.930 . S
C495 N491 1.389 . S
C495 C494 1.351 . S
C495 H500 0.930 . S
O496 Cu490 1.974 . S
O496 C506 1.282 . S
C497 O498 1.261 . S
C497 O510 1.251 . S
O498 C497 1.261 . S
H499 C493 0.921 1_655 S
H500 C495 0.930 . S
N501 Cu490 1.985 . S
N501 C503 1.335 . S
N501 C504 1.390 . S
N502 C503 1.345 . S
N502 C505 1.336 . S
C503 N501 1.335 . S
C503 N502 1.345 . S
C503 H508 0.930 . S
C504 N501 1.390 . S
C504 C505 1.346 . S
C504 H509 0.930 . S
C505 N502 1.336 . S
C505 C504 1.346 . S
C505 H512 0.929 . S
C506 O496 1.282 . S
C506 O507 1.216 . S
O507 C506 1.216 . S
H508 C503 0.930 . S
H509 C504 0.930 . S
O510 Cu490 1.959 . S
O510 C497 1.251 . S
H511 C494 0.930 . S
H512 C505 0.929 . S
Cu513 N514 1.997 1_565 S
Cu513 O519 1.971 1_565 S
Cu513 N524 1.987 . S
Cu513 O533 1.962 . S
N514 Cu513 1.997 1_545 S
N514 C516 1.263 . S
N514 C518 1.389 . S
N515 C516 1.358 . S
N515 C517 1.400 . S
C516 N514 1.263 . S
C516 N515 1.358 . S
C516 H522 0.930 . S
C517 N515 1.400 . S
C517 C518 1.351 . S
C517 H534 0.930 . S
C518 N514 1.389 . S
C518 C517 1.351 . S
C518 H523 0.930 . S
O519 Cu513 1.971 1_545 S
O519 C529 1.282 . S
C520 O521 1.261 . S
C520 O533 1.251 . S
O521 C520 1.261 . S
H522 C516 0.930 . S
H523 C518 0.930 . S
N524 Cu513 1.987 . S
N524 C526 1.335 . S
N524 C527 1.390 . S
N525 C526 1.345 . S
N525 C528 1.336 . S
C526 N524 1.335 . S
C526 N525 1.345 . S
C526 H531 0.930 . S
C527 N524 1.390 . S
C527 C528 1.346 . S
C527 H532 0.930 . S
C528 N525 1.336 . S
C528 C527 1.346 . S
C528 H535 0.929 . S
C529 O519 1.282 . S
C529 O530 1.216 . S
O530 C529 1.216 . S
H531 C526 0.930 . S
H532 C527 0.930 . S
O533 Cu513 1.962 . S
O533 C520 1.251 . S
H534 C517 0.930 . S
H535 C528 0.929 . S
Cu536 N537 1.999 . S
Cu536 O542 1.974 . S
Cu536 N547 1.985 1_455 S
Cu536 O556 1.959 1_455 S
N537 Cu536 1.999 . S
N537 C539 1.263 . S
N537 C541 1.389 . S
N538 C539 1.358 . S
N538 C540 1.400 . S
C539 N537 1.263 . S
C539 N538 1.358 . S
C539 H545 0.930 . S
C540 N538 1.400 . S
C540 C541 1.351 . S
C540 H557 0.930 . S
C541 N537 1.389 . S
C541 C540 1.351 . S
C541 H546 0.930 . S
O542 Cu536 1.974 . S
O542 C552 1.282 . S
C543 O544 1.261 . S
C543 O556 1.251 . S
O544 C543 1.261 . S
H545 C539 0.930 . S
H546 C541 0.930 . S
N547 Cu536 1.985 1_655 S
N547 C549 1.335 . S
N547 C550 1.390 . S
N548 C549 1.345 . S
N548 C551 1.336 . S
C549 N547 1.335 . S
C549 N548 1.345 . S
C549 H554 0.930 . S
C550 N547 1.390 . S
C550 C551 1.346 . S
C550 H555 0.930 1_655 S
C551 N548 1.336 . S
C551 C550 1.346 . S
C551 H558 0.929 . S
C552 O542 1.282 . S
C552 O553 1.216 . S
O553 C552 1.216 . S
H554 C549 0.930 . S
H555 C550 0.930 1_455 S
O556 Cu536 1.959 1_655 S
O556 C543 1.251 . S
H557 C540 0.930 . S
H558 C551 0.929 . S
Cu559 N560 1.999 . S
Cu559 O565 1.974 . S
Cu559 N570 1.985 1_545 S
Cu559 O579 1.959 1_545 S
N560 Cu559 1.999 . S
N560 C562 1.263 . S
N560 C564 1.389 . S
N561 C562 1.358 . S
N561 C563 1.400 . S
C562 N560 1.263 . S
C562 N561 1.358 . S
C562 H568 0.930 . S
C563 N561 1.400 . S
C563 C564 1.351 . S
C563 H580 0.930 . S
C564 N560 1.389 . S
C564 C563 1.351 . S
C564 H569 0.930 . S
O565 Cu559 1.974 . S
O565 C575 1.282 . S
C566 O567 1.261 . S
C566 O579 1.251 . S
O567 C566 1.261 . S
H568 C562 0.930 . S
H569 C564 0.930 . S
N570 Cu559 1.985 1_565 S
N570 C572 1.335 . S
N570 C573 1.390 . S
N571 C572 1.345 . S
N571 C574 1.336 . S
C572 N570 1.335 . S
C572 N571 1.345 . S
C572 H577 0.930 . S
C573 N570 1.390 . S
C573 C574 1.346 . S
C573 H578 0.930 1_565 S
C574 N571 1.336 . S
C574 C573 1.346 . S
C574 H581 0.929 . S
C575 O565 1.282 . S
C575 O576 1.216 . S
O576 C575 1.216 . S
H577 C572 0.930 . S
H578 C573 0.930 1_545 S
O579 Cu559 1.959 1_565 S
O579 C566 1.251 . S
H580 C563 0.930 . S
H581 C574 0.929 . S
Cu582 N583 1.999 . S
Cu582 O588 1.974 . S
Cu582 N593 1.985 . S
Cu582 O602 1.959 . S
N583 Cu582 1.999 . S
N583 C585 1.263 . S
N583 C587 1.389 . S
N584 C585 1.358 . S
N584 C586 1.400 . S
C585 N583 1.263 . S
C585 N584 1.358 . S
C585 H591 0.930 . S
C586 N584 1.400 . S
C586 C587 1.351 . S
C586 H603 0.930 . S
C587 N583 1.389 . S
C587 C586 1.351 . S
C587 H592 0.930 . S
O588 Cu582 1.974 . S
O588 C598 1.282 . S
C589 O590 1.261 . S
C589 O602 1.251 . S
O590 C589 1.261 . S
H591 C585 0.930 . S
H592 C587 0.930 . S
N593 Cu582 1.985 . S
N593 C595 1.335 . S
N593 C596 1.390 . S
N594 C595 1.345 . S
N594 C597 1.336 . S
C595 N593 1.335 . S
C595 N594 1.345 . S
C595 H600 0.930 . S
C596 N593 1.390 . S
C596 C597 1.346 . S
C596 H601 0.930 . S
C597 N594 1.336 . S
C597 C596 1.346 . S
C597 H604 0.929 . S
C598 O588 1.282 . S
C598 O599 1.216 . S
O599 C598 1.216 . S
H600 C595 0.930 . S
H601 C596 0.930 . S
O602 Cu582 1.959 . S
O602 C589 1.251 . S
H603 C586 0.930 . S
H604 C597 0.929 . S
Cu605 N606 1.999 . S
Cu605 O611 1.974 . S
Cu605 N616 1.985 . S
Cu605 O625 1.959 . S
N606 Cu605 1.999 . S
N606 C608 1.263 . S
N606 C610 1.389 . S
N607 C608 1.358 . S
N607 C609 1.400 . S
C608 N606 1.263 . S
C608 N607 1.358 . S
C608 H614 0.930 . S
C609 N607 1.400 . S
C609 C610 1.351 . S
C609 H626 0.930 . S
C610 N606 1.389 . S
C610 C609 1.351 . S
C610 H615 0.930 . S
O611 Cu605 1.974 . S
O611 C621 1.282 . S
C612 O613 1.261 . S
C612 O625 1.251 . S
O613 C612 1.261 . S
H614 C608 0.930 . S
H615 C610 0.930 . S
N616 Cu605 1.985 . S
N616 C618 1.335 1_545 S
N616 C619 1.390 . S
N617 C618 1.345 . S
N617 C620 1.336 . S
C618 N616 1.335 1_565 S
C618 N617 1.345 . S
C618 H623 0.930 . S
C619 N616 1.390 . S
C619 C620 1.346 1_545 S
C619 H624 0.930 . S
C620 N617 1.336 . S
C620 C619 1.346 1_565 S
C620 H627 0.929 . S
C621 O611 1.282 . S
C621 O622 1.216 . S
O622 C621 1.216 . S
H623 C618 0.930 . S
H624 C619 0.930 . S
O625 Cu605 1.959 . S
O625 C612 1.251 . S
H626 C609 0.930 . S
H627 C620 0.929 . S
Cu628 N629 1.999 . S
Cu628 O634 1.974 . S
Cu628 N639 1.985 . S
Cu628 O648 1.959 . S
N629 Cu628 1.999 . S
N629 C631 1.263 . S
N629 C633 1.389 . S
N630 C631 1.358 . S
N630 C632 1.400 . S
C631 N629 1.263 . S
C631 N630 1.358 . S
C631 H637 0.930 . S
C632 N630 1.400 . S
C632 C633 1.351 . S
C632 H649 0.930 . S
C633 N629 1.389 . S
C633 C632 1.351 . S
C633 H638 0.930 . S
O634 Cu628 1.974 . S
O634 C644 1.282 . S
C635 O636 1.261 . S
C635 O648 1.251 . S
O636 C635 1.261 . S
H637 C631 0.930 . S
H638 C633 0.930 . S
N639 Cu628 1.985 . S
N639 C641 1.335 . S
N639 C642 1.390 . S
N640 C641 1.345 . S
N640 C643 1.336 . S
C641 N639 1.335 . S
C641 N640 1.345 . S
C641 H646 0.930 . S
C642 N639 1.390 . S
C642 C643 1.346 . S
C642 H647 0.930 . S
C643 N640 1.336 . S
C643 C642 1.346 . S
C643 H650 0.929 . S
C644 O634 1.282 . S
C644 O645 1.216 . S
O645 C644 1.216 . S
H646 C641 0.930 . S
H647 C642 0.930 . S
O648 Cu628 1.959 . S
O648 C635 1.251 . S
H649 C632 0.930 . S
H650 C643 0.929 . S
Cu651 N652 1.999 . S
Cu651 O657 1.974 . S
Cu651 N662 1.985 . S
Cu651 O671 1.959 . S
N652 Cu651 1.999 . S
N652 C654 1.263 . S
N652 C656 1.389 . S
N653 C654 1.358 . S
N653 C655 1.400 . S
C654 N652 1.263 . S
C654 N653 1.358 . S
C654 H660 0.930 . S
C655 N653 1.400 . S
C655 C656 1.351 . S
C655 H672 0.930 . S
C656 N652 1.389 . S
C656 C655 1.351 . S
C656 H661 0.930 . S
O657 Cu651 1.974 . S
O657 C667 1.282 . S
C658 O659 1.261 . S
C658 O671 1.251 . S
O659 C658 1.261 . S
H660 C654 0.930 . S
H661 C656 0.930 . S
N662 Cu651 1.985 . S
N662 C664 1.335 . S
N662 C665 1.390 . S
N663 C664 1.345 . S
N663 C666 1.336 . S
C664 N662 1.335 . S
C664 N663 1.345 . S
C664 H669 0.930 . S
C665 N662 1.390 . S
C665 C666 1.346 . S
C665 H670 0.930 . S
C666 N663 1.336 . S
C666 C665 1.346 . S
C666 H673 0.929 . S
C667 O657 1.282 . S
C667 O668 1.216 . S
O668 C667 1.216 . S
H669 C664 0.930 . S
H670 C665 0.930 . S
O671 Cu651 1.959 . S
O671 C658 1.251 . S
H672 C655 0.930 . S
H673 C666 0.929 . S
Cu674 N675 1.999 . S
Cu674 O680 1.974 . S
Cu674 N685 1.985 . S
Cu674 O694 1.959 . S
N675 Cu674 1.999 . S
N675 C677 1.263 . S
N675 C679 1.389 . S
N676 C677 1.358 . S
N676 C678 1.400 . S
C677 N675 1.263 . S
C677 N676 1.358 . S
C677 H683 0.930 . S
C678 N676 1.400 . S
C678 C679 1.351 . S
C678 H695 0.930 . S
C679 N675 1.389 . S
C679 C678 1.351 . S
C679 H684 0.930 . S
O680 Cu674 1.974 . S
O680 C690 1.282 . S
C681 O682 1.261 . S
C681 O694 1.251 . S
O682 C681 1.261 . S
H683 C677 0.930 . S
H684 C679 0.930 . S
N685 Cu674 1.985 . S
N685 C687 1.335 . S
N685 C688 1.390 . S
N686 C687 1.345 . S
N686 C689 1.336 . S
C687 N685 1.335 . S
C687 N686 1.345 . S
C687 H692 0.930 . S
C688 N685 1.390 . S
C688 C689 1.346 . S
C688 H693 0.930 . S
C689 N686 1.336 . S
C689 C688 1.346 . S
C689 H696 0.929 . S
C690 O680 1.282 . S
C690 O691 1.216 . S
O691 C690 1.216 . S
H692 C687 0.930 . S
H693 C688 0.930 . S
O694 Cu674 1.959 . S
O694 C681 1.251 . S
H695 C678 0.930 . S
H696 C689 0.929 . S
Cu697 N698 1.999 . S
Cu697 O703 1.974 . S
Cu697 N708 1.985 . S
Cu697 O717 1.959 . S
N698 Cu697 1.999 . S
N698 C700 1.263 . S
N698 C702 1.389 . S
N699 C700 1.358 . S
N699 C701 1.400 . S
C700 N698 1.263 . S
C700 N699 1.358 . S
C700 H706 0.930 . S
C701 N699 1.400 . S
C701 C702 1.351 . S
C701 H718 0.930 . S
C702 N698 1.389 . S
C702 C701 1.351 . S
C702 H707 0.930 . S
O703 Cu697 1.974 . S
O703 C713 1.282 . S
C704 O705 1.261 . S
C704 O717 1.251 . S
O705 C704 1.261 . S
H706 C700 0.930 . S
H707 C702 0.930 . S
N708 Cu697 1.985 . S
N708 C710 1.335 . S
N708 C711 1.390 . S
N709 C710 1.345 . S
N709 C712 1.336 . S
C710 N708 1.335 . S
C710 N709 1.345 . S
C710 H715 0.930 . S
C711 N708 1.390 . S
C711 C712 1.346 . S
C711 H716 0.930 . S
C712 N709 1.336 . S
C712 C711 1.346 . S
C712 H719 0.929 . S
C713 O703 1.282 . S
C713 O714 1.216 . S
O714 C713 1.216 . S
H715 C710 0.930 . S
H716 C711 0.930 . S
O717 Cu697 1.959 . S
O717 C704 1.251 . S
H718 C701 0.930 . S
H719 C712 0.929 . S
Cu720 N721 1.999 . S
Cu720 O726 1.974 . S
Cu720 N731 1.985 . S
Cu720 O740 1.959 . S
N721 Cu720 1.999 . S
N721 C723 1.263 . S
N721 C725 1.389 . S
N722 C723 1.358 . S
N722 C724 1.400 . S
C723 N721 1.263 . S
C723 N722 1.358 . S
C723 H729 0.930 . S
C724 N722 1.400 . S
C724 C725 1.351 . S
C724 H741 0.930 . S
C725 N721 1.389 . S
C725 C724 1.351 . S
C725 H730 0.930 . S
O726 Cu720 1.974 . S
O726 C736 1.282 . S
C727 O728 1.261 . S
C727 O740 1.251 . S
O728 C727 1.261 . S
H729 C723 0.930 . S
H730 C725 0.930 . S
N731 Cu720 1.985 . S
N731 C733 1.335 . S
N731 C734 1.390 . S
N732 C733 1.345 . S
N732 C735 1.336 . S
C733 N731 1.335 . S
C733 N732 1.345 . S
C733 H738 0.930 . S
C734 N731 1.390 . S
C734 C735 1.346 . S
C734 H739 0.930 . S
C735 N732 1.336 . S
C735 C734 1.346 . S
C735 H742 0.929 . S
C736 O726 1.282 . S
C736 O737 1.216 . S
O737 C736 1.216 . S
H738 C733 0.930 . S
H739 C734 0.930 . S
O740 Cu720 1.959 . S
O740 C727 1.251 . S
H741 C724 0.930 . S
H742 C735 0.929 . S
Cu743 N744 1.999 . S
Cu743 O749 1.974 . S
Cu743 N754 1.985 . S
Cu743 O763 1.959 . S
N744 Cu743 1.999 . S
N744 C746 1.263 . S
N744 C748 1.389 . S
N745 C746 1.358 . S
N745 C747 1.400 . S
C746 N744 1.263 . S
C746 N745 1.358 . S
C746 H752 0.930 . S
C747 N745 1.400 . S
C747 C748 1.351 . S
C747 H764 0.930 . S
C748 N744 1.389 . S
C748 C747 1.351 . S
C748 H753 0.930 . S
O749 Cu743 1.974 . S
O749 C759 1.282 . S
C750 O751 1.261 . S
C750 O763 1.251 . S
O751 C750 1.261 . S
H752 C746 0.930 . S
H753 C748 0.930 . S
N754 Cu743 1.985 . S
N754 C756 1.335 . S
N754 C757 1.390 . S
N755 C756 1.345 . S
N755 C758 1.336 . S
C756 N754 1.335 . S
C756 N755 1.345 . S
C756 H761 0.930 . S
C757 N754 1.390 . S
C757 C758 1.346 . S
C757 H762 0.930 . S
C758 N755 1.336 . S
C758 C757 1.346 . S
C758 H765 0.929 . S
C759 O749 1.282 . S
C759 O760 1.216 . S
O760 C759 1.216 . S
H761 C756 0.930 . S
H762 C757 0.930 . S
O763 Cu743 1.959 . S
O763 C750 1.251 . S
H764 C747 0.930 . S
H765 C758 0.929 . S
Cu766 N767 1.999 . S
Cu766 O772 1.974 . S
Cu766 N777 1.985 . S
Cu766 O786 1.959 . S
N767 Cu766 1.999 . S
N767 C769 1.263 . S
N767 C771 1.389 . S
N768 C769 1.358 . S
N768 C770 1.400 . S
C769 N767 1.263 . S
C769 N768 1.358 . S
C769 H775 0.930 . S
C770 N768 1.400 . S
C770 C771 1.351 . S
C770 H787 0.930 . S
C771 N767 1.389 . S
C771 C770 1.351 . S
C771 H776 0.930 . S
O772 Cu766 1.974 . S
O772 C782 1.282 . S
C773 O774 1.261 . S
C773 O786 1.251 . S
O774 C773 1.261 . S
H775 C769 0.930 . S
H776 C771 0.930 . S
N777 Cu766 1.985 . S
N777 C779 1.335 . S
N777 C780 1.390 . S
N778 C779 1.345 . S
N778 C781 1.336 . S
C779 N777 1.335 . S
C779 N778 1.345 . S
C779 H784 0.930 . S
C780 N777 1.390 . S
C780 C781 1.346 . S
C780 H785 0.930 . S
C781 N778 1.336 . S
C781 C780 1.346 . S
C781 H788 0.929 . S
C782 O772 1.282 . S
C782 O783 1.216 . S
O783 C782 1.216 . S
H784 C779 0.930 . S
H785 C780 0.930 . S
O786 Cu766 1.959 . S
O786 C773 1.251 . S
H787 C770 0.930 . S
H788 C781 0.929 . S
Cu789 N790 1.999 . S
Cu789 O795 1.974 . S
Cu789 N800 1.985 . S
Cu789 O809 1.959 . S
N790 Cu789 1.999 . S
N790 C792 1.263 . S
N790 C794 1.389 . S
N791 C792 1.358 . S
N791 C793 1.400 . S
C792 N790 1.263 . S
C792 N791 1.358 . S
C792 H798 0.930 . S
C793 N791 1.400 . S
C793 C794 1.351 . S
C793 H810 0.930 . S
C794 N790 1.389 . S
C794 C793 1.351 . S
C794 H799 0.930 . S
O795 Cu789 1.974 . S
O795 C805 1.282 . S
C796 O797 1.261 . S
C796 O809 1.251 . S
O797 C796 1.261 . S
H798 C792 0.930 . S
H799 C794 0.930 . S
N800 Cu789 1.985 . S
N800 C802 1.335 . S
N800 C803 1.390 . S
N801 C802 1.345 . S
N801 C804 1.336 . S
C802 N800 1.335 . S
C802 N801 1.345 . S
C802 H807 0.930 . S
C803 N800 1.390 . S
C803 C804 1.346 . S
C803 H808 0.930 . S
C804 N801 1.336 . S
C804 C803 1.346 . S
C804 H811 0.929 . S
C805 O795 1.282 . S
C805 O806 1.216 . S
O806 C805 1.216 . S
H807 C802 0.930 . S
H808 C803 0.930 . S
O809 Cu789 1.959 . S
O809 C796 1.251 . S
H810 C793 0.930 . S
H811 C804 0.929 . S
Cu812 N813 1.999 . S
Cu812 O818 1.974 . S
Cu812 N823 1.985 . S
Cu812 O832 1.959 . S
N813 Cu812 1.999 . S
N813 C815 1.263 . S
N813 C817 1.389 . S
N814 C815 1.358 . S
N814 C816 1.400 . S
C815 N813 1.263 . S
C815 N814 1.358 . S
C815 H821 0.930 . S
C816 N814 1.400 . S
C816 C817 1.351 . S
C816 H833 0.930 . S
C817 N813 1.389 . S
C817 C816 1.351 . S
C817 H822 0.930 . S
O818 Cu812 1.974 . S
O818 C828 1.282 . S
C819 O820 1.261 . S
C819 O832 1.251 . S
O820 C819 1.261 . S
H821 C815 0.930 . S
H822 C817 0.930 . S
N823 Cu812 1.985 . S
N823 C825 1.335 . S
N823 C826 1.390 . S
N824 C825 1.345 . S
N824 C827 1.336 . S
C825 N823 1.335 . S
C825 N824 1.345 . S
C825 H830 0.930 . S
C826 N823 1.390 . S
C826 C827 1.346 . S
C826 H831 0.930 . S
C827 N824 1.336 . S
C827 C826 1.346 . S
C827 H834 0.929 . S
C828 O818 1.282 . S
C828 O829 1.216 . S
O829 C828 1.216 . S
H830 C825 0.930 . S
H831 C826 0.930 . S
O832 Cu812 1.959 . S
O832 C819 1.251 . S
H833 C816 0.930 . S
H834 C827 0.929 . S
Cu835 N836 1.999 . S
Cu835 O841 1.974 . S
Cu835 N846 1.985 . S
Cu835 O855 1.959 . S
N836 Cu835 1.999 . S
N836 C838 1.263 . S
N836 C840 1.389 . S
N837 C838 1.358 . S
N837 C839 1.400 . S
C838 N836 1.263 . S
C838 N837 1.358 . S
C838 H844 0.930 . S
C839 N837 1.400 . S
C839 C840 1.351 . S
C839 H856 0.930 . S
C840 N836 1.389 . S
C840 C839 1.351 . S
C840 H845 0.930 . S
O841 Cu835 1.974 . S
O841 C851 1.282 . S
C842 O843 1.261 . S
C842 O855 1.251 . S
O843 C842 1.261 . S
H844 C838 0.930 . S
H845 C840 0.930 . S
N846 Cu835 1.985 . S
N846 C848 1.335 . S
N846 C849 1.390 . S
N847 C848 1.345 . S
N847 C850 1.336 . S
C848 N846 1.335 . S
C848 N847 1.345 . S
C848 H853 0.930 . S
C849 N846 1.390 . S
C849 C850 1.346 . S
C849 H854 0.930 . S
C850 N847 1.336 . S
C850 C849 1.346 . S
C850 H857 0.929 . S
C851 O841 1.282 . S
C851 O852 1.216 . S
O852 C851 1.216 . S
H853 C848 0.930 . S
H854 C849 0.930 . S
O855 Cu835 1.959 . S
O855 C842 1.251 . S
H856 C839 0.930 . S
H857 C850 0.929 . S
Cu858 N859 1.999 . S
Cu858 O864 1.974 . S
Cu858 N869 1.985 . S
Cu858 O878 1.959 . S
N859 Cu858 1.999 . S
N859 C861 1.263 . S
N859 C863 1.389 . S
N860 C861 1.358 . S
N860 C862 1.400 . S
C861 N859 1.263 . S
C861 N860 1.358 . S
C861 H867 0.930 . S
C862 N860 1.400 . S
C862 C863 1.351 . S
C862 H879 0.930 . S
C863 N859 1.389 . S
C863 C862 1.351 . S
C863 H868 0.930 . S
O864 Cu858 1.974 . S
O864 C874 1.282 . S
C865 O866 1.261 . S
C865 O878 1.251 . S
O866 C865 1.261 . S
H867 C861 0.930 . S
H868 C863 0.930 . S
N869 Cu858 1.985 . S
N869 C871 1.335 . S
N869 C872 1.390 . S
N870 C871 1.345 . S
N870 C873 1.336 . S
C871 N869 1.335 . S
C871 N870 1.345 . S
C871 H876 0.930 . S
C872 N869 1.390 . S
C872 C873 1.346 . S
C872 H877 0.930 . S
C873 N870 1.336 . S
C873 C872 1.346 . S
C873 H880 0.929 . S
C874 O864 1.282 . S
C874 O875 1.216 . S
O875 C874 1.216 . S
H876 C871 0.930 . S
H877 C872 0.930 . S
O878 Cu858 1.959 . S
O878 C865 1.251 . S
H879 C862 0.930 . S
H880 C873 0.929 . S
Cu881 N882 1.999 . S
Cu881 O887 1.974 . S
Cu881 N892 1.985 . S
Cu881 O901 1.959 . S
N882 Cu881 1.999 . S
N882 C884 1.263 . S
N882 C886 1.389 . S
N883 C884 1.358 . S
N883 C885 1.400 . S
C884 N882 1.263 . S
C884 N883 1.358 . S
C884 H890 0.930 . S
C885 N883 1.400 . S
C885 C886 1.351 . S
C885 H902 0.930 . S
C886 N882 1.389 . S
C886 C885 1.351 . S
C886 H891 0.930 . S
O887 Cu881 1.974 . S
O887 C897 1.282 . S
C888 O889 1.261 . S
C888 O901 1.251 . S
O889 C888 1.261 . S
H890 C884 0.930 . S
H891 C886 0.930 . S
N892 Cu881 1.985 . S
N892 C894 1.335 . S
N892 C895 1.390 . S
N893 C894 1.345 . S
N893 C896 1.336 . S
C894 N892 1.335 . S
C894 N893 1.345 . S
C894 H899 0.930 . S
C895 N892 1.390 . S
C895 C896 1.346 . S
C895 H900 0.930 . S
C896 N893 1.336 . S
C896 C895 1.346 . S
C896 H903 0.929 . S
C897 O887 1.282 . S
C897 O898 1.216 . S
O898 C897 1.216 . S
H899 C894 0.930 . S
H900 C895 0.930 . S
O901 Cu881 1.959 . S
O901 C888 1.251 . S
H902 C885 0.930 . S
H903 C896 0.929 . S
C904 C905 1.387 . S
C904 H908 0.950 . S
C904 C913 1.390 . S
C905 C904 1.387 . S
C905 C907 1.387 . S
H906 C913 0.950 . S
C907 C905 1.387 . S
C907 C909 1.390 . S
C907 H911 0.950 . S
H908 C904 0.950 . S
C909 C907 1.390 . S
C909 C910 1.387 . S
C909 H912 0.950 . S
C910 C909 1.387 . S
C910 C913 1.387 . S
H911 C907 0.950 . S
H912 C909 0.950 . S
C913 C904 1.390 . S
C913 H906 0.950 . S
C913 C910 1.387 . S
C914 C915 1.387 . S
C914 H918 0.950 . S
C914 C923 1.390 . S
C915 C914 1.387 . S
C915 C917 1.387 . S
H916 C923 0.950 . S
C917 C915 1.387 . S
C917 C919 1.390 . S
C917 H921 0.950 . S
H918 C914 0.950 . S
C919 C917 1.390 . S
C919 C920 1.387 . S
C919 H922 0.950 . S
C920 C919 1.387 . S
C920 C923 1.387 . S
H921 C917 0.950 . S
H922 C919 0.950 . S
C923 C914 1.390 . S
C923 H916 0.950 . S
C923 C920 1.387 . S
C924 C925 1.387 . S
C924 H928 0.950 . S
C924 C933 1.390 . S
C925 C924 1.387 . S
C925 C927 1.387 . S
H926 C933 0.950 . S
C927 C925 1.387 . S
C927 C929 1.390 . S
C927 H931 0.950 . S
H928 C924 0.950 . S
C929 C927 1.390 . S
C929 C930 1.387 . S
C929 H932 0.950 . S
C930 C929 1.387 . S
C930 C933 1.387 . S
H931 C927 0.950 . S
H932 C929 0.950 . S
C933 C924 1.390 . S
C933 H926 0.950 . S
C933 C930 1.387 . S
C934 C935 1.387 . S
C934 H938 0.950 . S
C934 C943 1.390 . S
C935 C934 1.387 . S
C935 C937 1.387 . S
H936 C943 0.950 . S
C937 C935 1.387 . S
C937 C939 1.390 . S
C937 H941 0.950 . S
H938 C934 0.950 . S
C939 C937 1.390 . S
C939 C940 1.387 . S
C939 H942 0.950 . S
C940 C939 1.387 . S
C940 C943 1.387 . S
H941 C937 0.950 . S
H942 C939 0.950 . S
C943 C934 1.390 . S
C943 H936 0.950 . S
C943 C940 1.387 . S
C944 C945 1.387 . S
C944 H948 0.950 . S
C944 C953 1.390 . S
C945 C944 1.387 . S
C945 C947 1.387 . S
H946 C953 0.950 . S
C947 C945 1.387 . S
C947 C949 1.390 . S
C947 H951 0.950 . S
H948 C944 0.950 . S
C949 C947 1.390 . S
C949 C950 1.387 . S
C949 H952 0.950 . S
C950 C949 1.387 . S
C950 C953 1.387 . S
H951 C947 0.950 . S
H952 C949 0.950 . S
C953 C944 1.390 . S
C953 H946 0.950 . S
C953 C950 1.387 . S
C954 C955 1.387 . S
C954 H958 0.950 . S
C954 C963 1.390 . S
C955 C954 1.387 . S
C955 C957 1.387 . S
H956 C963 0.951 . S
C957 C955 1.387 . S
C957 C959 1.390 . S
C957 H961 0.950 . S
H958 C954 0.950 . S
C959 C957 1.390 . S
C959 C960 1.387 . S
C959 H962 0.950 . S
C960 C959 1.387 . S
C960 C963 1.387 . S
H961 C957 0.950 . S
H962 C959 0.950 . S
C963 C954 1.390 . S
C963 H956 0.951 . S
C963 C960 1.387 . S
C964 C965 1.387 . S
C964 H968 0.950 . S
C964 C973 1.390 . S
C965 C964 1.387 . S
C965 C967 1.387 . S
H966 C973 0.950 . S
C967 C965 1.387 . S
C967 C969 1.390 . S
C967 H971 0.950 . S
H968 C964 0.950 . S
C969 C967 1.390 . S
C969 C970 1.387 . S
C969 H972 0.950 . S
C970 C969 1.387 . S
C970 C973 1.387 . S
H971 C967 0.950 . S
H972 C969 0.950 . S
C973 C964 1.390 . S
C973 H966 0.950 . S
C973 C970 1.387 . S
C974 C975 1.387 . S
C974 H978 0.950 . S
C974 C983 1.390 . S
C975 C974 1.387 . S
C975 C977 1.387 . S
H976 C983 0.950 . S
C977 C975 1.387 . S
C977 C979 1.390 . S
C977 H981 0.950 . S
H978 C974 0.950 . S
C979 C977 1.390 . S
C979 C980 1.387 . S
C979 H982 0.950 . S
C980 C979 1.387 . S
C980 C983 1.387 . S
H981 C977 0.950 . S
H982 C979 0.950 . S
C983 C974 1.390 . S
C983 H976 0.950 . S
C983 C980 1.387 . S
C984 C985 1.387 . S
C984 H988 0.950 . S
C984 C993 1.390 . S
C985 C984 1.387 . S
C985 C987 1.387 . S
H986 C993 0.950 . S
C987 C985 1.387 . S
C987 C989 1.390 . S
C987 H991 0.950 . S
H988 C984 0.950 . S
C989 C987 1.390 . S
C989 C990 1.387 . S
C989 H992 0.950 . S
C990 C989 1.387 . S
C990 C993 1.387 . S
H991 C987 0.950 . S
H992 C989 0.950 . S
C993 C984 1.390 . S
C993 H986 0.950 . S
C993 C990 1.387 . S
C994 C995 1.387 . S
C994 H998 0.950 . S
C994 C1003 1.390 . S
C995 C994 1.387 . S
C995 C997 1.387 . S
H996 C1003 0.950 . S
C997 C995 1.387 . S
C997 C999 1.390 . S
C997 H1001 0.950 . S
H998 C994 0.950 . S
C999 C997 1.390 . S
C999 C1000 1.387 . S
C999 H1002 0.950 . S
C1000 C999 1.387 . S
C1000 C1003 1.387 . S
H1001 C997 0.950 . S
H1002 C999 0.950 . S
C1003 C994 1.390 . S
C1003 H996 0.950 . S
C1003 C1000 1.387 . S
C1004 C1005 1.387 . S
C1004 H1008 0.950 . S
C1004 C1013 1.390 . S
C1005 C1004 1.387 . S
C1005 C1007 1.387 . S
H1006 C1013 0.950 . S
C1007 C1005 1.387 . S
C1007 C1009 1.390 . S
C1007 H1011 0.950 . S
H1008 C1004 0.950 . S
C1009 C1007 1.390 . S
C1009 C1010 1.387 . S
C1009 H1012 0.950 . S
C1010 C1009 1.387 . S
C1010 C1013 1.387 . S
H1011 C1007 0.950 . S
H1012 C1009 0.950 . S
C1013 C1004 1.390 . S
C1013 H1006 0.950 . S
C1013 C1010 1.387 . S
C1014 C1015 1.387 . S
C1014 H1018 0.950 . S
C1014 C1023 1.390 . S
C1015 C1014 1.387 . S
C1015 C1017 1.387 . S
H1016 C1023 0.950 . S
C1017 C1015 1.387 . S
C1017 C1019 1.390 . S
C1017 H1021 0.950 . S
H1018 C1014 0.950 . S
C1019 C1017 1.390 . S
C1019 C1020 1.387 . S
C1019 H1022 0.950 . S
C1020 C1019 1.387 . S
C1020 C1023 1.387 . S
H1021 C1017 0.950 . S
H1022 C1019 0.950 . S
C1023 C1014 1.390 . S
C1023 H1016 0.950 . S
C1023 C1020 1.387 . S
C1024 C1025 1.387 . S
C1024 H1028 0.950 . S
C1024 C1033 1.390 . S
C1025 C1024 1.387 . S
C1025 C1027 1.387 . S
H1026 C1033 0.950 . S
C1027 C1025 1.387 . S
C1027 C1029 1.390 . S
C1027 H1031 0.950 . S
H1028 C1024 0.950 . S
C1029 C1027 1.390 . S
C1029 C1030 1.387 . S
C1029 H1032 0.950 . S
C1030 C1029 1.387 . S
C1030 C1033 1.387 . S
H1031 C1027 0.950 . S
H1032 C1029 0.950 . S
C1033 C1024 1.390 . S
C1033 H1026 0.950 . S
C1033 C1030 1.387 . S
C1034 C1035 1.387 . S
C1034 H1038 0.950 . S
C1034 C1043 1.390 . S
C1035 C1034 1.387 . S
C1035 C1037 1.387 . S
H1036 C1043 0.950 . S
C1037 C1035 1.387 . S
C1037 C1039 1.390 . S
C1037 H1041 0.950 . S
H1038 C1034 0.950 . S
C1039 C1037 1.390 . S
C1039 C1040 1.387 . S
C1039 H1042 0.950 . S
C1040 C1039 1.387 . S
C1040 C1043 1.387 . S
H1041 C1037 0.950 . S
H1042 C1039 0.950 . S
C1043 C1034 1.390 . S
C1043 H1036 0.950 . S
C1043 C1040 1.387 . S
C1044 C1045 1.387 . S
C1044 H1048 0.950 . S
C1044 C1053 1.390 1_655 S
C1045 C1044 1.387 . S
C1045 C1047 1.387 . S
H1046 C1053 0.950 . S
C1047 C1045 1.387 . S
C1047 C1049 1.390 1_655 S
C1047 H1051 0.950 . S
H1048 C1044 0.950 . S
C1049 C1047 1.390 1_455 S
C1049 C1050 1.387 . S
C1049 H1052 0.950 . S
C1050 C1049 1.387 . S
C1050 C1053 1.387 . S
H1051 C1047 0.950 . S
H1052 C1049 0.950 . S
C1053 C1044 1.390 1_455 S
C1053 H1046 0.950 . S
C1053 C1050 1.387 . S
C1054 C1055 1.387 . S
C1054 H1058 0.950 . S
C1054 C1063 1.390 . S
C1055 C1054 1.387 . S
C1055 C1057 1.387 . S
H1056 C1063 0.950 . S
C1057 C1055 1.387 . S
C1057 C1059 1.390 . S
C1057 H1061 0.950 . S
H1058 C1054 0.950 . S
C1059 C1057 1.390 . S
C1059 C1060 1.387 . S
C1059 H1062 0.950 . S
C1060 C1059 1.387 . S
C1060 C1063 1.387 . S
H1061 C1057 0.950 . S
H1062 C1059 0.950 . S
C1063 C1054 1.390 . S
C1063 H1056 0.950 . S
C1063 C1060 1.387 . S
C1064 C1065 1.387 . S
C1064 H1068 0.950 . S
C1064 C1073 1.390 . S
C1065 C1064 1.387 . S
C1065 C1067 1.387 . S
H1066 C1073 0.950 . S
C1067 C1065 1.387 . S
C1067 C1069 1.390 . S
C1067 H1071 0.950 . S
H1068 C1064 0.950 . S
C1069 C1067 1.390 . S
C1069 C1070 1.387 . S
C1069 H1072 0.950 . S
C1070 C1069 1.387 . S
C1070 C1073 1.387 . S
H1071 C1067 0.950 . S
H1072 C1069 0.950 . S
C1073 C1064 1.390 . S
C1073 H1066 0.950 . S
C1073 C1070 1.387 . S
C1074 C1075 1.387 . S
C1074 H1078 0.950 . S
C1074 C1083 1.390 . S
C1075 C1074 1.387 . S
C1075 C1077 1.387 . S
H1076 C1083 0.950 . S
C1077 C1075 1.387 . S
C1077 C1079 1.390 . S
C1077 H1081 0.950 . S
H1078 C1074 0.950 . S
C1079 C1077 1.390 . S
C1079 C1080 1.387 . S
C1079 H1082 0.950 . S
C1080 C1079 1.387 . S
C1080 C1083 1.387 . S
H1081 C1077 0.950 . S
H1082 C1079 0.950 . S
C1083 C1074 1.390 . S
C1083 H1076 0.950 . S
C1083 C1080 1.387 . S
C1084 C1085 1.387 . S
C1084 H1088 0.950 . S
C1084 C1093 1.390 . S
C1085 C1084 1.387 . S
C1085 C1087 1.387 . S
H1086 C1093 0.950 . S
C1087 C1085 1.387 . S
C1087 C1089 1.390 . S
C1087 H1091 0.950 . S
H1088 C1084 0.950 . S
C1089 C1087 1.390 . S
C1089 C1090 1.387 . S
C1089 H1092 0.950 . S
C1090 C1089 1.387 . S
C1090 C1093 1.387 . S
H1091 C1087 0.950 . S
H1092 C1089 0.950 . S
C1093 C1084 1.390 . S
C1093 H1086 0.950 . S
C1093 C1090 1.387 . S
C1094 C1095 1.387 . S
C1094 H1098 0.950 . S
C1094 C1103 1.390 . S
C1095 C1094 1.387 . S
C1095 C1097 1.387 . S
H1096 C1103 0.950 . S
C1097 C1095 1.387 . S
C1097 C1099 1.390 . S
C1097 H1101 0.950 . S
H1098 C1094 0.950 . S
C1099 C1097 1.390 . S
C1099 C1100 1.387 . S
C1099 H1102 0.950 . S
C1100 C1099 1.387 . S
C1100 C1103 1.387 . S
H1101 C1097 0.950 . S
H1102 C1099 0.950 . S
C1103 C1094 1.390 . S
C1103 H1096 0.950 . S
C1103 C1100 1.387 . S
C1104 C1105 1.387 . S
C1104 H1108 0.950 . S
C1104 C1113 1.390 . S
C1105 C1104 1.387 . S
C1105 C1107 1.387 . S
H1106 C1113 0.950 . S
C1107 C1105 1.387 . S
C1107 C1109 1.390 . S
C1107 H1111 0.950 . S
H1108 C1104 0.950 . S
C1109 C1107 1.390 . S
C1109 C1110 1.387 . S
C1109 H1112 0.950 . S
C1110 C1109 1.387 . S
C1110 C1113 1.387 . S
H1111 C1107 0.950 . S
H1112 C1109 0.950 . S
C1113 C1104 1.390 . S
C1113 H1106 0.950 . S
C1113 C1110 1.387 . S
C1114 C1115 1.387 . S
C1114 H1118 0.950 . S
C1114 C1123 1.390 . S
C1115 C1114 1.387 . S
C1115 C1117 1.387 . S
H1116 C1123 0.950 . S
C1117 C1115 1.387 . S
C1117 C1119 1.390 . S
C1117 H1121 0.950 . S
H1118 C1114 0.950 . S
C1119 C1117 1.390 . S
C1119 C1120 1.387 . S
C1119 H1122 0.950 . S
C1120 C1119 1.387 . S
C1120 C1123 1.387 . S
H1121 C1117 0.950 . S
H1122 C1119 0.950 . S
C1123 C1114 1.390 . S
C1123 H1116 0.950 . S
C1123 C1120 1.387 . S
C1124 C1125 1.387 . S
C1124 H1128 0.950 . S
C1124 C1133 1.390 . S
C1125 C1124 1.387 . S
C1125 C1127 1.387 . S
H1126 C1133 0.950 . S
C1127 C1125 1.387 . S
C1127 C1129 1.390 . S
C1127 H1131 0.950 . S
H1128 C1124 0.950 . S
C1129 C1127 1.390 . S
C1129 C1130 1.387 . S
C1129 H1132 0.950 . S
C1130 C1129 1.387 . S
C1130 C1133 1.387 . S
H1131 C1127 0.950 . S
H1132 C1129 0.950 . S
C1133 C1124 1.390 . S
C1133 H1126 0.950 . S
C1133 C1130 1.387 . S
C1134 C1135 1.387 . S
C1134 H1138 0.950 . S
C1134 C1143 1.390 . S
C1135 C1134 1.387 . S
C1135 C1137 1.387 . S
H1136 C1143 0.950 . S
C1137 C1135 1.387 . S
C1137 C1139 1.390 . S
C1137 H1141 0.950 . S
H1138 C1134 0.950 . S
C1139 C1137 1.390 . S
C1139 C1140 1.387 . S
C1139 H1142 0.950 . S
C1140 C1139 1.387 . S
C1140 C1143 1.387 . S
H1141 C1137 0.950 . S
H1142 C1139 0.950 . S
C1143 C1134 1.390 . S
C1143 H1136 0.950 . S
C1143 C1140 1.387 . S
C1144 C1145 1.387 . S
C1144 H1148 0.950 . S
C1144 C1153 1.390 . S
C1145 C1144 1.387 . S
C1145 C1147 1.387 . S
H1146 C1153 0.950 . S
C1147 C1145 1.387 . S
C1147 C1149 1.390 . S
C1147 H1151 0.950 . S
H1148 C1144 0.950 . S
C1149 C1147 1.390 . S
C1149 C1150 1.387 . S
C1149 H1152 0.950 . S
C1150 C1149 1.387 . S
C1150 C1153 1.387 . S
H1151 C1147 0.950 . S
H1152 C1149 0.950 . S
C1153 C1144 1.390 . S
C1153 H1146 0.950 . S
C1153 C1150 1.387 . S
C1154 C1155 1.387 . S
C1154 H1158 0.950 . S
C1154 C1163 1.390 . S
C1155 C1154 1.387 . S
C1155 C1157 1.387 . S
H1156 C1163 0.950 . S
C1157 C1155 1.387 . S
C1157 C1159 1.390 . S
C1157 H1161 0.950 . S
H1158 C1154 0.950 . S
C1159 C1157 1.390 . S
C1159 C1160 1.387 . S
C1159 H1162 0.950 . S
C1160 C1159 1.387 . S
C1160 C1163 1.387 . S
H1161 C1157 0.950 . S
H1162 C1159 0.950 . S
C1163 C1154 1.390 . S
C1163 H1156 0.950 . S
C1163 C1160 1.387 . S
C1164 C1165 1.387 . S
C1164 H1168 0.950 . S
C1164 C1173 1.390 . S
C1165 C1164 1.387 . S
C1165 C1167 1.387 . S
H1166 C1173 0.950 . S
C1167 C1165 1.387 . S
C1167 C1169 1.390 . S
C1167 H1171 0.950 . S
H1168 C1164 0.950 . S
C1169 C1167 1.390 . S
C1169 C1170 1.387 . S
C1169 H1172 0.950 . S
C1170 C1169 1.387 . S
C1170 C1173 1.387 . S
H1171 C1167 0.950 . S
H1172 C1169 0.950 . S
C1173 C1164 1.390 . S
C1173 H1166 0.950 . S
C1173 C1170 1.387 . S
C1174 C1175 1.387 . S
C1174 H1178 0.950 . S
C1174 C1183 1.390 . S
C1175 C1174 1.387 . S
C1175 C1177 1.387 . S
H1176 C1183 0.950 . S
C1177 C1175 1.387 . S
C1177 C1179 1.390 . S
C1177 H1181 0.950 . S
H1178 C1174 0.950 . S
C1179 C1177 1.390 . S
C1179 C1180 1.387 . S
C1179 H1182 0.950 . S
C1180 C1179 1.387 . S
C1180 C1183 1.387 . S
H1181 C1177 0.950 . S
H1182 C1179 0.950 . S
C1183 C1174 1.390 . S
C1183 H1176 0.950 . S
C1183 C1180 1.387 . S
C1184 C1185 1.387 . S
C1184 H1188 0.950 . S
C1184 C1193 1.390 . S
C1185 C1184 1.387 . S
C1185 C1187 1.387 . S
H1186 C1193 0.950 . S
C1187 C1185 1.387 . S
C1187 C1189 1.390 . S
C1187 H1191 0.950 . S
H1188 C1184 0.950 . S
C1189 C1187 1.390 . S
C1189 C1190 1.387 . S
C1189 H1192 0.950 . S
C1190 C1189 1.387 . S
C1190 C1193 1.387 . S
H1191 C1187 0.950 . S
H1192 C1189 0.950 . S
C1193 C1184 1.390 . S
C1193 H1186 0.950 . S
C1193 C1190 1.387 . S
C1194 C1195 1.387 . S
C1194 H1198 0.950 . S
C1194 C1203 1.390 . S
C1195 C1194 1.387 . S
C1195 C1197 1.387 . S
H1196 C1203 0.950 . S
C1197 C1195 1.387 . S
C1197 C1199 1.390 . S
C1197 H1201 0.950 . S
H1198 C1194 0.950 . S
C1199 C1197 1.390 . S
C1199 C1200 1.387 . S
C1199 H1202 0.950 . S
C1200 C1199 1.387 . S
C1200 C1203 1.387 . S
H1201 C1197 0.950 . S
H1202 C1199 0.950 . S
C1203 C1194 1.390 . S
C1203 H1196 0.950 . S
C1203 C1200 1.387 . S
C1204 C1205 1.387 . S
C1204 H1208 0.950 . S
C1204 C1213 1.390 . S
C1205 C1204 1.387 . S
C1205 C1207 1.387 . S
H1206 C1213 0.950 . S
C1207 C1205 1.387 . S
C1207 C1209 1.390 . S
C1207 H1211 0.950 . S
H1208 C1204 0.950 . S
C1209 C1207 1.390 . S
C1209 C1210 1.387 . S
C1209 H1212 0.950 . S
C1210 C1209 1.387 . S
C1210 C1213 1.387 . S
H1211 C1207 0.950 . S
H1212 C1209 0.950 . S
C1213 C1204 1.390 . S
C1213 H1206 0.950 . S
C1213 C1210 1.387 . S
C1214 C1215 1.387 . S
C1214 H1218 0.950 . S
C1214 C1223 1.390 . S
C1215 C1214 1.387 . S
C1215 C1217 1.387 . S
H1216 C1223 0.950 . S
C1217 C1215 1.387 . S
C1217 C1219 1.390 . S
C1217 H1221 0.950 . S
H1218 C1214 0.950 . S
C1219 C1217 1.390 . S
C1219 C1220 1.387 . S
C1219 H1222 0.950 . S
C1220 C1219 1.387 . S
C1220 C1223 1.387 . S
H1221 C1217 0.950 . S
H1222 C1219 0.950 . S
C1223 C1214 1.390 . S
C1223 H1216 0.950 . S
C1223 C1220 1.387 . S
C1224 C1225 1.387 . S
C1224 H1228 0.950 . S
C1224 C1233 1.390 . S
C1225 C1224 1.387 . S
C1225 C1227 1.387 . S
H1226 C1233 0.950 . S
C1227 C1225 1.387 . S
C1227 C1229 1.390 . S
C1227 H1231 0.950 . S
H1228 C1224 0.950 . S
C1229 C1227 1.390 . S
C1229 C1230 1.387 . S
C1229 H1232 0.950 . S
C1230 C1229 1.387 . S
C1230 C1233 1.387 . S
H1231 C1227 0.950 . S
H1232 C1229 0.950 . S
C1233 C1224 1.390 . S
C1233 H1226 0.950 . S
C1233 C1230 1.387 . S
C1234 C1235 1.387 . S
C1234 H1238 0.950 . S
C1234 C1243 1.390 . S
C1235 C1234 1.387 . S
C1235 C1237 1.387 . S
H1236 C1243 0.950 . S
C1237 C1235 1.387 . S
C1237 C1239 1.390 . S
C1237 H1241 0.950 . S
H1238 C1234 0.950 . S
C1239 C1237 1.390 . S
C1239 C1240 1.387 . S
C1239 H1242 0.950 . S
C1240 C1239 1.387 . S
C1240 C1243 1.387 . S
H1241 C1237 0.950 . S
H1242 C1239 0.950 . S
C1243 C1234 1.390 . S
C1243 H1236 0.950 . S
C1243 C1240 1.387 . S
C1244 C1245 1.387 . S
C1244 H1248 0.950 . S
C1244 C1253 1.390 1_655 S
C1245 C1244 1.387 . S
C1245 C1247 1.387 . S
H1246 C1253 0.950 . S
C1247 C1245 1.387 . S
C1247 C1249 1.390 1_655 S
C1247 H1251 0.950 . S
H1248 C1244 0.950 . S
C1249 C1247 1.390 1_455 S
C1249 C1250 1.387 . S
C1249 H1252 0.950 . S
C1250 C1249 1.387 . S
C1250 C1253 1.387 . S
H1251 C1247 0.950 . S
H1252 C1249 0.950 . S
C1253 C1244 1.390 1_455 S
C1253 H1246 0.950 . S
C1253 C1250 1.387 . S
C1254 C1255 1.387 . S
C1254 H1258 0.950 . S
C1254 C1263 1.390 . S
C1255 C1254 1.387 . S
C1255 C1257 1.387 . S
H1256 C1263 0.950 . S
C1257 C1255 1.387 . S
C1257 C1259 1.390 . S
C1257 H1261 0.950 . S
H1258 C1254 0.950 . S
C1259 C1257 1.390 . S
C1259 C1260 1.387 . S
C1259 H1262 0.950 . S
C1260 C1259 1.387 . S
C1260 C1263 1.387 . S
H1261 C1257 0.950 . S
H1262 C1259 0.950 . S
C1263 C1254 1.390 . S
C1263 H1256 0.950 . S
C1263 C1260 1.387 . S
C1264 C1265 1.387 . S
C1264 H1268 0.950 . S
C1264 C1273 1.390 . S
C1265 C1264 1.387 . S
C1265 C1267 1.387 . S
H1266 C1273 0.950 . S
C1267 C1265 1.387 . S
C1267 C1269 1.390 . S
C1267 H1271 0.950 . S
H1268 C1264 0.950 . S
C1269 C1267 1.390 . S
C1269 C1270 1.387 . S
C1269 H1272 0.950 . S
C1270 C1269 1.387 . S
C1270 C1273 1.387 . S
H1271 C1267 0.950 . S
H1272 C1269 0.950 . S
C1273 C1264 1.390 . S
C1273 H1266 0.950 . S
C1273 C1270 1.387 . S
C1274 C1275 1.387 . S
C1274 H1278 0.950 . S
C1274 C1283 1.390 . S
C1275 C1274 1.387 . S
C1275 C1277 1.387 . S
H1276 C1283 0.950 . S
C1277 C1275 1.387 . S
C1277 C1279 1.390 . S
C1277 H1281 0.950 . S
H1278 C1274 0.950 . S
C1279 C1277 1.390 . S
C1279 C1280 1.387 . S
C1279 H1282 0.950 . S
C1280 C1279 1.387 . S
C1280 C1283 1.387 . S
H1281 C1277 0.950 . S
H1282 C1279 0.950 . S
C1283 C1274 1.390 . S
C1283 H1276 0.950 . S
C1283 C1280 1.387 . S
C1284 C1285 1.387 . S
C1284 H1288 0.950 . S
C1284 C1293 1.390 . S
C1285 C1284 1.387 . S
C1285 C1287 1.387 . S
H1286 C1293 0.950 . S
C1287 C1285 1.387 . S
C1287 C1289 1.390 . S
C1287 H1291 0.950 . S
H1288 C1284 0.950 . S
C1289 C1287 1.390 . S
C1289 C1290 1.387 . S
C1289 H1292 0.950 . S
C1290 C1289 1.387 . S
C1290 C1293 1.387 . S
H1291 C1287 0.950 . S
H1292 C1289 0.950 . S
C1293 C1284 1.390 . S
C1293 H1286 0.950 . S
C1293 C1290 1.387 . S
C1294 C1295 1.387 . S
C1294 H1298 0.950 . S
C1294 C1303 1.390 . S
C1295 C1294 1.387 . S
C1295 C1297 1.387 . S
H1296 C1303 0.950 . S
C1297 C1295 1.387 . S
C1297 C1299 1.390 . S
C1297 H1301 0.950 . S
H1298 C1294 0.950 . S
C1299 C1297 1.390 . S
C1299 C1300 1.387 . S
C1299 H1302 0.950 . S
C1300 C1299 1.387 . S
C1300 C1303 1.387 . S
H1301 C1297 0.950 . S
H1302 C1299 0.950 . S
C1303 C1294 1.390 . S
C1303 H1296 0.950 . S
C1303 C1300 1.387 . S
C1304 C1305 1.387 . S
C1304 H1308 0.950 . S
C1304 C1313 1.390 . S
C1305 C1304 1.387 . S
C1305 C1307 1.387 . S
H1306 C1313 0.950 . S
C1307 C1305 1.387 . S
C1307 C1309 1.390 . S
C1307 H1311 0.950 . S
H1308 C1304 0.950 . S
C1309 C1307 1.390 . S
C1309 C1310 1.387 . S
C1309 H1312 0.950 . S
C1310 C1309 1.387 . S
C1310 C1313 1.387 . S
H1311 C1307 0.950 . S
H1312 C1309 0.950 . S
C1313 C1304 1.390 . S
C1313 H1306 0.950 . S
C1313 C1310 1.387 . S
C1314 C1315 1.387 . S
C1314 H1318 0.950 . S
C1314 C1323 1.390 . S
C1315 C1314 1.387 . S
C1315 C1317 1.387 . S
H1316 C1323 0.950 . S
C1317 C1315 1.387 . S
C1317 C1319 1.390 . S
C1317 H1321 0.950 . S
H1318 C1314 0.950 . S
C1319 C1317 1.390 . S
C1319 C1320 1.387 . S
C1319 H1322 0.950 . S
C1320 C1319 1.387 . S
C1320 C1323 1.387 . S
H1321 C1317 0.950 . S
H1322 C1319 0.950 . S
C1323 C1314 1.390 . S
C1323 H1316 0.950 . S
C1323 C1320 1.387 . S
C1324 C1325 1.387 . S
C1324 H1328 0.950 . S
C1324 C1333 1.390 . S
C1325 C1324 1.387 . S
C1325 C1327 1.387 . S
H1326 C1333 0.950 . S
C1327 C1325 1.387 . S
C1327 C1329 1.390 . S
C1327 H1331 0.950 . S
H1328 C1324 0.950 . S
C1329 C1327 1.390 . S
C1329 C1330 1.387 . S
C1329 H1332 0.950 . S
C1330 C1329 1.387 . S
C1330 C1333 1.387 . S
H1331 C1327 0.950 . S
H1332 C1329 0.950 . S
C1333 C1324 1.390 . S
C1333 H1326 0.950 . S
C1333 C1330 1.387 . S
C1334 C1335 1.387 . S
C1334 H1338 0.950 . S
C1334 C1343 1.390 . S
C1335 C1334 1.387 . S
C1335 C1337 1.387 . S
H1336 C1343 0.950 . S
C1337 C1335 1.387 . S
C1337 C1339 1.390 . S
C1337 H1341 0.950 . S
H1338 C1334 0.950 . S
C1339 C1337 1.390 . S
C1339 C1340 1.387 . S
C1339 H1342 0.950 . S
C1340 C1339 1.387 . S
C1340 C1343 1.387 . S
H1341 C1337 0.950 . S
H1342 C1339 0.950 . S
C1343 C1334 1.390 . S
C1343 H1336 0.950 . S
C1343 C1340 1.387 . S
C1344 C1345 1.387 . S
C1344 H1348 0.950 . S
C1344 C1353 1.390 . S
C1345 C1344 1.387 . S
C1345 C1347 1.387 . S
H1346 C1353 0.950 . S
C1347 C1345 1.387 . S
C1347 C1349 1.390 . S
C1347 H1351 0.950 . S
H1348 C1344 0.950 . S
C1349 C1347 1.390 . S
C1349 C1350 1.387 . S
C1349 H1352 0.950 . S
C1350 C1349 1.387 . S
C1350 C1353 1.387 . S
H1351 C1347 0.950 . S
H1352 C1349 0.950 . S
C1353 C1344 1.390 . S
C1353 H1346 0.950 . S
C1353 C1350 1.387 . S
C1354 C1355 1.387 . S
C1354 H1358 0.950 . S
C1354 C1363 1.390 . S
C1355 C1354 1.387 . S
C1355 C1357 1.387 . S
H1356 C1363 0.950 . S
C1357 C1355 1.387 . S
C1357 C1359 1.390 . S
C1357 H1361 0.950 . S
H1358 C1354 0.950 . S
C1359 C1357 1.390 . S
C1359 C1360 1.387 . S
C1359 H1362 0.950 . S
C1360 C1359 1.387 . S
C1360 C1363 1.387 . S
H1361 C1357 0.950 . S
H1362 C1359 0.950 . S
C1363 C1354 1.390 . S
C1363 H1356 0.950 . S
C1363 C1360 1.387 . S
C1364 C1365 1.387 . S
C1364 H1368 0.950 . S
C1364 C1373 1.390 . S
C1365 C1364 1.387 . S
C1365 C1367 1.387 . S
H1366 C1373 0.950 . S
C1367 C1365 1.387 . S
C1367 C1369 1.390 . S
C1367 H1371 0.950 . S
H1368 C1364 0.950 . S
C1369 C1367 1.390 . S
C1369 C1370 1.387 . S
C1369 H1372 0.950 . S
C1370 C1369 1.387 . S
C1370 C1373 1.387 . S
H1371 C1367 0.950 . S
H1372 C1369 0.950 . S
C1373 C1364 1.390 . S
C1373 H1366 0.950 . S
C1373 C1370 1.387 . S
C1374 C1375 1.387 . S
C1374 H1378 0.950 . S
C1374 C1383 1.390 . S
C1375 C1374 1.387 . S
C1375 C1377 1.387 . S
H1376 C1383 0.950 . S
C1377 C1375 1.387 . S
C1377 C1379 1.390 . S
C1377 H1381 0.950 . S
H1378 C1374 0.950 . S
C1379 C1377 1.390 . S
C1379 C1380 1.387 . S
C1379 H1382 0.950 . S
C1380 C1379 1.387 . S
C1380 C1383 1.387 . S
H1381 C1377 0.950 . S
H1382 C1379 0.950 . S
C1383 C1374 1.390 . S
C1383 H1376 0.950 . S
C1383 C1380 1.387 . S
C1384 C1385 1.387 . S
C1384 H1388 0.950 . S
C1384 C1393 1.390 . S
C1385 C1384 1.387 . S
C1385 C1387 1.387 . S
H1386 C1393 0.950 . S
C1387 C1385 1.387 . S
C1387 C1389 1.390 . S
C1387 H1391 0.950 . S
H1388 C1384 0.950 . S
C1389 C1387 1.390 . S
C1389 C1390 1.387 . S
C1389 H1392 0.950 . S
C1390 C1389 1.387 . S
C1390 C1393 1.387 . S
H1391 C1387 0.950 . S
H1392 C1389 0.950 . S
C1393 C1384 1.390 . S
C1393 H1386 0.950 . S
C1393 C1390 1.387 . S
C1394 C1395 1.387 . S
C1394 H1398 0.950 . S
C1394 C1403 1.390 . S
C1395 C1394 1.387 . S
C1395 C1397 1.387 . S
H1396 C1403 0.950 . S
C1397 C1395 1.387 . S
C1397 C1399 1.390 . S
C1397 H1401 0.950 . S
H1398 C1394 0.950 . S
C1399 C1397 1.390 . S
C1399 C1400 1.387 . S
C1399 H1402 0.950 . S
C1400 C1399 1.387 . S
C1400 C1403 1.387 . S
H1401 C1397 0.950 . S
H1402 C1399 0.950 . S
C1403 C1394 1.390 . S
C1403 H1396 0.950 . S
C1403 C1400 1.387 . S
C1404 C1405 1.387 . S
C1404 H1408 0.950 . S
C1404 C1413 1.390 . S
C1405 C1404 1.387 . S
C1405 C1407 1.387 . S
H1406 C1413 0.950 . S
C1407 C1405 1.387 . S
C1407 C1409 1.390 . S
C1407 H1411 0.950 . S
H1408 C1404 0.950 . S
C1409 C1407 1.390 . S
C1409 C1410 1.387 . S
C1409 H1412 0.950 . S
C1410 C1409 1.387 . S
C1410 C1413 1.387 . S
H1411 C1407 0.950 . S
H1412 C1409 0.950 . S
C1413 C1404 1.390 . S
C1413 H1406 0.950 . S
C1413 C1410 1.387 . S
C1414 C1415 1.387 . S
C1414 H1418 0.950 . S
C1414 C1423 1.390 . S
C1415 C1414 1.387 . S
C1415 C1417 1.387 . S
H1416 C1423 0.950 . S
C1417 C1415 1.387 . S
C1417 C1419 1.390 . S
C1417 H1421 0.950 . S
H1418 C1414 0.950 . S
C1419 C1417 1.390 . S
C1419 C1420 1.387 . S
C1419 H1422 0.950 . S
C1420 C1419 1.387 . S
C1420 C1423 1.387 . S
H1421 C1417 0.950 . S
H1422 C1419 0.950 . S
C1423 C1414 1.390 . S
C1423 H1416 0.950 . S
C1423 C1420 1.387 . S
C1424 C1425 1.387 . S
C1424 H1428 0.950 . S
C1424 C1433 1.390 . S
C1425 C1424 1.387 . S
C1425 C1427 1.387 . S
H1426 C1433 0.950 . S
C1427 C1425 1.387 . S
C1427 C1429 1.390 . S
C1427 H1431 0.950 . S
H1428 C1424 0.950 . S
C1429 C1427 1.390 . S
C1429 C1430 1.387 . S
C1429 H1432 0.950 . S
C1430 C1429 1.387 . S
C1430 C1433 1.387 . S
H1431 C1427 0.950 . S
H1432 C1429 0.950 . S
C1433 C1424 1.390 . S
C1433 H1426 0.950 . S
C1433 C1430 1.387 . S
C1434 C1435 1.387 . S
C1434 H1438 0.950 . S
C1434 C1443 1.390 . S
C1435 C1434 1.387 . S
C1435 C1437 1.387 . S
H1436 C1443 0.950 . S
C1437 C1435 1.387 . S
C1437 C1439 1.390 . S
C1437 H1441 0.950 . S
H1438 C1434 0.950 . S
C1439 C1437 1.390 . S
C1439 C1440 1.387 . S
C1439 H1442 0.950 . S
C1440 C1439 1.387 . S
C1440 C1443 1.387 . S
H1441 C1437 0.950 . S
H1442 C1439 0.950 . S
C1443 C1434 1.390 . S
C1443 H1436 0.950 . S
C1443 C1440 1.387 . S
C1444 C1445 1.387 . S
C1444 H1448 0.950 . S
C1444 C1453 1.390 . S
C1445 C1444 1.387 . S
C1445 C1447 1.387 . S
H1446 C1453 0.950 . S
C1447 C1445 1.387 . S
C1447 C1449 1.390 . S
C1447 H1451 0.950 . S
H1448 C1444 0.950 . S
C1449 C1447 1.390 . S
C1449 C1450 1.387 . S
C1449 H1452 0.950 . S
C1450 C1449 1.387 . S
C1450 C1453 1.387 . S
H1451 C1447 0.950 . S
H1452 C1449 0.950 . S
C1453 C1444 1.390 . S
C1453 H1446 0.950 . S
C1453 C1450 1.387 . S
C1454 C1455 1.387 . S
C1454 H1458 0.950 . S
C1454 C1463 1.390 . S
C1455 C1454 1.387 . S
C1455 C1457 1.387 . S
H1456 C1463 0.950 . S
C1457 C1455 1.387 . S
C1457 C1459 1.390 . S
C1457 H1461 0.950 . S
H1458 C1454 0.950 . S
C1459 C1457 1.390 . S
C1459 C1460 1.387 . S
C1459 H1462 0.950 . S
C1460 C1459 1.387 . S
C1460 C1463 1.387 . S
H1461 C1457 0.950 . S
H1462 C1459 0.950 . S
C1463 C1454 1.390 . S
C1463 H1456 0.950 . S
C1463 C1460 1.387 . S
C1464 C1465 1.387 . S
C1464 H1468 0.950 . S
C1464 C1473 1.390 . S
C1465 C1464 1.387 . S
C1465 C1467 1.387 . S
H1466 C1473 0.950 . S
C1467 C1465 1.387 . S
C1467 C1469 1.390 . S
C1467 H1471 0.950 . S
H1468 C1464 0.950 . S
C1469 C1467 1.390 . S
C1469 C1470 1.387 . S
C1469 H1472 0.950 . S
C1470 C1469 1.387 . S
C1470 C1473 1.387 . S
H1471 C1467 0.950 . S
H1472 C1469 0.950 . S
C1473 C1464 1.390 . S
C1473 H1466 0.950 . S
C1473 C1470 1.387 . S
C1474 C1475 1.387 . S
C1474 H1478 0.950 . S
C1474 C1483 1.390 . S
C1475 C1474 1.387 . S
C1475 C1477 1.387 . S
H1476 C1483 0.950 . S
C1477 C1475 1.387 . S
C1477 C1479 1.390 . S
C1477 H1481 0.950 . S
H1478 C1474 0.950 . S
C1479 C1477 1.390 . S
C1479 C1480 1.387 . S
C1479 H1482 0.950 . S
C1480 C1479 1.387 . S
C1480 C1483 1.387 . S
H1481 C1477 0.950 . S
H1482 C1479 0.950 . S
C1483 C1474 1.390 . S
C1483 H1476 0.950 . S
C1483 C1480 1.387 . S
C1484 C1485 1.387 . S
C1484 H1488 0.950 . S
C1484 C1493 1.390 . S
C1485 C1484 1.387 . S
C1485 C1487 1.387 . S
H1486 C1493 0.950 . S
C1487 C1485 1.387 . S
C1487 C1489 1.390 . S
C1487 H1491 0.950 . S
H1488 C1484 0.950 . S
C1489 C1487 1.390 . S
C1489 C1490 1.387 . S
C1489 H1492 0.950 . S
C1490 C1489 1.387 . S
C1490 C1493 1.387 . S
H1491 C1487 0.950 . S
H1492 C1489 0.950 . S
C1493 C1484 1.390 . S
C1493 H1486 0.950 . S
C1493 C1490 1.387 . S
C1494 C1495 1.387 . S
C1494 H1498 0.950 . S
C1494 C1503 1.390 . S
C1495 C1494 1.387 . S
C1495 C1497 1.387 . S
H1496 C1503 0.950 . S
C1497 C1495 1.387 . S
C1497 C1499 1.390 . S
C1497 H1501 0.950 . S
H1498 C1494 0.950 . S
C1499 C1497 1.390 . S
C1499 C1500 1.387 . S
C1499 H1502 0.950 . S
C1500 C1499 1.387 . S
C1500 C1503 1.387 . S
H1501 C1497 0.950 . S
H1502 C1499 0.950 . S
C1503 C1494 1.390 . S
C1503 H1496 0.950 . S
C1503 C1500 1.387 . S
C1504 C1505 1.387 . S
C1504 H1508 0.950 . S
C1504 C1513 1.390 . S
C1505 C1504 1.387 . S
C1505 C1507 1.387 . S
H1506 C1513 0.950 . S
C1507 C1505 1.387 . S
C1507 C1509 1.390 . S
C1507 H1511 0.950 . S
H1508 C1504 0.950 . S
C1509 C1507 1.390 . S
C1509 C1510 1.387 . S
C1509 H1512 0.950 . S
C1510 C1509 1.387 . S
C1510 C1513 1.387 . S
H1511 C1507 0.950 . S
H1512 C1509 0.950 . S
C1513 C1504 1.390 . S
C1513 H1506 0.950 . S
C1513 C1510 1.387 . S
C1514 C1515 1.387 . S
C1514 H1518 0.950 . S
C1514 C1523 1.390 . S
C1515 C1514 1.387 . S
C1515 C1517 1.387 . S
H1516 C1523 0.950 . S
C1517 C1515 1.387 . S
C1517 C1519 1.390 . S
C1517 H1521 0.950 . S
H1518 C1514 0.950 . S
C1519 C1517 1.390 . S
C1519 C1520 1.387 . S
C1519 H1522 0.950 . S
C1520 C1519 1.387 . S
C1520 C1523 1.387 . S
H1521 C1517 0.950 . S
H1522 C1519 0.950 . S
C1523 C1514 1.390 . S
C1523 H1516 0.950 . S
C1523 C1520 1.387 . S
C1524 C1525 1.387 . S
C1524 H1528 0.950 . S
C1524 C1533 1.390 . S
C1525 C1524 1.387 . S
C1525 C1527 1.387 . S
H1526 C1533 0.950 . S
C1527 C1525 1.387 . S
C1527 C1529 1.390 . S
C1527 H1531 0.950 . S
H1528 C1524 0.950 . S
C1529 C1527 1.390 . S
C1529 C1530 1.387 . S
C1529 H1532 0.950 . S
C1530 C1529 1.387 . S
C1530 C1533 1.387 . S
H1531 C1527 0.950 . S
H1532 C1529 0.950 . S
C1533 C1524 1.390 . S
C1533 H1526 0.950 . S
C1533 C1530 1.387 . S
C1534 C1535 1.387 . S
C1534 H1538 0.950 . S
C1534 C1543 1.390 . S
C1535 C1534 1.387 . S
C1535 C1537 1.387 . S
H1536 C1543 0.950 . S
C1537 C1535 1.387 . S
C1537 C1539 1.390 . S
C1537 H1541 0.950 . S
H1538 C1534 0.950 . S
C1539 C1537 1.390 . S
C1539 C1540 1.387 . S
C1539 H1542 0.950 . S
C1540 C1539 1.387 . S
C1540 C1543 1.387 . S
H1541 C1537 0.950 . S
H1542 C1539 0.950 . S
C1543 C1534 1.390 . S
C1543 H1536 0.950 . S
C1543 C1540 1.387 . S
C1544 C1545 1.387 . S
C1544 H1548 0.950 . S
C1544 C1553 1.390 . S
C1545 C1544 1.387 . S
C1545 C1547 1.387 . S
H1546 C1553 0.950 . S
C1547 C1545 1.387 . S
C1547 C1549 1.390 . S
C1547 H1551 0.950 . S
H1548 C1544 0.950 . S
C1549 C1547 1.390 . S
C1549 C1550 1.387 . S
C1549 H1552 0.950 . S
C1550 C1549 1.387 . S
C1550 C1553 1.387 . S
H1551 C1547 0.950 . S
H1552 C1549 0.950 . S
C1553 C1544 1.390 . S
C1553 H1546 0.950 . S
C1553 C1550 1.387 . S
C1554 C1555 1.387 . S
C1554 H1558 0.950 . S
C1554 C1563 1.390 . S
C1555 C1554 1.387 . S
C1555 C1557 1.387 . S
H1556 C1563 0.950 . S
C1557 C1555 1.387 . S
C1557 C1559 1.390 . S
C1557 H1561 0.950 . S
H1558 C1554 0.950 . S
C1559 C1557 1.390 . S
C1559 C1560 1.387 . S
C1559 H1562 0.950 . S
C1560 C1559 1.387 . S
C1560 C1563 1.387 . S
H1561 C1557 0.950 . S
H1562 C1559 0.950 . S
C1563 C1554 1.390 . S
C1563 H1556 0.950 . S
C1563 C1560 1.387 . S
C1564 C1565 1.387 . S
C1564 H1568 0.950 . S
C1564 C1573 1.390 . S
C1565 C1564 1.387 . S
C1565 C1567 1.387 . S
H1566 C1573 0.950 . S
C1567 C1565 1.387 . S
C1567 C1569 1.390 . S
C1567 H1571 0.950 . S
H1568 C1564 0.950 . S
C1569 C1567 1.390 . S
C1569 C1570 1.387 . S
C1569 H1572 0.950 . S
C1570 C1569 1.387 . S
C1570 C1573 1.387 . S
H1571 C1567 0.950 . S
H1572 C1569 0.950 . S
C1573 C1564 1.390 . S
C1573 H1566 0.950 . S
C1573 C1570 1.387 . S
C1574 C1575 1.387 . S
C1574 H1578 0.950 . S
C1574 C1583 1.390 . S
C1575 C1574 1.387 . S
C1575 C1577 1.387 . S
H1576 C1583 0.950 . S
C1577 C1575 1.387 . S
C1577 C1579 1.390 . S
C1577 H1581 0.950 . S
H1578 C1574 0.950 . S
C1579 C1577 1.390 . S
C1579 C1580 1.387 . S
C1579 H1582 0.950 . S
C1580 C1579 1.387 . S
C1580 C1583 1.387 . S
H1581 C1577 0.950 . S
H1582 C1579 0.950 . S
C1583 C1574 1.390 . S
C1583 H1576 0.950 . S
C1583 C1580 1.387 . S
C1584 C1585 1.387 . S
C1584 H1588 0.950 . S
C1584 C1593 1.390 . S
C1585 C1584 1.387 . S
C1585 C1587 1.387 . S
H1586 C1593 0.950 . S
C1587 C1585 1.387 . S
C1587 C1589 1.390 . S
C1587 H1591 0.950 . S
H1588 C1584 0.950 . S
C1589 C1587 1.390 . S
C1589 C1590 1.387 . S
C1589 H1592 0.950 . S
C1590 C1589 1.387 . S
C1590 C1593 1.387 . S
H1591 C1587 0.950 . S
H1592 C1589 0.950 . S
C1593 C1584 1.390 . S
C1593 H1586 0.950 . S
C1593 C1590 1.387 . S
C1594 C1595 1.387 . S
C1594 H1598 0.950 . S
C1594 C1603 1.390 . S
C1595 C1594 1.387 . S
C1595 C1597 1.387 . S
H1596 C1603 0.950 . S
C1597 C1595 1.387 . S
C1597 C1599 1.390 . S
C1597 H1601 0.950 . S
H1598 C1594 0.950 . S
C1599 C1597 1.390 . S
C1599 C1600 1.387 . S
C1599 H1602 0.950 . S
C1600 C1599 1.387 . S
C1600 C1603 1.387 . S
H1601 C1597 0.950 . S
H1602 C1599 0.950 . S
C1603 C1594 1.390 . S
C1603 H1596 0.950 . S
C1603 C1600 1.387 . S
C1604 C1605 1.387 . S
C1604 H1608 0.950 . S
C1604 C1613 1.390 . S
C1605 C1604 1.387 . S
C1605 C1607 1.387 . S
H1606 C1613 0.950 . S
C1607 C1605 1.387 . S
C1607 C1609 1.390 . S
C1607 H1611 0.950 . S
H1608 C1604 0.950 . S
C1609 C1607 1.390 . S
C1609 C1610 1.387 . S
C1609 H1612 0.950 . S
C1610 C1609 1.387 . S
C1610 C1613 1.387 . S
H1611 C1607 0.950 . S
H1612 C1609 0.950 . S
C1613 C1604 1.390 . S
C1613 H1606 0.950 . S
C1613 C1610 1.387 . S
C1614 C1615 1.387 . S
C1614 H1618 0.950 . S
C1614 C1623 1.390 . S
C1615 C1614 1.387 . S
C1615 C1617 1.387 . S
H1616 C1623 0.950 . S
C1617 C1615 1.387 . S
C1617 C1619 1.390 . S
C1617 H1621 0.950 . S
H1618 C1614 0.950 . S
C1619 C1617 1.390 . S
C1619 C1620 1.387 . S
C1619 H1622 0.950 . S
C1620 C1619 1.387 . S
C1620 C1623 1.387 . S
H1621 C1617 0.950 . S
H1622 C1619 0.950 . S
C1623 C1614 1.390 . S
C1623 H1616 0.950 . S
C1623 C1620 1.387 . S
C1624 C1625 1.387 . S
C1624 H1628 0.950 . S
C1624 C1633 1.390 . S
C1625 C1624 1.387 . S
C1625 C1627 1.387 . S
H1626 C1633 0.950 . S
C1627 C1625 1.387 . S
C1627 C1629 1.390 . S
C1627 H1631 0.950 . S
H1628 C1624 0.950 . S
C1629 C1627 1.390 . S
C1629 C1630 1.387 . S
C1629 H1632 0.950 . S
C1630 C1629 1.387 . S
C1630 C1633 1.387 . S
H1631 C1627 0.950 . S
H1632 C1629 0.950 . S
C1633 C1624 1.390 . S
C1633 H1626 0.950 . S
C1633 C1630 1.387 . S
C1634 C1635 1.387 . S
C1634 H1638 0.950 . S
C1634 C1643 1.390 . S
C1635 C1634 1.387 . S
C1635 C1637 1.387 . S
H1636 C1643 0.950 . S
C1637 C1635 1.387 . S
C1637 C1639 1.390 . S
C1637 H1641 0.950 . S
H1638 C1634 0.950 . S
C1639 C1637 1.390 . S
C1639 C1640 1.387 . S
C1639 H1642 0.950 . S
C1640 C1639 1.387 . S
C1640 C1643 1.387 . S
H1641 C1637 0.950 . S
H1642 C1639 0.950 . S
C1643 C1634 1.390 . S
C1643 H1636 0.950 . S
C1643 C1640 1.387 . S
C1644 C1645 1.387 . S
C1644 H1648 0.950 . S
C1644 C1653 1.390 . S
C1645 C1644 1.387 . S
C1645 C1647 1.387 . S
H1646 C1653 0.950 . S
C1647 C1645 1.387 . S
C1647 C1649 1.390 . S
C1647 H1651 0.950 . S
H1648 C1644 0.950 . S
C1649 C1647 1.390 . S
C1649 C1650 1.387 . S
C1649 H1652 0.950 . S
C1650 C1649 1.387 . S
C1650 C1653 1.387 . S
H1651 C1647 0.950 . S
H1652 C1649 0.950 . S
C1653 C1644 1.390 . S
C1653 H1646 0.950 . S
C1653 C1650 1.387 . S
C1654 C1655 1.387 . S
C1654 H1658 0.950 . S
C1654 C1663 1.390 . S
C1655 C1654 1.387 . S
C1655 C1657 1.387 . S
H1656 C1663 0.950 . S
C1657 C1655 1.387 . S
C1657 C1659 1.390 . S
C1657 H1661 0.950 . S
H1658 C1654 0.950 . S
C1659 C1657 1.390 . S
C1659 C1660 1.387 . S
C1659 H1662 0.950 . S
C1660 C1659 1.387 . S
C1660 C1663 1.387 . S
H1661 C1657 0.950 . S
H1662 C1659 0.950 . S
C1663 C1654 1.390 . S
C1663 H1656 0.950 . S
C1663 C1660 1.387 . S
C1664 C1665 1.387 . S
C1664 H1668 0.950 . S
C1664 C1673 1.390 . S
C1665 C1664 1.387 . S
C1665 C1667 1.387 . S
H1666 C1673 0.950 . S
C1667 C1665 1.387 . S
C1667 C1669 1.390 . S
C1667 H1671 0.950 . S
H1668 C1664 0.950 . S
C1669 C1667 1.390 . S
C1669 C1670 1.387 . S
C1669 H1672 0.950 . S
C1670 C1669 1.387 . S
C1670 C1673 1.387 . S
H1671 C1667 0.950 . S
H1672 C1669 0.950 . S
C1673 C1664 1.390 . S
C1673 H1666 0.950 . S
C1673 C1670 1.387 . S
C1674 C1675 1.387 . S
C1674 H1678 0.950 . S
C1674 C1683 1.390 . S
C1675 C1674 1.387 . S
C1675 C1677 1.387 . S
H1676 C1683 0.950 . S
C1677 C1675 1.387 . S
C1677 C1679 1.390 . S
C1677 H1681 0.950 . S
H1678 C1674 0.950 . S
C1679 C1677 1.390 . S
C1679 C1680 1.387 . S
C1679 H1682 0.950 . S
C1680 C1679 1.387 . S
C1680 C1683 1.387 . S
H1681 C1677 0.950 . S
H1682 C1679 0.950 . S
C1683 C1674 1.390 . S
C1683 H1676 0.950 . S
C1683 C1680 1.387 . S
C1684 C1685 1.387 . S
C1684 H1688 0.950 . S
C1684 C1693 1.390 . S
C1685 C1684 1.387 . S
C1685 C1687 1.387 . S
H1686 C1693 0.950 . S
C1687 C1685 1.387 . S
C1687 C1689 1.390 . S
C1687 H1691 0.950 . S
H1688 C1684 0.950 . S
C1689 C1687 1.390 . S
C1689 C1690 1.387 . S
C1689 H1692 0.950 . S
C1690 C1689 1.387 . S
C1690 C1693 1.387 . S
H1691 C1687 0.950 . S
H1692 C1689 0.950 . S
C1693 C1684 1.390 . S
C1693 H1686 0.950 . S
C1693 C1690 1.387 . S
C1694 C1695 1.387 . S
C1694 H1698 0.950 . S
C1694 C1703 1.390 . S
C1695 C1694 1.387 . S
C1695 C1697 1.387 . S
H1696 C1703 0.950 1_554 S
C1697 C1695 1.387 . S
C1697 C1699 1.390 . S
C1697 H1701 0.950 . S
H1698 C1694 0.950 . S
C1699 C1697 1.390 . S
C1699 C1700 1.387 . S
C1699 H1702 0.950 . S
C1700 C1699 1.387 . S
C1700 C1703 1.387 . S
H1701 C1697 0.950 . S
H1702 C1699 0.950 . S
C1703 C1694 1.390 . S
C1703 H1696 0.950 1_556 S
C1703 C1700 1.387 . S
C1704 C1705 1.387 . S
C1704 H1708 0.950 . S
C1704 C1713 1.390 . S
C1705 C1704 1.387 . S
C1705 C1707 1.387 . S
H1706 C1713 0.950 . S
C1707 C1705 1.387 . S
C1707 C1709 1.390 . S
C1707 H1711 0.950 . S
H1708 C1704 0.950 . S
C1709 C1707 1.390 . S
C1709 C1710 1.387 . S
C1709 H1712 0.950 . S
C1710 C1709 1.387 . S
C1710 C1713 1.387 . S
H1711 C1707 0.950 . S
H1712 C1709 0.950 . S
C1713 C1704 1.390 . S
C1713 H1706 0.950 . S
C1713 C1710 1.387 . S
C1714 C1715 1.387 . S
C1714 H1718 0.950 . S
C1714 C1723 1.390 . S
C1715 C1714 1.387 . S
C1715 C1717 1.387 . S
H1716 C1723 0.950 . S
C1717 C1715 1.387 . S
C1717 C1719 1.390 . S
C1717 H1721 0.950 . S
H1718 C1714 0.950 . S
C1719 C1717 1.390 . S
C1719 C1720 1.387 . S
C1719 H1722 0.950 . S
C1720 C1719 1.387 . S
C1720 C1723 1.387 . S
H1721 C1717 0.950 . S
H1722 C1719 0.950 . S
C1723 C1714 1.390 . S
C1723 H1716 0.950 . S
C1723 C1720 1.387 . S
C1724 C1725 1.387 . S
C1724 H1728 0.950 . S
C1724 C1733 1.390 . S
C1725 C1724 1.387 . S
C1725 C1727 1.387 . S
H1726 C1733 0.950 . S
C1727 C1725 1.387 . S
C1727 C1729 1.390 . S
C1727 H1731 0.950 . S
H1728 C1724 0.950 . S
C1729 C1727 1.390 . S
C1729 C1730 1.387 . S
C1729 H1732 0.950 . S
C1730 C1729 1.387 . S
C1730 C1733 1.387 . S
H1731 C1727 0.950 . S
H1732 C1729 0.950 . S
C1733 C1724 1.390 . S
C1733 H1726 0.950 . S
C1733 C1730 1.387 . S
C1734 C1735 1.387 . S
C1734 H1738 0.950 . S
C1734 C1743 1.390 . S
C1735 C1734 1.387 . S
C1735 C1737 1.387 . S
H1736 C1743 0.950 . S
C1737 C1735 1.387 . S
C1737 C1739 1.390 . S
C1737 H1741 0.950 . S
H1738 C1734 0.950 . S
C1739 C1737 1.390 . S
C1739 C1740 1.387 . S
C1739 H1742 0.950 . S
C1740 C1739 1.387 . S
C1740 C1743 1.387 . S
H1741 C1737 0.950 . S
H1742 C1739 0.950 . S
C1743 C1734 1.390 . S
C1743 H1736 0.950 . S
C1743 C1740 1.387 . S
C1744 C1745 1.387 . S
C1744 H1748 0.950 . S
C1744 C1753 1.390 . S
C1745 C1744 1.387 . S
C1745 C1747 1.387 . S
H1746 C1753 0.950 . S
C1747 C1745 1.387 . S
C1747 C1749 1.390 . S
C1747 H1751 0.950 . S
H1748 C1744 0.950 . S
C1749 C1747 1.390 . S
C1749 C1750 1.387 . S
C1749 H1752 0.950 . S
C1750 C1749 1.387 . S
C1750 C1753 1.387 . S
H1751 C1747 0.950 . S
H1752 C1749 0.950 . S
C1753 C1744 1.390 . S
C1753 H1746 0.950 . S
C1753 C1750 1.387 . S
C1754 C1755 1.387 . S
C1754 H1758 0.950 . S
C1754 C1763 1.390 . S
C1755 C1754 1.387 . S
C1755 C1757 1.387 . S
H1756 C1763 0.950 . S
C1757 C1755 1.387 . S
C1757 C1759 1.390 . S
C1757 H1761 0.950 . S
H1758 C1754 0.950 . S
C1759 C1757 1.390 . S
C1759 C1760 1.387 . S
C1759 H1762 0.950 . S
C1760 C1759 1.387 . S
C1760 C1763 1.387 . S
H1761 C1757 0.950 . S
H1762 C1759 0.950 . S
C1763 C1754 1.390 . S
C1763 H1756 0.950 . S
C1763 C1760 1.387 . S
C1764 C1765 1.387 . S
C1764 H1768 0.950 . S
C1764 C1773 1.390 . S
C1765 C1764 1.387 . S
C1765 C1767 1.387 . S
H1766 C1773 0.950 . S
C1767 C1765 1.387 . S
C1767 C1769 1.390 . S
C1767 H1771 0.950 . S
H1768 C1764 0.950 . S
C1769 C1767 1.390 . S
C1769 C1770 1.387 . S
C1769 H1772 0.950 . S
C1770 C1769 1.387 . S
C1770 C1773 1.387 . S
H1771 C1767 0.950 . S
H1772 C1769 0.950 . S
C1773 C1764 1.390 . S
C1773 H1766 0.950 . S
C1773 C1770 1.387 . S
C1774 C1775 1.387 . S
C1774 H1778 0.950 . S
C1774 C1783 1.390 . S
C1775 C1774 1.387 . S
C1775 C1777 1.387 . S
H1776 C1783 0.950 . S
C1777 C1775 1.387 . S
C1777 C1779 1.390 . S
C1777 H1781 0.950 . S
H1778 C1774 0.950 . S
C1779 C1777 1.390 . S
C1779 C1780 1.387 . S
C1779 H1782 0.950 . S
C1780 C1779 1.387 . S
C1780 C1783 1.387 . S
H1781 C1777 0.950 . S
H1782 C1779 0.950 . S
C1783 C1774 1.390 . S
C1783 H1776 0.950 . S
C1783 C1780 1.387 . S
C1784 C1785 1.387 . S
C1784 H1788 0.950 . S
C1784 C1793 1.390 . S
C1785 C1784 1.387 . S
C1785 C1787 1.387 . S
H1786 C1793 0.950 . S
C1787 C1785 1.387 . S
C1787 C1789 1.390 . S
C1787 H1791 0.950 . S
H1788 C1784 0.950 . S
C1789 C1787 1.390 . S
C1789 C1790 1.387 . S
C1789 H1792 0.950 . S
C1790 C1789 1.387 . S
C1790 C1793 1.387 . S
H1791 C1787 0.950 . S
H1792 C1789 0.950 . S
C1793 C1784 1.390 . S
C1793 H1786 0.950 . S
C1793 C1790 1.387 . S
C1794 C1795 1.387 . S
C1794 H1798 0.950 . S
C1794 C1803 1.390 . S
C1795 C1794 1.387 . S
C1795 C1797 1.387 . S
H1796 C1803 0.950 . S
C1797 C1795 1.387 . S
C1797 C1799 1.390 . S
C1797 H1801 0.950 . S
H1798 C1794 0.950 . S
C1799 C1797 1.390 . S
C1799 C1800 1.387 . S
C1799 H1802 0.950 . S
C1800 C1799 1.387 . S
C1800 C1803 1.387 . S
H1801 C1797 0.950 . S
H1802 C1799 0.950 . S
C1803 C1794 1.390 . S
C1803 H1796 0.950 . S
C1803 C1800 1.387 . S
C1804 C1805 1.387 . S
C1804 H1808 0.950 . S
C1804 C1813 1.390 . S
C1805 C1804 1.387 . S
C1805 C1807 1.387 . S
H1806 C1813 0.950 . S
C1807 C1805 1.387 . S
C1807 C1809 1.390 . S
C1807 H1811 0.950 . S
H1808 C1804 0.950 . S
C1809 C1807 1.390 . S
C1809 C1810 1.387 . S
C1809 H1812 0.950 . S
C1810 C1809 1.387 . S
C1810 C1813 1.387 . S
H1811 C1807 0.950 . S
H1812 C1809 0.950 . S
C1813 C1804 1.390 . S
C1813 H1806 0.950 . S
C1813 C1810 1.387 . S
C1814 C1815 1.387 . S
C1814 H1818 0.950 . S
C1814 C1823 1.390 . S
C1815 C1814 1.387 . S
C1815 C1817 1.387 . S
H1816 C1823 0.950 . S
C1817 C1815 1.387 . S
C1817 C1819 1.390 . S
C1817 H1821 0.950 . S
H1818 C1814 0.950 . S
C1819 C1817 1.390 . S
C1819 C1820 1.387 . S
C1819 H1822 0.950 . S
C1820 C1819 1.387 . S
C1820 C1823 1.387 . S
H1821 C1817 0.950 . S
H1822 C1819 0.950 . S
C1823 C1814 1.390 . S
C1823 H1816 0.950 . S
C1823 C1820 1.387 . S
C1824 C1825 1.387 . S
C1824 H1828 0.950 . S
C1824 C1833 1.390 . S
C1825 C1824 1.387 . S
C1825 C1827 1.387 . S
H1826 C1833 0.950 . S
C1827 C1825 1.387 . S
C1827 C1829 1.390 . S
C1827 H1831 0.950 . S
H1828 C1824 0.950 . S
C1829 C1827 1.390 . S
C1829 C1830 1.387 . S
C1829 H1832 0.950 . S
C1830 C1829 1.387 . S
C1830 C1833 1.387 . S
H1831 C1827 0.950 . S
H1832 C1829 0.950 . S
C1833 C1824 1.390 . S
C1833 H1826 0.950 . S
C1833 C1830 1.387 . S
C1834 C1835 1.387 . S
C1834 H1838 0.950 . S
C1834 C1843 1.390 . S
C1835 C1834 1.387 . S
C1835 C1837 1.387 . S
H1836 C1843 0.950 . S
C1837 C1835 1.387 . S
C1837 C1839 1.390 . S
C1837 H1841 0.950 . S
H1838 C1834 0.950 . S
C1839 C1837 1.390 . S
C1839 C1840 1.387 . S
C1839 H1842 0.950 . S
C1840 C1839 1.387 . S
C1840 C1843 1.387 . S
H1841 C1837 0.950 . S
H1842 C1839 0.950 . S
C1843 C1834 1.390 . S
C1843 H1836 0.950 . S
C1843 C1840 1.387 . S
C1844 C1845 1.387 . S
C1844 H1848 0.950 . S
C1844 C1853 1.390 . S
C1845 C1844 1.387 . S
C1845 C1847 1.387 . S
H1846 C1853 0.950 . S
C1847 C1845 1.387 . S
C1847 C1849 1.390 . S
C1847 H1851 0.950 . S
H1848 C1844 0.950 . S
C1849 C1847 1.390 . S
C1849 C1850 1.387 . S
C1849 H1852 0.950 . S
C1850 C1849 1.387 . S
C1850 C1853 1.387 . S
H1851 C1847 0.950 . S
H1852 C1849 0.950 . S
C1853 C1844 1.390 . S
C1853 H1846 0.950 . S
C1853 C1850 1.387 . S
C1854 C1855 1.387 . S
C1854 H1858 0.950 . S
C1854 C1863 1.390 . S
C1855 C1854 1.387 . S
C1855 C1857 1.387 . S
H1856 C1863 0.950 . S
C1857 C1855 1.387 . S
C1857 C1859 1.390 . S
C1857 H1861 0.950 . S
H1858 C1854 0.950 . S
C1859 C1857 1.390 . S
C1859 C1860 1.387 . S
C1859 H1862 0.950 . S
C1860 C1859 1.387 . S
C1860 C1863 1.387 . S
H1861 C1857 0.950 . S
H1862 C1859 0.950 . S
C1863 C1854 1.390 . S
C1863 H1856 0.950 . S
C1863 C1860 1.387 . S
C910 N364 1.847 . S
C905 C7 1.823 . S
C920 C391 1.531 . S
C915 C19 1.517 . S
C925 C29 1.779 . S
C930 C405 1.791 . S
C940 N423 1.237 . S
C935 C41 1.233 . S
C945 C52 1.551 . S
C950 C428 1.541 . S
C955 C62 1.576 . S
C960 C368 1.611 1_556 S
C965 C73 1.204 . S
C970 N387 1.190 . S
C980 N400 1.721 . S
C975 C82 1.491 . S
C990 N446 1.705 . S
C985 C5 1.462 . S
C995 C16 1.499 . S
C1000 N469 1.628 . S
C1005 C30 1.592 . S
C1010 N492 1.518 . S
C1020 N525 1.225 . S
C1015 C40 1.227 . S
C1025 C49 1.336 . S
C1030 C552 1.504 . S
C1040 C575 1.519 . S
C1035 C63 1.545 . S
C1045 C74 1.309 . S
C1050 C598 1.348 . S
C1060 C612 1.563 1_565 S
C1055 C85 1.535 . S
C1065 C8 1.604 . S
C1070 C529 1.638 . S
C1075 C51 1.547 . S
C1080 N571 1.554 . S
C1090 N594 1.681 . S
C1085 C60 1.596 . S
C1095 C71 1.087 . S
C1100 N607 1.265 . S
C1110 N548 1.821 . S
C1105 C84 1.786 . S
C1120 C474 1.636 . S
C1115 C27 1.488 . S
C1125 C38 1.122 . S
C1130 C497 1.303 . S
C1140 C451 1.698 . S
C1135 C18 1.676 . S
C1150 C644 1.919 . S
C1145 C95 1.785 . S
C1155 C107 1.469 . S
C1160 C658 1.474 . S
C1165 C117 1.754 . S
C1170 N686 1.686 . S
C1180 N699 1.331 . S
C1175 C129 1.326 . S
C1185 C140 1.508 . S
C1190 C704 1.502 . S
C1195 C150 1.557 . S
C1200 N640 1.521 . S
C1205 C161 1.279 . S
C1210 N653 1.289 . S
C1215 C170 1.484 . S
C1220 C690 1.749 . S
C1230 N538 1.691 . S
C1225 C93 1.456 . S
C1235 C104 1.441 . S
C1240 N722 1.569 . S
C1250 N584 1.550 . S
C1245 C118 1.644 . S
C1255 C128 1.141 . S
C1260 C759 1.156 . S
C1265 C137 1.370 . S
C1270 C460 1.533 . S
C1280 C773 1.526 . S
C1275 C151 1.528 . S
C1285 C162 1.248 . S
C1290 C506 1.283 1_655 S
C1300 N791 1.500 . S
C1295 C173 1.498 . S
C1305 C96 1.548 . S
C1310 N755 1.532 . S
C1320 N768 1.561 . S
C1315 C139 1.584 . S
C1325 C148 1.490 . S
C1330 N502 1.596 . S
C1340 C796 1.247 . S
C1335 C159 1.041 . S
C1345 C172 1.794 . S
C1350 N456 1.831 . S
C1355 C115 1.411 . S
C1360 C727 1.549 . S
C1365 C126 1.284 . S
C1370 C589 1.450 . S
C1375 C106 1.704 . S
C1380 C543 1.729 . S
C1385 C183 1.863 . S
C1390 C681 1.979 . S
C1400 C713 1.416 . S
C1395 C195 1.410 . S
C1405 C205 1.723 . S
C1410 N630 1.699 . S
C1415 C217 1.249 . S
C1420 N663 1.217 . S
C1425 C228 1.587 . S
C1430 C667 1.563 . S
C1435 C238 1.587 . S
C1440 N676 1.605 . S
C1450 N709 1.159 . S
C1445 C249 1.176 . S
C1455 C258 1.553 . S
C1460 C635 1.813 . S
C1470 N824 1.701 . S
C1465 C181 1.480 . S
C1475 C192 1.402 . S
C1480 N561 1.537 . S
C1490 N847 1.503 . S
C1485 C206 1.520 . S
C1495 C216 1.196 . S
C1500 N617 1.215 . S
C1505 C225 1.374 . S
C1510 C865 1.541 . S
C1515 C239 1.610 . S
C1520 C483 1.585 . S
C1530 N883 1.279 . S
C1525 C250 1.222 . S
C1535 C261 1.599 . S
C1540 C520 1.619 . S
C1550 C621 1.633 . S
C1545 C184 1.605 . S
C1560 N479 1.600 . S
C1555 C227 1.625 . S
C1565 C236 1.656 . S
C1570 C888 1.803 . S
C1575 C247 1.032 . S
C1580 N515 1.182 . S
C1590 N860 1.948 . S
C1585 C260 1.843 . S
C1600 C566 1.525 . S
C1595 C203 1.406 . S
C1610 C851 1.483 . S
C1605 C214 1.283 . S
C1620 C828 1.681 . S
C1615 C194 1.660 . S
C1625 C271 1.705 . S
C1630 N410 1.748 . S
C1635 C283 1.435 . S
C1640 C437 1.445 . S
C1650 C359 1.860 . S
C1645 C293 1.850 . S
C1660 N377 1.253 . S
C1655 C305 1.248 . S
C1670 C382 1.554 . S
C1665 C316 1.572 . S
C1680 C414 1.580 1_556 S
C1675 C326 1.570 . S
C1690 N433 1.293 . S
C1685 C337 1.320 . S
C1695 C346 1.479 . S
C1700 N354 1.744 1_556 S
C1705 C269 1.406 . S
C1710 N870 1.638 . S
C1720 N778 1.564 . S
C1715 C280 1.418 . S
C1730 C897 1.688 . S
C1725 C294 1.735 . S
C1740 C805 1.064 . S
C1735 C304 1.094 . S
C1745 C313 1.371 . S
C1750 C819 1.533 . S
C1760 C736 1.506 . S
C1755 C327 1.538 . S
C1770 C842 1.394 . S
C1765 C338 1.401 . S
C1775 C349 1.513 . S
C1780 N745 1.509 . S
C1790 N801 1.477 . S
C1785 C272 1.491 . S
C1800 N732 1.544 . S
C1795 C315 1.534 . S
C1810 N837 1.520 . S
C1805 C324 1.444 . S
C1815 C335 1.079 . S
C1820 C750 1.288 . S
C1825 C348 1.760 . S
C1830 N814 1.860 . S
C1835 C291 1.490 . S
C1840 C782 1.639 . S
C1845 C302 1.164 . S
C1850 N893 1.288 . S
C1860 C874 1.655 . S
C1855 C282 1.647 . S
