# Generated by pormake.
# Topology gar, (4,6)-cn, num edge types: 1
# Building blocks:
#     Node 0, Type 0, BuildingBlock: NAHDIM_clean_sbu_0, # of connection points: 4
#     Node 1, Type 0, BuildingBlock: NAHDIM_clean_sbu_0, # of connection points: 4
#     Node 2, Type 0, BuildingBlock: NAHDIM_clean_sbu_0, # of connection points: 4
#     Node 3, Type 0, BuildingBlock: NAHDIM_clean_sbu_0, # of connection points: 4
#     Node 4, Type 0, BuildingBlock: NAHDIM_clean_sbu_0, # of connection points: 4
#     Node 5, Type 0, BuildingBlock: NAHDIM_clean_sbu_0, # of connection points: 4
#     Node 6, Type 0, BuildingBlock: NAHDIM_clean_sbu_0, # of connection points: 4
#     Node 7, Type 0, BuildingBlock: NAHDIM_clean_sbu_0, # of connection points: 4
#     Node 8, Type 0, BuildingBlock: NAHDIM_clean_sbu_0, # of connection points: 4
#     Node 9, Type 0, BuildingBlock: NAHDIM_clean_sbu_0, # of connection points: 4
#     Node 10, Type 0, BuildingBlock: NAHDIM_clean_sbu_0, # of connection points: 4
#     Node 11, Type 0, BuildingBlock: NAHDIM_clean_sbu_0, # of connection points: 4
#     Node 12, Type 0, BuildingBlock: NAHDIM_clean_sbu_0, # of connection points: 4
#     Node 13, Type 0, BuildingBlock: NAHDIM_clean_sbu_0, # of connection points: 4
#     Node 14, Type 0, BuildingBlock: NAHDIM_clean_sbu_0, # of connection points: 4
#     Node 15, Type 0, BuildingBlock: NAHDIM_clean_sbu_0, # of connection points: 4
#     Node 16, Type 0, BuildingBlock: NAHDIM_clean_sbu_0, # of connection points: 4
#     Node 17, Type 0, BuildingBlock: NAHDIM_clean_sbu_0, # of connection points: 4
#     Node 18, Type 0, BuildingBlock: NAHDIM_clean_sbu_0, # of connection points: 4
#     Node 19, Type 0, BuildingBlock: NAHDIM_clean_sbu_0, # of connection points: 4
#     Node 20, Type 0, BuildingBlock: NAHDIM_clean_sbu_0, # of connection points: 4
#     Node 21, Type 0, BuildingBlock: NAHDIM_clean_sbu_0, # of connection points: 4
#     Node 22, Type 0, BuildingBlock: NAHDIM_clean_sbu_0, # of connection points: 4
#     Node 23, Type 0, BuildingBlock: NAHDIM_clean_sbu_0, # of connection points: 4
#     Node 24, Type 1, BuildingBlock: BETDAH_clean_sbu_0, # of connection points: 6
#     Node 25, Type 1, BuildingBlock: BETDAH_clean_sbu_0, # of connection points: 6
#     Node 26, Type 1, BuildingBlock: BETDAH_clean_sbu_0, # of connection points: 6
#     Node 27, Type 1, BuildingBlock: BETDAH_clean_sbu_0, # of connection points: 6
#     Node 28, Type 1, BuildingBlock: BETDAH_clean_sbu_0, # of connection points: 6
#     Node 29, Type 1, BuildingBlock: BETDAH_clean_sbu_0, # of connection points: 6
#     Node 30, Type 1, BuildingBlock: BETDAH_clean_sbu_0, # of connection points: 6
#     Node 31, Type 1, BuildingBlock: BETDAH_clean_sbu_0, # of connection points: 6
#     Node 32, Type 1, BuildingBlock: BETDAH_clean_sbu_0, # of connection points: 6
#     Node 33, Type 1, BuildingBlock: BETDAH_clean_sbu_0, # of connection points: 6
#     Node 34, Type 1, BuildingBlock: BETDAH_clean_sbu_0, # of connection points: 6
#     Node 35, Type 1, BuildingBlock: BETDAH_clean_sbu_0, # of connection points: 6
#     Node 36, Type 1, BuildingBlock: BETDAH_clean_sbu_0, # of connection points: 6
#     Node 37, Type 1, BuildingBlock: BETDAH_clean_sbu_0, # of connection points: 6
#     Node 38, Type 1, BuildingBlock: BETDAH_clean_sbu_0, # of connection points: 6
#     Node 39, Type 1, BuildingBlock: BETDAH_clean_sbu_0, # of connection points: 6
#     Edge 40, Type (0, 1), BuildingBlock: ZUJKAS_clean_linker_0, # of connection points: 2
#     Edge 41, Type (0, 1), BuildingBlock: ZUJKAS_clean_linker_0, # of connection points: 2
#     Edge 42, Type (0, 1), BuildingBlock: ZUJKAS_clean_linker_0, # of connection points: 2
#     Edge 43, Type (0, 1), BuildingBlock: ZUJKAS_clean_linker_0, # of connection points: 2
#     Edge 44, Type (0, 1), BuildingBlock: ZUJKAS_clean_linker_0, # of connection points: 2
#     Edge 45, Type (0, 1), BuildingBlock: ZUJKAS_clean_linker_0, # of connection points: 2
#     Edge 46, Type (0, 1), BuildingBlock: ZUJKAS_clean_linker_0, # of connection points: 2
#     Edge 47, Type (0, 1), BuildingBlock: ZUJKAS_clean_linker_0, # of connection points: 2
#     Edge 48, Type (0, 1), BuildingBlock: ZUJKAS_clean_linker_0, # of connection points: 2
#     Edge 49, Type (0, 1), BuildingBlock: ZUJKAS_clean_linker_0, # of connection points: 2
#     Edge 50, Type (0, 1), BuildingBlock: ZUJKAS_clean_linker_0, # of connection points: 2
#     Edge 51, Type (0, 1), BuildingBlock: ZUJKAS_clean_linker_0, # of connection points: 2
#     Edge 52, Type (0, 1), BuildingBlock: ZUJKAS_clean_linker_0, # of connection points: 2
#     Edge 53, Type (0, 1), BuildingBlock: ZUJKAS_clean_linker_0, # of connection points: 2
#     Edge 54, Type (0, 1), BuildingBlock: ZUJKAS_clean_linker_0, # of connection points: 2
#     Edge 55, Type (0, 1), BuildingBlock: ZUJKAS_clean_linker_0, # of connection points: 2
#     Edge 56, Type (0, 1), BuildingBlock: ZUJKAS_clean_linker_0, # of connection points: 2
#     Edge 57, Type (0, 1), BuildingBlock: ZUJKAS_clean_linker_0, # of connection points: 2
#     Edge 58, Type (0, 1), BuildingBlock: ZUJKAS_clean_linker_0, # of connection points: 2
#     Edge 59, Type (0, 1), BuildingBlock: ZUJKAS_clean_linker_0, # of connection points: 2
#     Edge 60, Type (0, 1), BuildingBlock: ZUJKAS_clean_linker_0, # of connection points: 2
#     Edge 61, Type (0, 1), BuildingBlock: ZUJKAS_clean_linker_0, # of connection points: 2
#     Edge 62, Type (0, 1), BuildingBlock: ZUJKAS_clean_linker_0, # of connection points: 2
#     Edge 63, Type (0, 1), BuildingBlock: ZUJKAS_clean_linker_0, # of connection points: 2
#     Edge 64, Type (0, 1), BuildingBlock: ZUJKAS_clean_linker_0, # of connection points: 2
#     Edge 65, Type (0, 1), BuildingBlock: ZUJKAS_clean_linker_0, # of connection points: 2
#     Edge 66, Type (0, 1), BuildingBlock: ZUJKAS_clean_linker_0, # of connection points: 2
#     Edge 67, Type (0, 1), BuildingBlock: ZUJKAS_clean_linker_0, # of connection points: 2
#     Edge 68, Type (0, 1), BuildingBlock: ZUJKAS_clean_linker_0, # of connection points: 2
#     Edge 69, Type (0, 1), BuildingBlock: ZUJKAS_clean_linker_0, # of connection points: 2
#     Edge 70, Type (0, 1), BuildingBlock: ZUJKAS_clean_linker_0, # of connection points: 2
#     Edge 71, Type (0, 1), BuildingBlock: ZUJKAS_clean_linker_0, # of connection points: 2
#     Edge 72, Type (0, 1), BuildingBlock: ZUJKAS_clean_linker_0, # of connection points: 2
#     Edge 73, Type (0, 1), BuildingBlock: ZUJKAS_clean_linker_0, # of connection points: 2
#     Edge 74, Type (0, 1), BuildingBlock: ZUJKAS_clean_linker_0, # of connection points: 2
#     Edge 75, Type (0, 1), BuildingBlock: ZUJKAS_clean_linker_0, # of connection points: 2
#     Edge 76, Type (0, 1), BuildingBlock: ZUJKAS_clean_linker_0, # of connection points: 2
#     Edge 77, Type (0, 1), BuildingBlock: ZUJKAS_clean_linker_0, # of connection points: 2
#     Edge 78, Type (0, 1), BuildingBlock: ZUJKAS_clean_linker_0, # of connection points: 2
#     Edge 79, Type (0, 1), BuildingBlock: ZUJKAS_clean_linker_0, # of connection points: 2
#     Edge 80, Type (0, 1), BuildingBlock: ZUJKAS_clean_linker_0, # of connection points: 2
#     Edge 81, Type (0, 1), BuildingBlock: ZUJKAS_clean_linker_0, # of connection points: 2
#     Edge 82, Type (0, 1), BuildingBlock: ZUJKAS_clean_linker_0, # of connection points: 2
#     Edge 83, Type (0, 1), BuildingBlock: ZUJKAS_clean_linker_0, # of connection points: 2
#     Edge 84, Type (0, 1), BuildingBlock: ZUJKAS_clean_linker_0, # of connection points: 2
#     Edge 85, Type (0, 1), BuildingBlock: ZUJKAS_clean_linker_0, # of connection points: 2
#     Edge 86, Type (0, 1), BuildingBlock: ZUJKAS_clean_linker_0, # of connection points: 2
#     Edge 87, Type (0, 1), BuildingBlock: ZUJKAS_clean_linker_0, # of connection points: 2
#     Edge 88, Type (0, 1), BuildingBlock: ZUJKAS_clean_linker_0, # of connection points: 2
#     Edge 89, Type (0, 1), BuildingBlock: ZUJKAS_clean_linker_0, # of connection points: 2
#     Edge 90, Type (0, 1), BuildingBlock: ZUJKAS_clean_linker_0, # of connection points: 2
#     Edge 91, Type (0, 1), BuildingBlock: ZUJKAS_clean_linker_0, # of connection points: 2
#     Edge 92, Type (0, 1), BuildingBlock: ZUJKAS_clean_linker_0, # of connection points: 2
#     Edge 93, Type (0, 1), BuildingBlock: ZUJKAS_clean_linker_0, # of connection points: 2
#     Edge 94, Type (0, 1), BuildingBlock: ZUJKAS_clean_linker_0, # of connection points: 2
#     Edge 95, Type (0, 1), BuildingBlock: ZUJKAS_clean_linker_0, # of connection points: 2
#     Edge 96, Type (0, 1), BuildingBlock: ZUJKAS_clean_linker_0, # of connection points: 2
#     Edge 97, Type (0, 1), BuildingBlock: ZUJKAS_clean_linker_0, # of connection points: 2
#     Edge 98, Type (0, 1), BuildingBlock: ZUJKAS_clean_linker_0, # of connection points: 2
#     Edge 99, Type (0, 1), BuildingBlock: ZUJKAS_clean_linker_0, # of connection points: 2
#     Edge 100, Type (0, 1), BuildingBlock: ZUJKAS_clean_linker_0, # of connection points: 2
#     Edge 101, Type (0, 1), BuildingBlock: ZUJKAS_clean_linker_0, # of connection points: 2
#     Edge 102, Type (0, 1), BuildingBlock: ZUJKAS_clean_linker_0, # of connection points: 2
#     Edge 103, Type (0, 1), BuildingBlock: ZUJKAS_clean_linker_0, # of connection points: 2
#     Edge 104, Type (0, 1), BuildingBlock: ZUJKAS_clean_linker_0, # of connection points: 2
#     Edge 105, Type (0, 1), BuildingBlock: ZUJKAS_clean_linker_0, # of connection points: 2
#     Edge 106, Type (0, 1), BuildingBlock: ZUJKAS_clean_linker_0, # of connection points: 2
#     Edge 107, Type (0, 1), BuildingBlock: ZUJKAS_clean_linker_0, # of connection points: 2
#     Edge 108, Type (0, 1), BuildingBlock: ZUJKAS_clean_linker_0, # of connection points: 2
#     Edge 109, Type (0, 1), BuildingBlock: ZUJKAS_clean_linker_0, # of connection points: 2
#     Edge 110, Type (0, 1), BuildingBlock: ZUJKAS_clean_linker_0, # of connection points: 2
#     Edge 111, Type (0, 1), BuildingBlock: ZUJKAS_clean_linker_0, # of connection points: 2
#     Edge 112, Type (0, 1), BuildingBlock: ZUJKAS_clean_linker_0, # of connection points: 2
#     Edge 113, Type (0, 1), BuildingBlock: ZUJKAS_clean_linker_0, # of connection points: 2
#     Edge 114, Type (0, 1), BuildingBlock: ZUJKAS_clean_linker_0, # of connection points: 2
#     Edge 115, Type (0, 1), BuildingBlock: ZUJKAS_clean_linker_0, # of connection points: 2
#     Edge 116, Type (0, 1), BuildingBlock: ZUJKAS_clean_linker_0, # of connection points: 2
#     Edge 117, Type (0, 1), BuildingBlock: ZUJKAS_clean_linker_0, # of connection points: 2
#     Edge 118, Type (0, 1), BuildingBlock: ZUJKAS_clean_linker_0, # of connection points: 2
#     Edge 119, Type (0, 1), BuildingBlock: ZUJKAS_clean_linker_0, # of connection points: 2
#     Edge 120, Type (0, 1), BuildingBlock: ZUJKAS_clean_linker_0, # of connection points: 2
#     Edge 121, Type (0, 1), BuildingBlock: ZUJKAS_clean_linker_0, # of connection points: 2
#     Edge 122, Type (0, 1), BuildingBlock: ZUJKAS_clean_linker_0, # of connection points: 2
#     Edge 123, Type (0, 1), BuildingBlock: ZUJKAS_clean_linker_0, # of connection points: 2
#     Edge 124, Type (0, 1), BuildingBlock: ZUJKAS_clean_linker_0, # of connection points: 2
#     Edge 125, Type (0, 1), BuildingBlock: ZUJKAS_clean_linker_0, # of connection points: 2
#     Edge 126, Type (0, 1), BuildingBlock: ZUJKAS_clean_linker_0, # of connection points: 2
#     Edge 127, Type (0, 1), BuildingBlock: ZUJKAS_clean_linker_0, # of connection points: 2
#     Edge 128, Type (0, 1), BuildingBlock: ZUJKAS_clean_linker_0, # of connection points: 2
#     Edge 129, Type (0, 1), BuildingBlock: ZUJKAS_clean_linker_0, # of connection points: 2
#     Edge 130, Type (0, 1), BuildingBlock: ZUJKAS_clean_linker_0, # of connection points: 2
#     Edge 131, Type (0, 1), BuildingBlock: ZUJKAS_clean_linker_0, # of connection points: 2
#     Edge 132, Type (0, 1), BuildingBlock: ZUJKAS_clean_linker_0, # of connection points: 2
#     Edge 133, Type (0, 1), BuildingBlock: ZUJKAS_clean_linker_0, # of connection points: 2
#     Edge 134, Type (0, 1), BuildingBlock: ZUJKAS_clean_linker_0, # of connection points: 2
#     Edge 135, Type (0, 1), BuildingBlock: ZUJKAS_clean_linker_0, # of connection points: 2
# Relax obj value: 0.177
# Max RMSD: 0.281
# Mean RMSD: 0.177
data_MOF--net-gar--node1-NAHDIM_clean_sbu_0--node2-BETDAH_clean_sbu_0--edge1-ZUJKAS_clean_linker_0
_symmetry_space_group_name_H-M    P1
_symmetry_Int_Tables_number       1
_symmetry_cell_setting            triclinic
loop_
_symmetry_equiv_pos_as_xyz
'x, y, z'
_cell_length_a     79.175027
_cell_length_b     72.474767
_cell_length_c     71.375951
_cell_angle_alpha  98.60231
_cell_angle_beta   95.251877
_cell_angle_gamma 103.12931
loop_
_atom_site_label
_atom_site_type_symbol
_atom_site_fract_x
_atom_site_fract_y
_atom_site_fract_z
_atom_type_partial_charge
C0 C 0.12125 0.35581 0.36012 0.0
O1 O 0.11525 0.37085 0.36597 0.0
O2 O 0.09081 0.31049 0.38787 0.0
Zn3 Zn 0.09168 0.3337 0.37549 0.0
O4 O 0.09035 0.35582 0.39548 0.0
C5 C 0.06434 0.31165 0.34535 0.0
O6 O 0.07171 0.29743 0.34739 0.0
O7 O 0.11345 0.33932 0.36303 0.0
C8 C 0.08279 0.36859 0.3911 0.0
O9 O 0.07675 0.36776 0.37314 0.0
C10 C 0.07769 0.30476 0.39636 0.0
O11 O 0.06543 0.31431 0.39682 0.0
O12 O 0.07083 0.32811 0.35559 0.0
C13 C 0.96895 0.74618 0.67385 0.0
O14 O 0.97277 0.73017 0.66641 0.0
O15 O 1.00127 0.73977 0.64444 0.0
Zn16 Zn 1.00194 0.76412 0.66233 0.0
O17 O 0.00637 0.78588 0.64749 0.0
C18 C 0.02169 0.75488 0.69349 0.0
O19 O 0.00872 0.73936 0.69007 0.0
O20 O 0.97935 0.76225 0.67339 0.0
C21 C 0.02165 0.79639 0.6478 0.0
O22 O 0.03476 0.79361 0.65879 0.0
C23 C 0.01522 0.73808 0.63764 0.0
O24 O 0.02937 0.7522 0.64257 0.0
O25 O 0.02147 0.76798 0.68354 0.0
C26 C 0.62335 0.8387 0.8637 0.0
O27 O 0.62542 0.83681 0.88172 0.0
O28 O 0.58821 0.8041 0.88058 0.0
Zn29 Zn 0.58699 0.82698 0.86796 0.0
O30 O 0.58526 0.84911 0.88756 0.0
C31 C 0.55798 0.80295 0.8409 0.0
O32 O 0.56452 0.7888 0.84531 0.0
O33 O 0.60802 0.83507 0.8548 0.0
C34 C 0.57322 0.84686 0.89821 0.0
O35 O 0.56211 0.82997 0.89616 0.0
C36 C 0.59418 0.80585 0.89807 0.0
O37 O 0.60051 0.82314 0.90825 0.0
O38 O 0.56551 0.82016 0.8487 0.0
C39 C 0.45578 0.24894 0.15947 0.0
O40 O 0.45599 0.25654 0.14387 0.0
O41 O 0.4939 0.2287 0.13723 0.0
Zn42 Zn 0.49212 0.25177 0.15581 0.0
O43 O 0.49428 0.27512 0.14323 0.0
C44 C 0.51646 0.24378 0.1837 0.0
O45 O 0.50748 0.22599 0.17718 0.0
O46 O 0.46971 0.24567 0.16698 0.0
C47 C 0.50924 0.28274 0.13902 0.0
O48 O 0.52238 0.27506 0.14295 0.0
C49 C 0.49547 0.2286 0.11966 0.0
O50 O 0.49539 0.2442 0.11241 0.0
O51 O 0.51199 0.25743 0.1769 0.0
C52 C 0.04174 0.79806 0.13531 0.0
O53 O 0.03882 0.78731 0.11825 0.0
O54 O 0.06977 0.78425 0.10499 0.0
Zn55 Zn 0.07597 0.80974 0.1235 0.0
O56 O 0.07719 0.83266 0.10968 0.0
C57 C 0.10165 0.79893 0.14832 0.0
O58 O 0.08819 0.7845 0.14844 0.0
O59 O 0.0569 0.80912 0.14102 0.0
C60 C 0.06386 0.83428 0.09923 0.0
O61 O 0.04942 0.82054 0.09687 0.0
C62 C 0.08111 0.77572 0.09895 0.0
O63 O 0.09778 0.78437 0.10345 0.0
O64 O 0.09956 0.81207 0.13897 0.0
C65 C 0.54318 0.77306 0.38854 0.0
O66 O 0.54557 0.78199 0.40635 0.0
O67 O 0.50531 0.74118 0.41162 0.0
Zn68 Zn 0.50747 0.76361 0.39673 0.0
O69 O 0.51281 0.78991 0.41379 0.0
C70 C 0.47096 0.76304 0.38518 0.0
O71 O 0.47077 0.76612 0.40376 0.0
O72 O 0.52777 0.76388 0.381 0.0
C73 C 0.50793 0.79467 0.42992 0.0
O74 O 0.4983 0.78142 0.43779 0.0
C75 C 0.51698 0.74114 0.42515 0.0
O76 O 0.53016 0.75634 0.43032 0.0
O77 O 0.48502 0.76092 0.37876 0.0
C78 C 0.54132 0.31701 0.63672 0.0
O79 O 0.541 0.32393 0.62073 0.0
O80 O 0.57186 0.28792 0.60871 0.0
Zn81 Zn 0.57542 0.31328 0.62714 0.0
O82 O 0.57772 0.3369 0.61408 0.0
C83 C 0.61131 0.31306 0.63755 0.0
O84 O 0.61049 0.30979 0.61884 0.0
O85 O 0.5548 0.31161 0.64255 0.0
C86 C 0.57292 0.33651 0.59646 0.0
O87 O 0.56656 0.3198 0.58519 0.0
C88 C 0.557 0.27674 0.60194 0.0
O89 O 0.54277 0.28231 0.6055 0.0
O90 O 0.5978 0.31572 0.64491 0.0
C91 C 0.04185 0.26935 0.88492 0.0
O92 O 0.04414 0.27474 0.90358 0.0
O93 O 0.00728 0.23614 0.90616 0.0
Zn94 Zn 0.00654 0.25909 0.8929 0.0
O95 O 0.01093 0.28412 0.91178 0.0
C96 C 0.97042 0.2604 0.88418 0.0
O97 O 0.97253 0.26643 0.90273 0.0
O98 O 0.02639 0.26191 0.87646 0.0
C99 C 0.01157 0.29905 0.90422 0.0
O100 O 0.00926 0.29699 0.88548 0.0
C101 C 1.00078 0.23284 0.92135 0.0
O102 O 0.99236 0.2448 0.92962 0.0
O103 O 0.98308 0.25565 0.8765 0.0
C104 C 0.40074 0.08341 0.2887 0.0
O105 O 0.41737 0.09149 0.28868 0.0
O106 O 0.43282 0.0576 0.28353 0.0
Zn107 Zn 0.4148 0.05387 0.30127 0.0
O108 O 0.42633 0.06429 0.328 0.0
C109 C 0.39564 0.01819 0.28091 0.0
O110 O 0.39474 0.02926 0.26804 0.0
O111 O 0.39648 0.06731 0.29416 0.0
C112 C 0.4206 0.05761 0.34227 0.0
O113 O 0.40632 0.0436 0.33956 0.0
C114 C 0.44445 0.04807 0.28347 0.0
O115 O 0.44474 0.03612 0.29558 0.0
O116 O 0.40381 0.02567 0.29744 0.0
C117 C 0.31255 0.16843 0.49155 0.0
O118 O 0.31661 0.18729 0.49351 0.0
O119 O 0.28355 0.19207 0.51775 0.0
Zn120 Zn 0.27859 0.17565 0.49122 0.0
O121 O 0.28157 0.1914 0.4698 0.0
C122 C 0.24167 0.16405 0.49521 0.0
O123 O 0.24484 0.18196 0.50408 0.0
O124 O 0.29651 0.15959 0.49006 0.0
C125 C 0.27018 0.19905 0.4625 0.0
O126 O 0.25518 0.19754 0.46935 0.0
C127 C 0.28161 0.20901 0.52257 0.0
O128 O 0.27618 0.21794 0.50937 0.0
O129 O 0.25404 0.15804 0.48813 0.0
C130 C 0.17726 0.97444 0.77105 0.0
O131 O 0.16023 0.96765 0.76936 0.0
O132 O 0.15309 0.01274 0.7446 0.0
Zn133 Zn 0.16745 0.01539 0.7731 0.0
O134 O 0.15071 0.0144 0.79654 0.0
C135 C 0.18053 0.05748 0.76925 0.0
O136 O 0.16491 0.05355 0.75942 0.0
O137 O 0.183 0.99295 0.77279 0.0
C138 C 0.15482 0.02504 0.81334 0.0
O139 O 0.1701 0.03755 0.81677 0.0
C140 C 0.13793 0.01571 0.73988 0.0
O141 O 0.12867 0.01961 0.75365 0.0
O142 O 0.18486 0.04398 0.77703 0.0
C143 C 0.27835 0.95438 0.99366 0.0
O144 O 0.27543 0.93553 0.99087 0.0
O145 O 0.3102 0.93211 0.0155 0.0
Zn146 Zn 0.314 0.95194 0.99848 0.0
O147 O 0.31693 0.93861 0.97274 0.0
C148 C 0.33866 0.97639 0.02824 0.0
O149 O 0.32625 0.9699 0.03833 0.0
O150 O 0.294 0.9645 0.99698 0.0
C151 C 0.32911 0.92984 0.97192 0.0
O152 O 0.33984 0.93115 0.9875 0.0
C153 C 0.30386 0.91424 0.00945 0.0
O154 O 0.29818 0.90809 0.9912 0.0
O155 O 0.33609 0.9713 0.01017 0.0
C156 C 0.27592 0.41545 0.02645 0.0
O157 O 0.27394 0.39896 0.01493 0.0
O158 O 0.30951 0.39305 0.05752 0.0
Zn159 Zn 0.31022 0.40901 0.03629 0.0
O160 O 0.30863 0.39338 0.00981 0.0
C161 C 0.34708 0.42133 0.03924 0.0
O162 O 0.34474 0.40254 0.03578 0.0
O163 O 0.29048 0.42282 0.037 0.0
C164 C 0.3024 0.37541 1.00413 0.0
O165 O 0.29589 0.36464 0.01626 0.0
C166 C 0.29527 0.38539 0.0633 0.0
O167 O 0.28041 0.38679 0.05453 0.0
O168 O 0.33376 0.42827 0.0406 0.0
C169 C 0.81508 0.11953 0.04171 0.0
O170 O 0.81961 0.13654 0.03675 0.0
O171 O 0.78454 0.1505 0.057 0.0
Zn172 Zn 0.78246 0.12801 0.03592 0.0
O173 O 0.78839 0.13787 0.01205 0.0
C174 C 0.74614 0.1207 0.02605 0.0
O175 O 0.75058 0.13949 0.02735 0.0
O176 O 0.79908 0.11239 0.04283 0.0
C177 C 0.78218 0.12801 0.99562 0.0
O178 O 0.77237 0.11047 0.99418 0.0
C179 C 0.7849 0.16726 0.05344 0.0
O180 O 0.78381 0.16997 0.03563 0.0
O181 O 0.75783 0.11196 0.03008 0.0
C182 C 0.16564 0.4867 0.26136 0.0
O183 O 0.15142 0.48917 0.26845 0.0
O184 O 0.1407 0.50133 0.21472 0.0
Zn185 Zn 0.15776 0.51354 0.23833 0.0
O186 O 0.14565 0.52361 0.25961 0.0
C187 C 0.16887 0.55089 0.2308 0.0
O188 O 0.15194 0.54916 0.23018 0.0
O189 O 0.17055 0.49512 0.24768 0.0
C190 C 0.15454 0.53595 0.27363 0.0
O191 O 0.17156 0.54174 0.27399 0.0
C192 C 0.12526 0.50376 0.21368 0.0
O193 O 0.12048 0.51349 0.22845 0.0
O194 O 0.17493 0.53647 0.23308 0.0
C195 C 0.77297 0.91516 0.52554 0.0
O196 O 0.77006 0.89801 0.51496 0.0
O197 O 0.80631 0.89252 0.55598 0.0
Zn198 Zn 0.8068 0.9075 0.53405 0.0
O199 O 0.80274 0.89001 0.50821 0.0
C200 C 0.83768 0.93067 0.52238 0.0
O201 O 0.82848 0.92473 0.50539 0.0
O202 O 0.78798 0.92254 0.53516 0.0
C203 C 0.81265 0.87918 0.50297 0.0
O204 O 0.82578 0.87824 0.51516 0.0
C205 C 0.79216 0.88433 0.56158 0.0
O206 O 0.77716 0.88477 0.55237 0.0
O207 O 0.8309 0.92564 0.53689 0.0
C208 C 0.90758 0.10095 0.25823 0.0
O209 O 0.92368 0.1071 0.26698 0.0
O210 O 0.93029 0.05607 0.22511 0.0
Zn211 Zn 0.91703 0.05973 0.25119 0.0
O212 O 0.93445 0.06443 0.27835 0.0
C213 C 0.90161 0.01583 0.24529 0.0
O214 O 0.91619 0.01553 0.23795 0.0
O215 O 0.90234 0.0828 0.25091 0.0
C216 C 0.93711 0.05055 0.28677 0.0
O217 O 0.92969 0.03292 0.27804 0.0
C218 C 0.94182 0.06828 0.21851 0.0
O219 O 0.94719 0.08579 0.22848 0.0
O220 O 0.89868 0.03238 0.2511 0.0
C221 C 0.31272 0.62915 0.5303 0.0
O222 O 0.31349 0.64696 0.52798 0.0
O223 O 0.27629 0.64736 0.55091 0.0
Zn224 Zn 0.27633 0.62717 0.52852 0.0
O225 O 0.27501 0.63837 0.50473 0.0
C226 C 0.25029 0.59641 0.53906 0.0
O227 O 0.25854 0.60227 0.55652 0.0
O228 O 0.29803 0.61807 0.53123 0.0
C229 C 0.26025 0.63944 0.497 0.0
O230 O 0.24618 0.63334 0.50496 0.0
C231 C 0.26233 0.65093 0.5563 0.0
O232 O 0.24711 0.64075 0.54725 0.0
O233 O 0.25584 0.60482 0.52567 0.0
C234 C 0.40916 0.60209 0.75621 0.0
O235 O 0.42623 0.60881 0.75868 0.0
O236 O 0.43094 0.55773 0.72549 0.0
Zn237 Zn 0.41814 0.56041 0.75207 0.0
O238 O 0.43625 0.56391 0.77838 0.0
C239 C 0.4053 0.517 0.75137 0.0
O240 O 0.42211 0.51817 0.75145 0.0
O241 O 0.40325 0.58354 0.75339 0.0
C242 C 0.43204 0.55491 0.79225 0.0
O243 O 0.41607 0.54406 0.79055 0.0
C244 C 0.44486 0.56841 0.72088 0.0
O245 O 0.45334 0.58357 0.73349 0.0
O246 O 0.40014 0.53261 0.75119 0.0
C247 C 0.66371 0.99302 0.77444 0.0
O248 O 0.6565 1.0033 0.78662 0.0
O249 O 0.6439 0.01098 0.72159 0.0
Zn250 Zn 0.65212 0.01616 0.74961 0.0
O251 O 0.63148 0.01707 0.76355 0.0
C252 C 0.68061 0.04679 0.7453 0.0
O253 O 0.6804 0.03523 0.72919 0.0
O254 O 0.66322 0.99576 0.75725 0.0
C255 C 0.62576 0.03212 0.76651 0.0
O256 O 0.6335 0.04757 0.76016 0.0
C257 C 0.63272 0.99561 0.71378 0.0
O258 O 0.62715 0.98253 0.72419 0.0
O259 O 0.66964 0.04158 0.75656 0.0
C260 C 0.81403 0.66744 0.99378 0.0
O261 O 0.81814 0.68633 0.99791 0.0
O262 O 0.78369 0.69206 0.0153 0.0
Zn263 Zn 0.78016 0.67482 0.98928 0.0
O264 O 0.78418 0.69018 0.96781 0.0
C265 C 0.74998 0.64701 0.99633 0.0
O266 O 0.76092 0.64629 0.01105 0.0
O267 O 0.79797 0.6586 0.98954 0.0
C268 C 0.77371 0.69959 0.96176 0.0
O269 O 0.75969 0.70015 0.97014 0.0
C270 C 0.77107 0.69745 0.02245 0.0
O271 O 0.75556 0.69269 0.01225 0.0
O272 O 0.75539 0.65792 0.9846 0.0
C273 C 0.90879 0.58181 0.78589 0.0
O274 O 0.92574 0.58936 0.78803 0.0
O275 O 0.93864 0.55133 0.78952 0.0
Zn276 Zn 0.91849 0.55218 0.80422 0.0
O277 O 0.92806 0.56485 0.83114 0.0
C278 C 0.89943 0.51612 0.78523 0.0
O279 O 0.90279 0.52538 0.77099 0.0
O280 O 0.90298 0.5664 0.79213 0.0
C281 C 0.92257 0.55863 0.84572 0.0
O282 O 0.90926 0.54351 0.8434 0.0
C283 C 0.94764 0.53927 0.79218 0.0
O284 O 0.94375 0.52813 0.80488 0.0
O285 O 0.90483 0.52497 0.80223 0.0
C286 C 0.76658 0.4371 0.52672 0.0
O287 O 0.77555 0.43408 0.5419 0.0
O288 O 0.80107 0.41282 0.52808 0.0
Zn289 Zn 0.79376 0.42565 0.50688 0.0
O290 O 0.79037 0.40665 0.4826 0.0
C291 C 0.81723 0.46198 0.52131 0.0
O292 O 0.80791 0.4608 0.53558 0.0
O293 O 0.77176 0.43393 0.5105 0.0
C294 C 0.80288 0.40584 0.47283 0.0
O295 O 0.81798 0.41847 0.47814 0.0
C296 C 0.8166 0.41067 0.52963 0.0
O297 O 0.8272 0.41733 0.51776 0.0
O298 O 0.81305 0.44876 0.50667 0.0
C299 C 0.67913 0.47555 0.26768 0.0
O300 O 0.66242 0.46896 0.2612 0.0
O301 O 0.65228 0.5129 0.24717 0.0
Zn302 Zn 0.66988 0.51701 0.27412 0.0
O303 O 0.65717 0.51972 0.30068 0.0
C304 C 0.68514 0.56094 0.28075 0.0
O305 O 0.67053 0.56104 0.28808 0.0
O306 O 0.68474 0.49397 0.27348 0.0
C307 C 0.64143 0.51237 0.30387 0.0
O308 O 0.63054 0.50129 0.28943 0.0
C309 C 0.65016 0.52701 0.23881 0.0
O310 O 0.6582 0.54447 0.24753 0.0
O311 O 0.68815 0.54449 0.2747 0.0
Ho312 Ho 0.023 0.02413 1.00026 0.0
Ho313 Ho 0.05896 0.04926 0.02199 0.0
C314 C 0.03267 0.07021 1.00153 0.0
C315 C 0.99032 1.00662 0.99258 0.0
C316 C 0.9749 0.00996 1.00101 0.0
C317 C 0.97682 0.0249 0.01658 0.0
C318 C 0.96213 0.02879 0.02416 0.0
C319 C 0.94531 0.01802 0.016 0.0
C320 C 0.94346 1.00285 1.00057 0.0
C321 C 0.95821 0.99879 0.99317 0.0
C322 C 0.04819 0.02442 0.97532 0.0
C323 C 0.04875 1.00348 0.022 0.0
C324 C 0.09191 0.06556 0.02946 0.0
C325 C 0.1071 0.05902 0.02357 0.0
C326 C 0.10459 0.04213 0.01009 0.0
C327 C 0.11879 0.03476 0.00562 0.0
C328 C 0.13574 0.04399 0.01478 0.0
C329 C 0.13824 0.0612 0.02797 0.0
C330 C 0.12398 0.06865 0.03233 0.0
C331 C 0.03382 0.04921 0.0469 0.0
O332 O 0.02007 0.05431 1.0 0.0
O333 O 0.04907 0.07118 0.0081 0.0
O334 O 0.99786 0.02012 0.98364 0.0
O335 O 1.00152 1.00106 1.00374 0.0
O336 O 0.03191 0.01511 0.97149 0.0
O337 O 0.05006 0.03262 0.99275 0.0
O338 O 0.06158 0.01908 0.0232 0.0
O339 O 0.03246 1.00283 0.01543 0.0
O340 O 0.08326 0.05539 0.04074 0.0
O341 O 0.08165 0.06921 0.01576 0.0
O342 O 0.05004 0.05881 0.05055 0.0
O343 O 0.03184 0.04077 0.02952 0.0
H344 H 0.98965 0.03386 0.02252 0.0
H345 H 0.9639 0.04076 0.03584 0.0
H346 H 0.93061 0.99436 0.99406 0.0
H347 H 0.95658 0.98723 0.98111 0.0
H348 H 0.09156 0.0344 1.00338 0.0
H349 H 0.11646 0.02166 0.99519 0.0
H350 H 0.1511 0.06851 0.03544 0.0
H351 H 0.12606 0.08161 0.04292 0.0
Ho352 Ho 0.29512 0.7748 0.23145 0.0
Ho353 Ho 0.28922 0.78649 0.27489 0.0
C354 C 0.31138 0.81834 0.25429 0.0
C355 C 0.28996 0.76847 0.19466 0.0
C356 C 0.29807 0.77582 0.17876 0.0
C357 C 0.30781 0.79493 0.18096 0.0
C358 C 0.31297 0.80263 0.165 0.0
C359 C 0.30853 0.79128 0.14663 0.0
C360 C 0.29987 0.77174 0.14475 0.0
C361 C 0.29463 0.7641 0.16071 0.0
C362 C 0.32311 0.7735 0.25618 0.0
C363 C 0.27736 0.74173 0.25382 0.0
C364 C 0.28626 0.79026 0.31079 0.0
C365 C 0.28372 0.77704 0.32445 0.0
C366 C 0.28885 0.75965 0.3213 0.0
C367 C 0.285 0.74644 0.3336 0.0
C368 C 0.27583 0.7504 0.34907 0.0
C369 C 0.27086 0.76791 0.35223 0.0
C370 C 0.2748 0.78114 0.33999 0.0
C371 C 0.2666 0.79322 0.24751 0.0
O372 O 0.30573 0.80695 0.23745 0.0
O373 O 0.30858 0.81269 0.2708 0.0
O374 O 0.29844 0.75874 0.20449 0.0
O375 O 0.28314 0.78046 0.20538 0.0
O376 O 0.32255 0.77012 0.23769 0.0
O377 O 0.30903 0.77761 0.25963 0.0
O378 O 0.28118 0.75407 0.2702 0.0
O379 O 0.2799 0.74685 0.2371 0.0
O380 O 0.273 0.78754 0.29748 0.0
O381 O 0.3014 0.79333 0.30422 0.0
O382 O 0.27219 0.8045 0.26386 0.0
O383 O 0.27287 0.77863 0.24682 0.0
H384 H 0.31066 0.80417 0.19486 0.0
H385 H 0.31947 0.81777 0.16695 0.0
H386 H 0.29653 0.76256 0.13083 0.0
H387 H 0.28721 0.74926 0.15883 0.0
H388 H 0.29554 0.75614 0.30917 0.0
H389 H 0.28884 0.73297 0.33077 0.0
H390 H 0.26396 0.77139 0.36418 0.0
H391 H 0.27064 0.79445 0.34248 0.0
Ho392 Ho 0.5581 0.03997 0.52301 0.0
Ho393 Ho 0.51729 0.03161 0.51876 0.0
C394 C 0.53393 0.99633 0.50606 0.0
C395 C 0.59086 0.04084 0.53139 0.0
C396 C 0.6033 0.0283 0.53017 0.0
C397 C 0.60734 0.01932 0.54558 0.0
C398 C 0.62057 0.00935 0.54531 0.0
C399 C 0.63017 0.00829 0.5297 0.0
C400 C 0.62579 0.01684 0.5141 0.0
C401 C 0.61258 0.02678 0.51436 0.0
C402 C 0.54225 0.04771 0.4912 0.0
C403 C 0.54133 0.07522 0.53442 0.0
C404 C 0.48443 0.03051 0.51116 0.0
C405 C 0.47243 0.04314 0.50895 0.0
C406 C 0.47619 0.05875 0.49917 0.0
C407 C 0.4639 0.06966 0.49648 0.0
C408 C 0.44764 0.06509 0.50344 0.0
C409 C 0.4442 0.04972 0.51359 0.0
C410 C 0.45643 0.03888 0.51626 0.0
C411 C 0.53311 0.0234 0.55032 0.0
O412 O 0.54943 1.00744 0.51413 0.0
O413 O 0.51977 1.00305 0.50417 0.0
O414 O 0.58436 0.04488 0.5154 0.0
O415 O 0.57936 0.03808 0.54339 0.0
O416 O 0.55731 0.058 0.49989 0.0
O417 O 0.53702 0.03357 0.49923 0.0
O418 O 0.52623 0.06416 0.52528 0.0
O419 O 0.55518 0.06829 0.5379 0.0
O420 O 0.49212 0.03148 0.52843 0.0
O421 O 0.49476 0.02872 0.49805 0.0
O422 O 0.51806 0.01326 0.54149 0.0
O423 O 0.5384 0.03781 0.54264 0.0
H424 H 0.60063 0.02043 0.55812 0.0
H425 H 0.62371 1.00309 0.55765 0.0
H426 H 0.63272 0.01605 0.50173 0.0
H427 H 0.60995 0.03366 0.50233 0.0
H428 H 0.48848 0.06235 0.49342 0.0
H429 H 0.46697 0.08139 0.4886 0.0
H430 H 0.43203 0.04605 0.51954 0.0
H431 H 0.4533 0.02695 0.52391 0.0
Ho432 Ho 0.27361 0.28936 0.76129 0.0
Ho433 Ho 0.31192 0.28527 0.76708 0.0
C434 C 0.29547 0.30074 0.80377 0.0
C435 C 0.2399 0.28051 0.75999 0.0
C436 C 0.22557 0.28529 0.77017 0.0
C437 C 0.22615 0.28639 0.79006 0.0
C438 C 0.21134 0.2878 0.79898 0.0
C439 C 0.19564 0.28821 0.78823 0.0
C440 C 0.19543 0.28806 0.76845 0.0
C441 C 0.2102 0.28654 0.75954 0.0
C442 C 0.29624 0.3248 0.76168 0.0
C443 C 0.29174 0.27937 0.7241 0.0
C444 C 0.34481 0.28593 0.7673 0.0
C445 C 0.35955 0.29028 0.75609 0.0
C446 C 0.35743 0.2851 0.73609 0.0
C447 C 0.372 0.28801 0.72612 0.0
C448 C 0.38895 0.29608 0.73598 0.0
C449 C 0.39087 0.3017 0.75596 0.0
C450 C 0.37634 0.29881 0.76587 0.0
C451 C 0.2867 0.25403 0.77216 0.0
O452 O 0.27993 0.29513 0.7933 0.0
O453 O 0.31012 0.30033 0.79635 0.0
O454 O 0.24819 0.29307 0.75046 0.0
O455 O 0.25029 0.27199 0.76889 0.0
O456 O 0.27927 0.32146 0.75981 0.0
O457 O 0.29989 0.30896 0.76351 0.0
O458 O 0.30697 0.28395 0.73521 0.0
O459 O 0.27675 0.2785 0.73111 0.0
O460 O 0.33213 0.2707 0.76036 0.0
O461 O 0.33917 0.30048 0.77523 0.0
O462 O 0.30195 0.26046 0.78229 0.0
O463 O 0.2858 0.26446 0.75946 0.0
H464 H 0.23782 0.28543 0.79865 0.0
H465 H 0.21202 0.28771 0.81418 0.0
H466 H 0.18372 0.28875 0.75975 0.0
H467 H 0.20943 0.28568 0.74418 0.0
H468 H 0.3446 0.27844 0.72824 0.0
H469 H 0.37005 0.2834 0.71077 0.0
H470 H 0.40366 0.30827 0.76398 0.0
H471 H 0.37826 0.30294 0.78129 0.0
Ho472 Ho 0.04394 0.0625 0.52159 0.0
Ho473 Ho 0.04048 0.01822 0.50481 0.0
C474 C 0.02809 0.04506 0.47585 0.0
C475 C 0.05034 0.09956 0.52858 0.0
C476 C 0.05359 0.11489 0.51715 0.0
C477 C 0.05785 0.11125 0.49853 0.0
C478 C 0.06029 0.12586 0.48756 0.0
C479 C 0.05837 0.14425 0.49503 0.0
C480 C 0.05422 0.1478 0.51377 0.0
C481 C 0.05185 0.13322 0.52473 0.0
C482 C 0.01555 0.03679 0.52792 0.0
C483 C 0.05895 0.03632 0.5495 0.0
C484 C 0.02811 0.98145 0.49773 0.0
C485 C 0.03266 0.96505 0.50486 0.0
C486 C 0.0229 0.94637 0.49713 0.0
C487 C 0.02526 0.93088 0.50573 0.0
C488 C 0.03734 0.93391 0.5223 0.0
C489 C 0.04774 0.9526 0.52939 0.0
C490 C 0.04542 0.96804 0.52072 0.0
C491 C 0.07248 0.04045 0.50158 0.0
O492 O 0.03511 0.06049 0.48944 0.0
O493 O 0.02768 0.02729 0.47899 0.0
O494 O 0.0345 0.08835 0.52534 0.0
O495 O 0.06249 0.09008 0.53016 0.0
O496 O 0.02332 0.05225 0.5401 0.0
O497 O 0.02277 0.03644 0.51294 0.0
O498 O 0.05116 0.02074 0.53642 0.0
O499 O 0.05923 0.05403 0.54623 0.0
O500 O 0.03902 0.99056 0.48747 0.0
O501 O 0.02271 0.99307 0.5104 0.0
O502 O 0.06798 0.02189 0.49607 0.0
O503 O 0.05975 0.04521 0.50838 0.0
H504 H 0.05912 0.0971 0.49241 0.0
H505 H 0.06331 0.12265 0.47311 0.0
H506 H 0.05288 0.16189 0.51999 0.0
H507 H 0.04855 0.13622 0.53909 0.0
H508 H 0.01299 0.94385 0.48489 0.0
H509 H 0.01727 0.91662 0.49973 0.0
H510 H 0.05702 0.95548 0.54223 0.0
H511 H 0.05304 0.98243 0.52689 0.0
Ho512 Ho 0.31014 0.80292 0.76346 0.0
Ho513 Ho 0.2772 0.77474 0.76842 0.0
C514 C 0.31143 0.75726 0.7655 0.0
C515 C 0.34182 0.82369 0.76805 0.0
C516 C 0.35877 0.81914 0.76625 0.0
C517 C 0.374 0.83189 0.77624 0.0
C518 C 0.39003 0.82696 0.77605 0.0
C519 C 0.39108 0.80914 0.76586 0.0
C520 C 0.37577 0.79654 0.75554 0.0
C521 C 0.35974 0.8015 0.75576 0.0
C522 C 0.2903 0.78404 0.73066 0.0
C523 C 0.27576 0.82019 0.76569 0.0
C524 C 0.24585 0.75328 0.76487 0.0
C525 C 0.22815 0.75598 0.76653 0.0
C526 C 0.22158 0.76896 0.75694 0.0
C527 C 0.20434 0.7703 0.75767 0.0
C528 C 0.19336 0.75885 0.76815 0.0
C529 C 0.20024 0.74644 0.77835 0.0
C530 C 0.21744 0.74497 0.77746 0.0
C531 C 0.29736 0.79383 0.80105 0.0
O532 O 0.32023 0.7756 0.76676 0.0
O533 O 0.29405 0.75301 0.76425 0.0
O534 O 0.33117 0.82073 0.75217 0.0
O535 O 0.33402 0.8174 0.78207 0.0
O536 O 0.29926 0.80179 0.73296 0.0
O537 O 0.29334 0.77704 0.74534 0.0
O538 O 0.26697 0.80184 0.76454 0.0
O539 O 0.29316 0.82454 0.76717 0.0
O540 O 0.25662 0.75731 0.78076 0.0
O541 O 0.2533 0.75923 0.75048 0.0
O542 O 0.28877 0.77596 0.79881 0.0
O543 O 0.29393 0.80067 0.7864 0.0
H544 H 0.37342 0.84547 0.78458 0.0
H545 H 0.40151 0.83684 0.78443 0.0
H546 H 0.37616 0.78279 0.74745 0.0
H547 H 0.34805 0.79141 0.74802 0.0
H548 H 0.22962 0.77775 0.7485 0.0
H549 H 0.19946 0.77982 0.74942 0.0
H550 H 0.19226 0.73767 0.78683 0.0
H551 H 0.22231 0.73499 0.78509 0.0
Ho552 Ho 0.55322 0.04394 0.04288 0.0
Ho553 Ho 0.53051 0.0208 0.00595 0.0
C554 C 0.51371 0.01937 0.04386 0.0
C555 C 0.56584 0.06554 0.07556 0.0
C556 C 0.55906 0.06806 0.094 0.0
C557 C 0.54138 0.06789 0.09476 0.0
C558 C 0.53458 0.06798 0.11211 0.0
C559 C 0.54535 0.06823 0.12899 0.0
C560 C 0.56316 0.06896 0.12826 0.0
C561 C 0.56996 0.06888 0.11087 0.0
C562 C 0.55767 0.00839 0.03126 0.0
C563 C 0.57011 0.04611 1.00487 0.0
C564 C 0.5182 0.99942 0.97309 0.0
C565 C 0.52076 1.00324 0.95385 0.0
C566 C 0.51569 0.98839 0.93798 0.0
C567 C 0.51907 0.99209 0.91983 0.0
C568 C 0.52761 0.01069 0.91737 0.0
C569 C 0.53242 0.02555 0.93338 0.0
C570 C 0.52904 0.02185 0.95145 0.0
C571 C 0.52612 0.05648 0.01673 0.0
O572 O 0.52608 0.03508 0.05125 0.0
O573 O 0.51467 0.00864 0.02748 0.0
O574 O 0.56902 0.04873 0.07032 0.0
O575 O 0.55796 0.07148 0.06153 0.0
O576 O 0.57041 0.02311 0.03874 0.0
O577 O 0.54337 0.01316 0.03094 0.0
O578 O 0.55721 0.03118 0.99668 0.0
O579 O 0.57016 0.05563 0.02216 0.0
O580 O 0.50954 0.01021 0.98256 0.0
O581 O 0.53223 0.99802 0.98341 0.0
O582 O 0.51362 0.04202 0.00825 0.0
O583 O 0.54037 0.0516 0.01774 0.0
H584 H 0.53268 0.06712 0.08189 0.0
H585 H 0.52075 0.06713 0.11216 0.0
H586 H 0.57179 0.06935 0.14108 0.0
H587 H 0.58363 0.06894 0.11051 0.0
H588 H 0.50933 0.97394 0.93966 0.0
H589 H 0.51511 0.98038 0.90774 0.0
H590 H 0.53932 0.03993 0.93208 0.0
H591 H 0.53317 0.03345 0.96363 0.0
Ho592 Ho 0.30527 0.31946 0.27636 0.0
Ho593 Ho 0.27868 0.28225 0.26134 0.0
C594 C 0.26372 0.31697 0.27804 0.0
C595 C 0.32165 0.35523 0.28538 0.0
C596 C 0.31582 0.37162 0.29523 0.0
C597 C 0.31351 0.38631 0.28528 0.0
C598 C 0.30415 0.3994 0.29234 0.0
C599 C 0.29707 0.3982 0.30965 0.0
C600 C 0.30075 0.38451 0.3204 0.0
C601 C 0.30993 0.37126 0.31322 0.0
C602 C 0.30053 0.29472 0.30133 0.0
C603 C 0.31986 0.28529 0.25878 0.0
C604 C 0.26207 0.24647 0.25361 0.0
C605 C 0.26881 0.22924 0.2536 0.0
C606 C 0.28399 0.23015 0.26585 0.0
C607 C 0.29199 0.21488 0.26414 0.0
C608 C 0.28493 0.1984 0.2502 0.0
C609 C 0.26932 0.19711 0.23846 0.0
C610 C 0.26135 0.21255 0.24007 0.0
C611 C 0.28307 0.30706 0.23648 0.0
O612 O 0.27969 0.32784 0.27873 0.0
O613 O 0.26009 0.29807 0.27338 0.0
O614 O 0.32426 0.34228 0.29552 0.0
O615 O 0.31306 0.34751 0.26844 0.0
O616 O 0.31556 0.30564 0.29973 0.0
O617 O 0.28869 0.29811 0.29027 0.0
O618 O 0.3048 0.27434 0.26154 0.0
O619 O 0.32243 0.30413 0.26083 0.0
O620 O 0.26712 0.2565 0.24048 0.0
O621 O 0.26328 0.25726 0.27033 0.0
O622 O 0.26809 0.29613 0.23832 0.0
O623 O 0.29507 0.30365 0.24732 0.0
H624 H 0.31787 0.38685 0.27137 0.0
H625 H 0.30144 0.40954 0.28348 0.0
H626 H 0.29581 0.38341 0.33395 0.0
H627 H 0.31153 0.36012 0.3213 0.0
H628 H 0.29001 0.24291 0.27639 0.0
H629 H 0.30386 0.21607 0.27358 0.0
H630 H 0.26366 0.1845 0.22762 0.0
H631 H 0.24972 0.21171 0.23041 0.0
Ho632 Ho 0.54681 0.56149 0.02126 0.0
Ho633 Ho 0.54378 0.51983 1.0049 0.0
C634 C 0.52954 0.54455 0.97598 0.0
C635 C 0.55417 0.5987 0.02838 0.0
C636 C 0.55663 0.61416 0.01705 0.0
C637 C 0.55793 0.61026 0.99746 0.0
C638 C 0.56085 0.62522 0.98696 0.0
C639 C 0.5626 0.64435 0.99592 0.0
C640 C 0.56118 0.64811 0.01557 0.0
C641 C 0.5582 0.63312 0.02602 0.0
C642 C 0.51854 0.53664 0.02915 0.0
C643 C 0.56036 0.5364 0.05037 0.0
C644 C 0.53731 0.48272 0.99834 0.0
C645 C 0.53566 0.46771 0.01031 0.0
C646 C 0.52611 0.46828 0.02595 0.0
C647 C 0.52454 0.45378 0.03702 0.0
C648 C 0.53265 0.43854 0.03281 0.0
C649 C 0.54244 0.43823 0.01731 0.0
C650 C 0.54386 0.45264 0.00614 0.0
C651 C 0.5721 0.5449 0.99724 0.0
O652 O 0.53764 0.55983 0.9892 0.0
O653 O 0.52877 0.52691 0.97945 0.0
O654 O 0.53827 0.5879 0.02685 0.0
O655 O 0.56599 0.58871 0.02792 0.0
O656 O 0.52712 0.55201 0.04098 0.0
O657 O 0.52475 0.53596 0.01352 0.0
O658 O 0.55258 0.52118 0.03694 0.0
O659 O 0.56112 0.55407 0.04702 0.0
O660 O 0.55298 0.49383 0.9992 0.0
O661 O 0.52512 0.49225 0.99835 0.0
O662 O 0.56343 0.52972 0.98521 0.0
O663 O 0.56583 0.54531 0.01282 0.0
H664 H 0.55684 0.59569 0.99033 0.0
H665 H 0.56165 0.6218 0.97182 0.0
H666 H 0.56272 0.66269 0.02297 0.0
H667 H 0.55734 0.63636 0.04117 0.0
H668 H 0.51976 0.47985 0.02958 0.0
H669 H 0.51672 0.45438 0.04866 0.0
H670 H 0.54913 0.42694 0.01387 0.0
H671 H 0.55141 0.45205 0.99424 0.0
Ho672 Ho 0.8105 0.30294 0.26582 0.0
Ho673 Ho 0.77601 0.27299 0.25643 0.0
C674 C 0.81067 0.25622 0.26078 0.0
C675 C 0.84096 0.32315 0.28163 0.0
C676 C 0.85857 0.31961 0.28303 0.0
C677 C 0.86147 0.30241 0.28794 0.0
C678 C 0.87813 0.29897 0.28848 0.0
C679 C 0.89221 0.31264 0.28409 0.0
C680 C 0.88924 0.32982 0.27917 0.0
C681 C 0.87257 0.33327 0.27867 0.0
C682 C 0.79947 0.29077 0.22835 0.0
C683 C 0.77585 0.3198 0.26147 0.0
C684 C 0.74578 0.25202 0.24058 0.0
C685 C 0.72776 0.25391 0.24022 0.0
C686 C 0.71422 0.23943 0.22923 0.0
C687 C 0.697 0.24119 0.22851 0.0
C688 C 0.69308 0.25753 0.23875 0.0
C689 C 0.70674 0.27194 0.24995 0.0
C690 C 0.72397 0.27012 0.25068 0.0
C691 C 0.78693 0.28553 0.29396 0.0
O692 O 0.81925 0.27455 0.26743 0.0
O693 O 0.79382 0.25217 0.25381 0.0
O694 O 0.83423 0.32422 0.26451 0.0
O695 O 0.82965 0.31322 0.29092 0.0
O696 O 0.80806 0.30828 0.23548 0.0
O697 O 0.79842 0.28056 0.24115 0.0
O698 O 0.7672 0.30142 0.25513 0.0
O699 O 0.79282 0.32394 0.26806 0.0
O700 O 0.75327 0.25023 0.25709 0.0
O701 O 0.75599 0.26402 0.232 0.0
O702 O 0.77825 0.26802 0.28697 0.0
O703 O 0.78798 0.29545 0.28095 0.0
H704 H 0.85089 0.29161 0.29137 0.0
H705 H 0.88003 0.28572 0.2926 0.0
H706 H 0.89976 0.34054 0.27548 0.0
H707 H 0.87056 0.34655 0.2747 0.0
H708 H 0.71697 0.22679 0.22116 0.0
H709 H 0.68673 0.22971 0.22 0.0
H710 H 0.70417 0.28476 0.25783 0.0
H711 H 0.73433 0.2814 0.25931 0.0
Ho712 Ho 0.0388 0.54234 0.5461 0.0
Ho713 Ho 0.02679 0.52927 0.50304 0.0
C714 C 0.99748 0.52601 0.52995 0.0
C715 C 0.04462 0.55776 0.58182 0.0
C716 C 0.03945 0.55117 0.5993 0.0
C717 C 0.02591 0.53466 0.59838 0.0
C718 C 0.02163 0.52793 0.61509 0.0
C719 C 0.03093 0.53755 0.63292 0.0
C720 C 0.04456 0.55403 0.6337 0.0
C721 C 0.04878 0.56078 0.61699 0.0
C722 C 0.03827 0.50529 0.53232 0.0
C723 C 0.06783 0.54589 0.51894 0.0
C724 C 0.02317 0.51527 0.4671 0.0
C725 C 0.03397 0.52124 0.45249 0.0
C726 C 0.03134 0.50997 0.43428 0.0
C727 C 0.04218 0.51554 0.42069 0.0
C728 C 0.05577 0.53246 0.42521 0.0
C729 C 0.05822 0.54375 0.44349 0.0
C730 C 0.04741 0.53817 0.45702 0.0
C731 C 0.02757 0.56627 0.51723 0.0
O732 O 0.00939 0.53751 0.54353 0.0
O733 O 1.0018 0.51771 0.51392 0.0
O734 O 0.05507 0.54872 0.5733 0.0
O735 O 0.0321 0.56027 0.56991 0.0
O736 O 0.04912 0.51586 0.5466 0.0
O737 O 0.0273 0.51433 0.52744 0.0
O738 O 0.05614 0.53361 0.50581 0.0
O739 O 0.06312 0.55488 0.53433 0.0
O740 O 0.01488 0.5278 0.47423 0.0
O741 O 0.03085 0.50812 0.48026 0.0
O742 O 0.01611 0.55573 0.50343 0.0
O743 O 0.03856 0.55715 0.52171 0.0
H744 H 0.01875 0.52693 0.58474 0.0
H745 H 0.01115 0.51513 0.61407 0.0
H746 H 0.05176 0.5619 0.64726 0.0
H747 H 0.05936 0.57347 0.61786 0.0
H748 H 0.02103 0.49684 0.43063 0.0
H749 H 0.03991 0.50666 0.40664 0.0
H750 H 0.06873 0.55667 0.44748 0.0
H751 H 0.04964 0.54697 0.47112 0.0
Ho752 Ho 0.77255 0.78904 0.26168 0.0
Ho753 Ho 0.81391 0.78779 0.26432 0.0
C754 C 0.79706 0.80114 0.30264 0.0
C755 C 0.73911 0.77813 0.26179 0.0
C756 C 0.72399 0.78286 0.27019 0.0
C757 C 0.70719 0.77248 0.26178 0.0
C758 C 0.69255 0.77453 0.27065 0.0
C759 C 0.69437 0.78711 0.28818 0.0
C760 C 0.71128 0.79803 0.29626 0.0
C761 C 0.72597 0.79588 0.28737 0.0
C762 C 0.79445 0.82485 0.26148 0.0
C763 C 0.78943 0.77551 0.22335 0.0
C764 C 0.84731 0.79793 0.26378 0.0
C765 C 0.86197 0.79253 0.25472 0.0
C766 C 0.86095 0.78745 0.23478 0.0
C767 C 0.87591 0.78557 0.22635 0.0
C768 C 0.89217 0.7887 0.23766 0.0
C769 C 0.89289 0.79283 0.25767 0.0
C770 C 0.87796 0.79479 0.26608 0.0
C771 C 0.79193 0.75206 0.26466 0.0
O772 O 0.78098 0.79544 0.2933 0.0
O773 O 0.81138 0.80126 0.29421 0.0
O774 O 0.74617 0.78854 0.24968 0.0
O775 O 0.75068 0.77355 0.27339 0.0
O776 O 0.77748 0.82133 0.26065 0.0
O777 O 0.79815 0.80887 0.2625 0.0
O778 O 0.80551 0.781 0.23271 0.0
O779 O 0.77514 0.77574 0.23173 0.0
O780 O 0.84024 0.78761 0.27596 0.0
O781 O 0.83584 0.8034 0.25286 0.0
O782 O 0.8089 0.75555 0.26566 0.0
O783 O 0.7883 0.76802 0.26345 0.0
H784 H 0.70542 0.76219 0.24864 0.0
H785 H 0.67987 0.76562 0.26411 0.0
H786 H 0.71319 0.80804 0.30959 0.0
H787 H 0.73888 0.80395 0.29414 0.0
H788 H 0.84878 0.78567 0.22565 0.0
H789 H 0.87485 0.78252 0.21091 0.0
H790 H 0.90508 0.79496 0.26686 0.0
H791 H 0.87907 0.79875 0.28148 0.0
Ho792 Ho 0.79023 0.27489 0.73948 0.0
Ho793 Ho 0.78494 0.28729 0.78272 0.0
C794 C 0.80817 0.31823 0.76241 0.0
C795 C 0.78721 0.26966 0.70281 0.0
C796 C 0.7993 0.27647 0.68963 0.0
C797 C 0.79476 0.27019 0.66993 0.0
C798 C 0.80542 0.27833 0.65727 0.0
C799 C 0.82068 0.29294 0.66422 0.0
C800 C 0.82565 0.29843 0.68404 0.0
C801 C 0.81504 0.2902 0.69667 0.0
C802 C 0.81818 0.2727 0.76377 0.0
C803 C 0.77266 0.24258 0.76205 0.0
C804 C 0.78207 0.28977 0.81855 0.0
C805 C 0.78274 0.27614 0.83161 0.0
C806 C 0.7908 0.26097 0.8271 0.0
C807 C 0.79044 0.24723 0.83888 0.0
C808 C 0.78188 0.24836 0.85524 0.0
C809 C 0.77383 0.2636 0.85971 0.0
C810 C 0.77428 0.27741 0.84795 0.0
C811 C 0.76245 0.29465 0.75554 0.0
O812 O 0.80181 0.30697 0.74564 0.0
O813 O 0.80523 0.31276 0.77894 0.0
O814 O 0.79172 0.25732 0.71273 0.0
O815 O 0.7818 0.28321 0.71314 0.0
O816 O 0.81706 0.26869 0.7453 0.0
O817 O 0.80453 0.27766 0.76754 0.0
O818 O 0.77858 0.25493 0.77821 0.0
O819 O 0.7733 0.24777 0.74511 0.0
O820 O 0.76858 0.28453 0.80521 0.0
O821 O 0.79679 0.29656 0.81208 0.0
O822 O 0.76815 0.30575 0.77197 0.0
O823 O 0.76829 0.27979 0.7548 0.0
H824 H 0.78265 0.25956 0.66434 0.0
H825 H 0.80115 0.27403 0.64207 0.0
H826 H 0.83737 0.30961 0.68975 0.0
H827 H 0.81877 0.29508 0.71192 0.0
H828 H 0.79716 0.25959 0.81433 0.0
H829 H 0.79656 0.23551 0.83499 0.0
H830 H 0.76729 0.26488 0.87235 0.0
H831 H 0.76787 0.28895 0.85149 0.0
Ho832 Ho 0.80558 0.81496 0.77175 0.0
Ho833 Ho 0.7805 0.77649 0.75728 0.0
C834 C 0.76368 0.80988 0.77353 0.0
C835 C 0.81998 0.85128 0.77963 0.0
C836 C 0.81278 0.86708 0.7884 0.0
C837 C 0.80918 0.88056 0.77742 0.0
C838 C 0.79881 0.89285 0.78365 0.0
C839 C 0.79199 0.89206 0.80113 0.0
C840 C 0.79672 0.87955 0.81277 0.0
C841 C 0.80694 0.86711 0.80643 0.0
C842 C 0.80192 0.79092 0.79743 0.0
C843 C 0.82223 0.78189 0.75575 0.0
C844 C 0.76579 0.74019 0.74977 0.0
C845 C 0.77386 0.72381 0.74909 0.0
C846 C 0.789 0.72524 0.76165 0.0
C847 C 0.79829 0.7111 0.75931 0.0
C848 C 0.79267 0.69526 0.74435 0.0
C849 C 0.77713 0.6934 0.73222 0.0
C850 C 0.76782 0.70769 0.73452 0.0
C851 C 0.78364 0.80082 0.73199 0.0
O852 O 0.77918 0.8216 0.77366 0.0
O853 O 0.76109 0.79101 0.76945 0.0
O854 O 0.82321 0.8392 0.79057 0.0
O855 O 0.81212 0.84256 0.76264 0.0
O856 O 0.81658 0.8026 0.79589 0.0
O857 O 0.78983 0.79328 0.78597 0.0
O858 O 0.80733 0.77028 0.75801 0.0
O859 O 0.82408 0.80062 0.75753 0.0
O860 O 0.76945 0.75055 0.73651 0.0
O861 O 0.76702 0.75073 0.76664 0.0
O862 O 0.769 0.7893 0.73392 0.0
O863 O 0.796 0.79826 0.74298 0.0
H864 H 0.81346 0.88075 0.76344 0.0
H865 H 0.79529 0.90211 0.77417 0.0
H866 H 0.79198 0.87884 0.82647 0.0
H867 H 0.80948 0.85689 0.81528 0.0
H868 H 0.79399 0.73761 0.77295 0.0
H869 H 0.81004 0.7127 0.76908 0.0
H870 H 0.77254 0.6813 0.72059 0.0
H871 H 0.75627 0.70647 0.72458 0.0
Ho872 Ho 0.52666 0.52725 0.5023 0.0
Ho873 Ho 0.56222 0.55292 0.52411 0.0
C874 C 0.53588 0.5734 0.50292 0.0
C875 C 0.49387 0.51058 0.49505 0.0
C876 C 0.4791 0.51783 0.50101 0.0
C877 C 0.48237 0.53486 0.51445 0.0
C878 C 0.46884 0.54351 0.51851 0.0
C879 C 0.45185 0.53539 0.50901 0.0
C880 C 0.44847 0.51792 0.49605 0.0
C881 C 0.46207 0.5092 0.49204 0.0
C882 C 0.55182 0.52731 0.47753 0.0
C883 C 0.55291 0.50684 0.52375 0.0
C884 C 0.59486 0.57053 0.53229 0.0
C885 C 0.61087 0.56447 0.529 0.0
C886 C 0.60993 0.54715 0.51674 0.0
C887 C 0.62465 0.53974 0.51579 0.0
C888 C 0.6405 0.54948 0.52722 0.0
C889 C 0.64155 0.56725 0.53891 0.0
C890 C 0.62679 0.57469 0.53979 0.0
C891 C 0.53685 0.55274 0.54877 0.0
O892 O 0.52356 0.55717 0.50053 0.0
O893 O 0.55209 0.57483 0.51048 0.0
O894 O 0.50243 0.52022 0.48333 0.0
O895 O 0.50421 0.50723 0.50886 0.0
O896 O 0.53561 0.51772 0.47387 0.0
O897 O 0.55381 0.53589 0.49489 0.0
O898 O 0.56535 0.523 0.52605 0.0
O899 O 0.53672 0.50552 0.51621 0.0
O900 O 0.58585 0.56153 0.54411 0.0
O901 O 0.58506 0.57199 0.51703 0.0
O902 O 0.55302 0.5624 0.55251 0.0
O903 O 0.53507 0.54423 0.53142 0.0
H904 H 0.49553 0.54183 0.5213 0.0
H905 H 0.47175 0.55682 0.52875 0.0
H906 H 0.43549 0.51146 0.48843 0.0
H907 H 0.45944 0.49617 0.48146 0.0
H908 H 0.59761 0.53893 0.50856 0.0
H909 H 0.62337 0.52589 0.50689 0.0
H910 H 0.65365 0.5751 0.54776 0.0
H911 H 0.62763 0.58801 0.54943 0.0
Ho912 Ho 0.05939 0.53673 0.0195 0.0
Ho913 Ho 0.01871 0.52924 0.01135 0.0
C914 C 0.03555 0.49404 0.99927 0.0
C915 C 0.09142 0.53678 0.03076 0.0
C916 C 0.10341 0.52384 0.03113 0.0
C917 C 0.11278 0.52328 0.04861 0.0
C918 C 0.12568 0.51294 0.04922 0.0
C919 C 0.12958 0.503 0.03231 0.0
C920 C 0.1197 0.50298 0.01486 0.0
C921 C 0.10674 0.51328 0.01427 0.0
C922 C 0.04643 0.5466 0.98731 0.0
C923 C 0.04272 0.57208 0.03084 0.0
C924 C 0.98643 0.52877 1.00071 0.0
C925 C 0.9743 0.54144 0.99996 0.0
C926 C 0.97922 0.55986 0.99519 0.0
C927 C 0.96694 0.57099 0.99374 0.0
C928 C 0.94954 0.56385 0.99695 0.0
C929 C 0.94489 0.54555 1.00212 0.0
C930 C 0.95711 0.53449 1.00355 0.0
C931 C 0.03161 0.51925 0.04344 0.0
O932 O 0.05044 0.50443 0.0095 0.0
O933 O 0.02196 0.50138 0.99579 0.0
O934 O 0.08627 0.54071 0.01417 0.0
O935 O 0.079 0.53443 0.04172 0.0
O936 O 0.06091 0.55642 0.99767 0.0
O937 O 0.04022 0.53186 0.9941 0.0
O938 O 0.02781 0.56168 0.02062 0.0
O939 O 0.05613 0.5646 0.03478 0.0
O940 O 0.99206 0.52608 0.01765 0.0
O941 O 0.99855 0.53044 0.98933 0.0
O942 O 0.01714 0.50949 0.03307 0.0
O943 O 0.03789 0.53408 0.03681 0.0
H944 H 0.11044 0.53127 0.0618 0.0
H945 H 0.13278 0.51297 0.06294 0.0
H946 H 0.12241 0.49562 1.00155 0.0
H947 H 0.09971 0.51341 1.00056 0.0
H948 H 0.99245 0.56555 0.99239 0.0
H949 H 0.97097 0.585 0.98971 0.0
H950 H 0.93178 0.53975 0.00517 0.0
H951 H 0.95308 0.52035 0.00733 0.0
H952 H 0.98728 0.22042 0.95262 0.0
H953 H 0.99161 0.19291 0.96691 0.0
H954 H 0.02413 0.17959 0.9241 0.0
H955 H 0.0196 0.20682 0.90948 0.0
H956 H 1.00108 0.14745 0.92975 0.0
H957 H 0.03517 0.18982 0.9996 0.0
H958 H 0.01403 0.19393 0.99329 0.0
H959 H 0.03127 0.20084 0.97909 0.0
C960 C 0.99537 0.21166 0.94623 0.0
C961 C 1.00316 0.21594 0.92993 0.0
C962 C 0.99793 0.19598 0.95452 0.0
C963 C 0.00846 0.18434 0.94682 0.0
C964 C 0.01602 0.18839 0.93037 0.0
H965 H 0.05522 0.10461 0.99993 0.0
H966 H 0.04863 0.13186 0.98692 0.0
C967 C 0.01342 0.20401 0.92204 0.0
C968 C 0.01148 0.16779 0.9557 0.0
H969 H 0.02771 0.15586 0.99709 0.0
C970 C 0.00689 0.14929 0.94448 0.0
C971 C 0.01928 0.17019 0.97486 0.0
C972 C 0.02539 0.18978 0.98738 0.0
C973 C 0.0098 0.13318 0.95188 0.0
C974 C 0.01718 0.1355 0.97119 0.0
C975 C 0.02186 0.15401 0.98237 0.0
C976 C 0.02086 0.11906 0.9798 0.0
C977 C 1.00537 0.1139 0.93877 0.0
C978 C 0.0074 0.10289 0.98056 0.0
C979 C 0.01114 0.08718 0.98795 0.0
C980 C 0.02841 0.08737 0.99492 0.0
C981 C 0.04177 0.10388 0.99469 0.0
C982 C 0.03802 0.11952 0.98724 0.0
H983 H 1.00417 0.11544 0.92348 0.0
H984 H 0.01547 0.10583 0.94137 0.0
H985 H 0.99265 0.10524 0.94149 0.0
H986 H 0.99399 0.10235 0.97533 0.0
H987 H 1.00049 0.07481 0.98801 0.0
H988 H 0.11004 0.77323 0.16974 0.0
H989 H 0.13883 0.77298 0.1851 0.0
H990 H 0.16184 0.82459 0.16428 0.0
H991 H 0.13301 0.82491 0.14868 0.0
H992 H 0.18073 0.79534 0.15912 0.0
H993 H 0.16574 0.80988 0.23358 0.0
H994 H 0.1504 0.7899 0.21849 0.0
H995 H 0.1523 0.81379 0.21343 0.0
C996 C 0.12118 0.78461 0.16847 0.0
C997 C 0.11915 0.79917 0.15806 0.0
C998 C 0.13765 0.78446 0.17732 0.0
C999 C 0.15247 0.79888 0.17604 0.0
C1000 C 0.15057 0.81335 0.16552 0.0
H1001 H 0.25159 0.82343 0.24883 0.0
H1002 H 0.22474 0.82515 0.23009 0.0
C1003 C 0.13406 0.81355 0.15668 0.0
C1004 C 0.16993 0.79879 0.18567 0.0
H1005 H 0.1924 0.80106 0.22948 0.0
C1006 C 0.18333 0.79666 0.17451 0.0
C1007 C 0.17335 0.80069 0.20576 0.0
C1008 C 0.15976 0.80387 0.21857 0.0
C1009 C 0.19996 0.79606 0.1829 0.0
C1010 C 0.20321 0.79744 0.20296 0.0
C1011 C 0.18988 0.79985 0.2141 0.0
C1012 C 0.22043 0.79686 0.21287 0.0
C1013 C 0.21398 0.79427 0.17028 0.0
C1014 C 0.22713 0.78047 0.20928 0.0
C1015 C 0.24258 0.77948 0.21998 0.0
C1016 C 0.25148 0.79481 0.23455 0.0
C1017 C 0.24501 0.81138 0.23772 0.0
C1018 C 0.22964 0.81237 0.22704 0.0
H1019 H 0.21086 0.79819 0.15612 0.0
H1020 H 0.22687 0.80357 0.17714 0.0
H1021 H 0.2151 0.77913 0.16786 0.0
H1022 H 0.22012 0.76818 0.19866 0.0
H1023 H 0.24721 0.76649 0.21731 0.0
H1024 H 0.52957 0.82502 0.41872 0.0
H1025 H 0.53581 0.85908 0.43284 0.0
H1026 H 0.50229 0.84525 0.47568 0.0
H1027 H 0.49622 0.81104 0.46185 0.0
H1028 H 0.51308 0.88164 0.4361 0.0
H1029 H 0.54544 0.8808 0.50808 0.0
H1030 H 0.54179 0.86073 0.48862 0.0
H1031 H 0.52431 0.86427 0.50209 0.0
C1032 C 0.52364 0.82916 0.43127 0.0
C1033 C 0.51239 0.81525 0.43916 0.0
C1034 C 0.52723 0.84868 0.43932 0.0
C1035 C 0.51971 0.85476 0.45547 0.0
C1036 C 0.50857 0.84091 0.46349 0.0
H1037 H 0.50428 0.96883 0.49005 0.0
H1038 H 0.50149 0.93484 0.47799 0.0
C1039 C 0.50503 0.82134 0.45549 0.0
C1040 C 0.52277 0.87567 0.46318 0.0
H1041 H 0.53714 0.90967 0.50361 0.0
C1042 C 0.51843 0.88776 0.45084 0.0
C1043 C 0.52997 0.88376 0.48234 0.0
C1044 C 0.53582 0.87177 0.49602 0.0
C1045 C 0.52075 0.90758 0.45721 0.0
C1046 C 0.52726 0.91553 0.47657 0.0
C1047 C 0.53198 0.90354 0.48882 0.0
C1048 C 0.52903 0.93619 0.48438 0.0
C1049 C 0.5164 0.91986 0.44304 0.0
C1050 C 0.54538 0.94822 0.49255 0.0
C1051 C 0.54704 0.96775 0.49963 0.0
C1052 C 0.53233 0.97561 0.49874 0.0
C1053 C 0.51594 0.96339 0.49082 0.0
C1054 C 0.51431 0.94391 0.48382 0.0
H1055 H 0.51649 0.91289 0.4281 0.0
H1056 H 0.50309 0.92202 0.44433 0.0
H1057 H 0.52579 0.93421 0.44582 0.0
H1058 H 0.55692 0.94254 0.49325 0.0
H1059 H 0.55985 0.97667 0.5057 0.0
H1060 H 0.53732 0.30372 0.67055 0.0
H1061 H 0.51139 0.2998 0.68733 0.0
H1062 H 0.48452 0.32175 0.64366 0.0
H1063 H 0.51022 0.32561 0.62677 0.0
H1064 H 0.49385 0.32821 0.7015 0.0
H1065 H 0.45023 0.27054 0.6466 0.0
H1066 H 0.4737 0.27693 0.6471 0.0
H1067 H 0.46065 0.29154 0.63762 0.0
C1068 C 0.52589 0.30768 0.6645 0.0
C1069 C 0.52585 0.3149 0.64725 0.0
C1070 C 0.51108 0.30544 0.67411 0.0
C1071 C 0.49593 0.3102 0.66659 0.0
C1072 C 0.49594 0.31763 0.64954 0.0
H1073 H 0.39301 0.30794 0.70147 0.0
H1074 H 0.41904 0.31155 0.6849 0.0
C1075 C 0.51071 0.31992 0.63996 0.0
C1076 C 0.48019 0.30777 0.67672 0.0
H1077 H 0.43694 0.2844 0.67177 0.0
C1078 C 0.48142 0.31855 0.69506 0.0
C1079 C 0.46397 0.29523 0.66825 0.0
C1080 C 0.46201 0.28275 0.64888 0.0
C1081 C 0.4668 0.31742 0.70502 0.0
C1082 C 0.45057 0.30486 0.69656 0.0
C1083 C 0.44935 0.29405 0.67822 0.0
C1084 C 0.43475 0.30257 0.70659 0.0
C1085 C 0.46877 0.33006 0.72431 0.0
C1086 C 0.4348 0.296 0.72411 0.0
C1087 C 0.41996 0.2939 0.73358 0.0
C1088 C 0.40465 0.29819 0.72567 0.0
C1089 C 0.40452 0.30442 0.70792 0.0
C1090 C 0.41942 0.30656 0.69847 0.0
H1091 H 0.48038 0.34246 0.72633 0.0
H1092 H 0.45697 0.33564 0.72618 0.0
H1093 H 0.47052 0.32149 0.73567 0.0
H1094 H 0.4463 0.29232 0.73041 0.0
H1095 H 0.42042 0.28864 0.747 0.0
H1096 H 0.99764 0.80508 0.62274 0.0
H1097 H 1.00311 0.82759 0.60045 0.0
H1098 H 0.05824 0.8423 0.62108 0.0
H1099 H 0.05289 0.81994 0.64363 0.0
H1100 H 0.0445 0.87418 0.61763 0.0
H1101 H 0.02574 0.81937 0.55143 0.0
H1102 H 0.00932 0.81764 0.56727 0.0
H1103 H 0.03017 0.81327 0.5747 0.0
C1104 C 0.01093 0.8131 0.62258 0.0
C1105 C 0.02484 0.81064 0.6349 0.0
C1106 C 0.01405 0.82585 0.60973 0.0
C1107 C 0.03112 0.83628 0.60886 0.0
C1108 C 0.04499 0.83422 0.62142 0.0
H1109 H 0.06619 0.92557 0.5403 0.0
H1110 H 0.06654 0.90135 0.56083 0.0
C1111 C 0.04189 0.82146 0.6343 0.0
C1112 C 0.03436 0.8497 0.59515 0.0
H1113 H 0.02827 0.85209 0.5477 0.0
C1114 C 0.04119 0.86937 0.60232 0.0
C1115 C 0.03009 0.84329 0.5752 0.0
C1116 C 0.02358 0.82222 0.56665 0.0
C1117 C 0.04309 0.88296 0.59009 0.0
C1118 C 0.03826 0.8766 0.57019 0.0
C1119 C 0.03194 0.85688 0.56298 0.0
C1120 C 0.03843 0.89032 0.5568 0.0
C1121 C 0.04952 0.90406 0.59859 0.0
C1122 C 0.02257 0.89167 0.54733 0.0
C1123 C 0.02231 0.90544 0.53567 0.0
C1124 C 0.03795 0.91808 0.53316 0.0
C1125 C 0.05391 0.91623 0.54216 0.0
C1126 C 0.05414 0.90242 0.55387 0.0
H1127 H 0.04969 0.90673 0.61435 0.0
H1128 H 0.06304 0.90943 0.5954 0.0
H1129 H 0.04117 0.91252 0.59222 0.0
H1130 H 0.01031 0.88244 0.54945 0.0
H1131 H 0.00978 0.90665 0.52922 0.0
H1132 H 0.54285 0.82896 0.82651 0.0
H1133 H 0.51431 0.82277 0.80745 0.0
H1134 H 0.50697 0.76188 0.80684 0.0
H1135 H 0.53563 0.76791 0.82604 0.0
H1136 H 0.49954 0.79666 0.77028 0.0
H1137 H 0.4655 0.77823 0.83254 0.0
H1138 H 0.48822 0.79109 0.83548 0.0
H1139 H 0.4819 0.76587 0.82571 0.0
C1140 C 0.53528 0.81423 0.82221 0.0
C1141 C 0.54142 0.79894 0.82795 0.0
C1142 C 0.51901 0.81072 0.81124 0.0
C1143 C 0.50856 0.79191 0.80591 0.0
C1144 C 0.51486 0.77651 0.81097 0.0
H1145 H 0.39664 0.77389 0.76977 0.0
H1146 H 0.42474 0.76559 0.77513 0.0
C1147 C 0.53122 0.77999 0.8219 0.0
C1148 C 0.4906 0.78887 0.79627 0.0
H1149 H 0.44836 0.78182 0.80553 0.0
C1150 C 0.48827 0.79307 0.7778 0.0
C1151 C 0.47597 0.78405 0.80612 0.0
C1152 C 0.47788 0.77961 0.8261 0.0
C1153 C 0.4717 0.79338 0.76919 0.0
C1154 C 0.45726 0.78987 0.77958 0.0
C1155 C 0.45945 0.78454 0.7976 0.0
C1156 C 0.44029 0.79379 0.77318 0.0
C1157 C 0.46991 0.79782 0.74923 0.0
C1158 C 0.4397 0.81231 0.77006 0.0
C1159 C 0.42369 0.81703 0.76681 0.0
C1160 C 0.40794 0.80341 0.76691 0.0
C1161 C 0.40853 0.78466 0.76938 0.0
C1162 C 0.42457 0.77991 0.77254 0.0
H1163 H 0.47981 0.79299 0.74092 0.0
H1164 H 0.45668 0.79083 0.74142 0.0
H1165 H 0.47219 0.81362 0.75004 0.0
H1166 H 0.45165 0.8234 0.77096 0.0
H1167 H 0.42368 0.83153 0.76474 0.0
H1168 H 0.49113 0.1925 0.12822 0.0
H1169 H 0.49724 0.16436 0.10931 0.0
H1170 H 0.51318 0.19765 0.06585 0.0
H1171 H 0.50658 0.22577 0.08442 0.0
H1172 H 0.49295 0.16272 0.05042 0.0
H1173 H 0.54494 0.15506 0.10396 0.0
H1174 H 0.52474 0.15465 0.11357 0.0
H1175 H 0.53619 0.17609 0.10589 0.0
C1176 C 0.49592 0.19384 0.11462 0.0
C1177 C 0.49847 0.21138 0.10785 0.0
C1178 C 0.49953 0.17778 0.10391 0.0
C1179 C 0.50608 0.17905 0.08641 0.0
C1180 C 0.50827 0.19642 0.0794 0.0
H1181 H 0.55117 0.08968 0.02992 0.0
H1182 H 0.54686 0.12046 0.04563 0.0
C1183 C 0.50447 0.21245 0.09002 0.0
C1184 C 0.51032 0.16213 0.07527 0.0
H1185 H 0.53371 0.12831 0.0785 0.0
C1186 C 0.50198 0.15529 0.05649 0.0
C1187 C 0.52236 0.15268 0.08308 0.0
C1188 C 0.53271 0.16011 0.10266 0.0
C1189 C 0.50493 0.13886 0.04551 0.0
C1190 C 0.51617 0.12876 0.05374 0.0
C1191 C 0.52494 0.13595 0.0723 0.0
C1192 C 0.51871 0.11044 0.04356 0.0
C1193 C 0.49607 0.1326 0.02517 0.0
C1194 C 0.50434 0.09461 0.03736 0.0
C1195 C 0.50677 0.07714 0.0283 0.0
C1196 C 0.52364 0.07514 0.02561 0.0
C1197 C 0.53804 0.09091 0.03189 0.0
C1198 C 0.53559 0.10845 0.04083 0.0
H1199 H 0.49267 0.14483 0.01927 0.0
H1200 H 0.50452 0.12631 0.01577 0.0
H1201 H 0.48374 0.12152 0.0248 0.0
H1202 H 0.49126 0.09566 0.0398 0.0
H1203 H 0.49548 0.0651 0.02376 0.0
H1204 H 0.13453 0.32693 0.34342 0.0
H1205 H 0.15994 0.32962 0.32629 0.0
H1206 H 0.16852 0.39139 0.33592 0.0
H1207 H 0.14286 0.3889 0.35324 0.0
H1208 H 0.16596 0.35095 0.2924 0.0
H1209 H 0.21585 0.37717 0.35707 0.0
H1210 H 0.19396 0.36413 0.35912 0.0
H1211 H 0.19765 0.388 0.35378 0.0
C1212 C 0.14176 0.34113 0.34195 0.0
C1213 C 0.13671 0.35772 0.34976 0.0
C1214 C 0.15623 0.34262 0.33209 0.0
C1215 C 0.16602 0.36068 0.3299 0.0
C1216 C 0.16108 0.37734 0.33755 0.0
H1217 H 0.266 0.35551 0.28828 0.0
H1218 H 0.24274 0.3706 0.29773 0.0
C1219 C 0.14646 0.37587 0.34741 0.0
C1220 C 0.18156 0.36155 0.31988 0.0
H1221 H 0.22508 0.3639 0.32887 0.0
C1222 C 0.179 0.35427 0.30023 0.0
C1223 C 0.19852 0.36616 0.33013 0.0
C1224 C 0.20183 0.37432 0.35121 0.0
C1225 C 0.19278 0.35 0.29084 0.0
C1226 C 0.20933 0.35265 0.30155 0.0
C1227 C 0.21227 0.36163 0.32079 0.0
C1228 C 0.22294 0.34391 0.29386 0.0
C1229 C 0.18935 0.34191 0.26975 0.0
C1230 C 0.21942 0.32386 0.28847 0.0
C1231 C 0.2326 0.31513 0.28301 0.0
C1232 C 0.24961 0.32631 0.283 0.0
C1233 C 0.25305 0.34646 0.28815 0.0
C1234 C 0.2398 0.35515 0.29357 0.0
H1235 H 0.17855 0.34687 0.2626 0.0
H1236 H 0.20123 0.34613 0.2627 0.0
H1237 H 0.18536 0.32596 0.26769 0.0
H1238 H 0.20658 0.31488 0.28904 0.0
H1239 H 0.22951 0.2996 0.27917 0.0
H1240 H 0.93316 0.03494 0.18964 0.0
H1241 H 0.94633 0.02915 0.15983 0.0
H1242 H 0.9812 0.08557 0.17478 0.0
H1243 H 0.96836 0.09134 0.20416 0.0
H1244 H 0.95021 0.04768 0.12716 0.0
H1245 H 0.01606 0.05356 0.16412 0.0
H1246 H 0.99702 0.05103 0.17649 0.0
H1247 H 0.00786 0.0742 0.17173 0.0
C1248 C 0.94368 0.04611 0.18667 0.0
C1249 C 0.94958 0.06363 0.19985 0.0
C1250 C 0.95125 0.0428 0.16941 0.0
C1251 C 0.9652 0.05674 0.1647 0.0
C1252 C 0.97086 0.07422 0.17779 0.0
H1253 H 0.03701 0.07587 0.07894 0.0
H1254 H 0.01968 0.07626 0.1054 0.0
C1255 C 0.96329 0.07756 0.19482 0.0
C1256 C 0.97401 0.05337 0.14649 0.0
H1257 H 0.01429 0.05535 0.13104 0.0
C1258 C 0.96421 0.04918 0.1281 0.0
C1259 C 0.99236 0.05521 0.14711 0.0
C1260 C 1.00394 0.05855 0.1659 0.0
C1261 C 0.97216 0.04767 0.11086 0.0
C1262 C 0.99062 0.04997 0.11153 0.0
C1263 C 1.00025 0.05367 0.12996 0.0
C1264 C 1.00047 0.04967 0.09378 0.0
C1265 C 0.96064 0.0444 0.09205 0.0
C1266 C 0.99588 0.03468 0.07752 0.0
C1267 C 0.00598 0.03451 0.06188 0.0
C1268 C 0.02111 0.0493 0.06188 0.0
C1269 C 0.02549 0.06421 0.07803 0.0
C1270 C 0.01549 0.06441 0.09347 0.0
H1271 H 0.94803 0.04828 0.09388 0.0
H1272 H 0.96726 0.05288 0.0819 0.0
H1273 H 0.95764 0.02892 0.0856 0.0
H1274 H 0.98478 0.02268 0.0771 0.0
H1275 H 1.00231 0.02241 0.05019 0.0
H1276 H 0.23153 0.64768 0.47911 0.0
H1277 H 0.23 0.66289 0.45078 0.0
H1278 H 0.2845 0.6653 0.44713 0.0
H1279 H 0.2862 0.65013 0.47533 0.0
H1280 H 0.25159 0.69984 0.44856 0.0
H1281 H 0.25991 0.64246 0.39195 0.0
H1282 H 0.25294 0.63771 0.41455 0.0
H1283 H 0.27567 0.64736 0.41295 0.0
C1284 C 0.24314 0.65127 0.47215 0.0
C1285 C 0.259 0.64776 0.47946 0.0
C1286 C 0.24222 0.6599 0.45599 0.0
C1287 C 0.25707 0.6649 0.44679 0.0
C1288 C 0.27283 0.66117 0.45386 0.0
H1289 H 0.29724 0.73079 0.36506 0.0
H1290 H 0.29037 0.70874 0.38766 0.0
C1291 C 0.27379 0.65265 0.47005 0.0
C1292 C 0.25664 0.67551 0.43075 0.0
H1293 H 0.26486 0.67426 0.38459 0.0
C1294 C 0.25419 0.69419 0.43445 0.0
C1295 C 0.26008 0.66799 0.41247 0.0
C1296 C 0.26215 0.64771 0.40763 0.0
C1297 C 0.25602 0.70603 0.42058 0.0
C1298 C 0.26004 0.69874 0.40246 0.0
C1299 C 0.26183 0.67977 0.39854 0.0
C1300 C 0.26359 0.71101 0.38785 0.0
C1301 C 0.25454 0.72653 0.42578 0.0
C1302 C 0.25068 0.71922 0.38025 0.0
C1303 C 0.25461 0.73189 0.36746 0.0
C1304 C 0.27144 0.73633 0.36192 0.0
C1305 C 0.28415 0.72754 0.36904 0.0
C1306 C 0.28025 0.71499 0.38193 0.0
H1307 H 0.25523 0.73105 0.44147 0.0
H1308 H 0.26509 0.73661 0.42054 0.0
H1309 H 0.24179 0.72783 0.41898 0.0
H1310 H 0.23764 0.71598 0.38435 0.0
H1311 H 0.24449 0.73822 0.36188 0.0
H1312 H 0.60631 0.96628 0.69347 0.0
H1313 H 0.59033 0.96552 0.66223 0.0
H1314 H 0.62422 0.02019 0.65838 0.0
H1315 H 0.64041 0.02092 0.68928 0.0
H1316 H 0.57242 0.99209 0.65564 0.0
H1317 H 0.62103 0.99094 0.60483 0.0
H1318 H 0.62438 0.9849 0.62832 0.0
H1319 H 0.62901 0.00969 0.62522 0.0
C1320 C 0.6106 0.97792 0.68577 0.0
C1321 C 0.62456 0.99371 0.6939 0.0
C1322 C 0.60146 0.97746 0.66793 0.0
C1323 C 0.60621 0.99268 0.65789 0.0
C1324 C 0.62058 0.00807 0.66564 0.0
H1325 H 0.56196 0.04545 0.57362 0.0
H1326 H 0.57947 0.03565 0.59871 0.0
C1327 C 0.62973 0.00853 0.68342 0.0
C1328 C 0.59495 0.99381 0.64059 0.0
H1329 H 0.59601 1.00273 0.59503 0.0
C1330 C 0.57747 0.99402 0.64225 0.0
C1331 C 0.60161 0.9964 0.62318 0.0
C1332 C 0.61999 0.99527 0.6202 0.0
C1333 C 0.56669 0.99773 0.62729 0.0
C1334 C 0.57358 1.00111 0.61021 0.0
C1335 C 0.59086 1.00023 0.60825 0.0
C1336 C 0.56329 1.0066 0.59462 0.0
C1337 C 0.54829 0.9989 0.63017 0.0
C1338 C 0.5485 0.99343 0.58405 0.0
C1339 C 0.53856 0.99897 0.5697 0.0
C1340 C 0.54335 0.01771 0.5657 0.0
C1341 C 0.55814 0.03086 0.57632 0.0
C1342 C 0.56812 0.02529 0.5906 0.0
H1343 H 0.54595 0.99906 0.6453 0.0
H1344 H 0.54554 0.01204 0.62561 0.0
H1345 H 0.53887 0.98625 0.62123 0.0
H1346 H 0.54469 0.97889 0.5869 0.0
H1347 H 0.52723 0.98856 0.56163 0.0
H1348 H 0.28805 0.33814 0.98606 0.0
H1349 H 0.28718 0.32471 0.95228 0.0
H1350 H 0.3155 0.37997 0.94252 0.0
H1351 H 0.31619 0.39357 0.97607 0.0
H1352 H 0.2871 0.36387 0.91561 0.0
H1353 H 0.32661 0.31086 0.92462 0.0
H1354 H 0.30817 0.30845 0.93776 0.0
H1355 H 0.32575 0.32983 0.94375 0.0
C1356 C 0.29418 0.34741 0.97675 0.0
C1357 C 0.30221 0.36694 0.98381 0.0
C1358 C 0.29376 0.33968 0.95745 0.0
C1359 C 0.30149 0.35126 0.9449 0.0
C1360 C 0.3095 0.37073 0.95193 0.0
H1361 H 0.32475 0.31532 0.83021 0.0
H1362 H 0.32605 0.3275 0.86433 0.0
C1363 C 0.30989 0.37848 0.97116 0.0
C1364 C 0.30074 0.34339 0.92429 0.0
H1365 H 0.31263 0.30929 0.89331 0.0
C1366 C 0.2927 0.35195 0.91074 0.0
C1367 C 0.30825 0.32799 0.91793 0.0
C1368 C 0.31783 0.31883 0.93174 0.0
C1369 C 0.2918 0.34544 0.89103 0.0
C1370 C 0.29886 0.32968 0.88468 0.0
C1371 C 0.30708 0.32125 0.89821 0.0
C1372 C 0.29798 0.3219 0.86403 0.0
C1373 C 0.28362 0.35577 0.87721 0.0
C1374 C 0.28178 0.31443 0.85256 0.0
C1375 C 0.28098 0.30753 0.83304 0.0
C1376 C 0.29639 0.30779 0.82458 0.0
C1377 C 0.31262 0.31494 0.8362 0.0
C1378 C 0.31339 0.32189 0.85573 0.0
H1379 H 0.28317 0.37041 0.88412 0.0
H1380 H 0.29092 0.35705 0.86472 0.0
H1381 H 0.26999 0.34747 0.87192 0.0
H1382 H 0.26971 0.31391 0.85871 0.0
H1383 H 0.26824 0.30199 0.82461 0.0
H1384 H 0.94574 0.02245 0.30465 0.0
H1385 H 0.96161 0.0246 0.33596 0.0
H1386 H 0.96962 0.08624 0.34568 0.0
H1387 H 0.9532 0.08411 0.31396 0.0
H1388 H 0.99397 0.03961 0.3516 0.0
H1389 H 0.95321 0.07648 0.39564 0.0
H1390 H 0.94659 0.06692 0.37054 0.0
H1391 H 0.96253 0.08951 0.37803 0.0
C1392 C 0.95076 0.03662 0.31329 0.0
C1393 C 0.94789 0.0531 0.30633 0.0
C1394 C 0.96 0.0378 0.33146 0.0
C1395 C 0.96685 0.05552 0.34385 0.0
C1396 C 0.96427 0.07219 0.33695 0.0
H1397 H 0.0249 0.07866 0.46253 0.0
H1398 H 0.01105 0.08205 0.43134 0.0
C1399 C 0.95495 0.07101 0.31854 0.0
C1400 C 0.97682 0.05606 0.36351 0.0
H1401 H 0.97804 0.07024 0.41206 0.0
C1402 C 0.99037 0.04637 0.36474 0.0
C1403 C 0.97255 0.06485 0.38108 0.0
C1404 C 0.95784 0.07489 0.38139 0.0
C1405 C 0.99952 0.04522 0.38247 0.0
C1406 C 0.99498 0.05359 0.40007 0.0
C1407 C 0.9817 0.06367 0.39888 0.0
C1408 C 1.00354 0.0516 0.41961 0.0
C1409 C 0.0143 0.03527 0.38204 0.0
C1410 C 1.00399 0.03339 0.42414 0.0
C1411 C 0.01198 0.03141 0.44206 0.0
C1412 C 0.01983 0.04754 0.45645 0.0
C1413 C 0.0192 0.06579 0.45203 0.0
C1414 C 0.01115 0.06776 0.43404 0.0
H1415 H 0.01989 0.03539 0.36833 0.0
H1416 H 0.02496 0.04216 0.39394 0.0
H1417 H 0.00926 0.02001 0.38344 0.0
H1418 H 0.99793 0.02049 0.41383 0.0
H1419 H 0.01187 0.01704 0.44466 0.0
H1420 H 0.23573 0.65842 0.57577 0.0
H1421 H 0.23801 0.6829 0.60413 0.0
H1422 H 0.29334 0.70282 0.602 0.0
H1423 H 0.29128 0.67816 0.57404 0.0
H1424 H 0.28646 0.69613 0.63679 0.0
H1425 H 0.24409 0.74078 0.61073 0.0
H1426 H 0.23347 0.71562 0.60733 0.0
H1427 H 0.25174 0.72356 0.59482 0.0
C1428 C 0.24835 0.66814 0.58125 0.0
C1429 C 0.26335 0.66631 0.57275 0.0
C1430 C 0.24959 0.68222 0.59735 0.0
C1431 C 0.2658 0.69484 0.60499 0.0
C1432 C 0.2807 0.69326 0.59627 0.0
H1433 H 0.2916 0.79453 0.69552 0.0
H1434 H 0.28391 0.77295 0.66446 0.0
C1435 C 0.2795 0.67912 0.58033 0.0
C1436 C 0.26761 0.70866 0.62297 0.0
H1437 H 0.25335 0.74669 0.64431 0.0
C1438 C 0.27926 0.70723 0.6384 0.0
C1439 C 0.25833 0.72323 0.62495 0.0
C1440 C 0.24633 0.72606 0.60853 0.0
C1441 C 0.28183 0.71987 0.65583 0.0
C1442 C 0.27208 0.73399 0.65806 0.0
C1443 C 0.26058 0.73564 0.64259 0.0
C1444 C 0.27414 0.7474 0.67632 0.0
C1445 C 0.29524 0.71821 0.67156 0.0
C1446 C 0.27049 0.74025 0.69309 0.0
C1447 C 0.27506 0.75244 0.71078 0.0
C1448 C 0.28307 0.77202 0.71191 0.0
C1449 C 0.28551 0.77946 0.69501 0.0
C1450 C 0.2811 0.76718 0.6773 0.0
H1451 H 0.30466 0.71022 0.66594 0.0
H1452 H 0.30268 0.73264 0.67929 0.0
H1453 H 0.28848 0.71026 0.68197 0.0
H1454 H 0.26479 0.72507 0.69256 0.0
H1455 H 0.27294 0.74637 0.72359 0.0
H1456 H 0.60505 1.0017 0.7782 0.0
H1457 H 0.58297 1.00241 0.79971 0.0
H1458 H 0.59143 0.06376 0.80262 0.0
H1459 H 0.6138 0.06323 0.78108 0.0
H1460 H 0.5939 0.05282 0.83792 0.0
H1461 H 0.53317 0.00894 0.79364 0.0
H1462 H 0.55067 0.99706 0.79199 0.0
H1463 H 0.55235 0.01948 0.78342 0.0
C1464 C 0.60206 0.01533 0.78316 0.0
C1465 C 0.61122 0.03243 0.77801 0.0
C1466 C 0.58929 0.01567 0.79531 0.0
C1467 C 0.58535 0.03308 0.80248 0.0
C1468 C 0.59416 0.05015 0.79704 0.0
H1469 H 0.52607 0.04221 0.90087 0.0
H1470 H 0.53782 0.05008 0.87164 0.0
C1471 C 0.60693 0.04982 0.78477 0.0
C1472 C 0.57357 0.03348 0.81736 0.0
H1473 H 0.53417 0.00975 0.82796 0.0
C1474 C 0.58065 0.04385 0.83567 0.0
C1475 C 0.55629 0.0218 0.81432 0.0
C1476 C 0.54762 0.01136 0.79471 0.0
C1477 C 0.5714 0.04165 0.85134 0.0
C1478 C 0.55465 0.02886 0.8485 0.0
C1479 C 0.5471 0.01944 0.83003 0.0
C1480 C 0.54577 0.02349 0.86486 0.0
C1481 C 0.58 0.05197 0.87103 0.0
C1482 C 0.54605 1.00577 0.87033 0.0
C1483 C 0.53954 1.0013 0.88704 0.0
C1484 C 0.53257 0.01448 0.89851 0.0
C1485 C 0.53161 0.03189 0.89248 0.0
C1486 C 0.5382 0.03638 0.87578 0.0
H1487 H 0.59353 0.06055 0.87091 0.0
H1488 H 0.57217 0.06181 0.877 0.0
H1489 H 0.58044 0.04141 0.88073 0.0
H1490 H 0.55195 0.99572 0.86205 0.0
H1491 H 0.54069 0.9879 0.89138 0.0
H1492 H 0.32369 0.3827 0.08694 0.0
H1493 H 0.32361 0.36917 0.11644 0.0
H1494 H 0.26722 0.35449 0.1086 0.0
H1495 H 0.26714 0.36775 0.07911 0.0
H1496 H 0.30898 0.38051 0.14947 0.0
H1497 H 0.2787 0.30413 0.11795 0.0
H1498 H 0.28786 0.32167 0.1038 0.0
H1499 H 0.26637 0.32036 0.11066 0.0
C1500 C 0.31126 0.37641 0.09138 0.0
C1501 C 0.29541 0.37625 0.08059 0.0
C1502 C 0.31125 0.36874 0.10828 0.0
C1503 C 0.29541 0.36061 0.11461 0.0
C1504 C 0.2796 0.36035 0.10381 0.0
H1505 H 0.25828 0.31232 0.21029 0.0
H1506 H 0.26262 0.32627 0.18143 0.0
C1507 C 0.27959 0.36803 0.08697 0.0
C1508 C 0.29529 0.353 0.13283 0.0
H1509 H 0.2797 0.31281 0.15169 0.0
C1510 C 0.30276 0.36565 0.14997 0.0
C1511 C 0.28719 0.33361 0.13344 0.0
C1512 C 0.27972 0.31909 0.11547 0.0
C1513 C 0.30171 0.35963 0.16777 0.0
C1514 C 0.2932 0.34036 0.16839 0.0
C1515 C 0.28612 0.32761 0.15121 0.0
C1516 C 0.29089 0.33319 0.18667 0.0
C1517 C 0.30915 0.37409 0.18578 0.0
C1518 C 0.30536 0.33261 0.19935 0.0
C1519 C 0.30289 0.32467 0.21594 0.0
C1520 C 0.28592 0.31706 0.22001 0.0
C1521 C 0.27151 0.31804 0.20751 0.0
C1522 C 0.27397 0.32597 0.19099 0.0
H1523 H 0.3117 0.38912 0.18308 0.0
H1524 H 0.30012 0.37251 0.19679 0.0
H1525 H 0.32172 0.37155 0.19167 0.0
H1526 H 0.31853 0.33781 0.19617 0.0
H1527 H 0.31424 0.32403 0.22529 0.0
H1528 H 0.24353 0.93717 0.9911 0.0
H1529 H 0.21935 0.95295 0.99306 0.0
H1530 H 0.25561 0.00836 0.99882 0.0
H1531 H 0.27988 0.99278 0.99684 0.0
H1532 H 0.21727 0.98196 0.0251 0.0
H1533 H 0.21609 0.00815 0.95571 0.0
H1534 H 0.22618 0.98895 0.96014 0.0
H1535 H 0.23712 0.0135 0.96996 0.0
C1536 C 0.24636 0.95271 0.9926 0.0
C1537 C 0.26362 0.96374 0.99382 0.0
C1538 C 0.23253 0.96166 0.99373 0.0
C1539 C 0.23574 0.98175 0.99589 0.0
C1540 C 0.25289 0.9928 0.99686 0.0
H1541 H 0.16937 0.06189 0.01085 0.0
H1542 H 0.19395 0.04701 0.00662 0.0
C1543 C 0.26674 0.98388 0.99583 0.0
C1544 C 0.22124 0.99122 0.99821 0.0
H1545 H 0.1977 0.01844 0.97728 0.0
C1546 C 0.21291 0.98988 0.01464 0.0
C1547 C 0.21579 1.00165 0.98458 0.0
C1548 C 0.22413 1.0031 0.96651 0.0
C1549 C 0.1993 0.99888 0.01791 0.0
C1550 C 0.19366 0.00911 1.00415 0.0
C1551 C 0.20208 0.01056 0.98777 0.0
C1552 C 0.1788 0.01806 0.00636 0.0
C1553 C 0.19131 0.99767 0.03623 0.0
C1554 C 0.16215 1.00664 0.00728 0.0
C1555 C 0.14818 0.01507 0.00988 0.0
C1556 C 0.15055 0.0351 0.01136 0.0
C1557 C 0.16719 0.04647 0.01001 0.0
C1558 C 0.1812 0.03799 0.00747 0.0
H1559 H 0.20019 0.99414 0.0474 0.0
H1560 H 0.18812 0.01142 0.04191 0.0
H1561 H 0.17902 0.98612 0.0334 0.0
H1562 H 0.15998 0.99118 0.0061 0.0
H1563 H 0.1356 1.00592 0.01109 0.0
H1564 H 0.73472 0.62173 0.01829 0.0
H1565 H 0.70394 0.6048 0.01558 0.0
H1566 H 0.6922 0.63076 0.96699 0.0
H1567 H 0.72304 0.64792 0.96966 0.0
H1568 H 0.66904 0.63284 0.99469 0.0
H1569 H 0.67688 0.55857 0.97497 0.0
H1570 H 0.69094 0.57213 0.99606 0.0
H1571 H 0.69369 0.57958 0.97338 0.0
C1572 C 0.72565 0.62377 0.00693 0.0
C1573 C 0.7314 0.63614 0.99413 0.0
C1574 C 0.70805 0.61399 0.00535 0.0
C1575 C 0.69581 0.61631 0.99093 0.0
C1576 C 0.70145 0.62868 0.97816 0.0
H1577 H 0.58901 0.54334 0.96558 0.0
H1578 H 0.61846 0.56169 0.96251 0.0
C1579 C 0.71909 0.63843 0.97968 0.0
C1580 C 0.67705 0.60624 0.98961 0.0
H1581 H 0.6494 0.56162 0.98444 0.0
C1582 C 0.66471 0.61727 0.99229 0.0
C1583 C 0.67137 0.58592 0.98623 0.0
C1584 C 0.68387 0.57332 0.98231 0.0
C1585 C 0.64694 0.60851 0.99233 0.0
C1586 C 0.64142 0.58821 0.98984 0.0
C1587 C 0.65366 0.57718 0.9865 0.0
C1588 C 0.62313 0.57809 0.99123 0.0
C1589 C 0.63423 0.62106 0.99502 0.0
C1590 C 0.61598 0.58121 0.00838 0.0
C1591 C 0.59922 0.57073 0.01016 0.0
C1592 C 0.5893 0.55688 0.99485 0.0
C1593 C 0.59635 0.55395 0.9776 0.0
C1594 C 0.61316 0.56441 0.97584 0.0
H1595 H 0.63939 0.63547 0.99134 0.0
H1596 H 0.62145 0.61425 0.98611 0.0
H1597 H 0.63196 0.62316 0.01022 0.0
H1598 H 0.62356 0.59138 0.02058 0.0
H1599 H 0.59422 0.57314 0.02371 0.0
H1600 H 0.66912 0.43624 0.25585 0.0
H1601 H 0.68595 0.412 0.25544 0.0
H1602 H 0.73255 0.45613 0.27873 0.0
H1603 H 0.71545 0.48072 0.2795 0.0
H1604 H 0.71059 0.40322 0.23737 0.0
H1605 H 0.7394 0.41963 0.31327 0.0
H1606 H 0.72255 0.43043 0.30451 0.0
H1607 H 0.74497 0.43973 0.30117 0.0
C1608 C 0.68295 0.44106 0.26105 0.0
C1609 C 0.6906 0.46091 0.26782 0.0
C1610 C 0.69273 0.42689 0.26075 0.0
C1611 C 0.71081 0.43158 0.26731 0.0
C1612 C 0.71864 0.45148 0.27398 0.0
H1613 H 0.78893 0.35931 0.27388 0.0
H1614 H 0.77377 0.38539 0.27493 0.0
C1615 C 0.70877 0.46579 0.27428 0.0
C1616 C 0.72106 0.41565 0.26658 0.0
H1617 H 0.74933 0.39641 0.2931 0.0
C1618 C 0.71898 0.40186 0.2497 0.0
C1619 C 0.7323 0.41324 0.28238 0.0
C1620 C 0.73486 0.4264 0.30142 0.0
C1621 C 0.72764 0.38649 0.24809 0.0
C1622 C 0.73873 0.38396 0.26393 0.0
C1623 C 0.74097 0.39784 0.28077 0.0
C1624 C 0.74815 0.36732 0.26329 0.0
C1625 C 0.72514 0.37345 0.22897 0.0
C1626 C 0.73925 0.34776 0.25667 0.0
C1627 C 0.74805 0.33259 0.25598 0.0
C1628 C 0.76622 0.33612 0.26202 0.0
C1629 C 0.77504 0.35563 0.26893 0.0
C1630 C 0.76625 0.37078 0.2696 0.0
H1631 H 0.7213 0.38063 0.21712 0.0
H1632 H 0.73724 0.36883 0.22616 0.0
H1633 H 0.71449 0.36047 0.22882 0.0
H1634 H 0.7253 0.34404 0.2522 0.0
H1635 H 0.74049 0.31798 0.25075 0.0
H1636 H 0.84048 0.46664 0.49548 0.0
H1637 H 0.87063 0.48576 0.50157 0.0
H1638 H 0.86258 0.50897 0.55839 0.0
H1639 H 0.83233 0.48959 0.55255 0.0
H1640 H 0.88753 0.52533 0.51385 0.0
H1641 H 0.9007 0.47958 0.56709 0.0
H1642 H 0.88066 0.47342 0.55082 0.0
H1643 H 0.8841 0.4925 0.571 0.0
C1644 C 0.84498 0.47606 0.50916 0.0
C1645 C 0.83413 0.47633 0.52367 0.0
C1646 C 0.8622 0.48702 0.51259 0.0
C1647 C 0.86886 0.49843 0.53055 0.0
C1648 C 0.85771 0.49995 0.54456 0.0
H1649 H 0.98319 0.53878 0.56147 0.0
H1650 H 0.95206 0.53572 0.5642 0.0
C1651 C 0.84044 0.48893 0.54116 0.0
C1652 C 0.88785 0.50696 0.5349 0.0
H1653 H 0.92487 0.49993 0.55817 0.0
C1654 C 0.89571 0.5201 0.52382 0.0
C1655 C 0.89843 0.50007 0.54795 0.0
C1656 C 0.89064 0.48553 0.55986 0.0
C1657 C 0.91394 0.52578 0.52473 0.0
C1658 C 0.92444 0.51793 0.53685 0.0
C1659 C 0.91667 0.50584 0.54889 0.0
C1660 C 0.9432 0.52007 0.53543 0.0
C1661 C 0.92181 0.53955 0.51217 0.0
C1662 C 0.94832 0.51177 0.51854 0.0
C1663 C 0.96596 0.51328 0.51698 0.0
C1664 C 0.97881 0.52314 0.53231 0.0
C1665 C 0.9736 0.53112 0.54939 0.0
C1666 C 0.95588 0.52948 0.55097 0.0
H1667 H 0.91279 0.54842 0.50811 0.0
H1668 H 0.9344 0.54925 0.51943 0.0
H1669 H 0.92442 0.53122 0.49885 0.0
H1670 H 0.93864 0.50407 0.50655 0.0
H1671 H 0.9695 0.50696 0.50362 0.0
H1672 H 0.40516 0.11899 0.27878 0.0
H1673 H 0.38237 0.13409 0.26762 0.0
H1674 H 0.3428 0.08335 0.27124 0.0
H1675 H 0.36543 0.06827 0.28276 0.0
H1676 H 0.35637 0.12173 0.23553 0.0
H1677 H 0.32773 0.12665 0.30396 0.0
H1678 H 0.3488 0.12143 0.30211 0.0
H1679 H 0.32911 0.10299 0.2935 0.0
C1680 C 0.39162 0.11107 0.27725 0.0
C1681 C 0.38708 0.09254 0.28184 0.0
C1682 C 0.37863 0.11967 0.2708 0.0
C1683 C 0.36094 0.10989 0.26884 0.0
C1684 C 0.35638 0.09124 0.273 0.0
H1685 H 0.27157 0.15984 0.24833 0.0
H1686 H 0.28819 0.13507 0.24881 0.0
C1687 C 0.36933 0.08266 0.27955 0.0
C1688 C 0.34731 0.11947 0.26285 0.0
H1689 H 0.31447 0.13828 0.27893 0.0
C1690 C 0.3471 0.12522 0.24493 0.0
C1691 C 0.33519 0.12386 0.27513 0.0
C1692 C 0.33523 0.11857 0.29481 0.0
C1693 C 0.33533 0.13573 0.23914 0.0
C1694 C 0.32367 0.14072 0.25172 0.0
C1695 C 0.32338 0.13428 0.26929 0.0
C1696 C 0.3132 0.15457 0.24815 0.0
C1697 C 0.33566 0.14166 0.21978 0.0
C1698 C 0.32178 0.17356 0.24738 0.0
C1699 C 0.3124 0.18762 0.2472 0.0
C1700 C 0.29428 0.18293 0.24787 0.0
C1701 C 0.28553 0.16374 0.24772 0.0
C1702 C 0.29498 0.14965 0.24802 0.0
H1703 H 0.34092 0.1318 0.20974 0.0
H1704 H 0.32238 0.14193 0.21347 0.0
H1705 H 0.34429 0.15634 0.22132 0.0
H1706 H 0.33587 0.17773 0.24786 0.0
H1707 H 0.31939 0.20232 0.24714 0.0
H1708 H 0.30913 0.12949 0.48866 0.0
H1709 H 0.33256 0.11245 0.4895 0.0
H1710 H 0.37101 0.16629 0.4949 0.0
H1711 H 0.34779 0.18344 0.49428 0.0
H1712 H 0.35891 0.11146 0.46512 0.0
H1713 H 0.38767 0.14309 0.54015 0.0
H1714 H 0.36618 0.14439 0.53046 0.0
H1715 H 0.38535 0.16039 0.52513 0.0
C1716 C 0.32257 0.1377 0.49004 0.0
C1717 C 0.32657 0.15785 0.49153 0.0
C1718 C 0.33594 0.12795 0.4905 0.0
C1719 C 0.35355 0.13814 0.49257 0.0
C1720 C 0.35755 0.15818 0.49369 0.0
H1721 H 0.45245 0.1041 0.50473 0.0
H1722 H 0.42996 0.12197 0.50049 0.0
C1723 C 0.34422 0.16794 0.49323 0.0
C1724 C 0.36775 0.12784 0.49345 0.0
H1725 H 0.40332 0.12413 0.52223 0.0
C1726 C 0.3686 0.11417 0.47762 0.0
C1727 C 0.38044 0.13149 0.50973 0.0
C1728 C 0.37985 0.14551 0.52742 0.0
C1729 C 0.38191 0.10422 0.47754 0.0
C1730 C 0.39451 0.10773 0.4939 0.0
C1731 C 0.39372 0.12149 0.50967 0.0
C1732 C 0.40823 0.0968 0.49528 0.0
C1733 C 0.38252 0.09028 0.4598 0.0
C1734 C 0.40351 0.07671 0.49377 0.0
C1735 C 0.41631 0.06646 0.49601 0.0
C1736 C 0.43416 0.07607 0.50008 0.0
C1737 C 0.43887 0.0962 0.50142 0.0
C1738 C 0.42602 0.10646 0.49912 0.0
H1739 H 0.37557 0.09354 0.44693 0.0
H1740 H 0.39622 0.09055 0.45735 0.0
H1741 H 0.37598 0.07549 0.46153 0.0
H1742 H 0.38987 0.06896 0.49119 0.0
H1743 H 0.41219 0.05096 0.49462 0.0
H1744 H 0.6775 0.59624 0.28483 0.0
H1745 H 0.69521 0.62727 0.28102 0.0
H1746 H 0.73758 0.60116 0.26842 0.0
H1747 H 0.71939 0.56959 0.27139 0.0
H1748 H 0.72253 0.65075 0.29856 0.0
H1749 H 0.73985 0.63046 0.22636 0.0
H1750 H 0.72408 0.61424 0.23669 0.0
H1751 H 0.74717 0.61669 0.24287 0.0
C1752 C 0.69056 0.5969 0.28112 0.0
C1753 C 0.69681 0.58003 0.27837 0.0
C1754 C 0.70081 0.61491 0.27896 0.0
C1755 C 0.7179 0.61705 0.27405 0.0
C1756 C 0.72435 0.60024 0.27158 0.0
H1757 H 0.80157 0.71864 0.2672 0.0
H1758 H 0.78364 0.68685 0.26912 0.0
C1759 C 0.71393 0.58204 0.27348 0.0
C1760 C 0.72876 0.63689 0.27212 0.0
H1761 H 0.75477 0.66159 0.24331 0.0
C1762 C 0.72941 0.65297 0.28632 0.0
C1763 C 0.73794 0.64039 0.25624 0.0
C1764 C 0.73711 0.62458 0.23958 0.0
C1765 C 0.73892 0.67187 0.28529 0.0
C1766 C 0.74824 0.67526 0.26958 0.0
C1767 C 0.74771 0.65926 0.25541 0.0
C1768 C 0.75905 0.69509 0.26796 0.0
C1769 C 0.73924 0.68808 0.30135 0.0
C1770 C 0.75146 0.71076 0.26632 0.0
C1771 C 0.76181 0.72916 0.26498 0.0
C1772 C 0.78012 0.73259 0.26546 0.0
C1773 C 0.78758 0.71681 0.26688 0.0
C1774 C 0.77727 0.69845 0.26798 0.0
H1775 H 0.73444 0.68271 0.31415 0.0
H1776 H 0.7527 0.69738 0.30551 0.0
H1777 H 0.73071 0.69712 0.29647 0.0
H1778 H 0.73745 0.70873 0.2659 0.0
H1779 H 0.75544 0.74063 0.26351 0.0
H1780 H 0.88681 0.49328 0.75051 0.0
H1781 H 0.87202 0.45907 0.74408 0.0
H1782 H 0.8761 0.45827 0.8046 0.0
H1783 H 0.89109 0.49247 0.81122 0.0
H1784 H 0.88693 0.42804 0.78228 0.0
H1785 H 0.82154 0.43495 0.75281 0.0
H1786 H 0.83975 0.44659 0.74201 0.0
H1787 H 0.83797 0.45509 0.76654 0.0
C1788 C 0.88449 0.48587 0.76247 0.0
C1789 C 0.89006 0.49559 0.78139 0.0
C1790 C 0.87598 0.46635 0.75876 0.0
C1791 C 0.87282 0.45627 0.77388 0.0
C1792 C 0.87839 0.46588 0.79276 0.0
H1793 H 0.82467 0.34471 0.79379 0.0
H1794 H 0.84134 0.37756 0.79473 0.0
C1795 C 0.88691 0.48541 0.7965 0.0
C1796 C 0.86405 0.43556 0.77006 0.0
H1797 H 0.82512 0.40346 0.75256 0.0
C1798 C 0.87343 0.42264 0.77573 0.0
C1799 C 0.84651 0.42862 0.76136 0.0
C1800 C 0.83576 0.442 0.75543 0.0
C1801 C 0.86563 0.40288 0.77315 0.0
C1802 C 0.84794 0.39601 0.76497 0.0
C1803 C 0.83871 0.40885 0.75879 0.0
C1804 C 0.8384 0.37581 0.76404 0.0
C1805 C 0.87637 0.38954 0.77922 0.0
C1806 C 0.83098 0.36406 0.74643 0.0
C1807 C 0.82132 0.3452 0.7458 0.0
C1808 C 0.81882 0.33792 0.76281 0.0
C1809 C 0.82634 0.3498 0.7804 0.0
C1810 C 0.83599 0.36856 0.78099 0.0
H1811 H 0.89061 0.39596 0.77991 0.0
H1812 H 0.87375 0.38676 0.79368 0.0
H1813 H 0.87289 0.37554 0.76925 0.0
H1814 H 0.83262 0.36951 0.73321 0.0
H1815 H 0.81569 0.33644 0.73202 0.0
H1816 H 0.09108 0.86632 0.10202 0.0
H1817 H 0.0907 0.8958 0.08912 0.0
H1818 H 0.03712 0.87139 0.06404 0.0
H1819 H 0.03731 0.84207 0.07693 0.0
H1820 H 0.08322 0.9016 0.05072 0.0
H1821 H 0.03544 0.92267 0.09655 0.0
H1822 H 0.04699 0.9047 0.10125 0.0
H1823 H 0.02823 0.8986 0.08325 0.0
C1824 C 0.07923 0.8672 0.09372 0.0
C1825 C 0.06418 0.85184 0.09066 0.0
C1826 C 0.07904 0.88406 0.08634 0.0
C1827 C 0.06379 0.88594 0.07589 0.0
C1828 C 0.04894 0.87044 0.07238 0.0
H1829 H 0.02602 0.96847 0.02014 0.0
H1830 H 0.03127 0.94071 0.03304 0.0
C1831 C 0.0491 0.85361 0.07971 0.0
C1832 C 0.06321 0.9041 0.06874 0.0
H1833 H 0.04117 0.93963 0.07084 0.0
C1834 C 0.07416 0.91005 0.05523 0.0
C1835 C 0.05143 0.91516 0.0747 0.0
C1836 C 0.03997 0.9101 0.08987 0.0
C1837 C 0.07312 0.9263 0.04696 0.0
C1838 C 0.06099 0.93705 0.05257 0.0
C1839 C 0.05039 0.93134 0.06644 0.0
C1840 C 0.05848 0.95379 0.04377 0.0
C1841 C 0.08453 0.9314 0.03177 0.0
C1842 C 0.07206 0.97047 0.04538 0.0
C1843 C 0.06911 0.98649 0.03792 0.0
C1844 C 0.05247 0.98619 0.02882 0.0
C1845 C 0.039 0.96933 0.02704 0.0
C1846 C 0.04197 0.95338 0.03445 0.0
H1847 H 0.09013 0.91932 0.026 0.0
H1848 H 0.07702 0.93544 0.01977 0.0
H1849 H 0.09553 0.94392 0.03804 0.0
H1850 H 0.08483 0.97129 0.05281 0.0
H1851 H 0.07977 0.99924 0.03965 0.0
H1852 H 0.96197 0.25087 0.84512 0.0
H1853 H 0.93524 0.25268 0.82596 0.0
H1854 H 0.91473 0.27158 0.87738 0.0
H1855 H 0.94137 0.27003 0.89658 0.0
H1856 H 0.90007 0.23395 0.82655 0.0
H1857 H 0.91045 0.31321 0.84561 0.0
H1858 H 0.92756 0.30111 0.85019 0.0
H1859 H 0.9109 0.301 0.86569 0.0
C1860 C 0.95176 0.25538 0.85236 0.0
C1861 C 0.95391 0.26042 0.8724 0.0
C1862 C 0.93649 0.25641 0.84138 0.0
C1863 C 0.92309 0.26261 0.8502 0.0
C1864 C 0.92502 0.26719 0.87021 0.0
H1865 H 0.82276 0.28104 0.80309 0.0
H1866 H 0.8475 0.27798 0.82494 0.0
C1867 C 0.94026 0.26616 0.88118 0.0
C1868 C 0.90707 0.26416 0.83848 0.0
H1869 H 0.88345 0.29606 0.82741 0.0
C1870 C 0.89646 0.24754 0.82672 0.0
C1871 C 0.90226 0.28188 0.83879 0.0
C1872 C 0.91344 0.30037 0.85061 0.0
C1873 C 0.88118 0.24812 0.81534 0.0
C1874 C 0.87652 0.26588 0.81542 0.0
C1875 C 0.88698 0.28245 0.82739 0.0
C1876 C 0.86139 0.2677 0.80241 0.0
C1877 C 0.87004 0.22963 0.80347 0.0
C1878 C 0.86109 0.26327 0.78254 0.0
C1879 C 0.84703 0.265 0.77015 0.0
C1880 C 0.83298 0.27131 0.77732 0.0
C1881 C 0.83335 0.27604 0.7972 0.0
C1882 C 0.84749 0.27431 0.80966 0.0
H1883 H 0.87238 0.21684 0.80915 0.0
H1884 H 0.85591 0.2293 0.80296 0.0
H1885 H 0.87337 0.2285 0.78865 0.0
H1886 H 0.87182 0.25858 0.77658 0.0
H1887 H 0.84718 0.26136 0.7549 0.0
H1888 H 0.58347 0.25844 0.59721 0.0
H1889 H 0.58079 0.22462 0.58404 0.0
H1890 H 0.52496 0.21594 0.57126 0.0
H1891 H 0.52746 0.24964 0.5848 0.0
H1892 H 0.53322 0.1887 0.58985 0.0
H1893 H 0.57241 0.19598 0.52971 0.0
H1894 H 0.58415 0.20915 0.55221 0.0
H1895 H 0.56523 0.21584 0.54208 0.0
C1896 C 0.57064 0.24942 0.59134 0.0
C1897 C 0.55568 0.2568 0.59207 0.0
C1898 C 0.56914 0.23007 0.58371 0.0
C1899 C 0.55269 0.21773 0.57641 0.0
C1900 C 0.53779 0.22517 0.57675 0.0
H1901 H 0.51561 0.09476 0.53117 0.0
H1902 H 0.51819 0.12918 0.54113 0.0
C1903 C 0.53926 0.24448 0.58446 0.0
C1904 C 0.55085 0.19683 0.56958 0.0
H1905 H 0.56486 0.16481 0.53822 0.0
C1906 C 0.54003 0.18349 0.57844 0.0
C1907 C 0.55978 0.18999 0.55474 0.0
C1908 C 0.57091 0.20347 0.544 0.0
C1909 C 0.53815 0.16359 0.57315 0.0
C1910 C 0.54719 0.15678 0.55844 0.0
C1911 C 0.55798 0.17007 0.54953 0.0
C1912 C 0.54566 0.1359 0.5522 0.0
C1913 C 0.52682 0.14999 0.58363 0.0
C1914 C 0.56031 0.12828 0.55482 0.0
C1915 C 0.5589 0.10858 0.54917 0.0
C1916 C 0.54281 0.09611 0.54062 0.0
C1917 C 0.52819 0.10387 0.53782 0.0
C1918 C 0.52961 0.12356 0.54355 0.0
H1919 H 0.52393 0.15759 0.59722 0.0
H1920 H 0.51421 0.14305 0.57447 0.0
H1921 H 0.53321 0.13848 0.58685 0.0
H1922 H 0.57283 0.13757 0.5614 0.0
H1923 H 0.57046 0.10317 0.55146 0.0
H1924 H 0.54292 0.76171 0.34995 0.0
H1925 H 0.56825 0.76435 0.33213 0.0
H1926 H 0.60285 0.78926 0.38444 0.0
H1927 H 0.57777 0.78686 0.4023 0.0
H1928 H 0.59722 0.80248 0.33432 0.0
H1929 H 0.61979 0.7408 0.35674 0.0
H1930 H 0.5973 0.74237 0.35626 0.0
H1931 H 0.6136 0.75712 0.37492 0.0
C1932 C 0.55592 0.76768 0.35766 0.0
C1933 C 0.55831 0.77406 0.37756 0.0
C1934 C 0.57036 0.76923 0.34746 0.0
C1935 C 0.58739 0.77691 0.35702 0.0
C1936 C 0.58981 0.78318 0.37684 0.0
H1937 H 0.69248 0.79038 0.32674 0.0
H1938 H 0.66657 0.78931 0.34307 0.0
C1939 C 0.57543 0.78182 0.387 0.0
C1940 C 0.60274 0.77868 0.34637 0.0
H1941 H 0.63814 0.76025 0.33935 0.0
C1942 C 0.60614 0.7932 0.33527 0.0
C1943 C 0.6144 0.76668 0.34787 0.0
C1944 C 0.61114 0.75075 0.35948 0.0
C1945 C 0.62114 0.79629 0.32589 0.0
C1946 C 0.6328 0.78417 0.32726 0.0
C1947 C 0.62927 0.76957 0.33831 0.0
C1948 C 0.64871 0.78628 0.31734 0.0
C1949 C 0.62461 0.81289 0.31514 0.0
C1950 C 0.6474 0.78509 0.29742 0.0
C1951 C 0.66227 0.78605 0.28806 0.0
C1952 C 0.6788 0.78789 0.29834 0.0
C1953 C 0.68008 0.78929 0.31834 0.0
C1954 C 0.66522 0.78848 0.3277 0.0
H1955 H 0.61771 0.82403 0.3203 0.0
H1956 H 0.63882 0.81976 0.31654 0.0
H1957 H 0.61976 0.80751 0.29977 0.0
H1958 H 0.6348 0.78298 0.28902 0.0
H1959 H 0.66074 0.78513 0.27269 0.0
H1960 H 0.05203 0.28974 0.41681 0.0
H1961 H 0.04966 0.26145 0.43215 0.0
H1962 H 0.09719 0.2523 0.41164 0.0
H1963 H 0.09985 0.28076 0.39647 0.0
H1964 H 0.04727 0.22331 0.41552 0.0
H1965 H 0.1066 0.2524 0.46903 0.0
H1966 H 0.09693 0.26749 0.45563 0.0
H1967 H 0.11025 0.25306 0.44464 0.0
C1968 C 0.06203 0.28176 0.4156 0.0
C1969 C 0.07619 0.28757 0.40553 0.0
C1970 C 0.06063 0.26559 0.42435 0.0
C1971 C 0.07338 0.25497 0.42324 0.0
C1972 C 0.08741 0.26054 0.41298 0.0
H1973 H 0.08377 0.15405 0.47223 0.0
H1974 H 0.08734 0.17996 0.45332 0.0
C1975 C 0.08885 0.27675 0.40425 0.0
C1976 C 0.07181 0.23793 0.43268 0.0
H1977 H 0.09169 0.21996 0.46783 0.0
C1978 C 0.05698 0.22255 0.42695 0.0
C1979 C 0.08454 0.237 0.44753 0.0
C1980 C 0.10042 0.25341 0.45473 0.0
C1981 C 0.05451 0.20624 0.43571 0.0
C1982 C 0.06711 0.20545 0.45074 0.0
C1983 C 0.08209 0.22065 0.45625 0.0
C1984 C 0.0646 0.18936 0.46153 0.0
C1985 C 0.03851 0.18993 0.42876 0.0
C1986 C 0.05071 0.18622 0.47246 0.0
C1987 C 0.04864 0.17148 0.48322 0.0
C1988 C 0.06046 0.15966 0.4833 0.0
C1989 C 0.07435 0.1628 0.47228 0.0
C1990 C 0.07646 0.17762 0.46156 0.0
H1991 H 0.03268 0.19047 0.41415 0.0
H1992 H 0.04172 0.17578 0.42869 0.0
H1993 H 0.02851 0.191 0.43852 0.0
H1994 H 0.04159 0.19533 0.47284 0.0
H1995 H 0.03772 0.16929 0.49143 0.0
H1996 H 0.53448 0.21796 0.19341 0.0
H1997 H 0.56385 0.22511 0.21069 0.0
H1998 H 0.56495 0.28561 0.22117 0.0
H1999 H 0.53572 0.27861 0.20329 0.0
H2000 H 0.59217 0.28009 0.2054 0.0
H2001 H 0.58667 0.2394 0.26479 0.0
H2002 H 0.57658 0.22379 0.24281 0.0
H2003 H 0.56777 0.24378 0.2517 0.0
C2004 C 0.54079 0.23274 0.19977 0.0
C2005 C 0.53287 0.24774 0.19684 0.0
C2006 C 0.55755 0.23681 0.20982 0.0
C2007 C 0.56654 0.25588 0.21746 0.0
C2008 C 0.55823 0.27078 0.21546 0.0
H2009 H 0.67578 0.27056 0.26758 0.0
H2010 H 0.64549 0.27372 0.26498 0.0
C2011 C 0.54155 0.26675 0.20521 0.0
C2012 C 0.58536 0.26038 0.22492 0.0
H2013 H 0.61503 0.24523 0.25277 0.0
C2014 C 0.59713 0.27281 0.2161 0.0
C2015 C 0.59192 0.25119 0.23912 0.0
C2016 C 0.58002 0.23897 0.25028 0.0
C2017 C 0.61522 0.27516 0.22005 0.0
C2018 C 0.62165 0.26442 0.23277 0.0
C2019 C 0.61002 0.25316 0.24272 0.0
C2020 C 0.6401 0.26327 0.23449 0.0
C2021 C 0.62723 0.28871 0.21013 0.0
C2022 C 0.64696 0.25617 0.21826 0.0
C2023 C 0.66419 0.25447 0.21966 0.0
C2024 C 0.67485 0.25964 0.23739 0.0
C2025 C 0.66793 0.26668 0.25369 0.0
C2026 C 0.65064 0.2684 0.25226 0.0
H2027 H 0.6212 0.30034 0.20642 0.0
H2028 H 0.63997 0.29535 0.21916 0.0
H2029 H 0.6297 0.28059 0.19661 0.0
H2030 H 0.63892 0.25174 0.20448 0.0
H2031 H 0.66917 0.24919 0.20681 0.0
H2032 H 0.55167 0.84587 0.92605 0.0
H2033 H 0.54942 0.87278 0.95013 0.0
H2034 H 0.58941 0.91108 0.92762 0.0
H2035 H 0.59185 0.88432 0.90355 0.0
H2036 H 0.57944 0.89971 0.97801 0.0
H2037 H 0.54456 0.93446 0.92748 0.0
H2038 H 0.54463 0.90929 0.92244 0.0
H2039 H 0.5637 0.92734 0.92035 0.0
C2040 C 0.55999 0.86001 0.92621 0.0
C2041 C 0.57189 0.86299 0.91285 0.0
C2042 C 0.55871 0.87532 0.94 0.0
C2043 C 0.56917 0.89384 0.94049 0.0
C2044 C 0.58115 0.89687 0.92731 0.0
H2045 H 0.5881 0.99966 0.02252 0.0
H2046 H 0.59117 0.97081 1.00158 0.0
C2047 C 0.58253 0.88156 0.91361 0.0
C2048 C 0.56748 0.91008 0.95471 0.0
H2049 H 0.55289 0.95113 0.95924 0.0
C2050 C 0.57363 0.91097 0.97397 0.0
C2051 C 0.5598 0.92459 0.94928 0.0
C2052 C 0.55266 0.92394 0.92879 0.0
C2053 C 0.57249 0.92626 0.988 0.0
C2054 C 0.56501 0.94089 0.98252 0.0
C2055 C 0.55868 0.93986 0.9633 0.0
C2056 C 0.56343 0.95736 0.99652 0.0
C2057 C 0.57908 0.92665 0.00859 0.0
C2058 C 0.54685 0.95913 1.00064 0.0
C2059 C 0.54508 0.97545 0.01263 0.0
C2060 C 0.55986 0.99035 0.02043 0.0
C2061 C 0.57652 0.98832 0.01672 0.0
C2062 C 0.57829 0.9719 1.0048 0.0
H2063 H 0.582 0.9128 0.01087 0.0
H2064 H 0.59124 0.93826 0.01301 0.0
H2065 H 0.56928 0.92984 0.01798 0.0
H2066 H 0.53525 0.94803 0.9943 0.0
H2067 H 0.5321 0.97666 0.01534 0.0
H2068 H 0.94362 0.71448 0.67716 0.0
H2069 H 0.91752 0.71385 0.69335 0.0
H2070 H 0.93233 0.77578 0.70802 0.0
H2071 H 0.95836 0.7766 0.69204 0.0
H2072 H 0.92264 0.75466 0.73912 0.0
H2073 H 0.87383 0.73256 0.6734 0.0
H2074 H 0.88973 0.71868 0.67663 0.0
H2075 H 0.89669 0.74288 0.67248 0.0
C2076 C 0.94129 0.72796 0.68379 0.0
C2077 C 0.95303 0.7456 0.68327 0.0
C2078 C 0.92638 0.72756 0.69299 0.0
C2079 C 0.92303 0.74477 0.70175 0.0
C2080 C 0.93475 0.76235 0.70132 0.0
H2081 H 0.85584 0.80142 0.75531 0.0
H2082 H 0.87973 0.78849 0.74434 0.0
C2083 C 0.94958 0.76278 0.69213 0.0
C2084 C 0.90734 0.74481 0.7114 0.0
H2085 H 0.86358 0.74135 0.7024 0.0
C2086 C 0.90966 0.75144 0.73118 0.0
C2087 C 0.89045 0.74037 0.70098 0.0
C2088 C 0.88739 0.73329 0.67968 0.0
C2089 C 0.89562 0.75472 0.74068 0.0
C2090 C 0.87897 0.75163 0.73003 0.0
C2091 C 0.87641 0.74376 0.71049 0.0
C2092 C 0.86475 0.75883 0.73825 0.0
C2093 C 0.89884 0.76202 0.76194 0.0
C2094 C 0.84832 0.74643 0.73822 0.0
C2095 C 0.83454 0.75381 0.74446 0.0
C2096 C 0.83697 0.77373 0.75052 0.0
C2097 C 0.85353 0.78602 0.75074 0.0
C2098 C 0.86726 0.77863 0.74464 0.0
H2099 H 0.91002 0.75745 0.76879 0.0
H2100 H 0.90212 0.77799 0.7646 0.0
H2101 H 0.88708 0.75681 0.76885 0.0
H2102 H 0.84612 0.73113 0.73309 0.0
H2103 H 0.82191 0.74399 0.744 0.0
H2104 H 0.1616 0.04705 0.84934 0.0
H2105 H 0.14442 0.04644 0.87592 0.0
H2106 H 0.10385 1.0008 0.84175 0.0
H2107 H 0.12137 1.00112 0.81487 0.0
H2108 H 0.11491 0.05411 0.88302 0.0
H2109 H 0.10633 0.97737 0.88854 0.0
H2110 H 0.12095 0.98879 0.87342 0.0
H2111 H 0.09781 0.9808 0.8655 0.0
C2112 C 0.14905 0.0367 0.84726 0.0
C2113 C 0.1432 0.02404 0.82952 0.0
C2114 C 0.13907 0.03643 0.86275 0.0
C2115 C 0.12264 0.02339 0.86155 0.0
C2116 C 0.11657 0.01079 0.84374 0.0
H2117 H 0.04294 1.00181 0.94025 0.0
H2118 H 0.06093 1.00226 0.91434 0.0
C2119 C 0.12663 0.01107 0.8281 0.0
C2120 C 0.11215 0.02349 0.87879 0.0
H2121 H 0.09047 0.99482 0.90794 0.0
C2122 C 0.10968 0.04105 0.88841 0.0
C2123 C 0.10509 1.00671 0.88642 0.0
C2124 C 0.1078 0.98738 0.8781 0.0
C2125 C 0.1003 0.04223 0.90456 0.0
C2126 C 0.09319 0.02544 0.91215 0.0
C2127 C 0.09572 0.00789 0.90257 0.0
C2128 C 0.08239 0.02545 0.92914 0.0
C2129 C 0.09759 0.06156 0.91288 0.0
C2130 C 0.08804 0.03811 0.947 0.0
C2131 C 0.07749 0.0379 0.96223 0.0
C2132 C 0.0609 0.02489 0.96031 0.0
C2133 C 0.05553 0.0121 0.94263 0.0
C2134 C 0.06597 0.01231 0.92755 0.0
H2135 H 0.09926 0.07165 0.90252 0.0
H2136 H 0.08435 0.06016 0.91733 0.0
H2137 H 0.10744 0.06803 0.92562 0.0
H2138 H 0.10072 0.0482 0.94929 0.0
H2139 H 0.08221 0.04815 0.97536 0.0
H2140 H 0.79946 0.39836 0.55857 0.0
H2141 H 0.80769 0.37788 0.58021 0.0
H2142 H 0.85439 0.37686 0.55373 0.0
H2143 H 0.84644 0.39773 0.53223 0.0
H2144 H 0.81185 0.34118 0.56783 0.0
H2145 H 0.87249 0.38841 0.61122 0.0
H2146 H 0.85729 0.39775 0.59719 0.0
H2147 H 0.8718 0.38539 0.58566 0.0
C2148 C 0.81158 0.39398 0.55749 0.0
C2149 C 0.82227 0.39958 0.54366 0.0
C2150 C 0.81627 0.3823 0.56985 0.0
C2151 C 0.83168 0.37597 0.56859 0.0
C2152 C 0.8426 0.38186 0.55511 0.0
H2153 H 0.83088 0.27983 0.63004 0.0
H2154 H 0.83917 0.29885 0.60515 0.0
C2155 C 0.83798 0.3937 0.54279 0.0
C2156 C 0.83546 0.36216 0.58064 0.0
H2157 H 0.8625 0.3576 0.6188 0.0
C2158 C 0.82303 0.3446 0.57883 0.0
C2159 C 0.85013 0.36676 0.59484 0.0
C2160 C 0.86368 0.38564 0.59752 0.0
C2161 C 0.82424 0.33197 0.59163 0.0
C2162 C 0.83864 0.33679 0.60628 0.0
C2163 C 0.85161 0.35388 0.60741 0.0
C2164 C 0.8387 0.32599 0.62227 0.0
C2165 C 0.8094 0.3143 0.59014 0.0
C2166 C 0.83712 0.33521 0.64051 0.0
C2167 C 0.83269 0.32448 0.65475 0.0
C2168 C 0.82967 0.30434 0.65091 0.0
C2169 C 0.83289 0.29532 0.63322 0.0
C2170 C 0.83758 0.30614 0.61903 0.0
H2171 H 0.7979 0.31461 0.58013 0.0
H2172 H 0.81389 0.30128 0.58482 0.0
H2173 H 0.80508 0.31293 0.60435 0.0
H2174 H 0.83796 0.35053 0.64332 0.0
H2175 H 0.83021 0.33182 0.66822 0.0
H2176 H 0.41763 0.03996 0.37345 0.0
H2177 H 0.43857 0.04696 0.40236 0.0
H2178 H 0.46863 0.09634 0.38291 0.0
H2179 H 0.44798 0.08908 0.35365 0.0
H2180 H 0.48814 0.07285 0.39044 0.0
H2181 H 0.45166 0.08441 0.45167 0.0
H2182 H 0.44066 0.06261 0.43572 0.0
H2183 H 0.44299 0.08534 0.42761 0.0
C2184 C 0.42844 0.05259 0.37554 0.0
C2185 C 0.43129 0.06383 0.36118 0.0
C2186 C 0.44034 0.0567 0.39218 0.0
C2187 C 0.45508 0.07231 0.39491 0.0
C2188 C 0.45731 0.08427 0.38112 0.0
H2189 H 0.54588 0.08345 0.48175 0.0
H2190 H 0.52579 0.09335 0.45906 0.0
C2191 C 0.44553 0.08006 0.36439 0.0
C2192 C 0.46941 0.07417 0.41044 0.0
H2193 H 0.47749 0.07195 0.45771 0.0
C2194 C 0.48595 0.07325 0.40526 0.0
C2195 C 0.46656 0.07469 0.42978 0.0
C2196 C 0.44954 0.07703 0.43652 0.0
C2197 C 0.49929 0.07145 0.41864 0.0
C2198 C 0.49597 0.07055 0.43758 0.0
C2199 C 0.47986 0.0726 0.44308 0.0
C2200 C 0.50823 0.06503 0.45115 0.0
C2201 C 0.51649 0.06926 0.41227 0.0
C2202 C 0.50497 0.04586 0.45385 0.0
C2203 C 0.51642 0.04018 0.4665 0.0
C2204 C 0.53116 0.05364 0.47679 0.0
C2205 C 0.53459 0.07282 0.47388 0.0
C2206 C 0.52313 0.0785 0.4611 0.0
H2207 H 0.51707 0.07047 0.39699 0.0
H2208 H 0.52739 0.08048 0.42112 0.0
H2209 H 0.51856 0.05503 0.41441 0.0
H2210 H 0.49357 0.0353 0.44612 0.0
H2211 H 0.51365 0.02527 0.46835 0.0
H2212 H 0.74618 0.70827 0.04272 0.0
H2213 H 0.74956 0.72298 0.07641 0.0
H2214 H 0.80441 0.72379 0.08166 0.0
H2215 H 0.8012 0.70916 0.0479 0.0
H2216 H 0.76126 0.7073 0.10773 0.0
H2217 H 0.80401 0.77907 0.10575 0.0
H2218 H 0.79172 0.76326 0.08451 0.0
H2219 H 0.81164 0.75895 0.09503 0.0
C2220 C 0.75902 0.71176 0.05095 0.0
C2221 C 0.77343 0.70755 0.04256 0.0
C2222 C 0.76091 0.72014 0.07023 0.0
C2223 C 0.77726 0.72467 0.08151 0.0
C2224 C 0.79173 0.72073 0.07315 0.0
H2225 H 0.81498 0.76977 0.20126 0.0
H2226 H 0.81158 0.75738 0.16704 0.0
C2227 C 0.78985 0.71228 0.05386 0.0
C2228 C 0.77895 0.73261 0.10221 0.0
H2229 H 0.79936 0.77156 0.13637 0.0
C2230 C 0.76951 0.72139 0.114 0.0
C2231 C 0.78978 0.75095 0.11035 0.0
C2232 C 0.79978 0.76387 0.09827 0.0
C2233 C 0.77087 0.72785 0.13378 0.0
C2234 C 0.78166 0.74625 0.14194 0.0
C2235 C 0.79107 0.75748 0.13012 0.0
C2236 C 0.78356 0.75398 0.16274 0.0
C2237 C 0.76111 0.71468 0.14581 0.0
C2238 C 0.76897 0.75647 0.17172 0.0
C2239 C 0.77084 0.76347 0.19136 0.0
C2240 C 0.78739 0.76834 0.20242 0.0
C2241 C 0.80202 0.76616 0.19327 0.0
C2242 C 0.80012 0.75908 0.17366 0.0
H2243 H 0.75744 0.69944 0.13841 0.0
H2244 H 0.76907 0.71562 0.15972 0.0
H2245 H 0.74889 0.71899 0.1487 0.0
H2246 H 0.75612 0.75306 0.16351 0.0
H2247 H 0.7593 0.7651 0.19784 0.0
H2248 H 0.10441 0.01575 0.72589 0.0
H2249 H 0.09236 0.01824 0.69396 0.0
H2250 H 0.14271 0.02039 0.67484 0.0
H2251 H 0.15475 0.01722 0.70692 0.0
H2252 H 0.09662 0.04403 0.67341 0.0
H2253 H 0.115 0.98343 0.63048 0.0
H2254 H 0.11749 0.98713 0.65622 0.0
H2255 H 0.13367 1.00063 0.64401 0.0
C2256 C 0.11301 0.0165 0.71492 0.0
C2257 C 0.13069 0.01608 0.71936 0.0
C2258 C 0.10601 0.01804 0.69643 0.0
C2259 C 0.1163 0.0193 0.68131 0.0
C2260 C 0.13404 0.0189 0.68568 0.0
H2261 H 0.07949 0.06416 0.5788 0.0
H2262 H 0.09351 0.06032 0.60948 0.0
C2263 C 0.14106 0.01718 0.70427 0.0
C2264 C 0.10841 0.02169 0.66156 0.0
H2265 H 0.10377 1.00454 0.61312 0.0
C2266 C 0.09826 0.03529 0.66031 0.0
C2267 C 0.10999 0.01028 0.64401 0.0
C2268 C 0.11946 0.99441 0.64369 0.0
C2269 C 0.08998 0.03785 0.64264 0.0
C2270 C 0.0921 0.02697 0.62504 0.0
C2271 C 0.1021 0.01321 0.62625 0.0
C2272 C 0.08384 0.02935 0.60546 0.0
C2273 C 0.07846 0.05183 0.64327 0.0
C2274 C 0.07409 0.01333 0.59189 0.0
C2275 C 0.06619 0.01551 0.57393 0.0
C2276 C 0.06768 0.03383 0.56868 0.0
C2277 C 0.07769 0.0498 0.58211 0.0
C2278 C 0.08569 0.0476 0.59998 0.0
H2279 H 0.07356 0.05402 0.65733 0.0
H2280 H 0.08618 0.06601 0.64113 0.0
H2281 H 0.06703 0.04679 0.63196 0.0
H2282 H 0.07234 0.999 0.59527 0.0
H2283 H 0.05874 1.00273 0.5642 0.0
H2284 H 0.77396 0.37651 0.45922 0.0
H2285 H 0.77051 0.35073 0.43178 0.0
H2286 H 0.82323 0.37435 0.4214 0.0
H2287 H 0.82692 0.4 0.44895 0.0
H2288 H 0.77266 0.35544 0.39483 0.0
H2289 H 0.82185 0.31737 0.41821 0.0
H2290 H 0.81405 0.33405 0.43462 0.0
H2291 H 0.83084 0.34279 0.4205 0.0
C2292 C 0.78487 0.37615 0.45118 0.0
C2293 C 0.80072 0.39031 0.45623 0.0
C2294 C 0.78289 0.36137 0.43557 0.0
C2295 C 0.79673 0.36044 0.42483 0.0
C2296 C 0.81256 0.37453 0.42983 0.0
H2297 H 0.8015 0.32282 0.30936 0.0
H2298 H 0.80326 0.33831 0.3425 0.0
C2299 C 0.81456 0.3893 0.44545 0.0
C2300 C 0.79419 0.3458 0.40738 0.0
H2301 H 0.81249 0.31203 0.38422 0.0
C2302 C 0.78115 0.34569 0.39265 0.0
C2303 C 0.80515 0.33294 0.40467 0.0
C2304 C 0.81864 0.33162 0.42043 0.0
C2305 C 0.77948 0.33388 0.37485 0.0
C2306 C 0.79125 0.32209 0.37171 0.0
C2307 C 0.80362 0.32129 0.38672 0.0
C2308 C 0.79186 0.31203 0.35238 0.0
C2309 C 0.76553 0.33459 0.35926 0.0
C2310 C 0.7854 0.29204 0.34726 0.0
C2311 C 0.78439 0.28309 0.32826 0.0
C2312 C 0.78988 0.29412 0.31434 0.0
C2313 C 0.79712 0.31399 0.31979 0.0
C2314 C 0.79811 0.32286 0.33868 0.0
H2315 H 0.75513 0.34086 0.3651 0.0
H2316 H 0.77158 0.34366 0.34925 0.0
H2317 H 0.75944 0.31996 0.35099 0.0
H2318 H 0.78058 0.28352 0.35777 0.0
H2319 H 0.77879 0.26773 0.32437 0.0
H2320 H 0.44644 0.07079 0.25621 0.0
H2321 H 0.46574 0.07233 0.23146 0.0
H2322 H 0.48965 0.03071 0.25335 0.0
H2323 H 0.47037 0.02907 0.27839 0.0
H2324 H 0.5136 0.06428 0.24412 0.0
H2325 H 0.46029 0.02791 0.18532 0.0
H2326 H 0.45556 0.04761 0.20066 0.0
H2327 H 0.4582 0.02664 0.21011 0.0
C2328 C 0.45583 0.06198 0.25585 0.0
C2329 C 0.4568 0.04969 0.26918 0.0
C2330 C 0.46678 0.06284 0.24165 0.0
C2331 C 0.47886 0.05141 0.24046 0.0
C2332 C 0.48028 0.03953 0.25403 0.0
H2333 H 0.55142 0.04582 0.15522 0.0
H2334 H 0.53671 0.04116 0.1835 0.0
C2335 C 0.46927 0.03862 0.26828 0.0
C2336 C 0.48982 0.0519 0.22484 0.0
H2337 H 0.48705 0.04462 0.17625 0.0
C2338 C 0.50791 0.05976 0.22927 0.0
C2339 C 0.48226 0.04583 0.20554 0.0
C2340 C 0.46303 0.03635 0.20007 0.0
C2341 C 0.51855 0.06266 0.21476 0.0
C2342 C 0.51082 0.05739 0.19548 0.0
C2343 C 0.49285 0.04882 0.19109 0.0
C2344 C 0.52089 0.06133 0.17953 0.0
C2345 C 0.53779 0.07203 0.22008 0.0
C2346 C 0.51684 0.07424 0.16806 0.0
C2347 C 0.52521 0.07697 0.15199 0.0
C2348 C 0.5377 0.06672 0.14704 0.0
C2349 C 0.54204 0.05413 0.15884 0.0
C2350 C 0.53365 0.05142 0.17496 0.0
H2351 H 0.54116 0.07809 0.23558 0.0
H2352 H 0.54541 0.06117 0.21652 0.0
H2353 H 0.5419 0.08372 0.2118 0.0
H2354 H 0.50699 0.082 0.17142 0.0
H2355 H 0.52174 0.08692 0.14329 0.0
H2356 H 0.7553 0.72286 0.94665 0.0
H2357 H 0.76001 0.73764 0.91826 0.0
H2358 H 0.80387 0.71264 0.91026 0.0
H2359 H 0.7993 0.69781 0.93862 0.0
H2360 H 0.79128 0.76362 0.91092 0.0
H2361 H 0.77182 0.69563 0.85785 0.0
H2362 H 0.76612 0.69719 0.88188 0.0
H2363 H 0.78789 0.69609 0.87754 0.0
C2364 C 0.76596 0.7205 0.93887 0.0
C2365 C 0.77688 0.70908 0.9449 0.0
C2366 C 0.76863 0.72897 0.92265 0.0
C2367 C 0.78214 0.72602 0.91201 0.0
C2368 C 0.7932 0.71485 0.91809 0.0
H2369 H 0.82625 0.78897 0.82617 0.0
H2370 H 0.82136 0.77294 0.85379 0.0
C2371 C 0.79061 0.70647 0.93438 0.0
C2372 C 0.78479 0.73487 0.89469 0.0
H2373 H 0.78367 0.72416 0.84621 0.0
C2374 C 0.78961 0.75501 0.89677 0.0
C2375 C 0.78242 0.72359 0.87622 0.0
C2376 C 0.77664 0.70192 0.8731 0.0
C2377 C 0.79242 0.76417 0.88091 0.0
C2378 C 0.79044 0.75289 0.8625 0.0
C2379 C 0.78532 0.73276 0.86036 0.0
C2380 C 0.79351 0.76182 0.84531 0.0
C2381 C 0.7973 0.78587 0.8839 0.0
C2382 C 0.77955 0.76048 0.83115 0.0
C2383 C 0.7823 0.76968 0.81538 0.0
C2384 C 0.7991 0.78021 0.81343 0.0
C2385 C 0.81315 0.78103 0.82734 0.0
C2386 C 0.81037 0.77195 0.84315 0.0
H2387 H 0.79483 0.79239 0.89818 0.0
H2388 H 0.81144 0.79095 0.8828 0.0
H2389 H 0.78986 0.79111 0.87274 0.0
H2390 H 0.76645 0.75267 0.83252 0.0
H2391 H 0.77123 0.76882 0.8049 0.0
H2392 H 0.84778 0.12629 0.0312 0.0
H2393 H 0.86841 0.10602 0.03257 0.0
H2394 H 0.83298 0.06733 0.05996 0.0
H2395 H 0.81189 0.08722 0.05795 0.0
H2396 H 0.88552 0.09475 0.06118 0.0
H2397 H 0.84016 0.03117 0.01448 0.0
H2398 H 0.83556 0.05459 0.01804 0.0
H2399 H 0.83227 0.03974 0.03609 0.0
C2400 C 0.84439 0.11353 0.03761 0.0
C2401 C 0.82814 0.1082 0.04426 0.0
C2402 C 0.85621 0.10197 0.03842 0.0
C2403 C 0.85208 0.08498 0.04605 0.0
C2404 C 0.83622 0.08011 0.05357 0.0
H2405 H 0.93801 0.02615 0.05262 0.0
H2406 H 0.91407 0.03986 0.063 0.0
C2407 C 0.82424 0.09154 0.0525 0.0
C2408 C 0.86426 0.07221 0.04534 0.0
H2409 H 0.86824 0.02806 0.0247 0.0
C2410 C 0.88174 0.08009 0.05339 0.0
C2411 C 0.85924 0.05313 0.03504 0.0
C2412 C 0.84084 0.04416 0.02527 0.0
C2413 C 0.89456 0.06977 0.05064 0.0
C2414 C 0.88958 0.05078 0.04011 0.0
C2415 C 0.87195 0.04257 0.03287 0.0
C2416 C 0.90271 0.04018 0.0343 0.0
C2417 C 0.91342 0.07976 0.05799 0.0
C2418 C 0.90366 0.03487 0.01477 0.0
C2419 C 0.91706 0.02676 0.00886 0.0
C2420 C 0.92981 0.02393 0.02239 0.0
C2421 C 0.92842 0.02842 0.04195 0.0
C2422 C 0.91483 0.03631 0.04787 0.0
H2423 H 0.91535 0.09557 0.06214 0.0
H2424 H 0.91759 0.07414 0.07082 0.0
H2425 H 0.92207 0.07703 0.04704 0.0
H2426 H 0.89444 0.03773 1.00406 0.0
H2427 H 0.91794 0.0236 0.99371 0.0
H2428 H 0.37767 0.41049 0.03592 0.0
H2429 H 0.40683 0.43106 0.03662 0.0
H2430 H 0.38628 0.48142 0.04638 0.0
H2431 H 0.35686 0.46086 0.0454 0.0
H2432 H 0.40738 0.48236 0.01793 0.0
H2433 H 0.44062 0.4641 0.08184 0.0
H2434 H 0.42971 0.44329 0.0644 0.0
H2435 H 0.4171 0.45815 0.0762 0.0
C2436 C 0.37932 0.42595 0.03838 0.0
C2437 C 0.3649 0.43402 0.04064 0.0
C2438 C 0.39606 0.4377 0.03891 0.0
C2439 C 0.39881 0.4578 0.04187 0.0
C2440 C 0.38447 0.46594 0.0442 0.0
H2441 H 0.5019 0.53849 0.06098 0.0
H2442 H 0.47276 0.51979 0.06459 0.0
C2443 C 0.36768 0.45417 0.04366 0.0
C2444 C 0.41649 0.47018 0.04148 0.0
H2445 H 0.45914 0.4804 0.06168 0.0
C2446 C 0.41867 0.48206 0.0276 0.0
C2447 C 0.43119 0.46995 0.05424 0.0
C2448 C 0.42955 0.45834 0.07014 0.0
C2449 C 0.43521 0.49327 0.02577 0.0
C2450 C 0.45004 0.49232 0.03793 0.0
C2451 C 0.4478 0.48091 0.05219 0.0
C2452 C 0.46797 0.50307 0.03601 0.0
C2453 C 0.43663 0.50614 0.01091 0.0
C2454 C 0.47513 0.49955 0.01892 0.0
C2455 C 0.49171 0.51024 0.01683 0.0
C2456 C 0.50152 0.52453 0.03184 0.0
C2457 C 0.49459 0.52762 0.04915 0.0
C2458 C 0.47797 0.51694 0.05123 0.0
H2459 H 0.42387 0.50926 0.00657 0.0
H2460 H 0.44644 0.51998 0.01628 0.0
H2461 H 0.44083 0.49884 0.998 0.0
H2462 H 0.46782 0.48863 0.00714 0.0
H2463 H 0.49672 0.50753 1.00333 0.0
H2464 H 0.37215 0.59691 0.75236 0.0
H2465 H 0.35521 0.62178 0.75345 0.0
H2466 H 0.4032 0.666 0.76317 0.0
H2467 H 0.4199 0.64163 0.76183 0.0
H2468 H 0.35181 0.65194 0.77975 0.0
H2469 H 0.37961 0.68491 0.72108 0.0
H2470 H 0.38312 0.66232 0.72609 0.0
H2471 H 0.39637 0.68475 0.73967 0.0
C2472 C 0.37915 0.6119 0.75461 0.0
C2473 C 0.39769 0.61679 0.75681 0.0
C2474 C 0.36936 0.62632 0.75528 0.0
C2475 C 0.3776 0.64629 0.75795 0.0
C2476 C 0.39607 0.65103 0.76047 0.0
H2477 H 0.34734 0.75903 0.76726 0.0
H2478 H 0.3624 0.73277 0.76572 0.0
C2479 C 0.40577 0.63678 0.75984 0.0
C2480 C 0.3673 0.66216 0.75849 0.0
H2481 H 0.36411 0.70317 0.74048 0.0
C2482 C 0.35448 0.66297 0.77096 0.0
C2483 C 0.37042 0.67709 0.7473 0.0
C2484 C 0.38299 0.67717 0.73265 0.0
C2485 C 0.34542 0.67804 0.77292 0.0
C2486 C 0.34863 0.69304 0.76179 0.0
C2487 C 0.36136 0.69212 0.74924 0.0
C2488 C 0.33907 0.7096 0.76289 0.0
C2489 C 0.33293 0.67803 0.78765 0.0
C2490 C 0.32062 0.70616 0.76155 0.0
C2491 C 0.3119 0.72137 0.76251 0.0
C2492 C 0.32109 0.74094 0.76468 0.0
C2493 C 0.33953 0.74441 0.76572 0.0
C2494 C 0.34827 0.72916 0.76478 0.0
H2495 H 0.33612 0.66996 0.79901 0.0
H2496 H 0.33313 0.69289 0.79448 0.0
H2497 H 0.31947 0.67083 0.78062 0.0
H2498 H 0.31274 0.69153 0.75944 0.0
H2499 H 0.29776 0.71768 0.76139 0.0
H2500 H 0.23324 0.57652 0.50467 0.0
H2501 H 0.20203 0.56109 0.49729 0.0
H2502 H 0.19661 0.57099 0.55728 0.0
H2503 H 0.22792 0.58633 0.56486 0.0
H2504 H 0.17401 0.53445 0.5332 0.0
H2505 H 0.17221 0.6023 0.50602 0.0
H2506 H 0.18677 0.58878 0.49622 0.0
H2507 H 0.19094 0.59986 0.52097 0.0
C2508 C 0.22551 0.57492 0.51635 0.0
C2509 C 0.23288 0.58296 0.53531 0.0
C2510 C 0.20772 0.56608 0.51209 0.0
C2511 C 0.1971 0.56527 0.52673 0.0
C2512 C 0.2047 0.57157 0.54583 0.0
H2513 H 0.09474 0.57376 0.5398 0.0
H2514 H 0.12597 0.57673 0.53897 0.0
C2515 C 0.22255 0.58032 0.55013 0.0
C2516 C 0.17797 0.56086 0.52203 0.0
H2517 H 0.14535 0.58038 0.50568 0.0
C2518 C 0.16768 0.54429 0.52694 0.0
C2519 C 0.1699 0.57395 0.51404 0.0
C2520 C 0.18045 0.59231 0.50909 0.0
C2521 C 0.14937 0.54064 0.52439 0.0
C2522 C 0.14136 0.55392 0.51673 0.0
C2523 C 0.15165 0.57021 0.51139 0.0
C2524 C 0.12247 0.55234 0.51619 0.0
C2525 C 0.13869 0.52314 0.53066 0.0
C2526 C 0.11029 0.53792 0.50328 0.0
C2527 C 0.0924 0.53624 0.50362 0.0
C2528 C 0.08655 0.54894 0.51695 0.0
C2529 C 0.09885 0.56372 0.52943 0.0
C2530 C 0.11667 0.56544 0.52899 0.0
H2531 H 0.14702 0.51533 0.53813 0.0
H2532 H 0.12949 0.52738 0.54034 0.0
H2533 H 0.13079 0.51313 0.51797 0.0
H2534 H 0.11463 0.52784 0.49317 0.0
H2535 H 0.0832 0.52466 0.49387 0.0
H2536 H 0.66793 0.98426 0.81032 0.0
H2537 H 0.68655 0.9644 0.82168 0.0
H2538 H 0.70059 0.9521 0.76498 0.0
H2539 H 0.68185 0.97157 0.75343 0.0
H2540 H 0.69405 0.92001 0.78347 0.0
H2541 H 0.74011 0.98399 0.82918 0.0
H2542 H 0.71762 0.97928 0.83341 0.0
H2543 H 0.72341 0.98621 0.81128 0.0
C2544 C 0.67485 0.97717 0.80024 0.0
C2545 C 0.67359 0.97967 0.78102 0.0
C2546 C 0.68551 0.96589 0.80677 0.0
C2547 C 0.69513 0.95707 0.79422 0.0
C2548 C 0.69329 0.95885 0.77489 0.0
H2549 H 0.79086 0.92832 0.79531 0.0
H2550 H 0.76621 0.94309 0.79777 0.0
C2551 C 0.68261 0.97004 0.76834 0.0
C2552 C 0.70795 0.94685 0.80114 0.0
H2553 H 0.74846 0.95482 0.82629 0.0
C2554 C 0.70584 0.92746 0.79308 0.0
C2555 C 0.72328 0.95674 0.81366 0.0
C2556 C 0.7264 0.97773 0.82234 0.0
C2557 C 0.71912 0.91795 0.79632 0.0
C2558 C 0.73477 0.92809 0.80825 0.0
C2559 C 0.73643 0.94713 0.81719 0.0
C2560 C 0.75039 0.92015 0.80945 0.0
C2561 C 0.71669 0.89758 0.78595 0.0
C2562 C 0.74996 0.90275 0.81594 0.0
C2563 C 0.76391 0.89405 0.81417 0.0
C2564 C 0.77863 0.90277 0.80611 0.0
C2565 C 0.77956 0.92097 0.80109 0.0
C2566 C 0.76554 0.92952 0.80267 0.0
H2567 H 0.70535 0.89329 0.77448 0.0
H2568 H 0.72858 0.89582 0.77947 0.0
H2569 H 0.71431 0.88756 0.79627 0.0
H2570 H 0.73856 0.89554 0.82165 0.0
H2571 H 0.76268 0.88001 0.81815 0.0
H2572 H 0.73936 0.90231 0.50785 0.0
H2573 H 0.71577 0.91886 0.50927 0.0
H2574 H 0.75048 0.96772 0.54653 0.0
H2575 H 0.77422 0.9511 0.54543 0.0
H2576 H 0.71778 0.95697 0.55878 0.0
H2577 H 0.71075 0.96341 0.48219 0.0
H2578 H 0.70922 0.9392 0.48603 0.0
H2579 H 0.72943 0.95717 0.49369 0.0
C2580 C 0.74205 0.91661 0.51631 0.0
C2581 C 0.75874 0.92542 0.52643 0.0
C2582 C 0.72854 0.92609 0.51703 0.0
C2583 C 0.73143 0.94466 0.52773 0.0
C2584 C 0.748 0.95343 0.53808 0.0
H2585 H 0.66205 0.02099 0.51797 0.0
H2586 H 0.68667 1.00589 0.51824 0.0
C2587 C 0.76155 0.94393 0.5374 0.0
C2588 C 0.71706 0.95474 0.52828 0.0
H2589 H 0.68826 0.97055 0.49985 0.0
C2590 C 0.71137 0.96003 0.54592 0.0
C2591 C 0.70884 0.95894 0.51152 0.0
C2592 C 0.71496 0.95457 0.4923 0.0
C2593 C 0.69745 0.96905 0.54718 0.0
C2594 C 0.68881 0.97259 0.53031 0.0
C2595 C 0.69474 0.96764 0.51274 0.0
C2596 C 0.67382 0.98176 0.53055 0.0
C2597 C 0.6923 0.97498 0.5666 0.0
C2598 C 0.65829 0.97313 0.5372 0.0
C2599 C 0.64413 0.98171 0.53701 0.0
C2600 C 0.64514 0.999 0.52996 0.0
C2601 C 0.6607 0.00753 0.52322 0.0
C2602 C 0.67484 0.99897 0.52347 0.0
H2603 H 0.70296 0.97597 0.57825 0.0
H2604 H 0.68885 0.98909 0.56771 0.0
H2605 H 0.68068 0.96407 0.56884 0.0
H2606 H 0.65704 0.95961 0.54232 0.0
H2607 H 0.63227 0.97464 0.54207 0.0
H2608 H 0.41412 0.48268 0.75267 0.0
H2609 H 0.3958 0.45124 0.75445 0.0
H2610 H 0.35054 0.47483 0.75441 0.0
H2611 H 0.36898 0.50664 0.75237 0.0
H2612 H 0.37675 0.43768 0.78042 0.0
H2613 H 0.33136 0.42787 0.71395 0.0
H2614 H 0.3511 0.44694 0.71966 0.0
H2615 H 0.33189 0.44925 0.73055 0.0
C2616 C 0.40024 0.48136 0.75292 0.0
C2617 C 0.39321 0.49758 0.75222 0.0
C2618 C 0.38968 0.46313 0.75401 0.0
C2619 C 0.37151 0.4601 0.75431 0.0
C2620 C 0.36437 0.47629 0.75376 0.0
H2621 H 0.28714 0.35858 0.75959 0.0
H2622 H 0.30541 0.39027 0.75829 0.0
C2623 C 0.37501 0.49468 0.7527 0.0
C2624 C 0.36045 0.44016 0.75555 0.0
H2625 H 0.3247 0.40433 0.7336 0.0
C2626 C 0.3654 0.43045 0.77009 0.0
C2627 C 0.34552 0.43027 0.74221 0.0
C2628 C 0.3397 0.43899 0.7256 0.0
C2629 C 0.35587 0.41176 0.77189 0.0
C2630 C 0.34096 0.40183 0.75851 0.0
C2631 C 0.33602 0.41156 0.74396 0.0
C2632 C 0.32993 0.38182 0.75964 0.0
C2633 C 0.36164 0.40315 0.7886 0.0
C2634 C 0.33721 0.3658 0.76076 0.0
C2635 C 0.3266 0.34735 0.76165 0.0
C2636 C 0.30831 0.34424 0.76127 0.0
C2637 C 0.30112 0.36021 0.75999 0.0
C2638 C 0.31165 0.37853 0.75917 0.0
H2639 H 0.36968 0.41438 0.80036 0.0
H2640 H 0.35024 0.39494 0.79433 0.0
H2641 H 0.36978 0.39318 0.78385 0.0
H2642 H 0.35112 0.36741 0.76065 0.0
H2643 H 0.3327 0.33549 0.76241 0.0
H2644 H 0.2045 0.5597 0.23193 0.0
H2645 H 0.22429 0.59179 0.23673 0.0
H2646 H 0.18009 0.61729 0.23772 0.0
H2647 H 0.16024 0.58536 0.23245 0.0
H2648 H 0.20352 0.63368 0.2164 0.0
H2649 H 0.23718 0.62969 0.28683 0.0
H2650 H 0.23815 0.6106 0.26809 0.0
H2651 H 0.21738 0.61236 0.2755 0.0
C2652 C 0.199 0.57214 0.23303 0.0
C2653 C 0.18081 0.57 0.2319 0.0
C2654 C 0.21033 0.59046 0.23597 0.0
C2655 C 0.20366 0.6069 0.23805 0.0
C2656 C 0.1855 0.60477 0.23632 0.0
H2657 H 0.25883 0.7263 0.28079 0.0
H2658 H 0.2415 0.69304 0.27782 0.0
C2659 C 0.17417 0.5865 0.23325 0.0
C2660 C 0.2155 0.6264 0.24169 0.0
H2661 H 0.24911 0.65681 0.27284 0.0
C2662 C 0.21347 0.63875 0.22876 0.0
C2663 C 0.22824 0.63306 0.25802 0.0
C2664 C 0.23029 0.62082 0.27302 0.0
C2665 C 0.22398 0.65753 0.23154 0.0
C2666 C 0.23722 0.66393 0.24742 0.0
C2667 C 0.23909 0.65173 0.26056 0.0
C2668 C 0.2492 0.68328 0.25045 0.0
C2669 C 0.2206 0.67044 0.2176 0.0
C2670 C 0.25978 0.68848 0.23647 0.0
C2671 C 0.26946 0.70738 0.23801 0.0
C2672 C 0.26897 0.72136 0.25375 0.0
C2673 C 0.25936 0.71584 0.26846 0.0
C2674 C 0.24947 0.69689 0.26678 0.0
H2675 H 0.20718 0.66536 0.20968 0.0
H2676 H 0.22234 0.68548 0.22503 0.0
H2677 H 0.22999 0.67043 0.20698 0.0
H2678 H 0.26011 0.67804 0.22403 0.0
H2679 H 0.27702 0.71112 0.22662 0.0
H2680 H 0.49178 0.70686 0.41837 0.0
H2681 H 0.49195 0.67815 0.43272 0.0
H2682 H 0.5415 0.70732 0.46625 0.0
H2683 H 0.54126 0.73603 0.45238 0.0
H2684 H 0.51505 0.6556 0.43128 0.0
H2685 H 0.51453 0.68657 0.50682 0.0
H2686 H 0.50977 0.69874 0.48743 0.0
H2687 H 0.53208 0.70021 0.49662 0.0
C2688 C 0.50261 0.70723 0.42897 0.0
C2689 C 0.51645 0.72385 0.43428 0.0
C2690 C 0.50271 0.69078 0.43714 0.0
C2691 C 0.51658 0.69062 0.45087 0.0
C2692 C 0.5304 0.70719 0.45612 0.0
H2693 H 0.55693 0.60988 0.50736 0.0
H2694 H 0.55063 0.6375 0.49481 0.0
C2695 C 0.53029 0.72361 0.44804 0.0
C2696 C 0.51714 0.67293 0.45905 0.0
H2697 H 0.5231 0.65672 0.50123 0.0
C2698 C 0.51656 0.65578 0.44657 0.0
C2699 C 0.51909 0.67308 0.47902 0.0
C2700 C 0.51872 0.69059 0.49324 0.0
C2701 C 0.5186 0.6391 0.4535 0.0
C2702 C 0.52111 0.63947 0.47346 0.0
C2703 C 0.52127 0.65646 0.48593 0.0
C2704 C 0.52441 0.62268 0.48166 0.0
C2705 C 0.51873 0.62142 0.43941 0.0
C2706 C 0.51162 0.60519 0.47881 0.0
C2707 C 0.51515 0.5893 0.48606 0.0
C2708 C 0.53157 0.59056 0.4963 0.0
C2709 C 0.54417 0.60828 0.4995 0.0
C2710 C 0.54059 0.62414 0.49233 0.0
H2711 H 0.52003 0.6246 0.42478 0.0
H2712 H 0.52963 0.61511 0.444 0.0
H2713 H 0.50628 0.61043 0.43877 0.0
H2714 H 0.49893 0.6038 0.47089 0.0
H2715 H 0.50509 0.57595 0.48335 0.0
H2716 H 0.61695 0.31621 0.67663 0.0
H2717 H 0.64334 0.31398 0.69612 0.0
H2718 H 0.66839 0.30601 0.6454 0.0
H2719 H 0.64224 0.30839 0.62587 0.0
H2720 H 0.65952 0.28309 0.69369 0.0
H2721 H 0.70482 0.34934 0.68107 0.0
H2722 H 0.68135 0.34484 0.67573 0.0
H2723 H 0.69357 0.33336 0.65965 0.0
C2724 C 0.62813 0.31416 0.66963 0.0
C2725 C 0.62747 0.31257 0.64967 0.0
C2726 C 0.64319 0.31283 0.6808 0.0
C2727 C 0.65794 0.31006 0.67226 0.0
C2728 C 0.65732 0.30851 0.65236 0.0
H2729 H 0.74461 0.26953 0.72353 0.0
H2730 H 0.71952 0.27306 0.70263 0.0
C2731 C 0.64229 0.30979 0.6412 0.0
C2732 C 0.67376 0.30816 0.68405 0.0
H2733 H 0.71757 0.32812 0.69672 0.0
C2734 C 0.67221 0.29296 0.69439 0.0
C2735 C 0.6903 0.32112 0.68506 0.0
C2736 C 0.69266 0.3382 0.67494 0.0
C2737 C 0.68675 0.29023 0.70553 0.0
C2738 C 0.70336 0.30292 0.70618 0.0
C2739 C 0.70488 0.31826 0.69602 0.0
C2740 C 0.71915 0.30104 0.71804 0.0
C2741 C 0.68413 0.27404 0.71684 0.0
C2742 C 0.72766 0.31584 0.73323 0.0
C2743 C 0.74199 0.31389 0.74509 0.0
C2744 C 0.74819 0.29713 0.74194 0.0
C2745 C 0.74006 0.28257 0.72635 0.0
C2746 C 0.72566 0.28452 0.71449 0.0
H2747 H 0.67011 0.26842 0.71826 0.0
H2748 H 0.68893 0.26203 0.70944 0.0
H2749 H 0.69163 0.27883 0.73136 0.0
H2750 H 0.72295 0.32876 0.73619 0.0
H2751 H 0.74803 0.32539 0.75694 0.0
H2752 H 0.01342 0.33308 0.89169 0.0
H2753 H 0.0192 0.36524 0.91069 0.0
H2754 H 0.02342 0.34166 0.96243 0.0
H2755 H 0.01741 0.30916 0.94342 0.0
H2756 H 1.00297 0.36838 0.96386 0.0
H2757 H 0.06614 0.39775 0.93892 0.0
H2758 H 0.04894 0.38703 0.91956 0.0
H2759 H 0.0561 0.37227 0.93526 0.0
C2760 C 0.01563 0.33466 0.90711 0.0
C2761 C 0.01504 0.31852 0.91602 0.0
C2762 C 0.01905 0.35311 0.91796 0.0
C2763 C 0.02209 0.35591 0.93796 0.0
C2764 C 0.02126 0.33983 0.94699 0.0
H2765 H 0.05978 0.47285 1.00431 0.0
H2766 H 0.05696 0.43888 0.99143 0.0
C2767 C 0.01783 0.32129 0.93611 0.0
C2768 C 0.02558 0.37562 0.94931 0.0
H2769 H 0.05211 0.42084 0.9542 0.0
C2770 C 0.01382 0.37981 0.96193 0.0
C2771 C 0.03991 0.39048 0.94703 0.0
C2772 C 0.0536 0.38664 0.93461 0.0
C2773 C 0.01557 0.39863 0.97167 0.0
C2774 C 0.02926 0.41371 0.96844 0.0
C2775 C 0.04147 0.40934 0.95649 0.0
C2776 C 0.0308 0.43418 0.97673 0.0
C2777 C 1.00271 0.40218 0.98531 0.0
C2778 C 0.01714 0.44292 0.97253 0.0
C2779 C 0.01869 0.46231 0.97986 0.0
C2780 C 0.03402 0.47347 0.99143 0.0
C2781 C 0.04778 0.46472 0.99547 0.0
C2782 C 0.04619 0.44528 0.98814 0.0
H2783 H 0.99673 0.38887 0.99065 0.0
H2784 H 0.00908 0.41357 0.99774 0.0
H2785 H 0.99202 0.40693 0.97774 0.0
H2786 H 1.00532 0.4348 0.96336 0.0
H2787 H 0.00786 0.46855 0.97634 0.0
H2788 H 0.00879 0.77465 0.12733 0.0
H2789 H 0.98479 0.77347 0.14661 0.0
H2790 H 0.01787 0.81813 0.18998 0.0
H2791 H 0.04207 0.81955 0.17064 0.0
H2792 H 0.98343 0.76577 0.1843 0.0
H2793 H 0.97404 0.83856 0.17854 0.0
H2794 H 0.98647 0.82661 0.16294 0.0
H2795 H 0.99587 0.83762 0.18699 0.0
C2796 C 0.01102 0.78428 0.14095 0.0
C2797 C 0.02737 0.79728 0.14738 0.0
C2798 C 0.99726 0.78354 0.15197 0.0
C2799 C 0.99946 0.79585 0.16962 0.0
C2800 C 0.0158 0.80871 0.17625 0.0
H2801 H 0.92463 0.81317 0.24885 0.0
H2802 H 0.95107 0.81413 0.23351 0.0
C2803 C 0.02965 0.80944 0.16523 0.0
C2804 C 0.98457 0.79504 0.18097 0.0
H2805 H 0.95624 0.82081 0.19767 0.0
C2806 C 0.9775 0.77781 0.18727 0.0
C2807 C 0.97686 0.81077 0.18484 0.0
C2808 C 0.98356 0.82941 0.17788 0.0
C2809 C 0.96297 0.7759 0.19742 0.0
C2810 C 0.95505 0.79152 0.20099 0.0
C2811 C 0.96229 0.80884 0.19491 0.0
C2812 C 0.93912 0.79016 0.21077 0.0
C2813 C 0.95641 0.75727 0.20444 0.0
C2814 C 0.92353 0.77637 0.20309 0.0
C2815 C 0.90839 0.77562 0.21196 0.0
C2816 C 0.90846 0.78876 0.22864 0.0
C2817 C 0.92413 0.80255 0.23627 0.0
C2818 C 0.93925 0.80325 0.22741 0.0
H2819 H 0.9667 0.74916 0.20554 0.0
H2820 H 0.95185 0.75989 0.21863 0.0
H2821 H 0.94524 0.74807 0.19417 0.0
H2822 H 0.92299 0.76636 0.19003 0.0
H2823 H 0.89663 0.76475 0.20573 0.0
H2824 H 0.48658 0.30541 0.13331 0.0
H2825 H 0.49064 0.33258 0.11617 0.0
H2826 H 0.5412 0.32445 0.10443 0.0
H2827 H 0.53749 0.2977 0.12204 0.0
H2828 H 0.54244 0.36176 0.11544 0.0
H2829 H 0.48619 0.32904 0.05899 0.0
H2830 H 0.4801 0.33084 0.08268 0.0
H2831 H 0.4942 0.3155 0.07555 0.0
C2832 C 0.49855 0.30941 0.12707 0.0
C2833 C 0.51167 0.29935 0.12894 0.0
C2834 C 0.50081 0.32487 0.11718 0.0
C2835 C 0.51607 0.3303 0.10869 0.0
C2836 C 0.52929 0.32045 0.1108 0.0
H2837 H 0.52865 0.39998 0.02025 0.0
H2838 H 0.52555 0.37434 0.03919 0.0
C2839 C 0.52713 0.30515 0.12085 0.0
C2840 C 0.51841 0.34632 0.09772 0.0
H2841 H 0.50021 0.36181 0.05967 0.0
C2842 C 0.53323 0.36177 0.10321 0.0
C2843 C 0.50652 0.34615 0.0816 0.0
C2844 C 0.49096 0.32941 0.07421 0.0
C2845 C 0.53645 0.37711 0.09309 0.0
C2846 C 0.52424 0.37726 0.07737 0.0
C2847 C 0.50947 0.36176 0.07183 0.0
C2848 C 0.5267 0.39308 0.06614 0.0
C2849 C 0.55313 0.39272 0.09904 0.0
C2850 C 0.52832 0.41215 0.07498 0.0
C2851 C 0.53046 0.42694 0.06424 0.0
C2852 C 0.53072 0.4229 0.04437 0.0
C2853 C 0.52887 0.40371 0.03555 0.0
C2854 C 0.52692 0.38898 0.04634 0.0
H2855 H 0.56321 0.38769 0.10738 0.0
H2856 H 0.55863 0.39779 0.08643 0.0
H2857 H 0.55032 0.40513 0.10825 0.0
H2858 H 0.52779 0.41561 0.09018 0.0
H2859 H 0.532 0.44155 0.07155 0.0
H2860 H 0.04372 0.27731 0.32566 0.0
H2861 H 0.01482 0.27197 0.30718 0.0
H2862 H 0.0187 0.33305 0.31813 0.0
H2863 H 0.04745 0.33853 0.3363 0.0
H2864 H 0.98663 0.28128 0.32243 0.0
H2865 H 1.00007 0.31896 0.26168 0.0
H2866 H 0.01694 0.31208 0.27587 0.0
H2867 H 0.01054 0.33397 0.28387 0.0
C2868 C 0.03854 0.28963 0.32379 0.0
C2869 C 0.04783 0.30834 0.3325 0.0
C2870 C 0.02206 0.28653 0.31323 0.0
C2871 C 0.01477 0.30213 0.31103 0.0
C2872 C 0.02427 0.32085 0.31922 0.0
H2873 H 0.92317 0.33847 0.29852 0.0
H2874 H 0.95237 0.33261 0.30143 0.0
C2875 C 0.04066 0.32394 0.32979 0.0
C2876 C 0.99647 0.299 0.30223 0.0
H2877 H 0.97108 0.31645 0.27149 0.0
C2878 C 0.98316 0.28849 0.31092 0.0
C2879 C 0.99202 0.30838 0.28718 0.0
C2880 C 0.00568 0.3188 0.27649 0.0
C2881 C 0.9656 0.28847 0.30602 0.0
C2882 C 0.96132 0.29907 0.29197 0.0
C2883 C 0.97448 0.30847 0.28237 0.0
C2884 C 0.94369 0.30246 0.28873 0.0
C2885 C 0.95188 0.27824 0.31679 0.0
C2886 C 0.92923 0.28746 0.28038 0.0
C2887 C 0.91249 0.29079 0.27859 0.0
C2888 C 0.91001 0.30918 0.28513 0.0
C2889 C 0.92464 0.32422 0.29312 0.0
C2890 C 0.94132 0.32089 0.29485 0.0
H2891 H 0.95768 0.27249 0.32875 0.0
H2892 H 0.94408 0.28817 0.32265 0.0
H2893 H 0.94279 0.26604 0.30687 0.0
H2894 H 0.93088 0.27319 0.2754 0.0
H2895 H 0.90151 0.27898 0.27209 0.0
H2896 H 0.04231 0.73109 0.61898 0.0
H2897 H 0.04304 0.70189 0.59728 0.0
H2898 H 0.98989 0.67612 0.60459 0.0
H2899 H 0.98902 0.70526 0.62643 0.0
H2900 H 0.01402 0.65252 0.60884 0.0
H2901 H 0.01728 0.6831 0.54201 0.0
H2902 H 0.03312 0.69663 0.56179 0.0
H2903 H 0.01023 0.69463 0.56309 0.0
C2904 C 0.03074 0.71925 0.61594 0.0
C2905 C 0.01558 0.7205 0.62438 0.0
C2906 C 0.03116 0.70264 0.60345 0.0
C2907 C 0.01644 0.68702 0.59918 0.0
C2908 C 1.00133 0.68812 0.60766 0.0
H2909 H 1.00192 0.5851 0.5118 0.0
H2910 H 0.99863 0.61447 0.53162 0.0
C2911 C 1.00086 0.70477 0.6201 0.0
C2912 C 0.01707 0.66929 0.58634 0.0
H2913 H 0.02266 0.65196 0.54077 0.0
C2914 C 0.0158 0.65234 0.59393 0.0
C2915 C 0.01921 0.66913 0.56687 0.0
C2916 C 0.01989 0.68679 0.55785 0.0
C2917 C 0.01711 0.63527 0.58264 0.0
C2918 C 0.01991 0.6353 0.56337 0.0
C2919 C 0.02068 0.6521 0.55563 0.0
C2920 C 0.02221 0.61801 0.55108 0.0
C2921 C 0.01542 0.61731 0.59138 0.0
C2922 C 0.03675 0.61064 0.55529 0.0
C2923 C 0.03869 0.59399 0.54399 0.0
C2924 C 0.02611 0.5845 0.52832 0.0
C2925 C 0.01178 0.59216 0.52383 0.0
C2926 C 0.00988 0.60887 0.53511 0.0
H2927 H 0.00924 0.61849 0.60473 0.0
H2928 H 0.00757 0.60449 0.58117 0.0
H2929 H 0.02863 0.61498 0.59494 0.0
H2930 H 0.04654 0.61771 0.56738 0.0
H2931 H 0.04991 0.58841 0.54767 0.0
H2932 H 0.65664 0.8364 0.8742 0.0
H2933 H 0.68105 0.8412 0.85558 0.0
H2934 H 0.64933 0.85797 0.81179 0.0
H2935 H 0.62453 0.85229 0.83004 0.0
H2936 H 0.66335 0.83253 0.79612 0.0
H2937 H 0.71632 0.8849 0.84439 0.0
H2938 H 0.70783 0.866 0.85702 0.0
H2939 H 0.69391 0.88074 0.84922 0.0
C2940 C 0.65495 0.84145 0.86077 0.0
C2941 C 0.63866 0.84383 0.8535 0.0
C2942 C 0.66901 0.84442 0.85021 0.0
C2943 C 0.66719 0.85034 0.83242 0.0
C2944 C 0.6511 0.85352 0.82552 0.0
H2945 H 0.76251 0.84784 0.77876 0.0
H2946 H 0.73848 0.86135 0.78905 0.0
C2947 C 0.63693 0.85021 0.83592 0.0
C2948 C 0.68125 0.85043 0.82003 0.0
H2949 H 0.72567 0.86035 0.8224 0.0
C2950 C 0.67695 0.83914 0.80168 0.0
C2951 C 0.699 0.85946 0.82688 0.0
C2952 C 0.70445 0.87363 0.84538 0.0
C2953 C 0.68997 0.83505 0.79088 0.0
C2954 C 0.70769 0.84187 0.79895 0.0
C2955 C 0.71204 0.85472 0.81641 0.0
C2956 C 0.72157 0.83385 0.79083 0.0
C2957 C 0.68456 0.82283 0.77127 0.0
C2958 C 0.71995 0.81392 0.78838 0.0
C2959 C 0.73347 0.80614 0.78229 0.0
C2960 C 0.74905 0.81817 0.77888 0.0
C2961 C 0.75066 0.83817 0.78127 0.0
C2962 C 0.73698 0.84593 0.78716 0.0
H2963 H 0.67227 0.82526 0.76439 0.0
H2964 H 0.69487 0.8259 0.76183 0.0
H2965 H 0.682 0.8074 0.77258 0.0
H2966 H 0.7084 0.80438 0.79171 0.0
H2967 H 0.73186 0.79072 0.78078 0.0
H2968 H 0.43228 0.53885 0.68843 0.0
H2969 H 0.44528 0.53369 0.65841 0.0
H2970 H 0.48693 0.58422 0.6795 0.0
H2971 H 0.47434 0.58925 0.70912 0.0
H2972 H 0.45343 0.55437 0.62885 0.0
H2973 H 0.51577 0.54701 0.66437 0.0
H2974 H 0.49688 0.54669 0.67675 0.0
H2975 H 0.51095 0.56922 0.67409 0.0
C2976 C 0.44424 0.54885 0.68676 0.0
C2977 C 0.45213 0.56444 0.70176 0.0
C2978 C 0.45175 0.5459 0.66938 0.0
C2979 C 0.46755 0.55827 0.66632 0.0
C2980 C 0.47513 0.57397 0.68118 0.0
H2981 H 0.5417 0.57671 0.58293 0.0
H2982 H 0.5242 0.57659 0.60921 0.0
C2983 C 0.46769 0.57693 0.69836 0.0
C2984 C 0.47628 0.55511 0.64798 0.0
H2985 H 0.51583 0.55273 0.63235 0.0
C2986 C 0.46703 0.55381 0.6297 0.0
C2987 C 0.49413 0.55424 0.64844 0.0
C2988 C 0.50497 0.55416 0.66692 0.0
C2989 C 0.47511 0.55259 0.61253 0.0
C2990 C 0.49312 0.55228 0.61311 0.0
C2991 C 0.50217 0.55308 0.63136 0.0
C2992 C 0.50323 0.5523 0.59554 0.0
C2993 C 0.46435 0.55247 0.59395 0.0
C2994 C 0.49775 0.53876 0.57821 0.0
C2995 C 0.50801 0.53883 0.56268 0.0
C2996 C 0.52418 0.55246 0.56385 0.0
C2997 C 0.52941 0.56595 0.58109 0.0
C2998 C 0.5193 0.56587 0.59643 0.0
H2999 H 0.45249 0.55779 0.59632 0.0
H3000 H 0.47214 0.56148 0.58496 0.0
H3001 H 0.46003 0.5375 0.58592 0.0
H3002 H 0.48574 0.52768 0.57681 0.0
H3003 H 0.5035 0.52786 0.55003 0.0
H3004 H 0.76394 0.11513 0.95983 0.0
H3005 H 0.76409 0.13302 0.93333 0.0
H3006 H 0.80457 0.17961 0.96662 0.0
H3007 H 0.8043 0.16205 0.99325 0.0
H3008 H 0.77552 0.19087 0.95279 0.0
H3009 H 0.79869 0.14622 0.89508 0.0
H3010 H 0.7808 0.13356 0.90564 0.0
H3011 H 0.80175 0.1435 0.91982 0.0
C3012 C 0.77313 0.12901 0.96135 0.0
C3013 C 0.78404 0.13726 0.97864 0.0
C3014 C 0.77324 0.13917 0.94617 0.0
C3015 C 0.78441 0.15756 0.94803 0.0
C3016 C 0.79586 0.16542 0.96496 0.0
H3017 H 0.80887 0.234 0.86804 0.0
H3018 H 0.80833 0.21066 0.8896 0.0
C3019 C 0.79569 0.15537 0.98014 0.0
C3020 C 0.78307 0.1695 0.93319 0.0
H3021 H 0.78843 0.17263 0.8868 0.0
C3022 C 0.77834 0.18691 0.93835 0.0
C3023 C 0.78679 0.16422 0.91444 0.0
C3024 C 0.79243 0.14594 0.90838 0.0
C3025 C 0.77742 0.19936 0.9253 0.0
C3026 C 0.78097 0.19402 0.90647 0.0
C3027 C 0.78559 0.17655 0.90124 0.0
C3028 C 0.78082 0.20692 0.89236 0.0
C3029 C 0.77316 0.21836 0.93195 0.0
C3030 C 0.76544 0.2122 0.88656 0.0
C3031 C 0.76574 0.22559 0.87436 0.0
C3032 C 0.78139 0.23371 0.86763 0.0
C3033 C 0.79663 0.22789 0.87296 0.0
C3034 C 0.79634 0.21459 0.88525 0.0
H3035 H 0.77483 0.22214 0.94779 0.0
H3036 H 0.78158 0.23016 0.9263 0.0
H3037 H 0.75933 0.21743 0.9266 0.0
H3038 H 0.75327 0.20612 0.89164 0.0
H3039 H 0.75374 0.22958 0.87017 0.0
H3040 H 0.09485 0.51383 0.20463 0.0
H3041 H 0.07771 0.50798 0.17336 0.0
H3042 H 0.11179 0.47435 0.14987 0.0
H3043 H 0.12951 0.48079 0.18118 0.0
H3044 H 0.1082 0.49998 0.12892 0.0
H3045 H 0.04218 0.46409 0.14154 0.0
H3046 H 0.05016 0.48573 0.1588 0.0
H3047 H 0.06126 0.46654 0.15852 0.0
C3048 C 0.09854 0.50487 0.19293 0.0
C3049 C 0.11359 0.49785 0.19536 0.0
C3050 C 0.08859 0.50136 0.17505 0.0
C3051 C 0.09325 0.49042 0.15931 0.0
C3052 C 0.10789 0.48273 0.16185 0.0
H3053 H 0.02563 0.48315 0.05209 0.0
H3054 H 0.04125 0.47256 0.0782 0.0
C3055 C 0.118 0.48643 0.17973 0.0
C3056 C 0.08409 0.48916 0.13994 0.0
H3057 H 0.04342 0.4832 0.11592 0.0
C3058 C 0.09404 0.49586 0.12593 0.0
C3059 C 0.06564 0.48338 0.13578 0.0
C3060 C 0.05425 0.47433 0.14943 0.0
C3061 C 0.086 0.49839 0.1085 0.0
C3062 C 0.06755 0.49467 0.10529 0.0
C3063 C 0.05759 0.48648 0.1186 0.0
C3064 C 0.05845 0.50069 0.0891 0.0
C3065 C 0.09738 0.50543 0.0939 0.0
C3066 C 0.06272 0.52005 0.08686 0.0
C3067 C 0.05391 0.52607 0.07201 0.0
C3068 C 0.04052 0.51287 0.05931 0.0
C3069 C 0.03594 0.49358 0.06175 0.0
C3070 C 0.04487 0.48751 0.07656 0.0
H3071 H 0.10983 0.50081 0.09517 0.0
H3072 H 0.09061 0.50006 0.0791 0.0
H3073 H 0.10075 0.5214 0.09644 0.0
H3074 H 0.07275 0.5306 0.09675 0.0
H3075 H 0.05748 0.54108 0.07055 0.0
H3076 H 0.83088 0.85426 0.48699 0.0
H3077 H 0.82858 0.83993 0.45322 0.0
H3078 H 0.78739 0.86756 0.4395 0.0
H3079 H 0.78953 0.88192 0.47317 0.0
H3080 H 0.79789 0.81581 0.42739 0.0
H3081 H 0.82575 0.88534 0.40477 0.0
H3082 H 0.82836 0.88202 0.42936 0.0
H3083 H 0.80798 0.88522 0.41879 0.0
C3084 C 0.82125 0.8572 0.47682 0.0
C3085 C 0.81045 0.86933 0.48279 0.0
C3086 C 0.81996 0.84899 0.45754 0.0
C3087 C 0.80798 0.85291 0.44386 0.0
C3088 C 0.79688 0.86458 0.44981 0.0
H3089 H 0.77132 0.79965 0.32597 0.0
H3090 H 0.77456 0.8115 0.36031 0.0
C3091 C 0.79808 0.8727 0.46909 0.0
C3092 C 0.80724 0.84503 0.4233 0.0
H3093 H 0.81422 0.85833 0.38016 0.0
C3094 C 0.8015 0.82507 0.41705 0.0
C3095 C 0.81217 0.85715 0.40991 0.0
C3096 C 0.81906 0.87862 0.41598 0.0
C3097 C 0.80015 0.81695 0.39765 0.0
C3098 C 0.80458 0.82913 0.38418 0.0
C3099 C 0.81072 0.84904 0.3905 0.0
C3100 C 0.80273 0.82153 0.3634 0.0
C3101 C 0.79412 0.79539 0.3917 0.0
C3102 C 0.81749 0.82349 0.35367 0.0
C3103 C 0.81571 0.81672 0.33398 0.0
C3104 C 0.79909 0.80804 0.3236 0.0
C3105 C 0.78433 0.80621 0.33345 0.0
C3106 C 0.78615 0.81288 0.35313 0.0
H3107 H 0.79517 0.78785 0.40406 0.0
H3108 H 0.78021 0.79151 0.38527 0.0
H3109 H 0.80188 0.7901 0.38082 0.0
H3110 H 0.8304 0.83024 0.36133 0.0
H3111 H 0.82735 0.81847 0.3269 0.0
H3112 H 0.46331 0.58203 0.80939 0.0
H3113 H 0.48141 0.58231 0.83969 0.0
H3114 H 0.44688 0.52917 0.84624 0.0
H3115 H 0.42886 0.52893 0.81659 0.0
H3116 H 0.46966 0.57999 0.8795 0.0
H3117 H 0.49715 0.51882 0.85244 0.0
H3118 H 0.48846 0.53278 0.83675 0.0
H3119 H 0.47389 0.51503 0.8466 0.0
C3120 C 0.45963 0.57033 0.81719 0.0
C3121 C 0.44444 0.55545 0.81017 0.0
C3122 C 0.46999 0.57053 0.83469 0.0
C3123 C 0.46576 0.55567 0.84556 0.0
C3124 C 0.45075 0.54079 0.83837 0.0
H3125 H 0.50712 0.51712 0.94791 0.0
H3126 H 0.49256 0.52097 0.91752 0.0
C3127 C 0.44033 0.54073 0.82121 0.0
C3128 C 0.47659 0.55544 0.86438 0.0
H3129 H 0.50129 0.52913 0.88593 0.0
C3130 C 0.47675 0.56899 0.88082 0.0
C3131 C 0.48574 0.54099 0.86657 0.0
C3132 C 0.48649 0.52612 0.84968 0.0
C3133 C 0.48515 0.56815 0.89912 0.0
C3134 C 0.4944 0.55367 0.90136 0.0
C3135 C 0.49439 0.54031 0.88475 0.0
C3136 C 0.5036 0.55163 0.92062 0.0
C3137 C 0.48319 0.58234 0.91603 0.0
C3138 C 0.51515 0.56737 0.93314 0.0
C3139 C 0.52343 0.5652 0.95092 0.0
C3140 C 0.52084 0.54711 0.95684 0.0
C3141 C 0.50961 0.53133 0.94415 0.0
C3142 C 0.5012 0.53355 0.92652 0.0
H3143 H 0.47147 0.58802 0.91324 0.0
H3144 H 0.48209 0.57571 0.92905 0.0
H3145 H 0.4948 0.59475 0.91884 0.0
H3146 H 0.51803 0.58145 0.92912 0.0
H3147 H 0.53204 0.57777 0.95997 0.0
H3148 H 0.79088 0.16744 0.09173 0.0
H3149 H 0.79291 0.19419 0.11779 0.0
H3150 H 0.78416 0.23046 0.07707 0.0
H3151 H 0.78216 0.20377 0.05076 0.0
H3152 H 0.81747 0.23485 0.12153 0.0
H3153 H 0.74583 0.23005 0.11676 0.0
H3154 H 0.75404 0.2095 0.10808 0.0
H3155 H 0.75625 0.22923 0.09532 0.0
C3156 C 0.78939 0.1811 0.08827 0.0
C3157 C 0.78632 0.18349 0.06918 0.0
C3158 C 0.7906 0.19634 0.10317 0.0
C3159 C 0.78862 0.21417 0.09926 0.0
C3160 C 0.78565 0.21673 0.08028 0.0
H3161 H 0.8082 0.30886 0.19832 0.0
H3162 H 0.80489 0.29373 0.16452 0.0
C3163 C 0.78454 0.20149 0.06531 0.0
C3164 C 0.78955 0.2299 0.11528 0.0
H3165 H 0.76381 0.25046 0.14337 0.0
C3166 C 0.80583 0.23866 0.12613 0.0
C3167 C 0.77428 0.23465 0.12111 0.0
C3168 C 0.75653 0.22541 0.10982 0.0
C3169 C 0.80714 0.25142 0.14331 0.0
C3170 C 0.79175 0.25545 0.14965 0.0
C3171 C 0.77556 0.2474 0.13831 0.0
C3172 C 0.79196 0.26545 0.16926 0.0
C3173 C 0.82478 0.25954 0.15521 0.0
C3174 C 0.78537 0.2546 0.18282 0.0
C3175 C 0.78733 0.26309 0.20197 0.0
C3176 C 0.7958 0.28263 0.20784 0.0
C3177 C 0.80166 0.29375 0.19412 0.0
C3178 C 0.7998 0.28517 0.17489 0.0
H3179 H 0.83525 0.25377 0.1489 0.0
H3180 H 0.82836 0.27544 0.15647 0.0
H3181 H 0.82424 0.2562 0.16986 0.0
H3182 H 0.77933 0.23934 0.17869 0.0
H3183 H 0.78269 0.2542 0.21226 0.0
H3184 H 0.12002 0.52538 0.27783 0.0
H3185 H 0.10621 0.53431 0.30574 0.0
H3186 H 0.15549 0.57115 0.33388 0.0
H3187 H 0.16959 0.56197 0.306 0.0
H3188 H 0.14085 0.54657 0.35567 0.0
H3189 H 0.09104 0.5814 0.32817 0.0
H3190 H 0.08955 0.55891 0.31294 0.0
H3191 H 0.10911 0.57802 0.31543 0.0
C3192 C 0.1279 0.53562 0.28981 0.0
C3193 C 0.14592 0.54287 0.28978 0.0
C3194 C 0.11993 0.54088 0.30569 0.0
C3195 C 0.12976 0.55367 0.32173 0.0
C3196 C 0.14766 0.56141 0.32154 0.0
H3197 H 0.06797 0.56839 0.41689 0.0
H3198 H 0.08839 0.57757 0.39412 0.0
C3199 C 0.15568 0.5561 0.30564 0.0
C3200 C 0.12167 0.55681 0.3394 0.0
H3201 H 0.08412 0.56486 0.35502 0.0
C3202 C 0.12868 0.55105 0.35571 0.0
C3203 C 0.10599 0.56303 0.33961 0.0
C3204 C 0.09862 0.57089 0.32314 0.0
C3205 C 0.1196 0.54971 0.37158 0.0
C3206 C 0.10298 0.55386 0.37088 0.0
C3207 C 0.09672 0.56129 0.35533 0.0
C3208 C 0.09118 0.54868 0.38512 0.0
C3209 C 0.12759 0.54319 0.38866 0.0
C3210 C 0.08582 0.52938 0.38728 0.0
C3211 C 0.07425 0.52411 0.40022 0.0
C3212 C 0.06772 0.53806 0.41115 0.0
C3213 C 0.07297 0.55738 0.40881 0.0
C3214 C 0.08456 0.56264 0.39581 0.0
H3215 H 0.1421 0.54694 0.3898 0.0
H3216 H 0.12366 0.54975 0.40214 0.0
H3217 H 0.12309 0.52731 0.38701 0.0
H3218 H 0.09049 0.51833 0.37882 0.0
H3219 H 0.07057 0.50915 0.40184 0.0
H3220 H 0.82082 0.88274 0.58547 0.0
H3221 H 0.82112 0.86871 0.61465 0.0
H3222 H 0.76475 0.8519 0.60633 0.0
H3223 H 0.76429 0.86567 0.57714 0.0
H3224 H 0.80571 0.87833 0.64782 0.0
H3225 H 0.77834 0.80197 0.61404 0.0
H3226 H 0.78705 0.82036 0.60059 0.0
H3227 H 0.76537 0.81781 0.60721 0.0
C3228 C 0.80848 0.87592 0.58976 0.0
C3229 C 0.79253 0.87526 0.57889 0.0
C3230 C 0.80869 0.86796 0.60647 0.0
C3231 C 0.79297 0.85905 0.61254 0.0
C3232 C 0.77705 0.85838 0.60173 0.0
H3233 H 0.75812 0.80512 0.70611 0.0
H3234 H 0.7616 0.8203 0.67787 0.0
C3235 C 0.77682 0.86635 0.58507 0.0
C3236 C 0.7931 0.85086 0.63041 0.0
H3237 H 0.77929 0.80937 0.64783 0.0
C3238 C 0.8001 0.86322 0.64785 0.0
C3239 C 0.7858 0.83114 0.63038 0.0
C3240 C 0.77886 0.81699 0.61205 0.0
C3241 C 0.79938 0.85651 0.66533 0.0
C3242 C 0.79171 0.83687 0.66531 0.0
C3243 C 0.78508 0.82446 0.64783 0.0
C3244 C 0.78986 0.8289 0.68323 0.0
C3245 C 0.80626 0.87062 0.6837 0.0
C3246 C 0.80461 0.82882 0.69575 0.0
C3247 C 0.80264 0.82018 0.71198 0.0
C3248 C 0.7859 0.81135 0.71583 0.0
C3249 C 0.77118 0.81177 0.70348 0.0
C3250 C 0.77315 0.82042 0.68732 0.0
H3251 H 0.808 0.88577 0.68152 0.0
H3252 H 0.79731 0.86801 0.69465 0.0
H3253 H 0.81918 0.86875 0.68937 0.0
H3254 H 0.81764 0.835 0.69272 0.0
H3255 H 0.81421 0.81999 0.72124 0.0
H3256 H 0.75625 0.45317 0.55958 0.0
H3257 H 0.73385 0.47154 0.56211 0.0
H3258 H 0.72168 0.46043 0.50071 0.0
H3259 H 0.74383 0.44203 0.49801 0.0
H3260 H 0.73453 0.50478 0.54494 0.0
H3261 H 0.67341 0.44797 0.51957 0.0
H3262 H 0.69373 0.44267 0.52793 0.0
H3263 H 0.69004 0.44755 0.50413 0.0
C3264 C 0.74857 0.45435 0.54665 0.0
C3265 C 0.75182 0.44621 0.52859 0.0
C3266 C 0.73584 0.46487 0.54812 0.0
C3267 C 0.72607 0.46715 0.5316 0.0
C3268 C 0.72891 0.45854 0.51363 0.0
H3269 H 0.65305 0.53057 0.49762 0.0
H3270 H 0.67485 0.51157 0.49979 0.0
C3271 C 0.74165 0.44813 0.51213 0.0
C3272 C 0.71385 0.47975 0.53286 0.0
H3273 H 0.6715 0.48045 0.52003 0.0
C3274 C 0.72069 0.49948 0.53975 0.0
C3275 C 0.69587 0.47271 0.52598 0.0
C3276 C 0.68776 0.45154 0.51914 0.0
C3277 C 0.7101 0.51253 0.53924 0.0
C3278 C 0.69221 0.50553 0.53191 0.0
C3279 C 0.68529 0.48574 0.52548 0.0
C3280 C 0.68037 0.51845 0.53063 0.0
C3281 C 0.71822 0.53373 0.54591 0.0
C3282 C 0.6765 0.52875 0.54726 0.0
C3283 C 0.66409 0.53959 0.54606 0.0
C3284 C 0.65526 0.54015 0.52821 0.0
C3285 C 0.65956 0.53026 0.51155 0.0
C3286 C 0.67199 0.51946 0.51277 0.0
H3287 H 0.73272 0.53712 0.54697 0.0
H3288 H 0.71326 0.54237 0.53605 0.0
H3289 H 0.71466 0.53823 0.56027 0.0
H3290 H 0.68261 0.52784 0.56119 0.0
H3291 H 0.66081 0.54677 0.55916 0.0
H3292 H 0.2122 0.17347 0.50647 0.0
H3293 H 0.18348 0.15196 0.5062 0.0
H3294 H 0.2023 0.1037 0.48145 0.0
H3295 H 0.23119 0.12513 0.48169 0.0
H3296 H 0.16047 0.12644 0.47441 0.0
H3297 H 0.18219 0.08773 0.53013 0.0
H3298 H 0.195 0.11056 0.52636 0.0
H3299 H 0.19458 0.08886 0.51026 0.0
C3300 C 0.21027 0.15828 0.50092 0.0
C3301 C 0.22406 0.15101 0.49419 0.0
C3302 C 0.19381 0.14602 0.50076 0.0
C3303 C 0.19081 0.12621 0.49403 0.0
C3304 C 0.20442 0.11892 0.48696 0.0
H3305 H 0.10162 0.02977 0.4916 0.0
H3306 H 0.13001 0.0506 0.48885 0.0
C3307 C 0.22089 0.1312 0.48702 0.0
C3308 C 0.17346 0.11326 0.49458 0.0
H3309 H 0.15284 0.07668 0.51577 0.0
C3310 C 0.15877 0.11555 0.48344 0.0
C3311 C 0.1713 0.09907 0.50637 0.0
C3312 C 0.18654 0.09642 0.5191 0.0
C3313 C 0.14198 0.10384 0.48356 0.0
C3314 C 0.13977 0.08976 0.49553 0.0
C3315 C 0.15451 0.08746 0.50661 0.0
C3316 C 0.12234 0.07724 0.49679 0.0
C3317 C 0.12687 0.10639 0.47054 0.0
C3318 C 0.10856 0.08523 0.50228 0.0
C3319 C 0.09229 0.07331 0.50371 0.0
C3320 C 0.08957 0.05322 0.50002 0.0
C3321 C 0.10336 0.04523 0.49459 0.0
C3322 C 0.11959 0.05712 0.49305 0.0
H3323 H 0.13143 0.11342 0.45848 0.0
H3324 H 0.11752 0.09236 0.4646 0.0
H3325 H 0.1198 0.11573 0.47878 0.0
H3326 H 0.1104 0.10068 0.50561 0.0
H3327 H 0.08182 0.0798 0.50753 0.0
H3328 H 0.21424 0.97976 0.77334 0.0
H3329 H 0.23131 0.95502 0.77217 0.0
H3330 H 0.1837 0.91092 0.76739 0.0
H3331 H 0.16684 0.93511 0.76821 0.0
H3332 H 0.23711 0.92835 0.79363 0.0
H3333 H 0.2035 0.88612 0.72419 0.0
H3334 H 0.20047 0.90962 0.73303 0.0
H3335 H 0.18831 0.88864 0.74095 0.0
C3336 C 0.20734 0.96481 0.77193 0.0
C3337 C 0.18884 0.95988 0.7707 0.0
C3338 C 0.21722 0.95046 0.77128 0.0
C3339 C 0.20908 0.93051 0.76917 0.0
C3340 C 0.19069 0.92578 0.76836 0.0
H3341 H 0.23978 0.81825 0.76297 0.0
H3342 H 0.22465 0.84444 0.76406 0.0
C3343 C 0.18091 0.93996 0.76901 0.0
C3344 C 0.21944 0.91468 0.76813 0.0
H3345 H 0.22071 0.87056 0.74269 0.0
C3346 C 0.23353 0.91586 0.78232 0.0
C3347 C 0.21516 0.8979 0.75357 0.0
C3348 C 0.20117 0.89554 0.73697 0.0
C3349 C 0.24277 0.90103 0.7827 0.0
C3350 C 0.23837 0.88416 0.76823 0.0
C3351 C 0.22437 0.88308 0.75398 0.0
C3352 C 0.24798 0.86769 0.76757 0.0
C3353 C 0.25681 0.90337 0.79924 0.0
C3354 C 0.26642 0.87117 0.76879 0.0
C3355 C 0.2752 0.85601 0.76815 0.0
C3356 C 0.26605 0.83645 0.76611 0.0
C3357 C 0.24757 0.83289 0.76461 0.0
C3358 C 0.23879 0.84809 0.76522 0.0
H3359 H 0.25488 0.9133 0.81186 0.0
H3360 H 0.2571 0.88933 0.80355 0.0
H3361 H 0.26972 0.90961 0.79497 0.0
H3362 H 0.27421 0.88574 0.77001 0.0
H3363 H 0.28933 0.85974 0.76923 0.0
H3364 H 0.35086 0.98251 0.06634 0.0
H3365 H 0.38125 0.99535 0.08118 0.0
H3366 H 0.39653 1.00623 0.0266 0.0
H3367 H 0.36635 0.99362 0.01174 0.0
H3368 H 0.40752 0.9786 0.07083 0.0
H3369 H 0.4244 0.05471 0.06235 0.0
H3370 H 0.40203 0.04108 0.06098 0.0
H3371 H 0.41349 0.03973 0.04032 0.0
C3372 C 0.36063 0.9881 0.0576 0.0
C3373 C 0.35624 0.98696 0.03783 0.0
C3374 C 0.37797 0.99542 0.06612 0.0
C3375 C 0.39108 1.00195 0.05504 0.0
C3376 C 0.38656 1.00168 0.03551 0.0
H3377 H 0.48587 0.98828 0.0332 0.0
H3378 H 0.45706 0.98458 0.04353 0.0
C3379 C 0.3693 0.9943 0.02699 0.0
C3380 C 0.40977 1.00656 0.06293 0.0
H3381 H 0.44828 0.03836 0.06122 0.0
C3382 C 0.41644 0.99191 0.06931 0.0
C3383 C 0.42138 0.02406 0.0614 0.0
C3384 C 0.41491 0.04085 0.05609 0.0
C3385 C 0.43451 0.99351 0.07217 0.0
C3386 C 0.44604 0.01003 0.06824 0.0
C3387 C 0.43942 0.02553 0.06394 0.0
C3388 C 0.46433 0.01031 0.06523 0.0
C3389 C 0.441 0.97708 0.07841 0.0
C3390 C 0.4781 0.02589 0.07415 0.0
C3391 C 0.49463 0.02816 0.06811 0.0
C3392 C 0.49756 0.01497 0.05291 0.0
C3393 C 0.48405 0.99872 0.0449 0.0
C3394 C 0.46758 0.99648 0.05094 0.0
H3395 H 0.43225 0.96982 0.08783 0.0
H3396 H 0.44095 0.96624 0.06563 0.0
H3397 H 0.4545 0.98206 0.08611 0.0
H3398 H 0.47583 0.03679 0.08511 0.0
H3399 H 0.50476 0.04082 0.07462 0.0
H3400 H 0.91534 0.61823 0.77759 0.0
H3401 H 0.89399 0.63425 0.76448 0.0
H3402 H 0.85323 0.58227 0.75954 0.0
H3403 H 0.87429 0.56632 0.773 0.0
H3404 H 0.8705 0.62565 0.73014 0.0
H3405 H 0.8358 0.6221 0.79433 0.0
H3406 H 0.85707 0.61715 0.79357 0.0
H3407 H 0.83776 0.59928 0.7822 0.0
C3408 C 0.90185 0.6102 0.77361 0.0
C3409 C 0.89641 0.59115 0.77663 0.0
C3410 C 0.8897 0.61933 0.76607 0.0
C3411 C 0.87202 0.6095 0.76139 0.0
C3412 C 0.86676 0.59019 0.76346 0.0
H3413 H 0.78145 0.65603 0.73825 0.0
H3414 H 0.79976 0.63287 0.73794 0.0
C3415 C 0.87882 0.58113 0.77115 0.0
C3416 C 0.85891 0.61978 0.75544 0.0
H3417 H 0.82379 0.63528 0.76968 0.0
C3418 C 0.86021 0.62769 0.73869 0.0
C3419 C 0.84553 0.62236 0.76667 0.0
C3420 C 0.84398 0.61494 0.78528 0.0
C3421 C 0.84851 0.63832 0.73296 0.0
C3422 C 0.83536 0.64119 0.74439 0.0
C3423 C 0.83379 0.63284 0.76085 0.0
C3424 C 0.82421 0.65442 0.7409 0.0
C3425 C 0.85037 0.64649 0.71481 0.0
C3426 C 0.83193 0.67409 0.74236 0.0
C3427 C 0.82156 0.68725 0.7426 0.0
C3428 C 0.80329 0.68099 0.74149 0.0
C3429 C 0.79549 0.6612 0.73904 0.0
C3430 C 0.80592 0.648 0.73888 0.0
H3431 H 0.85712 0.63825 0.70487 0.0
H3432 H 0.83742 0.6465 0.70739 0.0
H3433 H 0.85833 0.66158 0.71839 0.0
H3434 H 0.84603 0.67938 0.74432 0.0
H3435 H 0.82786 0.70243 0.74431 0.0
H3436 H 0.81065 0.62848 0.98424 0.0
H3437 H 0.83405 0.61135 0.9843 0.0
H3438 H 0.8724 0.66521 1.00333 0.0
H3439 H 0.84921 0.68241 1.00342 0.0
H3440 H 0.86379 0.61687 0.96359 0.0
H3441 H 0.88356 0.63134 0.04212 0.0
H3442 H 0.86293 0.63418 0.03146 0.0
H3443 H 0.88272 0.65225 0.0317 0.0
C3444 C 0.82405 0.63667 0.98852 0.0
C3445 C 0.82803 0.65682 0.99391 0.0
C3446 C 0.83741 0.62686 0.98851 0.0
C3447 C 0.85494 0.63698 0.99406 0.0
C3448 C 0.85895 0.65708 0.99932 0.0
H3449 H 0.95358 0.60286 0.00769 0.0
H3450 H 0.93109 0.62102 0.00562 0.0
C3451 C 0.84564 0.66689 0.99928 0.0
C3452 C 0.86913 0.62663 0.99401 0.0
H3453 H 0.90157 0.61687 0.023 0.0
C3454 C 0.87202 0.61679 0.97657 0.0
C3455 C 0.87993 0.62668 0.01095 0.0
C3456 C 0.8771 0.63653 0.03017 0.0
C3457 C 0.88558 0.60722 0.97557 0.0
C3458 C 0.89629 0.60709 0.99256 0.0
C3459 C 0.89342 0.61701 0.00998 0.0
C3460 C 0.91018 0.59628 0.99271 0.0
C3461 C 0.88852 0.59769 0.95627 0.0
C3462 C 0.90595 0.57635 0.98612 0.0
C3463 C 0.91879 0.56598 0.98708 0.0
C3464 C 0.93617 0.57524 0.99494 0.0
C3465 C 0.94042 0.59527 1.00137 0.0
C3466 C 0.92754 0.60566 1.00032 0.0
H3467 H 0.88314 0.60407 0.94456 0.0
H3468 H 0.90266 0.59892 0.95541 0.0
H3469 H 0.88174 0.58219 0.95385 0.0
H3470 H 0.89261 0.56869 0.98054 0.0
H3471 H 0.91506 0.55064 0.98173 0.0
H3472 H 0.21326 0.07516 0.79111 0.0
H3473 H 0.23114 0.1082 0.79253 0.0
H3474 H 0.19283 0.11793 0.75074 0.0
H3475 H 0.17499 0.08567 0.74964 0.0
H3476 H 0.24756 0.12797 0.76752 0.0
H3477 H 0.19682 0.16488 0.78898 0.0
H3478 H 0.19444 0.13956 0.78901 0.0
H3479 H 0.18915 0.14797 0.7672 0.0
C3480 C 0.2086 0.08437 0.78231 0.0
C3481 C 0.1924 0.07747 0.77044 0.0
C3482 C 0.21888 0.10339 0.7831 0.0
C3483 C 0.2133 0.11619 0.77214 0.0
C3484 C 0.19739 0.10901 0.75995 0.0
H3485 H 0.25561 0.23409 0.74892 0.0
H3486 H 0.23821 0.20117 0.74893 0.0
C3487 C 0.18715 0.09022 0.75923 0.0
C3488 C 0.22401 0.13675 0.77292 0.0
H3489 H 0.22109 0.18391 0.77734 0.0
C3490 C 0.24172 0.14015 0.76987 0.0
C3491 C 0.21673 0.15307 0.77591 0.0
C3492 C 0.1983 0.15124 0.78066 0.0
C3493 C 0.25196 0.15885 0.7692 0.0
C3494 C 0.24457 0.17507 0.77189 0.0
C3495 C 0.22692 0.17172 0.77506 0.0
C3496 C 0.25503 0.19555 0.77197 0.0
C3497 C 0.27058 0.16097 0.76508 0.0
C3498 C 0.2702 0.20396 0.78511 0.0
C3499 C 0.28006 0.22284 0.78521 0.0
C3500 C 0.27522 0.23417 0.77216 0.0
C3501 C 0.25986 0.22595 0.75918 0.0
C3502 C 0.24987 0.207 0.75918 0.0
H3503 H 0.27279 0.14709 0.75812 0.0
H3504 H 0.2741 0.17181 0.75571 0.0
H3505 H 0.27952 0.16584 0.77872 0.0
H3506 H 0.27443 0.19593 0.7955 0.0
H3507 H 0.29167 0.22853 0.79555 0.0
H3508 H 0.3984 0.99067 0.30254 0.0
H3509 H 0.38473 0.95616 0.29442 0.0
H3510 H 0.36074 0.9641 0.24047 0.0
H3511 H 0.37436 0.99865 0.2484 0.0
H3512 H 0.33772 0.94234 0.26343 0.0
H3513 H 0.39735 0.91581 0.25285 0.0
H3514 H 0.39896 0.93278 0.27447 0.0
H3515 H 0.39643 0.94033 0.25175 0.0
C3516 C 0.39026 0.98508 0.28892 0.0
C3517 C 0.38746 0.99736 0.2761 0.0
C3518 C 0.38257 0.96537 0.28427 0.0
C3519 C 0.37196 0.95766 0.26676 0.0
C3520 C 0.36902 0.96985 0.25398 0.0
H3521 H 0.32347 0.83518 0.22453 0.0
H3522 H 0.33819 0.86906 0.22564 0.0
C3523 C 0.3768 0.98955 0.25855 0.0
C3524 C 0.36329 0.93696 0.26222 0.0
H3525 H 0.37144 0.89234 0.25515 0.0
C3526 C 0.34504 0.93139 0.26139 0.0
C3527 C 0.37293 0.9228 0.25943 0.0
C3528 C 0.39249 0.92815 0.2595 0.0
C3529 C 0.33622 0.91191 0.25863 0.0
C3530 C 0.34595 0.89781 0.25667 0.0
C3531 C 0.3641 0.90331 0.25674 0.0
C3532 C 0.33755 0.87735 0.2559 0.0
C3533 C 0.31662 0.90648 0.25823 0.0
C3534 C 0.33262 0.87096 0.27262 0.0
C3535 C 0.32436 0.85172 0.2721 0.0
C3536 C 0.3208 0.83853 0.2548 0.0
C3537 C 0.32597 0.84498 0.23807 0.0
C3538 C 0.33438 0.86428 0.23865 0.0
H3539 H 0.31073 0.91879 0.25668 0.0
H3540 H 0.31058 0.89441 0.24629 0.0
H3541 H 0.31341 0.90155 0.27177 0.0
H3542 H 0.3351 0.88093 0.28606 0.0
H3543 H 0.32055 0.84729 0.28525 0.0
H3544 H 0.58268 0.37357 0.61639 0.0
H3545 H 0.58161 0.40326 0.60434 0.0
H3546 H 0.5628 0.37054 0.54777 0.0
H3547 H 0.56394 0.3408 0.55963 0.0
H3548 H 0.58911 0.40486 0.54855 0.0
H3549 H 0.53562 0.41841 0.58981 0.0
H3550 H 0.55452 0.41529 0.60374 0.0
H3551 H 0.5413 0.39549 0.58647 0.0
C3552 C 0.5784 0.37267 0.60136 0.0
C3553 C 0.57329 0.35472 0.58902 0.0
C3554 C 0.57772 0.38967 0.59451 0.0
C3555 C 0.57189 0.38912 0.5752 0.0
C3556 C 0.56728 0.37132 0.56274 0.0
H3557 H 0.53053 0.47163 0.52213 0.0
H3558 H 0.53639 0.4438 0.53443 0.0
C3559 C 0.56792 0.35431 0.56957 0.0
C3560 C 0.57015 0.40698 0.56803 0.0
H3561 H 0.54761 0.44211 0.57215 0.0
C3562 C 0.58009 0.41306 0.55375 0.0
C3563 C 0.55824 0.41757 0.57467 0.0
C3564 C 0.54668 0.41134 0.5894 0.0
C3565 C 0.57846 0.42943 0.54598 0.0
C3566 C 0.56666 0.44011 0.55276 0.0
C3567 C 0.55675 0.43402 0.56705 0.0
C3568 C 0.56366 0.45705 0.5446 0.0
C3569 C 0.58899 0.43486 0.5302 0.0
C3570 C 0.57707 0.47388 0.54615 0.0
C3571 C 0.57377 0.48997 0.53908 0.0
C3572 C 0.55695 0.48957 0.53037 0.0
C3573 C 0.54365 0.47257 0.5287 0.0
C3574 C 0.54696 0.45658 0.53578 0.0
H3575 H 0.59454 0.42297 0.52382 0.0
H3576 H 0.58083 0.43887 0.51872 0.0
H3577 H 0.6 0.44751 0.53608 0.0
H3578 H 0.59001 0.47472 0.55316 0.0
H3579 H 0.58432 0.5028 0.5407 0.0
H3580 H 0.46704 0.75904 0.34598 0.0
H3581 H 0.44146 0.76072 0.3248 0.0
H3582 H 0.41365 0.76866 0.37339 0.0
H3583 H 0.43915 0.76726 0.39464 0.0
H3584 H 0.40726 0.73808 0.31871 0.0
H3585 H 0.40847 0.81392 0.34756 0.0
H3586 H 0.42663 0.80349 0.35277 0.0
H3587 H 0.40785 0.79872 0.36529 0.0
C3588 C 0.45549 0.76114 0.35217 0.0
C3589 C 0.45524 0.76313 0.37206 0.0
C3590 C 0.44086 0.7621 0.34004 0.0
C3591 C 0.42572 0.76519 0.34752 0.0
C3592 C 0.4253 0.76673 0.3673 0.0
H3593 H 0.32447 0.77552 0.29505 0.0
H3594 H 0.34902 0.77326 0.31756 0.0
C3595 C 0.43989 0.76579 0.37944 0.0
C3596 C 0.41031 0.76657 0.33462 0.0
H3597 H 0.38388 0.79639 0.32537 0.0
C3598 C 0.40219 0.75086 0.32013 0.0
C3599 C 0.40361 0.78321 0.33651 0.0
C3600 C 0.41216 0.80088 0.35125 0.0
C3601 C 0.3875 0.75125 0.30765 0.0
C3602 C 0.3809 0.76794 0.30945 0.0
C3603 C 0.38891 0.78359 0.32402 0.0
C3604 C 0.36604 0.76963 0.29595 0.0
C3605 C 0.379 0.73364 0.29282 0.0
C3606 C 0.36751 0.76869 0.27639 0.0
C3607 C 0.35357 0.77012 0.26361 0.0
C3608 C 0.33788 0.77268 0.27011 0.0
C3609 C 0.33646 0.77385 0.2897 0.0
C3610 C 0.35045 0.77245 0.30253 0.0
H3611 H 0.38247 0.72053 0.29663 0.0
H3612 H 0.36454 0.7312 0.29102 0.0
H3613 H 0.38359 0.73576 0.27888 0.0
H3614 H 0.37949 0.7669 0.271 0.0
H3615 H 0.35507 0.7692 0.24859 0.0
H3616 H 0.10208 0.75147 0.08954 0.0
H3617 H 0.09306 0.71702 0.07657 0.0
H3618 H 0.03893 0.71912 0.07343 0.0
H3619 H 0.04779 0.75365 0.08654 0.0
H3620 H 0.06794 0.68949 0.09591 0.0
H3621 H 0.04626 0.68901 0.01928 0.0
H3622 H 0.06212 0.70917 0.03387 0.0
H3623 H 0.03953 0.70502 0.03733 0.0
C3624 C 0.08825 0.74472 0.08585 0.0
C3625 C 0.07566 0.75535 0.08912 0.0
C3626 C 0.08313 0.72501 0.07847 0.0
C3627 C 0.06535 0.71558 0.07399 0.0
C3628 C 0.05273 0.7262 0.07665 0.0
H3629 H 0.01815 0.59333 0.0278 0.0
H3630 H 0.02224 0.62796 0.03887 0.0
C3631 C 0.05783 0.74591 0.08418 0.0
C3632 C 0.0601 0.69442 0.06779 0.0
H3633 H 0.04414 0.65894 0.02889 0.0
C3634 C 0.06268 0.68278 0.08127 0.0
C3635 C 0.05301 0.68576 0.04878 0.0
C3636 C 0.05007 0.69778 0.03385 0.0
C3637 C 0.05855 0.66265 0.07621 0.0
C3638 C 0.05215 0.65394 0.05698 0.0
C3639 C 0.04911 0.6656 0.0436 0.0
C3640 C 0.04946 0.6329 0.05035 0.0
C3641 C 0.06097 0.65092 0.09159 0.0
C3642 C 0.06344 0.62421 0.05285 0.0
C3643 C 0.06113 0.60448 0.04675 0.0
C3644 C 0.04481 0.59296 0.0377 0.0
C3645 C 0.03085 0.60173 0.03486 0.0
C3646 C 0.03318 0.62153 0.04112 0.0
H3647 H 0.0602 0.65886 0.10594 0.0
H3648 H 0.05097 0.637 0.08892 0.0
H3649 H 0.0741 0.64789 0.09186 0.0
H3650 H 0.07626 0.63275 0.05942 0.0
H3651 H 0.07226 0.59835 0.04895 0.0
H3652 H 0.04285 0.25647 0.84686 0.0
H3653 H 0.06863 0.25986 0.82983 0.0
H3654 H 0.10118 0.29162 0.88156 0.0
H3655 H 0.07569 0.28797 0.8987 0.0
H3656 H 0.09211 0.29197 0.82356 0.0
H3657 H 0.12651 0.25032 0.86607 0.0
H3658 H 0.10381 0.25023 0.86712 0.0
H3659 H 0.1208 0.26985 0.88056 0.0
C3660 C 0.0555 0.26413 0.85461 0.0
C3661 C 0.0572 0.27178 0.8742 0.0
C3662 C 0.07023 0.26608 0.84486 0.0
C3663 C 0.08692 0.27565 0.8545 0.0
C3664 C 0.08854 0.28372 0.87392 0.0
H3665 H 0.1922 0.30636 0.82395 0.0
H3666 H 0.16563 0.30368 0.83947 0.0
C3667 C 0.07389 0.2817 0.88368 0.0
C3668 C 0.10264 0.27745 0.84431 0.0
H3669 H 0.14318 0.26822 0.84572 0.0
C3670 C 0.10322 0.28666 0.82832 0.0
C3671 C 0.11716 0.27049 0.8505 0.0
C3672 C 0.11702 0.2595 0.86688 0.0
C3673 C 0.11806 0.28949 0.81865 0.0
C3674 C 0.13265 0.2828 0.82505 0.0
C3675 C 0.13203 0.27349 0.84094 0.0
C3676 C 0.14859 0.28501 0.81529 0.0
C3677 C 0.1182 0.29998 0.80192 0.0
C3678 C 0.14785 0.27532 0.79657 0.0
C3679 C 0.16303 0.27664 0.78772 0.0
C3680 C 0.17934 0.2877 0.79739 0.0
C3681 C 0.17996 0.29754 0.81612 0.0
C3682 C 0.16477 0.29612 0.82499 0.0
H3683 H 0.10774 0.30792 0.80146 0.0
H3684 H 0.13104 0.31032 0.8025 0.0
H3685 H 0.11603 0.28941 0.78844 0.0
H3686 H 0.13557 0.26636 0.78895 0.0
H3687 H 0.16203 0.26851 0.77348 0.0
H3688 H 0.5828 0.76801 0.881 0.0
H3689 H 0.57846 0.73977 0.89662 0.0
H3690 H 0.59732 0.77646 0.95139 0.0
H3691 H 0.60205 0.80474 0.9359 0.0
H3692 H 0.61049 0.74416 0.94681 0.0
H3693 H 0.53833 0.72467 0.92764 0.0
H3694 H 0.55034 0.72642 0.90756 0.0
H3695 H 0.55188 0.74755 0.92505 0.0
C3696 C 0.58613 0.77008 0.89638 0.0
C3697 C 0.59265 0.78865 0.90724 0.0
C3698 C 0.58353 0.75392 0.90526 0.0
C3699 C 0.58724 0.75607 0.92519 0.0
C3700 C 0.59428 0.77451 0.936 0.0
H3701 H 0.54872 0.67581 0.99846 0.0
H3702 H 0.55536 0.70272 0.9812 0.0
C3703 C 0.59697 0.79067 0.92712 0.0
C3704 C 0.58354 0.73915 0.93486 0.0
H3705 H 0.55054 0.70282 0.94265 0.0
C3706 C 0.5974 0.73509 0.9459 0.0
C3707 C 0.56639 0.72754 0.93384 0.0
C3708 C 0.55084 0.73182 0.92304 0.0
C3709 C 0.59458 0.71964 0.95591 0.0
C3710 C 0.5775 0.70775 0.95452 0.0
C3711 C 0.56364 0.71186 0.94354 0.0
C3712 C 0.57359 0.69134 0.96487 0.0
C3713 C 0.60983 0.7165 0.96829 0.0
C3714 C 0.58147 0.67591 0.96123 0.0
C3715 C 0.57785 0.6606 0.97123 0.0
C3716 C 0.56614 0.66037 0.98493 0.0
C3717 C 0.55802 0.6757 0.98825 0.0
C3718 C 0.5617 0.69102 0.9783 0.0
H3719 H 0.62085 0.72957 0.97165 0.0
H3720 H 0.60584 0.7124 0.98191 0.0
H3721 H 0.61465 0.70465 0.96059 0.0
H3722 H 0.59043 0.67571 0.95065 0.0
H3723 H 0.58444 0.6491 0.96842 0.0
H3724 H 0.05068 0.78483 0.70364 0.0
H3725 H 0.07798 0.78508 0.72281 0.0
H3726 H 0.05541 0.72816 0.73326 0.0
H3727 H 0.02802 0.72769 0.71407 0.0
H3728 H 0.08587 0.77678 0.76276 0.0
H3729 H 0.09848 0.72503 0.70278 0.0
H3730 H 0.08273 0.73919 0.69963 0.0
H3731 H 0.07771 0.71889 0.71157 0.0
C3732 C 0.0514 0.77247 0.71025 0.0
C3733 C 0.03727 0.75612 0.70713 0.0
C3734 C 0.06698 0.77269 0.72126 0.0
C3735 C 0.06867 0.75658 0.72925 0.0
C3736 C 0.05431 0.74067 0.72707 0.0
H3737 H 0.16549 0.72802 0.76615 0.0
H3738 H 0.1345 0.72732 0.76084 0.0
C3739 C 0.0387 0.74044 0.7161 0.0
C3740 C 0.08597 0.75571 0.73811 0.0
H3741 H 0.12008 0.73573 0.7293 0.0
C3742 C 0.09335 0.7677 0.7556 0.0
C3743 C 0.09559 0.74384 0.72864 0.0
C3744 C 0.08836 0.73106 0.70955 0.0
C3745 C 0.11027 0.76819 0.76389 0.0
C3746 C 0.1201 0.75671 0.75412 0.0
C3747 C 0.1125 0.74444 0.73682 0.0
C3748 C 0.13864 0.75787 0.76079 0.0
C3749 C 0.11739 0.78089 0.783 0.0
C3750 C 0.15127 0.77536 0.76296 0.0
C3751 C 0.16905 0.77589 0.76633 0.0
C3752 C 0.17453 0.75885 0.76727 0.0
C3753 C 0.16179 0.74147 0.7658 0.0
C3754 C 0.14403 0.74101 0.76263 0.0
H3755 H 0.10667 0.78342 0.7913 0.0
H3756 H 0.12621 0.77452 0.79161 0.0
H3757 H 0.12493 0.79509 0.78069 0.0
H3758 H 0.14746 0.7885 0.76118 0.0
H3759 H 0.1785 0.78956 0.76766 0.0
H3760 H 0.06791 0.39843 0.38654 0.0
H3761 H 0.06098 0.42144 0.41159 0.0
H3762 H 0.08339 0.39501 0.4547 0.0
H3763 H 0.09032 0.37186 0.42979 0.0
H3764 H 0.04903 0.40028 0.45916 0.0
H3765 H 0.09522 0.46701 0.44859 0.0
H3766 H 0.08168 0.45296 0.42734 0.0
H3767 H 0.09764 0.44325 0.43945 0.0
C3768 C 0.07152 0.39761 0.40135 0.0
C3769 C 0.07968 0.38333 0.40618 0.0
C3770 C 0.06761 0.41081 0.41563 0.0
C3771 C 0.07181 0.40998 0.43495 0.0
C3772 C 0.0801 0.39588 0.43984 0.0
H3773 H 0.0691 0.4948 0.53294 0.0
H3774 H 0.07681 0.47052 0.5099 0.0
C3775 C 0.08409 0.38272 0.42559 0.0
C3776 C 0.06692 0.42332 0.45006 0.0
H3777 H 0.07431 0.47079 0.4697 0.0
C3778 C 0.05458 0.41569 0.46154 0.0
C3779 C 0.07431 0.44337 0.45313 0.0
C3780 C 0.08806 0.4522 0.44161 0.0
C3781 C 0.04922 0.42768 0.47592 0.0
C3782 C 0.05632 0.44776 0.47871 0.0
C3783 C 0.06884 0.45536 0.4674 0.0
C3784 C 0.0511 0.46121 0.49344 0.0
C3785 C 0.03617 0.41879 0.48815 0.0
C3786 C 0.03402 0.4638 0.49189 0.0
C3787 C 0.02957 0.47765 0.50506 0.0
C3788 C 0.04218 0.48912 0.51985 0.0
C3789 C 0.0591 0.48607 0.52172 0.0
C3790 C 0.06355 0.4723 0.50853 0.0
H3791 H 0.03485 0.40305 0.48695 0.0
H3792 H 0.04002 0.42568 0.50339 0.0
H3793 H 0.02316 0.4211 0.48347 0.0
H3794 H 0.0243 0.45554 0.48017 0.0
H3795 H 0.01646 0.47981 0.50335 0.0
H3796 H 0.42685 0.26278 0.15319 0.0
H3797 H 0.40243 0.2607 0.172 0.0
H3798 H 0.42422 0.22526 0.2061 0.0
H3799 H 0.44902 0.22779 0.18774 0.0
H3800 H 0.37724 0.23121 0.18037 0.0
H3801 H 0.42224 0.27061 0.24584 0.0
H3802 H 0.42932 0.2684 0.2225 0.0
H3803 H 0.42648 0.24839 0.23503 0.0
C3804 C 0.42636 0.25439 0.16457 0.0
C3805 C 0.43998 0.24573 0.16921 0.0
C3806 C 0.41238 0.25316 0.17527 0.0
C3807 C 0.41172 0.24314 0.19067 0.0
C3808 C 0.42472 0.23345 0.19456 0.0
H3809 H 0.3191 0.24678 0.25078 0.0
H3810 H 0.34117 0.23236 0.23652 0.0
C3811 C 0.43884 0.23487 0.18403 0.0
C3812 C 0.39806 0.24418 0.20334 0.0
H3813 H 0.39225 0.26409 0.24798 0.0
C3814 C 0.38045 0.23811 0.19525 0.0
C3815 C 0.40239 0.25322 0.22274 0.0
C3816 C 0.42111 0.26068 0.23208 0.0
C3817 C 0.36707 0.24186 0.20572 0.0
C3818 C 0.37148 0.25159 0.22487 0.0
C3819 C 0.38898 0.25655 0.23331 0.0
C3820 C 0.35875 0.25967 0.23527 0.0
C3821 C 0.34852 0.23658 0.19581 0.0
C3822 C 0.36169 0.27972 0.23996 0.0
C3823 C 0.3493 0.28796 0.24822 0.0
C3824 C 0.33364 0.2763 0.25194 0.0
C3825 C 0.33099 0.25615 0.24797 0.0
C3826 C 0.34352 0.24788 0.23973 0.0
H3827 H 0.34775 0.23165 0.18018 0.0
H3828 H 0.34059 0.22477 0.20188 0.0
H3829 H 0.34256 0.24907 0.19813 0.0
H3830 H 0.37339 0.28906 0.23665 0.0
H3831 H 0.35182 0.3035 0.25118 0.0
H3832 H 0.65824 0.53522 0.33935 0.0
H3833 H 0.64627 0.5393 0.37013 0.0
H3834 H 0.59713 0.50138 0.3436 0.0
H3835 H 0.60887 0.49715 0.31334 0.0
H3836 H 0.6183 0.55312 0.38329 0.0
H3837 H 0.60508 0.47624 0.38892 0.0
H3838 H 0.61827 0.48602 0.37176 0.0
H3839 H 0.59475 0.47981 0.3668 0.0
C3840 C 0.6449 0.52766 0.34003 0.0
C3841 C 0.63477 0.51565 0.32342 0.0
C3842 C 0.63796 0.53005 0.35781 0.0
C3843 C 0.62067 0.52038 0.35981 0.0
C3844 C 0.61057 0.50873 0.34312 0.0
H3845 H 0.54524 0.50584 0.44191 0.0
H3846 H 0.5628 0.50556 0.41575 0.0
C3847 C 0.61741 0.5064 0.3255 0.0
C3848 C 0.61299 0.52224 0.37894 0.0
H3849 H 0.59097 0.49541 0.40922 0.0
C3850 C 0.61252 0.54045 0.38901 0.0
C3851 C 0.60529 0.50596 0.38697 0.0
C3852 C 0.60601 0.48593 0.37818 0.0
C3853 C 0.60408 0.54267 0.40584 0.0
C3854 C 0.59595 0.52629 0.41355 0.0
C3855 C 0.5969 0.50817 0.40372 0.0
C3856 C 0.58538 0.5272 0.43072 0.0
C3857 C 0.60332 0.56263 0.4147 0.0
C3858 C 0.59174 0.53933 0.44877 0.0
C3859 C 0.5814 0.53956 0.46422 0.0
C3860 C 0.56431 0.52755 0.46227 0.0
C3861 C 0.55822 0.51537 0.44435 0.0
C3862 C 0.56842 0.51516 0.4291 0.0
H3863 H 0.60595 0.57291 0.40461 0.0
H3864 H 0.59033 0.56263 0.41939 0.0
H3865 H 0.61341 0.56792 0.42739 0.0
H3866 H 0.60483 0.54857 0.45108 0.0
H3867 H 0.58676 0.54922 0.47758 0.0
H3868 H 0.31855 0.92213 0.04672 0.0
H3869 H 0.32115 0.89925 0.06798 0.0
H3870 H 0.29311 0.85236 0.02351 0.0
H3871 H 0.29075 0.87516 1.0019 0.0
H3872 H 0.29518 0.8743 0.08049 0.0
H3873 H 0.33654 0.83448 0.04019 0.0
H3874 H 0.3332 0.8572 0.03522 0.0
H3875 H 0.31664 0.83533 0.02645 0.0
C3876 C 0.31291 0.90696 0.04142 0.0
C3877 C 0.30448 0.90044 0.02259 0.0
C3878 C 0.31446 0.89391 0.05358 0.0
C3879 C 0.30762 0.87412 0.04719 0.0
C3880 C 0.29887 0.86755 0.02855 0.0
H3881 H 0.28544 0.78481 0.11421 0.0
H3882 H 0.28683 0.80366 0.08856 0.0
C3883 C 0.29738 0.88061 0.0163 0.0
C3884 C 0.30913 0.86052 0.06038 0.0
H3885 H 0.32539 0.82174 0.06672 0.0
C3886 C 0.30184 0.86287 0.0775 0.0
C3887 C 0.31794 0.8457 0.05646 0.0
C3888 C 0.32668 0.84308 0.03867 0.0
C3889 C 0.30293 0.85062 0.09073 0.0
C3890 C 0.31142 0.83563 0.08665 0.0
C3891 C 0.31885 0.83328 0.06965 0.0
C3892 C 0.31228 0.82215 0.09998 0.0
C3893 C 0.29496 0.85366 0.10902 0.0
C3894 C 0.32645 0.82604 0.11446 0.0
C3895 C 0.32578 0.81522 0.12914 0.0
C3896 C 0.31089 0.80042 0.12949 0.0
C3897 C 0.2972 0.7959 0.11426 0.0
C3898 C 0.29791 0.8067 0.09962 0.0
H3899 H 0.28967 0.86668 0.11052 0.0
H3900 H 0.28418 0.84094 0.10936 0.0
H3901 H 0.30492 0.85509 0.1215 0.0
H3902 H 0.33762 0.83801 0.1149 0.0
H3903 H 0.3366 0.81889 0.14056 0.0
H3904 H 0.9206 0.54274 0.8781 0.0
H3905 H 0.94236 0.55123 0.90641 0.0
H3906 H 0.9703 0.60005 0.88444 0.0
H3907 H 0.94877 0.59141 0.85584 0.0
H3908 H 0.9902 0.57611 0.89043 0.0
H3909 H 0.95848 0.59008 0.95498 0.0
H3910 H 0.94656 0.56796 0.94012 0.0
H3911 H 0.94816 0.59031 0.93138 0.0
C3912 C 0.93106 0.55563 0.87954 0.0
C3913 C 0.93314 0.56621 0.8646 0.0
C3914 C 0.94344 0.56058 0.89585 0.0
C3915 C 0.95792 0.57635 0.8976 0.0
C3916 C 0.9592 0.58786 0.8834 0.0
H3917 H 0.04786 0.58418 0.98484 0.0
H3918 H 0.02794 0.59606 0.96371 0.0
C3919 C 0.94691 0.58285 0.86704 0.0
C3920 C 0.97314 0.57844 0.91213 0.0
H3921 H 0.98428 0.57688 0.95906 0.0
C3922 C 0.98904 0.57689 0.90554 0.0
C3923 C 0.97167 0.57946 0.93184 0.0
C3924 C 0.95532 0.58225 0.93998 0.0
C3925 C 1.003 0.57479 0.91787 0.0
C3926 C 1.00097 0.57423 0.93719 0.0
C3927 C 0.98564 0.57721 0.94414 0.0
C3928 C 0.01347 0.56763 0.94951 0.0
C3929 C 0.01945 0.57194 0.91001 0.0
C3930 C 0.0119 0.54783 0.94818 0.0
C3931 C 0.02313 0.54108 0.96009 0.0
C3932 C 0.03612 0.55405 0.97345 0.0
C3933 C 0.03802 0.57394 0.97445 0.0
C3934 C 0.02663 0.58072 0.96258 0.0
H3935 H 0.02014 0.57582 0.89557 0.0
H3936 H 0.03118 0.58073 0.91977 0.0
H3937 H 0.0198 0.5566 0.90901 0.0
H3938 H 1.00177 0.53759 0.93811 0.0
H3939 H 0.02145 0.52569 0.95913 0.0
H3940 H 0.27471 0.24291 0.53862 0.0
H3941 H 0.27752 0.25641 0.57263 0.0
H3942 H 0.29748 0.20895 0.58695 0.0
H3943 H 0.29441 0.19519 0.55307 0.0
H3944 H 0.27179 0.21533 0.60782 0.0
H3945 H 0.32074 0.2841 0.6101 0.0
H3946 H 0.30184 0.28045 0.59278 0.0
H3947 H 0.31627 0.26461 0.58997 0.0
C3948 C 0.27987 0.23544 0.54899 0.0
C3949 C 0.28434 0.21796 0.54308 0.0
C3950 C 0.28156 0.24324 0.56845 0.0
C3951 C 0.28793 0.23384 0.58237 0.0
C3952 C 0.29258 0.21651 0.57648 0.0
H3953 H 0.31937 0.27707 0.70399 0.0
H3954 H 0.31836 0.26641 0.66965 0.0
C3955 C 0.29083 0.20866 0.55707 0.0
C3956 C 0.2889 0.24143 0.60309 0.0
H3957 H 0.30691 0.28055 0.63804 0.0
C3958 C 0.27951 0.22957 0.61442 0.0
C3959 C 0.29913 0.25994 0.61177 0.0
C3960 C 0.31021 0.27296 0.60059 0.0
C3961 C 0.27991 0.23576 0.6341 0.0
C3962 C 0.28968 0.2545 0.64267 0.0
C3963 C 0.29926 0.26628 0.63141 0.0
C3964 C 0.29033 0.26193 0.66337 0.0
C3965 C 0.27013 0.22199 0.6456 0.0
C3966 C 0.27496 0.26341 0.67121 0.0
C3967 C 0.27547 0.2694 0.69086 0.0
C3968 C 0.2914 0.27422 0.70309 0.0
C3969 C 0.30686 0.27338 0.69507 0.0
C3970 C 0.30632 0.26731 0.67541 0.0
H3971 H 0.26733 0.20683 0.63812 0.0
H3972 H 0.27767 0.2232 0.65983 0.0
H3973 H 0.25745 0.2255 0.64784 0.0
H3974 H 0.26252 0.25976 0.66213 0.0
H3975 H 0.26331 0.27004 0.69645 0.0
H3976 H 0.64323 0.55581 0.2209 0.0
H3977 H 0.62773 0.55441 0.18958 0.0
H3978 H 0.61722 0.49255 0.17965 0.0
H3979 H 0.63281 0.49386 0.21163 0.0
H3980 H 0.63417 0.54299 0.15483 0.0
H3981 H 0.56918 0.49791 0.16169 0.0
H3982 H 0.58579 0.50786 0.18198 0.0
H3983 H 0.58699 0.48684 0.16572 0.0
C3984 C 0.63758 0.54173 0.21229 0.0
C3985 C 0.63946 0.52493 0.2193 0.0
C3986 C 0.62863 0.541 0.19408 0.0
C3987 C 0.6209 0.52342 0.18179 0.0
C3988 C 0.62259 0.50644 0.18867 0.0
H3989 H 0.56259 0.50252 0.06356 0.0
H3990 H 0.57701 0.49868 0.09428 0.0
C3991 C 0.63167 0.50717 0.2071 0.0
C3992 C 0.61181 0.52343 0.16184 0.0
H3993 H 0.57292 0.50709 0.13162 0.0
C3994 C 0.62076 0.53508 0.1499 0.0
C3995 C 0.59426 0.51314 0.1548 0.0
C3996 C 0.58339 0.50085 0.16672 0.0
C3997 C 0.61294 0.53672 0.13167 0.0
C3998 C 0.59525 0.52686 0.12481 0.0
C3999 C 0.58638 0.51485 0.13654 0.0
C4000 C 0.58581 0.52912 0.10584 0.0
C4001 C 0.62404 0.54881 0.11973 0.0
C4002 C 0.58531 0.54745 0.10164 0.0
C4003 C 0.57706 0.54969 0.08395 0.0
C4004 C 0.56873 0.53369 0.06962 0.0
C4005 C 0.56884 0.5153 0.07396 0.0
C4006 C 0.57713 0.51306 0.09172 0.0
H4007 H 0.63819 0.55001 0.12376 0.0
H4008 H 0.62058 0.54273 0.10426 0.0
H4009 H 0.62195 0.56357 0.12216 0.0
H4010 H 0.59129 0.56021 0.11215 0.0
H4011 H 0.57727 0.56413 0.08152 0.0
H4012 H 0.30783 0.92243 0.93794 0.0
H4013 H 0.30649 0.89731 0.91053 0.0
H4014 H 0.3496 0.88073 0.93916 0.0
H4015 H 0.3512 0.906 0.96666 0.0
H4016 H 0.35163 0.88214 0.89985 0.0
H4017 H 0.2872 0.83969 0.91198 0.0
H4018 H 0.28745 0.86428 0.91059 0.0
H4019 H 0.30081 0.85891 0.92983 0.0
C4020 C 0.31715 0.91358 0.93837 0.0
C4021 C 0.32953 0.91611 0.95454 0.0
C4022 C 0.31628 0.89916 0.92275 0.0
C4023 C 0.32771 0.88695 0.92305 0.0
C4024 C 0.34058 0.88994 0.93877 0.0
H4025 H 0.30108 0.7826 0.83576 0.0
H4026 H 0.31169 0.80361 0.8669 0.0
C4027 C 0.34148 0.90439 0.95444 0.0
C4028 C 0.3259 0.87088 0.90701 0.0
H4029 H 0.29631 0.83138 0.88146 0.0
C4030 C 0.33964 0.87088 0.89593 0.0
C4031 C 0.31041 0.85597 0.90225 0.0
C4032 C 0.29569 0.85454 0.9144 0.0
C4033 C 0.33787 0.85693 0.87948 0.0
C4034 C 0.32186 0.84288 0.87392 0.0
C4035 C 0.30853 0.84226 0.88565 0.0
C4036 C 0.31794 0.82986 0.85519 0.0
C4037 C 0.35306 0.85753 0.86809 0.0
C4038 C 0.31811 0.83766 0.83835 0.0
C4039 C 0.31209 0.82575 0.82066 0.0
C4040 C 0.30562 0.80584 0.81952 0.0
C4041 C 0.306 0.79792 0.83629 0.0
C4042 C 0.31206 0.80987 0.85403 0.0
H4043 H 0.36571 0.8643 0.87728 0.0
H4044 H 0.35339 0.84287 0.86111 0.0
H4045 H 0.35177 0.86631 0.85681 0.0
H4046 H 0.32216 0.85307 0.83892 0.0
H4047 H 0.31187 0.83225 0.80795 0.0
H4048 H 0.96589 0.51129 0.79004 0.0
H4049 H 0.98677 0.50588 0.76772 0.0
H4050 H 0.9808 0.55598 0.74443 0.0
H4051 H 0.96018 0.56158 0.76663 0.0
H4052 H 0.9792 0.49872 0.72843 0.0
H4053 H 0.03364 0.56327 0.75128 0.0
H4054 H 0.01745 0.55547 0.76657 0.0
H4055 H 0.01315 0.56986 0.74901 0.0
C4056 C 0.96928 0.52133 0.78038 0.0
C4057 C 0.96138 0.53685 0.78006 0.0
C4058 C 0.98119 0.51822 0.76767 0.0
C4059 C 0.98553 0.53071 0.75468 0.0
C4060 C 0.97796 0.54644 0.75467 0.0
H4061 H 0.99806 0.52662 0.64237 0.0
H4062 H 0.98982 0.51989 0.67314 0.0
C4063 C 0.96605 0.54951 0.76726 0.0
C4064 C 0.99651 0.52654 0.73972 0.0
H4065 H 0.02915 0.54938 0.71732 0.0
C4066 C 0.99044 0.50953 0.72623 0.0
C4067 C 0.01144 0.54038 0.73712 0.0
C4068 C 0.01941 0.55816 0.75192 0.0
C4069 C 0.99783 0.50696 0.7092 0.0
C4070 C 0.01133 0.52196 0.70554 0.0
C4071 C 0.01858 0.53801 0.71995 0.0
C4072 C 0.01632 0.52276 0.68616 0.0
C4073 C 0.99059 0.48859 0.69498 0.0
C4074 C 0.03398 0.52675 0.68324 0.0
C4075 C 0.03874 0.53084 0.66566 0.0
C4076 C 0.02591 0.53105 0.65076 0.0
C4077 C 0.00821 0.52628 0.65348 0.0
C4078 C 1.00348 0.5223 0.67105 0.0
H4079 H 0.98602 0.4763 0.70239 0.0
H4080 H 0.97914 0.49012 0.68569 0.0
H4081 H 1.00048 0.4852 0.68583 0.0
H4082 H 0.0441 0.52733 0.69477 0.0
H4083 H 0.05248 0.53428 0.66386 0.0
H4084 H 0.29732 0.19986 0.44113 0.0
H4085 H 0.30238 0.21562 0.41336 0.0
H4086 H 0.25589 0.23643 0.41857 0.0
H4087 H 0.2506 0.22061 0.44625 0.0
H4088 H 0.27635 0.20977 0.37762 0.0
H4089 H 0.29792 0.28493 0.41773 0.0
H4090 H 0.299 0.26433 0.42886 0.0
H4091 H 0.27835 0.26993 0.42354 0.0
C4092 C 0.28818 0.20784 0.43643 0.0
C4093 C 0.27356 0.209 0.44597 0.0
C4094 C 0.29108 0.21678 0.42052 0.0
C4095 C 0.27955 0.22724 0.41399 0.0
C4096 C 0.265 0.22851 0.42348 0.0
H4097 H 0.26935 0.27342 0.30864 0.0
H4098 H 0.2642 0.25606 0.33541 0.0
C4099 C 0.26199 0.21944 0.43928 0.0
C4100 C 0.2827 0.23675 0.39716 0.0
H4101 H 0.29483 0.28083 0.38403 0.0
C4102 C 0.28038 0.2253 0.37899 0.0
C4103 C 0.28806 0.257 0.39905 0.0
C4104 C 0.29112 0.26986 0.41833 0.0
C4105 C 0.2831 0.23362 0.36258 0.0
C4106 C 0.28826 0.25387 0.36444 0.0
C4107 C 0.29078 0.2653 0.38265 0.0
C4108 C 0.29139 0.26351 0.34769 0.0
C4109 C 0.28067 0.22074 0.34337 0.0
C4110 C 0.30837 0.27344 0.34574 0.0
C4111 C 0.31135 0.2832 0.33041 0.0
C4112 C 0.29738 0.28343 0.31687 0.0
C4113 C 0.28039 0.27338 0.31877 0.0
C4114 C 0.27743 0.26346 0.33404 0.0
H4115 H 0.27955 0.20544 0.34472 0.0
H4116 H 0.26855 0.22168 0.33485 0.0
H4117 H 0.29178 0.2255 0.33536 0.0
H4118 H 0.31931 0.27369 0.35615 0.0
H4119 H 0.32458 0.29084 0.32933 0.0
H4120 H 0.31499 0.5932 0.53503 0.0
H4121 H 0.3402 0.57941 0.53237 0.0
H4122 H 0.37106 0.63349 0.52261 0.0
H4123 H 0.34583 0.64758 0.52531 0.0
H4124 H 0.35795 0.57846 0.49818 0.0
H4125 H 0.40153 0.6164 0.56516 0.0
H4126 H 0.37823 0.61436 0.56244 0.0
H4127 H 0.39218 0.63084 0.55072 0.0
C4128 C 0.32717 0.60227 0.53252 0.0
C4129 C 0.32842 0.62146 0.5303 0.0
C4130 C 0.34153 0.59435 0.531 0.0
C4131 C 0.3574 0.60549 0.52738 0.0
C4132 C 0.35891 0.62479 0.52562 0.0
H4133 H 0.45465 0.57362 0.50984 0.0
H4134 H 0.43182 0.59105 0.51387 0.0
C4135 C 0.34449 0.63276 0.52712 0.0
C4136 C 0.37196 0.59639 0.5243 0.0
H4137 H 0.4122 0.5946 0.54427 0.0
C4138 C 0.36985 0.58198 0.50821 0.0
C4139 C 0.38742 0.60122 0.53739 0.0
C4140 C 0.39006 0.61647 0.55499 0.0
C4141 C 0.38283 0.57208 0.50488 0.0
C4142 C 0.39809 0.57649 0.51827 0.0
C4143 C 0.40038 0.59121 0.53415 0.0
C4144 C 0.41181 0.56589 0.51606 0.0
C4145 C 0.38019 0.55714 0.48701 0.0
C4146 C 0.40807 0.54605 0.51622 0.0
C4147 C 0.42108 0.53605 0.51396 0.0
C4148 C 0.43803 0.54584 0.51173 0.0
C4149 C 0.44175 0.56577 0.51181 0.0
C4150 C 0.42874 0.57572 0.51401 0.0
H4151 H 0.37026 0.55915 0.47595 0.0
H4152 H 0.39264 0.55765 0.48085 0.0
H4153 H 0.37553 0.54262 0.4906 0.0
H4154 H 0.39511 0.53833 0.51817 0.0
H4155 H 0.41794 0.52074 0.51416 0.0
H4156 H 0.85722 0.93936 0.49385 0.0
H4157 H 0.8878 0.957 0.49694 0.0
H4158 H 0.89031 0.96592 0.55835 0.0
H4159 H 0.85977 0.94782 0.55539 0.0
H4160 H 0.90359 0.99372 0.51287 0.0
H4161 H 0.93248 0.94436 0.55076 0.0
H4162 H 0.91004 0.93795 0.53968 0.0
H4163 H 0.91622 0.95339 0.56265 0.0
C4164 C 0.86425 0.94504 0.50804 0.0
C4165 C 0.85605 0.94209 0.52438 0.0
C4166 C 0.88176 0.95513 0.50978 0.0
C4167 C 0.89148 0.9625 0.52788 0.0
C4168 C 0.88323 0.95994 0.54424 0.0
H4169 H 0.99757 0.03623 0.55882 0.0
H4170 H 0.96755 0.01789 0.5598 0.0
C4171 C 0.86572 0.94972 0.54251 0.0
C4172 C 0.9101 0.9732 0.52944 0.0
H4173 H 0.95183 0.97345 0.54708 0.0
C4174 C 0.91411 0.98926 0.52034 0.0
C4175 C 0.92387 0.96737 0.5392 0.0
C4176 C 0.92051 0.94973 0.54849 0.0
C4177 C 0.93146 0.99961 0.52071 0.0
C4178 C 0.94517 0.99374 0.53038 0.0
C4179 C 0.94123 0.9779 0.53973 0.0
C4180 C 0.96371 1.00363 0.53032 0.0
C4181 C 0.93509 0.01679 0.51077 0.0
C4182 C 0.97153 1.0013 0.51356 0.0
C4183 C 0.98863 0.01162 0.513 0.0
C4184 C 0.99817 0.02452 0.52919 0.0
C4185 C 0.99049 0.0264 0.54614 0.0
C4186 C 0.97339 0.01596 0.54672 0.0
H4187 H 0.923 0.02139 0.5067 0.0
H4188 H 0.94463 0.02909 0.52009 0.0
H4189 H 0.94093 0.01306 0.49759 0.0
H4190 H 0.96427 0.99175 0.5008 0.0
H4191 H 0.99419 0.0099 0.49972 0.0
H4192 H 0.87214 0.09649 0.24285 0.0
H4193 H 0.85542 0.12147 0.24247 0.0
H4194 H 0.90064 0.1643 0.27201 0.0
H4195 H 0.9172 0.13988 0.27221 0.0
H4196 H 0.84511 0.14642 0.26949 0.0
H4197 H 0.88945 0.19234 0.2305 0.0
H4198 H 0.89115 0.16832 0.23256 0.0
H4199 H 0.90081 0.18817 0.25174 0.0
C4200 C 0.87861 0.11123 0.24917 0.0
C4201 C 0.89635 0.11575 0.25741 0.0
C4202 C 0.86893 0.1257 0.249 0.0
C4203 C 0.87659 0.14538 0.25683 0.0
C4204 C 0.89418 0.14969 0.26527 0.0
H4205 H 0.84575 0.25765 0.27291 0.0
H4206 H 0.86066 0.23132 0.27204 0.0
C4207 C 0.90375 0.13538 0.26549 0.0
C4208 C 0.86646 0.16132 0.25663 0.0
H4209 H 0.86889 0.2067 0.24576 0.0
C4210 C 0.85033 0.15947 0.26409 0.0
C4211 C 0.87289 0.17882 0.24981 0.0
C4212 C 0.88942 0.182 0.24053 0.0
C4213 C 0.84104 0.17433 0.26542 0.0
C4214 C 0.84752 0.19188 0.25868 0.0
C4215 C 0.86359 0.19363 0.2511 0.0
C4216 C 0.83801 0.20843 0.25934 0.0
C4217 C 0.82459 0.17121 0.27486 0.0
C4218 C 0.82008 0.20521 0.25229 0.0
C4219 C 0.81142 0.22045 0.25287 0.0
C4220 C 0.82022 0.23984 0.26036 0.0
C4221 C 0.83823 0.24315 0.26714 0.0
C4222 C 0.84689 0.22787 0.26657 0.0
H4223 H 0.82447 0.16062 0.28464 0.0
H4224 H 0.82313 0.18486 0.28315 0.0
H4225 H 0.81311 0.16539 0.26371 0.0
H4226 H 0.81266 0.19081 0.24597 0.0
H4227 H 0.79769 0.21694 0.24725 0.0
H4228 H 0.71706 0.13465 0.02397 0.0
H4229 H 0.68721 0.11703 0.01088 0.0
H4230 H 0.70476 0.06507 0.99679 0.0
H4231 H 0.73462 0.0825 0.01056 0.0
H4232 H 0.67313 0.09764 0.97514 0.0
H4233 H 0.66602 0.04769 0.02776 0.0
H4234 H 0.68417 0.06848 0.03061 0.0
H4235 H 0.68367 0.04723 0.01374 0.0
C4236 C 0.71454 0.11944 0.0182 0.0
C4237 C 0.72809 0.10988 0.01851 0.0
C4238 C 0.69751 0.10942 0.01062 0.0
C4239 C 0.69374 0.0897 1.00304 0.0
C4240 C 0.70732 0.08018 1.00294 0.0
H4241 H 0.58513 0.02223 0.98249 0.0
H4242 H 0.61512 0.03024 0.97444 0.0
C4243 C 0.72435 0.09015 0.01081 0.0
C4244 C 0.67542 0.07925 0.99588 0.0
H4245 H 0.64134 0.04596 0.0064 0.0
C4246 C 0.66622 0.0861 0.98174 0.0
C4247 C 0.66648 0.06408 1.00438 0.0
C4248 C 0.6755 0.05649 0.02006 0.0
C4249 C 0.6481 0.07903 0.97677 0.0
C4250 C 0.63905 0.06477 0.98617 0.0
C4251 C 0.64841 0.05684 0.99915 0.0
C4252 C 0.61989 0.06061 0.98585 0.0
C4253 C 0.63865 0.08746 0.96218 0.0
C4254 C 0.61257 0.07515 0.99438 0.0
C4255 C 0.59567 0.07059 0.99923 0.0
C4256 C 0.58578 0.05145 0.99545 0.0
C4257 C 0.59249 0.03713 0.98537 0.0
C4258 C 0.60958 0.04166 0.9808 0.0
H4259 H 0.64746 0.09315 0.95201 0.0
H4260 H 0.6271 0.07659 0.95403 0.0
H4261 H 0.63404 0.0996 0.96963 0.0
H4262 H 0.62043 0.08978 0.99873 0.0
H4263 H 0.59074 0.08185 0.00698 0.0
H4264 H 0.16255 0.47277 0.29481 0.0
H4265 H 0.18248 0.45682 0.31077 0.0
H4266 H 0.2137 0.46027 0.26441 0.0
H4267 H 0.19401 0.47622 0.24839 0.0
H4268 H 0.20222 0.42182 0.2788 0.0
H4269 H 0.23638 0.48602 0.33345 0.0
H4270 H 0.21282 0.47959 0.32856 0.0
H4271 H 0.22557 0.48858 0.31091 0.0
C4272 C 0.17359 0.47 0.28795 0.0
C4273 C 0.17676 0.4758 0.27036 0.0
C4274 C 0.18496 0.46099 0.29713 0.0
C4275 C 0.19955 0.45761 0.28879 0.0
C4276 C 0.2025 0.4629 0.27105 0.0
H4277 H 0.29702 0.43519 0.30516 0.0
H4278 H 0.27188 0.44938 0.30525 0.0
C4279 C 0.19124 0.47199 0.26193 0.0
C4280 C 0.21199 0.44857 0.29833 0.0
H4281 H 0.24878 0.45929 0.33071 0.0
C4282 C 0.21222 0.42978 0.29042 0.0
C4283 C 0.22492 0.45917 0.31343 0.0
C4284 C 0.22508 0.47949 0.32218 0.0
C4285 C 0.22571 0.42161 0.29649 0.0
C4286 C 0.23915 0.4325 0.31107 0.0
C4287 C 0.2384 0.45097 0.31965 0.0
C4288 C 0.25521 0.42597 0.31547 0.0
C4289 C 0.22595 0.40183 0.28645 0.0
C4290 C 0.25448 0.4087 0.32231 0.0
C4291 C 0.26874 0.40036 0.32195 0.0
C4292 C 0.28399 0.40926 0.31484 0.0
C4293 C 0.2853 0.42765 0.31011 0.0
C4294 C 0.271 0.43588 0.31034 0.0
H4295 H 0.2164 0.39693 0.27324 0.0
H4296 H 0.23917 0.40148 0.28264 0.0
H4297 H 0.22245 0.39146 0.29622 0.0
H4298 H 0.24249 0.40103 0.32668 0.0
H4299 H 0.2672 0.38623 0.32577 0.0
H4300 H 0.27493 0.44926 0.04911 0.0
H4301 H 0.25003 0.46401 0.05113 0.0
H4302 H 0.21863 0.4177 0.00817 0.0
H4303 H 0.24327 0.40279 0.00617 0.0
H4304 H 0.23104 0.47631 0.02208 0.0
H4305 H 0.18813 0.41886 0.0515 0.0
H4306 H 0.21128 0.42085 0.05147 0.0
H4307 H 0.1963 0.41033 0.03006 0.0
C4308 C 0.26272 0.44219 0.04012 0.0
C4309 C 0.26109 0.42478 0.02755 0.0
C4310 C 0.2485 0.45064 0.04129 0.0
C4311 C 0.23238 0.44178 0.03004 0.0
C4312 C 0.23081 0.42457 0.01729 0.0
H4313 H 0.13128 0.46842 0.01163 0.0
H4314 H 0.15642 0.454 0.01124 0.0
C4315 C 0.24499 0.41614 0.01609 0.0
C4316 C 0.21729 0.45071 0.03124 0.0
H4317 H 0.17501 0.44257 0.04095 0.0
C4318 C 0.21883 0.46901 0.02634 0.0
C4319 C 0.20135 0.44112 0.03674 0.0
C4320 C 0.19915 0.42178 0.04292 0.0
C4321 C 0.20473 0.47779 0.02635 0.0
C4322 C 0.18875 0.46816 0.03177 0.0
C4323 C 0.18725 0.4499 0.03677 0.0
C4324 C 0.17344 0.4768 0.0323 0.0
C4325 C 0.20691 0.49708 0.02007 0.0
C4326 C 0.17455 0.49422 0.04451 0.0
C4327 C 0.16026 0.50256 0.04468 0.0
C4328 C 0.14448 0.49357 0.03273 0.0
C4329 C 0.14329 0.47587 0.02081 0.0
C4330 C 0.15762 0.46755 0.02066 0.0
H4331 H 0.21809 0.50011 0.01173 0.0
H4332 H 0.19487 0.49783 0.01122 0.0
H4333 H 0.20946 0.50857 0.03287 0.0
H4334 H 0.18652 0.50144 0.05388 0.0
H4335 H 0.16174 0.51627 0.0539 0.0
H4336 H 0.90868 0.98022 0.24061 0.0
H4337 H 0.89058 0.94924 0.2443 0.0
H4338 H 0.8494 0.97629 0.25925 0.0
H4339 H 0.86769 0.00774 0.25573 0.0
H4340 H 0.87568 0.93706 0.27657 0.0
H4341 H 0.82371 0.93046 0.21652 0.0
H4342 H 0.84474 0.94739 0.21902 0.0
H4343 H 0.82857 0.95235 0.23378 0.0
C4344 C 0.89576 0.97978 0.24465 0.0
C4345 C 0.88979 0.99683 0.24773 0.0
C4346 C 0.88536 0.96184 0.24682 0.0
C4347 C 0.86838 0.96 0.25188 0.0
C4348 C 0.86229 0.97699 0.25506 0.0
H4349 H 0.78489 0.85857 0.26051 0.0
H4350 H 0.80271 0.89047 0.2591 0.0
C4351 C 0.87285 0.99511 0.25311 0.0
C4352 C 0.85739 0.94038 0.25391 0.0
H4353 H 0.81994 0.9057 0.23479 0.0
C4354 C 0.86347 0.93025 0.26742 0.0
C4355 C 0.84136 0.93117 0.24211 0.0
C4356 C 0.83418 0.94075 0.22691 0.0
C4357 C 0.85402 0.91171 0.2697 0.0
C4358 C 0.8381 0.90227 0.25764 0.0
C4359 C 0.83204 0.9125 0.24413 0.0
C4360 C 0.82731 0.88222 0.259 0.0
C4361 C 0.86102 0.90281 0.28559 0.0
C4362 C 0.83476 0.86623 0.25943 0.0
C4363 C 0.82444 0.84775 0.26059 0.0
C4364 C 0.80623 0.84442 0.2609 0.0
C4365 C 0.79883 0.86034 0.2603 0.0
C4366 C 0.8091 0.87878 0.25939 0.0
H4367 H 0.86953 0.91396 0.2971 0.0
H4368 H 0.85027 0.89429 0.292 0.0
H4369 H 0.86907 0.89316 0.27979 0.0
H4370 H 0.84858 0.86789 0.25859 0.0
H4371 H 0.83075 0.8361 0.26109 0.0
H4372 H 0.70145 0.06498 0.72181 0.0
H4373 H 0.71985 0.09777 0.72859 0.0
H4374 H 0.70595 0.10487 0.78582 0.0
H4375 H 0.68711 0.07224 0.77899 0.0
H4376 H 0.70193 0.13409 0.76852 0.0
H4377 H 0.76713 0.12121 0.75921 0.0
H4378 H 0.75135 0.1098 0.73874 0.0
H4379 H 0.74864 0.10218 0.7614 0.0
C4380 C 0.70248 0.07343 0.73593 0.0
C4381 C 0.6928 0.06604 0.74985 0.0
C4382 C 0.71312 0.09212 0.73983 0.0
C4383 C 0.71452 0.10364 0.75782 0.0
C4384 C 0.70514 0.09617 0.77188 0.0
H4385 H 0.76585 0.22654 0.79384 0.0
H4386 H 0.75268 0.19275 0.79491 0.0
C4387 C 0.69437 0.07753 0.76794 0.0
C4388 C 0.72452 0.12401 0.76135 0.0
H4389 H 0.764 0.15329 0.7576 0.0
C4390 C 0.71559 0.1383 0.76647 0.0
C4391 C 0.74236 0.12945 0.75872 0.0
C4392 C 0.75297 0.11483 0.75441 0.0
C4393 C 0.72379 0.15786 0.76814 0.0
C4394 C 0.74135 0.16321 0.76467 0.0
C4395 C 0.75048 0.14903 0.76016 0.0
C4396 C 0.75002 0.18341 0.76433 0.0
C4397 C 0.71345 0.17269 0.77281 0.0
C4398 C 0.75302 0.18914 0.74679 0.0
C4399 C 0.76042 0.20837 0.74608 0.0
C4400 C 0.76508 0.22218 0.76294 0.0
C4401 C 0.76236 0.21628 0.78058 0.0
C4402 C 0.75484 0.19702 0.78124 0.0
H4403 H 0.69937 0.16601 0.77293 0.0
H4404 H 0.71883 0.18145 0.78712 0.0
H4405 H 0.71463 0.18258 0.76226 0.0
H4406 H 0.74935 0.17876 0.73361 0.0
H4407 H 0.76243 0.21237 0.73228 0.0
loop_
_geom_bond_atom_site_label_1
_geom_bond_atom_site_label_2
_geom_bond_distance
_geom_bond_site_symmetry_2
_ccdc_geom_bond_type
C0 O1 1.160 . S
C0 O7 1.185 . S
O1 C0 1.160 . S
O2 Zn3 1.899 . S
O2 C10 1.284 . S
Zn3 O2 1.899 . S
Zn3 O4 2.032 . S
Zn3 O7 2.086 . S
Zn3 O12 1.977 . S
O4 Zn3 2.032 . S
O4 C8 1.278 . S
C5 O6 1.203 . S
C5 O12 1.267 . S
O6 C5 1.203 . S
O7 C0 1.185 . S
O7 Zn3 2.086 . S
C8 O4 1.278 . S
C8 O9 1.211 . S
O9 C8 1.211 . S
C10 O2 1.284 . S
C10 O11 1.273 . S
O11 C10 1.273 . S
O12 Zn3 1.977 . S
O12 C5 1.267 . S
C13 O14 1.160 . S
C13 O20 1.185 . S
O14 C13 1.160 . S
O15 Zn16 1.899 . S
O15 C23 1.284 . S
Zn16 O15 1.899 . S
Zn16 O17 2.032 . S
Zn16 O20 2.086 . S
Zn16 O25 1.977 1_655 S
O17 Zn16 2.032 . S
O17 C21 1.278 1_655 S
C18 O19 1.203 . S
C18 O25 1.267 . S
O19 C18 1.203 . S
O20 C13 1.185 . S
O20 Zn16 2.086 . S
C21 O17 1.278 1_455 S
C21 O22 1.211 . S
O22 C21 1.211 . S
C23 O15 1.284 . S
C23 O24 1.273 1_655 S
O24 C23 1.273 1_455 S
O25 Zn16 1.977 1_455 S
O25 C18 1.267 . S
C26 O27 1.160 . S
C26 O33 1.185 . S
O27 C26 1.160 . S
O28 Zn29 1.899 . S
O28 C36 1.284 . S
Zn29 O28 1.899 . S
Zn29 O30 2.032 . S
Zn29 O33 2.086 . S
Zn29 O38 1.977 . S
O30 Zn29 2.032 . S
O30 C34 1.278 . S
C31 O32 1.203 . S
C31 O38 1.267 . S
O32 C31 1.203 . S
O33 C26 1.185 . S
O33 Zn29 2.086 . S
C34 O30 1.278 . S
C34 O35 1.211 . S
O35 C34 1.211 . S
C36 O28 1.284 . S
C36 O37 1.273 . S
O37 C36 1.273 . S
O38 Zn29 1.977 . S
O38 C31 1.267 . S
C39 O40 1.160 . S
C39 O46 1.185 . S
O40 C39 1.160 . S
O41 Zn42 1.899 . S
O41 C49 1.284 . S
Zn42 O41 1.899 . S
Zn42 O43 2.032 . S
Zn42 O46 2.086 . S
Zn42 O51 1.977 . S
O43 Zn42 2.032 . S
O43 C47 1.278 . S
C44 O45 1.203 . S
C44 O51 1.267 . S
O45 C44 1.203 . S
O46 C39 1.185 . S
O46 Zn42 2.086 . S
C47 O43 1.278 . S
C47 O48 1.211 . S
O48 C47 1.211 . S
C49 O41 1.284 . S
C49 O50 1.273 . S
O50 C49 1.273 . S
O51 Zn42 1.977 . S
O51 C44 1.267 . S
C52 O53 1.160 . S
C52 O59 1.185 . S
O53 C52 1.160 . S
O54 Zn55 1.899 . S
O54 C62 1.284 . S
Zn55 O54 1.899 . S
Zn55 O56 2.032 . S
Zn55 O59 2.086 . S
Zn55 O64 1.977 . S
O56 Zn55 2.032 . S
O56 C60 1.278 . S
C57 O58 1.203 . S
C57 O64 1.267 . S
O58 C57 1.203 . S
O59 C52 1.185 . S
O59 Zn55 2.086 . S
C60 O56 1.278 . S
C60 O61 1.211 . S
O61 C60 1.211 . S
C62 O54 1.284 . S
C62 O63 1.273 . S
O63 C62 1.273 . S
O64 Zn55 1.977 . S
O64 C57 1.267 . S
C65 O66 1.160 . S
C65 O72 1.185 . S
O66 C65 1.160 . S
O67 Zn68 1.899 . S
O67 C75 1.284 . S
Zn68 O67 1.899 . S
Zn68 O69 2.032 . S
Zn68 O72 2.086 . S
Zn68 O77 1.977 . S
O69 Zn68 2.032 . S
O69 C73 1.278 . S
C70 O71 1.203 . S
C70 O77 1.267 . S
O71 C70 1.203 . S
O72 C65 1.185 . S
O72 Zn68 2.086 . S
C73 O69 1.278 . S
C73 O74 1.211 . S
O74 C73 1.211 . S
C75 O67 1.284 . S
C75 O76 1.273 . S
O76 C75 1.273 . S
O77 Zn68 1.977 . S
O77 C70 1.267 . S
C78 O79 1.160 . S
C78 O85 1.185 . S
O79 C78 1.160 . S
O80 Zn81 1.899 . S
O80 C88 1.284 . S
Zn81 O80 1.899 . S
Zn81 O82 2.032 . S
Zn81 O85 2.086 . S
Zn81 O90 1.977 . S
O82 Zn81 2.032 . S
O82 C86 1.278 . S
C83 O84 1.203 . S
C83 O90 1.267 . S
O84 C83 1.203 . S
O85 C78 1.185 . S
O85 Zn81 2.086 . S
C86 O82 1.278 . S
C86 O87 1.211 . S
O87 C86 1.211 . S
C88 O80 1.284 . S
C88 O89 1.273 . S
O89 C88 1.273 . S
O90 Zn81 1.977 . S
O90 C83 1.267 . S
C91 O92 1.160 . S
C91 O98 1.185 . S
O92 C91 1.160 . S
O93 Zn94 1.899 . S
O93 C101 1.284 . S
Zn94 O93 1.899 . S
Zn94 O95 2.032 . S
Zn94 O98 2.086 . S
Zn94 O103 1.977 1_455 S
O95 Zn94 2.032 . S
O95 C99 1.278 . S
C96 O97 1.203 . S
C96 O103 1.267 . S
O97 C96 1.203 . S
O98 C91 1.185 . S
O98 Zn94 2.086 . S
C99 O95 1.278 . S
C99 O100 1.189 1_455 S
O100 C99 1.189 1_655 S
C101 O93 1.284 . S
C101 O102 1.273 . S
O102 C101 1.273 . S
O103 Zn94 1.977 1_655 S
O103 C96 1.267 . S
C104 O105 1.160 . S
C104 O111 1.185 . S
O105 C104 1.160 . S
O106 Zn107 1.899 . S
O106 C114 1.284 . S
Zn107 O106 1.899 . S
Zn107 O108 2.032 . S
Zn107 O111 2.086 . S
Zn107 O116 1.977 1_545 S
O108 Zn107 2.032 . S
O108 C112 1.278 . S
C109 O110 1.203 . S
C109 O116 1.267 . S
O110 C109 1.203 . S
O111 C104 1.185 . S
O111 Zn107 2.086 . S
C112 O108 1.278 . S
C112 O113 1.211 1_545 S
O113 C112 1.211 1_565 S
C114 O106 1.284 . S
C114 O115 1.273 . S
O115 C114 1.273 . S
O116 Zn107 1.977 1_565 S
O116 C109 1.267 . S
C117 O118 1.160 . S
C117 O124 1.185 . S
O118 C117 1.160 . S
O119 Zn120 1.899 . S
O119 C127 1.284 . S
Zn120 O119 1.899 . S
Zn120 O121 2.032 . S
Zn120 O124 2.086 . S
Zn120 O129 1.977 . S
O121 Zn120 2.032 . S
O121 C125 1.278 . S
C122 O123 1.203 . S
C122 O129 1.267 . S
O123 C122 1.203 . S
O124 C117 1.185 . S
O124 Zn120 2.086 . S
C125 O121 1.278 . S
C125 O126 1.211 . S
O126 C125 1.211 . S
C127 O119 1.284 . S
C127 O128 1.273 . S
O128 C127 1.273 . S
O129 Zn120 1.977 . S
O129 C122 1.267 . S
C130 O131 1.160 . S
C130 O137 1.185 . S
O131 C130 1.160 . S
O132 Zn133 1.899 . S
O132 C140 1.284 . S
Zn133 O132 1.899 . S
Zn133 O134 2.032 . S
Zn133 O137 2.086 . S
Zn133 O142 1.977 1_565 S
O134 Zn133 2.032 . S
O134 C138 1.278 1_565 S
C135 O136 1.203 . S
C135 O142 1.267 . S
O136 C135 1.203 . S
O137 C130 1.185 . S
O137 Zn133 2.086 . S
C138 O134 1.278 1_545 S
C138 O139 1.211 . S
O139 C138 1.211 . S
C140 O132 1.284 . S
C140 O141 1.273 1_565 S
O141 C140 1.273 1_545 S
O142 Zn133 1.977 1_545 S
O142 C135 1.267 . S
C143 O144 1.160 . S
C143 O150 1.185 . S
O144 C143 1.160 . S
O145 Zn146 1.899 . S
O145 C153 1.284 . S
Zn146 O145 1.899 . S
Zn146 O147 2.032 1_554 S
Zn146 O150 2.086 . S
Zn146 O155 1.977 . S
O147 Zn146 2.032 1_556 S
O147 C151 1.278 . S
C148 O149 1.203 . S
C148 O155 1.267 . S
O149 C148 1.203 . S
O150 C143 1.185 . S
O150 Zn146 2.086 . S
C151 O147 1.278 . S
C151 O152 1.211 . S
O152 C151 1.211 . S
C153 O145 1.284 . S
C153 O154 1.273 . S
O154 C153 1.273 . S
O155 Zn146 1.977 . S
O155 C148 1.267 . S
C156 O157 1.160 . S
C156 O163 1.185 . S
O157 C156 1.160 . S
O158 Zn159 1.899 . S
O158 C166 1.284 . S
Zn159 O158 1.899 . S
Zn159 O160 2.032 1_554 S
Zn159 O163 2.086 . S
Zn159 O168 1.977 . S
O160 Zn159 2.032 1_556 S
O160 C164 1.278 . S
C161 O162 1.203 . S
C161 O168 1.267 . S
O162 C161 1.203 . S
O163 C156 1.185 . S
O163 Zn159 2.086 . S
C164 O160 1.278 . S
C164 O165 1.211 . S
O165 C164 1.211 . S
C166 O158 1.284 . S
C166 O167 1.273 . S
O167 C166 1.273 . S
O168 Zn159 1.977 . S
O168 C161 1.267 . S
C169 O170 1.160 . S
C169 O176 1.185 . S
O170 C169 1.160 . S
O171 Zn172 1.899 . S
O171 C179 1.284 . S
Zn172 O171 1.899 . S
Zn172 O173 2.032 1_554 S
Zn172 O176 2.086 . S
Zn172 O181 1.977 . S
O173 Zn172 2.032 1_556 S
O173 C177 1.278 . S
C174 O175 1.203 . S
C174 O181 1.267 . S
O175 C174 1.203 . S
O176 C169 1.185 . S
O176 Zn172 2.086 . S
C177 O173 1.278 . S
C177 O178 1.211 . S
O178 C177 1.211 . S
C179 O171 1.284 . S
C179 O180 1.273 . S
O180 C179 1.273 . S
O181 Zn172 1.977 . S
O181 C174 1.267 . S
C182 O183 1.160 . S
C182 O189 1.185 . S
O183 C182 1.160 . S
O184 Zn185 1.899 . S
O184 C192 1.284 . S
Zn185 O184 1.899 . S
Zn185 O186 2.032 . S
Zn185 O189 2.086 . S
Zn185 O194 1.977 . S
O186 Zn185 2.032 . S
O186 C190 1.278 . S
C187 O188 1.203 . S
C187 O194 1.267 . S
O188 C187 1.203 . S
O189 C182 1.185 . S
O189 Zn185 2.086 . S
C190 O186 1.278 . S
C190 O191 1.211 . S
O191 C190 1.211 . S
C192 O184 1.284 . S
C192 O193 1.273 . S
O193 C192 1.273 . S
O194 Zn185 1.977 . S
O194 C187 1.267 . S
C195 O196 1.160 . S
C195 O202 1.185 . S
O196 C195 1.160 . S
O197 Zn198 1.899 . S
O197 C205 1.284 . S
Zn198 O197 1.899 . S
Zn198 O199 2.032 . S
Zn198 O202 2.086 . S
Zn198 O207 1.977 . S
O199 Zn198 2.032 . S
O199 C203 1.278 . S
C200 O201 1.203 . S
C200 O207 1.267 . S
O201 C200 1.203 . S
O202 C195 1.185 . S
O202 Zn198 2.086 . S
C203 O199 1.278 . S
C203 O204 1.211 . S
O204 C203 1.211 . S
C205 O197 1.284 . S
C205 O206 1.273 . S
O206 C205 1.273 . S
O207 Zn198 1.977 . S
O207 C200 1.267 . S
C208 O209 1.160 . S
C208 O215 1.185 . S
O209 C208 1.160 . S
O210 Zn211 1.899 . S
O210 C218 1.284 . S
Zn211 O210 1.899 . S
Zn211 O212 2.032 . S
Zn211 O215 2.086 . S
Zn211 O220 1.977 . S
O212 Zn211 2.032 . S
O212 C216 1.278 . S
C213 O214 1.203 . S
C213 O220 1.267 . S
O214 C213 1.203 . S
O215 C208 1.185 . S
O215 Zn211 2.086 . S
C216 O212 1.278 . S
C216 O217 1.211 . S
O217 C216 1.211 . S
C218 O210 1.284 . S
C218 O219 1.273 . S
O219 C218 1.273 . S
O220 Zn211 1.977 . S
O220 C213 1.267 . S
C221 O222 1.160 . S
C221 O228 1.185 . S
O222 C221 1.160 . S
O223 Zn224 1.899 . S
O223 C231 1.284 . S
Zn224 O223 1.899 . S
Zn224 O225 2.032 . S
Zn224 O228 2.086 . S
Zn224 O233 1.977 . S
O225 Zn224 2.032 . S
O225 C229 1.278 . S
C226 O227 1.203 . S
C226 O233 1.267 . S
O227 C226 1.203 . S
O228 C221 1.185 . S
O228 Zn224 2.086 . S
C229 O225 1.278 . S
C229 O230 1.211 . S
O230 C229 1.211 . S
C231 O223 1.284 . S
C231 O232 1.273 . S
O232 C231 1.273 . S
O233 Zn224 1.977 . S
O233 C226 1.267 . S
C234 O235 1.160 . S
C234 O241 1.185 . S
O235 C234 1.160 . S
O236 Zn237 1.899 . S
O236 C244 1.284 . S
Zn237 O236 1.899 . S
Zn237 O238 2.032 . S
Zn237 O241 2.086 . S
Zn237 O246 1.977 . S
O238 Zn237 2.032 . S
O238 C242 1.278 . S
C239 O240 1.203 . S
C239 O246 1.267 . S
O240 C239 1.203 . S
O241 C234 1.185 . S
O241 Zn237 2.086 . S
C242 O238 1.278 . S
C242 O243 1.211 . S
O243 C242 1.211 . S
C244 O236 1.284 . S
C244 O245 1.273 . S
O245 C244 1.273 . S
O246 Zn237 1.977 . S
O246 C239 1.267 . S
C247 O248 1.160 . S
C247 O254 1.185 . S
O248 C247 1.160 . S
O249 Zn250 1.899 . S
O249 C257 1.284 . S
Zn250 O249 1.899 . S
Zn250 O251 2.032 . S
Zn250 O254 2.086 . S
Zn250 O259 1.977 . S
O251 Zn250 2.032 . S
O251 C255 1.278 . S
C252 O253 1.203 . S
C252 O259 1.267 . S
O253 C252 1.203 . S
O254 C247 1.185 . S
O254 Zn250 2.086 . S
C255 O251 1.278 . S
C255 O256 1.211 . S
O256 C255 1.211 . S
C257 O249 1.284 . S
C257 O258 1.273 . S
O258 C257 1.273 . S
O259 Zn250 1.977 . S
O259 C252 1.267 . S
C260 O261 1.160 . S
C260 O267 1.185 . S
O261 C260 1.160 . S
O262 Zn263 1.899 . S
O262 C270 1.284 . S
Zn263 O262 1.899 . S
Zn263 O264 2.032 1_554 S
Zn263 O267 2.086 . S
Zn263 O272 1.977 . S
O264 Zn263 2.032 1_556 S
O264 C268 1.278 . S
C265 O266 1.203 . S
C265 O272 1.264 . S
O266 C265 1.203 . S
O267 C260 1.185 . S
O267 Zn263 2.086 . S
C268 O264 1.278 . S
C268 O269 1.211 . S
O269 C268 1.211 . S
C270 O262 1.284 . S
C270 O271 1.273 . S
O271 C270 1.273 . S
O272 Zn263 1.977 . S
O272 C265 1.264 . S
C273 O274 1.160 . S
C273 O280 1.185 . S
O274 C273 1.160 . S
O275 Zn276 1.899 . S
O275 C283 1.284 . S
Zn276 O275 1.899 . S
Zn276 O277 2.032 . S
Zn276 O280 2.086 . S
Zn276 O285 1.977 . S
O277 Zn276 2.032 . S
O277 C281 1.278 . S
C278 O279 1.203 . S
C278 O285 1.267 . S
O279 C278 1.203 . S
O280 C273 1.185 . S
O280 Zn276 2.086 . S
C281 O277 1.278 . S
C281 O282 1.211 . S
O282 C281 1.211 . S
C283 O275 1.284 . S
C283 O284 1.273 . S
O284 C283 1.273 . S
O285 Zn276 1.977 . S
O285 C278 1.267 . S
C286 O287 1.160 . S
C286 O293 1.185 . S
O287 C286 1.160 . S
O288 Zn289 1.899 . S
O288 C296 1.284 . S
Zn289 O288 1.899 . S
Zn289 O290 2.032 . S
Zn289 O293 2.086 . S
Zn289 O298 1.977 . S
O290 Zn289 2.032 . S
O290 C294 1.278 . S
C291 O292 1.203 . S
C291 O298 1.267 . S
O292 C291 1.203 . S
O293 C286 1.185 . S
O293 Zn289 2.086 . S
C294 O290 1.278 . S
C294 O295 1.211 . S
O295 C294 1.211 . S
C296 O288 1.284 . S
C296 O297 1.273 . S
O297 C296 1.273 . S
O298 Zn289 1.977 . S
O298 C291 1.267 . S
C299 O300 1.160 . S
C299 O306 1.185 . S
O300 C299 1.160 . S
O301 Zn302 1.899 . S
O301 C309 1.284 . S
Zn302 O301 1.899 . S
Zn302 O303 2.032 . S
Zn302 O306 2.086 . S
Zn302 O311 1.977 . S
O303 Zn302 2.032 . S
O303 C307 1.278 . S
C304 O305 1.203 . S
C304 O311 1.267 . S
O305 C304 1.203 . S
O306 C299 1.185 . S
O306 Zn302 2.086 . S
C307 O303 1.278 . S
C307 O308 1.211 . S
O308 C307 1.211 . S
C309 O301 1.284 . S
C309 O310 1.273 . S
O310 C309 1.273 . S
O311 Zn302 1.977 . S
O311 C304 1.267 . S
Ho312 C315 2.811 1_455 S
Ho312 O332 2.322 . S
Ho312 O334 2.378 1_455 S
Ho312 O335 2.524 1_456 S
Ho312 O336 2.381 . S
Ho312 O337 2.669 . S
Ho312 O339 2.346 1_546 S
Ho312 O343 2.305 1_556 S
Ho313 C324 2.811 . S
Ho313 O333 2.346 . S
Ho313 O337 2.305 1_554 S
Ho313 O338 2.322 . S
Ho313 O340 2.378 . S
Ho313 O341 2.524 . S
Ho313 O342 2.381 . S
Ho313 O343 2.669 . S
C314 O332 1.259 1_554 S
C314 O333 1.268 . S
C315 Ho312 2.811 1_655 S
C315 C316 1.488 . S
C315 O334 1.215 . S
C315 O335 1.289 1_556 S
C316 C315 1.488 . S
C316 C317 1.348 . S
C316 C321 1.413 . S
C317 C316 1.348 . S
C317 C318 1.442 . S
C317 H344 0.930 1_556 S
C318 C317 1.442 . S
C318 C319 1.381 . S
C318 H345 0.931 1_556 S
C319 C318 1.381 . S
C319 C320 1.321 . S
C320 C319 1.321 . S
C320 C321 1.403 . S
C320 H346 0.934 . S
C321 C316 1.413 . S
C321 C320 1.403 . S
C321 H347 0.930 . S
C322 O336 1.275 . S
C322 O337 1.256 . S
C323 O338 1.259 1_565 S
C323 O339 1.268 . S
C324 Ho313 2.811 . S
C324 C325 1.488 . S
C324 O340 1.215 . S
C324 O341 1.289 . S
C325 C324 1.488 . S
C325 C326 1.348 . S
C325 C330 1.413 . S
C326 C325 1.348 . S
C326 C327 1.442 1_545 S
C326 H348 0.930 1_545 S
C327 C326 1.442 1_565 S
C327 C328 1.381 1_565 S
C327 H349 0.931 . S
C328 C327 1.381 1_545 S
C328 C329 1.326 . S
C329 C328 1.326 . S
C329 C330 1.403 . S
C329 H350 0.934 . S
C330 C325 1.413 . S
C330 C329 1.403 . S
C330 H351 0.930 . S
C331 O342 1.275 . S
C331 O343 1.256 . S
O332 Ho312 2.322 . S
O332 C314 1.259 1_556 S
O333 Ho313 2.346 . S
O333 C314 1.268 . S
O334 Ho312 2.378 1_655 S
O334 C315 1.215 . S
O335 Ho312 2.524 1_654 S
O335 C315 1.289 1_554 S
O336 Ho312 2.381 . S
O336 C322 1.275 . S
O337 Ho312 2.669 . S
O337 Ho313 2.305 1_556 S
O337 C322 1.256 . S
O338 Ho313 2.322 . S
O338 C323 1.259 1_545 S
O339 Ho312 2.346 1_564 S
O339 C323 1.268 . S
O340 Ho313 2.378 . S
O340 C324 1.215 . S
O341 Ho313 2.524 . S
O341 C324 1.289 . S
O342 Ho313 2.381 . S
O342 C331 1.275 . S
O343 Ho312 2.305 1_554 S
O343 Ho313 2.669 . S
O343 C331 1.256 . S
H344 C317 0.930 1_554 S
H345 C318 0.931 1_554 S
H346 C320 0.934 . S
H347 C321 0.930 . S
H348 C326 0.930 1_565 S
H349 C327 0.931 . S
H350 C329 0.934 . S
H351 C330 0.930 . S
Ho352 C355 2.811 . S
Ho352 O372 2.322 . S
Ho352 O374 2.378 . S
Ho352 O375 2.524 . S
Ho352 O376 2.381 . S
Ho352 O377 2.669 . S
Ho352 O379 2.346 . S
Ho352 O383 2.305 . S
Ho353 C364 2.811 . S
Ho353 O373 2.346 . S
Ho353 O377 2.305 . S
Ho353 O378 2.322 . S
Ho353 O380 2.378 . S
Ho353 O381 2.524 . S
Ho353 O382 2.381 . S
Ho353 O383 2.669 . S
C354 O372 1.259 . S
C354 O373 1.268 . S
C355 Ho352 2.811 . S
C355 C356 1.488 . S
C355 O374 1.215 . S
C355 O375 1.289 . S
C356 C355 1.488 . S
C356 C357 1.348 . S
C356 C361 1.413 . S
C357 C356 1.348 . S
C357 C358 1.442 . S
C357 H384 0.930 . S
C358 C357 1.442 . S
C358 C359 1.381 . S
C358 H385 0.931 . S
C359 C358 1.381 . S
C359 C360 1.321 . S
C360 C359 1.321 . S
C360 C361 1.403 . S
C360 H386 0.934 . S
C361 C356 1.413 . S
C361 C360 1.403 . S
C361 H387 0.930 . S
C362 O376 1.275 . S
C362 O377 1.256 . S
C363 O378 1.259 . S
C363 O379 1.268 . S
C364 Ho353 2.811 . S
C364 C365 1.488 . S
C364 O380 1.215 . S
C364 O381 1.289 . S
C365 C364 1.488 . S
C365 C366 1.348 . S
C365 C370 1.413 . S
C366 C365 1.348 . S
C366 C367 1.442 . S
C366 H388 0.930 . S
C367 C366 1.442 . S
C367 C368 1.381 . S
C367 H389 0.931 . S
C368 C367 1.381 . S
C368 C369 1.321 . S
C369 C368 1.321 . S
C369 C370 1.403 . S
C369 H390 0.934 . S
C370 C365 1.413 . S
C370 C369 1.403 . S
C370 H391 0.930 . S
C371 O382 1.275 . S
C371 O383 1.256 . S
O372 Ho352 2.322 . S
O372 C354 1.259 . S
O373 Ho353 2.346 . S
O373 C354 1.268 . S
O374 Ho352 2.378 . S
O374 C355 1.215 . S
O375 Ho352 2.524 . S
O375 C355 1.289 . S
O376 Ho352 2.381 . S
O376 C362 1.275 . S
O377 Ho352 2.669 . S
O377 Ho353 2.305 . S
O377 C362 1.256 . S
O378 Ho353 2.322 . S
O378 C363 1.259 . S
O379 Ho352 2.346 . S
O379 C363 1.268 . S
O380 Ho353 2.378 . S
O380 C364 1.215 . S
O381 Ho353 2.524 . S
O381 C364 1.289 . S
O382 Ho353 2.381 . S
O382 C371 1.275 . S
O383 Ho352 2.305 . S
O383 Ho353 2.669 . S
O383 C371 1.256 . S
H384 C357 0.930 . S
H385 C358 0.931 . S
H386 C360 0.934 . S
H387 C361 0.930 . S
H388 C366 0.930 . S
H389 C367 0.931 . S
H390 C369 0.934 . S
H391 C370 0.930 . S
Ho392 C395 2.811 . S
Ho392 O412 2.322 . S
Ho392 O414 2.378 . S
Ho392 O415 2.524 . S
Ho392 O416 2.381 . S
Ho392 O417 2.669 . S
Ho392 O419 2.346 . S
Ho392 O423 2.305 . S
Ho393 C404 2.811 . S
Ho393 O413 2.301 1_545 S
Ho393 O417 2.305 . S
Ho393 O418 2.322 . S
Ho393 O420 2.378 . S
Ho393 O421 2.524 . S
Ho393 O422 2.381 . S
Ho393 O423 2.669 . S
C394 O412 1.259 1_565 S
C394 O413 1.287 . S
C395 Ho392 2.811 . S
C395 C396 1.488 . S
C395 O414 1.215 . S
C395 O415 1.289 . S
C396 C395 1.488 . S
C396 C397 1.348 1_545 S
C396 C401 1.415 . S
C397 C396 1.348 1_565 S
C397 C398 1.442 . S
C397 H424 0.930 . S
C398 C397 1.442 . S
C398 C399 1.381 . S
C398 H425 0.931 . S
C399 C398 1.381 . S
C399 C400 1.321 . S
C400 C399 1.321 . S
C400 C401 1.380 1_565 S
C400 H426 0.934 . S
C401 C396 1.415 . S
C401 C400 1.380 1_545 S
C401 H427 0.952 . S
C402 O416 1.275 . S
C402 O417 1.256 . S
C403 O418 1.259 . S
C403 O419 1.268 . S
C404 Ho393 2.811 . S
C404 C405 1.488 . S
C404 O420 1.215 . S
C404 O421 1.289 . S
C405 C404 1.488 . S
C405 C406 1.348 . S
C405 C410 1.413 . S
C406 C405 1.348 . S
C406 C407 1.442 . S
C406 H428 0.930 . S
C407 C406 1.442 . S
C407 C408 1.381 . S
C407 H429 0.931 . S
C408 C407 1.381 . S
C408 C409 1.321 . S
C409 C408 1.321 . S
C409 C410 1.403 . S
C409 H430 0.934 . S
C410 C405 1.413 . S
C410 C409 1.403 . S
C410 H431 0.930 . S
C411 O422 1.275 . S
C411 O423 1.256 . S
O412 Ho392 2.322 . S
O412 C394 1.259 1_545 S
O413 Ho393 2.301 1_565 S
O413 C394 1.287 . S
O414 Ho392 2.378 . S
O414 C395 1.215 . S
O415 Ho392 2.524 . S
O415 C395 1.289 . S
O416 Ho392 2.381 . S
O416 C402 1.275 . S
O417 Ho392 2.669 . S
O417 Ho393 2.305 . S
O417 C402 1.256 . S
O418 Ho393 2.322 . S
O418 C403 1.259 . S
O419 Ho392 2.346 . S
O419 C403 1.268 . S
O420 Ho393 2.378 . S
O420 C404 1.215 . S
O421 Ho393 2.524 . S
O421 C404 1.289 . S
O422 Ho393 2.381 . S
O422 C411 1.275 . S
O423 Ho392 2.305 . S
O423 Ho393 2.669 . S
O423 C411 1.256 . S
H424 C397 0.930 . S
H425 C398 0.931 . S
H426 C400 0.934 . S
H427 C401 0.952 . S
H428 C406 0.930 . S
H429 C407 0.931 . S
H430 C409 0.934 . S
H431 C410 0.930 . S
Ho432 C435 2.811 . S
Ho432 O452 2.322 . S
Ho432 O454 2.378 . S
Ho432 O455 2.524 . S
Ho432 O456 2.381 . S
Ho432 O457 2.669 . S
Ho432 O459 2.346 . S
Ho432 O463 2.305 . S
Ho433 C444 2.811 . S
Ho433 O453 2.346 . S
Ho433 O457 2.305 . S
Ho433 O458 2.322 . S
Ho433 O460 2.378 . S
Ho433 O461 2.524 . S
Ho433 O462 2.381 . S
Ho433 O463 2.669 . S
C434 O452 1.259 . S
C434 O453 1.268 . S
C435 Ho432 2.811 . S
C435 C436 1.488 . S
C435 O454 1.215 . S
C435 O455 1.289 . S
C436 C435 1.488 . S
C436 C437 1.348 . S
C436 C441 1.413 . S
C437 C436 1.348 . S
C437 C438 1.442 . S
C437 H464 0.930 . S
C438 C437 1.442 . S
C438 C439 1.381 . S
C438 H465 0.931 . S
C439 C438 1.381 . S
C439 C440 1.321 . S
C440 C439 1.321 . S
C440 C441 1.403 . S
C440 H466 0.934 . S
C441 C436 1.413 . S
C441 C440 1.403 . S
C441 H467 0.930 . S
C442 O456 1.275 . S
C442 O457 1.256 . S
C443 O458 1.259 . S
C443 O459 1.268 . S
C444 Ho433 2.811 . S
C444 C445 1.488 . S
C444 O460 1.215 . S
C444 O461 1.289 . S
C445 C444 1.488 . S
C445 C446 1.348 . S
C445 C450 1.413 . S
C446 C445 1.348 . S
C446 C447 1.442 . S
C446 H468 0.930 . S
C447 C446 1.442 . S
C447 C448 1.381 . S
C447 H469 0.931 . S
C448 C447 1.381 . S
C448 C449 1.321 . S
C449 C448 1.321 . S
C449 C450 1.403 . S
C449 H470 0.934 . S
C450 C445 1.413 . S
C450 C449 1.403 . S
C450 H471 0.930 . S
C451 O462 1.275 . S
C451 O463 1.256 . S
O452 Ho432 2.322 . S
O452 C434 1.259 . S
O453 Ho433 2.346 . S
O453 C434 1.268 . S
O454 Ho432 2.378 . S
O454 C435 1.215 . S
O455 Ho432 2.524 . S
O455 C435 1.289 . S
O456 Ho432 2.381 . S
O456 C442 1.275 . S
O457 Ho432 2.669 . S
O457 Ho433 2.305 . S
O457 C442 1.256 . S
O458 Ho433 2.322 . S
O458 C443 1.259 . S
O459 Ho432 2.346 . S
O459 C443 1.268 . S
O460 Ho433 2.378 . S
O460 C444 1.215 . S
O461 Ho433 2.524 . S
O461 C444 1.289 . S
O462 Ho433 2.381 . S
O462 C451 1.275 . S
O463 Ho432 2.305 . S
O463 Ho433 2.669 . S
O463 C451 1.256 . S
H464 C437 0.930 . S
H465 C438 0.931 . S
H466 C440 0.934 . S
H467 C441 0.930 . S
H468 C446 0.930 . S
H469 C447 0.931 . S
H470 C449 0.934 . S
H471 C450 0.930 . S
Ho472 C475 2.811 . S
Ho472 O492 2.322 . S
Ho472 O494 2.378 . S
Ho472 O495 2.524 . S
Ho472 O496 2.437 . S
Ho472 O497 2.669 . S
Ho472 O499 2.346 . S
Ho472 O503 2.305 . S
Ho473 C484 2.811 1_545 S
Ho473 O493 2.346 . S
Ho473 O497 2.305 . S
Ho473 O498 2.322 . S
Ho473 O500 2.378 1_545 S
Ho473 O501 2.524 1_545 S
Ho473 O502 2.381 . S
Ho473 O503 2.669 . S
C474 O492 1.259 . S
C474 O493 1.268 . S
C475 Ho472 2.811 . S
C475 C476 1.488 . S
C475 O494 1.215 . S
C475 O495 1.289 . S
C476 C475 1.488 . S
C476 C477 1.348 . S
C476 C481 1.413 . S
C477 C476 1.348 . S
C477 C478 1.442 . S
C477 H504 0.930 . S
C478 C477 1.442 . S
C478 C479 1.381 . S
C478 H505 0.931 . S
C479 C478 1.381 . S
C479 C480 1.321 . S
C480 C479 1.321 . S
C480 C481 1.403 . S
C480 H506 0.931 . S
C481 C476 1.413 . S
C481 C480 1.403 . S
C481 H507 0.978 . S
C482 O496 1.297 . S
C482 O497 1.256 . S
C483 O498 1.259 . S
C483 O499 1.268 . S
C484 Ho473 2.811 1_565 S
C484 C485 1.488 . S
C484 O500 1.215 . S
C484 O501 1.289 . S
C485 C484 1.488 . S
C485 C486 1.348 . S
C485 C490 1.413 . S
C486 C485 1.348 . S
C486 C487 1.442 . S
C486 H508 0.930 . S
C487 C486 1.442 . S
C487 C488 1.381 . S
C487 H509 0.931 . S
C488 C487 1.381 . S
C488 C489 1.321 . S
C489 C488 1.321 . S
C489 C490 1.403 . S
C489 H510 0.934 . S
C490 C485 1.413 . S
C490 C489 1.403 . S
C490 H511 0.930 . S
C491 O502 1.275 . S
C491 O503 1.256 . S
O492 Ho472 2.322 . S
O492 C474 1.259 . S
O493 Ho473 2.346 . S
O493 C474 1.268 . S
O494 Ho472 2.378 . S
O494 C475 1.215 . S
O495 Ho472 2.524 . S
O495 C475 1.289 . S
O496 Ho472 2.437 . S
O496 C482 1.297 . S
O497 Ho472 2.669 . S
O497 Ho473 2.305 . S
O497 C482 1.256 . S
O498 Ho473 2.322 . S
O498 C483 1.259 . S
O499 Ho472 2.346 . S
O499 C483 1.268 . S
O500 Ho473 2.378 1_565 S
O500 C484 1.215 . S
O501 Ho473 2.524 1_565 S
O501 C484 1.289 . S
O502 Ho473 2.381 . S
O502 C491 1.275 . S
O503 Ho472 2.305 . S
O503 Ho473 2.669 . S
O503 C491 1.256 . S
H504 C477 0.930 . S
H505 C478 0.931 . S
H506 C480 0.931 . S
H507 C481 0.978 . S
H508 C486 0.930 . S
H509 C487 0.931 . S
H510 C489 0.934 . S
H511 C490 0.930 . S
Ho512 C515 2.811 . S
Ho512 O532 2.322 . S
Ho512 O534 2.378 . S
Ho512 O535 2.524 . S
Ho512 O536 2.381 . S
Ho512 O537 2.669 . S
Ho512 O539 2.346 . S
Ho512 O543 2.305 . S
Ho513 C524 2.811 . S
Ho513 O533 2.346 . S
Ho513 O537 2.305 . S
Ho513 O538 2.322 . S
Ho513 O540 2.378 . S
Ho513 O541 2.524 . S
Ho513 O542 2.381 . S
Ho513 O543 2.669 . S
C514 O532 1.259 . S
C514 O533 1.268 . S
C515 Ho512 2.811 . S
C515 C516 1.488 . S
C515 O534 1.215 . S
C515 O535 1.289 . S
C516 C515 1.488 . S
C516 C517 1.348 . S
C516 C521 1.413 . S
C517 C516 1.348 . S
C517 C518 1.442 . S
C517 H544 0.930 . S
C518 C517 1.442 . S
C518 C519 1.381 . S
C518 H545 0.931 . S
C519 C518 1.381 . S
C519 C520 1.321 . S
C520 C519 1.321 . S
C520 C521 1.403 . S
C520 H546 0.934 . S
C521 C516 1.413 . S
C521 C520 1.403 . S
C521 H547 0.930 . S
C522 O536 1.275 . S
C522 O537 1.256 . S
C523 O538 1.259 . S
C523 O539 1.268 . S
C524 Ho513 2.811 . S
C524 C525 1.488 . S
C524 O540 1.215 . S
C524 O541 1.289 . S
C525 C524 1.488 . S
C525 C526 1.348 . S
C525 C530 1.413 . S
C526 C525 1.348 . S
C526 C527 1.442 . S
C526 H548 0.930 . S
C527 C526 1.442 . S
C527 C528 1.381 . S
C527 H549 0.931 . S
C528 C527 1.381 . S
C528 C529 1.321 . S
C529 C528 1.321 . S
C529 C530 1.403 . S
C529 H550 0.934 . S
C530 C525 1.413 . S
C530 C529 1.403 . S
C530 H551 0.930 . S
C531 O542 1.275 . S
C531 O543 1.256 . S
O532 Ho512 2.322 . S
O532 C514 1.259 . S
O533 Ho513 2.346 . S
O533 C514 1.268 . S
O534 Ho512 2.378 . S
O534 C515 1.215 . S
O535 Ho512 2.524 . S
O535 C515 1.289 . S
O536 Ho512 2.381 . S
O536 C522 1.275 . S
O537 Ho512 2.669 . S
O537 Ho513 2.305 . S
O537 C522 1.256 . S
O538 Ho513 2.322 . S
O538 C523 1.259 . S
O539 Ho512 2.346 . S
O539 C523 1.268 . S
O540 Ho513 2.378 . S
O540 C524 1.215 . S
O541 Ho513 2.524 . S
O541 C524 1.289 . S
O542 Ho513 2.381 . S
O542 C531 1.275 . S
O543 Ho512 2.305 . S
O543 Ho513 2.669 . S
O543 C531 1.256 . S
H544 C517 0.930 . S
H545 C518 0.931 . S
H546 C520 0.934 . S
H547 C521 0.930 . S
H548 C526 0.930 . S
H549 C527 0.931 . S
H550 C529 0.934 . S
H551 C530 0.930 . S
Ho552 C555 2.811 . S
Ho552 O572 2.322 . S
Ho552 O574 2.378 . S
Ho552 O575 2.524 . S
Ho552 O576 2.381 1_545 S
Ho552 O577 2.669 . S
Ho552 O579 2.346 . S
Ho552 O583 2.305 . S
Ho553 C564 2.811 . S
Ho553 O573 2.346 . S
Ho553 O577 2.305 1_556 S
Ho553 O578 2.322 1_556 S
Ho553 O580 2.378 . S
Ho553 O581 2.524 . S
Ho553 O582 2.381 1_556 S
Ho553 O583 2.669 1_556 S
C554 O572 1.259 . S
C554 O573 1.268 1_554 S
C555 Ho552 2.811 . S
C555 C556 1.488 . S
C555 O574 1.215 . S
C555 O575 1.289 . S
C556 C555 1.488 . S
C556 C557 1.348 . S
C556 C561 1.413 1_545 S
C557 C556 1.348 . S
C557 C558 1.442 . S
C557 H584 0.930 . S
C558 C557 1.442 . S
C558 C559 1.381 1_545 S
C558 H585 0.931 . S
C559 C558 1.381 1_565 S
C559 C560 1.321 . S
C560 C559 1.321 . S
C560 C561 1.403 . S
C560 H586 0.934 . S
C561 C556 1.413 1_565 S
C561 C560 1.403 . S
C561 H587 0.930 . S
C562 O576 1.275 . S
C562 O577 1.256 1_565 S
C563 O578 1.259 . S
C563 O579 1.268 . S
C564 Ho553 2.811 . S
C564 C565 1.488 . S
C564 O580 1.215 . S
C564 O581 1.289 . S
C565 C564 1.488 . S
C565 C566 1.348 . S
C565 C570 1.413 . S
C566 C565 1.348 . S
C566 C567 1.442 . S
C566 H588 0.930 . S
C567 C566 1.442 . S
C567 C568 1.381 . S
C567 H589 0.931 . S
C568 C567 1.381 . S
C568 C569 1.321 . S
C569 C568 1.321 . S
C569 C570 1.403 . S
C569 H590 0.934 . S
C570 C565 1.413 . S
C570 C569 1.403 . S
C570 H591 0.930 . S
C571 O582 1.275 . S
C571 O583 1.256 . S
O572 Ho552 2.322 . S
O572 C554 1.259 . S
O573 Ho553 2.346 . S
O573 C554 1.268 1_556 S
O574 Ho552 2.378 . S
O574 C555 1.215 . S
O575 Ho552 2.524 . S
O575 C555 1.289 . S
O576 Ho552 2.381 1_565 S
O576 C562 1.275 . S
O577 Ho552 2.669 . S
O577 Ho553 2.305 1_554 S
O577 C562 1.256 1_545 S
O578 Ho553 2.322 1_554 S
O578 C563 1.259 . S
O579 Ho552 2.346 . S
O579 C563 1.268 . S
O580 Ho553 2.378 . S
O580 C564 1.215 . S
O581 Ho553 2.524 . S
O581 C564 1.289 . S
O582 Ho553 2.381 1_554 S
O582 C571 1.275 . S
O583 Ho552 2.305 . S
O583 Ho553 2.669 1_554 S
O583 C571 1.256 . S
H584 C557 0.930 . S
H585 C558 0.931 . S
H586 C560 0.934 . S
H587 C561 0.930 . S
H588 C566 0.930 . S
H589 C567 0.931 . S
H590 C569 0.934 . S
H591 C570 0.930 . S
Ho592 C595 2.811 . S
Ho592 O612 2.322 . S
Ho592 O614 2.378 . S
Ho592 O615 2.524 . S
Ho592 O616 2.381 . S
Ho592 O617 2.669 . S
Ho592 O619 2.346 . S
Ho592 O623 2.305 . S
Ho593 C604 2.811 . S
Ho593 O613 2.346 . S
Ho593 O617 2.305 . S
Ho593 O618 2.322 . S
Ho593 O620 2.378 . S
Ho593 O621 2.524 . S
Ho593 O622 2.381 . S
Ho593 O623 2.669 . S
C594 O612 1.259 . S
C594 O613 1.268 . S
C595 Ho592 2.811 . S
C595 C596 1.488 . S
C595 O614 1.215 . S
C595 O615 1.289 . S
C596 C595 1.488 . S
C596 C597 1.348 . S
C596 C601 1.413 . S
C597 C596 1.348 . S
C597 C598 1.442 . S
C597 H624 0.930 . S
C598 C597 1.442 . S
C598 C599 1.381 . S
C598 H625 0.931 . S
C599 C598 1.381 . S
C599 C600 1.321 . S
C600 C599 1.321 . S
C600 C601 1.403 . S
C600 H626 0.934 . S
C601 C596 1.413 . S
C601 C600 1.403 . S
C601 H627 0.930 . S
C602 O616 1.275 . S
C602 O617 1.256 . S
C603 O618 1.259 . S
C603 O619 1.268 . S
C604 Ho593 2.811 . S
C604 C605 1.488 . S
C604 O620 1.215 . S
C604 O621 1.289 . S
C605 C604 1.488 . S
C605 C606 1.348 . S
C605 C610 1.413 . S
C606 C605 1.348 . S
C606 C607 1.442 . S
C606 H628 0.930 . S
C607 C606 1.442 . S
C607 C608 1.381 . S
C607 H629 0.931 . S
C608 C607 1.381 . S
C608 C609 1.321 . S
C609 C608 1.321 . S
C609 C610 1.403 . S
C609 H630 0.934 . S
C610 C605 1.413 . S
C610 C609 1.403 . S
C610 H631 0.930 . S
C611 O622 1.275 . S
C611 O623 1.256 . S
O612 Ho592 2.322 . S
O612 C594 1.259 . S
O613 Ho593 2.346 . S
O613 C594 1.268 . S
O614 Ho592 2.378 . S
O614 C595 1.215 . S
O615 Ho592 2.524 . S
O615 C595 1.289 . S
O616 Ho592 2.381 . S
O616 C602 1.275 . S
O617 Ho592 2.669 . S
O617 Ho593 2.305 . S
O617 C602 1.256 . S
O618 Ho593 2.322 . S
O618 C603 1.259 . S
O619 Ho592 2.346 . S
O619 C603 1.268 . S
O620 Ho593 2.378 . S
O620 C604 1.215 . S
O621 Ho593 2.524 . S
O621 C604 1.289 . S
O622 Ho593 2.381 . S
O622 C611 1.275 . S
O623 Ho592 2.305 . S
O623 Ho593 2.669 . S
O623 C611 1.256 . S
H624 C597 0.930 . S
H625 C598 0.931 . S
H626 C600 0.934 . S
H627 C601 0.930 . S
H628 C606 0.930 . S
H629 C607 0.931 . S
H630 C609 0.934 . S
H631 C610 0.930 . S
Ho632 C635 2.811 . S
Ho632 O652 2.322 1_554 S
Ho632 O654 2.378 . S
Ho632 O655 2.524 . S
Ho632 O656 2.381 . S
Ho632 O657 2.669 . S
Ho632 O659 2.346 . S
Ho632 O663 2.305 . S
Ho633 C644 2.811 . S
Ho633 O653 2.346 1_554 S
Ho633 O657 2.305 . S
Ho633 O658 2.322 . S
Ho633 O660 2.378 . S
Ho633 O661 2.524 . S
Ho633 O662 2.381 . S
Ho633 O663 2.669 . S
C634 O652 1.259 . S
C634 O653 1.268 . S
C635 Ho632 2.811 . S
C635 C636 1.488 1_554 S
C635 O654 1.215 . S
C635 O655 1.289 . S
C636 C635 1.488 1_556 S
C636 C637 1.348 . S
C636 C641 1.413 . S
C637 C636 1.348 . S
C637 C638 1.442 . S
C637 H664 0.930 . S
C638 C637 1.442 . S
C638 C639 1.381 . S
C638 H665 0.931 . S
C639 C638 1.381 . S
C639 C640 1.321 . S
C640 C639 1.321 . S
C640 C641 1.403 . S
C640 H666 0.934 . S
C641 C636 1.413 . S
C641 C640 1.403 . S
C641 H667 0.893 1_556 S
C642 O656 1.275 . S
C642 O657 1.256 . S
C643 O658 1.259 . S
C643 O659 1.268 . S
C644 Ho633 2.811 . S
C644 C645 1.488 . S
C644 O660 1.215 . S
C644 O661 1.289 . S
C645 C644 1.488 . S
C645 C646 1.348 . S
C645 C650 1.413 . S
C646 C645 1.348 . S
C646 C647 1.442 . S
C646 H668 0.930 . S
C647 C646 1.442 . S
C647 C648 1.381 . S
C647 H669 0.931 . S
C648 C647 1.381 . S
C648 C649 1.321 . S
C649 C648 1.321 . S
C649 C650 1.403 . S
C649 H670 0.934 . S
C650 C645 1.413 . S
C650 C649 1.403 . S
C650 H671 0.930 . S
C651 O662 1.275 . S
C651 O663 1.256 . S
O652 Ho632 2.322 1_556 S
O652 C634 1.259 . S
O653 Ho633 2.346 1_556 S
O653 C634 1.268 . S
O654 Ho632 2.378 . S
O654 C635 1.215 . S
O655 Ho632 2.524 . S
O655 C635 1.289 . S
O656 Ho632 2.381 . S
O656 C642 1.275 . S
O657 Ho632 2.669 . S
O657 Ho633 2.305 . S
O657 C642 1.256 . S
O658 Ho633 2.322 . S
O658 C643 1.259 . S
O659 Ho632 2.346 . S
O659 C643 1.268 . S
O660 Ho633 2.378 . S
O660 C644 1.215 . S
O661 Ho633 2.524 . S
O661 C644 1.289 . S
O662 Ho633 2.381 . S
O662 C651 1.275 . S
O663 Ho632 2.305 . S
O663 Ho633 2.669 . S
O663 C651 1.256 . S
H664 C637 0.930 . S
H665 C638 0.931 . S
H666 C640 0.934 . S
H667 C641 0.893 1_554 S
H668 C646 0.930 . S
H669 C647 0.931 . S
H670 C649 0.934 . S
H671 C650 0.930 . S
Ho672 C675 2.811 . S
Ho672 O692 2.322 . S
Ho672 O694 2.378 . S
Ho672 O695 2.524 . S
Ho672 O696 2.381 . S
Ho672 O697 2.669 . S
Ho672 O699 2.346 . S
Ho672 O703 2.305 . S
Ho673 C684 2.811 . S
Ho673 O693 2.346 . S
Ho673 O697 2.305 . S
Ho673 O698 2.322 . S
Ho673 O700 2.378 . S
Ho673 O701 2.524 . S
Ho673 O702 2.381 . S
Ho673 O703 2.669 . S
C674 O692 1.259 . S
C674 O693 1.268 . S
C675 Ho672 2.811 . S
C675 C676 1.488 . S
C675 O694 1.215 . S
C675 O695 1.289 . S
C676 C675 1.488 . S
C676 C677 1.348 . S
C676 C681 1.413 . S
C677 C676 1.348 . S
C677 C678 1.442 . S
C677 H704 0.930 . S
C678 C677 1.442 . S
C678 C679 1.381 . S
C678 H705 0.931 . S
C679 C678 1.381 . S
C679 C680 1.321 . S
C680 C679 1.321 . S
C680 C681 1.403 . S
C680 H706 0.934 . S
C681 C676 1.413 . S
C681 C680 1.403 . S
C681 H707 0.930 . S
C682 O696 1.275 . S
C682 O697 1.256 . S
C683 O698 1.259 . S
C683 O699 1.268 . S
C684 Ho673 2.811 . S
C684 C685 1.488 . S
C684 O700 1.215 . S
C684 O701 1.289 . S
C685 C684 1.488 . S
C685 C686 1.348 . S
C685 C690 1.413 . S
C686 C685 1.348 . S
C686 C687 1.442 . S
C686 H708 0.930 . S
C687 C686 1.442 . S
C687 C688 1.381 . S
C687 H709 0.931 . S
C688 C687 1.381 . S
C688 C689 1.321 . S
C689 C688 1.321 . S
C689 C690 1.403 . S
C689 H710 0.934 . S
C690 C685 1.413 . S
C690 C689 1.403 . S
C690 H711 0.930 . S
C691 O702 1.275 . S
C691 O703 1.256 . S
O692 Ho672 2.322 . S
O692 C674 1.259 . S
O693 Ho673 2.346 . S
O693 C674 1.268 . S
O694 Ho672 2.378 . S
O694 C675 1.215 . S
O695 Ho672 2.524 . S
O695 C675 1.289 . S
O696 Ho672 2.381 . S
O696 C682 1.275 . S
O697 Ho672 2.669 . S
O697 Ho673 2.305 . S
O697 C682 1.256 . S
O698 Ho673 2.322 . S
O698 C683 1.259 . S
O699 Ho672 2.346 . S
O699 C683 1.268 . S
O700 Ho673 2.378 . S
O700 C684 1.215 . S
O701 Ho673 2.524 . S
O701 C684 1.289 . S
O702 Ho673 2.381 . S
O702 C691 1.275 . S
O703 Ho672 2.305 . S
O703 Ho673 2.669 . S
O703 C691 1.256 . S
H704 C677 0.930 . S
H705 C678 0.931 . S
H706 C680 0.934 . S
H707 C681 0.930 . S
H708 C686 0.930 . S
H709 C687 0.931 . S
H710 C689 0.934 . S
H711 C690 0.930 . S
Ho712 C715 2.811 . S
Ho712 O732 2.322 . S
Ho712 O734 2.378 . S
Ho712 O735 2.524 . S
Ho712 O736 2.381 . S
Ho712 O737 2.669 . S
Ho712 O739 2.346 . S
Ho712 O743 2.305 . S
Ho713 C724 2.811 . S
Ho713 O733 2.346 . S
Ho713 O737 2.305 . S
Ho713 O738 2.322 . S
Ho713 O740 2.378 . S
Ho713 O741 2.524 . S
Ho713 O742 2.381 . S
Ho713 O743 2.669 . S
C714 O732 1.259 . S
C714 O733 1.268 . S
C715 Ho712 2.811 . S
C715 C716 1.488 . S
C715 O734 1.215 . S
C715 O735 1.289 . S
C716 C715 1.488 . S
C716 C717 1.348 . S
C716 C721 1.413 . S
C717 C716 1.348 . S
C717 C718 1.442 1_455 S
C717 H744 0.949 . S
C718 C717 1.442 1_655 S
C718 C719 1.381 . S
C718 H745 0.931 . S
C719 C718 1.381 . S
C719 C720 1.321 1_655 S
C720 C719 1.321 1_455 S
C720 C721 1.403 . S
C720 H746 0.934 . S
C721 C716 1.413 . S
C721 C720 1.403 . S
C721 H747 0.930 . S
C722 O736 1.275 . S
C722 O737 1.256 . S
C723 O738 1.259 . S
C723 O739 1.268 . S
C724 Ho713 2.811 . S
C724 C725 1.488 . S
C724 O740 1.215 . S
C724 O741 1.289 . S
C725 C724 1.488 . S
C725 C726 1.348 . S
C725 C730 1.413 . S
C726 C725 1.348 . S
C726 C727 1.442 . S
C726 H748 0.930 . S
C727 C726 1.442 . S
C727 C728 1.381 . S
C727 H749 0.931 . S
C728 C727 1.381 . S
C728 C729 1.321 . S
C729 C728 1.321 . S
C729 C730 1.403 . S
C729 H750 0.934 . S
C730 C725 1.413 . S
C730 C729 1.403 . S
C730 H751 0.930 . S
C731 O742 1.275 . S
C731 O743 1.256 . S
O732 Ho712 2.322 . S
O732 C714 1.259 . S
O733 Ho713 2.346 . S
O733 C714 1.268 . S
O734 Ho712 2.378 . S
O734 C715 1.215 . S
O735 Ho712 2.524 . S
O735 C715 1.289 . S
O736 Ho712 2.381 . S
O736 C722 1.275 . S
O737 Ho712 2.669 . S
O737 Ho713 2.305 . S
O737 C722 1.256 . S
O738 Ho713 2.322 . S
O738 C723 1.259 . S
O739 Ho712 2.346 . S
O739 C723 1.268 . S
O740 Ho713 2.378 . S
O740 C724 1.215 . S
O741 Ho713 2.524 . S
O741 C724 1.289 . S
O742 Ho713 2.381 . S
O742 C731 1.275 . S
O743 Ho712 2.305 . S
O743 Ho713 2.669 . S
O743 C731 1.256 . S
H744 C717 0.949 . S
H745 C718 0.931 . S
H746 C720 0.934 . S
H747 C721 0.930 . S
H748 C726 0.930 . S
H749 C727 0.931 . S
H750 C729 0.934 . S
H751 C730 0.930 . S
Ho752 C755 2.811 . S
Ho752 O772 2.322 . S
Ho752 O774 2.378 . S
Ho752 O775 2.524 . S
Ho752 O776 2.381 . S
Ho752 O777 2.669 . S
Ho752 O779 2.346 . S
Ho752 O783 2.305 . S
Ho753 C764 2.811 . S
Ho753 O773 2.346 . S
Ho753 O777 2.305 . S
Ho753 O778 2.322 . S
Ho753 O780 2.378 . S
Ho753 O781 2.524 . S
Ho753 O782 2.381 . S
Ho753 O783 2.669 . S
C754 O772 1.259 . S
C754 O773 1.268 . S
C755 Ho752 2.811 . S
C755 C756 1.488 . S
C755 O774 1.215 . S
C755 O775 1.289 . S
C756 C755 1.488 . S
C756 C757 1.348 . S
C756 C761 1.413 . S
C757 C756 1.348 . S
C757 C758 1.442 . S
C757 H784 0.930 . S
C758 C757 1.442 . S
C758 C759 1.381 . S
C758 H785 0.931 . S
C759 C758 1.381 . S
C759 C760 1.321 . S
C760 C759 1.321 . S
C760 C761 1.403 . S
C760 H786 0.934 . S
C761 C756 1.413 . S
C761 C760 1.403 . S
C761 H787 0.930 . S
C762 O776 1.275 . S
C762 O777 1.256 . S
C763 O778 1.259 . S
C763 O779 1.268 . S
C764 Ho753 2.811 . S
C764 C765 1.488 . S
C764 O780 1.215 . S
C764 O781 1.289 . S
C765 C764 1.488 . S
C765 C766 1.348 . S
C765 C770 1.413 . S
C766 C765 1.348 . S
C766 C767 1.442 . S
C766 H788 0.930 . S
C767 C766 1.442 . S
C767 C768 1.381 . S
C767 H789 0.931 . S
C768 C767 1.381 . S
C768 C769 1.321 . S
C769 C768 1.321 . S
C769 C770 1.403 . S
C769 H790 0.934 . S
C770 C765 1.413 . S
C770 C769 1.403 . S
C770 H791 0.930 . S
C771 O782 1.275 . S
C771 O783 1.256 . S
O772 Ho752 2.322 . S
O772 C754 1.259 . S
O773 Ho753 2.346 . S
O773 C754 1.268 . S
O774 Ho752 2.378 . S
O774 C755 1.215 . S
O775 Ho752 2.524 . S
O775 C755 1.289 . S
O776 Ho752 2.381 . S
O776 C762 1.275 . S
O777 Ho752 2.669 . S
O777 Ho753 2.305 . S
O777 C762 1.256 . S
O778 Ho753 2.322 . S
O778 C763 1.259 . S
O779 Ho752 2.346 . S
O779 C763 1.268 . S
O780 Ho753 2.378 . S
O780 C764 1.215 . S
O781 Ho753 2.524 . S
O781 C764 1.289 . S
O782 Ho753 2.381 . S
O782 C771 1.275 . S
O783 Ho752 2.305 . S
O783 Ho753 2.669 . S
O783 C771 1.256 . S
H784 C757 0.930 . S
H785 C758 0.931 . S
H786 C760 0.934 . S
H787 C761 0.930 . S
H788 C766 0.930 . S
H789 C767 0.931 . S
H790 C769 0.934 . S
H791 C770 0.930 . S
Ho792 C795 2.811 . S
Ho792 O812 2.322 . S
Ho792 O814 2.378 . S
Ho792 O815 2.524 . S
Ho792 O816 2.381 . S
Ho792 O817 2.669 . S
Ho792 O819 2.346 . S
Ho792 O823 2.305 . S
Ho793 C804 2.811 . S
Ho793 O813 2.346 . S
Ho793 O817 2.305 . S
Ho793 O818 2.322 . S
Ho793 O820 2.378 . S
Ho793 O821 2.524 . S
Ho793 O822 2.381 . S
Ho793 O823 2.669 . S
C794 O812 1.259 . S
C794 O813 1.268 . S
C795 Ho792 2.811 . S
C795 C796 1.488 . S
C795 O814 1.215 . S
C795 O815 1.289 . S
C796 C795 1.488 . S
C796 C797 1.348 . S
C796 C801 1.413 . S
C797 C796 1.348 . S
C797 C798 1.442 . S
C797 H824 0.930 . S
C798 C797 1.442 . S
C798 C799 1.381 . S
C798 H825 0.931 . S
C799 C798 1.381 . S
C799 C800 1.321 . S
C800 C799 1.321 . S
C800 C801 1.403 . S
C800 H826 0.934 . S
C801 C796 1.413 . S
C801 C800 1.403 . S
C801 H827 0.930 . S
C802 O816 1.275 . S
C802 O817 1.256 . S
C803 O818 1.259 . S
C803 O819 1.268 . S
C804 Ho793 2.811 . S
C804 C805 1.488 . S
C804 O820 1.215 . S
C804 O821 1.289 . S
C805 C804 1.488 . S
C805 C806 1.348 . S
C805 C810 1.413 . S
C806 C805 1.348 . S
C806 C807 1.442 . S
C806 H828 0.930 . S
C807 C806 1.442 . S
C807 C808 1.381 . S
C807 H829 0.931 . S
C808 C807 1.381 . S
C808 C809 1.321 . S
C809 C808 1.321 . S
C809 C810 1.403 . S
C809 H830 0.934 . S
C810 C805 1.413 . S
C810 C809 1.403 . S
C810 H831 0.930 . S
C811 O822 1.275 . S
C811 O823 1.256 . S
O812 Ho792 2.322 . S
O812 C794 1.259 . S
O813 Ho793 2.346 . S
O813 C794 1.268 . S
O814 Ho792 2.378 . S
O814 C795 1.215 . S
O815 Ho792 2.524 . S
O815 C795 1.289 . S
O816 Ho792 2.381 . S
O816 C802 1.275 . S
O817 Ho792 2.669 . S
O817 Ho793 2.305 . S
O817 C802 1.256 . S
O818 Ho793 2.322 . S
O818 C803 1.259 . S
O819 Ho792 2.346 . S
O819 C803 1.268 . S
O820 Ho793 2.378 . S
O820 C804 1.215 . S
O821 Ho793 2.524 . S
O821 C804 1.289 . S
O822 Ho793 2.381 . S
O822 C811 1.275 . S
O823 Ho792 2.305 . S
O823 Ho793 2.669 . S
O823 C811 1.256 . S
H824 C797 0.930 . S
H825 C798 0.931 . S
H826 C800 0.934 . S
H827 C801 0.930 . S
H828 C806 0.930 . S
H829 C807 0.931 . S
H830 C809 0.934 . S
H831 C810 0.930 . S
Ho832 C835 2.811 . S
Ho832 O852 2.322 . S
Ho832 O854 2.378 . S
Ho832 O855 2.524 . S
Ho832 O856 2.381 . S
Ho832 O857 2.669 . S
Ho832 O859 2.346 . S
Ho832 O863 2.305 . S
Ho833 C844 2.811 . S
Ho833 O853 2.346 . S
Ho833 O857 2.305 . S
Ho833 O858 2.322 . S
Ho833 O860 2.378 . S
Ho833 O861 2.524 . S
Ho833 O862 2.381 . S
Ho833 O863 2.669 . S
C834 O852 1.259 . S
C834 O853 1.268 . S
C835 Ho832 2.811 . S
C835 C836 1.488 . S
C835 O854 1.215 . S
C835 O855 1.289 . S
C836 C835 1.488 . S
C836 C837 1.348 . S
C836 C841 1.413 . S
C837 C836 1.348 . S
C837 C838 1.442 . S
C837 H864 0.930 . S
C838 C837 1.442 . S
C838 C839 1.381 . S
C838 H865 0.931 . S
C839 C838 1.381 . S
C839 C840 1.321 . S
C840 C839 1.321 . S
C840 C841 1.403 . S
C840 H866 0.934 . S
C841 C836 1.413 . S
C841 C840 1.403 . S
C841 H867 0.930 . S
C842 O856 1.275 . S
C842 O857 1.256 . S
C843 O858 1.259 . S
C843 O859 1.268 . S
C844 Ho833 2.811 . S
C844 C845 1.488 . S
C844 O860 1.215 . S
C844 O861 1.289 . S
C845 C844 1.488 . S
C845 C846 1.348 . S
C845 C850 1.413 . S
C846 C845 1.348 . S
C846 C847 1.442 . S
C846 H868 0.930 . S
C847 C846 1.442 . S
C847 C848 1.381 . S
C847 H869 0.931 . S
C848 C847 1.381 . S
C848 C849 1.321 . S
C849 C848 1.321 . S
C849 C850 1.403 . S
C849 H870 0.934 . S
C850 C845 1.413 . S
C850 C849 1.403 . S
C850 H871 0.930 . S
C851 O862 1.275 . S
C851 O863 1.256 . S
O852 Ho832 2.322 . S
O852 C834 1.259 . S
O853 Ho833 2.346 . S
O853 C834 1.268 . S
O854 Ho832 2.378 . S
O854 C835 1.215 . S
O855 Ho832 2.524 . S
O855 C835 1.289 . S
O856 Ho832 2.381 . S
O856 C842 1.275 . S
O857 Ho832 2.669 . S
O857 Ho833 2.305 . S
O857 C842 1.256 . S
O858 Ho833 2.322 . S
O858 C843 1.259 . S
O859 Ho832 2.346 . S
O859 C843 1.268 . S
O860 Ho833 2.378 . S
O860 C844 1.215 . S
O861 Ho833 2.524 . S
O861 C844 1.289 . S
O862 Ho833 2.381 . S
O862 C851 1.275 . S
O863 Ho832 2.305 . S
O863 Ho833 2.669 . S
O863 C851 1.256 . S
H864 C837 0.930 . S
H865 C838 0.931 . S
H866 C840 0.934 . S
H867 C841 0.930 . S
H868 C846 0.930 . S
H869 C847 0.931 . S
H870 C849 0.934 . S
H871 C850 0.930 . S
Ho872 C875 2.811 . S
Ho872 O892 2.322 . S
Ho872 O894 2.378 . S
Ho872 O895 2.524 . S
Ho872 O896 2.381 . S
Ho872 O897 2.669 . S
Ho872 O899 2.346 . S
Ho872 O903 2.305 . S
Ho873 C884 2.811 . S
Ho873 O893 2.346 . S
Ho873 O897 2.305 . S
Ho873 O898 2.322 . S
Ho873 O900 2.378 . S
Ho873 O901 2.524 . S
Ho873 O902 2.381 . S
Ho873 O903 2.669 . S
C874 O892 1.259 . S
C874 O893 1.268 . S
C875 Ho872 2.811 . S
C875 C876 1.488 . S
C875 O894 1.215 . S
C875 O895 1.289 . S
C876 C875 1.488 . S
C876 C877 1.348 . S
C876 C881 1.413 . S
C877 C876 1.348 . S
C877 C878 1.442 . S
C877 H904 0.930 . S
C878 C877 1.442 . S
C878 C879 1.381 . S
C878 H905 0.931 . S
C879 C878 1.381 . S
C879 C880 1.321 . S
C880 C879 1.321 . S
C880 C881 1.403 . S
C880 H906 0.934 . S
C881 C876 1.413 . S
C881 C880 1.403 . S
C881 H907 0.930 . S
C882 O896 1.275 . S
C882 O897 1.256 . S
C883 O898 1.259 . S
C883 O899 1.268 . S
C884 Ho873 2.811 . S
C884 C885 1.488 . S
C884 O900 1.215 . S
C884 O901 1.289 . S
C885 C884 1.488 . S
C885 C886 1.348 . S
C885 C890 1.413 . S
C886 C885 1.348 . S
C886 C887 1.442 . S
C886 H908 0.930 . S
C887 C886 1.442 . S
C887 C888 1.381 . S
C887 H909 0.931 . S
C888 C887 1.381 . S
C888 C889 1.321 . S
C889 C888 1.321 . S
C889 C890 1.403 . S
C889 H910 0.934 . S
C890 C885 1.413 . S
C890 C889 1.403 . S
C890 H911 0.930 . S
C891 O902 1.275 . S
C891 O903 1.256 . S
O892 Ho872 2.322 . S
O892 C874 1.259 . S
O893 Ho873 2.346 . S
O893 C874 1.268 . S
O894 Ho872 2.378 . S
O894 C875 1.215 . S
O895 Ho872 2.524 . S
O895 C875 1.289 . S
O896 Ho872 2.381 . S
O896 C882 1.275 . S
O897 Ho872 2.669 . S
O897 Ho873 2.305 . S
O897 C882 1.256 . S
O898 Ho873 2.322 . S
O898 C883 1.259 . S
O899 Ho872 2.346 . S
O899 C883 1.268 . S
O900 Ho873 2.378 . S
O900 C884 1.215 . S
O901 Ho873 2.524 . S
O901 C884 1.289 . S
O902 Ho873 2.381 . S
O902 C891 1.275 . S
O903 Ho872 2.305 . S
O903 Ho873 2.669 . S
O903 C891 1.256 . S
H904 C877 0.930 . S
H905 C878 0.931 . S
H906 C880 0.934 . S
H907 C881 0.930 . S
H908 C886 0.930 . S
H909 C887 0.931 . S
H910 C889 0.934 . S
H911 C890 0.930 . S
Ho912 C915 2.811 . S
Ho912 O932 2.322 . S
Ho912 O934 2.378 . S
Ho912 O935 2.524 1_556 S
Ho912 O936 2.381 . S
Ho912 O937 2.669 . S
Ho912 O939 2.346 1_556 S
Ho912 O943 2.305 1_556 S
Ho913 C924 2.811 1_455 S
Ho913 O933 2.346 . S
Ho913 O937 2.305 1_554 S
Ho913 O938 2.322 . S
Ho913 O940 2.378 1_455 S
Ho913 O941 2.524 1_455 S
Ho913 O942 2.381 . S
Ho913 O943 2.669 . S
C914 O932 1.259 . S
C914 O933 1.268 1_556 S
C915 Ho912 2.811 . S
C915 C916 1.488 . S
C915 O934 1.215 . S
C915 O935 1.289 1_556 S
C916 C915 1.488 . S
C916 C917 1.348 1_556 S
C916 C921 1.413 . S
C917 C916 1.348 1_554 S
C917 C918 1.442 1_554 S
C917 H944 0.930 . S
C918 C917 1.442 1_556 S
C918 C919 1.381 . S
C918 H945 0.931 1_556 S
C919 C918 1.381 . S
C919 C920 1.321 . S
C920 C919 1.321 . S
C920 C921 1.403 . S
C920 H946 0.934 . S
C921 C916 1.413 . S
C921 C920 1.403 . S
C921 H947 0.930 . S
C922 O936 1.275 . S
C922 O937 1.256 . S
C923 O938 1.259 . S
C923 O939 1.268 . S
C924 Ho913 2.811 1_655 S
C924 C925 1.488 . S
C924 O940 1.215 . S
C924 O941 1.289 . S
C925 C924 1.488 . S
C925 C926 1.348 . S
C925 C930 1.413 . S
C926 C925 1.348 . S
C926 C927 1.442 . S
C926 H948 0.949 . S
C927 C926 1.442 . S
C927 C928 1.381 . S
C927 H949 0.931 . S
C928 C927 1.381 . S
C928 C929 1.321 . S
C929 C928 1.321 . S
C929 C930 1.403 . S
C929 H950 0.934 . S
C930 C925 1.413 . S
C930 C929 1.403 . S
C930 H951 0.930 . S
C931 O942 1.275 . S
C931 O943 1.256 . S
O932 Ho912 2.322 . S
O932 C914 1.259 . S
O933 Ho913 2.346 . S
O933 C914 1.268 1_554 S
O934 Ho912 2.378 . S
O934 C915 1.215 . S
O935 Ho912 2.524 1_554 S
O935 C915 1.289 1_554 S
O936 Ho912 2.381 . S
O936 C922 1.275 . S
O937 Ho912 2.669 . S
O937 Ho913 2.305 1_556 S
O937 C922 1.256 . S
O938 Ho913 2.322 . S
O938 C923 1.259 . S
O939 Ho912 2.346 1_554 S
O939 C923 1.268 . S
O940 Ho913 2.378 1_655 S
O940 C924 1.215 . S
O941 Ho913 2.524 1_655 S
O941 C924 1.289 . S
O942 Ho913 2.381 . S
O942 C931 1.275 . S
O943 Ho912 2.305 1_554 S
O943 Ho913 2.669 . S
O943 C931 1.256 . S
H944 C917 0.930 . S
H945 C918 0.931 1_554 S
H946 C920 0.934 . S
H947 C921 0.930 . S
H948 C926 0.949 . S
H949 C927 0.931 . S
H950 C929 0.934 . S
H951 C930 0.930 . S
H952 C960 0.929 1_655 S
H953 C962 0.930 . S
H954 C964 0.930 . S
H955 C967 0.929 . S
H956 C970 0.930 1_655 S
H957 C972 0.960 . S
H958 C972 0.960 . S
H959 C972 0.960 . S
C960 H952 0.929 1_455 S
C960 C961 1.377 . S
C960 C962 1.384 . S
C961 C960 1.377 . S
C961 C967 1.390 . S
C962 H953 0.930 . S
C962 C960 1.384 . S
C962 C963 1.372 . S
C963 C962 1.372 . S
C963 C964 1.400 . S
C963 C968 1.490 . S
C964 H954 0.930 . S
C964 C963 1.400 . S
C964 C967 1.386 . S
H965 C981 0.930 . S
H966 C982 0.931 . S
C967 H955 0.929 . S
C967 C961 1.390 . S
C967 C964 1.386 . S
C968 C963 1.490 . S
C968 C970 1.395 . S
C968 C971 1.403 . S
H969 C975 0.930 . S
C970 H956 0.930 1_455 S
C970 C968 1.395 . S
C970 C973 1.403 . S
C971 C968 1.403 . S
C971 C972 1.524 . S
C971 C975 1.400 . S
C972 H957 0.960 . S
C972 H958 0.960 . S
C972 H959 0.960 . S
C972 C971 1.524 . S
C973 C970 1.403 . S
C973 C974 1.392 . S
C973 C977 1.495 1_455 S
C974 C973 1.392 . S
C974 C975 1.385 . S
C974 C976 1.478 . S
C975 H969 0.930 . S
C975 C971 1.400 . S
C975 C974 1.385 . S
C976 C974 1.478 . S
C976 C978 1.346 1_556 S
C976 C982 1.383 . S
C977 C973 1.495 1_655 S
C977 H983 0.959 . S
C977 H984 0.961 . S
C977 H985 0.960 . S
C978 C976 1.346 1_554 S
C978 C979 1.411 . S
C978 H986 0.950 . S
C979 C978 1.411 . S
C979 C980 1.383 1_554 S
C979 H987 0.929 . S
C980 C979 1.383 1_556 S
C980 C981 1.377 . S
C981 H965 0.930 . S
C981 C980 1.377 . S
C981 C982 1.379 . S
C982 H966 0.931 . S
C982 C976 1.383 . S
C982 C981 1.379 . S
H983 C977 0.959 . S
H984 C977 0.961 . S
H985 C977 0.960 . S
H986 C978 0.950 . S
H987 C979 0.929 . S
H988 C996 0.929 . S
H989 C998 0.930 . S
H990 C1000 0.930 . S
H991 C1003 0.929 . S
H992 C1006 0.930 . S
H993 C1008 0.960 . S
H994 C1008 0.960 . S
H995 C1008 0.960 . S
C996 H988 0.929 . S
C996 C997 1.377 . S
C996 C998 1.384 . S
C997 C996 1.377 . S
C997 C1003 1.390 . S
C998 H989 0.930 . S
C998 C996 1.384 . S
C998 C999 1.372 . S
C999 C998 1.372 . S
C999 C1000 1.400 . S
C999 C1004 1.490 . S
C1000 H990 0.930 . S
C1000 C999 1.400 . S
C1000 C1003 1.386 . S
H1001 C1017 0.930 . S
H1002 C1018 0.931 . S
C1003 H991 0.929 . S
C1003 C997 1.390 . S
C1003 C1000 1.386 . S
C1004 C999 1.490 . S
C1004 C1006 1.395 . S
C1004 C1007 1.403 . S
H1005 C1011 0.930 . S
C1006 H992 0.930 . S
C1006 C1004 1.395 . S
C1006 C1009 1.403 . S
C1007 C1004 1.403 . S
C1007 C1008 1.524 . S
C1007 C1011 1.400 . S
C1008 H993 0.960 . S
C1008 H994 0.960 . S
C1008 H995 0.960 . S
C1008 C1007 1.524 . S
C1009 C1006 1.403 . S
C1009 C1010 1.392 . S
C1009 C1013 1.495 . S
C1010 C1009 1.392 . S
C1010 C1011 1.385 . S
C1010 C1012 1.478 . S
C1011 H1005 0.930 . S
C1011 C1007 1.400 . S
C1011 C1010 1.385 . S
C1012 C1010 1.478 . S
C1012 C1014 1.381 . S
C1012 C1018 1.383 . S
C1013 C1009 1.495 . S
C1013 H1019 0.959 . S
C1013 H1020 0.961 . S
C1013 H1021 0.960 . S
C1014 C1012 1.381 . S
C1014 C1015 1.394 . S
C1014 H1022 0.930 . S
C1015 C1014 1.394 . S
C1015 C1016 1.383 . S
C1015 H1023 0.929 . S
C1016 C1015 1.383 . S
C1016 C1017 1.377 . S
C1017 H1001 0.930 . S
C1017 C1016 1.377 . S
C1017 C1018 1.379 . S
C1018 H1002 0.931 . S
C1018 C1012 1.383 . S
C1018 C1017 1.379 . S
H1019 C1013 0.959 . S
H1020 C1013 0.961 . S
H1021 C1013 0.960 . S
H1022 C1014 0.930 . S
H1023 C1015 0.929 . S
H1024 C1032 0.929 . S
H1025 C1034 0.930 . S
H1026 C1036 0.930 . S
H1027 C1039 0.929 . S
H1028 C1042 0.930 . S
H1029 C1044 0.960 . S
H1030 C1044 0.960 . S
H1031 C1044 0.960 . S
C1032 H1024 0.929 . S
C1032 C1033 1.377 . S
C1032 C1034 1.384 . S
C1033 C1032 1.377 . S
C1033 C1039 1.390 . S
C1034 H1025 0.930 . S
C1034 C1032 1.384 . S
C1034 C1035 1.372 . S
C1035 C1034 1.372 . S
C1035 C1036 1.400 . S
C1035 C1040 1.490 . S
C1036 H1026 0.930 . S
C1036 C1035 1.400 . S
C1036 C1039 1.386 . S
H1037 C1053 0.930 . S
H1038 C1054 0.931 . S
C1039 H1027 0.929 . S
C1039 C1033 1.390 . S
C1039 C1036 1.386 . S
C1040 C1035 1.490 . S
C1040 C1042 1.395 . S
C1040 C1043 1.403 . S
H1041 C1047 0.930 . S
C1042 H1028 0.930 . S
C1042 C1040 1.395 . S
C1042 C1045 1.403 . S
C1043 C1040 1.403 . S
C1043 C1044 1.524 . S
C1043 C1047 1.400 . S
C1044 H1029 0.960 . S
C1044 H1030 0.960 . S
C1044 H1031 0.960 . S
C1044 C1043 1.524 . S
C1045 C1042 1.403 . S
C1045 C1046 1.392 . S
C1045 C1049 1.495 . S
C1046 C1045 1.392 . S
C1046 C1047 1.385 . S
C1046 C1048 1.478 . S
C1047 H1041 0.930 . S
C1047 C1043 1.400 . S
C1047 C1046 1.385 . S
C1048 C1046 1.478 . S
C1048 C1050 1.381 . S
C1048 C1054 1.383 . S
C1049 C1045 1.495 . S
C1049 H1055 0.959 . S
C1049 H1056 0.961 . S
C1049 H1057 0.960 . S
C1050 C1048 1.381 . S
C1050 C1051 1.394 . S
C1050 H1058 0.930 . S
C1051 C1050 1.394 . S
C1051 C1052 1.383 . S
C1051 H1059 0.929 . S
C1052 C1051 1.383 . S
C1052 C1053 1.377 . S
C1053 H1037 0.930 . S
C1053 C1052 1.377 . S
C1053 C1054 1.379 . S
C1054 H1038 0.931 . S
C1054 C1048 1.383 . S
C1054 C1053 1.379 . S
H1055 C1049 0.959 . S
H1056 C1049 0.961 . S
H1057 C1049 0.960 . S
H1058 C1050 0.930 . S
H1059 C1051 0.929 . S
H1060 C1068 0.929 . S
H1061 C1070 0.930 . S
H1062 C1072 0.930 . S
H1063 C1075 0.929 . S
H1064 C1078 0.930 . S
H1065 C1080 0.960 . S
H1066 C1080 0.960 . S
H1067 C1080 0.960 . S
C1068 H1060 0.929 . S
C1068 C1069 1.377 . S
C1068 C1070 1.384 . S
C1069 C1068 1.377 . S
C1069 C1075 1.390 . S
C1070 H1061 0.930 . S
C1070 C1068 1.384 . S
C1070 C1071 1.372 . S
C1071 C1070 1.372 . S
C1071 C1072 1.400 . S
C1071 C1076 1.490 . S
C1072 H1062 0.930 . S
C1072 C1071 1.400 . S
C1072 C1075 1.386 . S
H1073 C1089 0.930 . S
H1074 C1090 0.931 . S
C1075 H1063 0.929 . S
C1075 C1069 1.390 . S
C1075 C1072 1.386 . S
C1076 C1071 1.490 . S
C1076 C1078 1.395 . S
C1076 C1079 1.403 . S
H1077 C1083 0.930 . S
C1078 H1064 0.930 . S
C1078 C1076 1.395 . S
C1078 C1081 1.403 . S
C1079 C1076 1.403 . S
C1079 C1080 1.524 . S
C1079 C1083 1.400 . S
C1080 H1065 0.960 . S
C1080 H1066 0.960 . S
C1080 H1067 0.960 . S
C1080 C1079 1.524 . S
C1081 C1078 1.403 . S
C1081 C1082 1.392 . S
C1081 C1085 1.495 . S
C1082 C1081 1.392 . S
C1082 C1083 1.385 . S
C1082 C1084 1.478 . S
C1083 H1077 0.930 . S
C1083 C1079 1.400 . S
C1083 C1082 1.385 . S
C1084 C1082 1.478 . S
C1084 C1086 1.381 . S
C1084 C1090 1.383 . S
C1085 C1081 1.495 . S
C1085 H1091 0.959 . S
C1085 H1092 0.961 . S
C1085 H1093 0.960 . S
C1086 C1084 1.381 . S
C1086 C1087 1.394 . S
C1086 H1094 0.930 . S
C1087 C1086 1.394 . S
C1087 C1088 1.383 . S
C1087 H1095 0.929 . S
C1088 C1087 1.383 . S
C1088 C1089 1.377 . S
C1089 H1073 0.930 . S
C1089 C1088 1.377 . S
C1089 C1090 1.379 . S
C1090 H1074 0.931 . S
C1090 C1084 1.383 . S
C1090 C1089 1.379 . S
H1091 C1085 0.959 . S
H1092 C1085 0.961 . S
H1093 C1085 0.960 . S
H1094 C1086 0.930 . S
H1095 C1087 0.929 . S
H1096 C1104 0.939 . S
H1097 C1106 0.930 . S
H1098 C1108 0.930 . S
H1099 C1111 0.929 . S
H1100 C1114 0.930 . S
H1101 C1116 0.960 . S
H1102 C1116 0.960 . S
H1103 C1116 0.960 . S
C1104 H1096 0.939 . S
C1104 C1105 1.377 . S
C1104 C1106 1.384 . S
C1105 C1104 1.377 . S
C1105 C1111 1.390 . S
C1106 H1097 0.930 . S
C1106 C1104 1.384 . S
C1106 C1107 1.372 . S
C1107 C1106 1.372 . S
C1107 C1108 1.400 . S
C1107 C1112 1.490 . S
C1108 H1098 0.930 . S
C1108 C1107 1.400 . S
C1108 C1111 1.386 . S
H1109 C1125 0.930 . S
H1110 C1126 0.931 . S
C1111 H1099 0.929 . S
C1111 C1105 1.390 . S
C1111 C1108 1.386 . S
C1112 C1107 1.490 . S
C1112 C1114 1.395 . S
C1112 C1115 1.403 . S
H1113 C1119 0.930 . S
C1114 H1100 0.930 . S
C1114 C1112 1.395 . S
C1114 C1117 1.403 . S
C1115 C1112 1.403 . S
C1115 C1116 1.524 1_455 S
C1115 C1119 1.400 . S
C1116 H1101 0.960 . S
C1116 H1102 0.960 . S
C1116 H1103 0.960 . S
C1116 C1115 1.524 1_655 S
C1117 C1114 1.403 . S
C1117 C1118 1.392 . S
C1117 C1121 1.495 . S
C1118 C1117 1.392 . S
C1118 C1119 1.385 . S
C1118 C1120 1.478 . S
C1119 H1113 0.930 . S
C1119 C1115 1.400 . S
C1119 C1118 1.385 . S
C1120 C1118 1.478 . S
C1120 C1122 1.381 . S
C1120 C1126 1.383 . S
C1121 C1117 1.495 . S
C1121 H1127 0.959 . S
C1121 H1128 0.961 . S
C1121 H1129 0.960 . S
C1122 C1120 1.381 . S
C1122 C1123 1.394 . S
C1122 H1130 0.930 . S
C1123 C1122 1.394 . S
C1123 C1124 1.383 . S
C1123 H1131 0.929 . S
C1124 C1123 1.383 . S
C1124 C1125 1.377 . S
C1125 H1109 0.930 . S
C1125 C1124 1.377 . S
C1125 C1126 1.379 . S
C1126 H1110 0.931 . S
C1126 C1120 1.383 . S
C1126 C1125 1.379 . S
H1127 C1121 0.959 . S
H1128 C1121 0.961 . S
H1129 C1121 0.960 . S
H1130 C1122 0.930 . S
H1131 C1123 0.929 . S
H1132 C1140 0.929 . S
H1133 C1142 0.930 . S
H1134 C1144 0.930 . S
H1135 C1147 0.929 . S
H1136 C1150 0.930 . S
H1137 C1152 0.960 . S
H1138 C1152 0.960 . S
H1139 C1152 0.960 . S
C1140 H1132 0.929 . S
C1140 C1141 1.377 . S
C1140 C1142 1.384 . S
C1141 C1140 1.377 . S
C1141 C1147 1.390 . S
C1142 H1133 0.930 . S
C1142 C1140 1.384 . S
C1142 C1143 1.372 . S
C1143 C1142 1.372 . S
C1143 C1144 1.400 . S
C1143 C1148 1.490 . S
C1144 H1134 0.930 . S
C1144 C1143 1.400 . S
C1144 C1147 1.386 . S
H1145 C1161 0.930 . S
H1146 C1162 0.931 . S
C1147 H1135 0.929 . S
C1147 C1141 1.390 . S
C1147 C1144 1.386 . S
C1148 C1143 1.490 . S
C1148 C1150 1.395 . S
C1148 C1151 1.403 . S
H1149 C1155 0.930 . S
C1150 H1136 0.930 . S
C1150 C1148 1.395 . S
C1150 C1153 1.403 . S
C1151 C1148 1.403 . S
C1151 C1152 1.524 . S
C1151 C1155 1.400 . S
C1152 H1137 0.960 . S
C1152 H1138 0.960 . S
C1152 H1139 0.960 . S
C1152 C1151 1.524 . S
C1153 C1150 1.403 . S
C1153 C1154 1.392 . S
C1153 C1157 1.495 . S
C1154 C1153 1.392 . S
C1154 C1155 1.385 . S
C1154 C1156 1.478 . S
C1155 H1149 0.930 . S
C1155 C1151 1.400 . S
C1155 C1154 1.385 . S
C1156 C1154 1.478 . S
C1156 C1158 1.381 . S
C1156 C1162 1.383 . S
C1157 C1153 1.495 . S
C1157 H1163 0.959 . S
C1157 H1164 0.961 . S
C1157 H1165 0.960 . S
C1158 C1156 1.381 . S
C1158 C1159 1.394 . S
C1158 H1166 0.930 . S
C1159 C1158 1.394 . S
C1159 C1160 1.383 . S
C1159 H1167 0.929 . S
C1160 C1159 1.383 . S
C1160 C1161 1.377 . S
C1161 H1145 0.930 . S
C1161 C1160 1.377 . S
C1161 C1162 1.379 . S
C1162 H1146 0.931 . S
C1162 C1156 1.383 . S
C1162 C1161 1.379 . S
H1163 C1157 0.959 . S
H1164 C1157 0.961 . S
H1165 C1157 0.960 . S
H1166 C1158 0.930 . S
H1167 C1159 0.929 . S
H1168 C1176 0.929 . S
H1169 C1178 0.930 . S
H1170 C1180 0.930 . S
H1171 C1183 0.929 . S
H1172 C1186 0.930 . S
H1173 C1188 0.960 . S
H1174 C1188 0.960 . S
H1175 C1188 0.960 . S
C1176 H1168 0.929 . S
C1176 C1177 1.377 . S
C1176 C1178 1.384 . S
C1177 C1176 1.377 . S
C1177 C1183 1.390 . S
C1178 H1169 0.930 . S
C1178 C1176 1.384 . S
C1178 C1179 1.372 . S
C1179 C1178 1.372 . S
C1179 C1180 1.400 . S
C1179 C1184 1.490 . S
C1180 H1170 0.930 . S
C1180 C1179 1.400 . S
C1180 C1183 1.386 . S
H1181 C1197 0.930 . S
H1182 C1198 0.931 . S
C1183 H1171 0.929 . S
C1183 C1177 1.390 . S
C1183 C1180 1.386 . S
C1184 C1179 1.490 . S
C1184 C1186 1.395 . S
C1184 C1187 1.403 . S
H1185 C1191 0.930 . S
C1186 H1172 0.930 . S
C1186 C1184 1.395 . S
C1186 C1189 1.403 . S
C1187 C1184 1.403 . S
C1187 C1188 1.524 . S
C1187 C1191 1.400 . S
C1188 H1173 0.960 . S
C1188 H1174 0.960 . S
C1188 H1175 0.960 . S
C1188 C1187 1.524 . S
C1189 C1186 1.403 . S
C1189 C1190 1.392 . S
C1189 C1193 1.495 . S
C1190 C1189 1.392 . S
C1190 C1191 1.385 . S
C1190 C1192 1.478 . S
C1191 H1185 0.930 . S
C1191 C1187 1.400 . S
C1191 C1190 1.385 . S
C1192 C1190 1.478 . S
C1192 C1194 1.381 . S
C1192 C1198 1.383 . S
C1193 C1189 1.495 . S
C1193 H1199 0.959 . S
C1193 H1200 0.961 . S
C1193 H1201 0.960 . S
C1194 C1192 1.381 . S
C1194 C1195 1.394 . S
C1194 H1202 0.930 . S
C1195 C1194 1.394 . S
C1195 C1196 1.383 . S
C1195 H1203 0.929 . S
C1196 C1195 1.383 . S
C1196 C1197 1.377 . S
C1197 H1181 0.930 . S
C1197 C1196 1.377 . S
C1197 C1198 1.379 . S
C1198 H1182 0.931 . S
C1198 C1192 1.383 . S
C1198 C1197 1.379 . S
H1199 C1193 0.959 . S
H1200 C1193 0.961 . S
H1201 C1193 0.960 . S
H1202 C1194 0.930 . S
H1203 C1195 0.929 . S
H1204 C1212 0.929 . S
H1205 C1214 0.930 . S
H1206 C1216 0.930 . S
H1207 C1219 0.929 . S
H1208 C1222 0.930 . S
H1209 C1224 0.960 . S
H1210 C1224 0.960 . S
H1211 C1224 0.960 . S
C1212 H1204 0.929 . S
C1212 C1213 1.377 . S
C1212 C1214 1.384 . S
C1213 C1212 1.377 . S
C1213 C1219 1.390 . S
C1214 H1205 0.930 . S
C1214 C1212 1.384 . S
C1214 C1215 1.372 . S
C1215 C1214 1.372 . S
C1215 C1216 1.400 . S
C1215 C1220 1.490 . S
C1216 H1206 0.930 . S
C1216 C1215 1.400 . S
C1216 C1219 1.386 . S
H1217 C1233 0.930 . S
H1218 C1234 0.931 . S
C1219 H1207 0.929 . S
C1219 C1213 1.390 . S
C1219 C1216 1.386 . S
C1220 C1215 1.490 . S
C1220 C1222 1.395 . S
C1220 C1223 1.403 . S
H1221 C1227 0.930 . S
C1222 H1208 0.930 . S
C1222 C1220 1.395 . S
C1222 C1225 1.403 . S
C1223 C1220 1.403 . S
C1223 C1224 1.524 . S
C1223 C1227 1.400 . S
C1224 H1209 0.960 . S
C1224 H1210 0.960 . S
C1224 H1211 0.960 . S
C1224 C1223 1.524 . S
C1225 C1222 1.403 . S
C1225 C1226 1.392 . S
C1225 C1229 1.495 . S
C1226 C1225 1.392 . S
C1226 C1227 1.385 . S
C1226 C1228 1.478 . S
C1227 H1221 0.930 . S
C1227 C1223 1.400 . S
C1227 C1226 1.385 . S
C1228 C1226 1.478 . S
C1228 C1230 1.381 . S
C1228 C1234 1.383 . S
C1229 C1225 1.495 . S
C1229 H1235 0.959 . S
C1229 H1236 0.961 . S
C1229 H1237 0.960 . S
C1230 C1228 1.381 . S
C1230 C1231 1.394 . S
C1230 H1238 0.930 . S
C1231 C1230 1.394 . S
C1231 C1232 1.383 . S
C1231 H1239 0.929 . S
C1232 C1231 1.383 . S
C1232 C1233 1.377 . S
C1233 H1217 0.930 . S
C1233 C1232 1.377 . S
C1233 C1234 1.379 . S
C1234 H1218 0.931 . S
C1234 C1228 1.383 . S
C1234 C1233 1.379 . S
H1235 C1229 0.959 . S
H1236 C1229 0.961 . S
H1237 C1229 0.960 . S
H1238 C1230 0.930 . S
H1239 C1231 0.929 . S
H1240 C1248 0.929 . S
H1241 C1250 0.930 . S
H1242 C1252 0.930 . S
H1243 C1255 0.929 . S
H1244 C1258 0.930 . S
H1245 C1260 0.960 . S
H1246 C1260 0.960 . S
H1247 C1260 0.960 . S
C1248 H1240 0.929 . S
C1248 C1249 1.377 . S
C1248 C1250 1.384 . S
C1249 C1248 1.377 . S
C1249 C1255 1.390 . S
C1250 H1241 0.930 . S
C1250 C1248 1.384 . S
C1250 C1251 1.372 . S
C1251 C1250 1.372 . S
C1251 C1252 1.400 . S
C1251 C1256 1.490 . S
C1252 H1242 0.930 . S
C1252 C1251 1.400 . S
C1252 C1255 1.386 . S
H1253 C1269 0.930 . S
H1254 C1270 0.931 . S
C1255 H1243 0.929 . S
C1255 C1249 1.390 . S
C1255 C1252 1.386 . S
C1256 C1251 1.490 . S
C1256 C1258 1.395 . S
C1256 C1259 1.403 . S
H1257 C1263 0.930 . S
C1258 H1244 0.930 . S
C1258 C1256 1.395 . S
C1258 C1261 1.403 . S
C1259 C1256 1.403 . S
C1259 C1260 1.524 . S
C1259 C1263 1.400 . S
C1260 H1245 0.960 . S
C1260 H1246 0.960 . S
C1260 H1247 0.960 . S
C1260 C1259 1.524 . S
C1261 C1258 1.403 . S
C1261 C1262 1.392 . S
C1261 C1265 1.495 1_655 S
C1262 C1261 1.392 . S
C1262 C1263 1.385 . S
C1262 C1264 1.478 1_655 S
C1263 H1257 0.930 . S
C1263 C1259 1.400 . S
C1263 C1262 1.385 . S
C1264 C1262 1.478 1_455 S
C1264 C1266 1.381 1_455 S
C1264 C1270 1.383 . S
C1265 C1261 1.495 1_455 S
C1265 H1271 0.984 . S
C1265 H1272 0.961 . S
C1265 H1273 0.960 1_455 S
C1266 C1264 1.381 1_655 S
C1266 C1267 1.394 1_655 S
C1266 H1274 0.930 . S
C1267 C1266 1.394 1_455 S
C1267 C1268 1.383 . S
C1267 H1275 0.929 1_455 S
C1268 C1267 1.383 . S
C1268 C1269 1.377 . S
C1269 H1253 0.930 . S
C1269 C1268 1.377 . S
C1269 C1270 1.379 . S
C1270 H1254 0.931 . S
C1270 C1264 1.383 . S
C1270 C1269 1.379 . S
H1271 C1265 0.984 . S
H1272 C1265 0.961 . S
H1273 C1265 0.960 1_655 S
H1274 C1266 0.930 . S
H1275 C1267 0.929 1_655 S
H1276 C1284 0.929 . S
H1277 C1286 0.930 . S
H1278 C1288 0.930 . S
H1279 C1291 0.929 . S
H1280 C1294 0.930 . S
H1281 C1296 0.960 . S
H1282 C1296 0.960 . S
H1283 C1296 0.960 . S
C1284 H1276 0.929 . S
C1284 C1285 1.377 . S
C1284 C1286 1.384 . S
C1285 C1284 1.377 . S
C1285 C1291 1.390 . S
C1286 H1277 0.930 . S
C1286 C1284 1.384 . S
C1286 C1287 1.372 . S
C1287 C1286 1.372 . S
C1287 C1288 1.400 . S
C1287 C1292 1.490 . S
C1288 H1278 0.930 . S
C1288 C1287 1.400 . S
C1288 C1291 1.386 . S
H1289 C1305 0.930 . S
H1290 C1306 0.931 . S
C1291 H1279 0.929 . S
C1291 C1285 1.390 . S
C1291 C1288 1.386 . S
C1292 C1287 1.490 . S
C1292 C1294 1.395 . S
C1292 C1295 1.403 . S
H1293 C1299 0.930 . S
C1294 H1280 0.930 . S
C1294 C1292 1.395 . S
C1294 C1297 1.403 . S
C1295 C1292 1.403 . S
C1295 C1296 1.524 . S
C1295 C1299 1.400 . S
C1296 H1281 0.960 . S
C1296 H1282 0.960 . S
C1296 H1283 0.960 . S
C1296 C1295 1.524 . S
C1297 C1294 1.403 . S
C1297 C1298 1.392 . S
C1297 C1301 1.495 . S
C1298 C1297 1.392 . S
C1298 C1299 1.385 . S
C1298 C1300 1.478 . S
C1299 H1293 0.930 . S
C1299 C1295 1.400 . S
C1299 C1298 1.385 . S
C1300 C1298 1.478 . S
C1300 C1302 1.381 . S
C1300 C1306 1.383 . S
C1301 C1297 1.495 . S
C1301 H1307 0.959 . S
C1301 H1308 0.961 . S
C1301 H1309 0.960 . S
C1302 C1300 1.381 . S
C1302 C1303 1.394 . S
C1302 H1310 0.930 . S
C1303 C1302 1.394 . S
C1303 C1304 1.383 . S
C1303 H1311 0.929 . S
C1304 C1303 1.383 . S
C1304 C1305 1.377 . S
C1305 H1289 0.930 . S
C1305 C1304 1.377 . S
C1305 C1306 1.379 . S
C1306 H1290 0.931 . S
C1306 C1300 1.383 . S
C1306 C1305 1.379 . S
H1307 C1301 0.959 . S
H1308 C1301 0.961 . S
H1309 C1301 0.960 . S
H1310 C1302 0.930 . S
H1311 C1303 0.929 . S
H1312 C1320 0.929 . S
H1313 C1322 0.930 . S
H1314 C1324 0.930 . S
H1315 C1327 0.929 . S
H1316 C1330 0.930 . S
H1317 C1332 0.960 . S
H1318 C1332 0.960 . S
H1319 C1332 0.960 . S
C1320 H1312 0.929 . S
C1320 C1321 1.377 . S
C1320 C1322 1.384 . S
C1321 C1320 1.377 . S
C1321 C1327 1.390 . S
C1322 H1313 0.930 . S
C1322 C1320 1.384 . S
C1322 C1323 1.372 . S
C1323 C1322 1.372 . S
C1323 C1324 1.400 . S
C1323 C1328 1.490 . S
C1324 H1314 0.930 . S
C1324 C1323 1.400 . S
C1324 C1327 1.386 . S
H1325 C1341 0.930 . S
H1326 C1342 0.931 . S
C1327 H1315 0.929 . S
C1327 C1321 1.390 . S
C1327 C1324 1.386 . S
C1328 C1323 1.490 . S
C1328 C1330 1.395 . S
C1328 C1331 1.403 . S
H1329 C1335 0.930 . S
C1330 H1316 0.930 . S
C1330 C1328 1.395 . S
C1330 C1333 1.403 . S
C1331 C1328 1.403 . S
C1331 C1332 1.524 . S
C1331 C1335 1.400 . S
C1332 H1317 0.960 . S
C1332 H1318 0.960 . S
C1332 H1319 0.960 . S
C1332 C1331 1.524 . S
C1333 C1330 1.403 . S
C1333 C1334 1.392 . S
C1333 C1337 1.495 . S
C1334 C1333 1.392 . S
C1334 C1335 1.385 . S
C1334 C1336 1.478 . S
C1335 H1329 0.930 . S
C1335 C1331 1.400 . S
C1335 C1334 1.385 . S
C1336 C1334 1.478 . S
C1336 C1338 1.381 . S
C1336 C1342 1.383 . S
C1337 C1333 1.495 . S
C1337 H1343 0.959 . S
C1337 H1344 0.961 . S
C1337 H1345 0.960 . S
C1338 C1336 1.381 . S
C1338 C1339 1.394 . S
C1338 H1346 0.930 . S
C1339 C1338 1.394 . S
C1339 C1340 1.383 . S
C1339 H1347 0.929 . S
C1340 C1339 1.383 . S
C1340 C1341 1.377 . S
C1341 H1325 0.930 . S
C1341 C1340 1.377 . S
C1341 C1342 1.379 . S
C1342 H1326 0.931 . S
C1342 C1336 1.383 . S
C1342 C1341 1.379 . S
H1343 C1337 0.959 . S
H1344 C1337 0.961 . S
H1345 C1337 0.960 . S
H1346 C1338 0.930 . S
H1347 C1339 0.929 . S
H1348 C1356 0.929 . S
H1349 C1358 0.930 . S
H1350 C1360 0.930 . S
H1351 C1363 0.929 . S
H1352 C1366 0.930 . S
H1353 C1368 0.960 . S
H1354 C1368 0.960 . S
H1355 C1368 0.960 . S
C1356 H1348 0.929 . S
C1356 C1357 1.377 . S
C1356 C1358 1.384 . S
C1357 C1356 1.377 . S
C1357 C1363 1.390 . S
C1358 H1349 0.930 . S
C1358 C1356 1.384 . S
C1358 C1359 1.372 . S
C1359 C1358 1.372 . S
C1359 C1360 1.400 . S
C1359 C1364 1.490 . S
C1360 H1350 0.930 . S
C1360 C1359 1.400 . S
C1360 C1363 1.386 . S
H1361 C1377 0.930 . S
H1362 C1378 0.931 . S
C1363 H1351 0.929 . S
C1363 C1357 1.390 . S
C1363 C1360 1.386 . S
C1364 C1359 1.490 . S
C1364 C1366 1.395 . S
C1364 C1367 1.403 . S
H1365 C1371 0.930 . S
C1366 H1352 0.930 . S
C1366 C1364 1.395 . S
C1366 C1369 1.403 . S
C1367 C1364 1.403 . S
C1367 C1368 1.524 . S
C1367 C1371 1.400 . S
C1368 H1353 0.960 . S
C1368 H1354 0.960 . S
C1368 H1355 0.960 . S
C1368 C1367 1.524 . S
C1369 C1366 1.403 . S
C1369 C1370 1.392 . S
C1369 C1373 1.495 . S
C1370 C1369 1.392 . S
C1370 C1371 1.385 . S
C1370 C1372 1.478 . S
C1371 H1365 0.930 . S
C1371 C1367 1.400 . S
C1371 C1370 1.385 . S
C1372 C1370 1.478 . S
C1372 C1374 1.381 . S
C1372 C1378 1.383 . S
C1373 C1369 1.495 . S
C1373 H1379 0.959 . S
C1373 H1380 0.961 . S
C1373 H1381 0.960 . S
C1374 C1372 1.381 . S
C1374 C1375 1.394 . S
C1374 H1382 0.930 . S
C1375 C1374 1.394 . S
C1375 C1376 1.383 . S
C1375 H1383 0.929 . S
C1376 C1375 1.383 . S
C1376 C1377 1.377 . S
C1377 H1361 0.930 . S
C1377 C1376 1.377 . S
C1377 C1378 1.379 . S
C1378 H1362 0.931 . S
C1378 C1372 1.383 . S
C1378 C1377 1.379 . S
H1379 C1373 0.959 . S
H1380 C1373 0.961 . S
H1381 C1373 0.960 . S
H1382 C1374 0.930 . S
H1383 C1375 0.929 . S
H1384 C1392 0.929 . S
H1385 C1394 0.930 . S
H1386 C1396 0.930 . S
H1387 C1399 0.929 . S
H1388 C1402 0.930 1_455 S
H1389 C1404 0.960 . S
H1390 C1404 0.960 . S
H1391 C1404 0.960 . S
C1392 H1384 0.929 . S
C1392 C1393 1.377 . S
C1392 C1394 1.384 . S
C1393 C1392 1.377 . S
C1393 C1399 1.390 . S
C1394 H1385 0.930 . S
C1394 C1392 1.384 . S
C1394 C1395 1.372 . S
C1395 C1394 1.372 . S
C1395 C1396 1.400 . S
C1395 C1400 1.490 . S
C1396 H1386 0.930 . S
C1396 C1395 1.400 . S
C1396 C1399 1.386 . S
H1397 C1413 0.930 . S
H1398 C1414 0.931 . S
C1399 H1387 0.929 . S
C1399 C1393 1.390 . S
C1399 C1396 1.386 . S
C1400 C1395 1.490 . S
C1400 C1402 1.395 . S
C1400 C1403 1.403 . S
H1401 C1407 0.930 . S
C1402 H1388 0.930 1_655 S
C1402 C1400 1.395 . S
C1402 C1405 1.403 1_655 S
C1403 C1400 1.403 . S
C1403 C1404 1.524 . S
C1403 C1407 1.400 . S
C1404 H1389 0.960 . S
C1404 H1390 0.960 . S
C1404 H1391 0.960 . S
C1404 C1403 1.524 . S
C1405 C1402 1.403 1_455 S
C1405 C1406 1.392 1_455 S
C1405 C1409 1.495 . S
C1406 C1405 1.392 1_655 S
C1406 C1407 1.385 . S
C1406 C1408 1.478 1_655 S
C1407 H1401 0.930 . S
C1407 C1403 1.400 . S
C1407 C1406 1.385 . S
C1408 C1406 1.478 1_455 S
C1408 C1410 1.381 . S
C1408 C1414 1.383 . S
C1409 C1405 1.495 . S
C1409 H1415 0.959 . S
C1409 H1416 0.961 . S
C1409 H1417 0.960 . S
C1410 C1408 1.381 . S
C1410 C1411 1.394 . S
C1410 H1418 0.930 . S
C1411 C1410 1.394 . S
C1411 C1412 1.383 . S
C1411 H1419 0.929 . S
C1412 C1411 1.383 . S
C1412 C1413 1.377 . S
C1413 H1397 0.930 . S
C1413 C1412 1.377 . S
C1413 C1414 1.379 . S
C1414 H1398 0.931 . S
C1414 C1408 1.383 . S
C1414 C1413 1.379 . S
H1415 C1409 0.959 . S
H1416 C1409 0.961 . S
H1417 C1409 0.960 . S
H1418 C1410 0.930 . S
H1419 C1411 0.929 . S
H1420 C1428 0.929 . S
H1421 C1430 0.930 . S
H1422 C1432 0.930 . S
H1423 C1435 0.929 . S
H1424 C1438 0.930 . S
H1425 C1440 0.960 . S
H1426 C1440 0.960 . S
H1427 C1440 0.960 . S
C1428 H1420 0.929 . S
C1428 C1429 1.377 . S
C1428 C1430 1.384 . S
C1429 C1428 1.377 . S
C1429 C1435 1.390 . S
C1430 H1421 0.930 . S
C1430 C1428 1.384 . S
C1430 C1431 1.372 . S
C1431 C1430 1.372 . S
C1431 C1432 1.400 . S
C1431 C1436 1.490 . S
C1432 H1422 0.930 . S
C1432 C1431 1.400 . S
C1432 C1435 1.386 . S
H1433 C1449 0.930 . S
H1434 C1450 0.931 . S
C1435 H1423 0.929 . S
C1435 C1429 1.390 . S
C1435 C1432 1.386 . S
C1436 C1431 1.490 . S
C1436 C1438 1.395 . S
C1436 C1439 1.403 . S
H1437 C1443 0.930 . S
C1438 H1424 0.930 . S
C1438 C1436 1.395 . S
C1438 C1441 1.403 . S
C1439 C1436 1.403 . S
C1439 C1440 1.524 . S
C1439 C1443 1.400 . S
C1440 H1425 0.960 . S
C1440 H1426 0.960 . S
C1440 H1427 0.960 . S
C1440 C1439 1.524 . S
C1441 C1438 1.403 . S
C1441 C1442 1.392 . S
C1441 C1445 1.495 . S
C1442 C1441 1.392 . S
C1442 C1443 1.385 . S
C1442 C1444 1.478 . S
C1443 H1437 0.930 . S
C1443 C1439 1.400 . S
C1443 C1442 1.385 . S
C1444 C1442 1.478 . S
C1444 C1446 1.381 . S
C1444 C1450 1.383 . S
C1445 C1441 1.495 . S
C1445 H1451 0.959 . S
C1445 H1452 0.961 . S
C1445 H1453 0.960 . S
C1446 C1444 1.381 . S
C1446 C1447 1.394 . S
C1446 H1454 0.930 . S
C1447 C1446 1.394 . S
C1447 C1448 1.383 . S
C1447 H1455 0.929 . S
C1448 C1447 1.383 . S
C1448 C1449 1.377 . S
C1449 H1433 0.930 . S
C1449 C1448 1.377 . S
C1449 C1450 1.379 . S
C1450 H1434 0.931 . S
C1450 C1444 1.383 . S
C1450 C1449 1.379 . S
H1451 C1445 0.959 . S
H1452 C1445 0.961 . S
H1453 C1445 0.960 . S
H1454 C1446 0.930 . S
H1455 C1447 0.929 . S
H1456 C1464 0.929 . S
H1457 C1466 0.930 . S
H1458 C1468 0.930 . S
H1459 C1471 0.929 . S
H1460 C1474 0.930 . S
H1461 C1476 0.960 . S
H1462 C1476 0.960 . S
H1463 C1476 0.960 . S
C1464 H1456 0.929 . S
C1464 C1465 1.377 . S
C1464 C1466 1.384 . S
C1465 C1464 1.377 . S
C1465 C1471 1.390 . S
C1466 H1457 0.930 . S
C1466 C1464 1.384 . S
C1466 C1467 1.372 . S
C1467 C1466 1.372 . S
C1467 C1468 1.400 . S
C1467 C1472 1.490 . S
C1468 H1458 0.930 . S
C1468 C1467 1.400 . S
C1468 C1471 1.386 . S
H1469 C1485 0.930 . S
H1470 C1486 0.931 . S
C1471 H1459 0.929 . S
C1471 C1465 1.390 . S
C1471 C1468 1.386 . S
C1472 C1467 1.490 . S
C1472 C1474 1.395 . S
C1472 C1475 1.403 . S
H1473 C1479 0.930 . S
C1474 H1460 0.930 . S
C1474 C1472 1.395 . S
C1474 C1477 1.403 . S
C1475 C1472 1.403 . S
C1475 C1476 1.524 . S
C1475 C1479 1.400 . S
C1476 H1461 0.960 . S
C1476 H1462 0.960 . S
C1476 H1463 0.960 . S
C1476 C1475 1.524 . S
C1477 C1474 1.403 . S
C1477 C1478 1.392 . S
C1477 C1481 1.495 . S
C1478 C1477 1.392 . S
C1478 C1479 1.385 . S
C1478 C1480 1.478 . S
C1479 H1473 0.930 . S
C1479 C1475 1.400 . S
C1479 C1478 1.385 . S
C1480 C1478 1.478 . S
C1480 C1482 1.381 . S
C1480 C1486 1.383 . S
C1481 C1477 1.495 . S
C1481 H1487 0.959 . S
C1481 H1488 0.961 . S
C1481 H1489 0.960 . S
C1482 C1480 1.381 . S
C1482 C1483 1.394 . S
C1482 H1490 0.930 . S
C1483 C1482 1.394 . S
C1483 C1484 1.383 . S
C1483 H1491 0.929 . S
C1484 C1483 1.383 . S
C1484 C1485 1.377 . S
C1485 H1469 0.930 . S
C1485 C1484 1.377 . S
C1485 C1486 1.379 . S
C1486 H1470 0.931 . S
C1486 C1480 1.383 . S
C1486 C1485 1.379 . S
H1487 C1481 0.959 . S
H1488 C1481 0.961 . S
H1489 C1481 0.960 . S
H1490 C1482 0.930 . S
H1491 C1483 0.929 . S
H1492 C1500 0.929 . S
H1493 C1502 0.930 . S
H1494 C1504 0.930 . S
H1495 C1507 0.929 . S
H1496 C1510 0.930 . S
H1497 C1512 0.960 . S
H1498 C1512 0.960 . S
H1499 C1512 0.960 . S
C1500 H1492 0.929 . S
C1500 C1501 1.377 . S
C1500 C1502 1.384 . S
C1501 C1500 1.377 . S
C1501 C1507 1.390 . S
C1502 H1493 0.930 . S
C1502 C1500 1.384 . S
C1502 C1503 1.372 . S
C1503 C1502 1.372 . S
C1503 C1504 1.400 . S
C1503 C1508 1.490 . S
C1504 H1494 0.930 . S
C1504 C1503 1.400 . S
C1504 C1507 1.386 . S
H1505 C1521 0.930 . S
H1506 C1522 0.931 . S
C1507 H1495 0.929 . S
C1507 C1501 1.390 . S
C1507 C1504 1.386 . S
C1508 C1503 1.490 . S
C1508 C1510 1.395 . S
C1508 C1511 1.403 . S
H1509 C1515 0.930 . S
C1510 H1496 0.930 . S
C1510 C1508 1.395 . S
C1510 C1513 1.403 . S
C1511 C1508 1.403 . S
C1511 C1512 1.524 . S
C1511 C1515 1.400 . S
C1512 H1497 0.960 . S
C1512 H1498 0.960 . S
C1512 H1499 0.960 . S
C1512 C1511 1.524 . S
C1513 C1510 1.403 . S
C1513 C1514 1.392 . S
C1513 C1517 1.495 . S
C1514 C1513 1.392 . S
C1514 C1515 1.385 . S
C1514 C1516 1.478 . S
C1515 H1509 0.930 . S
C1515 C1511 1.400 . S
C1515 C1514 1.385 . S
C1516 C1514 1.478 . S
C1516 C1518 1.381 . S
C1516 C1522 1.383 . S
C1517 C1513 1.495 . S
C1517 H1523 0.959 . S
C1517 H1524 0.961 . S
C1517 H1525 0.960 . S
C1518 C1516 1.381 . S
C1518 C1519 1.394 . S
C1518 H1526 0.930 . S
C1519 C1518 1.394 . S
C1519 C1520 1.383 . S
C1519 H1527 0.929 . S
C1520 C1519 1.383 . S
C1520 C1521 1.377 . S
C1521 H1505 0.930 . S
C1521 C1520 1.377 . S
C1521 C1522 1.379 . S
C1522 H1506 0.931 . S
C1522 C1516 1.383 . S
C1522 C1521 1.379 . S
H1523 C1517 0.959 . S
H1524 C1517 0.961 . S
H1525 C1517 0.960 . S
H1526 C1518 0.930 . S
H1527 C1519 0.929 . S
H1528 C1536 0.929 . S
H1529 C1538 0.930 . S
H1530 C1540 0.930 . S
H1531 C1543 0.929 . S
H1532 C1546 0.930 . S
H1533 C1548 0.960 . S
H1534 C1548 0.960 . S
H1535 C1548 0.960 . S
C1536 H1528 0.929 . S
C1536 C1537 1.377 . S
C1536 C1538 1.384 . S
C1537 C1536 1.377 . S
C1537 C1543 1.390 . S
C1538 H1529 0.930 . S
C1538 C1536 1.384 . S
C1538 C1539 1.372 . S
C1539 C1538 1.372 . S
C1539 C1540 1.400 . S
C1539 C1544 1.490 . S
C1540 H1530 0.930 . S
C1540 C1539 1.400 . S
C1540 C1543 1.386 . S
H1541 C1557 0.930 . S
H1542 C1558 0.931 . S
C1543 H1531 0.929 . S
C1543 C1537 1.390 . S
C1543 C1540 1.386 . S
C1544 C1539 1.490 . S
C1544 C1546 1.395 . S
C1544 C1547 1.403 . S
H1545 C1551 0.930 . S
C1546 H1532 0.930 . S
C1546 C1544 1.395 . S
C1546 C1549 1.403 . S
C1547 C1544 1.403 . S
C1547 C1548 1.524 1_554 S
C1547 C1551 1.400 . S
C1548 H1533 0.960 . S
C1548 H1534 0.960 . S
C1548 H1535 0.960 . S
C1548 C1547 1.524 1_556 S
C1549 C1546 1.403 . S
C1549 C1550 1.392 . S
C1549 C1553 1.495 . S
C1550 C1549 1.392 . S
C1550 C1551 1.385 . S
C1550 C1552 1.478 . S
C1551 H1545 0.930 . S
C1551 C1547 1.400 . S
C1551 C1550 1.385 . S
C1552 C1550 1.478 . S
C1552 C1554 1.381 . S
C1552 C1558 1.383 1_565 S
C1553 C1549 1.495 . S
C1553 H1559 0.959 . S
C1553 H1560 0.961 . S
C1553 H1561 0.960 . S
C1554 C1552 1.381 . S
C1554 C1555 1.394 . S
C1554 H1562 0.930 . S
C1555 C1554 1.394 . S
C1555 C1556 1.383 . S
C1555 H1563 0.929 . S
C1556 C1555 1.383 . S
C1556 C1557 1.377 1_565 S
C1557 H1541 0.930 . S
C1557 C1556 1.377 1_545 S
C1557 C1558 1.379 . S
C1558 H1542 0.931 . S
C1558 C1552 1.383 1_545 S
C1558 C1557 1.379 . S
H1559 C1553 0.959 . S
H1560 C1553 0.961 . S
H1561 C1553 0.960 . S
H1562 C1554 0.930 . S
H1563 C1555 0.929 . S
H1564 C1572 0.929 . S
H1565 C1574 0.930 . S
H1566 C1576 0.930 . S
H1567 C1579 0.929 . S
H1568 C1582 0.930 . S
H1569 C1584 0.958 . S
H1570 C1584 0.933 1_554 S
H1571 C1584 0.996 . S
C1572 H1564 0.929 . S
C1572 C1573 1.377 . S
C1572 C1574 1.384 . S
C1573 C1572 1.377 . S
C1573 C1579 1.390 1_554 S
C1574 H1565 0.930 . S
C1574 C1572 1.384 . S
C1574 C1575 1.372 . S
C1575 C1574 1.372 . S
C1575 C1576 1.400 1_554 S
C1575 C1580 1.490 . S
C1576 H1566 0.930 . S
C1576 C1575 1.400 1_556 S
C1576 C1579 1.386 . S
H1577 C1593 0.930 . S
H1578 C1594 0.931 . S
C1579 H1567 0.929 . S
C1579 C1573 1.390 1_556 S
C1579 C1576 1.386 . S
C1580 C1575 1.490 . S
C1580 C1582 1.395 . S
C1580 C1583 1.403 . S
H1581 C1587 0.930 . S
C1582 H1568 0.930 . S
C1582 C1580 1.395 . S
C1582 C1585 1.403 . S
C1583 C1580 1.403 . S
C1583 C1584 1.520 1_554 S
C1583 C1587 1.400 . S
C1584 H1569 0.958 . S
C1584 H1570 0.933 1_556 S
C1584 H1571 0.996 . S
C1584 C1583 1.520 1_556 S
C1585 C1582 1.403 . S
C1585 C1586 1.392 . S
C1585 C1589 1.495 . S
C1586 C1585 1.392 . S
C1586 C1587 1.385 . S
C1586 C1588 1.478 . S
C1587 H1581 0.930 . S
C1587 C1583 1.400 . S
C1587 C1586 1.385 . S
C1588 C1586 1.478 . S
C1588 C1590 1.381 . S
C1588 C1594 1.383 1_554 S
C1589 C1585 1.495 . S
C1589 H1595 0.959 . S
C1589 H1596 0.961 . S
C1589 H1597 0.960 . S
C1590 C1588 1.381 . S
C1590 C1591 1.394 . S
C1590 H1598 0.930 . S
C1591 C1590 1.394 . S
C1591 C1592 1.383 . S
C1591 H1599 0.929 . S
C1592 C1591 1.383 . S
C1592 C1593 1.377 1_554 S
C1593 H1577 0.930 . S
C1593 C1592 1.377 1_556 S
C1593 C1594 1.379 . S
C1594 H1578 0.931 . S
C1594 C1588 1.383 1_556 S
C1594 C1593 1.379 . S
H1595 C1589 0.959 . S
H1596 C1589 0.961 . S
H1597 C1589 0.960 . S
H1598 C1590 0.930 . S
H1599 C1591 0.929 . S
H1600 C1608 0.929 . S
H1601 C1610 0.930 . S
H1602 C1612 0.930 . S
H1603 C1615 0.929 . S
H1604 C1618 0.930 . S
H1605 C1620 0.960 . S
H1606 C1620 0.960 . S
H1607 C1620 0.960 . S
C1608 H1600 0.929 . S
C1608 C1609 1.377 . S
C1608 C1610 1.384 . S
C1609 C1608 1.377 . S
C1609 C1615 1.390 . S
C1610 H1601 0.930 . S
C1610 C1608 1.384 . S
C1610 C1611 1.372 . S
C1611 C1610 1.372 . S
C1611 C1612 1.400 . S
C1611 C1616 1.490 . S
C1612 H1602 0.930 . S
C1612 C1611 1.400 . S
C1612 C1615 1.386 . S
H1613 C1629 0.930 . S
H1614 C1630 0.931 . S
C1615 H1603 0.929 . S
C1615 C1609 1.390 . S
C1615 C1612 1.386 . S
C1616 C1611 1.490 . S
C1616 C1618 1.395 . S
C1616 C1619 1.403 . S
H1617 C1623 0.930 . S
C1618 H1604 0.930 . S
C1618 C1616 1.395 . S
C1618 C1621 1.403 . S
C1619 C1616 1.403 . S
C1619 C1620 1.524 . S
C1619 C1623 1.400 . S
C1620 H1605 0.960 . S
C1620 H1606 0.960 . S
C1620 H1607 0.960 . S
C1620 C1619 1.524 . S
C1621 C1618 1.403 . S
C1621 C1622 1.392 . S
C1621 C1625 1.495 . S
C1622 C1621 1.392 . S
C1622 C1623 1.385 . S
C1622 C1624 1.478 . S
C1623 H1617 0.930 . S
C1623 C1619 1.400 . S
C1623 C1622 1.385 . S
C1624 C1622 1.478 . S
C1624 C1626 1.381 . S
C1624 C1630 1.383 . S
C1625 C1621 1.495 . S
C1625 H1631 0.959 . S
C1625 H1632 0.961 . S
C1625 H1633 0.960 . S
C1626 C1624 1.381 . S
C1626 C1627 1.394 . S
C1626 H1634 0.930 . S
C1627 C1626 1.394 . S
C1627 C1628 1.383 . S
C1627 H1635 0.929 . S
C1628 C1627 1.383 . S
C1628 C1629 1.377 . S
C1629 H1613 0.930 . S
C1629 C1628 1.377 . S
C1629 C1630 1.379 . S
C1630 H1614 0.931 . S
C1630 C1624 1.383 . S
C1630 C1629 1.379 . S
H1631 C1625 0.959 . S
H1632 C1625 0.961 . S
H1633 C1625 0.960 . S
H1634 C1626 0.930 . S
H1635 C1627 0.929 . S
H1636 C1644 0.929 . S
H1637 C1646 0.930 . S
H1638 C1648 0.930 . S
H1639 C1651 0.929 . S
H1640 C1654 0.930 . S
H1641 C1656 0.960 . S
H1642 C1656 0.960 . S
H1643 C1656 0.960 . S
C1644 H1636 0.929 . S
C1644 C1645 1.377 . S
C1644 C1646 1.384 . S
C1645 C1644 1.377 . S
C1645 C1651 1.390 . S
C1646 H1637 0.930 . S
C1646 C1644 1.384 . S
C1646 C1647 1.372 . S
C1647 C1646 1.372 . S
C1647 C1648 1.400 . S
C1647 C1652 1.490 . S
C1648 H1638 0.930 . S
C1648 C1647 1.400 . S
C1648 C1651 1.386 . S
H1649 C1665 0.930 . S
H1650 C1666 0.931 . S
C1651 H1639 0.929 . S
C1651 C1645 1.390 . S
C1651 C1648 1.386 . S
C1652 C1647 1.490 . S
C1652 C1654 1.395 . S
C1652 C1655 1.403 . S
H1653 C1659 0.930 . S
C1654 H1640 0.930 . S
C1654 C1652 1.395 . S
C1654 C1657 1.403 . S
C1655 C1652 1.403 . S
C1655 C1656 1.524 . S
C1655 C1659 1.400 . S
C1656 H1641 0.960 . S
C1656 H1642 0.960 . S
C1656 H1643 0.960 . S
C1656 C1655 1.524 . S
C1657 C1654 1.403 . S
C1657 C1658 1.392 . S
C1657 C1661 1.495 . S
C1658 C1657 1.392 . S
C1658 C1659 1.385 . S
C1658 C1660 1.478 . S
C1659 H1653 0.930 . S
C1659 C1655 1.400 . S
C1659 C1658 1.385 . S
C1660 C1658 1.478 . S
C1660 C1662 1.381 . S
C1660 C1666 1.383 . S
C1661 C1657 1.495 . S
C1661 H1667 0.959 . S
C1661 H1668 0.961 . S
C1661 H1669 0.960 . S
C1662 C1660 1.381 . S
C1662 C1663 1.394 . S
C1662 H1670 0.930 . S
C1663 C1662 1.394 . S
C1663 C1664 1.383 . S
C1663 H1671 0.929 . S
C1664 C1663 1.383 . S
C1664 C1665 1.377 . S
C1665 H1649 0.930 . S
C1665 C1664 1.377 . S
C1665 C1666 1.379 . S
C1666 H1650 0.931 . S
C1666 C1660 1.383 . S
C1666 C1665 1.379 . S
H1667 C1661 0.959 . S
H1668 C1661 0.961 . S
H1669 C1661 0.960 . S
H1670 C1662 0.930 . S
H1671 C1663 0.929 . S
H1672 C1680 0.929 . S
H1673 C1682 0.930 . S
H1674 C1684 0.930 . S
H1675 C1687 0.929 . S
H1676 C1690 0.930 . S
H1677 C1692 0.960 . S
H1678 C1692 0.960 . S
H1679 C1692 0.960 . S
C1680 H1672 0.929 . S
C1680 C1681 1.377 . S
C1680 C1682 1.384 . S
C1681 C1680 1.377 . S
C1681 C1687 1.390 . S
C1682 H1673 0.930 . S
C1682 C1680 1.384 . S
C1682 C1683 1.372 . S
C1683 C1682 1.372 . S
C1683 C1684 1.400 . S
C1683 C1688 1.490 . S
C1684 H1674 0.930 . S
C1684 C1683 1.400 . S
C1684 C1687 1.386 . S
H1685 C1701 0.930 . S
H1686 C1702 0.931 . S
C1687 H1675 0.929 . S
C1687 C1681 1.390 . S
C1687 C1684 1.386 . S
C1688 C1683 1.490 . S
C1688 C1690 1.395 . S
C1688 C1691 1.403 . S
H1689 C1695 0.930 . S
C1690 H1676 0.930 . S
C1690 C1688 1.395 . S
C1690 C1693 1.403 . S
C1691 C1688 1.403 . S
C1691 C1692 1.524 . S
C1691 C1695 1.400 . S
C1692 H1677 0.960 . S
C1692 H1678 0.960 . S
C1692 H1679 0.960 . S
C1692 C1691 1.524 . S
C1693 C1690 1.403 . S
C1693 C1694 1.392 . S
C1693 C1697 1.495 . S
C1694 C1693 1.392 . S
C1694 C1695 1.385 . S
C1694 C1696 1.478 . S
C1695 H1689 0.930 . S
C1695 C1691 1.400 . S
C1695 C1694 1.385 . S
C1696 C1694 1.478 . S
C1696 C1698 1.381 . S
C1696 C1702 1.383 . S
C1697 C1693 1.495 . S
C1697 H1703 0.959 . S
C1697 H1704 0.961 . S
C1697 H1705 0.960 . S
C1698 C1696 1.381 . S
C1698 C1699 1.394 . S
C1698 H1706 0.930 . S
C1699 C1698 1.394 . S
C1699 C1700 1.383 . S
C1699 H1707 0.929 . S
C1700 C1699 1.383 . S
C1700 C1701 1.377 . S
C1701 H1685 0.930 . S
C1701 C1700 1.377 . S
C1701 C1702 1.379 . S
C1702 H1686 0.931 . S
C1702 C1696 1.383 . S
C1702 C1701 1.379 . S
H1703 C1697 0.959 . S
H1704 C1697 0.961 . S
H1705 C1697 0.960 . S
H1706 C1698 0.930 . S
H1707 C1699 0.929 . S
H1708 C1716 0.929 . S
H1709 C1718 0.930 . S
H1710 C1720 0.930 . S
H1711 C1723 0.929 . S
H1712 C1726 0.930 . S
H1713 C1728 0.960 . S
H1714 C1728 0.960 . S
H1715 C1728 0.960 . S
C1716 H1708 0.929 . S
C1716 C1717 1.377 . S
C1716 C1718 1.384 . S
C1717 C1716 1.377 . S
C1717 C1723 1.390 . S
C1718 H1709 0.930 . S
C1718 C1716 1.384 . S
C1718 C1719 1.372 . S
C1719 C1718 1.372 . S
C1719 C1720 1.400 . S
C1719 C1724 1.490 . S
C1720 H1710 0.930 . S
C1720 C1719 1.400 . S
C1720 C1723 1.386 . S
H1721 C1737 0.930 . S
H1722 C1738 0.931 . S
C1723 H1711 0.929 . S
C1723 C1717 1.390 . S
C1723 C1720 1.386 . S
C1724 C1719 1.490 . S
C1724 C1726 1.395 . S
C1724 C1727 1.403 . S
H1725 C1731 0.930 . S
C1726 H1712 0.930 . S
C1726 C1724 1.395 . S
C1726 C1729 1.403 . S
C1727 C1724 1.403 . S
C1727 C1728 1.524 . S
C1727 C1731 1.400 . S
C1728 H1713 0.960 . S
C1728 H1714 0.960 . S
C1728 H1715 0.960 . S
C1728 C1727 1.524 . S
C1729 C1726 1.403 . S
C1729 C1730 1.392 . S
C1729 C1733 1.495 . S
C1730 C1729 1.392 . S
C1730 C1731 1.385 . S
C1730 C1732 1.478 . S
C1731 H1725 0.930 . S
C1731 C1727 1.400 . S
C1731 C1730 1.385 . S
C1732 C1730 1.478 . S
C1732 C1734 1.381 . S
C1732 C1738 1.383 . S
C1733 C1729 1.495 . S
C1733 H1739 0.959 . S
C1733 H1740 0.961 . S
C1733 H1741 0.960 . S
C1734 C1732 1.381 . S
C1734 C1735 1.394 . S
C1734 H1742 0.930 . S
C1735 C1734 1.394 . S
C1735 C1736 1.383 . S
C1735 H1743 0.929 . S
C1736 C1735 1.383 . S
C1736 C1737 1.377 . S
C1737 H1721 0.930 . S
C1737 C1736 1.377 . S
C1737 C1738 1.379 . S
C1738 H1722 0.931 . S
C1738 C1732 1.383 . S
C1738 C1737 1.379 . S
H1739 C1733 0.959 . S
H1740 C1733 0.961 . S
H1741 C1733 0.960 . S
H1742 C1734 0.930 . S
H1743 C1735 0.929 . S
H1744 C1752 0.929 . S
H1745 C1754 0.930 . S
H1746 C1756 0.930 . S
H1747 C1759 0.929 . S
H1748 C1762 0.930 . S
H1749 C1764 0.960 . S
H1750 C1764 0.960 . S
H1751 C1764 0.960 . S
C1752 H1744 0.929 . S
C1752 C1753 1.377 . S
C1752 C1754 1.384 . S
C1753 C1752 1.377 . S
C1753 C1759 1.390 . S
C1754 H1745 0.930 . S
C1754 C1752 1.384 . S
C1754 C1755 1.372 . S
C1755 C1754 1.372 . S
C1755 C1756 1.400 . S
C1755 C1760 1.490 . S
C1756 H1746 0.930 . S
C1756 C1755 1.400 . S
C1756 C1759 1.386 . S
H1757 C1773 0.930 . S
H1758 C1774 0.931 . S
C1759 H1747 0.929 . S
C1759 C1753 1.390 . S
C1759 C1756 1.386 . S
C1760 C1755 1.490 . S
C1760 C1762 1.395 . S
C1760 C1763 1.403 . S
H1761 C1767 0.930 . S
C1762 H1748 0.930 . S
C1762 C1760 1.395 . S
C1762 C1765 1.403 . S
C1763 C1760 1.403 . S
C1763 C1764 1.524 . S
C1763 C1767 1.400 . S
C1764 H1749 0.960 . S
C1764 H1750 0.960 . S
C1764 H1751 0.960 . S
C1764 C1763 1.524 . S
C1765 C1762 1.403 . S
C1765 C1766 1.392 . S
C1765 C1769 1.495 . S
C1766 C1765 1.392 . S
C1766 C1767 1.385 . S
C1766 C1768 1.478 . S
C1767 H1761 0.930 . S
C1767 C1763 1.400 . S
C1767 C1766 1.385 . S
C1768 C1766 1.478 . S
C1768 C1770 1.381 . S
C1768 C1774 1.383 . S
C1769 C1765 1.495 . S
C1769 H1775 0.959 . S
C1769 H1776 0.961 . S
C1769 H1777 0.960 . S
C1770 C1768 1.381 . S
C1770 C1771 1.394 . S
C1770 H1778 0.930 . S
C1771 C1770 1.394 . S
C1771 C1772 1.383 . S
C1771 H1779 0.929 . S
C1772 C1771 1.383 . S
C1772 C1773 1.377 . S
C1773 H1757 0.930 . S
C1773 C1772 1.377 . S
C1773 C1774 1.379 . S
C1774 H1758 0.931 . S
C1774 C1768 1.383 . S
C1774 C1773 1.379 . S
H1775 C1769 0.959 . S
H1776 C1769 0.961 . S
H1777 C1769 0.960 . S
H1778 C1770 0.930 . S
H1779 C1771 0.929 . S
H1780 C1788 0.929 . S
H1781 C1790 0.930 . S
H1782 C1792 0.930 . S
H1783 C1795 0.929 . S
H1784 C1798 0.930 . S
H1785 C1800 0.960 . S
H1786 C1800 0.960 . S
H1787 C1800 0.960 . S
C1788 H1780 0.929 . S
C1788 C1789 1.377 . S
C1788 C1790 1.384 . S
C1789 C1788 1.377 . S
C1789 C1795 1.390 . S
C1790 H1781 0.930 . S
C1790 C1788 1.384 . S
C1790 C1791 1.372 . S
C1791 C1790 1.372 . S
C1791 C1792 1.400 . S
C1791 C1796 1.490 . S
C1792 H1782 0.930 . S
C1792 C1791 1.400 . S
C1792 C1795 1.386 . S
H1793 C1809 0.930 . S
H1794 C1810 0.931 . S
C1795 H1783 0.929 . S
C1795 C1789 1.390 . S
C1795 C1792 1.386 . S
C1796 C1791 1.490 . S
C1796 C1798 1.395 . S
C1796 C1799 1.403 . S
H1797 C1803 0.930 . S
C1798 H1784 0.930 . S
C1798 C1796 1.395 . S
C1798 C1801 1.403 . S
C1799 C1796 1.403 . S
C1799 C1800 1.524 . S
C1799 C1803 1.400 . S
C1800 H1785 0.960 . S
C1800 H1786 0.960 . S
C1800 H1787 0.960 . S
C1800 C1799 1.524 . S
C1801 C1798 1.403 . S
C1801 C1802 1.392 . S
C1801 C1805 1.495 . S
C1802 C1801 1.392 . S
C1802 C1803 1.385 . S
C1802 C1804 1.478 . S
C1803 H1797 0.930 . S
C1803 C1799 1.400 . S
C1803 C1802 1.385 . S
C1804 C1802 1.478 . S
C1804 C1806 1.381 . S
C1804 C1810 1.383 . S
C1805 C1801 1.495 . S
C1805 H1811 0.959 . S
C1805 H1812 0.961 . S
C1805 H1813 0.960 . S
C1806 C1804 1.381 . S
C1806 C1807 1.394 . S
C1806 H1814 0.930 . S
C1807 C1806 1.394 . S
C1807 C1808 1.383 . S
C1807 H1815 0.929 . S
C1808 C1807 1.383 . S
C1808 C1809 1.377 . S
C1809 H1793 0.930 . S
C1809 C1808 1.377 . S
C1809 C1810 1.379 . S
C1810 H1794 0.931 . S
C1810 C1804 1.383 . S
C1810 C1809 1.379 . S
H1811 C1805 0.959 . S
H1812 C1805 0.961 . S
H1813 C1805 0.960 . S
H1814 C1806 0.930 . S
H1815 C1807 0.929 . S
H1816 C1824 0.929 . S
H1817 C1826 0.930 . S
H1818 C1828 0.930 . S
H1819 C1831 0.929 . S
H1820 C1834 0.930 . S
H1821 C1836 0.960 . S
H1822 C1836 0.960 . S
H1823 C1836 0.960 . S
C1824 H1816 0.929 . S
C1824 C1825 1.377 . S
C1824 C1826 1.384 . S
C1825 C1824 1.377 . S
C1825 C1831 1.390 . S
C1826 H1817 0.930 . S
C1826 C1824 1.384 . S
C1826 C1827 1.372 . S
C1827 C1826 1.372 . S
C1827 C1828 1.400 . S
C1827 C1832 1.490 . S
C1828 H1818 0.930 . S
C1828 C1827 1.400 . S
C1828 C1831 1.386 . S
H1829 C1845 0.930 1_556 S
H1830 C1846 0.931 . S
C1831 H1819 0.929 . S
C1831 C1825 1.390 . S
C1831 C1828 1.386 . S
C1832 C1827 1.490 . S
C1832 C1834 1.395 . S
C1832 C1835 1.403 . S
H1833 C1839 0.930 . S
C1834 H1820 0.930 . S
C1834 C1832 1.395 . S
C1834 C1837 1.403 . S
C1835 C1832 1.403 . S
C1835 C1836 1.524 . S
C1835 C1839 1.400 . S
C1836 H1821 0.960 . S
C1836 H1822 0.960 . S
C1836 H1823 0.960 . S
C1836 C1835 1.524 . S
C1837 C1834 1.403 . S
C1837 C1838 1.392 . S
C1837 C1841 1.495 . S
C1838 C1837 1.392 . S
C1838 C1839 1.385 . S
C1838 C1840 1.478 . S
C1839 H1833 0.930 . S
C1839 C1835 1.400 . S
C1839 C1838 1.385 . S
C1840 C1838 1.478 . S
C1840 C1842 1.381 . S
C1840 C1846 1.383 . S
C1841 C1837 1.495 . S
C1841 H1847 0.959 . S
C1841 H1848 0.961 . S
C1841 H1849 0.960 . S
C1842 C1840 1.381 . S
C1842 C1843 1.394 . S
C1842 H1850 0.930 . S
C1843 C1842 1.394 . S
C1843 C1844 1.383 . S
C1843 H1851 0.929 . S
C1844 C1843 1.383 . S
C1844 C1845 1.377 . S
C1845 H1829 0.930 1_554 S
C1845 C1844 1.377 . S
C1845 C1846 1.379 . S
C1846 H1830 0.931 . S
C1846 C1840 1.383 . S
C1846 C1845 1.379 . S
H1847 C1841 0.959 . S
H1848 C1841 0.961 . S
H1849 C1841 0.960 . S
H1850 C1842 0.930 . S
H1851 C1843 0.929 . S
H1852 C1860 0.929 . S
H1853 C1862 0.930 . S
H1854 C1864 0.930 . S
H1855 C1867 0.929 . S
H1856 C1870 0.930 . S
H1857 C1872 0.960 . S
H1858 C1872 0.960 . S
H1859 C1872 0.960 . S
C1860 H1852 0.929 . S
C1860 C1861 1.377 . S
C1860 C1862 1.384 . S
C1861 C1860 1.377 . S
C1861 C1867 1.390 . S
C1862 H1853 0.930 . S
C1862 C1860 1.384 . S
C1862 C1863 1.372 . S
C1863 C1862 1.372 . S
C1863 C1864 1.400 . S
C1863 C1868 1.490 . S
C1864 H1854 0.930 . S
C1864 C1863 1.400 . S
C1864 C1867 1.386 . S
H1865 C1881 0.930 . S
H1866 C1882 0.931 . S
C1867 H1855 0.929 . S
C1867 C1861 1.390 . S
C1867 C1864 1.386 . S
C1868 C1863 1.490 . S
C1868 C1870 1.395 . S
C1868 C1871 1.403 . S
H1869 C1875 0.930 . S
C1870 H1856 0.930 . S
C1870 C1868 1.395 . S
C1870 C1873 1.403 . S
C1871 C1868 1.403 . S
C1871 C1872 1.524 . S
C1871 C1875 1.400 . S
C1872 H1857 0.960 . S
C1872 H1858 0.960 . S
C1872 H1859 0.960 . S
C1872 C1871 1.524 . S
C1873 C1870 1.403 . S
C1873 C1874 1.392 . S
C1873 C1877 1.495 . S
C1874 C1873 1.392 . S
C1874 C1875 1.385 . S
C1874 C1876 1.478 . S
C1875 H1869 0.930 . S
C1875 C1871 1.400 . S
C1875 C1874 1.385 . S
C1876 C1874 1.478 . S
C1876 C1878 1.381 . S
C1876 C1882 1.383 . S
C1877 C1873 1.495 . S
C1877 H1883 0.959 . S
C1877 H1884 0.961 . S
C1877 H1885 0.960 . S
C1878 C1876 1.381 . S
C1878 C1879 1.394 . S
C1878 H1886 0.930 . S
C1879 C1878 1.394 . S
C1879 C1880 1.383 . S
C1879 H1887 0.929 . S
C1880 C1879 1.383 . S
C1880 C1881 1.377 . S
C1881 H1865 0.930 . S
C1881 C1880 1.377 . S
C1881 C1882 1.379 . S
C1882 H1866 0.931 . S
C1882 C1876 1.383 . S
C1882 C1881 1.379 . S
H1883 C1877 0.959 . S
H1884 C1877 0.961 . S
H1885 C1877 0.960 . S
H1886 C1878 0.930 . S
H1887 C1879 0.929 . S
H1888 C1896 0.929 . S
H1889 C1898 0.930 . S
H1890 C1900 0.930 . S
H1891 C1903 0.929 . S
H1892 C1906 0.930 . S
H1893 C1908 0.960 . S
H1894 C1908 0.960 . S
H1895 C1908 0.960 . S
C1896 H1888 0.929 . S
C1896 C1897 1.377 . S
C1896 C1898 1.384 . S
C1897 C1896 1.377 . S
C1897 C1903 1.390 . S
C1898 H1889 0.930 . S
C1898 C1896 1.384 . S
C1898 C1899 1.372 . S
C1899 C1898 1.372 . S
C1899 C1900 1.400 . S
C1899 C1904 1.490 . S
C1900 H1890 0.930 . S
C1900 C1899 1.400 . S
C1900 C1903 1.386 . S
H1901 C1917 0.930 . S
H1902 C1918 0.931 . S
C1903 H1891 0.929 . S
C1903 C1897 1.390 . S
C1903 C1900 1.386 . S
C1904 C1899 1.490 . S
C1904 C1906 1.395 . S
C1904 C1907 1.403 . S
H1905 C1911 0.930 . S
C1906 H1892 0.930 . S
C1906 C1904 1.395 . S
C1906 C1909 1.403 . S
C1907 C1904 1.403 . S
C1907 C1908 1.524 . S
C1907 C1911 1.400 . S
C1908 H1893 0.960 . S
C1908 H1894 0.960 . S
C1908 H1895 0.960 . S
C1908 C1907 1.524 . S
C1909 C1906 1.403 . S
C1909 C1910 1.392 . S
C1909 C1913 1.495 . S
C1910 C1909 1.392 . S
C1910 C1911 1.385 . S
C1910 C1912 1.478 . S
C1911 H1905 0.930 . S
C1911 C1907 1.400 . S
C1911 C1910 1.385 . S
C1912 C1910 1.478 . S
C1912 C1914 1.381 . S
C1912 C1918 1.383 . S
C1913 C1909 1.495 . S
C1913 H1919 0.959 . S
C1913 H1920 0.961 . S
C1913 H1921 0.960 . S
C1914 C1912 1.381 . S
C1914 C1915 1.394 . S
C1914 H1922 0.930 . S
C1915 C1914 1.394 . S
C1915 C1916 1.383 . S
C1915 H1923 0.929 . S
C1916 C1915 1.383 . S
C1916 C1917 1.377 . S
C1917 H1901 0.930 . S
C1917 C1916 1.377 . S
C1917 C1918 1.379 . S
C1918 H1902 0.931 . S
C1918 C1912 1.383 . S
C1918 C1917 1.379 . S
H1919 C1913 0.959 . S
H1920 C1913 0.961 . S
H1921 C1913 0.960 . S
H1922 C1914 0.930 . S
H1923 C1915 0.929 . S
H1924 C1932 0.929 . S
H1925 C1934 0.930 . S
H1926 C1936 0.930 . S
H1927 C1939 0.929 . S
H1928 C1942 0.930 . S
H1929 C1944 0.960 . S
H1930 C1944 0.960 . S
H1931 C1944 0.960 . S
C1932 H1924 0.929 . S
C1932 C1933 1.377 . S
C1932 C1934 1.384 . S
C1933 C1932 1.377 . S
C1933 C1939 1.390 . S
C1934 H1925 0.930 . S
C1934 C1932 1.384 . S
C1934 C1935 1.372 . S
C1935 C1934 1.372 . S
C1935 C1936 1.400 . S
C1935 C1940 1.490 . S
C1936 H1926 0.930 . S
C1936 C1935 1.400 . S
C1936 C1939 1.386 . S
H1937 C1953 0.930 . S
H1938 C1954 0.931 . S
C1939 H1927 0.929 . S
C1939 C1933 1.390 . S
C1939 C1936 1.386 . S
C1940 C1935 1.490 . S
C1940 C1942 1.395 . S
C1940 C1943 1.403 . S
H1941 C1947 0.930 . S
C1942 H1928 0.930 . S
C1942 C1940 1.395 . S
C1942 C1945 1.403 . S
C1943 C1940 1.403 . S
C1943 C1944 1.524 . S
C1943 C1947 1.400 . S
C1944 H1929 0.960 . S
C1944 H1930 0.960 . S
C1944 H1931 0.960 . S
C1944 C1943 1.524 . S
C1945 C1942 1.403 . S
C1945 C1946 1.392 . S
C1945 C1949 1.495 . S
C1946 C1945 1.392 . S
C1946 C1947 1.385 . S
C1946 C1948 1.478 . S
C1947 H1941 0.930 . S
C1947 C1943 1.400 . S
C1947 C1946 1.385 . S
C1948 C1946 1.478 . S
C1948 C1950 1.381 . S
C1948 C1954 1.383 . S
C1949 C1945 1.495 . S
C1949 H1955 0.959 . S
C1949 H1956 0.961 . S
C1949 H1957 0.960 . S
C1950 C1948 1.381 . S
C1950 C1951 1.394 . S
C1950 H1958 0.930 . S
C1951 C1950 1.394 . S
C1951 C1952 1.383 . S
C1951 H1959 0.929 . S
C1952 C1951 1.383 . S
C1952 C1953 1.377 . S
C1953 H1937 0.930 . S
C1953 C1952 1.377 . S
C1953 C1954 1.379 . S
C1954 H1938 0.931 . S
C1954 C1948 1.383 . S
C1954 C1953 1.379 . S
H1955 C1949 0.959 . S
H1956 C1949 0.961 . S
H1957 C1949 0.960 . S
H1958 C1950 0.930 . S
H1959 C1951 0.929 . S
H1960 C1968 0.929 . S
H1961 C1970 0.930 . S
H1962 C1972 0.930 . S
H1963 C1975 0.929 . S
H1964 C1978 0.930 . S
H1965 C1980 0.960 . S
H1966 C1980 0.960 . S
H1967 C1980 0.960 . S
C1968 H1960 0.929 . S
C1968 C1969 1.377 . S
C1968 C1970 1.384 . S
C1969 C1968 1.377 . S
C1969 C1975 1.390 . S
C1970 H1961 0.930 . S
C1970 C1968 1.384 . S
C1970 C1971 1.372 . S
C1971 C1970 1.372 . S
C1971 C1972 1.400 . S
C1971 C1976 1.490 . S
C1972 H1962 0.930 . S
C1972 C1971 1.400 . S
C1972 C1975 1.386 . S
H1973 C1989 0.930 . S
H1974 C1990 0.931 . S
C1975 H1963 0.929 . S
C1975 C1969 1.390 . S
C1975 C1972 1.386 . S
C1976 C1971 1.490 . S
C1976 C1978 1.395 . S
C1976 C1979 1.403 . S
H1977 C1983 0.930 . S
C1978 H1964 0.930 . S
C1978 C1976 1.395 . S
C1978 C1981 1.403 . S
C1979 C1976 1.403 . S
C1979 C1980 1.524 . S
C1979 C1983 1.400 . S
C1980 H1965 0.960 . S
C1980 H1966 0.960 . S
C1980 H1967 0.960 . S
C1980 C1979 1.524 . S
C1981 C1978 1.403 . S
C1981 C1982 1.392 . S
C1981 C1985 1.495 . S
C1982 C1981 1.392 . S
C1982 C1983 1.385 . S
C1982 C1984 1.478 . S
C1983 H1977 0.930 . S
C1983 C1979 1.400 . S
C1983 C1982 1.385 . S
C1984 C1982 1.478 . S
C1984 C1986 1.381 . S
C1984 C1990 1.383 . S
C1985 C1981 1.495 . S
C1985 H1991 0.959 . S
C1985 H1992 0.961 . S
C1985 H1993 0.960 . S
C1986 C1984 1.381 . S
C1986 C1987 1.394 . S
C1986 H1994 0.930 . S
C1987 C1986 1.394 . S
C1987 C1988 1.383 . S
C1987 H1995 0.929 1_455 S
C1988 C1987 1.383 . S
C1988 C1989 1.377 . S
C1989 H1973 0.930 . S
C1989 C1988 1.377 . S
C1989 C1990 1.379 . S
C1990 H1974 0.931 . S
C1990 C1984 1.383 . S
C1990 C1989 1.379 . S
H1991 C1985 0.959 . S
H1992 C1985 0.961 . S
H1993 C1985 0.960 . S
H1994 C1986 0.930 . S
H1995 C1987 0.929 1_655 S
H1996 C2004 0.929 . S
H1997 C2006 0.930 . S
H1998 C2008 0.930 . S
H1999 C2011 0.929 . S
H2000 C2014 0.930 . S
H2001 C2016 0.960 . S
H2002 C2016 0.960 . S
H2003 C2016 0.960 . S
C2004 H1996 0.929 . S
C2004 C2005 1.377 . S
C2004 C2006 1.384 . S
C2005 C2004 1.377 . S
C2005 C2011 1.390 . S
C2006 H1997 0.930 . S
C2006 C2004 1.384 . S
C2006 C2007 1.372 . S
C2007 C2006 1.372 . S
C2007 C2008 1.400 . S
C2007 C2012 1.490 . S
C2008 H1998 0.930 . S
C2008 C2007 1.400 . S
C2008 C2011 1.386 . S
H2009 C2025 0.930 . S
H2010 C2026 0.931 . S
C2011 H1999 0.929 . S
C2011 C2005 1.390 . S
C2011 C2008 1.386 . S
C2012 C2007 1.490 . S
C2012 C2014 1.395 . S
C2012 C2015 1.403 . S
H2013 C2019 0.930 . S
C2014 H2000 0.930 . S
C2014 C2012 1.395 . S
C2014 C2017 1.403 . S
C2015 C2012 1.403 . S
C2015 C2016 1.524 . S
C2015 C2019 1.400 . S
C2016 H2001 0.960 . S
C2016 H2002 0.960 . S
C2016 H2003 0.960 . S
C2016 C2015 1.524 . S
C2017 C2014 1.403 . S
C2017 C2018 1.392 . S
C2017 C2021 1.495 . S
C2018 C2017 1.392 . S
C2018 C2019 1.385 . S
C2018 C2020 1.478 . S
C2019 H2013 0.930 . S
C2019 C2015 1.400 . S
C2019 C2018 1.385 . S
C2020 C2018 1.478 . S
C2020 C2022 1.381 . S
C2020 C2026 1.383 . S
C2021 C2017 1.495 . S
C2021 H2027 0.959 . S
C2021 H2028 0.961 . S
C2021 H2029 0.960 . S
C2022 C2020 1.381 . S
C2022 C2023 1.394 . S
C2022 H2030 0.930 . S
C2023 C2022 1.394 . S
C2023 C2024 1.383 . S
C2023 H2031 0.929 . S
C2024 C2023 1.383 . S
C2024 C2025 1.377 . S
C2025 H2009 0.930 . S
C2025 C2024 1.377 . S
C2025 C2026 1.379 . S
C2026 H2010 0.931 . S
C2026 C2020 1.383 . S
C2026 C2025 1.379 . S
H2027 C2021 0.959 . S
H2028 C2021 0.961 . S
H2029 C2021 0.960 . S
H2030 C2022 0.930 . S
H2031 C2023 0.929 . S
H2032 C2040 0.929 . S
H2033 C2042 0.930 . S
H2034 C2044 0.930 . S
H2035 C2047 0.929 . S
H2036 C2050 0.930 . S
H2037 C2052 0.960 . S
H2038 C2052 0.960 . S
H2039 C2052 0.960 . S
C2040 H2032 0.929 . S
C2040 C2041 1.377 . S
C2040 C2042 1.384 . S
C2041 C2040 1.377 . S
C2041 C2047 1.390 . S
C2042 H2033 0.930 . S
C2042 C2040 1.384 . S
C2042 C2043 1.372 . S
C2043 C2042 1.372 . S
C2043 C2044 1.400 . S
C2043 C2048 1.490 . S
C2044 H2034 0.930 . S
C2044 C2043 1.400 . S
C2044 C2047 1.386 . S
H2045 C2061 0.930 . S
H2046 C2062 0.931 . S
C2047 H2035 0.929 . S
C2047 C2041 1.390 . S
C2047 C2044 1.386 . S
C2048 C2043 1.490 . S
C2048 C2050 1.395 . S
C2048 C2051 1.403 . S
H2049 C2055 0.930 . S
C2050 H2036 0.930 . S
C2050 C2048 1.395 . S
C2050 C2053 1.403 . S
C2051 C2048 1.403 . S
C2051 C2052 1.524 . S
C2051 C2055 1.400 . S
C2052 H2037 0.960 . S
C2052 H2038 0.960 . S
C2052 H2039 0.960 . S
C2052 C2051 1.524 . S
C2053 C2050 1.403 . S
C2053 C2054 1.392 . S
C2053 C2057 1.495 . S
C2054 C2053 1.392 . S
C2054 C2055 1.385 . S
C2054 C2056 1.478 . S
C2055 H2049 0.930 . S
C2055 C2051 1.400 . S
C2055 C2054 1.385 . S
C2056 C2054 1.478 . S
C2056 C2058 1.381 . S
C2056 C2062 1.383 . S
C2057 C2053 1.495 . S
C2057 H2063 0.959 . S
C2057 H2064 0.961 . S
C2057 H2065 0.960 . S
C2058 C2056 1.381 . S
C2058 C2059 1.394 . S
C2058 H2066 0.930 . S
C2059 C2058 1.394 . S
C2059 C2060 1.383 . S
C2059 H2067 0.929 . S
C2060 C2059 1.383 . S
C2060 C2061 1.377 . S
C2061 H2045 0.930 . S
C2061 C2060 1.377 . S
C2061 C2062 1.379 . S
C2062 H2046 0.931 . S
C2062 C2056 1.383 . S
C2062 C2061 1.379 . S
H2063 C2057 0.959 . S
H2064 C2057 0.961 . S
H2065 C2057 0.960 . S
H2066 C2058 0.930 . S
H2067 C2059 0.929 . S
H2068 C2076 0.929 . S
H2069 C2078 0.930 . S
H2070 C2080 0.930 . S
H2071 C2083 0.929 . S
H2072 C2086 0.930 . S
H2073 C2088 0.960 . S
H2074 C2088 0.960 . S
H2075 C2088 0.960 . S
C2076 H2068 0.929 . S
C2076 C2077 1.377 . S
C2076 C2078 1.384 . S
C2077 C2076 1.377 . S
C2077 C2083 1.390 . S
C2078 H2069 0.930 . S
C2078 C2076 1.384 . S
C2078 C2079 1.372 . S
C2079 C2078 1.372 . S
C2079 C2080 1.400 . S
C2079 C2084 1.490 . S
C2080 H2070 0.930 . S
C2080 C2079 1.400 . S
C2080 C2083 1.386 . S
H2081 C2097 0.930 . S
H2082 C2098 0.931 . S
C2083 H2071 0.929 . S
C2083 C2077 1.390 . S
C2083 C2080 1.386 . S
C2084 C2079 1.490 . S
C2084 C2086 1.395 . S
C2084 C2087 1.403 . S
H2085 C2091 0.930 . S
C2086 H2072 0.930 . S
C2086 C2084 1.395 . S
C2086 C2089 1.403 . S
C2087 C2084 1.403 . S
C2087 C2088 1.524 . S
C2087 C2091 1.400 . S
C2088 H2073 0.960 . S
C2088 H2074 0.960 . S
C2088 H2075 0.960 . S
C2088 C2087 1.524 . S
C2089 C2086 1.403 . S
C2089 C2090 1.392 . S
C2089 C2093 1.495 . S
C2090 C2089 1.392 . S
C2090 C2091 1.385 . S
C2090 C2092 1.478 . S
C2091 H2085 0.930 . S
C2091 C2087 1.400 . S
C2091 C2090 1.385 . S
C2092 C2090 1.478 . S
C2092 C2094 1.381 . S
C2092 C2098 1.383 . S
C2093 C2089 1.495 . S
C2093 H2099 0.959 . S
C2093 H2100 0.961 . S
C2093 H2101 0.960 . S
C2094 C2092 1.381 . S
C2094 C2095 1.394 . S
C2094 H2102 0.930 . S
C2095 C2094 1.394 . S
C2095 C2096 1.383 . S
C2095 H2103 0.929 . S
C2096 C2095 1.383 . S
C2096 C2097 1.377 . S
C2097 H2081 0.930 . S
C2097 C2096 1.377 . S
C2097 C2098 1.379 . S
C2098 H2082 0.931 . S
C2098 C2092 1.383 . S
C2098 C2097 1.379 . S
H2099 C2093 0.959 . S
H2100 C2093 0.961 . S
H2101 C2093 0.960 . S
H2102 C2094 0.930 . S
H2103 C2095 0.929 . S
H2104 C2112 0.929 . S
H2105 C2114 0.930 . S
H2106 C2116 0.930 . S
H2107 C2119 0.929 . S
H2108 C2122 0.930 . S
H2109 C2124 0.965 . S
H2110 C2124 0.952 1_545 S
H2111 C2124 0.970 . S
C2112 H2104 0.929 . S
C2112 C2113 1.377 . S
C2112 C2114 1.384 . S
C2113 C2112 1.377 . S
C2113 C2119 1.390 1_545 S
C2114 H2105 0.930 . S
C2114 C2112 1.384 . S
C2114 C2115 1.372 . S
C2115 C2114 1.372 . S
C2115 C2116 1.400 1_545 S
C2115 C2120 1.490 . S
C2116 H2106 0.930 . S
C2116 C2115 1.400 1_565 S
C2116 C2119 1.386 . S
H2117 C2133 0.930 . S
H2118 C2134 0.931 . S
C2119 H2107 0.929 . S
C2119 C2113 1.390 1_565 S
C2119 C2116 1.386 . S
C2120 C2115 1.490 . S
C2120 C2122 1.395 . S
C2120 C2123 1.403 . S
H2121 C2127 0.930 . S
C2122 H2108 0.930 . S
C2122 C2120 1.395 . S
C2122 C2125 1.403 . S
C2123 C2120 1.403 . S
C2123 C2124 1.518 1_545 S
C2123 C2127 1.400 . S
C2124 H2109 0.965 . S
C2124 H2110 0.952 1_565 S
C2124 H2111 0.970 . S
C2124 C2123 1.518 1_565 S
C2125 C2122 1.403 . S
C2125 C2126 1.392 . S
C2125 C2129 1.495 . S
C2126 C2125 1.392 . S
C2126 C2127 1.385 . S
C2126 C2128 1.478 . S
C2127 H2121 0.930 . S
C2127 C2123 1.400 . S
C2127 C2126 1.385 . S
C2128 C2126 1.478 . S
C2128 C2130 1.381 . S
C2128 C2134 1.383 1_545 S
C2129 C2125 1.495 . S
C2129 H2135 0.959 . S
C2129 H2136 0.961 . S
C2129 H2137 0.960 . S
C2130 C2128 1.381 . S
C2130 C2131 1.394 . S
C2130 H2138 0.930 . S
C2131 C2130 1.394 . S
C2131 C2132 1.383 . S
C2131 H2139 0.929 . S
C2132 C2131 1.383 . S
C2132 C2133 1.377 1_545 S
C2133 H2117 0.930 . S
C2133 C2132 1.377 1_565 S
C2133 C2134 1.379 . S
C2134 H2118 0.931 . S
C2134 C2128 1.383 1_565 S
C2134 C2133 1.379 . S
H2135 C2129 0.959 . S
H2136 C2129 0.961 . S
H2137 C2129 0.960 . S
H2138 C2130 0.930 . S
H2139 C2131 0.929 . S
H2140 C2148 0.929 . S
H2141 C2150 0.930 . S
H2142 C2152 0.930 . S
H2143 C2155 0.929 . S
H2144 C2158 0.930 . S
H2145 C2160 0.960 . S
H2146 C2160 0.960 . S
H2147 C2160 0.960 . S
C2148 H2140 0.929 . S
C2148 C2149 1.377 . S
C2148 C2150 1.384 . S
C2149 C2148 1.377 . S
C2149 C2155 1.390 . S
C2150 H2141 0.930 . S
C2150 C2148 1.384 . S
C2150 C2151 1.372 . S
C2151 C2150 1.372 . S
C2151 C2152 1.400 . S
C2151 C2156 1.490 . S
C2152 H2142 0.930 . S
C2152 C2151 1.400 . S
C2152 C2155 1.386 . S
H2153 C2169 0.930 . S
H2154 C2170 0.931 . S
C2155 H2143 0.929 . S
C2155 C2149 1.390 . S
C2155 C2152 1.386 . S
C2156 C2151 1.490 . S
C2156 C2158 1.395 . S
C2156 C2159 1.403 . S
H2157 C2163 0.930 . S
C2158 H2144 0.930 . S
C2158 C2156 1.395 . S
C2158 C2161 1.403 . S
C2159 C2156 1.403 . S
C2159 C2160 1.524 . S
C2159 C2163 1.400 . S
C2160 H2145 0.960 . S
C2160 H2146 0.960 . S
C2160 H2147 0.960 . S
C2160 C2159 1.524 . S
C2161 C2158 1.403 . S
C2161 C2162 1.392 . S
C2161 C2165 1.495 . S
C2162 C2161 1.392 . S
C2162 C2163 1.385 . S
C2162 C2164 1.478 . S
C2163 H2157 0.930 . S
C2163 C2159 1.400 . S
C2163 C2162 1.385 . S
C2164 C2162 1.478 . S
C2164 C2166 1.381 . S
C2164 C2170 1.383 . S
C2165 C2161 1.495 . S
C2165 H2171 0.959 . S
C2165 H2172 0.961 . S
C2165 H2173 0.960 . S
C2166 C2164 1.381 . S
C2166 C2167 1.394 . S
C2166 H2174 0.930 . S
C2167 C2166 1.394 . S
C2167 C2168 1.383 . S
C2167 H2175 0.929 . S
C2168 C2167 1.383 . S
C2168 C2169 1.377 . S
C2169 H2153 0.930 . S
C2169 C2168 1.377 . S
C2169 C2170 1.379 . S
C2170 H2154 0.931 . S
C2170 C2164 1.383 . S
C2170 C2169 1.379 . S
H2171 C2165 0.959 . S
H2172 C2165 0.961 . S
H2173 C2165 0.960 . S
H2174 C2166 0.930 . S
H2175 C2167 0.929 . S
H2176 C2184 0.929 . S
H2177 C2186 0.930 . S
H2178 C2188 0.930 . S
H2179 C2191 0.929 . S
H2180 C2194 0.930 . S
H2181 C2196 0.960 . S
H2182 C2196 0.960 . S
H2183 C2196 0.960 . S
C2184 H2176 0.929 . S
C2184 C2185 1.377 . S
C2184 C2186 1.384 . S
C2185 C2184 1.377 . S
C2185 C2191 1.390 . S
C2186 H2177 0.930 . S
C2186 C2184 1.384 . S
C2186 C2187 1.372 . S
C2187 C2186 1.372 . S
C2187 C2188 1.400 . S
C2187 C2192 1.490 . S
C2188 H2178 0.930 . S
C2188 C2187 1.400 . S
C2188 C2191 1.386 . S
H2189 C2205 0.930 . S
H2190 C2206 0.931 . S
C2191 H2179 0.929 . S
C2191 C2185 1.390 . S
C2191 C2188 1.386 . S
C2192 C2187 1.490 . S
C2192 C2194 1.395 . S
C2192 C2195 1.403 . S
H2193 C2199 0.930 . S
C2194 H2180 0.930 . S
C2194 C2192 1.395 . S
C2194 C2197 1.403 . S
C2195 C2192 1.403 . S
C2195 C2196 1.524 1_545 S
C2195 C2199 1.400 . S
C2196 H2181 0.960 . S
C2196 H2182 0.960 . S
C2196 H2183 0.960 . S
C2196 C2195 1.524 1_565 S
C2197 C2194 1.403 . S
C2197 C2198 1.392 . S
C2197 C2201 1.495 . S
C2198 C2197 1.392 . S
C2198 C2199 1.385 . S
C2198 C2200 1.478 . S
C2199 H2193 0.930 . S
C2199 C2195 1.400 . S
C2199 C2198 1.385 . S
C2200 C2198 1.478 . S
C2200 C2202 1.381 . S
C2200 C2206 1.383 . S
C2201 C2197 1.495 . S
C2201 H2207 0.959 . S
C2201 H2208 0.961 . S
C2201 H2209 0.960 . S
C2202 C2200 1.381 . S
C2202 C2203 1.394 . S
C2202 H2210 0.930 . S
C2203 C2202 1.394 . S
C2203 C2204 1.383 . S
C2203 H2211 0.929 . S
C2204 C2203 1.383 . S
C2204 C2205 1.377 . S
C2205 H2189 0.930 . S
C2205 C2204 1.377 . S
C2205 C2206 1.379 . S
C2206 H2190 0.931 . S
C2206 C2200 1.383 . S
C2206 C2205 1.379 . S
H2207 C2201 0.959 . S
H2208 C2201 0.961 . S
H2209 C2201 0.960 . S
H2210 C2202 0.930 . S
H2211 C2203 0.929 . S
H2212 C2220 0.929 . S
H2213 C2222 0.930 . S
H2214 C2224 0.930 . S
H2215 C2227 0.929 . S
H2216 C2230 0.930 . S
H2217 C2232 0.960 . S
H2218 C2232 0.960 . S
H2219 C2232 0.960 . S
C2220 H2212 0.929 . S
C2220 C2221 1.377 . S
C2220 C2222 1.384 . S
C2221 C2220 1.377 . S
C2221 C2227 1.390 . S
C2222 H2213 0.930 . S
C2222 C2220 1.384 . S
C2222 C2223 1.372 . S
C2223 C2222 1.372 . S
C2223 C2224 1.400 . S
C2223 C2228 1.490 . S
C2224 H2214 0.930 . S
C2224 C2223 1.400 . S
C2224 C2227 1.386 . S
H2225 C2241 0.930 . S
H2226 C2242 0.931 . S
C2227 H2215 0.929 . S
C2227 C2221 1.390 . S
C2227 C2224 1.386 . S
C2228 C2223 1.490 . S
C2228 C2230 1.395 . S
C2228 C2231 1.403 . S
H2229 C2235 0.930 . S
C2230 H2216 0.930 . S
C2230 C2228 1.395 . S
C2230 C2233 1.403 . S
C2231 C2228 1.403 . S
C2231 C2232 1.524 . S
C2231 C2235 1.400 . S
C2232 H2217 0.960 . S
C2232 H2218 0.960 . S
C2232 H2219 0.960 . S
C2232 C2231 1.524 . S
C2233 C2230 1.403 . S
C2233 C2234 1.392 . S
C2233 C2237 1.495 . S
C2234 C2233 1.392 . S
C2234 C2235 1.385 . S
C2234 C2236 1.478 . S
C2235 H2229 0.930 . S
C2235 C2231 1.400 . S
C2235 C2234 1.385 . S
C2236 C2234 1.478 . S
C2236 C2238 1.381 . S
C2236 C2242 1.383 . S
C2237 C2233 1.495 . S
C2237 H2243 0.959 . S
C2237 H2244 0.961 . S
C2237 H2245 0.960 . S
C2238 C2236 1.381 . S
C2238 C2239 1.394 . S
C2238 H2246 0.930 . S
C2239 C2238 1.394 . S
C2239 C2240 1.383 . S
C2239 H2247 0.929 . S
C2240 C2239 1.383 . S
C2240 C2241 1.377 . S
C2241 H2225 0.930 . S
C2241 C2240 1.377 . S
C2241 C2242 1.379 . S
C2242 H2226 0.931 . S
C2242 C2236 1.383 . S
C2242 C2241 1.379 . S
H2243 C2237 0.959 . S
H2244 C2237 0.961 . S
H2245 C2237 0.960 . S
H2246 C2238 0.930 . S
H2247 C2239 0.929 . S
H2248 C2256 0.929 . S
H2249 C2258 0.930 . S
H2250 C2260 0.930 . S
H2251 C2263 0.929 . S
H2252 C2266 0.930 . S
H2253 C2268 0.960 . S
H2254 C2268 0.960 . S
H2255 C2268 0.960 . S
C2256 H2248 0.929 . S
C2256 C2257 1.377 . S
C2256 C2258 1.384 . S
C2257 C2256 1.377 . S
C2257 C2263 1.390 1_565 S
C2258 H2249 0.930 . S
C2258 C2256 1.384 . S
C2258 C2259 1.372 1_565 S
C2259 C2258 1.372 1_545 S
C2259 C2260 1.400 . S
C2259 C2264 1.490 . S
C2260 H2250 0.930 . S
C2260 C2259 1.400 . S
C2260 C2263 1.386 . S
H2261 C2277 0.930 . S
H2262 C2278 0.931 . S
C2263 H2251 0.929 . S
C2263 C2257 1.390 1_545 S
C2263 C2260 1.386 . S
C2264 C2259 1.490 . S
C2264 C2266 1.395 . S
C2264 C2267 1.403 1_545 S
H2265 C2271 0.930 1_565 S
C2266 H2252 0.930 . S
C2266 C2264 1.395 . S
C2266 C2269 1.403 . S
C2267 C2264 1.403 1_565 S
C2267 C2268 1.524 . S
C2267 C2271 1.400 1_565 S
C2268 H2253 0.960 . S
C2268 H2254 0.960 . S
C2268 H2255 0.960 . S
C2268 C2267 1.524 . S
C2269 C2266 1.403 . S
C2269 C2270 1.392 . S
C2269 C2273 1.495 . S
C2270 C2269 1.392 . S
C2270 C2271 1.385 . S
C2270 C2272 1.478 . S
C2271 H2265 0.930 1_545 S
C2271 C2267 1.400 1_545 S
C2271 C2270 1.385 . S
C2272 C2270 1.478 . S
C2272 C2274 1.381 . S
C2272 C2278 1.383 . S
C2273 C2269 1.495 . S
C2273 H2279 0.959 . S
C2273 H2280 0.961 . S
C2273 H2281 0.960 . S
C2274 C2272 1.381 . S
C2274 C2275 1.394 . S
C2274 H2282 0.930 . S
C2275 C2274 1.394 . S
C2275 C2276 1.383 . S
C2275 H2283 0.929 . S
C2276 C2275 1.383 . S
C2276 C2277 1.377 . S
C2277 H2261 0.930 . S
C2277 C2276 1.377 . S
C2277 C2278 1.379 . S
C2278 H2262 0.931 . S
C2278 C2272 1.383 . S
C2278 C2277 1.379 . S
H2279 C2273 0.959 . S
H2280 C2273 0.961 . S
H2281 C2273 0.960 . S
H2282 C2274 0.930 . S
H2283 C2275 0.929 . S
H2284 C2292 0.929 . S
H2285 C2294 0.930 . S
H2286 C2296 0.930 . S
H2287 C2299 0.929 . S
H2288 C2302 0.930 . S
H2289 C2304 0.960 . S
H2290 C2304 0.960 . S
H2291 C2304 0.960 . S
C2292 H2284 0.929 . S
C2292 C2293 1.377 . S
C2292 C2294 1.384 . S
C2293 C2292 1.377 . S
C2293 C2299 1.390 . S
C2294 H2285 0.930 . S
C2294 C2292 1.384 . S
C2294 C2295 1.372 . S
C2295 C2294 1.372 . S
C2295 C2296 1.400 . S
C2295 C2300 1.490 . S
C2296 H2286 0.930 . S
C2296 C2295 1.400 . S
C2296 C2299 1.386 . S
H2297 C2313 0.930 . S
H2298 C2314 0.931 . S
C2299 H2287 0.929 . S
C2299 C2293 1.390 . S
C2299 C2296 1.386 . S
C2300 C2295 1.490 . S
C2300 C2302 1.395 . S
C2300 C2303 1.403 . S
H2301 C2307 0.930 . S
C2302 H2288 0.930 . S
C2302 C2300 1.395 . S
C2302 C2305 1.403 . S
C2303 C2300 1.403 . S
C2303 C2304 1.524 . S
C2303 C2307 1.400 . S
C2304 H2289 0.960 . S
C2304 H2290 0.960 . S
C2304 H2291 0.960 . S
C2304 C2303 1.524 . S
C2305 C2302 1.403 . S
C2305 C2306 1.392 . S
C2305 C2309 1.495 . S
C2306 C2305 1.392 . S
C2306 C2307 1.385 . S
C2306 C2308 1.478 . S
C2307 H2301 0.930 . S
C2307 C2303 1.400 . S
C2307 C2306 1.385 . S
C2308 C2306 1.478 . S
C2308 C2310 1.381 . S
C2308 C2314 1.383 . S
C2309 C2305 1.495 . S
C2309 H2315 0.959 . S
C2309 H2316 0.961 . S
C2309 H2317 0.960 . S
C2310 C2308 1.381 . S
C2310 C2311 1.394 . S
C2310 H2318 0.930 . S
C2311 C2310 1.394 . S
C2311 C2312 1.383 . S
C2311 H2319 0.929 . S
C2312 C2311 1.383 . S
C2312 C2313 1.377 . S
C2313 H2297 0.930 . S
C2313 C2312 1.377 . S
C2313 C2314 1.379 . S
C2314 H2298 0.931 . S
C2314 C2308 1.383 . S
C2314 C2313 1.379 . S
H2315 C2309 0.959 . S
H2316 C2309 0.961 . S
H2317 C2309 0.960 . S
H2318 C2310 0.930 . S
H2319 C2311 0.929 . S
H2320 C2328 0.929 . S
H2321 C2330 0.930 . S
H2322 C2332 0.930 . S
H2323 C2335 0.929 . S
H2324 C2338 0.930 . S
H2325 C2340 0.960 . S
H2326 C2340 0.960 . S
H2327 C2340 0.960 . S
C2328 H2320 0.929 . S
C2328 C2329 1.377 . S
C2328 C2330 1.384 . S
C2329 C2328 1.377 . S
C2329 C2335 1.390 1_545 S
C2330 H2321 0.930 . S
C2330 C2328 1.384 . S
C2330 C2331 1.372 . S
C2331 C2330 1.372 . S
C2331 C2332 1.400 1_545 S
C2331 C2336 1.491 . S
C2332 H2322 0.930 . S
C2332 C2331 1.400 1_565 S
C2332 C2335 1.386 . S
H2333 C2349 0.930 . S
H2334 C2350 0.931 . S
C2335 H2323 0.929 . S
C2335 C2329 1.390 1_565 S
C2335 C2332 1.386 . S
C2336 C2331 1.491 . S
C2336 C2338 1.399 . S
C2336 C2339 1.397 1_545 S
H2337 C2343 0.930 . S
C2338 H2324 0.930 . S
C2338 C2336 1.399 . S
C2338 C2341 1.403 . S
C2339 C2336 1.397 1_565 S
C2339 C2340 1.524 . S
C2339 C2343 1.400 . S
C2340 H2325 0.960 . S
C2340 H2326 0.960 . S
C2340 H2327 0.960 . S
C2340 C2339 1.524 . S
C2341 C2338 1.403 . S
C2341 C2342 1.392 1_545 S
C2341 C2345 1.495 . S
C2342 C2341 1.392 1_565 S
C2342 C2343 1.385 . S
C2342 C2344 1.478 . S
C2343 H2337 0.930 . S
C2343 C2339 1.400 . S
C2343 C2342 1.385 . S
C2344 C2342 1.478 . S
C2344 C2346 1.381 1_565 S
C2344 C2350 1.383 . S
C2345 C2341 1.495 . S
C2345 H2351 0.959 . S
C2345 H2352 0.961 . S
C2345 H2353 0.960 . S
C2346 C2344 1.381 1_545 S
C2346 C2347 1.394 . S
C2346 H2354 0.930 . S
C2347 C2346 1.394 . S
C2347 C2348 1.383 1_545 S
C2347 H2355 0.929 . S
C2348 C2347 1.383 1_565 S
C2348 C2349 1.377 . S
C2349 H2333 0.930 . S
C2349 C2348 1.377 . S
C2349 C2350 1.379 . S
C2350 H2334 0.931 . S
C2350 C2344 1.383 . S
C2350 C2349 1.379 . S
H2351 C2345 0.959 . S
H2352 C2345 0.961 . S
H2353 C2345 0.960 . S
H2354 C2346 0.930 . S
H2355 C2347 0.929 . S
H2356 C2364 0.929 . S
H2357 C2366 0.930 . S
H2358 C2368 0.930 . S
H2359 C2371 0.929 . S
H2360 C2374 0.930 . S
H2361 C2376 0.960 . S
H2362 C2376 0.960 . S
H2363 C2376 0.960 . S
C2364 H2356 0.929 . S
C2364 C2365 1.377 . S
C2364 C2366 1.384 . S
C2365 C2364 1.377 . S
C2365 C2371 1.390 . S
C2366 H2357 0.930 . S
C2366 C2364 1.384 . S
C2366 C2367 1.372 . S
C2367 C2366 1.372 . S
C2367 C2368 1.400 . S
C2367 C2372 1.490 . S
C2368 H2358 0.930 . S
C2368 C2367 1.400 . S
C2368 C2371 1.386 . S
H2369 C2385 0.930 . S
H2370 C2386 0.931 . S
C2371 H2359 0.929 . S
C2371 C2365 1.390 . S
C2371 C2368 1.386 . S
C2372 C2367 1.490 . S
C2372 C2374 1.395 . S
C2372 C2375 1.403 . S
H2373 C2379 0.930 . S
C2374 H2360 0.930 . S
C2374 C2372 1.395 . S
C2374 C2377 1.403 . S
C2375 C2372 1.403 . S
C2375 C2376 1.524 . S
C2375 C2379 1.400 . S
C2376 H2361 0.960 . S
C2376 H2362 0.960 . S
C2376 H2363 0.960 . S
C2376 C2375 1.524 . S
C2377 C2374 1.403 . S
C2377 C2378 1.392 . S
C2377 C2381 1.495 . S
C2378 C2377 1.392 . S
C2378 C2379 1.385 . S
C2378 C2380 1.478 . S
C2379 H2373 0.930 . S
C2379 C2375 1.400 . S
C2379 C2378 1.385 . S
C2380 C2378 1.478 . S
C2380 C2382 1.381 . S
C2380 C2386 1.383 . S
C2381 C2377 1.495 . S
C2381 H2387 0.959 . S
C2381 H2388 0.961 . S
C2381 H2389 0.960 . S
C2382 C2380 1.381 . S
C2382 C2383 1.394 . S
C2382 H2390 0.930 . S
C2383 C2382 1.394 . S
C2383 C2384 1.383 . S
C2383 H2391 0.929 . S
C2384 C2383 1.383 . S
C2384 C2385 1.377 . S
C2385 H2369 0.930 . S
C2385 C2384 1.377 . S
C2385 C2386 1.379 . S
C2386 H2370 0.931 . S
C2386 C2380 1.383 . S
C2386 C2385 1.379 . S
H2387 C2381 0.959 . S
H2388 C2381 0.961 . S
H2389 C2381 0.960 . S
H2390 C2382 0.930 . S
H2391 C2383 0.929 . S
H2392 C2400 0.929 . S
H2393 C2402 0.930 . S
H2394 C2404 0.930 . S
H2395 C2407 0.929 . S
H2396 C2410 0.922 1_554 S
H2397 C2412 0.960 . S
H2398 C2412 0.960 . S
H2399 C2412 0.960 . S
C2400 H2392 0.929 . S
C2400 C2401 1.377 1_556 S
C2400 C2402 1.384 . S
C2401 C2400 1.377 1_554 S
C2401 C2407 1.390 . S
C2402 H2393 0.930 . S
C2402 C2400 1.384 . S
C2402 C2403 1.372 . S
C2403 C2402 1.372 . S
C2403 C2404 1.400 1_556 S
C2403 C2408 1.490 . S
C2404 H2394 0.930 . S
C2404 C2403 1.400 1_554 S
C2404 C2407 1.386 . S
H2405 C2421 0.930 . S
H2406 C2422 0.931 1_554 S
C2407 H2395 0.929 . S
C2407 C2401 1.390 . S
C2407 C2404 1.386 . S
C2408 C2403 1.490 . S
C2408 C2410 1.395 . S
C2408 C2411 1.403 . S
H2409 C2415 0.930 . S
C2410 H2396 0.922 1_556 S
C2410 C2408 1.395 . S
C2410 C2413 1.403 . S
C2411 C2408 1.403 . S
C2411 C2412 1.524 . S
C2411 C2415 1.400 . S
C2412 H2397 0.960 . S
C2412 H2398 0.960 . S
C2412 H2399 0.960 . S
C2412 C2411 1.524 . S
C2413 C2410 1.403 . S
C2413 C2414 1.392 . S
C2413 C2417 1.495 . S
C2414 C2413 1.392 . S
C2414 C2415 1.385 . S
C2414 C2416 1.478 . S
C2415 H2409 0.930 . S
C2415 C2411 1.400 . S
C2415 C2414 1.385 . S
C2416 C2414 1.478 . S
C2416 C2418 1.381 . S
C2416 C2422 1.383 . S
C2417 C2413 1.495 . S
C2417 H2423 0.959 1_556 S
C2417 H2424 0.961 1_556 S
C2417 H2425 0.960 . S
C2418 C2416 1.381 . S
C2418 C2419 1.394 . S
C2418 H2426 0.930 . S
C2419 C2418 1.394 . S
C2419 C2420 1.383 . S
C2419 H2427 0.929 . S
C2420 C2419 1.383 . S
C2420 C2421 1.377 . S
C2421 H2405 0.930 . S
C2421 C2420 1.377 . S
C2421 C2422 1.379 . S
C2422 H2406 0.931 1_556 S
C2422 C2416 1.383 . S
C2422 C2421 1.379 . S
H2423 C2417 0.959 1_554 S
H2424 C2417 0.961 1_554 S
H2425 C2417 0.960 . S
H2426 C2418 0.930 . S
H2427 C2419 0.929 . S
H2428 C2436 0.929 . S
H2429 C2438 0.933 . S
H2430 C2440 0.930 . S
H2431 C2443 0.929 . S
H2432 C2446 0.930 1_556 S
H2433 C2448 0.960 . S
H2434 C2448 0.960 . S
H2435 C2448 0.960 . S
C2436 H2428 0.929 . S
C2436 C2437 1.377 . S
C2436 C2438 1.384 . S
C2437 C2436 1.377 . S
C2437 C2443 1.390 . S
C2438 H2429 0.933 . S
C2438 C2436 1.384 . S
C2438 C2439 1.372 . S
C2439 C2438 1.372 . S
C2439 C2440 1.400 . S
C2439 C2444 1.490 . S
C2440 H2430 0.930 . S
C2440 C2439 1.400 . S
C2440 C2443 1.386 . S
H2441 C2457 0.930 . S
H2442 C2458 0.931 . S
C2443 H2431 0.929 . S
C2443 C2437 1.390 . S
C2443 C2440 1.386 . S
C2444 C2439 1.490 . S
C2444 C2446 1.395 . S
C2444 C2447 1.403 . S
H2445 C2451 0.930 . S
C2446 H2432 0.930 1_554 S
C2446 C2444 1.395 . S
C2446 C2449 1.422 . S
C2447 C2444 1.403 . S
C2447 C2448 1.524 . S
C2447 C2451 1.400 . S
C2448 H2433 0.960 . S
C2448 H2434 0.960 . S
C2448 H2435 0.960 . S
C2448 C2447 1.524 . S
C2449 C2446 1.422 . S
C2449 C2450 1.436 . S
C2449 C2453 1.436 1_554 S
C2450 C2449 1.436 . S
C2450 C2451 1.385 . S
C2450 C2452 1.478 . S
C2451 H2445 0.930 . S
C2451 C2447 1.400 . S
C2451 C2450 1.385 . S
C2452 C2450 1.478 . S
C2452 C2454 1.381 . S
C2452 C2458 1.383 . S
C2453 C2449 1.436 1_556 S
C2453 H2459 0.959 . S
C2453 H2460 0.961 . S
C2453 H2461 0.960 . S
C2454 C2452 1.381 . S
C2454 C2455 1.394 . S
C2454 H2462 0.930 1_554 S
C2455 C2454 1.394 . S
C2455 C2456 1.383 . S
C2455 H2463 0.906 1_554 S
C2456 C2455 1.383 . S
C2456 C2457 1.377 . S
C2457 H2441 0.930 . S
C2457 C2456 1.377 . S
C2457 C2458 1.379 . S
C2458 H2442 0.931 . S
C2458 C2452 1.383 . S
C2458 C2457 1.379 . S
H2459 C2453 0.959 . S
H2460 C2453 0.961 . S
H2461 C2453 0.960 . S
H2462 C2454 0.930 1_556 S
H2463 C2455 0.906 1_556 S
H2464 C2472 0.929 . S
H2465 C2474 0.930 . S
H2466 C2476 0.930 . S
H2467 C2479 0.929 . S
H2468 C2482 0.930 . S
H2469 C2484 0.960 . S
H2470 C2484 0.960 . S
H2471 C2484 0.960 . S
C2472 H2464 0.929 . S
C2472 C2473 1.377 . S
C2472 C2474 1.384 . S
C2473 C2472 1.377 . S
C2473 C2479 1.390 . S
C2474 H2465 0.930 . S
C2474 C2472 1.384 . S
C2474 C2475 1.372 . S
C2475 C2474 1.372 . S
C2475 C2476 1.400 . S
C2475 C2480 1.490 . S
C2476 H2466 0.930 . S
C2476 C2475 1.400 . S
C2476 C2479 1.386 . S
H2477 C2493 0.930 . S
H2478 C2494 0.931 . S
C2479 H2467 0.929 . S
C2479 C2473 1.390 . S
C2479 C2476 1.386 . S
C2480 C2475 1.490 . S
C2480 C2482 1.395 . S
C2480 C2483 1.403 . S
H2481 C2487 0.930 . S
C2482 H2468 0.930 . S
C2482 C2480 1.395 . S
C2482 C2485 1.403 . S
C2483 C2480 1.403 . S
C2483 C2484 1.524 . S
C2483 C2487 1.400 . S
C2484 H2469 0.960 . S
C2484 H2470 0.960 . S
C2484 H2471 0.960 . S
C2484 C2483 1.524 . S
C2485 C2482 1.403 . S
C2485 C2486 1.392 . S
C2485 C2489 1.495 . S
C2486 C2485 1.392 . S
C2486 C2487 1.385 . S
C2486 C2488 1.478 . S
C2487 H2481 0.930 . S
C2487 C2483 1.400 . S
C2487 C2486 1.385 . S
C2488 C2486 1.478 . S
C2488 C2490 1.381 . S
C2488 C2494 1.383 . S
C2489 C2485 1.495 . S
C2489 H2495 0.959 . S
C2489 H2496 0.961 . S
C2489 H2497 0.960 . S
C2490 C2488 1.381 . S
C2490 C2491 1.394 . S
C2490 H2498 0.930 . S
C2491 C2490 1.394 . S
C2491 C2492 1.383 . S
C2491 H2499 0.929 . S
C2492 C2491 1.383 . S
C2492 C2493 1.377 . S
C2493 H2477 0.930 . S
C2493 C2492 1.377 . S
C2493 C2494 1.379 . S
C2494 H2478 0.931 . S
C2494 C2488 1.383 . S
C2494 C2493 1.379 . S
H2495 C2489 0.959 . S
H2496 C2489 0.961 . S
H2497 C2489 0.960 . S
H2498 C2490 0.930 . S
H2499 C2491 0.929 . S
H2500 C2508 0.929 . S
H2501 C2510 0.930 . S
H2502 C2512 0.930 . S
H2503 C2515 0.929 . S
H2504 C2518 0.930 . S
H2505 C2520 0.960 . S
H2506 C2520 0.960 . S
H2507 C2520 0.960 . S
C2508 H2500 0.929 . S
C2508 C2509 1.377 . S
C2508 C2510 1.384 . S
C2509 C2508 1.377 . S
C2509 C2515 1.390 . S
C2510 H2501 0.930 . S
C2510 C2508 1.384 . S
C2510 C2511 1.372 . S
C2511 C2510 1.372 . S
C2511 C2512 1.400 . S
C2511 C2516 1.490 . S
C2512 H2502 0.930 . S
C2512 C2511 1.400 . S
C2512 C2515 1.386 . S
H2513 C2529 0.930 . S
H2514 C2530 0.931 . S
C2515 H2503 0.929 . S
C2515 C2509 1.390 . S
C2515 C2512 1.386 . S
C2516 C2511 1.490 . S
C2516 C2518 1.395 . S
C2516 C2519 1.403 . S
H2517 C2523 0.930 . S
C2518 H2504 0.930 . S
C2518 C2516 1.395 . S
C2518 C2521 1.403 . S
C2519 C2516 1.403 . S
C2519 C2520 1.524 . S
C2519 C2523 1.400 . S
C2520 H2505 0.960 . S
C2520 H2506 0.960 . S
C2520 H2507 0.960 . S
C2520 C2519 1.524 . S
C2521 C2518 1.403 . S
C2521 C2522 1.392 . S
C2521 C2525 1.495 . S
C2522 C2521 1.392 . S
C2522 C2523 1.385 . S
C2522 C2524 1.478 . S
C2523 H2517 0.930 . S
C2523 C2519 1.400 . S
C2523 C2522 1.385 . S
C2524 C2522 1.478 . S
C2524 C2526 1.381 . S
C2524 C2530 1.383 . S
C2525 C2521 1.495 . S
C2525 H2531 0.959 . S
C2525 H2532 0.961 . S
C2525 H2533 0.960 . S
C2526 C2524 1.381 . S
C2526 C2527 1.394 . S
C2526 H2534 0.930 . S
C2527 C2526 1.394 . S
C2527 C2528 1.383 . S
C2527 H2535 0.929 . S
C2528 C2527 1.383 . S
C2528 C2529 1.377 . S
C2529 H2513 0.930 . S
C2529 C2528 1.377 . S
C2529 C2530 1.379 . S
C2530 H2514 0.931 . S
C2530 C2524 1.383 . S
C2530 C2529 1.379 . S
H2531 C2525 0.959 . S
H2532 C2525 0.961 . S
H2533 C2525 0.960 . S
H2534 C2526 0.930 . S
H2535 C2527 0.929 . S
H2536 C2544 0.954 . S
H2537 C2546 0.930 . S
H2538 C2548 0.930 . S
H2539 C2551 0.929 . S
H2540 C2554 0.930 . S
H2541 C2556 0.960 . S
H2542 C2556 0.928 1_545 S
H2543 C2556 0.960 . S
C2544 H2536 0.954 . S
C2544 C2545 1.412 . S
C2544 C2546 1.328 1_545 S
C2545 C2544 1.412 . S
C2545 C2551 1.390 . S
C2546 H2537 0.930 . S
C2546 C2544 1.328 1_565 S
C2546 C2547 1.372 . S
C2547 C2546 1.372 . S
C2547 C2548 1.400 . S
C2547 C2552 1.490 . S
C2548 H2538 0.930 . S
C2548 C2547 1.400 . S
C2548 C2551 1.386 1_565 S
H2549 C2565 0.930 . S
H2550 C2566 0.931 . S
C2551 H2539 0.929 . S
C2551 C2545 1.390 . S
C2551 C2548 1.386 1_545 S
C2552 C2547 1.490 . S
C2552 C2554 1.395 . S
C2552 C2555 1.403 . S
H2553 C2559 0.930 . S
C2554 H2540 0.930 . S
C2554 C2552 1.395 . S
C2554 C2557 1.403 . S
C2555 C2552 1.403 . S
C2555 C2556 1.524 . S
C2555 C2559 1.400 . S
C2556 H2541 0.960 . S
C2556 H2542 0.928 1_565 S
C2556 H2543 0.960 . S
C2556 C2555 1.524 . S
C2557 C2554 1.403 . S
C2557 C2558 1.392 . S
C2557 C2561 1.495 . S
C2558 C2557 1.392 . S
C2558 C2559 1.385 . S
C2558 C2560 1.478 . S
C2559 H2553 0.930 . S
C2559 C2555 1.400 . S
C2559 C2558 1.385 . S
C2560 C2558 1.478 . S
C2560 C2562 1.381 . S
C2560 C2566 1.383 . S
C2561 C2557 1.495 . S
C2561 H2567 0.959 . S
C2561 H2568 0.961 . S
C2561 H2569 0.960 . S
C2562 C2560 1.381 . S
C2562 C2563 1.394 . S
C2562 H2570 0.930 . S
C2563 C2562 1.394 . S
C2563 C2564 1.383 . S
C2563 H2571 0.929 . S
C2564 C2563 1.383 . S
C2564 C2565 1.377 . S
C2565 H2549 0.930 . S
C2565 C2564 1.377 . S
C2565 C2566 1.379 . S
C2566 H2550 0.931 . S
C2566 C2560 1.383 . S
C2566 C2565 1.379 . S
H2567 C2561 0.959 . S
H2568 C2561 0.961 . S
H2569 C2561 0.960 . S
H2570 C2562 0.930 . S
H2571 C2563 0.929 . S
H2572 C2580 0.929 . S
H2573 C2582 0.930 . S
H2574 C2584 0.930 . S
H2575 C2587 0.929 . S
H2576 C2590 0.930 . S
H2577 C2592 0.960 . S
H2578 C2592 0.960 . S
H2579 C2592 0.960 . S
C2580 H2572 0.929 . S
C2580 C2581 1.377 . S
C2580 C2582 1.384 . S
C2581 C2580 1.377 . S
C2581 C2587 1.390 . S
C2582 H2573 0.930 . S
C2582 C2580 1.384 . S
C2582 C2583 1.372 . S
C2583 C2582 1.372 . S
C2583 C2584 1.400 . S
C2583 C2588 1.490 . S
C2584 H2574 0.930 . S
C2584 C2583 1.400 . S
C2584 C2587 1.386 . S
H2585 C2601 0.930 . S
H2586 C2602 0.931 . S
C2587 H2575 0.929 . S
C2587 C2581 1.390 . S
C2587 C2584 1.386 . S
C2588 C2583 1.490 . S
C2588 C2590 1.395 . S
C2588 C2591 1.403 . S
H2589 C2595 0.930 . S
C2590 H2576 0.930 . S
C2590 C2588 1.395 . S
C2590 C2593 1.403 . S
C2591 C2588 1.403 . S
C2591 C2592 1.524 . S
C2591 C2595 1.400 . S
C2592 H2577 0.960 . S
C2592 H2578 0.960 . S
C2592 H2579 0.960 . S
C2592 C2591 1.524 . S
C2593 C2590 1.403 . S
C2593 C2594 1.392 . S
C2593 C2597 1.495 . S
C2594 C2593 1.392 . S
C2594 C2595 1.385 . S
C2594 C2596 1.478 . S
C2595 H2589 0.930 . S
C2595 C2591 1.400 . S
C2595 C2594 1.385 . S
C2596 C2594 1.478 . S
C2596 C2598 1.381 . S
C2596 C2602 1.383 . S
C2597 C2593 1.495 . S
C2597 H2603 0.959 . S
C2597 H2604 0.961 . S
C2597 H2605 0.960 . S
C2598 C2596 1.381 . S
C2598 C2599 1.394 . S
C2598 H2606 0.930 . S
C2599 C2598 1.394 . S
C2599 C2600 1.383 . S
C2599 H2607 0.929 . S
C2600 C2599 1.383 . S
C2600 C2601 1.377 . S
C2601 H2585 0.930 . S
C2601 C2600 1.377 . S
C2601 C2602 1.379 . S
C2602 H2586 0.931 . S
C2602 C2596 1.383 . S
C2602 C2601 1.379 . S
H2603 C2597 0.959 . S
H2604 C2597 0.961 . S
H2605 C2597 0.960 . S
H2606 C2598 0.930 . S
H2607 C2599 0.929 . S
H2608 C2616 0.929 . S
H2609 C2618 0.930 . S
H2610 C2620 0.930 . S
H2611 C2623 0.929 . S
H2612 C2626 0.930 . S
H2613 C2628 0.960 . S
H2614 C2628 0.960 . S
H2615 C2628 0.960 . S
C2616 H2608 0.929 . S
C2616 C2617 1.377 . S
C2616 C2618 1.384 . S
C2617 C2616 1.377 . S
C2617 C2623 1.390 . S
C2618 H2609 0.930 . S
C2618 C2616 1.384 . S
C2618 C2619 1.372 . S
C2619 C2618 1.372 . S
C2619 C2620 1.400 . S
C2619 C2624 1.490 . S
C2620 H2610 0.930 . S
C2620 C2619 1.400 . S
C2620 C2623 1.386 . S
H2621 C2637 0.930 . S
H2622 C2638 0.931 . S
C2623 H2611 0.929 . S
C2623 C2617 1.390 . S
C2623 C2620 1.386 . S
C2624 C2619 1.490 . S
C2624 C2626 1.395 . S
C2624 C2627 1.403 . S
H2625 C2631 0.930 . S
C2626 H2612 0.930 . S
C2626 C2624 1.395 . S
C2626 C2629 1.403 . S
C2627 C2624 1.403 . S
C2627 C2628 1.524 . S
C2627 C2631 1.400 . S
C2628 H2613 0.960 . S
C2628 H2614 0.960 . S
C2628 H2615 0.960 . S
C2628 C2627 1.524 . S
C2629 C2626 1.403 . S
C2629 C2630 1.392 . S
C2629 C2633 1.495 . S
C2630 C2629 1.392 . S
C2630 C2631 1.385 . S
C2630 C2632 1.478 . S
C2631 H2625 0.930 . S
C2631 C2627 1.400 . S
C2631 C2630 1.385 . S
C2632 C2630 1.478 . S
C2632 C2634 1.381 . S
C2632 C2638 1.383 . S
C2633 C2629 1.495 . S
C2633 H2639 0.959 . S
C2633 H2640 0.961 . S
C2633 H2641 0.960 . S
C2634 C2632 1.381 . S
C2634 C2635 1.394 . S
C2634 H2642 0.930 . S
C2635 C2634 1.394 . S
C2635 C2636 1.383 . S
C2635 H2643 0.929 . S
C2636 C2635 1.383 . S
C2636 C2637 1.377 . S
C2637 H2621 0.930 . S
C2637 C2636 1.377 . S
C2637 C2638 1.379 . S
C2638 H2622 0.931 . S
C2638 C2632 1.383 . S
C2638 C2637 1.379 . S
H2639 C2633 0.959 . S
H2640 C2633 0.961 . S
H2641 C2633 0.960 . S
H2642 C2634 0.930 . S
H2643 C2635 0.929 . S
H2644 C2652 0.929 . S
H2645 C2654 0.930 . S
H2646 C2656 0.930 . S
H2647 C2659 0.929 . S
H2648 C2662 0.930 . S
H2649 C2664 0.960 . S
H2650 C2664 0.960 . S
H2651 C2664 0.960 . S
C2652 H2644 0.929 . S
C2652 C2653 1.377 . S
C2652 C2654 1.384 . S
C2653 C2652 1.377 . S
C2653 C2659 1.390 . S
C2654 H2645 0.930 . S
C2654 C2652 1.384 . S
C2654 C2655 1.372 . S
C2655 C2654 1.372 . S
C2655 C2656 1.400 . S
C2655 C2660 1.490 . S
C2656 H2646 0.930 . S
C2656 C2655 1.400 . S
C2656 C2659 1.386 . S
H2657 C2673 0.930 . S
H2658 C2674 0.931 . S
C2659 H2647 0.929 . S
C2659 C2653 1.390 . S
C2659 C2656 1.386 . S
C2660 C2655 1.490 . S
C2660 C2662 1.395 . S
C2660 C2663 1.403 . S
H2661 C2667 0.930 . S
C2662 H2648 0.930 . S
C2662 C2660 1.395 . S
C2662 C2665 1.403 . S
C2663 C2660 1.403 . S
C2663 C2664 1.524 . S
C2663 C2667 1.400 . S
C2664 H2649 0.960 . S
C2664 H2650 0.960 . S
C2664 H2651 0.960 . S
C2664 C2663 1.524 . S
C2665 C2662 1.403 . S
C2665 C2666 1.392 . S
C2665 C2669 1.495 . S
C2666 C2665 1.392 . S
C2666 C2667 1.385 . S
C2666 C2668 1.478 . S
C2667 H2661 0.930 . S
C2667 C2663 1.400 . S
C2667 C2666 1.385 . S
C2668 C2666 1.478 . S
C2668 C2670 1.381 . S
C2668 C2674 1.383 . S
C2669 C2665 1.495 . S
C2669 H2675 0.959 . S
C2669 H2676 0.961 . S
C2669 H2677 0.960 . S
C2670 C2668 1.381 . S
C2670 C2671 1.394 . S
C2670 H2678 0.930 . S
C2671 C2670 1.394 . S
C2671 C2672 1.383 . S
C2671 H2679 0.929 . S
C2672 C2671 1.383 . S
C2672 C2673 1.377 . S
C2673 H2657 0.930 . S
C2673 C2672 1.377 . S
C2673 C2674 1.379 . S
C2674 H2658 0.931 . S
C2674 C2668 1.383 . S
C2674 C2673 1.379 . S
H2675 C2669 0.959 . S
H2676 C2669 0.961 . S
H2677 C2669 0.960 . S
H2678 C2670 0.930 . S
H2679 C2671 0.929 . S
H2680 C2688 0.929 . S
H2681 C2690 0.930 . S
H2682 C2692 0.930 . S
H2683 C2695 0.929 . S
H2684 C2698 0.930 . S
H2685 C2700 0.960 . S
H2686 C2700 0.960 . S
H2687 C2700 0.960 . S
C2688 H2680 0.929 . S
C2688 C2689 1.377 . S
C2688 C2690 1.384 . S
C2689 C2688 1.377 . S
C2689 C2695 1.390 . S
C2690 H2681 0.930 . S
C2690 C2688 1.384 . S
C2690 C2691 1.372 . S
C2691 C2690 1.372 . S
C2691 C2692 1.400 . S
C2691 C2696 1.490 . S
C2692 H2682 0.930 . S
C2692 C2691 1.400 . S
C2692 C2695 1.386 . S
H2693 C2709 0.930 . S
H2694 C2710 0.931 . S
C2695 H2683 0.929 . S
C2695 C2689 1.390 . S
C2695 C2692 1.386 . S
C2696 C2691 1.490 . S
C2696 C2698 1.395 . S
C2696 C2699 1.403 . S
H2697 C2703 0.930 . S
C2698 H2684 0.930 . S
C2698 C2696 1.395 . S
C2698 C2701 1.403 . S
C2699 C2696 1.403 . S
C2699 C2700 1.524 . S
C2699 C2703 1.400 . S
C2700 H2685 0.960 . S
C2700 H2686 0.960 . S
C2700 H2687 0.960 . S
C2700 C2699 1.524 . S
C2701 C2698 1.403 . S
C2701 C2702 1.392 . S
C2701 C2705 1.495 . S
C2702 C2701 1.392 . S
C2702 C2703 1.385 . S
C2702 C2704 1.478 . S
C2703 H2697 0.930 . S
C2703 C2699 1.400 . S
C2703 C2702 1.385 . S
C2704 C2702 1.478 . S
C2704 C2706 1.381 . S
C2704 C2710 1.383 . S
C2705 C2701 1.495 . S
C2705 H2711 0.959 . S
C2705 H2712 0.961 . S
C2705 H2713 0.960 . S
C2706 C2704 1.381 . S
C2706 C2707 1.394 . S
C2706 H2714 0.930 . S
C2707 C2706 1.394 . S
C2707 C2708 1.383 . S
C2707 H2715 0.929 . S
C2708 C2707 1.383 . S
C2708 C2709 1.377 . S
C2709 H2693 0.930 . S
C2709 C2708 1.377 . S
C2709 C2710 1.379 . S
C2710 H2694 0.931 . S
C2710 C2704 1.383 . S
C2710 C2709 1.379 . S
H2711 C2705 0.959 . S
H2712 C2705 0.961 . S
H2713 C2705 0.960 . S
H2714 C2706 0.930 . S
H2715 C2707 0.929 . S
H2716 C2724 0.929 . S
H2717 C2726 0.930 . S
H2718 C2728 0.930 . S
H2719 C2731 0.929 . S
H2720 C2734 0.930 . S
H2721 C2736 0.960 . S
H2722 C2736 0.960 . S
H2723 C2736 0.960 . S
C2724 H2716 0.929 . S
C2724 C2725 1.377 . S
C2724 C2726 1.384 . S
C2725 C2724 1.377 . S
C2725 C2731 1.390 . S
C2726 H2717 0.930 . S
C2726 C2724 1.384 . S
C2726 C2727 1.372 . S
C2727 C2726 1.372 . S
C2727 C2728 1.400 . S
C2727 C2732 1.490 . S
C2728 H2718 0.930 . S
C2728 C2727 1.400 . S
C2728 C2731 1.386 . S
H2729 C2745 0.930 . S
H2730 C2746 0.931 . S
C2731 H2719 0.929 . S
C2731 C2725 1.390 . S
C2731 C2728 1.386 . S
C2732 C2727 1.490 . S
C2732 C2734 1.395 . S
C2732 C2735 1.403 . S
H2733 C2739 0.930 . S
C2734 H2720 0.930 . S
C2734 C2732 1.395 . S
C2734 C2737 1.403 . S
C2735 C2732 1.403 . S
C2735 C2736 1.524 . S
C2735 C2739 1.400 . S
C2736 H2721 0.960 . S
C2736 H2722 0.960 . S
C2736 H2723 0.960 . S
C2736 C2735 1.524 . S
C2737 C2734 1.403 . S
C2737 C2738 1.392 . S
C2737 C2741 1.495 . S
C2738 C2737 1.392 . S
C2738 C2739 1.385 . S
C2738 C2740 1.478 . S
C2739 H2733 0.930 . S
C2739 C2735 1.400 . S
C2739 C2738 1.385 . S
C2740 C2738 1.478 . S
C2740 C2742 1.381 . S
C2740 C2746 1.383 . S
C2741 C2737 1.495 . S
C2741 H2747 0.959 . S
C2741 H2748 0.961 . S
C2741 H2749 0.960 . S
C2742 C2740 1.381 . S
C2742 C2743 1.394 . S
C2742 H2750 0.930 . S
C2743 C2742 1.394 . S
C2743 C2744 1.383 . S
C2743 H2751 0.929 . S
C2744 C2743 1.383 . S
C2744 C2745 1.377 . S
C2745 H2729 0.930 . S
C2745 C2744 1.377 . S
C2745 C2746 1.379 . S
C2746 H2730 0.931 . S
C2746 C2740 1.383 . S
C2746 C2745 1.379 . S
H2747 C2741 0.959 . S
H2748 C2741 0.961 . S
H2749 C2741 0.960 . S
H2750 C2742 0.930 . S
H2751 C2743 0.929 . S
H2752 C2760 0.967 . S
H2753 C2762 0.930 . S
H2754 C2764 0.930 . S
H2755 C2767 0.929 . S
H2756 C2770 0.971 . S
H2757 C2772 0.960 . S
H2758 C2772 0.960 . S
H2759 C2772 0.960 . S
C2760 H2752 0.967 . S
C2760 C2761 1.377 . S
C2760 C2762 1.384 . S
C2761 C2760 1.377 . S
C2761 C2767 1.390 . S
C2762 H2753 0.930 . S
C2762 C2760 1.384 . S
C2762 C2763 1.372 . S
C2763 C2762 1.372 . S
C2763 C2764 1.400 . S
C2763 C2768 1.490 . S
C2764 H2754 0.930 . S
C2764 C2763 1.400 . S
C2764 C2767 1.386 . S
H2765 C2781 0.930 . S
H2766 C2782 0.967 . S
C2767 H2755 0.929 . S
C2767 C2761 1.390 . S
C2767 C2764 1.386 . S
C2768 C2763 1.490 . S
C2768 C2770 1.395 . S
C2768 C2771 1.403 . S
H2769 C2775 0.930 . S
C2770 H2756 0.971 . S
C2770 C2768 1.395 . S
C2770 C2773 1.403 . S
C2771 C2768 1.403 . S
C2771 C2772 1.524 . S
C2771 C2775 1.400 . S
C2772 H2757 0.960 . S
C2772 H2758 0.960 . S
C2772 H2759 0.960 . S
C2772 C2771 1.524 . S
C2773 C2770 1.403 . S
C2773 C2774 1.392 . S
C2773 C2777 1.495 1_455 S
C2774 C2773 1.392 . S
C2774 C2775 1.385 . S
C2774 C2776 1.478 . S
C2775 H2769 0.930 . S
C2775 C2771 1.400 . S
C2775 C2774 1.385 . S
C2776 C2774 1.478 . S
C2776 C2778 1.381 . S
C2776 C2782 1.342 1_556 S
C2777 C2773 1.495 1_655 S
C2777 H2783 0.959 . S
C2777 H2784 0.965 1_556 S
C2777 H2785 0.960 . S
C2778 C2776 1.381 . S
C2778 C2779 1.394 . S
C2778 H2786 0.930 . S
C2779 C2778 1.394 . S
C2779 C2780 1.383 . S
C2779 H2787 0.929 . S
C2780 C2779 1.383 . S
C2780 C2781 1.377 1_556 S
C2781 H2765 0.930 . S
C2781 C2780 1.377 1_554 S
C2781 C2782 1.389 . S
C2782 H2766 0.967 . S
C2782 C2776 1.342 1_554 S
C2782 C2781 1.389 . S
H2783 C2777 0.959 . S
H2784 C2777 0.965 1_554 S
H2785 C2777 0.960 . S
H2786 C2778 0.930 . S
H2787 C2779 0.929 . S
H2788 C2796 0.935 . S
H2789 C2798 0.930 . S
H2790 C2800 0.930 . S
H2791 C2803 0.929 . S
H2792 C2806 0.930 . S
H2793 C2808 0.960 . S
H2794 C2808 0.960 . S
H2795 C2808 0.960 . S
C2796 H2788 0.935 . S
C2796 C2797 1.377 1_655 S
C2796 C2798 1.384 . S
C2797 C2796 1.377 1_455 S
C2797 C2803 1.390 . S
C2798 H2789 0.930 . S
C2798 C2796 1.384 . S
C2798 C2799 1.372 . S
C2799 C2798 1.372 . S
C2799 C2800 1.400 . S
C2799 C2804 1.490 . S
C2800 H2790 0.930 . S
C2800 C2799 1.400 . S
C2800 C2803 1.386 1_655 S
H2801 C2817 0.930 . S
H2802 C2818 0.931 . S
C2803 H2791 0.929 . S
C2803 C2797 1.390 . S
C2803 C2800 1.386 1_455 S
C2804 C2799 1.490 . S
C2804 C2806 1.395 . S
C2804 C2807 1.403 . S
H2805 C2811 0.930 . S
C2806 H2792 0.930 . S
C2806 C2804 1.395 . S
C2806 C2809 1.403 . S
C2807 C2804 1.403 . S
C2807 C2808 1.524 . S
C2807 C2811 1.400 . S
C2808 H2793 0.960 . S
C2808 H2794 0.960 . S
C2808 H2795 0.960 . S
C2808 C2807 1.524 . S
C2809 C2806 1.403 . S
C2809 C2810 1.392 . S
C2809 C2813 1.495 . S
C2810 C2809 1.392 . S
C2810 C2811 1.385 . S
C2810 C2812 1.478 . S
C2811 H2805 0.930 . S
C2811 C2807 1.400 . S
C2811 C2810 1.385 . S
C2812 C2810 1.478 . S
C2812 C2814 1.381 . S
C2812 C2818 1.383 . S
C2813 C2809 1.495 . S
C2813 H2819 0.959 . S
C2813 H2820 0.961 . S
C2813 H2821 0.960 . S
C2814 C2812 1.381 . S
C2814 C2815 1.394 . S
C2814 H2822 0.930 . S
C2815 C2814 1.394 . S
C2815 C2816 1.383 . S
C2815 H2823 0.929 . S
C2816 C2815 1.383 . S
C2816 C2817 1.377 . S
C2817 H2801 0.930 . S
C2817 C2816 1.377 . S
C2817 C2818 1.379 . S
C2818 H2802 0.931 . S
C2818 C2812 1.383 . S
C2818 C2817 1.379 . S
H2819 C2813 0.959 . S
H2820 C2813 0.961 . S
H2821 C2813 0.960 . S
H2822 C2814 0.930 . S
H2823 C2815 0.929 . S
H2824 C2832 0.929 . S
H2825 C2834 0.930 . S
H2826 C2836 0.930 . S
H2827 C2839 0.929 . S
H2828 C2842 0.930 . S
H2829 C2844 0.960 . S
H2830 C2844 0.960 . S
H2831 C2844 0.960 . S
C2832 H2824 0.929 . S
C2832 C2833 1.377 . S
C2832 C2834 1.384 . S
C2833 C2832 1.377 . S
C2833 C2839 1.390 . S
C2834 H2825 0.930 . S
C2834 C2832 1.384 . S
C2834 C2835 1.372 . S
C2835 C2834 1.372 . S
C2835 C2836 1.400 . S
C2835 C2840 1.490 . S
C2836 H2826 0.930 . S
C2836 C2835 1.400 . S
C2836 C2839 1.386 . S
H2837 C2853 0.930 . S
H2838 C2854 0.931 . S
C2839 H2827 0.929 . S
C2839 C2833 1.390 . S
C2839 C2836 1.386 . S
C2840 C2835 1.490 . S
C2840 C2842 1.395 . S
C2840 C2843 1.403 . S
H2841 C2847 0.930 . S
C2842 H2828 0.930 . S
C2842 C2840 1.395 . S
C2842 C2845 1.403 . S
C2843 C2840 1.403 . S
C2843 C2844 1.524 . S
C2843 C2847 1.400 . S
C2844 H2829 0.960 . S
C2844 H2830 0.960 . S
C2844 H2831 0.960 . S
C2844 C2843 1.524 . S
C2845 C2842 1.403 . S
C2845 C2846 1.392 . S
C2845 C2849 1.495 . S
C2846 C2845 1.392 . S
C2846 C2847 1.385 . S
C2846 C2848 1.478 . S
C2847 H2841 0.930 . S
C2847 C2843 1.400 . S
C2847 C2846 1.385 . S
C2848 C2846 1.478 . S
C2848 C2850 1.381 . S
C2848 C2854 1.383 . S
C2849 C2845 1.495 . S
C2849 H2855 0.959 . S
C2849 H2856 0.961 . S
C2849 H2857 0.960 . S
C2850 C2848 1.381 . S
C2850 C2851 1.394 . S
C2850 H2858 0.930 . S
C2851 C2850 1.394 . S
C2851 C2852 1.383 . S
C2851 H2859 0.929 . S
C2852 C2851 1.383 . S
C2852 C2853 1.377 . S
C2853 H2837 0.930 . S
C2853 C2852 1.377 . S
C2853 C2854 1.379 . S
C2854 H2838 0.931 . S
C2854 C2848 1.383 . S
C2854 C2853 1.379 . S
H2855 C2849 0.959 . S
H2856 C2849 0.961 . S
H2857 C2849 0.960 . S
H2858 C2850 0.930 . S
H2859 C2851 0.929 . S
H2860 C2868 0.929 . S
H2861 C2870 0.930 . S
H2862 C2872 0.930 . S
H2863 C2875 0.929 . S
H2864 C2878 0.930 . S
H2865 C2880 0.960 . S
H2866 C2880 0.965 . S
H2867 C2880 0.960 1_455 S
C2868 H2860 0.929 . S
C2868 C2869 1.377 . S
C2868 C2870 1.384 . S
C2869 C2868 1.377 . S
C2869 C2875 1.390 . S
C2870 H2861 0.930 . S
C2870 C2868 1.384 . S
C2870 C2871 1.372 . S
C2871 C2870 1.372 . S
C2871 C2872 1.400 . S
C2871 C2876 1.490 1_455 S
C2872 H2862 0.930 . S
C2872 C2871 1.400 . S
C2872 C2875 1.386 . S
H2873 C2889 0.930 . S
H2874 C2890 0.931 . S
C2875 H2863 0.929 . S
C2875 C2869 1.390 . S
C2875 C2872 1.386 . S
C2876 C2871 1.490 1_655 S
C2876 C2878 1.395 . S
C2876 C2879 1.403 . S
H2877 C2883 0.930 . S
C2878 H2864 0.930 . S
C2878 C2876 1.395 . S
C2878 C2881 1.403 . S
C2879 C2876 1.403 . S
C2879 C2880 1.524 . S
C2879 C2883 1.400 . S
C2880 H2865 0.960 . S
C2880 H2866 0.965 . S
C2880 H2867 0.960 1_655 S
C2880 C2879 1.524 . S
C2881 C2878 1.403 . S
C2881 C2882 1.392 . S
C2881 C2885 1.495 . S
C2882 C2881 1.392 . S
C2882 C2883 1.385 . S
C2882 C2884 1.478 . S
C2883 H2877 0.930 . S
C2883 C2879 1.400 . S
C2883 C2882 1.385 . S
C2884 C2882 1.478 . S
C2884 C2886 1.381 . S
C2884 C2890 1.383 . S
C2885 C2881 1.495 . S
C2885 H2891 0.959 . S
C2885 H2892 0.961 . S
C2885 H2893 0.960 . S
C2886 C2884 1.381 . S
C2886 C2887 1.394 . S
C2886 H2894 0.930 . S
C2887 C2886 1.394 . S
C2887 C2888 1.383 . S
C2887 H2895 0.929 . S
C2888 C2887 1.383 . S
C2888 C2889 1.377 . S
C2889 H2873 0.930 . S
C2889 C2888 1.377 . S
C2889 C2890 1.379 . S
C2890 H2874 0.931 . S
C2890 C2884 1.383 . S
C2890 C2889 1.379 . S
H2891 C2885 0.959 . S
H2892 C2885 0.961 . S
H2893 C2885 0.960 . S
H2894 C2886 0.930 . S
H2895 C2887 0.929 . S
H2896 C2904 0.929 . S
H2897 C2906 0.930 . S
H2898 C2908 0.930 . S
H2899 C2911 0.929 . S
H2900 C2914 0.930 . S
H2901 C2916 0.960 . S
H2902 C2916 0.960 . S
H2903 C2916 0.960 . S
C2904 H2896 0.929 . S
C2904 C2905 1.377 1_455 S
C2904 C2906 1.384 . S
C2905 C2904 1.377 1_655 S
C2905 C2911 1.390 . S
C2906 H2897 0.930 . S
C2906 C2904 1.384 . S
C2906 C2907 1.372 . S
C2907 C2906 1.372 . S
C2907 C2908 1.400 1_455 S
C2907 C2912 1.490 . S
C2908 H2898 0.930 . S
C2908 C2907 1.400 1_655 S
C2908 C2911 1.386 . S
H2909 C2925 0.930 . S
H2910 C2926 0.931 . S
C2911 H2899 0.929 . S
C2911 C2905 1.390 . S
C2911 C2908 1.386 . S
C2912 C2907 1.490 . S
C2912 C2914 1.395 . S
C2912 C2915 1.403 1_455 S
H2913 C2919 0.930 1_655 S
C2914 H2900 0.930 . S
C2914 C2912 1.395 . S
C2914 C2917 1.403 . S
C2915 C2912 1.403 1_655 S
C2915 C2916 1.524 . S
C2915 C2919 1.400 1_655 S
C2916 H2901 0.960 . S
C2916 H2902 0.960 . S
C2916 H2903 0.960 . S
C2916 C2915 1.524 . S
C2917 C2914 1.403 . S
C2917 C2918 1.392 . S
C2917 C2921 1.495 . S
C2918 C2917 1.392 . S
C2918 C2919 1.385 . S
C2918 C2920 1.478 . S
C2919 H2913 0.930 1_455 S
C2919 C2915 1.400 1_455 S
C2919 C2918 1.385 . S
C2920 C2918 1.478 . S
C2920 C2922 1.381 . S
C2920 C2926 1.383 . S
C2921 C2917 1.495 . S
C2921 H2927 0.959 . S
C2921 H2928 0.961 . S
C2921 H2929 0.960 . S
C2922 C2920 1.381 . S
C2922 C2923 1.394 . S
C2922 H2930 0.930 . S
C2923 C2922 1.394 . S
C2923 C2924 1.383 . S
C2923 H2931 0.929 . S
C2924 C2923 1.383 . S
C2924 C2925 1.377 . S
C2925 H2909 0.930 . S
C2925 C2924 1.377 . S
C2925 C2926 1.379 . S
C2926 H2910 0.931 . S
C2926 C2920 1.383 . S
C2926 C2925 1.379 . S
H2927 C2921 0.959 . S
H2928 C2921 0.961 . S
H2929 C2921 0.960 . S
H2930 C2922 0.930 . S
H2931 C2923 0.929 . S
H2932 C2940 0.929 . S
H2933 C2942 0.930 . S
H2934 C2944 0.930 . S
H2935 C2947 0.929 . S
H2936 C2950 0.930 . S
H2937 C2952 0.960 . S
H2938 C2952 0.960 . S
H2939 C2952 0.960 . S
C2940 H2932 0.929 . S
C2940 C2941 1.377 . S
C2940 C2942 1.384 . S
C2941 C2940 1.377 . S
C2941 C2947 1.390 . S
C2942 H2933 0.930 . S
C2942 C2940 1.384 . S
C2942 C2943 1.372 . S
C2943 C2942 1.372 . S
C2943 C2944 1.400 . S
C2943 C2948 1.490 . S
C2944 H2934 0.930 . S
C2944 C2943 1.400 . S
C2944 C2947 1.386 . S
H2945 C2961 0.930 . S
H2946 C2962 0.931 . S
C2947 H2935 0.929 . S
C2947 C2941 1.390 . S
C2947 C2944 1.386 . S
C2948 C2943 1.490 . S
C2948 C2950 1.395 . S
C2948 C2951 1.403 . S
H2949 C2955 0.930 . S
C2950 H2936 0.930 . S
C2950 C2948 1.395 . S
C2950 C2953 1.403 . S
C2951 C2948 1.403 . S
C2951 C2952 1.524 . S
C2951 C2955 1.400 . S
C2952 H2937 0.960 . S
C2952 H2938 0.960 . S
C2952 H2939 0.960 . S
C2952 C2951 1.524 . S
C2953 C2950 1.403 . S
C2953 C2954 1.392 . S
C2953 C2957 1.495 . S
C2954 C2953 1.392 . S
C2954 C2955 1.385 . S
C2954 C2956 1.478 . S
C2955 H2949 0.930 . S
C2955 C2951 1.400 . S
C2955 C2954 1.385 . S
C2956 C2954 1.478 . S
C2956 C2958 1.381 . S
C2956 C2962 1.383 . S
C2957 C2953 1.495 . S
C2957 H2963 0.959 . S
C2957 H2964 0.961 . S
C2957 H2965 0.960 . S
C2958 C2956 1.381 . S
C2958 C2959 1.394 . S
C2958 H2966 0.930 . S
C2959 C2958 1.394 . S
C2959 C2960 1.383 . S
C2959 H2967 0.929 . S
C2960 C2959 1.383 . S
C2960 C2961 1.377 . S
C2961 H2945 0.930 . S
C2961 C2960 1.377 . S
C2961 C2962 1.379 . S
C2962 H2946 0.931 . S
C2962 C2956 1.383 . S
C2962 C2961 1.379 . S
H2963 C2957 0.959 . S
H2964 C2957 0.961 . S
H2965 C2957 0.960 . S
H2966 C2958 0.930 . S
H2967 C2959 0.929 . S
H2968 C2976 0.929 . S
H2969 C2978 0.930 . S
H2970 C2980 0.930 . S
H2971 C2983 0.929 . S
H2972 C2986 0.930 . S
H2973 C2988 0.960 . S
H2974 C2988 0.960 . S
H2975 C2988 0.960 . S
C2976 H2968 0.929 . S
C2976 C2977 1.377 . S
C2976 C2978 1.384 . S
C2977 C2976 1.377 . S
C2977 C2983 1.390 . S
C2978 H2969 0.930 . S
C2978 C2976 1.384 . S
C2978 C2979 1.372 . S
C2979 C2978 1.372 . S
C2979 C2980 1.400 . S
C2979 C2984 1.490 . S
C2980 H2970 0.930 . S
C2980 C2979 1.400 . S
C2980 C2983 1.386 . S
H2981 C2997 0.930 . S
H2982 C2998 0.931 . S
C2983 H2971 0.929 . S
C2983 C2977 1.390 . S
C2983 C2980 1.386 . S
C2984 C2979 1.490 . S
C2984 C2986 1.395 . S
C2984 C2987 1.403 . S
H2985 C2991 0.930 . S
C2986 H2972 0.930 . S
C2986 C2984 1.395 . S
C2986 C2989 1.403 . S
C2987 C2984 1.403 . S
C2987 C2988 1.524 . S
C2987 C2991 1.400 . S
C2988 H2973 0.960 . S
C2988 H2974 0.960 . S
C2988 H2975 0.960 . S
C2988 C2987 1.524 . S
C2989 C2986 1.403 . S
C2989 C2990 1.392 . S
C2989 C2993 1.495 . S
C2990 C2989 1.392 . S
C2990 C2991 1.385 . S
C2990 C2992 1.478 . S
C2991 H2985 0.930 . S
C2991 C2987 1.400 . S
C2991 C2990 1.385 . S
C2992 C2990 1.478 . S
C2992 C2994 1.381 . S
C2992 C2998 1.383 . S
C2993 C2989 1.495 . S
C2993 H2999 0.959 . S
C2993 H3000 0.961 . S
C2993 H3001 0.960 . S
C2994 C2992 1.381 . S
C2994 C2995 1.394 . S
C2994 H3002 0.930 . S
C2995 C2994 1.394 . S
C2995 C2996 1.383 . S
C2995 H3003 0.929 . S
C2996 C2995 1.383 . S
C2996 C2997 1.377 . S
C2997 H2981 0.930 . S
C2997 C2996 1.377 . S
C2997 C2998 1.379 . S
C2998 H2982 0.931 . S
C2998 C2992 1.383 . S
C2998 C2997 1.379 . S
H2999 C2993 0.959 . S
H3000 C2993 0.961 . S
H3001 C2993 0.960 . S
H3002 C2994 0.930 . S
H3003 C2995 0.929 . S
H3004 C3012 0.929 . S
H3005 C3014 0.930 . S
H3006 C3016 0.930 . S
H3007 C3019 0.929 . S
H3008 C3022 0.930 . S
H3009 C3024 0.960 . S
H3010 C3024 0.960 . S
H3011 C3024 0.960 . S
C3012 H3004 0.929 . S
C3012 C3013 1.377 . S
C3012 C3014 1.384 . S
C3013 C3012 1.377 . S
C3013 C3019 1.390 . S
C3014 H3005 0.930 . S
C3014 C3012 1.384 . S
C3014 C3015 1.372 . S
C3015 C3014 1.372 . S
C3015 C3016 1.400 . S
C3015 C3020 1.490 . S
C3016 H3006 0.930 . S
C3016 C3015 1.400 . S
C3016 C3019 1.386 . S
H3017 C3033 0.930 . S
H3018 C3034 0.931 . S
C3019 H3007 0.929 . S
C3019 C3013 1.390 . S
C3019 C3016 1.386 . S
C3020 C3015 1.490 . S
C3020 C3022 1.395 . S
C3020 C3023 1.403 . S
H3021 C3027 0.930 . S
C3022 H3008 0.930 . S
C3022 C3020 1.395 . S
C3022 C3025 1.403 . S
C3023 C3020 1.403 . S
C3023 C3024 1.524 . S
C3023 C3027 1.400 . S
C3024 H3009 0.960 . S
C3024 H3010 0.960 . S
C3024 H3011 0.960 . S
C3024 C3023 1.524 . S
C3025 C3022 1.403 . S
C3025 C3026 1.392 . S
C3025 C3029 1.495 . S
C3026 C3025 1.392 . S
C3026 C3027 1.385 . S
C3026 C3028 1.478 . S
C3027 H3021 0.930 . S
C3027 C3023 1.400 . S
C3027 C3026 1.385 . S
C3028 C3026 1.478 . S
C3028 C3030 1.381 . S
C3028 C3034 1.383 . S
C3029 C3025 1.495 . S
C3029 H3035 0.959 . S
C3029 H3036 0.961 . S
C3029 H3037 0.960 . S
C3030 C3028 1.381 . S
C3030 C3031 1.394 . S
C3030 H3038 0.930 . S
C3031 C3030 1.394 . S
C3031 C3032 1.383 . S
C3031 H3039 0.929 . S
C3032 C3031 1.383 . S
C3032 C3033 1.377 . S
C3033 H3017 0.930 . S
C3033 C3032 1.377 . S
C3033 C3034 1.379 . S
C3034 H3018 0.931 . S
C3034 C3028 1.383 . S
C3034 C3033 1.379 . S
H3035 C3029 0.959 . S
H3036 C3029 0.961 . S
H3037 C3029 0.960 . S
H3038 C3030 0.930 . S
H3039 C3031 0.929 . S
H3040 C3048 0.929 . S
H3041 C3050 0.930 . S
H3042 C3052 0.930 . S
H3043 C3055 0.929 . S
H3044 C3058 0.930 . S
H3045 C3060 0.960 . S
H3046 C3060 0.960 . S
H3047 C3060 0.960 . S
C3048 H3040 0.929 . S
C3048 C3049 1.377 . S
C3048 C3050 1.384 . S
C3049 C3048 1.377 . S
C3049 C3055 1.390 . S
C3050 H3041 0.930 . S
C3050 C3048 1.384 . S
C3050 C3051 1.372 . S
C3051 C3050 1.372 . S
C3051 C3052 1.400 . S
C3051 C3056 1.490 . S
C3052 H3042 0.930 . S
C3052 C3051 1.400 . S
C3052 C3055 1.386 . S
H3053 C3069 0.930 . S
H3054 C3070 0.931 . S
C3055 H3043 0.929 . S
C3055 C3049 1.390 . S
C3055 C3052 1.386 . S
C3056 C3051 1.490 . S
C3056 C3058 1.395 . S
C3056 C3059 1.403 . S
H3057 C3063 0.930 . S
C3058 H3044 0.930 . S
C3058 C3056 1.395 . S
C3058 C3061 1.403 . S
C3059 C3056 1.403 . S
C3059 C3060 1.524 . S
C3059 C3063 1.400 . S
C3060 H3045 0.960 . S
C3060 H3046 0.960 . S
C3060 H3047 0.960 . S
C3060 C3059 1.524 . S
C3061 C3058 1.403 . S
C3061 C3062 1.392 . S
C3061 C3065 1.495 . S
C3062 C3061 1.392 . S
C3062 C3063 1.385 . S
C3062 C3064 1.478 . S
C3063 H3057 0.930 . S
C3063 C3059 1.400 . S
C3063 C3062 1.385 . S
C3064 C3062 1.478 . S
C3064 C3066 1.381 . S
C3064 C3070 1.383 . S
C3065 C3061 1.495 . S
C3065 H3071 0.959 . S
C3065 H3072 0.961 . S
C3065 H3073 0.960 . S
C3066 C3064 1.381 . S
C3066 C3067 1.394 . S
C3066 H3074 0.930 . S
C3067 C3066 1.394 . S
C3067 C3068 1.383 . S
C3067 H3075 0.929 . S
C3068 C3067 1.383 . S
C3068 C3069 1.377 . S
C3069 H3053 0.930 . S
C3069 C3068 1.377 . S
C3069 C3070 1.379 . S
C3070 H3054 0.931 . S
C3070 C3064 1.383 . S
C3070 C3069 1.379 . S
H3071 C3065 0.959 . S
H3072 C3065 0.961 . S
H3073 C3065 0.960 . S
H3074 C3066 0.930 . S
H3075 C3067 0.929 . S
H3076 C3084 0.929 . S
H3077 C3086 0.930 . S
H3078 C3088 0.930 . S
H3079 C3091 0.929 . S
H3080 C3094 0.930 . S
H3081 C3096 0.960 . S
H3082 C3096 0.960 . S
H3083 C3096 0.960 . S
C3084 H3076 0.929 . S
C3084 C3085 1.377 . S
C3084 C3086 1.384 . S
C3085 C3084 1.377 . S
C3085 C3091 1.390 . S
C3086 H3077 0.930 . S
C3086 C3084 1.384 . S
C3086 C3087 1.372 . S
C3087 C3086 1.372 . S
C3087 C3088 1.400 . S
C3087 C3092 1.490 . S
C3088 H3078 0.930 . S
C3088 C3087 1.400 . S
C3088 C3091 1.386 . S
H3089 C3105 0.930 . S
H3090 C3106 0.931 . S
C3091 H3079 0.929 . S
C3091 C3085 1.390 . S
C3091 C3088 1.386 . S
C3092 C3087 1.490 . S
C3092 C3094 1.395 . S
C3092 C3095 1.403 . S
H3093 C3099 0.930 . S
C3094 H3080 0.930 . S
C3094 C3092 1.395 . S
C3094 C3097 1.403 . S
C3095 C3092 1.403 . S
C3095 C3096 1.524 . S
C3095 C3099 1.400 . S
C3096 H3081 0.960 . S
C3096 H3082 0.960 . S
C3096 H3083 0.960 . S
C3096 C3095 1.524 . S
C3097 C3094 1.403 . S
C3097 C3098 1.392 . S
C3097 C3101 1.495 . S
C3098 C3097 1.392 . S
C3098 C3099 1.385 . S
C3098 C3100 1.478 . S
C3099 H3093 0.930 . S
C3099 C3095 1.400 . S
C3099 C3098 1.385 . S
C3100 C3098 1.478 . S
C3100 C3102 1.381 . S
C3100 C3106 1.383 . S
C3101 C3097 1.495 . S
C3101 H3107 0.959 . S
C3101 H3108 0.961 . S
C3101 H3109 0.960 . S
C3102 C3100 1.381 . S
C3102 C3103 1.394 . S
C3102 H3110 0.930 . S
C3103 C3102 1.394 . S
C3103 C3104 1.383 . S
C3103 H3111 0.929 . S
C3104 C3103 1.383 . S
C3104 C3105 1.377 . S
C3105 H3089 0.930 . S
C3105 C3104 1.377 . S
C3105 C3106 1.379 . S
C3106 H3090 0.931 . S
C3106 C3100 1.383 . S
C3106 C3105 1.379 . S
H3107 C3101 0.959 . S
H3108 C3101 0.961 . S
H3109 C3101 0.960 . S
H3110 C3102 0.930 . S
H3111 C3103 0.929 . S
H3112 C3120 0.929 . S
H3113 C3122 0.930 . S
H3114 C3124 0.930 . S
H3115 C3127 0.929 . S
H3116 C3130 0.930 . S
H3117 C3132 0.960 . S
H3118 C3132 0.960 . S
H3119 C3132 0.960 . S
C3120 H3112 0.929 . S
C3120 C3121 1.377 . S
C3120 C3122 1.384 . S
C3121 C3120 1.377 . S
C3121 C3127 1.390 . S
C3122 H3113 0.930 . S
C3122 C3120 1.384 . S
C3122 C3123 1.372 . S
C3123 C3122 1.372 . S
C3123 C3124 1.400 . S
C3123 C3128 1.490 . S
C3124 H3114 0.930 . S
C3124 C3123 1.400 . S
C3124 C3127 1.386 . S
H3125 C3141 0.930 . S
H3126 C3142 0.931 . S
C3127 H3115 0.929 . S
C3127 C3121 1.390 . S
C3127 C3124 1.386 . S
C3128 C3123 1.490 . S
C3128 C3130 1.395 . S
C3128 C3131 1.403 . S
H3129 C3135 0.930 . S
C3130 H3116 0.930 . S
C3130 C3128 1.395 . S
C3130 C3133 1.403 . S
C3131 C3128 1.403 . S
C3131 C3132 1.524 . S
C3131 C3135 1.400 . S
C3132 H3117 0.960 . S
C3132 H3118 0.960 . S
C3132 H3119 0.960 . S
C3132 C3131 1.524 . S
C3133 C3130 1.403 . S
C3133 C3134 1.392 . S
C3133 C3137 1.495 . S
C3134 C3133 1.392 . S
C3134 C3135 1.385 . S
C3134 C3136 1.478 . S
C3135 H3129 0.930 . S
C3135 C3131 1.400 . S
C3135 C3134 1.385 . S
C3136 C3134 1.478 . S
C3136 C3138 1.381 . S
C3136 C3142 1.383 . S
C3137 C3133 1.495 . S
C3137 H3143 0.959 . S
C3137 H3144 0.961 . S
C3137 H3145 0.960 . S
C3138 C3136 1.381 . S
C3138 C3139 1.394 . S
C3138 H3146 0.930 . S
C3139 C3138 1.394 . S
C3139 C3140 1.383 . S
C3139 H3147 0.929 . S
C3140 C3139 1.383 . S
C3140 C3141 1.377 . S
C3141 H3125 0.930 . S
C3141 C3140 1.377 . S
C3141 C3142 1.379 . S
C3142 H3126 0.931 . S
C3142 C3136 1.383 . S
C3142 C3141 1.379 . S
H3143 C3137 0.959 . S
H3144 C3137 0.961 . S
H3145 C3137 0.960 . S
H3146 C3138 0.930 . S
H3147 C3139 0.929 . S
H3148 C3156 0.929 . S
H3149 C3158 0.930 . S
H3150 C3160 0.930 . S
H3151 C3163 0.929 . S
H3152 C3166 0.930 . S
H3153 C3168 0.960 . S
H3154 C3168 0.960 . S
H3155 C3168 0.960 . S
C3156 H3148 0.929 . S
C3156 C3157 1.377 . S
C3156 C3158 1.384 . S
C3157 C3156 1.377 . S
C3157 C3163 1.390 . S
C3158 H3149 0.930 . S
C3158 C3156 1.384 . S
C3158 C3159 1.372 . S
C3159 C3158 1.372 . S
C3159 C3160 1.400 . S
C3159 C3164 1.490 . S
C3160 H3150 0.930 . S
C3160 C3159 1.400 . S
C3160 C3163 1.386 . S
H3161 C3177 0.930 . S
H3162 C3178 0.931 . S
C3163 H3151 0.929 . S
C3163 C3157 1.390 . S
C3163 C3160 1.386 . S
C3164 C3159 1.490 . S
C3164 C3166 1.395 . S
C3164 C3167 1.403 . S
H3165 C3171 0.930 . S
C3166 H3152 0.930 . S
C3166 C3164 1.395 . S
C3166 C3169 1.403 . S
C3167 C3164 1.403 . S
C3167 C3168 1.524 . S
C3167 C3171 1.400 . S
C3168 H3153 0.960 . S
C3168 H3154 0.960 . S
C3168 H3155 0.960 . S
C3168 C3167 1.524 . S
C3169 C3166 1.403 . S
C3169 C3170 1.392 . S
C3169 C3173 1.495 . S
C3170 C3169 1.392 . S
C3170 C3171 1.385 . S
C3170 C3172 1.478 . S
C3171 H3165 0.930 . S
C3171 C3167 1.400 . S
C3171 C3170 1.385 . S
C3172 C3170 1.478 . S
C3172 C3174 1.381 . S
C3172 C3178 1.383 . S
C3173 C3169 1.495 . S
C3173 H3179 0.959 . S
C3173 H3180 0.961 . S
C3173 H3181 0.960 . S
C3174 C3172 1.381 . S
C3174 C3175 1.394 . S
C3174 H3182 0.930 . S
C3175 C3174 1.394 . S
C3175 C3176 1.383 . S
C3175 H3183 0.929 . S
C3176 C3175 1.383 . S
C3176 C3177 1.377 . S
C3177 H3161 0.930 . S
C3177 C3176 1.377 . S
C3177 C3178 1.379 . S
C3178 H3162 0.931 . S
C3178 C3172 1.383 . S
C3178 C3177 1.379 . S
H3179 C3173 0.959 . S
H3180 C3173 0.961 . S
H3181 C3173 0.960 . S
H3182 C3174 0.930 . S
H3183 C3175 0.929 . S
H3184 C3192 0.929 . S
H3185 C3194 0.930 . S
H3186 C3196 0.930 . S
H3187 C3199 0.929 . S
H3188 C3202 0.930 . S
H3189 C3204 0.960 . S
H3190 C3204 0.960 . S
H3191 C3204 0.960 . S
C3192 H3184 0.929 . S
C3192 C3193 1.377 . S
C3192 C3194 1.384 . S
C3193 C3192 1.377 . S
C3193 C3199 1.390 . S
C3194 H3185 0.930 . S
C3194 C3192 1.384 . S
C3194 C3195 1.372 . S
C3195 C3194 1.372 . S
C3195 C3196 1.400 . S
C3195 C3200 1.490 . S
C3196 H3186 0.930 . S
C3196 C3195 1.400 . S
C3196 C3199 1.386 . S
H3197 C3213 0.930 . S
H3198 C3214 0.931 . S
C3199 H3187 0.929 . S
C3199 C3193 1.390 . S
C3199 C3196 1.386 . S
C3200 C3195 1.490 . S
C3200 C3202 1.395 . S
C3200 C3203 1.403 . S
H3201 C3207 0.930 . S
C3202 H3188 0.930 . S
C3202 C3200 1.395 . S
C3202 C3205 1.403 . S
C3203 C3200 1.403 . S
C3203 C3204 1.524 . S
C3203 C3207 1.400 . S
C3204 H3189 0.960 . S
C3204 H3190 0.960 . S
C3204 H3191 0.960 . S
C3204 C3203 1.524 . S
C3205 C3202 1.403 . S
C3205 C3206 1.392 . S
C3205 C3209 1.495 . S
C3206 C3205 1.392 . S
C3206 C3207 1.385 . S
C3206 C3208 1.478 . S
C3207 H3201 0.930 . S
C3207 C3203 1.400 . S
C3207 C3206 1.385 . S
C3208 C3206 1.478 . S
C3208 C3210 1.381 . S
C3208 C3214 1.383 . S
C3209 C3205 1.495 . S
C3209 H3215 0.959 . S
C3209 H3216 0.961 . S
C3209 H3217 0.960 . S
C3210 C3208 1.381 . S
C3210 C3211 1.394 . S
C3210 H3218 0.930 . S
C3211 C3210 1.394 . S
C3211 C3212 1.383 . S
C3211 H3219 0.929 . S
C3212 C3211 1.383 . S
C3212 C3213 1.377 . S
C3213 H3197 0.930 . S
C3213 C3212 1.377 . S
C3213 C3214 1.379 . S
C3214 H3198 0.931 . S
C3214 C3208 1.383 . S
C3214 C3213 1.379 . S
H3215 C3209 0.959 . S
H3216 C3209 0.961 . S
H3217 C3209 0.960 . S
H3218 C3210 0.930 . S
H3219 C3211 0.929 . S
H3220 C3228 0.929 . S
H3221 C3230 0.930 . S
H3222 C3232 0.930 . S
H3223 C3235 0.929 . S
H3224 C3238 0.930 . S
H3225 C3240 0.960 . S
H3226 C3240 0.960 . S
H3227 C3240 0.960 . S
C3228 H3220 0.929 . S
C3228 C3229 1.377 . S
C3228 C3230 1.384 . S
C3229 C3228 1.377 . S
C3229 C3235 1.390 . S
C3230 H3221 0.930 . S
C3230 C3228 1.384 . S
C3230 C3231 1.372 . S
C3231 C3230 1.372 . S
C3231 C3232 1.400 . S
C3231 C3236 1.490 . S
C3232 H3222 0.930 . S
C3232 C3231 1.400 . S
C3232 C3235 1.386 . S
H3233 C3249 0.930 . S
H3234 C3250 0.931 . S
C3235 H3223 0.929 . S
C3235 C3229 1.390 . S
C3235 C3232 1.386 . S
C3236 C3231 1.490 . S
C3236 C3238 1.395 . S
C3236 C3239 1.403 . S
H3237 C3243 0.930 . S
C3238 H3224 0.930 . S
C3238 C3236 1.395 . S
C3238 C3241 1.403 . S
C3239 C3236 1.403 . S
C3239 C3240 1.524 . S
C3239 C3243 1.400 . S
C3240 H3225 0.960 . S
C3240 H3226 0.960 . S
C3240 H3227 0.960 . S
C3240 C3239 1.524 . S
C3241 C3238 1.403 . S
C3241 C3242 1.392 . S
C3241 C3245 1.495 . S
C3242 C3241 1.392 . S
C3242 C3243 1.385 . S
C3242 C3244 1.478 . S
C3243 H3237 0.930 . S
C3243 C3239 1.400 . S
C3243 C3242 1.385 . S
C3244 C3242 1.478 . S
C3244 C3246 1.381 . S
C3244 C3250 1.383 . S
C3245 C3241 1.495 . S
C3245 H3251 0.959 . S
C3245 H3252 0.961 . S
C3245 H3253 0.960 . S
C3246 C3244 1.381 . S
C3246 C3247 1.394 . S
C3246 H3254 0.930 . S
C3247 C3246 1.394 . S
C3247 C3248 1.383 . S
C3247 H3255 0.929 . S
C3248 C3247 1.383 . S
C3248 C3249 1.377 . S
C3249 H3233 0.930 . S
C3249 C3248 1.377 . S
C3249 C3250 1.379 . S
C3250 H3234 0.931 . S
C3250 C3244 1.383 . S
C3250 C3249 1.379 . S
H3251 C3245 0.959 . S
H3252 C3245 0.961 . S
H3253 C3245 0.960 . S
H3254 C3246 0.930 . S
H3255 C3247 0.929 . S
H3256 C3264 0.929 . S
H3257 C3266 0.930 . S
H3258 C3268 0.930 . S
H3259 C3271 0.929 . S
H3260 C3274 0.930 . S
H3261 C3276 0.960 . S
H3262 C3276 0.960 . S
H3263 C3276 0.960 . S
C3264 H3256 0.929 . S
C3264 C3265 1.377 . S
C3264 C3266 1.384 . S
C3265 C3264 1.377 . S
C3265 C3271 1.390 . S
C3266 H3257 0.930 . S
C3266 C3264 1.384 . S
C3266 C3267 1.372 . S
C3267 C3266 1.372 . S
C3267 C3268 1.400 . S
C3267 C3272 1.490 . S
C3268 H3258 0.930 . S
C3268 C3267 1.400 . S
C3268 C3271 1.386 . S
H3269 C3285 0.930 . S
H3270 C3286 0.931 . S
C3271 H3259 0.929 . S
C3271 C3265 1.390 . S
C3271 C3268 1.386 . S
C3272 C3267 1.490 . S
C3272 C3274 1.395 . S
C3272 C3275 1.403 . S
H3273 C3279 0.930 . S
C3274 H3260 0.930 . S
C3274 C3272 1.395 . S
C3274 C3277 1.403 . S
C3275 C3272 1.403 . S
C3275 C3276 1.524 . S
C3275 C3279 1.400 . S
C3276 H3261 0.960 . S
C3276 H3262 0.960 . S
C3276 H3263 0.960 . S
C3276 C3275 1.524 . S
C3277 C3274 1.403 . S
C3277 C3278 1.392 . S
C3277 C3281 1.495 . S
C3278 C3277 1.392 . S
C3278 C3279 1.385 . S
C3278 C3280 1.478 . S
C3279 H3273 0.930 . S
C3279 C3275 1.400 . S
C3279 C3278 1.385 . S
C3280 C3278 1.478 . S
C3280 C3282 1.381 . S
C3280 C3286 1.383 . S
C3281 C3277 1.495 . S
C3281 H3287 0.959 . S
C3281 H3288 0.961 . S
C3281 H3289 0.960 . S
C3282 C3280 1.381 . S
C3282 C3283 1.394 . S
C3282 H3290 0.930 . S
C3283 C3282 1.394 . S
C3283 C3284 1.383 . S
C3283 H3291 0.929 . S
C3284 C3283 1.383 . S
C3284 C3285 1.377 . S
C3285 H3269 0.930 . S
C3285 C3284 1.377 . S
C3285 C3286 1.379 . S
C3286 H3270 0.931 . S
C3286 C3280 1.383 . S
C3286 C3285 1.379 . S
H3287 C3281 0.959 . S
H3288 C3281 0.961 . S
H3289 C3281 0.960 . S
H3290 C3282 0.930 . S
H3291 C3283 0.929 . S
H3292 C3300 0.929 . S
H3293 C3302 0.930 . S
H3294 C3304 0.930 . S
H3295 C3307 0.929 . S
H3296 C3310 0.930 . S
H3297 C3312 0.960 . S
H3298 C3312 0.960 . S
H3299 C3312 0.960 . S
C3300 H3292 0.929 . S
C3300 C3301 1.377 . S
C3300 C3302 1.384 . S
C3301 C3300 1.377 . S
C3301 C3307 1.390 . S
C3302 H3293 0.930 . S
C3302 C3300 1.384 . S
C3302 C3303 1.372 . S
C3303 C3302 1.372 . S
C3303 C3304 1.400 . S
C3303 C3308 1.490 . S
C3304 H3294 0.930 . S
C3304 C3303 1.400 . S
C3304 C3307 1.386 . S
H3305 C3321 0.930 . S
H3306 C3322 0.931 . S
C3307 H3295 0.929 . S
C3307 C3301 1.390 . S
C3307 C3304 1.386 . S
C3308 C3303 1.490 . S
C3308 C3310 1.395 . S
C3308 C3311 1.403 . S
H3309 C3315 0.930 . S
C3310 H3296 0.930 . S
C3310 C3308 1.395 . S
C3310 C3313 1.403 . S
C3311 C3308 1.403 . S
C3311 C3312 1.524 . S
C3311 C3315 1.400 . S
C3312 H3297 0.960 . S
C3312 H3298 0.960 . S
C3312 H3299 0.960 . S
C3312 C3311 1.524 . S
C3313 C3310 1.403 . S
C3313 C3314 1.392 . S
C3313 C3317 1.495 . S
C3314 C3313 1.392 . S
C3314 C3315 1.385 . S
C3314 C3316 1.478 . S
C3315 H3309 0.930 . S
C3315 C3311 1.400 . S
C3315 C3314 1.385 . S
C3316 C3314 1.478 . S
C3316 C3318 1.381 . S
C3316 C3322 1.383 . S
C3317 C3313 1.495 . S
C3317 H3323 0.959 . S
C3317 H3324 0.961 . S
C3317 H3325 0.960 . S
C3318 C3316 1.381 . S
C3318 C3319 1.394 . S
C3318 H3326 0.930 . S
C3319 C3318 1.394 . S
C3319 C3320 1.383 . S
C3319 H3327 0.929 . S
C3320 C3319 1.383 . S
C3320 C3321 1.377 . S
C3321 H3305 0.930 . S
C3321 C3320 1.377 . S
C3321 C3322 1.379 . S
C3322 H3306 0.931 . S
C3322 C3316 1.383 . S
C3322 C3321 1.379 . S
H3323 C3317 0.959 . S
H3324 C3317 0.961 . S
H3325 C3317 0.960 . S
H3326 C3318 0.930 . S
H3327 C3319 0.929 . S
H3328 C3336 0.929 . S
H3329 C3338 0.930 . S
H3330 C3340 0.930 . S
H3331 C3343 0.929 . S
H3332 C3346 0.930 . S
H3333 C3348 0.960 . S
H3334 C3348 0.960 . S
H3335 C3348 0.960 . S
C3336 H3328 0.929 . S
C3336 C3337 1.377 . S
C3336 C3338 1.384 . S
C3337 C3336 1.377 . S
C3337 C3343 1.390 . S
C3338 H3329 0.930 . S
C3338 C3336 1.384 . S
C3338 C3339 1.372 . S
C3339 C3338 1.372 . S
C3339 C3340 1.400 . S
C3339 C3344 1.490 . S
C3340 H3330 0.930 . S
C3340 C3339 1.400 . S
C3340 C3343 1.386 . S
H3341 C3357 0.930 . S
H3342 C3358 0.931 . S
C3343 H3331 0.929 . S
C3343 C3337 1.390 . S
C3343 C3340 1.386 . S
C3344 C3339 1.490 . S
C3344 C3346 1.395 . S
C3344 C3347 1.403 . S
H3345 C3351 0.930 . S
C3346 H3332 0.930 . S
C3346 C3344 1.395 . S
C3346 C3349 1.403 . S
C3347 C3344 1.403 . S
C3347 C3348 1.524 . S
C3347 C3351 1.400 . S
C3348 H3333 0.960 . S
C3348 H3334 0.960 . S
C3348 H3335 0.960 . S
C3348 C3347 1.524 . S
C3349 C3346 1.403 . S
C3349 C3350 1.392 . S
C3349 C3353 1.495 . S
C3350 C3349 1.392 . S
C3350 C3351 1.385 . S
C3350 C3352 1.478 . S
C3351 H3345 0.930 . S
C3351 C3347 1.400 . S
C3351 C3350 1.385 . S
C3352 C3350 1.478 . S
C3352 C3354 1.381 . S
C3352 C3358 1.383 . S
C3353 C3349 1.495 . S
C3353 H3359 0.959 . S
C3353 H3360 0.961 . S
C3353 H3361 0.960 . S
C3354 C3352 1.381 . S
C3354 C3355 1.394 . S
C3354 H3362 0.930 . S
C3355 C3354 1.394 . S
C3355 C3356 1.383 . S
C3355 H3363 0.929 . S
C3356 C3355 1.383 . S
C3356 C3357 1.377 . S
C3357 H3341 0.930 . S
C3357 C3356 1.377 . S
C3357 C3358 1.379 . S
C3358 H3342 0.931 . S
C3358 C3352 1.383 . S
C3358 C3357 1.379 . S
H3359 C3353 0.959 . S
H3360 C3353 0.961 . S
H3361 C3353 0.960 . S
H3362 C3354 0.930 . S
H3363 C3355 0.929 . S
H3364 C3372 0.929 . S
H3365 C3374 0.930 . S
H3366 C3376 0.930 . S
H3367 C3379 0.929 . S
H3368 C3382 0.930 . S
H3369 C3384 0.960 . S
H3370 C3384 0.981 . S
H3371 C3384 0.960 . S
C3372 H3364 0.929 . S
C3372 C3373 1.377 . S
C3372 C3374 1.384 . S
C3373 C3372 1.377 . S
C3373 C3379 1.390 . S
C3374 H3365 0.930 . S
C3374 C3372 1.384 . S
C3374 C3375 1.372 . S
C3375 C3374 1.372 . S
C3375 C3376 1.400 . S
C3375 C3380 1.490 . S
C3376 H3366 0.930 . S
C3376 C3375 1.400 . S
C3376 C3379 1.386 . S
H3377 C3393 0.930 1_556 S
H3378 C3394 0.931 1_556 S
C3379 H3367 0.929 . S
C3379 C3373 1.390 . S
C3379 C3376 1.386 . S
C3380 C3375 1.490 . S
C3380 C3382 1.395 . S
C3380 C3383 1.403 . S
H3381 C3387 0.930 1_545 S
C3382 H3368 0.930 . S
C3382 C3380 1.395 . S
C3382 C3385 1.403 . S
C3383 C3380 1.403 . S
C3383 C3384 1.524 1_565 S
C3383 C3387 1.400 . S
C3384 H3369 0.960 . S
C3384 H3370 0.981 . S
C3384 H3371 0.960 . S
C3384 C3383 1.524 1_545 S
C3385 C3382 1.403 . S
C3385 C3386 1.392 . S
C3385 C3389 1.495 1_554 S
C3386 C3385 1.392 . S
C3386 C3387 1.385 . S
C3386 C3388 1.478 . S
C3387 H3381 0.930 1_565 S
C3387 C3383 1.400 . S
C3387 C3386 1.385 . S
C3388 C3386 1.478 . S
C3388 C3390 1.381 . S
C3388 C3394 1.383 1_565 S
C3389 C3385 1.495 1_556 S
C3389 H3395 0.959 . S
C3389 H3396 0.961 . S
C3389 H3397 0.960 1_556 S
C3390 C3388 1.381 . S
C3390 C3391 1.394 . S
C3390 H3398 0.930 . S
C3391 C3390 1.394 . S
C3391 C3392 1.383 1_565 S
C3391 H3399 0.929 . S
C3392 C3391 1.383 1_545 S
C3392 C3393 1.377 . S
C3393 H3377 0.930 1_554 S
C3393 C3392 1.377 . S
C3393 C3394 1.379 . S
C3394 H3378 0.931 1_554 S
C3394 C3388 1.383 1_545 S
C3394 C3393 1.379 . S
H3395 C3389 0.959 . S
H3396 C3389 0.961 . S
H3397 C3389 0.960 1_554 S
H3398 C3390 0.930 . S
H3399 C3391 0.929 . S
H3400 C3408 0.929 . S
H3401 C3410 0.930 . S
H3402 C3412 0.930 . S
H3403 C3415 0.929 . S
H3404 C3418 0.930 . S
H3405 C3420 0.960 . S
H3406 C3420 0.960 . S
H3407 C3420 0.960 . S
C3408 H3400 0.929 . S
C3408 C3409 1.377 . S
C3408 C3410 1.384 . S
C3409 C3408 1.377 . S
C3409 C3415 1.390 . S
C3410 H3401 0.930 . S
C3410 C3408 1.384 . S
C3410 C3411 1.372 . S
C3411 C3410 1.372 . S
C3411 C3412 1.400 . S
C3411 C3416 1.490 . S
C3412 H3402 0.930 . S
C3412 C3411 1.400 . S
C3412 C3415 1.386 . S
H3413 C3429 0.930 . S
H3414 C3430 0.931 . S
C3415 H3403 0.929 . S
C3415 C3409 1.390 . S
C3415 C3412 1.386 . S
C3416 C3411 1.490 . S
C3416 C3418 1.395 . S
C3416 C3419 1.403 . S
H3417 C3423 0.930 . S
C3418 H3404 0.930 . S
C3418 C3416 1.395 . S
C3418 C3421 1.403 . S
C3419 C3416 1.403 . S
C3419 C3420 1.524 . S
C3419 C3423 1.400 . S
C3420 H3405 0.960 . S
C3420 H3406 0.960 . S
C3420 H3407 0.960 . S
C3420 C3419 1.524 . S
C3421 C3418 1.403 . S
C3421 C3422 1.392 . S
C3421 C3425 1.495 . S
C3422 C3421 1.392 . S
C3422 C3423 1.385 . S
C3422 C3424 1.478 . S
C3423 H3417 0.930 . S
C3423 C3419 1.400 . S
C3423 C3422 1.385 . S
C3424 C3422 1.478 . S
C3424 C3426 1.381 . S
C3424 C3430 1.383 . S
C3425 C3421 1.495 . S
C3425 H3431 0.959 . S
C3425 H3432 0.961 . S
C3425 H3433 0.960 . S
C3426 C3424 1.381 . S
C3426 C3427 1.394 . S
C3426 H3434 0.930 . S
C3427 C3426 1.394 . S
C3427 C3428 1.383 . S
C3427 H3435 0.929 . S
C3428 C3427 1.383 . S
C3428 C3429 1.377 . S
C3429 H3413 0.930 . S
C3429 C3428 1.377 . S
C3429 C3430 1.379 . S
C3430 H3414 0.931 . S
C3430 C3424 1.383 . S
C3430 C3429 1.379 . S
H3431 C3425 0.959 . S
H3432 C3425 0.961 . S
H3433 C3425 0.960 . S
H3434 C3426 0.930 . S
H3435 C3427 0.929 . S
H3436 C3444 0.940 . S
H3437 C3446 0.930 1_556 S
H3438 C3448 0.930 . S
H3439 C3451 0.929 . S
H3440 C3454 0.961 . S
H3441 C3456 0.960 . S
H3442 C3456 0.960 . S
H3443 C3456 0.960 . S
C3444 H3436 0.940 . S
C3444 C3445 1.373 1_556 S
C3444 C3446 1.379 1_556 S
C3445 C3444 1.373 1_554 S
C3445 C3451 1.390 . S
C3446 H3437 0.930 1_554 S
C3446 C3444 1.379 1_554 S
C3446 C3447 1.372 . S
C3447 C3446 1.372 . S
C3447 C3448 1.400 . S
C3447 C3452 1.490 . S
C3448 H3438 0.930 . S
C3448 C3447 1.400 . S
C3448 C3451 1.386 . S
H3449 C3465 0.930 . S
H3450 C3466 0.931 . S
C3451 H3439 0.929 . S
C3451 C3445 1.390 . S
C3451 C3448 1.386 . S
C3452 C3447 1.490 . S
C3452 C3454 1.367 1_554 S
C3452 C3455 1.403 . S
H3453 C3459 0.930 . S
C3454 H3440 0.961 . S
C3454 C3452 1.367 1_556 S
C3454 C3457 1.401 1_556 S
C3455 C3452 1.403 . S
C3455 C3456 1.524 . S
C3455 C3459 1.400 . S
C3456 H3441 0.960 . S
C3456 H3442 0.960 . S
C3456 H3443 0.960 . S
C3456 C3455 1.524 . S
C3457 C3454 1.401 1_554 S
C3457 C3458 1.392 . S
C3457 C3461 1.495 1_554 S
C3458 C3457 1.392 . S
C3458 C3459 1.385 . S
C3458 C3460 1.478 . S
C3459 H3453 0.930 . S
C3459 C3455 1.400 . S
C3459 C3458 1.385 . S
C3460 C3458 1.478 . S
C3460 C3462 1.381 . S
C3460 C3466 1.383 . S
C3461 C3457 1.495 1_556 S
C3461 H3467 0.959 . S
C3461 H3468 0.961 . S
C3461 H3469 0.960 . S
C3462 C3460 1.381 . S
C3462 C3463 1.394 . S
C3462 H3470 0.930 . S
C3463 C3462 1.394 . S
C3463 C3464 1.383 . S
C3463 H3471 0.929 . S
C3464 C3463 1.383 . S
C3464 C3465 1.377 . S
C3465 H3449 0.930 . S
C3465 C3464 1.377 . S
C3465 C3466 1.379 . S
C3466 H3450 0.931 . S
C3466 C3460 1.383 . S
C3466 C3465 1.379 . S
H3467 C3461 0.959 . S
H3468 C3461 0.961 . S
H3469 C3461 0.960 . S
H3470 C3462 0.930 . S
H3471 C3463 0.929 . S
H3472 C3480 0.929 . S
H3473 C3482 0.930 . S
H3474 C3484 0.930 . S
H3475 C3487 0.929 . S
H3476 C3490 0.930 . S
H3477 C3492 0.960 . S
H3478 C3492 0.960 . S
H3479 C3492 0.960 . S
C3480 H3472 0.929 . S
C3480 C3481 1.377 . S
C3480 C3482 1.384 . S
C3481 C3480 1.377 . S
C3481 C3487 1.390 . S
C3482 H3473 0.930 . S
C3482 C3480 1.384 . S
C3482 C3483 1.372 . S
C3483 C3482 1.372 . S
C3483 C3484 1.400 . S
C3483 C3488 1.490 . S
C3484 H3474 0.930 . S
C3484 C3483 1.400 . S
C3484 C3487 1.386 . S
H3485 C3501 0.930 . S
H3486 C3502 0.931 . S
C3487 H3475 0.929 . S
C3487 C3481 1.390 . S
C3487 C3484 1.386 . S
C3488 C3483 1.490 . S
C3488 C3490 1.395 . S
C3488 C3491 1.403 . S
H3489 C3495 0.930 . S
C3490 H3476 0.930 . S
C3490 C3488 1.395 . S
C3490 C3493 1.403 . S
C3491 C3488 1.403 . S
C3491 C3492 1.524 . S
C3491 C3495 1.400 . S
C3492 H3477 0.960 . S
C3492 H3478 0.960 . S
C3492 H3479 0.960 . S
C3492 C3491 1.524 . S
C3493 C3490 1.403 . S
C3493 C3494 1.392 . S
C3493 C3497 1.495 . S
C3494 C3493 1.392 . S
C3494 C3495 1.385 . S
C3494 C3496 1.478 . S
C3495 H3489 0.930 . S
C3495 C3491 1.400 . S
C3495 C3494 1.385 . S
C3496 C3494 1.478 . S
C3496 C3498 1.381 . S
C3496 C3502 1.383 . S
C3497 C3493 1.495 . S
C3497 H3503 0.959 . S
C3497 H3504 0.961 . S
C3497 H3505 0.960 . S
C3498 C3496 1.381 . S
C3498 C3499 1.394 . S
C3498 H3506 0.930 . S
C3499 C3498 1.394 . S
C3499 C3500 1.383 . S
C3499 H3507 0.929 . S
C3500 C3499 1.383 . S
C3500 C3501 1.377 . S
C3501 H3485 0.930 . S
C3501 C3500 1.377 . S
C3501 C3502 1.379 . S
C3502 H3486 0.931 . S
C3502 C3496 1.383 . S
C3502 C3501 1.379 . S
H3503 C3497 0.959 . S
H3504 C3497 0.961 . S
H3505 C3497 0.960 . S
H3506 C3498 0.930 . S
H3507 C3499 0.929 . S
H3508 C3516 0.929 . S
H3509 C3518 0.930 . S
H3510 C3520 0.930 . S
H3511 C3523 0.929 . S
H3512 C3526 0.930 . S
H3513 C3528 0.960 . S
H3514 C3528 0.960 . S
H3515 C3528 0.960 . S
C3516 H3508 0.929 . S
C3516 C3517 1.377 . S
C3516 C3518 1.384 . S
C3517 C3516 1.377 . S
C3517 C3523 1.390 . S
C3518 H3509 0.930 . S
C3518 C3516 1.384 . S
C3518 C3519 1.372 . S
C3519 C3518 1.372 . S
C3519 C3520 1.400 . S
C3519 C3524 1.490 . S
C3520 H3510 0.930 . S
C3520 C3519 1.400 . S
C3520 C3523 1.386 . S
H3521 C3537 0.930 . S
H3522 C3538 0.931 . S
C3523 H3511 0.929 . S
C3523 C3517 1.390 . S
C3523 C3520 1.386 . S
C3524 C3519 1.490 . S
C3524 C3526 1.395 . S
C3524 C3527 1.403 . S
H3525 C3531 0.930 . S
C3526 H3512 0.930 . S
C3526 C3524 1.395 . S
C3526 C3529 1.403 . S
C3527 C3524 1.403 . S
C3527 C3528 1.524 . S
C3527 C3531 1.400 . S
C3528 H3513 0.960 . S
C3528 H3514 0.960 . S
C3528 H3515 0.960 . S
C3528 C3527 1.524 . S
C3529 C3526 1.403 . S
C3529 C3530 1.392 . S
C3529 C3533 1.495 . S
C3530 C3529 1.392 . S
C3530 C3531 1.385 . S
C3530 C3532 1.478 . S
C3531 H3525 0.930 . S
C3531 C3527 1.400 . S
C3531 C3530 1.385 . S
C3532 C3530 1.478 . S
C3532 C3534 1.381 . S
C3532 C3538 1.383 . S
C3533 C3529 1.495 . S
C3533 H3539 0.959 . S
C3533 H3540 0.961 . S
C3533 H3541 0.960 . S
C3534 C3532 1.381 . S
C3534 C3535 1.394 . S
C3534 H3542 0.930 . S
C3535 C3534 1.394 . S
C3535 C3536 1.383 . S
C3535 H3543 0.929 . S
C3536 C3535 1.383 . S
C3536 C3537 1.377 . S
C3537 H3521 0.930 . S
C3537 C3536 1.377 . S
C3537 C3538 1.379 . S
C3538 H3522 0.931 . S
C3538 C3532 1.383 . S
C3538 C3537 1.379 . S
H3539 C3533 0.959 . S
H3540 C3533 0.961 . S
H3541 C3533 0.960 . S
H3542 C3534 0.930 . S
H3543 C3535 0.929 . S
H3544 C3552 0.929 . S
H3545 C3554 0.930 . S
H3546 C3556 0.930 . S
H3547 C3559 0.929 . S
H3548 C3562 0.930 . S
H3549 C3564 0.960 . S
H3550 C3564 0.960 . S
H3551 C3564 0.960 . S
C3552 H3544 0.929 . S
C3552 C3553 1.377 . S
C3552 C3554 1.384 . S
C3553 C3552 1.377 . S
C3553 C3559 1.390 . S
C3554 H3545 0.930 . S
C3554 C3552 1.384 . S
C3554 C3555 1.372 . S
C3555 C3554 1.372 . S
C3555 C3556 1.400 . S
C3555 C3560 1.490 . S
C3556 H3546 0.930 . S
C3556 C3555 1.400 . S
C3556 C3559 1.386 . S
H3557 C3573 0.930 . S
H3558 C3574 0.931 . S
C3559 H3547 0.929 . S
C3559 C3553 1.390 . S
C3559 C3556 1.386 . S
C3560 C3555 1.490 . S
C3560 C3562 1.395 . S
C3560 C3563 1.403 . S
H3561 C3567 0.930 . S
C3562 H3548 0.930 . S
C3562 C3560 1.395 . S
C3562 C3565 1.403 . S
C3563 C3560 1.403 . S
C3563 C3564 1.524 . S
C3563 C3567 1.400 . S
C3564 H3549 0.960 . S
C3564 H3550 0.960 . S
C3564 H3551 0.960 . S
C3564 C3563 1.524 . S
C3565 C3562 1.403 . S
C3565 C3566 1.392 . S
C3565 C3569 1.495 . S
C3566 C3565 1.392 . S
C3566 C3567 1.385 . S
C3566 C3568 1.478 . S
C3567 H3561 0.930 . S
C3567 C3563 1.400 . S
C3567 C3566 1.385 . S
C3568 C3566 1.478 . S
C3568 C3570 1.381 . S
C3568 C3574 1.383 . S
C3569 C3565 1.495 . S
C3569 H3575 0.959 . S
C3569 H3576 0.961 . S
C3569 H3577 0.960 . S
C3570 C3568 1.381 . S
C3570 C3571 1.394 . S
C3570 H3578 0.930 . S
C3571 C3570 1.394 . S
C3571 C3572 1.383 . S
C3571 H3579 0.929 . S
C3572 C3571 1.383 . S
C3572 C3573 1.377 . S
C3573 H3557 0.930 . S
C3573 C3572 1.377 . S
C3573 C3574 1.379 . S
C3574 H3558 0.931 . S
C3574 C3568 1.383 . S
C3574 C3573 1.379 . S
H3575 C3569 0.959 . S
H3576 C3569 0.961 . S
H3577 C3569 0.960 . S
H3578 C3570 0.930 . S
H3579 C3571 0.929 . S
H3580 C3588 0.929 . S
H3581 C3590 0.930 . S
H3582 C3592 0.930 . S
H3583 C3595 0.929 . S
H3584 C3598 0.930 . S
H3585 C3600 0.960 . S
H3586 C3600 0.960 . S
H3587 C3600 0.960 . S
C3588 H3580 0.929 . S
C3588 C3589 1.377 . S
C3588 C3590 1.384 . S
C3589 C3588 1.377 . S
C3589 C3595 1.390 . S
C3590 H3581 0.930 . S
C3590 C3588 1.384 . S
C3590 C3591 1.372 . S
C3591 C3590 1.372 . S
C3591 C3592 1.400 . S
C3591 C3596 1.490 . S
C3592 H3582 0.930 . S
C3592 C3591 1.400 . S
C3592 C3595 1.386 . S
H3593 C3609 0.930 . S
H3594 C3610 0.931 . S
C3595 H3583 0.929 . S
C3595 C3589 1.390 . S
C3595 C3592 1.386 . S
C3596 C3591 1.490 . S
C3596 C3598 1.395 . S
C3596 C3599 1.403 . S
H3597 C3603 0.930 . S
C3598 H3584 0.930 . S
C3598 C3596 1.395 . S
C3598 C3601 1.403 . S
C3599 C3596 1.403 . S
C3599 C3600 1.524 . S
C3599 C3603 1.400 . S
C3600 H3585 0.960 . S
C3600 H3586 0.960 . S
C3600 H3587 0.960 . S
C3600 C3599 1.524 . S
C3601 C3598 1.403 . S
C3601 C3602 1.392 . S
C3601 C3605 1.495 . S
C3602 C3601 1.392 . S
C3602 C3603 1.385 . S
C3602 C3604 1.478 . S
C3603 H3597 0.930 . S
C3603 C3599 1.400 . S
C3603 C3602 1.385 . S
C3604 C3602 1.478 . S
C3604 C3606 1.381 . S
C3604 C3610 1.383 . S
C3605 C3601 1.495 . S
C3605 H3611 0.959 . S
C3605 H3612 0.961 . S
C3605 H3613 0.960 . S
C3606 C3604 1.381 . S
C3606 C3607 1.394 . S
C3606 H3614 0.930 . S
C3607 C3606 1.394 . S
C3607 C3608 1.383 . S
C3607 H3615 0.929 . S
C3608 C3607 1.383 . S
C3608 C3609 1.377 . S
C3609 H3593 0.930 . S
C3609 C3608 1.377 . S
C3609 C3610 1.379 . S
C3610 H3594 0.931 . S
C3610 C3604 1.383 . S
C3610 C3609 1.379 . S
H3611 C3605 0.959 . S
H3612 C3605 0.961 . S
H3613 C3605 0.960 . S
H3614 C3606 0.930 . S
H3615 C3607 0.929 . S
H3616 C3624 0.929 . S
H3617 C3626 0.930 . S
H3618 C3628 0.930 . S
H3619 C3631 0.929 . S
H3620 C3634 0.930 . S
H3621 C3636 0.960 . S
H3622 C3636 0.960 . S
H3623 C3636 0.960 . S
C3624 H3616 0.929 . S
C3624 C3625 1.377 . S
C3624 C3626 1.384 . S
C3625 C3624 1.377 . S
C3625 C3631 1.390 . S
C3626 H3617 0.930 . S
C3626 C3624 1.384 . S
C3626 C3627 1.372 . S
C3627 C3626 1.372 . S
C3627 C3628 1.400 . S
C3627 C3632 1.490 . S
C3628 H3618 0.930 . S
C3628 C3627 1.400 . S
C3628 C3631 1.386 . S
H3629 C3645 0.930 . S
H3630 C3646 0.931 . S
C3631 H3619 0.929 . S
C3631 C3625 1.390 . S
C3631 C3628 1.386 . S
C3632 C3627 1.490 . S
C3632 C3634 1.395 . S
C3632 C3635 1.403 . S
H3633 C3639 0.930 . S
C3634 H3620 0.930 . S
C3634 C3632 1.395 . S
C3634 C3637 1.403 . S
C3635 C3632 1.403 . S
C3635 C3636 1.524 . S
C3635 C3639 1.400 . S
C3636 H3621 0.960 . S
C3636 H3622 0.960 . S
C3636 H3623 0.960 . S
C3636 C3635 1.524 . S
C3637 C3634 1.403 . S
C3637 C3638 1.392 . S
C3637 C3641 1.495 . S
C3638 C3637 1.392 . S
C3638 C3639 1.385 . S
C3638 C3640 1.478 . S
C3639 H3633 0.930 . S
C3639 C3635 1.400 . S
C3639 C3638 1.385 . S
C3640 C3638 1.478 . S
C3640 C3642 1.381 . S
C3640 C3646 1.383 . S
C3641 C3637 1.495 . S
C3641 H3647 0.959 . S
C3641 H3648 0.961 . S
C3641 H3649 0.960 . S
C3642 C3640 1.381 . S
C3642 C3643 1.394 . S
C3642 H3650 0.930 . S
C3643 C3642 1.394 . S
C3643 C3644 1.383 . S
C3643 H3651 0.929 . S
C3644 C3643 1.383 . S
C3644 C3645 1.377 . S
C3645 H3629 0.930 . S
C3645 C3644 1.377 . S
C3645 C3646 1.379 . S
C3646 H3630 0.931 . S
C3646 C3640 1.383 . S
C3646 C3645 1.379 . S
H3647 C3641 0.959 . S
H3648 C3641 0.961 . S
H3649 C3641 0.960 . S
H3650 C3642 0.930 . S
H3651 C3643 0.929 . S
H3652 C3660 0.929 . S
H3653 C3662 0.930 . S
H3654 C3664 0.930 . S
H3655 C3667 0.929 . S
H3656 C3670 0.930 . S
H3657 C3672 0.960 . S
H3658 C3672 0.960 . S
H3659 C3672 0.960 . S
C3660 H3652 0.929 . S
C3660 C3661 1.377 . S
C3660 C3662 1.384 . S
C3661 C3660 1.377 . S
C3661 C3667 1.390 . S
C3662 H3653 0.930 . S
C3662 C3660 1.384 . S
C3662 C3663 1.372 . S
C3663 C3662 1.372 . S
C3663 C3664 1.400 . S
C3663 C3668 1.490 . S
C3664 H3654 0.930 . S
C3664 C3663 1.400 . S
C3664 C3667 1.386 . S
H3665 C3681 0.930 . S
H3666 C3682 0.931 . S
C3667 H3655 0.929 . S
C3667 C3661 1.390 . S
C3667 C3664 1.386 . S
C3668 C3663 1.490 . S
C3668 C3670 1.395 . S
C3668 C3671 1.403 . S
H3669 C3675 0.930 . S
C3670 H3656 0.930 . S
C3670 C3668 1.395 . S
C3670 C3673 1.403 . S
C3671 C3668 1.403 . S
C3671 C3672 1.524 . S
C3671 C3675 1.400 . S
C3672 H3657 0.960 . S
C3672 H3658 0.960 . S
C3672 H3659 0.960 . S
C3672 C3671 1.524 . S
C3673 C3670 1.403 . S
C3673 C3674 1.392 . S
C3673 C3677 1.495 . S
C3674 C3673 1.392 . S
C3674 C3675 1.385 . S
C3674 C3676 1.478 . S
C3675 H3669 0.930 . S
C3675 C3671 1.400 . S
C3675 C3674 1.385 . S
C3676 C3674 1.478 . S
C3676 C3678 1.381 . S
C3676 C3682 1.383 . S
C3677 C3673 1.495 . S
C3677 H3683 0.959 . S
C3677 H3684 0.961 . S
C3677 H3685 0.960 . S
C3678 C3676 1.381 . S
C3678 C3679 1.394 . S
C3678 H3686 0.930 . S
C3679 C3678 1.394 . S
C3679 C3680 1.383 . S
C3679 H3687 0.929 . S
C3680 C3679 1.383 . S
C3680 C3681 1.377 . S
C3681 H3665 0.930 . S
C3681 C3680 1.377 . S
C3681 C3682 1.379 . S
C3682 H3666 0.931 . S
C3682 C3676 1.383 . S
C3682 C3681 1.379 . S
H3683 C3677 0.959 . S
H3684 C3677 0.961 . S
H3685 C3677 0.960 . S
H3686 C3678 0.930 . S
H3687 C3679 0.929 . S
H3688 C3696 0.929 . S
H3689 C3698 0.930 . S
H3690 C3700 0.930 . S
H3691 C3703 0.929 . S
H3692 C3706 0.930 . S
H3693 C3708 0.960 . S
H3694 C3708 0.960 . S
H3695 C3708 0.960 . S
C3696 H3688 0.929 . S
C3696 C3697 1.377 . S
C3696 C3698 1.384 . S
C3697 C3696 1.377 . S
C3697 C3703 1.390 . S
C3698 H3689 0.930 . S
C3698 C3696 1.384 . S
C3698 C3699 1.372 . S
C3699 C3698 1.372 . S
C3699 C3700 1.400 . S
C3699 C3704 1.490 . S
C3700 H3690 0.930 . S
C3700 C3699 1.400 . S
C3700 C3703 1.386 . S
H3701 C3717 0.930 . S
H3702 C3718 0.931 . S
C3703 H3691 0.929 . S
C3703 C3697 1.390 . S
C3703 C3700 1.386 . S
C3704 C3699 1.490 . S
C3704 C3706 1.395 . S
C3704 C3707 1.403 . S
H3705 C3711 0.930 . S
C3706 H3692 0.930 . S
C3706 C3704 1.395 . S
C3706 C3709 1.403 . S
C3707 C3704 1.403 . S
C3707 C3708 1.524 . S
C3707 C3711 1.400 . S
C3708 H3693 0.960 . S
C3708 H3694 0.960 . S
C3708 H3695 0.960 . S
C3708 C3707 1.524 . S
C3709 C3706 1.403 . S
C3709 C3710 1.392 . S
C3709 C3713 1.495 . S
C3710 C3709 1.392 . S
C3710 C3711 1.385 . S
C3710 C3712 1.478 . S
C3711 H3705 0.930 . S
C3711 C3707 1.400 . S
C3711 C3710 1.385 . S
C3712 C3710 1.478 . S
C3712 C3714 1.381 . S
C3712 C3718 1.383 . S
C3713 C3709 1.495 . S
C3713 H3719 0.959 . S
C3713 H3720 0.961 . S
C3713 H3721 0.960 . S
C3714 C3712 1.381 . S
C3714 C3715 1.394 . S
C3714 H3722 0.930 . S
C3715 C3714 1.394 . S
C3715 C3716 1.383 . S
C3715 H3723 0.929 . S
C3716 C3715 1.383 . S
C3716 C3717 1.377 . S
C3717 H3701 0.930 . S
C3717 C3716 1.377 . S
C3717 C3718 1.379 . S
C3718 H3702 0.931 . S
C3718 C3712 1.383 . S
C3718 C3717 1.379 . S
H3719 C3713 0.959 . S
H3720 C3713 0.961 . S
H3721 C3713 0.960 . S
H3722 C3714 0.930 . S
H3723 C3715 0.929 . S
H3724 C3732 0.929 . S
H3725 C3734 0.930 . S
H3726 C3736 0.930 . S
H3727 C3739 0.929 . S
H3728 C3742 0.930 . S
H3729 C3744 0.960 . S
H3730 C3744 0.960 . S
H3731 C3744 0.960 . S
C3732 H3724 0.929 . S
C3732 C3733 1.377 . S
C3732 C3734 1.384 . S
C3733 C3732 1.377 . S
C3733 C3739 1.390 . S
C3734 H3725 0.930 . S
C3734 C3732 1.384 . S
C3734 C3735 1.372 . S
C3735 C3734 1.372 . S
C3735 C3736 1.400 . S
C3735 C3740 1.490 . S
C3736 H3726 0.930 . S
C3736 C3735 1.400 . S
C3736 C3739 1.386 . S
H3737 C3753 0.930 . S
H3738 C3754 0.931 . S
C3739 H3727 0.929 . S
C3739 C3733 1.390 . S
C3739 C3736 1.386 . S
C3740 C3735 1.490 . S
C3740 C3742 1.395 . S
C3740 C3743 1.403 . S
H3741 C3747 0.930 . S
C3742 H3728 0.930 . S
C3742 C3740 1.395 . S
C3742 C3745 1.403 . S
C3743 C3740 1.403 . S
C3743 C3744 1.524 . S
C3743 C3747 1.400 . S
C3744 H3729 0.960 . S
C3744 H3730 0.960 . S
C3744 H3731 0.960 . S
C3744 C3743 1.524 . S
C3745 C3742 1.403 . S
C3745 C3746 1.392 . S
C3745 C3749 1.495 . S
C3746 C3745 1.392 . S
C3746 C3747 1.385 . S
C3746 C3748 1.478 . S
C3747 H3741 0.930 . S
C3747 C3743 1.400 . S
C3747 C3746 1.385 . S
C3748 C3746 1.478 . S
C3748 C3750 1.381 . S
C3748 C3754 1.383 . S
C3749 C3745 1.495 . S
C3749 H3755 0.959 . S
C3749 H3756 0.961 . S
C3749 H3757 0.960 . S
C3750 C3748 1.381 . S
C3750 C3751 1.394 . S
C3750 H3758 0.930 . S
C3751 C3750 1.394 . S
C3751 C3752 1.383 . S
C3751 H3759 0.929 . S
C3752 C3751 1.383 . S
C3752 C3753 1.377 . S
C3753 H3737 0.930 . S
C3753 C3752 1.377 . S
C3753 C3754 1.379 . S
C3754 H3738 0.931 . S
C3754 C3748 1.383 . S
C3754 C3753 1.379 . S
H3755 C3749 0.959 . S
H3756 C3749 0.961 . S
H3757 C3749 0.960 . S
H3758 C3750 0.930 . S
H3759 C3751 0.929 . S
H3760 C3768 0.929 . S
H3761 C3770 0.930 . S
H3762 C3772 0.930 . S
H3763 C3775 0.929 . S
H3764 C3778 0.930 . S
H3765 C3780 0.960 . S
H3766 C3780 0.960 . S
H3767 C3780 0.960 . S
C3768 H3760 0.929 . S
C3768 C3769 1.377 . S
C3768 C3770 1.384 . S
C3769 C3768 1.377 . S
C3769 C3775 1.390 . S
C3770 H3761 0.930 . S
C3770 C3768 1.384 . S
C3770 C3771 1.372 . S
C3771 C3770 1.372 . S
C3771 C3772 1.400 . S
C3771 C3776 1.490 . S
C3772 H3762 0.930 . S
C3772 C3771 1.400 . S
C3772 C3775 1.386 . S
H3773 C3789 0.930 . S
H3774 C3790 0.931 . S
C3775 H3763 0.929 . S
C3775 C3769 1.390 . S
C3775 C3772 1.386 . S
C3776 C3771 1.490 . S
C3776 C3778 1.395 . S
C3776 C3779 1.403 . S
H3777 C3783 0.930 . S
C3778 H3764 0.930 . S
C3778 C3776 1.395 . S
C3778 C3781 1.403 . S
C3779 C3776 1.403 . S
C3779 C3780 1.524 . S
C3779 C3783 1.400 . S
C3780 H3765 0.960 . S
C3780 H3766 0.960 . S
C3780 H3767 0.960 . S
C3780 C3779 1.524 . S
C3781 C3778 1.403 . S
C3781 C3782 1.392 . S
C3781 C3785 1.495 . S
C3782 C3781 1.392 . S
C3782 C3783 1.385 . S
C3782 C3784 1.478 . S
C3783 H3777 0.930 . S
C3783 C3779 1.400 . S
C3783 C3782 1.385 . S
C3784 C3782 1.478 . S
C3784 C3786 1.381 . S
C3784 C3790 1.383 . S
C3785 C3781 1.495 . S
C3785 H3791 0.959 . S
C3785 H3792 0.961 . S
C3785 H3793 0.960 . S
C3786 C3784 1.381 . S
C3786 C3787 1.394 . S
C3786 H3794 0.930 . S
C3787 C3786 1.394 . S
C3787 C3788 1.383 . S
C3787 H3795 0.929 . S
C3788 C3787 1.383 . S
C3788 C3789 1.377 . S
C3789 H3773 0.930 . S
C3789 C3788 1.377 . S
C3789 C3790 1.379 . S
C3790 H3774 0.931 . S
C3790 C3784 1.383 . S
C3790 C3789 1.379 . S
H3791 C3785 0.959 . S
H3792 C3785 0.961 . S
H3793 C3785 0.960 . S
H3794 C3786 0.930 . S
H3795 C3787 0.929 . S
H3796 C3804 0.929 . S
H3797 C3806 0.930 . S
H3798 C3808 0.930 . S
H3799 C3811 0.929 . S
H3800 C3814 0.930 . S
H3801 C3816 0.960 . S
H3802 C3816 0.960 . S
H3803 C3816 0.960 . S
C3804 H3796 0.929 . S
C3804 C3805 1.377 . S
C3804 C3806 1.384 . S
C3805 C3804 1.377 . S
C3805 C3811 1.390 . S
C3806 H3797 0.930 . S
C3806 C3804 1.384 . S
C3806 C3807 1.372 . S
C3807 C3806 1.372 . S
C3807 C3808 1.400 . S
C3807 C3812 1.490 . S
C3808 H3798 0.930 . S
C3808 C3807 1.400 . S
C3808 C3811 1.386 . S
H3809 C3825 0.930 . S
H3810 C3826 0.931 . S
C3811 H3799 0.929 . S
C3811 C3805 1.390 . S
C3811 C3808 1.386 . S
C3812 C3807 1.490 . S
C3812 C3814 1.395 . S
C3812 C3815 1.403 . S
H3813 C3819 0.930 . S
C3814 H3800 0.930 . S
C3814 C3812 1.395 . S
C3814 C3817 1.403 . S
C3815 C3812 1.403 . S
C3815 C3816 1.524 . S
C3815 C3819 1.400 . S
C3816 H3801 0.960 . S
C3816 H3802 0.960 . S
C3816 H3803 0.960 . S
C3816 C3815 1.524 . S
C3817 C3814 1.403 . S
C3817 C3818 1.392 . S
C3817 C3821 1.495 . S
C3818 C3817 1.392 . S
C3818 C3819 1.385 . S
C3818 C3820 1.478 . S
C3819 H3813 0.930 . S
C3819 C3815 1.400 . S
C3819 C3818 1.385 . S
C3820 C3818 1.478 . S
C3820 C3822 1.381 . S
C3820 C3826 1.383 . S
C3821 C3817 1.495 . S
C3821 H3827 0.959 . S
C3821 H3828 0.961 . S
C3821 H3829 0.960 . S
C3822 C3820 1.381 . S
C3822 C3823 1.394 . S
C3822 H3830 0.930 . S
C3823 C3822 1.394 . S
C3823 C3824 1.383 . S
C3823 H3831 0.929 . S
C3824 C3823 1.383 . S
C3824 C3825 1.377 . S
C3825 H3809 0.930 . S
C3825 C3824 1.377 . S
C3825 C3826 1.379 . S
C3826 H3810 0.931 . S
C3826 C3820 1.383 . S
C3826 C3825 1.379 . S
H3827 C3821 0.959 . S
H3828 C3821 0.961 . S
H3829 C3821 0.960 . S
H3830 C3822 0.930 . S
H3831 C3823 0.929 . S
H3832 C3840 0.929 . S
H3833 C3842 0.930 . S
H3834 C3844 0.930 . S
H3835 C3847 0.929 . S
H3836 C3850 0.930 . S
H3837 C3852 0.960 . S
H3838 C3852 0.960 . S
H3839 C3852 0.960 . S
C3840 H3832 0.929 . S
C3840 C3841 1.377 . S
C3840 C3842 1.384 . S
C3841 C3840 1.377 . S
C3841 C3847 1.390 . S
C3842 H3833 0.930 . S
C3842 C3840 1.384 . S
C3842 C3843 1.372 . S
C3843 C3842 1.372 . S
C3843 C3844 1.400 . S
C3843 C3848 1.490 . S
C3844 H3834 0.930 . S
C3844 C3843 1.400 . S
C3844 C3847 1.386 . S
H3845 C3861 0.930 . S
H3846 C3862 0.931 . S
C3847 H3835 0.929 . S
C3847 C3841 1.390 . S
C3847 C3844 1.386 . S
C3848 C3843 1.490 . S
C3848 C3850 1.395 . S
C3848 C3851 1.403 . S
H3849 C3855 0.930 . S
C3850 H3836 0.930 . S
C3850 C3848 1.395 . S
C3850 C3853 1.403 . S
C3851 C3848 1.403 . S
C3851 C3852 1.524 . S
C3851 C3855 1.400 . S
C3852 H3837 0.960 . S
C3852 H3838 0.960 . S
C3852 H3839 0.960 . S
C3852 C3851 1.524 . S
C3853 C3850 1.403 . S
C3853 C3854 1.392 . S
C3853 C3857 1.495 . S
C3854 C3853 1.392 . S
C3854 C3855 1.385 . S
C3854 C3856 1.478 . S
C3855 H3849 0.930 . S
C3855 C3851 1.400 . S
C3855 C3854 1.385 . S
C3856 C3854 1.478 . S
C3856 C3858 1.381 . S
C3856 C3862 1.383 . S
C3857 C3853 1.495 . S
C3857 H3863 0.959 . S
C3857 H3864 0.961 . S
C3857 H3865 0.960 . S
C3858 C3856 1.381 . S
C3858 C3859 1.394 . S
C3858 H3866 0.930 . S
C3859 C3858 1.394 . S
C3859 C3860 1.383 . S
C3859 H3867 0.929 . S
C3860 C3859 1.383 . S
C3860 C3861 1.377 . S
C3861 H3845 0.930 . S
C3861 C3860 1.377 . S
C3861 C3862 1.379 . S
C3862 H3846 0.931 . S
C3862 C3856 1.383 . S
C3862 C3861 1.379 . S
H3863 C3857 0.959 . S
H3864 C3857 0.961 . S
H3865 C3857 0.960 . S
H3866 C3858 0.930 . S
H3867 C3859 0.929 . S
H3868 C3876 0.929 . S
H3869 C3878 0.930 . S
H3870 C3880 0.930 . S
H3871 C3883 0.929 . S
H3872 C3886 0.930 . S
H3873 C3888 0.960 . S
H3874 C3888 0.960 . S
H3875 C3888 0.960 . S
C3876 H3868 0.929 . S
C3876 C3877 1.377 . S
C3876 C3878 1.384 . S
C3877 C3876 1.377 . S
C3877 C3883 1.390 . S
C3878 H3869 0.930 . S
C3878 C3876 1.384 . S
C3878 C3879 1.372 . S
C3879 C3878 1.372 . S
C3879 C3880 1.400 . S
C3879 C3884 1.490 . S
C3880 H3870 0.930 . S
C3880 C3879 1.400 . S
C3880 C3883 1.386 . S
H3881 C3897 0.930 . S
H3882 C3898 0.931 . S
C3883 H3871 0.929 . S
C3883 C3877 1.390 . S
C3883 C3880 1.386 . S
C3884 C3879 1.490 . S
C3884 C3886 1.395 . S
C3884 C3887 1.403 . S
H3885 C3891 0.930 . S
C3886 H3872 0.930 . S
C3886 C3884 1.395 . S
C3886 C3889 1.403 . S
C3887 C3884 1.403 . S
C3887 C3888 1.524 . S
C3887 C3891 1.400 . S
C3888 H3873 0.960 . S
C3888 H3874 0.960 . S
C3888 H3875 0.960 . S
C3888 C3887 1.524 . S
C3889 C3886 1.403 . S
C3889 C3890 1.392 . S
C3889 C3893 1.495 . S
C3890 C3889 1.392 . S
C3890 C3891 1.385 . S
C3890 C3892 1.478 . S
C3891 H3885 0.930 . S
C3891 C3887 1.400 . S
C3891 C3890 1.385 . S
C3892 C3890 1.478 . S
C3892 C3894 1.381 . S
C3892 C3898 1.383 . S
C3893 C3889 1.495 . S
C3893 H3899 0.959 . S
C3893 H3900 0.961 . S
C3893 H3901 0.960 . S
C3894 C3892 1.381 . S
C3894 C3895 1.394 . S
C3894 H3902 0.930 . S
C3895 C3894 1.394 . S
C3895 C3896 1.383 . S
C3895 H3903 0.929 . S
C3896 C3895 1.383 . S
C3896 C3897 1.377 . S
C3897 H3881 0.930 . S
C3897 C3896 1.377 . S
C3897 C3898 1.379 . S
C3898 H3882 0.931 . S
C3898 C3892 1.383 . S
C3898 C3897 1.379 . S
H3899 C3893 0.959 . S
H3900 C3893 0.961 . S
H3901 C3893 0.960 . S
H3902 C3894 0.930 . S
H3903 C3895 0.929 . S
H3904 C3912 0.929 . S
H3905 C3914 0.930 . S
H3906 C3916 0.930 . S
H3907 C3919 0.929 . S
H3908 C3922 0.930 . S
H3909 C3924 0.960 . S
H3910 C3924 0.960 . S
H3911 C3924 0.960 . S
C3912 H3904 0.929 . S
C3912 C3913 1.377 . S
C3912 C3914 1.384 . S
C3913 C3912 1.377 . S
C3913 C3919 1.390 . S
C3914 H3905 0.930 . S
C3914 C3912 1.384 . S
C3914 C3915 1.372 . S
C3915 C3914 1.372 . S
C3915 C3916 1.400 . S
C3915 C3920 1.490 . S
C3916 H3906 0.930 . S
C3916 C3915 1.400 . S
C3916 C3919 1.386 . S
H3917 C3933 0.930 . S
H3918 C3934 0.931 . S
C3919 H3907 0.929 . S
C3919 C3913 1.390 . S
C3919 C3916 1.386 . S
C3920 C3915 1.490 . S
C3920 C3922 1.395 . S
C3920 C3923 1.403 . S
H3921 C3927 0.930 . S
C3922 H3908 0.930 . S
C3922 C3920 1.395 . S
C3922 C3925 1.405 1_655 S
C3923 C3920 1.403 . S
C3923 C3924 1.524 . S
C3923 C3927 1.400 . S
C3924 H3909 0.960 . S
C3924 H3910 0.960 . S
C3924 H3911 0.960 . S
C3924 C3923 1.524 . S
C3925 C3922 1.405 1_455 S
C3925 C3926 1.394 1_455 S
C3925 C3929 1.492 . S
C3926 C3925 1.394 1_655 S
C3926 C3927 1.385 . S
C3926 C3928 1.478 1_655 S
C3927 H3921 0.930 . S
C3927 C3923 1.400 . S
C3927 C3926 1.385 . S
C3928 C3926 1.478 1_455 S
C3928 C3930 1.381 . S
C3928 C3934 1.383 . S
C3929 C3925 1.492 . S
C3929 H3935 0.959 . S
C3929 H3936 0.961 . S
C3929 H3937 0.960 . S
C3930 C3928 1.381 . S
C3930 C3931 1.394 . S
C3930 H3938 0.930 . S
C3931 C3930 1.394 . S
C3931 C3932 1.383 . S
C3931 H3939 0.929 . S
C3932 C3931 1.383 . S
C3932 C3933 1.377 . S
C3933 H3917 0.930 . S
C3933 C3932 1.377 . S
C3933 C3934 1.379 . S
C3934 H3918 0.931 . S
C3934 C3928 1.383 . S
C3934 C3933 1.379 . S
H3935 C3929 0.959 . S
H3936 C3929 0.961 . S
H3937 C3929 0.960 . S
H3938 C3930 0.930 . S
H3939 C3931 0.929 . S
H3940 C3948 0.929 . S
H3941 C3950 0.930 . S
H3942 C3952 0.930 . S
H3943 C3955 0.929 . S
H3944 C3958 0.930 . S
H3945 C3960 0.960 . S
H3946 C3960 0.960 . S
H3947 C3960 0.960 . S
C3948 H3940 0.929 . S
C3948 C3949 1.377 . S
C3948 C3950 1.384 . S
C3949 C3948 1.377 . S
C3949 C3955 1.390 . S
C3950 H3941 0.930 . S
C3950 C3948 1.384 . S
C3950 C3951 1.372 . S
C3951 C3950 1.372 . S
C3951 C3952 1.400 . S
C3951 C3956 1.490 . S
C3952 H3942 0.930 . S
C3952 C3951 1.400 . S
C3952 C3955 1.386 . S
H3953 C3969 0.930 . S
H3954 C3970 0.931 . S
C3955 H3943 0.929 . S
C3955 C3949 1.390 . S
C3955 C3952 1.386 . S
C3956 C3951 1.490 . S
C3956 C3958 1.395 . S
C3956 C3959 1.403 . S
H3957 C3963 0.930 . S
C3958 H3944 0.930 . S
C3958 C3956 1.395 . S
C3958 C3961 1.403 . S
C3959 C3956 1.403 . S
C3959 C3960 1.524 . S
C3959 C3963 1.400 . S
C3960 H3945 0.960 . S
C3960 H3946 0.960 . S
C3960 H3947 0.960 . S
C3960 C3959 1.524 . S
C3961 C3958 1.403 . S
C3961 C3962 1.392 . S
C3961 C3965 1.495 . S
C3962 C3961 1.392 . S
C3962 C3963 1.385 . S
C3962 C3964 1.478 . S
C3963 H3957 0.930 . S
C3963 C3959 1.400 . S
C3963 C3962 1.385 . S
C3964 C3962 1.478 . S
C3964 C3966 1.381 . S
C3964 C3970 1.383 . S
C3965 C3961 1.495 . S
C3965 H3971 0.959 . S
C3965 H3972 0.961 . S
C3965 H3973 0.960 . S
C3966 C3964 1.381 . S
C3966 C3967 1.394 . S
C3966 H3974 0.930 . S
C3967 C3966 1.394 . S
C3967 C3968 1.383 . S
C3967 H3975 0.929 . S
C3968 C3967 1.383 . S
C3968 C3969 1.377 . S
C3969 H3953 0.930 . S
C3969 C3968 1.377 . S
C3969 C3970 1.379 . S
C3970 H3954 0.931 . S
C3970 C3964 1.383 . S
C3970 C3969 1.379 . S
H3971 C3965 0.959 . S
H3972 C3965 0.961 . S
H3973 C3965 0.960 . S
H3974 C3966 0.930 . S
H3975 C3967 0.929 . S
H3976 C3984 0.929 . S
H3977 C3986 0.930 . S
H3978 C3988 0.930 . S
H3979 C3991 0.929 . S
H3980 C3994 0.930 . S
H3981 C3996 0.960 . S
H3982 C3996 0.960 . S
H3983 C3996 0.960 . S
C3984 H3976 0.929 . S
C3984 C3985 1.377 . S
C3984 C3986 1.384 . S
C3985 C3984 1.377 . S
C3985 C3991 1.390 . S
C3986 H3977 0.930 . S
C3986 C3984 1.384 . S
C3986 C3987 1.372 . S
C3987 C3986 1.372 . S
C3987 C3988 1.400 . S
C3987 C3992 1.490 . S
C3988 H3978 0.930 . S
C3988 C3987 1.400 . S
C3988 C3991 1.386 . S
H3989 C4005 0.930 . S
H3990 C4006 0.931 . S
C3991 H3979 0.929 . S
C3991 C3985 1.390 . S
C3991 C3988 1.386 . S
C3992 C3987 1.490 . S
C3992 C3994 1.395 . S
C3992 C3995 1.403 . S
H3993 C3999 0.930 . S
C3994 H3980 0.930 . S
C3994 C3992 1.395 . S
C3994 C3997 1.403 . S
C3995 C3992 1.403 . S
C3995 C3996 1.524 . S
C3995 C3999 1.400 . S
C3996 H3981 0.960 . S
C3996 H3982 0.960 . S
C3996 H3983 0.960 . S
C3996 C3995 1.524 . S
C3997 C3994 1.403 . S
C3997 C3998 1.392 . S
C3997 C4001 1.495 . S
C3998 C3997 1.392 . S
C3998 C3999 1.385 . S
C3998 C4000 1.478 . S
C3999 H3993 0.930 . S
C3999 C3995 1.400 . S
C3999 C3998 1.385 . S
C4000 C3998 1.478 . S
C4000 C4002 1.381 . S
C4000 C4006 1.383 . S
C4001 C3997 1.495 . S
C4001 H4007 0.959 . S
C4001 H4008 0.961 . S
C4001 H4009 0.960 . S
C4002 C4000 1.381 . S
C4002 C4003 1.394 . S
C4002 H4010 0.930 . S
C4003 C4002 1.394 . S
C4003 C4004 1.383 . S
C4003 H4011 0.929 . S
C4004 C4003 1.383 . S
C4004 C4005 1.377 . S
C4005 H3989 0.930 . S
C4005 C4004 1.377 . S
C4005 C4006 1.379 . S
C4006 H3990 0.931 . S
C4006 C4000 1.383 . S
C4006 C4005 1.379 . S
H4007 C4001 0.959 . S
H4008 C4001 0.961 . S
H4009 C4001 0.960 . S
H4010 C4002 0.930 . S
H4011 C4003 0.929 . S
H4012 C4020 0.929 . S
H4013 C4022 0.930 . S
H4014 C4024 0.930 . S
H4015 C4027 0.929 . S
H4016 C4030 0.930 . S
H4017 C4032 0.960 . S
H4018 C4032 0.960 . S
H4019 C4032 0.960 . S
C4020 H4012 0.929 . S
C4020 C4021 1.377 . S
C4020 C4022 1.384 . S
C4021 C4020 1.377 . S
C4021 C4027 1.390 . S
C4022 H4013 0.930 . S
C4022 C4020 1.384 . S
C4022 C4023 1.372 . S
C4023 C4022 1.372 . S
C4023 C4024 1.400 . S
C4023 C4028 1.490 . S
C4024 H4014 0.930 . S
C4024 C4023 1.400 . S
C4024 C4027 1.386 . S
H4025 C4041 0.930 . S
H4026 C4042 0.931 . S
C4027 H4015 0.929 . S
C4027 C4021 1.390 . S
C4027 C4024 1.386 . S
C4028 C4023 1.490 . S
C4028 C4030 1.395 . S
C4028 C4031 1.403 . S
H4029 C4035 0.930 . S
C4030 H4016 0.930 . S
C4030 C4028 1.395 . S
C4030 C4033 1.403 . S
C4031 C4028 1.403 . S
C4031 C4032 1.524 . S
C4031 C4035 1.400 . S
C4032 H4017 0.960 . S
C4032 H4018 0.960 . S
C4032 H4019 0.960 . S
C4032 C4031 1.524 . S
C4033 C4030 1.403 . S
C4033 C4034 1.392 . S
C4033 C4037 1.495 . S
C4034 C4033 1.392 . S
C4034 C4035 1.385 . S
C4034 C4036 1.478 . S
C4035 H4029 0.930 . S
C4035 C4031 1.400 . S
C4035 C4034 1.385 . S
C4036 C4034 1.478 . S
C4036 C4038 1.381 . S
C4036 C4042 1.383 . S
C4037 C4033 1.495 . S
C4037 H4043 0.959 . S
C4037 H4044 0.961 . S
C4037 H4045 0.960 . S
C4038 C4036 1.381 . S
C4038 C4039 1.394 . S
C4038 H4046 0.930 . S
C4039 C4038 1.394 . S
C4039 C4040 1.383 . S
C4039 H4047 0.929 . S
C4040 C4039 1.383 . S
C4040 C4041 1.377 . S
C4041 H4025 0.930 . S
C4041 C4040 1.377 . S
C4041 C4042 1.379 . S
C4042 H4026 0.931 . S
C4042 C4036 1.383 . S
C4042 C4041 1.379 . S
H4043 C4037 0.959 . S
H4044 C4037 0.961 . S
H4045 C4037 0.960 . S
H4046 C4038 0.930 . S
H4047 C4039 0.929 . S
H4048 C4056 0.929 . S
H4049 C4058 0.930 . S
H4050 C4060 0.930 . S
H4051 C4063 0.929 . S
H4052 C4066 0.930 . S
H4053 C4068 0.960 . S
H4054 C4068 0.960 . S
H4055 C4068 0.960 . S
C4056 H4048 0.929 . S
C4056 C4057 1.377 . S
C4056 C4058 1.384 . S
C4057 C4056 1.377 . S
C4057 C4063 1.390 . S
C4058 H4049 0.930 . S
C4058 C4056 1.384 . S
C4058 C4059 1.372 . S
C4059 C4058 1.372 . S
C4059 C4060 1.400 . S
C4059 C4064 1.490 . S
C4060 H4050 0.930 . S
C4060 C4059 1.400 . S
C4060 C4063 1.386 . S
H4061 C4077 0.930 . S
H4062 C4078 0.931 . S
C4063 H4051 0.929 . S
C4063 C4057 1.390 . S
C4063 C4060 1.386 . S
C4064 C4059 1.490 . S
C4064 C4066 1.395 . S
C4064 C4067 1.403 . S
H4065 C4071 0.930 . S
C4066 H4052 0.930 . S
C4066 C4064 1.395 . S
C4066 C4069 1.403 . S
C4067 C4064 1.403 . S
C4067 C4068 1.524 . S
C4067 C4071 1.400 . S
C4068 H4053 0.960 . S
C4068 H4054 0.960 . S
C4068 H4055 0.960 . S
C4068 C4067 1.524 . S
C4069 C4066 1.403 . S
C4069 C4070 1.392 . S
C4069 C4073 1.495 . S
C4070 C4069 1.392 . S
C4070 C4071 1.385 . S
C4070 C4072 1.478 . S
C4071 H4065 0.930 . S
C4071 C4067 1.400 . S
C4071 C4070 1.385 . S
C4072 C4070 1.478 . S
C4072 C4074 1.381 . S
C4072 C4078 1.383 . S
C4073 C4069 1.495 . S
C4073 H4079 0.959 . S
C4073 H4080 0.961 . S
C4073 H4081 0.960 . S
C4074 C4072 1.381 . S
C4074 C4075 1.394 . S
C4074 H4082 0.930 . S
C4075 C4074 1.394 . S
C4075 C4076 1.383 . S
C4075 H4083 0.929 . S
C4076 C4075 1.383 . S
C4076 C4077 1.377 . S
C4077 H4061 0.930 . S
C4077 C4076 1.377 . S
C4077 C4078 1.379 . S
C4078 H4062 0.931 . S
C4078 C4072 1.383 . S
C4078 C4077 1.379 . S
H4079 C4073 0.959 . S
H4080 C4073 0.961 . S
H4081 C4073 0.960 . S
H4082 C4074 0.930 . S
H4083 C4075 0.929 . S
H4084 C4092 0.929 . S
H4085 C4094 0.930 . S
H4086 C4096 0.930 . S
H4087 C4099 0.929 . S
H4088 C4102 0.930 . S
H4089 C4104 0.960 . S
H4090 C4104 0.960 . S
H4091 C4104 0.960 . S
C4092 H4084 0.929 . S
C4092 C4093 1.377 . S
C4092 C4094 1.384 . S
C4093 C4092 1.377 . S
C4093 C4099 1.390 . S
C4094 H4085 0.930 . S
C4094 C4092 1.384 . S
C4094 C4095 1.372 . S
C4095 C4094 1.372 . S
C4095 C4096 1.400 . S
C4095 C4100 1.490 . S
C4096 H4086 0.930 . S
C4096 C4095 1.400 . S
C4096 C4099 1.386 . S
H4097 C4113 0.930 . S
H4098 C4114 0.931 . S
C4099 H4087 0.929 . S
C4099 C4093 1.390 . S
C4099 C4096 1.386 . S
C4100 C4095 1.490 . S
C4100 C4102 1.395 . S
C4100 C4103 1.403 . S
H4101 C4107 0.930 . S
C4102 H4088 0.930 . S
C4102 C4100 1.395 . S
C4102 C4105 1.403 . S
C4103 C4100 1.403 . S
C4103 C4104 1.524 . S
C4103 C4107 1.400 . S
C4104 H4089 0.960 . S
C4104 H4090 0.960 . S
C4104 H4091 0.960 . S
C4104 C4103 1.524 . S
C4105 C4102 1.403 . S
C4105 C4106 1.392 . S
C4105 C4109 1.495 . S
C4106 C4105 1.392 . S
C4106 C4107 1.385 . S
C4106 C4108 1.478 . S
C4107 H4101 0.930 . S
C4107 C4103 1.400 . S
C4107 C4106 1.385 . S
C4108 C4106 1.478 . S
C4108 C4110 1.381 . S
C4108 C4114 1.383 . S
C4109 C4105 1.495 . S
C4109 H4115 0.959 . S
C4109 H4116 0.961 . S
C4109 H4117 0.960 . S
C4110 C4108 1.381 . S
C4110 C4111 1.394 . S
C4110 H4118 0.930 . S
C4111 C4110 1.394 . S
C4111 C4112 1.383 . S
C4111 H4119 0.929 . S
C4112 C4111 1.383 . S
C4112 C4113 1.377 . S
C4113 H4097 0.930 . S
C4113 C4112 1.377 . S
C4113 C4114 1.379 . S
C4114 H4098 0.931 . S
C4114 C4108 1.383 . S
C4114 C4113 1.379 . S
H4115 C4109 0.959 . S
H4116 C4109 0.961 . S
H4117 C4109 0.960 . S
H4118 C4110 0.930 . S
H4119 C4111 0.929 . S
H4120 C4128 0.929 . S
H4121 C4130 0.930 . S
H4122 C4132 0.930 . S
H4123 C4135 0.929 . S
H4124 C4138 0.930 . S
H4125 C4140 0.960 . S
H4126 C4140 0.960 . S
H4127 C4140 0.960 . S
C4128 H4120 0.929 . S
C4128 C4129 1.377 . S
C4128 C4130 1.384 . S
C4129 C4128 1.377 . S
C4129 C4135 1.390 . S
C4130 H4121 0.930 . S
C4130 C4128 1.384 . S
C4130 C4131 1.372 . S
C4131 C4130 1.372 . S
C4131 C4132 1.400 . S
C4131 C4136 1.490 . S
C4132 H4122 0.930 . S
C4132 C4131 1.400 . S
C4132 C4135 1.386 . S
H4133 C4149 0.930 . S
H4134 C4150 0.931 . S
C4135 H4123 0.929 . S
C4135 C4129 1.390 . S
C4135 C4132 1.386 . S
C4136 C4131 1.490 . S
C4136 C4138 1.395 . S
C4136 C4139 1.403 . S
H4137 C4143 0.930 . S
C4138 H4124 0.930 . S
C4138 C4136 1.395 . S
C4138 C4141 1.403 . S
C4139 C4136 1.403 . S
C4139 C4140 1.524 . S
C4139 C4143 1.400 . S
C4140 H4125 0.960 . S
C4140 H4126 0.960 . S
C4140 H4127 0.960 . S
C4140 C4139 1.524 . S
C4141 C4138 1.403 . S
C4141 C4142 1.392 . S
C4141 C4145 1.495 . S
C4142 C4141 1.392 . S
C4142 C4143 1.385 . S
C4142 C4144 1.478 . S
C4143 H4137 0.930 . S
C4143 C4139 1.400 . S
C4143 C4142 1.385 . S
C4144 C4142 1.478 . S
C4144 C4146 1.381 . S
C4144 C4150 1.383 . S
C4145 C4141 1.495 . S
C4145 H4151 0.959 . S
C4145 H4152 0.961 . S
C4145 H4153 0.960 . S
C4146 C4144 1.381 . S
C4146 C4147 1.394 . S
C4146 H4154 0.930 . S
C4147 C4146 1.394 . S
C4147 C4148 1.383 . S
C4147 H4155 0.929 . S
C4148 C4147 1.383 . S
C4148 C4149 1.377 . S
C4149 H4133 0.930 . S
C4149 C4148 1.377 . S
C4149 C4150 1.379 . S
C4150 H4134 0.931 . S
C4150 C4144 1.383 . S
C4150 C4149 1.379 . S
H4151 C4145 0.959 . S
H4152 C4145 0.961 . S
H4153 C4145 0.960 . S
H4154 C4146 0.930 . S
H4155 C4147 0.929 . S
H4156 C4164 0.929 . S
H4157 C4166 0.930 . S
H4158 C4168 0.930 . S
H4159 C4171 0.929 . S
H4160 C4174 0.930 . S
H4161 C4176 0.960 . S
H4162 C4176 0.960 . S
H4163 C4176 0.960 . S
C4164 H4156 0.929 . S
C4164 C4165 1.377 . S
C4164 C4166 1.384 . S
C4165 C4164 1.377 . S
C4165 C4171 1.390 . S
C4166 H4157 0.930 . S
C4166 C4164 1.384 . S
C4166 C4167 1.372 . S
C4167 C4166 1.372 . S
C4167 C4168 1.400 . S
C4167 C4172 1.490 . S
C4168 H4158 0.930 . S
C4168 C4167 1.400 . S
C4168 C4171 1.386 . S
H4169 C4185 0.930 . S
H4170 C4186 0.931 . S
C4171 H4159 0.929 . S
C4171 C4165 1.390 . S
C4171 C4168 1.386 . S
C4172 C4167 1.490 . S
C4172 C4174 1.395 . S
C4172 C4175 1.403 . S
H4173 C4179 0.930 . S
C4174 H4160 0.930 . S
C4174 C4172 1.395 . S
C4174 C4177 1.403 . S
C4175 C4172 1.403 . S
C4175 C4176 1.524 . S
C4175 C4179 1.400 . S
C4176 H4161 0.960 . S
C4176 H4162 0.960 . S
C4176 H4163 0.960 . S
C4176 C4175 1.524 . S
C4177 C4174 1.403 . S
C4177 C4178 1.392 . S
C4177 C4181 1.495 . S
C4178 C4177 1.392 . S
C4178 C4179 1.385 . S
C4178 C4180 1.478 . S
C4179 H4173 0.930 . S
C4179 C4175 1.400 . S
C4179 C4178 1.385 . S
C4180 C4178 1.478 . S
C4180 C4182 1.381 . S
C4180 C4186 1.383 1_565 S
C4181 C4177 1.495 . S
C4181 H4187 0.959 . S
C4181 H4188 0.961 . S
C4181 H4189 0.960 . S
C4182 C4180 1.381 . S
C4182 C4183 1.394 . S
C4182 H4190 0.930 . S
C4183 C4182 1.394 . S
C4183 C4184 1.383 1_565 S
C4183 H4191 0.929 . S
C4184 C4183 1.383 1_545 S
C4184 C4185 1.377 . S
C4185 H4169 0.930 . S
C4185 C4184 1.377 . S
C4185 C4186 1.379 . S
C4186 H4170 0.931 . S
C4186 C4180 1.383 1_545 S
C4186 C4185 1.379 . S
H4187 C4181 0.959 . S
H4188 C4181 0.961 . S
H4189 C4181 0.960 . S
H4190 C4182 0.930 . S
H4191 C4183 0.929 . S
H4192 C4200 0.929 . S
H4193 C4202 0.930 . S
H4194 C4204 0.930 . S
H4195 C4207 0.929 . S
H4196 C4210 0.930 . S
H4197 C4212 0.960 . S
H4198 C4212 0.960 . S
H4199 C4212 0.960 . S
C4200 H4192 0.929 . S
C4200 C4201 1.377 . S
C4200 C4202 1.384 . S
C4201 C4200 1.377 . S
C4201 C4207 1.390 . S
C4202 H4193 0.930 . S
C4202 C4200 1.384 . S
C4202 C4203 1.372 . S
C4203 C4202 1.372 . S
C4203 C4204 1.400 . S
C4203 C4208 1.490 . S
C4204 H4194 0.930 . S
C4204 C4203 1.400 . S
C4204 C4207 1.386 . S
H4205 C4221 0.930 . S
H4206 C4222 0.931 . S
C4207 H4195 0.929 . S
C4207 C4201 1.390 . S
C4207 C4204 1.386 . S
C4208 C4203 1.490 . S
C4208 C4210 1.395 . S
C4208 C4211 1.403 . S
H4209 C4215 0.930 . S
C4210 H4196 0.930 . S
C4210 C4208 1.395 . S
C4210 C4213 1.403 . S
C4211 C4208 1.403 . S
C4211 C4212 1.524 . S
C4211 C4215 1.400 . S
C4212 H4197 0.960 . S
C4212 H4198 0.960 . S
C4212 H4199 0.960 . S
C4212 C4211 1.524 . S
C4213 C4210 1.403 . S
C4213 C4214 1.392 . S
C4213 C4217 1.495 . S
C4214 C4213 1.392 . S
C4214 C4215 1.385 . S
C4214 C4216 1.478 . S
C4215 H4209 0.930 . S
C4215 C4211 1.400 . S
C4215 C4214 1.385 . S
C4216 C4214 1.478 . S
C4216 C4218 1.381 . S
C4216 C4222 1.383 . S
C4217 C4213 1.495 . S
C4217 H4223 0.959 . S
C4217 H4224 0.961 . S
C4217 H4225 0.960 . S
C4218 C4216 1.381 . S
C4218 C4219 1.394 . S
C4218 H4226 0.930 . S
C4219 C4218 1.394 . S
C4219 C4220 1.383 . S
C4219 H4227 0.929 . S
C4220 C4219 1.383 . S
C4220 C4221 1.377 . S
C4221 H4205 0.930 . S
C4221 C4220 1.377 . S
C4221 C4222 1.379 . S
C4222 H4206 0.931 . S
C4222 C4216 1.383 . S
C4222 C4221 1.379 . S
H4223 C4217 0.959 . S
H4224 C4217 0.961 . S
H4225 C4217 0.960 . S
H4226 C4218 0.930 . S
H4227 C4219 0.929 . S
H4228 C4236 0.929 . S
H4229 C4238 0.930 . S
H4230 C4240 0.930 . S
H4231 C4243 0.929 . S
H4232 C4246 0.930 1_556 S
H4233 C4248 0.960 . S
H4234 C4248 0.960 . S
H4235 C4248 0.960 . S
C4236 H4228 0.929 . S
C4236 C4237 1.377 . S
C4236 C4238 1.384 . S
C4237 C4236 1.377 . S
C4237 C4243 1.390 1_554 S
C4238 H4229 0.930 . S
C4238 C4236 1.384 . S
C4238 C4239 1.372 . S
C4239 C4238 1.372 . S
C4239 C4240 1.400 1_554 S
C4239 C4244 1.490 . S
C4240 H4230 0.930 . S
C4240 C4239 1.400 1_556 S
C4240 C4243 1.386 . S
H4241 C4257 0.930 . S
H4242 C4258 0.931 . S
C4243 H4231 0.929 . S
C4243 C4237 1.390 1_556 S
C4243 C4240 1.386 . S
C4244 C4239 1.490 . S
C4244 C4246 1.395 . S
C4244 C4247 1.403 . S
H4245 C4251 0.930 . S
C4246 H4232 0.930 1_554 S
C4246 C4244 1.395 . S
C4246 C4249 1.403 . S
C4247 C4244 1.403 . S
C4247 C4248 1.524 . S
C4247 C4251 1.400 . S
C4248 H4233 0.960 . S
C4248 H4234 0.960 . S
C4248 H4235 0.960 . S
C4248 C4247 1.524 . S
C4249 C4246 1.403 . S
C4249 C4250 1.392 . S
C4249 C4253 1.495 1_554 S
C4250 C4249 1.392 . S
C4250 C4251 1.385 . S
C4250 C4252 1.478 . S
C4251 H4245 0.930 . S
C4251 C4247 1.400 . S
C4251 C4250 1.385 . S
C4252 C4250 1.478 . S
C4252 C4254 1.381 . S
C4252 C4258 1.383 1_554 S
C4253 C4249 1.495 1_556 S
C4253 H4259 0.959 . S
C4253 H4260 0.961 . S
C4253 H4261 0.960 1_556 S
C4254 C4252 1.381 . S
C4254 C4255 1.394 . S
C4254 H4262 0.930 . S
C4255 C4254 1.394 . S
C4255 C4256 1.383 . S
C4255 H4263 0.929 . S
C4256 C4255 1.383 . S
C4256 C4257 1.377 1_554 S
C4257 H4241 0.930 . S
C4257 C4256 1.377 1_556 S
C4257 C4258 1.379 . S
C4258 H4242 0.931 . S
C4258 C4252 1.383 1_556 S
C4258 C4257 1.379 . S
H4259 C4253 0.959 . S
H4260 C4253 0.961 . S
H4261 C4253 0.960 1_554 S
H4262 C4254 0.930 . S
H4263 C4255 0.929 . S
H4264 C4272 0.929 . S
H4265 C4274 0.930 . S
H4266 C4276 0.930 . S
H4267 C4279 0.929 . S
H4268 C4282 0.930 . S
H4269 C4284 0.960 . S
H4270 C4284 0.960 . S
H4271 C4284 0.960 . S
C4272 H4264 0.929 . S
C4272 C4273 1.377 . S
C4272 C4274 1.384 . S
C4273 C4272 1.377 . S
C4273 C4279 1.390 . S
C4274 H4265 0.930 . S
C4274 C4272 1.384 . S
C4274 C4275 1.372 . S
C4275 C4274 1.372 . S
C4275 C4276 1.400 . S
C4275 C4280 1.490 . S
C4276 H4266 0.930 . S
C4276 C4275 1.400 . S
C4276 C4279 1.386 . S
H4277 C4293 0.930 . S
H4278 C4294 0.931 . S
C4279 H4267 0.929 . S
C4279 C4273 1.390 . S
C4279 C4276 1.386 . S
C4280 C4275 1.490 . S
C4280 C4282 1.395 . S
C4280 C4283 1.403 . S
H4281 C4287 0.930 . S
C4282 H4268 0.930 . S
C4282 C4280 1.395 . S
C4282 C4285 1.403 . S
C4283 C4280 1.403 . S
C4283 C4284 1.524 . S
C4283 C4287 1.400 . S
C4284 H4269 0.960 . S
C4284 H4270 0.960 . S
C4284 H4271 0.960 . S
C4284 C4283 1.524 . S
C4285 C4282 1.403 . S
C4285 C4286 1.392 . S
C4285 C4289 1.495 . S
C4286 C4285 1.392 . S
C4286 C4287 1.385 . S
C4286 C4288 1.478 . S
C4287 H4281 0.930 . S
C4287 C4283 1.400 . S
C4287 C4286 1.385 . S
C4288 C4286 1.478 . S
C4288 C4290 1.381 . S
C4288 C4294 1.383 . S
C4289 C4285 1.495 . S
C4289 H4295 0.959 . S
C4289 H4296 0.961 . S
C4289 H4297 0.960 . S
C4290 C4288 1.381 . S
C4290 C4291 1.394 . S
C4290 H4298 0.930 . S
C4291 C4290 1.394 . S
C4291 C4292 1.383 . S
C4291 H4299 0.929 . S
C4292 C4291 1.383 . S
C4292 C4293 1.377 . S
C4293 H4277 0.930 . S
C4293 C4292 1.377 . S
C4293 C4294 1.379 . S
C4294 H4278 0.931 . S
C4294 C4288 1.383 . S
C4294 C4293 1.379 . S
H4295 C4289 0.959 . S
H4296 C4289 0.961 . S
H4297 C4289 0.960 . S
H4298 C4290 0.930 . S
H4299 C4291 0.929 . S
H4300 C4308 0.929 . S
H4301 C4310 0.930 . S
H4302 C4312 0.930 . S
H4303 C4315 0.929 . S
H4304 C4318 0.930 . S
H4305 C4320 0.960 . S
H4306 C4320 0.960 . S
H4307 C4320 0.960 1_556 S
C4308 H4300 0.929 . S
C4308 C4309 1.377 . S
C4308 C4310 1.384 . S
C4309 C4308 1.377 . S
C4309 C4315 1.390 1_554 S
C4310 H4301 0.930 . S
C4310 C4308 1.384 . S
C4310 C4311 1.372 . S
C4311 C4310 1.372 . S
C4311 C4312 1.400 1_554 S
C4311 C4316 1.490 . S
C4312 H4302 0.930 . S
C4312 C4311 1.400 1_556 S
C4312 C4315 1.386 . S
H4313 C4329 0.930 . S
H4314 C4330 0.931 . S
C4315 H4303 0.929 . S
C4315 C4309 1.390 1_556 S
C4315 C4312 1.386 . S
C4316 C4311 1.490 . S
C4316 C4318 1.395 1_554 S
C4316 C4319 1.402 . S
H4317 C4323 0.930 . S
C4318 H4304 0.930 . S
C4318 C4316 1.395 1_556 S
C4318 C4321 1.403 . S
C4319 C4316 1.402 . S
C4319 C4320 1.527 . S
C4319 C4323 1.398 1_554 S
C4320 H4305 0.960 . S
C4320 H4306 0.960 . S
C4320 H4307 0.960 1_554 S
C4320 C4319 1.527 . S
C4321 C4318 1.403 . S
C4321 C4322 1.392 . S
C4321 C4325 1.495 . S
C4322 C4321 1.392 . S
C4322 C4323 1.385 . S
C4322 C4324 1.478 . S
C4323 H4317 0.930 . S
C4323 C4319 1.398 1_556 S
C4323 C4322 1.385 . S
C4324 C4322 1.478 . S
C4324 C4326 1.352 1_556 S
C4324 C4330 1.383 . S
C4325 C4321 1.495 . S
C4325 H4331 0.959 . S
C4325 H4332 0.961 . S
C4325 H4333 0.951 1_556 S
C4326 C4324 1.352 1_554 S
C4326 C4327 1.385 1_554 S
C4326 H4334 0.971 . S
C4327 C4326 1.385 1_556 S
C4327 C4328 1.383 . S
C4327 H4335 0.929 1_556 S
C4328 C4327 1.383 . S
C4328 C4329 1.377 . S
C4329 H4313 0.930 . S
C4329 C4328 1.377 . S
C4329 C4330 1.379 . S
C4330 H4314 0.931 . S
C4330 C4324 1.383 . S
C4330 C4329 1.379 . S
H4331 C4325 0.959 . S
H4332 C4325 0.961 . S
H4333 C4325 0.951 1_554 S
H4334 C4326 0.971 . S
H4335 C4327 0.929 1_554 S
H4336 C4344 0.929 . S
H4337 C4346 0.930 . S
H4338 C4348 0.930 . S
H4339 C4351 0.927 . S
H4340 C4354 0.930 . S
H4341 C4356 0.960 . S
H4342 C4356 0.960 . S
H4343 C4356 0.960 . S
C4344 H4336 0.929 . S
C4344 C4345 1.377 . S
C4344 C4346 1.384 . S
C4345 C4344 1.377 . S
C4345 C4351 1.390 . S
C4346 H4337 0.930 . S
C4346 C4344 1.384 . S
C4346 C4347 1.372 . S
C4347 C4346 1.372 . S
C4347 C4348 1.400 . S
C4347 C4352 1.490 . S
C4348 H4338 0.930 . S
C4348 C4347 1.400 . S
C4348 C4351 1.386 . S
H4349 C4365 0.930 . S
H4350 C4366 0.931 . S
C4351 H4339 0.927 . S
C4351 C4345 1.390 . S
C4351 C4348 1.386 . S
C4352 C4347 1.490 . S
C4352 C4354 1.395 . S
C4352 C4355 1.403 . S
H4353 C4359 0.930 . S
C4354 H4340 0.930 . S
C4354 C4352 1.395 . S
C4354 C4357 1.403 . S
C4355 C4352 1.403 . S
C4355 C4356 1.524 . S
C4355 C4359 1.400 . S
C4356 H4341 0.960 . S
C4356 H4342 0.960 . S
C4356 H4343 0.960 . S
C4356 C4355 1.524 . S
C4357 C4354 1.403 . S
C4357 C4358 1.392 . S
C4357 C4361 1.495 . S
C4358 C4357 1.392 . S
C4358 C4359 1.385 . S
C4358 C4360 1.478 . S
C4359 H4353 0.930 . S
C4359 C4355 1.400 . S
C4359 C4358 1.385 . S
C4360 C4358 1.478 . S
C4360 C4362 1.381 . S
C4360 C4366 1.383 . S
C4361 C4357 1.495 . S
C4361 H4367 0.959 . S
C4361 H4368 0.961 . S
C4361 H4369 0.960 . S
C4362 C4360 1.381 . S
C4362 C4363 1.394 . S
C4362 H4370 0.930 . S
C4363 C4362 1.394 . S
C4363 C4364 1.383 . S
C4363 H4371 0.929 . S
C4364 C4363 1.383 . S
C4364 C4365 1.377 . S
C4365 H4349 0.930 . S
C4365 C4364 1.377 . S
C4365 C4366 1.379 . S
C4366 H4350 0.931 . S
C4366 C4360 1.383 . S
C4366 C4365 1.379 . S
H4367 C4361 0.959 . S
H4368 C4361 0.961 . S
H4369 C4361 0.960 . S
H4370 C4362 0.930 . S
H4371 C4363 0.929 . S
H4372 C4380 0.929 . S
H4373 C4382 0.930 . S
H4374 C4384 0.930 . S
H4375 C4387 0.929 . S
H4376 C4390 0.930 . S
H4377 C4392 0.960 . S
H4378 C4392 0.960 . S
H4379 C4392 0.960 . S
C4380 H4372 0.929 . S
C4380 C4381 1.377 . S
C4380 C4382 1.384 . S
C4381 C4380 1.377 . S
C4381 C4387 1.390 . S
C4382 H4373 0.930 . S
C4382 C4380 1.384 . S
C4382 C4383 1.372 . S
C4383 C4382 1.372 . S
C4383 C4384 1.400 . S
C4383 C4388 1.490 . S
C4384 H4374 0.930 . S
C4384 C4383 1.400 . S
C4384 C4387 1.386 . S
H4385 C4401 0.930 . S
H4386 C4402 0.931 . S
C4387 H4375 0.929 . S
C4387 C4381 1.390 . S
C4387 C4384 1.386 . S
C4388 C4383 1.490 . S
C4388 C4390 1.395 . S
C4388 C4391 1.403 . S
H4389 C4395 0.930 . S
C4390 H4376 0.930 . S
C4390 C4388 1.395 . S
C4390 C4393 1.403 . S
C4391 C4388 1.403 . S
C4391 C4392 1.524 . S
C4391 C4395 1.400 . S
C4392 H4377 0.960 . S
C4392 H4378 0.960 . S
C4392 H4379 0.960 . S
C4392 C4391 1.524 . S
C4393 C4390 1.403 . S
C4393 C4394 1.392 . S
C4393 C4397 1.495 . S
C4394 C4393 1.392 . S
C4394 C4395 1.385 . S
C4394 C4396 1.478 . S
C4395 H4389 0.930 . S
C4395 C4391 1.400 . S
C4395 C4394 1.385 . S
C4396 C4394 1.478 . S
C4396 C4398 1.381 . S
C4396 C4402 1.383 . S
C4397 C4393 1.495 . S
C4397 H4403 0.959 . S
C4397 H4404 0.961 . S
C4397 H4405 0.960 . S
C4398 C4396 1.381 . S
C4398 C4399 1.394 . S
C4398 H4406 0.930 . S
C4399 C4398 1.394 . S
C4399 C4400 1.383 . S
C4399 H4407 0.929 . S
C4400 C4399 1.383 . S
C4400 C4401 1.377 . S
C4401 H4385 0.930 . S
C4401 C4400 1.377 . S
C4401 C4402 1.379 . S
C4402 H4386 0.931 . S
C4402 C4396 1.383 . S
C4402 C4401 1.379 . S
H4403 C4397 0.959 . S
H4404 C4397 0.961 . S
H4405 C4397 0.960 . S
H4406 C4398 0.930 . S
H4407 C4399 0.929 . S
C961 C101 2.239 . S
C980 C314 2.212 1_556 S
C997 C57 2.054 . S
C1016 C371 2.091 . S
C1033 C73 1.066 . S
C1052 C394 1.063 . S
C1088 C448 1.381 . S
C1069 C78 1.350 . S
C1105 C21 1.192 . S
C1124 C488 1.232 . S
C1160 C519 0.317 . S
C1141 C31 0.374 . S
C1196 C571 1.206 . S
C1177 C49 1.212 . S
C1213 C0 1.588 . S
C1232 C594 1.639 . S
C1268 C331 2.423 . S
C1249 C218 2.442 . S
C1285 C229 0.374 . S
C1304 C368 0.384 . S
C1340 C411 1.352 . S
C1321 C257 1.382 . S
C1376 C434 1.171 . S
C1357 C164 1.125 . S
C1393 C216 1.611 . S
C1412 C474 1.716 . S
C1448 C522 1.485 . S
C1429 C231 1.504 . S
C1484 C568 0.355 . S
C1465 C255 0.379 . S
C1520 C611 1.956 . S
C1501 C166 1.975 . S
C1556 C328 1.417 1_565 S
C1537 C143 1.355 . S
C1573 C265 1.999 . S
C1592 C651 2.038 . S
C1628 C683 2.495 . S
C1609 C299 2.523 . S
C1664 C714 0.572 1_655 S
C1645 C291 0.585 . S
C1681 C104 1.141 . S
C1700 C608 1.174 . S
C1717 C117 1.424 . S
C1736 C408 1.456 . S
C1753 C304 2.236 . S
C1772 C771 2.274 . S
C1808 C794 0.311 . S
C1789 C278 0.345 . S
C1844 C323 2.171 . S
C1825 C60 2.184 . S
C1880 C802 1.967 . S
C1861 C96 1.974 . S
C1897 C88 0.964 . S
C1916 C403 0.959 . S
C1933 C65 1.295 . S
C1952 C759 1.308 . S
C1988 C479 1.172 . S
C1969 C10 1.178 . S
C2005 C44 0.356 . S
C2024 C688 0.219 . S
C2060 C562 1.064 1_556 S
C2041 C34 1.015 . S
C2096 C843 1.594 . S
C2077 C13 1.629 . S
C2132 C322 2.345 . S
C2113 C138 2.306 . S
C2168 C799 0.274 . S
C2149 C296 0.250 . S
C2185 C112 1.252 . S
C2204 C402 1.271 . S
C2221 C270 1.057 . S
C2240 C763 1.030 . S
C2257 C140 1.616 . S
C2276 C483 1.605 . S
C2312 C691 1.404 . S
C2293 C294 1.418 . S
C2329 C114 0.174 . S
C2348 C559 0.281 . S
C2365 C268 1.855 . S
C2384 C842 1.867 . S
C2401 C169 1.375 . S
C2420 C319 1.354 . S
C2437 C161 1.925 . S
C2456 C642 1.933 . S
C2473 C234 2.461 . S
C2492 C514 2.427 . S
C2509 C226 0.483 . S
C2528 C723 0.457 . S
C2564 C839 1.146 . S
C2545 C247 1.194 . S
C2581 C195 1.451 . S
C2600 C399 1.410 . S
C2636 C442 2.173 . S
C2617 C239 2.155 . S
C2672 C363 0.324 . S
C2653 C187 0.307 . S
C2689 C75 2.241 . S
C2708 C874 2.196 . S
C2744 C811 2.076 . S
C2725 C83 2.055 . S
C2761 C99 1.055 . S
C2780 C914 1.085 . S
C2797 C52 1.360 . S
C2816 C768 1.395 . S
C2833 C47 1.192 . S
C2852 C648 1.232 . S
C2888 C679 0.235 . S
C2869 C5 0.406 . S
C2924 C731 1.234 . S
C2905 C23 1.207 . S
C2960 C834 1.626 . S
C2941 C26 1.589 . S
C2996 C891 2.426 . S
C2977 C244 2.442 . S
C3013 C177 0.370 . S
C3032 C808 0.362 . S
C3068 C931 1.381 . S
C3049 C192 1.379 . S
C3104 C754 1.183 . S
C3085 C203 1.114 . S
C3140 C634 1.695 . S
C3121 C242 1.620 . S
C3157 C179 1.506 . S
C3176 C682 1.458 . S
C3212 C728 0.357 . S
C3193 C190 0.378 . S
C3229 C205 1.976 . S
C3248 C851 1.958 . S
C3284 C888 1.410 . S
C3265 C286 1.349 . S
C3301 C122 1.996 . S
C3320 C491 2.031 . S
C3356 C523 2.484 . S
C3337 C130 2.526 . S
C3392 C554 0.541 . S
C3373 C148 0.597 . S
C3428 C848 1.183 . S
C3409 C273 1.140 . S
C3445 C260 1.429 . S
C3464 C928 1.448 . S
C3500 C451 2.252 . S
C3481 C135 2.230 . S
C3536 C354 0.470 . S
C3517 C109 0.348 . S
C3553 C86 2.185 . S
C3572 C883 2.162 . S
C3608 C362 1.967 . S
C3589 C70 1.974 . S
C3625 C62 0.966 . S
C3644 C923 0.926 . S
C3661 C91 1.301 . S
C3680 C439 1.319 . S
C3697 C36 1.185 . S
C3716 C639 1.149 . S
C3752 C528 0.277 . S
C3733 C18 0.363 . S
C3769 C8 1.025 . S
C3788 C722 1.086 . S
C3805 C39 1.625 . S
C3824 C603 1.552 . S
C3860 C882 2.359 . S
C3841 C307 2.312 . S
C3877 C153 0.244 . S
C3896 C359 0.237 . S
C3932 C922 1.262 . S
C3913 C281 1.251 . S
C3949 C127 1.057 . S
C3968 C443 1.020 . S
C3985 C309 1.615 . S
C4004 C643 1.604 . S
C4040 C531 1.430 . S
C4021 C151 1.421 . S
C4057 C283 0.136 . S
C4076 C719 0.360 . S
C4112 C602 1.885 . S
C4093 C125 1.862 . S
C4148 C879 1.375 . S
C4129 C221 1.371 . S
C4184 C482 1.933 1_655 S
C4165 C200 1.925 . S
C4201 C208 2.462 . S
C4220 C674 2.437 . S
C4256 C563 0.387 . S
C4237 C174 0.475 . S
C4273 C182 1.194 . S
C4292 C599 1.155 . S
C4309 C156 1.450 . S
C4328 C919 1.435 . S
C4364 C762 2.173 . S
C4345 C213 2.156 1_565 S
C4400 C803 0.326 . S
C4381 C252 0.275 . S
