# Generated by pormake.
# Topology nia, (6,6)-cn, num edge types: 1
# Building blocks:
#     Node 0, Type 0, BuildingBlock: BETDIP_clean_sbu_0, # of connection points: 6
#     Node 1, Type 0, BuildingBlock: BETDIP_clean_sbu_0, # of connection points: 6
#     Node 2, Type 1, BuildingBlock: MIDCAF_clean_sbu_0, # of connection points: 6
#     Node 3, Type 1, BuildingBlock: MIDCAF_clean_sbu_0, # of connection points: 6
#     Edge 4, Type (0, 1), BuildingBlock: XUDNAN_clean_linker_2, # of connection points: 2
#     Edge 5, Type (0, 1), BuildingBlock: XUDNAN_clean_linker_2, # of connection points: 2
#     Edge 6, Type (0, 1), BuildingBlock: XUDNAN_clean_linker_2, # of connection points: 2
#     Edge 7, Type (0, 1), BuildingBlock: XUDNAN_clean_linker_2, # of connection points: 2
#     Edge 8, Type (0, 1), BuildingBlock: XUDNAN_clean_linker_2, # of connection points: 2
#     Edge 9, Type (0, 1), BuildingBlock: XUDNAN_clean_linker_2, # of connection points: 2
#     Edge 10, Type (0, 1), BuildingBlock: XUDNAN_clean_linker_2, # of connection points: 2
#     Edge 11, Type (0, 1), BuildingBlock: XUDNAN_clean_linker_2, # of connection points: 2
#     Edge 12, Type (0, 1), BuildingBlock: XUDNAN_clean_linker_2, # of connection points: 2
#     Edge 13, Type (0, 1), BuildingBlock: XUDNAN_clean_linker_2, # of connection points: 2
#     Edge 14, Type (0, 1), BuildingBlock: XUDNAN_clean_linker_2, # of connection points: 2
#     Edge 15, Type (0, 1), BuildingBlock: XUDNAN_clean_linker_2, # of connection points: 2
# Relax obj value: 0.307
# Max RMSD: 0.271
# Mean RMSD: 0.243
data_MOF--net-nia--node1-BETDIP_clean_sbu_0--node2-MIDCAF_clean_sbu_0--edge1-XUDNAN_clean_linker_2
_symmetry_space_group_name_H-M    P1
_symmetry_Int_Tables_number       1
_symmetry_cell_setting            triclinic
loop_
_symmetry_equiv_pos_as_xyz
'x, y, z'
_cell_length_a     28.588654
_cell_length_b     25.478107
_cell_length_c     33.465707
_cell_angle_alpha  102.41099
_cell_angle_beta   68.151206
_cell_angle_gamma 129.21643
loop_
_atom_site_label
_atom_site_type_symbol
_atom_site_fract_x
_atom_site_fract_y
_atom_site_fract_z
_atom_type_partial_charge
Tb0 Tb 0.96193 0.0413 1.02418 0.0
Tb1 Tb 0.00604 0.97623 0.0512 0.0
C2 C 0.90408 0.0685 1.00217 0.0
C3 C 0.90938 0.12145 0.98473 0.0
C4 C 0.88967 0.15858 1.01226 0.0
C5 C 0.88499 0.20033 0.99539 0.0
C6 C 0.89913 0.20511 0.95069 0.0
C7 C 0.92047 0.16945 0.92317 0.0
C8 C 0.92549 0.12811 0.93996 0.0
C9 C 0.08291 0.09063 0.98554 0.0
C10 C 0.02984 0.10873 0.09415 0.0
C11 C 0.0554 0.92549 0.05636 0.0
C12 C 0.06998 0.9096 0.08755 0.0
C13 C 0.1086 0.889 0.07191 0.0
C14 C 0.12289 0.87218 0.10031 0.0
C15 C 0.099 0.87591 0.14508 0.0
C16 C 0.05994 0.89648 0.1608 0.0
C17 C 0.04564 0.91345 0.13214 0.0
C18 C 0.89907 0.9529 0.10529 0.0
C19 C 0.93661 0.90775 0.98089 0.0
O20 O 0.90341 0.07174 0.04209 0.0
O21 O 0.93568 0.04705 0.97599 0.0
O22 O 0.03546 0.03097 0.99675 0.0
O23 O 0.0633 0.12684 0.99306 0.0
O24 O -0.01638 0.09478 0.0825 0.0
O25 O 0.05538 0.07677 0.07825 0.0
O26 O 0.08788 0.99003 0.04769 0.0
O27 O -0.00494 0.88989 0.06017 0.0
O28 O 0.91654 0.95674 0.06483 0.0
O29 O 0.93963 0.95621 0.11638 0.0
O30 O 0.97965 0.9188 0.99479 0.0
O31 O 0.91376 0.94219 0.99532 0.0
H32 H 0.87564 0.15351 0.04689 0.0
H33 H 0.86771 0.22662 1.01749 0.0
H34 H 0.93233 0.17261 0.8886 0.0
H35 H 0.93987 0.09945 0.91776 0.0
H36 H 0.1274 0.88538 1.03758 0.0
H37 H 0.1519 0.8551 0.08711 0.0
H38 H 0.04101 0.9 0.19509 0.0
H39 H 0.01562 0.92932 0.14467 0.0
Tb40 Tb 0.03806 0.0592 0.5703 0.0
Tb41 Tb 0.95889 0.99114 0.51172 0.0
C42 C 0.07502 0.09132 0.63483 0.0
C43 C 0.1065 0.07616 0.65089 0.0
C44 C 0.1388 0.05118 0.62331 0.0
C45 C 0.17521 0.0449 0.63746 0.0
C46 C 0.17925 0.06297 0.67944 0.0
C47 C 0.14303 0.08314 0.70792 0.0
C48 C 0.10698 0.08992 0.69361 0.0
C49 C 0.07799 0.13527 0.50547 0.0
C50 C 0.07853 0.99312 0.49091 0.0
C51 C 0.92255 0.95597 0.44655 0.0
C52 C 0.87947 0.95302 0.43087 0.0
C53 C 0.87367 0.00535 0.43768 0.0
C54 C 0.82939 0.99852 0.42402 0.0
C55 C 0.79029 0.9391 0.40404 0.0
C56 C 0.79772 0.88804 0.39621 0.0
C57 C 0.84214 0.8951 0.40939 0.0
C58 C 0.92052 0.91367 0.57578 0.0
C59 C 0.91733 0.05679 0.5913 0.0
O60 O 0.01711 0.0401 0.63493 0.0
O61 O 0.10926 0.12818 0.59913 0.0
O62 O 0.02145 0.09338 0.5279 0.0
O63 O 0.11564 0.13963 0.52096 0.0
O64 O 0.07661 0.00685 0.53163 0.0
O65 O 0.04219 0.99311 0.47539 0.0
O66 O 0.97328 0.01609 0.45041 0.0
O67 O 0.8954 0.91477 0.47891 0.0
O68 O 0.97653 0.95762 0.55371 0.0
O69 O 0.88236 0.90794 0.56001 0.0
O70 O 0.91381 0.03632 0.55202 0.0
O71 O 0.95868 0.06412 0.60541 0.0
H72 H 0.13814 0.03945 0.59035 0.0
H73 H 0.20269 0.02909 0.61503 0.0
H74 H 0.14599 0.09805 0.74026 0.0
H75 H 0.08173 0.10868 0.71532 0.0
H76 H 0.9022 0.05056 0.45425 0.0
H77 H 0.8239 0.03818 0.43056 0.0
H78 H 0.7681 0.84194 0.38067 0.0
H79 H 0.84635 0.85452 0.40367 0.0
Zn80 Zn 0.33166 0.66107 0.21592 0.0
Zn81 Zn 0.25659 0.64528 0.38548 0.0
Zn82 Zn 0.29651 0.65499 0.30087 0.0
C83 C 0.39157 0.73159 0.35521 0.0
C84 C 0.20698 0.5153 0.36106 0.0
O85 O 0.25595 0.6942 0.28381 0.0
O86 O 0.29122 0.70007 0.21252 0.0
C87 C 0.44367 0.73406 0.23413 0.0
O88 O 0.38321 0.7194 0.31815 0.0
O89 O 0.34475 0.70265 0.389 0.0
O90 O 0.20215 0.5463 0.39536 0.0
O91 O 0.23965 0.54776 0.32436 0.0
O92 O 0.42462 0.71943 0.2021 0.0
O93 O 0.40319 0.71473 0.27246 0.0
O94 O 0.24888 0.54952 0.2797 0.0
O95 O 0.28652 0.56193 0.20864 0.0
C96 C 0.25189 0.52392 0.24202 0.0
O97 O 0.25123 0.70709 0.32841 0.0
O98 O 0.21788 0.6915 0.39893 0.0
C99 C 0.25901 0.7079 0.24763 0.0
C100 C 0.22509 0.7173 0.36689 0.0
Zn101 Zn 0.64745 0.39324 0.85888 0.0
Zn102 Zn 0.71155 0.36995 0.69421 0.0
Zn103 Zn 0.67949 0.37426 0.77863 0.0
C104 C 0.75892 0.50068 0.70802 0.0
C105 C 0.57847 0.27866 0.72747 0.0
O106 O 0.72442 0.34741 0.8032 0.0
O107 O 0.70271 0.37972 0.87002 0.0
C108 C 0.72018 0.51792 0.82415 0.0
O109 O 0.73623 0.47624 0.74639 0.0
O110 O 0.75416 0.46299 0.67606 0.0
O111 O 0.62347 0.30058 0.69241 0.0
O112 O 0.5898 0.30139 0.76368 0.0
O113 O 0.67921 0.4878 0.85956 0.0
O114 O 0.72776 0.48382 0.79121 0.0
O115 O 0.57213 0.31072 0.80893 0.0
O116 O 0.55527 0.32573 0.87918 0.0
C117 C 0.53379 0.29822 0.84789 0.0
O118 O 0.7276 0.32596 0.75879 0.0
O119 O 0.76118 0.33754 0.68772 0.0
C120 C 0.73046 0.35874 0.84105 0.0
C121 C 0.75658 0.31696 0.72111 0.0
H122 H 0.21367 0.90864 0.13576 0.0
H123 H 0.01888 0.79841 0.22015 0.0
H124 H 0.04228 0.75364 0.26259 0.0
H125 H 0.2248 0.78075 0.12666 0.0
H126 H 0.30668 0.83387 0.12517 0.0
H127 H 0.27819 0.86751 0.10723 0.0
H128 H 0.31584 0.96453 0.16153 0.0
H129 H 0.3451 0.93144 0.1794 0.0
H130 H 0.28934 0.94417 0.21781 0.0
H131 H 0.08435 0.7093 0.28976 0.0
H132 H 0.14049 0.66958 0.29795 0.0
H133 H 0.30473 0.80539 0.19296 0.0
C134 C 0.17612 0.87599 0.16361 0.0
C135 C 0.11444 0.85689 0.1746 0.0
C136 C 0.06674 0.81439 0.21145 0.0
C137 C 0.07958 0.7886 0.23567 0.0
C138 C 0.14044 0.80635 0.22278 0.0
C139 C 0.188 0.84961 0.18773 0.0
C140 C 0.24742 0.85576 0.17748 0.0
C141 C 0.26525 0.83309 0.13143 0.0
C142 C 0.30269 0.92829 0.18449 0.0
C143 C 0.22513 0.8068 0.21091 0.0
C144 C 0.16387 0.77983 0.23751 0.0
C145 C 0.13258 0.73082 0.26945 0.0
C146 C 0.16459 0.70845 0.27384 0.0
C147 C 0.22671 0.73466 0.24607 0.0
C148 C 0.25725 0.78476 0.21464 0.0
H149 H 0.30343 0.13548 0.63368 0.0
H150 H 0.16822 0.01739 0.75234 0.0
H151 H 0.25695 0.05015 0.77481 0.0
H152 H 0.42269 0.10917 0.61834 0.0
H153 H 0.48756 0.19543 0.59912 0.0
H154 H 0.41296 0.15232 0.58963 0.0
H155 H 0.40691 0.24942 0.62617 0.0
H156 H 0.48088 0.29237 0.63622 0.0
H157 H 0.41104 0.27152 0.68032 0.0
H158 H 0.36261 0.10214 0.78518 0.0
H159 H 0.47492 0.17569 0.78472 0.0
H160 H 0.53638 0.26828 0.66365 0.0
C161 C 0.29233 0.11435 0.66363 0.0
C162 C 0.22927 0.07266 0.69088 0.0
C163 C 0.21646 0.04855 0.73082 0.0
C164 C 0.26641 0.06673 0.74369 0.0
C165 C 0.32847 0.10939 0.71631 0.0
C166 C 0.34136 0.13297 0.67715 0.0
C167 C 0.41176 0.18477 0.65592 0.0
C168 C 0.4351 0.15885 0.61323 0.0
C169 C 0.42858 0.25355 0.64931 0.0
C170 C 0.43671 0.1881 0.68964 0.0
C171 C 0.38833 0.1433 0.72383 0.0
C172 C 0.40057 0.13814 0.75888 0.0
C173 C 0.4638 0.18101 0.75913 0.0
C174 C 0.51298 0.2298 0.72573 0.0
C175 C 0.49936 0.23197 0.69005 0.0
H176 H 0.15229 0.20909 0.09273 0.0
H177 H 0.95733 0.12415 0.16838 0.0
H178 H -0.00529 0.21181 0.22291 0.0
H179 H 0.22061 0.26998 0.18277 0.0
H180 H 0.29214 0.34694 0.15354 0.0
H181 H 0.25013 0.27059 0.12483 0.0
H182 H 0.2422 0.33335 0.07905 0.0
H183 H 0.28471 0.40977 0.10721 0.0
H184 H 0.20781 0.37631 0.10586 0.0
H185 H 0.05383 0.3132 0.26671 0.0
H186 H 0.12824 0.42995 0.28872 0.0
H187 H 0.28365 0.45329 0.18086 0.0
C188 C 0.11766 0.20828 0.12133 0.0
C189 C 0.05212 0.15981 0.12693 0.0
C190 C 0.00784 0.1611 0.16384 0.0
C191 C 0.02862 0.21014 0.1951 0.0
C192 C 0.09381 0.25789 0.18857 0.0
C193 C 0.13768 0.25796 0.15218 0.0
C194 C 0.20475 0.32025 0.14947 0.0
C195 C 0.24422 0.30074 0.15287 0.0
C196 C 0.23669 0.3624 0.10796 0.0
C197 C 0.19169 0.35636 0.18917 0.0
C198 C 0.12769 0.31853 0.21222 0.0
C199 C 0.10409 0.34305 0.2491 0.0
C200 C 0.14663 0.40915 0.26155 0.0
C201 C 0.21138 0.45013 0.23642 0.0
C202 C 0.23432 0.42254 0.20073 0.0
H203 H 0.94165 0.17303 0.57599 0.0
H204 H 0.81977 1.00369 0.6668 0.0
H205 H 0.76822 0.05516 0.71358 0.0
H206 H 0.96608 0.30044 0.65745 0.0
H207 H 0.96906 0.3513 0.62514 0.0
H208 H -0.00588 0.29945 0.59957 0.0
H209 H 0.91343 0.24055 0.5567 0.0
H210 H 0.88894 0.29274 0.58244 0.0
H211 H 0.83085 0.20176 0.58574 0.0
H212 H 0.72616 0.12335 0.74759 0.0
H213 H 0.70006 0.20346 0.76694 0.0
H214 H 0.85778 0.333 0.65733 0.0
C215 C 0.90349 0.14654 0.60547 0.0
C216 C 0.8832 0.08388 0.6176 0.0
C217 C 0.83475 0.05127 0.6569 0.0
C218 C 0.80564 0.0803 0.68362 0.0
C219 C 0.82695 0.14264 0.6709 0.0
C220 C 0.87523 0.1756 0.6329 0.0
C221 C 0.89088 0.24286 0.62698 0.0
C222 C 0.95908 0.302 0.6273 0.0
C223 C 0.88037 0.24453 0.58552 0.0
C224 C 0.84257 0.24186 0.6669 0.0
C225 C 0.80608 0.18378 0.69194 0.0
C226 C 0.75554 0.16982 0.72882 0.0
C227 C 0.74174 0.21616 0.7401 0.0
C228 C 0.77867 0.27586 0.71484 0.0
C229 C 0.83001 0.28883 0.67806 0.0
H230 H 0.80578 0.9389 0.087 0.0
H231 H 0.84621 0.90685 0.18834 0.0
H232 H 0.73528 0.85326 0.23482 0.0
H233 H 0.69717 0.97704 0.15961 0.0
H234 H 0.64604 0.9349 0.12626 0.0
H235 H 0.72965 0.97436 0.10223 0.0
H236 H 0.70282 0.8607 0.06784 0.0
H237 H 0.61927 0.82083 0.09191 0.0
H238 H 0.65252 0.78575 0.10181 0.0
H239 H 0.61618 0.78956 0.26636 0.0
H240 H 0.50138 0.73114 0.2827 0.0
H241 H 0.54117 0.81536 0.1644 0.0
C242 C 0.79141 0.92146 0.1192 0.0
C243 C 0.83434 0.92667 0.13405 0.0
C244 C 0.81396 0.90325 0.17634 0.0
C245 C 0.75105 0.87271 0.20298 0.0
C246 C 0.70939 0.86705 0.18712 0.0
C247 C 0.72901 0.89181 0.14649 0.0
C248 C 0.6746 0.87833 0.13686 0.0
C249 C 0.68765 0.94514 0.1309 0.0
C250 C 0.66155 0.83375 0.09727 0.0
C251 C 0.62099 0.84049 0.17788 0.0
C252 C 0.64185 0.83425 0.20648 0.0
C253 C 0.59968 0.79605 0.24484 0.0
C254 C 0.5346 0.76371 0.2542 0.0
C255 C 0.51254 0.77135 0.22603 0.0
C256 C 0.55665 0.81017 0.18733 0.0
H257 H 0.8053 0.78904 0.604 0.0
H258 H -0.00196 0.92257 0.61 0.0
H259 H 0.97327 0.83573 0.65287 0.0
H260 H 0.7249 0.70463 0.71145 0.0
H261 H 0.67086 0.62297 0.69185 0.0
H262 H 0.70084 0.69915 0.66705 0.0
H263 H 0.74265 0.66206 0.59269 0.0
H264 H 0.71279 0.58592 0.61722 0.0
H265 H 0.7955 0.64238 0.58627 0.0
H266 H 0.93054 0.7305 0.68962 0.0
H267 H 0.87488 0.61321 0.71313 0.0
H268 H 0.71136 0.54654 0.68154 0.0
C269 C 0.84171 0.8005 0.61529 0.0
C270 C 0.9032 0.86315 0.60447 0.0
C271 C 0.95024 0.87551 0.61864 0.0
C272 C 0.93662 0.82639 0.64302 0.0
C273 C 0.87577 0.76475 0.65275 0.0
C274 C 0.82913 0.75149 0.63915 0.0
C275 C 0.76969 0.67884 0.65015 0.0
C276 C 0.71323 0.67628 0.68203 0.0
C277 C 0.75429 0.64003 0.60915 0.0
C278 C 0.79061 0.65299 0.67121 0.0
C279 C 0.85158 0.70362 0.6731 0.0
C280 C 0.88231 0.69082 0.68909 0.0
C281 C 0.85027 0.62436 0.7028 0.0
C282 C 0.78832 0.57186 0.70048 0.0
C283 C 0.75814 0.5865 0.6847 0.0
H284 H 0.0771 0.89832 0.5167 0.0
H285 H 0.14912 0.01959 0.40578 0.0
H286 H 0.19552 0.96242 0.36059 0.0
H287 H 0.20486 0.88714 0.49167 0.0
H288 H 0.15199 0.79993 0.51006 0.0
H289 H 0.13012 0.85495 0.53353 0.0
H290 H 0.02514 0.77039 0.51442 0.0
H291 H 0.04698 0.71546 0.49043 0.0
H292 H 0.02814 0.74567 0.45936 0.0
H293 H 0.238 0.89398 0.32894 0.0
H294 H 0.26515 0.81518 0.31264 0.0
H295 H 0.14969 0.72768 0.44192 0.0
C296 C 0.10388 0.91378 0.48309 0.0
C297 C 0.11121 0.96432 0.46471 0.0
C298 C 0.14417 0.98159 0.42035 0.0
C299 C 0.17043 0.94934 0.39455 0.0
C300 C 0.16165 0.89884 0.41355 0.0
C301 C 0.12846 0.88067 0.45673 0.0
C302 C 0.12161 0.8218 0.46884 0.0
C303 C 0.1541 0.8422 0.50304 0.0
C304 C 0.05129 0.75967 0.48416 0.0
C305 C 0.15683 0.81008 0.42591 0.0
C306 C 0.18037 0.85543 0.39446 0.0
C307 C 0.21824 0.857 0.35304 0.0
C308 C 0.23247 0.81114 0.34373 0.0
C309 C 0.20687 0.76267 0.3751 0.0
C310 C 0.16862 0.76263 0.41668 0.0
H311 H 0.19352 0.21656 0.94979 0.0
H312 H 0.11691 0.00816 0.96431 0.0
H313 H 0.22238 0.03684 0.92519 0.0
H314 H 0.30447 0.24299 0.83984 0.0
H315 H 0.36577 0.32963 0.8488 0.0
H316 H 0.28337 0.29288 0.87687 0.0
H317 H 0.30581 0.32377 0.95001 0.0
H318 H 0.38819 0.36089 0.92211 0.0
H319 H 0.34258 0.29523 0.96277 0.0
H320 H 0.33689 0.08925 0.89219 0.0
H321 H 0.45424 0.16258 0.86282 0.0
H322 H 0.45801 0.33481 0.86183 0.0
C323 C 0.19913 0.17713 0.94446 0.0
C324 C 0.14718 0.11038 0.96082 0.0
C325 C 0.15618 0.05995 0.95291 0.0
C326 C 0.21589 0.07554 0.93034 0.0
C327 C 0.26627 0.14167 0.91494 0.0
C328 C 0.25868 0.19165 0.92115 0.0
C329 C 0.32152 0.25889 0.90157 0.0
C330 C 0.31858 0.28247 0.86457 0.0
C331 C 0.34064 0.31286 0.93618 0.0
C332 C 0.36555 0.23907 0.88474 0.0
C333 C 0.33245 0.17106 0.89281 0.0
C334 C 0.36318 0.14205 0.8843 0.0
C335 C 0.42964 0.18378 0.86742 0.0
C336 C 0.46436 0.253 0.85773 0.0
C337 C 0.43193 0.28103 0.86666 0.0
H338 H 0.0242 0.1929 0.50501 0.0
H339 H 0.17902 0.18291 0.43195 0.0
H340 H 0.21618 0.26453 0.3776 0.0
H341 H -0.0018 0.22364 0.41398 0.0
H342 H -0.01428 0.28388 0.44386 0.0
H343 H 0.96387 0.21468 0.47177 0.0
H344 H 0.03456 0.29947 0.51963 0.0
H345 H 0.05517 0.36832 0.49253 0.0
H346 H 0.11691 0.36753 0.4945 0.0
H347 H 0.24062 0.35347 0.33408 0.0
H348 H 0.26317 0.45675 0.31342 0.0
H349 H 0.09927 0.41727 0.41955 0.0
C350 C 0.06496 0.20676 0.47695 0.0
C351 C 0.09834 0.18113 0.47204 0.0
C352 C 0.15274 0.20187 0.43588 0.0
C353 C 0.17371 0.24763 0.40475 0.0
C354 C 0.14027 0.27292 0.41071 0.0
C355 C 0.08766 0.25403 0.44641 0.0
C356 C 0.06625 0.29635 0.44916 0.0
C357 C -0.00045 0.25198 0.44439 0.0
C358 C 0.06843 0.33527 0.49143 0.0
C359 C 0.11632 0.34366 0.41031 0.0
C360 C 0.15707 0.32762 0.38754 0.0
C361 C 0.20875 0.36618 0.3515 0.0
C362 C 0.22099 0.42452 0.33976 0.0
C363 C 0.18284 0.44472 0.36482 0.0
C364 C 0.12871 0.40243 0.39956 0.0
H365 H 0.8423 0.16715 0.88862 0.0
H366 H 0.93118 0.33134 0.97342 0.0
H367 H 0.90838 0.39401 0.94707 0.0
H368 H 0.89631 0.27656 0.79921 0.0
H369 H 0.82345 0.21731 0.78605 0.0
H370 H 0.85157 0.1869 0.80782 0.0
H371 H 0.74541 0.12298 0.86985 0.0
H372 H 0.71586 0.15124 0.84786 0.0
H373 H 0.71612 0.1684 0.90298 0.0
H374 H 0.86861 0.43416 0.9167 0.0
H375 H 0.80962 0.44749 0.88705 0.0
H376 H 0.74427 0.25696 0.82254 0.0
C377 C 0.85825 0.21699 0.90092 0.0
C378 C 0.88888 0.24461 0.93295 0.0
C379 C 0.90748 0.30915 0.94904 0.0
C380 C 0.8952 0.34532 0.93399 0.0
C381 C 0.86447 0.31639 0.90272 0.0
C382 C 0.84613 0.25369 0.88635 0.0
C383 C 0.80995 0.23218 0.8551 0.0
C384 C 0.84756 0.22797 0.80934 0.0
C385 C 0.74286 0.16472 0.86987 0.0
C386 C 0.80782 0.29097 0.85824 0.0
C387 C 0.84104 0.33966 0.8851 0.0
C388 C 0.84321 0.39687 0.89518 0.0
C389 C 0.80937 0.40383 0.87826 0.0
C390 C 0.77326 0.35372 0.85178 0.0
C391 C 0.77343 0.29716 0.84106 0.0
H392 H 0.66654 0.83402 0.43446 0.0
H393 H 0.79596 0.01491 0.35255 0.0
H394 H 0.70607 0.98499 0.33281 0.0
H395 H 0.57456 0.72606 0.36676 0.0
H396 H 0.50064 0.6798 0.40988 0.0
H397 H 0.57431 0.71877 0.41927 0.0
H398 H 0.54871 0.78508 0.48249 0.0
H399 H 0.47474 0.74604 0.47336 0.0
H400 H 0.53101 0.83709 0.4732 0.0
H401 H 0.60175 0.92846 0.31832 0.0
H402 H 0.49247 0.85353 0.31283 0.0
H403 H 0.43449 0.71269 0.40592 0.0
C404 C 0.67571 0.86767 0.41273 0.0
C405 C 0.73756 0.92644 0.39479 0.0
C406 C 0.74838 0.96975 0.36664 0.0
C407 C 0.69782 0.95305 0.35527 0.0
C408 C 0.63721 0.89364 0.373 0.0
C409 C 0.62611 0.85216 0.40151 0.0
C410 C 0.55758 0.79022 0.41528 0.0
C411 C 0.55146 0.72489 0.40198 0.0
C412 C 0.52617 0.78962 0.46397 0.0
C413 C 0.53162 0.80236 0.38955 0.0
C414 C 0.57795 0.86218 0.36531 0.0
C415 C 0.56504 0.88199 0.33755 0.0
C416 C 0.5032 0.83924 0.3345 0.0
C417 C 0.45581 0.77769 0.3589 0.0
C418 C 0.47005 0.75978 0.38714 0.0
H419 H 0.82465 0.83475 0.96336 0.0
H420 H 0.00842 0.87592 0.91869 0.0
H421 H 0.97893 0.79776 0.85901 0.0
H422 H 0.73926 0.66441 0.95131 0.0
H423 H 0.68043 0.65352 0.93473 0.0
H424 H 0.72159 0.72386 0.96708 0.0
H425 H 0.75737 0.80608 0.90928 0.0
H426 H 0.71711 0.73544 0.8763 0.0
H427 H 0.80044 0.80382 0.85444 0.0
H428 H 0.92575 0.70515 0.81139 0.0
H429 H 0.84759 0.59192 0.78871 0.0
H430 H 0.69665 0.60684 0.86464 0.0
C431 C 0.85905 0.82832 0.94034 0.0
C432 C 0.91875 0.86128 0.94533 0.0
C433 C 0.96222 0.85071 0.91542 0.0
C434 C 0.9463 0.80731 0.88104 0.0
C435 C 0.88671 0.77487 0.87711 0.0
C436 C 0.84341 0.7842 0.90629 0.0
C437 C 0.77902 0.73488 0.8994 0.0
C438 C 0.72708 0.6916 0.94054 0.0
C439 C 0.76253 0.77231 0.88393 0.0
C440 C 0.79166 0.69328 0.86383 0.0
C441 C 0.85486 0.7192 0.85003 0.0
C442 C 0.87656 0.68531 0.82098 0.0
C443 C 0.83196 0.62131 0.8078 0.0
C444 C 0.76664 0.59188 0.82414 0.0
C445 C 0.74672 0.62955 0.85081 0.0
loop_
_geom_bond_atom_site_label_1
_geom_bond_atom_site_label_2
_geom_bond_distance
_geom_bond_site_symmetry_2
_ccdc_geom_bond_type
Tb0 C2 2.809 . S
Tb0 O20 2.484 . S
Tb0 O21 2.440 1_655 S
Tb0 O22 2.658 1_655 S
Tb0 O23 2.409 1_655 S
Tb0 O24 2.378 1_656 S
Tb0 O28 2.325 1_546 S
Tb0 O31 2.341 1_545 S
Tb1 C11 2.809 . S
Tb1 O22 2.325 1_564 S
Tb1 O25 2.341 1_565 S
Tb1 O26 2.484 . S
Tb1 O27 2.440 . S
Tb1 O28 2.658 1_455 S
Tb1 O29 2.409 1_455 S
Tb1 O30 2.378 1_455 S
C2 Tb0 2.809 . S
C2 C3 1.514 . S
C2 O20 1.248 . S
C2 O21 1.266 1_655 S
C3 C2 1.514 . S
C3 C4 1.359 . S
C3 C8 1.348 1_655 S
C4 C3 1.359 . S
C4 C5 1.380 . S
C4 H32 0.929 . S
C5 C4 1.380 . S
C5 C6 1.347 . S
C5 H33 0.931 . S
C6 C5 1.347 . S
C6 C7 1.369 . S
C7 C6 1.369 . S
C7 C8 1.408 1_655 S
C7 H34 0.930 1_655 S
C8 C3 1.348 1_455 S
C8 C7 1.408 1_455 S
C8 H35 0.930 . S
C9 O22 1.281 . S
C9 O23 1.254 . S
C10 O24 1.236 . S
C10 O25 1.266 . S
C11 Tb1 2.809 . S
C11 C12 1.514 . S
C11 O26 1.248 . S
C11 O27 1.266 . S
C12 C11 1.514 . S
C12 C13 1.359 . S
C12 C17 1.348 . S
C13 C12 1.359 . S
C13 C14 1.380 . S
C13 H36 0.929 . S
C14 C13 1.380 . S
C14 C15 1.347 . S
C14 H37 0.931 . S
C15 C14 1.347 . S
C15 C16 1.369 . S
C16 C15 1.369 . S
C16 C17 1.408 . S
C16 H38 0.930 1_455 S
C17 C12 1.348 . S
C17 C16 1.408 . S
C17 H39 0.930 1_455 S
C18 O28 1.281 . S
C18 O29 1.254 . S
C19 O30 1.236 1_556 S
C19 O31 1.266 . S
O20 Tb0 2.484 . S
O20 C2 1.248 . S
O21 Tb0 2.440 1_455 S
O21 C2 1.266 1_455 S
O22 Tb0 2.658 1_455 S
O22 Tb1 2.325 1_546 S
O22 C9 1.281 . S
O23 Tb0 2.409 1_455 S
O23 C9 1.254 . S
O24 Tb0 2.378 1_454 S
O24 C10 1.236 . S
O25 Tb1 2.341 1_545 S
O25 C10 1.266 . S
O26 Tb1 2.484 . S
O26 C11 1.248 . S
O27 Tb1 2.440 . S
O27 C11 1.266 . S
O28 Tb0 2.325 1_564 S
O28 Tb1 2.658 1_655 S
O28 C18 1.281 . S
O29 Tb1 2.409 1_655 S
O29 C18 1.254 . S
O30 Tb1 2.378 1_655 S
O30 C19 1.236 1_554 S
O31 Tb0 2.341 1_565 S
O31 C19 1.266 . S
H32 C4 0.929 . S
H33 C5 0.931 . S
H34 C7 0.930 1_455 S
H35 C8 0.930 . S
H36 C13 0.929 . S
H37 C14 0.931 . S
H38 C16 0.930 1_655 S
H39 C17 0.930 1_655 S
Tb40 C42 2.809 . S
Tb40 O60 2.484 . S
Tb40 O61 2.440 . S
Tb40 O62 2.658 . S
Tb40 O63 2.409 . S
Tb40 O64 2.378 . S
Tb40 O68 2.325 1_445 S
Tb40 O71 2.341 1_455 S
Tb41 C51 2.809 . S
Tb41 O62 2.325 1_665 S
Tb41 O65 2.341 1_655 S
Tb41 O66 2.484 . S
Tb41 O67 2.440 . S
Tb41 O68 2.658 . S
Tb41 O69 2.409 . S
Tb41 O70 2.378 . S
C42 Tb40 2.809 . S
C42 C43 1.514 . S
C42 O60 1.248 . S
C42 O61 1.266 . S
C43 C42 1.514 . S
C43 C44 1.359 . S
C43 C48 1.348 . S
C44 C43 1.359 . S
C44 C45 1.380 . S
C44 H72 0.929 . S
C45 C44 1.380 . S
C45 C46 1.347 . S
C45 H73 0.931 . S
C46 C45 1.347 . S
C46 C47 1.369 . S
C47 C46 1.369 . S
C47 C48 1.408 . S
C47 H74 0.930 . S
C48 C43 1.348 . S
C48 C47 1.408 . S
C48 H75 0.930 . S
C49 O62 1.281 . S
C49 O63 1.254 . S
C50 O64 1.236 1_565 S
C50 O65 1.266 . S
C51 Tb41 2.809 . S
C51 C52 1.514 . S
C51 O66 1.248 . S
C51 O67 1.266 . S
C52 C51 1.514 . S
C52 C53 1.359 . S
C52 C57 1.348 . S
C53 C52 1.359 . S
C53 C54 1.380 . S
C53 H76 0.929 1_565 S
C54 C53 1.380 . S
C54 C55 1.347 . S
C54 H77 0.931 . S
C55 C54 1.347 . S
C55 C56 1.369 . S
C56 C55 1.369 . S
C56 C57 1.408 . S
C56 H78 0.930 . S
C57 C52 1.348 . S
C57 C56 1.408 . S
C57 H79 0.930 . S
C58 O68 1.281 . S
C58 O69 1.254 . S
C59 O70 1.236 1_545 S
C59 O71 1.266 . S
O60 Tb40 2.484 . S
O60 C42 1.248 . S
O61 Tb40 2.440 . S
O61 C42 1.266 . S
O62 Tb40 2.658 . S
O62 Tb41 2.325 1_445 S
O62 C49 1.281 . S
O63 Tb40 2.409 . S
O63 C49 1.254 . S
O64 Tb40 2.378 . S
O64 C50 1.236 1_545 S
O65 Tb41 2.341 1_455 S
O65 C50 1.266 . S
O66 Tb41 2.484 . S
O66 C51 1.248 . S
O67 Tb41 2.440 . S
O67 C51 1.266 . S
O68 Tb40 2.325 1_665 S
O68 Tb41 2.658 . S
O68 C58 1.281 . S
O69 Tb41 2.409 . S
O69 C58 1.254 . S
O70 Tb41 2.378 . S
O70 C59 1.236 1_565 S
O71 Tb40 2.341 1_655 S
O71 C59 1.266 . S
H72 C44 0.929 . S
H73 C45 0.931 . S
H74 C47 0.930 . S
H75 C48 0.930 . S
H76 C53 0.929 1_545 S
H77 C54 0.931 . S
H78 C56 0.930 . S
H79 C57 0.930 . S
Zn80 O86 1.920 . S
Zn80 O92 1.898 . S
Zn80 O95 1.905 . S
Zn81 O89 1.905 . S
Zn81 O90 1.898 . S
Zn81 O98 1.920 . S
Zn82 O85 2.080 . S
Zn82 O88 2.114 . S
Zn82 O91 2.120 . S
Zn82 O93 2.120 . S
Zn82 O94 2.114 . S
Zn82 O97 2.080 . S
C83 O88 1.166 . S
C83 O89 1.182 . S
C84 O90 1.167 . S
C84 O91 1.299 . S
O85 Zn82 2.080 . S
O85 C99 1.305 . S
O86 Zn80 1.920 . S
O86 C99 1.234 . S
C87 O92 1.167 . S
C87 O93 1.299 . S
O88 Zn82 2.114 . S
O88 C83 1.166 . S
O89 Zn81 1.905 . S
O89 C83 1.182 . S
O90 Zn81 1.898 . S
O90 C84 1.167 . S
O91 Zn82 2.120 . S
O91 C84 1.299 . S
O92 Zn80 1.898 . S
O92 C87 1.167 . S
O93 Zn82 2.120 . S
O93 C87 1.299 . S
O94 Zn82 2.114 . S
O94 C96 1.166 . S
O95 Zn80 1.905 . S
O95 C96 1.182 . S
C96 O94 1.166 . S
C96 O95 1.182 . S
O97 Zn82 2.080 . S
O97 C100 1.305 . S
O98 Zn81 1.920 . S
O98 C100 1.234 . S
C99 O85 1.305 . S
C99 O86 1.234 . S
C100 O97 1.305 . S
C100 O98 1.234 . S
Zn101 O107 1.920 . S
Zn101 O113 1.898 . S
Zn101 O116 1.905 . S
Zn102 O110 1.905 . S
Zn102 O111 1.898 . S
Zn102 O119 1.920 . S
Zn103 O106 2.080 . S
Zn103 O109 2.114 . S
Zn103 O112 2.120 . S
Zn103 O114 2.120 . S
Zn103 O115 2.114 . S
Zn103 O118 2.080 . S
C104 O109 1.166 . S
C104 O110 1.182 . S
C105 O111 1.167 . S
C105 O112 1.299 . S
O106 Zn103 2.080 . S
O106 C120 1.305 . S
O107 Zn101 1.920 . S
O107 C120 1.234 . S
C108 O113 1.167 . S
C108 O114 1.299 . S
O109 Zn103 2.114 . S
O109 C104 1.166 . S
O110 Zn102 1.905 . S
O110 C104 1.182 . S
O111 Zn102 1.898 . S
O111 C105 1.167 . S
O112 Zn103 2.120 . S
O112 C105 1.299 . S
O113 Zn101 1.898 . S
O113 C108 1.167 . S
O114 Zn103 2.120 . S
O114 C108 1.299 . S
O115 Zn103 2.114 . S
O115 C117 1.166 . S
O116 Zn101 1.905 . S
O116 C117 1.182 . S
C117 O115 1.166 . S
C117 O116 1.182 . S
O118 Zn103 2.080 . S
O118 C121 1.305 . S
O119 Zn102 1.920 . S
O119 C121 1.234 . S
C120 O106 1.305 . S
C120 O107 1.234 . S
C121 O118 1.305 . S
C121 O119 1.234 . S
H122 C134 0.930 . S
H123 C136 0.914 1_655 S
H124 C137 0.930 . S
H125 C141 0.959 . S
H126 C141 0.959 . S
H127 C141 0.961 . S
H128 C142 0.960 . S
H129 C142 0.961 . S
H130 C142 0.959 . S
H131 C145 0.929 . S
H132 C146 0.931 . S
H133 C148 0.930 . S
C134 H122 0.930 . S
C134 C135 1.399 . S
C134 C139 1.399 . S
C135 C134 1.399 . S
C135 C136 1.376 . S
C136 H123 0.914 1_455 S
C136 C135 1.376 . S
C136 C137 1.388 . S
C137 H124 0.930 . S
C137 C136 1.388 . S
C137 C138 1.390 . S
C138 C137 1.390 . S
C138 C139 1.394 . S
C138 C144 1.465 . S
C139 C134 1.399 . S
C139 C138 1.394 . S
C139 C140 1.516 . S
C140 C139 1.516 . S
C140 C141 1.502 . S
C140 C142 1.561 . S
C140 C143 1.526 . S
C141 H125 0.959 . S
C141 H126 0.959 . S
C141 H127 0.961 . S
C141 C140 1.502 . S
C142 H128 0.960 . S
C142 H129 0.961 . S
C142 H130 0.959 . S
C142 C140 1.561 . S
C143 C140 1.526 . S
C143 C144 1.396 . S
C143 C148 1.390 . S
C144 C138 1.465 . S
C144 C143 1.396 . S
C144 C145 1.399 . S
C145 H131 0.929 . S
C145 C144 1.399 . S
C145 C146 1.385 . S
C146 H132 0.931 . S
C146 C145 1.385 . S
C146 C147 1.389 . S
C147 C146 1.389 . S
C147 C148 1.387 . S
C148 H133 0.930 . S
C148 C143 1.390 . S
C148 C147 1.387 . S
H149 C161 0.930 . S
H150 C163 0.930 . S
H151 C164 0.930 . S
H152 C168 0.959 . S
H153 C168 0.959 . S
H154 C168 0.961 . S
H155 C169 0.960 . S
H156 C169 0.961 . S
H157 C169 0.959 . S
H158 C172 0.929 . S
H159 C173 0.931 . S
H160 C175 0.930 . S
C161 H149 0.930 . S
C161 C162 1.399 . S
C161 C166 1.399 . S
C162 C161 1.399 . S
C162 C163 1.376 . S
C163 H150 0.930 . S
C163 C162 1.376 . S
C163 C164 1.388 . S
C164 H151 0.930 . S
C164 C163 1.388 . S
C164 C165 1.390 . S
C165 C164 1.390 . S
C165 C166 1.394 . S
C165 C171 1.465 . S
C166 C161 1.399 . S
C166 C165 1.394 . S
C166 C167 1.516 . S
C167 C166 1.516 . S
C167 C168 1.502 . S
C167 C169 1.561 . S
C167 C170 1.526 . S
C168 H152 0.959 . S
C168 H153 0.959 . S
C168 H154 0.961 . S
C168 C167 1.502 . S
C169 H155 0.960 . S
C169 H156 0.961 . S
C169 H157 0.959 . S
C169 C167 1.561 . S
C170 C167 1.526 . S
C170 C171 1.396 . S
C170 C175 1.390 . S
C171 C165 1.465 . S
C171 C170 1.396 . S
C171 C172 1.399 . S
C172 H158 0.929 . S
C172 C171 1.399 . S
C172 C173 1.385 . S
C173 H159 0.931 . S
C173 C172 1.385 . S
C173 C174 1.389 . S
C174 C173 1.389 . S
C174 C175 1.387 . S
C175 H160 0.930 . S
C175 C170 1.390 . S
C175 C174 1.387 . S
H176 C188 0.930 . S
H177 C190 0.930 1_655 S
H178 C191 0.930 . S
H179 C195 0.959 . S
H180 C195 0.959 . S
H181 C195 0.961 . S
H182 C196 0.960 . S
H183 C196 0.961 . S
H184 C196 0.959 . S
H185 C199 0.929 . S
H186 C200 0.931 . S
H187 C202 0.930 . S
C188 H176 0.930 . S
C188 C189 1.399 . S
C188 C193 1.399 . S
C189 C188 1.399 . S
C189 C190 1.376 . S
C190 H177 0.930 1_455 S
C190 C189 1.376 . S
C190 C191 1.388 . S
C191 H178 0.930 . S
C191 C190 1.388 . S
C191 C192 1.390 . S
C192 C191 1.390 . S
C192 C193 1.394 . S
C192 C198 1.465 . S
C193 C188 1.399 . S
C193 C192 1.394 . S
C193 C194 1.516 . S
C194 C193 1.516 . S
C194 C195 1.502 . S
C194 C196 1.561 . S
C194 C197 1.526 . S
C195 H179 0.959 . S
C195 H180 0.959 . S
C195 H181 0.961 . S
C195 C194 1.502 . S
C196 H182 0.960 . S
C196 H183 0.961 . S
C196 H184 0.959 . S
C196 C194 1.561 . S
C197 C194 1.526 . S
C197 C198 1.396 . S
C197 C202 1.390 . S
C198 C192 1.465 . S
C198 C197 1.396 . S
C198 C199 1.399 . S
C199 H185 0.929 . S
C199 C198 1.399 . S
C199 C200 1.385 . S
C200 H186 0.931 . S
C200 C199 1.385 . S
C200 C201 1.389 . S
C201 C200 1.389 . S
C201 C202 1.387 . S
C202 H187 0.930 . S
C202 C197 1.390 . S
C202 C201 1.387 . S
H203 C215 0.930 . S
H204 C217 0.930 . S
H205 C218 0.930 . S
H206 C222 0.959 . S
H207 C222 0.959 . S
H208 C222 0.961 . S
H209 C223 0.960 . S
H210 C223 0.961 . S
H211 C223 0.959 . S
H212 C226 0.929 . S
H213 C227 0.931 . S
H214 C229 0.930 . S
C215 H203 0.930 . S
C215 C216 1.399 . S
C215 C220 1.399 . S
C216 C215 1.399 . S
C216 C217 1.376 . S
C217 H204 0.930 . S
C217 C216 1.376 . S
C217 C218 1.388 . S
C218 H205 0.930 . S
C218 C217 1.388 . S
C218 C219 1.390 . S
C219 C218 1.390 . S
C219 C220 1.394 . S
C219 C225 1.465 . S
C220 C215 1.399 . S
C220 C219 1.394 . S
C220 C221 1.516 . S
C221 C220 1.516 . S
C221 C222 1.502 . S
C221 C223 1.561 . S
C221 C224 1.526 . S
C222 H206 0.959 . S
C222 H207 0.959 . S
C222 H208 0.961 . S
C222 C221 1.502 . S
C223 H209 0.960 . S
C223 H210 0.961 . S
C223 H211 0.959 . S
C223 C221 1.561 . S
C224 C221 1.526 . S
C224 C225 1.396 . S
C224 C229 1.390 . S
C225 C219 1.465 . S
C225 C224 1.396 . S
C225 C226 1.399 . S
C226 H212 0.929 . S
C226 C225 1.399 . S
C226 C227 1.385 . S
C227 H213 0.931 . S
C227 C226 1.385 . S
C227 C228 1.389 . S
C228 C227 1.389 . S
C228 C229 1.387 . S
C229 H214 0.930 . S
C229 C224 1.390 . S
C229 C228 1.387 . S
H230 C242 0.930 . S
H231 C244 0.930 . S
H232 C245 0.930 . S
H233 C249 0.959 . S
H234 C249 0.959 . S
H235 C249 0.961 . S
H236 C250 0.960 . S
H237 C250 0.961 . S
H238 C250 0.959 . S
H239 C253 0.929 . S
H240 C254 0.931 . S
H241 C256 0.930 . S
C242 H230 0.930 . S
C242 C243 1.399 . S
C242 C247 1.399 . S
C243 C242 1.399 . S
C243 C244 1.376 . S
C244 H231 0.930 . S
C244 C243 1.376 . S
C244 C245 1.388 . S
C245 H232 0.930 . S
C245 C244 1.388 . S
C245 C246 1.390 . S
C246 C245 1.390 . S
C246 C247 1.394 . S
C246 C252 1.465 . S
C247 C242 1.399 . S
C247 C246 1.394 . S
C247 C248 1.516 . S
C248 C247 1.516 . S
C248 C249 1.502 . S
C248 C250 1.561 . S
C248 C251 1.526 . S
C249 H233 0.959 . S
C249 H234 0.959 . S
C249 H235 0.961 . S
C249 C248 1.502 . S
C250 H236 0.960 . S
C250 H237 0.961 . S
C250 H238 0.959 . S
C250 C248 1.561 . S
C251 C248 1.526 . S
C251 C252 1.396 . S
C251 C256 1.390 . S
C252 C246 1.465 . S
C252 C251 1.396 . S
C252 C253 1.399 . S
C253 H239 0.929 . S
C253 C252 1.399 . S
C253 C254 1.385 . S
C254 H240 0.931 . S
C254 C253 1.385 . S
C254 C255 1.389 . S
C255 C254 1.389 . S
C255 C256 1.387 . S
C256 H241 0.930 . S
C256 C251 1.390 . S
C256 C255 1.387 . S
H257 C269 0.930 . S
H258 C271 0.930 . S
H259 C272 0.930 . S
H260 C276 0.959 . S
H261 C276 0.959 . S
H262 C276 0.961 . S
H263 C277 0.960 . S
H264 C277 0.961 . S
H265 C277 0.959 . S
H266 C280 0.929 . S
H267 C281 0.931 . S
H268 C283 0.930 . S
C269 H257 0.930 . S
C269 C270 1.399 . S
C269 C274 1.399 . S
C270 C269 1.399 . S
C270 C271 1.376 . S
C271 H258 0.930 . S
C271 C270 1.376 . S
C271 C272 1.388 . S
C272 H259 0.930 . S
C272 C271 1.388 . S
C272 C273 1.390 . S
C273 C272 1.390 . S
C273 C274 1.394 . S
C273 C279 1.465 . S
C274 C269 1.399 . S
C274 C273 1.394 . S
C274 C275 1.516 . S
C275 C274 1.516 . S
C275 C276 1.502 . S
C275 C277 1.561 . S
C275 C278 1.526 . S
C276 H260 0.959 . S
C276 H261 0.959 . S
C276 H262 0.961 . S
C276 C275 1.502 . S
C277 H263 0.960 . S
C277 H264 0.961 . S
C277 H265 0.959 . S
C277 C275 1.561 . S
C278 C275 1.526 . S
C278 C279 1.396 . S
C278 C283 1.390 . S
C279 C273 1.465 . S
C279 C278 1.396 . S
C279 C280 1.399 . S
C280 H266 0.929 . S
C280 C279 1.399 . S
C280 C281 1.385 . S
C281 H267 0.931 . S
C281 C280 1.385 . S
C281 C282 1.389 . S
C282 C281 1.389 . S
C282 C283 1.387 . S
C283 H268 0.930 . S
C283 C278 1.390 . S
C283 C282 1.387 . S
H284 C296 0.930 . S
H285 C298 0.930 1_545 S
H286 C299 0.930 . S
H287 C303 0.959 . S
H288 C303 0.959 . S
H289 C303 0.961 . S
H290 C304 0.960 . S
H291 C304 0.961 . S
H292 C304 0.959 . S
H293 C307 0.929 . S
H294 C308 0.931 . S
H295 C310 0.930 . S
C296 H284 0.930 . S
C296 C297 1.399 . S
C296 C301 1.399 . S
C297 C296 1.399 . S
C297 C298 1.376 . S
C298 H285 0.930 1_565 S
C298 C297 1.376 . S
C298 C299 1.388 . S
C299 H286 0.930 . S
C299 C298 1.388 . S
C299 C300 1.390 . S
C300 C299 1.390 . S
C300 C301 1.394 . S
C300 C306 1.465 . S
C301 C296 1.399 . S
C301 C300 1.394 . S
C301 C302 1.516 . S
C302 C301 1.516 . S
C302 C303 1.502 . S
C302 C304 1.561 . S
C302 C305 1.526 . S
C303 H287 0.959 . S
C303 H288 0.959 . S
C303 H289 0.961 . S
C303 C302 1.502 . S
C304 H290 0.960 . S
C304 H291 0.961 . S
C304 H292 0.959 . S
C304 C302 1.561 . S
C305 C302 1.526 . S
C305 C306 1.396 . S
C305 C310 1.390 . S
C306 C300 1.465 . S
C306 C305 1.396 . S
C306 C307 1.399 . S
C307 H293 0.929 . S
C307 C306 1.399 . S
C307 C308 1.385 . S
C308 H294 0.931 . S
C308 C307 1.385 . S
C308 C309 1.389 . S
C309 C308 1.389 . S
C309 C310 1.387 . S
C310 H295 0.930 . S
C310 C305 1.390 . S
C310 C309 1.387 . S
H311 C323 0.930 . S
H312 C325 0.930 . S
H313 C326 0.930 . S
H314 C330 0.959 . S
H315 C330 0.959 . S
H316 C330 0.961 . S
H317 C331 0.960 . S
H318 C331 0.961 . S
H319 C331 0.959 . S
H320 C334 0.929 . S
H321 C335 0.931 . S
H322 C337 0.930 . S
C323 H311 0.930 . S
C323 C324 1.399 . S
C323 C328 1.399 . S
C324 C323 1.399 . S
C324 C325 1.376 . S
C325 H312 0.930 . S
C325 C324 1.376 . S
C325 C326 1.388 . S
C326 H313 0.930 . S
C326 C325 1.388 . S
C326 C327 1.390 . S
C327 C326 1.390 . S
C327 C328 1.394 . S
C327 C333 1.465 . S
C328 C323 1.399 . S
C328 C327 1.394 . S
C328 C329 1.516 . S
C329 C328 1.516 . S
C329 C330 1.502 . S
C329 C331 1.561 . S
C329 C332 1.526 . S
C330 H314 0.959 . S
C330 H315 0.959 . S
C330 H316 0.961 . S
C330 C329 1.502 . S
C331 H317 0.960 . S
C331 H318 0.961 . S
C331 H319 0.959 . S
C331 C329 1.561 . S
C332 C329 1.526 . S
C332 C333 1.396 . S
C332 C337 1.390 . S
C333 C327 1.465 . S
C333 C332 1.396 . S
C333 C334 1.399 . S
C334 H320 0.929 . S
C334 C333 1.399 . S
C334 C335 1.385 . S
C335 H321 0.931 . S
C335 C334 1.385 . S
C335 C336 1.389 . S
C336 C335 1.389 . S
C336 C337 1.387 . S
C337 H322 0.930 . S
C337 C332 1.390 . S
C337 C336 1.387 . S
H338 C350 0.930 . S
H339 C352 0.930 . S
H340 C353 0.930 . S
H341 C357 0.959 . S
H342 C357 0.959 . S
H343 C357 0.961 . S
H344 C358 0.960 1_655 S
H345 C358 0.961 1_655 S
H346 C358 0.959 . S
H347 C361 0.929 . S
H348 C362 0.931 . S
H349 C364 0.930 . S
C350 H338 0.930 . S
C350 C351 1.399 . S
C350 C355 1.399 . S
C351 C350 1.399 . S
C351 C352 1.376 . S
C352 H339 0.930 . S
C352 C351 1.376 . S
C352 C353 1.388 . S
C353 H340 0.930 . S
C353 C352 1.388 . S
C353 C354 1.390 . S
C354 C353 1.390 . S
C354 C355 1.394 . S
C354 C360 1.465 . S
C355 C350 1.399 . S
C355 C354 1.394 . S
C355 C356 1.516 . S
C356 C355 1.516 . S
C356 C357 1.502 . S
C356 C358 1.561 . S
C356 C359 1.526 . S
C357 H341 0.959 . S
C357 H342 0.959 . S
C357 H343 0.961 . S
C357 C356 1.502 . S
C358 H344 0.960 1_455 S
C358 H345 0.961 1_455 S
C358 H346 0.959 . S
C358 C356 1.561 . S
C359 C356 1.526 . S
C359 C360 1.396 . S
C359 C364 1.390 . S
C360 C354 1.465 . S
C360 C359 1.396 . S
C360 C361 1.399 . S
C361 H347 0.929 . S
C361 C360 1.399 . S
C361 C362 1.385 . S
C362 H348 0.931 . S
C362 C361 1.385 . S
C362 C363 1.389 . S
C363 C362 1.389 . S
C363 C364 1.387 . S
C364 H349 0.930 . S
C364 C359 1.390 . S
C364 C363 1.387 . S
H365 C377 0.930 . S
H366 C379 0.930 . S
H367 C380 0.930 . S
H368 C384 0.959 . S
H369 C384 0.959 . S
H370 C384 0.961 . S
H371 C385 0.960 . S
H372 C385 0.961 . S
H373 C385 0.959 . S
H374 C388 0.929 . S
H375 C389 0.931 . S
H376 C391 0.930 . S
C377 H365 0.930 . S
C377 C378 1.399 . S
C377 C382 1.399 . S
C378 C377 1.399 . S
C378 C379 1.376 . S
C379 H366 0.930 . S
C379 C378 1.376 . S
C379 C380 1.388 . S
C380 H367 0.930 . S
C380 C379 1.388 . S
C380 C381 1.390 . S
C381 C380 1.390 . S
C381 C382 1.394 . S
C381 C387 1.465 . S
C382 C377 1.399 . S
C382 C381 1.394 . S
C382 C383 1.516 . S
C383 C382 1.516 . S
C383 C384 1.502 . S
C383 C385 1.561 . S
C383 C386 1.526 . S
C384 H368 0.959 . S
C384 H369 0.959 . S
C384 H370 0.961 . S
C384 C383 1.502 . S
C385 H371 0.960 . S
C385 H372 0.961 . S
C385 H373 0.959 . S
C385 C383 1.561 . S
C386 C383 1.526 . S
C386 C387 1.396 . S
C386 C391 1.390 . S
C387 C381 1.465 . S
C387 C386 1.396 . S
C387 C388 1.399 . S
C388 H374 0.929 . S
C388 C387 1.399 . S
C388 C389 1.385 . S
C389 H375 0.931 . S
C389 C388 1.385 . S
C389 C390 1.389 . S
C390 C389 1.389 . S
C390 C391 1.387 . S
C391 H376 0.930 . S
C391 C386 1.390 . S
C391 C390 1.387 . S
H392 C404 0.930 . S
H393 C406 0.930 . S
H394 C407 0.930 . S
H395 C411 0.959 . S
H396 C411 0.959 . S
H397 C411 0.961 . S
H398 C412 0.960 . S
H399 C412 0.961 . S
H400 C412 0.959 . S
H401 C415 0.929 . S
H402 C416 0.931 . S
H403 C418 0.930 . S
C404 H392 0.930 . S
C404 C405 1.399 . S
C404 C409 1.399 . S
C405 C404 1.399 . S
C405 C406 1.376 . S
C406 H393 0.930 . S
C406 C405 1.376 . S
C406 C407 1.388 . S
C407 H394 0.930 . S
C407 C406 1.388 . S
C407 C408 1.390 . S
C408 C407 1.390 . S
C408 C409 1.394 . S
C408 C414 1.465 . S
C409 C404 1.399 . S
C409 C408 1.394 . S
C409 C410 1.516 . S
C410 C409 1.516 . S
C410 C411 1.502 . S
C410 C412 1.561 . S
C410 C413 1.526 . S
C411 H395 0.959 . S
C411 H396 0.959 . S
C411 H397 0.961 . S
C411 C410 1.502 . S
C412 H398 0.960 . S
C412 H399 0.961 . S
C412 H400 0.959 . S
C412 C410 1.561 . S
C413 C410 1.526 . S
C413 C414 1.396 . S
C413 C418 1.390 . S
C414 C408 1.465 . S
C414 C413 1.396 . S
C414 C415 1.399 . S
C415 H401 0.929 . S
C415 C414 1.399 . S
C415 C416 1.385 . S
C416 H402 0.931 . S
C416 C415 1.385 . S
C416 C417 1.389 . S
C417 C416 1.389 . S
C417 C418 1.387 . S
C418 H403 0.930 . S
C418 C413 1.390 . S
C418 C417 1.387 . S
H419 C431 0.930 . S
H420 C433 0.930 . S
H421 C434 0.930 . S
H422 C438 0.959 . S
H423 C438 0.959 . S
H424 C438 0.961 . S
H425 C439 0.960 . S
H426 C439 0.961 . S
H427 C439 0.959 . S
H428 C442 0.929 . S
H429 C443 0.931 . S
H430 C445 0.930 . S
C431 H419 0.930 . S
C431 C432 1.399 . S
C431 C436 1.399 . S
C432 C431 1.399 . S
C432 C433 1.376 . S
C433 H420 0.930 . S
C433 C432 1.376 . S
C433 C434 1.388 . S
C434 H421 0.930 . S
C434 C433 1.388 . S
C434 C435 1.390 . S
C435 C434 1.390 . S
C435 C436 1.394 . S
C435 C441 1.465 . S
C436 C431 1.399 . S
C436 C435 1.394 . S
C436 C437 1.516 . S
C437 C436 1.516 . S
C437 C438 1.502 . S
C437 C439 1.561 . S
C437 C440 1.526 . S
C438 H422 0.959 . S
C438 H423 0.959 . S
C438 H424 0.961 . S
C438 C437 1.502 . S
C439 H425 0.960 . S
C439 H426 0.961 . S
C439 H427 0.959 . S
C439 C437 1.561 . S
C440 C437 1.526 . S
C440 C441 1.396 . S
C440 C445 1.390 . S
C441 C435 1.465 . S
C441 C440 1.396 . S
C441 C442 1.399 . S
C442 H428 0.929 . S
C442 C441 1.399 . S
C442 C443 1.385 . S
C443 H429 0.931 . S
C443 C442 1.385 . S
C443 C444 1.389 . S
C444 C443 1.389 . S
C444 C445 1.387 . S
C445 H430 0.930 . S
C445 C440 1.390 . S
C445 C444 1.387 . S
C135 C15 1.313 . S
C147 C99 1.208 . S
C162 C46 0.970 . S
C174 C105 1.005 . S
C189 C10 1.370 . S
C201 C96 1.276 . S
C216 C59 2.108 . S
C228 C121 2.006 . S
C243 C18 2.027 . S
C255 C87 1.996 . S
C282 C104 1.859 . S
C270 C58 1.931 . S
C297 C50 1.849 . S
C309 C100 1.809 . S
C336 C117 2.090 . S
C324 C9 2.207 . S
C363 C84 2.027 . S
C351 C49 2.217 . S
C390 C120 1.242 . S
C378 C6 1.414 . S
C417 C83 0.973 . S
C405 C55 1.049 . S
C444 C108 0.994 . S
C432 C19 1.146 . S
