# Generated by pormake.
# Topology gar, (4,6)-cn, num edge types: 1
# Building blocks:
#     Node 0, Type 0, BuildingBlock: CEKHIL_clean_sbu_0, # of connection points: 4
#     Node 1, Type 0, BuildingBlock: CEKHIL_clean_sbu_0, # of connection points: 4
#     Node 2, Type 0, BuildingBlock: CEKHIL_clean_sbu_0, # of connection points: 4
#     Node 3, Type 0, BuildingBlock: CEKHIL_clean_sbu_0, # of connection points: 4
#     Node 4, Type 0, BuildingBlock: CEKHIL_clean_sbu_0, # of connection points: 4
#     Node 5, Type 0, BuildingBlock: CEKHIL_clean_sbu_0, # of connection points: 4
#     Node 6, Type 0, BuildingBlock: CEKHIL_clean_sbu_0, # of connection points: 4
#     Node 7, Type 0, BuildingBlock: CEKHIL_clean_sbu_0, # of connection points: 4
#     Node 8, Type 0, BuildingBlock: CEKHIL_clean_sbu_0, # of connection points: 4
#     Node 9, Type 0, BuildingBlock: CEKHIL_clean_sbu_0, # of connection points: 4
#     Node 10, Type 0, BuildingBlock: CEKHIL_clean_sbu_0, # of connection points: 4
#     Node 11, Type 0, BuildingBlock: CEKHIL_clean_sbu_0, # of connection points: 4
#     Node 12, Type 0, BuildingBlock: CEKHIL_clean_sbu_0, # of connection points: 4
#     Node 13, Type 0, BuildingBlock: CEKHIL_clean_sbu_0, # of connection points: 4
#     Node 14, Type 0, BuildingBlock: CEKHIL_clean_sbu_0, # of connection points: 4
#     Node 15, Type 0, BuildingBlock: CEKHIL_clean_sbu_0, # of connection points: 4
#     Node 16, Type 0, BuildingBlock: CEKHIL_clean_sbu_0, # of connection points: 4
#     Node 17, Type 0, BuildingBlock: CEKHIL_clean_sbu_0, # of connection points: 4
#     Node 18, Type 0, BuildingBlock: CEKHIL_clean_sbu_0, # of connection points: 4
#     Node 19, Type 0, BuildingBlock: CEKHIL_clean_sbu_0, # of connection points: 4
#     Node 20, Type 0, BuildingBlock: CEKHIL_clean_sbu_0, # of connection points: 4
#     Node 21, Type 0, BuildingBlock: CEKHIL_clean_sbu_0, # of connection points: 4
#     Node 22, Type 0, BuildingBlock: CEKHIL_clean_sbu_0, # of connection points: 4
#     Node 23, Type 0, BuildingBlock: CEKHIL_clean_sbu_0, # of connection points: 4
#     Node 24, Type 1, BuildingBlock: BETDEL_clean_sbu_0, # of connection points: 6
#     Node 25, Type 1, BuildingBlock: BETDEL_clean_sbu_0, # of connection points: 6
#     Node 26, Type 1, BuildingBlock: BETDEL_clean_sbu_0, # of connection points: 6
#     Node 27, Type 1, BuildingBlock: BETDEL_clean_sbu_0, # of connection points: 6
#     Node 28, Type 1, BuildingBlock: BETDEL_clean_sbu_0, # of connection points: 6
#     Node 29, Type 1, BuildingBlock: BETDEL_clean_sbu_0, # of connection points: 6
#     Node 30, Type 1, BuildingBlock: BETDEL_clean_sbu_0, # of connection points: 6
#     Node 31, Type 1, BuildingBlock: BETDEL_clean_sbu_0, # of connection points: 6
#     Node 32, Type 1, BuildingBlock: BETDEL_clean_sbu_0, # of connection points: 6
#     Node 33, Type 1, BuildingBlock: BETDEL_clean_sbu_0, # of connection points: 6
#     Node 34, Type 1, BuildingBlock: BETDEL_clean_sbu_0, # of connection points: 6
#     Node 35, Type 1, BuildingBlock: BETDEL_clean_sbu_0, # of connection points: 6
#     Node 36, Type 1, BuildingBlock: BETDEL_clean_sbu_0, # of connection points: 6
#     Node 37, Type 1, BuildingBlock: BETDEL_clean_sbu_0, # of connection points: 6
#     Node 38, Type 1, BuildingBlock: BETDEL_clean_sbu_0, # of connection points: 6
#     Node 39, Type 1, BuildingBlock: BETDEL_clean_sbu_0, # of connection points: 6
#     Edge 40, Type (0, 1), BuildingBlock: OJICUG_clean_linker_0, # of connection points: 2
#     Edge 41, Type (0, 1), BuildingBlock: OJICUG_clean_linker_0, # of connection points: 2
#     Edge 42, Type (0, 1), BuildingBlock: OJICUG_clean_linker_0, # of connection points: 2
#     Edge 43, Type (0, 1), BuildingBlock: OJICUG_clean_linker_0, # of connection points: 2
#     Edge 44, Type (0, 1), BuildingBlock: OJICUG_clean_linker_0, # of connection points: 2
#     Edge 45, Type (0, 1), BuildingBlock: OJICUG_clean_linker_0, # of connection points: 2
#     Edge 46, Type (0, 1), BuildingBlock: OJICUG_clean_linker_0, # of connection points: 2
#     Edge 47, Type (0, 1), BuildingBlock: OJICUG_clean_linker_0, # of connection points: 2
#     Edge 48, Type (0, 1), BuildingBlock: OJICUG_clean_linker_0, # of connection points: 2
#     Edge 49, Type (0, 1), BuildingBlock: OJICUG_clean_linker_0, # of connection points: 2
#     Edge 50, Type (0, 1), BuildingBlock: OJICUG_clean_linker_0, # of connection points: 2
#     Edge 51, Type (0, 1), BuildingBlock: OJICUG_clean_linker_0, # of connection points: 2
#     Edge 52, Type (0, 1), BuildingBlock: OJICUG_clean_linker_0, # of connection points: 2
#     Edge 53, Type (0, 1), BuildingBlock: OJICUG_clean_linker_0, # of connection points: 2
#     Edge 54, Type (0, 1), BuildingBlock: OJICUG_clean_linker_0, # of connection points: 2
#     Edge 55, Type (0, 1), BuildingBlock: OJICUG_clean_linker_0, # of connection points: 2
#     Edge 56, Type (0, 1), BuildingBlock: OJICUG_clean_linker_0, # of connection points: 2
#     Edge 57, Type (0, 1), BuildingBlock: OJICUG_clean_linker_0, # of connection points: 2
#     Edge 58, Type (0, 1), BuildingBlock: OJICUG_clean_linker_0, # of connection points: 2
#     Edge 59, Type (0, 1), BuildingBlock: OJICUG_clean_linker_0, # of connection points: 2
#     Edge 60, Type (0, 1), BuildingBlock: OJICUG_clean_linker_0, # of connection points: 2
#     Edge 61, Type (0, 1), BuildingBlock: OJICUG_clean_linker_0, # of connection points: 2
#     Edge 62, Type (0, 1), BuildingBlock: OJICUG_clean_linker_0, # of connection points: 2
#     Edge 63, Type (0, 1), BuildingBlock: OJICUG_clean_linker_0, # of connection points: 2
#     Edge 64, Type (0, 1), BuildingBlock: OJICUG_clean_linker_0, # of connection points: 2
#     Edge 65, Type (0, 1), BuildingBlock: OJICUG_clean_linker_0, # of connection points: 2
#     Edge 66, Type (0, 1), BuildingBlock: OJICUG_clean_linker_0, # of connection points: 2
#     Edge 67, Type (0, 1), BuildingBlock: OJICUG_clean_linker_0, # of connection points: 2
#     Edge 68, Type (0, 1), BuildingBlock: OJICUG_clean_linker_0, # of connection points: 2
#     Edge 69, Type (0, 1), BuildingBlock: OJICUG_clean_linker_0, # of connection points: 2
#     Edge 70, Type (0, 1), BuildingBlock: OJICUG_clean_linker_0, # of connection points: 2
#     Edge 71, Type (0, 1), BuildingBlock: OJICUG_clean_linker_0, # of connection points: 2
#     Edge 72, Type (0, 1), BuildingBlock: OJICUG_clean_linker_0, # of connection points: 2
#     Edge 73, Type (0, 1), BuildingBlock: OJICUG_clean_linker_0, # of connection points: 2
#     Edge 74, Type (0, 1), BuildingBlock: OJICUG_clean_linker_0, # of connection points: 2
#     Edge 75, Type (0, 1), BuildingBlock: OJICUG_clean_linker_0, # of connection points: 2
#     Edge 76, Type (0, 1), BuildingBlock: OJICUG_clean_linker_0, # of connection points: 2
#     Edge 77, Type (0, 1), BuildingBlock: OJICUG_clean_linker_0, # of connection points: 2
#     Edge 78, Type (0, 1), BuildingBlock: OJICUG_clean_linker_0, # of connection points: 2
#     Edge 79, Type (0, 1), BuildingBlock: OJICUG_clean_linker_0, # of connection points: 2
#     Edge 80, Type (0, 1), BuildingBlock: OJICUG_clean_linker_0, # of connection points: 2
#     Edge 81, Type (0, 1), BuildingBlock: OJICUG_clean_linker_0, # of connection points: 2
#     Edge 82, Type (0, 1), BuildingBlock: OJICUG_clean_linker_0, # of connection points: 2
#     Edge 83, Type (0, 1), BuildingBlock: OJICUG_clean_linker_0, # of connection points: 2
#     Edge 84, Type (0, 1), BuildingBlock: OJICUG_clean_linker_0, # of connection points: 2
#     Edge 85, Type (0, 1), BuildingBlock: OJICUG_clean_linker_0, # of connection points: 2
#     Edge 86, Type (0, 1), BuildingBlock: OJICUG_clean_linker_0, # of connection points: 2
#     Edge 87, Type (0, 1), BuildingBlock: OJICUG_clean_linker_0, # of connection points: 2
#     Edge 88, Type (0, 1), BuildingBlock: OJICUG_clean_linker_0, # of connection points: 2
#     Edge 89, Type (0, 1), BuildingBlock: OJICUG_clean_linker_0, # of connection points: 2
#     Edge 90, Type (0, 1), BuildingBlock: OJICUG_clean_linker_0, # of connection points: 2
#     Edge 91, Type (0, 1), BuildingBlock: OJICUG_clean_linker_0, # of connection points: 2
#     Edge 92, Type (0, 1), BuildingBlock: OJICUG_clean_linker_0, # of connection points: 2
#     Edge 93, Type (0, 1), BuildingBlock: OJICUG_clean_linker_0, # of connection points: 2
#     Edge 94, Type (0, 1), BuildingBlock: OJICUG_clean_linker_0, # of connection points: 2
#     Edge 95, Type (0, 1), BuildingBlock: OJICUG_clean_linker_0, # of connection points: 2
#     Edge 96, Type (0, 1), BuildingBlock: OJICUG_clean_linker_0, # of connection points: 2
#     Edge 97, Type (0, 1), BuildingBlock: OJICUG_clean_linker_0, # of connection points: 2
#     Edge 98, Type (0, 1), BuildingBlock: OJICUG_clean_linker_0, # of connection points: 2
#     Edge 99, Type (0, 1), BuildingBlock: OJICUG_clean_linker_0, # of connection points: 2
#     Edge 100, Type (0, 1), BuildingBlock: OJICUG_clean_linker_0, # of connection points: 2
#     Edge 101, Type (0, 1), BuildingBlock: OJICUG_clean_linker_0, # of connection points: 2
#     Edge 102, Type (0, 1), BuildingBlock: OJICUG_clean_linker_0, # of connection points: 2
#     Edge 103, Type (0, 1), BuildingBlock: OJICUG_clean_linker_0, # of connection points: 2
#     Edge 104, Type (0, 1), BuildingBlock: OJICUG_clean_linker_0, # of connection points: 2
#     Edge 105, Type (0, 1), BuildingBlock: OJICUG_clean_linker_0, # of connection points: 2
#     Edge 106, Type (0, 1), BuildingBlock: OJICUG_clean_linker_0, # of connection points: 2
#     Edge 107, Type (0, 1), BuildingBlock: OJICUG_clean_linker_0, # of connection points: 2
#     Edge 108, Type (0, 1), BuildingBlock: OJICUG_clean_linker_0, # of connection points: 2
#     Edge 109, Type (0, 1), BuildingBlock: OJICUG_clean_linker_0, # of connection points: 2
#     Edge 110, Type (0, 1), BuildingBlock: OJICUG_clean_linker_0, # of connection points: 2
#     Edge 111, Type (0, 1), BuildingBlock: OJICUG_clean_linker_0, # of connection points: 2
#     Edge 112, Type (0, 1), BuildingBlock: OJICUG_clean_linker_0, # of connection points: 2
#     Edge 113, Type (0, 1), BuildingBlock: OJICUG_clean_linker_0, # of connection points: 2
#     Edge 114, Type (0, 1), BuildingBlock: OJICUG_clean_linker_0, # of connection points: 2
#     Edge 115, Type (0, 1), BuildingBlock: OJICUG_clean_linker_0, # of connection points: 2
#     Edge 116, Type (0, 1), BuildingBlock: OJICUG_clean_linker_0, # of connection points: 2
#     Edge 117, Type (0, 1), BuildingBlock: OJICUG_clean_linker_0, # of connection points: 2
#     Edge 118, Type (0, 1), BuildingBlock: OJICUG_clean_linker_0, # of connection points: 2
#     Edge 119, Type (0, 1), BuildingBlock: OJICUG_clean_linker_0, # of connection points: 2
#     Edge 120, Type (0, 1), BuildingBlock: OJICUG_clean_linker_0, # of connection points: 2
#     Edge 121, Type (0, 1), BuildingBlock: OJICUG_clean_linker_0, # of connection points: 2
#     Edge 122, Type (0, 1), BuildingBlock: OJICUG_clean_linker_0, # of connection points: 2
#     Edge 123, Type (0, 1), BuildingBlock: OJICUG_clean_linker_0, # of connection points: 2
#     Edge 124, Type (0, 1), BuildingBlock: OJICUG_clean_linker_0, # of connection points: 2
#     Edge 125, Type (0, 1), BuildingBlock: OJICUG_clean_linker_0, # of connection points: 2
#     Edge 126, Type (0, 1), BuildingBlock: OJICUG_clean_linker_0, # of connection points: 2
#     Edge 127, Type (0, 1), BuildingBlock: OJICUG_clean_linker_0, # of connection points: 2
#     Edge 128, Type (0, 1), BuildingBlock: OJICUG_clean_linker_0, # of connection points: 2
#     Edge 129, Type (0, 1), BuildingBlock: OJICUG_clean_linker_0, # of connection points: 2
#     Edge 130, Type (0, 1), BuildingBlock: OJICUG_clean_linker_0, # of connection points: 2
#     Edge 131, Type (0, 1), BuildingBlock: OJICUG_clean_linker_0, # of connection points: 2
#     Edge 132, Type (0, 1), BuildingBlock: OJICUG_clean_linker_0, # of connection points: 2
#     Edge 133, Type (0, 1), BuildingBlock: OJICUG_clean_linker_0, # of connection points: 2
#     Edge 134, Type (0, 1), BuildingBlock: OJICUG_clean_linker_0, # of connection points: 2
#     Edge 135, Type (0, 1), BuildingBlock: OJICUG_clean_linker_0, # of connection points: 2
# Relax obj value: 0.151
# Max RMSD: 0.280
# Mean RMSD: 0.146
data_MOF--net-gar--node1-CEKHIL_clean_sbu_0--node2-BETDEL_clean_sbu_0--edge1-OJICUG_clean_linker_0
_symmetry_space_group_name_H-M    P1
_symmetry_Int_Tables_number       1
_symmetry_cell_setting            triclinic
loop_
_symmetry_equiv_pos_as_xyz
'x, y, z'
_cell_length_a     41.174609
_cell_length_b     38.380882
_cell_length_c     39.332764
_cell_angle_alpha  95.101641
_cell_angle_beta   92.06186
_cell_angle_gamma 100.02088
loop_
_atom_site_label
_atom_site_type_symbol
_atom_site_fract_x
_atom_site_fract_y
_atom_site_fract_z
_atom_type_partial_charge
Co0 Co 0.06169 0.28752 0.39413 0.0
O1 O 0.10736 0.28075 0.39302 0.0
O2 O 0.07126 0.26778 0.34896 0.0
C3 C 0.07188 0.34296 0.42159 0.0
O4 O 1.01321 0.2926 0.3844 0.0
Co5 Co 0.02731 0.30102 0.46238 0.0
O6 O 0.99138 0.31214 0.43266 0.0
C7 C 0.04492 0.23095 0.44239 0.0
C8 C 0.10131 0.26902 0.36103 0.0
C9 C 0.98981 0.30449 0.40037 0.0
O10 O 0.04888 0.23857 0.41122 0.0
O11 O 0.03983 0.2536 0.46659 0.0
O12 O 0.07483 0.33867 0.38871 0.0
O13 O 0.06562 0.31417 0.43633 0.0
Co14 Co 1.00261 0.77608 0.62478 0.0
O15 O 0.95684 0.78238 0.62716 0.0
O16 O 0.98597 0.76745 0.6698 0.0
C17 C 0.01774 0.82681 0.59916 0.0
O18 O 0.05057 0.76873 0.63373 0.0
Co19 Co 0.03918 0.77165 0.55703 0.0
O20 O 0.07948 0.77241 0.58641 0.0
C21 C 0.99035 0.71059 0.57492 0.0
C22 C 0.95848 0.77606 0.65897 0.0
C23 C 0.07768 0.76849 0.61816 0.0
O24 O 0.98956 0.72425 0.60608 0.0
O25 O 1.00468 0.72758 0.55144 0.0
O26 O 0.01632 0.82799 0.63222 0.0
O27 O 1.00961 0.79579 0.58298 0.0
Co28 Co 0.56264 0.79045 0.89262 0.0
O29 O 0.60819 0.78373 0.88916 0.0
O30 O 0.57036 0.77159 0.84656 0.0
C31 C 0.57368 0.84564 0.92078 0.0
O32 O 0.51405 0.79553 0.88489 0.0
Co33 Co 0.53021 0.80327 0.96211 0.0
O34 O 0.49323 0.81449 0.93391 0.0
C35 C 0.54693 0.73306 0.9404 0.0
C36 C 0.60084 0.77279 0.85715 0.0
C37 C 0.49096 0.80709 0.9016 0.0
O38 O 0.55047 0.7411 0.90927 0.0
O39 O 0.54239 0.7555 0.96504 0.0
O40 O 0.57546 0.84174 0.88772 0.0
O41 O 0.56793 0.81662 0.93523 0.0
Co42 Co 0.50263 0.27807 0.12246 0.0
O43 O 0.45687 0.2843 0.12445 0.0
O44 O 0.48586 0.26962 0.16737 0.0
C45 C 0.51793 0.32862 0.09664 0.0
O46 O 0.55047 0.27069 0.13171 0.0
Co47 Co 0.53926 0.27315 0.05477 0.0
O48 O 0.57942 0.27388 0.08438 0.0
C49 C 0.49062 0.21222 0.07315 0.0
C50 C 0.45838 0.27805 0.15628 0.0
C51 C 0.57754 0.27016 0.11617 0.0
O52 O 0.48975 0.22619 0.10416 0.0
O53 O 0.50482 0.22901 0.04948 0.0
O54 O 0.51633 0.32998 0.12969 0.0
O55 O 0.50979 0.29753 0.08057 0.0
Co56 Co 0.05122 0.79543 0.14882 0.0
O57 O 1.00413 0.78077 0.14049 0.0
O58 O 0.03121 0.78012 0.18995 0.0
C59 C 0.05216 0.84555 0.122 0.0
O60 O 0.09842 0.80941 0.16977 0.0
Co61 Co 0.10215 0.80804 0.0942 0.0
O62 O 0.13595 0.82512 0.13167 0.0
C63 C 0.07386 0.73431 0.10766 0.0
C64 C 1.00309 0.77544 0.17265 0.0
C65 C 0.12834 0.82058 0.1622 0.0
O66 O 0.05877 0.7459 0.13335 0.0
O67 O 0.09057 0.75479 0.08812 0.0
O68 O 0.04466 0.84486 0.15379 0.0
O69 O 0.05894 0.81638 0.10741 0.0
Co70 Co 0.51709 0.77232 0.3813 0.0
O71 O 0.56433 0.78836 0.38581 0.0
O72 O 0.53693 0.7587 0.33964 0.0
C73 C 0.50391 0.82374 0.40444 0.0
O74 O 0.46922 0.75379 0.36449 0.0
Co75 Co 0.47141 0.76708 0.44185 0.0
O76 O 0.4354 0.76419 0.40609 0.0
C77 C 0.52009 0.71945 0.4326 0.0
C78 C 0.56493 0.77464 0.35443 0.0
C79 C 0.4403 0.75612 0.37478 0.0
O80 O 0.52259 0.72651 0.4012 0.0
O81 O 0.50338 0.73547 0.45372 0.0
O82 O 0.511 0.82036 0.37246 0.0
O83 O 0.50675 0.79709 0.42136 0.0
Co84 Co 0.55162 0.30052 0.64634 0.0
O85 O 0.50431 0.28686 0.6384 0.0
O86 O 0.53159 0.28616 0.68773 0.0
C87 C 0.55375 0.35051 0.61894 0.0
O88 O 0.59886 0.3135 0.66714 0.0
Co89 Co 0.60261 0.31111 0.59157 0.0
O90 O 0.63678 0.32712 0.6289 0.0
C91 C 0.57344 0.23807 0.60632 0.0
C92 C 0.5034 0.28182 0.67065 0.0
C93 C 0.62896 0.32333 0.6595 0.0
O94 O 0.55818 0.25046 0.63149 0.0
O95 O 0.59063 0.25787 0.58657 0.0
O96 O 0.54617 0.35034 0.65074 0.0
O97 O 0.55978 0.32087 0.60462 0.0
Co98 Co 1.01431 0.26742 0.88302 0.0
O99 O 0.06169 0.2815 0.88928 0.0
O100 O 0.03551 0.24926 0.84384 0.0
C101 C 1.00286 0.3215 0.90007 0.0
O102 O 0.9664 0.25016 0.86472 0.0
Co103 Co 0.966 0.27135 0.94126 0.0
O104 O 0.93224 0.2675 0.90338 0.0
C105 C 1.00928 0.21721 0.93862 0.0
C106 C 0.06325 0.2656 0.85895 0.0
C107 C 0.93762 0.25569 0.8732 0.0
O108 O 0.0165 0.2233 0.90771 0.0
O109 O 0.99183 0.23558 0.95663 0.0
O110 O 1.01145 0.31459 0.86904 0.0
O111 O 1.00346 0.29669 0.91998 0.0
Co112 Co 0.42371 0.04121 0.29609 0.0
O113 O 0.4261 0.08634 0.27743 0.0
O114 O 0.38121 0.04479 0.27748 0.0
C115 C 0.45329 0.06245 0.34468 0.0
O116 O 0.40833 0.99388 0.31324 0.0
Co117 Co 0.47944 1.00228 0.31681 0.0
O118 O 0.44585 0.96604 0.33557 0.0
C119 C 0.46352 0.01021 0.24397 0.0
C120 C 0.39456 0.076 0.26989 0.0
C121 C 0.41593 0.96822 0.32852 0.0
O122 O 0.43575 0.01904 0.25151 0.0
O123 O 0.48509 1.00546 0.26657 0.0
O124 O 0.422 0.06425 0.34204 0.0
O125 O 0.46563 0.04866 0.31819 0.0
Co126 Co 0.27855 0.15939 0.48832 0.0
O127 O 0.32662 0.16722 0.49556 0.0
O128 O 0.29333 0.11623 0.49895 0.0
C129 C 0.27848 0.18902 0.43986 0.0
O130 O 0.22969 0.13682 0.48166 0.0
Co131 Co 0.23373 0.21526 0.48677 0.0
O132 O 0.1953 0.17584 0.4794 0.0
C133 C 0.25977 0.19899 0.55363 0.0
C134 C 0.32331 0.13369 0.50057 0.0
C135 C 0.20048 0.14414 0.47905 0.0
O136 O 0.27313 0.17388 0.53885 0.0
O137 O 0.24497 0.21936 0.53704 0.0
O138 O 0.28311 0.15622 0.43833 0.0
O139 O 0.27476 0.20307 0.47021 0.0
Co140 Co 0.16933 0.01415 0.80219 0.0
O141 O 0.16383 0.96315 0.78885 0.0
O142 O 0.21105 1.00056 0.79006 0.0
C143 C 0.13912 0.00777 0.84977 0.0
O144 O 0.18804 0.06684 0.81432 0.0
Co145 Co 0.11496 0.05963 0.81388 0.0
O146 O 0.15051 0.10132 0.82582 0.0
C147 C 0.13485 0.04119 0.74302 0.0
C148 C 0.19557 0.96796 0.78524 0.0
C149 C 0.1803 0.09749 0.82213 0.0
O150 O 0.15772 0.02471 0.75356 0.0
O151 O 0.11505 0.054 0.76296 0.0
O152 O 0.17014 1.0049 0.85086 0.0
O153 O 0.12739 0.01436 0.82077 0.0
Co154 Co 0.27588 0.89991 0.98296 0.0
O155 O 0.23129 0.89758 0.99723 0.0
O156 O 0.26905 0.94661 1.00026 0.0
C157 C 0.26276 0.86616 0.93281 0.0
O158 O 0.32309 0.91466 0.9704 0.0
Co159 Co 0.31166 0.83564 0.96743 0.0
O160 O 0.34728 0.86985 0.94978 0.0
C161 C 0.30427 0.86371 0.03926 0.0
C162 C 0.23893 0.93184 0.00486 0.0
C163 C 0.34758 0.90285 0.95718 0.0
O164 O 0.29144 0.88977 0.02963 0.0
O165 O 0.31169 0.83898 0.01851 0.0
O166 O 0.26014 0.89957 0.93535 0.0
O167 O 0.27118 0.85388 0.96061 0.0
Co168 Co 0.28293 0.39536 0.02414 0.0
O169 O 0.23513 0.38775 0.01612 0.0
O170 O 0.26541 0.43767 0.0396 0.0
C171 C 0.29235 0.3716 0.97101 0.0
O172 O 0.33221 0.41632 0.03468 0.0
Co173 Co 0.32595 0.33721 0.01973 0.0
O174 O 0.36274 0.3771 0.0141 0.0
C175 C 0.28249 0.34305 0.07784 0.0
C176 C 0.2365 0.42069 0.02805 0.0
C177 C 0.36002 0.40856 0.02534 0.0
O178 O 0.27787 0.37414 0.07026 0.0
O179 O 0.29838 0.32345 0.05918 0.0
O180 O 0.28828 0.40447 0.97595 0.0
O181 O 0.28979 0.35418 0.99759 0.0
Co182 Co 0.79908 0.14769 0.02226 0.0
O183 O 0.8449 0.14894 0.01305 0.0
O184 O 0.81264 0.10448 0.03419 0.0
C185 C 0.78419 0.16654 0.97258 0.0
O186 O 0.75099 0.13481 0.03277 0.0
Co187 Co 0.76564 0.21494 0.02549 0.0
O188 O 0.72423 0.18097 0.03049 0.0
C189 C 0.81233 0.20553 0.08025 0.0
C190 C 0.841 0.11691 0.02249 0.0
C191 C 0.72466 0.14842 0.0343 0.0
O192 O 0.81036 0.17234 0.06991 0.0
O193 O 0.80108 0.22767 0.0627 0.0
O194 O 0.78701 0.13344 0.97376 0.0
O195 O 0.79316 0.18718 1.00013 0.0
Co196 Co 0.14975 0.52318 0.2358 0.0
O197 O 0.14714 0.47518 0.24751 0.0
O198 O 0.18991 0.50715 0.22497 0.0
C199 C 0.12971 0.54348 0.28444 0.0
O200 O 0.16396 0.57234 0.22178 0.0
Co201 Co 0.09183 0.56392 0.22933 0.0
O202 O 0.125 0.60614 0.22085 0.0
C203 C 0.09654 0.50093 0.18275 0.0
C204 C 0.17719 0.47797 0.23739 0.0
C205 C 0.15471 0.60182 0.21739 0.0
O206 O 0.12789 0.50537 0.18961 0.0
O207 O 0.07748 0.51783 0.20005 0.0
O208 O 0.16083 0.54098 0.28372 0.0
O209 O 0.11211 0.53293 0.25656 0.0
Co210 Co 0.78224 0.89706 0.52268 0.0
O211 O 0.73435 0.8891 0.5156 0.0
O212 O 0.76467 0.93882 0.53957 0.0
C213 C 0.79167 0.87492 0.46896 0.0
O214 O 0.83157 0.91803 0.53264 0.0
Co215 Co 0.82504 0.83834 0.51661 0.0
O216 O 0.86208 0.87842 0.5126 0.0
C217 C 0.78267 0.844 0.57551 0.0
C218 C 0.73568 0.92178 0.52834 0.0
C219 C 0.85945 0.90988 0.52396 0.0
O220 O 0.77825 0.87524 0.56839 0.0
O221 O 0.79788 0.82419 0.55628 0.0
O222 O 0.78644 0.9073 0.47479 0.0
O223 O 0.78943 0.85665 0.49501 0.0
Co224 Co 0.89828 0.04376 0.24146 0.0
O225 O 0.9027 0.09496 0.25208 0.0
O226 O 0.85912 0.06107 0.22516 0.0
C227 C 0.91615 0.03141 0.29374 0.0
O228 O 0.88213 0.99026 0.22858 0.0
Co229 Co 0.95726 1.00268 0.24505 0.0
O230 O 0.92148 0.9609 0.24592 0.0
C231 C 0.95179 0.04798 0.18937 0.0
C232 C 0.87294 0.09249 0.23872 0.0
C233 C 0.89183 0.96136 0.23572 0.0
O234 O 0.92159 0.05032 0.19639 0.0
O235 O 0.97067 0.03345 0.20795 0.0
O236 O 0.88602 0.03663 0.28882 0.0
O237 O 0.93466 0.03702 0.26843 0.0
Co238 Co 0.29302 0.65071 0.525 0.0
O239 O 0.33988 0.65591 0.51898 0.0
O240 O 0.30953 0.61026 0.54026 0.0
C241 C 0.27911 0.66526 0.47299 0.0
O242 O 0.24469 0.63404 0.53338 0.0
Co243 Co 0.25297 0.71263 0.52032 0.0
O244 O 0.21397 0.6764 0.52699 0.0
C245 C 0.29893 0.71232 0.57872 0.0
C246 C 0.33794 0.62467 0.52996 0.0
C247 C 0.21695 0.64506 0.53311 0.0
O248 O 0.30071 0.67914 0.57163 0.0
O249 O 0.2871 0.73079 0.55752 0.0
O250 O 0.28427 0.63326 0.47642 0.0
O251 O 0.285 0.68738 0.49986 0.0
Co252 Co 0.39685 0.54257 0.7389 0.0
O253 O 0.40186 0.59376 0.74962 0.0
O254 O 0.35797 0.56037 0.7227 0.0
C255 C 0.41468 0.53006 0.7911 0.0
O256 O 0.38004 0.48914 0.72604 0.0
Co257 Co 0.45518 0.50063 0.7421 0.0
O258 O 0.41895 0.45944 0.74374 0.0
C259 C 0.45057 0.54711 0.68721 0.0
C260 C 0.37213 0.59166 0.73627 0.0
C261 C 0.38932 0.4602 0.7337 0.0
O262 O 0.42025 0.54922 0.69389 0.0
O263 O 0.46916 0.53214 0.70571 0.0
O264 O 0.38462 0.53555 0.78627 0.0
O265 O 0.43313 0.53537 0.7657 0.0
Co266 Co 0.65078 0.01686 0.73634 0.0
O267 O 0.64885 0.96993 0.75105 0.0
O268 O 0.69041 0.9997 0.72513 0.0
C269 C 0.63246 0.03994 0.78478 0.0
O270 O 0.66473 0.06523 0.71991 0.0
Co271 Co 0.59241 0.05735 0.73008 0.0
O272 O 0.62581 0.09928 0.72142 0.0
C273 C 0.59578 0.99317 0.68486 0.0
C274 C 0.67868 0.97203 0.74045 0.0
C275 C 0.6553 0.09489 0.71656 0.0
O276 O 0.62725 0.99712 0.69112 0.0
O277 O 0.5773 0.01023 0.70282 0.0
O278 O 0.66346 0.03711 0.78345 0.0
O279 O 0.61406 0.02798 0.75776 0.0
Co280 Co 0.78052 0.65738 0.98792 0.0
O281 O 0.82842 0.66468 0.99547 0.0
O282 O 0.79461 0.61413 0.99944 0.0
C283 C 0.78181 0.68592 0.93887 0.0
O284 O 0.73147 0.6355 0.98101 0.0
Co285 Co 0.73695 0.71387 0.98467 0.0
O286 O 0.69796 0.67516 0.97696 0.0
C287 C 0.76184 0.6985 0.05232 0.0
C288 C 0.82473 0.63126 1.00085 0.0
C289 C 0.70252 0.64332 0.97747 0.0
O290 O 0.77494 0.6729 0.03814 0.0
O291 O 0.74755 0.71881 0.03512 0.0
O292 O 0.78541 0.65285 0.93813 0.0
O293 O 0.77798 0.70096 0.96881 0.0
Co294 Co 0.91976 0.54201 0.79611 0.0
O295 O 0.92151 0.58711 0.77749 0.0
O296 O 0.87689 0.54537 0.77824 0.0
C297 C 0.95019 0.56354 0.84423 0.0
O298 O 0.90498 0.49446 0.81308 0.0
Co299 Co 0.97599 0.50341 0.81608 0.0
O300 O 0.94283 0.46625 0.83413 0.0
C301 C 0.95863 0.51051 0.74332 0.0
C302 C 0.88993 0.57656 0.77033 0.0
C303 C 0.91283 0.46837 0.82748 0.0
O304 O 0.9312 0.51995 0.75122 0.0
O305 O 0.98049 0.50578 0.76563 0.0
O306 O 0.91879 0.56501 0.84225 0.0
O307 O 0.96206 0.5497 0.81747 0.0
Co308 Co 0.77003 0.40067 0.4819 0.0
O309 O 0.72588 0.40086 0.49767 0.0
O310 O 0.76555 0.44805 0.49873 0.0
C311 C 0.75571 0.36673 0.43195 0.0
O312 O 0.81706 0.41361 0.46822 0.0
Co313 Co 0.8039 0.33508 0.46603 0.0
O314 O 0.84043 0.36804 0.4482 0.0
C315 C 0.79833 0.36387 0.53787 0.0
C316 C 0.73537 0.43504 0.50477 0.0
C317 C 0.84126 0.40119 0.45509 0.0
O318 O 0.78607 0.39041 0.52846 0.0
O319 O 0.80468 0.33868 0.51701 0.0
O320 O 0.75367 0.4003 0.43445 0.0
O321 O 0.76383 0.35435 0.4598 0.0
Co322 Co 0.66687 0.5136 0.30037 0.0
O323 O 0.66181 0.46267 0.28659 0.0
O324 O 0.70892 0.50031 0.28891 0.0
C325 C 0.63553 0.50671 0.34739 0.0
O326 O 0.68512 0.56642 0.31305 0.0
Co327 Co 0.61147 0.55832 0.31092 0.0
O328 O 0.64669 0.60038 0.32239 0.0
C329 C 0.63322 0.54077 0.24065 0.0
C330 C 0.69362 0.46767 0.28346 0.0
C331 C 0.67672 0.59695 0.31984 0.0
O332 O 0.65612 0.52457 0.25164 0.0
O333 O 0.61275 0.55303 0.2601 0.0
O334 O 0.66655 0.50376 0.34902 0.0
O335 O 0.62458 0.51349 0.31813 0.0
Dy336 Dy 1.00356 0.0183 0.00506 0.0
C337 C 0.13564 0.01362 0.02583 0.0
C338 C 0.9402 0.03003 0.9971 0.0
Dy339 Dy 0.07822 0.03886 0.03063 0.0
O340 O 0.96349 0.03814 0.97632 0.0
O341 O 0.95086 0.01266 0.02075 0.0
O342 O 0.01799 0.98689 0.95794 0.0
O343 O 0.05058 0.03068 0.98195 0.0
C344 C 0.04797 1.00525 0.95901 0.0
C345 C 0.03484 0.05417 0.07681 0.0
O346 O 0.07299 0.0863 1.00245 0.0
O347 O 0.01688 0.07801 0.01105 0.0
O348 O 0.13353 0.04414 0.04283 0.0
O349 O 0.10734 0.99898 0.01115 0.0
O350 O 0.06577 0.07032 0.07885 0.0
O351 O 0.03137 0.02877 0.05367 0.0
O352 O 1.00632 0.96855 0.03052 0.0
O353 O 0.0631 0.98253 0.04377 0.0
C354 C 0.04433 0.09783 1.00203 0.0
C355 C 0.0344 0.96045 0.04258 0.0
Dy356 Dy 0.29923 0.7991 0.2354 0.0
C357 C 0.25708 0.73085 0.35262 0.0
C358 C 0.3132 0.8327 0.17837 0.0
Dy359 Dy 0.26809 0.77375 0.30161 0.0
O360 O 0.32379 0.80415 0.18579 0.0
O361 O 0.2955 0.84337 0.20252 0.0
O362 O 0.33994 0.76664 0.24232 0.0
O363 O 0.3174 0.78636 0.28422 0.0
C364 C 0.33708 0.76631 0.27515 0.0
C365 C 0.22948 0.80606 0.26254 0.0
O366 O 0.30304 0.82284 0.3233 0.0
O367 O 0.30973 0.84877 0.27214 0.0
O368 O 0.24829 0.76191 0.35266 0.0
O369 O 0.27173 0.72363 0.32496 0.0
O370 O 0.22611 0.80445 0.29524 0.0
O371 O 0.24968 0.78669 0.25302 0.0
O372 O 0.26393 0.75011 0.21399 0.0
O373 O 0.25892 0.72437 0.26502 0.0
C374 C 0.31301 0.85059 0.30604 0.0
C375 C 0.25497 0.7223 0.23134 0.0
Dy376 Dy 0.56543 0.02133 0.50967 0.0
C377 C 0.43426 0.0598 0.51695 0.0
C378 C 0.62127 0.99109 0.51508 0.0
Dy379 Dy 0.48834 0.02702 0.52184 0.0
O380 O 0.59106 0.97493 0.51696 0.0
O381 O 0.6212 0.02423 0.50992 0.0
O382 O 0.56539 0.0538 0.46384 0.0
O383 O 0.52182 0.02666 0.48096 0.0
C384 C 0.53313 0.04926 0.46155 0.0
C385 C 0.52055 0.99674 0.56809 0.0
O386 O 0.48164 0.97797 0.48459 0.0
O387 O 0.53612 0.96756 0.48967 0.0
O388 O 0.43363 0.02807 0.52693 0.0
O389 O 0.46412 0.07296 0.50962 0.0
O390 O 0.48825 0.99142 0.56522 0.0
O391 O 0.53198 0.02115 0.55053 0.0
O392 O 0.5719 0.07188 0.54528 0.0
O393 O 0.51664 0.07976 0.54484 0.0
C394 C 0.5044 0.95752 0.47947 0.0
C395 C 0.54859 0.09109 0.55295 0.0
Dy396 Dy 0.24842 0.28068 0.76851 0.0
C397 C 0.38169 0.27248 0.74059 0.0
C398 C 0.18574 0.28124 0.78949 0.0
Dy399 Dy 0.32108 0.26741 0.76741 0.0
O400 O 0.21181 0.30424 0.8002 0.0
O401 O 0.19357 0.25863 0.76596 0.0
O402 O 0.26099 0.32806 0.73761 0.0
O403 O 0.29699 0.31344 0.76928 0.0
C404 C 0.29237 0.33344 0.74664 0.0
C405 C 0.27875 0.21589 0.79233 0.0
O406 O 0.32308 0.3027 0.81658 0.0
O407 O 0.26707 0.2857 0.82375 0.0
O408 O 0.35641 0.28351 0.72756 0.0
O409 O 0.37438 0.2593 0.76943 0.0
O410 O 0.31056 0.22096 0.79926 0.0
O411 O 0.27262 0.23458 0.76884 0.0
O412 O 0.24564 0.25235 0.71558 0.0
O413 O 0.30114 0.24728 0.71389 0.0
C414 C 0.29717 0.30079 0.83599 0.0
C415 C 0.27104 0.2431 0.69922 0.0
Dy416 Dy 0.02065 1.0041 0.47011 0.0
C417 C 0.09032 0.05377 0.60513 0.0
C418 C 0.97571 0.99187 0.41583 0.0
Dy419 Dy 0.04811 0.04053 0.54852 0.0
O420 O 1.00309 0.97901 0.41714 0.0
O421 O 0.97241 0.00968 0.44479 0.0
O422 O 0.071 0.01763 0.4473 0.0
O423 O 0.06564 0.02658 0.49896 0.0
C424 C 0.08614 0.0321 0.47622 0.0
C425 C 0.98226 0.01244 0.54076 0.0
O426 O 0.05044 0.08894 0.52018 0.0
O427 O 0.02223 0.063 0.46836 0.0
O428 O 0.06606 0.07084 0.59948 0.0
O429 O 0.0922 0.03099 0.57915 0.0
O430 O 0.99687 0.02533 0.57033 0.0
O431 O 1.0034 0.01925 0.51906 0.0
O432 O 0.02112 0.95539 0.49864 0.0
O433 O 0.05176 0.98338 0.54827 0.0
C434 C 0.03728 0.09101 0.48906 0.0
C435 C 0.03638 0.95464 0.52914 0.0
Dy436 Dy 0.31639 0.79672 0.78169 0.0
C437 C 0.19621 0.74614 0.69223 0.0
C438 C 0.36996 0.81794 0.82668 0.0
Dy439 Dy 0.24958 0.76271 0.73832 0.0
O440 O 0.36812 0.82606 0.79535 0.0
O441 O 0.34165 0.80008 0.83408 0.0
O442 O 0.34466 0.78295 0.73611 0.0
O443 O 0.29702 0.79445 0.72937 0.0
C444 C 0.32052 0.78383 0.71436 0.0
C445 C 0.24541 0.77601 0.80615 0.0
O446 O 0.2775 0.71629 0.73462 0.0
O447 O 0.31694 0.73816 0.7792 0.0
O448 O 0.19723 0.73557 0.72276 0.0
O449 O 0.22526 0.76317 0.68609 0.0
O450 O 0.22111 0.77532 0.7841 0.0
O451 O 0.26896 0.76565 0.79104 0.0
O452 O 0.28897 0.84351 0.78397 0.0
O453 O 0.24894 0.82105 0.74018 0.0
C454 C 0.30316 0.71277 0.75512 0.0
C455 C 0.26327 0.84682 0.76347 0.0
Dy456 Dy 0.52716 0.02023 0.04299 0.0
C457 C 0.56739 0.05591 0.90843 0.0
C458 C 0.50592 0.01744 0.10701 0.0
Dy459 Dy 0.54005 0.04166 0.96831 0.0
O460 O 0.53468 0.01159 0.09787 0.0
O461 O 0.48893 0.02556 0.08129 0.0
O462 O 0.54225 0.96589 0.03632 0.0
O463 O 0.54379 0.99734 0.9965 0.0
C464 C 0.54901 0.96791 0.00446 0.0
C465 C 0.50703 0.08317 0.00785 0.0
O466 O 0.49684 0.9978 0.95834 0.0
O467 O 0.47845 1.00351 0.01357 0.0
O468 O 0.57937 0.07075 0.93816 0.0
O469 O 0.54026 0.03356 0.91129 0.0
O470 O 0.5037 0.07916 0.97469 0.0
O471 O 0.5304 0.06856 0.01729 0.0
O472 O 0.57561 0.05739 0.05086 0.0
O473 O 0.59016 0.04937 0.99451 0.0
C474 C 0.4737 0.99189 0.98064 0.0
C475 C 0.59768 0.06044 0.02713 0.0
Dy476 Dy 0.28044 0.31225 0.26912 0.0
C477 C 0.30707 0.17261 0.25126 0.0
C478 C 0.25315 0.36888 0.25651 0.0
Dy479 Dy 0.27635 0.2288 0.24796 0.0
O480 O 0.28168 0.37154 0.27335 0.0
O481 O 0.24076 0.33607 0.24642 0.0
O482 O 0.28991 0.31041 0.32677 0.0
O483 O 0.28326 0.2653 0.29302 0.0
C484 C 0.28739 0.27578 0.32431 0.0
C485 C 0.26043 0.26845 0.19822 0.0
O486 O 0.23036 0.22706 0.27764 0.0
O487 O 0.22716 0.28682 0.27432 0.0
O488 O 0.27985 0.17131 0.23257 0.0
O489 O 0.31545 0.20312 0.2689 0.0
O490 O 0.24951 0.23422 0.19738 0.0
O491 O 0.28091 0.27718 0.22323 0.0
O492 O 0.33076 0.31394 0.24637 0.0
O493 O 0.32883 0.2524 0.2376 0.0
C494 C 0.21438 0.25435 0.28183 0.0
C495 C 0.34468 0.28565 0.2374 0.0
Dy496 Dy 0.52055 0.50572 0.9677 0.0
C497 C 0.58985 0.55457 0.10288 0.0
C498 C 0.47536 0.49303 0.91367 0.0
Dy499 Dy 0.54754 0.54193 0.04632 0.0
O500 O 0.50277 0.48023 0.91494 0.0
O501 O 0.4722 0.51113 0.94252 0.0
O502 O 0.5712 0.51854 0.9452 0.0
O503 O 0.56512 0.52961 0.99648 0.0
C504 C 0.58602 0.53387 0.97399 0.0
C505 C 0.48178 0.51303 0.03887 0.0
O506 O 0.54988 0.59042 0.01799 0.0
O507 O 0.5218 0.56465 0.96605 0.0
O508 O 0.56582 0.57198 0.09732 0.0
O509 O 0.59142 0.53172 0.07687 0.0
O510 O 0.4962 0.52738 0.06812 0.0
O511 O 0.50317 0.51848 0.0172 0.0
O512 O 0.52142 0.45695 0.996 0.0
O513 O 0.55228 0.48499 0.04548 0.0
C514 C 0.53686 0.59263 0.98682 0.0
C515 C 0.53693 0.45621 0.02637 0.0
Dy516 Dy 0.81665 0.29869 0.2788 0.0
C517 C 0.69571 0.24751 0.19027 0.0
C518 C 0.87003 0.31837 0.32435 0.0
Dy519 Dy 0.74856 0.26188 0.23701 0.0
O520 O 0.86843 0.32771 0.29341 0.0
O521 O 0.84157 0.30038 0.33113 0.0
O522 O 0.84603 0.28748 0.23319 0.0
O523 O 0.79638 0.29123 0.2263 0.0
C524 C 0.82081 0.28223 0.21154 0.0
C525 C 0.74524 0.27834 0.30439 0.0
O526 O 0.77614 0.21513 0.2363 0.0
O527 O 0.81815 0.24029 0.27753 0.0
O528 O 0.69734 0.23271 0.21878 0.0
O529 O 0.72378 0.26786 0.18642 0.0
O530 O 0.72017 0.27498 0.28272 0.0
O531 O 0.76909 0.2684 0.28943 0.0
O532 O 0.78914 0.34517 0.28049 0.0
O533 O 0.74724 0.32035 0.23917 0.0
C534 C 0.80315 0.21335 0.25562 0.0
C535 C 0.76237 0.34716 0.26102 0.0
Dy536 Dy 0.02069 0.51616 0.54166 0.0
C537 C 0.06273 0.55321 0.40797 0.0
C538 C 0.99925 0.51374 0.60558 0.0
Dy539 Dy 0.03486 0.53838 0.4675 0.0
O540 O 0.02761 0.50673 0.59635 0.0
O541 O 0.98271 0.52273 0.57998 0.0
O542 O 0.0352 0.46163 0.53487 0.0
O543 O 0.03741 0.49342 0.49519 0.0
C544 C 0.0424 0.46389 0.50315 0.0
C545 C 1.00285 0.58063 0.50763 0.0
O546 O 0.99105 0.49541 0.45655 0.0
O547 O 0.9722 0.5003 0.51166 0.0
O548 O 0.03568 0.5306 0.41049 0.0
O549 O 0.07433 0.568 0.43785 0.0
O550 O 0.99946 0.57697 0.47447 0.0
O551 O 0.02562 0.56504 0.51676 0.0
O552 O 0.06978 0.55193 0.55001 0.0
O553 O 0.08471 0.54372 0.49384 0.0
C554 C 0.96769 0.48927 0.47859 0.0
C555 C 0.09216 0.5543 0.52657 0.0
Dy556 Dy 0.74946 0.78272 0.2661 0.0
C557 C 0.881 0.76801 0.24134 0.0
C558 C 0.68672 0.78696 0.28461 0.0
Dy559 Dy 0.82026 0.76568 0.26732 0.0
O560 O 0.71303 0.80991 0.29455 0.0
O561 O 0.69441 0.7623 0.2632 0.0
O562 O 0.76441 0.82838 0.234 0.0
O563 O 0.79896 0.81365 0.26757 0.0
C564 C 0.7955 0.83317 0.24408 0.0
C565 C 0.77568 0.7163 0.29233 0.0
O566 O 0.82331 0.80073 0.3167 0.0
O567 O 0.76648 0.79087 0.3218 0.0
O568 O 0.87266 0.75466 0.26985 0.0
O569 O 0.8567 0.78066 0.22825 0.0
O570 O 0.80731 0.72045 0.30002 0.0
O571 O 0.77076 0.73469 0.26812 0.0
O572 O 0.7467 0.75442 0.21327 0.0
O573 O 0.80103 0.74498 0.21367 0.0
C574 C 0.79697 0.80282 0.33481 0.0
C575 C 0.77165 0.74295 0.19794 0.0
Dy576 Dy 0.79658 0.29559 0.73269 0.0
C577 C 0.75543 0.23213 0.8535 0.0
C578 C 0.80883 0.32975 0.6757 0.0
Dy579 Dy 0.76623 0.27201 0.80014 0.0
O580 O 0.81962 0.30103 0.68227 0.0
O581 O 0.79177 0.34013 0.70055 0.0
O582 O 0.83771 0.26368 0.73952 0.0
O583 O 0.81525 0.28352 0.7815 0.0
C584 C 0.83491 0.26342 0.77238 0.0
C585 C 0.7275 0.30355 0.76042 0.0
O586 O 0.80216 0.32088 0.82042 0.0
O587 O 0.8081 0.3458 0.76872 0.0
O588 O 0.76663 0.22188 0.82466 0.0
O589 O 0.74969 0.26446 0.85329 0.0
O590 O 0.72427 0.3028 0.79322 0.0
O591 O 0.74746 0.28379 0.75131 0.0
O592 O 0.76149 0.24571 0.71287 0.0
O593 O 0.75715 0.22162 0.76489 0.0
C594 C 0.81189 0.34823 0.80261 0.0
C595 C 0.75291 0.21851 0.73117 0.0
Dy596 Dy 0.78075 0.80957 0.77148 0.0
C597 C 0.803 0.67326 0.74986 0.0
C598 C 0.76335 0.8752 0.77591 0.0
Dy599 Dy 0.77472 0.73107 0.74653 0.0
O600 O 0.75544 0.85141 0.797 0.0
O601 O 0.78289 0.86406 0.75398 0.0
O602 O 0.8073 0.80171 0.82107 0.0
O603 O 0.77276 0.76047 0.79585 0.0
C604 C 0.79385 0.76818 0.82054 0.0
C605 C 0.76055 0.77179 0.6974 0.0
O606 O 0.72673 0.72918 0.77244 0.0
O607 O 0.72565 0.78783 0.76452 0.0
O608 O 0.77651 0.6733 0.73036 0.0
O609 O 0.81187 0.70336 0.76813 0.0
O610 O 0.7484 0.73784 0.69652 0.0
O611 O 0.78162 0.77994 0.72211 0.0
O612 O 0.83176 0.81309 0.7505 0.0
O613 O 0.82841 0.75217 0.73946 0.0
C614 C 0.71081 0.75651 0.77315 0.0
C615 C 0.84523 0.78494 0.74065 0.0
Dy616 Dy 0.50447 0.52388 0.5048 0.0
C617 C 0.64072 0.52404 0.54188 0.0
C618 C 0.4478 0.55052 0.51204 0.0
Dy619 Dy 0.57915 0.54005 0.5314 0.0
O620 O 0.44866 0.51862 0.49732 0.0
O621 O 0.47726 0.56659 0.52233 0.0
O622 O 0.51458 0.49141 0.45655 0.0
O623 O 0.55194 0.52978 0.48213 0.0
C624 C 0.5464 0.50435 0.45883 0.0
C625 C 0.53483 0.55752 0.57594 0.0
O626 O 0.5792 0.59033 0.50574 0.0
O627 O 0.52308 0.57809 0.48828 0.0
O628 O 0.61519 0.51362 0.55912 0.0
O629 O 0.63329 0.54593 0.52062 0.0
O630 O 0.56567 0.5735 0.578 0.0
O631 O 0.53166 0.53173 0.55346 0.0
O632 O 0.5078 0.4772 0.53484 0.0
O633 O 0.5633 0.48054 0.52575 0.0
C634 C 0.55252 0.59898 0.49089 0.0
C635 C 0.53522 0.46338 0.5361 0.0
Dy636 Dy 0.0672 0.52089 1.00437 0.0
C637 C 0.93544 0.55689 0.01479 0.0
C638 C 0.12277 0.49036 0.01033 0.0
Dy639 Dy 0.98969 0.52432 0.01803 0.0
O640 O 0.09252 0.47458 0.01289 0.0
O641 O 0.12289 0.52327 1.00403 0.0
O642 O 0.06592 0.55519 0.95992 0.0
O643 O 0.02305 0.52652 0.97712 0.0
C644 C 0.03356 0.54994 0.95822 0.0
C645 C 0.02298 0.49362 0.06288 0.0
O646 O 0.98323 0.47562 0.98019 0.0
O647 O 0.03894 0.46875 0.97922 0.0
O648 O 0.93493 0.5247 0.02355 0.0
O649 O 0.96524 0.57057 0.00775 0.0
O650 O 0.99065 0.4882 0.06069 0.0
O651 O 0.03385 0.51839 0.04546 0.0
O652 O 0.0732 0.57057 0.04098 0.0
O653 O 0.01751 0.57667 0.04274 0.0
C654 C 1.00689 0.45744 0.97113 0.0
C655 C 0.04951 0.58867 0.05016 0.0
C656 C 1.00667 0.17728 0.98552 0.0
C657 C 0.02079 0.18772 0.95511 0.0
H658 H 1.00383 0.14162 0.02435 0.0
C659 C 0.04583 0.17038 0.94205 0.0
H660 H 0.9874 0.18985 0.99661 0.0
C661 C 0.05572 0.14258 0.95868 0.0
C662 C 0.04047 0.13162 0.98836 0.0
H663 H 0.05744 0.17796 0.9189 0.0
H664 H 0.07399 0.12856 0.94744 0.0
C665 C 0.01627 0.14967 1.00174 0.0
C666 C 0.18738 0.82025 0.1793 0.0
C667 C 0.15535 0.82317 0.18896 0.0
H668 H 0.23529 0.81162 0.19485 0.0
C669 C 0.14887 0.82419 0.22394 0.0
H670 H 0.19328 0.81901 0.15266 0.0
C671 C 0.17356 0.82089 0.24845 0.0
C672 C 0.20489 0.81574 0.23831 0.0
H673 H 0.12445 0.82637 0.23225 0.0
H674 H 0.16759 0.82051 0.27503 0.0
C675 C 0.21163 0.81609 0.20358 0.0
C676 C 0.49287 0.85932 0.45754 0.0
C677 C 0.49706 0.85716 0.42209 0.0
H678 H 0.49166 0.89338 0.50357 0.0
C679 C 0.49812 0.88797 0.40504 0.0
H680 H 0.49182 0.83606 0.47146 0.0
C681 C 0.49747 0.92075 0.42358 0.0
C682 C 0.49564 0.92299 0.45926 0.0
H683 H 0.50128 0.88712 0.37777 0.0
H684 H 0.50053 0.94463 0.41037 0.0
C685 C 0.4925 0.89201 0.47598 0.0
C686 C 0.44274 0.28119 0.67119 0.0
C687 C 0.47185 0.27583 0.68799 0.0
H688 H 0.39179 0.28485 0.67496 0.0
C689 C 0.47093 0.268 0.72231 0.0
H690 H 0.4426 0.28749 0.64489 0.0
C691 C 0.44154 0.26622 0.7396 0.0
C692 C 0.41282 0.27283 0.72298 0.0
H693 H 0.49304 0.26385 0.73596 0.0
H694 H 0.44147 0.26048 0.76607 0.0
C695 C 0.41366 0.27996 0.68855 0.0
C696 C 0.03973 0.89153 0.59761 0.0
C697 C 0.0252 0.85878 0.58043 0.0
H698 H 0.05536 0.94691 0.59489 0.0
C699 C 0.01624 0.85704 0.54527 0.0
H700 H 0.04698 0.89368 0.62458 0.0
C701 C 0.02051 0.88783 0.52798 0.0
C702 C 0.03442 0.92083 0.54541 0.0
H703 H 1.00487 0.83203 0.53132 0.0
H704 H 1.01238 0.88585 0.50128 0.0
C705 C 0.04456 0.92206 0.5803 0.0
C706 C 0.46035 0.81778 0.84804 0.0
C707 C 0.46026 0.81188 0.8828 0.0
H708 H 0.43204 0.82565 0.80343 0.0
C709 C 0.43051 0.81094 0.89962 0.0
H710 H 0.48288 0.81909 0.83443 0.0
C711 C 0.40129 0.81425 0.88174 0.0
C712 C 0.40135 0.81953 0.84689 0.0
H713 H 0.42957 0.8066 0.92643 0.0
H714 H 0.37853 0.81205 0.89503 0.0
C715 C 0.4313 0.82197 0.8304 0.0
C716 C 0.49936 0.15131 0.08103 0.0
C717 C 0.48166 0.17357 0.06437 0.0
H718 H 0.5217 0.10473 0.07573 0.0
C719 C 0.46613 0.16135 0.03206 0.0
H720 H 0.51201 0.16036 0.1057 0.0
C721 C 0.47203 0.12989 0.01472 0.0
C722 C 0.49359 0.11022 0.02944 0.0
H723 H 0.45258 0.1782 0.01859 0.0
H724 H 0.46208 0.12274 0.98867 0.0
C725 C 0.5054 0.1198 0.06359 0.0
C726 C 0.12804 0.26634 0.30451 0.0
C727 C 0.12804 0.25987 0.33915 0.0
H728 H 0.15572 0.27001 0.25921 0.0
C729 C 0.15522 0.24735 0.35333 0.0
H730 H 0.10766 0.27631 0.29292 0.0
C731 C 0.18215 0.24241 0.33359 0.0
C732 C 0.18291 0.25084 0.29955 0.0
H733 H 0.15601 0.2422 0.37995 0.0
H734 H 0.20332 0.23419 0.34562 0.0
C735 C 0.15546 0.26258 0.28515 0.0
C736 C 0.99501 0.08363 0.15783 0.0
C737 C 0.96586 0.05804 0.1568 0.0
H738 H 0.03954 0.10295 0.13321 0.0
C739 C 0.95795 0.03401 0.12748 0.0
H740 H 1.00233 0.10168 0.18065 0.0
C741 C 0.97985 0.03383 0.10098 0.0
C742 C 1.00989 0.05812 0.10278 0.0
H743 H 0.9365 0.01303 0.12654 0.0
H744 H 0.97427 0.01294 0.08026 0.0
C745 C 0.01663 0.08394 0.13094 0.0
C746 C 0.27447 0.66151 0.40925 0.0
C747 C 0.26698 0.67678 0.44103 0.0
H748 H 0.27705 0.66712 0.35567 0.0
C749 C 0.25145 0.70671 0.4425 0.0
H750 H 0.28641 0.63844 0.40752 0.0
C751 C 0.24596 0.72292 0.41311 0.0
C752 C 0.25614 0.7096 0.38183 0.0
H753 H 0.2449 0.71878 0.46656 0.0
H754 H 0.2356 0.74706 0.41529 0.0
C755 C 0.26921 0.67799 0.37974 0.0
C756 C 0.54699 0.96209 0.64902 0.0
C757 C 0.58076 0.9775 0.65139 0.0
H758 H 0.5008 0.95606 0.62005 0.0
C759 C 0.59547 0.99064 0.62254 0.0
H760 H 0.53514 0.95187 0.67115 0.0
C761 C 0.5757 0.99441 0.59414 0.0
C762 C 0.54123 0.98352 0.59353 0.0
H763 H 0.62129 1.00306 0.6238 0.0
H764 H 0.58712 0.00933 0.57435 0.0
C765 C 0.52725 0.96498 0.62007 0.0
C766 C 0.28482 0.31686 0.93026 0.0
C767 C 0.29664 0.35359 0.93692 0.0
H768 H 0.27545 0.27157 0.89288 0.0
C769 C 0.3113 0.37232 0.91062 0.0
H770 H 0.27327 0.3017 0.94993 0.0
C771 C 0.31363 0.3546 0.87816 0.0
C772 C 0.30046 0.31819 0.8713 0.0
H773 H 0.32068 0.40059 0.91508 0.0
H774 H 0.32424 0.36968 0.85798 0.0
C775 C 0.28616 0.29952 0.89767 0.0
C776 C 0.91305 0.01977 0.35575 0.0
C777 C 0.92826 0.01675 0.3245 0.0
H778 H 0.91627 0.01404 0.40956 0.0
C779 C 0.95676 1.00112 0.3231 0.0
H780 H 0.89108 0.03162 0.35764 0.0
C781 C 0.97058 0.99018 0.3524 0.0
C782 C 0.95671 0.99538 0.38405 0.0
H783 H 0.96914 0.99819 0.29952 0.0
H784 H 0.9933 0.97967 0.3506 0.0
C785 C 0.92738 0.00954 0.38537 0.0
C786 C 0.29087 0.75933 0.62323 0.0
C787 C 0.30645 0.73027 0.6136 0.0
H788 H 0.28353 0.79893 0.66239 0.0
C789 C 0.3278 0.71936 0.63749 0.0
H790 H 0.27382 0.76831 0.60578 0.0
C791 C 0.33351 0.73758 0.67031 0.0
C792 C 0.31734 0.76622 0.67955 0.0
H793 H 0.33999 0.69704 0.63084 0.0
H794 H 0.34976 0.72872 0.68869 0.0
C795 C 0.29618 0.77694 0.65576 0.0
C796 C 0.58249 0.04771 0.81543 0.0
C797 C 0.61712 0.05128 0.81604 0.0
H798 H 0.53962 0.0461 0.84467 0.0
C799 C 0.63555 0.06159 0.84708 0.0
H800 H 0.56753 0.04014 0.79184 0.0
C801 C 0.6193 0.06588 0.87739 0.0
C802 C 0.58461 0.05915 0.87677 0.0
H803 H 0.66223 0.06465 0.84816 0.0
H804 H 0.63373 0.07205 0.90143 0.0
C805 C 0.56638 0.05113 0.8456 0.0
C806 C 0.28098 0.34468 0.14202 0.0
C807 C 0.26991 0.32793 0.10946 0.0
H808 H 0.28702 0.33883 0.19556 0.0
C809 C 0.25227 0.29278 0.10701 0.0
H810 H 0.29527 0.37137 0.14469 0.0
C811 C 0.24713 0.27421 0.13611 0.0
C812 C 0.26016 0.29004 0.16841 0.0
H813 H 0.24382 0.27899 0.08219 0.0
H814 H 0.23466 0.24676 0.13298 0.0
C815 C 0.27638 0.32585 0.17113 0.0
C816 C 0.22166 0.99073 0.02174 0.0
C817 C 0.21373 0.95336 0.01523 0.0
H818 H 0.20303 0.03978 0.0308 0.0
C819 C 0.18073 0.93669 0.01587 0.0
H820 H 0.247 1.00432 0.0215 0.0
C821 C 0.15599 0.95683 0.02082 0.0
C822 C 0.16352 0.99416 0.02565 0.0
H823 H 0.17373 0.90807 0.01119 0.0
H824 H 0.13064 0.94301 0.01996 0.0
C825 C 0.19665 0.01106 0.02715 0.0
C826 C 0.66628 0.58827 0.94925 0.0
C827 C 0.67351 0.61446 0.97699 0.0
H828 H 0.63263 0.54231 0.92654 0.0
C829 C 0.65326 0.61241 0.00501 0.0
H830 H 0.68178 0.58911 0.92755 0.0
C831 C 0.62591 0.58493 0.00508 0.0
C832 C 0.61764 0.55965 0.9766 0.0
H833 H 0.65873 0.63202 0.02697 0.0
H834 H 0.61081 0.5841 0.02703 0.0
C835 C 0.63833 0.56142 0.94885 0.0
C836 C 0.74586 0.44129 0.28554 0.0
C837 C 0.7119 0.43761 0.2762 0.0
H838 H 0.78845 0.41584 0.28875 0.0
C839 C 0.69536 0.40448 0.26115 0.0
H840 H 0.75935 0.46641 0.29749 0.0
C841 C 0.71218 0.37586 0.25546 0.0
C842 C 0.74598 0.37914 0.26536 0.0
H843 H 0.66929 0.40059 0.25374 0.0
H844 H 0.69826 0.35072 0.24406 0.0
C845 C 0.76259 0.41229 0.28061 0.0
C846 C 0.8761 0.46036 0.47145 0.0
C847 C 0.87277 0.42615 0.45407 0.0
H848 H 0.90916 0.50682 0.49324 0.0
C849 C 0.90084 0.41496 0.4405 0.0
H850 H 0.85508 0.47007 0.4821 0.0
C851 C 0.93193 0.43671 0.44639 0.0
C852 C 0.93519 0.46936 0.46646 0.0
H853 H 0.89906 0.38885 0.42687 0.0
H854 H 0.95356 0.42703 0.43726 0.0
C855 C 0.90706 0.48148 0.47802 0.0
C856 C 0.38524 0.1365 0.26046 0.0
C857 C 0.37347 0.0999 0.25762 0.0
H858 H 0.37284 0.1881 0.26074 0.0
C859 C 0.33995 0.08685 0.24783 0.0
H860 H 0.41088 0.14727 0.2678 0.0
C861 C 0.31801 0.11034 0.24354 0.0
C862 C 0.32947 0.14691 0.24953 0.0
H863 H 0.33034 0.05856 0.24519 0.0
H864 H 0.29203 0.09999 0.23768 0.0
C865 C 0.36335 0.15981 0.2567 0.0
C866 C 0.38445 0.13241 0.50218 0.0
C867 C 0.35195 0.11544 0.5064 0.0
H868 H 0.43569 0.12804 0.50194 0.0
C869 C 0.34682 0.08001 0.51489 0.0
H870 H 0.38935 0.15954 0.49551 0.0
C871 C 0.37343 0.06196 0.51878 0.0
C872 C 0.40581 0.07878 0.51397 0.0
H873 H 0.32212 0.06605 0.51834 0.0
H874 H 0.3686 0.03471 0.52511 0.0
C875 C 0.411 0.11425 0.50577 0.0
C876 C 0.73617 0.62791 0.32214 0.0
C877 C 0.70229 0.62941 0.31867 0.0
H878 H 0.78595 0.65446 0.31711 0.0
C879 C 0.69311 0.66098 0.30911 0.0
H880 H 0.74415 0.60403 0.32935 0.0
C881 C 0.71703 0.68938 0.30127 0.0
C882 C 0.7507 0.68734 0.30341 0.0
H883 H 0.66731 0.66312 0.30589 0.0
H884 H 0.70913 0.71276 0.29305 0.0
C885 C 0.76012 0.65676 0.31501 0.0
C886 C 0.89168 0.40456 0.83715 0.0
C887 C 0.88558 0.43845 0.83118 0.0
H888 H 0.87189 0.34867 0.83331 0.0
C889 C 0.85293 0.44253 0.82275 0.0
H890 H 0.91642 0.40054 0.84378 0.0
C891 C 0.82792 0.41302 0.81603 0.0
C892 C 0.83474 0.37906 0.81899 0.0
H893 H 0.84707 0.46832 0.81856 0.0
H894 H 0.80379 0.41656 0.80652 0.0
C895 C 0.86622 0.37497 0.83125 0.0
C896 C 0.02387 0.89669 0.11063 0.0
C897 C 0.04689 0.87481 0.10147 0.0
H898 H 1.00061 0.94025 0.09793 0.0
C899 C 0.06315 0.87935 0.07097 0.0
H900 H 1.01062 0.89344 0.13376 0.0
C901 C 0.05748 0.90604 0.05069 0.0
C902 C 0.03463 0.92798 0.05986 0.0
H903 H 0.08083 0.86274 0.06314 0.0
H904 H 0.0715 0.9101 0.02814 0.0
C905 C 0.01758 0.92289 0.08981 0.0
C906 C 0.91575 0.24652 0.81151 0.0
C907 C 0.91008 0.25085 0.84665 0.0
H908 H 0.89617 0.24672 0.76006 0.0
C909 C 0.87819 0.25452 0.85632 0.0
H910 H 0.93998 0.24363 0.80311 0.0
C911 C 0.85338 0.25637 0.8318 0.0
C912 C 0.8596 0.25442 0.79688 0.0
H913 H 0.87267 0.25758 0.88303 0.0
H914 H 0.82966 0.26099 0.84037 0.0
C915 C 0.89067 0.24825 0.78682 0.0
C916 C 0.59363 0.18463 0.57945 0.0
C917 C 0.5696 0.19914 0.59789 0.0
H918 H 0.60618 0.13868 0.55135 0.0
C919 C 0.54049 0.17659 0.60491 0.0
H920 H 0.61648 0.20134 0.57389 0.0
C921 C 0.53447 0.14093 0.59157 0.0
C922 C 0.5577 0.12691 0.57154 0.0
H923 H 0.52153 0.18694 0.61899 0.0
H924 H 0.51106 0.1246 0.59602 0.0
C925 C 0.58787 0.14874 0.56668 0.0
C926 C 0.6234 0.80359 0.34833 0.0
C927 C 0.59579 0.77818 0.33595 0.0
H928 H 0.67352 0.82689 0.34116 0.0
C929 C 0.59777 0.75676 0.30541 0.0
H930 H 0.62254 0.82068 0.37161 0.0
C931 C 0.62712 0.76011 0.28809 0.0
C932 C 0.65473 0.7854 0.30067 0.0
H933 H 0.57683 0.73699 0.29522 0.0
H934 H 0.62832 0.74268 0.26513 0.0
C935 C 0.65249 0.80736 0.33071 0.0
C936 C 0.03406 0.16412 0.42993 0.0
C937 C 0.04578 0.19471 0.45219 0.0
H938 H 0.02156 0.10721 0.42422 0.0
C939 C 0.05586 0.19076 0.48602 0.0
H940 H 0.02599 0.16634 0.40382 0.0
C941 C 0.05334 0.15724 0.49774 0.0
C942 C 0.04042 0.12657 0.47607 0.0
H943 H 0.06533 0.21383 0.50378 0.0
H944 H 0.06108 0.15553 0.52406 0.0
C945 C 0.03123 0.13032 0.44182 0.0
C946 C 0.63873 0.27044 0.12117 0.0
C947 C 0.60753 0.26329 0.13519 0.0
H948 H 0.69072 0.27068 0.12736 0.0
C949 C 0.60538 0.24824 0.16662 0.0
H950 H 0.64147 0.28185 0.09699 0.0
C951 C 0.63375 0.24107 0.1837 0.0
C952 C 0.66495 0.24921 0.16998 0.0
H953 H 0.58177 0.24197 0.17802 0.0
H954 H 0.63142 0.23032 0.20822 0.0
C955 C 0.66702 0.26377 0.13844 0.0
C956 C 0.5743 0.88086 0.9767 0.0
C957 C 0.57208 0.87971 0.94087 0.0
H958 H 0.5688 0.90957 0.0245 0.0
C959 C 0.56509 0.9096 0.92572 0.0
H960 H 0.57993 0.85843 0.98923 0.0
C961 C 0.55879 0.93937 0.94628 0.0
C962 C 0.55931 0.93933 0.98208 0.0
H963 H 0.56311 0.90937 0.89816 0.0
H964 H 0.55227 0.96167 0.93422 0.0
C965 C 0.56789 0.91019 0.99699 0.0
C966 C 0.92714 0.76351 0.71201 0.0
C967 C 0.93113 0.78086 0.68202 0.0
H968 H 0.89683 0.75153 0.75433 0.0
C969 C 0.9087 0.80326 0.6742 0.0
H970 H 0.94398 0.74621 0.71891 0.0
C971 C 0.88243 0.80736 0.69524 0.0
C972 C 0.87753 0.78862 0.72426 0.0
H973 H 0.91119 0.81733 0.65149 0.0
H974 H 0.86478 0.82348 0.68762 0.0
C975 C 0.90034 0.76686 0.73251 0.0
C976 C 0.12714 0.0235 0.91102 0.0
C977 C 0.11765 1.00413 0.87925 0.0
H978 H 0.11205 0.04025 0.96056 0.0
C979 C 0.08569 0.98361 0.87449 0.0
H980 H 0.15138 0.04 0.91519 0.0
C981 C 0.06355 0.9826 0.90085 0.0
C982 C 0.07246 1.00309 0.93222 0.0
H983 H 0.07768 0.9686 0.8501 0.0
H984 H 0.03903 0.96683 0.89619 0.0
C985 C 0.10456 0.02353 0.93699 0.0
C986 C 0.82717 0.33902 0.58408 0.0
C987 C 0.80492 0.36082 0.5745 0.0
H988 H 0.84608 0.31253 0.62388 0.0
C989 C 0.78728 0.37644 0.59977 0.0
H990 H 0.84161 0.32712 0.5653 0.0
C991 C 0.79003 0.36808 0.63358 0.0
C992 C 0.81052 0.34418 0.64236 0.0
H993 H 0.77004 0.39339 0.59312 0.0
H994 H 0.77481 0.37875 0.65234 0.0
C995 C 0.82989 0.33075 0.61764 0.0
C996 C 0.50665 0.07979 0.37821 0.0
C997 C 0.47236 0.06756 0.37738 0.0
H998 H 0.55312 0.0845 0.40634 0.0
C999 C 0.45796 0.05365 0.406 0.0
H1000 H 0.51818 0.09034 0.35606 0.0
C1001 C 0.47795 0.04917 0.434 0.0
C1002 C 0.51247 0.05973 0.43434 0.0
H1003 H 0.4317 0.04331 0.40555 0.0
H1004 H 0.46642 0.03529 0.45437 0.0
C1005 C 0.52661 0.07634 0.40678 0.0
C1006 C 0.73849 0.72271 0.10557 0.0
C1007 C 0.76284 0.70581 0.09023 0.0
H1008 H 0.7218 0.74709 0.15126 0.0
C1009 C 0.78878 0.69875 0.11118 0.0
H1010 H 0.71794 0.72828 0.09026 0.0
C1011 C 0.79117 0.70999 0.14631 0.0
C1012 C 0.76736 0.72801 0.1614 0.0
H1013 H 0.80793 0.68589 0.10022 0.0
H1014 H 0.81209 0.70515 0.16153 0.0
C1015 C 0.74059 0.73342 0.14066 0.0
C1016 C 0.11564 0.07644 0.69856 0.0
C1017 C 0.13 0.0471 0.70643 0.0
H1018 H 0.09208 0.10161 0.66057 0.0
C1019 C 0.13553 0.02262 0.67951 0.0
H1020 H 0.11156 0.09628 0.71856 0.0
C1021 C 0.12451 0.02607 0.64588 0.0
C1022 C 0.10783 0.054 0.63876 0.0
H1023 H 0.14648 0.99982 0.68467 0.0
H1024 H 0.12734 0.00575 0.62582 0.0
C1025 C 0.10454 0.07972 0.66527 0.0
C1026 C 0.77137 0.31675 0.3947 0.0
C1027 C 0.7535 0.34483 0.39888 0.0
H1028 H 0.78316 0.27402 0.36117 0.0
C1029 C 0.73301 0.35093 0.37162 0.0
H1030 H 0.78739 0.31129 0.41515 0.0
C1031 C 0.72985 0.32872 0.34106 0.0
C1032 C 0.74807 0.30097 0.3369 0.0
H1033 H 0.71888 0.37225 0.37421 0.0
H1034 H 0.71349 0.33358 0.32051 0.0
C1035 C 0.76906 0.29537 0.3638 0.0
C1036 C 0.50294 0.99945 0.19923 0.0
C1037 C 0.4725 0.00864 0.20798 0.0
H1038 H 0.53741 0.99541 0.16038 0.0
C1039 C 0.45243 0.01941 0.18267 0.0
H1040 H 0.51901 0.99097 0.21802 0.0
C1041 C 0.46313 0.022 0.14956 0.0
C1042 C 0.49401 0.01391 0.14137 0.0
H1043 H 0.42889 0.0268 0.1886 0.0
H1044 H 0.44753 0.03091 0.13059 0.0
C1045 C 0.5136 1.00215 0.16625 0.0
C1046 C 0.79792 0.74341 0.91229 0.0
C1047 C 0.78554 0.70658 0.90832 0.0
H1048 H 0.81139 0.79146 0.88788 0.0
C1049 C 0.77724 0.69003 0.87507 0.0
H1050 H 0.80478 0.757 0.93753 0.0
C1051 C 0.7803 0.71001 0.84666 0.0
C1052 C 0.79287 0.74682 0.85061 0.0
H1053 H 0.7676 0.66178 0.87108 0.0
H1054 H 0.77255 0.69662 0.82154 0.0
C1055 C 0.80198 0.76317 0.8838 0.0
C1056 C 0.88957 0.10235 0.99175 0.0
C1057 C 0.86607 0.09412 0.01615 0.0
H1058 H 0.93048 0.0876 0.96559 0.0
C1059 C 0.86546 0.06285 0.03242 0.0
H1060 H 0.89033 0.12594 0.97838 0.0
C1061 C 0.8887 0.04087 0.0252 0.0
C1062 C 0.91233 0.04935 1.00096 0.0
H1063 H 0.8474 0.0557 0.05111 0.0
H1064 H 0.88861 0.01767 0.03903 0.0
C1065 C 0.91222 0.08003 0.98399 0.0
C1066 C 0.39605 0.46349 0.05564 0.0
C1067 C 0.39019 0.43675 0.02813 0.0
H1068 H 0.42991 0.50812 0.08093 0.0
C1069 C 0.41391 0.43665 1.00326 0.0
H1070 H 0.37829 0.46431 0.07522 0.0
C1071 C 0.44284 0.46238 0.00593 0.0
C1072 C 0.44941 0.48823 0.03412 0.0
H1073 H 0.41003 0.41665 0.98157 0.0
H1074 H 0.46046 0.46128 0.98633 0.0
C1075 C 0.42559 0.48857 0.05889 0.0
C1076 C 0.368 0.65329 0.76096 0.0
C1077 C 0.35437 0.62266 0.73946 0.0
H1078 H 0.36271 0.70465 0.78307 0.0
C1079 C 0.32312 0.62154 0.72297 0.0
H1080 H 0.39184 0.65522 0.77427 0.0
C1081 C 0.30612 0.65043 0.72789 0.0
C1082 C 0.31968 0.68085 0.74994 0.0
H1083 H 0.31177 0.59833 0.70627 0.0
H1084 H 0.28235 0.64883 0.71458 0.0
C1085 C 0.35095 0.6817 0.76625 0.0
C1086 C 0.1603 0.63055 0.55422 0.0
C1087 C 0.1868 0.61951 0.5374 0.0
H1088 H 0.10924 0.61731 0.56515 0.0
C1089 C 0.18314 0.58469 0.52165 0.0
H1090 H 0.16274 0.65729 0.56667 0.0
C1091 C 0.15251 0.56224 0.52016 0.0
C1092 C 0.12556 0.57396 0.53538 0.0
H1093 H 0.20325 0.57568 0.50842 0.0
H1094 H 0.14946 0.53638 0.50572 0.0
C1095 C 0.12992 0.60766 0.55365 0.0
C1096 C 0.73045 0.94718 0.73384 0.0
C1097 C 0.70015 0.94687 0.7493 0.0
H1098 H 0.77464 0.92497 0.73068 0.0
C1099 C 0.69213 0.92476 0.77546 0.0
H1100 H 0.73743 0.96426 0.71384 0.0
C1101 C 0.71386 0.90306 0.78572 0.0
C1102 C 0.74377 0.90278 0.76969 0.0
H1103 H 0.66922 0.92445 0.78823 0.0
H1104 H 0.7067 0.88563 0.80541 0.0
C1105 C 0.75196 0.92513 0.74379 0.0
C1106 C 0.67429 0.91969 0.52099 0.0
C1107 C 0.7063 0.93971 0.527 0.0
H1108 H 0.62256 0.92024 0.51294 0.0
C1109 C 0.71011 0.9771 0.52942 0.0
H1110 H 0.6704 0.89092 0.51887 0.0
C1111 C 0.68268 0.99395 0.52522 0.0
C1112 C 0.65074 0.97383 0.51914 0.0
H1113 H 0.73443 0.99337 0.53374 0.0
H1114 H 0.68647 0.0227 0.52686 0.0
C1115 C 0.64686 0.93654 0.51748 0.0
C1116 C 0.37343 0.39755 0.74852 0.0
C1117 C 0.36463 0.42667 0.73329 0.0
H1118 H 0.35762 0.34606 0.765 0.0
C1119 C 0.33182 0.42389 0.72035 0.0
H1120 H 0.3983 0.39852 0.75901 0.0
C1121 C 0.30836 0.39305 0.72335 0.0
C1122 C 0.31717 0.36469 0.73979 0.0
H1123 H 0.3241 0.44575 0.70852 0.0
H1124 H 0.28315 0.39189 0.71381 0.0
C1125 C 0.35003 0.36723 0.75196 0.0
C1126 C 0.17352 0.66572 0.20678 0.0
C1127 C 0.18087 0.63209 0.21174 0.0
H1128 H 0.1926 0.72151 0.20769 0.0
C1129 C 0.21424 0.62817 0.21514 0.0
H1130 H 0.14816 0.66954 0.20376 0.0
C1131 C 0.23938 0.65777 0.21765 0.0
C1132 C 0.23174 0.69157 0.21566 0.0
H1133 H 0.22098 0.60263 0.21863 0.0
H1134 H 0.2645 0.65455 0.22378 0.0
C1135 C 0.19892 0.69533 0.20853 0.0
C1136 C 0.54643 0.69344 0.48025 0.0
C1137 C 0.53583 0.69093 0.44549 0.0
H1138 H 0.56151 0.66615 0.52182 0.0
C1139 C 0.53719 0.6596 0.42472 0.0
H1140 H 0.5459 0.71742 0.49683 0.0
C1141 C 0.54594 0.63024 0.43921 0.0
C1142 C 0.5544 0.63214 0.47439 0.0
H1143 H 0.5291 0.65687 0.39795 0.0
H1144 H 0.54403 0.60531 0.42337 0.0
C1145 C 0.55582 0.66435 0.49453 0.0
C1146 C 0.6494 0.32727 0.72128 0.0
C1147 C 0.6557 0.32464 0.68625 0.0
H1148 H 0.66757 0.32356 0.77259 0.0
C1149 C 0.68689 0.31846 0.67661 0.0
H1150 H 0.62556 0.33187 0.72955 0.0
C1151 C 0.71034 0.31276 0.70102 0.0
C1152 C 0.70377 0.3142 0.73586 0.0
H1153 H 0.69255 0.31578 0.64992 0.0
H1154 H 0.73314 0.30567 0.69231 0.0
C1155 C 0.6734 0.3225 0.74593 0.0
C1156 C 1.0127 0.38744 0.89993 0.0
C1157 C 0.99707 0.35679 0.91371 0.0
H1158 H 0.02812 0.44399 0.90801 0.0
C1159 C 0.97988 0.36035 0.94375 0.0
H1160 H 0.02623 0.38542 0.87693 0.0
C1161 C 0.98032 0.39389 0.96106 0.0
C1162 C 0.99848 0.42411 0.94884 0.0
H1163 H 0.96753 0.33707 0.95482 0.0
H1164 H 0.96868 0.3959 0.98526 0.0
C1165 C 1.0138 0.42085 0.91768 0.0
C1166 C 0.97016 0.76194 0.22413 0.0
C1167 C 0.97139 0.76924 0.18967 0.0
H1168 H 0.94031 0.75543 0.26776 0.0
C1169 C 0.9424 0.77425 0.17238 0.0
H1170 H 0.99217 0.75806 0.23815 0.0
C1171 C 0.91322 0.77348 0.18942 0.0
C1172 C 0.91211 0.76712 0.22402 0.0
H1173 H 0.94248 0.78009 0.14594 0.0
H1174 H 0.89151 0.77825 0.17546 0.0
C1175 C 0.94061 0.76056 0.24112 0.0
C1176 C 0.51643 0.35871 0.04268 0.0
C1177 C 0.52557 0.36048 0.0778 0.0
H1178 H 0.5125 0.38748 0.99868 0.0
C1179 C 0.54044 0.39317 0.09485 0.0
H1180 H 0.50479 0.33374 0.02885 0.0
C1181 C 0.54542 0.42364 0.07746 0.0
C1182 C 0.53507 0.42241 0.04263 0.0
H1183 H 0.54784 0.39532 0.12178 0.0
H1184 H 0.55646 0.44846 0.09195 0.0
C1185 C 0.52083 0.38945 0.02532 0.0
C1186 C 0.92953 0.30896 0.39741 0.0
C1187 C 0.95946 0.30949 0.38095 0.0
H1188 H 0.87784 0.31131 0.39245 0.0
C1189 C 0.96004 0.31567 0.34626 0.0
H1190 H 0.92816 0.3044 0.42414 0.0
C1191 C 0.93133 0.32072 0.32841 0.0
C1192 C 0.90124 0.31889 0.34464 0.0
H1193 H 0.98269 0.31668 0.33291 0.0
H1194 H 0.93241 0.32468 0.30152 0.0
C1195 C 0.9007 0.31312 0.37935 0.0
C1196 C 0.99766 0.64888 0.58164 0.0
C1197 C 0.98064 0.67207 0.56549 0.0
H1198 H 0.01837 0.60125 0.57556 0.0
C1199 C 0.96485 0.66072 0.53312 0.0
H1200 H 1.01052 0.65723 0.60632 0.0
C1201 C 0.96973 0.62906 0.5153 0.0
C1202 C 0.9905 0.60827 0.52959 0.0
H1203 H 0.95184 0.67828 0.52001 0.0
H1204 H 0.95957 0.62252 0.48927 0.0
C1205 C 1.00264 0.61714 0.56373 0.0
C1206 C 0.65138 0.74639 0.84448 0.0
C1207 C 0.62655 0.76444 0.83361 0.0
H1208 H 0.69666 0.7283 0.83304 0.0
C1209 C 0.62798 0.77682 0.80099 0.0
H1210 H 0.651 0.73669 0.86953 0.0
C1211 C 0.65469 0.77301 0.78051 0.0
C1212 C 0.67976 0.75535 0.79158 0.0
H1213 H 0.60937 0.79114 0.79208 0.0
H1214 H 0.65618 0.7846 0.75637 0.0
C1215 C 0.67736 0.74133 0.82345 0.0
C1216 C 0.49596 0.58291 0.65863 0.0
C1217 C 0.46557 0.55911 0.65563 0.0
H1218 H 0.5416 0.60155 0.63572 0.0
C1219 C 0.45637 0.53857 0.62438 0.0
H1220 H 0.50408 0.59838 0.68278 0.0
C1221 C 0.47827 0.53962 0.59779 0.0
C1222 C 0.50972 0.56153 0.60171 0.0
H1223 H 0.43368 0.51919 0.62165 0.0
H1224 H 0.47134 0.52154 0.57495 0.0
C1225 C 0.51768 0.58437 0.63186 0.0
C1226 C 0.76217 0.21416 0.94528 0.0
C1227 C 0.77131 0.18042 0.94222 0.0
H1228 H 0.74909 0.25677 0.91926 0.0
C1229 C 0.77056 0.16183 0.90981 0.0
H1230 H 0.76221 0.229 0.97 0.0
C1231 C 0.76323 0.17795 0.88071 0.0
C1232 C 0.75618 0.21261 0.8838 0.0
H1233 H 0.77738 0.13575 0.90682 0.0
H1234 H 0.76461 0.16397 0.85578 0.0
C1235 C 0.75445 0.23005 0.91628 0.0
C1236 C 0.04878 0.46674 0.14739 0.0
C1237 C 0.08218 0.48339 0.14974 0.0
H1238 H 1.00325 0.45642 0.11696 0.0
C1239 C 0.09733 0.49437 0.12034 0.0
H1240 H 0.03668 0.45807 0.16997 0.0
C1241 C 0.07804 0.4947 0.09067 0.0
C1242 C 0.04372 0.4826 0.08962 0.0
H1243 H 0.1229 0.50765 0.12162 0.0
H1244 H 0.08951 0.50823 0.07008 0.0
C1245 C 0.02959 0.46614 0.11725 0.0
C1246 C 0.80921 0.82639 0.43048 0.0
C1247 C 0.79725 0.85869 0.43443 0.0
H1248 H 0.81928 0.78358 0.3955 0.0
C1249 C 0.78815 0.87371 0.40503 0.0
H1250 H 0.81642 0.81413 0.45265 0.0
C1251 C 0.78937 0.85594 0.37254 0.0
C1252 C 0.80047 0.82327 0.36873 0.0
H1253 H 0.77866 0.89838 0.40718 0.0
H1254 H 0.78079 0.86726 0.35034 0.0
C1255 C 0.81103 0.80895 0.39786 0.0
C1256 C 0.41212 0.51977 0.85345 0.0
C1257 C 0.42691 0.51584 0.82205 0.0
H1258 H 0.41601 0.51543 0.90748 0.0
C1259 C 0.45524 0.49993 0.82068 0.0
H1260 H 0.39029 0.53187 0.85531 0.0
C1261 C 0.46938 0.4897 0.85017 0.0
C1262 C 0.456 0.49588 0.88192 0.0
H1263 H 0.46725 0.49627 0.79697 0.0
H1264 H 0.49199 0.47897 0.84836 0.0
C1265 C 0.42677 0.51022 0.88323 0.0
C1266 C 0.84744 0.23968 0.12908 0.0
C1267 C 0.81795 0.21749 0.11656 0.0
H1268 H 0.87142 0.27748 0.16977 0.0
C1269 C 0.78992 0.21569 0.13589 0.0
H1270 H 0.86901 0.24234 0.11389 0.0
C1271 C 0.79071 0.23717 0.16639 0.0
C1272 C 0.81977 0.26006 0.17881 0.0
H1273 H 0.76663 0.19953 0.12611 0.0
H1274 H 0.76849 0.23574 0.18004 0.0
C1275 C 0.84853 0.26026 0.16051 0.0
C1276 C 0.07869 0.54652 0.315 0.0
C1277 C 0.11343 0.5524 0.31584 0.0
H1278 H 0.03546 0.54188 0.34391 0.0
C1279 C 0.13139 0.56308 0.34711 0.0
H1280 H 0.06408 0.53849 0.29124 0.0
C1281 C 0.11471 0.56582 0.37732 0.0
C1282 C 0.08007 0.55716 0.37642 0.0
H1283 H 0.15814 0.56788 0.34837 0.0
H1284 H 0.12889 0.57256 0.40147 0.0
C1285 C 0.06219 0.54843 0.34508 0.0
C1286 C 0.78367 0.84605 0.6396 0.0
C1287 C 0.77093 0.82937 0.60753 0.0
H1288 H 0.79109 0.84053 0.69292 0.0
C1289 C 0.75191 0.79495 0.60583 0.0
H1290 H 0.79907 0.87215 0.6416 0.0
C1291 C 0.7467 0.77705 0.63532 0.0
C1292 C 0.76115 0.79279 0.66715 0.0
H1293 H 0.74219 0.78125 0.58133 0.0
H1294 H 0.73286 0.75016 0.63284 0.0
C1295 C 0.77911 0.8278 0.66901 0.0
C1296 C 0.68518 0.44581 0.5355 0.0
C1297 C 0.71277 0.45874 0.51745 0.0
H1298 H 0.64145 0.45706 0.55873 0.0
C1299 C 0.71829 0.49462 0.51057 0.0
H1300 H 0.68045 0.41837 0.5413 0.0
C1301 C 0.69569 0.51666 0.51997 0.0
C1302 C 0.66772 0.50351 0.53735 0.0
H1303 H 0.73937 0.5053 0.49662 0.0
H1304 H 0.69958 0.54362 0.51279 0.0
C1305 C 0.66311 0.46813 0.54578 0.0
C1306 C 0.15223 0.11184 0.5071 0.0
C1307 C 0.17196 0.11475 0.47871 0.0
H1308 H 0.11082 0.08215 0.52962 0.0
C1309 C 0.16487 0.08877 0.45081 0.0
H1310 H 0.15768 0.13125 0.52921 0.0
C1311 C 0.13748 0.06129 0.45059 0.0
C1312 C 0.11726 0.05865 0.4787 0.0
H1313 H 0.18002 0.09023 0.42884 0.0
H1314 H 0.13184 0.04235 0.42816 0.0
C1315 C 0.12549 0.08369 0.50736 0.0
C1316 C 0.19691 0.9047 0.76318 0.0
C1317 C 0.21361 0.93772 0.77831 0.0
H1318 H 0.19949 0.85085 0.74621 0.0
C1319 C 0.24742 0.94108 0.78811 0.0
H1320 H 0.17092 0.90108 0.75548 0.0
C1321 C 0.2639 0.91187 0.78348 0.0
C1322 C 0.24715 0.87889 0.76803 0.0
H1323 H 0.26098 0.96611 0.80017 0.0
H1324 H 0.28967 0.91513 0.79188 0.0
C1325 C 0.21349 0.8759 0.75776 0.0
C1326 C 0.38216 0.96179 0.97515 0.0
C1327 C 0.37888 0.92821 0.95655 0.0
H1328 H 0.41515 0.00794 0.99771 0.0
C1329 C 0.40685 0.91784 0.94193 0.0
H1330 H 0.36121 0.97083 0.98667 0.0
C1331 C 0.43784 0.93976 0.94784 0.0
C1332 C 0.44113 0.97175 0.96897 0.0
H1333 H 0.40507 0.8922 0.92737 0.0
H1334 H 0.4594 0.93069 0.93777 0.0
C1335 C 0.41305 0.98308 0.9817 0.0
C1336 C 0.83479 0.58705 0.7492 0.0
C1337 C 0.86861 0.60005 0.75762 0.0
H1338 H 0.78684 0.60037 0.73956 0.0
C1339 C 0.88075 0.63645 0.75818 0.0
H1340 H 0.82488 0.5589 0.74828 0.0
C1341 C 0.85904 0.65977 0.75357 0.0
C1342 C 0.82495 0.64711 0.74788 0.0
H1343 H 0.90661 0.64718 0.76435 0.0
H1344 H 0.86884 0.68801 0.75596 0.0
C1345 C 0.81301 0.61055 0.74412 0.0
C1346 C 0.84802 0.57709 0.01409 0.0
C1347 C 0.85321 0.61277 0.00637 0.0
H1348 H 0.8698 0.53142 0.02301 0.0
C1349 C 0.88569 0.62987 1.00233 0.0
H1350 H 0.82331 0.56304 0.01734 0.0
C1351 C 0.9122 0.61161 0.00531 0.0
C1352 C 0.90698 0.57587 0.01265 0.0
H1353 H 0.89063 0.6572 0.99624 0.0
H1354 H 0.93686 0.62552 1.00161 0.0
C1355 C 0.87462 0.55889 0.01732 0.0
C1356 C 0.23993 0.12686 0.82094 0.0
C1357 C 0.20624 0.12961 0.82086 0.0
H1358 H 0.28937 0.15222 0.81243 0.0
C1359 C 0.19732 0.16229 0.81448 0.0
H1360 H 0.24775 0.10214 0.82576 0.0
C1361 C 0.22111 0.19057 0.80618 0.0
C1362 C 0.25438 0.18715 0.80452 0.0
H1363 H 0.17169 0.16553 0.81412 0.0
H1364 H 0.21342 0.21499 0.80061 0.0
C1365 C 0.2638 0.15549 0.81322 0.0
C1366 C 0.35576 0.94406 0.32632 0.0
C1367 C 0.3884 0.93904 0.3334 0.0
H1368 H 0.30592 0.9193 0.31166 0.0
C1369 C 0.39393 0.90491 0.33914 0.0
H1370 H 0.35039 0.97012 0.32244 0.0
C1371 C 0.36784 0.87589 0.33403 0.0
C1372 C 0.33627 0.88082 0.32285 0.0
H1373 H 0.41865 0.90021 0.34478 0.0
H1374 H 0.37303 0.84933 0.33561 0.0
C1375 C 0.33008 0.91511 0.32041 0.0
C1376 C 0.56628 0.3844 0.56814 0.0
C1377 C 0.54911 0.37975 0.59809 0.0
H1378 H 0.57523 0.4145 0.52499 0.0
C1379 C 0.52557 0.40128 0.60622 0.0
H1380 H 0.58436 0.36801 0.5611 0.0
C1381 C 0.5194 0.42701 0.5848 0.0
C1382 C 0.53719 0.43222 0.55527 0.0
H1383 H 0.5116 0.3979 0.62888 0.0
H1384 H 0.50164 0.44374 0.59205 0.0
C1385 C 0.56076 0.41071 0.54727 0.0
C1386 C 0.38095 0.75765 0.35907 0.0
C1387 C 0.41226 0.75232 0.34891 0.0
H1388 H 0.3328 0.76592 0.34366 0.0
C1389 C 0.41719 0.74713 0.31363 0.0
H1390 H 0.37605 0.76158 0.38588 0.0
C1391 C 0.39209 0.74944 0.28925 0.0
C1392 C 0.36165 0.75712 0.29969 0.0
H1393 H 0.44093 0.74287 0.30479 0.0
H1394 H 0.3971 0.74703 0.26239 0.0
C1395 C 0.35605 0.7601 0.33479 0.0
C1396 C 0.04112 0.67262 0.1047 0.0
C1397 C 0.07018 0.69556 0.09824 0.0
H1398 H 1.01177 0.6207 0.09435 0.0
C1399 C 0.09421 0.68178 0.07919 0.0
H1400 H 0.02214 0.68243 0.11921 0.0
C1401 C 0.08849 0.64626 0.06529 0.0
C1402 C 0.05837 0.62408 0.06964 0.0
H1403 H 0.117 0.69881 0.07401 0.0
H1404 H 0.10683 0.63681 0.04957 0.0
C1405 C 0.03513 0.63732 0.09026 0.0
C1406 C 0.09708 0.24801 0.8104 0.0
C1407 C 0.0947 0.26868 0.84131 0.0
H1408 H 0.12789 0.23572 0.76965 0.0
C1409 C 0.12221 0.29394 0.85435 0.0
H1410 H 0.07625 0.22842 0.79963 0.0
C1411 C 0.15136 0.2986 0.83686 0.0
C1412 C 0.15386 0.2778 0.80614 0.0
H1413 H 0.12112 0.31051 0.87791 0.0
H1414 H 0.17216 0.3182 0.84771 0.0
C1415 C 0.12651 0.25233 0.79311 0.0
C1416 C 0.55857 0.69223 0.98313 0.0
C1417 C 0.54747 0.69654 0.94974 0.0
H1418 H 0.56388 0.65674 0.02091 0.0
C1419 C 0.534 0.66616 0.92787 0.0
H1420 H 0.56935 0.7151 1.00059 0.0
C1421 C 0.53046 0.63231 0.93981 0.0
C1422 C 0.54059 0.62825 0.97373 0.0
H1423 H 0.52505 0.66866 0.90213 0.0
H1424 H 0.51943 0.6094 0.92256 0.0
C1425 C 0.55528 0.65866 0.99491 0.0
C1426 C 0.13878 0.76729 0.62231 0.0
C1427 C 0.10782 0.76174 0.6371 0.0
H1428 H 0.19067 0.76635 0.62785 0.0
C1429 C 0.10602 0.74848 0.66937 0.0
H1430 H 0.14127 0.77729 0.59747 0.0
C1431 C 0.13444 0.74152 0.68651 0.0
C1432 C 0.16541 0.74799 0.67198 0.0
H1433 H 0.08266 0.74348 0.68145 0.0
H1434 H 0.13231 0.73214 0.71164 0.0
C1435 C 0.16716 0.76074 0.6396 0.0
C1436 C 0.06147 0.40621 0.42535 0.0
C1437 C 0.06953 0.37709 0.44105 0.0
H1438 H 0.04643 0.45729 0.43299 0.0
C1439 C 0.07164 0.37877 0.4769 0.0
H1440 H 0.05951 0.40551 0.39776 0.0
C1441 C 0.06389 0.40771 0.49671 0.0
C1442 C 0.0541 0.43595 0.48126 0.0
H1443 H 0.0781 0.35693 0.48981 0.0
H1444 H 0.06469 0.40745 0.52425 0.0
C1445 C 0.05384 0.43564 0.44544 0.0
C1446 C 0.42688 0.26512 0.209 0.0
C1447 C 0.43082 0.28251 0.17905 0.0
H1448 H 0.39648 0.25276 0.25111 0.0
C1449 C 0.40813 0.30454 0.171 0.0
H1450 H 0.44391 0.24809 0.21604 0.0
C1451 C 0.38164 0.30827 0.19183 0.0
C1452 C 0.37684 0.28949 0.22083 0.0
H1453 H 0.4106 0.31861 0.14829 0.0
H1454 H 0.36382 0.32414 0.1841 0.0
C1455 C 0.39991 0.2681 0.22928 0.0
C1456 C 0.5788 0.49573 0.36987 0.0
C1457 C 0.61332 0.50321 0.37653 0.0
H1458 H 0.53074 0.4892 0.39044 0.0
C1459 C 0.62558 0.50818 0.41075 0.0
H1460 H 0.56845 0.49142 0.34382 0.0
C1461 C 0.60375 0.50737 0.43753 0.0
C1462 C 0.56929 0.5008 0.43075 0.0
H1463 H 0.65196 0.5138 0.41681 0.0
H1464 H 0.61382 0.51216 0.46358 0.0
C1465 C 0.55709 0.49415 0.3966 0.0
C1466 C 0.29289 0.87763 0.10087 0.0
C1467 C 0.31024 0.86087 0.07606 0.0
H1468 H 0.28039 0.88185 0.15339 0.0
C1469 C 0.33188 0.83875 0.08639 0.0
H1470 H 0.27614 0.8949 0.09367 0.0
C1471 C 0.33439 0.83149 0.1203 0.0
C1472 C 0.31534 0.84619 0.14461 0.0
H1473 H 0.3461 0.82595 0.06801 0.0
H1474 H 0.35013 0.81306 0.12716 0.0
C1475 C 0.29538 0.87024 0.13499 0.0
C1476 C 0.95666 0.55357 0.90503 0.0
C1477 C 0.96994 0.56879 0.87653 0.0
H1478 H 0.96692 0.53385 0.95225 0.0
C1479 C 1.00404 0.58213 0.87678 0.0
H1480 H 0.93062 0.54228 0.90497 0.0
C1481 C 0.02492 0.57854 0.90461 0.0
C1482 C 1.01193 0.56066 0.93196 0.0
H1483 H 1.01473 0.59361 0.85464 0.0
H1484 H 0.05127 0.58757 0.90368 0.0
C1485 C 0.97757 0.5489 0.93219 0.0
C1486 C 0.28805 0.20009 0.61192 0.0
C1487 C 0.26112 0.20578 0.59158 0.0
H1488 H 0.31247 0.20766 0.66178 0.0
C1489 C 0.23619 0.22121 0.60753 0.0
H1490 H 0.30767 0.18841 0.60047 0.0
C1491 C 0.23866 0.23193 0.64264 0.0
C1492 C 0.2664 0.22802 0.66274 0.0
H1493 H 0.2149 0.22571 0.59266 0.0
H1494 H 0.2194 0.2445 0.65372 0.0
C1495 C 0.2908 0.21137 0.64705 0.0
C1496 C 0.63434 0.52248 0.17717 0.0
C1497 C 0.62916 0.54711 0.2041 0.0
H1498 H 0.62599 0.50575 0.12347 0.0
C1499 C 0.61547 0.57689 0.19626 0.0
H1500 H 0.64474 0.49932 0.18233 0.0
C1501 C 0.60455 0.58044 0.16296 0.0
C1502 C 0.60737 0.55454 0.13645 0.0
H1503 H 0.61167 0.59682 0.21631 0.0
H1504 H 0.59252 0.60264 0.15829 0.0
C1505 C 0.62351 0.5262 0.14354 0.0
C1506 C 0.23754 0.85012 0.87354 0.0
C1507 C 0.25868 0.84365 0.90007 0.0
H1508 H 0.21579 0.8327 0.82329 0.0
C1509 C 0.275 0.81438 0.89569 0.0
H1510 H 0.22449 0.87232 0.87639 0.0
C1511 C 0.27062 0.79223 0.86515 0.0
C1512 C 0.24921 0.79844 0.83884 0.0
H1513 H 0.29142 0.80869 0.91574 0.0
H1514 H 0.2837 0.77006 0.8622 0.0
C1515 C 0.2324 0.82731 0.84336 0.0
C1516 C 0.94715 0.5194 0.68201 0.0
C1517 C 0.9669 0.50791 0.70715 0.0
H1518 H 0.94216 0.53048 0.62981 0.0
C1519 C 0.99645 0.49681 0.69798 0.0
H1520 H 0.9243 0.52823 0.68828 0.0
C1521 C 1.00667 0.49843 0.66478 0.0
C1522 C 0.98751 0.51099 0.64006 0.0
H1523 H 1.01221 0.48767 0.71663 0.0
H1524 H 0.02986 0.49029 0.6586 0.0
C1525 C 0.95741 0.52091 0.64865 0.0
C1526 C 0.27954 0.19474 0.37594 0.0
C1527 C 0.28032 0.21053 0.40974 0.0
H1528 H 0.28038 0.20264 0.32249 0.0
C1529 C 0.28374 0.24783 0.41489 0.0
H1530 H 0.27682 0.16615 0.37093 0.0
C1531 C 0.28663 0.26874 0.38724 0.0
C1532 C 0.28577 0.25306 0.35346 0.0
H1533 H 0.28456 0.26106 0.44048 0.0
H1534 H 0.28926 0.29732 0.39236 0.0
C1535 C 0.28187 0.21573 0.34813 0.0
C1536 C 0.39805 0.62377 0.526 0.0
C1537 C 0.36581 0.60504 0.5273 0.0
H1538 H 0.4489 0.62098 0.52031 0.0
C1539 C 0.3603 0.56755 0.52321 0.0
H1540 H 0.40304 0.65257 0.52886 0.0
C1541 C 0.38663 0.54924 0.51732 0.0
C1542 C 0.41886 0.56822 0.51623 0.0
H1543 H 0.33555 0.55243 0.52368 0.0
H1544 H 0.38189 0.52046 0.51408 0.0
C1545 C 0.42427 0.60559 0.52094 0.0
C1546 C 0.91412 0.93732 0.50332 0.0
C1547 C 0.88987 0.93766 0.52756 0.0
H1548 H 0.96142 0.96117 0.48772 0.0
C1549 C 0.89557 0.96403 0.5554 0.0
H1550 H 0.9104 0.91754 0.48144 0.0
C1551 C 0.92547 0.98853 0.55953 0.0
C1552 C 0.94979 0.98797 0.53532 0.0
H1553 H 0.8774 0.96498 0.57454 0.0
H1554 H 0.92963 0.00786 0.58175 0.0
C1555 C 0.94341 0.96248 0.50686 0.0
C1556 C 0.8683 0.15426 0.26282 0.0
C1557 C 0.8548 0.12325 0.24176 0.0
H1558 H 0.8628 0.20585 0.28413 0.0
C1559 C 0.82336 0.12161 0.22547 0.0
H1560 H 0.89225 0.1566 0.27601 0.0
C1561 C 0.80614 0.15037 0.23001 0.0
C1562 C 0.81967 0.18129 0.25144 0.0
H1563 H 0.81206 0.09809 0.20914 0.0
H1564 H 0.7823 0.14837 0.21673 0.0
C1565 C 0.85106 0.18259 0.26771 0.0
C1566 C 0.66662 0.13679 0.05314 0.0
C1567 C 0.69322 0.12436 0.03769 0.0
H1568 H 0.61513 0.12515 0.0631 0.0
C1569 C 0.68891 0.08903 0.02302 0.0
H1570 H 0.66944 0.16388 0.06478 0.0
C1571 C 0.65796 0.06732 0.02154 0.0
C1572 C 0.6311 0.0802 0.03565 0.0
H1573 H 0.70898 0.07881 0.01082 0.0
H1574 H 0.65466 0.04092 0.00813 0.0
C1575 C 0.63578 0.11461 0.05253 0.0
C1576 C 0.18129 0.415 0.24276 0.0
C1577 C 0.19693 0.45023 0.2417 0.0
H1578 H 0.1873 0.36162 0.24786 0.0
C1579 C 0.23159 0.45902 0.24587 0.0
H1580 H 0.15465 0.40766 0.23965 0.0
C1581 C 0.25034 0.4328 0.25146 0.0
C1582 C 0.23459 0.3975 0.25197 0.0
H1583 H 0.24412 0.48623 0.24543 0.0
H1584 H 0.27697 0.43994 0.25482 0.0
C1585 C 0.20001 0.38877 0.24741 0.0
C1586 C 0.21136 0.47618 0.02666 0.0
C1587 C 0.20731 0.43883 0.02545 0.0
H1588 H 0.1881 0.52179 0.02209 0.0
C1589 C 0.17526 0.41892 0.0194 0.0
H1590 H 0.23573 0.49236 0.03096 0.0
C1591 C 0.14802 0.43583 0.01475 0.0
C1592 C 0.15213 0.47306 0.01525 0.0
H1593 H 0.17118 0.39018 0.01817 0.0
H1594 H 0.12368 0.4196 0.01029 0.0
C1595 C 0.18413 0.49307 0.0213 0.0
C1596 C 0.83509 0.92441 0.22024 0.0
C1597 C 0.86755 0.92744 0.23423 0.0
H1598 H 0.78686 0.89188 0.21175 0.0
C1599 C 0.8763 0.89814 0.24919 0.0
H1600 H 0.82745 0.94637 0.20851 0.0
C1601 C 0.85306 0.86734 0.25141 0.0
C1602 C 0.82048 0.86462 0.23827 0.0
H1603 H 0.90093 0.89932 0.2604 0.0
H1604 H 0.86047 0.84593 0.26424 0.0
C1605 C 0.81185 0.89318 0.22202 0.0
C1606 C 0.67314 0.15862 0.70481 0.0
C1607 C 0.68117 0.12561 0.71123 0.0
H1608 H 0.69083 0.21463 0.70476 0.0
C1609 C 0.71465 0.12305 0.71686 0.0
H1610 H 0.64767 0.16141 0.70018 0.0
C1611 C 0.73905 0.1534 0.71985 0.0
C1612 C 0.73062 0.18661 0.71611 0.0
H1613 H 0.72188 0.09807 0.72176 0.0
H1614 H 0.76412 0.15126 0.7275 0.0
C1615 C 0.69783 0.18895 0.70699 0.0
loop_
_geom_bond_atom_site_label_1
_geom_bond_atom_site_label_2
_geom_bond_distance
_geom_bond_site_symmetry_2
_ccdc_geom_bond_type
Co0 O1 2.216 . S
Co0 O2 2.091 . S
Co0 O4 2.004 1_455 S
Co0 O10 2.021 . S
Co0 O12 2.137 . S
Co0 O13 2.244 . S
O1 Co0 2.216 . S
O1 C8 1.247 . S
O2 Co0 2.091 . S
O2 C8 1.261 . S
C3 O12 1.247 . S
C3 O13 1.272 . S
O4 Co0 2.004 1_655 S
O4 C9 1.259 . S
Co5 O6 2.061 . S
Co5 O11 2.052 1_655 S
Co5 O13 2.135 1_655 S
O6 Co5 2.061 . S
O6 C9 1.235 . S
C7 O10 1.238 . S
C7 O11 1.241 . S
C8 O1 1.247 . S
C8 O2 1.261 . S
C9 O4 1.259 . S
C9 O6 1.235 . S
O10 Co0 2.021 . S
O10 C7 1.238 . S
O11 Co5 2.052 1_455 S
O11 C7 1.241 . S
O12 Co0 2.137 . S
O12 C3 1.247 . S
O13 Co0 2.244 . S
O13 C3 1.272 . S
O13 Co5 2.135 1_455 S
Co14 O15 2.196 1_455 S
Co14 O16 2.078 1_455 S
Co14 O18 2.022 . S
Co14 O24 2.024 1_455 S
Co14 O26 2.134 . S
Co14 O27 2.250 . S
O15 Co14 2.196 1_655 S
O15 C22 1.247 . S
O16 Co14 2.078 1_655 S
O16 C22 1.261 . S
C17 O26 1.247 . S
C17 O27 1.272 . S
O18 Co14 2.022 . S
O18 C23 1.259 . S
Co19 O20 2.061 . S
Co19 O25 2.052 . S
Co19 O27 2.135 . S
O20 Co19 2.061 . S
O20 C23 1.235 . S
C21 O24 1.238 1_455 S
C21 O25 1.241 . S
C22 O15 1.247 . S
C22 O16 1.261 . S
C23 O18 1.259 . S
C23 O20 1.235 . S
O24 Co14 2.024 1_655 S
O24 C21 1.238 1_655 S
O25 Co19 2.052 . S
O25 C21 1.241 . S
O26 Co14 2.134 . S
O26 C17 1.247 . S
O27 Co14 2.250 . S
O27 C17 1.272 . S
O27 Co19 2.135 . S
Co28 O29 2.216 . S
Co28 O30 2.091 . S
Co28 O32 2.004 . S
Co28 O38 2.021 . S
Co28 O40 2.137 . S
Co28 O41 2.244 . S
O29 Co28 2.216 . S
O29 C36 1.247 . S
O30 Co28 2.091 . S
O30 C36 1.261 . S
C31 O40 1.247 . S
C31 O41 1.272 . S
O32 Co28 2.004 . S
O32 C37 1.259 . S
Co33 O34 2.061 . S
Co33 O39 2.052 . S
Co33 O41 2.135 . S
O34 Co33 2.061 . S
O34 C37 1.235 . S
C35 O38 1.238 . S
C35 O39 1.241 . S
C36 O29 1.247 . S
C36 O30 1.261 . S
C37 O32 1.259 . S
C37 O34 1.235 . S
O38 Co28 2.021 . S
O38 C35 1.238 . S
O39 Co33 2.052 . S
O39 C35 1.241 . S
O40 Co28 2.137 . S
O40 C31 1.247 . S
O41 Co28 2.244 . S
O41 C31 1.272 . S
O41 Co33 2.135 . S
Co42 O43 2.216 . S
Co42 O44 2.091 . S
Co42 O46 2.004 . S
Co42 O52 2.021 . S
Co42 O54 2.137 . S
Co42 O55 2.244 . S
O43 Co42 2.216 . S
O43 C50 1.247 . S
O44 Co42 2.091 . S
O44 C50 1.261 . S
C45 O54 1.247 . S
C45 O55 1.272 . S
O46 Co42 2.004 . S
O46 C51 1.259 . S
Co47 O48 2.061 . S
Co47 O53 2.052 . S
Co47 O55 2.135 . S
O48 Co47 2.061 . S
O48 C51 1.235 . S
C49 O52 1.238 . S
C49 O53 1.241 . S
C50 O43 1.247 . S
C50 O44 1.261 . S
C51 O46 1.259 . S
C51 O48 1.235 . S
O52 Co42 2.021 . S
O52 C49 1.238 . S
O53 Co47 2.052 . S
O53 C49 1.241 . S
O54 Co42 2.137 . S
O54 C45 1.247 . S
O55 Co42 2.244 . S
O55 C45 1.272 . S
O55 Co47 2.135 . S
Co56 O57 2.216 1_455 S
Co56 O58 2.091 1_455 S
Co56 O60 2.004 . S
Co56 O66 2.021 . S
Co56 O68 2.137 . S
Co56 O69 2.244 . S
O57 Co56 2.216 1_655 S
O57 C64 1.247 . S
O58 Co56 2.091 1_655 S
O58 C64 1.261 . S
C59 O68 1.247 . S
C59 O69 1.272 . S
O60 Co56 2.004 . S
O60 C65 1.259 . S
Co61 O62 2.061 . S
Co61 O67 2.052 . S
Co61 O69 2.135 . S
O62 Co61 2.061 . S
O62 C65 1.235 . S
C63 O66 1.238 . S
C63 O67 1.241 . S
C64 O57 1.247 . S
C64 O58 1.261 . S
C65 O60 1.259 . S
C65 O62 1.235 . S
O66 Co56 2.021 . S
O66 C63 1.238 . S
O67 Co61 2.052 . S
O67 C63 1.241 . S
O68 Co56 2.137 . S
O68 C59 1.247 . S
O69 Co56 2.244 . S
O69 C59 1.272 . S
O69 Co61 2.135 . S
Co70 O71 2.216 . S
Co70 O72 2.091 . S
Co70 O74 2.004 . S
Co70 O80 2.021 . S
Co70 O82 2.137 . S
Co70 O83 2.244 . S
O71 Co70 2.216 . S
O71 C78 1.247 . S
O72 Co70 2.091 . S
O72 C78 1.261 . S
C73 O82 1.247 . S
C73 O83 1.272 . S
O74 Co70 2.004 . S
O74 C79 1.259 . S
Co75 O76 2.061 . S
Co75 O81 2.052 . S
Co75 O83 2.135 . S
O76 Co75 2.061 . S
O76 C79 1.235 . S
C77 O80 1.238 . S
C77 O81 1.241 . S
C78 O71 1.247 . S
C78 O72 1.261 . S
C79 O74 1.259 . S
C79 O76 1.235 . S
O80 Co70 2.021 . S
O80 C77 1.238 . S
O81 Co75 2.052 . S
O81 C77 1.241 . S
O82 Co70 2.137 . S
O82 C73 1.247 . S
O83 Co70 2.244 . S
O83 C73 1.272 . S
O83 Co75 2.135 . S
Co84 O85 2.216 . S
Co84 O86 2.091 . S
Co84 O88 2.004 . S
Co84 O94 2.021 . S
Co84 O96 2.137 . S
Co84 O97 2.244 . S
O85 Co84 2.216 . S
O85 C92 1.247 . S
O86 Co84 2.091 . S
O86 C92 1.261 . S
C87 O96 1.247 . S
C87 O97 1.272 . S
O88 Co84 2.004 . S
O88 C93 1.259 . S
Co89 O90 2.061 . S
Co89 O95 2.052 . S
Co89 O97 2.135 . S
O90 Co89 2.061 . S
O90 C93 1.235 . S
C91 O94 1.238 . S
C91 O95 1.241 . S
C92 O85 1.247 . S
C92 O86 1.261 . S
C93 O88 1.259 . S
C93 O90 1.235 . S
O94 Co84 2.021 . S
O94 C91 1.238 . S
O95 Co89 2.052 . S
O95 C91 1.241 . S
O96 Co84 2.137 . S
O96 C87 1.247 . S
O97 Co84 2.244 . S
O97 C87 1.272 . S
O97 Co89 2.135 . S
Co98 O99 2.216 . S
Co98 O100 2.091 . S
Co98 O102 2.004 1_455 S
Co98 O108 2.021 1_455 S
Co98 O110 2.137 . S
Co98 O111 2.244 1_455 S
O99 Co98 2.216 . S
O99 C106 1.247 . S
O100 Co98 2.091 . S
O100 C106 1.261 . S
C101 O110 1.247 . S
C101 O111 1.272 1_455 S
O102 Co98 2.004 1_655 S
O102 C107 1.259 . S
Co103 O104 2.061 . S
Co103 O109 2.052 . S
Co103 O111 2.135 . S
O104 Co103 2.061 . S
O104 C107 1.235 . S
C105 O108 1.241 . S
C105 O109 1.241 . S
C106 O99 1.247 . S
C106 O100 1.261 . S
C107 O102 1.259 . S
C107 O104 1.235 . S
O108 Co98 2.021 1_655 S
O108 C105 1.241 . S
O109 Co103 2.052 . S
O109 C105 1.241 . S
O110 Co98 2.137 . S
O110 C101 1.247 . S
O111 Co98 2.244 1_655 S
O111 C101 1.272 1_655 S
O111 Co103 2.135 . S
Co112 O113 2.216 . S
Co112 O114 2.091 . S
Co112 O116 2.004 1_545 S
Co112 O122 2.021 . S
Co112 O124 2.137 . S
Co112 O125 2.244 . S
O113 Co112 2.216 . S
O113 C120 1.247 . S
O114 Co112 2.091 . S
O114 C120 1.261 . S
C115 O124 1.247 . S
C115 O125 1.272 . S
O116 Co112 2.004 1_565 S
O116 C121 1.259 . S
Co117 O118 2.061 . S
Co117 O123 2.052 . S
Co117 O125 2.135 1_565 S
O118 Co117 2.061 . S
O118 C121 1.235 . S
C119 O122 1.238 . S
C119 O123 1.241 1_545 S
C120 O113 1.247 . S
C120 O114 1.261 . S
C121 O116 1.259 . S
C121 O118 1.235 . S
O122 Co112 2.021 . S
O122 C119 1.238 . S
O123 Co117 2.052 . S
O123 C119 1.241 1_565 S
O124 Co112 2.137 . S
O124 C115 1.247 . S
O125 Co112 2.244 . S
O125 C115 1.272 . S
O125 Co117 2.135 1_545 S
Co126 O127 2.216 . S
Co126 O128 2.091 . S
Co126 O130 2.004 . S
Co126 O136 2.021 . S
Co126 O138 2.137 . S
Co126 O139 2.244 . S
O127 Co126 2.216 . S
O127 C134 1.247 . S
O128 Co126 2.091 . S
O128 C134 1.261 . S
C129 O138 1.247 . S
C129 O139 1.272 . S
O130 Co126 2.004 . S
O130 C135 1.259 . S
Co131 O132 2.061 . S
Co131 O137 2.052 . S
Co131 O139 2.135 . S
O132 Co131 2.061 . S
O132 C135 1.235 . S
C133 O136 1.238 . S
C133 O137 1.241 . S
C134 O127 1.247 . S
C134 O128 1.261 . S
C135 O130 1.259 . S
C135 O132 1.235 . S
O136 Co126 2.021 . S
O136 C133 1.238 . S
O137 Co131 2.052 . S
O137 C133 1.241 . S
O138 Co126 2.137 . S
O138 C129 1.247 . S
O139 Co126 2.244 . S
O139 C129 1.272 . S
O139 Co131 2.135 . S
Co140 O141 2.216 . S
Co140 O142 2.091 . S
Co140 O144 2.004 1_565 S
Co140 O150 2.021 . S
Co140 O152 2.137 . S
Co140 O153 2.244 1_565 S
O141 Co140 2.216 . S
O141 C148 1.247 . S
O142 Co140 2.091 . S
O142 C148 1.261 . S
C143 O152 1.233 1_545 S
C143 O153 1.284 . S
O144 Co140 2.004 1_545 S
O144 C149 1.259 . S
Co145 O146 2.061 . S
Co145 O151 2.052 . S
Co145 O153 2.135 . S
O146 Co145 2.061 . S
O146 C149 1.235 . S
C147 O150 1.238 . S
C147 O151 1.241 1_565 S
C148 O141 1.247 . S
C148 O142 1.261 . S
C149 O144 1.259 . S
C149 O146 1.235 . S
O150 Co140 2.021 . S
O150 C147 1.238 . S
O151 Co145 2.052 . S
O151 C147 1.241 1_545 S
O152 Co140 2.137 . S
O152 C143 1.233 1_565 S
O153 Co140 2.244 1_545 S
O153 C143 1.284 . S
O153 Co145 2.135 . S
Co154 O155 2.216 . S
Co154 O156 2.091 . S
Co154 O158 2.004 . S
Co154 O164 2.021 . S
Co154 O166 2.137 1_554 S
Co154 O167 2.244 1_554 S
O155 Co154 2.216 . S
O155 C162 1.247 . S
O156 Co154 2.091 . S
O156 C162 1.261 . S
C157 O166 1.247 . S
C157 O167 1.272 . S
O158 Co154 2.004 . S
O158 C163 1.259 . S
Co159 O160 2.061 . S
Co159 O165 2.052 . S
Co159 O167 2.135 1_554 S
O160 Co159 2.061 . S
O160 C163 1.235 . S
C161 O164 1.238 . S
C161 O165 1.241 . S
C162 O155 1.247 . S
C162 O156 1.261 . S
C163 O158 1.259 . S
C163 O160 1.235 . S
O164 Co154 2.021 . S
O164 C161 1.238 . S
O165 Co159 2.052 . S
O165 C161 1.241 . S
O166 Co154 2.137 1_556 S
O166 C157 1.247 . S
O167 Co154 2.244 1_556 S
O167 C157 1.272 . S
O167 Co159 2.135 1_556 S
Co168 O169 2.216 . S
Co168 O170 2.091 . S
Co168 O172 2.004 . S
Co168 O178 2.021 . S
Co168 O180 2.137 1_554 S
Co168 O181 2.244 1_554 S
O169 Co168 2.216 . S
O169 C176 1.247 . S
O170 Co168 2.091 . S
O170 C176 1.261 . S
C171 O180 1.247 . S
C171 O181 1.272 . S
O172 Co168 2.004 . S
O172 C177 1.259 . S
Co173 O174 2.061 . S
Co173 O179 2.052 . S
Co173 O181 2.135 1_554 S
O174 Co173 2.061 . S
O174 C177 1.235 . S
C175 O178 1.238 . S
C175 O179 1.241 . S
C176 O169 1.247 . S
C176 O170 1.261 . S
C177 O172 1.259 . S
C177 O174 1.235 . S
O178 Co168 2.021 . S
O178 C175 1.238 . S
O179 Co173 2.052 . S
O179 C175 1.241 . S
O180 Co168 2.137 1_556 S
O180 C171 1.247 . S
O181 Co168 2.244 1_556 S
O181 C171 1.272 . S
O181 Co173 2.135 1_556 S
Co182 O183 2.216 1_556 S
Co182 O184 2.089 1_556 S
Co182 O186 2.004 . S
Co182 O192 2.021 1_556 S
Co182 O194 2.137 . S
Co182 O195 2.244 . S
O183 Co182 2.216 1_554 S
O183 C190 1.247 . S
O184 Co182 2.089 1_554 S
O184 C190 1.260 . S
C185 O194 1.247 . S
C185 O195 1.272 . S
O186 Co182 2.004 . S
O186 C191 1.259 . S
Co187 O188 2.061 . S
Co187 O193 2.052 . S
Co187 O195 2.135 1_554 S
O188 Co187 2.061 . S
O188 C191 1.235 1_554 S
C189 O192 1.238 . S
C189 O193 1.241 . S
C190 O183 1.247 . S
C190 O184 1.260 . S
C191 O186 1.259 . S
C191 O188 1.235 1_556 S
O192 Co182 2.021 1_554 S
O192 C189 1.238 . S
O193 Co187 2.052 . S
O193 C189 1.241 . S
O194 Co182 2.137 . S
O194 C185 1.247 . S
O195 Co182 2.244 . S
O195 C185 1.272 . S
O195 Co187 2.135 1_556 S
Co196 O197 2.216 . S
Co196 O198 2.091 . S
Co196 O200 2.004 . S
Co196 O206 2.021 . S
Co196 O208 2.137 . S
Co196 O209 2.244 . S
O197 Co196 2.216 . S
O197 C204 1.247 . S
O198 Co196 2.091 . S
O198 C204 1.261 . S
C199 O208 1.247 . S
C199 O209 1.272 . S
O200 Co196 2.004 . S
O200 C205 1.259 . S
Co201 O202 2.061 . S
Co201 O207 2.052 . S
Co201 O209 2.135 . S
O202 Co201 2.061 . S
O202 C205 1.235 . S
C203 O206 1.238 . S
C203 O207 1.241 . S
C204 O197 1.247 . S
C204 O198 1.261 . S
C205 O200 1.259 . S
C205 O202 1.235 . S
O206 Co196 2.021 . S
O206 C203 1.238 . S
O207 Co201 2.052 . S
O207 C203 1.241 . S
O208 Co196 2.137 . S
O208 C199 1.247 . S
O209 Co196 2.244 . S
O209 C199 1.272 . S
O209 Co201 2.135 . S
Co210 O211 2.216 . S
Co210 O212 2.091 . S
Co210 O214 2.004 . S
Co210 O220 2.021 . S
Co210 O222 2.137 . S
Co210 O223 2.244 . S
O211 Co210 2.216 . S
O211 C218 1.247 . S
O212 Co210 2.091 . S
O212 C218 1.261 . S
C213 O222 1.247 . S
C213 O223 1.272 . S
O214 Co210 2.004 . S
O214 C219 1.259 . S
Co215 O216 2.061 . S
Co215 O221 2.052 . S
Co215 O223 2.135 . S
O216 Co215 2.061 . S
O216 C219 1.235 . S
C217 O220 1.238 . S
C217 O221 1.241 . S
C218 O211 1.247 . S
C218 O212 1.261 . S
C219 O214 1.259 . S
C219 O216 1.235 . S
O220 Co210 2.021 . S
O220 C217 1.238 . S
O221 Co215 2.052 . S
O221 C217 1.241 . S
O222 Co210 2.137 . S
O222 C213 1.247 . S
O223 Co210 2.244 . S
O223 C213 1.272 . S
O223 Co215 2.135 . S
Co224 O225 2.216 . S
Co224 O226 2.091 . S
Co224 O228 2.026 . S
Co224 O234 2.021 . S
Co224 O236 2.137 . S
Co224 O237 2.244 . S
O225 Co224 2.216 . S
O225 C232 1.247 . S
O226 Co224 2.091 . S
O226 C232 1.261 . S
C227 O236 1.247 . S
C227 O237 1.272 . S
O228 Co224 2.026 . S
O228 C233 1.236 1_545 S
Co229 O230 2.061 . S
Co229 O235 2.052 1_565 S
Co229 O237 2.135 1_565 S
O230 Co229 2.061 . S
O230 C233 1.235 . S
C231 O234 1.238 . S
C231 O235 1.241 . S
C232 O225 1.247 . S
C232 O226 1.261 . S
C233 O228 1.236 1_565 S
C233 O230 1.235 . S
O234 Co224 2.021 . S
O234 C231 1.238 . S
O235 Co229 2.052 1_545 S
O235 C231 1.241 . S
O236 Co224 2.137 . S
O236 C227 1.247 . S
O237 Co224 2.244 . S
O237 C227 1.272 . S
O237 Co229 2.135 1_545 S
Co238 O239 2.216 . S
Co238 O240 2.091 . S
Co238 O242 2.004 . S
Co238 O248 2.021 . S
Co238 O250 2.137 . S
Co238 O251 2.244 . S
O239 Co238 2.216 . S
O239 C246 1.247 . S
O240 Co238 2.091 . S
O240 C246 1.261 . S
C241 O250 1.247 . S
C241 O251 1.272 . S
O242 Co238 2.004 . S
O242 C247 1.259 . S
Co243 O244 2.061 . S
Co243 O249 2.052 . S
Co243 O251 2.135 . S
O244 Co243 2.061 . S
O244 C247 1.235 . S
C245 O248 1.238 . S
C245 O249 1.241 . S
C246 O239 1.247 . S
C246 O240 1.261 . S
C247 O242 1.259 . S
C247 O244 1.235 . S
O248 Co238 2.021 . S
O248 C245 1.238 . S
O249 Co243 2.052 . S
O249 C245 1.241 . S
O250 Co238 2.137 . S
O250 C241 1.247 . S
O251 Co238 2.244 . S
O251 C241 1.272 . S
O251 Co243 2.135 . S
Co252 O253 2.216 . S
Co252 O254 2.091 . S
Co252 O256 2.004 . S
Co252 O262 2.021 . S
Co252 O264 2.137 . S
Co252 O265 2.244 . S
O253 Co252 2.216 . S
O253 C260 1.247 . S
O254 Co252 2.091 . S
O254 C260 1.261 . S
C255 O264 1.247 . S
C255 O265 1.272 . S
O256 Co252 2.004 . S
O256 C261 1.259 . S
Co257 O258 2.061 . S
Co257 O263 2.052 . S
Co257 O265 2.135 . S
O258 Co257 2.061 . S
O258 C261 1.235 . S
C259 O262 1.238 . S
C259 O263 1.241 . S
C260 O253 1.247 . S
C260 O254 1.261 . S
C261 O256 1.259 . S
C261 O258 1.235 . S
O262 Co252 2.021 . S
O262 C259 1.238 . S
O263 Co257 2.052 . S
O263 C259 1.241 . S
O264 Co252 2.137 . S
O264 C255 1.247 . S
O265 Co252 2.244 . S
O265 C255 1.272 . S
O265 Co257 2.135 . S
Co266 O267 2.216 1_545 S
Co266 O268 2.091 1_545 S
Co266 O270 2.004 . S
Co266 O276 2.021 . S
Co266 O278 2.137 . S
Co266 O279 2.244 . S
O267 Co266 2.216 1_565 S
O267 C274 1.247 . S
O268 Co266 2.091 1_565 S
O268 C274 1.261 . S
C269 O278 1.247 . S
C269 O279 1.272 . S
O270 Co266 2.004 . S
O270 C275 1.259 . S
Co271 O272 2.061 . S
Co271 O277 2.052 . S
Co271 O279 2.135 . S
O272 Co271 2.061 . S
O272 C275 1.235 . S
C273 O276 1.238 . S
C273 O277 1.241 . S
C274 O267 1.247 . S
C274 O268 1.261 . S
C275 O270 1.259 . S
C275 O272 1.235 . S
O276 Co266 2.021 . S
O276 C273 1.238 . S
O277 Co271 2.052 . S
O277 C273 1.241 . S
O278 Co266 2.137 . S
O278 C269 1.247 . S
O279 Co266 2.244 . S
O279 C269 1.272 . S
O279 Co271 2.135 . S
Co280 O281 2.216 1_556 S
Co280 O282 2.091 1_556 S
Co280 O284 2.004 . S
Co280 O290 2.021 1_556 S
Co280 O292 2.137 . S
Co280 O293 2.244 . S
O281 Co280 2.216 1_554 S
O281 C288 1.247 . S
O282 Co280 2.091 1_554 S
O282 C288 1.261 . S
C283 O292 1.247 . S
C283 O293 1.272 . S
O284 Co280 2.004 . S
O284 C289 1.259 . S
Co285 O286 2.061 . S
Co285 O291 2.052 . S
Co285 O293 2.135 1_554 S
O286 Co285 2.061 . S
O286 C289 1.235 1_554 S
C287 O290 1.238 . S
C287 O291 1.241 . S
C288 O281 1.247 . S
C288 O282 1.261 . S
C289 O284 1.259 . S
C289 O286 1.235 1_556 S
O290 Co280 2.021 1_554 S
O290 C287 1.238 . S
O291 Co285 2.052 . S
O291 C287 1.241 . S
O292 Co280 2.137 . S
O292 C283 1.247 . S
O293 Co280 2.244 . S
O293 C283 1.272 . S
O293 Co285 2.135 1_556 S
Co294 O295 2.216 . S
Co294 O296 2.091 . S
Co294 O298 2.004 . S
Co294 O304 2.021 . S
Co294 O306 2.137 . S
Co294 O307 2.244 . S
O295 Co294 2.216 . S
O295 C302 1.247 . S
O296 Co294 2.091 . S
O296 C302 1.261 . S
C297 O306 1.247 . S
C297 O307 1.272 . S
O298 Co294 2.004 . S
O298 C303 1.259 . S
Co299 O300 2.061 . S
Co299 O305 2.052 . S
Co299 O307 2.135 . S
O300 Co299 2.061 . S
O300 C303 1.235 . S
C301 O304 1.238 . S
C301 O305 1.241 . S
C302 O295 1.247 . S
C302 O296 1.261 . S
C303 O298 1.259 . S
C303 O300 1.235 . S
O304 Co294 2.021 . S
O304 C301 1.238 . S
O305 Co299 2.052 . S
O305 C301 1.241 . S
O306 Co294 2.137 . S
O306 C297 1.247 . S
O307 Co294 2.244 . S
O307 C297 1.272 . S
O307 Co299 2.135 . S
Co308 O309 2.216 . S
Co308 O310 2.091 . S
Co308 O312 2.004 . S
Co308 O318 2.021 . S
Co308 O320 2.137 . S
Co308 O321 2.244 . S
O309 Co308 2.216 . S
O309 C316 1.247 . S
O310 Co308 2.091 . S
O310 C316 1.261 . S
C311 O320 1.247 . S
C311 O321 1.272 . S
O312 Co308 2.004 . S
O312 C317 1.259 . S
Co313 O314 2.061 . S
Co313 O319 2.052 . S
Co313 O321 2.135 . S
O314 Co313 2.061 . S
O314 C317 1.235 . S
C315 O318 1.238 . S
C315 O319 1.241 . S
C316 O309 1.247 . S
C316 O310 1.261 . S
C317 O312 1.259 . S
C317 O314 1.235 . S
O318 Co308 2.021 . S
O318 C315 1.238 . S
O319 Co313 2.052 . S
O319 C315 1.241 . S
O320 Co308 2.137 . S
O320 C311 1.247 . S
O321 Co308 2.244 . S
O321 C311 1.272 . S
O321 Co313 2.135 . S
Co322 O323 2.216 . S
Co322 O324 2.091 . S
Co322 O326 2.004 . S
Co322 O332 2.021 . S
Co322 O334 2.137 . S
Co322 O335 2.244 . S
O323 Co322 2.216 . S
O323 C330 1.247 . S
O324 Co322 2.091 . S
O324 C330 1.261 . S
C325 O334 1.247 . S
C325 O335 1.272 . S
O326 Co322 2.004 . S
O326 C331 1.259 . S
Co327 O328 2.061 . S
Co327 O333 2.052 . S
Co327 O335 2.135 . S
O328 Co327 2.061 . S
O328 C331 1.235 . S
C329 O332 1.238 . S
C329 O333 1.241 . S
C330 O323 1.247 . S
C330 O324 1.261 . S
C331 O326 1.259 . S
C331 O328 1.235 . S
O332 Co322 2.021 . S
O332 C329 1.238 . S
O333 Co327 2.052 . S
O333 C329 1.241 . S
O334 Co322 2.137 . S
O334 C325 1.247 . S
O335 Co322 2.244 . S
O335 C325 1.272 . S
O335 Co327 2.135 . S
Dy336 O340 2.398 . S
Dy336 O341 2.491 1_556 S
Dy336 O342 2.403 . S
Dy336 O343 2.664 1_655 S
Dy336 O347 2.326 . S
Dy336 O351 2.310 1_656 S
Dy336 O352 2.351 1_546 S
C337 O348 1.185 . S
C337 O349 1.355 1_545 S
C338 O340 1.185 . S
C338 O341 1.355 1_556 S
Dy339 O343 2.310 1_554 S
Dy339 O346 2.351 . S
Dy339 O348 2.398 . S
Dy339 O349 2.491 1_545 S
Dy339 O350 2.403 . S
Dy339 O351 2.664 . S
Dy339 O353 2.326 1_545 S
O340 Dy336 2.398 . S
O340 C338 1.185 . S
O341 Dy336 2.491 1_554 S
O341 C338 1.355 1_554 S
O342 Dy336 2.403 . S
O342 C344 1.254 1_655 S
O343 Dy336 2.664 1_455 S
O343 Dy339 2.310 1_556 S
O343 C344 1.268 . S
C344 O342 1.254 1_455 S
C344 O343 1.268 . S
C345 O350 1.254 . S
C345 O351 1.268 . S
O346 Dy339 2.351 . S
O346 C354 1.249 1_554 S
O347 Dy336 2.326 . S
O347 C354 1.267 1_655 S
O348 C337 1.185 . S
O348 Dy339 2.398 . S
O349 C337 1.355 1_565 S
O349 Dy339 2.491 1_565 S
O350 Dy339 2.403 . S
O350 C345 1.254 . S
O351 Dy336 2.310 1_454 S
O351 Dy339 2.664 . S
O351 C345 1.268 . S
O352 Dy336 2.351 1_564 S
O352 C355 1.249 1_655 S
O353 Dy339 2.326 1_565 S
O353 C355 1.267 . S
C354 O346 1.249 1_556 S
C354 O347 1.267 1_455 S
C355 O352 1.249 1_455 S
C355 O353 1.267 . S
Dy356 O360 2.398 . S
Dy356 O361 2.491 . S
Dy356 O362 2.403 . S
Dy356 O363 2.664 . S
Dy356 O367 2.326 . S
Dy356 O371 2.310 . S
Dy356 O372 2.351 . S
C357 O368 1.185 . S
C357 O369 1.355 . S
C358 O360 1.185 . S
C358 O361 1.355 . S
Dy359 O363 2.310 . S
Dy359 O366 2.351 . S
Dy359 O368 2.398 . S
Dy359 O369 2.491 . S
Dy359 O370 2.403 . S
Dy359 O371 2.664 . S
Dy359 O373 2.326 . S
O360 Dy356 2.398 . S
O360 C358 1.185 . S
O361 Dy356 2.491 . S
O361 C358 1.355 . S
O362 Dy356 2.403 . S
O362 C364 1.254 . S
O363 Dy356 2.664 . S
O363 Dy359 2.310 . S
O363 C364 1.268 . S
C364 O362 1.254 . S
C364 O363 1.268 . S
C365 O370 1.254 . S
C365 O371 1.268 . S
O366 Dy359 2.351 . S
O366 C374 1.249 . S
O367 Dy356 2.326 . S
O367 C374 1.267 . S
O368 C357 1.185 . S
O368 Dy359 2.398 . S
O369 C357 1.355 . S
O369 Dy359 2.491 . S
O370 Dy359 2.403 . S
O370 C365 1.254 . S
O371 Dy356 2.310 . S
O371 Dy359 2.664 . S
O371 C365 1.268 . S
O372 Dy356 2.351 . S
O372 C375 1.249 . S
O373 Dy359 2.326 . S
O373 C375 1.267 . S
C374 O366 1.249 . S
C374 O367 1.267 . S
C375 O372 1.249 . S
C375 O373 1.267 . S
Dy376 O380 2.399 . S
Dy376 O381 2.491 1_545 S
Dy376 O382 2.403 . S
Dy376 O383 2.664 . S
Dy376 O387 2.326 1_545 S
Dy376 O391 2.310 . S
Dy376 O392 2.351 . S
C377 O388 1.185 . S
C377 O389 1.355 . S
C378 O380 1.184 1_565 S
C378 O381 1.355 . S
Dy379 O383 2.310 . S
Dy379 O386 2.351 1_545 S
Dy379 O388 2.398 . S
Dy379 O389 2.491 . S
Dy379 O390 2.403 . S
Dy379 O391 2.664 . S
Dy379 O393 2.326 . S
O380 Dy376 2.399 . S
O380 C378 1.184 1_545 S
O381 Dy376 2.491 1_565 S
O381 C378 1.355 . S
O382 Dy376 2.403 . S
O382 C384 1.254 . S
O383 Dy376 2.664 . S
O383 Dy379 2.310 . S
O383 C384 1.268 . S
C384 O382 1.254 . S
C384 O383 1.268 . S
C385 O390 1.254 . S
C385 O391 1.268 . S
O386 Dy379 2.351 1_565 S
O386 C394 1.249 . S
O387 Dy376 2.326 1_565 S
O387 C394 1.267 . S
O388 C377 1.185 . S
O388 Dy379 2.398 . S
O389 C377 1.355 . S
O389 Dy379 2.491 . S
O390 Dy379 2.403 . S
O390 C385 1.254 . S
O391 Dy376 2.310 . S
O391 Dy379 2.664 . S
O391 C385 1.268 . S
O392 Dy376 2.351 . S
O392 C395 1.249 . S
O393 Dy379 2.326 . S
O393 C395 1.267 . S
C394 O386 1.249 . S
C394 O387 1.267 . S
C395 O392 1.249 . S
C395 O393 1.267 . S
Dy396 O400 2.398 . S
Dy396 O401 2.491 . S
Dy396 O402 2.403 . S
Dy396 O403 2.664 . S
Dy396 O407 2.326 . S
Dy396 O411 2.310 . S
Dy396 O412 2.351 . S
C397 O408 1.185 . S
C397 O409 1.355 . S
C398 O400 1.185 . S
C398 O401 1.355 . S
Dy399 O403 2.310 . S
Dy399 O406 2.351 . S
Dy399 O408 2.398 . S
Dy399 O409 2.491 . S
Dy399 O410 2.403 . S
Dy399 O411 2.664 . S
Dy399 O413 2.326 . S
O400 Dy396 2.398 . S
O400 C398 1.185 . S
O401 Dy396 2.491 . S
O401 C398 1.355 . S
O402 Dy396 2.403 . S
O402 C404 1.254 . S
O403 Dy396 2.664 . S
O403 Dy399 2.310 . S
O403 C404 1.268 . S
C404 O402 1.254 . S
C404 O403 1.268 . S
C405 O410 1.254 . S
C405 O411 1.268 . S
O406 Dy399 2.351 . S
O406 C414 1.249 . S
O407 Dy396 2.326 . S
O407 C414 1.267 . S
O408 C397 1.185 . S
O408 Dy399 2.398 . S
O409 C397 1.355 . S
O409 Dy399 2.491 . S
O410 Dy399 2.403 . S
O410 C405 1.254 . S
O411 Dy396 2.310 . S
O411 Dy399 2.664 . S
O411 C405 1.268 . S
O412 Dy396 2.351 . S
O412 C415 1.249 . S
O413 Dy399 2.326 . S
O413 C415 1.267 . S
C414 O406 1.249 . S
C414 O407 1.267 . S
C415 O412 1.249 . S
C415 O413 1.267 . S
Dy416 O420 2.393 1_565 S
Dy416 O421 2.484 1_465 S
Dy416 O422 2.399 1_565 S
Dy416 O423 2.660 1_565 S
Dy416 O427 2.309 1_565 S
Dy416 O431 2.306 1_465 S
Dy416 O432 2.364 . S
C417 O428 1.185 . S
C417 O429 1.355 . S
C418 O420 1.185 1_655 S
C418 O421 1.355 . S
Dy419 O423 2.310 . S
Dy419 O426 2.351 . S
Dy419 O428 2.398 . S
Dy419 O429 2.491 . S
Dy419 O430 2.403 1_455 S
Dy419 O431 2.664 1_455 S
Dy419 O433 2.326 1_545 S
O420 Dy416 2.393 1_545 S
O420 C418 1.185 1_455 S
O421 Dy416 2.484 1_645 S
O421 C418 1.355 . S
O422 Dy416 2.399 1_545 S
O422 C424 1.254 . S
O423 Dy416 2.660 1_545 S
O423 Dy419 2.310 . S
O423 C424 1.268 . S
C424 O422 1.254 . S
C424 O423 1.268 . S
C425 O430 1.254 . S
C425 O431 1.268 . S
O426 Dy419 2.351 . S
O426 C434 1.249 . S
O427 Dy416 2.309 1_545 S
O427 C434 1.267 . S
O428 C417 1.185 . S
O428 Dy419 2.398 . S
O429 C417 1.355 . S
O429 Dy419 2.491 . S
O430 Dy419 2.403 1_655 S
O430 C425 1.254 . S
O431 Dy416 2.306 1_645 S
O431 Dy419 2.664 1_655 S
O431 C425 1.268 . S
O432 Dy416 2.364 . S
O432 C435 1.249 . S
O433 Dy419 2.326 1_565 S
O433 C435 1.267 . S
C434 O426 1.249 . S
C434 O427 1.267 . S
C435 O432 1.249 . S
C435 O433 1.267 . S
Dy436 O440 2.398 . S
Dy436 O441 2.491 . S
Dy436 O442 2.403 . S
Dy436 O443 2.664 . S
Dy436 O447 2.326 . S
Dy436 O451 2.310 . S
Dy436 O452 2.351 . S
C437 O448 1.185 . S
C437 O449 1.355 . S
C438 O440 1.185 . S
C438 O441 1.355 . S
Dy439 O443 2.310 . S
Dy439 O446 2.351 . S
Dy439 O448 2.398 . S
Dy439 O449 2.491 . S
Dy439 O450 2.403 . S
Dy439 O451 2.664 . S
Dy439 O453 2.326 . S
O440 Dy436 2.398 . S
O440 C438 1.185 . S
O441 Dy436 2.491 . S
O441 C438 1.355 . S
O442 Dy436 2.403 . S
O442 C444 1.254 . S
O443 Dy436 2.664 . S
O443 Dy439 2.310 . S
O443 C444 1.268 . S
C444 O442 1.254 . S
C444 O443 1.268 . S
C445 O450 1.254 . S
C445 O451 1.268 . S
O446 Dy439 2.351 . S
O446 C454 1.249 . S
O447 Dy436 2.326 . S
O447 C454 1.267 . S
O448 C437 1.185 . S
O448 Dy439 2.398 . S
O449 C437 1.355 . S
O449 Dy439 2.491 . S
O450 Dy439 2.403 . S
O450 C445 1.254 . S
O451 Dy436 2.310 . S
O451 Dy439 2.664 . S
O451 C445 1.268 . S
O452 Dy436 2.351 . S
O452 C455 1.249 . S
O453 Dy439 2.326 . S
O453 C455 1.267 . S
C454 O446 1.249 . S
C454 O447 1.267 . S
C455 O452 1.249 . S
C455 O453 1.267 . S
Dy456 O460 2.398 1_545 S
Dy456 O461 2.491 . S
Dy456 O462 2.403 1_545 S
Dy456 O463 2.664 1_544 S
Dy456 O467 2.326 1_545 S
Dy456 O471 2.310 . S
Dy456 O472 2.351 . S
C457 O468 1.185 . S
C457 O469 1.355 . S
C458 O460 1.185 . S
C458 O461 1.355 1_565 S
Dy459 O463 2.310 1_545 S
Dy459 O466 2.351 . S
Dy459 O468 2.398 . S
Dy459 O469 2.491 . S
Dy459 O470 2.403 . S
Dy459 O471 2.664 1_556 S
Dy459 O473 2.326 . S
O460 Dy456 2.398 1_565 S
O460 C458 1.185 . S
O461 Dy456 2.491 . S
O461 C458 1.355 1_545 S
O462 Dy456 2.403 1_565 S
O462 C464 1.254 1_554 S
O463 Dy456 2.664 1_566 S
O463 Dy459 2.310 1_565 S
O463 C464 1.268 . S
C464 O462 1.254 1_556 S
C464 O463 1.268 . S
C465 O470 1.254 1_554 S
C465 O471 1.268 . S
O466 Dy459 2.351 . S
O466 C474 1.236 1_546 S
O467 Dy456 2.326 1_565 S
O467 C474 1.283 . S
O468 C457 1.185 . S
O468 Dy459 2.398 . S
O469 C457 1.355 . S
O469 Dy459 2.491 . S
O470 Dy459 2.403 . S
O470 C465 1.254 1_556 S
O471 Dy456 2.310 . S
O471 Dy459 2.664 1_554 S
O471 C465 1.268 . S
O472 Dy456 2.351 . S
O472 C475 1.249 . S
O473 Dy459 2.326 . S
O473 C475 1.267 1_556 S
C474 O466 1.236 1_564 S
C474 O467 1.283 . S
C475 O472 1.249 . S
C475 O473 1.267 1_554 S
Dy476 O480 2.398 . S
Dy476 O481 2.491 . S
Dy476 O482 2.403 . S
Dy476 O483 2.664 . S
Dy476 O487 2.326 . S
Dy476 O491 2.310 . S
Dy476 O492 2.351 . S
C477 O488 1.185 . S
C477 O489 1.355 . S
C478 O480 1.185 . S
C478 O481 1.355 . S
Dy479 O483 2.310 . S
Dy479 O486 2.351 . S
Dy479 O488 2.398 . S
Dy479 O489 2.491 . S
Dy479 O490 2.403 . S
Dy479 O491 2.664 . S
Dy479 O493 2.326 . S
O480 Dy476 2.398 . S
O480 C478 1.185 . S
O481 Dy476 2.491 . S
O481 C478 1.355 . S
O482 Dy476 2.403 . S
O482 C484 1.254 . S
O483 Dy476 2.664 . S
O483 Dy479 2.310 . S
O483 C484 1.268 . S
C484 O482 1.254 . S
C484 O483 1.268 . S
C485 O490 1.254 . S
C485 O491 1.268 . S
O486 Dy479 2.351 . S
O486 C494 1.249 . S
O487 Dy476 2.326 . S
O487 C494 1.267 . S
O488 C477 1.185 . S
O488 Dy479 2.398 . S
O489 C477 1.355 . S
O489 Dy479 2.491 . S
O490 Dy479 2.403 . S
O490 C485 1.254 . S
O491 Dy476 2.310 . S
O491 Dy479 2.664 . S
O491 C485 1.268 . S
O492 Dy476 2.351 . S
O492 C495 1.249 . S
O493 Dy479 2.326 . S
O493 C495 1.267 . S
C494 O486 1.249 . S
C494 O487 1.267 . S
C495 O492 1.249 . S
C495 O493 1.267 . S
Dy496 O500 2.398 . S
Dy496 O501 2.491 . S
Dy496 O502 2.403 . S
Dy496 O503 2.664 1_556 S
Dy496 O507 2.326 . S
Dy496 O511 2.302 1_556 S
Dy496 O512 2.351 . S
C497 O508 1.185 . S
C497 O509 1.355 . S
C498 O500 1.185 . S
C498 O501 1.355 . S
Dy499 O503 2.310 . S
Dy499 O506 2.351 . S
Dy499 O508 2.398 . S
Dy499 O509 2.491 . S
Dy499 O510 2.403 . S
Dy499 O511 2.672 . S
Dy499 O513 2.326 . S
O500 Dy496 2.398 . S
O500 C498 1.185 . S
O501 Dy496 2.491 . S
O501 C498 1.355 . S
O502 Dy496 2.403 . S
O502 C504 1.254 . S
O503 Dy496 2.664 1_554 S
O503 Dy499 2.310 . S
O503 C504 1.268 1_554 S
C504 O502 1.254 . S
C504 O503 1.268 1_556 S
C505 O510 1.254 . S
C505 O511 1.275 . S
O506 Dy499 2.351 . S
O506 C514 1.249 1_554 S
O507 Dy496 2.326 . S
O507 C514 1.267 . S
O508 C497 1.185 . S
O508 Dy499 2.398 . S
O509 C497 1.355 . S
O509 Dy499 2.491 . S
O510 Dy499 2.403 . S
O510 C505 1.254 . S
O511 Dy496 2.302 1_554 S
O511 Dy499 2.672 . S
O511 C505 1.275 . S
O512 Dy496 2.351 . S
O512 C515 1.249 1_556 S
O513 Dy499 2.326 . S
O513 C515 1.267 . S
C514 O506 1.249 1_556 S
C514 O507 1.267 . S
C515 O512 1.249 1_554 S
C515 O513 1.267 . S
Dy516 O520 2.398 . S
Dy516 O521 2.491 . S
Dy516 O522 2.403 . S
Dy516 O523 2.664 . S
Dy516 O527 2.326 . S
Dy516 O531 2.310 . S
Dy516 O532 2.351 . S
C517 O528 1.185 . S
C517 O529 1.355 . S
C518 O520 1.185 . S
C518 O521 1.355 . S
Dy519 O523 2.310 . S
Dy519 O526 2.351 . S
Dy519 O528 2.398 . S
Dy519 O529 2.491 . S
Dy519 O530 2.403 . S
Dy519 O531 2.664 . S
Dy519 O533 2.326 . S
O520 Dy516 2.398 . S
O520 C518 1.185 . S
O521 Dy516 2.491 . S
O521 C518 1.355 . S
O522 Dy516 2.403 . S
O522 C524 1.254 . S
O523 Dy516 2.664 . S
O523 Dy519 2.310 . S
O523 C524 1.268 . S
C524 O522 1.254 . S
C524 O523 1.268 . S
C525 O530 1.254 . S
C525 O531 1.268 . S
O526 Dy519 2.351 . S
O526 C534 1.249 . S
O527 Dy516 2.326 . S
O527 C534 1.267 . S
O528 C517 1.185 . S
O528 Dy519 2.398 . S
O529 C517 1.355 . S
O529 Dy519 2.491 . S
O530 Dy519 2.403 . S
O530 C525 1.254 . S
O531 Dy516 2.310 . S
O531 Dy519 2.664 . S
O531 C525 1.268 . S
O532 Dy516 2.351 . S
O532 C535 1.249 . S
O533 Dy519 2.326 . S
O533 C535 1.267 . S
C534 O526 1.249 . S
C534 O527 1.267 . S
C535 O532 1.249 . S
C535 O533 1.267 . S
Dy536 O540 2.398 1_455 S
Dy536 O541 2.491 1_455 S
Dy536 O542 2.403 . S
Dy536 O543 2.664 . S
Dy536 O547 2.326 1_455 S
Dy536 O551 2.310 . S
Dy536 O552 2.351 . S
C537 O548 1.185 . S
C537 O549 1.355 . S
C538 O540 1.185 . S
C538 O541 1.355 . S
Dy539 O543 2.310 . S
Dy539 O546 2.351 1_455 S
Dy539 O548 2.398 . S
Dy539 O549 2.491 . S
Dy539 O550 2.403 . S
Dy539 O551 2.664 . S
Dy539 O553 2.326 . S
O540 Dy536 2.398 1_655 S
O540 C538 1.185 . S
O541 Dy536 2.491 1_655 S
O541 C538 1.355 . S
O542 Dy536 2.403 . S
O542 C544 1.254 . S
O543 Dy536 2.664 . S
O543 Dy539 2.310 . S
O543 C544 1.268 . S
C544 O542 1.254 . S
C544 O543 1.268 . S
C545 O550 1.254 . S
C545 O551 1.268 . S
O546 Dy539 2.351 1_655 S
O546 C554 1.249 . S
O547 Dy536 2.326 1_655 S
O547 C554 1.267 . S
O548 C537 1.185 . S
O548 Dy539 2.398 . S
O549 C537 1.355 . S
O549 Dy539 2.491 . S
O550 Dy539 2.403 . S
O550 C545 1.254 . S
O551 Dy536 2.310 . S
O551 Dy539 2.664 . S
O551 C545 1.268 . S
O552 Dy536 2.351 . S
O552 C555 1.249 . S
O553 Dy539 2.326 . S
O553 C555 1.267 . S
C554 O546 1.249 . S
C554 O547 1.267 . S
C555 O552 1.249 . S
C555 O553 1.267 . S
Dy556 O560 2.398 . S
Dy556 O561 2.491 . S
Dy556 O562 2.403 . S
Dy556 O563 2.664 . S
Dy556 O567 2.326 . S
Dy556 O571 2.310 . S
Dy556 O572 2.351 . S
C557 O568 1.185 . S
C557 O569 1.355 . S
C558 O560 1.185 . S
C558 O561 1.355 . S
Dy559 O563 2.310 . S
Dy559 O566 2.351 . S
Dy559 O568 2.398 . S
Dy559 O569 2.491 . S
Dy559 O570 2.403 . S
Dy559 O571 2.664 . S
Dy559 O573 2.326 . S
O560 Dy556 2.398 . S
O560 C558 1.185 . S
O561 Dy556 2.491 . S
O561 C558 1.355 . S
O562 Dy556 2.403 . S
O562 C564 1.254 . S
O563 Dy556 2.664 . S
O563 Dy559 2.310 . S
O563 C564 1.268 . S
C564 O562 1.254 . S
C564 O563 1.268 . S
C565 O570 1.254 . S
C565 O571 1.268 . S
O566 Dy559 2.351 . S
O566 C574 1.249 . S
O567 Dy556 2.326 . S
O567 C574 1.267 . S
O568 C557 1.185 . S
O568 Dy559 2.398 . S
O569 C557 1.355 . S
O569 Dy559 2.491 . S
O570 Dy559 2.403 . S
O570 C565 1.254 . S
O571 Dy556 2.310 . S
O571 Dy559 2.664 . S
O571 C565 1.268 . S
O572 Dy556 2.351 . S
O572 C575 1.249 . S
O573 Dy559 2.326 . S
O573 C575 1.267 . S
C574 O566 1.249 . S
C574 O567 1.267 . S
C575 O572 1.249 . S
C575 O573 1.267 . S
Dy576 O580 2.398 . S
Dy576 O581 2.491 . S
Dy576 O582 2.403 . S
Dy576 O583 2.664 . S
Dy576 O587 2.326 . S
Dy576 O591 2.310 . S
Dy576 O592 2.351 . S
C577 O588 1.185 . S
C577 O589 1.355 . S
C578 O580 1.185 . S
C578 O581 1.355 . S
Dy579 O583 2.310 . S
Dy579 O586 2.351 . S
Dy579 O588 2.398 . S
Dy579 O589 2.491 . S
Dy579 O590 2.403 . S
Dy579 O591 2.664 . S
Dy579 O593 2.326 . S
O580 Dy576 2.398 . S
O580 C578 1.185 . S
O581 Dy576 2.491 . S
O581 C578 1.355 . S
O582 Dy576 2.403 . S
O582 C584 1.254 . S
O583 Dy576 2.664 . S
O583 Dy579 2.310 . S
O583 C584 1.268 . S
C584 O582 1.254 . S
C584 O583 1.268 . S
C585 O590 1.254 . S
C585 O591 1.268 . S
O586 Dy579 2.351 . S
O586 C594 1.249 . S
O587 Dy576 2.326 . S
O587 C594 1.267 . S
O588 C577 1.185 . S
O588 Dy579 2.398 . S
O589 C577 1.355 . S
O589 Dy579 2.491 . S
O590 Dy579 2.403 . S
O590 C585 1.254 . S
O591 Dy576 2.310 . S
O591 Dy579 2.664 . S
O591 C585 1.268 . S
O592 Dy576 2.351 . S
O592 C595 1.249 . S
O593 Dy579 2.326 . S
O593 C595 1.267 . S
C594 O586 1.249 . S
C594 O587 1.267 . S
C595 O592 1.249 . S
C595 O593 1.267 . S
Dy596 O600 2.398 . S
Dy596 O601 2.491 . S
Dy596 O602 2.403 . S
Dy596 O603 2.664 . S
Dy596 O607 2.326 . S
Dy596 O611 2.310 . S
Dy596 O612 2.351 . S
C597 O608 1.185 . S
C597 O609 1.355 . S
C598 O600 1.185 . S
C598 O601 1.355 . S
Dy599 O603 2.310 . S
Dy599 O606 2.351 . S
Dy599 O608 2.398 . S
Dy599 O609 2.491 . S
Dy599 O610 2.403 . S
Dy599 O611 2.664 . S
Dy599 O613 2.326 . S
O600 Dy596 2.398 . S
O600 C598 1.185 . S
O601 Dy596 2.491 . S
O601 C598 1.355 . S
O602 Dy596 2.403 . S
O602 C604 1.254 . S
O603 Dy596 2.664 . S
O603 Dy599 2.310 . S
O603 C604 1.268 . S
C604 O602 1.254 . S
C604 O603 1.268 . S
C605 O610 1.254 . S
C605 O611 1.268 . S
O606 Dy599 2.351 . S
O606 C614 1.249 . S
O607 Dy596 2.326 . S
O607 C614 1.267 . S
O608 C597 1.185 . S
O608 Dy599 2.398 . S
O609 C597 1.355 . S
O609 Dy599 2.491 . S
O610 Dy599 2.403 . S
O610 C605 1.254 . S
O611 Dy596 2.310 . S
O611 Dy599 2.664 . S
O611 C605 1.268 . S
O612 Dy596 2.351 . S
O612 C615 1.249 . S
O613 Dy599 2.326 . S
O613 C615 1.267 . S
C614 O606 1.249 . S
C614 O607 1.267 . S
C615 O612 1.249 . S
C615 O613 1.267 . S
Dy616 O620 2.398 . S
Dy616 O621 2.491 . S
Dy616 O622 2.403 . S
Dy616 O623 2.664 . S
Dy616 O627 2.326 . S
Dy616 O631 2.310 . S
Dy616 O632 2.351 . S
C617 O628 1.185 . S
C617 O629 1.355 . S
C618 O620 1.185 . S
C618 O621 1.355 . S
Dy619 O623 2.310 . S
Dy619 O626 2.351 . S
Dy619 O628 2.398 . S
Dy619 O629 2.491 . S
Dy619 O630 2.403 . S
Dy619 O631 2.664 . S
Dy619 O633 2.326 . S
O620 Dy616 2.398 . S
O620 C618 1.185 . S
O621 Dy616 2.491 . S
O621 C618 1.355 . S
O622 Dy616 2.403 . S
O622 C624 1.254 . S
O623 Dy616 2.664 . S
O623 Dy619 2.310 . S
O623 C624 1.268 . S
C624 O622 1.254 . S
C624 O623 1.268 . S
C625 O630 1.254 . S
C625 O631 1.268 . S
O626 Dy619 2.351 . S
O626 C634 1.249 . S
O627 Dy616 2.326 . S
O627 C634 1.267 . S
O628 C617 1.185 . S
O628 Dy619 2.398 . S
O629 C617 1.355 . S
O629 Dy619 2.491 . S
O630 Dy619 2.403 . S
O630 C625 1.254 . S
O631 Dy616 2.310 . S
O631 Dy619 2.664 . S
O631 C625 1.268 . S
O632 Dy616 2.351 . S
O632 C635 1.249 . S
O633 Dy619 2.326 . S
O633 C635 1.267 . S
C634 O626 1.249 . S
C634 O627 1.267 . S
C635 O632 1.249 . S
C635 O633 1.267 . S
Dy636 O640 2.398 . S
Dy636 O641 2.491 1_556 S
Dy636 O642 2.403 . S
Dy636 O643 2.690 . S
Dy636 O647 2.326 . S
Dy636 O651 2.310 1_556 S
Dy636 O652 2.351 1_556 S
C637 O648 1.185 . S
C637 O649 1.355 . S
C638 O640 1.185 . S
C638 O641 1.355 1_556 S
Dy639 O643 2.295 1_654 S
Dy639 O646 2.351 . S
Dy639 O648 2.398 . S
Dy639 O649 2.491 . S
Dy639 O650 2.403 . S
Dy639 O651 2.664 1_655 S
Dy639 O653 2.321 1_655 S
O640 Dy636 2.398 . S
O640 C638 1.185 . S
O641 Dy636 2.491 1_554 S
O641 C638 1.355 1_554 S
O642 Dy636 2.403 . S
O642 C644 1.254 . S
O643 Dy636 2.690 . S
O643 Dy639 2.295 1_456 S
O643 C644 1.277 . S
C644 O642 1.254 . S
C644 O643 1.277 . S
C645 O650 1.254 1_455 S
C645 O651 1.268 . S
O646 Dy639 2.351 . S
O646 C654 1.249 1_654 S
O647 Dy636 2.326 . S
O647 C654 1.267 . S
O648 C637 1.185 . S
O648 Dy639 2.398 . S
O649 C637 1.355 . S
O649 Dy639 2.491 . S
O650 Dy639 2.403 . S
O650 C645 1.254 1_655 S
O651 Dy636 2.310 1_554 S
O651 Dy639 2.664 1_455 S
O651 C645 1.268 . S
O652 Dy636 2.351 1_554 S
O652 C655 1.249 . S
O653 Dy639 2.321 1_455 S
O653 C655 1.277 . S
C654 O646 1.249 1_456 S
C654 O647 1.267 . S
C655 O652 1.249 . S
C655 O653 1.277 . S
C656 C657 1.397 . S
C656 H660 0.950 . S
C656 C665 1.390 . S
C657 C656 1.397 . S
C657 C659 1.370 1_655 S
H658 C665 0.950 1_554 S
C659 C657 1.370 1_455 S
C659 C661 1.390 . S
C659 H663 0.950 . S
H660 C656 0.950 . S
C661 C659 1.390 . S
C661 C662 1.387 . S
C661 H664 0.950 . S
C662 C661 1.387 . S
C662 C665 1.387 1_455 S
H663 C659 0.950 . S
H664 C661 0.950 . S
C665 C656 1.390 . S
C665 H658 0.950 1_556 S
C665 C662 1.387 1_655 S
C666 C667 1.387 . S
C666 H670 0.950 . S
C666 C675 1.390 . S
C667 C666 1.387 . S
C667 C669 1.387 . S
H668 C675 0.950 . S
C669 C667 1.387 . S
C669 C671 1.390 . S
C669 H673 0.950 . S
H670 C666 0.950 . S
C671 C669 1.390 . S
C671 C672 1.387 . S
C671 H674 0.950 . S
C672 C671 1.387 . S
C672 C675 1.387 . S
H673 C669 0.950 . S
H674 C671 0.950 . S
C675 C666 1.390 . S
C675 H668 0.950 . S
C675 C672 1.387 . S
C676 C677 1.387 . S
C676 H680 0.950 . S
C676 C685 1.390 . S
C677 C676 1.387 . S
C677 C679 1.387 . S
H678 C685 0.950 . S
C679 C677 1.387 . S
C679 C681 1.390 . S
C679 H683 0.950 . S
H680 C676 0.950 . S
C681 C679 1.390 . S
C681 C682 1.387 . S
C681 H684 0.950 . S
C682 C681 1.387 . S
C682 C685 1.387 . S
H683 C679 0.950 . S
H684 C681 0.950 . S
C685 C676 1.390 . S
C685 H678 0.950 . S
C685 C682 1.387 . S
C686 C687 1.387 . S
C686 H690 0.950 . S
C686 C695 1.390 . S
C687 C686 1.387 . S
C687 C689 1.387 . S
H688 C695 0.950 . S
C689 C687 1.387 . S
C689 C691 1.390 . S
C689 H693 0.950 . S
H690 C686 0.950 . S
C691 C689 1.390 . S
C691 C692 1.387 . S
C691 H694 0.950 . S
C692 C691 1.387 . S
C692 C695 1.387 . S
H693 C689 0.950 . S
H694 C691 0.950 . S
C695 C686 1.390 . S
C695 H688 0.950 . S
C695 C692 1.387 . S
C696 C697 1.387 1_655 S
C696 H700 0.950 . S
C696 C705 1.390 1_655 S
C697 C696 1.387 1_455 S
C697 C699 1.387 . S
H698 C705 0.950 1_655 S
C699 C697 1.387 . S
C699 C701 1.390 . S
C699 H703 0.950 . S
H700 C696 0.950 . S
C701 C699 1.390 . S
C701 C702 1.387 . S
C701 H704 0.950 . S
C702 C701 1.387 . S
C702 C705 1.387 . S
H703 C699 0.950 . S
H704 C701 0.950 . S
C705 C696 1.390 1_455 S
C705 H698 0.950 1_455 S
C705 C702 1.387 . S
C706 C707 1.387 . S
C706 H710 0.950 . S
C706 C715 1.390 . S
C707 C706 1.387 . S
C707 C709 1.387 . S
H708 C715 0.950 . S
C709 C707 1.387 . S
C709 C711 1.390 . S
C709 H713 0.950 . S
H710 C706 0.950 . S
C711 C709 1.390 . S
C711 C712 1.387 . S
C711 H714 0.950 . S
C712 C711 1.387 . S
C712 C715 1.387 . S
H713 C709 0.950 . S
H714 C711 0.950 . S
C715 C706 1.390 . S
C715 H708 0.950 . S
C715 C712 1.387 . S
C716 C717 1.387 . S
C716 H720 0.950 . S
C716 C725 1.390 . S
C717 C716 1.387 . S
C717 C719 1.387 . S
H718 C725 0.950 . S
C719 C717 1.387 . S
C719 C721 1.390 . S
C719 H723 0.950 . S
H720 C716 0.950 . S
C721 C719 1.390 . S
C721 C722 1.387 . S
C721 H724 0.950 . S
C722 C721 1.387 . S
C722 C725 1.387 . S
H723 C719 0.950 . S
H724 C721 0.950 . S
C725 C716 1.390 . S
C725 H718 0.950 . S
C725 C722 1.387 . S
C726 C727 1.387 . S
C726 H730 0.950 . S
C726 C735 1.390 . S
C727 C726 1.387 . S
C727 C729 1.387 . S
H728 C735 0.950 . S
C729 C727 1.387 . S
C729 C731 1.390 . S
C729 H733 0.950 . S
H730 C726 0.950 . S
C731 C729 1.390 . S
C731 C732 1.387 . S
C731 H734 0.950 . S
C732 C731 1.387 . S
C732 C735 1.387 . S
H733 C729 0.950 . S
H734 C731 0.950 . S
C735 C726 1.390 . S
C735 H728 0.950 . S
C735 C732 1.387 . S
C736 C737 1.387 . S
C736 H740 0.950 . S
C736 C745 1.390 . S
C737 C736 1.387 . S
C737 C739 1.387 . S
H738 C745 0.950 . S
C739 C737 1.387 . S
C739 C741 1.390 . S
C739 H743 0.950 1_545 S
H740 C736 0.950 . S
C741 C739 1.390 . S
C741 C742 1.387 . S
C741 H744 0.950 1_545 S
C742 C741 1.387 . S
C742 C745 1.387 . S
H743 C739 0.950 1_565 S
H744 C741 0.950 1_565 S
C745 C736 1.390 . S
C745 H738 0.950 . S
C745 C742 1.387 . S
C746 C747 1.387 . S
C746 H750 0.950 . S
C746 C755 1.390 . S
C747 C746 1.387 . S
C747 C749 1.387 . S
H748 C755 0.950 . S
C749 C747 1.387 . S
C749 C751 1.390 . S
C749 H753 0.950 . S
H750 C746 0.950 . S
C751 C749 1.390 . S
C751 C752 1.387 . S
C751 H754 0.950 . S
C752 C751 1.387 . S
C752 C755 1.387 . S
H753 C749 0.950 . S
H754 C751 0.950 . S
C755 C746 1.390 . S
C755 H748 0.950 . S
C755 C752 1.387 . S
C756 C757 1.387 1_565 S
C756 H760 0.950 . S
C756 C765 1.390 . S
C757 C756 1.387 1_545 S
C757 C759 1.387 . S
H758 C765 0.950 . S
C759 C757 1.387 . S
C759 C761 1.390 . S
C759 H763 0.950 . S
H760 C756 0.950 . S
C761 C759 1.390 . S
C761 C762 1.387 . S
C761 H764 0.950 . S
C762 C761 1.387 . S
C762 C765 1.387 1_545 S
H763 C759 0.950 . S
H764 C761 0.950 . S
C765 C756 1.390 . S
C765 H758 0.950 . S
C765 C762 1.387 1_565 S
C766 C767 1.387 . S
C766 H770 0.950 . S
C766 C775 1.390 . S
C767 C766 1.387 . S
C767 C769 1.387 . S
H768 C775 0.950 . S
C769 C767 1.387 . S
C769 C771 1.390 . S
C769 H773 0.950 . S
H770 C766 0.950 . S
C771 C769 1.390 . S
C771 C772 1.387 . S
C771 H774 0.950 . S
C772 C771 1.387 . S
C772 C775 1.387 . S
H773 C769 0.950 . S
H774 C771 0.950 . S
C775 C766 1.390 . S
C775 H768 0.950 . S
C775 C772 1.387 . S
C776 C777 1.387 . S
C776 H780 0.950 1_545 S
C776 C785 1.390 . S
C777 C776 1.387 . S
C777 C779 1.387 . S
H778 C785 0.950 1_565 S
C779 C777 1.387 . S
C779 C781 1.390 . S
C779 H783 0.950 . S
H780 C776 0.950 1_565 S
C781 C779 1.390 . S
C781 C782 1.387 . S
C781 H784 0.950 1_655 S
C782 C781 1.387 . S
C782 C785 1.387 . S
H783 C779 0.950 . S
H784 C781 0.950 1_455 S
C785 C776 1.390 . S
C785 H778 0.950 1_545 S
C785 C782 1.387 . S
C786 C787 1.387 . S
C786 H790 0.950 . S
C786 C795 1.390 . S
C787 C786 1.387 . S
C787 C789 1.387 . S
H788 C795 0.950 . S
C789 C787 1.387 . S
C789 C791 1.390 . S
C789 H793 0.950 . S
H790 C786 0.950 . S
C791 C789 1.390 . S
C791 C792 1.387 . S
C791 H794 0.950 . S
C792 C791 1.387 . S
C792 C795 1.387 . S
H793 C789 0.950 . S
H794 C791 0.950 . S
C795 C786 1.390 . S
C795 H788 0.950 . S
C795 C792 1.387 . S
C796 C797 1.387 . S
C796 H800 0.950 1_545 S
C796 C805 1.390 . S
C797 C796 1.387 . S
C797 C799 1.387 . S
H798 C805 0.949 . S
C799 C797 1.387 . S
C799 C801 1.390 . S
C799 H803 0.950 . S
H800 C796 0.950 1_565 S
C801 C799 1.390 . S
C801 C802 1.387 . S
C801 H804 0.950 . S
C802 C801 1.387 . S
C802 C805 1.387 . S
H803 C799 0.950 . S
H804 C801 0.950 . S
C805 C796 1.390 . S
C805 H798 0.949 . S
C805 C802 1.387 . S
C806 C807 1.387 . S
C806 H810 0.950 . S
C806 C815 1.390 . S
C807 C806 1.387 . S
C807 C809 1.387 . S
H808 C815 0.950 . S
C809 C807 1.387 . S
C809 C811 1.390 . S
C809 H813 0.950 . S
H810 C806 0.950 . S
C811 C809 1.390 . S
C811 C812 1.387 . S
C811 H814 0.950 . S
C812 C811 1.387 . S
C812 C815 1.387 . S
H813 C809 0.950 . S
H814 C811 0.950 . S
C815 C806 1.390 . S
C815 H808 0.950 . S
C815 C812 1.387 . S
C816 C817 1.387 . S
C816 H820 0.950 . S
C816 C825 1.390 . S
C817 C816 1.387 . S
C817 C819 1.387 1_554 S
H818 C825 0.950 . S
C819 C817 1.387 1_556 S
C819 C821 1.390 1_556 S
C819 H823 0.950 . S
H820 C816 0.950 . S
C821 C819 1.390 1_554 S
C821 C822 1.387 . S
C821 H824 0.950 1_554 S
C822 C821 1.387 . S
C822 C825 1.387 . S
H823 C819 0.950 . S
H824 C821 0.950 1_556 S
C825 C816 1.390 . S
C825 H818 0.950 . S
C825 C822 1.387 . S
C826 C827 1.387 . S
C826 H830 0.950 . S
C826 C835 1.390 . S
C827 C826 1.387 . S
C827 C829 1.387 1_556 S
H828 C835 0.950 . S
C829 C827 1.387 1_554 S
C829 C831 1.390 . S
C829 H833 0.950 . S
H830 C826 0.950 . S
C831 C829 1.390 . S
C831 C832 1.387 1_554 S
C831 H834 0.950 . S
C832 C831 1.387 1_556 S
C832 C835 1.387 . S
H833 C829 0.950 . S
H834 C831 0.950 . S
C835 C826 1.390 . S
C835 H828 0.950 . S
C835 C832 1.387 . S
C836 C837 1.387 . S
C836 H840 0.950 . S
C836 C845 1.390 . S
C837 C836 1.387 . S
C837 C839 1.387 . S
H838 C845 0.950 . S
C839 C837 1.387 . S
C839 C841 1.390 . S
C839 H843 0.950 . S
H840 C836 0.950 . S
C841 C839 1.390 . S
C841 C842 1.387 . S
C841 H844 0.950 . S
C842 C841 1.387 . S
C842 C845 1.387 . S
H843 C839 0.950 . S
H844 C841 0.950 . S
C845 C836 1.390 . S
C845 H838 0.950 . S
C845 C842 1.387 . S
C846 C847 1.387 . S
C846 H850 0.950 . S
C846 C855 1.390 . S
C847 C846 1.387 . S
C847 C849 1.387 . S
H848 C855 0.950 . S
C849 C847 1.387 . S
C849 C851 1.390 . S
C849 H853 0.950 . S
H850 C846 0.950 . S
C851 C849 1.390 . S
C851 C852 1.387 . S
C851 H854 0.950 . S
C852 C851 1.387 . S
C852 C855 1.387 . S
H853 C849 0.950 . S
H854 C851 0.950 . S
C855 C846 1.390 . S
C855 H848 0.950 . S
C855 C852 1.387 . S
C856 C857 1.387 . S
C856 H860 0.950 . S
C856 C865 1.390 . S
C857 C856 1.387 . S
C857 C859 1.387 . S
H858 C865 0.950 . S
C859 C857 1.387 . S
C859 C861 1.390 . S
C859 H863 0.950 . S
H860 C856 0.950 . S
C861 C859 1.390 . S
C861 C862 1.387 . S
C861 H864 0.950 . S
C862 C861 1.387 . S
C862 C865 1.387 . S
H863 C859 0.950 . S
H864 C861 0.950 . S
C865 C856 1.390 . S
C865 H858 0.950 . S
C865 C862 1.387 . S
C866 C867 1.387 . S
C866 H870 0.950 . S
C866 C875 1.390 . S
C867 C866 1.387 . S
C867 C869 1.387 . S
H868 C875 0.950 . S
C869 C867 1.387 . S
C869 C871 1.390 . S
C869 H873 0.950 . S
H870 C866 0.950 . S
C871 C869 1.390 . S
C871 C872 1.387 . S
C871 H874 0.950 . S
C872 C871 1.387 . S
C872 C875 1.387 . S
H873 C869 0.950 . S
H874 C871 0.950 . S
C875 C866 1.390 . S
C875 H868 0.950 . S
C875 C872 1.387 . S
C876 C877 1.387 . S
C876 H880 0.950 . S
C876 C885 1.390 . S
C877 C876 1.387 . S
C877 C879 1.387 . S
H878 C885 0.950 . S
C879 C877 1.387 . S
C879 C881 1.390 . S
C879 H883 0.950 . S
H880 C876 0.950 . S
C881 C879 1.390 . S
C881 C882 1.387 . S
C881 H884 0.950 . S
C882 C881 1.387 . S
C882 C885 1.387 . S
H883 C879 0.950 . S
H884 C881 0.950 . S
C885 C876 1.390 . S
C885 H878 0.950 . S
C885 C882 1.387 . S
C886 C887 1.387 . S
C886 H890 0.950 . S
C886 C895 1.390 . S
C887 C886 1.387 . S
C887 C889 1.387 . S
H888 C895 0.950 . S
C889 C887 1.387 . S
C889 C891 1.390 . S
C889 H893 0.950 . S
H890 C886 0.950 . S
C891 C889 1.390 . S
C891 C892 1.387 . S
C891 H894 0.950 . S
C892 C891 1.387 . S
C892 C895 1.387 . S
H893 C889 0.950 . S
H894 C891 0.950 . S
C895 C886 1.390 . S
C895 H888 0.950 . S
C895 C892 1.387 . S
C896 C897 1.387 . S
C896 H900 0.950 . S
C896 C905 1.390 . S
C897 C896 1.387 . S
C897 C899 1.387 . S
H898 C905 0.950 . S
C899 C897 1.387 . S
C899 C901 1.390 . S
C899 H903 0.950 . S
H900 C896 0.950 . S
C901 C899 1.390 . S
C901 C902 1.387 . S
C901 H904 0.950 1_554 S
C902 C901 1.387 . S
C902 C905 1.387 . S
H903 C899 0.950 . S
H904 C901 0.950 1_556 S
C905 C896 1.390 . S
C905 H898 0.950 . S
C905 C902 1.387 . S
C906 C907 1.387 . S
C906 H910 0.950 . S
C906 C915 1.390 . S
C907 C906 1.387 . S
C907 C909 1.387 . S
H908 C915 0.950 . S
C909 C907 1.387 . S
C909 C911 1.390 . S
C909 H913 0.950 . S
H910 C906 0.950 . S
C911 C909 1.390 . S
C911 C912 1.387 . S
C911 H914 0.950 . S
C912 C911 1.387 . S
C912 C915 1.387 . S
H913 C909 0.950 . S
H914 C911 0.950 . S
C915 C906 1.390 . S
C915 H908 0.950 . S
C915 C912 1.387 . S
C916 C917 1.387 . S
C916 H920 0.950 . S
C916 C925 1.390 . S
C917 C916 1.387 . S
C917 C919 1.387 . S
H918 C925 0.950 . S
C919 C917 1.387 . S
C919 C921 1.390 . S
C919 H923 0.950 . S
H920 C916 0.950 . S
C921 C919 1.390 . S
C921 C922 1.387 . S
C921 H924 0.950 . S
C922 C921 1.387 . S
C922 C925 1.387 . S
H923 C919 0.950 . S
H924 C921 0.950 . S
C925 C916 1.390 . S
C925 H918 0.950 . S
C925 C922 1.387 . S
C926 C927 1.387 . S
C926 H930 0.950 . S
C926 C935 1.390 . S
C927 C926 1.387 . S
C927 C929 1.387 . S
H928 C935 0.950 . S
C929 C927 1.387 . S
C929 C931 1.390 . S
C929 H933 0.950 . S
H930 C926 0.950 . S
C931 C929 1.390 . S
C931 C932 1.387 . S
C931 H934 0.950 . S
C932 C931 1.387 . S
C932 C935 1.387 . S
H933 C929 0.950 . S
H934 C931 0.950 . S
C935 C926 1.390 . S
C935 H928 0.950 . S
C935 C932 1.387 . S
C936 C937 1.387 1_655 S
C936 H940 0.950 . S
C936 C945 1.390 . S
C937 C936 1.387 1_455 S
C937 C939 1.387 . S
H938 C945 0.950 . S
C939 C937 1.387 . S
C939 C941 1.390 . S
C939 H943 0.950 . S
H940 C936 0.950 . S
C941 C939 1.390 . S
C941 C942 1.387 . S
C941 H944 0.950 . S
C942 C941 1.387 . S
C942 C945 1.387 1_455 S
H943 C939 0.950 . S
H944 C941 0.950 . S
C945 C936 1.390 . S
C945 H938 0.950 . S
C945 C942 1.387 1_655 S
C946 C947 1.387 . S
C946 H950 0.950 . S
C946 C955 1.390 . S
C947 C946 1.387 . S
C947 C949 1.387 . S
H948 C955 0.950 . S
C949 C947 1.387 . S
C949 C951 1.390 . S
C949 H953 0.950 . S
H950 C946 0.950 . S
C951 C949 1.390 . S
C951 C952 1.387 . S
C951 H954 0.950 . S
C952 C951 1.387 . S
C952 C955 1.387 . S
H953 C949 0.950 . S
H954 C951 0.950 . S
C955 C946 1.390 . S
C955 H948 0.950 . S
C955 C952 1.387 . S
C956 C957 1.387 . S
C956 H960 0.950 . S
C956 C965 1.390 . S
C957 C956 1.387 . S
C957 C959 1.387 . S
H958 C965 0.950 . S
C959 C957 1.387 . S
C959 C961 1.390 . S
C959 H963 0.950 . S
H960 C956 0.950 . S
C961 C959 1.390 . S
C961 C962 1.387 . S
C961 H964 0.950 . S
C962 C961 1.387 . S
C962 C965 1.387 . S
H963 C959 0.950 . S
H964 C961 0.950 . S
C965 C956 1.390 . S
C965 H958 0.950 . S
C965 C962 1.387 . S
C966 C967 1.387 . S
C966 H970 0.950 . S
C966 C975 1.390 . S
C967 C966 1.387 . S
C967 C969 1.387 . S
H968 C975 0.950 . S
C969 C967 1.387 . S
C969 C971 1.390 . S
C969 H973 0.950 . S
H970 C966 0.950 . S
C971 C969 1.390 . S
C971 C972 1.387 . S
C971 H974 0.950 . S
C972 C971 1.387 . S
C972 C975 1.387 . S
H973 C969 0.950 . S
H974 C971 0.950 . S
C975 C966 1.390 . S
C975 H968 0.950 . S
C975 C972 1.387 . S
C976 C977 1.387 . S
C976 H980 0.950 . S
C976 C985 1.390 . S
C977 C976 1.387 . S
C977 C979 1.387 1_545 S
H978 C985 0.950 . S
C979 C977 1.387 1_565 S
C979 C981 1.390 . S
C979 H983 0.950 . S
H980 C976 0.950 . S
C981 C979 1.390 . S
C981 C982 1.387 1_565 S
C981 H984 0.950 . S
C982 C981 1.387 1_545 S
C982 C985 1.387 . S
H983 C979 0.950 . S
H984 C981 0.950 . S
C985 C976 1.390 . S
C985 H978 0.950 . S
C985 C982 1.387 . S
C986 C987 1.387 . S
C986 H990 0.950 . S
C986 C995 1.390 . S
C987 C986 1.387 . S
C987 C989 1.387 . S
H988 C995 0.950 . S
C989 C987 1.387 . S
C989 C991 1.390 . S
C989 H993 0.950 . S
H990 C986 0.950 . S
C991 C989 1.390 . S
C991 C992 1.387 . S
C991 H994 0.950 . S
C992 C991 1.387 . S
C992 C995 1.387 . S
H993 C989 0.950 . S
H994 C991 0.950 . S
C995 C986 1.390 . S
C995 H988 0.950 . S
C995 C992 1.387 . S
C996 C997 1.387 . S
C996 H1000 0.950 . S
C996 C1005 1.390 . S
C997 C996 1.387 . S
C997 C999 1.387 1_545 S
H998 C1005 0.950 . S
C999 C997 1.387 1_565 S
C999 C1001 1.390 . S
C999 H1003 0.950 . S
H1000 C996 0.950 . S
C1001 C999 1.390 . S
C1001 C1002 1.387 1_565 S
C1001 H1004 0.950 . S
C1002 C1001 1.387 1_545 S
C1002 C1005 1.387 . S
H1003 C999 0.950 . S
H1004 C1001 0.950 . S
C1005 C996 1.390 . S
C1005 H998 0.950 . S
C1005 C1002 1.387 . S
C1006 C1007 1.387 . S
C1006 H1010 0.950 . S
C1006 C1015 1.390 . S
C1007 C1006 1.387 . S
C1007 C1009 1.387 . S
H1008 C1015 0.950 . S
C1009 C1007 1.387 . S
C1009 C1011 1.390 . S
C1009 H1013 0.950 . S
H1010 C1006 0.950 . S
C1011 C1009 1.390 . S
C1011 C1012 1.387 . S
C1011 H1014 0.950 . S
C1012 C1011 1.387 . S
C1012 C1015 1.387 . S
H1013 C1009 0.950 . S
H1014 C1011 0.950 . S
C1015 C1006 1.390 . S
C1015 H1008 0.950 . S
C1015 C1012 1.387 . S
C1016 C1017 1.387 1_545 S
C1016 H1020 0.950 . S
C1016 C1025 1.390 . S
C1017 C1016 1.387 1_565 S
C1017 C1019 1.387 . S
H1018 C1025 0.950 . S
C1019 C1017 1.387 . S
C1019 C1021 1.390 . S
C1019 H1023 0.950 . S
H1020 C1016 0.950 . S
C1021 C1019 1.390 . S
C1021 C1022 1.387 1_565 S
C1021 H1024 0.950 . S
C1022 C1021 1.387 1_545 S
C1022 C1025 1.387 . S
H1023 C1019 0.950 . S
H1024 C1021 0.950 . S
C1025 C1016 1.390 . S
C1025 H1018 0.950 . S
C1025 C1022 1.387 . S
C1026 C1027 1.387 . S
C1026 H1030 0.950 . S
C1026 C1035 1.390 . S
C1027 C1026 1.387 . S
C1027 C1029 1.387 . S
H1028 C1035 0.950 . S
C1029 C1027 1.387 . S
C1029 C1031 1.390 . S
C1029 H1033 0.950 . S
H1030 C1026 0.950 . S
C1031 C1029 1.390 . S
C1031 C1032 1.387 . S
C1031 H1034 0.950 . S
C1032 C1031 1.387 . S
C1032 C1035 1.387 . S
H1033 C1029 0.950 . S
H1034 C1031 0.950 . S
C1035 C1026 1.390 . S
C1035 H1028 0.950 . S
C1035 C1032 1.387 . S
C1036 C1037 1.387 1_565 S
C1036 H1040 0.950 . S
C1036 C1045 1.390 . S
C1037 C1036 1.387 1_545 S
C1037 C1039 1.387 . S
H1038 C1045 0.950 . S
C1039 C1037 1.387 . S
C1039 C1041 1.390 . S
C1039 H1043 0.950 . S
H1040 C1036 0.950 . S
C1041 C1039 1.390 . S
C1041 C1042 1.387 1_545 S
C1041 H1044 0.950 . S
C1042 C1041 1.387 1_565 S
C1042 C1045 1.387 . S
H1043 C1039 0.950 . S
H1044 C1041 0.950 . S
C1045 C1036 1.390 . S
C1045 H1038 0.950 . S
C1045 C1042 1.387 . S
C1046 C1047 1.387 . S
C1046 H1050 0.950 . S
C1046 C1055 1.390 . S
C1047 C1046 1.387 . S
C1047 C1049 1.387 . S
H1048 C1055 0.950 . S
C1049 C1047 1.387 . S
C1049 C1051 1.390 . S
C1049 H1053 0.950 . S
H1050 C1046 0.950 . S
C1051 C1049 1.390 . S
C1051 C1052 1.387 . S
C1051 H1054 0.950 . S
C1052 C1051 1.387 . S
C1052 C1055 1.387 . S
H1053 C1049 0.950 . S
H1054 C1051 0.950 . S
C1055 C1046 1.390 . S
C1055 H1048 0.950 . S
C1055 C1052 1.387 . S
C1056 C1057 1.387 . S
C1056 H1060 0.950 . S
C1056 C1065 1.390 . S
C1057 C1056 1.387 . S
C1057 C1059 1.387 1_556 S
H1058 C1065 0.950 . S
C1059 C1057 1.387 1_554 S
C1059 C1061 1.390 . S
C1059 H1063 0.950 . S
H1060 C1056 0.950 . S
C1061 C1059 1.390 . S
C1061 C1062 1.387 1_554 S
C1061 H1064 0.950 . S
C1062 C1061 1.387 1_556 S
C1062 C1065 1.387 . S
H1063 C1059 0.950 . S
H1064 C1061 0.950 . S
C1065 C1056 1.390 . S
C1065 H1058 0.950 . S
C1065 C1062 1.387 . S
C1066 C1067 1.387 . S
C1066 H1070 0.950 . S
C1066 C1075 1.390 . S
C1067 C1066 1.387 . S
C1067 C1069 1.387 1_554 S
H1068 C1075 0.950 . S
C1069 C1067 1.387 1_556 S
C1069 C1071 1.390 . S
C1069 H1073 0.950 . S
H1070 C1066 0.950 . S
C1071 C1069 1.390 . S
C1071 C1072 1.387 1_556 S
C1071 H1074 0.950 . S
C1072 C1071 1.387 1_554 S
C1072 C1075 1.387 . S
H1073 C1069 0.950 . S
H1074 C1071 0.950 . S
C1075 C1066 1.390 . S
C1075 H1068 0.950 . S
C1075 C1072 1.387 . S
C1076 C1077 1.387 . S
C1076 H1080 0.950 . S
C1076 C1085 1.390 . S
C1077 C1076 1.387 . S
C1077 C1079 1.387 . S
H1078 C1085 0.950 . S
C1079 C1077 1.387 . S
C1079 C1081 1.390 . S
C1079 H1083 0.950 . S
H1080 C1076 0.950 . S
C1081 C1079 1.390 . S
C1081 C1082 1.387 . S
C1081 H1084 0.950 . S
C1082 C1081 1.387 . S
C1082 C1085 1.387 . S
H1083 C1079 0.950 . S
H1084 C1081 0.950 . S
C1085 C1076 1.390 . S
C1085 H1078 0.950 . S
C1085 C1082 1.387 . S
C1086 C1087 1.387 . S
C1086 H1090 0.950 . S
C1086 C1095 1.390 . S
C1087 C1086 1.387 . S
C1087 C1089 1.387 . S
H1088 C1095 0.950 . S
C1089 C1087 1.387 . S
C1089 C1091 1.390 . S
C1089 H1093 0.950 . S
H1090 C1086 0.950 . S
C1091 C1089 1.390 . S
C1091 C1092 1.387 . S
C1091 H1094 0.950 . S
C1092 C1091 1.387 . S
C1092 C1095 1.387 . S
H1093 C1089 0.950 . S
H1094 C1091 0.950 . S
C1095 C1086 1.390 . S
C1095 H1088 0.950 . S
C1095 C1092 1.387 . S
C1096 C1097 1.387 . S
C1096 H1100 0.950 . S
C1096 C1105 1.390 . S
C1097 C1096 1.387 . S
C1097 C1099 1.387 . S
H1098 C1105 0.950 . S
C1099 C1097 1.387 . S
C1099 C1101 1.390 . S
C1099 H1103 0.950 . S
H1100 C1096 0.950 . S
C1101 C1099 1.390 . S
C1101 C1102 1.387 . S
C1101 H1104 0.950 . S
C1102 C1101 1.387 . S
C1102 C1105 1.387 . S
H1103 C1099 0.950 . S
H1104 C1101 0.950 . S
C1105 C1096 1.390 . S
C1105 H1098 0.950 . S
C1105 C1102 1.387 . S
C1106 C1107 1.387 . S
C1106 H1110 0.950 . S
C1106 C1115 1.390 . S
C1107 C1106 1.387 . S
C1107 C1109 1.387 . S
H1108 C1115 0.950 . S
C1109 C1107 1.387 . S
C1109 C1111 1.390 . S
C1109 H1113 0.950 . S
H1110 C1106 0.950 . S
C1111 C1109 1.390 . S
C1111 C1112 1.387 . S
C1111 H1114 0.950 . S
C1112 C1111 1.387 . S
C1112 C1115 1.387 . S
H1113 C1109 0.950 . S
H1114 C1111 0.950 . S
C1115 C1106 1.390 . S
C1115 H1108 0.950 . S
C1115 C1112 1.387 . S
C1116 C1117 1.387 . S
C1116 H1120 0.950 . S
C1116 C1125 1.390 . S
C1117 C1116 1.387 . S
C1117 C1119 1.387 . S
H1118 C1125 0.950 . S
C1119 C1117 1.387 . S
C1119 C1121 1.390 . S
C1119 H1123 0.950 . S
H1120 C1116 0.950 . S
C1121 C1119 1.390 . S
C1121 C1122 1.387 . S
C1121 H1124 0.950 . S
C1122 C1121 1.387 . S
C1122 C1125 1.387 . S
H1123 C1119 0.950 . S
H1124 C1121 0.950 . S
C1125 C1116 1.390 . S
C1125 H1118 0.950 . S
C1125 C1122 1.387 . S
C1126 C1127 1.387 . S
C1126 H1130 0.950 . S
C1126 C1135 1.390 . S
C1127 C1126 1.387 . S
C1127 C1129 1.387 . S
H1128 C1135 0.950 . S
C1129 C1127 1.387 . S
C1129 C1131 1.390 . S
C1129 H1133 0.950 . S
H1130 C1126 0.950 . S
C1131 C1129 1.390 . S
C1131 C1132 1.387 . S
C1131 H1134 0.950 . S
C1132 C1131 1.387 . S
C1132 C1135 1.387 . S
H1133 C1129 0.950 . S
H1134 C1131 0.950 . S
C1135 C1126 1.390 . S
C1135 H1128 0.950 . S
C1135 C1132 1.387 . S
C1136 C1137 1.387 . S
C1136 H1140 0.950 . S
C1136 C1145 1.390 . S
C1137 C1136 1.387 . S
C1137 C1139 1.387 . S
H1138 C1145 0.950 . S
C1139 C1137 1.387 . S
C1139 C1141 1.390 . S
C1139 H1143 0.950 . S
H1140 C1136 0.950 . S
C1141 C1139 1.390 . S
C1141 C1142 1.387 . S
C1141 H1144 0.950 . S
C1142 C1141 1.387 . S
C1142 C1145 1.387 . S
H1143 C1139 0.950 . S
H1144 C1141 0.950 . S
C1145 C1136 1.390 . S
C1145 H1138 0.950 . S
C1145 C1142 1.387 . S
C1146 C1147 1.387 . S
C1146 H1150 0.950 . S
C1146 C1155 1.390 . S
C1147 C1146 1.387 . S
C1147 C1149 1.387 . S
H1148 C1155 0.950 . S
C1149 C1147 1.387 . S
C1149 C1151 1.390 . S
C1149 H1153 0.950 . S
H1150 C1146 0.950 . S
C1151 C1149 1.390 . S
C1151 C1152 1.387 . S
C1151 H1154 0.950 . S
C1152 C1151 1.387 . S
C1152 C1155 1.387 . S
H1153 C1149 0.950 . S
H1154 C1151 0.950 . S
C1155 C1146 1.390 . S
C1155 H1148 0.950 . S
C1155 C1152 1.387 . S
C1156 C1157 1.387 1_655 S
C1156 H1160 0.950 . S
C1156 C1165 1.390 . S
C1157 C1156 1.387 1_455 S
C1157 C1159 1.387 . S
H1158 C1165 0.950 . S
C1159 C1157 1.387 . S
C1159 C1161 1.390 . S
C1159 H1163 0.950 . S
H1160 C1156 0.950 . S
C1161 C1159 1.390 . S
C1161 C1162 1.387 . S
C1161 H1164 0.950 1_556 S
C1162 C1161 1.387 . S
C1162 C1165 1.387 1_455 S
H1163 C1159 0.950 . S
H1164 C1161 0.950 1_554 S
C1165 C1156 1.390 . S
C1165 H1158 0.950 . S
C1165 C1162 1.387 1_655 S
C1166 C1167 1.387 . S
C1166 H1170 0.950 . S
C1166 C1175 1.390 . S
C1167 C1166 1.387 . S
C1167 C1169 1.387 . S
H1168 C1175 0.950 . S
C1169 C1167 1.387 . S
C1169 C1171 1.390 . S
C1169 H1173 0.950 . S
H1170 C1166 0.950 . S
C1171 C1169 1.390 . S
C1171 C1172 1.387 . S
C1171 H1174 0.950 . S
C1172 C1171 1.387 . S
C1172 C1175 1.387 . S
H1173 C1169 0.950 . S
H1174 C1171 0.950 . S
C1175 C1166 1.390 . S
C1175 H1168 0.950 . S
C1175 C1172 1.387 . S
C1176 C1177 1.387 . S
C1176 H1180 0.950 . S
C1176 C1185 1.390 . S
C1177 C1176 1.387 . S
C1177 C1179 1.387 . S
H1178 C1185 0.950 . S
C1179 C1177 1.387 . S
C1179 C1181 1.390 . S
C1179 H1183 0.950 . S
H1180 C1176 0.950 . S
C1181 C1179 1.390 . S
C1181 C1182 1.387 . S
C1181 H1184 0.950 . S
C1182 C1181 1.387 . S
C1182 C1185 1.387 . S
H1183 C1179 0.950 . S
H1184 C1181 0.950 . S
C1185 C1176 1.390 . S
C1185 H1178 0.950 . S
C1185 C1182 1.387 . S
C1186 C1187 1.387 . S
C1186 H1190 0.950 . S
C1186 C1195 1.390 . S
C1187 C1186 1.387 . S
C1187 C1189 1.387 . S
H1188 C1195 0.950 . S
C1189 C1187 1.387 . S
C1189 C1191 1.390 . S
C1189 H1193 0.950 . S
H1190 C1186 0.950 . S
C1191 C1189 1.390 . S
C1191 C1192 1.387 . S
C1191 H1194 0.950 . S
C1192 C1191 1.387 . S
C1192 C1195 1.387 . S
H1193 C1189 0.950 . S
H1194 C1191 0.950 . S
C1195 C1186 1.390 . S
C1195 H1188 0.950 . S
C1195 C1192 1.387 . S
C1196 C1197 1.387 1_455 S
C1196 H1200 0.950 . S
C1196 C1205 1.390 . S
C1197 C1196 1.387 1_655 S
C1197 C1199 1.387 . S
H1198 C1205 0.950 . S
C1199 C1197 1.387 . S
C1199 C1201 1.390 . S
C1199 H1203 0.950 . S
H1200 C1196 0.950 . S
C1201 C1199 1.390 . S
C1201 C1202 1.387 1_655 S
C1201 H1204 0.950 . S
C1202 C1201 1.387 1_455 S
C1202 C1205 1.387 . S
H1203 C1199 0.950 . S
H1204 C1201 0.950 . S
C1205 C1196 1.390 . S
C1205 H1198 0.950 . S
C1205 C1202 1.387 . S
C1206 C1207 1.387 . S
C1206 H1210 0.950 . S
C1206 C1215 1.390 . S
C1207 C1206 1.387 . S
C1207 C1209 1.387 . S
H1208 C1215 0.950 . S
C1209 C1207 1.387 . S
C1209 C1211 1.390 . S
C1209 H1213 0.950 . S
H1210 C1206 0.950 . S
C1211 C1209 1.390 . S
C1211 C1212 1.387 . S
C1211 H1214 0.950 . S
C1212 C1211 1.387 . S
C1212 C1215 1.387 . S
H1213 C1209 0.950 . S
H1214 C1211 0.950 . S
C1215 C1206 1.390 . S
C1215 H1208 0.950 . S
C1215 C1212 1.387 . S
C1216 C1217 1.387 . S
C1216 H1220 0.950 . S
C1216 C1225 1.390 . S
C1217 C1216 1.387 . S
C1217 C1219 1.387 . S
H1218 C1225 0.950 . S
C1219 C1217 1.387 . S
C1219 C1221 1.390 . S
C1219 H1223 0.950 . S
H1220 C1216 0.950 . S
C1221 C1219 1.390 . S
C1221 C1222 1.387 . S
C1221 H1224 0.950 . S
C1222 C1221 1.387 . S
C1222 C1225 1.387 . S
H1223 C1219 0.950 . S
H1224 C1221 0.950 . S
C1225 C1216 1.390 . S
C1225 H1218 0.950 . S
C1225 C1222 1.387 . S
C1226 C1227 1.387 . S
C1226 H1230 0.950 . S
C1226 C1235 1.390 . S
C1227 C1226 1.387 . S
C1227 C1229 1.387 . S
H1228 C1235 0.950 . S
C1229 C1227 1.387 . S
C1229 C1231 1.390 . S
C1229 H1233 0.950 . S
H1230 C1226 0.950 . S
C1231 C1229 1.390 . S
C1231 C1232 1.387 . S
C1231 H1234 0.950 . S
C1232 C1231 1.387 . S
C1232 C1235 1.387 . S
H1233 C1229 0.950 . S
H1234 C1231 0.950 . S
C1235 C1226 1.390 . S
C1235 H1228 0.950 . S
C1235 C1232 1.387 . S
C1236 C1237 1.387 . S
C1236 H1240 0.950 . S
C1236 C1245 1.390 . S
C1237 C1236 1.387 . S
C1237 C1239 1.387 . S
H1238 C1245 0.950 . S
C1239 C1237 1.387 . S
C1239 C1241 1.390 . S
C1239 H1243 0.950 . S
H1240 C1236 0.950 . S
C1241 C1239 1.390 . S
C1241 C1242 1.387 . S
C1241 H1244 0.950 . S
C1242 C1241 1.387 . S
C1242 C1245 1.387 . S
H1243 C1239 0.950 . S
H1244 C1241 0.950 . S
C1245 C1236 1.390 . S
C1245 H1238 0.950 . S
C1245 C1242 1.387 . S
C1246 C1247 1.387 . S
C1246 H1250 0.950 . S
C1246 C1255 1.390 . S
C1247 C1246 1.387 . S
C1247 C1249 1.387 . S
H1248 C1255 0.950 . S
C1249 C1247 1.387 . S
C1249 C1251 1.390 . S
C1249 H1253 0.950 . S
H1250 C1246 0.950 . S
C1251 C1249 1.390 . S
C1251 C1252 1.387 . S
C1251 H1254 0.950 . S
C1252 C1251 1.387 . S
C1252 C1255 1.387 . S
H1253 C1249 0.950 . S
H1254 C1251 0.950 . S
C1255 C1246 1.390 . S
C1255 H1248 0.950 . S
C1255 C1252 1.387 . S
C1256 C1257 1.387 . S
C1256 H1260 0.950 . S
C1256 C1265 1.390 . S
C1257 C1256 1.387 . S
C1257 C1259 1.387 . S
H1258 C1265 0.950 . S
C1259 C1257 1.387 . S
C1259 C1261 1.390 . S
C1259 H1263 0.950 . S
H1260 C1256 0.950 . S
C1261 C1259 1.390 . S
C1261 C1262 1.387 . S
C1261 H1264 0.950 . S
C1262 C1261 1.387 . S
C1262 C1265 1.387 . S
H1263 C1259 0.950 . S
H1264 C1261 0.950 . S
C1265 C1256 1.390 . S
C1265 H1258 0.950 . S
C1265 C1262 1.387 . S
C1266 C1267 1.387 . S
C1266 H1270 0.950 . S
C1266 C1275 1.390 . S
C1267 C1266 1.387 . S
C1267 C1269 1.387 . S
H1268 C1275 0.950 . S
C1269 C1267 1.387 . S
C1269 C1271 1.390 . S
C1269 H1273 0.950 . S
H1270 C1266 0.950 . S
C1271 C1269 1.390 . S
C1271 C1272 1.387 . S
C1271 H1274 0.950 . S
C1272 C1271 1.387 . S
C1272 C1275 1.387 . S
H1273 C1269 0.950 . S
H1274 C1271 0.950 . S
C1275 C1266 1.390 . S
C1275 H1268 0.950 . S
C1275 C1272 1.387 . S
C1276 C1277 1.387 . S
C1276 H1280 0.950 . S
C1276 C1285 1.390 . S
C1277 C1276 1.387 . S
C1277 C1279 1.387 . S
H1278 C1285 0.950 . S
C1279 C1277 1.387 . S
C1279 C1281 1.390 . S
C1279 H1283 0.950 . S
H1280 C1276 0.950 . S
C1281 C1279 1.390 . S
C1281 C1282 1.387 . S
C1281 H1284 0.950 . S
C1282 C1281 1.387 . S
C1282 C1285 1.387 . S
H1283 C1279 0.950 . S
H1284 C1281 0.950 . S
C1285 C1276 1.390 . S
C1285 H1278 0.950 . S
C1285 C1282 1.387 . S
C1286 C1287 1.387 . S
C1286 H1290 0.950 . S
C1286 C1295 1.390 . S
C1287 C1286 1.387 . S
C1287 C1289 1.387 . S
H1288 C1295 0.950 . S
C1289 C1287 1.387 . S
C1289 C1291 1.390 . S
C1289 H1293 0.950 . S
H1290 C1286 0.950 . S
C1291 C1289 1.390 . S
C1291 C1292 1.387 . S
C1291 H1294 0.950 . S
C1292 C1291 1.387 . S
C1292 C1295 1.387 . S
H1293 C1289 0.950 . S
H1294 C1291 0.950 . S
C1295 C1286 1.390 . S
C1295 H1288 0.950 . S
C1295 C1292 1.387 . S
C1296 C1297 1.387 . S
C1296 H1300 0.950 . S
C1296 C1305 1.390 . S
C1297 C1296 1.387 . S
C1297 C1299 1.387 . S
H1298 C1305 0.950 . S
C1299 C1297 1.387 . S
C1299 C1301 1.390 . S
C1299 H1303 0.950 . S
H1300 C1296 0.950 . S
C1301 C1299 1.390 . S
C1301 C1302 1.387 . S
C1301 H1304 0.950 . S
C1302 C1301 1.387 . S
C1302 C1305 1.387 . S
H1303 C1299 0.950 . S
H1304 C1301 0.950 . S
C1305 C1296 1.390 . S
C1305 H1298 0.950 . S
C1305 C1302 1.387 . S
C1306 C1307 1.387 . S
C1306 H1310 0.950 . S
C1306 C1315 1.390 . S
C1307 C1306 1.387 . S
C1307 C1309 1.387 . S
H1308 C1315 0.950 . S
C1309 C1307 1.387 . S
C1309 C1311 1.390 . S
C1309 H1313 0.950 . S
H1310 C1306 0.950 . S
C1311 C1309 1.390 . S
C1311 C1312 1.387 . S
C1311 H1314 0.950 . S
C1312 C1311 1.387 . S
C1312 C1315 1.387 . S
H1313 C1309 0.950 . S
H1314 C1311 0.950 . S
C1315 C1306 1.390 . S
C1315 H1308 0.950 . S
C1315 C1312 1.387 . S
C1316 C1317 1.387 . S
C1316 H1320 0.950 . S
C1316 C1325 1.390 . S
C1317 C1316 1.387 . S
C1317 C1319 1.387 . S
H1318 C1325 0.950 . S
C1319 C1317 1.387 . S
C1319 C1321 1.390 . S
C1319 H1323 0.950 . S
H1320 C1316 0.950 . S
C1321 C1319 1.390 . S
C1321 C1322 1.387 . S
C1321 H1324 0.950 . S
C1322 C1321 1.387 . S
C1322 C1325 1.387 . S
H1323 C1319 0.950 . S
H1324 C1321 0.950 . S
C1325 C1316 1.390 . S
C1325 H1318 0.950 . S
C1325 C1322 1.387 . S
C1326 C1327 1.387 . S
C1326 H1330 0.950 . S
C1326 C1335 1.390 . S
C1327 C1326 1.387 . S
C1327 C1329 1.387 1_554 S
H1328 C1335 0.950 . S
C1329 C1327 1.387 1_556 S
C1329 C1331 1.390 . S
C1329 H1333 0.950 . S
H1330 C1326 0.950 . S
C1331 C1329 1.390 . S
C1331 C1332 1.387 1_556 S
C1331 H1334 0.950 . S
C1332 C1331 1.387 1_554 S
C1332 C1335 1.387 . S
H1333 C1329 0.950 . S
H1334 C1331 0.950 . S
C1335 C1326 1.390 . S
C1335 H1328 0.950 . S
C1335 C1332 1.387 . S
C1336 C1337 1.387 . S
C1336 H1340 0.950 . S
C1336 C1345 1.390 . S
C1337 C1336 1.387 . S
C1337 C1339 1.387 . S
H1338 C1345 0.950 . S
C1339 C1337 1.387 . S
C1339 C1341 1.390 . S
C1339 H1343 0.950 . S
H1340 C1336 0.950 . S
C1341 C1339 1.390 . S
C1341 C1342 1.387 . S
C1341 H1344 0.950 . S
C1342 C1341 1.387 . S
C1342 C1345 1.387 . S
H1343 C1339 0.950 . S
H1344 C1341 0.950 . S
C1345 C1336 1.390 . S
C1345 H1338 0.950 . S
C1345 C1342 1.387 . S
C1346 C1347 1.387 . S
C1346 H1350 0.950 . S
C1346 C1355 1.390 . S
C1347 C1346 1.387 . S
C1347 C1349 1.387 1_554 S
H1348 C1355 0.950 . S
C1349 C1347 1.387 1_556 S
C1349 C1351 1.393 . S
C1349 H1353 0.950 . S
H1350 C1346 0.950 . S
C1351 C1349 1.393 . S
C1351 C1352 1.378 1_556 S
C1351 H1354 0.956 . S
C1352 C1351 1.378 1_554 S
C1352 C1355 1.387 . S
H1353 C1349 0.950 . S
H1354 C1351 0.956 . S
C1355 C1346 1.390 . S
C1355 H1348 0.950 . S
C1355 C1352 1.387 . S
C1356 C1357 1.387 . S
C1356 H1360 0.950 . S
C1356 C1365 1.390 . S
C1357 C1356 1.387 . S
C1357 C1359 1.387 . S
H1358 C1365 0.950 . S
C1359 C1357 1.387 . S
C1359 C1361 1.390 . S
C1359 H1363 0.950 . S
H1360 C1356 0.950 . S
C1361 C1359 1.390 . S
C1361 C1362 1.387 . S
C1361 H1364 0.950 . S
C1362 C1361 1.387 . S
C1362 C1365 1.387 . S
H1363 C1359 0.950 . S
H1364 C1361 0.950 . S
C1365 C1356 1.390 . S
C1365 H1358 0.950 . S
C1365 C1362 1.387 . S
C1366 C1367 1.387 . S
C1366 H1370 0.950 . S
C1366 C1375 1.390 . S
C1367 C1366 1.387 . S
C1367 C1369 1.387 . S
H1368 C1375 0.950 . S
C1369 C1367 1.387 . S
C1369 C1371 1.390 . S
C1369 H1373 0.950 . S
H1370 C1366 0.950 . S
C1371 C1369 1.390 . S
C1371 C1372 1.387 . S
C1371 H1374 0.950 . S
C1372 C1371 1.387 . S
C1372 C1375 1.387 . S
H1373 C1369 0.950 . S
H1374 C1371 0.950 . S
C1375 C1366 1.390 . S
C1375 H1368 0.950 . S
C1375 C1372 1.387 . S
C1376 C1377 1.387 . S
C1376 H1380 0.950 . S
C1376 C1385 1.390 . S
C1377 C1376 1.387 . S
C1377 C1379 1.387 . S
H1378 C1385 0.950 . S
C1379 C1377 1.387 . S
C1379 C1381 1.390 . S
C1379 H1383 0.950 . S
H1380 C1376 0.950 . S
C1381 C1379 1.390 . S
C1381 C1382 1.387 . S
C1381 H1384 0.950 . S
C1382 C1381 1.387 . S
C1382 C1385 1.387 . S
H1383 C1379 0.950 . S
H1384 C1381 0.950 . S
C1385 C1376 1.390 . S
C1385 H1378 0.950 . S
C1385 C1382 1.387 . S
C1386 C1387 1.387 . S
C1386 H1390 0.950 . S
C1386 C1395 1.390 . S
C1387 C1386 1.387 . S
C1387 C1389 1.387 . S
H1388 C1395 0.950 . S
C1389 C1387 1.387 . S
C1389 C1391 1.390 . S
C1389 H1393 0.950 . S
H1390 C1386 0.950 . S
C1391 C1389 1.390 . S
C1391 C1392 1.387 . S
C1391 H1394 0.950 . S
C1392 C1391 1.387 . S
C1392 C1395 1.387 . S
H1393 C1389 0.950 . S
H1394 C1391 0.950 . S
C1395 C1386 1.390 . S
C1395 H1388 0.950 . S
C1395 C1392 1.387 . S
C1396 C1397 1.387 1_655 S
C1396 H1400 0.950 . S
C1396 C1405 1.390 . S
C1397 C1396 1.387 1_455 S
C1397 C1399 1.387 . S
H1398 C1405 0.950 . S
C1399 C1397 1.387 . S
C1399 C1401 1.390 . S
C1399 H1403 0.950 . S
H1400 C1396 0.950 . S
C1401 C1399 1.390 . S
C1401 C1402 1.387 . S
C1401 H1404 0.950 . S
C1402 C1401 1.387 . S
C1402 C1405 1.387 1_455 S
H1403 C1399 0.950 . S
H1404 C1401 0.950 . S
C1405 C1396 1.390 . S
C1405 H1398 0.950 . S
C1405 C1402 1.387 1_655 S
C1406 C1407 1.387 . S
C1406 H1410 0.950 . S
C1406 C1415 1.390 . S
C1407 C1406 1.387 . S
C1407 C1409 1.387 . S
H1408 C1415 0.950 . S
C1409 C1407 1.387 . S
C1409 C1411 1.390 . S
C1409 H1413 0.950 . S
H1410 C1406 0.950 . S
C1411 C1409 1.390 . S
C1411 C1412 1.387 . S
C1411 H1414 0.950 . S
C1412 C1411 1.387 . S
C1412 C1415 1.387 . S
H1413 C1409 0.950 . S
H1414 C1411 0.950 . S
C1415 C1406 1.390 . S
C1415 H1408 0.950 . S
C1415 C1412 1.387 . S
C1416 C1417 1.387 . S
C1416 H1420 0.950 . S
C1416 C1425 1.390 . S
C1417 C1416 1.387 . S
C1417 C1419 1.387 . S
H1418 C1425 0.950 . S
C1419 C1417 1.387 . S
C1419 C1421 1.390 . S
C1419 H1423 0.950 . S
H1420 C1416 0.950 . S
C1421 C1419 1.390 . S
C1421 C1422 1.387 . S
C1421 H1424 0.950 . S
C1422 C1421 1.387 . S
C1422 C1425 1.387 . S
H1423 C1419 0.950 . S
H1424 C1421 0.950 . S
C1425 C1416 1.390 . S
C1425 H1418 0.950 . S
C1425 C1422 1.387 . S
C1426 C1427 1.387 . S
C1426 H1430 0.950 . S
C1426 C1435 1.390 . S
C1427 C1426 1.387 . S
C1427 C1429 1.387 . S
H1428 C1435 0.950 . S
C1429 C1427 1.387 . S
C1429 C1431 1.390 . S
C1429 H1433 0.950 . S
H1430 C1426 0.950 . S
C1431 C1429 1.390 . S
C1431 C1432 1.387 . S
C1431 H1434 0.950 . S
C1432 C1431 1.387 . S
C1432 C1435 1.387 . S
H1433 C1429 0.950 . S
H1434 C1431 0.950 . S
C1435 C1426 1.390 . S
C1435 H1428 0.950 . S
C1435 C1432 1.387 . S
C1436 C1437 1.387 . S
C1436 H1440 0.950 . S
C1436 C1445 1.390 . S
C1437 C1436 1.387 . S
C1437 C1439 1.387 . S
H1438 C1445 0.950 . S
C1439 C1437 1.387 . S
C1439 C1441 1.390 . S
C1439 H1443 0.950 . S
H1440 C1436 0.950 . S
C1441 C1439 1.390 . S
C1441 C1442 1.387 . S
C1441 H1444 0.950 1_455 S
C1442 C1441 1.387 . S
C1442 C1445 1.387 . S
H1443 C1439 0.950 . S
H1444 C1441 0.950 1_655 S
C1445 C1436 1.390 . S
C1445 H1438 0.950 . S
C1445 C1442 1.387 . S
C1446 C1447 1.387 . S
C1446 H1450 0.950 . S
C1446 C1455 1.390 . S
C1447 C1446 1.387 . S
C1447 C1449 1.387 . S
H1448 C1455 0.950 . S
C1449 C1447 1.387 . S
C1449 C1451 1.390 . S
C1449 H1453 0.950 . S
H1450 C1446 0.950 . S
C1451 C1449 1.390 . S
C1451 C1452 1.387 . S
C1451 H1454 0.950 . S
C1452 C1451 1.387 . S
C1452 C1455 1.387 . S
H1453 C1449 0.950 . S
H1454 C1451 0.950 . S
C1455 C1446 1.390 . S
C1455 H1448 0.950 . S
C1455 C1452 1.387 . S
C1456 C1457 1.387 . S
C1456 H1460 0.950 . S
C1456 C1465 1.390 . S
C1457 C1456 1.387 . S
C1457 C1459 1.387 . S
H1458 C1465 0.950 . S
C1459 C1457 1.387 . S
C1459 C1461 1.390 . S
C1459 H1463 0.950 . S
H1460 C1456 0.950 . S
C1461 C1459 1.390 . S
C1461 C1462 1.387 . S
C1461 H1464 0.950 . S
C1462 C1461 1.387 . S
C1462 C1465 1.387 . S
H1463 C1459 0.950 . S
H1464 C1461 0.950 . S
C1465 C1456 1.390 . S
C1465 H1458 0.950 . S
C1465 C1462 1.387 . S
C1466 C1467 1.387 . S
C1466 H1470 0.950 . S
C1466 C1475 1.390 . S
C1467 C1466 1.387 . S
C1467 C1469 1.387 . S
H1468 C1475 0.950 . S
C1469 C1467 1.387 . S
C1469 C1471 1.390 . S
C1469 H1473 0.950 . S
H1470 C1466 0.950 . S
C1471 C1469 1.390 . S
C1471 C1472 1.387 . S
C1471 H1474 0.950 . S
C1472 C1471 1.387 . S
C1472 C1475 1.387 . S
H1473 C1469 0.950 . S
H1474 C1471 0.950 . S
C1475 C1466 1.390 . S
C1475 H1468 0.950 . S
C1475 C1472 1.387 . S
C1476 C1477 1.387 . S
C1476 H1480 0.950 . S
C1476 C1485 1.390 . S
C1477 C1476 1.387 . S
C1477 C1479 1.387 . S
H1478 C1485 0.950 . S
C1479 C1477 1.387 . S
C1479 C1481 1.390 . S
C1479 H1483 0.950 . S
H1480 C1476 0.950 . S
C1481 C1479 1.390 . S
C1481 C1482 1.387 . S
C1481 H1484 0.950 . S
C1482 C1481 1.387 . S
C1482 C1485 1.387 . S
H1483 C1479 0.950 . S
H1484 C1481 0.950 . S
C1485 C1476 1.390 . S
C1485 H1478 0.950 . S
C1485 C1482 1.387 . S
C1486 C1487 1.387 . S
C1486 H1490 0.950 . S
C1486 C1495 1.390 . S
C1487 C1486 1.387 . S
C1487 C1489 1.387 . S
H1488 C1495 0.950 . S
C1489 C1487 1.387 . S
C1489 C1491 1.390 . S
C1489 H1493 0.950 . S
H1490 C1486 0.950 . S
C1491 C1489 1.390 . S
C1491 C1492 1.387 . S
C1491 H1494 0.950 . S
C1492 C1491 1.387 . S
C1492 C1495 1.387 . S
H1493 C1489 0.950 . S
H1494 C1491 0.950 . S
C1495 C1486 1.390 . S
C1495 H1488 0.950 . S
C1495 C1492 1.387 . S
C1496 C1497 1.387 . S
C1496 H1500 0.950 . S
C1496 C1505 1.390 . S
C1497 C1496 1.387 . S
C1497 C1499 1.387 . S
H1498 C1505 0.950 . S
C1499 C1497 1.387 . S
C1499 C1501 1.390 . S
C1499 H1503 0.950 . S
H1500 C1496 0.950 . S
C1501 C1499 1.390 . S
C1501 C1502 1.387 . S
C1501 H1504 0.950 . S
C1502 C1501 1.387 . S
C1502 C1505 1.387 . S
H1503 C1499 0.950 . S
H1504 C1501 0.950 . S
C1505 C1496 1.390 . S
C1505 H1498 0.950 . S
C1505 C1502 1.387 . S
C1506 C1507 1.387 . S
C1506 H1510 0.950 . S
C1506 C1515 1.390 . S
C1507 C1506 1.387 . S
C1507 C1509 1.387 . S
H1508 C1515 0.950 . S
C1509 C1507 1.387 . S
C1509 C1511 1.390 . S
C1509 H1513 0.950 . S
H1510 C1506 0.950 . S
C1511 C1509 1.390 . S
C1511 C1512 1.387 . S
C1511 H1514 0.950 . S
C1512 C1511 1.387 . S
C1512 C1515 1.387 . S
H1513 C1509 0.950 . S
H1514 C1511 0.950 . S
C1515 C1506 1.390 . S
C1515 H1508 0.950 . S
C1515 C1512 1.387 . S
C1516 C1517 1.387 . S
C1516 H1520 0.950 . S
C1516 C1525 1.390 . S
C1517 C1516 1.387 . S
C1517 C1519 1.387 . S
H1518 C1525 0.950 . S
C1519 C1517 1.387 . S
C1519 C1521 1.390 . S
C1519 H1523 0.950 . S
H1520 C1516 0.950 . S
C1521 C1519 1.390 . S
C1521 C1522 1.387 . S
C1521 H1524 0.950 . S
C1522 C1521 1.387 . S
C1522 C1525 1.387 . S
H1523 C1519 0.950 . S
H1524 C1521 0.950 . S
C1525 C1516 1.390 . S
C1525 H1518 0.950 . S
C1525 C1522 1.387 . S
C1526 C1527 1.387 . S
C1526 H1530 0.950 . S
C1526 C1535 1.390 . S
C1527 C1526 1.387 . S
C1527 C1529 1.387 . S
H1528 C1535 0.950 . S
C1529 C1527 1.387 . S
C1529 C1531 1.390 . S
C1529 H1533 0.950 . S
H1530 C1526 0.950 . S
C1531 C1529 1.390 . S
C1531 C1532 1.387 . S
C1531 H1534 0.950 . S
C1532 C1531 1.387 . S
C1532 C1535 1.387 . S
H1533 C1529 0.950 . S
H1534 C1531 0.950 . S
C1535 C1526 1.390 . S
C1535 H1528 0.950 . S
C1535 C1532 1.387 . S
C1536 C1537 1.387 . S
C1536 H1540 0.950 . S
C1536 C1545 1.390 . S
C1537 C1536 1.387 . S
C1537 C1539 1.387 . S
H1538 C1545 0.950 . S
C1539 C1537 1.387 . S
C1539 C1541 1.390 . S
C1539 H1543 0.950 . S
H1540 C1536 0.950 . S
C1541 C1539 1.390 . S
C1541 C1542 1.387 . S
C1541 H1544 0.950 . S
C1542 C1541 1.387 . S
C1542 C1545 1.387 . S
H1543 C1539 0.950 . S
H1544 C1541 0.950 . S
C1545 C1536 1.390 . S
C1545 H1538 0.950 . S
C1545 C1542 1.387 . S
C1546 C1547 1.387 . S
C1546 H1550 0.950 . S
C1546 C1555 1.390 . S
C1547 C1546 1.387 . S
C1547 C1549 1.387 . S
H1548 C1555 0.950 . S
C1549 C1547 1.387 . S
C1549 C1551 1.390 . S
C1549 H1553 0.950 . S
H1550 C1546 0.950 . S
C1551 C1549 1.390 . S
C1551 C1552 1.387 . S
C1551 H1554 0.950 1_565 S
C1552 C1551 1.387 . S
C1552 C1555 1.387 . S
H1553 C1549 0.950 . S
H1554 C1551 0.950 1_545 S
C1555 C1546 1.390 . S
C1555 H1548 0.950 . S
C1555 C1552 1.387 . S
C1556 C1557 1.387 . S
C1556 H1560 0.950 . S
C1556 C1565 1.390 . S
C1557 C1556 1.387 . S
C1557 C1559 1.387 . S
H1558 C1565 0.950 . S
C1559 C1557 1.387 . S
C1559 C1561 1.390 . S
C1559 H1563 0.950 . S
H1560 C1556 0.950 . S
C1561 C1559 1.390 . S
C1561 C1562 1.387 . S
C1561 H1564 0.950 . S
C1562 C1561 1.387 . S
C1562 C1565 1.387 . S
H1563 C1559 0.950 . S
H1564 C1561 0.950 . S
C1565 C1556 1.390 . S
C1565 H1558 0.950 . S
C1565 C1562 1.387 . S
C1566 C1567 1.387 1_554 S
C1566 H1570 0.950 . S
C1566 C1575 1.390 . S
C1567 C1566 1.387 1_556 S
C1567 C1569 1.387 . S
H1568 C1575 0.950 . S
C1569 C1567 1.387 . S
C1569 C1571 1.390 . S
C1569 H1573 0.950 . S
H1570 C1566 0.950 . S
C1571 C1569 1.390 . S
C1571 C1572 1.387 1_556 S
C1571 H1574 0.950 . S
C1572 C1571 1.387 1_554 S
C1572 C1575 1.387 . S
H1573 C1569 0.950 . S
H1574 C1571 0.950 . S
C1575 C1566 1.390 . S
C1575 H1568 0.950 . S
C1575 C1572 1.387 . S
C1576 C1577 1.387 . S
C1576 H1580 0.950 . S
C1576 C1585 1.390 . S
C1577 C1576 1.387 . S
C1577 C1579 1.387 . S
H1578 C1585 0.950 . S
C1579 C1577 1.387 . S
C1579 C1581 1.390 . S
C1579 H1583 0.950 . S
H1580 C1576 0.950 . S
C1581 C1579 1.390 . S
C1581 C1582 1.387 . S
C1581 H1584 0.950 . S
C1582 C1581 1.387 . S
C1582 C1585 1.387 . S
H1583 C1579 0.950 . S
H1584 C1581 0.950 . S
C1585 C1576 1.390 . S
C1585 H1578 0.950 . S
C1585 C1582 1.387 . S
C1586 C1587 1.387 . S
C1586 H1590 0.950 . S
C1586 C1595 1.390 . S
C1587 C1586 1.387 . S
C1587 C1589 1.387 1_554 S
H1588 C1595 0.950 . S
C1589 C1587 1.387 1_556 S
C1589 C1591 1.390 . S
C1589 H1593 0.950 . S
H1590 C1586 0.950 . S
C1591 C1589 1.390 . S
C1591 C1592 1.387 . S
C1591 H1594 0.950 . S
C1592 C1591 1.387 . S
C1592 C1595 1.387 1_556 S
H1593 C1589 0.950 . S
H1594 C1591 0.950 . S
C1595 C1586 1.390 . S
C1595 H1588 0.950 . S
C1595 C1592 1.387 1_554 S
C1596 C1597 1.387 . S
C1596 H1600 0.950 . S
C1596 C1605 1.390 . S
C1597 C1596 1.387 . S
C1597 C1599 1.387 . S
H1598 C1605 0.950 . S
C1599 C1597 1.387 . S
C1599 C1601 1.390 . S
C1599 H1603 0.950 . S
H1600 C1596 0.950 . S
C1601 C1599 1.390 . S
C1601 C1602 1.387 . S
C1601 H1604 0.950 . S
C1602 C1601 1.387 . S
C1602 C1605 1.387 . S
H1603 C1599 0.950 . S
H1604 C1601 0.950 . S
C1605 C1596 1.390 . S
C1605 H1598 0.950 . S
C1605 C1602 1.387 . S
C1606 C1607 1.387 . S
C1606 H1610 0.950 . S
C1606 C1615 1.390 . S
C1607 C1606 1.387 . S
C1607 C1609 1.387 . S
H1608 C1615 0.950 . S
C1609 C1607 1.387 . S
C1609 C1611 1.390 . S
C1609 H1613 0.950 . S
H1610 C1606 0.950 . S
C1611 C1609 1.390 . S
C1611 C1612 1.387 . S
C1611 H1614 0.950 . S
C1612 C1611 1.387 . S
C1612 C1615 1.387 . S
H1613 C1609 0.950 . S
H1614 C1611 0.950 . S
C1615 C1606 1.390 . S
C1615 H1608 0.950 . S
C1615 C1612 1.387 . S
C657 C105 1.682 . S
C662 C354 1.634 . S
C667 C65 1.716 . S
C672 C365 1.718 . S
C677 C73 1.247 . S
C682 C394 1.188 . S
C692 C397 1.457 . S
C687 C92 1.467 . S
C697 C17 1.716 . S
C702 C435 1.627 . S
C712 C438 1.251 . S
C707 C37 1.247 . S
C722 C465 1.574 . S
C717 C49 1.500 . S
C727 C8 1.724 . S
C732 C494 1.632 . S
C742 C345 1.670 1_655 S
C737 C231 1.590 . S
C747 C241 1.125 . S
C752 C357 1.096 . S
C762 C385 1.572 . S
C757 C273 1.525 . S
C772 C414 1.278 . S
C767 C171 1.299 . S
C777 C227 1.212 . S
C782 C418 1.219 . S
C792 C444 1.614 . S
C787 C245 1.582 . S
C802 C457 0.945 . S
C797 C269 0.960 . S
C812 C485 1.671 . S
C807 C175 1.650 . S
C822 C337 1.555 1_565 S
C817 C162 1.591 . S
C827 C289 1.765 . S
C832 C504 1.727 . S
C842 C535 1.617 . S
C837 C330 1.699 . S
C852 C554 1.070 . S
C847 C317 1.098 . S
C857 C120 1.459 . S
C862 C477 1.460 . S
C867 C134 1.587 . S
C872 C377 1.583 . S
C877 C331 1.583 . S
C882 C565 1.582 . S
C892 C594 1.052 . S
C887 C303 1.124 . S
C902 C355 1.649 . S
C897 C59 1.696 . S
C912 C584 1.730 . S
C907 C107 1.724 . S
C917 C91 1.229 . S
C922 C395 1.218 . S
C927 C78 1.478 . S
C932 C558 1.474 . S
C942 C434 1.651 . S
C937 C7 1.669 . S
C947 C51 1.256 . S
C952 C517 1.252 . S
C962 C464 1.594 . S
C957 C31 1.596 . S
C972 C615 1.645 . S
C967 C22 1.724 . S
C982 C344 1.674 . S
C977 C143 1.673 . S
C992 C578 1.106 . S
C987 C315 1.068 . S
C997 C115 1.588 . S
C1002 C384 1.582 . S
C1007 C287 1.295 . S
C1012 C575 1.317 . S
C1017 C147 1.139 . S
C1022 C417 1.234 . S
C1032 C525 1.622 . S
C1027 C311 1.648 . S
C1037 C119 0.945 . S
C1042 C458 0.964 . S
C1047 C283 1.694 . S
C1052 C604 1.683 . S
C1057 C190 1.578 1_556 S
C1062 C338 1.557 . S
C1067 C177 1.772 . S
C1072 C505 1.738 . S
C1077 C260 1.689 . S
C1082 C454 1.623 . S
C1087 C247 1.129 . S
C1092 C555 1.104 . S
C1102 C598 1.454 . S
C1097 C274 1.440 . S
C1107 C218 1.575 . S
C1112 C378 1.587 . S
C1122 C404 1.600 . S
C1117 C261 1.596 . S
C1132 C375 1.060 . S
C1127 C205 1.131 . S
C1137 C77 1.674 . S
C1142 C634 1.635 . S
C1152 C585 1.718 . S
C1147 C93 1.716 . S
C1157 C101 1.247 . S
C1162 C654 1.192 . S
C1167 C64 1.468 . S
C1172 C557 1.457 . S
C1177 C45 1.716 . S
C1182 C515 1.625 . S
C1192 C518 1.252 . S
C1187 C9 1.249 . S
C1202 C545 1.575 . S
C1197 C21 1.501 1_655 S
C1212 C614 1.636 . S
C1207 C36 1.726 . S
C1222 C625 1.670 . S
C1217 C259 1.590 . S
C1227 C185 1.122 . S
C1232 C577 1.092 . S
C1242 C645 1.572 . S
C1237 C203 1.525 . S
C1252 C574 1.281 . S
C1247 C213 1.298 . S
C1262 C498 1.217 . S
C1257 C255 1.211 . S
C1267 C189 1.584 . S
C1272 C524 1.615 . S
C1282 C537 0.943 . S
C1277 C199 0.959 . S
C1287 C217 1.651 . S
C1292 C605 1.671 . S
C1302 C617 1.556 . S
C1297 C316 1.591 . S
C1307 C135 1.765 . S
C1312 C424 1.726 . S
C1322 C455 1.618 . S
C1317 C148 1.705 . S
C1332 C474 1.073 . S
C1327 C163 1.098 . S
C1342 C597 1.457 . S
C1337 C302 1.459 . S
C1347 C288 1.588 . S
C1352 C637 1.583 . S
C1362 C405 1.581 . S
C1357 C149 1.580 . S
C1372 C374 1.046 . S
C1367 C121 1.122 . S
C1377 C87 1.698 . S
C1382 C635 1.649 . S
C1392 C364 1.730 . S
C1387 C79 1.724 . S
C1397 C63 1.232 . S
C1402 C655 1.222 . S
C1407 C106 1.479 . S
C1412 C398 1.473 . S
C1417 C35 1.671 . S
C1422 C514 1.653 . S
C1432 C437 1.252 . S
C1427 C23 1.256 . S
C1437 C3 1.597 . S
C1442 C544 1.595 . S
C1447 C50 1.724 . S
C1452 C495 1.645 . S
C1462 C624 1.674 . S
C1457 C325 1.670 . S
C1467 C161 1.071 . S
C1472 C358 1.105 . S
C1482 C644 1.582 1_655 S
C1477 C297 1.588 . S
C1487 C133 1.298 . S
C1492 C415 1.318 . S
C1497 C329 1.140 . S
C1502 C497 1.237 . S
C1512 C445 1.621 . S
C1507 C157 1.648 . S
C1517 C301 0.948 . S
C1522 C538 0.962 . S
C1532 C484 1.682 . S
C1527 C129 1.694 . S
C1542 C618 1.557 . S
C1537 C246 1.578 . S
C1552 C425 1.739 1_565 S
C1547 C219 1.772 . S
C1557 C232 1.691 . S
C1562 C534 1.624 . S
C1572 C475 1.104 . S
C1567 C191 1.128 . S
C1577 C204 1.440 . S
C1582 C478 1.454 . S
C1587 C176 1.577 . S
C1592 C638 1.587 . S
C1602 C564 1.601 . S
C1597 C233 1.597 . S
C1612 C595 1.060 . S
C1607 C275 1.130 . S
