# Generated by pormake.
# Topology pyr, (3,6)-cn, num edge types: 1
# Building blocks:
#     Node 0, Type 0, BuildingBlock: WUSLED_clean_sbu_0, # of connection points: 3
#     Node 1, Type 0, BuildingBlock: WUSLED_clean_sbu_0, # of connection points: 3
#     Node 2, Type 0, BuildingBlock: WUSLED_clean_sbu_0, # of connection points: 3
#     Node 3, Type 0, BuildingBlock: WUSLED_clean_sbu_0, # of connection points: 3
#     Node 4, Type 0, BuildingBlock: WUSLED_clean_sbu_0, # of connection points: 3
#     Node 5, Type 0, BuildingBlock: WUSLED_clean_sbu_0, # of connection points: 3
#     Node 6, Type 0, BuildingBlock: WUSLED_clean_sbu_0, # of connection points: 3
#     Node 7, Type 0, BuildingBlock: WUSLED_clean_sbu_0, # of connection points: 3
#     Node 8, Type 1, BuildingBlock: LEVNOQ01_clean_sbu_1, # of connection points: 6
#     Node 9, Type 1, BuildingBlock: LEVNOQ01_clean_sbu_1, # of connection points: 6
#     Node 10, Type 1, BuildingBlock: LEVNOQ01_clean_sbu_1, # of connection points: 6
#     Node 11, Type 1, BuildingBlock: LEVNOQ01_clean_sbu_1, # of connection points: 6
#     Edge 12, Type (0, 1), BuildingBlock: KIFKEQ_clean_linker_1, # of connection points: 2
#     Edge 13, Type (0, 1), BuildingBlock: KIFKEQ_clean_linker_1, # of connection points: 2
#     Edge 14, Type (0, 1), BuildingBlock: KIFKEQ_clean_linker_1, # of connection points: 2
#     Edge 15, Type (0, 1), BuildingBlock: KIFKEQ_clean_linker_1, # of connection points: 2
#     Edge 16, Type (0, 1), BuildingBlock: KIFKEQ_clean_linker_1, # of connection points: 2
#     Edge 17, Type (0, 1), BuildingBlock: KIFKEQ_clean_linker_1, # of connection points: 2
#     Edge 18, Type (0, 1), BuildingBlock: KIFKEQ_clean_linker_1, # of connection points: 2
#     Edge 19, Type (0, 1), BuildingBlock: KIFKEQ_clean_linker_1, # of connection points: 2
#     Edge 20, Type (0, 1), BuildingBlock: KIFKEQ_clean_linker_1, # of connection points: 2
#     Edge 21, Type (0, 1), BuildingBlock: KIFKEQ_clean_linker_1, # of connection points: 2
#     Edge 22, Type (0, 1), BuildingBlock: KIFKEQ_clean_linker_1, # of connection points: 2
#     Edge 23, Type (0, 1), BuildingBlock: KIFKEQ_clean_linker_1, # of connection points: 2
#     Edge 24, Type (0, 1), BuildingBlock: KIFKEQ_clean_linker_1, # of connection points: 2
#     Edge 25, Type (0, 1), BuildingBlock: KIFKEQ_clean_linker_1, # of connection points: 2
#     Edge 26, Type (0, 1), BuildingBlock: KIFKEQ_clean_linker_1, # of connection points: 2
#     Edge 27, Type (0, 1), BuildingBlock: KIFKEQ_clean_linker_1, # of connection points: 2
#     Edge 28, Type (0, 1), BuildingBlock: KIFKEQ_clean_linker_1, # of connection points: 2
#     Edge 29, Type (0, 1), BuildingBlock: KIFKEQ_clean_linker_1, # of connection points: 2
#     Edge 30, Type (0, 1), BuildingBlock: KIFKEQ_clean_linker_1, # of connection points: 2
#     Edge 31, Type (0, 1), BuildingBlock: KIFKEQ_clean_linker_1, # of connection points: 2
#     Edge 32, Type (0, 1), BuildingBlock: KIFKEQ_clean_linker_1, # of connection points: 2
#     Edge 33, Type (0, 1), BuildingBlock: KIFKEQ_clean_linker_1, # of connection points: 2
#     Edge 34, Type (0, 1), BuildingBlock: KIFKEQ_clean_linker_1, # of connection points: 2
#     Edge 35, Type (0, 1), BuildingBlock: KIFKEQ_clean_linker_1, # of connection points: 2
# Relax obj value: 0.034
# Max RMSD: 0.109
# Mean RMSD: 0.044
data_MOF--net-pry--node1-WUSLED_clean_sbu_0--node2-LEVNOQ01_clean_sbu_1--edge1-KIFKEQ_clean_linker_1
_symmetry_space_group_name_H-M    P1
_symmetry_Int_Tables_number       1
_symmetry_cell_setting            triclinic
loop_
_symmetry_equiv_pos_as_xyz
'x, y, z'
_cell_length_a     48.974
_cell_length_b     47.526144
_cell_length_c     47.104642
_cell_angle_alpha  91.936197
_cell_angle_beta   91.150648
_cell_angle_gamma 93.707302
loop_
_atom_site_label
_atom_site_type_symbol
_atom_site_fract_x
_atom_site_fract_y
_atom_site_fract_z
_atom_type_partial_charge
C0 C 0.15079 0.2404 0.11895 0.0
C1 C 0.12277 0.24175 0.12439 0.0
C2 C 0.12117 0.28513 0.09782 0.0
C3 C 0.10814 0.26385 0.11392 0.0
C4 C 0.14932 0.28378 0.09284 0.0
C5 C 0.16387 0.26172 0.10325 0.0
U6 U 0.17111 0.18096 0.16928 0.0
O7 O 0.18272 0.13805 0.15722 0.0
O8 O 0.21233 0.16788 0.17968 0.0
C9 C 0.20808 0.14301 0.16668 0.0
C10 C 0.16664 0.21645 0.12781 0.0
C11 C 0.23022 0.13307 0.14831 0.0
C12 C 0.27623 0.13896 0.12937 0.0
C13 C 0.25444 0.14987 0.14415 0.0
C14 C 0.25004 0.09433 0.12215 0.0
C15 C 0.27448 0.11094 0.11832 0.0
C16 C 0.22829 0.10523 0.137 0.0
C17 C 0.13418 0.16945 0.24078 0.0
C18 C 0.1191 0.17253 0.28977 0.0
C19 C 0.12993 0.12743 0.26911 0.0
C20 C 0.13653 0.14036 0.24353 0.0
C21 C 0.12085 0.14328 0.29256 0.0
C22 C 0.12566 0.18539 0.26422 0.0
C23 C 0.13919 0.18358 0.21358 0.0
O24 O 0.18367 0.2212 0.14962 0.0
O25 O 0.15353 0.19141 0.12784 0.0
O26 O 0.13244 0.16883 0.19007 0.0
O27 O 0.16246 0.19875 0.21184 0.0
H28 H 0.11215 0.22562 0.13648 0.0
H29 H 0.08661 0.26432 0.11858 0.0
H30 H 0.16007 0.29943 0.08028 0.0
H31 H 0.1854 0.26105 0.09857 0.0
H32 H 0.29476 0.15236 0.12731 0.0
H33 H 0.25688 0.1713 0.15283 0.0
H34 H 0.24766 0.07283 0.11367 0.0
H35 H 0.21004 0.09164 0.14011 0.0
H36 H 0.11267 0.18558 0.30737 0.0
H37 H 0.13127 0.10484 0.27022 0.0
H38 H 0.14305 0.12754 0.22578 0.0
H39 H 0.12373 0.20788 0.26266 0.0
C40 C 0.28927 0.87654 0.60077 0.0
C41 C 0.26882 0.87913 0.62102 0.0
C42 C 0.24035 0.90233 0.58691 0.0
C43 C 0.24461 0.89174 0.61412 0.0
C44 C 0.26093 0.89967 0.56671 0.0
C45 C 0.28505 0.88686 0.57357 0.0
U46 U 0.35234 0.86612 0.64826 0.0
O47 O 0.37133 0.82723 0.65951 0.0
O48 O 0.39486 0.85961 0.63632 0.0
C49 C 0.39414 0.83414 0.64642 0.0
C50 C 0.31487 0.86289 0.60733 0.0
C51 C 0.40527 0.81192 0.62818 0.0
C52 C 0.39967 0.76926 0.59787 0.0
C53 C 0.38829 0.79165 0.61269 0.0
C54 C 0.44503 0.78783 0.613 0.0
C55 C 0.42818 0.76675 0.5984 0.0
C56 C 0.43369 0.81009 0.62773 0.0
C57 C 0.36343 0.9104 0.71803 0.0
C58 C 0.39475 0.90047 0.75663 0.0
C59 C 0.37389 0.94528 0.75637 0.0
C60 C 0.36011 0.93699 0.73082 0.0
C61 C 0.3913 0.92708 0.76976 0.0
C62 C 0.38101 0.89225 0.731 0.0
C63 C 0.34803 0.90195 0.69151 0.0
O64 O 0.3376 0.87912 0.60644 0.0
O65 O 0.3144 0.84606 0.62895 0.0
O66 O 0.33616 0.8763 0.69034 0.0
O67 O 0.36004 0.9088 0.66779 0.0
H68 H 0.27144 0.87135 0.64218 0.0
H69 H 0.22913 0.89295 0.63012 0.0
H70 H 0.25865 0.90792 0.54571 0.0
H71 H 0.30052 0.88511 0.5576 0.0
H72 H 0.3861 0.75335 0.58696 0.0
H73 H 0.36626 0.7927 0.61265 0.0
H74 H 0.46708 0.78687 0.61343 0.0
H75 H 0.44716 0.82557 0.63941 0.0
H76 H 0.40768 0.88572 0.76642 0.0
H77 H 0.37104 0.96607 0.7655 0.0
H78 H 0.34672 0.95136 0.72107 0.0
H79 H 0.3839 0.87162 0.72146 0.0
C80 C 0.65062 0.33265 0.7423 0.0
C81 C 0.65956 0.36131 0.74244 0.0
C82 C 0.63582 0.36663 0.69701 0.0
C83 C 0.6522 0.37815 0.72004 0.0
C84 C 0.6274 0.33773 0.69682 0.0
C85 C 0.63471 0.32095 0.71925 0.0
U86 U 0.69132 0.31834 0.81016 0.0
O87 O 0.67748 0.29981 0.84989 0.0
O88 O 0.70735 0.27861 0.8241 0.0
C89 C 0.69151 0.27736 0.84628 0.0
C90 C 0.65722 0.3148 0.76616 0.0
C91 C 0.67621 0.25016 0.85044 0.0
C92 C 0.63584 0.21816 0.84228 0.0
C93 C 0.65129 0.24291 0.83597 0.0
C94 C 0.67055 0.20712 0.87677 0.0
C95 C 0.64505 0.2002 0.86314 0.0
C96 C 0.68593 0.23188 0.87049 0.0
C97 C 0.7464 0.37439 0.83967 0.0
C98 C 0.79218 0.37408 0.86094 0.0
C99 C 0.76332 0.41187 0.87331 0.0
C100 C 0.74256 0.39947 0.85527 0.0
C101 C 0.78864 0.39965 0.87599 0.0
C102 C 0.77132 0.36159 0.843 0.0
C103 C 0.725 0.36328 0.81872 0.0
O104 O 0.68151 0.30457 0.76577 0.0
O105 O 0.65069 0.32436 0.79148 0.0
O106 O 0.69971 0.36169 0.82765 0.0
O107 O 0.73067 0.34149 0.80241 0.0
H108 H 0.67189 0.37073 0.76007 0.0
H109 H 0.65877 0.40036 0.72115 0.0
H110 H 0.61512 0.32802 0.67931 0.0
H111 H 0.62775 0.29883 0.7187 0.0
H112 H 0.61645 0.21331 0.83115 0.0
H113 H 0.64351 0.25674 0.82033 0.0
H114 H 0.67813 0.19404 0.89318 0.0
H115 H 0.7051 0.23718 0.88192 0.0
H116 H 0.81146 0.36419 0.86216 0.0
H117 H 0.75961 0.43127 0.88489 0.0
H118 H 0.72361 0.40985 0.85309 0.0
H119 H 0.77504 0.3423 0.83123 0.0
C120 C 0.7885 0.61726 0.36705 0.0
C121 C 0.78099 0.63021 0.39271 0.0
C122 C 0.74025 0.59799 0.39408 0.0
C123 C 0.75705 0.62061 0.40616 0.0
C124 C 0.74836 0.58472 0.36873 0.0
C125 C 0.77222 0.59431 0.35536 0.0
U126 U 0.85374 0.66547 0.36122 0.0
O127 O 0.89296 0.65726 0.34168 0.0
O128 O 0.86796 0.68973 0.32465 0.0
C129 C 0.88927 0.67465 0.32101 0.0
C130 C 0.81255 0.62798 0.35159 0.0
C131 C 0.89242 0.66283 0.29197 0.0
C132 C 0.88531 0.62427 0.25677 0.0
C133 C 0.88154 0.63556 0.28413 0.0
C134 C 0.91015 0.66769 0.24438 0.0
C135 C 0.89983 0.6401 0.23652 0.0
C136 C 0.90651 0.67889 0.27184 0.0
C137 C 0.87629 0.71529 0.42486 0.0
C138 C 0.91747 0.74674 0.4265 0.0
C139 C 0.88504 0.74886 0.46456 0.0
C140 C 0.86859 0.72715 0.4509 0.0
C141 C 0.90956 0.75912 0.45242 0.0
C142 C 0.90093 0.72504 0.4128 0.0
C143 C 0.85804 0.69322 0.41052 0.0
O144 O 0.81223 0.65436 0.34417 0.0
O145 O 0.83644 0.62153 0.36177 0.0
O146 O 0.86852 0.66878 0.40571 0.0
O147 O 0.8435 0.70135 0.38889 0.0
H148 H 0.79337 0.64801 0.40202 0.0
H149 H 0.75131 0.63139 0.42555 0.0
H150 H 0.7362 0.56692 0.35914 0.0
H151 H 0.77779 0.584 0.33563 0.0
H152 H 0.87741 0.60284 0.25177 0.0
H153 H 0.87044 0.62284 0.29929 0.0
H154 H 0.92105 0.68069 0.22933 0.0
H155 H 0.91485 0.70007 0.27741 0.0
H156 H 0.93603 0.7544 0.41637 0.0
H157 H 0.87848 0.75772 0.48459 0.0
H158 H 0.84966 0.71979 0.46056 0.0
H159 H 0.90714 0.71615 0.39264 0.0
C160 C 0.86193 0.79422 0.91267 0.0
C161 C 0.88966 0.79264 0.90609 0.0
C162 C 0.89204 0.74937 0.93269 0.0
C163 C 0.90454 0.77048 0.91599 0.0
C164 C 0.86413 0.75094 0.93881 0.0
C165 C 0.84934 0.77307 0.92894 0.0
U166 U 0.84191 0.85421 0.86314 0.0
O167 O 0.80086 0.86775 0.85272 0.0
O168 O 0.83063 0.89713 0.87555 0.0
C169 C 0.80529 0.8925 0.86594 0.0
C170 C 0.84595 0.81822 0.90423 0.0
C171 C 0.78319 0.90251 0.88429 0.0
C172 C 0.73753 0.89643 0.90403 0.0
C173 C 0.75929 0.88548 0.88923 0.0
C174 C 0.76314 0.94154 0.90975 0.0
C175 C 0.739 0.92471 0.91434 0.0
C176 C 0.78486 0.9306 0.89488 0.0
C177 C 0.87978 0.86643 0.79232 0.0
C178 C 0.88337 0.90885 0.76459 0.0
C179 C 0.89747 0.86481 0.74428 0.0
C180 C 0.89024 0.8513 0.76931 0.0
C181 C 0.8945 0.89388 0.74166 0.0
C182 C 0.87606 0.89528 0.78962 0.0
C183 C 0.87427 0.85185 0.81916 0.0
O184 O 0.85903 0.84328 0.90462 0.0
O185 O 0.82908 0.81375 0.88225 0.0
O186 O 0.85079 0.83696 0.82042 0.0
O187 O 0.8809 0.86621 0.84293 0.0
H188 H 0.89993 0.80873 0.89364 0.0
H189 H 0.92601 0.77026 0.91103 0.0
H190 H 0.85358 0.73494 0.95111 0.0
H191 H 0.82797 0.77381 0.93431 0.0
H192 H 0.71922 0.88284 0.9067 0.0
H193 H 0.75708 0.86384 0.88114 0.0
H194 H 0.76532 0.96324 0.91766 0.0
H195 H 0.80287 0.94434 0.89119 0.0
H196 H 0.88037 0.93114 0.76325 0.0
H197 H 0.90621 0.8526 0.72732 0.0
H198 H 0.89337 0.82904 0.77093 0.0
H199 H 0.86789 0.90741 0.80699 0.0
C200 C 0.61985 0.1528 0.31701 0.0
C201 C 0.61857 0.16847 0.29236 0.0
C202 C 0.60691 0.12566 0.26345 0.0
C203 C 0.61227 0.15511 0.26593 0.0
C204 C 0.60825 0.1099 0.28815 0.0
C205 C 0.61474 0.12331 0.31466 0.0
U206 U 0.66089 0.16781 0.38741 0.0
O207 O 0.67377 0.20864 0.40873 0.0
O208 O 0.6465 0.17815 0.43023 0.0
C209 C 0.65837 0.2038 0.43079 0.0
C210 C 0.62544 0.16796 0.34477 0.0
C211 C 0.64123 0.22683 0.43958 0.0
C212 C 0.59839 0.25003 0.43807 0.0
C213 C 0.61421 0.22789 0.42936 0.0
C214 C 0.63648 0.2704 0.46712 0.0
C215 C 0.60934 0.27166 0.45703 0.0
C216 C 0.6522 0.24821 0.45849 0.0
C217 C 0.7228 0.1236 0.40319 0.0
C218 C 0.76197 0.13498 0.43517 0.0
C219 C 0.75298 0.08726 0.41605 0.0
C220 C 0.72997 0.09556 0.40135 0.0
C221 C 0.76944 0.10686 0.43302 0.0
C222 C 0.73879 0.14327 0.42043 0.0
C223 C 0.69931 0.13169 0.38587 0.0
O224 O 0.62094 0.15365 0.36783 0.0
O225 O 0.64794 0.18464 0.34661 0.0
O226 O 0.70177 0.15656 0.37444 0.0
O227 O 0.67492 0.12573 0.39609 0.0
H228 H 0.62215 0.19122 0.29359 0.0
H229 H 0.61096 0.16799 0.24749 0.0
H230 H 0.60442 0.08719 0.28697 0.0
H231 H 0.61557 0.11059 0.33327 0.0
H232 H 0.57751 0.25006 0.43009 0.0
H233 H 0.60534 0.2116 0.41469 0.0
H234 H 0.64581 0.28685 0.4813 0.0
H235 H 0.67307 0.24784 0.46651 0.0
H236 H 0.77405 0.15055 0.4482 0.0
H237 H 0.75831 0.06558 0.41342 0.0
H238 H 0.718 0.0801 0.38805 0.0
H239 H 0.73356 0.16505 0.42223 0.0
C240 C 0.26701 0.65941 0.1904 0.0
C241 C 0.27176 0.6372 0.17105 0.0
C242 C 0.22408 0.63463 0.15465 0.0
C243 C 0.25063 0.62506 0.15331 0.0
C244 C 0.21947 0.65731 0.17357 0.0
C245 C 0.24065 0.66953 0.19127 0.0
U246 U 0.32256 0.71506 0.21996 0.0
O247 O 0.33405 0.72683 0.26449 0.0
O248 O 0.36402 0.70883 0.23634 0.0
C249 C 0.35838 0.71686 0.26244 0.0
C250 C 0.28905 0.67004 0.21089 0.0
C251 C 0.36589 0.69756 0.28474 0.0
C252 C 0.36557 0.6505 0.30349 0.0
C253 C 0.35722 0.66883 0.28282 0.0
C254 C 0.39071 0.68954 0.32871 0.0
C255 C 0.38266 0.66057 0.32655 0.0
C256 C 0.38244 0.70783 0.30795 0.0
C257 C 0.33507 0.78516 0.18158 0.0
C258 C 0.37717 0.81523 0.18081 0.0
C259 C 0.33501 0.83183 0.16189 0.0
C260 C 0.32105 0.80649 0.16899 0.0
C261 C 0.36339 0.83631 0.16713 0.0
C262 C 0.36314 0.78994 0.18801 0.0
C263 C 0.32047 0.75751 0.18578 0.0
O264 O 0.31399 0.67233 0.20102 0.0
O265 O 0.28376 0.69111 0.22833 0.0
O266 O 0.30566 0.75529 0.20866 0.0
O267 O 0.33444 0.73529 0.18046 0.0
H268 H 0.29177 0.62878 0.17001 0.0
H269 H 0.25507 0.60792 0.13875 0.0
H270 H 0.19923 0.66501 0.17548 0.0
H271 H 0.23613 0.68642 0.20609 0.0
H272 H 0.35868 0.6284 0.30137 0.0
H273 H 0.34427 0.66053 0.26517 0.0
H274 H 0.40405 0.69796 0.34599 0.0
H275 H 0.38931 0.72996 0.30979 0.0
H276 H 0.39904 0.81772 0.18489 0.0
H277 H 0.32363 0.84771 0.15184 0.0
H278 H 0.29937 0.80326 0.16394 0.0
H279 H 0.3744 0.77377 0.19776 0.0
C280 C 0.10529 0.3122 0.64329 0.0
C281 C 0.12006 0.30511 0.61913 0.0
C282 C 0.08214 0.27281 0.60194 0.0
C283 C 0.1086 0.28554 0.59865 0.0
C284 C 0.06712 0.28085 0.62572 0.0
C285 C 0.07862 0.30033 0.64621 0.0
U286 U 0.16391 0.36216 0.67229 0.0
O287 O 0.16415 0.40097 0.69902 0.0
O288 O 0.18453 0.36441 0.71446 0.0
C289 C 0.17678 0.38986 0.72043 0.0
C290 C 0.11797 0.3307 0.66624 0.0
C291 C 0.16518 0.39441 0.74878 0.0
C292 C 0.12691 0.40336 0.77923 0.0
C293 C 0.13697 0.39636 0.75245 0.0
C294 C 0.17296 0.40529 0.79923 0.0
C295 C 0.14485 0.40846 0.80289 0.0
C296 C 0.18298 0.39841 0.77246 0.0
C297 C 0.22437 0.38049 0.62356 0.0
C298 C 0.25066 0.4157 0.59715 0.0
C299 C 0.27403 0.3858 0.62894 0.0
C300 C 0.2489 0.37238 0.63593 0.0
C301 C 0.27525 0.40761 0.60944 0.0
C302 C 0.22557 0.4022 0.60404 0.0
C303 C 0.19759 0.36583 0.62968 0.0
O304 O 0.14041 0.32182 0.67768 0.0
O305 O 0.11984 0.35781 0.66135 0.0
O306 O 0.17699 0.382 0.63282 0.0
O307 O 0.19761 0.34555 0.64801 0.0
H308 H 0.14069 0.31419 0.61649 0.0
H309 H 0.12063 0.28002 0.58048 0.0
H310 H 0.04688 0.27118 0.62919 0.0
H311 H 0.06696 0.30553 0.66475 0.0
H312 H 0.1052 0.40589 0.78113 0.0
H313 H 0.12281 0.39326 0.73449 0.0
H314 H 0.18732 0.40858 0.817 0.0
H315 H 0.20481 0.39684 0.77011 0.0
H316 H 0.25074 0.43264 0.58234 0.0
H317 H 0.29255 0.3787 0.63849 0.0
H318 H 0.24881 0.35552 0.65083 0.0
H319 H 0.20703 0.40873 0.59398 0.0
O320 O 0.99373 0.01997 0.5926 0.0
Mg321 Mg 0.02551 0.03911 0.57019 0.0
O322 O 0.98336 0.99403 0.55382 0.0
Mg323 Mg 0.00805 0.01541 0.51512 0.0
O324 O 0.0159 0.06181 0.53544 0.0
O325 O 0.02863 0.08074 0.57859 0.0
O326 O 0.03291 0.03734 0.47675 0.0
O327 O 0.96523 0.03175 0.5007 0.0
Mg328 Mg 0.9924 0.99253 0.46016 0.0
O329 O 0.99993 0.96885 0.49485 0.0
O330 O 0.02457 0.01102 0.43796 0.0
O331 O 0.95447 0.01047 0.45932 0.0
O332 O 0.98916 0.95113 0.45078 0.0
C333 C 0.06827 1.00389 0.54988 0.0
C334 C 0.97987 0.99971 0.58026 0.0
C335 C 0.02146 0.0838 0.55245 0.0
C336 C 0.03744 0.03177 0.4505 0.0
C337 C 0.94853 0.02688 0.47962 0.0
C338 C 0.99473 0.94729 0.47717 0.0
O339 O 0.06342 0.02121 0.56981 0.0
O340 O 0.05078 0.99873 0.52953 0.0
O341 O 0.45778 0.07513 0.01699 0.0
Mg342 Mg 0.5004 0.07879 0.01743 0.0
O343 O 0.46156 0.0312 0.02913 0.0
Mg344 Mg 0.50648 0.01734 0.01631 0.0
O345 O 0.52007 0.05557 0.9878 0.0
O346 O 0.51584 0.10233 0.986 0.0
O347 O 0.55169 1.00403 1.00327 0.0
O348 O 0.48598 0.99717 0.97388 0.0
Mg349 Mg 0.51386 0.95817 0.01426 0.0
O350 O 0.4924 0.97875 0.04479 0.0
O351 O 0.55635 0.96089 0.01695 0.0
O352 O 0.49466 0.95225 0.97374 0.0
O353 O 0.49848 0.93217 0.04349 0.0
C354 C 0.53051 0.06306 0.06966 0.0
C355 C 0.44702 0.05244 0.02608 0.0
C356 C 0.52497 0.07947 0.97543 0.0
C357 C 0.56675 0.98334 1.00712 0.0
C358 C 0.48432 0.97263 0.96173 0.0
C359 C 0.48839 0.95385 0.05549 0.0
O360 O 0.52167 0.08373 0.05677 0.0
O361 O 0.52693 0.03799 0.05881 0.0
O362 O 0.51837 0.57952 0.56623 0.0
Mg363 Mg 0.51148 0.53729 0.57628 0.0
O364 O 0.49955 0.56507 0.52518 0.0
Mg365 Mg 0.50944 0.51684 0.51693 0.0
O366 O 0.536 0.50879 0.55802 0.0
O367 O 0.5401 0.52429 0.60356 0.0
O368 O 0.52048 0.46871 0.50959 0.0
O369 O 0.54995 0.53254 0.49562 0.0
Mg370 Mg 0.50478 0.49309 0.46437 0.0
O371 O 0.48188 0.52592 0.47599 0.0
O372 O 0.49359 0.45154 0.47502 0.0
O373 O 0.54658 0.50504 0.45691 0.0
O374 O 0.47985 0.50422 0.43277 0.0
C375 C 0.45806 0.5047 0.56186 0.0
C376 C 0.50676 0.58505 0.54316 0.0
C377 C 0.54787 0.50823 0.58304 0.0
C378 C 0.51018 0.4474 0.49493 0.0
C379 C 0.56021 0.52325 0.47271 0.0
C380 C 0.47181 0.52341 0.45008 0.0
O381 O 0.47071 0.51999 0.58116 0.0
O382 O 0.46894 0.50055 0.53779 0.0
O383 O 0.99574 0.4542 0.05329 0.0
Mg384 Mg 1.00427 0.49737 0.06317 0.0
O385 O 0.02558 0.47181 0.02431 0.0
Mg386 Mg 1.00694 0.51717 0.01491 0.0
O387 O 0.97771 0.52748 0.05433 0.0
O388 O 0.98041 0.50607 0.09605 0.0
O389 O 0.98835 0.56257 1.00543 0.0
O390 O 0.96888 0.49324 0.99224 0.0
Mg391 Mg 0.00928 0.53628 0.96635 0.0
O392 O 0.03681 0.50731 0.9758 0.0
O393 O 0.01731 0.5796 0.97524 0.0
O394 O 0.96876 0.52009 0.95523 0.0
O395 O 0.03317 0.52763 0.93357 0.0
C396 C 0.05641 0.53311 0.06028 0.0
C397 C 0.01559 0.45049 0.0374 0.0
C398 C 0.96967 0.52425 0.08034 0.0
C399 C 0.99798 0.58363 0.99171 0.0
C400 C 0.95747 0.50039 0.96922 0.0
C401 C 0.04481 0.51049 0.94977 0.0
O402 O 0.04525 0.51302 0.0739 0.0
O403 O 0.04477 0.5409 0.03766 0.0
H404 H 0.07819 0.15499 0.32737 0.0
H405 H 0.14447 0.0998 0.319 0.0
H406 H 0.06297 0.1305 0.36945 0.0
H407 H 0.1291 0.07521 0.36099 0.0
H408 H 0.06732 0.01467 0.4063 0.0
H409 H 0.0905 0.04341 0.3714 0.0
H410 H 0.07252 0.11881 0.41935 0.0
H411 H 0.04886 0.08956 0.45461 0.0
C412 C 0.08985 0.13795 0.33472 0.0
C413 C 0.11251 0.12931 0.31944 0.0
C414 C 0.08111 0.12391 0.35899 0.0
C415 C 0.09468 0.10074 0.36868 0.0
C416 C 0.11785 0.09268 0.35395 0.0
C417 C 0.12662 0.10673 0.32973 0.0
C418 C 0.06878 0.03738 0.40979 0.0
C419 C 0.05618 0.0498 0.43323 0.0
C420 C 0.08222 0.05392 0.38975 0.0
C421 C 0.08332 0.08352 0.39232 0.0
C422 C 0.07181 0.09606 0.41652 0.0
C423 C 0.05854 0.07934 0.43691 0.0
H424 H 0.37154 0.95705 0.81506 0.0
H425 H 0.44344 0.91673 0.78725 0.0
H426 H 0.39438 0.96985 0.86062 0.0
H427 H 0.46602 0.9292 0.83292 0.0
H428 H 0.48274 0.92441 0.92852 0.0
H429 H 0.46081 0.91511 0.88219 0.0
H430 H 0.43319 0.99959 0.88345 0.0
H431 H 0.45516 0.009 0.93036 0.0
C432 C 0.39232 0.95118 0.81847 0.0
C433 C 0.40553 0.93567 0.79739 0.0
C434 C 0.4054 0.95854 0.84465 0.0
C435 C 0.43198 0.95044 0.85052 0.0
C436 C 0.44536 0.93537 0.8293 0.0
C437 C 0.43235 0.92813 0.8031 0.0
C438 C 0.47203 0.94112 0.91905 0.0
C439 C 0.47074 0.9675 0.9333 0.0
C440 C 0.4596 0.9358 0.89229 0.0
C441 C 0.44536 0.95663 0.87898 0.0
C442 C 0.44387 0.98302 0.89321 0.0
C443 C 0.45655 0.98845 0.92002 0.0
H444 H 0.58555 0.36505 0.67004 0.0
H445 H 0.66522 0.40984 0.6717 0.0
H446 H 0.56925 0.39736 0.63549 0.0
H447 H 0.64877 0.44236 0.63718 0.0
H448 H 0.59218 0.51597 0.61822 0.0
H449 H 0.61702 0.47955 0.64041 0.0
H450 H 0.57193 0.4159 0.58736 0.0
H451 H 0.54662 0.45277 0.56548 0.0
C452 C 0.5998 0.38141 0.66261 0.0
C453 C 0.62667 0.38493 0.67394 0.0
C454 C 0.59044 0.39994 0.64267 0.0
C455 C 0.60766 0.42254 0.63356 0.0
C456 C 0.63486 0.42539 0.644 0.0
C457 C 0.64425 0.40682 0.66391 0.0
C458 C 0.58823 0.49428 0.61064 0.0
C459 C 0.56764 0.48717 0.58999 0.0
C460 C 0.60251 0.47334 0.62333 0.0
C461 C 0.59632 0.44471 0.6159 0.0
C462 C 0.577 0.43774 0.59378 0.0
C463 C 0.56283 0.45883 0.58087 0.0
H464 H 0.8655 0.60432 0.20283 0.0
H465 H 0.94633 0.64675 0.20511 0.0
H466 H 0.8764 0.57917 0.15888 0.0
H467 H 0.95683 0.62212 0.16093 0.0
H468 H 0.9675 0.58126 0.07517 0.0
H469 H 0.94589 0.61334 0.10859 0.0
H470 H 0.90875 0.54162 0.15066 0.0
H471 H 0.93043 0.50994 0.11769 0.0
C472 C 0.88551 0.60849 0.19392 0.0
C473 C 0.90514 0.62735 0.20787 0.0
C474 C 0.89165 0.59421 0.16859 0.0
C475 C 0.91749 0.59861 0.15642 0.0
C476 C 0.93659 0.61856 0.16949 0.0
C477 C 0.93054 0.63268 0.19493 0.0
C478 C 0.95387 0.57248 0.09091 0.0
C479 C 0.95064 0.54316 0.09394 0.0
C480 C 0.94177 0.59079 0.11022 0.0
C481 C 0.92585 0.58001 0.13247 0.0
C482 C 0.92071 0.55066 0.13372 0.0
C483 C 0.93314 0.53247 0.11483 0.0
H484 H 0.31018 0.13779 0.08227 0.0
H485 H 0.29277 0.05718 0.11996 0.0
H486 H 0.34951 0.11959 0.05916 0.0
H487 H 0.33152 0.03838 0.09546 0.0
H488 H 0.42403 0.02852 0.07322 0.0
H489 H 0.38078 0.04023 0.09469 0.0
H490 H 0.36228 0.08934 0.02201 0.0
H491 H 0.40567 0.07857 1.00145 0.0
C492 C 0.31464 0.11612 0.08562 0.0
C493 C 0.29813 0.09911 0.10317 0.0
C494 C 0.33709 0.10545 0.07193 0.0
C495 C 0.34375 0.07729 0.07507 0.0
C496 C 0.32722 0.06017 0.09255 0.0
C497 C 0.30472 0.07091 0.10637 0.0
C498 C 0.41031 0.04118 0.06158 0.0
C499 C 0.41833 0.05277 0.03573 0.0
C500 C 0.38552 0.04804 0.07392 0.0
C501 C 0.36818 0.06642 0.0605 0.0
C502 C 0.37538 0.07596 0.03353 0.0
C503 C 0.40015 0.06946 0.02149 0.0
H504 H 0.21206 0.93706 0.62153 0.0
H505 H 0.21071 0.90018 0.53635 0.0
H506 H 0.17075 0.96034 0.6106 0.0
H507 H 0.17006 0.92506 0.52482 0.0
H508 H 0.08022 0.95275 0.52531 0.0
H509 H 0.12176 0.92755 0.53303 0.0
H510 H 0.15667 0.99839 0.58454 0.0
H511 H 0.11519 0.02275 0.57774 0.0
C512 C 0.20296 0.93381 0.60045 0.0
C513 C 0.21487 0.91662 0.57989 0.0
C514 C 0.17939 0.9476 0.59399 0.0
C515 C 0.16712 0.94495 0.56666 0.0
C516 C 0.17881 0.92753 0.54612 0.0
C517 C 0.20238 0.91353 0.55265 0.0
C518 C 0.09693 0.96293 0.53805 0.0
C519 C 0.09428 0.98956 0.55121 0.0
C520 C 0.12077 0.94854 0.54246 0.0
C521 C 0.14247 0.96067 0.5599 0.0
C522 C 0.14015 0.98793 0.57176 0.0
C523 C 0.11637 1.00204 0.56766 0.0
H524 H 0.80258 0.45638 0.8805 0.0
H525 H 0.82734 0.37649 0.90981 0.0
H526 H 0.84137 0.48053 0.90585 0.0
H527 H 0.86717 0.40069 0.93409 0.0
H528 H 0.92577 0.45748 0.9929 0.0
H529 H 0.88363 0.43324 0.97292 0.0
H530 H 0.88953 0.48519 0.8995 0.0
H531 H 0.93073 0.50962 0.91953 0.0
C532 C 0.81612 0.44391 0.89258 0.0
C533 C 0.81173 0.41439 0.89297 0.0
C534 C 0.83867 0.45779 0.90684 0.0
C535 C 0.85768 0.44257 0.92177 0.0
C536 C 0.85292 0.41312 0.92293 0.0
C537 C 0.83023 0.3992 0.90869 0.0
C538 C 0.91791 0.46378 0.97258 0.0
C539 C 0.93163 0.4856 0.95792 0.0
C540 C 0.89386 0.44979 0.96105 0.0
C541 C 0.88301 0.45736 0.93465 0.0
C542 C 0.89685 0.47915 0.92012 0.0
C543 C 0.9207 0.49308 0.93159 0.0
H544 H 0.72956 0.59131 0.45071 0.0
H545 H 0.69125 0.5838 0.36715 0.0
H546 H 0.68653 0.5738 0.47148 0.0
H547 H 0.64858 0.5664 0.38776 0.0
H548 H 0.58839 0.50471 0.4273 0.0
H549 H 0.63198 0.52341 0.41012 0.0
H550 H 0.63818 0.58529 0.47962 0.0
H551 H 0.59429 0.56615 0.4973 0.0
C552 C 0.71192 0.58618 0.43681 0.0
C553 C 0.71396 0.58858 0.40722 0.0
C554 C 0.68729 0.57617 0.44871 0.0
C555 C 0.66423 0.56835 0.43124 0.0
C556 C 0.66613 0.57157 0.40177 0.0
C557 C 0.69063 0.58153 0.38994 0.0
C558 C 0.59897 0.52225 0.43907 0.0
C559 C 0.58765 0.53406 0.46358 0.0
C560 C 0.62396 0.53309 0.42909 0.0
C561 C 0.63839 0.55611 0.44324 0.0
C562 C 0.62758 0.56749 0.46827 0.0
C563 C 0.60241 0.55658 0.47833 0.0
H564 H 0.13802 0.34125 0.09371 0.0
H565 H 0.0689 0.28206 0.07478 0.0
H566 H 0.11268 0.37912 0.07467 0.0
H567 H 0.04355 0.31995 0.05568 0.0
H568 H 0.99626 0.40107 0.05969 0.0
H569 H 0.0217 0.36078 0.0717 0.0
H570 H 0.09339 0.39884 0.03259 0.0
H571 H 0.06783 0.43976 0.02101 0.0
C572 C 0.11752 0.33618 0.0852 0.0
C573 C 0.10556 0.30844 0.08599 0.0
C574 C 0.10296 0.35798 0.07414 0.0
C575 C 0.07596 0.35278 0.06352 0.0
C576 C 0.06412 0.32497 0.06401 0.0
C577 C 0.07867 0.30317 0.07509 0.0
C578 C 0.01733 0.40073 0.05317 0.0
C579 C 0.02997 0.42385 0.03947 0.0
C580 C 0.03197 0.37745 0.06002 0.0
C581 C 0.05979 0.37647 0.05343 0.0
C582 C 0.07214 0.399 0.03848 0.0
C583 C 0.05739 0.42235 0.0315 0.0
H584 H 0.59002 0.19795 0.87158 0.0
H585 H 0.65984 0.14716 0.87636 0.0
H586 H 0.56168 0.16053 0.89195 0.0
H587 H 0.6312 0.10915 0.89659 0.0
H588 H 0.57992 0.0761 0.97429 0.0
H589 H 0.60989 0.1003 0.94084 0.0
H590 H 0.53949 0.11513 0.88787 0.0
H591 H 0.5097 0.09221 0.92227 0.0
C592 C 0.59919 0.17845 0.87626 0.0
C593 C 0.62726 0.17567 0.87238 0.0
C594 C 0.58285 0.15679 0.88792 0.0
C595 C 0.59403 0.13159 0.89595 0.0
C596 C 0.62192 0.12833 0.89102 0.0
C597 C 0.63835 0.15013 0.87942 0.0
C598 C 0.5711 0.0834 0.95481 0.0
C599 C 0.54261 0.08224 0.95069 0.0
C600 C 0.58824 0.09746 0.93563 0.0
C601 C 0.57709 0.11043 0.91195 0.0
C602 C 0.54876 0.10618 0.90628 0.0
C603 C 0.53167 0.09258 0.92568 0.0
H604 H 0.96542 0.76674 0.45886 0.0
H605 H 0.89082 0.80728 0.47612 0.0
H606 H 0.99217 0.80948 0.47556 0.0
H607 H 0.91736 0.84993 0.49238 0.0
H608 H 0.96633 0.9257 0.5218 0.0
H609 H 0.94929 0.87622 0.52481 0.0
H610 H 0.99968 0.854 0.4542 0.0
H611 H 0.01664 0.90287 0.45169 0.0
C612 C 0.95474 0.78468 0.46645 0.0
C613 C 0.92599 0.78371 0.4658 0.0
C614 C 0.97006 0.80915 0.47613 0.0
C615 C 0.95698 0.8333 0.48518 0.0
C616 C 0.92822 0.83168 0.48605 0.0
C617 C 0.91294 0.8072 0.47652 0.0
C618 C 0.97467 0.9099 0.50794 0.0
C619 C 0.99266 0.91797 0.48644 0.0
C620 C 0.96465 0.88165 0.50934 0.0
C621 C 0.97265 0.86115 0.48935 0.0
C622 C 0.99307 0.86899 0.47004 0.0
C623 C 1.00285 0.89708 0.46856 0.0
H624 H 0.46812 0.73671 0.62125 0.0
H625 H 0.4155 0.73907 0.54684 0.0
H626 H 0.48814 0.69531 0.60157 0.0
H627 H 0.436 0.69732 0.52665 0.0
H628 H 0.45739 0.60117 0.52335 0.0
H629 H 0.43866 0.64706 0.53271 0.0
H630 H 0.51764 0.67997 0.56606 0.0
H631 H 0.53568 0.63393 0.55799 0.0
C632 C 0.46115 0.72867 0.60037 0.0
C633 C 0.44039 0.74148 0.58552 0.0
C634 C 0.47275 0.70487 0.58896 0.0
C635 C 0.46411 0.69309 0.5622 0.0
C636 C 0.44316 0.70574 0.54732 0.0
C637 C 0.43139 0.72965 0.55888 0.0
C638 C 0.47087 0.61852 0.53186 0.0
C639 C 0.49789 0.61398 0.54023 0.0
C640 C 0.46015 0.64483 0.53733 0.0
C641 C 0.4764 0.66708 0.55096 0.0
C642 C 0.50422 0.66312 0.55649 0.0
C643 C 0.51471 0.63683 0.55152 0.0
H644 H 0.88975 0.87532 0.68542 0.0
H645 H 0.92158 0.94591 0.73895 0.0
H646 H 0.9065 0.8995 0.64348 0.0
H647 H 0.93837 0.96982 0.69744 0.0
H648 H 0.94693 0.01943 0.62046 0.0
H649 H 0.92336 0.99324 0.65709 0.0
H650 H 0.94768 0.91516 0.61866 0.0
H651 H 0.97062 0.94177 0.58106 0.0
C652 C 0.90037 0.89594 0.6883 0.0
C653 C 0.90405 0.90871 0.7157 0.0
C654 C 0.91001 0.90981 0.6642 0.0
C655 C 0.92359 0.93684 0.66684 0.0
C656 C 0.92738 0.94941 0.69429 0.0
C657 C 0.91772 0.93563 0.71826 0.0
C658 C 0.9467 0.9966 0.61942 0.0
C659 C 0.9607 0.98268 0.59792 0.0
C660 C 0.93346 0.98154 0.64068 0.0
C661 C 0.93419 0.95205 0.64147 0.0
C662 C 0.94667 0.93785 0.61884 0.0
C663 C 0.95974 0.95304 0.59718 0.0
H664 H 0.56686 0.08359 0.25072 0.0
H665 H 0.62974 0.13649 0.21211 0.0
H666 H 0.55124 0.06508 0.20364 0.0
H667 H 0.61418 0.11807 0.16526 0.0
H668 H 0.55227 0.11364 0.09071 0.0
H669 H 0.57301 0.12511 0.1371 0.0
H670 H 0.56228 0.03766 0.15903 0.0
H671 H 0.54104 0.026 0.11199 0.0
C672 C 0.57769 0.09088 0.23226 0.0
C673 C 0.5993 0.11187 0.2352 0.0
C674 C 0.56875 0.08023 0.20527 0.0
C675 C 0.58122 0.09036 0.18064 0.0
C676 C 0.60374 0.11024 0.18374 0.0
C677 C 0.61263 0.12085 0.21062 0.0
C678 C 0.55441 0.0967 0.10524 0.0
C679 C 0.54487 0.06887 0.09757 0.0
C680 C 0.56655 0.10329 0.13187 0.0
C681 C 0.56947 0.08232 0.1518 0.0
C682 C 0.56023 0.05433 0.14417 0.0
C683 C 0.54823 0.04762 0.1172 0.0
H684 H 0.40156 0.60867 0.31563 0.0
H685 H 0.38777 0.66766 0.38477 0.0
H686 H 0.41946 0.57634 0.34898 0.0
H687 H 0.40545 0.63488 0.41857 0.0
H688 H 0.47091 0.58035 0.46215 0.0
H689 H 0.44693 0.61425 0.43433 0.0
H690 H 0.40585 0.54521 0.38485 0.0
H691 H 0.43058 0.51184 0.41169 0.0
C692 C 0.40191 0.61455 0.33806 0.0
C693 C 0.39299 0.64069 0.34748 0.0
C694 C 0.41215 0.59593 0.3573 0.0
C695 C 0.41361 0.60273 0.38665 0.0
C696 C 0.40479 0.62897 0.39615 0.0
C697 C 0.39463 0.64775 0.37677 0.0
C698 C 0.45624 0.57253 0.44575 0.0
C699 C 0.45283 0.54352 0.43882 0.0
C700 C 0.44252 0.59193 0.42974 0.0
C701 C 0.42496 0.58254 0.40676 0.0
C702 C 0.4199 0.55332 0.40168 0.0
C703 C 0.43384 0.53412 0.41729 0.0
H704 H 0.09702 0.39224 0.82937 0.0
H705 H 0.16929 0.44917 0.83918 0.0
H706 H 0.07774 0.41449 0.87128 0.0
H707 H 0.15046 0.47057 0.8815 0.0
H708 H 0.08443 0.52944 0.91514 0.0
H709 H 0.11256 0.50148 0.88481 0.0
H710 H 0.08083 0.4256 0.924 0.0
H711 H 0.05247 0.45411 0.9548 0.0
C712 C 0.10898 0.40918 0.84067 0.0
C713 C 0.13458 0.4191 0.83061 0.0
C714 C 0.09809 0.42167 0.86495 0.0
C715 C 0.1125 0.44442 0.87965 0.0
C716 C 0.13873 0.45325 0.87051 0.0
C717 C 0.14962 0.44079 0.84632 0.0
C718 C 0.08408 0.50687 0.91789 0.0
C719 C 0.06631 0.49391 0.93726 0.0
C720 C 0.10027 0.4908 0.90054 0.0
C721 C 0.09884 0.46125 0.90182 0.0
C722 C 0.08221 0.44833 0.9224 0.0
C723 C 0.06623 0.4646 0.94021 0.0
H724 H 0.71994 0.97806 0.91155 0.0
H725 H 0.70411 0.89837 0.95155 0.0
H726 H 0.68129 0.99697 0.9361 0.0
H727 H 0.66484 0.91665 0.97472 0.0
H728 H 0.60871 0.95834 0.03201 0.0
H729 H 0.65201 0.94756 0.01124 0.0
H730 H 0.63213 0.99462 0.93753 0.0
H731 H 0.58899 0.00638 0.95919 0.0
C732 C 0.70835 0.96455 0.92566 0.0
C733 C 0.71537 0.93659 0.92949 0.0
C734 C 0.68591 0.97535 0.93951 0.0
C735 C 0.66982 0.95852 0.95765 0.0
C736 C 0.6769 0.93058 0.96143 0.0
C737 C 0.69931 0.91986 0.9477 0.0
C738 C 0.6139 0.96702 0.01168 0.0
C739 C 0.59537 0.98314 0.99722 0.0
C740 C 0.63863 0.96049 0.99953 0.0
C741 C 0.64543 0.96944 0.97224 0.0
C742 C 0.62771 0.98728 0.95856 0.0
C743 C 0.60298 0.99416 0.971 0.0
H744 H 0.77647 0.05762 0.45999 0.0
H745 H 0.82001 0.13561 0.43815 0.0
H746 H 0.81929 0.03961 0.47639 0.0
H747 H 0.86288 0.11762 0.45515 0.0
H748 H 0.93373 0.07701 0.5044 0.0
H749 H 0.88961 0.09853 0.49852 0.0
H750 H 0.85906 0.02645 0.44633 0.0
H751 H 0.90261 0.00538 0.45182 0.0
C752 C 0.79512 0.07106 0.45893 0.0
C753 C 0.79481 0.09787 0.44721 0.0
C754 C 0.81963 0.06077 0.46847 0.0
C755 C 0.84448 0.07708 0.46676 0.0
C756 C 0.84402 0.10463 0.45688 0.0
C757 C 0.81943 0.11491 0.44714 0.0
C758 C 0.91743 0.06575 0.49195 0.0
C759 C 0.92167 0.03957 0.47848 0.0
C760 C 0.89229 0.07809 0.48847 0.0
C761 C 0.87085 0.06409 0.47208 0.0
C762 C 0.87501 0.03761 0.45937 0.0
C763 C 0.90009 0.02563 0.46237 0.0
H764 H 0.18119 0.65806 0.12744 0.0
H765 H 0.21446 0.57792 0.14337 0.0
H766 H 0.14178 0.63351 0.10273 0.0
H767 H 0.17581 0.5536 0.11772 0.0
H768 H 0.08686 0.51935 0.10624 0.0
H769 H 0.12794 0.54402 0.12659 0.0
H770 H 0.1264 0.60468 0.06041 0.0
H771 H 0.08463 0.58008 0.04013 0.0
C772 C 0.18022 0.63524 0.12553 0.0
C773 C 0.20101 0.62002 0.13758 0.0
C774 C 0.15777 0.62118 0.11105 0.0
C775 C 0.1555 0.59155 0.10836 0.0
C776 C 0.17667 0.57641 0.11972 0.0
C777 C 0.19906 0.59043 0.13416 0.0
C778 C 0.09525 0.53787 0.09585 0.0
C779 C 0.08234 0.54772 0.07152 0.0
C780 C 0.119 0.55194 0.10747 0.0
C781 C 0.1306 0.57631 0.09511 0.0
C782 C 0.11787 0.58611 0.07061 0.0
C783 C 0.09403 0.57192 0.05888 0.0
H784 H 0.29179 0.42509 0.55716 0.0
H785 H 0.31946 0.4224 0.64466 0.0
H786 H 0.33521 0.44929 0.54518 0.0
H787 H 0.36332 0.44523 0.6324 0.0
H788 H 0.42704 0.51317 0.60856 0.0
H789 H 0.38285 0.49019 0.61927 0.0
H790 H 0.38308 0.4419 0.53989 0.0
H791 H 0.42711 0.46553 0.52877 0.0
C792 C 0.3071 0.42966 0.57387 0.0
C793 C 0.30202 0.42185 0.60193 0.0
C794 C 0.33217 0.44323 0.5669 0.0
C795 C 0.35281 0.44928 0.58781 0.0
C796 C 0.34778 0.44128 0.61581 0.0
C797 C 0.32271 0.42782 0.62278 0.0
C798 C 0.41767 0.49771 0.59329 0.0
C799 C 0.43071 0.49116 0.56781 0.0
C800 C 0.39236 0.48437 0.59956 0.0
C801 C 0.37944 0.464 0.58058 0.0
C802 C 0.39229 0.45769 0.55489 0.0
C803 C 0.41762 0.47115 0.54854 0.0
H804 H 0.88832 0.72427 0.98461 0.0
H805 H 0.93185 0.72081 0.90585 0.0
H806 H 0.91404 0.68587 1.00225 0.0
H807 H 0.95757 0.68269 0.92353 0.0
H808 H 0.01772 0.633 0.96983 0.0
H809 H 0.9926 0.67359 0.95787 0.0
H810 H 0.92022 0.63536 0.99552 0.0
H811 H 0.94573 0.59463 1.00799 0.0
C812 C 0.90322 0.71525 0.97092 0.0
C813 C 0.90794 0.72587 0.94371 0.0
C814 C 0.91802 0.69319 0.98111 0.0
C815 C 0.9381 0.68117 0.96449 0.0
C816 C 0.94274 0.69174 0.93728 0.0
C817 C 0.92792 0.71371 0.92707 0.0
C818 C 0.99656 0.63337 0.97602 0.0
C819 C 0.98374 0.61035 0.98972 0.0
C820 C 0.98203 0.65661 0.96887 0.0
C821 C 0.95413 0.65763 0.9751 0.0
C822 C 0.94166 0.63538 0.99034 0.0
C823 C 0.9563 0.61201 0.99758 0.0
H824 H 0.35556 0.86247 0.11689 0.0
H825 H 0.40674 0.86776 0.19293 0.0
H826 H 0.38447 0.89973 0.09653 0.0
H827 H 0.43593 0.90498 0.17226 0.0
H828 H 0.50027 0.92333 0.10063 0.0
H829 H 0.46783 0.9019 0.13314 0.0
H830 H 0.4039 0.94939 0.09752 0.0
H831 H 0.43689 0.97104 0.06476 0.0
C832 C 0.37254 0.87207 0.12964 0.0
C833 C 0.37894 0.86177 0.15648 0.0
C834 C 0.38913 0.89357 0.11793 0.0
C835 C 0.41263 0.90529 0.13268 0.0
C836 C 0.41816 0.89616 0.16019 0.0
C837 C 0.40151 0.8747 0.17196 0.0
C838 C 0.47953 0.93003 0.10054 0.0
C839 C 0.47104 0.94878 0.08026 0.0
C840 C 0.46089 0.91776 0.1192 0.0
C841 C 0.43315 0.92363 0.11774 0.0
C842 C 0.42509 0.94422 0.09896 0.0
C843 C 0.44399 0.95687 0.08046 0.0
H844 H 0.10949 0.22926 0.57943 0.0
H845 H 0.02973 0.26302 0.58028 0.0
H846 H 0.0901 0.18668 0.55487 0.0
H847 H 0.0102 0.22024 0.55537 0.0
H848 H 0.98947 0.12362 0.5719 0.0
H849 H 1.00183 0.17392 0.57339 0.0
H850 H 0.06728 0.16037 0.51525 0.0
H851 H 0.05473 0.10955 0.51418 0.0
C852 C 0.08794 0.22801 0.57355 0.0
C853 C 0.0711 0.2494 0.58226 0.0
C854 C 0.07678 0.20353 0.55928 0.0
C855 C 0.04848 0.19982 0.55331 0.0
C856 C 0.032 0.22219 0.56004 0.0
C857 C 0.04317 0.24667 0.5744 0.0
C858 C 1.00554 0.13161 0.55825 0.0
C859 C 0.02111 0.11287 0.54289 0.0
C860 C 0.01276 0.16051 0.55914 0.0
C861 C 0.03597 0.17122 0.54491 0.0
C862 C 0.04959 0.15273 0.52685 0.0
C863 C 0.04217 0.1237 0.52584 0.0
H864 H 0.60796 0.29902 0.50943 0.0
H865 H 0.57339 0.29924 0.42431 0.0
H866 H 0.58222 0.33959 0.52285 0.0
H867 H 0.54753 0.33936 0.43784 0.0
H868 H 0.48758 0.39706 0.47337 0.0
H869 H 0.50986 0.35295 0.4673 0.0
H870 H 0.58153 0.39016 0.51267 0.0
H871 H 0.55917 0.43435 0.51878 0.0
C872 C 0.59494 0.3077 0.49354 0.0
C873 C 0.59282 0.29574 0.46573 0.0
C874 C 0.58013 0.33093 0.50129 0.0
C875 C 0.56267 0.34267 0.4815 0.0
C876 C 0.56033 0.33053 0.45383 0.0
C877 C 0.5752 0.30744 0.44604 0.0
C878 C 0.50789 0.39568 0.48256 0.0
C879 C 0.52158 0.41928 0.49656 0.0
C880 C 0.52075 0.37044 0.47888 0.0
C881 C 0.54767 0.36813 0.48906 0.0
C882 C 0.56074 0.39114 0.50467 0.0
C883 C 0.54784 0.41647 0.50833 0.0
loop_
_geom_bond_atom_site_label_1
_geom_bond_atom_site_label_2
_geom_bond_distance
_geom_bond_site_symmetry_2
_ccdc_geom_bond_type
C0 C1 1.264 . S
C0 C5 1.479 . S
C0 C10 1.465 . S
C1 C0 1.264 . S
C1 C3 1.339 . S
C1 H28 0.931 . S
C2 C3 1.395 . S
C2 C4 1.320 . S
C3 C1 1.339 . S
C3 C2 1.395 . S
C3 H29 0.929 . S
C4 C2 1.320 . S
C4 C5 1.405 . S
C4 H30 0.930 . S
C5 C0 1.479 . S
C5 C4 1.405 . S
C5 H31 0.931 . S
U6 O7 2.454 . S
U6 O8 2.458 . S
U6 C9 2.984 . S
U6 C10 2.847 . S
U6 C23 2.882 . S
U6 O24 2.441 . S
U6 O25 2.420 . S
U6 O26 2.455 . S
U6 O27 2.449 . S
O7 U6 2.454 . S
O7 C9 1.353 . S
O8 U6 2.458 . S
O8 C9 1.286 . S
C9 U6 2.984 . S
C9 O7 1.353 . S
C9 O8 1.286 . S
C9 C11 1.363 . S
C10 C0 1.465 . S
C10 U6 2.847 . S
C10 O24 1.249 . S
C10 O25 1.202 . S
C11 C9 1.363 . S
C11 C13 1.408 . S
C11 C16 1.342 . S
C12 C13 1.310 . S
C12 C15 1.461 . S
C12 H32 0.932 . S
C13 C11 1.408 . S
C13 C12 1.310 . S
C13 H33 0.930 . S
C14 C15 1.474 . S
C14 C16 1.285 . S
C14 H34 0.929 . S
C15 C12 1.461 . S
C15 C14 1.474 . S
C16 C11 1.342 . S
C16 C14 1.285 . S
C16 H35 0.930 . S
C17 C20 1.424 . S
C17 C22 1.245 . S
C17 C23 1.428 . S
C18 C21 1.260 . S
C18 C22 1.477 . S
C18 H36 0.932 . S
C19 C20 1.384 . S
C19 C21 1.479 . S
C19 H37 0.929 . S
C20 C17 1.424 . S
C20 C19 1.384 . S
C20 H38 0.928 . S
C21 C18 1.260 . S
C21 C19 1.479 . S
C22 C17 1.245 . S
C22 C18 1.477 . S
C22 H39 0.932 . S
C23 U6 2.882 . S
C23 C17 1.428 . S
C23 O26 1.301 . S
C23 O27 1.282 . S
O24 U6 2.441 . S
O24 C10 1.249 . S
O25 U6 2.420 . S
O25 C10 1.202 . S
O26 U6 2.455 . S
O26 C23 1.301 . S
O27 U6 2.449 . S
O27 C23 1.282 . S
H28 C1 0.931 . S
H29 C3 0.929 . S
H30 C4 0.930 . S
H31 C5 0.931 . S
H32 C12 0.932 . S
H33 C13 0.930 . S
H34 C14 0.929 . S
H35 C16 0.930 . S
H36 C18 0.932 . S
H37 C19 0.929 . S
H38 C20 0.928 . S
H39 C22 0.932 . S
C40 C41 1.264 . S
C40 C45 1.479 . S
C40 C50 1.465 . S
C41 C40 1.264 . S
C41 C43 1.339 . S
C41 H68 0.931 . S
C42 C43 1.395 . S
C42 C44 1.320 . S
C43 C41 1.339 . S
C43 C42 1.395 . S
C43 H69 0.929 . S
C44 C42 1.320 . S
C44 C45 1.405 . S
C44 H70 0.930 . S
C45 C40 1.479 . S
C45 C44 1.405 . S
C45 H71 0.931 . S
U46 O47 2.454 . S
U46 O48 2.458 . S
U46 C49 2.984 . S
U46 C50 2.847 . S
U46 C63 2.882 . S
U46 O64 2.441 . S
U46 O65 2.420 . S
U46 O66 2.455 . S
U46 O67 2.449 . S
O47 U46 2.454 . S
O47 C49 1.353 . S
O48 U46 2.458 . S
O48 C49 1.286 . S
C49 U46 2.984 . S
C49 O47 1.353 . S
C49 O48 1.286 . S
C49 C51 1.363 . S
C50 C40 1.465 . S
C50 U46 2.847 . S
C50 O64 1.249 . S
C50 O65 1.202 . S
C51 C49 1.363 . S
C51 C53 1.408 . S
C51 C56 1.342 . S
C52 C53 1.310 . S
C52 C55 1.461 . S
C52 H72 0.932 . S
C53 C51 1.408 . S
C53 C52 1.310 . S
C53 H73 0.930 . S
C54 C55 1.474 . S
C54 C56 1.285 . S
C54 H74 0.929 . S
C55 C52 1.461 . S
C55 C54 1.474 . S
C56 C51 1.342 . S
C56 C54 1.285 . S
C56 H75 0.930 . S
C57 C60 1.424 . S
C57 C62 1.245 . S
C57 C63 1.428 . S
C58 C61 1.260 . S
C58 C62 1.477 . S
C58 H76 0.932 . S
C59 C60 1.384 . S
C59 C61 1.479 . S
C59 H77 0.929 . S
C60 C57 1.424 . S
C60 C59 1.384 . S
C60 H78 0.928 . S
C61 C58 1.260 . S
C61 C59 1.479 . S
C62 C57 1.245 . S
C62 C58 1.477 . S
C62 H79 0.932 . S
C63 U46 2.882 . S
C63 C57 1.428 . S
C63 O66 1.301 . S
C63 O67 1.282 . S
O64 U46 2.441 . S
O64 C50 1.249 . S
O65 U46 2.420 . S
O65 C50 1.202 . S
O66 U46 2.455 . S
O66 C63 1.301 . S
O67 U46 2.449 . S
O67 C63 1.282 . S
H68 C41 0.931 . S
H69 C43 0.929 . S
H70 C44 0.930 . S
H71 C45 0.931 . S
H72 C52 0.932 . S
H73 C53 0.930 . S
H74 C54 0.929 . S
H75 C56 0.930 . S
H76 C58 0.932 . S
H77 C59 0.929 . S
H78 C60 0.928 . S
H79 C62 0.932 . S
C80 C81 1.264 . S
C80 C85 1.479 . S
C80 C90 1.465 . S
C81 C80 1.264 . S
C81 C83 1.339 . S
C81 H108 0.931 . S
C82 C83 1.395 . S
C82 C84 1.320 . S
C83 C81 1.339 . S
C83 C82 1.395 . S
C83 H109 0.929 . S
C84 C82 1.320 . S
C84 C85 1.405 . S
C84 H110 0.930 . S
C85 C80 1.479 . S
C85 C84 1.405 . S
C85 H111 0.931 . S
U86 O87 2.454 . S
U86 O88 2.458 . S
U86 C89 2.984 . S
U86 C90 2.847 . S
U86 C103 2.882 . S
U86 O104 2.441 . S
U86 O105 2.420 . S
U86 O106 2.455 . S
U86 O107 2.449 . S
O87 U86 2.454 . S
O87 C89 1.353 . S
O88 U86 2.458 . S
O88 C89 1.286 . S
C89 U86 2.984 . S
C89 O87 1.353 . S
C89 O88 1.286 . S
C89 C91 1.363 . S
C90 C80 1.465 . S
C90 U86 2.847 . S
C90 O104 1.249 . S
C90 O105 1.202 . S
C91 C89 1.363 . S
C91 C93 1.408 . S
C91 C96 1.342 . S
C92 C93 1.310 . S
C92 C95 1.461 . S
C92 H112 0.932 . S
C93 C91 1.408 . S
C93 C92 1.310 . S
C93 H113 0.930 . S
C94 C95 1.474 . S
C94 C96 1.285 . S
C94 H114 0.929 . S
C95 C92 1.461 . S
C95 C94 1.474 . S
C96 C91 1.342 . S
C96 C94 1.285 . S
C96 H115 0.930 . S
C97 C100 1.424 . S
C97 C102 1.245 . S
C97 C103 1.428 . S
C98 C101 1.260 . S
C98 C102 1.477 . S
C98 H116 0.932 . S
C99 C100 1.384 . S
C99 C101 1.479 . S
C99 H117 0.929 . S
C100 C97 1.424 . S
C100 C99 1.384 . S
C100 H118 0.928 . S
C101 C98 1.260 . S
C101 C99 1.479 . S
C102 C97 1.245 . S
C102 C98 1.477 . S
C102 H119 0.932 . S
C103 U86 2.882 . S
C103 C97 1.428 . S
C103 O106 1.301 . S
C103 O107 1.282 . S
O104 U86 2.441 . S
O104 C90 1.249 . S
O105 U86 2.420 . S
O105 C90 1.202 . S
O106 U86 2.455 . S
O106 C103 1.301 . S
O107 U86 2.449 . S
O107 C103 1.282 . S
H108 C81 0.931 . S
H109 C83 0.929 . S
H110 C84 0.930 . S
H111 C85 0.931 . S
H112 C92 0.932 . S
H113 C93 0.930 . S
H114 C94 0.929 . S
H115 C96 0.930 . S
H116 C98 0.932 . S
H117 C99 0.929 . S
H118 C100 0.928 . S
H119 C102 0.932 . S
C120 C121 1.264 . S
C120 C125 1.479 . S
C120 C130 1.465 . S
C121 C120 1.264 . S
C121 C123 1.339 . S
C121 H148 0.931 . S
C122 C123 1.395 . S
C122 C124 1.320 . S
C123 C121 1.339 . S
C123 C122 1.395 . S
C123 H149 0.929 . S
C124 C122 1.320 . S
C124 C125 1.405 . S
C124 H150 0.930 . S
C125 C120 1.479 . S
C125 C124 1.405 . S
C125 H151 0.931 . S
U126 O127 2.454 . S
U126 O128 2.458 . S
U126 C129 2.984 . S
U126 C130 2.847 . S
U126 C143 2.882 . S
U126 O144 2.441 . S
U126 O145 2.420 . S
U126 O146 2.455 . S
U126 O147 2.449 . S
O127 U126 2.454 . S
O127 C129 1.353 . S
O128 U126 2.458 . S
O128 C129 1.286 . S
C129 U126 2.984 . S
C129 O127 1.353 . S
C129 O128 1.286 . S
C129 C131 1.363 . S
C130 C120 1.465 . S
C130 U126 2.847 . S
C130 O144 1.249 . S
C130 O145 1.202 . S
C131 C129 1.363 . S
C131 C133 1.408 . S
C131 C136 1.342 . S
C132 C133 1.310 . S
C132 C135 1.461 . S
C132 H152 0.932 . S
C133 C131 1.408 . S
C133 C132 1.310 . S
C133 H153 0.930 . S
C134 C135 1.474 . S
C134 C136 1.285 . S
C134 H154 0.929 . S
C135 C132 1.461 . S
C135 C134 1.474 . S
C136 C131 1.342 . S
C136 C134 1.285 . S
C136 H155 0.930 . S
C137 C140 1.424 . S
C137 C142 1.245 . S
C137 C143 1.428 . S
C138 C141 1.260 . S
C138 C142 1.477 . S
C138 H156 0.932 . S
C139 C140 1.384 . S
C139 C141 1.479 . S
C139 H157 0.929 . S
C140 C137 1.424 . S
C140 C139 1.384 . S
C140 H158 0.928 . S
C141 C138 1.260 . S
C141 C139 1.479 . S
C142 C137 1.245 . S
C142 C138 1.477 . S
C142 H159 0.932 . S
C143 U126 2.882 . S
C143 C137 1.428 . S
C143 O146 1.301 . S
C143 O147 1.282 . S
O144 U126 2.441 . S
O144 C130 1.249 . S
O145 U126 2.420 . S
O145 C130 1.202 . S
O146 U126 2.455 . S
O146 C143 1.301 . S
O147 U126 2.449 . S
O147 C143 1.282 . S
H148 C121 0.931 . S
H149 C123 0.929 . S
H150 C124 0.930 . S
H151 C125 0.931 . S
H152 C132 0.932 . S
H153 C133 0.930 . S
H154 C134 0.929 . S
H155 C136 0.930 . S
H156 C138 0.932 . S
H157 C139 0.929 . S
H158 C140 0.928 . S
H159 C142 0.932 . S
C160 C161 1.264 . S
C160 C165 1.479 . S
C160 C170 1.465 . S
C161 C160 1.264 . S
C161 C163 1.339 . S
C161 H188 0.931 . S
C162 C163 1.395 . S
C162 C164 1.320 . S
C163 C161 1.339 . S
C163 C162 1.395 . S
C163 H189 0.929 . S
C164 C162 1.320 . S
C164 C165 1.405 . S
C164 H190 0.930 . S
C165 C160 1.479 . S
C165 C164 1.405 . S
C165 H191 0.931 . S
U166 O167 2.454 . S
U166 O168 2.458 . S
U166 C169 2.984 . S
U166 C170 2.847 . S
U166 C183 2.882 . S
U166 O184 2.441 . S
U166 O185 2.420 . S
U166 O186 2.455 . S
U166 O187 2.449 . S
O167 U166 2.454 . S
O167 C169 1.353 . S
O168 U166 2.458 . S
O168 C169 1.286 . S
C169 U166 2.984 . S
C169 O167 1.353 . S
C169 O168 1.286 . S
C169 C171 1.363 . S
C170 C160 1.465 . S
C170 U166 2.847 . S
C170 O184 1.249 . S
C170 O185 1.202 . S
C171 C169 1.363 . S
C171 C173 1.408 . S
C171 C176 1.342 . S
C172 C173 1.310 . S
C172 C175 1.461 . S
C172 H192 0.932 . S
C173 C171 1.408 . S
C173 C172 1.310 . S
C173 H193 0.930 . S
C174 C175 1.474 . S
C174 C176 1.285 . S
C174 H194 0.929 . S
C175 C172 1.461 . S
C175 C174 1.474 . S
C176 C171 1.342 . S
C176 C174 1.285 . S
C176 H195 0.930 . S
C177 C180 1.424 . S
C177 C182 1.245 . S
C177 C183 1.428 . S
C178 C181 1.260 . S
C178 C182 1.477 . S
C178 H196 0.932 . S
C179 C180 1.384 . S
C179 C181 1.479 . S
C179 H197 0.929 . S
C180 C177 1.424 . S
C180 C179 1.384 . S
C180 H198 0.928 . S
C181 C178 1.260 . S
C181 C179 1.479 . S
C182 C177 1.245 . S
C182 C178 1.477 . S
C182 H199 0.932 . S
C183 U166 2.882 . S
C183 C177 1.428 . S
C183 O186 1.301 . S
C183 O187 1.282 . S
O184 U166 2.441 . S
O184 C170 1.249 . S
O185 U166 2.420 . S
O185 C170 1.202 . S
O186 U166 2.455 . S
O186 C183 1.301 . S
O187 U166 2.449 . S
O187 C183 1.282 . S
H188 C161 0.931 . S
H189 C163 0.929 . S
H190 C164 0.930 . S
H191 C165 0.931 . S
H192 C172 0.932 . S
H193 C173 0.930 . S
H194 C174 0.929 . S
H195 C176 0.930 . S
H196 C178 0.932 . S
H197 C179 0.929 . S
H198 C180 0.928 . S
H199 C182 0.932 . S
C200 C201 1.264 . S
C200 C205 1.479 . S
C200 C210 1.465 . S
C201 C200 1.264 . S
C201 C203 1.339 . S
C201 H228 0.931 . S
C202 C203 1.395 . S
C202 C204 1.320 . S
C203 C201 1.339 . S
C203 C202 1.395 . S
C203 H229 0.929 . S
C204 C202 1.320 . S
C204 C205 1.405 . S
C204 H230 0.930 . S
C205 C200 1.479 . S
C205 C204 1.405 . S
C205 H231 0.931 . S
U206 O207 2.454 . S
U206 O208 2.458 . S
U206 C209 2.984 . S
U206 C210 2.847 . S
U206 C223 2.882 . S
U206 O224 2.441 . S
U206 O225 2.420 . S
U206 O226 2.455 . S
U206 O227 2.449 . S
O207 U206 2.454 . S
O207 C209 1.353 . S
O208 U206 2.458 . S
O208 C209 1.286 . S
C209 U206 2.984 . S
C209 O207 1.353 . S
C209 O208 1.286 . S
C209 C211 1.363 . S
C210 C200 1.465 . S
C210 U206 2.847 . S
C210 O224 1.249 . S
C210 O225 1.202 . S
C211 C209 1.363 . S
C211 C213 1.408 . S
C211 C216 1.342 . S
C212 C213 1.310 . S
C212 C215 1.461 . S
C212 H232 0.932 . S
C213 C211 1.408 . S
C213 C212 1.310 . S
C213 H233 0.930 . S
C214 C215 1.474 . S
C214 C216 1.285 . S
C214 H234 0.929 . S
C215 C212 1.461 . S
C215 C214 1.474 . S
C216 C211 1.342 . S
C216 C214 1.285 . S
C216 H235 0.930 . S
C217 C220 1.424 . S
C217 C222 1.245 . S
C217 C223 1.428 . S
C218 C221 1.260 . S
C218 C222 1.477 . S
C218 H236 0.932 . S
C219 C220 1.384 . S
C219 C221 1.479 . S
C219 H237 0.929 . S
C220 C217 1.424 . S
C220 C219 1.384 . S
C220 H238 0.928 . S
C221 C218 1.260 . S
C221 C219 1.479 . S
C222 C217 1.245 . S
C222 C218 1.477 . S
C222 H239 0.932 . S
C223 U206 2.882 . S
C223 C217 1.428 . S
C223 O226 1.301 . S
C223 O227 1.282 . S
O224 U206 2.441 . S
O224 C210 1.249 . S
O225 U206 2.420 . S
O225 C210 1.202 . S
O226 U206 2.455 . S
O226 C223 1.301 . S
O227 U206 2.449 . S
O227 C223 1.282 . S
H228 C201 0.931 . S
H229 C203 0.929 . S
H230 C204 0.930 . S
H231 C205 0.931 . S
H232 C212 0.932 . S
H233 C213 0.930 . S
H234 C214 0.929 . S
H235 C216 0.930 . S
H236 C218 0.932 . S
H237 C219 0.929 . S
H238 C220 0.928 . S
H239 C222 0.932 . S
C240 C241 1.264 . S
C240 C245 1.479 . S
C240 C250 1.465 . S
C241 C240 1.264 . S
C241 C243 1.339 . S
C241 H268 0.931 . S
C242 C243 1.395 . S
C242 C244 1.320 . S
C243 C241 1.339 . S
C243 C242 1.395 . S
C243 H269 0.929 . S
C244 C242 1.320 . S
C244 C245 1.405 . S
C244 H270 0.930 . S
C245 C240 1.479 . S
C245 C244 1.405 . S
C245 H271 0.931 . S
U246 O247 2.454 . S
U246 O248 2.458 . S
U246 C249 2.984 . S
U246 C250 2.847 . S
U246 C263 2.882 . S
U246 O264 2.441 . S
U246 O265 2.420 . S
U246 O266 2.455 . S
U246 O267 2.449 . S
O247 U246 2.454 . S
O247 C249 1.353 . S
O248 U246 2.458 . S
O248 C249 1.286 . S
C249 U246 2.984 . S
C249 O247 1.353 . S
C249 O248 1.286 . S
C249 C251 1.363 . S
C250 C240 1.465 . S
C250 U246 2.847 . S
C250 O264 1.249 . S
C250 O265 1.202 . S
C251 C249 1.363 . S
C251 C253 1.408 . S
C251 C256 1.342 . S
C252 C253 1.310 . S
C252 C255 1.461 . S
C252 H272 0.932 . S
C253 C251 1.408 . S
C253 C252 1.310 . S
C253 H273 0.930 . S
C254 C255 1.474 . S
C254 C256 1.285 . S
C254 H274 0.929 . S
C255 C252 1.461 . S
C255 C254 1.474 . S
C256 C251 1.342 . S
C256 C254 1.285 . S
C256 H275 0.930 . S
C257 C260 1.424 . S
C257 C262 1.245 . S
C257 C263 1.428 . S
C258 C261 1.260 . S
C258 C262 1.477 . S
C258 H276 0.932 . S
C259 C260 1.384 . S
C259 C261 1.479 . S
C259 H277 0.929 . S
C260 C257 1.424 . S
C260 C259 1.384 . S
C260 H278 0.928 . S
C261 C258 1.260 . S
C261 C259 1.479 . S
C262 C257 1.245 . S
C262 C258 1.477 . S
C262 H279 0.932 . S
C263 U246 2.882 . S
C263 C257 1.428 . S
C263 O266 1.301 . S
C263 O267 1.282 . S
O264 U246 2.441 . S
O264 C250 1.249 . S
O265 U246 2.420 . S
O265 C250 1.202 . S
O266 U246 2.455 . S
O266 C263 1.301 . S
O267 U246 2.449 . S
O267 C263 1.282 . S
H268 C241 0.931 . S
H269 C243 0.929 . S
H270 C244 0.930 . S
H271 C245 0.931 . S
H272 C252 0.932 . S
H273 C253 0.930 . S
H274 C254 0.929 . S
H275 C256 0.930 . S
H276 C258 0.932 . S
H277 C259 0.929 . S
H278 C260 0.928 . S
H279 C262 0.932 . S
C280 C281 1.264 . S
C280 C285 1.479 . S
C280 C290 1.465 . S
C281 C280 1.264 . S
C281 C283 1.339 . S
C281 H308 0.931 . S
C282 C283 1.395 . S
C282 C284 1.320 . S
C283 C281 1.339 . S
C283 C282 1.395 . S
C283 H309 0.929 . S
C284 C282 1.320 . S
C284 C285 1.405 . S
C284 H310 0.930 . S
C285 C280 1.479 . S
C285 C284 1.405 . S
C285 H311 0.931 . S
U286 O287 2.454 . S
U286 O288 2.458 . S
U286 C289 2.984 . S
U286 C290 2.847 . S
U286 C303 2.882 . S
U286 O304 2.441 . S
U286 O305 2.420 . S
U286 O306 2.455 . S
U286 O307 2.449 . S
O287 U286 2.454 . S
O287 C289 1.353 . S
O288 U286 2.458 . S
O288 C289 1.286 . S
C289 U286 2.984 . S
C289 O287 1.353 . S
C289 O288 1.286 . S
C289 C291 1.363 . S
C290 C280 1.465 . S
C290 U286 2.847 . S
C290 O304 1.249 . S
C290 O305 1.202 . S
C291 C289 1.363 . S
C291 C293 1.408 . S
C291 C296 1.342 . S
C292 C293 1.310 . S
C292 C295 1.461 . S
C292 H312 0.932 . S
C293 C291 1.408 . S
C293 C292 1.310 . S
C293 H313 0.930 . S
C294 C295 1.474 . S
C294 C296 1.285 . S
C294 H314 0.929 . S
C295 C292 1.461 . S
C295 C294 1.474 . S
C296 C291 1.342 . S
C296 C294 1.285 . S
C296 H315 0.930 . S
C297 C300 1.424 . S
C297 C302 1.245 . S
C297 C303 1.428 . S
C298 C301 1.260 . S
C298 C302 1.477 . S
C298 H316 0.932 . S
C299 C300 1.384 . S
C299 C301 1.479 . S
C299 H317 0.929 . S
C300 C297 1.424 . S
C300 C299 1.384 . S
C300 H318 0.928 . S
C301 C298 1.260 . S
C301 C299 1.479 . S
C302 C297 1.245 . S
C302 C298 1.477 . S
C302 H319 0.932 . S
C303 U286 2.882 . S
C303 C297 1.428 . S
C303 O306 1.301 . S
C303 O307 1.282 . S
O304 U286 2.441 . S
O304 C290 1.249 . S
O305 U286 2.420 . S
O305 C290 1.202 . S
O306 U286 2.455 . S
O306 C303 1.301 . S
O307 U286 2.449 . S
O307 C303 1.282 . S
H308 C281 0.931 . S
H309 C283 0.929 . S
H310 C284 0.930 . S
H311 C285 0.931 . S
H312 C292 0.932 . S
H313 C293 0.930 . S
H314 C294 0.929 . S
H315 C296 0.930 . S
H316 C298 0.932 . S
H317 C299 0.929 . S
H318 C300 0.928 . S
H319 C302 0.932 . S
O320 Mg321 1.990 . S
O320 C334 1.253 1_445 S
Mg321 O320 1.990 . S
Mg321 O324 2.180 . S
Mg321 O325 2.117 . S
Mg321 O339 2.030 1_545 S
O322 Mg323 2.072 1_665 S
O322 C334 1.260 . S
Mg323 O322 2.072 1_445 S
Mg323 O324 2.099 . S
Mg323 O326 2.079 . S
Mg323 O327 2.072 1_455 S
Mg323 O329 2.099 1_445 S
Mg323 O340 2.079 1_545 S
O324 Mg321 2.180 . S
O324 Mg323 2.099 . S
O324 C335 1.279 . S
O325 Mg321 2.117 . S
O325 C335 1.250 . S
O326 Mg323 2.079 . S
O326 C336 1.264 . S
O327 Mg323 2.072 1_655 S
O327 C337 1.260 . S
Mg328 O329 2.180 . S
Mg328 O330 2.030 1_565 S
Mg328 O331 1.990 1_565 S
Mg328 O332 2.117 . S
O329 Mg323 2.099 1_665 S
O329 Mg328 2.180 . S
O329 C338 1.279 . S
O330 Mg328 2.030 1_545 S
O330 C336 1.248 1_655 S
O331 Mg328 1.990 1_545 S
O331 C337 1.253 . S
O332 Mg328 2.117 . S
O332 C338 1.250 . S
C333 O339 1.248 . S
C333 O340 1.264 . S
C334 O320 1.253 1_665 S
C334 O322 1.260 . S
C335 O324 1.279 . S
C335 O325 1.250 . S
C336 O326 1.264 . S
C336 O330 1.248 1_455 S
C337 O327 1.260 . S
C337 O331 1.253 . S
C338 O329 1.279 . S
C338 O332 1.250 . S
O339 Mg321 2.030 1_565 S
O339 C333 1.248 . S
O340 Mg323 2.079 1_565 S
O340 C333 1.264 . S
O341 Mg342 1.990 . S
O341 C355 1.253 . S
Mg342 O341 1.990 . S
Mg342 O345 2.180 . S
Mg342 O346 2.117 1_554 S
Mg342 O360 2.030 . S
O343 Mg344 2.072 . S
O343 C355 1.260 . S
Mg344 O343 2.072 . S
Mg344 O345 2.099 . S
Mg344 O347 2.079 1_554 S
Mg344 O348 2.072 1_554 S
Mg344 O350 2.099 1_545 S
Mg344 O361 2.079 . S
O345 Mg342 2.180 . S
O345 Mg344 2.099 . S
O345 C356 1.279 1_554 S
O346 Mg342 2.117 1_556 S
O346 C356 1.250 . S
O347 Mg344 2.079 1_556 S
O347 C357 1.264 1_545 S
O348 Mg344 2.072 1_556 S
O348 C358 1.260 1_545 S
Mg349 O350 2.180 1_556 S
Mg349 O351 2.030 . S
Mg349 O352 1.990 . S
Mg349 O353 2.117 1_556 S
O350 Mg344 2.099 1_565 S
O350 Mg349 2.180 1_554 S
O350 C359 1.279 . S
O351 Mg349 2.030 . S
O351 C357 1.248 . S
O352 Mg349 1.990 . S
O352 C358 1.253 . S
O353 Mg349 2.117 1_554 S
O353 C359 1.250 . S
C354 O360 1.248 . S
C354 O361 1.264 . S
C355 O341 1.253 . S
C355 O343 1.260 . S
C356 O345 1.279 1_556 S
C356 O346 1.250 . S
C357 O347 1.264 1_565 S
C357 O351 1.248 . S
C358 O348 1.260 1_565 S
C358 O352 1.253 . S
C359 O350 1.279 . S
C359 O353 1.250 . S
O360 Mg342 2.030 . S
O360 C354 1.248 . S
O361 Mg344 2.079 . S
O361 C354 1.264 . S
O362 Mg363 1.990 . S
O362 C376 1.253 . S
Mg363 O362 1.990 . S
Mg363 O366 2.180 . S
Mg363 O367 2.117 . S
Mg363 O381 2.030 . S
O364 Mg365 2.072 . S
O364 C376 1.260 . S
Mg365 O364 2.072 . S
Mg365 O366 2.099 . S
Mg365 O368 2.079 . S
Mg365 O369 2.072 . S
Mg365 O371 2.099 . S
Mg365 O382 2.079 . S
O366 Mg363 2.180 . S
O366 Mg365 2.099 . S
O366 C377 1.279 . S
O367 Mg363 2.117 . S
O367 C377 1.250 . S
O368 Mg365 2.079 . S
O368 C378 1.264 . S
O369 Mg365 2.072 . S
O369 C379 1.260 . S
Mg370 O371 2.180 . S
Mg370 O372 2.030 . S
Mg370 O373 1.990 . S
Mg370 O374 2.117 . S
O371 Mg365 2.099 . S
O371 Mg370 2.180 . S
O371 C380 1.279 . S
O372 Mg370 2.030 . S
O372 C378 1.248 . S
O373 Mg370 1.990 . S
O373 C379 1.253 . S
O374 Mg370 2.117 . S
O374 C380 1.250 . S
C375 O381 1.248 . S
C375 O382 1.264 . S
C376 O362 1.253 . S
C376 O364 1.260 . S
C377 O366 1.279 . S
C377 O367 1.250 . S
C378 O368 1.264 . S
C378 O372 1.248 . S
C379 O369 1.260 . S
C379 O373 1.253 . S
C380 O371 1.279 . S
C380 O374 1.250 . S
O381 Mg363 2.030 . S
O381 C375 1.248 . S
O382 Mg365 2.079 . S
O382 C375 1.264 . S
O383 Mg384 1.990 . S
O383 C397 1.253 . S
Mg384 O383 1.990 . S
Mg384 O387 2.180 1_455 S
Mg384 O388 2.117 1_455 S
Mg384 O402 2.030 . S
O385 Mg386 2.072 . S
O385 C397 1.260 . S
Mg386 O385 2.072 . S
Mg386 O387 2.099 1_455 S
Mg386 O389 2.079 1_454 S
Mg386 O390 2.072 1_455 S
Mg386 O392 2.099 1_554 S
Mg386 O403 2.079 . S
O387 Mg384 2.180 1_655 S
O387 Mg386 2.099 1_655 S
O387 C398 1.279 . S
O388 Mg384 2.117 1_655 S
O388 C398 1.250 . S
O389 Mg386 2.079 1_656 S
O389 C399 1.264 . S
O390 Mg386 2.072 1_655 S
O390 C400 1.260 1_554 S
Mg391 O392 2.180 1_655 S
Mg391 O393 2.030 . S
Mg391 O394 1.990 . S
Mg391 O395 2.117 . S
O392 Mg386 2.099 1_556 S
O392 Mg391 2.180 1_455 S
O392 C401 1.279 . S
O393 Mg391 2.030 . S
O393 C399 1.248 . S
O394 Mg391 1.990 . S
O394 C400 1.253 . S
O395 Mg391 2.117 . S
O395 C401 1.250 1_655 S
C396 O402 1.248 . S
C396 O403 1.264 . S
C397 O383 1.253 . S
C397 O385 1.260 . S
C398 O387 1.279 . S
C398 O388 1.250 . S
C399 O389 1.264 . S
C399 O393 1.248 . S
C400 O390 1.260 1_556 S
C400 O394 1.253 . S
C401 O392 1.279 . S
C401 O395 1.250 1_455 S
O402 Mg384 2.030 . S
O402 C396 1.248 . S
O403 Mg386 2.079 . S
O403 C396 1.264 . S
H404 C412 0.950 . S
H405 C417 0.950 . S
H406 C414 0.950 . S
H407 C416 0.950 . S
H408 C418 0.950 1_655 S
H409 C420 0.950 . S
H410 C422 0.950 . S
H411 C423 0.950 . S
C412 H404 0.950 . S
C412 C413 1.386 . S
C412 C414 1.391 . S
C413 C412 1.386 . S
C413 C417 1.393 . S
C414 H406 0.950 . S
C414 C412 1.391 . S
C414 C415 1.400 . S
C415 C414 1.400 . S
C415 C416 1.398 . S
C415 C421 1.491 . S
C416 H407 0.950 . S
C416 C415 1.398 . S
C416 C417 1.391 . S
C417 H405 0.950 . S
C417 C413 1.393 . S
C417 C416 1.391 . S
C418 H408 0.950 1_455 S
C418 C419 1.386 . S
C418 C420 1.391 . S
C419 C418 1.386 . S
C419 C423 1.393 . S
C420 H409 0.950 . S
C420 C418 1.391 . S
C420 C421 1.400 . S
C421 C415 1.491 . S
C421 C420 1.400 . S
C421 C422 1.398 . S
C422 H410 0.950 . S
C422 C421 1.398 . S
C422 C423 1.391 . S
C423 H411 0.950 . S
C423 C419 1.393 . S
C423 C422 1.391 . S
H424 C432 0.950 . S
H425 C437 0.950 . S
H426 C434 0.950 . S
H427 C436 0.950 . S
H428 C438 0.950 . S
H429 C440 0.950 . S
H430 C442 0.950 . S
H431 C443 0.950 . S
C432 H424 0.950 . S
C432 C433 1.386 . S
C432 C434 1.391 . S
C433 C432 1.386 . S
C433 C437 1.393 . S
C434 H426 0.950 . S
C434 C432 1.391 . S
C434 C435 1.400 . S
C435 C434 1.400 . S
C435 C436 1.398 . S
C435 C441 1.491 . S
C436 H427 0.950 . S
C436 C435 1.398 . S
C436 C437 1.391 . S
C437 H425 0.950 . S
C437 C433 1.393 . S
C437 C436 1.391 . S
C438 H428 0.950 . S
C438 C439 1.386 . S
C438 C440 1.391 . S
C439 C438 1.386 . S
C439 C443 1.393 . S
C440 H429 0.950 . S
C440 C438 1.391 . S
C440 C441 1.400 . S
C441 C435 1.491 . S
C441 C440 1.400 . S
C441 C442 1.398 . S
C442 H430 0.950 . S
C442 C441 1.398 . S
C442 C443 1.391 . S
C443 H431 0.950 . S
C443 C439 1.393 . S
C443 C442 1.391 . S
H444 C452 0.950 . S
H445 C457 0.950 . S
H446 C454 0.950 . S
H447 C456 0.950 . S
H448 C458 0.950 . S
H449 C460 0.950 . S
H450 C462 0.950 . S
H451 C463 0.950 . S
C452 H444 0.950 . S
C452 C453 1.386 . S
C452 C454 1.391 . S
C453 C452 1.386 . S
C453 C457 1.393 . S
C454 H446 0.950 . S
C454 C452 1.391 . S
C454 C455 1.400 . S
C455 C454 1.400 . S
C455 C456 1.398 . S
C455 C461 1.491 . S
C456 H447 0.950 . S
C456 C455 1.398 . S
C456 C457 1.391 . S
C457 H445 0.950 . S
C457 C453 1.393 . S
C457 C456 1.391 . S
C458 H448 0.950 . S
C458 C459 1.386 . S
C458 C460 1.391 . S
C459 C458 1.386 . S
C459 C463 1.393 . S
C460 H449 0.950 . S
C460 C458 1.391 . S
C460 C461 1.400 . S
C461 C455 1.491 . S
C461 C460 1.400 . S
C461 C462 1.398 . S
C462 H450 0.950 . S
C462 C461 1.398 . S
C462 C463 1.391 . S
C463 H451 0.950 . S
C463 C459 1.393 . S
C463 C462 1.391 . S
H464 C472 0.950 . S
H465 C477 0.950 . S
H466 C474 0.950 . S
H467 C476 0.950 . S
H468 C478 0.950 . S
H469 C480 0.950 . S
H470 C482 0.950 . S
H471 C483 0.950 . S
C472 H464 0.950 . S
C472 C473 1.386 . S
C472 C474 1.391 . S
C473 C472 1.386 . S
C473 C477 1.393 . S
C474 H466 0.950 . S
C474 C472 1.391 . S
C474 C475 1.400 . S
C475 C474 1.400 . S
C475 C476 1.398 . S
C475 C481 1.491 . S
C476 H467 0.950 . S
C476 C475 1.398 . S
C476 C477 1.391 . S
C477 H465 0.950 . S
C477 C473 1.393 . S
C477 C476 1.391 . S
C478 H468 0.950 . S
C478 C479 1.386 . S
C478 C480 1.391 . S
C479 C478 1.386 . S
C479 C483 1.393 . S
C480 H469 0.950 . S
C480 C478 1.391 . S
C480 C481 1.400 . S
C481 C475 1.491 . S
C481 C480 1.400 . S
C481 C482 1.398 . S
C482 H470 0.950 . S
C482 C481 1.398 . S
C482 C483 1.391 . S
C483 H471 0.950 . S
C483 C479 1.393 . S
C483 C482 1.391 . S
H484 C492 0.950 . S
H485 C497 0.950 . S
H486 C494 0.950 . S
H487 C496 0.950 . S
H488 C498 0.950 . S
H489 C500 0.950 . S
H490 C502 0.950 . S
H491 C503 0.950 1_556 S
C492 H484 0.950 . S
C492 C493 1.386 . S
C492 C494 1.391 . S
C493 C492 1.386 . S
C493 C497 1.393 . S
C494 H486 0.950 . S
C494 C492 1.391 . S
C494 C495 1.400 . S
C495 C494 1.400 . S
C495 C496 1.398 . S
C495 C501 1.491 . S
C496 H487 0.950 . S
C496 C495 1.398 . S
C496 C497 1.391 . S
C497 H485 0.950 . S
C497 C493 1.393 . S
C497 C496 1.391 . S
C498 H488 0.950 . S
C498 C499 1.386 . S
C498 C500 1.391 . S
C499 C498 1.386 . S
C499 C503 1.393 . S
C500 H489 0.950 . S
C500 C498 1.391 . S
C500 C501 1.400 . S
C501 C495 1.491 . S
C501 C500 1.400 . S
C501 C502 1.398 . S
C502 H490 0.950 . S
C502 C501 1.398 . S
C502 C503 1.391 . S
C503 H491 0.950 1_554 S
C503 C499 1.393 . S
C503 C502 1.391 . S
H504 C512 0.950 . S
H505 C517 0.950 . S
H506 C514 0.950 . S
H507 C516 0.950 . S
H508 C518 0.950 . S
H509 C520 0.950 . S
H510 C522 0.950 1_545 S
H511 C523 0.950 1_545 S
C512 H504 0.950 . S
C512 C513 1.386 . S
C512 C514 1.391 . S
C513 C512 1.386 . S
C513 C517 1.393 . S
C514 H506 0.950 . S
C514 C512 1.391 . S
C514 C515 1.400 . S
C515 C514 1.400 . S
C515 C516 1.398 . S
C515 C521 1.491 . S
C516 H507 0.950 . S
C516 C515 1.398 . S
C516 C517 1.391 . S
C517 H505 0.950 . S
C517 C513 1.393 . S
C517 C516 1.391 . S
C518 H508 0.950 . S
C518 C519 1.386 . S
C518 C520 1.391 . S
C519 C518 1.386 . S
C519 C523 1.393 . S
C520 H509 0.950 . S
C520 C518 1.391 . S
C520 C521 1.400 . S
C521 C515 1.491 . S
C521 C520 1.400 . S
C521 C522 1.398 . S
C522 H510 0.950 1_565 S
C522 C521 1.398 . S
C522 C523 1.391 . S
C523 H511 0.950 1_565 S
C523 C519 1.393 . S
C523 C522 1.391 . S
H524 C532 0.950 . S
H525 C537 0.950 . S
H526 C534 0.950 . S
H527 C536 0.950 . S
H528 C538 0.927 1_554 S
H529 C540 0.932 1_554 S
H530 C542 0.950 . S
H531 C543 0.950 . S
C532 H524 0.950 . S
C532 C533 1.386 . S
C532 C534 1.391 . S
C533 C532 1.386 . S
C533 C537 1.393 . S
C534 H526 0.950 . S
C534 C532 1.391 . S
C534 C535 1.400 . S
C535 C534 1.400 . S
C535 C536 1.398 . S
C535 C541 1.491 . S
C536 H527 0.950 . S
C536 C535 1.398 . S
C536 C537 1.391 . S
C537 H525 0.950 . S
C537 C533 1.393 . S
C537 C536 1.391 . S
C538 H528 0.927 1_556 S
C538 C539 1.401 . S
C538 C540 1.399 . S
C539 C538 1.401 . S
C539 C543 1.393 . S
C540 H529 0.932 1_556 S
C540 C538 1.399 . S
C540 C541 1.400 . S
C541 C535 1.491 . S
C541 C540 1.400 . S
C541 C542 1.398 . S
C542 H530 0.950 . S
C542 C541 1.398 . S
C542 C543 1.391 . S
C543 H531 0.950 . S
C543 C539 1.393 . S
C543 C542 1.391 . S
H544 C552 0.950 . S
H545 C557 0.950 . S
H546 C554 0.950 . S
H547 C556 0.950 . S
H548 C558 0.950 . S
H549 C560 0.950 . S
H550 C562 0.950 . S
H551 C563 0.950 . S
C552 H544 0.950 . S
C552 C553 1.386 . S
C552 C554 1.391 . S
C553 C552 1.386 . S
C553 C557 1.393 . S
C554 H546 0.950 . S
C554 C552 1.391 . S
C554 C555 1.400 . S
C555 C554 1.400 . S
C555 C556 1.398 . S
C555 C561 1.491 . S
C556 H547 0.950 . S
C556 C555 1.398 . S
C556 C557 1.391 . S
C557 H545 0.950 . S
C557 C553 1.393 . S
C557 C556 1.391 . S
C558 H548 0.950 . S
C558 C559 1.386 . S
C558 C560 1.391 . S
C559 C558 1.386 . S
C559 C563 1.393 . S
C560 H549 0.950 . S
C560 C558 1.391 . S
C560 C561 1.400 . S
C561 C555 1.491 . S
C561 C560 1.400 . S
C561 C562 1.398 . S
C562 H550 0.950 . S
C562 C561 1.398 . S
C562 C563 1.391 . S
C563 H551 0.950 . S
C563 C559 1.393 . S
C563 C562 1.391 . S
H564 C572 0.950 . S
H565 C577 0.950 . S
H566 C574 0.950 . S
H567 C576 0.950 . S
H568 C578 0.950 1_655 S
H569 C580 0.950 . S
H570 C582 0.950 . S
H571 C583 0.950 . S
C572 H564 0.950 . S
C572 C573 1.386 . S
C572 C574 1.391 . S
C573 C572 1.386 . S
C573 C577 1.393 . S
C574 H566 0.950 . S
C574 C572 1.391 . S
C574 C575 1.400 . S
C575 C574 1.400 . S
C575 C576 1.398 . S
C575 C581 1.491 . S
C576 H567 0.950 . S
C576 C575 1.398 . S
C576 C577 1.391 . S
C577 H565 0.950 . S
C577 C573 1.393 . S
C577 C576 1.391 . S
C578 H568 0.950 1_455 S
C578 C579 1.386 . S
C578 C580 1.391 . S
C579 C578 1.386 . S
C579 C583 1.393 . S
C580 H569 0.950 . S
C580 C578 1.391 . S
C580 C581 1.400 . S
C581 C575 1.491 . S
C581 C580 1.400 . S
C581 C582 1.398 . S
C582 H570 0.950 . S
C582 C581 1.398 . S
C582 C583 1.391 . S
C583 H571 0.950 . S
C583 C579 1.393 . S
C583 C582 1.391 . S
H584 C592 0.950 . S
H585 C597 0.950 . S
H586 C594 0.950 . S
H587 C596 0.950 . S
H588 C598 0.950 . S
H589 C600 0.950 . S
H590 C602 0.950 . S
H591 C603 0.950 . S
C592 H584 0.950 . S
C592 C593 1.386 . S
C592 C594 1.391 . S
C593 C592 1.386 . S
C593 C597 1.393 . S
C594 H586 0.950 . S
C594 C592 1.391 . S
C594 C595 1.400 . S
C595 C594 1.400 . S
C595 C596 1.398 . S
C595 C601 1.491 . S
C596 H587 0.950 . S
C596 C595 1.398 . S
C596 C597 1.391 . S
C597 H585 0.950 . S
C597 C593 1.393 . S
C597 C596 1.391 . S
C598 H588 0.950 . S
C598 C599 1.386 . S
C598 C600 1.391 . S
C599 C598 1.386 . S
C599 C603 1.393 . S
C600 H589 0.950 . S
C600 C598 1.391 . S
C600 C601 1.400 . S
C601 C595 1.491 . S
C601 C600 1.400 . S
C601 C602 1.398 . S
C602 H590 0.950 . S
C602 C601 1.398 . S
C602 C603 1.391 . S
C603 H591 0.950 . S
C603 C599 1.393 . S
C603 C602 1.391 . S
H604 C612 0.950 . S
H605 C617 0.950 . S
H606 C614 0.950 . S
H607 C616 0.950 . S
H608 C618 0.950 . S
H609 C620 0.950 . S
H610 C622 0.950 . S
H611 C623 0.950 1_455 S
C612 H604 0.950 . S
C612 C613 1.386 . S
C612 C614 1.391 . S
C613 C612 1.386 . S
C613 C617 1.393 . S
C614 H606 0.950 . S
C614 C612 1.391 . S
C614 C615 1.400 . S
C615 C614 1.400 . S
C615 C616 1.398 . S
C615 C621 1.491 . S
C616 H607 0.950 . S
C616 C615 1.398 . S
C616 C617 1.391 . S
C617 H605 0.950 . S
C617 C613 1.393 . S
C617 C616 1.391 . S
C618 H608 0.950 . S
C618 C619 1.386 . S
C618 C620 1.391 . S
C619 C618 1.386 . S
C619 C623 1.393 . S
C620 H609 0.950 . S
C620 C618 1.391 . S
C620 C621 1.400 . S
C621 C615 1.491 . S
C621 C620 1.400 . S
C621 C622 1.398 . S
C622 H610 0.950 . S
C622 C621 1.398 . S
C622 C623 1.391 . S
C623 H611 0.950 1_655 S
C623 C619 1.393 . S
C623 C622 1.391 . S
H624 C632 0.950 . S
H625 C637 0.950 . S
H626 C634 0.950 . S
H627 C636 0.950 . S
H628 C638 0.950 . S
H629 C640 0.950 . S
H630 C642 0.950 . S
H631 C643 0.950 . S
C632 H624 0.950 . S
C632 C633 1.386 . S
C632 C634 1.391 . S
C633 C632 1.386 . S
C633 C637 1.393 . S
C634 H626 0.950 . S
C634 C632 1.391 . S
C634 C635 1.400 . S
C635 C634 1.400 . S
C635 C636 1.398 . S
C635 C641 1.491 . S
C636 H627 0.950 . S
C636 C635 1.398 . S
C636 C637 1.391 . S
C637 H625 0.950 . S
C637 C633 1.393 . S
C637 C636 1.391 . S
C638 H628 0.950 . S
C638 C639 1.386 . S
C638 C640 1.391 . S
C639 C638 1.386 . S
C639 C643 1.393 . S
C640 H629 0.950 . S
C640 C638 1.391 . S
C640 C641 1.400 . S
C641 C635 1.491 . S
C641 C640 1.400 . S
C641 C642 1.398 . S
C642 H630 0.950 . S
C642 C641 1.398 . S
C642 C643 1.391 . S
C643 H631 0.950 . S
C643 C639 1.393 . S
C643 C642 1.391 . S
H644 C652 0.950 . S
H645 C657 0.950 . S
H646 C654 0.950 . S
H647 C656 0.950 . S
H648 C658 0.950 1_545 S
H649 C660 0.950 1_545 S
H650 C662 0.950 . S
H651 C663 0.950 . S
C652 H644 0.950 . S
C652 C653 1.386 . S
C652 C654 1.391 . S
C653 C652 1.386 . S
C653 C657 1.393 . S
C654 H646 0.950 . S
C654 C652 1.391 . S
C654 C655 1.400 . S
C655 C654 1.400 . S
C655 C656 1.398 . S
C655 C661 1.491 . S
C656 H647 0.950 . S
C656 C655 1.398 . S
C656 C657 1.391 . S
C657 H645 0.950 . S
C657 C653 1.393 . S
C657 C656 1.391 . S
C658 H648 0.950 1_565 S
C658 C659 1.386 . S
C658 C660 1.391 . S
C659 C658 1.386 . S
C659 C663 1.393 . S
C660 H649 0.950 1_565 S
C660 C658 1.391 . S
C660 C661 1.400 . S
C661 C655 1.491 . S
C661 C660 1.400 . S
C661 C662 1.398 . S
C662 H650 0.950 . S
C662 C661 1.398 . S
C662 C663 1.391 . S
C663 H651 0.950 . S
C663 C659 1.393 . S
C663 C662 1.391 . S
H664 C672 0.950 . S
H665 C677 0.950 . S
H666 C674 0.950 . S
H667 C676 0.950 . S
H668 C678 0.950 . S
H669 C680 0.950 . S
H670 C682 0.950 . S
H671 C683 0.950 . S
C672 H664 0.950 . S
C672 C673 1.386 . S
C672 C674 1.391 . S
C673 C672 1.386 . S
C673 C677 1.393 . S
C674 H666 0.950 . S
C674 C672 1.391 . S
C674 C675 1.400 . S
C675 C674 1.400 . S
C675 C676 1.398 . S
C675 C681 1.491 . S
C676 H667 0.950 . S
C676 C675 1.398 . S
C676 C677 1.391 . S
C677 H665 0.950 . S
C677 C673 1.393 . S
C677 C676 1.391 . S
C678 H668 0.950 . S
C678 C679 1.386 . S
C678 C680 1.391 . S
C679 C678 1.386 . S
C679 C683 1.393 . S
C680 H669 0.950 . S
C680 C678 1.391 . S
C680 C681 1.400 . S
C681 C675 1.491 . S
C681 C680 1.400 . S
C681 C682 1.398 . S
C682 H670 0.950 . S
C682 C681 1.398 . S
C682 C683 1.391 . S
C683 H671 0.950 . S
C683 C679 1.393 . S
C683 C682 1.391 . S
H684 C692 0.950 . S
H685 C697 0.950 . S
H686 C694 0.950 . S
H687 C696 0.950 . S
H688 C698 0.950 . S
H689 C700 0.950 . S
H690 C702 0.950 . S
H691 C703 0.950 . S
C692 H684 0.950 . S
C692 C693 1.386 . S
C692 C694 1.391 . S
C693 C692 1.386 . S
C693 C697 1.393 . S
C694 H686 0.950 . S
C694 C692 1.391 . S
C694 C695 1.400 . S
C695 C694 1.400 . S
C695 C696 1.398 . S
C695 C701 1.491 . S
C696 H687 0.950 . S
C696 C695 1.398 . S
C696 C697 1.391 . S
C697 H685 0.950 . S
C697 C693 1.393 . S
C697 C696 1.391 . S
C698 H688 0.950 . S
C698 C699 1.386 . S
C698 C700 1.391 . S
C699 C698 1.386 . S
C699 C703 1.393 . S
C700 H689 0.950 . S
C700 C698 1.391 . S
C700 C701 1.400 . S
C701 C695 1.491 . S
C701 C700 1.400 . S
C701 C702 1.398 . S
C702 H690 0.950 . S
C702 C701 1.398 . S
C702 C703 1.391 . S
C703 H691 0.950 . S
C703 C699 1.393 . S
C703 C702 1.391 . S
H704 C712 0.950 . S
H705 C717 0.950 . S
H706 C714 0.950 . S
H707 C716 0.950 . S
H708 C718 0.950 . S
H709 C720 0.950 . S
H710 C722 0.950 . S
H711 C723 0.950 . S
C712 H704 0.950 . S
C712 C713 1.386 . S
C712 C714 1.391 . S
C713 C712 1.386 . S
C713 C717 1.393 . S
C714 H706 0.950 . S
C714 C712 1.391 . S
C714 C715 1.400 . S
C715 C714 1.400 . S
C715 C716 1.398 . S
C715 C721 1.491 . S
C716 H707 0.950 . S
C716 C715 1.398 . S
C716 C717 1.391 . S
C717 H705 0.950 . S
C717 C713 1.393 . S
C717 C716 1.391 . S
C718 H708 0.950 . S
C718 C719 1.386 . S
C718 C720 1.391 . S
C719 C718 1.386 . S
C719 C723 1.393 . S
C720 H709 0.950 . S
C720 C718 1.391 . S
C720 C721 1.400 . S
C721 C715 1.491 . S
C721 C720 1.400 . S
C721 C722 1.398 . S
C722 H710 0.950 . S
C722 C721 1.398 . S
C722 C723 1.391 . S
C723 H711 0.950 . S
C723 C719 1.393 . S
C723 C722 1.391 . S
H724 C732 0.950 . S
H725 C737 0.950 . S
H726 C734 0.950 . S
H727 C736 0.950 . S
H728 C738 0.950 1_554 S
H729 C740 0.950 1_554 S
H730 C742 0.950 . S
H731 C743 0.950 . S
C732 H724 0.950 . S
C732 C733 1.386 . S
C732 C734 1.391 . S
C733 C732 1.386 . S
C733 C737 1.393 . S
C734 H726 0.950 . S
C734 C732 1.391 . S
C734 C735 1.400 . S
C735 C734 1.400 . S
C735 C736 1.398 . S
C735 C741 1.491 . S
C736 H727 0.950 . S
C736 C735 1.398 . S
C736 C737 1.391 . S
C737 H725 0.950 . S
C737 C733 1.393 . S
C737 C736 1.391 . S
C738 H728 0.950 1_556 S
C738 C739 1.386 . S
C738 C740 1.391 . S
C739 C738 1.386 . S
C739 C743 1.393 . S
C740 H729 0.950 1_556 S
C740 C738 1.391 . S
C740 C741 1.400 . S
C741 C735 1.491 . S
C741 C740 1.400 . S
C741 C742 1.398 . S
C742 H730 0.950 . S
C742 C741 1.398 . S
C742 C743 1.391 . S
C743 H731 0.950 . S
C743 C739 1.393 . S
C743 C742 1.391 . S
H744 C752 0.950 . S
H745 C757 0.950 . S
H746 C754 0.950 . S
H747 C756 0.950 . S
H748 C758 0.950 . S
H749 C760 0.950 . S
H750 C762 0.950 . S
H751 C763 0.950 . S
C752 H744 0.950 . S
C752 C753 1.386 . S
C752 C754 1.391 . S
C753 C752 1.386 . S
C753 C757 1.393 . S
C754 H746 0.950 . S
C754 C752 1.391 . S
C754 C755 1.400 . S
C755 C754 1.400 . S
C755 C756 1.398 . S
C755 C761 1.491 . S
C756 H747 0.950 . S
C756 C755 1.398 . S
C756 C757 1.391 . S
C757 H745 0.950 . S
C757 C753 1.393 . S
C757 C756 1.391 . S
C758 H748 0.950 . S
C758 C759 1.386 . S
C758 C760 1.391 . S
C759 C758 1.386 . S
C759 C763 1.393 . S
C760 H749 0.950 . S
C760 C758 1.391 . S
C760 C761 1.400 . S
C761 C755 1.491 . S
C761 C760 1.400 . S
C761 C762 1.398 . S
C762 H750 0.950 . S
C762 C761 1.398 . S
C762 C763 1.391 . S
C763 H751 0.950 . S
C763 C759 1.393 . S
C763 C762 1.391 . S
H764 C772 0.950 . S
H765 C777 0.950 . S
H766 C774 0.950 . S
H767 C776 0.950 . S
H768 C778 0.950 1_556 S
H769 C780 0.950 . S
H770 C782 0.950 . S
H771 C783 0.950 . S
C772 H764 0.950 . S
C772 C773 1.386 . S
C772 C774 1.391 . S
C773 C772 1.386 . S
C773 C777 1.393 . S
C774 H766 0.950 . S
C774 C772 1.391 . S
C774 C775 1.400 . S
C775 C774 1.400 . S
C775 C776 1.398 . S
C775 C781 1.491 . S
C776 H767 0.950 . S
C776 C775 1.398 . S
C776 C777 1.391 . S
C777 H765 0.950 . S
C777 C773 1.393 . S
C777 C776 1.391 . S
C778 H768 0.950 1_554 S
C778 C779 1.386 . S
C778 C780 1.391 . S
C779 C778 1.386 . S
C779 C783 1.393 . S
C780 H769 0.950 . S
C780 C778 1.391 . S
C780 C781 1.400 . S
C781 C775 1.491 . S
C781 C780 1.400 . S
C781 C782 1.398 . S
C782 H770 0.950 . S
C782 C781 1.398 . S
C782 C783 1.391 . S
C783 H771 0.950 . S
C783 C779 1.393 . S
C783 C782 1.391 . S
H784 C792 0.950 . S
H785 C797 0.950 . S
H786 C794 0.950 . S
H787 C796 0.950 . S
H788 C798 0.950 . S
H789 C800 0.950 . S
H790 C802 0.950 . S
H791 C803 0.950 . S
C792 H784 0.950 . S
C792 C793 1.386 . S
C792 C794 1.391 . S
C793 C792 1.386 . S
C793 C797 1.393 . S
C794 H786 0.950 . S
C794 C792 1.391 . S
C794 C795 1.400 . S
C795 C794 1.400 . S
C795 C796 1.398 . S
C795 C801 1.491 . S
C796 H787 0.950 . S
C796 C795 1.398 . S
C796 C797 1.391 . S
C797 H785 0.950 . S
C797 C793 1.393 . S
C797 C796 1.391 . S
C798 H788 0.950 . S
C798 C799 1.386 . S
C798 C800 1.391 . S
C799 C798 1.386 . S
C799 C803 1.393 . S
C800 H789 0.950 . S
C800 C798 1.391 . S
C800 C801 1.400 . S
C801 C795 1.491 . S
C801 C800 1.400 . S
C801 C802 1.398 . S
C802 H790 0.950 . S
C802 C801 1.398 . S
C802 C803 1.391 . S
C803 H791 0.950 . S
C803 C799 1.393 . S
C803 C802 1.391 . S
H804 C812 0.950 . S
H805 C817 0.950 . S
H806 C814 0.950 . S
H807 C816 0.950 . S
H808 C818 0.950 . S
H809 C820 0.950 . S
H810 C822 0.950 1_554 S
H811 C823 0.910 1_554 S
C812 H804 0.950 . S
C812 C813 1.386 . S
C812 C814 1.391 . S
C813 C812 1.386 . S
C813 C817 1.393 . S
C814 H806 0.950 . S
C814 C812 1.391 . S
C814 C815 1.400 . S
C815 C814 1.400 . S
C815 C816 1.398 . S
C815 C821 1.491 . S
C816 H807 0.950 . S
C816 C815 1.398 . S
C816 C817 1.391 . S
C817 H805 0.950 . S
C817 C813 1.393 . S
C817 C816 1.391 . S
C818 H808 0.950 . S
C818 C819 1.386 . S
C818 C820 1.391 . S
C819 C818 1.386 . S
C819 C823 1.422 . S
C820 H809 0.950 . S
C820 C818 1.391 . S
C820 C821 1.400 . S
C821 C815 1.491 . S
C821 C820 1.400 . S
C821 C822 1.398 . S
C822 H810 0.950 1_556 S
C822 C821 1.398 . S
C822 C823 1.403 . S
C823 H811 0.910 1_556 S
C823 C819 1.422 . S
C823 C822 1.403 . S
H824 C832 0.950 . S
H825 C837 0.950 . S
H826 C834 0.950 . S
H827 C836 0.950 . S
H828 C838 0.950 . S
H829 C840 0.950 . S
H830 C842 0.950 . S
H831 C843 0.938 1_556 S
C832 H824 0.950 . S
C832 C833 1.386 . S
C832 C834 1.391 . S
C833 C832 1.386 . S
C833 C837 1.393 . S
C834 H826 0.950 . S
C834 C832 1.391 . S
C834 C835 1.400 . S
C835 C834 1.400 . S
C835 C836 1.398 . S
C835 C841 1.491 . S
C836 H827 0.950 . S
C836 C835 1.398 . S
C836 C837 1.391 . S
C837 H825 0.950 . S
C837 C833 1.393 . S
C837 C836 1.391 . S
C838 H828 0.950 . S
C838 C839 1.386 . S
C838 C840 1.391 . S
C839 C838 1.386 . S
C839 C843 1.393 . S
C840 H829 0.950 . S
C840 C838 1.391 . S
C840 C841 1.400 . S
C841 C835 1.491 . S
C841 C840 1.400 . S
C841 C842 1.398 . S
C842 H830 0.950 . S
C842 C841 1.398 . S
C842 C843 1.391 . S
C843 H831 0.938 1_554 S
C843 C839 1.393 . S
C843 C842 1.391 . S
H844 C852 0.950 . S
H845 C857 0.950 . S
H846 C854 0.950 . S
H847 C856 0.950 . S
H848 C858 0.950 1_655 S
H849 C860 0.950 1_655 S
H850 C862 0.950 . S
H851 C863 0.950 . S
C852 H844 0.950 . S
C852 C853 1.386 . S
C852 C854 1.391 . S
C853 C852 1.386 . S
C853 C857 1.393 . S
C854 H846 0.950 . S
C854 C852 1.391 . S
C854 C855 1.400 . S
C855 C854 1.400 . S
C855 C856 1.398 . S
C855 C861 1.491 . S
C856 H847 0.950 . S
C856 C855 1.398 . S
C856 C857 1.391 . S
C857 H845 0.950 . S
C857 C853 1.393 . S
C857 C856 1.391 . S
C858 H848 0.950 1_455 S
C858 C859 1.386 . S
C858 C860 1.391 . S
C859 C858 1.386 . S
C859 C863 1.393 . S
C860 H849 0.950 1_455 S
C860 C858 1.391 . S
C860 C861 1.400 . S
C861 C855 1.491 . S
C861 C860 1.400 . S
C861 C862 1.398 . S
C862 H850 0.950 . S
C862 C861 1.398 . S
C862 C863 1.391 . S
C863 H851 0.950 . S
C863 C859 1.393 . S
C863 C862 1.391 . S
H864 C872 0.950 . S
H865 C877 0.950 . S
H866 C874 0.950 . S
H867 C876 0.950 . S
H868 C878 0.950 . S
H869 C880 0.950 . S
H870 C882 0.950 . S
H871 C883 0.950 . S
C872 H864 0.950 . S
C872 C873 1.386 . S
C872 C874 1.391 . S
C873 C872 1.386 . S
C873 C877 1.393 . S
C874 H866 0.950 . S
C874 C872 1.391 . S
C874 C875 1.400 . S
C875 C874 1.400 . S
C875 C876 1.398 . S
C875 C881 1.491 . S
C876 H867 0.950 . S
C876 C875 1.398 . S
C876 C877 1.391 . S
C877 H865 0.950 . S
C877 C873 1.393 . S
C877 C876 1.391 . S
C878 H868 0.950 . S
C878 C879 1.386 . S
C878 C880 1.391 . S
C879 C878 1.386 . S
C879 C883 1.393 . S
C880 H869 0.950 . S
C880 C878 1.391 . S
C880 C881 1.400 . S
C881 C875 1.491 . S
C881 C880 1.400 . S
C881 C882 1.398 . S
C882 H870 0.950 . S
C882 C881 1.398 . S
C882 C883 1.391 . S
C883 H871 0.950 . S
C883 C879 1.393 . S
C883 C882 1.391 . S
C413 C21 1.671 . S
C419 C336 1.611 . S
C433 C61 1.495 . S
C439 C358 1.506 . S
C459 C377 1.158 . S
C453 C82 1.417 . S
C473 C135 1.888 . S
C479 C398 1.513 . S
C499 C355 1.814 . S
C493 C15 1.854 . S
C519 C333 1.719 . S
C513 C42 1.729 . S
C539 C400 1.310 . S
C533 C101 1.371 . S
C559 C379 1.457 . S
C553 C122 1.509 . S
C573 C2 1.822 . S
C579 C397 1.760 . S
C599 C356 1.250 . S
C593 C95 1.579 . S
C613 C141 1.767 . S
C619 C338 1.618 . S
C633 C55 1.529 . S
C639 C376 1.534 . S
C659 C334 1.619 . S
C653 C181 1.655 . S
C673 C202 1.289 . S
C679 C354 1.306 . S
C693 C255 1.492 . S
C699 C380 1.262 . S
C713 C295 1.772 . S
C719 C401 1.405 . S
C733 C175 1.771 . S
C739 C357 1.760 . S
C759 C337 1.804 . S
C753 C221 1.816 . S
C779 C396 1.122 . S
C773 C242 1.164 . S
C799 C375 1.610 . S
C793 C301 1.659 . S
C813 C162 1.526 . S
C819 C399 1.547 . S
C839 C359 1.231 . S
C833 C261 1.460 . S
C859 C335 1.396 . S
C853 C282 1.534 . S
C873 C215 1.505 . S
C879 C378 1.504 . S
