# Generated by pormake.
# Topology ocu, (6,8)-cn, num edge types: 1
# Building blocks:
#     Node 0, Type 0, BuildingBlock: KUMJIN_clean_sbu_0, # of connection points: 6
#     Node 1, Type 0, BuildingBlock: KUMJIN_clean_sbu_0, # of connection points: 6
#     Node 2, Type 0, BuildingBlock: KUMJIN_clean_sbu_0, # of connection points: 6
#     Node 3, Type 0, BuildingBlock: KUMJIN_clean_sbu_0, # of connection points: 6
#     Node 4, Type 0, BuildingBlock: KUMJIN_clean_sbu_0, # of connection points: 6
#     Node 5, Type 0, BuildingBlock: KUMJIN_clean_sbu_0, # of connection points: 6
#     Node 6, Type 0, BuildingBlock: KUMJIN_clean_sbu_0, # of connection points: 6
#     Node 7, Type 0, BuildingBlock: KUMJIN_clean_sbu_0, # of connection points: 6
#     Node 8, Type 1, BuildingBlock: TAGTUT_clean_sbu_1, # of connection points: 8
#     Node 9, Type 1, BuildingBlock: TAGTUT_clean_sbu_1, # of connection points: 8
#     Node 10, Type 1, BuildingBlock: TAGTUT_clean_sbu_1, # of connection points: 8
#     Node 11, Type 1, BuildingBlock: TAGTUT_clean_sbu_1, # of connection points: 8
#     Node 12, Type 1, BuildingBlock: TAGTUT_clean_sbu_1, # of connection points: 8
#     Node 13, Type 1, BuildingBlock: TAGTUT_clean_sbu_1, # of connection points: 8
#     Edge 14, Type (0, 1), BuildingBlock: UVAHIK_clean_linker_0, # of connection points: 2
#     Edge 15, Type (0, 1), BuildingBlock: UVAHIK_clean_linker_0, # of connection points: 2
#     Edge 16, Type (0, 1), BuildingBlock: UVAHIK_clean_linker_0, # of connection points: 2
#     Edge 17, Type (0, 1), BuildingBlock: UVAHIK_clean_linker_0, # of connection points: 2
#     Edge 18, Type (0, 1), BuildingBlock: UVAHIK_clean_linker_0, # of connection points: 2
#     Edge 19, Type (0, 1), BuildingBlock: UVAHIK_clean_linker_0, # of connection points: 2
#     Edge 20, Type (0, 1), BuildingBlock: UVAHIK_clean_linker_0, # of connection points: 2
#     Edge 21, Type (0, 1), BuildingBlock: UVAHIK_clean_linker_0, # of connection points: 2
#     Edge 22, Type (0, 1), BuildingBlock: UVAHIK_clean_linker_0, # of connection points: 2
#     Edge 23, Type (0, 1), BuildingBlock: UVAHIK_clean_linker_0, # of connection points: 2
#     Edge 24, Type (0, 1), BuildingBlock: UVAHIK_clean_linker_0, # of connection points: 2
#     Edge 25, Type (0, 1), BuildingBlock: UVAHIK_clean_linker_0, # of connection points: 2
#     Edge 26, Type (0, 1), BuildingBlock: UVAHIK_clean_linker_0, # of connection points: 2
#     Edge 27, Type (0, 1), BuildingBlock: UVAHIK_clean_linker_0, # of connection points: 2
#     Edge 28, Type (0, 1), BuildingBlock: UVAHIK_clean_linker_0, # of connection points: 2
#     Edge 29, Type (0, 1), BuildingBlock: UVAHIK_clean_linker_0, # of connection points: 2
#     Edge 30, Type (0, 1), BuildingBlock: UVAHIK_clean_linker_0, # of connection points: 2
#     Edge 31, Type (0, 1), BuildingBlock: UVAHIK_clean_linker_0, # of connection points: 2
#     Edge 32, Type (0, 1), BuildingBlock: UVAHIK_clean_linker_0, # of connection points: 2
#     Edge 33, Type (0, 1), BuildingBlock: UVAHIK_clean_linker_0, # of connection points: 2
#     Edge 34, Type (0, 1), BuildingBlock: UVAHIK_clean_linker_0, # of connection points: 2
#     Edge 35, Type (0, 1), BuildingBlock: UVAHIK_clean_linker_0, # of connection points: 2
#     Edge 36, Type (0, 1), BuildingBlock: UVAHIK_clean_linker_0, # of connection points: 2
#     Edge 37, Type (0, 1), BuildingBlock: UVAHIK_clean_linker_0, # of connection points: 2
#     Edge 38, Type (0, 1), BuildingBlock: UVAHIK_clean_linker_0, # of connection points: 2
#     Edge 39, Type (0, 1), BuildingBlock: UVAHIK_clean_linker_0, # of connection points: 2
#     Edge 40, Type (0, 1), BuildingBlock: UVAHIK_clean_linker_0, # of connection points: 2
#     Edge 41, Type (0, 1), BuildingBlock: UVAHIK_clean_linker_0, # of connection points: 2
#     Edge 42, Type (0, 1), BuildingBlock: UVAHIK_clean_linker_0, # of connection points: 2
#     Edge 43, Type (0, 1), BuildingBlock: UVAHIK_clean_linker_0, # of connection points: 2
#     Edge 44, Type (0, 1), BuildingBlock: UVAHIK_clean_linker_0, # of connection points: 2
#     Edge 45, Type (0, 1), BuildingBlock: UVAHIK_clean_linker_0, # of connection points: 2
#     Edge 46, Type (0, 1), BuildingBlock: UVAHIK_clean_linker_0, # of connection points: 2
#     Edge 47, Type (0, 1), BuildingBlock: UVAHIK_clean_linker_0, # of connection points: 2
#     Edge 48, Type (0, 1), BuildingBlock: UVAHIK_clean_linker_0, # of connection points: 2
#     Edge 49, Type (0, 1), BuildingBlock: UVAHIK_clean_linker_0, # of connection points: 2
#     Edge 50, Type (0, 1), BuildingBlock: UVAHIK_clean_linker_0, # of connection points: 2
#     Edge 51, Type (0, 1), BuildingBlock: UVAHIK_clean_linker_0, # of connection points: 2
#     Edge 52, Type (0, 1), BuildingBlock: UVAHIK_clean_linker_0, # of connection points: 2
#     Edge 53, Type (0, 1), BuildingBlock: UVAHIK_clean_linker_0, # of connection points: 2
#     Edge 54, Type (0, 1), BuildingBlock: UVAHIK_clean_linker_0, # of connection points: 2
#     Edge 55, Type (0, 1), BuildingBlock: UVAHIK_clean_linker_0, # of connection points: 2
#     Edge 56, Type (0, 1), BuildingBlock: UVAHIK_clean_linker_0, # of connection points: 2
#     Edge 57, Type (0, 1), BuildingBlock: UVAHIK_clean_linker_0, # of connection points: 2
#     Edge 58, Type (0, 1), BuildingBlock: UVAHIK_clean_linker_0, # of connection points: 2
#     Edge 59, Type (0, 1), BuildingBlock: UVAHIK_clean_linker_0, # of connection points: 2
#     Edge 60, Type (0, 1), BuildingBlock: UVAHIK_clean_linker_0, # of connection points: 2
#     Edge 61, Type (0, 1), BuildingBlock: UVAHIK_clean_linker_0, # of connection points: 2
# Relax obj value: 0.093
# Max RMSD: 0.267
# Mean RMSD: 0.152
data_MOF--net-ocu--node1-KUMJIN_clean_sbu_0--node2-TAGTUT_clean_sbu_1--edge1-UVAHIK_clean_linker_0
_symmetry_space_group_name_H-M    P1
_symmetry_Int_Tables_number       1
_symmetry_cell_setting            triclinic
loop_
_symmetry_equiv_pos_as_xyz
'x, y, z'
_cell_length_a     49.628147
_cell_length_b     46.909001
_cell_length_c     54.013445
_cell_angle_alpha  81.411094
_cell_angle_beta   100.58245
_cell_angle_gamma 111.64724
loop_
_atom_site_label
_atom_site_type_symbol
_atom_site_fract_x
_atom_site_fract_y
_atom_site_fract_z
_atom_type_partial_charge
Eu0 Eu 0.25579 0.23122 0.22572 0.0
C1 C 0.36168 0.31614 0.294 0.0
C2 C 0.36931 0.28409 0.33219 0.0
C3 C 0.41048 0.32688 0.31772 0.0
C4 C 0.35068 0.29121 0.31111 0.0
C5 C 0.3916 0.33462 0.29735 0.0
C6 C 0.39935 0.30165 0.33511 0.0
C7 C 0.38156 0.36835 0.26134 0.0
N8 N 0.3428 0.32319 0.27472 0.0
C9 C 0.35205 0.34941 0.25889 0.0
C10 C 0.4015 0.36076 0.2805 0.0
Eu11 Eu 0.29341 0.28939 0.27116 0.0
N12 N 0.32153 0.27485 0.30782 0.0
C13 C 0.30925 0.25246 0.32588 0.0
C14 C 0.35705 0.26004 0.35005 0.0
C15 C 0.32683 0.24443 0.34704 0.0
H16 H 0.33678 0.35528 0.24393 0.0
H17 H 0.31705 0.22612 0.36095 0.0
H18 H 0.41404 0.29635 0.35105 0.0
H19 H 0.38891 0.38874 0.24843 0.0
H20 H 0.28597 0.24011 0.32381 0.0
H21 H 0.23146 0.2953 0.13666 0.0
H22 H 0.37061 0.25378 0.36646 0.0
H23 H 0.21366 0.16334 0.25118 0.0
H24 H 0.26274 0.28137 0.17376 0.0
H25 H 0.16214 0.12827 0.24565 0.0
H26 H 0.43359 0.34064 0.3205 0.0
H27 H 0.17807 0.26664 0.13075 0.0
H28 H 0.13507 0.22278 0.14548 0.0
H29 H 0.42433 0.37552 0.28241 0.0
H30 H 0.11618 0.17724 0.17512 0.0
N31 N 0.22739 0.24581 0.18932 0.0
C32 C 0.2395 0.26864 0.17148 0.0
C33 C 0.19171 0.26045 0.14714 0.0
C34 C 0.17968 0.23587 0.16469 0.0
C35 C 0.22183 0.27662 0.15037 0.0
C36 C 0.1984 0.22887 0.18576 0.0
H37 H 0.12621 0.14149 0.21222 0.0
N38 N 0.20681 0.19642 0.2216 0.0
C39 C 0.16901 0.1494 0.23345 0.0
C40 C 0.18775 0.20337 0.20244 0.0
C41 C 0.19818 0.16931 0.23652 0.0
C42 C 0.14878 0.15699 0.21461 0.0
C43 C 0.15813 0.18401 0.19855 0.0
O44 O 0.26331 0.18935 0.2213 0.0
O45 O 0.2909 0.24471 0.25912 0.0
O46 O 0.32651 0.28859 0.24789 0.0
O47 O 0.29453 0.27096 0.2118 0.0
O48 O 0.2655 0.19877 0.25908 0.0
O49 O 0.2727 0.22714 0.19216 0.0
O50 O 0.29069 0.33308 0.27775 0.0
O51 O 0.25817 0.27595 0.23783 0.0
O52 O 0.22266 0.22919 0.25039 0.0
O53 O 0.25519 0.24981 0.28554 0.0
O54 O 0.28365 0.32181 0.23777 0.0
O55 O 0.27298 0.29235 0.30276 0.0
C56 C 0.28742 0.21858 0.27136 0.0
C57 C 0.25864 0.17682 0.1796 0.0
C58 C 0.26528 0.14716 0.1489 0.0
C59 C 0.27705 0.16958 0.16657 0.0
C60 C 0.23463 0.13243 0.14453 0.0
C61 C 0.22825 0.16209 0.17457 0.0
C62 C 0.21637 0.14006 0.15711 0.0
C63 C 0.32124 0.28436 0.22359 0.0
C64 C 0.27147 0.19891 0.19901 0.0
C65 C 0.13908 0.19166 0.17829 0.0
C66 C 0.14984 0.21758 0.1614 0.0
C67 C 0.2616 0.30206 0.22558 0.0
C68 C 0.29064 0.34003 0.3203 0.0
C69 C 0.27201 0.34828 0.33227 0.0
C70 C 0.28303 0.36462 0.35402 0.0
C71 C 0.31301 0.3727 0.36343 0.0
C72 C 0.32045 0.34845 0.32998 0.0
C73 C 0.33154 0.36473 0.35142 0.0
C74 C 0.22856 0.23454 0.27454 0.0
C75 C 0.27853 0.32189 0.29824 0.0
H76 H 0.30049 0.18151 0.17027 0.0
H77 H 0.22462 0.11452 0.13171 0.0
H78 H 0.21372 0.16729 0.18434 0.0
H79 H 0.19288 0.12852 0.15354 0.0
H80 H 0.2489 0.34148 0.32494 0.0
H81 H 0.32222 0.38552 0.37994 0.0
H82 H 0.33512 0.34242 0.32103 0.0
H83 H 0.35459 0.37117 0.35879 0.0
Eu84 Eu 0.78359 0.24914 0.24438 0.0
C85 C 0.67084 0.27411 0.24294 0.0
C86 C 0.65062 0.28995 0.20128 0.0
C87 C 0.61805 0.25934 0.23153 0.0
C88 C 0.67485 0.28898 0.21925 0.0
C89 C 0.64241 0.25991 0.2497 0.0
C90 C 0.62216 0.27433 0.20731 0.0
C91 C 0.66445 0.25156 0.29254 0.0
N92 N 0.69489 0.27564 0.26002 0.0
C93 C 0.69214 0.26584 0.28483 0.0
C94 C 0.63943 0.24799 0.27478 0.0
Eu95 Eu 0.74143 0.29919 0.24598 0.0
N96 N 0.70266 0.3041 0.21431 0.0
C97 C 0.70781 0.32238 0.19218 0.0
C98 C 0.65577 0.30737 0.17811 0.0
C99 C 0.68452 0.32394 0.17367 0.0
H100 H 0.71128 0.26854 0.29878 0.0
H101 H 0.68876 0.33794 0.156 0.0
H102 H 0.60324 0.27459 0.1937 0.0
H103 H 0.66246 0.24321 0.31216 0.0
H104 H 0.72991 0.33517 0.18846 0.0
H105 H 0.89868 0.32079 0.24442 0.0
H106 H 0.63776 0.30877 0.16382 0.0
H107 H 0.74233 0.18997 0.20836 0.0
H108 H 0.8513 0.29874 0.26087 0.0
H109 H 0.74495 0.16955 0.16992 0.0
H110 H 0.59603 0.24832 0.23628 0.0
H111 H 0.90355 0.30608 0.2038 0.0
H112 H 0.88094 0.27369 0.16724 0.0
H113 H 0.61801 0.23696 0.28079 0.0
H114 H 0.83916 0.23269 0.14701 0.0
N115 N 0.82951 0.27196 0.2298 0.0
C116 C 0.85317 0.29205 0.24318 0.0
C117 C 0.88275 0.29614 0.21103 0.0
C118 C 0.85875 0.27447 0.19801 0.0
C119 C 0.8801 0.30449 0.23397 0.0
C120 C 0.83216 0.26216 0.20825 0.0
H121 H 0.78863 0.19353 0.14804 0.0
N122 N 0.78392 0.22608 0.20817 0.0
C123 C 0.76299 0.18905 0.17731 0.0
C124 C 0.80871 0.23867 0.19706 0.0
C125 C 0.76163 0.20076 0.1992 0.0
C126 C 0.78767 0.2027 0.16499 0.0
C127 C 0.81113 0.22746 0.17504 0.0
O128 O 0.77549 0.21061 0.27391 0.0
O129 O 0.74501 0.25315 0.25711 0.0
O130 O 0.75926 0.28063 0.28413 0.0
O131 O 0.80305 0.282 0.27517 0.0
O132 O 0.73791 0.21213 0.24367 0.0
O133 O 0.81805 0.23143 0.26213 0.0
O134 O 0.75232 0.34904 0.24503 0.0
O135 O 0.78438 0.29723 0.24042 0.0
O136 O 0.76292 0.25866 0.20501 0.0
O137 O 0.72372 0.27241 0.21079 0.0
O138 O 0.772 0.33177 0.21898 0.0
O139 O 0.74746 0.32122 0.28041 0.0
C140 C 0.72563 0.22714 0.25322 0.0
C141 C 0.81658 0.21644 0.30573 0.0
C142 C 0.86116 0.23022 0.33666 0.0
C143 C 0.84716 0.22968 0.31148 0.0
C144 C 0.8434 0.21917 0.35616 0.0
C145 C 0.79953 0.20563 0.32551 0.0
C146 C 0.81293 0.20753 0.35055 0.0
C147 C 0.78702 0.28387 0.2914 0.0
C148 C 0.80284 0.2133 0.27912 0.0
C149 C 0.83703 0.24082 0.16406 0.0
C150 C 0.86082 0.26419 0.17556 0.0
C151 C 0.79175 0.31938 0.22355 0.0
C152 C 0.73348 0.36408 0.27603 0.0
C153 C 0.70544 0.36022 0.26296 0.0
C154 C 0.68804 0.37447 0.2702 0.0
C155 C 0.6989 0.39232 0.29096 0.0
C156 C 0.744 0.38174 0.29683 0.0
C157 C 0.72672 0.39577 0.30426 0.0
C158 C 0.73794 0.26326 0.19681 0.0
C159 C 0.75124 0.34841 0.269 0.0
H160 H 0.85996 0.23907 0.29609 0.0
H161 H 0.85272 0.21822 0.37585 0.0
H162 H 0.77591 0.19546 0.32167 0.0
H163 H 0.79966 0.19897 0.36573 0.0
H164 H 0.69747 0.34673 0.24678 0.0
H165 H 0.68592 0.40361 0.29685 0.0
H166 H 0.76549 0.38453 0.30735 0.0
H167 H 0.73494 0.40943 0.32031 0.0
Eu168 Eu 0.75503 0.74781 0.27831 0.0
C169 C 0.81884 0.84111 0.1989 0.0
C170 C 0.77942 0.83622 0.16402 0.0
C171 C 0.81956 0.88512 0.16851 0.0
C172 C 0.79244 0.82347 0.18614 0.0
C173 C 0.83317 0.87183 0.18974 0.0
C174 C 0.7927 0.86736 0.1557 0.0
C175 C 0.87489 0.87278 0.22125 0.0
N176 N 0.83159 0.82751 0.21917 0.0
C177 C 0.85978 0.84226 0.22967 0.0
C178 C 0.86131 0.88783 0.20152 0.0
Eu179 Eu 0.80492 0.77571 0.2318 0.0
N180 N 0.78031 0.79338 0.1945 0.0
C181 C 0.75638 0.77422 0.18069 0.0
C182 C 0.75396 0.81703 0.15049 0.0
C183 C 0.74271 0.78576 0.15862 0.0
H184 H 0.87022 0.83062 0.24501 0.0
H185 H 0.72339 0.77058 0.148 0.0
H186 H 0.78284 0.87765 0.13893 0.0
H187 H 0.89694 0.88467 0.23003 0.0
H188 H 0.74759 0.75008 0.18679 0.0
H189 H 0.81973 0.77279 0.37212 0.0
H190 H 0.74327 0.82595 0.13343 0.0
H191 H 0.70888 0.6756 0.26227 0.0
H192 H 0.7906 0.78306 0.33263 0.0
H193 H 0.70548 0.62218 0.27331 0.0
H194 H 0.83006 0.90882 0.16137 0.0
H195 H 0.82347 0.72129 0.38355 0.0
H196 H 0.80719 0.66658 0.37396 0.0
H197 H 0.87308 0.91144 0.19499 0.0
H198 H 0.77608 0.62555 0.34702 0.0
N199 N 0.78074 0.73924 0.3192 0.0
C200 C 0.79322 0.76103 0.33621 0.0
C201 C 0.81116 0.72594 0.36564 0.0
C202 C 0.79574 0.7027 0.34958 0.0
C203 C 0.80926 0.75504 0.35919 0.0
C204 C 0.78007 0.70997 0.32636 0.0
H205 H 0.73815 0.60876 0.30965 0.0
N206 N 0.74633 0.6941 0.28971 0.0
C207 C 0.72211 0.64016 0.28381 0.0
C208 C 0.76258 0.68683 0.31113 0.0
C209 C 0.72478 0.67092 0.27717 0.0
C210 C 0.74047 0.63268 0.30438 0.0
C211 C 0.76035 0.65594 0.31882 0.0
O212 O 0.7099 0.72307 0.28595 0.0
O213 O 0.75967 0.77037 0.23834 0.0
O214 O 0.81112 0.81684 0.25274 0.0
O215 O 0.79144 0.79198 0.28938 0.0
O216 O 0.74241 0.78912 0.26098 0.0
O217 O 0.73447 0.76776 0.29973 0.0
O218 O 0.84646 0.77371 0.22534 0.0
O219 O 0.79533 0.74437 0.26747 0.0
O220 O 0.73414 0.72325 0.24255 0.0
O221 O 0.776 0.72587 0.22824 0.0
O222 O 0.83799 0.77452 0.26678 0.0
O223 O 0.80673 0.75177 0.20078 0.0
C224 C 0.74965 0.79167 0.23888 0.0
C225 C 0.69974 0.7339 0.32444 0.0
C226 C 0.68203 0.74647 0.35932 0.0
C227 C 0.6911 0.75404 0.33524 0.0
C228 C 0.68168 0.71809 0.37247 0.0
C229 C 0.69944 0.70582 0.3379 0.0
C230 C 0.69032 0.69798 0.36178 0.0
C231 C 0.80597 0.81704 0.27587 0.0
C232 C 0.71045 0.74389 0.29978 0.0
C233 C 0.77721 0.64903 0.34111 0.0
C234 C 0.79488 0.67237 0.35646 0.0
C235 C 0.82093 0.75207 0.27994 0.0
C236 C 0.85057 0.76912 0.18312 0.0
C237 C 0.8557 0.74739 0.17113 0.0
C238 C 0.86974 0.75635 0.14935 0.0
C239 C 0.87858 0.78751 0.13978 0.0
C240 C 0.85953 0.80003 0.17326 0.0
C241 C 0.87349 0.80913 0.1517 0.0
C242 C 0.74773 0.71276 0.22917 0.0
C243 C 0.83495 0.7587 0.2053 0.0
H244 H 0.69218 0.77608 0.325 0.0
H245 H 0.67447 0.71127 0.3909 0.0
H246 H 0.70643 0.69014 0.33011 0.0
H247 H 0.69003 0.67626 0.3721 0.0
H248 H 0.84831 0.72341 0.17858 0.0
H249 H 0.8898 0.79526 0.12328 0.0
H250 H 0.85574 0.81711 0.18209 0.0
H251 H 0.88043 0.83305 0.14422 0.0
Eu252 Eu 0.28816 0.71916 0.26205 0.0
C253 C 0.25119 0.81401 0.18068 0.0
C254 C 0.2952 0.85878 0.17723 0.0
C255 C 0.25736 0.84605 0.14087 0.0
C256 C 0.27825 0.83272 0.19144 0.0
C257 C 0.2402 0.82069 0.15538 0.0
C258 C 0.28483 0.86504 0.15177 0.0
C259 C 0.19548 0.77778 0.16111 0.0
N260 N 0.23519 0.78977 0.19523 0.0
C261 C 0.20731 0.77215 0.18612 0.0
C262 C 0.21209 0.80199 0.14559 0.0
Eu263 Eu 0.25715 0.78074 0.23693 0.0
N264 N 0.28759 0.82602 0.21607 0.0
C265 C 0.31278 0.84559 0.22815 0.0
C266 C 0.32181 0.87806 0.18918 0.0
C267 C 0.33045 0.87163 0.21484 0.0
H268 H 0.19447 0.75327 0.198 0.0
H269 H 0.35077 0.88664 0.22437 0.0
H270 H 0.29764 0.88482 0.14049 0.0
H271 H 0.17359 0.76342 0.15382 0.0
H272 H 0.3198 0.8408 0.24794 0.0
H273 H 0.19344 0.61342 0.27203 0.0
H274 H 0.33554 0.89823 0.1789 0.0
H275 H 0.35031 0.74439 0.3019 0.0
H276 H 0.22534 0.65934 0.24945 0.0
H277 H 0.37006 0.73311 0.34622 0.0
H278 H 0.24939 0.85144 0.12134 0.0
H279 H 0.20733 0.60079 0.31757 0.0
H280 H 0.2443 0.61311 0.35666 0.0
H281 H 0.20286 0.80635 0.12623 0.0
H282 H 0.29243 0.64554 0.37683 0.0
N283 N 0.25696 0.67332 0.28188 0.0
C284 C 0.23188 0.65421 0.26925 0.0
C285 C 0.22154 0.62101 0.30771 0.0
C286 C 0.24801 0.63977 0.32023 0.0
C287 C 0.21364 0.62805 0.28201 0.0
C288 C 0.26559 0.66594 0.30654 0.0
H289 H 0.33963 0.69009 0.373 0.0
N290 N 0.30913 0.70838 0.30377 0.0
C291 C 0.34818 0.71917 0.3385 0.0
C292 C 0.29254 0.68409 0.31786 0.0
C293 C 0.337 0.72542 0.31341 0.0
C294 C 0.33092 0.69492 0.35357 0.0
C295 C 0.30284 0.67678 0.34322 0.0
O296 O 0.32657 0.71059 0.25536 0.0
O297 O 0.29293 0.76267 0.23748 0.0
O298 O 0.25484 0.75384 0.2047 0.0
O299 O 0.25259 0.70718 0.22792 0.0
O300 O 0.33126 0.75836 0.25649 0.0
O301 O 0.28344 0.68457 0.23716 0.0
O302 O 0.21863 0.7871 0.24563 0.0
O303 O 0.25297 0.73777 0.26211 0.0
O304 O 0.29163 0.74678 0.29419 0.0
O305 O 0.29199 0.79322 0.27142 0.0
O306 O 0.21428 0.74152 0.24341 0.0
O307 O 0.26193 0.81902 0.25801 0.0
C308 C 0.32036 0.77581 0.24039 0.0
C309 C 0.31922 0.66142 0.24332 0.0
C310 C 0.33698 0.62828 0.22496 0.0
C311 C 0.33054 0.65533 0.22352 0.0
C312 C 0.33204 0.60745 0.2467 0.0
C313 C 0.31454 0.64052 0.26489 0.0
C314 C 0.32102 0.61366 0.26654 0.0
C315 C 0.2495 0.7239 0.20628 0.0
C316 C 0.31132 0.68905 0.2404 0.0
C317 C 0.28503 0.65138 0.35725 0.0
C318 C 0.25764 0.63292 0.34577 0.0
C319 C 0.22557 0.72459 0.25977 0.0
C320 C 0.22238 0.83714 0.25213 0.0
C321 C 0.21245 0.84525 0.27181 0.0
C322 C 0.20002 0.86845 0.26752 0.0
C323 C 0.1982 0.88368 0.24305 0.0
C324 C 0.22051 0.85263 0.22798 0.0
C325 C 0.20851 0.87588 0.22353 0.0
C326 C 0.29606 0.77655 0.2929 0.0
C327 C 0.23379 0.8118 0.25722 0.0
H328 H 0.33367 0.67137 0.20671 0.0
H329 H 0.33697 0.58652 0.24846 0.0
H330 H 0.30569 0.64487 0.28026 0.0
H331 H 0.31736 0.59752 0.28321 0.0
H332 H 0.21453 0.83341 0.2905 0.0
H333 H 0.18833 0.90125 0.2388 0.0
H334 H 0.22808 0.84658 0.21262 0.0
H335 H 0.20689 0.88769 0.20481 0.0
Eu336 Eu 0.29352 0.73714 0.74575 0.0
C337 C 0.24452 0.80771 0.80326 0.0
C338 C 0.19328 0.77648 0.80404 0.0
C339 C 0.22063 0.80723 0.83893 0.0
C340 C 0.21875 0.78676 0.79224 0.0
C341 C 0.24552 0.81864 0.8265 0.0
C342 C 0.19456 0.78624 0.82771 0.0
C343 C 0.29472 0.85353 0.82234 0.0
N344 N 0.2682 0.8185 0.79072 0.0
C345 C 0.29263 0.84222 0.79927 0.0
C346 C 0.27124 0.84137 0.83621 0.0
Eu347 Eu 0.26293 0.79588 0.75279 0.0
N348 N 0.21817 0.77749 0.76944 0.0
C349 C 0.19241 0.76003 0.75648 0.0
C350 C 0.16709 0.75728 0.79142 0.0
C351 C 0.16655 0.74953 0.76733 0.0
H352 H 0.31094 0.85191 0.78876 0.0
H353 H 0.14629 0.73521 0.75719 0.0
H354 H 0.17532 0.77825 0.83721 0.0
H355 H 0.31444 0.87165 0.82939 0.0
H356 H 0.19169 0.75373 0.73791 0.0
H357 H 0.34196 0.68325 0.8306 0.0
H358 H 0.14707 0.7489 0.79986 0.0
H359 H 0.3221 0.7665 0.69208 0.0
H360 H 0.30255 0.6949 0.80141 0.0
H361 H 0.36961 0.78398 0.67631 0.0
H362 H 0.2211 0.81513 0.85691 0.0
H363 H 0.39259 0.70437 0.82038 0.0
H364 H 0.42726 0.7343 0.78943 0.0
H365 H 0.27289 0.85029 0.85403 0.0
H366 H 0.43486 0.76186 0.74735 0.0
N367 N 0.33033 0.72333 0.77471 0.0
C368 C 0.32439 0.70443 0.79647 0.0
C369 C 0.37532 0.70971 0.80742 0.0
C370 C 0.38106 0.72768 0.78459 0.0
C371 C 0.34677 0.69772 0.81322 0.0
C372 C 0.35777 0.73394 0.76837 0.0
H373 H 0.41341 0.78007 0.70486 0.0
N374 N 0.33871 0.7535 0.72947 0.0
C375 C 0.36792 0.77463 0.69575 0.0
C376 C 0.36208 0.74958 0.74494 0.0
C377 C 0.34101 0.76479 0.70483 0.0
C378 C 0.39257 0.77242 0.71193 0.0
C379 C 0.38976 0.75924 0.73674 0.0
O380 O 0.26656 0.6884 0.7434 0.0
O381 O 0.25484 0.74589 0.75488 0.0
O382 O 0.28679 0.78435 0.79039 0.0
O383 O 0.31799 0.76071 0.78133 0.0
O384 O 0.26499 0.70942 0.77561 0.0
O385 O 0.28696 0.7144 0.71152 0.0
O386 O 0.27376 0.8342 0.72327 0.0
O387 O 0.29672 0.78597 0.73713 0.0
O388 O 0.27812 0.76275 0.71041 0.0
O389 O 0.23701 0.76446 0.72167 0.0
O390 O 0.31087 0.82715 0.7527 0.0
O391 O 0.23376 0.82177 0.73888 0.0
C392 C 0.24805 0.7251 0.77288 0.0
C393 C 0.28133 0.66238 0.71762 0.0
C394 C 0.31663 0.63613 0.7288 0.0
C395 C 0.3069 0.65972 0.73205 0.0
C396 C 0.3003 0.61516 0.71078 0.0
C397 C 0.26531 0.64148 0.69967 0.0
C398 C 0.27481 0.61792 0.69629 0.0
C399 C 0.30887 0.77404 0.79646 0.0
C400 C 0.27177 0.6874 0.72093 0.0
C401 C 0.41339 0.75437 0.75321 0.0
C402 C 0.40905 0.73868 0.77715 0.0
C403 C 0.31903 0.80979 0.74148 0.0
C404 C 0.23247 0.83668 0.69501 0.0
C405 C 0.20319 0.817 0.68998 0.0
C406 C 0.18741 0.8174 0.66558 0.0
C407 C 0.20205 0.83681 0.64592 0.0
C408 C 0.24653 0.85572 0.67515 0.0
C409 C 0.23143 0.8555 0.65069 0.0
C410 C 0.25045 0.76009 0.70445 0.0
C411 C 0.24858 0.83744 0.7208 0.0
H412 H 0.31889 0.67572 0.74613 0.0
H413 H 0.3073 0.59679 0.7078 0.0
H414 H 0.24557 0.64343 0.68828 0.0
H415 H 0.26239 0.60175 0.68242 0.0
H416 H 0.19255 0.80167 0.70516 0.0
H417 H 0.19065 0.83854 0.62697 0.0
H418 H 0.26917 0.87084 0.6786 0.0
H419 H 0.24234 0.87043 0.63546 0.0
Eu420 Eu 0.24082 0.22594 0.77325 0.0
C421 C 0.30999 0.33645 0.70182 0.0
C422 C 0.27462 0.33835 0.66484 0.0
C423 C 0.31433 0.38522 0.67692 0.0
C424 C 0.28505 0.32171 0.68594 0.0
C425 C 0.3254 0.36823 0.69714 0.0
C426 C 0.28895 0.3703 0.6608 0.0
C427 C 0.36301 0.36336 0.73114 0.0
N428 N 0.32027 0.31926 0.72092 0.0
C429 C 0.34698 0.33189 0.7349 0.0
C430 C 0.35197 0.38172 0.7124 0.0
Eu431 Eu 0.29162 0.26642 0.72713 0.0
N432 N 0.27195 0.29079 0.69029 0.0
C433 C 0.24972 0.27476 0.67306 0.0
C434 C 0.25066 0.32223 0.64802 0.0
C435 C 0.23847 0.29023 0.65194 0.0
H436 H 0.35555 0.31778 0.74946 0.0
H437 H 0.22031 0.27745 0.63877 0.0
H438 H 0.28106 0.38352 0.64487 0.0
H439 H 0.38383 0.37341 0.74268 0.0
H440 H 0.23991 0.25006 0.67577 0.0
H441 H 0.30925 0.21143 0.86231 0.0
H442 H 0.24191 0.33416 0.63165 0.0
H443 H 0.17812 0.17546 0.74713 0.0
H444 H 0.29141 0.24021 0.82509 0.0
H445 H 0.14908 0.11992 0.75253 0.0
H446 H 0.32568 0.40973 0.67317 0.0
H447 H 0.2861 0.15477 0.86857 0.0
H448 H 0.24643 0.10632 0.85412 0.0
H449 H 0.36448 0.40607 0.70942 0.0
H450 H 0.20274 0.08144 0.82436 0.0
N451 N 0.25898 0.20024 0.80985 0.0
C452 C 0.28103 0.21552 0.82754 0.0
C453 C 0.27815 0.1673 0.85216 0.0
C454 C 0.25442 0.15199 0.83475 0.0
C455 C 0.29123 0.19928 0.84872 0.0
C456 C 0.24505 0.16939 0.81363 0.0
H457 H 0.16604 0.08639 0.78667 0.0
N458 N 0.21136 0.17318 0.7776 0.0
C459 C 0.16917 0.12959 0.76512 0.0
C460 C 0.22048 0.15541 0.79697 0.0
C461 C 0.18561 0.16103 0.76215 0.0
C462 C 0.17885 0.11072 0.78437 0.0
C463 C 0.20459 0.12362 0.80081 0.0
O464 O 0.19915 0.22724 0.77994 0.0
O465 O 0.24959 0.2614 0.73999 0.0
O466 O 0.29314 0.30211 0.75188 0.0
O467 O 0.27636 0.26953 0.78725 0.0
O468 O 0.20694 0.23212 0.74013 0.0
O469 O 0.23889 0.24828 0.80514 0.0
O470 O 0.33346 0.26574 0.72029 0.0
O471 O 0.28326 0.23158 0.76083 0.0
O472 O 0.24168 0.19035 0.74959 0.0
O473 O 0.25504 0.22301 0.7137 0.0
O474 O 0.32575 0.26104 0.76033 0.0
O475 O 0.2936 0.24233 0.69634 0.0
C476 C 0.22397 0.25561 0.72798 0.0
C477 C 0.19467 0.23096 0.8222 0.0
C478 C 0.17267 0.24276 0.85449 0.0
C479 C 0.18786 0.25218 0.83339 0.0
C480 C 0.16463 0.2117 0.86432 0.0
C481 C 0.18658 0.20016 0.8323 0.0
C482 C 0.17162 0.19063 0.8533 0.0
C483 C 0.2885 0.29719 0.77575 0.0
C484 C 0.21067 0.2417 0.80032 0.0
C485 C 0.21451 0.10594 0.82121 0.0
C486 C 0.23939 0.1201 0.83815 0.0
C487 C 0.30892 0.23783 0.77289 0.0
C488 C 0.33694 0.26172 0.67792 0.0
C489 C 0.34405 0.24117 0.6662 0.0
C490 C 0.35777 0.25106 0.64426 0.0
C491 C 0.36416 0.28193 0.63422 0.0
C492 C 0.34344 0.29236 0.66763 0.0
C493 C 0.35701 0.30237 0.64586 0.0
C494 C 0.24446 0.19508 0.72529 0.0
C495 C 0.32198 0.25041 0.7004 0.0
H496 H 0.19402 0.27594 0.82538 0.0
H497 H 0.1532 0.20374 0.88069 0.0
H498 H 0.19184 0.18357 0.824 0.0
H499 H 0.16544 0.16683 0.86108 0.0
H500 H 0.33849 0.21737 0.67402 0.0
H501 H 0.37506 0.29042 0.61757 0.0
H502 H 0.33802 0.30847 0.67635 0.0
H503 H 0.36207 0.32608 0.63802 0.0
Eu504 Eu 0.78822 0.22 0.76351 0.0
C505 C 0.75279 0.31647 0.68235 0.0
C506 C 0.79736 0.36057 0.67908 0.0
C507 C 0.75933 0.34893 0.64276 0.0
C508 C 0.78007 0.33461 0.69315 0.0
C509 C 0.74187 0.32365 0.65714 0.0
C510 C 0.78703 0.36735 0.65371 0.0
C511 C 0.69673 0.28128 0.66266 0.0
N512 N 0.73652 0.29227 0.69676 0.0
C513 C 0.7085 0.27514 0.68759 0.0
C514 C 0.71357 0.30548 0.64729 0.0
Eu515 Eu 0.75834 0.28231 0.73832 0.0
N516 N 0.78936 0.32739 0.71768 0.0
C517 C 0.8149 0.34636 0.72981 0.0
C518 C 0.82426 0.37924 0.69106 0.0
C519 C 0.8329 0.37229 0.71663 0.0
H520 H 0.69545 0.25627 0.69934 0.0
H521 H 0.85347 0.38681 0.72619 0.0
H522 H 0.80009 0.38706 0.64253 0.0
H523 H 0.6747 0.26732 0.65533 0.0
H524 H 0.82193 0.34119 0.74952 0.0
H525 H 0.69275 0.1153 0.77412 0.0
H526 H 0.83826 0.39931 0.68089 0.0
H527 H 0.85043 0.24529 0.80332 0.0
H528 H 0.72503 0.16068 0.75123 0.0
H529 H 0.87002 0.23436 0.84778 0.0
H530 H 0.75142 0.3547 0.6233 0.0
H531 H 0.70648 0.10317 0.81977 0.0
H532 H 0.7435 0.11563 0.85883 0.0
H533 H 0.70439 0.31022 0.62799 0.0
H534 H 0.7918 0.14788 0.87884 0.0
N535 N 0.75659 0.17486 0.78366 0.0
C536 C 0.73144 0.15576 0.77111 0.0
C537 C 0.72081 0.12318 0.8098 0.0
C538 C 0.74737 0.1419 0.82224 0.0
C539 C 0.71301 0.12991 0.78403 0.0
C540 C 0.76512 0.16777 0.8084 0.0
H541 H 0.83926 0.19197 0.8748 0.0
N542 N 0.80902 0.20974 0.80539 0.0
C543 C 0.84807 0.22056 0.84012 0.0
C544 C 0.79221 0.18578 0.81962 0.0
C545 C 0.83698 0.22661 0.81495 0.0
C546 C 0.83062 0.19665 0.85532 0.0
C547 C 0.80243 0.17866 0.84505 0.0
O548 O 0.82631 0.21039 0.75741 0.0
O549 O 0.79347 0.26339 0.73863 0.0
O550 O 0.75514 0.25501 0.70605 0.0
O551 O 0.75296 0.20822 0.72916 0.0
O552 O 0.83162 0.25863 0.7575 0.0
O553 O 0.78295 0.18433 0.73956 0.0
O554 O 0.72041 0.28955 0.74739 0.0
O555 O 0.75327 0.23903 0.7633 0.0
O556 O 0.79126 0.24731 0.79564 0.0
O557 O 0.7934 0.29407 0.77277 0.0
O558 O 0.71503 0.24357 0.74432 0.0
O559 O 0.76414 0.32042 0.76004 0.0
C560 C 0.82093 0.27614 0.74126 0.0
C561 C 0.81814 0.16026 0.74708 0.0
C562 C 0.83809 0.12711 0.73138 0.0
C563 C 0.83238 0.15466 0.72917 0.0
C564 C 0.82954 0.1053 0.75198 0.0
C565 C 0.80997 0.13845 0.76764 0.0
C566 C 0.81575 0.11109 0.77006 0.0
C567 C 0.74967 0.22503 0.7076 0.0
C568 C 0.81075 0.18828 0.74307 0.0
C569 C 0.78444 0.15359 0.85922 0.0
C570 C 0.75695 0.13524 0.84783 0.0
C571 C 0.72581 0.22618 0.76064 0.0
C572 C 0.72534 0.3395 0.75548 0.0
C573 C 0.71792 0.34832 0.77626 0.0
C574 C 0.70555 0.3715 0.77319 0.0
C575 C 0.70153 0.38621 0.74877 0.0
C576 C 0.72134 0.3545 0.73142 0.0
C577 C 0.70959 0.37789 0.72816 0.0
C578 C 0.79631 0.27719 0.79438 0.0
C579 C 0.73611 0.31373 0.75946 0.0
H580 H 0.83831 0.17143 0.71312 0.0
H581 H 0.83377 0.08393 0.75419 0.0
H582 H 0.79891 0.14243 0.78158 0.0
H583 H 0.80934 0.09422 0.7859 0.0
H584 H 0.72177 0.33688 0.79482 0.0
H585 H 0.69159 0.40371 0.74539 0.0
H586 H 0.727 0.34793 0.71523 0.0
H587 H 0.70627 0.38931 0.70951 0.0
Eu588 Eu 0.75024 0.7247 0.72246 0.0
C589 C 0.85169 0.80094 0.79924 0.0
C590 C 0.85343 0.76399 0.83537 0.0
C591 C 0.89776 0.80649 0.8266 0.0
C592 C 0.83773 0.77454 0.81376 0.0
C593 C 0.88166 0.81779 0.80594 0.0
C594 C 0.88366 0.7796 0.84128 0.0
C595 C 0.87667 0.8576 0.77341 0.0
N596 N 0.83538 0.81153 0.77976 0.0
C597 C 0.84697 0.84016 0.76767 0.0
C598 C 0.89423 0.84613 0.79236 0.0
Eu599 Eu 0.78549 0.78055 0.77038 0.0
N600 N 0.80846 0.7602 0.80763 0.0
C601 C 0.79317 0.73664 0.8235 0.0
C602 C 0.83811 0.73865 0.85081 0.0
C603 C 0.80778 0.72524 0.84505 0.0
H604 H 0.83336 0.84907 0.75304 0.0
H605 H 0.79562 0.70602 0.85715 0.0
H606 H 0.89615 0.77161 0.85761 0.0
H607 H 0.88595 0.87988 0.76327 0.0
H608 H 0.76976 0.72586 0.81934 0.0
H609 H 0.73567 0.79728 0.63545 0.0
H610 H 0.84937 0.72977 0.86751 0.0
H611 H 0.70452 0.65523 0.74074 0.0
H612 H 0.76331 0.77859 0.67265 0.0
H613 H 0.65224 0.62286 0.7316 0.0
H614 H 0.92089 0.8189 0.83187 0.0
H615 H 0.68191 0.77224 0.62654 0.0
H616 H 0.63625 0.7294 0.63762 0.0
H617 H 0.91718 0.85978 0.79692 0.0
H618 H 0.61341 0.6818 0.66388 0.0
N619 N 0.72559 0.7437 0.68553 0.0
C620 C 0.7399 0.76727 0.66914 0.0
C621 C 0.69395 0.76388 0.64299 0.0
C622 C 0.67965 0.73844 0.65887 0.0
C623 C 0.72429 0.77801 0.64792 0.0
C624 C 0.69634 0.7286 0.68013 0.0
H625 H 0.61932 0.64153 0.69866 0.0
N626 N 0.70074 0.69213 0.71399 0.0
C627 C 0.66068 0.64517 0.72125 0.0
C628 C 0.68347 0.70199 0.69491 0.0
C629 C 0.69022 0.66349 0.72636 0.0
C630 C 0.64215 0.65584 0.70271 0.0
C631 C 0.6536 0.68428 0.68887 0.0
O632 O 0.75412 0.6814 0.71617 0.0
O633 O 0.78407 0.7369 0.75696 0.0
O634 O 0.82021 0.78575 0.74627 0.0
O635 O 0.79044 0.76329 0.7104 0.0
O636 O 0.75821 0.69116 0.75561 0.0
O637 O 0.77116 0.72212 0.69107 0.0
O638 O 0.78319 0.82463 0.77651 0.0
O639 O 0.75187 0.76859 0.73579 0.0
O640 O 0.71515 0.71971 0.74579 0.0
O641 O 0.7439 0.7431 0.78172 0.0
O642 O 0.77814 0.81428 0.73727 0.0
O643 O 0.76442 0.78421 0.80136 0.0
C644 C 0.77994 0.71036 0.76861 0.0
C645 C 0.75463 0.6744 0.67376 0.0
C646 C 0.76284 0.6486 0.64121 0.0
C647 C 0.77337 0.66505 0.6629 0.0
C648 C 0.73322 0.64143 0.63077 0.0
C649 C 0.7252 0.66699 0.66301 0.0
C650 C 0.71458 0.65052 0.64167 0.0
C651 C 0.81598 0.77968 0.72243 0.0
C652 C 0.76628 0.69273 0.69573 0.0
C653 C 0.63649 0.69489 0.66863 0.0
C654 C 0.64949 0.72196 0.65366 0.0
C655 C 0.75636 0.79522 0.72417 0.0
C656 C 0.78259 0.83207 0.8188 0.0
C657 C 0.76409 0.841 0.83038 0.0
C658 C 0.77522 0.85795 0.85181 0.0
C659 C 0.8052 0.86592 0.86127 0.0
C660 C 0.81233 0.84024 0.82868 0.0
C661 C 0.82354 0.85711 0.84976 0.0
C662 C 0.71872 0.72621 0.76941 0.0
C663 C 0.77054 0.81382 0.79676 0.0
H664 H 0.79622 0.67114 0.67101 0.0
H665 H 0.72439 0.62854 0.61427 0.0
H666 H 0.71049 0.67401 0.671 0.0
H667 H 0.69182 0.64485 0.63349 0.0
H668 H 0.74101 0.83433 0.82293 0.0
H669 H 0.8146 0.87933 0.87743 0.0
H670 H 0.82692 0.83365 0.82014 0.0
H671 H 0.84656 0.86342 0.8572 0.0
C672 C 0.97709 0.06701 0.54254 0.0
C673 C 1.01262 0.09263 0.47074 0.0
C674 C 0.96711 0.97383 0.45704 0.0
Mg675 Mg 0.03383 0.06952 0.52404 0.0
O676 O 1.01007 0.02936 0.51681 0.0
Mg677 Mg 0.97088 0.02292 0.49573 0.0
Mg678 Mg 0.02404 1.0041 0.49911 0.0
O679 O 0.03734 0.97838 0.48144 0.0
Mg680 Mg 1.01223 0.93842 0.47447 0.0
Mg681 Mg 0.07572 0.98336 0.50325 0.0
C682 C 0.08076 0.03559 0.54033 0.0
C683 C 0.0779 0.04724 0.46888 0.0
O684 O 0.96193 0.04872 0.52546 0.0
O685 O 1.00519 0.07741 0.5458 0.0
O686 O 0.98933 0.0687 0.4712 0.0
O687 O 0.03391 0.09708 0.48875 0.0
O688 O 0.07315 0.05897 0.5406 0.0
O689 O 0.06422 0.01184 0.52872 0.0
C690 C 0.97041 0.95893 0.5288 0.0
O691 O 0.99588 0.96389 0.52327 0.0
O692 O 0.95641 0.97735 0.52039 0.0
O693 O 0.08387 0.95549 0.47436 0.0
O694 O 0.04026 0.92906 0.45317 0.0
O695 O 0.05513 0.93856 0.52838 0.0
C696 C 0.0683 0.93786 0.45694 0.0
O697 O 1.01048 0.91129 0.51007 0.0
O698 O 0.97384 0.94995 0.4566 0.0
C699 C 0.0311 0.91545 0.52865 0.0
O700 O 0.9838 0.99668 0.46953 0.0
O701 O 0.05297 0.04409 0.47484 0.0
O702 O 0.09083 0.02786 0.47756 0.0
C703 C 0.44692 0.05235 0.02164 0.0
C704 C 0.46628 0.06286 0.94702 0.0
C705 C 0.47492 0.94289 0.98005 0.0
Mg706 Mg 0.50497 0.06852 0.00022 0.0
O707 O 0.49601 0.02619 0.0059 0.0
Mg708 Mg 0.45647 0.99949 0.99054 0.0
Mg709 Mg 0.52262 1.00417 0.0015 0.0
O710 O 0.549 0.98193 0.99708 0.0
Mg711 Mg 0.53955 0.93945 0.00374 0.0
Mg712 Mg 0.58863 0.00875 0.01219 0.0
C713 C 0.56982 0.06539 0.02354 0.0
C714 C 0.56756 0.04807 0.96189 0.0
O715 O 0.4365 0.02767 0.00993 0.0
O716 O 0.47369 0.07042 0.02216 0.0
O717 O 0.45422 0.03398 0.95367 0.0
O718 O 0.48799 0.08001 0.96126 0.0
O719 O 0.55177 0.07969 0.01482 0.0
O720 O 0.56225 0.03583 0.02549 0.0
C721 C 0.47755 0.96013 0.04086 0.0
O722 O 0.50436 0.97101 0.03664 0.0
O723 O 0.45752 0.96777 0.02619 0.0
O724 O 0.60782 0.98017 0.99241 0.0
O725 O 0.57073 0.93644 0.98223 0.0
O726 O 0.59122 0.97455 0.04911 0.0
C727 C 0.5973 0.95475 0.98168 0.0
O728 O 0.55689 0.9285 0.04279 0.0
O729 O 0.4925 0.92811 0.98917 0.0
C730 C 0.57911 0.94589 0.05642 0.0
O731 O 0.48314 0.97251 0.9777 0.0
O732 O 0.54078 0.03731 0.9662 0.0
O733 O 0.58755 0.04041 0.97656 0.0
C734 C 0.96611 0.57563 0.01699 0.0
C735 C 0.97057 0.56932 0.94095 0.0
C736 C 0.96593 0.44791 0.98056 0.0
Mg737 Mg 1.0169 0.57755 0.98965 0.0
O738 O 1.00299 0.53576 0.00105 0.0
Mg739 Mg 0.96043 0.51221 0.99047 0.0
Mg740 Mg 0.02259 0.50693 0.99576 0.0
O741 O 0.04176 0.47758 0.99063 0.0
Mg742 Mg 0.02734 0.43608 0.0031 0.0
Mg743 Mg 0.08426 0.50052 0.00123 0.0
C744 C 0.07883 0.56594 0.01188 0.0
C745 C 0.06364 0.53939 0.95026 0.0
O746 O 0.95078 0.54875 0.0095 0.0
O747 O 0.99255 0.59002 0.01259 0.0
O748 O 0.95689 0.54296 0.95194 0.0
O749 O 0.99606 0.58595 0.95089 0.0
O750 O 0.06358 0.58326 0.00263 0.0
O751 O 0.06728 0.53631 0.01485 0.0
C752 C 0.98138 0.47312 0.04093 0.0
O753 O 1.00644 0.47909 0.03383 0.0
O754 O 0.96208 0.48319 0.02776 0.0
O755 O 0.09325 0.46269 0.98289 0.0
O756 O 0.05109 0.42184 0.98092 0.0
O757 O 0.08779 0.47053 0.0402 0.0
C758 C 0.0775 0.43548 0.97621 0.0
O759 O 0.04804 0.42826 0.04198 0.0
O760 O 0.98062 0.43026 0.99047 0.0
C761 C 0.07379 0.44461 0.0516 0.0
O762 O 0.97794 0.47738 0.97662 0.0
O763 O 0.03911 0.53517 0.95773 0.0
O764 O 0.08212 0.52813 0.96343 0.0
C765 C 0.45771 0.56282 0.02567 0.0
C766 C 0.48046 0.56792 0.94911 0.0
C767 C 0.46332 0.45094 0.96597 0.0
Mg768 Mg 0.51396 0.57168 0.00287 0.0
O769 O 0.49899 0.52843 0.0082 0.0
Mg770 Mg 0.45787 0.50706 0.99225 0.0
Mg771 Mg 0.51848 0.50391 0.99573 0.0
O772 O 0.53795 0.47988 0.98289 0.0
Mg773 Mg 0.52218 0.43668 0.98533 0.0
Mg774 Mg 0.57873 0.50005 0.00012 0.0
C775 C 0.57301 0.55731 0.02414 0.0
C776 C 0.56195 0.54878 0.95652 0.0
O777 O 0.44482 0.53757 0.01494 0.0
O778 O 0.48446 0.57963 0.02379 0.0
O779 O 0.46254 0.54234 0.95748 0.0
O780 O 0.50349 0.5833 0.963 0.0
O781 O 0.55922 0.57645 0.0189 0.0
O782 O 0.56079 0.52886 0.01967 0.0
C783 C 0.477 0.46102 0.03705 0.0
O784 O 0.50135 0.46802 0.02852 0.0
O785 O 0.45757 0.4727 0.0267 0.0
O786 O 0.59258 0.47016 0.97675 0.0
O787 O 0.55213 0.43037 0.96451 0.0
O788 O 0.57158 0.46288 0.03394 0.0
C789 C 0.57939 0.4462 0.96433 0.0
O790 O 0.53135 0.42219 0.02443 0.0
O791 O 0.47703 0.43183 0.96922 0.0
C792 C 0.55299 0.43652 0.0401 0.0
O793 O 0.4758 0.47854 0.97249 0.0
O794 O 0.53637 0.54015 0.96324 0.0
O795 O 0.5811 0.53689 0.96739 0.0
C796 C 0.94933 0.55351 0.521 0.0
C797 C 0.97235 0.56626 0.448 0.0
C798 C 0.97622 0.44383 0.47768 0.0
Mg799 Mg 1.00869 0.56842 0.50187 0.0
O800 O 0.9981 0.52581 0.50659 0.0
Mg801 Mg 0.95874 0.50069 0.48972 0.0
Mg802 Mg 0.02407 0.50321 0.50191 0.0
O803 O 0.05006 0.48058 0.49726 0.0
Mg804 Mg 0.03964 0.43794 0.50246 0.0
Mg805 Mg 0.08943 0.50595 0.51405 0.0
C806 C 0.07171 0.56232 0.52737 0.0
C807 C 0.07101 0.54768 0.46418 0.0
O808 O 0.93906 0.52868 0.5095 0.0
O809 O 0.97622 0.5713 0.52192 0.0
O810 O 0.95885 0.5374 0.45381 0.0
O811 O 0.99434 0.58198 0.46284 0.0
O812 O 0.05474 0.57789 0.51868 0.0
O813 O 0.06316 0.53284 0.52748 0.0
C814 C 0.977 0.45856 0.5395 0.0
O815 O 1.00403 0.46899 0.53591 0.0
O816 O 0.95769 0.4672 0.52462 0.0
O817 O 0.10906 0.47796 0.4942 0.0
O818 O 0.07202 0.43501 0.48223 0.0
O819 O 0.08956 0.4699 0.55006 0.0
C820 C 0.09883 0.45302 0.48284 0.0
O821 O 0.05425 0.42502 0.54169 0.0
O822 O 0.99324 0.42834 0.4865 0.0
C823 C 0.07619 0.44119 0.55633 0.0
O824 O 0.98496 0.47344 0.47654 0.0
O825 O 0.044 0.53731 0.46778 0.0
O826 O 0.09032 0.53917 0.47914 0.0
C827 C 0.46657 0.07587 0.51707 0.0
C828 C 0.47351 0.07158 0.44145 0.0
C829 C 0.46756 0.94926 0.47934 0.0
Mg830 Mg 0.51839 0.07845 0.4909 0.0
O831 O 0.50418 0.03643 0.50144 0.0
Mg832 Mg 0.46186 0.01323 0.48991 0.0
Mg833 Mg 0.52393 0.00785 0.49593 0.0
O834 O 0.54344 0.97909 0.49043 0.0
Mg835 Mg 0.52872 0.93745 0.50235 0.0
Mg836 Mg 0.58583 1.00203 0.50195 0.0
C837 C 0.57995 0.06659 0.51347 0.0
C838 C 0.56614 0.04262 0.45156 0.0
O839 O 0.45155 0.04918 0.5091 0.0
O840 O 0.49324 0.0904 0.51338 0.0
O841 O 0.45938 0.04498 0.45181 0.0
O842 O 0.49883 0.08781 0.45199 0.0
O843 O 0.56486 0.08409 0.50438 0.0
O844 O 0.56831 0.03696 0.51592 0.0
C845 C 0.48174 0.97297 0.54026 0.0
O846 O 0.50711 0.97915 0.53367 0.0
O847 O 0.46288 0.98353 0.52682 0.0
O848 O 0.59539 0.96488 0.4832 0.0
O849 O 0.55334 0.92386 0.48066 0.0
O850 O 0.58834 0.97074 0.54041 0.0
C851 C 0.57987 0.93769 0.47632 0.0
O852 O 0.54821 0.92879 0.54137 0.0
O853 O 0.48215 0.9315 0.48916 0.0
C854 C 0.57389 0.94472 0.55141 0.0
O855 O 0.47962 0.97876 0.47589 0.0
O856 O 0.54087 0.03663 0.4583 0.0
O857 O 0.5849 0.03173 0.46479 0.0
C858 C 0.17705 0.20152 0.28176 0.0
C859 C 0.2053 0.22087 0.29097 0.0
C860 C 0.15657 0.18601 0.29835 0.0
C861 C 0.13985 0.1835 0.36283 0.0
H862 H 0.1153 0.09486 0.3628 0.0
C863 C 0.11382 0.07096 0.43816 0.0
C864 C 0.09046 0.0716 0.44909 0.0
C865 C 0.12307 0.09098 0.4171 0.0
C866 C 0.12176 0.11958 0.36288 0.0
H867 H 0.23313 0.24129 0.32454 0.0
H868 H 0.1975 0.21486 0.35301 0.0
H869 H 0.13795 0.12815 0.32741 0.0
H870 H 0.0595 0.09473 0.44705 0.0
H871 H 0.0763 0.13049 0.41054 0.0
H872 H 0.12467 0.17478 0.3989 0.0
C873 C 0.19124 0.21129 0.3331 0.0
C874 C 0.13439 0.13859 0.34252 0.0
C875 C 0.2118 0.22624 0.3167 0.0
C876 C 0.07751 0.09372 0.43912 0.0
C877 C 0.08705 0.1141 0.4182 0.0
C878 C 0.12685 0.16443 0.38308 0.0
C879 C 0.16376 0.19037 0.32426 0.0
C880 C 0.14452 0.17072 0.34276 0.0
C881 C 0.10944 0.11232 0.40666 0.0
C882 C 0.11875 0.13237 0.38367 0.0
H883 H 0.17098 0.19772 0.26193 0.0
H884 H 0.13537 0.17014 0.29106 0.0
H885 H 0.14739 0.20824 0.36336 0.0
H886 H 0.12437 0.05427 0.44527 0.0
H887 H 0.14079 0.08959 0.4088 0.0
C888 C 0.90873 0.24654 0.36662 0.0
C889 C 0.89379 0.23872 0.3424 0.0
C890 C 0.93702 0.24596 0.37408 0.0
C891 C 0.99375 0.2354 0.39034 0.0
H892 H 0.9934 0.16525 0.36026 0.0
C893 C 0.03618 0.1458 0.45033 0.0
C894 C 1.01422 0.11643 0.44924 0.0
C895 C 0.03519 0.16942 0.43143 0.0
C896 C 0.9941 0.18504 0.3688 0.0
H897 H 0.90015 0.23004 0.30562 0.0
H898 H 0.94978 0.23298 0.3177 0.0
H899 H 0.9662 0.1963 0.33749 0.0
H900 H 0.97562 0.08807 0.42639 0.0
H901 H 0.97346 0.12897 0.394 0.0
H902 H 1.01874 0.22116 0.42309 0.0
C903 C 0.93871 0.23663 0.33178 0.0
C904 C 0.9787 0.20339 0.35554 0.0
C905 C 0.90994 0.23562 0.32466 0.0
C906 C 0.99261 0.11053 0.42801 0.0
C907 C 0.99166 0.13401 0.40918 0.0
C908 C 1.00856 0.21646 0.4039 0.0
C909 C 0.95167 0.23889 0.35716 0.0
C910 C 0.97639 0.22742 0.36693 0.0
C911 C 1.01235 0.16399 0.41106 0.0
C912 C 1.0069 0.18974 0.39394 0.0
H913 H 0.89809 0.25116 0.38053 0.0
H914 H 0.9461 0.24854 0.39376 0.0
H915 H 0.9939 0.25464 0.39927 0.0
H916 H 0.0534 0.15095 0.46632 0.0
H917 H 0.0516 0.19217 0.43326 0.0
C918 C 0.80423 0.84804 0.30887 0.0
C919 C 0.81602 0.84657 0.28755 0.0
C920 C 0.81517 0.87442 0.32178 0.0
C921 C 0.88346 0.94071 0.33238 0.0
H922 H 0.84075 0.95252 0.38102 0.0
C923 C 0.94534 1.00035 0.42021 0.0
C924 C 0.9415 0.97623 0.43958 0.0
C925 C 0.92481 0.99723 0.3983 0.0
C926 C 0.85283 0.95012 0.36714 0.0
H927 H 0.84587 0.87346 0.26114 0.0
H928 H 0.86474 0.92003 0.28329 0.0
H929 H 0.81394 0.92336 0.34484 0.0
H930 H 0.91211 0.93188 0.45293 0.0
H931 H 0.87555 0.92705 0.41529 0.0
H932 H 0.92233 0.96688 0.35514 0.0
C933 C 0.84791 0.90008 0.29079 0.0
C934 C 0.83759 0.93305 0.3466 0.0
C935 C 0.83712 0.87331 0.27802 0.0
C936 C 0.91532 0.95081 0.43825 0.0
C937 C 0.89444 0.94812 0.41674 0.0
C938 C 0.89861 0.95842 0.35253 0.0
C939 C 0.83777 0.90061 0.31338 0.0
C940 C 0.85283 0.92631 0.32997 0.0
C941 C 0.89989 0.97038 0.39598 0.0
C942 C 0.88351 0.96169 0.37088 0.0
H943 H 0.78672 0.8286 0.31598 0.0
H944 H 0.8067 0.87351 0.33908 0.0
H945 H 0.89613 0.93613 0.32017 0.0
H946 H 0.96559 0.02001 0.42079 0.0
H947 H 0.92949 0.01456 0.38246 0.0
C948 C 0.17497 0.85324 0.30663 0.0
C949 C 0.18853 0.87627 0.28834 0.0
C950 C 0.16393 0.86045 0.32597 0.0
C951 C 0.13467 0.91585 0.3407 0.0
H952 H 0.1491 0.88419 0.41052 0.0
C953 C 0.06734 0.91715 0.41648 0.0
C954 C 0.08313 0.92908 0.43936 0.0
C955 C 0.08139 0.91095 0.39888 0.0
C956 C 0.14501 0.89329 0.39112 0.0
H957 H 0.20147 0.92525 0.27664 0.0
H958 H 0.1813 0.93752 0.30988 0.0
H959 H 0.17195 0.87339 0.37816 0.0
H960 H 0.12607 0.94298 0.46188 0.0
H961 H 0.15053 0.93145 0.43118 0.0
H962 H 0.10736 0.93528 0.35351 0.0
C963 C 0.17931 0.91386 0.30915 0.0
C964 C 0.15791 0.88696 0.3726 0.0
C965 C 0.19072 0.90675 0.29001 0.0
C966 C 0.11325 0.93385 0.44446 0.0
C967 C 0.12725 0.92718 0.42693 0.0
C968 C 0.12144 0.92176 0.35912 0.0
C969 C 0.16577 0.89079 0.32732 0.0
C970 C 0.15282 0.89814 0.34718 0.0
C971 C 0.11152 0.91611 0.4038 0.0
C972 C 0.12637 0.91046 0.38451 0.0
H973 H 0.17227 0.82941 0.30578 0.0
H974 H 0.15325 0.84211 0.3395 0.0
H975 H 0.13018 0.92459 0.32126 0.0
H976 H 0.04414 0.91323 0.41183 0.0
H977 H 0.06864 0.90209 0.38134 0.0
C978 C 0.1413 0.79082 0.63718 0.0
C979 C 0.15518 0.8005 0.66113 0.0
C980 C 0.11113 0.78346 0.63072 0.0
C981 C 0.04936 0.77962 0.61575 0.0
H982 H 0.03978 0.84665 0.6429 0.0
C983 C 1.00577 0.86311 0.54962 0.0
C984 C 0.02758 0.89255 0.55088 0.0
C985 C 1.00508 0.84035 0.5697 0.0
C986 C 0.04167 0.82749 0.63525 0.0
H987 H 0.14714 0.80424 0.6986 0.0
H988 H 0.09467 0.78913 0.68791 0.0
H989 H 0.07047 0.82028 0.66768 0.0
H990 H 0.06373 0.92217 0.57509 0.0
H991 H 0.06294 0.88283 0.60963 0.0
H992 H 0.02368 0.79014 0.58183 0.0
C993 C 0.10724 0.78926 0.67348 0.0
C994 C 0.05918 0.81193 0.64963 0.0
C995 C 0.13757 0.79758 0.67973 0.0
C996 C 0.04704 0.89955 0.57332 0.0
C997 C 0.0462 0.877 0.59336 0.0
C998 C 0.03241 0.79576 0.6011 0.0
C999 C 0.09398 0.78491 0.64831 0.0
C1000 C 0.06566 0.78992 0.63899 0.0
C1001 C 0.02597 0.8468 0.59145 0.0
C1002 C 0.03087 0.82178 0.6099 0.0
H1003 H 0.15394 0.7912 0.62271 0.0
H1004 H 0.10209 0.77976 0.61117 0.0
H1005 H 0.05236 0.76152 0.60752 0.0
H1006 H 0.99014 0.85718 0.53267 0.0
H1007 H 0.98913 0.81738 0.56774 0.0
C1008 C 0.22271 0.13801 0.72046 0.0
C1009 C 0.23457 0.16852 0.70984 0.0
C1010 C 0.21285 0.11339 0.70524 0.0
C1011 C 0.21663 0.09358 0.64199 0.0
H1012 H 0.13553 0.04121 0.64356 0.0
C1013 C 0.10742 0.0128 0.57643 0.0
C1014 C 0.1081 0.03568 0.55633 0.0
C1015 C 0.12974 0.01845 0.59712 0.0
C1016 C 0.15848 0.05485 0.64322 0.0
H1017 H 0.24615 0.1968 0.67497 0.0
H1018 H 0.22923 0.15438 0.64887 0.0
H1019 H 0.16192 0.0725 0.67845 0.0
H1020 H 0.13372 0.08055 0.54041 0.0
H1021 H 0.17298 0.0901 0.57585 0.0
H1022 H 0.21244 0.07769 0.60582 0.0
C1023 C 0.22769 0.14927 0.6689 0.0
C1024 C 0.1736 0.07289 0.66325 0.0
C1025 C 0.23716 0.17373 0.68393 0.0
C1026 C 0.1329 0.06255 0.55569 0.0
C1027 C 0.1554 0.06794 0.57604 0.0
C1028 C 0.20151 0.07561 0.62197 0.0
C1029 C 0.21518 0.11884 0.67926 0.0
C1030 C 0.20228 0.09373 0.66212 0.0
C1031 C 0.15319 0.0468 0.59764 0.0
C1032 C 0.17178 0.05738 0.62173 0.0
H1033 H 0.22081 0.13313 0.74042 0.0
H1034 H 0.20328 0.09016 0.71374 0.0
H1035 H 0.23897 0.10894 0.6409 0.0
H1036 H 0.08829 0.99202 0.57739 0.0
H1037 H 0.12759 1.00169 0.61345 0.0
C1038 C 0.84063 0.09291 0.70096 0.0
C1039 C 0.85246 0.12106 0.71194 0.0
C1040 C 0.85365 0.08764 0.68203 0.0
C1041 C 0.92329 0.11102 0.65737 0.0
H1042 H 0.87566 0.07961 0.59519 0.0
C1043 C 0.97624 0.10054 0.57427 0.0
C1044 C 0.9617 0.07511 0.55998 0.0
C1045 C 0.9624 0.10708 0.5919 0.0
C1046 C 0.88929 0.08795 0.61255 0.0
H1047 H 0.88743 0.16555 0.71208 0.0
H1048 H 0.91051 0.15613 0.67931 0.0
H1049 H 0.8527 0.08821 0.62825 0.0
H1050 H 0.92105 0.0367 0.55293 0.0
H1051 H 0.89727 0.04742 0.5842 0.0
H1052 H 0.95975 0.10996 0.64228 0.0
C1053 C 0.89106 0.13824 0.68523 0.0
C1054 C 0.87609 0.09298 0.63145 0.0
C1055 C 0.87778 0.14369 0.70386 0.0
C1056 C 0.93281 0.05664 0.56347 0.0
C1057 C 0.91911 0.0629 0.58139 0.0
C1058 C 0.93645 0.10559 0.63866 0.0
C1059 C 0.87903 0.11024 0.67401 0.0
C1060 C 0.89297 0.10465 0.65402 0.0
C1061 C 0.9338 0.08808 0.59603 0.0
C1062 C 0.91968 0.09406 0.61591 0.0
H1063 H 0.821 0.07516 0.70669 0.0
H1064 H 0.84404 0.06577 0.67383 0.0
H1065 H 0.93679 0.11969 0.67471 0.0
H1066 H 0.99842 0.11542 0.57188 0.0
H1067 H 0.97424 0.1271 0.60231 0.0
C1068 C 0.85892 0.82316 0.70774 0.0
C1069 C 0.84039 0.79228 0.70742 0.0
C1070 C 0.87841 0.83614 0.69 0.0
C1071 C 0.88281 0.82597 0.62538 0.0
H1072 H 0.95768 0.89224 0.63593 0.0
C1073 C 0.92771 0.92106 0.54824 0.0
C1074 C 0.95792 0.93276 0.54715 0.0
C1075 C 0.91631 0.89874 0.56744 0.0
C1076 C 0.93704 0.87341 0.63272 0.0
H1077 H 0.82918 0.75002 0.68985 0.0
H1078 H 0.86333 0.77249 0.6591 0.0
H1079 H 0.93443 0.86268 0.67239 0.0
H1080 H 0.99986 0.93015 0.56509 0.0
H1081 H 0.97985 0.89064 0.59843 0.0
H1082 H 0.88502 0.83716 0.58575 0.0
C1083 C 0.86248 0.78692 0.67262 0.0
C1084 C 0.92361 0.85671 0.65357 0.0
C1085 C 0.84297 0.77406 0.69023 0.0
C1086 C 0.97641 0.92104 0.56516 0.0
C1087 C 0.96503 0.89876 0.58443 0.0
C1088 C 0.89616 0.8427 0.60458 0.0
C1089 C 0.87964 0.81837 0.67171 0.0
C1090 C 0.89602 0.8333 0.65009 0.0
C1091 C 0.93492 0.88783 0.58602 0.0
C1092 C 0.92303 0.86711 0.60801 0.0
H1093 H 0.85699 0.83784 0.72039 0.0
H1094 H 0.89109 0.86055 0.68961 0.0
H1095 H 0.86141 0.80829 0.622 0.0
H1096 H 0.91296 0.92973 0.53463 0.0
H1097 H 0.89305 0.89103 0.56835 0.0
C1098 C 0.31248 0.13873 0.14728 0.0
C1099 C 0.28465 0.13858 0.13541 0.0
C1100 C 0.33006 0.12969 0.13486 0.0
C1101 C 0.32659 0.08086 0.08705 0.0
H1102 H 0.40682 0.13348 0.08142 0.0
C1103 C 0.39728 0.05102 0.02752 0.0
C1104 C 0.42766 0.06051 0.03517 0.0
C1105 C 0.37961 0.06032 0.03966 0.0
C1106 C 0.38466 0.1181 0.08318 0.0
H1107 H 0.25426 0.12955 0.10051 0.0
H1108 H 0.28441 0.11256 0.07953 0.0
H1109 H 0.37702 0.14998 0.10322 0.0
H1110 H 0.46315 0.08614 0.0622 0.0
H1111 H 0.43246 0.10095 0.08409 0.0
H1112 H 0.33425 0.0484 0.06793 0.0
C1113 C 0.29246 0.1197 0.09849 0.0
C1114 C 0.36754 0.12777 0.09556 0.0
C1115 C 0.27512 0.1293 0.11066 0.0
C1116 C 0.43985 0.07876 0.05562 0.0
C1117 C 0.42218 0.0875 0.06806 0.0
C1118 C 0.34387 0.07087 0.07509 0.0
C1119 C 0.32007 0.11975 0.11047 0.0
C1120 C 0.33831 0.10931 0.09754 0.0
C1121 C 0.39181 0.07884 0.06008 0.0
C1122 C 0.3732 0.08936 0.0729 0.0
H1123 H 0.32052 0.14514 0.16642 0.0
H1124 H 0.35121 0.12977 0.14459 0.0
H1125 H 0.30415 0.06605 0.08852 0.0
H1126 H 0.38727 0.03712 0.01171 0.0
H1127 H 0.35647 0.05347 0.0326 0.0
C1128 C 0.81269 0.32228 0.18424 0.0
C1129 C 0.81688 0.32975 0.20917 0.0
C1130 C 0.83516 0.33523 0.16916 0.0
C1131 C 0.90167 0.40378 0.16097 0.0
H1132 H 0.91331 0.35525 0.11451 0.0
C1133 C 0.98365 0.46008 0.08808 0.0
C1134 C 0.97212 0.45168 0.06338 0.0
C1135 C 0.96935 0.44306 0.10868 0.0
C1136 C 0.91035 0.36923 0.12731 0.0
H1137 H 0.84679 0.3593 0.23704 0.0
H1138 H 0.88634 0.38221 0.21076 0.0
H1139 H 0.87906 0.3302 0.14494 0.0
H1140 H 0.93735 0.41862 0.04092 0.0
H1141 H 0.91287 0.38881 0.07643 0.0
H1142 H 0.93237 0.44295 0.14286 0.0
C1143 C 0.86596 0.3654 0.20306 0.0
C1144 C 0.89062 0.35482 0.14478 0.0
C1145 C 0.84348 0.35204 0.21825 0.0
C1146 C 0.94703 0.42522 0.05983 0.0
C1147 C 0.93296 0.40814 0.08028 0.0
C1148 C 0.92141 0.41822 0.14346 0.0
C1149 C 0.86216 0.35707 0.17829 0.0
C1150 C 0.88547 0.37197 0.16149 0.0
C1151 C 0.94335 0.41726 0.10495 0.0
C1152 C 0.92555 0.40128 0.12596 0.0
H1153 H 0.79172 0.30708 0.17614 0.0
H1154 H 0.83092 0.32894 0.14995 0.0
H1155 H 0.89817 0.41785 0.17335 0.0
H1156 H 1.00261 0.48076 0.09127 0.0
H1157 H 0.97815 0.45066 0.12741 0.0
C1158 C 0.7453 0.83977 0.21346 0.0
C1159 C 0.73551 0.80744 0.21711 0.0
C1160 C 0.72918 0.85508 0.19596 0.0
C1161 C 0.66601 0.8422 0.14227 0.0
H1162 H 0.66605 0.91997 0.15843 0.0
C1163 C 0.58432 0.89894 0.08431 0.0
C1164 C 0.59451 0.93118 0.07852 0.0
C1165 C 0.60119 0.88437 0.10168 0.0
C1166 C 0.66588 0.89843 0.15336 0.0
H1167 H 0.70011 0.76592 0.20615 0.0
H1168 H 0.67188 0.79221 0.17589 0.0
H1169 H 0.69622 0.89415 0.18631 0.0
H1170 H 0.63068 0.97313 0.08771 0.0
H1171 H 0.65974 0.94794 0.11802 0.0
H1172 H 0.63546 0.84639 0.10944 0.0
C1173 C 0.69261 0.80606 0.1857 0.0
C1174 C 0.68342 0.8835 0.16945 0.0
C1175 C 0.70885 0.79081 0.2031 0.0
C1176 C 0.62173 0.94837 0.09164 0.0
C1177 C 0.63855 0.93378 0.10914 0.0
C1178 C 0.64838 0.85706 0.12626 0.0
C1179 C 0.70223 0.83857 0.18196 0.0
C1180 C 0.68385 0.85501 0.1643 0.0
C1181 C 0.62892 0.90141 0.11409 0.0
C1182 C 0.64787 0.88545 0.13148 0.0
H1183 H 0.76533 0.8533 0.22445 0.0
H1184 H 0.73785 0.87998 0.19363 0.0
H1185 H 0.66588 0.82073 0.13709 0.0
H1186 H 0.56363 0.88464 0.07472 0.0
H1187 H 0.59248 0.85954 0.10518 0.0
C1188 C 0.25296 0.72191 0.1612 0.0
C1189 C 0.24003 0.70813 0.18302 0.0
C1190 C 0.24575 0.70567 0.1398 0.0
C1191 C 0.20352 0.62644 0.118 0.0
H1192 H 0.20098 0.67246 0.05245 0.0
C1193 C 0.12141 0.61374 0.02102 0.0
C1194 C 0.10992 0.58145 0.02202 0.0
C1195 C 0.14746 0.62873 0.03596 0.0
C1196 C 0.20125 0.65911 0.0706 0.0
H1197 H 0.20897 0.66726 0.1997 0.0
H1198 H 0.19429 0.63994 0.16198 0.0
H1199 H 0.22406 0.69972 0.08956 0.0
H1200 H 0.11909 0.53982 0.03654 0.0
H1201 H 0.16559 0.56613 0.06163 0.0
H1202 H 0.17755 0.5862 0.09952 0.0
C1203 C 0.21135 0.66241 0.16145 0.0
C1204 C 0.21511 0.67485 0.09205 0.0
C1205 C 0.21933 0.67825 0.18305 0.0
C1206 C 0.12701 0.56471 0.03578 0.0
C1207 C 0.15357 0.57985 0.05041 0.0
C1208 C 0.18865 0.61082 0.09669 0.0
C1209 C 0.22468 0.67567 0.13953 0.0
C1210 C 0.21516 0.65883 0.11625 0.0
C1211 C 0.1632 0.61192 0.05196 0.0
C1212 C 0.18592 0.62712 0.07284 0.0
H1213 H 0.26932 0.74485 0.16092 0.0
H1214 H 0.25696 0.71665 0.12363 0.0
H1215 H 0.20443 0.613 0.13605 0.0
H1216 H 0.10918 0.62753 0.01024 0.0
H1217 H 0.15364 0.65332 0.03638 0.0
C1218 C 0.31583 0.76246 0.84277 0.0
C1219 C 0.32565 0.78133 0.82115 0.0
C1220 C 0.3248 0.77421 0.86642 0.0
C1221 C 0.34081 0.84416 0.89308 0.0
H1222 H 0.39733 0.82534 0.94616 0.0
C1223 C 0.4292 0.9337 0.94958 0.0
C1224 C 0.44431 0.92442 0.97191 0.0
C1225 C 0.40407 0.91234 0.93771 0.0
C1226 C 0.38073 0.83034 0.93207 0.0
H1227 H 0.35305 0.82623 0.80678 0.0
H1228 H 0.3689 0.8468 0.84814 0.0
H1229 H 0.37565 0.79242 0.91163 0.0
H1230 H 0.44285 0.88763 0.00173 0.0
H1231 H 0.39837 0.85058 0.98146 0.0
H1232 H 0.34662 0.88279 0.91272 0.0
C1233 C 0.35446 0.82306 0.84688 0.0
C1234 C 0.36853 0.81151 0.91224 0.0
C1235 C 0.34584 0.81122 0.82343 0.0
C1236 C 0.43185 0.89497 0.98408 0.0
C1237 C 0.40646 0.87378 0.97247 0.0
C1238 C 0.35266 0.86277 0.91306 0.0
C1239 C 0.34315 0.80498 0.8683 0.0
C1240 C 0.34975 0.81932 0.89205 0.0
C1241 C 0.39358 0.88158 0.94828 0.0
C1242 C 0.37407 0.85711 0.93199 0.0
H1243 H 0.29981 0.73947 0.84112 0.0
H1244 H 0.31609 0.75998 0.88288 0.0
H1245 H 0.32603 0.85024 0.87765 0.0
H1246 H 0.43835 0.95642 0.93999 0.0
H1247 H 0.39478 0.91927 0.91909 0.0
C1248 C 0.185 0.29497 0.86975 0.0
C1249 C 0.16482 0.26511 0.86598 0.0
C1250 C 0.1774 0.31588 0.88049 0.0
C1251 C 0.11294 0.33166 0.89112 0.0
H1252 H 0.16579 0.37994 0.94427 0.0
C1253 C 0.07228 0.3892 0.95527 0.0
C1254 C 0.08975 0.4188 0.96251 0.0
C1255 C 0.08306 0.37305 0.94234 0.0
C1256 C 0.15096 0.36699 0.92917 0.0
H1257 H 0.12074 0.23401 0.87031 0.0
H1258 H 0.10759 0.27027 0.88916 0.0
H1259 H 0.1816 0.34676 0.92381 0.0
H1260 H 0.13259 0.45443 0.9618 0.0
H1261 H 0.15149 0.42603 0.93895 0.0
H1262 H 0.08223 0.35155 0.89646 0.0
C1263 C 0.12925 0.27763 0.88371 0.0
C1264 C 0.16 0.34794 0.91748 0.0
C1265 C 0.13689 0.2567 0.87316 0.0
C1266 C 0.1185 0.43172 0.95652 0.0
C1267 C 0.12938 0.4154 0.94353 0.0
C1268 C 0.10397 0.3507 0.9027 0.0
C1269 C 0.14936 0.30749 0.88747 0.0
C1270 C 0.14085 0.32958 0.89866 0.0
C1271 C 0.11166 0.38591 0.93615 0.0
C1272 C 0.1226 0.36812 0.92225 0.0
H1273 H 0.20678 0.30208 0.86462 0.0
H1274 H 0.19334 0.33874 0.88302 0.0
H1275 H 0.0979 0.31838 0.87629 0.0
H1276 H 0.05009 0.37828 0.95961 0.0
H1277 H 0.06898 0.35016 0.93747 0.0
C1278 C 0.67918 0.1867 0.77275 0.0
C1279 C 0.7085 0.20499 0.77988 0.0
C1280 C 0.66141 0.16944 0.79107 0.0
C1281 C 0.6543 0.16968 0.85766 0.0
H1282 H 0.60186 0.08512 0.85247 0.0
C1283 C 0.60506 0.09325 0.94297 0.0
C1284 C 0.57711 0.07035 0.93989 0.0
C1285 C 0.61761 0.11109 0.92217 0.0
C1286 C 0.61595 0.10892 0.85399 0.0
H1287 H 0.742 0.21999 0.81187 0.0
H1288 H 0.71129 0.18975 0.84377 0.0
H1289 H 0.6317 0.11185 0.81886 0.0
H1290 H 0.53981 0.04904 0.91254 0.0
H1291 H 0.56179 0.08069 0.87569 0.0
H1292 H 0.63877 0.16702 0.89264 0.0
C1293 C 0.70198 0.18857 0.82401 0.0
C1294 C 0.63319 0.12418 0.83478 0.0
C1295 C 0.71975 0.20561 0.8057 0.0
C1296 C 0.56128 0.06671 0.91547 0.0
C1297 C 0.57405 0.08455 0.89441 0.0
C1298 C 0.63699 0.15458 0.8767 0.0
C1299 C 0.67243 0.17065 0.81696 0.0
C1300 C 0.65301 0.15456 0.83665 0.0
C1301 C 0.60267 0.10659 0.8975 0.0
C1302 C 0.61801 0.12376 0.87546 0.0
H1303 H 0.66985 0.18618 0.75297 0.0
H1304 H 0.63873 0.15607 0.78499 0.0
H1305 H 0.66877 0.19333 0.85942 0.0
H1306 H 0.61782 0.09662 0.96157 0.0
H1307 H 0.63974 0.12743 0.92544 0.0
C1308 C 0.83226 0.71441 0.7882 0.0
C1309 C 0.80173 0.69925 0.78674 0.0
C1310 C 0.85189 0.70187 0.80429 0.0
C1311 C 0.85375 0.63998 0.8584 0.0
H1312 H 0.93005 0.65322 0.84097 0.0
C1313 C 0.9237 0.56782 0.91179 0.0
C1314 C 0.95392 0.58313 0.91915 0.0
C1315 C 0.9066 0.58254 0.89493 0.0
C1316 C 0.90889 0.64937 0.84629 0.0
H1317 H 0.76826 0.65815 0.80027 0.0
H1318 H 0.80173 0.6361 0.82738 0.0
H1319 H 0.89816 0.67801 0.81395 0.0
H1320 H 0.9896 0.6262 0.9131 0.0
H1321 H 0.95995 0.6515 0.88329 0.0
H1322 H 0.86423 0.61092 0.89041 0.0
C1323 C 0.811 0.6583 0.81713 0.0
C1324 C 0.89047 0.6638 0.83073 0.0
C1325 C 0.79156 0.67089 0.80128 0.0
C1326 C 0.96657 0.61335 0.90794 0.0
C1327 C 0.94944 0.62799 0.89078 0.0
C1328 C 0.87196 0.62533 0.8737 0.0
C1329 C 0.84165 0.67346 0.81914 0.0
C1330 C 0.86232 0.65921 0.83632 0.0
C1331 C 0.91895 0.61313 0.88446 0.0
C1332 C 0.89982 0.6295 0.8679 0.0
H1333 H 0.84101 0.73587 0.77679 0.0
H1334 H 0.87513 0.71468 0.80514 0.0
H1335 H 0.83288 0.63627 0.86418 0.0
H1336 H 0.91283 0.54468 0.91986 0.0
H1337 H 0.88341 0.56992 0.89032 0.0
C1338 C 0.25015 0.34012 0.1915 0.0
C1339 C 0.23982 0.31245 0.20686 0.0
C1340 C 0.23086 0.35266 0.1754 0.0
C1341 C 0.15208 0.34922 0.16254 0.0
H1342 H 0.17802 0.39971 0.10179 0.0
C1343 C 0.07701 0.40088 0.08521 0.0
C1344 C 0.09021 0.4307 0.07351 0.0
C1345 C 0.09376 0.3859 0.10244 0.0
C1346 C 0.1704 0.38599 0.11879 0.0
H1347 H 0.20041 0.27683 0.21774 0.0
H1348 H 0.16648 0.29794 0.18891 0.0
H1349 H 0.20869 0.37363 0.12808 0.0
H1350 H 0.1319 0.46811 0.07201 0.0
H1351 H 0.16069 0.44227 0.10169 0.0
H1352 H 0.11325 0.36122 0.15252 0.0
C1353 C 0.18976 0.31027 0.1894 0.0
C1354 C 0.18821 0.37091 0.13413 0.0
C1355 C 0.20926 0.29776 0.20575 0.0
C1356 C 0.12061 0.4453 0.08047 0.0
C1357 C 0.13734 0.43023 0.09741 0.0
C1358 C 0.13403 0.36408 0.14694 0.0
C1359 C 0.20019 0.33812 0.17388 0.0
C1360 C 0.17976 0.35257 0.1566 0.0
C1361 C 0.1244 0.39999 0.10836 0.0
C1362 C 0.14306 0.38313 0.12495 0.0
H1363 H 0.27348 0.35249 0.19219 0.0
H1364 H 0.24029 0.37441 0.16462 0.0
H1365 H 0.14452 0.33572 0.17962 0.0
H1366 H 0.0538 0.38857 0.08036 0.0
H1367 H 0.08281 0.36268 0.11031 0.0
C1368 C 0.19614 0.69534 0.77899 0.0
C1369 C 0.22365 0.71637 0.78787 0.0
C1370 C 0.17489 0.68094 0.79522 0.0
C1371 C 0.12988 0.65976 0.83318 0.0
H1372 H 0.16211 0.62524 0.89618 0.0
C1373 C 0.06598 0.58556 0.91815 0.0
C1374 C 0.07294 0.5589 0.92671 0.0
C1375 C 0.08077 0.60707 0.89946 0.0
C1376 C 0.15273 0.63486 0.87875 0.0
H1377 H 0.25073 0.73825 0.82076 0.0
H1378 H 0.21376 0.71357 0.84907 0.0
H1379 H 0.1949 0.66023 0.8676 0.0
H1380 H 0.09901 0.53283 0.92078 0.0
H1381 H 0.12438 0.56987 0.88873 0.0
H1382 H 0.08749 0.6335 0.84451 0.0
C1383 C 0.20832 0.70841 0.8295 0.0
C1384 C 0.17157 0.65517 0.86241 0.0
C1385 C 0.22946 0.72281 0.81325 0.0
C1386 C 0.09331 0.55326 0.91492 0.0
C1387 C 0.10801 0.57457 0.89658 0.0
C1388 C 0.11092 0.63962 0.84982 0.0
C1389 C 0.181 0.68664 0.8209 0.0
C1390 C 0.16049 0.66753 0.83917 0.0
C1391 C 0.10277 0.60224 0.88923 0.0
C1392 C 0.12218 0.62641 0.87254 0.0
H1393 H 0.19152 0.6891 0.75973 0.0
H1394 H 0.15434 0.66401 0.788 0.0
H1395 H 0.1206 0.66899 0.81551 0.0
H1396 H 0.05057 0.59072 0.92694 0.0
H1397 H 0.07619 0.62818 0.89406 0.0
C1398 C 0.34821 0.23053 0.80686 0.0
C1399 C 0.32143 0.21719 0.79153 0.0
C1400 C 0.36267 0.21232 0.82253 0.0
C1401 C 0.35385 0.13291 0.85329 0.0
H1402 H 0.43834 0.16277 0.85718 0.0
C1403 C 0.42391 0.06174 0.91179 0.0
C1404 C 0.45149 0.0781 0.92486 0.0
C1405 C 0.40786 0.07712 0.89419 0.0
C1406 C 0.41482 0.15407 0.85676 0.0
H1407 H 0.28921 0.17368 0.78049 0.0
H1408 H 0.31415 0.14162 0.80831 0.0
H1409 H 0.41049 0.19179 0.83056 0.0
H1410 H 0.48371 0.12398 0.92864 0.0
H1411 H 0.45612 0.15044 0.89854 0.0
H1412 H 0.35827 0.09537 0.87983 0.0
C1413 C 0.32386 0.16641 0.80839 0.0
C1414 C 0.39869 0.17087 0.84129 0.0
C1415 C 0.30941 0.18479 0.79247 0.0
C1416 C 0.46279 0.11027 0.91897 0.0
C1417 C 0.44678 0.1256 0.90147 0.0
C1418 C 0.37006 0.11613 0.86895 0.0
C1419 C 0.35106 0.17991 0.82341 0.0
C1420 C 0.36792 0.16084 0.8394 0.0
C1421 C 0.41874 0.10948 0.88897 0.0
C1422 C 0.40096 0.12652 0.87121 0.0
H1423 H 0.35828 0.25536 0.8065 0.0
H1424 H 0.38318 0.2238 0.83398 0.0
H1425 H 0.33028 0.12439 0.85261 0.0
H1426 H 0.41416 0.03704 0.91576 0.0
H1427 H 0.38671 0.06351 0.88483 0.0
C1428 C 0.80387 0.27497 0.84163 0.0
C1429 C 0.80496 0.29242 0.81806 0.0
C1430 C 0.81135 0.28945 0.86397 0.0
C1431 C 0.82555 0.36419 0.88917 0.0
H1432 H 0.88106 0.33886 0.93907 0.0
C1433 C 0.92154 0.44532 0.94939 0.0
C1434 C 0.93465 0.43286 0.97141 0.0
C1435 C 0.89551 0.42685 0.93614 0.0
C1436 C 0.86494 0.34585 0.92583 0.0
H1437 H 0.81431 0.33871 0.79945 0.0
H1438 H 0.82806 0.36391 0.83831 0.0
H1439 H 0.85528 0.30777 0.90438 0.0
H1440 H 0.92872 0.3933 0.99912 0.0
H1441 H 0.8828 0.36146 0.9765 0.0
H1442 H 0.83666 0.40334 0.91007 0.0
C1443 C 0.82081 0.33901 0.83959 0.0
C1444 C 0.85017 0.32796 0.9058 0.0
C1445 C 0.81327 0.32456 0.81728 0.0
C1446 C 0.91935 0.40322 0.98185 0.0
C1447 C 0.89312 0.38496 0.96885 0.0
C1448 C 0.84039 0.38218 0.90927 0.0
C1449 C 0.82013 0.32167 0.86319 0.0
C1450 C 0.83118 0.33753 0.88673 0.0
C1451 C 0.88209 0.39583 0.94496 0.0
C1452 C 0.86108 0.37377 0.9273 0.0
H1453 H 0.79712 0.2501 0.84288 0.0
H1454 H 0.8104 0.27544 0.88187 0.0
H1455 H 0.81054 0.3718 0.875 0.0
H1456 H 0.93281 0.46821 0.94103 0.0
H1457 H 0.88761 0.43603 0.91782 0.0
C1458 C 0.75906 0.86582 0.89096 0.0
C1459 C 0.75593 0.86747 0.86442 0.0
C1460 C 0.74204 0.87606 0.90294 0.0
C1461 C 0.6739 0.89415 0.89265 0.0
H1462 H 0.70978 0.93739 0.95287 0.0
C1463 C 0.60525 0.91776 0.95715 0.0
C1464 C 0.61617 0.94608 0.96794 0.0
C1465 C 0.62254 0.90936 0.944 0.0
C1466 C 0.69945 0.92564 0.93594 0.0
H1467 H 0.7322 0.88106 0.82969 0.0
H1468 H 0.70248 0.89901 0.85059 0.0
H1469 H 0.73921 0.9208 0.93066 0.0
H1470 H 0.65411 0.98777 0.9732 0.0
H1471 H 0.68425 0.97319 0.95001 0.0
H1472 H 0.63426 0.89943 0.89768 0.0
C1473 C 0.71793 0.88946 0.86217 0.0
C1474 C 0.71626 0.91575 0.92337 0.0
C1475 C 0.73495 0.87914 0.85016 0.0
C1476 C 0.64497 0.96576 0.96524 0.0
C1477 C 0.66231 0.95733 0.95201 0.0
C1478 C 0.6571 0.90406 0.90522 0.0
C1479 C 0.72141 0.88827 0.88873 0.0
C1480 C 0.70367 0.89964 0.90166 0.0
C1481 C 0.65128 0.92902 0.94117 0.0
C1482 C 0.66957 0.91971 0.92717 0.0
H1483 H 0.77462 0.85643 0.90254 0.0
H1484 H 0.74489 0.87411 0.92341 0.0
H1485 H 0.66337 0.88165 0.87613 0.0
H1486 H 0.58325 0.90185 0.95889 0.0
H1487 H 0.61344 0.88715 0.93635 0.0
C1488 C 0.87149 0.73432 0.11023 0.0
C1489 C 0.87546 0.73341 0.13676 0.0
C1490 C 0.87811 0.71366 0.09837 0.0
C1491 C 0.88142 0.65799 0.07795 0.0
H1492 H 0.95477 0.64558 0.10435 0.0
C1493 C 0.92357 0.57815 0.03492 0.0
C1494 C 0.9533 0.59072 0.03158 0.0
C1495 C 0.91196 0.59286 0.04871 0.0
C1496 C 0.93422 0.64881 0.09674 0.0
H1497 H 0.88909 0.70966 0.17161 0.0
H1498 H 0.90033 0.67338 0.15091 0.0
H1499 H 0.9379 0.67612 0.12638 0.0
H1500 H 0.99404 0.62867 0.04026 0.0
H1501 H 0.97385 0.65404 0.06404 0.0
H1502 H 0.8783 0.63136 0.04785 0.0
C1503 C 0.89231 0.69028 0.13928 0.0
C1504 C 0.92438 0.66605 0.10952 0.0
C1505 C 0.8856 0.71088 0.15115 0.0
C1506 C 0.97106 0.61822 0.0424 0.0
C1507 C 0.95954 0.63272 0.05625 0.0
C1508 C 0.89123 0.64059 0.0652 0.0
C1509 C 0.88894 0.69163 0.11275 0.0
C1510 C 0.89809 0.67126 0.10009 0.0
C1511 C 0.9299 0.62025 0.05962 0.0
C1512 C 0.918 0.63627 0.07423 0.0
H1513 H 0.86335 0.75112 0.0986 0.0
H1514 H 0.87551 0.71554 0.07791 0.0
H1515 H 0.8609 0.66129 0.07035 0.0
H1516 H 0.90925 0.55703 0.02684 0.0
H1517 H 0.88904 0.58263 0.05108 0.0
C1518 C 0.32663 0.79747 0.19562 0.0
C1519 C 0.33772 0.79755 0.22147 0.0
C1520 C 0.34445 0.81507 0.17753 0.0
C1521 C 0.41296 0.88017 0.16768 0.0
H1522 H 0.4077 0.83927 0.10875 0.0
C1523 C 0.48419 0.94042 0.08698 0.0
C1524 C 0.46802 0.93753 0.06266 0.0
C1525 C 0.47171 0.92192 0.10792 0.0
C1526 C 0.40941 0.85114 0.12501 0.0
H1527 H 0.37618 0.81598 0.24868 0.0
H1528 H 0.40743 0.84707 0.21703 0.0
H1529 H 0.37793 0.81168 0.14186 0.0
H1530 H 0.42702 0.9119 0.04096 0.0
H1531 H 0.40562 0.87994 0.0769 0.0
H1532 H 0.44398 0.91994 0.15042 0.0
C1533 C 0.38481 0.83369 0.21077 0.0
C1534 C 0.39223 0.83532 0.14398 0.0
C1535 C 0.36697 0.81587 0.22887 0.0
C1536 C 0.44002 0.91474 0.05949 0.0
C1537 C 0.42777 0.89623 0.08016 0.0
C1538 C 0.43009 0.89613 0.14856 0.0
C1539 C 0.37391 0.83301 0.18483 0.0
C1540 C 0.39336 0.84977 0.16534 0.0
C1541 C 0.44309 0.89995 0.10476 0.0
C1542 C 0.42809 0.88198 0.12673 0.0
H1543 H 0.30443 0.78316 0.18928 0.0
H1544 H 0.33523 0.81432 0.15774 0.0
H1545 H 0.41432 0.89197 0.18389 0.0
H1546 H 0.50574 0.95794 0.08996 0.0
H1547 H 0.48422 0.92517 0.1266 0.0
C1548 C 0.74253 0.25305 0.15434 0.0
C1549 C 0.72457 0.25447 0.17112 0.0
C1550 C 0.73041 0.23768 0.13269 0.0
C1551 C 0.69979 0.17885 0.10722 0.0
H1552 H 0.63154 0.18087 0.05989 0.0
C1553 C 0.6139 0.07742 0.05605 0.0
C1554 C 0.59991 0.08469 0.03228 0.0
C1555 C 0.63677 0.1006 0.06855 0.0
C1556 C 0.65096 0.1804 0.07269 0.0
H1557 H 0.67972 0.24373 0.17704 0.0
H1558 H 0.65826 0.2166 0.13871 0.0
H1559 H 0.65415 0.22005 0.0899 0.0
H1560 H 0.60138 0.11989 0.00108 0.0
H1561 H 0.64149 0.16021 0.02278 0.0
H1562 H 0.69579 0.13837 0.09075 0.0
C1563 C 0.68183 0.22738 0.14262 0.0
C1564 C 0.66362 0.20259 0.08997 0.0
C1565 C 0.69406 0.2429 0.16448 0.0
C1566 C 0.61163 0.11401 0.01966 0.0
C1567 C 0.63444 0.13706 0.03206 0.0
C1568 C 0.6869 0.15641 0.09014 0.0
C1569 C 0.70006 0.22347 0.12728 0.0
C1570 C 0.68791 0.20176 0.10755 0.0
C1571 C 0.64576 0.13102 0.05722 0.0
C1572 C 0.66218 0.15681 0.07293 0.0
H1573 H 0.76612 0.26189 0.15872 0.0
H1574 H 0.74486 0.23542 0.1209 0.0
H1575 H 0.71838 0.17757 0.12084 0.0
H1576 H 0.60515 0.0549 0.06607 0.0
H1577 H 0.64526 0.09538 0.08796 0.0
C1578 C 0.67541 0.683 0.78338 0.0
C1579 C 0.69339 0.71406 0.7833 0.0
C1580 C 0.65341 0.67089 0.79886 0.0
C1581 C 0.63789 0.68575 0.85856 0.0
H1582 H 0.57018 0.61182 0.84611 0.0
C1583 C 0.60021 0.59103 0.93562 0.0
C1584 C 0.57042 0.57375 0.93621 0.0
C1585 C 0.6091 0.61365 0.91604 0.0
C1586 C 0.58857 0.63286 0.84975 0.0
H1587 H 0.70167 0.75743 0.79803 0.0
H1588 H 0.66273 0.73663 0.82462 0.0
H1589 H 0.59571 0.64194 0.81099 0.0
H1590 H 0.52646 0.56693 0.91698 0.0
H1591 H 0.54215 0.60684 0.88224 0.0
H1592 H 0.63116 0.67632 0.89733 0.0
C1593 C 0.66594 0.7213 0.81323 0.0
C1594 C 0.60346 0.6499 0.8297 0.0
C1595 C 0.6882 0.73325 0.79801 0.0
C1596 C 0.54954 0.58011 0.91704 0.0
C1597 C 0.55851 0.60275 0.89715 0.0
C1598 C 0.62291 0.66889 0.87848 0.0
C1599 C 0.64884 0.68974 0.81446 0.0
C1600 C 0.62913 0.67571 0.83411 0.0
C1601 C 0.58846 0.61958 0.89643 0.0
C1602 C 0.59904 0.64143 0.87452 0.0
H1603 H 0.67945 0.66761 0.77274 0.0
H1604 H 0.64119 0.64638 0.79965 0.0
H1605 H 0.65757 0.70537 0.86283 0.0
H1606 H 0.61682 0.58685 0.95021 0.0
H1607 H 0.63235 0.62576 0.91582 0.0
C1608 C 0.34289 0.60375 0.75606 0.0
C1609 C 0.34302 0.63288 0.74511 0.0
C1610 C 0.36638 0.60094 0.77362 0.0
C1611 C 0.42365 0.59978 0.80394 0.0
H1612 H 0.44386 0.65145 0.85917 0.0
C1613 C 0.45346 0.55887 0.90571 0.0
C1614 C 0.47418 0.57919 0.92242 0.0
C1615 C 0.44595 0.56922 0.88086 0.0
C1616 C 0.43914 0.63737 0.84364 0.0
H1617 H 0.36864 0.68175 0.7428 0.0
H1618 H 0.40963 0.67675 0.77377 0.0
H1619 H 0.41441 0.66274 0.82026 0.0
H1620 H 0.50427 0.62613 0.92579 0.0
H1621 H 0.49055 0.64451 0.88204 0.0
H1622 H 0.44715 0.5735 0.82783 0.0
C1623 C 0.39116 0.65622 0.76893 0.0
C1624 C 0.42221 0.64379 0.82136 0.0
C1625 C 0.3677 0.65903 0.75129 0.0
C1626 C 0.48804 0.60999 0.9134 0.0
C1627 C 0.48023 0.62049 0.88842 0.0
C1628 C 0.44061 0.59341 0.82616 0.0
C1629 C 0.39048 0.6272 0.78062 0.0
C1630 C 0.41328 0.62426 0.80174 0.0
C1631 C 0.45882 0.60022 0.87203 0.0
C1632 C 0.44741 0.61133 0.84664 0.0
H1633 H 0.32406 0.58322 0.75197 0.0
H1634 H 0.36498 0.5783 0.78263 0.0
H1635 H 0.41755 0.58472 0.78891 0.0
H1636 H 0.44256 0.53494 0.9119 0.0
H1637 H 0.42905 0.55311 0.86885 0.0
C1638 C 0.32606 0.34486 0.79274 0.0
C1639 C 0.29751 0.32338 0.79106 0.0
C1640 C 0.33575 0.36644 0.81064 0.0
C1641 C 0.32099 0.37166 0.87323 0.0
H1642 H 0.38555 0.44923 0.86779 0.0
C1643 C 0.41724 0.41002 0.94995 0.0
C1644 C 0.43334 0.44141 0.9521 0.0
C1645 C 0.39213 0.40083 0.93228 0.0
C1646 C 0.36703 0.42803 0.86963 0.0
H1647 H 0.2558 0.30906 0.80493 0.0
H1648 H 0.27248 0.34694 0.83595 0.0
H1649 H 0.35741 0.42552 0.82955 0.0
H1650 H 0.43429 0.48769 0.93922 0.0
H1651 H 0.3904 0.47165 0.90797 0.0
H1652 H 0.33135 0.37359 0.91332 0.0
C1653 C 0.28768 0.34679 0.82396 0.0
C1654 C 0.35115 0.41425 0.8477 0.0
C1655 C 0.27814 0.32509 0.80625 0.0
C1656 C 0.42238 0.46338 0.93785 0.0
C1657 C 0.39735 0.4542 0.91989 0.0
C1658 C 0.33679 0.38548 0.89511 0.0
C1659 C 0.31693 0.36695 0.82704 0.0
C1660 C 0.32892 0.38518 0.84934 0.0
C1661 C 0.38269 0.42285 0.91625 0.0
C1662 C 0.36091 0.41299 0.89358 0.0
H1663 H 0.3415 0.34365 0.78157 0.0
H1664 H 0.35855 0.38127 0.81272 0.0
H1665 H 0.30406 0.34923 0.87528 0.0
H1666 H 0.425 0.39253 0.96087 0.0
H1667 H 0.38151 0.37649 0.92986 0.0
C1668 C 0.69739 0.40969 0.79682 0.0
C1669 C 0.69606 0.37951 0.79519 0.0
C1670 C 0.68739 0.41675 0.81693 0.0
C1671 C 0.67595 0.43013 0.8666 0.0
H1672 H 0.60946 0.36729 0.89356 0.0
C1673 C 0.62598 0.45043 0.94893 0.0
C1674 C 0.59534 0.4375 0.94768 0.0
C1675 C 0.64033 0.44284 0.93218 0.0
C1676 C 0.62785 0.38531 0.88615 0.0
H1677 H 0.68314 0.33316 0.81404 0.0
H1678 H 0.66769 0.34581 0.84958 0.0
H1679 H 0.62977 0.35606 0.8604 0.0
H1680 H 0.55583 0.40667 0.92751 0.0
H1681 H 0.5804 0.39444 0.89815 0.0
H1682 H 0.67269 0.45998 0.89139 0.0
C1683 C 0.67558 0.36397 0.83493 0.0
C1684 C 0.63994 0.37864 0.86731 0.0
C1685 C 0.68506 0.3568 0.81463 0.0
C1686 C 0.57948 0.41682 0.92934 0.0
C1687 C 0.59369 0.4096 0.91249 0.0
C1688 C 0.66351 0.43697 0.88522 0.0
C1689 C 0.67615 0.39394 0.83624 0.0
C1690 C 0.66407 0.40097 0.85709 0.0
C1691 C 0.62432 0.4224 0.91362 0.0
C1692 C 0.63905 0.41474 0.89506 0.0
H1693 H 0.70615 0.42802 0.78255 0.0
H1694 H 0.68793 0.44002 0.81697 0.0
H1695 H 0.69482 0.44783 0.85962 0.0
H1696 H 0.63888 0.46641 0.96283 0.0
H1697 H 0.66396 0.4529 0.93389 0.0
C1698 C 0.64044 0.3445 0.24568 0.0
C1699 C 0.65974 0.37257 0.25461 0.0
C1700 C 0.61675 0.34384 0.22699 0.0
C1701 C 0.57698 0.39307 0.1884 0.0
H1702 H 0.5815 0.35175 0.13305 0.0
C1703 C 0.57071 0.44264 0.0859 0.0
C1704 C 0.55571 0.42326 0.06657 0.0
C1705 C 0.57313 0.43047 0.111 0.0
C1706 C 0.57932 0.36281 0.14843 0.0
H1707 H 0.66828 0.42154 0.25248 0.0
H1708 H 0.62747 0.42063 0.21965 0.0
H1709 H 0.60348 0.34008 0.17553 0.0
H1710 H 0.53094 0.376 0.05834 0.0
H1711 H 0.53605 0.35452 0.10247 0.0
H1712 H 0.55475 0.41752 0.16068 0.0
C1713 C 0.63011 0.39896 0.22725 0.0
C1714 C 0.59185 0.35607 0.17285 0.0
C1715 C 0.65364 0.39956 0.24604 0.0
C1716 C 0.54281 0.39144 0.07288 0.0
C1717 C 0.54561 0.37917 0.09805 0.0
C1718 C 0.56464 0.39996 0.16393 0.0
C1719 C 0.61212 0.37129 0.21677 0.0
C1720 C 0.59208 0.37225 0.19288 0.0
C1721 C 0.5609 0.39861 0.1173 0.0
C1722 C 0.56696 0.38593 0.14359 0.0
H1723 H 0.64443 0.32329 0.2524 0.0
H1724 H 0.60288 0.32211 0.21968 0.0
H1725 H 0.57623 0.4054 0.20354 0.0
H1726 H 0.58059 0.46728 0.08165 0.0
H1727 H 0.58547 0.44592 0.12543 0.0
C1728 C 0.74572 0.6752 0.20012 0.0
C1729 C 0.73091 0.68864 0.21193 0.0
C1730 C 0.7309 0.65628 0.18068 0.0
C1731 C 0.69142 0.60892 0.14409 0.0
H1732 H 0.64162 0.64397 0.09552 0.0
C1733 C 0.6083 0.54847 0.06081 0.0
C1734 C 0.60178 0.56766 0.03984 0.0
C1735 C 0.62965 0.56119 0.08085 0.0
C1736 C 0.6558 0.6341 0.10867 0.0
H1737 H 0.68859 0.69107 0.2139 0.0
H1738 H 0.66255 0.65767 0.18005 0.0
H1739 H 0.66481 0.66778 0.13449 0.0
H1740 H 0.6151 0.614 0.02144 0.0
H1741 H 0.65317 0.636 0.05587 0.0
H1742 H 0.68237 0.57528 0.11785 0.0
C1743 C 0.68576 0.66222 0.1856 0.0
C1744 C 0.66862 0.64742 0.13127 0.0
C1745 C 0.7006 0.68114 0.20509 0.0
C1746 C 0.61951 0.59885 0.03761 0.0
C1747 C 0.64108 0.61145 0.05741 0.0
C1748 C 0.67842 0.59544 0.12137 0.0
C1749 C 0.70098 0.65046 0.17265 0.0
C1750 C 0.68648 0.63497 0.14927 0.0
C1751 C 0.64488 0.59316 0.07994 0.0
C1752 C 0.66057 0.60802 0.10339 0.0
H1753 H 0.76908 0.68031 0.20514 0.0
H1754 H 0.74324 0.64767 0.17102 0.0
H1755 H 0.70511 0.59885 0.15766 0.0
H1756 H 0.59486 0.52432 0.06296 0.0
H1757 H 0.63218 0.54647 0.09791 0.0
C1758 C 0.3706 0.64492 0.19179 0.0
C1759 C 0.34842 0.6217 0.20366 0.0
C1760 C 0.38117 0.63886 0.1716 0.0
C1761 C 0.38372 0.57425 0.1406 0.0
H1762 H 0.40653 0.63738 0.08549 0.0
C1763 C 0.416 0.54984 0.05061 0.0
C1764 C 0.44205 0.57131 0.04273 0.0
C1765 C 0.40308 0.55643 0.06896 0.0
C1766 C 0.40038 0.61958 0.10081 0.0
H1767 H 0.31959 0.57401 0.20333 0.0
H1768 H 0.33755 0.5635 0.16784 0.0
H1769 H 0.38698 0.64767 0.12011 0.0
H1770 H 0.47423 0.61711 0.04736 0.0
H1771 H 0.45149 0.62865 0.07913 0.0
H1772 H 0.39689 0.5461 0.12109 0.0
C1773 C 0.34736 0.58626 0.17447 0.0
C1774 C 0.38928 0.62549 0.12075 0.0
C1775 C 0.33699 0.59227 0.19482 0.0
C1776 C 0.4542 0.60001 0.05296 0.0
C1777 C 0.44111 0.60669 0.07113 0.0
C1778 C 0.39457 0.56826 0.12056 0.0
C1779 C 0.36965 0.60945 0.16258 0.0
C1780 C 0.38094 0.60297 0.14102 0.0
C1781 C 0.41572 0.58475 0.0797 0.0
C1782 C 0.40317 0.59089 0.10049 0.0
H1783 H 0.38011 0.66774 0.19836 0.0
H1784 H 0.39872 0.65716 0.16332 0.0
H1785 H 0.37809 0.55651 0.15603 0.0
H1786 H 0.40602 0.52749 0.04323 0.0
H1787 H 0.38332 0.5392 0.07494 0.0
C1788 C 0.34043 0.29528 0.18227 0.0
C1789 C 0.34585 0.29642 0.20862 0.0
C1790 C 0.36327 0.30819 0.1678 0.0
C1791 C 0.41639 0.3288 0.14107 0.0
H1792 H 0.4621 0.41367 0.15357 0.0
C1793 C 0.48009 0.41475 0.06571 0.0
C1794 C 0.47176 0.44078 0.06057 0.0
C1795 C 0.47372 0.39517 0.08776 0.0
C1796 C 0.44984 0.38985 0.15004 0.0
H1797 H 0.37987 0.31018 0.24063 0.0
H1798 H 0.41978 0.33345 0.21517 0.0
H1799 H 0.4328 0.37995 0.18516 0.0
H1800 H 0.4512 0.46751 0.07455 0.0
H1801 H 0.43989 0.43347 0.11277 0.0
H1802 H 0.43169 0.33946 0.10508 0.0
C1803 C 0.39775 0.32272 0.20577 0.0
C1804 C 0.43324 0.37046 0.16821 0.0
C1805 C 0.37485 0.30958 0.22031 0.0
C1806 C 0.45772 0.44746 0.07804 0.0
C1807 C 0.45164 0.4282 0.1001 0.0
C1808 C 0.43301 0.34821 0.1229 0.0
C1809 C 0.39209 0.32258 0.17932 0.0
C1810 C 0.41518 0.34021 0.16332 0.0
C1811 C 0.45919 0.40162 0.10505 0.0
C1812 C 0.44865 0.37934 0.12669 0.0
H1813 H 0.31841 0.28514 0.17263 0.0
H1814 H 0.35808 0.30814 0.14743 0.0
H1815 H 0.40308 0.30539 0.13703 0.0
H1816 H 0.49038 0.40888 0.05224 0.0
H1817 H 0.47956 0.3747 0.09104 0.0
C1818 C 0.78176 0.64315 0.60279 0.0
C1819 C 0.78256 0.63912 0.62921 0.0
C1820 C 0.79969 0.63363 0.5913 0.0
C1821 C 0.84035 0.58034 0.60075 0.0
H1822 H 0.88187 0.63409 0.54754 0.0
C1823 C 0.90156 0.54159 0.53748 0.0
C1824 C 0.92961 0.56237 0.53351 0.0
C1825 C 0.88332 0.55032 0.5494 0.0
C1826 C 0.87048 0.61884 0.56241 0.0
H1827 H 0.8028 0.62184 0.66427 0.0
H1828 H 0.83418 0.60511 0.64414 0.0
H1829 H 0.85127 0.65093 0.56827 0.0
H1830 H 0.96029 0.60873 0.53894 0.0
H1831 H 0.92851 0.62384 0.55941 0.0
H1832 H 0.8597 0.54828 0.59486 0.0
C1833 C 0.81957 0.61559 0.63235 0.0
C1834 C 0.85277 0.62839 0.57416 0.0
C1835 C 0.80182 0.62544 0.64389 0.0
C1836 C 0.93888 0.59206 0.54167 0.0
C1837 C 0.92058 0.60084 0.55329 0.0
C1838 C 0.85785 0.57063 0.58879 0.0
C1839 C 0.8187 0.6196 0.60591 0.0
C1840 C 0.83757 0.60932 0.59352 0.0
C1841 C 0.89259 0.58012 0.55731 0.0
C1842 C 0.87324 0.58986 0.56957 0.0
H1843 H 0.76734 0.65385 0.59097 0.0
H1844 H 0.79835 0.63686 0.57089 0.0
H1845 H 0.82871 0.56501 0.61545 0.0
H1846 H 0.89372 0.51853 0.5315 0.0
H1847 H 0.86178 0.5339 0.55209 0.0
C1848 C 0.33046 0.82832 0.69765 0.0
C1849 C 0.34058 0.82416 0.72349 0.0
C1850 C 0.35013 0.84224 0.68018 0.0
C1851 C 0.42455 0.89515 0.67193 0.0
H1852 H 0.40715 0.85713 0.60913 0.0
C1853 C 0.4902 0.95106 0.58593 0.0
C1854 C 0.47189 0.95153 0.56277 0.0
C1855 C 0.47848 0.93321 0.60752 0.0
C1856 C 0.41238 0.86817 0.62651 0.0
H1857 H 0.37914 0.83322 0.75161 0.0
H1858 H 0.41397 0.85798 0.72085 0.0
H1859 H 0.37829 0.83154 0.6432 0.0
H1860 H 0.4274 0.93245 0.54389 0.0
H1861 H 0.4074 0.90177 0.58076 0.0
H1862 H 0.45799 0.93248 0.65464 0.0
C1863 C 0.39071 0.8499 0.71413 0.0
C1864 C 0.39579 0.85343 0.64609 0.0
C1865 C 0.37086 0.83562 0.73171 0.0
C1866 C 0.44215 0.93283 0.56144 0.0
C1867 C 0.43065 0.91494 0.58266 0.0
C1868 C 0.44114 0.9101 0.65215 0.0
C1869 C 0.38054 0.85296 0.68807 0.0
C1870 C 0.40103 0.86709 0.6688 0.0
C1871 C 0.44842 0.91508 0.60615 0.0
C1872 C 0.43464 0.89722 0.62885 0.0
H1873 H 0.30721 0.82064 0.69086 0.0
H1874 H 0.34145 0.84484 0.66039 0.0
H1875 H 0.42918 0.90632 0.68917 0.0
H1876 H 0.51317 0.96532 0.58759 0.0
H1877 H 0.49285 0.93376 0.62529 0.0
C1878 C 0.18492 0.26474 0.69464 0.0
C1879 C 0.21187 0.27707 0.71003 0.0
C1880 C 0.17124 0.28389 0.67932 0.0
C1881 C 0.18307 0.36416 0.64961 0.0
H1882 H 0.09869 0.33765 0.64523 0.0
C1883 C 0.11738 0.44 0.59204 0.0
C1884 C 0.08974 0.4248 0.57848 0.0
C1885 C 0.13237 0.42349 0.60956 0.0
C1886 C 0.1222 0.34542 0.64582 0.0
H1887 H 0.24513 0.3197 0.72176 0.0
H1888 H 0.22155 0.35337 0.69459 0.0
H1889 H 0.12487 0.30674 0.67155 0.0
H1890 H 0.0562 0.37981 0.57377 0.0
H1891 H 0.08199 0.35138 0.60377 0.0
H1892 H 0.18032 0.40266 0.62352 0.0
C1893 C 0.21112 0.32867 0.69413 0.0
C1894 C 0.13735 0.32754 0.6611 0.0
C1895 C 0.22478 0.30937 0.70968 0.0
C1896 C 0.07722 0.39264 0.58384 0.0
C1897 C 0.09218 0.37617 0.60126 0.0
C1898 C 0.16785 0.38203 0.63414 0.0
C1899 C 0.18385 0.31621 0.67891 0.0
C1900 C 0.16804 0.33636 0.66314 0.0
C1901 C 0.12031 0.39113 0.61419 0.0
C1902 C 0.13702 0.37288 0.63175 0.0
H1903 H 0.17419 0.24002 0.69458 0.0
H1904 H 0.1506 0.2732 0.66772 0.0
H1905 H 0.20662 0.37175 0.6504 0.0
H1906 H 0.12802 0.46465 0.5885 0.0
H1907 H 0.15363 0.43621 0.61929 0.0
C1908 C 0.75334 0.2228 0.66262 0.0
C1909 C 0.74009 0.20928 0.68434 0.0
C1910 C 0.74625 0.2064 0.64134 0.0
C1911 C 0.70394 0.12703 0.61987 0.0
H1912 H 0.70258 0.17251 0.554 0.0
C1913 C 0.62284 0.11416 0.52247 0.0
C1914 C 0.61104 0.08186 0.52372 0.0
C1915 C 0.64891 0.12906 0.53742 0.0
C1916 C 0.70253 0.15932 0.57224 0.0
H1917 H 0.70858 0.16875 0.70091 0.0
H1918 H 0.69409 0.14118 0.66333 0.0
H1919 H 0.72529 0.20009 0.59101 0.0
H1920 H 0.61968 0.04006 0.53868 0.0
H1921 H 0.6662 0.0662 0.56383 0.0
H1922 H 0.678 0.08668 0.60154 0.0
C1923 C 0.7113 0.16355 0.66284 0.0
C1924 C 0.71617 0.17523 0.59363 0.0
C1925 C 0.71916 0.17953 0.68434 0.0
C1926 C 0.62784 0.06496 0.53774 0.0
C1927 C 0.65442 0.08002 0.55239 0.0
C1928 C 0.68928 0.11126 0.59861 0.0
C1929 C 0.72501 0.1765 0.64107 0.0
C1930 C 0.71576 0.15943 0.61793 0.0
C1931 C 0.66433 0.11215 0.55369 0.0
C1932 C 0.68695 0.12738 0.57462 0.0
H1933 H 0.7699 0.24562 0.66238 0.0
H1934 H 0.75774 0.21715 0.62528 0.0
H1935 H 0.70452 0.11374 0.63802 0.0
H1936 H 0.61085 0.12806 0.51145 0.0
H1937 H 0.65531 0.15371 0.53763 0.0
C1938 C 0.8297 0.29643 0.32578 0.0
C1939 C 0.79978 0.29047 0.31762 0.0
C1940 C 0.84209 0.30623 0.34978 0.0
C1941 C 0.83152 0.35083 0.3939 0.0
H1942 H 0.89624 0.33179 0.43536 0.0
C1943 C 0.93296 0.39584 0.4797 0.0
C1944 C 0.94553 0.4261 0.469 0.0
C1945 C 0.90705 0.37592 0.4677 0.0
C1946 C 0.87774 0.33696 0.4244 0.0
H1947 H 0.75888 0.28747 0.32888 0.0
H1948 H 0.78066 0.30494 0.37051 0.0
H1949 H 0.867 0.29942 0.40183 0.0
H1950 H 0.93939 0.46058 0.43933 0.0
H1951 H 0.8943 0.42552 0.41786 0.0
H1952 H 0.84312 0.38921 0.41576 0.0
C1953 C 0.79454 0.30244 0.35829 0.0
C1954 C 0.86126 0.3186 0.40504 0.0
C1955 C 0.78215 0.29249 0.33442 0.0
C1956 C 0.93016 0.43724 0.44777 0.0
C1957 C 0.9043 0.41718 0.43559 0.0
C1958 C 0.8481 0.3693 0.41322 0.0
C1959 C 0.82474 0.31031 0.36587 0.0
C1960 C 0.83866 0.326 0.3891 0.0
C1961 C 0.89349 0.38591 0.4447 0.0
C1962 C 0.87196 0.36311 0.42809 0.0
H1963 H 0.84373 0.29471 0.31333 0.0
H1964 H 0.86552 0.31226 0.35516 0.0
H1965 H 0.81429 0.35717 0.38175 0.0
H1966 H 0.94412 0.387 0.4965 0.0
H1967 H 0.89878 0.35213 0.47543 0.0
C1968 C 0.65724 0.78538 0.35542 0.0
C1969 C 0.67324 0.76831 0.37062 0.0
C1970 C 0.64924 0.80614 0.36583 0.0
C1971 C 0.6191 0.8331 0.3948 0.0
H1972 H 0.66988 0.88182 0.44853 0.0
C1973 C 0.5754 0.89135 0.45592 0.0
C1974 C 0.59262 0.92102 0.46316 0.0
C1975 C 0.58677 0.87497 0.44383 0.0
C1976 C 0.65558 0.86865 0.43334 0.0
H1977 H 0.69367 0.76017 0.40879 0.0
H1978 H 0.67883 0.79561 0.42712 0.0
H1979 H 0.68722 0.8494 0.42881 0.0
H1980 H 0.63559 0.95658 0.46327 0.0
H1981 H 0.65549 0.92783 0.44178 0.0
H1982 H 0.58763 0.85253 0.39901 0.0
C1983 C 0.6729 0.79331 0.407 0.0
C1984 C 0.66537 0.84974 0.42225 0.0
C1985 C 0.68103 0.77261 0.39655 0.0
C1986 C 0.62169 0.93384 0.45794 0.0
C1987 C 0.63314 0.9173 0.44575 0.0
C1988 C 0.60938 0.85199 0.40581 0.0
C1989 C 0.65681 0.81028 0.39179 0.0
C1990 C 0.64711 0.83147 0.403 0.0
C1991 C 0.61571 0.88769 0.43846 0.0
C1992 C 0.62729 0.86966 0.42548 0.0
H1993 H 0.65055 0.78248 0.33543 0.0
H1994 H 0.63716 0.81904 0.35344 0.0
H1995 H 0.60428 0.81919 0.38023 0.0
H1996 H 0.55298 0.8805 0.45969 0.0
H1997 H 0.57289 0.85201 0.43899 0.0
C1998 C 0.17928 0.68501 0.27251 0.0
C1999 C 0.20878 0.7031 0.27917 0.0
C2000 C 0.16231 0.66683 0.29107 0.0
C2001 C 0.16842 0.63285 0.35766 0.0
H2002 H 0.0893 0.63158 0.35498 0.0
C2003 C 0.11027 0.59055 0.4449 0.0
C2004 C 0.08138 0.56945 0.44213 0.0
C2005 C 0.12335 0.60687 0.42387 0.0
C2006 C 0.11122 0.63143 0.35585 0.0
H2007 H 0.24317 0.71741 0.31067 0.0
H2008 H 0.21399 0.68564 0.34291 0.0
H2009 H 0.11735 0.65862 0.32028 0.0
H2010 H 0.04286 0.55041 0.41512 0.0
H2011 H 0.06589 0.57929 0.3779 0.0
H2012 H 0.16259 0.6061 0.39324 0.0
C2013 C 0.20401 0.68475 0.32332 0.0
C2014 C 0.12732 0.64687 0.33595 0.0
C2015 C 0.22087 0.70295 0.30478 0.0
C2016 C 0.0651 0.56663 0.41783 0.0
C2017 C 0.07836 0.58305 0.39655 0.0
C2018 C 0.15243 0.61755 0.37748 0.0
C2019 C 0.17443 0.66657 0.31676 0.0
C2020 C 0.15633 0.64821 0.33683 0.0
C2021 C 0.10802 0.6025 0.39934 0.0
C2022 C 0.12383 0.61712 0.37711 0.0
H2023 H 0.16929 0.6851 0.25291 0.0
H2024 H 0.1397 0.65299 0.28529 0.0
H2025 H 0.19039 0.63273 0.35872 0.0
H2026 H 0.12328 0.59356 0.46342 0.0
H2027 H 0.1459 0.62233 0.42681 0.0
C2028 C 0.29873 0.18062 0.30551 0.0
C2029 C 0.30913 0.20828 0.29018 0.0
C2030 C 0.31797 0.16782 0.32135 0.0
C2031 C 0.39645 0.17043 0.33304 0.0
H2032 H 0.3708 0.11889 0.39346 0.0
C2033 C 0.47095 0.11645 0.40895 0.0
C2034 C 0.45749 0.08624 0.41982 0.0
C2035 C 0.45445 0.13206 0.39213 0.0
C2036 C 0.37832 0.13293 0.37653 0.0
H2037 H 0.34855 0.2437 0.27911 0.0
H2038 H 0.38242 0.22221 0.30758 0.0
H2039 H 0.34037 0.1459 0.36812 0.0
H2040 H 0.41568 0.04881 0.42028 0.0
H2041 H 0.38731 0.07577 0.39138 0.0
H2042 H 0.43499 0.15784 0.34225 0.0
C2043 C 0.35913 0.21006 0.30725 0.0
C2044 C 0.36066 0.14852 0.36175 0.0
C2045 C 0.33968 0.2228 0.29113 0.0
C2046 C 0.42714 0.07189 0.41244 0.0
C2047 C 0.41066 0.08759 0.39596 0.0
C2048 C 0.41438 0.15509 0.34811 0.0
C2049 C 0.34864 0.1821 0.32261 0.0
C2050 C 0.369 0.16722 0.33939 0.0
C2051 C 0.42384 0.11819 0.38589 0.0
C2052 C 0.40541 0.13565 0.36994 0.0
H2053 H 0.27538 0.16838 0.30491 0.0
H2054 H 0.30848 0.146 0.33204 0.0
H2055 H 0.40391 0.18418 0.31601 0.0
H2056 H 0.49414 0.12856 0.41415 0.0
H2057 H 0.46554 0.15554 0.38489 0.0
C2058 C 0.74596 0.8352 0.6915 0.0
C2059 C 0.73509 0.80677 0.70584 0.0
C2060 C 0.72707 0.84877 0.67604 0.0
C2061 C 0.65071 0.8341 0.64306 0.0
H2062 H 0.67262 0.92236 0.64337 0.0
C2063 C 0.57604 0.90008 0.58426 0.0
C2064 C 0.58964 0.93024 0.57342 0.0
C2065 C 0.5922 0.88471 0.60175 0.0
C2066 C 0.66614 0.89779 0.64256 0.0
H2067 H 0.69523 0.77077 0.7154 0.0
H2068 H 0.66199 0.79406 0.68778 0.0
H2069 H 0.70301 0.89595 0.66977 0.0
H2070 H 0.63144 0.96769 0.57341 0.0
H2071 H 0.6593 0.94122 0.60315 0.0
H2072 H 0.61416 0.83601 0.61539 0.0
C2073 C 0.68539 0.80576 0.68837 0.0
C2074 C 0.68372 0.88248 0.65795 0.0
C2075 C 0.70445 0.79225 0.70416 0.0
C2076 C 0.61983 0.94471 0.58137 0.0
C2077 C 0.63598 0.92932 0.59868 0.0
C2078 C 0.63319 0.84949 0.62741 0.0
C2079 C 0.69642 0.83455 0.6743 0.0
C2080 C 0.67654 0.85039 0.65838 0.0
C2081 C 0.62267 0.89878 0.60901 0.0
C2082 C 0.64066 0.88177 0.62665 0.0
H2083 H 0.76936 0.84725 0.69245 0.0
H2084 H 0.73663 0.87061 0.66537 0.0
H2085 H 0.64441 0.80946 0.6426 0.0
H2086 H 0.55295 0.88788 0.57869 0.0
H2087 H 0.58067 0.86157 0.60939 0.0
C2088 C 0.71423 0.20902 0.29712 0.0
C2089 C 0.7043 0.21034 0.27104 0.0
C2090 C 0.69501 0.19251 0.31447 0.0
C2091 C 0.62375 0.12983 0.32161 0.0
H2092 H 0.63597 0.16381 0.38564 0.0
C2093 C 0.55748 0.06627 0.40646 0.0
C2094 C 0.57603 0.06464 0.4293 0.0
C2095 C 0.5689 0.08548 0.38526 0.0
C2096 C 0.63216 0.15397 0.36784 0.0
H2097 H 0.66676 0.19407 0.24254 0.0
H2098 H 0.63267 0.16517 0.27302 0.0
H2099 H 0.66375 0.19418 0.35201 0.0
H2100 H 0.6207 0.08294 0.44801 0.0
H2101 H 0.6401 0.1164 0.4118 0.0
H2102 H 0.5923 0.08933 0.3379 0.0
C2103 C 0.65541 0.17716 0.28005 0.0
C2104 C 0.64825 0.17135 0.34855 0.0
C2105 C 0.67482 0.19382 0.26258 0.0
C2106 C 0.60578 0.0834 0.4307 0.0
C2107 C 0.61693 0.10282 0.40992 0.0
C2108 C 0.60744 0.11242 0.34098 0.0
C2109 C 0.66521 0.17652 0.30631 0.0
C2110 C 0.64504 0.15922 0.32542 0.0
C2111 C 0.59885 0.10396 0.3868 0.0
C2112 C 0.61212 0.12395 0.36463 0.0
H2113 H 0.73702 0.22078 0.30416 0.0
H2114 H 0.7037 0.19197 0.33437 0.0
H2115 H 0.62064 0.11965 0.30411 0.0
H2116 H 0.5345 0.05204 0.40476 0.0
H2117 H 0.55436 0.08591 0.36773 0.0
C2118 C 0.82466 0.69941 0.29472 0.0
C2119 C 0.83357 0.73099 0.29783 0.0
C2120 C 0.83875 0.68051 0.31022 0.0
C2121 C 0.89263 0.67981 0.3702 0.0
H2122 H 0.89676 0.60911 0.34415 0.0
C2123 C 0.97011 0.61597 0.42329 0.0
C2124 C 0.95882 0.58346 0.42642 0.0
C2125 C 0.95479 0.63281 0.40676 0.0
C2126 C 0.89571 0.62865 0.35185 0.0
H2127 H 0.86543 0.76761 0.31889 0.0
H2128 H 0.89026 0.73538 0.34542 0.0
H2129 H 0.87028 0.64014 0.31788 0.0
H2130 H 0.92252 0.54358 0.41313 0.0
H2131 H 0.89628 0.57295 0.38378 0.0
H2132 H 0.91872 0.66869 0.40391 0.0
C2133 C 0.87164 0.72449 0.33181 0.0
C2134 C 0.88027 0.64655 0.33674 0.0
C2135 C 0.85745 0.74324 0.31642 0.0
C2136 C 0.93224 0.56847 0.41128 0.0
C2137 C 0.91705 0.5854 0.39442 0.0
C2138 C 0.90837 0.66221 0.38511 0.0
C2139 C 0.86266 0.69265 0.3291 0.0
C2140 C 0.87851 0.67267 0.34553 0.0
C2141 C 0.92768 0.61792 0.39239 0.0
C2142 C 0.91035 0.63638 0.37621 0.0
H2143 H 0.80691 0.68932 0.28008 0.0
H2144 H 0.83062 0.65627 0.30739 0.0
H2145 H 0.8914 0.69895 0.37833 0.0
H2146 H 0.99037 0.62867 0.43447 0.0
H2147 H 0.96411 0.65772 0.40551 0.0
C2148 C 0.31369 0.82422 0.31548 0.0
C2149 C 0.3055 0.79207 0.31649 0.0
C2150 C 0.32195 0.83901 0.33765 0.0
C2151 C 0.35279 0.82902 0.40374 0.0
H2152 H 0.33901 0.90433 0.40771 0.0
C2153 C 0.42087 0.90472 0.48015 0.0
C2154 C 0.4364 0.93429 0.46975 0.0
C2155 C 0.39496 0.88635 0.46682 0.0
C2156 C 0.34282 0.88319 0.40698 0.0
H2157 H 0.29874 0.7501 0.34162 0.0
H2158 H 0.31319 0.77602 0.38041 0.0
H2159 H 0.31266 0.87236 0.37295 0.0
H2160 H 0.43527 0.96945 0.43904 0.0
H2161 H 0.39046 0.93714 0.41534 0.0
H2162 H 0.38386 0.84032 0.43689 0.0
C2163 C 0.31352 0.78979 0.36241 0.0
C2164 C 0.32786 0.86496 0.38705 0.0
C2165 C 0.30535 0.77496 0.34018 0.0
C2166 C 0.42378 0.94663 0.44738 0.0
C2167 C 0.39801 0.92808 0.43384 0.0
C2168 C 0.36763 0.84713 0.42363 0.0
C2169 C 0.32209 0.82202 0.36137 0.0
C2170 C 0.33354 0.83829 0.38472 0.0
C2171 C 0.38442 0.89711 0.4427 0.0
C2172 C 0.36362 0.87499 0.425 0.0
H2173 H 0.31406 0.83814 0.29755 0.0
H2174 H 0.32903 0.86391 0.33614 0.0
H2175 H 0.35796 0.80884 0.4024 0.0
H2176 H 0.42987 0.89495 0.49771 0.0
H2177 H 0.38449 0.86288 0.47446 0.0
C2178 C 0.2432 0.38608 0.35326 0.0
C2179 C 0.26348 0.37314 0.36706 0.0
C2180 C 0.22566 0.39512 0.36574 0.0
C2181 C 0.19522 0.38123 0.42556 0.0
H2182 H 0.18559 0.46027 0.4059 0.0
C2183 C 0.10951 0.41474 0.46199 0.0
C2184 C 0.11844 0.44451 0.4699 0.0
C2185 C 0.1276 0.40645 0.44966 0.0
C2186 C 0.1882 0.43821 0.4117 0.0
H2187 H 0.28072 0.35887 0.40475 0.0
H2188 H 0.25005 0.37444 0.42648 0.0
H2189 H 0.21607 0.44472 0.38374 0.0
H2190 H 0.15354 0.48897 0.47083 0.0
H2191 H 0.18509 0.47449 0.44905 0.0
H2192 H 0.16737 0.37465 0.45347 0.0
C2193 C 0.24776 0.37771 0.40602 0.0
C2194 C 0.20541 0.42917 0.39884 0.0
C2195 C 0.26549 0.36901 0.39358 0.0
C2196 C 0.14598 0.46583 0.46507 0.0
C2197 C 0.16398 0.45761 0.45245 0.0
C2198 C 0.17778 0.39011 0.43821 0.0
C2199 C 0.22775 0.39104 0.39228 0.0
C2200 C 0.20916 0.40058 0.40566 0.0
C2201 C 0.15502 0.42777 0.44469 0.0
C2202 C 0.17406 0.4187 0.43145 0.0
H2203 H 0.24128 0.38975 0.33283 0.0
H2204 H 0.21027 0.40506 0.3546 0.0
H2205 H 0.19749 0.35898 0.43117 0.0
H2206 H 0.0885 0.39766 0.46538 0.0
H2207 H 0.11991 0.3834 0.4437 0.0
C2208 C 0.36182 0.2298 0.60554 0.0
C2209 C 0.36566 0.22935 0.63203 0.0
C2210 C 0.37013 0.21009 0.59406 0.0
C2211 C 0.37695 0.15565 0.57466 0.0
H2212 H 0.45181 0.1472 0.60198 0.0
C2213 C 0.42319 0.07753 0.5342 0.0
C2214 C 0.45298 0.0907 0.53115 0.0
C2215 C 0.41077 0.09206 0.54737 0.0
C2216 C 0.43087 0.14935 0.59408 0.0
H2217 H 0.38105 0.20751 0.66721 0.0
H2218 H 0.3951 0.17281 0.64721 0.0
H2219 H 0.43312 0.17704 0.62297 0.0
H2220 H 0.493 0.12955 0.53969 0.0
H2221 H 0.4714 0.15466 0.56235 0.0
H2222 H 0.37524 0.12866 0.54529 0.0
C2223 C 0.3859 0.18863 0.63529 0.0
C2224 C 0.41999 0.16619 0.60629 0.0
C2225 C 0.37756 0.20832 0.64677 0.0
C2226 C 0.47 0.11861 0.54165 0.0
C2227 C 0.45767 0.13298 0.55485 0.0
C2228 C 0.38783 0.1387 0.56246 0.0
C2229 C 0.38253 0.18946 0.60879 0.0
C2230 C 0.39307 0.16988 0.59657 0.0
C2231 C 0.42794 0.11991 0.55791 0.0
C2232 C 0.41513 0.13576 0.57184 0.0
H2233 H 0.35238 0.24543 0.59363 0.0
H2234 H 0.36748 0.21155 0.57361 0.0
H2235 H 0.35598 0.15775 0.56684 0.0
H2236 H 0.40942 0.05607 0.52636 0.0
H2237 H 0.38782 0.08133 0.54954 0.0
C2238 C 0.86789 0.31478 0.72885 0.0
C2239 C 0.83824 0.29732 0.72199 0.0
C2240 C 0.8854 0.33219 0.71038 0.0
C2241 C 0.88968 0.33467 0.64245 0.0
H2242 H 0.94533 0.41749 0.65004 0.0
C2243 C 0.93767 0.41498 0.55818 0.0
C2244 C 0.96661 0.43596 0.56113 0.0
C2245 C 0.92525 0.39654 0.57883 0.0
C2246 C 0.93029 0.39417 0.64782 0.0
H2247 H 0.80392 0.28407 0.69033 0.0
H2248 H 0.83403 0.31461 0.65822 0.0
H2249 H 0.91642 0.38981 0.68404 0.0
H2250 H 1.00564 0.4532 0.58808 0.0
H2251 H 0.98378 0.42063 0.62463 0.0
H2252 H 0.90319 0.33892 0.60628 0.0
C2253 C 0.8439 0.31492 0.67785 0.0
C2254 C 0.9136 0.37835 0.66727 0.0
C2255 C 0.82645 0.29767 0.6963 0.0
C2256 C 0.98335 0.43712 0.58521 0.0
C2257 C 0.97071 0.41873 0.60613 0.0
C2258 C 0.90635 0.35038 0.62312 0.0
C2259 C 0.87374 0.33204 0.68458 0.0
C2260 C 0.89267 0.3486 0.66461 0.0
C2261 C 0.9413 0.39854 0.60321 0.0
C2262 C 0.92647 0.38058 0.62528 0.0
H2263 H 0.87766 0.31456 0.7485 0.0
H2264 H 0.90832 0.34489 0.71624 0.0
H2265 H 0.87433 0.31151 0.64 0.0
H2266 H 0.9242 0.41342 0.53985 0.0
H2267 H 0.90252 0.38162 0.57578 0.0
C2268 C 0.20411 0.72964 0.67884 0.0
C2269 C 0.23441 0.74554 0.68129 0.0
C2270 C 0.19042 0.71044 0.65934 0.0
C2271 C 0.20087 0.68975 0.599 0.0
H2272 H 0.1449 0.61058 0.61952 0.0
C2273 C 0.11543 0.56662 0.55987 0.0
C2274 C 0.10153 0.57962 0.53871 0.0
C2275 C 0.13915 0.58567 0.57515 0.0
C2276 C 0.16103 0.63226 0.61361 0.0
H2277 H 0.27368 0.75648 0.66408 0.0
H2278 H 0.25007 0.7227 0.6306 0.0
H2279 H 0.16852 0.64858 0.65001 0.0
H2280 H 0.10391 0.62155 0.51459 0.0
H2281 H 0.14471 0.65465 0.54117 0.0
H2282 H 0.19353 0.67324 0.56263 0.0
C2283 C 0.23676 0.7248 0.64354 0.0
C2284 C 0.17401 0.65433 0.63094 0.0
C2285 C 0.25032 0.74403 0.66286 0.0
C2286 C 0.11393 0.61111 0.53117 0.0
C2287 C 0.13755 0.63006 0.54633 0.0
C2288 C 0.18803 0.66756 0.58169 0.0
C2289 C 0.20689 0.70698 0.64209 0.0
C2290 C 0.19354 0.68354 0.62366 0.0
C2291 C 0.1492 0.6178 0.56928 0.0
C2292 C 0.16743 0.63885 0.58865 0.0
H2293 H 0.19132 0.73067 0.69271 0.0
H2294 H 0.16716 0.69754 0.65824 0.0
H2295 H 0.21592 0.71203 0.59284 0.0
H2296 H 0.10642 0.54229 0.56588 0.0
H2297 H 0.14822 0.57554 0.59246 0.0
loop_
_geom_bond_atom_site_label_1
_geom_bond_atom_site_label_2
_geom_bond_distance
_geom_bond_site_symmetry_2
_ccdc_geom_bond_type
Eu0 N31 2.657 . S
Eu0 N38 2.609 . S
Eu0 O44 2.558 . S
Eu0 O45 2.612 . S
Eu0 O47 2.339 . S
Eu0 O48 2.563 . S
Eu0 O49 2.419 . S
Eu0 O51 2.380 . S
Eu0 O52 2.432 . S
Eu0 C64 2.848 . S
C1 C4 1.429 . S
C1 C5 1.411 . S
C1 N8 1.377 . S
C2 C4 1.420 . S
C2 C6 1.423 . S
C2 C14 1.392 . S
C3 C5 1.420 . S
C3 C6 1.351 . S
C3 H26 0.931 . S
C4 C1 1.429 . S
C4 C2 1.420 . S
C4 N12 1.362 . S
C5 C1 1.411 . S
C5 C3 1.420 . S
C5 C10 1.395 . S
C6 C2 1.423 . S
C6 C3 1.351 . S
C6 H18 0.930 . S
C7 C9 1.400 . S
C7 C10 1.386 . S
C7 H19 0.930 . S
N8 C1 1.377 . S
N8 C9 1.321 . S
N8 Eu11 2.609 . S
C9 C7 1.400 . S
C9 N8 1.321 . S
C9 H16 0.930 . S
C10 C5 1.395 . S
C10 C7 1.386 . S
C10 H29 0.930 . S
Eu11 N8 2.609 . S
Eu11 N12 2.657 . S
Eu11 O45 2.380 . S
Eu11 O46 2.432 . S
Eu11 O50 2.558 . S
Eu11 O51 2.612 . S
Eu11 O53 2.339 . S
Eu11 O54 2.563 . S
Eu11 O55 2.419 . S
Eu11 C75 2.848 . S
N12 C4 1.362 . S
N12 Eu11 2.657 . S
N12 C13 1.334 . S
C13 N12 1.334 . S
C13 C15 1.413 . S
C13 H20 0.929 . S
C14 C2 1.392 . S
C14 C15 1.367 . S
C14 H22 0.930 . S
C15 C13 1.413 . S
C15 C14 1.367 . S
C15 H17 0.930 . S
H16 C9 0.930 . S
H17 C15 0.930 . S
H18 C6 0.930 . S
H19 C7 0.930 . S
H20 C13 0.929 . S
H21 C35 0.930 . S
H22 C14 0.930 . S
H23 C41 0.930 . S
H24 C32 0.929 . S
H25 C39 0.930 . S
H26 C3 0.931 . S
H27 C33 0.930 . S
H28 C66 0.930 . S
H29 C10 0.930 . S
H30 C65 0.931 . S
N31 Eu0 2.657 . S
N31 C32 1.334 . S
N31 C36 1.362 . S
C32 H24 0.929 . S
C32 N31 1.334 . S
C32 C35 1.413 . S
C33 H27 0.930 . S
C33 C34 1.392 . S
C33 C35 1.367 . S
C34 C33 1.392 . S
C34 C36 1.420 . S
C34 C66 1.423 . S
C35 H21 0.930 . S
C35 C32 1.413 . S
C35 C33 1.367 . S
C36 N31 1.362 . S
C36 C34 1.420 . S
C36 C40 1.429 . S
H37 C42 0.930 . S
N38 Eu0 2.609 . S
N38 C40 1.377 . S
N38 C41 1.321 . S
C39 H25 0.930 . S
C39 C41 1.400 . S
C39 C42 1.386 . S
C40 C36 1.429 . S
C40 N38 1.377 . S
C40 C43 1.411 . S
C41 H23 0.930 . S
C41 N38 1.321 . S
C41 C39 1.400 . S
C42 H37 0.930 . S
C42 C39 1.386 . S
C42 C43 1.395 . S
C43 C40 1.411 . S
C43 C42 1.395 . S
C43 C65 1.420 . S
O44 Eu0 2.558 . S
O44 C64 1.257 . S
O45 Eu0 2.612 . S
O45 Eu11 2.380 . S
O45 C56 1.276 . S
O46 Eu11 2.432 . S
O46 C63 1.264 . S
O47 Eu0 2.339 . S
O47 C63 1.254 . S
O48 Eu0 2.563 . S
O48 C56 1.235 . S
O49 Eu0 2.419 . S
O49 C64 1.249 . S
O50 Eu11 2.558 . S
O50 C75 1.257 . S
O51 Eu0 2.380 . S
O51 Eu11 2.612 . S
O51 C67 1.276 . S
O52 Eu0 2.432 . S
O52 C74 1.264 . S
O53 Eu11 2.339 . S
O53 C74 1.254 . S
O54 Eu11 2.563 . S
O54 C67 1.235 . S
O55 Eu11 2.419 . S
O55 C75 1.249 . S
C56 O45 1.276 . S
C56 O48 1.235 . S
C57 C59 1.393 . S
C57 C61 1.395 . S
C57 C64 1.492 . S
C58 C59 1.392 . S
C58 C60 1.386 . S
C59 C57 1.393 . S
C59 C58 1.392 . S
C59 H76 0.930 . S
C60 C58 1.386 . S
C60 C62 1.395 . S
C60 H77 0.930 . S
C61 C57 1.395 . S
C61 C62 1.379 . S
C61 H78 0.930 . S
C62 C60 1.395 . S
C62 C61 1.379 . S
C62 H79 0.930 . S
C63 O46 1.264 . S
C63 O47 1.254 . S
C64 Eu0 2.848 . S
C64 O44 1.257 . S
C64 O49 1.249 . S
C64 C57 1.492 . S
C65 H30 0.931 . S
C65 C43 1.420 . S
C65 C66 1.351 . S
C66 H28 0.930 . S
C66 C34 1.423 . S
C66 C65 1.351 . S
C67 O51 1.276 . S
C67 O54 1.235 . S
C68 C69 1.393 . S
C68 C72 1.395 . S
C68 C75 1.492 . S
C69 C68 1.393 . S
C69 C70 1.392 . S
C69 H80 0.930 . S
C70 C69 1.392 . S
C70 C71 1.386 . S
C71 C70 1.386 . S
C71 C73 1.395 . S
C71 H81 0.930 . S
C72 C68 1.395 . S
C72 C73 1.379 . S
C72 H82 0.930 . S
C73 C71 1.395 . S
C73 C72 1.379 . S
C73 H83 0.930 . S
C74 O52 1.264 . S
C74 O53 1.254 . S
C75 Eu11 2.848 . S
C75 O50 1.257 . S
C75 O55 1.249 . S
C75 C68 1.492 . S
H76 C59 0.930 . S
H77 C60 0.930 . S
H78 C61 0.930 . S
H79 C62 0.930 . S
H80 C69 0.930 . S
H81 C71 0.930 . S
H82 C72 0.930 . S
H83 C73 0.930 . S
Eu84 N115 2.657 . S
Eu84 N122 2.609 . S
Eu84 O128 2.558 . S
Eu84 O129 2.612 . S
Eu84 O131 2.339 . S
Eu84 O132 2.563 . S
Eu84 O133 2.419 . S
Eu84 O135 2.380 . S
Eu84 O136 2.432 . S
Eu84 C148 2.848 . S
C85 C88 1.429 . S
C85 C89 1.411 . S
C85 N92 1.377 . S
C86 C88 1.420 . S
C86 C90 1.423 . S
C86 C98 1.392 . S
C87 C89 1.420 . S
C87 C90 1.351 . S
C87 H110 0.931 . S
C88 C85 1.429 . S
C88 C86 1.420 . S
C88 N96 1.362 . S
C89 C85 1.411 . S
C89 C87 1.420 . S
C89 C94 1.395 . S
C90 C86 1.423 . S
C90 C87 1.351 . S
C90 H102 0.930 . S
C91 C93 1.400 . S
C91 C94 1.386 . S
C91 H103 0.930 . S
N92 C85 1.377 . S
N92 C93 1.321 . S
N92 Eu95 2.609 . S
C93 C91 1.400 . S
C93 N92 1.321 . S
C93 H100 0.930 . S
C94 C89 1.395 . S
C94 C91 1.386 . S
C94 H113 0.930 . S
Eu95 N92 2.609 . S
Eu95 N96 2.657 . S
Eu95 O129 2.380 . S
Eu95 O130 2.432 . S
Eu95 O134 2.558 . S
Eu95 O135 2.612 . S
Eu95 O137 2.339 . S
Eu95 O138 2.563 . S
Eu95 O139 2.419 . S
Eu95 C159 2.848 . S
N96 C88 1.362 . S
N96 Eu95 2.657 . S
N96 C97 1.334 . S
C97 N96 1.334 . S
C97 C99 1.413 . S
C97 H104 0.929 . S
C98 C86 1.392 . S
C98 C99 1.367 . S
C98 H106 0.930 . S
C99 C97 1.413 . S
C99 C98 1.367 . S
C99 H101 0.930 . S
H100 C93 0.930 . S
H101 C99 0.930 . S
H102 C90 0.930 . S
H103 C91 0.930 . S
H104 C97 0.929 . S
H105 C119 0.930 . S
H106 C98 0.930 . S
H107 C125 0.930 . S
H108 C116 0.929 . S
H109 C123 0.930 . S
H110 C87 0.931 . S
H111 C117 0.930 . S
H112 C150 0.930 . S
H113 C94 0.930 . S
H114 C149 0.931 . S
N115 Eu84 2.657 . S
N115 C116 1.334 . S
N115 C120 1.362 . S
C116 H108 0.929 . S
C116 N115 1.334 . S
C116 C119 1.413 . S
C117 H111 0.930 . S
C117 C118 1.392 . S
C117 C119 1.367 . S
C118 C117 1.392 . S
C118 C120 1.420 . S
C118 C150 1.423 . S
C119 H105 0.930 . S
C119 C116 1.413 . S
C119 C117 1.367 . S
C120 N115 1.362 . S
C120 C118 1.420 . S
C120 C124 1.429 . S
H121 C126 0.930 . S
N122 Eu84 2.609 . S
N122 C124 1.377 . S
N122 C125 1.321 . S
C123 H109 0.930 . S
C123 C125 1.400 . S
C123 C126 1.386 . S
C124 C120 1.429 . S
C124 N122 1.377 . S
C124 C127 1.411 . S
C125 H107 0.930 . S
C125 N122 1.321 . S
C125 C123 1.400 . S
C126 H121 0.930 . S
C126 C123 1.386 . S
C126 C127 1.395 . S
C127 C124 1.411 . S
C127 C126 1.395 . S
C127 C149 1.420 . S
O128 Eu84 2.558 . S
O128 C148 1.257 . S
O129 Eu84 2.612 . S
O129 Eu95 2.380 . S
O129 C140 1.276 . S
O130 Eu95 2.432 . S
O130 C147 1.264 . S
O131 Eu84 2.339 . S
O131 C147 1.254 . S
O132 Eu84 2.563 . S
O132 C140 1.235 . S
O133 Eu84 2.419 . S
O133 C148 1.249 . S
O134 Eu95 2.558 . S
O134 C159 1.257 . S
O135 Eu84 2.380 . S
O135 Eu95 2.612 . S
O135 C151 1.276 . S
O136 Eu84 2.432 . S
O136 C158 1.264 . S
O137 Eu95 2.339 . S
O137 C158 1.254 . S
O138 Eu95 2.563 . S
O138 C151 1.235 . S
O139 Eu95 2.419 . S
O139 C159 1.249 . S
C140 O129 1.276 . S
C140 O132 1.235 . S
C141 C143 1.393 . S
C141 C145 1.395 . S
C141 C148 1.492 . S
C142 C143 1.392 . S
C142 C144 1.386 . S
C143 C141 1.393 . S
C143 C142 1.392 . S
C143 H160 0.930 . S
C144 C142 1.386 . S
C144 C146 1.395 . S
C144 H161 0.930 . S
C145 C141 1.395 . S
C145 C146 1.379 . S
C145 H162 0.930 . S
C146 C144 1.395 . S
C146 C145 1.379 . S
C146 H163 0.930 . S
C147 O130 1.264 . S
C147 O131 1.254 . S
C148 Eu84 2.848 . S
C148 O128 1.257 . S
C148 O133 1.249 . S
C148 C141 1.492 . S
C149 H114 0.931 . S
C149 C127 1.420 . S
C149 C150 1.351 . S
C150 H112 0.930 . S
C150 C118 1.423 . S
C150 C149 1.351 . S
C151 O135 1.276 . S
C151 O138 1.235 . S
C152 C153 1.393 . S
C152 C156 1.395 . S
C152 C159 1.492 . S
C153 C152 1.393 . S
C153 C154 1.392 . S
C153 H164 0.930 . S
C154 C153 1.392 . S
C154 C155 1.386 . S
C155 C154 1.386 . S
C155 C157 1.395 . S
C155 H165 0.930 . S
C156 C152 1.395 . S
C156 C157 1.379 . S
C156 H166 0.930 . S
C157 C155 1.395 . S
C157 C156 1.379 . S
C157 H167 0.930 . S
C158 O136 1.264 . S
C158 O137 1.254 . S
C159 Eu95 2.848 . S
C159 O134 1.257 . S
C159 O139 1.249 . S
C159 C152 1.492 . S
H160 C143 0.930 . S
H161 C144 0.930 . S
H162 C145 0.930 . S
H163 C146 0.930 . S
H164 C153 0.930 . S
H165 C155 0.930 . S
H166 C156 0.930 . S
H167 C157 0.930 . S
Eu168 N199 2.657 . S
Eu168 N206 2.609 . S
Eu168 O212 2.558 . S
Eu168 O213 2.612 . S
Eu168 O215 2.339 . S
Eu168 O216 2.563 . S
Eu168 O217 2.419 . S
Eu168 O219 2.380 . S
Eu168 O220 2.432 . S
Eu168 C232 2.848 . S
C169 C172 1.429 . S
C169 C173 1.411 . S
C169 N176 1.377 . S
C170 C172 1.420 . S
C170 C174 1.423 . S
C170 C182 1.392 . S
C171 C173 1.420 . S
C171 C174 1.351 . S
C171 H194 0.931 . S
C172 C169 1.429 . S
C172 C170 1.420 . S
C172 N180 1.362 . S
C173 C169 1.411 . S
C173 C171 1.420 . S
C173 C178 1.395 . S
C174 C170 1.423 . S
C174 C171 1.351 . S
C174 H186 0.930 . S
C175 C177 1.400 . S
C175 C178 1.386 . S
C175 H187 0.930 . S
N176 C169 1.377 . S
N176 C177 1.321 . S
N176 Eu179 2.609 . S
C177 C175 1.400 . S
C177 N176 1.321 . S
C177 H184 0.930 . S
C178 C173 1.395 . S
C178 C175 1.386 . S
C178 H197 0.930 . S
Eu179 N176 2.609 . S
Eu179 N180 2.657 . S
Eu179 O213 2.380 . S
Eu179 O214 2.432 . S
Eu179 O218 2.558 . S
Eu179 O219 2.612 . S
Eu179 O221 2.339 . S
Eu179 O222 2.563 . S
Eu179 O223 2.419 . S
Eu179 C243 2.848 . S
N180 C172 1.362 . S
N180 Eu179 2.657 . S
N180 C181 1.334 . S
C181 N180 1.334 . S
C181 C183 1.413 . S
C181 H188 0.929 . S
C182 C170 1.392 . S
C182 C183 1.367 . S
C182 H190 0.930 . S
C183 C181 1.413 . S
C183 C182 1.367 . S
C183 H185 0.930 . S
H184 C177 0.930 . S
H185 C183 0.930 . S
H186 C174 0.930 . S
H187 C175 0.930 . S
H188 C181 0.929 . S
H189 C203 0.930 . S
H190 C182 0.930 . S
H191 C209 0.930 . S
H192 C200 0.929 . S
H193 C207 0.930 . S
H194 C171 0.931 . S
H195 C201 0.930 . S
H196 C234 0.930 . S
H197 C178 0.930 . S
H198 C233 0.931 . S
N199 Eu168 2.657 . S
N199 C200 1.334 . S
N199 C204 1.362 . S
C200 H192 0.929 . S
C200 N199 1.334 . S
C200 C203 1.413 . S
C201 H195 0.930 . S
C201 C202 1.392 . S
C201 C203 1.367 . S
C202 C201 1.392 . S
C202 C204 1.420 . S
C202 C234 1.423 . S
C203 H189 0.930 . S
C203 C200 1.413 . S
C203 C201 1.367 . S
C204 N199 1.362 . S
C204 C202 1.420 . S
C204 C208 1.429 . S
H205 C210 0.930 . S
N206 Eu168 2.609 . S
N206 C208 1.377 . S
N206 C209 1.321 . S
C207 H193 0.930 . S
C207 C209 1.400 . S
C207 C210 1.386 . S
C208 C204 1.429 . S
C208 N206 1.377 . S
C208 C211 1.411 . S
C209 H191 0.930 . S
C209 N206 1.321 . S
C209 C207 1.400 . S
C210 H205 0.930 . S
C210 C207 1.386 . S
C210 C211 1.395 . S
C211 C208 1.411 . S
C211 C210 1.395 . S
C211 C233 1.420 . S
O212 Eu168 2.558 . S
O212 C232 1.257 . S
O213 Eu168 2.612 . S
O213 Eu179 2.380 . S
O213 C224 1.276 . S
O214 Eu179 2.432 . S
O214 C231 1.264 . S
O215 Eu168 2.339 . S
O215 C231 1.254 . S
O216 Eu168 2.563 . S
O216 C224 1.235 . S
O217 Eu168 2.419 . S
O217 C232 1.249 . S
O218 Eu179 2.558 . S
O218 C243 1.257 . S
O219 Eu168 2.380 . S
O219 Eu179 2.612 . S
O219 C235 1.276 . S
O220 Eu168 2.432 . S
O220 C242 1.264 . S
O221 Eu179 2.339 . S
O221 C242 1.254 . S
O222 Eu179 2.563 . S
O222 C235 1.235 . S
O223 Eu179 2.419 . S
O223 C243 1.249 . S
C224 O213 1.276 . S
C224 O216 1.235 . S
C225 C227 1.393 . S
C225 C229 1.395 . S
C225 C232 1.492 . S
C226 C227 1.392 . S
C226 C228 1.386 . S
C227 C225 1.393 . S
C227 C226 1.392 . S
C227 H244 0.930 . S
C228 C226 1.386 . S
C228 C230 1.395 . S
C228 H245 0.930 . S
C229 C225 1.395 . S
C229 C230 1.379 . S
C229 H246 0.930 . S
C230 C228 1.395 . S
C230 C229 1.379 . S
C230 H247 0.930 . S
C231 O214 1.264 . S
C231 O215 1.254 . S
C232 Eu168 2.848 . S
C232 O212 1.257 . S
C232 O217 1.249 . S
C232 C225 1.492 . S
C233 H198 0.931 . S
C233 C211 1.420 . S
C233 C234 1.351 . S
C234 H196 0.930 . S
C234 C202 1.423 . S
C234 C233 1.351 . S
C235 O219 1.276 . S
C235 O222 1.235 . S
C236 C237 1.393 . S
C236 C240 1.395 . S
C236 C243 1.492 . S
C237 C236 1.393 . S
C237 C238 1.392 . S
C237 H248 0.930 . S
C238 C237 1.392 . S
C238 C239 1.386 . S
C239 C238 1.386 . S
C239 C241 1.395 . S
C239 H249 0.930 . S
C240 C236 1.395 . S
C240 C241 1.379 . S
C240 H250 0.930 . S
C241 C239 1.395 . S
C241 C240 1.379 . S
C241 H251 0.930 . S
C242 O220 1.264 . S
C242 O221 1.254 . S
C243 Eu179 2.848 . S
C243 O218 1.257 . S
C243 O223 1.249 . S
C243 C236 1.492 . S
H244 C227 0.930 . S
H245 C228 0.930 . S
H246 C229 0.930 . S
H247 C230 0.930 . S
H248 C237 0.930 . S
H249 C239 0.930 . S
H250 C240 0.930 . S
H251 C241 0.930 . S
Eu252 N283 2.657 . S
Eu252 N290 2.609 . S
Eu252 O296 2.558 . S
Eu252 O297 2.612 . S
Eu252 O299 2.339 . S
Eu252 O300 2.563 . S
Eu252 O301 2.419 . S
Eu252 O303 2.380 . S
Eu252 O304 2.432 . S
Eu252 C316 2.848 . S
C253 C256 1.429 . S
C253 C257 1.411 . S
C253 N260 1.377 . S
C254 C256 1.420 . S
C254 C258 1.423 . S
C254 C266 1.392 . S
C255 C257 1.420 . S
C255 C258 1.351 . S
C255 H278 0.931 . S
C256 C253 1.429 . S
C256 C254 1.420 . S
C256 N264 1.362 . S
C257 C253 1.411 . S
C257 C255 1.420 . S
C257 C262 1.395 . S
C258 C254 1.423 . S
C258 C255 1.351 . S
C258 H270 0.930 . S
C259 C261 1.400 . S
C259 C262 1.386 . S
C259 H271 0.930 . S
N260 C253 1.377 . S
N260 C261 1.321 . S
N260 Eu263 2.609 . S
C261 C259 1.400 . S
C261 N260 1.321 . S
C261 H268 0.930 . S
C262 C257 1.395 . S
C262 C259 1.386 . S
C262 H281 0.930 . S
Eu263 N260 2.609 . S
Eu263 N264 2.657 . S
Eu263 O297 2.380 . S
Eu263 O298 2.432 . S
Eu263 O302 2.558 . S
Eu263 O303 2.612 . S
Eu263 O305 2.339 . S
Eu263 O306 2.563 . S
Eu263 O307 2.419 . S
Eu263 C327 2.848 . S
N264 C256 1.362 . S
N264 Eu263 2.657 . S
N264 C265 1.334 . S
C265 N264 1.334 . S
C265 C267 1.413 . S
C265 H272 0.929 . S
C266 C254 1.392 . S
C266 C267 1.367 . S
C266 H274 0.930 . S
C267 C265 1.413 . S
C267 C266 1.367 . S
C267 H269 0.930 . S
H268 C261 0.930 . S
H269 C267 0.930 . S
H270 C258 0.930 . S
H271 C259 0.930 . S
H272 C265 0.929 . S
H273 C287 0.930 . S
H274 C266 0.930 . S
H275 C293 0.930 . S
H276 C284 0.929 . S
H277 C291 0.930 . S
H278 C255 0.931 . S
H279 C285 0.930 . S
H280 C318 0.930 . S
H281 C262 0.930 . S
H282 C317 0.931 . S
N283 Eu252 2.657 . S
N283 C284 1.334 . S
N283 C288 1.362 . S
C284 H276 0.929 . S
C284 N283 1.334 . S
C284 C287 1.413 . S
C285 H279 0.930 . S
C285 C286 1.392 . S
C285 C287 1.367 . S
C286 C285 1.392 . S
C286 C288 1.420 . S
C286 C318 1.423 . S
C287 H273 0.930 . S
C287 C284 1.413 . S
C287 C285 1.367 . S
C288 N283 1.362 . S
C288 C286 1.420 . S
C288 C292 1.429 . S
H289 C294 0.930 . S
N290 Eu252 2.609 . S
N290 C292 1.377 . S
N290 C293 1.321 . S
C291 H277 0.930 . S
C291 C293 1.400 . S
C291 C294 1.386 . S
C292 C288 1.429 . S
C292 N290 1.377 . S
C292 C295 1.411 . S
C293 H275 0.930 . S
C293 N290 1.321 . S
C293 C291 1.400 . S
C294 H289 0.930 . S
C294 C291 1.386 . S
C294 C295 1.395 . S
C295 C292 1.411 . S
C295 C294 1.395 . S
C295 C317 1.420 . S
O296 Eu252 2.558 . S
O296 C316 1.257 . S
O297 Eu252 2.612 . S
O297 Eu263 2.380 . S
O297 C308 1.276 . S
O298 Eu263 2.432 . S
O298 C315 1.264 . S
O299 Eu252 2.339 . S
O299 C315 1.254 . S
O300 Eu252 2.563 . S
O300 C308 1.235 . S
O301 Eu252 2.419 . S
O301 C316 1.249 . S
O302 Eu263 2.558 . S
O302 C327 1.257 . S
O303 Eu252 2.380 . S
O303 Eu263 2.612 . S
O303 C319 1.276 . S
O304 Eu252 2.432 . S
O304 C326 1.264 . S
O305 Eu263 2.339 . S
O305 C326 1.254 . S
O306 Eu263 2.563 . S
O306 C319 1.235 . S
O307 Eu263 2.419 . S
O307 C327 1.249 . S
C308 O297 1.276 . S
C308 O300 1.235 . S
C309 C311 1.393 . S
C309 C313 1.395 . S
C309 C316 1.492 . S
C310 C311 1.392 . S
C310 C312 1.386 . S
C311 C309 1.393 . S
C311 C310 1.392 . S
C311 H328 0.930 . S
C312 C310 1.386 . S
C312 C314 1.395 . S
C312 H329 0.930 . S
C313 C309 1.395 . S
C313 C314 1.379 . S
C313 H330 0.930 . S
C314 C312 1.395 . S
C314 C313 1.379 . S
C314 H331 0.930 . S
C315 O298 1.264 . S
C315 O299 1.254 . S
C316 Eu252 2.848 . S
C316 O296 1.257 . S
C316 O301 1.249 . S
C316 C309 1.492 . S
C317 H282 0.931 . S
C317 C295 1.420 . S
C317 C318 1.351 . S
C318 H280 0.930 . S
C318 C286 1.423 . S
C318 C317 1.351 . S
C319 O303 1.276 . S
C319 O306 1.235 . S
C320 C321 1.393 . S
C320 C324 1.395 . S
C320 C327 1.492 . S
C321 C320 1.393 . S
C321 C322 1.392 . S
C321 H332 0.930 . S
C322 C321 1.392 . S
C322 C323 1.386 . S
C323 C322 1.386 . S
C323 C325 1.395 . S
C323 H333 0.930 . S
C324 C320 1.395 . S
C324 C325 1.379 . S
C324 H334 0.930 . S
C325 C323 1.395 . S
C325 C324 1.379 . S
C325 H335 0.930 . S
C326 O304 1.264 . S
C326 O305 1.254 . S
C327 Eu263 2.848 . S
C327 O302 1.257 . S
C327 O307 1.249 . S
C327 C320 1.492 . S
H328 C311 0.930 . S
H329 C312 0.930 . S
H330 C313 0.930 . S
H331 C314 0.930 . S
H332 C321 0.930 . S
H333 C323 0.930 . S
H334 C324 0.930 . S
H335 C325 0.930 . S
Eu336 N367 2.657 . S
Eu336 N374 2.609 . S
Eu336 O380 2.558 . S
Eu336 O381 2.612 . S
Eu336 O383 2.339 . S
Eu336 O384 2.563 . S
Eu336 O385 2.419 . S
Eu336 O387 2.380 . S
Eu336 O388 2.432 . S
Eu336 C400 2.848 . S
C337 C340 1.429 . S
C337 C341 1.411 . S
C337 N344 1.377 . S
C338 C340 1.420 . S
C338 C342 1.423 . S
C338 C350 1.392 . S
C339 C341 1.420 . S
C339 C342 1.351 . S
C339 H362 0.931 . S
C340 C337 1.429 . S
C340 C338 1.420 . S
C340 N348 1.362 . S
C341 C337 1.411 . S
C341 C339 1.420 . S
C341 C346 1.395 . S
C342 C338 1.423 . S
C342 C339 1.351 . S
C342 H354 0.930 . S
C343 C345 1.400 . S
C343 C346 1.386 . S
C343 H355 0.930 . S
N344 C337 1.377 . S
N344 C345 1.321 . S
N344 Eu347 2.609 . S
C345 C343 1.400 . S
C345 N344 1.321 . S
C345 H352 0.930 . S
C346 C341 1.395 . S
C346 C343 1.386 . S
C346 H365 0.930 . S
Eu347 N344 2.609 . S
Eu347 N348 2.657 . S
Eu347 O381 2.380 . S
Eu347 O382 2.432 . S
Eu347 O386 2.558 . S
Eu347 O387 2.612 . S
Eu347 O389 2.339 . S
Eu347 O390 2.563 . S
Eu347 O391 2.419 . S
Eu347 C411 2.848 . S
N348 C340 1.362 . S
N348 Eu347 2.657 . S
N348 C349 1.334 . S
C349 N348 1.334 . S
C349 C351 1.413 . S
C349 H356 0.929 . S
C350 C338 1.392 . S
C350 C351 1.367 . S
C350 H358 0.930 . S
C351 C349 1.413 . S
C351 C350 1.367 . S
C351 H353 0.930 . S
H352 C345 0.930 . S
H353 C351 0.930 . S
H354 C342 0.930 . S
H355 C343 0.930 . S
H356 C349 0.929 . S
H357 C371 0.930 . S
H358 C350 0.930 . S
H359 C377 0.930 . S
H360 C368 0.929 . S
H361 C375 0.930 . S
H362 C339 0.931 . S
H363 C369 0.930 . S
H364 C402 0.930 . S
H365 C346 0.930 . S
H366 C401 0.931 . S
N367 Eu336 2.657 . S
N367 C368 1.334 . S
N367 C372 1.362 . S
C368 H360 0.929 . S
C368 N367 1.334 . S
C368 C371 1.413 . S
C369 H363 0.930 . S
C369 C370 1.392 . S
C369 C371 1.367 . S
C370 C369 1.392 . S
C370 C372 1.420 . S
C370 C402 1.423 . S
C371 H357 0.930 . S
C371 C368 1.413 . S
C371 C369 1.367 . S
C372 N367 1.362 . S
C372 C370 1.420 . S
C372 C376 1.429 . S
H373 C378 0.930 . S
N374 Eu336 2.609 . S
N374 C376 1.377 . S
N374 C377 1.321 . S
C375 H361 0.930 . S
C375 C377 1.400 . S
C375 C378 1.386 . S
C376 C372 1.429 . S
C376 N374 1.377 . S
C376 C379 1.411 . S
C377 H359 0.930 . S
C377 N374 1.321 . S
C377 C375 1.400 . S
C378 H373 0.930 . S
C378 C375 1.386 . S
C378 C379 1.395 . S
C379 C376 1.411 . S
C379 C378 1.395 . S
C379 C401 1.420 . S
O380 Eu336 2.558 . S
O380 C400 1.257 . S
O381 Eu336 2.612 . S
O381 Eu347 2.380 . S
O381 C392 1.276 . S
O382 Eu347 2.432 . S
O382 C399 1.264 . S
O383 Eu336 2.339 . S
O383 C399 1.254 . S
O384 Eu336 2.563 . S
O384 C392 1.235 . S
O385 Eu336 2.419 . S
O385 C400 1.249 . S
O386 Eu347 2.558 . S
O386 C411 1.257 . S
O387 Eu336 2.380 . S
O387 Eu347 2.612 . S
O387 C403 1.276 . S
O388 Eu336 2.432 . S
O388 C410 1.264 . S
O389 Eu347 2.339 . S
O389 C410 1.254 . S
O390 Eu347 2.563 . S
O390 C403 1.235 . S
O391 Eu347 2.419 . S
O391 C411 1.249 . S
C392 O381 1.276 . S
C392 O384 1.235 . S
C393 C395 1.393 . S
C393 C397 1.395 . S
C393 C400 1.492 . S
C394 C395 1.392 . S
C394 C396 1.386 . S
C395 C393 1.393 . S
C395 C394 1.392 . S
C395 H412 0.930 . S
C396 C394 1.386 . S
C396 C398 1.395 . S
C396 H413 0.930 . S
C397 C393 1.395 . S
C397 C398 1.379 . S
C397 H414 0.930 . S
C398 C396 1.395 . S
C398 C397 1.379 . S
C398 H415 0.930 . S
C399 O382 1.264 . S
C399 O383 1.254 . S
C400 Eu336 2.848 . S
C400 O380 1.257 . S
C400 O385 1.249 . S
C400 C393 1.492 . S
C401 H366 0.931 . S
C401 C379 1.420 . S
C401 C402 1.351 . S
C402 H364 0.930 . S
C402 C370 1.423 . S
C402 C401 1.351 . S
C403 O387 1.276 . S
C403 O390 1.235 . S
C404 C405 1.393 . S
C404 C408 1.395 . S
C404 C411 1.492 . S
C405 C404 1.393 . S
C405 C406 1.392 . S
C405 H416 0.930 . S
C406 C405 1.392 . S
C406 C407 1.386 . S
C407 C406 1.386 . S
C407 C409 1.395 . S
C407 H417 0.930 . S
C408 C404 1.395 . S
C408 C409 1.379 . S
C408 H418 0.930 . S
C409 C407 1.395 . S
C409 C408 1.379 . S
C409 H419 0.930 . S
C410 O388 1.264 . S
C410 O389 1.254 . S
C411 Eu347 2.848 . S
C411 O386 1.257 . S
C411 O391 1.249 . S
C411 C404 1.492 . S
H412 C395 0.930 . S
H413 C396 0.930 . S
H414 C397 0.930 . S
H415 C398 0.930 . S
H416 C405 0.930 . S
H417 C407 0.930 . S
H418 C408 0.930 . S
H419 C409 0.930 . S
Eu420 N451 2.657 . S
Eu420 N458 2.609 . S
Eu420 O464 2.558 . S
Eu420 O465 2.612 . S
Eu420 O467 2.339 . S
Eu420 O468 2.563 . S
Eu420 O469 2.419 . S
Eu420 O471 2.380 . S
Eu420 O472 2.432 . S
Eu420 C484 2.848 . S
C421 C424 1.429 . S
C421 C425 1.411 . S
C421 N428 1.377 . S
C422 C424 1.420 . S
C422 C426 1.423 . S
C422 C434 1.392 . S
C423 C425 1.420 . S
C423 C426 1.351 . S
C423 H446 0.931 . S
C424 C421 1.429 . S
C424 C422 1.420 . S
C424 N432 1.362 . S
C425 C421 1.411 . S
C425 C423 1.420 . S
C425 C430 1.395 . S
C426 C422 1.423 . S
C426 C423 1.351 . S
C426 H438 0.930 . S
C427 C429 1.400 . S
C427 C430 1.386 . S
C427 H439 0.930 . S
N428 C421 1.377 . S
N428 C429 1.321 . S
N428 Eu431 2.609 . S
C429 C427 1.400 . S
C429 N428 1.321 . S
C429 H436 0.930 . S
C430 C425 1.395 . S
C430 C427 1.386 . S
C430 H449 0.930 . S
Eu431 N428 2.609 . S
Eu431 N432 2.657 . S
Eu431 O465 2.380 . S
Eu431 O466 2.432 . S
Eu431 O470 2.558 . S
Eu431 O471 2.612 . S
Eu431 O473 2.339 . S
Eu431 O474 2.563 . S
Eu431 O475 2.419 . S
Eu431 C495 2.848 . S
N432 C424 1.362 . S
N432 Eu431 2.657 . S
N432 C433 1.334 . S
C433 N432 1.334 . S
C433 C435 1.413 . S
C433 H440 0.929 . S
C434 C422 1.392 . S
C434 C435 1.367 . S
C434 H442 0.930 . S
C435 C433 1.413 . S
C435 C434 1.367 . S
C435 H437 0.930 . S
H436 C429 0.930 . S
H437 C435 0.930 . S
H438 C426 0.930 . S
H439 C427 0.930 . S
H440 C433 0.929 . S
H441 C455 0.930 . S
H442 C434 0.930 . S
H443 C461 0.930 . S
H444 C452 0.929 . S
H445 C459 0.930 . S
H446 C423 0.931 . S
H447 C453 0.930 . S
H448 C486 0.930 . S
H449 C430 0.930 . S
H450 C485 0.931 . S
N451 Eu420 2.657 . S
N451 C452 1.334 . S
N451 C456 1.362 . S
C452 H444 0.929 . S
C452 N451 1.334 . S
C452 C455 1.413 . S
C453 H447 0.930 . S
C453 C454 1.392 . S
C453 C455 1.367 . S
C454 C453 1.392 . S
C454 C456 1.420 . S
C454 C486 1.423 . S
C455 H441 0.930 . S
C455 C452 1.413 . S
C455 C453 1.367 . S
C456 N451 1.362 . S
C456 C454 1.420 . S
C456 C460 1.429 . S
H457 C462 0.930 . S
N458 Eu420 2.609 . S
N458 C460 1.377 . S
N458 C461 1.321 . S
C459 H445 0.930 . S
C459 C461 1.400 . S
C459 C462 1.386 . S
C460 C456 1.429 . S
C460 N458 1.377 . S
C460 C463 1.411 . S
C461 H443 0.930 . S
C461 N458 1.321 . S
C461 C459 1.400 . S
C462 H457 0.930 . S
C462 C459 1.386 . S
C462 C463 1.395 . S
C463 C460 1.411 . S
C463 C462 1.395 . S
C463 C485 1.420 . S
O464 Eu420 2.558 . S
O464 C484 1.257 . S
O465 Eu420 2.612 . S
O465 Eu431 2.380 . S
O465 C476 1.276 . S
O466 Eu431 2.432 . S
O466 C483 1.264 . S
O467 Eu420 2.339 . S
O467 C483 1.254 . S
O468 Eu420 2.563 . S
O468 C476 1.235 . S
O469 Eu420 2.419 . S
O469 C484 1.249 . S
O470 Eu431 2.558 . S
O470 C495 1.257 . S
O471 Eu420 2.380 . S
O471 Eu431 2.612 . S
O471 C487 1.276 . S
O472 Eu420 2.432 . S
O472 C494 1.264 . S
O473 Eu431 2.339 . S
O473 C494 1.254 . S
O474 Eu431 2.563 . S
O474 C487 1.235 . S
O475 Eu431 2.419 . S
O475 C495 1.249 . S
C476 O465 1.276 . S
C476 O468 1.235 . S
C477 C479 1.393 . S
C477 C481 1.395 . S
C477 C484 1.492 . S
C478 C479 1.392 . S
C478 C480 1.386 . S
C479 C477 1.393 . S
C479 C478 1.392 . S
C479 H496 0.930 . S
C480 C478 1.386 . S
C480 C482 1.395 . S
C480 H497 0.930 . S
C481 C477 1.395 . S
C481 C482 1.379 . S
C481 H498 0.930 . S
C482 C480 1.395 . S
C482 C481 1.379 . S
C482 H499 0.930 . S
C483 O466 1.264 . S
C483 O467 1.254 . S
C484 Eu420 2.848 . S
C484 O464 1.257 . S
C484 O469 1.249 . S
C484 C477 1.492 . S
C485 H450 0.931 . S
C485 C463 1.420 . S
C485 C486 1.351 . S
C486 H448 0.930 . S
C486 C454 1.423 . S
C486 C485 1.351 . S
C487 O471 1.276 . S
C487 O474 1.235 . S
C488 C489 1.393 . S
C488 C492 1.395 . S
C488 C495 1.492 . S
C489 C488 1.393 . S
C489 C490 1.392 . S
C489 H500 0.930 . S
C490 C489 1.392 . S
C490 C491 1.386 . S
C491 C490 1.386 . S
C491 C493 1.395 . S
C491 H501 0.930 . S
C492 C488 1.395 . S
C492 C493 1.379 . S
C492 H502 0.930 . S
C493 C491 1.395 . S
C493 C492 1.379 . S
C493 H503 0.930 . S
C494 O472 1.264 . S
C494 O473 1.254 . S
C495 Eu431 2.848 . S
C495 O470 1.257 . S
C495 O475 1.249 . S
C495 C488 1.492 . S
H496 C479 0.930 . S
H497 C480 0.930 . S
H498 C481 0.930 . S
H499 C482 0.930 . S
H500 C489 0.930 . S
H501 C491 0.930 . S
H502 C492 0.930 . S
H503 C493 0.930 . S
Eu504 N535 2.657 . S
Eu504 N542 2.609 . S
Eu504 O548 2.558 . S
Eu504 O549 2.612 . S
Eu504 O551 2.339 . S
Eu504 O552 2.563 . S
Eu504 O553 2.419 . S
Eu504 O555 2.380 . S
Eu504 O556 2.432 . S
Eu504 C568 2.848 . S
C505 C508 1.429 . S
C505 C509 1.411 . S
C505 N512 1.377 . S
C506 C508 1.420 . S
C506 C510 1.423 . S
C506 C518 1.392 . S
C507 C509 1.420 . S
C507 C510 1.351 . S
C507 H530 0.931 . S
C508 C505 1.429 . S
C508 C506 1.420 . S
C508 N516 1.362 . S
C509 C505 1.411 . S
C509 C507 1.420 . S
C509 C514 1.395 . S
C510 C506 1.423 . S
C510 C507 1.351 . S
C510 H522 0.930 . S
C511 C513 1.400 . S
C511 C514 1.386 . S
C511 H523 0.930 . S
N512 C505 1.377 . S
N512 C513 1.321 . S
N512 Eu515 2.609 . S
C513 C511 1.400 . S
C513 N512 1.321 . S
C513 H520 0.930 . S
C514 C509 1.395 . S
C514 C511 1.386 . S
C514 H533 0.930 . S
Eu515 N512 2.609 . S
Eu515 N516 2.657 . S
Eu515 O549 2.380 . S
Eu515 O550 2.432 . S
Eu515 O554 2.558 . S
Eu515 O555 2.612 . S
Eu515 O557 2.339 . S
Eu515 O558 2.563 . S
Eu515 O559 2.419 . S
Eu515 C579 2.848 . S
N516 C508 1.362 . S
N516 Eu515 2.657 . S
N516 C517 1.334 . S
C517 N516 1.334 . S
C517 C519 1.413 . S
C517 H524 0.929 . S
C518 C506 1.392 . S
C518 C519 1.367 . S
C518 H526 0.930 . S
C519 C517 1.413 . S
C519 C518 1.367 . S
C519 H521 0.930 . S
H520 C513 0.930 . S
H521 C519 0.930 . S
H522 C510 0.930 . S
H523 C511 0.930 . S
H524 C517 0.929 . S
H525 C539 0.930 . S
H526 C518 0.930 . S
H527 C545 0.930 . S
H528 C536 0.929 . S
H529 C543 0.930 . S
H530 C507 0.931 . S
H531 C537 0.930 . S
H532 C570 0.930 . S
H533 C514 0.930 . S
H534 C569 0.931 . S
N535 Eu504 2.657 . S
N535 C536 1.334 . S
N535 C540 1.362 . S
C536 H528 0.929 . S
C536 N535 1.334 . S
C536 C539 1.413 . S
C537 H531 0.930 . S
C537 C538 1.392 . S
C537 C539 1.367 . S
C538 C537 1.392 . S
C538 C540 1.420 . S
C538 C570 1.423 . S
C539 H525 0.930 . S
C539 C536 1.413 . S
C539 C537 1.367 . S
C540 N535 1.362 . S
C540 C538 1.420 . S
C540 C544 1.429 . S
H541 C546 0.930 . S
N542 Eu504 2.609 . S
N542 C544 1.377 . S
N542 C545 1.321 . S
C543 H529 0.930 . S
C543 C545 1.400 . S
C543 C546 1.386 . S
C544 C540 1.429 . S
C544 N542 1.377 . S
C544 C547 1.411 . S
C545 H527 0.930 . S
C545 N542 1.321 . S
C545 C543 1.400 . S
C546 H541 0.930 . S
C546 C543 1.386 . S
C546 C547 1.395 . S
C547 C544 1.411 . S
C547 C546 1.395 . S
C547 C569 1.420 . S
O548 Eu504 2.558 . S
O548 C568 1.257 . S
O549 Eu504 2.612 . S
O549 Eu515 2.380 . S
O549 C560 1.276 . S
O550 Eu515 2.432 . S
O550 C567 1.264 . S
O551 Eu504 2.339 . S
O551 C567 1.254 . S
O552 Eu504 2.563 . S
O552 C560 1.235 . S
O553 Eu504 2.419 . S
O553 C568 1.249 . S
O554 Eu515 2.558 . S
O554 C579 1.257 . S
O555 Eu504 2.380 . S
O555 Eu515 2.612 . S
O555 C571 1.276 . S
O556 Eu504 2.432 . S
O556 C578 1.264 . S
O557 Eu515 2.339 . S
O557 C578 1.254 . S
O558 Eu515 2.563 . S
O558 C571 1.235 . S
O559 Eu515 2.419 . S
O559 C579 1.249 . S
C560 O549 1.276 . S
C560 O552 1.235 . S
C561 C563 1.393 . S
C561 C565 1.395 . S
C561 C568 1.492 . S
C562 C563 1.392 . S
C562 C564 1.386 . S
C563 C561 1.393 . S
C563 C562 1.392 . S
C563 H580 0.930 . S
C564 C562 1.386 . S
C564 C566 1.395 . S
C564 H581 0.930 . S
C565 C561 1.395 . S
C565 C566 1.379 . S
C565 H582 0.930 . S
C566 C564 1.395 . S
C566 C565 1.379 . S
C566 H583 0.930 . S
C567 O550 1.264 . S
C567 O551 1.254 . S
C568 Eu504 2.848 . S
C568 O548 1.257 . S
C568 O553 1.249 . S
C568 C561 1.492 . S
C569 H534 0.931 . S
C569 C547 1.420 . S
C569 C570 1.351 . S
C570 H532 0.930 . S
C570 C538 1.423 . S
C570 C569 1.351 . S
C571 O555 1.276 . S
C571 O558 1.235 . S
C572 C573 1.393 . S
C572 C576 1.395 . S
C572 C579 1.492 . S
C573 C572 1.393 . S
C573 C574 1.392 . S
C573 H584 0.930 . S
C574 C573 1.392 . S
C574 C575 1.386 . S
C575 C574 1.386 . S
C575 C577 1.395 . S
C575 H585 0.930 . S
C576 C572 1.395 . S
C576 C577 1.379 . S
C576 H586 0.930 . S
C577 C575 1.395 . S
C577 C576 1.379 . S
C577 H587 0.930 . S
C578 O556 1.264 . S
C578 O557 1.254 . S
C579 Eu515 2.848 . S
C579 O554 1.257 . S
C579 O559 1.249 . S
C579 C572 1.492 . S
H580 C563 0.930 . S
H581 C564 0.930 . S
H582 C565 0.930 . S
H583 C566 0.930 . S
H584 C573 0.930 . S
H585 C575 0.930 . S
H586 C576 0.930 . S
H587 C577 0.930 . S
Eu588 N619 2.657 . S
Eu588 N626 2.609 . S
Eu588 O632 2.558 . S
Eu588 O633 2.612 . S
Eu588 O635 2.339 . S
Eu588 O636 2.563 . S
Eu588 O637 2.419 . S
Eu588 O639 2.380 . S
Eu588 O640 2.432 . S
Eu588 C652 2.848 . S
C589 C592 1.429 . S
C589 C593 1.411 . S
C589 N596 1.377 . S
C590 C592 1.420 . S
C590 C594 1.423 . S
C590 C602 1.392 . S
C591 C593 1.420 . S
C591 C594 1.351 . S
C591 H614 0.931 . S
C592 C589 1.429 . S
C592 C590 1.420 . S
C592 N600 1.362 . S
C593 C589 1.411 . S
C593 C591 1.420 . S
C593 C598 1.395 . S
C594 C590 1.423 . S
C594 C591 1.351 . S
C594 H606 0.930 . S
C595 C597 1.400 . S
C595 C598 1.386 . S
C595 H607 0.930 . S
N596 C589 1.377 . S
N596 C597 1.321 . S
N596 Eu599 2.609 . S
C597 C595 1.400 . S
C597 N596 1.321 . S
C597 H604 0.930 . S
C598 C593 1.395 . S
C598 C595 1.386 . S
C598 H617 0.930 . S
Eu599 N596 2.609 . S
Eu599 N600 2.657 . S
Eu599 O633 2.380 . S
Eu599 O634 2.432 . S
Eu599 O638 2.558 . S
Eu599 O639 2.612 . S
Eu599 O641 2.339 . S
Eu599 O642 2.563 . S
Eu599 O643 2.419 . S
Eu599 C663 2.848 . S
N600 C592 1.362 . S
N600 Eu599 2.657 . S
N600 C601 1.334 . S
C601 N600 1.334 . S
C601 C603 1.413 . S
C601 H608 0.929 . S
C602 C590 1.392 . S
C602 C603 1.367 . S
C602 H610 0.930 . S
C603 C601 1.413 . S
C603 C602 1.367 . S
C603 H605 0.930 . S
H604 C597 0.930 . S
H605 C603 0.930 . S
H606 C594 0.930 . S
H607 C595 0.930 . S
H608 C601 0.929 . S
H609 C623 0.930 . S
H610 C602 0.930 . S
H611 C629 0.930 . S
H612 C620 0.929 . S
H613 C627 0.930 . S
H614 C591 0.931 . S
H615 C621 0.930 . S
H616 C654 0.930 . S
H617 C598 0.930 . S
H618 C653 0.931 . S
N619 Eu588 2.657 . S
N619 C620 1.334 . S
N619 C624 1.362 . S
C620 H612 0.929 . S
C620 N619 1.334 . S
C620 C623 1.413 . S
C621 H615 0.930 . S
C621 C622 1.392 . S
C621 C623 1.367 . S
C622 C621 1.392 . S
C622 C624 1.420 . S
C622 C654 1.423 . S
C623 H609 0.930 . S
C623 C620 1.413 . S
C623 C621 1.367 . S
C624 N619 1.362 . S
C624 C622 1.420 . S
C624 C628 1.429 . S
H625 C630 0.930 . S
N626 Eu588 2.609 . S
N626 C628 1.377 . S
N626 C629 1.321 . S
C627 H613 0.930 . S
C627 C629 1.400 . S
C627 C630 1.386 . S
C628 C624 1.429 . S
C628 N626 1.377 . S
C628 C631 1.411 . S
C629 H611 0.930 . S
C629 N626 1.321 . S
C629 C627 1.400 . S
C630 H625 0.930 . S
C630 C627 1.386 . S
C630 C631 1.395 . S
C631 C628 1.411 . S
C631 C630 1.395 . S
C631 C653 1.420 . S
O632 Eu588 2.558 . S
O632 C652 1.257 . S
O633 Eu588 2.612 . S
O633 Eu599 2.380 . S
O633 C644 1.276 . S
O634 Eu599 2.432 . S
O634 C651 1.264 . S
O635 Eu588 2.339 . S
O635 C651 1.254 . S
O636 Eu588 2.563 . S
O636 C644 1.235 . S
O637 Eu588 2.419 . S
O637 C652 1.249 . S
O638 Eu599 2.558 . S
O638 C663 1.257 . S
O639 Eu588 2.380 . S
O639 Eu599 2.612 . S
O639 C655 1.276 . S
O640 Eu588 2.432 . S
O640 C662 1.264 . S
O641 Eu599 2.339 . S
O641 C662 1.254 . S
O642 Eu599 2.563 . S
O642 C655 1.235 . S
O643 Eu599 2.419 . S
O643 C663 1.249 . S
C644 O633 1.276 . S
C644 O636 1.235 . S
C645 C647 1.393 . S
C645 C649 1.395 . S
C645 C652 1.492 . S
C646 C647 1.392 . S
C646 C648 1.386 . S
C647 C645 1.393 . S
C647 C646 1.392 . S
C647 H664 0.930 . S
C648 C646 1.386 . S
C648 C650 1.395 . S
C648 H665 0.930 . S
C649 C645 1.395 . S
C649 C650 1.379 . S
C649 H666 0.930 . S
C650 C648 1.395 . S
C650 C649 1.379 . S
C650 H667 0.930 . S
C651 O634 1.264 . S
C651 O635 1.254 . S
C652 Eu588 2.848 . S
C652 O632 1.257 . S
C652 O637 1.249 . S
C652 C645 1.492 . S
C653 H618 0.931 . S
C653 C631 1.420 . S
C653 C654 1.351 . S
C654 H616 0.930 . S
C654 C622 1.423 . S
C654 C653 1.351 . S
C655 O639 1.276 . S
C655 O642 1.235 . S
C656 C657 1.393 . S
C656 C660 1.395 . S
C656 C663 1.492 . S
C657 C656 1.393 . S
C657 C658 1.392 . S
C657 H668 0.930 . S
C658 C657 1.392 . S
C658 C659 1.386 . S
C659 C658 1.386 . S
C659 C661 1.395 . S
C659 H669 0.930 . S
C660 C656 1.395 . S
C660 C661 1.379 . S
C660 H670 0.930 . S
C661 C659 1.395 . S
C661 C660 1.379 . S
C661 H671 0.930 . S
C662 O640 1.264 . S
C662 O641 1.254 . S
C663 Eu599 2.848 . S
C663 O638 1.257 . S
C663 O643 1.249 . S
C663 C656 1.492 . S
H664 C647 0.930 . S
H665 C648 0.930 . S
H666 C649 0.930 . S
H667 C650 0.930 . S
H668 C657 0.930 . S
H669 C659 0.930 . S
H670 C660 0.930 . S
H671 C661 0.930 . S
C672 O684 1.241 . S
C672 O685 1.280 . S
C673 O686 1.277 . S
C673 O687 1.245 . S
C674 O698 1.247 . S
C674 O700 1.289 . S
Mg675 O676 1.926 . S
Mg675 O685 1.984 . S
Mg675 O687 1.988 . S
Mg675 O688 2.061 1_655 S
O676 Mg675 1.926 . S
O676 Mg677 1.986 1_545 S
O676 Mg678 1.908 1_655 S
Mg677 O676 1.986 1_565 S
Mg677 O684 2.042 1_565 S
Mg677 O686 2.041 1_565 S
Mg677 O692 2.038 . S
Mg677 O700 2.238 . S
Mg678 O676 1.908 1_455 S
Mg678 O679 1.925 1_545 S
Mg678 O689 2.114 . S
Mg678 O691 2.076 1_445 S
Mg678 O700 2.099 1_445 S
Mg678 O701 2.081 . S
O679 Mg678 1.925 1_565 S
O679 Mg680 1.926 . S
O679 Mg681 1.986 1_565 S
Mg680 O679 1.926 . S
Mg680 O694 1.984 . S
Mg680 O697 1.988 . S
Mg680 O698 2.061 1_455 S
Mg681 O679 1.986 1_545 S
Mg681 O689 2.238 . S
Mg681 O693 2.042 1_545 S
Mg681 O695 2.041 1_545 S
Mg681 O702 2.038 . S
C682 O688 1.247 . S
C682 O689 1.289 . S
C683 O701 1.245 . S
C683 O702 1.274 . S
O684 C672 1.241 . S
O684 Mg677 2.042 1_545 S
O685 C672 1.280 . S
O685 Mg675 1.984 . S
O686 C673 1.277 . S
O686 Mg677 2.041 1_545 S
O687 C673 1.245 . S
O687 Mg675 1.988 . S
O688 Mg675 2.061 1_455 S
O688 C682 1.247 . S
O689 Mg678 2.114 . S
O689 Mg681 2.238 . S
O689 C682 1.289 . S
C690 O691 1.245 . S
C690 O692 1.274 . S
O691 Mg678 2.076 1_665 S
O691 C690 1.245 . S
O692 Mg677 2.038 . S
O692 C690 1.274 . S
O693 Mg681 2.042 1_565 S
O693 C696 1.241 . S
O694 Mg680 1.984 . S
O694 C696 1.280 . S
O695 Mg681 2.041 1_565 S
O695 C699 1.277 . S
C696 O693 1.241 . S
C696 O694 1.280 . S
O697 Mg680 1.988 . S
O697 C699 1.245 . S
O698 C674 1.247 . S
O698 Mg680 2.061 1_655 S
C699 O695 1.277 . S
C699 O697 1.245 . S
O700 C674 1.289 . S
O700 Mg677 2.238 . S
O700 Mg678 2.099 1_665 S
O701 Mg678 2.081 . S
O701 C683 1.245 . S
O702 Mg681 2.038 . S
O702 C683 1.274 . S
C703 O715 1.241 . S
C703 O716 1.280 . S
C704 O717 1.277 . S
C704 O718 1.245 . S
C705 O729 1.247 . S
C705 O731 1.289 . S
Mg706 O707 1.926 . S
Mg706 O716 1.984 . S
Mg706 O718 1.988 1_554 S
Mg706 O719 2.061 . S
O707 Mg706 1.926 . S
O707 Mg708 1.986 1_544 S
O707 Mg709 1.917 . S
Mg708 O707 1.986 1_566 S
Mg708 O715 2.042 1_566 S
Mg708 O717 2.041 1_565 S
Mg708 O723 2.038 1_556 S
Mg708 O731 2.238 . S
Mg709 O707 1.917 . S
Mg709 O710 1.916 1_544 S
Mg709 O720 2.106 . S
Mg709 O722 2.078 1_545 S
Mg709 O731 2.106 1_544 S
Mg709 O732 2.079 1_554 S
O710 Mg709 1.916 1_566 S
O710 Mg711 1.926 . S
O710 Mg712 1.986 1_566 S
Mg711 O710 1.926 . S
Mg711 O725 1.984 . S
Mg711 O728 1.988 1_556 S
Mg711 O729 2.061 . S
Mg712 O710 1.986 1_544 S
Mg712 O720 2.238 . S
Mg712 O724 2.042 1_544 S
Mg712 O726 2.041 1_545 S
Mg712 O733 2.038 1_554 S
C713 O719 1.247 . S
C713 O720 1.289 . S
C714 O732 1.245 . S
C714 O733 1.274 . S
O715 C703 1.241 . S
O715 Mg708 2.042 1_544 S
O716 C703 1.280 . S
O716 Mg706 1.984 . S
O717 C704 1.277 . S
O717 Mg708 2.041 1_545 S
O718 C704 1.245 . S
O718 Mg706 1.988 1_556 S
O719 Mg706 2.061 . S
O719 C713 1.247 . S
O720 Mg709 2.106 . S
O720 Mg712 2.238 . S
O720 C713 1.289 . S
C721 O722 1.245 . S
C721 O723 1.274 . S
O722 Mg709 2.078 1_565 S
O722 C721 1.245 . S
O723 Mg708 2.038 1_554 S
O723 C721 1.274 . S
O724 Mg712 2.042 1_566 S
O724 C727 1.241 . S
O725 Mg711 1.984 . S
O725 C727 1.280 . S
O726 Mg712 2.041 1_565 S
O726 C730 1.277 . S
C727 O724 1.241 . S
C727 O725 1.280 . S
O728 Mg711 1.988 1_554 S
O728 C730 1.245 . S
O729 C705 1.247 . S
O729 Mg711 2.061 . S
C730 O726 1.277 . S
C730 O728 1.245 . S
O731 C705 1.289 . S
O731 Mg708 2.238 . S
O731 Mg709 2.106 1_566 S
O732 Mg709 2.079 1_556 S
O732 C714 1.245 . S
O733 Mg712 2.038 1_556 S
O733 C714 1.274 . S
C734 O746 1.241 . S
C734 O747 1.280 . S
C735 O748 1.277 . S
C735 O749 1.245 . S
C736 O760 1.247 . S
C736 O762 1.289 . S
Mg737 O738 1.926 . S
Mg737 O747 1.984 . S
Mg737 O749 1.988 1_554 S
Mg737 O750 2.061 1_655 S
O738 Mg737 1.926 . S
O738 Mg739 1.986 1_554 S
O738 Mg740 1.908 1_655 S
Mg739 O738 1.986 1_556 S
Mg739 O746 2.042 1_556 S
Mg739 O748 2.041 . S
Mg739 O754 2.038 1_556 S
Mg739 O762 2.238 . S
Mg740 O738 1.908 1_455 S
Mg740 O741 1.925 1_554 S
Mg740 O751 2.113 . S
Mg740 O753 2.076 1_455 S
Mg740 O762 2.100 1_454 S
Mg740 O763 2.081 1_554 S
O741 Mg740 1.925 1_556 S
O741 Mg742 1.926 . S
O741 Mg743 1.986 1_556 S
Mg742 O741 1.926 . S
Mg742 O756 1.984 . S
Mg742 O759 1.988 1_556 S
Mg742 O760 2.061 1_455 S
Mg743 O741 1.986 1_554 S
Mg743 O751 2.238 . S
Mg743 O755 2.042 1_554 S
Mg743 O757 2.041 . S
Mg743 O764 2.038 1_554 S
C744 O750 1.247 . S
C744 O751 1.289 . S
C745 O763 1.245 . S
C745 O764 1.274 . S
O746 C734 1.241 . S
O746 Mg739 2.042 1_554 S
O747 C734 1.280 . S
O747 Mg737 1.984 . S
O748 C735 1.277 . S
O748 Mg739 2.041 . S
O749 C735 1.245 . S
O749 Mg737 1.988 1_556 S
O750 Mg737 2.061 1_455 S
O750 C744 1.247 . S
O751 Mg740 2.113 . S
O751 Mg743 2.238 . S
O751 C744 1.289 . S
C752 O753 1.245 . S
C752 O754 1.274 . S
O753 Mg740 2.076 1_655 S
O753 C752 1.245 . S
O754 Mg739 2.038 1_554 S
O754 C752 1.274 . S
O755 Mg743 2.042 1_556 S
O755 C758 1.241 . S
O756 Mg742 1.984 . S
O756 C758 1.280 . S
O757 Mg743 2.041 . S
O757 C761 1.277 . S
C758 O755 1.241 . S
C758 O756 1.280 . S
O759 Mg742 1.988 1_554 S
O759 C761 1.245 . S
O760 C736 1.247 . S
O760 Mg742 2.061 1_655 S
C761 O757 1.277 . S
C761 O759 1.245 . S
O762 C736 1.289 . S
O762 Mg739 2.238 . S
O762 Mg740 2.100 1_656 S
O763 Mg740 2.081 1_556 S
O763 C745 1.245 . S
O764 Mg743 2.038 1_556 S
O764 C745 1.274 . S
C765 O777 1.241 . S
C765 O778 1.280 . S
C766 O779 1.277 . S
C766 O780 1.245 . S
C767 O791 1.247 . S
C767 O793 1.289 . S
Mg768 O769 1.926 . S
Mg768 O778 1.984 . S
Mg768 O780 1.988 1_554 S
Mg768 O781 2.061 . S
O769 Mg768 1.926 . S
O769 Mg770 1.986 1_554 S
O769 Mg771 1.917 . S
Mg770 O769 1.986 1_556 S
Mg770 O777 2.042 1_556 S
Mg770 O779 2.041 . S
Mg770 O785 2.038 1_556 S
Mg770 O793 2.238 . S
Mg771 O769 1.917 . S
Mg771 O772 1.917 1_554 S
Mg771 O782 2.106 . S
Mg771 O784 2.079 . S
Mg771 O793 2.106 1_554 S
Mg771 O794 2.079 1_554 S
O772 Mg771 1.917 1_556 S
O772 Mg773 1.926 . S
O772 Mg774 1.986 1_556 S
Mg773 O772 1.926 . S
Mg773 O787 1.984 . S
Mg773 O790 1.988 1_556 S
Mg773 O791 2.061 . S
Mg774 O772 1.986 1_554 S
Mg774 O782 2.238 . S
Mg774 O786 2.042 1_554 S
Mg774 O788 2.041 . S
Mg774 O795 2.038 1_554 S
C775 O781 1.247 . S
C775 O782 1.289 . S
C776 O794 1.245 . S
C776 O795 1.274 . S
O777 C765 1.241 . S
O777 Mg770 2.042 1_554 S
O778 C765 1.280 . S
O778 Mg768 1.984 . S
O779 C766 1.277 . S
O779 Mg770 2.041 . S
O780 C766 1.245 . S
O780 Mg768 1.988 1_556 S
O781 Mg768 2.061 . S
O781 C775 1.247 . S
O782 Mg771 2.106 . S
O782 Mg774 2.238 . S
O782 C775 1.289 . S
C783 O784 1.245 . S
C783 O785 1.274 . S
O784 Mg771 2.079 . S
O784 C783 1.245 . S
O785 Mg770 2.038 1_554 S
O785 C783 1.274 . S
O786 Mg774 2.042 1_556 S
O786 C789 1.241 . S
O787 Mg773 1.984 . S
O787 C789 1.280 . S
O788 Mg774 2.041 . S
O788 C792 1.277 . S
C789 O786 1.241 . S
C789 O787 1.280 . S
O790 Mg773 1.988 1_554 S
O790 C792 1.245 . S
O791 C767 1.247 . S
O791 Mg773 2.061 . S
C792 O788 1.277 . S
C792 O790 1.245 . S
O793 C767 1.289 . S
O793 Mg770 2.238 . S
O793 Mg771 2.106 1_556 S
O794 Mg771 2.079 1_556 S
O794 C776 1.245 . S
O795 Mg774 2.038 1_556 S
O795 C776 1.274 . S
C796 O808 1.241 . S
C796 O809 1.280 . S
C797 O810 1.277 . S
C797 O811 1.245 . S
C798 O822 1.247 . S
C798 O824 1.289 . S
Mg799 O800 1.926 . S
Mg799 O809 1.984 . S
Mg799 O811 1.988 . S
Mg799 O812 2.061 1_655 S
O800 Mg799 1.926 . S
O800 Mg801 1.986 . S
O800 Mg802 1.908 1_655 S
Mg801 O800 1.986 . S
Mg801 O808 2.042 . S
Mg801 O810 2.041 . S
Mg801 O816 2.038 . S
Mg801 O824 2.238 . S
Mg802 O800 1.908 1_455 S
Mg802 O803 1.926 . S
Mg802 O813 2.114 . S
Mg802 O815 2.076 1_455 S
Mg802 O824 2.099 1_455 S
Mg802 O825 2.081 . S
O803 Mg802 1.926 . S
O803 Mg804 1.926 . S
O803 Mg805 1.986 . S
Mg804 O803 1.926 . S
Mg804 O818 1.984 . S
Mg804 O821 1.988 . S
Mg804 O822 2.061 1_455 S
Mg805 O803 1.986 . S
Mg805 O813 2.238 . S
Mg805 O817 2.042 . S
Mg805 O819 2.041 . S
Mg805 O826 2.038 . S
C806 O812 1.247 . S
C806 O813 1.289 . S
C807 O825 1.245 . S
C807 O826 1.274 . S
O808 C796 1.241 . S
O808 Mg801 2.042 . S
O809 C796 1.280 . S
O809 Mg799 1.984 . S
O810 C797 1.277 . S
O810 Mg801 2.041 . S
O811 C797 1.245 . S
O811 Mg799 1.988 . S
O812 Mg799 2.061 1_455 S
O812 C806 1.247 . S
O813 Mg802 2.114 . S
O813 Mg805 2.238 . S
O813 C806 1.289 . S
C814 O815 1.245 . S
C814 O816 1.274 . S
O815 Mg802 2.076 1_655 S
O815 C814 1.245 . S
O816 Mg801 2.038 . S
O816 C814 1.274 . S
O817 Mg805 2.042 . S
O817 C820 1.241 . S
O818 Mg804 1.984 . S
O818 C820 1.280 . S
O819 Mg805 2.041 . S
O819 C823 1.277 . S
C820 O817 1.241 . S
C820 O818 1.280 . S
O821 Mg804 1.988 . S
O821 C823 1.245 . S
O822 C798 1.247 . S
O822 Mg804 2.061 1_655 S
C823 O819 1.277 . S
C823 O821 1.245 . S
O824 C798 1.289 . S
O824 Mg801 2.238 . S
O824 Mg802 2.099 1_655 S
O825 Mg802 2.081 . S
O825 C807 1.245 . S
O826 Mg805 2.038 . S
O826 C807 1.274 . S
C827 O839 1.241 . S
C827 O840 1.280 . S
C828 O841 1.277 . S
C828 O842 1.245 . S
C829 O853 1.247 . S
C829 O855 1.289 . S
Mg830 O831 1.926 . S
Mg830 O840 1.984 . S
Mg830 O842 1.988 . S
Mg830 O843 2.061 . S
O831 Mg830 1.926 . S
O831 Mg832 1.986 1_545 S
O831 Mg833 1.917 . S
Mg832 O831 1.986 1_565 S
Mg832 O839 2.042 1_565 S
Mg832 O841 2.041 1_565 S
Mg832 O847 2.038 . S
Mg832 O855 2.238 . S
Mg833 O831 1.917 . S
Mg833 O834 1.917 1_545 S
Mg833 O844 2.106 . S
Mg833 O846 2.079 1_545 S
Mg833 O855 2.106 1_545 S
Mg833 O856 2.079 . S
O834 Mg833 1.917 1_565 S
O834 Mg835 1.926 . S
O834 Mg836 1.986 1_565 S
Mg835 O834 1.926 . S
Mg835 O849 1.984 . S
Mg835 O852 1.988 . S
Mg835 O853 2.061 . S
Mg836 O834 1.986 1_545 S
Mg836 O844 2.238 . S
Mg836 O848 2.042 1_545 S
Mg836 O850 2.041 1_545 S
Mg836 O857 2.038 . S
C837 O843 1.247 . S
C837 O844 1.289 . S
C838 O856 1.245 . S
C838 O857 1.274 . S
O839 C827 1.241 . S
O839 Mg832 2.042 1_545 S
O840 C827 1.280 . S
O840 Mg830 1.984 . S
O841 C828 1.277 . S
O841 Mg832 2.041 1_545 S
O842 C828 1.245 . S
O842 Mg830 1.988 . S
O843 Mg830 2.061 . S
O843 C837 1.247 . S
O844 Mg833 2.106 . S
O844 Mg836 2.238 . S
O844 C837 1.289 . S
C845 O846 1.245 . S
C845 O847 1.274 . S
O846 Mg833 2.079 1_565 S
O846 C845 1.245 . S
O847 Mg832 2.038 . S
O847 C845 1.274 . S
O848 Mg836 2.042 1_565 S
O848 C851 1.241 . S
O849 Mg835 1.984 . S
O849 C851 1.280 . S
O850 Mg836 2.041 1_565 S
O850 C854 1.277 . S
C851 O848 1.241 . S
C851 O849 1.280 . S
O852 Mg835 1.988 . S
O852 C854 1.245 . S
O853 C829 1.247 . S
O853 Mg835 2.061 . S
C854 O850 1.277 . S
C854 O852 1.245 . S
O855 C829 1.289 . S
O855 Mg832 2.238 . S
O855 Mg833 2.106 1_565 S
O856 Mg833 2.079 . S
O856 C838 1.245 . S
O857 Mg836 2.038 . S
O857 C838 1.274 . S
C858 C859 1.349 . S
C858 C860 1.327 . S
C858 H883 0.950 . S
C859 C858 1.349 . S
C859 C875 1.349 . S
C860 C858 1.327 . S
C860 C879 1.429 . S
C860 H884 0.950 . S
C861 C878 1.574 . S
C861 C880 1.368 . S
C861 H885 0.949 . S
H862 C866 0.949 . S
C863 C864 1.349 . S
C863 C865 1.327 . S
C863 H886 0.950 . S
C864 C863 1.349 . S
C864 C876 1.349 . S
C865 C863 1.327 . S
C865 C881 1.429 . S
C865 H887 0.950 . S
C866 H862 0.949 . S
C866 C874 1.574 . S
C866 C882 1.368 . S
H867 C875 0.950 . S
H868 C873 0.950 . S
H869 C874 0.949 . S
H870 C876 0.950 . S
H871 C877 0.950 . S
H872 C878 0.949 . S
C873 H868 0.950 . S
C873 C875 1.327 . S
C873 C879 1.429 . S
C874 C866 1.574 . S
C874 H869 0.949 . S
C874 C880 1.368 . S
C875 C859 1.349 . S
C875 H867 0.950 . S
C875 C873 1.327 . S
C876 C864 1.349 . S
C876 H870 0.950 . S
C876 C877 1.327 . S
C877 H871 0.950 . S
C877 C876 1.327 . S
C877 C881 1.429 . S
C878 C861 1.574 . S
C878 H872 0.949 . S
C878 C882 1.368 . S
C879 C860 1.429 . S
C879 C873 1.429 . S
C879 C880 1.523 . S
C880 C861 1.368 . S
C880 C874 1.368 . S
C880 C879 1.523 . S
C881 C865 1.429 . S
C881 C877 1.429 . S
C881 C882 1.523 . S
C882 C866 1.368 . S
C882 C878 1.368 . S
C882 C881 1.523 . S
H883 C858 0.950 . S
H884 C860 0.950 . S
H885 C861 0.949 . S
H886 C863 0.950 . S
H887 C865 0.950 . S
C888 C889 1.349 . S
C888 C890 1.327 . S
C888 H913 0.950 . S
C889 C888 1.349 . S
C889 C905 1.349 . S
C890 C888 1.327 . S
C890 C909 1.429 . S
C890 H914 0.950 . S
C891 C908 1.574 . S
C891 C910 1.368 . S
C891 H915 0.949 . S
H892 C896 0.949 . S
C893 C894 1.349 . S
C893 C895 1.327 . S
C893 H916 0.950 . S
C894 C893 1.349 . S
C894 C906 1.349 . S
C895 C893 1.327 . S
C895 C911 1.429 . S
C895 H917 0.950 . S
C896 H892 0.949 . S
C896 C904 1.574 . S
C896 C912 1.368 . S
H897 C905 0.950 . S
H898 C903 0.950 . S
H899 C904 0.949 . S
H900 C906 0.950 . S
H901 C907 0.950 . S
H902 C908 0.949 . S
C903 H898 0.950 . S
C903 C905 1.327 . S
C903 C909 1.429 . S
C904 C896 1.574 . S
C904 H899 0.949 . S
C904 C910 1.368 . S
C905 C889 1.349 . S
C905 H897 0.950 . S
C905 C903 1.327 . S
C906 C894 1.349 . S
C906 H900 0.950 . S
C906 C907 1.327 . S
C907 H901 0.950 . S
C907 C906 1.327 . S
C907 C911 1.429 . S
C908 C891 1.574 . S
C908 H902 0.949 . S
C908 C912 1.368 . S
C909 C890 1.429 . S
C909 C903 1.429 . S
C909 C910 1.523 . S
C910 C891 1.368 . S
C910 C904 1.368 . S
C910 C909 1.523 . S
C911 C895 1.429 . S
C911 C907 1.429 . S
C911 C912 1.523 . S
C912 C896 1.368 . S
C912 C908 1.368 . S
C912 C911 1.523 . S
H913 C888 0.950 . S
H914 C890 0.950 . S
H915 C891 0.949 . S
H916 C893 0.950 . S
H917 C895 0.950 . S
C918 C919 1.349 . S
C918 C920 1.327 . S
C918 H943 0.950 . S
C919 C918 1.349 . S
C919 C935 1.349 . S
C920 C918 1.327 . S
C920 C939 1.429 . S
C920 H944 0.950 . S
C921 C938 1.574 . S
C921 C940 1.368 . S
C921 H945 0.949 . S
H922 C926 0.949 . S
C923 C924 1.349 . S
C923 C925 1.327 . S
C923 H946 0.950 . S
C924 C923 1.349 . S
C924 C936 1.349 . S
C925 C923 1.327 . S
C925 C941 1.429 . S
C925 H947 0.950 . S
C926 H922 0.949 . S
C926 C934 1.574 . S
C926 C942 1.368 . S
H927 C935 0.950 . S
H928 C933 0.950 . S
H929 C934 0.949 . S
H930 C936 0.950 . S
H931 C937 0.950 . S
H932 C938 0.949 . S
C933 H928 0.950 . S
C933 C935 1.327 . S
C933 C939 1.429 . S
C934 C926 1.574 . S
C934 H929 0.949 . S
C934 C940 1.368 . S
C935 C919 1.349 . S
C935 H927 0.950 . S
C935 C933 1.327 . S
C936 C924 1.349 . S
C936 H930 0.950 . S
C936 C937 1.327 . S
C937 H931 0.950 . S
C937 C936 1.327 . S
C937 C941 1.429 . S
C938 C921 1.574 . S
C938 H932 0.949 . S
C938 C942 1.368 . S
C939 C920 1.429 . S
C939 C933 1.429 . S
C939 C940 1.523 . S
C940 C921 1.368 . S
C940 C934 1.368 . S
C940 C939 1.523 . S
C941 C925 1.429 . S
C941 C937 1.429 . S
C941 C942 1.523 . S
C942 C926 1.368 . S
C942 C938 1.368 . S
C942 C941 1.523 . S
H943 C918 0.950 . S
H944 C920 0.950 . S
H945 C921 0.949 . S
H946 C923 0.950 . S
H947 C925 0.950 . S
C948 C949 1.349 . S
C948 C950 1.327 . S
C948 H973 0.950 . S
C949 C948 1.349 . S
C949 C965 1.349 . S
C950 C948 1.327 . S
C950 C969 1.429 . S
C950 H974 0.950 . S
C951 C968 1.574 . S
C951 C970 1.368 . S
C951 H975 0.949 . S
H952 C956 0.949 . S
C953 C954 1.349 . S
C953 C955 1.327 . S
C953 H976 0.950 . S
C954 C953 1.349 . S
C954 C966 1.349 . S
C955 C953 1.327 . S
C955 C971 1.429 . S
C955 H977 0.950 . S
C956 H952 0.949 . S
C956 C964 1.574 . S
C956 C972 1.368 . S
H957 C965 0.950 . S
H958 C963 0.950 . S
H959 C964 0.949 . S
H960 C966 0.950 . S
H961 C967 0.950 . S
H962 C968 0.949 . S
C963 H958 0.950 . S
C963 C965 1.327 . S
C963 C969 1.429 . S
C964 C956 1.574 . S
C964 H959 0.949 . S
C964 C970 1.368 . S
C965 C949 1.349 . S
C965 H957 0.950 . S
C965 C963 1.327 . S
C966 C954 1.349 . S
C966 H960 0.950 . S
C966 C967 1.327 . S
C967 H961 0.950 . S
C967 C966 1.327 . S
C967 C971 1.429 . S
C968 C951 1.574 . S
C968 H962 0.949 . S
C968 C972 1.368 . S
C969 C950 1.429 . S
C969 C963 1.429 . S
C969 C970 1.523 . S
C970 C951 1.368 . S
C970 C964 1.368 . S
C970 C969 1.523 . S
C971 C955 1.429 . S
C971 C967 1.429 . S
C971 C972 1.523 . S
C972 C956 1.368 . S
C972 C968 1.368 . S
C972 C971 1.523 . S
H973 C948 0.950 . S
H974 C950 0.950 . S
H975 C951 0.949 . S
H976 C953 0.950 . S
H977 C955 0.950 . S
C978 C979 1.349 . S
C978 C980 1.327 . S
C978 H1003 0.950 . S
C979 C978 1.349 . S
C979 C995 1.349 . S
C980 C978 1.327 . S
C980 C999 1.429 . S
C980 H1004 0.950 . S
C981 C998 1.574 . S
C981 C1000 1.368 . S
C981 H1005 0.949 . S
H982 C986 0.949 . S
C983 C984 1.349 . S
C983 C985 1.327 . S
C983 H1006 0.950 . S
C984 C983 1.349 . S
C984 C996 1.349 . S
C985 C983 1.327 . S
C985 C1001 1.429 . S
C985 H1007 0.950 . S
C986 H982 0.949 . S
C986 C994 1.574 . S
C986 C1002 1.368 . S
H987 C995 0.950 . S
H988 C993 0.950 . S
H989 C994 0.949 . S
H990 C996 0.950 . S
H991 C997 0.950 . S
H992 C998 0.949 . S
C993 H988 0.950 . S
C993 C995 1.327 . S
C993 C999 1.429 . S
C994 C986 1.574 . S
C994 H989 0.949 . S
C994 C1000 1.368 . S
C995 C979 1.349 . S
C995 H987 0.950 . S
C995 C993 1.327 . S
C996 C984 1.349 . S
C996 H990 0.950 . S
C996 C997 1.327 . S
C997 H991 0.950 . S
C997 C996 1.327 . S
C997 C1001 1.429 . S
C998 C981 1.574 . S
C998 H992 0.949 . S
C998 C1002 1.368 . S
C999 C980 1.429 . S
C999 C993 1.429 . S
C999 C1000 1.523 . S
C1000 C981 1.368 . S
C1000 C994 1.368 . S
C1000 C999 1.523 . S
C1001 C985 1.429 . S
C1001 C997 1.429 . S
C1001 C1002 1.523 . S
C1002 C986 1.368 . S
C1002 C998 1.368 . S
C1002 C1001 1.523 . S
H1003 C978 0.950 . S
H1004 C980 0.950 . S
H1005 C981 0.949 . S
H1006 C983 0.950 . S
H1007 C985 0.950 . S
C1008 C1009 1.349 . S
C1008 C1010 1.327 . S
C1008 H1033 0.950 . S
C1009 C1008 1.349 . S
C1009 C1025 1.349 . S
C1010 C1008 1.327 . S
C1010 C1029 1.429 . S
C1010 H1034 0.950 . S
C1011 C1028 1.574 . S
C1011 C1030 1.368 . S
C1011 H1035 0.949 . S
H1012 C1016 0.949 . S
C1013 C1014 1.349 . S
C1013 C1015 1.327 . S
C1013 H1036 0.950 . S
C1014 C1013 1.349 . S
C1014 C1026 1.349 . S
C1015 C1013 1.327 . S
C1015 C1031 1.429 . S
C1015 H1037 0.950 . S
C1016 H1012 0.949 . S
C1016 C1024 1.574 . S
C1016 C1032 1.368 . S
H1017 C1025 0.950 . S
H1018 C1023 0.950 . S
H1019 C1024 0.949 . S
H1020 C1026 0.950 . S
H1021 C1027 0.950 . S
H1022 C1028 0.949 . S
C1023 H1018 0.950 . S
C1023 C1025 1.327 . S
C1023 C1029 1.429 . S
C1024 C1016 1.574 . S
C1024 H1019 0.949 . S
C1024 C1030 1.368 . S
C1025 C1009 1.349 . S
C1025 H1017 0.950 . S
C1025 C1023 1.327 . S
C1026 C1014 1.349 . S
C1026 H1020 0.950 . S
C1026 C1027 1.327 . S
C1027 H1021 0.950 . S
C1027 C1026 1.327 . S
C1027 C1031 1.429 . S
C1028 C1011 1.574 . S
C1028 H1022 0.949 . S
C1028 C1032 1.368 . S
C1029 C1010 1.429 . S
C1029 C1023 1.429 . S
C1029 C1030 1.523 . S
C1030 C1011 1.368 . S
C1030 C1024 1.368 . S
C1030 C1029 1.523 . S
C1031 C1015 1.429 . S
C1031 C1027 1.429 . S
C1031 C1032 1.523 . S
C1032 C1016 1.368 . S
C1032 C1028 1.368 . S
C1032 C1031 1.523 . S
H1033 C1008 0.950 . S
H1034 C1010 0.950 . S
H1035 C1011 0.949 . S
H1036 C1013 0.950 . S
H1037 C1015 0.950 . S
C1038 C1039 1.349 . S
C1038 C1040 1.327 . S
C1038 H1063 0.950 . S
C1039 C1038 1.349 . S
C1039 C1055 1.349 . S
C1040 C1038 1.327 . S
C1040 C1059 1.429 . S
C1040 H1064 0.950 . S
C1041 C1058 1.574 . S
C1041 C1060 1.368 . S
C1041 H1065 0.949 . S
H1042 C1046 0.949 . S
C1043 C1044 1.349 . S
C1043 C1045 1.327 . S
C1043 H1066 0.950 . S
C1044 C1043 1.349 . S
C1044 C1056 1.349 . S
C1045 C1043 1.327 . S
C1045 C1061 1.429 . S
C1045 H1067 0.950 . S
C1046 H1042 0.949 . S
C1046 C1054 1.574 . S
C1046 C1062 1.368 . S
H1047 C1055 0.950 . S
H1048 C1053 0.950 . S
H1049 C1054 0.949 . S
H1050 C1056 0.950 . S
H1051 C1057 0.950 . S
H1052 C1058 0.949 . S
C1053 H1048 0.950 . S
C1053 C1055 1.327 . S
C1053 C1059 1.429 . S
C1054 C1046 1.574 . S
C1054 H1049 0.949 . S
C1054 C1060 1.368 . S
C1055 C1039 1.349 . S
C1055 H1047 0.950 . S
C1055 C1053 1.327 . S
C1056 C1044 1.349 . S
C1056 H1050 0.950 . S
C1056 C1057 1.327 . S
C1057 H1051 0.950 . S
C1057 C1056 1.327 . S
C1057 C1061 1.429 . S
C1058 C1041 1.574 . S
C1058 H1052 0.949 . S
C1058 C1062 1.368 . S
C1059 C1040 1.429 . S
C1059 C1053 1.429 . S
C1059 C1060 1.523 . S
C1060 C1041 1.368 . S
C1060 C1054 1.368 . S
C1060 C1059 1.523 . S
C1061 C1045 1.429 . S
C1061 C1057 1.429 . S
C1061 C1062 1.523 . S
C1062 C1046 1.368 . S
C1062 C1058 1.368 . S
C1062 C1061 1.523 . S
H1063 C1038 0.950 . S
H1064 C1040 0.950 . S
H1065 C1041 0.949 . S
H1066 C1043 0.950 . S
H1067 C1045 0.950 . S
C1068 C1069 1.349 . S
C1068 C1070 1.327 . S
C1068 H1093 0.950 . S
C1069 C1068 1.349 . S
C1069 C1085 1.349 . S
C1070 C1068 1.327 . S
C1070 C1089 1.429 . S
C1070 H1094 0.950 . S
C1071 C1088 1.574 . S
C1071 C1090 1.368 . S
C1071 H1095 0.949 . S
H1072 C1076 0.949 . S
C1073 C1074 1.349 . S
C1073 C1075 1.327 . S
C1073 H1096 0.950 . S
C1074 C1073 1.349 . S
C1074 C1086 1.349 . S
C1075 C1073 1.327 . S
C1075 C1091 1.429 . S
C1075 H1097 0.950 . S
C1076 H1072 0.949 . S
C1076 C1084 1.574 . S
C1076 C1092 1.368 . S
H1077 C1085 0.950 . S
H1078 C1083 0.950 . S
H1079 C1084 0.949 . S
H1080 C1086 0.950 . S
H1081 C1087 0.950 . S
H1082 C1088 0.949 . S
C1083 H1078 0.950 . S
C1083 C1085 1.327 . S
C1083 C1089 1.429 . S
C1084 C1076 1.574 . S
C1084 H1079 0.949 . S
C1084 C1090 1.368 . S
C1085 C1069 1.349 . S
C1085 H1077 0.950 . S
C1085 C1083 1.327 . S
C1086 C1074 1.349 . S
C1086 H1080 0.950 . S
C1086 C1087 1.327 . S
C1087 H1081 0.950 . S
C1087 C1086 1.327 . S
C1087 C1091 1.429 . S
C1088 C1071 1.574 . S
C1088 H1082 0.949 . S
C1088 C1092 1.368 . S
C1089 C1070 1.429 . S
C1089 C1083 1.429 . S
C1089 C1090 1.523 . S
C1090 C1071 1.368 . S
C1090 C1084 1.368 . S
C1090 C1089 1.523 . S
C1091 C1075 1.429 . S
C1091 C1087 1.429 . S
C1091 C1092 1.523 . S
C1092 C1076 1.368 . S
C1092 C1088 1.368 . S
C1092 C1091 1.523 . S
H1093 C1068 0.950 . S
H1094 C1070 0.950 . S
H1095 C1071 0.949 . S
H1096 C1073 0.950 . S
H1097 C1075 0.950 . S
C1098 C1099 1.349 . S
C1098 C1100 1.327 . S
C1098 H1123 0.950 . S
C1099 C1098 1.349 . S
C1099 C1115 1.349 . S
C1100 C1098 1.327 . S
C1100 C1119 1.429 . S
C1100 H1124 0.950 . S
C1101 C1118 1.574 . S
C1101 C1120 1.368 . S
C1101 H1125 0.949 . S
H1102 C1106 0.949 . S
C1103 C1104 1.349 . S
C1103 C1105 1.327 . S
C1103 H1126 0.950 . S
C1104 C1103 1.349 . S
C1104 C1116 1.349 . S
C1105 C1103 1.327 . S
C1105 C1121 1.429 . S
C1105 H1127 0.950 . S
C1106 H1102 0.949 . S
C1106 C1114 1.574 . S
C1106 C1122 1.368 . S
H1107 C1115 0.950 . S
H1108 C1113 0.950 . S
H1109 C1114 0.949 . S
H1110 C1116 0.950 . S
H1111 C1117 0.950 . S
H1112 C1118 0.949 . S
C1113 H1108 0.950 . S
C1113 C1115 1.327 . S
C1113 C1119 1.429 . S
C1114 C1106 1.574 . S
C1114 H1109 0.949 . S
C1114 C1120 1.368 . S
C1115 C1099 1.349 . S
C1115 H1107 0.950 . S
C1115 C1113 1.327 . S
C1116 C1104 1.349 . S
C1116 H1110 0.950 . S
C1116 C1117 1.327 . S
C1117 H1111 0.950 . S
C1117 C1116 1.327 . S
C1117 C1121 1.429 . S
C1118 C1101 1.574 . S
C1118 H1112 0.949 . S
C1118 C1122 1.368 . S
C1119 C1100 1.429 . S
C1119 C1113 1.429 . S
C1119 C1120 1.523 . S
C1120 C1101 1.368 . S
C1120 C1114 1.368 . S
C1120 C1119 1.523 . S
C1121 C1105 1.429 . S
C1121 C1117 1.429 . S
C1121 C1122 1.523 . S
C1122 C1106 1.368 . S
C1122 C1118 1.368 . S
C1122 C1121 1.523 . S
H1123 C1098 0.950 . S
H1124 C1100 0.950 . S
H1125 C1101 0.949 . S
H1126 C1103 0.950 . S
H1127 C1105 0.950 . S
C1128 C1129 1.349 . S
C1128 C1130 1.327 . S
C1128 H1153 0.950 . S
C1129 C1128 1.349 . S
C1129 C1145 1.349 . S
C1130 C1128 1.327 . S
C1130 C1149 1.429 . S
C1130 H1154 0.950 . S
C1131 C1148 1.574 . S
C1131 C1150 1.368 . S
C1131 H1155 0.949 . S
H1132 C1136 0.949 . S
C1133 C1134 1.349 . S
C1133 C1135 1.327 . S
C1133 H1156 0.950 . S
C1134 C1133 1.349 . S
C1134 C1146 1.349 . S
C1135 C1133 1.327 . S
C1135 C1151 1.429 . S
C1135 H1157 0.950 . S
C1136 H1132 0.949 . S
C1136 C1144 1.574 . S
C1136 C1152 1.368 . S
H1137 C1145 0.950 . S
H1138 C1143 0.950 . S
H1139 C1144 0.949 . S
H1140 C1146 0.950 . S
H1141 C1147 0.950 . S
H1142 C1148 0.949 . S
C1143 H1138 0.950 . S
C1143 C1145 1.327 . S
C1143 C1149 1.429 . S
C1144 C1136 1.574 . S
C1144 H1139 0.949 . S
C1144 C1150 1.368 . S
C1145 C1129 1.349 . S
C1145 H1137 0.950 . S
C1145 C1143 1.327 . S
C1146 C1134 1.349 . S
C1146 H1140 0.950 . S
C1146 C1147 1.327 . S
C1147 H1141 0.950 . S
C1147 C1146 1.327 . S
C1147 C1151 1.429 . S
C1148 C1131 1.574 . S
C1148 H1142 0.949 . S
C1148 C1152 1.368 . S
C1149 C1130 1.429 . S
C1149 C1143 1.429 . S
C1149 C1150 1.523 . S
C1150 C1131 1.368 . S
C1150 C1144 1.368 . S
C1150 C1149 1.523 . S
C1151 C1135 1.429 . S
C1151 C1147 1.429 . S
C1151 C1152 1.523 . S
C1152 C1136 1.368 . S
C1152 C1148 1.368 . S
C1152 C1151 1.523 . S
H1153 C1128 0.950 . S
H1154 C1130 0.950 . S
H1155 C1131 0.949 . S
H1156 C1133 0.950 . S
H1157 C1135 0.950 . S
C1158 C1159 1.349 . S
C1158 C1160 1.327 . S
C1158 H1183 0.950 . S
C1159 C1158 1.349 . S
C1159 C1175 1.349 . S
C1160 C1158 1.327 . S
C1160 C1179 1.429 . S
C1160 H1184 0.950 . S
C1161 C1178 1.574 . S
C1161 C1180 1.368 . S
C1161 H1185 0.949 . S
H1162 C1166 0.949 . S
C1163 C1164 1.349 . S
C1163 C1165 1.327 . S
C1163 H1186 0.950 . S
C1164 C1163 1.349 . S
C1164 C1176 1.349 . S
C1165 C1163 1.327 . S
C1165 C1181 1.429 . S
C1165 H1187 0.950 . S
C1166 H1162 0.949 . S
C1166 C1174 1.574 . S
C1166 C1182 1.368 . S
H1167 C1175 0.950 . S
H1168 C1173 0.950 . S
H1169 C1174 0.949 . S
H1170 C1176 0.950 . S
H1171 C1177 0.950 . S
H1172 C1178 0.949 . S
C1173 H1168 0.950 . S
C1173 C1175 1.327 . S
C1173 C1179 1.429 . S
C1174 C1166 1.574 . S
C1174 H1169 0.949 . S
C1174 C1180 1.368 . S
C1175 C1159 1.349 . S
C1175 H1167 0.950 . S
C1175 C1173 1.327 . S
C1176 C1164 1.349 . S
C1176 H1170 0.950 . S
C1176 C1177 1.327 . S
C1177 H1171 0.950 . S
C1177 C1176 1.327 . S
C1177 C1181 1.429 . S
C1178 C1161 1.574 . S
C1178 H1172 0.949 . S
C1178 C1182 1.368 . S
C1179 C1160 1.429 . S
C1179 C1173 1.429 . S
C1179 C1180 1.523 . S
C1180 C1161 1.368 . S
C1180 C1174 1.368 . S
C1180 C1179 1.523 . S
C1181 C1165 1.429 . S
C1181 C1177 1.429 . S
C1181 C1182 1.523 . S
C1182 C1166 1.368 . S
C1182 C1178 1.368 . S
C1182 C1181 1.523 . S
H1183 C1158 0.950 . S
H1184 C1160 0.950 . S
H1185 C1161 0.949 . S
H1186 C1163 0.950 . S
H1187 C1165 0.950 . S
C1188 C1189 1.349 . S
C1188 C1190 1.327 . S
C1188 H1213 0.950 . S
C1189 C1188 1.349 . S
C1189 C1205 1.349 . S
C1190 C1188 1.327 . S
C1190 C1209 1.429 . S
C1190 H1214 0.950 . S
C1191 C1208 1.574 . S
C1191 C1210 1.368 . S
C1191 H1215 0.949 . S
H1192 C1196 0.949 . S
C1193 C1194 1.349 . S
C1193 C1195 1.327 . S
C1193 H1216 0.950 . S
C1194 C1193 1.349 . S
C1194 C1206 1.349 . S
C1195 C1193 1.327 . S
C1195 C1211 1.429 . S
C1195 H1217 0.950 . S
C1196 H1192 0.949 . S
C1196 C1204 1.574 . S
C1196 C1212 1.368 . S
H1197 C1205 0.950 . S
H1198 C1203 0.950 . S
H1199 C1204 0.949 . S
H1200 C1206 0.950 . S
H1201 C1207 0.950 . S
H1202 C1208 0.949 . S
C1203 H1198 0.950 . S
C1203 C1205 1.327 . S
C1203 C1209 1.429 . S
C1204 C1196 1.574 . S
C1204 H1199 0.949 . S
C1204 C1210 1.368 . S
C1205 C1189 1.349 . S
C1205 H1197 0.950 . S
C1205 C1203 1.327 . S
C1206 C1194 1.349 . S
C1206 H1200 0.950 . S
C1206 C1207 1.327 . S
C1207 H1201 0.950 . S
C1207 C1206 1.327 . S
C1207 C1211 1.429 . S
C1208 C1191 1.574 . S
C1208 H1202 0.949 . S
C1208 C1212 1.368 . S
C1209 C1190 1.429 . S
C1209 C1203 1.429 . S
C1209 C1210 1.523 . S
C1210 C1191 1.368 . S
C1210 C1204 1.368 . S
C1210 C1209 1.523 . S
C1211 C1195 1.429 . S
C1211 C1207 1.429 . S
C1211 C1212 1.523 . S
C1212 C1196 1.368 . S
C1212 C1208 1.368 . S
C1212 C1211 1.523 . S
H1213 C1188 0.950 . S
H1214 C1190 0.950 . S
H1215 C1191 0.949 . S
H1216 C1193 0.950 . S
H1217 C1195 0.950 . S
C1218 C1219 1.349 . S
C1218 C1220 1.327 . S
C1218 H1243 0.950 . S
C1219 C1218 1.349 . S
C1219 C1235 1.349 . S
C1220 C1218 1.327 . S
C1220 C1239 1.429 . S
C1220 H1244 0.950 . S
C1221 C1238 1.574 . S
C1221 C1240 1.368 . S
C1221 H1245 0.949 . S
H1222 C1226 0.949 . S
C1223 C1224 1.349 . S
C1223 C1225 1.327 . S
C1223 H1246 0.950 . S
C1224 C1223 1.349 . S
C1224 C1236 1.349 . S
C1225 C1223 1.327 . S
C1225 C1241 1.429 . S
C1225 H1247 0.950 . S
C1226 H1222 0.949 . S
C1226 C1234 1.574 . S
C1226 C1242 1.368 . S
H1227 C1235 0.950 . S
H1228 C1233 0.950 . S
H1229 C1234 0.949 . S
H1230 C1236 0.950 . S
H1231 C1237 0.950 . S
H1232 C1238 0.949 . S
C1233 H1228 0.950 . S
C1233 C1235 1.327 . S
C1233 C1239 1.429 . S
C1234 C1226 1.574 . S
C1234 H1229 0.949 . S
C1234 C1240 1.368 . S
C1235 C1219 1.349 . S
C1235 H1227 0.950 . S
C1235 C1233 1.327 . S
C1236 C1224 1.349 . S
C1236 H1230 0.950 . S
C1236 C1237 1.327 . S
C1237 H1231 0.950 . S
C1237 C1236 1.327 . S
C1237 C1241 1.429 . S
C1238 C1221 1.574 . S
C1238 H1232 0.949 . S
C1238 C1242 1.368 . S
C1239 C1220 1.429 . S
C1239 C1233 1.429 . S
C1239 C1240 1.523 . S
C1240 C1221 1.368 . S
C1240 C1234 1.368 . S
C1240 C1239 1.523 . S
C1241 C1225 1.429 . S
C1241 C1237 1.429 . S
C1241 C1242 1.523 . S
C1242 C1226 1.368 . S
C1242 C1238 1.368 . S
C1242 C1241 1.523 . S
H1243 C1218 0.950 . S
H1244 C1220 0.950 . S
H1245 C1221 0.949 . S
H1246 C1223 0.950 . S
H1247 C1225 0.950 . S
C1248 C1249 1.349 . S
C1248 C1250 1.327 . S
C1248 H1273 0.950 . S
C1249 C1248 1.349 . S
C1249 C1265 1.349 . S
C1250 C1248 1.327 . S
C1250 C1269 1.429 . S
C1250 H1274 0.950 . S
C1251 C1268 1.574 . S
C1251 C1270 1.368 . S
C1251 H1275 0.949 . S
H1252 C1256 0.949 . S
C1253 C1254 1.349 . S
C1253 C1255 1.327 . S
C1253 H1276 0.950 . S
C1254 C1253 1.349 . S
C1254 C1266 1.349 . S
C1255 C1253 1.327 . S
C1255 C1271 1.429 . S
C1255 H1277 0.950 . S
C1256 H1252 0.949 . S
C1256 C1264 1.574 . S
C1256 C1272 1.368 . S
H1257 C1265 0.950 . S
H1258 C1263 0.950 . S
H1259 C1264 0.949 . S
H1260 C1266 0.950 . S
H1261 C1267 0.950 . S
H1262 C1268 0.949 . S
C1263 H1258 0.950 . S
C1263 C1265 1.327 . S
C1263 C1269 1.429 . S
C1264 C1256 1.574 . S
C1264 H1259 0.949 . S
C1264 C1270 1.368 . S
C1265 C1249 1.349 . S
C1265 H1257 0.950 . S
C1265 C1263 1.327 . S
C1266 C1254 1.349 . S
C1266 H1260 0.950 . S
C1266 C1267 1.327 . S
C1267 H1261 0.950 . S
C1267 C1266 1.327 . S
C1267 C1271 1.429 . S
C1268 C1251 1.574 . S
C1268 H1262 0.949 . S
C1268 C1272 1.368 . S
C1269 C1250 1.429 . S
C1269 C1263 1.429 . S
C1269 C1270 1.523 . S
C1270 C1251 1.368 . S
C1270 C1264 1.368 . S
C1270 C1269 1.523 . S
C1271 C1255 1.429 . S
C1271 C1267 1.429 . S
C1271 C1272 1.523 . S
C1272 C1256 1.368 . S
C1272 C1268 1.368 . S
C1272 C1271 1.523 . S
H1273 C1248 0.950 . S
H1274 C1250 0.950 . S
H1275 C1251 0.949 . S
H1276 C1253 0.950 . S
H1277 C1255 0.950 . S
C1278 C1279 1.349 . S
C1278 C1280 1.327 . S
C1278 H1303 0.950 . S
C1279 C1278 1.349 . S
C1279 C1295 1.349 . S
C1280 C1278 1.327 . S
C1280 C1299 1.429 . S
C1280 H1304 0.950 . S
C1281 C1298 1.574 . S
C1281 C1300 1.368 . S
C1281 H1305 0.949 . S
H1282 C1286 0.949 . S
C1283 C1284 1.349 . S
C1283 C1285 1.327 . S
C1283 H1306 0.950 . S
C1284 C1283 1.349 . S
C1284 C1296 1.349 . S
C1285 C1283 1.327 . S
C1285 C1301 1.429 . S
C1285 H1307 0.950 . S
C1286 H1282 0.949 . S
C1286 C1294 1.574 . S
C1286 C1302 1.368 . S
H1287 C1295 0.950 . S
H1288 C1293 0.950 . S
H1289 C1294 0.949 . S
H1290 C1296 0.950 . S
H1291 C1297 0.950 . S
H1292 C1298 0.949 . S
C1293 H1288 0.950 . S
C1293 C1295 1.327 . S
C1293 C1299 1.429 . S
C1294 C1286 1.574 . S
C1294 H1289 0.949 . S
C1294 C1300 1.368 . S
C1295 C1279 1.349 . S
C1295 H1287 0.950 . S
C1295 C1293 1.327 . S
C1296 C1284 1.349 . S
C1296 H1290 0.950 . S
C1296 C1297 1.327 . S
C1297 H1291 0.950 . S
C1297 C1296 1.327 . S
C1297 C1301 1.429 . S
C1298 C1281 1.574 . S
C1298 H1292 0.949 . S
C1298 C1302 1.368 . S
C1299 C1280 1.429 . S
C1299 C1293 1.429 . S
C1299 C1300 1.523 . S
C1300 C1281 1.368 . S
C1300 C1294 1.368 . S
C1300 C1299 1.523 . S
C1301 C1285 1.429 . S
C1301 C1297 1.429 . S
C1301 C1302 1.523 . S
C1302 C1286 1.368 . S
C1302 C1298 1.368 . S
C1302 C1301 1.523 . S
H1303 C1278 0.950 . S
H1304 C1280 0.950 . S
H1305 C1281 0.949 . S
H1306 C1283 0.950 . S
H1307 C1285 0.950 . S
C1308 C1309 1.349 . S
C1308 C1310 1.327 . S
C1308 H1333 0.950 . S
C1309 C1308 1.349 . S
C1309 C1325 1.349 . S
C1310 C1308 1.327 . S
C1310 C1329 1.429 . S
C1310 H1334 0.950 . S
C1311 C1328 1.574 . S
C1311 C1330 1.368 . S
C1311 H1335 0.949 . S
H1312 C1316 0.949 . S
C1313 C1314 1.349 . S
C1313 C1315 1.327 . S
C1313 H1336 0.950 . S
C1314 C1313 1.349 . S
C1314 C1326 1.349 . S
C1315 C1313 1.327 . S
C1315 C1331 1.429 . S
C1315 H1337 0.950 . S
C1316 H1312 0.949 . S
C1316 C1324 1.574 . S
C1316 C1332 1.368 . S
H1317 C1325 0.950 . S
H1318 C1323 0.950 . S
H1319 C1324 0.949 . S
H1320 C1326 0.950 . S
H1321 C1327 0.950 . S
H1322 C1328 0.949 . S
C1323 H1318 0.950 . S
C1323 C1325 1.327 . S
C1323 C1329 1.429 . S
C1324 C1316 1.574 . S
C1324 H1319 0.949 . S
C1324 C1330 1.368 . S
C1325 C1309 1.349 . S
C1325 H1317 0.950 . S
C1325 C1323 1.327 . S
C1326 C1314 1.349 . S
C1326 H1320 0.950 . S
C1326 C1327 1.327 . S
C1327 H1321 0.950 . S
C1327 C1326 1.327 . S
C1327 C1331 1.429 . S
C1328 C1311 1.574 . S
C1328 H1322 0.949 . S
C1328 C1332 1.368 . S
C1329 C1310 1.429 . S
C1329 C1323 1.429 . S
C1329 C1330 1.523 . S
C1330 C1311 1.368 . S
C1330 C1324 1.368 . S
C1330 C1329 1.523 . S
C1331 C1315 1.429 . S
C1331 C1327 1.429 . S
C1331 C1332 1.523 . S
C1332 C1316 1.368 . S
C1332 C1328 1.368 . S
C1332 C1331 1.523 . S
H1333 C1308 0.950 . S
H1334 C1310 0.950 . S
H1335 C1311 0.949 . S
H1336 C1313 0.950 . S
H1337 C1315 0.950 . S
C1338 C1339 1.349 . S
C1338 C1340 1.327 . S
C1338 H1363 0.950 . S
C1339 C1338 1.349 . S
C1339 C1355 1.349 . S
C1340 C1338 1.327 . S
C1340 C1359 1.429 . S
C1340 H1364 0.950 . S
C1341 C1358 1.574 . S
C1341 C1360 1.368 . S
C1341 H1365 0.949 . S
H1342 C1346 0.949 . S
C1343 C1344 1.349 . S
C1343 C1345 1.327 . S
C1343 H1366 0.950 . S
C1344 C1343 1.349 . S
C1344 C1356 1.349 . S
C1345 C1343 1.327 . S
C1345 C1361 1.429 . S
C1345 H1367 0.950 . S
C1346 H1342 0.949 . S
C1346 C1354 1.574 . S
C1346 C1362 1.368 . S
H1347 C1355 0.950 . S
H1348 C1353 0.950 . S
H1349 C1354 0.949 . S
H1350 C1356 0.950 . S
H1351 C1357 0.950 . S
H1352 C1358 0.949 . S
C1353 H1348 0.950 . S
C1353 C1355 1.327 . S
C1353 C1359 1.429 . S
C1354 C1346 1.574 . S
C1354 H1349 0.949 . S
C1354 C1360 1.368 . S
C1355 C1339 1.349 . S
C1355 H1347 0.950 . S
C1355 C1353 1.327 . S
C1356 C1344 1.349 . S
C1356 H1350 0.950 . S
C1356 C1357 1.327 . S
C1357 H1351 0.950 . S
C1357 C1356 1.327 . S
C1357 C1361 1.429 . S
C1358 C1341 1.574 . S
C1358 H1352 0.949 . S
C1358 C1362 1.368 . S
C1359 C1340 1.429 . S
C1359 C1353 1.429 . S
C1359 C1360 1.523 . S
C1360 C1341 1.368 . S
C1360 C1354 1.368 . S
C1360 C1359 1.523 . S
C1361 C1345 1.429 . S
C1361 C1357 1.429 . S
C1361 C1362 1.523 . S
C1362 C1346 1.368 . S
C1362 C1358 1.368 . S
C1362 C1361 1.523 . S
H1363 C1338 0.950 . S
H1364 C1340 0.950 . S
H1365 C1341 0.949 . S
H1366 C1343 0.950 . S
H1367 C1345 0.950 . S
C1368 C1369 1.349 . S
C1368 C1370 1.327 . S
C1368 H1393 0.950 . S
C1369 C1368 1.349 . S
C1369 C1385 1.349 . S
C1370 C1368 1.327 . S
C1370 C1389 1.429 . S
C1370 H1394 0.950 . S
C1371 C1388 1.574 . S
C1371 C1390 1.368 . S
C1371 H1395 0.949 . S
H1372 C1376 0.949 . S
C1373 C1374 1.349 . S
C1373 C1375 1.327 . S
C1373 H1396 0.950 . S
C1374 C1373 1.349 . S
C1374 C1386 1.349 . S
C1375 C1373 1.327 . S
C1375 C1391 1.429 . S
C1375 H1397 0.950 . S
C1376 H1372 0.949 . S
C1376 C1384 1.574 . S
C1376 C1392 1.368 . S
H1377 C1385 0.950 . S
H1378 C1383 0.950 . S
H1379 C1384 0.949 . S
H1380 C1386 0.950 . S
H1381 C1387 0.950 . S
H1382 C1388 0.949 . S
C1383 H1378 0.950 . S
C1383 C1385 1.327 . S
C1383 C1389 1.429 . S
C1384 C1376 1.574 . S
C1384 H1379 0.949 . S
C1384 C1390 1.368 . S
C1385 C1369 1.349 . S
C1385 H1377 0.950 . S
C1385 C1383 1.327 . S
C1386 C1374 1.349 . S
C1386 H1380 0.950 . S
C1386 C1387 1.327 . S
C1387 H1381 0.950 . S
C1387 C1386 1.327 . S
C1387 C1391 1.429 . S
C1388 C1371 1.574 . S
C1388 H1382 0.949 . S
C1388 C1392 1.368 . S
C1389 C1370 1.429 . S
C1389 C1383 1.429 . S
C1389 C1390 1.523 . S
C1390 C1371 1.368 . S
C1390 C1384 1.368 . S
C1390 C1389 1.523 . S
C1391 C1375 1.429 . S
C1391 C1387 1.429 . S
C1391 C1392 1.523 . S
C1392 C1376 1.368 . S
C1392 C1388 1.368 . S
C1392 C1391 1.523 . S
H1393 C1368 0.950 . S
H1394 C1370 0.950 . S
H1395 C1371 0.949 . S
H1396 C1373 0.950 . S
H1397 C1375 0.950 . S
C1398 C1399 1.349 . S
C1398 C1400 1.327 . S
C1398 H1423 0.950 . S
C1399 C1398 1.349 . S
C1399 C1415 1.349 . S
C1400 C1398 1.327 . S
C1400 C1419 1.429 . S
C1400 H1424 0.950 . S
C1401 C1418 1.574 . S
C1401 C1420 1.368 . S
C1401 H1425 0.949 . S
H1402 C1406 0.949 . S
C1403 C1404 1.349 . S
C1403 C1405 1.327 . S
C1403 H1426 0.950 . S
C1404 C1403 1.349 . S
C1404 C1416 1.349 . S
C1405 C1403 1.327 . S
C1405 C1421 1.429 . S
C1405 H1427 0.950 . S
C1406 H1402 0.949 . S
C1406 C1414 1.574 . S
C1406 C1422 1.368 . S
H1407 C1415 0.950 . S
H1408 C1413 0.950 . S
H1409 C1414 0.949 . S
H1410 C1416 0.950 . S
H1411 C1417 0.950 . S
H1412 C1418 0.949 . S
C1413 H1408 0.950 . S
C1413 C1415 1.327 . S
C1413 C1419 1.429 . S
C1414 C1406 1.574 . S
C1414 H1409 0.949 . S
C1414 C1420 1.368 . S
C1415 C1399 1.349 . S
C1415 H1407 0.950 . S
C1415 C1413 1.327 . S
C1416 C1404 1.349 . S
C1416 H1410 0.950 . S
C1416 C1417 1.327 . S
C1417 H1411 0.950 . S
C1417 C1416 1.327 . S
C1417 C1421 1.429 . S
C1418 C1401 1.574 . S
C1418 H1412 0.949 . S
C1418 C1422 1.368 . S
C1419 C1400 1.429 . S
C1419 C1413 1.429 . S
C1419 C1420 1.523 . S
C1420 C1401 1.368 . S
C1420 C1414 1.368 . S
C1420 C1419 1.523 . S
C1421 C1405 1.429 . S
C1421 C1417 1.429 . S
C1421 C1422 1.523 . S
C1422 C1406 1.368 . S
C1422 C1418 1.368 . S
C1422 C1421 1.523 . S
H1423 C1398 0.950 . S
H1424 C1400 0.950 . S
H1425 C1401 0.949 . S
H1426 C1403 0.950 . S
H1427 C1405 0.950 . S
C1428 C1429 1.349 . S
C1428 C1430 1.327 . S
C1428 H1453 0.950 . S
C1429 C1428 1.349 . S
C1429 C1445 1.349 . S
C1430 C1428 1.327 . S
C1430 C1449 1.429 . S
C1430 H1454 0.950 . S
C1431 C1448 1.574 . S
C1431 C1450 1.368 . S
C1431 H1455 0.949 . S
H1432 C1436 0.949 . S
C1433 C1434 1.349 . S
C1433 C1435 1.327 . S
C1433 H1456 0.950 . S
C1434 C1433 1.349 . S
C1434 C1446 1.349 . S
C1435 C1433 1.327 . S
C1435 C1451 1.429 . S
C1435 H1457 0.950 . S
C1436 H1432 0.949 . S
C1436 C1444 1.574 . S
C1436 C1452 1.368 . S
H1437 C1445 0.950 . S
H1438 C1443 0.950 . S
H1439 C1444 0.949 . S
H1440 C1446 0.950 . S
H1441 C1447 0.950 . S
H1442 C1448 0.949 . S
C1443 H1438 0.950 . S
C1443 C1445 1.327 . S
C1443 C1449 1.429 . S
C1444 C1436 1.574 . S
C1444 H1439 0.949 . S
C1444 C1450 1.368 . S
C1445 C1429 1.349 . S
C1445 H1437 0.950 . S
C1445 C1443 1.327 . S
C1446 C1434 1.349 . S
C1446 H1440 0.950 . S
C1446 C1447 1.327 . S
C1447 H1441 0.950 . S
C1447 C1446 1.327 . S
C1447 C1451 1.429 . S
C1448 C1431 1.574 . S
C1448 H1442 0.949 . S
C1448 C1452 1.368 . S
C1449 C1430 1.429 . S
C1449 C1443 1.429 . S
C1449 C1450 1.523 . S
C1450 C1431 1.368 . S
C1450 C1444 1.368 . S
C1450 C1449 1.523 . S
C1451 C1435 1.429 . S
C1451 C1447 1.429 . S
C1451 C1452 1.523 . S
C1452 C1436 1.368 . S
C1452 C1448 1.368 . S
C1452 C1451 1.523 . S
H1453 C1428 0.950 . S
H1454 C1430 0.950 . S
H1455 C1431 0.949 . S
H1456 C1433 0.950 . S
H1457 C1435 0.950 . S
C1458 C1459 1.349 . S
C1458 C1460 1.327 . S
C1458 H1483 0.950 . S
C1459 C1458 1.349 . S
C1459 C1475 1.349 . S
C1460 C1458 1.327 . S
C1460 C1479 1.429 . S
C1460 H1484 0.950 . S
C1461 C1478 1.574 . S
C1461 C1480 1.368 . S
C1461 H1485 0.949 . S
H1462 C1466 0.949 . S
C1463 C1464 1.349 . S
C1463 C1465 1.327 . S
C1463 H1486 0.950 . S
C1464 C1463 1.349 . S
C1464 C1476 1.349 . S
C1465 C1463 1.327 . S
C1465 C1481 1.429 . S
C1465 H1487 0.950 . S
C1466 H1462 0.949 . S
C1466 C1474 1.574 . S
C1466 C1482 1.368 . S
H1467 C1475 0.950 . S
H1468 C1473 0.950 . S
H1469 C1474 0.949 . S
H1470 C1476 0.950 . S
H1471 C1477 0.950 . S
H1472 C1478 0.949 . S
C1473 H1468 0.950 . S
C1473 C1475 1.327 . S
C1473 C1479 1.429 . S
C1474 C1466 1.574 . S
C1474 H1469 0.949 . S
C1474 C1480 1.368 . S
C1475 C1459 1.349 . S
C1475 H1467 0.950 . S
C1475 C1473 1.327 . S
C1476 C1464 1.349 . S
C1476 H1470 0.950 . S
C1476 C1477 1.327 . S
C1477 H1471 0.950 . S
C1477 C1476 1.327 . S
C1477 C1481 1.429 . S
C1478 C1461 1.574 . S
C1478 H1472 0.949 . S
C1478 C1482 1.368 . S
C1479 C1460 1.429 . S
C1479 C1473 1.429 . S
C1479 C1480 1.523 . S
C1480 C1461 1.368 . S
C1480 C1474 1.368 . S
C1480 C1479 1.523 . S
C1481 C1465 1.429 . S
C1481 C1477 1.429 . S
C1481 C1482 1.523 . S
C1482 C1466 1.368 . S
C1482 C1478 1.368 . S
C1482 C1481 1.523 . S
H1483 C1458 0.950 . S
H1484 C1460 0.950 . S
H1485 C1461 0.949 . S
H1486 C1463 0.950 . S
H1487 C1465 0.950 . S
C1488 C1489 1.349 . S
C1488 C1490 1.327 . S
C1488 H1513 0.950 . S
C1489 C1488 1.349 . S
C1489 C1505 1.349 . S
C1490 C1488 1.327 . S
C1490 C1509 1.429 . S
C1490 H1514 0.950 . S
C1491 C1508 1.574 . S
C1491 C1510 1.368 . S
C1491 H1515 0.949 . S
H1492 C1496 0.949 . S
C1493 C1494 1.349 . S
C1493 C1495 1.327 . S
C1493 H1516 0.950 . S
C1494 C1493 1.349 . S
C1494 C1506 1.349 . S
C1495 C1493 1.327 . S
C1495 C1511 1.429 . S
C1495 H1517 0.950 . S
C1496 H1492 0.949 . S
C1496 C1504 1.574 . S
C1496 C1512 1.368 . S
H1497 C1505 0.950 . S
H1498 C1503 0.950 . S
H1499 C1504 0.949 . S
H1500 C1506 0.950 . S
H1501 C1507 0.950 . S
H1502 C1508 0.949 . S
C1503 H1498 0.950 . S
C1503 C1505 1.327 . S
C1503 C1509 1.429 . S
C1504 C1496 1.574 . S
C1504 H1499 0.949 . S
C1504 C1510 1.368 . S
C1505 C1489 1.349 . S
C1505 H1497 0.950 . S
C1505 C1503 1.327 . S
C1506 C1494 1.349 . S
C1506 H1500 0.950 . S
C1506 C1507 1.327 . S
C1507 H1501 0.950 . S
C1507 C1506 1.327 . S
C1507 C1511 1.429 . S
C1508 C1491 1.574 . S
C1508 H1502 0.949 . S
C1508 C1512 1.368 . S
C1509 C1490 1.429 . S
C1509 C1503 1.429 . S
C1509 C1510 1.523 . S
C1510 C1491 1.368 . S
C1510 C1504 1.368 . S
C1510 C1509 1.523 . S
C1511 C1495 1.429 . S
C1511 C1507 1.429 . S
C1511 C1512 1.523 . S
C1512 C1496 1.368 . S
C1512 C1508 1.368 . S
C1512 C1511 1.523 . S
H1513 C1488 0.950 . S
H1514 C1490 0.950 . S
H1515 C1491 0.949 . S
H1516 C1493 0.950 . S
H1517 C1495 0.950 . S
C1518 C1519 1.349 . S
C1518 C1520 1.327 . S
C1518 H1543 0.950 . S
C1519 C1518 1.349 . S
C1519 C1535 1.349 . S
C1520 C1518 1.327 . S
C1520 C1539 1.429 . S
C1520 H1544 0.950 . S
C1521 C1538 1.574 . S
C1521 C1540 1.368 . S
C1521 H1545 0.949 . S
H1522 C1526 0.949 . S
C1523 C1524 1.349 . S
C1523 C1525 1.327 . S
C1523 H1546 0.950 . S
C1524 C1523 1.349 . S
C1524 C1536 1.349 . S
C1525 C1523 1.327 . S
C1525 C1541 1.429 . S
C1525 H1547 0.950 . S
C1526 H1522 0.949 . S
C1526 C1534 1.574 . S
C1526 C1542 1.368 . S
H1527 C1535 0.950 . S
H1528 C1533 0.950 . S
H1529 C1534 0.949 . S
H1530 C1536 0.950 . S
H1531 C1537 0.950 . S
H1532 C1538 0.949 . S
C1533 H1528 0.950 . S
C1533 C1535 1.327 . S
C1533 C1539 1.429 . S
C1534 C1526 1.574 . S
C1534 H1529 0.949 . S
C1534 C1540 1.368 . S
C1535 C1519 1.349 . S
C1535 H1527 0.950 . S
C1535 C1533 1.327 . S
C1536 C1524 1.349 . S
C1536 H1530 0.950 . S
C1536 C1537 1.327 . S
C1537 H1531 0.950 . S
C1537 C1536 1.327 . S
C1537 C1541 1.429 . S
C1538 C1521 1.574 . S
C1538 H1532 0.949 . S
C1538 C1542 1.368 . S
C1539 C1520 1.429 . S
C1539 C1533 1.429 . S
C1539 C1540 1.523 . S
C1540 C1521 1.368 . S
C1540 C1534 1.368 . S
C1540 C1539 1.523 . S
C1541 C1525 1.429 . S
C1541 C1537 1.429 . S
C1541 C1542 1.523 . S
C1542 C1526 1.368 . S
C1542 C1538 1.368 . S
C1542 C1541 1.523 . S
H1543 C1518 0.950 . S
H1544 C1520 0.950 . S
H1545 C1521 0.949 . S
H1546 C1523 0.950 . S
H1547 C1525 0.950 . S
C1548 C1549 1.349 . S
C1548 C1550 1.327 . S
C1548 H1573 0.950 . S
C1549 C1548 1.349 . S
C1549 C1565 1.349 . S
C1550 C1548 1.327 . S
C1550 C1569 1.429 . S
C1550 H1574 0.950 . S
C1551 C1568 1.574 . S
C1551 C1570 1.368 . S
C1551 H1575 0.949 . S
H1552 C1556 0.949 . S
C1553 C1554 1.349 . S
C1553 C1555 1.327 . S
C1553 H1576 0.950 . S
C1554 C1553 1.349 . S
C1554 C1566 1.349 . S
C1555 C1553 1.327 . S
C1555 C1571 1.429 . S
C1555 H1577 0.950 . S
C1556 H1552 0.949 . S
C1556 C1564 1.574 . S
C1556 C1572 1.368 . S
H1557 C1565 0.950 . S
H1558 C1563 0.950 . S
H1559 C1564 0.949 . S
H1560 C1566 0.950 . S
H1561 C1567 0.950 . S
H1562 C1568 0.949 . S
C1563 H1558 0.950 . S
C1563 C1565 1.327 . S
C1563 C1569 1.429 . S
C1564 C1556 1.574 . S
C1564 H1559 0.949 . S
C1564 C1570 1.368 . S
C1565 C1549 1.349 . S
C1565 H1557 0.950 . S
C1565 C1563 1.327 . S
C1566 C1554 1.349 . S
C1566 H1560 0.950 . S
C1566 C1567 1.327 . S
C1567 H1561 0.950 . S
C1567 C1566 1.327 . S
C1567 C1571 1.429 . S
C1568 C1551 1.574 . S
C1568 H1562 0.949 . S
C1568 C1572 1.368 . S
C1569 C1550 1.429 . S
C1569 C1563 1.429 . S
C1569 C1570 1.523 . S
C1570 C1551 1.368 . S
C1570 C1564 1.368 . S
C1570 C1569 1.523 . S
C1571 C1555 1.429 . S
C1571 C1567 1.429 . S
C1571 C1572 1.523 . S
C1572 C1556 1.368 . S
C1572 C1568 1.368 . S
C1572 C1571 1.523 . S
H1573 C1548 0.950 . S
H1574 C1550 0.950 . S
H1575 C1551 0.949 . S
H1576 C1553 0.950 . S
H1577 C1555 0.950 . S
C1578 C1579 1.349 . S
C1578 C1580 1.327 . S
C1578 H1603 0.950 . S
C1579 C1578 1.349 . S
C1579 C1595 1.349 . S
C1580 C1578 1.327 . S
C1580 C1599 1.429 . S
C1580 H1604 0.950 . S
C1581 C1598 1.574 . S
C1581 C1600 1.368 . S
C1581 H1605 0.949 . S
H1582 C1586 0.949 . S
C1583 C1584 1.349 . S
C1583 C1585 1.327 . S
C1583 H1606 0.950 . S
C1584 C1583 1.349 . S
C1584 C1596 1.349 . S
C1585 C1583 1.327 . S
C1585 C1601 1.429 . S
C1585 H1607 0.950 . S
C1586 H1582 0.949 . S
C1586 C1594 1.574 . S
C1586 C1602 1.368 . S
H1587 C1595 0.950 . S
H1588 C1593 0.950 . S
H1589 C1594 0.949 . S
H1590 C1596 0.950 . S
H1591 C1597 0.950 . S
H1592 C1598 0.949 . S
C1593 H1588 0.950 . S
C1593 C1595 1.327 . S
C1593 C1599 1.429 . S
C1594 C1586 1.574 . S
C1594 H1589 0.949 . S
C1594 C1600 1.368 . S
C1595 C1579 1.349 . S
C1595 H1587 0.950 . S
C1595 C1593 1.327 . S
C1596 C1584 1.349 . S
C1596 H1590 0.950 . S
C1596 C1597 1.327 . S
C1597 H1591 0.950 . S
C1597 C1596 1.327 . S
C1597 C1601 1.429 . S
C1598 C1581 1.574 . S
C1598 H1592 0.949 . S
C1598 C1602 1.368 . S
C1599 C1580 1.429 . S
C1599 C1593 1.429 . S
C1599 C1600 1.523 . S
C1600 C1581 1.368 . S
C1600 C1594 1.368 . S
C1600 C1599 1.523 . S
C1601 C1585 1.429 . S
C1601 C1597 1.429 . S
C1601 C1602 1.523 . S
C1602 C1586 1.368 . S
C1602 C1598 1.368 . S
C1602 C1601 1.523 . S
H1603 C1578 0.950 . S
H1604 C1580 0.950 . S
H1605 C1581 0.949 . S
H1606 C1583 0.950 . S
H1607 C1585 0.950 . S
C1608 C1609 1.349 . S
C1608 C1610 1.327 . S
C1608 H1633 0.950 . S
C1609 C1608 1.349 . S
C1609 C1625 1.349 . S
C1610 C1608 1.327 . S
C1610 C1629 1.429 . S
C1610 H1634 0.950 . S
C1611 C1628 1.574 . S
C1611 C1630 1.368 . S
C1611 H1635 0.949 . S
H1612 C1616 0.949 . S
C1613 C1614 1.349 . S
C1613 C1615 1.327 . S
C1613 H1636 0.950 . S
C1614 C1613 1.349 . S
C1614 C1626 1.349 . S
C1615 C1613 1.327 . S
C1615 C1631 1.429 . S
C1615 H1637 0.950 . S
C1616 H1612 0.949 . S
C1616 C1624 1.574 . S
C1616 C1632 1.368 . S
H1617 C1625 0.950 . S
H1618 C1623 0.950 . S
H1619 C1624 0.949 . S
H1620 C1626 0.950 . S
H1621 C1627 0.950 . S
H1622 C1628 0.949 . S
C1623 H1618 0.950 . S
C1623 C1625 1.327 . S
C1623 C1629 1.429 . S
C1624 C1616 1.574 . S
C1624 H1619 0.949 . S
C1624 C1630 1.368 . S
C1625 C1609 1.349 . S
C1625 H1617 0.950 . S
C1625 C1623 1.327 . S
C1626 C1614 1.349 . S
C1626 H1620 0.950 . S
C1626 C1627 1.327 . S
C1627 H1621 0.950 . S
C1627 C1626 1.327 . S
C1627 C1631 1.429 . S
C1628 C1611 1.574 . S
C1628 H1622 0.949 . S
C1628 C1632 1.368 . S
C1629 C1610 1.429 . S
C1629 C1623 1.429 . S
C1629 C1630 1.523 . S
C1630 C1611 1.368 . S
C1630 C1624 1.368 . S
C1630 C1629 1.523 . S
C1631 C1615 1.429 . S
C1631 C1627 1.429 . S
C1631 C1632 1.523 . S
C1632 C1616 1.368 . S
C1632 C1628 1.368 . S
C1632 C1631 1.523 . S
H1633 C1608 0.950 . S
H1634 C1610 0.950 . S
H1635 C1611 0.949 . S
H1636 C1613 0.950 . S
H1637 C1615 0.950 . S
C1638 C1639 1.349 . S
C1638 C1640 1.327 . S
C1638 H1663 0.950 . S
C1639 C1638 1.349 . S
C1639 C1655 1.349 . S
C1640 C1638 1.327 . S
C1640 C1659 1.429 . S
C1640 H1664 0.950 . S
C1641 C1658 1.574 . S
C1641 C1660 1.368 . S
C1641 H1665 0.949 . S
H1642 C1646 0.949 . S
C1643 C1644 1.349 . S
C1643 C1645 1.327 . S
C1643 H1666 0.950 . S
C1644 C1643 1.349 . S
C1644 C1656 1.349 . S
C1645 C1643 1.327 . S
C1645 C1661 1.429 . S
C1645 H1667 0.950 . S
C1646 H1642 0.949 . S
C1646 C1654 1.574 . S
C1646 C1662 1.368 . S
H1647 C1655 0.950 . S
H1648 C1653 0.950 . S
H1649 C1654 0.949 . S
H1650 C1656 0.950 . S
H1651 C1657 0.950 . S
H1652 C1658 0.949 . S
C1653 H1648 0.950 . S
C1653 C1655 1.327 . S
C1653 C1659 1.429 . S
C1654 C1646 1.574 . S
C1654 H1649 0.949 . S
C1654 C1660 1.368 . S
C1655 C1639 1.349 . S
C1655 H1647 0.950 . S
C1655 C1653 1.327 . S
C1656 C1644 1.349 . S
C1656 H1650 0.950 . S
C1656 C1657 1.327 . S
C1657 H1651 0.950 . S
C1657 C1656 1.327 . S
C1657 C1661 1.429 . S
C1658 C1641 1.574 . S
C1658 H1652 0.949 . S
C1658 C1662 1.368 . S
C1659 C1640 1.429 . S
C1659 C1653 1.429 . S
C1659 C1660 1.523 . S
C1660 C1641 1.368 . S
C1660 C1654 1.368 . S
C1660 C1659 1.523 . S
C1661 C1645 1.429 . S
C1661 C1657 1.429 . S
C1661 C1662 1.523 . S
C1662 C1646 1.368 . S
C1662 C1658 1.368 . S
C1662 C1661 1.523 . S
H1663 C1638 0.950 . S
H1664 C1640 0.950 . S
H1665 C1641 0.949 . S
H1666 C1643 0.950 . S
H1667 C1645 0.950 . S
C1668 C1669 1.349 . S
C1668 C1670 1.327 . S
C1668 H1693 0.950 . S
C1669 C1668 1.349 . S
C1669 C1685 1.349 . S
C1670 C1668 1.327 . S
C1670 C1689 1.429 . S
C1670 H1694 0.950 . S
C1671 C1688 1.574 . S
C1671 C1690 1.368 . S
C1671 H1695 0.949 . S
H1672 C1676 0.949 . S
C1673 C1674 1.349 . S
C1673 C1675 1.327 . S
C1673 H1696 0.950 . S
C1674 C1673 1.349 . S
C1674 C1686 1.349 . S
C1675 C1673 1.327 . S
C1675 C1691 1.429 . S
C1675 H1697 0.950 . S
C1676 H1672 0.949 . S
C1676 C1684 1.574 . S
C1676 C1692 1.368 . S
H1677 C1685 0.950 . S
H1678 C1683 0.950 . S
H1679 C1684 0.949 . S
H1680 C1686 0.950 . S
H1681 C1687 0.950 . S
H1682 C1688 0.949 . S
C1683 H1678 0.950 . S
C1683 C1685 1.327 . S
C1683 C1689 1.429 . S
C1684 C1676 1.574 . S
C1684 H1679 0.949 . S
C1684 C1690 1.368 . S
C1685 C1669 1.349 . S
C1685 H1677 0.950 . S
C1685 C1683 1.327 . S
C1686 C1674 1.349 . S
C1686 H1680 0.950 . S
C1686 C1687 1.327 . S
C1687 H1681 0.950 . S
C1687 C1686 1.327 . S
C1687 C1691 1.429 . S
C1688 C1671 1.574 . S
C1688 H1682 0.949 . S
C1688 C1692 1.368 . S
C1689 C1670 1.429 . S
C1689 C1683 1.429 . S
C1689 C1690 1.523 . S
C1690 C1671 1.368 . S
C1690 C1684 1.368 . S
C1690 C1689 1.523 . S
C1691 C1675 1.429 . S
C1691 C1687 1.429 . S
C1691 C1692 1.523 . S
C1692 C1676 1.368 . S
C1692 C1688 1.368 . S
C1692 C1691 1.523 . S
H1693 C1668 0.950 . S
H1694 C1670 0.950 . S
H1695 C1671 0.949 . S
H1696 C1673 0.950 . S
H1697 C1675 0.950 . S
C1698 C1699 1.349 . S
C1698 C1700 1.327 . S
C1698 H1723 0.950 . S
C1699 C1698 1.349 . S
C1699 C1715 1.349 . S
C1700 C1698 1.327 . S
C1700 C1719 1.429 . S
C1700 H1724 0.950 . S
C1701 C1718 1.574 . S
C1701 C1720 1.368 . S
C1701 H1725 0.949 . S
H1702 C1706 0.949 . S
C1703 C1704 1.349 . S
C1703 C1705 1.327 . S
C1703 H1726 0.950 . S
C1704 C1703 1.349 . S
C1704 C1716 1.349 . S
C1705 C1703 1.327 . S
C1705 C1721 1.429 . S
C1705 H1727 0.950 . S
C1706 H1702 0.949 . S
C1706 C1714 1.574 . S
C1706 C1722 1.368 . S
H1707 C1715 0.950 . S
H1708 C1713 0.950 . S
H1709 C1714 0.949 . S
H1710 C1716 0.950 . S
H1711 C1717 0.950 . S
H1712 C1718 0.949 . S
C1713 H1708 0.950 . S
C1713 C1715 1.327 . S
C1713 C1719 1.429 . S
C1714 C1706 1.574 . S
C1714 H1709 0.949 . S
C1714 C1720 1.368 . S
C1715 C1699 1.349 . S
C1715 H1707 0.950 . S
C1715 C1713 1.327 . S
C1716 C1704 1.349 . S
C1716 H1710 0.950 . S
C1716 C1717 1.327 . S
C1717 H1711 0.950 . S
C1717 C1716 1.327 . S
C1717 C1721 1.429 . S
C1718 C1701 1.574 . S
C1718 H1712 0.949 . S
C1718 C1722 1.368 . S
C1719 C1700 1.429 . S
C1719 C1713 1.429 . S
C1719 C1720 1.523 . S
C1720 C1701 1.368 . S
C1720 C1714 1.368 . S
C1720 C1719 1.523 . S
C1721 C1705 1.429 . S
C1721 C1717 1.429 . S
C1721 C1722 1.523 . S
C1722 C1706 1.368 . S
C1722 C1718 1.368 . S
C1722 C1721 1.523 . S
H1723 C1698 0.950 . S
H1724 C1700 0.950 . S
H1725 C1701 0.949 . S
H1726 C1703 0.950 . S
H1727 C1705 0.950 . S
C1728 C1729 1.349 . S
C1728 C1730 1.327 . S
C1728 H1753 0.950 . S
C1729 C1728 1.349 . S
C1729 C1745 1.349 . S
C1730 C1728 1.327 . S
C1730 C1749 1.429 . S
C1730 H1754 0.950 . S
C1731 C1748 1.574 . S
C1731 C1750 1.368 . S
C1731 H1755 0.949 . S
H1732 C1736 0.949 . S
C1733 C1734 1.349 . S
C1733 C1735 1.327 . S
C1733 H1756 0.950 . S
C1734 C1733 1.349 . S
C1734 C1746 1.349 . S
C1735 C1733 1.327 . S
C1735 C1751 1.429 . S
C1735 H1757 0.950 . S
C1736 H1732 0.949 . S
C1736 C1744 1.574 . S
C1736 C1752 1.368 . S
H1737 C1745 0.950 . S
H1738 C1743 0.950 . S
H1739 C1744 0.949 . S
H1740 C1746 0.950 . S
H1741 C1747 0.950 . S
H1742 C1748 0.949 . S
C1743 H1738 0.950 . S
C1743 C1745 1.327 . S
C1743 C1749 1.429 . S
C1744 C1736 1.574 . S
C1744 H1739 0.949 . S
C1744 C1750 1.368 . S
C1745 C1729 1.349 . S
C1745 H1737 0.950 . S
C1745 C1743 1.327 . S
C1746 C1734 1.349 . S
C1746 H1740 0.950 . S
C1746 C1747 1.327 . S
C1747 H1741 0.950 . S
C1747 C1746 1.327 . S
C1747 C1751 1.429 . S
C1748 C1731 1.574 . S
C1748 H1742 0.949 . S
C1748 C1752 1.368 . S
C1749 C1730 1.429 . S
C1749 C1743 1.429 . S
C1749 C1750 1.523 . S
C1750 C1731 1.368 . S
C1750 C1744 1.368 . S
C1750 C1749 1.523 . S
C1751 C1735 1.429 . S
C1751 C1747 1.429 . S
C1751 C1752 1.523 . S
C1752 C1736 1.368 . S
C1752 C1748 1.368 . S
C1752 C1751 1.523 . S
H1753 C1728 0.950 . S
H1754 C1730 0.950 . S
H1755 C1731 0.949 . S
H1756 C1733 0.950 . S
H1757 C1735 0.950 . S
C1758 C1759 1.349 . S
C1758 C1760 1.327 . S
C1758 H1783 0.950 . S
C1759 C1758 1.349 . S
C1759 C1775 1.349 . S
C1760 C1758 1.327 . S
C1760 C1779 1.429 . S
C1760 H1784 0.950 . S
C1761 C1778 1.574 . S
C1761 C1780 1.368 . S
C1761 H1785 0.949 . S
H1762 C1766 0.949 . S
C1763 C1764 1.349 . S
C1763 C1765 1.327 . S
C1763 H1786 0.950 . S
C1764 C1763 1.349 . S
C1764 C1776 1.349 . S
C1765 C1763 1.327 . S
C1765 C1781 1.429 . S
C1765 H1787 0.950 . S
C1766 H1762 0.949 . S
C1766 C1774 1.574 . S
C1766 C1782 1.368 . S
H1767 C1775 0.950 . S
H1768 C1773 0.950 . S
H1769 C1774 0.949 . S
H1770 C1776 0.950 . S
H1771 C1777 0.950 . S
H1772 C1778 0.949 . S
C1773 H1768 0.950 . S
C1773 C1775 1.327 . S
C1773 C1779 1.429 . S
C1774 C1766 1.574 . S
C1774 H1769 0.949 . S
C1774 C1780 1.368 . S
C1775 C1759 1.349 . S
C1775 H1767 0.950 . S
C1775 C1773 1.327 . S
C1776 C1764 1.349 . S
C1776 H1770 0.950 . S
C1776 C1777 1.327 . S
C1777 H1771 0.950 . S
C1777 C1776 1.327 . S
C1777 C1781 1.429 . S
C1778 C1761 1.574 . S
C1778 H1772 0.949 . S
C1778 C1782 1.368 . S
C1779 C1760 1.429 . S
C1779 C1773 1.429 . S
C1779 C1780 1.523 . S
C1780 C1761 1.368 . S
C1780 C1774 1.368 . S
C1780 C1779 1.523 . S
C1781 C1765 1.429 . S
C1781 C1777 1.429 . S
C1781 C1782 1.523 . S
C1782 C1766 1.368 . S
C1782 C1778 1.368 . S
C1782 C1781 1.523 . S
H1783 C1758 0.950 . S
H1784 C1760 0.950 . S
H1785 C1761 0.949 . S
H1786 C1763 0.950 . S
H1787 C1765 0.950 . S
C1788 C1789 1.349 . S
C1788 C1790 1.327 . S
C1788 H1813 0.950 . S
C1789 C1788 1.349 . S
C1789 C1805 1.349 . S
C1790 C1788 1.327 . S
C1790 C1809 1.429 . S
C1790 H1814 0.950 . S
C1791 C1808 1.574 . S
C1791 C1810 1.368 . S
C1791 H1815 0.949 . S
H1792 C1796 0.949 . S
C1793 C1794 1.349 . S
C1793 C1795 1.327 . S
C1793 H1816 0.950 . S
C1794 C1793 1.349 . S
C1794 C1806 1.349 . S
C1795 C1793 1.327 . S
C1795 C1811 1.429 . S
C1795 H1817 0.950 . S
C1796 H1792 0.949 . S
C1796 C1804 1.574 . S
C1796 C1812 1.368 . S
H1797 C1805 0.950 . S
H1798 C1803 0.950 . S
H1799 C1804 0.949 . S
H1800 C1806 0.950 . S
H1801 C1807 0.950 . S
H1802 C1808 0.949 . S
C1803 H1798 0.950 . S
C1803 C1805 1.327 . S
C1803 C1809 1.429 . S
C1804 C1796 1.574 . S
C1804 H1799 0.949 . S
C1804 C1810 1.368 . S
C1805 C1789 1.349 . S
C1805 H1797 0.950 . S
C1805 C1803 1.327 . S
C1806 C1794 1.349 . S
C1806 H1800 0.950 . S
C1806 C1807 1.327 . S
C1807 H1801 0.950 . S
C1807 C1806 1.327 . S
C1807 C1811 1.429 . S
C1808 C1791 1.574 . S
C1808 H1802 0.949 . S
C1808 C1812 1.368 . S
C1809 C1790 1.429 . S
C1809 C1803 1.429 . S
C1809 C1810 1.523 . S
C1810 C1791 1.368 . S
C1810 C1804 1.368 . S
C1810 C1809 1.523 . S
C1811 C1795 1.429 . S
C1811 C1807 1.429 . S
C1811 C1812 1.523 . S
C1812 C1796 1.368 . S
C1812 C1808 1.368 . S
C1812 C1811 1.523 . S
H1813 C1788 0.950 . S
H1814 C1790 0.950 . S
H1815 C1791 0.949 . S
H1816 C1793 0.950 . S
H1817 C1795 0.950 . S
C1818 C1819 1.349 . S
C1818 C1820 1.327 . S
C1818 H1843 0.950 . S
C1819 C1818 1.349 . S
C1819 C1835 1.349 . S
C1820 C1818 1.327 . S
C1820 C1839 1.429 . S
C1820 H1844 0.950 . S
C1821 C1838 1.574 . S
C1821 C1840 1.368 . S
C1821 H1845 0.949 . S
H1822 C1826 0.949 . S
C1823 C1824 1.349 . S
C1823 C1825 1.327 . S
C1823 H1846 0.950 . S
C1824 C1823 1.349 . S
C1824 C1836 1.349 . S
C1825 C1823 1.327 . S
C1825 C1841 1.429 . S
C1825 H1847 0.950 . S
C1826 H1822 0.949 . S
C1826 C1834 1.574 . S
C1826 C1842 1.368 . S
H1827 C1835 0.950 . S
H1828 C1833 0.950 . S
H1829 C1834 0.949 . S
H1830 C1836 0.950 . S
H1831 C1837 0.950 . S
H1832 C1838 0.949 . S
C1833 H1828 0.950 . S
C1833 C1835 1.327 . S
C1833 C1839 1.429 . S
C1834 C1826 1.574 . S
C1834 H1829 0.949 . S
C1834 C1840 1.368 . S
C1835 C1819 1.349 . S
C1835 H1827 0.950 . S
C1835 C1833 1.327 . S
C1836 C1824 1.349 . S
C1836 H1830 0.950 . S
C1836 C1837 1.327 . S
C1837 H1831 0.950 . S
C1837 C1836 1.327 . S
C1837 C1841 1.429 . S
C1838 C1821 1.574 . S
C1838 H1832 0.949 . S
C1838 C1842 1.368 . S
C1839 C1820 1.429 . S
C1839 C1833 1.429 . S
C1839 C1840 1.523 . S
C1840 C1821 1.368 . S
C1840 C1834 1.368 . S
C1840 C1839 1.523 . S
C1841 C1825 1.429 . S
C1841 C1837 1.429 . S
C1841 C1842 1.523 . S
C1842 C1826 1.368 . S
C1842 C1838 1.368 . S
C1842 C1841 1.523 . S
H1843 C1818 0.950 . S
H1844 C1820 0.950 . S
H1845 C1821 0.949 . S
H1846 C1823 0.950 . S
H1847 C1825 0.950 . S
C1848 C1849 1.349 . S
C1848 C1850 1.327 . S
C1848 H1873 0.950 . S
C1849 C1848 1.349 . S
C1849 C1865 1.349 . S
C1850 C1848 1.327 . S
C1850 C1869 1.429 . S
C1850 H1874 0.950 . S
C1851 C1868 1.574 . S
C1851 C1870 1.368 . S
C1851 H1875 0.949 . S
H1852 C1856 0.949 . S
C1853 C1854 1.349 . S
C1853 C1855 1.327 . S
C1853 H1876 0.950 . S
C1854 C1853 1.349 . S
C1854 C1866 1.349 . S
C1855 C1853 1.327 . S
C1855 C1871 1.429 . S
C1855 H1877 0.950 . S
C1856 H1852 0.949 . S
C1856 C1864 1.574 . S
C1856 C1872 1.368 . S
H1857 C1865 0.950 . S
H1858 C1863 0.950 . S
H1859 C1864 0.949 . S
H1860 C1866 0.950 . S
H1861 C1867 0.950 . S
H1862 C1868 0.949 . S
C1863 H1858 0.950 . S
C1863 C1865 1.327 . S
C1863 C1869 1.429 . S
C1864 C1856 1.574 . S
C1864 H1859 0.949 . S
C1864 C1870 1.368 . S
C1865 C1849 1.349 . S
C1865 H1857 0.950 . S
C1865 C1863 1.327 . S
C1866 C1854 1.349 . S
C1866 H1860 0.950 . S
C1866 C1867 1.327 . S
C1867 H1861 0.950 . S
C1867 C1866 1.327 . S
C1867 C1871 1.429 . S
C1868 C1851 1.574 . S
C1868 H1862 0.949 . S
C1868 C1872 1.368 . S
C1869 C1850 1.429 . S
C1869 C1863 1.429 . S
C1869 C1870 1.523 . S
C1870 C1851 1.368 . S
C1870 C1864 1.368 . S
C1870 C1869 1.523 . S
C1871 C1855 1.429 . S
C1871 C1867 1.429 . S
C1871 C1872 1.523 . S
C1872 C1856 1.368 . S
C1872 C1868 1.368 . S
C1872 C1871 1.523 . S
H1873 C1848 0.950 . S
H1874 C1850 0.950 . S
H1875 C1851 0.949 . S
H1876 C1853 0.950 . S
H1877 C1855 0.950 . S
C1878 C1879 1.349 . S
C1878 C1880 1.327 . S
C1878 H1903 0.950 . S
C1879 C1878 1.349 . S
C1879 C1895 1.349 . S
C1880 C1878 1.327 . S
C1880 C1899 1.429 . S
C1880 H1904 0.950 . S
C1881 C1898 1.574 . S
C1881 C1900 1.368 . S
C1881 H1905 0.949 . S
H1882 C1886 0.949 . S
C1883 C1884 1.349 . S
C1883 C1885 1.327 . S
C1883 H1906 0.950 . S
C1884 C1883 1.349 . S
C1884 C1896 1.349 . S
C1885 C1883 1.327 . S
C1885 C1901 1.429 . S
C1885 H1907 0.950 . S
C1886 H1882 0.949 . S
C1886 C1894 1.574 . S
C1886 C1902 1.368 . S
H1887 C1895 0.950 . S
H1888 C1893 0.950 . S
H1889 C1894 0.949 . S
H1890 C1896 0.950 . S
H1891 C1897 0.950 . S
H1892 C1898 0.949 . S
C1893 H1888 0.950 . S
C1893 C1895 1.327 . S
C1893 C1899 1.429 . S
C1894 C1886 1.574 . S
C1894 H1889 0.949 . S
C1894 C1900 1.368 . S
C1895 C1879 1.349 . S
C1895 H1887 0.950 . S
C1895 C1893 1.327 . S
C1896 C1884 1.349 . S
C1896 H1890 0.950 . S
C1896 C1897 1.327 . S
C1897 H1891 0.950 . S
C1897 C1896 1.327 . S
C1897 C1901 1.429 . S
C1898 C1881 1.574 . S
C1898 H1892 0.949 . S
C1898 C1902 1.368 . S
C1899 C1880 1.429 . S
C1899 C1893 1.429 . S
C1899 C1900 1.523 . S
C1900 C1881 1.368 . S
C1900 C1894 1.368 . S
C1900 C1899 1.523 . S
C1901 C1885 1.429 . S
C1901 C1897 1.429 . S
C1901 C1902 1.523 . S
C1902 C1886 1.368 . S
C1902 C1898 1.368 . S
C1902 C1901 1.523 . S
H1903 C1878 0.950 . S
H1904 C1880 0.950 . S
H1905 C1881 0.949 . S
H1906 C1883 0.950 . S
H1907 C1885 0.950 . S
C1908 C1909 1.349 . S
C1908 C1910 1.327 . S
C1908 H1933 0.950 . S
C1909 C1908 1.349 . S
C1909 C1925 1.349 . S
C1910 C1908 1.327 . S
C1910 C1929 1.429 . S
C1910 H1934 0.950 . S
C1911 C1928 1.574 . S
C1911 C1930 1.368 . S
C1911 H1935 0.949 . S
H1912 C1916 0.949 . S
C1913 C1914 1.349 . S
C1913 C1915 1.327 . S
C1913 H1936 0.950 . S
C1914 C1913 1.349 . S
C1914 C1926 1.349 . S
C1915 C1913 1.327 . S
C1915 C1931 1.429 . S
C1915 H1937 0.950 . S
C1916 H1912 0.949 . S
C1916 C1924 1.574 . S
C1916 C1932 1.368 . S
H1917 C1925 0.950 . S
H1918 C1923 0.950 . S
H1919 C1924 0.949 . S
H1920 C1926 0.950 . S
H1921 C1927 0.950 . S
H1922 C1928 0.949 . S
C1923 H1918 0.950 . S
C1923 C1925 1.327 . S
C1923 C1929 1.429 . S
C1924 C1916 1.574 . S
C1924 H1919 0.949 . S
C1924 C1930 1.368 . S
C1925 C1909 1.349 . S
C1925 H1917 0.950 . S
C1925 C1923 1.327 . S
C1926 C1914 1.349 . S
C1926 H1920 0.950 . S
C1926 C1927 1.327 . S
C1927 H1921 0.950 . S
C1927 C1926 1.327 . S
C1927 C1931 1.429 . S
C1928 C1911 1.574 . S
C1928 H1922 0.949 . S
C1928 C1932 1.368 . S
C1929 C1910 1.429 . S
C1929 C1923 1.429 . S
C1929 C1930 1.523 . S
C1930 C1911 1.368 . S
C1930 C1924 1.368 . S
C1930 C1929 1.523 . S
C1931 C1915 1.429 . S
C1931 C1927 1.429 . S
C1931 C1932 1.523 . S
C1932 C1916 1.368 . S
C1932 C1928 1.368 . S
C1932 C1931 1.523 . S
H1933 C1908 0.950 . S
H1934 C1910 0.950 . S
H1935 C1911 0.949 . S
H1936 C1913 0.950 . S
H1937 C1915 0.950 . S
C1938 C1939 1.349 . S
C1938 C1940 1.327 . S
C1938 H1963 0.950 . S
C1939 C1938 1.349 . S
C1939 C1955 1.349 . S
C1940 C1938 1.327 . S
C1940 C1959 1.429 . S
C1940 H1964 0.950 . S
C1941 C1958 1.574 . S
C1941 C1960 1.368 . S
C1941 H1965 0.949 . S
H1942 C1946 0.949 . S
C1943 C1944 1.349 . S
C1943 C1945 1.327 . S
C1943 H1966 0.950 . S
C1944 C1943 1.349 . S
C1944 C1956 1.349 . S
C1945 C1943 1.327 . S
C1945 C1961 1.429 . S
C1945 H1967 0.950 . S
C1946 H1942 0.949 . S
C1946 C1954 1.574 . S
C1946 C1962 1.368 . S
H1947 C1955 0.950 . S
H1948 C1953 0.950 . S
H1949 C1954 0.949 . S
H1950 C1956 0.950 . S
H1951 C1957 0.950 . S
H1952 C1958 0.949 . S
C1953 H1948 0.950 . S
C1953 C1955 1.327 . S
C1953 C1959 1.429 . S
C1954 C1946 1.574 . S
C1954 H1949 0.949 . S
C1954 C1960 1.368 . S
C1955 C1939 1.349 . S
C1955 H1947 0.950 . S
C1955 C1953 1.327 . S
C1956 C1944 1.349 . S
C1956 H1950 0.950 . S
C1956 C1957 1.327 . S
C1957 H1951 0.950 . S
C1957 C1956 1.327 . S
C1957 C1961 1.429 . S
C1958 C1941 1.574 . S
C1958 H1952 0.949 . S
C1958 C1962 1.368 . S
C1959 C1940 1.429 . S
C1959 C1953 1.429 . S
C1959 C1960 1.523 . S
C1960 C1941 1.368 . S
C1960 C1954 1.368 . S
C1960 C1959 1.523 . S
C1961 C1945 1.429 . S
C1961 C1957 1.429 . S
C1961 C1962 1.523 . S
C1962 C1946 1.368 . S
C1962 C1958 1.368 . S
C1962 C1961 1.523 . S
H1963 C1938 0.950 . S
H1964 C1940 0.950 . S
H1965 C1941 0.949 . S
H1966 C1943 0.950 . S
H1967 C1945 0.950 . S
C1968 C1969 1.349 . S
C1968 C1970 1.327 . S
C1968 H1993 0.950 . S
C1969 C1968 1.349 . S
C1969 C1985 1.349 . S
C1970 C1968 1.327 . S
C1970 C1989 1.429 . S
C1970 H1994 0.950 . S
C1971 C1988 1.574 . S
C1971 C1990 1.368 . S
C1971 H1995 0.949 . S
H1972 C1976 0.949 . S
C1973 C1974 1.349 . S
C1973 C1975 1.327 . S
C1973 H1996 0.950 . S
C1974 C1973 1.349 . S
C1974 C1986 1.349 . S
C1975 C1973 1.327 . S
C1975 C1991 1.429 . S
C1975 H1997 0.950 . S
C1976 H1972 0.949 . S
C1976 C1984 1.574 . S
C1976 C1992 1.368 . S
H1977 C1985 0.950 . S
H1978 C1983 0.950 . S
H1979 C1984 0.949 . S
H1980 C1986 0.950 . S
H1981 C1987 0.950 . S
H1982 C1988 0.949 . S
C1983 H1978 0.950 . S
C1983 C1985 1.327 . S
C1983 C1989 1.429 . S
C1984 C1976 1.574 . S
C1984 H1979 0.949 . S
C1984 C1990 1.368 . S
C1985 C1969 1.349 . S
C1985 H1977 0.950 . S
C1985 C1983 1.327 . S
C1986 C1974 1.349 . S
C1986 H1980 0.950 . S
C1986 C1987 1.327 . S
C1987 H1981 0.950 . S
C1987 C1986 1.327 . S
C1987 C1991 1.429 . S
C1988 C1971 1.574 . S
C1988 H1982 0.949 . S
C1988 C1992 1.368 . S
C1989 C1970 1.429 . S
C1989 C1983 1.429 . S
C1989 C1990 1.523 . S
C1990 C1971 1.368 . S
C1990 C1984 1.368 . S
C1990 C1989 1.523 . S
C1991 C1975 1.429 . S
C1991 C1987 1.429 . S
C1991 C1992 1.523 . S
C1992 C1976 1.368 . S
C1992 C1988 1.368 . S
C1992 C1991 1.523 . S
H1993 C1968 0.950 . S
H1994 C1970 0.950 . S
H1995 C1971 0.949 . S
H1996 C1973 0.950 . S
H1997 C1975 0.950 . S
C1998 C1999 1.349 . S
C1998 C2000 1.327 . S
C1998 H2023 0.950 . S
C1999 C1998 1.349 . S
C1999 C2015 1.349 . S
C2000 C1998 1.327 . S
C2000 C2019 1.429 . S
C2000 H2024 0.950 . S
C2001 C2018 1.574 . S
C2001 C2020 1.368 . S
C2001 H2025 0.949 . S
H2002 C2006 0.949 . S
C2003 C2004 1.349 . S
C2003 C2005 1.327 . S
C2003 H2026 0.950 . S
C2004 C2003 1.349 . S
C2004 C2016 1.349 . S
C2005 C2003 1.327 . S
C2005 C2021 1.429 . S
C2005 H2027 0.950 . S
C2006 H2002 0.949 . S
C2006 C2014 1.574 . S
C2006 C2022 1.368 . S
H2007 C2015 0.950 . S
H2008 C2013 0.950 . S
H2009 C2014 0.949 . S
H2010 C2016 0.950 . S
H2011 C2017 0.950 . S
H2012 C2018 0.949 . S
C2013 H2008 0.950 . S
C2013 C2015 1.327 . S
C2013 C2019 1.429 . S
C2014 C2006 1.574 . S
C2014 H2009 0.949 . S
C2014 C2020 1.368 . S
C2015 C1999 1.349 . S
C2015 H2007 0.950 . S
C2015 C2013 1.327 . S
C2016 C2004 1.349 . S
C2016 H2010 0.950 . S
C2016 C2017 1.327 . S
C2017 H2011 0.950 . S
C2017 C2016 1.327 . S
C2017 C2021 1.429 . S
C2018 C2001 1.574 . S
C2018 H2012 0.949 . S
C2018 C2022 1.368 . S
C2019 C2000 1.429 . S
C2019 C2013 1.429 . S
C2019 C2020 1.523 . S
C2020 C2001 1.368 . S
C2020 C2014 1.368 . S
C2020 C2019 1.523 . S
C2021 C2005 1.429 . S
C2021 C2017 1.429 . S
C2021 C2022 1.523 . S
C2022 C2006 1.368 . S
C2022 C2018 1.368 . S
C2022 C2021 1.523 . S
H2023 C1998 0.950 . S
H2024 C2000 0.950 . S
H2025 C2001 0.949 . S
H2026 C2003 0.950 . S
H2027 C2005 0.950 . S
C2028 C2029 1.349 . S
C2028 C2030 1.327 . S
C2028 H2053 0.950 . S
C2029 C2028 1.349 . S
C2029 C2045 1.349 . S
C2030 C2028 1.327 . S
C2030 C2049 1.429 . S
C2030 H2054 0.950 . S
C2031 C2048 1.574 . S
C2031 C2050 1.368 . S
C2031 H2055 0.949 . S
H2032 C2036 0.949 . S
C2033 C2034 1.349 . S
C2033 C2035 1.327 . S
C2033 H2056 0.950 . S
C2034 C2033 1.349 . S
C2034 C2046 1.349 . S
C2035 C2033 1.327 . S
C2035 C2051 1.429 . S
C2035 H2057 0.950 . S
C2036 H2032 0.949 . S
C2036 C2044 1.574 . S
C2036 C2052 1.368 . S
H2037 C2045 0.950 . S
H2038 C2043 0.950 . S
H2039 C2044 0.949 . S
H2040 C2046 0.950 . S
H2041 C2047 0.950 . S
H2042 C2048 0.949 . S
C2043 H2038 0.950 . S
C2043 C2045 1.327 . S
C2043 C2049 1.429 . S
C2044 C2036 1.574 . S
C2044 H2039 0.949 . S
C2044 C2050 1.368 . S
C2045 C2029 1.349 . S
C2045 H2037 0.950 . S
C2045 C2043 1.327 . S
C2046 C2034 1.349 . S
C2046 H2040 0.950 . S
C2046 C2047 1.327 . S
C2047 H2041 0.950 . S
C2047 C2046 1.327 . S
C2047 C2051 1.429 . S
C2048 C2031 1.574 . S
C2048 H2042 0.949 . S
C2048 C2052 1.368 . S
C2049 C2030 1.429 . S
C2049 C2043 1.429 . S
C2049 C2050 1.523 . S
C2050 C2031 1.368 . S
C2050 C2044 1.368 . S
C2050 C2049 1.523 . S
C2051 C2035 1.429 . S
C2051 C2047 1.429 . S
C2051 C2052 1.523 . S
C2052 C2036 1.368 . S
C2052 C2048 1.368 . S
C2052 C2051 1.523 . S
H2053 C2028 0.950 . S
H2054 C2030 0.950 . S
H2055 C2031 0.949 . S
H2056 C2033 0.950 . S
H2057 C2035 0.950 . S
C2058 C2059 1.349 . S
C2058 C2060 1.327 . S
C2058 H2083 0.950 . S
C2059 C2058 1.349 . S
C2059 C2075 1.349 . S
C2060 C2058 1.327 . S
C2060 C2079 1.429 . S
C2060 H2084 0.950 . S
C2061 C2078 1.574 . S
C2061 C2080 1.368 . S
C2061 H2085 0.949 . S
H2062 C2066 0.949 . S
C2063 C2064 1.349 . S
C2063 C2065 1.327 . S
C2063 H2086 0.950 . S
C2064 C2063 1.349 . S
C2064 C2076 1.349 . S
C2065 C2063 1.327 . S
C2065 C2081 1.429 . S
C2065 H2087 0.950 . S
C2066 H2062 0.949 . S
C2066 C2074 1.574 . S
C2066 C2082 1.368 . S
H2067 C2075 0.950 . S
H2068 C2073 0.950 . S
H2069 C2074 0.949 . S
H2070 C2076 0.950 . S
H2071 C2077 0.950 . S
H2072 C2078 0.949 . S
C2073 H2068 0.950 . S
C2073 C2075 1.327 . S
C2073 C2079 1.429 . S
C2074 C2066 1.574 . S
C2074 H2069 0.949 . S
C2074 C2080 1.368 . S
C2075 C2059 1.349 . S
C2075 H2067 0.950 . S
C2075 C2073 1.327 . S
C2076 C2064 1.349 . S
C2076 H2070 0.950 . S
C2076 C2077 1.327 . S
C2077 H2071 0.950 . S
C2077 C2076 1.327 . S
C2077 C2081 1.429 . S
C2078 C2061 1.574 . S
C2078 H2072 0.949 . S
C2078 C2082 1.368 . S
C2079 C2060 1.429 . S
C2079 C2073 1.429 . S
C2079 C2080 1.523 . S
C2080 C2061 1.368 . S
C2080 C2074 1.368 . S
C2080 C2079 1.523 . S
C2081 C2065 1.429 . S
C2081 C2077 1.429 . S
C2081 C2082 1.523 . S
C2082 C2066 1.368 . S
C2082 C2078 1.368 . S
C2082 C2081 1.523 . S
H2083 C2058 0.950 . S
H2084 C2060 0.950 . S
H2085 C2061 0.949 . S
H2086 C2063 0.950 . S
H2087 C2065 0.950 . S
C2088 C2089 1.349 . S
C2088 C2090 1.327 . S
C2088 H2113 0.950 . S
C2089 C2088 1.349 . S
C2089 C2105 1.349 . S
C2090 C2088 1.327 . S
C2090 C2109 1.429 . S
C2090 H2114 0.950 . S
C2091 C2108 1.574 . S
C2091 C2110 1.368 . S
C2091 H2115 0.949 . S
H2092 C2096 0.949 . S
C2093 C2094 1.349 . S
C2093 C2095 1.327 . S
C2093 H2116 0.950 . S
C2094 C2093 1.349 . S
C2094 C2106 1.349 . S
C2095 C2093 1.327 . S
C2095 C2111 1.429 . S
C2095 H2117 0.950 . S
C2096 H2092 0.949 . S
C2096 C2104 1.574 . S
C2096 C2112 1.368 . S
H2097 C2105 0.950 . S
H2098 C2103 0.950 . S
H2099 C2104 0.949 . S
H2100 C2106 0.950 . S
H2101 C2107 0.950 . S
H2102 C2108 0.949 . S
C2103 H2098 0.950 . S
C2103 C2105 1.327 . S
C2103 C2109 1.429 . S
C2104 C2096 1.574 . S
C2104 H2099 0.949 . S
C2104 C2110 1.368 . S
C2105 C2089 1.349 . S
C2105 H2097 0.950 . S
C2105 C2103 1.327 . S
C2106 C2094 1.349 . S
C2106 H2100 0.950 . S
C2106 C2107 1.327 . S
C2107 H2101 0.950 . S
C2107 C2106 1.327 . S
C2107 C2111 1.429 . S
C2108 C2091 1.574 . S
C2108 H2102 0.949 . S
C2108 C2112 1.368 . S
C2109 C2090 1.429 . S
C2109 C2103 1.429 . S
C2109 C2110 1.523 . S
C2110 C2091 1.368 . S
C2110 C2104 1.368 . S
C2110 C2109 1.523 . S
C2111 C2095 1.429 . S
C2111 C2107 1.429 . S
C2111 C2112 1.523 . S
C2112 C2096 1.368 . S
C2112 C2108 1.368 . S
C2112 C2111 1.523 . S
H2113 C2088 0.950 . S
H2114 C2090 0.950 . S
H2115 C2091 0.949 . S
H2116 C2093 0.950 . S
H2117 C2095 0.950 . S
C2118 C2119 1.349 . S
C2118 C2120 1.327 . S
C2118 H2143 0.950 . S
C2119 C2118 1.349 . S
C2119 C2135 1.349 . S
C2120 C2118 1.327 . S
C2120 C2139 1.429 . S
C2120 H2144 0.950 . S
C2121 C2138 1.574 . S
C2121 C2140 1.368 . S
C2121 H2145 0.949 . S
H2122 C2126 0.949 . S
C2123 C2124 1.349 . S
C2123 C2125 1.327 . S
C2123 H2146 0.950 . S
C2124 C2123 1.349 . S
C2124 C2136 1.349 . S
C2125 C2123 1.327 . S
C2125 C2141 1.429 . S
C2125 H2147 0.950 . S
C2126 H2122 0.949 . S
C2126 C2134 1.574 . S
C2126 C2142 1.368 . S
H2127 C2135 0.950 . S
H2128 C2133 0.950 . S
H2129 C2134 0.949 . S
H2130 C2136 0.950 . S
H2131 C2137 0.950 . S
H2132 C2138 0.949 . S
C2133 H2128 0.950 . S
C2133 C2135 1.327 . S
C2133 C2139 1.429 . S
C2134 C2126 1.574 . S
C2134 H2129 0.949 . S
C2134 C2140 1.368 . S
C2135 C2119 1.349 . S
C2135 H2127 0.950 . S
C2135 C2133 1.327 . S
C2136 C2124 1.349 . S
C2136 H2130 0.950 . S
C2136 C2137 1.327 . S
C2137 H2131 0.950 . S
C2137 C2136 1.327 . S
C2137 C2141 1.429 . S
C2138 C2121 1.574 . S
C2138 H2132 0.949 . S
C2138 C2142 1.368 . S
C2139 C2120 1.429 . S
C2139 C2133 1.429 . S
C2139 C2140 1.523 . S
C2140 C2121 1.368 . S
C2140 C2134 1.368 . S
C2140 C2139 1.523 . S
C2141 C2125 1.429 . S
C2141 C2137 1.429 . S
C2141 C2142 1.523 . S
C2142 C2126 1.368 . S
C2142 C2138 1.368 . S
C2142 C2141 1.523 . S
H2143 C2118 0.950 . S
H2144 C2120 0.950 . S
H2145 C2121 0.949 . S
H2146 C2123 0.950 . S
H2147 C2125 0.950 . S
C2148 C2149 1.349 . S
C2148 C2150 1.327 . S
C2148 H2173 0.950 . S
C2149 C2148 1.349 . S
C2149 C2165 1.349 . S
C2150 C2148 1.327 . S
C2150 C2169 1.429 . S
C2150 H2174 0.950 . S
C2151 C2168 1.574 . S
C2151 C2170 1.368 . S
C2151 H2175 0.949 . S
H2152 C2156 0.949 . S
C2153 C2154 1.349 . S
C2153 C2155 1.327 . S
C2153 H2176 0.950 . S
C2154 C2153 1.349 . S
C2154 C2166 1.349 . S
C2155 C2153 1.327 . S
C2155 C2171 1.429 . S
C2155 H2177 0.950 . S
C2156 H2152 0.949 . S
C2156 C2164 1.574 . S
C2156 C2172 1.368 . S
H2157 C2165 0.950 . S
H2158 C2163 0.950 . S
H2159 C2164 0.949 . S
H2160 C2166 0.950 . S
H2161 C2167 0.950 . S
H2162 C2168 0.949 . S
C2163 H2158 0.950 . S
C2163 C2165 1.327 . S
C2163 C2169 1.429 . S
C2164 C2156 1.574 . S
C2164 H2159 0.949 . S
C2164 C2170 1.368 . S
C2165 C2149 1.349 . S
C2165 H2157 0.950 . S
C2165 C2163 1.327 . S
C2166 C2154 1.349 . S
C2166 H2160 0.950 . S
C2166 C2167 1.327 . S
C2167 H2161 0.950 . S
C2167 C2166 1.327 . S
C2167 C2171 1.429 . S
C2168 C2151 1.574 . S
C2168 H2162 0.949 . S
C2168 C2172 1.368 . S
C2169 C2150 1.429 . S
C2169 C2163 1.429 . S
C2169 C2170 1.523 . S
C2170 C2151 1.368 . S
C2170 C2164 1.368 . S
C2170 C2169 1.523 . S
C2171 C2155 1.429 . S
C2171 C2167 1.429 . S
C2171 C2172 1.523 . S
C2172 C2156 1.368 . S
C2172 C2168 1.368 . S
C2172 C2171 1.523 . S
H2173 C2148 0.950 . S
H2174 C2150 0.950 . S
H2175 C2151 0.949 . S
H2176 C2153 0.950 . S
H2177 C2155 0.950 . S
C2178 C2179 1.349 . S
C2178 C2180 1.327 . S
C2178 H2203 0.950 . S
C2179 C2178 1.349 . S
C2179 C2195 1.349 . S
C2180 C2178 1.327 . S
C2180 C2199 1.429 . S
C2180 H2204 0.950 . S
C2181 C2198 1.574 . S
C2181 C2200 1.368 . S
C2181 H2205 0.949 . S
H2182 C2186 0.949 . S
C2183 C2184 1.349 . S
C2183 C2185 1.327 . S
C2183 H2206 0.950 . S
C2184 C2183 1.349 . S
C2184 C2196 1.349 . S
C2185 C2183 1.327 . S
C2185 C2201 1.429 . S
C2185 H2207 0.950 . S
C2186 H2182 0.949 . S
C2186 C2194 1.574 . S
C2186 C2202 1.368 . S
H2187 C2195 0.950 . S
H2188 C2193 0.950 . S
H2189 C2194 0.949 . S
H2190 C2196 0.950 . S
H2191 C2197 0.950 . S
H2192 C2198 0.949 . S
C2193 H2188 0.950 . S
C2193 C2195 1.327 . S
C2193 C2199 1.429 . S
C2194 C2186 1.574 . S
C2194 H2189 0.949 . S
C2194 C2200 1.368 . S
C2195 C2179 1.349 . S
C2195 H2187 0.950 . S
C2195 C2193 1.327 . S
C2196 C2184 1.349 . S
C2196 H2190 0.950 . S
C2196 C2197 1.327 . S
C2197 H2191 0.950 . S
C2197 C2196 1.327 . S
C2197 C2201 1.429 . S
C2198 C2181 1.574 . S
C2198 H2192 0.949 . S
C2198 C2202 1.368 . S
C2199 C2180 1.429 . S
C2199 C2193 1.429 . S
C2199 C2200 1.523 . S
C2200 C2181 1.368 . S
C2200 C2194 1.368 . S
C2200 C2199 1.523 . S
C2201 C2185 1.429 . S
C2201 C2197 1.429 . S
C2201 C2202 1.523 . S
C2202 C2186 1.368 . S
C2202 C2198 1.368 . S
C2202 C2201 1.523 . S
H2203 C2178 0.950 . S
H2204 C2180 0.950 . S
H2205 C2181 0.949 . S
H2206 C2183 0.950 . S
H2207 C2185 0.950 . S
C2208 C2209 1.349 . S
C2208 C2210 1.327 . S
C2208 H2233 0.950 . S
C2209 C2208 1.349 . S
C2209 C2225 1.349 . S
C2210 C2208 1.327 . S
C2210 C2229 1.429 . S
C2210 H2234 0.950 . S
C2211 C2228 1.574 . S
C2211 C2230 1.368 . S
C2211 H2235 0.949 . S
H2212 C2216 0.949 . S
C2213 C2214 1.349 . S
C2213 C2215 1.327 . S
C2213 H2236 0.950 . S
C2214 C2213 1.349 . S
C2214 C2226 1.349 . S
C2215 C2213 1.327 . S
C2215 C2231 1.429 . S
C2215 H2237 0.950 . S
C2216 H2212 0.949 . S
C2216 C2224 1.574 . S
C2216 C2232 1.368 . S
H2217 C2225 0.950 . S
H2218 C2223 0.950 . S
H2219 C2224 0.949 . S
H2220 C2226 0.950 . S
H2221 C2227 0.950 . S
H2222 C2228 0.949 . S
C2223 H2218 0.950 . S
C2223 C2225 1.327 . S
C2223 C2229 1.429 . S
C2224 C2216 1.574 . S
C2224 H2219 0.949 . S
C2224 C2230 1.368 . S
C2225 C2209 1.349 . S
C2225 H2217 0.950 . S
C2225 C2223 1.327 . S
C2226 C2214 1.349 . S
C2226 H2220 0.950 . S
C2226 C2227 1.327 . S
C2227 H2221 0.950 . S
C2227 C2226 1.327 . S
C2227 C2231 1.429 . S
C2228 C2211 1.574 . S
C2228 H2222 0.949 . S
C2228 C2232 1.368 . S
C2229 C2210 1.429 . S
C2229 C2223 1.429 . S
C2229 C2230 1.523 . S
C2230 C2211 1.368 . S
C2230 C2224 1.368 . S
C2230 C2229 1.523 . S
C2231 C2215 1.429 . S
C2231 C2227 1.429 . S
C2231 C2232 1.523 . S
C2232 C2216 1.368 . S
C2232 C2228 1.368 . S
C2232 C2231 1.523 . S
H2233 C2208 0.950 . S
H2234 C2210 0.950 . S
H2235 C2211 0.949 . S
H2236 C2213 0.950 . S
H2237 C2215 0.950 . S
C2238 C2239 1.349 . S
C2238 C2240 1.327 . S
C2238 H2263 0.950 . S
C2239 C2238 1.349 . S
C2239 C2255 1.349 . S
C2240 C2238 1.327 . S
C2240 C2259 1.429 . S
C2240 H2264 0.950 . S
C2241 C2258 1.574 . S
C2241 C2260 1.368 . S
C2241 H2265 0.949 . S
H2242 C2246 0.949 . S
C2243 C2244 1.349 . S
C2243 C2245 1.327 . S
C2243 H2266 0.950 . S
C2244 C2243 1.349 . S
C2244 C2256 1.349 . S
C2245 C2243 1.327 . S
C2245 C2261 1.429 . S
C2245 H2267 0.950 . S
C2246 H2242 0.949 . S
C2246 C2254 1.574 . S
C2246 C2262 1.368 . S
H2247 C2255 0.950 . S
H2248 C2253 0.950 . S
H2249 C2254 0.949 . S
H2250 C2256 0.950 . S
H2251 C2257 0.950 . S
H2252 C2258 0.949 . S
C2253 H2248 0.950 . S
C2253 C2255 1.327 . S
C2253 C2259 1.429 . S
C2254 C2246 1.574 . S
C2254 H2249 0.949 . S
C2254 C2260 1.368 . S
C2255 C2239 1.349 . S
C2255 H2247 0.950 . S
C2255 C2253 1.327 . S
C2256 C2244 1.349 . S
C2256 H2250 0.950 . S
C2256 C2257 1.327 . S
C2257 H2251 0.950 . S
C2257 C2256 1.327 . S
C2257 C2261 1.429 . S
C2258 C2241 1.574 . S
C2258 H2252 0.949 . S
C2258 C2262 1.368 . S
C2259 C2240 1.429 . S
C2259 C2253 1.429 . S
C2259 C2260 1.523 . S
C2260 C2241 1.368 . S
C2260 C2254 1.368 . S
C2260 C2259 1.523 . S
C2261 C2245 1.429 . S
C2261 C2257 1.429 . S
C2261 C2262 1.523 . S
C2262 C2246 1.368 . S
C2262 C2258 1.368 . S
C2262 C2261 1.523 . S
H2263 C2238 0.950 . S
H2264 C2240 0.950 . S
H2265 C2241 0.949 . S
H2266 C2243 0.950 . S
H2267 C2245 0.950 . S
C2268 C2269 1.349 . S
C2268 C2270 1.327 . S
C2268 H2293 0.950 . S
C2269 C2268 1.349 . S
C2269 C2285 1.349 . S
C2270 C2268 1.327 . S
C2270 C2289 1.429 . S
C2270 H2294 0.950 . S
C2271 C2288 1.574 . S
C2271 C2290 1.368 . S
C2271 H2295 0.949 . S
H2272 C2276 0.949 . S
C2273 C2274 1.349 . S
C2273 C2275 1.327 . S
C2273 H2296 0.950 . S
C2274 C2273 1.349 . S
C2274 C2286 1.349 . S
C2275 C2273 1.327 . S
C2275 C2291 1.429 . S
C2275 H2297 0.950 . S
C2276 H2272 0.949 . S
C2276 C2284 1.574 . S
C2276 C2292 1.368 . S
H2277 C2285 0.950 . S
H2278 C2283 0.950 . S
H2279 C2284 0.949 . S
H2280 C2286 0.950 . S
H2281 C2287 0.950 . S
H2282 C2288 0.949 . S
C2283 H2278 0.950 . S
C2283 C2285 1.327 . S
C2283 C2289 1.429 . S
C2284 C2276 1.574 . S
C2284 H2279 0.949 . S
C2284 C2290 1.368 . S
C2285 C2269 1.349 . S
C2285 H2277 0.950 . S
C2285 C2283 1.327 . S
C2286 C2274 1.349 . S
C2286 H2280 0.950 . S
C2286 C2287 1.327 . S
C2287 H2281 0.950 . S
C2287 C2286 1.327 . S
C2287 C2291 1.429 . S
C2288 C2271 1.574 . S
C2288 H2282 0.949 . S
C2288 C2292 1.368 . S
C2289 C2270 1.429 . S
C2289 C2283 1.429 . S
C2289 C2290 1.523 . S
C2290 C2271 1.368 . S
C2290 C2284 1.368 . S
C2290 C2289 1.523 . S
C2291 C2275 1.429 . S
C2291 C2287 1.429 . S
C2291 C2292 1.523 . S
C2292 C2276 1.368 . S
C2292 C2288 1.368 . S
C2292 C2291 1.523 . S
H2293 C2268 0.950 . S
H2294 C2270 0.950 . S
H2295 C2271 0.949 . S
H2296 C2273 0.950 . S
H2297 C2275 0.950 . S
C864 C683 1.399 . S
C859 C74 1.350 . S
C894 C673 0.475 . S
C889 C142 0.791 . S
C924 C674 0.943 . S
C919 C231 0.912 . S
C949 C322 1.434 . S
C954 C696 1.539 . S
C979 C406 0.791 . S
C984 C699 0.475 . S
C1014 C682 0.943 . S
C1009 C494 0.912 . S
C1039 C562 1.434 . S
C1044 C672 1.539 . S
C1069 C651 1.350 . S
C1074 C690 1.399 . S
C1104 C703 1.569 . S
C1099 C58 1.486 . S
C1129 C151 1.439 . S
C1134 C752 1.429 . S
C1164 C730 2.655 . S
C1159 C224 2.555 . S
C1194 C744 0.862 . S
C1189 C315 0.861 . S
C1219 C399 0.859 . S
C1224 C705 0.860 . S
C1254 C758 1.562 . S
C1249 C478 1.499 . S
C1279 C571 1.396 . S
C1284 C714 1.421 . S
C1309 C644 2.547 . S
C1314 C735 2.629 . S
C1339 C67 2.547 . S
C1344 C761 2.629 . S
C1369 C392 1.439 . S
C1374 C745 1.430 . S
C1404 C704 2.655 . S
C1399 C487 2.555 . S
C1434 C736 0.861 . S
C1429 C578 0.861 . S
C1459 C658 1.486 . S
C1464 C727 1.569 . S
C1489 C238 1.499 . S
C1494 C734 1.561 . S
C1524 C721 1.420 . S
C1519 C308 1.395 . S
C1549 C158 0.859 . S
C1554 C713 0.859 . S
C1579 C662 1.350 . S
C1584 C776 1.400 . S
C1609 C394 0.791 . S
C1614 C766 0.475 . S
C1644 C767 0.943 . S
C1639 C483 0.912 . S
C1674 C789 1.539 . S
C1669 C574 1.434 . S
C1699 C154 0.791 . S
C1704 C792 0.474 . S
C1734 C775 0.943 . S
C1729 C242 0.912 . S
C1759 C310 1.434 . S
C1764 C765 1.539 . S
C1789 C63 1.349 . S
C1794 C783 1.399 . S
C1819 C646 1.486 . S
C1824 C796 1.569 . S
C1854 C845 1.430 . S
C1849 C403 1.439 . S
C1879 C476 2.555 . S
C1884 C823 2.655 . S
C1909 C567 0.861 . S
C1914 C837 0.862 . S
C1944 C798 0.859 . S
C1939 C147 0.859 . S
C1969 C226 1.499 . S
C1974 C851 1.562 . S
C2004 C807 1.420 . S
C1999 C319 1.395 . S
C2034 C828 2.629 . S
C2029 C56 2.547 . S
C2064 C854 2.629 . S
C2059 C655 2.547 . S
C2089 C140 1.439 . S
C2094 C838 1.430 . S
C2119 C235 2.555 . S
C2124 C797 2.655 . S
C2154 C829 0.861 . S
C2149 C326 0.861 . S
C2179 C70 1.486 . S
C2184 C820 1.569 . S
C2209 C490 1.499 . S
C2214 C827 1.562 . S
C2244 C814 1.420 . S
C2239 C560 1.396 . S
C2274 C806 0.860 . S
C2269 C410 0.859 . S
