# Generated by pormake.
# Topology hwx, (6,3)-cn, num edge types: 1
# Building blocks:
#     Node 0, Type 0, BuildingBlock: IZENUY_clean_sbu_0, # of connection points: 6
#     Node 1, Type 0, BuildingBlock: IZENUY_clean_sbu_0, # of connection points: 6
#     Node 2, Type 0, BuildingBlock: IZENUY_clean_sbu_0, # of connection points: 6
#     Node 3, Type 0, BuildingBlock: IZENUY_clean_sbu_0, # of connection points: 6
#     Node 4, Type 1, BuildingBlock: WUSLED_clean_sbu_0, # of connection points: 3
#     Node 5, Type 1, BuildingBlock: WUSLED_clean_sbu_0, # of connection points: 3
#     Node 6, Type 1, BuildingBlock: WUSLED_clean_sbu_0, # of connection points: 3
#     Node 7, Type 1, BuildingBlock: WUSLED_clean_sbu_0, # of connection points: 3
#     Node 8, Type 1, BuildingBlock: WUSLED_clean_sbu_0, # of connection points: 3
#     Node 9, Type 1, BuildingBlock: WUSLED_clean_sbu_0, # of connection points: 3
#     Node 10, Type 1, BuildingBlock: WUSLED_clean_sbu_0, # of connection points: 3
#     Node 11, Type 1, BuildingBlock: WUSLED_clean_sbu_0, # of connection points: 3
#     Edge 12, Type (0, 1), BuildingBlock: TEMPAE_clean_linker_10, # of connection points: 2
#     Edge 13, Type (0, 1), BuildingBlock: TEMPAE_clean_linker_10, # of connection points: 2
#     Edge 14, Type (0, 1), BuildingBlock: TEMPAE_clean_linker_10, # of connection points: 2
#     Edge 15, Type (0, 1), BuildingBlock: TEMPAE_clean_linker_10, # of connection points: 2
#     Edge 16, Type (0, 1), BuildingBlock: TEMPAE_clean_linker_10, # of connection points: 2
#     Edge 17, Type (0, 1), BuildingBlock: TEMPAE_clean_linker_10, # of connection points: 2
#     Edge 18, Type (0, 1), BuildingBlock: TEMPAE_clean_linker_10, # of connection points: 2
#     Edge 19, Type (0, 1), BuildingBlock: TEMPAE_clean_linker_10, # of connection points: 2
#     Edge 20, Type (0, 1), BuildingBlock: TEMPAE_clean_linker_10, # of connection points: 2
#     Edge 21, Type (0, 1), BuildingBlock: TEMPAE_clean_linker_10, # of connection points: 2
#     Edge 22, Type (0, 1), BuildingBlock: TEMPAE_clean_linker_10, # of connection points: 2
#     Edge 23, Type (0, 1), BuildingBlock: TEMPAE_clean_linker_10, # of connection points: 2
#     Edge 24, Type (0, 1), BuildingBlock: TEMPAE_clean_linker_10, # of connection points: 2
#     Edge 25, Type (0, 1), BuildingBlock: TEMPAE_clean_linker_10, # of connection points: 2
#     Edge 26, Type (0, 1), BuildingBlock: TEMPAE_clean_linker_10, # of connection points: 2
#     Edge 27, Type (0, 1), BuildingBlock: TEMPAE_clean_linker_10, # of connection points: 2
#     Edge 28, Type (0, 1), BuildingBlock: TEMPAE_clean_linker_10, # of connection points: 2
#     Edge 29, Type (0, 1), BuildingBlock: TEMPAE_clean_linker_10, # of connection points: 2
#     Edge 30, Type (0, 1), BuildingBlock: TEMPAE_clean_linker_10, # of connection points: 2
#     Edge 31, Type (0, 1), BuildingBlock: TEMPAE_clean_linker_10, # of connection points: 2
#     Edge 32, Type (0, 1), BuildingBlock: TEMPAE_clean_linker_10, # of connection points: 2
#     Edge 33, Type (0, 1), BuildingBlock: TEMPAE_clean_linker_10, # of connection points: 2
#     Edge 34, Type (0, 1), BuildingBlock: TEMPAE_clean_linker_10, # of connection points: 2
#     Edge 35, Type (0, 1), BuildingBlock: TEMPAE_clean_linker_10, # of connection points: 2
# Relax obj value: 0.048
# Max RMSD: 0.074
# Mean RMSD: 0.065
data_MOF--net-hwx--node1-IZENUY_clean_sbu_0--node2-WUSLED_clean_sbu_0--edge1-TEMPAE_clean_linker_10
_symmetry_space_group_name_H-M    P1
_symmetry_Int_Tables_number       1
_symmetry_cell_setting            triclinic
loop_
_symmetry_equiv_pos_as_xyz
'x, y, z'
_cell_length_a     61.612487
_cell_length_b     61.172861
_cell_length_c     29.4883
_cell_angle_alpha  90.500026
_cell_angle_beta   90.474811
_cell_angle_gamma 90.022621
loop_
_atom_site_label
_atom_site_type_symbol
_atom_site_fract_x
_atom_site_fract_y
_atom_site_fract_z
_atom_type_partial_charge
Fe0 Fe 0.24723 0.23017 0.07877 0.0
Fe1 Fe 0.24839 0.23194 0.9751 0.0
O2 O 0.24078 0.21836 0.0253 0.0
Fe3 Fe 0.22674 0.1931 0.02196 0.0
O4 O 0.21062 0.19792 0.07339 0.0
O5 O 0.21887 0.23154 0.09412 0.0
O6 O 0.2446 0.25862 0.05959 0.0
C7 C 0.23454 0.26658 0.02588 0.0
C8 C 0.25456 0.18485 0.09242 0.0
O9 O 0.23219 0.2556 0.98982 0.0
C10 C 0.25792 0.18988 0.95154 0.0
O11 O 0.27604 0.22956 0.06686 0.0
O12 O 0.27317 0.24419 0.99942 0.0
O13 O 0.24787 0.17924 0.05353 0.0
O14 O 0.251 0.20392 0.10775 0.0
C15 C 0.20682 0.21477 0.95262 0.0
O16 O 0.26494 0.2091 0.95705 0.0
O17 O 0.24045 0.18378 0.97008 0.0
C18 C 0.28463 0.23869 0.03329 0.0
O19 O 0.22516 0.22219 0.94138 0.0
O20 O 0.20451 0.20508 0.98985 0.0
C21 C 0.20613 0.21541 0.09471 0.0
Fe22 Fe 0.2687 0.72832 0.5689 0.0
Fe23 Fe 0.29231 0.69234 0.51552 0.0
O24 O 0.27787 0.71739 0.51673 0.0
Fe25 Fe 0.27265 0.73153 0.46566 0.0
O26 O 0.27388 0.75891 0.49145 0.0
O27 O 0.28441 0.75313 0.56157 0.0
O28 O 0.29158 0.71782 0.60231 0.0
C29 C 0.31037 0.71151 0.59096 0.0
C30 C 0.23378 0.73676 0.50832 0.0
O31 O 0.31362 0.70328 0.5522 0.0
C32 C 0.26633 0.68714 0.44075 0.0
O33 O 0.25245 0.70426 0.57995 0.0
O34 O 0.27795 0.68042 0.56377 0.0
O35 O 0.24357 0.72982 0.47366 0.0
O36 O 0.24406 0.74075 0.54487 0.0
C37 C 0.3142 0.71817 0.45061 0.0
O38 O 0.27193 0.67973 0.47888 0.0
O39 O 0.27042 0.70675 0.43044 0.0
C40 C 0.25991 0.68508 0.5818 0.0
O41 O 0.30933 0.69973 0.46698 0.0
O42 O 0.3014 0.73416 0.45434 0.0
C43 C 0.28275 0.76558 0.52787 0.0
Fe44 Fe 0.77141 0.81227 0.9588 0.0
Fe45 Fe 0.77162 0.8093 0.06255 0.0
O46 O 0.77839 0.82348 0.01258 0.0
Fe47 Fe 0.79211 0.8489 0.01652 0.0
O48 O 0.77942 0.86041 0.9654 0.0
O49 O 0.75514 0.83597 0.94453 0.0
O50 O 0.74624 0.79927 0.97803 0.0
C51 C 0.73459 0.80303 1.01244 0.0
C52 C 0.81348 0.82988 0.94548 0.0
O53 O 0.74293 0.81032 0.04873 0.0
C54 C 0.81198 0.82381 0.08619 0.0
O55 O 0.78717 0.78775 0.96916 0.0
O56 O 0.77457 0.78194 0.03746 0.0
O57 O 0.81492 0.83838 0.98455 0.0
O58 O 0.79536 0.82325 0.93003 0.0
C59 C 0.76348 0.85358 0.08598 0.0
O60 O 0.79987 0.80744 0.07969 0.0
O61 O 0.80736 0.84204 0.0684 0.0
C62 C 0.78473 0.77542 1.00276 0.0
O63 O 0.7675 0.83403 0.09694 0.0
O64 O 0.77015 0.86109 0.04887 0.0
C65 C 0.76216 0.85533 0.94413 0.0
Fe66 Fe 0.72639 0.34628 0.52559 0.0
Fe67 Fe 0.74794 0.30772 0.57455 0.0
O68 O 0.74146 0.3216 0.52373 0.0
Fe69 Fe 0.75005 0.31066 0.471 0.0
O70 O 0.7657 0.33498 0.45859 0.0
O71 O 0.7401 0.35847 0.47686 0.0
O72 O 0.74667 0.35959 0.56129 0.0
C73 C 0.75345 0.35232 0.59869 0.0
C74 C 0.70791 0.32672 0.45101 0.0
O75 O 0.75039 0.33257 0.60929 0.0
C76 C 0.73723 0.27335 0.51343 0.0
O77 O 0.71005 0.33849 0.57474 0.0
O78 O 0.71954 0.30454 0.58864 0.0
O79 O 0.72665 0.32075 0.43877 0.0
O80 O 0.70496 0.33485 0.48992 0.0
C81 C 0.78605 0.30279 0.52911 0.0
O82 O 0.74666 0.28024 0.5491 0.0
O83 O 0.73481 0.28568 0.47971 0.0
C84 C 0.70618 0.32006 0.59227 0.0
O85 O 0.77678 0.31004 0.56409 0.0
O86 O 0.77518 0.29852 0.49347 0.0
C87 C 0.75795 0.35407 0.45774 0.0
C88 C 0.19925 0.54617 0.87978 0.0
C89 C 0.19991 0.56849 0.89103 0.0
C90 C 0.20604 0.57756 0.81191 0.0
C91 C 0.20324 0.58405 0.85739 0.0
C92 C 0.20475 0.55518 0.80069 0.0
C93 C 0.20142 0.53961 0.83442 0.0
U94 U 0.19885 0.53247 1.00438 0.0
O95 O 0.18069 0.50779 0.04273 0.0
O96 O 0.21633 0.50729 0.04255 0.0
C97 C 0.19843 0.49726 0.05453 0.0
C98 C 0.19778 0.52971 0.91559 0.0
C99 C 0.19823 0.47353 0.04661 0.0
C100 C 0.20554 0.44193 0.99872 0.0
C101 C 0.20416 0.46461 1.0045 0.0
C102 C 0.19431 0.43694 0.07654 0.0
C103 C 0.2009 0.42786 0.03487 0.0
C104 C 0.19304 0.45959 0.08233 0.0
C105 C 0.20442 0.57894 0.0906 0.0
C106 C 0.21879 0.5747 0.16701 0.0
C107 C 0.20129 0.60857 0.14541 0.0
C108 C 0.1974 0.60005 0.10197 0.0
C109 C 0.21241 0.59614 0.17809 0.0
C110 C 0.21472 0.56612 0.12368 0.0
C111 C 0.20192 0.57098 0.04366 0.0
O112 O 0.21563 0.52737 0.93973 0.0
O113 O 0.18018 0.53055 0.94046 0.0
O114 O 0.1832 0.5618 0.03336 0.0
O115 O 0.21867 0.56024 0.02748 0.0
H116 H 0.19831 0.57382 0.92599 0.0
H117 H 0.20388 0.60116 0.86706 0.0
H118 H 0.20708 0.54963 0.7661 0.0
H119 H 0.20109 0.52242 0.82525 0.0
H120 H 0.21042 0.43541 0.9661 0.0
H121 H 0.20812 0.47518 0.97646 0.0
H122 H 0.19086 0.42655 0.10515 0.0
H123 H 0.18848 0.46624 0.11507 0.0
H124 H 0.22722 0.56471 0.19167 0.0
H125 H 0.19638 0.62521 0.15285 0.0
H126 H 0.18941 0.61015 0.07687 0.0
H127 H 0.2201 0.54968 0.11565 0.0
C128 C 0.96768 0.81708 0.65447 0.0
C129 C 0.94685 0.82519 0.645 0.0
C130 C 0.93774 0.82367 0.7251 0.0
C131 C 0.93203 0.8285 0.67999 0.0
C132 C 0.95878 0.81585 0.73447 0.0
C133 C 0.97363 0.81259 0.69938 0.0
U134 U 0.97726 0.8109 0.52898 0.0
O135 O 1.00461 0.81997 0.48566 0.0
O136 O 0.99469 0.78556 0.49025 0.0
C137 C 1.00914 0.79951 0.47534 0.0
C138 C 0.98266 0.81216 0.61728 0.0
C139 C 0.03198 0.79283 0.4807 0.0
C140 C 0.06749 0.79646 0.5166 0.0
C141 C 0.04576 0.80286 0.51289 0.0
C142 C 0.06182 0.76958 0.45683 0.0
C143 C 0.07574 0.77976 0.48856 0.0
C144 C 0.04016 0.77612 0.45286 0.0
C145 C 0.9289 0.82151 0.44958 0.0
C146 C 0.92431 0.80761 0.37261 0.0
C147 C 0.90164 0.83722 0.39978 0.0
C148 C 0.91231 0.83668 0.44171 0.0
C149 C 0.90727 0.82248 0.36491 0.0
C150 C 0.93509 0.80717 0.41456 0.0
C151 C 0.93904 0.82057 0.49486 0.0
O152 O 0.97812 0.79413 0.5946 0.0
O153 O 0.98731 0.8287 0.59087 0.0
O154 O 0.95403 0.83535 0.50349 0.0
O155 O 0.94424 0.80097 0.50934 0.0
H156 H 0.94192 0.82854 0.61039 0.0
H157 H 0.91588 0.83421 0.6715 0.0
H158 H 0.96372 0.81215 0.7689 0.0
H159 H 0.98963 0.80624 0.70722 0.0
H160 H 0.0778 0.80442 0.54168 0.0
H161 H 0.03976 0.81567 0.53508 0.0
H162 H 0.06778 0.7568 0.43452 0.0
H163 H 0.02979 0.76818 0.42783 0.0
H164 H 0.92896 0.79592 0.34666 0.0
H165 H 0.8889 0.84918 0.39473 0.0
H166 H 0.90744 0.84798 0.46824 0.0
H167 H 0.94797 0.7954 0.41987 0.0
C168 C 0.8076 0.49932 0.16343 0.0
C169 C 0.82419 0.4846 0.17556 0.0
C170 C 0.80095 0.46837 0.23254 0.0
C171 C 0.8209 0.46933 0.2099 0.0
C172 C 0.78466 0.48351 0.22138 0.0
C173 C 0.788 0.49889 0.18742 0.0
U174 U 0.81046 0.50937 0.03665 0.0
O175 O 0.79404 0.53339 0.99364 0.0
O176 O 0.82967 0.5326 0.99652 0.0
C177 C 0.81226 0.54303 0.98235 0.0
C178 C 0.81004 0.51456 0.12498 0.0
C179 C 0.81258 0.567 0.98761 0.0
C180 C 0.79907 0.60031 0.02289 0.0
C181 C 0.80003 0.57751 0.02086 0.0
C182 C 0.82403 0.60248 0.96 0.0
C183 C 0.81084 0.61301 0.99211 0.0
C184 C 0.82479 0.57964 0.95764 0.0
C185 C 0.80447 0.45954 0.95829 0.0
C186 C 0.806 0.46142 0.87607 0.0
C187 C 0.79111 0.42935 0.9122 0.0
C188 C 0.79522 0.4387 0.95471 0.0
C189 C 0.79621 0.4407 0.87243 0.0
C190 C 0.80998 0.47086 0.91878 0.0
C191 C 0.8068 0.46962 1.00339 0.0
O192 O 0.82808 0.51311 0.10154 0.0
O193 O 0.79269 0.51683 0.0992 0.0
O194 O 0.79013 0.48145 0.0162 0.0
O195 O 0.82562 0.47879 0.01293 0.0
H196 H 0.83955 0.48455 0.15799 0.0
H197 H 0.83371 0.45782 0.21777 0.0
H198 H 0.76925 0.48336 0.23879 0.0
H199 H 0.77504 0.5102 0.17927 0.0
H200 H 0.78901 0.60804 0.04835 0.0
H201 H 0.79063 0.56811 0.0447 0.0
H202 H 0.83318 0.61189 0.93577 0.0
H203 H 0.83458 0.57183 0.9318 0.0
H204 H 0.80999 0.47055 0.84594 0.0
H205 H 0.78382 0.41324 0.9104 0.0
H206 H 0.79081 0.42978 0.98488 0.0
H207 H 0.81695 0.48711 0.92099 0.0
C208 C 0.05317 0.22455 0.39132 0.0
C209 C 0.07035 0.20962 0.39559 0.0
C210 C 0.08457 0.22077 0.32246 0.0
C211 C 0.08581 0.20765 0.36138 0.0
C212 C 0.06717 0.23555 0.31818 0.0
C213 C 0.05161 0.23738 0.3523 0.0
U214 U 0.04107 0.22415 0.51671 0.0
O215 O 0.02309 0.24727 0.55966 0.0
O216 O 0.01257 0.21303 0.55471 0.0
C217 C 1.00818 0.23279 0.56988 0.0
C218 C 0.03762 0.22775 0.42843 0.0
C219 C 0.98562 0.23996 0.56366 0.0
C220 C 0.95707 0.25617 0.51766 0.0
C221 C 0.97856 0.24915 0.52267 0.0
C222 C 0.94946 0.24457 0.5943 0.0
C223 C 0.94229 0.25397 0.55347 0.0
C224 C 0.97095 0.23766 0.59933 0.0
C225 C 0.08752 0.20931 0.59738 0.0
C226 C 0.08442 0.2119 0.67933 0.0
C227 C 0.11856 0.20124 0.64541 0.0
C228 C 0.10921 0.20294 0.60231 0.0
C229 C 0.10635 0.20589 0.68446 0.0
C230 C 0.07507 0.21359 0.63607 0.0
C231 C 0.07854 0.21238 0.55166 0.0
O232 O 0.03201 0.21002 0.45038 0.0
O233 O 0.04192 0.24442 0.45544 0.0
O234 O 0.07373 0.23268 0.54141 0.0
O235 O 0.06357 0.19829 0.53865 0.0
H236 H 0.07198 0.19966 0.42563 0.0
H237 H 0.09877 0.19587 0.36555 0.0
H238 H 0.06587 0.24613 0.28904 0.0
H239 H 0.03858 0.24915 0.34864 0.0
H240 H 0.95196 0.26312 0.48565 0.0
H241 H 0.98967 0.25092 0.49465 0.0
H242 H 0.93853 0.24286 0.62263 0.0
H243 H 0.97616 0.23061 0.63119 0.0
H244 H 0.07454 0.21541 0.70872 0.0
H245 H 0.13558 0.19696 0.64804 0.0
H246 H 0.11907 0.19971 0.57273 0.0
H247 H 0.05825 0.21855 0.63274 0.0
C248 C 0.70132 0.99459 0.6443 0.0
C249 C 0.70168 0.97226 0.63309 0.0
C250 C 0.70824 0.96313 0.71224 0.0
C251 C 0.70509 0.95667 0.66675 0.0
C252 C 0.70717 0.98552 0.72347 0.0
C253 C 0.70379 1.00112 0.6897 0.0
U254 U 0.70002 1.00775 0.51962 0.0
O255 O 0.68278 0.03288 0.48038 0.0
O256 O 0.71841 0.03184 0.48063 0.0
C257 C 0.70087 0.04236 0.46768 0.0
C258 C 0.70004 1.01103 0.60836 0.0
C259 C 0.70186 0.06621 0.47304 0.0
C260 C 0.70028 0.09913 0.51954 0.0
C261 C 0.69819 0.07642 0.51507 0.0
C262 C 0.70959 0.10151 0.44001 0.0
C263 C 0.70625 0.11187 0.48211 0.0
C264 C 0.70739 0.07888 0.43556 0.0
C265 C 0.7028 0.9611 0.43415 0.0
C266 C 0.71567 0.96587 0.35721 0.0
C267 C 0.6993 0.93156 0.37913 0.0
C268 C 0.69602 0.93987 0.42285 0.0
C269 C 0.70956 0.94433 0.34615 0.0
C270 C 0.7122 0.97424 0.4008 0.0
C271 C 0.70103 0.96897 0.4812 0.0
O272 O 0.71769 1.0126 0.5839 0.0
O273 O 0.68213 1.01082 0.58375 0.0
O274 O 0.68283 0.97898 0.4915 0.0
O275 O 0.71837 0.97896 0.49729 0.0
H276 H 0.69985 0.96694 0.59811 0.0
H277 H 0.70555 0.93955 0.65709 0.0
H278 H 0.70976 0.99104 0.75809 0.0
H279 H 0.7037 0.01831 0.69885 0.0
H280 H 0.6978 0.10666 0.55247 0.0
H281 H 0.69404 0.06681 0.54445 0.0
H282 H 0.71394 0.11091 0.41048 0.0
H283 H 0.71028 0.07123 0.40288 0.0
H284 H 0.72344 0.97612 0.33233 0.0
H285 H 0.69462 0.91482 0.37168 0.0
H286 H 0.68872 0.92953 0.44818 0.0
H287 H 0.71738 0.99077 0.40882 0.0
C288 C 0.55481 0.30802 0.89145 0.0
C289 C 0.577 0.30654 0.90198 0.0
C290 C 0.58609 0.31098 0.82234 0.0
C291 C 0.59247 0.30789 0.86778 0.0
C292 C 0.56378 0.31258 0.81203 0.0
C293 C 0.54828 0.31109 0.84633 0.0
U294 U 0.54152 0.31178 0.01577 0.0
O295 O 0.51337 0.32535 0.05188 0.0
O296 O 0.52199 0.29074 0.05952 0.0
C297 C 0.50785 0.30626 0.06839 0.0
C298 C 0.53857 0.30661 0.92758 0.0
C299 C 0.48498 0.30009 0.06235 0.0
C300 C 0.45561 0.28495 0.01648 0.0
C301 C 0.47731 0.29141 0.02104 0.0
C302 C 0.44903 0.29615 0.09421 0.0
C303 C 0.44125 0.28719 0.0531 0.0
C304 C 0.47072 0.30252 0.09876 0.0
C305 C 0.588 0.32578 0.09745 0.0
C306 C 0.58485 0.32314 0.1793 0.0
C307 C 0.61825 0.3362 0.14609 0.0
C308 C 0.60917 0.33372 0.10282 0.0
C309 C 0.60628 0.33074 0.18484 0.0
C310 C 0.57576 0.32072 0.13588 0.0
C311 C 0.57931 0.32213 0.05154 0.0
O312 O 0.54129 0.29027 0.95572 0.0
O313 O 0.53417 0.32519 0.94826 0.0
O314 O 0.56531 0.33676 0.03709 0.0
O315 O 0.57343 0.30193 0.04218 0.0
H316 H 0.58237 0.30426 0.93671 0.0
H317 H 0.60945 0.30625 0.87694 0.0
H318 H 0.5583 0.31527 0.77754 0.0
H319 H 0.53121 0.31242 0.83767 0.0
H320 H 0.45003 0.27834 0.98424 0.0
H321 H 0.48814 0.28951 0.9925 0.0
H322 H 0.43845 0.29785 0.12318 0.0
H323 H 0.47642 0.30915 0.13091 0.0
H324 H 0.57518 0.31897 0.20848 0.0
H325 H 0.6349 0.34173 0.14908 0.0
H326 H 0.61885 0.33763 0.07345 0.0
H327 H 0.55932 0.31461 0.13223 0.0
C328 C 0.31087 0.04234 0.38965 0.0
C329 C 0.3024 0.06301 0.40049 0.0
C330 C 0.30264 0.07302 0.32092 0.0
C331 C 0.29823 0.07816 0.36644 0.0
C332 C 0.31183 0.05257 0.31025 0.0
C333 C 0.31581 0.03728 0.34444 0.0
U334 U 0.31291 0.03044 0.51394 0.0
O335 O 0.29641 1.0057 0.5547 0.0
O336 O 0.33202 1.00752 0.55536 0.0
C337 C 0.31468 0.99686 0.56867 0.0
C338 C 0.3137 0.02603 0.42552 0.0
C339 C 0.31548 0.97294 0.56524 0.0
C340 C 0.31868 0.93943 0.52102 0.0
C341 C 0.3197 0.96227 0.52393 0.0
C342 C 0.30949 0.93785 0.60071 0.0
C343 C 0.31322 0.92703 0.55926 0.0
C344 C 0.31064 0.9606 0.60363 0.0
C345 C 0.30523 0.07929 0.59467 0.0
C346 C 0.28285 0.08662 0.66067 0.0
C347 C 0.31848 0.10311 0.65541 0.0
C348 C 0.32151 0.09275 0.61345 0.0
C349 C 0.29896 0.1004 0.67903 0.0
C350 C 0.28594 0.07614 0.619 0.0
C351 C 0.30802 0.06968 0.54886 0.0
O352 O 0.33142 0.02815 0.45037 0.0
O353 O 0.29623 0.02264 0.44977 0.0
O354 O 0.29182 0.05778 0.5331 0.0
O355 O 0.32716 0.06121 0.53994 0.0
H356 H 0.29865 0.06729 0.43529 0.0
H357 H 0.29143 0.0939 0.37566 0.0
H358 H 0.31531 0.0482 0.27539 0.0
H359 H 0.32239 0.0214 0.33553 0.0
H360 H 0.32144 0.93152 0.48857 0.0
H361 H 0.3233 0.97161 0.49386 0.0
H362 H 0.30549 0.92871 0.63081 0.0
H363 H 0.3073 0.96862 0.63574 0.0
H364 H 0.26774 0.0841 0.67842 0.0
H365 H 0.33108 0.1138 0.66867 0.0
H366 H 0.33645 0.0956 0.59527 0.0
H367 H 0.27303 0.06588 0.60564 0.0
C368 C 0.46525 0.73192 0.15112 0.0
C369 C 0.4476 0.71757 0.14624 0.0
C370 C 0.43422 0.72847 0.22063 0.0
C371 C 0.43232 0.71575 0.18076 0.0
C372 C 0.45208 0.7427 0.22545 0.0
C373 C 0.46745 0.74438 0.19099 0.0
U374 U 0.47751 0.73056 0.02559 0.0
O375 O 0.49563 0.75368 0.98341 0.0
O376 O 0.5061 0.71945 0.98778 0.0
C377 C 0.51062 0.7392 0.97332 0.0
C378 C 0.48072 0.73488 0.11393 0.0
C379 C 0.53312 0.74648 0.98053 0.0
C380 C 0.56499 0.75091 0.02881 0.0
C381 C 0.54348 0.74409 0.02277 0.0
C382 C 0.56582 0.76293 0.95073 0.0
C383 C 0.5764 0.7604 0.99281 0.0
C384 C 0.54437 0.756 0.94467 0.0
C385 C 0.43146 0.71449 0.94409 0.0
C386 C 0.43362 0.71844 0.86231 0.0
C387 C 0.4015 0.70269 0.89597 0.0
C388 C 0.41083 0.70519 0.93902 0.0
C389 C 0.41268 0.70949 0.85711 0.0
C390 C 0.44296 0.72089 0.90551 0.0
C391 C 0.44029 0.71817 0.98991 0.0
O392 O 0.48642 0.71699 0.09201 0.0
O393 O 0.47628 0.75127 0.08691 0.0
O394 O 0.44491 0.7386 1.00016 0.0
O395 O 0.45529 0.70432 1.00326 0.0
H396 H 0.4455 0.70791 0.11554 0.0
H397 H 0.41898 0.70439 0.17614 0.0
H398 H 0.4539 0.75295 0.25535 0.0
H399 H 0.48086 0.75571 0.19514 0.0
H400 H 0.57265 0.74895 0.06172 0.0
H401 H 0.53494 0.73692 0.05098 0.0
H402 H 0.57425 0.76995 0.92224 0.0
H403 H 0.5366 0.75797 0.91186 0.0
H404 H 0.4427 0.72366 0.83304 0.0
H405 H 0.38523 0.69608 0.89329 0.0
H406 H 0.40172 0.70024 0.9685 0.0
H407 H 0.45898 0.72807 0.90891 0.0
C408 C 0.17604 0.19687 0.13625 0.0
C409 C 0.18697 0.21616 0.12478 0.0
C410 C 0.15872 0.19722 0.16689 0.0
C411 C 0.15198 0.21736 0.18612 0.0
C412 C 0.16251 0.23696 0.17366 0.0
C413 C 0.17994 0.23611 0.14333 0.0
C414 C 0.14801 0.17595 0.17963 0.0
C415 C 0.15564 0.2588 0.19303 0.0
C416 C 0.0964 0.22095 0.24096 0.0
C417 C 0.10174 0.21951 0.28723 0.0
C418 C 0.11256 0.22024 0.20763 0.0
C419 C 0.13457 0.21785 0.22082 0.0
C420 C 0.14006 0.21618 0.26736 0.0
C421 C 0.12362 0.21715 0.29995 0.0
C422 C 0.1061 0.22216 0.15832 0.0
C423 C 0.16334 0.21354 0.2828 0.0
H424 H 0.18137 0.18137 0.12216 0.0
H425 H 0.18816 0.25112 0.13437 0.0
H426 H 0.1505 0.17294 0.21636 0.0
H427 H 0.13025 0.1769 0.17351 0.0
H428 H 0.15456 0.1618 0.16027 0.0
H429 H 0.16471 0.27263 0.17801 0.0
H430 H 0.13803 0.26139 0.18704 0.0
H431 H 0.15837 0.25904 0.23026 0.0
H432 H 0.07954 0.22248 0.23073 0.0
H433 H 0.12799 0.21643 0.33558 0.0
H434 H 0.1115 0.20747 0.13922 0.0
H435 H 0.11426 0.23649 0.14315 0.0
H436 H 0.08828 0.22399 0.15368 0.0
H437 H 0.1706 0.19891 0.26641 0.0
H438 H 0.16483 0.21183 0.32017 0.0
H439 H 0.17302 0.22791 0.27231 0.0
C440 C 0.23063 0.67418 0.63593 0.0
C441 C 0.24917 0.66869 0.61092 0.0
C442 C 0.22166 0.65943 0.66688 0.0
C443 C 0.23146 0.63872 0.67297 0.0
C444 C 0.24962 0.63275 0.6465 0.0
C445 C 0.25822 0.64778 0.6158 0.0
C446 C 0.20221 0.66633 0.69431 0.0
C447 C 0.26051 0.6108 0.65188 0.0
C448 C 0.22682 0.61035 0.78638 0.0
C449 C 0.21149 0.59394 0.7768 0.0
C450 C 0.23306 0.62529 0.75315 0.0
C451 C 0.22378 0.62384 0.70915 0.0
C452 C 0.20798 0.60761 0.69943 0.0
C453 C 0.20205 0.59281 0.73336 0.0
C454 C 0.25005 0.6423 0.76483 0.0
C455 C 0.19764 0.60564 0.65298 0.0
H456 H 0.22342 0.69023 0.63226 0.0
H457 H 0.27244 0.64328 0.59645 0.0
H458 H 0.18933 0.65368 0.69213 0.0
H459 H 0.20696 0.66801 0.73055 0.0
H460 H 0.19536 0.68216 0.68279 0.0
H461 H 0.27357 0.60812 0.62669 0.0
H462 H 0.26769 0.6096 0.6864 0.0
H463 H 0.24841 0.59745 0.64819 0.0
H464 H 0.23443 0.61113 0.81963 0.0
H465 H 0.19003 0.58033 0.72589 0.0
H466 H 0.2438 0.65888 0.75722 0.0
H467 H 0.26465 0.63964 0.74369 0.0
H468 H 0.25502 0.64182 0.80111 0.0
H469 H 0.19036 0.62149 0.64301 0.0
H470 H 0.18485 0.59285 0.65154 0.0
H471 H 0.21021 0.60156 0.62754 0.0
C472 C 0.83972 0.84191 0.13642 0.0
C473 C 0.82933 0.82273 0.12127 0.0
C474 C 0.85409 0.84164 0.17357 0.0
C475 C 0.85833 0.82169 0.19593 0.0
C476 C 0.84885 0.80209 0.17929 0.0
C477 C 0.83442 0.80284 0.14223 0.0
C478 C 0.86385 0.8629 0.19032 0.0
C479 C 0.85315 0.78046 0.20194 0.0
C480 C 0.90554 0.81926 0.27979 0.0
C481 C 0.8949 0.82221 0.32132 0.0
C482 C 0.89388 0.81891 0.23862 0.0
C483 C 0.87107 0.82167 0.23901 0.0
C484 C 0.86025 0.82463 0.28078 0.0
C485 C 0.87227 0.82476 0.32135 0.0
C486 C 0.90594 0.81567 0.19472 0.0
C487 C 0.83594 0.82767 0.28266 0.0
H488 H 0.83599 0.85735 0.1204 0.0
H489 H 0.82665 0.7879 0.13053 0.0
H490 H 0.85704 0.86714 0.22399 0.0
H491 H 0.88167 0.86124 0.19471 0.0
H492 H 0.86053 0.87663 0.16683 0.0
H493 H 0.84629 0.76647 0.18224 0.0
H494 H 0.87085 0.77787 0.20643 0.0
H495 H 0.84582 0.78053 0.23618 0.0
H496 H 0.92304 0.81751 0.2794 0.0
H497 H 0.86385 0.82661 0.35328 0.0
H498 H 0.90352 0.83007 0.17262 0.0
H499 H 0.89938 0.80124 0.17613 0.0
H500 H 0.92363 0.81329 0.20028 0.0
H501 H 0.83111 0.84214 0.26253 0.0
H502 H 0.83003 0.82993 0.31788 0.0
H503 H 0.82765 0.81325 0.2674 0.0
C504 C 0.75972 0.39009 0.63021 0.0
C505 C 0.76278 0.36742 0.63319 0.0
C506 C 0.7665 0.40413 0.66558 0.0
C507 C 0.77671 0.39526 0.70448 0.0
C508 C 0.78092 0.37254 0.70642 0.0
C509 C 0.77384 0.35891 0.67087 0.0
C510 C 0.76175 0.42827 0.66231 0.0
C511 C 0.79199 0.36245 0.74707 0.0
C512 C 0.80614 0.4302 0.79279 0.0
C513 C 0.79076 0.43094 0.82756 0.0
C514 C 0.80156 0.41933 0.75161 0.0
C515 C 0.7811 0.40915 0.74516 0.0
C516 C 0.76522 0.41073 0.77945 0.0
C517 C 0.77027 0.42155 0.82023 0.0
C518 C 0.81891 0.41793 0.71586 0.0
C519 C 0.74312 0.40029 0.77376 0.0
H520 H 0.75126 0.39679 0.60112 0.0
H521 H 0.77658 0.34144 0.67309 0.0
H522 H 0.74899 0.43275 0.68705 0.0
H523 H 0.77641 0.43799 0.67108 0.0
H524 H 0.75605 0.43292 0.62787 0.0
H525 H 0.79584 0.3449 0.74147 0.0
H526 H 0.80726 0.3713 0.7553 0.0
H527 H 0.7813 0.36387 0.77704 0.0
H528 H 0.82202 0.43741 0.79844 0.0
H529 H 0.75822 0.42246 0.84677 0.0
H530 H 0.81223 0.42267 0.68232 0.0
H531 H 0.82465 0.40079 0.71276 0.0
H532 H 0.83306 0.42854 0.72408 0.0
H533 H 0.73541 0.40565 0.74161 0.0
H534 H 0.73211 0.40437 0.80224 0.0
H535 H 0.74488 0.38225 0.77183 0.0
C536 C 0.66983 0.33603 0.42625 0.0
C537 C 0.69006 0.3265 0.41694 0.0
C538 C 0.65356 0.33714 0.3926 0.0
C539 C 0.65767 0.32856 0.34874 0.0
C540 C 0.67779 0.31835 0.33965 0.0
C541 C 0.69367 0.3174 0.37379 0.0
C542 C 0.63222 0.34798 0.40358 0.0
C543 C 0.68282 0.30893 0.29336 0.0
C544 C 0.61447 0.31453 0.26093 0.0
C545 C 0.61676 0.33184 0.2304 0.0
C546 C 0.62667 0.31392 0.30134 0.0
C547 C 0.64154 0.33098 0.3113 0.0
C548 C 0.64291 0.34914 0.28201 0.0
C549 C 0.63047 0.34936 0.24197 0.0
C550 C 0.62465 0.29435 0.33184 0.0
C551 C 0.6585 0.36771 0.29149 0.0
H552 H 0.66686 0.34302 0.45952 0.0
H553 H 0.70914 0.30983 0.36627 0.0
H554 H 0.63046 0.36316 0.38358 0.0
H555 H 0.6185 0.33709 0.39393 0.0
H556 H 0.6309 0.35223 0.44015 0.0
H557 H 0.69896 0.30086 0.29232 0.0
H558 H 0.67028 0.29679 0.28322 0.0
H559 H 0.68253 0.32212 0.26777 0.0
H560 H 0.604 0.30087 0.25215 0.0
H561 H 0.63198 0.36299 0.21895 0.0
H562 H 0.62347 0.29959 0.36784 0.0
H563 H 0.63938 0.28404 0.3287 0.0
H564 H 0.61026 0.28418 0.323 0.0
H565 H 0.65679 0.37368 0.3269 0.0
H566 H 0.65593 0.38164 0.26814 0.0
H567 H 0.67542 0.36179 0.28759 0.0
C568 C 0.2631 0.1532 0.91525 0.0
C569 C 0.26799 0.17558 0.9169 0.0
C570 C 0.27027 0.13996 0.87928 0.0
C571 C 0.28229 0.14944 0.84378 0.0
C572 C 0.28816 0.17179 0.84636 0.0
C573 C 0.28109 0.18456 0.8831 0.0
C574 C 0.26405 0.11608 0.87817 0.0
C575 C 0.30077 0.18255 0.80894 0.0
C576 C 0.3104 0.1133 0.7566 0.0
C577 C 0.29488 0.11273 0.72157 0.0
C578 C 0.30649 0.125 0.79694 0.0
C579 C 0.28676 0.1366 0.80187 0.0
C580 C 0.27112 0.13616 0.76641 0.0
C581 C 0.27534 0.12414 0.72682 0.0
C582 C 0.32339 0.12487 0.83431 0.0
C583 C 0.24999 0.14856 0.7701 0.0
H584 H 0.25319 0.14611 0.94155 0.0
H585 H 0.28494 0.20186 0.8841 0.0
H586 H 0.25187 0.11318 0.85087 0.0
H587 H 0.2784 0.1058 0.87041 0.0
H588 H 0.25705 0.11067 0.91081 0.0
H589 H 0.30573 0.19951 0.81799 0.0
H590 H 0.31551 0.17293 0.80084 0.0
H591 H 0.29062 0.18309 0.7777 0.0
H592 H 0.32546 0.10436 0.75266 0.0
H593 H 0.26345 0.12396 0.6995 0.0
H594 H 0.31622 0.11842 0.86588 0.0
H595 H 0.3289 0.1418 0.84176 0.0
H596 H 0.33774 0.11478 0.82539 0.0
H597 H 0.24069 0.14268 0.79965 0.0
H598 H 0.23968 0.14672 0.73921 0.0
H599 H 0.2533 0.16621 0.77582 0.0
C600 C 0.34457 0.70133 0.40652 0.0
C601 C 0.33351 0.72013 0.4212 0.0
C602 C 0.36174 0.70272 0.37569 0.0
C603 C 0.36819 0.72342 0.35951 0.0
C604 C 0.35764 0.74252 0.37543 0.0
C605 C 0.34036 0.74065 0.40592 0.0
C606 C 0.37247 0.68195 0.35927 0.0
C607 C 0.36425 0.76491 0.35937 0.0
C608 C 0.42319 0.72789 0.3026 0.0
C609 C 0.41737 0.72724 0.25647 0.0
C610 C 0.40737 0.72686 0.33656 0.0
C611 C 0.38521 0.72496 0.32413 0.0
C612 C 0.37921 0.72428 0.27769 0.0
C613 C 0.39533 0.72555 0.24449 0.0
C614 C 0.41437 0.72772 0.38574 0.0
C615 C 0.35575 0.72218 0.26304 0.0
H616 H 0.33941 0.68539 0.41807 0.0
H617 H 0.33203 0.75527 0.41734 0.0
H618 H 0.36957 0.67988 0.32229 0.0
H619 H 0.39029 0.68292 0.36465 0.0
H620 H 0.36627 0.66724 0.3768 0.0
H621 H 0.3554 0.77821 0.37725 0.0
H622 H 0.38193 0.76738 0.36465 0.0
H623 H 0.36097 0.76629 0.32246 0.0
H624 H 0.44018 0.72892 0.31223 0.0
H625 H 0.3906 0.72546 0.20901 0.0
H626 H 0.40946 0.71246 0.40293 0.0
H627 H 0.40614 0.74146 0.40336 0.0
H628 H 0.4322 0.72979 0.38976 0.0
H629 H 0.34865 0.70705 0.27718 0.0
H630 H 0.35381 0.72167 0.22555 0.0
H631 H 0.34624 0.73615 0.27652 0.0
C632 C 0.73335 0.86612 0.88785 0.0
C633 C 0.7518 0.87161 0.91381 0.0
C634 C 0.72445 0.8809 0.85656 0.0
C635 C 0.73426 0.90163 0.851 0.0
C636 C 0.75242 0.90754 0.87815 0.0
C637 C 0.76093 0.8925 0.90925 0.0
C638 C 0.70497 0.87406 0.82844 0.0
C639 C 0.76336 0.92949 0.87327 0.0
C640 C 0.72918 0.93035 0.73783 0.0
C641 C 0.71388 0.9467 0.74733 0.0
C642 C 0.7356 0.91534 0.77102 0.0
C643 C 0.72648 0.91665 0.81487 0.0
C644 C 0.71072 0.93284 0.8245 0.0
C645 C 0.70465 0.94773 0.79064 0.0
C646 C 0.75256 0.8984 0.75944 0.0
C647 C 0.70053 0.93465 0.87076 0.0
H648 H 0.72606 0.8501 0.89129 0.0
H649 H 0.7751 0.89699 0.92927 0.0
H650 H 0.69204 0.88663 0.83071 0.0
H651 H 0.70963 0.87268 0.79227 0.0
H652 H 0.69822 0.85812 0.83931 0.0
H653 H 0.77657 0.93204 0.89864 0.0
H654 H 0.77034 0.93082 0.83884 0.0
H655 H 0.75132 0.94284 0.87707 0.0
H656 H 0.73663 0.92965 0.70468 0.0
H657 H 0.69266 0.96019 0.79804 0.0
H658 H 0.74633 0.88178 0.76657 0.0
H659 H 0.7672 0.90097 0.78102 0.0
H660 H 0.75745 0.89905 0.72331 0.0
H661 H 0.69325 0.91876 0.8803 0.0
H662 H 0.68776 0.94745 0.87215 0.0
H663 H 0.71318 0.93861 0.89654 0.0
C664 C 0.83132 0.81951 0.87248 0.0
C665 C 0.83277 0.82926 0.91567 0.0
C666 C 0.84921 0.819 0.84341 0.0
C667 C 0.8691 0.82847 0.85775 0.0
C668 C 0.87078 0.83821 0.90137 0.0
C669 C 0.85261 0.83846 0.92987 0.0
C670 C 0.84678 0.80839 0.79719 0.0
C671 C 0.89173 0.84848 0.91779 0.0
C672 C 0.91904 0.80935 0.794 0.0
C673 C 0.92141 0.82588 0.76171 0.0
C674 C 0.90252 0.81033 0.82647 0.0
C675 C 0.88801 0.82828 0.82666 0.0
C676 C 0.89076 0.84537 0.79514 0.0
C677 C 0.90741 0.84395 0.76305 0.0
C678 C 0.9001 0.79177 0.85946 0.0
C679 C 0.87569 0.86483 0.79442 0.0
H680 H 0.81613 0.81226 0.8612 0.0
H681 H 0.85392 0.846 0.96317 0.0
H682 H 0.85008 0.82054 0.77039 0.0
H683 H 0.85882 0.79503 0.79331 0.0
H684 H 0.83028 0.80151 0.79141 0.0
H685 H 0.89046 0.85515 0.95283 0.0
H686 H 0.90499 0.83622 0.91701 0.0
H687 H 0.89644 0.86192 0.89484 0.0
H688 H 0.92964 0.79522 0.79288 0.0
H689 H 0.90935 0.85694 0.73863 0.0
H690 H 0.88461 0.78304 0.85261 0.0
H691 H 0.89942 0.79818 0.89472 0.0
H692 H 0.91363 0.77983 0.85707 0.0
H693 H 0.85902 0.85938 0.78533 0.0
H694 H 0.88085 0.87737 0.7697 0.0
H695 H 0.87493 0.87251 0.82858 0.0
C696 C 0.76294 0.39299 0.43529 0.0
C697 C 0.76799 0.37084 0.42868 0.0
C698 C 0.77032 0.40896 0.40525 0.0
C699 C 0.78279 0.40259 0.36726 0.0
C700 C 0.78866 0.38037 0.36135 0.0
C701 C 0.78133 0.36476 0.39238 0.0
C702 C 0.76402 0.43253 0.41319 0.0
C703 C 0.80175 0.37292 0.32102 0.0
C704 C 0.77746 0.43909 0.26441 0.0
C705 C 0.79676 0.4512 0.2666 0.0
C706 C 0.77297 0.42293 0.29643 0.0
C707 C 0.78806 0.41892 0.33187 0.0
C708 C 0.80769 0.43096 0.33409 0.0
C709 C 0.81188 0.44689 0.3012 0.0
C710 C 0.75198 0.41026 0.2925 0.0
C711 C 0.82404 0.42731 0.37167 0.0
H712 H 0.75283 0.39782 0.46358 0.0
H713 H 0.78525 0.34767 0.38699 0.0
H714 H 0.77853 0.44323 0.41151 0.0
H715 H 0.75259 0.43782 0.38617 0.0
H716 H 0.75612 0.43506 0.44656 0.0
H717 H 0.80651 0.35544 0.32334 0.0
H718 H 0.79206 0.37516 0.28952 0.0
H719 H 0.81664 0.38297 0.31789 0.0
H720 H 0.7659 0.44216 0.23728 0.0
H721 H 0.82677 0.45631 0.30308 0.0
H722 H 0.7419 0.41335 0.32289 0.0
H723 H 0.75539 0.39246 0.29111 0.0
H724 H 0.7424 0.41476 0.26189 0.0
H725 H 0.81657 0.43119 0.40489 0.0
H726 H 0.8388 0.43755 0.36781 0.0
H727 H 0.82897 0.40988 0.37244 0.0
C728 C 0.19205 0.22483 0.87656 0.0
C729 C 0.18896 0.21472 0.91856 0.0
C730 C 0.17643 0.22326 0.84192 0.0
C731 C 0.15709 0.2114 0.84939 0.0
C732 C 0.15338 0.2019 0.89226 0.0
C733 C 0.1694 0.20364 0.92639 0.0
C734 C 0.18102 0.23367 0.7967 0.0
C735 C 0.13285 0.18932 0.90157 0.0
C736 C 0.11327 0.22247 0.76141 0.0
C737 C 0.11698 0.20556 0.72994 0.0
C738 C 0.1253 0.22386 0.80201 0.0
C739 C 0.1415 0.20806 0.81115 0.0
C740 C 0.14446 0.19029 0.78073 0.0
C741 C 0.13211 0.18922 0.7406 0.0
C742 C 0.12156 0.24295 0.83376 0.0
C743 C 0.16153 0.17306 0.78926 0.0
H744 H 0.207 0.23359 0.87018 0.0
H745 H 0.1668 0.19585 0.95877 0.0
H746 H 0.18208 0.22082 0.77001 0.0
H747 H 0.16757 0.24479 0.78705 0.0
H748 H 0.19642 0.24313 0.79705 0.0
H749 H 0.13152 0.1847 0.93779 0.0
H750 H 0.11841 0.19914 0.89201 0.0
H751 H 0.13248 0.17419 0.88055 0.0
H752 H 0.10172 0.23524 0.75337 0.0
H753 H 0.13474 0.17587 0.71688 0.0
H754 H 0.13547 0.25442 0.83189 0.0
H755 H 0.12053 0.23732 0.86934 0.0
H756 H 0.10648 0.25202 0.82514 0.0
H757 H 0.1779 0.1805 0.7867 0.0
H758 H 0.1604 0.15927 0.76459 0.0
H759 H 0.16001 0.16649 0.82403 0.0
C760 C 0.24981 0.65126 0.41654 0.0
C761 C 0.25702 0.67232 0.40561 0.0
C762 C 0.24132 0.63715 0.38291 0.0
C763 C 0.24027 0.64421 0.33733 0.0
C764 C 0.2474 0.66548 0.32623 0.0
C765 C 0.25555 0.67928 0.36047 0.0
C766 C 0.23362 0.61466 0.39603 0.0
C767 C 0.24674 0.67358 0.27796 0.0
C768 C 0.24021 0.60452 0.23793 0.0
C769 C 0.21873 0.60618 0.22225 0.0
C770 C 0.24721 0.61602 0.27673 0.0
C771 C 0.23231 0.62935 0.30062 0.0
C772 C 0.21033 0.63017 0.28632 0.0
C773 C 0.20383 0.61868 0.24708 0.0
C774 C 0.27083 0.6149 0.29056 0.0
C775 C 0.1939 0.64395 0.31128 0.0
H776 H 0.25076 0.6458 0.45137 0.0
H777 H 0.2611 0.69549 0.35159 0.0
H778 H 0.21654 0.61225 0.38485 0.0
H779 H 0.24351 0.60203 0.37863 0.0
H780 H 0.2347 0.61198 0.43319 0.0
H781 H 0.25281 0.69061 0.27506 0.0
H782 H 0.25676 0.66282 0.25606 0.0
H783 H 0.22987 0.67293 0.26455 0.0
H784 H 0.25183 0.59505 0.21858 0.0
H785 H 0.18715 0.61978 0.2353 0.0
H786 H 0.27241 0.61121 0.3272 0.0
H787 H 0.27861 0.63101 0.285 0.0
H788 H 0.27986 0.6023 0.27097 0.0
H789 H 0.19476 0.64074 0.34822 0.0
H790 H 0.17706 0.64081 0.29911 0.0
H791 H 0.19763 0.66152 0.30643 0.0
C792 C 0.34863 0.70326 0.61621 0.0
C793 C 0.32793 0.71166 0.62572 0.0
C794 C 0.36485 0.70249 0.65004 0.0
C795 C 0.36021 0.71022 0.69432 0.0
C796 C 0.33952 0.71911 0.70379 0.0
C797 C 0.32371 0.71977 0.66944 0.0
C798 C 0.38679 0.69305 0.63867 0.0
C799 C 0.33388 0.72754 0.75056 0.0
C800 C 0.38916 0.69008 0.7998 0.0
C801 C 0.40186 0.7083 0.81188 0.0
C802 C 0.37647 0.68996 0.76007 0.0
C803 C 0.37652 0.70848 0.73162 0.0
C804 C 0.39033 0.72636 0.74213 0.0
C805 C 0.4028 0.72608 0.7822 0.0
C806 C 0.36203 0.67053 0.75 0.0
C807 C 0.39093 0.74637 0.71256 0.0
H808 H 0.35209 0.69704 0.58251 0.0
H809 H 0.30785 0.72641 0.6772 0.0
H810 H 0.39979 0.70484 0.64805 0.0
H811 H 0.38965 0.67804 0.65868 0.0
H812 H 0.38823 0.68889 0.60208 0.0
H813 H 0.31722 0.73443 0.75204 0.0
H814 H 0.33514 0.71408 0.77544 0.0
H815 H 0.34556 0.74042 0.76133 0.0
H816 H 0.38868 0.67611 0.82213 0.0
H817 H 0.41246 0.74028 0.79139 0.0
H818 H 0.364 0.66502 0.71434 0.0
H819 H 0.3448 0.67531 0.75432 0.0
H820 H 0.36555 0.65656 0.77274 0.0
H821 H 0.39248 0.74161 0.67634 0.0
H822 H 0.40455 0.75747 0.72189 0.0
H823 H 0.37549 0.75553 0.71607 0.0
C824 C 0.75213 0.86163 0.16533 0.0
C825 C 0.75353 0.86834 0.12005 0.0
C826 C 0.74378 0.8755 0.1989 0.0
C827 C 0.73631 0.89656 0.18696 0.0
C828 C 0.73714 0.90331 0.14117 0.0
C829 C 0.74591 0.88916 0.10823 0.0
C830 C 0.74344 0.86775 0.24742 0.0
C831 C 0.72899 0.92553 0.12716 0.0
C832 C 0.70042 0.92183 0.27712 0.0
C833 C 0.71543 0.93453 0.30174 0.0
C834 C 0.70663 0.91047 0.23772 0.0
C835 C 0.72844 0.9116 0.22315 0.0
C836 C 0.7434 0.92519 0.24677 0.0
C837 C 0.73668 0.93658 0.28566 0.0
C838 C 0.69012 0.89642 0.21303 0.0
C839 C 0.76687 0.92661 0.23273 0.0
H840 H 0.75803 0.84562 0.17491 0.0
H841 H 0.74681 0.8944 0.07327 0.0
H842 H 0.75347 0.87878 0.26911 0.0
H843 H 0.72664 0.8683 0.26062 0.0
H844 H 0.7497 0.85082 0.25096 0.0
H845 H 0.7296 0.92782 0.08985 0.0
H846 H 0.71202 0.92786 0.13853 0.0
H847 H 0.73895 0.93847 0.14377 0.0
H848 H 0.68391 0.92043 0.28922 0.0
H849 H 0.74839 0.94622 0.30485 0.0
H850 H 0.69393 0.87892 0.21856 0.0
H851 H 0.69077 0.89933 0.17598 0.0
H852 H 0.67334 0.89958 0.22491 0.0
H853 H 0.77495 0.91067 0.23872 0.0
H854 H 0.77589 0.93948 0.25191 0.0
H855 H 0.76805 0.93008 0.19598 0.0
C856 C 0.67078 0.33369 0.62264 0.0
C857 C 0.68705 0.31763 0.62203 0.0
C858 C 0.65335 0.33244 0.65287 0.0
C859 C 0.65225 0.31482 0.68356 0.0
C860 C 0.66829 0.29826 0.68236 0.0
C861 C 0.68543 0.2998 0.65144 0.0
C862 C 0.63641 0.35027 0.65272 0.0
C863 C 0.66775 0.27929 0.71475 0.0
C864 C 0.62224 0.32374 0.79415 0.0
C865 C 0.6027 0.31249 0.78607 0.0
C866 C 0.63843 0.32466 0.76104 0.0
C867 C 0.63495 0.31429 0.7185 0.0
C868 C 0.61514 0.30325 0.70972 0.0
C869 C 0.59929 0.3024 0.74366 0.0
C870 C 0.65935 0.33659 0.77176 0.0
C871 C 0.61079 0.29213 0.66463 0.0
H872 H 0.67179 0.34743 0.59977 0.0
H873 H 0.6979 0.28731 0.65128 0.0
H874 H 0.61994 0.34306 0.6494 0.0
H875 H 0.63701 0.35939 0.68538 0.0
H876 H 0.63879 0.36204 0.62471 0.0
H877 H 0.68086 0.26726 0.70806 0.0
H878 H 0.66955 0.28543 0.75011 0.0
H879 H 0.65188 0.27078 0.71231 0.0
H880 H 0.62488 0.33195 0.82644 0.0
H881 H 0.58438 0.29345 0.73723 0.0
H882 H 0.66185 0.34992 0.74708 0.0
H883 H 0.67328 0.3252 0.76858 0.0
H884 H 0.65953 0.34375 0.80651 0.0
H885 H 0.61265 0.304 0.63669 0.0
H886 H 0.59425 0.28494 0.66255 0.0
H887 H 0.62284 0.27893 0.65901 0.0
C888 C 0.26238 0.14584 0.11202 0.0
C889 C 0.2643 0.16818 0.12258 0.0
C890 C 0.26992 0.12985 0.14215 0.0
C891 C 0.27988 0.13634 0.18356 0.0
C892 C 0.28272 0.15885 0.1935 0.0
C893 C 0.27478 0.1745 0.16303 0.0
C894 C 0.26641 0.10601 0.1305 0.0
C895 C 0.29353 0.16643 0.23701 0.0
C896 C 0.27627 0.09847 0.28439 0.0
C897 C 0.29687 0.08877 0.28481 0.0
C898 C 0.27049 0.11375 0.25128 0.0
C899 C 0.28579 0.11968 0.21799 0.0
C900 C 0.30661 0.10985 0.21805 0.0
C901 C 0.31186 0.09436 0.25133 0.0
C902 C 0.24802 0.12361 0.25203 0.0
C903 C 0.32342 0.11596 0.18342 0.0
H904 H 0.25433 0.14079 0.08083 0.0
H905 H 0.27654 0.19173 0.17122 0.0
H906 H 0.2819 0.09687 0.1334 0.0
H907 H 0.25494 0.09874 0.15495 0.0
H908 H 0.25975 0.10364 0.09568 0.0
H909 H 0.29621 0.18439 0.23782 0.0
H910 H 0.28329 0.16199 0.26629 0.0
H911 H 0.3094 0.15812 0.24151 0.0
H912 H 0.26456 0.09394 0.3099 0.0
H913 H 0.32785 0.08696 0.2518 0.0
H914 H 0.23968 0.12059 0.21906 0.0
H915 H 0.24915 0.14158 0.25686 0.0
H916 H 0.23787 0.11681 0.2795 0.0
H917 H 0.31701 0.11289 0.14868 0.0
H918 H 0.33876 0.10666 0.1878 0.0
H919 H 0.32709 0.13369 0.18617 0.0
C920 C 0.21595 0.29876 0.99055 0.0
C921 C 0.22767 0.28981 0.02696 0.0
C922 C 0.21019 0.32096 0.99035 0.0
C923 C 0.21637 0.33456 0.02732 0.0
C924 C 0.22783 0.32556 0.06454 0.0
C925 C 0.23327 0.30329 0.06398 0.0
C926 C 0.19781 0.32995 0.95023 0.0
C927 C 0.23475 0.33956 0.10456 0.0
C928 C 0.22281 0.3956 1.00973 0.0
C929 C 0.20401 0.40388 0.03009 0.0
C930 C 0.22681 0.37304 1.0078 0.0
C931 C 0.21159 0.35839 0.02652 0.0
C932 C 0.19229 0.36659 0.04605 0.0
C933 C 0.18876 0.38926 0.04773 0.0
C934 C 0.24764 0.36493 0.9869 0.0
C935 C 0.17559 0.35146 0.06596 0.0
H936 H 0.21141 0.28845 0.96193 0.0
H937 H 0.24227 0.29655 0.09233 0.0
H938 H 0.1828 0.33823 0.96181 0.0
H939 H 0.20781 0.34238 0.93289 0.0
H940 H 0.19329 0.317 0.92523 0.0
H941 H 0.24303 0.32993 0.13137 0.0
H942 H 0.24596 0.35256 0.09314 0.0
H943 H 0.22043 0.34777 0.11959 0.0
H944 H 0.23479 0.40683 0.99658 0.0
H945 H 0.17408 0.39558 0.06305 0.0
H946 H 0.24403 0.35275 0.95978 0.0
H947 H 0.25764 0.35659 0.013 0.0
H948 H 0.25737 0.37838 0.97222 0.0
H949 H 0.17054 0.33899 0.04045 0.0
H950 H 0.16094 0.36036 0.07775 0.0
H951 H 0.18277 0.34261 0.09514 0.0
C952 C 0.19844 0.74603 0.54491 0.0
C953 C 0.21038 0.74222 0.5053 0.0
C954 C 0.17639 0.75167 0.54278 0.0
C955 C 0.16606 0.75379 0.5 0.0
C956 C 0.17796 0.74984 0.45988 0.0
C957 C 0.19995 0.74395 0.46301 0.0
C958 C 0.16417 0.75546 0.58633 0.0
C959 C 0.16754 0.75213 0.41364 0.0
C960 C 0.1045 0.7509 0.49313 0.0
C961 C 0.09885 0.7731 0.49203 0.0
C962 C 0.1263 0.74437 0.49596 0.0
C963 C 0.14285 0.76043 0.49724 0.0
C964 C 0.13725 0.78287 0.49605 0.0
C965 C 0.1153 0.78894 0.49369 0.0
C966 C 0.13163 0.7203 0.49777 0.0
C967 C 0.15445 0.80047 0.49691 0.0
H968 H 0.20633 0.74454 0.57773 0.0
H969 H 0.20906 0.74108 0.43224 0.0
H970 H 0.15813 0.77254 0.58776 0.0
H971 H 0.14979 0.74456 0.5875 0.0
H972 H 0.1744 0.75249 0.61686 0.0
H973 H 0.179 0.74835 0.38575 0.0
H974 H 0.15336 0.74103 0.41049 0.0
H975 H 0.16146 0.76906 0.4093 0.0
H976 H 0.0918 0.73863 0.49233 0.0
H977 H 0.111 0.8061 0.49233 0.0
H978 H 0.14092 0.71671 0.52922 0.0
H979 H 0.14205 0.71569 0.46873 0.0
H980 H 0.11685 0.70989 0.49685 0.0
H981 H 0.16439 0.7992 0.52831 0.0
H982 H 0.14739 0.81716 0.49537 0.0
H983 H 0.16555 0.79822 0.46781 0.0
C984 C 0.79423 0.74016 0.03988 0.0
C985 C 0.79159 0.75226 1.00004 0.0
C986 C 0.79918 0.7178 0.03819 0.0
C987 C 0.80121 0.70719 0.99559 0.0
C988 C 0.7992 0.71944 0.95523 0.0
C989 C 0.79459 0.7419 0.95794 0.0
C990 C 0.80159 0.7054 0.08201 0.0
C991 C 0.80103 0.70865 0.90918 0.0
C992 C 0.82695 0.65068 0.99149 0.0
C993 C 0.80859 0.63715 0.99242 0.0
C994 C 0.82486 0.67355 0.99232 0.0
C995 C 0.80389 0.68303 0.9934 0.0
C996 C 0.78531 0.6694 0.99359 0.0
C997 C 0.7879 0.64663 0.99339 0.0
C998 C 0.84503 0.68756 0.99277 0.0
C999 C 0.76268 0.67887 0.99415 0.0
H1000 H 0.79221 0.74815 0.07254 0.0
H1001 H 0.79255 0.75117 0.92703 0.0
H1002 H 0.78812 0.69347 0.08504 0.0
H1003 H 0.81698 0.69599 0.08219 0.0
H1004 H 0.80142 0.71639 0.11219 0.0
H1005 H 0.80044 0.72068 0.88118 0.0
H1006 H 0.81641 0.69931 0.90683 0.0
H1007 H 0.78753 0.69683 0.90429 0.0
H1008 H 0.84297 0.64334 0.99098 0.0
H1009 H 0.77368 0.63619 0.99345 0.0
H1010 H 0.84555 0.69768 0.02418 0.0
H1011 H 0.84471 0.69895 0.96371 0.0
H1012 H 0.86012 0.67766 0.99105 0.0
H1013 H 0.76035 0.6887 0.02552 0.0
H1014 H 0.74994 0.66601 0.99255 0.0
H1015 H 0.76036 0.69 0.96499 0.0
C1016 C 0.82193 0.30207 0.56987 0.0
C1017 C 0.80938 0.29686 0.53133 0.0
C1018 C 0.8438 0.29576 0.57303 0.0
C1019 C 0.85333 0.28389 0.5369 0.0
C1020 C 0.84087 0.27887 0.49764 0.0
C1021 C 0.81908 0.28548 0.49526 0.0
C1022 C 0.85662 0.30154 0.61533 0.0
C1023 C 0.85044 0.26618 0.45846 0.0
C1024 C 0.91485 0.28184 0.52895 0.0
C1025 C 0.91949 0.26152 0.54847 0.0
C1026 C 0.89339 0.28935 0.52497 0.0
C1027 C 0.87617 0.27618 0.54068 0.0
C1028 C 0.88074 0.25557 0.56006 0.0
C1029 C 0.90234 0.24852 0.5638 0.0
C1030 C 0.88916 0.31146 0.50432 0.0
C1031 C 0.86279 0.24097 0.57683 0.0
H1032 H 0.81464 0.31096 0.5978 0.0
H1033 H 0.80955 0.28138 0.46531 0.0
H1034 H 0.86194 0.28638 0.63256 0.0
H1035 H 0.87147 0.31073 0.60626 0.0
H1036 H 0.84707 0.31154 0.63963 0.0
H1037 H 0.83874 0.26409 0.42987 0.0
H1038 H 0.86509 0.27463 0.44579 0.0
H1039 H 0.85561 0.24977 0.47005 0.0
H1040 H 0.92807 0.29205 0.51751 0.0
H1041 H 0.90581 0.23268 0.57838 0.0
H1042 H 0.88082 0.32219 0.52919 0.0
H1043 H 0.87823 0.30971 0.47442 0.0
H1044 H 0.90434 0.31965 0.49352 0.0
H1045 H 0.85348 0.24953 0.60367 0.0
H1046 H 0.86907 0.22536 0.59077 0.0
H1047 H 0.85129 0.23716 0.54871 0.0
C1048 C 0.71882 0.24222 0.47261 0.0
C1049 C 0.73104 0.24997 0.50977 0.0
C1050 C 0.71348 0.21997 0.4683 0.0
C1051 C 0.72068 0.2051 0.50174 0.0
C1052 C 0.7327 0.21287 0.53967 0.0
C1053 C 0.73765 0.2352 0.54333 0.0
C1054 C 0.70044 0.21231 0.42759 0.0
C1055 C 0.74081 0.19751 0.57589 0.0
C1056 C 0.69474 0.14887 0.51048 0.0
C1057 C 0.70969 0.1358 0.48702 0.0
C1058 C 0.69793 0.17153 0.51504 0.0
C1059 C 0.71659 0.18126 0.49606 0.0
C1060 C 0.73173 0.16812 0.47244 0.0
C1061 C 0.72807 0.14558 0.46812 0.0
C1062 C 0.68135 0.18506 0.54018 0.0
C1063 C 0.75196 0.17784 0.45216 0.0
H1064 H 0.71349 0.25354 0.44671 0.0
H1065 H 0.74707 0.241 0.57222 0.0
H1066 H 0.71036 0.201 0.4067 0.0
H1067 H 0.68594 0.20311 0.43872 0.0
H1068 H 0.69504 0.2261 0.40598 0.0
H1069 H 0.74931 0.20625 0.60402 0.0
H1070 H 0.72706 0.18818 0.59016 0.0
H1071 H 0.75217 0.18546 0.56079 0.0
H1072 H 0.68042 0.1414 0.52477 0.0
H1073 H 0.73982 0.13549 0.45051 0.0
H1074 H 0.67502 0.19816 0.5179 0.0
H1075 H 0.68909 0.19316 0.56999 0.0
H1076 H 0.66748 0.17508 0.55205 0.0
H1077 H 0.74751 0.19077 0.42765 0.0
H1078 H 0.762 0.16539 0.43441 0.0
H1079 H 0.76199 0.18564 0.47922 0.0
C1080 C 0.31705 0.25707 0.99996 0.0
C1081 C 0.30786 0.24503 0.03529 0.0
C1082 C 0.33884 0.26374 1.00179 0.0
C1083 C 0.35181 0.25818 0.03979 0.0
C1084 C 0.34276 0.24579 0.07529 0.0
C1085 C 0.32089 0.23937 0.07264 0.0
C1086 C 0.3479 0.27696 0.96327 0.0
C1087 C 0.35612 0.23948 0.11628 0.0
C1088 C 0.41317 0.25988 0.02791 0.0
C1089 C 0.41829 0.27994 0.04881 0.0
C1090 C 0.39159 0.25258 0.02473 0.0
C1091 C 0.37475 0.26569 0.04275 0.0
C1092 C 0.3798 0.28602 0.06356 0.0
C1093 C 0.40151 0.29289 0.06637 0.0
C1094 C 0.38684 0.23077 1.00242 0.0
C1095 C 0.36227 0.30054 0.08286 0.0
H1096 H 0.30717 0.2615 0.97088 0.0
H1097 H 0.31399 0.23 0.10002 0.0
H1098 H 0.35348 0.29312 0.97614 0.0
H1099 H 0.36222 0.26855 0.94868 0.0
H1100 H 0.33577 0.2796 0.93578 0.0
H1101 H 0.34682 0.22934 0.14043 0.0
H1102 H 0.3707 0.23021 0.10553 0.0
H1103 H 0.36189 0.2544 0.13432 0.0
H1104 H 0.42609 0.24968 0.01478 0.0
H1105 H 0.40535 0.30853 0.08203 0.0
H1106 H 0.37545 0.23296 0.97348 0.0
H1107 H 0.37881 0.21979 0.0269 0.0
H1108 H 0.40176 0.22262 0.98983 0.0
H1109 H 0.35039 0.30481 0.05588 0.0
H1110 H 0.3689 0.3159 0.09783 0.0
H1111 H 0.35328 0.29168 0.10948 0.0
C1112 C 0.28303 0.80381 0.49855 0.0
C1113 C 0.28914 0.78888 0.53219 0.0
C1114 C 0.28811 0.82608 0.50275 0.0
C1115 C 0.29981 0.83362 0.5413 0.0
C1116 C 0.30656 0.81859 0.57481 0.0
C1117 C 0.30105 0.79639 0.56998 0.0
C1118 C 0.28045 0.84163 0.46645 0.0
C1119 C 0.31928 0.82601 0.61614 0.0
C1120 C 0.32559 0.88994 0.53308 0.0
C1121 C 0.31032 0.90299 0.55564 0.0
C1122 C 0.32267 0.86722 0.52904 0.0
C1123 C 0.30392 0.85743 0.54751 0.0
C1124 C 0.28852 0.87054 0.57049 0.0
C1125 C 0.29195 0.89313 0.57439 0.0
C1126 C 0.33953 0.85373 0.50469 0.0
C1127 C 0.26817 0.86076 0.59014 0.0
H1128 H 0.27384 0.79819 0.46919 0.0
H1129 H 0.30601 0.78494 0.59594 0.0
H1130 H 0.26902 0.85369 0.48127 0.0
H1131 H 0.29439 0.85091 0.45288 0.0
H1132 H 0.27215 0.83303 0.43784 0.0
H1133 H 0.32448 0.8121 0.63762 0.0
H1134 H 0.33388 0.83526 0.60576 0.0
H1135 H 0.30921 0.83722 0.63693 0.0
H1136 H 0.33989 0.89751 0.51889 0.0
H1137 H 0.27996 0.9032 0.59131 0.0
H1138 H 0.33219 0.84589 0.47416 0.0
H1139 H 0.34542 0.84043 0.52698 0.0
H1140 H 0.35365 0.86368 0.49402 0.0
H1141 H 0.25827 0.85312 0.56267 0.0
H1142 H 0.25807 0.87314 0.6079 0.0
H1143 H 0.27246 0.84769 0.61446 0.0
C1144 C 0.70256 0.78559 0.97382 0.0
C1145 C 0.71124 0.79714 1.01111 0.0
C1146 C 0.68055 0.77975 0.97207 0.0
C1147 C 0.66679 0.78575 1.0083 0.0
C1148 C 0.67537 0.79749 0.04595 0.0
C1149 C 0.69751 0.80299 0.04697 0.0
C1150 C 0.67203 0.76712 0.93144 0.0
C1151 C 0.66115 0.8043 0.08506 0.0
C1152 C 0.60639 0.78746 0.98175 0.0
C1153 C 0.59935 0.76735 0.99876 0.0
C1154 C 0.62821 0.79387 0.9855 0.0
C1155 C 0.64338 0.77976 1.00653 0.0
C1156 C 0.63632 0.75958 0.02439 0.0
C1157 C 0.61437 0.75364 0.02041 0.0
C1158 C 0.63508 0.8156 0.9664 0.0
C1159 C 0.65205 0.74403 0.04676 0.0
H1160 H 0.71302 0.78095 0.94597 0.0
H1161 H 0.70402 0.81201 0.07583 0.0
H1162 H 0.66482 0.75144 0.94253 0.0
H1163 H 0.65897 0.77654 0.9144 0.0
H1164 H 0.68491 0.76351 0.90632 0.0
H1165 H 0.6703 0.81348 0.11169 0.0
H1166 H 0.64766 0.81472 0.07261 0.0
H1167 H 0.65375 0.78966 0.10064 0.0
H1168 H 0.59478 0.79824 0.96553 0.0
H1169 H 0.60905 0.73798 0.03319 0.0
H1170 H 0.64692 0.81295 0.93875 0.0
H1171 H 0.64332 0.82556 0.99305 0.0
H1172 H 0.62113 0.82506 0.95274 0.0
H1173 H 0.66442 0.73865 0.02191 0.0
H1174 H 0.64384 0.72932 0.06032 0.0
H1175 H 0.66079 0.75241 0.07499 0.0
loop_
_geom_bond_atom_site_label_1
_geom_bond_atom_site_label_2
_geom_bond_distance
_geom_bond_site_symmetry_2
_ccdc_geom_bond_type
Fe0 O2 1.918 . S
Fe0 O5 1.997 . S
Fe0 O6 2.002 . S
Fe0 O11 1.976 . S
Fe0 O14 1.996 . S
Fe1 O2 1.918 1_556 S
Fe1 O9 1.997 . S
Fe1 O12 1.996 . S
Fe1 O16 1.976 . S
Fe1 O19 2.002 . S
O2 Fe0 1.918 . S
O2 Fe1 1.918 1_554 S
O2 Fe3 1.918 . S
Fe3 O2 1.918 . S
Fe3 O4 2.002 . S
Fe3 O13 1.976 . S
Fe3 O17 1.996 1_554 S
Fe3 O20 1.997 1_554 S
O4 Fe3 2.002 . S
O4 C21 1.295 . S
O5 Fe0 1.997 . S
O5 C21 1.235 . S
O6 Fe0 2.002 . S
O6 C7 1.295 . S
C7 O6 1.295 . S
C7 O9 1.235 1_554 S
C8 O13 1.287 . S
C8 O14 1.255 . S
O9 Fe1 1.997 . S
O9 C7 1.235 1_556 S
C10 O16 1.287 . S
C10 O17 1.255 . S
O11 Fe0 1.976 . S
O11 C18 1.287 . S
O12 Fe1 1.996 . S
O12 C18 1.255 1_556 S
O13 Fe3 1.976 . S
O13 C8 1.287 . S
O14 Fe0 1.996 . S
O14 C8 1.255 . S
C15 O19 1.295 . S
C15 O20 1.235 . S
O16 Fe1 1.976 . S
O16 C10 1.287 . S
O17 Fe3 1.996 1_556 S
O17 C10 1.255 . S
C18 O11 1.287 . S
C18 O12 1.255 1_554 S
O19 Fe1 2.002 . S
O19 C15 1.295 . S
O20 Fe3 1.997 1_556 S
O20 C15 1.235 . S
C21 O4 1.295 . S
C21 O5 1.235 . S
Fe22 O24 1.918 . S
Fe22 O27 1.997 . S
Fe22 O28 2.002 . S
Fe22 O33 1.976 . S
Fe22 O36 1.996 . S
Fe23 O24 1.918 . S
Fe23 O31 1.997 . S
Fe23 O34 1.996 . S
Fe23 O38 1.976 . S
Fe23 O41 2.002 . S
O24 Fe22 1.918 . S
O24 Fe23 1.918 . S
O24 Fe25 1.918 . S
Fe25 O24 1.918 . S
Fe25 O26 2.002 . S
Fe25 O35 1.976 . S
Fe25 O39 1.996 . S
Fe25 O42 1.997 . S
O26 Fe25 2.002 . S
O26 C43 1.295 . S
O27 Fe22 1.997 . S
O27 C43 1.235 . S
O28 Fe22 2.002 . S
O28 C29 1.295 . S
C29 O28 1.295 . S
C29 O31 1.235 . S
C30 O35 1.287 . S
C30 O36 1.255 . S
O31 Fe23 1.997 . S
O31 C29 1.235 . S
C32 O38 1.287 . S
C32 O39 1.255 . S
O33 Fe22 1.976 . S
O33 C40 1.287 . S
O34 Fe23 1.996 . S
O34 C40 1.255 . S
O35 Fe25 1.976 . S
O35 C30 1.287 . S
O36 Fe22 1.996 . S
O36 C30 1.255 . S
C37 O41 1.295 . S
C37 O42 1.235 . S
O38 Fe23 1.976 . S
O38 C32 1.287 . S
O39 Fe25 1.996 . S
O39 C32 1.255 . S
C40 O33 1.287 . S
C40 O34 1.255 . S
O41 Fe23 2.002 . S
O41 C37 1.295 . S
O42 Fe25 1.997 . S
O42 C37 1.235 . S
C43 O26 1.295 . S
C43 O27 1.235 . S
Fe44 O46 1.918 1_556 S
Fe44 O49 1.997 . S
Fe44 O50 2.002 . S
Fe44 O55 1.976 . S
Fe44 O58 1.996 . S
Fe45 O46 1.918 . S
Fe45 O53 1.997 . S
Fe45 O56 1.996 . S
Fe45 O60 1.976 . S
Fe45 O63 2.002 . S
O46 Fe44 1.918 1_554 S
O46 Fe45 1.918 . S
O46 Fe47 1.918 . S
Fe47 O46 1.918 . S
Fe47 O48 2.002 1_554 S
Fe47 O57 1.976 1_554 S
Fe47 O61 1.996 . S
Fe47 O64 1.997 . S
O48 Fe47 2.002 1_556 S
O48 C65 1.295 . S
O49 Fe44 1.997 . S
O49 C65 1.235 . S
O50 Fe44 2.002 . S
O50 C51 1.295 1_556 S
C51 O50 1.295 1_554 S
C51 O53 1.235 . S
C52 O57 1.287 . S
C52 O58 1.255 . S
O53 Fe45 1.997 . S
O53 C51 1.235 . S
C54 O60 1.287 . S
C54 O61 1.255 . S
O55 Fe44 1.976 . S
O55 C62 1.287 1_556 S
O56 Fe45 1.996 . S
O56 C62 1.255 . S
O57 Fe47 1.976 1_556 S
O57 C52 1.287 . S
O58 Fe44 1.996 . S
O58 C52 1.255 . S
C59 O63 1.295 . S
C59 O64 1.235 . S
O60 Fe45 1.976 . S
O60 C54 1.287 . S
O61 Fe47 1.996 . S
O61 C54 1.255 . S
C62 O55 1.287 1_554 S
C62 O56 1.255 . S
O63 Fe45 2.002 . S
O63 C59 1.295 . S
O64 Fe47 1.997 . S
O64 C59 1.235 . S
C65 O48 1.295 . S
C65 O49 1.235 . S
Fe66 O68 1.918 . S
Fe66 O71 1.997 . S
Fe66 O72 2.002 . S
Fe66 O77 1.976 . S
Fe66 O80 1.996 . S
Fe67 O68 1.918 . S
Fe67 O75 1.997 . S
Fe67 O78 1.996 . S
Fe67 O82 1.976 . S
Fe67 O85 2.002 . S
O68 Fe66 1.918 . S
O68 Fe67 1.918 . S
O68 Fe69 1.918 . S
Fe69 O68 1.918 . S
Fe69 O70 2.002 . S
Fe69 O79 1.976 . S
Fe69 O83 1.996 . S
Fe69 O86 1.997 . S
O70 Fe69 2.002 . S
O70 C87 1.295 . S
O71 Fe66 1.997 . S
O71 C87 1.235 . S
O72 Fe66 2.002 . S
O72 C73 1.295 . S
C73 O72 1.295 . S
C73 O75 1.235 . S
C74 O79 1.287 . S
C74 O80 1.255 . S
O75 Fe67 1.997 . S
O75 C73 1.235 . S
C76 O82 1.287 . S
C76 O83 1.255 . S
O77 Fe66 1.976 . S
O77 C84 1.287 . S
O78 Fe67 1.996 . S
O78 C84 1.255 . S
O79 Fe69 1.976 . S
O79 C74 1.287 . S
O80 Fe66 1.996 . S
O80 C74 1.255 . S
C81 O85 1.295 . S
C81 O86 1.235 . S
O82 Fe67 1.976 . S
O82 C76 1.287 . S
O83 Fe69 1.996 . S
O83 C76 1.255 . S
C84 O77 1.287 . S
C84 O78 1.255 . S
O85 Fe67 2.002 . S
O85 C81 1.295 . S
O86 Fe69 1.997 . S
O86 C81 1.235 . S
C87 O70 1.295 . S
C87 O71 1.235 . S
C88 C89 1.264 . S
C88 C93 1.479 . S
C88 C98 1.465 . S
C89 C88 1.264 . S
C89 C91 1.339 . S
C89 H116 0.931 . S
C90 C91 1.395 . S
C90 C92 1.320 . S
C91 C89 1.339 . S
C91 C90 1.395 . S
C91 H117 0.929 . S
C92 C90 1.320 . S
C92 C93 1.405 . S
C92 H118 0.930 . S
C93 C88 1.479 . S
C93 C92 1.405 . S
C93 H119 0.931 . S
U94 O95 2.454 . S
U94 O96 2.458 1_556 S
U94 C97 2.984 1_556 S
U94 C98 2.847 . S
U94 C111 2.882 1_556 S
U94 O112 2.441 . S
U94 O113 2.420 . S
U94 O114 2.455 1_556 S
U94 O115 2.449 1_556 S
O95 U94 2.454 . S
O95 C97 1.332 1_556 S
O96 U94 2.458 1_554 S
O96 C97 1.306 . S
C97 U94 2.984 1_554 S
C97 O95 1.332 1_554 S
C97 O96 1.306 . S
C97 C99 1.364 . S
C98 C88 1.465 . S
C98 U94 2.847 . S
C98 O112 1.249 . S
C98 O113 1.202 . S
C99 C97 1.364 . S
C99 C101 1.408 1_554 S
C99 C104 1.342 . S
C100 C101 1.310 . S
C100 C103 1.461 1_556 S
C100 H120 0.932 . S
C101 C99 1.408 1_556 S
C101 C100 1.310 . S
C101 H121 0.930 . S
C102 C103 1.474 . S
C102 C104 1.285 . S
C102 H122 0.929 . S
C103 C100 1.461 1_554 S
C103 C102 1.474 . S
C104 C99 1.342 . S
C104 C102 1.285 . S
C104 H123 0.930 . S
C105 C108 1.424 . S
C105 C110 1.245 . S
C105 C111 1.428 . S
C106 C109 1.260 . S
C106 C110 1.477 . S
C106 H124 0.932 . S
C107 C108 1.384 . S
C107 C109 1.479 . S
C107 H125 0.929 . S
C108 C105 1.424 . S
C108 C107 1.384 . S
C108 H126 0.928 . S
C109 C106 1.260 . S
C109 C107 1.479 . S
C110 C105 1.245 . S
C110 C106 1.477 . S
C110 H127 0.932 . S
C111 U94 2.882 1_554 S
C111 C105 1.428 . S
C111 O114 1.301 . S
C111 O115 1.282 . S
O112 U94 2.441 . S
O112 C98 1.249 . S
O113 U94 2.420 . S
O113 C98 1.202 . S
O114 U94 2.455 1_554 S
O114 C111 1.301 . S
O115 U94 2.449 1_554 S
O115 C111 1.282 . S
H116 C89 0.931 . S
H117 C91 0.929 . S
H118 C92 0.930 . S
H119 C93 0.931 . S
H120 C100 0.932 . S
H121 C101 0.930 . S
H122 C102 0.929 . S
H123 C104 0.930 . S
H124 C106 0.932 . S
H125 C107 0.929 . S
H126 C108 0.928 . S
H127 C110 0.932 . S
C128 C129 1.264 . S
C128 C133 1.479 . S
C128 C138 1.465 . S
C129 C128 1.264 . S
C129 C131 1.339 . S
C129 H156 0.931 . S
C130 C131 1.395 . S
C130 C132 1.320 . S
C131 C129 1.339 . S
C131 C130 1.395 . S
C131 H157 0.929 . S
C132 C130 1.320 . S
C132 C133 1.405 . S
C132 H158 0.930 . S
C133 C128 1.479 . S
C133 C132 1.405 . S
C133 H159 0.931 . S
U134 O135 2.454 1_655 S
U134 O136 2.458 1_655 S
U134 C137 2.984 1_655 S
U134 C138 2.847 . S
U134 C151 2.882 . S
U134 O152 2.441 . S
U134 O153 2.420 . S
U134 O154 2.455 . S
U134 O155 2.449 . S
O135 U134 2.454 1_455 S
O135 C137 1.353 . S
O136 U134 2.458 1_455 S
O136 C137 1.286 . S
C137 U134 2.984 1_455 S
C137 O135 1.353 . S
C137 O136 1.286 . S
C137 C139 1.363 . S
C138 C128 1.465 . S
C138 U134 2.847 . S
C138 O152 1.249 . S
C138 O153 1.202 . S
C139 C137 1.363 . S
C139 C141 1.408 . S
C139 C144 1.342 . S
C140 C141 1.310 . S
C140 C143 1.461 . S
C140 H160 0.932 . S
C141 C139 1.408 . S
C141 C140 1.310 . S
C141 H161 0.930 . S
C142 C143 1.474 . S
C142 C144 1.285 . S
C142 H162 0.929 . S
C143 C140 1.461 . S
C143 C142 1.474 . S
C144 C139 1.342 . S
C144 C142 1.285 . S
C144 H163 0.930 . S
C145 C148 1.424 . S
C145 C150 1.245 . S
C145 C151 1.428 . S
C146 C149 1.260 . S
C146 C150 1.477 . S
C146 H164 0.932 . S
C147 C148 1.384 . S
C147 C149 1.479 . S
C147 H165 0.929 . S
C148 C145 1.424 . S
C148 C147 1.384 . S
C148 H166 0.928 . S
C149 C146 1.260 . S
C149 C147 1.479 . S
C150 C145 1.245 . S
C150 C146 1.477 . S
C150 H167 0.932 . S
C151 U134 2.882 . S
C151 C145 1.428 . S
C151 O154 1.301 . S
C151 O155 1.282 . S
O152 U134 2.441 . S
O152 C138 1.249 . S
O153 U134 2.420 . S
O153 C138 1.202 . S
O154 U134 2.455 . S
O154 C151 1.301 . S
O155 U134 2.449 . S
O155 C151 1.282 . S
H156 C129 0.931 . S
H157 C131 0.929 . S
H158 C132 0.930 . S
H159 C133 0.931 . S
H160 C140 0.932 . S
H161 C141 0.930 . S
H162 C142 0.929 . S
H163 C144 0.930 . S
H164 C146 0.932 . S
H165 C147 0.929 . S
H166 C148 0.928 . S
H167 C150 0.932 . S
C168 C169 1.264 . S
C168 C173 1.479 . S
C168 C178 1.465 . S
C169 C168 1.264 . S
C169 C171 1.339 . S
C169 H196 0.931 . S
C170 C171 1.395 . S
C170 C172 1.320 . S
C171 C169 1.339 . S
C171 C170 1.395 . S
C171 H197 0.929 . S
C172 C170 1.320 . S
C172 C173 1.405 . S
C172 H198 0.930 . S
C173 C168 1.479 . S
C173 C172 1.405 . S
C173 H199 0.931 . S
U174 O175 2.454 . S
U174 O176 2.458 1_554 S
U174 C177 2.984 . S
U174 C178 2.847 . S
U174 C191 2.882 1_554 S
U174 O192 2.441 . S
U174 O193 2.420 . S
U174 O194 2.455 1_554 S
U174 O195 2.449 1_554 S
O175 U174 2.454 . S
O175 C177 1.353 . S
O176 U174 2.458 1_556 S
O176 C177 1.286 1_556 S
C177 U174 2.984 . S
C177 O175 1.353 . S
C177 O176 1.286 1_554 S
C177 C179 1.363 . S
C178 C168 1.465 . S
C178 U174 2.847 . S
C178 O192 1.249 . S
C178 O193 1.202 . S
C179 C177 1.363 . S
C179 C181 1.408 . S
C179 C184 1.342 1_554 S
C180 C181 1.310 . S
C180 C183 1.461 . S
C180 H200 0.932 . S
C181 C179 1.408 . S
C181 C180 1.310 . S
C181 H201 0.930 . S
C182 C183 1.474 1_556 S
C182 C184 1.285 . S
C182 H202 0.929 . S
C183 C180 1.461 . S
C183 C182 1.474 1_554 S
C184 C179 1.342 1_556 S
C184 C182 1.285 . S
C184 H203 0.930 . S
C185 C188 1.424 . S
C185 C190 1.245 . S
C185 C191 1.428 . S
C186 C189 1.260 . S
C186 C190 1.477 . S
C186 H204 0.932 . S
C187 C188 1.384 . S
C187 C189 1.479 . S
C187 H205 0.929 . S
C188 C185 1.424 . S
C188 C187 1.384 . S
C188 H206 0.928 . S
C189 C186 1.260 . S
C189 C187 1.479 . S
C190 C185 1.245 . S
C190 C186 1.477 . S
C190 H207 0.932 . S
C191 U174 2.882 1_556 S
C191 C185 1.428 . S
C191 O194 1.301 . S
C191 O195 1.282 . S
O192 U174 2.441 . S
O192 C178 1.249 . S
O193 U174 2.420 . S
O193 C178 1.202 . S
O194 U174 2.455 1_556 S
O194 C191 1.301 . S
O195 U174 2.449 1_556 S
O195 C191 1.282 . S
H196 C169 0.931 . S
H197 C171 0.929 . S
H198 C172 0.930 . S
H199 C173 0.931 . S
H200 C180 0.932 . S
H201 C181 0.930 . S
H202 C182 0.929 . S
H203 C184 0.930 . S
H204 C186 0.932 . S
H205 C187 0.929 . S
H206 C188 0.928 . S
H207 C190 0.932 . S
C208 C209 1.264 . S
C208 C213 1.479 . S
C208 C218 1.465 . S
C209 C208 1.264 . S
C209 C211 1.339 . S
C209 H236 0.931 . S
C210 C211 1.395 . S
C210 C212 1.320 . S
C211 C209 1.339 . S
C211 C210 1.395 . S
C211 H237 0.929 . S
C212 C210 1.320 . S
C212 C213 1.405 . S
C212 H238 0.930 . S
C213 C208 1.479 . S
C213 C212 1.405 . S
C213 H239 0.931 . S
U214 O215 2.454 1_455 S
U214 O216 2.458 1_455 S
U214 C217 2.984 1_455 S
U214 C218 2.847 . S
U214 C231 2.882 . S
U214 O232 2.441 . S
U214 O233 2.420 . S
U214 O234 2.455 . S
U214 O235 2.449 . S
O215 U214 2.454 1_655 S
O215 C217 1.353 . S
O216 U214 2.458 1_655 S
O216 C217 1.286 . S
C217 U214 2.984 1_655 S
C217 O215 1.353 . S
C217 O216 1.286 . S
C217 C219 1.363 . S
C218 C208 1.465 . S
C218 U214 2.847 . S
C218 O232 1.249 . S
C218 O233 1.202 . S
C219 C217 1.363 . S
C219 C221 1.408 . S
C219 C224 1.342 . S
C220 C221 1.310 . S
C220 C223 1.461 . S
C220 H240 0.932 . S
C221 C219 1.408 . S
C221 C220 1.310 . S
C221 H241 0.930 . S
C222 C223 1.474 . S
C222 C224 1.285 . S
C222 H242 0.929 . S
C223 C220 1.461 . S
C223 C222 1.474 . S
C224 C219 1.342 . S
C224 C222 1.285 . S
C224 H243 0.930 . S
C225 C228 1.424 . S
C225 C230 1.245 . S
C225 C231 1.428 . S
C226 C229 1.260 . S
C226 C230 1.477 . S
C226 H244 0.932 . S
C227 C228 1.384 . S
C227 C229 1.479 . S
C227 H245 0.929 . S
C228 C225 1.424 . S
C228 C227 1.384 . S
C228 H246 0.928 . S
C229 C226 1.260 . S
C229 C227 1.479 . S
C230 C225 1.245 . S
C230 C226 1.477 . S
C230 H247 0.932 . S
C231 U214 2.882 . S
C231 C225 1.428 . S
C231 O234 1.301 . S
C231 O235 1.282 . S
O232 U214 2.441 . S
O232 C218 1.249 . S
O233 U214 2.420 . S
O233 C218 1.202 . S
O234 U214 2.455 . S
O234 C231 1.301 . S
O235 U214 2.449 . S
O235 C231 1.282 . S
H236 C209 0.931 . S
H237 C211 0.929 . S
H238 C212 0.930 . S
H239 C213 0.931 . S
H240 C220 0.932 . S
H241 C221 0.930 . S
H242 C222 0.929 . S
H243 C224 0.930 . S
H244 C226 0.932 . S
H245 C227 0.929 . S
H246 C228 0.928 . S
H247 C230 0.932 . S
C248 C249 1.264 . S
C248 C253 1.479 . S
C248 C258 1.465 . S
C249 C248 1.264 . S
C249 C251 1.339 . S
C249 H276 0.931 . S
C250 C251 1.395 . S
C250 C252 1.320 . S
C251 C249 1.339 . S
C251 C250 1.395 . S
C251 H277 0.929 . S
C252 C250 1.320 . S
C252 C253 1.405 . S
C252 H278 0.930 . S
C253 C248 1.479 . S
C253 C252 1.405 . S
C253 H279 0.931 . S
U254 O255 2.454 1_565 S
U254 O256 2.458 1_565 S
U254 C257 2.984 1_565 S
U254 C258 2.847 . S
U254 C271 2.882 . S
U254 O272 2.441 . S
U254 O273 2.420 . S
U254 O274 2.455 . S
U254 O275 2.449 . S
O255 U254 2.454 1_545 S
O255 C257 1.353 . S
O256 U254 2.458 1_545 S
O256 C257 1.286 . S
C257 U254 2.984 1_545 S
C257 O255 1.353 . S
C257 O256 1.286 . S
C257 C259 1.363 . S
C258 C248 1.465 . S
C258 U254 2.847 . S
C258 O272 1.249 . S
C258 O273 1.202 . S
C259 C257 1.363 . S
C259 C261 1.408 . S
C259 C264 1.342 . S
C260 C261 1.310 . S
C260 C263 1.461 . S
C260 H280 0.932 . S
C261 C259 1.408 . S
C261 C260 1.310 . S
C261 H281 0.930 . S
C262 C263 1.474 . S
C262 C264 1.285 . S
C262 H282 0.929 . S
C263 C260 1.461 . S
C263 C262 1.474 . S
C264 C259 1.342 . S
C264 C262 1.285 . S
C264 H283 0.930 . S
C265 C268 1.424 . S
C265 C270 1.245 . S
C265 C271 1.428 . S
C266 C269 1.260 . S
C266 C270 1.477 . S
C266 H284 0.932 . S
C267 C268 1.384 . S
C267 C269 1.479 . S
C267 H285 0.929 . S
C268 C265 1.424 . S
C268 C267 1.384 . S
C268 H286 0.928 . S
C269 C266 1.260 . S
C269 C267 1.479 . S
C270 C265 1.245 . S
C270 C266 1.477 . S
C270 H287 0.932 . S
C271 U254 2.882 . S
C271 C265 1.428 . S
C271 O274 1.301 . S
C271 O275 1.282 . S
O272 U254 2.441 . S
O272 C258 1.249 . S
O273 U254 2.420 . S
O273 C258 1.202 . S
O274 U254 2.455 . S
O274 C271 1.301 . S
O275 U254 2.449 . S
O275 C271 1.282 . S
H276 C249 0.931 . S
H277 C251 0.929 . S
H278 C252 0.930 . S
H279 C253 0.931 . S
H280 C260 0.932 . S
H281 C261 0.930 . S
H282 C262 0.929 . S
H283 C264 0.930 . S
H284 C266 0.932 . S
H285 C267 0.929 . S
H286 C268 0.928 . S
H287 C270 0.932 . S
C288 C289 1.264 . S
C288 C293 1.479 . S
C288 C298 1.465 . S
C289 C288 1.264 . S
C289 C291 1.339 . S
C289 H316 0.931 . S
C290 C291 1.395 . S
C290 C292 1.320 . S
C291 C289 1.339 . S
C291 C290 1.395 . S
C291 H317 0.929 . S
C292 C290 1.320 . S
C292 C293 1.405 . S
C292 H318 0.930 . S
C293 C288 1.479 . S
C293 C292 1.405 . S
C293 H319 0.931 . S
U294 O295 2.454 1_554 S
U294 O296 2.458 . S
U294 C297 2.984 . S
U294 C298 2.847 1_554 S
U294 C311 2.882 . S
U294 O312 2.441 1_554 S
U294 O313 2.420 1_554 S
U294 O314 2.455 . S
U294 O315 2.449 . S
O295 U294 2.454 1_556 S
O295 C297 1.353 1_556 S
O296 U294 2.458 . S
O296 C297 1.286 . S
C297 U294 2.984 . S
C297 O295 1.353 1_554 S
C297 O296 1.286 . S
C297 C299 1.363 . S
C298 C288 1.465 . S
C298 U294 2.847 1_556 S
C298 O312 1.249 . S
C298 O313 1.202 . S
C299 C297 1.363 . S
C299 C301 1.408 1_554 S
C299 C304 1.342 . S
C300 C301 1.310 . S
C300 C303 1.461 1_556 S
C300 H320 0.932 . S
C301 C299 1.408 1_556 S
C301 C300 1.310 . S
C301 H321 0.930 . S
C302 C303 1.474 . S
C302 C304 1.285 . S
C302 H322 0.929 . S
C303 C300 1.461 1_554 S
C303 C302 1.474 . S
C304 C299 1.342 . S
C304 C302 1.285 . S
C304 H323 0.930 . S
C305 C308 1.424 . S
C305 C310 1.245 . S
C305 C311 1.428 . S
C306 C309 1.260 . S
C306 C310 1.477 . S
C306 H324 0.932 . S
C307 C308 1.384 . S
C307 C309 1.479 . S
C307 H325 0.929 . S
C308 C305 1.424 . S
C308 C307 1.384 . S
C308 H326 0.928 . S
C309 C306 1.260 . S
C309 C307 1.479 . S
C310 C305 1.245 . S
C310 C306 1.477 . S
C310 H327 0.932 . S
C311 U294 2.882 . S
C311 C305 1.428 . S
C311 O314 1.301 . S
C311 O315 1.282 . S
O312 U294 2.441 1_556 S
O312 C298 1.249 . S
O313 U294 2.420 1_556 S
O313 C298 1.202 . S
O314 U294 2.455 . S
O314 C311 1.301 . S
O315 U294 2.449 . S
O315 C311 1.282 . S
H316 C289 0.931 . S
H317 C291 0.929 . S
H318 C292 0.930 . S
H319 C293 0.931 . S
H320 C300 0.932 . S
H321 C301 0.930 . S
H322 C302 0.929 . S
H323 C304 0.930 . S
H324 C306 0.932 . S
H325 C307 0.929 . S
H326 C308 0.928 . S
H327 C310 0.932 . S
C328 C329 1.264 . S
C328 C333 1.479 . S
C328 C338 1.465 . S
C329 C328 1.264 . S
C329 C331 1.339 . S
C329 H356 0.931 . S
C330 C331 1.395 . S
C330 C332 1.320 . S
C331 C329 1.339 . S
C331 C330 1.395 . S
C331 H357 0.929 . S
C332 C330 1.320 . S
C332 C333 1.405 . S
C332 H358 0.930 . S
C333 C328 1.479 . S
C333 C332 1.405 . S
C333 H359 0.931 . S
U334 O335 2.454 1_545 S
U334 O336 2.458 1_545 S
U334 C337 2.984 1_545 S
U334 C338 2.847 . S
U334 C351 2.882 . S
U334 O352 2.441 . S
U334 O353 2.420 . S
U334 O354 2.455 . S
U334 O355 2.449 . S
O335 U334 2.454 1_565 S
O335 C337 1.353 . S
O336 U334 2.458 1_565 S
O336 C337 1.286 . S
C337 U334 2.984 1_565 S
C337 O335 1.353 . S
C337 O336 1.286 . S
C337 C339 1.363 . S
C338 C328 1.465 . S
C338 U334 2.847 . S
C338 O352 1.249 . S
C338 O353 1.202 . S
C339 C337 1.363 . S
C339 C341 1.408 . S
C339 C344 1.342 . S
C340 C341 1.310 . S
C340 C343 1.461 . S
C340 H360 0.932 . S
C341 C339 1.408 . S
C341 C340 1.310 . S
C341 H361 0.930 . S
C342 C343 1.474 . S
C342 C344 1.285 . S
C342 H362 0.929 . S
C343 C340 1.461 . S
C343 C342 1.474 . S
C344 C339 1.342 . S
C344 C342 1.285 . S
C344 H363 0.930 . S
C345 C348 1.424 . S
C345 C350 1.245 . S
C345 C351 1.428 . S
C346 C349 1.260 . S
C346 C350 1.477 . S
C346 H364 0.932 . S
C347 C348 1.384 . S
C347 C349 1.479 . S
C347 H365 0.929 . S
C348 C345 1.424 . S
C348 C347 1.384 . S
C348 H366 0.928 . S
C349 C346 1.260 . S
C349 C347 1.479 . S
C350 C345 1.245 . S
C350 C346 1.477 . S
C350 H367 0.932 . S
C351 U334 2.882 . S
C351 C345 1.428 . S
C351 O354 1.301 . S
C351 O355 1.282 . S
O352 U334 2.441 . S
O352 C338 1.249 . S
O353 U334 2.420 . S
O353 C338 1.202 . S
O354 U334 2.455 . S
O354 C351 1.301 . S
O355 U334 2.449 . S
O355 C351 1.282 . S
H356 C329 0.931 . S
H357 C331 0.929 . S
H358 C332 0.930 . S
H359 C333 0.931 . S
H360 C340 0.932 . S
H361 C341 0.930 . S
H362 C342 0.929 . S
H363 C344 0.930 . S
H364 C346 0.932 . S
H365 C347 0.929 . S
H366 C348 0.928 . S
H367 C350 0.932 . S
C368 C369 1.264 . S
C368 C373 1.479 . S
C368 C378 1.465 . S
C369 C368 1.264 . S
C369 C371 1.339 . S
C369 H396 0.931 . S
C370 C371 1.395 . S
C370 C372 1.320 . S
C371 C369 1.339 . S
C371 C370 1.395 . S
C371 H397 0.929 . S
C372 C370 1.320 . S
C372 C373 1.405 . S
C372 H398 0.930 . S
C373 C368 1.479 . S
C373 C372 1.405 . S
C373 H399 0.931 . S
U374 O375 2.454 . S
U374 O376 2.458 1_554 S
U374 C377 2.984 . S
U374 C378 2.847 . S
U374 C391 2.882 1_554 S
U374 O392 2.441 . S
U374 O393 2.420 . S
U374 O394 2.455 1_554 S
U374 O395 2.449 1_554 S
O375 U374 2.454 . S
O375 C377 1.353 . S
O376 U374 2.458 1_556 S
O376 C377 1.286 1_556 S
C377 U374 2.984 . S
C377 O375 1.353 . S
C377 O376 1.286 1_554 S
C377 C379 1.363 . S
C378 C368 1.465 . S
C378 U374 2.847 . S
C378 O392 1.249 . S
C378 O393 1.202 . S
C379 C377 1.363 . S
C379 C381 1.408 . S
C379 C384 1.342 1_554 S
C380 C381 1.310 . S
C380 C383 1.461 . S
C380 H400 0.932 . S
C381 C379 1.408 . S
C381 C380 1.310 . S
C381 H401 0.930 . S
C382 C383 1.474 1_556 S
C382 C384 1.285 . S
C382 H402 0.929 . S
C383 C380 1.461 . S
C383 C382 1.474 1_554 S
C384 C379 1.342 1_556 S
C384 C382 1.285 . S
C384 H403 0.930 . S
C385 C388 1.424 . S
C385 C390 1.245 . S
C385 C391 1.428 . S
C386 C389 1.260 . S
C386 C390 1.477 . S
C386 H404 0.932 . S
C387 C388 1.384 . S
C387 C389 1.479 . S
C387 H405 0.929 . S
C388 C385 1.424 . S
C388 C387 1.384 . S
C388 H406 0.928 . S
C389 C386 1.260 . S
C389 C387 1.479 . S
C390 C385 1.245 . S
C390 C386 1.477 . S
C390 H407 0.932 . S
C391 U374 2.882 1_556 S
C391 C385 1.428 . S
C391 O394 1.301 . S
C391 O395 1.282 . S
O392 U374 2.441 . S
O392 C378 1.249 . S
O393 U374 2.420 . S
O393 C378 1.202 . S
O394 U374 2.455 1_556 S
O394 C391 1.301 . S
O395 U374 2.449 1_556 S
O395 C391 1.282 . S
H396 C369 0.931 . S
H397 C371 0.929 . S
H398 C372 0.930 . S
H399 C373 0.931 . S
H400 C380 0.932 . S
H401 C381 0.930 . S
H402 C382 0.929 . S
H403 C384 0.930 . S
H404 C386 0.932 . S
H405 C387 0.929 . S
H406 C388 0.928 . S
H407 C390 0.932 . S
C408 C409 1.391 . S
C408 C410 1.394 . S
C408 H424 0.931 . S
C409 C408 1.391 . S
C409 C413 1.376 . S
C410 C408 1.394 . S
C410 C411 1.369 . S
C410 C414 1.531 . S
C411 C410 1.369 . S
C411 C412 1.410 . S
C411 C419 1.503 . S
C412 C411 1.410 . S
C412 C413 1.392 . S
C412 C415 1.511 . S
C413 C409 1.376 . S
C413 C412 1.392 . S
C413 H425 0.929 . S
C414 C410 1.531 . S
C414 H426 0.960 . S
C414 H427 0.962 . S
C414 H428 0.960 . S
C415 C412 1.511 . S
C415 H429 0.961 . S
C415 H430 0.961 . S
C415 H431 0.961 . S
C416 C417 1.370 . S
C416 C418 1.363 . S
C416 H432 0.931 . S
C417 C416 1.370 . S
C417 C421 1.408 . S
C418 C416 1.363 . S
C418 C419 1.370 . S
C418 C422 1.524 . S
C419 C411 1.503 . S
C419 C418 1.370 . S
C419 C420 1.403 . S
C420 C419 1.403 . S
C420 C421 1.404 . S
C420 C423 1.539 . S
C421 C417 1.408 . S
C421 C420 1.404 . S
C421 H433 0.930 . S
C422 C418 1.524 . S
C422 H434 0.956 . S
C422 H435 0.961 . S
C422 H436 0.961 . S
C423 C420 1.539 . S
C423 H437 0.958 . S
C423 H438 0.961 . S
C423 H439 0.960 . S
H424 C408 0.931 . S
H425 C413 0.929 . S
H426 C414 0.960 . S
H427 C414 0.962 . S
H428 C414 0.960 . S
H429 C415 0.961 . S
H430 C415 0.961 . S
H431 C415 0.961 . S
H432 C416 0.931 . S
H433 C421 0.930 . S
H434 C422 0.956 . S
H435 C422 0.961 . S
H436 C422 0.961 . S
H437 C423 0.958 . S
H438 C423 0.961 . S
H439 C423 0.960 . S
C440 C441 1.391 . S
C440 C442 1.394 . S
C440 H456 0.931 . S
C441 C440 1.391 . S
C441 C445 1.376 . S
C442 C440 1.394 . S
C442 C443 1.369 . S
C442 C446 1.531 . S
C443 C442 1.369 . S
C443 C444 1.410 . S
C443 C451 1.503 . S
C444 C443 1.410 . S
C444 C445 1.392 . S
C444 C447 1.511 . S
C445 C441 1.376 . S
C445 C444 1.392 . S
C445 H457 0.929 . S
C446 C442 1.531 . S
C446 H458 0.960 . S
C446 H459 0.962 . S
C446 H460 0.960 . S
C447 C444 1.511 . S
C447 H461 0.961 . S
C447 H462 0.961 . S
C447 H463 0.961 . S
C448 C449 1.370 . S
C448 C450 1.363 . S
C448 H464 0.931 . S
C449 C448 1.370 . S
C449 C453 1.408 . S
C450 C448 1.363 . S
C450 C451 1.370 . S
C450 C454 1.524 . S
C451 C443 1.503 . S
C451 C450 1.370 . S
C451 C452 1.403 . S
C452 C451 1.403 . S
C452 C453 1.404 . S
C452 C455 1.539 . S
C453 C449 1.408 . S
C453 C452 1.404 . S
C453 H465 0.930 . S
C454 C450 1.524 . S
C454 H466 0.956 . S
C454 H467 0.961 . S
C454 H468 0.961 . S
C455 C452 1.539 . S
C455 H469 0.958 . S
C455 H470 0.961 . S
C455 H471 0.960 . S
H456 C440 0.931 . S
H457 C445 0.929 . S
H458 C446 0.960 . S
H459 C446 0.962 . S
H460 C446 0.960 . S
H461 C447 0.961 . S
H462 C447 0.961 . S
H463 C447 0.961 . S
H464 C448 0.931 . S
H465 C453 0.930 . S
H466 C454 0.956 . S
H467 C454 0.961 . S
H468 C454 0.961 . S
H469 C455 0.958 . S
H470 C455 0.961 . S
H471 C455 0.960 . S
C472 C473 1.391 . S
C472 C474 1.394 . S
C472 H488 0.931 . S
C473 C472 1.391 . S
C473 C477 1.376 . S
C474 C472 1.394 . S
C474 C475 1.369 . S
C474 C478 1.531 . S
C475 C474 1.369 . S
C475 C476 1.410 . S
C475 C483 1.503 . S
C476 C475 1.410 . S
C476 C477 1.392 . S
C476 C479 1.511 . S
C477 C473 1.376 . S
C477 C476 1.392 . S
C477 H489 0.929 . S
C478 C474 1.531 . S
C478 H490 0.960 . S
C478 H491 0.962 . S
C478 H492 0.960 . S
C479 C476 1.511 . S
C479 H493 0.961 . S
C479 H494 0.961 . S
C479 H495 0.961 . S
C480 C481 1.370 . S
C480 C482 1.363 . S
C480 H496 0.931 . S
C481 C480 1.370 . S
C481 C485 1.408 . S
C482 C480 1.363 . S
C482 C483 1.370 . S
C482 C486 1.524 . S
C483 C475 1.503 . S
C483 C482 1.370 . S
C483 C484 1.403 . S
C484 C483 1.403 . S
C484 C485 1.404 . S
C484 C487 1.539 . S
C485 C481 1.408 . S
C485 C484 1.404 . S
C485 H497 0.930 . S
C486 C482 1.524 . S
C486 H498 0.956 . S
C486 H499 0.961 . S
C486 H500 0.961 . S
C487 C484 1.539 . S
C487 H501 0.958 . S
C487 H502 0.961 . S
C487 H503 0.960 . S
H488 C472 0.931 . S
H489 C477 0.929 . S
H490 C478 0.960 . S
H491 C478 0.962 . S
H492 C478 0.960 . S
H493 C479 0.961 . S
H494 C479 0.961 . S
H495 C479 0.961 . S
H496 C480 0.931 . S
H497 C485 0.930 . S
H498 C486 0.956 . S
H499 C486 0.961 . S
H500 C486 0.961 . S
H501 C487 0.958 . S
H502 C487 0.961 . S
H503 C487 0.960 . S
C504 C505 1.391 . S
C504 C506 1.394 . S
C504 H520 0.931 . S
C505 C504 1.391 . S
C505 C509 1.376 . S
C506 C504 1.394 . S
C506 C507 1.369 . S
C506 C510 1.531 . S
C507 C506 1.369 . S
C507 C508 1.410 . S
C507 C515 1.503 . S
C508 C507 1.410 . S
C508 C509 1.392 . S
C508 C511 1.511 . S
C509 C505 1.376 . S
C509 C508 1.392 . S
C509 H521 0.929 . S
C510 C506 1.531 . S
C510 H522 0.960 . S
C510 H523 0.962 . S
C510 H524 0.960 . S
C511 C508 1.511 . S
C511 H525 0.961 . S
C511 H526 0.961 . S
C511 H527 0.961 . S
C512 C513 1.370 . S
C512 C514 1.363 . S
C512 H528 0.931 . S
C513 C512 1.370 . S
C513 C517 1.408 . S
C514 C512 1.363 . S
C514 C515 1.370 . S
C514 C518 1.524 . S
C515 C507 1.503 . S
C515 C514 1.370 . S
C515 C516 1.403 . S
C516 C515 1.403 . S
C516 C517 1.404 . S
C516 C519 1.539 . S
C517 C513 1.408 . S
C517 C516 1.404 . S
C517 H529 0.930 . S
C518 C514 1.524 . S
C518 H530 0.956 . S
C518 H531 0.961 . S
C518 H532 0.961 . S
C519 C516 1.539 . S
C519 H533 0.958 . S
C519 H534 0.961 . S
C519 H535 0.960 . S
H520 C504 0.931 . S
H521 C509 0.929 . S
H522 C510 0.960 . S
H523 C510 0.962 . S
H524 C510 0.960 . S
H525 C511 0.961 . S
H526 C511 0.961 . S
H527 C511 0.961 . S
H528 C512 0.931 . S
H529 C517 0.930 . S
H530 C518 0.956 . S
H531 C518 0.961 . S
H532 C518 0.961 . S
H533 C519 0.958 . S
H534 C519 0.961 . S
H535 C519 0.960 . S
C536 C537 1.391 . S
C536 C538 1.394 . S
C536 H552 0.931 . S
C537 C536 1.391 . S
C537 C541 1.376 . S
C538 C536 1.394 . S
C538 C539 1.369 . S
C538 C542 1.531 . S
C539 C538 1.369 . S
C539 C540 1.410 . S
C539 C547 1.503 . S
C540 C539 1.410 . S
C540 C541 1.392 . S
C540 C543 1.511 . S
C541 C537 1.376 . S
C541 C540 1.392 . S
C541 H553 0.929 . S
C542 C538 1.531 . S
C542 H554 0.960 . S
C542 H555 0.962 . S
C542 H556 0.960 . S
C543 C540 1.511 . S
C543 H557 0.961 . S
C543 H558 0.961 . S
C543 H559 0.961 . S
C544 C545 1.370 . S
C544 C546 1.363 . S
C544 H560 0.931 . S
C545 C544 1.370 . S
C545 C549 1.408 . S
C546 C544 1.363 . S
C546 C547 1.370 . S
C546 C550 1.524 . S
C547 C539 1.503 . S
C547 C546 1.370 . S
C547 C548 1.403 . S
C548 C547 1.403 . S
C548 C549 1.404 . S
C548 C551 1.539 . S
C549 C545 1.408 . S
C549 C548 1.404 . S
C549 H561 0.930 . S
C550 C546 1.524 . S
C550 H562 0.956 . S
C550 H563 0.961 . S
C550 H564 0.961 . S
C551 C548 1.539 . S
C551 H565 0.958 . S
C551 H566 0.961 . S
C551 H567 0.960 . S
H552 C536 0.931 . S
H553 C541 0.929 . S
H554 C542 0.960 . S
H555 C542 0.962 . S
H556 C542 0.960 . S
H557 C543 0.961 . S
H558 C543 0.961 . S
H559 C543 0.961 . S
H560 C544 0.931 . S
H561 C549 0.930 . S
H562 C550 0.956 . S
H563 C550 0.961 . S
H564 C550 0.961 . S
H565 C551 0.958 . S
H566 C551 0.961 . S
H567 C551 0.960 . S
C568 C569 1.391 . S
C568 C570 1.394 . S
C568 H584 0.931 . S
C569 C568 1.391 . S
C569 C573 1.376 . S
C570 C568 1.394 . S
C570 C571 1.369 . S
C570 C574 1.531 . S
C571 C570 1.369 . S
C571 C572 1.410 . S
C571 C579 1.503 . S
C572 C571 1.410 . S
C572 C573 1.392 . S
C572 C575 1.511 . S
C573 C569 1.376 . S
C573 C572 1.392 . S
C573 H585 0.929 . S
C574 C570 1.531 . S
C574 H586 0.960 . S
C574 H587 0.962 . S
C574 H588 0.960 . S
C575 C572 1.511 . S
C575 H589 0.961 . S
C575 H590 0.961 . S
C575 H591 0.961 . S
C576 C577 1.370 . S
C576 C578 1.363 . S
C576 H592 0.931 . S
C577 C576 1.370 . S
C577 C581 1.408 . S
C578 C576 1.363 . S
C578 C579 1.370 . S
C578 C582 1.524 . S
C579 C571 1.503 . S
C579 C578 1.370 . S
C579 C580 1.403 . S
C580 C579 1.403 . S
C580 C581 1.404 . S
C580 C583 1.539 . S
C581 C577 1.408 . S
C581 C580 1.404 . S
C581 H593 0.930 . S
C582 C578 1.524 . S
C582 H594 0.956 . S
C582 H595 0.961 . S
C582 H596 0.961 . S
C583 C580 1.539 . S
C583 H597 0.958 . S
C583 H598 0.961 . S
C583 H599 0.960 . S
H584 C568 0.931 . S
H585 C573 0.929 . S
H586 C574 0.960 . S
H587 C574 0.962 . S
H588 C574 0.960 . S
H589 C575 0.961 . S
H590 C575 0.961 . S
H591 C575 0.961 . S
H592 C576 0.931 . S
H593 C581 0.930 . S
H594 C582 0.956 . S
H595 C582 0.961 . S
H596 C582 0.961 . S
H597 C583 0.958 . S
H598 C583 0.961 . S
H599 C583 0.960 . S
C600 C601 1.391 . S
C600 C602 1.394 . S
C600 H616 0.931 . S
C601 C600 1.391 . S
C601 C605 1.376 . S
C602 C600 1.394 . S
C602 C603 1.369 . S
C602 C606 1.531 . S
C603 C602 1.369 . S
C603 C604 1.410 . S
C603 C611 1.503 . S
C604 C603 1.410 . S
C604 C605 1.392 . S
C604 C607 1.511 . S
C605 C601 1.376 . S
C605 C604 1.392 . S
C605 H617 0.929 . S
C606 C602 1.531 . S
C606 H618 0.960 . S
C606 H619 0.962 . S
C606 H620 0.960 . S
C607 C604 1.511 . S
C607 H621 0.961 . S
C607 H622 0.961 . S
C607 H623 0.961 . S
C608 C609 1.370 . S
C608 C610 1.363 . S
C608 H624 0.931 . S
C609 C608 1.370 . S
C609 C613 1.408 . S
C610 C608 1.363 . S
C610 C611 1.370 . S
C610 C614 1.524 . S
C611 C603 1.503 . S
C611 C610 1.370 . S
C611 C612 1.403 . S
C612 C611 1.403 . S
C612 C613 1.404 . S
C612 C615 1.539 . S
C613 C609 1.408 . S
C613 C612 1.404 . S
C613 H625 0.930 . S
C614 C610 1.524 . S
C614 H626 0.956 . S
C614 H627 0.961 . S
C614 H628 0.961 . S
C615 C612 1.539 . S
C615 H629 0.958 . S
C615 H630 0.961 . S
C615 H631 0.960 . S
H616 C600 0.931 . S
H617 C605 0.929 . S
H618 C606 0.960 . S
H619 C606 0.962 . S
H620 C606 0.960 . S
H621 C607 0.961 . S
H622 C607 0.961 . S
H623 C607 0.961 . S
H624 C608 0.931 . S
H625 C613 0.930 . S
H626 C614 0.956 . S
H627 C614 0.961 . S
H628 C614 0.961 . S
H629 C615 0.958 . S
H630 C615 0.961 . S
H631 C615 0.960 . S
C632 C633 1.391 . S
C632 C634 1.394 . S
C632 H648 0.931 . S
C633 C632 1.391 . S
C633 C637 1.376 . S
C634 C632 1.394 . S
C634 C635 1.369 . S
C634 C638 1.531 . S
C635 C634 1.369 . S
C635 C636 1.410 . S
C635 C643 1.503 . S
C636 C635 1.410 . S
C636 C637 1.392 . S
C636 C639 1.511 . S
C637 C633 1.376 . S
C637 C636 1.392 . S
C637 H649 0.929 . S
C638 C634 1.531 . S
C638 H650 0.960 . S
C638 H651 0.962 . S
C638 H652 0.960 . S
C639 C636 1.511 . S
C639 H653 0.961 . S
C639 H654 0.961 . S
C639 H655 0.961 . S
C640 C641 1.370 . S
C640 C642 1.363 . S
C640 H656 0.931 . S
C641 C640 1.370 . S
C641 C645 1.408 . S
C642 C640 1.363 . S
C642 C643 1.370 . S
C642 C646 1.524 . S
C643 C635 1.503 . S
C643 C642 1.370 . S
C643 C644 1.403 . S
C644 C643 1.403 . S
C644 C645 1.404 . S
C644 C647 1.539 . S
C645 C641 1.408 . S
C645 C644 1.404 . S
C645 H657 0.930 . S
C646 C642 1.524 . S
C646 H658 0.956 . S
C646 H659 0.961 . S
C646 H660 0.961 . S
C647 C644 1.539 . S
C647 H661 0.958 . S
C647 H662 0.961 . S
C647 H663 0.960 . S
H648 C632 0.931 . S
H649 C637 0.929 . S
H650 C638 0.960 . S
H651 C638 0.962 . S
H652 C638 0.960 . S
H653 C639 0.961 . S
H654 C639 0.961 . S
H655 C639 0.961 . S
H656 C640 0.931 . S
H657 C645 0.930 . S
H658 C646 0.956 . S
H659 C646 0.961 . S
H660 C646 0.961 . S
H661 C647 0.958 . S
H662 C647 0.961 . S
H663 C647 0.960 . S
C664 C665 1.391 . S
C664 C666 1.394 . S
C664 H680 0.931 . S
C665 C664 1.391 . S
C665 C669 1.376 . S
C666 C664 1.394 . S
C666 C667 1.369 . S
C666 C670 1.531 . S
C667 C666 1.369 . S
C667 C668 1.410 . S
C667 C675 1.503 . S
C668 C667 1.410 . S
C668 C669 1.392 . S
C668 C671 1.511 . S
C669 C665 1.376 . S
C669 C668 1.392 . S
C669 H681 0.929 . S
C670 C666 1.531 . S
C670 H682 0.960 . S
C670 H683 0.962 . S
C670 H684 0.960 . S
C671 C668 1.511 . S
C671 H685 0.961 . S
C671 H686 0.961 . S
C671 H687 0.961 . S
C672 C673 1.370 . S
C672 C674 1.363 . S
C672 H688 0.931 . S
C673 C672 1.370 . S
C673 C677 1.408 . S
C674 C672 1.363 . S
C674 C675 1.370 . S
C674 C678 1.524 . S
C675 C667 1.503 . S
C675 C674 1.370 . S
C675 C676 1.403 . S
C676 C675 1.403 . S
C676 C677 1.404 . S
C676 C679 1.539 . S
C677 C673 1.408 . S
C677 C676 1.404 . S
C677 H689 0.930 . S
C678 C674 1.524 . S
C678 H690 0.956 . S
C678 H691 0.961 . S
C678 H692 0.961 . S
C679 C676 1.539 . S
C679 H693 0.958 . S
C679 H694 0.961 . S
C679 H695 0.960 . S
H680 C664 0.931 . S
H681 C669 0.929 . S
H682 C670 0.960 . S
H683 C670 0.962 . S
H684 C670 0.960 . S
H685 C671 0.961 . S
H686 C671 0.961 . S
H687 C671 0.961 . S
H688 C672 0.931 . S
H689 C677 0.930 . S
H690 C678 0.956 . S
H691 C678 0.961 . S
H692 C678 0.961 . S
H693 C679 0.958 . S
H694 C679 0.961 . S
H695 C679 0.960 . S
C696 C697 1.391 . S
C696 C698 1.394 . S
C696 H712 0.931 . S
C697 C696 1.391 . S
C697 C701 1.376 . S
C698 C696 1.394 . S
C698 C699 1.369 . S
C698 C702 1.531 . S
C699 C698 1.369 . S
C699 C700 1.410 . S
C699 C707 1.503 . S
C700 C699 1.410 . S
C700 C701 1.392 . S
C700 C703 1.511 . S
C701 C697 1.376 . S
C701 C700 1.392 . S
C701 H713 0.929 . S
C702 C698 1.531 . S
C702 H714 0.960 . S
C702 H715 0.962 . S
C702 H716 0.960 . S
C703 C700 1.511 . S
C703 H717 0.961 . S
C703 H718 0.961 . S
C703 H719 0.961 . S
C704 C705 1.370 . S
C704 C706 1.363 . S
C704 H720 0.931 . S
C705 C704 1.370 . S
C705 C709 1.408 . S
C706 C704 1.363 . S
C706 C707 1.370 . S
C706 C710 1.524 . S
C707 C699 1.503 . S
C707 C706 1.370 . S
C707 C708 1.403 . S
C708 C707 1.403 . S
C708 C709 1.404 . S
C708 C711 1.539 . S
C709 C705 1.408 . S
C709 C708 1.404 . S
C709 H721 0.930 . S
C710 C706 1.524 . S
C710 H722 0.956 . S
C710 H723 0.961 . S
C710 H724 0.961 . S
C711 C708 1.539 . S
C711 H725 0.958 . S
C711 H726 0.961 . S
C711 H727 0.960 . S
H712 C696 0.931 . S
H713 C701 0.929 . S
H714 C702 0.960 . S
H715 C702 0.962 . S
H716 C702 0.960 . S
H717 C703 0.961 . S
H718 C703 0.961 . S
H719 C703 0.961 . S
H720 C704 0.931 . S
H721 C709 0.930 . S
H722 C710 0.956 . S
H723 C710 0.961 . S
H724 C710 0.961 . S
H725 C711 0.958 . S
H726 C711 0.961 . S
H727 C711 0.960 . S
C728 C729 1.391 . S
C728 C730 1.394 . S
C728 H744 0.931 . S
C729 C728 1.391 . S
C729 C733 1.376 . S
C730 C728 1.394 . S
C730 C731 1.369 . S
C730 C734 1.531 . S
C731 C730 1.369 . S
C731 C732 1.410 . S
C731 C739 1.503 . S
C732 C731 1.410 . S
C732 C733 1.392 . S
C732 C735 1.511 . S
C733 C729 1.376 . S
C733 C732 1.392 . S
C733 H745 0.929 . S
C734 C730 1.531 . S
C734 H746 0.960 . S
C734 H747 0.962 . S
C734 H748 0.960 . S
C735 C732 1.511 . S
C735 H749 0.961 . S
C735 H750 0.961 . S
C735 H751 0.961 . S
C736 C737 1.370 . S
C736 C738 1.363 . S
C736 H752 0.931 . S
C737 C736 1.370 . S
C737 C741 1.408 . S
C738 C736 1.363 . S
C738 C739 1.370 . S
C738 C742 1.524 . S
C739 C731 1.503 . S
C739 C738 1.370 . S
C739 C740 1.403 . S
C740 C739 1.403 . S
C740 C741 1.404 . S
C740 C743 1.539 . S
C741 C737 1.408 . S
C741 C740 1.404 . S
C741 H753 0.930 . S
C742 C738 1.524 . S
C742 H754 0.956 . S
C742 H755 0.961 . S
C742 H756 0.961 . S
C743 C740 1.539 . S
C743 H757 0.958 . S
C743 H758 0.961 . S
C743 H759 0.960 . S
H744 C728 0.931 . S
H745 C733 0.929 . S
H746 C734 0.960 . S
H747 C734 0.962 . S
H748 C734 0.960 . S
H749 C735 0.961 . S
H750 C735 0.961 . S
H751 C735 0.961 . S
H752 C736 0.931 . S
H753 C741 0.930 . S
H754 C742 0.956 . S
H755 C742 0.961 . S
H756 C742 0.961 . S
H757 C743 0.958 . S
H758 C743 0.961 . S
H759 C743 0.960 . S
C760 C761 1.391 . S
C760 C762 1.394 . S
C760 H776 0.931 . S
C761 C760 1.391 . S
C761 C765 1.376 . S
C762 C760 1.394 . S
C762 C763 1.369 . S
C762 C766 1.531 . S
C763 C762 1.369 . S
C763 C764 1.410 . S
C763 C771 1.503 . S
C764 C763 1.410 . S
C764 C765 1.392 . S
C764 C767 1.511 . S
C765 C761 1.376 . S
C765 C764 1.392 . S
C765 H777 0.929 . S
C766 C762 1.531 . S
C766 H778 0.960 . S
C766 H779 0.962 . S
C766 H780 0.960 . S
C767 C764 1.511 . S
C767 H781 0.961 . S
C767 H782 0.961 . S
C767 H783 0.961 . S
C768 C769 1.370 . S
C768 C770 1.363 . S
C768 H784 0.931 . S
C769 C768 1.370 . S
C769 C773 1.408 . S
C770 C768 1.363 . S
C770 C771 1.370 . S
C770 C774 1.524 . S
C771 C763 1.503 . S
C771 C770 1.370 . S
C771 C772 1.403 . S
C772 C771 1.403 . S
C772 C773 1.404 . S
C772 C775 1.539 . S
C773 C769 1.408 . S
C773 C772 1.404 . S
C773 H785 0.930 . S
C774 C770 1.524 . S
C774 H786 0.956 . S
C774 H787 0.961 . S
C774 H788 0.961 . S
C775 C772 1.539 . S
C775 H789 0.958 . S
C775 H790 0.961 . S
C775 H791 0.960 . S
H776 C760 0.931 . S
H777 C765 0.929 . S
H778 C766 0.960 . S
H779 C766 0.962 . S
H780 C766 0.960 . S
H781 C767 0.961 . S
H782 C767 0.961 . S
H783 C767 0.961 . S
H784 C768 0.931 . S
H785 C773 0.930 . S
H786 C774 0.956 . S
H787 C774 0.961 . S
H788 C774 0.961 . S
H789 C775 0.958 . S
H790 C775 0.961 . S
H791 C775 0.960 . S
C792 C793 1.391 . S
C792 C794 1.394 . S
C792 H808 0.931 . S
C793 C792 1.391 . S
C793 C797 1.376 . S
C794 C792 1.394 . S
C794 C795 1.369 . S
C794 C798 1.531 . S
C795 C794 1.369 . S
C795 C796 1.410 . S
C795 C803 1.503 . S
C796 C795 1.410 . S
C796 C797 1.392 . S
C796 C799 1.511 . S
C797 C793 1.376 . S
C797 C796 1.392 . S
C797 H809 0.929 . S
C798 C794 1.531 . S
C798 H810 0.960 . S
C798 H811 0.962 . S
C798 H812 0.960 . S
C799 C796 1.511 . S
C799 H813 0.961 . S
C799 H814 0.961 . S
C799 H815 0.961 . S
C800 C801 1.370 . S
C800 C802 1.363 . S
C800 H816 0.931 . S
C801 C800 1.370 . S
C801 C805 1.408 . S
C802 C800 1.363 . S
C802 C803 1.370 . S
C802 C806 1.524 . S
C803 C795 1.503 . S
C803 C802 1.370 . S
C803 C804 1.403 . S
C804 C803 1.403 . S
C804 C805 1.404 . S
C804 C807 1.539 . S
C805 C801 1.408 . S
C805 C804 1.404 . S
C805 H817 0.930 . S
C806 C802 1.524 . S
C806 H818 0.956 . S
C806 H819 0.961 . S
C806 H820 0.961 . S
C807 C804 1.539 . S
C807 H821 0.958 . S
C807 H822 0.961 . S
C807 H823 0.960 . S
H808 C792 0.931 . S
H809 C797 0.929 . S
H810 C798 0.960 . S
H811 C798 0.962 . S
H812 C798 0.960 . S
H813 C799 0.961 . S
H814 C799 0.961 . S
H815 C799 0.961 . S
H816 C800 0.931 . S
H817 C805 0.930 . S
H818 C806 0.956 . S
H819 C806 0.961 . S
H820 C806 0.961 . S
H821 C807 0.958 . S
H822 C807 0.961 . S
H823 C807 0.960 . S
C824 C825 1.391 . S
C824 C826 1.394 . S
C824 H840 0.931 . S
C825 C824 1.391 . S
C825 C829 1.376 . S
C826 C824 1.394 . S
C826 C827 1.369 . S
C826 C830 1.531 . S
C827 C826 1.369 . S
C827 C828 1.410 . S
C827 C835 1.503 . S
C828 C827 1.410 . S
C828 C829 1.392 . S
C828 C831 1.511 . S
C829 C825 1.376 . S
C829 C828 1.392 . S
C829 H841 0.929 . S
C830 C826 1.531 . S
C830 H842 0.960 . S
C830 H843 0.962 . S
C830 H844 0.960 . S
C831 C828 1.511 . S
C831 H845 0.961 . S
C831 H846 0.961 . S
C831 H847 0.961 . S
C832 C833 1.370 . S
C832 C834 1.363 . S
C832 H848 0.931 . S
C833 C832 1.370 . S
C833 C837 1.408 . S
C834 C832 1.363 . S
C834 C835 1.370 . S
C834 C838 1.524 . S
C835 C827 1.503 . S
C835 C834 1.370 . S
C835 C836 1.403 . S
C836 C835 1.403 . S
C836 C837 1.404 . S
C836 C839 1.539 . S
C837 C833 1.408 . S
C837 C836 1.404 . S
C837 H849 0.930 . S
C838 C834 1.524 . S
C838 H850 0.956 . S
C838 H851 0.961 . S
C838 H852 0.961 . S
C839 C836 1.539 . S
C839 H853 0.958 . S
C839 H854 0.961 . S
C839 H855 0.960 . S
H840 C824 0.931 . S
H841 C829 0.929 . S
H842 C830 0.960 . S
H843 C830 0.962 . S
H844 C830 0.960 . S
H845 C831 0.961 . S
H846 C831 0.961 . S
H847 C831 0.961 . S
H848 C832 0.931 . S
H849 C837 0.930 . S
H850 C838 0.956 . S
H851 C838 0.961 . S
H852 C838 0.961 . S
H853 C839 0.958 . S
H854 C839 0.961 . S
H855 C839 0.960 . S
C856 C857 1.391 . S
C856 C858 1.394 . S
C856 H872 0.931 . S
C857 C856 1.391 . S
C857 C861 1.376 . S
C858 C856 1.394 . S
C858 C859 1.369 . S
C858 C862 1.531 . S
C859 C858 1.369 . S
C859 C860 1.410 . S
C859 C867 1.503 . S
C860 C859 1.410 . S
C860 C861 1.392 . S
C860 C863 1.511 . S
C861 C857 1.376 . S
C861 C860 1.392 . S
C861 H873 0.929 . S
C862 C858 1.531 . S
C862 H874 0.960 . S
C862 H875 0.962 . S
C862 H876 0.960 . S
C863 C860 1.511 . S
C863 H877 0.961 . S
C863 H878 0.961 . S
C863 H879 0.961 . S
C864 C865 1.370 . S
C864 C866 1.363 . S
C864 H880 0.931 . S
C865 C864 1.370 . S
C865 C869 1.408 . S
C866 C864 1.363 . S
C866 C867 1.370 . S
C866 C870 1.524 . S
C867 C859 1.503 . S
C867 C866 1.370 . S
C867 C868 1.403 . S
C868 C867 1.403 . S
C868 C869 1.404 . S
C868 C871 1.539 . S
C869 C865 1.408 . S
C869 C868 1.404 . S
C869 H881 0.930 . S
C870 C866 1.524 . S
C870 H882 0.956 . S
C870 H883 0.961 . S
C870 H884 0.961 . S
C871 C868 1.539 . S
C871 H885 0.958 . S
C871 H886 0.961 . S
C871 H887 0.960 . S
H872 C856 0.931 . S
H873 C861 0.929 . S
H874 C862 0.960 . S
H875 C862 0.962 . S
H876 C862 0.960 . S
H877 C863 0.961 . S
H878 C863 0.961 . S
H879 C863 0.961 . S
H880 C864 0.931 . S
H881 C869 0.930 . S
H882 C870 0.956 . S
H883 C870 0.961 . S
H884 C870 0.961 . S
H885 C871 0.958 . S
H886 C871 0.961 . S
H887 C871 0.960 . S
C888 C889 1.391 . S
C888 C890 1.394 . S
C888 H904 0.931 . S
C889 C888 1.391 . S
C889 C893 1.376 . S
C890 C888 1.394 . S
C890 C891 1.369 . S
C890 C894 1.531 . S
C891 C890 1.369 . S
C891 C892 1.410 . S
C891 C899 1.503 . S
C892 C891 1.410 . S
C892 C893 1.392 . S
C892 C895 1.511 . S
C893 C889 1.376 . S
C893 C892 1.392 . S
C893 H905 0.929 . S
C894 C890 1.531 . S
C894 H906 0.960 . S
C894 H907 0.962 . S
C894 H908 0.960 . S
C895 C892 1.511 . S
C895 H909 0.961 . S
C895 H910 0.961 . S
C895 H911 0.961 . S
C896 C897 1.370 . S
C896 C898 1.363 . S
C896 H912 0.931 . S
C897 C896 1.370 . S
C897 C901 1.408 . S
C898 C896 1.363 . S
C898 C899 1.370 . S
C898 C902 1.524 . S
C899 C891 1.503 . S
C899 C898 1.370 . S
C899 C900 1.403 . S
C900 C899 1.403 . S
C900 C901 1.404 . S
C900 C903 1.539 . S
C901 C897 1.408 . S
C901 C900 1.404 . S
C901 H913 0.930 . S
C902 C898 1.524 . S
C902 H914 0.956 . S
C902 H915 0.961 . S
C902 H916 0.961 . S
C903 C900 1.539 . S
C903 H917 0.958 . S
C903 H918 0.961 . S
C903 H919 0.960 . S
H904 C888 0.931 . S
H905 C893 0.929 . S
H906 C894 0.960 . S
H907 C894 0.962 . S
H908 C894 0.960 . S
H909 C895 0.961 . S
H910 C895 0.961 . S
H911 C895 0.961 . S
H912 C896 0.931 . S
H913 C901 0.930 . S
H914 C902 0.956 . S
H915 C902 0.961 . S
H916 C902 0.961 . S
H917 C903 0.958 . S
H918 C903 0.961 . S
H919 C903 0.960 . S
C920 C921 1.391 1_556 S
C920 C922 1.394 . S
C920 H936 0.931 . S
C921 C920 1.391 1_554 S
C921 C925 1.376 . S
C922 C920 1.394 . S
C922 C923 1.369 1_556 S
C922 C926 1.531 . S
C923 C922 1.369 1_554 S
C923 C924 1.410 . S
C923 C931 1.503 . S
C924 C923 1.410 . S
C924 C925 1.392 . S
C924 C927 1.511 . S
C925 C921 1.376 . S
C925 C924 1.392 . S
C925 H937 0.929 . S
C926 C922 1.531 . S
C926 H938 0.960 . S
C926 H939 0.962 . S
C926 H940 0.960 . S
C927 C924 1.511 . S
C927 H941 0.961 . S
C927 H942 0.961 . S
C927 H943 0.961 . S
C928 C929 1.370 1_556 S
C928 C930 1.363 . S
C928 H944 0.931 . S
C929 C928 1.370 1_554 S
C929 C933 1.408 . S
C930 C928 1.363 . S
C930 C931 1.370 1_556 S
C930 C934 1.524 . S
C931 C923 1.503 . S
C931 C930 1.370 1_554 S
C931 C932 1.403 . S
C932 C931 1.403 . S
C932 C933 1.404 . S
C932 C935 1.539 . S
C933 C929 1.408 . S
C933 C932 1.404 . S
C933 H945 0.930 . S
C934 C930 1.524 . S
C934 H946 0.956 . S
C934 H947 0.961 . S
C934 H948 0.961 . S
C935 C932 1.539 . S
C935 H949 0.958 . S
C935 H950 0.961 . S
C935 H951 0.960 . S
H936 C920 0.931 . S
H937 C925 0.929 . S
H938 C926 0.960 . S
H939 C926 0.962 . S
H940 C926 0.960 . S
H941 C927 0.961 . S
H942 C927 0.961 . S
H943 C927 0.961 . S
H944 C928 0.931 . S
H945 C933 0.930 . S
H946 C934 0.956 . S
H947 C934 0.961 . S
H948 C934 0.961 . S
H949 C935 0.958 . S
H950 C935 0.961 . S
H951 C935 0.960 . S
C952 C953 1.391 . S
C952 C954 1.394 . S
C952 H968 0.931 . S
C953 C952 1.391 . S
C953 C957 1.376 . S
C954 C952 1.394 . S
C954 C955 1.369 . S
C954 C958 1.531 . S
C955 C954 1.369 . S
C955 C956 1.410 . S
C955 C963 1.503 . S
C956 C955 1.410 . S
C956 C957 1.392 . S
C956 C959 1.511 . S
C957 C953 1.376 . S
C957 C956 1.392 . S
C957 H969 0.929 . S
C958 C954 1.531 . S
C958 H970 0.960 . S
C958 H971 0.962 . S
C958 H972 0.960 . S
C959 C956 1.511 . S
C959 H973 0.961 . S
C959 H974 0.961 . S
C959 H975 0.961 . S
C960 C961 1.370 . S
C960 C962 1.363 . S
C960 H976 0.931 . S
C961 C960 1.370 . S
C961 C965 1.408 . S
C962 C960 1.363 . S
C962 C963 1.370 . S
C962 C966 1.524 . S
C963 C955 1.503 . S
C963 C962 1.370 . S
C963 C964 1.403 . S
C964 C963 1.403 . S
C964 C965 1.404 . S
C964 C967 1.539 . S
C965 C961 1.408 . S
C965 C964 1.404 . S
C965 H977 0.930 . S
C966 C962 1.524 . S
C966 H978 0.956 . S
C966 H979 0.961 . S
C966 H980 0.961 . S
C967 C964 1.539 . S
C967 H981 0.958 . S
C967 H982 0.961 . S
C967 H983 0.960 . S
H968 C952 0.931 . S
H969 C957 0.929 . S
H970 C958 0.960 . S
H971 C958 0.962 . S
H972 C958 0.960 . S
H973 C959 0.961 . S
H974 C959 0.961 . S
H975 C959 0.961 . S
H976 C960 0.931 . S
H977 C965 0.930 . S
H978 C966 0.956 . S
H979 C966 0.961 . S
H980 C966 0.961 . S
H981 C967 0.958 . S
H982 C967 0.961 . S
H983 C967 0.960 . S
C984 C985 1.391 . S
C984 C986 1.394 . S
C984 H1000 0.931 . S
C985 C984 1.391 . S
C985 C989 1.376 1_554 S
C986 C984 1.394 . S
C986 C987 1.369 . S
C986 C990 1.531 . S
C987 C986 1.369 . S
C987 C988 1.410 1_554 S
C987 C995 1.503 . S
C988 C987 1.410 1_556 S
C988 C989 1.392 . S
C988 C991 1.511 . S
C989 C985 1.376 1_556 S
C989 C988 1.392 . S
C989 H1001 0.929 . S
C990 C986 1.531 . S
C990 H1002 0.960 . S
C990 H1003 0.962 . S
C990 H1004 0.960 . S
C991 C988 1.511 . S
C991 H1005 0.961 . S
C991 H1006 0.961 . S
C991 H1007 0.961 1_556 S
C992 C993 1.370 1_556 S
C992 C994 1.363 . S
C992 H1008 0.931 . S
C993 C992 1.370 1_554 S
C993 C997 1.408 . S
C994 C992 1.363 . S
C994 C995 1.370 1_556 S
C994 C998 1.524 . S
C995 C987 1.503 . S
C995 C994 1.370 1_554 S
C995 C996 1.403 . S
C996 C995 1.403 . S
C996 C997 1.404 . S
C996 C999 1.539 . S
C997 C993 1.408 . S
C997 C996 1.404 . S
C997 H1009 0.930 . S
C998 C994 1.524 . S
C998 H1010 0.956 . S
C998 H1011 0.961 . S
C998 H1012 0.961 . S
C999 C996 1.539 . S
C999 H1013 0.958 . S
C999 H1014 0.961 . S
C999 H1015 0.960 . S
H1000 C984 0.931 . S
H1001 C989 0.929 . S
H1002 C990 0.960 . S
H1003 C990 0.962 . S
H1004 C990 0.960 . S
H1005 C991 0.961 . S
H1006 C991 0.961 . S
H1007 C991 0.961 1_554 S
H1008 C992 0.931 . S
H1009 C997 0.930 . S
H1010 C998 0.956 . S
H1011 C998 0.961 . S
H1012 C998 0.961 . S
H1013 C999 0.958 . S
H1014 C999 0.961 . S
H1015 C999 0.960 . S
C1016 C1017 1.391 . S
C1016 C1018 1.394 . S
C1016 H1032 0.931 . S
C1017 C1016 1.391 . S
C1017 C1021 1.376 . S
C1018 C1016 1.394 . S
C1018 C1019 1.369 . S
C1018 C1022 1.531 . S
C1019 C1018 1.369 . S
C1019 C1020 1.410 . S
C1019 C1027 1.503 . S
C1020 C1019 1.410 . S
C1020 C1021 1.392 . S
C1020 C1023 1.511 . S
C1021 C1017 1.376 . S
C1021 C1020 1.392 . S
C1021 H1033 0.929 . S
C1022 C1018 1.531 . S
C1022 H1034 0.960 . S
C1022 H1035 0.962 . S
C1022 H1036 0.960 . S
C1023 C1020 1.511 . S
C1023 H1037 0.961 . S
C1023 H1038 0.961 . S
C1023 H1039 0.961 . S
C1024 C1025 1.370 . S
C1024 C1026 1.363 . S
C1024 H1040 0.931 . S
C1025 C1024 1.370 . S
C1025 C1029 1.408 . S
C1026 C1024 1.363 . S
C1026 C1027 1.370 . S
C1026 C1030 1.524 . S
C1027 C1019 1.503 . S
C1027 C1026 1.370 . S
C1027 C1028 1.403 . S
C1028 C1027 1.403 . S
C1028 C1029 1.404 . S
C1028 C1031 1.539 . S
C1029 C1025 1.408 . S
C1029 C1028 1.404 . S
C1029 H1041 0.930 . S
C1030 C1026 1.524 . S
C1030 H1042 0.956 . S
C1030 H1043 0.961 . S
C1030 H1044 0.961 . S
C1031 C1028 1.539 . S
C1031 H1045 0.958 . S
C1031 H1046 0.961 . S
C1031 H1047 0.960 . S
H1032 C1016 0.931 . S
H1033 C1021 0.929 . S
H1034 C1022 0.960 . S
H1035 C1022 0.962 . S
H1036 C1022 0.960 . S
H1037 C1023 0.961 . S
H1038 C1023 0.961 . S
H1039 C1023 0.961 . S
H1040 C1024 0.931 . S
H1041 C1029 0.930 . S
H1042 C1030 0.956 . S
H1043 C1030 0.961 . S
H1044 C1030 0.961 . S
H1045 C1031 0.958 . S
H1046 C1031 0.961 . S
H1047 C1031 0.960 . S
C1048 C1049 1.391 . S
C1048 C1050 1.394 . S
C1048 H1064 0.931 . S
C1049 C1048 1.391 . S
C1049 C1053 1.376 . S
C1050 C1048 1.394 . S
C1050 C1051 1.369 . S
C1050 C1054 1.531 . S
C1051 C1050 1.369 . S
C1051 C1052 1.410 . S
C1051 C1059 1.503 . S
C1052 C1051 1.410 . S
C1052 C1053 1.392 . S
C1052 C1055 1.511 . S
C1053 C1049 1.376 . S
C1053 C1052 1.392 . S
C1053 H1065 0.929 . S
C1054 C1050 1.531 . S
C1054 H1066 0.960 . S
C1054 H1067 0.962 . S
C1054 H1068 0.960 . S
C1055 C1052 1.511 . S
C1055 H1069 0.961 . S
C1055 H1070 0.961 . S
C1055 H1071 0.961 . S
C1056 C1057 1.370 . S
C1056 C1058 1.363 . S
C1056 H1072 0.931 . S
C1057 C1056 1.370 . S
C1057 C1061 1.408 . S
C1058 C1056 1.363 . S
C1058 C1059 1.370 . S
C1058 C1062 1.524 . S
C1059 C1051 1.503 . S
C1059 C1058 1.370 . S
C1059 C1060 1.403 . S
C1060 C1059 1.403 . S
C1060 C1061 1.404 . S
C1060 C1063 1.539 . S
C1061 C1057 1.408 . S
C1061 C1060 1.404 . S
C1061 H1073 0.930 . S
C1062 C1058 1.524 . S
C1062 H1074 0.956 . S
C1062 H1075 0.961 . S
C1062 H1076 0.961 . S
C1063 C1060 1.539 . S
C1063 H1077 0.958 . S
C1063 H1078 0.961 . S
C1063 H1079 0.960 . S
H1064 C1048 0.931 . S
H1065 C1053 0.929 . S
H1066 C1054 0.960 . S
H1067 C1054 0.962 . S
H1068 C1054 0.960 . S
H1069 C1055 0.961 . S
H1070 C1055 0.961 . S
H1071 C1055 0.961 . S
H1072 C1056 0.931 . S
H1073 C1061 0.930 . S
H1074 C1062 0.956 . S
H1075 C1062 0.961 . S
H1076 C1062 0.961 . S
H1077 C1063 0.958 . S
H1078 C1063 0.961 . S
H1079 C1063 0.960 . S
C1080 C1081 1.391 1_556 S
C1080 C1082 1.394 . S
C1080 H1096 0.931 . S
C1081 C1080 1.391 1_554 S
C1081 C1085 1.376 . S
C1082 C1080 1.394 . S
C1082 C1083 1.369 1_556 S
C1082 C1086 1.531 . S
C1083 C1082 1.369 1_554 S
C1083 C1084 1.410 . S
C1083 C1091 1.503 . S
C1084 C1083 1.410 . S
C1084 C1085 1.392 . S
C1084 C1087 1.511 . S
C1085 C1081 1.376 . S
C1085 C1084 1.392 . S
C1085 H1097 0.929 . S
C1086 C1082 1.531 . S
C1086 H1098 0.960 . S
C1086 H1099 0.962 . S
C1086 H1100 0.960 . S
C1087 C1084 1.511 . S
C1087 H1101 0.961 . S
C1087 H1102 0.961 . S
C1087 H1103 0.961 . S
C1088 C1089 1.370 1_556 S
C1088 C1090 1.363 . S
C1088 H1104 0.931 . S
C1089 C1088 1.370 1_554 S
C1089 C1093 1.408 . S
C1090 C1088 1.363 . S
C1090 C1091 1.370 1_556 S
C1090 C1094 1.524 . S
C1091 C1083 1.503 . S
C1091 C1090 1.370 1_554 S
C1091 C1092 1.403 . S
C1092 C1091 1.403 . S
C1092 C1093 1.404 . S
C1092 C1095 1.539 . S
C1093 C1089 1.408 . S
C1093 C1092 1.404 . S
C1093 H1105 0.930 . S
C1094 C1090 1.524 . S
C1094 H1106 0.956 . S
C1094 H1107 0.961 . S
C1094 H1108 0.961 . S
C1095 C1092 1.539 . S
C1095 H1109 0.958 . S
C1095 H1110 0.961 . S
C1095 H1111 0.960 . S
H1096 C1080 0.931 . S
H1097 C1085 0.929 . S
H1098 C1086 0.960 . S
H1099 C1086 0.962 . S
H1100 C1086 0.960 . S
H1101 C1087 0.961 . S
H1102 C1087 0.961 . S
H1103 C1087 0.961 . S
H1104 C1088 0.931 . S
H1105 C1093 0.930 . S
H1106 C1094 0.956 . S
H1107 C1094 0.961 . S
H1108 C1094 0.961 . S
H1109 C1095 0.958 . S
H1110 C1095 0.961 . S
H1111 C1095 0.960 . S
C1112 C1113 1.391 . S
C1112 C1114 1.394 . S
C1112 H1128 0.931 . S
C1113 C1112 1.391 . S
C1113 C1117 1.376 . S
C1114 C1112 1.394 . S
C1114 C1115 1.369 . S
C1114 C1118 1.531 . S
C1115 C1114 1.369 . S
C1115 C1116 1.410 . S
C1115 C1123 1.503 . S
C1116 C1115 1.410 . S
C1116 C1117 1.392 . S
C1116 C1119 1.511 . S
C1117 C1113 1.376 . S
C1117 C1116 1.392 . S
C1117 H1129 0.929 . S
C1118 C1114 1.531 . S
C1118 H1130 0.960 . S
C1118 H1131 0.962 . S
C1118 H1132 0.960 . S
C1119 C1116 1.511 . S
C1119 H1133 0.961 . S
C1119 H1134 0.961 . S
C1119 H1135 0.961 . S
C1120 C1121 1.370 . S
C1120 C1122 1.363 . S
C1120 H1136 0.931 . S
C1121 C1120 1.370 . S
C1121 C1125 1.408 . S
C1122 C1120 1.363 . S
C1122 C1123 1.370 . S
C1122 C1126 1.524 . S
C1123 C1115 1.503 . S
C1123 C1122 1.370 . S
C1123 C1124 1.403 . S
C1124 C1123 1.403 . S
C1124 C1125 1.404 . S
C1124 C1127 1.539 . S
C1125 C1121 1.408 . S
C1125 C1124 1.404 . S
C1125 H1137 0.930 . S
C1126 C1122 1.524 . S
C1126 H1138 0.956 . S
C1126 H1139 0.961 . S
C1126 H1140 0.961 . S
C1127 C1124 1.539 . S
C1127 H1141 0.958 . S
C1127 H1142 0.961 . S
C1127 H1143 0.960 . S
H1128 C1112 0.931 . S
H1129 C1117 0.929 . S
H1130 C1118 0.960 . S
H1131 C1118 0.962 . S
H1132 C1118 0.960 . S
H1133 C1119 0.961 . S
H1134 C1119 0.961 . S
H1135 C1119 0.961 . S
H1136 C1120 0.931 . S
H1137 C1125 0.930 . S
H1138 C1126 0.956 . S
H1139 C1126 0.961 . S
H1140 C1126 0.961 . S
H1141 C1127 0.958 . S
H1142 C1127 0.961 . S
H1143 C1127 0.960 . S
C1144 C1145 1.391 1_556 S
C1144 C1146 1.394 . S
C1144 H1160 0.931 . S
C1145 C1144 1.391 1_554 S
C1145 C1149 1.376 . S
C1146 C1144 1.394 . S
C1146 C1147 1.367 1_556 S
C1146 C1150 1.532 . S
C1147 C1146 1.367 1_554 S
C1147 C1148 1.410 . S
C1147 C1155 1.503 . S
C1148 C1147 1.410 . S
C1148 C1149 1.392 . S
C1148 C1151 1.511 . S
C1149 C1145 1.376 . S
C1149 C1148 1.392 . S
C1149 H1161 0.929 . S
C1150 C1146 1.532 . S
C1150 H1162 0.960 1_556 S
C1150 H1163 0.962 . S
C1150 H1164 0.960 . S
C1151 C1148 1.511 . S
C1151 H1165 0.961 . S
C1151 H1166 0.961 . S
C1151 H1167 0.961 . S
C1152 C1153 1.370 1_556 S
C1152 C1154 1.363 . S
C1152 H1168 0.931 . S
C1153 C1152 1.370 1_554 S
C1153 C1157 1.408 . S
C1154 C1152 1.363 . S
C1154 C1155 1.370 1_556 S
C1154 C1158 1.524 . S
C1155 C1147 1.503 . S
C1155 C1154 1.370 1_554 S
C1155 C1156 1.403 . S
C1156 C1155 1.403 . S
C1156 C1157 1.404 . S
C1156 C1159 1.539 . S
C1157 C1153 1.408 . S
C1157 C1156 1.404 . S
C1157 H1169 0.930 . S
C1158 C1154 1.524 . S
C1158 H1170 0.956 . S
C1158 H1171 0.961 . S
C1158 H1172 0.961 . S
C1159 C1156 1.539 . S
C1159 H1173 0.958 . S
C1159 H1174 0.961 . S
C1159 H1175 0.960 . S
H1160 C1144 0.931 . S
H1161 C1149 0.929 . S
H1162 C1150 0.960 1_554 S
H1163 C1150 0.962 . S
H1164 C1150 0.960 . S
H1165 C1151 0.961 . S
H1166 C1151 0.961 . S
H1167 C1151 0.961 . S
H1168 C1152 0.931 . S
H1169 C1157 0.930 . S
H1170 C1158 0.956 . S
H1171 C1158 0.961 . S
H1172 C1158 0.961 . S
H1173 C1159 0.958 . S
H1174 C1159 0.961 . S
H1175 C1159 0.960 . S
C409 C21 1.642 . S
C417 C210 1.590 . S
C441 C40 1.800 . S
C449 C90 1.788 . S
C481 C149 1.628 . S
C473 C54 1.644 . S
C505 C73 1.844 . S
C513 C189 1.700 . S
C545 C309 1.632 . S
C537 C74 1.621 . S
C577 C349 1.657 . S
C569 C10 1.815 . S
C609 C370 1.588 . S
C601 C37 1.661 . S
C641 C250 1.827 . S
C633 C65 1.846 . S
C665 C52 1.620 . S
C673 C130 1.634 . S
C697 C87 1.840 . S
C705 C170 1.736 . S
C729 C15 1.652 . S
C737 C229 1.596 . S
C769 C109 1.785 . S
C761 C32 1.795 . S
C793 C29 1.675 . S
C801 C389 1.577 . S
C833 C269 1.834 . S
C825 C59 1.857 . S
C865 C290 1.632 . S
C857 C84 1.643 . S
C889 C8 1.786 . S
C897 C330 1.689 . S
C929 C103 1.866 . S
C921 C7 1.914 . S
C961 C143 1.710 . S
C953 C30 1.707 . S
C985 C62 1.934 . S
C993 C183 1.862 . S
C1017 C81 1.671 . S
C1025 C223 1.703 . S
C1057 C263 1.877 . S
C1049 C76 1.931 . S
C1081 C18 1.706 . S
C1089 C303 1.710 . S
C1113 C43 1.916 . S
C1121 C343 1.843 . S
C1145 C51 1.684 . S
C1153 C383 1.696 . S
