# Generated by pormake.
# Topology iac, (4,6)-cn, num edge types: 1
# Building blocks:
#     Node 0, Type 0, BuildingBlock: AZAVOO_clean_sbu_0, # of connection points: 4
#     Node 1, Type 0, BuildingBlock: AZAVOO_clean_sbu_0, # of connection points: 4
#     Node 2, Type 0, BuildingBlock: AZAVOO_clean_sbu_0, # of connection points: 4
#     Node 3, Type 0, BuildingBlock: AZAVOO_clean_sbu_0, # of connection points: 4
#     Node 4, Type 0, BuildingBlock: AZAVOO_clean_sbu_0, # of connection points: 4
#     Node 5, Type 0, BuildingBlock: AZAVOO_clean_sbu_0, # of connection points: 4
#     Node 6, Type 0, BuildingBlock: AZAVOO_clean_sbu_0, # of connection points: 4
#     Node 7, Type 0, BuildingBlock: AZAVOO_clean_sbu_0, # of connection points: 4
#     Node 8, Type 0, BuildingBlock: AZAVOO_clean_sbu_0, # of connection points: 4
#     Node 9, Type 0, BuildingBlock: AZAVOO_clean_sbu_0, # of connection points: 4
#     Node 10, Type 0, BuildingBlock: AZAVOO_clean_sbu_0, # of connection points: 4
#     Node 11, Type 0, BuildingBlock: AZAVOO_clean_sbu_0, # of connection points: 4
#     Node 12, Type 0, BuildingBlock: AZAVOO_clean_sbu_0, # of connection points: 4
#     Node 13, Type 0, BuildingBlock: AZAVOO_clean_sbu_0, # of connection points: 4
#     Node 14, Type 0, BuildingBlock: AZAVOO_clean_sbu_0, # of connection points: 4
#     Node 15, Type 0, BuildingBlock: AZAVOO_clean_sbu_0, # of connection points: 4
#     Node 16, Type 0, BuildingBlock: AZAVOO_clean_sbu_0, # of connection points: 4
#     Node 17, Type 0, BuildingBlock: AZAVOO_clean_sbu_0, # of connection points: 4
#     Node 18, Type 0, BuildingBlock: AZAVOO_clean_sbu_0, # of connection points: 4
#     Node 19, Type 0, BuildingBlock: AZAVOO_clean_sbu_0, # of connection points: 4
#     Node 20, Type 0, BuildingBlock: AZAVOO_clean_sbu_0, # of connection points: 4
#     Node 21, Type 0, BuildingBlock: AZAVOO_clean_sbu_0, # of connection points: 4
#     Node 22, Type 0, BuildingBlock: AZAVOO_clean_sbu_0, # of connection points: 4
#     Node 23, Type 0, BuildingBlock: AZAVOO_clean_sbu_0, # of connection points: 4
#     Node 24, Type 1, BuildingBlock: VOLQOD_clean_sbu_1, # of connection points: 6
#     Node 25, Type 1, BuildingBlock: VOLQOD_clean_sbu_1, # of connection points: 6
#     Node 26, Type 1, BuildingBlock: VOLQOD_clean_sbu_1, # of connection points: 6
#     Node 27, Type 1, BuildingBlock: VOLQOD_clean_sbu_1, # of connection points: 6
#     Node 28, Type 1, BuildingBlock: VOLQOD_clean_sbu_1, # of connection points: 6
#     Node 29, Type 1, BuildingBlock: VOLQOD_clean_sbu_1, # of connection points: 6
#     Node 30, Type 1, BuildingBlock: VOLQOD_clean_sbu_1, # of connection points: 6
#     Node 31, Type 1, BuildingBlock: VOLQOD_clean_sbu_1, # of connection points: 6
#     Node 32, Type 1, BuildingBlock: VOLQOD_clean_sbu_1, # of connection points: 6
#     Node 33, Type 1, BuildingBlock: VOLQOD_clean_sbu_1, # of connection points: 6
#     Node 34, Type 1, BuildingBlock: VOLQOD_clean_sbu_1, # of connection points: 6
#     Node 35, Type 1, BuildingBlock: VOLQOD_clean_sbu_1, # of connection points: 6
#     Node 36, Type 1, BuildingBlock: VOLQOD_clean_sbu_1, # of connection points: 6
#     Node 37, Type 1, BuildingBlock: VOLQOD_clean_sbu_1, # of connection points: 6
#     Node 38, Type 1, BuildingBlock: VOLQOD_clean_sbu_1, # of connection points: 6
#     Node 39, Type 1, BuildingBlock: VOLQOD_clean_sbu_1, # of connection points: 6
#     Edge 40, Type (0, 1), BuildingBlock: MIFKUJ_clean_linker_0, # of connection points: 2
#     Edge 41, Type (0, 1), BuildingBlock: MIFKUJ_clean_linker_0, # of connection points: 2
#     Edge 42, Type (0, 1), BuildingBlock: MIFKUJ_clean_linker_0, # of connection points: 2
#     Edge 43, Type (0, 1), BuildingBlock: MIFKUJ_clean_linker_0, # of connection points: 2
#     Edge 44, Type (0, 1), BuildingBlock: MIFKUJ_clean_linker_0, # of connection points: 2
#     Edge 45, Type (0, 1), BuildingBlock: MIFKUJ_clean_linker_0, # of connection points: 2
#     Edge 46, Type (0, 1), BuildingBlock: MIFKUJ_clean_linker_0, # of connection points: 2
#     Edge 47, Type (0, 1), BuildingBlock: MIFKUJ_clean_linker_0, # of connection points: 2
#     Edge 48, Type (0, 1), BuildingBlock: MIFKUJ_clean_linker_0, # of connection points: 2
#     Edge 49, Type (0, 1), BuildingBlock: MIFKUJ_clean_linker_0, # of connection points: 2
#     Edge 50, Type (0, 1), BuildingBlock: MIFKUJ_clean_linker_0, # of connection points: 2
#     Edge 51, Type (0, 1), BuildingBlock: MIFKUJ_clean_linker_0, # of connection points: 2
#     Edge 52, Type (0, 1), BuildingBlock: MIFKUJ_clean_linker_0, # of connection points: 2
#     Edge 53, Type (0, 1), BuildingBlock: MIFKUJ_clean_linker_0, # of connection points: 2
#     Edge 54, Type (0, 1), BuildingBlock: MIFKUJ_clean_linker_0, # of connection points: 2
#     Edge 55, Type (0, 1), BuildingBlock: MIFKUJ_clean_linker_0, # of connection points: 2
#     Edge 56, Type (0, 1), BuildingBlock: MIFKUJ_clean_linker_0, # of connection points: 2
#     Edge 57, Type (0, 1), BuildingBlock: MIFKUJ_clean_linker_0, # of connection points: 2
#     Edge 58, Type (0, 1), BuildingBlock: MIFKUJ_clean_linker_0, # of connection points: 2
#     Edge 59, Type (0, 1), BuildingBlock: MIFKUJ_clean_linker_0, # of connection points: 2
#     Edge 60, Type (0, 1), BuildingBlock: MIFKUJ_clean_linker_0, # of connection points: 2
#     Edge 61, Type (0, 1), BuildingBlock: MIFKUJ_clean_linker_0, # of connection points: 2
#     Edge 62, Type (0, 1), BuildingBlock: MIFKUJ_clean_linker_0, # of connection points: 2
#     Edge 63, Type (0, 1), BuildingBlock: MIFKUJ_clean_linker_0, # of connection points: 2
#     Edge 64, Type (0, 1), BuildingBlock: MIFKUJ_clean_linker_0, # of connection points: 2
#     Edge 65, Type (0, 1), BuildingBlock: MIFKUJ_clean_linker_0, # of connection points: 2
#     Edge 66, Type (0, 1), BuildingBlock: MIFKUJ_clean_linker_0, # of connection points: 2
#     Edge 67, Type (0, 1), BuildingBlock: MIFKUJ_clean_linker_0, # of connection points: 2
#     Edge 68, Type (0, 1), BuildingBlock: MIFKUJ_clean_linker_0, # of connection points: 2
#     Edge 69, Type (0, 1), BuildingBlock: MIFKUJ_clean_linker_0, # of connection points: 2
#     Edge 70, Type (0, 1), BuildingBlock: MIFKUJ_clean_linker_0, # of connection points: 2
#     Edge 71, Type (0, 1), BuildingBlock: MIFKUJ_clean_linker_0, # of connection points: 2
#     Edge 72, Type (0, 1), BuildingBlock: MIFKUJ_clean_linker_0, # of connection points: 2
#     Edge 73, Type (0, 1), BuildingBlock: MIFKUJ_clean_linker_0, # of connection points: 2
#     Edge 74, Type (0, 1), BuildingBlock: MIFKUJ_clean_linker_0, # of connection points: 2
#     Edge 75, Type (0, 1), BuildingBlock: MIFKUJ_clean_linker_0, # of connection points: 2
#     Edge 76, Type (0, 1), BuildingBlock: MIFKUJ_clean_linker_0, # of connection points: 2
#     Edge 77, Type (0, 1), BuildingBlock: MIFKUJ_clean_linker_0, # of connection points: 2
#     Edge 78, Type (0, 1), BuildingBlock: MIFKUJ_clean_linker_0, # of connection points: 2
#     Edge 79, Type (0, 1), BuildingBlock: MIFKUJ_clean_linker_0, # of connection points: 2
#     Edge 80, Type (0, 1), BuildingBlock: MIFKUJ_clean_linker_0, # of connection points: 2
#     Edge 81, Type (0, 1), BuildingBlock: MIFKUJ_clean_linker_0, # of connection points: 2
#     Edge 82, Type (0, 1), BuildingBlock: MIFKUJ_clean_linker_0, # of connection points: 2
#     Edge 83, Type (0, 1), BuildingBlock: MIFKUJ_clean_linker_0, # of connection points: 2
#     Edge 84, Type (0, 1), BuildingBlock: MIFKUJ_clean_linker_0, # of connection points: 2
#     Edge 85, Type (0, 1), BuildingBlock: MIFKUJ_clean_linker_0, # of connection points: 2
#     Edge 86, Type (0, 1), BuildingBlock: MIFKUJ_clean_linker_0, # of connection points: 2
#     Edge 87, Type (0, 1), BuildingBlock: MIFKUJ_clean_linker_0, # of connection points: 2
#     Edge 88, Type (0, 1), BuildingBlock: MIFKUJ_clean_linker_0, # of connection points: 2
#     Edge 89, Type (0, 1), BuildingBlock: MIFKUJ_clean_linker_0, # of connection points: 2
#     Edge 90, Type (0, 1), BuildingBlock: MIFKUJ_clean_linker_0, # of connection points: 2
#     Edge 91, Type (0, 1), BuildingBlock: MIFKUJ_clean_linker_0, # of connection points: 2
#     Edge 92, Type (0, 1), BuildingBlock: MIFKUJ_clean_linker_0, # of connection points: 2
#     Edge 93, Type (0, 1), BuildingBlock: MIFKUJ_clean_linker_0, # of connection points: 2
#     Edge 94, Type (0, 1), BuildingBlock: MIFKUJ_clean_linker_0, # of connection points: 2
#     Edge 95, Type (0, 1), BuildingBlock: MIFKUJ_clean_linker_0, # of connection points: 2
#     Edge 96, Type (0, 1), BuildingBlock: MIFKUJ_clean_linker_0, # of connection points: 2
#     Edge 97, Type (0, 1), BuildingBlock: MIFKUJ_clean_linker_0, # of connection points: 2
#     Edge 98, Type (0, 1), BuildingBlock: MIFKUJ_clean_linker_0, # of connection points: 2
#     Edge 99, Type (0, 1), BuildingBlock: MIFKUJ_clean_linker_0, # of connection points: 2
#     Edge 100, Type (0, 1), BuildingBlock: MIFKUJ_clean_linker_0, # of connection points: 2
#     Edge 101, Type (0, 1), BuildingBlock: MIFKUJ_clean_linker_0, # of connection points: 2
#     Edge 102, Type (0, 1), BuildingBlock: MIFKUJ_clean_linker_0, # of connection points: 2
#     Edge 103, Type (0, 1), BuildingBlock: MIFKUJ_clean_linker_0, # of connection points: 2
#     Edge 104, Type (0, 1), BuildingBlock: MIFKUJ_clean_linker_0, # of connection points: 2
#     Edge 105, Type (0, 1), BuildingBlock: MIFKUJ_clean_linker_0, # of connection points: 2
#     Edge 106, Type (0, 1), BuildingBlock: MIFKUJ_clean_linker_0, # of connection points: 2
#     Edge 107, Type (0, 1), BuildingBlock: MIFKUJ_clean_linker_0, # of connection points: 2
#     Edge 108, Type (0, 1), BuildingBlock: MIFKUJ_clean_linker_0, # of connection points: 2
#     Edge 109, Type (0, 1), BuildingBlock: MIFKUJ_clean_linker_0, # of connection points: 2
#     Edge 110, Type (0, 1), BuildingBlock: MIFKUJ_clean_linker_0, # of connection points: 2
#     Edge 111, Type (0, 1), BuildingBlock: MIFKUJ_clean_linker_0, # of connection points: 2
#     Edge 112, Type (0, 1), BuildingBlock: MIFKUJ_clean_linker_0, # of connection points: 2
#     Edge 113, Type (0, 1), BuildingBlock: MIFKUJ_clean_linker_0, # of connection points: 2
#     Edge 114, Type (0, 1), BuildingBlock: MIFKUJ_clean_linker_0, # of connection points: 2
#     Edge 115, Type (0, 1), BuildingBlock: MIFKUJ_clean_linker_0, # of connection points: 2
#     Edge 116, Type (0, 1), BuildingBlock: MIFKUJ_clean_linker_0, # of connection points: 2
#     Edge 117, Type (0, 1), BuildingBlock: MIFKUJ_clean_linker_0, # of connection points: 2
#     Edge 118, Type (0, 1), BuildingBlock: MIFKUJ_clean_linker_0, # of connection points: 2
#     Edge 119, Type (0, 1), BuildingBlock: MIFKUJ_clean_linker_0, # of connection points: 2
#     Edge 120, Type (0, 1), BuildingBlock: MIFKUJ_clean_linker_0, # of connection points: 2
#     Edge 121, Type (0, 1), BuildingBlock: MIFKUJ_clean_linker_0, # of connection points: 2
#     Edge 122, Type (0, 1), BuildingBlock: MIFKUJ_clean_linker_0, # of connection points: 2
#     Edge 123, Type (0, 1), BuildingBlock: MIFKUJ_clean_linker_0, # of connection points: 2
#     Edge 124, Type (0, 1), BuildingBlock: MIFKUJ_clean_linker_0, # of connection points: 2
#     Edge 125, Type (0, 1), BuildingBlock: MIFKUJ_clean_linker_0, # of connection points: 2
#     Edge 126, Type (0, 1), BuildingBlock: MIFKUJ_clean_linker_0, # of connection points: 2
#     Edge 127, Type (0, 1), BuildingBlock: MIFKUJ_clean_linker_0, # of connection points: 2
#     Edge 128, Type (0, 1), BuildingBlock: MIFKUJ_clean_linker_0, # of connection points: 2
#     Edge 129, Type (0, 1), BuildingBlock: MIFKUJ_clean_linker_0, # of connection points: 2
#     Edge 130, Type (0, 1), BuildingBlock: MIFKUJ_clean_linker_0, # of connection points: 2
#     Edge 131, Type (0, 1), BuildingBlock: MIFKUJ_clean_linker_0, # of connection points: 2
#     Edge 132, Type (0, 1), BuildingBlock: MIFKUJ_clean_linker_0, # of connection points: 2
#     Edge 133, Type (0, 1), BuildingBlock: MIFKUJ_clean_linker_0, # of connection points: 2
#     Edge 134, Type (0, 1), BuildingBlock: MIFKUJ_clean_linker_0, # of connection points: 2
#     Edge 135, Type (0, 1), BuildingBlock: MIFKUJ_clean_linker_0, # of connection points: 2
# Relax obj value: 0.334
# Max RMSD: 0.298
# Mean RMSD: 0.202
data_MOF--net-iac--node1-AZAVOO_clean_sbu_0--node2-VOLQOD_clean_sbu_1--edge1-MIFKUJ_clean_linker_0
_symmetry_space_group_name_H-M    P1
_symmetry_Int_Tables_number       1
_symmetry_cell_setting            triclinic
loop_
_symmetry_equiv_pos_as_xyz
'x, y, z'
_cell_length_a     70.407623
_cell_length_b     67.723865
_cell_length_c     69.027815
_cell_angle_alpha  92.057039
_cell_angle_beta   90.005792
_cell_angle_gamma 91.325786
loop_
_atom_site_label
_atom_site_type_symbol
_atom_site_fract_x
_atom_site_fract_y
_atom_site_fract_z
_atom_type_partial_charge
Mg0 Mg 0.01442 0.27063 0.15353 0.0
O1 O 0.99387 0.2482 0.13996 0.0
O2 O 0.9637 0.25329 0.14846 0.0
Mg3 Mg 0.9654 0.28399 0.16327 0.0
C4 C 0.97635 0.24318 0.13971 0.0
C5 C 0.05347 0.25204 0.13628 0.0
O6 O 0.06299 0.24389 0.12182 0.0
O7 O 0.00691 0.2906 0.13008 0.0
O8 O 0.97606 0.29636 0.13413 0.0
O9 O 0.01357 0.25271 0.17964 0.0
O10 O 0.99421 0.27742 0.17444 0.0
C11 C 0.99142 0.2977 0.12433 0.0
C12 C -0.00183 0.262 0.184 0.0
O13 O 0.03662 0.2574 0.13318 0.0
Mg14 Mg 0.98542 0.7256 0.37187 0.0
O15 O 0.98939 0.75882 0.37913 0.0
O16 O 0.96298 0.76915 0.39413 0.0
Mg17 Mg 0.94342 0.74252 0.39798 0.0
C18 C 0.97945 0.77242 0.38705 0.0
C19 C 0.0226 0.73576 0.35234 0.0
O20 O 0.01071 0.74806 0.34483 0.0
O21 O 0.99146 0.72051 0.40293 0.0
O22 O 0.96598 0.73084 0.41921 0.0
O23 O 0.97271 0.73171 0.3439 0.0
O24 O 0.95632 0.72973 0.37127 0.0
C25 C 0.98265 0.72371 0.41876 0.0
C26 C 0.95708 0.7346 0.35331 0.0
O27 O 0.01656 0.72379 0.36478 0.0
Mg28 Mg 0.48897 0.78047 0.65634 0.0
O29 O 0.48546 0.75041 0.64041 0.0
O30 O 0.45507 0.74685 0.63097 0.0
Mg31 Mg 0.43928 0.77403 0.64229 0.0
C32 C 0.472 0.74056 0.63188 0.0
C33 C 0.53 0.76672 0.66172 0.0
O34 O 0.52063 0.75335 0.67147 0.0
O35 O 0.48642 0.79506 0.62781 0.0
O36 O 0.45557 0.7929 0.61996 0.0
O37 O 0.48371 0.76569 0.68362 0.0
O38 O 0.46109 0.77802 0.66538 0.0
C39 C 0.47267 0.79844 0.61653 0.0
C40 C 0.46587 0.76727 0.67962 0.0
O41 O 0.52084 0.77966 0.65299 0.0
Mg42 Mg 0.49645 0.22154 0.88175 0.0
O43 O 0.49962 0.25508 0.88477 0.0
O44 O 0.47183 0.26697 0.89505 0.0
Mg45 Mg 0.45166 0.24091 0.90004 0.0
C46 C 0.48905 0.26947 0.88967 0.0
C47 C 0.53325 0.20721 0.86449 0.0
O48 O 0.52052 0.19481 0.85675 0.0
O49 O 0.49925 0.22144 0.91407 0.0
O50 O 0.47136 0.23222 0.92531 0.0
O51 O 0.48628 0.22413 0.85198 0.0
O52 O 0.46749 0.22402 0.87781 0.0
C53 C 0.48822 0.22619 0.92802 0.0
C54 C 0.46968 0.22688 0.85953 0.0
O55 O 0.528 0.21971 0.87742 0.0
Mg56 Mg 0.15092 0.00343 0.27726 0.0
O57 O 0.14539 0.03479 0.26738 0.0
O58 O 0.15677 0.04039 0.29634 0.0
Mg59 Mg 0.16664 0.02881 0.3241 0.0
C60 C 0.15116 0.04701 0.28053 0.0
C61 C 0.1402 0.97573 0.24426 0.0
O62 O 0.13526 0.9664 0.25992 0.0
O63 O 0.18249 0.01132 0.2762 0.0
O64 O 0.18894 0.01046 0.3077 0.0
O65 O 0.12132 9e-05 0.28832 0.0
O66 O 0.14531 0.0111 0.30657 0.0
C67 C 0.1933 0.00661 0.28999 0.0
C68 C 0.1274 0.00726 0.30489 0.0
O69 O 0.14929 0.9921 0.24623 0.0
Mg70 Mg 0.29178 0.91637 0.52307 0.0
O71 O 0.28983 0.8997 0.49376 0.0
O72 O 0.31657 0.88287 0.48905 0.0
Mg73 Mg 0.33486 0.8877 0.51621 0.0
C74 C 0.30028 0.88832 0.48344 0.0
C75 C 0.25411 0.93319 0.50809 0.0
O76 O 0.26614 0.94087 0.49575 0.0
O77 O 0.28533 0.88744 0.53747 0.0
O78 O 0.31198 0.87059 0.53322 0.0
O79 O 0.30603 0.94186 0.50906 0.0
O80 O 0.32112 0.91642 0.52057 0.0
C81 C 0.29499 0.87197 0.53957 0.0
C82 C 0.32157 0.93221 0.51064 0.0
O83 O 0.2603 0.9225 0.52135 0.0
Mg84 Mg 0.37542 0.03056 0.77952 0.0
O85 O 0.36732 0.99782 0.77864 0.0
O86 O 0.34893 0.99161 0.80428 0.0
Mg87 Mg 0.34551 0.02067 0.82143 0.0
C88 C 0.3575 0.986 0.78882 0.0
C89 C 0.40041 0.03383 0.74277 0.0
O90 O 0.41101 0.04463 0.75493 0.0
O91 O 0.3458 0.03593 0.76996 0.0
O92 O 0.32735 0.03123 0.79578 0.0
O93 O 0.40121 0.02475 0.79574 0.0
O94 O 0.37323 0.03051 0.80947 0.0
C95 C 0.32955 0.03535 0.77797 0.0
C96 C 0.39049 0.02455 0.81097 0.0
O97 O 0.38459 0.02687 0.74843 0.0
Mg98 Mg 0.25412 0.11518 0.98818 0.0
O99 O 0.26019 0.12391 0.01937 0.0
O100 O 0.29078 0.11972 0.02604 0.0
Mg101 Mg 0.30434 0.10646 -0.00174 0.0
C102 C 0.27414 0.12499 0.0311 0.0
C103 C 0.21127 0.13388 0.99533 0.0
O104 O 0.20086 0.14975 0.99565 0.0
O105 O 0.27059 0.14222 0.9795 0.0
O106 O 0.30148 0.13643 0.98368 0.0
O107 O 0.24856 0.08351 0.99755 0.0
O108 O 0.27612 0.09545 0.9878 0.0
C109 C 0.28803 0.1475 0.97865 0.0
C110 C 0.26645 0.08098 0.99444 0.0
O111 O 0.22841 0.13537 0.9898 0.0
Mg112 Mg 0.79252 0.41626 0.0269 0.0
O113 O 0.79425 0.39668 -0.0008 0.0
O114 O 0.82247 0.38209 -0.00135 0.0
Mg115 Mg 0.83787 0.39123 0.02668 0.0
C116 C 0.80639 0.3854 0.99099 0.0
C117 C 0.75624 0.4381 0.0201 0.0
O118 O 0.7693 0.45223 0.02172 0.0
O119 O 0.78684 0.38894 0.04414 0.0
O120 O 0.81475 0.37396 0.04354 0.0
O121 O 0.80529 0.44033 0.01056 0.0
O122 O 0.822 0.41896 0.02677 0.0
C123 C 0.79727 0.37462 0.04853 0.0
C124 C 0.82151 0.43275 0.01429 0.0
O125 O 0.76108 0.42032 0.022 0.0
Mg126 Mg 0.88231 0.52053 0.27841 0.0
O127 O 0.86932 0.48963 0.27536 0.0
O128 O 0.86317 0.47873 0.30497 0.0
Mg129 Mg 0.87242 0.50319 0.32693 0.0
C130 C 0.86297 0.47642 0.28652 0.0
C131 C 0.89006 0.53776 0.24011 0.0
O132 O 0.89914 0.54934 0.25289 0.0
O133 O 0.85297 0.53101 0.28547 0.0
O134 O 0.8478 0.52213 0.31607 0.0
O135 O 0.91093 0.50808 0.27976 0.0
O136 O 0.8926 0.51448 0.30538 0.0
C137 C 0.84257 0.53026 0.30057 0.0
C138 C 0.90783 0.50697 0.29816 0.0
O139 O 0.87896 0.52436 0.24628 0.0
Mg140 Mg 0.74454 0.6073 0.48925 0.0
O141 O 0.76075 0.62266 0.51384 0.0
O142 O 0.7906 0.61263 0.51587 0.0
Mg143 Mg 0.79361 0.59087 0.48966 0.0
C144 C 0.77692 0.62316 0.52211 0.0
C145 C 0.70489 0.62913 0.49593 0.0
O146 O 0.69446 0.64483 0.49865 0.0
O147 O 0.76021 0.62659 0.46863 0.0
O148 O 0.79036 0.61671 0.46894 0.0
O149 O 0.73777 0.58352 0.51007 0.0
O150 O 0.76257 0.58365 0.49032 0.0
C151 C 0.77742 0.62802 0.46315 0.0
C152 C 0.75377 0.57601 0.50467 0.0
O153 O 0.72251 0.63144 0.49261 0.0
Mg154 Mg 0.6361 0.50702 0.77002 0.0
O155 O 0.64705 0.53355 0.78779 0.0
O156 O 0.65154 0.52561 0.81866 0.0
Mg157 Mg 0.64042 0.4937 0.82057 0.0
C158 C 0.65224 0.53796 0.80513 0.0
C159 C 0.64955 0.51338 0.7276 0.0
O160 O 0.65707 0.49602 0.72975 0.0
O161 O 0.66521 0.49403 0.77198 0.0
O162 O 0.66633 0.48365 0.80236 0.0
O163 O 0.60701 0.51658 0.77507 0.0
O164 O 0.62251 0.49712 0.79455 0.0
C165 C 0.67369 0.48548 0.78555 0.0
C166 C 0.60797 0.50792 0.79143 0.0
O167 O 0.64305 0.52252 0.74243 0.0
Mg168 Mg 0.00895 0.73328 0.87828 0.0
O169 O 0.00806 0.76467 0.8914 0.0
O170 O 0.97764 0.77141 0.89755 0.0
Mg171 Mg 0.95924 0.74453 0.88808 0.0
C172 C 0.99527 0.77633 0.89768 0.0
C173 C 0.04698 0.72514 0.8657 0.0
O174 O 0.03509 0.71359 0.85561 0.0
O175 O 0.00347 0.72144 0.90809 0.0
O176 O 0.97245 0.72674 0.91235 0.0
O177 O 0.00581 0.74467 0.84861 0.0
O178 O 0.98191 0.73633 0.86783 0.0
C179 C 0.98823 0.71995 0.91803 0.0
C180 C 0.98778 0.74406 0.85206 0.0
O181 O 0.04088 0.7337 0.88103 0.0
Mg182 Mg 0.01326 0.28058 0.6307 0.0
O183 O 0.01691 0.2492 0.61909 0.0
O184 O 0.99246 0.24194 0.59933 0.0
Mg185 Mg 0.97232 0.26798 0.60021 0.0
C186 C 0.00791 0.23729 0.60752 0.0
C187 C 0.04563 0.28762 0.65788 0.0
O188 O 0.03108 0.29567 0.66678 0.0
O189 O 0.02115 0.29291 0.60197 0.0
O190 O 0.99389 0.289 0.58573 0.0
O191 O -0.00169 0.26887 0.65588 0.0
O192 O 0.98385 0.27718 0.62896 0.0
C193 C 0.01078 0.29624 0.58738 0.0
C194 C 0.98284 0.2696 0.64584 0.0
O195 O 0.04357 0.28118 0.64052 0.0
Mg196 Mg 0.51036 0.22978 0.37358 0.0
O197 O 0.50432 0.2619 0.38191 0.0
O198 O 0.47324 0.26451 0.38771 0.0
Mg199 Mg 0.45942 0.23394 0.38233 0.0
C200 C 0.48998 0.2721 0.38683 0.0
C201 C 0.55005 0.22634 0.36256 0.0
O202 O 0.53978 0.21328 0.35236 0.0
O203 O 0.50678 0.2223 0.40516 0.0
O204 O 0.47529 0.22362 0.40928 0.0
O205 O 0.50515 0.23591 0.34278 0.0
O206 O 0.48305 0.22543 0.36316 0.0
C207 C 0.49197 0.22056 0.41572 0.0
C208 C 0.4875 0.23169 0.3463 0.0
O209 O 0.54198 0.23619 0.37608 0.0
Mg210 Mg 0.50785 0.77291 0.15637 0.0
O211 O 0.51142 0.74372 0.13936 0.0
O212 O 0.48496 0.7381 0.12185 0.0
Mg213 Mg 0.46425 0.76264 0.1286 0.0
C214 C 0.50157 0.73332 0.1271 0.0
C215 C 0.5424 0.77508 0.18143 0.0
O216 O 0.5284 0.77904 0.19344 0.0
O217 O 0.51239 0.78944 0.12881 0.0
O218 O 0.48466 0.784 0.11359 0.0
O219 O 0.49539 0.75681 0.18096 0.0
O220 O 0.47894 0.76793 0.15639 0.0
C221 C 0.50127 0.79197 0.11456 0.0
C222 C 0.47942 0.75786 0.17186 0.0
O223 O 0.53895 0.77358 0.1634 0.0
Mg224 Mg 0.90969 0.02988 0.77725 0.0
O225 O 0.89189 0.00177 0.7719 0.0
O226 O 0.88021 0.99228 0.80032 0.0
Mg227 Mg 0.89104 0.01453 0.82396 0.0
C228 C 0.88198 0.98992 0.78195 0.0
C229 C 0.92881 0.03665 0.74022 0.0
O230 O 0.94107 0.04179 0.75395 0.0
O231 O 0.88248 0.04717 0.78092 0.0
O232 O 0.87378 0.03937 0.81102 0.0
O233 O 0.9356 0.01236 0.78263 0.0
O234 O 0.91514 0.02171 0.80524 0.0
C235 C 0.87167 0.04915 0.79569 0.0
C236 C 0.93006 0.01205 0.80046 0.0
O237 O 0.91161 0.0335 0.74495 0.0
Mg238 Mg 0.76198 0.14088 0.47878 0.0
O239 O 0.76334 0.14715 0.51143 0.0
O240 O 0.7932 0.15498 0.52016 0.0
Mg241 Mg 0.81111 0.15408 0.49256 0.0
C242 C 0.77572 0.15206 0.52431 0.0
C243 C 0.72275 0.12384 0.47492 0.0
O244 O 0.73312 0.11279 0.46321 0.0
O245 O 0.76414 0.17398 0.47405 0.0
O246 O 0.79477 0.18022 0.48096 0.0
O247 O 0.76899 0.10922 0.48249 0.0
O248 O 0.7904 0.13322 0.47879 0.0
C249 C 0.77853 0.18584 0.47529 0.0
C250 C 0.78661 0.11496 0.48209 0.0
O251 O 0.7299 0.14008 0.48152 0.0
Mg252 Mg 0.60192 0.98897 0.26913 0.0
O253 O 0.61332 0.02005 0.27529 0.0
O254 O 0.61895 0.0246 0.30693 0.0
Mg255 Mg 0.6089 0.9962 0.3213 0.0
C256 C 0.61918 0.03073 0.28969 0.0
C257 C 0.60164 0.9832 0.22419 0.0
O258 O 0.59236 0.96687 0.22845 0.0
O259 O 0.63139 0.97754 0.27476 0.0
O260 O 0.63423 0.98097 0.30703 0.0
O261 O 0.57258 0.00018 0.27373 0.0
O262 O 0.59066 0.98757 0.29634 0.0
C263 C 0.64077 0.97568 0.29042 0.0
C264 C 0.57534 0.99619 0.29171 0.0
O265 O 0.60832 0.99428 0.23784 0.0
Mg266 Mg 0.75022 0.89688 0.01256 0.0
O267 O 0.75469 0.88102 0.98337 0.0
O268 O 0.78442 0.87 0.98198 0.0
Mg269 Mg 0.79994 0.8819 0.00917 0.0
C270 C 0.76781 0.87145 0.97481 0.0
C271 C 0.71273 0.90227 0.99188 0.0
O272 O 0.72541 0.9091 0.97971 0.0
O273 O 0.75056 0.8668 0.0265 0.0
O274 O 0.78151 0.85994 0.02561 0.0
O275 O 0.75918 0.9263 0.00104 0.0
O276 O 0.7785 0.90462 0.01327 0.0
C277 C 0.7644 0.85566 0.03033 0.0
C278 C 0.77628 0.92107 0.00492 0.0
O279 O 0.71837 0.89527 0.00765 0.0
Mg280 Mg 0.26499 0.63837 0.97868 0.0
O281 O 0.26419 0.64663 0.01083 0.0
O282 O 0.29308 0.65655 0.02094 0.0
Mg283 Mg 0.31256 0.65505 0.99453 0.0
C284 C 0.27552 0.65297 0.02414 0.0
C285 C 0.22729 0.61836 0.97417 0.0
O286 O 0.23895 0.60755 0.96365 0.0
O287 O 0.26582 0.67105 0.97206 0.0
O288 O 0.29575 0.67939 0.98031 0.0
O289 O 0.27332 0.60776 0.98484 0.0
O290 O 0.29386 0.63233 0.98032 0.0
C291 C 0.27959 0.68369 0.97334 0.0
C292 C 0.29075 0.61411 0.98438 0.0
O293 O 0.23287 0.63556 0.97986 0.0
Mg294 Mg 0.10584 0.4813 0.76591 0.0
O295 O 0.11456 0.51325 0.75951 0.0
O296 O 0.12197 0.52887 0.78769 0.0
Mg297 Mg 0.11842 0.50708 0.81182 0.0
C298 C 0.1201 0.52866 0.7693 0.0
C299 C 0.09114 0.46464 0.72799 0.0
O300 O 0.07944 0.45748 0.74096 0.0
O301 O 0.13703 0.47499 0.77006 0.0
O302 O 0.14339 0.48968 0.79901 0.0
O303 O 0.07557 0.48973 0.77158 0.0
O304 O 0.09854 0.48959 0.79355 0.0
C305 C 0.14843 0.47936 0.78408 0.0
C306 C 0.08134 0.49345 0.78915 0.0
O307 O 0.10608 0.47386 0.73384 0.0
Mg308 Mg 0.24391 0.39585 0.5206 0.0
O309 O 0.24465 0.38237 0.49026 0.0
O310 O 0.27301 0.36999 0.48318 0.0
Mg311 Mg 0.29106 0.37565 0.51041 0.0
C312 C 0.25584 0.37342 0.47867 0.0
C313 C 0.20689 0.40683 0.50231 0.0
O314 O 0.22009 0.41418 0.49102 0.0
O315 O 0.24197 0.36455 0.53135 0.0
O316 O 0.27129 0.3537 0.5256 0.0
O317 O 0.25507 0.42508 0.51079 0.0
O318 O 0.27296 0.4004 0.51946 0.0
C319 C 0.25436 0.35108 0.53186 0.0
C320 C 0.27174 0.41769 0.5125 0.0
O321 O 0.2119 0.39783 0.51728 0.0
Mg322 Mg 0.4068 0.52515 0.27883 0.0
O323 O 0.38738 0.49919 0.26943 0.0
O324 O 0.37356 0.48786 0.29606 0.0
Mg325 Mg 0.38653 0.50464 0.32264 0.0
C326 C 0.37574 0.48749 0.27767 0.0
C327 C 0.42591 0.53947 0.24352 0.0
O328 O 0.43809 0.54295 0.25774 0.0
O329 O 0.38116 0.54386 0.28538 0.0
O330 O 0.37189 0.5332 0.31442 0.0
O331 O 0.43194 0.50597 0.28221 0.0
O332 O 0.41126 0.51322 0.30529 0.0
C333 C 0.37078 0.54508 0.30052 0.0
C334 C 0.42638 0.50423 0.29994 0.0
O335 O 0.40913 0.53388 0.24773 0.0
O336 O 0.00718 0.05304 0.03814 0.0
Zn337 Zn 0.01683 0.0306 0.02125 0.0
O338 O 0.00768 0.00535 0.03088 0.0
Zn339 Zn 0.02873 0.98744 0.03269 0.0
Zn340 Zn 0.99522 0.0091 0.05607 0.0
Zn341 Zn 0.98963 0.99381 0.0127 0.0
O342 O 0.02592 0.9631 0.01515 0.0
O343 O -0.00044 0.96959 -0.00073 0.0
O344 O 0.04549 0.03179 0.02032 0.0
O345 O 0.05303 0.00068 0.02506 0.0
O346 O 0.03273 0.98073 0.06032 0.0
O347 O 0.01139 0.998 0.07714 0.0
O348 O 0.96888 0.99631 0.05653 0.0
O349 O 0.00694 0.03484 0.99427 0.0
O350 O 0.96592 0.9857 0.02582 0.0
O351 O 0.98342 0.01245 0.99209 0.0
C352 C 0.9971 0.05374 0.05347 0.0
C353 C 0.01374 0.95873 0.00197 0.0
C354 C 0.0256 0.98664 0.07641 0.0
C355 C 0.05779 0.01834 0.02132 0.0
C356 C 0.95944 0.98748 0.04294 0.0
C357 C 0.99244 0.02727 0.98555 0.0
O358 O 0.99169 0.03807 0.06175 0.0
O359 O 0.24365 0.72727 0.22485 0.0
Zn360 Zn 0.2423 0.73541 0.25304 0.0
O361 O 0.24894 0.76305 0.25689 0.0
Zn362 Zn 0.27182 0.76593 0.27242 0.0
Zn363 Zn 0.2528 0.77419 0.23169 0.0
Zn364 Zn 0.22879 0.77677 0.26995 0.0
O365 O 0.26812 0.78489 0.29493 0.0
O366 O 0.23662 0.78556 0.29719 0.0
O367 O 0.25907 0.71865 0.26851 0.0
O368 O 0.27911 0.73987 0.28346 0.0
O369 O 0.2937 0.77429 0.25593 0.0
O370 O 0.28074 0.77645 0.22673 0.0
O371 O 0.24186 0.80133 0.23055 0.0
O372 O 0.21564 0.72985 0.26154 0.0
O373 O 0.22311 0.80153 0.2564 0.0
O374 O 0.20542 0.75965 0.27062 0.0
C375 C 0.24154 0.73721 0.20972 0.0
C376 C 0.25311 0.78972 0.30405 0.0
C377 C 0.29521 0.77681 0.2378 0.0
C378 C 0.27276 0.72231 0.28022 0.0
C379 C 0.22969 0.80977 0.24146 0.0
C380 C 0.20256 0.74122 0.26736 0.0
O381 O 0.24216 0.75604 0.21041 0.0
O382 O 0.54816 0.96563 0.52312 0.0
Zn383 Zn 0.54084 0.99126 0.51236 0.0
O384 O 0.539 0.01194 0.53255 0.0
Zn385 Zn 0.51325 0.02157 0.53309 0.0
Zn386 Zn 0.5462 0.00158 0.55774 0.0
Zn387 Zn 0.55533 0.03386 0.52596 0.0
O388 O 0.51175 0.05118 0.53236 0.0
O389 O 0.54168 0.05933 0.52624 0.0
O390 O 0.51593 0.98654 0.49833 0.0
O391 O 0.49815 0.01048 0.51063 0.0
O392 O 0.50045 0.01296 0.55707 0.0
O393 O 0.52359 0.00283 0.57602 0.0
O394 O 0.56947 0.01656 0.56936 0.0
O395 O 0.55877 -0.00106 0.49159 0.0
O396 O 0.57541 0.03744 0.54572 0.0
O397 O 0.5662 0.03025 0.49915 0.0
C398 C 0.55175 0.96016 0.54013 0.0
C399 C 0.52457 0.06418 0.52915 0.0
C400 C 0.50613 0.00647 0.57308 0.0
C401 C 0.50065 0.99621 0.4985 0.0
C402 C 0.57925 0.03061 0.56214 0.0
C403 C 0.56667 0.01531 0.48744 0.0
O404 O 0.55169 0.97236 0.55465 0.0
O405 O 0.263 0.26027 0.8081 0.0
Zn406 Zn 0.26569 0.27236 0.78222 0.0
O407 O 0.25458 0.25538 0.76205 0.0
Zn408 Zn 0.27407 0.24705 0.74348 0.0
Zn409 Zn 0.24217 0.2326 0.77365 0.0
Zn410 Zn 0.23575 0.27015 0.74888 0.0
O411 O 0.26907 0.25756 0.71719 0.0
O412 O 0.24454 0.27703 0.72239 0.0
O413 O 0.29318 0.27748 0.77724 0.0
O414 O 0.2999 0.25797 0.75173 0.0
O415 O 0.27443 0.21725 0.74059 0.0
O416 O 0.25419 0.20805 0.76346 0.0
O417 O 0.21479 0.22883 0.76532 0.0
O418 O 0.25294 0.29816 0.78455 0.0
O419 O 0.21285 0.25296 0.74444 0.0
O420 O 0.229 0.2953 0.76367 0.0
C421 C 0.25387 0.24533 0.81425 0.0
C422 C 0.25731 0.27001 0.71127 0.0
C423 C 0.26589 0.20383 0.74998 0.0
C424 C 0.30502 0.27059 0.76498 0.0
C425 C 0.20608 0.23751 0.75204 0.0
C426 C 0.23808 0.30493 0.77704 0.0
O427 O 0.24463 0.23355 0.80273 0.0
O428 O 0.00643 0.01081 0.47294 0.0
Zn429 Zn 0.99468 0.99465 0.4938 0.0
O430 O 0.00864 -0.00092 0.51793 0.0
Zn431 Zn 0.01783 0.97427 0.52778 0.0
Zn432 Zn 0.02977 0.01737 0.51429 0.0
Zn433 Zn 0.99165 0.01094 0.53641 0.0
O434 O 0.00461 0.96723 0.55302 0.0
O435 O 0.98318 0.99084 0.55487 0.0
O436 O 0.99571 0.96614 0.48492 0.0
O437 O 0.01231 0.95234 0.50804 0.0
O438 O 0.04654 0.97502 0.53035 0.0
O439 O 0.05422 0.00323 0.51653 0.0
O440 O 0.03046 0.03923 0.53466 0.0
O441 O 0.9676 0.00346 0.49579 0.0
O442 O 0.00457 0.03311 0.55196 0.0
O443 O 0.96835 0.02096 0.5236 0.0
C444 C 0.01946 0.02414 0.47277 0.0
C445 C 0.9899 0.97485 0.56076 0.0
C446 C 0.05898 0.98708 0.52385 0.0
C447 C 0.00354 0.95117 0.49189 0.0
C448 C 0.01981 0.04306 0.54914 0.0
C449 C 0.95993 0.01541 0.50794 0.0
O450 O 0.02916 0.02874 0.4879 0.0
O451 O 0.29315 0.74406 0.74086 0.0
Zn452 Zn 0.27241 0.75954 0.75253 0.0
O453 O 0.24853 0.75107 0.74123 0.0
Zn454 Zn 0.23554 0.77406 0.73137 0.0
Zn455 Zn 0.25248 0.73105 0.72059 0.0
Zn456 Zn 0.23415 0.73942 0.7618 0.0
O457 O 0.21155 0.77982 0.74684 0.0
O458 O 0.21426 0.75818 0.77015 0.0
O459 O 0.27744 0.78802 0.74941 0.0
O460 O 0.25216 0.799 0.73426 0.0
O461 O 0.23045 0.76985 0.70274 0.0
O462 O 0.24608 0.74252 0.69483 0.0
O463 O 0.23496 0.70739 0.72403 0.0
O464 O 0.27405 0.75523 0.78084 0.0
O465 O 0.22143 0.71401 0.75254 0.0
O466 O 0.24966 0.73484 0.78573 0.0
C467 C 0.29444 0.72929 0.72909 0.0
C468 C 0.20629 0.77292 0.76298 0.0
C469 C 0.23655 0.75739 0.69003 0.0
C470 C 0.26838 0.80196 0.74213 0.0
C471 C 0.22328 0.70293 0.73737 0.0
C472 C 0.26472 0.74386 0.79174 0.0
O473 O 0.27989 0.72195 0.72022 0.0
O474 O 0.52534 0.02843 0.04072 0.0
Zn475 Zn 0.5157 0.0228 0.01414 0.0
O476 O 0.49015 0.01354 0.01641 0.0
Zn477 Zn 0.48921 0.98569 0.01103 0.0
Zn478 Zn 0.48035 0.0196 0.04211 0.0
Zn479 Zn 0.47584 0.02613 0.9973 0.0
O480 O 0.47584 0.97898 0.98629 0.0
O481 O 0.47447 0.00842 0.97308 0.0
O482 O 0.53228 0.00257 0.00115 0.0
O483 O 0.5155 0.97525 0.00705 0.0
O484 O 0.47685 0.97171 0.03253 0.0
O485 O 0.47732 0.99439 0.05663 0.0
O486 O 0.45335 0.02958 0.03994 0.0
O487 O 0.51726 0.04888 0.00165 0.0
O488 O 0.44957 0.02929 0.00787 0.0
O489 O 0.48742 0.05309 0.99263 0.0
C490 C 0.5177 0.03551 0.0561 0.0
C491 C 0.47307 0.98958 0.9718 0.0
C492 C 0.47439 0.97673 0.05026 0.0
C493 C 0.53069 0.9838 0.00133 0.0
C494 C 0.4428 0.03096 0.02498 0.0
C495 C 0.50444 0.05963 0.99493 0.0
O496 O 0.49965 0.03643 0.05788 0.0
O497 O 0.2157 0.26542 0.25157 0.0
Zn498 Zn 0.24114 0.26142 0.26302 0.0
O499 O 0.26057 0.2727 0.24687 0.0
Zn500 Zn 0.27764 0.25226 0.23797 0.0
Zn501 Zn 0.24932 0.28546 0.22464 0.0
Zn502 Zn 0.27461 0.2917 0.26282 0.0
O503 O 0.3042 0.25747 0.24755 0.0
O504 O 0.30053 0.28217 0.26917 0.0
O505 O 0.24502 0.23278 0.2667 0.0
O506 O 0.26941 0.2257 0.24744 0.0
O507 O 0.27704 0.24924 0.20921 0.0
O508 O 0.25357 0.26836 0.20028 0.0
O509 O 0.26214 0.31265 0.22067 0.0
O510 O 0.23929 0.27513 0.28884 0.0
O511 O 0.27957 0.31521 0.24754 0.0
O512 O 0.26063 0.29955 0.28726 0.0
C513 C 0.20947 0.27709 0.23914 0.0
C514 C 0.31083 0.26923 0.26081 0.0
C515 C 0.26589 0.2553 0.1963 0.0
C516 C 0.2566 0.22051 0.25932 0.0
C517 C 0.27442 0.32189 0.23145 0.0
C518 C 0.2471 0.29081 0.296 0.0
O519 O 0.22069 0.28708 0.22848 0.0
O520 O 0.50712 0.50311 0.96971 0.0
Zn521 Zn 0.49601 0.48917 0.9923 0.0
O522 O 0.50992 0.497 0.01558 0.0
Zn523 Zn 0.51958 0.474 0.0283 0.0
Zn524 Zn 0.53019 0.51582 0.00986 0.0
Zn525 Zn 0.49253 0.51003 0.03254 0.0
O526 O 0.5074 0.47075 0.05487 0.0
O527 O 0.48389 0.49195 0.05284 0.0
O528 O 0.49776 0.46011 0.98693 0.0
O529 O 0.51418 0.44933 0.01177 0.0
O530 O 0.54815 0.47598 0.02985 0.0
O531 O 0.55515 0.50291 0.01344 0.0
O532 O 0.53032 0.53957 0.02823 0.0
O533 O 0.46867 0.49722 0.99323 0.0
O534 O 0.50492 0.53346 0.04626 0.0
O535 O 0.46977 0.51878 0.01822 0.0
C536 C 0.51906 0.51733 0.96789 0.0
C537 C 0.49198 0.47804 0.06129 0.0
C538 C 0.56023 0.48769 0.02225 0.0
C539 C 0.50551 0.44618 0.99572 0.0
C540 C 0.51965 0.54387 0.04257 0.0
C541 C 0.46127 0.51099 0.00349 0.0
O542 O 0.5285 0.52455 0.98232 0.0
O543 O 0.8095 0.23304 0.24166 0.0
Zn544 Zn 0.78802 0.24843 0.25215 0.0
O545 O 0.76473 0.23749 0.24133 0.0
Zn546 Zn 0.74891 0.25875 0.23244 0.0
Zn547 Zn 0.76948 0.21832 0.22005 0.0
Zn548 Zn 0.75287 0.22446 0.26253 0.0
O549 O 0.72557 0.26234 0.24941 0.0
O550 O 0.73112 0.24047 0.27193 0.0
O551 O 0.7916 0.27653 0.24545 0.0
O552 O 0.76368 0.28485 0.23373 0.0
O553 O 0.74225 0.25409 0.20419 0.0
O554 O 0.76173 0.23017 0.1947 0.0
O555 O 0.75333 0.19319 0.22361 0.0
O556 O 0.78943 0.24736 0.28124 0.0
O557 O 0.74332 0.19769 0.25405 0.0
O558 O 0.76954 0.22223 0.28581 0.0
C559 C 0.81178 0.21917 0.22902 0.0
C560 C 0.72155 0.25452 0.26547 0.0
C561 C 0.74987 0.24346 0.19081 0.0
C562 C 0.78069 0.28935 0.23879 0.0
C563 C 0.74419 0.1873 0.23838 0.0
C564 C 0.78225 0.23443 0.29214 0.0
O565 O 0.79784 0.21183 0.21908 0.0
O566 O 0.02074 0.52914 0.54511 0.0
Zn567 Zn 0.01181 0.52521 0.51776 0.0
O568 O 0.98548 0.51728 0.5177 0.0
Zn569 Zn 0.98303 0.4895 0.51083 0.0
Zn570 Zn 0.97547 0.52267 0.54331 0.0
Zn571 Zn 0.97199 0.53192 0.49909 0.0
O572 O 0.96896 0.48472 0.48583 0.0
O573 O 0.96884 0.51508 0.47456 0.0
O574 O 0.02775 0.50469 0.5043 0.0
O575 O 0.00875 0.47808 0.50523 0.0
O576 O 0.97154 0.47465 0.53261 0.0
O577 O 0.97147 0.49713 0.55688 0.0
O578 O 0.94989 0.53519 0.54164 0.0
O579 O 0.01532 0.5516 0.5063 0.0
O580 O 0.94611 0.53881 0.50997 0.0
O581 O 0.98683 0.55703 0.49389 0.0
C582 C 0.01229 0.53638 0.55995 0.0
C583 C 0.9667 0.4964 0.472 0.0
C584 C 0.96916 0.4794 0.55046 0.0
C585 C 0.0248 0.48615 0.50158 0.0
C586 C 0.93972 0.53985 0.52729 0.0
C587 C 0.00391 0.5626 0.49767 0.0
O588 O 0.99429 0.53821 0.56015 0.0
O589 O 0.76743 0.76008 0.29984 0.0
Zn590 Zn 0.76946 0.77275 0.27394 0.0
O591 O 0.763 0.7547 0.25262 0.0
Zn592 Zn 0.78555 0.74869 0.23684 0.0
Zn593 Zn 0.75186 0.73138 0.26382 0.0
Zn594 Zn 0.74419 0.76628 0.23671 0.0
O595 O 0.77989 0.75144 0.20819 0.0
O596 O 0.75322 0.76838 0.20978 0.0
O597 O 0.79545 0.78397 0.27014 0.0
O598 O 0.80719 0.76779 0.2444 0.0
O599 O 0.79352 0.72048 0.24107 0.0
O600 O 0.76979 0.70988 0.25974 0.0
O601 O 0.72734 0.72225 0.25128 0.0
O602 O 0.75227 0.7955 0.27496 0.0
O603 O 0.72204 0.74789 0.23308 0.0
O604 O 0.73571 0.7926 0.2476 0.0
C605 C 0.75712 0.74552 0.30505 0.0
C606 C 0.76652 0.76043 0.20006 0.0
C607 C 0.78532 0.70713 0.25084 0.0
C608 C 0.80871 0.7811 0.25791 0.0
C609 C 0.71741 0.73086 0.2389 0.0
C610 C 0.74 0.80192 0.26341 0.0
O611 O 0.74855 0.73424 0.29259 0.0
O612 O 0.74165 0.23472 0.72446 0.0
Zn613 Zn 0.7403 0.24381 0.75229 0.0
O614 O 0.7546 0.26836 0.75682 0.0
Zn615 Zn 0.77675 0.26338 0.77296 0.0
Zn616 Zn 0.76234 0.27827 0.73171 0.0
Zn617 Zn 0.73868 0.28772 0.76987 0.0
O618 O 0.77765 0.28175 0.79655 0.0
O619 O 0.74999 0.29682 0.79564 0.0
O620 O 0.75065 0.22195 0.76768 0.0
O621 O 0.7761 0.23545 0.78226 0.0
O622 O 0.80097 0.26667 0.75763 0.0
O623 O 0.79046 0.27675 0.72939 0.0
O624 O 0.75581 0.3068 0.72877 0.0
O625 O 0.71301 0.24699 0.75958 0.0
O626 O 0.73735 0.3121 0.75442 0.0
O627 O 0.71213 0.27692 0.77378 0.0
C628 C 0.74542 0.24362 0.70898 0.0
C629 C 0.76578 0.29377 0.80393 0.0
C630 C 0.804 0.27199 0.74036 0.0
C631 C 0.76491 0.22068 0.77885 0.0
C632 C 0.74522 0.31799 0.739 0.0
C633 C 0.70395 0.26067 0.76838 0.0
O634 O 0.75185 0.26135 0.70927 0.0
O635 O 0.71841 0.76903 0.73924 0.0
Zn636 Zn 0.7386 0.75686 0.75499 0.0
O637 O 0.76341 0.76369 0.74463 0.0
Zn638 Zn 0.77771 0.73979 0.73957 0.0
Zn639 Zn 0.76106 0.77837 0.72082 0.0
Zn640 Zn 0.77665 0.77983 0.76398 0.0
O641 O 0.80317 0.74139 0.75259 0.0
O642 O 0.79922 0.76609 0.77412 0.0
O643 O 0.73468 0.7275 0.75534 0.0
O644 O 0.76349 0.71596 0.74943 0.0
O645 O 0.78152 0.73513 0.71098 0.0
O646 O 0.76787 0.76074 0.69771 0.0
O647 O 0.77818 0.80316 0.72148 0.0
O648 O 0.73511 0.76714 0.78256 0.0
O649 O 0.78743 0.80393 0.75226 0.0
O650 O 0.76005 0.78757 0.78638 0.0
C651 C 0.71847 0.78069 0.72517 0.0
C652 C 0.80896 0.75196 0.76711 0.0
C653 C 0.77635 0.74433 0.69618 0.0
C654 C 0.74616 0.71326 0.75412 0.0
C655 C 0.78757 0.81126 0.73556 0.0
C656 C 0.7444 0.78033 0.79238 0.0
O657 O 0.73387 0.78609 0.71698 0.0
O658 O 0.51516 0.54334 0.53706 0.0
Zn659 Zn 0.52027 0.52051 0.51851 0.0
O660 O 0.5098 0.49606 0.52851 0.0
Zn661 Zn 0.52952 0.47657 0.53188 0.0
Zn662 Zn 0.49597 0.50127 0.55255 0.0
Zn663 Zn 0.49238 0.48508 0.50974 0.0
O664 O 0.5253 0.45153 0.515 0.0
O665 O 0.50363 0.46259 0.49496 0.0
O666 O 0.54829 0.51811 0.5144 0.0
O667 O 0.55492 0.48793 0.52365 0.0
O668 O 0.53229 0.47118 0.56016 0.0
O669 O 0.51038 0.48982 0.57443 0.0
O670 O 0.46903 0.48974 0.55154 0.0
O671 O 0.5084 0.52729 0.49298 0.0
O672 O 0.46884 0.47525 0.52214 0.0
O673 O 0.48517 0.5047 0.49053 0.0
C674 C 0.50432 0.54535 0.55174 0.0
C675 C 0.51562 0.44977 0.4994 0.0
C676 C 0.52431 0.47819 0.57541 0.0
C677 C 0.56011 0.50447 0.51693 0.0
C678 C 0.46095 0.47884 0.53838 0.0
C679 C 0.49354 0.52016 0.48459 0.0
O680 O 0.49528 0.53063 0.55858 0.0
O681 O 0.03961 0.46396 0.02112 0.0
Zn682 Zn 0.0325 0.4899 0.01206 0.0
O683 O 0.03286 0.50934 0.03326 0.0
Zn684 Zn 0.00696 0.51727 0.03798 0.0
Zn685 Zn 0.04413 0.49819 0.0566 0.0
Zn686 Zn 0.04726 0.53205 0.025 0.0
O687 O 0.00393 0.54681 0.03796 0.0
O688 O 0.0321 0.55647 0.02699 0.0
O689 O 0.00699 0.48687 -0.00111 0.0
O690 O 0.98926 0.5062 0.01759 0.0
O691 O -0.00154 0.50772 0.06343 0.0
O692 O 0.02482 0.49934 0.07871 0.0
O693 O 0.06868 0.51332 0.06466 0.0
O694 O 0.05029 0.49693 0.99142 0.0
O695 O 0.06891 0.53672 0.04279 0.0
O696 O 0.05693 0.52868 0.9974 0.0
C697 C 0.0463 0.45747 0.03667 0.0
C698 C 0.01541 0.56038 0.03273 0.0
C699 C 0.00692 0.50198 0.07842 0.0
C700 C 0.99111 0.49458 0.00288 0.0
C701 C 0.07595 0.52893 0.05757 0.0
C702 C 0.05785 0.51315 0.98649 0.0
O703 O 0.04931 0.4689 0.05154 0.0
H704 H 0.98955 0.23128 0.10484 0.0
H705 H 0.98591 0.19858 0.08927 0.0
H706 H 0.94848 0.18058 0.13526 0.0
H707 H 0.95264 0.21344 0.15127 0.0
H708 H 0.97827 0.15578 0.1291 0.0
H709 H 0.93122 0.18492 0.08937 0.0
H710 H 0.91921 0.21109 0.069 0.0
H711 H 0.9638 0.20039 0.02781 0.0
H712 H 0.97626 0.17434 0.04804 0.0
H713 H 0.97269 0.06084 0.08359 0.0
H714 H 0.96272 0.09281 0.09692 0.0
H715 H 0.99751 0.12246 0.05497 0.0
H716 H 0.00738 0.09053 0.0413 0.0
H717 H 0.96345 0.14028 0.05984 0.0
H718 H 0.01391 0.11796 0.09949 0.0
H719 H 0.0305 0.09425 0.11942 0.0
H720 H 0.9843 0.09466 0.16002 0.0
H721 H 0.96729 0.11819 0.14015 0.0
C722 C 0.98019 0.22047 0.11137 0.0
C723 C 0.97113 0.22481 0.12905 0.0
C724 C 0.97802 0.20185 0.10242 0.0
C725 C 0.96671 0.18726 0.11096 0.0
C726 C 0.95708 0.19176 0.12835 0.0
C727 C 0.95925 0.21052 0.13734 0.0
C728 C 0.96689 0.16684 0.10271 0.0
C729 C 0.97446 0.1522 0.11413 0.0
C730 C 0.96268 0.16253 0.08293 0.0
C731 C 0.9547 0.17763 0.07027 0.0
C732 C 0.93849 0.18814 0.07598 0.0
C733 C 0.93161 0.20298 0.06446 0.0
C734 C 0.94074 0.2074 0.04713 0.0
C735 C 0.95672 0.19693 0.04123 0.0
C736 C 0.96367 0.18208 0.05269 0.0
C737 C 0.97823 0.07414 0.07716 0.0
C738 C 0.99102 0.07312 0.06151 0.0
C739 C 0.97246 0.09239 0.08477 0.0
C740 C 0.97949 0.10997 0.07701 0.0
C741 C 0.99187 0.10904 0.06111 0.0
C742 C 0.99761 0.09078 0.05342 0.0
C743 C 0.97488 0.12931 0.08624 0.0
C744 C 0.96666 0.14372 0.07497 0.0
C745 C 0.97893 0.13362 0.10605 0.0
C746 C 0.9892 0.11965 0.11819 0.0
C747 C 0.00721 0.11288 0.11258 0.0
C748 C 0.0167 0.09949 0.12388 0.0
C749 C 0.00842 0.09289 0.14094 0.0
C750 C 0.99067 0.09975 0.14677 0.0
C751 C 0.9811 0.11312 0.1355 0.0
H752 H 0.01579 0.08251 0.14965 0.0
H753 H 0.93543 0.21893 0.03826 0.0
H754 H 0.03694 0.75197 0.31984 0.0
H755 H 0.06858 0.74766 0.30612 0.0
H756 H 0.08437 0.71337 0.35479 0.0
H757 H 0.0525 0.71733 0.3686 0.0
H758 H 0.11251 0.74434 0.34094 0.0
H759 H 0.07484 0.68736 0.31968 0.0
H760 H 0.04611 0.6706 0.30609 0.0
H761 H 0.05366 0.70101 0.25301 0.0
H762 H 0.08228 0.71822 0.26642 0.0
H763 H 0.1951 0.7126 0.29265 0.0
H764 H 0.16395 0.70497 0.30691 0.0
H765 H 0.13742 0.74337 0.26691 0.0
H766 H 0.16862 0.75172 0.25327 0.0
H767 H 0.11566 0.70538 0.27865 0.0
H768 H 0.14761 0.76671 0.30126 0.0
H769 H 0.17601 0.78539 0.31317 0.0
H770 H 0.1786 0.74866 0.36248 0.0
H771 H 0.15043 0.72944 0.35057 0.0
C772 C 0.04717 0.74368 0.32775 0.0
C773 C 0.04223 0.73477 0.34517 0.0
C774 C 0.0652 0.74122 0.31988 0.0
C775 C 0.07858 0.73003 0.3294 0.0
C776 C 0.07408 0.72197 0.34728 0.0
C777 C 0.05592 0.72418 0.35506 0.0
C778 C 0.09688 0.72605 0.31999 0.0
C779 C 0.11332 0.73543 0.3276 0.0
C780 C 0.09768 0.71476 0.30237 0.0
C781 C 0.08064 0.7042 0.29412 0.0
C782 C 0.0703 0.6906 0.30517 0.0
C783 C 0.05404 0.681 0.29749 0.0
C784 C 0.04804 0.68477 0.27871 0.0
C785 C 0.05832 0.69811 0.26756 0.0
C786 C 0.07458 0.70778 0.27519 0.0
C787 C 0.18249 0.71882 0.28653 0.0
C788 C 0.18399 0.73281 0.2721 0.0
C789 C 0.16481 0.71445 0.29461 0.0
C790 C 0.14858 0.72371 0.28792 0.0
C791 C 0.14987 0.73606 0.2721 0.0
C792 C 0.1676 0.74089 0.26443 0.0
C793 C 0.13118 0.72369 0.29959 0.0
C794 C 0.11491 0.71376 0.29231 0.0
C795 C 0.13047 0.73466 0.31739 0.0
C796 C 0.1471 0.74646 0.32489 0.0
C797 C 0.15436 0.76248 0.31454 0.0
C798 C 0.1704 0.77318 0.32129 0.0
C799 C 0.17915 0.76817 0.33854 0.0
C800 C 0.17183 0.75248 0.34909 0.0
C801 C 0.15584 0.74167 0.34234 0.0
H802 H 0.19156 0.77647 0.34376 0.0
H803 H 0.03545 0.67732 0.2728 0.0
H804 H 0.49394 0.7865 0.58589 0.0
H805 H 0.50874 0.8079 0.562 0.0
H806 H 0.47791 0.85738 0.58613 0.0
H807 H 0.46235 0.83568 0.60917 0.0
H808 H 0.48406 0.86327 0.54974 0.0
H809 H 0.52351 0.8417 0.60386 0.0
H810 H 0.54013 0.81688 0.62247 0.0
H811 H 0.57065 0.79836 0.57136 0.0
H812 H 0.55406 0.82298 0.55243 0.0
H813 H 0.54737 0.94163 0.57441 0.0
H814 H 0.53747 0.90721 0.57793 0.0
H815 H 0.54641 0.89546 0.51689 0.0
H816 H 0.55608 0.93005 0.51305 0.0
H817 H 0.55364 0.86567 0.56168 0.0
H818 H 0.51218 0.88954 0.50746 0.0
H819 H 0.49651 0.91744 0.4924 0.0
H820 H 0.47071 0.93353 0.54689 0.0
H821 H 0.48649 0.9059 0.5623 0.0
C822 C 0.4898 0.80179 0.58546 0.0
C823 C 0.47713 0.80959 0.59926 0.0
C824 C 0.49835 0.81403 0.57196 0.0
C825 C 0.49492 0.83439 0.57267 0.0
C826 C 0.48089 0.84175 0.58534 0.0
C827 C 0.47197 0.82939 0.59851 0.0
C828 C 0.50758 0.84852 0.56254 0.0
C829 C 0.49932 0.86349 0.552 0.0
C830 C 0.52759 0.84886 0.5653 0.0
C831 C 0.53739 0.83399 0.57669 0.0
C832 C 0.53368 0.83224 0.59658 0.0
C833 C 0.54311 0.81822 0.60718 0.0
C834 C 0.55641 0.80601 0.59808 0.0
C835 C 0.56031 0.8078 0.57837 0.0
C836 C 0.55091 0.82177 0.5677 0.0
C837 C 0.5479 0.93164 0.56182 0.0
C838 C 0.55206 0.9387 0.54336 0.0
C839 C 0.5422 0.91197 0.56387 0.0
C840 C 0.5408 0.89906 0.54757 0.0
C841 C 0.54711 0.90538 0.52954 0.0
C842 C 0.55267 0.92513 0.52742 0.0
C843 C 0.53001 0.88029 0.54925 0.0
C844 C 0.53854 0.86472 0.55849 0.0
C845 C 0.51031 0.87937 0.54533 0.0
C846 C 0.50062 0.89579 0.53604 0.0
C847 C 0.50326 0.89912 0.51623 0.0
C848 C 0.49436 0.91487 0.50764 0.0
C849 C 0.48265 0.92728 0.51869 0.0
C850 C 0.4798 0.92393 0.53835 0.0
C851 C 0.48872 0.90824 0.54702 0.0
H852 H 0.47576 0.93944 0.51201 0.0
H853 H 0.56376 0.7952 0.60627 0.0
H854 H 0.47352 0.24553 0.82539 0.0
H855 H 0.44846 0.26003 0.8063 0.0
H856 H 0.40692 0.24263 0.84872 0.0
H857 H 0.43191 0.22823 0.868 0.0
H858 H 0.39842 0.22994 0.81074 0.0
H859 H 0.41745 0.28838 0.84697 0.0
H860 H 0.43937 0.31453 0.85988 0.0
H861 H 0.45141 0.3326 0.8021 0.0
H862 H 0.42983 0.30627 0.78878 0.0
H863 H 0.32094 0.29528 0.79293 0.0
H864 H 0.3539 0.29565 0.80343 0.0
H865 H 0.36845 0.25862 0.75377 0.0
H866 H 0.33528 0.25769 0.74332 0.0
H867 H 0.39237 0.30003 0.79331 0.0
H868 H 0.3858 0.21857 0.7708 0.0
H869 H 0.36104 0.19362 0.76131 0.0
H870 H 0.32083 0.22324 0.79829 0.0
H871 H 0.34541 0.2482 0.80811 0.0
C872 C 0.45904 0.24482 0.83067 0.0
C873 C 0.45458 0.2356 0.84809 0.0
C874 C 0.44482 0.25329 0.81985 0.0
C875 C 0.42595 0.25245 0.8262 0.0
C876 C 0.42148 0.24345 0.84368 0.0
C877 C 0.43572 0.2352 0.85463 0.0
C878 C 0.41057 0.25938 0.81384 0.0
C879 C 0.39723 0.24524 0.80681 0.0
C880 C 0.40902 0.27939 0.80889 0.0
C881 C 0.42222 0.2951 0.81684 0.0
C882 C 0.42497 0.29772 0.83698 0.0
C883 C 0.43729 0.31264 0.84438 0.0
C884 C 0.44683 0.32517 0.83181 0.0
C885 C 0.44404 0.32284 0.81181 0.0
C886 C 0.43177 0.30791 0.80433 0.0
C887 C 0.3312 0.28767 0.78387 0.0
C888 C 0.32537 0.27569 0.76777 0.0
C889 C 0.35013 0.28815 0.78979 0.0
C890 C 0.36344 0.27672 0.77965 0.0
C891 C 0.35825 0.26728 0.76192 0.0
C892 C 0.33925 0.26663 0.75607 0.0
C893 C 0.38046 0.2705 0.79009 0.0
C894 C 0.39398 0.28469 0.79686 0.0
C895 C 0.38204 0.2506 0.79533 0.0
C896 C 0.36737 0.23529 0.79003 0.0
C897 C 0.37169 0.21966 0.77696 0.0
C898 C 0.35769 0.20555 0.77151 0.0
C899 C 0.33936 0.20688 0.77915 0.0
C900 C 0.33502 0.22225 0.79235 0.0
C901 C 0.34897 0.23638 0.79786 0.0
H902 H 0.32853 0.19598 0.77488 0.0
H903 H 0.45633 0.33673 0.83758 0.0
H904 H 0.01561 0.78181 0.39822 0.0
H905 H 0.02667 0.81378 0.41241 0.0
H906 H 0.97326 0.83937 0.39772 0.0
H907 H 0.96193 0.80737 0.38412 0.0
H908 H 0.00897 0.86549 0.39529 0.0
H909 H 0.97234 0.82073 0.43718 0.0
H910 H 0.96737 0.78839 0.45196 0.0
H911 H 0.02281 0.79334 0.47784 0.0
H912 H 0.02823 0.82558 0.46287 0.0
H913 H 0.98192 0.94085 0.46011 0.0
H914 H 0.98395 0.91096 0.4395 0.0
H915 H 0.02808 0.88958 0.47617 0.0
H916 H 0.02577 0.91922 0.49721 0.0
H917 H 0.00442 0.86074 0.46678 0.0
H918 H 0.03881 0.90834 0.43163 0.0
H919 H 0.04548 0.94027 0.41666 0.0
H920 H -0.0019 0.93018 0.37814 0.0
H921 H 0.99096 0.89829 0.39304 0.0
C922 C 0.00654 0.79447 0.39739 0.0
C923 C 0.98789 0.79224 0.39032 0.0
C924 C 0.01286 0.81265 0.4055 0.0
C925 C 0.00069 0.82877 0.40616 0.0
C926 C 0.98282 0.82706 0.39723 0.0
C927 C 0.97635 0.80881 0.38958 0.0
C928 C 0.00489 0.84613 0.41903 0.0
C929 C 0.00805 0.86458 0.41092 0.0
C930 C 0.00421 0.84462 0.4394 0.0
C931 C 0.0008 0.82542 0.44869 0.0
C932 C 0.98353 0.81484 0.44587 0.0
C933 C 0.98062 0.79654 0.4543 0.0
C934 C 0.99479 0.78878 0.46577 0.0
C935 C 0.01187 0.79935 0.4689 0.0
C936 C 0.01487 0.81763 0.46044 0.0
C937 C 0.992 0.92976 0.46385 0.0
C938 C 0.00373 0.93245 0.48025 0.0
C939 C 0.99327 0.91275 0.45196 0.0
C940 C 0.00651 0.89827 0.45603 0.0
C941 C 0.01788 0.90065 0.47268 0.0
C942 C 0.01648 0.91757 0.48471 0.0
C943 C 0.00804 0.88045 0.4431 0.0
C944 C 0.00587 0.86181 0.4512 0.0
C945 C 0.00999 0.8818 0.42274 0.0
C946 C 0.01427 0.90094 0.41357 0.0
C947 C 0.02973 0.91297 0.42005 0.0
C948 C 0.03361 0.93106 0.41156 0.0
C949 C 0.0222 0.93727 0.39648 0.0
C950 C 0.00692 0.92536 0.38982 0.0
C951 C 0.00297 0.90725 0.39827 0.0
H952 H 0.02522 0.95128 0.38994 0.0
H953 H 0.99252 0.7746 0.47227 0.0
H954 H 0.46378 0.728 0.67223 0.0
H955 H 0.43873 0.70485 0.68272 0.0
H956 H 0.41304 0.7521 0.71629 0.0
H957 H 0.43752 0.77543 0.70502 0.0
H958 H 0.41455 0.71017 0.73363 0.0
H959 H 0.39598 0.74956 0.67715 0.0
H960 H 0.40203 0.76031 0.6439 0.0
H961 H 0.40279 0.69986 0.62325 0.0
H962 H 0.39717 0.68867 0.65655 0.0
H963 H 0.32748 0.7427 0.74541 0.0
H964 H 0.35907 0.73131 0.73936 0.0
H965 H 0.33695 0.68492 0.70055 0.0
H966 H 0.30458 0.69681 0.70625 0.0
H967 H 0.36373 0.70552 0.68375 0.0
H968 H 0.36332 0.67253 0.7424 0.0
H969 H 0.35549 0.66667 0.77657 0.0
H970 H 0.38904 0.71775 0.79469 0.0
H971 H 0.39687 0.72414 0.76071 0.0
C972 C 0.45285 0.73327 0.68205 0.0
C973 C 0.45221 0.75335 0.68775 0.0
C974 C 0.43876 0.72006 0.68813 0.0
C975 C 0.42427 0.7268 0.70039 0.0
C976 C 0.42434 0.74667 0.70703 0.0
C977 C 0.4381 0.75997 0.70048 0.0
C978 C 0.40726 0.71442 0.70387 0.0
C979 C 0.40341 0.70866 0.72278 0.0
C980 C 0.39323 0.71175 0.68935 0.0
C981 C 0.39648 0.71829 0.66934 0.0
C982 C 0.39767 0.73854 0.66555 0.0
C983 C 0.40102 0.74471 0.64672 0.0
C984 C 0.40298 0.73074 0.63151 0.0
C985 C 0.40147 0.71059 0.6351 0.0
C986 C 0.39822 0.70433 0.65395 0.0
C987 C 0.3291 0.72986 0.73579 0.0
C988 C 0.31344 0.72081 0.72614 0.0
C989 C 0.3473 0.72308 0.73261 0.0
C990 C 0.35044 0.70685 0.71993 0.0
C991 C 0.33482 0.69727 0.71066 0.0
C992 C 0.31639 0.70417 0.7138 0.0
C993 C 0.37027 0.70284 0.71409 0.0
C994 C 0.37492 0.7055 0.69456 0.0
C995 C 0.38496 0.7028 0.72818 0.0
C996 C 0.38081 0.69872 0.74886 0.0
C997 C 0.36905 0.68253 0.75365 0.0
C998 C 0.36459 0.67913 0.77301 0.0
C999 C 0.37179 0.69181 0.78779 0.0
C1000 C 0.38353 0.70788 0.78324 0.0
C1001 C 0.38806 0.71134 0.76391 0.0
H1002 H 0.36824 0.6892 0.80276 0.0
H1003 H 0.40555 0.73552 0.61693 0.0
H1004 H 0.46758 0.21154 0.95777 0.0
H1005 H 0.48078 0.19315 0.98392 0.0
H1006 H 0.53718 0.21412 0.96924 0.0
H1007 H 0.52391 0.23193 0.94244 0.0
H1008 H 0.53546 0.17769 0.96183 0.0
H1009 H 0.52229 0.21265 0.01861 0.0
H1010 H 0.50611 0.23416 0.0426 0.0
H1011 H 0.46091 0.19095 0.0471 0.0
H1012 H 0.47659 0.16928 0.02291 0.0
H1013 H 0.53933 0.07838 0.99663 0.0
H1014 H 0.54599 0.11404 0.99727 0.0
H1015 H 0.48633 0.12458 0.98966 0.0
H1016 H 0.47949 0.08909 0.98896 0.0
H1017 H 0.50467 0.1495 0.0195 0.0
H1018 H 0.51443 0.12516 0.95134 0.0
H1019 H 0.53109 0.10445 0.92692 0.0
H1020 H 0.58465 0.12992 0.94584 0.0
H1021 H 0.56827 0.15065 0.97051 0.0
C1022 C 0.48267 0.213 0.96072 0.0
C1023 C 0.49484 0.22243 0.94773 0.0
C1024 C 0.49029 0.20259 0.97587 0.0
C1025 C 0.51012 0.20179 0.97832 0.0
C1026 C 0.5219 0.2142 0.96743 0.0
C1027 C 0.51432 0.22428 0.95205 0.0
C1028 C 0.51807 0.18402 0.98706 0.0
C1029 C 0.52934 0.17191 0.97495 0.0
C1030 C 0.51043 0.17632 0.00425 0.0
C1031 C 0.50072 0.18925 0.01888 0.0
C1032 C 0.50885 0.20773 0.02461 0.0
C1033 C 0.49976 0.21998 0.03827 0.0
C1034 C 0.48251 0.21392 0.04638 0.0
C1035 C 0.47431 0.1956 0.04085 0.0
C1036 C 0.48334 0.18329 0.02719 0.0
C1037 C 0.52763 0.08828 0.99492 0.0
C1038 C 0.50886 0.08087 0.99266 0.0
C1039 C 0.53147 0.10863 0.9955 0.0
C1040 C 0.51661 0.12187 0.99387 0.0
C1041 C 0.49795 0.11454 0.9913 0.0
C1042 C 0.4941 0.09425 0.99059 0.0
C1043 C 0.52029 0.14338 0.99327 0.0
C1044 C 0.51146 0.1559 0.00702 0.0
C1045 C 0.53036 0.15162 0.97773 0.0
C1046 C 0.54017 0.13922 0.9629 0.0
C1047 C 0.52977 0.12622 0.95037 0.0
C1048 C 0.53915 0.11451 0.93647 0.0
C1049 C 0.55893 0.11581 0.93488 0.0
C1050 C 0.56935 0.12888 0.94713 0.0
C1051 C 0.56002 0.14061 0.96107 0.0
H1052 H 0.56617 0.10674 0.92411 0.0
H1053 H 0.47548 0.22342 0.05695 0.0
H1054 H 0.08313 0.23197 0.14987 0.0
H1055 H 0.10053 0.23832 0.17982 0.0
H1056 H 0.0615 0.28413 0.19658 0.0
H1057 H 0.04487 0.27878 0.16574 0.0
H1058 H 0.09398 0.298 0.20205 0.0
H1059 H 0.06626 0.24095 0.22478 0.0
H1060 H 0.05277 0.20705 0.22496 0.0
H1061 H 0.10798 0.18355 0.21392 0.0
H1062 H 0.1218 0.21726 0.21336 0.0
H1063 H 0.18212 0.26493 0.26442 0.0
H1064 H 0.14772 0.26501 0.26004 0.0
H1065 H 0.15541 0.29223 0.20489 0.0
H1066 H 0.18972 0.29274 0.20945 0.0
H1067 H 0.12778 0.24555 0.23547 0.0
H1068 H 0.12081 0.31861 0.19154 0.0
H1069 H 0.1322 0.35323 0.19501 0.0
H1070 H 0.14146 0.34639 0.25585 0.0
H1071 H 0.12984 0.31182 0.25286 0.0
C1072 C 0.07806 0.24322 0.16003 0.0
C1073 C 0.06242 0.25466 0.15553 0.0
C1074 C 0.08785 0.24663 0.17738 0.0
C1075 C 0.08207 0.26136 0.19083 0.0
C1076 C 0.06607 0.27246 0.18662 0.0
C1077 C 0.05641 0.26923 0.16905 0.0
C1078 C 0.09463 0.26686 0.20753 0.0
C1079 C 0.10114 0.28659 0.20966 0.0
C1080 C 0.1032 0.25225 0.21857 0.0
C1081 C 0.0951 0.23175 0.21909 0.0
C1082 C 0.07554 0.22857 0.22233 0.0
C1083 C 0.06782 0.20937 0.22249 0.0
C1084 C 0.07951 0.19316 0.21947 0.0
C1085 C 0.09895 0.19612 0.21632 0.0
C1086 C 0.10675 0.2153 0.21615 0.0
C1087 C 0.17646 0.27121 0.25147 0.0
C1088 C 0.18866 0.27871 0.23717 0.0
C1089 C 0.15677 0.27129 0.24905 0.0
C1090 C 0.1489 0.27882 0.23226 0.0
C1091 C 0.16107 0.28682 0.21824 0.0
C1092 C 0.18074 0.28694 0.22074 0.0
C1093 C 0.12832 0.27619 0.22796 0.0
C1094 C 0.1202 0.25707 0.22845 0.0
C1095 C 0.1178 0.29152 0.22008 0.0
C1096 C 0.12443 0.31253 0.22195 0.0
C1097 C 0.12507 0.32451 0.20571 0.0
C1098 C 0.13163 0.34413 0.20758 0.0
C1099 C 0.13756 0.352 0.22563 0.0
C1100 C 0.1369 0.34027 0.24186 0.0
C1101 C 0.13035 0.32065 0.24008 0.0
H1102 H 0.14267 0.36718 0.22703 0.0
H1103 H 0.07351 0.1783 0.21957 0.0
H1104 H 0.1089 0.95198 0.2382 0.0
H1105 H 0.08897 0.95025 0.20936 0.0
H1106 H 0.13047 0.98555 0.17914 0.0
H1107 H 0.15016 0.98804 0.20836 0.0
H1108 H 0.09748 0.0015 0.17679 0.0
H1109 H 0.11976 0.93541 0.16637 0.0
H1110 H 0.12669 0.90124 0.17483 0.0
H1111 H 0.06759 0.89007 0.18648 0.0
H1112 H 0.06032 0.92424 0.17829 0.0
H1113 H 0.06212 0.97526 0.07988 0.0
H1114 H 0.07998 0.97092 0.1096 0.0
H1115 H 0.02992 0.98293 0.14355 0.0
H1116 H 0.01188 0.98806 0.11371 0.0
H1117 H 0.0649 0.94327 0.14494 0.0
H1118 H 0.04462 0.01248 0.15926 0.0
H1119 H 0.03915 0.04649 0.14921 0.0
H1120 H 0.09662 0.0511 0.12883 0.0
H1121 H 0.10226 0.01687 0.13828 0.0
C1122 C 0.11406 0.95893 0.22526 0.0
C1123 C 0.13095 0.9704 0.22559 0.0
C1124 C 0.10263 0.95789 0.20873 0.0
C1125 C 0.10815 0.96787 0.19209 0.0
C1126 C 0.12582 0.97793 0.1919 0.0
C1127 C 0.13711 0.97925 0.20854 0.0
C1128 C 0.09467 0.96964 0.17577 0.0
C1129 C 0.09049 0.9887 0.1698 0.0
C1130 C 0.08516 0.95302 0.16689 0.0
C1131 C 0.08952 0.93246 0.17188 0.0
C1132 C 0.10826 0.92572 0.17088 0.0
C1133 C 0.11225 0.90634 0.1756 0.0
C1134 C 0.0976 0.89351 0.18124 0.0
C1135 C 0.07893 0.90002 0.18213 0.0
C1136 C 0.07486 0.91939 0.17742 0.0
C1137 C 0.05478 0.97682 0.09362 0.0
C1138 C 0.03557 0.98202 0.09446 0.0
C1139 C 0.06506 0.97442 0.11057 0.0
C1140 C 0.05629 0.97689 0.12864 0.0
C1141 C 0.03695 0.98131 0.12965 0.0
C1142 C 0.02667 0.98412 0.11264 0.0
C1143 C 0.0678 0.97498 0.14626 0.0
C1144 C 0.07175 0.95596 0.15228 0.0
C1145 C 0.07717 0.99157 0.15516 0.0
C1146 C 0.07373 0.01198 0.14911 0.0
C1147 C 0.05598 0.0206 0.1523 0.0
C1148 C 0.05287 0.03994 0.14677 0.0
C1149 C 0.0675 0.05089 0.13826 0.0
C1150 C 0.08527 0.04254 0.13529 0.0
C1151 C 0.08842 0.02316 0.1407 0.0
H1152 H 0.06509 0.06587 0.13405 0.0
H1153 H 0.10072 0.87851 0.18488 0.0
H1154 H 0.26344 0.88027 0.47336 0.0
H1155 H 0.25171 0.8649 0.44277 0.0
H1156 H 0.30886 0.86438 0.42037 0.0
H1157 H 0.3208 0.87905 0.45113 0.0
H1158 H 0.27027 0.87926 0.39582 0.0
H1159 H 0.30597 0.82609 0.426 0.0
H1160 H 0.31417 0.80687 0.4544 0.0
H1161 H 0.25523 0.79168 0.46261 0.0
H1162 H 0.2467 0.81109 0.43436 0.0
H1163 H 0.28323 0.81236 0.3168 0.0
H1164 H 0.28675 0.83036 0.34792 0.0
H1165 H 0.23126 0.80934 0.36529 0.0
H1166 H 0.22741 0.79146 0.33385 0.0
H1167 H 0.2639 0.80599 0.39355 0.0
H1168 H 0.23199 0.85197 0.35416 0.0
H1169 H 0.22816 0.86869 0.32333 0.0
H1170 H 0.28247 0.89791 0.33143 0.0
H1171 H 0.28699 0.88078 0.36197 0.0
C1172 C 0.27346 0.87704 0.46183 0.0
C1173 C 0.29303 0.88067 0.46458 0.0
C1174 C 0.26675 0.86831 0.44443 0.0
C1175 C 0.27948 0.86357 0.42947 0.0
C1176 C 0.2989 0.86798 0.43185 0.0
C1177 C 0.30568 0.87624 0.4494 0.0
C1178 C 0.27274 0.85273 0.41184 0.0
C1179 C 0.26879 0.86327 0.39525 0.0
C1180 C 0.27069 0.83194 0.41136 0.0
C1181 C 0.27568 0.82024 0.42828 0.0
C1182 C 0.29475 0.81882 0.434 0.0
C1183 C 0.29946 0.80786 0.45003 0.0
C1184 C 0.28522 0.79812 0.46035 0.0
C1185 C 0.26624 0.79928 0.45463 0.0
C1186 C 0.26146 0.81026 0.43861 0.0
C1187 C 0.27176 0.81153 0.32722 0.0
C1188 C 0.25502 0.80054 0.3229 0.0
C1189 C 0.27379 0.82183 0.34495 0.0
C1190 C 0.25924 0.82116 0.35877 0.0
C1191 C 0.24261 0.80999 0.35472 0.0
C1192 C 0.24041 0.79991 0.33678 0.0
C1193 C 0.26162 0.83245 0.37733 0.0
C1194 C 0.26484 0.82201 0.39416 0.0
C1195 C 0.26325 0.85334 0.37789 0.0
C1196 C 0.25994 0.86486 0.36029 0.0
C1197 C 0.24318 0.86187 0.34934 0.0
C1198 C 0.24091 0.87137 0.33187 0.0
C1199 C 0.25514 0.88422 0.32536 0.0
C1200 C 0.27152 0.88785 0.33646 0.0
C1201 C 0.27395 0.87822 0.35384 0.0
H1202 H 0.25349 0.89136 0.31171 0.0
H1203 H 0.28889 0.78962 0.47275 0.0
H1204 H 0.43032 0.05029 0.72352 0.0
H1205 H 0.44257 0.04013 0.69161 0.0
H1206 H 0.39914 0.9943 0.68638 0.0
H1207 H 0.38655 0.00453 0.71815 0.0
H1208 H 0.43824 0.98236 0.67712 0.0
H1209 H 0.39131 0.02752 0.65971 0.0
H1210 H 0.37323 0.05826 0.66214 0.0
H1211 H 0.42369 0.09213 0.64936 0.0
H1212 H 0.44215 0.06161 0.64712 0.0
H1213 H 0.46757 0.00663 0.56962 0.0
H1214 H 0.44403 0.0044 0.59537 0.0
H1215 H 0.48876 0.99726 0.6371 0.0
H1216 H 0.51247 -0.00081 0.61134 0.0
H1217 H 0.44075 0.03012 0.62425 0.0
H1218 H 0.4728 0.97145 0.6747 0.0
H1219 H 0.48888 0.93956 0.67105 0.0
H1220 H 0.46365 0.92949 0.61483 0.0
H1221 H 0.44721 0.96117 0.61823 0.0
C1222 C 0.42332 0.03812 0.71555 0.0
C1223 C 0.40745 0.02828 0.72327 0.0
C1224 C 0.43031 0.03234 0.69737 0.0
C1225 C 0.42169 0.01651 0.68676 0.0
C1226 C 0.40594 0.00653 0.69443 0.0
C1227 C 0.39874 0.0125 0.7125 0.0
C1228 C 0.42931 0.01062 0.66759 0.0
C1229 C 0.4387 0.99263 0.66542 0.0
C1230 C 0.42918 0.0238 0.65221 0.0
C1231 C 0.41815 0.04226 0.65337 0.0
C1232 C 0.39859 0.04153 0.65756 0.0
C1233 C 0.38826 0.05892 0.65887 0.0
C1234 C 0.39731 0.07714 0.65594 0.0
C1235 C 0.4167 0.078 0.65163 0.0
C1236 C 0.4271 0.06066 0.65031 0.0
C1237 C 0.47243 0.00438 0.58425 0.0
C1238 C 0.49194 0.00338 0.5885 0.0
C1239 C 0.45892 0.00303 0.59892 0.0
C1240 C 0.46463 0.00061 0.61811 0.0
C1241 C 0.48402 -0.00118 0.62231 0.0
C1242 C 0.49758 8e-05 0.60761 0.0
C1243 C 0.45064 0.00224 0.63404 0.0
C1244 C 0.44002 0.01952 0.63566 0.0
C1245 C 0.44927 0.98813 0.64864 0.0
C1246 C 0.45885 0.96881 0.64669 0.0
C1247 C 0.47057 0.96239 0.66161 0.0
C1248 C 0.47978 0.94435 0.65957 0.0
C1249 C 0.47732 0.93253 0.64271 0.0
C1250 C 0.4656 0.93869 0.62787 0.0
C1251 C 0.45635 0.95671 0.62983 0.0
H1252 H 0.48449 0.9186 0.64115 0.0
H1253 H 0.3893 0.09059 0.65698 0.0
H1254 H 0.2726 0.18296 0.98728 0.0
H1255 H 0.27024 0.20988 0.96478 0.0
H1256 H 0.30929 0.18019 0.92601 0.0
H1257 H 0.31233 0.15379 0.94894 0.0
H1258 H 0.30972 0.21829 0.91894 0.0
H1259 H 0.26262 0.16638 0.92643 0.0
H1260 H 0.23898 0.14619 0.94377 0.0
H1261 H 0.20641 0.19784 0.95663 0.0
H1262 H 0.23007 0.21842 0.93964 0.0
H1263 H 0.24384 0.21096 0.83153 0.0
H1264 H 0.2506 0.20217 0.86475 0.0
H1265 H 0.2733 0.26097 0.87727 0.0
H1266 H 0.26697 0.26979 0.84391 0.0
H1267 H 0.24157 0.21377 0.90035 0.0
H1268 H 0.31332 0.25692 0.90428 0.0
H1269 H 0.33735 0.27023 0.88185 0.0
H1270 H 0.32173 0.22533 0.83891 0.0
H1271 H 0.2978 0.21164 0.86116 0.0
C1272 C 0.28141 0.18277 0.9744 0.0
C1273 C 0.29235 0.16626 0.96952 0.0
C1274 C 0.28003 0.19809 0.96155 0.0
C1275 C 0.28902 0.19661 0.94342 0.0
C1276 C 0.30207 0.18152 0.93984 0.0
C1277 C 0.30381 0.16641 0.95293 0.0
C1278 C 0.28181 0.20768 0.92692 0.0
C1279 C 0.29477 0.21768 0.91508 0.0
C1280 C 0.26237 0.20624 0.9215 0.0
C1281 C 0.24824 0.19398 0.93199 0.0
C1282 C 0.25051 0.17346 0.93311 0.0
C1283 C 0.2371 0.16195 0.94286 0.0
C1284 C 0.22122 0.17074 0.95131 0.0
C1285 C 0.21875 0.19107 0.9501 0.0
C1286 C 0.23216 0.20268 0.94044 0.0
C1287 C 0.24999 0.22213 0.84142 0.0
C1288 C 0.25521 0.24094 0.835 0.0
C1289 C 0.25378 0.21711 0.86043 0.0
C1290 C 0.26275 0.23083 0.87336 0.0
C1291 C 0.26669 0.25007 0.8674 0.0
C1292 C 0.26306 0.25506 0.84834 0.0
C1293 C 0.26946 0.22431 0.89236 0.0
C1294 C 0.2564 0.21508 0.9046 0.0
C1295 C 0.28892 0.22556 0.89759 0.0
C1296 C 0.30363 0.23342 0.88431 0.0
C1297 C 0.31507 0.24986 0.89008 0.0
C1298 C 0.32866 0.25747 0.87739 0.0
C1299 C 0.33101 0.24868 0.85894 0.0
C1300 C 0.31985 0.23218 0.85317 0.0
C1301 C 0.30627 0.2245 0.86581 0.0
H1302 H 0.34151 0.25461 0.84913 0.0
H1303 H 0.21078 0.16178 0.9587 0.0
H1304 H 0.13621 0.02303 0.34069 0.0
H1305 H 0.11455 0.03045 0.36726 0.0
H1306 H 0.06714 0.00936 0.33206 0.0
H1307 H 0.08882 0.00213 0.30509 0.0
H1308 H 0.05938 0.04389 0.35276 0.0
H1309 H 0.08285 0.98027 0.36479 0.0
H1310 H 0.10645 0.95436 0.36859 0.0
H1311 H 0.13189 0.98763 0.41634 0.0
H1312 H 0.10861 0.01392 0.41265 0.0
H1313 H 0.0025 0.01789 0.43728 0.0
H1314 H 0.01767 0.02255 0.40589 0.0
H1315 H 0.06512 0.0527 0.43432 0.0
H1316 H 0.05011 0.04832 0.46573 0.0
H1317 H 0.07119 0.0136 0.41587 0.0
H1318 H 0.04501 0.07708 0.40323 0.0
H1319 H 0.01957 0.10092 0.39879 0.0
H1320 H 0.9965 0.06467 0.3518 0.0
H1321 H 0.02167 0.04047 0.3561 0.0
C1322 C 0.1212 0.02004 0.3385 0.0
C1323 C 0.11422 0.01192 0.32084 0.0
C1324 C 0.10885 0.02425 0.35373 0.0
C1325 C 0.08932 0.02025 0.35162 0.0
C1326 C 0.0822 0.01252 0.3339 0.0
C1327 C 0.09459 0.00832 0.31859 0.0
C1328 C 0.07657 0.02375 0.36824 0.0
C1329 C 0.06175 0.03711 0.36653 0.0
C1330 C 0.07985 0.0149 0.38612 0.0
C1331 C 0.09408 -0.00079 0.38829 0.0
C1332 C 0.0936 0.98218 0.37597 0.0
C1333 C 0.10689 0.96739 0.37814 0.0
C1334 C 0.1207 0.96937 0.39266 0.0
C1335 C 0.12121 0.98614 0.40507 0.0
C1336 C 0.10795 0.00098 0.40296 0.0
C1337 C 0.01584 0.02615 0.43683 0.0
C1338 C 0.02541 0.03216 0.45403 0.0
C1339 C 0.0244 0.02892 0.41886 0.0
C1340 C 0.04255 0.03774 0.41794 0.0
C1341 C 0.05108 0.04583 0.43485 0.0
C1342 C 0.0425 0.04321 0.4528 0.0
C1343 C 0.05433 0.03419 0.40061 0.0
C1344 C 0.06887 0.02051 0.40215 0.0
C1345 C 0.05046 0.04242 0.38256 0.0
C1346 C 0.03512 0.05682 0.38016 0.0
C1347 C 0.03439 0.07405 0.3921 0.0
C1348 C 0.02005 0.08768 0.38956 0.0
C1349 C 0.00639 0.08428 0.37506 0.0
C1350 C 0.00707 0.06727 0.36304 0.0
C1351 C 0.02138 0.0536 0.36552 0.0
H1352 H 0.99531 0.09485 0.37311 0.0
H1353 H 0.13096 0.9579 0.39432 0.0
H1354 H 0.2587 0.86852 0.55352 0.0
H1355 H 0.24524 0.84204 0.57271 0.0
H1356 H 0.29765 0.81059 0.56753 0.0
H1357 H 0.31135 0.83704 0.54841 0.0
H1358 H 0.23953 0.80023 0.56894 0.0
H1359 H 0.30791 0.79592 0.61312 0.0
H1360 H 0.33691 0.81579 0.62102 0.0
H1361 H 0.30617 0.86918 0.6145 0.0
H1362 H 0.27697 0.84963 0.60681 0.0
H1363 H 0.25131 0.737 0.65863 0.0
H1364 H 0.25608 0.74963 0.62619 0.0
H1365 H 0.22371 0.80093 0.64202 0.0
H1366 H 0.21864 0.78847 0.67433 0.0
H1367 H 0.27224 0.79672 0.63238 0.0
H1368 H 0.20357 0.79283 0.61249 0.0
H1369 H 0.17447 0.77285 0.60539 0.0
H1370 H 0.20526 0.73638 0.5647 0.0
H1371 H 0.23459 0.75605 0.57176 0.0
C1372 C 0.26734 0.85589 0.55626 0.0
C1373 C 0.28626 0.85512 0.54975 0.0
C1374 C 0.25952 0.84066 0.56705 0.0
C1375 C 0.27048 0.82445 0.57162 0.0
C1376 C 0.28899 0.82305 0.56422 0.0
C1377 C 0.29683 0.83826 0.5534 0.0
C1378 C 0.2635 0.81061 0.58628 0.0
C1379 C 0.24672 0.79938 0.58278 0.0
C1380 C 0.27295 0.80938 0.60427 0.0
C1381 C 0.29035 0.8213 0.60915 0.0
C1382 C 0.30735 0.8119 0.61342 0.0
C1383 C 0.32382 0.8231 0.61786 0.0
C1384 C 0.3234 0.84374 0.61819 0.0
C1385 C 0.3065 0.85321 0.61416 0.0
C1386 C 0.29 0.84207 0.60974 0.0
C1387 C 0.24458 0.75061 0.65502 0.0
C1388 C 0.23496 0.76196 0.66925 0.0
C1389 C 0.24724 0.75772 0.63641 0.0
C1390 C 0.24013 0.77611 0.63174 0.0
C1391 C 0.22901 0.78652 0.64528 0.0
C1392 C 0.22629 0.77944 0.66383 0.0
C1393 C 0.24814 0.78668 0.61521 0.0
C1394 C 0.26524 0.79728 0.6184 0.0
C1395 C 0.23889 0.78741 0.59712 0.0
C1396 C 0.22128 0.77571 0.59285 0.0
C1397 C 0.20417 0.78042 0.6022 0.0
C1398 C 0.18762 0.7692 0.59813 0.0
C1399 C 0.18803 0.75331 0.58466 0.0
C1400 C 0.20497 0.74866 0.57517 0.0
C1401 C 0.22154 0.75985 0.57919 0.0
H1402 H 0.17522 0.74464 0.58154 0.0
H1403 H 0.33616 0.85238 0.62161 0.0
H1404 H 0.36975 0.00015 0.83407 0.0
H1405 H 0.38201 0.97809 0.85795 0.0
H1406 H 0.43838 0.00301 0.84999 0.0
H1407 H 0.42628 0.02405 0.82504 0.0
H1408 H 0.44122 0.96539 0.85284 0.0
H1409 H 0.40646 0.01658 0.88918 0.0
H1410 H 0.37819 0.03532 0.89904 0.0
H1411 H 0.34933 0.98143 0.91399 0.0
H1412 H 0.3774 0.96236 0.90402 0.0
H1413 H 0.48098 0.00186 0.93563 0.0
H1414 H 0.46769 0.98835 0.90523 0.0
H1415 H 0.43916 0.94181 0.93586 0.0
H1416 H 0.45305 0.95493 0.96638 0.0
H1417 H 0.41581 0.97015 0.91973 0.0
H1418 H 0.46096 0.92564 0.89758 0.0
H1419 H 0.49249 0.91168 0.89142 0.0
H1420 H 0.50603 0.95846 0.85306 0.0
H1421 H 0.47474 0.97293 0.85917 0.0
C1422 C 0.38468 0.00109 0.83754 0.0
C1423 C 0.39703 0.01395 0.82785 0.0
C1424 C 0.39172 0.98836 0.85114 0.0
C1425 C 0.41113 0.98885 0.85582 0.0
C1426 C 0.42338 0.00211 0.84645 0.0
C1427 C 0.41643 0.01438 0.83245 0.0
C1428 C 0.4188 0.97654 0.87118 0.0
C1429 C 0.43571 0.96637 0.8675 0.0
C1430 C 0.41092 0.97669 0.89005 0.0
C1431 C 0.39385 0.98803 0.89549 0.0
C1432 C 0.39399 0.00872 0.89435 0.0
C1433 C 0.37804 0.0194 0.90001 0.0
C1434 C 0.36193 0.00956 0.90703 0.0
C1435 C 0.36177 0.98902 0.90844 0.0
C1436 C 0.37769 0.97827 0.90278 0.0
C1437 C 0.47232 0.98843 0.93579 0.0
C1438 C 0.46757 0.97973 0.95329 0.0
C1439 C 0.46503 0.98048 0.9184 0.0
C1440 C 0.45252 0.96402 0.91833 0.0
C1441 C 0.44899 0.95434 0.93562 0.0
C1442 C 0.45672 0.96202 0.95302 0.0
C1443 C 0.43939 0.96133 0.90181 0.0
C1444 C 0.42102 0.96831 0.90498 0.0
C1445 C 0.44637 0.95899 0.88272 0.0
C1446 C 0.46533 0.95036 0.87881 0.0
C1447 C 0.47066 0.93303 0.88789 0.0
C1448 C 0.48852 0.92501 0.88439 0.0
C1449 C 0.50124 0.93416 0.87183 0.0
C1450 C 0.49613 0.95135 0.86274 0.0
C1451 C 0.47828 0.95943 0.86617 0.0
H1452 H 0.51506 0.92794 0.86916 0.0
H1453 H 0.34961 0.01785 0.91146 0.0
H1454 H 0.24039 0.13649 0.04683 0.0
H1455 H 0.2357 0.15705 0.07607 0.0
H1456 H 0.29558 0.15542 0.08869 0.0
H1457 H 0.30063 0.13533 0.0591 0.0
H1458 H 0.26784 0.15246 0.12241 0.0
H1459 H 0.28412 0.19132 0.06558 0.0
H1460 H 0.27847 0.20038 0.03179 0.0
H1461 H 0.2218 0.21744 0.04662 0.0
H1462 H 0.22702 0.20815 0.08044 0.0
H1463 H 0.29407 0.23318 0.18058 0.0
H1464 H 0.2917 0.21014 0.15275 0.0
H1465 H 0.23509 0.2297 0.14111 0.0
H1466 H 0.23737 0.25305 0.1691 0.0
H1467 H 0.25548 0.22227 0.10759 0.0
H1468 H 0.23854 0.18873 0.16384 0.0
H1469 H 0.2405 0.17806 0.19753 0.0
H1470 H 0.29304 0.14945 0.18468 0.0
H1471 H 0.29153 0.16016 0.15093 0.0
C1472 C 0.25258 0.1402 0.05593 0.0
C1473 C 0.27097 0.13439 0.05047 0.0
C1474 C 0.24981 0.15189 0.07268 0.0
C1475 C 0.26532 0.1578 0.08436 0.0
C1476 C 0.28346 0.15089 0.0798 0.0
C1477 C 0.28631 0.1394 0.06289 0.0
C1478 C 0.26304 0.173 0.09996 0.0
C1479 C 0.26529 0.16775 0.11926 0.0
C1480 C 0.25882 0.19271 0.0957 0.0
C1481 C 0.2559 0.19885 0.07549 0.0
C1482 C 0.27042 0.19688 0.06161 0.0
C1483 C 0.2673 0.20207 0.04245 0.0
C1484 C 0.24977 0.20943 0.03705 0.0
C1485 C 0.23536 0.21171 0.05082 0.0
C1486 C 0.23839 0.20649 0.06998 0.0
C1487 C 0.28121 0.23287 0.17194 0.0
C1488 C 0.2658 0.24474 0.1772 0.0
C1489 C 0.27985 0.21961 0.1561 0.0
C1490 C 0.26303 0.21786 0.14525 0.0
C1491 C 0.24811 0.23071 0.14948 0.0
C1492 C 0.24948 0.2441 0.1654 0.0
C1493 C 0.26101 0.20192 0.13012 0.0
C1494 C 0.25785 0.20697 0.11088 0.0
C1495 C 0.2639 0.18191 0.13449 0.0
C1496 C 0.265 0.17543 0.15484 0.0
C1497 C 0.25061 0.18032 0.16822 0.0
C1498 C 0.25162 0.17423 0.18733 0.0
C1499 C 0.26692 0.16314 0.19326 0.0
C1500 C 0.28121 0.15807 0.18007 0.0
C1501 C 0.28026 0.16412 0.16093 0.0
H1502 H 0.26767 0.15843 0.20806 0.0
H1503 H 0.24737 0.21341 0.02221 0.0
H1504 H 0.21953 0.09681 0.98181 0.0
H1505 H 0.20332 0.06575 0.98996 0.0
H1506 H 0.16588 0.09842 0.02822 0.0
H1507 H 0.18325 0.12886 0.02155 0.0
H1508 H 0.17029 0.06441 0.04244 0.0
H1509 H 0.1572 0.08712 0.97551 0.0
H1510 H 0.16754 0.09407 0.94219 0.0
H1511 H 0.18907 0.03541 0.93537 0.0
H1512 H 0.17893 0.0282 0.96869 0.0
H1513 H 0.0747 0.05495 0.02313 0.0
H1514 H 0.10857 0.06307 0.02089 0.0
H1515 H 0.12088 0.00141 0.01152 0.0
H1516 H 0.08689 0.99297 0.01411 0.0
H1517 H 0.13785 0.03489 0.98414 0.0
H1518 H 0.13678 0.0111 0.0483 0.0
H1519 H 0.12241 0.00655 0.08047 0.0
H1520 H 0.12505 0.06925 0.09208 0.0
H1521 H 0.1392 0.07422 0.05987 0.0
C1522 C 0.2085 0.09706 0.99273 0.0
C1523 C 0.20288 0.11504 0.00138 0.0
C1524 C 0.19899 0.07941 0.99709 0.0
C1525 C 0.18316 0.07972 0.0095 0.0
C1526 C 0.1781 0.09768 0.0187 0.0
C1527 C 0.18788 0.11514 0.01471 0.0
C1528 C 0.1701 0.06235 0.01117 0.0
C1529 C 0.16343 0.05767 0.02969 0.0
C1530 C 0.16153 0.0529 0.99459 0.0
C1531 C 0.16751 0.05721 0.97459 0.0
C1532 C 0.16419 0.07575 0.96689 0.0
C1533 C 0.17001 0.07973 0.94803 0.0
C1534 C 0.179 0.06521 0.93669 0.0
C1535 C 0.18214 0.04666 0.94418 0.0
C1536 C 0.17635 0.04261 0.96304 0.0
C1537 C 0.08455 0.0431 0.02051 0.0
C1538 C 0.07814 0.02334 0.01885 0.0
C1539 C 0.10387 0.04774 0.01932 0.0
C1540 C 0.11708 0.03278 0.01624 0.0
C1541 C 0.11081 0.01307 0.01404 0.0
C1542 C 0.09144 0.00835 0.01553 0.0
C1543 C 0.13737 0.03835 0.01523 0.0
C1544 C 0.14539 0.04074 0.99689 0.0
C1545 C 0.14699 0.04589 0.03193 0.0
C1546 C 0.13907 0.04302 0.05163 0.0
C1547 C 0.13425 0.02393 0.05768 0.0
C1548 C 0.12614 0.02127 0.07593 0.0
C1549 C 0.12283 0.0376 0.0883 0.0
C1550 C 0.12767 0.05661 0.08248 0.0
C1551 C 0.13579 0.05935 0.06425 0.0
H1552 H 0.11655 0.03549 0.1024 0.0
H1553 H 0.18351 0.06832 0.9221 0.0
H1554 H 0.72529 0.41288 0.01774 0.0
H1555 H 0.69196 0.42177 0.01473 0.0
H1556 H 0.70877 0.48323 0.01152 0.0
H1557 H 0.74202 0.47455 0.01467 0.0
H1558 H 0.68261 0.47776 0.03894 0.0
H1559 H 0.69037 0.45901 0.97245 0.0
H1560 H 0.69879 0.43819 0.94385 0.0
H1561 H 0.65793 0.3939 0.96041 0.0
H1562 H 0.64944 0.41432 0.98929 0.0
H1563 H 0.5905 0.51255 0.01614 0.0
H1564 H 0.62403 0.50402 0.01415 0.0
H1565 H 0.60943 0.44351 0.02623 0.0
H1566 H 0.57584 0.45191 0.02848 0.0
H1567 H 0.63429 0.44927 0.993 0.0
H1568 H 0.62826 0.46862 0.06077 0.0
H1569 H 0.61954 0.49096 0.08818 0.0
H1570 H 0.65752 0.5359 0.06728 0.0
H1571 H 0.66628 0.51391 0.03959 0.0
C1572 C 0.72189 0.42826 0.01618 0.0
C1573 C 0.73625 0.44304 0.0167 0.0
C1574 C 0.70286 0.4333 0.01432 0.0
C1575 C 0.69793 0.45315 0.01287 0.0
C1576 C 0.7123 0.46783 0.01267 0.0
C1577 C 0.73129 0.46283 0.01452 0.0
C1578 C 0.67779 0.45882 0.01354 0.0
C1579 C 0.67211 0.47177 0.02869 0.0
C1580 C 0.66408 0.45067 0.00037 0.0
C1581 C 0.66943 0.43812 0.98321 0.0
C1582 C 0.68333 0.44472 0.97015 0.0
C1583 C 0.68808 0.43302 0.95384 0.0
C1584 C 0.67894 0.4147 0.95035 0.0
C1585 C 0.66502 0.40807 0.96315 0.0
C1586 C 0.66023 0.41972 0.97949 0.0
C1587 C 0.59443 0.49745 0.01851 0.0
C1588 C 0.58056 0.4829 0.0225 0.0
C1589 C 0.61356 0.49263 0.01736 0.0
C1590 C 0.61908 0.47316 0.02 0.0
C1591 C 0.60534 0.45861 0.02409 0.0
C1592 C 0.58622 0.46347 0.02552 0.0
C1593 C 0.63927 0.46802 0.01842 0.0
C1594 C 0.6449 0.45523 0.00315 0.0
C1595 C 0.65301 0.47644 0.03133 0.0
C1596 C 0.64777 0.48969 0.04798 0.0
C1597 C 0.63462 0.48333 0.06192 0.0
C1598 C 0.6297 0.49591 0.07753 0.0
C1599 C 0.63793 0.51486 0.07944 0.0
C1600 C 0.65114 0.52123 0.06576 0.0
C1601 C 0.6561 0.50871 0.05012 0.0
H1602 H 0.63411 0.52458 0.09153 0.0
H1603 H 0.68262 0.40568 0.9377 0.0
H1604 H 0.85575 0.44117 0.30347 0.0
H1605 H 0.83943 0.41193 0.28894 0.0
H1606 H 0.83274 0.44207 0.23549 0.0
H1607 H 0.84942 0.47119 0.24964 0.0
H1608 H 0.79971 0.41293 0.2691 0.0
H1609 H 0.84627 0.41801 0.21166 0.0
H1610 H 0.87922 0.42461 0.20097 0.0
H1611 H 0.89982 0.38465 0.24265 0.0
H1612 H 0.86698 0.37808 0.25374 0.0
H1613 H 0.76203 0.32193 0.22635 0.0
H1614 H 0.77373 0.35638 0.22781 0.0
H1615 H 0.82686 0.33772 0.25147 0.0
H1616 H 0.81563 0.30362 0.24966 0.0
H1617 H 0.83349 0.36498 0.22626 0.0
H1618 H 0.78992 0.35541 0.28038 0.0
H1619 H 0.75891 0.34796 0.29543 0.0
H1620 H 0.73384 0.39514 0.26514 0.0
H1621 H 0.76469 0.40273 0.24975 0.0
C1622 C 0.85092 0.44153 0.28859 0.0
C1623 C 0.85396 0.45841 0.27766 0.0
C1624 C 0.84159 0.42487 0.28035 0.0
C1625 C 0.83506 0.42491 0.26116 0.0
C1626 C 0.83797 0.44172 0.25023 0.0
C1627 C 0.8475 0.4583 0.25835 0.0
C1628 C 0.82516 0.40723 0.25277 0.0
C1629 C 0.80681 0.40259 0.25933 0.0
C1630 C 0.83463 0.39381 0.24028 0.0
C1631 C 0.85428 0.39775 0.23364 0.0
C1632 C 0.85786 0.41078 0.21863 0.0
C1633 C 0.8765 0.41449 0.21249 0.0
C1634 C 0.89161 0.4051 0.22117 0.0
C1635 C 0.88811 0.39196 0.23598 0.0
C1636 C 0.86951 0.38826 0.24221 0.0
C1637 C 0.77628 0.32519 0.23164 0.0
C1638 C 0.78783 0.31002 0.23802 0.0
C1639 C 0.78291 0.34486 0.23251 0.0
C1640 C 0.80111 0.34961 0.2399 0.0
C1641 C 0.81281 0.33441 0.24563 0.0
C1642 C 0.80629 0.31487 0.24468 0.0
C1643 C 0.80797 0.37033 0.2428 0.0
C1644 C 0.8259 0.37556 0.23534 0.0
C1645 C 0.79812 0.38419 0.25466 0.0
C1646 C 0.77953 0.37944 0.26369 0.0
C1647 C 0.77775 0.36406 0.27678 0.0
C1648 C 0.76022 0.35985 0.28541 0.0
C1649 C 0.7444 0.37102 0.28118 0.0
C1650 C 0.74609 0.38646 0.26835 0.0
C1651 C 0.76359 0.39073 0.25968 0.0
H1652 H 0.73084 0.36775 0.28789 0.0
H1653 H 0.90602 0.40796 0.21638 0.0
H1654 H 0.77215 0.54245 0.49535 0.0
H1655 H 0.80157 0.53297 0.51086 0.0
H1656 H 0.79193 0.57561 0.55752 0.0
H1657 H 0.76201 0.58452 0.54237 0.0
H1658 H 0.82322 0.58394 0.5319 0.0
H1659 H 0.80001 0.53197 0.57098 0.0
H1660 H 0.7819 0.5015 0.57813 0.0
H1661 H 0.81496 0.46872 0.53639 0.0
H1662 H 0.83312 0.49902 0.52879 0.0
H1663 H 0.91988 0.53853 0.56136 0.0
H1664 H 0.88593 0.54352 0.56631 0.0
H1665 H 0.87977 0.55703 0.5061 0.0
H1666 H 0.91371 0.5521 0.50095 0.0
H1667 H 0.85596 0.52254 0.54791 0.0
H1668 H 0.84535 0.5915 0.50282 0.0
H1669 H 0.86393 0.62069 0.49275 0.0
H1670 H 0.89796 0.61888 0.54424 0.0
H1671 H 0.87937 0.5899 0.55482 0.0
C1672 C 0.77568 0.5488 0.50957 0.0
C1673 C 0.76493 0.56418 0.51769 0.0
C1674 C 0.79255 0.54348 0.51838 0.0
C1675 C 0.79902 0.55376 0.53521 0.0
C1676 C 0.78713 0.56746 0.54457 0.0
C1677 C 0.76995 0.57241 0.53599 0.0
C1678 C 0.81953 0.55361 0.53988 0.0
C1679 C 0.83039 0.57062 0.53578 0.0
C1680 C 0.82879 0.53616 0.54472 0.0
C1681 C 0.8179 0.51784 0.54926 0.0
C1682 C 0.80334 0.5183 0.56322 0.0
C1683 C 0.79308 0.50104 0.56738 0.0
C1684 C 0.79726 0.48319 0.55771 0.0
C1685 C 0.81174 0.48255 0.54389 0.0
C1686 C 0.82206 0.49977 0.53968 0.0
C1687 C 0.91139 0.54281 0.54918 0.0
C1688 C 0.91956 0.54489 0.53072 0.0
C1689 C 0.89195 0.54554 0.55205 0.0
C1690 C 0.88035 0.55067 0.5366 0.0
C1691 C 0.88851 0.55324 0.51827 0.0
C1692 C 0.90792 0.5504 0.51535 0.0
C1693 C 0.85959 0.55269 0.53939 0.0
C1694 C 0.84877 0.53601 0.54463 0.0
C1695 C 0.8503 0.57036 0.53528 0.0
C1696 C 0.86102 0.5884 0.52955 0.0
C1697 C 0.85668 0.59743 0.5121 0.0
C1698 C 0.86724 0.61392 0.50628 0.0
C1699 C 0.88215 0.62159 0.51782 0.0
C1700 C 0.88644 0.61289 0.53529 0.0
C1701 C 0.87589 0.59642 0.5412 0.0
H1702 H 0.89038 0.63429 0.51323 0.0
H1703 H 0.7893 0.46985 0.56095 0.0
H1704 H 0.1542 0.06526 0.24582 0.0
H1705 H 0.17165 0.09653 0.2413 0.0
H1706 H 0.17481 0.1064 0.30335 0.0
H1707 H 0.15701 0.07584 0.30793 0.0
H1708 H 0.17317 0.14076 0.28459 0.0
H1709 H 0.20843 0.08002 0.28127 0.0
H1710 H 0.21475 0.04647 0.26806 0.0
H1711 H 0.22344 0.06943 0.21148 0.0
H1712 H 0.21692 0.10309 0.22432 0.0
H1713 H 0.2506 0.20312 0.29361 0.0
H1714 H 0.23459 0.17108 0.29766 0.0
H1715 H 0.2363 0.15981 0.23571 0.0
H1716 H 0.25351 0.1912 0.23187 0.0
H1717 H 0.23527 0.12587 0.25386 0.0
H1718 H 0.19972 0.18685 0.25767 0.0
H1719 H 0.193 0.22016 0.27129 0.0
H1720 H 0.18442 0.19634 0.32753 0.0
H1721 H 0.19128 0.16292 0.31426 0.0
C1722 C 0.15787 0.07458 0.2584 0.0
C1723 C 0.15476 0.06798 0.27719 0.0
C1724 C 0.16797 0.09228 0.25583 0.0
C1725 C 0.17498 0.10329 0.27203 0.0
C1726 C 0.16967 0.09797 0.29069 0.0
C1727 C 0.15952 0.08047 0.29325 0.0
C1728 C 0.1899 0.11862 0.26995 0.0
C1729 C 0.18676 0.13753 0.27793 0.0
C1730 C 0.20762 0.11422 0.26132 0.0
C1731 C 0.21204 0.09405 0.25371 0.0
C1732 C 0.21162 0.0779 0.26599 0.0
C1733 C 0.21523 0.05886 0.25858 0.0
C1734 C 0.21946 0.05582 0.23893 0.0
C1735 C 0.22015 0.07181 0.22669 0.0
C1736 C 0.21651 0.09087 0.23403 0.0
C1737 C 0.2483 0.19334 0.28103 0.0
C1738 C 0.25292 0.19954 0.26243 0.0
C1739 C 0.23906 0.17516 0.2833 0.0
C1740 C 0.23357 0.16355 0.26689 0.0
C1741 C 0.2402 0.1687 0.24853 0.0
C1742 C 0.25002 0.1866 0.24633 0.0
C1743 C 0.21852 0.14814 0.26842 0.0
C1744 C 0.22165 0.12916 0.26042 0.0
C1745 C 0.20076 0.15243 0.27712 0.0
C1746 C 0.19616 0.17244 0.285 0.0
C1747 C 0.19644 0.18874 0.27294 0.0
C1748 C 0.19262 0.20763 0.2806 0.0
C1749 C 0.18833 0.21037 0.30027 0.0
C1750 C 0.18777 0.1942 0.3123 0.0
C1751 C 0.19159 0.17528 0.30472 0.0
H1752 H 0.18542 0.225 0.30618 0.0
H1753 H 0.22222 0.04107 0.23321 0.0
H1754 H 0.34571 0.90797 0.49095 0.0
H1755 H 0.37565 0.91697 0.47565 0.0
H1756 H 0.3659 0.97849 0.4897 0.0
H1757 H 0.33545 0.96944 0.50481 0.0
H1758 H 0.38556 0.97273 0.45437 0.0
H1759 H 0.38928 0.95305 0.52101 0.0
H1760 H 0.38348 0.93071 0.54793 0.0
H1761 H 0.41425 0.88509 0.51771 0.0
H1762 H 0.42 0.90711 0.49045 0.0
H1763 H 0.4695 0.0171 0.48951 0.0
H1764 H 0.43961 0.00367 0.47667 0.0
H1765 H 0.46537 0.94711 0.46593 0.0
H1766 H 0.49541 0.96044 0.47917 0.0
H1767 H 0.43823 0.9449 0.4917 0.0
H1768 H 0.44231 0.97098 0.42929 0.0
H1769 H 0.44879 0.99571 0.40467 0.0
H1770 H 0.40469 0.032 0.42838 0.0
H1771 H 0.39814 0.0077 0.4534 0.0
C1772 C 0.34987 0.92339 0.4908 0.0
C1773 C 0.33866 0.93795 0.49972 0.0
C1774 C 0.36686 0.92855 0.48176 0.0
C1775 C 0.37314 0.94834 0.48186 0.0
C1776 C 0.36129 0.96311 0.48949 0.0
C1777 C 0.34405 0.95793 0.49828 0.0
C1778 C 0.3931 0.95319 0.4769 0.0
C1779 C 0.39717 0.96673 0.46244 0.0
C1780 C 0.40817 0.94486 0.48716 0.0
C1781 C 0.40483 0.93162 0.50357 0.0
C1782 C 0.39467 0.9382 0.52003 0.0
C1783 C 0.39141 0.92561 0.53536 0.0
C1784 C 0.39842 0.90646 0.53449 0.0
C1785 C 0.40877 0.8999 0.51833 0.0
C1786 C 0.41203 0.91243 0.50293 0.0
C1787 C 0.46898 0.00195 0.48389 0.0
C1788 C 0.48459 0.98963 0.48592 0.0
C1789 C 0.45191 0.99435 0.47625 0.0
C1790 C 0.45018 0.97433 0.47043 0.0
C1791 C 0.4664 0.96261 0.47036 0.0
C1792 C 0.48354 0.97023 0.47801 0.0
C1793 C 0.43097 0.96495 0.46939 0.0
C1794 C 0.42687 0.95051 0.48296 0.0
C1795 C 0.41601 0.97278 0.45851 0.0
C1796 C 0.41975 0.98745 0.44332 0.0
C1797 C 0.43405 0.98428 0.42937 0.0
C1798 C 0.43773 0.99823 0.41531 0.0
C1799 C 0.42716 0.01542 0.41496 0.0
C1800 C 0.41285 0.01867 0.42865 0.0
C1801 C 0.40913 0.00478 0.44276 0.0
H1802 H 0.43004 0.0262 0.40408 0.0
H1803 H 0.39589 0.89674 0.54637 0.0
H1804 H 0.8136 0.52446 0.27505 0.0
H1805 H 0.7912 0.54982 0.26647 0.0
H1806 H 0.81053 0.58623 0.31549 0.0
H1807 H 0.83204 0.5604 0.32467 0.0
H1808 H 0.77626 0.59815 0.30351 0.0
H1809 H 0.8383 0.5832 0.27314 0.0
H1810 H 0.86015 0.56134 0.25527 0.0
H1811 H 0.81915 0.55259 0.20949 0.0
H1812 H 0.79698 0.57447 0.22725 0.0
H1813 H 0.80425 0.6927 0.28075 0.0
H1814 H 0.80527 0.65764 0.28809 0.0
H1815 H 0.78193 0.64214 0.23159 0.0
H1816 H 0.78123 0.67729 0.22419 0.0
H1817 H 0.80817 0.61653 0.24236 0.0
H1818 H 0.75337 0.64504 0.26978 0.0
H1819 H 0.73477 0.66952 0.28844 0.0
H1820 H 0.7629 0.65415 0.34078 0.0
H1821 H 0.78223 0.63012 0.32237 0.0
C1822 C 0.8122 0.53742 0.28458 0.0
C1823 C 0.8247 0.54085 0.30023 0.0
C1824 C 0.79944 0.55189 0.27967 0.0
C1825 C 0.79984 0.57022 0.28985 0.0
C1826 C 0.81017 0.57229 0.30726 0.0
C1827 C 0.82253 0.55756 0.3125 0.0
C1828 C 0.79431 0.58835 0.28009 0.0
C1829 C 0.78303 0.60218 0.29006 0.0
C1830 C 0.80281 0.59341 0.26225 0.0
C1831 C 0.81597 0.58023 0.25158 0.0
C1832 C 0.83395 0.57654 0.25929 0.0
C1833 C 0.84638 0.56415 0.24918 0.0
C1834 C 0.84105 0.55548 0.23125 0.0
C1835 C 0.82325 0.55926 0.2234 0.0
C1836 C 0.81075 0.57166 0.23347 0.0
C1837 C 0.8002 0.6817 0.26963 0.0
C1838 C 0.79299 0.68744 0.25183 0.0
C1839 C 0.80037 0.66178 0.27395 0.0
C1840 C 0.79302 0.64744 0.26062 0.0
C1841 C 0.7874 0.65306 0.24215 0.0
C1842 C 0.78731 0.67303 0.2378 0.0
C1843 C 0.79092 0.62669 0.26625 0.0
C1844 C 0.80071 0.61238 0.25541 0.0
C1845 C 0.78115 0.62139 0.28334 0.0
C1846 C 0.76939 0.63578 0.29459 0.0
C1847 C 0.75577 0.647 0.28523 0.0
C1848 C 0.74511 0.66085 0.29577 0.0
C1849 C 0.74772 0.66347 0.31577 0.0
C1850 C 0.76097 0.6522 0.32526 0.0
C1851 C 0.7718 0.63846 0.31477 0.0
H1852 H 0.73944 0.67416 0.32391 0.0
H1853 H 0.8507 0.5459 0.22341 0.0
H1854 H 0.70068 0.49663 0.7594 0.0
H1855 H 0.72719 0.47687 0.74736 0.0
H1856 H 0.71293 0.4323 0.7885 0.0
H1857 H 0.6874 0.45249 0.80127 0.0
H1858 H 0.7484 0.43038 0.78191 0.0
H1859 H 0.69145 0.4352 0.73917 0.0
H1860 H 0.67018 0.45392 0.71848 0.0
H1861 H 0.71801 0.47322 0.68488 0.0
H1862 H 0.73954 0.4547 0.70547 0.0
H1863 H 0.71603 0.34203 0.74775 0.0
H1864 H 0.71687 0.37804 0.74833 0.0
H1865 H 0.77236 0.37787 0.72192 0.0
H1866 H 0.77161 0.34151 0.72117 0.0
H1867 H 0.73249 0.40966 0.71405 0.0
H1868 H 0.78653 0.39153 0.75513 0.0
H1869 H 0.80124 0.36746 0.77622 0.0
H1870 H 0.75283 0.36948 0.81398 0.0
H1871 H 0.73778 0.39345 0.79302 0.0
C1872 C 0.70362 0.48285 0.76619 0.0
C1873 C 0.69177 0.47583 0.78096 0.0
C1874 C 0.71874 0.47157 0.75929 0.0
C1875 C 0.72172 0.45278 0.76656 0.0
C1876 C 0.71095 0.44669 0.78254 0.0
C1877 C 0.69623 0.4582 0.78979 0.0
C1878 C 0.73349 0.43797 0.75601 0.0
C1879 C 0.74543 0.42621 0.76687 0.0
C1880 C 0.72997 0.43261 0.73623 0.0
C1881 C 0.71708 0.44378 0.72394 0.0
C1882 C 0.6974 0.44351 0.7274 0.0
C1883 C 0.68532 0.45407 0.71571 0.0
C1884 C 0.69276 0.46478 0.70041 0.0
C1885 C 0.71228 0.46495 0.69677 0.0
C1886 C 0.72443 0.45443 0.70843 0.0
C1887 C 0.72818 0.3496 0.74153 0.0
C1888 C 0.74383 0.33903 0.73463 0.0
C1889 C 0.72862 0.37014 0.74183 0.0
C1890 C 0.74476 0.38046 0.73538 0.0
C1891 C 0.75982 0.37005 0.72696 0.0
C1892 C 0.75931 0.34934 0.7265 0.0
C1893 C 0.7463 0.40176 0.74034 0.0
C1894 C 0.73675 0.41467 0.72855 0.0
C1895 C 0.75163 0.40797 0.75937 0.0
C1896 C 0.76106 0.3943 0.77251 0.0
C1897 C 0.77904 0.38685 0.76794 0.0
C1898 C 0.78743 0.37322 0.77986 0.0
C1899 C 0.77797 0.36695 0.79643 0.0
C1900 C 0.76016 0.37439 0.80117 0.0
C1901 C 0.75172 0.38804 0.78931 0.0
H1902 H 0.78444 0.35633 0.8056 0.0
H1903 H 0.6834 0.47288 0.69132 0.0
H1904 H 0.03109 0.78971 0.9077 0.0
H1905 H 0.04022 0.82202 0.92235 0.0
H1906 H 0.98186 0.83984 0.92027 0.0
H1907 H 0.97257 0.80769 0.90571 0.0
H1908 H 0.00815 0.86895 0.9081 0.0
H1909 H -0.00104 0.82352 0.96105 0.0
H1910 H 0.00592 0.7936 0.97888 0.0
H1911 H 0.06425 0.81273 0.98495 0.0
H1912 H 0.05768 0.84266 0.96693 0.0
H1913 H 0.98739 0.94118 0.97779 0.0
H1914 H 0.99097 0.91214 0.95652 0.0
H1915 H 0.04892 0.90689 0.97567 0.0
H1916 H 0.04537 0.93608 0.99732 0.0
H1917 H 0.03094 0.87238 0.97619 0.0
H1918 H 0.04075 0.91902 0.92711 0.0
H1919 H 0.03569 0.94862 0.90814 0.0
H1920 H 0.97894 0.92819 0.89446 0.0
H1921 H 0.9838 0.89821 0.91301 0.0
C1922 C 0.02021 0.80056 0.91023 0.0
C1923 C 0.00107 0.79609 0.90567 0.0
C1924 C 0.02547 0.81897 0.91862 0.0
C1925 C 0.01168 0.83321 0.92243 0.0
C1926 C 0.99269 0.82901 0.91738 0.0
C1927 C 0.9874 0.81059 0.90918 0.0
C1928 C 0.01668 0.85225 0.93246 0.0
C1929 C 0.01313 0.86976 0.92298 0.0
C1930 C 0.02395 0.85321 0.95159 0.0
C1931 C 0.02788 0.83519 0.96241 0.0
C1932 C 0.01331 0.82125 0.96602 0.0
C1933 C 0.01718 0.80431 0.9762 0.0
C1934 C 0.03553 0.80123 0.98298 0.0
C1935 C 0.05005 0.81511 0.97965 0.0
C1936 C 0.04626 0.83207 0.96946 0.0
C1937 C 0.00098 0.93401 0.97738 0.0
C1938 C 0.01611 0.94097 0.98922 0.0
C1939 C 0.00306 0.91747 0.96506 0.0
C1940 C 0.02035 0.90759 0.96417 0.0
C1941 C 0.03551 0.91443 0.976 0.0
C1942 C 0.03343 0.93102 0.98842 0.0
C1943 C 0.02174 0.88917 0.95207 0.0
C1944 C 0.02647 0.87171 0.96113 0.0
C1945 C 0.01583 0.88827 0.93246 0.0
C1946 C 0.01263 0.9064 0.92152 0.0
C1947 C 0.02717 0.92086 0.92011 0.0
C1948 C 0.02437 0.93765 0.90934 0.0
C1949 C 0.00699 0.94031 0.90014 0.0
C1950 C 0.99241 0.92609 0.90157 0.0
C1951 C 0.99523 0.90912 0.91208 0.0
H1952 H 0.00481 0.9534 0.89193 0.0
H1953 H 0.0385 0.78811 0.99087 0.0
H1954 H 0.94752 0.27158 0.62973 0.0
H1955 H 0.91718 0.2673 0.64641 0.0
H1956 H 0.94651 0.24949 0.69755 0.0
H1957 H 0.97689 0.25331 0.6809 0.0
H1958 H 0.91035 0.23036 0.69197 0.0
H1959 H 0.93898 0.29613 0.69498 0.0
H1960 H 0.95438 0.32469 0.67966 0.0
H1961 H 0.90454 0.33236 0.64513 0.0
H1962 H 0.88893 0.30367 0.6601 0.0
H1963 H 0.83666 0.25966 0.7576 0.0
H1964 H 0.8681 0.25673 0.74269 0.0
H1965 H 0.84643 0.27994 0.68987 0.0
H1966 H 0.81528 0.28327 0.70461 0.0
H1967 H 0.88031 0.2959 0.6985 0.0
H1968 H 0.85169 0.23013 0.69474 0.0
H1969 H 0.83682 0.20019 0.70802 0.0
H1970 H 0.88624 0.19186 0.74297 0.0
H1971 H 0.90136 0.22187 0.72999 0.0
C1972 C 0.94749 0.26621 0.64432 0.0
C1973 C 0.96457 0.26319 0.65416 0.0
C1974 C 0.93016 0.26376 0.65381 0.0
C1975 C 0.92973 0.25848 0.6733 0.0
C1976 C 0.94662 0.25365 0.68254 0.0
C1977 C 0.96395 0.256 0.67303 0.0
C1978 C 0.91225 0.26103 0.68479 0.0
C1979 C 0.90383 0.24469 0.69362 0.0
C1980 C 0.90387 0.27977 0.68685 0.0
C1981 C 0.91282 0.29769 0.6786 0.0
C1982 C 0.93131 0.30391 0.68412 0.0
C1983 C 0.94008 0.3201 0.67548 0.0
C1984 C 0.93046 0.33031 0.6614 0.0
C1985 C 0.91198 0.32444 0.65604 0.0
C1986 C 0.90314 0.30824 0.66463 0.0
C1987 C 0.83865 0.26432 0.74288 0.0
C1988 C 0.82342 0.27158 0.73226 0.0
C1989 C 0.85658 0.26252 0.73436 0.0
C1990 C 0.85948 0.26787 0.7151 0.0
C1991 C 0.84447 0.2757 0.70474 0.0
C1992 C 0.82664 0.27754 0.7132 0.0
C1993 C 0.87799 0.26511 0.70538 0.0
C1994 C 0.88678 0.28154 0.69699 0.0
C1995 C 0.88663 0.24643 0.70374 0.0
C1996 C 0.87757 0.22836 0.71155 0.0
C1997 C 0.85933 0.22199 0.70537 0.0
C1998 C 0.85087 0.20499 0.71281 0.0
C1999 C 0.86055 0.19416 0.72638 0.0
C2000 C 0.87875 0.20028 0.73248 0.0
C2001 C 0.88728 0.21727 0.72506 0.0
H2002 H 0.85399 0.181 0.73213 0.0
H2003 H 0.93731 0.34277 0.65465 0.0
H2004 H 0.46368 0.21018 0.44105 0.0
H2005 H 0.46717 0.19033 0.46969 0.0
H2006 H 0.52806 0.19375 0.46367 0.0
H2007 H 0.52484 0.21357 0.43512 0.0
H2008 H 0.5081 0.15531 0.45641 0.0
H2009 H 0.51352 0.21027 0.50271 0.0
H2010 H 0.50304 0.24047 0.52019 0.0
H2011 H 0.45386 0.20911 0.54097 0.0
H2012 H 0.46392 0.17876 0.52337 0.0
H2013 H 0.54833 0.09523 0.52148 0.0
H2014 H 0.53944 0.12738 0.51025 0.0
H2015 H 0.48033 0.11279 0.51964 0.0
H2016 H 0.48904 0.08022 0.53079 0.0
H2017 H 0.49539 0.15708 0.52716 0.0
H2018 H 0.48829 0.10309 0.47981 0.0
H2019 H 0.49783 0.07276 0.46188 0.0
H2020 H 0.54816 0.10265 0.44191 0.0
H2021 H 0.53912 0.13306 0.46006 0.0
C2022 C 0.47785 0.20724 0.44615 0.0
C2023 C 0.49399 0.21291 0.43543 0.0
C2024 C 0.47979 0.19605 0.46264 0.0
C2025 C 0.49785 0.19053 0.46864 0.0
C2026 C 0.514 0.19794 0.45921 0.0
C2027 C 0.51211 0.20911 0.44278 0.0
C2028 C 0.49983 0.17347 0.48111 0.0
C2029 C 0.50548 0.15579 0.47192 0.0
C2030 C 0.49555 0.17397 0.50113 0.0
C2031 C 0.48935 0.19229 0.51148 0.0
C2032 C 0.50034 0.20986 0.51078 0.0
C2033 C 0.49451 0.22699 0.52078 0.0
C2034 C 0.47776 0.22673 0.53163 0.0
C2035 C 0.46682 0.20931 0.53253 0.0
C2036 C 0.47259 0.19213 0.52256 0.0
C2037 C 0.53345 0.09893 0.52164 0.0
C2038 C 0.51935 0.08496 0.5266 0.0
C2039 C 0.52843 0.1174 0.51534 0.0
C2040 C 0.50927 0.12229 0.514 0.0
C2041 C 0.49521 0.10921 0.52067 0.0
C2042 C 0.50022 0.09058 0.52689 0.0
C2043 C 0.50419 0.13926 0.50243 0.0
C2044 C 0.49784 0.15672 0.51164 0.0
C2045 C 0.50752 0.13864 0.48225 0.0
C2046 C 0.51316 0.12027 0.47155 0.0
C2047 C 0.50153 0.10312 0.47184 0.0
C2048 C 0.50681 0.08593 0.46158 0.0
C2049 C 0.52362 0.08578 0.45083 0.0
C2050 C 0.53517 0.1028 0.45029 0.0
C2051 C 0.52998 0.12 0.46057 0.0
H2052 H 0.52767 0.07252 0.44285 0.0
H2053 H 0.47329 0.24 0.53937 0.0
H2054 H 0.54854 0.76006 0.21679 0.0
H2055 H 0.57622 0.74212 0.22698 0.0
H2056 H 0.60425 0.75483 0.17305 0.0
H2057 H 0.57616 0.77209 0.1624 0.0
H2058 H 0.60892 0.71789 0.18047 0.0
H2059 H 0.61618 0.77926 0.21634 0.0
H2060 H 0.60758 0.80697 0.23851 0.0
H2061 H 0.60028 0.76699 0.28496 0.0
H2062 H 0.60857 0.73896 0.26295 0.0
H2063 H 0.70354 0.73394 0.20275 0.0
H2064 H 0.67114 0.7267 0.19238 0.0
H2065 H 0.65939 0.6992 0.24669 0.0
H2066 H 0.69218 0.70648 0.25719 0.0
H2067 H 0.64191 0.73397 0.24266 0.0
H2068 H 0.64665 0.67475 0.20357 0.0
H2069 H 0.6607 0.65216 0.179 0.0
H2070 H 0.65196 0.69443 0.13518 0.0
H2071 H 0.63809 0.71739 0.15947 0.0
C2072 C 0.56072 0.75932 0.20723 0.0
C2073 C 0.56027 0.76748 0.18882 0.0
C2074 C 0.5765 0.74898 0.21304 0.0
C2075 C 0.59227 0.74709 0.20076 0.0
C2076 C 0.59211 0.75589 0.18265 0.0
C2077 C 0.57619 0.76593 0.17667 0.0
C2078 C 0.60902 0.73604 0.20678 0.0
C2079 C 0.61623 0.72139 0.19404 0.0
C2080 C 0.61816 0.74024 0.22474 0.0
C2081 C 0.61267 0.75696 0.23791 0.0
C2082 C 0.6125 0.77634 0.23121 0.0
C2083 C 0.60774 0.79211 0.24376 0.0
C2084 C 0.60332 0.78874 0.26311 0.0
C2085 C 0.60365 0.76957 0.26995 0.0
C2086 C 0.60836 0.75373 0.25744 0.0
C2087 C 0.69424 0.72571 0.21221 0.0
C2088 C 0.7 0.72137 0.23101 0.0
C2089 C 0.67578 0.72124 0.20612 0.0
C2090 C 0.66279 0.71255 0.21883 0.0
C2091 C 0.66925 0.70589 0.23668 0.0
C2092 C 0.68789 0.71019 0.24272 0.0
C2093 C 0.64246 0.71641 0.21598 0.0
C2094 C 0.63433 0.72982 0.22938 0.0
C2095 C 0.63312 0.71176 0.19821 0.0
C2096 C 0.64127 0.69782 0.18343 0.0
C2097 C 0.64778 0.67928 0.18872 0.0
C2098 C 0.65571 0.6664 0.17482 0.0
C2099 C 0.65721 0.67186 0.15554 0.0
C2100 C 0.65075 0.6902 0.15011 0.0
C2101 C 0.64279 0.70313 0.16394 0.0
H2102 H 0.66339 0.66187 0.14482 0.0
H2103 H 0.5997 0.80098 0.27282 0.0
H2104 H 0.99628 0.20924 0.58048 0.0
H2105 H 0.0037 0.17425 0.5794 0.0
H2106 H 0.04103 0.18351 0.62859 0.0
H2107 H 0.03405 0.21878 0.62955 0.0
H2108 H 0.05569 0.15743 0.60193 0.0
H2109 H -0.00115 0.16399 0.63699 0.0
H2110 H 0.96682 0.17585 0.64488 0.0
H2111 H 0.94457 0.14641 0.59335 0.0
H2112 H 0.9765 0.13461 0.58497 0.0
H2113 H 0.00835 0.0494 0.58664 0.0
H2114 H 0.01358 0.07933 0.60702 0.0
H2115 H 0.04695 0.10499 0.5614 0.0
H2116 H 0.04255 0.07488 0.54152 0.0
H2117 H -0.0003 0.11157 0.60009 0.0
H2118 H 0.07462 0.14248 0.57512 0.0
H2119 H 0.10706 0.13018 0.57078 0.0
H2120 H 0.09456 0.08289 0.60888 0.0
H2121 H 0.06212 0.09504 0.61373 0.0
C2122 C 0.00626 0.20393 0.59092 0.0
C2123 C 0.01441 0.21676 0.6052 0.0
C2124 C 0.01042 0.18392 0.59036 0.0
C2125 C 0.02259 0.17628 0.6042 0.0
C2126 C 0.03155 0.18915 0.61786 0.0
C2127 C 0.02752 0.20928 0.61835 0.0
C2128 C 0.02529 0.15471 0.60447 0.0
C2129 C 0.04356 0.14726 0.60167 0.0
C2130 C 0.0095 0.1415 0.60533 0.0
C2131 C 0.99014 0.14844 0.61032 0.0
C2132 C 0.98716 0.16013 0.62727 0.0
C2133 C 0.96901 0.16683 0.63184 0.0
C2134 C 0.95367 0.16189 0.61962 0.0
C2135 C 0.95646 0.15021 0.60282 0.0
C2136 C 0.97458 0.14347 0.59816 0.0
C2137 C 0.01715 0.0613 0.58118 0.0
C2138 C 0.0248 0.05996 0.56239 0.0
C2139 C 0.02021 0.07835 0.59286 0.0
C2140 C 0.03072 0.09447 0.58584 0.0
C2141 C 0.03919 0.09266 0.56744 0.0
C2142 C 0.03645 0.07549 0.55594 0.0
C2143 C 0.03003 0.11421 0.59587 0.0
C2144 C 0.01205 0.12143 0.60081 0.0
C2145 C 0.0462 0.12703 0.59755 0.0
C2146 C 0.06582 0.11968 0.59474 0.0
C2147 C 0.07879 0.12954 0.58271 0.0
C2148 C 0.09719 0.12256 0.58012 0.0
C2149 C 0.10286 0.10575 0.58953 0.0
C2150 C 0.09014 0.09588 0.60156 0.0
C2151 C 0.07172 0.1028 0.6042 0.0
H2152 H 0.11711 0.10037 0.58749 0.0
H2153 H 0.93964 0.1671 0.62318 0.0
H2154 H 0.56651 0.21497 0.32867 0.0
H2155 H 0.597 0.22555 0.31597 0.0
H2156 H 0.60832 0.26029 0.36851 0.0
H2157 H 0.57702 0.25028 0.38118 0.0
H2158 H 0.6192 0.28051 0.33774 0.0
H2159 H 0.63081 0.21653 0.35975 0.0
H2160 H 0.62532 0.18095 0.36455 0.0
H2161 H 0.62968 0.16911 0.30322 0.0
H2162 H 0.63487 0.20467 0.29798 0.0
H2163 H 0.72053 0.26014 0.30439 0.0
H2164 H 0.69221 0.2638 0.32458 0.0
H2165 H 0.65767 0.2666 0.27322 0.0
H2166 H 0.68615 0.26366 0.25289 0.0
H2167 H 0.66126 0.22989 0.30833 0.0
H2168 H 0.64507 0.29776 0.28866 0.0
H2169 H 0.6532 0.33328 0.28701 0.0
H2170 H 0.66171 0.33694 0.34864 0.0
H2171 H 0.65389 0.30133 0.35059 0.0
C2172 C 0.57549 0.22469 0.3377 0.0
C2173 C 0.56942 0.23163 0.35603 0.0
C2174 C 0.59298 0.23074 0.33039 0.0
C2175 C 0.60512 0.24343 0.34141 0.0
C2176 C 0.59919 0.25042 0.35979 0.0
C2177 C 0.58141 0.24459 0.36706 0.0
C2178 C 0.62384 0.24925 0.33331 0.0
C2179 C 0.62851 0.26943 0.33153 0.0
C2180 C 0.63617 0.23482 0.32542 0.0
C2181 C 0.6331 0.21334 0.32847 0.0
C2182 C 0.63046 0.20637 0.34726 0.0
C2183 C 0.62742 0.1862 0.35006 0.0
C2184 C 0.62711 0.1728 0.33419 0.0
C2185 C 0.6299 0.17953 0.31549 0.0
C2186 C 0.63292 0.19969 0.3126 0.0
C2187 C 0.70697 0.26231 0.29745 0.0
C2188 C 0.70537 0.26139 0.27714 0.0
C2189 C 0.69087 0.26458 0.30899 0.0
C2190 C 0.67295 0.2657 0.30037 0.0
C2191 C 0.67148 0.26625 0.28011 0.0
C2192 C 0.68769 0.26442 0.26852 0.0
C2193 C 0.65598 0.26096 0.31195 0.0
C2194 C 0.65189 0.2409 0.3146 0.0
C2195 C 0.64456 0.27546 0.32094 0.0
C2196 C 0.64919 0.29683 0.31972 0.0
C2197 C 0.64892 0.30607 0.30182 0.0
C2198 C 0.6534 0.32624 0.30084 0.0
C2199 C 0.65805 0.33735 0.3177 0.0
C2200 C 0.65816 0.32831 0.33559 0.0
C2201 C 0.65369 0.30815 0.33663 0.0
H2202 H 0.66152 0.35295 0.31692 0.0
H2203 H 0.62471 0.15721 0.33641 0.0
H2204 H 0.53182 0.81784 0.11565 0.0
H2205 H 0.53216 0.85026 0.10136 0.0
H2206 H 0.48207 0.83362 0.06813 0.0
H2207 H 0.48176 0.80114 0.082 0.0
H2208 H 0.50302 0.8639 0.05154 0.0
H2209 H 0.47583 0.84712 0.11427 0.0
H2210 H 0.47827 0.8336 0.14687 0.0
H2211 H 0.52236 0.87634 0.16175 0.0
H2212 H 0.52036 0.8899 0.12908 0.0
H2213 H 0.44945 0.94579 0.0473 0.0
H2214 H 0.45564 0.91324 0.05977 0.0
H2215 H 0.50193 0.93838 0.0942 0.0
H2216 H 0.49521 0.97109 0.0824 0.0
H2217 H 0.4868 0.90514 0.10997 0.0
H2218 H 0.5091 0.92538 0.04717 0.0
H2219 H 0.50466 0.93799 0.01445 0.0
H2220 H 0.46844 0.88804 -0.00083 0.0
H2221 H 0.47229 0.8753 0.03196 0.0
C2222 C 0.52138 0.82073 0.10464 0.0
C2223 C 0.50617 0.80736 0.10068 0.0
C2224 C 0.52164 0.83927 0.09646 0.0
C2225 C 0.50667 0.84449 0.08439 0.0
C2226 C 0.49354 0.82994 0.07774 0.0
C2227 C 0.4933 0.8114 0.08583 0.0
C2228 C 0.50178 0.8654 0.0827 0.0
C2229 C 0.49955 0.87298 0.06425 0.0
C2230 C 0.49722 0.87714 0.0994 0.0
C2231 C 0.49807 0.8694 0.11921 0.0
C2232 C 0.48608 0.85358 0.12448 0.0
C2233 C 0.48739 0.8459 0.14296 0.0
C2234 C 0.50049 0.85408 0.15636 0.0
C2235 C 0.51225 0.87 0.15134 0.0
C2236 C 0.51103 0.87769 0.13285 0.0
C2237 C 0.46022 0.94449 0.05838 0.0
C2238 C 0.47211 0.96068 0.0637 0.0
C2239 C 0.46388 0.92592 0.06533 0.0
C2240 C 0.47978 0.9234 0.07716 0.0
C2241 C 0.4898 0.94005 0.08479 0.0
C2242 C 0.48587 0.95874 0.07816 0.0
C2243 C 0.48783 0.90362 0.07877 0.0
C2244 C 0.49061 0.89625 0.09722 0.0
C2245 C 0.49276 0.89205 0.06204 0.0
C2246 C 0.49089 0.89944 0.0421 0.0
C2247 C 0.50013 0.91711 0.03687 0.0
C2248 C 0.49771 0.92429 0.01831 0.0
C2249 C 0.48629 0.91384 0.00474 0.0
C2250 C 0.47729 0.89613 0.0097 0.0
C2251 C 0.47957 0.88892 0.02827 0.0
H2252 H 0.48444 0.91945 0.99039 0.0
H2253 H 0.5015 0.84811 0.17066 0.0
H2254 H 0.95969 0.76923 0.86113 0.0
H2255 H 0.93185 0.775 0.84123 0.0
H2256 H 0.95722 0.74273 0.79322 0.0
H2257 H 0.98546 0.73734 0.8131 0.0
H2258 H 0.92808 0.77478 0.784 0.0
H2259 H 0.93705 0.71446 0.81957 0.0
H2260 H 0.94736 0.69801 0.84897 0.0
H2261 H 0.90584 0.72949 0.88266 0.0
H2262 H 0.89553 0.74641 0.85349 0.0
H2263 H 0.83908 0.73516 0.74854 0.0
H2264 H 0.87207 0.73529 0.75983 0.0
H2265 H 0.85512 0.7628 0.81424 0.0
H2266 H 0.82219 0.763 0.80302 0.0
H2267 H 0.88138 0.73165 0.81747 0.0
H2268 H 0.87187 0.79147 0.78319 0.0
H2269 H 0.8622 0.81046 0.75516 0.0
H2270 H 0.90428 0.78167 0.71987 0.0
H2271 H 0.914 0.76226 0.74766 0.0
C2272 C 0.95957 0.76398 0.84614 0.0
C2273 C 0.97423 0.75232 0.83871 0.0
C2274 C 0.94383 0.76749 0.83472 0.0
C2275 C 0.94241 0.75889 0.81597 0.0
C2276 C 0.95813 0.74944 0.80769 0.0
C2277 C 0.97412 0.74624 0.81907 0.0
C2278 C 0.92337 0.7553 0.8076 0.0
C2279 C 0.91792 0.76512 0.79103 0.0
C2280 C 0.9102 0.7428 0.81704 0.0
C2281 C 0.91558 0.73176 0.83436 0.0
C2282 C 0.93014 0.71789 0.83325 0.0
C2283 C 0.936 0.7085 0.84988 0.0
C2284 C 0.92727 0.71271 0.86768 0.0
C2285 C 0.91259 0.72624 0.86886 0.0
C2286 C 0.90671 0.73571 0.85228 0.0
C2287 C 0.84234 0.74091 0.76304 0.0
C2288 C 0.82814 0.74922 0.77487 0.0
C2289 C 0.86116 0.74108 0.76939 0.0
C2290 C 0.86593 0.74928 0.78772 0.0
C2291 C 0.85163 0.7565 0.8 0.0
C2292 C 0.83289 0.75663 0.79356 0.0
C2293 C 0.88592 0.75123 0.7939 0.0
C2294 C 0.89157 0.74106 0.81015 0.0
C2295 C 0.89917 0.76341 0.78415 0.0
C2296 C 0.89351 0.77523 0.76746 0.0
C2297 C 0.87895 0.78905 0.76941 0.0
C2298 C 0.87348 0.79992 0.75358 0.0
C2299 C 0.88258 0.79723 0.73573 0.0
C2300 C 0.89722 0.78371 0.7337 0.0
C2301 C 0.90272 0.77278 0.7495 0.0
H2302 H 0.87833 0.80565 0.72348 0.0
H2303 H 0.93188 0.7055 0.88055 0.0
H2304 H 0.91772 0.99301 0.83224 0.0
H2305 H 0.93547 0.99212 0.86252 0.0
H2306 H 0.98622 0.01163 0.83325 0.0
H2307 H 0.96854 0.01229 0.80276 0.0
H2308 H 0.98557 0.98621 0.87585 0.0
H2309 H 0.97003 0.04953 0.84189 0.0
H2310 H 0.9472 0.06555 0.82066 0.0
H2311 H 0.90164 0.0507 0.85922 0.0
H2312 H 0.92422 0.03448 0.88059 0.0
H2313 H 0.01618 0.04254 0.95839 0.0
H2314 H 0.00997 0.04218 0.92346 0.0
H2315 H 0.9516 0.02494 0.93362 0.0
H2316 H 0.9577 0.02505 0.96845 0.0
H2317 H 0.96091 0.05128 0.89868 0.0
H2318 H 0.97 0.98263 0.9247 0.0
H2319 H 0.98697 0.96412 0.94924 0.0
H2320 H 0.04027 0.9879 0.92935 0.0
H2321 H 0.02351 0.00646 0.90458 0.0
C2322 C 0.93286 0.99618 0.83207 0.0
C2323 C 0.94168 0.00342 0.81549 0.0
C2324 C 0.94304 0.99541 0.84931 0.0
C2325 C 0.96199 0.00223 0.85009 0.0
C2326 C 0.9716 0.0063 0.83285 0.0
C2327 C 0.96144 0.00678 0.81547 0.0
C2328 C 0.96899 0.01126 0.86851 0.0
C2329 C 0.98074 0.00068 0.88059 0.0
C2330 C 0.96209 0.02987 0.8749 0.0
C2331 C 0.94879 0.04089 0.86284 0.0
C2332 C 0.95516 0.04982 0.84589 0.0
C2333 C 0.94227 0.05888 0.83381 0.0
C2334 C 0.92299 0.05918 0.83861 0.0
C2335 C 0.91658 0.05052 0.85556 0.0
C2336 C 0.92942 0.04145 0.86768 0.0
C2337 C 0.00184 0.03952 0.95324 0.0
C2338 C 0.98749 0.03343 0.966 0.0
C2339 C -0.00167 0.03931 0.93331 0.0
C2340 C 0.98041 0.03332 0.92611 0.0
C2341 C 0.9655 0.02963 0.93901 0.0
C2342 C 0.96904 0.02959 0.95886 0.0
C2343 C 0.97813 0.02666 0.90571 0.0
C2344 C 0.96672 0.03738 0.89348 0.0
C2345 C 0.98523 0.00818 0.89926 0.0
C2346 C 0.99556 0.99571 0.91273 0.0
C2347 C 0.98536 0.98367 0.92543 0.0
C2348 C 0.99492 0.97328 0.93944 0.0
C2349 C 0.01469 0.97487 0.94091 0.0
C2350 C 0.02495 0.9867 0.92821 0.0
C2351 C 0.01544 0.99706 0.9141 0.0
H2352 H 0.02207 0.96686 0.9518 0.0
H2353 H 0.91301 0.06608 0.82918 0.0
H2354 H 0.74033 0.16247 0.53623 0.0
H2355 H 0.73096 0.17436 0.56865 0.0
H2356 H 0.78696 0.16286 0.59016 0.0
H2357 H 0.79667 0.15141 0.55763 0.0
H2358 H 0.75098 0.15277 0.61552 0.0
H2359 H 0.78495 0.20448 0.57988 0.0
H2360 H 0.78959 0.22444 0.551 0.0
H2361 H 0.73244 0.24479 0.55603 0.0
H2362 H 0.72737 0.22465 0.58479 0.0
H2363 H 0.76538 0.21126 0.70012 0.0
H2364 H 0.76656 0.19283 0.66917 0.0
H2365 H 0.72456 0.23106 0.64586 0.0
H2366 H 0.7247 0.25058 0.67659 0.0
H2367 H 0.74894 0.226 0.62042 0.0
H2368 H 0.71545 0.17932 0.65848 0.0
H2369 H 0.70907 0.15922 0.68696 0.0
H2370 H 0.76125 0.1288 0.67738 0.0
H2371 H 0.76804 0.14882 0.64893 0.0
C2372 C 0.75055 0.16208 0.54793 0.0
C2373 C 0.76931 0.15622 0.54437 0.0
C2374 C 0.74515 0.16885 0.56642 0.0
C2375 C 0.7583 0.16947 0.58167 0.0
C2376 C 0.77663 0.16237 0.57851 0.0
C2377 C 0.78218 0.15599 0.55993 0.0
C2378 C 0.75373 0.17978 0.60021 0.0
C2379 C 0.75057 0.16877 0.61675 0.0
C2380 C 0.75258 0.20058 0.60146 0.0
C2381 C 0.75571 0.21287 0.58433 0.0
C2382 C 0.77332 0.21305 0.57472 0.0
C2383 C 0.77604 0.22443 0.55839 0.0
C2384 C 0.7613 0.23583 0.55164 0.0
C2385 C 0.74383 0.23592 0.56125 0.0
C2386 C 0.74103 0.22453 0.57756 0.0
C2387 C 0.75633 0.21559 0.68837 0.0
C2388 C 0.74488 0.23216 0.69058 0.0
C2389 C 0.75683 0.20493 0.67074 0.0
C2390 C 0.74523 0.21012 0.65523 0.0
C2391 C 0.73357 0.22665 0.6576 0.0
C2392 C 0.73359 0.23776 0.67509 0.0
C2393 C 0.74636 0.1991 0.63623 0.0
C2394 C 0.74892 0.20997 0.61942 0.0
C2395 C 0.74655 0.17813 0.63474 0.0
C2396 C 0.7423 0.16567 0.65159 0.0
C2397 C 0.7256 0.16838 0.66247 0.0
C2398 C 0.7219 0.15699 0.67861 0.0
C2399 C 0.73476 0.14276 0.68399 0.0
C2400 C 0.75129 0.13982 0.67318 0.0
C2401 C 0.75504 0.15115 0.65701 0.0
H2402 H 0.7319 0.134 0.69652 0.0
H2403 H 0.76343 0.24463 0.53901 0.0
H2404 H 0.57125 0.03504 0.30094 0.0
H2405 H 0.56552 0.048 0.33406 0.0
H2406 H 0.551 0.989 0.35164 0.0
H2407 H 0.55644 0.97628 0.31871 0.0
H2408 H 0.53126 0.0156 0.37202 0.0
H2409 H 0.6046 0.00555 0.36634 0.0
H2410 H 0.63606 0.01201 0.35176 0.0
H2411 H 0.62133 0.07223 0.34309 0.0
H2412 H 0.5899 0.06616 0.35804 0.0
H2413 H 0.56943 0.98688 0.45867 0.0
H2414 H 0.56703 0.99222 0.42407 0.0
H2415 H 0.57302 0.05515 0.43487 0.0
H2416 H 0.57515 0.05006 0.46973 0.0
H2417 H 0.59305 0.03764 0.40092 0.0
H2418 H 0.53146 0.03984 0.43046 0.0
H2419 H 0.50478 0.02821 0.45054 0.0
H2420 H 0.49901 0.97558 0.41429 0.0
H2421 H 0.52588 0.98673 0.39421 0.0
C2422 C 0.56578 0.02513 0.3117 0.0
C2423 C 0.56408 0.00476 0.30745 0.0
C2424 C 0.56294 0.03244 0.33067 0.0
C2425 C 0.55843 0.01936 0.3454 0.0
C2426 C 0.55458 -0.00064 0.34053 0.0
C2427 C 0.55748 0.9921 0.32169 0.0
C2428 C 0.55992 0.02544 0.36614 0.0
C2429 C 0.54467 0.02072 0.37837 0.0
C2430 C 0.5774 0.03222 0.37442 0.0
C2431 C 0.59484 0.03531 0.3629 0.0
C2432 C 0.60799 0.02007 0.36102 0.0
C2433 C 0.62588 0.02372 0.35294 0.0
C2434 C 0.63071 0.04255 0.34661 0.0
C2435 C 0.61755 0.05767 0.34803 0.0
C2436 C 0.59971 0.05414 0.35632 0.0
C2437 C 0.57074 0.00186 0.45373 0.0
C2438 C 0.572 0.01809 0.46701 0.0
C2439 C 0.56918 0.00486 0.43397 0.0
C2440 C 0.56913 0.02409 0.42716 0.0
C2441 C 0.57264 0.04022 0.44004 0.0
C2442 C 0.57404 0.03725 0.45991 0.0
C2443 C 0.56467 0.02709 0.40665 0.0
C2444 C 0.57937 0.03341 0.3946 0.0
C2445 C 0.54688 0.02109 0.39858 0.0
C2446 C 0.53077 0.01419 0.41081 0.0
C2447 C 0.52461 0.02574 0.42685 0.0
C2448 C 0.50943 0.01922 0.43823 0.0
C2449 C 0.50018 0.00118 0.43366 0.0
C2450 C 0.50616 0.98958 0.41778 0.0
C2451 C 0.52137 0.99601 0.40639 0.0
H2452 H 0.48834 0.99622 0.44238 0.0
H2453 H 0.64466 0.04542 0.34065 0.0
H2454 H 0.79058 0.82939 0.04178 0.0
H2455 H 0.7861 0.80328 0.06454 0.0
H2456 H 0.72599 0.81427 0.06661 0.0
H2457 H 0.73044 0.84103 0.04405 0.0
H2458 H 0.74054 0.81774 0.10095 0.0
H2459 H 0.74349 0.76821 0.05114 0.0
H2460 H 0.7552 0.75075 0.02172 0.0
H2461 H 0.80836 0.74107 0.04989 0.0
H2462 H 0.79711 0.75871 0.07941 0.0
H2463 H 0.73434 0.75748 0.17899 0.0
H2464 H 0.73059 0.7633 0.14459 0.0
H2465 H 0.79138 0.7698 0.13867 0.0
H2466 H 0.79529 0.7635 0.17334 0.0
H2467 H 0.77106 0.7526 0.10421 0.0
H2468 H 0.77005 0.80909 0.15002 0.0
H2469 H 0.75869 0.82669 0.17954 0.0
H2470 H 0.70157 0.82327 0.15765 0.0
H2471 H 0.71258 0.80536 0.12811 0.0
C2472 C 0.7763 0.82607 0.04673 0.0
C2473 C 0.76092 0.83765 0.04144 0.0
C2474 C 0.77373 0.81087 0.05959 0.0
C2475 C 0.7557 0.80672 0.06726 0.0
C2476 C 0.74004 0.81723 0.06086 0.0
C2477 C 0.74262 0.83259 0.04804 0.0
C2478 C 0.75407 0.79432 0.08446 0.0
C2479 C 0.7467 0.80322 0.10143 0.0
C2480 C 0.76256 0.77558 0.08527 0.0
C2481 C 0.76945 0.7649 0.06752 0.0
C2482 C 0.75773 0.76249 0.05104 0.0
C2483 C 0.76428 0.75253 0.03434 0.0
C2484 C 0.78252 0.74483 0.03393 0.0
C2485 C 0.79423 0.74703 0.05024 0.0
C2486 C 0.78776 0.75698 0.06698 0.0
C2487 C 0.74695 0.75977 0.17028 0.0
C2488 C 0.76509 0.76062 0.17882 0.0
C2489 C 0.74478 0.76287 0.15062 0.0
C2490 C 0.76068 0.76727 0.13925 0.0
C2491 C 0.77896 0.76639 0.1473 0.0
C2492 C 0.78118 0.76297 0.16706 0.0
C2493 C 0.7579 0.77633 0.12036 0.0
C2494 C 0.76448 0.76687 0.10335 0.0
C2495 C 0.74871 0.79462 0.11936 0.0
C2496 C 0.7421 0.80568 0.13697 0.0
C2497 C 0.75505 0.81196 0.15157 0.0
C2498 C 0.74868 0.82201 0.1683 0.0
C2499 C 0.72941 0.82604 0.1705 0.0
C2500 C 0.71649 0.8201 0.15594 0.0
C2501 C 0.72278 0.81 0.1392 0.0
H2502 H 0.7245 0.83381 0.18347 0.0
H2503 H 0.78757 0.73713 0.02098 0.0
H2504 H 0.96352 0.02167 0.733 0.0
H2505 H 0.9736 0.00297 0.70429 0.0
H2506 H 0.92025 0.01431 0.67637 0.0
H2507 H 0.90955 0.03209 0.70584 0.0
H2508 H 0.9283 0.97779 0.66989 0.0
H2509 H 0.96455 0.03871 0.66497 0.0
H2510 H 0.98657 0.06567 0.67601 0.0
H2511 H 0.03063 0.02385 0.68368 0.0
H2512 H 0.0088 0.99662 0.67286 0.0
H2513 H 0.95321 0.97664 0.57202 0.0
H2514 H 0.94216 0.97647 0.60526 0.0
H2515 H 0.9966 0.95571 0.62353 0.0
H2516 H 0.00795 0.95639 0.59 0.0
H2517 H 0.99019 0.99117 0.63818 0.0
H2518 H 0.95327 0.93116 0.63516 0.0
H2519 H 0.93033 0.90655 0.62116 0.0
H2520 H 0.88614 0.94914 0.62501 0.0
H2521 H 0.90882 0.9741 0.63879 0.0
C2522 C 0.95403 0.02052 0.72063 0.0
C2523 C 0.9358 0.0285 0.72155 0.0
C2524 C 0.95983 0.00977 0.70419 0.0
C2525 C 0.94781 0.0074 0.68803 0.0
C2526 C 0.92976 0.01588 0.6887 0.0
C2527 C 0.92373 0.0262 0.70541 0.0
C2528 C 0.95396 0.9958 0.67058 0.0
C2529 C 0.94176 0.9808 0.66281 0.0
C2530 C 0.97183 -0.00077 0.66177 0.0
C2531 C 0.98497 0.0156 0.66833 0.0
C2532 C 0.97889 0.03525 0.66915 0.0
C2533 C 0.99135 0.05058 0.67533 0.0
C2534 C 0.00997 0.04647 0.6806 0.0
C2535 C 0.01619 0.02702 0.67963 0.0
C2536 C 0.00379 0.01163 0.67345 0.0
C2537 C 0.96258 0.97122 0.58299 0.0
C2538 C 0.98158 0.96706 0.57859 0.0
C2539 C 0.95616 0.97094 0.60205 0.0
C2540 C 0.96861 0.9663 0.61699 0.0
C2541 C 0.9868 0.95944 0.61221 0.0
C2542 C 0.99326 0.95976 0.59304 0.0
C2543 C 0.96433 0.97347 0.63703 0.0
C2544 C 0.9769 0.98775 0.64541 0.0
C2545 C 0.94662 0.96967 0.64604 0.0
C2546 C 0.93282 0.95455 0.63799 0.0
C2547 C 0.93869 0.93533 0.63294 0.0
C2548 C 0.92572 0.9213 0.62505 0.0
C2549 C 0.9068 0.92628 0.62218 0.0
C2550 C 0.9008 0.94529 0.62726 0.0
C2551 C 0.9137 0.95937 0.63516 0.0
H2552 H 0.89679 0.91541 0.61604 0.0
H2553 H 0.01958 0.05836 0.68539 0.0
H2554 H 0.74906 0.20061 0.45468 0.0
H2555 H 0.75335 0.22286 0.42807 0.0
H2556 H 0.81035 0.23712 0.44755 0.0
H2557 H 0.80624 0.2149 0.47426 0.0
H2558 H 0.76856 0.25942 0.41332 0.0
H2559 H 0.83768 0.21836 0.41268 0.0
H2560 H 0.8527 0.19065 0.42873 0.0
H2561 H 0.79829 0.16132 0.43381 0.0
H2562 H 0.78307 0.18868 0.41751 0.0
H2563 H 0.79936 0.26445 0.31393 0.0
H2564 H 0.80336 0.26619 0.34927 0.0
H2565 H 0.78037 0.20681 0.35249 0.0
H2566 H 0.77622 0.20498 0.3174 0.0
H2567 H 0.81126 0.21403 0.3769 0.0
H2568 H 0.75127 0.2435 0.35947 0.0
H2569 H 0.73221 0.26761 0.34244 0.0
H2570 H 0.76297 0.31541 0.37165 0.0
H2571 H 0.78234 0.29153 0.38873 0.0
C2572 C 0.76219 0.2092 0.45395 0.0
C2573 C 0.77768 0.20515 0.46592 0.0
C2574 C 0.76457 0.2221 0.43875 0.0
C2575 C 0.78242 0.231 0.43546 0.0
C2576 C 0.79658 0.23006 0.44967 0.0
C2577 C 0.79422 0.21718 0.46488 0.0
C2578 C 0.78774 0.23523 0.41527 0.0
C2579 C 0.7783 0.24991 0.40543 0.0
C2580 C 0.80008 0.22244 0.40488 0.0
C2581 C 0.80925 0.20565 0.4141 0.0
C2582 C 0.82897 0.20595 0.41715 0.0
C2583 C 0.83751 0.1903 0.42629 0.0
C2584 C 0.82645 0.17426 0.43235 0.0
C2585 C 0.80685 0.17375 0.42915 0.0
C2586 C 0.79827 0.18931 0.41995 0.0
C2587 C 0.79549 0.25164 0.32215 0.0
C2588 C 0.78732 0.23462 0.31292 0.0
C2589 C 0.79772 0.2527 0.34231 0.0
C2590 C 0.79202 0.23668 0.35344 0.0
C2591 C 0.78487 0.21932 0.34413 0.0
C2592 C 0.78244 0.21833 0.32408 0.0
C2593 C 0.79205 0.23816 0.37486 0.0
C2594 C 0.80234 0.22431 0.38491 0.0
C2595 C 0.78016 0.25139 0.38525 0.0
C2596 C 0.76837 0.26575 0.37522 0.0
C2597 C 0.75404 0.25915 0.36217 0.0
C2598 C 0.74317 0.27277 0.35252 0.0
C2599 C 0.74642 0.29303 0.35591 0.0
C2600 C 0.7605 0.29971 0.36902 0.0
C2601 C 0.77141 0.28614 0.3787 0.0
H2602 H 0.73801 0.30355 0.34842 0.0
H2603 H 0.83307 0.16221 0.43948 0.0
H2604 H 0.61761 0.01754 0.21147 0.0
H2605 H 0.6078 0.03528 0.1831 0.0
H2606 H 0.57244 0.9853 0.16449 0.0
H2607 H 0.58185 0.96757 0.19298 0.0
H2608 H 0.60646 0.03131 0.14373 0.0
H2609 H 0.52892 0.00116 0.15518 0.0
H2610 H 0.50889 0.99022 0.18226 0.0
H2611 H 0.54332 0.02508 0.22251 0.0
H2612 H 0.56335 0.03651 0.19566 0.0
H2613 H 0.55334 0.02263 0.06121 0.0
H2614 H 0.57201 0.02444 0.09043 0.0
H2615 H 0.53013 0.06142 0.11832 0.0
H2616 H 0.51039 0.05839 0.08899 0.0
H2617 H 0.53622 0.03463 0.14024 0.0
H2618 H 0.57997 0.07694 0.11052 0.0
H2619 H 0.60014 0.09063 0.08483 0.0
H2620 H 0.63356 0.03839 0.08354 0.0
H2621 H 0.61347 0.02423 0.109 0.0
C2622 C 0.60807 0.01012 0.20111 0.0
C2623 C 0.60006 0.99136 0.20473 0.0
C2624 C 0.60253 0.0203 0.1849 0.0
C2625 C 0.58895 0.01182 0.17211 0.0
C2626 C 0.58259 0.99226 0.17454 0.0
C2627 C 0.58806 0.98209 0.19076 0.0
C2628 C 0.57993 0.02387 0.1574 0.0
C2629 C 0.59113 0.03221 0.14289 0.0
C2630 C 0.56001 0.02611 0.15715 0.0
C2631 C 0.54772 0.0196 0.17337 0.0
C2632 C 0.53214 0.00661 0.16978 0.0
C2633 C 0.5208 0.0003 0.18511 0.0
C2634 C 0.52485 0.00691 0.2041 0.0
C2635 C 0.54022 0.01992 0.2078 0.0
C2636 C 0.55158 0.02631 0.19253 0.0
C2637 C 0.54819 0.03157 0.07336 0.0
C2638 C 0.53023 0.04017 0.07287 0.0
C2639 C 0.55913 0.03285 0.09011 0.0
C2640 C 0.55276 0.04335 0.10665 0.0
C2641 C 0.53539 0.05321 0.10576 0.0
C2642 C 0.52411 0.05147 0.08904 0.0
C2643 C 0.5626 0.04079 0.12542 0.0
C2644 C 0.55159 0.03432 0.14104 0.0
C2645 C 0.58272 0.04093 0.12692 0.0
C2646 C 0.59515 0.04951 0.11176 0.0
C2647 C 0.59157 0.06832 0.10473 0.0
C2648 C 0.60301 0.07617 0.09019 0.0
C2649 C 0.61812 0.06539 0.08256 0.0
C2650 C 0.62187 0.04675 0.0895 0.0
C2651 C 0.6105 0.03883 0.10404 0.0
H2652 H 0.62692 0.07147 0.07128 0.0
H2653 H 0.51607 0.00198 0.21594 0.0
H2654 H 0.77844 0.83423 0.96511 0.0
H2655 H 0.76811 0.81378 0.93702 0.0
H2656 H 0.73581 0.86228 0.91642 0.0
H2657 H 0.74506 0.88225 0.94533 0.0
H2658 H 0.71663 0.8304 0.90907 0.0
H2659 H 0.78221 0.84977 0.89888 0.0
H2660 H 0.81627 0.853 0.9071 0.0
H2661 H 0.8198 0.78989 0.90897 0.0
H2662 H 0.78569 0.78629 0.90095 0.0
H2663 H 0.74089 0.81778 0.80652 0.0
H2664 H 0.73681 0.82829 0.84056 0.0
H2665 H 0.73103 0.76738 0.85621 0.0
H2666 H 0.73416 0.75682 0.82191 0.0
H2667 H 0.76651 0.79908 0.86848 0.0
H2668 H 0.69998 0.78165 0.87232 0.0
H2669 H 0.66656 0.7814 0.86163 0.0
H2670 H 0.66576 0.84463 0.86852 0.0
H2671 H 0.69929 0.84529 0.87897 0.0
C2672 C 0.76926 0.84053 0.95447 0.0
C2673 C 0.76283 0.85989 0.95706 0.0
C2674 C 0.76331 0.82883 0.93846 0.0
C2675 C 0.75148 0.83659 0.92435 0.0
C2676 C 0.74493 0.85594 0.92708 0.0
C2677 C 0.75038 0.86742 0.94344 0.0
C2678 C 0.74662 0.82493 0.90633 0.0
C2679 C 0.72755 0.82359 0.90018 0.0
C2680 C 0.7608 0.81567 0.89488 0.0
C2681 C 0.78136 0.81778 0.89954 0.0
C2682 C 0.79023 0.83659 0.90116 0.0
C2683 C 0.80954 0.83848 0.90576 0.0
C2684 C 0.82018 0.82166 0.90862 0.0
C2685 C 0.81153 0.8029 0.90679 0.0
C2686 C 0.79222 0.80093 0.9022 0.0
C2687 C 0.738 0.80671 0.81716 0.0
C2688 C 0.73785 0.78656 0.81178 0.0
C2689 C 0.73558 0.8127 0.83651 0.0
C2690 C 0.73347 0.79859 0.85076 0.0
C2691 C 0.73229 0.77845 0.84531 0.0
C2692 C 0.73412 0.77246 0.8258 0.0
C2693 C 0.7367 0.80496 0.87113 0.0
C2694 C 0.75555 0.80545 0.87767 0.0
C2695 C 0.72242 0.81383 0.88258 0.0
C2696 C 0.70226 0.81353 0.87621 0.0
C2697 C 0.69277 0.79553 0.87132 0.0
C2698 C 0.67377 0.79531 0.86538 0.0
C2699 C 0.66406 0.81299 0.86434 0.0
C2700 C 0.67331 0.83094 0.8693 0.0
C2701 C 0.69231 0.83124 0.87527 0.0
H2702 H 0.64936 0.81279 0.85973 0.0
H2703 H 0.83512 0.82316 0.91219 0.0
H2704 H 0.78117 0.95997 0.01499 0.0
H2705 H 0.81221 0.97625 0.0211 0.0
H2706 H 0.83988 0.9264 0.99371 0.0
H2707 H 0.809 0.91018 0.9877 0.0
H2708 H 0.84667 0.93142 0.03343 0.0
H2709 H 0.84768 0.96934 0.97607 0.0
H2710 H 0.83602 0.99289 0.95265 0.0
H2711 H 0.83661 0.03898 0.99701 0.0
H2712 H 0.84807 0.01563 0.0208 0.0
H2713 H 0.94419 0.95265 0.03011 0.0
H2714 H 0.91045 0.94439 0.02686 0.0
H2715 H 0.8967 -0.00157 0.05827 0.0
H2716 H 0.93079 0.00669 0.06172 0.0
H2717 H 0.88054 0.99472 0.02117 0.0
H2718 H 0.88356 0.95587 0.07754 0.0
H2719 H 0.89673 0.93147 0.09924 0.0
H2720 H 0.88971 0.88598 0.05473 0.0
H2721 H 0.87669 0.91012 0.03267 0.0
C2722 C 0.79386 0.95301 0.00942 0.0
C2723 C 0.79293 0.93372 0.00131 0.0
C2724 C 0.81155 0.96227 0.01298 0.0
C2725 C 0.82826 0.95227 0.00823 0.0
C2726 C 0.8271 0.93419 0.9977 0.0
C2727 C 0.80951 0.92494 0.99429 0.0
C2728 C 0.84642 0.95829 0.0176 0.0
C2729 C 0.85419 0.94519 0.03063 0.0
C2730 C 0.85567 0.97662 0.01451 0.0
C2731 C 0.84847 0.99063 0.00032 0.0
C2732 C 0.84509 0.98442 0.98092 0.0
C2733 C 0.83859 0.99776 0.96755 0.0
C2734 C 0.8355 0.0174 0.97336 0.0
C2735 C 0.83897 0.02375 0.99255 0.0
C2736 C 0.84548 0.01047 0.00598 0.0
C2737 C 0.93397 0.9624 0.03694 0.0
C2738 C 0.93994 0.98027 0.04613 0.0
C2739 C 0.91472 0.95768 0.03509 0.0
C2740 C 0.90112 0.97085 0.04228 0.0
C2741 C 0.90705 0.98811 0.05267 0.0
C2742 C 0.92644 0.99271 0.05478 0.0
C2743 C 0.88106 0.96754 0.03652 0.0
C2744 C 0.87284 0.98113 0.02425 0.0
C2745 C 0.87142 0.94952 0.04011 0.0
C2746 C 0.8792 0.93488 0.0534 0.0
C2747 C 0.88493 0.9407 0.07232 0.0
C2748 C 0.89235 0.9269 0.08471 0.0
C2749 C 0.89407 0.9072 0.07836 0.0
C2750 C 0.88835 0.90124 0.05963 0.0
C2751 C 0.8809 0.91498 0.0472 0.0
H2752 H 0.89983 0.89654 0.08796 0.0
H2753 H 0.83049 0.0277 0.96298 0.0
H2754 H 0.28933 0.5738 0.98552 0.0
H2755 H 0.31631 0.55166 0.98644 0.0
H2756 H 0.3547 0.60217 0.99187 0.0
H2757 H 0.32809 0.62418 0.99022 0.0
H2758 H 0.36571 0.57843 0.96381 0.0
H2759 H 0.3452 0.57133 0.02985 0.0
H2760 H 0.3234 0.56327 0.05654 0.0
H2761 H 0.31724 0.50364 0.03374 0.0
H2762 H 0.33886 0.51142 0.00677 0.0
H2763 H 0.449 0.54829 0.00945 0.0
H2764 H 0.41797 0.56112 0.00139 0.0
H2765 H 0.40047 0.5039 0.97739 0.0
H2766 H 0.43191 0.49097 0.98496 0.0
H2767 H 0.37628 0.52449 0.00902 0.0
H2768 H 0.40366 0.53319 0.946 0.0
H2769 H 0.42817 0.54366 0.92275 0.0
H2770 H 0.42399 0.60375 0.94402 0.0
H2771 H 0.39965 0.59362 0.96758 0.0
C2772 C 0.30352 0.58015 0.98719 0.0
C2773 C 0.30659 0.60077 0.98767 0.0
C2774 C 0.3189 0.56748 0.98775 0.0
C2775 C 0.33751 0.57528 0.9891 0.0
C2776 C 0.34046 0.59584 0.99059 0.0
C2777 C 0.32519 0.60844 0.98976 0.0
C2778 C 0.35415 0.56238 0.9877 0.0
C2779 C 0.36803 0.56666 0.97375 0.0
C2780 C 0.35685 0.54659 0.00023 0.0
C2781 C 0.34339 0.54205 0.0161 0.0
C2782 C 0.33899 0.55657 0.03037 0.0
C2783 C 0.32673 0.55203 0.0456 0.0
C2784 C 0.31887 0.53298 0.04679 0.0
C2785 C 0.32329 0.51842 0.03276 0.0
C2786 C 0.33555 0.52288 0.0175 0.0
C2787 C 0.4386 0.53845 0.00236 0.0
C2788 C 0.44273 0.51862 0.99795 0.0
C2789 C 0.42097 0.54583 0.99765 0.0
C2790 C 0.4071 0.53343 0.98876 0.0
C2791 C 0.41114 0.51364 0.98417 0.0
C2792 C 0.42901 0.50632 0.98849 0.0
C2793 C 0.38803 0.54119 0.98574 0.0
C2794 C 0.37367 0.53591 -0.00122 0.0
C2795 C 0.38508 0.55647 0.97277 0.0
C2796 C 0.39987 0.56259 0.95867 0.0
C2797 C 0.40808 0.5486 0.94586 0.0
C2798 C 0.42192 0.55449 0.93258 0.0
C2799 C 0.42765 0.57435 0.93193 0.0
C2800 C 0.41954 0.58837 0.94453 0.0
C2801 C 0.40569 0.58256 0.95783 0.0
H2802 H 0.43836 0.57887 0.92164 0.0
H2803 H 0.30941 0.52949 0.0586 0.0
H2804 H 0.11888 0.56694 0.78236 0.0
H2805 H 0.13401 0.59565 0.76777 0.0
H2806 H 0.15188 0.55895 0.7191 0.0
H2807 H 0.13629 0.53012 0.73343 0.0
H2808 H 0.18176 0.58163 0.74026 0.0
H2809 H 0.12346 0.59105 0.70765 0.0
H2810 H 0.08872 0.59316 0.70416 0.0
H2811 H 0.08841 0.64248 0.74501 0.0
H2812 H 0.12312 0.64052 0.74895 0.0
H2813 H 0.22712 0.67207 0.71089 0.0
H2814 H 0.20779 0.64151 0.70827 0.0
H2815 H 0.1734 0.66203 0.75628 0.0
H2816 H 0.19253 0.69245 0.75904 0.0
H2817 H 0.15185 0.64518 0.7262 0.0
H2818 H 0.20767 0.63091 0.7641 0.0
H2819 H 0.24211 0.62863 0.76982 0.0
H2820 H 0.24676 0.58823 0.72077 0.0
H2821 H 0.21233 0.59048 0.7146 0.0
C2822 C 0.12565 0.56507 0.76834 0.0
C2823 C 0.12645 0.54634 0.75903 0.0
C2824 C 0.13424 0.58147 0.76001 0.0
C2825 C 0.14402 0.57936 0.74238 0.0
C2826 C 0.14431 0.56082 0.73268 0.0
C2827 C 0.13534 0.54444 0.74083 0.0
C2828 C 0.15542 0.59626 0.73541 0.0
C2829 C 0.17529 0.59539 0.73657 0.0
C2830 C 0.14685 0.61422 0.73101 0.0
C2831 C 0.12593 0.61555 0.72868 0.0
C2832 C 0.11598 0.60226 0.71601 0.0
C2833 C 0.09629 0.60345 0.71392 0.0
C2834 C 0.08636 0.61793 0.72438 0.0
C2835 C 0.09612 0.63127 0.73692 0.0
C2836 C 0.11582 0.63015 0.73905 0.0
C2837 C 0.21538 0.67011 0.72082 0.0
C2838 C 0.21145 0.68464 0.73526 0.0
C2839 C 0.20437 0.65265 0.71929 0.0
C2840 C 0.1892 0.64954 0.73211 0.0
C2841 C 0.18499 0.66421 0.7462 0.0
C2842 C 0.19605 0.68152 0.74784 0.0
C2843 C 0.17814 0.63069 0.73166 0.0
C2844 C 0.15836 0.63125 0.7292 0.0
C2845 C 0.18677 0.61246 0.73504 0.0
C2846 C 0.20747 0.61109 0.73871 0.0
C2847 C 0.21606 0.62169 0.75441 0.0
C2848 C 0.23557 0.62037 0.75777 0.0
C2849 C 0.24663 0.60835 0.74562 0.0
C2850 C 0.23818 0.59758 0.73013 0.0
C2851 C 0.21867 0.59886 0.7267 0.0
H2852 H 0.26173 0.60734 0.74824 0.0
H2853 H 0.07112 0.61882 0.72276 0.0
H2854 H 0.17551 0.38981 0.51911 0.0
H2855 H 0.14213 0.39783 0.5136 0.0
H2856 H 0.15945 0.43929 0.47071 0.0
H2857 H 0.19263 0.43117 0.47573 0.0
H2858 H 0.13689 0.45169 0.50925 0.0
H2859 H 0.13917 0.40922 0.45089 0.0
H2860 H 0.14468 0.3774 0.43358 0.0
H2861 H 0.10152 0.34943 0.46774 0.0
H2862 H 0.09599 0.38105 0.48552 0.0
H2863 H 0.05644 0.49766 0.48195 0.0
H2864 H 0.08509 0.47874 0.47625 0.0
H2865 H 0.05815 0.42785 0.50135 0.0
H2866 H 0.02903 0.4465 0.50638 0.0
H2867 H 0.08462 0.4173 0.47226 0.0
H2868 H 0.08181 0.45814 0.53049 0.0
H2869 H 0.07609 0.48906 0.54934 0.0
H2870 H 0.12037 0.51861 0.51799 0.0
H2871 H 0.12616 0.48794 0.49873 0.0
C2872 C 0.17216 0.4004 0.50829 0.0
C2873 C 0.18668 0.41005 0.49803 0.0
C2874 C 0.15313 0.40482 0.50507 0.0
C2875 C 0.14846 0.41902 0.49167 0.0
C2876 C 0.16286 0.42814 0.48097 0.0
C2877 C 0.18179 0.42354 0.48395 0.0
C2878 C 0.12903 0.42653 0.49082 0.0
C2879 C 0.1255 0.44429 0.50101 0.0
C2880 C 0.11418 0.41642 0.48055 0.0
C2881 C 0.11735 0.39746 0.46973 0.0
C2882 C 0.13101 0.39624 0.45488 0.0
C2883 C 0.1341 0.37825 0.44494 0.0
C2884 C 0.1235 0.36138 0.4496 0.0
C2885 C 0.10974 0.3625 0.46417 0.0
C2886 C 0.10662 0.38046 0.47418 0.0
C2887 C 0.05646 0.48232 0.48589 0.0
C2888 C 0.04073 0.47373 0.49514 0.0
C2889 C 0.07279 0.47149 0.48253 0.0
C2890 C 0.07387 0.45207 0.48883 0.0
C2891 C 0.05762 0.44285 0.49648 0.0
C2892 C 0.04107 0.45359 0.49949 0.0
C2893 C 0.09264 0.44283 0.49026 0.0
C2894 C 0.09602 0.4247 0.48045 0.0
C2895 C 0.10744 0.45243 0.50114 0.0
C2896 C 0.10433 0.47077 0.51307 0.0
C2897 C 0.09027 0.47125 0.52755 0.0
C2898 C 0.08701 0.48873 0.53831 0.0
C2899 C 0.09783 0.50579 0.53484 0.0
C2900 C 0.11199 0.50539 0.52065 0.0
C2901 C 0.11528 0.48795 0.50982 0.0
H2902 H 0.09526 0.51931 0.54317 0.0
H2903 H 0.12591 0.34746 0.4419 0.0
H2904 H 0.87151 0.95477 0.7973 0.0
H2905 H 0.85704 0.92583 0.78032 0.0
H2906 H 0.85626 0.95733 0.72718 0.0
H2907 H 0.87123 0.98626 0.74392 0.0
H2908 H 0.81922 0.93385 0.7431 0.0
H2909 H 0.88407 0.92885 0.72126 0.0
H2910 H 0.91883 0.92988 0.72573 0.0
H2911 H 0.91429 0.88282 0.76564 0.0
H2912 H 0.87946 0.88171 0.76164 0.0
H2913 H 0.78481 0.83879 0.70722 0.0
H2914 H 0.80268 0.87038 0.70573 0.0
H2915 H 0.83437 0.85584 0.75659 0.0
H2916 H 0.81698 0.82461 0.75803 0.0
H2917 H 0.85707 0.87366 0.73145 0.0
H2918 H 0.79443 0.88374 0.76012 0.0
H2919 H 0.75938 0.88263 0.75966 0.0
H2920 H 0.75942 0.91967 0.71045 0.0
H2921 H 0.79451 0.92081 0.71052 0.0
C2922 C 0.8682 0.95558 0.78203 0.0
C2923 C 0.87253 0.97274 0.77193 0.0
C2924 C 0.86001 0.93905 0.77236 0.0
C2925 C 0.85572 0.93952 0.75254 0.0
C2926 C 0.85957 0.95675 0.74247 0.0
C2927 C 0.86814 0.97318 0.75205 0.0
C2928 C 0.84724 0.92178 0.74264 0.0
C2929 C 0.8275 0.9208 0.73994 0.0
C2930 C 0.85812 0.90481 0.7389 0.0
C2931 C 0.87911 0.90531 0.74125 0.0
C2932 C 0.89045 0.91884 0.73113 0.0
C2933 C 0.91018 0.91941 0.73355 0.0
C2934 C 0.91876 0.90645 0.74599 0.0
C2935 C 0.90763 0.89286 0.75601 0.0
C2936 C 0.88789 0.89223 0.75365 0.0
C2937 C 0.79579 0.84228 0.71787 0.0
C2938 C 0.79925 0.8294 0.73294 0.0
C2939 C 0.80595 0.8603 0.71703 0.0
C2940 C 0.81973 0.86554 0.73117 0.0
C2941 C 0.82384 0.85215 0.74551 0.0
C2942 C 0.81371 0.83434 0.74642 0.0
C2943 C 0.82889 0.88547 0.73248 0.0
C2944 C 0.8488 0.88687 0.73374 0.0
C2945 C 0.81813 0.90276 0.7352 0.0
C2946 C 0.79706 0.90214 0.73516 0.0
C2947 C 0.78696 0.89153 0.74912 0.0
C2948 C 0.76709 0.89091 0.74894 0.0
C2949 C 0.75718 0.90101 0.73499 0.0
C2950 C 0.76712 0.91181 0.72121 0.0
C2951 C 0.78699 0.91245 0.72132 0.0
H2952 H 0.7418 0.90052 0.73487 0.0
H2953 H 0.93403 0.90692 0.74785 0.0
H2954 H 0.71716 0.08484 0.48067 0.0
H2955 H 0.6952 0.06966 0.50303 0.0
H2956 H 0.6702 0.12632 0.51567 0.0
H2957 H 0.69339 0.14194 0.4941 0.0
H2958 H 0.67369 0.10934 0.54756 0.0
H2959 H 0.64727 0.08708 0.48697 0.0
H2960 H 0.64623 0.0723 0.45379 0.0
H2961 H 0.66505 0.01721 0.47498 0.0
H2962 H 0.6664 0.03171 0.50826 0.0
H2963 H 0.58438 0.06841 0.57444 0.0
H2964 H 0.61431 0.08581 0.56908 0.0
H2965 H 0.6428 0.0301 0.56466 0.0
H2966 H 0.61249 0.01264 0.56936 0.0
H2967 H 0.63919 0.04652 0.53051 0.0
H2968 H 0.65988 0.07137 0.59377 0.0
H2969 H 0.65557 0.08833 0.62563 0.0
H2970 H 0.64086 0.14151 0.59771 0.0
H2971 H 0.64484 0.12484 0.56569 0.0
C2972 C 0.70674 0.09406 0.48786 0.0
C2973 C 0.70686 0.11457 0.48548 0.0
C2974 C 0.69413 0.08533 0.5007 0.0
C2975 C 0.68076 0.09672 0.5109 0.0
C2976 C 0.68039 0.11718 0.50803 0.0
C2977 C 0.69347 0.12607 0.49555 0.0
C2978 C 0.66771 0.08723 0.52495 0.0
C2979 C 0.66598 0.09569 0.54379 0.0
C2980 C 0.65778 0.06931 0.52017 0.0
C2981 C 0.65712 0.06056 0.5001 0.0
C2982 C 0.65133 0.07186 0.48454 0.0
C2983 C 0.65065 0.06352 0.46571 0.0
C2984 C 0.65562 0.04385 0.46227 0.0
C2985 C 0.66123 0.03246 0.47766 0.0
C2986 C 0.66193 0.04072 0.49651 0.0
C2987 C 0.59726 0.05995 0.57373 0.0
C2988 C 0.59617 0.03924 0.57183 0.0
C2989 C 0.61446 0.06995 0.5706 0.0
C2990 C 0.63076 0.05925 0.5659 0.0
C2991 C 0.63032 0.03864 0.568 0.0
C2992 C 0.61301 0.02862 0.57091 0.0
C2993 C 0.64536 0.06836 0.55329 0.0
C2994 C 0.6472 0.05994 0.53449 0.0
C2995 C 0.65468 0.08666 0.55796 0.0
C2996 C 0.65261 0.09679 0.57728 0.0
C2997 C 0.65563 0.08665 0.5944 0.0
C2998 C 0.65326 0.09623 0.61251 0.0
C2999 C 0.64792 0.11598 0.61369 0.0
C3000 C 0.64501 0.12622 0.59678 0.0
C3001 C 0.64737 0.11672 0.57865 0.0
H3002 H 0.64607 0.12335 0.62772 0.0
H3003 H 0.65508 0.03742 0.44769 0.0
H3004 H 0.16477 0.45718 0.75507 0.0
H3005 H 0.18986 0.43362 0.75904 0.0
H3006 H 0.19993 0.45654 0.81733 0.0
H3007 H 0.17454 0.48007 0.81364 0.0
H3008 H 0.22673 0.42806 0.77044 0.0
H3009 H 0.1981 0.41657 0.84554 0.0
H3010 H 0.17165 0.42728 0.86666 0.0
H3011 H 0.13501 0.42944 0.81709 0.0
H3012 H 0.16116 0.41845 0.79575 0.0
H3013 H 0.2591 0.33331 0.79672 0.0
H3014 H 0.2505 0.36749 0.8041 0.0
H3015 H 0.19492 0.35577 0.77949 0.0
H3016 H 0.20348 0.32154 0.77166 0.0
H3017 H 0.19738 0.38149 0.81639 0.0
H3018 H 0.22177 0.37319 0.74978 0.0
H3019 H 0.24619 0.3616 0.72668 0.0
H3020 H 0.28846 0.39774 0.75672 0.0
H3021 H 0.26425 0.40938 0.78013 0.0
C3022 C 0.17268 0.45768 0.76854 0.0
C3023 C 0.16713 0.46991 0.7843 0.0
C3024 C 0.18719 0.44431 0.77072 0.0
C3025 C 0.19633 0.443 0.78867 0.0
C3026 C 0.19278 0.45715 0.80348 0.0
C3027 C 0.17818 0.47053 0.80134 0.0
C3028 C 0.20577 0.42437 0.79287 0.0
C3029 C 0.2207 0.41808 0.78088 0.0
C3030 C 0.19769 0.41123 0.80632 0.0
C3031 C 0.18161 0.41688 0.81908 0.0
C3032 C 0.18435 0.4192 0.83919 0.0
C3033 C 0.16943 0.42534 0.85119 0.0
C3034 C 0.15168 0.4291 0.84321 0.0
C3035 C 0.14876 0.42655 0.82324 0.0
C3036 C 0.16361 0.42033 0.8112 0.0
C3037 C 0.24493 0.33789 0.79313 0.0
C3038 C 0.23202 0.32483 0.78336 0.0
C3039 C 0.24006 0.35739 0.79745 0.0
C3040 C 0.22213 0.36401 0.79233 0.0
C3041 C 0.2088 0.35077 0.78362 0.0
C3042 C 0.21376 0.33132 0.77901 0.0
C3043 C 0.21803 0.38522 0.79373 0.0
C3044 C 0.20405 0.39182 0.80668 0.0
C3045 C 0.22681 0.39856 0.78104 0.0
C3046 C 0.24127 0.39201 0.76676 0.0
C3047 C 0.23629 0.37858 0.75149 0.0
C3048 C 0.25008 0.37202 0.73835 0.0
C3049 C 0.26888 0.3789 0.74026 0.0
C3050 C 0.2739 0.39242 0.75528 0.0
C3051 C 0.26015 0.39902 0.76847 0.0
H3052 H 0.27954 0.37379 0.73008 0.0
H3053 H 0.14018 0.43397 0.8525 0.0
H3054 H 0.37902 0.57723 0.32311 0.0
H3055 H 0.36188 0.60827 0.325 0.0
H3056 H 0.31903 0.58279 0.28621 0.0
H3057 H 0.33685 0.55206 0.28361 0.0
H3058 H 0.32983 0.61657 0.27418 0.0
H3059 H 0.31154 0.59362 0.33708 0.0
H3060 H 0.31713 0.58117 0.36969 0.0
H3061 H 0.35005 0.63357 0.38501 0.0
H3062 H 0.34481 0.64626 0.35241 0.0
H3063 H 0.25894 0.68462 0.28199 0.0
H3064 H 0.27586 0.6557 0.29189 0.0
H3065 H 0.32411 0.69263 0.30898 0.0
H3066 H 0.30723 0.72194 0.29899 0.0
H3067 H 0.31235 0.65527 0.33372 0.0
H3068 H 0.33166 0.677 0.26996 0.0
H3069 H 0.32471 0.68964 0.2377 0.0
H3070 H 0.28879 0.63878 0.22471 0.0
H3071 H 0.29537 0.62596 0.25701 0.0
C3072 C 0.36577 0.57828 0.31527 0.0
C3073 C 0.35909 0.56249 0.30326 0.0
C3074 C 0.35592 0.59592 0.31643 0.0
C3075 C 0.33902 0.59783 0.30593 0.0
C3076 C 0.33204 0.58167 0.29444 0.0
C3077 C 0.34211 0.56415 0.29298 0.0
C3078 C 0.32954 0.61715 0.30548 0.0
C3079 C 0.32586 0.62483 0.28726 0.0
C3080 C 0.3249 0.62836 0.32253 0.0
C3081 C 0.3279 0.62082 0.34222 0.0
C3082 C 0.32006 0.60244 0.34736 0.0
C3083 C 0.32315 0.59535 0.36585 0.0
C3084 C 0.33398 0.60655 0.3794 0.0
C3085 C 0.34168 0.6249 0.3745 0.0
C3086 C 0.33862 0.63207 0.35602 0.0
C3087 C 0.27302 0.68672 0.28816 0.0
C3088 C 0.28191 0.70553 0.28932 0.0
C3089 C 0.28258 0.67018 0.29396 0.0
C3090 C 0.3012 0.6721 0.30101 0.0
C3091 C 0.30967 0.69096 0.30364 0.0
C3092 C 0.30006 0.70763 0.29782 0.0
C3093 C 0.31249 0.65416 0.30252 0.0
C3094 C 0.31652 0.64687 0.32079 0.0
C3095 C 0.31749 0.64319 0.28558 0.0
C3096 C 0.3139 0.6506 0.26595 0.0
C3097 C 0.3222 0.66857 0.26026 0.0
C3098 C 0.31834 0.67575 0.24197 0.0
C3099 C 0.30628 0.66504 0.22918 0.0
C3100 C 0.29813 0.64707 0.23463 0.0
C3101 C 0.30194 0.63982 0.25292 0.0
H3102 H 0.30328 0.67064 0.21503 0.0
H3103 H 0.33637 0.60102 0.3937 0.0
H3104 H 0.45676 0.72306 0.59914 0.0
H3105 H 0.46326 0.69015 0.5853 0.0
H3106 H 0.50174 0.68033 0.63256 0.0
H3107 H 0.49621 0.71373 0.64562 0.0
H3108 H 0.51652 0.66557 0.60256 0.0
H3109 H 0.45302 0.65911 0.6291 0.0
H3110 H 0.41916 0.66658 0.6337 0.0
H3111 H 0.40927 0.65723 0.57264 0.0
H3112 H 0.44307 0.64957 0.56771 0.0
H3113 H 0.48439 0.55538 0.58461 0.0
H3114 H 0.47998 0.58847 0.59902 0.0
H3115 H 0.51418 0.6135 0.55382 0.0
H3116 H 0.51889 0.58054 0.53944 0.0
H3117 H 0.46317 0.61976 0.58357 0.0
H3118 H 0.53776 0.64908 0.56874 0.0
H3119 H 0.5708 0.63748 0.56838 0.0
H3120 H 0.55736 0.59774 0.61377 0.0
H3121 H 0.52422 0.60895 0.61418 0.0
C3122 C 0.46665 0.71384 0.60648 0.0
C3123 C 0.47599 0.72084 0.62341 0.0
C3124 C 0.47026 0.69498 0.59867 0.0
C3125 C 0.4827 0.6825 0.60808 0.0
C3126 C 0.49211 0.68962 0.62497 0.0
C3127 C 0.48893 0.70868 0.63246 0.0
C3128 C 0.48599 0.66206 0.6004 0.0
C3129 C 0.50478 0.65563 0.59846 0.0
C3130 C 0.47079 0.64881 0.59518 0.0
C3131 C 0.45058 0.65391 0.59803 0.0
C3132 C 0.44364 0.65877 0.61665 0.0
C3133 C 0.42445 0.66297 0.61932 0.0
C3134 C 0.41207 0.66241 0.60346 0.0
C3135 C 0.41886 0.65764 0.5849 0.0
C3136 C 0.43802 0.6533 0.58218 0.0
C3137 C 0.49106 0.5679 0.57777 0.0
C3138 C 0.50199 0.56529 0.56085 0.0
C3139 C 0.48851 0.5868 0.58603 0.0
C3140 C 0.49688 0.6034 0.57758 0.0
C3141 C 0.50786 0.60085 0.56076 0.0
C3142 C 0.51046 0.58198 0.55251 0.0
C3143 C 0.49354 0.62347 0.5859 0.0
C3144 C 0.4748 0.62982 0.58776 0.0
C3145 C 0.50869 0.63641 0.59159 0.0
C3146 C 0.52859 0.62982 0.59147 0.0
C3147 C 0.54191 0.63792 0.57867 0.0
C3148 C 0.56061 0.63135 0.5784 0.0
C3149 C 0.56617 0.61688 0.59104 0.0
C3150 C 0.55303 0.6089 0.60395 0.0
C3151 C 0.53428 0.61528 0.60414 0.0
H3152 H 0.58066 0.61186 0.59085 0.0
H3153 H 0.39721 0.66564 0.60556 0.0
H3154 H 0.54765 0.18579 0.83378 0.0
H3155 H 0.57594 0.19402 0.81489 0.0
H3156 H 0.58926 0.24265 0.85503 0.0
H3157 H 0.56106 0.23459 0.87401 0.0
H3158 H 0.58799 0.2535 0.81638 0.0
H3159 H 0.61572 0.20303 0.85476 0.0
H3160 H 0.61769 0.16969 0.86777 0.0
H3161 H 0.62137 0.14449 0.80996 0.0
H3162 H 0.61918 0.17767 0.79659 0.0
H3163 H 0.68256 0.28146 0.7947 0.0
H3164 H 0.65146 0.27192 0.80728 0.0
H3165 H 0.64884 0.22186 0.7668 0.0
H3166 H 0.6802 0.23104 0.75443 0.0
H3167 H 0.64258 0.21039 0.80207 0.0
H3168 H 0.61808 0.26053 0.76336 0.0
H3169 H 0.61587 0.29352 0.74965 0.0
H3170 H 0.60536 0.31903 0.80636 0.0
H3171 H 0.60775 0.28625 0.82048 0.0
C3172 C 0.5568 0.198 0.83882 0.0
C3173 C 0.55203 0.20966 0.85529 0.0
C3174 C 0.57292 0.20269 0.82798 0.0
C3175 C 0.58451 0.21904 0.8335 0.0
C3176 C 0.58033 0.23008 0.85047 0.0
C3177 C 0.56429 0.22536 0.86135 0.0
C3178 C 0.60047 0.22533 0.82112 0.0
C3179 C 0.60006 0.2442 0.81336 0.0
C3180 C 0.61572 0.21279 0.81661 0.0
C3181 C 0.61706 0.19283 0.82466 0.0
C3182 C 0.61677 0.19037 0.84481 0.0
C3183 C 0.61797 0.1715 0.85225 0.0
C3184 C 0.61959 0.15498 0.8397 0.0
C3185 C 0.62008 0.1573 0.81967 0.0
C3186 C 0.61888 0.17613 0.81215 0.0
C3187 C 0.67522 0.26865 0.7882 0.0
C3188 C 0.68395 0.25684 0.77377 0.0
C3189 C 0.65737 0.26326 0.79533 0.0
C3190 C 0.64781 0.24618 0.78795 0.0
C3191 C 0.65602 0.23504 0.77276 0.0
C3192 C 0.67394 0.24031 0.76572 0.0
C3193 C 0.6304 0.23882 0.79759 0.0
C3194 C 0.63046 0.21968 0.80482 0.0
C3195 C 0.61475 0.25108 0.80146 0.0
C3196 C 0.61325 0.27089 0.79302 0.0
C3197 C 0.61544 0.27319 0.77295 0.0
C3198 C 0.61413 0.29186 0.76509 0.0
C3199 C 0.61052 0.30837 0.77713 0.0
C3200 C 0.60816 0.30623 0.79705 0.0
C3201 C 0.60947 0.28759 0.80498 0.0
H3202 H 0.60951 0.32281 0.77102 0.0
H3203 H 0.62052 0.14039 0.84549 0.0
H3204 H 0.96258 0.31745 0.10674 0.0
H3205 H 0.96548 0.33746 0.07795 0.0
H3206 H 0.0238 0.31992 0.07128 0.0
H3207 H 0.02075 0.29958 0.09895 0.0
H3208 H 0.98519 0.36771 0.07959 0.0
H3209 H 0.04501 0.32852 0.03214 0.0
H3210 H 0.04885 0.29662 0.01449 0.0
H3211 H 0.9884 0.28686 0.01413 0.0
H3212 H 0.9841 0.31883 0.03156 0.0
H3213 H 0.05328 0.43626 0.06901 0.0
H3214 H 0.04182 0.40246 0.0736 0.0
H3215 H 0.02758 0.3962 0.01289 0.0
H3216 H 0.04003 0.42939 0.00789 0.0
H3217 H 0.03236 0.36101 0.02653 0.0
H3218 H 0.99618 0.41692 0.04385 0.0
H3219 H 0.98984 0.4495 0.05936 0.0
H3220 H 0.99697 0.42551 0.11556 0.0
H3221 H 0.00385 0.39293 0.10041 0.0
C3222 C 0.97583 0.31751 0.09876 0.0
C3223 C 0.99165 0.30754 0.10556 0.0
C3224 C 0.97742 0.3288 0.08221 0.0
C3225 C 0.99489 0.33035 0.07237 0.0
C3226 C 0.01003 0.31883 0.07819 0.0
C3227 C 0.00839 0.30749 0.09447 0.0
C3228 C -0.00076 0.34729 0.05994 0.0
C3229 C 0.99516 0.36614 0.0677 0.0
C3230 C 0.01164 0.34551 0.04381 0.0
C3231 C 0.01422 0.3262 0.03321 0.0
C3232 C 0.03249 0.31971 0.02816 0.0
C3233 C 0.03476 0.30155 0.01824 0.0
C3234 C 0.01888 0.28972 0.01319 0.0
C3235 C 0.00069 0.29602 0.01808 0.0
C3236 C -0.00167 0.31415 0.02803 0.0
C3237 C 0.04852 0.42742 0.05648 0.0
C3238 C 0.0467 0.4358 0.03829 0.0
C3239 C 0.04185 0.40814 0.05913 0.0
C3240 C 0.03291 0.39735 0.04376 0.0
C3241 C 0.03395 0.4045 0.02503 0.0
C3242 C 0.04101 0.42357 0.02227 0.0
C3243 C 0.01982 0.38065 0.04787 0.0
C3244 C 0.02204 0.3623 0.03813 0.0
C3245 C 0.00517 0.38291 0.06176 0.0
C3246 C 0.0006 0.40245 0.07096 0.0
C3247 C 0.99648 0.4186 0.05951 0.0
C3248 C 0.99283 0.43708 0.06824 0.0
C3249 C 0.99303 0.43955 0.08842 0.0
C3250 C 0.99684 0.42356 0.09992 0.0
C3251 C 0.00062 0.40509 0.09127 0.0
H3252 H 0.99023 0.45382 0.09519 0.0
H3253 H 0.02067 0.27567 0.00551 0.0
H3254 H 0.93436 0.76221 0.37087 0.0
H3255 H 0.91377 0.78513 0.35493 0.0
H3256 H 0.9262 0.7567 0.29953 0.0
H3257 H 0.94775 0.7346 0.31536 0.0
H3258 H 0.92481 0.79506 0.29533 0.0
H3259 H 0.88578 0.74548 0.32762 0.0
H3260 H 0.87479 0.7278 0.35632 0.0
H3261 H 0.85693 0.78247 0.38312 0.0
H3262 H 0.86822 0.80054 0.35471 0.0
H3263 H 0.84372 0.77173 0.24352 0.0
H3264 H 0.87385 0.78166 0.25856 0.0
H3265 H 0.84535 0.82448 0.29531 0.0
H3266 H 0.81509 0.81461 0.28031 0.0
H3267 H 0.85703 0.79326 0.31464 0.0
H3268 H 0.88615 0.83898 0.27394 0.0
H3269 H 0.8961 0.85397 0.24344 0.0
H3270 H 0.93067 0.80404 0.2296 0.0
H3271 H 0.92076 0.78858 0.25985 0.0
C3272 C 0.9326 0.76074 0.35535 0.0
C3273 C 0.94244 0.74644 0.34438 0.0
C3274 C 0.92094 0.77398 0.34622 0.0
C3275 C 0.91838 0.77261 0.32603 0.0
C3276 C 0.92811 0.75821 0.3151 0.0
C3277 C 0.94015 0.74536 0.32417 0.0
C3278 C 0.90441 0.78491 0.31626 0.0
C3279 C 0.90996 0.79477 0.29949 0.0
C3280 C 0.88521 0.78528 0.32225 0.0
C3281 C 0.87811 0.7744 0.33919 0.0
C3282 C 0.87965 0.75375 0.3397 0.0
C3283 C 0.87343 0.74367 0.35593 0.0
C3284 C 0.86527 0.75402 0.37158 0.0
C3285 C 0.86332 0.77448 0.37102 0.0
C3286 C 0.86967 0.78466 0.35488 0.0
C3287 C 0.84395 0.78389 0.25415 0.0
C3288 C 0.82699 0.79176 0.26138 0.0
C3289 C 0.86127 0.78974 0.26264 0.0
C3290 C 0.86176 0.80352 0.27837 0.0
C3291 C 0.84523 0.81368 0.28333 0.0
C3292 C 0.82793 0.80784 0.27487 0.0
C3293 C 0.87712 0.80218 0.29281 0.0
C3294 C 0.87193 0.79439 0.31071 0.0
C3295 C 0.89649 0.80333 0.28754 0.0
C3296 C 0.90267 0.81259 0.26927 0.0
C3297 C 0.8958 0.83112 0.26437 0.0
C3298 C 0.90145 0.83972 0.24711 0.0
C3299 C 0.91401 0.82996 0.23459 0.0
C3300 C 0.92097 0.8116 0.23933 0.0
C3301 C 0.91538 0.80293 0.25658 0.0
H3302 H 0.91835 0.83663 0.22123 0.0
H3303 H 0.86037 0.74617 0.38409 0.0
H3304 H 0.52511 0.27829 0.90151 0.0
H3305 H 0.53603 0.30968 0.91674 0.0
H3306 H 0.48368 0.33648 0.9005 0.0
H3307 H 0.47241 0.30499 0.88572 0.0
H3308 H 0.51965 0.36253 0.90163 0.0
H3309 H 0.48054 0.31519 0.93889 0.0
H3310 H 0.47519 0.2817 0.95106 0.0
H3311 H 0.52937 0.28514 0.97967 0.0
H3312 H 0.53519 0.31853 0.96731 0.0
H3313 H 0.48402 0.43249 0.96513 0.0
H3314 H 0.48833 0.40226 0.94563 0.0
H3315 H 0.53295 0.38515 0.98398 0.0
H3316 H 0.52858 0.41543 0.00387 0.0
H3317 H 0.51018 0.35365 0.97216 0.0
H3318 H 0.54568 0.40413 0.94264 0.0
H3319 H 0.55235 0.4373 0.93034 0.0
H3320 H 0.50864 0.42809 0.88739 0.0
H3321 H 0.50147 0.39497 0.89962 0.0
C3322 C 0.51626 0.29108 0.90047 0.0
C3323 C 0.4978 0.28923 0.89275 0.0
C3324 C 0.52253 0.30897 0.90919 0.0
C3325 C 0.51053 0.3252 0.90989 0.0
C3326 C 0.49309 0.32404 0.90005 0.0
C3327 C 0.48664 0.30606 0.89171 0.0
C3328 C 0.51411 0.34176 0.92391 0.0
C3329 C 0.5177 0.36069 0.91706 0.0
C3330 C 0.51217 0.33904 0.94406 0.0
C3331 C 0.5084 0.31924 0.95198 0.0
C3332 C 0.49137 0.30874 0.94766 0.0
C3333 C 0.48824 0.28979 0.95459 0.0
C3334 C 0.50196 0.28127 0.96608 0.0
C3335 C 0.51878 0.29174 0.97073 0.0
C3336 C 0.52201 0.31067 0.96376 0.0
C3337 C 0.49461 0.42222 0.96959 0.0
C3338 C 0.50613 0.42648 0.9859 0.0
C3339 C 0.49713 0.405 0.95837 0.0
C3340 C 0.51133 0.3918 0.96308 0.0
C3341 C 0.52208 0.39532 0.98001 0.0
C3342 C 0.5195 0.41258 0.99137 0.0
C3343 C 0.515 0.37467 0.94985 0.0
C3344 C 0.51274 0.35558 0.95684 0.0
C3345 C 0.51853 0.37723 0.92986 0.0
C3346 C 0.52297 0.39705 0.92214 0.0
C3347 C 0.53741 0.4092 0.93064 0.0
C3348 C 0.54128 0.428 0.92367 0.0
C3349 C 0.53091 0.43481 0.90811 0.0
C3350 C 0.51667 0.42279 0.89944 0.0
C3351 C 0.51271 0.40398 0.90637 0.0
H3352 H 0.53391 0.44938 0.90276 0.0
H3353 H 0.49952 0.26658 0.97142 0.0
H3354 H 0.99055 0.22241 0.18423 0.0
H3355 H 0.95982 0.20685 0.1919 0.0
H3356 H 0.93959 0.26301 0.21358 0.0
H3357 H 0.96997 0.27883 0.2052 0.0
H3358 H 0.93585 0.20797 0.22866 0.0
H3359 H 0.91417 0.2707 0.19192 0.0
H3360 H 0.91862 0.2916 0.16361 0.0
H3361 H 0.92179 0.23972 0.12622 0.0
H3362 H 0.91764 0.21857 0.15442 0.0
H3363 H 0.84157 0.22327 0.25376 0.0
H3364 H 0.87495 0.22033 0.2461 0.0
H3365 H 0.86051 0.19756 0.18863 0.0
H3366 H 0.82662 0.20111 0.19615 0.0
H3367 H 0.8832 0.22799 0.18634 0.0
H3368 H 0.88634 0.16958 0.22188 0.0
H3369 H 0.88057 0.14745 0.24897 0.0
H3370 H 0.91197 0.18741 0.28733 0.0
H3371 H 0.91774 0.20991 0.26056 0.0
C3372 C 0.97976 0.23132 0.1912 0.0
C3373 C 0.98256 0.25185 0.19409 0.0
C3374 C 0.96216 0.22245 0.19535 0.0
C3375 C 0.9473 0.23397 0.20262 0.0
C3376 C 0.95071 0.25406 0.2073 0.0
C3377 C 0.96814 0.263 0.20284 0.0
C3378 C 0.92797 0.22533 0.20458 0.0
C3379 C 0.92425 0.21226 0.21948 0.0
C3380 C 0.91311 0.23037 0.19205 0.0
C3381 C 0.91629 0.2431 0.17531 0.0
C3382 C 0.91621 0.26378 0.17771 0.0
C3383 C 0.91854 0.27567 0.16168 0.0
C3384 C 0.92061 0.267 0.14314 0.0
C3385 C 0.92028 0.24642 0.14059 0.0
C3386 C 0.91806 0.2345 0.15661 0.0
C3387 C 0.84541 0.21721 0.2396 0.0
C3388 C 0.83146 0.21277 0.22542 0.0
C3389 C 0.8646 0.21528 0.23531 0.0
C3390 C 0.87035 0.20863 0.2168 0.0
C3391 C 0.8564 0.20271 0.20303 0.0
C3392 C 0.83705 0.20468 0.20734 0.0
C3393 C 0.89059 0.21125 0.21118 0.0
C3394 C 0.89466 0.2232 0.19543 0.0
C3395 C 0.9057 0.20509 0.22298 0.0
C3396 C 0.90242 0.19149 0.23916 0.0
C3397 C 0.89194 0.17372 0.2361 0.0
C3398 C 0.88868 0.16109 0.25141 0.0
C3399 C 0.89589 0.16603 0.26986 0.0
C3400 C 0.90641 0.18359 0.27302 0.0
C3401 C 0.90972 0.19626 0.25777 0.0
H3402 H 0.89333 0.15625 0.28169 0.0
H3403 H 0.92241 0.27622 0.13075 0.0
H3404 H 0.97154 0.73107 0.45666 0.0
H3405 H 0.98432 0.71595 0.48548 0.0
H3406 H 0.02686 0.68744 0.44982 0.0
H3407 H 0.01509 0.70319 0.42183 0.0
H3408 H 0.97982 0.68114 0.49022 0.0
H3409 H 0.0605 0.66617 0.4685 0.0
H3410 H 0.08927 0.68631 0.46249 0.0
H3411 H 0.06452 0.73619 0.49216 0.0
H3412 H 0.03565 0.7163 0.49872 0.0
H3413 H 0.99139 0.58642 0.46975 0.0
H3414 H 0.99571 0.62224 0.46903 0.0
H3415 H 0.03271 0.62156 0.51882 0.0
H3416 H 0.02905 0.58546 0.51913 0.0
H3417 H 0.04321 0.65101 0.49374 0.0
H3418 H 0.989 0.63272 0.52845 0.0
H3419 H 0.96048 0.61251 0.53572 0.0
H3420 H 0.93337 0.63184 0.48426 0.0
H3421 H 0.96182 0.6519 0.47647 0.0
C3422 C 0.98397 0.72202 0.45519 0.0
C3423 C 0.99189 0.71779 0.43685 0.0
C3424 C 0.99138 0.7135 0.4717 0.0
C3425 C 0.00658 0.70036 0.47003 0.0
C3426 C 0.01549 0.69778 0.45194 0.0
C3427 C 0.00838 0.70654 0.43565 0.0
C3428 C 0.00988 0.68548 0.48496 0.0
C3429 C 0.99381 0.67495 0.49146 0.0
C3430 C 0.02817 0.67769 0.48789 0.0
C3431 C 0.04581 0.68961 0.48423 0.0
C3432 C 0.06121 0.68133 0.47403 0.0
C3433 C 0.07755 0.69276 0.47043 0.0
C3434 C 0.07873 0.7125 0.47695 0.0
C3435 C 0.06358 0.72088 0.4871 0.0
C3436 C 0.0472 0.70954 0.49074 0.0
C3437 C 0.0008 0.59384 0.48023 0.0
C3438 C 0.00964 0.58328 0.49464 0.0
C3439 C 0.00322 0.61427 0.47989 0.0
C3440 C 0.01401 0.62452 0.4943 0.0
C3441 C 0.02415 0.6139 0.50775 0.0
C3442 C 0.02206 0.59332 0.50785 0.0
C3443 C 0.01301 0.64628 0.49591 0.0
C3444 C 0.02948 0.65787 0.49314 0.0
C3445 C 0.99515 0.65536 0.49695 0.0
C3446 C 0.97757 0.64396 0.50194 0.0
C3447 C 0.97696 0.6327 0.51868 0.0
C3448 C 0.96081 0.62122 0.52287 0.0
C3449 C 0.94511 0.62092 0.51048 0.0
C3450 C 0.94552 0.63214 0.49388 0.0
C3451 C 0.96164 0.64363 0.48961 0.0
H3452 H 0.93263 0.612 0.51373 0.0
H3453 H 0.09138 0.72132 0.47412 0.0
H3454 H 0.55269 0.75077 0.68873 0.0
H3455 H 0.58626 0.75869 0.69483 0.0
H3456 H 0.58798 0.79519 0.64494 0.0
H3457 H 0.55414 0.78777 0.63903 0.0
H3458 H 0.62145 0.7629 0.65596 0.0
H3459 H 0.5874 0.82296 0.67426 0.0
H3460 H 0.56074 0.84038 0.68986 0.0
H3461 H 0.57471 0.81581 0.7444 0.0
H3462 H 0.60127 0.79797 0.72903 0.0
H3463 H 0.71139 0.79673 0.69006 0.0
H3464 H 0.6802 0.80123 0.67535 0.0
H3465 H 0.65298 0.78295 0.72796 0.0
H3466 H 0.68392 0.77854 0.74277 0.0
H3467 H 0.63301 0.81166 0.71041 0.0
H3468 H 0.66196 0.74902 0.69415 0.0
H3469 H 0.68791 0.72842 0.68148 0.0
H3470 H 0.68299 0.75435 0.62589 0.0
H3471 H 0.65713 0.77533 0.63835 0.0
C3472 C 0.56026 0.7602 0.67884 0.0
C3473 C 0.55081 0.76881 0.66347 0.0
C3474 C 0.5794 0.76472 0.68238 0.0
C3475 C 0.58939 0.77762 0.67041 0.0
C3476 C 0.58038 0.78525 0.65432 0.0
C3477 C 0.56112 0.78102 0.65099 0.0
C3478 C 0.60884 0.78407 0.67578 0.0
C3479 C 0.62412 0.77398 0.66744 0.0
C3480 C 0.61206 0.79812 0.69112 0.0
C3481 C 0.59621 0.80898 0.70044 0.0
C3482 C 0.58467 0.82111 0.68953 0.0
C3483 C 0.5696 0.8311 0.69834 0.0
C3484 C 0.56601 0.82916 0.7181 0.0
C3485 C 0.5775 0.81728 0.72909 0.0
C3486 C 0.59257 0.80724 0.72034 0.0
C3487 C 0.69876 0.79412 0.69864 0.0
C3488 C 0.70008 0.78686 0.71742 0.0
C3489 C 0.68098 0.7967 0.69021 0.0
C3490 C 0.66435 0.79212 0.70049 0.0
C3491 C 0.66567 0.78652 0.71978 0.0
C3492 C 0.68337 0.78383 0.72816 0.0
C3493 C 0.64574 0.79048 0.69062 0.0
C3494 C 0.63053 0.80121 0.69833 0.0
C3495 C 0.64254 0.77677 0.6749 0.0
C3496 C 0.65778 0.7639 0.66723 0.0
C3497 C 0.66649 0.75041 0.67925 0.0
C3498 C 0.68117 0.73866 0.67211 0.0
C3499 C 0.68714 0.74012 0.65291 0.0
C3500 C 0.67837 0.75327 0.64078 0.0
C3501 C 0.6637 0.76509 0.64787 0.0
H3502 H 0.69853 0.73103 0.64741 0.0
H3503 H 0.55435 0.83691 0.7249 0.0
H3504 H 0.65652 0.49533 0.69229 0.0
H3505 H 0.63476 0.49473 0.66468 0.0
H3506 H 0.60221 0.54071 0.69261 0.0
H3507 H 0.62431 0.54216 0.7198 0.0
H3508 H 0.58633 0.49643 0.68671 0.0
H3509 H 0.6076 0.55449 0.65747 0.0
H3510 H 0.63014 0.57884 0.6442 0.0
H3511 H 0.64622 0.53667 0.59961 0.0
H3512 H 0.62397 0.51188 0.61285 0.0
H3513 H 0.51344 0.49332 0.61101 0.0
H3514 H 0.53481 0.5012 0.63824 0.0
H3515 H 0.57926 0.46875 0.60945 0.0
H3516 H 0.55808 0.46059 0.58227 0.0
H3517 H 0.58675 0.51087 0.6168 0.0
H3518 H 0.56384 0.45238 0.64943 0.0
H3519 H 0.53919 0.4309 0.66367 0.0
H3520 H 0.52323 0.4783 0.70287 0.0
H3521 H 0.54764 0.50016 0.68869 0.0
C3522 C 0.64531 0.50599 0.69215 0.0
C3523 C 0.64177 0.51828 0.70851 0.0
C3524 C 0.63286 0.50561 0.67638 0.0
C3525 C 0.61677 0.51744 0.67689 0.0
C3526 C 0.61455 0.53145 0.69206 0.0
C3527 C 0.62723 0.53218 0.7076 0.0
C3528 C 0.60064 0.51204 0.66406 0.0
C3529 C 0.58617 0.49985 0.67147 0.0
C3530 C 0.60063 0.51657 0.6443 0.0
C3531 C 0.61436 0.53118 0.6364 0.0
C3532 C 0.61616 0.55027 0.64503 0.0
C3533 C 0.62882 0.56419 0.63746 0.0
C3534 C 0.63968 0.55927 0.62115 0.0
C3535 C 0.63784 0.54043 0.6123 0.0
C3536 C 0.6252 0.52643 0.61984 0.0
C3537 C 0.52753 0.48723 0.61075 0.0
C3538 C 0.53422 0.47679 0.5942 0.0
C3539 C 0.53973 0.49182 0.62632 0.0
C3540 C 0.55868 0.48593 0.62553 0.0
C3541 C 0.56472 0.47364 0.6101 0.0
C3542 C 0.55252 0.4689 0.59463 0.0
C3543 C 0.57281 0.49465 0.6393 0.0
C3544 C 0.58684 0.50754 0.63206 0.0
C3545 C 0.57213 0.49114 0.65933 0.0
C3546 C 0.55742 0.47799 0.66782 0.0
C3547 C 0.55494 0.4583 0.66094 0.0
C3548 C 0.54105 0.44603 0.66905 0.0
C3549 C 0.5296 0.45325 0.68412 0.0
C3550 C 0.53208 0.47274 0.69117 0.0
C3551 C 0.54596 0.48507 0.68311 0.0
H3552 H 0.51886 0.44373 0.69037 0.0
H3553 H 0.64948 0.5701 0.61537 0.0
H3554 H 0.82538 0.35598 0.97163 0.0
H3555 H 0.81843 0.34146 0.93948 0.0
H3556 H 0.77079 0.37987 0.93427 0.0
H3557 H 0.77732 0.39414 0.96666 0.0
H3558 H 0.7615 0.34353 0.92176 0.0
H3559 H 0.81358 0.38899 0.91121 0.0
H3560 H 0.84552 0.40367 0.91721 0.0
H3561 H 0.87071 0.34824 0.90154 0.0
H3562 H 0.83891 0.33311 0.89574 0.0
H3563 H 0.74742 0.3251 0.82097 0.0
H3564 H 0.75465 0.34193 0.85211 0.0
H3565 H 0.80167 0.30332 0.86019 0.0
H3566 H 0.79476 0.28661 0.82895 0.0
H3567 H 0.81116 0.34093 0.87079 0.0
H3568 H 0.75944 0.2952 0.88292 0.0
H3569 H 0.72761 0.27992 0.87787 0.0
H3570 H 0.70195 0.33569 0.89111 0.0
H3571 H 0.73366 0.35137 0.896 0.0
C3572 C 0.8134 0.36134 0.96367 0.0
C3573 C 0.80193 0.37626 0.9717 0.0
C3574 C 0.80951 0.35309 0.94524 0.0
C3575 C 0.79429 0.35982 0.93433 0.0
C3576 C 0.78264 0.3745 0.94241 0.0
C3577 C 0.78641 0.38264 0.96093 0.0
C3578 C 0.7904 0.35142 0.91456 0.0
C3579 C 0.77227 0.34325 0.91051 0.0
C3580 C 0.80461 0.35068 0.90004 0.0
C3581 C 0.82381 0.35987 0.90316 0.0
C3582 C 0.82591 0.37989 0.90913 0.0
C3583 C 0.844 0.3883 0.91248 0.0
C3584 C 0.86013 0.3769 0.90974 0.0
C3585 C 0.8582 0.35706 0.90363 0.0
C3586 C 0.84015 0.34856 0.90029 0.0
C3587 C 0.7593 0.32016 0.82937 0.0
C3588 C 0.77039 0.30435 0.82256 0.0
C3589 C 0.7634 0.3298 0.84717 0.0
C3590 C 0.77853 0.32369 0.8586 0.0
C3591 C 0.78991 0.30826 0.85162 0.0
C3592 C 0.78589 0.29868 0.83378 0.0
C3593 C 0.78227 0.33304 0.87803 0.0
C3594 C 0.80037 0.34135 0.88201 0.0
C3595 C 0.76805 0.33392 0.89252 0.0
C3596 C 0.74895 0.32451 0.88961 0.0
C3597 C 0.74702 0.30424 0.8846 0.0
C3598 C 0.72899 0.2955 0.8818 0.0
C3599 C 0.71277 0.30684 0.88411 0.0
C3600 C 0.71453 0.32693 0.88929 0.0
C3601 C 0.73253 0.33575 0.89209 0.0
H3602 H 0.69883 0.30004 0.88194 0.0
H3603 H 0.87411 0.38343 0.91237 0.0
H3604 H 0.91754 0.56064 0.22377 0.0
H3605 H 0.9342 0.55335 0.19365 0.0
H3606 H 0.89413 0.50567 0.18 0.0
H3607 H 0.8776 0.51257 0.21059 0.0
H3608 H 0.92842 0.49232 0.1783 0.0
H3609 H 0.89847 0.54658 0.15123 0.0
H3610 H 0.88658 0.58034 0.14864 0.0
H3611 H 0.94366 0.60393 0.15182 0.0
H3612 H 0.9559 0.57034 0.1547 0.0
H3613 H 0.97108 0.48704 0.0806 0.0
H3614 H 0.94931 0.49041 0.1081 0.0
H3615 H 0.99447 0.51712 0.14294 0.0
H3616 H 0.01659 0.51313 0.11558 0.0
H3617 H 0.95551 0.53938 0.13171 0.0
H3618 H 0.98386 0.48231 0.16059 0.0
H3619 H 0.99357 0.44754 0.15987 0.0
H3620 H 0.93581 0.42835 0.14943 0.0
H3621 H 0.92581 0.46304 0.14971 0.0
C3622 C 0.91192 0.54894 0.21415 0.0
C3623 C 0.8965 0.53691 0.21976 0.0
C3624 C 0.92144 0.54482 0.19683 0.0
C3625 C 0.91551 0.52885 0.1846 0.0
C3626 C 0.89906 0.51794 0.18933 0.0
C3627 C 0.88958 0.52197 0.20676 0.0
C3628 C 0.92789 0.5222 0.16837 0.0
C3629 C 0.93406 0.50257 0.1679 0.0
C3630 C 0.9354 0.53557 0.15489 0.0
C3631 C 0.9281 0.55589 0.15334 0.0
C3632 C 0.90849 0.55897 0.15155 0.0
C3633 C 0.90168 0.57808 0.14999 0.0
C3634 C 0.91435 0.59427 0.15011 0.0
C3635 C 0.93386 0.59137 0.15175 0.0
C3636 C 0.94074 0.57229 0.15331 0.0
C3637 C 0.97649 0.49308 0.09432 0.0
C3638 C 0.99543 0.49992 0.09604 0.0
C3639 C 0.96408 0.49494 0.10997 0.0
C3640 C 0.97035 0.50405 0.12739 0.0
C3641 C 0.9895 0.50994 0.12954 0.0
C3642 C 0.0021 0.50759 0.114 0.0
C3643 C 0.95629 0.50987 0.14219 0.0
C3644 C 0.94974 0.52927 0.14217 0.0
C3645 C 0.94813 0.49619 0.15488 0.0
C3646 C 0.95413 0.47531 0.15489 0.0
C3647 C 0.97326 0.4707 0.15789 0.0
C3648 C 0.97881 0.45099 0.15762 0.0
C3649 C 0.96533 0.43575 0.15452 0.0
C3650 C 0.94625 0.44017 0.15178 0.0
C3651 C 0.94064 0.45986 0.152 0.0
H3652 H 0.96965 0.4205 0.1543 0.0
H3653 H 0.90905 0.60905 0.14889 0.0
H3654 H 0.77628 0.66694 0.47212 0.0
H3655 H 0.7767 0.69378 0.44926 0.0
H3656 H 0.78819 0.65178 0.40242 0.0
H3657 H 0.78861 0.62508 0.42552 0.0
H3658 H 0.80388 0.68647 0.39466 0.0
H3659 H 0.74275 0.66224 0.4161 0.0
H3660 H 0.71849 0.65418 0.44054 0.0
H3661 H 0.71696 0.71525 0.45933 0.0
H3662 H 0.74147 0.72362 0.4352 0.0
H3663 H 0.7369 0.71535 0.3212 0.0
H3664 H 0.74123 0.70253 0.35342 0.0
H3665 H 0.78055 0.75053 0.36787 0.0
H3666 H 0.77647 0.76351 0.33556 0.0
H3667 H 0.74068 0.71766 0.3945 0.0
H3668 H 0.8152 0.73186 0.37542 0.0
H3669 H 0.83472 0.73583 0.34597 0.0
H3670 H 0.80404 0.68759 0.31742 0.0
H3671 H 0.78403 0.68381 0.34647 0.0
C3672 C 0.77957 0.66366 0.45703 0.0
C3673 C 0.78233 0.64413 0.45039 0.0
C3674 C 0.77973 0.67892 0.444 0.0
C3675 C 0.78198 0.67469 0.42409 0.0
C3676 C 0.78636 0.65536 0.41772 0.0
C3677 C 0.78658 0.64013 0.43085 0.0
C3678 C 0.7772 0.68955 0.40974 0.0
C3679 C 0.79023 0.6936 0.39494 0.0
C3680 C 0.75912 0.69846 0.40971 0.0
C3681 C 0.74411 0.69352 0.424 0.0
C3682 C 0.73732 0.67393 0.42552 0.0
C3683 C 0.72353 0.66931 0.43932 0.0
C3684 C 0.71623 0.68418 0.45152 0.0
C3685 C 0.72266 0.70373 0.4499 0.0
C3686 C 0.73651 0.70843 0.43617 0.0
C3687 C 0.74612 0.7235 0.33135 0.0
C3688 C 0.75667 0.74022 0.32565 0.0
C3689 C 0.74844 0.71622 0.34982 0.0
C3690 C 0.76131 0.72552 0.36287 0.0
C3691 C 0.77059 0.74316 0.35789 0.0
C3692 C 0.76829 0.75049 0.3394 0.0
C3693 C 0.76751 0.71479 0.3799 0.0
C3694 C 0.75465 0.71125 0.39492 0.0
C3695 C 0.78545 0.70588 0.3799 0.0
C3696 C 0.79835 0.70739 0.36309 0.0
C3697 C 0.81282 0.72198 0.36292 0.0
C3698 C 0.82389 0.72428 0.34628 0.0
C3699 C 0.82078 0.71186 0.32991 0.0
C3700 C 0.80652 0.69717 0.3301 0.0
C3701 C 0.79528 0.69498 0.34661 0.0
H3702 H 0.82935 0.71369 0.31705 0.0
H3703 H 0.70556 0.68057 0.4622 0.0
H3704 H 0.60197 0.48887 0.82503 0.0
H3705 H 0.58257 0.49994 0.85253 0.0
H3706 H 0.5653 0.55038 0.82101 0.0
H3707 H 0.58423 0.53914 0.79324 0.0
H3708 H 0.58861 0.53735 0.87212 0.0
H3709 H 0.53012 0.55862 0.83037 0.0
H3710 H 0.51035 0.55038 0.80147 0.0
H3711 H 0.50811 0.48939 0.81654 0.0
H3712 H 0.52801 0.49732 0.84541 0.0
H3713 H 0.53644 0.55227 0.95812 0.0
H3714 H 0.5464 0.56173 0.92565 0.0
H3715 H 0.52099 0.5077 0.90143 0.0
H3716 H 0.51035 0.49869 0.93342 0.0
H3717 H 0.51825 0.5348 0.87606 0.0
H3718 H 0.56924 0.51191 0.91854 0.0
H3719 H 0.5903 0.5146 0.94717 0.0
H3720 H 0.60924 0.57238 0.93082 0.0
H3721 H 0.58815 0.57007 0.90219 0.0
C3722 C 0.59382 0.50214 0.82386 0.0
C3723 C 0.59466 0.51317 0.80708 0.0
C3724 C 0.58279 0.50847 0.83954 0.0
C3725 C 0.57253 0.52595 0.83872 0.0
C3726 C 0.57288 0.5367 0.82179 0.0
C3727 C 0.58375 0.53026 0.80598 0.0
C3728 C 0.56246 0.5332 0.85618 0.0
C3729 C 0.57321 0.53734 0.87298 0.0
C3730 C 0.54246 0.53328 0.85713 0.0
C3731 C 0.53057 0.52852 0.83988 0.0
C3732 C 0.52541 0.54347 0.82745 0.0
C3733 C 0.51422 0.53885 0.81109 0.0
C3734 C 0.508 0.51936 0.80715 0.0
C3735 C 0.51296 0.50446 0.81958 0.0
C3736 C 0.52422 0.509 0.83591 0.0
C3737 C 0.53269 0.54264 0.94578 0.0
C3738 C 0.52295 0.52455 0.94834 0.0
C3739 C 0.53834 0.54808 0.92725 0.0
C3740 C 0.53478 0.53524 0.91116 0.0
C3741 C 0.52389 0.51789 0.91359 0.0
C3742 C 0.51794 0.51265 0.93197 0.0
C3743 C 0.54441 0.53801 0.89234 0.0
C3744 C 0.53362 0.53584 0.8752 0.0
C3745 C 0.56449 0.53945 0.8911 0.0
C3746 C 0.57694 0.54094 0.90843 0.0
C3747 C 0.5778 0.52523 0.92116 0.0
C3748 C 0.58975 0.52668 0.93735 0.0
C3749 C 0.60104 0.54368 0.94085 0.0
C3750 C 0.60044 0.55926 0.92813 0.0
C3751 C 0.58849 0.55789 0.91193 0.0
H3752 H 0.6103 0.54477 0.95339 0.0
H3753 H 0.49932 0.51582 0.7945 0.0
H3754 H 0.76074 0.37092 0.06175 0.0
H3755 H 0.74683 0.34425 0.08035 0.0
H3756 H 0.80007 0.31406 0.07836 0.0
H3757 H 0.81418 0.34065 0.0596 0.0
H3758 H 0.76781 0.28816 0.07344 0.0
H3759 H 0.79078 0.34136 0.11696 0.0
H3760 H 0.793 0.37599 0.12927 0.0
H3761 H 0.73278 0.37576 0.13912 0.0
H3762 H 0.73018 0.34118 0.12662 0.0
H3763 H 0.77299 0.23543 0.15984 0.0
H3764 H 0.77393 0.25287 0.1296 0.0
H3765 H 0.7219 0.28187 0.14523 0.0
H3766 H 0.72123 0.2649 0.17586 0.0
H3767 H 0.74839 0.30795 0.14029 0.0
H3768 H 0.72621 0.25244 0.10246 0.0
H3769 H 0.72397 0.21774 0.09046 0.0
H3770 H 0.78147 0.22141 0.06997 0.0
H3771 H 0.78417 0.25606 0.08207 0.0
C3772 C 0.76953 0.35859 0.06515 0.0
C3773 C 0.78869 0.3581 0.05938 0.0
C3774 C 0.76149 0.3433 0.07572 0.0
C3775 C 0.77244 0.32723 0.08081 0.0
C3776 C 0.79136 0.3263 0.07451 0.0
C3777 C 0.79944 0.34162 0.06394 0.0
C3778 C 0.76472 0.31238 0.09418 0.0
C3779 C 0.7636 0.29236 0.08811 0.0
C3780 C 0.7587 0.31803 0.11306 0.0
C3781 C 0.76025 0.33878 0.12064 0.0
C3782 C 0.77799 0.34876 0.1216 0.0
C3783 C 0.77932 0.36835 0.12864 0.0
C3784 C 0.76303 0.37809 0.13491 0.0
C3785 C 0.74538 0.36822 0.13422 0.0
C3786 C 0.74397 0.34862 0.12717 0.0
C3787 C 0.76138 0.24499 0.15657 0.0
C3788 C 0.74727 0.24913 0.17046 0.0
C3789 C 0.76187 0.25491 0.13915 0.0
C3790 C 0.74808 0.26888 0.13515 0.0
C3791 C 0.73282 0.27133 0.14807 0.0
C3792 C 0.73245 0.26161 0.16559 0.0
C3793 C 0.75159 0.28341 0.11981 0.0
C3794 C 0.75208 0.30354 0.12552 0.0
C3795 C 0.75694 0.27776 0.10064 0.0
C3796 C 0.75543 0.25687 0.09332 0.0
C3797 C 0.73844 0.24582 0.09554 0.0
C3798 C 0.73708 0.22616 0.08868 0.0
C3799 C 0.75258 0.21736 0.07949 0.0
C3800 C 0.76947 0.22824 0.0771 0.0
C3801 C 0.77091 0.24791 0.08392 0.0
H3802 H 0.7515 0.20214 0.0742 0.0
H3803 H 0.76409 0.39326 0.14036 0.0
H3804 H 0.9096 0.46715 0.29983 0.0
H3805 H 0.92678 0.44875 0.32422 0.0
H3806 H 0.95072 0.50372 0.34792 0.0
H3807 H 0.93347 0.52192 0.32383 0.0
H3808 H 0.97603 0.47075 0.34931 0.0
H3809 H 0.90818 0.48988 0.3699 0.0
H3810 H 0.87393 0.48777 0.36204 0.0
H3811 H 0.8777 0.42512 0.35137 0.0
H3812 H 0.91195 0.42691 0.35937 0.0
H3813 H 0.97082 0.51511 0.43796 0.0
H3814 H 0.96797 0.50076 0.40525 0.0
H3815 H 0.95322 0.44401 0.42816 0.0
H3816 H 0.95623 0.45828 0.46125 0.0
H3817 H 0.92817 0.45658 0.4 0.0
H3818 H 0.99349 0.44539 0.40415 0.0
H3819 H 0.02709 0.45176 0.41284 0.0
H3820 H 0.02927 0.50138 0.37586 0.0
H3821 H 0.99564 0.49555 0.36715 0.0
C3822 C 0.91899 0.47509 0.30999 0.0
C3823 C 0.92033 0.4958 0.31026 0.0
C3824 C 0.9288 0.46463 0.32378 0.0
C3825 C 0.94003 0.4749 0.33779 0.0
C3826 C 0.94232 0.49552 0.33706 0.0
C3827 C 0.93238 0.50592 0.32348 0.0
C3828 C 0.94647 0.46538 0.35544 0.0
C3829 C 0.96577 0.46706 0.3604 0.0
C3830 C 0.93306 0.4598 0.36958 0.0
C3831 C 0.91249 0.45852 0.36521 0.0
C3832 C 0.90163 0.47567 0.36595 0.0
C3833 C 0.88226 0.47453 0.36145 0.0
C3834 C 0.87366 0.45633 0.35614 0.0
C3835 C 0.88439 0.4392 0.35547 0.0
C3836 C 0.90376 0.44026 0.36004 0.0
C3837 C 0.96694 0.49959 0.43613 0.0
C3838 C 0.96364 0.48788 0.45221 0.0
C3839 C 0.96563 0.49132 0.41741 0.0
C3840 C 0.96088 0.47121 0.41434 0.0
C3841 C 0.95726 0.45947 0.43029 0.0
C3842 C 0.95882 0.4677 0.44913 0.0
C3843 C 0.95762 0.46357 0.39428 0.0
C3844 C 0.93884 0.45871 0.38888 0.0
C3845 C 0.97159 0.46627 0.3798 0.0
C3846 C 0.99195 0.46994 0.38492 0.0
C3847 C 0.00108 0.45771 0.39791 0.0
C3848 C 0.02016 0.46123 0.40285 0.0
C3849 C 0.03031 0.47694 0.39489 0.0
C3850 C 0.0214 0.48917 0.38197 0.0
C3851 C 0.00233 0.48572 0.37698 0.0
H3852 H 0.04507 0.47965 0.39873 0.0
H3853 H 0.85868 0.4555 0.35259 0.0
H3854 H 0.80947 0.63155 0.54341 0.0
H3855 H 0.81262 0.6538 0.57219 0.0
H3856 H 0.75282 0.66598 0.56924 0.0
H3857 H 0.74961 0.64433 0.54065 0.0
H3858 H 0.77273 0.69917 0.57517 0.0
H3859 H 0.77036 0.63423 0.60171 0.0
H3860 H 0.78095 0.60015 0.60569 0.0
H3861 H 0.83555 0.62228 0.62525 0.0
H3862 H 0.82537 0.65651 0.62111 0.0
H3863 H 0.75007 0.73974 0.66764 0.0
H3864 H 0.75277 0.72023 0.63737 0.0
H3865 H 0.81127 0.70845 0.65087 0.0
H3866 H 0.80798 0.72668 0.68197 0.0
H3867 H 0.79568 0.6765 0.63835 0.0
H3868 H 0.79542 0.74281 0.61386 0.0
H3869 H 0.78245 0.7761 0.61075 0.0
H3870 H 0.73034 0.75057 0.58798 0.0
H3871 H 0.74292 0.71714 0.59109 0.0
C3872 C 0.79703 0.63901 0.54891 0.0
C3873 C 0.77933 0.63622 0.53964 0.0
C3874 C 0.79883 0.65166 0.56536 0.0
C3875 C 0.78293 0.66153 0.57285 0.0
C3876 C 0.76531 0.65866 0.56364 0.0
C3877 C 0.76352 0.64618 0.54727 0.0
C3878 C 0.78428 0.6749 0.59031 0.0
C3879 C 0.77772 0.69423 0.58902 0.0
C3880 C 0.79107 0.66851 0.60827 0.0
C3881 C 0.79718 0.64793 0.61086 0.0
C3882 C 0.78468 0.63183 0.6067 0.0
C3883 C 0.7906 0.61248 0.60901 0.0
C3884 C 0.80893 0.60905 0.61565 0.0
C3885 C 0.82137 0.62496 0.62006 0.0
C3886 C 0.81553 0.64434 0.61774 0.0
C3887 C 0.76357 0.73321 0.66395 0.0
C3888 C 0.77889 0.7348 0.67693 0.0
C3889 C 0.76517 0.72214 0.64659 0.0
C3890 C 0.78239 0.7132 0.64151 0.0
C3891 C 0.79785 0.71522 0.65438 0.0
C3892 C 0.79603 0.72572 0.67206 0.0
C3893 C 0.78397 0.70085 0.62332 0.0
C3894 C 0.79105 0.68166 0.62446 0.0
C3895 C 0.77744 0.7073 0.60523 0.0
C3896 C 0.77011 0.72746 0.60279 0.0
C3897 C 0.78119 0.7443 0.60821 0.0
C3898 C 0.7739 0.76319 0.60645 0.0
C3899 C 0.75558 0.76544 0.5992 0.0
C3900 C 0.74453 0.74881 0.59358 0.0
C3901 C 0.75176 0.72989 0.59529 0.0
H3902 H 0.74994 0.78008 0.59791 0.0
H3903 H 0.81349 0.59406 0.61743 0.0
H3904 H 0.67558 0.61865 0.519 0.0
H3905 H 0.66051 0.5861 0.52139 0.0
H3906 H 0.69966 0.56216 0.47903 0.0
H3907 H 0.71421 0.59514 0.47591 0.0
H3908 H 0.66577 0.54972 0.47054 0.0
H3909 H 0.70196 0.54668 0.52675 0.0
H3910 H 0.71786 0.55881 0.55684 0.0
H3911 H 0.66368 0.56881 0.58345 0.0
H3912 H 0.64741 0.55679 0.55359 0.0
H3913 H 0.59131 0.484 0.52821 0.0
H3914 H 0.62485 0.49243 0.52201 0.0
H3915 H 0.60767 0.54175 0.48876 0.0
H3916 H 0.57455 0.53347 0.49472 0.0
H3917 H 0.64328 0.5256 0.53376 0.0
H3918 H 0.63545 0.5512 0.45333 0.0
H3919 H 0.62067 0.53813 0.42302 0.0
H3920 H 0.62175 0.47927 0.44403 0.0
H3921 H 0.63681 0.49189 0.47438 0.0
C3922 C 0.68105 0.60642 0.5103 0.0
C3923 C 0.69631 0.60927 0.49761 0.0
C3924 C 0.67263 0.58774 0.51187 0.0
C3925 C 0.67936 0.5715 0.50086 0.0
C3926 C 0.6945 0.57437 0.48797 0.0
C3927 C 0.70289 0.59316 0.48632 0.0
C3928 C 0.669 0.55225 0.50157 0.0
C3929 C 0.66112 0.54411 0.48431 0.0
C3930 C 0.66381 0.54413 0.51948 0.0
C3931 C 0.67344 0.55072 0.53787 0.0
C3932 C 0.69341 0.55141 0.53903 0.0
C3933 C 0.7025 0.55826 0.55608 0.0
C3934 C 0.69178 0.56448 0.5721 0.0
C3935 C 0.67196 0.56381 0.57111 0.0
C3936 C 0.66279 0.5569 0.55414 0.0
C3937 C 0.59475 0.49643 0.5193 0.0
C3938 C 0.58029 0.50819 0.51208 0.0
C3939 C 0.61388 0.50119 0.51577 0.0
C3940 C 0.61876 0.51752 0.50467 0.0
C3941 C 0.60428 0.5288 0.49698 0.0
C3942 C 0.5853 0.52419 0.50061 0.0
C3943 C 0.63868 0.52472 0.50287 0.0
C3944 C 0.64851 0.5305 0.51992 0.0
C3945 C 0.64605 0.53022 0.48472 0.0
C3946 C 0.63733 0.52253 0.46621 0.0
C3947 C 0.63275 0.53543 0.45145 0.0
C3948 C 0.62425 0.52811 0.43426 0.0
C3949 C 0.62027 0.50789 0.4316 0.0
C3950 C 0.62481 0.49494 0.44611 0.0
C3951 C 0.63332 0.50218 0.46333 0.0
H3952 H 0.61365 0.50226 0.4183 0.0
H3953 H 0.69882 0.56987 0.58525 0.0
H3954 H 0.2246 0.91277 0.52418 0.0
H3955 H 0.19099 0.92125 0.52429 0.0
H3956 H 0.20391 0.97195 0.49019 0.0
H3957 H 0.23753 0.96337 0.48967 0.0
H3958 H 0.18342 0.97979 0.52567 0.0
H3959 H 0.18053 0.93799 0.46862 0.0
H3960 H 0.18515 0.90788 0.4482 0.0
H3961 H 0.14987 0.87449 0.48647 0.0
H3962 H 0.14527 0.90435 0.50731 0.0
H3963 H 0.08885 0.00881 0.51006 0.0
H3964 H 0.12177 -0.00091 0.50661 0.0
H3965 H 0.10835 0.94372 0.53301 0.0
H3966 H 0.0751 0.95318 0.53625 0.0
H3967 H 0.12926 0.93838 0.50033 0.0
H3968 H 0.13302 0.98024 0.55795 0.0
H3969 H 0.12822 0.0106 0.57799 0.0
H3970 H 0.16201 0.04398 0.5384 0.0
H3971 H 0.16681 0.01387 0.51798 0.0
C3972 C 0.22026 0.92561 0.51654 0.0
C3973 C 0.23369 0.93751 0.50705 0.0
C3974 C 0.20106 0.93036 0.51653 0.0
C3975 C 0.19504 0.9472 0.50724 0.0
C3976 C 0.20834 0.95888 0.49741 0.0
C3977 C 0.2275 0.95395 0.49712 0.0
C3978 C 0.17513 0.95341 0.50918 0.0
C3979 C 0.17156 0.97092 0.51988 0.0
C3980 C 0.15975 0.94149 0.50202 0.0
C3981 C 0.16275 0.92339 0.48969 0.0
C3982 C 0.17395 0.92418 0.47284 0.0
C3983 C 0.17651 0.90717 0.46114 0.0
C3984 C 0.16786 0.88927 0.46606 0.0
C3985 C 0.1566 0.88836 0.48269 0.0
C3986 C 0.154 0.90533 0.49445 0.0
C3987 C 0.09286 0.99462 0.51533 0.0
C3988 C 0.07928 0.98177 0.52345 0.0
C3989 C 0.11174 0.98911 0.51337 0.0
C3990 C 0.11755 0.97074 0.51967 0.0
C3991 C 0.10414 0.95797 0.52804 0.0
C3992 C 0.08518 0.96345 0.52997 0.0
C3993 C 0.13751 0.96473 0.51698 0.0
C3994 C 0.14111 0.94726 0.50614 0.0
C3995 C 0.15295 0.97667 0.52403 0.0
C3996 C 0.15012 0.99482 0.53633 0.0
C3997 C 0.1393 0.99408 0.55343 0.0
C3998 C 0.13661 0.01124 0.56488 0.0
C3999 C 0.14476 0.02922 0.55945 0.0
C4000 C 0.15568 0.03005 0.54258 0.0
C4001 C 0.15841 0.01294 0.53107 0.0
H4002 H 0.14265 0.04248 0.56833 0.0
H4003 H 0.16984 0.87612 0.45698 0.0
H4004 H 0.35548 0.97353 0.75105 0.0
H4005 H 0.34306 0.94151 0.73848 0.0
H4006 H 0.339 0.92088 0.79675 0.0
H4007 H 0.35085 0.95309 0.80951 0.0
H4008 H 0.35308 0.89245 0.76407 0.0
H4009 H 0.30227 0.93687 0.78477 0.0
H4010 H 0.28673 0.96913 0.7844 0.0
H4011 H 0.27981 0.96278 0.72268 0.0
H4012 H 0.29563 0.9306 0.72266 0.0
H4013 H 0.28754 0.81707 0.77307 0.0
H4014 H 0.30428 0.8488 0.77644 0.0
H4015 H 0.2855 0.86379 0.71939 0.0
H4016 H 0.26786 0.83193 0.71626 0.0
H4017 H 0.28527 0.89561 0.7447 0.0
H4018 H 0.33027 0.84724 0.72543 0.0
H4019 H 0.34614 0.8152 0.7263 0.0
H4020 H 0.36489 0.82889 0.78452 0.0
H4021 H 0.34892 0.8609 0.78412 0.0
C4022 C 0.3524 0.96199 0.76114 0.0
C4023 C 0.35392 0.96574 0.78124 0.0
C4024 C 0.3453 0.94378 0.75394 0.0
C4025 C 0.34007 0.92905 0.76675 0.0
C4026 C 0.34302 0.93219 0.78671 0.0
C4027 C 0.34969 0.95054 0.79396 0.0
C4028 C 0.32943 0.9113 0.75968 0.0
C4029 C 0.33828 0.89303 0.7598 0.0
C4030 C 0.3103 0.91238 0.75365 0.0
C4031 C 0.30034 0.93146 0.75368 0.0
C4032 C 0.29758 0.94243 0.7711 0.0
C4033 C 0.2887 0.96069 0.77097 0.0
C4034 C 0.28235 0.96804 0.75352 0.0
C4035 C 0.28478 0.95709 0.73618 0.0
C4036 C 0.29369 0.93884 0.73623 0.0
C4037 C 0.28687 0.82717 0.76127 0.0
C4038 C 0.27673 0.822 0.74427 0.0
C4039 C 0.29649 0.84525 0.76318 0.0
C4040 C 0.29666 0.85834 0.7479 0.0
C4041 C 0.28573 0.85373 0.73123 0.0
C4042 C 0.27569 0.83562 0.72946 0.0
C4043 C 0.30875 0.87648 0.74955 0.0
C4044 C 0.3002 0.89492 0.74845 0.0
C4045 C 0.32824 0.87555 0.75459 0.0
C4046 C 0.33831 0.85648 0.75475 0.0
C4047 C 0.33772 0.8434 0.73845 0.0
C4048 C 0.34673 0.82524 0.73886 0.0
C4049 C 0.3565 0.82001 0.75546 0.0
C4050 C 0.35733 0.83297 0.77166 0.0
C4051 C 0.34833 0.85115 0.77134 0.0
H4052 H 0.36344 0.80592 0.75576 0.0
H4053 H 0.2755 0.98218 0.75344 0.0
H4054 H 0.26252 0.0598 0.02763 0.0
H4055 H 0.28646 0.03753 0.04016 0.0
H4056 H 0.31783 0.04189 0.98665 0.0
H4057 H 0.29395 0.06325 0.97418 0.0
H4058 H 0.32411 0.00757 0.00092 0.0
H4059 H 0.33168 0.07932 0.03025 0.0
H4060 H 0.31822 0.10686 0.04963 0.0
H4061 H 0.29766 0.06623 0.09162 0.0
H4062 H 0.31165 0.03849 0.07268 0.0
H4063 H 0.41695 0.03969 0.99737 0.0
H4064 H 0.38252 0.03639 -0.00086 0.0
H4065 H 0.38644 0.0203 0.05887 0.0
H4066 H 0.4212 0.02377 0.0573 0.0
H4067 H 0.35823 0.0466 0.05277 0.0
H4068 H 0.37566 0.98428 0.02469 0.0
H4069 H 0.39336 0.96222 0.00235 0.0
H4070 H 0.36719 0.98827 0.95356 0.0
H4071 H 0.34953 0.01067 0.97553 0.0
C4072 C 0.27415 0.05524 0.01836 0.0
C4073 C 0.27663 0.06336 7e-05 0.0
C4074 C 0.28796 0.04276 0.0256 0.0
C4075 C 0.30432 0.03848 0.0146 0.0
C4076 C 0.30547 0.04493 0.99553 0.0
C4077 C 0.29182 0.05725 0.98839 0.0
C4078 C 0.32177 0.03042 0.02324 0.0
C4079 C 0.33149 0.01575 0.01255 0.0
C4080 C 0.3313 0.04059 0.03882 0.0
C4081 C 0.32247 0.05693 0.05001 0.0
C4082 C 0.32423 0.07631 0.04359 0.0
C4083 C 0.31653 0.09194 0.05451 0.0
C4084 C 0.30686 0.08831 0.07175 0.0
C4085 C 0.30507 0.06902 0.07822 0.0
C4086 C 0.31298 0.05335 0.06746 0.0
C4087 C 0.41056 0.03559 0.01097 0.0
C4088 C 0.42188 0.03189 0.02716 0.0
C4089 C 0.39085 0.03348 0.01189 0.0
C4090 C 0.38194 0.02743 0.02894 0.0
C4091 C 0.39306 0.02464 0.04547 0.0
C4092 C 0.4129 0.02681 0.04458 0.0
C4093 C 0.36093 0.02499 0.02936 0.0
C4094 C 0.35068 0.03752 0.04188 0.0
C4095 C 0.35106 0.01312 0.01515 0.0
C4096 C 0.36119 -0.00084 0.00184 0.0
C4097 C 0.37367 0.98532 0.0092 0.0
C4098 C 0.38372 0.97276 0.99659 0.0
C4099 C 0.38138 0.97383 0.97655 0.0
C4100 C 0.36894 0.98741 0.96908 0.0
C4101 C 0.35886 1e-05 0.98163 0.0
H4102 H 0.38923 0.96414 0.96681 0.0
H4103 H 0.30087 0.10044 0.08016 0.0
H4104 H 0.63959 0.573 0.79383 0.0
H4105 H 0.65923 0.60269 0.78948 0.0
H4106 H 0.70603 0.57565 0.81798 0.0
H4107 H 0.68608 0.54605 0.82297 0.0
H4108 H 0.70639 0.61714 0.82319 0.0
H4109 H 0.70325 0.56852 0.77186 0.0
H4110 H 0.68774 0.54461 0.74879 0.0
H4111 H 0.65879 0.59175 0.72223 0.0
H4112 H 0.67379 0.61592 0.7454 0.0
H4113 H 0.76684 0.68304 0.76793 0.0
H4114 H 0.75448 0.65139 0.7796 0.0
H4115 H 0.69776 0.66722 0.76361 0.0
H4116 H 0.70986 0.69886 0.7523 0.0
H4117 H 0.70881 0.62734 0.75231 0.0
H4118 H 0.70967 0.67461 0.80799 0.0
H4119 H 0.72605 0.69767 0.83126 0.0
H4120 H 0.76197 0.65114 0.84884 0.0
H4121 H 0.74595 0.62787 0.82546 0.0
C4122 C 0.6538 0.57377 0.7999 0.0
C4123 C 0.66148 0.55734 0.80854 0.0
C4124 C 0.66503 0.59063 0.79733 0.0
C4125 C 0.68421 0.59102 0.80286 0.0
C4126 C 0.69129 0.5755 0.81347 0.0
C4127 C 0.67989 0.55868 0.81638 0.0
C4128 C 0.69719 0.60616 0.79497 0.0
C4129 C 0.70722 0.61919 0.80769 0.0
C4130 C 0.69847 0.60854 0.77469 0.0
C4131 C 0.68959 0.59406 0.76048 0.0
C4132 C 0.69348 0.5738 0.76119 0.0
C4133 C 0.68478 0.56019 0.74809 0.0
C4134 C 0.67229 0.56667 0.73405 0.0
C4135 C 0.66848 0.58676 0.7331 0.0
C4136 C 0.67708 0.60043 0.74622 0.0
C4137 C 0.75177 0.67963 0.76671 0.0
C4138 C 0.73927 0.69341 0.75931 0.0
C4139 C 0.74476 0.66164 0.77344 0.0
C4140 C 0.72524 0.65713 0.77254 0.0
C4141 C 0.71288 0.67051 0.76443 0.0
C4142 C 0.7198 0.68858 0.75804 0.0
C4143 C 0.71726 0.63884 0.78056 0.0
C4144 C 0.70827 0.62507 0.76779 0.0
C4145 C 0.71726 0.63561 0.8007 0.0
C4146 C 0.72679 0.64958 0.8148 0.0
C4147 C 0.72118 0.66935 0.81669 0.0
C4148 C 0.73037 0.68245 0.82992 0.0
C4149 C 0.74509 0.67589 0.84147 0.0
C4150 C 0.7506 0.65621 0.83985 0.0
C4151 C 0.74146 0.64306 0.82662 0.0
H4152 H 0.75219 0.68605 0.85171 0.0
H4153 H 0.66561 0.55614 0.72388 0.0
H4154 H 0.82166 0.44976 0.97911 0.0
H4155 H 0.84914 0.45728 0.95877 0.0
H4156 H 0.88614 0.4348 0.00232 0.0
H4157 H 0.85872 0.42656 0.02225 0.0
H4158 H 0.8765 0.4816 0.96326 0.0
H4159 H 0.92366 0.41491 0.98683 0.0
H4160 H 0.91851 0.37915 0.99042 0.0
H4161 H 0.87027 0.37968 0.95246 0.0
H4162 H 0.87537 0.41536 0.94814 0.0
H4163 H 0.95505 0.5066 0.00904 0.0
H4164 H 0.92662 0.49585 0.99191 0.0
H4165 H 0.95992 0.46096 0.95147 0.0
H4166 H 0.98889 0.47141 0.96921 0.0
H4167 H 0.93289 0.43908 0.96362 0.0
H4168 H 0.93053 0.49829 0.93396 0.0
H4169 H 0.9347 0.53384 0.92831 0.0
H4170 H 0.89257 0.54723 0.97145 0.0
H4171 H 0.88835 0.51186 0.97768 0.0
C4172 C 0.83569 0.44633 0.98426 0.0
C4173 C 0.83813 0.43762 0.00229 0.0
C4174 C 0.85135 0.45053 0.97256 0.0
C4175 C 0.8697 0.4462 0.97875 0.0
C4176 C 0.87209 0.43764 0.99685 0.0
C4177 C 0.85644 0.43315 0.00839 0.0
C4178 C 0.88671 0.45234 0.96759 0.0
C4179 C 0.8888 0.47228 0.96292 0.0
C4180 C 0.90237 0.43975 0.9654 0.0
C4181 C 0.89998 0.41795 0.9671 0.0
C4182 C 0.91215 0.4074 0.97894 0.0
C4183 C 0.90919 0.38712 0.98116 0.0
C4184 C 0.8941 0.37715 0.97164 0.0
C4185 C 0.88199 0.38742 0.95977 0.0
C4186 C 0.88492 0.40768 0.95742 0.0
C4187 C 0.9565 0.49691 0.99633 0.0
C4188 C 0.97425 0.48964 0.99071 0.0
C4189 C 0.94015 0.49097 0.98627 0.0
C4190 C 0.94105 0.47784 0.97009 0.0
C4191 C 0.95886 0.47121 0.96381 0.0
C4192 C 0.97537 0.47711 0.97403 0.0
C4193 C 0.92301 0.46892 0.96237 0.0
C4194 C 0.92054 0.4483 0.96303 0.0
C4195 C 0.90691 0.48075 0.95997 0.0
C4196 C 0.90901 0.50224 0.95618 0.0
C4197 C 0.92215 0.50878 0.94228 0.0
C4198 C 0.92454 0.52894 0.93899 0.0
C4199 C 0.91387 0.54278 0.94948 0.0
C4200 C 0.90076 0.53648 0.96327 0.0
C4201 C 0.89831 0.51634 0.96663 0.0
H4202 H 0.91577 0.55838 0.94694 0.0
H4203 H 0.89178 0.36147 0.97348 0.0
H4204 H 0.29657 0.05204 0.79066 0.0
H4205 H 0.27573 0.0715 0.77105 0.0
H4206 H 0.30487 0.05151 0.71923 0.0
H4207 H 0.32582 0.0321 0.7388 0.0
H4208 H 0.3119 0.08968 0.72805 0.0
H4209 H 0.25676 0.05053 0.7184 0.0
H4210 H 0.23082 0.02709 0.72622 0.0
H4211 H 0.20915 0.06875 0.76854 0.0
H4212 H 0.23509 0.09234 0.76123 0.0
H4213 H 0.28078 0.18796 0.71627 0.0
H4214 H 0.28343 0.15279 0.70712 0.0
H4215 H 0.25921 0.13736 0.76216 0.0
H4216 H 0.25615 0.17213 0.77113 0.0
H4217 H 0.24577 0.11259 0.73416 0.0
H4218 H 0.30784 0.14062 0.75501 0.0
H4219 H 0.33562 0.16326 0.75239 0.0
H4220 H 0.34527 0.14145 0.69412 0.0
H4221 H 0.3174 0.1188 0.69638 0.0
C4222 C 0.29797 0.05108 0.77503 0.0
C4223 C 0.31324 0.04126 0.7663 0.0
C4224 C 0.28591 0.06207 0.76375 0.0
C4225 C 0.28897 0.0632 0.74367 0.0
C4226 C 0.30237 0.05095 0.73469 0.0
C4227 C 0.31446 0.04005 0.74594 0.0
C4228 C 0.28281 0.08106 0.73391 0.0
C4229 C 0.29728 0.09443 0.72858 0.0
C4230 C 0.26382 0.0873 0.73481 0.0
C4231 C 0.24794 0.07328 0.7392 0.0
C4232 C 0.24652 0.05469 0.72943 0.0
C4233 C 0.2318 0.04136 0.73378 0.0
C4234 C 0.21834 0.04643 0.74786 0.0
C4235 C 0.21956 0.06486 0.7576 0.0
C4236 C 0.23425 0.07825 0.75331 0.0
C4237 C 0.27604 0.17703 0.72638 0.0
C4238 C 0.26843 0.1828 0.7445 0.0
C4239 C 0.2774 0.15697 0.72107 0.0
C4240 C 0.27143 0.14246 0.73393 0.0
C4241 C 0.26362 0.14828 0.75187 0.0
C4242 C 0.26211 0.1682 0.75709 0.0
C4243 C 0.2751 0.12126 0.7301 0.0
C4244 C 0.26018 0.10742 0.73263 0.0
C4245 C 0.29379 0.11455 0.72723 0.0
C4246 C 0.31039 0.12829 0.72574 0.0
C4247 C 0.3158 0.1408 0.74159 0.0
C4248 C 0.33157 0.1536 0.74019 0.0
C4249 C 0.34215 0.15387 0.72307 0.0
C4250 C 0.33701 0.14129 0.70734 0.0
C4251 C 0.32123 0.12847 0.70867 0.0
H4252 H 0.35436 0.16378 0.72201 0.0
H4253 H 0.20698 0.03608 0.75123 0.0
H4254 H 0.18367 0.97178 0.30348 0.0
H4255 H 0.19414 0.9399 0.2917 0.0
H4256 H 0.23643 0.96811 0.25594 0.0
H4257 H 0.22424 0.00066 0.26645 0.0
H4258 H 0.22007 0.94004 0.23608 0.0
H4259 H 0.24841 0.94047 0.29935 0.0
H4260 H 0.24924 0.94636 0.33483 0.0
H4261 H 0.2031 0.90457 0.34134 0.0
H4262 H 0.20197 0.89844 0.30593 0.0
H4263 H 0.25087 0.83751 0.22261 0.0
H4264 H 0.24826 0.8734 0.227 0.0
H4265 H 0.19646 0.86514 0.25936 0.0
H4266 H 0.199 0.8294 0.25519 0.0
H4267 H 0.22574 0.88433 0.28028 0.0
H4268 H 0.19531 0.88699 0.21719 0.0
H4269 H 0.19362 0.8816 0.1817 0.0
H4270 H 0.24391 0.9178 0.17505 0.0
H4271 H 0.24603 0.92322 0.21054 0.0
C4272 C 0.19566 0.97122 0.29363 0.0
C4273 C 0.20366 0.98852 0.28632 0.0
C4274 C 0.20171 0.95294 0.28691 0.0
C4275 C 0.21664 0.9515 0.27352 0.0
C4276 C 0.2251 0.96888 0.26654 0.0
C4277 C 0.21839 0.98738 0.27268 0.0
C4278 C 0.22196 0.93169 0.26591 0.0
C4279 C 0.22186 0.92793 0.24574 0.0
C4280 C 0.22406 0.91583 0.27851 0.0
C4281 C 0.22516 0.91896 0.29994 0.0
C4282 C 0.23845 0.93253 0.30834 0.0
C4283 C 0.23897 0.93591 0.32845 0.0
C4284 C 0.22623 0.92585 0.34033 0.0
C4285 C 0.21297 0.91235 0.33213 0.0
C4286 C 0.21246 0.90882 0.31204 0.0
C4287 C 0.23856 0.84337 0.23005 0.0
C4288 C 0.22532 0.83069 0.2389 0.0
C4289 C 0.23713 0.86386 0.23257 0.0
C4290 C 0.22234 0.87179 0.24376 0.0
C4291 C 0.20809 0.8592 0.25087 0.0
C4292 C 0.20955 0.83881 0.24844 0.0
C4293 C 0.22302 0.89268 0.25059 0.0
C4294 C 0.22445 0.89655 0.27064 0.0
C4295 C 0.2223 0.90854 0.23788 0.0
C4296 C 0.22098 0.90528 0.21655 0.0
C4297 C 0.20612 0.89364 0.20818 0.0
C4298 C 0.20506 0.89062 0.18806 0.0
C4299 C 0.21869 0.89928 0.17613 0.0
C4300 C 0.23338 0.91106 0.1843 0.0
C4301 C 0.23451 0.91412 0.20442 0.0
H4302 H 0.21785 0.89692 0.16056 0.0
H4303 H 0.22664 0.92851 0.35588 0.0
H4304 H 0.46608 0.29536 0.40825 0.0
H4305 H 0.47333 0.32767 0.42345 0.0
H4306 H 0.52838 0.32832 0.39595 0.0
H4307 H 0.52145 0.29562 0.38115 0.0
H4308 H 0.5325 0.33785 0.43229 0.0
H4309 H 0.49221 0.35971 0.38236 0.0
H4310 H 0.46369 0.36058 0.36168 0.0
H4311 H 0.42943 0.37412 0.41164 0.0
H4312 H 0.45769 0.37309 0.43267 0.0
H4313 H 0.51354 0.44989 0.46039 0.0
H4314 H 0.51364 0.4216 0.43757 0.0
H4315 H 0.52176 0.38275 0.485 0.0
H4316 H 0.52267 0.41137 0.50783 0.0
H4317 H 0.48885 0.39428 0.43471 0.0
H4318 H 0.54041 0.33955 0.46941 0.0
H4319 H 0.57063 0.34053 0.48754 0.0
H4320 H 0.58594 0.39595 0.46283 0.0
H4321 H 0.55593 0.3952 0.44437 0.0
C4322 C 0.4796 0.30251 0.40514 0.0
C4323 C 0.49323 0.29287 0.39357 0.0
C4324 C 0.48372 0.32104 0.41381 0.0
C4325 C 0.50137 0.3305 0.41077 0.0
C4326 C 0.5147 0.32127 0.39857 0.0
C4327 C 0.51069 0.30261 0.39007 0.0
C4328 C 0.50636 0.3493 0.42146 0.0
C4329 C 0.52304 0.35028 0.4327 0.0
C4330 C 0.4942 0.36564 0.42174 0.0
C4331 C 0.47709 0.36618 0.40913 0.0
C4332 C 0.47858 0.36273 0.38897 0.0
C4333 C 0.46246 0.36328 0.37718 0.0
C4334 C 0.44476 0.36737 0.38535 0.0
C4335 C 0.44315 0.37095 0.40533 0.0
C4336 C 0.45922 0.37041 0.41719 0.0
C4337 C 0.51573 0.43534 0.46589 0.0
C4338 C 0.51802 0.43274 0.48584 0.0
C4339 C 0.51573 0.41917 0.45285 0.0
C4340 C 0.51765 0.4 0.45951 0.0
C4341 C 0.52057 0.39741 0.47943 0.0
C4342 C 0.52102 0.41373 0.49249 0.0
C4343 C 0.51486 0.38276 0.44581 0.0
C4344 C 0.49849 0.38201 0.4341 0.0
C4345 C 0.52759 0.3669 0.4447 0.0
C4346 C 0.5458 0.36739 0.45562 0.0
C4347 C 0.55025 0.35191 0.46777 0.0
C4348 C 0.56734 0.35244 0.47813 0.0
C4349 C 0.58017 0.36832 0.47639 0.0
C4350 C 0.57595 0.38369 0.46423 0.0
C4351 C 0.55889 0.38324 0.45384 0.0
H4352 H 0.59338 0.36871 0.48442 0.0
H4353 H 0.4323 0.36779 0.37619 0.0
H4354 H 0.46803 0.75785 0.20923 0.0
H4355 H 0.43542 0.75267 0.22019 0.0
H4356 H 0.41917 0.73198 0.16249 0.0
H4357 H 0.45172 0.73785 0.15141 0.0
H4358 H 0.40176 0.76414 0.17214 0.0
H4359 H 0.41098 0.7035 0.20327 0.0
H4360 H 0.42653 0.67995 0.22422 0.0
H4361 H 0.41746 0.71853 0.27389 0.0
H4362 H 0.40208 0.74245 0.25325 0.0
H4363 H 0.30438 0.7672 0.20038 0.0
H4364 H 0.33575 0.75901 0.18811 0.0
H4365 H 0.36063 0.77754 0.24316 0.0
H4366 H 0.32911 0.78513 0.25579 0.0
H4367 H 0.37171 0.7417 0.23266 0.0
H4368 H 0.36741 0.80406 0.20106 0.0
H4369 H 0.35303 0.82857 0.18027 0.0
H4370 H 0.3541 0.78713 0.13175 0.0
H4371 H 0.36832 0.7623 0.1523 0.0
C4372 C 0.45762 0.75148 0.19911 0.0
C4373 C 0.46202 0.74884 0.17941 0.0
C4374 C 0.43901 0.74837 0.2054 0.0
C4375 C 0.4248 0.74218 0.19207 0.0
C4376 C 0.42989 0.737 0.17293 0.0
C4377 C 0.44839 0.7405 0.16658 0.0
C4378 C 0.40469 0.74574 0.19683 0.0
C4379 C 0.39499 0.75876 0.18512 0.0
C4380 C 0.39617 0.73928 0.2141 0.0
C4381 C 0.40543 0.72487 0.22663 0.0
C4382 C 0.41241 0.70706 0.21863 0.0
C4383 C 0.42118 0.69361 0.23047 0.0
C4384 C 0.423 0.69775 0.25037 0.0
C4385 C 0.41603 0.71533 0.25848 0.0
C4386 C 0.40725 0.72883 0.24671 0.0
C4387 C 0.31657 0.77004 0.20973 0.0
C4388 C 0.3143 0.77664 0.22911 0.0
C4389 C 0.33451 0.7653 0.20269 0.0
C4390 C 0.35049 0.76755 0.21477 0.0
C4391 C 0.34841 0.77548 0.23369 0.0
C4392 C 0.33044 0.77995 0.24084 0.0
C4393 C 0.36914 0.76039 0.20818 0.0
C4394 C 0.37845 0.74673 0.21953 0.0
C4395 C 0.37742 0.76633 0.19063 0.0
C4396 C 0.36872 0.78123 0.17829 0.0
C4397 C 0.36442 0.80011 0.186 0.0
C4398 C 0.35634 0.81408 0.17425 0.0
C4399 C 0.3526 0.80939 0.15472 0.0
C4400 C 0.35698 0.79073 0.14689 0.0
C4401 C 0.36506 0.77672 0.15858 0.0
H4402 H 0.34635 0.82022 0.14565 0.0
H4403 H 0.4298 0.68733 0.2595 0.0
H4404 H 0.95796 0.70455 0.93788 0.0
H4405 H 0.95905 0.68149 0.96431 0.0
H4406 H 0.0202 0.68707 0.96534 0.0
H4407 H 0.01929 0.70981 0.93876 0.0
H4408 H 0.00779 0.64937 0.95948 0.0
H4409 H 0.99268 0.70453 0.00322 0.0
H4410 H 0.97322 0.73233 0.01491 0.0
H4411 H 0.92536 0.69275 0.02169 0.0
H4412 H 0.94447 0.66473 0.00983 0.0
H4413 H 0.03726 0.59389 0.03243 0.0
H4414 H 0.02799 0.62552 0.02014 0.0
H4415 H 0.96971 0.60478 0.01633 0.0
H4416 H 0.97888 0.57288 0.02875 0.0
H4417 H 0.97682 0.64924 0.02409 0.0
H4418 H 0.98985 0.59487 0.98013 0.0
H4419 H 0.00754 0.56623 0.96749 0.0
H4420 H 0.05665 0.60355 0.9586 0.0
H4421 H 0.03944 0.63236 0.97188 0.0
C4422 C 0.97162 0.70119 0.94401 0.0
C4423 C 0.98858 0.70873 0.93601 0.0
C4424 C 0.97219 0.68808 0.95919 0.0
C4425 C 0.98971 0.68254 0.96673 0.0
C4426 C 0.00654 0.6911 0.95963 0.0
C4427 C 0.006 0.70404 0.9444 0.0
C4428 C 0.99083 0.66595 0.98004 0.0
C4429 C 0.00123 0.64953 0.97371 0.0
C4430 C 0.98142 0.66572 -0.00183 0.0
C4431 C 0.96997 0.68256 0.00545 0.0
C4432 C 0.97797 0.70177 0.00706 0.0
C4433 C 0.96701 0.71756 0.01375 0.0
C4434 C 0.94805 0.71431 0.01899 0.0
C4435 C 0.94004 0.69525 0.01761 0.0
C4436 C 0.95094 0.6794 0.01093 0.0
C4437 C 0.02236 0.59624 0.02959 0.0
C4438 C 0.00887 0.58077 0.03101 0.0
C4439 C 0.01708 0.61438 0.02271 0.0
C4440 C -0.00173 0.61726 0.01703 0.0
C4441 C 0.98431 0.60275 0.02066 0.0
C4442 C 0.98959 0.58452 0.02766 0.0
C4443 C 0.9944 0.63325 0.00372 0.0
C4444 C 0.98336 0.64928 0.00987 0.0
C4445 C 0.00291 0.63308 0.98516 0.0
C4446 C 0.01341 0.61576 0.97725 0.0
C4447 C 0.00451 0.59695 0.97576 0.0
C4448 C 0.01444 0.58068 0.96842 0.0
C4449 C 0.0332 0.58307 0.9622 0.0
C4450 C 0.04211 0.60172 0.96344 0.0
C4451 C 0.03229 0.61802 0.97092 0.0
H4452 H 0.04077 0.57049 0.95633 0.0
H4453 H 0.93959 0.72656 0.02416 0.0
H4454 H 0.07948 0.2743 0.64404 0.0
H4455 H 0.10412 0.2584 0.6625 0.0
H4456 H 0.07282 0.2698 0.71533 0.0
H4457 H 0.04854 0.28631 0.69711 0.0
H4458 H 0.10926 0.27636 0.72088 0.0
H4459 H 0.07135 0.22359 0.69047 0.0
H4460 H 0.05604 0.20589 0.66254 0.0
H4461 H 0.11057 0.19682 0.63631 0.0
H4462 H 0.1262 0.21473 0.66389 0.0
H4463 H 0.17417 0.2268 0.77202 0.0
H4464 H 0.14209 0.2241 0.75802 0.0
H4465 H 0.16592 0.22739 0.70061 0.0
H4466 H 0.19771 0.2303 0.7145 0.0
H4467 H 0.12892 0.20863 0.70106 0.0
H4468 H 0.16332 0.26984 0.7218 0.0
H4469 H 0.18205 0.28939 0.74623 0.0
H4470 H 0.13659 0.28365 0.78727 0.0
H4471 H 0.11769 0.26384 0.76308 0.0
C4472 C 0.07804 0.27368 0.65963 0.0
C4473 C 0.06204 0.28137 0.66913 0.0
C4474 C 0.09197 0.26439 0.67011 0.0
C4475 C 0.08992 0.26231 0.69017 0.0
C4476 C 0.07451 0.27099 0.69981 0.0
C4477 C 0.06072 0.28054 0.68939 0.0
C4478 C 0.10399 0.25138 0.7012 0.0
C4479 C 0.11311 0.26134 0.71687 0.0
C4480 C 0.10936 0.23192 0.69563 0.0
C4481 C 0.09996 0.22059 0.67927 0.0
C4482 C 0.08009 0.21788 0.67873 0.0
C4483 C 0.07134 0.20781 0.66294 0.0
C4484 C 0.08233 0.20025 0.64766 0.0
C4485 C 0.10208 0.20268 0.64816 0.0
C4486 C 0.11089 0.21276 0.66389 0.0
C4487 C 0.17251 0.226 0.75641 0.0
C4488 C 0.18811 0.22933 0.74427 0.0
C4489 C 0.15426 0.22432 0.74842 0.0
C4490 C 0.15172 0.22596 0.72833 0.0
C4491 C 0.1676 0.22614 0.71613 0.0
C4492 C 0.18571 0.22807 0.72408 0.0
C4493 C 0.13388 0.23363 0.7207 0.0
C4494 C 0.12432 0.22328 0.70552 0.0
C4495 C 0.12822 0.25288 0.72637 0.0
C4496 C 0.13918 0.26531 0.74073 0.0
C4497 C 0.15735 0.27276 0.73605 0.0
C4498 C 0.168 0.28385 0.74984 0.0
C4499 C 0.16052 0.28774 0.7683 0.0
C4500 C 0.14236 0.2806 0.77297 0.0
C4501 C 0.13167 0.26946 0.75923 0.0
H4502 H 0.16879 0.29631 0.77897 0.0
H4503 H 0.07556 0.1925 0.63544 0.0
H4504 H 0.49134 0.71368 0.09358 0.0
H4505 H 0.50081 0.68078 0.0825 0.0
H4506 H 0.53812 0.6775 0.13181 0.0
H4507 H 0.52904 0.71081 0.1428 0.0
H4508 H 0.55289 0.65912 0.09843 0.0
H4509 H 0.49558 0.65757 0.13566 0.0
H4510 H 0.46349 0.66821 0.145 0.0
H4511 H 0.44243 0.6504 0.08852 0.0
H4512 H 0.47446 0.6399 0.07874 0.0
H4513 H 0.50934 0.5506 0.08016 0.0
H4514 H 0.51347 0.58122 0.0996 0.0
H4515 H 0.5433 0.60788 0.05216 0.0
H4516 H 0.53988 0.57698 0.03296 0.0
H4517 H 0.49735 0.61294 0.09154 0.0
H4518 H 0.57014 0.64753 0.06738 0.0
H4519 H 0.60269 0.63676 0.06022 0.0
H4520 H 0.59397 0.58629 0.09532 0.0
H4521 H 0.56146 0.59687 0.10293 0.0
C4522 C 0.50175 0.70609 0.10194 0.0
C4523 C 0.50919 0.71462 0.11924 0.0
C4524 C 0.50718 0.68733 0.09557 0.0
C4525 C 0.51983 0.67662 0.10659 0.0
C4526 C 0.52827 0.68556 0.12319 0.0
C4527 C 0.52302 0.70451 0.12946 0.0
C4528 C 0.52261 0.6555 0.10165 0.0
C4529 C 0.54084 0.64889 0.09698 0.0
C4530 C 0.50689 0.64213 0.10047 0.0
C4531 C 0.48747 0.64802 0.10644 0.0
C4532 C 0.48413 0.65599 0.1252 0.0
C4533 C 0.46594 0.662 0.13058 0.0
C4534 C 0.45094 0.66 0.11736 0.0
C4535 C 0.45407 0.65193 0.09875 0.0
C4536 C 0.47223 0.64592 0.09329 0.0
C4537 C 0.51708 0.56289 0.07402 0.0
C4538 C 0.52406 0.56156 0.05497 0.0
C4539 C 0.5195 0.58034 0.08516 0.0
C4540 C 0.5287 0.59687 0.07737 0.0
C4541 C 0.53647 0.59524 0.05865 0.0
C4542 C 0.53435 0.57764 0.04761 0.0
C4543 C 0.52764 0.61644 0.08757 0.0
C4544 C 0.50959 0.62287 0.09325 0.0
C4545 C 0.54363 0.6294 0.09004 0.0
C4546 C 0.56325 0.62295 0.08561 0.0
C4547 C 0.57517 0.63418 0.07366 0.0
C4548 C 0.59362 0.6281 0.0695 0.0
C4549 C 0.60037 0.61083 0.07727 0.0
C4550 C 0.58869 0.59963 0.08925 0.0
C4551 C 0.57023 0.60564 0.09346 0.0
H4552 H 0.61466 0.60614 0.07403 0.0
H4553 H 0.43688 0.66469 0.12154 0.0
H4554 H 0.04716 0.73613 0.82873 0.0
H4555 H 0.07214 0.75374 0.81171 0.0
H4556 H 0.10804 0.75262 0.86238 0.0
H4557 H 0.08218 0.73603 0.88007 0.0
H4558 H 0.1131 0.78644 0.84597 0.0
H4559 H 0.11256 0.71902 0.82225 0.0
H4560 H 0.09893 0.68778 0.80831 0.0
H4561 H 0.0826 0.71736 0.75712 0.0
H4562 H 0.09595 0.74885 0.77086 0.0
H4563 H 0.20231 0.77608 0.80184 0.0
H4564 H 0.17273 0.78002 0.81952 0.0
H4565 H 0.14383 0.79204 0.76622 0.0
H4566 H 0.1737 0.788 0.74832 0.0
H4567 H 0.13226 0.75793 0.78195 0.0
H4568 H 0.14105 0.82452 0.80564 0.0
H4569 H 0.15847 0.85312 0.82068 0.0
H4570 H 0.164 0.82211 0.87347 0.0
H4571 H 0.14685 0.79321 0.8587 0.0
C4572 C 0.06046 0.73944 0.8362 0.0
C4573 C 0.06303 0.73428 0.85552 0.0
C4574 C 0.07471 0.74958 0.82647 0.0
C4575 C 0.09217 0.75407 0.83556 0.0
C4576 C 0.0947 0.74921 0.85503 0.0
C4577 C 0.0801 0.73956 0.86505 0.0
C4578 C 0.10788 0.76317 0.82437 0.0
C4579 C 0.11743 0.78016 0.83203 0.0
C4580 C 0.11321 0.75525 0.80595 0.0
C4581 C 0.10506 0.73634 0.79769 0.0
C4582 C 0.10593 0.7189 0.80809 0.0
C4583 C 0.09828 0.70114 0.80021 0.0
C4584 C 0.08985 0.7006 0.78186 0.0
C4585 C 0.08909 0.71781 0.77134 0.0
C4586 C 0.09671 0.73561 0.77916 0.0
C4587 C 0.18979 0.78027 0.79398 0.0
C4588 C 0.19008 0.78122 0.77369 0.0
C4589 C 0.17291 0.78279 0.80416 0.0
C4590 C 0.15603 0.7862 0.79419 0.0
C4591 C 0.15675 0.78943 0.77418 0.0
C4592 C 0.17377 0.78708 0.76396 0.0
C4593 C 0.13778 0.78107 0.80359 0.0
C4594 C 0.1277 0.76461 0.79565 0.0
C4595 C 0.13249 0.78914 0.82195 0.0
C4596 C 0.14268 0.80662 0.83099 0.0
C4597 C 0.14607 0.82373 0.82041 0.0
C4598 C 0.15589 0.84001 0.82891 0.0
C4599 C 0.16235 0.83942 0.84801 0.0
C4600 C 0.15897 0.82256 0.85868 0.0
C4601 C 0.14916 0.80623 0.85026 0.0
H4602 H 0.16997 0.85203 0.85455 0.0
H4603 H 0.08395 0.68684 0.77578 0.0
H4604 H 0.04152 0.32161 0.59244 0.0
H4605 H 0.03759 0.35707 0.59083 0.0
H4606 H 0.98793 0.34703 0.55498 0.0
H4607 H 0.99129 0.31151 0.55709 0.0
H4608 H 0.02947 0.3901 0.5708 0.0
H4609 H 0.95015 0.36291 0.58057 0.0
H4610 H 0.93302 0.33366 0.59274 0.0
H4611 H 0.98192 0.31903 0.62599 0.0
H4612 H -0.00078 0.34831 0.61431 0.0
H4613 H 0.95196 0.44354 0.54421 0.0
H4614 H 0.96058 0.41366 0.56025 0.0
H4615 H 0.99206 0.44857 0.60338 0.0
H4616 H 0.98357 0.47871 0.58717 0.0
H4617 H 0.96395 0.39516 0.59708 0.0
H4618 H 0.02995 0.43072 0.60574 0.0
H4619 H 0.04788 0.46179 0.60016 0.0
H4620 H 0.02869 0.46035 0.54108 0.0
H4621 H 0.01059 0.42925 0.54639 0.0
C4622 C 0.03027 0.32686 0.58338 0.0
C4623 C 0.0158 0.31384 0.57617 0.0
C4624 C 0.02806 0.34724 0.58253 0.0
C4625 C 0.01179 0.35448 0.57384 0.0
C4626 C 0.00015 0.34154 0.56248 0.0
C4627 C 0.00219 0.32118 0.56357 0.0
C4628 C 0.00455 0.37397 0.58017 0.0
C4629 C 0.01529 0.39119 0.57682 0.0
C4630 C 0.98652 0.37542 0.58926 0.0
C4631 C 0.97605 0.35776 0.59639 0.0
C4632 C 0.95723 0.3535 0.59054 0.0
C4633 C 0.94748 0.33689 0.59735 0.0
C4634 C 0.95639 0.32445 0.61008 0.0
C4635 C 0.97505 0.32861 0.61607 0.0
C4636 C 0.98484 0.34521 0.60934 0.0
C4637 C 0.96001 0.44492 0.55759 0.0
C4638 C 0.96758 0.46329 0.56413 0.0
C4639 C 0.96487 0.42784 0.56683 0.0
C4640 C 0.97747 0.42893 0.58259 0.0
C4641 C 0.98263 0.44747 0.59097 0.0
C4642 C 0.97766 0.46467 0.58175 0.0
C4643 C 0.98833 0.41113 0.58644 0.0
C4644 C 0.97837 0.39401 0.59169 0.0
C4645 C 0.00745 0.40981 0.58026 0.0
C4646 C 0.0191 0.42769 0.57643 0.0
C4647 C 0.02976 0.43695 0.59152 0.0
C4648 C 0.03987 0.45457 0.58842 0.0
C4649 C 0.03949 0.46297 0.57023 0.0
C4650 C 0.02905 0.45373 0.55509 0.0
C4651 C 0.01887 0.43612 0.55814 0.0
H4652 H 0.0472 0.47669 0.56789 0.0
H4653 H 0.94883 0.31162 0.61535 0.0
H4654 H 0.45439 0.2115 0.34028 0.0
H4655 H 0.42764 0.22116 0.32038 0.0
H4656 H 0.45972 0.27241 0.30254 0.0
H4657 H 0.48694 0.26224 0.32173 0.0
H4658 H 0.41292 0.26246 0.32901 0.0
H4659 H 0.45279 0.27127 0.26814 0.0
H4660 H 0.47685 0.25799 0.24548 0.0
H4661 H 0.44508 0.20319 0.23975 0.0
H4662 H 0.42101 0.2161 0.26265 0.0
H4663 H 0.33263 0.29711 0.2805 0.0
H4664 H 0.36567 0.29445 0.29073 0.0
H4665 H 0.36725 0.23561 0.26468 0.0
H4666 H 0.33443 0.2384 0.25389 0.0
H4667 H 0.39982 0.25422 0.25853 0.0
H4668 H 0.35923 0.24339 0.3134 0.0
H4669 H 0.33444 0.25098 0.3376 0.0
H4670 H 0.366 0.30297 0.35705 0.0
H4671 H 0.3909 0.29579 0.33279 0.0
C4672 C 0.45587 0.22454 0.33171 0.0
C4673 C 0.47258 0.23618 0.33247 0.0
C4674 C 0.44067 0.23 0.32034 0.0
C4675 C 0.44186 0.24733 0.30986 0.0
C4676 C 0.45876 0.2587 0.31012 0.0
C4677 C 0.4742 0.25296 0.32115 0.0
C4678 C 0.42447 0.25456 0.301 0.0
C4679 C 0.41014 0.2612 0.31354 0.0
C4680 C 0.42086 0.25227 0.28095 0.0
C4681 C 0.43532 0.24452 0.26731 0.0
C4682 C 0.45109 0.25631 0.26224 0.0
C4683 C 0.46469 0.24888 0.24931 0.0
C4684 C 0.46254 0.22973 0.24125 0.0
C4685 C 0.44676 0.21799 0.24606 0.0
C4686 C 0.43316 0.22536 0.25902 0.0
C4687 C 0.34005 0.28364 0.2769 0.0
C4688 C 0.3309 0.26787 0.26657 0.0
C4689 C 0.35892 0.28215 0.28272 0.0
C4690 C 0.36883 0.26474 0.27866 0.0
C4691 C 0.35988 0.24921 0.2679 0.0
C4692 C 0.3411 0.25077 0.26185 0.0
C4693 C 0.3881 0.26217 0.28657 0.0
C4694 C 0.4027 0.25621 0.27392 0.0
C4695 C 0.39188 0.26468 0.30667 0.0
C4696 C 0.37679 0.26921 0.32108 0.0
C4697 C 0.36079 0.25655 0.3227 0.0
C4698 C 0.34674 0.26075 0.33646 0.0
C4699 C 0.3486 0.27749 0.3488 0.0
C4700 C 0.36455 0.29004 0.34744 0.0
C4701 C 0.37863 0.28591 0.33369 0.0
H4702 H 0.33772 0.28071 0.35946 0.0
H4703 H 0.47306 0.224 0.23122 0.0
H4704 H 0.41664 0.48465 0.33221 0.0
H4705 H 0.43394 0.48892 0.36276 0.0
H4706 H 0.48166 0.51444 0.3326 0.0
H4707 H 0.46459 0.50962 0.30189 0.0
H4708 H 0.49158 0.49686 0.36834 0.0
H4709 H 0.44841 0.54419 0.34384 0.0
H4710 H 0.41813 0.55471 0.32998 0.0
H4711 H 0.38825 0.5351 0.38022 0.0
H4712 H 0.41827 0.52408 0.39423 0.0
H4713 H 0.51436 0.54154 0.45872 0.0
H4714 H 0.50668 0.54458 0.42434 0.0
H4715 H 0.45122 0.51832 0.4341 0.0
H4716 H 0.45858 0.51569 0.46828 0.0
H4717 H 0.44998 0.54318 0.40503 0.0
H4718 H 0.49136 0.48957 0.42532 0.0
H4719 H 0.52101 0.47822 0.4399 0.0
H4720 H 0.5538 0.50974 0.39809 0.0
H4721 H 0.52432 0.52151 0.38343 0.0
C4722 C 0.43122 0.4901 0.33196 0.0
C4723 C 0.43914 0.49731 0.3149 0.0
C4724 C 0.44105 0.49266 0.34941 0.0
C4725 C 0.45869 0.50277 0.34991 0.0
C4726 C 0.46792 0.5069 0.33248 0.0
C4727 C 0.45818 0.504 0.31492 0.0
C4728 C 0.46528 0.51247 0.36827 0.0
C4729 C 0.48268 0.50724 0.37624 0.0
C4730 C 0.45372 0.52627 0.37836 0.0
C4731 C 0.43563 0.53322 0.37006 0.0
C4732 C 0.43538 0.54201 0.35189 0.0
C4733 C 0.41825 0.54807 0.34401 0.0
C4734 C 0.40129 0.54559 0.35423 0.0
C4735 C 0.4014 0.53702 0.37233 0.0
C4736 C 0.41848 0.53088 0.38026 0.0
C4737 C 0.50027 0.53716 0.45365 0.0
C4738 C 0.48726 0.52782 0.46599 0.0
C4739 C 0.49595 0.53881 0.434 0.0
C4740 C 0.47864 0.53105 0.42659 0.0
C4741 C 0.46477 0.52416 0.43944 0.0
C4742 C 0.46904 0.52255 0.45899 0.0
C4743 C 0.47582 0.52683 0.4056 0.0
C4744 C 0.45914 0.5332 0.39695 0.0
C4745 C 0.48801 0.51408 0.39493 0.0
C4746 C 0.50567 0.50653 0.40339 0.0
C4747 C 0.5049 0.49409 0.41926 0.0
C4748 C 0.52167 0.4876 0.42755 0.0
C4749 C 0.53928 0.49326 0.41994 0.0
C4750 C 0.54015 0.50538 0.40398 0.0
C4751 C 0.52342 0.51197 0.39568 0.0
H4752 H 0.55224 0.48825 0.42639 0.0
H4753 H 0.38806 0.55035 0.34816 0.0
H4754 H 0.23923 0.66301 0.03305 0.0
H4755 H 0.2272 0.67487 0.06457 0.0
H4756 H 0.28183 0.6654 0.0904 0.0
H4757 H 0.29421 0.6541 0.05882 0.0
H4758 H 0.24023 0.65256 0.11057 0.0
H4759 H 0.28286 0.70583 0.08436 0.0
H4760 H 0.29176 0.72754 0.0577 0.0
H4761 H 0.2346 0.7481 0.05529 0.0
H4762 H 0.22533 0.72627 0.08179 0.0
H4763 H 0.25714 0.70239 0.19885 0.0
H4764 H 0.2563 0.68597 0.16693 0.0
H4765 H 0.21988 0.73116 0.14619 0.0
H4766 H 0.22178 0.74838 0.17801 0.0
H4767 H 0.24482 0.7254 0.12112 0.0
H4768 H 0.2041 0.68085 0.15297 0.0
H4769 H 0.19264 0.6594 0.17882 0.0
H4770 H 0.24034 0.62183 0.1697 0.0
H4771 H 0.25225 0.64318 0.14397 0.0
C4772 C 0.2486 0.66316 0.04551 0.0
C4773 C 0.26771 0.65777 0.04351 0.0
C4774 C 0.24169 0.66991 0.06344 0.0
C4775 C 0.25367 0.67094 0.07965 0.0
C4776 C 0.27243 0.6646 0.07795 0.0
C4777 C 0.27948 0.65826 0.05995 0.0
C4778 C 0.24729 0.68035 0.09797 0.0
C4779 C 0.24121 0.66845 0.11306 0.0
C4780 C 0.24776 0.7011 0.10066 0.0
C4781 C 0.25337 0.71427 0.08485 0.0
C4782 C 0.27216 0.71484 0.07801 0.0
C4783 C 0.27728 0.72719 0.06297 0.0
C4784 C 0.26374 0.73914 0.05476 0.0
C4785 C 0.24506 0.7388 0.06163 0.0
C4786 C 0.23987 0.72645 0.07665 0.0
C4787 C 0.24876 0.70868 0.18754 0.0
C4788 C 0.23951 0.72661 0.19084 0.0
C4789 C 0.24813 0.69918 0.16931 0.0
C4790 C 0.23766 0.70703 0.15418 0.0
C4791 C 0.228 0.72475 0.15762 0.0
C4792 C 0.22908 0.73458 0.17577 0.0
C4793 C 0.23836 0.69762 0.13443 0.0
C4794 C 0.24334 0.70951 0.11886 0.0
C4795 C 0.23636 0.67685 0.13124 0.0
C4796 C 0.22912 0.66371 0.14655 0.0
C4797 C 0.21221 0.66807 0.15653 0.0
C4798 C 0.20562 0.65592 0.17116 0.0
C4799 C 0.21577 0.63928 0.17592 0.0
C4800 C 0.23249 0.63472 0.166 0.0
C4801 C 0.23914 0.64682 0.15134 0.0
H4802 H 0.21066 0.6299 0.18727 0.0
H4803 H 0.26772 0.7487 0.04313 0.0
H4804 H 0.08625 0.5295 0.80597 0.0
H4805 H 0.0783 0.53705 0.83978 0.0
H4806 H 0.04289 0.48427 0.8408 0.0
H4807 H 0.05107 0.47658 0.80685 0.0
H4808 H 0.0316 0.51509 0.86819 0.0
H4809 H 0.08228 0.47522 0.8513 0.0
H4810 H 0.11108 0.46154 0.83622 0.0
H4811 H 0.14391 0.51184 0.85771 0.0
H4812 H 0.11519 0.52604 0.87265 0.0
H4813 H 0.06518 0.48236 0.96151 0.0
H4814 H 0.06668 0.48343 0.92633 0.0
H4815 H 0.06674 0.5471 0.93009 0.0
H4816 H 0.06489 0.54626 0.96559 0.0
H4817 H 0.09419 0.51026 0.90074 0.0
H4818 H 0.03194 0.54584 0.91825 0.0
H4819 H 0.00276 0.5447 0.93806 0.0
H4820 H 0.99171 0.48467 0.91844 0.0
H4821 H 0.02086 0.48546 0.89856 0.0
C4822 C 0.07592 0.52015 0.8131 0.0
C4823 C 0.06936 0.50243 0.80408 0.0
C4824 C 0.07148 0.52439 0.83241 0.0
C4825 C 0.06045 0.51092 0.84279 0.0
C4826 C 0.05151 0.49476 0.83295 0.0
C4827 C 0.05605 0.49046 0.81356 0.0
C4828 C 0.06171 0.51157 0.86411 0.0
C4829 C 0.0453 0.51434 0.87528 0.0
C4830 C 0.07946 0.5093 0.87337 0.0
C4831 C 0.09646 0.50191 0.8628 0.0
C4832 C 0.09553 0.48363 0.85243 0.0
C4833 C 0.11188 0.47567 0.84406 0.0
C4834 C 0.12933 0.48577 0.84608 0.0
C4835 C 0.13039 0.504 0.85621 0.0
C4836 C 0.11406 0.51205 0.86458 0.0
C4837 C 0.0659 0.49665 0.95495 0.0
C4838 C 0.06444 0.51425 0.96628 0.0
C4839 C 0.06668 0.49719 0.93486 0.0
C4840 C 0.06623 0.51529 0.92581 0.0
C4841 C 0.06668 0.53299 0.937 0.0
C4842 C 0.0658 0.53248 0.95721 0.0
C4843 C 0.06441 0.51538 0.90463 0.0
C4844 C 0.08067 0.51202 0.89351 0.0
C4845 C 0.04642 0.51576 0.89558 0.0
C4846 C 0.02862 0.51568 0.90704 0.0
C4847 C 0.02333 0.53239 0.91823 0.0
C4848 C 0.00679 0.53181 0.92947 0.0
C4849 C 0.99543 0.5146 0.92959 0.0
C4850 C 0.00052 0.49798 0.91836 0.0
C4851 C 0.01701 0.49851 0.90707 0.0
H4852 H 0.98268 0.51416 0.93834 0.0
H4853 H 0.142 0.4795 0.83973 0.0
H4854 H 0.22251 0.34249 0.55295 0.0
H4855 H 0.22083 0.31909 0.57889 0.0
H4856 H 0.27442 0.29513 0.56084 0.0
H4857 H 0.27629 0.31842 0.53474 0.0
H4858 H 0.24482 0.26882 0.5855 0.0
H4859 H 0.28527 0.3295 0.58493 0.0
H4860 H 0.28991 0.36417 0.57577 0.0
H4861 H 0.24033 0.38045 0.60827 0.0
H4862 H 0.23522 0.34576 0.61732 0.0
H4863 H 0.27989 0.25537 0.68201 0.0
H4864 H 0.27878 0.26326 0.6477 0.0
H4865 H 0.23443 0.30478 0.65994 0.0
H4866 H 0.23552 0.29721 0.69414 0.0
H4867 H 0.26173 0.31976 0.63663 0.0
H4868 H 0.22391 0.25929 0.64076 0.0
H4869 H 0.21891 0.22447 0.64915 0.0
H4870 H 0.26357 0.20719 0.61019 0.0
H4871 H 0.26901 0.24198 0.60175 0.0
C4872 C 0.23355 0.3317 0.5539 0.0
C4873 C 0.24997 0.33292 0.54241 0.0
C4874 C 0.23244 0.31815 0.56862 0.0
C4875 C 0.24772 0.30578 0.57196 0.0
C4876 C 0.26255 0.30466 0.55849 0.0
C4877 C 0.2637 0.31822 0.54375 0.0
C4878 C 0.25111 0.29963 0.59188 0.0
C4879 C 0.24872 0.27981 0.5967 0.0
C4880 C 0.25628 0.31407 0.60634 0.0
C4881 C 0.2598 0.33506 0.60168 0.0
C4882 C 0.27533 0.34048 0.59006 0.0
C4883 C 0.27804 0.36011 0.58487 0.0
C4884 C 0.26541 0.3745 0.5914 0.0
C4885 C 0.2501 0.36929 0.60321 0.0
C4886 C 0.24729 0.34965 0.60838 0.0
C4887 C 0.26999 0.26628 0.67742 0.0
C4888 C 0.25772 0.2756 0.6908 0.0
C4889 C 0.26931 0.27066 0.65781 0.0
C4890 C 0.25635 0.28439 0.65131 0.0
C4891 C 0.24447 0.29407 0.6647 0.0
C4892 C 0.24512 0.28971 0.68424 0.0
C4893 C 0.25505 0.28891 0.6306 0.0
C4894 C 0.25798 0.30859 0.62553 0.0
C4895 C 0.25054 0.27424 0.61604 0.0
C4896 C 0.24698 0.25327 0.62075 0.0
C4897 C 0.23274 0.24809 0.63406 0.0
C4898 C 0.22982 0.22835 0.63882 0.0
C4899 C 0.24095 0.21363 0.63025 0.0
C4900 C 0.25497 0.21861 0.61683 0.0
C4901 C 0.25796 0.23833 0.61204 0.0
H4902 H 0.23869 0.19836 0.63397 0.0
H4903 H 0.26751 0.38969 0.58734 0.0
H4904 H 0.46269 0.53676 0.23188 0.0
H4905 H 0.47396 0.52326 0.20102 0.0
H4906 H 0.41655 0.52109 0.17891 0.0
H4907 H 0.40502 0.53384 0.21027 0.0
H4908 H 0.43172 0.48715 0.1724 0.0
H4909 H 0.45206 0.55355 0.16172 0.0
H4910 H 0.46777 0.5859 0.16893 0.0
H4911 H 0.52171 0.55798 0.17274 0.0
H4912 H 0.50629 0.52541 0.16577 0.0
H4913 H 0.45517 0.4768 0.07251 0.0
H4914 H 0.44397 0.48181 0.10565 0.0
H4915 H 0.50094 0.47468 0.12692 0.0
H4916 H 0.51227 0.46973 0.09356 0.0
H4917 H 0.48703 0.51141 0.13491 0.0
H4918 H 0.46457 0.44448 0.14169 0.0
H4919 H 0.4471 0.41379 0.13179 0.0
H4920 H 0.39472 0.44502 0.13211 0.0
H4921 H 0.41189 0.47596 0.14176 0.0
C4922 C 0.45247 0.5339 0.22033 0.0
C4923 C 0.43293 0.53618 0.22356 0.0
C4924 C 0.45897 0.52618 0.20262 0.0
C4925 C 0.44611 0.52111 0.18762 0.0
C4926 C 0.42671 0.52472 0.19036 0.0
C4927 C 0.42016 0.53215 0.20821 0.0
C4928 C 0.45276 0.51058 0.16976 0.0
C4929 C 0.44366 0.4926 0.16403 0.0
C4930 C 0.46864 0.51741 0.15915 0.0
C4931 C 0.47798 0.53699 0.16342 0.0
C4932 C 0.46725 0.55427 0.16426 0.0
C4933 C 0.47611 0.57266 0.16826 0.0
C4934 C 0.49572 0.57399 0.17134 0.0
C4935 C 0.50652 0.55693 0.17037 0.0
C4936 C 0.49773 0.5385 0.16637 0.0
C4937 C 0.46515 0.47541 0.08431 0.0
C4938 C 0.48461 0.47319 0.08054 0.0
C4939 C 0.45872 0.47823 0.10327 0.0
C4940 C 0.47167 0.47883 0.11872 0.0
C4941 C 0.49076 0.47432 0.11513 0.0
C4942 C 0.4972 0.47134 0.0961 0.0
C4943 C 0.46599 0.48803 0.13754 0.0
C4944 C 0.47523 0.50585 0.14342 0.0
C4945 C 0.44996 0.48129 0.14796 0.0
C4946 C 0.43957 0.4626 0.14234 0.0
C4947 C 0.44935 0.44485 0.13953 0.0
C4948 C 0.43949 0.42739 0.13398 0.0
C4949 C 0.41982 0.42746 0.13129 0.0
C4950 C 0.40996 0.44498 0.1342 0.0
C4951 C 0.41974 0.46248 0.13974 0.0
H4952 H 0.41222 0.41394 0.12697 0.0
H4953 H 0.50255 0.58823 0.17444 0.0
H4954 H 0.30705 0.71265 0.96954 0.0
H4955 H 0.30931 0.73479 0.94251 0.0
H4956 H 0.25178 0.719 0.92601 0.0
H4957 H 0.24931 0.69679 0.95284 0.0
H4958 H 0.29836 0.70639 0.90603 0.0
H4959 H 0.24271 0.75348 0.92021 0.0
H4960 H 0.22997 0.78042 0.9411 0.0
H4961 H 0.28302 0.81266 0.93729 0.0
H4962 H 0.29608 0.78576 0.91654 0.0
H4963 H 0.25382 0.71561 0.81698 0.0
H4964 H 0.26296 0.71363 0.85099 0.0
H4965 H 0.29879 0.76576 0.84637 0.0
H4966 H 0.28993 0.76775 0.8122 0.0
H4967 H 0.27306 0.76706 0.87838 0.0
H4968 H 0.3211 0.72614 0.85208 0.0
H4969 H 0.33516 0.6999 0.83136 0.0
H4970 H 0.30042 0.65619 0.85891 0.0
H4971 H 0.28596 0.68217 0.87962 0.0
C4972 C 0.29454 0.71453 0.96072 0.0
C4973 C 0.27824 0.70232 0.96285 0.0
C4974 C 0.29586 0.72735 0.94535 0.0
C4975 C 0.28076 0.72841 0.93226 0.0
C4976 C 0.26351 0.71856 0.93613 0.0
C4977 C 0.2622 0.70567 0.95142 0.0
C4978 C 0.2846 0.73398 0.9122 0.0
C4979 C 0.29302 0.71973 0.89993 0.0
C4980 C 0.2782 0.75162 0.90453 0.0
C4981 C 0.27041 0.76757 0.9171 0.0
C4982 C 0.25169 0.76623 0.92401 0.0
C4983 C 0.2444 0.7815 0.93577 0.0
C4984 C 0.2557 0.79821 0.94058 0.0
C4985 C 0.2743 0.79969 0.93361 0.0
C4986 C 0.28165 0.78444 0.92187 0.0
C4987 C 0.26377 0.72655 0.82313 0.0
C4988 C 0.27109 0.74186 0.81194 0.0
C4989 C 0.26904 0.72536 0.84252 0.0
C4990 C 0.28158 0.73953 0.85109 0.0
C4991 C 0.28912 0.7547 0.83995 0.0
C4992 C 0.28406 0.75575 0.82045 0.0
C4993 C 0.28577 0.73885 0.87199 0.0
C4994 C 0.27896 0.75397 0.88444 0.0
C4995 C 0.29375 0.72193 0.87986 0.0
C4996 C 0.30235 0.70618 0.86736 0.0
C4997 C 0.31634 0.71096 0.85363 0.0
C4998 C 0.32441 0.69612 0.8419 0.0
C4999 C 0.31867 0.6764 0.84381 0.0
C5000 C 0.30486 0.67147 0.85746 0.0
C5001 C 0.29675 0.68626 0.86922 0.0
H5002 H 0.32493 0.66493 0.83472 0.0
H5003 H 0.25003 0.81002 0.94967 0.0
H5004 H 0.05447 0.46499 0.71597 0.0
H5005 H 0.0428 0.47899 0.68651 0.0
H5006 H 0.10033 0.48542 0.66553 0.0
H5007 H 0.11219 0.47244 0.69578 0.0
H5008 H 0.08432 0.51826 0.66255 0.0
H5009 H 0.06456 0.45219 0.64413 0.0
H5010 H 0.04905 0.41937 0.64675 0.0
H5011 H 0.9948 0.4464 0.65362 0.0
H5012 H 0.00999 0.4794 0.65142 0.0
H5013 H 0.05072 0.53473 0.56518 0.0
H5014 H 0.06652 0.52722 0.5954 0.0
H5015 H 0.01401 0.53532 0.62648 0.0
H5016 H -0.00196 0.54298 0.5964 0.0
H5017 H 0.02831 0.49575 0.62353 0.0
H5018 H 0.04916 0.56211 0.64108 0.0
H5019 H 0.06524 0.59424 0.63602 0.0
H5020 H 0.11839 0.56531 0.62769 0.0
H5021 H 0.10259 0.53296 0.63244 0.0
C5022 C 0.06464 0.46882 0.70486 0.0
C5023 C 0.08426 0.46777 0.70821 0.0
C5024 C 0.05792 0.47681 0.68792 0.0
C5025 C 0.07065 0.48326 0.67369 0.0
C5026 C 0.09022 0.48071 0.67636 0.0
C5027 C 0.09699 0.47315 0.69355 0.0
C5028 C 0.06366 0.49459 0.65721 0.0
C5029 C 0.07227 0.51313 0.65379 0.0
C5030 C 0.04761 0.4882 0.64608 0.0
C5031 C 0.03848 0.46832 0.64782 0.0
C5032 C 0.04936 0.45117 0.64644 0.0
C5033 C 0.04061 0.43252 0.64782 0.0
C5034 C 0.02097 0.4308 0.65042 0.0
C5035 C 0.01002 0.44774 0.65165 0.0
C5036 C 0.0187 0.46642 0.65033 0.0
C5037 C 0.04268 0.53569 0.57855 0.0
C5038 C 0.02298 0.53881 0.57832 0.0
C5039 C 0.05178 0.5315 0.59582 0.0
C5040 C 0.04131 0.53044 0.61302 0.0
C5041 C 0.02225 0.536 0.61325 0.0
C5042 C 0.01316 0.54034 0.59602 0.0
C5043 C 0.04882 0.51932 0.62919 0.0
C5044 C 0.04034 0.50078 0.63239 0.0
C5045 C 0.0651 0.52557 0.63983 0.0
C5046 C 0.07462 0.54505 0.63691 0.0
C5047 C 0.06424 0.56255 0.63797 0.0
C5048 C 0.07332 0.58082 0.63521 0.0
C5049 C 0.09282 0.58181 0.63148 0.0
C5050 C 0.10328 0.56452 0.63056 0.0
C5051 C 0.09427 0.54622 0.63331 0.0
H5052 H 0.09982 0.59596 0.62935 0.0
H5053 H 0.01422 0.41635 0.65141 0.0
H5054 H 0.27525 0.35805 0.44759 0.0
H5055 H 0.2618 0.34228 0.41815 0.0
H5056 H 0.20518 0.35333 0.4391 0.0
H5057 H 0.21843 0.36964 0.46837 0.0
H5058 H 0.23411 0.30837 0.41682 0.0
H5059 H 0.18554 0.3627 0.40929 0.0
H5060 H 0.17764 0.39773 0.4154 0.0
H5061 H 0.23117 0.41583 0.39111 0.0
H5062 H 0.23939 0.38086 0.38505 0.0
H5063 H 0.21846 0.276 0.31849 0.0
H5064 H 0.20757 0.28916 0.3499 0.0
H5065 H 0.24818 0.33761 0.3467 0.0
H5066 H 0.25909 0.32473 0.31531 0.0
H5067 H 0.21331 0.34917 0.36276 0.0
H5068 H 0.26039 0.29581 0.36859 0.0
H5069 H 0.27007 0.26126 0.36305 0.0
H5070 H 0.21964 0.24074 0.39178 0.0
H5071 H 0.20961 0.27521 0.39733 0.0
C5072 C 0.25995 0.35731 0.44587 0.0
C5073 C 0.24794 0.36517 0.46026 0.0
C5074 C 0.25229 0.34821 0.42913 0.0
C5075 C 0.23253 0.34671 0.42655 0.0
C5076 C 0.22045 0.35459 0.44077 0.0
C5077 C 0.2281 0.3639 0.45746 0.0
C5078 C 0.22504 0.33705 0.40861 0.0
C5079 C 0.22886 0.31703 0.40511 0.0
C5080 C 0.21802 0.34834 0.39352 0.0
C5081 C 0.21309 0.36929 0.39683 0.0
C5082 C 0.1956 0.37419 0.40529 0.0
C5083 C 0.19108 0.39401 0.40876 0.0
C5084 C 0.20391 0.409 0.40367 0.0
C5085 C 0.22126 0.4042 0.39507 0.0
C5086 C 0.22586 0.3844 0.39162 0.0
C5087 C 0.22498 0.28956 0.32438 0.0
C5088 C 0.23989 0.29917 0.31456 0.0
C5089 C 0.21862 0.2971 0.34225 0.0
C5090 C 0.2271 0.3143 0.35056 0.0
C5091 C 0.24136 0.32438 0.3404 0.0
C5092 C 0.24774 0.31687 0.32258 0.0
C5093 C 0.22316 0.32064 0.37078 0.0
C5094 C 0.21734 0.34007 0.37465 0.0
C5095 C 0.22802 0.30865 0.38631 0.0
C5096 C 0.23417 0.28801 0.38318 0.0
C5097 C 0.25134 0.28391 0.37364 0.0
C5098 C 0.25689 0.26436 0.37051 0.0
C5099 C 0.24544 0.24881 0.37701 0.0
C5100 C 0.22846 0.2528 0.38672 0.0
C5101 C 0.22285 0.27233 0.38987 0.0
H5102 H 0.24976 0.23369 0.37456 0.0
H5103 H 0.2004 0.42433 0.40636 0.0
H5104 H 0.30177 0.40413 0.49188 0.0
H5105 H 0.33403 0.41816 0.49355 0.0
H5106 H 0.31324 0.46995 0.52411 0.0
H5107 H 0.28081 0.45592 0.52236 0.0
H5108 H 0.34822 0.4755 0.4994 0.0
H5109 H 0.3217 0.4347 0.55085 0.0
H5110 H 0.3049 0.4044 0.56102 0.0
H5111 H 0.34852 0.36894 0.53512 0.0
H5112 H 0.36539 0.39901 0.52448 0.0
H5113 H 0.43124 0.49916 0.55373 0.0
H5114 H 0.39745 0.49056 0.54883 0.0
H5115 H 0.41264 0.4344 0.52247 0.0
H5116 H 0.44629 0.44308 0.52696 0.0
H5117 H 0.37998 0.43214 0.54547 0.0
H5118 H 0.40652 0.46858 0.49384 0.0
H5119 H 0.42386 0.49607 0.47875 0.0
H5120 H 0.38205 0.53663 0.49992 0.0
H5121 H 0.36463 0.5094 0.51548 0.0
C5122 C 0.30403 0.41876 0.49841 0.0
C5123 C 0.28908 0.42874 0.50755 0.0
C5124 C 0.32239 0.42682 0.49921 0.0
C5125 C 0.32597 0.4448 0.50941 0.0
C5126 C 0.31069 0.45599 0.51628 0.0
C5127 C 0.29222 0.44798 0.5153 0.0
C5128 C 0.34538 0.44959 0.51642 0.0
C5129 C 0.3551 0.46627 0.50971 0.0
C5130 C 0.3544 0.43712 0.52947 0.0
C5131 C 0.34475 0.41911 0.53677 0.0
C5132 C 0.32768 0.42044 0.54729 0.0
C5133 C 0.31814 0.40331 0.55312 0.0
C5134 C 0.32563 0.38476 0.54869 0.0
C5135 C 0.34273 0.38331 0.53853 0.0
C5136 C 0.3523 0.4004 0.53261 0.0
C5137 C 0.42729 0.48473 0.54751 0.0
C5138 C 0.44123 0.47178 0.54062 0.0
C5139 C 0.40806 0.47991 0.54457 0.0
C5140 C 0.40267 0.462 0.53501 0.0
C5141 C 0.41656 0.44832 0.5298 0.0
C5142 C 0.43573 0.45327 0.53239 0.0
C5143 C 0.38285 0.45824 0.52867 0.0
C5144 C 0.37304 0.44162 0.53543 0.0
C5145 C 0.37396 0.47052 0.51534 0.0
C5146 C 0.38442 0.48699 0.50611 0.0
C5147 C 0.40114 0.4834 0.4955 0.0
C5148 C 0.41097 0.49892 0.48681 0.0
C5149 C 0.40411 0.5181 0.48844 0.0
C5150 C 0.38738 0.52177 0.49872 0.0
C5151 C 0.37753 0.5063 0.50749 0.0
H5152 H 0.41171 0.53009 0.48167 0.0
H5153 H 0.3182 0.37151 0.55314 0.0
H5154 H 0.79037 0.07736 0.4676 0.0
H5155 H 0.81841 0.05667 0.47027 0.0
H5156 H 0.84482 0.10118 0.50842 0.0
H5157 H 0.81715 0.12185 0.50541 0.0
H5158 H 0.8675 0.09191 0.47929 0.0
H5159 H 0.82841 0.05558 0.52427 0.0
H5160 H 0.80048 0.03598 0.53457 0.0
H5161 H 0.81156 0.9919 0.49 0.0
H5162 H 0.83945 0.01135 0.47929 0.0
H5163 H 0.94355 0.04764 0.52505 0.0
H5164 H 0.91291 0.06159 0.51746 0.0
H5165 H 0.90303 0.01565 0.4735 0.0
H5166 H 0.93394 0.00161 0.48084 0.0
H5167 H 0.87165 0.02269 0.49975 0.0
H5168 H 0.91305 0.05781 0.45755 0.0
H5169 H 0.94124 0.07746 0.44803 0.0
H5170 H 0.92575 0.1242 0.48821 0.0
H5171 H 0.89762 0.10473 0.49818 0.0
C5172 C 0.8021 0.08248 0.47677 0.0
C5173 C 0.80192 0.10132 0.48595 0.0
C5174 C 0.81805 0.07068 0.47832 0.0
C5175 C 0.83378 0.07747 0.48941 0.0
C5176 C 0.83297 0.09578 0.49954 0.0
C5177 C 0.81722 0.10764 0.49775 0.0
C5178 C 0.85177 0.06657 0.48932 0.0
C5179 C 0.86841 0.07683 0.48395 0.0
C5180 C 0.85282 0.04661 0.49455 0.0
C5181 C 0.83588 0.03506 0.50081 0.0
C5182 C 0.82478 0.04181 0.51653 0.0
C5183 C 0.80898 0.0307 0.52248 0.0
C5184 C 0.8042 0.01274 0.5129 0.0
C5185 C 0.81524 0.00583 0.49738 0.0
C5186 C 0.83106 0.01689 0.49137 0.0
C5187 C 0.93489 0.04044 0.51379 0.0
C5188 C 0.94116 0.02351 0.50355 0.0
C5189 C 0.91743 0.04849 0.50941 0.0
C5190 C 0.90584 0.0397 0.49485 0.0
C5191 C 0.91186 0.02264 0.48476 0.0
C5192 C 0.9295 0.01469 0.48895 0.0
C5193 C 0.88733 0.04839 0.49057 0.0
C5194 C 0.87064 0.0377 0.49491 0.0
C5195 C 0.88618 0.06803 0.4845 0.0
C5196 C 0.90328 0.0797 0.47874 0.0
C5197 C 0.91575 0.07219 0.46451 0.0
C5198 C 0.9317 0.08332 0.45899 0.0
C5199 C 0.9353 0.10205 0.46754 0.0
C5200 C 0.92296 0.10969 0.48161 0.0
C5201 C 0.90699 0.09861 0.48718 0.0
H5202 H 0.94765 0.11065 0.46324 0.0
H5203 H 0.79198 0.00415 0.51755 0.0
H5204 H 0.65124 0.04594 0.30662 0.0
H5205 H 0.67075 0.07365 0.29594 0.0
H5206 H 0.62912 0.08534 0.2521 0.0
H5207 H 0.60987 0.05698 0.26243 0.0
H5208 H 0.66216 0.08581 0.2364 0.0
H5209 H 0.63722 0.11686 0.29352 0.0
H5210 H 0.62844 0.11993 0.32805 0.0
H5211 H 0.68711 0.11672 0.34431 0.0
H5212 H 0.69624 0.11317 0.3099 0.0
H5213 H 0.71351 0.17712 0.21596 0.0
H5214 H 0.69047 0.1503 0.22215 0.0
H5215 H 0.72752 0.1289 0.2662 0.0
H5216 H 0.75004 0.1561 0.26052 0.0
H5217 H 0.69351 0.13594 0.28047 0.0
H5218 H 0.7173 0.10291 0.22183 0.0
H5219 H 0.7247 0.1004 0.18691 0.0
H5220 H 0.66617 0.1096 0.17316 0.0
H5221 H 0.65845 0.11239 0.208 0.0
C5222 C 0.64594 0.05485 0.29518 0.0
C5223 C 0.62892 0.04959 0.28559 0.0
C5224 C 0.65715 0.07066 0.28898 0.0
C5225 C 0.65133 0.08182 0.27334 0.0
C5226 C 0.63393 0.07698 0.26418 0.0
C5227 C 0.62288 0.0609 0.27017 0.0
C5228 C 0.66407 0.0976 0.26582 0.0
C5229 C 0.66877 0.097 0.24599 0.0
C5230 C 0.67281 0.11214 0.27831 0.0
C5231 C 0.66741 0.11463 0.29908 0.0
C5232 C 0.64826 0.11669 0.30445 0.0
C5233 C 0.64321 0.11852 0.32402 0.0
C5234 C 0.6572 0.11854 0.33837 0.0
C5235 C 0.67628 0.11673 0.33318 0.0
C5236 C 0.6814 0.1148 0.31364 0.0
C5237 C 0.71696 0.1662 0.22641 0.0
C5238 C 0.73351 0.16844 0.23769 0.0
C5239 C 0.70379 0.15093 0.23001 0.0
C5240 C 0.70722 0.13762 0.24472 0.0
C5241 C 0.7245 0.13907 0.25488 0.0
C5242 C 0.73744 0.15446 0.25153 0.0
C5243 C 0.69212 0.12368 0.25123 0.0
C5244 C 0.68684 0.12479 0.27088 0.0
C5245 C 0.68267 0.10987 0.23851 0.0
C5246 C 0.68734 0.10807 0.21755 0.0
C5247 C 0.70604 0.10455 0.21137 0.0
C5248 C 0.71028 0.10304 0.19158 0.0
C5249 C 0.69593 0.1049 0.17782 0.0
C5250 C 0.67728 0.10819 0.18383 0.0
C5251 C 0.67296 0.10972 0.20359 0.0
H5252 H 0.69925 0.10374 0.16252 0.0
H5253 H 0.65326 0.11997 0.3535 0.0
H5254 H 0.69687 0.92325 0.96335 0.0
H5255 H 0.66372 0.9325 0.96058 0.0
H5256 H 0.64913 0.89714 0.00934 0.0
H5257 H 0.68245 0.88794 0.01246 0.0
H5258 H 0.62084 0.89719 0.97616 0.0
H5259 H 0.65676 0.93987 0.02138 0.0
H5260 H 0.68389 0.96141 0.03169 0.0
H5261 H 0.67283 1e-05 0.9852 0.0
H5262 H 0.64579 0.97849 0.97442 0.0
H5263 H 0.5391 0.94689 0.01292 0.0
H5264 H 0.56804 0.92869 0.00606 0.0
H5265 H 0.58786 0.97513 0.96932 0.0
H5266 H 0.55922 0.99366 0.97665 0.0
H5267 H 0.61343 0.96806 0.99476 0.0
H5268 H 0.5752 0.92729 0.9513 0.0
H5269 H 0.54785 0.90596 0.94118 0.0
H5270 H 0.56241 0.86411 0.9837 0.0
H5271 H 0.58972 0.88529 0.99426 0.0
C5272 C 0.68659 0.9171 0.97328 0.0
C5273 C 0.69231 0.90513 0.98835 0.0
C5274 C 0.66766 0.92236 0.97162 0.0
C5275 C 0.65411 0.91558 0.98484 0.0
C5276 C 0.65945 0.90245 -0.00101 0.0
C5277 C 0.67848 0.89734 0.00082 0.0
C5278 C 0.63512 0.92434 0.98544 0.0
C5279 C 0.61907 0.91263 0.98035 0.0
C5280 C 0.63305 0.94455 0.99057 0.0
C5281 C 0.64942 0.95742 0.99693 0.0
C5282 C 0.66025 0.95281 0.01321 0.0
C5283 C 0.67558 0.96505 0.01918 0.0
C5284 C 0.68012 0.98203 0.00907 0.0
C5285 C 0.66932 0.98683 0.99299 0.0
C5286 C 0.65399 0.97462 0.98695 0.0
C5287 C 0.54947 0.95302 0.00309 0.0
C5288 C 0.54703 0.97177 0.99546 0.0
C5289 C 0.56596 0.94255 -0.00092 0.0
C5290 C 0.5801 0.95049 0.98709 0.0
C5291 C 0.57718 0.96875 0.97868 0.0
C5292 C 0.56085 0.97935 0.98292 0.0
C5293 C 0.59884 0.94107 0.98523 0.0
C5294 C 0.615 0.95266 0.99028 0.0
C5295 C 0.60088 0.92079 0.98003 0.0
C5296 C 0.58444 0.90799 0.97369 0.0
C5297 C 0.5725 0.91361 0.95861 0.0
C5298 C 0.55701 0.90153 0.95276 0.0
C5299 C 0.55337 0.88371 0.96182 0.0
C5300 C 0.56524 0.87792 0.9767 0.0
C5301 C 0.58074 0.88995 0.9826 0.0
H5302 H 0.54138 0.87439 0.95728 0.0
H5303 H 0.69197 0.9915 0.01373 0.0
H5304 H 0.37421 0.48414 0.2379 0.0
H5305 H 0.3551 0.46052 0.21793 0.0
H5306 H 0.33224 0.4352 0.26963 0.0
H5307 H 0.35111 0.45862 0.28967 0.0
H5308 H 0.3562 0.41839 0.21846 0.0
H5309 H 0.29206 0.42813 0.26667 0.0
H5310 H 0.27412 0.45496 0.28285 0.0
H5311 H 0.28717 0.49297 0.23593 0.0
H5312 H 0.30547 0.46644 0.2197 0.0
H5313 H 0.3097 0.33403 0.24175 0.0
H5314 H 0.32542 0.3653 0.2361 0.0
H5315 H 0.27814 0.38257 0.20119 0.0
H5316 H 0.26181 0.35071 0.20726 0.0
H5317 H 0.28674 0.41009 0.22874 0.0
H5318 H 0.32325 0.3778 0.18022 0.0
H5319 H 0.34152 0.35075 0.16502 0.0
H5320 H 0.38357 0.3574 0.20996 0.0
H5321 H 0.36549 0.38428 0.22559 0.0
C5322 C 0.36506 0.47358 0.24504 0.0
C5323 C 0.3642 0.4733 0.26544 0.0
C5324 C 0.35412 0.46017 0.23357 0.0
C5325 C 0.34202 0.4464 0.2423 0.0
C5326 C 0.34116 0.44605 0.26261 0.0
C5327 C 0.35208 0.45937 0.27406 0.0
C5328 C 0.33105 0.43134 0.2306 0.0
C5329 C 0.34095 0.41666 0.22025 0.0
C5330 C 0.31113 0.42952 0.23239 0.0
C5331 C 0.30002 0.44535 0.242 0.0
C5332 C 0.29101 0.4422 0.25981 0.0
C5333 C 0.28088 0.45737 0.26902 0.0
C5334 C 0.27949 0.47565 0.26041 0.0
C5335 C 0.2883 0.47882 0.24261 0.0
C5336 C 0.29864 0.46377 0.23346 0.0
C5337 C 0.30263 0.3443 0.23264 0.0
C5338 C 0.28435 0.34004 0.22521 0.0
C5339 C 0.31184 0.36214 0.22914 0.0
C5340 C 0.30316 0.37623 0.21794 0.0
C5341 C 0.28518 0.37179 0.20973 0.0
C5342 C 0.27587 0.35366 0.21319 0.0
C5343 C 0.31203 0.39631 0.2176 0.0
C5344 C 0.3018 0.41203 0.22588 0.0
C5345 C 0.33169 0.39906 0.21368 0.0
C5346 C 0.34298 0.38318 0.20405 0.0
C5347 C 0.33638 0.3735 0.18689 0.0
C5348 C 0.34671 0.35817 0.1782 0.0
C5349 C 0.3637 0.35238 0.18651 0.0
C5350 C 0.37043 0.36194 0.2035 0.0
C5351 C 0.36018 0.37729 0.21224 0.0
H5352 H 0.37164 0.34047 0.17979 0.0
H5353 H 0.27158 0.48735 0.26753 0.0
H5354 H 0.22586 0.58016 0.98432 0.0
H5355 H 0.20385 0.56471 0.00655 0.0
H5356 H 0.17187 0.61834 0.01078 0.0
H5357 H 0.19493 0.63443 0.98941 0.0
H5358 H 0.17463 0.60488 0.04478 0.0
H5359 H 0.15703 0.57412 0.98318 0.0
H5360 H 0.16197 0.55578 0.95213 0.0
H5361 H 0.18231 0.50629 0.9826 0.0
H5362 H 0.17768 0.52442 0.01383 0.0
H5363 H 0.08356 0.56773 0.06346 0.0
H5364 H 0.11462 0.58297 0.05931 0.0
H5365 H 0.1404 0.52603 0.06352 0.0
H5366 H 0.10881 0.51054 0.0668 0.0
H5367 H 0.14517 0.53904 0.02933 0.0
H5368 H 0.15513 0.57015 0.09208 0.0
H5369 H 0.14626 0.5895 0.12152 0.0
H5370 H 0.13578 0.63982 0.08732 0.0
H5371 H 0.14434 0.62075 0.05765 0.0
C5372 C 0.21394 0.58859 0.98967 0.0
C5373 C 0.21193 0.60843 0.98491 0.0
C5374 C 0.20133 0.57971 0.00244 0.0
C5375 C 0.18595 0.59019 0.01017 0.0
C5376 C 0.18364 0.60993 0.00506 0.0
C5377 C 0.19665 0.61905 0.99269 0.0
C5378 C 0.17249 0.58061 0.02376 0.0
C5379 C 0.16803 0.59054 0.04137 0.0
C5380 C 0.16435 0.56161 0.01964 0.0
C5381 C 0.16722 0.55072 0.00084 0.0
C5382 C 0.16269 0.55938 0.98325 0.0
C5383 C 0.16541 0.54901 0.96562 0.0
C5384 C 0.17251 0.52991 0.96539 0.0
C5385 C 0.17685 0.52111 0.9828 0.0
C5386 C 0.17417 0.53141 0.00047 0.0
C5387 C 0.09593 0.5586 0.06453 0.0
C5388 C 0.09385 0.53795 0.06495 0.0
C5389 C 0.11382 0.56738 0.06228 0.0
C5390 C 0.12996 0.55566 0.06077 0.0
C5391 C 0.12812 0.53536 0.06445 0.0
C5392 C 0.11008 0.5265 0.06649 0.0
C5393 C 0.14687 0.56341 0.05031 0.0
C5394 C 0.15204 0.55316 0.03312 0.0
C5395 C 0.1552 0.58231 0.05464 0.0
C5396 C 0.15038 0.59395 0.07259 0.0
C5397 C 0.15087 0.58531 0.09081 0.0
C5398 C 0.1459 0.59624 0.10755 0.0
C5399 C 0.14045 0.61587 0.10629 0.0
C5400 C 0.14003 0.62463 0.08829 0.0
C5401 C 0.145 0.61378 0.07151 0.0
H5402 H 0.13658 0.62429 0.11926 0.0
H5403 H 0.1746 0.52191 0.95173 0.0
H5404 H 0.66148 0.96256 0.32081 0.0
H5405 H 0.68541 0.93706 0.31881 0.0
H5406 H 0.68493 0.93918 0.25647 0.0
H5407 H 0.66095 0.96457 0.25821 0.0
H5408 H 0.66839 0.90426 0.27458 0.0
H5409 H 0.72497 0.94754 0.27798 0.0
H5410 H 0.74599 0.97292 0.29377 0.0
H5411 H 0.75157 0.93687 0.34326 0.0
H5412 H 0.7304 0.91136 0.32787 0.0
H5413 H 0.72088 0.82551 0.23925 0.0
H5414 H 0.70798 0.85793 0.24712 0.0
H5415 H 0.72627 0.85376 0.3065 0.0
H5416 H 0.73967 0.8215 0.29863 0.0
H5417 H 0.73409 0.88955 0.29447 0.0
H5418 H 0.67993 0.84774 0.2956 0.0
H5419 H 0.65691 0.82149 0.28519 0.0
H5420 H 0.6434 0.85359 0.23467 0.0
H5421 H 0.66654 0.87994 0.24464 0.0
C5422 C 0.66692 0.95812 0.30668 0.0
C5423 C 0.6588 0.96498 0.2896 0.0
C5424 C 0.68075 0.94368 0.30561 0.0
C5425 C 0.68665 0.93616 0.2875 0.0
C5426 C 0.6804 0.94484 0.27057 0.0
C5427 C 0.66657 0.9592 0.2716 0.0
C5428 C 0.69486 0.91641 0.28592 0.0
C5429 C 0.68289 0.90108 0.27857 0.0
C5430 C 0.71322 0.91219 0.29261 0.0
C5431 C 0.72591 0.92761 0.30183 0.0
C5432 C 0.73051 0.9451 0.29231 0.0
C5433 C 0.74251 0.95949 0.30117 0.0
C5434 C 0.75007 0.95654 0.31953 0.0
C5435 C 0.74569 0.93915 0.32905 0.0
C5436 C 0.73372 0.92471 0.32025 0.0
C5437 C 0.72203 0.83142 0.254 0.0
C5438 C 0.73122 0.82096 0.26832 0.0
C5439 C 0.71467 0.84993 0.25849 0.0
C5440 C 0.71603 0.85812 0.27744 0.0
C5441 C 0.72513 0.8477 0.29179 0.0
C5442 C 0.73269 0.82925 0.28727 0.0
C5443 C 0.70792 0.87763 0.28206 0.0
C5444 C 0.71965 0.89276 0.29034 0.0
C5445 C 0.689 0.88164 0.277 0.0
C5446 C 0.67514 0.86575 0.27078 0.0
C5447 C 0.67219 0.84913 0.28217 0.0
C5448 C 0.65909 0.83425 0.27637 0.0
C5449 C 0.64874 0.83585 0.25926 0.0
C5450 C 0.65145 0.85236 0.24792 0.0
C5451 C 0.66454 0.86729 0.25365 0.0
H5452 H 0.63861 0.82431 0.2548 0.0
H5453 H 0.75935 0.9677 0.32636 0.0
H5454 H 0.86538 0.07724 0.82353 0.0
H5455 H 0.84244 0.10366 0.82306 0.0
H5456 H 0.82097 0.08044 0.76797 0.0
H5457 H 0.84516 0.05493 0.76778 0.0
H5458 H 0.82329 0.11658 0.76545 0.0
H5459 H 0.79576 0.07759 0.81468 0.0
H5460 H 0.79458 0.05855 0.84447 0.0
H5461 H 0.81066 0.11065 0.87838 0.0
H5462 H 0.81217 0.12996 0.84878 0.0
H5463 H 0.74956 0.18467 0.76761 0.0
H5464 H 0.76222 0.15232 0.77414 0.0
H5465 H 0.80392 0.17975 0.81278 0.0
H5466 H 0.79157 0.21232 0.80614 0.0
H5467 H 0.78688 0.13932 0.82332 0.0
H5468 H 0.81833 0.17575 0.77129 0.0
H5469 H 0.81651 0.19429 0.74128 0.0
H5470 H 0.78926 0.14426 0.71206 0.0
H5471 H 0.79055 0.12556 0.74208 0.0
C5472 C 0.85564 0.07776 0.8114 0.0
C5473 C 0.85692 0.06415 0.7957 0.0
C5474 C 0.84236 0.09274 0.81122 0.0
C5475 C 0.82953 0.09388 0.79571 0.0
C5476 C 0.83063 0.07993 0.78014 0.0
C5477 C 0.8444 0.06535 0.78002 0.0
C5478 C 0.816 0.11046 0.7951 0.0
C5479 C 0.81505 0.12115 0.77804 0.0
C5480 C 0.80526 0.11676 0.81153 0.0
C5481 C 0.80419 0.10522 0.82945 0.0
C5482 C 0.79915 0.08498 0.82847 0.0
C5483 C 0.7984 0.07413 0.84533 0.0
C5484 C 0.80257 0.08338 0.8633 0.0
C5485 C 0.80743 0.1035 0.86445 0.0
C5486 C 0.80819 0.11442 0.84764 0.0
C5487 C 0.76111 0.18385 0.7779 0.0
C5488 C 0.76982 0.20112 0.78606 0.0
C5489 C 0.76826 0.16532 0.78165 0.0
C5490 C 0.78406 0.16375 0.79379 0.0
C5491 C 0.79167 0.18073 0.80339 0.0
C5492 C 0.78469 0.19932 0.79946 0.0
C5493 C 0.79455 0.14512 0.7939 0.0
C5494 C 0.79494 0.13425 0.81078 0.0
C5495 C 0.80446 0.13835 0.77724 0.0
C5496 C 0.80438 0.14932 0.75898 0.0
C5497 C 0.81185 0.16874 0.7585 0.0
C5498 C 0.81092 0.17928 0.74149 0.0
C5499 C 0.80277 0.17047 0.72476 0.0
C5500 C 0.79557 0.15107 0.72502 0.0
C5501 C 0.7964 0.14049 0.74204 0.0
H5502 H 0.80205 0.17866 0.71161 0.0
H5503 H 0.80201 0.07495 0.87633 0.0
loop_
_geom_bond_atom_site_label_1
_geom_bond_atom_site_label_2
_geom_bond_distance
_geom_bond_site_symmetry_2
_ccdc_geom_bond_type
Mg0 O1 2.028 . S
Mg0 O7 1.986 . S
Mg0 O9 2.114 1_455 S
Mg0 O10 2.251 1_455 S
Mg0 O13 2.010 . S
O1 Mg0 2.028 . S
O1 C4 1.250 . S
O2 Mg3 2.028 . S
O2 C4 1.248 1_655 S
Mg3 O2 2.028 . S
Mg3 O8 2.032 . S
Mg3 O10 2.079 . S
C4 O1 1.250 . S
C4 O2 1.248 1_455 S
C5 O6 1.264 . S
C5 O13 1.249 . S
O6 C5 1.264 . S
O7 Mg0 1.986 . S
O7 C11 1.246 . S
O8 Mg3 2.032 . S
O8 C11 1.259 1_655 S
O9 Mg0 2.114 1_655 S
O9 C12 1.252 . S
O10 Mg0 2.251 1_655 S
O10 Mg3 2.079 . S
O10 C12 1.273 . S
C11 O7 1.246 . S
C11 O8 1.259 1_455 S
C12 O9 1.252 . S
C12 O10 1.273 . S
O13 Mg0 2.010 . S
O13 C5 1.249 . S
Mg14 O15 2.028 . S
Mg14 O21 1.986 . S
Mg14 O23 2.114 1_455 S
Mg14 O24 2.251 1_455 S
Mg14 O27 2.010 . S
O15 Mg14 2.028 . S
O15 C18 1.250 . S
O16 Mg17 2.028 . S
O16 C18 1.248 1_655 S
Mg17 O16 2.028 . S
Mg17 O22 2.032 . S
Mg17 O24 2.079 . S
C18 O15 1.250 . S
C18 O16 1.248 1_455 S
C19 O20 1.264 . S
C19 O27 1.249 . S
O20 C19 1.264 . S
O21 Mg14 1.986 . S
O21 C25 1.246 . S
O22 Mg17 2.032 . S
O22 C25 1.259 1_655 S
O23 Mg14 2.114 1_655 S
O23 C26 1.252 . S
O24 Mg14 2.251 1_655 S
O24 Mg17 2.079 . S
O24 C26 1.273 . S
C25 O21 1.246 . S
C25 O22 1.259 1_455 S
C26 O23 1.252 . S
C26 O24 1.273 . S
O27 Mg14 2.010 . S
O27 C19 1.249 . S
Mg28 O29 2.028 . S
Mg28 O35 1.986 . S
Mg28 O37 2.114 . S
Mg28 O38 2.251 . S
Mg28 O41 2.010 . S
O29 Mg28 2.028 . S
O29 C32 1.250 . S
O30 Mg31 2.028 . S
O30 C32 1.248 . S
Mg31 O30 2.028 . S
Mg31 O36 2.032 . S
Mg31 O38 2.079 . S
C32 O29 1.250 . S
C32 O30 1.248 . S
C33 O34 1.264 . S
C33 O41 1.249 . S
O34 C33 1.264 . S
O35 Mg28 1.986 . S
O35 C39 1.246 . S
O36 Mg31 2.032 . S
O36 C39 1.259 . S
O37 Mg28 2.114 . S
O37 C40 1.252 . S
O38 Mg28 2.251 . S
O38 Mg31 2.079 . S
O38 C40 1.273 . S
C39 O35 1.246 . S
C39 O36 1.259 . S
C40 O37 1.252 . S
C40 O38 1.273 . S
O41 Mg28 2.010 . S
O41 C33 1.249 . S
Mg42 O43 2.028 . S
Mg42 O49 1.986 . S
Mg42 O51 2.114 . S
Mg42 O52 2.251 . S
Mg42 O55 2.010 . S
O43 Mg42 2.028 . S
O43 C46 1.250 . S
O44 Mg45 2.028 . S
O44 C46 1.248 . S
Mg45 O44 2.028 . S
Mg45 O50 2.032 . S
Mg45 O52 2.079 . S
C46 O43 1.250 . S
C46 O44 1.248 . S
C47 O48 1.264 . S
C47 O55 1.249 . S
O48 C47 1.264 . S
O49 Mg42 1.986 . S
O49 C53 1.246 . S
O50 Mg45 2.032 . S
O50 C53 1.259 . S
O51 Mg42 2.114 . S
O51 C54 1.252 . S
O52 Mg42 2.251 . S
O52 Mg45 2.079 . S
O52 C54 1.273 . S
C53 O49 1.246 . S
C53 O50 1.259 . S
C54 O51 1.252 . S
C54 O52 1.273 . S
O55 Mg42 2.010 . S
O55 C47 1.249 . S
Mg56 O57 2.028 . S
Mg56 O63 1.986 1_545 S
Mg56 O65 2.114 . S
Mg56 O66 2.251 . S
Mg56 O69 2.010 . S
O57 Mg56 2.028 . S
O57 C60 1.250 . S
O58 Mg59 2.028 . S
O58 C60 1.248 . S
Mg59 O58 2.028 . S
Mg59 O64 2.032 1_545 S
Mg59 O66 2.079 . S
C60 O57 1.250 . S
C60 O58 1.248 . S
C61 O62 1.289 . S
C61 O69 1.249 . S
O62 C61 1.289 . S
O63 Mg56 1.986 1_565 S
O63 C67 1.246 . S
O64 Mg59 2.032 1_565 S
O64 C67 1.259 . S
O65 Mg56 2.114 . S
O65 C68 1.252 . S
O66 Mg56 2.251 . S
O66 Mg59 2.079 . S
O66 C68 1.273 . S
C67 O63 1.246 . S
C67 O64 1.259 . S
C68 O65 1.252 . S
C68 O66 1.273 . S
O69 Mg56 2.010 . S
O69 C61 1.249 . S
Mg70 O71 2.028 . S
Mg70 O77 1.986 . S
Mg70 O79 2.114 . S
Mg70 O80 2.251 . S
Mg70 O83 2.010 . S
O71 Mg70 2.028 . S
O71 C74 1.250 . S
O72 Mg73 2.028 . S
O72 C74 1.248 . S
Mg73 O72 2.028 . S
Mg73 O78 2.032 . S
Mg73 O80 2.079 . S
C74 O71 1.250 . S
C74 O72 1.248 . S
C75 O76 1.264 . S
C75 O83 1.249 . S
O76 C75 1.264 . S
O77 Mg70 1.986 . S
O77 C81 1.246 . S
O78 Mg73 2.032 . S
O78 C81 1.259 . S
O79 Mg70 2.114 . S
O79 C82 1.252 . S
O80 Mg70 2.251 . S
O80 Mg73 2.079 . S
O80 C82 1.273 . S
C81 O77 1.246 . S
C81 O78 1.259 . S
C82 O79 1.252 . S
C82 O80 1.273 . S
O83 Mg70 2.010 . S
O83 C75 1.249 . S
Mg84 O85 2.028 1_545 S
Mg84 O91 1.986 . S
Mg84 O93 2.114 1_545 S
Mg84 O94 2.251 . S
Mg84 O97 2.010 . S
O85 Mg84 2.028 1_565 S
O85 C88 1.250 . S
O86 Mg87 2.028 1_565 S
O86 C88 1.248 . S
Mg87 O86 2.028 1_545 S
Mg87 O92 2.032 . S
Mg87 O94 2.079 . S
C88 O85 1.250 . S
C88 O86 1.248 . S
C89 O90 1.264 . S
C89 O97 1.249 . S
O90 C89 1.264 . S
O91 Mg84 1.986 . S
O91 C95 1.246 . S
O92 Mg87 2.032 . S
O92 C95 1.259 . S
O93 Mg84 2.114 1_565 S
O93 C96 1.267 . S
O94 Mg84 2.251 . S
O94 Mg87 2.079 . S
O94 C96 1.251 1_545 S
C95 O91 1.246 . S
C95 O92 1.259 . S
C96 O93 1.267 . S
C96 O94 1.251 1_565 S
O97 Mg84 2.010 . S
O97 C89 1.249 . S
Mg98 O99 2.057 . S
Mg98 O105 1.963 1_554 S
Mg98 O107 2.130 . S
Mg98 O108 2.253 . S
Mg98 O111 2.009 1_554 S
O99 Mg98 2.057 . S
O99 C102 1.250 . S
O100 Mg101 2.028 . S
O100 C102 1.248 . S
Mg101 O100 2.028 . S
Mg101 O106 2.032 1_554 S
Mg101 O108 2.079 . S
C102 O99 1.250 . S
C102 O100 1.248 . S
C103 O104 1.264 1_554 S
C103 O111 1.242 1_554 S
O104 C103 1.264 1_556 S
O105 Mg98 1.963 1_556 S
O105 C109 1.246 . S
O106 Mg101 2.032 1_556 S
O106 C109 1.259 . S
O107 Mg98 2.130 . S
O107 C110 1.252 . S
O108 Mg98 2.253 . S
O108 Mg101 2.079 . S
O108 C110 1.273 . S
C109 O105 1.246 . S
C109 O106 1.259 . S
C110 O107 1.252 . S
C110 O108 1.273 . S
O111 Mg98 2.009 1_556 S
O111 C103 1.242 1_556 S
Mg112 O113 2.028 1_554 S
Mg112 O119 1.986 . S
Mg112 O121 2.114 . S
Mg112 O122 2.251 . S
Mg112 O125 2.010 . S
O113 Mg112 2.028 1_556 S
O113 C116 1.250 . S
O114 Mg115 2.028 1_556 S
O114 C116 1.248 . S
Mg115 O114 2.028 1_554 S
Mg115 O120 2.032 . S
Mg115 O122 2.079 . S
C116 O113 1.250 . S
C116 O114 1.248 . S
C117 O118 1.264 . S
C117 O125 1.249 . S
O118 C117 1.264 . S
O119 Mg112 1.986 . S
O119 C123 1.246 . S
O120 Mg115 2.032 . S
O120 C123 1.259 . S
O121 Mg112 2.114 . S
O121 C124 1.252 . S
O122 Mg112 2.251 . S
O122 Mg115 2.079 . S
O122 C124 1.273 . S
C123 O119 1.246 . S
C123 O120 1.259 . S
C124 O121 1.252 . S
C124 O122 1.273 . S
O125 Mg112 2.010 . S
O125 C117 1.249 . S
Mg126 O127 2.028 . S
Mg126 O133 1.986 . S
Mg126 O135 2.114 . S
Mg126 O136 2.251 . S
Mg126 O139 2.010 . S
O127 Mg126 2.028 . S
O127 C130 1.250 . S
O128 Mg129 2.028 . S
O128 C130 1.248 . S
Mg129 O128 2.028 . S
Mg129 O134 2.032 . S
Mg129 O136 2.079 . S
C130 O127 1.250 . S
C130 O128 1.248 . S
C131 O132 1.264 . S
C131 O139 1.249 . S
O132 C131 1.264 . S
O133 Mg126 1.986 . S
O133 C137 1.246 . S
O134 Mg129 2.032 . S
O134 C137 1.259 . S
O135 Mg126 2.114 . S
O135 C138 1.252 . S
O136 Mg126 2.251 . S
O136 Mg129 2.079 . S
O136 C138 1.273 . S
C137 O133 1.246 . S
C137 O134 1.259 . S
C138 O135 1.252 . S
C138 O136 1.273 . S
O139 Mg126 2.010 . S
O139 C131 1.249 . S
Mg140 O141 2.028 . S
Mg140 O147 1.986 . S
Mg140 O149 2.114 . S
Mg140 O150 2.251 . S
Mg140 O153 2.010 . S
O141 Mg140 2.028 . S
O141 C144 1.250 . S
O142 Mg143 2.028 . S
O142 C144 1.248 . S
Mg143 O142 2.028 . S
Mg143 O148 2.032 . S
Mg143 O150 2.079 . S
C144 O141 1.250 . S
C144 O142 1.248 . S
C145 O146 1.264 . S
C145 O153 1.249 . S
O146 C145 1.264 . S
O147 Mg140 1.986 . S
O147 C151 1.246 . S
O148 Mg143 2.032 . S
O148 C151 1.259 . S
O149 Mg140 2.114 . S
O149 C152 1.252 . S
O150 Mg140 2.251 . S
O150 Mg143 2.079 . S
O150 C152 1.273 . S
C151 O147 1.246 . S
C151 O148 1.259 . S
C152 O149 1.252 . S
C152 O150 1.273 . S
O153 Mg140 2.010 . S
O153 C145 1.249 . S
Mg154 O155 2.028 . S
Mg154 O161 1.986 . S
Mg154 O163 2.114 . S
Mg154 O164 2.251 . S
Mg154 O167 2.010 . S
O155 Mg154 2.028 . S
O155 C158 1.250 . S
O156 Mg157 2.028 . S
O156 C158 1.248 . S
Mg157 O156 2.028 . S
Mg157 O162 2.032 . S
Mg157 O164 2.079 . S
C158 O155 1.250 . S
C158 O156 1.248 . S
C159 O160 1.264 . S
C159 O167 1.249 . S
O160 C159 1.264 . S
O161 Mg154 1.986 . S
O161 C165 1.246 . S
O162 Mg157 2.032 . S
O162 C165 1.259 . S
O163 Mg154 2.114 . S
O163 C166 1.252 . S
O164 Mg154 2.251 . S
O164 Mg157 2.079 . S
O164 C166 1.273 . S
C165 O161 1.246 . S
C165 O162 1.259 . S
C166 O163 1.252 . S
C166 O164 1.273 . S
O167 Mg154 2.010 . S
O167 C159 1.249 . S
Mg168 O169 2.028 . S
Mg168 O175 1.986 . S
Mg168 O177 2.114 1_455 S
Mg168 O178 2.251 1_455 S
Mg168 O181 2.010 . S
O169 Mg168 2.028 . S
O169 C172 1.250 . S
O170 Mg171 2.028 . S
O170 C172 1.248 1_655 S
Mg171 O170 2.028 . S
Mg171 O176 2.032 . S
Mg171 O178 2.079 . S
C172 O169 1.250 . S
C172 O170 1.248 1_455 S
C173 O174 1.264 . S
C173 O181 1.249 . S
O174 C173 1.264 . S
O175 Mg168 1.986 . S
O175 C179 1.246 . S
O176 Mg171 2.032 . S
O176 C179 1.259 1_655 S
O177 Mg168 2.114 1_655 S
O177 C180 1.252 . S
O178 Mg168 2.251 1_655 S
O178 Mg171 2.079 . S
O178 C180 1.273 . S
C179 O175 1.246 . S
C179 O176 1.259 1_455 S
C180 O177 1.252 . S
C180 O178 1.273 . S
O181 Mg168 2.010 . S
O181 C173 1.249 . S
Mg182 O183 2.028 . S
Mg182 O189 1.986 . S
Mg182 O191 2.114 1_455 S
Mg182 O192 2.251 1_455 S
Mg182 O195 2.010 . S
O183 Mg182 2.028 . S
O183 C186 1.250 . S
O184 Mg185 2.028 . S
O184 C186 1.248 1_655 S
Mg185 O184 2.028 . S
Mg185 O190 2.032 . S
Mg185 O192 2.079 . S
C186 O183 1.250 . S
C186 O184 1.248 1_455 S
C187 O188 1.264 . S
C187 O195 1.249 . S
O188 C187 1.264 . S
O189 Mg182 1.986 . S
O189 C193 1.246 . S
O190 Mg185 2.032 . S
O190 C193 1.259 1_655 S
O191 Mg182 2.114 1_655 S
O191 C194 1.252 . S
O192 Mg182 2.251 1_655 S
O192 Mg185 2.079 . S
O192 C194 1.273 . S
C193 O189 1.246 . S
C193 O190 1.259 1_455 S
C194 O191 1.252 . S
C194 O192 1.273 . S
O195 Mg182 2.010 . S
O195 C187 1.249 . S
Mg196 O197 2.028 . S
Mg196 O203 1.986 . S
Mg196 O205 2.114 . S
Mg196 O206 2.251 . S
Mg196 O209 2.010 . S
O197 Mg196 2.028 . S
O197 C200 1.250 . S
O198 Mg199 2.028 . S
O198 C200 1.248 . S
Mg199 O198 2.028 . S
Mg199 O204 2.032 . S
Mg199 O206 2.079 . S
C200 O197 1.250 . S
C200 O198 1.248 . S
C201 O202 1.264 . S
C201 O209 1.249 . S
O202 C201 1.264 . S
O203 Mg196 1.986 . S
O203 C207 1.246 . S
O204 Mg199 2.032 . S
O204 C207 1.259 . S
O205 Mg196 2.114 . S
O205 C208 1.252 . S
O206 Mg196 2.251 . S
O206 Mg199 2.079 . S
O206 C208 1.273 . S
C207 O203 1.246 . S
C207 O204 1.259 . S
C208 O205 1.252 . S
C208 O206 1.273 . S
O209 Mg196 2.010 . S
O209 C201 1.249 . S
Mg210 O211 2.028 . S
Mg210 O217 1.986 . S
Mg210 O219 2.114 . S
Mg210 O220 2.251 . S
Mg210 O223 2.010 . S
O211 Mg210 2.028 . S
O211 C214 1.250 . S
O212 Mg213 2.028 . S
O212 C214 1.248 . S
Mg213 O212 2.028 . S
Mg213 O218 2.032 . S
Mg213 O220 2.079 . S
C214 O211 1.250 . S
C214 O212 1.248 . S
C215 O216 1.264 . S
C215 O223 1.249 . S
O216 C215 1.264 . S
O217 Mg210 1.986 . S
O217 C221 1.246 . S
O218 Mg213 2.032 . S
O218 C221 1.259 . S
O219 Mg210 2.114 . S
O219 C222 1.252 . S
O220 Mg210 2.251 . S
O220 Mg213 2.079 . S
O220 C222 1.273 . S
C221 O217 1.246 . S
C221 O218 1.259 . S
C222 O219 1.252 . S
C222 O220 1.273 . S
O223 Mg210 2.010 . S
O223 C215 1.249 . S
Mg224 O225 2.065 . S
Mg224 O231 1.986 . S
Mg224 O233 2.114 . S
Mg224 O234 2.251 . S
Mg224 O237 2.010 . S
O225 Mg224 2.065 . S
O225 C228 1.229 1_545 S
O226 Mg227 2.028 1_565 S
O226 C228 1.248 . S
Mg227 O226 2.028 1_545 S
Mg227 O232 2.032 . S
Mg227 O234 2.079 . S
C228 O225 1.229 1_565 S
C228 O226 1.248 . S
C229 O230 1.264 . S
C229 O237 1.249 . S
O230 C229 1.264 . S
O231 Mg224 1.986 . S
O231 C235 1.246 . S
O232 Mg227 2.032 . S
O232 C235 1.259 . S
O233 Mg224 2.114 . S
O233 C236 1.252 . S
O234 Mg224 2.251 . S
O234 Mg227 2.079 . S
O234 C236 1.273 . S
C235 O231 1.246 . S
C235 O232 1.259 . S
C236 O233 1.252 . S
C236 O234 1.273 . S
O237 Mg224 2.010 . S
O237 C229 1.249 . S
Mg238 O239 2.028 . S
Mg238 O245 1.986 . S
Mg238 O247 2.114 . S
Mg238 O248 2.251 . S
Mg238 O251 2.010 . S
O239 Mg238 2.028 . S
O239 C242 1.250 . S
O240 Mg241 2.028 . S
O240 C242 1.248 . S
Mg241 O240 2.028 . S
Mg241 O246 2.032 . S
Mg241 O248 2.079 . S
C242 O239 1.250 . S
C242 O240 1.248 . S
C243 O244 1.264 . S
C243 O251 1.249 . S
O244 C243 1.264 . S
O245 Mg238 1.986 . S
O245 C249 1.246 . S
O246 Mg241 2.032 . S
O246 C249 1.259 . S
O247 Mg238 2.114 . S
O247 C250 1.252 . S
O248 Mg238 2.251 . S
O248 Mg241 2.079 . S
O248 C250 1.273 . S
C249 O245 1.246 . S
C249 O246 1.259 . S
C250 O247 1.252 . S
C250 O248 1.273 . S
O251 Mg238 2.010 . S
O251 C243 1.249 . S
Mg252 O253 2.028 1_565 S
Mg252 O259 1.986 . S
Mg252 O261 2.114 1_565 S
Mg252 O262 2.251 . S
Mg252 O265 2.010 . S
O253 Mg252 2.028 1_545 S
O253 C256 1.250 . S
O254 Mg255 2.028 1_545 S
O254 C256 1.248 . S
Mg255 O254 2.028 1_565 S
Mg255 O260 2.032 . S
Mg255 O262 2.079 . S
C256 O253 1.250 . S
C256 O254 1.248 . S
C257 O258 1.264 . S
C257 O265 1.249 . S
O258 C257 1.264 . S
O259 Mg252 1.986 . S
O259 C263 1.246 . S
O260 Mg255 2.032 . S
O260 C263 1.259 . S
O261 Mg252 2.114 1_545 S
O261 C264 1.252 . S
O262 Mg252 2.251 . S
O262 Mg255 2.079 . S
O262 C264 1.273 1_565 S
C263 O259 1.246 . S
C263 O260 1.259 . S
C264 O261 1.252 . S
C264 O262 1.273 1_545 S
O265 Mg252 2.010 . S
O265 C257 1.249 . S
Mg266 O267 2.028 1_554 S
Mg266 O273 1.986 . S
Mg266 O275 2.113 . S
Mg266 O276 2.251 . S
Mg266 O279 2.010 . S
O267 Mg266 2.028 1_556 S
O267 C270 1.250 . S
O268 Mg269 2.028 1_556 S
O268 C270 1.248 . S
Mg269 O268 2.028 1_554 S
Mg269 O274 2.032 . S
Mg269 O276 2.079 . S
C270 O267 1.250 . S
C270 O268 1.248 . S
C271 O272 1.264 . S
C271 O279 1.249 . S
O272 C271 1.264 . S
O273 Mg266 1.986 . S
O273 C277 1.246 . S
O274 Mg269 2.032 . S
O274 C277 1.259 . S
O275 Mg266 2.113 . S
O275 C278 1.251 . S
O276 Mg266 2.251 . S
O276 Mg269 2.079 . S
O276 C278 1.273 . S
C277 O273 1.246 . S
C277 O274 1.259 . S
C278 O275 1.251 . S
C278 O276 1.273 . S
O279 Mg266 2.010 . S
O279 C271 1.249 . S
Mg280 O281 2.028 1_556 S
Mg280 O287 1.986 . S
Mg280 O289 2.114 1_556 S
Mg280 O290 2.251 . S
Mg280 O293 2.010 . S
O281 Mg280 2.028 1_554 S
O281 C284 1.250 . S
O282 Mg283 2.028 1_554 S
O282 C284 1.248 . S
Mg283 O282 2.028 1_556 S
Mg283 O288 2.032 . S
Mg283 O290 2.079 . S
C284 O281 1.250 . S
C284 O282 1.248 . S
C285 O286 1.264 . S
C285 O293 1.249 . S
O286 C285 1.264 . S
O287 Mg280 1.986 . S
O287 C291 1.246 . S
O288 Mg283 2.032 . S
O288 C291 1.259 . S
O289 Mg280 2.114 1_554 S
O289 C292 1.252 . S
O290 Mg280 2.251 . S
O290 Mg283 2.079 . S
O290 C292 1.273 1_556 S
C291 O287 1.246 . S
C291 O288 1.259 . S
C292 O289 1.252 . S
C292 O290 1.273 1_554 S
O293 Mg280 2.010 . S
O293 C285 1.249 . S
Mg294 O295 2.028 . S
Mg294 O301 1.986 . S
Mg294 O303 2.114 . S
Mg294 O304 2.251 . S
Mg294 O307 2.010 . S
O295 Mg294 2.028 . S
O295 C298 1.250 . S
O296 Mg297 2.028 . S
O296 C298 1.248 . S
Mg297 O296 2.028 . S
Mg297 O302 2.032 . S
Mg297 O304 2.079 . S
C298 O295 1.250 . S
C298 O296 1.248 . S
C299 O300 1.264 . S
C299 O307 1.249 . S
O300 C299 1.264 . S
O301 Mg294 1.986 . S
O301 C305 1.246 . S
O302 Mg297 2.032 . S
O302 C305 1.259 . S
O303 Mg294 2.114 . S
O303 C306 1.252 . S
O304 Mg294 2.251 . S
O304 Mg297 2.079 . S
O304 C306 1.273 . S
C305 O301 1.246 . S
C305 O302 1.259 . S
C306 O303 1.252 . S
C306 O304 1.273 . S
O307 Mg294 2.010 . S
O307 C299 1.249 . S
Mg308 O309 2.028 . S
Mg308 O315 1.986 . S
Mg308 O317 2.114 . S
Mg308 O318 2.251 . S
Mg308 O321 2.010 . S
O309 Mg308 2.028 . S
O309 C312 1.250 . S
O310 Mg311 2.028 . S
O310 C312 1.248 . S
Mg311 O310 2.028 . S
Mg311 O316 2.032 . S
Mg311 O318 2.079 . S
C312 O309 1.250 . S
C312 O310 1.248 . S
C313 O314 1.264 . S
C313 O321 1.249 . S
O314 C313 1.264 . S
O315 Mg308 1.986 . S
O315 C319 1.246 . S
O316 Mg311 2.032 . S
O316 C319 1.259 . S
O317 Mg308 2.114 . S
O317 C320 1.252 . S
O318 Mg308 2.251 . S
O318 Mg311 2.079 . S
O318 C320 1.273 . S
C319 O315 1.246 . S
C319 O316 1.259 . S
C320 O317 1.252 . S
C320 O318 1.273 . S
O321 Mg308 2.010 . S
O321 C313 1.249 . S
Mg322 O323 2.028 . S
Mg322 O329 1.986 . S
Mg322 O331 2.114 . S
Mg322 O332 2.251 . S
Mg322 O335 2.010 . S
O323 Mg322 2.028 . S
O323 C326 1.250 . S
O324 Mg325 2.028 . S
O324 C326 1.248 . S
Mg325 O324 2.028 . S
Mg325 O330 2.032 . S
Mg325 O332 2.079 . S
C326 O323 1.250 . S
C326 O324 1.248 . S
C327 O328 1.264 . S
C327 O335 1.249 . S
O328 C327 1.264 . S
O329 Mg322 1.986 . S
O329 C333 1.246 . S
O330 Mg325 2.032 . S
O330 C333 1.259 . S
O331 Mg322 2.114 . S
O331 C334 1.252 . S
O332 Mg322 2.251 . S
O332 Mg325 2.079 . S
O332 C334 1.273 . S
C333 O329 1.246 . S
C333 O330 1.259 . S
C334 O331 1.252 . S
C334 O332 1.273 . S
O335 Mg322 2.010 . S
O335 C327 1.249 . S
O336 Zn337 1.953 . S
O336 C352 1.225 1_455 S
Zn337 O336 1.953 . S
Zn337 O338 1.949 . S
Zn337 O344 1.919 . S
Zn337 O349 1.924 1_454 S
O338 Zn337 1.949 . S
O338 Zn339 1.923 1_545 S
O338 Zn340 1.950 1_455 S
O338 Zn341 1.945 1_444 S
Zn339 O338 1.923 1_565 S
Zn339 O342 1.933 . S
Zn339 O345 1.941 1_565 S
Zn339 O346 1.965 . S
Zn340 O338 1.950 1_655 S
Zn340 O347 1.967 . S
Zn340 O348 1.906 1_545 S
Zn340 O358 1.953 . S
Zn341 O338 1.945 1_666 S
Zn341 O343 1.932 . S
Zn341 O350 1.977 1_556 S
Zn341 O351 1.910 1_565 S
O342 Zn339 1.933 . S
O342 C353 1.236 . S
O343 Zn341 1.932 . S
O343 C353 1.301 1_656 S
O344 Zn337 1.919 . S
O344 C355 1.253 . S
O345 Zn339 1.941 1_545 S
O345 C355 1.283 . S
O346 Zn339 1.965 . S
O346 C354 1.303 1_565 S
O347 Zn340 1.967 . S
O347 C354 1.198 1_655 S
O348 Zn340 1.906 1_565 S
O348 C356 1.304 . S
O349 Zn337 1.924 1_656 S
O349 C357 1.311 . S
O350 Zn341 1.977 1_554 S
O350 C356 1.272 . S
O351 Zn341 1.910 1_545 S
O351 C357 1.231 . S
C352 O336 1.225 1_655 S
C352 O358 1.298 . S
C353 O342 1.236 . S
C353 O343 1.301 1_454 S
C354 O346 1.303 1_545 S
C354 O347 1.198 1_455 S
C355 O344 1.253 . S
C355 O345 1.283 . S
C356 O348 1.304 . S
C356 O350 1.272 . S
C357 O349 1.311 . S
C357 O351 1.231 . S
O358 Zn340 1.953 . S
O358 C352 1.298 . S
O359 Zn360 1.953 . S
O359 C375 1.225 . S
Zn360 O359 1.953 . S
Zn360 O361 1.949 . S
Zn360 O367 1.919 . S
Zn360 O372 1.924 . S
O361 Zn360 1.949 . S
O361 Zn362 1.923 . S
O361 Zn363 1.950 . S
O361 Zn364 1.945 . S
Zn362 O361 1.923 . S
Zn362 O365 1.933 . S
Zn362 O368 1.941 . S
Zn362 O369 1.965 . S
Zn363 O361 1.950 . S
Zn363 O370 1.938 . S
Zn363 O371 1.906 . S
Zn363 O381 1.953 . S
Zn364 O361 1.945 . S
Zn364 O366 1.932 . S
Zn364 O373 1.977 . S
Zn364 O374 1.910 . S
O365 Zn362 1.933 . S
O365 C376 1.226 . S
O366 Zn364 1.932 . S
O366 C376 1.307 . S
O367 Zn360 1.919 . S
O367 C378 1.253 . S
O368 Zn362 1.941 . S
O368 C378 1.283 . S
O369 Zn362 1.965 . S
O369 C377 1.303 . S
O370 Zn363 1.938 . S
O370 C377 1.247 . S
O371 Zn363 1.906 . S
O371 C379 1.304 . S
O372 Zn360 1.924 . S
O372 C380 1.311 . S
O373 Zn364 1.977 . S
O373 C379 1.272 . S
O374 Zn364 1.910 . S
O374 C380 1.231 . S
C375 O359 1.225 . S
C375 O381 1.298 . S
C376 O365 1.226 . S
C376 O366 1.307 . S
C377 O369 1.303 . S
C377 O370 1.247 . S
C378 O367 1.253 . S
C378 O368 1.283 . S
C379 O371 1.304 . S
C379 O373 1.272 . S
C380 O372 1.311 . S
C380 O374 1.231 . S
O381 Zn363 1.953 . S
O381 C375 1.298 . S
O382 Zn383 1.953 . S
O382 C398 1.225 . S
Zn383 O382 1.953 . S
Zn383 O384 1.949 1_565 S
Zn383 O390 1.919 . S
Zn383 O395 1.924 . S
O384 Zn383 1.949 1_545 S
O384 Zn385 1.923 . S
O384 Zn386 1.950 . S
O384 Zn387 1.945 . S
Zn385 O384 1.923 . S
Zn385 O388 1.933 . S
Zn385 O391 1.941 . S
Zn385 O392 1.965 . S
Zn386 O384 1.950 . S
Zn386 O393 1.938 . S
Zn386 O394 1.906 . S
Zn386 O404 1.953 1_545 S
Zn387 O384 1.945 . S
Zn387 O389 1.932 . S
Zn387 O396 1.977 . S
Zn387 O397 1.910 . S
O388 Zn385 1.933 . S
O388 C399 1.226 . S
O389 Zn387 1.932 . S
O389 C399 1.307 . S
O390 Zn383 1.919 . S
O390 C401 1.253 . S
O391 Zn385 1.941 . S
O391 C401 1.283 1_545 S
O392 Zn385 1.965 . S
O392 C400 1.303 . S
O393 Zn386 1.938 . S
O393 C400 1.247 . S
O394 Zn386 1.906 . S
O394 C402 1.304 . S
O395 Zn383 1.924 . S
O395 C403 1.311 . S
O396 Zn387 1.977 . S
O396 C402 1.272 . S
O397 Zn387 1.910 . S
O397 C403 1.231 1_545 S
C398 O382 1.225 . S
C398 O404 1.298 . S
C399 O388 1.226 . S
C399 O389 1.307 . S
C400 O392 1.303 . S
C400 O393 1.247 . S
C401 O390 1.253 . S
C401 O391 1.283 1_565 S
C402 O394 1.304 . S
C402 O396 1.272 . S
C403 O395 1.311 . S
C403 O397 1.231 1_565 S
O404 Zn386 1.953 1_565 S
O404 C398 1.298 . S
O405 Zn406 1.953 . S
O405 C421 1.225 . S
Zn406 O405 1.953 . S
Zn406 O407 1.949 . S
Zn406 O413 1.919 . S
Zn406 O418 1.924 . S
O407 Zn406 1.949 . S
O407 Zn408 1.923 . S
O407 Zn409 1.950 . S
O407 Zn410 1.945 . S
Zn408 O407 1.923 . S
Zn408 O411 1.933 . S
Zn408 O414 1.941 . S
Zn408 O415 1.965 . S
Zn409 O407 1.950 . S
Zn409 O416 1.938 . S
Zn409 O417 1.906 . S
Zn409 O427 1.953 . S
Zn410 O407 1.945 . S
Zn410 O412 1.932 . S
Zn410 O419 1.977 . S
Zn410 O420 1.910 . S
O411 Zn408 1.933 . S
O411 C422 1.226 . S
O412 Zn410 1.932 . S
O412 C422 1.307 . S
O413 Zn406 1.919 . S
O413 C424 1.253 . S
O414 Zn408 1.941 . S
O414 C424 1.283 . S
O415 Zn408 1.965 . S
O415 C423 1.303 . S
O416 Zn409 1.938 . S
O416 C423 1.247 . S
O417 Zn409 1.906 . S
O417 C425 1.304 . S
O418 Zn406 1.924 . S
O418 C426 1.311 . S
O419 Zn410 1.977 . S
O419 C425 1.272 . S
O420 Zn410 1.910 . S
O420 C426 1.231 . S
C421 O405 1.225 . S
C421 O427 1.298 . S
C422 O411 1.226 . S
C422 O412 1.307 . S
C423 O415 1.303 . S
C423 O416 1.247 . S
C424 O413 1.253 . S
C424 O414 1.283 . S
C425 O417 1.304 . S
C425 O419 1.272 . S
C426 O418 1.311 . S
C426 O420 1.231 . S
O427 Zn409 1.953 . S
O427 C421 1.298 . S
O428 Zn429 1.953 . S
O428 C444 1.225 . S
Zn429 O428 1.953 . S
Zn429 O430 1.949 . S
Zn429 O436 1.923 1_545 S
Zn429 O441 1.924 1_455 S
O430 Zn429 1.949 . S
O430 Zn431 1.923 1_545 S
O430 Zn432 1.950 . S
O430 Zn433 1.945 1_455 S
Zn431 O430 1.923 1_565 S
Zn431 O434 1.933 . S
Zn431 O437 1.941 . S
Zn431 O438 1.965 . S
Zn432 O430 1.950 . S
Zn432 O439 1.938 . S
Zn432 O440 1.906 . S
Zn432 O450 1.953 . S
Zn433 O430 1.945 1_655 S
Zn433 O435 1.932 . S
Zn433 O442 1.977 1_655 S
Zn433 O443 1.910 . S
O434 Zn431 1.933 . S
O434 C445 1.226 1_465 S
O435 Zn433 1.932 . S
O435 C445 1.307 . S
O436 Zn429 1.923 1_565 S
O436 C447 1.263 . S
O437 Zn431 1.941 . S
O437 C447 1.283 . S
O438 Zn431 1.965 . S
O438 C446 1.278 1_565 S
O439 Zn432 1.938 . S
O439 C446 1.294 . S
O440 Zn432 1.906 . S
O440 C448 1.304 . S
O441 Zn429 1.924 1_655 S
O441 C449 1.311 . S
O442 Zn433 1.977 1_455 S
O442 C448 1.272 . S
O443 Zn433 1.910 . S
O443 C449 1.231 . S
C444 O428 1.225 . S
C444 O450 1.298 . S
C445 O434 1.226 1_645 S
C445 O435 1.307 . S
C446 O438 1.278 1_545 S
C446 O439 1.294 . S
C447 O436 1.263 . S
C447 O437 1.283 . S
C448 O440 1.304 . S
C448 O442 1.272 . S
C449 O441 1.311 . S
C449 O443 1.231 . S
O450 Zn432 1.953 . S
O450 C444 1.298 . S
O451 Zn452 1.953 . S
O451 C467 1.225 . S
Zn452 O451 1.953 . S
Zn452 O453 1.949 . S
Zn452 O459 1.919 . S
Zn452 O464 1.924 . S
O453 Zn452 1.949 . S
O453 Zn454 1.923 . S
O453 Zn455 1.950 . S
O453 Zn456 1.945 . S
Zn454 O453 1.923 . S
Zn454 O457 1.933 . S
Zn454 O460 1.941 . S
Zn454 O461 1.965 . S
Zn455 O453 1.950 . S
Zn455 O462 1.938 . S
Zn455 O463 1.906 . S
Zn455 O473 1.953 . S
Zn456 O453 1.945 . S
Zn456 O458 1.932 . S
Zn456 O465 1.977 . S
Zn456 O466 1.910 . S
O457 Zn454 1.933 . S
O457 C468 1.226 . S
O458 Zn456 1.932 . S
O458 C468 1.307 . S
O459 Zn452 1.919 . S
O459 C470 1.253 . S
O460 Zn454 1.941 . S
O460 C470 1.283 . S
O461 Zn454 1.965 . S
O461 C469 1.303 . S
O462 Zn455 1.938 . S
O462 C469 1.247 . S
O463 Zn455 1.906 . S
O463 C471 1.304 . S
O464 Zn452 1.924 . S
O464 C472 1.311 . S
O465 Zn456 1.977 . S
O465 C471 1.272 . S
O466 Zn456 1.910 . S
O466 C472 1.231 . S
C467 O451 1.225 . S
C467 O473 1.298 . S
C468 O457 1.226 . S
C468 O458 1.307 . S
C469 O461 1.303 . S
C469 O462 1.247 . S
C470 O459 1.253 . S
C470 O460 1.283 . S
C471 O463 1.304 . S
C471 O465 1.272 . S
C472 O464 1.311 . S
C472 O466 1.231 . S
O473 Zn455 1.953 . S
O473 C467 1.298 . S
O474 Zn475 1.953 . S
O474 C490 1.225 . S
Zn475 O474 1.953 . S
Zn475 O476 1.949 . S
Zn475 O482 1.930 . S
Zn475 O487 1.924 . S
O476 Zn475 1.949 . S
O476 Zn477 1.923 1_545 S
O476 Zn478 1.950 . S
O476 Zn479 1.945 1_554 S
Zn477 O476 1.923 1_565 S
Zn477 O480 1.933 1_554 S
Zn477 O483 1.942 1_554 S
Zn477 O484 1.965 . S
Zn478 O476 1.950 . S
Zn478 O485 1.938 1_545 S
Zn478 O486 1.906 . S
Zn478 O496 1.953 . S
Zn479 O476 1.945 1_556 S
Zn479 O481 1.932 . S
Zn479 O488 1.977 1_556 S
Zn479 O489 1.910 . S
O480 Zn477 1.933 1_556 S
O480 C491 1.226 . S
O481 Zn479 1.932 . S
O481 C491 1.307 1_545 S
O482 Zn475 1.930 . S
O482 C493 1.207 1_544 S
O483 Zn477 1.942 1_556 S
O483 C493 1.280 . S
O484 Zn477 1.965 . S
O484 C492 1.303 . S
O485 Zn478 1.938 1_565 S
O485 C492 1.247 . S
O486 Zn478 1.906 . S
O486 C494 1.304 . S
O487 Zn475 1.924 . S
O487 C495 1.311 . S
O488 Zn479 1.977 1_554 S
O488 C494 1.272 . S
O489 Zn479 1.910 . S
O489 C495 1.231 1_556 S
C490 O474 1.225 . S
C490 O496 1.298 . S
C491 O480 1.226 . S
C491 O481 1.307 1_565 S
C492 O484 1.303 . S
C492 O485 1.247 . S
C493 O482 1.207 1_566 S
C493 O483 1.280 . S
C494 O486 1.304 . S
C494 O488 1.272 . S
C495 O487 1.311 . S
C495 O489 1.231 1_554 S
O496 Zn478 1.953 . S
O496 C490 1.298 . S
O497 Zn498 1.953 . S
O497 C513 1.225 . S
Zn498 O497 1.953 . S
Zn498 O499 1.949 . S
Zn498 O505 1.919 . S
Zn498 O510 1.924 . S
O499 Zn498 1.949 . S
O499 Zn500 1.923 . S
O499 Zn501 1.950 . S
O499 Zn502 1.945 . S
Zn500 O499 1.923 . S
Zn500 O503 1.933 . S
Zn500 O506 1.941 . S
Zn500 O507 1.965 . S
Zn501 O499 1.950 . S
Zn501 O508 1.938 . S
Zn501 O509 1.906 . S
Zn501 O519 1.953 . S
Zn502 O499 1.945 . S
Zn502 O504 1.932 . S
Zn502 O511 1.977 . S
Zn502 O512 1.910 . S
O503 Zn500 1.933 . S
O503 C514 1.226 . S
O504 Zn502 1.932 . S
O504 C514 1.307 . S
O505 Zn498 1.919 . S
O505 C516 1.253 . S
O506 Zn500 1.941 . S
O506 C516 1.283 . S
O507 Zn500 1.965 . S
O507 C515 1.303 . S
O508 Zn501 1.938 . S
O508 C515 1.247 . S
O509 Zn501 1.906 . S
O509 C517 1.304 . S
O510 Zn498 1.924 . S
O510 C518 1.311 . S
O511 Zn502 1.977 . S
O511 C517 1.272 . S
O512 Zn502 1.910 . S
O512 C518 1.231 . S
C513 O497 1.225 . S
C513 O519 1.298 . S
C514 O503 1.226 . S
C514 O504 1.307 . S
C515 O507 1.303 . S
C515 O508 1.247 . S
C516 O505 1.253 . S
C516 O506 1.283 . S
C517 O509 1.304 . S
C517 O511 1.272 . S
C518 O510 1.311 . S
C518 O512 1.231 . S
O519 Zn501 1.953 . S
O519 C513 1.298 . S
O520 Zn521 1.953 . S
O520 C536 1.225 . S
Zn521 O520 1.953 . S
Zn521 O522 1.949 1_556 S
Zn521 O528 1.919 . S
Zn521 O533 1.924 . S
O522 Zn521 1.949 1_554 S
O522 Zn523 1.923 . S
O522 Zn524 1.950 . S
O522 Zn525 1.945 . S
Zn523 O522 1.923 . S
Zn523 O526 1.933 . S
Zn523 O529 1.941 . S
Zn523 O530 1.965 . S
Zn524 O522 1.950 . S
Zn524 O531 1.938 . S
Zn524 O532 1.906 . S
Zn524 O542 1.953 1_554 S
Zn525 O522 1.945 . S
Zn525 O527 1.932 . S
Zn525 O534 1.977 . S
Zn525 O535 1.910 . S
O526 Zn523 1.933 . S
O526 C537 1.226 . S
O527 Zn525 1.932 . S
O527 C537 1.307 . S
O528 Zn521 1.919 . S
O528 C539 1.253 1_556 S
O529 Zn523 1.941 . S
O529 C539 1.283 . S
O530 Zn523 1.965 . S
O530 C538 1.303 . S
O531 Zn524 1.938 . S
O531 C538 1.247 . S
O532 Zn524 1.906 . S
O532 C540 1.304 . S
O533 Zn521 1.924 . S
O533 C541 1.311 . S
O534 Zn525 1.977 . S
O534 C540 1.272 . S
O535 Zn525 1.910 . S
O535 C541 1.231 1_554 S
C536 O520 1.225 . S
C536 O542 1.298 . S
C537 O526 1.226 . S
C537 O527 1.307 . S
C538 O530 1.303 . S
C538 O531 1.247 . S
C539 O528 1.253 1_554 S
C539 O529 1.283 . S
C540 O532 1.304 . S
C540 O534 1.272 . S
C541 O533 1.311 . S
C541 O535 1.231 1_556 S
O542 Zn524 1.953 1_556 S
O542 C536 1.298 . S
O543 Zn544 1.953 . S
O543 C559 1.225 . S
Zn544 O543 1.953 . S
Zn544 O545 1.949 . S
Zn544 O551 1.919 . S
Zn544 O556 1.924 . S
O545 Zn544 1.949 . S
O545 Zn546 1.923 . S
O545 Zn547 1.950 . S
O545 Zn548 1.945 . S
Zn546 O545 1.923 . S
Zn546 O549 1.933 . S
Zn546 O552 1.941 . S
Zn546 O553 1.965 . S
Zn547 O545 1.950 . S
Zn547 O554 1.938 . S
Zn547 O555 1.906 . S
Zn547 O565 1.953 . S
Zn548 O545 1.945 . S
Zn548 O550 1.932 . S
Zn548 O557 1.977 . S
Zn548 O558 1.910 . S
O549 Zn546 1.933 . S
O549 C560 1.226 . S
O550 Zn548 1.932 . S
O550 C560 1.307 . S
O551 Zn544 1.919 . S
O551 C562 1.253 . S
O552 Zn546 1.941 . S
O552 C562 1.283 . S
O553 Zn546 1.965 . S
O553 C561 1.303 . S
O554 Zn547 1.938 . S
O554 C561 1.247 . S
O555 Zn547 1.906 . S
O555 C563 1.304 . S
O556 Zn544 1.924 . S
O556 C564 1.311 . S
O557 Zn548 1.977 . S
O557 C563 1.272 . S
O558 Zn548 1.910 . S
O558 C564 1.231 . S
C559 O543 1.225 . S
C559 O565 1.298 . S
C560 O549 1.226 . S
C560 O550 1.307 . S
C561 O553 1.303 . S
C561 O554 1.247 . S
C562 O551 1.253 . S
C562 O552 1.283 . S
C563 O555 1.304 . S
C563 O557 1.272 . S
C564 O556 1.311 . S
C564 O558 1.231 . S
O565 Zn547 1.953 . S
O565 C559 1.298 . S
O566 Zn567 1.953 . S
O566 C582 1.225 . S
Zn567 O566 1.953 . S
Zn567 O568 1.937 1_455 S
Zn567 O574 1.919 . S
Zn567 O579 1.924 . S
O568 Zn567 1.937 1_655 S
O568 Zn569 1.921 1_655 S
O568 Zn570 1.957 . S
O568 Zn571 1.950 . S
Zn569 O568 1.921 1_455 S
Zn569 O572 1.922 1_455 S
Zn569 O575 1.969 . S
Zn569 O576 1.956 1_455 S
Zn570 O568 1.957 . S
Zn570 O577 1.938 . S
Zn570 O578 1.906 . S
Zn570 O588 1.955 1_655 S
Zn571 O568 1.950 . S
Zn571 O573 1.932 . S
Zn571 O580 1.977 . S
Zn571 O581 1.901 1_655 S
O572 Zn569 1.922 1_655 S
O572 C583 1.226 . S
O573 Zn571 1.932 . S
O573 C583 1.307 . S
O574 Zn567 1.919 . S
O574 C585 1.253 . S
O575 Zn569 1.969 . S
O575 C585 1.283 . S
O576 Zn569 1.956 1_655 S
O576 C584 1.303 . S
O577 Zn570 1.938 . S
O577 C584 1.247 . S
O578 Zn570 1.906 . S
O578 C586 1.304 . S
O579 Zn567 1.924 . S
O579 C587 1.311 . S
O580 Zn571 1.977 . S
O580 C586 1.272 . S
O581 Zn571 1.901 1_455 S
O581 C587 1.248 . S
C582 O566 1.225 . S
C582 O588 1.295 . S
C583 O572 1.226 . S
C583 O573 1.307 . S
C584 O576 1.303 . S
C584 O577 1.247 . S
C585 O574 1.253 . S
C585 O575 1.283 . S
C586 O578 1.304 . S
C586 O580 1.272 . S
C587 O579 1.311 . S
C587 O581 1.248 . S
O588 Zn570 1.955 1_455 S
O588 C582 1.295 . S
O589 Zn590 1.953 . S
O589 C605 1.225 . S
Zn590 O589 1.953 . S
Zn590 O591 1.949 . S
Zn590 O597 1.919 . S
Zn590 O602 1.924 . S
O591 Zn590 1.949 . S
O591 Zn592 1.923 . S
O591 Zn593 1.950 . S
O591 Zn594 1.945 . S
Zn592 O591 1.923 . S
Zn592 O595 1.933 . S
Zn592 O598 1.941 . S
Zn592 O599 1.965 . S
Zn593 O591 1.950 . S
Zn593 O600 1.938 . S
Zn593 O601 1.906 . S
Zn593 O611 1.953 . S
Zn594 O591 1.945 . S
Zn594 O596 1.932 . S
Zn594 O603 1.977 . S
Zn594 O604 1.910 . S
O595 Zn592 1.933 . S
O595 C606 1.226 . S
O596 Zn594 1.932 . S
O596 C606 1.307 . S
O597 Zn590 1.919 . S
O597 C608 1.253 . S
O598 Zn592 1.941 . S
O598 C608 1.283 . S
O599 Zn592 1.965 . S
O599 C607 1.303 . S
O600 Zn593 1.938 . S
O600 C607 1.247 . S
O601 Zn593 1.906 . S
O601 C609 1.304 . S
O602 Zn590 1.924 . S
O602 C610 1.311 . S
O603 Zn594 1.977 . S
O603 C609 1.272 . S
O604 Zn594 1.910 . S
O604 C610 1.231 . S
C605 O589 1.225 . S
C605 O611 1.298 . S
C606 O595 1.226 . S
C606 O596 1.307 . S
C607 O599 1.303 . S
C607 O600 1.247 . S
C608 O597 1.253 . S
C608 O598 1.283 . S
C609 O601 1.304 . S
C609 O603 1.272 . S
C610 O602 1.311 . S
C610 O604 1.231 . S
O611 Zn593 1.953 . S
O611 C605 1.298 . S
O612 Zn613 1.953 . S
O612 C628 1.225 . S
Zn613 O612 1.953 . S
Zn613 O614 1.949 . S
Zn613 O620 1.919 . S
Zn613 O625 1.924 . S
O614 Zn613 1.949 . S
O614 Zn615 1.923 . S
O614 Zn616 1.950 . S
O614 Zn617 1.945 . S
Zn615 O614 1.923 . S
Zn615 O618 1.933 . S
Zn615 O621 1.941 . S
Zn615 O622 1.965 . S
Zn616 O614 1.950 . S
Zn616 O623 1.938 . S
Zn616 O624 1.906 . S
Zn616 O634 1.953 . S
Zn617 O614 1.945 . S
Zn617 O619 1.932 . S
Zn617 O626 1.977 . S
Zn617 O627 1.910 . S
O618 Zn615 1.933 . S
O618 C629 1.226 . S
O619 Zn617 1.932 . S
O619 C629 1.307 . S
O620 Zn613 1.919 . S
O620 C631 1.253 . S
O621 Zn615 1.941 . S
O621 C631 1.283 . S
O622 Zn615 1.965 . S
O622 C630 1.303 . S
O623 Zn616 1.938 . S
O623 C630 1.247 . S
O624 Zn616 1.906 . S
O624 C632 1.304 . S
O625 Zn613 1.924 . S
O625 C633 1.311 . S
O626 Zn617 1.977 . S
O626 C632 1.272 . S
O627 Zn617 1.910 . S
O627 C633 1.231 . S
C628 O612 1.225 . S
C628 O634 1.298 . S
C629 O618 1.226 . S
C629 O619 1.307 . S
C630 O622 1.303 . S
C630 O623 1.247 . S
C631 O620 1.253 . S
C631 O621 1.283 . S
C632 O624 1.304 . S
C632 O626 1.272 . S
C633 O625 1.311 . S
C633 O627 1.231 . S
O634 Zn616 1.953 . S
O634 C628 1.298 . S
O635 Zn636 1.953 . S
O635 C651 1.225 . S
Zn636 O635 1.953 . S
Zn636 O637 1.949 . S
Zn636 O643 1.919 . S
Zn636 O648 1.924 . S
O637 Zn636 1.949 . S
O637 Zn638 1.923 . S
O637 Zn639 1.950 . S
O637 Zn640 1.945 . S
Zn638 O637 1.923 . S
Zn638 O641 1.933 . S
Zn638 O644 1.941 . S
Zn638 O645 1.965 . S
Zn639 O637 1.950 . S
Zn639 O646 1.938 . S
Zn639 O647 1.906 . S
Zn639 O657 1.953 . S
Zn640 O637 1.945 . S
Zn640 O642 1.932 . S
Zn640 O649 1.977 . S
Zn640 O650 1.910 . S
O641 Zn638 1.933 . S
O641 C652 1.226 . S
O642 Zn640 1.932 . S
O642 C652 1.307 . S
O643 Zn636 1.919 . S
O643 C654 1.253 . S
O644 Zn638 1.941 . S
O644 C654 1.283 . S
O645 Zn638 1.965 . S
O645 C653 1.303 . S
O646 Zn639 1.938 . S
O646 C653 1.247 . S
O647 Zn639 1.906 . S
O647 C655 1.304 . S
O648 Zn636 1.924 . S
O648 C656 1.311 . S
O649 Zn640 1.977 . S
O649 C655 1.272 . S
O650 Zn640 1.910 . S
O650 C656 1.231 . S
C651 O635 1.225 . S
C651 O657 1.298 . S
C652 O641 1.226 . S
C652 O642 1.307 . S
C653 O645 1.303 . S
C653 O646 1.247 . S
C654 O643 1.253 . S
C654 O644 1.283 . S
C655 O647 1.304 . S
C655 O649 1.272 . S
C656 O648 1.311 . S
C656 O650 1.231 . S
O657 Zn639 1.953 . S
O657 C651 1.298 . S
O658 Zn659 1.953 . S
O658 C674 1.225 . S
Zn659 O658 1.953 . S
Zn659 O660 1.949 . S
Zn659 O666 1.919 . S
Zn659 O671 1.924 . S
O660 Zn659 1.949 . S
O660 Zn661 1.923 . S
O660 Zn662 1.950 . S
O660 Zn663 1.945 . S
Zn661 O660 1.923 . S
Zn661 O664 1.933 . S
Zn661 O667 1.941 . S
Zn661 O668 1.965 . S
Zn662 O660 1.950 . S
Zn662 O669 1.938 . S
Zn662 O670 1.906 . S
Zn662 O680 1.953 . S
Zn663 O660 1.945 . S
Zn663 O665 1.932 . S
Zn663 O672 1.977 . S
Zn663 O673 1.910 . S
O664 Zn661 1.933 . S
O664 C675 1.226 . S
O665 Zn663 1.932 . S
O665 C675 1.307 . S
O666 Zn659 1.919 . S
O666 C677 1.253 . S
O667 Zn661 1.941 . S
O667 C677 1.283 . S
O668 Zn661 1.965 . S
O668 C676 1.303 . S
O669 Zn662 1.938 . S
O669 C676 1.247 . S
O670 Zn662 1.906 . S
O670 C678 1.304 . S
O671 Zn659 1.924 . S
O671 C679 1.311 . S
O672 Zn663 1.977 . S
O672 C678 1.272 . S
O673 Zn663 1.910 . S
O673 C679 1.231 . S
C674 O658 1.225 . S
C674 O680 1.298 . S
C675 O664 1.226 . S
C675 O665 1.307 . S
C676 O668 1.303 . S
C676 O669 1.247 . S
C677 O666 1.253 . S
C677 O667 1.283 . S
C678 O670 1.304 . S
C678 O672 1.272 . S
C679 O671 1.311 . S
C679 O673 1.231 . S
O680 Zn662 1.953 . S
O680 C674 1.298 . S
O681 Zn682 1.953 . S
O681 C697 1.225 . S
Zn682 O681 1.953 . S
Zn682 O683 1.949 . S
Zn682 O689 1.919 1_455 S
Zn682 O694 1.924 1_554 S
O683 Zn682 1.949 . S
O683 Zn684 1.923 1_455 S
O683 Zn685 1.950 . S
O683 Zn686 1.945 1_554 S
Zn684 O683 1.923 1_655 S
Zn684 O687 1.933 . S
Zn684 O690 1.941 . S
Zn684 O691 1.965 . S
Zn685 O683 1.950 . S
Zn685 O692 1.938 . S
Zn685 O693 1.906 . S
Zn685 O703 1.953 . S
Zn686 O683 1.945 1_556 S
Zn686 O688 1.932 . S
Zn686 O695 1.977 1_556 S
Zn686 O696 1.910 . S
O687 Zn684 1.933 . S
O687 C698 1.224 1_655 S
O688 Zn686 1.932 . S
O688 C698 1.308 1_556 S
O689 Zn682 1.919 1_655 S
O689 C700 1.253 . S
O690 Zn684 1.941 . S
O690 C700 1.283 . S
O691 Zn684 1.965 . S
O691 C699 1.284 1_655 S
O692 Zn685 1.938 . S
O692 C699 1.283 . S
O693 Zn685 1.906 . S
O693 C701 1.304 . S
O694 Zn682 1.924 1_556 S
O694 C702 1.311 . S
O695 Zn686 1.977 1_554 S
O695 C701 1.272 . S
O696 Zn686 1.910 . S
O696 C702 1.231 . S
C697 O681 1.225 . S
C697 O703 1.298 . S
C698 O687 1.224 1_455 S
C698 O688 1.308 1_554 S
C699 O691 1.284 1_455 S
C699 O692 1.283 . S
C700 O689 1.253 . S
C700 O690 1.283 . S
C701 O693 1.304 . S
C701 O695 1.272 . S
C702 O694 1.311 . S
C702 O696 1.231 . S
O703 Zn685 1.953 . S
O703 C697 1.298 . S
H704 C722 0.951 . S
H705 C724 0.951 . S
H706 C726 0.950 1_655 S
H707 C727 0.950 . S
H708 C729 0.950 . S
H709 C732 0.950 . S
H710 C733 0.950 . S
H711 C735 0.950 . S
H712 C736 0.950 . S
H713 C737 0.951 . S
H714 C739 0.951 . S
H715 C741 0.935 1_455 S
H716 C742 0.950 . S
H717 C744 0.950 . S
H718 C747 0.950 . S
H719 C748 0.950 . S
H720 C750 0.950 . S
H721 C751 0.950 . S
C722 H704 0.951 . S
C722 C723 1.366 . S
C722 C724 1.388 . S
C723 C722 1.366 . S
C723 C727 1.385 . S
C724 H705 0.951 . S
C724 C722 1.388 . S
C724 C725 1.366 . S
C725 C724 1.366 . S
C725 C726 1.414 . S
C725 C728 1.499 . S
C726 H706 0.950 1_455 S
C726 C725 1.414 . S
C726 C727 1.374 . S
C727 H707 0.950 . S
C727 C723 1.385 . S
C727 C726 1.374 . S
C728 C725 1.499 . S
C728 C729 1.373 . S
C728 C730 1.389 1_455 S
C729 H708 0.950 . S
C729 C728 1.373 . S
C729 C745 1.377 . S
C730 C728 1.389 1_655 S
C730 C731 1.524 . S
C730 C744 1.377 . S
C731 C730 1.524 . S
C731 C732 1.397 . S
C731 C736 1.363 . S
C732 H709 0.950 . S
C732 C731 1.397 . S
C732 C733 1.334 . S
C733 H710 0.950 . S
C733 C732 1.334 . S
C733 C734 1.287 . S
C734 C733 1.287 . S
C734 C735 1.524 . S
C734 H753 0.913 . S
C735 H711 0.950 . S
C735 C734 1.524 . S
C735 C736 1.415 . S
C736 H712 0.950 . S
C736 C731 1.363 . S
C736 C735 1.415 . S
C737 H713 0.951 . S
C737 C738 1.366 . S
C737 C739 1.388 . S
C738 C737 1.366 . S
C738 C742 1.385 . S
C739 H714 0.951 . S
C739 C737 1.388 . S
C739 C740 1.366 . S
C740 C739 1.366 . S
C740 C741 1.425 . S
C740 C743 1.499 . S
C741 H715 0.935 1_655 S
C741 C740 1.425 . S
C741 C742 1.383 . S
C742 H716 0.950 . S
C742 C738 1.385 . S
C742 C741 1.383 . S
C743 C740 1.499 . S
C743 C744 1.373 . S
C743 C745 1.389 1_655 S
C744 H717 0.950 . S
C744 C730 1.377 . S
C744 C743 1.373 . S
C745 C729 1.377 . S
C745 C743 1.389 1_455 S
C745 C746 1.524 . S
C746 C745 1.524 . S
C746 C747 1.397 . S
C746 C751 1.363 . S
C747 H718 0.950 . S
C747 C746 1.397 . S
C747 C748 1.334 . S
C748 H719 0.950 . S
C748 C747 1.334 . S
C748 C749 1.287 . S
C749 C748 1.287 . S
C749 C750 1.524 . S
C749 H752 0.999 . S
C750 H720 0.950 . S
C750 C749 1.524 . S
C750 C751 1.415 . S
C751 H721 0.950 . S
C751 C746 1.363 . S
C751 C750 1.415 . S
H752 C749 0.999 . S
H753 C734 0.913 . S
H754 C772 0.951 . S
H755 C774 0.951 . S
H756 C776 0.950 . S
H757 C777 0.950 . S
H758 C779 0.950 . S
H759 C782 0.950 . S
H760 C783 0.950 . S
H761 C785 0.950 . S
H762 C786 0.950 . S
H763 C787 0.951 . S
H764 C789 0.951 . S
H765 C791 0.950 . S
H766 C792 0.950 . S
H767 C794 0.950 . S
H768 C797 0.950 . S
H769 C798 0.950 . S
H770 C800 0.950 . S
H771 C801 0.950 . S
C772 H754 0.951 . S
C772 C773 1.366 . S
C772 C774 1.388 . S
C773 C772 1.366 . S
C773 C777 1.385 . S
C774 H755 0.951 . S
C774 C772 1.388 . S
C774 C775 1.366 . S
C775 C774 1.366 . S
C775 C776 1.414 . S
C775 C778 1.499 . S
C776 H756 0.950 . S
C776 C775 1.414 . S
C776 C777 1.374 . S
C777 H757 0.950 . S
C777 C773 1.385 . S
C777 C776 1.374 . S
C778 C775 1.499 . S
C778 C779 1.373 . S
C778 C780 1.389 . S
C779 H758 0.950 . S
C779 C778 1.373 . S
C779 C795 1.377 . S
C780 C778 1.389 . S
C780 C781 1.524 . S
C780 C794 1.377 . S
C781 C780 1.524 . S
C781 C782 1.397 . S
C781 C786 1.363 . S
C782 H759 0.950 . S
C782 C781 1.397 . S
C782 C783 1.334 . S
C783 H760 0.950 . S
C783 C782 1.334 . S
C783 C784 1.287 . S
C784 C783 1.287 . S
C784 C785 1.524 . S
C784 H803 0.913 . S
C785 H761 0.950 . S
C785 C784 1.524 . S
C785 C786 1.415 . S
C786 H762 0.950 . S
C786 C781 1.363 . S
C786 C785 1.415 . S
C787 H763 0.951 . S
C787 C788 1.366 . S
C787 C789 1.388 . S
C788 C787 1.366 . S
C788 C792 1.385 . S
C789 H764 0.951 . S
C789 C787 1.388 . S
C789 C790 1.366 . S
C790 C789 1.366 . S
C790 C791 1.414 . S
C790 C793 1.499 . S
C791 H765 0.950 . S
C791 C790 1.414 . S
C791 C792 1.374 . S
C792 H766 0.950 . S
C792 C788 1.385 . S
C792 C791 1.374 . S
C793 C790 1.499 . S
C793 C794 1.373 . S
C793 C795 1.389 . S
C794 H767 0.950 . S
C794 C780 1.377 . S
C794 C793 1.373 . S
C795 C779 1.377 . S
C795 C793 1.389 . S
C795 C796 1.524 . S
C796 C795 1.524 . S
C796 C797 1.397 . S
C796 C801 1.363 . S
C797 H768 0.950 . S
C797 C796 1.397 . S
C797 C798 1.334 . S
C798 H769 0.950 . S
C798 C797 1.334 . S
C798 C799 1.287 . S
C799 C798 1.287 . S
C799 C800 1.524 . S
C799 H802 0.999 . S
C800 H770 0.950 . S
C800 C799 1.524 . S
C800 C801 1.415 . S
C801 H771 0.950 . S
C801 C796 1.363 . S
C801 C800 1.415 . S
H802 C799 0.999 . S
H803 C784 0.913 . S
H804 C822 0.951 . S
H805 C824 0.951 . S
H806 C826 0.950 . S
H807 C827 0.950 . S
H808 C829 0.950 . S
H809 C832 0.950 . S
H810 C833 0.950 . S
H811 C835 0.950 . S
H812 C836 0.950 . S
H813 C837 0.951 . S
H814 C839 0.951 . S
H815 C841 0.950 . S
H816 C842 0.950 . S
H817 C844 0.950 . S
H818 C847 0.950 . S
H819 C848 0.950 . S
H820 C850 0.950 . S
H821 C851 0.950 . S
C822 H804 0.951 . S
C822 C823 1.366 . S
C822 C824 1.388 . S
C823 C822 1.366 . S
C823 C827 1.385 . S
C824 H805 0.951 . S
C824 C822 1.388 . S
C824 C825 1.366 . S
C825 C824 1.366 . S
C825 C826 1.414 . S
C825 C828 1.499 . S
C826 H806 0.950 . S
C826 C825 1.414 . S
C826 C827 1.374 . S
C827 H807 0.950 . S
C827 C823 1.385 . S
C827 C826 1.374 . S
C828 C825 1.499 . S
C828 C829 1.373 . S
C828 C830 1.389 . S
C829 H808 0.950 . S
C829 C828 1.373 . S
C829 C845 1.377 . S
C830 C828 1.389 . S
C830 C831 1.524 . S
C830 C844 1.377 . S
C831 C830 1.524 . S
C831 C832 1.397 . S
C831 C836 1.363 . S
C832 H809 0.950 . S
C832 C831 1.397 . S
C832 C833 1.334 . S
C833 H810 0.950 . S
C833 C832 1.334 . S
C833 C834 1.287 . S
C834 C833 1.287 . S
C834 C835 1.524 . S
C834 H853 0.913 . S
C835 H811 0.950 . S
C835 C834 1.524 . S
C835 C836 1.415 . S
C836 H812 0.950 . S
C836 C831 1.363 . S
C836 C835 1.415 . S
C837 H813 0.951 . S
C837 C838 1.366 . S
C837 C839 1.388 . S
C838 C837 1.366 . S
C838 C842 1.385 . S
C839 H814 0.951 . S
C839 C837 1.388 . S
C839 C840 1.366 . S
C840 C839 1.366 . S
C840 C841 1.414 . S
C840 C843 1.499 . S
C841 H815 0.950 . S
C841 C840 1.414 . S
C841 C842 1.374 . S
C842 H816 0.950 . S
C842 C838 1.385 . S
C842 C841 1.374 . S
C843 C840 1.499 . S
C843 C844 1.373 . S
C843 C845 1.389 . S
C844 H817 0.950 . S
C844 C830 1.377 . S
C844 C843 1.373 . S
C845 C829 1.377 . S
C845 C843 1.389 . S
C845 C846 1.524 . S
C846 C845 1.524 . S
C846 C847 1.397 . S
C846 C851 1.363 . S
C847 H818 0.950 . S
C847 C846 1.397 . S
C847 C848 1.334 . S
C848 H819 0.950 . S
C848 C847 1.334 . S
C848 C849 1.287 . S
C849 C848 1.287 . S
C849 C850 1.524 . S
C849 H852 0.999 . S
C850 H820 0.950 . S
C850 C849 1.524 . S
C850 C851 1.415 . S
C851 H821 0.950 . S
C851 C846 1.363 . S
C851 C850 1.415 . S
H852 C849 0.999 . S
H853 C834 0.913 . S
H854 C872 0.951 . S
H855 C874 0.951 . S
H856 C876 0.950 . S
H857 C877 0.950 . S
H858 C879 0.950 . S
H859 C882 0.950 . S
H860 C883 0.950 . S
H861 C885 0.950 . S
H862 C886 0.950 . S
H863 C887 0.951 . S
H864 C889 0.951 . S
H865 C891 0.950 . S
H866 C892 0.950 . S
H867 C894 0.950 . S
H868 C897 0.950 . S
H869 C898 0.950 . S
H870 C900 0.950 . S
H871 C901 0.950 . S
C872 H854 0.951 . S
C872 C873 1.366 . S
C872 C874 1.388 . S
C873 C872 1.366 . S
C873 C877 1.385 . S
C874 H855 0.951 . S
C874 C872 1.388 . S
C874 C875 1.366 . S
C875 C874 1.366 . S
C875 C876 1.414 . S
C875 C878 1.499 . S
C876 H856 0.950 . S
C876 C875 1.414 . S
C876 C877 1.374 . S
C877 H857 0.950 . S
C877 C873 1.385 . S
C877 C876 1.374 . S
C878 C875 1.499 . S
C878 C879 1.373 . S
C878 C880 1.389 . S
C879 H858 0.950 . S
C879 C878 1.373 . S
C879 C895 1.377 . S
C880 C878 1.389 . S
C880 C881 1.524 . S
C880 C894 1.377 . S
C881 C880 1.524 . S
C881 C882 1.397 . S
C881 C886 1.363 . S
C882 H859 0.950 . S
C882 C881 1.397 . S
C882 C883 1.334 . S
C883 H860 0.950 . S
C883 C882 1.334 . S
C883 C884 1.287 . S
C884 C883 1.287 . S
C884 C885 1.524 . S
C884 H903 0.913 . S
C885 H861 0.950 . S
C885 C884 1.524 . S
C885 C886 1.415 . S
C886 H862 0.950 . S
C886 C881 1.363 . S
C886 C885 1.415 . S
C887 H863 0.951 . S
C887 C888 1.366 . S
C887 C889 1.388 . S
C888 C887 1.366 . S
C888 C892 1.385 . S
C889 H864 0.951 . S
C889 C887 1.388 . S
C889 C890 1.366 . S
C890 C889 1.366 . S
C890 C891 1.414 . S
C890 C893 1.499 . S
C891 H865 0.950 . S
C891 C890 1.414 . S
C891 C892 1.374 . S
C892 H866 0.950 . S
C892 C888 1.385 . S
C892 C891 1.374 . S
C893 C890 1.499 . S
C893 C894 1.373 . S
C893 C895 1.389 . S
C894 H867 0.950 . S
C894 C880 1.377 . S
C894 C893 1.373 . S
C895 C879 1.377 . S
C895 C893 1.389 . S
C895 C896 1.524 . S
C896 C895 1.524 . S
C896 C897 1.397 . S
C896 C901 1.363 . S
C897 H868 0.950 . S
C897 C896 1.397 . S
C897 C898 1.334 . S
C898 H869 0.950 . S
C898 C897 1.334 . S
C898 C899 1.287 . S
C899 C898 1.287 . S
C899 C900 1.524 . S
C899 H902 0.999 . S
C900 H870 0.950 . S
C900 C899 1.524 . S
C900 C901 1.415 . S
C901 H871 0.950 . S
C901 C896 1.363 . S
C901 C900 1.415 . S
H902 C899 0.999 . S
H903 C884 0.913 . S
H904 C922 0.951 . S
H905 C924 0.951 . S
H906 C926 0.973 . S
H907 C927 0.950 1_655 S
H908 C929 0.950 . S
H909 C932 0.950 . S
H910 C933 0.950 . S
H911 C935 0.950 . S
H912 C936 0.950 . S
H913 C937 0.951 . S
H914 C939 0.951 . S
H915 C941 0.950 . S
H916 C942 0.950 . S
H917 C944 0.950 . S
H918 C947 0.950 . S
H919 C948 0.950 . S
H920 C950 0.950 . S
H921 C951 0.950 1_655 S
C922 H904 0.951 . S
C922 C923 1.366 . S
C922 C924 1.388 . S
C923 C922 1.366 . S
C923 C927 1.385 . S
C924 H905 0.951 . S
C924 C922 1.388 . S
C924 C925 1.366 . S
C925 C924 1.366 . S
C925 C926 1.396 1_455 S
C925 C928 1.499 . S
C926 H906 0.973 . S
C926 C925 1.396 1_655 S
C926 C927 1.370 1_655 S
C927 H907 0.950 1_455 S
C927 C923 1.385 . S
C927 C926 1.370 1_455 S
C928 C925 1.499 . S
C928 C929 1.373 . S
C928 C930 1.389 . S
C929 H908 0.950 . S
C929 C928 1.373 . S
C929 C945 1.377 . S
C930 C928 1.389 . S
C930 C931 1.523 1_455 S
C930 C944 1.377 . S
C931 C930 1.523 1_655 S
C931 C932 1.401 . S
C931 C936 1.360 1_655 S
C932 H909 0.950 . S
C932 C931 1.401 . S
C932 C933 1.334 . S
C933 H910 0.950 . S
C933 C932 1.334 . S
C933 C934 1.287 . S
C934 C933 1.287 . S
C934 C935 1.524 1_655 S
C934 H953 0.913 . S
C935 H911 0.950 . S
C935 C934 1.524 1_455 S
C935 C936 1.415 . S
C936 H912 0.950 . S
C936 C931 1.360 1_455 S
C936 C935 1.415 . S
C937 H913 0.951 . S
C937 C938 1.352 1_655 S
C937 C939 1.388 . S
C938 C937 1.352 1_455 S
C938 C942 1.403 . S
C939 H914 0.951 . S
C939 C937 1.388 . S
C939 C940 1.366 1_655 S
C940 C939 1.366 1_455 S
C940 C941 1.414 . S
C940 C943 1.499 . S
C941 H915 0.950 . S
C941 C940 1.414 . S
C941 C942 1.374 . S
C942 H916 0.950 . S
C942 C938 1.403 . S
C942 C941 1.374 . S
C943 C940 1.499 . S
C943 C944 1.373 . S
C943 C945 1.389 . S
C944 H917 0.950 . S
C944 C930 1.377 . S
C944 C943 1.373 . S
C945 C929 1.377 . S
C945 C943 1.389 . S
C945 C946 1.524 . S
C946 C945 1.524 . S
C946 C947 1.397 . S
C946 C951 1.363 . S
C947 H918 0.950 . S
C947 C946 1.397 . S
C947 C948 1.334 . S
C948 H919 0.950 . S
C948 C947 1.334 . S
C948 C949 1.287 . S
C949 C948 1.287 . S
C949 C950 1.524 . S
C949 H952 0.999 . S
C950 H920 0.950 . S
C950 C949 1.524 . S
C950 C951 1.415 . S
C951 H921 0.950 1_455 S
C951 C946 1.363 . S
C951 C950 1.415 . S
H952 C949 0.999 . S
H953 C934 0.913 . S
H954 C972 0.951 . S
H955 C974 0.951 . S
H956 C976 0.950 . S
H957 C977 0.950 . S
H958 C979 0.950 . S
H959 C982 0.950 . S
H960 C983 0.950 . S
H961 C985 0.950 . S
H962 C986 0.950 . S
H963 C987 0.951 . S
H964 C989 0.951 . S
H965 C991 0.950 . S
H966 C992 0.950 . S
H967 C994 0.950 . S
H968 C997 0.950 . S
H969 C998 0.950 . S
H970 C1000 0.950 . S
H971 C1001 0.950 . S
C972 H954 0.951 . S
C972 C973 1.366 . S
C972 C974 1.388 . S
C973 C972 1.366 . S
C973 C977 1.385 . S
C974 H955 0.951 . S
C974 C972 1.388 . S
C974 C975 1.366 . S
C975 C974 1.366 . S
C975 C976 1.414 . S
C975 C978 1.499 . S
C976 H956 0.950 . S
C976 C975 1.414 . S
C976 C977 1.374 . S
C977 H957 0.950 . S
C977 C973 1.385 . S
C977 C976 1.374 . S
C978 C975 1.499 . S
C978 C979 1.373 . S
C978 C980 1.389 . S
C979 H958 0.950 . S
C979 C978 1.373 . S
C979 C995 1.377 . S
C980 C978 1.389 . S
C980 C981 1.524 . S
C980 C994 1.377 . S
C981 C980 1.524 . S
C981 C982 1.397 . S
C981 C986 1.363 . S
C982 H959 0.950 . S
C982 C981 1.397 . S
C982 C983 1.334 . S
C983 H960 0.950 . S
C983 C982 1.334 . S
C983 C984 1.287 . S
C984 C983 1.287 . S
C984 C985 1.524 . S
C984 H1003 0.913 . S
C985 H961 0.950 . S
C985 C984 1.524 . S
C985 C986 1.415 . S
C986 H962 0.950 . S
C986 C981 1.363 . S
C986 C985 1.415 . S
C987 H963 0.951 . S
C987 C988 1.366 . S
C987 C989 1.388 . S
C988 C987 1.366 . S
C988 C992 1.385 . S
C989 H964 0.951 . S
C989 C987 1.388 . S
C989 C990 1.366 . S
C990 C989 1.366 . S
C990 C991 1.414 . S
C990 C993 1.499 . S
C991 H965 0.950 . S
C991 C990 1.414 . S
C991 C992 1.374 . S
C992 H966 0.950 . S
C992 C988 1.385 . S
C992 C991 1.374 . S
C993 C990 1.499 . S
C993 C994 1.373 . S
C993 C995 1.389 . S
C994 H967 0.950 . S
C994 C980 1.377 . S
C994 C993 1.373 . S
C995 C979 1.377 . S
C995 C993 1.389 . S
C995 C996 1.524 . S
C996 C995 1.524 . S
C996 C997 1.397 . S
C996 C1001 1.363 . S
C997 H968 0.950 . S
C997 C996 1.397 . S
C997 C998 1.334 . S
C998 H969 0.950 . S
C998 C997 1.334 . S
C998 C999 1.287 . S
C999 C998 1.287 . S
C999 C1000 1.524 . S
C999 H1002 0.999 . S
C1000 H970 0.950 . S
C1000 C999 1.524 . S
C1000 C1001 1.415 . S
C1001 H971 0.950 . S
C1001 C996 1.363 . S
C1001 C1000 1.415 . S
H1002 C999 0.999 . S
H1003 C984 0.913 . S
H1004 C1022 0.951 . S
H1005 C1024 0.951 . S
H1006 C1026 0.950 . S
H1007 C1027 0.950 . S
H1008 C1029 0.950 . S
H1009 C1032 0.950 . S
H1010 C1033 0.950 . S
H1011 C1035 0.933 1_554 S
H1012 C1036 0.950 . S
H1013 C1037 0.951 . S
H1014 C1039 0.951 . S
H1015 C1041 0.950 . S
H1016 C1042 0.949 . S
H1017 C1044 0.950 . S
H1018 C1047 0.950 . S
H1019 C1048 0.950 . S
H1020 C1050 0.950 . S
H1021 C1051 0.950 . S
C1022 H1004 0.951 . S
C1022 C1023 1.366 . S
C1022 C1024 1.388 . S
C1023 C1022 1.366 . S
C1023 C1027 1.385 . S
C1024 H1005 0.951 . S
C1024 C1022 1.388 . S
C1024 C1025 1.366 . S
C1025 C1024 1.366 . S
C1025 C1026 1.414 . S
C1025 C1028 1.499 . S
C1026 H1006 0.950 . S
C1026 C1025 1.414 . S
C1026 C1027 1.374 . S
C1027 H1007 0.950 . S
C1027 C1023 1.385 . S
C1027 C1026 1.374 . S
C1028 C1025 1.499 . S
C1028 C1029 1.373 . S
C1028 C1030 1.389 . S
C1029 H1008 0.950 . S
C1029 C1028 1.373 . S
C1029 C1045 1.377 . S
C1030 C1028 1.389 . S
C1030 C1031 1.524 . S
C1030 C1044 1.377 . S
C1031 C1030 1.524 . S
C1031 C1032 1.397 . S
C1031 C1036 1.363 . S
C1032 H1009 0.950 . S
C1032 C1031 1.397 . S
C1032 C1033 1.334 . S
C1033 H1010 0.950 . S
C1033 C1032 1.334 . S
C1033 C1034 1.287 1_556 S
C1034 C1033 1.287 1_554 S
C1034 C1035 1.520 1_554 S
C1034 H1053 0.913 . S
C1035 H1011 0.933 1_556 S
C1035 C1034 1.520 1_556 S
C1035 C1036 1.440 . S
C1036 H1012 0.950 . S
C1036 C1031 1.363 . S
C1036 C1035 1.440 . S
C1037 H1013 0.951 . S
C1037 C1038 1.366 1_556 S
C1037 C1039 1.388 . S
C1038 C1037 1.366 1_554 S
C1038 C1042 1.384 . S
C1039 H1014 0.951 . S
C1039 C1037 1.388 . S
C1039 C1040 1.366 . S
C1040 C1039 1.366 . S
C1040 C1041 1.414 . S
C1040 C1043 1.499 . S
C1041 H1015 0.950 . S
C1041 C1040 1.414 . S
C1041 C1042 1.376 1_556 S
C1042 H1016 0.949 . S
C1042 C1038 1.384 . S
C1042 C1041 1.376 1_554 S
C1043 C1040 1.499 . S
C1043 C1044 1.373 . S
C1043 C1045 1.389 . S
C1044 H1017 0.950 . S
C1044 C1030 1.377 . S
C1044 C1043 1.373 . S
C1045 C1029 1.377 . S
C1045 C1043 1.389 . S
C1045 C1046 1.524 . S
C1046 C1045 1.524 . S
C1046 C1047 1.397 . S
C1046 C1051 1.363 . S
C1047 H1018 0.950 . S
C1047 C1046 1.397 . S
C1047 C1048 1.334 . S
C1048 H1019 0.950 . S
C1048 C1047 1.334 . S
C1048 C1049 1.287 . S
C1049 C1048 1.287 . S
C1049 C1050 1.524 . S
C1049 H1052 0.999 . S
C1050 H1020 0.950 . S
C1050 C1049 1.524 . S
C1050 C1051 1.415 . S
C1051 H1021 0.950 . S
C1051 C1046 1.363 . S
C1051 C1050 1.415 . S
H1052 C1049 0.999 . S
H1053 C1034 0.913 . S
H1054 C1072 0.951 . S
H1055 C1074 0.951 . S
H1056 C1076 0.950 . S
H1057 C1077 0.950 . S
H1058 C1079 0.950 . S
H1059 C1082 0.950 . S
H1060 C1083 0.950 . S
H1061 C1085 0.950 . S
H1062 C1086 0.950 . S
H1063 C1087 0.951 . S
H1064 C1089 0.951 . S
H1065 C1091 0.950 . S
H1066 C1092 0.950 . S
H1067 C1094 0.950 . S
H1068 C1097 0.950 . S
H1069 C1098 0.950 . S
H1070 C1100 0.950 . S
H1071 C1101 0.950 . S
C1072 H1054 0.951 . S
C1072 C1073 1.366 . S
C1072 C1074 1.388 . S
C1073 C1072 1.366 . S
C1073 C1077 1.385 . S
C1074 H1055 0.951 . S
C1074 C1072 1.388 . S
C1074 C1075 1.366 . S
C1075 C1074 1.366 . S
C1075 C1076 1.414 . S
C1075 C1078 1.499 . S
C1076 H1056 0.950 . S
C1076 C1075 1.414 . S
C1076 C1077 1.374 . S
C1077 H1057 0.950 . S
C1077 C1073 1.385 . S
C1077 C1076 1.374 . S
C1078 C1075 1.499 . S
C1078 C1079 1.373 . S
C1078 C1080 1.389 . S
C1079 H1058 0.950 . S
C1079 C1078 1.373 . S
C1079 C1095 1.377 . S
C1080 C1078 1.389 . S
C1080 C1081 1.524 . S
C1080 C1094 1.377 . S
C1081 C1080 1.524 . S
C1081 C1082 1.397 . S
C1081 C1086 1.363 . S
C1082 H1059 0.950 . S
C1082 C1081 1.397 . S
C1082 C1083 1.334 . S
C1083 H1060 0.950 . S
C1083 C1082 1.334 . S
C1083 C1084 1.287 . S
C1084 C1083 1.287 . S
C1084 C1085 1.524 . S
C1084 H1103 0.913 . S
C1085 H1061 0.950 . S
C1085 C1084 1.524 . S
C1085 C1086 1.415 . S
C1086 H1062 0.950 . S
C1086 C1081 1.363 . S
C1086 C1085 1.415 . S
C1087 H1063 0.951 . S
C1087 C1088 1.366 . S
C1087 C1089 1.388 . S
C1088 C1087 1.366 . S
C1088 C1092 1.385 . S
C1089 H1064 0.951 . S
C1089 C1087 1.388 . S
C1089 C1090 1.366 . S
C1090 C1089 1.366 . S
C1090 C1091 1.414 . S
C1090 C1093 1.499 . S
C1091 H1065 0.950 . S
C1091 C1090 1.414 . S
C1091 C1092 1.374 . S
C1092 H1066 0.950 . S
C1092 C1088 1.385 . S
C1092 C1091 1.374 . S
C1093 C1090 1.499 . S
C1093 C1094 1.373 . S
C1093 C1095 1.389 . S
C1094 H1067 0.950 . S
C1094 C1080 1.377 . S
C1094 C1093 1.373 . S
C1095 C1079 1.377 . S
C1095 C1093 1.389 . S
C1095 C1096 1.524 . S
C1096 C1095 1.524 . S
C1096 C1097 1.397 . S
C1096 C1101 1.363 . S
C1097 H1068 0.950 . S
C1097 C1096 1.397 . S
C1097 C1098 1.334 . S
C1098 H1069 0.950 . S
C1098 C1097 1.334 . S
C1098 C1099 1.287 . S
C1099 C1098 1.287 . S
C1099 C1100 1.524 . S
C1099 H1102 0.999 . S
C1100 H1070 0.950 . S
C1100 C1099 1.524 . S
C1100 C1101 1.415 . S
C1101 H1071 0.950 . S
C1101 C1096 1.363 . S
C1101 C1100 1.415 . S
H1102 C1099 0.999 . S
H1103 C1084 0.913 . S
H1104 C1122 0.951 . S
H1105 C1124 0.931 1_565 S
H1106 C1126 0.950 . S
H1107 C1127 0.950 . S
H1108 C1129 0.950 . S
H1109 C1132 0.950 . S
H1110 C1133 0.950 . S
H1111 C1135 0.950 . S
H1112 C1136 0.950 . S
H1113 C1137 0.951 . S
H1114 C1139 0.951 . S
H1115 C1141 0.950 . S
H1116 C1142 0.950 . S
H1117 C1144 0.950 . S
H1118 C1147 0.950 . S
H1119 C1148 0.950 . S
H1120 C1150 0.950 . S
H1121 C1151 0.950 . S
C1122 H1104 0.951 . S
C1122 C1123 1.366 . S
C1122 C1124 1.388 . S
C1123 C1122 1.366 . S
C1123 C1127 1.385 . S
C1124 H1105 0.931 1_545 S
C1124 C1122 1.388 . S
C1124 C1125 1.366 . S
C1125 C1124 1.366 . S
C1125 C1126 1.414 . S
C1125 C1128 1.499 . S
C1126 H1106 0.950 . S
C1126 C1125 1.414 . S
C1126 C1127 1.374 . S
C1127 H1107 0.950 . S
C1127 C1123 1.385 . S
C1127 C1126 1.374 . S
C1128 C1125 1.499 . S
C1128 C1129 1.373 . S
C1128 C1130 1.389 1_545 S
C1129 H1108 0.950 . S
C1129 C1128 1.373 . S
C1129 C1145 1.377 . S
C1130 C1128 1.389 1_565 S
C1130 C1131 1.524 . S
C1130 C1144 1.377 . S
C1131 C1130 1.524 . S
C1131 C1132 1.397 . S
C1131 C1136 1.363 . S
C1132 H1109 0.950 . S
C1132 C1131 1.397 . S
C1132 C1133 1.334 . S
C1133 H1110 0.950 . S
C1133 C1132 1.334 . S
C1133 C1134 1.287 . S
C1134 C1133 1.287 . S
C1134 C1135 1.524 . S
C1134 H1153 0.913 . S
C1135 H1111 0.950 . S
C1135 C1134 1.524 . S
C1135 C1136 1.415 . S
C1136 H1112 0.950 . S
C1136 C1131 1.363 . S
C1136 C1135 1.415 . S
C1137 H1113 0.951 . S
C1137 C1138 1.366 . S
C1137 C1139 1.388 . S
C1138 C1137 1.366 . S
C1138 C1142 1.385 1_545 S
C1139 H1114 0.951 . S
C1139 C1137 1.388 . S
C1139 C1140 1.366 . S
C1140 C1139 1.366 . S
C1140 C1141 1.414 1_545 S
C1140 C1143 1.499 . S
C1141 H1115 0.950 . S
C1141 C1140 1.414 1_565 S
C1141 C1142 1.374 . S
C1142 H1116 0.950 . S
C1142 C1138 1.385 1_565 S
C1142 C1141 1.374 . S
C1143 C1140 1.499 . S
C1143 C1144 1.373 1_545 S
C1143 C1145 1.389 . S
C1144 H1117 0.950 . S
C1144 C1130 1.377 . S
C1144 C1143 1.373 1_565 S
C1145 C1129 1.377 . S
C1145 C1143 1.389 . S
C1145 C1146 1.524 . S
C1146 C1145 1.524 . S
C1146 C1147 1.397 . S
C1146 C1151 1.363 . S
C1147 H1118 0.950 . S
C1147 C1146 1.397 . S
C1147 C1148 1.334 . S
C1148 H1119 0.950 . S
C1148 C1147 1.334 . S
C1148 C1149 1.287 . S
C1149 C1148 1.287 . S
C1149 C1150 1.524 . S
C1149 H1152 0.999 . S
C1150 H1120 0.950 . S
C1150 C1149 1.524 . S
C1150 C1151 1.415 . S
C1151 H1121 0.950 . S
C1151 C1146 1.363 . S
C1151 C1150 1.415 . S
H1152 C1149 0.999 . S
H1153 C1134 0.913 . S
H1154 C1172 0.951 . S
H1155 C1174 0.951 . S
H1156 C1176 0.950 . S
H1157 C1177 0.950 . S
H1158 C1179 0.950 . S
H1159 C1182 0.950 . S
H1160 C1183 0.950 . S
H1161 C1185 0.950 . S
H1162 C1186 0.950 . S
H1163 C1187 0.951 . S
H1164 C1189 0.951 . S
H1165 C1191 0.950 . S
H1166 C1192 0.950 . S
H1167 C1194 0.950 . S
H1168 C1197 0.950 . S
H1169 C1198 0.950 . S
H1170 C1200 0.950 . S
H1171 C1201 0.950 . S
C1172 H1154 0.951 . S
C1172 C1173 1.366 . S
C1172 C1174 1.388 . S
C1173 C1172 1.366 . S
C1173 C1177 1.385 . S
C1174 H1155 0.951 . S
C1174 C1172 1.388 . S
C1174 C1175 1.366 . S
C1175 C1174 1.366 . S
C1175 C1176 1.414 . S
C1175 C1178 1.499 . S
C1176 H1156 0.950 . S
C1176 C1175 1.414 . S
C1176 C1177 1.374 . S
C1177 H1157 0.950 . S
C1177 C1173 1.385 . S
C1177 C1176 1.374 . S
C1178 C1175 1.499 . S
C1178 C1179 1.373 . S
C1178 C1180 1.389 . S
C1179 H1158 0.950 . S
C1179 C1178 1.373 . S
C1179 C1195 1.377 . S
C1180 C1178 1.389 . S
C1180 C1181 1.524 . S
C1180 C1194 1.377 . S
C1181 C1180 1.524 . S
C1181 C1182 1.397 . S
C1181 C1186 1.363 . S
C1182 H1159 0.950 . S
C1182 C1181 1.397 . S
C1182 C1183 1.334 . S
C1183 H1160 0.950 . S
C1183 C1182 1.334 . S
C1183 C1184 1.287 . S
C1184 C1183 1.287 . S
C1184 C1185 1.524 . S
C1184 H1203 0.913 . S
C1185 H1161 0.950 . S
C1185 C1184 1.524 . S
C1185 C1186 1.415 . S
C1186 H1162 0.950 . S
C1186 C1181 1.363 . S
C1186 C1185 1.415 . S
C1187 H1163 0.951 . S
C1187 C1188 1.366 . S
C1187 C1189 1.388 . S
C1188 C1187 1.366 . S
C1188 C1192 1.385 . S
C1189 H1164 0.951 . S
C1189 C1187 1.388 . S
C1189 C1190 1.366 . S
C1190 C1189 1.366 . S
C1190 C1191 1.414 . S
C1190 C1193 1.499 . S
C1191 H1165 0.950 . S
C1191 C1190 1.414 . S
C1191 C1192 1.374 . S
C1192 H1166 0.950 . S
C1192 C1188 1.385 . S
C1192 C1191 1.374 . S
C1193 C1190 1.499 . S
C1193 C1194 1.373 . S
C1193 C1195 1.389 . S
C1194 H1167 0.950 . S
C1194 C1180 1.377 . S
C1194 C1193 1.373 . S
C1195 C1179 1.377 . S
C1195 C1193 1.389 . S
C1195 C1196 1.524 . S
C1196 C1195 1.524 . S
C1196 C1197 1.397 . S
C1196 C1201 1.363 . S
C1197 H1168 0.950 . S
C1197 C1196 1.397 . S
C1197 C1198 1.334 . S
C1198 H1169 0.950 . S
C1198 C1197 1.334 . S
C1198 C1199 1.287 . S
C1199 C1198 1.287 . S
C1199 C1200 1.524 . S
C1199 H1202 0.999 . S
C1200 H1170 0.950 . S
C1200 C1199 1.524 . S
C1200 C1201 1.415 . S
C1201 H1171 0.950 . S
C1201 C1196 1.363 . S
C1201 C1200 1.415 . S
H1202 C1199 0.999 . S
H1203 C1184 0.913 . S
H1204 C1222 0.951 . S
H1205 C1224 0.951 . S
H1206 C1226 0.950 . S
H1207 C1227 0.950 . S
H1208 C1229 0.950 . S
H1209 C1232 0.950 . S
H1210 C1233 0.950 . S
H1211 C1235 0.950 . S
H1212 C1236 0.950 . S
H1213 C1237 0.951 . S
H1214 C1239 0.951 . S
H1215 C1241 0.950 . S
H1216 C1242 0.950 . S
H1217 C1244 0.950 . S
H1218 C1247 0.950 . S
H1219 C1248 0.950 . S
H1220 C1250 0.950 . S
H1221 C1251 0.950 . S
C1222 H1204 0.951 . S
C1222 C1223 1.366 1_545 S
C1222 C1224 1.388 . S
C1223 C1222 1.366 1_565 S
C1223 C1227 1.385 . S
C1224 H1205 0.951 . S
C1224 C1222 1.388 . S
C1224 C1225 1.366 . S
C1225 C1224 1.366 . S
C1225 C1226 1.414 1_545 S
C1225 C1228 1.499 . S
C1226 H1206 0.950 . S
C1226 C1225 1.414 1_565 S
C1226 C1227 1.374 . S
C1227 H1207 0.950 . S
C1227 C1223 1.385 . S
C1227 C1226 1.374 . S
C1228 C1225 1.499 . S
C1228 C1229 1.373 1_545 S
C1228 C1230 1.389 . S
C1229 H1208 0.950 . S
C1229 C1228 1.373 1_565 S
C1229 C1245 1.377 . S
C1230 C1228 1.389 . S
C1230 C1231 1.524 . S
C1230 C1244 1.377 . S
C1231 C1230 1.524 . S
C1231 C1232 1.397 . S
C1231 C1236 1.363 . S
C1232 H1209 0.950 . S
C1232 C1231 1.397 . S
C1232 C1233 1.334 . S
C1233 H1210 0.950 . S
C1233 C1232 1.334 . S
C1233 C1234 1.287 . S
C1234 C1233 1.287 . S
C1234 C1235 1.524 . S
C1234 H1253 0.913 . S
C1235 H1211 0.950 . S
C1235 C1234 1.524 . S
C1235 C1236 1.415 . S
C1236 H1212 0.950 . S
C1236 C1231 1.363 . S
C1236 C1235 1.415 . S
C1237 H1213 0.951 . S
C1237 C1238 1.366 1_565 S
C1237 C1239 1.388 . S
C1238 C1237 1.366 1_545 S
C1238 C1242 1.385 . S
C1239 H1214 0.951 . S
C1239 C1237 1.388 . S
C1239 C1240 1.366 1_565 S
C1240 C1239 1.366 1_545 S
C1240 C1241 1.414 . S
C1240 C1243 1.499 . S
C1241 H1215 0.950 . S
C1241 C1240 1.414 . S
C1241 C1242 1.374 . S
C1242 H1216 0.950 . S
C1242 C1238 1.385 . S
C1242 C1241 1.374 . S
C1243 C1240 1.499 . S
C1243 C1244 1.373 . S
C1243 C1245 1.389 1_545 S
C1244 H1217 0.950 . S
C1244 C1230 1.377 . S
C1244 C1243 1.373 . S
C1245 C1229 1.377 . S
C1245 C1243 1.389 1_565 S
C1245 C1246 1.524 . S
C1246 C1245 1.524 . S
C1246 C1247 1.397 . S
C1246 C1251 1.363 . S
C1247 H1218 0.950 . S
C1247 C1246 1.397 . S
C1247 C1248 1.334 . S
C1248 H1219 0.950 . S
C1248 C1247 1.334 . S
C1248 C1249 1.287 . S
C1249 C1248 1.287 . S
C1249 C1250 1.524 . S
C1249 H1252 0.999 . S
C1250 H1220 0.950 . S
C1250 C1249 1.524 . S
C1250 C1251 1.415 . S
C1251 H1221 0.950 . S
C1251 C1246 1.363 . S
C1251 C1250 1.415 . S
H1252 C1249 0.999 . S
H1253 C1234 0.913 . S
H1254 C1272 0.951 . S
H1255 C1274 0.951 . S
H1256 C1276 0.950 . S
H1257 C1277 0.950 . S
H1258 C1279 0.950 . S
H1259 C1282 0.950 . S
H1260 C1283 0.950 . S
H1261 C1285 0.950 . S
H1262 C1286 0.950 . S
H1263 C1287 0.951 . S
H1264 C1289 0.951 . S
H1265 C1291 0.950 . S
H1266 C1292 0.950 . S
H1267 C1294 0.950 . S
H1268 C1297 0.950 . S
H1269 C1298 0.950 . S
H1270 C1300 0.950 . S
H1271 C1301 0.950 . S
C1272 H1254 0.951 . S
C1272 C1273 1.366 . S
C1272 C1274 1.388 . S
C1273 C1272 1.366 . S
C1273 C1277 1.385 . S
C1274 H1255 0.951 . S
C1274 C1272 1.388 . S
C1274 C1275 1.366 . S
C1275 C1274 1.366 . S
C1275 C1276 1.414 . S
C1275 C1278 1.499 . S
C1276 H1256 0.950 . S
C1276 C1275 1.414 . S
C1276 C1277 1.374 . S
C1277 H1257 0.950 . S
C1277 C1273 1.385 . S
C1277 C1276 1.374 . S
C1278 C1275 1.499 . S
C1278 C1279 1.373 . S
C1278 C1280 1.389 . S
C1279 H1258 0.950 . S
C1279 C1278 1.373 . S
C1279 C1295 1.377 . S
C1280 C1278 1.389 . S
C1280 C1281 1.524 . S
C1280 C1294 1.377 . S
C1281 C1280 1.524 . S
C1281 C1282 1.397 . S
C1281 C1286 1.363 . S
C1282 H1259 0.950 . S
C1282 C1281 1.397 . S
C1282 C1283 1.334 . S
C1283 H1260 0.950 . S
C1283 C1282 1.334 . S
C1283 C1284 1.287 . S
C1284 C1283 1.287 . S
C1284 C1285 1.524 . S
C1284 H1303 0.913 . S
C1285 H1261 0.950 . S
C1285 C1284 1.524 . S
C1285 C1286 1.415 . S
C1286 H1262 0.950 . S
C1286 C1281 1.363 . S
C1286 C1285 1.415 . S
C1287 H1263 0.951 . S
C1287 C1288 1.366 . S
C1287 C1289 1.388 . S
C1288 C1287 1.366 . S
C1288 C1292 1.385 . S
C1289 H1264 0.951 . S
C1289 C1287 1.388 . S
C1289 C1290 1.366 . S
C1290 C1289 1.366 . S
C1290 C1291 1.414 . S
C1290 C1293 1.499 . S
C1291 H1265 0.950 . S
C1291 C1290 1.414 . S
C1291 C1292 1.374 . S
C1292 H1266 0.950 . S
C1292 C1288 1.385 . S
C1292 C1291 1.374 . S
C1293 C1290 1.499 . S
C1293 C1294 1.373 . S
C1293 C1295 1.389 . S
C1294 H1267 0.950 . S
C1294 C1280 1.377 . S
C1294 C1293 1.373 . S
C1295 C1279 1.377 . S
C1295 C1293 1.389 . S
C1295 C1296 1.524 . S
C1296 C1295 1.524 . S
C1296 C1297 1.397 . S
C1296 C1301 1.363 . S
C1297 H1268 0.950 . S
C1297 C1296 1.397 . S
C1297 C1298 1.334 . S
C1298 H1269 0.950 . S
C1298 C1297 1.334 . S
C1298 C1299 1.287 . S
C1299 C1298 1.287 . S
C1299 C1300 1.524 . S
C1299 H1302 0.999 . S
C1300 H1270 0.950 . S
C1300 C1299 1.524 . S
C1300 C1301 1.415 . S
C1301 H1271 0.950 . S
C1301 C1296 1.363 . S
C1301 C1300 1.415 . S
H1302 C1299 0.999 . S
H1303 C1284 0.913 . S
H1304 C1322 0.951 . S
H1305 C1324 0.951 . S
H1306 C1326 0.950 . S
H1307 C1327 0.950 . S
H1308 C1329 0.950 . S
H1309 C1332 0.950 . S
H1310 C1333 0.950 . S
H1311 C1335 0.950 . S
H1312 C1336 0.950 1_545 S
H1313 C1337 0.951 . S
H1314 C1339 0.951 . S
H1315 C1341 0.950 . S
H1316 C1342 0.950 . S
H1317 C1344 0.950 . S
H1318 C1347 0.950 . S
H1319 C1348 0.950 . S
H1320 C1350 0.950 . S
H1321 C1351 0.950 . S
C1322 H1304 0.951 . S
C1322 C1323 1.366 . S
C1322 C1324 1.388 . S
C1323 C1322 1.366 . S
C1323 C1327 1.385 . S
C1324 H1305 0.951 . S
C1324 C1322 1.388 . S
C1324 C1325 1.366 . S
C1325 C1324 1.366 . S
C1325 C1326 1.414 . S
C1325 C1328 1.499 . S
C1326 H1306 0.950 . S
C1326 C1325 1.414 . S
C1326 C1327 1.374 . S
C1327 H1307 0.950 . S
C1327 C1323 1.385 . S
C1327 C1326 1.374 . S
C1328 C1325 1.499 . S
C1328 C1329 1.373 . S
C1328 C1330 1.389 . S
C1329 H1308 0.950 . S
C1329 C1328 1.373 . S
C1329 C1345 1.377 . S
C1330 C1328 1.389 . S
C1330 C1331 1.524 1_545 S
C1330 C1344 1.377 . S
C1331 C1330 1.524 1_565 S
C1331 C1332 1.397 . S
C1331 C1336 1.363 . S
C1332 H1309 0.950 . S
C1332 C1331 1.397 . S
C1332 C1333 1.334 . S
C1333 H1310 0.950 . S
C1333 C1332 1.334 . S
C1333 C1334 1.287 . S
C1334 C1333 1.287 . S
C1334 C1335 1.524 . S
C1334 H1353 0.913 . S
C1335 H1311 0.950 . S
C1335 C1334 1.524 . S
C1335 C1336 1.415 . S
C1336 H1312 0.950 1_565 S
C1336 C1331 1.363 . S
C1336 C1335 1.415 . S
C1337 H1313 0.951 . S
C1337 C1338 1.366 . S
C1337 C1339 1.388 . S
C1338 C1337 1.366 . S
C1338 C1342 1.385 . S
C1339 H1314 0.951 . S
C1339 C1337 1.388 . S
C1339 C1340 1.366 . S
C1340 C1339 1.366 . S
C1340 C1341 1.414 . S
C1340 C1343 1.499 . S
C1341 H1315 0.950 . S
C1341 C1340 1.414 . S
C1341 C1342 1.374 . S
C1342 H1316 0.950 . S
C1342 C1338 1.385 . S
C1342 C1341 1.374 . S
C1343 C1340 1.499 . S
C1343 C1344 1.373 . S
C1343 C1345 1.389 . S
C1344 H1317 0.950 . S
C1344 C1330 1.377 . S
C1344 C1343 1.373 . S
C1345 C1329 1.377 . S
C1345 C1343 1.389 . S
C1345 C1346 1.524 . S
C1346 C1345 1.524 . S
C1346 C1347 1.397 . S
C1346 C1351 1.363 . S
C1347 H1318 0.950 . S
C1347 C1346 1.397 . S
C1347 C1348 1.334 . S
C1348 H1319 0.950 . S
C1348 C1347 1.334 . S
C1348 C1349 1.287 . S
C1349 C1348 1.287 . S
C1349 C1350 1.524 . S
C1349 H1352 0.999 . S
C1350 H1320 0.950 . S
C1350 C1349 1.524 . S
C1350 C1351 1.415 . S
C1351 H1321 0.950 . S
C1351 C1346 1.363 . S
C1351 C1350 1.415 . S
H1352 C1349 0.999 . S
H1353 C1334 0.913 . S
H1354 C1372 0.951 . S
H1355 C1374 0.951 . S
H1356 C1376 0.950 . S
H1357 C1377 0.950 . S
H1358 C1379 0.950 . S
H1359 C1382 0.950 . S
H1360 C1383 0.950 . S
H1361 C1385 0.950 . S
H1362 C1386 0.950 . S
H1363 C1387 0.951 . S
H1364 C1389 0.951 . S
H1365 C1391 0.950 . S
H1366 C1392 0.950 . S
H1367 C1394 0.950 . S
H1368 C1397 0.950 . S
H1369 C1398 0.950 . S
H1370 C1400 0.950 . S
H1371 C1401 0.950 . S
C1372 H1354 0.951 . S
C1372 C1373 1.366 . S
C1372 C1374 1.388 . S
C1373 C1372 1.366 . S
C1373 C1377 1.385 . S
C1374 H1355 0.951 . S
C1374 C1372 1.388 . S
C1374 C1375 1.366 . S
C1375 C1374 1.366 . S
C1375 C1376 1.414 . S
C1375 C1378 1.499 . S
C1376 H1356 0.950 . S
C1376 C1375 1.414 . S
C1376 C1377 1.374 . S
C1377 H1357 0.950 . S
C1377 C1373 1.385 . S
C1377 C1376 1.374 . S
C1378 C1375 1.499 . S
C1378 C1379 1.373 . S
C1378 C1380 1.389 . S
C1379 H1358 0.950 . S
C1379 C1378 1.373 . S
C1379 C1395 1.377 . S
C1380 C1378 1.389 . S
C1380 C1381 1.524 . S
C1380 C1394 1.377 . S
C1381 C1380 1.524 . S
C1381 C1382 1.397 . S
C1381 C1386 1.363 . S
C1382 H1359 0.950 . S
C1382 C1381 1.397 . S
C1382 C1383 1.334 . S
C1383 H1360 0.950 . S
C1383 C1382 1.334 . S
C1383 C1384 1.287 . S
C1384 C1383 1.287 . S
C1384 C1385 1.524 . S
C1384 H1403 0.913 . S
C1385 H1361 0.950 . S
C1385 C1384 1.524 . S
C1385 C1386 1.415 . S
C1386 H1362 0.950 . S
C1386 C1381 1.363 . S
C1386 C1385 1.415 . S
C1387 H1363 0.951 . S
C1387 C1388 1.366 . S
C1387 C1389 1.388 . S
C1388 C1387 1.366 . S
C1388 C1392 1.385 . S
C1389 H1364 0.951 . S
C1389 C1387 1.388 . S
C1389 C1390 1.366 . S
C1390 C1389 1.366 . S
C1390 C1391 1.414 . S
C1390 C1393 1.499 . S
C1391 H1365 0.950 . S
C1391 C1390 1.414 . S
C1391 C1392 1.374 . S
C1392 H1366 0.950 . S
C1392 C1388 1.385 . S
C1392 C1391 1.374 . S
C1393 C1390 1.499 . S
C1393 C1394 1.373 . S
C1393 C1395 1.389 . S
C1394 H1367 0.950 . S
C1394 C1380 1.377 . S
C1394 C1393 1.373 . S
C1395 C1379 1.377 . S
C1395 C1393 1.389 . S
C1395 C1396 1.524 . S
C1396 C1395 1.524 . S
C1396 C1397 1.397 . S
C1396 C1401 1.363 . S
C1397 H1368 0.950 . S
C1397 C1396 1.397 . S
C1397 C1398 1.334 . S
C1398 H1369 0.950 . S
C1398 C1397 1.334 . S
C1398 C1399 1.287 . S
C1399 C1398 1.287 . S
C1399 C1400 1.524 . S
C1399 H1402 0.999 . S
C1400 H1370 0.950 . S
C1400 C1399 1.524 . S
C1400 C1401 1.415 . S
C1401 H1371 0.950 . S
C1401 C1396 1.363 . S
C1401 C1400 1.415 . S
H1402 C1399 0.999 . S
H1403 C1384 0.913 . S
H1404 C1422 0.951 . S
H1405 C1424 0.951 . S
H1406 C1426 0.950 . S
H1407 C1427 0.950 . S
H1408 C1429 0.950 . S
H1409 C1432 0.950 . S
H1410 C1433 0.950 . S
H1411 C1435 0.950 . S
H1412 C1436 0.950 . S
H1413 C1437 0.951 . S
H1414 C1439 0.949 . S
H1415 C1441 0.950 . S
H1416 C1442 0.950 . S
H1417 C1444 0.950 . S
H1418 C1447 0.950 . S
H1419 C1448 0.950 . S
H1420 C1450 0.950 . S
H1421 C1451 0.950 . S
C1422 H1404 0.951 . S
C1422 C1423 1.366 . S
C1422 C1424 1.388 . S
C1423 C1422 1.366 . S
C1423 C1427 1.385 1_565 S
C1424 H1405 0.951 . S
C1424 C1422 1.388 . S
C1424 C1425 1.366 . S
C1425 C1424 1.366 . S
C1425 C1426 1.414 1_565 S
C1425 C1428 1.499 . S
C1426 H1406 0.950 . S
C1426 C1425 1.414 1_545 S
C1426 C1427 1.374 . S
C1427 H1407 0.950 . S
C1427 C1423 1.385 1_545 S
C1427 C1426 1.374 . S
C1428 C1425 1.499 . S
C1428 C1429 1.373 . S
C1428 C1430 1.389 1_565 S
C1429 H1408 0.950 . S
C1429 C1428 1.373 . S
C1429 C1445 1.377 . S
C1430 C1428 1.389 1_545 S
C1430 C1431 1.524 . S
C1430 C1444 1.377 . S
C1431 C1430 1.524 . S
C1431 C1432 1.397 . S
C1431 C1436 1.363 . S
C1432 H1409 0.950 . S
C1432 C1431 1.397 . S
C1432 C1433 1.334 . S
C1433 H1410 0.950 . S
C1433 C1432 1.334 . S
C1433 C1434 1.287 . S
C1434 C1433 1.287 . S
C1434 C1435 1.524 . S
C1434 H1453 0.913 . S
C1435 H1411 0.950 . S
C1435 C1434 1.524 . S
C1435 C1436 1.415 . S
C1436 H1412 0.950 . S
C1436 C1431 1.363 . S
C1436 C1435 1.415 . S
C1437 H1413 0.951 . S
C1437 C1438 1.366 . S
C1437 C1439 1.388 . S
C1438 C1437 1.366 . S
C1438 C1442 1.385 . S
C1439 H1414 0.949 . S
C1439 C1437 1.388 . S
C1439 C1440 1.366 . S
C1440 C1439 1.366 . S
C1440 C1441 1.414 . S
C1440 C1443 1.499 . S
C1441 H1415 0.950 . S
C1441 C1440 1.414 . S
C1441 C1442 1.374 . S
C1442 H1416 0.950 . S
C1442 C1438 1.385 . S
C1442 C1441 1.374 . S
C1443 C1440 1.499 . S
C1443 C1444 1.373 1_565 S
C1443 C1445 1.389 . S
C1444 H1417 0.950 . S
C1444 C1430 1.377 . S
C1444 C1443 1.373 1_545 S
C1445 C1429 1.377 . S
C1445 C1443 1.389 . S
C1445 C1446 1.524 . S
C1446 C1445 1.524 . S
C1446 C1447 1.397 . S
C1446 C1451 1.363 . S
C1447 H1418 0.950 . S
C1447 C1446 1.397 . S
C1447 C1448 1.334 . S
C1448 H1419 0.950 . S
C1448 C1447 1.334 . S
C1448 C1449 1.287 . S
C1449 C1448 1.287 . S
C1449 C1450 1.524 . S
C1449 H1452 0.999 . S
C1450 H1420 0.950 . S
C1450 C1449 1.524 . S
C1450 C1451 1.415 . S
C1451 H1421 0.950 . S
C1451 C1446 1.363 . S
C1451 C1450 1.415 . S
H1452 C1449 0.999 . S
H1453 C1434 0.913 . S
H1454 C1472 0.951 . S
H1455 C1474 0.951 . S
H1456 C1476 0.950 . S
H1457 C1477 0.950 . S
H1458 C1479 0.950 . S
H1459 C1482 0.950 . S
H1460 C1483 0.950 . S
H1461 C1485 0.950 . S
H1462 C1486 0.950 . S
H1463 C1487 0.951 . S
H1464 C1489 0.951 . S
H1465 C1491 0.950 . S
H1466 C1492 0.950 . S
H1467 C1494 0.950 . S
H1468 C1497 0.950 . S
H1469 C1498 0.950 . S
H1470 C1500 0.950 . S
H1471 C1501 0.950 . S
C1472 H1454 0.951 . S
C1472 C1473 1.366 . S
C1472 C1474 1.388 . S
C1473 C1472 1.366 . S
C1473 C1477 1.385 . S
C1474 H1455 0.951 . S
C1474 C1472 1.388 . S
C1474 C1475 1.366 . S
C1475 C1474 1.366 . S
C1475 C1476 1.414 . S
C1475 C1478 1.499 . S
C1476 H1456 0.950 . S
C1476 C1475 1.414 . S
C1476 C1477 1.374 . S
C1477 H1457 0.950 . S
C1477 C1473 1.385 . S
C1477 C1476 1.374 . S
C1478 C1475 1.499 . S
C1478 C1479 1.373 . S
C1478 C1480 1.389 . S
C1479 H1458 0.950 . S
C1479 C1478 1.373 . S
C1479 C1495 1.377 . S
C1480 C1478 1.389 . S
C1480 C1481 1.524 . S
C1480 C1494 1.377 . S
C1481 C1480 1.524 . S
C1481 C1482 1.397 . S
C1481 C1486 1.363 . S
C1482 H1459 0.950 . S
C1482 C1481 1.397 . S
C1482 C1483 1.334 . S
C1483 H1460 0.950 . S
C1483 C1482 1.334 . S
C1483 C1484 1.287 . S
C1484 C1483 1.287 . S
C1484 C1485 1.524 . S
C1484 H1503 0.913 . S
C1485 H1461 0.950 . S
C1485 C1484 1.524 . S
C1485 C1486 1.415 . S
C1486 H1462 0.950 . S
C1486 C1481 1.363 . S
C1486 C1485 1.415 . S
C1487 H1463 0.951 . S
C1487 C1488 1.366 . S
C1487 C1489 1.388 . S
C1488 C1487 1.366 . S
C1488 C1492 1.385 . S
C1489 H1464 0.951 . S
C1489 C1487 1.388 . S
C1489 C1490 1.366 . S
C1490 C1489 1.366 . S
C1490 C1491 1.414 . S
C1490 C1493 1.499 . S
C1491 H1465 0.950 . S
C1491 C1490 1.414 . S
C1491 C1492 1.374 . S
C1492 H1466 0.950 . S
C1492 C1488 1.385 . S
C1492 C1491 1.374 . S
C1493 C1490 1.499 . S
C1493 C1494 1.373 . S
C1493 C1495 1.389 . S
C1494 H1467 0.950 . S
C1494 C1480 1.377 . S
C1494 C1493 1.373 . S
C1495 C1479 1.377 . S
C1495 C1493 1.389 . S
C1495 C1496 1.524 . S
C1496 C1495 1.524 . S
C1496 C1497 1.397 . S
C1496 C1501 1.363 . S
C1497 H1468 0.950 . S
C1497 C1496 1.397 . S
C1497 C1498 1.334 . S
C1498 H1469 0.950 . S
C1498 C1497 1.334 . S
C1498 C1499 1.287 . S
C1499 C1498 1.287 . S
C1499 C1500 1.524 . S
C1499 H1502 0.999 . S
C1500 H1470 0.950 . S
C1500 C1499 1.524 . S
C1500 C1501 1.415 . S
C1501 H1471 0.950 . S
C1501 C1496 1.363 . S
C1501 C1500 1.415 . S
H1502 C1499 0.999 . S
H1503 C1484 0.913 . S
H1504 C1522 0.951 . S
H1505 C1524 0.951 . S
H1506 C1526 0.950 . S
H1507 C1527 0.950 . S
H1508 C1529 0.950 . S
H1509 C1532 0.950 . S
H1510 C1533 0.950 . S
H1511 C1535 0.950 . S
H1512 C1536 0.950 . S
H1513 C1537 0.951 . S
H1514 C1539 0.951 . S
H1515 C1541 0.949 1_556 S
H1516 C1542 0.950 1_565 S
H1517 C1544 0.950 . S
H1518 C1547 0.950 . S
H1519 C1548 0.950 . S
H1520 C1550 0.950 . S
H1521 C1551 0.950 . S
C1522 H1504 0.951 . S
C1522 C1523 1.366 . S
C1522 C1524 1.388 . S
C1523 C1522 1.366 . S
C1523 C1527 1.385 . S
C1524 H1505 0.951 . S
C1524 C1522 1.388 . S
C1524 C1525 1.366 . S
C1525 C1524 1.366 . S
C1525 C1526 1.414 . S
C1525 C1528 1.499 . S
C1526 H1506 0.950 . S
C1526 C1525 1.414 . S
C1526 C1527 1.374 . S
C1527 H1507 0.950 . S
C1527 C1523 1.385 . S
C1527 C1526 1.374 . S
C1528 C1525 1.499 . S
C1528 C1529 1.373 . S
C1528 C1530 1.389 1_554 S
C1529 H1508 0.950 . S
C1529 C1528 1.373 . S
C1529 C1545 1.377 . S
C1530 C1528 1.389 1_556 S
C1530 C1531 1.524 . S
C1530 C1544 1.377 . S
C1531 C1530 1.524 . S
C1531 C1532 1.397 . S
C1531 C1536 1.363 . S
C1532 H1509 0.950 . S
C1532 C1531 1.397 . S
C1532 C1533 1.334 . S
C1533 H1510 0.950 . S
C1533 C1532 1.334 . S
C1533 C1534 1.287 . S
C1534 C1533 1.287 . S
C1534 C1535 1.524 . S
C1534 H1553 0.913 . S
C1535 H1511 0.950 . S
C1535 C1534 1.524 . S
C1535 C1536 1.415 . S
C1536 H1512 0.950 . S
C1536 C1531 1.363 . S
C1536 C1535 1.415 . S
C1537 H1513 0.951 . S
C1537 C1538 1.366 . S
C1537 C1539 1.388 . S
C1538 C1537 1.366 . S
C1538 C1542 1.385 1_554 S
C1539 H1514 0.951 . S
C1539 C1537 1.388 . S
C1539 C1540 1.366 . S
C1540 C1539 1.366 . S
C1540 C1541 1.416 . S
C1540 C1543 1.499 . S
C1541 H1515 0.949 1_554 S
C1541 C1540 1.416 . S
C1541 C1542 1.373 1_554 S
C1542 H1516 0.950 1_545 S
C1542 C1538 1.385 1_556 S
C1542 C1541 1.373 1_556 S
C1543 C1540 1.499 . S
C1543 C1544 1.373 1_554 S
C1543 C1545 1.389 . S
C1544 H1517 0.950 . S
C1544 C1530 1.377 . S
C1544 C1543 1.373 1_556 S
C1545 C1529 1.377 . S
C1545 C1543 1.389 . S
C1545 C1546 1.524 . S
C1546 C1545 1.524 . S
C1546 C1547 1.397 . S
C1546 C1551 1.363 . S
C1547 H1518 0.950 . S
C1547 C1546 1.397 . S
C1547 C1548 1.334 . S
C1548 H1519 0.950 . S
C1548 C1547 1.334 . S
C1548 C1549 1.287 . S
C1549 C1548 1.287 . S
C1549 C1550 1.524 . S
C1549 H1552 0.999 . S
C1550 H1520 0.950 . S
C1550 C1549 1.524 . S
C1550 C1551 1.415 . S
C1551 H1521 0.950 . S
C1551 C1546 1.363 . S
C1551 C1550 1.415 . S
H1552 C1549 0.999 . S
H1553 C1534 0.913 . S
H1554 C1572 0.943 1_556 S
H1555 C1574 0.951 1_556 S
H1556 C1576 0.950 . S
H1557 C1577 0.950 . S
H1558 C1579 0.950 . S
H1559 C1582 0.950 . S
H1560 C1583 0.950 . S
H1561 C1585 0.950 . S
H1562 C1586 0.950 . S
H1563 C1587 0.951 . S
H1564 C1589 0.951 . S
H1565 C1591 0.950 . S
H1566 C1592 0.950 . S
H1567 C1594 0.950 . S
H1568 C1597 0.950 . S
H1569 C1598 0.950 . S
H1570 C1600 0.950 . S
H1571 C1601 0.950 . S
C1572 H1554 0.943 1_554 S
C1572 C1573 1.373 . S
C1572 C1574 1.389 . S
C1573 C1572 1.373 . S
C1573 C1577 1.385 . S
C1574 H1555 0.951 1_554 S
C1574 C1572 1.389 . S
C1574 C1575 1.366 . S
C1575 C1574 1.366 . S
C1575 C1576 1.414 . S
C1575 C1578 1.499 . S
C1576 H1556 0.950 . S
C1576 C1575 1.414 . S
C1576 C1577 1.374 . S
C1577 H1557 0.950 . S
C1577 C1573 1.385 . S
C1577 C1576 1.374 . S
C1578 C1575 1.499 . S
C1578 C1579 1.373 . S
C1578 C1580 1.389 1_554 S
C1579 H1558 0.950 . S
C1579 C1578 1.373 . S
C1579 C1595 1.377 . S
C1580 C1578 1.389 1_556 S
C1580 C1581 1.524 . S
C1580 C1594 1.377 . S
C1581 C1580 1.524 . S
C1581 C1582 1.397 . S
C1581 C1586 1.363 . S
C1582 H1559 0.950 . S
C1582 C1581 1.397 . S
C1582 C1583 1.334 . S
C1583 H1560 0.950 . S
C1583 C1582 1.334 . S
C1583 C1584 1.287 . S
C1584 C1583 1.287 . S
C1584 C1585 1.524 . S
C1584 H1603 0.913 . S
C1585 H1561 0.950 . S
C1585 C1584 1.524 . S
C1585 C1586 1.415 . S
C1586 H1562 0.950 . S
C1586 C1581 1.363 . S
C1586 C1585 1.415 . S
C1587 H1563 0.951 . S
C1587 C1588 1.366 . S
C1587 C1589 1.388 . S
C1588 C1587 1.366 . S
C1588 C1592 1.385 . S
C1589 H1564 0.951 . S
C1589 C1587 1.388 . S
C1589 C1590 1.366 . S
C1590 C1589 1.366 . S
C1590 C1591 1.414 . S
C1590 C1593 1.499 . S
C1591 H1565 0.950 . S
C1591 C1590 1.414 . S
C1591 C1592 1.374 . S
C1592 H1566 0.950 . S
C1592 C1588 1.385 . S
C1592 C1591 1.374 . S
C1593 C1590 1.499 . S
C1593 C1594 1.373 1_554 S
C1593 C1595 1.389 . S
C1594 H1567 0.950 . S
C1594 C1580 1.377 . S
C1594 C1593 1.373 1_556 S
C1595 C1579 1.377 . S
C1595 C1593 1.389 . S
C1595 C1596 1.524 . S
C1596 C1595 1.524 . S
C1596 C1597 1.397 . S
C1596 C1601 1.363 . S
C1597 H1568 0.950 . S
C1597 C1596 1.397 . S
C1597 C1598 1.334 . S
C1598 H1569 0.950 . S
C1598 C1597 1.334 . S
C1598 C1599 1.287 . S
C1599 C1598 1.287 . S
C1599 C1600 1.524 . S
C1599 H1602 0.999 . S
C1600 H1570 0.950 . S
C1600 C1599 1.524 . S
C1600 C1601 1.415 . S
C1601 H1571 0.950 . S
C1601 C1596 1.363 . S
C1601 C1600 1.415 . S
H1602 C1599 0.999 . S
H1603 C1584 0.913 . S
H1604 C1622 0.951 . S
H1605 C1624 0.951 . S
H1606 C1626 0.950 . S
H1607 C1627 0.950 . S
H1608 C1629 0.950 . S
H1609 C1632 0.950 . S
H1610 C1633 0.950 . S
H1611 C1635 0.950 . S
H1612 C1636 0.950 . S
H1613 C1637 0.951 . S
H1614 C1639 0.951 . S
H1615 C1641 0.950 . S
H1616 C1642 0.950 . S
H1617 C1644 0.950 . S
H1618 C1647 0.950 . S
H1619 C1648 0.950 . S
H1620 C1650 0.950 . S
H1621 C1651 0.950 . S
C1622 H1604 0.951 . S
C1622 C1623 1.366 . S
C1622 C1624 1.388 . S
C1623 C1622 1.366 . S
C1623 C1627 1.385 . S
C1624 H1605 0.951 . S
C1624 C1622 1.388 . S
C1624 C1625 1.366 . S
C1625 C1624 1.366 . S
C1625 C1626 1.414 . S
C1625 C1628 1.499 . S
C1626 H1606 0.950 . S
C1626 C1625 1.414 . S
C1626 C1627 1.374 . S
C1627 H1607 0.950 . S
C1627 C1623 1.385 . S
C1627 C1626 1.374 . S
C1628 C1625 1.499 . S
C1628 C1629 1.373 . S
C1628 C1630 1.389 . S
C1629 H1608 0.950 . S
C1629 C1628 1.373 . S
C1629 C1645 1.377 . S
C1630 C1628 1.389 . S
C1630 C1631 1.524 . S
C1630 C1644 1.377 . S
C1631 C1630 1.524 . S
C1631 C1632 1.397 . S
C1631 C1636 1.363 . S
C1632 H1609 0.950 . S
C1632 C1631 1.397 . S
C1632 C1633 1.334 . S
C1633 H1610 0.950 . S
C1633 C1632 1.334 . S
C1633 C1634 1.287 . S
C1634 C1633 1.287 . S
C1634 C1635 1.524 . S
C1634 H1653 0.913 . S
C1635 H1611 0.950 . S
C1635 C1634 1.524 . S
C1635 C1636 1.415 . S
C1636 H1612 0.950 . S
C1636 C1631 1.363 . S
C1636 C1635 1.415 . S
C1637 H1613 0.951 . S
C1637 C1638 1.366 . S
C1637 C1639 1.388 . S
C1638 C1637 1.366 . S
C1638 C1642 1.385 . S
C1639 H1614 0.951 . S
C1639 C1637 1.388 . S
C1639 C1640 1.366 . S
C1640 C1639 1.366 . S
C1640 C1641 1.414 . S
C1640 C1643 1.499 . S
C1641 H1615 0.950 . S
C1641 C1640 1.414 . S
C1641 C1642 1.374 . S
C1642 H1616 0.950 . S
C1642 C1638 1.385 . S
C1642 C1641 1.374 . S
C1643 C1640 1.499 . S
C1643 C1644 1.373 . S
C1643 C1645 1.389 . S
C1644 H1617 0.950 . S
C1644 C1630 1.377 . S
C1644 C1643 1.373 . S
C1645 C1629 1.377 . S
C1645 C1643 1.389 . S
C1645 C1646 1.524 . S
C1646 C1645 1.524 . S
C1646 C1647 1.397 . S
C1646 C1651 1.363 . S
C1647 H1618 0.950 . S
C1647 C1646 1.397 . S
C1647 C1648 1.334 . S
C1648 H1619 0.950 . S
C1648 C1647 1.334 . S
C1648 C1649 1.287 . S
C1649 C1648 1.287 . S
C1649 C1650 1.524 . S
C1649 H1652 0.999 . S
C1650 H1620 0.950 . S
C1650 C1649 1.524 . S
C1650 C1651 1.415 . S
C1651 H1621 0.950 . S
C1651 C1646 1.363 . S
C1651 C1650 1.415 . S
H1652 C1649 0.999 . S
H1653 C1634 0.913 . S
H1654 C1672 0.951 . S
H1655 C1674 0.951 . S
H1656 C1676 0.950 . S
H1657 C1677 0.950 . S
H1658 C1679 0.950 . S
H1659 C1682 0.950 . S
H1660 C1683 0.950 . S
H1661 C1685 0.950 . S
H1662 C1686 0.950 . S
H1663 C1687 0.951 . S
H1664 C1689 0.951 . S
H1665 C1691 0.950 . S
H1666 C1692 0.950 . S
H1667 C1694 0.950 . S
H1668 C1697 0.950 . S
H1669 C1698 0.950 . S
H1670 C1700 0.950 . S
H1671 C1701 0.950 . S
C1672 H1654 0.951 . S
C1672 C1673 1.366 . S
C1672 C1674 1.388 . S
C1673 C1672 1.366 . S
C1673 C1677 1.385 . S
C1674 H1655 0.951 . S
C1674 C1672 1.388 . S
C1674 C1675 1.366 . S
C1675 C1674 1.366 . S
C1675 C1676 1.414 . S
C1675 C1678 1.499 . S
C1676 H1656 0.950 . S
C1676 C1675 1.414 . S
C1676 C1677 1.374 . S
C1677 H1657 0.950 . S
C1677 C1673 1.385 . S
C1677 C1676 1.374 . S
C1678 C1675 1.499 . S
C1678 C1679 1.373 . S
C1678 C1680 1.389 . S
C1679 H1658 0.950 . S
C1679 C1678 1.373 . S
C1679 C1695 1.377 . S
C1680 C1678 1.389 . S
C1680 C1681 1.524 . S
C1680 C1694 1.377 . S
C1681 C1680 1.524 . S
C1681 C1682 1.397 . S
C1681 C1686 1.363 . S
C1682 H1659 0.950 . S
C1682 C1681 1.397 . S
C1682 C1683 1.334 . S
C1683 H1660 0.950 . S
C1683 C1682 1.334 . S
C1683 C1684 1.287 . S
C1684 C1683 1.287 . S
C1684 C1685 1.524 . S
C1684 H1703 0.913 . S
C1685 H1661 0.950 . S
C1685 C1684 1.524 . S
C1685 C1686 1.415 . S
C1686 H1662 0.950 . S
C1686 C1681 1.363 . S
C1686 C1685 1.415 . S
C1687 H1663 0.951 . S
C1687 C1688 1.366 . S
C1687 C1689 1.388 . S
C1688 C1687 1.366 . S
C1688 C1692 1.385 . S
C1689 H1664 0.951 . S
C1689 C1687 1.388 . S
C1689 C1690 1.366 . S
C1690 C1689 1.366 . S
C1690 C1691 1.414 . S
C1690 C1693 1.499 . S
C1691 H1665 0.950 . S
C1691 C1690 1.414 . S
C1691 C1692 1.374 . S
C1692 H1666 0.950 . S
C1692 C1688 1.385 . S
C1692 C1691 1.374 . S
C1693 C1690 1.499 . S
C1693 C1694 1.373 . S
C1693 C1695 1.389 . S
C1694 H1667 0.950 . S
C1694 C1680 1.377 . S
C1694 C1693 1.373 . S
C1695 C1679 1.377 . S
C1695 C1693 1.389 . S
C1695 C1696 1.524 . S
C1696 C1695 1.524 . S
C1696 C1697 1.397 . S
C1696 C1701 1.363 . S
C1697 H1668 0.950 . S
C1697 C1696 1.397 . S
C1697 C1698 1.334 . S
C1698 H1669 0.950 . S
C1698 C1697 1.334 . S
C1698 C1699 1.287 . S
C1699 C1698 1.287 . S
C1699 C1700 1.524 . S
C1699 H1702 0.999 . S
C1700 H1670 0.950 . S
C1700 C1699 1.524 . S
C1700 C1701 1.415 . S
C1701 H1671 0.950 . S
C1701 C1696 1.363 . S
C1701 C1700 1.415 . S
H1702 C1699 0.999 . S
H1703 C1684 0.913 . S
H1704 C1722 0.951 . S
H1705 C1724 0.951 . S
H1706 C1726 0.950 . S
H1707 C1727 0.950 . S
H1708 C1729 0.950 . S
H1709 C1732 0.950 . S
H1710 C1733 0.950 . S
H1711 C1735 0.950 . S
H1712 C1736 0.950 . S
H1713 C1737 0.951 . S
H1714 C1739 0.951 . S
H1715 C1741 0.950 . S
H1716 C1742 0.950 . S
H1717 C1744 0.950 . S
H1718 C1747 0.950 . S
H1719 C1748 0.950 . S
H1720 C1750 0.950 . S
H1721 C1751 0.950 . S
C1722 H1704 0.951 . S
C1722 C1723 1.366 . S
C1722 C1724 1.388 . S
C1723 C1722 1.366 . S
C1723 C1727 1.385 . S
C1724 H1705 0.951 . S
C1724 C1722 1.388 . S
C1724 C1725 1.366 . S
C1725 C1724 1.366 . S
C1725 C1726 1.414 . S
C1725 C1728 1.499 . S
C1726 H1706 0.950 . S
C1726 C1725 1.414 . S
C1726 C1727 1.374 . S
C1727 H1707 0.950 . S
C1727 C1723 1.385 . S
C1727 C1726 1.374 . S
C1728 C1725 1.499 . S
C1728 C1729 1.373 . S
C1728 C1730 1.389 . S
C1729 H1708 0.950 . S
C1729 C1728 1.373 . S
C1729 C1745 1.377 . S
C1730 C1728 1.389 . S
C1730 C1731 1.524 . S
C1730 C1744 1.377 . S
C1731 C1730 1.524 . S
C1731 C1732 1.397 . S
C1731 C1736 1.363 . S
C1732 H1709 0.950 . S
C1732 C1731 1.397 . S
C1732 C1733 1.334 . S
C1733 H1710 0.950 . S
C1733 C1732 1.334 . S
C1733 C1734 1.287 . S
C1734 C1733 1.287 . S
C1734 C1735 1.524 . S
C1734 H1753 0.913 . S
C1735 H1711 0.950 . S
C1735 C1734 1.524 . S
C1735 C1736 1.415 . S
C1736 H1712 0.950 . S
C1736 C1731 1.363 . S
C1736 C1735 1.415 . S
C1737 H1713 0.951 . S
C1737 C1738 1.366 . S
C1737 C1739 1.388 . S
C1738 C1737 1.366 . S
C1738 C1742 1.385 . S
C1739 H1714 0.951 . S
C1739 C1737 1.388 . S
C1739 C1740 1.366 . S
C1740 C1739 1.366 . S
C1740 C1741 1.414 . S
C1740 C1743 1.499 . S
C1741 H1715 0.950 . S
C1741 C1740 1.414 . S
C1741 C1742 1.374 . S
C1742 H1716 0.950 . S
C1742 C1738 1.385 . S
C1742 C1741 1.374 . S
C1743 C1740 1.499 . S
C1743 C1744 1.373 . S
C1743 C1745 1.389 . S
C1744 H1717 0.950 . S
C1744 C1730 1.377 . S
C1744 C1743 1.373 . S
C1745 C1729 1.377 . S
C1745 C1743 1.389 . S
C1745 C1746 1.524 . S
C1746 C1745 1.524 . S
C1746 C1747 1.397 . S
C1746 C1751 1.363 . S
C1747 H1718 0.950 . S
C1747 C1746 1.397 . S
C1747 C1748 1.334 . S
C1748 H1719 0.950 . S
C1748 C1747 1.334 . S
C1748 C1749 1.287 . S
C1749 C1748 1.287 . S
C1749 C1750 1.524 . S
C1749 H1752 0.999 . S
C1750 H1720 0.950 . S
C1750 C1749 1.524 . S
C1750 C1751 1.415 . S
C1751 H1721 0.950 . S
C1751 C1746 1.363 . S
C1751 C1750 1.415 . S
H1752 C1749 0.999 . S
H1753 C1734 0.913 . S
H1754 C1772 0.951 . S
H1755 C1774 0.951 . S
H1756 C1776 0.950 . S
H1757 C1777 0.950 . S
H1758 C1779 0.950 . S
H1759 C1782 0.950 . S
H1760 C1783 0.950 . S
H1761 C1785 0.950 . S
H1762 C1786 0.950 . S
H1763 C1787 0.951 . S
H1764 C1789 0.947 1_545 S
H1765 C1791 0.950 . S
H1766 C1792 0.950 . S
H1767 C1794 0.950 . S
H1768 C1797 0.950 . S
H1769 C1798 0.950 . S
H1770 C1800 0.950 . S
H1771 C1801 0.950 . S
C1772 H1754 0.951 . S
C1772 C1773 1.366 . S
C1772 C1774 1.388 . S
C1773 C1772 1.366 . S
C1773 C1777 1.385 . S
C1774 H1755 0.951 . S
C1774 C1772 1.388 . S
C1774 C1775 1.366 . S
C1775 C1774 1.366 . S
C1775 C1776 1.414 . S
C1775 C1778 1.499 . S
C1776 H1756 0.950 . S
C1776 C1775 1.414 . S
C1776 C1777 1.374 . S
C1777 H1757 0.950 . S
C1777 C1773 1.385 . S
C1777 C1776 1.374 . S
C1778 C1775 1.499 . S
C1778 C1779 1.373 . S
C1778 C1780 1.389 . S
C1779 H1758 0.950 . S
C1779 C1778 1.373 . S
C1779 C1795 1.377 . S
C1780 C1778 1.389 . S
C1780 C1781 1.524 . S
C1780 C1794 1.377 . S
C1781 C1780 1.524 . S
C1781 C1782 1.397 . S
C1781 C1786 1.363 . S
C1782 H1759 0.950 . S
C1782 C1781 1.397 . S
C1782 C1783 1.334 . S
C1783 H1760 0.950 . S
C1783 C1782 1.334 . S
C1783 C1784 1.287 . S
C1784 C1783 1.287 . S
C1784 C1785 1.524 . S
C1784 H1803 0.913 . S
C1785 H1761 0.950 . S
C1785 C1784 1.524 . S
C1785 C1786 1.415 . S
C1786 H1762 0.950 . S
C1786 C1781 1.363 . S
C1786 C1785 1.415 . S
C1787 H1763 0.951 . S
C1787 C1788 1.366 1_545 S
C1787 C1789 1.385 1_545 S
C1788 C1787 1.366 1_565 S
C1788 C1792 1.385 . S
C1789 H1764 0.947 1_565 S
C1789 C1787 1.385 1_565 S
C1789 C1790 1.373 . S
C1790 C1789 1.373 . S
C1790 C1791 1.414 . S
C1790 C1793 1.499 . S
C1791 H1765 0.950 . S
C1791 C1790 1.414 . S
C1791 C1792 1.374 . S
C1792 H1766 0.950 . S
C1792 C1788 1.385 . S
C1792 C1791 1.374 . S
C1793 C1790 1.499 . S
C1793 C1794 1.373 . S
C1793 C1795 1.389 . S
C1794 H1767 0.950 . S
C1794 C1780 1.377 . S
C1794 C1793 1.373 . S
C1795 C1779 1.377 . S
C1795 C1793 1.389 . S
C1795 C1796 1.524 . S
C1796 C1795 1.524 . S
C1796 C1797 1.397 . S
C1796 C1801 1.363 1_565 S
C1797 H1768 0.950 . S
C1797 C1796 1.397 . S
C1797 C1798 1.334 . S
C1798 H1769 0.950 . S
C1798 C1797 1.334 . S
C1798 C1799 1.287 1_565 S
C1799 C1798 1.287 1_545 S
C1799 C1800 1.524 . S
C1799 H1802 0.999 . S
C1800 H1770 0.950 . S
C1800 C1799 1.524 . S
C1800 C1801 1.415 . S
C1801 H1771 0.950 . S
C1801 C1796 1.363 1_545 S
C1801 C1800 1.415 . S
H1802 C1799 0.999 . S
H1803 C1784 0.913 . S
H1804 C1822 0.951 . S
H1805 C1824 0.951 . S
H1806 C1826 0.950 . S
H1807 C1827 0.950 . S
H1808 C1829 0.950 . S
H1809 C1832 0.950 . S
H1810 C1833 0.950 . S
H1811 C1835 0.950 . S
H1812 C1836 0.950 . S
H1813 C1837 0.951 . S
H1814 C1839 0.951 . S
H1815 C1841 0.950 . S
H1816 C1842 0.950 . S
H1817 C1844 0.950 . S
H1818 C1847 0.950 . S
H1819 C1848 0.950 . S
H1820 C1850 0.950 . S
H1821 C1851 0.950 . S
C1822 H1804 0.951 . S
C1822 C1823 1.366 . S
C1822 C1824 1.388 . S
C1823 C1822 1.366 . S
C1823 C1827 1.385 . S
C1824 H1805 0.951 . S
C1824 C1822 1.388 . S
C1824 C1825 1.366 . S
C1825 C1824 1.366 . S
C1825 C1826 1.414 . S
C1825 C1828 1.499 . S
C1826 H1806 0.950 . S
C1826 C1825 1.414 . S
C1826 C1827 1.374 . S
C1827 H1807 0.950 . S
C1827 C1823 1.385 . S
C1827 C1826 1.374 . S
C1828 C1825 1.499 . S
C1828 C1829 1.373 . S
C1828 C1830 1.389 . S
C1829 H1808 0.950 . S
C1829 C1828 1.373 . S
C1829 C1845 1.377 . S
C1830 C1828 1.389 . S
C1830 C1831 1.524 . S
C1830 C1844 1.377 . S
C1831 C1830 1.524 . S
C1831 C1832 1.397 . S
C1831 C1836 1.363 . S
C1832 H1809 0.950 . S
C1832 C1831 1.397 . S
C1832 C1833 1.334 . S
C1833 H1810 0.950 . S
C1833 C1832 1.334 . S
C1833 C1834 1.287 . S
C1834 C1833 1.287 . S
C1834 C1835 1.524 . S
C1834 H1853 0.913 . S
C1835 H1811 0.950 . S
C1835 C1834 1.524 . S
C1835 C1836 1.415 . S
C1836 H1812 0.950 . S
C1836 C1831 1.363 . S
C1836 C1835 1.415 . S
C1837 H1813 0.951 . S
C1837 C1838 1.366 . S
C1837 C1839 1.388 . S
C1838 C1837 1.366 . S
C1838 C1842 1.385 . S
C1839 H1814 0.951 . S
C1839 C1837 1.388 . S
C1839 C1840 1.366 . S
C1840 C1839 1.366 . S
C1840 C1841 1.414 . S
C1840 C1843 1.499 . S
C1841 H1815 0.950 . S
C1841 C1840 1.414 . S
C1841 C1842 1.374 . S
C1842 H1816 0.950 . S
C1842 C1838 1.385 . S
C1842 C1841 1.374 . S
C1843 C1840 1.499 . S
C1843 C1844 1.373 . S
C1843 C1845 1.389 . S
C1844 H1817 0.950 . S
C1844 C1830 1.377 . S
C1844 C1843 1.373 . S
C1845 C1829 1.377 . S
C1845 C1843 1.389 . S
C1845 C1846 1.524 . S
C1846 C1845 1.524 . S
C1846 C1847 1.397 . S
C1846 C1851 1.363 . S
C1847 H1818 0.950 . S
C1847 C1846 1.397 . S
C1847 C1848 1.334 . S
C1848 H1819 0.950 . S
C1848 C1847 1.334 . S
C1848 C1849 1.287 . S
C1849 C1848 1.287 . S
C1849 C1850 1.524 . S
C1849 H1852 0.999 . S
C1850 H1820 0.950 . S
C1850 C1849 1.524 . S
C1850 C1851 1.415 . S
C1851 H1821 0.950 . S
C1851 C1846 1.363 . S
C1851 C1850 1.415 . S
H1852 C1849 0.999 . S
H1853 C1834 0.913 . S
H1854 C1872 0.951 . S
H1855 C1874 0.951 . S
H1856 C1876 0.950 . S
H1857 C1877 0.950 . S
H1858 C1879 0.950 . S
H1859 C1882 0.950 . S
H1860 C1883 0.950 . S
H1861 C1885 0.950 . S
H1862 C1886 0.950 . S
H1863 C1887 0.951 . S
H1864 C1889 0.951 . S
H1865 C1891 0.950 . S
H1866 C1892 0.950 . S
H1867 C1894 0.950 . S
H1868 C1897 0.950 . S
H1869 C1898 0.950 . S
H1870 C1900 0.950 . S
H1871 C1901 0.950 . S
C1872 H1854 0.951 . S
C1872 C1873 1.366 . S
C1872 C1874 1.388 . S
C1873 C1872 1.366 . S
C1873 C1877 1.385 . S
C1874 H1855 0.951 . S
C1874 C1872 1.388 . S
C1874 C1875 1.366 . S
C1875 C1874 1.366 . S
C1875 C1876 1.414 . S
C1875 C1878 1.499 . S
C1876 H1856 0.950 . S
C1876 C1875 1.414 . S
C1876 C1877 1.374 . S
C1877 H1857 0.950 . S
C1877 C1873 1.385 . S
C1877 C1876 1.374 . S
C1878 C1875 1.499 . S
C1878 C1879 1.373 . S
C1878 C1880 1.389 . S
C1879 H1858 0.950 . S
C1879 C1878 1.373 . S
C1879 C1895 1.377 . S
C1880 C1878 1.389 . S
C1880 C1881 1.524 . S
C1880 C1894 1.377 . S
C1881 C1880 1.524 . S
C1881 C1882 1.397 . S
C1881 C1886 1.363 . S
C1882 H1859 0.950 . S
C1882 C1881 1.397 . S
C1882 C1883 1.334 . S
C1883 H1860 0.950 . S
C1883 C1882 1.334 . S
C1883 C1884 1.287 . S
C1884 C1883 1.287 . S
C1884 C1885 1.524 . S
C1884 H1903 0.913 . S
C1885 H1861 0.950 . S
C1885 C1884 1.524 . S
C1885 C1886 1.415 . S
C1886 H1862 0.950 . S
C1886 C1881 1.363 . S
C1886 C1885 1.415 . S
C1887 H1863 0.951 . S
C1887 C1888 1.366 . S
C1887 C1889 1.388 . S
C1888 C1887 1.366 . S
C1888 C1892 1.385 . S
C1889 H1864 0.951 . S
C1889 C1887 1.388 . S
C1889 C1890 1.366 . S
C1890 C1889 1.366 . S
C1890 C1891 1.414 . S
C1890 C1893 1.499 . S
C1891 H1865 0.950 . S
C1891 C1890 1.414 . S
C1891 C1892 1.374 . S
C1892 H1866 0.950 . S
C1892 C1888 1.385 . S
C1892 C1891 1.374 . S
C1893 C1890 1.499 . S
C1893 C1894 1.373 . S
C1893 C1895 1.389 . S
C1894 H1867 0.950 . S
C1894 C1880 1.377 . S
C1894 C1893 1.373 . S
C1895 C1879 1.377 . S
C1895 C1893 1.389 . S
C1895 C1896 1.524 . S
C1896 C1895 1.524 . S
C1896 C1897 1.397 . S
C1896 C1901 1.363 . S
C1897 H1868 0.950 . S
C1897 C1896 1.397 . S
C1897 C1898 1.334 . S
C1898 H1869 0.950 . S
C1898 C1897 1.334 . S
C1898 C1899 1.287 . S
C1899 C1898 1.287 . S
C1899 C1900 1.524 . S
C1899 H1902 0.999 . S
C1900 H1870 0.950 . S
C1900 C1899 1.524 . S
C1900 C1901 1.415 . S
C1901 H1871 0.950 . S
C1901 C1896 1.363 . S
C1901 C1900 1.415 . S
H1902 C1899 0.999 . S
H1903 C1884 0.913 . S
H1904 C1922 0.951 . S
H1905 C1924 0.951 . S
H1906 C1926 0.950 . S
H1907 C1927 0.950 . S
H1908 C1929 0.950 1_655 S
H1909 C1932 0.950 . S
H1910 C1933 0.950 . S
H1911 C1935 0.950 . S
H1912 C1936 0.950 . S
H1913 C1937 0.951 . S
H1914 C1939 0.951 . S
H1915 C1941 0.950 . S
H1916 C1942 0.950 . S
H1917 C1944 0.950 . S
H1918 C1947 0.950 . S
H1919 C1948 0.950 1_455 S
H1920 C1950 0.950 . S
H1921 C1951 0.950 . S
C1922 H1904 0.951 . S
C1922 C1923 1.366 . S
C1922 C1924 1.388 . S
C1923 C1922 1.366 . S
C1923 C1927 1.385 1_455 S
C1924 H1905 0.951 . S
C1924 C1922 1.388 . S
C1924 C1925 1.366 . S
C1925 C1924 1.366 . S
C1925 C1926 1.414 1_455 S
C1925 C1928 1.499 . S
C1926 H1906 0.950 . S
C1926 C1925 1.414 1_655 S
C1926 C1927 1.374 . S
C1927 H1907 0.950 . S
C1927 C1923 1.385 1_655 S
C1927 C1926 1.374 . S
C1928 C1925 1.499 . S
C1928 C1929 1.373 . S
C1928 C1930 1.389 . S
C1929 H1908 0.950 1_455 S
C1929 C1928 1.373 . S
C1929 C1945 1.377 . S
C1930 C1928 1.389 . S
C1930 C1931 1.524 . S
C1930 C1944 1.377 . S
C1931 C1930 1.524 . S
C1931 C1932 1.397 . S
C1931 C1936 1.363 . S
C1932 H1909 0.950 . S
C1932 C1931 1.397 . S
C1932 C1933 1.334 . S
C1933 H1910 0.950 . S
C1933 C1932 1.334 . S
C1933 C1934 1.287 . S
C1934 C1933 1.287 . S
C1934 C1935 1.524 . S
C1934 H1953 0.913 . S
C1935 H1911 0.950 . S
C1935 C1934 1.524 . S
C1935 C1936 1.415 . S
C1936 H1912 0.950 . S
C1936 C1931 1.363 . S
C1936 C1935 1.415 . S
C1937 H1913 0.951 . S
C1937 C1938 1.366 1_655 S
C1937 C1939 1.388 . S
C1938 C1937 1.366 1_455 S
C1938 C1942 1.385 . S
C1939 H1914 0.951 . S
C1939 C1937 1.388 . S
C1939 C1940 1.366 1_655 S
C1940 C1939 1.366 1_455 S
C1940 C1941 1.414 . S
C1940 C1943 1.499 . S
C1941 H1915 0.950 . S
C1941 C1940 1.414 . S
C1941 C1942 1.374 . S
C1942 H1916 0.950 . S
C1942 C1938 1.385 . S
C1942 C1941 1.374 . S
C1943 C1940 1.499 . S
C1943 C1944 1.373 . S
C1943 C1945 1.389 . S
C1944 H1917 0.950 . S
C1944 C1930 1.377 . S
C1944 C1943 1.373 . S
C1945 C1929 1.377 . S
C1945 C1943 1.389 . S
C1945 C1946 1.524 1_455 S
C1946 C1945 1.524 1_655 S
C1946 C1947 1.397 1_655 S
C1946 C1951 1.363 . S
C1947 H1918 0.950 . S
C1947 C1946 1.397 1_455 S
C1947 C1948 1.334 1_455 S
C1948 H1919 0.950 1_655 S
C1948 C1947 1.334 1_655 S
C1948 C1949 1.287 . S
C1949 C1948 1.287 . S
C1949 C1950 1.524 . S
C1949 H1952 0.999 . S
C1950 H1920 0.950 . S
C1950 C1949 1.524 . S
C1950 C1951 1.415 . S
C1951 H1921 0.950 . S
C1951 C1946 1.363 . S
C1951 C1950 1.415 . S
H1952 C1949 0.999 . S
H1953 C1934 0.913 . S
H1954 C1972 0.951 . S
H1955 C1974 0.951 . S
H1956 C1976 0.950 . S
H1957 C1977 0.950 . S
H1958 C1979 0.950 . S
H1959 C1982 0.950 . S
H1960 C1983 0.950 . S
H1961 C1985 0.950 . S
H1962 C1986 0.950 . S
H1963 C1987 0.951 . S
H1964 C1989 0.951 . S
H1965 C1991 0.950 . S
H1966 C1992 0.950 . S
H1967 C1994 0.950 . S
H1968 C1997 0.950 . S
H1969 C1998 0.950 . S
H1970 C2000 0.950 . S
H1971 C2001 0.950 . S
C1972 H1954 0.951 . S
C1972 C1973 1.366 . S
C1972 C1974 1.388 . S
C1973 C1972 1.366 . S
C1973 C1977 1.385 . S
C1974 H1955 0.951 . S
C1974 C1972 1.388 . S
C1974 C1975 1.366 . S
C1975 C1974 1.366 . S
C1975 C1976 1.414 . S
C1975 C1978 1.499 . S
C1976 H1956 0.950 . S
C1976 C1975 1.414 . S
C1976 C1977 1.374 . S
C1977 H1957 0.950 . S
C1977 C1973 1.385 . S
C1977 C1976 1.374 . S
C1978 C1975 1.499 . S
C1978 C1979 1.373 . S
C1978 C1980 1.389 . S
C1979 H1958 0.950 . S
C1979 C1978 1.373 . S
C1979 C1995 1.377 . S
C1980 C1978 1.389 . S
C1980 C1981 1.524 . S
C1980 C1994 1.377 . S
C1981 C1980 1.524 . S
C1981 C1982 1.397 . S
C1981 C1986 1.363 . S
C1982 H1959 0.950 . S
C1982 C1981 1.397 . S
C1982 C1983 1.334 . S
C1983 H1960 0.950 . S
C1983 C1982 1.334 . S
C1983 C1984 1.287 . S
C1984 C1983 1.287 . S
C1984 C1985 1.524 . S
C1984 H2003 0.913 . S
C1985 H1961 0.950 . S
C1985 C1984 1.524 . S
C1985 C1986 1.415 . S
C1986 H1962 0.950 . S
C1986 C1981 1.363 . S
C1986 C1985 1.415 . S
C1987 H1963 0.951 . S
C1987 C1988 1.366 . S
C1987 C1989 1.388 . S
C1988 C1987 1.366 . S
C1988 C1992 1.385 . S
C1989 H1964 0.951 . S
C1989 C1987 1.388 . S
C1989 C1990 1.366 . S
C1990 C1989 1.366 . S
C1990 C1991 1.414 . S
C1990 C1993 1.499 . S
C1991 H1965 0.950 . S
C1991 C1990 1.414 . S
C1991 C1992 1.374 . S
C1992 H1966 0.950 . S
C1992 C1988 1.385 . S
C1992 C1991 1.374 . S
C1993 C1990 1.499 . S
C1993 C1994 1.373 . S
C1993 C1995 1.389 . S
C1994 H1967 0.950 . S
C1994 C1980 1.377 . S
C1994 C1993 1.373 . S
C1995 C1979 1.377 . S
C1995 C1993 1.389 . S
C1995 C1996 1.524 . S
C1996 C1995 1.524 . S
C1996 C1997 1.397 . S
C1996 C2001 1.363 . S
C1997 H1968 0.950 . S
C1997 C1996 1.397 . S
C1997 C1998 1.334 . S
C1998 H1969 0.950 . S
C1998 C1997 1.334 . S
C1998 C1999 1.287 . S
C1999 C1998 1.287 . S
C1999 C2000 1.524 . S
C1999 H2002 0.999 . S
C2000 H1970 0.950 . S
C2000 C1999 1.524 . S
C2000 C2001 1.415 . S
C2001 H1971 0.950 . S
C2001 C1996 1.363 . S
C2001 C2000 1.415 . S
H2002 C1999 0.999 . S
H2003 C1984 0.913 . S
H2004 C2022 0.951 . S
H2005 C2024 0.951 . S
H2006 C2026 0.950 . S
H2007 C2027 0.950 . S
H2008 C2029 0.950 . S
H2009 C2032 0.950 . S
H2010 C2033 0.950 . S
H2011 C2035 0.950 . S
H2012 C2036 0.950 . S
H2013 C2037 0.951 . S
H2014 C2039 0.951 . S
H2015 C2041 0.950 . S
H2016 C2042 0.950 . S
H2017 C2044 0.950 . S
H2018 C2047 0.950 . S
H2019 C2048 0.950 . S
H2020 C2050 0.950 . S
H2021 C2051 0.950 . S
C2022 H2004 0.951 . S
C2022 C2023 1.366 . S
C2022 C2024 1.388 . S
C2023 C2022 1.366 . S
C2023 C2027 1.385 . S
C2024 H2005 0.951 . S
C2024 C2022 1.388 . S
C2024 C2025 1.366 . S
C2025 C2024 1.366 . S
C2025 C2026 1.414 . S
C2025 C2028 1.499 . S
C2026 H2006 0.950 . S
C2026 C2025 1.414 . S
C2026 C2027 1.374 . S
C2027 H2007 0.950 . S
C2027 C2023 1.385 . S
C2027 C2026 1.374 . S
C2028 C2025 1.499 . S
C2028 C2029 1.373 . S
C2028 C2030 1.389 . S
C2029 H2008 0.950 . S
C2029 C2028 1.373 . S
C2029 C2045 1.377 . S
C2030 C2028 1.389 . S
C2030 C2031 1.524 . S
C2030 C2044 1.377 . S
C2031 C2030 1.524 . S
C2031 C2032 1.397 . S
C2031 C2036 1.363 . S
C2032 H2009 0.950 . S
C2032 C2031 1.397 . S
C2032 C2033 1.334 . S
C2033 H2010 0.950 . S
C2033 C2032 1.334 . S
C2033 C2034 1.287 . S
C2034 C2033 1.287 . S
C2034 C2035 1.524 . S
C2034 H2053 0.913 . S
C2035 H2011 0.950 . S
C2035 C2034 1.524 . S
C2035 C2036 1.415 . S
C2036 H2012 0.950 . S
C2036 C2031 1.363 . S
C2036 C2035 1.415 . S
C2037 H2013 0.951 . S
C2037 C2038 1.366 . S
C2037 C2039 1.388 . S
C2038 C2037 1.366 . S
C2038 C2042 1.385 . S
C2039 H2014 0.951 . S
C2039 C2037 1.388 . S
C2039 C2040 1.366 . S
C2040 C2039 1.366 . S
C2040 C2041 1.414 . S
C2040 C2043 1.499 . S
C2041 H2015 0.950 . S
C2041 C2040 1.414 . S
C2041 C2042 1.374 . S
C2042 H2016 0.950 . S
C2042 C2038 1.385 . S
C2042 C2041 1.374 . S
C2043 C2040 1.499 . S
C2043 C2044 1.373 . S
C2043 C2045 1.389 . S
C2044 H2017 0.950 . S
C2044 C2030 1.377 . S
C2044 C2043 1.373 . S
C2045 C2029 1.377 . S
C2045 C2043 1.389 . S
C2045 C2046 1.524 . S
C2046 C2045 1.524 . S
C2046 C2047 1.397 . S
C2046 C2051 1.363 . S
C2047 H2018 0.950 . S
C2047 C2046 1.397 . S
C2047 C2048 1.334 . S
C2048 H2019 0.950 . S
C2048 C2047 1.334 . S
C2048 C2049 1.287 . S
C2049 C2048 1.287 . S
C2049 C2050 1.524 . S
C2049 H2052 0.999 . S
C2050 H2020 0.950 . S
C2050 C2049 1.524 . S
C2050 C2051 1.415 . S
C2051 H2021 0.950 . S
C2051 C2046 1.363 . S
C2051 C2050 1.415 . S
H2052 C2049 0.999 . S
H2053 C2034 0.913 . S
H2054 C2072 0.951 . S
H2055 C2074 0.951 . S
H2056 C2076 0.950 . S
H2057 C2077 0.950 . S
H2058 C2079 0.950 . S
H2059 C2082 0.950 . S
H2060 C2083 0.950 . S
H2061 C2085 0.950 . S
H2062 C2086 0.950 . S
H2063 C2087 0.951 . S
H2064 C2089 0.951 . S
H2065 C2091 0.950 . S
H2066 C2092 0.950 . S
H2067 C2094 0.950 . S
H2068 C2097 0.950 . S
H2069 C2098 0.950 . S
H2070 C2100 0.950 . S
H2071 C2101 0.950 . S
C2072 H2054 0.951 . S
C2072 C2073 1.366 . S
C2072 C2074 1.388 . S
C2073 C2072 1.366 . S
C2073 C2077 1.385 . S
C2074 H2055 0.951 . S
C2074 C2072 1.388 . S
C2074 C2075 1.366 . S
C2075 C2074 1.366 . S
C2075 C2076 1.414 . S
C2075 C2078 1.499 . S
C2076 H2056 0.950 . S
C2076 C2075 1.414 . S
C2076 C2077 1.374 . S
C2077 H2057 0.950 . S
C2077 C2073 1.385 . S
C2077 C2076 1.374 . S
C2078 C2075 1.499 . S
C2078 C2079 1.373 . S
C2078 C2080 1.389 . S
C2079 H2058 0.950 . S
C2079 C2078 1.373 . S
C2079 C2095 1.377 . S
C2080 C2078 1.389 . S
C2080 C2081 1.524 . S
C2080 C2094 1.377 . S
C2081 C2080 1.524 . S
C2081 C2082 1.397 . S
C2081 C2086 1.363 . S
C2082 H2059 0.950 . S
C2082 C2081 1.397 . S
C2082 C2083 1.334 . S
C2083 H2060 0.950 . S
C2083 C2082 1.334 . S
C2083 C2084 1.287 . S
C2084 C2083 1.287 . S
C2084 C2085 1.524 . S
C2084 H2103 0.913 . S
C2085 H2061 0.950 . S
C2085 C2084 1.524 . S
C2085 C2086 1.415 . S
C2086 H2062 0.950 . S
C2086 C2081 1.363 . S
C2086 C2085 1.415 . S
C2087 H2063 0.951 . S
C2087 C2088 1.366 . S
C2087 C2089 1.388 . S
C2088 C2087 1.366 . S
C2088 C2092 1.385 . S
C2089 H2064 0.951 . S
C2089 C2087 1.388 . S
C2089 C2090 1.366 . S
C2090 C2089 1.366 . S
C2090 C2091 1.414 . S
C2090 C2093 1.499 . S
C2091 H2065 0.950 . S
C2091 C2090 1.414 . S
C2091 C2092 1.374 . S
C2092 H2066 0.950 . S
C2092 C2088 1.385 . S
C2092 C2091 1.374 . S
C2093 C2090 1.499 . S
C2093 C2094 1.373 . S
C2093 C2095 1.389 . S
C2094 H2067 0.950 . S
C2094 C2080 1.377 . S
C2094 C2093 1.373 . S
C2095 C2079 1.377 . S
C2095 C2093 1.389 . S
C2095 C2096 1.524 . S
C2096 C2095 1.524 . S
C2096 C2097 1.397 . S
C2096 C2101 1.363 . S
C2097 H2068 0.950 . S
C2097 C2096 1.397 . S
C2097 C2098 1.334 . S
C2098 H2069 0.950 . S
C2098 C2097 1.334 . S
C2098 C2099 1.287 . S
C2099 C2098 1.287 . S
C2099 C2100 1.524 . S
C2099 H2102 0.999 . S
C2100 H2070 0.950 . S
C2100 C2099 1.524 . S
C2100 C2101 1.415 . S
C2101 H2071 0.950 . S
C2101 C2096 1.363 . S
C2101 C2100 1.415 . S
H2102 C2099 0.999 . S
H2103 C2084 0.913 . S
H2104 C2122 0.951 1_655 S
H2105 C2124 0.969 . S
H2106 C2126 0.950 . S
H2107 C2127 0.950 . S
H2108 C2129 0.950 . S
H2109 C2132 0.950 . S
H2110 C2133 0.950 . S
H2111 C2135 0.950 . S
H2112 C2136 0.950 . S
H2113 C2137 0.951 . S
H2114 C2139 0.951 . S
H2115 C2141 0.950 . S
H2116 C2142 0.950 . S
H2117 C2144 0.950 1_655 S
H2118 C2147 0.950 . S
H2119 C2148 0.950 . S
H2120 C2150 0.950 . S
H2121 C2151 0.950 . S
C2122 H2104 0.951 1_455 S
C2122 C2123 1.366 . S
C2122 C2124 1.388 . S
C2123 C2122 1.366 . S
C2123 C2127 1.385 . S
C2124 H2105 0.969 . S
C2124 C2122 1.388 . S
C2124 C2125 1.366 . S
C2125 C2124 1.366 . S
C2125 C2126 1.414 . S
C2125 C2128 1.499 . S
C2126 H2106 0.950 . S
C2126 C2125 1.414 . S
C2126 C2127 1.374 . S
C2127 H2107 0.950 . S
C2127 C2123 1.385 . S
C2127 C2126 1.374 . S
C2128 C2125 1.499 . S
C2128 C2129 1.373 . S
C2128 C2130 1.389 . S
C2129 H2108 0.950 . S
C2129 C2128 1.373 . S
C2129 C2145 1.377 . S
C2130 C2128 1.389 . S
C2130 C2131 1.524 1_455 S
C2130 C2144 1.377 . S
C2131 C2130 1.524 1_655 S
C2131 C2132 1.397 . S
C2131 C2136 1.363 . S
C2132 H2109 0.950 . S
C2132 C2131 1.397 . S
C2132 C2133 1.334 . S
C2133 H2110 0.950 . S
C2133 C2132 1.334 . S
C2133 C2134 1.287 . S
C2134 C2133 1.287 . S
C2134 C2135 1.524 . S
C2134 H2153 0.913 . S
C2135 H2111 0.950 . S
C2135 C2134 1.524 . S
C2135 C2136 1.415 . S
C2136 H2112 0.950 . S
C2136 C2131 1.363 . S
C2136 C2135 1.415 . S
C2137 H2113 0.951 . S
C2137 C2138 1.366 . S
C2137 C2139 1.388 . S
C2138 C2137 1.366 . S
C2138 C2142 1.385 . S
C2139 H2114 0.951 . S
C2139 C2137 1.388 . S
C2139 C2140 1.366 . S
C2140 C2139 1.366 . S
C2140 C2141 1.414 . S
C2140 C2143 1.499 . S
C2141 H2115 0.950 . S
C2141 C2140 1.414 . S
C2141 C2142 1.374 . S
C2142 H2116 0.950 . S
C2142 C2138 1.385 . S
C2142 C2141 1.374 . S
C2143 C2140 1.499 . S
C2143 C2144 1.373 . S
C2143 C2145 1.389 . S
C2144 H2117 0.950 1_455 S
C2144 C2130 1.377 . S
C2144 C2143 1.373 . S
C2145 C2129 1.377 . S
C2145 C2143 1.389 . S
C2145 C2146 1.524 . S
C2146 C2145 1.524 . S
C2146 C2147 1.397 . S
C2146 C2151 1.363 . S
C2147 H2118 0.950 . S
C2147 C2146 1.397 . S
C2147 C2148 1.334 . S
C2148 H2119 0.950 . S
C2148 C2147 1.334 . S
C2148 C2149 1.287 . S
C2149 C2148 1.287 . S
C2149 C2150 1.524 . S
C2149 H2152 0.999 . S
C2150 H2120 0.950 . S
C2150 C2149 1.524 . S
C2150 C2151 1.415 . S
C2151 H2121 0.950 . S
C2151 C2146 1.363 . S
C2151 C2150 1.415 . S
H2152 C2149 0.999 . S
H2153 C2134 0.913 . S
H2154 C2172 0.951 . S
H2155 C2174 0.951 . S
H2156 C2176 0.950 . S
H2157 C2177 0.950 . S
H2158 C2179 0.950 . S
H2159 C2182 0.950 . S
H2160 C2183 0.950 . S
H2161 C2185 0.950 . S
H2162 C2186 0.950 . S
H2163 C2187 0.951 . S
H2164 C2189 0.951 . S
H2165 C2191 0.950 . S
H2166 C2192 0.950 . S
H2167 C2194 0.950 . S
H2168 C2197 0.950 . S
H2169 C2198 0.950 . S
H2170 C2200 0.950 . S
H2171 C2201 0.950 . S
C2172 H2154 0.951 . S
C2172 C2173 1.366 . S
C2172 C2174 1.388 . S
C2173 C2172 1.366 . S
C2173 C2177 1.385 . S
C2174 H2155 0.951 . S
C2174 C2172 1.388 . S
C2174 C2175 1.366 . S
C2175 C2174 1.366 . S
C2175 C2176 1.414 . S
C2175 C2178 1.499 . S
C2176 H2156 0.950 . S
C2176 C2175 1.414 . S
C2176 C2177 1.374 . S
C2177 H2157 0.950 . S
C2177 C2173 1.385 . S
C2177 C2176 1.374 . S
C2178 C2175 1.499 . S
C2178 C2179 1.373 . S
C2178 C2180 1.389 . S
C2179 H2158 0.950 . S
C2179 C2178 1.373 . S
C2179 C2195 1.377 . S
C2180 C2178 1.389 . S
C2180 C2181 1.524 . S
C2180 C2194 1.377 . S
C2181 C2180 1.524 . S
C2181 C2182 1.397 . S
C2181 C2186 1.363 . S
C2182 H2159 0.950 . S
C2182 C2181 1.397 . S
C2182 C2183 1.334 . S
C2183 H2160 0.950 . S
C2183 C2182 1.334 . S
C2183 C2184 1.287 . S
C2184 C2183 1.287 . S
C2184 C2185 1.524 . S
C2184 H2203 0.913 . S
C2185 H2161 0.950 . S
C2185 C2184 1.524 . S
C2185 C2186 1.415 . S
C2186 H2162 0.950 . S
C2186 C2181 1.363 . S
C2186 C2185 1.415 . S
C2187 H2163 0.951 . S
C2187 C2188 1.366 . S
C2187 C2189 1.388 . S
C2188 C2187 1.366 . S
C2188 C2192 1.385 . S
C2189 H2164 0.951 . S
C2189 C2187 1.388 . S
C2189 C2190 1.366 . S
C2190 C2189 1.366 . S
C2190 C2191 1.414 . S
C2190 C2193 1.499 . S
C2191 H2165 0.950 . S
C2191 C2190 1.414 . S
C2191 C2192 1.374 . S
C2192 H2166 0.950 . S
C2192 C2188 1.385 . S
C2192 C2191 1.374 . S
C2193 C2190 1.499 . S
C2193 C2194 1.373 . S
C2193 C2195 1.389 . S
C2194 H2167 0.950 . S
C2194 C2180 1.377 . S
C2194 C2193 1.373 . S
C2195 C2179 1.377 . S
C2195 C2193 1.389 . S
C2195 C2196 1.524 . S
C2196 C2195 1.524 . S
C2196 C2197 1.397 . S
C2196 C2201 1.363 . S
C2197 H2168 0.950 . S
C2197 C2196 1.397 . S
C2197 C2198 1.334 . S
C2198 H2169 0.950 . S
C2198 C2197 1.334 . S
C2198 C2199 1.287 . S
C2199 C2198 1.287 . S
C2199 C2200 1.524 . S
C2199 H2202 0.999 . S
C2200 H2170 0.950 . S
C2200 C2199 1.524 . S
C2200 C2201 1.415 . S
C2201 H2171 0.950 . S
C2201 C2196 1.363 . S
C2201 C2200 1.415 . S
H2202 C2199 0.999 . S
H2203 C2184 0.913 . S
H2204 C2222 0.951 . S
H2205 C2224 0.951 . S
H2206 C2226 0.950 . S
H2207 C2227 0.950 . S
H2208 C2229 0.950 . S
H2209 C2232 0.950 . S
H2210 C2233 0.950 . S
H2211 C2235 0.950 . S
H2212 C2236 0.950 . S
H2213 C2237 0.951 . S
H2214 C2239 0.951 . S
H2215 C2241 0.950 . S
H2216 C2242 0.950 . S
H2217 C2244 0.950 . S
H2218 C2247 0.950 . S
H2219 C2248 0.950 . S
H2220 C2250 0.950 1_556 S
H2221 C2251 0.950 . S
C2222 H2204 0.951 . S
C2222 C2223 1.366 . S
C2222 C2224 1.388 . S
C2223 C2222 1.366 . S
C2223 C2227 1.385 . S
C2224 H2205 0.951 . S
C2224 C2222 1.388 . S
C2224 C2225 1.366 . S
C2225 C2224 1.366 . S
C2225 C2226 1.414 . S
C2225 C2228 1.499 . S
C2226 H2206 0.950 . S
C2226 C2225 1.414 . S
C2226 C2227 1.374 . S
C2227 H2207 0.950 . S
C2227 C2223 1.385 . S
C2227 C2226 1.374 . S
C2228 C2225 1.499 . S
C2228 C2229 1.373 . S
C2228 C2230 1.389 . S
C2229 H2208 0.950 . S
C2229 C2228 1.373 . S
C2229 C2245 1.377 . S
C2230 C2228 1.389 . S
C2230 C2231 1.524 . S
C2230 C2244 1.377 . S
C2231 C2230 1.524 . S
C2231 C2232 1.397 . S
C2231 C2236 1.363 . S
C2232 H2209 0.950 . S
C2232 C2231 1.397 . S
C2232 C2233 1.334 . S
C2233 H2210 0.950 . S
C2233 C2232 1.334 . S
C2233 C2234 1.287 . S
C2234 C2233 1.287 . S
C2234 C2235 1.524 . S
C2234 H2253 0.913 . S
C2235 H2211 0.950 . S
C2235 C2234 1.524 . S
C2235 C2236 1.415 . S
C2236 H2212 0.950 . S
C2236 C2231 1.363 . S
C2236 C2235 1.415 . S
C2237 H2213 0.951 . S
C2237 C2238 1.366 . S
C2237 C2239 1.388 . S
C2238 C2237 1.366 . S
C2238 C2242 1.385 . S
C2239 H2214 0.951 . S
C2239 C2237 1.388 . S
C2239 C2240 1.366 . S
C2240 C2239 1.366 . S
C2240 C2241 1.414 . S
C2240 C2243 1.499 . S
C2241 H2215 0.950 . S
C2241 C2240 1.414 . S
C2241 C2242 1.374 . S
C2242 H2216 0.950 . S
C2242 C2238 1.385 . S
C2242 C2241 1.374 . S
C2243 C2240 1.499 . S
C2243 C2244 1.373 . S
C2243 C2245 1.389 . S
C2244 H2217 0.950 . S
C2244 C2230 1.377 . S
C2244 C2243 1.373 . S
C2245 C2229 1.377 . S
C2245 C2243 1.389 . S
C2245 C2246 1.524 . S
C2246 C2245 1.524 . S
C2246 C2247 1.397 . S
C2246 C2251 1.363 . S
C2247 H2218 0.950 . S
C2247 C2246 1.397 . S
C2247 C2248 1.334 . S
C2248 H2219 0.950 . S
C2248 C2247 1.334 . S
C2248 C2249 1.289 1_554 S
C2249 C2248 1.289 1_556 S
C2249 C2250 1.525 1_556 S
C2249 H2252 0.995 . S
C2250 H2220 0.950 1_554 S
C2250 C2249 1.525 1_554 S
C2250 C2251 1.415 . S
C2251 H2221 0.950 . S
C2251 C2246 1.363 . S
C2251 C2250 1.415 . S
H2252 C2249 0.995 . S
H2253 C2234 0.913 . S
H2254 C2272 0.951 . S
H2255 C2274 0.951 . S
H2256 C2276 0.950 . S
H2257 C2277 0.950 . S
H2258 C2279 0.950 . S
H2259 C2282 0.950 . S
H2260 C2283 0.950 . S
H2261 C2285 0.950 . S
H2262 C2286 0.950 . S
H2263 C2287 0.951 . S
H2264 C2289 0.951 . S
H2265 C2291 0.950 . S
H2266 C2292 0.950 . S
H2267 C2294 0.950 . S
H2268 C2297 0.950 . S
H2269 C2298 0.950 . S
H2270 C2300 0.950 . S
H2271 C2301 0.950 . S
C2272 H2254 0.951 . S
C2272 C2273 1.366 . S
C2272 C2274 1.388 . S
C2273 C2272 1.366 . S
C2273 C2277 1.385 . S
C2274 H2255 0.951 . S
C2274 C2272 1.388 . S
C2274 C2275 1.366 . S
C2275 C2274 1.366 . S
C2275 C2276 1.414 . S
C2275 C2278 1.499 . S
C2276 H2256 0.950 . S
C2276 C2275 1.414 . S
C2276 C2277 1.374 . S
C2277 H2257 0.950 . S
C2277 C2273 1.385 . S
C2277 C2276 1.374 . S
C2278 C2275 1.499 . S
C2278 C2279 1.373 . S
C2278 C2280 1.389 . S
C2279 H2258 0.950 . S
C2279 C2278 1.373 . S
C2279 C2295 1.377 . S
C2280 C2278 1.389 . S
C2280 C2281 1.524 . S
C2280 C2294 1.377 . S
C2281 C2280 1.524 . S
C2281 C2282 1.397 . S
C2281 C2286 1.363 . S
C2282 H2259 0.950 . S
C2282 C2281 1.397 . S
C2282 C2283 1.334 . S
C2283 H2260 0.950 . S
C2283 C2282 1.334 . S
C2283 C2284 1.287 . S
C2284 C2283 1.287 . S
C2284 C2285 1.524 . S
C2284 H2303 0.913 . S
C2285 H2261 0.950 . S
C2285 C2284 1.524 . S
C2285 C2286 1.415 . S
C2286 H2262 0.950 . S
C2286 C2281 1.363 . S
C2286 C2285 1.415 . S
C2287 H2263 0.951 . S
C2287 C2288 1.366 . S
C2287 C2289 1.388 . S
C2288 C2287 1.366 . S
C2288 C2292 1.385 . S
C2289 H2264 0.951 . S
C2289 C2287 1.388 . S
C2289 C2290 1.366 . S
C2290 C2289 1.366 . S
C2290 C2291 1.414 . S
C2290 C2293 1.499 . S
C2291 H2265 0.950 . S
C2291 C2290 1.414 . S
C2291 C2292 1.374 . S
C2292 H2266 0.950 . S
C2292 C2288 1.385 . S
C2292 C2291 1.374 . S
C2293 C2290 1.499 . S
C2293 C2294 1.373 . S
C2293 C2295 1.389 . S
C2294 H2267 0.950 . S
C2294 C2280 1.377 . S
C2294 C2293 1.373 . S
C2295 C2279 1.377 . S
C2295 C2293 1.389 . S
C2295 C2296 1.524 . S
C2296 C2295 1.524 . S
C2296 C2297 1.397 . S
C2296 C2301 1.363 . S
C2297 H2268 0.950 . S
C2297 C2296 1.397 . S
C2297 C2298 1.334 . S
C2298 H2269 0.950 . S
C2298 C2297 1.334 . S
C2298 C2299 1.287 . S
C2299 C2298 1.287 . S
C2299 C2300 1.524 . S
C2299 H2302 0.999 . S
C2300 H2270 0.950 . S
C2300 C2299 1.524 . S
C2300 C2301 1.415 . S
C2301 H2271 0.950 . S
C2301 C2296 1.363 . S
C2301 C2300 1.415 . S
H2302 C2299 0.999 . S
H2303 C2284 0.913 . S
H2304 C2322 0.951 . S
H2305 C2324 0.951 . S
H2306 C2326 0.950 . S
H2307 C2327 0.950 . S
H2308 C2329 0.950 1_565 S
H2309 C2332 0.950 . S
H2310 C2333 0.950 . S
H2311 C2335 0.950 . S
H2312 C2336 0.950 . S
H2313 C2337 0.951 1_455 S
H2314 C2339 0.951 . S
H2315 C2341 0.950 . S
H2316 C2342 0.950 . S
H2317 C2344 0.950 . S
H2318 C2347 0.950 . S
H2319 C2348 0.950 . S
H2320 C2350 0.950 1_455 S
H2321 C2351 0.950 . S
C2322 H2304 0.951 . S
C2322 C2323 1.366 . S
C2322 C2324 1.388 . S
C2323 C2322 1.366 . S
C2323 C2327 1.385 . S
C2324 H2305 0.951 . S
C2324 C2322 1.388 . S
C2324 C2325 1.366 . S
C2325 C2324 1.366 . S
C2325 C2326 1.414 . S
C2325 C2328 1.499 . S
C2326 H2306 0.950 . S
C2326 C2325 1.414 . S
C2326 C2327 1.374 . S
C2327 H2307 0.950 . S
C2327 C2323 1.385 . S
C2327 C2326 1.374 . S
C2328 C2325 1.499 . S
C2328 C2329 1.373 . S
C2328 C2330 1.389 . S
C2329 H2308 0.950 1_545 S
C2329 C2328 1.373 . S
C2329 C2345 1.377 . S
C2330 C2328 1.389 . S
C2330 C2331 1.524 . S
C2330 C2344 1.377 . S
C2331 C2330 1.524 . S
C2331 C2332 1.397 . S
C2331 C2336 1.363 . S
C2332 H2309 0.950 . S
C2332 C2331 1.397 . S
C2332 C2333 1.334 . S
C2333 H2310 0.950 . S
C2333 C2332 1.334 . S
C2333 C2334 1.287 . S
C2334 C2333 1.287 . S
C2334 C2335 1.524 . S
C2334 H2353 0.913 . S
C2335 H2311 0.950 . S
C2335 C2334 1.524 . S
C2335 C2336 1.415 . S
C2336 H2312 0.950 . S
C2336 C2331 1.363 . S
C2336 C2335 1.415 . S
C2337 H2313 0.951 1_655 S
C2337 C2338 1.366 . S
C2337 C2339 1.388 . S
C2338 C2337 1.366 . S
C2338 C2342 1.385 . S
C2339 H2314 0.951 . S
C2339 C2337 1.388 . S
C2339 C2340 1.366 . S
C2340 C2339 1.366 . S
C2340 C2341 1.414 . S
C2340 C2343 1.499 . S
C2341 H2315 0.950 . S
C2341 C2340 1.414 . S
C2341 C2342 1.374 . S
C2342 H2316 0.950 . S
C2342 C2338 1.385 . S
C2342 C2341 1.374 . S
C2343 C2340 1.499 . S
C2343 C2344 1.373 . S
C2343 C2345 1.389 . S
C2344 H2317 0.950 . S
C2344 C2330 1.377 . S
C2344 C2343 1.373 . S
C2345 C2329 1.377 . S
C2345 C2343 1.389 . S
C2345 C2346 1.524 1_545 S
C2346 C2345 1.524 1_565 S
C2346 C2347 1.397 . S
C2346 C2351 1.363 . S
C2347 H2318 0.950 . S
C2347 C2346 1.397 . S
C2347 C2348 1.334 . S
C2348 H2319 0.950 . S
C2348 C2347 1.334 . S
C2348 C2349 1.287 . S
C2349 C2348 1.287 . S
C2349 C2350 1.524 . S
C2349 H2352 0.999 . S
C2350 H2320 0.950 1_655 S
C2350 C2349 1.524 . S
C2350 C2351 1.415 . S
C2351 H2321 0.950 . S
C2351 C2346 1.363 . S
C2351 C2350 1.415 . S
H2352 C2349 0.999 . S
H2353 C2334 0.913 . S
H2354 C2372 0.951 . S
H2355 C2374 0.951 . S
H2356 C2376 0.950 . S
H2357 C2377 0.950 . S
H2358 C2379 0.950 . S
H2359 C2382 0.950 . S
H2360 C2383 0.950 . S
H2361 C2385 0.950 . S
H2362 C2386 0.950 . S
H2363 C2387 0.951 . S
H2364 C2389 0.951 . S
H2365 C2391 0.950 . S
H2366 C2392 0.950 . S
H2367 C2394 0.950 . S
H2368 C2397 0.950 . S
H2369 C2398 0.950 . S
H2370 C2400 0.950 . S
H2371 C2401 0.950 . S
C2372 H2354 0.951 . S
C2372 C2373 1.366 . S
C2372 C2374 1.388 . S
C2373 C2372 1.366 . S
C2373 C2377 1.385 . S
C2374 H2355 0.951 . S
C2374 C2372 1.388 . S
C2374 C2375 1.366 . S
C2375 C2374 1.366 . S
C2375 C2376 1.414 . S
C2375 C2378 1.499 . S
C2376 H2356 0.950 . S
C2376 C2375 1.414 . S
C2376 C2377 1.374 . S
C2377 H2357 0.950 . S
C2377 C2373 1.385 . S
C2377 C2376 1.374 . S
C2378 C2375 1.499 . S
C2378 C2379 1.373 . S
C2378 C2380 1.389 . S
C2379 H2358 0.950 . S
C2379 C2378 1.373 . S
C2379 C2395 1.377 . S
C2380 C2378 1.389 . S
C2380 C2381 1.524 . S
C2380 C2394 1.377 . S
C2381 C2380 1.524 . S
C2381 C2382 1.397 . S
C2381 C2386 1.363 . S
C2382 H2359 0.950 . S
C2382 C2381 1.397 . S
C2382 C2383 1.334 . S
C2383 H2360 0.950 . S
C2383 C2382 1.334 . S
C2383 C2384 1.287 . S
C2384 C2383 1.287 . S
C2384 C2385 1.524 . S
C2384 H2403 0.913 . S
C2385 H2361 0.950 . S
C2385 C2384 1.524 . S
C2385 C2386 1.415 . S
C2386 H2362 0.950 . S
C2386 C2381 1.363 . S
C2386 C2385 1.415 . S
C2387 H2363 0.951 . S
C2387 C2388 1.366 . S
C2387 C2389 1.388 . S
C2388 C2387 1.366 . S
C2388 C2392 1.385 . S
C2389 H2364 0.951 . S
C2389 C2387 1.388 . S
C2389 C2390 1.366 . S
C2390 C2389 1.366 . S
C2390 C2391 1.414 . S
C2390 C2393 1.499 . S
C2391 H2365 0.950 . S
C2391 C2390 1.414 . S
C2391 C2392 1.374 . S
C2392 H2366 0.950 . S
C2392 C2388 1.385 . S
C2392 C2391 1.374 . S
C2393 C2390 1.499 . S
C2393 C2394 1.373 . S
C2393 C2395 1.389 . S
C2394 H2367 0.950 . S
C2394 C2380 1.377 . S
C2394 C2393 1.373 . S
C2395 C2379 1.377 . S
C2395 C2393 1.389 . S
C2395 C2396 1.524 . S
C2396 C2395 1.524 . S
C2396 C2397 1.397 . S
C2396 C2401 1.363 . S
C2397 H2368 0.950 . S
C2397 C2396 1.397 . S
C2397 C2398 1.334 . S
C2398 H2369 0.950 . S
C2398 C2397 1.334 . S
C2398 C2399 1.287 . S
C2399 C2398 1.287 . S
C2399 C2400 1.524 . S
C2399 H2402 0.999 . S
C2400 H2370 0.950 . S
C2400 C2399 1.524 . S
C2400 C2401 1.415 . S
C2401 H2371 0.950 . S
C2401 C2396 1.363 . S
C2401 C2400 1.415 . S
H2402 C2399 0.999 . S
H2403 C2384 0.913 . S
H2404 C2422 0.951 . S
H2405 C2424 0.951 . S
H2406 C2426 0.950 . S
H2407 C2427 0.950 . S
H2408 C2429 0.950 . S
H2409 C2432 0.950 1_565 S
H2410 C2433 0.950 . S
H2411 C2435 0.950 . S
H2412 C2436 0.950 . S
H2413 C2437 0.951 . S
H2414 C2439 0.951 . S
H2415 C2441 0.950 . S
H2416 C2442 0.950 . S
H2417 C2444 0.950 . S
H2418 C2447 0.950 . S
H2419 C2448 0.950 . S
H2420 C2450 0.950 . S
H2421 C2451 0.950 . S
C2422 H2404 0.951 . S
C2422 C2423 1.366 . S
C2422 C2424 1.388 . S
C2423 C2422 1.366 . S
C2423 C2427 1.385 1_545 S
C2424 H2405 0.951 . S
C2424 C2422 1.388 . S
C2424 C2425 1.366 1_545 S
C2425 C2424 1.366 1_565 S
C2425 C2426 1.414 . S
C2425 C2428 1.499 . S
C2426 H2406 0.950 . S
C2426 C2425 1.414 . S
C2426 C2427 1.374 . S
C2427 H2407 0.950 . S
C2427 C2423 1.385 1_565 S
C2427 C2426 1.374 . S
C2428 C2425 1.499 . S
C2428 C2429 1.373 . S
C2428 C2430 1.389 1_565 S
C2429 H2408 0.950 . S
C2429 C2428 1.373 . S
C2429 C2445 1.377 . S
C2430 C2428 1.389 1_545 S
C2430 C2431 1.524 . S
C2430 C2444 1.377 . S
C2431 C2430 1.524 . S
C2431 C2432 1.397 . S
C2431 C2436 1.363 . S
C2432 H2409 0.950 1_545 S
C2432 C2431 1.397 . S
C2432 C2433 1.334 . S
C2433 H2410 0.950 . S
C2433 C2432 1.334 . S
C2433 C2434 1.287 . S
C2434 C2433 1.287 . S
C2434 C2435 1.524 . S
C2434 H2453 0.913 . S
C2435 H2411 0.950 . S
C2435 C2434 1.524 . S
C2435 C2436 1.415 . S
C2436 H2412 0.950 . S
C2436 C2431 1.363 . S
C2436 C2435 1.415 . S
C2437 H2413 0.951 . S
C2437 C2438 1.366 . S
C2437 C2439 1.388 . S
C2438 C2437 1.366 . S
C2438 C2442 1.385 1_565 S
C2439 H2414 0.951 . S
C2439 C2437 1.388 . S
C2439 C2440 1.366 . S
C2440 C2439 1.366 . S
C2440 C2441 1.414 1_565 S
C2440 C2443 1.499 . S
C2441 H2415 0.950 . S
C2441 C2440 1.414 1_545 S
C2441 C2442 1.374 . S
C2442 H2416 0.950 . S
C2442 C2438 1.385 1_545 S
C2442 C2441 1.374 . S
C2443 C2440 1.499 . S
C2443 C2444 1.373 1_565 S
C2443 C2445 1.389 . S
C2444 H2417 0.950 . S
C2444 C2430 1.377 . S
C2444 C2443 1.373 1_545 S
C2445 C2429 1.377 . S
C2445 C2443 1.389 . S
C2445 C2446 1.524 . S
C2446 C2445 1.524 . S
C2446 C2447 1.397 . S
C2446 C2451 1.363 . S
C2447 H2418 0.950 . S
C2447 C2446 1.397 . S
C2447 C2448 1.334 . S
C2448 H2419 0.950 . S
C2448 C2447 1.334 . S
C2448 C2449 1.287 . S
C2449 C2448 1.287 . S
C2449 C2450 1.524 . S
C2449 H2452 0.999 . S
C2450 H2420 0.950 . S
C2450 C2449 1.524 . S
C2450 C2451 1.415 . S
C2451 H2421 0.950 . S
C2451 C2446 1.363 . S
C2451 C2450 1.415 . S
H2452 C2449 0.999 . S
H2453 C2434 0.913 . S
H2454 C2472 0.951 . S
H2455 C2474 0.951 . S
H2456 C2476 0.950 . S
H2457 C2477 0.950 . S
H2458 C2479 0.950 . S
H2459 C2482 0.950 . S
H2460 C2483 0.950 . S
H2461 C2485 0.950 . S
H2462 C2486 0.950 . S
H2463 C2487 0.951 . S
H2464 C2489 0.951 . S
H2465 C2491 0.950 . S
H2466 C2492 0.950 . S
H2467 C2494 0.950 . S
H2468 C2497 0.950 . S
H2469 C2498 0.950 . S
H2470 C2500 0.950 . S
H2471 C2501 0.950 . S
C2472 H2454 0.951 . S
C2472 C2473 1.366 . S
C2472 C2474 1.388 . S
C2473 C2472 1.366 . S
C2473 C2477 1.385 . S
C2474 H2455 0.951 . S
C2474 C2472 1.388 . S
C2474 C2475 1.366 . S
C2475 C2474 1.366 . S
C2475 C2476 1.414 . S
C2475 C2478 1.499 . S
C2476 H2456 0.950 . S
C2476 C2475 1.414 . S
C2476 C2477 1.374 . S
C2477 H2457 0.950 . S
C2477 C2473 1.385 . S
C2477 C2476 1.374 . S
C2478 C2475 1.499 . S
C2478 C2479 1.373 . S
C2478 C2480 1.389 . S
C2479 H2458 0.950 . S
C2479 C2478 1.373 . S
C2479 C2495 1.377 . S
C2480 C2478 1.389 . S
C2480 C2481 1.524 . S
C2480 C2494 1.377 . S
C2481 C2480 1.524 . S
C2481 C2482 1.397 . S
C2481 C2486 1.363 . S
C2482 H2459 0.950 . S
C2482 C2481 1.397 . S
C2482 C2483 1.334 . S
C2483 H2460 0.950 . S
C2483 C2482 1.334 . S
C2483 C2484 1.287 . S
C2484 C2483 1.287 . S
C2484 C2485 1.524 . S
C2484 H2503 0.913 . S
C2485 H2461 0.950 . S
C2485 C2484 1.524 . S
C2485 C2486 1.415 . S
C2486 H2462 0.950 . S
C2486 C2481 1.363 . S
C2486 C2485 1.415 . S
C2487 H2463 0.951 . S
C2487 C2488 1.366 . S
C2487 C2489 1.388 . S
C2488 C2487 1.366 . S
C2488 C2492 1.385 . S
C2489 H2464 0.951 . S
C2489 C2487 1.388 . S
C2489 C2490 1.366 . S
C2490 C2489 1.366 . S
C2490 C2491 1.414 . S
C2490 C2493 1.499 . S
C2491 H2465 0.950 . S
C2491 C2490 1.414 . S
C2491 C2492 1.374 . S
C2492 H2466 0.950 . S
C2492 C2488 1.385 . S
C2492 C2491 1.374 . S
C2493 C2490 1.499 . S
C2493 C2494 1.373 . S
C2493 C2495 1.389 . S
C2494 H2467 0.950 . S
C2494 C2480 1.377 . S
C2494 C2493 1.373 . S
C2495 C2479 1.377 . S
C2495 C2493 1.389 . S
C2495 C2496 1.524 . S
C2496 C2495 1.524 . S
C2496 C2497 1.397 . S
C2496 C2501 1.363 . S
C2497 H2468 0.950 . S
C2497 C2496 1.397 . S
C2497 C2498 1.334 . S
C2498 H2469 0.950 . S
C2498 C2497 1.334 . S
C2498 C2499 1.287 . S
C2499 C2498 1.287 . S
C2499 C2500 1.524 . S
C2499 H2502 0.999 . S
C2500 H2470 0.950 . S
C2500 C2499 1.524 . S
C2500 C2501 1.415 . S
C2501 H2471 0.950 . S
C2501 C2496 1.363 . S
C2501 C2500 1.415 . S
H2502 C2499 0.999 . S
H2503 C2484 0.913 . S
H2504 C2522 0.932 1_565 S
H2505 C2524 0.951 1_565 S
H2506 C2526 0.950 . S
H2507 C2527 0.950 . S
H2508 C2529 0.950 1_565 S
H2509 C2532 0.950 . S
H2510 C2533 0.950 . S
H2511 C2535 0.950 . S
H2512 C2536 0.950 . S
H2513 C2537 0.951 . S
H2514 C2539 0.951 . S
H2515 C2541 0.957 . S
H2516 C2542 1.001 . S
H2517 C2544 0.950 . S
H2518 C2547 0.950 . S
H2519 C2548 0.950 . S
H2520 C2550 0.950 . S
H2521 C2551 0.950 1_545 S
C2522 H2504 0.932 1_545 S
C2522 C2523 1.366 . S
C2522 C2524 1.388 . S
C2523 C2522 1.366 . S
C2523 C2527 1.385 . S
C2524 H2505 0.951 1_545 S
C2524 C2522 1.388 . S
C2524 C2525 1.366 . S
C2525 C2524 1.366 . S
C2525 C2526 1.414 . S
C2525 C2528 1.499 . S
C2526 H2506 0.950 . S
C2526 C2525 1.414 . S
C2526 C2527 1.374 . S
C2527 H2507 0.950 . S
C2527 C2523 1.385 . S
C2527 C2526 1.374 . S
C2528 C2525 1.499 . S
C2528 C2529 1.373 . S
C2528 C2530 1.389 . S
C2529 H2508 0.950 1_545 S
C2529 C2528 1.373 . S
C2529 C2545 1.377 1_545 S
C2530 C2528 1.389 . S
C2530 C2531 1.524 . S
C2530 C2544 1.377 . S
C2531 C2530 1.524 . S
C2531 C2532 1.397 . S
C2531 C2536 1.363 1_655 S
C2532 H2509 0.950 . S
C2532 C2531 1.397 . S
C2532 C2533 1.334 . S
C2533 H2510 0.950 . S
C2533 C2532 1.334 . S
C2533 C2534 1.287 1_655 S
C2534 C2533 1.287 1_455 S
C2534 C2535 1.524 . S
C2534 H2553 0.913 . S
C2535 H2511 0.950 . S
C2535 C2534 1.524 . S
C2535 C2536 1.415 . S
C2536 H2512 0.950 . S
C2536 C2531 1.363 1_455 S
C2536 C2535 1.415 . S
C2537 H2513 0.951 . S
C2537 C2538 1.366 1_545 S
C2537 C2539 1.388 . S
C2538 C2537 1.366 1_565 S
C2538 C2542 1.358 1_655 S
C2539 H2514 0.951 . S
C2539 C2537 1.388 . S
C2539 C2540 1.381 . S
C2540 C2539 1.381 . S
C2540 C2541 1.398 1_545 S
C2540 C2543 1.501 . S
C2541 H2515 0.957 . S
C2541 C2540 1.398 1_565 S
C2541 C2542 1.352 1_655 S
C2542 H2516 1.001 . S
C2542 C2538 1.358 1_455 S
C2542 C2541 1.352 1_455 S
C2543 C2540 1.501 . S
C2543 C2544 1.373 . S
C2543 C2545 1.389 1_545 S
C2544 H2517 0.950 . S
C2544 C2530 1.377 . S
C2544 C2543 1.373 . S
C2545 C2529 1.377 1_565 S
C2545 C2543 1.389 1_565 S
C2545 C2546 1.524 . S
C2546 C2545 1.524 . S
C2546 C2547 1.397 . S
C2546 C2551 1.363 . S
C2547 H2518 0.950 . S
C2547 C2546 1.397 . S
C2547 C2548 1.334 . S
C2548 H2519 0.950 . S
C2548 C2547 1.334 . S
C2548 C2549 1.287 . S
C2549 C2548 1.287 . S
C2549 C2550 1.524 . S
C2549 H2552 0.999 . S
C2550 H2520 0.950 . S
C2550 C2549 1.524 . S
C2550 C2551 1.415 . S
C2551 H2521 0.950 1_565 S
C2551 C2546 1.363 . S
C2551 C2550 1.415 . S
H2552 C2549 0.999 . S
H2553 C2534 0.913 . S
H2554 C2572 0.951 . S
H2555 C2574 0.951 . S
H2556 C2576 0.950 . S
H2557 C2577 0.950 . S
H2558 C2579 0.950 . S
H2559 C2582 0.950 . S
H2560 C2583 0.950 . S
H2561 C2585 0.950 . S
H2562 C2586 0.950 . S
H2563 C2587 0.951 . S
H2564 C2589 0.951 . S
H2565 C2591 0.950 . S
H2566 C2592 0.950 . S
H2567 C2594 0.950 . S
H2568 C2597 0.950 . S
H2569 C2598 0.950 . S
H2570 C2600 0.950 . S
H2571 C2601 0.950 . S
C2572 H2554 0.951 . S
C2572 C2573 1.366 . S
C2572 C2574 1.388 . S
C2573 C2572 1.366 . S
C2573 C2577 1.385 . S
C2574 H2555 0.951 . S
C2574 C2572 1.388 . S
C2574 C2575 1.366 . S
C2575 C2574 1.366 . S
C2575 C2576 1.414 . S
C2575 C2578 1.499 . S
C2576 H2556 0.950 . S
C2576 C2575 1.414 . S
C2576 C2577 1.374 . S
C2577 H2557 0.950 . S
C2577 C2573 1.385 . S
C2577 C2576 1.374 . S
C2578 C2575 1.499 . S
C2578 C2579 1.373 . S
C2578 C2580 1.389 . S
C2579 H2558 0.950 . S
C2579 C2578 1.373 . S
C2579 C2595 1.377 . S
C2580 C2578 1.389 . S
C2580 C2581 1.524 . S
C2580 C2594 1.377 . S
C2581 C2580 1.524 . S
C2581 C2582 1.397 . S
C2581 C2586 1.363 . S
C2582 H2559 0.950 . S
C2582 C2581 1.397 . S
C2582 C2583 1.334 . S
C2583 H2560 0.950 . S
C2583 C2582 1.334 . S
C2583 C2584 1.287 . S
C2584 C2583 1.287 . S
C2584 C2585 1.524 . S
C2584 H2603 0.913 . S
C2585 H2561 0.950 . S
C2585 C2584 1.524 . S
C2585 C2586 1.415 . S
C2586 H2562 0.950 . S
C2586 C2581 1.363 . S
C2586 C2585 1.415 . S
C2587 H2563 0.951 . S
C2587 C2588 1.366 . S
C2587 C2589 1.388 . S
C2588 C2587 1.366 . S
C2588 C2592 1.385 . S
C2589 H2564 0.951 . S
C2589 C2587 1.388 . S
C2589 C2590 1.366 . S
C2590 C2589 1.366 . S
C2590 C2591 1.414 . S
C2590 C2593 1.499 . S
C2591 H2565 0.950 . S
C2591 C2590 1.414 . S
C2591 C2592 1.374 . S
C2592 H2566 0.950 . S
C2592 C2588 1.385 . S
C2592 C2591 1.374 . S
C2593 C2590 1.499 . S
C2593 C2594 1.373 . S
C2593 C2595 1.389 . S
C2594 H2567 0.950 . S
C2594 C2580 1.377 . S
C2594 C2593 1.373 . S
C2595 C2579 1.377 . S
C2595 C2593 1.389 . S
C2595 C2596 1.524 . S
C2596 C2595 1.524 . S
C2596 C2597 1.397 . S
C2596 C2601 1.363 . S
C2597 H2568 0.950 . S
C2597 C2596 1.397 . S
C2597 C2598 1.334 . S
C2598 H2569 0.950 . S
C2598 C2597 1.334 . S
C2598 C2599 1.287 . S
C2599 C2598 1.287 . S
C2599 C2600 1.524 . S
C2599 H2602 0.999 . S
C2600 H2570 0.950 . S
C2600 C2599 1.524 . S
C2600 C2601 1.415 . S
C2601 H2571 0.950 . S
C2601 C2596 1.363 . S
C2601 C2600 1.415 . S
H2602 C2599 0.999 . S
H2603 C2584 0.913 . S
H2604 C2622 0.951 . S
H2605 C2624 0.951 . S
H2606 C2626 0.950 . S
H2607 C2627 0.950 . S
H2608 C2629 0.950 . S
H2609 C2632 0.950 . S
H2610 C2633 0.950 . S
H2611 C2635 0.950 . S
H2612 C2636 0.950 . S
H2613 C2637 0.951 1_565 S
H2614 C2639 0.951 1_565 S
H2615 C2641 0.950 . S
H2616 C2642 0.950 . S
H2617 C2644 0.950 . S
H2618 C2647 0.950 . S
H2619 C2648 0.950 . S
H2620 C2650 0.950 . S
H2621 C2651 0.950 . S
C2622 H2604 0.951 . S
C2622 C2623 1.366 . S
C2622 C2624 1.388 . S
C2623 C2622 1.366 . S
C2623 C2627 1.385 1_545 S
C2624 H2605 0.951 . S
C2624 C2622 1.388 . S
C2624 C2625 1.366 . S
C2625 C2624 1.366 . S
C2625 C2626 1.414 1_545 S
C2625 C2628 1.499 . S
C2626 H2606 0.950 . S
C2626 C2625 1.414 1_565 S
C2626 C2627 1.374 . S
C2627 H2607 0.950 . S
C2627 C2623 1.385 1_565 S
C2627 C2626 1.374 . S
C2628 C2625 1.499 . S
C2628 C2629 1.373 . S
C2628 C2630 1.389 . S
C2629 H2608 0.950 . S
C2629 C2628 1.373 . S
C2629 C2645 1.377 . S
C2630 C2628 1.389 . S
C2630 C2631 1.524 . S
C2630 C2644 1.377 . S
C2631 C2630 1.524 . S
C2631 C2632 1.397 1_545 S
C2631 C2636 1.363 . S
C2632 H2609 0.950 . S
C2632 C2631 1.397 1_565 S
C2632 C2633 1.334 . S
C2633 H2610 0.950 . S
C2633 C2632 1.334 . S
C2633 C2634 1.287 1_565 S
C2634 C2633 1.287 1_545 S
C2634 C2635 1.524 . S
C2634 H2653 0.913 . S
C2635 H2611 0.950 . S
C2635 C2634 1.524 . S
C2635 C2636 1.415 . S
C2636 H2612 0.950 . S
C2636 C2631 1.363 . S
C2636 C2635 1.415 . S
C2637 H2613 0.951 1_545 S
C2637 C2638 1.366 . S
C2637 C2639 1.388 . S
C2638 C2637 1.366 . S
C2638 C2642 1.385 . S
C2639 H2614 0.951 1_545 S
C2639 C2637 1.388 . S
C2639 C2640 1.366 . S
C2640 C2639 1.366 . S
C2640 C2641 1.414 . S
C2640 C2643 1.499 . S
C2641 H2615 0.950 . S
C2641 C2640 1.414 . S
C2641 C2642 1.374 . S
C2642 H2616 0.950 . S
C2642 C2638 1.385 . S
C2642 C2641 1.374 . S
C2643 C2640 1.499 . S
C2643 C2644 1.373 . S
C2643 C2645 1.389 . S
C2644 H2617 0.950 . S
C2644 C2630 1.377 . S
C2644 C2643 1.373 . S
C2645 C2629 1.377 . S
C2645 C2643 1.389 . S
C2645 C2646 1.524 . S
C2646 C2645 1.524 . S
C2646 C2647 1.397 . S
C2646 C2651 1.363 1_545 S
C2647 H2618 0.950 . S
C2647 C2646 1.397 . S
C2647 C2648 1.334 . S
C2648 H2619 0.950 . S
C2648 C2647 1.334 . S
C2648 C2649 1.287 . S
C2649 C2648 1.287 . S
C2649 C2650 1.524 1_545 S
C2649 H2652 0.999 . S
C2650 H2620 0.950 . S
C2650 C2649 1.524 1_565 S
C2650 C2651 1.415 . S
C2651 H2621 0.950 . S
C2651 C2646 1.363 1_565 S
C2651 C2650 1.415 . S
H2652 C2649 0.999 . S
H2653 C2634 0.913 . S
H2654 C2672 0.951 . S
H2655 C2674 0.951 . S
H2656 C2676 0.950 . S
H2657 C2677 0.950 . S
H2658 C2679 0.950 . S
H2659 C2682 0.950 . S
H2660 C2683 0.950 . S
H2661 C2685 0.950 . S
H2662 C2686 0.950 . S
H2663 C2687 0.951 . S
H2664 C2689 0.951 . S
H2665 C2691 0.950 . S
H2666 C2692 0.950 . S
H2667 C2694 0.950 . S
H2668 C2697 0.950 . S
H2669 C2698 0.950 . S
H2670 C2700 0.950 . S
H2671 C2701 0.950 . S
C2672 H2654 0.951 . S
C2672 C2673 1.366 . S
C2672 C2674 1.388 . S
C2673 C2672 1.366 . S
C2673 C2677 1.385 . S
C2674 H2655 0.951 . S
C2674 C2672 1.388 . S
C2674 C2675 1.366 . S
C2675 C2674 1.366 . S
C2675 C2676 1.414 . S
C2675 C2678 1.499 . S
C2676 H2656 0.950 . S
C2676 C2675 1.414 . S
C2676 C2677 1.374 . S
C2677 H2657 0.950 . S
C2677 C2673 1.385 . S
C2677 C2676 1.374 . S
C2678 C2675 1.499 . S
C2678 C2679 1.373 . S
C2678 C2680 1.389 . S
C2679 H2658 0.950 . S
C2679 C2678 1.373 . S
C2679 C2695 1.377 . S
C2680 C2678 1.389 . S
C2680 C2681 1.524 . S
C2680 C2694 1.377 . S
C2681 C2680 1.524 . S
C2681 C2682 1.397 . S
C2681 C2686 1.363 . S
C2682 H2659 0.950 . S
C2682 C2681 1.397 . S
C2682 C2683 1.334 . S
C2683 H2660 0.950 . S
C2683 C2682 1.334 . S
C2683 C2684 1.287 . S
C2684 C2683 1.287 . S
C2684 C2685 1.524 . S
C2684 H2703 0.913 . S
C2685 H2661 0.950 . S
C2685 C2684 1.524 . S
C2685 C2686 1.415 . S
C2686 H2662 0.950 . S
C2686 C2681 1.363 . S
C2686 C2685 1.415 . S
C2687 H2663 0.951 . S
C2687 C2688 1.366 . S
C2687 C2689 1.388 . S
C2688 C2687 1.366 . S
C2688 C2692 1.385 . S
C2689 H2664 0.951 . S
C2689 C2687 1.388 . S
C2689 C2690 1.366 . S
C2690 C2689 1.366 . S
C2690 C2691 1.414 . S
C2690 C2693 1.499 . S
C2691 H2665 0.950 . S
C2691 C2690 1.414 . S
C2691 C2692 1.374 . S
C2692 H2666 0.950 . S
C2692 C2688 1.385 . S
C2692 C2691 1.374 . S
C2693 C2690 1.499 . S
C2693 C2694 1.373 . S
C2693 C2695 1.389 . S
C2694 H2667 0.950 . S
C2694 C2680 1.377 . S
C2694 C2693 1.373 . S
C2695 C2679 1.377 . S
C2695 C2693 1.389 . S
C2695 C2696 1.524 . S
C2696 C2695 1.524 . S
C2696 C2697 1.397 . S
C2696 C2701 1.363 . S
C2697 H2668 0.950 . S
C2697 C2696 1.397 . S
C2697 C2698 1.334 . S
C2698 H2669 0.950 . S
C2698 C2697 1.334 . S
C2698 C2699 1.287 . S
C2699 C2698 1.287 . S
C2699 C2700 1.524 . S
C2699 H2702 0.999 . S
C2700 H2670 0.950 . S
C2700 C2699 1.524 . S
C2700 C2701 1.415 . S
C2701 H2671 0.950 . S
C2701 C2696 1.363 . S
C2701 C2700 1.415 . S
H2702 C2699 0.999 . S
H2703 C2684 0.913 . S
H2704 C2722 0.951 . S
H2705 C2724 0.951 . S
H2706 C2726 0.939 1_556 S
H2707 C2727 0.950 . S
H2708 C2729 0.950 . S
H2709 C2732 0.950 . S
H2710 C2733 0.950 . S
H2711 C2735 0.950 1_545 S
H2712 C2736 0.991 . S
H2713 C2737 0.951 . S
H2714 C2739 0.951 . S
H2715 C2741 0.950 . S
H2716 C2742 0.950 . S
H2717 C2744 0.950 . S
H2718 C2747 0.950 . S
H2719 C2748 0.950 . S
H2720 C2750 0.950 . S
H2721 C2751 0.950 . S
C2722 H2704 0.951 . S
C2722 C2723 1.366 . S
C2722 C2724 1.388 . S
C2723 C2722 1.366 . S
C2723 C2727 1.385 1_554 S
C2724 H2705 0.951 . S
C2724 C2722 1.388 . S
C2724 C2725 1.366 . S
C2725 C2724 1.366 . S
C2725 C2726 1.414 . S
C2725 C2728 1.499 . S
C2726 H2706 0.939 1_554 S
C2726 C2725 1.414 . S
C2726 C2727 1.374 1_554 S
C2727 H2707 0.950 . S
C2727 C2723 1.385 1_556 S
C2727 C2726 1.374 1_556 S
C2728 C2725 1.499 . S
C2728 C2729 1.373 . S
C2728 C2730 1.389 . S
C2729 H2708 0.950 . S
C2729 C2728 1.373 . S
C2729 C2745 1.377 . S
C2730 C2728 1.389 . S
C2730 C2731 1.524 1_554 S
C2730 C2744 1.377 . S
C2731 C2730 1.524 1_556 S
C2731 C2732 1.397 . S
C2731 C2736 1.352 1_556 S
C2732 H2709 0.950 . S
C2732 C2731 1.397 . S
C2732 C2733 1.334 . S
C2733 H2710 0.950 . S
C2733 C2732 1.334 . S
C2733 C2734 1.287 . S
C2734 C2733 1.287 . S
C2734 C2735 1.524 . S
C2734 H2753 0.913 . S
C2735 H2711 0.950 1_565 S
C2735 C2734 1.524 . S
C2735 C2736 1.387 1_556 S
C2736 H2712 0.991 . S
C2736 C2731 1.352 1_554 S
C2736 C2735 1.387 1_554 S
C2737 H2713 0.951 . S
C2737 C2738 1.366 . S
C2737 C2739 1.388 . S
C2738 C2737 1.366 . S
C2738 C2742 1.385 . S
C2739 H2714 0.951 . S
C2739 C2737 1.388 . S
C2739 C2740 1.366 . S
C2740 C2739 1.366 . S
C2740 C2741 1.414 . S
C2740 C2743 1.499 . S
C2741 H2715 0.950 . S
C2741 C2740 1.414 . S
C2741 C2742 1.374 . S
C2742 H2716 0.950 . S
C2742 C2738 1.385 . S
C2742 C2741 1.374 . S
C2743 C2740 1.499 . S
C2743 C2744 1.373 . S
C2743 C2745 1.389 . S
C2744 H2717 0.950 . S
C2744 C2730 1.377 . S
C2744 C2743 1.373 . S
C2745 C2729 1.377 . S
C2745 C2743 1.389 . S
C2745 C2746 1.524 . S
C2746 C2745 1.524 . S
C2746 C2747 1.397 . S
C2746 C2751 1.363 . S
C2747 H2718 0.950 . S
C2747 C2746 1.397 . S
C2747 C2748 1.334 . S
C2748 H2719 0.950 . S
C2748 C2747 1.334 . S
C2748 C2749 1.287 . S
C2749 C2748 1.287 . S
C2749 C2750 1.524 . S
C2749 H2752 0.999 . S
C2750 H2720 0.950 . S
C2750 C2749 1.524 . S
C2750 C2751 1.415 . S
C2751 H2721 0.950 . S
C2751 C2746 1.363 . S
C2751 C2750 1.415 . S
H2752 C2749 0.999 . S
H2753 C2734 0.913 . S
H2754 C2772 0.951 . S
H2755 C2774 0.952 . S
H2756 C2776 0.948 . S
H2757 C2777 0.950 . S
H2758 C2779 0.950 . S
H2759 C2782 0.950 . S
H2760 C2783 0.950 . S
H2761 C2785 0.950 . S
H2762 C2786 0.950 . S
H2763 C2787 0.951 . S
H2764 C2789 0.951 . S
H2765 C2791 0.950 . S
H2766 C2792 0.950 . S
H2767 C2794 0.950 . S
H2768 C2797 0.950 . S
H2769 C2798 0.950 . S
H2770 C2800 0.950 . S
H2771 C2801 0.950 . S
C2772 H2754 0.951 . S
C2772 C2773 1.366 . S
C2772 C2774 1.388 . S
C2773 C2772 1.366 . S
C2773 C2777 1.385 . S
C2774 H2755 0.952 . S
C2774 C2772 1.388 . S
C2774 C2775 1.368 . S
C2775 C2774 1.368 . S
C2775 C2776 1.414 . S
C2775 C2778 1.497 1_554 S
C2776 H2756 0.948 . S
C2776 C2775 1.414 . S
C2776 C2777 1.378 . S
C2777 H2757 0.950 . S
C2777 C2773 1.385 . S
C2777 C2776 1.378 . S
C2778 C2775 1.497 1_556 S
C2778 C2779 1.373 . S
C2778 C2780 1.389 1_556 S
C2779 H2758 0.950 . S
C2779 C2778 1.373 . S
C2779 C2795 1.377 . S
C2780 C2778 1.389 1_554 S
C2780 C2781 1.524 . S
C2780 C2794 1.377 . S
C2781 C2780 1.524 . S
C2781 C2782 1.397 . S
C2781 C2786 1.363 . S
C2782 H2759 0.950 . S
C2782 C2781 1.397 . S
C2782 C2783 1.334 . S
C2783 H2760 0.950 . S
C2783 C2782 1.334 . S
C2783 C2784 1.287 . S
C2784 C2783 1.287 . S
C2784 C2785 1.524 . S
C2784 H2803 0.913 . S
C2785 H2761 0.950 . S
C2785 C2784 1.524 . S
C2785 C2786 1.415 . S
C2786 H2762 0.950 . S
C2786 C2781 1.363 . S
C2786 C2785 1.415 . S
C2787 H2763 0.951 . S
C2787 C2788 1.366 . S
C2787 C2789 1.388 . S
C2788 C2787 1.366 . S
C2788 C2792 1.385 . S
C2789 H2764 0.951 . S
C2789 C2787 1.388 . S
C2789 C2790 1.366 . S
C2790 C2789 1.366 . S
C2790 C2791 1.414 . S
C2790 C2793 1.499 . S
C2791 H2765 0.950 . S
C2791 C2790 1.414 . S
C2791 C2792 1.374 . S
C2792 H2766 0.950 . S
C2792 C2788 1.385 . S
C2792 C2791 1.374 . S
C2793 C2790 1.499 . S
C2793 C2794 1.373 1_556 S
C2793 C2795 1.389 . S
C2794 H2767 0.950 . S
C2794 C2780 1.377 . S
C2794 C2793 1.373 1_554 S
C2795 C2779 1.377 . S
C2795 C2793 1.389 . S
C2795 C2796 1.524 . S
C2796 C2795 1.524 . S
C2796 C2797 1.397 . S
C2796 C2801 1.363 . S
C2797 H2768 0.950 . S
C2797 C2796 1.397 . S
C2797 C2798 1.334 . S
C2798 H2769 0.950 . S
C2798 C2797 1.334 . S
C2798 C2799 1.287 . S
C2799 C2798 1.287 . S
C2799 C2800 1.524 . S
C2799 H2802 0.999 . S
C2800 H2770 0.950 . S
C2800 C2799 1.524 . S
C2800 C2801 1.415 . S
C2801 H2771 0.950 . S
C2801 C2796 1.363 . S
C2801 C2800 1.415 . S
H2802 C2799 0.999 . S
H2803 C2784 0.913 . S
H2804 C2822 0.951 . S
H2805 C2824 0.951 . S
H2806 C2826 0.950 . S
H2807 C2827 0.950 . S
H2808 C2829 0.950 . S
H2809 C2832 0.950 . S
H2810 C2833 0.950 . S
H2811 C2835 0.950 . S
H2812 C2836 0.950 . S
H2813 C2837 0.951 . S
H2814 C2839 0.951 . S
H2815 C2841 0.950 . S
H2816 C2842 0.950 . S
H2817 C2844 0.950 . S
H2818 C2847 0.950 . S
H2819 C2848 0.950 . S
H2820 C2850 0.950 . S
H2821 C2851 0.950 . S
C2822 H2804 0.951 . S
C2822 C2823 1.366 . S
C2822 C2824 1.388 . S
C2823 C2822 1.366 . S
C2823 C2827 1.385 . S
C2824 H2805 0.951 . S
C2824 C2822 1.388 . S
C2824 C2825 1.366 . S
C2825 C2824 1.366 . S
C2825 C2826 1.414 . S
C2825 C2828 1.499 . S
C2826 H2806 0.950 . S
C2826 C2825 1.414 . S
C2826 C2827 1.374 . S
C2827 H2807 0.950 . S
C2827 C2823 1.385 . S
C2827 C2826 1.374 . S
C2828 C2825 1.499 . S
C2828 C2829 1.373 . S
C2828 C2830 1.389 . S
C2829 H2808 0.950 . S
C2829 C2828 1.373 . S
C2829 C2845 1.377 . S
C2830 C2828 1.389 . S
C2830 C2831 1.524 . S
C2830 C2844 1.377 . S
C2831 C2830 1.524 . S
C2831 C2832 1.397 . S
C2831 C2836 1.363 . S
C2832 H2809 0.950 . S
C2832 C2831 1.397 . S
C2832 C2833 1.334 . S
C2833 H2810 0.950 . S
C2833 C2832 1.334 . S
C2833 C2834 1.287 . S
C2834 C2833 1.287 . S
C2834 C2835 1.524 . S
C2834 H2853 0.913 . S
C2835 H2811 0.950 . S
C2835 C2834 1.524 . S
C2835 C2836 1.415 . S
C2836 H2812 0.950 . S
C2836 C2831 1.363 . S
C2836 C2835 1.415 . S
C2837 H2813 0.951 . S
C2837 C2838 1.366 . S
C2837 C2839 1.388 . S
C2838 C2837 1.366 . S
C2838 C2842 1.385 . S
C2839 H2814 0.951 . S
C2839 C2837 1.388 . S
C2839 C2840 1.366 . S
C2840 C2839 1.366 . S
C2840 C2841 1.414 . S
C2840 C2843 1.499 . S
C2841 H2815 0.950 . S
C2841 C2840 1.414 . S
C2841 C2842 1.374 . S
C2842 H2816 0.950 . S
C2842 C2838 1.385 . S
C2842 C2841 1.374 . S
C2843 C2840 1.499 . S
C2843 C2844 1.373 . S
C2843 C2845 1.389 . S
C2844 H2817 0.950 . S
C2844 C2830 1.377 . S
C2844 C2843 1.373 . S
C2845 C2829 1.377 . S
C2845 C2843 1.389 . S
C2845 C2846 1.524 . S
C2846 C2845 1.524 . S
C2846 C2847 1.397 . S
C2846 C2851 1.363 . S
C2847 H2818 0.950 . S
C2847 C2846 1.397 . S
C2847 C2848 1.334 . S
C2848 H2819 0.950 . S
C2848 C2847 1.334 . S
C2848 C2849 1.287 . S
C2849 C2848 1.287 . S
C2849 C2850 1.524 . S
C2849 H2852 0.999 . S
C2850 H2820 0.950 . S
C2850 C2849 1.524 . S
C2850 C2851 1.415 . S
C2851 H2821 0.950 . S
C2851 C2846 1.363 . S
C2851 C2850 1.415 . S
H2852 C2849 0.999 . S
H2853 C2834 0.913 . S
H2854 C2872 0.951 . S
H2855 C2874 0.951 . S
H2856 C2876 0.950 . S
H2857 C2877 0.950 . S
H2858 C2879 0.950 . S
H2859 C2882 0.950 . S
H2860 C2883 0.950 . S
H2861 C2885 0.950 . S
H2862 C2886 0.950 . S
H2863 C2887 0.951 . S
H2864 C2889 0.951 . S
H2865 C2891 0.950 . S
H2866 C2892 0.950 . S
H2867 C2894 0.950 . S
H2868 C2897 0.950 . S
H2869 C2898 0.950 . S
H2870 C2900 0.950 . S
H2871 C2901 0.950 . S
C2872 H2854 0.951 . S
C2872 C2873 1.366 . S
C2872 C2874 1.388 . S
C2873 C2872 1.366 . S
C2873 C2877 1.385 . S
C2874 H2855 0.951 . S
C2874 C2872 1.388 . S
C2874 C2875 1.366 . S
C2875 C2874 1.366 . S
C2875 C2876 1.414 . S
C2875 C2878 1.499 . S
C2876 H2856 0.950 . S
C2876 C2875 1.414 . S
C2876 C2877 1.374 . S
C2877 H2857 0.950 . S
C2877 C2873 1.385 . S
C2877 C2876 1.374 . S
C2878 C2875 1.499 . S
C2878 C2879 1.373 . S
C2878 C2880 1.389 . S
C2879 H2858 0.950 . S
C2879 C2878 1.373 . S
C2879 C2895 1.377 . S
C2880 C2878 1.389 . S
C2880 C2881 1.524 . S
C2880 C2894 1.377 . S
C2881 C2880 1.524 . S
C2881 C2882 1.397 . S
C2881 C2886 1.363 . S
C2882 H2859 0.950 . S
C2882 C2881 1.397 . S
C2882 C2883 1.334 . S
C2883 H2860 0.950 . S
C2883 C2882 1.334 . S
C2883 C2884 1.287 . S
C2884 C2883 1.287 . S
C2884 C2885 1.524 . S
C2884 H2903 0.913 . S
C2885 H2861 0.950 . S
C2885 C2884 1.524 . S
C2885 C2886 1.415 . S
C2886 H2862 0.950 . S
C2886 C2881 1.363 . S
C2886 C2885 1.415 . S
C2887 H2863 0.951 . S
C2887 C2888 1.366 . S
C2887 C2889 1.388 . S
C2888 C2887 1.366 . S
C2888 C2892 1.385 . S
C2889 H2864 0.951 . S
C2889 C2887 1.388 . S
C2889 C2890 1.366 . S
C2890 C2889 1.366 . S
C2890 C2891 1.414 . S
C2890 C2893 1.499 . S
C2891 H2865 0.950 . S
C2891 C2890 1.414 . S
C2891 C2892 1.374 . S
C2892 H2866 0.950 . S
C2892 C2888 1.385 . S
C2892 C2891 1.374 . S
C2893 C2890 1.499 . S
C2893 C2894 1.373 . S
C2893 C2895 1.389 . S
C2894 H2867 0.950 . S
C2894 C2880 1.377 . S
C2894 C2893 1.373 . S
C2895 C2879 1.377 . S
C2895 C2893 1.389 . S
C2895 C2896 1.524 . S
C2896 C2895 1.524 . S
C2896 C2897 1.397 . S
C2896 C2901 1.363 . S
C2897 H2868 0.950 . S
C2897 C2896 1.397 . S
C2897 C2898 1.334 . S
C2898 H2869 0.950 . S
C2898 C2897 1.334 . S
C2898 C2899 1.287 . S
C2899 C2898 1.287 . S
C2899 C2900 1.524 . S
C2899 H2902 0.999 . S
C2900 H2870 0.950 . S
C2900 C2899 1.524 . S
C2900 C2901 1.415 . S
C2901 H2871 0.950 . S
C2901 C2896 1.363 . S
C2901 C2900 1.415 . S
H2902 C2899 0.999 . S
H2903 C2884 0.913 . S
H2904 C2922 0.951 . S
H2905 C2924 0.951 . S
H2906 C2926 0.950 . S
H2907 C2927 0.950 . S
H2908 C2929 0.950 . S
H2909 C2932 0.950 . S
H2910 C2933 0.950 . S
H2911 C2935 0.950 . S
H2912 C2936 0.950 . S
H2913 C2937 0.951 . S
H2914 C2939 0.951 . S
H2915 C2941 0.950 . S
H2916 C2942 0.950 . S
H2917 C2944 0.950 . S
H2918 C2947 0.950 . S
H2919 C2948 0.950 . S
H2920 C2950 0.950 . S
H2921 C2951 0.950 . S
C2922 H2904 0.951 . S
C2922 C2923 1.366 . S
C2922 C2924 1.388 . S
C2923 C2922 1.366 . S
C2923 C2927 1.385 . S
C2924 H2905 0.951 . S
C2924 C2922 1.388 . S
C2924 C2925 1.366 . S
C2925 C2924 1.366 . S
C2925 C2926 1.414 . S
C2925 C2928 1.499 . S
C2926 H2906 0.950 . S
C2926 C2925 1.414 . S
C2926 C2927 1.374 . S
C2927 H2907 0.950 . S
C2927 C2923 1.385 . S
C2927 C2926 1.374 . S
C2928 C2925 1.499 . S
C2928 C2929 1.373 . S
C2928 C2930 1.389 . S
C2929 H2908 0.950 . S
C2929 C2928 1.373 . S
C2929 C2945 1.377 . S
C2930 C2928 1.389 . S
C2930 C2931 1.524 . S
C2930 C2944 1.377 . S
C2931 C2930 1.524 . S
C2931 C2932 1.397 . S
C2931 C2936 1.363 . S
C2932 H2909 0.950 . S
C2932 C2931 1.397 . S
C2932 C2933 1.334 . S
C2933 H2910 0.950 . S
C2933 C2932 1.334 . S
C2933 C2934 1.287 . S
C2934 C2933 1.287 . S
C2934 C2935 1.524 . S
C2934 H2953 0.913 . S
C2935 H2911 0.950 . S
C2935 C2934 1.524 . S
C2935 C2936 1.415 . S
C2936 H2912 0.950 . S
C2936 C2931 1.363 . S
C2936 C2935 1.415 . S
C2937 H2913 0.951 . S
C2937 C2938 1.366 . S
C2937 C2939 1.388 . S
C2938 C2937 1.366 . S
C2938 C2942 1.385 . S
C2939 H2914 0.951 . S
C2939 C2937 1.388 . S
C2939 C2940 1.366 . S
C2940 C2939 1.366 . S
C2940 C2941 1.414 . S
C2940 C2943 1.499 . S
C2941 H2915 0.950 . S
C2941 C2940 1.414 . S
C2941 C2942 1.374 . S
C2942 H2916 0.950 . S
C2942 C2938 1.385 . S
C2942 C2941 1.374 . S
C2943 C2940 1.499 . S
C2943 C2944 1.373 . S
C2943 C2945 1.389 . S
C2944 H2917 0.950 . S
C2944 C2930 1.377 . S
C2944 C2943 1.373 . S
C2945 C2929 1.377 . S
C2945 C2943 1.389 . S
C2945 C2946 1.524 . S
C2946 C2945 1.524 . S
C2946 C2947 1.397 . S
C2946 C2951 1.363 . S
C2947 H2918 0.950 . S
C2947 C2946 1.397 . S
C2947 C2948 1.334 . S
C2948 H2919 0.950 . S
C2948 C2947 1.334 . S
C2948 C2949 1.287 . S
C2949 C2948 1.287 . S
C2949 C2950 1.524 . S
C2949 H2952 0.999 . S
C2950 H2920 0.950 . S
C2950 C2949 1.524 . S
C2950 C2951 1.415 . S
C2951 H2921 0.950 . S
C2951 C2946 1.363 . S
C2951 C2950 1.415 . S
H2952 C2949 0.999 . S
H2953 C2934 0.913 . S
H2954 C2972 0.951 . S
H2955 C2974 0.951 . S
H2956 C2976 0.950 . S
H2957 C2977 0.950 . S
H2958 C2979 0.950 . S
H2959 C2982 0.950 . S
H2960 C2983 0.950 . S
H2961 C2985 0.950 . S
H2962 C2986 0.950 . S
H2963 C2987 0.951 . S
H2964 C2989 0.951 . S
H2965 C2991 0.950 . S
H2966 C2992 0.950 . S
H2967 C2994 0.950 . S
H2968 C2997 0.950 . S
H2969 C2998 0.950 . S
H2970 C3000 0.950 . S
H2971 C3001 0.950 . S
C2972 H2954 0.951 . S
C2972 C2973 1.366 . S
C2972 C2974 1.388 . S
C2973 C2972 1.366 . S
C2973 C2977 1.385 . S
C2974 H2955 0.951 . S
C2974 C2972 1.388 . S
C2974 C2975 1.366 . S
C2975 C2974 1.366 . S
C2975 C2976 1.414 . S
C2975 C2978 1.499 . S
C2976 H2956 0.950 . S
C2976 C2975 1.414 . S
C2976 C2977 1.374 . S
C2977 H2957 0.950 . S
C2977 C2973 1.385 . S
C2977 C2976 1.374 . S
C2978 C2975 1.499 . S
C2978 C2979 1.373 . S
C2978 C2980 1.389 . S
C2979 H2958 0.950 . S
C2979 C2978 1.373 . S
C2979 C2995 1.377 . S
C2980 C2978 1.389 . S
C2980 C2981 1.524 . S
C2980 C2994 1.377 . S
C2981 C2980 1.524 . S
C2981 C2982 1.397 . S
C2981 C2986 1.363 . S
C2982 H2959 0.950 . S
C2982 C2981 1.397 . S
C2982 C2983 1.334 . S
C2983 H2960 0.950 . S
C2983 C2982 1.334 . S
C2983 C2984 1.287 . S
C2984 C2983 1.287 . S
C2984 C2985 1.524 . S
C2984 H3003 0.913 . S
C2985 H2961 0.950 . S
C2985 C2984 1.524 . S
C2985 C2986 1.415 . S
C2986 H2962 0.950 . S
C2986 C2981 1.363 . S
C2986 C2985 1.415 . S
C2987 H2963 0.951 . S
C2987 C2988 1.366 . S
C2987 C2989 1.388 . S
C2988 C2987 1.366 . S
C2988 C2992 1.385 . S
C2989 H2964 0.951 . S
C2989 C2987 1.388 . S
C2989 C2990 1.366 . S
C2990 C2989 1.366 . S
C2990 C2991 1.414 . S
C2990 C2993 1.499 . S
C2991 H2965 0.950 . S
C2991 C2990 1.414 . S
C2991 C2992 1.374 . S
C2992 H2966 0.950 . S
C2992 C2988 1.385 . S
C2992 C2991 1.374 . S
C2993 C2990 1.499 . S
C2993 C2994 1.373 . S
C2993 C2995 1.389 . S
C2994 H2967 0.950 . S
C2994 C2980 1.377 . S
C2994 C2993 1.373 . S
C2995 C2979 1.377 . S
C2995 C2993 1.389 . S
C2995 C2996 1.524 . S
C2996 C2995 1.524 . S
C2996 C2997 1.397 . S
C2996 C3001 1.363 . S
C2997 H2968 0.950 . S
C2997 C2996 1.397 . S
C2997 C2998 1.334 . S
C2998 H2969 0.950 . S
C2998 C2997 1.334 . S
C2998 C2999 1.287 . S
C2999 C2998 1.287 . S
C2999 C3000 1.524 . S
C2999 H3002 0.999 . S
C3000 H2970 0.950 . S
C3000 C2999 1.524 . S
C3000 C3001 1.415 . S
C3001 H2971 0.950 . S
C3001 C2996 1.363 . S
C3001 C3000 1.415 . S
H3002 C2999 0.999 . S
H3003 C2984 0.913 . S
H3004 C3022 0.951 . S
H3005 C3024 0.951 . S
H3006 C3026 0.950 . S
H3007 C3027 0.950 . S
H3008 C3029 0.950 . S
H3009 C3032 0.950 . S
H3010 C3033 0.950 . S
H3011 C3035 0.950 . S
H3012 C3036 0.950 . S
H3013 C3037 0.951 . S
H3014 C3039 0.951 . S
H3015 C3041 0.950 . S
H3016 C3042 0.950 . S
H3017 C3044 0.950 . S
H3018 C3047 0.950 . S
H3019 C3048 0.950 . S
H3020 C3050 0.950 . S
H3021 C3051 0.950 . S
C3022 H3004 0.951 . S
C3022 C3023 1.366 . S
C3022 C3024 1.388 . S
C3023 C3022 1.366 . S
C3023 C3027 1.385 . S
C3024 H3005 0.951 . S
C3024 C3022 1.388 . S
C3024 C3025 1.366 . S
C3025 C3024 1.366 . S
C3025 C3026 1.414 . S
C3025 C3028 1.499 . S
C3026 H3006 0.950 . S
C3026 C3025 1.414 . S
C3026 C3027 1.374 . S
C3027 H3007 0.950 . S
C3027 C3023 1.385 . S
C3027 C3026 1.374 . S
C3028 C3025 1.499 . S
C3028 C3029 1.373 . S
C3028 C3030 1.389 . S
C3029 H3008 0.950 . S
C3029 C3028 1.373 . S
C3029 C3045 1.377 . S
C3030 C3028 1.389 . S
C3030 C3031 1.524 . S
C3030 C3044 1.377 . S
C3031 C3030 1.524 . S
C3031 C3032 1.397 . S
C3031 C3036 1.363 . S
C3032 H3009 0.950 . S
C3032 C3031 1.397 . S
C3032 C3033 1.334 . S
C3033 H3010 0.950 . S
C3033 C3032 1.334 . S
C3033 C3034 1.287 . S
C3034 C3033 1.287 . S
C3034 C3035 1.524 . S
C3034 H3053 0.913 . S
C3035 H3011 0.950 . S
C3035 C3034 1.524 . S
C3035 C3036 1.415 . S
C3036 H3012 0.950 . S
C3036 C3031 1.363 . S
C3036 C3035 1.415 . S
C3037 H3013 0.951 . S
C3037 C3038 1.366 . S
C3037 C3039 1.388 . S
C3038 C3037 1.366 . S
C3038 C3042 1.385 . S
C3039 H3014 0.951 . S
C3039 C3037 1.388 . S
C3039 C3040 1.366 . S
C3040 C3039 1.366 . S
C3040 C3041 1.414 . S
C3040 C3043 1.499 . S
C3041 H3015 0.950 . S
C3041 C3040 1.414 . S
C3041 C3042 1.374 . S
C3042 H3016 0.950 . S
C3042 C3038 1.385 . S
C3042 C3041 1.374 . S
C3043 C3040 1.499 . S
C3043 C3044 1.373 . S
C3043 C3045 1.389 . S
C3044 H3017 0.950 . S
C3044 C3030 1.377 . S
C3044 C3043 1.373 . S
C3045 C3029 1.377 . S
C3045 C3043 1.389 . S
C3045 C3046 1.524 . S
C3046 C3045 1.524 . S
C3046 C3047 1.397 . S
C3046 C3051 1.363 . S
C3047 H3018 0.950 . S
C3047 C3046 1.397 . S
C3047 C3048 1.334 . S
C3048 H3019 0.950 . S
C3048 C3047 1.334 . S
C3048 C3049 1.287 . S
C3049 C3048 1.287 . S
C3049 C3050 1.524 . S
C3049 H3052 0.999 . S
C3050 H3020 0.950 . S
C3050 C3049 1.524 . S
C3050 C3051 1.415 . S
C3051 H3021 0.950 . S
C3051 C3046 1.363 . S
C3051 C3050 1.415 . S
H3052 C3049 0.999 . S
H3053 C3034 0.913 . S
H3054 C3072 0.951 . S
H3055 C3074 0.951 . S
H3056 C3076 0.950 . S
H3057 C3077 0.950 . S
H3058 C3079 0.950 . S
H3059 C3082 0.950 . S
H3060 C3083 0.950 . S
H3061 C3085 0.950 . S
H3062 C3086 0.950 . S
H3063 C3087 0.951 . S
H3064 C3089 0.951 . S
H3065 C3091 0.950 . S
H3066 C3092 0.950 . S
H3067 C3094 0.950 . S
H3068 C3097 0.950 . S
H3069 C3098 0.950 . S
H3070 C3100 0.950 . S
H3071 C3101 0.950 . S
C3072 H3054 0.951 . S
C3072 C3073 1.366 . S
C3072 C3074 1.388 . S
C3073 C3072 1.366 . S
C3073 C3077 1.385 . S
C3074 H3055 0.951 . S
C3074 C3072 1.388 . S
C3074 C3075 1.366 . S
C3075 C3074 1.366 . S
C3075 C3076 1.414 . S
C3075 C3078 1.499 . S
C3076 H3056 0.950 . S
C3076 C3075 1.414 . S
C3076 C3077 1.374 . S
C3077 H3057 0.950 . S
C3077 C3073 1.385 . S
C3077 C3076 1.374 . S
C3078 C3075 1.499 . S
C3078 C3079 1.373 . S
C3078 C3080 1.389 . S
C3079 H3058 0.950 . S
C3079 C3078 1.373 . S
C3079 C3095 1.377 . S
C3080 C3078 1.389 . S
C3080 C3081 1.524 . S
C3080 C3094 1.377 . S
C3081 C3080 1.524 . S
C3081 C3082 1.397 . S
C3081 C3086 1.363 . S
C3082 H3059 0.950 . S
C3082 C3081 1.397 . S
C3082 C3083 1.334 . S
C3083 H3060 0.950 . S
C3083 C3082 1.334 . S
C3083 C3084 1.287 . S
C3084 C3083 1.287 . S
C3084 C3085 1.524 . S
C3084 H3103 0.913 . S
C3085 H3061 0.950 . S
C3085 C3084 1.524 . S
C3085 C3086 1.415 . S
C3086 H3062 0.950 . S
C3086 C3081 1.363 . S
C3086 C3085 1.415 . S
C3087 H3063 0.951 . S
C3087 C3088 1.366 . S
C3087 C3089 1.388 . S
C3088 C3087 1.366 . S
C3088 C3092 1.385 . S
C3089 H3064 0.951 . S
C3089 C3087 1.388 . S
C3089 C3090 1.366 . S
C3090 C3089 1.366 . S
C3090 C3091 1.414 . S
C3090 C3093 1.499 . S
C3091 H3065 0.950 . S
C3091 C3090 1.414 . S
C3091 C3092 1.374 . S
C3092 H3066 0.950 . S
C3092 C3088 1.385 . S
C3092 C3091 1.374 . S
C3093 C3090 1.499 . S
C3093 C3094 1.373 . S
C3093 C3095 1.389 . S
C3094 H3067 0.950 . S
C3094 C3080 1.377 . S
C3094 C3093 1.373 . S
C3095 C3079 1.377 . S
C3095 C3093 1.389 . S
C3095 C3096 1.524 . S
C3096 C3095 1.524 . S
C3096 C3097 1.397 . S
C3096 C3101 1.363 . S
C3097 H3068 0.950 . S
C3097 C3096 1.397 . S
C3097 C3098 1.334 . S
C3098 H3069 0.950 . S
C3098 C3097 1.334 . S
C3098 C3099 1.287 . S
C3099 C3098 1.287 . S
C3099 C3100 1.524 . S
C3099 H3102 0.999 . S
C3100 H3070 0.950 . S
C3100 C3099 1.524 . S
C3100 C3101 1.415 . S
C3101 H3071 0.950 . S
C3101 C3096 1.363 . S
C3101 C3100 1.415 . S
H3102 C3099 0.999 . S
H3103 C3084 0.913 . S
H3104 C3122 0.951 . S
H3105 C3124 0.951 . S
H3106 C3126 0.950 . S
H3107 C3127 0.950 . S
H3108 C3129 0.950 . S
H3109 C3132 0.950 . S
H3110 C3133 0.950 . S
H3111 C3135 0.950 . S
H3112 C3136 0.950 . S
H3113 C3137 0.951 . S
H3114 C3139 0.951 . S
H3115 C3141 0.950 . S
H3116 C3142 0.950 . S
H3117 C3144 0.950 . S
H3118 C3147 0.950 . S
H3119 C3148 0.950 . S
H3120 C3150 0.950 . S
H3121 C3151 0.950 . S
C3122 H3104 0.951 . S
C3122 C3123 1.366 . S
C3122 C3124 1.388 . S
C3123 C3122 1.366 . S
C3123 C3127 1.385 . S
C3124 H3105 0.951 . S
C3124 C3122 1.388 . S
C3124 C3125 1.366 . S
C3125 C3124 1.366 . S
C3125 C3126 1.414 . S
C3125 C3128 1.499 . S
C3126 H3106 0.950 . S
C3126 C3125 1.414 . S
C3126 C3127 1.374 . S
C3127 H3107 0.950 . S
C3127 C3123 1.385 . S
C3127 C3126 1.374 . S
C3128 C3125 1.499 . S
C3128 C3129 1.373 . S
C3128 C3130 1.389 . S
C3129 H3108 0.950 . S
C3129 C3128 1.373 . S
C3129 C3145 1.377 . S
C3130 C3128 1.389 . S
C3130 C3131 1.524 . S
C3130 C3144 1.377 . S
C3131 C3130 1.524 . S
C3131 C3132 1.397 . S
C3131 C3136 1.363 . S
C3132 H3109 0.950 . S
C3132 C3131 1.397 . S
C3132 C3133 1.334 . S
C3133 H3110 0.950 . S
C3133 C3132 1.334 . S
C3133 C3134 1.287 . S
C3134 C3133 1.287 . S
C3134 C3135 1.524 . S
C3134 H3153 0.913 . S
C3135 H3111 0.950 . S
C3135 C3134 1.524 . S
C3135 C3136 1.415 . S
C3136 H3112 0.950 . S
C3136 C3131 1.363 . S
C3136 C3135 1.415 . S
C3137 H3113 0.951 . S
C3137 C3138 1.366 . S
C3137 C3139 1.388 . S
C3138 C3137 1.366 . S
C3138 C3142 1.385 . S
C3139 H3114 0.951 . S
C3139 C3137 1.388 . S
C3139 C3140 1.366 . S
C3140 C3139 1.366 . S
C3140 C3141 1.414 . S
C3140 C3143 1.499 . S
C3141 H3115 0.950 . S
C3141 C3140 1.414 . S
C3141 C3142 1.374 . S
C3142 H3116 0.950 . S
C3142 C3138 1.385 . S
C3142 C3141 1.374 . S
C3143 C3140 1.499 . S
C3143 C3144 1.373 . S
C3143 C3145 1.389 . S
C3144 H3117 0.950 . S
C3144 C3130 1.377 . S
C3144 C3143 1.373 . S
C3145 C3129 1.377 . S
C3145 C3143 1.389 . S
C3145 C3146 1.524 . S
C3146 C3145 1.524 . S
C3146 C3147 1.397 . S
C3146 C3151 1.363 . S
C3147 H3118 0.950 . S
C3147 C3146 1.397 . S
C3147 C3148 1.334 . S
C3148 H3119 0.950 . S
C3148 C3147 1.334 . S
C3148 C3149 1.287 . S
C3149 C3148 1.287 . S
C3149 C3150 1.524 . S
C3149 H3152 0.999 . S
C3150 H3120 0.950 . S
C3150 C3149 1.524 . S
C3150 C3151 1.415 . S
C3151 H3121 0.950 . S
C3151 C3146 1.363 . S
C3151 C3150 1.415 . S
H3152 C3149 0.999 . S
H3153 C3134 0.913 . S
H3154 C3172 0.951 . S
H3155 C3174 0.951 . S
H3156 C3176 0.950 . S
H3157 C3177 0.950 . S
H3158 C3179 0.950 . S
H3159 C3182 0.950 . S
H3160 C3183 0.950 . S
H3161 C3185 0.950 . S
H3162 C3186 0.950 . S
H3163 C3187 0.951 . S
H3164 C3189 0.951 . S
H3165 C3191 0.950 . S
H3166 C3192 0.950 . S
H3167 C3194 0.950 . S
H3168 C3197 0.950 . S
H3169 C3198 0.950 . S
H3170 C3200 0.950 . S
H3171 C3201 0.950 . S
C3172 H3154 0.951 . S
C3172 C3173 1.366 . S
C3172 C3174 1.388 . S
C3173 C3172 1.366 . S
C3173 C3177 1.385 . S
C3174 H3155 0.951 . S
C3174 C3172 1.388 . S
C3174 C3175 1.366 . S
C3175 C3174 1.366 . S
C3175 C3176 1.414 . S
C3175 C3178 1.499 . S
C3176 H3156 0.950 . S
C3176 C3175 1.414 . S
C3176 C3177 1.374 . S
C3177 H3157 0.950 . S
C3177 C3173 1.385 . S
C3177 C3176 1.374 . S
C3178 C3175 1.499 . S
C3178 C3179 1.373 . S
C3178 C3180 1.389 . S
C3179 H3158 0.950 . S
C3179 C3178 1.373 . S
C3179 C3195 1.377 . S
C3180 C3178 1.389 . S
C3180 C3181 1.524 . S
C3180 C3194 1.377 . S
C3181 C3180 1.524 . S
C3181 C3182 1.397 . S
C3181 C3186 1.363 . S
C3182 H3159 0.950 . S
C3182 C3181 1.397 . S
C3182 C3183 1.334 . S
C3183 H3160 0.950 . S
C3183 C3182 1.334 . S
C3183 C3184 1.287 . S
C3184 C3183 1.287 . S
C3184 C3185 1.524 . S
C3184 H3203 0.913 . S
C3185 H3161 0.950 . S
C3185 C3184 1.524 . S
C3185 C3186 1.415 . S
C3186 H3162 0.950 . S
C3186 C3181 1.363 . S
C3186 C3185 1.415 . S
C3187 H3163 0.951 . S
C3187 C3188 1.366 . S
C3187 C3189 1.388 . S
C3188 C3187 1.366 . S
C3188 C3192 1.385 . S
C3189 H3164 0.951 . S
C3189 C3187 1.388 . S
C3189 C3190 1.366 . S
C3190 C3189 1.366 . S
C3190 C3191 1.414 . S
C3190 C3193 1.499 . S
C3191 H3165 0.950 . S
C3191 C3190 1.414 . S
C3191 C3192 1.374 . S
C3192 H3166 0.950 . S
C3192 C3188 1.385 . S
C3192 C3191 1.374 . S
C3193 C3190 1.499 . S
C3193 C3194 1.373 . S
C3193 C3195 1.389 . S
C3194 H3167 0.950 . S
C3194 C3180 1.377 . S
C3194 C3193 1.373 . S
C3195 C3179 1.377 . S
C3195 C3193 1.389 . S
C3195 C3196 1.524 . S
C3196 C3195 1.524 . S
C3196 C3197 1.397 . S
C3196 C3201 1.363 . S
C3197 H3168 0.950 . S
C3197 C3196 1.397 . S
C3197 C3198 1.334 . S
C3198 H3169 0.950 . S
C3198 C3197 1.334 . S
C3198 C3199 1.287 . S
C3199 C3198 1.287 . S
C3199 C3200 1.524 . S
C3199 H3202 0.999 . S
C3200 H3170 0.950 . S
C3200 C3199 1.524 . S
C3200 C3201 1.415 . S
C3201 H3171 0.950 . S
C3201 C3196 1.363 . S
C3201 C3200 1.415 . S
H3202 C3199 0.999 . S
H3203 C3184 0.913 . S
H3204 C3222 0.951 1_655 S
H3205 C3224 0.954 . S
H3206 C3226 0.950 . S
H3207 C3227 0.950 . S
H3208 C3229 0.950 . S
H3209 C3232 0.950 . S
H3210 C3233 0.950 . S
H3211 C3235 0.950 . S
H3212 C3236 0.950 . S
H3213 C3237 0.951 . S
H3214 C3239 0.951 . S
H3215 C3241 0.950 . S
H3216 C3242 0.950 . S
H3217 C3244 0.950 . S
H3218 C3247 0.950 . S
H3219 C3248 0.950 . S
H3220 C3250 0.950 . S
H3221 C3251 0.950 . S
C3222 H3204 0.951 1_455 S
C3222 C3223 1.366 . S
C3222 C3224 1.388 . S
C3223 C3222 1.366 . S
C3223 C3227 1.385 . S
C3224 H3205 0.954 . S
C3224 C3222 1.388 . S
C3224 C3225 1.366 . S
C3225 C3224 1.366 . S
C3225 C3226 1.414 . S
C3225 C3228 1.499 . S
C3226 H3206 0.950 . S
C3226 C3225 1.414 . S
C3226 C3227 1.374 . S
C3227 H3207 0.950 . S
C3227 C3223 1.385 . S
C3227 C3226 1.374 . S
C3228 C3225 1.499 . S
C3228 C3229 1.373 . S
C3228 C3230 1.389 . S
C3229 H3208 0.950 . S
C3229 C3228 1.373 . S
C3229 C3245 1.377 . S
C3230 C3228 1.389 . S
C3230 C3231 1.524 . S
C3230 C3244 1.377 . S
C3231 C3230 1.524 . S
C3231 C3232 1.397 . S
C3231 C3236 1.363 . S
C3232 H3209 0.950 . S
C3232 C3231 1.397 . S
C3232 C3233 1.334 . S
C3233 H3210 0.950 . S
C3233 C3232 1.334 . S
C3233 C3234 1.287 . S
C3234 C3233 1.287 . S
C3234 C3235 1.524 . S
C3234 H3253 0.913 . S
C3235 H3211 0.950 . S
C3235 C3234 1.524 . S
C3235 C3236 1.415 . S
C3236 H3212 0.950 . S
C3236 C3231 1.363 . S
C3236 C3235 1.415 . S
C3237 H3213 0.951 . S
C3237 C3238 1.366 . S
C3237 C3239 1.388 . S
C3238 C3237 1.366 . S
C3238 C3242 1.385 . S
C3239 H3214 0.951 . S
C3239 C3237 1.388 . S
C3239 C3240 1.366 . S
C3240 C3239 1.366 . S
C3240 C3241 1.414 . S
C3240 C3243 1.499 . S
C3241 H3215 0.950 . S
C3241 C3240 1.414 . S
C3241 C3242 1.374 . S
C3242 H3216 0.950 . S
C3242 C3238 1.385 . S
C3242 C3241 1.374 . S
C3243 C3240 1.499 . S
C3243 C3244 1.373 . S
C3243 C3245 1.389 . S
C3244 H3217 0.950 . S
C3244 C3230 1.377 . S
C3244 C3243 1.373 . S
C3245 C3229 1.377 . S
C3245 C3243 1.389 . S
C3245 C3246 1.524 . S
C3246 C3245 1.524 . S
C3246 C3247 1.397 1_455 S
C3246 C3251 1.363 . S
C3247 H3218 0.950 . S
C3247 C3246 1.397 1_655 S
C3247 C3248 1.334 . S
C3248 H3219 0.950 . S
C3248 C3247 1.334 . S
C3248 C3249 1.287 . S
C3249 C3248 1.287 . S
C3249 C3250 1.524 1_655 S
C3249 H3252 0.999 . S
C3250 H3220 0.950 . S
C3250 C3249 1.524 1_455 S
C3250 C3251 1.415 . S
C3251 H3221 0.950 . S
C3251 C3246 1.363 . S
C3251 C3250 1.415 . S
H3252 C3249 0.999 . S
H3253 C3234 0.913 . S
H3254 C3272 0.951 . S
H3255 C3274 0.951 . S
H3256 C3276 0.950 . S
H3257 C3277 0.950 . S
H3258 C3279 0.950 . S
H3259 C3282 0.950 . S
H3260 C3283 0.950 . S
H3261 C3285 0.950 . S
H3262 C3286 0.950 . S
H3263 C3287 0.951 . S
H3264 C3289 0.951 . S
H3265 C3291 0.950 . S
H3266 C3292 0.950 . S
H3267 C3294 0.950 . S
H3268 C3297 0.950 . S
H3269 C3298 0.950 . S
H3270 C3300 0.950 . S
H3271 C3301 0.950 . S
C3272 H3254 0.951 . S
C3272 C3273 1.366 . S
C3272 C3274 1.388 . S
C3273 C3272 1.366 . S
C3273 C3277 1.385 . S
C3274 H3255 0.951 . S
C3274 C3272 1.388 . S
C3274 C3275 1.366 . S
C3275 C3274 1.366 . S
C3275 C3276 1.414 . S
C3275 C3278 1.499 . S
C3276 H3256 0.950 . S
C3276 C3275 1.414 . S
C3276 C3277 1.374 . S
C3277 H3257 0.950 . S
C3277 C3273 1.385 . S
C3277 C3276 1.374 . S
C3278 C3275 1.499 . S
C3278 C3279 1.373 . S
C3278 C3280 1.389 . S
C3279 H3258 0.950 . S
C3279 C3278 1.373 . S
C3279 C3295 1.377 . S
C3280 C3278 1.389 . S
C3280 C3281 1.524 . S
C3280 C3294 1.377 . S
C3281 C3280 1.524 . S
C3281 C3282 1.397 . S
C3281 C3286 1.363 . S
C3282 H3259 0.950 . S
C3282 C3281 1.397 . S
C3282 C3283 1.334 . S
C3283 H3260 0.950 . S
C3283 C3282 1.334 . S
C3283 C3284 1.287 . S
C3284 C3283 1.287 . S
C3284 C3285 1.524 . S
C3284 H3303 0.913 . S
C3285 H3261 0.950 . S
C3285 C3284 1.524 . S
C3285 C3286 1.415 . S
C3286 H3262 0.950 . S
C3286 C3281 1.363 . S
C3286 C3285 1.415 . S
C3287 H3263 0.951 . S
C3287 C3288 1.366 . S
C3287 C3289 1.388 . S
C3288 C3287 1.366 . S
C3288 C3292 1.385 . S
C3289 H3264 0.951 . S
C3289 C3287 1.388 . S
C3289 C3290 1.366 . S
C3290 C3289 1.366 . S
C3290 C3291 1.414 . S
C3290 C3293 1.499 . S
C3291 H3265 0.950 . S
C3291 C3290 1.414 . S
C3291 C3292 1.374 . S
C3292 H3266 0.950 . S
C3292 C3288 1.385 . S
C3292 C3291 1.374 . S
C3293 C3290 1.499 . S
C3293 C3294 1.373 . S
C3293 C3295 1.389 . S
C3294 H3267 0.950 . S
C3294 C3280 1.377 . S
C3294 C3293 1.373 . S
C3295 C3279 1.377 . S
C3295 C3293 1.389 . S
C3295 C3296 1.524 . S
C3296 C3295 1.524 . S
C3296 C3297 1.397 . S
C3296 C3301 1.363 . S
C3297 H3268 0.950 . S
C3297 C3296 1.397 . S
C3297 C3298 1.334 . S
C3298 H3269 0.950 . S
C3298 C3297 1.334 . S
C3298 C3299 1.287 . S
C3299 C3298 1.287 . S
C3299 C3300 1.524 . S
C3299 H3302 0.999 . S
C3300 H3270 0.950 . S
C3300 C3299 1.524 . S
C3300 C3301 1.415 . S
C3301 H3271 0.950 . S
C3301 C3296 1.363 . S
C3301 C3300 1.415 . S
H3302 C3299 0.999 . S
H3303 C3284 0.913 . S
H3304 C3322 0.951 . S
H3305 C3324 0.951 . S
H3306 C3326 0.950 . S
H3307 C3327 0.950 . S
H3308 C3329 0.950 . S
H3309 C3332 0.950 . S
H3310 C3333 0.950 . S
H3311 C3335 0.950 . S
H3312 C3336 0.963 . S
H3313 C3337 0.951 . S
H3314 C3339 0.951 . S
H3315 C3341 0.950 1_554 S
H3316 C3342 0.950 . S
H3317 C3344 0.950 . S
H3318 C3347 0.950 . S
H3319 C3348 0.950 . S
H3320 C3350 0.950 . S
H3321 C3351 0.950 . S
C3322 H3304 0.951 . S
C3322 C3323 1.366 . S
C3322 C3324 1.388 . S
C3323 C3322 1.366 . S
C3323 C3327 1.385 . S
C3324 H3305 0.951 . S
C3324 C3322 1.388 . S
C3324 C3325 1.366 . S
C3325 C3324 1.366 . S
C3325 C3326 1.414 . S
C3325 C3328 1.499 . S
C3326 H3306 0.950 . S
C3326 C3325 1.414 . S
C3326 C3327 1.374 . S
C3327 H3307 0.950 . S
C3327 C3323 1.385 . S
C3327 C3326 1.374 . S
C3328 C3325 1.499 . S
C3328 C3329 1.373 . S
C3328 C3330 1.389 . S
C3329 H3308 0.950 . S
C3329 C3328 1.373 . S
C3329 C3345 1.377 . S
C3330 C3328 1.389 . S
C3330 C3331 1.524 . S
C3330 C3344 1.377 . S
C3331 C3330 1.524 . S
C3331 C3332 1.397 . S
C3331 C3336 1.363 . S
C3332 H3309 0.950 . S
C3332 C3331 1.397 . S
C3332 C3333 1.334 . S
C3333 H3310 0.950 . S
C3333 C3332 1.334 . S
C3333 C3334 1.287 . S
C3334 C3333 1.287 . S
C3334 C3335 1.524 1_556 S
C3334 H3353 0.927 . S
C3335 H3311 0.950 . S
C3335 C3334 1.524 1_554 S
C3335 C3336 1.415 1_554 S
C3336 H3312 0.963 . S
C3336 C3331 1.363 . S
C3336 C3335 1.415 1_556 S
C3337 H3313 0.951 . S
C3337 C3338 1.366 . S
C3337 C3339 1.388 . S
C3338 C3337 1.366 . S
C3338 C3342 1.385 1_556 S
C3339 H3314 0.951 . S
C3339 C3337 1.388 . S
C3339 C3340 1.366 . S
C3340 C3339 1.366 . S
C3340 C3341 1.414 . S
C3340 C3343 1.499 . S
C3341 H3315 0.950 1_556 S
C3341 C3340 1.414 . S
C3341 C3342 1.374 1_556 S
C3342 H3316 0.950 . S
C3342 C3338 1.385 1_554 S
C3342 C3341 1.374 1_554 S
C3343 C3340 1.499 . S
C3343 C3344 1.373 . S
C3343 C3345 1.389 . S
C3344 H3317 0.950 . S
C3344 C3330 1.377 . S
C3344 C3343 1.373 . S
C3345 C3329 1.377 . S
C3345 C3343 1.389 . S
C3345 C3346 1.524 . S
C3346 C3345 1.524 . S
C3346 C3347 1.397 . S
C3346 C3351 1.363 . S
C3347 H3318 0.950 . S
C3347 C3346 1.397 . S
C3347 C3348 1.334 . S
C3348 H3319 0.950 . S
C3348 C3347 1.334 . S
C3348 C3349 1.287 . S
C3349 C3348 1.287 . S
C3349 C3350 1.524 . S
C3349 H3352 0.999 . S
C3350 H3320 0.950 . S
C3350 C3349 1.524 . S
C3350 C3351 1.415 . S
C3351 H3321 0.950 . S
C3351 C3346 1.363 . S
C3351 C3350 1.415 . S
H3352 C3349 0.999 . S
H3353 C3334 0.927 . S
H3354 C3372 0.951 . S
H3355 C3374 0.951 . S
H3356 C3376 0.950 . S
H3357 C3377 0.950 . S
H3358 C3379 0.950 . S
H3359 C3382 0.950 . S
H3360 C3383 0.950 . S
H3361 C3385 0.950 . S
H3362 C3386 0.950 . S
H3363 C3387 0.951 . S
H3364 C3389 0.951 . S
H3365 C3391 0.950 . S
H3366 C3392 0.950 . S
H3367 C3394 0.950 . S
H3368 C3397 0.950 . S
H3369 C3398 0.950 . S
H3370 C3400 0.950 . S
H3371 C3401 0.950 . S
C3372 H3354 0.951 . S
C3372 C3373 1.366 . S
C3372 C3374 1.388 . S
C3373 C3372 1.366 . S
C3373 C3377 1.385 . S
C3374 H3355 0.951 . S
C3374 C3372 1.388 . S
C3374 C3375 1.366 . S
C3375 C3374 1.366 . S
C3375 C3376 1.414 . S
C3375 C3378 1.499 . S
C3376 H3356 0.950 . S
C3376 C3375 1.414 . S
C3376 C3377 1.374 . S
C3377 H3357 0.950 . S
C3377 C3373 1.385 . S
C3377 C3376 1.374 . S
C3378 C3375 1.499 . S
C3378 C3379 1.373 . S
C3378 C3380 1.389 . S
C3379 H3358 0.950 . S
C3379 C3378 1.373 . S
C3379 C3395 1.377 . S
C3380 C3378 1.389 . S
C3380 C3381 1.524 . S
C3380 C3394 1.377 . S
C3381 C3380 1.524 . S
C3381 C3382 1.397 . S
C3381 C3386 1.363 . S
C3382 H3359 0.950 . S
C3382 C3381 1.397 . S
C3382 C3383 1.334 . S
C3383 H3360 0.950 . S
C3383 C3382 1.334 . S
C3383 C3384 1.287 . S
C3384 C3383 1.287 . S
C3384 C3385 1.524 . S
C3384 H3403 0.913 . S
C3385 H3361 0.950 . S
C3385 C3384 1.524 . S
C3385 C3386 1.415 . S
C3386 H3362 0.950 . S
C3386 C3381 1.363 . S
C3386 C3385 1.415 . S
C3387 H3363 0.951 . S
C3387 C3388 1.366 . S
C3387 C3389 1.388 . S
C3388 C3387 1.366 . S
C3388 C3392 1.385 . S
C3389 H3364 0.951 . S
C3389 C3387 1.388 . S
C3389 C3390 1.366 . S
C3390 C3389 1.366 . S
C3390 C3391 1.414 . S
C3390 C3393 1.499 . S
C3391 H3365 0.950 . S
C3391 C3390 1.414 . S
C3391 C3392 1.374 . S
C3392 H3366 0.950 . S
C3392 C3388 1.385 . S
C3392 C3391 1.374 . S
C3393 C3390 1.499 . S
C3393 C3394 1.373 . S
C3393 C3395 1.389 . S
C3394 H3367 0.950 . S
C3394 C3380 1.377 . S
C3394 C3393 1.373 . S
C3395 C3379 1.377 . S
C3395 C3393 1.389 . S
C3395 C3396 1.524 . S
C3396 C3395 1.524 . S
C3396 C3397 1.397 . S
C3396 C3401 1.363 . S
C3397 H3368 0.950 . S
C3397 C3396 1.397 . S
C3397 C3398 1.334 . S
C3398 H3369 0.950 . S
C3398 C3397 1.334 . S
C3398 C3399 1.287 . S
C3399 C3398 1.287 . S
C3399 C3400 1.524 . S
C3399 H3402 0.999 . S
C3400 H3370 0.950 . S
C3400 C3399 1.524 . S
C3400 C3401 1.415 . S
C3401 H3371 0.950 . S
C3401 C3396 1.363 . S
C3401 C3400 1.415 . S
H3402 C3399 0.999 . S
H3403 C3384 0.913 . S
H3404 C3422 0.951 . S
H3405 C3424 0.951 . S
H3406 C3426 0.950 . S
H3407 C3427 0.950 . S
H3408 C3429 0.999 . S
H3409 C3432 0.950 . S
H3410 C3433 0.950 . S
H3411 C3435 0.950 . S
H3412 C3436 0.950 . S
H3413 C3437 0.951 . S
H3414 C3439 0.951 . S
H3415 C3441 0.950 . S
H3416 C3442 0.950 . S
H3417 C3444 0.950 . S
H3418 C3447 0.950 . S
H3419 C3448 0.950 . S
H3420 C3450 0.950 . S
H3421 C3451 0.950 . S
C3422 H3404 0.951 . S
C3422 C3423 1.366 . S
C3422 C3424 1.388 . S
C3423 C3422 1.366 . S
C3423 C3427 1.385 . S
C3424 H3405 0.951 . S
C3424 C3422 1.388 . S
C3424 C3425 1.366 . S
C3425 C3424 1.366 . S
C3425 C3426 1.414 . S
C3425 C3428 1.499 . S
C3426 H3406 0.950 . S
C3426 C3425 1.414 . S
C3426 C3427 1.374 . S
C3427 H3407 0.950 . S
C3427 C3423 1.385 . S
C3427 C3426 1.374 . S
C3428 C3425 1.499 . S
C3428 C3429 1.327 1_455 S
C3428 C3430 1.389 . S
C3429 H3408 0.999 . S
C3429 C3428 1.327 1_655 S
C3429 C3445 1.377 . S
C3430 C3428 1.389 . S
C3430 C3431 1.524 . S
C3430 C3444 1.377 . S
C3431 C3430 1.524 . S
C3431 C3432 1.397 . S
C3431 C3436 1.363 . S
C3432 H3409 0.950 . S
C3432 C3431 1.397 . S
C3432 C3433 1.334 . S
C3433 H3410 0.950 . S
C3433 C3432 1.334 . S
C3433 C3434 1.287 . S
C3434 C3433 1.287 . S
C3434 C3435 1.524 . S
C3434 H3453 0.913 . S
C3435 H3411 0.950 . S
C3435 C3434 1.524 . S
C3435 C3436 1.415 . S
C3436 H3412 0.950 . S
C3436 C3431 1.363 . S
C3436 C3435 1.415 . S
C3437 H3413 0.951 . S
C3437 C3438 1.366 . S
C3437 C3439 1.388 . S
C3438 C3437 1.366 . S
C3438 C3442 1.385 . S
C3439 H3414 0.951 . S
C3439 C3437 1.388 . S
C3439 C3440 1.366 . S
C3440 C3439 1.366 . S
C3440 C3441 1.414 . S
C3440 C3443 1.499 . S
C3441 H3415 0.950 . S
C3441 C3440 1.414 . S
C3441 C3442 1.374 . S
C3442 H3416 0.950 . S
C3442 C3438 1.385 . S
C3442 C3441 1.374 . S
C3443 C3440 1.499 . S
C3443 C3444 1.373 . S
C3443 C3445 1.389 1_455 S
C3444 H3417 0.950 . S
C3444 C3430 1.377 . S
C3444 C3443 1.373 . S
C3445 C3429 1.377 . S
C3445 C3443 1.389 1_655 S
C3445 C3446 1.524 . S
C3446 C3445 1.524 . S
C3446 C3447 1.397 . S
C3446 C3451 1.363 . S
C3447 H3418 0.950 . S
C3447 C3446 1.397 . S
C3447 C3448 1.334 . S
C3448 H3419 0.950 . S
C3448 C3447 1.334 . S
C3448 C3449 1.287 . S
C3449 C3448 1.287 . S
C3449 C3450 1.524 . S
C3449 H3452 0.999 . S
C3450 H3420 0.950 . S
C3450 C3449 1.524 . S
C3450 C3451 1.415 . S
C3451 H3421 0.950 . S
C3451 C3446 1.363 . S
C3451 C3450 1.415 . S
H3452 C3449 0.999 . S
H3453 C3434 0.913 . S
H3454 C3472 0.951 . S
H3455 C3474 0.951 . S
H3456 C3476 0.950 . S
H3457 C3477 0.950 . S
H3458 C3479 0.950 . S
H3459 C3482 0.950 . S
H3460 C3483 0.950 . S
H3461 C3485 0.950 . S
H3462 C3486 0.950 . S
H3463 C3487 0.951 . S
H3464 C3489 0.951 . S
H3465 C3491 0.950 . S
H3466 C3492 0.950 . S
H3467 C3494 0.950 . S
H3468 C3497 0.950 . S
H3469 C3498 0.950 . S
H3470 C3500 0.950 . S
H3471 C3501 0.950 . S
C3472 H3454 0.951 . S
C3472 C3473 1.366 . S
C3472 C3474 1.388 . S
C3473 C3472 1.366 . S
C3473 C3477 1.385 . S
C3474 H3455 0.951 . S
C3474 C3472 1.388 . S
C3474 C3475 1.366 . S
C3475 C3474 1.366 . S
C3475 C3476 1.414 . S
C3475 C3478 1.499 . S
C3476 H3456 0.950 . S
C3476 C3475 1.414 . S
C3476 C3477 1.374 . S
C3477 H3457 0.950 . S
C3477 C3473 1.385 . S
C3477 C3476 1.374 . S
C3478 C3475 1.499 . S
C3478 C3479 1.373 . S
C3478 C3480 1.389 . S
C3479 H3458 0.950 . S
C3479 C3478 1.373 . S
C3479 C3495 1.377 . S
C3480 C3478 1.389 . S
C3480 C3481 1.524 . S
C3480 C3494 1.377 . S
C3481 C3480 1.524 . S
C3481 C3482 1.397 . S
C3481 C3486 1.363 . S
C3482 H3459 0.950 . S
C3482 C3481 1.397 . S
C3482 C3483 1.334 . S
C3483 H3460 0.950 . S
C3483 C3482 1.334 . S
C3483 C3484 1.287 . S
C3484 C3483 1.287 . S
C3484 C3485 1.524 . S
C3484 H3503 0.913 . S
C3485 H3461 0.950 . S
C3485 C3484 1.524 . S
C3485 C3486 1.415 . S
C3486 H3462 0.950 . S
C3486 C3481 1.363 . S
C3486 C3485 1.415 . S
C3487 H3463 0.951 . S
C3487 C3488 1.366 . S
C3487 C3489 1.388 . S
C3488 C3487 1.366 . S
C3488 C3492 1.385 . S
C3489 H3464 0.951 . S
C3489 C3487 1.388 . S
C3489 C3490 1.366 . S
C3490 C3489 1.366 . S
C3490 C3491 1.414 . S
C3490 C3493 1.499 . S
C3491 H3465 0.950 . S
C3491 C3490 1.414 . S
C3491 C3492 1.374 . S
C3492 H3466 0.950 . S
C3492 C3488 1.385 . S
C3492 C3491 1.374 . S
C3493 C3490 1.499 . S
C3493 C3494 1.373 . S
C3493 C3495 1.389 . S
C3494 H3467 0.950 . S
C3494 C3480 1.377 . S
C3494 C3493 1.373 . S
C3495 C3479 1.377 . S
C3495 C3493 1.389 . S
C3495 C3496 1.524 . S
C3496 C3495 1.524 . S
C3496 C3497 1.397 . S
C3496 C3501 1.363 . S
C3497 H3468 0.950 . S
C3497 C3496 1.397 . S
C3497 C3498 1.334 . S
C3498 H3469 0.950 . S
C3498 C3497 1.334 . S
C3498 C3499 1.287 . S
C3499 C3498 1.287 . S
C3499 C3500 1.524 . S
C3499 H3502 0.999 . S
C3500 H3470 0.950 . S
C3500 C3499 1.524 . S
C3500 C3501 1.415 . S
C3501 H3471 0.950 . S
C3501 C3496 1.363 . S
C3501 C3500 1.415 . S
H3502 C3499 0.999 . S
H3503 C3484 0.913 . S
H3504 C3522 0.951 . S
H3505 C3524 0.951 . S
H3506 C3526 0.950 . S
H3507 C3527 0.950 . S
H3508 C3529 0.950 . S
H3509 C3532 0.950 . S
H3510 C3533 0.950 . S
H3511 C3535 0.950 . S
H3512 C3536 0.950 . S
H3513 C3537 0.951 . S
H3514 C3539 0.951 . S
H3515 C3541 0.950 . S
H3516 C3542 0.950 . S
H3517 C3544 0.950 . S
H3518 C3547 0.950 . S
H3519 C3548 0.950 . S
H3520 C3550 0.950 . S
H3521 C3551 0.950 . S
C3522 H3504 0.951 . S
C3522 C3523 1.366 . S
C3522 C3524 1.388 . S
C3523 C3522 1.366 . S
C3523 C3527 1.385 . S
C3524 H3505 0.951 . S
C3524 C3522 1.388 . S
C3524 C3525 1.366 . S
C3525 C3524 1.366 . S
C3525 C3526 1.414 . S
C3525 C3528 1.499 . S
C3526 H3506 0.950 . S
C3526 C3525 1.414 . S
C3526 C3527 1.374 . S
C3527 H3507 0.950 . S
C3527 C3523 1.385 . S
C3527 C3526 1.374 . S
C3528 C3525 1.499 . S
C3528 C3529 1.373 . S
C3528 C3530 1.389 . S
C3529 H3508 0.950 . S
C3529 C3528 1.373 . S
C3529 C3545 1.377 . S
C3530 C3528 1.389 . S
C3530 C3531 1.524 . S
C3530 C3544 1.377 . S
C3531 C3530 1.524 . S
C3531 C3532 1.397 . S
C3531 C3536 1.363 . S
C3532 H3509 0.950 . S
C3532 C3531 1.397 . S
C3532 C3533 1.334 . S
C3533 H3510 0.950 . S
C3533 C3532 1.334 . S
C3533 C3534 1.287 . S
C3534 C3533 1.287 . S
C3534 C3535 1.524 . S
C3534 H3553 0.913 . S
C3535 H3511 0.950 . S
C3535 C3534 1.524 . S
C3535 C3536 1.415 . S
C3536 H3512 0.950 . S
C3536 C3531 1.363 . S
C3536 C3535 1.415 . S
C3537 H3513 0.951 . S
C3537 C3538 1.366 . S
C3537 C3539 1.388 . S
C3538 C3537 1.366 . S
C3538 C3542 1.385 . S
C3539 H3514 0.951 . S
C3539 C3537 1.388 . S
C3539 C3540 1.366 . S
C3540 C3539 1.366 . S
C3540 C3541 1.414 . S
C3540 C3543 1.499 . S
C3541 H3515 0.950 . S
C3541 C3540 1.414 . S
C3541 C3542 1.374 . S
C3542 H3516 0.950 . S
C3542 C3538 1.385 . S
C3542 C3541 1.374 . S
C3543 C3540 1.499 . S
C3543 C3544 1.373 . S
C3543 C3545 1.389 . S
C3544 H3517 0.950 . S
C3544 C3530 1.377 . S
C3544 C3543 1.373 . S
C3545 C3529 1.377 . S
C3545 C3543 1.389 . S
C3545 C3546 1.524 . S
C3546 C3545 1.524 . S
C3546 C3547 1.397 . S
C3546 C3551 1.363 . S
C3547 H3518 0.950 . S
C3547 C3546 1.397 . S
C3547 C3548 1.334 . S
C3548 H3519 0.950 . S
C3548 C3547 1.334 . S
C3548 C3549 1.287 . S
C3549 C3548 1.287 . S
C3549 C3550 1.524 . S
C3549 H3552 0.999 . S
C3550 H3520 0.950 . S
C3550 C3549 1.524 . S
C3550 C3551 1.415 . S
C3551 H3521 0.950 . S
C3551 C3546 1.363 . S
C3551 C3550 1.415 . S
H3552 C3549 0.999 . S
H3553 C3534 0.913 . S
H3554 C3572 0.951 . S
H3555 C3574 0.951 . S
H3556 C3576 0.950 . S
H3557 C3577 0.950 . S
H3558 C3579 0.950 . S
H3559 C3582 0.950 . S
H3560 C3583 0.950 . S
H3561 C3585 0.950 . S
H3562 C3586 0.950 . S
H3563 C3587 0.951 . S
H3564 C3589 0.951 . S
H3565 C3591 0.950 . S
H3566 C3592 0.950 . S
H3567 C3594 0.950 . S
H3568 C3597 0.950 . S
H3569 C3598 0.950 . S
H3570 C3600 0.950 . S
H3571 C3601 0.950 . S
C3572 H3554 0.951 . S
C3572 C3573 1.366 . S
C3572 C3574 1.388 . S
C3573 C3572 1.366 . S
C3573 C3577 1.385 . S
C3574 H3555 0.951 . S
C3574 C3572 1.388 . S
C3574 C3575 1.366 . S
C3575 C3574 1.366 . S
C3575 C3576 1.414 . S
C3575 C3578 1.499 . S
C3576 H3556 0.950 . S
C3576 C3575 1.414 . S
C3576 C3577 1.374 . S
C3577 H3557 0.950 . S
C3577 C3573 1.385 . S
C3577 C3576 1.374 . S
C3578 C3575 1.499 . S
C3578 C3579 1.373 . S
C3578 C3580 1.389 . S
C3579 H3558 0.950 . S
C3579 C3578 1.373 . S
C3579 C3595 1.377 . S
C3580 C3578 1.389 . S
C3580 C3581 1.524 . S
C3580 C3594 1.377 . S
C3581 C3580 1.524 . S
C3581 C3582 1.397 . S
C3581 C3586 1.363 . S
C3582 H3559 0.950 . S
C3582 C3581 1.397 . S
C3582 C3583 1.334 . S
C3583 H3560 0.950 . S
C3583 C3582 1.334 . S
C3583 C3584 1.287 . S
C3584 C3583 1.287 . S
C3584 C3585 1.524 . S
C3584 H3603 0.913 . S
C3585 H3561 0.950 . S
C3585 C3584 1.524 . S
C3585 C3586 1.415 . S
C3586 H3562 0.950 . S
C3586 C3581 1.363 . S
C3586 C3585 1.415 . S
C3587 H3563 0.951 . S
C3587 C3588 1.366 . S
C3587 C3589 1.388 . S
C3588 C3587 1.366 . S
C3588 C3592 1.385 . S
C3589 H3564 0.951 . S
C3589 C3587 1.388 . S
C3589 C3590 1.366 . S
C3590 C3589 1.366 . S
C3590 C3591 1.414 . S
C3590 C3593 1.499 . S
C3591 H3565 0.950 . S
C3591 C3590 1.414 . S
C3591 C3592 1.374 . S
C3592 H3566 0.950 . S
C3592 C3588 1.385 . S
C3592 C3591 1.374 . S
C3593 C3590 1.499 . S
C3593 C3594 1.373 . S
C3593 C3595 1.389 . S
C3594 H3567 0.950 . S
C3594 C3580 1.377 . S
C3594 C3593 1.373 . S
C3595 C3579 1.377 . S
C3595 C3593 1.389 . S
C3595 C3596 1.524 . S
C3596 C3595 1.524 . S
C3596 C3597 1.397 . S
C3596 C3601 1.363 . S
C3597 H3568 0.950 . S
C3597 C3596 1.397 . S
C3597 C3598 1.334 . S
C3598 H3569 0.950 . S
C3598 C3597 1.334 . S
C3598 C3599 1.287 . S
C3599 C3598 1.287 . S
C3599 C3600 1.524 . S
C3599 H3602 0.999 . S
C3600 H3570 0.950 . S
C3600 C3599 1.524 . S
C3600 C3601 1.415 . S
C3601 H3571 0.950 . S
C3601 C3596 1.363 . S
C3601 C3600 1.415 . S
H3602 C3599 0.999 . S
H3603 C3584 0.913 . S
H3604 C3622 0.951 . S
H3605 C3624 0.951 . S
H3606 C3626 0.950 . S
H3607 C3627 0.950 . S
H3608 C3629 0.950 . S
H3609 C3632 0.950 . S
H3610 C3633 0.950 . S
H3611 C3635 0.950 . S
H3612 C3636 0.950 . S
H3613 C3637 0.951 . S
H3614 C3639 0.951 . S
H3615 C3641 0.950 . S
H3616 C3642 0.950 1_455 S
H3617 C3644 0.950 . S
H3618 C3647 0.950 . S
H3619 C3648 0.985 . S
H3620 C3650 0.950 . S
H3621 C3651 0.950 . S
C3622 H3604 0.951 . S
C3622 C3623 1.366 . S
C3622 C3624 1.388 . S
C3623 C3622 1.366 . S
C3623 C3627 1.385 . S
C3624 H3605 0.951 . S
C3624 C3622 1.388 . S
C3624 C3625 1.366 . S
C3625 C3624 1.366 . S
C3625 C3626 1.414 . S
C3625 C3628 1.499 . S
C3626 H3606 0.950 . S
C3626 C3625 1.414 . S
C3626 C3627 1.374 . S
C3627 H3607 0.950 . S
C3627 C3623 1.385 . S
C3627 C3626 1.374 . S
C3628 C3625 1.499 . S
C3628 C3629 1.373 . S
C3628 C3630 1.389 . S
C3629 H3608 0.950 . S
C3629 C3628 1.373 . S
C3629 C3645 1.377 . S
C3630 C3628 1.389 . S
C3630 C3631 1.524 . S
C3630 C3644 1.377 . S
C3631 C3630 1.524 . S
C3631 C3632 1.397 . S
C3631 C3636 1.363 . S
C3632 H3609 0.950 . S
C3632 C3631 1.397 . S
C3632 C3633 1.334 . S
C3633 H3610 0.950 . S
C3633 C3632 1.334 . S
C3633 C3634 1.287 . S
C3634 C3633 1.287 . S
C3634 C3635 1.524 . S
C3634 H3653 0.913 . S
C3635 H3611 0.950 . S
C3635 C3634 1.524 . S
C3635 C3636 1.415 . S
C3636 H3612 0.950 . S
C3636 C3631 1.363 . S
C3636 C3635 1.415 . S
C3637 H3613 0.951 . S
C3637 C3638 1.366 . S
C3637 C3639 1.388 . S
C3638 C3637 1.366 . S
C3638 C3642 1.385 . S
C3639 H3614 0.951 . S
C3639 C3637 1.388 . S
C3639 C3640 1.366 . S
C3640 C3639 1.366 . S
C3640 C3641 1.414 . S
C3640 C3643 1.499 . S
C3641 H3615 0.950 . S
C3641 C3640 1.414 . S
C3641 C3642 1.374 . S
C3642 H3616 0.950 1_655 S
C3642 C3638 1.385 . S
C3642 C3641 1.374 . S
C3643 C3640 1.499 . S
C3643 C3644 1.373 . S
C3643 C3645 1.389 . S
C3644 H3617 0.950 . S
C3644 C3630 1.377 . S
C3644 C3643 1.373 . S
C3645 C3629 1.377 . S
C3645 C3643 1.389 . S
C3645 C3646 1.524 . S
C3646 C3645 1.524 . S
C3646 C3647 1.397 . S
C3646 C3651 1.363 . S
C3647 H3618 0.950 . S
C3647 C3646 1.397 . S
C3647 C3648 1.315 1_655 S
C3648 H3619 0.985 . S
C3648 C3647 1.315 1_455 S
C3648 C3649 1.271 1_455 S
C3649 C3648 1.271 1_655 S
C3649 C3650 1.524 . S
C3649 H3652 0.999 . S
C3650 H3620 0.950 . S
C3650 C3649 1.524 . S
C3650 C3651 1.415 . S
C3651 H3621 0.950 . S
C3651 C3646 1.363 . S
C3651 C3650 1.415 . S
H3652 C3649 0.999 . S
H3653 C3634 0.913 . S
H3654 C3672 0.951 . S
H3655 C3674 0.951 . S
H3656 C3676 0.950 . S
H3657 C3677 0.950 . S
H3658 C3679 0.950 . S
H3659 C3682 0.950 . S
H3660 C3683 0.950 . S
H3661 C3685 0.950 . S
H3662 C3686 0.950 . S
H3663 C3687 0.951 . S
H3664 C3689 0.951 . S
H3665 C3691 0.950 . S
H3666 C3692 0.950 . S
H3667 C3694 0.950 . S
H3668 C3697 0.950 . S
H3669 C3698 0.950 . S
H3670 C3700 0.950 . S
H3671 C3701 0.950 . S
C3672 H3654 0.951 . S
C3672 C3673 1.366 . S
C3672 C3674 1.388 . S
C3673 C3672 1.366 . S
C3673 C3677 1.385 . S
C3674 H3655 0.951 . S
C3674 C3672 1.388 . S
C3674 C3675 1.366 . S
C3675 C3674 1.366 . S
C3675 C3676 1.414 . S
C3675 C3678 1.499 . S
C3676 H3656 0.950 . S
C3676 C3675 1.414 . S
C3676 C3677 1.374 . S
C3677 H3657 0.950 . S
C3677 C3673 1.385 . S
C3677 C3676 1.374 . S
C3678 C3675 1.499 . S
C3678 C3679 1.373 . S
C3678 C3680 1.389 . S
C3679 H3658 0.950 . S
C3679 C3678 1.373 . S
C3679 C3695 1.377 . S
C3680 C3678 1.389 . S
C3680 C3681 1.524 . S
C3680 C3694 1.377 . S
C3681 C3680 1.524 . S
C3681 C3682 1.397 . S
C3681 C3686 1.363 . S
C3682 H3659 0.950 . S
C3682 C3681 1.397 . S
C3682 C3683 1.334 . S
C3683 H3660 0.950 . S
C3683 C3682 1.334 . S
C3683 C3684 1.287 . S
C3684 C3683 1.287 . S
C3684 C3685 1.524 . S
C3684 H3703 0.913 . S
C3685 H3661 0.950 . S
C3685 C3684 1.524 . S
C3685 C3686 1.415 . S
C3686 H3662 0.950 . S
C3686 C3681 1.363 . S
C3686 C3685 1.415 . S
C3687 H3663 0.951 . S
C3687 C3688 1.366 . S
C3687 C3689 1.388 . S
C3688 C3687 1.366 . S
C3688 C3692 1.385 . S
C3689 H3664 0.951 . S
C3689 C3687 1.388 . S
C3689 C3690 1.366 . S
C3690 C3689 1.366 . S
C3690 C3691 1.414 . S
C3690 C3693 1.499 . S
C3691 H3665 0.950 . S
C3691 C3690 1.414 . S
C3691 C3692 1.374 . S
C3692 H3666 0.950 . S
C3692 C3688 1.385 . S
C3692 C3691 1.374 . S
C3693 C3690 1.499 . S
C3693 C3694 1.373 . S
C3693 C3695 1.389 . S
C3694 H3667 0.950 . S
C3694 C3680 1.377 . S
C3694 C3693 1.373 . S
C3695 C3679 1.377 . S
C3695 C3693 1.389 . S
C3695 C3696 1.524 . S
C3696 C3695 1.524 . S
C3696 C3697 1.397 . S
C3696 C3701 1.363 . S
C3697 H3668 0.950 . S
C3697 C3696 1.397 . S
C3697 C3698 1.334 . S
C3698 H3669 0.950 . S
C3698 C3697 1.334 . S
C3698 C3699 1.287 . S
C3699 C3698 1.287 . S
C3699 C3700 1.524 . S
C3699 H3702 0.999 . S
C3700 H3670 0.950 . S
C3700 C3699 1.524 . S
C3700 C3701 1.415 . S
C3701 H3671 0.950 . S
C3701 C3696 1.363 . S
C3701 C3700 1.415 . S
H3702 C3699 0.999 . S
H3703 C3684 0.913 . S
H3704 C3722 0.951 . S
H3705 C3724 0.951 . S
H3706 C3726 0.950 . S
H3707 C3727 0.950 . S
H3708 C3729 0.950 . S
H3709 C3732 0.950 . S
H3710 C3733 0.950 . S
H3711 C3735 0.950 . S
H3712 C3736 0.950 . S
H3713 C3737 0.951 . S
H3714 C3739 0.951 . S
H3715 C3741 0.950 . S
H3716 C3742 0.950 . S
H3717 C3744 0.950 . S
H3718 C3747 0.950 . S
H3719 C3748 0.950 . S
H3720 C3750 0.950 . S
H3721 C3751 0.950 . S
C3722 H3704 0.951 . S
C3722 C3723 1.366 . S
C3722 C3724 1.388 . S
C3723 C3722 1.366 . S
C3723 C3727 1.385 . S
C3724 H3705 0.951 . S
C3724 C3722 1.388 . S
C3724 C3725 1.366 . S
C3725 C3724 1.366 . S
C3725 C3726 1.414 . S
C3725 C3728 1.499 . S
C3726 H3706 0.950 . S
C3726 C3725 1.414 . S
C3726 C3727 1.374 . S
C3727 H3707 0.950 . S
C3727 C3723 1.385 . S
C3727 C3726 1.374 . S
C3728 C3725 1.499 . S
C3728 C3729 1.373 . S
C3728 C3730 1.389 . S
C3729 H3708 0.950 . S
C3729 C3728 1.373 . S
C3729 C3745 1.377 . S
C3730 C3728 1.389 . S
C3730 C3731 1.524 . S
C3730 C3744 1.377 . S
C3731 C3730 1.524 . S
C3731 C3732 1.397 . S
C3731 C3736 1.363 . S
C3732 H3709 0.950 . S
C3732 C3731 1.397 . S
C3732 C3733 1.334 . S
C3733 H3710 0.950 . S
C3733 C3732 1.334 . S
C3733 C3734 1.287 . S
C3734 C3733 1.287 . S
C3734 C3735 1.524 . S
C3734 H3753 0.913 . S
C3735 H3711 0.950 . S
C3735 C3734 1.524 . S
C3735 C3736 1.415 . S
C3736 H3712 0.950 . S
C3736 C3731 1.363 . S
C3736 C3735 1.415 . S
C3737 H3713 0.951 . S
C3737 C3738 1.366 . S
C3737 C3739 1.388 . S
C3738 C3737 1.366 . S
C3738 C3742 1.385 . S
C3739 H3714 0.951 . S
C3739 C3737 1.388 . S
C3739 C3740 1.366 . S
C3740 C3739 1.366 . S
C3740 C3741 1.414 . S
C3740 C3743 1.499 . S
C3741 H3715 0.950 . S
C3741 C3740 1.414 . S
C3741 C3742 1.374 . S
C3742 H3716 0.950 . S
C3742 C3738 1.385 . S
C3742 C3741 1.374 . S
C3743 C3740 1.499 . S
C3743 C3744 1.373 . S
C3743 C3745 1.389 . S
C3744 H3717 0.950 . S
C3744 C3730 1.377 . S
C3744 C3743 1.373 . S
C3745 C3729 1.377 . S
C3745 C3743 1.389 . S
C3745 C3746 1.524 . S
C3746 C3745 1.524 . S
C3746 C3747 1.397 . S
C3746 C3751 1.363 . S
C3747 H3718 0.950 . S
C3747 C3746 1.397 . S
C3747 C3748 1.334 . S
C3748 H3719 0.950 . S
C3748 C3747 1.334 . S
C3748 C3749 1.287 . S
C3749 C3748 1.287 . S
C3749 C3750 1.524 . S
C3749 H3752 0.999 . S
C3750 H3720 0.950 . S
C3750 C3749 1.524 . S
C3750 C3751 1.415 . S
C3751 H3721 0.950 . S
C3751 C3746 1.363 . S
C3751 C3750 1.415 . S
H3752 C3749 0.999 . S
H3753 C3734 0.913 . S
H3754 C3772 0.951 . S
H3755 C3774 0.951 . S
H3756 C3776 0.950 . S
H3757 C3777 0.950 . S
H3758 C3779 0.950 . S
H3759 C3782 0.950 . S
H3760 C3783 0.950 . S
H3761 C3785 0.950 . S
H3762 C3786 0.950 . S
H3763 C3787 0.951 . S
H3764 C3789 0.951 . S
H3765 C3791 0.950 . S
H3766 C3792 0.950 . S
H3767 C3794 0.950 . S
H3768 C3797 0.950 . S
H3769 C3798 0.950 . S
H3770 C3800 0.950 . S
H3771 C3801 0.950 . S
C3772 H3754 0.951 . S
C3772 C3773 1.366 . S
C3772 C3774 1.388 . S
C3773 C3772 1.366 . S
C3773 C3777 1.385 . S
C3774 H3755 0.951 . S
C3774 C3772 1.388 . S
C3774 C3775 1.366 . S
C3775 C3774 1.366 . S
C3775 C3776 1.414 . S
C3775 C3778 1.499 . S
C3776 H3756 0.950 . S
C3776 C3775 1.414 . S
C3776 C3777 1.374 . S
C3777 H3757 0.950 . S
C3777 C3773 1.385 . S
C3777 C3776 1.374 . S
C3778 C3775 1.499 . S
C3778 C3779 1.373 . S
C3778 C3780 1.389 . S
C3779 H3758 0.950 . S
C3779 C3778 1.373 . S
C3779 C3795 1.377 . S
C3780 C3778 1.389 . S
C3780 C3781 1.524 . S
C3780 C3794 1.377 . S
C3781 C3780 1.524 . S
C3781 C3782 1.397 . S
C3781 C3786 1.363 . S
C3782 H3759 0.950 . S
C3782 C3781 1.397 . S
C3782 C3783 1.334 . S
C3783 H3760 0.950 . S
C3783 C3782 1.334 . S
C3783 C3784 1.287 . S
C3784 C3783 1.287 . S
C3784 C3785 1.524 . S
C3784 H3803 0.913 . S
C3785 H3761 0.950 . S
C3785 C3784 1.524 . S
C3785 C3786 1.415 . S
C3786 H3762 0.950 . S
C3786 C3781 1.363 . S
C3786 C3785 1.415 . S
C3787 H3763 0.951 . S
C3787 C3788 1.366 . S
C3787 C3789 1.388 . S
C3788 C3787 1.366 . S
C3788 C3792 1.385 . S
C3789 H3764 0.951 . S
C3789 C3787 1.388 . S
C3789 C3790 1.366 . S
C3790 C3789 1.366 . S
C3790 C3791 1.414 . S
C3790 C3793 1.499 . S
C3791 H3765 0.950 . S
C3791 C3790 1.414 . S
C3791 C3792 1.374 . S
C3792 H3766 0.950 . S
C3792 C3788 1.385 . S
C3792 C3791 1.374 . S
C3793 C3790 1.499 . S
C3793 C3794 1.373 . S
C3793 C3795 1.389 . S
C3794 H3767 0.950 . S
C3794 C3780 1.377 . S
C3794 C3793 1.373 . S
C3795 C3779 1.377 . S
C3795 C3793 1.389 . S
C3795 C3796 1.524 . S
C3796 C3795 1.524 . S
C3796 C3797 1.397 . S
C3796 C3801 1.363 . S
C3797 H3768 0.950 . S
C3797 C3796 1.397 . S
C3797 C3798 1.334 . S
C3798 H3769 0.950 . S
C3798 C3797 1.334 . S
C3798 C3799 1.287 . S
C3799 C3798 1.287 . S
C3799 C3800 1.524 . S
C3799 H3802 0.999 . S
C3800 H3770 0.950 . S
C3800 C3799 1.524 . S
C3800 C3801 1.415 . S
C3801 H3771 0.950 . S
C3801 C3796 1.363 . S
C3801 C3800 1.415 . S
H3802 C3799 0.999 . S
H3803 C3784 0.913 . S
H3804 C3822 0.951 . S
H3805 C3824 0.951 . S
H3806 C3826 0.950 . S
H3807 C3827 0.950 . S
H3808 C3829 0.950 . S
H3809 C3832 0.950 . S
H3810 C3833 0.950 . S
H3811 C3835 0.950 . S
H3812 C3836 0.950 . S
H3813 C3837 0.951 . S
H3814 C3839 0.951 . S
H3815 C3841 0.950 . S
H3816 C3842 0.950 . S
H3817 C3844 0.950 . S
H3818 C3847 0.950 . S
H3819 C3848 0.950 . S
H3820 C3850 0.950 . S
H3821 C3851 0.950 . S
C3822 H3804 0.951 . S
C3822 C3823 1.366 . S
C3822 C3824 1.388 . S
C3823 C3822 1.366 . S
C3823 C3827 1.385 . S
C3824 H3805 0.951 . S
C3824 C3822 1.388 . S
C3824 C3825 1.366 . S
C3825 C3824 1.366 . S
C3825 C3826 1.414 . S
C3825 C3828 1.499 . S
C3826 H3806 0.950 . S
C3826 C3825 1.414 . S
C3826 C3827 1.374 . S
C3827 H3807 0.950 . S
C3827 C3823 1.385 . S
C3827 C3826 1.374 . S
C3828 C3825 1.499 . S
C3828 C3829 1.373 . S
C3828 C3830 1.389 . S
C3829 H3808 0.950 . S
C3829 C3828 1.373 . S
C3829 C3845 1.377 . S
C3830 C3828 1.389 . S
C3830 C3831 1.524 . S
C3830 C3844 1.377 . S
C3831 C3830 1.524 . S
C3831 C3832 1.397 . S
C3831 C3836 1.363 . S
C3832 H3809 0.950 . S
C3832 C3831 1.397 . S
C3832 C3833 1.334 . S
C3833 H3810 0.950 . S
C3833 C3832 1.334 . S
C3833 C3834 1.287 . S
C3834 C3833 1.287 . S
C3834 C3835 1.524 . S
C3834 H3853 0.913 . S
C3835 H3811 0.950 . S
C3835 C3834 1.524 . S
C3835 C3836 1.415 . S
C3836 H3812 0.950 . S
C3836 C3831 1.363 . S
C3836 C3835 1.415 . S
C3837 H3813 0.951 . S
C3837 C3838 1.366 . S
C3837 C3839 1.388 . S
C3838 C3837 1.366 . S
C3838 C3842 1.385 . S
C3839 H3814 0.951 . S
C3839 C3837 1.388 . S
C3839 C3840 1.366 . S
C3840 C3839 1.366 . S
C3840 C3841 1.414 . S
C3840 C3843 1.499 . S
C3841 H3815 0.950 . S
C3841 C3840 1.414 . S
C3841 C3842 1.374 . S
C3842 H3816 0.950 . S
C3842 C3838 1.385 . S
C3842 C3841 1.374 . S
C3843 C3840 1.499 . S
C3843 C3844 1.373 . S
C3843 C3845 1.389 . S
C3844 H3817 0.950 . S
C3844 C3830 1.377 . S
C3844 C3843 1.373 . S
C3845 C3829 1.377 . S
C3845 C3843 1.389 . S
C3845 C3846 1.524 . S
C3846 C3845 1.524 . S
C3846 C3847 1.397 . S
C3846 C3851 1.363 . S
C3847 H3818 0.950 . S
C3847 C3846 1.397 . S
C3847 C3848 1.334 1_655 S
C3848 H3819 0.950 . S
C3848 C3847 1.334 1_455 S
C3848 C3849 1.287 . S
C3849 C3848 1.287 . S
C3849 C3850 1.524 . S
C3849 H3852 0.999 . S
C3850 H3820 0.950 . S
C3850 C3849 1.524 . S
C3850 C3851 1.415 1_455 S
C3851 H3821 0.950 . S
C3851 C3846 1.363 . S
C3851 C3850 1.415 1_655 S
H3852 C3849 0.999 . S
H3853 C3834 0.913 . S
H3854 C3872 0.951 . S
H3855 C3874 0.951 . S
H3856 C3876 0.950 . S
H3857 C3877 0.950 . S
H3858 C3879 0.950 . S
H3859 C3882 0.950 . S
H3860 C3883 0.950 . S
H3861 C3885 0.950 . S
H3862 C3886 0.950 . S
H3863 C3887 0.951 . S
H3864 C3889 0.951 . S
H3865 C3891 0.950 . S
H3866 C3892 0.950 . S
H3867 C3894 0.950 . S
H3868 C3897 0.950 . S
H3869 C3898 0.950 . S
H3870 C3900 0.950 . S
H3871 C3901 0.950 . S
C3872 H3854 0.951 . S
C3872 C3873 1.366 . S
C3872 C3874 1.388 . S
C3873 C3872 1.366 . S
C3873 C3877 1.385 . S
C3874 H3855 0.951 . S
C3874 C3872 1.388 . S
C3874 C3875 1.366 . S
C3875 C3874 1.366 . S
C3875 C3876 1.414 . S
C3875 C3878 1.499 . S
C3876 H3856 0.950 . S
C3876 C3875 1.414 . S
C3876 C3877 1.374 . S
C3877 H3857 0.950 . S
C3877 C3873 1.385 . S
C3877 C3876 1.374 . S
C3878 C3875 1.499 . S
C3878 C3879 1.373 . S
C3878 C3880 1.389 . S
C3879 H3858 0.950 . S
C3879 C3878 1.373 . S
C3879 C3895 1.377 . S
C3880 C3878 1.389 . S
C3880 C3881 1.524 . S
C3880 C3894 1.377 . S
C3881 C3880 1.524 . S
C3881 C3882 1.397 . S
C3881 C3886 1.363 . S
C3882 H3859 0.950 . S
C3882 C3881 1.397 . S
C3882 C3883 1.334 . S
C3883 H3860 0.950 . S
C3883 C3882 1.334 . S
C3883 C3884 1.287 . S
C3884 C3883 1.287 . S
C3884 C3885 1.524 . S
C3884 H3903 0.913 . S
C3885 H3861 0.950 . S
C3885 C3884 1.524 . S
C3885 C3886 1.415 . S
C3886 H3862 0.950 . S
C3886 C3881 1.363 . S
C3886 C3885 1.415 . S
C3887 H3863 0.951 . S
C3887 C3888 1.366 . S
C3887 C3889 1.388 . S
C3888 C3887 1.366 . S
C3888 C3892 1.385 . S
C3889 H3864 0.951 . S
C3889 C3887 1.388 . S
C3889 C3890 1.366 . S
C3890 C3889 1.366 . S
C3890 C3891 1.414 . S
C3890 C3893 1.499 . S
C3891 H3865 0.950 . S
C3891 C3890 1.414 . S
C3891 C3892 1.374 . S
C3892 H3866 0.950 . S
C3892 C3888 1.385 . S
C3892 C3891 1.374 . S
C3893 C3890 1.499 . S
C3893 C3894 1.373 . S
C3893 C3895 1.389 . S
C3894 H3867 0.950 . S
C3894 C3880 1.377 . S
C3894 C3893 1.373 . S
C3895 C3879 1.377 . S
C3895 C3893 1.389 . S
C3895 C3896 1.524 . S
C3896 C3895 1.524 . S
C3896 C3897 1.397 . S
C3896 C3901 1.363 . S
C3897 H3868 0.950 . S
C3897 C3896 1.397 . S
C3897 C3898 1.334 . S
C3898 H3869 0.950 . S
C3898 C3897 1.334 . S
C3898 C3899 1.287 . S
C3899 C3898 1.287 . S
C3899 C3900 1.524 . S
C3899 H3902 0.999 . S
C3900 H3870 0.950 . S
C3900 C3899 1.524 . S
C3900 C3901 1.415 . S
C3901 H3871 0.950 . S
C3901 C3896 1.363 . S
C3901 C3900 1.415 . S
H3902 C3899 0.999 . S
H3903 C3884 0.913 . S
H3904 C3922 0.951 . S
H3905 C3924 0.951 . S
H3906 C3926 0.950 . S
H3907 C3927 0.950 . S
H3908 C3929 0.950 . S
H3909 C3932 0.950 . S
H3910 C3933 0.950 . S
H3911 C3935 0.950 . S
H3912 C3936 0.950 . S
H3913 C3937 0.951 . S
H3914 C3939 0.951 . S
H3915 C3941 0.950 . S
H3916 C3942 0.950 . S
H3917 C3944 0.950 . S
H3918 C3947 0.950 . S
H3919 C3948 0.950 . S
H3920 C3950 0.950 . S
H3921 C3951 0.950 . S
C3922 H3904 0.951 . S
C3922 C3923 1.366 . S
C3922 C3924 1.388 . S
C3923 C3922 1.366 . S
C3923 C3927 1.385 . S
C3924 H3905 0.951 . S
C3924 C3922 1.388 . S
C3924 C3925 1.366 . S
C3925 C3924 1.366 . S
C3925 C3926 1.414 . S
C3925 C3928 1.499 . S
C3926 H3906 0.950 . S
C3926 C3925 1.414 . S
C3926 C3927 1.374 . S
C3927 H3907 0.950 . S
C3927 C3923 1.385 . S
C3927 C3926 1.374 . S
C3928 C3925 1.499 . S
C3928 C3929 1.373 . S
C3928 C3930 1.389 . S
C3929 H3908 0.950 . S
C3929 C3928 1.373 . S
C3929 C3945 1.377 . S
C3930 C3928 1.389 . S
C3930 C3931 1.524 . S
C3930 C3944 1.377 . S
C3931 C3930 1.524 . S
C3931 C3932 1.397 . S
C3931 C3936 1.363 . S
C3932 H3909 0.950 . S
C3932 C3931 1.397 . S
C3932 C3933 1.334 . S
C3933 H3910 0.950 . S
C3933 C3932 1.334 . S
C3933 C3934 1.287 . S
C3934 C3933 1.287 . S
C3934 C3935 1.524 . S
C3934 H3953 0.913 . S
C3935 H3911 0.950 . S
C3935 C3934 1.524 . S
C3935 C3936 1.415 . S
C3936 H3912 0.950 . S
C3936 C3931 1.363 . S
C3936 C3935 1.415 . S
C3937 H3913 0.951 . S
C3937 C3938 1.366 . S
C3937 C3939 1.388 . S
C3938 C3937 1.366 . S
C3938 C3942 1.385 . S
C3939 H3914 0.951 . S
C3939 C3937 1.388 . S
C3939 C3940 1.366 . S
C3940 C3939 1.366 . S
C3940 C3941 1.414 . S
C3940 C3943 1.499 . S
C3941 H3915 0.950 . S
C3941 C3940 1.414 . S
C3941 C3942 1.374 . S
C3942 H3916 0.950 . S
C3942 C3938 1.385 . S
C3942 C3941 1.374 . S
C3943 C3940 1.499 . S
C3943 C3944 1.373 . S
C3943 C3945 1.389 . S
C3944 H3917 0.950 . S
C3944 C3930 1.377 . S
C3944 C3943 1.373 . S
C3945 C3929 1.377 . S
C3945 C3943 1.389 . S
C3945 C3946 1.524 . S
C3946 C3945 1.524 . S
C3946 C3947 1.397 . S
C3946 C3951 1.363 . S
C3947 H3918 0.950 . S
C3947 C3946 1.397 . S
C3947 C3948 1.334 . S
C3948 H3919 0.950 . S
C3948 C3947 1.334 . S
C3948 C3949 1.287 . S
C3949 C3948 1.287 . S
C3949 C3950 1.524 . S
C3949 H3952 0.999 . S
C3950 H3920 0.950 . S
C3950 C3949 1.524 . S
C3950 C3951 1.415 . S
C3951 H3921 0.950 . S
C3951 C3946 1.363 . S
C3951 C3950 1.415 . S
H3952 C3949 0.999 . S
H3953 C3934 0.913 . S
H3954 C3972 0.951 . S
H3955 C3974 0.951 . S
H3956 C3976 0.950 . S
H3957 C3977 0.950 . S
H3958 C3979 0.950 . S
H3959 C3982 0.950 . S
H3960 C3983 0.950 . S
H3961 C3985 0.950 . S
H3962 C3986 0.950 . S
H3963 C3987 0.951 . S
H3964 C3989 0.951 1_545 S
H3965 C3991 0.950 . S
H3966 C3992 0.950 . S
H3967 C3994 0.950 . S
H3968 C3997 0.950 . S
H3969 C3998 0.950 . S
H3970 C4000 0.950 . S
H3971 C4001 0.950 . S
C3972 H3954 0.951 . S
C3972 C3973 1.366 . S
C3972 C3974 1.388 . S
C3973 C3972 1.366 . S
C3973 C3977 1.385 . S
C3974 H3955 0.951 . S
C3974 C3972 1.388 . S
C3974 C3975 1.366 . S
C3975 C3974 1.366 . S
C3975 C3976 1.414 . S
C3975 C3978 1.499 . S
C3976 H3956 0.950 . S
C3976 C3975 1.414 . S
C3976 C3977 1.374 . S
C3977 H3957 0.950 . S
C3977 C3973 1.385 . S
C3977 C3976 1.374 . S
C3978 C3975 1.499 . S
C3978 C3979 1.373 . S
C3978 C3980 1.389 . S
C3979 H3958 0.950 . S
C3979 C3978 1.373 . S
C3979 C3995 1.377 . S
C3980 C3978 1.389 . S
C3980 C3981 1.524 . S
C3980 C3994 1.377 . S
C3981 C3980 1.524 . S
C3981 C3982 1.397 . S
C3981 C3986 1.363 . S
C3982 H3959 0.950 . S
C3982 C3981 1.397 . S
C3982 C3983 1.334 . S
C3983 H3960 0.950 . S
C3983 C3982 1.334 . S
C3983 C3984 1.287 . S
C3984 C3983 1.287 . S
C3984 C3985 1.524 . S
C3984 H4003 0.913 . S
C3985 H3961 0.950 . S
C3985 C3984 1.524 . S
C3985 C3986 1.415 . S
C3986 H3962 0.950 . S
C3986 C3981 1.363 . S
C3986 C3985 1.415 . S
C3987 H3963 0.951 . S
C3987 C3988 1.366 1_545 S
C3987 C3989 1.388 1_545 S
C3988 C3987 1.366 1_565 S
C3988 C3992 1.385 . S
C3989 H3964 0.951 1_565 S
C3989 C3987 1.388 1_565 S
C3989 C3990 1.366 . S
C3990 C3989 1.366 . S
C3990 C3991 1.414 . S
C3990 C3993 1.499 . S
C3991 H3965 0.950 . S
C3991 C3990 1.414 . S
C3991 C3992 1.374 . S
C3992 H3966 0.950 . S
C3992 C3988 1.385 . S
C3992 C3991 1.374 . S
C3993 C3990 1.499 . S
C3993 C3994 1.373 . S
C3993 C3995 1.389 . S
C3994 H3967 0.950 . S
C3994 C3980 1.377 . S
C3994 C3993 1.373 . S
C3995 C3979 1.377 . S
C3995 C3993 1.389 . S
C3995 C3996 1.524 . S
C3996 C3995 1.524 . S
C3996 C3997 1.397 . S
C3996 C4001 1.363 1_565 S
C3997 H3968 0.950 . S
C3997 C3996 1.397 . S
C3997 C3998 1.334 1_565 S
C3998 H3969 0.950 . S
C3998 C3997 1.334 1_545 S
C3998 C3999 1.287 . S
C3999 C3998 1.287 . S
C3999 C4000 1.524 . S
C3999 H4002 0.999 . S
C4000 H3970 0.950 . S
C4000 C3999 1.524 . S
C4000 C4001 1.415 . S
C4001 H3971 0.950 . S
C4001 C3996 1.363 1_545 S
C4001 C4000 1.415 . S
H4002 C3999 0.999 . S
H4003 C3984 0.913 . S
H4004 C4022 0.951 . S
H4005 C4024 0.951 . S
H4006 C4026 0.950 . S
H4007 C4027 0.950 . S
H4008 C4029 0.950 . S
H4009 C4032 0.950 . S
H4010 C4033 0.950 . S
H4011 C4035 0.950 . S
H4012 C4036 0.950 . S
H4013 C4037 0.951 . S
H4014 C4039 0.951 . S
H4015 C4041 0.950 . S
H4016 C4042 0.950 . S
H4017 C4044 0.950 . S
H4018 C4047 0.950 . S
H4019 C4048 0.950 . S
H4020 C4050 0.950 . S
H4021 C4051 0.950 . S
C4022 H4004 0.951 . S
C4022 C4023 1.366 . S
C4022 C4024 1.388 . S
C4023 C4022 1.366 . S
C4023 C4027 1.385 . S
C4024 H4005 0.951 . S
C4024 C4022 1.388 . S
C4024 C4025 1.366 . S
C4025 C4024 1.366 . S
C4025 C4026 1.414 . S
C4025 C4028 1.499 . S
C4026 H4006 0.950 . S
C4026 C4025 1.414 . S
C4026 C4027 1.374 . S
C4027 H4007 0.950 . S
C4027 C4023 1.385 . S
C4027 C4026 1.374 . S
C4028 C4025 1.499 . S
C4028 C4029 1.373 . S
C4028 C4030 1.389 . S
C4029 H4008 0.950 . S
C4029 C4028 1.373 . S
C4029 C4045 1.377 . S
C4030 C4028 1.389 . S
C4030 C4031 1.524 . S
C4030 C4044 1.377 . S
C4031 C4030 1.524 . S
C4031 C4032 1.397 . S
C4031 C4036 1.363 . S
C4032 H4009 0.950 . S
C4032 C4031 1.397 . S
C4032 C4033 1.334 . S
C4033 H4010 0.950 . S
C4033 C4032 1.334 . S
C4033 C4034 1.287 . S
C4034 C4033 1.287 . S
C4034 C4035 1.524 . S
C4034 H4053 0.913 . S
C4035 H4011 0.950 . S
C4035 C4034 1.524 . S
C4035 C4036 1.415 . S
C4036 H4012 0.950 . S
C4036 C4031 1.363 . S
C4036 C4035 1.415 . S
C4037 H4013 0.951 . S
C4037 C4038 1.366 . S
C4037 C4039 1.388 . S
C4038 C4037 1.366 . S
C4038 C4042 1.385 . S
C4039 H4014 0.951 . S
C4039 C4037 1.388 . S
C4039 C4040 1.366 . S
C4040 C4039 1.366 . S
C4040 C4041 1.414 . S
C4040 C4043 1.499 . S
C4041 H4015 0.950 . S
C4041 C4040 1.414 . S
C4041 C4042 1.374 . S
C4042 H4016 0.950 . S
C4042 C4038 1.385 . S
C4042 C4041 1.374 . S
C4043 C4040 1.499 . S
C4043 C4044 1.373 . S
C4043 C4045 1.389 . S
C4044 H4017 0.950 . S
C4044 C4030 1.377 . S
C4044 C4043 1.373 . S
C4045 C4029 1.377 . S
C4045 C4043 1.389 . S
C4045 C4046 1.524 . S
C4046 C4045 1.524 . S
C4046 C4047 1.397 . S
C4046 C4051 1.363 . S
C4047 H4018 0.950 . S
C4047 C4046 1.397 . S
C4047 C4048 1.334 . S
C4048 H4019 0.950 . S
C4048 C4047 1.334 . S
C4048 C4049 1.287 . S
C4049 C4048 1.287 . S
C4049 C4050 1.524 . S
C4049 H4052 0.999 . S
C4050 H4020 0.950 . S
C4050 C4049 1.524 . S
C4050 C4051 1.415 . S
C4051 H4021 0.950 . S
C4051 C4046 1.363 . S
C4051 C4050 1.415 . S
H4052 C4049 0.999 . S
H4053 C4034 0.913 . S
H4054 C4072 0.951 . S
H4055 C4074 0.951 . S
H4056 C4076 0.950 . S
H4057 C4077 0.950 . S
H4058 C4079 0.972 . S
H4059 C4082 0.950 . S
H4060 C4083 0.950 . S
H4061 C4085 0.950 . S
H4062 C4086 0.950 . S
H4063 C4087 0.951 1_556 S
H4064 C4089 0.951 1_556 S
H4065 C4091 0.950 . S
H4066 C4092 0.950 . S
H4067 C4094 0.950 . S
H4068 C4097 0.950 1_554 S
H4069 C4098 0.950 . S
H4070 C4100 0.950 . S
H4071 C4101 0.950 . S
C4072 H4054 0.951 . S
C4072 C4073 1.366 . S
C4072 C4074 1.388 . S
C4073 C4072 1.366 . S
C4073 C4077 1.385 1_554 S
C4074 H4055 0.951 . S
C4074 C4072 1.388 . S
C4074 C4075 1.366 . S
C4075 C4074 1.366 . S
C4075 C4076 1.414 1_554 S
C4075 C4078 1.499 . S
C4076 H4056 0.950 . S
C4076 C4075 1.414 1_556 S
C4076 C4077 1.374 . S
C4077 H4057 0.950 . S
C4077 C4073 1.385 1_556 S
C4077 C4076 1.374 . S
C4078 C4075 1.499 . S
C4078 C4079 1.355 1_554 S
C4078 C4080 1.389 . S
C4079 H4058 0.972 . S
C4079 C4078 1.355 1_556 S
C4079 C4095 1.374 1_556 S
C4080 C4078 1.389 . S
C4080 C4081 1.524 . S
C4080 C4094 1.377 . S
C4081 C4080 1.524 . S
C4081 C4082 1.397 . S
C4081 C4086 1.363 . S
C4082 H4059 0.950 . S
C4082 C4081 1.397 . S
C4082 C4083 1.334 . S
C4083 H4060 0.950 . S
C4083 C4082 1.334 . S
C4083 C4084 1.287 . S
C4084 C4083 1.287 . S
C4084 C4085 1.524 . S
C4084 H4103 0.913 . S
C4085 H4061 0.950 . S
C4085 C4084 1.524 . S
C4085 C4086 1.415 . S
C4086 H4062 0.950 . S
C4086 C4081 1.363 . S
C4086 C4085 1.415 . S
C4087 H4063 0.951 1_554 S
C4087 C4088 1.366 . S
C4087 C4089 1.388 . S
C4088 C4087 1.366 . S
C4088 C4092 1.385 . S
C4089 H4064 0.951 1_554 S
C4089 C4087 1.388 . S
C4089 C4090 1.366 . S
C4090 C4089 1.366 . S
C4090 C4091 1.414 . S
C4090 C4093 1.499 . S
C4091 H4065 0.950 . S
C4091 C4090 1.414 . S
C4091 C4092 1.374 . S
C4092 H4066 0.950 . S
C4092 C4088 1.385 . S
C4092 C4091 1.374 . S
C4093 C4090 1.499 . S
C4093 C4094 1.373 . S
C4093 C4095 1.389 . S
C4094 H4067 0.950 . S
C4094 C4080 1.377 . S
C4094 C4093 1.373 . S
C4095 C4079 1.374 1_554 S
C4095 C4093 1.389 . S
C4095 C4096 1.524 1_554 S
C4096 C4095 1.524 1_556 S
C4096 C4097 1.397 . S
C4096 C4101 1.363 . S
C4097 H4068 0.950 1_556 S
C4097 C4096 1.397 . S
C4097 C4098 1.334 1_545 S
C4098 H4069 0.950 . S
C4098 C4097 1.334 1_565 S
C4098 C4099 1.287 1_565 S
C4099 C4098 1.287 1_545 S
C4099 C4100 1.524 . S
C4099 H4102 0.999 1_545 S
C4100 H4070 0.950 . S
C4100 C4099 1.524 . S
C4100 C4101 1.415 . S
C4101 H4071 0.950 . S
C4101 C4096 1.363 . S
C4101 C4100 1.415 . S
H4102 C4099 0.999 1_565 S
H4103 C4084 0.913 . S
H4104 C4122 0.951 . S
H4105 C4124 0.951 . S
H4106 C4126 0.950 . S
H4107 C4127 0.950 . S
H4108 C4129 0.950 . S
H4109 C4132 0.950 . S
H4110 C4133 0.950 . S
H4111 C4135 0.950 . S
H4112 C4136 0.950 . S
H4113 C4137 0.951 . S
H4114 C4139 0.951 . S
H4115 C4141 0.950 . S
H4116 C4142 0.950 . S
H4117 C4144 0.950 . S
H4118 C4147 0.950 . S
H4119 C4148 0.950 . S
H4120 C4150 0.950 . S
H4121 C4151 0.950 . S
C4122 H4104 0.951 . S
C4122 C4123 1.366 . S
C4122 C4124 1.388 . S
C4123 C4122 1.366 . S
C4123 C4127 1.385 . S
C4124 H4105 0.951 . S
C4124 C4122 1.388 . S
C4124 C4125 1.366 . S
C4125 C4124 1.366 . S
C4125 C4126 1.414 . S
C4125 C4128 1.499 . S
C4126 H4106 0.950 . S
C4126 C4125 1.414 . S
C4126 C4127 1.374 . S
C4127 H4107 0.950 . S
C4127 C4123 1.385 . S
C4127 C4126 1.374 . S
C4128 C4125 1.499 . S
C4128 C4129 1.373 . S
C4128 C4130 1.389 . S
C4129 H4108 0.950 . S
C4129 C4128 1.373 . S
C4129 C4145 1.377 . S
C4130 C4128 1.389 . S
C4130 C4131 1.524 . S
C4130 C4144 1.377 . S
C4131 C4130 1.524 . S
C4131 C4132 1.397 . S
C4131 C4136 1.363 . S
C4132 H4109 0.950 . S
C4132 C4131 1.397 . S
C4132 C4133 1.334 . S
C4133 H4110 0.950 . S
C4133 C4132 1.334 . S
C4133 C4134 1.287 . S
C4134 C4133 1.287 . S
C4134 C4135 1.524 . S
C4134 H4153 0.913 . S
C4135 H4111 0.950 . S
C4135 C4134 1.524 . S
C4135 C4136 1.415 . S
C4136 H4112 0.950 . S
C4136 C4131 1.363 . S
C4136 C4135 1.415 . S
C4137 H4113 0.951 . S
C4137 C4138 1.366 . S
C4137 C4139 1.388 . S
C4138 C4137 1.366 . S
C4138 C4142 1.385 . S
C4139 H4114 0.951 . S
C4139 C4137 1.388 . S
C4139 C4140 1.366 . S
C4140 C4139 1.366 . S
C4140 C4141 1.414 . S
C4140 C4143 1.499 . S
C4141 H4115 0.950 . S
C4141 C4140 1.414 . S
C4141 C4142 1.374 . S
C4142 H4116 0.950 . S
C4142 C4138 1.385 . S
C4142 C4141 1.374 . S
C4143 C4140 1.499 . S
C4143 C4144 1.373 . S
C4143 C4145 1.389 . S
C4144 H4117 0.950 . S
C4144 C4130 1.377 . S
C4144 C4143 1.373 . S
C4145 C4129 1.377 . S
C4145 C4143 1.389 . S
C4145 C4146 1.524 . S
C4146 C4145 1.524 . S
C4146 C4147 1.397 . S
C4146 C4151 1.363 . S
C4147 H4118 0.950 . S
C4147 C4146 1.397 . S
C4147 C4148 1.334 . S
C4148 H4119 0.950 . S
C4148 C4147 1.334 . S
C4148 C4149 1.287 . S
C4149 C4148 1.287 . S
C4149 C4150 1.524 . S
C4149 H4152 0.999 . S
C4150 H4120 0.950 . S
C4150 C4149 1.524 . S
C4150 C4151 1.415 . S
C4151 H4121 0.950 . S
C4151 C4146 1.363 . S
C4151 C4150 1.415 . S
H4152 C4149 0.999 . S
H4153 C4134 0.913 . S
H4154 C4172 0.951 . S
H4155 C4174 0.951 . S
H4156 C4176 0.950 . S
H4157 C4177 0.950 . S
H4158 C4179 0.950 . S
H4159 C4182 0.950 . S
H4160 C4183 0.950 . S
H4161 C4185 0.933 1_556 S
H4162 C4186 0.950 1_556 S
H4163 C4187 0.951 . S
H4164 C4189 0.951 . S
H4165 C4191 0.950 . S
H4166 C4192 0.950 . S
H4167 C4194 0.950 . S
H4168 C4197 0.950 . S
H4169 C4198 0.950 . S
H4170 C4200 0.950 . S
H4171 C4201 0.950 . S
C4172 H4154 0.951 . S
C4172 C4173 1.366 1_556 S
C4172 C4174 1.388 . S
C4173 C4172 1.366 1_554 S
C4173 C4177 1.385 . S
C4174 H4155 0.951 . S
C4174 C4172 1.388 . S
C4174 C4175 1.366 1_556 S
C4175 C4174 1.366 1_554 S
C4175 C4176 1.414 . S
C4175 C4178 1.499 . S
C4176 H4156 0.950 . S
C4176 C4175 1.414 . S
C4176 C4177 1.374 . S
C4177 H4157 0.950 . S
C4177 C4173 1.385 . S
C4177 C4176 1.374 . S
C4178 C4175 1.499 . S
C4178 C4179 1.373 . S
C4178 C4180 1.389 . S
C4179 H4158 0.950 . S
C4179 C4178 1.373 . S
C4179 C4195 1.377 . S
C4180 C4178 1.389 . S
C4180 C4181 1.524 . S
C4180 C4194 1.377 . S
C4181 C4180 1.524 . S
C4181 C4182 1.397 . S
C4181 C4186 1.363 . S
C4182 H4159 0.950 . S
C4182 C4181 1.397 . S
C4182 C4183 1.334 . S
C4183 H4160 0.950 . S
C4183 C4182 1.334 . S
C4183 C4184 1.287 . S
C4184 C4183 1.287 . S
C4184 C4185 1.524 . S
C4184 H4203 0.913 . S
C4185 H4161 0.933 1_554 S
C4185 C4184 1.524 . S
C4185 C4186 1.415 . S
C4186 H4162 0.950 1_554 S
C4186 C4181 1.363 . S
C4186 C4185 1.415 . S
C4187 H4163 0.951 . S
C4187 C4188 1.366 . S
C4187 C4189 1.388 . S
C4188 C4187 1.366 . S
C4188 C4192 1.385 1_554 S
C4189 H4164 0.951 . S
C4189 C4187 1.388 . S
C4189 C4190 1.366 . S
C4190 C4189 1.366 . S
C4190 C4191 1.414 1_554 S
C4190 C4193 1.499 . S
C4191 H4165 0.950 . S
C4191 C4190 1.414 1_556 S
C4191 C4192 1.374 . S
C4192 H4166 0.950 . S
C4192 C4188 1.385 1_556 S
C4192 C4191 1.374 . S
C4193 C4190 1.499 . S
C4193 C4194 1.373 . S
C4193 C4195 1.389 . S
C4194 H4167 0.950 . S
C4194 C4180 1.377 . S
C4194 C4193 1.373 . S
C4195 C4179 1.377 . S
C4195 C4193 1.389 . S
C4195 C4196 1.524 1_554 S
C4196 C4195 1.524 1_556 S
C4196 C4197 1.397 . S
C4196 C4201 1.363 1_556 S
C4197 H4168 0.950 . S
C4197 C4196 1.397 . S
C4197 C4198 1.334 . S
C4198 H4169 0.950 . S
C4198 C4197 1.334 . S
C4198 C4199 1.287 . S
C4199 C4198 1.287 . S
C4199 C4200 1.524 1_556 S
C4199 H4202 0.999 . S
C4200 H4170 0.950 . S
C4200 C4199 1.524 1_554 S
C4200 C4201 1.415 . S
C4201 H4171 0.950 . S
C4201 C4196 1.363 1_554 S
C4201 C4200 1.415 . S
H4202 C4199 0.999 . S
H4203 C4184 0.913 . S
H4204 C4222 0.951 . S
H4205 C4224 0.951 . S
H4206 C4226 0.950 . S
H4207 C4227 0.950 . S
H4208 C4229 0.950 . S
H4209 C4232 0.950 . S
H4210 C4233 0.950 . S
H4211 C4235 0.950 . S
H4212 C4236 0.950 . S
H4213 C4237 0.951 . S
H4214 C4239 0.951 . S
H4215 C4241 0.950 . S
H4216 C4242 0.950 . S
H4217 C4244 0.950 . S
H4218 C4247 0.950 . S
H4219 C4248 0.950 . S
H4220 C4250 0.950 . S
H4221 C4251 0.950 . S
C4222 H4204 0.951 . S
C4222 C4223 1.366 . S
C4222 C4224 1.388 . S
C4223 C4222 1.366 . S
C4223 C4227 1.385 . S
C4224 H4205 0.951 . S
C4224 C4222 1.388 . S
C4224 C4225 1.366 . S
C4225 C4224 1.366 . S
C4225 C4226 1.414 . S
C4225 C4228 1.499 . S
C4226 H4206 0.950 . S
C4226 C4225 1.414 . S
C4226 C4227 1.374 . S
C4227 H4207 0.950 . S
C4227 C4223 1.385 . S
C4227 C4226 1.374 . S
C4228 C4225 1.499 . S
C4228 C4229 1.373 . S
C4228 C4230 1.389 . S
C4229 H4208 0.950 . S
C4229 C4228 1.373 . S
C4229 C4245 1.377 . S
C4230 C4228 1.389 . S
C4230 C4231 1.524 . S
C4230 C4244 1.377 . S
C4231 C4230 1.524 . S
C4231 C4232 1.397 . S
C4231 C4236 1.363 . S
C4232 H4209 0.950 . S
C4232 C4231 1.397 . S
C4232 C4233 1.334 . S
C4233 H4210 0.950 . S
C4233 C4232 1.334 . S
C4233 C4234 1.287 . S
C4234 C4233 1.287 . S
C4234 C4235 1.524 . S
C4234 H4253 0.913 . S
C4235 H4211 0.950 . S
C4235 C4234 1.524 . S
C4235 C4236 1.415 . S
C4236 H4212 0.950 . S
C4236 C4231 1.363 . S
C4236 C4235 1.415 . S
C4237 H4213 0.951 . S
C4237 C4238 1.366 . S
C4237 C4239 1.388 . S
C4238 C4237 1.366 . S
C4238 C4242 1.385 . S
C4239 H4214 0.951 . S
C4239 C4237 1.388 . S
C4239 C4240 1.366 . S
C4240 C4239 1.366 . S
C4240 C4241 1.414 . S
C4240 C4243 1.499 . S
C4241 H4215 0.950 . S
C4241 C4240 1.414 . S
C4241 C4242 1.374 . S
C4242 H4216 0.950 . S
C4242 C4238 1.385 . S
C4242 C4241 1.374 . S
C4243 C4240 1.499 . S
C4243 C4244 1.373 . S
C4243 C4245 1.389 . S
C4244 H4217 0.950 . S
C4244 C4230 1.377 . S
C4244 C4243 1.373 . S
C4245 C4229 1.377 . S
C4245 C4243 1.389 . S
C4245 C4246 1.524 . S
C4246 C4245 1.524 . S
C4246 C4247 1.397 . S
C4246 C4251 1.363 . S
C4247 H4218 0.950 . S
C4247 C4246 1.397 . S
C4247 C4248 1.334 . S
C4248 H4219 0.950 . S
C4248 C4247 1.334 . S
C4248 C4249 1.287 . S
C4249 C4248 1.287 . S
C4249 C4250 1.524 . S
C4249 H4252 0.999 . S
C4250 H4220 0.950 . S
C4250 C4249 1.524 . S
C4250 C4251 1.415 . S
C4251 H4221 0.950 . S
C4251 C4246 1.363 . S
C4251 C4250 1.415 . S
H4252 C4249 0.999 . S
H4253 C4234 0.913 . S
H4254 C4272 0.951 . S
H4255 C4274 0.951 . S
H4256 C4276 0.950 . S
H4257 C4277 0.950 . S
H4258 C4279 0.950 . S
H4259 C4282 0.950 . S
H4260 C4283 0.950 . S
H4261 C4285 0.950 . S
H4262 C4286 0.950 . S
H4263 C4287 0.951 . S
H4264 C4289 0.951 . S
H4265 C4291 0.950 . S
H4266 C4292 0.950 . S
H4267 C4294 0.950 . S
H4268 C4297 0.950 . S
H4269 C4298 0.950 . S
H4270 C4300 0.950 . S
H4271 C4301 0.950 . S
C4272 H4254 0.951 . S
C4272 C4273 1.366 . S
C4272 C4274 1.388 . S
C4273 C4272 1.366 . S
C4273 C4277 1.385 . S
C4274 H4255 0.951 . S
C4274 C4272 1.388 . S
C4274 C4275 1.366 . S
C4275 C4274 1.366 . S
C4275 C4276 1.414 . S
C4275 C4278 1.499 . S
C4276 H4256 0.950 . S
C4276 C4275 1.414 . S
C4276 C4277 1.374 . S
C4277 H4257 0.950 . S
C4277 C4273 1.385 . S
C4277 C4276 1.374 . S
C4278 C4275 1.499 . S
C4278 C4279 1.373 . S
C4278 C4280 1.389 . S
C4279 H4258 0.950 . S
C4279 C4278 1.373 . S
C4279 C4295 1.377 . S
C4280 C4278 1.389 . S
C4280 C4281 1.524 . S
C4280 C4294 1.377 . S
C4281 C4280 1.524 . S
C4281 C4282 1.397 . S
C4281 C4286 1.363 . S
C4282 H4259 0.950 . S
C4282 C4281 1.397 . S
C4282 C4283 1.334 . S
C4283 H4260 0.950 . S
C4283 C4282 1.334 . S
C4283 C4284 1.287 . S
C4284 C4283 1.287 . S
C4284 C4285 1.524 . S
C4284 H4303 0.913 . S
C4285 H4261 0.950 . S
C4285 C4284 1.524 . S
C4285 C4286 1.415 . S
C4286 H4262 0.950 . S
C4286 C4281 1.363 . S
C4286 C4285 1.415 . S
C4287 H4263 0.951 . S
C4287 C4288 1.366 . S
C4287 C4289 1.388 . S
C4288 C4287 1.366 . S
C4288 C4292 1.385 . S
C4289 H4264 0.951 . S
C4289 C4287 1.388 . S
C4289 C4290 1.366 . S
C4290 C4289 1.366 . S
C4290 C4291 1.414 . S
C4290 C4293 1.499 . S
C4291 H4265 0.950 . S
C4291 C4290 1.414 . S
C4291 C4292 1.374 . S
C4292 H4266 0.950 . S
C4292 C4288 1.385 . S
C4292 C4291 1.374 . S
C4293 C4290 1.499 . S
C4293 C4294 1.373 . S
C4293 C4295 1.389 . S
C4294 H4267 0.950 . S
C4294 C4280 1.377 . S
C4294 C4293 1.373 . S
C4295 C4279 1.377 . S
C4295 C4293 1.389 . S
C4295 C4296 1.524 . S
C4296 C4295 1.524 . S
C4296 C4297 1.397 . S
C4296 C4301 1.363 . S
C4297 H4268 0.950 . S
C4297 C4296 1.397 . S
C4297 C4298 1.334 . S
C4298 H4269 0.950 . S
C4298 C4297 1.334 . S
C4298 C4299 1.287 . S
C4299 C4298 1.287 . S
C4299 C4300 1.524 . S
C4299 H4302 0.999 . S
C4300 H4270 0.950 . S
C4300 C4299 1.524 . S
C4300 C4301 1.415 . S
C4301 H4271 0.950 . S
C4301 C4296 1.363 . S
C4301 C4300 1.415 . S
H4302 C4299 0.999 . S
H4303 C4284 0.913 . S
H4304 C4322 0.951 . S
H4305 C4324 0.951 . S
H4306 C4326 0.950 . S
H4307 C4327 0.950 . S
H4308 C4329 0.950 . S
H4309 C4332 0.950 . S
H4310 C4333 0.950 . S
H4311 C4335 0.950 . S
H4312 C4336 0.950 . S
H4313 C4337 0.951 . S
H4314 C4339 0.951 . S
H4315 C4341 0.950 . S
H4316 C4342 0.950 . S
H4317 C4344 0.950 . S
H4318 C4347 0.950 . S
H4319 C4348 0.950 . S
H4320 C4350 0.950 . S
H4321 C4351 0.950 . S
C4322 H4304 0.951 . S
C4322 C4323 1.366 . S
C4322 C4324 1.388 . S
C4323 C4322 1.366 . S
C4323 C4327 1.385 . S
C4324 H4305 0.951 . S
C4324 C4322 1.388 . S
C4324 C4325 1.366 . S
C4325 C4324 1.366 . S
C4325 C4326 1.414 . S
C4325 C4328 1.499 . S
C4326 H4306 0.950 . S
C4326 C4325 1.414 . S
C4326 C4327 1.374 . S
C4327 H4307 0.950 . S
C4327 C4323 1.385 . S
C4327 C4326 1.374 . S
C4328 C4325 1.499 . S
C4328 C4329 1.373 . S
C4328 C4330 1.389 . S
C4329 H4308 0.950 . S
C4329 C4328 1.373 . S
C4329 C4345 1.377 . S
C4330 C4328 1.389 . S
C4330 C4331 1.524 . S
C4330 C4344 1.377 . S
C4331 C4330 1.524 . S
C4331 C4332 1.397 . S
C4331 C4336 1.363 . S
C4332 H4309 0.950 . S
C4332 C4331 1.397 . S
C4332 C4333 1.334 . S
C4333 H4310 0.950 . S
C4333 C4332 1.334 . S
C4333 C4334 1.287 . S
C4334 C4333 1.287 . S
C4334 C4335 1.524 . S
C4334 H4353 0.913 . S
C4335 H4311 0.950 . S
C4335 C4334 1.524 . S
C4335 C4336 1.415 . S
C4336 H4312 0.950 . S
C4336 C4331 1.363 . S
C4336 C4335 1.415 . S
C4337 H4313 0.951 . S
C4337 C4338 1.366 . S
C4337 C4339 1.388 . S
C4338 C4337 1.366 . S
C4338 C4342 1.385 . S
C4339 H4314 0.951 . S
C4339 C4337 1.388 . S
C4339 C4340 1.366 . S
C4340 C4339 1.366 . S
C4340 C4341 1.414 . S
C4340 C4343 1.499 . S
C4341 H4315 0.950 . S
C4341 C4340 1.414 . S
C4341 C4342 1.374 . S
C4342 H4316 0.950 . S
C4342 C4338 1.385 . S
C4342 C4341 1.374 . S
C4343 C4340 1.499 . S
C4343 C4344 1.373 . S
C4343 C4345 1.389 . S
C4344 H4317 0.950 . S
C4344 C4330 1.377 . S
C4344 C4343 1.373 . S
C4345 C4329 1.377 . S
C4345 C4343 1.389 . S
C4345 C4346 1.524 . S
C4346 C4345 1.524 . S
C4346 C4347 1.397 . S
C4346 C4351 1.363 . S
C4347 H4318 0.950 . S
C4347 C4346 1.397 . S
C4347 C4348 1.334 . S
C4348 H4319 0.950 . S
C4348 C4347 1.334 . S
C4348 C4349 1.287 . S
C4349 C4348 1.287 . S
C4349 C4350 1.524 . S
C4349 H4352 0.999 . S
C4350 H4320 0.950 . S
C4350 C4349 1.524 . S
C4350 C4351 1.415 . S
C4351 H4321 0.950 . S
C4351 C4346 1.363 . S
C4351 C4350 1.415 . S
H4352 C4349 0.999 . S
H4353 C4334 0.913 . S
H4354 C4372 0.951 . S
H4355 C4374 0.951 . S
H4356 C4376 0.950 . S
H4357 C4377 0.950 . S
H4358 C4379 0.950 . S
H4359 C4382 0.950 . S
H4360 C4383 0.950 . S
H4361 C4385 0.950 . S
H4362 C4386 0.950 . S
H4363 C4387 0.951 . S
H4364 C4389 0.951 . S
H4365 C4391 0.950 . S
H4366 C4392 0.950 . S
H4367 C4394 0.950 . S
H4368 C4397 0.950 . S
H4369 C4398 0.950 . S
H4370 C4400 0.950 . S
H4371 C4401 0.950 . S
C4372 H4354 0.951 . S
C4372 C4373 1.366 . S
C4372 C4374 1.388 . S
C4373 C4372 1.366 . S
C4373 C4377 1.385 . S
C4374 H4355 0.951 . S
C4374 C4372 1.388 . S
C4374 C4375 1.366 . S
C4375 C4374 1.366 . S
C4375 C4376 1.414 . S
C4375 C4378 1.499 . S
C4376 H4356 0.950 . S
C4376 C4375 1.414 . S
C4376 C4377 1.374 . S
C4377 H4357 0.950 . S
C4377 C4373 1.385 . S
C4377 C4376 1.374 . S
C4378 C4375 1.499 . S
C4378 C4379 1.373 . S
C4378 C4380 1.389 . S
C4379 H4358 0.950 . S
C4379 C4378 1.373 . S
C4379 C4395 1.377 . S
C4380 C4378 1.389 . S
C4380 C4381 1.524 . S
C4380 C4394 1.377 . S
C4381 C4380 1.524 . S
C4381 C4382 1.397 . S
C4381 C4386 1.363 . S
C4382 H4359 0.950 . S
C4382 C4381 1.397 . S
C4382 C4383 1.334 . S
C4383 H4360 0.950 . S
C4383 C4382 1.334 . S
C4383 C4384 1.287 . S
C4384 C4383 1.287 . S
C4384 C4385 1.524 . S
C4384 H4403 0.913 . S
C4385 H4361 0.950 . S
C4385 C4384 1.524 . S
C4385 C4386 1.415 . S
C4386 H4362 0.950 . S
C4386 C4381 1.363 . S
C4386 C4385 1.415 . S
C4387 H4363 0.951 . S
C4387 C4388 1.366 . S
C4387 C4389 1.388 . S
C4388 C4387 1.366 . S
C4388 C4392 1.385 . S
C4389 H4364 0.951 . S
C4389 C4387 1.388 . S
C4389 C4390 1.366 . S
C4390 C4389 1.366 . S
C4390 C4391 1.414 . S
C4390 C4393 1.499 . S
C4391 H4365 0.950 . S
C4391 C4390 1.414 . S
C4391 C4392 1.374 . S
C4392 H4366 0.950 . S
C4392 C4388 1.385 . S
C4392 C4391 1.374 . S
C4393 C4390 1.499 . S
C4393 C4394 1.373 . S
C4393 C4395 1.389 . S
C4394 H4367 0.950 . S
C4394 C4380 1.377 . S
C4394 C4393 1.373 . S
C4395 C4379 1.377 . S
C4395 C4393 1.389 . S
C4395 C4396 1.524 . S
C4396 C4395 1.524 . S
C4396 C4397 1.397 . S
C4396 C4401 1.363 . S
C4397 H4368 0.950 . S
C4397 C4396 1.397 . S
C4397 C4398 1.334 . S
C4398 H4369 0.950 . S
C4398 C4397 1.334 . S
C4398 C4399 1.287 . S
C4399 C4398 1.287 . S
C4399 C4400 1.524 . S
C4399 H4402 0.999 . S
C4400 H4370 0.950 . S
C4400 C4399 1.524 . S
C4400 C4401 1.415 . S
C4401 H4371 0.950 . S
C4401 C4396 1.363 . S
C4401 C4400 1.415 . S
H4402 C4399 0.999 . S
H4403 C4384 0.913 . S
H4404 C4422 0.951 . S
H4405 C4424 0.951 . S
H4406 C4426 0.950 . S
H4407 C4427 0.950 . S
H4408 C4429 0.950 . S
H4409 C4432 0.888 1_455 S
H4410 C4433 0.950 . S
H4411 C4435 0.950 . S
H4412 C4436 0.950 . S
H4413 C4437 0.951 . S
H4414 C4439 0.951 . S
H4415 C4441 0.950 . S
H4416 C4442 0.950 . S
H4417 C4444 0.950 . S
H4418 C4447 0.950 . S
H4419 C4448 0.950 . S
H4420 C4450 0.950 . S
H4421 C4451 0.950 . S
C4422 H4404 0.951 . S
C4422 C4423 1.366 1_655 S
C4422 C4424 1.388 . S
C4423 C4422 1.366 1_455 S
C4423 C4427 1.385 . S
C4424 H4405 0.951 . S
C4424 C4422 1.388 . S
C4424 C4425 1.366 1_655 S
C4425 C4424 1.366 1_455 S
C4425 C4426 1.414 . S
C4425 C4428 1.499 . S
C4426 H4406 0.950 . S
C4426 C4425 1.414 . S
C4426 C4427 1.374 . S
C4427 H4407 0.950 . S
C4427 C4423 1.385 . S
C4427 C4426 1.374 . S
C4428 C4425 1.499 . S
C4428 C4429 1.373 . S
C4428 C4430 1.389 1_455 S
C4429 H4408 0.950 . S
C4429 C4428 1.373 . S
C4429 C4445 1.377 . S
C4430 C4428 1.389 1_655 S
C4430 C4431 1.524 . S
C4430 C4444 1.377 . S
C4431 C4430 1.524 . S
C4431 C4432 1.397 . S
C4431 C4436 1.363 . S
C4432 H4409 0.888 1_655 S
C4432 C4431 1.397 . S
C4432 C4433 1.334 . S
C4433 H4410 0.950 . S
C4433 C4432 1.334 . S
C4433 C4434 1.287 . S
C4434 C4433 1.287 . S
C4434 C4435 1.524 . S
C4434 H4453 0.913 . S
C4435 H4411 0.950 . S
C4435 C4434 1.524 . S
C4435 C4436 1.415 . S
C4436 H4412 0.950 . S
C4436 C4431 1.363 . S
C4436 C4435 1.415 . S
C4437 H4413 0.951 . S
C4437 C4438 1.366 1_455 S
C4437 C4439 1.388 . S
C4438 C4437 1.366 1_655 S
C4438 C4442 1.385 . S
C4439 H4414 0.951 . S
C4439 C4437 1.388 . S
C4439 C4440 1.366 . S
C4440 C4439 1.366 . S
C4440 C4441 1.414 1_455 S
C4440 C4443 1.499 . S
C4441 H4415 0.950 . S
C4441 C4440 1.414 1_655 S
C4441 C4442 1.374 . S
C4442 H4416 0.950 . S
C4442 C4438 1.385 . S
C4442 C4441 1.374 . S
C4443 C4440 1.499 . S
C4443 C4444 1.373 1_455 S
C4443 C4445 1.389 . S
C4444 H4417 0.950 . S
C4444 C4430 1.377 . S
C4444 C4443 1.373 1_655 S
C4445 C4429 1.377 . S
C4445 C4443 1.389 . S
C4445 C4446 1.524 . S
C4446 C4445 1.524 . S
C4446 C4447 1.397 . S
C4446 C4451 1.363 . S
C4447 H4418 0.950 . S
C4447 C4446 1.397 . S
C4447 C4448 1.334 . S
C4448 H4419 0.950 . S
C4448 C4447 1.334 . S
C4448 C4449 1.287 . S
C4449 C4448 1.287 . S
C4449 C4450 1.524 . S
C4449 H4452 0.999 . S
C4450 H4420 0.950 . S
C4450 C4449 1.524 . S
C4450 C4451 1.415 . S
C4451 H4421 0.950 . S
C4451 C4446 1.363 . S
C4451 C4450 1.415 . S
H4452 C4449 0.999 . S
H4453 C4434 0.913 . S
H4454 C4472 0.951 . S
H4455 C4474 0.951 . S
H4456 C4476 0.950 . S
H4457 C4477 0.950 . S
H4458 C4479 0.950 . S
H4459 C4482 0.950 . S
H4460 C4483 0.950 . S
H4461 C4485 0.950 . S
H4462 C4486 0.950 . S
H4463 C4487 0.951 . S
H4464 C4489 0.951 . S
H4465 C4491 0.950 . S
H4466 C4492 0.950 . S
H4467 C4494 0.950 . S
H4468 C4497 0.950 . S
H4469 C4498 0.950 . S
H4470 C4500 0.950 . S
H4471 C4501 0.950 . S
C4472 H4454 0.951 . S
C4472 C4473 1.366 . S
C4472 C4474 1.388 . S
C4473 C4472 1.366 . S
C4473 C4477 1.385 . S
C4474 H4455 0.951 . S
C4474 C4472 1.388 . S
C4474 C4475 1.366 . S
C4475 C4474 1.366 . S
C4475 C4476 1.414 . S
C4475 C4478 1.499 . S
C4476 H4456 0.950 . S
C4476 C4475 1.414 . S
C4476 C4477 1.374 . S
C4477 H4457 0.950 . S
C4477 C4473 1.385 . S
C4477 C4476 1.374 . S
C4478 C4475 1.499 . S
C4478 C4479 1.373 . S
C4478 C4480 1.389 . S
C4479 H4458 0.950 . S
C4479 C4478 1.373 . S
C4479 C4495 1.377 . S
C4480 C4478 1.389 . S
C4480 C4481 1.524 . S
C4480 C4494 1.377 . S
C4481 C4480 1.524 . S
C4481 C4482 1.397 . S
C4481 C4486 1.363 . S
C4482 H4459 0.950 . S
C4482 C4481 1.397 . S
C4482 C4483 1.334 . S
C4483 H4460 0.950 . S
C4483 C4482 1.334 . S
C4483 C4484 1.287 . S
C4484 C4483 1.287 . S
C4484 C4485 1.524 . S
C4484 H4503 0.913 . S
C4485 H4461 0.950 . S
C4485 C4484 1.524 . S
C4485 C4486 1.415 . S
C4486 H4462 0.950 . S
C4486 C4481 1.363 . S
C4486 C4485 1.415 . S
C4487 H4463 0.951 . S
C4487 C4488 1.366 . S
C4487 C4489 1.388 . S
C4488 C4487 1.366 . S
C4488 C4492 1.385 . S
C4489 H4464 0.951 . S
C4489 C4487 1.388 . S
C4489 C4490 1.366 . S
C4490 C4489 1.366 . S
C4490 C4491 1.414 . S
C4490 C4493 1.499 . S
C4491 H4465 0.950 . S
C4491 C4490 1.414 . S
C4491 C4492 1.374 . S
C4492 H4466 0.950 . S
C4492 C4488 1.385 . S
C4492 C4491 1.374 . S
C4493 C4490 1.499 . S
C4493 C4494 1.373 . S
C4493 C4495 1.389 . S
C4494 H4467 0.950 . S
C4494 C4480 1.377 . S
C4494 C4493 1.373 . S
C4495 C4479 1.377 . S
C4495 C4493 1.389 . S
C4495 C4496 1.524 . S
C4496 C4495 1.524 . S
C4496 C4497 1.397 . S
C4496 C4501 1.363 . S
C4497 H4468 0.950 . S
C4497 C4496 1.397 . S
C4497 C4498 1.334 . S
C4498 H4469 0.950 . S
C4498 C4497 1.334 . S
C4498 C4499 1.287 . S
C4499 C4498 1.287 . S
C4499 C4500 1.524 . S
C4499 H4502 0.999 . S
C4500 H4470 0.950 . S
C4500 C4499 1.524 . S
C4500 C4501 1.415 . S
C4501 H4471 0.950 . S
C4501 C4496 1.363 . S
C4501 C4500 1.415 . S
H4502 C4499 0.999 . S
H4503 C4484 0.913 . S
H4504 C4522 0.951 . S
H4505 C4524 0.951 . S
H4506 C4526 0.950 . S
H4507 C4527 0.950 . S
H4508 C4529 0.950 . S
H4509 C4532 0.950 . S
H4510 C4533 0.950 . S
H4511 C4535 0.950 . S
H4512 C4536 0.950 . S
H4513 C4537 0.951 . S
H4514 C4539 0.951 . S
H4515 C4541 0.950 . S
H4516 C4542 0.950 . S
H4517 C4544 0.950 . S
H4518 C4547 0.950 . S
H4519 C4548 0.950 . S
H4520 C4550 0.950 . S
H4521 C4551 0.950 . S
C4522 H4504 0.951 . S
C4522 C4523 1.366 . S
C4522 C4524 1.388 . S
C4523 C4522 1.366 . S
C4523 C4527 1.385 . S
C4524 H4505 0.951 . S
C4524 C4522 1.388 . S
C4524 C4525 1.366 . S
C4525 C4524 1.366 . S
C4525 C4526 1.414 . S
C4525 C4528 1.499 . S
C4526 H4506 0.950 . S
C4526 C4525 1.414 . S
C4526 C4527 1.374 . S
C4527 H4507 0.950 . S
C4527 C4523 1.385 . S
C4527 C4526 1.374 . S
C4528 C4525 1.499 . S
C4528 C4529 1.373 . S
C4528 C4530 1.389 . S
C4529 H4508 0.950 . S
C4529 C4528 1.373 . S
C4529 C4545 1.377 . S
C4530 C4528 1.389 . S
C4530 C4531 1.524 . S
C4530 C4544 1.377 . S
C4531 C4530 1.524 . S
C4531 C4532 1.397 . S
C4531 C4536 1.363 . S
C4532 H4509 0.950 . S
C4532 C4531 1.397 . S
C4532 C4533 1.334 . S
C4533 H4510 0.950 . S
C4533 C4532 1.334 . S
C4533 C4534 1.287 . S
C4534 C4533 1.287 . S
C4534 C4535 1.524 . S
C4534 H4553 0.913 . S
C4535 H4511 0.950 . S
C4535 C4534 1.524 . S
C4535 C4536 1.415 . S
C4536 H4512 0.950 . S
C4536 C4531 1.363 . S
C4536 C4535 1.415 . S
C4537 H4513 0.951 . S
C4537 C4538 1.366 . S
C4537 C4539 1.388 . S
C4538 C4537 1.366 . S
C4538 C4542 1.385 . S
C4539 H4514 0.951 . S
C4539 C4537 1.388 . S
C4539 C4540 1.366 . S
C4540 C4539 1.366 . S
C4540 C4541 1.414 . S
C4540 C4543 1.499 . S
C4541 H4515 0.950 . S
C4541 C4540 1.414 . S
C4541 C4542 1.374 . S
C4542 H4516 0.950 . S
C4542 C4538 1.385 . S
C4542 C4541 1.374 . S
C4543 C4540 1.499 . S
C4543 C4544 1.373 . S
C4543 C4545 1.389 . S
C4544 H4517 0.950 . S
C4544 C4530 1.377 . S
C4544 C4543 1.373 . S
C4545 C4529 1.377 . S
C4545 C4543 1.389 . S
C4545 C4546 1.524 . S
C4546 C4545 1.524 . S
C4546 C4547 1.397 . S
C4546 C4551 1.363 . S
C4547 H4518 0.950 . S
C4547 C4546 1.397 . S
C4547 C4548 1.334 . S
C4548 H4519 0.950 . S
C4548 C4547 1.334 . S
C4548 C4549 1.287 . S
C4549 C4548 1.287 . S
C4549 C4550 1.524 . S
C4549 H4552 0.999 . S
C4550 H4520 0.950 . S
C4550 C4549 1.524 . S
C4550 C4551 1.415 . S
C4551 H4521 0.950 . S
C4551 C4546 1.363 . S
C4551 C4550 1.415 . S
H4552 C4549 0.999 . S
H4553 C4534 0.913 . S
H4554 C4572 0.951 . S
H4555 C4574 0.951 . S
H4556 C4576 0.950 . S
H4557 C4577 0.950 . S
H4558 C4579 0.950 . S
H4559 C4582 0.950 . S
H4560 C4583 0.950 . S
H4561 C4585 0.950 . S
H4562 C4586 0.950 . S
H4563 C4587 0.951 . S
H4564 C4589 0.951 . S
H4565 C4591 0.950 . S
H4566 C4592 0.950 . S
H4567 C4594 0.950 . S
H4568 C4597 0.950 . S
H4569 C4598 0.950 . S
H4570 C4600 0.950 . S
H4571 C4601 0.950 . S
C4572 H4554 0.951 . S
C4572 C4573 1.366 . S
C4572 C4574 1.388 . S
C4573 C4572 1.366 . S
C4573 C4577 1.385 . S
C4574 H4555 0.951 . S
C4574 C4572 1.388 . S
C4574 C4575 1.366 . S
C4575 C4574 1.366 . S
C4575 C4576 1.414 . S
C4575 C4578 1.499 . S
C4576 H4556 0.950 . S
C4576 C4575 1.414 . S
C4576 C4577 1.374 . S
C4577 H4557 0.950 . S
C4577 C4573 1.385 . S
C4577 C4576 1.374 . S
C4578 C4575 1.499 . S
C4578 C4579 1.373 . S
C4578 C4580 1.389 . S
C4579 H4558 0.950 . S
C4579 C4578 1.373 . S
C4579 C4595 1.377 . S
C4580 C4578 1.389 . S
C4580 C4581 1.524 . S
C4580 C4594 1.377 . S
C4581 C4580 1.524 . S
C4581 C4582 1.397 . S
C4581 C4586 1.363 . S
C4582 H4559 0.950 . S
C4582 C4581 1.397 . S
C4582 C4583 1.334 . S
C4583 H4560 0.950 . S
C4583 C4582 1.334 . S
C4583 C4584 1.287 . S
C4584 C4583 1.287 . S
C4584 C4585 1.524 . S
C4584 H4603 0.913 . S
C4585 H4561 0.950 . S
C4585 C4584 1.524 . S
C4585 C4586 1.415 . S
C4586 H4562 0.950 . S
C4586 C4581 1.363 . S
C4586 C4585 1.415 . S
C4587 H4563 0.951 . S
C4587 C4588 1.366 . S
C4587 C4589 1.388 . S
C4588 C4587 1.366 . S
C4588 C4592 1.385 . S
C4589 H4564 0.951 . S
C4589 C4587 1.388 . S
C4589 C4590 1.366 . S
C4590 C4589 1.366 . S
C4590 C4591 1.414 . S
C4590 C4593 1.499 . S
C4591 H4565 0.950 . S
C4591 C4590 1.414 . S
C4591 C4592 1.374 . S
C4592 H4566 0.950 . S
C4592 C4588 1.385 . S
C4592 C4591 1.374 . S
C4593 C4590 1.499 . S
C4593 C4594 1.373 . S
C4593 C4595 1.389 . S
C4594 H4567 0.950 . S
C4594 C4580 1.377 . S
C4594 C4593 1.373 . S
C4595 C4579 1.377 . S
C4595 C4593 1.389 . S
C4595 C4596 1.524 . S
C4596 C4595 1.524 . S
C4596 C4597 1.397 . S
C4596 C4601 1.363 . S
C4597 H4568 0.950 . S
C4597 C4596 1.397 . S
C4597 C4598 1.334 . S
C4598 H4569 0.950 . S
C4598 C4597 1.334 . S
C4598 C4599 1.287 . S
C4599 C4598 1.287 . S
C4599 C4600 1.524 . S
C4599 H4602 0.999 . S
C4600 H4570 0.950 . S
C4600 C4599 1.524 . S
C4600 C4601 1.415 . S
C4601 H4571 0.950 . S
C4601 C4596 1.363 . S
C4601 C4600 1.415 . S
H4602 C4599 0.999 . S
H4603 C4584 0.913 . S
H4604 C4622 0.943 1_655 S
H4605 C4624 0.951 . S
H4606 C4626 0.950 . S
H4607 C4627 0.950 . S
H4608 C4629 0.950 . S
H4609 C4632 0.950 . S
H4610 C4633 0.950 . S
H4611 C4635 0.950 . S
H4612 C4636 0.950 . S
H4613 C4637 0.976 . S
H4614 C4639 0.951 . S
H4615 C4641 0.950 . S
H4616 C4642 0.950 . S
H4617 C4644 0.950 . S
H4618 C4647 0.950 . S
H4619 C4648 0.950 . S
H4620 C4650 0.950 . S
H4621 C4651 0.950 . S
C4622 H4604 0.943 1_455 S
C4622 C4623 1.377 . S
C4622 C4624 1.385 1_455 S
C4623 C4622 1.377 . S
C4623 C4627 1.385 . S
C4624 H4605 0.951 . S
C4624 C4622 1.385 1_655 S
C4624 C4625 1.366 1_655 S
C4625 C4624 1.366 1_455 S
C4625 C4626 1.414 . S
C4625 C4628 1.499 . S
C4626 H4606 0.950 . S
C4626 C4625 1.414 . S
C4626 C4627 1.374 . S
C4627 H4607 0.950 . S
C4627 C4623 1.385 . S
C4627 C4626 1.374 . S
C4628 C4625 1.499 . S
C4628 C4629 1.373 . S
C4628 C4630 1.389 1_455 S
C4629 H4608 0.950 . S
C4629 C4628 1.373 . S
C4629 C4645 1.377 . S
C4630 C4628 1.389 1_655 S
C4630 C4631 1.524 . S
C4630 C4644 1.377 . S
C4631 C4630 1.524 . S
C4631 C4632 1.397 . S
C4631 C4636 1.363 . S
C4632 H4609 0.950 . S
C4632 C4631 1.397 . S
C4632 C4633 1.334 . S
C4633 H4610 0.950 . S
C4633 C4632 1.334 . S
C4633 C4634 1.287 . S
C4634 C4633 1.287 . S
C4634 C4635 1.524 . S
C4634 H4653 0.913 . S
C4635 H4611 0.950 . S
C4635 C4634 1.524 . S
C4635 C4636 1.415 . S
C4636 H4612 0.950 . S
C4636 C4631 1.363 . S
C4636 C4635 1.415 . S
C4637 H4613 0.976 . S
C4637 C4638 1.334 1_455 S
C4637 C4639 1.399 . S
C4638 C4637 1.334 1_655 S
C4638 C4642 1.385 . S
C4639 H4614 0.951 . S
C4639 C4637 1.399 . S
C4639 C4640 1.366 1_455 S
C4640 C4639 1.366 1_655 S
C4640 C4641 1.414 . S
C4640 C4643 1.499 . S
C4641 H4615 0.950 . S
C4641 C4640 1.414 . S
C4641 C4642 1.374 . S
C4642 H4616 0.950 . S
C4642 C4638 1.385 . S
C4642 C4641 1.374 . S
C4643 C4640 1.499 . S
C4643 C4644 1.373 . S
C4643 C4645 1.389 1_655 S
C4644 H4617 0.950 . S
C4644 C4630 1.377 . S
C4644 C4643 1.373 . S
C4645 C4629 1.377 . S
C4645 C4643 1.389 1_455 S
C4645 C4646 1.524 . S
C4646 C4645 1.524 . S
C4646 C4647 1.397 . S
C4646 C4651 1.363 . S
C4647 H4618 0.950 . S
C4647 C4646 1.397 . S
C4647 C4648 1.334 . S
C4648 H4619 0.950 . S
C4648 C4647 1.334 . S
C4648 C4649 1.287 . S
C4649 C4648 1.287 . S
C4649 C4650 1.524 . S
C4649 H4652 0.999 . S
C4650 H4620 0.950 . S
C4650 C4649 1.524 . S
C4650 C4651 1.415 . S
C4651 H4621 0.950 . S
C4651 C4646 1.363 . S
C4651 C4650 1.415 . S
H4652 C4649 0.999 . S
H4653 C4634 0.913 . S
H4654 C4672 0.951 . S
H4655 C4674 0.951 . S
H4656 C4676 0.950 . S
H4657 C4677 0.950 . S
H4658 C4679 0.950 . S
H4659 C4682 0.950 . S
H4660 C4683 0.950 . S
H4661 C4685 0.950 . S
H4662 C4686 0.950 . S
H4663 C4687 0.951 . S
H4664 C4689 0.951 . S
H4665 C4691 0.950 . S
H4666 C4692 0.950 . S
H4667 C4694 0.950 . S
H4668 C4697 0.950 . S
H4669 C4698 0.950 . S
H4670 C4700 0.950 . S
H4671 C4701 0.950 . S
C4672 H4654 0.951 . S
C4672 C4673 1.366 . S
C4672 C4674 1.388 . S
C4673 C4672 1.366 . S
C4673 C4677 1.385 . S
C4674 H4655 0.951 . S
C4674 C4672 1.388 . S
C4674 C4675 1.366 . S
C4675 C4674 1.366 . S
C4675 C4676 1.414 . S
C4675 C4678 1.499 . S
C4676 H4656 0.950 . S
C4676 C4675 1.414 . S
C4676 C4677 1.374 . S
C4677 H4657 0.950 . S
C4677 C4673 1.385 . S
C4677 C4676 1.374 . S
C4678 C4675 1.499 . S
C4678 C4679 1.373 . S
C4678 C4680 1.389 . S
C4679 H4658 0.950 . S
C4679 C4678 1.373 . S
C4679 C4695 1.377 . S
C4680 C4678 1.389 . S
C4680 C4681 1.524 . S
C4680 C4694 1.377 . S
C4681 C4680 1.524 . S
C4681 C4682 1.397 . S
C4681 C4686 1.363 . S
C4682 H4659 0.950 . S
C4682 C4681 1.397 . S
C4682 C4683 1.334 . S
C4683 H4660 0.950 . S
C4683 C4682 1.334 . S
C4683 C4684 1.287 . S
C4684 C4683 1.287 . S
C4684 C4685 1.524 . S
C4684 H4703 0.913 . S
C4685 H4661 0.950 . S
C4685 C4684 1.524 . S
C4685 C4686 1.415 . S
C4686 H4662 0.950 . S
C4686 C4681 1.363 . S
C4686 C4685 1.415 . S
C4687 H4663 0.951 . S
C4687 C4688 1.366 . S
C4687 C4689 1.388 . S
C4688 C4687 1.366 . S
C4688 C4692 1.385 . S
C4689 H4664 0.951 . S
C4689 C4687 1.388 . S
C4689 C4690 1.366 . S
C4690 C4689 1.366 . S
C4690 C4691 1.414 . S
C4690 C4693 1.499 . S
C4691 H4665 0.950 . S
C4691 C4690 1.414 . S
C4691 C4692 1.374 . S
C4692 H4666 0.950 . S
C4692 C4688 1.385 . S
C4692 C4691 1.374 . S
C4693 C4690 1.499 . S
C4693 C4694 1.373 . S
C4693 C4695 1.389 . S
C4694 H4667 0.950 . S
C4694 C4680 1.377 . S
C4694 C4693 1.373 . S
C4695 C4679 1.377 . S
C4695 C4693 1.389 . S
C4695 C4696 1.524 . S
C4696 C4695 1.524 . S
C4696 C4697 1.397 . S
C4696 C4701 1.363 . S
C4697 H4668 0.950 . S
C4697 C4696 1.397 . S
C4697 C4698 1.334 . S
C4698 H4669 0.950 . S
C4698 C4697 1.334 . S
C4698 C4699 1.287 . S
C4699 C4698 1.287 . S
C4699 C4700 1.524 . S
C4699 H4702 0.999 . S
C4700 H4670 0.950 . S
C4700 C4699 1.524 . S
C4700 C4701 1.415 . S
C4701 H4671 0.950 . S
C4701 C4696 1.363 . S
C4701 C4700 1.415 . S
H4702 C4699 0.999 . S
H4703 C4684 0.913 . S
H4704 C4722 0.951 . S
H4705 C4724 0.951 . S
H4706 C4726 0.950 . S
H4707 C4727 0.950 . S
H4708 C4729 0.950 . S
H4709 C4732 0.950 . S
H4710 C4733 0.950 . S
H4711 C4735 0.950 . S
H4712 C4736 0.950 . S
H4713 C4737 0.951 . S
H4714 C4739 0.951 . S
H4715 C4741 0.950 . S
H4716 C4742 0.950 . S
H4717 C4744 0.950 . S
H4718 C4747 0.950 . S
H4719 C4748 0.950 . S
H4720 C4750 0.950 . S
H4721 C4751 0.950 . S
C4722 H4704 0.951 . S
C4722 C4723 1.366 . S
C4722 C4724 1.388 . S
C4723 C4722 1.366 . S
C4723 C4727 1.385 . S
C4724 H4705 0.951 . S
C4724 C4722 1.388 . S
C4724 C4725 1.366 . S
C4725 C4724 1.366 . S
C4725 C4726 1.414 . S
C4725 C4728 1.499 . S
C4726 H4706 0.950 . S
C4726 C4725 1.414 . S
C4726 C4727 1.374 . S
C4727 H4707 0.950 . S
C4727 C4723 1.385 . S
C4727 C4726 1.374 . S
C4728 C4725 1.499 . S
C4728 C4729 1.373 . S
C4728 C4730 1.389 . S
C4729 H4708 0.950 . S
C4729 C4728 1.373 . S
C4729 C4745 1.377 . S
C4730 C4728 1.389 . S
C4730 C4731 1.524 . S
C4730 C4744 1.377 . S
C4731 C4730 1.524 . S
C4731 C4732 1.397 . S
C4731 C4736 1.363 . S
C4732 H4709 0.950 . S
C4732 C4731 1.397 . S
C4732 C4733 1.334 . S
C4733 H4710 0.950 . S
C4733 C4732 1.334 . S
C4733 C4734 1.287 . S
C4734 C4733 1.287 . S
C4734 C4735 1.524 . S
C4734 H4753 0.913 . S
C4735 H4711 0.950 . S
C4735 C4734 1.524 . S
C4735 C4736 1.415 . S
C4736 H4712 0.950 . S
C4736 C4731 1.363 . S
C4736 C4735 1.415 . S
C4737 H4713 0.951 . S
C4737 C4738 1.366 . S
C4737 C4739 1.388 . S
C4738 C4737 1.366 . S
C4738 C4742 1.385 . S
C4739 H4714 0.951 . S
C4739 C4737 1.388 . S
C4739 C4740 1.366 . S
C4740 C4739 1.366 . S
C4740 C4741 1.414 . S
C4740 C4743 1.499 . S
C4741 H4715 0.950 . S
C4741 C4740 1.414 . S
C4741 C4742 1.374 . S
C4742 H4716 0.950 . S
C4742 C4738 1.385 . S
C4742 C4741 1.374 . S
C4743 C4740 1.499 . S
C4743 C4744 1.373 . S
C4743 C4745 1.389 . S
C4744 H4717 0.950 . S
C4744 C4730 1.377 . S
C4744 C4743 1.373 . S
C4745 C4729 1.377 . S
C4745 C4743 1.389 . S
C4745 C4746 1.524 . S
C4746 C4745 1.524 . S
C4746 C4747 1.397 . S
C4746 C4751 1.363 . S
C4747 H4718 0.950 . S
C4747 C4746 1.397 . S
C4747 C4748 1.334 . S
C4748 H4719 0.950 . S
C4748 C4747 1.334 . S
C4748 C4749 1.287 . S
C4749 C4748 1.287 . S
C4749 C4750 1.524 . S
C4749 H4752 0.999 . S
C4750 H4720 0.950 . S
C4750 C4749 1.524 . S
C4750 C4751 1.415 . S
C4751 H4721 0.950 . S
C4751 C4746 1.363 . S
C4751 C4750 1.415 . S
H4752 C4749 0.999 . S
H4753 C4734 0.913 . S
H4754 C4772 0.951 . S
H4755 C4774 0.951 . S
H4756 C4776 0.950 . S
H4757 C4777 0.950 . S
H4758 C4779 0.950 . S
H4759 C4782 0.950 . S
H4760 C4783 0.950 . S
H4761 C4785 0.950 . S
H4762 C4786 0.950 . S
H4763 C4787 0.951 . S
H4764 C4789 0.951 . S
H4765 C4791 0.950 . S
H4766 C4792 0.950 . S
H4767 C4794 0.950 . S
H4768 C4797 0.950 . S
H4769 C4798 0.950 . S
H4770 C4800 0.950 . S
H4771 C4801 0.950 . S
C4772 H4754 0.951 . S
C4772 C4773 1.366 . S
C4772 C4774 1.388 . S
C4773 C4772 1.366 . S
C4773 C4777 1.385 . S
C4774 H4755 0.951 . S
C4774 C4772 1.388 . S
C4774 C4775 1.366 . S
C4775 C4774 1.366 . S
C4775 C4776 1.414 . S
C4775 C4778 1.499 . S
C4776 H4756 0.950 . S
C4776 C4775 1.414 . S
C4776 C4777 1.374 . S
C4777 H4757 0.950 . S
C4777 C4773 1.385 . S
C4777 C4776 1.374 . S
C4778 C4775 1.499 . S
C4778 C4779 1.373 . S
C4778 C4780 1.389 . S
C4779 H4758 0.950 . S
C4779 C4778 1.373 . S
C4779 C4795 1.377 . S
C4780 C4778 1.389 . S
C4780 C4781 1.524 . S
C4780 C4794 1.377 . S
C4781 C4780 1.524 . S
C4781 C4782 1.397 . S
C4781 C4786 1.363 . S
C4782 H4759 0.950 . S
C4782 C4781 1.397 . S
C4782 C4783 1.334 . S
C4783 H4760 0.950 . S
C4783 C4782 1.334 . S
C4783 C4784 1.287 . S
C4784 C4783 1.287 . S
C4784 C4785 1.524 . S
C4784 H4803 0.913 . S
C4785 H4761 0.950 . S
C4785 C4784 1.524 . S
C4785 C4786 1.415 . S
C4786 H4762 0.950 . S
C4786 C4781 1.363 . S
C4786 C4785 1.415 . S
C4787 H4763 0.951 . S
C4787 C4788 1.366 . S
C4787 C4789 1.388 . S
C4788 C4787 1.366 . S
C4788 C4792 1.385 . S
C4789 H4764 0.951 . S
C4789 C4787 1.388 . S
C4789 C4790 1.366 . S
C4790 C4789 1.366 . S
C4790 C4791 1.414 . S
C4790 C4793 1.499 . S
C4791 H4765 0.950 . S
C4791 C4790 1.414 . S
C4791 C4792 1.374 . S
C4792 H4766 0.950 . S
C4792 C4788 1.385 . S
C4792 C4791 1.374 . S
C4793 C4790 1.499 . S
C4793 C4794 1.373 . S
C4793 C4795 1.389 . S
C4794 H4767 0.950 . S
C4794 C4780 1.377 . S
C4794 C4793 1.373 . S
C4795 C4779 1.377 . S
C4795 C4793 1.389 . S
C4795 C4796 1.524 . S
C4796 C4795 1.524 . S
C4796 C4797 1.397 . S
C4796 C4801 1.363 . S
C4797 H4768 0.950 . S
C4797 C4796 1.397 . S
C4797 C4798 1.334 . S
C4798 H4769 0.950 . S
C4798 C4797 1.334 . S
C4798 C4799 1.287 . S
C4799 C4798 1.287 . S
C4799 C4800 1.524 . S
C4799 H4802 0.999 . S
C4800 H4770 0.950 . S
C4800 C4799 1.524 . S
C4800 C4801 1.415 . S
C4801 H4771 0.950 . S
C4801 C4796 1.363 . S
C4801 C4800 1.415 . S
H4802 C4799 0.999 . S
H4803 C4784 0.913 . S
H4804 C4822 0.951 . S
H4805 C4824 0.951 . S
H4806 C4826 0.950 . S
H4807 C4827 0.950 . S
H4808 C4829 0.950 . S
H4809 C4832 0.950 . S
H4810 C4833 0.950 . S
H4811 C4835 0.950 . S
H4812 C4836 0.950 . S
H4813 C4837 0.951 . S
H4814 C4839 0.951 . S
H4815 C4841 0.950 . S
H4816 C4842 0.950 . S
H4817 C4844 0.950 . S
H4818 C4847 0.950 . S
H4819 C4848 0.950 . S
H4820 C4850 0.950 1_655 S
H4821 C4851 0.950 . S
C4822 H4804 0.951 . S
C4822 C4823 1.366 . S
C4822 C4824 1.388 . S
C4823 C4822 1.366 . S
C4823 C4827 1.385 . S
C4824 H4805 0.951 . S
C4824 C4822 1.388 . S
C4824 C4825 1.366 . S
C4825 C4824 1.366 . S
C4825 C4826 1.414 . S
C4825 C4828 1.499 . S
C4826 H4806 0.950 . S
C4826 C4825 1.414 . S
C4826 C4827 1.374 . S
C4827 H4807 0.950 . S
C4827 C4823 1.385 . S
C4827 C4826 1.374 . S
C4828 C4825 1.499 . S
C4828 C4829 1.373 . S
C4828 C4830 1.389 . S
C4829 H4808 0.950 . S
C4829 C4828 1.373 . S
C4829 C4845 1.377 . S
C4830 C4828 1.389 . S
C4830 C4831 1.524 . S
C4830 C4844 1.377 . S
C4831 C4830 1.524 . S
C4831 C4832 1.397 . S
C4831 C4836 1.363 . S
C4832 H4809 0.950 . S
C4832 C4831 1.397 . S
C4832 C4833 1.334 . S
C4833 H4810 0.950 . S
C4833 C4832 1.334 . S
C4833 C4834 1.287 . S
C4834 C4833 1.287 . S
C4834 C4835 1.524 . S
C4834 H4853 0.913 . S
C4835 H4811 0.950 . S
C4835 C4834 1.524 . S
C4835 C4836 1.415 . S
C4836 H4812 0.950 . S
C4836 C4831 1.363 . S
C4836 C4835 1.415 . S
C4837 H4813 0.951 . S
C4837 C4838 1.366 . S
C4837 C4839 1.388 . S
C4838 C4837 1.366 . S
C4838 C4842 1.385 . S
C4839 H4814 0.951 . S
C4839 C4837 1.388 . S
C4839 C4840 1.366 . S
C4840 C4839 1.366 . S
C4840 C4841 1.414 . S
C4840 C4843 1.499 . S
C4841 H4815 0.950 . S
C4841 C4840 1.414 . S
C4841 C4842 1.374 . S
C4842 H4816 0.950 . S
C4842 C4838 1.385 . S
C4842 C4841 1.374 . S
C4843 C4840 1.499 . S
C4843 C4844 1.373 . S
C4843 C4845 1.389 . S
C4844 H4817 0.950 . S
C4844 C4830 1.377 . S
C4844 C4843 1.373 . S
C4845 C4829 1.377 . S
C4845 C4843 1.389 . S
C4845 C4846 1.524 . S
C4846 C4845 1.524 . S
C4846 C4847 1.397 . S
C4846 C4851 1.363 . S
C4847 H4818 0.950 . S
C4847 C4846 1.397 . S
C4847 C4848 1.334 1_455 S
C4848 H4819 0.950 . S
C4848 C4847 1.334 1_655 S
C4848 C4849 1.287 . S
C4849 C4848 1.287 . S
C4849 C4850 1.524 1_655 S
C4849 H4852 0.999 . S
C4850 H4820 0.950 1_455 S
C4850 C4849 1.524 1_455 S
C4850 C4851 1.415 . S
C4851 H4821 0.950 . S
C4851 C4846 1.363 . S
C4851 C4850 1.415 . S
H4852 C4849 0.999 . S
H4853 C4834 0.913 . S
H4854 C4872 0.951 . S
H4855 C4874 0.951 . S
H4856 C4876 0.950 . S
H4857 C4877 0.950 . S
H4858 C4879 0.950 . S
H4859 C4882 0.950 . S
H4860 C4883 0.950 . S
H4861 C4885 0.950 . S
H4862 C4886 0.950 . S
H4863 C4887 0.951 . S
H4864 C4889 0.951 . S
H4865 C4891 0.950 . S
H4866 C4892 0.950 . S
H4867 C4894 0.950 . S
H4868 C4897 0.950 . S
H4869 C4898 0.950 . S
H4870 C4900 0.950 . S
H4871 C4901 0.950 . S
C4872 H4854 0.951 . S
C4872 C4873 1.366 . S
C4872 C4874 1.388 . S
C4873 C4872 1.366 . S
C4873 C4877 1.385 . S
C4874 H4855 0.951 . S
C4874 C4872 1.388 . S
C4874 C4875 1.366 . S
C4875 C4874 1.366 . S
C4875 C4876 1.414 . S
C4875 C4878 1.499 . S
C4876 H4856 0.950 . S
C4876 C4875 1.414 . S
C4876 C4877 1.374 . S
C4877 H4857 0.950 . S
C4877 C4873 1.385 . S
C4877 C4876 1.374 . S
C4878 C4875 1.499 . S
C4878 C4879 1.373 . S
C4878 C4880 1.389 . S
C4879 H4858 0.950 . S
C4879 C4878 1.373 . S
C4879 C4895 1.377 . S
C4880 C4878 1.389 . S
C4880 C4881 1.524 . S
C4880 C4894 1.377 . S
C4881 C4880 1.524 . S
C4881 C4882 1.397 . S
C4881 C4886 1.363 . S
C4882 H4859 0.950 . S
C4882 C4881 1.397 . S
C4882 C4883 1.334 . S
C4883 H4860 0.950 . S
C4883 C4882 1.334 . S
C4883 C4884 1.287 . S
C4884 C4883 1.287 . S
C4884 C4885 1.524 . S
C4884 H4903 0.913 . S
C4885 H4861 0.950 . S
C4885 C4884 1.524 . S
C4885 C4886 1.415 . S
C4886 H4862 0.950 . S
C4886 C4881 1.363 . S
C4886 C4885 1.415 . S
C4887 H4863 0.951 . S
C4887 C4888 1.366 . S
C4887 C4889 1.388 . S
C4888 C4887 1.366 . S
C4888 C4892 1.385 . S
C4889 H4864 0.951 . S
C4889 C4887 1.388 . S
C4889 C4890 1.366 . S
C4890 C4889 1.366 . S
C4890 C4891 1.414 . S
C4890 C4893 1.499 . S
C4891 H4865 0.950 . S
C4891 C4890 1.414 . S
C4891 C4892 1.374 . S
C4892 H4866 0.950 . S
C4892 C4888 1.385 . S
C4892 C4891 1.374 . S
C4893 C4890 1.499 . S
C4893 C4894 1.373 . S
C4893 C4895 1.389 . S
C4894 H4867 0.950 . S
C4894 C4880 1.377 . S
C4894 C4893 1.373 . S
C4895 C4879 1.377 . S
C4895 C4893 1.389 . S
C4895 C4896 1.524 . S
C4896 C4895 1.524 . S
C4896 C4897 1.397 . S
C4896 C4901 1.363 . S
C4897 H4868 0.950 . S
C4897 C4896 1.397 . S
C4897 C4898 1.334 . S
C4898 H4869 0.950 . S
C4898 C4897 1.334 . S
C4898 C4899 1.287 . S
C4899 C4898 1.287 . S
C4899 C4900 1.524 . S
C4899 H4902 0.999 . S
C4900 H4870 0.950 . S
C4900 C4899 1.524 . S
C4900 C4901 1.415 . S
C4901 H4871 0.950 . S
C4901 C4896 1.363 . S
C4901 C4900 1.415 . S
H4902 C4899 0.999 . S
H4903 C4884 0.913 . S
H4904 C4922 0.951 . S
H4905 C4924 0.951 . S
H4906 C4926 0.950 . S
H4907 C4927 0.950 . S
H4908 C4929 0.950 . S
H4909 C4932 0.950 . S
H4910 C4933 0.950 . S
H4911 C4935 0.950 . S
H4912 C4936 0.950 . S
H4913 C4937 0.951 . S
H4914 C4939 0.951 . S
H4915 C4941 0.950 . S
H4916 C4942 0.950 . S
H4917 C4944 0.950 . S
H4918 C4947 0.950 . S
H4919 C4948 0.950 . S
H4920 C4950 0.950 . S
H4921 C4951 0.950 . S
C4922 H4904 0.951 . S
C4922 C4923 1.366 . S
C4922 C4924 1.388 . S
C4923 C4922 1.366 . S
C4923 C4927 1.385 . S
C4924 H4905 0.951 . S
C4924 C4922 1.388 . S
C4924 C4925 1.366 . S
C4925 C4924 1.366 . S
C4925 C4926 1.414 . S
C4925 C4928 1.499 . S
C4926 H4906 0.950 . S
C4926 C4925 1.414 . S
C4926 C4927 1.374 . S
C4927 H4907 0.950 . S
C4927 C4923 1.385 . S
C4927 C4926 1.374 . S
C4928 C4925 1.499 . S
C4928 C4929 1.373 . S
C4928 C4930 1.389 . S
C4929 H4908 0.950 . S
C4929 C4928 1.373 . S
C4929 C4945 1.377 . S
C4930 C4928 1.389 . S
C4930 C4931 1.524 . S
C4930 C4944 1.377 . S
C4931 C4930 1.524 . S
C4931 C4932 1.397 . S
C4931 C4936 1.363 . S
C4932 H4909 0.950 . S
C4932 C4931 1.397 . S
C4932 C4933 1.334 . S
C4933 H4910 0.950 . S
C4933 C4932 1.334 . S
C4933 C4934 1.287 . S
C4934 C4933 1.287 . S
C4934 C4935 1.524 . S
C4934 H4953 0.913 . S
C4935 H4911 0.950 . S
C4935 C4934 1.524 . S
C4935 C4936 1.415 . S
C4936 H4912 0.950 . S
C4936 C4931 1.363 . S
C4936 C4935 1.415 . S
C4937 H4913 0.951 . S
C4937 C4938 1.366 . S
C4937 C4939 1.388 . S
C4938 C4937 1.366 . S
C4938 C4942 1.385 . S
C4939 H4914 0.951 . S
C4939 C4937 1.388 . S
C4939 C4940 1.366 . S
C4940 C4939 1.366 . S
C4940 C4941 1.414 . S
C4940 C4943 1.499 . S
C4941 H4915 0.950 . S
C4941 C4940 1.414 . S
C4941 C4942 1.374 . S
C4942 H4916 0.950 . S
C4942 C4938 1.385 . S
C4942 C4941 1.374 . S
C4943 C4940 1.499 . S
C4943 C4944 1.373 . S
C4943 C4945 1.389 . S
C4944 H4917 0.950 . S
C4944 C4930 1.377 . S
C4944 C4943 1.373 . S
C4945 C4929 1.377 . S
C4945 C4943 1.389 . S
C4945 C4946 1.524 . S
C4946 C4945 1.524 . S
C4946 C4947 1.397 . S
C4946 C4951 1.363 . S
C4947 H4918 0.950 . S
C4947 C4946 1.397 . S
C4947 C4948 1.334 . S
C4948 H4919 0.950 . S
C4948 C4947 1.334 . S
C4948 C4949 1.287 . S
C4949 C4948 1.287 . S
C4949 C4950 1.524 . S
C4949 H4952 0.999 . S
C4950 H4920 0.950 . S
C4950 C4949 1.524 . S
C4950 C4951 1.415 . S
C4951 H4921 0.950 . S
C4951 C4946 1.363 . S
C4951 C4950 1.415 . S
H4952 C4949 0.999 . S
H4953 C4934 0.913 . S
H4954 C4972 0.951 . S
H4955 C4974 0.951 . S
H4956 C4976 0.950 . S
H4957 C4977 0.950 . S
H4958 C4979 0.950 . S
H4959 C4982 0.950 . S
H4960 C4983 0.950 . S
H4961 C4985 0.950 . S
H4962 C4986 0.950 . S
H4963 C4987 0.951 . S
H4964 C4989 0.951 . S
H4965 C4991 0.950 . S
H4966 C4992 0.950 . S
H4967 C4994 0.950 . S
H4968 C4997 0.950 . S
H4969 C4998 0.950 . S
H4970 C5000 0.950 . S
H4971 C5001 0.950 . S
C4972 H4954 0.951 . S
C4972 C4973 1.366 . S
C4972 C4974 1.388 . S
C4973 C4972 1.366 . S
C4973 C4977 1.385 . S
C4974 H4955 0.951 . S
C4974 C4972 1.388 . S
C4974 C4975 1.366 . S
C4975 C4974 1.366 . S
C4975 C4976 1.414 . S
C4975 C4978 1.499 . S
C4976 H4956 0.950 . S
C4976 C4975 1.414 . S
C4976 C4977 1.374 . S
C4977 H4957 0.950 . S
C4977 C4973 1.385 . S
C4977 C4976 1.374 . S
C4978 C4975 1.499 . S
C4978 C4979 1.373 . S
C4978 C4980 1.389 . S
C4979 H4958 0.950 . S
C4979 C4978 1.373 . S
C4979 C4995 1.377 . S
C4980 C4978 1.389 . S
C4980 C4981 1.524 . S
C4980 C4994 1.377 . S
C4981 C4980 1.524 . S
C4981 C4982 1.397 . S
C4981 C4986 1.363 . S
C4982 H4959 0.950 . S
C4982 C4981 1.397 . S
C4982 C4983 1.334 . S
C4983 H4960 0.950 . S
C4983 C4982 1.334 . S
C4983 C4984 1.287 . S
C4984 C4983 1.287 . S
C4984 C4985 1.524 . S
C4984 H5003 0.913 . S
C4985 H4961 0.950 . S
C4985 C4984 1.524 . S
C4985 C4986 1.415 . S
C4986 H4962 0.950 . S
C4986 C4981 1.363 . S
C4986 C4985 1.415 . S
C4987 H4963 0.951 . S
C4987 C4988 1.366 . S
C4987 C4989 1.388 . S
C4988 C4987 1.366 . S
C4988 C4992 1.385 . S
C4989 H4964 0.951 . S
C4989 C4987 1.388 . S
C4989 C4990 1.366 . S
C4990 C4989 1.366 . S
C4990 C4991 1.414 . S
C4990 C4993 1.499 . S
C4991 H4965 0.950 . S
C4991 C4990 1.414 . S
C4991 C4992 1.374 . S
C4992 H4966 0.950 . S
C4992 C4988 1.385 . S
C4992 C4991 1.374 . S
C4993 C4990 1.499 . S
C4993 C4994 1.373 . S
C4993 C4995 1.389 . S
C4994 H4967 0.950 . S
C4994 C4980 1.377 . S
C4994 C4993 1.373 . S
C4995 C4979 1.377 . S
C4995 C4993 1.389 . S
C4995 C4996 1.524 . S
C4996 C4995 1.524 . S
C4996 C4997 1.397 . S
C4996 C5001 1.363 . S
C4997 H4968 0.950 . S
C4997 C4996 1.397 . S
C4997 C4998 1.334 . S
C4998 H4969 0.950 . S
C4998 C4997 1.334 . S
C4998 C4999 1.287 . S
C4999 C4998 1.287 . S
C4999 C5000 1.524 . S
C4999 H5002 0.999 . S
C5000 H4970 0.950 . S
C5000 C4999 1.524 . S
C5000 C5001 1.415 . S
C5001 H4971 0.950 . S
C5001 C4996 1.363 . S
C5001 C5000 1.415 . S
H5002 C4999 0.999 . S
H5003 C4984 0.913 . S
H5004 C5022 0.951 . S
H5005 C5024 0.951 . S
H5006 C5026 0.950 . S
H5007 C5027 0.950 . S
H5008 C5029 0.950 . S
H5009 C5032 0.950 . S
H5010 C5033 0.950 . S
H5011 C5035 0.977 . S
H5012 C5036 0.950 . S
H5013 C5037 0.951 . S
H5014 C5039 0.951 . S
H5015 C5041 0.950 . S
H5016 C5042 0.952 . S
H5017 C5044 0.950 . S
H5018 C5047 0.950 . S
H5019 C5048 0.950 . S
H5020 C5050 0.950 . S
H5021 C5051 0.950 . S
C5022 H5004 0.951 . S
C5022 C5023 1.366 . S
C5022 C5024 1.388 . S
C5023 C5022 1.366 . S
C5023 C5027 1.385 . S
C5024 H5005 0.951 . S
C5024 C5022 1.388 . S
C5024 C5025 1.366 . S
C5025 C5024 1.366 . S
C5025 C5026 1.414 . S
C5025 C5028 1.499 . S
C5026 H5006 0.950 . S
C5026 C5025 1.414 . S
C5026 C5027 1.374 . S
C5027 H5007 0.950 . S
C5027 C5023 1.385 . S
C5027 C5026 1.374 . S
C5028 C5025 1.499 . S
C5028 C5029 1.373 . S
C5028 C5030 1.389 . S
C5029 H5008 0.950 . S
C5029 C5028 1.373 . S
C5029 C5045 1.377 . S
C5030 C5028 1.389 . S
C5030 C5031 1.524 . S
C5030 C5044 1.377 . S
C5031 C5030 1.524 . S
C5031 C5032 1.397 . S
C5031 C5036 1.363 . S
C5032 H5009 0.950 . S
C5032 C5031 1.397 . S
C5032 C5033 1.334 . S
C5033 H5010 0.950 . S
C5033 C5032 1.334 . S
C5033 C5034 1.287 . S
C5034 C5033 1.287 . S
C5034 C5035 1.524 . S
C5034 H5053 0.913 . S
C5035 H5011 0.977 . S
C5035 C5034 1.524 . S
C5035 C5036 1.415 . S
C5036 H5012 0.950 . S
C5036 C5031 1.363 . S
C5036 C5035 1.415 . S
C5037 H5013 0.951 . S
C5037 C5038 1.366 . S
C5037 C5039 1.388 . S
C5038 C5037 1.366 . S
C5038 C5042 1.385 . S
C5039 H5014 0.951 . S
C5039 C5037 1.388 . S
C5039 C5040 1.366 . S
C5040 C5039 1.366 . S
C5040 C5041 1.414 . S
C5040 C5043 1.499 . S
C5041 H5015 0.950 . S
C5041 C5040 1.414 . S
C5041 C5042 1.374 . S
C5042 H5016 0.952 . S
C5042 C5038 1.385 . S
C5042 C5041 1.374 . S
C5043 C5040 1.499 . S
C5043 C5044 1.373 . S
C5043 C5045 1.389 . S
C5044 H5017 0.950 . S
C5044 C5030 1.377 . S
C5044 C5043 1.373 . S
C5045 C5029 1.377 . S
C5045 C5043 1.389 . S
C5045 C5046 1.524 . S
C5046 C5045 1.524 . S
C5046 C5047 1.397 . S
C5046 C5051 1.363 . S
C5047 H5018 0.950 . S
C5047 C5046 1.397 . S
C5047 C5048 1.334 . S
C5048 H5019 0.950 . S
C5048 C5047 1.334 . S
C5048 C5049 1.287 . S
C5049 C5048 1.287 . S
C5049 C5050 1.524 . S
C5049 H5052 0.999 . S
C5050 H5020 0.950 . S
C5050 C5049 1.524 . S
C5050 C5051 1.415 . S
C5051 H5021 0.950 . S
C5051 C5046 1.363 . S
C5051 C5050 1.415 . S
H5052 C5049 0.999 . S
H5053 C5034 0.913 . S
H5054 C5072 0.951 . S
H5055 C5074 0.951 . S
H5056 C5076 0.950 . S
H5057 C5077 0.950 . S
H5058 C5079 0.950 . S
H5059 C5082 0.950 . S
H5060 C5083 0.950 . S
H5061 C5085 0.950 . S
H5062 C5086 0.950 . S
H5063 C5087 0.951 . S
H5064 C5089 0.951 . S
H5065 C5091 0.950 . S
H5066 C5092 0.950 . S
H5067 C5094 0.950 . S
H5068 C5097 0.950 . S
H5069 C5098 0.950 . S
H5070 C5100 0.950 . S
H5071 C5101 0.950 . S
C5072 H5054 0.951 . S
C5072 C5073 1.366 . S
C5072 C5074 1.388 . S
C5073 C5072 1.366 . S
C5073 C5077 1.385 . S
C5074 H5055 0.951 . S
C5074 C5072 1.388 . S
C5074 C5075 1.366 . S
C5075 C5074 1.366 . S
C5075 C5076 1.414 . S
C5075 C5078 1.499 . S
C5076 H5056 0.950 . S
C5076 C5075 1.414 . S
C5076 C5077 1.374 . S
C5077 H5057 0.950 . S
C5077 C5073 1.385 . S
C5077 C5076 1.374 . S
C5078 C5075 1.499 . S
C5078 C5079 1.373 . S
C5078 C5080 1.389 . S
C5079 H5058 0.950 . S
C5079 C5078 1.373 . S
C5079 C5095 1.377 . S
C5080 C5078 1.389 . S
C5080 C5081 1.524 . S
C5080 C5094 1.377 . S
C5081 C5080 1.524 . S
C5081 C5082 1.397 . S
C5081 C5086 1.363 . S
C5082 H5059 0.950 . S
C5082 C5081 1.397 . S
C5082 C5083 1.334 . S
C5083 H5060 0.950 . S
C5083 C5082 1.334 . S
C5083 C5084 1.287 . S
C5084 C5083 1.287 . S
C5084 C5085 1.524 . S
C5084 H5103 0.913 . S
C5085 H5061 0.950 . S
C5085 C5084 1.524 . S
C5085 C5086 1.415 . S
C5086 H5062 0.950 . S
C5086 C5081 1.363 . S
C5086 C5085 1.415 . S
C5087 H5063 0.951 . S
C5087 C5088 1.366 . S
C5087 C5089 1.388 . S
C5088 C5087 1.366 . S
C5088 C5092 1.385 . S
C5089 H5064 0.951 . S
C5089 C5087 1.388 . S
C5089 C5090 1.366 . S
C5090 C5089 1.366 . S
C5090 C5091 1.414 . S
C5090 C5093 1.499 . S
C5091 H5065 0.950 . S
C5091 C5090 1.414 . S
C5091 C5092 1.374 . S
C5092 H5066 0.950 . S
C5092 C5088 1.385 . S
C5092 C5091 1.374 . S
C5093 C5090 1.499 . S
C5093 C5094 1.373 . S
C5093 C5095 1.389 . S
C5094 H5067 0.950 . S
C5094 C5080 1.377 . S
C5094 C5093 1.373 . S
C5095 C5079 1.377 . S
C5095 C5093 1.389 . S
C5095 C5096 1.524 . S
C5096 C5095 1.524 . S
C5096 C5097 1.397 . S
C5096 C5101 1.363 . S
C5097 H5068 0.950 . S
C5097 C5096 1.397 . S
C5097 C5098 1.334 . S
C5098 H5069 0.950 . S
C5098 C5097 1.334 . S
C5098 C5099 1.287 . S
C5099 C5098 1.287 . S
C5099 C5100 1.524 . S
C5099 H5102 0.999 . S
C5100 H5070 0.950 . S
C5100 C5099 1.524 . S
C5100 C5101 1.415 . S
C5101 H5071 0.950 . S
C5101 C5096 1.363 . S
C5101 C5100 1.415 . S
H5102 C5099 0.999 . S
H5103 C5084 0.913 . S
H5104 C5122 0.951 . S
H5105 C5124 0.951 . S
H5106 C5126 0.950 . S
H5107 C5127 0.950 . S
H5108 C5129 0.950 . S
H5109 C5132 0.950 . S
H5110 C5133 0.950 . S
H5111 C5135 0.950 . S
H5112 C5136 0.950 . S
H5113 C5137 0.951 . S
H5114 C5139 0.951 . S
H5115 C5141 0.950 . S
H5116 C5142 0.950 . S
H5117 C5144 0.950 . S
H5118 C5147 0.950 . S
H5119 C5148 0.950 . S
H5120 C5150 0.950 . S
H5121 C5151 0.950 . S
C5122 H5104 0.951 . S
C5122 C5123 1.366 . S
C5122 C5124 1.388 . S
C5123 C5122 1.366 . S
C5123 C5127 1.385 . S
C5124 H5105 0.951 . S
C5124 C5122 1.388 . S
C5124 C5125 1.366 . S
C5125 C5124 1.366 . S
C5125 C5126 1.414 . S
C5125 C5128 1.499 . S
C5126 H5106 0.950 . S
C5126 C5125 1.414 . S
C5126 C5127 1.374 . S
C5127 H5107 0.950 . S
C5127 C5123 1.385 . S
C5127 C5126 1.374 . S
C5128 C5125 1.499 . S
C5128 C5129 1.373 . S
C5128 C5130 1.389 . S
C5129 H5108 0.950 . S
C5129 C5128 1.373 . S
C5129 C5145 1.377 . S
C5130 C5128 1.389 . S
C5130 C5131 1.524 . S
C5130 C5144 1.377 . S
C5131 C5130 1.524 . S
C5131 C5132 1.397 . S
C5131 C5136 1.363 . S
C5132 H5109 0.950 . S
C5132 C5131 1.397 . S
C5132 C5133 1.334 . S
C5133 H5110 0.950 . S
C5133 C5132 1.334 . S
C5133 C5134 1.287 . S
C5134 C5133 1.287 . S
C5134 C5135 1.524 . S
C5134 H5153 0.913 . S
C5135 H5111 0.950 . S
C5135 C5134 1.524 . S
C5135 C5136 1.415 . S
C5136 H5112 0.950 . S
C5136 C5131 1.363 . S
C5136 C5135 1.415 . S
C5137 H5113 0.951 . S
C5137 C5138 1.366 . S
C5137 C5139 1.388 . S
C5138 C5137 1.366 . S
C5138 C5142 1.385 . S
C5139 H5114 0.951 . S
C5139 C5137 1.388 . S
C5139 C5140 1.366 . S
C5140 C5139 1.366 . S
C5140 C5141 1.414 . S
C5140 C5143 1.499 . S
C5141 H5115 0.950 . S
C5141 C5140 1.414 . S
C5141 C5142 1.374 . S
C5142 H5116 0.950 . S
C5142 C5138 1.385 . S
C5142 C5141 1.374 . S
C5143 C5140 1.499 . S
C5143 C5144 1.373 . S
C5143 C5145 1.389 . S
C5144 H5117 0.950 . S
C5144 C5130 1.377 . S
C5144 C5143 1.373 . S
C5145 C5129 1.377 . S
C5145 C5143 1.389 . S
C5145 C5146 1.524 . S
C5146 C5145 1.524 . S
C5146 C5147 1.397 . S
C5146 C5151 1.363 . S
C5147 H5118 0.950 . S
C5147 C5146 1.397 . S
C5147 C5148 1.334 . S
C5148 H5119 0.950 . S
C5148 C5147 1.334 . S
C5148 C5149 1.287 . S
C5149 C5148 1.287 . S
C5149 C5150 1.524 . S
C5149 H5152 0.999 . S
C5150 H5120 0.950 . S
C5150 C5149 1.524 . S
C5150 C5151 1.415 . S
C5151 H5121 0.950 . S
C5151 C5146 1.363 . S
C5151 C5150 1.415 . S
H5152 C5149 0.999 . S
H5153 C5134 0.913 . S
H5154 C5172 0.951 . S
H5155 C5174 0.951 . S
H5156 C5176 0.950 . S
H5157 C5177 0.950 . S
H5158 C5179 0.950 . S
H5159 C5182 0.950 . S
H5160 C5183 0.950 . S
H5161 C5185 0.950 . S
H5162 C5186 0.950 . S
H5163 C5187 0.951 . S
H5164 C5189 0.951 . S
H5165 C5191 0.950 . S
H5166 C5192 0.950 . S
H5167 C5194 0.950 . S
H5168 C5197 0.950 . S
H5169 C5198 0.950 . S
H5170 C5200 0.950 . S
H5171 C5201 0.950 . S
C5172 H5154 0.951 . S
C5172 C5173 1.366 . S
C5172 C5174 1.388 . S
C5173 C5172 1.366 . S
C5173 C5177 1.385 . S
C5174 H5155 0.951 . S
C5174 C5172 1.388 . S
C5174 C5175 1.366 . S
C5175 C5174 1.366 . S
C5175 C5176 1.414 . S
C5175 C5178 1.499 . S
C5176 H5156 0.950 . S
C5176 C5175 1.414 . S
C5176 C5177 1.374 . S
C5177 H5157 0.950 . S
C5177 C5173 1.385 . S
C5177 C5176 1.374 . S
C5178 C5175 1.499 . S
C5178 C5179 1.373 . S
C5178 C5180 1.389 . S
C5179 H5158 0.950 . S
C5179 C5178 1.373 . S
C5179 C5195 1.377 . S
C5180 C5178 1.389 . S
C5180 C5181 1.524 . S
C5180 C5194 1.377 . S
C5181 C5180 1.524 . S
C5181 C5182 1.397 . S
C5181 C5186 1.363 . S
C5182 H5159 0.950 . S
C5182 C5181 1.397 . S
C5182 C5183 1.334 . S
C5183 H5160 0.950 . S
C5183 C5182 1.334 . S
C5183 C5184 1.287 . S
C5184 C5183 1.287 . S
C5184 C5185 1.524 . S
C5184 H5203 0.913 . S
C5185 H5161 0.950 . S
C5185 C5184 1.524 . S
C5185 C5186 1.415 . S
C5186 H5162 0.950 . S
C5186 C5181 1.363 . S
C5186 C5185 1.415 . S
C5187 H5163 0.951 . S
C5187 C5188 1.366 . S
C5187 C5189 1.388 . S
C5188 C5187 1.366 . S
C5188 C5192 1.385 . S
C5189 H5164 0.951 . S
C5189 C5187 1.388 . S
C5189 C5190 1.366 . S
C5190 C5189 1.366 . S
C5190 C5191 1.414 . S
C5190 C5193 1.499 . S
C5191 H5165 0.950 . S
C5191 C5190 1.414 . S
C5191 C5192 1.374 . S
C5192 H5166 0.950 . S
C5192 C5188 1.385 . S
C5192 C5191 1.374 . S
C5193 C5190 1.499 . S
C5193 C5194 1.373 . S
C5193 C5195 1.389 . S
C5194 H5167 0.950 . S
C5194 C5180 1.377 . S
C5194 C5193 1.373 . S
C5195 C5179 1.377 . S
C5195 C5193 1.389 . S
C5195 C5196 1.524 . S
C5196 C5195 1.524 . S
C5196 C5197 1.397 . S
C5196 C5201 1.363 . S
C5197 H5168 0.950 . S
C5197 C5196 1.397 . S
C5197 C5198 1.334 . S
C5198 H5169 0.950 . S
C5198 C5197 1.334 . S
C5198 C5199 1.287 . S
C5199 C5198 1.287 . S
C5199 C5200 1.524 . S
C5199 H5202 0.999 . S
C5200 H5170 0.950 . S
C5200 C5199 1.524 . S
C5200 C5201 1.415 . S
C5201 H5171 0.950 . S
C5201 C5196 1.363 . S
C5201 C5200 1.415 . S
H5202 C5199 0.999 . S
H5203 C5184 0.913 . S
H5204 C5222 0.951 . S
H5205 C5224 0.951 . S
H5206 C5226 0.950 . S
H5207 C5227 0.950 . S
H5208 C5229 0.950 . S
H5209 C5232 0.950 . S
H5210 C5233 0.950 . S
H5211 C5235 0.950 . S
H5212 C5236 0.950 . S
H5213 C5237 0.951 . S
H5214 C5239 0.951 . S
H5215 C5241 0.950 . S
H5216 C5242 0.950 . S
H5217 C5244 0.950 . S
H5218 C5247 0.950 . S
H5219 C5248 0.950 . S
H5220 C5250 0.950 . S
H5221 C5251 0.950 . S
C5222 H5204 0.951 . S
C5222 C5223 1.366 . S
C5222 C5224 1.388 . S
C5223 C5222 1.366 . S
C5223 C5227 1.385 . S
C5224 H5205 0.951 . S
C5224 C5222 1.388 . S
C5224 C5225 1.366 . S
C5225 C5224 1.366 . S
C5225 C5226 1.414 . S
C5225 C5228 1.499 . S
C5226 H5206 0.950 . S
C5226 C5225 1.414 . S
C5226 C5227 1.374 . S
C5227 H5207 0.950 . S
C5227 C5223 1.385 . S
C5227 C5226 1.374 . S
C5228 C5225 1.499 . S
C5228 C5229 1.373 . S
C5228 C5230 1.389 . S
C5229 H5208 0.950 . S
C5229 C5228 1.373 . S
C5229 C5245 1.377 . S
C5230 C5228 1.389 . S
C5230 C5231 1.524 . S
C5230 C5244 1.377 . S
C5231 C5230 1.524 . S
C5231 C5232 1.397 . S
C5231 C5236 1.363 . S
C5232 H5209 0.950 . S
C5232 C5231 1.397 . S
C5232 C5233 1.334 . S
C5233 H5210 0.950 . S
C5233 C5232 1.334 . S
C5233 C5234 1.287 . S
C5234 C5233 1.287 . S
C5234 C5235 1.524 . S
C5234 H5253 0.913 . S
C5235 H5211 0.950 . S
C5235 C5234 1.524 . S
C5235 C5236 1.415 . S
C5236 H5212 0.950 . S
C5236 C5231 1.363 . S
C5236 C5235 1.415 . S
C5237 H5213 0.951 . S
C5237 C5238 1.366 . S
C5237 C5239 1.388 . S
C5238 C5237 1.366 . S
C5238 C5242 1.385 . S
C5239 H5214 0.951 . S
C5239 C5237 1.388 . S
C5239 C5240 1.366 . S
C5240 C5239 1.366 . S
C5240 C5241 1.414 . S
C5240 C5243 1.499 . S
C5241 H5215 0.950 . S
C5241 C5240 1.414 . S
C5241 C5242 1.374 . S
C5242 H5216 0.950 . S
C5242 C5238 1.385 . S
C5242 C5241 1.374 . S
C5243 C5240 1.499 . S
C5243 C5244 1.373 . S
C5243 C5245 1.389 . S
C5244 H5217 0.950 . S
C5244 C5230 1.377 . S
C5244 C5243 1.373 . S
C5245 C5229 1.377 . S
C5245 C5243 1.389 . S
C5245 C5246 1.524 . S
C5246 C5245 1.524 . S
C5246 C5247 1.397 . S
C5246 C5251 1.363 . S
C5247 H5218 0.950 . S
C5247 C5246 1.397 . S
C5247 C5248 1.334 . S
C5248 H5219 0.950 . S
C5248 C5247 1.334 . S
C5248 C5249 1.287 . S
C5249 C5248 1.287 . S
C5249 C5250 1.524 . S
C5249 H5252 0.999 . S
C5250 H5220 0.950 . S
C5250 C5249 1.524 . S
C5250 C5251 1.415 . S
C5251 H5221 0.950 . S
C5251 C5246 1.363 . S
C5251 C5250 1.415 . S
H5252 C5249 0.999 . S
H5253 C5234 0.913 . S
H5254 C5272 0.951 . S
H5255 C5274 0.951 . S
H5256 C5276 0.950 . S
H5257 C5277 0.950 . S
H5258 C5279 0.950 . S
H5259 C5282 0.950 . S
H5260 C5283 0.950 . S
H5261 C5285 0.993 . S
H5262 C5286 0.950 . S
H5263 C5287 0.951 . S
H5264 C5289 0.951 . S
H5265 C5291 0.950 . S
H5266 C5292 0.950 . S
H5267 C5294 0.950 . S
H5268 C5297 0.950 . S
H5269 C5298 0.950 . S
H5270 C5300 0.950 1_554 S
H5271 C5301 0.944 1_554 S
C5272 H5254 0.951 . S
C5272 C5273 1.366 1_556 S
C5272 C5274 1.388 . S
C5273 C5272 1.366 1_554 S
C5273 C5277 1.385 . S
C5274 H5255 0.951 . S
C5274 C5272 1.388 . S
C5274 C5275 1.358 1_556 S
C5275 C5274 1.358 1_554 S
C5275 C5276 1.422 . S
C5275 C5278 1.497 1_554 S
C5276 H5256 0.950 . S
C5276 C5275 1.422 . S
C5276 C5277 1.374 . S
C5277 H5257 0.950 . S
C5277 C5273 1.385 . S
C5277 C5276 1.374 . S
C5278 C5275 1.497 1_556 S
C5278 C5279 1.378 . S
C5278 C5280 1.390 1_556 S
C5279 H5258 0.950 . S
C5279 C5278 1.378 . S
C5279 C5295 1.377 . S
C5280 C5278 1.390 1_554 S
C5280 C5281 1.525 . S
C5280 C5294 1.376 1_554 S
C5281 C5280 1.525 . S
C5281 C5282 1.397 . S
C5281 C5286 1.363 1_554 S
C5282 H5259 0.950 . S
C5282 C5281 1.397 . S
C5282 C5283 1.334 . S
C5283 H5260 0.950 . S
C5283 C5282 1.334 . S
C5283 C5284 1.287 . S
C5284 C5283 1.287 . S
C5284 C5285 1.482 1_564 S
C5284 H5303 0.913 1_565 S
C5285 H5261 0.993 . S
C5285 C5284 1.482 1_546 S
C5285 C5286 1.409 1_545 S
C5286 H5262 0.950 . S
C5286 C5281 1.363 1_556 S
C5286 C5285 1.409 1_565 S
C5287 H5263 0.951 . S
C5287 C5288 1.366 1_554 S
C5287 C5289 1.388 . S
C5288 C5287 1.366 1_556 S
C5288 C5292 1.385 . S
C5289 H5264 0.951 . S
C5289 C5287 1.388 . S
C5289 C5290 1.366 1_554 S
C5290 C5289 1.366 1_556 S
C5290 C5291 1.414 . S
C5290 C5293 1.499 . S
C5291 H5265 0.950 . S
C5291 C5290 1.414 . S
C5291 C5292 1.374 . S
C5292 H5266 0.950 . S
C5292 C5288 1.385 . S
C5292 C5291 1.374 . S
C5293 C5290 1.499 . S
C5293 C5294 1.373 . S
C5293 C5295 1.389 . S
C5294 H5267 0.950 . S
C5294 C5280 1.376 1_556 S
C5294 C5293 1.373 . S
C5295 C5279 1.377 . S
C5295 C5293 1.389 . S
C5295 C5296 1.524 . S
C5296 C5295 1.524 . S
C5296 C5297 1.397 . S
C5296 C5301 1.368 . S
C5297 H5268 0.950 . S
C5297 C5296 1.397 . S
C5297 C5298 1.334 . S
C5298 H5269 0.950 . S
C5298 C5297 1.334 . S
C5298 C5299 1.287 . S
C5299 C5298 1.287 . S
C5299 C5300 1.524 . S
C5299 H5302 0.999 . S
C5300 H5270 0.950 1_556 S
C5300 C5299 1.524 . S
C5300 C5301 1.417 . S
C5301 H5271 0.944 1_556 S
C5301 C5296 1.368 . S
C5301 C5300 1.417 . S
H5302 C5299 0.999 . S
H5303 C5284 0.913 1_545 S
H5304 C5322 0.951 . S
H5305 C5324 0.951 . S
H5306 C5326 0.950 . S
H5307 C5327 0.950 . S
H5308 C5329 0.950 . S
H5309 C5332 0.950 . S
H5310 C5333 0.950 . S
H5311 C5335 0.950 . S
H5312 C5336 0.950 . S
H5313 C5337 0.951 . S
H5314 C5339 0.951 . S
H5315 C5341 0.950 . S
H5316 C5342 0.950 . S
H5317 C5344 0.950 . S
H5318 C5347 0.950 . S
H5319 C5348 0.950 . S
H5320 C5350 0.950 . S
H5321 C5351 0.950 . S
C5322 H5304 0.951 . S
C5322 C5323 1.366 . S
C5322 C5324 1.388 . S
C5323 C5322 1.366 . S
C5323 C5327 1.385 . S
C5324 H5305 0.951 . S
C5324 C5322 1.388 . S
C5324 C5325 1.366 . S
C5325 C5324 1.366 . S
C5325 C5326 1.414 . S
C5325 C5328 1.499 . S
C5326 H5306 0.950 . S
C5326 C5325 1.414 . S
C5326 C5327 1.374 . S
C5327 H5307 0.950 . S
C5327 C5323 1.385 . S
C5327 C5326 1.374 . S
C5328 C5325 1.499 . S
C5328 C5329 1.373 . S
C5328 C5330 1.389 . S
C5329 H5308 0.950 . S
C5329 C5328 1.373 . S
C5329 C5345 1.377 . S
C5330 C5328 1.389 . S
C5330 C5331 1.524 . S
C5330 C5344 1.377 . S
C5331 C5330 1.524 . S
C5331 C5332 1.397 . S
C5331 C5336 1.363 . S
C5332 H5309 0.950 . S
C5332 C5331 1.397 . S
C5332 C5333 1.334 . S
C5333 H5310 0.950 . S
C5333 C5332 1.334 . S
C5333 C5334 1.287 . S
C5334 C5333 1.287 . S
C5334 C5335 1.524 . S
C5334 H5353 0.913 . S
C5335 H5311 0.950 . S
C5335 C5334 1.524 . S
C5335 C5336 1.415 . S
C5336 H5312 0.950 . S
C5336 C5331 1.363 . S
C5336 C5335 1.415 . S
C5337 H5313 0.951 . S
C5337 C5338 1.366 . S
C5337 C5339 1.388 . S
C5338 C5337 1.366 . S
C5338 C5342 1.385 . S
C5339 H5314 0.951 . S
C5339 C5337 1.388 . S
C5339 C5340 1.366 . S
C5340 C5339 1.366 . S
C5340 C5341 1.414 . S
C5340 C5343 1.499 . S
C5341 H5315 0.950 . S
C5341 C5340 1.414 . S
C5341 C5342 1.374 . S
C5342 H5316 0.950 . S
C5342 C5338 1.385 . S
C5342 C5341 1.374 . S
C5343 C5340 1.499 . S
C5343 C5344 1.373 . S
C5343 C5345 1.389 . S
C5344 H5317 0.950 . S
C5344 C5330 1.377 . S
C5344 C5343 1.373 . S
C5345 C5329 1.377 . S
C5345 C5343 1.389 . S
C5345 C5346 1.524 . S
C5346 C5345 1.524 . S
C5346 C5347 1.397 . S
C5346 C5351 1.363 . S
C5347 H5318 0.950 . S
C5347 C5346 1.397 . S
C5347 C5348 1.334 . S
C5348 H5319 0.950 . S
C5348 C5347 1.334 . S
C5348 C5349 1.287 . S
C5349 C5348 1.287 . S
C5349 C5350 1.524 . S
C5349 H5352 0.999 . S
C5350 H5320 0.950 . S
C5350 C5349 1.524 . S
C5350 C5351 1.415 . S
C5351 H5321 0.950 . S
C5351 C5346 1.363 . S
C5351 C5350 1.415 . S
H5352 C5349 0.999 . S
H5353 C5334 0.913 . S
H5354 C5372 0.951 . S
H5355 C5374 0.951 . S
H5356 C5376 0.950 . S
H5357 C5377 0.950 1_556 S
H5358 C5379 0.950 . S
H5359 C5382 0.950 . S
H5360 C5383 0.950 . S
H5361 C5385 0.950 . S
H5362 C5386 0.950 1_554 S
H5363 C5387 0.951 . S
H5364 C5389 0.951 . S
H5365 C5391 0.950 . S
H5366 C5392 0.950 . S
H5367 C5394 0.950 . S
H5368 C5397 0.950 . S
H5369 C5398 0.950 . S
H5370 C5400 0.950 . S
H5371 C5401 0.950 . S
C5372 H5354 0.951 . S
C5372 C5373 1.366 . S
C5372 C5374 1.388 . S
C5373 C5372 1.366 . S
C5373 C5377 1.385 . S
C5374 H5355 0.951 . S
C5374 C5372 1.388 . S
C5374 C5375 1.366 . S
C5375 C5374 1.366 . S
C5375 C5376 1.414 . S
C5375 C5378 1.499 . S
C5376 H5356 0.950 . S
C5376 C5375 1.414 . S
C5376 C5377 1.374 . S
C5377 H5357 0.950 1_554 S
C5377 C5373 1.385 . S
C5377 C5376 1.374 . S
C5378 C5375 1.499 . S
C5378 C5379 1.373 . S
C5378 C5380 1.389 . S
C5379 H5358 0.950 . S
C5379 C5378 1.373 . S
C5379 C5395 1.377 . S
C5380 C5378 1.389 . S
C5380 C5381 1.524 1_554 S
C5380 C5394 1.377 . S
C5381 C5380 1.524 1_556 S
C5381 C5382 1.397 . S
C5381 C5386 1.363 . S
C5382 H5359 0.950 . S
C5382 C5381 1.397 . S
C5382 C5383 1.334 . S
C5383 H5360 0.950 . S
C5383 C5382 1.334 . S
C5383 C5384 1.287 . S
C5384 C5383 1.287 . S
C5384 C5385 1.524 . S
C5384 H5403 0.913 . S
C5385 H5361 0.950 . S
C5385 C5384 1.524 . S
C5385 C5386 1.415 . S
C5386 H5362 0.950 1_556 S
C5386 C5381 1.363 . S
C5386 C5385 1.415 . S
C5387 H5363 0.951 . S
C5387 C5388 1.366 . S
C5387 C5389 1.388 . S
C5388 C5387 1.366 . S
C5388 C5392 1.385 . S
C5389 H5364 0.951 . S
C5389 C5387 1.388 . S
C5389 C5390 1.366 . S
C5390 C5389 1.366 . S
C5390 C5391 1.414 . S
C5390 C5393 1.499 . S
C5391 H5365 0.950 . S
C5391 C5390 1.414 . S
C5391 C5392 1.374 . S
C5392 H5366 0.950 . S
C5392 C5388 1.385 . S
C5392 C5391 1.374 . S
C5393 C5390 1.499 . S
C5393 C5394 1.373 . S
C5393 C5395 1.389 . S
C5394 H5367 0.950 . S
C5394 C5380 1.377 . S
C5394 C5393 1.373 . S
C5395 C5379 1.377 . S
C5395 C5393 1.389 . S
C5395 C5396 1.524 . S
C5396 C5395 1.524 . S
C5396 C5397 1.397 . S
C5396 C5401 1.363 . S
C5397 H5368 0.950 . S
C5397 C5396 1.397 . S
C5397 C5398 1.334 . S
C5398 H5369 0.950 . S
C5398 C5397 1.334 . S
C5398 C5399 1.287 . S
C5399 C5398 1.287 . S
C5399 C5400 1.524 . S
C5399 H5402 0.999 . S
C5400 H5370 0.950 . S
C5400 C5399 1.524 . S
C5400 C5401 1.415 . S
C5401 H5371 0.950 . S
C5401 C5396 1.363 . S
C5401 C5400 1.415 . S
H5402 C5399 0.999 . S
H5403 C5384 0.913 . S
H5404 C5422 0.951 . S
H5405 C5424 0.951 . S
H5406 C5426 0.950 . S
H5407 C5427 0.950 . S
H5408 C5429 0.950 . S
H5409 C5432 0.950 . S
H5410 C5433 0.950 . S
H5411 C5435 0.950 . S
H5412 C5436 0.950 . S
H5413 C5437 0.951 . S
H5414 C5439 0.951 . S
H5415 C5441 0.950 . S
H5416 C5442 0.950 . S
H5417 C5444 0.950 . S
H5418 C5447 0.950 . S
H5419 C5448 0.950 . S
H5420 C5450 0.950 . S
H5421 C5451 0.950 . S
C5422 H5404 0.951 . S
C5422 C5423 1.366 . S
C5422 C5424 1.388 . S
C5423 C5422 1.366 . S
C5423 C5427 1.385 . S
C5424 H5405 0.951 . S
C5424 C5422 1.388 . S
C5424 C5425 1.366 . S
C5425 C5424 1.366 . S
C5425 C5426 1.414 . S
C5425 C5428 1.499 . S
C5426 H5406 0.950 . S
C5426 C5425 1.414 . S
C5426 C5427 1.374 . S
C5427 H5407 0.950 . S
C5427 C5423 1.385 . S
C5427 C5426 1.374 . S
C5428 C5425 1.499 . S
C5428 C5429 1.373 . S
C5428 C5430 1.389 . S
C5429 H5408 0.950 . S
C5429 C5428 1.373 . S
C5429 C5445 1.377 . S
C5430 C5428 1.389 . S
C5430 C5431 1.524 . S
C5430 C5444 1.377 . S
C5431 C5430 1.524 . S
C5431 C5432 1.397 . S
C5431 C5436 1.363 . S
C5432 H5409 0.950 . S
C5432 C5431 1.397 . S
C5432 C5433 1.334 . S
C5433 H5410 0.950 . S
C5433 C5432 1.334 . S
C5433 C5434 1.287 . S
C5434 C5433 1.287 . S
C5434 C5435 1.524 . S
C5434 H5453 0.913 . S
C5435 H5411 0.950 . S
C5435 C5434 1.524 . S
C5435 C5436 1.415 . S
C5436 H5412 0.950 . S
C5436 C5431 1.363 . S
C5436 C5435 1.415 . S
C5437 H5413 0.951 . S
C5437 C5438 1.366 . S
C5437 C5439 1.388 . S
C5438 C5437 1.366 . S
C5438 C5442 1.385 . S
C5439 H5414 0.951 . S
C5439 C5437 1.388 . S
C5439 C5440 1.366 . S
C5440 C5439 1.366 . S
C5440 C5441 1.414 . S
C5440 C5443 1.499 . S
C5441 H5415 0.950 . S
C5441 C5440 1.414 . S
C5441 C5442 1.374 . S
C5442 H5416 0.950 . S
C5442 C5438 1.385 . S
C5442 C5441 1.374 . S
C5443 C5440 1.499 . S
C5443 C5444 1.373 . S
C5443 C5445 1.389 . S
C5444 H5417 0.950 . S
C5444 C5430 1.377 . S
C5444 C5443 1.373 . S
C5445 C5429 1.377 . S
C5445 C5443 1.389 . S
C5445 C5446 1.524 . S
C5446 C5445 1.524 . S
C5446 C5447 1.397 . S
C5446 C5451 1.363 . S
C5447 H5418 0.950 . S
C5447 C5446 1.397 . S
C5447 C5448 1.334 . S
C5448 H5419 0.950 . S
C5448 C5447 1.334 . S
C5448 C5449 1.287 . S
C5449 C5448 1.287 . S
C5449 C5450 1.524 . S
C5449 H5452 0.999 . S
C5450 H5420 0.950 . S
C5450 C5449 1.524 . S
C5450 C5451 1.415 . S
C5451 H5421 0.950 . S
C5451 C5446 1.363 . S
C5451 C5450 1.415 . S
H5452 C5449 0.999 . S
H5453 C5434 0.913 . S
H5454 C5472 0.951 . S
H5455 C5474 0.951 . S
H5456 C5476 0.950 . S
H5457 C5477 0.950 . S
H5458 C5479 0.950 . S
H5459 C5482 0.950 . S
H5460 C5483 0.950 . S
H5461 C5485 0.950 . S
H5462 C5486 0.950 . S
H5463 C5487 0.951 . S
H5464 C5489 0.951 . S
H5465 C5491 0.950 . S
H5466 C5492 0.950 . S
H5467 C5494 0.950 . S
H5468 C5497 0.950 . S
H5469 C5498 0.950 . S
H5470 C5500 0.950 . S
H5471 C5501 0.950 . S
C5472 H5454 0.951 . S
C5472 C5473 1.366 . S
C5472 C5474 1.388 . S
C5473 C5472 1.366 . S
C5473 C5477 1.385 . S
C5474 H5455 0.951 . S
C5474 C5472 1.388 . S
C5474 C5475 1.366 . S
C5475 C5474 1.366 . S
C5475 C5476 1.414 . S
C5475 C5478 1.499 . S
C5476 H5456 0.950 . S
C5476 C5475 1.414 . S
C5476 C5477 1.374 . S
C5477 H5457 0.950 . S
C5477 C5473 1.385 . S
C5477 C5476 1.374 . S
C5478 C5475 1.499 . S
C5478 C5479 1.373 . S
C5478 C5480 1.389 . S
C5479 H5458 0.950 . S
C5479 C5478 1.373 . S
C5479 C5495 1.377 . S
C5480 C5478 1.389 . S
C5480 C5481 1.524 . S
C5480 C5494 1.377 . S
C5481 C5480 1.524 . S
C5481 C5482 1.397 . S
C5481 C5486 1.363 . S
C5482 H5459 0.950 . S
C5482 C5481 1.397 . S
C5482 C5483 1.334 . S
C5483 H5460 0.950 . S
C5483 C5482 1.334 . S
C5483 C5484 1.287 . S
C5484 C5483 1.287 . S
C5484 C5485 1.524 . S
C5484 H5503 0.913 . S
C5485 H5461 0.950 . S
C5485 C5484 1.524 . S
C5485 C5486 1.415 . S
C5486 H5462 0.950 . S
C5486 C5481 1.363 . S
C5486 C5485 1.415 . S
C5487 H5463 0.951 . S
C5487 C5488 1.366 . S
C5487 C5489 1.388 . S
C5488 C5487 1.366 . S
C5488 C5492 1.385 . S
C5489 H5464 0.951 . S
C5489 C5487 1.388 . S
C5489 C5490 1.366 . S
C5490 C5489 1.366 . S
C5490 C5491 1.414 . S
C5490 C5493 1.499 . S
C5491 H5465 0.950 . S
C5491 C5490 1.414 . S
C5491 C5492 1.374 . S
C5492 H5466 0.950 . S
C5492 C5488 1.385 . S
C5492 C5491 1.374 . S
C5493 C5490 1.499 . S
C5493 C5494 1.373 . S
C5493 C5495 1.389 . S
C5494 H5467 0.950 . S
C5494 C5480 1.377 . S
C5494 C5493 1.373 . S
C5495 C5479 1.377 . S
C5495 C5493 1.389 . S
C5495 C5496 1.524 . S
C5496 C5495 1.524 . S
C5496 C5497 1.397 . S
C5496 C5501 1.363 . S
C5497 H5468 0.950 . S
C5497 C5496 1.397 . S
C5497 C5498 1.334 . S
C5498 H5469 0.950 . S
C5498 C5497 1.334 . S
C5498 C5499 1.287 . S
C5499 C5498 1.287 . S
C5499 C5500 1.524 . S
C5499 H5502 0.999 . S
C5500 H5470 0.950 . S
C5500 C5499 1.524 . S
C5500 C5501 1.415 . S
C5501 H5471 0.950 . S
C5501 C5496 1.363 . S
C5501 C5500 1.415 . S
H5502 C5499 0.999 . S
H5503 C5484 0.913 . S
C738 C352 0.919 . S
C723 C4 0.912 . S
C773 C19 0.959 . S
C788 C380 1.082 . S
C823 C39 0.830 . S
C838 C398 0.827 . S
C888 C424 1.123 . S
C873 C54 1.217 . S
C923 C18 1.212 . S
C938 C447 1.159 . S
C988 C467 0.914 . S
C973 C40 0.924 . S
C1038 C495 1.063 . S
C1023 C53 1.116 . S
C1073 C5 0.800 . S
C1088 C513 0.863 . S
C1123 C61 0.926 . S
C1138 C354 1.096 . S
C1173 C74 0.894 . S
C1188 C376 0.902 . S
C1238 C400 1.070 . S
C1223 C89 0.906 1_565 S
C1288 C421 0.881 . S
C1273 C109 0.882 . S
C1323 C68 0.853 . S
C1338 C444 0.847 . S
C1388 C469 1.220 . S
C1373 C81 1.216 . S
C1438 C491 0.767 . S
C1423 C96 0.776 . S
C1488 C515 1.311 . S
C1473 C102 1.278 . S
C1538 C355 0.684 . S
C1523 C103 0.721 . S
C1588 C538 0.960 . S
C1573 C117 0.853 . S
C1623 C130 0.774 . S
C1638 C562 0.769 . S
C1688 C586 0.959 . S
C1673 C152 0.975 . S
C1723 C60 0.779 . S
C1738 C516 0.773 . S
C1788 C401 0.725 . S
C1773 C82 0.717 . S
C1823 C137 0.880 . S
C1838 C607 0.881 . S
C1888 C632 0.865 . S
C1873 C165 0.872 . S
C1923 C172 0.999 . S
C1938 C353 1.001 1_556 S
C1988 C630 0.877 . S
C1973 C194 0.877 . S
C2023 C207 0.872 . S
C2038 C399 0.872 . S
C2073 C215 0.792 . S
C2088 C609 0.810 . S
C2138 C448 0.848 . S
C2123 C186 0.856 . S
C2188 C560 0.945 . S
C2173 C201 0.864 . S
C2238 C492 0.787 . S
C2223 C221 0.785 . S
C2288 C652 0.926 . S
C2273 C180 0.932 . S
C2338 C357 0.703 . S
C2323 C236 0.685 . S
C2373 C242 1.353 . S
C2388 C628 1.345 . S
C2438 C403 0.751 . S
C2423 C264 0.751 . S
C2473 C277 1.202 . S
C2488 C606 1.204 . S
C2523 C229 0.940 . S
C2538 C445 1.032 1_565 S
C2573 C249 0.730 . S
C2588 C564 0.735 . S
C2638 C490 1.116 . S
C2623 C257 1.010 1_545 S
C2673 C270 0.842 . S
C2688 C656 0.827 . S
C2723 C278 1.147 . S
C2738 C356 1.115 . S
C2773 C292 1.088 . S
C2788 C541 1.034 . S
C2823 C298 1.350 . S
C2838 C471 1.313 . S
C2873 C313 0.978 . S
C2888 C585 1.037 . S
C2938 C655 1.257 . S
C2923 C228 1.285 . S
C2988 C402 1.132 . S
C2973 C243 1.046 . S
C3038 C426 0.933 . S
C3023 C305 0.962 . S
C3088 C378 0.879 . S
C3073 C333 0.912 . S
C3123 C32 0.912 . S
C3138 C674 0.919 . S
C3188 C633 1.081 . S
C3173 C47 0.958 . S
C3238 C697 0.827 . S
C3223 C11 0.830 . S
C3273 C26 1.217 . S
C3288 C608 1.122 . S
C3323 C46 1.212 . S
C3338 C539 1.152 1_556 S
C3388 C559 0.914 . S
C3373 C12 0.924 . S
C3438 C587 1.062 . S
C3423 C25 1.117 . S
C3488 C651 0.864 . S
C3473 C33 0.803 . S
C3538 C676 1.097 . S
C3523 C159 0.923 . S
C3573 C116 0.894 . S
C3588 C629 0.901 . S
C3623 C131 0.905 . S
C3638 C699 1.051 1_655 S
C3688 C605 0.881 . S
C3673 C151 0.882 . S
C3738 C536 0.848 . S
C3723 C166 0.853 . S
C3773 C123 1.216 . S
C3788 C561 1.220 . S
C3838 C583 0.768 . S
C3823 C138 0.773 . S
C3873 C144 1.278 . S
C3888 C653 1.311 . S
C3938 C677 0.681 . S
C3923 C145 0.718 . S
C3988 C446 0.937 1_565 S
C3973 C75 0.853 . S
C4038 C470 0.771 . S
C4023 C88 0.776 . S
C4073 C110 0.969 . S
C4088 C494 0.957 . S
C4138 C654 0.773 . S
C4123 C158 0.779 . S
C4173 C124 0.718 . S
C4188 C700 0.725 . S
C4238 C423 0.881 . S
C4223 C95 0.879 . S
C4288 C379 0.866 . S
C4273 C67 0.873 . S
C4323 C200 1.000 . S
C4338 C675 1.006 . S
C4388 C377 0.876 . S
C4373 C222 0.876 . S
C4438 C698 0.874 1_656 S
C4423 C179 0.872 . S
C4473 C187 0.788 . S
C4488 C425 0.812 . S
C4523 C214 0.857 . S
C4538 C540 0.848 . S
C4573 C173 0.865 . S
C4588 C468 0.945 . S
C4623 C193 0.786 . S
C4638 C584 0.786 . S
C4673 C208 0.932 . S
C4688 C514 0.925 . S
C4738 C679 0.702 . S
C4723 C334 0.685 . S
C4773 C284 1.353 . S
C4788 C375 1.345 . S
C4838 C702 0.751 . S
C4823 C306 0.751 . S
C4873 C319 1.202 . S
C4888 C422 1.204 . S
C4923 C327 0.940 . S
C4938 C537 1.032 . S
C4988 C472 0.732 . S
C4973 C291 0.729 . S
C5023 C299 1.013 . S
C5038 C582 1.113 . S
C5088 C518 0.829 . S
C5073 C312 0.841 . S
C5138 C678 1.117 . S
C5123 C320 1.148 . S
C5188 C449 1.034 . S
C5173 C250 1.087 . S
C5223 C256 1.351 . S
C5238 C563 1.308 . S
C5288 C493 1.070 . S
C5273 C271 0.981 . S
C5338 C517 1.255 . S
C5323 C326 1.285 . S
C5373 C285 1.045 1_554 S
C5388 C701 1.132 . S
C5438 C610 0.932 . S
C5423 C263 0.966 . S
C5488 C631 0.879 . S
C5473 C235 0.912 . S
