# Generated by pormake.
# Topology zzz, (3,6)-cn, num edge types: 1
# Building blocks:
#     Node 0, Type 0, BuildingBlock: OLANEW_clean_sbu_2, # of connection points: 3
#     Node 1, Type 0, BuildingBlock: OLANEW_clean_sbu_2, # of connection points: 3
#     Node 2, Type 0, BuildingBlock: OLANEW_clean_sbu_2, # of connection points: 3
#     Node 3, Type 0, BuildingBlock: OLANEW_clean_sbu_2, # of connection points: 3
#     Node 4, Type 0, BuildingBlock: OLANEW_clean_sbu_2, # of connection points: 3
#     Node 5, Type 0, BuildingBlock: OLANEW_clean_sbu_2, # of connection points: 3
#     Node 6, Type 0, BuildingBlock: OLANEW_clean_sbu_2, # of connection points: 3
#     Node 7, Type 0, BuildingBlock: OLANEW_clean_sbu_2, # of connection points: 3
#     Node 8, Type 1, BuildingBlock: JUFBIX_clean_sbu_0, # of connection points: 6
#     Node 9, Type 1, BuildingBlock: JUFBIX_clean_sbu_0, # of connection points: 6
#     Node 10, Type 1, BuildingBlock: JUFBIX_clean_sbu_0, # of connection points: 6
#     Node 11, Type 1, BuildingBlock: JUFBIX_clean_sbu_0, # of connection points: 6
#     Edge 12, Type (0, 1), BuildingBlock: OJICUG_clean_linker_0, # of connection points: 2
#     Edge 13, Type (0, 1), BuildingBlock: OJICUG_clean_linker_0, # of connection points: 2
#     Edge 14, Type (0, 1), BuildingBlock: OJICUG_clean_linker_0, # of connection points: 2
#     Edge 15, Type (0, 1), BuildingBlock: OJICUG_clean_linker_0, # of connection points: 2
#     Edge 16, Type (0, 1), BuildingBlock: OJICUG_clean_linker_0, # of connection points: 2
#     Edge 17, Type (0, 1), BuildingBlock: OJICUG_clean_linker_0, # of connection points: 2
#     Edge 18, Type (0, 1), BuildingBlock: OJICUG_clean_linker_0, # of connection points: 2
#     Edge 19, Type (0, 1), BuildingBlock: OJICUG_clean_linker_0, # of connection points: 2
#     Edge 20, Type (0, 1), BuildingBlock: OJICUG_clean_linker_0, # of connection points: 2
#     Edge 21, Type (0, 1), BuildingBlock: OJICUG_clean_linker_0, # of connection points: 2
#     Edge 22, Type (0, 1), BuildingBlock: OJICUG_clean_linker_0, # of connection points: 2
#     Edge 23, Type (0, 1), BuildingBlock: OJICUG_clean_linker_0, # of connection points: 2
#     Edge 24, Type (0, 1), BuildingBlock: OJICUG_clean_linker_0, # of connection points: 2
#     Edge 25, Type (0, 1), BuildingBlock: OJICUG_clean_linker_0, # of connection points: 2
#     Edge 26, Type (0, 1), BuildingBlock: OJICUG_clean_linker_0, # of connection points: 2
#     Edge 27, Type (0, 1), BuildingBlock: OJICUG_clean_linker_0, # of connection points: 2
#     Edge 28, Type (0, 1), BuildingBlock: OJICUG_clean_linker_0, # of connection points: 2
#     Edge 29, Type (0, 1), BuildingBlock: OJICUG_clean_linker_0, # of connection points: 2
#     Edge 30, Type (0, 1), BuildingBlock: OJICUG_clean_linker_0, # of connection points: 2
#     Edge 31, Type (0, 1), BuildingBlock: OJICUG_clean_linker_0, # of connection points: 2
#     Edge 32, Type (0, 1), BuildingBlock: OJICUG_clean_linker_0, # of connection points: 2
#     Edge 33, Type (0, 1), BuildingBlock: OJICUG_clean_linker_0, # of connection points: 2
#     Edge 34, Type (0, 1), BuildingBlock: OJICUG_clean_linker_0, # of connection points: 2
#     Edge 35, Type (0, 1), BuildingBlock: OJICUG_clean_linker_0, # of connection points: 2
# Relax obj value: 0.108
# Max RMSD: 0.177
# Mean RMSD: 0.087
data_MOF--net-zzz--node1-OLANEW_clean_sbu_2--node2-JUFBIX_clean_sbu_0--edge1-OJICUG_clean_linker_0
_symmetry_space_group_name_H-M    P1
_symmetry_Int_Tables_number       1
_symmetry_cell_setting            triclinic
loop_
_symmetry_equiv_pos_as_xyz
'x, y, z'
_cell_length_a     41.978874
_cell_length_b     41.562915
_cell_length_c     14.664851
_cell_angle_alpha  79.714106
_cell_angle_beta   90.038586
_cell_angle_gamma 91.996928
loop_
_atom_site_label
_atom_site_type_symbol
_atom_site_fract_x
_atom_site_fract_y
_atom_site_fract_z
_atom_type_partial_charge
O0 O 0.84192 0.60405 0.93556 0.0
Cd1 Cd 0.79233 0.62707 0.97246 0.0
O2 O 0.84 0.5739 0.07449 0.0
Cd3 Cd 0.86323 0.54189 0.187 0.0
O4 O 0.89376 0.52544 0.30499 0.0
C5 C 0.91612 0.54485 0.32224 0.0
O6 O 0.9202 0.57338 0.26746 0.0
C7 C 0.85367 0.582 0.9961 0.0
C8 C 0.74365 0.58284 0.94581 0.0
O9 O 0.75224 0.60642 0.8807 0.0
O10 O 0.75763 0.58072 0.02427 0.0
O11 O 0.92706 0.80701 0.92139 0.0
Cd12 Cd 0.90902 0.75037 0.96426 0.0
O13 O 0.94124 0.80757 0.06532 0.0
Cd14 Cd 0.96577 0.83105 0.16952 0.0
O15 O 0.98598 0.86796 0.24429 0.0
C16 C 0.96741 0.88607 0.27928 0.0
O17 O 0.93646 0.88162 0.27138 0.0
C18 C 0.93968 0.82197 0.98129 0.0
C19 C 0.95468 0.71295 0.89958 0.0
O20 O 0.93051 0.72265 0.85003 0.0
O21 O 0.95681 0.72035 0.9806 0.0
O22 O 0.72855 0.00625 0.86793 0.0
Cd23 Cd 0.78036 0.98597 0.92218 0.0
O24 O 0.7234 0.01711 0.00808 0.0
Cd25 Cd 0.69477 0.03056 0.1201 0.0
O26 O 0.65428 0.03359 0.21201 0.0
C27 C 0.64256 0.00742 0.26042 0.0
O28 O 0.65556 0.97948 0.25536 0.0
C29 C 0.71116 0.0146 0.93002 0.0
C30 C 0.83733 0.01584 0.84888 0.0
O31 O 0.82241 0.99463 0.80952 0.0
O32 O 0.82418 0.02443 0.91932 0.0
O33 O 0.58907 0.7052 0.90843 0.0
Cd34 Cd 0.61622 0.7555 0.93665 0.0
O35 O 0.57003 0.69461 0.05039 0.0
Cd36 Cd 0.54924 0.66059 0.16779 0.0
O37 O 0.53621 0.62648 0.2943 0.0
C38 C 0.55675 0.60699 0.33383 0.0
O39 O 0.58522 0.60748 0.29634 0.0
C40 C 0.57339 0.68633 0.97175 0.0
C41 C 0.58085 0.81195 0.91098 0.0
O42 O 0.5959 0.80367 0.84319 0.0
O43 O 0.58172 0.79294 0.99005 0.0
O44 O 0.19669 0.41453 0.71721 0.0
Cd45 Cd 0.2458 0.38813 0.69353 0.0
O46 O 0.17753 0.404 0.586 0.0
Cd47 Cd 0.1419 0.41085 0.47655 0.0
O48 O 0.1106 0.42418 0.35832 0.0
C49 C 0.11083 0.45376 0.31679 0.0
O50 O 0.12955 0.47546 0.34742 0.0
C51 C 0.17458 0.4169 0.65767 0.0
C52 C 0.2951 0.42899 0.73648 0.0
O53 O 0.28362 0.43259 0.65443 0.0
O54 O 0.28383 0.4054 0.79758 0.0
O55 O 0.12209 0.20636 0.72621 0.0
Cd56 Cd 0.13484 0.26427 0.68189 0.0
O57 O 0.10697 0.20495 0.5836 0.0
Cd58 Cd 0.08315 0.18022 0.48098 0.0
O59 O 0.06462 0.14244 0.40686 0.0
C60 C 0.084 0.12509 0.37201 0.0
O61 O 0.11478 0.13083 0.37971 0.0
C62 C 0.1102 0.19057 0.66713 0.0
C63 C 0.08452 0.29699 0.74252 0.0
O64 O 0.08441 0.28963 0.66128 0.0
O65 O 0.10879 0.28952 0.79404 0.0
O66 O 0.312 0.92374 0.91671 0.0
Cd67 Cd 0.26319 0.88995 0.91681 0.0
O68 O 0.3182 0.92495 0.76777 0.0
Cd69 Cd 0.34517 0.93343 0.63747 0.0
O70 O 0.37643 0.94756 0.51712 0.0
C71 C 0.4063 0.95042 0.52932 0.0
O72 O 0.41756 0.94406 0.61397 0.0
C73 C 0.3284 0.9326 0.84311 0.0
C74 C 0.20717 0.92442 0.89394 0.0
O75 O 0.21882 0.9151 0.9748 0.0
O76 O 0.22239 0.91797 0.82398 0.0
O77 O 0.45808 0.2998 0.81702 0.0
Cd78 Cd 0.42627 0.25044 0.80257 0.0
O79 O 0.4443 0.31943 0.67417 0.0
Cd80 Cd 0.44545 0.35757 0.5499 0.0
O81 O 0.45326 0.39232 0.42062 0.0
C82 C 0.48172 0.40077 0.39502 0.0
O83 O 0.5053 0.38883 0.44808 0.0
C84 C 0.45828 0.32336 0.74855 0.0
C85 C 0.45762 0.19145 0.82657 0.0
O86 O 0.45593 0.20977 0.74661 0.0
O87 O 0.44537 0.20156 0.89592 0.0
Co88 Co 0.02791 0.00814 0.89851 0.0
C89 C 0.97203 0.0258 0.80359 0.0
Co90 Co 0.02836 0.00145 0.75198 0.0
C91 C 0.04582 0.03256 0.06494 0.0
C92 C 0.00393 0.00129 0.08527 0.0
N93 N 0.02643 0.01358 0.02159 0.0
N94 N 0.03608 0.03299 0.1525 0.0
C95 C 0.00978 0.01316 0.16568 0.0
H96 H 0.06582 0.0471 0.03137 0.0
H97 H 0.98388 0.98557 0.07313 0.0
C98 C 0.08382 0.98275 0.84799 0.0
N99 N 0.02966 0.99591 0.62908 0.0
C100 C 0.00971 0.97732 0.58617 0.0
C101 C 0.05224 0.00764 0.56512 0.0
N102 N 0.01916 0.97655 0.4986 0.0
C103 C 0.04588 0.99575 0.48493 0.0
C104 C 0.05238 0.06199 0.77822 0.0
O105 O 0.06939 0.99116 0.91587 0.0
O106 O 0.07007 0.98551 0.76982 0.0
O107 O 0.04582 0.04453 0.71749 0.0
O108 O 0.04603 0.05084 0.86281 0.0
O109 O 0.98627 0.0171 0.73584 0.0
H110 H 0.0726 0.023 0.57693 0.0
H111 H 0.98945 0.96333 0.62009 0.0
O112 O 0.98654 0.02475 0.88014 0.0
O113 O 0.00961 0.96548 0.93247 0.0
O114 O 0.011 0.95834 0.78805 0.0
C115 C 0.00372 0.94766 0.87227 0.0
H116 H 0.99538 0.00818 0.22816 0.0
H117 H 0.06016 0.00034 0.42221 0.0
Co118 Co 0.51379 0.99635 0.94515 0.0
C119 C 0.52969 0.94071 0.87605 0.0
Co120 Co 0.51808 0.00414 0.79248 0.0
C121 C 0.48614 0.9908 0.12894 0.0
C122 C 0.53456 0.9763 0.13221 0.0
N123 N 0.51139 0.98858 0.07371 0.0
N124 N 0.49256 0.98011 0.21949 0.0
C125 C 0.52316 0.97122 0.22153 0.0
H126 H 0.46326 0.99934 0.10279 0.0
H127 H 0.55787 0.97 0.11114 0.0
C128 C 0.50236 0.05981 0.86176 0.0
N129 N 0.5215 0.0114 0.66447 0.0
C130 C 0.54541 0.00205 0.61476 0.0
C131 C 0.50292 0.02944 0.60134 0.0
N132 N 0.54286 0.0139 0.52335 0.0
C133 C 0.51614 0.03122 0.51443 0.0
C134 C 0.45706 0.98479 0.85953 0.0
O135 O 0.50314 0.04081 0.94004 0.0
O136 O 0.50851 0.04864 0.78868 0.0
O137 O 0.4735 0.99315 0.78557 0.0
O138 O 0.47034 0.9844 0.93749 0.0
O139 O 0.52777 0.95945 0.79779 0.0
H140 H 0.48174 0.04142 0.6178 0.0
H141 H 0.56525 0.98815 0.64571 0.0
O142 O 0.52439 0.95209 0.94925 0.0
O143 O 0.55729 0.008 0.95147 0.0
O144 O 0.56262 0.01488 0.80078 0.0
C145 C 0.57495 0.01451 0.88003 0.0
H146 H 0.53598 0.96016 0.28254 0.0
H147 H 0.5071 0.04457 0.45 0.0
Co148 Co 0.54354 0.496 0.86994 0.0
C149 C 0.50743 0.477 0.03092 0.0
Co150 Co 0.4937 0.51083 0.85661 0.0
C151 C 0.61059 0.50818 0.86495 0.0
C152 C 0.59895 0.45933 0.93362 0.0
N153 N 0.58598 0.48645 0.88584 0.0
N154 N 0.63832 0.49622 0.89992 0.0
C155 C 0.63119 0.46536 0.94295 0.0
H156 H 0.60775 0.5333 0.83138 0.0
H157 H 0.58553 0.43744 0.9648 0.0
C158 C 0.52967 0.52989 0.69568 0.0
N159 N 0.45133 0.52058 0.8399 0.0
C160 C 0.42662 0.49866 0.85291 0.0
C161 C 0.43881 0.5487 0.79691 0.0
N162 N 0.39933 0.51156 0.81735 0.0
C163 C 0.4068 0.54315 0.78235 0.0
C164 C 0.53154 0.55832 0.91061 0.0
O165 O 0.55152 0.51457 0.74332 0.0
O166 O 0.50252 0.5313 0.73263 0.0
O167 O 0.50247 0.55132 0.89665 0.0
O168 O 0.55244 0.53763 0.9028 0.0
O169 O 0.48504 0.49021 0.98085 0.0
H170 H 0.45249 0.57108 0.77195 0.0
H171 H 0.42918 0.47294 0.8806 0.0
O172 O 0.53525 0.47759 0.99637 0.0
O173 O 0.53442 0.45452 0.83693 0.0
O174 O 0.48532 0.47033 0.81589 0.0
C175 C 0.50591 0.44878 0.81398 0.0
H176 H 0.64772 0.44895 0.98229 0.0
H177 H 0.39074 0.56047 0.74451 0.0
Co178 Co 0.02668 0.52589 0.80543 0.0
C179 C 0.04066 0.48881 0.97645 0.0
Co180 Co 0.00244 0.47715 0.83101 0.0
C181 C 0.02468 0.59486 0.76961 0.0
C182 C 0.07053 0.57986 0.82074 0.0
N183 N 0.04281 0.56848 0.79009 0.0
N184 N 0.03903 0.62201 0.79095 0.0
C185 C 0.06816 0.6128 0.82208 0.0
H186 H -0.00019 0.59326 0.75082 0.0
H187 H 0.08978 0.56465 0.8495 0.0
C188 C 0.98832 0.51389 0.66017 0.0
N189 N 0.98658 0.43444 0.84609 0.0
C190 C 0.00531 0.40859 0.86828 0.0
C191 C 0.95973 0.42235 0.81225 0.0
N192 N 0.99226 0.38114 0.84522 0.0
C193 C 0.96331 0.38954 0.81077 0.0
C194 C 0.96551 0.52101 0.89008 0.0
O195 O 0.00754 0.53485 0.6858 0.0
O196 O 0.98272 0.48681 0.71405 0.0
O197 O 0.96566 0.4906 0.88756 0.0
O198 O 0.98937 0.53916 0.85881 0.0
O199 O 0.02235 0.46773 0.94826 0.0
H200 H 0.94049 0.43706 0.78094 0.0
H201 H 0.02998 0.41094 0.88855 0.0
O202 O 0.04556 0.51654 0.92491 0.0
O203 O 0.06383 0.51235 0.75303 0.0
O204 O 0.03939 0.46416 0.77331 0.0
C205 C 0.0636 0.48239 0.74562 0.0
H206 H 0.08533 0.62797 0.85174 0.0
H207 H 0.94727 0.37402 0.77849 0.0
C208 C 0.1601 0.94861 0.95856 0.0
C209 C 0.17642 0.94101 0.88186 0.0
H210 H 0.11808 0.9679 0.0081 0.0
C211 C 0.16252 0.94831 0.79374 0.0
H212 H 0.17019 0.94334 0.02738 0.0
C213 C 0.13265 0.96222 0.78278 0.0
C214 C 0.11604 0.96929 0.85964 0.0
H215 H 0.17447 0.94279 0.73322 0.0
H216 H 0.12246 0.96714 0.71401 0.0
C217 C 0.13023 0.96268 0.94752 0.0
C218 C 0.48272 0.14707 0.75943 0.0
C219 C 0.47163 0.15876 0.83737 0.0
H220 H 0.50111 0.1068 0.70601 0.0
C221 C 0.47237 0.13819 0.92457 0.0
H222 H 0.48253 0.16227 0.69126 0.0
C223 C 0.48309 0.10628 0.93313 0.0
C224 C 0.49321 0.09427 0.8546 0.0
H225 H 0.46402 0.14647 0.98603 0.0
H226 H 0.48276 0.09081 0.00094 0.0
C227 C 0.49334 0.1152 0.76791 0.0
C228 C 0.33632 0.44464 0.84541 0.0
C229 C 0.32058 0.45148 0.75992 0.0
H230 H 0.37365 0.45894 0.93111 0.0
C231 C 0.32957 0.4799 0.69671 0.0
H232 H 0.32979 0.42305 0.89582 0.0
C233 C 0.35442 0.50057 0.71749 0.0
C234 C 0.37095 0.49305 0.80147 0.0
H235 H 0.31773 0.48595 0.63053 0.0
H236 H 0.36158 0.52165 0.66614 0.0
C237 C 0.36136 0.46516 0.86574 0.0
C238 C 0.05906 0.32377 0.86241 0.0
C239 C 0.0579 0.31453 0.77485 0.0
H240 H 0.0381 0.35174 0.95459 0.0
C241 C 0.03175 0.32348 0.71704 0.0
H242 H 0.07867 0.31693 0.90912 0.0
C243 C 0.00839 0.34317 0.74367 0.0
C244 C 0.01083 0.35434 0.82846 0.0
H245 H 0.03 0.31647 0.64949 0.0
H246 H 0.98972 0.3515 0.69511 0.0
C247 C 0.03576 0.34348 0.88885 0.0
C248 C 0.88512 0.01628 0.74629 0.0
C249 C 0.87065 0.02628 0.82256 0.0
H250 H 0.92887 0.00899 0.67903 0.0
C251 C 0.88962 0.0419 0.88183 0.0
H252 H 0.87112 0.00441 0.69891 0.0
C253 C 0.92272 0.04428 0.87088 0.0
C254 C 0.93745 0.03147 0.79979 0.0
H255 H 0.87922 0.0501 0.94089 0.0
H256 H 0.93689 0.05429 0.92167 0.0
C257 C 0.91824 0.01902 0.73468 0.0
C258 C 0.5637 0.86422 0.81294 0.0
C259 C 0.56473 0.84353 0.89988 0.0
H260 H 0.55157 0.9111 0.73693 0.0
C261 C 0.55205 0.85425 0.97747 0.0
H262 H 0.57319 0.85666 0.75175 0.0
C263 C 0.53982 0.88547 0.96907 0.0
C264 C 0.53981 0.90662 0.88279 0.0
H265 H 0.55242 0.83892 0.04542 0.0
H266 H 0.53102 0.89328 0.03076 0.0
C267 C 0.55128 0.89542 0.80442 0.0
C268 C 0.70066 0.56351 0.84832 0.0
C269 C 0.71813 0.55896 0.93106 0.0
H270 H 0.66174 0.54651 0.77304 0.0
C271 C 0.71065 0.53167 1.00011 0.0
H272 H 0.706 0.58414 0.79345 0.0
C273 C 0.68544 0.51002 0.98798 0.0
C274 C 0.66711 0.51539 0.90688 0.0
H275 H 0.72385 0.52737 0.06438 0.0
H276 H 0.67942 0.48998 0.04385 0.0
C277 C 0.67535 0.54199 0.83652 0.0
C278 C 0.00596 0.68352 0.9188 0.0
C279 C 0.97897 0.69305 0.86527 0.0
H280 H 0.04675 0.65366 0.93614 0.0
C281 C 0.9748 0.68234 0.78031 0.0
H282 H 0.01001 0.69162 0.98419 0.0
C283 C 0.99608 0.66086 0.7524 0.0
C284 C 0.02196 0.6497 0.80865 0.0
H285 H 0.95444 0.68953 0.73695 0.0
H286 H 0.99152 0.65172 0.68877 0.0
C287 C 0.02729 0.66211 0.89064 0.0
C288 C 0.08278 0.14813 0.78494 0.0
C289 C 0.09753 0.15689 0.69769 0.0
H290 H 0.05665 0.11118 0.87869 0.0
C291 C 0.09882 0.13366 0.6393 0.0
H292 H 0.0817 0.16555 0.83161 0.0
C293 C 0.08385 0.10288 0.66509 0.0
C294 C 0.06814 0.09449 0.75106 0.0
H295 H 0.11155 0.13917 0.57396 0.0
H296 H 0.08486 0.08557 0.61808 0.0
C297 C 0.06829 0.11714 0.81157 0.0
C298 C 0.37791 0.9416 0.93038 0.0
C299 C 0.36026 0.94857 0.84826 0.0
H300 H 0.42226 0.94756 0.99811 0.0
C301 C 0.37383 0.96986 0.77179 0.0
H302 H 0.36802 0.92556 0.99088 0.0
C303 C 0.40522 0.98212 0.77537 0.0
C304 C 0.42329 0.97385 0.85622 0.0
H305 H 0.36025 0.97721 0.70935 0.0
H306 H 0.41536 0.99795 0.71487 0.0
C307 C 0.40903 0.95417 0.93443 0.0
C308 C 0.50087 0.358 0.8076 0.0
C309 C 0.47256 0.35554 0.75778 0.0
H310 H 0.53426 0.38983 0.86242 0.0
C311 C 0.45639 0.38406 0.72267 0.0
H312 H 0.5136 0.33627 0.83593 0.0
C313 C 0.46782 0.41443 0.73886 0.0
C314 C 0.4959 0.41698 0.78964 0.0
H315 H 0.43406 0.38275 0.68627 0.0
H316 H 0.45429 0.43587 0.71314 0.0
C317 C 0.5127 0.38859 0.82236 0.0
C318 C 0.1494 0.46494 0.70369 0.0
C319 C 0.14617 0.43515 0.67153 0.0
H320 H 0.12554 0.50395 0.74968 0.0
C321 C 0.11565 0.42217 0.65765 0.0
H322 H 0.17281 0.47533 0.71483 0.0
C323 C 0.08868 0.43818 0.67896 0.0
C324 C 0.09187 0.46775 0.71269 0.0
H325 H 0.11264 0.39899 0.63413 0.0
H326 H 0.06535 0.42707 0.67091 0.0
C327 C 0.12244 0.48137 0.72293 0.0
C328 C 0.95388 0.87827 0.00918 0.0
C329 C 0.95459 0.85475 0.95163 0.0
H330 H 0.96955 0.92587 0.03019 0.0
C331 C 0.97053 0.8624 0.86592 0.0
H332 H 0.94033 0.87367 0.07319 0.0
C333 C 0.98655 0.89266 0.83984 0.0
C334 C 0.98703 0.91563 0.8994 0.0
H335 H 0.97119 0.84472 0.81993 0.0
H336 H -0.00107 0.89785 0.77375 0.0
C337 C 0.97033 0.90827 0.98399 0.0
C338 C 0.66353 0.02937 0.8287 0.0
C339 C 0.67647 0.01728 0.91607 0.0
H340 H 0.62085 0.03831 0.74822 0.0
C341 C 0.65581 0.00485 0.98995 0.0
H342 H 0.67903 0.03839 0.76998 0.0
C343 C 0.62299 0.00563 0.97852 0.0
C344 C 0.60982 0.01754 0.89155 0.0
H345 H 0.6649 0.99295 0.05595 0.0
H346 H 0.60799 0.99543 0.03736 0.0
C347 C 0.63036 0.02941 0.81638 0.0
C348 C 0.58207 0.63511 0.91173 0.0
C349 C 0.56208 0.65377 0.95647 0.0
H350 H 0.58825 0.58999 0.86439 0.0
C351 C 0.53173 0.64091 0.98675 0.0
H352 H 0.60561 0.64448 0.88803 0.0
C353 C 0.52143 0.60987 0.97151 0.0
C354 C 0.54175 0.59098 0.92815 0.0
H355 H 0.51582 0.65507 0.02077 0.0
H356 H 0.49782 0.60052 0.99444 0.0
C357 C 0.57219 0.60386 0.89886 0.0
C358 C 0.88618 0.53246 0.00141 0.0
C359 C 0.88308 0.56643 0.97541 0.0
H360 H 0.91471 0.49112 0.99378 0.0
C361 C 0.90747 0.58523 0.9242 0.0
H362 H 0.86731 0.51741 0.03959 0.0
C363 C 0.93456 0.57038 0.89915 0.0
C364 C 0.93748 0.53626 0.92284 0.0
H365 H 0.90554 0.61145 0.90324 0.0
H366 H 0.95286 0.58567 0.85907 0.0
C367 C 0.9131 0.51741 0.97466 0.0
C368 C 0.09272 0.08609 0.2632 0.0
C369 C 0.0721 0.09959 0.32059 0.0
H370 H 0.09736 0.05406 0.16495 0.0
C371 C 0.03987 0.08909 0.32649 0.0
H372 H 0.11773 0.09351 0.25758 0.0
C373 C 0.0283 0.06632 0.27395 0.0
C374 C 0.04864 0.05384 0.21357 0.0
H375 H 0.02345 0.09879 0.3708 0.0
H376 H 0.00317 0.05945 0.27808 0.0
C377 C 0.08106 0.0636 0.20984 0.0
C378 C 0.461 0.9648 0.46342 0.0
C379 C 0.4282 0.95997 0.44935 0.0
H380 H 0.50703 0.97557 0.40139 0.0
C381 C 0.41667 0.96372 0.35821 0.0
H382 H 0.47064 0.96245 0.53274 0.0
C383 C 0.43762 0.97119 0.28276 0.0
C384 C 0.47057 0.97514 0.29675 0.0
H385 H 0.39152 0.96022 0.34499 0.0
H386 H 0.42799 0.97277 0.21375 0.0
C387 C 0.48191 0.97229 0.38801 0.0
C388 C 0.46327 0.4358 0.24838 0.0
C389 C 0.48833 0.42213 0.30436 0.0
H390 H 0.44963 0.46407 0.11843 0.0
C391 C 0.51981 0.42814 0.27147 0.0
H392 H 0.43875 0.43175 0.27179 0.0
C393 C 0.52604 0.44657 0.1835 0.0
C394 C 0.50094 0.45958 0.12661 0.0
H395 H 0.53968 0.41806 0.31287 0.0
H396 H 0.55053 0.45017 0.15958 0.0
C397 C 0.46952 0.4544 0.16053 0.0
C398 C 0.07101 0.44025 0.20085 0.0
C399 C 0.09152 0.4633 0.23246 0.0
H400 H 0.03877 0.43026 0.09563 0.0
C401 C 0.0941 0.49528 0.18118 0.0
H402 H 0.06839 0.41544 0.23886 0.0
C403 C 0.07715 0.50379 0.09883 0.0
C404 C 0.05715 0.48053 0.06628 0.0
H405 H 0.10965 0.51365 0.20373 0.0
H406 H 0.08006 0.52848 0.06009 0.0
C407 C 0.05399 0.44878 0.11875 0.0
C408 C 0.01294 0.92042 0.32487 0.0
C409 C 0.9804 0.91107 0.3309 0.0
H410 H 0.05075 0.94883 0.37303 0.0
C411 C 0.96048 0.92531 0.38847 0.0
H412 H 0.02885 0.91013 0.28045 0.0
C413 C 0.97307 0.9474 0.44173 0.0
C414 C 0.00576 0.95604 0.43775 0.0
H415 H 0.93527 0.91878 0.39423 0.0
H416 H 0.95726 0.95753 0.4867 0.0
C417 C 0.02544 0.94282 0.37732 0.0
C418 C 0.59726 0.03654 0.31733 0.0
C419 C 0.6154 0.00841 0.32414 0.0
H420 H 0.55955 0.06016 0.37518 0.0
C421 C 0.60782 0.98139 0.39396 0.0
H422 H 0.60232 0.05765 0.26376 0.0
C423 C 0.58353 0.98297 0.45796 0.0
C424 C 0.56598 0.01138 0.45271 0.0
H425 H 0.62119 0.95928 0.40076 0.0
H426 H 0.5786 0.96204 0.51217 0.0
C427 C 0.57262 0.0379 0.38059 0.0
C428 C 0.57296 0.56636 0.47231 0.0
C429 C 0.5493 0.58544 0.42358 0.0
H430 H 0.58536 0.53376 0.59647 0.0
C431 C 0.51872 0.58464 0.46302 0.0
H432 H 0.59675 0.56636 0.44378 0.0
C433 C 0.51218 0.56589 0.55028 0.0
C434 C 0.53607 0.54755 0.60024 0.0
H435 H 0.49991 0.59893 0.42718 0.0
H436 H 0.4885 0.56632 0.5793 0.0
C437 C 0.56643 0.54764 0.55982 0.0
C438 C 0.95871 0.559 0.42984 0.0
C439 C 0.93607 0.53626 0.40566 0.0
H440 H 0.99304 0.56982 0.52925 0.0
C441 C 0.93191 0.50564 0.46367 0.0
H442 H 0.96253 0.58281 0.38651 0.0
C443 C 0.94944 0.49818 0.54517 0.0
C444 C 0.97148 0.52121 0.57067 0.0
H445 H 0.91478 0.48752 0.44689 0.0
H446 H 0.94526 0.47451 0.58897 0.0
C447 C 0.97621 0.55157 0.51162 0.0
loop_
_geom_bond_atom_site_label_1
_geom_bond_atom_site_label_2
_geom_bond_distance
_geom_bond_site_symmetry_2
_ccdc_geom_bond_type
O0 Cd1 2.300 . S
O0 C7 1.275 . S
Cd1 O0 2.300 . S
Cd1 O9 2.381 . S
Cd1 O10 2.378 . S
O2 Cd3 2.385 . S
O2 C7 1.255 . S
Cd3 O2 2.385 . S
Cd3 O4 2.317 . S
O4 Cd3 2.317 . S
O4 C5 1.232 . S
C5 O4 1.232 . S
C5 O6 1.218 . S
O6 C5 1.218 . S
C7 O0 1.275 . S
C7 O2 1.255 . S
C8 O9 1.258 . S
C8 O10 1.256 . S
O9 Cd1 2.381 . S
O9 C8 1.258 . S
O10 Cd1 2.378 . S
O10 C8 1.256 . S
O11 Cd12 2.300 1_556 S
O11 C18 1.275 1_556 S
Cd12 O11 2.300 1_554 S
Cd12 O20 2.381 . S
Cd12 O21 2.378 . S
O13 Cd14 2.385 1_655 S
O13 C18 1.255 . S
Cd14 O13 2.385 1_455 S
Cd14 O15 2.317 1_455 S
O15 Cd14 2.317 1_655 S
O15 C16 1.232 . S
C16 O15 1.232 . S
C16 O17 1.218 . S
O17 C16 1.218 . S
C18 O11 1.275 1_554 S
C18 O13 1.255 . S
C19 O20 1.258 . S
C19 O21 1.256 . S
O20 Cd12 2.381 . S
O20 C19 1.258 . S
O21 Cd12 2.378 . S
O21 C19 1.256 . S
O22 Cd23 2.300 1_566 S
O22 C29 1.275 1_565 S
Cd23 O22 2.300 1_544 S
Cd23 O31 2.381 1_544 S
Cd23 O32 2.378 . S
O24 Cd25 2.385 . S
O24 C29 1.255 1_554 S
Cd25 O24 2.385 . S
Cd25 O26 2.317 . S
O26 Cd25 2.317 . S
O26 C27 1.232 . S
C27 O26 1.232 . S
C27 O28 1.218 . S
O28 C27 1.218 . S
C29 O22 1.275 1_545 S
C29 O24 1.255 1_556 S
C30 O31 1.258 1_545 S
C30 O32 1.256 1_556 S
O31 Cd23 2.381 1_566 S
O31 C30 1.258 1_565 S
O32 Cd23 2.378 . S
O32 C30 1.256 1_554 S
O33 Cd34 2.300 . S
O33 C40 1.275 . S
Cd34 O33 2.300 . S
Cd34 O42 2.381 . S
Cd34 O43 2.378 . S
O35 Cd36 2.385 . S
O35 C40 1.255 . S
Cd36 O35 2.385 . S
Cd36 O37 2.317 . S
O37 Cd36 2.317 . S
O37 C38 1.232 . S
C38 O37 1.232 . S
C38 O39 1.218 . S
O39 C38 1.218 . S
C40 O33 1.275 . S
C40 O35 1.255 . S
C41 O42 1.258 . S
C41 O43 1.256 . S
O42 Cd34 2.381 . S
O42 C41 1.258 . S
O43 Cd34 2.378 . S
O43 C41 1.256 . S
O44 Cd45 2.300 . S
O44 C51 1.275 . S
Cd45 O44 2.300 . S
Cd45 O53 2.381 . S
Cd45 O54 2.378 . S
O46 Cd47 2.385 . S
O46 C51 1.255 . S
Cd47 O46 2.385 . S
Cd47 O48 2.317 . S
O48 Cd47 2.317 . S
O48 C49 1.232 . S
C49 O48 1.232 . S
C49 O50 1.218 . S
O50 C49 1.218 . S
C51 O44 1.275 . S
C51 O46 1.255 . S
C52 O53 1.258 . S
C52 O54 1.256 . S
O53 Cd45 2.381 . S
O53 C52 1.258 . S
O54 Cd45 2.378 . S
O54 C52 1.256 . S
O55 Cd56 2.300 . S
O55 C62 1.275 . S
Cd56 O55 2.300 . S
Cd56 O64 2.381 . S
Cd56 O65 2.378 . S
O57 Cd58 2.385 . S
O57 C62 1.255 . S
Cd58 O57 2.385 . S
Cd58 O59 2.317 . S
O59 Cd58 2.317 . S
O59 C60 1.232 . S
C60 O59 1.232 . S
C60 O61 1.218 . S
O61 C60 1.218 . S
C62 O55 1.275 . S
C62 O57 1.255 . S
C63 O64 1.258 . S
C63 O65 1.256 . S
O64 Cd56 2.381 . S
O64 C63 1.258 . S
O65 Cd56 2.378 . S
O65 C63 1.256 . S
O66 Cd67 2.300 1_565 S
O66 C73 1.275 1_565 S
Cd67 O66 2.300 1_545 S
Cd67 O75 2.381 1_545 S
Cd67 O76 2.378 . S
O68 Cd69 2.385 . S
O68 C73 1.255 . S
Cd69 O68 2.385 . S
Cd69 O70 2.317 . S
O70 Cd69 2.317 . S
O70 C71 1.232 . S
C71 O70 1.232 . S
C71 O72 1.218 . S
O72 C71 1.218 . S
C73 O66 1.275 1_545 S
C73 O68 1.255 . S
C74 O75 1.258 1_545 S
C74 O76 1.256 . S
O75 Cd67 2.381 1_565 S
O75 C74 1.258 1_565 S
O76 Cd67 2.378 . S
O76 C74 1.256 . S
O77 Cd78 2.300 . S
O77 C84 1.275 . S
Cd78 O77 2.300 . S
Cd78 O86 2.381 . S
Cd78 O87 2.378 . S
O79 Cd80 2.385 . S
O79 C84 1.255 . S
Cd80 O79 2.385 . S
Cd80 O81 2.317 . S
O81 Cd80 2.317 . S
O81 C82 1.232 . S
C82 O81 1.232 . S
C82 O83 1.218 . S
O83 C82 1.218 . S
C84 O77 1.275 . S
C84 O79 1.255 . S
C85 O86 1.258 . S
C85 O87 1.256 . S
O86 Cd78 2.381 . S
O86 C85 1.258 . S
O87 Cd78 2.378 . S
O87 C85 1.256 . S
Co88 N93 2.057 1_556 S
Co88 O105 2.021 . S
Co88 O108 2.062 . S
Co88 O112 2.117 1_455 S
Co88 O113 2.020 1_545 S
C89 O109 1.259 1_545 S
C89 O112 1.258 . S
Co90 N99 2.057 . S
Co90 O106 2.117 . S
Co90 O107 2.020 1_565 S
Co90 O109 2.021 1_455 S
Co90 O114 2.062 . S
C91 N93 1.316 . S
C91 N94 1.347 . S
C91 H96 0.931 . S
C92 N93 1.375 . S
C92 C95 1.350 . S
C92 H97 0.930 1_455 S
N93 Co88 2.057 1_554 S
N93 C91 1.316 . S
N93 C92 1.375 . S
N94 C91 1.347 . S
N94 C95 1.373 . S
C95 C92 1.350 . S
C95 N94 1.373 . S
C95 H116 0.931 . S
H96 C91 0.931 . S
H97 C92 0.930 1_655 S
C98 O105 1.259 1_565 S
C98 O106 1.258 . S
N99 Co90 2.057 . S
N99 C100 1.316 1_455 S
N99 C101 1.375 . S
C100 N99 1.316 1_655 S
C100 N102 1.347 . S
C100 H111 0.931 . S
C101 N99 1.375 . S
C101 C103 1.350 . S
C101 H110 0.930 . S
N102 C100 1.347 . S
N102 C103 1.373 1_655 S
C103 C101 1.350 . S
C103 N102 1.373 1_455 S
C103 H117 0.931 . S
C104 O107 1.256 . S
C104 O108 1.255 . S
O105 Co88 2.021 . S
O105 C98 1.259 1_545 S
O106 Co90 2.117 . S
O106 C98 1.258 . S
O107 Co90 2.020 1_545 S
O107 C104 1.256 . S
O108 Co88 2.062 . S
O108 C104 1.255 . S
O109 C89 1.259 1_565 S
O109 Co90 2.021 1_655 S
H110 C101 0.930 . S
H111 C100 0.931 . S
O112 Co88 2.117 1_655 S
O112 C89 1.258 . S
O113 Co88 2.020 1_565 S
O113 C115 1.256 . S
O114 Co90 2.062 . S
O114 C115 1.255 . S
C115 O113 1.256 . S
C115 O114 1.255 . S
H116 C95 0.931 . S
H117 C103 0.931 . S
Co118 N123 2.057 1_546 S
Co118 O135 2.021 . S
Co118 O138 2.067 . S
Co118 O142 2.117 1_545 S
Co118 O143 2.020 . S
C119 O139 1.259 . S
C119 O142 1.258 . S
Co120 N129 2.057 1_565 S
Co120 O136 2.117 1_565 S
Co120 O137 2.020 . S
Co120 O139 2.021 . S
Co120 O144 2.066 . S
C121 N123 1.316 1_545 S
C121 N124 1.347 . S
C121 H126 0.931 . S
C122 N123 1.375 . S
C122 C125 1.350 . S
C122 H127 0.930 . S
N123 Co118 2.057 1_564 S
N123 C121 1.316 1_565 S
N123 C122 1.375 . S
N124 C121 1.347 . S
N124 C125 1.373 1_545 S
C125 C122 1.350 . S
C125 N124 1.373 1_565 S
C125 H146 0.931 . S
H126 C121 0.931 . S
H127 C122 0.930 . S
C128 O135 1.259 . S
C128 O136 1.258 . S
N129 Co120 2.057 1_545 S
N129 C130 1.316 1_545 S
N129 C131 1.375 . S
C130 N129 1.316 1_565 S
C130 N132 1.347 . S
C130 H141 0.931 . S
C131 N129 1.375 . S
C131 C133 1.350 . S
C131 H140 0.930 . S
N132 C130 1.347 . S
N132 C133 1.373 1_565 S
C133 C131 1.350 . S
C133 N132 1.373 1_545 S
C133 H147 0.931 . S
C134 O137 1.256 . S
C134 O138 1.243 1_565 S
O135 Co118 2.021 . S
O135 C128 1.259 . S
O136 Co120 2.117 1_545 S
O136 C128 1.258 . S
O137 Co120 2.020 . S
O137 C134 1.256 . S
O138 Co118 2.067 . S
O138 C134 1.243 1_545 S
O139 C119 1.259 . S
O139 Co120 2.021 . S
H140 C131 0.930 . S
H141 C130 0.931 . S
O142 Co118 2.117 1_565 S
O142 C119 1.258 . S
O143 Co118 2.020 . S
O143 C145 1.256 . S
O144 Co120 2.066 . S
O144 C145 1.246 1_565 S
C145 O143 1.256 . S
C145 O144 1.246 1_545 S
H146 C125 0.931 . S
H147 C133 0.931 . S
Co148 N153 2.057 . S
Co148 O165 2.021 . S
Co148 O168 2.062 . S
Co148 O172 2.117 . S
Co148 O173 2.020 . S
C149 O169 1.259 . S
C149 O172 1.258 . S
Co150 N159 2.057 . S
Co150 O166 2.117 . S
Co150 O167 2.020 . S
Co150 O169 2.021 . S
Co150 O174 2.062 . S
C151 N153 1.316 . S
C151 N154 1.347 . S
C151 H156 0.931 . S
C152 N153 1.375 . S
C152 C155 1.350 1_556 S
C152 H157 0.930 1_556 S
N153 Co148 2.057 . S
N153 C151 1.316 . S
N153 C152 1.375 . S
N154 C151 1.347 . S
N154 C155 1.373 1_556 S
C155 C152 1.350 1_554 S
C155 N154 1.373 1_554 S
C155 H176 0.931 . S
H156 C151 0.931 . S
H157 C152 0.930 1_554 S
C158 O165 1.259 . S
C158 O166 1.258 . S
N159 Co150 2.057 . S
N159 C160 1.316 . S
N159 C161 1.375 . S
C160 N159 1.316 . S
C160 N162 1.347 . S
C160 H171 0.931 . S
C161 N159 1.375 . S
C161 C163 1.350 . S
C161 H170 0.930 . S
N162 C160 1.347 . S
N162 C163 1.373 . S
C163 C161 1.350 . S
C163 N162 1.373 . S
C163 H177 0.931 . S
C164 O167 1.256 . S
C164 O168 1.255 . S
O165 Co148 2.021 . S
O165 C158 1.259 . S
O166 Co150 2.117 . S
O166 C158 1.258 . S
O167 Co150 2.020 . S
O167 C164 1.256 . S
O168 Co148 2.062 . S
O168 C164 1.255 . S
O169 C149 1.259 . S
O169 Co150 2.021 . S
H170 C161 0.930 . S
H171 C160 0.931 . S
O172 Co148 2.117 . S
O172 C149 1.258 . S
O173 Co148 2.020 . S
O173 C175 1.256 . S
O174 Co150 2.062 . S
O174 C175 1.255 . S
C175 O173 1.256 . S
C175 O174 1.255 . S
H176 C155 0.931 . S
H177 C163 0.931 . S
Co178 N183 2.057 . S
Co178 O195 2.021 1_455 S
Co178 O198 2.062 1_455 S
Co178 O202 2.117 . S
Co178 O203 2.020 . S
C179 O199 1.259 . S
C179 O202 1.258 . S
Co180 N189 2.057 . S
Co180 O196 2.117 1_455 S
Co180 O197 2.020 1_455 S
Co180 O199 2.021 . S
Co180 O204 2.062 . S
C181 N183 1.316 . S
C181 N184 1.347 . S
C181 H186 0.931 1_455 S
C182 N183 1.375 . S
C182 C185 1.350 . S
C182 H187 0.930 . S
N183 Co178 2.057 . S
N183 C181 1.316 . S
N183 C182 1.375 . S
N184 C181 1.347 . S
N184 C185 1.373 . S
C185 C182 1.350 . S
C185 N184 1.373 . S
C185 H206 0.931 . S
H186 C181 0.931 1_655 S
H187 C182 0.930 . S
C188 O195 1.259 . S
C188 O196 1.258 . S
N189 Co180 2.057 . S
N189 C190 1.316 . S
N189 C191 1.375 1_455 S
C190 N189 1.316 . S
C190 N192 1.347 . S
C190 H201 0.931 . S
C191 N189 1.375 1_655 S
C191 C193 1.350 1_655 S
C191 H200 0.930 . S
N192 C190 1.347 . S
N192 C193 1.373 . S
C193 C191 1.350 1_455 S
C193 N192 1.373 . S
C193 H207 0.931 1_455 S
C194 O197 1.256 . S
C194 O198 1.255 . S
O195 Co178 2.021 1_655 S
O195 C188 1.259 . S
O196 Co180 2.117 1_655 S
O196 C188 1.258 . S
O197 Co180 2.020 1_655 S
O197 C194 1.256 . S
O198 Co178 2.062 1_655 S
O198 C194 1.255 . S
O199 C179 1.259 . S
O199 Co180 2.021 . S
H200 C191 0.930 . S
H201 C190 0.931 . S
O202 Co178 2.117 . S
O202 C179 1.258 . S
O203 Co178 2.020 . S
O203 C205 1.256 . S
O204 Co180 2.062 . S
O204 C205 1.255 . S
C205 O203 1.256 . S
C205 O204 1.255 . S
H206 C185 0.931 . S
H207 C193 0.931 1_655 S
C208 C209 1.387 . S
C208 H212 0.950 . S
C208 C217 1.390 . S
C209 C208 1.387 . S
C209 C211 1.387 1_565 S
H210 C217 0.950 . S
C211 C209 1.387 1_545 S
C211 C213 1.390 . S
C211 H215 0.950 . S
H212 C208 0.950 . S
C213 C211 1.390 . S
C213 C214 1.387 1_545 S
C213 H216 0.950 . S
C214 C213 1.387 1_565 S
C214 C217 1.387 . S
H215 C211 0.950 . S
H216 C213 0.950 . S
C217 C208 1.390 . S
C217 H210 0.950 . S
C217 C214 1.387 . S
C218 C219 1.387 . S
C218 H222 0.950 . S
C218 C227 1.390 . S
C219 C218 1.387 . S
C219 C221 1.387 . S
H220 C227 0.950 . S
C221 C219 1.387 . S
C221 C223 1.390 . S
C221 H225 0.950 . S
H222 C218 0.950 . S
C223 C221 1.390 . S
C223 C224 1.387 . S
C223 H226 0.950 . S
C224 C223 1.387 . S
C224 C227 1.387 . S
H225 C221 0.950 . S
H226 C223 0.950 . S
C227 C218 1.390 . S
C227 H220 0.950 . S
C227 C224 1.387 . S
C228 C229 1.387 . S
C228 H232 0.950 . S
C228 C237 1.390 . S
C229 C228 1.387 . S
C229 C231 1.387 . S
H230 C237 0.950 . S
C231 C229 1.387 . S
C231 C233 1.390 . S
C231 H235 0.950 . S
H232 C228 0.950 . S
C233 C231 1.390 . S
C233 C234 1.387 . S
C233 H236 0.950 . S
C234 C233 1.387 . S
C234 C237 1.387 . S
H235 C231 0.950 . S
H236 C233 0.950 . S
C237 C228 1.390 . S
C237 H230 0.950 . S
C237 C234 1.387 . S
C238 C239 1.387 . S
C238 H242 0.950 . S
C238 C247 1.390 . S
C239 C238 1.387 . S
C239 C241 1.387 . S
H240 C247 0.950 . S
C241 C239 1.387 . S
C241 C243 1.390 . S
C241 H245 0.950 . S
H242 C238 0.950 . S
C243 C241 1.390 . S
C243 C244 1.387 . S
C243 H246 0.950 . S
C244 C243 1.387 . S
C244 C247 1.387 . S
H245 C241 0.950 . S
H246 C243 0.950 . S
C247 C238 1.390 . S
C247 H240 0.950 . S
C247 C244 1.387 . S
C248 C249 1.387 1_565 S
C248 H252 0.950 . S
C248 C257 1.390 . S
C249 C248 1.387 1_545 S
C249 C251 1.387 . S
H250 C257 0.950 . S
C251 C249 1.387 . S
C251 C253 1.390 . S
C251 H255 0.950 . S
H252 C248 0.950 . S
C253 C251 1.390 . S
C253 C254 1.387 . S
C253 H256 0.950 . S
C254 C253 1.387 . S
C254 C257 1.387 1_545 S
H255 C251 0.950 . S
H256 C253 0.950 . S
C257 C248 1.390 . S
C257 H250 0.950 . S
C257 C254 1.387 1_565 S
C258 C259 1.387 1_556 S
C258 H262 0.950 . S
C258 C267 1.390 . S
C259 C258 1.387 1_554 S
C259 C261 1.387 . S
H260 C267 0.950 . S
C261 C259 1.387 . S
C261 C263 1.390 . S
C261 H265 0.950 . S
H262 C258 0.950 . S
C263 C261 1.390 . S
C263 C264 1.387 1_554 S
C263 H266 0.950 . S
C264 C263 1.387 1_556 S
C264 C267 1.387 . S
H265 C261 0.950 . S
H266 C263 0.950 . S
C267 C258 1.390 . S
C267 H260 0.950 . S
C267 C264 1.387 . S
C268 C269 1.387 . S
C268 H272 0.950 . S
C268 C277 1.390 1_554 S
C269 C268 1.387 . S
C269 C271 1.387 . S
H270 C277 0.950 . S
C271 C269 1.387 . S
C271 C273 1.390 . S
C271 H275 0.950 . S
H272 C268 0.950 . S
C273 C271 1.390 . S
C273 C274 1.387 1_554 S
C273 H276 0.950 . S
C274 C273 1.387 1_556 S
C274 C277 1.387 . S
H275 C271 0.950 . S
H276 C273 0.950 . S
C277 C268 1.390 1_556 S
C277 H270 0.950 . S
C277 C274 1.387 . S
C278 C279 1.387 . S
C278 H282 0.950 . S
C278 C287 1.384 1_554 S
C279 C278 1.387 . S
C279 C281 1.387 1_554 S
H280 C287 0.947 1_554 S
C281 C279 1.387 1_556 S
C281 C283 1.390 . S
C281 H285 0.950 . S
H282 C278 0.950 . S
C283 C281 1.390 . S
C283 C284 1.387 . S
C283 H286 0.950 1_655 S
C284 C283 1.387 . S
C284 C287 1.396 . S
H285 C281 0.950 . S
H286 C283 0.950 1_455 S
C287 C278 1.384 1_556 S
C287 H280 0.947 1_556 S
C287 C284 1.396 . S
C288 C289 1.387 . S
C288 H292 0.950 . S
C288 C297 1.390 . S
C289 C288 1.387 . S
C289 C291 1.387 . S
H290 C297 0.950 . S
C291 C289 1.387 . S
C291 C293 1.390 . S
C291 H295 0.950 . S
H292 C288 0.950 . S
C293 C291 1.390 . S
C293 C294 1.387 . S
C293 H296 0.950 . S
C294 C293 1.387 . S
C294 C297 1.387 . S
H295 C291 0.950 . S
H296 C293 0.950 . S
C297 C288 1.390 . S
C297 H290 0.950 . S
C297 C294 1.387 . S
C298 C299 1.413 . S
C298 H302 0.950 . S
C298 C307 1.390 . S
C299 C298 1.413 . S
C299 C301 1.365 1_565 S
H300 C307 0.950 . S
C301 C299 1.365 1_545 S
C301 C303 1.390 . S
C301 H305 0.950 . S
H302 C298 0.950 . S
C303 C301 1.390 . S
C303 C304 1.387 1_545 S
C303 H306 0.950 . S
C304 C303 1.387 1_565 S
C304 C307 1.387 . S
H305 C301 0.950 . S
H306 C303 0.950 . S
C307 C298 1.390 . S
C307 H300 0.950 . S
C307 C304 1.387 . S
C308 C309 1.387 . S
C308 H312 0.950 . S
C308 C317 1.390 . S
C309 C308 1.387 . S
C309 C311 1.387 . S
H310 C317 0.950 . S
C311 C309 1.387 . S
C311 C313 1.390 . S
C311 H315 0.950 . S
H312 C308 0.950 . S
C313 C311 1.390 . S
C313 C314 1.387 . S
C313 H316 0.950 . S
C314 C313 1.387 . S
C314 C317 1.387 . S
H315 C311 0.950 . S
H316 C313 0.950 . S
C317 C308 1.390 . S
C317 H310 0.950 . S
C317 C314 1.387 . S
C318 C319 1.387 . S
C318 H322 0.950 . S
C318 C327 1.390 . S
C319 C318 1.387 . S
C319 C321 1.387 . S
H320 C327 0.950 . S
C321 C319 1.387 . S
C321 C323 1.390 . S
C321 H325 0.950 . S
H322 C318 0.950 . S
C323 C321 1.390 . S
C323 C324 1.387 . S
C323 H326 0.950 . S
C324 C323 1.387 . S
C324 C327 1.387 . S
H325 C321 0.950 . S
H326 C323 0.950 . S
C327 C318 1.390 . S
C327 H320 0.950 . S
C327 C324 1.387 . S
C328 C329 1.387 1_554 S
C328 H332 0.950 . S
C328 C337 1.390 . S
C329 C328 1.387 1_556 S
C329 C331 1.387 . S
H330 C337 0.950 1_455 S
C331 C329 1.387 . S
C331 C333 1.390 . S
C331 H335 0.950 . S
H332 C328 0.950 . S
C333 C331 1.390 . S
C333 C334 1.387 1_655 S
C333 H336 0.950 1_655 S
C334 C333 1.387 1_455 S
C334 C337 1.387 1_456 S
H335 C331 0.950 . S
H336 C333 0.950 1_455 S
C337 C328 1.390 . S
C337 H330 0.950 1_655 S
C337 C334 1.387 1_654 S
C338 C339 1.387 . S
C338 H342 0.950 . S
C338 C347 1.390 . S
C339 C338 1.387 . S
C339 C341 1.387 1_556 S
H340 C347 0.950 . S
C341 C339 1.387 1_554 S
C341 C343 1.390 . S
C341 H345 0.950 1_545 S
H342 C338 0.950 . S
C343 C341 1.390 . S
C343 C344 1.387 1_554 S
C343 H346 0.950 . S
C344 C343 1.387 1_556 S
C344 C347 1.387 . S
H345 C341 0.950 1_565 S
H346 C343 0.950 . S
C347 C338 1.390 . S
C347 H340 0.950 . S
C347 C344 1.387 . S
C348 C349 1.387 . S
C348 H352 0.950 . S
C348 C357 1.390 1_554 S
C349 C348 1.387 . S
C349 C351 1.387 . S
H350 C357 0.950 . S
C351 C349 1.387 . S
C351 C353 1.390 1_554 S
C351 H355 0.950 . S
H352 C348 0.950 . S
C353 C351 1.390 1_556 S
C353 C354 1.387 . S
C353 H356 0.950 . S
C354 C353 1.387 . S
C354 C357 1.387 . S
H355 C351 0.950 . S
H356 C353 0.950 . S
C357 C348 1.390 1_556 S
C357 H350 0.950 . S
C357 C354 1.387 . S
C358 C359 1.387 . S
C358 H362 0.950 1_554 S
C358 C367 1.390 1_554 S
C359 C358 1.387 . S
C359 C361 1.387 . S
H360 C367 0.950 . S
C361 C359 1.387 . S
C361 C363 1.390 . S
C361 H365 0.950 . S
H362 C358 0.950 1_556 S
C363 C361 1.390 . S
C363 C364 1.387 1_554 S
C363 H366 0.950 . S
C364 C363 1.387 1_556 S
C364 C367 1.387 . S
H365 C361 0.950 . S
H366 C363 0.950 . S
C367 C358 1.390 1_556 S
C367 H360 0.950 . S
C367 C364 1.387 . S
C368 C369 1.387 . S
C368 H372 0.950 . S
C368 C377 1.390 . S
C369 C368 1.387 . S
C369 C371 1.387 . S
H370 C377 0.950 . S
C371 C369 1.387 . S
C371 C373 1.390 . S
C371 H375 0.950 . S
H372 C368 0.950 . S
C373 C371 1.390 . S
C373 C374 1.387 . S
C373 H376 0.950 . S
C374 C373 1.387 . S
C374 C377 1.387 . S
H375 C371 0.950 . S
H376 C373 0.950 . S
C377 C368 1.390 . S
C377 H370 0.950 . S
C377 C374 1.387 . S
C378 C379 1.387 1_565 S
C378 H382 0.950 . S
C378 C387 1.390 . S
C379 C378 1.387 1_545 S
C379 C381 1.387 . S
H380 C387 0.950 . S
C381 C379 1.387 . S
C381 C383 1.390 . S
C381 H385 0.950 . S
H382 C378 0.950 . S
C383 C381 1.390 . S
C383 C384 1.387 . S
C383 H386 0.950 . S
C384 C383 1.387 . S
C384 C387 1.387 1_545 S
H385 C381 0.950 . S
H386 C383 0.950 . S
C387 C378 1.390 . S
C387 H380 0.950 . S
C387 C384 1.387 1_565 S
C388 C389 1.387 . S
C388 H392 0.950 . S
C388 C397 1.390 . S
C389 C388 1.387 . S
C389 C391 1.387 . S
H390 C397 0.950 . S
C391 C389 1.387 . S
C391 C393 1.390 . S
C391 H395 0.950 . S
H392 C388 0.950 . S
C393 C391 1.390 . S
C393 C394 1.387 . S
C393 H396 0.950 . S
C394 C393 1.387 . S
C394 C397 1.387 . S
H395 C391 0.950 . S
H396 C393 0.950 . S
C397 C388 1.390 . S
C397 H390 0.950 . S
C397 C394 1.387 . S
C398 C399 1.387 . S
C398 H402 0.950 . S
C398 C407 1.390 . S
C399 C398 1.387 . S
C399 C401 1.387 . S
H400 C407 0.950 . S
C401 C399 1.387 . S
C401 C403 1.390 . S
C401 H405 0.950 . S
H402 C398 0.950 . S
C403 C401 1.390 . S
C403 C404 1.387 . S
C403 H406 0.950 . S
C404 C403 1.387 . S
C404 C407 1.387 . S
H405 C401 0.950 . S
H406 C403 0.950 . S
C407 C398 1.390 . S
C407 H400 0.950 . S
C407 C404 1.387 . S
C408 C409 1.387 . S
C408 H412 0.950 1_655 S
C408 C417 1.397 . S
C409 C408 1.387 . S
C409 C411 1.387 . S
H410 C417 0.924 1_455 S
C411 C409 1.387 . S
C411 C413 1.390 . S
C411 H415 0.950 . S
H412 C408 0.950 1_455 S
C413 C411 1.390 . S
C413 C414 1.387 . S
C413 H416 0.950 . S
C414 C413 1.387 . S
C414 C417 1.407 . S
H415 C411 0.950 . S
H416 C413 0.950 . S
C417 C408 1.397 . S
C417 H410 0.924 1_655 S
C417 C414 1.407 . S
C418 C419 1.387 1_545 S
C418 H422 0.950 . S
C418 C427 1.390 . S
C419 C418 1.387 1_565 S
C419 C421 1.387 . S
H420 C427 0.950 . S
C421 C419 1.387 . S
C421 C423 1.390 . S
C421 H425 0.950 . S
H422 C418 0.950 . S
C423 C421 1.390 . S
C423 C424 1.387 . S
C423 H426 0.950 . S
C424 C423 1.387 . S
C424 C427 1.387 1_565 S
H425 C421 0.950 . S
H426 C423 0.950 . S
C427 C418 1.390 . S
C427 H420 0.950 . S
C427 C424 1.387 1_545 S
C428 C429 1.387 . S
C428 H432 0.950 . S
C428 C437 1.390 . S
C429 C428 1.387 . S
C429 C431 1.387 . S
H430 C437 0.950 . S
C431 C429 1.387 . S
C431 C433 1.390 . S
C431 H435 0.950 . S
H432 C428 0.950 . S
C433 C431 1.390 . S
C433 C434 1.387 . S
C433 H436 0.950 . S
C434 C433 1.387 . S
C434 C437 1.387 . S
H435 C431 0.950 . S
H436 C433 0.950 . S
C437 C428 1.390 . S
C437 H430 0.950 . S
C437 C434 1.387 . S
C438 C439 1.387 . S
C438 H442 0.950 . S
C438 C447 1.390 . S
C439 C438 1.387 . S
C439 C441 1.387 . S
H440 C447 0.950 . S
C441 C439 1.387 . S
C441 C443 1.390 . S
C441 H445 0.950 . S
H442 C438 0.950 . S
C443 C441 1.390 . S
C443 C444 1.387 . S
C443 H446 0.950 . S
C444 C443 1.387 . S
C444 C447 1.387 . S
H445 C441 0.950 . S
H446 C443 0.950 . S
C447 C438 1.390 . S
C447 H440 0.950 . S
C447 C444 1.387 . S
C209 C74 1.696 1_565 S
C214 C98 1.691 . S
C224 C128 1.784 . S
C219 C85 1.786 . S
C234 N162 1.357 . S
C229 C52 1.401 . S
C244 N192 1.515 . S
C239 C63 1.546 . S
C254 C89 1.691 . S
C249 C30 1.680 . S
C259 C41 1.747 . S
C264 C119 1.788 . S
C269 C8 1.382 . S
C274 N154 1.361 . S
C279 C19 1.464 . S
C284 N184 1.516 1_655 S
C294 C104 0.807 . S
C289 C62 0.813 . S
C304 C134 1.143 . S
C299 C73 1.142 1_565 S
C314 C175 1.403 . S
C309 C84 1.424 . S
C319 C51 0.862 . S
C324 C205 0.856 . S
C329 C18 0.785 1_556 S
C334 C115 0.810 . S
C344 C145 1.141 . S
C339 C29 1.129 . S
C354 C164 1.403 . S
C349 C40 1.347 . S
C359 C7 0.836 . S
C364 C194 0.854 . S
C369 C60 1.347 . S
C374 N94 1.490 . S
C379 C71 1.175 . S
C384 N124 1.419 . S
C394 C149 1.659 1_554 S
C389 C82 1.464 . S
C404 C179 1.584 1_554 S
C399 C49 1.360 . S
C409 C16 1.163 . S
C414 N102 1.497 . S
C424 N132 1.418 . S
C419 C27 1.251 1_565 S
C434 C158 1.659 . S
C429 C38 1.349 . S
C439 C5 1.327 . S
C444 C188 1.584 . S
