# Generated by pormake.
# Topology gar, (4,6)-cn, num edge types: 1
# Building blocks:
#     Node 0, Type 0, BuildingBlock: NAHDIM_clean_sbu_0, # of connection points: 4
#     Node 1, Type 0, BuildingBlock: NAHDIM_clean_sbu_0, # of connection points: 4
#     Node 2, Type 0, BuildingBlock: NAHDIM_clean_sbu_0, # of connection points: 4
#     Node 3, Type 0, BuildingBlock: NAHDIM_clean_sbu_0, # of connection points: 4
#     Node 4, Type 0, BuildingBlock: NAHDIM_clean_sbu_0, # of connection points: 4
#     Node 5, Type 0, BuildingBlock: NAHDIM_clean_sbu_0, # of connection points: 4
#     Node 6, Type 0, BuildingBlock: NAHDIM_clean_sbu_0, # of connection points: 4
#     Node 7, Type 0, BuildingBlock: NAHDIM_clean_sbu_0, # of connection points: 4
#     Node 8, Type 0, BuildingBlock: NAHDIM_clean_sbu_0, # of connection points: 4
#     Node 9, Type 0, BuildingBlock: NAHDIM_clean_sbu_0, # of connection points: 4
#     Node 10, Type 0, BuildingBlock: NAHDIM_clean_sbu_0, # of connection points: 4
#     Node 11, Type 0, BuildingBlock: NAHDIM_clean_sbu_0, # of connection points: 4
#     Node 12, Type 0, BuildingBlock: NAHDIM_clean_sbu_0, # of connection points: 4
#     Node 13, Type 0, BuildingBlock: NAHDIM_clean_sbu_0, # of connection points: 4
#     Node 14, Type 0, BuildingBlock: NAHDIM_clean_sbu_0, # of connection points: 4
#     Node 15, Type 0, BuildingBlock: NAHDIM_clean_sbu_0, # of connection points: 4
#     Node 16, Type 0, BuildingBlock: NAHDIM_clean_sbu_0, # of connection points: 4
#     Node 17, Type 0, BuildingBlock: NAHDIM_clean_sbu_0, # of connection points: 4
#     Node 18, Type 0, BuildingBlock: NAHDIM_clean_sbu_0, # of connection points: 4
#     Node 19, Type 0, BuildingBlock: NAHDIM_clean_sbu_0, # of connection points: 4
#     Node 20, Type 0, BuildingBlock: NAHDIM_clean_sbu_0, # of connection points: 4
#     Node 21, Type 0, BuildingBlock: NAHDIM_clean_sbu_0, # of connection points: 4
#     Node 22, Type 0, BuildingBlock: NAHDIM_clean_sbu_0, # of connection points: 4
#     Node 23, Type 0, BuildingBlock: NAHDIM_clean_sbu_0, # of connection points: 4
#     Node 24, Type 1, BuildingBlock: CUKXOW_clean_sbu_0, # of connection points: 6
#     Node 25, Type 1, BuildingBlock: CUKXOW_clean_sbu_0, # of connection points: 6
#     Node 26, Type 1, BuildingBlock: CUKXOW_clean_sbu_0, # of connection points: 6
#     Node 27, Type 1, BuildingBlock: CUKXOW_clean_sbu_0, # of connection points: 6
#     Node 28, Type 1, BuildingBlock: CUKXOW_clean_sbu_0, # of connection points: 6
#     Node 29, Type 1, BuildingBlock: CUKXOW_clean_sbu_0, # of connection points: 6
#     Node 30, Type 1, BuildingBlock: CUKXOW_clean_sbu_0, # of connection points: 6
#     Node 31, Type 1, BuildingBlock: CUKXOW_clean_sbu_0, # of connection points: 6
#     Node 32, Type 1, BuildingBlock: CUKXOW_clean_sbu_0, # of connection points: 6
#     Node 33, Type 1, BuildingBlock: CUKXOW_clean_sbu_0, # of connection points: 6
#     Node 34, Type 1, BuildingBlock: CUKXOW_clean_sbu_0, # of connection points: 6
#     Node 35, Type 1, BuildingBlock: CUKXOW_clean_sbu_0, # of connection points: 6
#     Node 36, Type 1, BuildingBlock: CUKXOW_clean_sbu_0, # of connection points: 6
#     Node 37, Type 1, BuildingBlock: CUKXOW_clean_sbu_0, # of connection points: 6
#     Node 38, Type 1, BuildingBlock: CUKXOW_clean_sbu_0, # of connection points: 6
#     Node 39, Type 1, BuildingBlock: CUKXOW_clean_sbu_0, # of connection points: 6
#     Edge 40, Type (0, 1), BuildingBlock: XUDNAN_clean_linker_2, # of connection points: 2
#     Edge 41, Type (0, 1), BuildingBlock: XUDNAN_clean_linker_2, # of connection points: 2
#     Edge 42, Type (0, 1), BuildingBlock: XUDNAN_clean_linker_2, # of connection points: 2
#     Edge 43, Type (0, 1), BuildingBlock: XUDNAN_clean_linker_2, # of connection points: 2
#     Edge 44, Type (0, 1), BuildingBlock: XUDNAN_clean_linker_2, # of connection points: 2
#     Edge 45, Type (0, 1), BuildingBlock: XUDNAN_clean_linker_2, # of connection points: 2
#     Edge 46, Type (0, 1), BuildingBlock: XUDNAN_clean_linker_2, # of connection points: 2
#     Edge 47, Type (0, 1), BuildingBlock: XUDNAN_clean_linker_2, # of connection points: 2
#     Edge 48, Type (0, 1), BuildingBlock: XUDNAN_clean_linker_2, # of connection points: 2
#     Edge 49, Type (0, 1), BuildingBlock: XUDNAN_clean_linker_2, # of connection points: 2
#     Edge 50, Type (0, 1), BuildingBlock: XUDNAN_clean_linker_2, # of connection points: 2
#     Edge 51, Type (0, 1), BuildingBlock: XUDNAN_clean_linker_2, # of connection points: 2
#     Edge 52, Type (0, 1), BuildingBlock: XUDNAN_clean_linker_2, # of connection points: 2
#     Edge 53, Type (0, 1), BuildingBlock: XUDNAN_clean_linker_2, # of connection points: 2
#     Edge 54, Type (0, 1), BuildingBlock: XUDNAN_clean_linker_2, # of connection points: 2
#     Edge 55, Type (0, 1), BuildingBlock: XUDNAN_clean_linker_2, # of connection points: 2
#     Edge 56, Type (0, 1), BuildingBlock: XUDNAN_clean_linker_2, # of connection points: 2
#     Edge 57, Type (0, 1), BuildingBlock: XUDNAN_clean_linker_2, # of connection points: 2
#     Edge 58, Type (0, 1), BuildingBlock: XUDNAN_clean_linker_2, # of connection points: 2
#     Edge 59, Type (0, 1), BuildingBlock: XUDNAN_clean_linker_2, # of connection points: 2
#     Edge 60, Type (0, 1), BuildingBlock: XUDNAN_clean_linker_2, # of connection points: 2
#     Edge 61, Type (0, 1), BuildingBlock: XUDNAN_clean_linker_2, # of connection points: 2
#     Edge 62, Type (0, 1), BuildingBlock: XUDNAN_clean_linker_2, # of connection points: 2
#     Edge 63, Type (0, 1), BuildingBlock: XUDNAN_clean_linker_2, # of connection points: 2
#     Edge 64, Type (0, 1), BuildingBlock: XUDNAN_clean_linker_2, # of connection points: 2
#     Edge 65, Type (0, 1), BuildingBlock: XUDNAN_clean_linker_2, # of connection points: 2
#     Edge 66, Type (0, 1), BuildingBlock: XUDNAN_clean_linker_2, # of connection points: 2
#     Edge 67, Type (0, 1), BuildingBlock: XUDNAN_clean_linker_2, # of connection points: 2
#     Edge 68, Type (0, 1), BuildingBlock: XUDNAN_clean_linker_2, # of connection points: 2
#     Edge 69, Type (0, 1), BuildingBlock: XUDNAN_clean_linker_2, # of connection points: 2
#     Edge 70, Type (0, 1), BuildingBlock: XUDNAN_clean_linker_2, # of connection points: 2
#     Edge 71, Type (0, 1), BuildingBlock: XUDNAN_clean_linker_2, # of connection points: 2
#     Edge 72, Type (0, 1), BuildingBlock: XUDNAN_clean_linker_2, # of connection points: 2
#     Edge 73, Type (0, 1), BuildingBlock: XUDNAN_clean_linker_2, # of connection points: 2
#     Edge 74, Type (0, 1), BuildingBlock: XUDNAN_clean_linker_2, # of connection points: 2
#     Edge 75, Type (0, 1), BuildingBlock: XUDNAN_clean_linker_2, # of connection points: 2
#     Edge 76, Type (0, 1), BuildingBlock: XUDNAN_clean_linker_2, # of connection points: 2
#     Edge 77, Type (0, 1), BuildingBlock: XUDNAN_clean_linker_2, # of connection points: 2
#     Edge 78, Type (0, 1), BuildingBlock: XUDNAN_clean_linker_2, # of connection points: 2
#     Edge 79, Type (0, 1), BuildingBlock: XUDNAN_clean_linker_2, # of connection points: 2
#     Edge 80, Type (0, 1), BuildingBlock: XUDNAN_clean_linker_2, # of connection points: 2
#     Edge 81, Type (0, 1), BuildingBlock: XUDNAN_clean_linker_2, # of connection points: 2
#     Edge 82, Type (0, 1), BuildingBlock: XUDNAN_clean_linker_2, # of connection points: 2
#     Edge 83, Type (0, 1), BuildingBlock: XUDNAN_clean_linker_2, # of connection points: 2
#     Edge 84, Type (0, 1), BuildingBlock: XUDNAN_clean_linker_2, # of connection points: 2
#     Edge 85, Type (0, 1), BuildingBlock: XUDNAN_clean_linker_2, # of connection points: 2
#     Edge 86, Type (0, 1), BuildingBlock: XUDNAN_clean_linker_2, # of connection points: 2
#     Edge 87, Type (0, 1), BuildingBlock: XUDNAN_clean_linker_2, # of connection points: 2
#     Edge 88, Type (0, 1), BuildingBlock: XUDNAN_clean_linker_2, # of connection points: 2
#     Edge 89, Type (0, 1), BuildingBlock: XUDNAN_clean_linker_2, # of connection points: 2
#     Edge 90, Type (0, 1), BuildingBlock: XUDNAN_clean_linker_2, # of connection points: 2
#     Edge 91, Type (0, 1), BuildingBlock: XUDNAN_clean_linker_2, # of connection points: 2
#     Edge 92, Type (0, 1), BuildingBlock: XUDNAN_clean_linker_2, # of connection points: 2
#     Edge 93, Type (0, 1), BuildingBlock: XUDNAN_clean_linker_2, # of connection points: 2
#     Edge 94, Type (0, 1), BuildingBlock: XUDNAN_clean_linker_2, # of connection points: 2
#     Edge 95, Type (0, 1), BuildingBlock: XUDNAN_clean_linker_2, # of connection points: 2
#     Edge 96, Type (0, 1), BuildingBlock: XUDNAN_clean_linker_2, # of connection points: 2
#     Edge 97, Type (0, 1), BuildingBlock: XUDNAN_clean_linker_2, # of connection points: 2
#     Edge 98, Type (0, 1), BuildingBlock: XUDNAN_clean_linker_2, # of connection points: 2
#     Edge 99, Type (0, 1), BuildingBlock: XUDNAN_clean_linker_2, # of connection points: 2
#     Edge 100, Type (0, 1), BuildingBlock: XUDNAN_clean_linker_2, # of connection points: 2
#     Edge 101, Type (0, 1), BuildingBlock: XUDNAN_clean_linker_2, # of connection points: 2
#     Edge 102, Type (0, 1), BuildingBlock: XUDNAN_clean_linker_2, # of connection points: 2
#     Edge 103, Type (0, 1), BuildingBlock: XUDNAN_clean_linker_2, # of connection points: 2
#     Edge 104, Type (0, 1), BuildingBlock: XUDNAN_clean_linker_2, # of connection points: 2
#     Edge 105, Type (0, 1), BuildingBlock: XUDNAN_clean_linker_2, # of connection points: 2
#     Edge 106, Type (0, 1), BuildingBlock: XUDNAN_clean_linker_2, # of connection points: 2
#     Edge 107, Type (0, 1), BuildingBlock: XUDNAN_clean_linker_2, # of connection points: 2
#     Edge 108, Type (0, 1), BuildingBlock: XUDNAN_clean_linker_2, # of connection points: 2
#     Edge 109, Type (0, 1), BuildingBlock: XUDNAN_clean_linker_2, # of connection points: 2
#     Edge 110, Type (0, 1), BuildingBlock: XUDNAN_clean_linker_2, # of connection points: 2
#     Edge 111, Type (0, 1), BuildingBlock: XUDNAN_clean_linker_2, # of connection points: 2
#     Edge 112, Type (0, 1), BuildingBlock: XUDNAN_clean_linker_2, # of connection points: 2
#     Edge 113, Type (0, 1), BuildingBlock: XUDNAN_clean_linker_2, # of connection points: 2
#     Edge 114, Type (0, 1), BuildingBlock: XUDNAN_clean_linker_2, # of connection points: 2
#     Edge 115, Type (0, 1), BuildingBlock: XUDNAN_clean_linker_2, # of connection points: 2
#     Edge 116, Type (0, 1), BuildingBlock: XUDNAN_clean_linker_2, # of connection points: 2
#     Edge 117, Type (0, 1), BuildingBlock: XUDNAN_clean_linker_2, # of connection points: 2
#     Edge 118, Type (0, 1), BuildingBlock: XUDNAN_clean_linker_2, # of connection points: 2
#     Edge 119, Type (0, 1), BuildingBlock: XUDNAN_clean_linker_2, # of connection points: 2
#     Edge 120, Type (0, 1), BuildingBlock: XUDNAN_clean_linker_2, # of connection points: 2
#     Edge 121, Type (0, 1), BuildingBlock: XUDNAN_clean_linker_2, # of connection points: 2
#     Edge 122, Type (0, 1), BuildingBlock: XUDNAN_clean_linker_2, # of connection points: 2
#     Edge 123, Type (0, 1), BuildingBlock: XUDNAN_clean_linker_2, # of connection points: 2
#     Edge 124, Type (0, 1), BuildingBlock: XUDNAN_clean_linker_2, # of connection points: 2
#     Edge 125, Type (0, 1), BuildingBlock: XUDNAN_clean_linker_2, # of connection points: 2
#     Edge 126, Type (0, 1), BuildingBlock: XUDNAN_clean_linker_2, # of connection points: 2
#     Edge 127, Type (0, 1), BuildingBlock: XUDNAN_clean_linker_2, # of connection points: 2
#     Edge 128, Type (0, 1), BuildingBlock: XUDNAN_clean_linker_2, # of connection points: 2
#     Edge 129, Type (0, 1), BuildingBlock: XUDNAN_clean_linker_2, # of connection points: 2
#     Edge 130, Type (0, 1), BuildingBlock: XUDNAN_clean_linker_2, # of connection points: 2
#     Edge 131, Type (0, 1), BuildingBlock: XUDNAN_clean_linker_2, # of connection points: 2
#     Edge 132, Type (0, 1), BuildingBlock: XUDNAN_clean_linker_2, # of connection points: 2
#     Edge 133, Type (0, 1), BuildingBlock: XUDNAN_clean_linker_2, # of connection points: 2
#     Edge 134, Type (0, 1), BuildingBlock: XUDNAN_clean_linker_2, # of connection points: 2
#     Edge 135, Type (0, 1), BuildingBlock: XUDNAN_clean_linker_2, # of connection points: 2
# Relax obj value: 0.121
# Max RMSD: 0.224
# Mean RMSD: 0.152
data_MOF--net-gar--node1-NAHDIM_clean_sbu_0--node2-CUKXOW_clean_sbu_0--edge1-XUDNAN_clean_linker_2
_symmetry_space_group_name_H-M    P1
_symmetry_Int_Tables_number       1
_symmetry_cell_setting            triclinic
loop_
_symmetry_equiv_pos_as_xyz
'x, y, z'
_cell_length_a     56.217413
_cell_length_b     53.703735
_cell_length_c     52.819452
_cell_angle_alpha  93.814024
_cell_angle_beta   95.714503
_cell_angle_gamma 99.724946
loop_
_atom_site_label
_atom_site_type_symbol
_atom_site_fract_x
_atom_site_fract_y
_atom_site_fract_z
_atom_type_partial_charge
C0 C 0.06026 0.2735 0.38189 0.0
O1 O 0.05298 0.29549 0.38152 0.0
O2 O 0.02037 0.23968 0.44277 0.0
Zn3 Zn 0.02836 0.26756 0.41998 0.0
O4 O 0.04059 0.30064 0.44087 0.0
C5 C 0.97872 0.25759 0.39458 0.0
O6 O 0.97477 0.23962 0.41015 0.0
O7 O 0.05287 0.25834 0.39801 0.0
C8 C 0.02424 0.31194 0.44865 0.0
O9 O 1.00133 0.30161 0.44237 0.0
C10 C 0.0156 0.24241 0.46572 0.0
O11 O 0.01502 0.2651 0.47623 0.0
O12 O 0.99961 0.27126 0.39591 0.0
C13 C 0.96089 0.77821 0.62772 0.0
O14 O 0.96774 0.75604 0.62864 0.0
O15 O 0.99437 0.75418 0.57747 0.0
Zn16 Zn 1.0 0.78788 0.59711 0.0
O17 O 0.00858 0.81494 0.57404 0.0
C18 C 0.04837 0.80038 0.62456 0.0
O19 O 0.05432 0.81134 0.60402 0.0
O20 O 0.97126 0.79437 0.61409 0.0
C21 C 0.01047 0.83748 0.58382 0.0
O22 O 0.00701 0.84131 0.60791 0.0
C23 C 0.97459 0.74403 0.56427 0.0
O24 O 0.95593 0.75586 0.56337 0.0
O25 O 0.02673 0.78916 0.62523 0.0
C26 C 0.56577 0.77618 0.89082 0.0
O27 O 0.56011 0.79894 0.89267 0.0
O28 O 0.51795 0.73824 0.94296 0.0
Zn29 Zn 0.52876 0.76719 0.92276 0.0
O30 O 0.53897 0.79967 0.94511 0.0
C31 C 0.48306 0.75445 0.89058 0.0
O32 O 0.47998 0.73391 0.90291 0.0
O33 O 0.55539 0.75915 0.90352 0.0
C34 C 0.52242 0.81224 0.94959 0.0
O35 O 0.49996 0.80339 0.93969 0.0
C36 C 0.50347 0.73841 0.95991 0.0
O37 O 0.49525 0.75921 0.96604 0.0
O38 O 0.50214 0.77101 0.89618 0.0
C39 C 0.45758 0.2884 0.13186 0.0
O40 O 0.45679 0.26445 0.12427 0.0
O41 O 0.48811 0.26319 0.08339 0.0
Zn42 Zn 0.50044 0.29489 0.10614 0.0
O43 O 0.51314 0.32282 0.08556 0.0
C44 C 0.52481 0.27281 0.14713 0.0
O45 O 0.50339 0.25856 0.14706 0.0
O46 O 0.47433 0.30505 0.12564 0.0
C47 C 0.51922 0.34484 0.09701 0.0
O48 O 0.51667 0.34814 0.1214 0.0
C49 C 0.50306 0.25476 0.07009 0.0
O50 O 0.52534 0.26748 0.07145 0.0
O51 O 0.52777 0.28936 0.13111 0.0
C52 C 0.94397 0.76171 0.17974 0.0
O53 O 0.93677 0.74391 0.16095 0.0
O54 O 0.9866 0.73008 0.14391 0.0
Zn55 Zn 0.99298 0.76599 0.16107 0.0
O56 O 0.99297 0.79052 0.13348 0.0
C57 C 0.04656 0.77981 0.17627 0.0
O58 O 0.04766 0.7876 0.1533 0.0
O59 O 0.96626 0.77238 0.18327 0.0
C60 C 1.00155 0.81405 0.13787 0.0
O61 O 0.01159 0.82289 0.16096 0.0
C62 C 0.99862 0.72507 0.12557 0.0
O63 O 0.01417 0.74343 0.11802 0.0
O64 O 0.02591 0.77091 0.18318 0.0
C65 C 0.57598 0.80111 0.3489 0.0
O66 O 0.58126 0.79742 0.37299 0.0
O67 O 0.52177 0.76744 0.37967 0.0
Zn68 Zn 0.52553 0.80077 0.36282 0.0
O69 O 0.52898 0.83034 0.39027 0.0
C70 C 0.48307 0.77849 0.32806 0.0
O71 O 0.49496 0.75942 0.32859 0.0
O72 O 0.55428 0.80344 0.341 0.0
C73 C 0.5139 0.82702 0.40672 0.0
O74 O 0.49834 0.80559 0.40471 0.0
C75 C 0.53234 0.76248 0.40072 0.0
O76 O 0.54885 0.78003 0.41395 0.0
O77 O 0.49299 0.79943 0.34051 0.0
C78 C 0.4579 0.27597 0.69109 0.0
O79 O 0.47255 0.29787 0.6966 0.0
O80 O 0.4986 0.22941 0.64085 0.0
Zn81 Zn 0.49652 0.26284 0.66057 0.0
O82 O 0.49493 0.28918 0.63479 0.0
C83 C 0.54163 0.25876 0.69201 0.0
O84 O 0.53503 0.23458 0.68431 0.0
O85 O 0.46476 0.25866 0.67735 0.0
C86 C 0.50575 0.31211 0.63929 0.0
O87 O 0.51852 0.31933 0.66155 0.0
C88 C 0.48163 0.21934 0.62362 0.0
O89 O 0.46285 0.2307 0.61922 0.0
O90 O 0.52756 0.27407 0.68544 0.0
C91 C 0.07519 0.30936 0.8528 0.0
O92 O 0.07572 0.31759 0.87687 0.0
O93 O 0.02937 0.26556 0.8827 0.0
Zn94 Zn 0.02557 0.29533 0.86141 0.0
O95 O 0.02769 0.32661 0.88647 0.0
C96 C 0.9825 0.2698 0.8264 0.0
O97 O 0.99471 0.25103 0.82502 0.0
O98 O 0.05478 0.29932 0.8405 0.0
C99 C 0.01659 0.32317 0.90614 0.0
O100 O 0.0043 0.30054 0.9085 0.0
C101 C 0.01312 0.24868 0.88965 0.0
O102 O 0.99012 0.2488 0.8823 0.0
O103 O 0.99225 0.29017 0.83988 0.0
C104 C 0.37572 0.11378 0.24364 0.0
O105 O 0.37734 0.1093 0.21917 0.0
O106 O 0.41821 0.06781 0.22091 0.0
Zn107 Zn 0.40183 0.06982 0.25427 0.0
O108 O 0.42511 0.06916 0.28643 0.0
C109 C 0.36215 0.02481 0.23778 0.0
O110 O 0.36428 0.02914 0.21385 0.0
O111 O 0.38515 0.10045 0.25959 0.0
C112 C 0.4453 0.06134 0.28761 0.0
O113 O 0.45361 0.05445 0.26634 0.0
C114 C 0.42163 0.04617 0.21203 0.0
O115 O 0.41541 0.02641 0.22487 0.0
O116 O 0.37565 0.03909 0.25563 0.0
C117 C 0.30255 0.1291 0.52022 0.0
O118 O 0.29072 0.13809 0.53794 0.0
O119 O 0.26107 0.17024 0.51679 0.0
Zn120 Zn 0.26968 0.15079 0.48652 0.0
O121 O 0.27905 0.17634 0.46165 0.0
C122 C 0.23162 0.11016 0.48757 0.0
O123 O 0.24393 0.10997 0.51003 0.0
O124 O 0.2968 0.1324 0.49694 0.0
C125 C 0.26644 0.19387 0.46079 0.0
O126 O 0.24785 0.19275 0.47416 0.0
C127 C 0.2758 0.18907 0.52825 0.0
O128 O 0.29776 0.19473 0.52139 0.0
O129 O 0.23981 0.12608 0.47244 0.0
C130 C 0.17087 0.95649 0.79695 0.0
O131 O 0.14878 0.94796 0.78579 0.0
O132 O 0.13558 0.99674 0.76476 0.0
Zn133 Zn 0.15462 0.00519 0.79939 0.0
O134 O 0.13147 0.00504 0.82643 0.0
C135 C 0.17297 0.06099 0.80769 0.0
O136 O 0.1564 0.06225 0.82337 0.0
O137 O 0.17685 0.97979 0.80502 0.0
C138 C 0.11038 0.00988 0.82025 0.0
O139 O 0.10477 0.01578 0.79692 0.0
C140 C 0.14572 0.99027 0.74552 0.0
O141 O 0.16867 0.98787 0.74859 0.0
O142 O 0.17513 0.03957 0.79728 0.0
C143 C 0.17797 0.92033 0.0475 0.0
O144 O 0.18178 0.90597 0.06615 0.0
O145 O 0.22452 0.87965 0.05986 0.0
Zn146 Zn 0.22034 0.90096 0.0287 0.0
O147 O 0.21654 0.8783 0.99467 0.0
C148 C 0.27143 0.91819 0.02498 0.0
O149 O 0.27038 0.89389 0.01884 0.0
O150 O 0.19176 0.92104 0.02967 0.0
C151 C 0.22615 0.88594 0.975 0.0
O152 O 0.23751 0.90949 0.97574 0.0
C153 C 0.23344 0.85948 0.05671 0.0
O154 O 0.23747 0.85215 0.03354 0.0
O155 O 0.25218 0.92608 0.03016 0.0
C156 C 0.23075 0.45157 0.0251 0.0
O157 O 0.25233 0.46057 0.01868 0.0
O158 O 0.24918 0.3902 0.07106 0.0
Zn159 Zn 0.25543 0.41328 0.04377 0.0
O160 O 0.25902 0.39133 0.0131 0.0
C161 C 0.30532 0.43629 0.06477 0.0
O162 O 0.30666 0.41492 0.07511 0.0
O163 O 0.22764 0.43115 0.03615 0.0
C164 C 0.27226 0.37446 0.01542 0.0
O165 O 0.28376 0.37231 0.03784 0.0
C166 C 0.22923 0.37463 0.06858 0.0
O167 O 0.21255 0.376 0.04971 0.0
O168 O 0.28567 0.43905 0.05214 0.0
C169 C 0.84743 0.1469 0.98778 0.0
O170 O 0.84585 0.16471 0.97213 0.0
O171 O 0.80652 0.18288 0.04054 0.0
Zn172 Zn 0.80289 0.16241 0.00543 0.0
O173 O 0.80044 0.18635 0.97656 0.0
C174 C 0.75082 0.14008 0.99539 0.0
O175 O 0.74896 0.16041 0.98336 0.0
O176 O 0.83156 0.1428 0.00338 0.0
C177 C 0.7926 0.18001 0.95307 0.0
O178 O 0.78547 0.15589 0.9454 0.0
C179 C 0.78845 0.19064 0.04937 0.0
O180 O 0.76747 0.18666 0.03506 0.0
O181 O 0.77167 0.1368 0.00488 0.0
C182 C 0.13998 0.43784 0.27545 0.0
O183 O 0.12698 0.43485 0.25302 0.0
O184 O 0.09859 0.47789 0.24827 0.0
Zn185 Zn 0.11787 0.48377 0.2838 0.0
O186 O 0.09542 0.48924 0.31113 0.0
C187 C 0.13919 0.53337 0.26948 0.0
O188 O 0.11939 0.53038 0.25331 0.0
O189 O 0.13797 0.45613 0.29129 0.0
C190 C 0.10212 0.49424 0.33497 0.0
O191 O 0.12497 0.49482 0.34358 0.0
C192 C 0.07546 0.47375 0.24517 0.0
O193 O 0.06364 0.47127 0.26535 0.0
O194 O 0.14213 0.51617 0.28433 0.0
C195 C 0.72156 0.94018 0.52078 0.0
O196 O 0.71837 0.91699 0.50981 0.0
O197 O 0.75266 0.90149 0.57253 0.0
Zn198 Zn 0.76301 0.92485 0.54612 0.0
O199 O 0.76502 0.90302 0.51468 0.0
C200 C 0.80491 0.96129 0.54283 0.0
O201 O 0.79251 0.96341 0.52087 0.0
O202 O 0.73941 0.94782 0.53774 0.0
C203 C 0.77434 0.88315 0.51611 0.0
O204 O 0.78375 0.87772 0.53841 0.0
C205 C 0.73085 0.89187 0.57502 0.0
O206 O 0.71291 0.89886 0.56098 0.0
O207 O 0.79572 0.94561 0.55766 0.0
C208 C 0.85187 0.10314 0.24164 0.0
O209 O 0.87463 0.1127 0.2498 0.0
O210 O 0.89292 0.06016 0.20681 0.0
Zn211 Zn 0.87072 0.05646 0.23503 0.0
O212 O 0.89124 0.06568 0.26859 0.0
C213 C 0.83346 0.01203 0.22077 0.0
O214 O 0.82523 0.02692 0.20454 0.0
O215 O 0.84627 0.07991 0.23323 0.0
C216 C 0.88433 0.05733 0.28906 0.0
O217 O 0.86302 0.04265 0.28834 0.0
C218 C 0.91443 0.05602 0.21218 0.0
O219 O 0.92061 0.04895 0.23488 0.0
O220 O 0.85307 0.0203 0.2352 0.0
C221 C 0.33611 0.63326 0.52168 0.0
O222 O 0.32421 0.6365 0.54149 0.0
O223 O 0.30543 0.68594 0.53544 0.0
Zn224 Zn 0.30013 0.66196 0.50229 0.0
O225 O 0.29622 0.68197 0.47036 0.0
C226 C 0.2474 0.63916 0.49583 0.0
O227 O 0.24492 0.65824 0.48207 0.0
O228 O 0.32931 0.64256 0.50115 0.0
C229 C 0.28738 0.66994 0.44895 0.0
O230 O 0.28176 0.64509 0.44782 0.0
C231 C 0.28779 0.69355 0.54533 0.0
O232 O 0.26583 0.68727 0.53315 0.0
O233 O 0.26865 0.63672 0.50515 0.0
C234 C 0.3531 0.60759 0.75214 0.0
O235 O 0.37083 0.61196 0.77092 0.0
O236 O 0.39159 0.56122 0.70817 0.0
Zn237 Zn 0.37224 0.56133 0.73842 0.0
O238 O 0.39562 0.56643 0.77052 0.0
C239 C 0.35082 0.50657 0.72812 0.0
O240 O 0.36549 0.50553 0.71036 0.0
O241 O 0.35099 0.58801 0.73661 0.0
C242 C 0.41037 0.55092 0.77072 0.0
O243 O 0.40969 0.53528 0.75033 0.0
C244 C 0.40502 0.58184 0.70429 0.0
O245 O 0.40479 0.60235 0.71922 0.0
O246 O 0.35071 0.52763 0.74057 0.0
C247 C 0.6496 0.94294 0.78766 0.0
O248 O 0.65518 0.95387 0.81099 0.0
O249 O 0.59622 0.98431 0.74518 0.0
Zn250 Zn 0.6188 0.9827 0.77763 0.0
O251 O 0.60127 0.98518 0.8102 0.0
C252 C 0.64268 0.03564 0.78291 0.0
O253 O 0.62139 0.03975 0.78868 0.0
O254 O 0.63439 0.95123 0.77231 0.0
C255 C 0.61287 0.99737 0.83051 0.0
O256 O 0.6362 0.00601 0.83076 0.0
C257 C 0.57651 0.99305 0.74434 0.0
O258 O 0.56902 1.00078 0.7658 0.0
O259 O 0.64581 0.01297 0.77814 0.0
C260 C 0.80343 0.61519 0.01299 0.0
O261 O 0.80421 0.63194 0.03247 0.0
O262 O 0.77836 0.66973 0.01935 0.0
Zn263 Zn 0.77434 0.64701 0.9872 0.0
O264 O 0.78658 0.66772 0.95962 0.0
C265 C 0.72853 0.62287 0.99727 0.0
O266 O 0.74146 0.6216 0.01914 0.0
O267 O 0.79201 0.618 0.99169 0.0
C268 C 0.77744 0.68743 0.95602 0.0
O269 O 0.76009 0.69229 0.96952 0.0
C270 C 0.79535 0.68867 0.02507 0.0
O271 O 0.81203 0.6939 0.00954 0.0
O272 O 0.73895 0.63315 0.97936 0.0
C273 C 0.8735 0.61181 0.74654 0.0
O274 O 0.87426 0.60471 0.72239 0.0
O275 O 0.9188 0.5684 0.72815 0.0
Zn276 Zn 0.90024 0.56945 0.75995 0.0
O277 O 0.92146 0.56804 0.79343 0.0
C278 C 0.85943 0.53016 0.73763 0.0
O279 O 0.85979 0.54374 0.71783 0.0
O280 O 0.88343 0.60016 0.76378 0.0
C281 C 0.94384 0.56625 0.79574 0.0
O282 O 0.95529 0.56615 0.77524 0.0
C283 C 0.92187 0.54653 0.7196 0.0
O284 O 0.91452 0.52698 0.73231 0.0
O285 O 0.87447 0.53779 0.75732 0.0
C286 C 0.66869 0.42059 0.52609 0.0
O287 O 0.65767 0.39797 0.5305 0.0
O288 O 0.71244 0.37703 0.55542 0.0
Zn289 Zn 0.7135 0.39647 0.52272 0.0
O290 O 0.70542 0.37176 0.49019 0.0
C291 C 0.76395 0.42946 0.53341 0.0
O292 O 0.75761 0.4403 0.55412 0.0
O293 O 0.69116 0.42374 0.52254 0.0
C294 C 0.71818 0.35429 0.4891 0.0
O295 O 0.7332 0.3522 0.50923 0.0
C296 C 0.73132 0.37225 0.56845 0.0
O297 O 0.75275 0.38 0.56103 0.0
O298 O 0.74856 0.41264 0.51956 0.0
C299 C 0.67063 0.46065 0.282 0.0
O300 O 0.64781 0.45999 0.27325 0.0
O301 O 0.64017 0.51173 0.27264 0.0
Zn302 Zn 0.66563 0.51065 0.30189 0.0
O303 O 0.64829 0.507 0.3337 0.0
C304 C 0.68614 0.56491 0.31214 0.0
O305 O 0.66684 0.5659 0.324 0.0
O306 O 0.68225 0.48035 0.29537 0.0
C307 C 0.62908 0.51636 0.33528 0.0
O308 O 0.62168 0.5295 0.31688 0.0
C309 C 0.64396 0.51048 0.24932 0.0
O310 O 0.66551 0.50761 0.2433 0.0
O311 O 0.68974 0.54354 0.30286 0.0
Tb312 Tb 0.02328 0.06108 0.01057 0.0
C313 C 0.02097 0.01752 0.96804 0.0
Tb314 Tb 1.00222 0.00657 0.02148 0.0
O315 O 0.05963 0.05069 0.01014 0.0
O316 O 0.03474 0.03269 0.03256 0.0
O317 O 0.01935 0.04168 0.9727 0.0
C318 C 0.99883 0.9592 0.03523 0.0
O319 O 0.01791 1.00075 0.9854 0.0
C320 C 0.9701 0.03477 0.00685 0.0
C321 C 0.00345 0.05078 0.06401 0.0
O322 O 0.98446 0.96636 0.01733 0.0
O323 O 0.01482 0.97855 0.04492 0.0
O324 O 0.96553 0.0161 0.02114 0.0
O325 O 0.9908 0.03486 0.99951 0.0
O326 O 1.00136 0.02601 0.0586 0.0
O327 O 0.01054 0.06796 0.04801 0.0
C328 C 0.02859 0.10894 0.99755 0.0
O329 O 0.00817 0.09387 0.99831 0.0
O330 O 0.04621 0.09731 0.00491 0.0
C331 C 0.05526 0.03245 0.02493 0.0
Tb332 Tb 0.26872 0.8053 0.26592 0.0
C333 C 0.31032 0.77283 0.2659 0.0
Tb334 Tb 0.25523 0.74776 0.25176 0.0
O335 O 0.28163 0.79873 0.30566 0.0
O336 O 0.25475 0.77287 0.28385 0.0
O337 O 0.3045 0.79536 0.2622 0.0
C338 C 0.24011 0.69827 0.25417 0.0
O339 O 0.29365 0.75215 0.26586 0.0
C340 C 0.26823 0.77514 0.21386 0.0
C341 C 0.21293 0.78008 0.25316 0.0
O342 O 0.25726 0.71252 0.26947 0.0
O343 O 0.23169 0.7118 0.237 0.0
O344 O 0.2707 0.75161 0.21535 0.0
O345 O 0.25688 0.78106 0.23204 0.0
O346 O 0.21905 0.7572 0.25324 0.0
O347 O 0.22918 0.80155 0.25623 0.0
C348 C 0.27854 0.85522 0.26308 0.0
O349 O 0.26723 0.84405 0.28074 0.0
O350 O 0.28422 0.83828 0.24717 0.0
C351 C 0.2682 0.7764 0.30467 0.0
Tb352 Tb 0.5356 0.02658 0.51452 0.0
C353 C 0.51566 0.01493 0.56671 0.0
Tb354 Tb 0.47952 0.02316 0.5183 0.0
O355 O 0.54269 0.06218 0.53959 0.0
O356 O 0.51012 0.05127 0.516 0.0
O357 O 0.53317 0.0125 0.55206 0.0
C358 C 0.43896 0.03854 0.52878 0.0
O359 O 0.49473 0.0215 0.55796 0.0
C360 C 0.49057 0.97815 0.50719 0.0
C361 C 0.5001 0.03332 0.46526 0.0
O362 O 0.45881 0.04157 0.54429 0.0
O363 O 0.44183 0.02662 0.50736 0.0
O364 O 0.46867 0.98151 0.51061 0.0
O365 O 0.5039 0.99952 0.51085 0.0
O366 O 0.48202 0.03484 0.47951 0.0
O367 O 0.52166 0.02864 0.47465 0.0
C368 C 0.5783 0.017 0.50354 0.0
O369 O 0.57275 0.03949 0.50609 0.0
O370 O 0.55988 1.00004 0.50722 0.0
C371 C 0.5212 0.0674 0.53339 0.0
Tb372 Tb 0.27031 0.28766 0.79501 0.0
C373 C 0.2775 0.33473 0.76293 0.0
Tb374 Tb 0.25399 0.27897 0.73895 0.0
O375 O 0.30829 0.29623 0.78774 0.0
O376 O 0.28324 0.27009 0.76305 0.0
O377 O 0.2758 0.32697 0.78611 0.0
C378 C 0.25218 0.27385 0.68832 0.0
O379 O 0.27158 0.319 0.74188 0.0
C380 C 0.21969 0.2864 0.76772 0.0
C381 C 0.24674 0.23236 0.77104 0.0
O382 O 0.27185 0.27787 0.70413 0.0
O383 O 0.23352 0.2728 0.70101 0.0
O384 O 0.21564 0.27231 0.74627 0.0
O385 O 0.24164 0.29704 0.7707 0.0
O386 O 0.25092 0.23983 0.74824 0.0
O387 O 0.25028 0.24856 0.79171 0.0
C388 C 0.27202 0.29297 0.8456 0.0
O389 O 0.28791 0.28393 0.83321 0.0
O390 O 0.25536 0.29886 0.82955 0.0
C391 C 0.30488 0.282 0.76637 0.0
Tb392 Tb 0.00624 0.04072 0.49356 0.0
C393 C 0.9744 0.0335 0.53933 0.0
Tb394 Tb 0.03032 0.03621 0.54772 0.0
O395 O 0.01371 0.00322 0.48084 0.0
O396 O 0.00824 0.01211 0.51852 0.0
O397 O 0.97741 0.04461 0.51782 0.0
C398 C 0.05447 0.01795 0.58614 0.0
O399 O 0.99218 0.02449 0.55216 0.0
C400 C 0.02274 0.08155 0.53895 0.0
C401 C 0.06284 0.04523 0.50138 0.0
O402 O 0.04154 0.03567 0.58856 0.0
O403 O 0.05378 0.01056 0.56218 0.0
O404 O 0.02518 0.07403 0.56179 0.0
O405 O 0.02798 0.06523 0.52326 0.0
O406 O 0.06144 0.03966 0.52544 0.0
O407 O 0.04378 0.04853 0.48588 0.0
C408 C 0.98266 0.05322 0.45134 0.0
O409 O 0.9758 0.03333 0.46322 0.0
O410 O 0.00262 0.06614 0.46332 0.0
C411 C 0.01441 0.99578 0.50374 0.0
Tb412 Tb 0.28999 0.78655 0.77669 0.0
C413 C 0.25146 0.7961 0.81372 0.0
Tb414 Tb 0.23713 0.78292 0.75386 0.0
O415 O 0.29479 0.82683 0.78828 0.0
O416 O 0.26901 0.81081 0.75801 0.0
O417 O 0.27308 0.78959 0.81204 0.0
C418 C 0.19331 0.79129 0.73697 0.0
O419 O 0.23565 0.79687 0.79349 0.0
C420 C 0.2505 0.73883 0.75838 0.0
C421 C 0.27565 0.77246 0.71694 0.0
O422 O 0.19803 0.77816 0.756 0.0
O423 O 0.21321 0.79958 0.72736 0.0
O424 O 0.23231 0.74244 0.74281 0.0
O425 O 0.25794 0.75884 0.77299 0.0
O426 O 0.25427 0.77958 0.71855 0.0
O427 O 0.29113 0.77157 0.73742 0.0
C428 C 0.33465 0.78015 0.79249 0.0
O429 O 0.32908 0.79427 0.77462 0.0
O430 O 0.31509 0.76949 0.80138 0.0
C431 C 0.27652 0.83059 0.77298 0.0
Tb432 Tb 0.48489 0.01971 0.00782 0.0
C433 C 0.52321 0.985 0.01573 0.0
Tb434 Tb 0.53845 0.04443 0.02285 0.0
O435 O 0.49139 0.00686 0.96903 0.0
O436 O 0.5136 0.03832 0.98913 0.0
O437 O 0.50076 0.98761 0.01956 0.0
C438 C 0.5863 0.06034 0.02355 0.0
O439 O 0.5402 0.0047 0.01295 0.0
C440 C 0.51071 0.04079 0.06031 0.0
C441 C 0.50043 0.08012 0.01248 0.0
O442 O 0.57619 0.04543 0.03933 0.0
O443 O 0.56951 0.06641 0.00779 0.0
O444 O 0.52982 0.05828 0.06053 0.0
O445 O 0.50977 0.0252 0.04121 0.0
O446 O 0.52376 0.07827 0.01529 0.0
O447 O 0.48258 0.06011 0.01 0.0
C448 C 0.43746 0.00562 0.01166 0.0
O449 O 0.45183 0.02445 0.02485 0.0
O450 O 0.44974 0.99472 0.996 0.0
C451 C 0.51147 0.02306 0.96947 0.0
Tb452 Tb 0.23439 0.26702 0.26672 0.0
C453 C 0.27459 0.28209 0.31316 0.0
Tb454 Tb 0.28578 0.29003 0.25806 0.0
O455 O 0.24695 0.23403 0.28196 0.0
O456 O 0.26482 0.25297 0.2541 0.0
O457 O 0.25148 0.28163 0.30484 0.0
C458 C 0.32931 0.30008 0.24151 0.0
O459 O 0.29144 0.28117 0.29748 0.0
C460 C 0.25851 0.32234 0.27295 0.0
C461 C 0.24495 0.27546 0.21041 0.0
O462 O 0.3139 0.31549 0.24206 0.0
O463 O 0.32037 0.27908 0.25063 0.0
O464 O 0.28181 0.32552 0.27938 0.0
O465 O 0.25212 0.30266 0.25793 0.0
O466 O 0.26824 0.28346 0.21894 0.0
O467 O 0.22814 0.26813 0.22561 0.0
C468 C 0.18799 0.26046 0.27476 0.0
O469 O 0.19844 0.24314 0.26436 0.0
O470 O 0.20361 0.28128 0.28034 0.0
C471 C 0.26544 0.23557 0.26892 0.0
Tb472 Tb 0.50187 0.53525 0.99235 0.0
C473 C 0.46428 0.52123 0.03181 0.0
Tb474 Tb 0.51925 0.54001 0.04962 0.0
O475 O 0.52148 0.5035 0.98734 0.0
O476 O 0.50673 0.51037 0.02111 0.0
O477 O 0.46767 0.52997 0.00928 0.0
C478 C 0.54018 0.53335 0.09559 0.0
O479 O 0.4826 0.5185 0.04872 0.0
C480 C 0.50185 0.57867 0.03316 0.0
C481 C 0.55659 0.55722 0.0093 0.0
O482 O 0.52241 0.54559 0.09123 0.0
O483 O 0.54638 0.52497 0.07405 0.0
O484 O 0.50232 0.57319 0.05672 0.0
O485 O 0.51392 0.56501 0.02138 0.0
O486 O 0.55359 0.5505 0.03281 0.0
O487 O 0.53812 0.55604 0.99132 0.0
C488 C 0.48286 0.53574 0.94408 0.0
O489 O 0.49098 0.517 0.95396 0.0
O490 O 0.48489 0.5544 0.96156 0.0
C491 C 0.51969 0.49709 0.01036 0.0
Tb492 Tb 0.78121 0.28003 0.28079 0.0
C493 C 0.74279 0.28492 0.31869 0.0
Tb494 Tb 0.72764 0.26892 0.25921 0.0
O495 O 0.77919 0.32028 0.2893 0.0
O496 O 0.75718 0.29874 0.25887 0.0
O497 O 0.76472 0.27983 0.31618 0.0
C498 C 0.68112 0.26966 0.24461 0.0
O499 O 0.72648 0.28515 0.29866 0.0
C500 C 0.74631 0.22835 0.26622 0.0
C501 C 0.76673 0.26085 0.22196 0.0
O502 O 0.68905 0.2556 0.26139 0.0
O503 O 0.69938 0.28338 0.23604 0.0
O504 O 0.72719 0.22873 0.25046 0.0
O505 O 0.75197 0.24929 0.27969 0.0
O506 O 0.74419 0.26517 0.22338 0.0
O507 O 0.78302 0.26322 0.24241 0.0
C508 C 0.82706 0.27824 0.29752 0.0
O509 O 0.82032 0.2924 0.28016 0.0
O510 O 0.80807 0.26527 0.30546 0.0
C511 C 0.76142 0.31996 0.27153 0.0
Tb512 Tb 0.98252 0.51307 0.51498 0.0
C513 C 0.02329 0.47966 0.52442 0.0
Tb514 Tb 0.03613 0.53994 0.52845 0.0
O515 O 0.98262 0.52472 0.47591 0.0
O516 O 0.01446 0.51939 0.49615 0.0
O517 O 0.99968 0.48058 0.52265 0.0
C518 C 0.0835 0.55744 0.52702 0.0
O519 O 0.04047 0.5002 0.52553 0.0
C520 C 0.00841 0.539 0.56611 0.0
C521 C 0.99524 0.57211 0.51757 0.0
O522 O 0.07425 0.54458 0.54483 0.0
O523 O 0.066 0.5607 0.51022 0.0
O524 O 0.0273 0.55646 0.56517 0.0
O525 O 0.00767 0.52237 0.54803 0.0
O526 O 0.01831 0.57059 0.51557 0.0
O527 O 0.97883 0.55238 0.52144 0.0
C528 C 0.93694 0.48864 0.51553 0.0
O529 O 0.95173 0.48356 0.49926 0.0
O530 O 0.94793 0.50737 0.53163 0.0
C531 C 0.00598 0.52691 0.47568 0.0
Tb532 Tb 0.76633 0.79565 0.29377 0.0
C533 C 0.76784 0.83806 0.25528 0.0
Tb534 Tb 0.75746 0.77972 0.23515 0.0
O535 O 0.80453 0.8103 0.29053 0.0
O536 O 0.78562 0.78052 0.26531 0.0
O537 O 0.76519 0.83263 0.27916 0.0
C538 C 0.76816 0.76934 0.18834 0.0
O539 O 0.76763 0.8207 0.23613 0.0
C540 C 0.71666 0.78749 0.25341 0.0
C541 C 0.7521 0.73744 0.27346 0.0
O542 O 0.77976 0.78791 0.20423 0.0
O543 O 0.75041 0.75665 0.19875 0.0
O544 O 0.71807 0.78111 0.22946 0.0
O545 O 0.73766 0.78913 0.26465 0.0
O546 O 0.75746 0.74312 0.25037 0.0
O547 O 0.75138 0.75499 0.29226 0.0
C548 C 0.76475 0.80268 0.34371 0.0
O549 O 0.77827 0.78883 0.33282 0.0
O550 O 0.75205 0.81265 0.32647 0.0
C551 C 0.80544 0.79587 0.27007 0.0
Tb552 Tb 0.77091 0.30729 0.76524 0.0
C553 C 0.81067 0.27255 0.76758 0.0
Tb554 Tb 0.75416 0.24977 0.75995 0.0
O555 O 0.78691 0.30755 0.80458 0.0
O556 O 0.75784 0.27908 0.78974 0.0
O557 O 0.80589 0.29516 0.76209 0.0
C558 C 0.74168 0.20066 0.76692 0.0
O559 O 0.79331 0.25303 0.77013 0.0
C560 C 0.75133 0.27191 0.7169 0.0
C561 C 0.71409 0.2842 0.75966 0.0
O562 O 0.75635 0.2097 0.7509 0.0
O563 O 0.73428 0.21922 0.77891 0.0
O564 O 0.73767 0.25083 0.72081 0.0
O565 O 0.7674 0.27789 0.73581 0.0
O566 O 0.71926 0.26133 0.76277 0.0
O567 O 0.7312 0.3046 0.75943 0.0
C568 C 0.78068 0.35581 0.75486 0.0
O569 O 0.77492 0.33642 0.73811 0.0
O570 O 0.78091 0.34796 0.77757 0.0
C571 C 0.77402 0.286 0.80854 0.0
Tb572 Tb 0.73803 0.7716 0.76747 0.0
C573 C 0.78299 0.78097 0.80866 0.0
Tb574 Tb 0.78775 0.78852 0.75033 0.0
O575 O 0.74821 0.73629 0.77895 0.0
O576 O 0.76329 0.75374 0.74864 0.0
O577 O 0.7594 0.78131 0.80433 0.0
C578 C 0.83229 0.79265 0.73619 0.0
O579 O 0.79731 0.78161 0.79008 0.0
C580 C 0.76154 0.82431 0.7563 0.0
C581 C 0.74274 0.78044 0.70941 0.0
O582 O 0.82341 0.81094 0.74692 0.0
O583 O 0.81624 0.772 0.73384 0.0
O584 O 0.77689 0.8241 0.73953 0.0
O585 O 0.76282 0.80601 0.76978 0.0
O586 O 0.76623 0.77959 0.71349 0.0
O587 O 0.72854 0.77937 0.72805 0.0
C588 C 0.69325 0.76695 0.78071 0.0
O589 O 0.70214 0.74905 0.76932 0.0
O590 O 0.70946 0.78749 0.78437 0.0
C591 C 0.76412 0.73578 0.76283 0.0
Tb592 Tb 0.51393 0.56114 0.50709 0.0
C593 C 0.52172 0.51552 0.47042 0.0
Tb594 Tb 0.50298 0.50645 0.52441 0.0
O595 O 0.55258 0.56011 0.50564 0.0
O596 O 0.53275 0.53696 0.529 0.0
O597 O 0.51633 0.53868 0.47182 0.0
C598 C 0.50368 0.4602 0.53998 0.0
O599 O 0.51936 0.50045 0.48928 0.0
C600 C 0.464 0.52709 0.51246 0.0
C601 C 0.50049 0.55295 0.56328 0.0
O602 O 0.51486 0.48135 0.55227 0.0
O603 O 0.49215 0.46509 0.51882 0.0
O604 O 0.46457 0.50796 0.52614 0.0
O605 O 0.48407 0.53084 0.50307 0.0
O606 O 0.50323 0.52881 0.5605 0.0
O607 O 0.50242 0.56843 0.54467 0.0
C608 C 0.50854 0.60461 0.48708 0.0
O609 O 0.49451 0.58279 0.48112 0.0
O610 O 0.52552 0.60215 0.50491 0.0
C611 C 0.55288 0.54122 0.51979 0.0
Tb612 Tb 0.03295 0.52352 0.01928 0.0
C613 C 0.01354 0.50344 0.0705 0.0
Tb614 Tb 0.97938 0.51426 0.02298 0.0
O615 O 0.03492 0.56495 0.02384 0.0
O616 O 0.00927 0.54088 0.04032 0.0
O617 O 0.03212 0.50791 0.05669 0.0
C618 C 0.93373 0.5203 0.02598 0.0
O619 O 0.99129 0.50667 0.06193 0.0
C620 C 0.99674 0.47388 0.00986 0.0
C621 C 0.99929 0.53329 0.97184 0.0
O622 O 0.94022 0.50189 0.01272 0.0
O623 O 0.95287 0.53518 0.03738 0.0
O624 O 0.97843 0.47373 0.02309 0.0
O625 O 0.00311 0.49574 0.00262 0.0
O626 O 0.98159 0.53267 0.98686 0.0
O627 O 0.02027 0.52665 0.97969 0.0
C628 C 0.07808 0.5158 0.01644 0.0
O629 O 0.07096 0.53738 0.01416 0.0
O630 O 0.05991 0.49878 0.02044 0.0
C631 C 0.01586 0.56356 0.03604 0.0
H632 H 0.98326 0.21063 0.90974 0.0
H633 H 0.05905 0.24454 0.90951 0.0
H634 H 0.07103 0.21419 0.93926 0.0
H635 H 0.98714 0.19795 0.97663 0.0
H636 H 0.96641 0.16812 0.9708 0.0
H637 H 0.96361 0.19304 0.95007 0.0
H638 H 0.96685 0.16252 0.91092 0.0
H639 H 0.96949 0.13758 0.93161 0.0
H640 H 0.99252 0.14643 0.91084 0.0
H641 H 0.07503 0.17932 0.96809 0.0
H642 H 0.07058 0.1414 0.99261 0.0
H643 H 0.99236 0.1305 0.97454 0.0
C644 C 1.00238 0.21173 0.91597 0.0
C645 C 0.0202 0.23004 0.90724 0.0
C646 C 0.04503 0.23073 0.91587 0.0
C647 C 0.05203 0.21361 0.93286 0.0
C648 C 0.03403 0.19589 0.94117 0.0
C649 C 0.00971 0.19477 0.93298 0.0
C650 C 0.99404 0.17342 0.94427 0.0
C651 C 0.97678 0.18376 0.96147 0.0
C652 C 0.9799 0.15383 0.92315 0.0
C653 C 0.01339 0.16256 0.95982 0.0
C654 C 0.03633 0.17589 0.9579 0.0
C655 C 0.05715 0.16885 0.96989 0.0
C656 C 0.05447 0.14736 0.98382 0.0
C657 C 0.03117 0.13321 0.98562 0.0
C658 C 0.01039 0.14118 0.97376 0.0
H659 H 0.09307 0.80339 0.1707 0.0
H660 H 0.05169 0.75612 0.22037 0.0
H661 H 0.08964 0.75372 0.24721 0.0
H662 H 0.14336 0.77179 0.17227 0.0
H663 H 0.16591 0.80002 0.17271 0.0
H664 H 0.13546 0.79936 0.15813 0.0
H665 H 0.13225 0.83901 0.1874 0.0
H666 H 0.16279 0.83983 0.20199 0.0
H667 H 0.13817 0.83868 0.22155 0.0
H668 H 0.13226 0.75262 0.26598 0.0
H669 H 0.17651 0.75524 0.27694 0.0
H670 H 0.19049 0.80567 0.21734 0.0
C671 C 0.09195 0.79277 0.18738 0.0
C672 C 0.0693 0.77991 0.19337 0.0
C673 C 0.06871 0.7662 0.21539 0.0
C674 C 0.09021 0.76472 0.23077 0.0
C675 C 0.11221 0.77734 0.22417 0.0
C676 C 0.11324 0.79136 0.20317 0.0
C677 C 0.13934 0.80265 0.2 0.0
C678 C 0.14642 0.79286 0.17425 0.0
C679 C 0.14337 0.83178 0.20292 0.0
C680 C 0.15284 0.79238 0.22219 0.0
C681 C 0.13681 0.77773 0.23581 0.0
C682 C 0.14494 0.76449 0.25582 0.0
C683 C 0.17007 0.76608 0.26193 0.0
C684 C 0.18679 0.78114 0.24842 0.0
C685 C 0.17804 0.79471 0.22851 0.0
H686 H 0.53358 0.87845 0.41082 0.0
H687 H 0.49122 0.82034 0.44937 0.0
H688 H 0.48537 0.85266 0.48218 0.0
H689 H 0.56218 0.9197 0.47028 0.0
H690 H 0.56012 0.94837 0.45494 0.0
H691 H 0.56396 0.9202 0.43642 0.0
H692 H 0.52541 0.92339 0.40626 0.0
H693 H 0.52147 0.95124 0.42513 0.0
H694 H 0.49719 0.92423 0.41953 0.0
H695 H 0.47907 0.89073 0.50726 0.0
H696 H 0.47356 0.93311 0.52404 0.0
H697 H 0.52104 0.96792 0.47157 0.0
C698 C 0.5236 0.87252 0.42653 0.0
C699 C 0.5129 0.84677 0.4275 0.0
C700 C 0.49955 0.83987 0.4481 0.0
C701 C 0.49622 0.8581 0.46697 0.0
C702 C 0.50645 0.8833 0.46521 0.0
C703 C 0.52003 0.89064 0.44568 0.0
C704 C 0.52733 0.91937 0.44742 0.0
C705 C 0.55505 0.92737 0.45258 0.0
C706 C 0.51724 0.93018 0.42314 0.0
C707 C 0.51502 0.92693 0.47041 0.0
C708 C 0.50327 0.90569 0.48042 0.0
C709 C 0.48867 0.90751 0.50004 0.0
C710 C 0.48561 0.93162 0.50944 0.0
C711 C 0.49733 0.95363 0.49951 0.0
C712 C 0.51261 0.95133 0.48007 0.0
H713 H 0.43988 0.30583 0.7263 0.0
H714 H 0.41947 0.23756 0.67463 0.0
H715 H 0.37775 0.23228 0.68705 0.0
H716 H 0.40509 0.28297 0.77627 0.0
H717 H 0.39696 0.31325 0.78473 0.0
H718 H 0.42493 0.31186 0.77125 0.0
H719 H 0.41199 0.33921 0.73545 0.0
H720 H 0.3839 0.34055 0.74875 0.0
H721 H 0.3834 0.32891 0.71587 0.0
H722 H 0.33748 0.23516 0.70463 0.0
H723 H 0.30358 0.24404 0.72845 0.0
H724 H 0.35087 0.30937 0.76966 0.0
C725 C 0.42667 0.28973 0.71759 0.0
C726 C 0.43305 0.27213 0.69942 0.0
C727 C 0.41514 0.25127 0.68864 0.0
C728 C 0.39132 0.24817 0.69549 0.0
C729 C 0.38562 0.26597 0.71333 0.0
C730 C 0.40288 0.28621 0.72441 0.0
C731 C 0.39234 0.3023 0.7436 0.0
C732 C 0.40562 0.3026 0.77056 0.0
C733 C 0.39295 0.32934 0.73542 0.0
C734 C 0.36649 0.28791 0.74173 0.0
C735 C 0.36284 0.26717 0.72394 0.0
C736 C 0.34024 0.25126 0.7187 0.0
C737 C 0.32106 0.25648 0.73226 0.0
C738 C 0.32463 0.27727 0.75101 0.0
C739 C 0.34763 0.29322 0.75557 0.0
H740 H 0.00835 0.88678 0.59709 0.0
H741 H 0.02313 0.8366 0.53496 0.0
H742 H 0.02882 0.87263 0.50803 0.0
H743 H 0.97324 0.92102 0.55921 0.0
H744 H 0.984 0.95093 0.57773 0.0
H745 H 0.98356 0.92178 0.59273 0.0
H746 H 0.02971 0.93457 0.60806 0.0
H747 H 0.02981 0.9639 0.59345 0.0
H748 H 0.0506 0.94335 0.58507 0.0
H749 H 0.03012 0.91392 0.48706 0.0
H750 H 0.02638 0.95682 0.47402 0.0
H751 H 0.00995 0.97834 0.55008 0.0
C752 C 0.01318 0.88339 0.57797 0.0
C753 C 0.0154 0.85899 0.56812 0.0
C754 C 0.02138 0.85525 0.54287 0.0
C755 C 0.02472 0.87557 0.52747 0.0
C756 C 0.02202 0.89939 0.53769 0.0
C757 C 0.0164 0.90332 0.56238 0.0
C758 C 0.01286 0.9302 0.56841 0.0
C759 C 0.98688 0.93101 0.57488 0.0
C760 C 0.03191 0.9438 0.59002 0.0
C761 C 0.01708 0.94074 0.54316 0.0
C762 C 0.02253 0.92285 0.52567 0.0
C763 C 0.02611 0.92818 0.50067 0.0
C764 C 0.02391 0.95246 0.49342 0.0
C765 C 0.01807 0.97076 0.51113 0.0
C766 C 0.01477 0.96479 0.53624 0.0
H767 H 0.43489 0.73366 0.88517 0.0
H768 H 0.4887 0.7858 0.85229 0.0
H769 H 0.4566 0.79542 0.82097 0.0
H770 H 0.3949 0.71058 0.82536 0.0
H771 H 0.36777 0.70972 0.84103 0.0
H772 H 0.39539 0.70438 0.85853 0.0
H773 H 0.39252 0.74073 0.89243 0.0
H774 H 0.36506 0.74621 0.87485 0.0
H775 H 0.39053 0.77183 0.88239 0.0
H776 H 0.41865 0.8012 0.79502 0.0
H777 H 0.37687 0.80427 0.77747 0.0
H778 H 0.3479 0.7502 0.82898 0.0
C779 C 0.43996 0.74668 0.87102 0.0
C780 C 0.4642 0.75887 0.87094 0.0
C781 C 0.47015 0.77627 0.85258 0.0
C782 C 0.45211 0.78174 0.83466 0.0
C783 C 0.42828 0.76973 0.83551 0.0
C784 C 0.42214 0.75261 0.85324 0.0
C785 C 0.39495 0.74407 0.85156 0.0
C786 C 0.38785 0.71549 0.84364 0.0
C787 C 0.3852 0.75115 0.8768 0.0
C788 C 0.38677 0.7595 0.83054 0.0
C789 C 0.40627 0.77381 0.8212 0.0
C790 C 0.40321 0.78998 0.80204 0.0
C791 C 0.3795 0.79164 0.79226 0.0
C792 C 0.35938 0.77747 0.80196 0.0
C793 C 0.36307 0.76119 0.82125 0.0
H794 H 0.53313 0.22747 0.04748 0.0
H795 H 0.45782 0.22523 0.06053 0.0
H796 H 0.44759 0.18133 0.04049 0.0
H797 H 0.52158 0.18581 0.98622 0.0
H798 H 0.54735 0.17098 0.99491 0.0
H799 H 0.54781 0.2036 0.00587 0.0
H800 H 0.55698 0.19305 0.05266 0.0
H801 H 0.5565 0.16053 0.04188 0.0
H802 H 0.53681 0.16817 0.06505 0.0
H803 H 0.44672 0.13611 0.02462 0.0
H804 H 0.45554 0.09312 0.01554 0.0
H805 H 0.5315 0.1252 0.01332 0.0
C806 C 0.51434 0.21803 0.04546 0.0
C807 C 0.49625 0.22978 0.05541 0.0
C808 C 0.47197 0.21659 0.05292 0.0
C809 C 0.46596 0.19171 0.04146 0.0
C810 C 0.4844 0.1804 0.03247 0.0
C811 C 0.5081 0.1932 0.03425 0.0
C812 C 0.52506 0.17599 0.02592 0.0
C813 C 0.53609 0.18461 0.00179 0.0
C814 C 0.54499 0.17434 0.04768 0.0
C815 C 0.5074 0.15125 0.02021 0.0
C816 C 0.48395 0.15423 0.02359 0.0
C817 C 0.46492 0.13361 0.02144 0.0
C818 C 0.47012 0.10925 0.01628 0.0
C819 C 0.49421 0.10578 0.01367 0.0
C820 C 0.51286 0.12718 0.015 0.0
H821 H 0.08872 0.3044 0.35363 0.0
H822 H 0.06709 0.22554 0.36776 0.0
H823 H 0.0933 0.21291 0.33613 0.0
H824 H 0.09428 0.29332 0.28493 0.0
H825 H 0.12052 0.31796 0.28631 0.0
H826 H 0.09787 0.3206 0.30769 0.0
H827 H 0.13067 0.32578 0.34674 0.0
H828 H 0.15348 0.32366 0.32556 0.0
H829 H 0.14987 0.30225 0.35034 0.0
H830 H 0.12379 0.20915 0.30512 0.0
H831 H 0.15992 0.21516 0.28144 0.0
H832 H 0.16279 0.29642 0.28951 0.0
C833 C 0.08924 0.28445 0.34979 0.0
C834 C 0.07582 0.26593 0.36298 0.0
C835 C 0.07728 0.24004 0.35783 0.0
C836 C 0.09192 0.23266 0.33974 0.0
C837 C 0.10499 0.25141 0.32707 0.0
C838 C 0.10398 0.2768 0.33207 0.0
C839 C 0.12152 0.29343 0.31774 0.0
C840 C 0.10773 0.30713 0.298 0.0
C841 C 0.13998 0.31237 0.3362 0.0
C842 C 0.13339 0.27351 0.30487 0.0
C843 C 0.12308 0.24933 0.30978 0.0
C844 C 0.13186 0.22796 0.30091 0.0
C845 C 0.15229 0.23151 0.28743 0.0
C846 C 0.16385 0.25624 0.28363 0.0
C847 C 0.15392 0.27735 0.29187 0.0
H848 H 0.9071 0.0641 0.16109 0.0
H849 H 0.96277 0.05451 0.22098 0.0
H850 H 0.993 0.05778 0.19015 0.0
H851 H 0.92599 0.02642 0.11368 0.0
H852 H 0.92011 0.04525 0.08763 0.0
H853 H 0.90275 0.04577 0.11443 0.0
H854 H 0.9147 0.09405 0.12183 0.0
H855 H 0.93302 0.09536 0.09563 0.0
H856 H 0.9463 0.10867 0.127 0.0
H857 H 0.01631 0.05771 0.15237 0.0
H858 H 0.03056 0.05317 0.10968 0.0
H859 H 0.96058 0.06373 0.07421 0.0
C860 C 0.92572 0.06309 0.1678 0.0
C861 C 0.93253 0.05911 0.19351 0.0
C862 C 0.95705 0.05753 0.20141 0.0
C863 C 0.97443 0.05952 0.18406 0.0
C864 C 0.96712 0.0632 0.15883 0.0
C865 C 0.94337 0.06497 0.15067 0.0
C866 C 0.93996 0.06712 0.12212 0.0
C867 C 0.92108 0.04484 0.10868 0.0
C868 C 0.93306 0.09281 0.1163 0.0
C869 C 0.9653 0.06554 0.11542 0.0
C870 C 0.98077 0.06359 0.13696 0.0
C871 C 0.00456 0.05982 0.13544 0.0
C872 C 0.01255 0.05739 0.11122 0.0
C873 C 0.99688 0.05897 0.089 0.0
C874 C 0.97313 0.06348 0.09111 0.0
H875 H 0.30863 0.71738 0.43574 0.0
H876 H 0.25205 0.6526 0.41001 0.0
H877 H 0.24079 0.67338 0.37154 0.0
H878 H 0.27669 0.76613 0.41216 0.0
H879 H 0.30311 0.78479 0.40171 0.0
H880 H 0.30648 0.76547 0.42801 0.0
H881 H 0.33623 0.74283 0.40459 0.0
H882 H 0.33297 0.76211 0.37824 0.0
H883 H 0.32681 0.72803 0.37271 0.0
H884 H 0.2345 0.70112 0.33655 0.0
H885 H 0.23565 0.73302 0.30509 0.0
H886 H 0.29823 0.77919 0.35032 0.0
C887 C 0.2938 0.7077 0.42205 0.0
C888 C 0.28114 0.68333 0.42603 0.0
C889 C 0.26207 0.67116 0.40745 0.0
C890 C 0.25545 0.68287 0.38552 0.0
C891 C 0.26826 0.70673 0.38208 0.0
C892 C 0.28721 0.71898 0.39961 0.0
C893 C 0.29852 0.74414 0.39043 0.0
C894 C 0.29605 0.76645 0.4092 0.0
C895 C 0.32522 0.74428 0.38625 0.0
C896 C 0.28282 0.7441 0.36519 0.0
C897 C 0.26536 0.72237 0.361 0.0
C898 C 0.2483 0.71806 0.33947 0.0
C899 C 0.24921 0.73624 0.32158 0.0
C900 C 0.26737 0.75829 0.32484 0.0
C901 C 0.28428 0.76238 0.34715 0.0
H902 H 0.59076 0.9873 0.69607 0.0
H903 H 0.53113 0.00514 0.73607 0.0
H904 H 0.50865 0.01116 0.69499 0.0
H905 H 0.5878 0.03326 0.65058 0.0
H906 H 0.59512 0.01355 0.62453 0.0
H907 H 0.60607 0.00934 0.6569 0.0
H908 H 0.586 0.96193 0.65039 0.0
H909 H 0.575 0.96599 0.61797 0.0
H910 H 0.55402 0.95341 0.63956 0.0
H911 H 0.49297 0.0163 0.64967 0.0
H912 H 0.48551 0.02096 0.6036 0.0
H913 H 0.55557 1.00045 0.5928 0.0
C914 C 0.57287 0.99222 0.69619 0.0
C915 C 0.56269 0.99562 0.71939 0.0
C916 C 0.53934 0.00238 0.71863 0.0
C917 C 0.52639 0.00581 0.69536 0.0
C918 C 0.53701 0.0025 0.6729 0.0
C919 C 0.55974 0.99589 0.6731 0.0
C920 C 0.56735 0.99435 0.64633 0.0
C921 C 0.59045 0.01379 0.64449 0.0
C922 C 0.57079 0.96731 0.63808 0.0
C923 C 0.54541 0.00127 0.63109 0.0
C924 C 0.52808 0.00576 0.64678 0.0
C925 C 0.50639 0.01274 0.63719 0.0
C926 C 0.50232 0.01533 0.6109 0.0
C927 C 0.51989 0.01105 0.59437 0.0
C928 C 0.54168 0.00381 0.60476 0.0
H929 H 0.2449 0.36863 0.96922 0.0
H930 H 0.30475 0.34203 0.01125 0.0
H931 H 0.30934 0.31499 0.97289 0.0
H932 H 0.21932 0.30864 0.93183 0.0
H933 H 0.21128 0.32422 0.90383 0.0
H934 H 0.21177 0.33993 0.93514 0.0
H935 H 0.24172 0.37838 0.92295 0.0
H936 H 0.24128 0.36279 0.89166 0.0
H937 H 0.26977 0.37331 0.91134 0.0
H938 H 0.30962 0.29402 0.92858 0.0
H939 H 0.30479 0.28023 0.8823 0.0
H940 H 0.24379 0.3196 0.87085 0.0
C941 C 0.25885 0.35696 0.97047 0.0
C942 C 0.27453 0.35745 0.99312 0.0
C943 C 0.29252 0.34188 0.99402 0.0
C944 C 0.29523 0.32645 0.97239 0.0
C945 C 0.27959 0.32663 0.95024 0.0
C946 C 0.26163 0.34136 0.94925 0.0
C947 C 0.24778 0.33907 0.92298 0.0
C948 C 0.22095 0.32725 0.92349 0.0
C949 C 0.25031 0.36492 0.91157 0.0
C950 C 0.2611 0.3212 0.90913 0.0
C951 C 0.27935 0.31412 0.9251 0.0
C952 C 0.29514 0.29909 0.91598 0.0
C953 C 0.29231 0.29138 0.88977 0.0
C954 C 0.27382 0.29873 0.87328 0.0
C955 C 0.25784 0.31341 0.88318 0.0
H956 H 0.87922 0.03562 0.33417 0.0
H957 H 0.92715 0.09091 0.29775 0.0
H958 H 0.95643 0.09776 0.33661 0.0
H959 H 0.89242 0.06741 0.39917 0.0
H960 H 0.89131 0.03792 0.4138 0.0
H961 H 0.87307 0.03905 0.38398 0.0
H962 H 0.89239 0.00326 0.3634 0.0
H963 H 0.91076 0.00211 0.39307 0.0
H964 H 0.92497 0.00729 0.36429 0.0
H965 H 0.98184 0.09615 0.37768 0.0
H966 H 1.00157 0.08649 0.41885 0.0
H967 H 0.93712 0.03268 0.42889 0.0
C968 C 0.89568 0.04949 0.33452 0.0
C969 C 0.90089 0.06279 0.31299 0.0
C970 C 0.92278 0.08051 0.31406 0.0
C971 C 0.9395 0.08459 0.33605 0.0
C972 C 0.93401 0.07084 0.35677 0.0
C973 C 0.91261 0.05372 0.35628 0.0
C974 C 0.91177 0.04036 0.38061 0.0
C975 C 0.8909 0.04657 0.39526 0.0
C976 C 0.90987 0.01155 0.37499 0.0
C977 C 0.93624 0.05231 0.39463 0.0
C978 C 0.94869 0.06999 0.38062 0.0
C979 C 0.97211 0.08272 0.38907 0.0
C980 C 0.9831 0.07724 0.41252 0.0
C981 C 0.97059 0.05934 0.42719 0.0
C982 C 0.94691 0.04671 0.41812 0.0
H983 H 0.25323 0.71072 0.57202 0.0
H984 H 0.33036 0.70835 0.57727 0.0
H985 H 0.33575 0.72999 0.6208 0.0
H986 H 0.25844 0.77262 0.60703 0.0
H987 H 0.23163 0.76335 0.62266 0.0
H988 H 0.23399 0.74869 0.59153 0.0
H989 H 0.22625 0.70438 0.60889 0.0
H990 H 0.22386 0.71891 0.64003 0.0
H991 H 0.24544 0.69802 0.63626 0.0
H992 H 0.33239 0.74995 0.66464 0.0
H993 H 0.32087 0.76715 0.70517 0.0
H994 H 0.24584 0.75721 0.67158 0.0
C995 C 0.27134 0.71496 0.58217 0.0
C996 C 0.29142 0.70785 0.57104 0.0
C997 C 0.31471 0.71364 0.58521 0.0
C998 C 0.31794 0.72594 0.61 0.0
C999 C 0.29774 0.73246 0.62042 0.0
C1000 C 0.27489 0.72724 0.60693 0.0
C1001 C 0.25606 0.73564 0.62279 0.0
C1002 C 0.24434 0.75631 0.61025 0.0
C1003 C 0.23677 0.71288 0.62725 0.0
C1004 C 0.27185 0.74623 0.64743 0.0
C1005 C 0.29583 0.7442 0.64561 0.0
C1006 C 0.3137 0.75181 0.66616 0.0
C1007 C 0.30693 0.76156 0.68918 0.0
C1008 C 0.28245 0.7638 0.69165 0.0
C1009 C 0.26476 0.75617 0.67028 0.0
H1010 H 0.57051 0.97244 0.84737 0.0
H1011 H 0.62667 0.03937 0.86354 0.0
H1012 H 0.60637 0.05341 0.89975 0.0
H1013 H 0.51996 0.0013 0.86404 0.0
H1014 H 0.50575 0.97453 0.87931 0.0
H1015 H 0.52416 0.96974 0.85399 0.0
H1016 H 0.55088 0.94647 0.88372 0.0
H1017 H 0.53249 0.95113 0.90909 0.0
H1018 H 0.56485 0.96208 0.91416 0.0
H1019 H 0.57916 0.06162 0.93292 0.0
H1020 H 0.54877 0.06113 0.96363 0.0
H1021 H 0.51204 0.98725 0.92968 0.0
C1022 C 0.57844 0.99006 0.85853 0.0
C1023 C 0.60018 0.00485 0.8525 0.0
C1024 C 0.61013 0.02764 0.86778 0.0
C1025 C 0.59866 0.03587 0.88837 0.0
C1026 C 0.57734 0.02096 0.89385 0.0
C1027 C 0.56745 0.99835 0.87967 0.0
C1028 C 0.54488 0.98551 0.89052 0.0
C1029 C 0.52235 0.9826 0.87078 0.0
C1030 C 0.5485 0.95977 0.89993 0.0
C1031 C 0.54355 0.00459 0.91274 0.0
C1032 C 0.56237 0.025 0.9141 0.0
C1033 C 0.56465 0.04548 0.93237 0.0
C1034 C 0.54749 0.04492 0.95 0.0
C1035 C 0.52861 0.02383 0.94973 0.0
C1036 C 0.52648 0.00353 0.93059 0.0
H1037 H 0.26473 0.35532 0.09496 0.0
H1038 H 0.18644 0.34699 0.07962 0.0
H1039 H 0.18163 0.31318 0.1094 0.0
H1040 H 0.26639 0.28688 0.10244 0.0
H1041 H 0.2914 0.29478 0.1274 0.0
H1042 H 0.2884 0.31545 0.10218 0.0
H1043 H 0.28916 0.35326 0.13572 0.0
H1044 H 0.29247 0.3328 0.16086 0.0
H1045 H 0.26775 0.3503 0.15907 0.0
H1046 H 0.18579 0.28573 0.14583 0.0
H1047 H 0.19839 0.26824 0.18605 0.0
H1048 H 0.27398 0.29256 0.17476 0.0
C1049 C 0.24656 0.34615 0.09761 0.0
C1050 C 0.22594 0.35379 0.08528 0.0
C1051 C 0.20246 0.34131 0.089 0.0
C1052 C 0.19958 0.32202 0.1057 0.0
C1053 C 0.22038 0.31511 0.11786 0.0
C1054 C 0.24342 0.32667 0.11374 0.0
C1055 C 0.26286 0.31755 0.13063 0.0
C1056 C 0.27816 0.30278 0.1147 0.0
C1057 C 0.27898 0.33979 0.14757 0.0
C1058 C 0.24719 0.30018 0.14607 0.0
C1059 C 0.22273 0.2986 0.13818 0.0
C1060 C 0.20487 0.28628 0.15178 0.0
C1061 C 0.21221 0.27636 0.17461 0.0
C1062 C 0.23719 0.27905 0.18358 0.0
C1063 C 0.25475 0.28992 0.16835 0.0
H1064 H 0.16486 0.95427 0.01313 0.0
H1065 H 0.1454 0.92095 0.08256 0.0
H1066 H 0.11247 0.94576 0.08415 0.0
H1067 H 0.1535 0.01706 0.03079 0.0
H1068 H 0.14085 0.02194 0.99916 0.0
H1069 H 0.16299 0.00145 0.00322 0.0
H1070 H 0.13308 0.96495 0.97662 0.0
H1071 H 0.11082 0.98527 0.97279 0.0
H1072 H 0.10317 0.95536 0.98612 0.0
H1073 H 0.08179 0.97467 0.07892 0.0
H1074 H 0.05535 0.00529 0.06673 0.0
H1075 H 0.09337 0.0199 1.00028 0.0
C1076 C 0.15369 0.95218 0.02867 0.0
C1077 C 0.15793 0.93553 0.04775 0.0
C1078 C 0.14273 0.93348 0.0677 0.0
C1079 C 0.12389 0.94756 0.0688 0.0
C1080 C 0.12027 0.96381 0.04985 0.0
C1081 C 0.1347 0.96621 0.03012 0.0
C1082 C 0.12671 0.985 0.01214 0.0
C1083 C 0.14724 0.00771 0.01129 0.0
C1084 C 0.11793 0.97183 0.98533 0.0
C1085 C 0.10574 0.99292 0.02496 0.0
C1086 C 0.10234 0.98035 0.04667 0.0
C1087 C 0.08421 0.98447 0.06185 0.0
C1088 C 0.0691 0.00176 0.05466 0.0
C1089 C 0.07194 0.01466 0.03234 0.0
C1090 C 0.0907 0.01028 0.01743 0.0
H1091 H 0.70051 0.60197 0.03271 0.0
H1092 H 0.69689 0.62211 0.95428 0.0
H1093 H 0.65261 0.607 0.94898 0.0
H1094 H 0.65501 0.54489 0.02149 0.0
H1095 H 0.64263 0.55 0.05121 0.0
H1096 H 0.67418 0.56188 0.04875 0.0
H1097 H 0.66826 0.60711 0.06388 0.0
H1098 H 0.63668 0.59537 0.06632 0.0
H1099 H 0.6451 0.62108 0.04688 0.0
H1100 H 0.6091 0.59072 0.9523 0.0
H1101 H 0.56857 0.57372 0.96369 0.0
H1102 H 0.60014 0.564 0.04017 0.0
C1103 C 0.69044 0.60309 0.01437 0.0
C1104 C 0.70215 0.6132 0.99388 0.0
C1105 C 0.68831 0.61443 0.97023 0.0
C1106 C 0.66316 0.6059 0.96703 0.0
C1107 C 0.6522 0.5962 0.98765 0.0
C1108 C 0.66533 0.59469 0.01084 0.0
C1109 C 0.64899 0.58374 0.03001 0.0
C1110 C 0.6556 0.55863 0.03835 0.0
C1111 C 0.64981 0.60298 0.05313 0.0
C1112 C 0.62458 0.57944 0.01395 0.0
C1113 C 0.62692 0.58676 0.98959 0.0
C1114 C 0.60701 0.58486 0.97129 0.0
C1115 C 0.58404 0.57517 0.97801 0.0
C1116 C 0.58112 0.56749 0.00287 0.0
C1117 C 0.60174 0.56968 0.02103 0.0
H1118 H 0.71074 0.4468 0.30787 0.0
H1119 H 0.65742 0.42537 0.2414 0.0
H1120 H 0.67669 0.38874 0.23018 0.0
H1121 H 0.76231 0.42736 0.27962 0.0
H1122 H 0.77397 0.41523 0.30843 0.0
H1123 H 0.75725 0.44099 0.31031 0.0
H1124 H 0.72717 0.41522 0.33709 0.0
H1125 H 0.74401 0.38959 0.33535 0.0
H1126 H 0.71189 0.38388 0.32472 0.0
H1127 H 0.70182 0.35482 0.22579 0.0
H1128 H 0.72864 0.32313 0.23098 0.0
H1129 H 0.76328 0.36375 0.30239 0.0
C1130 C 0.70332 0.43453 0.29081 0.0
C1131 C 0.68268 0.43901 0.2754 0.0
C1132 C 0.67321 0.4223 0.25349 0.0
C1133 C 0.68411 0.40152 0.24687 0.0
C1134 C 0.70434 0.39755 0.26249 0.0
C1135 C 0.71375 0.4134 0.28415 0.0
C1136 C 0.7347 0.40385 0.29849 0.0
C1137 C 0.75846 0.423 0.29925 0.0
C1138 C 0.72908 0.39777 0.32552 0.0
C1139 C 0.73531 0.37995 0.28174 0.0
C1140 C 0.71795 0.37701 0.26081 0.0
C1141 C 0.71522 0.35671 0.24231 0.0
C1142 C 0.7303 0.33863 0.24557 0.0
C1143 C 0.74735 0.34052 0.26749 0.0
C1144 C 0.75019 0.36171 0.28557 0.0
H1145 H 0.80264 0.46404 0.55853 0.0
H1146 H 0.78279 0.40827 0.49314 0.0
H1147 H 0.82478 0.41689 0.48218 0.0
H1148 H 0.84371 0.50874 0.52809 0.0
H1149 H 0.86508 0.51759 0.55632 0.0
H1150 H 0.8334 0.50703 0.55928 0.0
H1151 H 0.84461 0.47222 0.5876 0.0
H1152 H 0.87632 0.48262 0.58463 0.0
H1153 H 0.86245 0.45003 0.57571 0.0
H1154 H 0.8689 0.43108 0.47821 0.0
H1155 H 0.91211 0.45112 0.48086 0.0
H1156 H 0.90387 0.49801 0.54842 0.0
C1157 C 0.8071 0.45367 0.54188 0.0
C1158 C 0.78928 0.43545 0.52672 0.0
C1159 C 0.79598 0.42233 0.50508 0.0
C1160 C 0.81985 0.42706 0.49869 0.0
C1161 C 0.83696 0.44499 0.51406 0.0
C1162 C 0.83093 0.45819 0.53516 0.0
C1163 C 0.85286 0.47664 0.54829 0.0
C1164 C 0.84849 0.50413 0.54797 0.0
C1165 C 0.85944 0.46997 0.57568 0.0
C1166 C 0.87207 0.47175 0.53123 0.0
C1167 C 0.86249 0.45333 0.51166 0.0
C1168 C 0.87661 0.44554 0.49344 0.0
C1169 C 0.90114 0.45699 0.49511 0.0
C1170 C 0.91131 0.47608 0.51481 0.0
C1171 C 0.89657 0.48344 0.53316 0.0
H1172 H 0.35629 0.14934 0.21639 0.0
H1173 H 0.3616 0.12061 0.29131 0.0
H1174 H 0.33514 0.14949 0.30598 0.0
H1175 H 0.35645 0.21544 0.2394 0.0
H1176 H 0.33497 0.22013 0.21323 0.0
H1177 H 0.35528 0.19796 0.20879 0.0
H1178 H 0.31807 0.16283 0.19323 0.0
H1179 H 0.29797 0.18512 0.1979 0.0
H1180 H 0.29415 0.15605 0.21344 0.0
H1181 H 0.30546 0.17878 0.31165 0.0
H1182 H 0.27713 0.20935 0.30891 0.0
H1183 H 0.29292 0.22175 0.23162 0.0
C1184 C 0.35207 0.14928 0.23595 0.0
C1185 C 0.36108 0.13259 0.25266 0.0
C1186 C 0.35506 0.13318 0.27811 0.0
C1187 C 0.33996 0.14951 0.28665 0.0
C1188 C 0.33117 0.16545 0.26965 0.0
C1189 C 0.3372 0.16573 0.24493 0.0
C1190 C 0.32511 0.18469 0.23057 0.0
C1191 C 0.34413 0.2058 0.22253 0.0
C1192 C 0.3078 0.17137 0.20742 0.0
C1193 C 0.31123 0.19486 0.251 0.0
C1194 C 0.31484 0.18328 0.27332 0.0
C1195 C 0.30285 0.18832 0.29443 0.0
C1196 C 0.2868 0.20566 0.29272 0.0
C1197 C 0.28319 0.21814 0.27027 0.0
C1198 C 0.29573 0.21281 0.2492 0.0
H1199 H 0.32346 0.09914 0.48849 0.0
H1200 H 0.3261 0.12759 0.5678 0.0
H1201 H 0.35995 0.10503 0.57929 0.0
H1202 H 0.33675 0.03679 0.50122 0.0
H1203 H 0.3548 0.03541 0.47497 0.0
H1204 H 0.33016 0.053 0.47323 0.0
H1205 H 0.35979 0.09327 0.46456 0.0
H1206 H 0.38445 0.0758 0.46618 0.0
H1207 H 0.38665 0.10452 0.48662 0.0
H1208 H 0.39545 0.0822 0.5814 0.0
H1209 H 0.42924 0.05941 0.57415 0.0
H1210 H 0.4018 0.04432 0.49393 0.0
C1211 C 0.33108 0.10054 0.5083 0.0
C1212 C 0.32227 0.11514 0.52726 0.0
C1213 C 0.33259 0.11643 0.55299 0.0
C1214 C 0.35178 0.10368 0.5597 0.0
C1215 C 0.36012 0.08953 0.54048 0.0
C1216 C 0.34998 0.08773 0.51535 0.0
C1217 C 0.36256 0.07172 0.49825 0.0
C1218 C 0.34502 0.04781 0.48621 0.0
C1219 C 0.37404 0.08726 0.4777 0.0
C1220 C 0.38169 0.06521 0.51761 0.0
C1221 C 0.38 0.07565 0.54187 0.0
C1222 C 0.39672 0.07357 0.56259 0.0
C1223 C 0.4158 0.06063 0.55832 0.0
C1224 C 0.41775 0.0499 0.53359 0.0
C1225 C 0.40035 0.05194 0.51311 0.0
H1226 H 0.6843 0.61385 0.32987 0.0
H1227 H 0.72276 0.56986 0.28131 0.0
H1228 H 0.74545 0.60941 0.26815 0.0
H1229 H 0.67697 0.66093 0.28841 0.0
H1230 H 0.68176 0.68686 0.31289 0.0
H1231 H 0.66994 0.65524 0.32032 0.0
H1232 H 0.70502 0.65815 0.35672 0.0
H1233 H 0.71687 0.68989 0.34951 0.0
H1234 H 0.73602 0.66613 0.3498 0.0
H1235 H 0.76064 0.65324 0.25666 0.0
H1236 H 0.76971 0.69878 0.25006 0.0
H1237 H 0.72295 0.71486 0.30739 0.0
C1238 C 0.6978 0.61251 0.31682 0.0
C1239 C 0.70174 0.58867 0.30665 0.0
C1240 C 0.71947 0.58783 0.28948 0.0
C1241 C 0.73244 0.61022 0.28184 0.0
C1242 C 0.72772 0.63335 0.29177 0.0
C1243 C 0.71108 0.63471 0.30915 0.0
C1244 C 0.70889 0.66202 0.31625 0.0
C1245 C 0.68285 0.66651 0.30903 0.0
C1246 C 0.7172 0.66948 0.34477 0.0
C1247 C 0.72647 0.67574 0.29967 0.0
C1248 C 0.73709 0.65881 0.28569 0.0
C1249 C 0.75274 0.66672 0.2678 0.0
C1250 C 0.75768 0.69261 0.26409 0.0
C1251 C 0.74719 0.71035 0.27836 0.0
C1252 C 0.73156 0.70177 0.29655 0.0
H1253 H 0.85473 0.49712 0.77511 0.0
H1254 H 0.82752 0.50651 0.69709 0.0
H1255 H 0.80236 0.46379 0.69402 0.0
H1256 H 0.85985 0.43284 0.76508 0.0
H1257 H 0.8504 0.42421 0.79542 0.0
H1258 H 0.86491 0.45618 0.79211 0.0
H1259 H 0.82825 0.47321 0.80843 0.0
H1260 H 0.81361 0.44125 0.81183 0.0
H1261 H 0.79811 0.46144 0.79266 0.0
H1262 H 0.78232 0.4189 0.69842 0.0
H1263 H 0.7684 0.37547 0.7105 0.0
H1264 H 0.80826 0.39552 0.78556 0.0
C1265 C 0.84326 0.49036 0.75746 0.0
C1266 C 0.84309 0.50524 0.73634 0.0
C1267 C 0.82792 0.49554 0.71356 0.0
C1268 C 0.81355 0.47129 0.71163 0.0
C1269 C 0.81439 0.45702 0.7327 0.0
C1270 C 0.82875 0.46625 0.75523 0.0
C1271 C 0.82707 0.44674 0.77474 0.0
C1272 C 0.85204 0.43957 0.78227 0.0
C1273 C 0.8161 0.45623 0.79831 0.0
C1274 C 0.80985 0.42491 0.75952 0.0
C1275 C 0.80269 0.43126 0.73532 0.0
C1276 C 0.78768 0.41382 0.71737 0.0
C1277 C 0.78002 0.38921 0.72427 0.0
C1278 C 0.78738 0.38229 0.74879 0.0
C1279 C 0.80216 0.40048 0.76676 0.0
H1280 H 0.02594 0.86264 0.13735 0.0
H1281 H 0.97182 0.80507 0.09258 0.0
H1282 H 0.96618 0.83527 0.06005 0.0
H1283 H 0.99723 0.91484 0.12612 0.0
H1284 H 0.02489 0.93672 0.12392 0.0
H1285 H 0.02547 0.91017 0.14288 0.0
H1286 H 0.05835 0.89556 0.11718 0.0
H1287 H 0.05789 0.92214 0.09814 0.0
H1288 H 0.05265 0.89036 0.08288 0.0
H1289 H 0.9643 0.87331 0.03396 0.0
H1290 H 0.96815 0.91511 0.01578 0.0
H1291 H 0.02472 0.94645 0.07693 0.0
C1292 C 0.01304 0.8563 0.12062 0.0
C1293 C 0.99926 0.83153 0.11755 0.0
C1294 C 0.98264 0.82394 0.0953 0.0
C1295 C 0.97928 0.84098 0.07673 0.0
C1296 C 0.99295 0.86539 0.08051 0.0
C1297 C 0.00972 0.87291 0.10177 0.0
C1298 C 0.02193 0.90024 0.10156 0.0
C1299 C 0.01707 0.91644 0.12501 0.0
C1300 C 0.04933 0.90218 0.09983 0.0
C1301 C 0.00902 0.90713 0.0772 0.0
C1302 C 0.99236 0.88685 0.06524 0.0
C1303 C 0.97751 0.88922 0.04301 0.0
C1304 C 0.97977 0.91297 0.03283 0.0
C1305 C 0.9968 0.93385 0.04488 0.0
C1306 C 0.01168 0.93072 0.06717 0.0
H1307 H 0.95169 0.3051 0.82357 0.0
H1308 H 0.95541 0.22675 0.80091 0.0
H1309 H 0.9128 0.21987 0.7818 0.0
H1310 H 0.89111 0.29377 0.84033 0.0
H1311 H 0.88291 0.32205 0.82802 0.0
H1312 H 0.91411 0.32135 0.83916 0.0
H1313 H 0.92693 0.33409 0.79539 0.0
H1314 H 0.89574 0.33481 0.78412 0.0
H1315 H 0.9127 0.31526 0.76663 0.0
H1316 H 0.86911 0.22033 0.76774 0.0
H1317 H 0.82748 0.22865 0.75803 0.0
H1318 H 0.85153 0.30715 0.78764 0.0
C1319 C 0.94361 0.28656 0.81438 0.0
C1320 C 0.95707 0.26646 0.81378 0.0
C1321 C 0.94567 0.24249 0.80162 0.0
C1322 C 0.9214 0.23837 0.79068 0.0
C1323 C 0.90863 0.25844 0.79177 0.0
C1324 C 0.91933 0.28213 0.80312 0.0
C1325 C 0.90126 0.30029 0.80197 0.0
C1326 C 0.89711 0.30992 0.82898 0.0
C1327 C 0.90966 0.32242 0.78608 0.0
C1328 C 0.8787 0.28298 0.7885 0.0
C1329 C 0.88343 0.25891 0.78289 0.0
C1330 C 0.86528 0.23919 0.77174 0.0
C1331 C 0.84165 0.2441 0.76632 0.0
C1332 C 0.83627 0.2686 0.77175 0.0
C1333 C 0.85518 0.28836 0.78275 0.0
H1334 H 0.51836 0.19088 0.62657 0.0
H1335 H 0.44816 0.19392 0.58552 0.0
H1336 H 0.4505 0.15519 0.55883 0.0
H1337 H 0.54579 0.16979 0.57273 0.0
H1338 H 0.56234 0.14901 0.58989 0.0
H1339 H 0.55496 0.17659 0.60652 0.0
H1340 H 0.5335 0.14827 0.6383 0.0
H1341 H 0.54086 0.1206 0.6218 0.0
H1342 H 0.50973 0.12203 0.62625 0.0
H1343 H 0.46085 0.11711 0.53545 0.0
H1344 H 0.47839 0.08165 0.51741 0.0
H1345 H 0.54154 0.10212 0.57379 0.0
C1346 C 0.50343 0.18334 0.61205 0.0
C1347 C 0.48306 0.19555 0.60818 0.0
C1348 C 0.46395 0.18501 0.58891 0.0
C1349 C 0.4651 0.16297 0.57362 0.0
C1350 C 0.48545 0.15153 0.5778 0.0
C1351 C 0.50425 0.16125 0.59658 0.0
C1352 C 0.52418 0.14533 0.59681 0.0
C1353 C 0.54824 0.16113 0.59115 0.0
C1354 C 0.52724 0.13335 0.62231 0.0
C1355 C 0.51374 0.12536 0.57504 0.0
C1356 C 0.49134 0.12931 0.56441 0.0
C1357 C 0.47829 0.11373 0.54375 0.0
C1358 C 0.48837 0.09358 0.53368 0.0
C1359 C 0.51116 0.08895 0.54439 0.0
C1360 C 0.52401 0.10513 0.56532 0.0
H1361 H 0.62437 0.79695 0.35952 0.0
H1362 H 0.57062 0.80592 0.29738 0.0
H1363 H 0.60126 0.80498 0.26715 0.0
H1364 H 0.67629 0.83585 0.3361 0.0
H1365 H 0.69733 0.81562 0.34619 0.0
H1366 H 0.67155 0.81789 0.36338 0.0
H1367 H 0.65808 0.76915 0.35659 0.0
H1368 H 0.68383 0.7668 0.3394 0.0
H1369 H 0.65359 0.75374 0.32467 0.0
H1370 H 0.63673 0.80095 0.24318 0.0
H1371 H 0.67522 0.79509 0.22697 0.0
H1372 H 0.7071 0.7895 0.30413 0.0
C1373 C 0.61906 0.79891 0.33959 0.0
C1374 C 0.59493 0.80155 0.33091 0.0
C1375 C 0.58886 0.80394 0.3046 0.0
C1376 C 0.60619 0.80344 0.28725 0.0
C1377 C 0.62966 0.80065 0.29638 0.0
C1378 C 0.63623 0.79855 0.32194 0.0
C1379 C 0.66267 0.79523 0.32654 0.0
C1380 C 0.67785 0.81748 0.34409 0.0
C1381 C 0.66465 0.76971 0.33744 0.0
C1382 C 0.66982 0.79556 0.29952 0.0
C1383 C 0.65042 0.79871 0.28249 0.0
C1384 C 0.65209 0.79871 0.25636 0.0
C1385 C 0.67405 0.79532 0.24732 0.0
C1386 C 0.69425 0.79212 0.26427 0.0
C1387 C 0.69212 0.79238 0.29078 0.0
H1388 H 0.01998 0.19416 0.45046 0.0
H1389 H 0.0051 0.24069 0.51542 0.0
H1390 H 0.00318 0.20376 0.54129 0.0
H1391 H 0.98121 0.13644 0.46292 0.0
H1392 H 1.00171 0.11621 0.45337 0.0
H1393 H 1.00068 0.14538 0.43864 0.0
H1394 H 0.04662 0.16077 0.45128 0.0
H1395 H 0.0485 0.13123 0.46484 0.0
H1396 H 0.05918 0.16079 0.48405 0.0
H1397 H 0.00501 0.16166 0.56044 0.0
H1398 H 0.01074 0.11855 0.57095 0.0
H1399 H 0.0264 0.10181 0.49362 0.0
C1400 C 0.01603 0.19662 0.47003 0.0
C1401 C 0.01266 0.22027 0.48093 0.0
C1402 C 0.0077 0.22267 0.50667 0.0
C1403 C 0.00655 0.20183 0.52149 0.0
C1404 C 0.0104 0.17885 0.5102 0.0
C1405 C 0.01501 0.17622 0.48503 0.0
C1406 C 0.01948 0.14999 0.47752 0.0
C1407 C 0.99957 0.13623 0.45686 0.0
C1408 C 0.04496 0.15076 0.46893 0.0
C1409 C 0.01745 0.13838 0.50259 0.0
C1410 C 0.0118 0.15508 0.52117 0.0
C1411 C 0.00929 0.1484 0.54596 0.0
C1412 C 0.01263 0.12399 0.55178 0.0
C1413 C 0.01862 0.10686 0.5329 0.0
C1414 C 0.02114 0.11427 0.50815 0.0
H1415 H 0.57171 0.29793 0.15058 0.0
H1416 H 0.52431 0.24088 0.18552 0.0
H1417 H 0.55892 0.23572 0.21619 0.0
H1418 H 0.62286 0.26756 0.15442 0.0
H1419 H 0.64469 0.29653 0.16126 0.0
H1420 H 0.61589 0.29674 0.14311 0.0
H1421 H 0.60754 0.33178 0.17552 0.0
H1422 H 0.63631 0.33163 0.19384 0.0
H1423 H 0.60873 0.32654 0.20895 0.0
H1424 H 0.59897 0.23564 0.24187 0.0
H1425 H 0.64191 0.2398 0.25992 0.0
H1426 H 0.66279 0.2968 0.20797 0.0
C1427 C 0.56852 0.28447 0.16478 0.0
C1428 C 0.54531 0.26983 0.16571 0.0
C1429 C 0.54195 0.2523 0.18448 0.0
C1430 C 0.56146 0.2493 0.20202 0.0
C1431 C 0.58412 0.264 0.20052 0.0
C1432 C 0.58773 0.28122 0.18237 0.0
C1433 C 0.61404 0.29399 0.18413 0.0
C1434 C 0.62501 0.28835 0.15925 0.0
C1435 C 0.6168 0.32268 0.19102 0.0
C1436 C 0.62476 0.28097 0.20587 0.0
C1437 C 0.60718 0.26389 0.21522 0.0
C1438 C 0.61287 0.24906 0.23484 0.0
C1439 C 0.63724 0.25155 0.24495 0.0
C1440 C 0.65548 0.26863 0.23529 0.0
C1441 C 0.64911 0.2837 0.21575 0.0
H1442 H 0.49046 0.84008 0.96739 0.0
H1443 H 0.56751 0.84054 0.96526 0.0
H1444 H 0.57665 0.88383 0.98705 0.0
H1445 H 0.49081 0.90174 0.95264 0.0
H1446 H 0.46846 0.90807 0.97327 0.0
H1447 H 0.46836 0.87616 0.96058 0.0
H1448 H 0.47135 0.86163 0.00649 0.0
H1449 H 0.47147 0.89361 0.01933 0.0
H1450 H 0.49572 0.87733 0.0299 0.0
H1451 H 0.57682 0.92884 0.00385 0.0
H1452 H 0.5681 0.97151 0.0152 0.0
H1453 H 0.49099 0.94054 0.00736 0.0
C1454 C 0.50929 0.84908 0.9719 0.0
C1455 C 0.52828 0.83702 0.96465 0.0
C1456 C 0.55269 0.84945 0.97078 0.0
C1457 C 0.55804 0.87398 0.98318 0.0
C1458 C 0.5388 0.88555 0.9896 0.0
C1459 C 0.51493 0.87338 0.98438 0.0
C1460 C 0.49746 0.89046 0.99157 0.0
C1461 C 0.48028 0.89433 0.96812 0.0
C1462 C 0.48316 0.88014 0.01311 0.0
C1463 C 0.51517 0.91447 1.00083 0.0
C1464 C 0.53895 0.91126 0.99978 0.0
C1465 C 0.55832 0.93145 0.00527 0.0
C1466 C 0.55318 0.95561 0.01162 0.0
C1467 C 0.52888 0.95926 0.0124 0.0
C1468 C 0.50978 0.93828 0.00746 0.0
H1469 H 0.92744 0.74668 0.65045 0.0
H1470 H 0.95494 0.82609 0.64304 0.0
H1471 H 0.92719 0.83842 0.67307 0.0
H1472 H 0.86561 0.75383 0.65138 0.0
H1473 H 0.8591 0.73054 0.67388 0.0
H1474 H 0.88217 0.72791 0.65309 0.0
H1475 H 0.91361 0.72713 0.69215 0.0
H1476 H 0.89088 0.72991 0.71339 0.0
H1477 H 0.91878 0.75259 0.71718 0.0
H1478 H 0.89664 0.84214 0.70395 0.0
H1479 H 0.86186 0.83691 0.72954 0.0
H1480 H 0.8532 0.75528 0.71528 0.0
C1481 C 0.92766 0.76665 0.65522 0.0
C1482 C 0.94337 0.78543 0.64456 0.0
C1483 C 0.94295 0.81138 0.65096 0.0
C1484 C 0.92741 0.81859 0.66814 0.0
C1485 C 0.9123 0.7996 0.67853 0.0
C1486 C 0.91203 0.77418 0.67205 0.0
C1487 C 0.893 0.75756 0.68469 0.0
C1488 C 0.87384 0.74152 0.66457 0.0
C1489 C 0.90477 0.74081 0.70293 0.0
C1490 C 0.88252 0.77762 0.69918 0.0
C1491 C 0.89416 0.80174 0.6957 0.0
C1492 C 0.88739 0.82335 0.70686 0.0
C1493 C 0.86773 0.82022 0.72142 0.0
C1494 C 0.85502 0.79569 0.72432 0.0
C1495 C 0.86277 0.77419 0.71344 0.0
H1496 H 0.1158 0.99906 0.87058 0.0
H1497 H 0.06364 0.01787 0.81179 0.0
H1498 H 0.03322 0.0165 0.84239 0.0
H1499 H 0.07254 0.95628 0.90167 0.0
H1500 H 0.08644 0.96678 0.93359 0.0
H1501 H 0.10481 0.96773 0.90745 0.0
H1502 H 0.12103 0.01511 0.91824 0.0
H1503 H 0.10341 0.01607 0.94481 0.0
H1504 H 0.10015 0.03705 0.92007 0.0
H1505 H 0.00989 0.01739 0.88002 0.0
H1506 H 0.99555 0.0211 0.92267 0.0
H1507 H 0.06165 0.99985 0.95691 0.0
C1508 C 0.09789 0.00259 0.86405 0.0
C1509 C 0.09212 0.00852 0.83873 0.0
C1510 C 0.06853 0.01327 0.83105 0.0
C1511 C 0.05105 0.01241 0.84827 0.0
C1512 C 0.05733 0.00659 0.87307 0.0
C1513 C 0.08015 0.00174 0.88098 0.0
C1514 C 0.08268 0.99756 0.90916 0.0
C1515 C 0.08689 0.97049 0.91321 0.0
C1516 C 0.10302 0.01761 0.92394 0.0
C1517 C 0.05788 0.00129 0.91595 0.0
C1518 C 0.0435 0.00636 0.89477 0.0
C1519 C 0.02071 0.01284 0.89661 0.0
C1520 C 0.01267 0.0148 0.92082 0.0
C1521 C 0.0272 0.00993 0.9427 0.0
C1522 C 0.04984 0.0026 0.94021 0.0
H1523 H 0.76857 0.36004 0.60067 0.0
H1524 H 0.68997 0.35132 0.58861 0.0
H1525 H 0.68702 0.32667 0.62643 0.0
H1526 H 0.77095 0.29758 0.62096 0.0
H1527 H 0.79697 0.3083 0.64427 0.0
H1528 H 0.79267 0.32521 0.61633 0.0
H1529 H 0.79607 0.36571 0.64551 0.0
H1530 H 0.79793 0.34981 0.67447 0.0
H1531 H 0.77431 0.36822 0.66781 0.0
H1532 H 0.69244 0.30081 0.66391 0.0
H1533 H 0.70568 0.27658 0.69914 0.0
H1534 H 0.78098 0.30365 0.689 0.0
C1535 C 0.75069 0.35302 0.60597 0.0
C1536 C 0.72945 0.3577 0.59153 0.0
C1537 C 0.70649 0.34809 0.59926 0.0
C1538 C 0.70465 0.33404 0.62076 0.0
C1539 C 0.72592 0.32978 0.63448 0.0
C1540 C 0.74852 0.33899 0.62741 0.0
C1541 C 0.76855 0.33154 0.64536 0.0
C1542 C 0.78314 0.31465 0.63086 0.0
C1543 C 0.78521 0.3552 0.65915 0.0
C1544 C 0.75368 0.31664 0.66368 0.0
C1545 C 0.7291 0.31573 0.65684 0.0
C1546 C 0.71161 0.30167 0.66961 0.0
C1547 C 0.71933 0.28793 0.68959 0.0
C1548 C 0.74434 0.28851 0.69705 0.0
C1549 C 0.76176 0.30333 0.68408 0.0
H1550 H 0.42989 0.06666 0.33539 0.0
H1551 H 0.49006 0.04795 0.29679 0.0
H1552 H 0.51082 0.03985 0.33802 0.0
H1553 H 0.46616 0.09785 0.39367 0.0
H1554 H 0.44402 0.0854 0.41414 0.0
H1555 H 0.43436 0.09097 0.38176 0.0
H1556 H 0.41253 0.04422 0.37331 0.0
H1557 H 0.4222 0.03849 0.40561 0.0
H1558 H 0.42944 0.01912 0.37926 0.0
H1559 H 0.52458 0.03245 0.38314 0.0
H1560 H 0.5305 0.02635 0.42898 0.0
H1561 H 0.46122 0.04927 0.43867 0.0
C1562 C 0.44756 0.06115 0.33562 0.0
C1563 C 0.45837 0.05807 0.31275 0.0
C1564 C 0.4814 0.05053 0.31396 0.0
C1565 C 0.49336 0.04587 0.33733 0.0
C1566 C 0.4821 0.04879 0.35942 0.0
C1567 C 0.45974 0.05631 0.35881 0.0
C1568 C 0.45134 0.05734 0.38526 0.0
C1569 C 0.44883 0.08451 0.39423 0.0
C1570 C 0.42747 0.03867 0.38588 0.0
C1571 C 0.47236 0.04897 0.40076 0.0
C1572 C 0.48995 0.04429 0.38547 0.0
C1573 C 0.51098 0.03617 0.39532 0.0
C1574 C 0.51417 0.03278 0.42147 0.0
C1575 C 0.49639 0.03737 0.43762 0.0
C1576 C 0.4752 0.04558 0.42696 0.0
H1577 H 0.76506 0.68049 0.06196 0.0
H1578 H 0.82619 0.73341 0.04172 0.0
H1579 H 0.82537 0.76078 0.08112 0.0
H1580 H 0.73304 0.72643 0.0877 0.0
H1581 H 0.72286 0.70761 0.11285 0.0
H1582 H 0.72846 0.69232 0.08318 0.0
H1583 H 0.75853 0.66828 0.10772 0.0
H1584 H 0.7529 0.68335 0.13747 0.0
H1585 H 0.78351 0.68597 0.1292 0.0
H1586 H 0.81743 0.78231 0.12282 0.0
H1587 H 0.80399 0.79539 0.16415 0.0
H1588 H 0.74831 0.72791 0.15614 0.0
C1589 C 0.77833 0.69782 0.06573 0.0
C1590 C 0.79567 0.70488 0.04877 0.0
C1591 C 0.81275 0.72765 0.0545 0.0
C1592 C 0.81239 0.74332 0.07677 0.0
C1593 C 0.79487 0.73584 0.09297 0.0
C1594 C 0.77824 0.71356 0.08774 0.0
C1595 C 0.7614 0.70954 0.10822 0.0
C1596 C 0.73488 0.70895 0.09733 0.0
C1597 C 0.76427 0.68536 0.12143 0.0
C1598 C 0.7711 0.73308 0.12588 0.0
C1599 C 0.79036 0.74809 0.11679 0.0
C1600 C 0.80235 0.77073 0.13008 0.0
C1601 C 0.79457 0.77803 0.15344 0.0
C1602 C 0.77515 0.76261 0.16313 0.0
C1603 C 0.76316 0.74005 0.14905 0.0
H1604 H 0.10541 0.00997 0.73051 0.0
H1605 H 0.15682 0.96612 0.70216 0.0
H1606 H 0.13668 0.96547 0.65824 0.0
H1607 H 0.05221 0.98101 0.6852 0.0
H1608 H 0.04197 0.01084 0.68227 0.0
H1609 H 0.05847 0.00501 0.71168 0.0
H1610 H 0.08989 0.0458 0.70903 0.0
H1611 H 0.07361 0.05166 0.67957 0.0
H1612 H 0.10535 0.04951 0.68084 0.0
H1613 H 0.11264 0.97201 0.61728 0.0
H1614 H 0.08749 0.98664 0.58209 0.0
H1615 H 0.05315 0.02779 0.63726 0.0
C1616 C 0.11209 0.99972 0.71514 0.0
C1617 C 0.13251 0.98788 0.71968 0.0
C1618 C 0.14112 0.97523 0.69903 0.0
C1619 C 0.12976 0.97469 0.67408 0.0
C1620 C 0.10994 0.987 0.67018 0.0
C1621 C 0.1012 0.99932 0.69014 0.0
C1622 C 0.08101 0.01293 0.68066 0.0
C1623 C 0.05699 0.00177 0.69054 0.0
C1624 C 0.08789 0.04167 0.68796 0.0
C1625 C 0.08007 0.00679 0.65219 0.0
C1626 C 0.09663 0.99148 0.64654 0.0
C1627 C 0.09952 0.98386 0.62147 0.0
C1628 C 0.08524 0.9923 0.60165 0.0
C1629 C 0.06854 0.00834 0.6071 0.0
C1630 C 0.06582 0.0155 0.63265 0.0
H1631 H 0.70319 0.36204 0.43875 0.0
H1632 H 0.73458 0.30966 0.48546 0.0
H1633 H 0.74067 0.28461 0.44674 0.0
H1634 H 0.67291 0.31356 0.38576 0.0
H1635 H 0.67975 0.33479 0.3614 0.0
H1636 H 0.67502 0.34724 0.3927 0.0
H1637 H 0.71696 0.37657 0.39642 0.0
H1638 H 0.72184 0.3639 0.36535 0.0
H1639 H 0.74369 0.36291 0.39245 0.0
H1640 H 0.74815 0.26808 0.40408 0.0
H1641 H 0.75477 0.2596 0.35914 0.0
H1642 H 0.71773 0.32105 0.33808 0.0
C1643 C 0.7107 0.3449 0.44077 0.0
C1644 C 0.71828 0.3378 0.46528 0.0
C1645 C 0.72859 0.31555 0.46702 0.0
C1646 C 0.7321 0.30111 0.44508 0.0
C1647 C 0.72511 0.30894 0.42129 0.0
C1648 C 0.71439 0.33012 0.41886 0.0
C1649 C 0.71009 0.33505 0.39084 0.0
C1650 C 0.68282 0.3325 0.38217 0.0
C1651 C 0.72399 0.36118 0.38602 0.0
C1652 C 0.72065 0.31375 0.37808 0.0
C1653 C 0.7291 0.29892 0.39617 0.0
C1654 C 0.74121 0.27924 0.38968 0.0
C1655 C 0.74497 0.27462 0.3641 0.0
C1656 C 0.73649 0.28938 0.34507 0.0
C1657 C 0.72387 0.30905 0.35213 0.0
H1658 H 0.45433 0.07946 0.18862 0.0
H1659 H 0.41085 0.0039 0.17919 0.0
H1660 H 0.42737 0.9954 0.13863 0.0
H1661 H 0.45092 0.09117 0.12057 0.0
H1662 H 0.48204 0.10712 0.12275 0.0
H1663 H 0.46539 0.10834 0.15012 0.0
H1664 H 0.49874 0.09044 0.17693 0.0
H1665 H 0.51545 0.08912 0.14964 0.0
H1666 H 0.50701 0.06095 0.16576 0.0
H1667 H 0.44896 0.99432 0.09962 0.0
H1668 H 0.47612 1.00002 0.0657 0.0
H1669 H 0.50769 0.07533 0.1005 0.0
C1670 C 0.44806 0.0613 0.17777 0.0
C1671 C 0.43114 0.04239 0.18702 0.0
C1672 C 0.42378 0.01867 0.17254 0.0
C1673 C 0.433 0.01367 0.14939 0.0
C1674 C 0.44986 0.03248 0.14094 0.0
C1675 C 0.45749 0.05578 0.15468 0.0
C1676 C 0.47696 0.07198 0.14188 0.0
C1677 C 0.4683 0.09608 0.13332 0.0
C1678 C 0.50096 0.0785 0.15961 0.0
C1679 C 0.47915 0.05404 0.11903 0.0
C1680 C 0.46308 0.03149 0.11874 0.0
C1681 C 0.46163 0.0119 0.09965 0.0
C1682 C 0.47714 0.0153 0.08044 0.0
C1683 C 0.49406 0.03805 0.08048 0.0
C1684 C 0.49498 0.0577 0.10002 0.0
H1685 H 0.75608 0.72541 0.9374 0.0
H1686 H 0.81813 0.68795 0.93134 0.0
H1687 H 0.83118 0.71533 0.8977 0.0
H1688 H 0.74153 0.72695 0.87326 0.0
H1689 H 0.73177 0.75725 0.87518 0.0
H1690 H 0.73016 0.73821 0.90183 0.0
H1691 H 0.75635 0.77571 0.93104 0.0
H1692 H 0.75825 0.79478 0.90423 0.0
H1693 H 0.7856 0.78987 0.9226 0.0
H1694 H 0.83437 0.74247 0.86117 0.0
H1695 H 0.82521 0.76372 0.82235 0.0
H1696 H 0.76096 0.78328 0.85221 0.0
C1697 C 0.77275 0.72339 0.92946 0.0
C1698 C 0.78617 0.70469 0.93704 0.0
C1699 C 0.80759 0.70222 0.9258 0.0
C1700 C 0.81527 0.71785 0.90687 0.0
C1701 C 0.8014 0.73589 0.89954 0.0
C1702 C 0.78054 0.73867 0.91046 0.0
C1703 C 0.76709 0.757 0.89697 0.0
C1704 C 0.74113 0.74407 0.88617 0.0
C1705 C 0.76682 0.78075 0.91478 0.0
C1706 C 0.78299 0.76315 0.87597 0.0
C1707 C 0.80306 0.75137 0.87816 0.0
C1708 C 0.81902 0.75223 0.85953 0.0
C1709 C 0.81372 0.76447 0.83756 0.0
C1710 C 0.79237 0.77518 0.83428 0.0
C1711 C 0.77753 0.77548 0.85429 0.0
H1712 H 0.85769 0.10856 0.01783 0.0
H1713 H 0.8829 0.15112 0.95564 0.0
H1714 H 0.91616 0.12677 0.95339 0.0
H1715 H 0.91713 0.10481 0.04859 0.0
H1716 H 0.90811 0.07305 0.05748 0.0
H1717 H 0.88611 0.0937 0.05411 0.0
H1718 H 0.85879 0.05982 0.02171 0.0
H1719 H 0.88098 0.03931 0.02507 0.0
H1720 H 0.87103 0.04806 0.99392 0.0
H1721 H 0.94646 0.0972 0.9571 0.0
H1722 H 0.97261 0.06592 0.96802 0.0
H1723 H 0.92939 0.04335 0.02892 0.0
C1724 C 0.87015 0.11273 0.00369 0.0
C1725 C 0.86748 0.13184 0.98687 0.0
C1726 C 0.88437 0.13664 0.96875 0.0
C1727 C 0.90338 0.12284 0.96727 0.0
C1728 C 0.90544 0.10415 0.98402 0.0
C1729 C 0.88936 0.09909 0.00195 0.0
C1730 C 0.89599 0.07823 0.01795 0.0
C1731 C 0.9022 0.08807 0.04621 0.0
C1732 C 0.87547 0.05498 0.01444 0.0
C1733 C 0.91835 0.07245 0.00631 0.0
C1734 C 0.92335 0.08753 0.98662 0.0
C1735 C 0.94283 0.08548 0.97266 0.0
C1736 C 0.95771 0.06777 0.97911 0.0
C1737 C 0.95342 0.05259 0.99966 0.0
C1738 C 0.93325 0.05482 0.01322 0.0
H1739 H 0.3528 0.43297 0.08018 0.0
H1740 H 0.30734 0.4829 0.04682 0.0
H1741 H 0.34378 0.5121 0.03845 0.0
H1742 H 0.40402 0.48479 0.10894 0.0
H1743 H 0.42656 0.46593 0.10184 0.0
H1744 H 0.39709 0.45075 0.10882 0.0
H1745 H 0.39163 0.42299 0.0659 0.0
H1746 H 0.42085 0.43829 0.05864 0.0
H1747 H 0.3942 0.43809 0.03657 0.0
H1748 H 0.3837 0.53181 0.02697 0.0
H1749 H 0.42601 0.54369 0.01735 0.0
H1750 H 0.44643 0.4827 0.05986 0.0
C1751 C 0.35056 0.45043 0.07186 0.0
C1752 C 0.32724 0.45561 0.0641 0.0
C1753 C 0.32503 0.47848 0.05288 0.0
C1754 C 0.34562 0.49525 0.04808 0.0
C1755 C 0.36829 0.48908 0.05494 0.0
C1756 C 0.371 0.46751 0.06704 0.0
C1757 C 0.39743 0.46455 0.07075 0.0
C1758 C 0.40683 0.46664 0.09929 0.0
C1759 C 0.40123 0.4395 0.05715 0.0
C1760 C 0.40891 0.48723 0.0579 0.0
C1761 C 0.39175 0.50113 0.049 0.0
C1762 C 0.39745 0.5215 0.03437 0.0
C1763 C 0.42141 0.52795 0.02882 0.0
C1764 C 0.43932 0.5142 0.03807 0.0
C1765 C 0.43307 0.49378 0.05301 0.0
H1766 H 0.35243 0.6522 0.78091 0.0
H1767 H 0.31286 0.60165 0.71725 0.0
H1768 H 0.28221 0.62933 0.71295 0.0
H1769 H 0.30077 0.66885 0.80918 0.0
H1770 H 0.31499 0.70151 0.81721 0.0
H1771 H 0.33337 0.67717 0.81537 0.0
H1772 H 0.35732 0.70273 0.78368 0.0
H1773 H 0.33775 0.72605 0.78294 0.0
H1774 H 0.34184 0.70896 0.75379 0.0
H1775 H 0.25608 0.66219 0.71512 0.0
H1776 H 0.23614 0.6989 0.72316 0.0
H1777 H 0.29136 0.72786 0.78626 0.0
C1778 C 0.33728 0.6469 0.76612 0.0
C1779 C 0.33504 0.62466 0.74947 0.0
C1780 C 0.31502 0.61855 0.73025 0.0
C1781 C 0.29745 0.63412 0.72767 0.0
C1782 C 0.30014 0.65578 0.74443 0.0
C1783 C 0.31952 0.66225 0.76326 0.0
C1784 C 0.31835 0.68702 0.77824 0.0
C1785 C 0.31676 0.68341 0.80669 0.0
C1786 C 0.34015 0.70737 0.77445 0.0
C1787 C 0.29491 0.69307 0.76536 0.0
C1788 C 0.28491 0.67488 0.74572 0.0
C1789 C 0.26368 0.67652 0.7305 0.0
C1790 C 0.25247 0.69744 0.73529 0.0
C1791 C 0.26236 0.71642 0.75525 0.0
C1792 C 0.28367 0.71396 0.77068 0.0
H1793 H 0.20015 0.63498 0.4742 0.0
H1794 H 0.24471 0.6058 0.53311 0.0
H1795 H 0.20777 0.58092 0.54681 0.0
H1796 H 0.15153 0.64212 0.50976 0.0
H1797 H 0.12799 0.63204 0.48359 0.0
H1798 H 0.15793 0.64644 0.4774 0.0
H1799 H 0.16047 0.60722 0.44704 0.0
H1800 H 0.1304 0.59286 0.45298 0.0
H1801 H 0.15537 0.5761 0.45853 0.0
H1802 H 0.16553 0.56151 0.55607 0.0
H1803 H 0.12164 0.54708 0.55834 0.0
H1804 H 0.10465 0.58774 0.49256 0.0
C1805 C 0.2022 0.62314 0.48981 0.0
C1806 C 0.22542 0.6224 0.50258 0.0
C1807 C 0.2272 0.60663 0.52292 0.0
C1808 C 0.20628 0.59246 0.53089 0.0
C1809 C 0.18367 0.59397 0.51816 0.0
C1810 C 0.18152 0.60865 0.49782 0.0
C1811 C 0.15507 0.6072 0.48755 0.0
C1812 C 0.14771 0.63351 0.48972 0.0
C1813 C 0.15004 0.59512 0.45989 0.0
C1814 C 0.14262 0.58989 0.50566 0.0
C1815 C 0.15944 0.58243 0.52316 0.0
C1816 C 0.15225 0.56705 0.5423 0.0
C1817 C 0.12728 0.55901 0.5435 0.0
C1818 C 0.10977 0.56626 0.52564 0.0
C1819 C 0.11763 0.58183 0.50644 0.0
H1820 H 0.67834 0.91532 0.81581 0.0
H1821 H 0.65179 0.92621 0.73801 0.0
H1822 H 0.6767 0.89637 0.72178 0.0
H1823 H 0.73914 0.91095 0.80495 0.0
H1824 H 0.74198 0.88641 0.82617 0.0
H1825 H 0.72172 0.90831 0.83182 0.0
H1826 H 0.6864 0.87073 0.83145 0.0
H1827 H 0.70606 0.84833 0.82509 0.0
H1828 H 0.67883 0.84815 0.80388 0.0
H1829 H 0.70747 0.86858 0.71381 0.0
H1830 H 0.73859 0.84105 0.71483 0.0
H1831 H 0.74261 0.84456 0.7974 0.0
C1832 C 0.6776 0.91127 0.79536 0.0
C1833 C 0.66307 0.92323 0.77821 0.0
C1834 C 0.66263 0.91728 0.75159 0.0
C1835 C 0.67682 0.9004 0.74214 0.0
C1836 C 0.69118 0.88925 0.75952 0.0
C1837 C 0.69143 0.89413 0.78557 0.0
C1838 C 0.70831 0.87935 0.80007 0.0
C1839 C 0.72901 0.89733 0.81673 0.0
C1840 C 0.69407 0.86051 0.8161 0.0
C1841 C 0.71775 0.86568 0.77811 0.0
C1842 C 0.70783 0.87194 0.75488 0.0
C1843 C 0.71501 0.8632 0.73188 0.0
C1844 C 0.73273 0.84764 0.73263 0.0
C1845 C 0.74268 0.84047 0.75614 0.0
C1846 C 0.73492 0.84943 0.77915 0.0
H1847 H 0.67409 0.92579 0.50166 0.0
H1848 H 0.72943 0.99191 0.52612 0.0
H1849 H 0.69916 0.01968 0.51772 0.0
H1850 H 0.63831 0.95495 0.45224 0.0
H1851 H 0.60988 0.93852 0.46061 0.0
H1852 H 0.6366 0.92411 0.46424 0.0
H1853 H 0.63118 0.91916 0.51193 0.0
H1854 H 0.6044 0.93332 0.50837 0.0
H1855 H 0.62905 0.94668 0.53251 0.0
H1856 H 0.66235 0.03983 0.51051 0.0
H1857 H 0.62111 0.05049 0.50908 0.0
H1858 H 0.58982 0.97096 0.49179 0.0
C1859 C 0.67994 0.94615 0.50462 0.0
C1860 C 0.70404 0.95682 0.51426 0.0
C1861 C 0.71098 0.98346 0.51864 0.0
C1862 C 0.694 0.99935 0.51373 0.0
C1863 C 0.67021 0.98822 0.50459 0.0
C1864 C 0.66315 0.96221 0.50023 0.0
C1865 C 0.63599 0.95483 0.49346 0.0
C1866 C 0.62984 0.94237 0.466 0.0
C1867 C 0.62449 0.93749 0.51272 0.0
C1868 C 0.62877 0.98067 0.4957 0.0
C1869 C 0.6488 0.99976 0.5014 0.0
C1870 C 0.64653 0.0251 0.50574 0.0
C1871 C 0.62312 0.03098 0.50489 0.0
C1872 C 0.60251 0.01149 0.50028 0.0
C1873 C 0.60538 0.98618 0.49509 0.0
H1874 H 0.34468 0.45793 0.70494 0.0
H1875 H 0.32396 0.50212 0.76841 0.0
H1876 H 0.30189 0.46313 0.78305 0.0
H1877 H 0.28739 0.41238 0.69319 0.0
H1878 H 0.30213 0.38599 0.68545 0.0
H1879 H 0.31556 0.41755 0.67912 0.0
H1880 H 0.35551 0.41303 0.706 0.0
H1881 H 0.34218 0.38153 0.71252 0.0
H1882 H 0.35468 0.40498 0.73854 0.0
H1883 H 0.28496 0.41953 0.79299 0.0
H1884 H 0.27153 0.37374 0.79587 0.0
H1885 H 0.3012 0.35736 0.72508 0.0
C1886 C 0.33528 0.45943 0.72175 0.0
C1887 C 0.33611 0.48315 0.73551 0.0
C1888 C 0.32359 0.48425 0.75747 0.0
C1889 C 0.311 0.46218 0.76599 0.0
C1890 C 0.31084 0.43912 0.75224 0.0
C1891 C 0.32238 0.43755 0.73044 0.0
C1892 C 0.31959 0.41023 0.71948 0.0
C1893 C 0.30531 0.40631 0.69272 0.0
C1894 C 0.34447 0.40197 0.71913 0.0
C1895 C 0.30501 0.39675 0.73879 0.0
C1896 C 0.30028 0.41383 0.75757 0.0
C1897 C 0.28826 0.40597 0.77824 0.0
C1898 C 0.28081 0.37993 0.77977 0.0
C1899 C 0.28518 0.36208 0.76061 0.0
C1900 C 0.29729 0.37064 0.73978 0.0
H1901 H 0.13958 0.57276 0.23882 0.0
H1902 H 0.18142 0.54604 0.30177 0.0
H1903 H 0.21277 0.58441 0.30312 0.0
H1904 H 0.19094 0.60067 0.20741 0.0
H1905 H 0.17728 0.62722 0.19816 0.0
H1906 H 0.15836 0.59731 0.20163 0.0
H1907 H 0.13515 0.6195 0.23385 0.0
H1908 H 0.15392 0.64947 0.2304 0.0
H1909 H 0.1519 0.63814 0.26162 0.0
H1910 H 0.23876 0.62629 0.2988 0.0
H1911 H 0.2575 0.66915 0.28926 0.0
H1912 H 0.19926 0.6684 0.22865 0.0
C1913 C 0.15537 0.57491 0.25284 0.0
C1914 C 0.15803 0.55636 0.27019 0.0
C1915 C 0.17897 0.55995 0.28826 0.0
C1916 C 0.19691 0.58167 0.28915 0.0
C1917 C 0.19371 0.59956 0.27178 0.0
C1918 C 0.17349 0.59643 0.25395 0.0
C1919 C 0.17422 0.61879 0.23781 0.0
C1920 C 0.17527 0.61049 0.20958 0.0
C1921 C 0.15251 0.63227 0.24113 0.0
C1922 C 0.1979 0.63512 0.24955 0.0
C1923 C 0.20888 0.62361 0.26906 0.0
C1924 C 0.23046 0.63538 0.2834 0.0
C1925 C 0.24099 0.65967 0.27782 0.0
C1926 C 0.22993 0.67187 0.25807 0.0
C1927 C 0.20825 0.65931 0.24361 0.0
H1928 H 0.55383 0.7428 0.44241 0.0
H1929 H 0.49371 0.72564 0.38199 0.0
H1930 H 0.48024 0.68463 0.399 0.0
H1931 H 0.56684 0.67948 0.44236 0.0
H1932 H 0.5744 0.68108 0.47647 0.0
H1933 H 0.57899 0.70956 0.46008 0.0
H1934 H 0.55231 0.72993 0.48983 0.0
H1935 H 0.54752 0.70143 0.50622 0.0
H1936 H 0.52186 0.71389 0.4923 0.0
H1937 H 0.47326 0.64543 0.42204 0.0
H1938 H 0.47463 0.60929 0.44828 0.0
H1939 H 0.53936 0.65093 0.49381 0.0
C1940 C 0.53781 0.73044 0.43279 0.0
C1941 C 0.52482 0.73755 0.41085 0.0
C1942 C 0.50403 0.72069 0.39876 0.0
C1943 C 0.49615 0.69735 0.40835 0.0
C1944 C 0.50927 0.69099 0.43002 0.0
C1945 C 0.52975 0.70691 0.44202 0.0
C1946 C 0.54094 0.69501 0.46455 0.0
C1947 C 0.56683 0.69105 0.46062 0.0
C1948 C 0.54063 0.71103 0.48971 0.0
C1949 C 0.52359 0.6699 0.46323 0.0
C1950 C 0.50536 0.66812 0.44325 0.0
C1951 C 0.48739 0.64663 0.43779 0.0
C1952 C 0.48826 0.62623 0.45287 0.0
C1953 C 0.50696 0.62739 0.47318 0.0
C1954 C 0.52472 0.64963 0.47855 0.0
H1955 H 0.57533 0.23059 0.70944 0.0
H1956 H 0.564 0.30826 0.70547 0.0
H1957 H 0.60623 0.32362 0.72511 0.0
H1958 H 0.6144 0.24074 0.77033 0.0
H1959 H 0.63328 0.21883 0.76018 0.0
H1960 H 0.60173 0.21419 0.74752 0.0
H1961 H 0.61403 0.21394 0.70149 0.0
H1962 H 0.64556 0.21859 0.71403 0.0
H1963 H 0.63506 0.24039 0.69285 0.0
H1964 H 0.65131 0.33031 0.74209 0.0
H1965 H 0.69416 0.32758 0.75576 0.0
H1966 H 0.67501 0.24547 0.74937 0.0
C1967 C 0.58154 0.25085 0.71301 0.0
C1968 C 0.56622 0.2682 0.70594 0.0
C1969 C 0.57528 0.29455 0.71083 0.0
C1970 C 0.59928 0.30347 0.72197 0.0
C1971 C 0.61401 0.28582 0.72833 0.0
C1972 C 0.60536 0.26004 0.72418 0.0
C1973 C 0.625 0.24493 0.73177 0.0
C1974 C 0.61819 0.22872 0.75376 0.0
C1975 C 0.63021 0.2285 0.70866 0.0
C1976 C 0.64618 0.26618 0.74051 0.0
C1977 C 0.63957 0.28965 0.73843 0.0
C1978 C 0.65655 0.312 0.74412 0.0
C1979 C 0.68088 0.31027 0.7519 0.0
C1980 C 0.68804 0.28635 0.75403 0.0
C1981 C 0.67023 0.26412 0.74848 0.0
H1982 H 0.02784 0.37523 0.90352 0.0
H1983 H 0.00632 0.31756 0.95469 0.0
H1984 H 0.00409 0.3507 0.98828 0.0
H1985 H 0.06359 0.42343 0.95395 0.0
H1986 H 0.05336 0.44956 0.93905 0.0
H1987 H 0.05659 0.4216 0.91974 0.0
H1988 H 0.01176 0.41674 0.9001 0.0
H1989 H 0.00845 0.44462 0.91932 0.0
H1990 H 0.98811 0.41512 0.92092 0.0
H1991 H 0.99969 0.38864 0.01461 0.0
H1992 H 0.99257 0.43003 0.03225 0.0
H1993 H 0.01704 0.46461 0.96534 0.0
C1994 C 0.0232 0.36968 0.922 0.0
C1995 C 0.01732 0.34376 0.92648 0.0
C1996 C 0.01084 0.33723 0.95074 0.0
C1997 C 0.00967 0.35594 0.97005 0.0
C1998 C 0.01509 0.38123 0.96495 0.0
C1999 C 0.02178 0.38826 0.94161 0.0
C2000 C 0.02464 0.41685 0.94069 0.0
C2001 C 0.05112 0.42855 0.93821 0.0
C2002 C 0.0072 0.42373 0.91897 0.0
C2003 C 0.01756 0.42452 0.96674 0.0
C2004 C 0.01252 0.4036 0.98048 0.0
C2005 C 0.00394 0.40525 0.00425 0.0
C2006 C 0.99989 0.42881 0.01409 0.0
C2007 C 0.00442 0.45042 1.00024 0.0
C2008 C 0.0139 0.44841 0.9765 0.0
H2009 H 0.89567 0.74043 0.18073 0.0
H2010 H 0.95154 0.80276 0.21503 0.0
H2011 H 0.92184 0.81837 0.24055 0.0
H2012 H 0.84574 0.77482 0.17682 0.0
H2013 H 0.82398 0.74874 0.18508 0.0
H2014 H 0.84954 0.74261 0.16919 0.0
H2015 H 0.86168 0.71573 0.20575 0.0
H2016 H 0.83616 0.72209 0.22162 0.0
H2017 H 0.8664 0.72967 0.23826 0.0
H2018 H 0.88639 0.82773 0.26201 0.0
H2019 H 0.84774 0.82919 0.27986 0.0
H2020 H 0.81413 0.76062 0.23266 0.0
C2021 C 0.90168 0.75735 0.19363 0.0
C2022 C 0.92605 0.77038 0.19577 0.0
C2023 C 0.93309 0.79238 0.21301 0.0
C2024 C 0.9163 0.80146 0.22756 0.0
C2025 C 0.89246 0.78831 0.22486 0.0
C2026 C 0.88513 0.76662 0.2085 0.0
C2027 C 0.85846 0.75586 0.20972 0.0
C2028 C 0.84355 0.75551 0.18364 0.0
C2029 C 0.85551 0.72926 0.21942 0.0
C2030 C 0.85193 0.77505 0.22915 0.0
C2031 C 0.87189 0.7936 0.23755 0.0
C2032 C 0.87066 0.8133 0.25562 0.0
C2033 C 0.84859 0.81396 0.26564 0.0
C2034 C 0.82792 0.79505 0.2577 0.0
C2035 C 0.8296 0.77542 0.23902 0.0
H2036 H 0.51678 0.39417 0.10974 0.0
H2037 H 0.53797 0.34444 0.05123 0.0
H2038 H 0.54658 0.38054 0.02486 0.0
H2039 H 0.48394 0.42516 0.06864 0.0
H2040 H 0.49168 0.45588 0.08624 0.0
H2041 H 0.49215 0.42775 0.10272 0.0
H2042 H 0.53719 0.4443 0.12103 0.0
H2043 H 0.53636 0.47264 0.10479 0.0
H2044 H 0.55934 0.4538 0.0995 0.0
H2045 H 0.54813 0.42061 0.00284 0.0
H2046 H 0.54011 0.46076 0.98604 0.0
H2047 H 0.51541 0.48273 0.05805 0.0
C2048 C 0.52398 0.39107 0.09175 0.0
C2049 C 0.52697 0.36669 0.08257 0.0
C2050 C 0.53568 0.3631 0.05859 0.0
C2051 C 0.54077 0.38349 0.04359 0.0
C2052 C 0.537 0.40724 0.05288 0.0
C2053 C 0.52877 0.4111 0.07643 0.0
C2054 C 0.52297 0.43744 0.08056 0.0
C2055 C 0.4961 0.43648 0.08477 0.0
C2056 C 0.54 0.45295 0.10278 0.0
C2057 C 0.52828 0.4474 0.05528 0.0
C2058 C 0.53698 0.43003 0.0398 0.0
C2059 C 0.5417 0.43454 0.01492 0.0
C2060 C 0.53706 0.45728 0.00552 0.0
C2061 C 0.52736 0.47477 0.02089 0.0
C2062 C 0.52328 0.46988 0.04611 0.0
H2063 H 0.9304 0.23644 0.39034 0.0
H2064 H 0.98259 0.28995 0.3568 0.0
H2065 H 0.94963 0.29941 0.32659 0.0
H2066 H 0.89114 0.21288 0.33096 0.0
H2067 H 0.86382 0.21048 0.3465 0.0
H2068 H 0.89188 0.20649 0.36409 0.0
H2069 H 0.88731 0.24211 0.39804 0.0
H2070 H 0.85939 0.24625 0.38037 0.0
H2071 H 0.88385 0.27289 0.38807 0.0
H2072 H 0.91083 0.30449 0.30126 0.0
H2073 H 0.86856 0.30524 0.28328 0.0
H2074 H 0.842 0.24922 0.33402 0.0
C2075 C 0.93495 0.24992 0.37645 0.0
C2076 C 0.95905 0.26241 0.3759 0.0
C2077 C 0.96422 0.28014 0.35759 0.0
C2078 C 0.94565 0.2856 0.34029 0.0
C2079 C 0.92205 0.27315 0.34151 0.0
C2080 C 0.91663 0.25566 0.35909 0.0
C2081 C 0.88962 0.24585 0.35723 0.0
C2082 C 0.88378 0.21723 0.34921 0.0
C2083 C 0.87946 0.25217 0.38242 0.0
C2084 C 0.88069 0.26092 0.33621 0.0
C2085 C 0.89967 0.27634 0.32717 0.0
C2086 C 0.8958 0.29239 0.30806 0.0
C2087 C 0.87182 0.29274 0.29802 0.0
C2088 C 0.85221 0.27727 0.3073 0.0
C2089 C 0.85674 0.26114 0.32652 0.0
H2090 H 0.01165 0.71861 0.55702 0.0
H2091 H 0.93339 0.71197 0.54205 0.0
H2092 H 0.93059 0.66791 0.52343 0.0
H2093 H 0.02013 0.67912 0.49967 0.0
H2094 H 0.04351 0.66566 0.5169 0.0
H2095 H 0.03948 0.69749 0.52605 0.0
H2096 H 0.03464 0.68548 0.57226 0.0
H2097 H 0.03863 0.65371 0.56326 0.0
H2098 H 0.01183 0.65896 0.57742 0.0
H2099 H 0.93602 0.62322 0.51183 0.0
H2100 H 0.94924 0.58174 0.50709 0.0
H2101 H 0.02407 0.61851 0.52862 0.0
C2102 C 0.99392 0.70808 0.54944 0.0
C2103 C 0.97271 0.71864 0.55099 0.0
C2104 C 0.94988 0.70423 0.54094 0.0
C2105 C 0.94813 0.67924 0.5303 0.0
C2106 C 0.96941 0.66924 0.52958 0.0
C2107 C 0.9919 0.68333 0.53867 0.0
C2108 C 0.01185 0.66777 0.53741 0.0
C2109 C 0.0298 0.67813 0.5189 0.0
C2110 C 0.02499 0.6664 0.56417 0.0
C2111 C 0.99701 0.64242 0.52697 0.0
C2112 C 0.97259 0.64366 0.52238 0.0
C2113 C 0.95513 0.62212 0.51485 0.0
C2114 C 0.9628 0.59866 0.51232 0.0
C2115 C 0.9877 0.59703 0.51726 0.0
C2116 C 0.00499 0.61927 0.52414 0.0
H2117 H 0.59958 0.80883 0.86999 0.0
H2118 H 0.56907 0.72903 0.87034 0.0
H2119 H 0.59579 0.71833 0.83842 0.0
H2120 H 0.60806 0.80859 0.80276 0.0
H2121 H 0.63665 0.83016 0.80836 0.0
H2122 H 0.61396 0.83186 0.82988 0.0
H2123 H 0.64473 0.82657 0.86806 0.0
H2124 H 0.66777 0.8248 0.84706 0.0
H2125 H 0.65997 0.79961 0.86721 0.0
H2126 H 0.62641 0.71626 0.80735 0.0
H2127 H 0.66197 0.7226 0.78289 0.0
H2128 H 0.67331 0.80339 0.80431 0.0
C2129 C 0.5984 0.78914 0.86318 0.0
C2130 C 0.58225 0.76977 0.87246 0.0
C2131 C 0.58143 0.74416 0.86347 0.0
C2132 C 0.59636 0.73791 0.8452 0.0
C2133 C 0.61203 0.75749 0.83633 0.0
C2134 C 0.61337 0.78255 0.84523 0.0
C2135 C 0.63307 0.79979 0.83415 0.0
C2136 C 0.62229 0.81871 0.81782 0.0
C2137 C 0.65253 0.81349 0.85537 0.0
C2138 C 0.64278 0.78048 0.81782 0.0
C2139 C 0.63015 0.75624 0.81899 0.0
C2140 C 0.63637 0.73516 0.80615 0.0
C2141 C 0.65649 0.73893 0.79228 0.0
C2142 C 0.67014 0.7635 0.79175 0.0
C2143 C 0.66292 0.7845 0.80425 0.0
H2144 H 0.417 0.54159 0.67639 0.0
H2145 H 0.43064 0.62385 0.68673 0.0
H2146 H 0.45894 0.62539 0.65378 0.0
H2147 H 0.4784 0.53458 0.66695 0.0
H2148 H 0.46911 0.50822 0.64306 0.0
H2149 H 0.44993 0.51345 0.66756 0.0
H2150 H 0.41413 0.51464 0.63297 0.0
H2151 H 0.43311 0.50925 0.60837 0.0
H2152 H 0.41821 0.53643 0.60858 0.0
H2153 H 0.48403 0.61806 0.61813 0.0
H2154 H 0.50411 0.60226 0.58234 0.0
H2155 H 0.4761 0.52484 0.59706 0.0
C2156 C 0.42591 0.55993 0.67171 0.0
C2157 C 0.42156 0.58262 0.68411 0.0
C2158 C 0.43369 0.60622 0.67751 0.0
C2159 C 0.44984 0.6073 0.65885 0.0
C2160 C 0.45385 0.5846 0.64713 0.0
C2161 C 0.44228 0.56136 0.65331 0.0
C2162 C 0.44959 0.5398 0.63765 0.0
C2163 C 0.46253 0.52303 0.65484 0.0
C2164 C 0.42745 0.52411 0.6209 0.0
C2165 C 0.46697 0.55456 0.62161 0.0
C2166 C 0.46909 0.58038 0.62728 0.0
C2167 C 0.48279 0.59787 0.61374 0.0
C2168 C 0.49418 0.58873 0.59349 0.0
C2169 C 0.492 0.56233 0.58715 0.0
C2170 C 0.47868 0.54511 0.60187 0.0
H2171 H 0.77298 0.1736 0.90231 0.0
H2172 H 0.80882 0.2312 0.96187 0.0
H2173 H 0.80661 0.26406 0.9317 0.0
H2174 H 0.80213 0.20104 0.85032 0.0
H2175 H 0.77548 0.19277 0.8274 0.0
H2176 H 0.77962 0.1736 0.85365 0.0
H2177 H 0.73775 0.17976 0.86693 0.0
H2178 H 0.73368 0.19908 0.84078 0.0
H2179 H 0.73168 0.2114 0.87294 0.0
H2180 H 0.80197 0.29065 0.89504 0.0
H2181 H 0.79455 0.30945 0.8543 0.0
H2182 H 0.7609 0.23545 0.8181 0.0
C2183 C 0.78035 0.19313 0.90904 0.0
C2184 C 0.79113 0.19973 0.93461 0.0
C2185 C 0.80048 0.22556 0.94251 0.0
C2186 C 0.79929 0.24441 0.92547 0.0
C2187 C 0.78857 0.23729 0.90052 0.0
C2188 C 0.77919 0.21229 0.89225 0.0
C2189 C 0.76878 0.20987 0.86425 0.0
C2190 C 0.78232 0.19334 0.84795 0.0
C2191 C 0.74134 0.19941 0.86105 0.0
C2192 C 0.7739 0.23741 0.85814 0.0
C2193 C 0.78538 0.25282 0.87937 0.0
C2194 C 0.79279 0.27879 0.87837 0.0
C2195 C 0.78849 0.2893 0.8551 0.0
C2196 C 0.77667 0.27403 0.83303 0.0
C2197 C 0.76924 0.24772 0.83469 0.0
H2198 H 0.09389 0.48505 0.19985 0.0
H2199 H 0.02624 0.46378 0.23256 0.0
H2200 H 0.00324 0.46744 0.19115 0.0
H2201 H 0.07442 0.53141 0.16197 0.0
H2202 H 0.09041 0.52404 0.13528 0.0
H2203 H 0.10175 0.51817 0.16702 0.0
H2204 H 0.10092 0.47112 0.15185 0.0
H2205 H 0.08966 0.47689 0.12002 0.0
H2206 H 0.07309 0.45224 0.13626 0.0
H2207 H 0.98739 0.47585 0.14697 0.0
H2208 H 0.97989 0.48729 0.10277 0.0
H2209 H 0.05766 0.50274 0.09826 0.0
C2210 C 0.07424 0.48079 0.19821 0.0
C2211 C 0.06191 0.47403 0.21955 0.0
C2212 C 0.03616 0.46893 0.21658 0.0
C2213 C 0.02289 0.47096 0.19309 0.0
C2214 C 0.03556 0.47803 0.1726 0.0
C2215 C 0.06066 0.48272 0.17484 0.0
C2216 C 0.06978 0.49081 0.15001 0.0
C2217 C 0.08498 0.5177 0.15381 0.0
C2218 C 0.08421 0.47161 0.13888 0.0
C2219 C 0.04589 0.49022 0.13362 0.0
C2220 C 0.02639 0.48275 0.14702 0.0
C2221 C 1.00252 0.48154 0.13622 0.0
C2222 C 0.99845 0.48815 0.11107 0.0
C2223 C 0.01813 0.49587 0.09689 0.0
C2224 C 0.04216 0.49674 0.10842 0.0
H2225 H 0.7505 0.88567 0.46896 0.0
H2226 H 0.79712 0.84213 0.51096 0.0
H2227 H 0.79688 0.81424 0.47175 0.0
H2228 H 0.7142 0.832 0.42814 0.0
H2229 H 0.71206 0.8502 0.4008 0.0
H2230 H 0.71454 0.86565 0.43254 0.0
H2231 H 0.75239 0.89704 0.42317 0.0
H2232 H 0.74995 0.8818 0.39142 0.0
H2233 H 0.77789 0.88481 0.41225 0.0
H2234 H 0.79403 0.79329 0.42741 0.0
H2235 H 0.78892 0.78089 0.381 0.0
H2236 H 0.74334 0.83753 0.36852 0.0
C2237 C 0.76054 0.87017 0.47 0.0
C2238 C 0.7739 0.86608 0.49297 0.0
C2239 C 0.78676 0.84558 0.49354 0.0
C2240 C 0.78666 0.82961 0.47141 0.0
C2241 C 0.77339 0.83427 0.44904 0.0
C2242 C 0.76047 0.85398 0.44821 0.0
C2243 C 0.74851 0.85562 0.42157 0.0
C2244 C 0.72068 0.85056 0.42073 0.0
C2245 C 0.75775 0.88134 0.41152 0.0
C2246 C 0.75731 0.8342 0.40736 0.0
C2247 C 0.77145 0.82197 0.42357 0.0
C2248 C 0.78273 0.80249 0.41458 0.0
C2249 C 0.77975 0.7956 0.38826 0.0
C2250 C 0.76566 0.80821 0.37139 0.0
C2251 C 0.75397 0.8274 0.38111 0.0
H2252 H 0.41465 0.57781 0.81794 0.0
H2253 H 0.44129 0.51738 0.77662 0.0
H2254 H 0.46411 0.50886 0.81626 0.0
H2255 H 0.47138 0.59951 0.86221 0.0
H2256 H 0.45503 0.60615 0.88882 0.0
H2257 H 0.44229 0.60929 0.85673 0.0
H2258 H 0.40327 0.57842 0.86372 0.0
H2259 H 0.41595 0.57502 0.8957 0.0
H2260 H 0.40564 0.54735 0.87359 0.0
H2261 H 0.47998 0.50328 0.86008 0.0
H2262 H 0.49165 0.50349 0.90626 0.0
H2263 H 0.45706 0.56872 0.92025 0.0
C2264 C 0.42566 0.56313 0.81717 0.0
C2265 C 0.42611 0.54821 0.79415 0.0
C2266 C 0.44061 0.52905 0.79397 0.0
C2267 C 0.45367 0.52405 0.8164 0.0
C2268 C 0.45234 0.53857 0.83884 0.0
C2269 C 0.43908 0.558 0.83946 0.0
C2270 C 0.44023 0.57005 0.86651 0.0
C2271 C 0.453 0.5979 0.86869 0.0
C2272 C 0.41476 0.56755 0.87539 0.0
C2273 C 0.45559 0.5538 0.88096 0.0
C2274 C 0.46232 0.5358 0.86449 0.0
C2275 C 0.47522 0.51753 0.87317 0.0
C2276 C 0.48162 0.51771 0.89942 0.0
C2277 C 0.47532 0.53617 0.91667 0.0
C2278 C 0.46227 0.55457 0.90735 0.0
H2279 H 0.75215 0.20628 0.07449 0.0
H2280 H 0.82895 0.20218 0.08464 0.0
H2281 H 0.83164 0.22072 0.12916 0.0
H2282 H 0.75629 0.26592 0.11293 0.0
H2283 H 0.72812 0.25615 0.12605 0.0
H2284 H 0.73231 0.24329 0.09474 0.0
H2285 H 0.72223 0.19778 0.10884 0.0
H2286 H 0.71802 0.2105 0.14018 0.0
H2287 H 0.73935 0.18927 0.13666 0.0
H2288 H 0.82577 0.23831 0.17289 0.0
H2289 H 0.81228 0.25415 0.21271 0.0
H2290 H 0.73894 0.24727 0.17479 0.0
C2291 C 0.76962 0.20945 0.08597 0.0
C2292 C 0.79041 0.20279 0.07591 0.0
C2293 C 0.8128 0.20713 0.09177 0.0
C2294 C 0.8145 0.21767 0.11712 0.0
C2295 C 0.79364 0.22382 0.12642 0.0
C2296 C 0.77163 0.21994 0.11134 0.0
C2297 C 0.75187 0.22777 0.12622 0.0
C2298 C 0.74154 0.24958 0.11427 0.0
C2299 C 0.73168 0.20497 0.12808 0.0
C2300 C 0.7662 0.23658 0.15211 0.0
C2301 C 0.79026 0.23412 0.15171 0.0
C2302 C 0.80701 0.24045 0.17334 0.0
C2303 C 0.79907 0.24947 0.19597 0.0
C2304 C 0.77447 0.2522 0.19708 0.0
C2305 C 0.75788 0.24569 0.17466 0.0
H2306 H 0.10852 0.5003 0.38772 0.0
H2307 H 0.05596 0.50288 0.3223 0.0
H2308 H 0.02705 0.51461 0.35122 0.0
H2309 H 0.06561 0.47228 0.42784 0.0
H2310 H 0.08085 0.48997 0.45681 0.0
H2311 H 0.098 0.48311 0.43099 0.0
H2312 H 0.11485 0.53109 0.43063 0.0
H2313 H 0.09756 0.53808 0.45634 0.0
H2314 H 0.09398 0.553 0.42697 0.0
H2315 H 0.00352 0.52564 0.38707 0.0
H2316 H 0.98576 0.5316 0.42752 0.0
H2317 H 0.05281 0.52068 0.46998 0.0
C2318 C 0.09097 0.50344 0.37945 0.0
C2319 C 0.08459 0.50072 0.35263 0.0
C2320 C 0.06133 0.5048 0.3427 0.0
C2321 C 0.0448 0.51162 0.35899 0.0
C2322 C 0.05168 0.51424 0.38526 0.0
C2323 C 0.07414 0.5101 0.39549 0.0
C2324 C 0.0765 0.51302 0.42451 0.0
C2325 C 0.08047 0.48811 0.43569 0.0
C2326 C 0.09693 0.53511 0.43524 0.0
C2327 C 0.05176 0.5191 0.42893 0.0
C2328 C 0.03787 0.52007 0.40602 0.0
C2329 C 0.01424 0.52496 0.40513 0.0
C2330 C 0.00431 0.52839 0.4282 0.0
C2331 C 0.01789 0.52665 0.45188 0.0
C2332 C 0.04206 0.52233 0.45218 0.0
H2333 H 0.76329 0.86469 0.59596 0.0
H2334 H 0.68767 0.87314 0.59294 0.0
H2335 H 0.68056 0.8396 0.62273 0.0
H2336 H 0.75324 0.79562 0.60017 0.0
H2337 H 0.78059 0.79751 0.62168 0.0
H2338 H 0.77893 0.8203 0.5983 0.0
H2339 H 0.79021 0.85715 0.63415 0.0
H2340 H 0.79226 0.83449 0.65744 0.0
H2341 H 0.7724 0.8573 0.66072 0.0
H2342 H 0.68333 0.80896 0.65685 0.0
H2343 H 0.6959 0.78515 0.69278 0.0
H2344 H 0.76909 0.7954 0.67083 0.0
C2345 C 0.74515 0.85937 0.60135 0.0
C2346 C 0.72605 0.87157 0.59228 0.0
C2347 C 0.70256 0.86399 0.5997 0.0
C2348 C 0.69834 0.84489 0.61648 0.0
C2349 C 0.71769 0.83333 0.62518 0.0
C2350 C 0.74059 0.84024 0.61771 0.0
C2351 C 0.75874 0.82626 0.63091 0.0
C2352 C 0.76844 0.80889 0.61161 0.0
C2353 C 0.77961 0.84491 0.64675 0.0
C2354 C 0.74273 0.81103 0.64777 0.0
C2355 C 0.71905 0.8151 0.64407 0.0
C2356 C 0.70168 0.80517 0.65952 0.0
C2357 C 0.70898 0.79159 0.67985 0.0
C2358 C 0.73344 0.78819 0.68453 0.0
C2359 C 0.75014 0.79715 0.66753 0.0
H2360 H 0.62027 0.42048 0.5328 0.0
H2361 H 0.68576 0.46981 0.51714 0.0
H2362 H 0.66342 0.50555 0.51525 0.0
H2363 H 0.5783 0.44778 0.49103 0.0
H2364 H 0.55478 0.44472 0.51203 0.0
H2365 H 0.57578 0.42282 0.51233 0.0
H2366 H 0.5871 0.43404 0.5609 0.0
H2367 H 0.56639 0.45623 0.56068 0.0
H2368 H 0.59784 0.46666 0.57288 0.0
H2369 H 0.63397 0.53581 0.51369 0.0
H2370 H 0.59952 0.5588 0.51315 0.0
H2371 H 0.55269 0.4909 0.53057 0.0
C2372 C 0.62996 0.43881 0.52903 0.0
C2373 C 0.65496 0.4422 0.52514 0.0
C2374 C 0.66676 0.46657 0.52021 0.0
C2375 C 0.65418 0.48706 0.5191 0.0
C2376 C 0.62968 0.48307 0.52301 0.0
C2377 C 0.61763 0.45957 0.52789 0.0
C2378 C 0.59111 0.46052 0.53113 0.0
C2379 C 0.57399 0.44291 0.51039 0.0
C2380 C 0.58528 0.45397 0.558 0.0
C2381 C 0.59025 0.48824 0.52746 0.0
C2382 C 0.61272 0.50078 0.52266 0.0
C2383 C 0.61639 0.52621 0.51767 0.0
C2384 C 0.59666 0.53914 0.51742 0.0
C2385 C 0.57342 0.52689 0.52237 0.0
C2386 C 0.57028 0.50105 0.52755 0.0
H2387 H 0.20584 0.08175 0.51987 0.0
H2388 H 0.20134 0.10539 0.44279 0.0
H2389 H 0.15799 0.08557 0.43589 0.0
H2390 H 0.16071 0.0211 0.50648 0.0
H2391 H 0.14893 0.02578 0.53661 0.0
H2392 H 0.18047 0.03737 0.53369 0.0
H2393 H 0.17531 0.08243 0.55036 0.0
H2394 H 0.1438 0.07109 0.5531 0.0
H2395 H 0.15229 0.09719 0.53416 0.0
H2396 H 0.11424 0.0691 0.43965 0.0
H2397 H 0.0736 0.057 0.45357 0.0
H2398 H 0.10688 0.04468 0.52844 0.0
C2399 C 0.19598 0.08208 0.50124 0.0
C2400 C 0.20697 0.095 0.48182 0.0
C2401 C 0.19329 0.09547 0.4579 0.0
C2402 C 0.16868 0.0842 0.45378 0.0
C2403 C 0.15816 0.07243 0.47371 0.0
C2404 C 0.17144 0.0711 0.4969 0.0
C2405 C 0.15537 0.05999 0.51616 0.0
C2406 C 0.16175 0.03454 0.52367 0.0
C2407 C 0.15678 0.0788 0.53982 0.0
C2408 C 0.13083 0.05627 0.50053 0.0
C2409 C 0.13283 0.06313 0.47597 0.0
C2410 C 0.11246 0.06322 0.45868 0.0
C2411 C 0.08944 0.05642 0.46682 0.0
C2412 C 0.08702 0.04986 0.49211 0.0
C2413 C 0.10806 0.04934 0.50892 0.0
H2414 H 0.16698 0.90838 0.7735 0.0
H2415 H 0.21705 0.96751 0.82129 0.0
H2416 H 0.24928 0.94172 0.81963 0.0
H2417 H 0.18988 0.85507 0.80104 0.0
H2418 H 0.1859 0.83618 0.77096 0.0
H2419 H 0.16616 0.85861 0.77663 0.0
H2420 H 0.17743 0.87985 0.73594 0.0
H2421 H 0.19748 0.85778 0.73012 0.0
H2422 H 0.2089 0.89139 0.73256 0.0
H2423 H 0.27627 0.91047 0.81218 0.0
H2424 H 0.29634 0.8747 0.80033 0.0
H2425 H 0.22948 0.83599 0.75683 0.0
C2426 C 0.18464 0.91579 0.78386 0.0
C2427 C 0.18948 0.94 0.79756 0.0
C2428 C 0.2129 0.94905 0.81068 0.0
C2429 C 0.23134 0.93456 0.80983 0.0
C2430 C 0.22611 0.91106 0.79577 0.0
C2431 C 0.20333 0.90158 0.78314 0.0
C2432 C 0.20273 0.8758 0.76917 0.0
C2433 C 0.18512 0.8552 0.78011 0.0
C2434 C 0.19626 0.87626 0.74023 0.0
C2435 C 0.22887 0.87261 0.77554 0.0
C2436 C 0.24192 0.89309 0.79107 0.0
C2437 C 0.26627 0.89436 0.79995 0.0
C2438 C 0.27751 0.87398 0.79302 0.0
C2439 C 0.2645 0.85267 0.77728 0.0
C2440 C 0.23994 0.85215 0.7683 0.0
H2441 H 0.31158 0.90939 0.00292 0.0
H2442 H 0.28374 0.96718 0.0467 0.0
H2443 H 0.32302 0.99625 0.04729 0.0
H2444 H 0.3722 0.92208 0.03384 0.0
H2445 H 0.38594 0.91656 0.00505 0.0
H2446 H 0.35563 0.90054 0.00793 0.0
H2447 H 0.33976 0.9184 0.96637 0.0
H2448 H 0.37005 0.93448 0.96335 0.0
H2449 H 0.34551 0.95215 0.96384 0.0
H2450 H 0.36617 0.01809 0.04494 0.0
H2451 H 0.40906 0.03195 0.03784 0.0
H2452 H 0.40789 0.96064 0.99369 0.0
C2453 C 0.31371 0.92816 0.01264 0.0
C2454 C 0.29463 0.93599 0.02491 0.0
C2455 C 0.2981 0.9608 0.03718 0.0
C2456 C 0.32035 0.97741 0.03764 0.0
C2457 C 0.33882 0.96902 0.02546 0.0
C2458 C 0.33564 0.94505 0.01299 0.0
C2459 C 0.35825 0.9407 1.00119 0.0
C2460 C 0.36861 0.91866 0.0127 0.0
C2461 C 0.35308 0.93617 0.97195 0.0
C2462 C 0.37481 0.96587 0.00921 0.0
C2463 C 0.36329 0.9819 0.02331 0.0
C2464 C 0.37526 0.0058 0.0337 0.0
C2465 C 0.39959 0.0135 0.02959 0.0
C2466 C 0.41162 0.99746 0.01501 0.0
C2467 C 0.399 0.97341 0.0046 0.0
H2468 H 0.85056 0.64195 0.71511 0.0
H2469 H 0.86512 0.62756 0.79463 0.0
H2470 H 0.84062 0.6593 0.80712 0.0
H2471 H 0.85211 0.71051 0.72715 0.0
H2472 H 0.82794 0.71104 0.70215 0.0
H2473 H 0.84776 0.6881 0.6994 0.0
H2474 H 0.81022 0.65192 0.6934 0.0
H2475 H 0.79047 0.67485 0.6963 0.0
H2476 H 0.78924 0.64956 0.71718 0.0
H2477 H 0.81206 0.68968 0.81096 0.0
H2478 H 0.78249 0.71854 0.80607 0.0
H2479 H 0.78762 0.71601 0.72458 0.0
C2480 C 0.8488 0.64565 0.73518 0.0
C2481 C 0.85984 0.63215 0.75387 0.0
C2482 C 0.85696 0.63758 0.77991 0.0
C2483 C 0.84305 0.65562 0.78723 0.0
C2484 C 0.83223 0.66834 0.76836 0.0
C2485 C 0.83506 0.6638 0.74289 0.0
C2486 C 0.82098 0.67985 0.72648 0.0
C2487 C 0.83824 0.69847 0.71298 0.0
C2488 C 0.80157 0.66304 0.70721 0.0
C2489 C 0.80948 0.69376 0.74669 0.0
C2490 C 0.81624 0.6867 0.7707 0.0
C2491 C 0.80693 0.69562 0.79231 0.0
C2492 C 0.79012 0.71199 0.78933 0.0
C2493 C 0.78305 0.71973 0.76503 0.0
C2494 C 0.7931 0.71075 0.74344 0.0
H2495 H 0.84246 0.61325 0.04716 0.0
H2496 H 0.79551 0.57037 0.98323 0.0
H2497 H 0.82081 0.53696 0.98455 0.0
H2498 H 0.89567 0.60353 0.02533 0.0
H2499 H 0.9118 0.60147 0.05616 0.0
H2500 H 0.88745 0.61925 0.05357 0.0
H2501 H 0.86571 0.5923 0.08627 0.0
H2502 H 0.89009 0.57438 0.08892 0.0
H2503 H 0.85921 0.55824 0.08051 0.0
H2504 H 0.85377 0.51119 0.98922 0.0
H2505 H 0.89331 0.49666 0.99501 0.0
H2506 H 0.9192 0.55724 0.05481 0.0
C2507 C 0.8371 0.59645 0.03396 0.0
C2508 C 0.81698 0.59417 0.01527 0.0
C2509 C 0.81088 0.57235 0.99776 0.0
C2510 C 0.82501 0.55322 0.99849 0.0
C2511 C 0.84513 0.55631 0.01681 0.0
C2512 C 0.85121 0.57743 0.0342 0.0
C2513 C 0.87544 0.57795 0.04963 0.0
C2514 C 0.89365 0.60196 0.04593 0.0
C2515 C 0.87242 0.57556 0.07802 0.0
C2516 C 0.88249 0.55437 0.03752 0.0
C2517 C 0.86454 0.54178 0.01906 0.0
C2518 C 0.86779 0.5206 0.00393 0.0
C2519 C 0.89024 0.51249 0.00732 0.0
C2520 C 0.90907 0.52585 0.02539 0.0
C2521 C 0.90491 0.54657 0.04107 0.0
H2522 H 0.17667 0.11022 0.82856 0.0
H2523 H 0.20214 0.06477 0.76927 0.0
H2524 H 0.22439 0.10354 0.75433 0.0
H2525 H 0.16765 0.16166 0.79185 0.0
H2526 H 0.17834 0.18596 0.81758 0.0
H2527 H 0.16495 0.1546 0.82444 0.0
H2528 H 0.20363 0.15167 0.85435 0.0
H2529 H 0.2171 0.1831 0.84766 0.0
H2530 H 0.2328 0.15694 0.84227 0.0
H2531 H 0.24143 0.14703 0.74368 0.0
H2532 H 0.25484 0.19273 0.74009 0.0
H2533 H 0.22033 0.21037 0.80738 0.0
C2534 C 0.1871 0.10841 0.81259 0.0
C2535 C 0.1876 0.08439 0.8001 0.0
C2536 C 0.20149 0.08289 0.77924 0.0
C2537 C 0.21418 0.10483 0.77054 0.0
C2538 C 0.21307 0.12818 0.78304 0.0
C2539 C 0.20014 0.13016 0.80379 0.0
C2540 C 0.20192 0.15769 0.81364 0.0
C2541 C 0.17671 0.16542 0.81175 0.0
C2542 C 0.21462 0.16263 0.84111 0.0
C2543 C 0.21758 0.1708 0.79496 0.0
C2544 C 0.22367 0.15338 0.77739 0.0
C2545 C 0.23703 0.16086 0.7575 0.0
C2546 C 0.24447 0.18685 0.75555 0.0
C2547 C 0.23878 0.20505 0.77355 0.0
C2548 C 0.22525 0.19685 0.79357 0.0
H2549 H 0.34569 0.9797 0.20879 0.0
H2550 H 0.34125 0.01947 0.28192 0.0
H2551 H 0.31561 0.98135 0.2946 0.0
H2552 H 0.28398 0.94046 0.20121 0.0
H2553 H 0.29441 0.9131 0.18769 0.0
H2554 H 0.30958 0.9445 0.18291 0.0
H2555 H 0.35052 0.93357 0.20187 0.0
H2556 H 0.33545 0.90222 0.20672 0.0
H2557 H 0.35293 0.92222 0.23323 0.0
H2558 H 0.29274 0.93824 0.30054 0.0
H2559 H 0.27654 0.89239 0.30026 0.0
H2560 H 0.29749 0.88004 0.22422 0.0
C2561 C 0.33881 0.98053 0.22721 0.0
C2562 C 0.3452 0.00259 0.24428 0.0
C2563 C 0.33647 0.00277 0.26853 0.0
C2564 C 0.3218 0.98126 0.27585 0.0
C2565 C 0.31615 0.95965 0.25878 0.0
C2566 C 0.32445 0.95906 0.23499 0.0
C2567 C 0.3177 0.93272 0.22127 0.0
C2568 C 0.30038 0.9327 0.19682 0.0
C2569 C 0.34051 0.92206 0.21545 0.0
C2570 C 0.30483 0.91852 0.24128 0.0
C2571 C 0.30372 0.93449 0.26258 0.0
C2572 C 0.29334 0.92557 0.2839 0.0
C2573 C 0.28418 0.89955 0.28358 0.0
C2574 C 0.28583 0.88281 0.26227 0.0
C2575 C 0.29598 0.8925 0.24076 0.0
H2576 H 0.52708 0.36236 0.6428 0.0
H2577 H 0.47989 0.30377 0.59168 0.0
H2578 H 0.4759 0.3348 0.55972 0.0
H2579 H 0.49539 0.41234 0.62914 0.0
H2580 H 0.52228 0.43629 0.63079 0.0
H2581 H 0.52253 0.40916 0.649 0.0
H2582 H 0.55976 0.39878 0.62775 0.0
H2583 H 0.55956 0.4259 0.60943 0.0
H2584 H 0.55803 0.39489 0.59341 0.0
H2585 H 0.47582 0.37278 0.53389 0.0
H2586 H 0.47915 0.41488 0.51674 0.0
H2587 H 0.52621 0.44848 0.58478 0.0
C2588 C 0.51603 0.35596 0.62483 0.0
C2589 C 0.50381 0.33056 0.61978 0.0
C2590 C 0.48946 0.32308 0.59601 0.0
C2591 C 0.48712 0.34057 0.5777 0.0
C2592 C 0.49931 0.36547 0.58335 0.0
C2593 C 0.51353 0.37315 0.60633 0.0
C2594 C 0.52414 0.40118 0.60802 0.0
C2595 C 0.51556 0.41558 0.63057 0.0
C2596 C 0.55203 0.40542 0.60976 0.0
C2597 C 0.51327 0.40819 0.58266 0.0
C2598 C 0.49919 0.38729 0.56857 0.0
C2599 C 0.48691 0.38923 0.5447 0.0
C2600 C 0.48889 0.41319 0.53511 0.0
C2601 C 0.50294 0.43485 0.54944 0.0
C2602 C 0.51542 0.4322 0.57338 0.0
H2603 H 0.45026 0.81207 0.3257 0.0
H2604 H 0.45846 0.73567 0.30034 0.0
H2605 H 0.41618 0.72704 0.28039 0.0
H2606 H 0.38944 0.79597 0.34101 0.0
H2607 H 0.3796 0.82392 0.32972 0.0
H2608 H 0.41105 0.82493 0.34116 0.0
H2609 H 0.42373 0.84042 0.29826 0.0
H2610 H 0.3923 0.83948 0.28671 0.0
H2611 H 0.41077 0.82213 0.26878 0.0
H2612 H 0.37243 0.72514 0.26573 0.0
H2613 H 0.33005 0.73091 0.25553 0.0
H2614 H 0.34922 0.80886 0.28836 0.0
C2615 C 0.44325 0.79365 0.31567 0.0
C2616 C 0.45789 0.77458 0.31465 0.0
C2617 C 0.44781 0.75066 0.30147 0.0
C2618 C 0.42373 0.74552 0.29002 0.0
C2619 C 0.40974 0.7645 0.29163 0.0
C2620 C 0.41909 0.78817 0.30393 0.0
C2621 C 0.39973 0.8049 0.30323 0.0
C2622 C 0.39466 0.8129 0.3304 0.0
C2623 C 0.40708 0.82811 0.28836 0.0
C2624 C 0.37809 0.7868 0.28889 0.0
C2625 C 0.38436 0.76359 0.28249 0.0
C2626 C 0.36736 0.74333 0.27036 0.0
C2627 C 0.34329 0.74677 0.26469 0.0
C2628 C 0.33631 0.77038 0.27087 0.0
C2629 C 0.35408 0.79073 0.28295 0.0
H2630 H 0.02187 0.70863 0.08598 0.0
H2631 H 0.9699 0.682 0.13804 0.0
H2632 H 0.96731 0.63809 0.11929 0.0
H2633 H 0.99436 0.66434 0.03122 0.0
H2634 H 0.02326 0.66034 0.02107 0.0
H2635 H 0.0201 0.68981 0.03768 0.0
H2636 H 0.05553 0.68564 0.07156 0.0
H2637 H 0.05877 0.65617 0.05509 0.0
H2638 H 0.05396 0.65736 0.08835 0.0
H2639 H 0.97248 0.59687 0.09695 0.0
H2640 H 0.98423 0.56138 0.07203 0.0
H2641 H 0.03176 0.61461 0.0332 0.0
C2642 C 0.00976 0.69362 0.09332 0.0
C2643 C 0.99607 0.69882 0.11353 0.0
C2644 C 0.98054 0.67855 0.12258 0.0
C2645 C 0.97894 0.65353 0.11203 0.0
C2646 C 0.99287 0.64908 0.09234 0.0
C2647 C 0.00789 0.66856 0.08296 0.0
C2648 C 0.02144 0.65857 0.06213 0.0
C2649 C 0.01436 0.66888 0.03651 0.0
C2650 C 0.04906 0.66481 0.06975 0.0
C2651 C 0.01199 0.63035 0.06153 0.0
C2652 C 0.99547 0.62532 0.07906 0.0
C2653 C 0.98506 0.60063 0.08287 0.0
C2654 C 0.99172 0.58056 0.06844 0.0
C2655 C 0.00844 0.58521 0.05019 0.0
C2656 C 0.01865 0.61049 0.04672 0.0
H2657 H 0.08573 0.28025 0.81126 0.0
H2658 H 0.11757 0.34144 0.86878 0.0
H2659 H 0.15738 0.34256 0.85277 0.0
H2660 H 0.13655 0.24796 0.8155 0.0
H2661 H 0.134 0.23834 0.78185 0.0
H2662 H 0.10739 0.24317 0.79657 0.0
H2663 H 0.09868 0.27535 0.76396 0.0
H2664 H 0.12519 0.2705 0.74904 0.0
H2665 H 0.12196 0.30202 0.7604 0.0
H2666 H 0.194 0.33683 0.83141 0.0
H2667 H 0.22521 0.32432 0.80595 0.0
H2668 H 0.17095 0.26553 0.76309 0.0
C2669 C 0.101 0.29414 0.82017 0.0
C2670 C 0.09842 0.31091 0.8412 0.0
C2671 C 0.11901 0.32845 0.85265 0.0
C2672 C 0.14175 0.32926 0.84368 0.0
C2673 C 0.14382 0.31227 0.82326 0.0
C2674 C 0.12406 0.29501 0.8116 0.0
C2675 C 0.13166 0.27824 0.79061 0.0
C2676 C 0.12713 0.25027 0.79649 0.0
C2677 C 0.11859 0.28175 0.76445 0.0
C2678 C 0.15869 0.28879 0.79237 0.0
C2679 C 0.16523 0.30849 0.8113 0.0
C2680 C 0.18911 0.32136 0.81661 0.0
C2681 C 0.20678 0.31397 0.80217 0.0
C2682 C 0.20065 0.29369 0.78282 0.0
C2683 C 0.17622 0.28102 0.77785 0.0
H2684 H 0.51065 0.69108 0.94512 0.0
H2685 H 0.47957 0.7331 0.00261 0.0
H2686 H 0.47022 0.69413 0.02489 0.0
H2687 H 0.46834 0.62939 0.94547 0.0
H2688 H 0.49234 0.61166 0.94117 0.0
H2689 H 0.49281 0.64166 0.92764 0.0
H2690 H 0.53587 0.65805 0.95144 0.0
H2691 H 0.53547 0.6282 0.96498 0.0
H2692 H 0.54069 0.65717 0.98561 0.0
H2693 H 0.4696 0.65244 0.04378 0.0
H2694 H 0.47795 0.6114 0.05782 0.0
H2695 H 0.50945 0.59745 0.98772 0.0
C2696 C 0.50146 0.69203 0.96214 0.0
C2697 C 0.49589 0.71505 0.97225 0.0
C2698 C 0.48393 0.71557 0.99456 0.0
C2699 C 0.47845 0.69354 0.00724 0.0
C2700 C 0.48472 0.67123 0.99704 0.0
C2701 C 0.49577 0.6703 0.97484 0.0
C2702 C 0.50277 0.64475 0.96905 0.0
C2703 C 0.48819 0.63106 0.94438 0.0
C2704 C 0.53032 0.64721 0.96771 0.0
C2705 C 0.49513 0.63187 0.99219 0.0
C2706 C 0.48429 0.64719 0.00788 0.0
C2707 C 0.4776 0.64008 0.03142 0.0
C2708 C 0.4825 0.61686 0.03928 0.0
C2709 C 0.49416 0.60138 0.02369 0.0
C2710 C 0.50006 0.60875 0.99971 0.0
H2711 H 0.0969 0.82038 0.62883 0.0
H2712 H 0.04115 0.78053 0.67008 0.0
H2713 H 0.07205 0.77846 0.70602 0.0
H2714 H 0.14089 0.78483 0.64516 0.0
H2715 H 0.16628 0.81072 0.64851 0.0
H2716 H 0.13944 0.81229 0.62757 0.0
H2717 H 0.13568 0.85485 0.65178 0.0
H2718 H 0.16259 0.85338 0.67287 0.0
H2719 H 0.13469 0.85649 0.68586 0.0
H2720 H 0.10921 0.77656 0.73526 0.0
H2721 H 0.1504 0.77441 0.75534 0.0
H2722 H 0.18175 0.81557 0.69522 0.0
C2723 C 0.09112 0.81163 0.64561 0.0
C2724 C 0.06665 0.80062 0.64666 0.0
C2725 C 0.05983 0.7891 0.66885 0.0
C2726 C 0.07721 0.78795 0.68943 0.0
C2727 C 0.10125 0.79862 0.68761 0.0
C2728 C 0.10822 0.81036 0.66634 0.0
C2729 C 0.13549 0.81849 0.66831 0.0
C2730 C 0.14614 0.80581 0.64607 0.0
C2731 C 0.14251 0.84753 0.66979 0.0
C2732 C 0.1428 0.80845 0.69344 0.0
C2733 C 0.12278 0.79747 0.70452 0.0
C2734 C 0.12503 0.78544 0.72699 0.0
C2735 C 0.14843 0.78424 0.7382 0.0
C2736 C 0.16904 0.79483 0.72673 0.0
C2737 C 0.1662 0.80751 0.70442 0.0
H2738 H 0.99347 0.33652 0.47306 0.0
H2739 H 0.06924 0.34187 0.4606 0.0
H2740 H 0.07876 0.38371 0.48547 0.0
H2741 H 0.98916 0.39816 0.46389 0.0
H2742 H 0.96903 0.40173 0.48788 0.0
H2743 H 0.96921 0.37089 0.4726 0.0
H2744 H 0.97805 0.35406 0.51686 0.0
H2745 H 0.97804 0.38502 0.5323 0.0
H2746 H 0.00399 0.36974 0.53834 0.0
H2747 H 0.07868 0.42721 0.50648 0.0
H2748 H 0.06891 0.46868 0.52055 0.0
H2749 H 0.99333 0.43367 0.5201 0.0
C2750 C 0.01217 0.34624 0.47593 0.0
C2751 C 0.03062 0.33601 0.46491 0.0
C2752 C 0.05483 0.34938 0.46897 0.0
C2753 C 0.06042 0.37307 0.48317 0.0
C2754 C 0.04164 0.38282 0.49343 0.0
C2755 C 0.01803 0.36969 0.4901 0.0
C2756 C 1.00072 0.38511 0.50093 0.0
C2757 C 0.98088 0.38922 0.48008 0.0
C2758 C 0.98955 0.37274 0.52345 0.0
C2759 C 0.01807 0.40945 0.50986 0.0
C2760 C 0.04167 0.4077 0.5058 0.0
C2761 C 0.06037 0.42865 0.51026 0.0
C2762 C 0.05463 0.45215 0.51827 0.0
C2763 C 0.03034 0.45444 0.5215 0.0
C2764 C 0.01212 0.43257 0.51811 0.0
H2765 H 0.42607 0.25703 0.15673 0.0
H2766 H 0.44997 0.33632 0.14551 0.0
H2767 H 0.4212 0.34839 0.1746 0.0
H2768 H 0.36386 0.2604 0.15784 0.0
H2769 H 0.35898 0.23847 0.18187 0.0
H2770 H 0.38204 0.23593 0.16107 0.0
H2771 H 0.4146 0.23923 0.1998 0.0
H2772 H 0.39205 0.24171 0.22133 0.0
H2773 H 0.41878 0.26588 0.22344 0.0
H2774 H 0.3882 0.35141 0.20308 0.0
H2775 H 0.35378 0.3451 0.2292 0.0
H2776 H 0.35352 0.2642 0.22351 0.0
C2777 C 0.42529 0.27695 0.16037 0.0
C2778 C 0.44017 0.29574 0.14882 0.0
C2779 C 0.43869 0.3216 0.15418 0.0
C2780 C 0.42247 0.32864 0.1707 0.0
C2781 C 0.40812 0.3096 0.18186 0.0
C2782 C 0.40946 0.28431 0.17698 0.0
C2783 C 0.39174 0.26746 0.19091 0.0
C2784 C 0.37306 0.24951 0.1718 0.0
C2785 C 0.4051 0.2527 0.21 0.0
C2786 C 0.38018 0.28721 0.20446 0.0
C2787 C 0.38975 0.31141 0.19888 0.0
C2788 C 0.38081 0.3326 0.20789 0.0
C2789 C 0.36134 0.32887 0.2227 0.0
C2790 C 0.35137 0.30422 0.22854 0.0
C2791 C 0.36119 0.28325 0.21967 0.0
H2792 H 0.59318 0.54119 0.34942 0.0
H2793 H 0.63158 0.48038 0.36951 0.0
H2794 H 0.60551 0.47105 0.40398 0.0
H2795 H 0.5875 0.56324 0.41352 0.0
H2796 H 0.55789 0.57119 0.40571 0.0
H2797 H 0.57886 0.57209 0.38203 0.0
H2798 H 0.54654 0.5412 0.3513 0.0
H2799 H 0.52559 0.53996 0.37507 0.0
H2800 H 0.53343 0.51109 0.36163 0.0
H2801 H 0.57537 0.4686 0.43641 0.0
H2802 H 0.54665 0.47601 0.46719 0.0
H2803 H 0.52863 0.53922 0.42647 0.0
C2804 C 0.59607 0.52584 0.361 0.0
C2805 C 0.61433 0.51141 0.3567 0.0
C2806 C 0.61772 0.4917 0.37249 0.0
C2807 C 0.6029 0.48615 0.39199 0.0
C2808 C 0.58489 0.50059 0.39553 0.0
C2809 C 0.58163 0.52023 0.38067 0.0
C2810 C 0.56188 0.53376 0.38925 0.0
C2811 C 0.57215 0.56172 0.39816 0.0
C2812 C 0.5406 0.53134 0.36805 0.0
C2813 C 0.5546 0.51876 0.41139 0.0
C2814 C 0.56787 0.4995 0.41448 0.0
C2815 C 0.5648 0.48353 0.43407 0.0
C2816 C 0.54826 0.48781 0.45138 0.0
C2817 C 0.53517 0.50812 0.4492 0.0
C2818 C 0.53812 0.5234 0.42856 0.0
H2819 H 0.2259 0.86553 0.10832 0.0
H2820 H 0.25874 0.82071 0.05461 0.0
H2821 H 0.27297 0.79685 0.0893 0.0
H2822 H 0.27292 0.86809 0.16222 0.0
H2823 H 0.25191 0.86477 0.18591 0.0
H2824 H 0.24464 0.87959 0.15718 0.0
H2825 H 0.20432 0.84739 0.14727 0.0
H2826 H 0.2114 0.83264 0.17605 0.0
H2827 H 0.20507 0.8139 0.14577 0.0
H2828 H 0.28361 0.77713 0.12891 0.0
H2829 H 0.28758 0.76072 0.17136 0.0
H2830 H 0.24773 0.81673 0.20081 0.0
C2831 C 0.23612 0.85073 0.10392 0.0
C2832 C 0.24115 0.84515 0.07852 0.0
C2833 C 0.25451 0.82549 0.07369 0.0
C2834 C 0.26283 0.8118 0.09336 0.0
C2835 C 0.2577 0.81774 0.11803 0.0
C2836 C 0.24453 0.83658 0.1235 0.0
C2837 C 0.24097 0.83825 0.15178 0.0
C2838 C 0.25334 0.86422 0.16505 0.0
C2839 C 0.21383 0.83271 0.15542 0.0
C2840 C 0.25393 0.81724 0.16104 0.0
C2841 C 0.26365 0.80593 0.1412 0.0
C2842 C 0.27612 0.78585 0.14464 0.0
C2843 C 0.27834 0.77667 0.16885 0.0
C2844 C 0.26806 0.78741 0.18942 0.0
C2845 C 0.25599 0.80826 0.18551 0.0
H2846 H 0.92466 0.56081 0.84174 0.0
H2847 H 0.99203 0.56455 0.80726 0.0
H2848 H 0.01335 0.55807 0.84873 0.0
H2849 H 0.95143 0.59317 0.90354 0.0
H2850 H 0.93129 0.57326 0.92135 0.0
H2851 H 0.92129 0.57918 0.88918 0.0
H2852 H 0.91107 0.53084 0.87647 0.0
H2853 H 0.92105 0.52478 0.90859 0.0
H2854 H 0.93426 0.51177 0.8821 0.0
H2855 H 0.02727 0.54989 0.89326 0.0
H2856 H 0.03307 0.54033 0.93808 0.0
H2857 H 0.95685 0.54164 0.94464 0.0
C2858 C 0.94394 0.56048 0.84294 0.0
C2859 C 0.95666 0.56328 0.82112 0.0
C2860 C 0.98185 0.56251 0.82359 0.0
C2861 C 0.99415 0.55885 0.84711 0.0
C2862 C 0.98109 0.556 0.86813 0.0
C2863 C 0.95656 0.55679 0.86635 0.0
C2864 C 0.94677 0.55253 0.89184 0.0
C2865 C 0.93713 0.57593 0.90208 0.0
C2866 C 0.92713 0.52855 0.88961 0.0
C2867 C 0.96961 0.54901 0.90813 0.0
C2868 C 0.98917 0.5512 0.89401 0.0
C2869 C 0.01211 0.54823 0.90453 0.0
C2870 C 0.01519 0.54276 0.9301 0.0
C2871 C 0.99545 0.54022 0.94508 0.0
C2872 C 0.97237 0.54359 0.93385 0.0
H2873 H 0.30421 0.2195 0.56719 0.0
H2874 H 0.22932 0.19346 0.53509 0.0
H2875 H 0.21549 0.21828 0.56995 0.0
H2876 H 0.29375 0.21336 0.63024 0.0
H2877 H 0.31554 0.24084 0.6435 0.0
H2878 H 0.31975 0.22438 0.61397 0.0
H2879 H 0.32173 0.26623 0.5918 0.0
H2880 H 0.31738 0.28279 0.62133 0.0
H2881 H 0.29713 0.28375 0.59286 0.0
H2882 H 0.20948 0.24209 0.60991 0.0
H2883 H 0.21162 0.2607 0.6543 0.0
H2884 H 0.29024 0.27048 0.66109 0.0
C2885 C 0.28495 0.21951 0.56725 0.0
C2886 C 0.26781 0.20477 0.54848 0.0
C2887 C 0.24272 0.20467 0.54939 0.0
C2888 C 0.2347 0.21886 0.56895 0.0
C2889 C 0.25203 0.23298 0.5874 0.0
C2890 C 0.27663 0.23332 0.58684 0.0
C2891 C 0.29126 0.2477 0.61051 0.0
C2892 C 0.30592 0.23054 0.62543 0.0
C2893 C 0.30785 0.27154 0.60371 0.0
C2894 C 0.27097 0.25458 0.62484 0.0
C2895 C 0.24852 0.24641 0.61091 0.0
C2896 C 0.22694 0.24895 0.62088 0.0
C2897 C 0.22832 0.25951 0.64605 0.0
C2898 C 0.25108 0.26705 0.66086 0.0
C2899 C 0.27264 0.26517 0.64993 0.0
H2900 H 0.64286 0.5016 0.19732 0.0
H2901 H 0.60085 0.52543 0.25628 0.0
H2902 H 0.56889 0.53193 0.22321 0.0
H2903 H 0.62973 0.5454 0.15356 0.0
H2904 H 0.62723 0.52378 0.12543 0.0
H2905 H 0.64629 0.51942 0.15366 0.0
H2906 H 0.62282 0.47348 0.15395 0.0
H2907 H 0.60385 0.47773 0.12556 0.0
H2908 H 0.59025 0.46811 0.15365 0.0
H2909 H 0.54301 0.53887 0.18414 0.0
H2910 H 0.52389 0.54407 0.14108 0.0
H2911 H 0.58177 0.51446 0.10732 0.0
C2912 C 0.62685 0.50799 0.20327 0.0
C2913 C 0.62438 0.51308 0.22937 0.0
C2914 C 0.60313 0.52136 0.2364 0.0
C2915 C 0.58486 0.52511 0.21776 0.0
C2916 C 0.58797 0.52019 0.19221 0.0
C2917 C 0.60828 0.51157 0.1849 0.0
C2918 C 0.60728 0.50822 0.15607 0.0
C2919 C 0.62892 0.52522 0.14664 0.0
C2920 C 0.60597 0.48022 0.14677 0.0
C2921 C 0.58361 0.51704 0.1484 0.0
C2922 C 0.57272 0.52374 0.16955 0.0
C2923 C 0.55121 0.53343 0.1674 0.0
C2924 C 0.54055 0.5364 0.14293 0.0
C2925 C 0.55139 0.52961 0.12105 0.0
C2926 C 0.57308 0.51965 0.12381 0.0
H2927 H 0.25752 0.89079 0.93834 0.0
H2928 H 0.19485 0.84111 0.95969 0.0
H2929 H 0.1948 0.81224 0.92105 0.0
H2930 H 0.24099 0.88303 0.87024 0.0
H2931 H 0.27163 0.88324 0.8629 0.0
H2932 H 0.26623 0.90018 0.89176 0.0
H2933 H 0.29394 0.87523 0.91842 0.0
H2934 H 0.29933 0.85816 0.88963 0.0
H2935 H 0.28754 0.84106 0.91522 0.0
H2936 H 0.20035 0.79008 0.87837 0.0
H2937 H 0.21309 0.77477 0.83732 0.0
H2938 H 0.27418 0.83689 0.84598 0.0
C2939 C 0.24368 0.8739 0.93485 0.0
C2940 C 0.226 0.86834 0.95196 0.0
C2941 C 0.20851 0.8458 0.94686 0.0
C2942 C 0.20834 0.82932 0.92493 0.0
C2943 C 0.22601 0.8354 0.90846 0.0
C2944 C 0.24353 0.85705 0.91333 0.0
C2945 C 0.26095 0.85891 0.89305 0.0
C2946 C 0.25987 0.88275 0.87864 0.0
C2947 C 0.28698 0.8583 0.90479 0.0
C2948 C 0.25049 0.835 0.87591 0.0
C2949 C 0.23013 0.82185 0.88492 0.0
C2950 C 0.2165 0.8 0.87143 0.0
C2951 C 0.22385 0.7914 0.8482 0.0
C2952 C 0.24493 0.80427 0.839 0.0
C2953 C 0.25842 0.82629 0.85308 0.0
H2954 H 0.9532 0.57997 0.69463 0.0
H2955 H 0.91299 0.50294 0.68871 0.0
H2956 H 0.92938 0.49376 0.64834 0.0
H2957 H 0.9476 0.58858 0.62601 0.0
H2958 H 0.97808 0.60596 0.62684 0.0
H2959 H 0.96206 0.60743 0.65467 0.0
H2960 H 0.99726 0.59252 0.68161 0.0
H2961 H 0.01335 0.59099 0.65387 0.0
H2962 H 0.00683 0.56343 0.6714 0.0
H2963 H 0.95026 0.49206 0.60927 0.0
H2964 H 0.97627 0.49748 0.57444 0.0
H2965 H 0.00484 0.57495 0.60503 0.0
C2966 C 0.9477 0.56129 0.68465 0.0
C2967 C 0.93172 0.54219 0.69487 0.0
C2968 C 0.92525 0.51786 0.68141 0.0
C2969 C 0.93439 0.51246 0.65834 0.0
C2970 C 0.95025 0.53148 0.6489 0.0
C2971 C 0.95703 0.55538 0.66159 0.0
C2972 C 0.97538 0.57183 0.64763 0.0
C2973 C 0.96516 0.59481 0.63823 0.0
C2974 C 0.99964 0.58018 0.66464 0.0
C2975 C 0.9779 0.55333 0.62534 0.0
C2976 C 0.96297 0.53028 0.62641 0.0
C2977 C 0.96201 0.51004 0.60819 0.0
C2978 C 0.97681 0.51333 0.58841 0.0
C2979 C 0.99251 0.53662 0.58695 0.0
C2980 C 0.99301 0.55692 0.60567 0.0
H2981 H 0.29669 0.19771 0.42308 0.0
H2982 H 0.2488 0.23803 0.46281 0.0
H2983 H 0.2547 0.27188 0.43374 0.0
H2984 H 0.33748 0.25712 0.40441 0.0
H2985 H 0.34013 0.24129 0.37391 0.0
H2986 H 0.33741 0.22347 0.40157 0.0
H2987 H 0.29978 0.19293 0.37774 0.0
H2988 H 0.30341 0.21042 0.35027 0.0
H2989 H 0.27473 0.20615 0.36342 0.0
H2990 H 0.25781 0.29557 0.39614 0.0
H2991 H 0.25694 0.30662 0.35156 0.0
H2992 H 0.30373 0.25255 0.33567 0.0
C2993 C 0.28811 0.2141 0.42611 0.0
C2994 C 0.27228 0.21527 0.44511 0.0
C2995 C 0.26094 0.2367 0.44828 0.0
C2996 C 0.26441 0.25619 0.43205 0.0
C2997 C 0.27946 0.25412 0.41291 0.0
C2998 C 0.29131 0.23371 0.40994 0.0
C2999 C 0.30351 0.23419 0.38563 0.0
C3000 C 0.33129 0.23933 0.39176 0.0
C3001 C 0.29478 0.20946 0.36826 0.0
C3002 C 0.29472 0.25665 0.37427 0.0
C3003 C 0.28162 0.26841 0.39081 0.0
C3004 C 0.26867 0.28715 0.38332 0.0
C3005 C 0.2682 0.29325 0.35799 0.0
C3006 C 0.28061 0.28068 0.34057 0.0
C3007 C 0.29488 0.26301 0.34903 0.0
H3008 H 0.36639 0.62059 0.48504 0.0
H3009 H 0.35288 0.61285 0.56401 0.0
H3010 H 0.38553 0.5882 0.56979 0.0
H3011 H 0.37926 0.558 0.47243 0.0
H3012 H 0.4035 0.56708 0.45315 0.0
H3013 H 0.37974 0.58564 0.45477 0.0
H3014 H 0.41188 0.62586 0.4695 0.0
H3015 H 0.4356 0.60726 0.46771 0.0
H3016 H 0.43354 0.62556 0.49701 0.0
H3017 H 0.41655 0.56187 0.56726 0.0
H3018 H 0.44576 0.53503 0.55664 0.0
H3019 H 0.44366 0.55976 0.48 0.0
C3020 C 0.37047 0.61386 0.50357 0.0
C3021 C 0.35679 0.61884 0.52406 0.0
C3022 C 0.3628 0.60949 0.54793 0.0
C3023 C 0.38148 0.59542 0.5515 0.0
C3024 C 0.39443 0.59075 0.53111 0.0
C3025 C 0.38943 0.59966 0.5076 0.0
C3026 C 0.40615 0.59093 0.48895 0.0
C3027 C 0.39127 0.57443 0.46596 0.0
C3028 C 0.42278 0.61378 0.48029 0.0
C3029 C 0.42077 0.57533 0.50561 0.0
C3030 C 0.41351 0.57575 0.52987 0.0
C3031 C 0.42272 0.56176 0.5485 0.0
C3032 C 0.43952 0.5466 0.54225 0.0
C3033 C 0.44776 0.54575 0.51776 0.0
C3034 C 0.43836 0.56058 0.49914 0.0
H3035 H 0.83208 0.9912 0.51246 0.0
H3036 H 0.83429 0.96317 0.58773 0.0
H3037 H 0.87717 0.98398 0.59718 0.0
H3038 H 0.88854 0.97994 0.49985 0.0
H3039 H 0.89636 0.00776 0.483 0.0
H3040 H 0.865 0.99394 0.48357 0.0
H3041 H 0.8564 0.03705 0.50211 0.0
H3042 H 0.88784 0.05099 0.5016 0.0
H3043 H 0.87409 0.05256 0.53094 0.0
H3044 H 0.92073 0.00298 0.59646 0.0
H3045 H 0.96196 0.0185 0.58542 0.0
H3046 H 0.93128 0.03461 0.51083 0.0
C3047 C 0.8414 0.98992 0.53115 0.0
C3048 C 0.82983 0.97565 0.54939 0.0
C3049 C 0.84278 0.97407 0.57348 0.0
C3050 C 0.86711 0.98592 0.57908 0.0
C3051 C 0.87813 0.99942 0.56046 0.0
C3052 C 0.86567 0.00159 0.53702 0.0
C3053 C 0.88228 0.01518 0.51951 0.0
C3054 C 0.88309 0.99818 0.49505 0.0
C3055 C 0.8747 0.04045 0.51318 0.0
C3056 C 0.90619 0.01949 0.53644 0.0
C3057 C 0.90335 0.01056 0.5601 0.0
C3058 C 0.92314 0.01047 0.57819 0.0
C3059 C 0.94648 0.01926 0.57171 0.0
C3060 C 0.9498 0.02793 0.54735 0.0
C3061 C 0.92931 0.02859 0.5298 0.0
H3062 H 0.8572 0.15439 0.25545 0.0
H3063 H 0.80286 0.0864 0.23502 0.0
H3064 H 0.77058 0.11086 0.24265 0.0
H3065 H 0.8279 0.18136 0.30548 0.0
H3066 H 0.83562 0.21354 0.29731 0.0
H3067 H 0.85512 0.19111 0.29066 0.0
H3068 H 0.85165 0.19998 0.24292 0.0
H3069 H 0.83274 0.22296 0.24971 0.0
H3070 H 0.822 0.19729 0.22537 0.0
H3071 H 0.74419 0.14213 0.25158 0.0
H3072 H 0.72475 0.17951 0.2584 0.0
H3073 H 0.79555 0.22764 0.27305 0.0
C3074 C 0.8385 0.14466 0.25254 0.0
C3075 C 0.83258 0.11842 0.2447 0.0
C3076 C 0.80788 0.10645 0.24096 0.0
C3077 C 0.7894 0.12016 0.24539 0.0
C3078 C 0.79586 0.14585 0.25344 0.0
C3079 C 0.81974 0.15813 0.2567 0.0
C3080 C 0.82151 0.18616 0.26458 0.0
C3081 C 0.8359 0.19344 0.29109 0.0
C3082 C 0.83263 0.20255 0.24444 0.0
C3083 C 0.79486 0.18762 0.26526 0.0
C3084 C 0.78047 0.16406 0.25886 0.0
C3085 C 0.75525 0.16063 0.25685 0.0
C3086 C 0.7444 0.18193 0.26084 0.0
C3087 C 0.75869 0.20631 0.26692 0.0
C3088 C 0.78425 0.20914 0.26953 0.0
H3089 H 0.70375 0.13956 0.97542 0.0
H3090 H 0.74756 0.10247 0.02824 0.0
H3091 H 0.71026 0.07717 0.04062 0.0
H3092 H 0.65708 0.14495 0.01393 0.0
H3093 H 0.6328 0.13849 0.98811 0.0
H3094 H 0.66292 0.15248 0.98212 0.0
H3095 H 0.66288 0.11606 0.94734 0.0
H3096 H 0.63265 0.10203 0.95307 0.0
H3097 H 0.65667 0.08363 0.95528 0.0
H3098 H 0.66785 0.05814 0.04957 0.0
H3099 H 0.62375 0.04498 0.0521 0.0
H3100 H 0.60805 0.09382 0.99277 0.0
C3101 C 0.70554 0.12588 0.98935 0.0
C3102 C 0.72862 0.12302 1.00085 0.0
C3103 C 0.73012 0.10493 0.01905 0.0
C3104 C 0.70901 0.09051 0.02627 0.0
C3105 C 0.68654 0.09419 0.01494 0.0
C3106 C 0.6847 0.1112 0.99662 0.0
C3107 C 0.65839 0.11192 0.98767 0.0
C3108 C 0.65246 0.13854 0.99331 0.0
C3109 C 0.65229 0.10287 0.95915 0.0
C3110 C 0.64573 0.09306 0.00419 0.0
C3111 C 0.66225 0.083 0.01979 0.0
C3112 C 0.65476 0.06573 0.03727 0.0
C3113 C 0.62973 0.05844 0.03866 0.0
C3114 C 0.6126 0.06838 0.02263 0.0
C3115 C 0.62078 0.08587 0.00521 0.0
H3116 H 0.1461 0.39425 0.24822 0.0
H3117 H 0.17626 0.44494 0.31543 0.0
H3118 H 0.2091 0.42011 0.32303 0.0
H3119 H 0.15951 0.33703 0.27511 0.0
H3120 H 0.16676 0.32286 0.24558 0.0
H3121 H 0.1451 0.34411 0.24509 0.0
H3122 H 0.17004 0.37307 0.21644 0.0
H3123 H 0.19164 0.35187 0.21603 0.0
H3124 H 0.20178 0.38498 0.22633 0.0
H3125 H 0.2407 0.39161 0.32127 0.0
H3126 H 0.26667 0.35991 0.3119 0.0
H3127 H 0.21475 0.32653 0.24737 0.0
C3128 C 0.15947 0.40003 0.26468 0.0
C3129 C 0.15855 0.42164 0.2812 0.0
C3130 C 0.17645 0.42845 0.30253 0.0
C3131 C 0.19525 0.41449 0.30698 0.0
C3132 C 0.19582 0.39354 0.29011 0.0
C3133 C 0.17824 0.38617 0.26954 0.0
C3134 C 0.18301 0.36294 0.25426 0.0
C3135 C 0.16236 0.34037 0.25502 0.0
C3136 C 0.18685 0.36856 0.22663 0.0
C3137 C 0.2063 0.35873 0.26909 0.0
C3138 C 0.21346 0.37662 0.28967 0.0
C3139 C 0.23508 0.37733 0.3054 0.0
C3140 C 0.24975 0.35933 0.29992 0.0
C3141 C 0.24262 0.34073 0.27908 0.0
C3142 C 0.2205 0.34035 0.26365 0.0
H3143 H 0.18307 0.4347 0.03009 0.0
H3144 H 0.23254 0.4995 0.00954 0.0
H3145 H 0.19844 0.52303 0.00373 0.0
H3146 H 0.13157 0.4413 0.98537 0.0
H3147 H 0.10984 0.43148 0.00723 0.0
H3148 H 0.13801 0.4196 0.00868 0.0
H3149 H 0.14754 0.43599 0.05655 0.0
H3150 H 0.11947 0.44799 0.05523 0.0
H3151 H 0.14778 0.46894 0.0659 0.0
H3152 H 0.15912 0.54015 0.0026 0.0
H3153 H 0.11734 0.54875 0.00463 0.0
H3154 H 0.09437 0.47217 0.02503 0.0
C3155 C 0.18676 0.45378 0.02421 0.0
C3156 C 0.21042 0.46533 0.02033 0.0
C3157 C 0.21449 0.49029 0.01257 0.0
C3158 C 0.19527 0.5038 0.00925 0.0
C3159 C 0.17218 0.49192 0.01354 0.0
C3160 C 0.16786 0.46739 0.02065 0.0
C3161 C 0.14155 0.45899 0.0245 0.0
C3162 C 0.12954 0.43652 0.0053 0.0
C3163 C 0.13895 0.45261 0.05219 0.0
C3164 C 0.13177 0.48276 0.01884 0.0
C3165 C 0.14965 0.50158 0.01253 0.0
C3166 C 0.14493 0.5255 0.00731 0.0
C3167 C 0.12126 0.53023 0.00856 0.0
C3168 C 0.10283 0.51107 0.01491 0.0
C3169 C 0.10817 0.48709 0.01999 0.0
H3170 H 0.8404 0.97953 0.25802 0.0
H3171 H 0.79504 0.98637 0.18821 0.0
H3172 H 0.77158 0.94376 0.19141 0.0
H3173 H 0.84303 0.91388 0.24632 0.0
H3174 H 0.84167 0.90696 0.27913 0.0
H3175 H 0.85452 0.93832 0.27176 0.0
H3176 H 0.8243 0.95716 0.2981 0.0
H3177 H 0.81122 0.9258 0.30541 0.0
H3178 H 0.79214 0.94578 0.29056 0.0
H3179 H 0.75479 0.89966 0.20041 0.0
H3180 H 0.74532 0.85672 0.21504 0.0
H3181 H 0.79975 0.87868 0.28034 0.0
C3182 C 0.82552 0.97207 0.24342 0.0
C3183 C 0.8196 0.9863 0.22279 0.0
C3184 C 0.79992 0.97589 0.20417 0.0
C3185 C 0.78644 0.9517 0.20585 0.0
C3186 C 0.79268 0.93823 0.22642 0.0
C3187 C 0.81168 0.94801 0.24494 0.0
C3188 C 0.81479 0.92933 0.26485 0.0
C3189 C 0.84 0.92167 0.26554 0.0
C3190 C 0.81034 0.94017 0.2913 0.0
C3191 C 0.79481 0.90735 0.25437 0.0
C3192 C 0.78232 0.91296 0.23217 0.0
C3193 C 0.76416 0.89518 0.21797 0.0
C3194 C 0.7589 0.87089 0.22641 0.0
C3195 C 0.77149 0.86467 0.24901 0.0
C3196 C 0.78939 0.88326 0.2634 0.0
H3197 H 0.64586 0.08516 0.80129 0.0
H3198 H 0.68398 0.03488 0.75961 0.0
H3199 H 0.71541 0.07141 0.75343 0.0
H3200 H 0.65538 0.13606 0.76342 0.0
H3201 H 0.6599 0.16043 0.78946 0.0
H3202 H 0.64149 0.13013 0.79227 0.0
H3203 H 0.66853 0.12498 0.83366 0.0
H3204 H 0.68705 0.15534 0.83097 0.0
H3205 H 0.70086 0.12752 0.83312 0.0
H3206 H 0.74046 0.11416 0.74813 0.0
H3207 H 0.758 0.15947 0.74608 0.0
H3208 H 0.70457 0.18114 0.793 0.0
C3209 C 0.66096 0.08178 0.79111 0.0
C3210 C 0.66244 0.05719 0.78087 0.0
C3211 C 0.68252 0.05355 0.76771 0.0
C3212 C 0.70046 0.07418 0.76409 0.0
C3213 C 0.69828 0.09825 0.77412 0.0
C3214 C 0.67919 0.10208 0.78766 0.0
C3215 C 0.68066 0.1299 0.79588 0.0
C3216 C 0.65802 0.1397 0.78457 0.0
C3217 C 0.68451 0.13471 0.82515 0.0
C3218 C 0.70308 0.14121 0.78413 0.0
C3219 C 0.71308 0.12268 0.77174 0.0
C3220 C 0.73302 0.12879 0.75812 0.0
C3221 C 0.74283 0.15451 0.757 0.0
C3222 C 0.73272 0.17365 0.76952 0.0
C3223 C 0.71285 0.16683 0.78352 0.0
loop_
_geom_bond_atom_site_label_1
_geom_bond_atom_site_label_2
_geom_bond_distance
_geom_bond_site_symmetry_2
_ccdc_geom_bond_type
C0 O1 1.160 . S
C0 O7 1.185 . S
O1 C0 1.160 . S
O2 Zn3 1.899 . S
O2 C10 1.284 . S
Zn3 O2 1.899 . S
Zn3 O4 2.032 . S
Zn3 O7 2.086 . S
Zn3 O12 1.977 1_455 S
O4 Zn3 2.032 . S
O4 C8 1.278 . S
C5 O6 1.203 . S
C5 O12 1.267 . S
O6 C5 1.203 . S
O7 C0 1.185 . S
O7 Zn3 2.086 . S
C8 O4 1.278 . S
C8 O9 1.211 1_455 S
O9 C8 1.211 1_655 S
C10 O2 1.284 . S
C10 O11 1.273 . S
O11 C10 1.273 . S
O12 Zn3 1.977 1_655 S
O12 C5 1.267 . S
C13 O14 1.160 . S
C13 O20 1.185 . S
O14 C13 1.160 . S
O15 Zn16 1.899 . S
O15 C23 1.284 . S
Zn16 O15 1.899 . S
Zn16 O17 2.032 . S
Zn16 O20 2.086 . S
Zn16 O25 1.977 1_655 S
O17 Zn16 2.032 . S
O17 C21 1.278 1_655 S
C18 O19 1.203 . S
C18 O25 1.267 . S
O19 C18 1.203 . S
O20 C13 1.185 . S
O20 Zn16 2.086 . S
C21 O17 1.278 1_455 S
C21 O22 1.211 . S
O22 C21 1.211 . S
C23 O15 1.284 . S
C23 O24 1.273 1_655 S
O24 C23 1.273 1_455 S
O25 Zn16 1.977 1_455 S
O25 C18 1.267 . S
C26 O27 1.160 . S
C26 O33 1.185 . S
O27 C26 1.160 . S
O28 Zn29 1.899 . S
O28 C36 1.284 . S
Zn29 O28 1.899 . S
Zn29 O30 2.032 . S
Zn29 O33 2.086 . S
Zn29 O38 1.977 . S
O30 Zn29 2.032 . S
O30 C34 1.278 . S
C31 O32 1.203 . S
C31 O38 1.267 . S
O32 C31 1.203 . S
O33 C26 1.185 . S
O33 Zn29 2.086 . S
C34 O30 1.278 . S
C34 O35 1.211 . S
O35 C34 1.211 . S
C36 O28 1.284 . S
C36 O37 1.273 . S
O37 C36 1.273 . S
O38 Zn29 1.977 . S
O38 C31 1.267 . S
C39 O40 1.160 . S
C39 O46 1.185 . S
O40 C39 1.160 . S
O41 Zn42 1.899 . S
O41 C49 1.284 . S
Zn42 O41 1.899 . S
Zn42 O43 2.032 . S
Zn42 O46 2.086 . S
Zn42 O51 1.977 . S
O43 Zn42 2.032 . S
O43 C47 1.278 . S
C44 O45 1.203 . S
C44 O51 1.267 . S
O45 C44 1.203 . S
O46 C39 1.185 . S
O46 Zn42 2.086 . S
C47 O43 1.278 . S
C47 O48 1.211 . S
O48 C47 1.211 . S
C49 O41 1.284 . S
C49 O50 1.273 . S
O50 C49 1.273 . S
O51 Zn42 1.977 . S
O51 C44 1.267 . S
C52 O53 1.160 . S
C52 O59 1.185 . S
O53 C52 1.160 . S
O54 Zn55 1.897 . S
O54 C62 1.297 . S
Zn55 O54 1.897 . S
Zn55 O56 2.032 1_455 S
Zn55 O59 2.086 1_455 S
Zn55 O64 1.977 . S
O56 Zn55 2.032 1_655 S
O56 C60 1.278 1_655 S
C57 O58 1.203 . S
C57 O64 1.267 . S
O58 C57 1.203 . S
O59 C52 1.185 . S
O59 Zn55 2.086 1_655 S
C60 O56 1.278 1_455 S
C60 O61 1.211 . S
O61 C60 1.211 . S
C62 O54 1.297 . S
C62 O63 1.273 . S
O63 C62 1.273 . S
O64 Zn55 1.977 . S
O64 C57 1.267 . S
C65 O66 1.160 . S
C65 O72 1.185 . S
O66 C65 1.160 . S
O67 Zn68 1.899 . S
O67 C75 1.284 . S
Zn68 O67 1.899 . S
Zn68 O69 2.032 . S
Zn68 O72 2.086 . S
Zn68 O77 1.977 . S
O69 Zn68 2.032 . S
O69 C73 1.278 . S
C70 O71 1.203 . S
C70 O77 1.267 . S
O71 C70 1.203 . S
O72 C65 1.185 . S
O72 Zn68 2.086 . S
C73 O69 1.278 . S
C73 O74 1.211 . S
O74 C73 1.211 . S
C75 O67 1.284 . S
C75 O76 1.273 . S
O76 C75 1.273 . S
O77 Zn68 1.977 . S
O77 C70 1.267 . S
C78 O79 1.160 . S
C78 O85 1.185 . S
O79 C78 1.160 . S
O80 Zn81 1.899 . S
O80 C88 1.284 . S
Zn81 O80 1.899 . S
Zn81 O82 2.032 . S
Zn81 O85 2.086 . S
Zn81 O90 1.977 . S
O82 Zn81 2.032 . S
O82 C86 1.278 . S
C83 O84 1.203 . S
C83 O90 1.267 . S
O84 C83 1.203 . S
O85 C78 1.185 . S
O85 Zn81 2.086 . S
C86 O82 1.278 . S
C86 O87 1.211 . S
O87 C86 1.211 . S
C88 O80 1.284 . S
C88 O89 1.273 . S
O89 C88 1.273 . S
O90 Zn81 1.977 . S
O90 C83 1.267 . S
C91 O92 1.160 . S
C91 O98 1.185 . S
O92 C91 1.160 . S
O93 Zn94 1.899 . S
O93 C101 1.284 . S
Zn94 O93 1.899 . S
Zn94 O95 2.032 . S
Zn94 O98 2.086 . S
Zn94 O103 1.977 1_455 S
O95 Zn94 2.032 . S
O95 C99 1.278 . S
C96 O97 1.203 . S
C96 O103 1.267 . S
O97 C96 1.203 . S
O98 C91 1.185 . S
O98 Zn94 2.086 . S
C99 O95 1.278 . S
C99 O100 1.211 1_455 S
O100 C99 1.211 1_655 S
C101 O93 1.284 . S
C101 O102 1.272 1_455 S
O102 C101 1.272 1_655 S
O103 Zn94 1.977 1_655 S
O103 C96 1.267 . S
C104 O105 1.160 . S
C104 O111 1.185 . S
O105 C104 1.160 . S
O106 Zn107 1.899 . S
O106 C114 1.284 . S
Zn107 O106 1.899 . S
Zn107 O108 2.032 . S
Zn107 O111 2.086 . S
Zn107 O116 1.977 . S
O108 Zn107 2.032 . S
O108 C112 1.278 . S
C109 O110 1.203 . S
C109 O116 1.267 1_565 S
O110 C109 1.203 . S
O111 C104 1.185 . S
O111 Zn107 2.086 . S
C112 O108 1.278 . S
C112 O113 1.211 . S
O113 C112 1.211 . S
C114 O106 1.284 . S
C114 O115 1.273 . S
O115 C114 1.273 . S
O116 Zn107 1.977 . S
O116 C109 1.267 1_545 S
C117 O118 1.160 . S
C117 O124 1.185 . S
O118 C117 1.160 . S
O119 Zn120 1.899 . S
O119 C127 1.284 . S
Zn120 O119 1.899 . S
Zn120 O121 2.032 . S
Zn120 O124 2.086 . S
Zn120 O129 1.977 . S
O121 Zn120 2.032 . S
O121 C125 1.278 . S
C122 O123 1.203 . S
C122 O129 1.267 . S
O123 C122 1.203 . S
O124 C117 1.185 . S
O124 Zn120 2.086 . S
C125 O121 1.278 . S
C125 O126 1.211 . S
O126 C125 1.211 . S
C127 O119 1.284 . S
C127 O128 1.273 . S
O128 C127 1.273 . S
O129 Zn120 1.977 . S
O129 C122 1.267 . S
C130 O131 1.160 . S
C130 O137 1.185 . S
O131 C130 1.160 . S
O132 Zn133 1.899 . S
O132 C140 1.284 . S
Zn133 O132 1.899 . S
Zn133 O134 2.032 . S
Zn133 O137 2.086 . S
Zn133 O142 1.977 1_565 S
O134 Zn133 2.032 . S
O134 C138 1.278 1_565 S
C135 O136 1.203 . S
C135 O142 1.267 . S
O136 C135 1.203 . S
O137 C130 1.185 . S
O137 Zn133 2.086 . S
C138 O134 1.278 1_545 S
C138 O139 1.211 . S
O139 C138 1.211 . S
C140 O132 1.284 . S
C140 O141 1.273 1_565 S
O141 C140 1.273 1_545 S
O142 Zn133 1.977 1_545 S
O142 C135 1.267 . S
C143 O144 1.160 . S
C143 O150 1.185 . S
O144 C143 1.160 . S
O145 Zn146 1.899 . S
O145 C153 1.284 . S
Zn146 O145 1.899 . S
Zn146 O147 2.030 1_554 S
Zn146 O150 2.086 . S
Zn146 O155 1.977 . S
O147 Zn146 2.030 1_556 S
O147 C151 1.279 . S
C148 O149 1.203 . S
C148 O155 1.267 . S
O149 C148 1.203 . S
O150 C143 1.185 . S
O150 Zn146 2.086 . S
C151 O147 1.279 . S
C151 O152 1.211 . S
O152 C151 1.211 . S
C153 O145 1.284 . S
C153 O154 1.273 . S
O154 C153 1.273 . S
O155 Zn146 1.977 . S
O155 C148 1.267 . S
C156 O157 1.160 . S
C156 O163 1.185 . S
O157 C156 1.160 . S
O158 Zn159 1.899 . S
O158 C166 1.284 . S
Zn159 O158 1.899 . S
Zn159 O160 2.032 1_554 S
Zn159 O163 2.086 . S
Zn159 O168 1.977 . S
O160 Zn159 2.032 1_556 S
O160 C164 1.278 . S
C161 O162 1.203 . S
C161 O168 1.267 . S
O162 C161 1.203 . S
O163 C156 1.185 . S
O163 Zn159 2.086 . S
C164 O160 1.278 . S
C164 O165 1.211 . S
O165 C164 1.211 . S
C166 O158 1.284 . S
C166 O167 1.273 . S
O167 C166 1.273 . S
O168 Zn159 1.977 . S
O168 C161 1.267 . S
C169 O170 1.160 . S
C169 O176 1.185 1_554 S
O170 C169 1.160 . S
O171 Zn172 1.899 . S
O171 C179 1.284 . S
Zn172 O171 1.899 . S
Zn172 O173 2.032 1_554 S
Zn172 O176 2.086 1_554 S
Zn172 O181 1.977 1_554 S
O173 Zn172 2.032 1_556 S
O173 C177 1.278 . S
C174 O175 1.204 1_556 S
C174 O181 1.265 . S
O175 C174 1.204 1_554 S
O176 C169 1.185 1_556 S
O176 Zn172 2.086 1_556 S
C177 O173 1.278 . S
C177 O178 1.211 . S
O178 C177 1.211 . S
C179 O171 1.284 . S
C179 O180 1.273 . S
O180 C179 1.273 . S
O181 Zn172 1.977 1_556 S
O181 C174 1.265 . S
C182 O183 1.160 . S
C182 O189 1.185 . S
O183 C182 1.160 . S
O184 Zn185 1.899 . S
O184 C192 1.284 . S
Zn185 O184 1.899 . S
Zn185 O186 2.032 . S
Zn185 O189 2.086 . S
Zn185 O194 1.977 . S
O186 Zn185 2.032 . S
O186 C190 1.278 . S
C187 O188 1.203 . S
C187 O194 1.267 . S
O188 C187 1.203 . S
O189 C182 1.185 . S
O189 Zn185 2.086 . S
C190 O186 1.278 . S
C190 O191 1.211 . S
O191 C190 1.211 . S
C192 O184 1.284 . S
C192 O193 1.273 . S
O193 C192 1.273 . S
O194 Zn185 1.977 . S
O194 C187 1.267 . S
C195 O196 1.160 . S
C195 O202 1.185 . S
O196 C195 1.160 . S
O197 Zn198 1.899 . S
O197 C205 1.284 . S
Zn198 O197 1.899 . S
Zn198 O199 2.032 . S
Zn198 O202 2.086 . S
Zn198 O207 1.977 . S
O199 Zn198 2.032 . S
O199 C203 1.278 . S
C200 O201 1.203 . S
C200 O207 1.267 . S
O201 C200 1.203 . S
O202 C195 1.185 . S
O202 Zn198 2.086 . S
C203 O199 1.278 . S
C203 O204 1.211 . S
O204 C203 1.211 . S
C205 O197 1.284 . S
C205 O206 1.273 . S
O206 C205 1.273 . S
O207 Zn198 1.977 . S
O207 C200 1.267 . S
C208 O209 1.160 . S
C208 O215 1.185 . S
O209 C208 1.160 . S
O210 Zn211 1.899 . S
O210 C218 1.284 . S
Zn211 O210 1.899 . S
Zn211 O212 2.032 . S
Zn211 O215 2.086 . S
Zn211 O220 1.977 . S
O212 Zn211 2.032 . S
O212 C216 1.278 . S
C213 O214 1.203 . S
C213 O220 1.267 . S
O214 C213 1.203 . S
O215 C208 1.185 . S
O215 Zn211 2.086 . S
C216 O212 1.278 . S
C216 O217 1.211 . S
O217 C216 1.211 . S
C218 O210 1.284 . S
C218 O219 1.273 . S
O219 C218 1.273 . S
O220 Zn211 1.977 . S
O220 C213 1.267 . S
C221 O222 1.160 . S
C221 O228 1.185 . S
O222 C221 1.160 . S
O223 Zn224 1.899 . S
O223 C231 1.284 . S
Zn224 O223 1.899 . S
Zn224 O225 2.032 . S
Zn224 O228 2.086 . S
Zn224 O233 1.977 . S
O225 Zn224 2.032 . S
O225 C229 1.278 . S
C226 O227 1.203 . S
C226 O233 1.267 . S
O227 C226 1.203 . S
O228 C221 1.185 . S
O228 Zn224 2.086 . S
C229 O225 1.278 . S
C229 O230 1.211 . S
O230 C229 1.211 . S
C231 O223 1.284 . S
C231 O232 1.273 . S
O232 C231 1.273 . S
O233 Zn224 1.977 . S
O233 C226 1.267 . S
C234 O235 1.160 . S
C234 O241 1.185 . S
O235 C234 1.160 . S
O236 Zn237 1.899 . S
O236 C244 1.284 . S
Zn237 O236 1.899 . S
Zn237 O238 2.032 . S
Zn237 O241 2.086 . S
Zn237 O246 1.977 . S
O238 Zn237 2.032 . S
O238 C242 1.278 . S
C239 O240 1.203 . S
C239 O246 1.267 . S
O240 C239 1.203 . S
O241 C234 1.185 . S
O241 Zn237 2.086 . S
C242 O238 1.278 . S
C242 O243 1.211 . S
O243 C242 1.211 . S
C244 O236 1.284 . S
C244 O245 1.273 . S
O245 C244 1.273 . S
O246 Zn237 1.977 . S
O246 C239 1.267 . S
C247 O248 1.160 . S
C247 O254 1.185 . S
O248 C247 1.160 . S
O249 Zn250 1.899 . S
O249 C257 1.284 . S
Zn250 O249 1.899 . S
Zn250 O251 2.032 1_545 S
Zn250 O254 2.086 1_545 S
Zn250 O259 1.977 . S
O251 Zn250 2.032 1_565 S
O251 C255 1.278 1_565 S
C252 O253 1.203 . S
C252 O259 1.267 . S
O253 C252 1.203 . S
O254 C247 1.185 . S
O254 Zn250 2.086 1_565 S
C255 O251 1.278 1_545 S
C255 O256 1.211 . S
O256 C255 1.211 . S
C257 O249 1.284 . S
C257 O258 1.273 . S
O258 C257 1.273 . S
O259 Zn250 1.977 . S
O259 C252 1.267 . S
C260 O261 1.160 . S
C260 O267 1.185 1_554 S
O261 C260 1.160 . S
O262 Zn263 1.899 . S
O262 C270 1.284 . S
Zn263 O262 1.899 . S
Zn263 O264 2.032 1_554 S
Zn263 O267 2.086 1_554 S
Zn263 O272 1.977 1_554 S
O264 Zn263 2.032 1_556 S
O264 C268 1.278 . S
C265 O266 1.203 . S
C265 O272 1.267 1_554 S
O266 C265 1.203 . S
O267 C260 1.185 1_556 S
O267 Zn263 2.086 1_556 S
C268 O264 1.278 . S
C268 O269 1.211 . S
O269 C268 1.211 . S
C270 O262 1.284 . S
C270 O271 1.273 . S
O271 C270 1.273 . S
O272 Zn263 1.977 1_556 S
O272 C265 1.267 1_556 S
C273 O274 1.160 . S
C273 O280 1.185 . S
O274 C273 1.160 . S
O275 Zn276 1.899 . S
O275 C283 1.284 . S
Zn276 O275 1.899 . S
Zn276 O277 2.032 . S
Zn276 O280 2.086 . S
Zn276 O285 1.977 . S
O277 Zn276 2.032 . S
O277 C281 1.278 . S
C278 O279 1.203 . S
C278 O285 1.267 . S
O279 C278 1.203 . S
O280 C273 1.185 . S
O280 Zn276 2.086 . S
C281 O277 1.278 . S
C281 O282 1.211 . S
O282 C281 1.211 . S
C283 O275 1.284 . S
C283 O284 1.273 . S
O284 C283 1.273 . S
O285 Zn276 1.977 . S
O285 C278 1.267 . S
C286 O287 1.160 . S
C286 O293 1.185 . S
O287 C286 1.160 . S
O288 Zn289 1.899 . S
O288 C296 1.284 . S
Zn289 O288 1.899 . S
Zn289 O290 2.032 . S
Zn289 O293 2.086 . S
Zn289 O298 1.977 . S
O290 Zn289 2.032 . S
O290 C294 1.278 . S
C291 O292 1.203 . S
C291 O298 1.267 . S
O292 C291 1.203 . S
O293 C286 1.185 . S
O293 Zn289 2.086 . S
C294 O290 1.278 . S
C294 O295 1.211 . S
O295 C294 1.211 . S
C296 O288 1.284 . S
C296 O297 1.273 . S
O297 C296 1.273 . S
O298 Zn289 1.977 . S
O298 C291 1.267 . S
C299 O300 1.160 . S
C299 O306 1.185 . S
O300 C299 1.160 . S
O301 Zn302 1.899 . S
O301 C309 1.284 . S
Zn302 O301 1.899 . S
Zn302 O303 2.032 . S
Zn302 O306 2.086 . S
Zn302 O311 1.977 . S
O303 Zn302 2.032 . S
O303 C307 1.278 . S
C304 O305 1.203 . S
C304 O311 1.267 . S
O305 C304 1.203 . S
O306 C299 1.185 . S
O306 Zn302 2.086 . S
C307 O303 1.278 . S
C307 O308 1.211 . S
O308 C307 1.211 . S
C309 O301 1.284 . S
C309 O310 1.273 . S
O310 C309 1.273 . S
O311 Zn302 1.977 . S
O311 C304 1.267 . S
Tb312 O315 2.453 . S
Tb312 O316 2.596 . S
Tb312 O317 2.374 1_554 S
Tb312 O325 2.343 1_455 S
Tb312 O327 2.353 . S
Tb312 O329 2.427 . S
Tb312 O330 2.513 1_554 S
C313 O317 1.251 . S
C313 O319 1.263 1_445 S
Tb314 O316 2.343 1_665 S
Tb314 O319 2.353 1_554 S
Tb314 O322 2.427 . S
Tb314 O323 2.513 . S
Tb314 O324 2.453 1_564 S
Tb314 O325 2.596 1_565 S
Tb314 O326 2.374 1_565 S
O315 Tb312 2.453 . S
O315 C331 1.245 . S
O316 Tb312 2.596 . S
O316 Tb314 2.343 1_445 S
O316 C331 1.259 . S
O317 Tb312 2.374 1_556 S
O317 C313 1.251 . S
C318 O322 1.275 1_455 S
C318 O323 1.246 1_455 S
O319 C313 1.263 1_665 S
O319 Tb314 2.353 1_556 S
C320 O324 1.245 . S
C320 O325 1.259 1_556 S
C321 O326 1.250 . S
C321 O327 1.263 1_655 S
O322 Tb314 2.427 . S
O322 C318 1.275 1_655 S
O323 Tb314 2.513 . S
O323 C318 1.246 1_655 S
O324 Tb314 2.453 1_546 S
O324 C320 1.245 . S
O325 Tb312 2.343 1_655 S
O325 Tb314 2.596 1_545 S
O325 C320 1.259 1_554 S
O326 Tb314 2.374 1_545 S
O326 C321 1.250 . S
O327 Tb312 2.353 . S
O327 C321 1.263 1_455 S
C328 O329 1.275 1_556 S
C328 O330 1.246 . S
O329 Tb312 2.427 . S
O329 C328 1.275 1_554 S
O330 Tb312 2.513 1_556 S
O330 C328 1.246 . S
C331 O315 1.245 . S
C331 O316 1.259 . S
Tb332 O335 2.453 . S
Tb332 O336 2.596 . S
Tb332 O337 2.374 . S
Tb332 O345 2.343 . S
Tb332 O347 2.353 . S
Tb332 O349 2.427 . S
Tb332 O350 2.513 . S
C333 O337 1.251 . S
C333 O339 1.263 . S
Tb334 O336 2.343 . S
Tb334 O339 2.353 . S
Tb334 O342 2.427 . S
Tb334 O343 2.513 . S
Tb334 O344 2.453 . S
Tb334 O345 2.596 . S
Tb334 O346 2.374 . S
O335 Tb332 2.453 . S
O335 C351 1.245 . S
O336 Tb332 2.596 . S
O336 Tb334 2.343 . S
O336 C351 1.259 . S
O337 Tb332 2.374 . S
O337 C333 1.251 . S
C338 O342 1.275 . S
C338 O343 1.246 . S
O339 C333 1.263 . S
O339 Tb334 2.353 . S
C340 O344 1.245 . S
C340 O345 1.259 . S
C341 O346 1.250 . S
C341 O347 1.263 . S
O342 Tb334 2.427 . S
O342 C338 1.275 . S
O343 Tb334 2.513 . S
O343 C338 1.246 . S
O344 Tb334 2.453 . S
O344 C340 1.245 . S
O345 Tb332 2.343 . S
O345 Tb334 2.596 . S
O345 C340 1.259 . S
O346 Tb334 2.374 . S
O346 C341 1.250 . S
O347 Tb332 2.353 . S
O347 C341 1.263 . S
C348 O349 1.275 . S
C348 O350 1.246 . S
O349 Tb332 2.427 . S
O349 C348 1.275 . S
O350 Tb332 2.513 . S
O350 C348 1.246 . S
C351 O335 1.245 . S
C351 O336 1.259 . S
Tb352 O355 2.453 . S
Tb352 O356 2.596 . S
Tb352 O357 2.374 . S
Tb352 O365 2.343 . S
Tb352 O367 2.353 . S
Tb352 O369 2.427 . S
Tb352 O370 2.513 . S
C353 O357 1.251 . S
C353 O359 1.263 . S
Tb354 O356 2.343 . S
Tb354 O359 2.353 . S
Tb354 O362 2.427 . S
Tb354 O363 2.513 . S
Tb354 O364 2.453 1_545 S
Tb354 O365 2.596 . S
Tb354 O366 2.374 . S
O355 Tb352 2.453 . S
O355 C371 1.245 . S
O356 Tb352 2.596 . S
O356 Tb354 2.343 . S
O356 C371 1.259 . S
O357 Tb352 2.374 . S
O357 C353 1.251 . S
C358 O362 1.275 . S
C358 O363 1.246 . S
O359 C353 1.263 . S
O359 Tb354 2.353 . S
C360 O364 1.245 . S
C360 O365 1.259 1_565 S
C361 O366 1.250 . S
C361 O367 1.263 . S
O362 Tb354 2.427 . S
O362 C358 1.275 . S
O363 Tb354 2.513 . S
O363 C358 1.246 . S
O364 Tb354 2.453 1_565 S
O364 C360 1.245 . S
O365 Tb352 2.343 . S
O365 Tb354 2.596 . S
O365 C360 1.259 1_545 S
O366 Tb354 2.374 . S
O366 C361 1.250 . S
O367 Tb352 2.353 . S
O367 C361 1.263 . S
C368 O369 1.275 . S
C368 O370 1.246 . S
O369 Tb352 2.427 . S
O369 C368 1.275 . S
O370 Tb352 2.513 . S
O370 C368 1.246 . S
C371 O355 1.245 . S
C371 O356 1.259 . S
Tb372 O375 2.453 . S
Tb372 O376 2.596 . S
Tb372 O377 2.374 . S
Tb372 O385 2.343 . S
Tb372 O387 2.353 . S
Tb372 O389 2.427 . S
Tb372 O390 2.513 . S
C373 O377 1.251 . S
C373 O379 1.263 . S
Tb374 O376 2.343 . S
Tb374 O379 2.353 . S
Tb374 O382 2.427 . S
Tb374 O383 2.513 . S
Tb374 O384 2.453 . S
Tb374 O385 2.596 . S
Tb374 O386 2.374 . S
O375 Tb372 2.453 . S
O375 C391 1.245 . S
O376 Tb372 2.596 . S
O376 Tb374 2.343 . S
O376 C391 1.259 . S
O377 Tb372 2.374 . S
O377 C373 1.251 . S
C378 O382 1.275 . S
C378 O383 1.246 . S
O379 C373 1.263 . S
O379 Tb374 2.353 . S
C380 O384 1.245 . S
C380 O385 1.259 . S
C381 O386 1.250 . S
C381 O387 1.263 . S
O382 Tb374 2.427 . S
O382 C378 1.275 . S
O383 Tb374 2.513 . S
O383 C378 1.246 . S
O384 Tb374 2.453 . S
O384 C380 1.245 . S
O385 Tb372 2.343 . S
O385 Tb374 2.596 . S
O385 C380 1.259 . S
O386 Tb374 2.374 . S
O386 C381 1.250 . S
O387 Tb372 2.353 . S
O387 C381 1.263 . S
C388 O389 1.275 . S
C388 O390 1.246 . S
O389 Tb372 2.427 . S
O389 C388 1.275 . S
O390 Tb372 2.513 . S
O390 C388 1.246 . S
C391 O375 1.245 . S
C391 O376 1.259 . S
Tb392 O395 2.453 1_545 S
Tb392 O396 2.596 . S
Tb392 O397 2.374 1_455 S
Tb392 O405 2.343 . S
Tb392 O407 2.353 . S
Tb392 O409 2.427 . S
Tb392 O410 2.513 1_455 S
C393 O397 1.251 . S
C393 O399 1.263 . S
Tb394 O396 2.343 . S
Tb394 O399 2.353 1_455 S
Tb394 O402 2.427 . S
Tb394 O403 2.513 . S
Tb394 O404 2.453 . S
Tb394 O405 2.596 . S
Tb394 O406 2.374 . S
O395 Tb392 2.453 1_565 S
O395 C411 1.245 . S
O396 Tb392 2.596 . S
O396 Tb394 2.343 . S
O396 C411 1.259 1_545 S
O397 Tb392 2.374 1_655 S
O397 C393 1.251 . S
C398 O402 1.275 . S
C398 O403 1.246 . S
O399 C393 1.263 . S
O399 Tb394 2.353 1_655 S
C400 O404 1.245 . S
C400 O405 1.259 . S
C401 O406 1.250 . S
C401 O407 1.263 . S
O402 Tb394 2.427 . S
O402 C398 1.275 . S
O403 Tb394 2.513 . S
O403 C398 1.246 . S
O404 Tb394 2.453 . S
O404 C400 1.245 . S
O405 Tb392 2.343 . S
O405 Tb394 2.596 . S
O405 C400 1.259 . S
O406 Tb394 2.374 . S
O406 C401 1.250 . S
O407 Tb392 2.353 . S
O407 C401 1.263 . S
C408 O409 1.275 1_655 S
C408 O410 1.246 . S
O409 Tb392 2.427 . S
O409 C408 1.275 1_455 S
O410 Tb392 2.513 1_655 S
O410 C408 1.246 . S
C411 O395 1.245 . S
C411 O396 1.259 1_565 S
Tb412 O415 2.453 . S
Tb412 O416 2.596 . S
Tb412 O417 2.374 . S
Tb412 O425 2.343 . S
Tb412 O427 2.353 . S
Tb412 O429 2.427 . S
Tb412 O430 2.513 . S
C413 O417 1.251 . S
C413 O419 1.263 . S
Tb414 O416 2.343 . S
Tb414 O419 2.353 . S
Tb414 O422 2.427 . S
Tb414 O423 2.513 . S
Tb414 O424 2.453 . S
Tb414 O425 2.596 . S
Tb414 O426 2.374 . S
O415 Tb412 2.453 . S
O415 C431 1.245 . S
O416 Tb412 2.596 . S
O416 Tb414 2.343 . S
O416 C431 1.259 . S
O417 Tb412 2.374 . S
O417 C413 1.251 . S
C418 O422 1.275 . S
C418 O423 1.246 . S
O419 C413 1.263 . S
O419 Tb414 2.353 . S
C420 O424 1.245 . S
C420 O425 1.259 . S
C421 O426 1.250 . S
C421 O427 1.263 . S
O422 Tb414 2.427 . S
O422 C418 1.275 . S
O423 Tb414 2.513 . S
O423 C418 1.246 . S
O424 Tb414 2.453 . S
O424 C420 1.245 . S
O425 Tb412 2.343 . S
O425 Tb414 2.596 . S
O425 C420 1.259 . S
O426 Tb414 2.374 . S
O426 C421 1.250 . S
O427 Tb412 2.353 . S
O427 C421 1.263 . S
C428 O429 1.275 . S
C428 O430 1.246 . S
O429 Tb412 2.427 . S
O429 C428 1.275 . S
O430 Tb412 2.513 . S
O430 C428 1.246 . S
C431 O415 1.245 . S
C431 O416 1.259 . S
Tb432 O435 2.453 . S
Tb432 O436 2.596 . S
Tb432 O437 2.374 1_545 S
Tb432 O445 2.343 1_556 S
Tb432 O447 2.353 1_556 S
Tb432 O449 2.427 1_556 S
Tb432 O450 2.513 1_546 S
C433 O437 1.251 1_554 S
C433 O439 1.263 . S
Tb434 O436 2.343 1_554 S
Tb434 O439 2.353 1_545 S
Tb434 O442 2.427 . S
Tb434 O443 2.513 . S
Tb434 O444 2.453 . S
Tb434 O445 2.596 . S
Tb434 O446 2.374 . S
O435 Tb432 2.453 . S
O435 C451 1.245 . S
O436 Tb432 2.596 . S
O436 Tb434 2.343 1_556 S
O436 C451 1.259 . S
O437 Tb432 2.374 1_565 S
O437 C433 1.251 1_556 S
C438 O442 1.275 . S
C438 O443 1.246 . S
O439 C433 1.263 . S
O439 Tb434 2.353 1_565 S
C440 O444 1.245 . S
C440 O445 1.259 . S
C441 O446 1.250 . S
C441 O447 1.263 . S
O442 Tb434 2.427 . S
O442 C438 1.275 . S
O443 Tb434 2.513 . S
O443 C438 1.246 . S
O444 Tb434 2.453 . S
O444 C440 1.245 . S
O445 Tb432 2.343 1_554 S
O445 Tb434 2.596 . S
O445 C440 1.259 . S
O446 Tb434 2.374 . S
O446 C441 1.250 . S
O447 Tb432 2.353 1_554 S
O447 C441 1.263 . S
C448 O449 1.275 . S
C448 O450 1.246 1_545 S
O449 Tb432 2.427 1_554 S
O449 C448 1.275 . S
O450 Tb432 2.513 1_564 S
O450 C448 1.246 1_565 S
C451 O435 1.245 . S
C451 O436 1.259 . S
Tb452 O455 2.453 . S
Tb452 O456 2.596 . S
Tb452 O457 2.374 . S
Tb452 O465 2.343 . S
Tb452 O467 2.353 . S
Tb452 O469 2.427 . S
Tb452 O470 2.513 . S
C453 O457 1.251 . S
C453 O459 1.263 . S
Tb454 O456 2.343 . S
Tb454 O459 2.353 . S
Tb454 O462 2.427 . S
Tb454 O463 2.513 . S
Tb454 O464 2.453 . S
Tb454 O465 2.596 . S
Tb454 O466 2.374 . S
O455 Tb452 2.453 . S
O455 C471 1.245 . S
O456 Tb452 2.596 . S
O456 Tb454 2.343 . S
O456 C471 1.259 . S
O457 Tb452 2.374 . S
O457 C453 1.251 . S
C458 O462 1.275 . S
C458 O463 1.246 . S
O459 C453 1.263 . S
O459 Tb454 2.353 . S
C460 O464 1.245 . S
C460 O465 1.259 . S
C461 O466 1.250 . S
C461 O467 1.263 . S
O462 Tb454 2.427 . S
O462 C458 1.275 . S
O463 Tb454 2.513 . S
O463 C458 1.246 . S
O464 Tb454 2.453 . S
O464 C460 1.245 . S
O465 Tb452 2.343 . S
O465 Tb454 2.596 . S
O465 C460 1.259 . S
O466 Tb454 2.374 . S
O466 C461 1.250 . S
O467 Tb452 2.353 . S
O467 C461 1.263 . S
C468 O469 1.275 . S
C468 O470 1.246 . S
O469 Tb452 2.427 . S
O469 C468 1.275 . S
O470 Tb452 2.513 . S
O470 C468 1.246 . S
C471 O455 1.245 . S
C471 O456 1.259 . S
Tb472 O475 2.453 1_556 S
Tb472 O476 2.596 1_556 S
Tb472 O477 2.374 1_556 S
Tb472 O485 2.343 1_556 S
Tb472 O487 2.353 . S
Tb472 O489 2.427 . S
Tb472 O490 2.513 . S
C473 O477 1.251 . S
C473 O479 1.263 . S
Tb474 O476 2.343 . S
Tb474 O479 2.353 . S
Tb474 O482 2.427 . S
Tb474 O483 2.513 . S
Tb474 O484 2.453 . S
Tb474 O485 2.596 . S
Tb474 O486 2.374 . S
O475 Tb472 2.453 1_554 S
O475 C491 1.245 . S
O476 Tb472 2.596 1_554 S
O476 Tb474 2.343 . S
O476 C491 1.259 . S
O477 Tb472 2.374 1_554 S
O477 C473 1.251 . S
C478 O482 1.275 . S
C478 O483 1.246 . S
O479 C473 1.263 . S
O479 Tb474 2.353 . S
C480 O484 1.245 . S
C480 O485 1.259 . S
C481 O486 1.250 . S
C481 O487 1.263 1_554 S
O482 Tb474 2.427 . S
O482 C478 1.275 . S
O483 Tb474 2.513 . S
O483 C478 1.246 . S
O484 Tb474 2.453 . S
O484 C480 1.245 . S
O485 Tb472 2.343 1_554 S
O485 Tb474 2.596 . S
O485 C480 1.259 . S
O486 Tb474 2.374 . S
O486 C481 1.250 . S
O487 Tb472 2.353 . S
O487 C481 1.263 1_556 S
C488 O489 1.275 . S
C488 O490 1.246 . S
O489 Tb472 2.427 . S
O489 C488 1.275 . S
O490 Tb472 2.513 . S
O490 C488 1.246 . S
C491 O475 1.245 . S
C491 O476 1.259 . S
Tb492 O495 2.453 . S
Tb492 O496 2.596 . S
Tb492 O497 2.374 . S
Tb492 O505 2.343 . S
Tb492 O507 2.353 . S
Tb492 O509 2.427 . S
Tb492 O510 2.513 . S
C493 O497 1.251 . S
C493 O499 1.263 . S
Tb494 O496 2.343 . S
Tb494 O499 2.353 . S
Tb494 O502 2.427 . S
Tb494 O503 2.513 . S
Tb494 O504 2.453 . S
Tb494 O505 2.596 . S
Tb494 O506 2.374 . S
O495 Tb492 2.453 . S
O495 C511 1.245 . S
O496 Tb492 2.596 . S
O496 Tb494 2.343 . S
O496 C511 1.259 . S
O497 Tb492 2.374 . S
O497 C493 1.251 . S
C498 O502 1.275 . S
C498 O503 1.246 . S
O499 C493 1.263 . S
O499 Tb494 2.353 . S
C500 O504 1.245 . S
C500 O505 1.259 . S
C501 O506 1.250 . S
C501 O507 1.263 . S
O502 Tb494 2.427 . S
O502 C498 1.275 . S
O503 Tb494 2.513 . S
O503 C498 1.246 . S
O504 Tb494 2.453 . S
O504 C500 1.245 . S
O505 Tb492 2.343 . S
O505 Tb494 2.596 . S
O505 C500 1.259 . S
O506 Tb494 2.374 . S
O506 C501 1.250 . S
O507 Tb492 2.353 . S
O507 C501 1.263 . S
C508 O509 1.275 . S
C508 O510 1.246 . S
O509 Tb492 2.427 . S
O509 C508 1.275 . S
O510 Tb492 2.513 . S
O510 C508 1.246 . S
C511 O495 1.245 . S
C511 O496 1.259 . S
Tb512 O515 2.453 1_655 S
Tb512 O516 2.596 1_655 S
Tb512 O517 2.374 . S
Tb512 O525 2.343 . S
Tb512 O527 2.353 . S
Tb512 O529 2.427 . S
Tb512 O530 2.513 . S
C513 O517 1.251 1_455 S
C513 O519 1.263 . S
Tb514 O516 2.343 . S
Tb514 O519 2.353 . S
Tb514 O522 2.427 . S
Tb514 O523 2.513 . S
Tb514 O524 2.453 . S
Tb514 O525 2.596 1_455 S
Tb514 O526 2.374 . S
O515 Tb512 2.453 1_455 S
O515 C531 1.245 . S
O516 Tb512 2.596 1_455 S
O516 Tb514 2.343 . S
O516 C531 1.259 . S
O517 Tb512 2.374 . S
O517 C513 1.251 1_655 S
C518 O522 1.275 . S
C518 O523 1.246 . S
O519 C513 1.263 . S
O519 Tb514 2.353 . S
C520 O524 1.245 1_655 S
C520 O525 1.259 . S
C521 O526 1.250 . S
C521 O527 1.263 1_455 S
O522 Tb514 2.427 . S
O522 C518 1.275 . S
O523 Tb514 2.513 . S
O523 C518 1.246 . S
O524 Tb514 2.453 . S
O524 C520 1.245 1_455 S
O525 Tb512 2.343 . S
O525 Tb514 2.596 1_655 S
O525 C520 1.259 . S
O526 Tb514 2.374 . S
O526 C521 1.250 . S
O527 Tb512 2.353 . S
O527 C521 1.263 1_655 S
C528 O529 1.275 . S
C528 O530 1.246 . S
O529 Tb512 2.427 . S
O529 C528 1.275 . S
O530 Tb512 2.513 . S
O530 C528 1.246 . S
C531 O515 1.245 . S
C531 O516 1.259 . S
Tb532 O535 2.453 . S
Tb532 O536 2.596 . S
Tb532 O537 2.374 . S
Tb532 O545 2.343 . S
Tb532 O547 2.353 . S
Tb532 O549 2.427 . S
Tb532 O550 2.513 . S
C533 O537 1.251 . S
C533 O539 1.263 . S
Tb534 O536 2.343 . S
Tb534 O539 2.353 . S
Tb534 O542 2.427 . S
Tb534 O543 2.513 . S
Tb534 O544 2.453 . S
Tb534 O545 2.596 . S
Tb534 O546 2.374 . S
O535 Tb532 2.453 . S
O535 C551 1.245 . S
O536 Tb532 2.596 . S
O536 Tb534 2.343 . S
O536 C551 1.259 . S
O537 Tb532 2.374 . S
O537 C533 1.251 . S
C538 O542 1.275 . S
C538 O543 1.246 . S
O539 C533 1.263 . S
O539 Tb534 2.353 . S
C540 O544 1.245 . S
C540 O545 1.259 . S
C541 O546 1.250 . S
C541 O547 1.263 . S
O542 Tb534 2.427 . S
O542 C538 1.275 . S
O543 Tb534 2.513 . S
O543 C538 1.246 . S
O544 Tb534 2.453 . S
O544 C540 1.245 . S
O545 Tb532 2.343 . S
O545 Tb534 2.596 . S
O545 C540 1.259 . S
O546 Tb534 2.374 . S
O546 C541 1.250 . S
O547 Tb532 2.353 . S
O547 C541 1.263 . S
C548 O549 1.275 . S
C548 O550 1.246 . S
O549 Tb532 2.427 . S
O549 C548 1.275 . S
O550 Tb532 2.513 . S
O550 C548 1.246 . S
C551 O535 1.245 . S
C551 O536 1.259 . S
Tb552 O555 2.453 . S
Tb552 O556 2.596 . S
Tb552 O557 2.374 . S
Tb552 O565 2.343 . S
Tb552 O567 2.353 . S
Tb552 O569 2.427 . S
Tb552 O570 2.513 . S
C553 O557 1.251 . S
C553 O559 1.263 . S
Tb554 O556 2.343 . S
Tb554 O559 2.353 . S
Tb554 O562 2.427 . S
Tb554 O563 2.513 . S
Tb554 O564 2.453 . S
Tb554 O565 2.596 . S
Tb554 O566 2.374 . S
O555 Tb552 2.453 . S
O555 C571 1.245 . S
O556 Tb552 2.596 . S
O556 Tb554 2.343 . S
O556 C571 1.259 . S
O557 Tb552 2.374 . S
O557 C553 1.251 . S
C558 O562 1.275 . S
C558 O563 1.246 . S
O559 C553 1.263 . S
O559 Tb554 2.353 . S
C560 O564 1.245 . S
C560 O565 1.259 . S
C561 O566 1.250 . S
C561 O567 1.263 . S
O562 Tb554 2.427 . S
O562 C558 1.275 . S
O563 Tb554 2.513 . S
O563 C558 1.246 . S
O564 Tb554 2.453 . S
O564 C560 1.245 . S
O565 Tb552 2.343 . S
O565 Tb554 2.596 . S
O565 C560 1.259 . S
O566 Tb554 2.374 . S
O566 C561 1.250 . S
O567 Tb552 2.353 . S
O567 C561 1.263 . S
C568 O569 1.275 . S
C568 O570 1.246 . S
O569 Tb552 2.427 . S
O569 C568 1.275 . S
O570 Tb552 2.513 . S
O570 C568 1.246 . S
C571 O555 1.245 . S
C571 O556 1.259 . S
Tb572 O575 2.453 . S
Tb572 O576 2.596 . S
Tb572 O577 2.374 . S
Tb572 O585 2.343 . S
Tb572 O587 2.353 . S
Tb572 O589 2.427 . S
Tb572 O590 2.513 . S
C573 O577 1.251 . S
C573 O579 1.263 . S
Tb574 O576 2.343 . S
Tb574 O579 2.353 . S
Tb574 O582 2.427 . S
Tb574 O583 2.513 . S
Tb574 O584 2.453 . S
Tb574 O585 2.596 . S
Tb574 O586 2.374 . S
O575 Tb572 2.453 . S
O575 C591 1.245 . S
O576 Tb572 2.596 . S
O576 Tb574 2.343 . S
O576 C591 1.259 . S
O577 Tb572 2.374 . S
O577 C573 1.251 . S
C578 O582 1.275 . S
C578 O583 1.246 . S
O579 C573 1.263 . S
O579 Tb574 2.353 . S
C580 O584 1.245 . S
C580 O585 1.259 . S
C581 O586 1.250 . S
C581 O587 1.263 . S
O582 Tb574 2.427 . S
O582 C578 1.275 . S
O583 Tb574 2.513 . S
O583 C578 1.246 . S
O584 Tb574 2.453 . S
O584 C580 1.245 . S
O585 Tb572 2.343 . S
O585 Tb574 2.596 . S
O585 C580 1.259 . S
O586 Tb574 2.374 . S
O586 C581 1.250 . S
O587 Tb572 2.353 . S
O587 C581 1.263 . S
C588 O589 1.275 . S
C588 O590 1.246 . S
O589 Tb572 2.427 . S
O589 C588 1.275 . S
O590 Tb572 2.513 . S
O590 C588 1.246 . S
C591 O575 1.245 . S
C591 O576 1.259 . S
Tb592 O595 2.453 . S
Tb592 O596 2.596 . S
Tb592 O597 2.374 . S
Tb592 O605 2.343 . S
Tb592 O607 2.353 . S
Tb592 O609 2.427 . S
Tb592 O610 2.513 . S
C593 O597 1.251 . S
C593 O599 1.263 . S
Tb594 O596 2.343 . S
Tb594 O599 2.353 . S
Tb594 O602 2.427 . S
Tb594 O603 2.513 . S
Tb594 O604 2.453 . S
Tb594 O605 2.596 . S
Tb594 O606 2.374 . S
O595 Tb592 2.453 . S
O595 C611 1.245 . S
O596 Tb592 2.596 . S
O596 Tb594 2.343 . S
O596 C611 1.259 . S
O597 Tb592 2.374 . S
O597 C593 1.251 . S
C598 O602 1.275 . S
C598 O603 1.246 . S
O599 C593 1.263 . S
O599 Tb594 2.353 . S
C600 O604 1.245 . S
C600 O605 1.259 . S
C601 O606 1.250 . S
C601 O607 1.263 . S
O602 Tb594 2.427 . S
O602 C598 1.275 . S
O603 Tb594 2.513 . S
O603 C598 1.246 . S
O604 Tb594 2.453 . S
O604 C600 1.245 . S
O605 Tb592 2.343 . S
O605 Tb594 2.596 . S
O605 C600 1.259 . S
O606 Tb594 2.374 . S
O606 C601 1.250 . S
O607 Tb592 2.353 . S
O607 C601 1.263 . S
C608 O609 1.275 . S
C608 O610 1.246 . S
O609 Tb592 2.427 . S
O609 C608 1.275 . S
O610 Tb592 2.513 . S
O610 C608 1.246 . S
C611 O595 1.245 . S
C611 O596 1.259 . S
Tb612 O615 2.453 . S
Tb612 O616 2.596 . S
Tb612 O617 2.374 . S
Tb612 O625 2.343 . S
Tb612 O627 2.353 1_554 S
Tb612 O629 2.427 1_554 S
Tb612 O630 2.513 . S
C613 O617 1.251 . S
C613 O619 1.226 1_455 S
Tb614 O616 2.343 1_655 S
Tb614 O619 2.374 . S
Tb614 O622 2.427 . S
Tb614 O623 2.513 . S
Tb614 O624 2.453 . S
Tb614 O625 2.596 1_655 S
Tb614 O626 2.374 1_554 S
O615 Tb612 2.453 . S
O615 C631 1.245 . S
O616 Tb612 2.596 . S
O616 Tb614 2.343 1_455 S
O616 C631 1.259 . S
O617 Tb612 2.374 . S
O617 C613 1.251 . S
C618 O622 1.275 . S
C618 O623 1.246 . S
O619 C613 1.226 1_655 S
O619 Tb614 2.374 . S
C620 O624 1.245 1_456 S
C620 O625 1.259 1_556 S
C621 O626 1.250 1_455 S
C621 O627 1.263 . S
O622 Tb614 2.427 . S
O622 C618 1.275 . S
O623 Tb614 2.513 . S
O623 C618 1.246 . S
O624 Tb614 2.453 . S
O624 C620 1.245 1_654 S
O625 Tb612 2.343 . S
O625 Tb614 2.596 1_455 S
O625 C620 1.259 1_554 S
O626 Tb614 2.374 1_556 S
O626 C621 1.250 1_655 S
O627 Tb612 2.353 1_556 S
O627 C621 1.263 . S
C628 O629 1.275 . S
C628 O630 1.246 1_556 S
O629 Tb612 2.427 1_556 S
O629 C628 1.275 . S
O630 Tb612 2.513 . S
O630 C628 1.246 1_554 S
C631 O615 1.245 . S
C631 O616 1.259 . S
H632 C644 0.930 . S
H633 C646 0.930 . S
H634 C647 0.930 . S
H635 C651 0.959 . S
H636 C651 0.959 1_554 S
H637 C651 0.961 . S
H638 C652 0.962 . S
H639 C652 0.921 1_454 S
H640 C652 0.968 . S
H641 C655 0.929 . S
H642 C656 0.931 . S
H643 C658 0.930 1_554 S
C644 H632 0.930 . S
C644 C645 1.399 . S
C644 C649 1.399 . S
C645 C644 1.399 . S
C645 C646 1.376 1_455 S
C646 H633 0.930 . S
C646 C645 1.376 1_655 S
C646 C647 1.388 . S
C647 H634 0.930 . S
C647 C646 1.388 . S
C647 C648 1.390 . S
C648 C647 1.390 . S
C648 C649 1.394 1_655 S
C648 C654 1.465 . S
C649 C644 1.399 . S
C649 C648 1.394 1_455 S
C649 C650 1.516 . S
C650 C649 1.516 . S
C650 C651 1.502 . S
C650 C652 1.591 1_455 S
C650 C653 1.526 . S
C651 H635 0.959 . S
C651 H636 0.959 1_556 S
C651 H637 0.961 . S
C651 C650 1.502 . S
C652 H638 0.962 . S
C652 H639 0.921 1_656 S
C652 H640 0.968 . S
C652 C650 1.591 1_655 S
C653 C650 1.526 . S
C653 C654 1.396 1_455 S
C653 C658 1.390 . S
C654 C648 1.465 . S
C654 C653 1.396 1_655 S
C654 C655 1.399 . S
C655 H641 0.929 . S
C655 C654 1.399 . S
C655 C656 1.385 . S
C656 H642 0.931 . S
C656 C655 1.385 . S
C656 C657 1.375 1_655 S
C657 C656 1.375 1_455 S
C657 C658 1.394 . S
C658 H643 0.930 1_556 S
C658 C653 1.390 . S
C658 C657 1.394 . S
H659 C671 0.930 . S
H660 C673 0.930 . S
H661 C674 0.930 . S
H662 C678 0.959 . S
H663 C678 0.959 . S
H664 C678 0.961 . S
H665 C679 0.960 . S
H666 C679 0.961 . S
H667 C679 0.959 . S
H668 C682 0.929 . S
H669 C683 0.931 . S
H670 C685 0.930 . S
C671 H659 0.930 . S
C671 C672 1.399 . S
C671 C676 1.399 . S
C672 C671 1.399 . S
C672 C673 1.376 . S
C673 H660 0.930 . S
C673 C672 1.376 . S
C673 C674 1.388 . S
C674 H661 0.930 . S
C674 C673 1.388 . S
C674 C675 1.390 . S
C675 C674 1.390 . S
C675 C676 1.394 . S
C675 C681 1.465 . S
C676 C671 1.399 . S
C676 C675 1.394 . S
C676 C677 1.516 . S
C677 C676 1.516 . S
C677 C678 1.502 . S
C677 C679 1.561 . S
C677 C680 1.526 . S
C678 H662 0.959 . S
C678 H663 0.959 . S
C678 H664 0.961 . S
C678 C677 1.502 . S
C679 H665 0.960 . S
C679 H666 0.961 . S
C679 H667 0.959 . S
C679 C677 1.561 . S
C680 C677 1.526 . S
C680 C681 1.396 . S
C680 C685 1.390 . S
C681 C675 1.465 . S
C681 C680 1.396 . S
C681 C682 1.399 . S
C682 H668 0.929 . S
C682 C681 1.399 . S
C682 C683 1.385 . S
C683 H669 0.931 . S
C683 C682 1.385 . S
C683 C684 1.389 . S
C684 C683 1.389 . S
C684 C685 1.387 . S
C685 H670 0.930 . S
C685 C680 1.390 . S
C685 C684 1.387 . S
H686 C698 0.930 . S
H687 C700 0.930 . S
H688 C701 0.930 . S
H689 C705 0.959 . S
H690 C705 0.959 . S
H691 C705 0.961 . S
H692 C706 0.960 . S
H693 C706 0.961 . S
H694 C706 0.959 . S
H695 C709 0.929 . S
H696 C710 0.931 . S
H697 C712 0.930 . S
C698 H686 0.930 . S
C698 C699 1.399 . S
C698 C703 1.399 . S
C699 C698 1.399 . S
C699 C700 1.376 . S
C700 H687 0.930 . S
C700 C699 1.376 . S
C700 C701 1.388 . S
C701 H688 0.930 . S
C701 C700 1.388 . S
C701 C702 1.390 . S
C702 C701 1.390 . S
C702 C703 1.394 . S
C702 C708 1.465 . S
C703 C698 1.399 . S
C703 C702 1.394 . S
C703 C704 1.516 . S
C704 C703 1.516 . S
C704 C705 1.502 . S
C704 C706 1.561 . S
C704 C707 1.526 . S
C705 H689 0.959 . S
C705 H690 0.959 . S
C705 H691 0.961 . S
C705 C704 1.502 . S
C706 H692 0.960 . S
C706 H693 0.961 . S
C706 H694 0.959 . S
C706 C704 1.561 . S
C707 C704 1.526 . S
C707 C708 1.396 . S
C707 C712 1.390 . S
C708 C702 1.465 . S
C708 C707 1.396 . S
C708 C709 1.399 . S
C709 H695 0.929 . S
C709 C708 1.399 . S
C709 C710 1.385 . S
C710 H696 0.931 . S
C710 C709 1.385 . S
C710 C711 1.389 . S
C711 C710 1.389 . S
C711 C712 1.387 . S
C712 H697 0.930 . S
C712 C707 1.390 . S
C712 C711 1.387 . S
H713 C725 0.930 . S
H714 C727 0.930 . S
H715 C728 0.930 . S
H716 C732 0.959 . S
H717 C732 0.959 . S
H718 C732 0.961 . S
H719 C733 0.960 . S
H720 C733 0.961 . S
H721 C733 0.959 . S
H722 C736 0.929 . S
H723 C737 0.931 . S
H724 C739 0.930 . S
C725 H713 0.930 . S
C725 C726 1.399 . S
C725 C730 1.399 . S
C726 C725 1.399 . S
C726 C727 1.376 . S
C727 H714 0.930 . S
C727 C726 1.376 . S
C727 C728 1.388 . S
C728 H715 0.930 . S
C728 C727 1.388 . S
C728 C729 1.390 . S
C729 C728 1.390 . S
C729 C730 1.394 . S
C729 C735 1.465 . S
C730 C725 1.399 . S
C730 C729 1.394 . S
C730 C731 1.516 . S
C731 C730 1.516 . S
C731 C732 1.502 . S
C731 C733 1.561 . S
C731 C734 1.526 . S
C732 H716 0.959 . S
C732 H717 0.959 . S
C732 H718 0.961 . S
C732 C731 1.502 . S
C733 H719 0.960 . S
C733 H720 0.961 . S
C733 H721 0.959 . S
C733 C731 1.561 . S
C734 C731 1.526 . S
C734 C735 1.396 . S
C734 C739 1.390 . S
C735 C729 1.465 . S
C735 C734 1.396 . S
C735 C736 1.399 . S
C736 H722 0.929 . S
C736 C735 1.399 . S
C736 C737 1.385 . S
C737 H723 0.931 . S
C737 C736 1.385 . S
C737 C738 1.389 . S
C738 C737 1.389 . S
C738 C739 1.387 . S
C739 H724 0.930 . S
C739 C734 1.390 . S
C739 C738 1.387 . S
H740 C752 0.930 . S
H741 C754 0.930 . S
H742 C755 0.930 . S
H743 C759 0.959 . S
H744 C759 0.959 . S
H745 C759 0.961 . S
H746 C760 0.960 . S
H747 C760 0.961 . S
H748 C760 0.959 1_455 S
H749 C763 0.929 . S
H750 C764 0.931 . S
H751 C766 0.930 . S
C752 H740 0.930 . S
C752 C753 1.399 1_655 S
C752 C757 1.399 . S
C753 C752 1.399 1_455 S
C753 C754 1.376 . S
C754 H741 0.930 . S
C754 C753 1.376 . S
C754 C755 1.388 . S
C755 H742 0.930 . S
C755 C754 1.388 . S
C755 C756 1.390 . S
C756 C755 1.390 . S
C756 C757 1.394 1_455 S
C756 C762 1.465 . S
C757 C752 1.399 . S
C757 C756 1.394 1_655 S
C757 C758 1.516 . S
C758 C757 1.516 . S
C758 C759 1.502 . S
C758 C760 1.561 . S
C758 C761 1.526 1_655 S
C759 H743 0.959 . S
C759 H744 0.959 . S
C759 H745 0.961 . S
C759 C758 1.502 . S
C760 H746 0.960 . S
C760 H747 0.961 . S
C760 H748 0.959 1_655 S
C760 C758 1.561 . S
C761 C758 1.526 1_455 S
C761 C762 1.396 . S
C761 C766 1.390 1_455 S
C762 C756 1.465 . S
C762 C761 1.396 . S
C762 C763 1.399 . S
C763 H749 0.929 . S
C763 C762 1.399 . S
C763 C764 1.385 . S
C764 H750 0.931 . S
C764 C763 1.385 . S
C764 C765 1.389 . S
C765 C764 1.389 . S
C765 C766 1.387 1_455 S
C766 H751 0.930 . S
C766 C761 1.390 1_655 S
C766 C765 1.387 1_655 S
H767 C779 0.930 . S
H768 C781 0.930 . S
H769 C782 0.930 . S
H770 C786 0.959 . S
H771 C786 0.959 . S
H772 C786 0.961 . S
H773 C787 0.960 . S
H774 C787 0.961 . S
H775 C787 0.959 . S
H776 C790 0.929 . S
H777 C791 0.931 . S
H778 C793 0.930 . S
C779 H767 0.930 . S
C779 C780 1.399 . S
C779 C784 1.399 . S
C780 C779 1.399 . S
C780 C781 1.376 . S
C781 H768 0.930 . S
C781 C780 1.376 . S
C781 C782 1.388 . S
C782 H769 0.930 . S
C782 C781 1.388 . S
C782 C783 1.390 . S
C783 C782 1.390 . S
C783 C784 1.394 . S
C783 C789 1.465 . S
C784 C779 1.399 . S
C784 C783 1.394 . S
C784 C785 1.516 . S
C785 C784 1.516 . S
C785 C786 1.502 . S
C785 C787 1.561 . S
C785 C788 1.526 . S
C786 H770 0.959 . S
C786 H771 0.959 . S
C786 H772 0.961 . S
C786 C785 1.502 . S
C787 H773 0.960 . S
C787 H774 0.961 . S
C787 H775 0.959 . S
C787 C785 1.561 . S
C788 C785 1.526 . S
C788 C789 1.396 . S
C788 C793 1.390 . S
C789 C783 1.465 . S
C789 C788 1.396 . S
C789 C790 1.399 . S
C790 H776 0.929 . S
C790 C789 1.399 . S
C790 C791 1.385 . S
C791 H777 0.931 . S
C791 C790 1.385 . S
C791 C792 1.389 . S
C792 C791 1.389 . S
C792 C793 1.387 . S
C793 H778 0.930 . S
C793 C788 1.390 . S
C793 C792 1.387 . S
H794 C806 0.930 . S
H795 C808 0.930 . S
H796 C809 0.930 . S
H797 C813 0.959 . S
H798 C813 0.959 . S
H799 C813 0.961 . S
H800 C814 0.960 . S
H801 C814 0.961 . S
H802 C814 0.959 . S
H803 C817 0.929 . S
H804 C818 0.931 . S
H805 C820 0.930 . S
C806 H794 0.930 . S
C806 C807 1.399 . S
C806 C811 1.399 . S
C807 C806 1.399 . S
C807 C808 1.376 . S
C808 H795 0.930 . S
C808 C807 1.376 . S
C808 C809 1.388 . S
C809 H796 0.930 . S
C809 C808 1.388 . S
C809 C810 1.390 . S
C810 C809 1.390 . S
C810 C811 1.394 . S
C810 C816 1.465 . S
C811 C806 1.399 . S
C811 C810 1.394 . S
C811 C812 1.516 . S
C812 C811 1.516 . S
C812 C813 1.502 . S
C812 C814 1.561 . S
C812 C815 1.526 . S
C813 H797 0.959 . S
C813 H798 0.959 . S
C813 H799 0.961 . S
C813 C812 1.502 . S
C814 H800 0.960 . S
C814 H801 0.961 . S
C814 H802 0.959 . S
C814 C812 1.561 . S
C815 C812 1.526 . S
C815 C816 1.396 . S
C815 C820 1.390 . S
C816 C810 1.465 . S
C816 C815 1.396 . S
C816 C817 1.399 . S
C817 H803 0.929 . S
C817 C816 1.399 . S
C817 C818 1.385 . S
C818 H804 0.931 . S
C818 C817 1.385 . S
C818 C819 1.389 . S
C819 C818 1.389 . S
C819 C820 1.387 . S
C820 H805 0.930 . S
C820 C815 1.390 . S
C820 C819 1.387 . S
H821 C833 0.930 . S
H822 C835 0.930 . S
H823 C836 0.930 . S
H824 C840 0.959 . S
H825 C840 0.959 . S
H826 C840 0.961 . S
H827 C841 0.960 . S
H828 C841 0.961 . S
H829 C841 0.959 . S
H830 C844 0.929 . S
H831 C845 0.931 . S
H832 C847 0.930 . S
C833 H821 0.930 . S
C833 C834 1.399 . S
C833 C838 1.399 . S
C834 C833 1.399 . S
C834 C835 1.376 . S
C835 H822 0.930 . S
C835 C834 1.376 . S
C835 C836 1.388 . S
C836 H823 0.930 . S
C836 C835 1.388 . S
C836 C837 1.390 . S
C837 C836 1.390 . S
C837 C838 1.394 . S
C837 C843 1.465 . S
C838 C833 1.399 . S
C838 C837 1.394 . S
C838 C839 1.516 . S
C839 C838 1.516 . S
C839 C840 1.502 . S
C839 C841 1.561 . S
C839 C842 1.526 . S
C840 H824 0.959 . S
C840 H825 0.959 . S
C840 H826 0.961 . S
C840 C839 1.502 . S
C841 H827 0.960 . S
C841 H828 0.961 . S
C841 H829 0.959 . S
C841 C839 1.561 . S
C842 C839 1.526 . S
C842 C843 1.396 . S
C842 C847 1.390 . S
C843 C837 1.465 . S
C843 C842 1.396 . S
C843 C844 1.399 . S
C844 H830 0.929 . S
C844 C843 1.399 . S
C844 C845 1.385 . S
C845 H831 0.931 . S
C845 C844 1.385 . S
C845 C846 1.389 . S
C846 C845 1.389 . S
C846 C847 1.387 . S
C847 H832 0.930 . S
C847 C842 1.390 . S
C847 C846 1.387 . S
H848 C860 0.930 . S
H849 C862 0.930 . S
H850 C863 0.930 . S
H851 C867 0.959 . S
H852 C867 0.959 . S
H853 C867 0.961 . S
H854 C868 0.960 . S
H855 C868 0.961 . S
H856 C868 0.959 . S
H857 C871 0.929 . S
H858 C872 0.931 1_455 S
H859 C874 0.930 . S
C860 H848 0.930 . S
C860 C861 1.399 . S
C860 C865 1.399 . S
C861 C860 1.399 . S
C861 C862 1.376 . S
C862 H849 0.930 . S
C862 C861 1.376 . S
C862 C863 1.388 . S
C863 H850 0.930 . S
C863 C862 1.388 . S
C863 C864 1.390 . S
C864 C863 1.390 . S
C864 C865 1.394 . S
C864 C870 1.465 . S
C865 C860 1.399 . S
C865 C864 1.394 . S
C865 C866 1.516 . S
C866 C865 1.516 . S
C866 C867 1.502 . S
C866 C868 1.561 . S
C866 C869 1.526 . S
C867 H851 0.959 . S
C867 H852 0.959 . S
C867 H853 0.961 . S
C867 C866 1.502 . S
C868 H854 0.960 . S
C868 H855 0.961 . S
C868 H856 0.959 . S
C868 C866 1.561 . S
C869 C866 1.526 . S
C869 C870 1.396 . S
C869 C874 1.390 . S
C870 C864 1.465 . S
C870 C869 1.396 . S
C870 C871 1.399 . S
C871 H857 0.929 . S
C871 C870 1.399 . S
C871 C872 1.385 . S
C872 H858 0.931 1_655 S
C872 C871 1.385 . S
C872 C873 1.389 . S
C873 C872 1.389 . S
C873 C874 1.387 . S
C874 H859 0.930 . S
C874 C869 1.390 . S
C874 C873 1.387 . S
H875 C887 0.930 . S
H876 C889 0.930 . S
H877 C890 0.930 . S
H878 C894 0.959 . S
H879 C894 0.959 . S
H880 C894 0.961 . S
H881 C895 0.960 . S
H882 C895 0.961 . S
H883 C895 0.959 . S
H884 C898 0.929 . S
H885 C899 0.931 . S
H886 C901 0.930 . S
C887 H875 0.930 . S
C887 C888 1.399 . S
C887 C892 1.399 . S
C888 C887 1.399 . S
C888 C889 1.376 . S
C889 H876 0.930 . S
C889 C888 1.376 . S
C889 C890 1.388 . S
C890 H877 0.930 . S
C890 C889 1.388 . S
C890 C891 1.390 . S
C891 C890 1.390 . S
C891 C892 1.394 . S
C891 C897 1.465 . S
C892 C887 1.399 . S
C892 C891 1.394 . S
C892 C893 1.516 . S
C893 C892 1.516 . S
C893 C894 1.502 . S
C893 C895 1.561 . S
C893 C896 1.526 . S
C894 H878 0.959 . S
C894 H879 0.959 . S
C894 H880 0.961 . S
C894 C893 1.502 . S
C895 H881 0.960 . S
C895 H882 0.961 . S
C895 H883 0.959 . S
C895 C893 1.561 . S
C896 C893 1.526 . S
C896 C897 1.396 . S
C896 C901 1.390 . S
C897 C891 1.465 . S
C897 C896 1.396 . S
C897 C898 1.399 . S
C898 H884 0.929 . S
C898 C897 1.399 . S
C898 C899 1.385 . S
C899 H885 0.931 . S
C899 C898 1.385 . S
C899 C900 1.389 . S
C900 C899 1.389 . S
C900 C901 1.387 . S
C901 H886 0.930 . S
C901 C896 1.390 . S
C901 C900 1.387 . S
H902 C914 0.930 . S
H903 C916 0.930 . S
H904 C917 0.930 . S
H905 C921 0.959 . S
H906 C921 0.959 . S
H907 C921 0.961 . S
H908 C922 0.960 . S
H909 C922 0.961 . S
H910 C922 0.959 . S
H911 C925 0.929 . S
H912 C926 0.931 . S
H913 C928 0.930 1_565 S
C914 H902 0.930 . S
C914 C915 1.399 1_565 S
C914 C919 1.399 1_565 S
C915 C914 1.399 1_545 S
C915 C916 1.376 . S
C916 H903 0.930 . S
C916 C915 1.376 . S
C916 C917 1.388 . S
C917 H904 0.930 . S
C917 C916 1.388 . S
C917 C918 1.390 . S
C918 C917 1.390 . S
C918 C919 1.394 . S
C918 C924 1.465 . S
C919 C914 1.399 1_545 S
C919 C918 1.394 . S
C919 C920 1.516 1_545 S
C920 C919 1.516 1_565 S
C920 C921 1.502 . S
C920 C922 1.561 . S
C920 C923 1.526 1_565 S
C921 H905 0.959 . S
C921 H906 0.959 . S
C921 H907 0.961 . S
C921 C920 1.502 . S
C922 H908 0.960 . S
C922 H909 0.961 . S
C922 H910 0.959 . S
C922 C920 1.561 . S
C923 C920 1.526 1_545 S
C923 C924 1.396 . S
C923 C928 1.390 . S
C924 C918 1.465 . S
C924 C923 1.396 . S
C924 C925 1.399 . S
C925 H911 0.929 . S
C925 C924 1.399 . S
C925 C926 1.385 . S
C926 H912 0.931 . S
C926 C925 1.385 . S
C926 C927 1.389 . S
C927 C926 1.389 . S
C927 C928 1.387 . S
C928 H913 0.930 1_545 S
C928 C923 1.390 . S
C928 C927 1.387 . S
H929 C941 0.930 . S
H930 C943 0.930 . S
H931 C944 0.930 . S
H932 C948 0.959 . S
H933 C948 0.959 . S
H934 C948 0.961 . S
H935 C949 0.960 . S
H936 C949 0.961 . S
H937 C949 0.959 . S
H938 C952 0.929 . S
H939 C953 0.931 . S
H940 C955 0.930 . S
C941 H929 0.930 . S
C941 C942 1.399 . S
C941 C946 1.399 . S
C942 C941 1.399 . S
C942 C943 1.376 . S
C943 H930 0.930 . S
C943 C942 1.376 . S
C943 C944 1.388 . S
C944 H931 0.930 . S
C944 C943 1.388 . S
C944 C945 1.390 . S
C945 C944 1.390 . S
C945 C946 1.394 . S
C945 C951 1.465 . S
C946 C941 1.399 . S
C946 C945 1.394 . S
C946 C947 1.516 . S
C947 C946 1.516 . S
C947 C948 1.502 . S
C947 C949 1.561 . S
C947 C950 1.526 . S
C948 H932 0.959 . S
C948 H933 0.959 . S
C948 H934 0.961 . S
C948 C947 1.502 . S
C949 H935 0.960 . S
C949 H936 0.961 . S
C949 H937 0.959 . S
C949 C947 1.561 . S
C950 C947 1.526 . S
C950 C951 1.396 . S
C950 C955 1.390 . S
C951 C945 1.465 . S
C951 C950 1.396 . S
C951 C952 1.399 . S
C952 H938 0.929 . S
C952 C951 1.399 . S
C952 C953 1.385 . S
C953 H939 0.931 . S
C953 C952 1.385 . S
C953 C954 1.389 . S
C954 C953 1.389 . S
C954 C955 1.387 . S
C955 H940 0.930 . S
C955 C950 1.390 . S
C955 C954 1.387 . S
H956 C968 0.930 . S
H957 C970 0.930 . S
H958 C971 0.930 . S
H959 C975 0.959 . S
H960 C975 0.959 1_565 S
H961 C975 0.960 1_565 S
H962 C976 0.969 . S
H963 C976 0.961 1_565 S
H964 C976 0.959 . S
H965 C979 0.929 . S
H966 C980 0.931 . S
H967 C982 0.930 . S
C968 H956 0.930 . S
C968 C969 1.399 . S
C968 C973 1.399 . S
C969 C968 1.399 . S
C969 C970 1.376 . S
C970 H957 0.930 . S
C970 C969 1.376 . S
C970 C971 1.388 . S
C971 H958 0.930 . S
C971 C970 1.388 . S
C971 C972 1.390 . S
C972 C971 1.390 . S
C972 C973 1.394 . S
C972 C978 1.465 . S
C973 C968 1.399 . S
C973 C972 1.394 . S
C973 C974 1.516 . S
C974 C973 1.516 . S
C974 C975 1.502 . S
C974 C976 1.561 . S
C974 C977 1.526 . S
C975 H959 0.959 . S
C975 H960 0.959 1_545 S
C975 H961 0.960 1_545 S
C975 C974 1.502 . S
C976 H962 0.969 . S
C976 H963 0.961 1_545 S
C976 H964 0.959 . S
C976 C974 1.561 . S
C977 C974 1.526 . S
C977 C978 1.396 . S
C977 C982 1.390 . S
C978 C972 1.465 . S
C978 C977 1.396 . S
C978 C979 1.399 . S
C979 H965 0.929 . S
C979 C978 1.399 . S
C979 C980 1.385 . S
C980 H966 0.931 . S
C980 C979 1.385 . S
C980 C981 1.389 . S
C981 C980 1.389 . S
C981 C982 1.387 . S
C982 H967 0.930 . S
C982 C977 1.390 . S
C982 C981 1.387 . S
H983 C995 0.930 . S
H984 C997 0.930 . S
H985 C998 0.930 . S
H986 C1002 0.959 . S
H987 C1002 0.959 . S
H988 C1002 0.961 . S
H989 C1003 0.960 . S
H990 C1003 0.961 . S
H991 C1003 0.959 . S
H992 C1006 0.929 . S
H993 C1007 0.931 . S
H994 C1009 0.930 . S
C995 H983 0.930 . S
C995 C996 1.399 . S
C995 C1000 1.399 . S
C996 C995 1.399 . S
C996 C997 1.376 . S
C997 H984 0.930 . S
C997 C996 1.376 . S
C997 C998 1.388 . S
C998 H985 0.930 . S
C998 C997 1.388 . S
C998 C999 1.390 . S
C999 C998 1.390 . S
C999 C1000 1.394 . S
C999 C1005 1.465 . S
C1000 C995 1.399 . S
C1000 C999 1.394 . S
C1000 C1001 1.516 . S
C1001 C1000 1.516 . S
C1001 C1002 1.502 . S
C1001 C1003 1.561 . S
C1001 C1004 1.526 . S
C1002 H986 0.959 . S
C1002 H987 0.959 . S
C1002 H988 0.961 . S
C1002 C1001 1.502 . S
C1003 H989 0.960 . S
C1003 H990 0.961 . S
C1003 H991 0.959 . S
C1003 C1001 1.561 . S
C1004 C1001 1.526 . S
C1004 C1005 1.396 . S
C1004 C1009 1.390 . S
C1005 C999 1.465 . S
C1005 C1004 1.396 . S
C1005 C1006 1.399 . S
C1006 H992 0.929 . S
C1006 C1005 1.399 . S
C1006 C1007 1.385 . S
C1007 H993 0.931 . S
C1007 C1006 1.385 . S
C1007 C1008 1.389 . S
C1008 C1007 1.389 . S
C1008 C1009 1.387 . S
C1009 H994 0.930 . S
C1009 C1004 1.390 . S
C1009 C1008 1.387 . S
H1010 C1022 0.930 . S
H1011 C1024 0.930 . S
H1012 C1025 0.930 . S
H1013 C1029 0.959 . S
H1014 C1029 0.959 . S
H1015 C1029 0.961 . S
H1016 C1030 0.960 . S
H1017 C1030 0.961 . S
H1018 C1030 0.959 . S
H1019 C1033 0.929 . S
H1020 C1034 0.931 . S
H1021 C1036 0.930 1_565 S
C1022 H1010 0.930 . S
C1022 C1023 1.399 1_565 S
C1022 C1027 1.399 1_565 S
C1023 C1022 1.399 1_545 S
C1023 C1024 1.376 . S
C1024 H1011 0.930 . S
C1024 C1023 1.376 . S
C1024 C1025 1.388 . S
C1025 H1012 0.930 . S
C1025 C1024 1.388 . S
C1025 C1026 1.390 . S
C1026 C1025 1.390 . S
C1026 C1027 1.394 . S
C1026 C1032 1.465 . S
C1027 C1022 1.399 1_545 S
C1027 C1026 1.394 . S
C1027 C1028 1.516 1_545 S
C1028 C1027 1.516 1_565 S
C1028 C1029 1.502 . S
C1028 C1030 1.561 . S
C1028 C1031 1.526 1_565 S
C1029 H1013 0.959 . S
C1029 H1014 0.959 . S
C1029 H1015 0.961 . S
C1029 C1028 1.502 . S
C1030 H1016 0.960 . S
C1030 H1017 0.961 . S
C1030 H1018 0.959 . S
C1030 C1028 1.561 . S
C1031 C1028 1.526 1_545 S
C1031 C1032 1.396 . S
C1031 C1036 1.390 . S
C1032 C1026 1.465 . S
C1032 C1031 1.396 . S
C1032 C1033 1.399 . S
C1033 H1019 0.929 . S
C1033 C1032 1.399 . S
C1033 C1034 1.385 . S
C1034 H1020 0.931 . S
C1034 C1033 1.385 . S
C1034 C1035 1.389 . S
C1035 C1034 1.389 . S
C1035 C1036 1.387 . S
C1036 H1021 0.930 1_545 S
C1036 C1031 1.390 . S
C1036 C1035 1.387 . S
H1037 C1049 0.930 . S
H1038 C1051 0.930 . S
H1039 C1052 0.930 . S
H1040 C1056 0.959 . S
H1041 C1056 0.959 . S
H1042 C1056 0.961 . S
H1043 C1057 0.960 . S
H1044 C1057 0.961 . S
H1045 C1057 0.959 . S
H1046 C1060 0.929 . S
H1047 C1061 0.931 . S
H1048 C1063 0.930 . S
C1049 H1037 0.930 . S
C1049 C1050 1.399 . S
C1049 C1054 1.399 . S
C1050 C1049 1.399 . S
C1050 C1051 1.376 . S
C1051 H1038 0.930 . S
C1051 C1050 1.376 . S
C1051 C1052 1.388 . S
C1052 H1039 0.930 . S
C1052 C1051 1.388 . S
C1052 C1053 1.390 . S
C1053 C1052 1.390 . S
C1053 C1054 1.394 . S
C1053 C1059 1.465 . S
C1054 C1049 1.399 . S
C1054 C1053 1.394 . S
C1054 C1055 1.516 . S
C1055 C1054 1.516 . S
C1055 C1056 1.502 . S
C1055 C1057 1.561 . S
C1055 C1058 1.526 . S
C1056 H1040 0.959 . S
C1056 H1041 0.959 . S
C1056 H1042 0.961 . S
C1056 C1055 1.502 . S
C1057 H1043 0.960 . S
C1057 H1044 0.961 . S
C1057 H1045 0.959 . S
C1057 C1055 1.561 . S
C1058 C1055 1.526 . S
C1058 C1059 1.396 . S
C1058 C1063 1.390 . S
C1059 C1053 1.465 . S
C1059 C1058 1.396 . S
C1059 C1060 1.399 . S
C1060 H1046 0.929 . S
C1060 C1059 1.399 . S
C1060 C1061 1.385 . S
C1061 H1047 0.931 . S
C1061 C1060 1.385 . S
C1061 C1062 1.389 . S
C1062 C1061 1.389 . S
C1062 C1063 1.387 . S
C1063 H1048 0.930 . S
C1063 C1058 1.390 . S
C1063 C1062 1.387 . S
H1064 C1076 0.930 1_556 S
H1065 C1078 0.930 . S
H1066 C1079 0.930 . S
H1067 C1083 0.959 1_554 S
H1068 C1083 0.959 . S
H1069 C1083 0.958 1_565 S
H1070 C1084 0.960 . S
H1071 C1084 0.961 . S
H1072 C1084 0.959 . S
H1073 C1087 0.929 . S
H1074 C1088 0.931 . S
H1075 C1090 0.930 1_546 S
C1076 H1064 0.930 1_554 S
C1076 C1077 1.399 . S
C1076 C1081 1.399 . S
C1077 C1076 1.399 . S
C1077 C1078 1.376 . S
C1078 H1065 0.930 . S
C1078 C1077 1.376 . S
C1078 C1079 1.388 . S
C1079 H1066 0.930 . S
C1079 C1078 1.388 . S
C1079 C1080 1.390 . S
C1080 C1079 1.390 . S
C1080 C1081 1.394 . S
C1080 C1086 1.465 . S
C1081 C1076 1.399 . S
C1081 C1080 1.394 . S
C1081 C1082 1.516 1_554 S
C1082 C1081 1.516 1_556 S
C1082 C1083 1.502 1_565 S
C1082 C1084 1.561 . S
C1082 C1085 1.526 1_556 S
C1083 H1067 0.959 1_556 S
C1083 H1068 0.959 . S
C1083 H1069 0.958 1_545 S
C1083 C1082 1.502 1_545 S
C1084 H1070 0.960 . S
C1084 H1071 0.961 . S
C1084 H1072 0.959 . S
C1084 C1082 1.561 . S
C1085 C1082 1.526 1_554 S
C1085 C1086 1.396 . S
C1085 C1090 1.390 . S
C1086 C1080 1.465 . S
C1086 C1085 1.396 . S
C1086 C1087 1.399 . S
C1087 H1073 0.929 . S
C1087 C1086 1.399 . S
C1087 C1088 1.385 . S
C1088 H1074 0.931 . S
C1088 C1087 1.385 . S
C1088 C1089 1.389 . S
C1089 C1088 1.389 . S
C1089 C1090 1.387 . S
C1090 H1075 0.930 1_564 S
C1090 C1085 1.390 . S
C1090 C1089 1.387 . S
H1091 C1103 0.930 . S
H1092 C1105 0.930 . S
H1093 C1106 0.930 . S
H1094 C1110 0.959 . S
H1095 C1110 0.959 . S
H1096 C1110 0.961 . S
H1097 C1111 0.960 . S
H1098 C1111 0.961 . S
H1099 C1111 0.959 . S
H1100 C1114 0.929 . S
H1101 C1115 0.931 . S
H1102 C1117 0.930 . S
C1103 H1091 0.930 . S
C1103 C1104 1.399 1_554 S
C1103 C1108 1.399 . S
C1104 C1103 1.399 1_556 S
C1104 C1105 1.376 . S
C1105 H1092 0.930 . S
C1105 C1104 1.376 . S
C1105 C1106 1.388 . S
C1106 H1093 0.930 . S
C1106 C1105 1.388 . S
C1106 C1107 1.390 . S
C1107 C1106 1.390 . S
C1107 C1108 1.394 1_556 S
C1107 C1113 1.465 . S
C1108 C1103 1.399 . S
C1108 C1107 1.394 1_554 S
C1108 C1109 1.516 . S
C1109 C1108 1.516 . S
C1109 C1110 1.502 . S
C1109 C1111 1.561 . S
C1109 C1112 1.526 . S
C1110 H1094 0.959 . S
C1110 H1095 0.959 . S
C1110 H1096 0.961 . S
C1110 C1109 1.502 . S
C1111 H1097 0.960 . S
C1111 H1098 0.961 . S
C1111 H1099 0.959 . S
C1111 C1109 1.561 . S
C1112 C1109 1.526 . S
C1112 C1113 1.396 1_554 S
C1112 C1117 1.390 . S
C1113 C1107 1.465 . S
C1113 C1112 1.396 1_556 S
C1113 C1114 1.399 . S
C1114 H1100 0.929 . S
C1114 C1113 1.399 . S
C1114 C1115 1.385 . S
C1115 H1101 0.931 . S
C1115 C1114 1.385 . S
C1115 C1116 1.389 1_556 S
C1116 C1115 1.389 1_554 S
C1116 C1117 1.387 . S
C1117 H1102 0.930 . S
C1117 C1112 1.390 . S
C1117 C1116 1.387 . S
H1118 C1130 0.930 . S
H1119 C1132 0.930 . S
H1120 C1133 0.930 . S
H1121 C1137 0.959 . S
H1122 C1137 0.959 . S
H1123 C1137 0.961 . S
H1124 C1138 0.960 . S
H1125 C1138 0.961 . S
H1126 C1138 0.959 . S
H1127 C1141 0.929 . S
H1128 C1142 0.931 . S
H1129 C1144 0.930 . S
C1130 H1118 0.930 . S
C1130 C1131 1.399 . S
C1130 C1135 1.399 . S
C1131 C1130 1.399 . S
C1131 C1132 1.376 . S
C1132 H1119 0.930 . S
C1132 C1131 1.376 . S
C1132 C1133 1.388 . S
C1133 H1120 0.930 . S
C1133 C1132 1.388 . S
C1133 C1134 1.390 . S
C1134 C1133 1.390 . S
C1134 C1135 1.394 . S
C1134 C1140 1.465 . S
C1135 C1130 1.399 . S
C1135 C1134 1.394 . S
C1135 C1136 1.516 . S
C1136 C1135 1.516 . S
C1136 C1137 1.502 . S
C1136 C1138 1.561 . S
C1136 C1139 1.526 . S
C1137 H1121 0.959 . S
C1137 H1122 0.959 . S
C1137 H1123 0.961 . S
C1137 C1136 1.502 . S
C1138 H1124 0.960 . S
C1138 H1125 0.961 . S
C1138 H1126 0.959 . S
C1138 C1136 1.561 . S
C1139 C1136 1.526 . S
C1139 C1140 1.396 . S
C1139 C1144 1.390 . S
C1140 C1134 1.465 . S
C1140 C1139 1.396 . S
C1140 C1141 1.399 . S
C1141 H1127 0.929 . S
C1141 C1140 1.399 . S
C1141 C1142 1.385 . S
C1142 H1128 0.931 . S
C1142 C1141 1.385 . S
C1142 C1143 1.389 . S
C1143 C1142 1.389 . S
C1143 C1144 1.387 . S
C1144 H1129 0.930 . S
C1144 C1139 1.390 . S
C1144 C1143 1.387 . S
H1145 C1157 0.930 . S
H1146 C1159 0.930 . S
H1147 C1160 0.930 . S
H1148 C1164 0.959 . S
H1149 C1164 0.959 . S
H1150 C1164 0.961 . S
H1151 C1165 0.960 . S
H1152 C1165 0.961 . S
H1153 C1165 0.959 . S
H1154 C1168 0.929 . S
H1155 C1169 0.931 . S
H1156 C1171 0.930 . S
C1157 H1145 0.930 . S
C1157 C1158 1.399 . S
C1157 C1162 1.399 . S
C1158 C1157 1.399 . S
C1158 C1159 1.376 . S
C1159 H1146 0.930 . S
C1159 C1158 1.376 . S
C1159 C1160 1.388 . S
C1160 H1147 0.930 . S
C1160 C1159 1.388 . S
C1160 C1161 1.390 . S
C1161 C1160 1.390 . S
C1161 C1162 1.394 . S
C1161 C1167 1.465 . S
C1162 C1157 1.399 . S
C1162 C1161 1.394 . S
C1162 C1163 1.516 . S
C1163 C1162 1.516 . S
C1163 C1164 1.502 . S
C1163 C1165 1.561 . S
C1163 C1166 1.526 . S
C1164 H1148 0.959 . S
C1164 H1149 0.959 . S
C1164 H1150 0.961 . S
C1164 C1163 1.502 . S
C1165 H1151 0.960 . S
C1165 H1152 0.961 . S
C1165 H1153 0.959 . S
C1165 C1163 1.561 . S
C1166 C1163 1.526 . S
C1166 C1167 1.396 . S
C1166 C1171 1.390 . S
C1167 C1161 1.465 . S
C1167 C1166 1.396 . S
C1167 C1168 1.399 . S
C1168 H1154 0.929 . S
C1168 C1167 1.399 . S
C1168 C1169 1.385 . S
C1169 H1155 0.931 . S
C1169 C1168 1.385 . S
C1169 C1170 1.389 . S
C1170 C1169 1.389 . S
C1170 C1171 1.387 . S
C1171 H1156 0.930 . S
C1171 C1166 1.390 . S
C1171 C1170 1.387 . S
H1172 C1184 0.930 . S
H1173 C1186 0.930 . S
H1174 C1187 0.930 . S
H1175 C1191 0.959 . S
H1176 C1191 0.959 . S
H1177 C1191 0.961 . S
H1178 C1192 0.960 . S
H1179 C1192 0.961 . S
H1180 C1192 0.959 . S
H1181 C1195 0.929 . S
H1182 C1196 0.931 . S
H1183 C1198 0.930 . S
C1184 H1172 0.930 . S
C1184 C1185 1.399 . S
C1184 C1189 1.399 . S
C1185 C1184 1.399 . S
C1185 C1186 1.376 . S
C1186 H1173 0.930 . S
C1186 C1185 1.376 . S
C1186 C1187 1.388 . S
C1187 H1174 0.930 . S
C1187 C1186 1.388 . S
C1187 C1188 1.390 . S
C1188 C1187 1.390 . S
C1188 C1189 1.394 . S
C1188 C1194 1.465 . S
C1189 C1184 1.399 . S
C1189 C1188 1.394 . S
C1189 C1190 1.516 . S
C1190 C1189 1.516 . S
C1190 C1191 1.502 . S
C1190 C1192 1.561 . S
C1190 C1193 1.526 . S
C1191 H1175 0.959 . S
C1191 H1176 0.959 . S
C1191 H1177 0.961 . S
C1191 C1190 1.502 . S
C1192 H1178 0.960 . S
C1192 H1179 0.961 . S
C1192 H1180 0.959 . S
C1192 C1190 1.561 . S
C1193 C1190 1.526 . S
C1193 C1194 1.396 . S
C1193 C1198 1.390 . S
C1194 C1188 1.465 . S
C1194 C1193 1.396 . S
C1194 C1195 1.399 . S
C1195 H1181 0.929 . S
C1195 C1194 1.399 . S
C1195 C1196 1.385 . S
C1196 H1182 0.931 . S
C1196 C1195 1.385 . S
C1196 C1197 1.389 . S
C1197 C1196 1.389 . S
C1197 C1198 1.387 . S
C1198 H1183 0.930 . S
C1198 C1193 1.390 . S
C1198 C1197 1.387 . S
H1199 C1211 0.930 . S
H1200 C1213 0.930 . S
H1201 C1214 0.930 . S
H1202 C1218 0.959 . S
H1203 C1218 0.959 . S
H1204 C1218 0.961 . S
H1205 C1219 0.960 . S
H1206 C1219 0.961 . S
H1207 C1219 0.959 . S
H1208 C1222 0.929 . S
H1209 C1223 0.931 . S
H1210 C1225 0.930 . S
C1211 H1199 0.930 . S
C1211 C1212 1.399 . S
C1211 C1216 1.399 . S
C1212 C1211 1.399 . S
C1212 C1213 1.376 . S
C1213 H1200 0.930 . S
C1213 C1212 1.376 . S
C1213 C1214 1.388 . S
C1214 H1201 0.930 . S
C1214 C1213 1.388 . S
C1214 C1215 1.390 . S
C1215 C1214 1.390 . S
C1215 C1216 1.394 . S
C1215 C1221 1.465 . S
C1216 C1211 1.399 . S
C1216 C1215 1.394 . S
C1216 C1217 1.516 . S
C1217 C1216 1.516 . S
C1217 C1218 1.502 . S
C1217 C1219 1.561 . S
C1217 C1220 1.526 . S
C1218 H1202 0.959 . S
C1218 H1203 0.959 . S
C1218 H1204 0.961 . S
C1218 C1217 1.502 . S
C1219 H1205 0.960 . S
C1219 H1206 0.961 . S
C1219 H1207 0.959 . S
C1219 C1217 1.561 . S
C1220 C1217 1.526 . S
C1220 C1221 1.396 . S
C1220 C1225 1.390 . S
C1221 C1215 1.465 . S
C1221 C1220 1.396 . S
C1221 C1222 1.399 . S
C1222 H1208 0.929 . S
C1222 C1221 1.399 . S
C1222 C1223 1.385 . S
C1223 H1209 0.931 . S
C1223 C1222 1.385 . S
C1223 C1224 1.389 . S
C1224 C1223 1.389 . S
C1224 C1225 1.387 . S
C1225 H1210 0.930 . S
C1225 C1220 1.390 . S
C1225 C1224 1.387 . S
H1226 C1238 0.930 . S
H1227 C1240 0.930 . S
H1228 C1241 0.930 . S
H1229 C1245 0.959 . S
H1230 C1245 0.959 . S
H1231 C1245 0.961 . S
H1232 C1246 0.960 . S
H1233 C1246 0.961 . S
H1234 C1246 0.959 . S
H1235 C1249 0.929 . S
H1236 C1250 0.931 . S
H1237 C1252 0.930 . S
C1238 H1226 0.930 . S
C1238 C1239 1.399 . S
C1238 C1243 1.399 . S
C1239 C1238 1.399 . S
C1239 C1240 1.376 . S
C1240 H1227 0.930 . S
C1240 C1239 1.376 . S
C1240 C1241 1.388 . S
C1241 H1228 0.930 . S
C1241 C1240 1.388 . S
C1241 C1242 1.390 . S
C1242 C1241 1.390 . S
C1242 C1243 1.394 . S
C1242 C1248 1.465 . S
C1243 C1238 1.399 . S
C1243 C1242 1.394 . S
C1243 C1244 1.516 . S
C1244 C1243 1.516 . S
C1244 C1245 1.502 . S
C1244 C1246 1.561 . S
C1244 C1247 1.526 . S
C1245 H1229 0.959 . S
C1245 H1230 0.959 . S
C1245 H1231 0.961 . S
C1245 C1244 1.502 . S
C1246 H1232 0.960 . S
C1246 H1233 0.961 . S
C1246 H1234 0.959 . S
C1246 C1244 1.561 . S
C1247 C1244 1.526 . S
C1247 C1248 1.396 . S
C1247 C1252 1.390 . S
C1248 C1242 1.465 . S
C1248 C1247 1.396 . S
C1248 C1249 1.399 . S
C1249 H1235 0.929 . S
C1249 C1248 1.399 . S
C1249 C1250 1.385 . S
C1250 H1236 0.931 . S
C1250 C1249 1.385 . S
C1250 C1251 1.389 . S
C1251 C1250 1.389 . S
C1251 C1252 1.387 . S
C1252 H1237 0.930 . S
C1252 C1247 1.390 . S
C1252 C1251 1.387 . S
H1253 C1265 0.930 . S
H1254 C1267 0.930 . S
H1255 C1268 0.930 . S
H1256 C1272 0.959 . S
H1257 C1272 0.959 . S
H1258 C1272 0.961 . S
H1259 C1273 0.960 . S
H1260 C1273 0.961 . S
H1261 C1273 0.959 . S
H1262 C1276 0.929 . S
H1263 C1277 0.931 . S
H1264 C1279 0.930 . S
C1265 H1253 0.930 . S
C1265 C1266 1.399 . S
C1265 C1270 1.399 . S
C1266 C1265 1.399 . S
C1266 C1267 1.376 . S
C1267 H1254 0.930 . S
C1267 C1266 1.376 . S
C1267 C1268 1.388 . S
C1268 H1255 0.930 . S
C1268 C1267 1.388 . S
C1268 C1269 1.390 . S
C1269 C1268 1.390 . S
C1269 C1270 1.394 . S
C1269 C1275 1.465 . S
C1270 C1265 1.399 . S
C1270 C1269 1.394 . S
C1270 C1271 1.516 . S
C1271 C1270 1.516 . S
C1271 C1272 1.502 . S
C1271 C1273 1.561 . S
C1271 C1274 1.526 . S
C1272 H1256 0.959 . S
C1272 H1257 0.959 . S
C1272 H1258 0.961 . S
C1272 C1271 1.502 . S
C1273 H1259 0.960 . S
C1273 H1260 0.961 . S
C1273 H1261 0.959 . S
C1273 C1271 1.561 . S
C1274 C1271 1.526 . S
C1274 C1275 1.396 . S
C1274 C1279 1.390 . S
C1275 C1269 1.465 . S
C1275 C1274 1.396 . S
C1275 C1276 1.399 . S
C1276 H1262 0.929 . S
C1276 C1275 1.399 . S
C1276 C1277 1.385 . S
C1277 H1263 0.931 . S
C1277 C1276 1.385 . S
C1277 C1278 1.389 . S
C1278 C1277 1.389 . S
C1278 C1279 1.387 . S
C1279 H1264 0.930 . S
C1279 C1274 1.390 . S
C1279 C1278 1.387 . S
H1280 C1292 0.930 . S
H1281 C1294 0.930 . S
H1282 C1295 0.930 . S
H1283 C1299 0.959 . S
H1284 C1299 0.959 . S
H1285 C1299 0.961 . S
H1286 C1300 0.960 . S
H1287 C1300 0.961 . S
H1288 C1300 0.959 . S
H1289 C1303 0.929 . S
H1290 C1304 0.931 . S
H1291 C1306 0.930 . S
C1292 H1280 0.930 . S
C1292 C1293 1.399 . S
C1292 C1297 1.399 . S
C1293 C1292 1.399 . S
C1293 C1294 1.376 1_455 S
C1294 H1281 0.930 . S
C1294 C1293 1.376 1_655 S
C1294 C1295 1.388 . S
C1295 H1282 0.930 . S
C1295 C1294 1.388 . S
C1295 C1296 1.390 . S
C1296 C1295 1.390 . S
C1296 C1297 1.394 1_655 S
C1296 C1302 1.465 . S
C1297 C1292 1.399 . S
C1297 C1296 1.394 1_455 S
C1297 C1298 1.516 . S
C1298 C1297 1.516 . S
C1298 C1299 1.502 . S
C1298 C1300 1.561 . S
C1298 C1301 1.526 . S
C1299 H1283 0.959 . S
C1299 H1284 0.959 . S
C1299 H1285 0.961 . S
C1299 C1298 1.502 . S
C1300 H1286 0.960 . S
C1300 H1287 0.961 . S
C1300 H1288 0.959 . S
C1300 C1298 1.561 . S
C1301 C1298 1.526 . S
C1301 C1302 1.396 1_455 S
C1301 C1306 1.390 . S
C1302 C1296 1.465 . S
C1302 C1301 1.396 1_655 S
C1302 C1303 1.399 . S
C1303 H1289 0.929 . S
C1303 C1302 1.399 . S
C1303 C1304 1.385 . S
C1304 H1290 0.931 . S
C1304 C1303 1.385 . S
C1304 C1305 1.389 1_655 S
C1305 C1304 1.389 1_455 S
C1305 C1306 1.387 . S
C1306 H1291 0.930 . S
C1306 C1301 1.390 . S
C1306 C1305 1.387 . S
H1307 C1319 0.930 . S
H1308 C1321 0.930 . S
H1309 C1322 0.930 . S
H1310 C1326 0.959 . S
H1311 C1326 0.959 . S
H1312 C1326 0.961 . S
H1313 C1327 0.960 . S
H1314 C1327 0.961 . S
H1315 C1327 0.959 . S
H1316 C1330 0.929 . S
H1317 C1331 0.931 . S
H1318 C1333 0.930 . S
C1319 H1307 0.930 . S
C1319 C1320 1.399 . S
C1319 C1324 1.399 . S
C1320 C1319 1.399 . S
C1320 C1321 1.376 . S
C1321 H1308 0.930 . S
C1321 C1320 1.376 . S
C1321 C1322 1.388 . S
C1322 H1309 0.930 . S
C1322 C1321 1.388 . S
C1322 C1323 1.390 . S
C1323 C1322 1.390 . S
C1323 C1324 1.394 . S
C1323 C1329 1.465 . S
C1324 C1319 1.399 . S
C1324 C1323 1.394 . S
C1324 C1325 1.516 . S
C1325 C1324 1.516 . S
C1325 C1326 1.502 . S
C1325 C1327 1.561 . S
C1325 C1328 1.526 . S
C1326 H1310 0.959 . S
C1326 H1311 0.959 . S
C1326 H1312 0.961 . S
C1326 C1325 1.502 . S
C1327 H1313 0.960 . S
C1327 H1314 0.961 . S
C1327 H1315 0.959 . S
C1327 C1325 1.561 . S
C1328 C1325 1.526 . S
C1328 C1329 1.396 . S
C1328 C1333 1.390 . S
C1329 C1323 1.465 . S
C1329 C1328 1.396 . S
C1329 C1330 1.399 . S
C1330 H1316 0.929 . S
C1330 C1329 1.399 . S
C1330 C1331 1.385 . S
C1331 H1317 0.931 . S
C1331 C1330 1.385 . S
C1331 C1332 1.389 . S
C1332 C1331 1.389 . S
C1332 C1333 1.387 . S
C1333 H1318 0.930 . S
C1333 C1328 1.390 . S
C1333 C1332 1.387 . S
H1334 C1346 0.930 . S
H1335 C1348 0.930 . S
H1336 C1349 0.930 . S
H1337 C1353 0.959 . S
H1338 C1353 0.959 . S
H1339 C1353 0.961 . S
H1340 C1354 0.960 . S
H1341 C1354 0.961 . S
H1342 C1354 0.959 . S
H1343 C1357 0.929 . S
H1344 C1358 0.931 . S
H1345 C1360 0.930 . S
C1346 H1334 0.930 . S
C1346 C1347 1.399 . S
C1346 C1351 1.399 . S
C1347 C1346 1.399 . S
C1347 C1348 1.376 . S
C1348 H1335 0.930 . S
C1348 C1347 1.376 . S
C1348 C1349 1.388 . S
C1349 H1336 0.930 . S
C1349 C1348 1.388 . S
C1349 C1350 1.390 . S
C1350 C1349 1.390 . S
C1350 C1351 1.394 . S
C1350 C1356 1.465 . S
C1351 C1346 1.399 . S
C1351 C1350 1.394 . S
C1351 C1352 1.516 . S
C1352 C1351 1.516 . S
C1352 C1353 1.502 . S
C1352 C1354 1.561 . S
C1352 C1355 1.526 . S
C1353 H1337 0.959 . S
C1353 H1338 0.959 . S
C1353 H1339 0.961 . S
C1353 C1352 1.502 . S
C1354 H1340 0.960 . S
C1354 H1341 0.961 . S
C1354 H1342 0.959 . S
C1354 C1352 1.561 . S
C1355 C1352 1.526 . S
C1355 C1356 1.396 . S
C1355 C1360 1.390 . S
C1356 C1350 1.465 . S
C1356 C1355 1.396 . S
C1356 C1357 1.399 . S
C1357 H1343 0.929 . S
C1357 C1356 1.399 . S
C1357 C1358 1.385 . S
C1358 H1344 0.931 . S
C1358 C1357 1.385 . S
C1358 C1359 1.389 . S
C1359 C1358 1.389 . S
C1359 C1360 1.387 . S
C1360 H1345 0.930 . S
C1360 C1355 1.390 . S
C1360 C1359 1.387 . S
H1361 C1373 0.930 . S
H1362 C1375 0.930 . S
H1363 C1376 0.930 . S
H1364 C1380 0.959 . S
H1365 C1380 0.959 . S
H1366 C1380 0.961 . S
H1367 C1381 0.960 . S
H1368 C1381 0.961 . S
H1369 C1381 0.959 . S
H1370 C1384 0.929 . S
H1371 C1385 0.931 . S
H1372 C1387 0.930 . S
C1373 H1361 0.930 . S
C1373 C1374 1.399 . S
C1373 C1378 1.399 . S
C1374 C1373 1.399 . S
C1374 C1375 1.376 . S
C1375 H1362 0.930 . S
C1375 C1374 1.376 . S
C1375 C1376 1.388 . S
C1376 H1363 0.930 . S
C1376 C1375 1.388 . S
C1376 C1377 1.390 . S
C1377 C1376 1.390 . S
C1377 C1378 1.394 . S
C1377 C1383 1.465 . S
C1378 C1373 1.399 . S
C1378 C1377 1.394 . S
C1378 C1379 1.516 . S
C1379 C1378 1.516 . S
C1379 C1380 1.502 . S
C1379 C1381 1.561 . S
C1379 C1382 1.526 . S
C1380 H1364 0.959 . S
C1380 H1365 0.959 . S
C1380 H1366 0.961 . S
C1380 C1379 1.502 . S
C1381 H1367 0.960 . S
C1381 H1368 0.961 . S
C1381 H1369 0.959 . S
C1381 C1379 1.561 . S
C1382 C1379 1.526 . S
C1382 C1383 1.396 . S
C1382 C1387 1.390 . S
C1383 C1377 1.465 . S
C1383 C1382 1.396 . S
C1383 C1384 1.399 . S
C1384 H1370 0.929 . S
C1384 C1383 1.399 . S
C1384 C1385 1.385 . S
C1385 H1371 0.931 . S
C1385 C1384 1.385 . S
C1385 C1386 1.389 . S
C1386 C1385 1.389 . S
C1386 C1387 1.387 . S
C1387 H1372 0.930 . S
C1387 C1382 1.390 . S
C1387 C1386 1.387 . S
H1388 C1400 0.930 1_655 S
H1389 C1402 0.930 . S
H1390 C1403 0.930 . S
H1391 C1407 0.959 . S
H1392 C1407 0.959 . S
H1393 C1407 0.961 . S
H1394 C1408 0.960 . S
H1395 C1408 0.961 . S
H1396 C1408 0.959 . S
H1397 C1411 0.929 . S
H1398 C1412 0.931 . S
H1399 C1414 0.937 . S
C1400 H1388 0.930 1_455 S
C1400 C1401 1.399 . S
C1400 C1405 1.399 . S
C1401 C1400 1.399 . S
C1401 C1402 1.376 . S
C1402 H1389 0.930 . S
C1402 C1401 1.376 . S
C1402 C1403 1.388 . S
C1403 H1390 0.930 . S
C1403 C1402 1.388 . S
C1403 C1404 1.390 . S
C1404 C1403 1.390 . S
C1404 C1405 1.394 . S
C1404 C1410 1.465 . S
C1405 C1400 1.399 . S
C1405 C1404 1.394 . S
C1405 C1406 1.516 1_455 S
C1406 C1405 1.516 1_655 S
C1406 C1407 1.502 . S
C1406 C1408 1.561 1_655 S
C1406 C1409 1.526 1_655 S
C1407 H1391 0.959 . S
C1407 H1392 0.959 . S
C1407 H1393 0.961 . S
C1407 C1406 1.502 . S
C1408 H1394 0.960 . S
C1408 H1395 0.961 . S
C1408 H1396 0.959 . S
C1408 C1406 1.561 1_455 S
C1409 C1406 1.526 1_455 S
C1409 C1410 1.396 . S
C1409 C1414 1.389 1_455 S
C1410 C1404 1.465 . S
C1410 C1409 1.396 . S
C1410 C1411 1.399 . S
C1411 H1397 0.929 . S
C1411 C1410 1.399 . S
C1411 C1412 1.385 . S
C1412 H1398 0.931 . S
C1412 C1411 1.385 . S
C1412 C1413 1.389 . S
C1413 C1412 1.389 . S
C1413 C1414 1.382 1_455 S
C1414 H1399 0.937 . S
C1414 C1409 1.389 1_655 S
C1414 C1413 1.382 1_655 S
H1415 C1427 0.930 . S
H1416 C1429 0.930 . S
H1417 C1430 0.930 . S
H1418 C1434 0.959 . S
H1419 C1434 0.959 . S
H1420 C1434 0.961 . S
H1421 C1435 0.960 . S
H1422 C1435 0.961 . S
H1423 C1435 0.959 . S
H1424 C1438 0.929 . S
H1425 C1439 0.931 . S
H1426 C1441 0.930 . S
C1427 H1415 0.930 . S
C1427 C1428 1.399 . S
C1427 C1432 1.399 . S
C1428 C1427 1.399 . S
C1428 C1429 1.376 . S
C1429 H1416 0.930 . S
C1429 C1428 1.376 . S
C1429 C1430 1.388 . S
C1430 H1417 0.930 . S
C1430 C1429 1.388 . S
C1430 C1431 1.390 . S
C1431 C1430 1.390 . S
C1431 C1432 1.394 . S
C1431 C1437 1.465 . S
C1432 C1427 1.399 . S
C1432 C1431 1.394 . S
C1432 C1433 1.516 . S
C1433 C1432 1.516 . S
C1433 C1434 1.502 . S
C1433 C1435 1.561 . S
C1433 C1436 1.526 . S
C1434 H1418 0.959 . S
C1434 H1419 0.959 . S
C1434 H1420 0.961 . S
C1434 C1433 1.502 . S
C1435 H1421 0.960 . S
C1435 H1422 0.961 . S
C1435 H1423 0.959 . S
C1435 C1433 1.561 . S
C1436 C1433 1.526 . S
C1436 C1437 1.396 . S
C1436 C1441 1.390 . S
C1437 C1431 1.465 . S
C1437 C1436 1.396 . S
C1437 C1438 1.399 . S
C1438 H1424 0.929 . S
C1438 C1437 1.399 . S
C1438 C1439 1.385 . S
C1439 H1425 0.931 . S
C1439 C1438 1.385 . S
C1439 C1440 1.389 . S
C1440 C1439 1.389 . S
C1440 C1441 1.387 . S
C1441 H1426 0.930 . S
C1441 C1436 1.390 . S
C1441 C1440 1.387 . S
H1442 C1454 0.930 . S
H1443 C1456 0.930 . S
H1444 C1457 0.930 . S
H1445 C1461 0.959 . S
H1446 C1461 0.959 1_554 S
H1447 C1461 0.961 . S
H1448 C1462 0.960 . S
H1449 C1462 0.961 . S
H1450 C1462 0.959 . S
H1451 C1465 0.929 . S
H1452 C1466 0.931 . S
H1453 C1468 0.930 1_554 S
C1454 H1442 0.930 . S
C1454 C1455 1.399 . S
C1454 C1459 1.399 . S
C1455 C1454 1.399 . S
C1455 C1456 1.376 . S
C1456 H1443 0.930 . S
C1456 C1455 1.376 . S
C1456 C1457 1.388 . S
C1457 H1444 0.930 . S
C1457 C1456 1.388 . S
C1457 C1458 1.390 . S
C1458 C1457 1.390 . S
C1458 C1459 1.394 . S
C1458 C1464 1.465 . S
C1459 C1454 1.399 . S
C1459 C1458 1.394 . S
C1459 C1460 1.516 . S
C1460 C1459 1.516 . S
C1460 C1461 1.502 . S
C1460 C1462 1.561 1_556 S
C1460 C1463 1.526 . S
C1461 H1445 0.959 . S
C1461 H1446 0.959 1_556 S
C1461 H1447 0.961 . S
C1461 C1460 1.502 . S
C1462 H1448 0.960 . S
C1462 H1449 0.961 . S
C1462 H1450 0.959 . S
C1462 C1460 1.561 1_554 S
C1463 C1460 1.526 . S
C1463 C1464 1.396 . S
C1463 C1468 1.390 . S
C1464 C1458 1.465 . S
C1464 C1463 1.396 . S
C1464 C1465 1.399 . S
C1465 H1451 0.929 . S
C1465 C1464 1.399 . S
C1465 C1466 1.385 . S
C1466 H1452 0.931 . S
C1466 C1465 1.385 . S
C1466 C1467 1.389 . S
C1467 C1466 1.389 . S
C1467 C1468 1.387 . S
C1468 H1453 0.930 1_556 S
C1468 C1463 1.390 . S
C1468 C1467 1.387 . S
H1469 C1481 0.930 . S
H1470 C1483 0.930 . S
H1471 C1484 0.930 . S
H1472 C1488 0.959 . S
H1473 C1488 0.959 . S
H1474 C1488 0.961 . S
H1475 C1489 0.960 . S
H1476 C1489 0.961 . S
H1477 C1489 0.959 . S
H1478 C1492 0.929 . S
H1479 C1493 0.931 . S
H1480 C1495 0.930 . S
C1481 H1469 0.930 . S
C1481 C1482 1.399 . S
C1481 C1486 1.399 . S
C1482 C1481 1.399 . S
C1482 C1483 1.376 . S
C1483 H1470 0.930 . S
C1483 C1482 1.376 . S
C1483 C1484 1.388 . S
C1484 H1471 0.930 . S
C1484 C1483 1.388 . S
C1484 C1485 1.390 . S
C1485 C1484 1.390 . S
C1485 C1486 1.394 . S
C1485 C1491 1.465 . S
C1486 C1481 1.399 . S
C1486 C1485 1.394 . S
C1486 C1487 1.516 . S
C1487 C1486 1.516 . S
C1487 C1488 1.502 . S
C1487 C1489 1.561 . S
C1487 C1490 1.526 . S
C1488 H1472 0.959 . S
C1488 H1473 0.959 . S
C1488 H1474 0.961 . S
C1488 C1487 1.502 . S
C1489 H1475 0.960 . S
C1489 H1476 0.961 . S
C1489 H1477 0.959 . S
C1489 C1487 1.561 . S
C1490 C1487 1.526 . S
C1490 C1491 1.396 . S
C1490 C1495 1.390 . S
C1491 C1485 1.465 . S
C1491 C1490 1.396 . S
C1491 C1492 1.399 . S
C1492 H1478 0.929 . S
C1492 C1491 1.399 . S
C1492 C1493 1.385 . S
C1493 H1479 0.931 . S
C1493 C1492 1.385 . S
C1493 C1494 1.389 . S
C1494 C1493 1.389 . S
C1494 C1495 1.387 . S
C1495 H1480 0.930 . S
C1495 C1490 1.390 . S
C1495 C1494 1.387 . S
H1496 C1508 0.930 . S
H1497 C1510 0.930 . S
H1498 C1511 0.930 . S
H1499 C1515 0.959 . S
H1500 C1515 0.959 . S
H1501 C1515 0.961 . S
H1502 C1516 0.960 . S
H1503 C1516 0.961 . S
H1504 C1516 0.959 . S
H1505 C1519 0.929 . S
H1506 C1520 0.931 . S
H1507 C1522 0.930 . S
C1508 H1496 0.930 . S
C1508 C1509 1.379 1_565 S
C1508 C1513 1.399 . S
C1509 C1508 1.379 1_545 S
C1509 C1510 1.404 . S
C1510 H1497 0.930 . S
C1510 C1509 1.404 . S
C1510 C1511 1.388 . S
C1511 H1498 0.930 . S
C1511 C1510 1.388 . S
C1511 C1512 1.390 . S
C1512 C1511 1.390 . S
C1512 C1513 1.394 1_545 S
C1512 C1518 1.465 . S
C1513 C1508 1.399 . S
C1513 C1512 1.394 1_565 S
C1513 C1514 1.516 . S
C1514 C1513 1.516 . S
C1514 C1515 1.502 . S
C1514 C1516 1.561 . S
C1514 C1517 1.526 . S
C1515 H1499 0.959 . S
C1515 H1500 0.959 . S
C1515 H1501 0.961 . S
C1515 C1514 1.502 . S
C1516 H1502 0.960 . S
C1516 H1503 0.961 . S
C1516 H1504 0.959 . S
C1516 C1514 1.561 . S
C1517 C1514 1.526 . S
C1517 C1518 1.396 1_565 S
C1517 C1522 1.390 . S
C1518 C1512 1.465 . S
C1518 C1517 1.396 1_545 S
C1518 C1519 1.399 . S
C1519 H1505 0.929 . S
C1519 C1518 1.399 . S
C1519 C1520 1.385 . S
C1520 H1506 0.931 . S
C1520 C1519 1.385 . S
C1520 C1521 1.389 . S
C1521 C1520 1.389 . S
C1521 C1522 1.387 1_545 S
C1522 H1507 0.930 . S
C1522 C1517 1.390 . S
C1522 C1521 1.387 1_565 S
H1523 C1535 0.930 . S
H1524 C1537 0.930 . S
H1525 C1538 0.930 . S
H1526 C1542 0.959 . S
H1527 C1542 0.959 . S
H1528 C1542 0.961 . S
H1529 C1543 0.960 . S
H1530 C1543 0.961 . S
H1531 C1543 0.959 . S
H1532 C1546 0.929 . S
H1533 C1547 0.931 . S
H1534 C1549 0.930 . S
C1535 H1523 0.930 . S
C1535 C1536 1.399 . S
C1535 C1540 1.399 . S
C1536 C1535 1.399 . S
C1536 C1537 1.376 . S
C1537 H1524 0.930 . S
C1537 C1536 1.376 . S
C1537 C1538 1.388 . S
C1538 H1525 0.930 . S
C1538 C1537 1.388 . S
C1538 C1539 1.390 . S
C1539 C1538 1.390 . S
C1539 C1540 1.394 . S
C1539 C1545 1.465 . S
C1540 C1535 1.399 . S
C1540 C1539 1.394 . S
C1540 C1541 1.516 . S
C1541 C1540 1.516 . S
C1541 C1542 1.502 . S
C1541 C1543 1.561 . S
C1541 C1544 1.526 . S
C1542 H1526 0.959 . S
C1542 H1527 0.959 . S
C1542 H1528 0.961 . S
C1542 C1541 1.502 . S
C1543 H1529 0.960 . S
C1543 H1530 0.961 . S
C1543 H1531 0.959 . S
C1543 C1541 1.561 . S
C1544 C1541 1.526 . S
C1544 C1545 1.396 . S
C1544 C1549 1.390 . S
C1545 C1539 1.465 . S
C1545 C1544 1.396 . S
C1545 C1546 1.399 . S
C1546 H1532 0.929 . S
C1546 C1545 1.399 . S
C1546 C1547 1.385 . S
C1547 H1533 0.931 . S
C1547 C1546 1.385 . S
C1547 C1548 1.389 . S
C1548 C1547 1.389 . S
C1548 C1549 1.387 . S
C1549 H1534 0.930 . S
C1549 C1544 1.390 . S
C1549 C1548 1.387 . S
H1550 C1562 0.930 . S
H1551 C1564 0.930 . S
H1552 C1565 0.928 . S
H1553 C1569 0.959 . S
H1554 C1569 0.959 . S
H1555 C1569 0.961 . S
H1556 C1570 0.960 . S
H1557 C1570 0.961 . S
H1558 C1570 0.959 . S
H1559 C1573 0.929 1_565 S
H1560 C1574 0.931 1_565 S
H1561 C1576 0.930 . S
C1562 H1550 0.930 . S
C1562 C1563 1.399 . S
C1562 C1567 1.399 . S
C1563 C1562 1.399 . S
C1563 C1564 1.376 . S
C1564 H1551 0.930 . S
C1564 C1563 1.376 . S
C1564 C1565 1.388 . S
C1565 H1552 0.928 . S
C1565 C1564 1.388 . S
C1565 C1566 1.390 . S
C1566 C1565 1.390 . S
C1566 C1567 1.394 . S
C1566 C1572 1.465 . S
C1567 C1562 1.399 . S
C1567 C1566 1.394 . S
C1567 C1568 1.516 . S
C1568 C1567 1.516 . S
C1568 C1569 1.502 . S
C1568 C1570 1.561 . S
C1568 C1571 1.526 . S
C1569 H1553 0.959 . S
C1569 H1554 0.959 . S
C1569 H1555 0.961 . S
C1569 C1568 1.502 . S
C1570 H1556 0.960 . S
C1570 H1557 0.961 . S
C1570 H1558 0.959 . S
C1570 C1568 1.561 . S
C1571 C1568 1.526 . S
C1571 C1572 1.396 . S
C1571 C1576 1.390 . S
C1572 C1566 1.465 . S
C1572 C1571 1.396 . S
C1572 C1573 1.399 . S
C1573 H1559 0.929 1_545 S
C1573 C1572 1.399 . S
C1573 C1574 1.385 . S
C1574 H1560 0.931 1_545 S
C1574 C1573 1.385 . S
C1574 C1575 1.389 . S
C1575 C1574 1.389 . S
C1575 C1576 1.387 . S
C1576 H1561 0.930 . S
C1576 C1571 1.390 . S
C1576 C1575 1.387 . S
H1577 C1589 0.930 . S
H1578 C1591 0.930 . S
H1579 C1592 0.930 . S
H1580 C1596 0.959 . S
H1581 C1596 0.959 . S
H1582 C1596 0.961 . S
H1583 C1597 0.960 . S
H1584 C1597 0.961 . S
H1585 C1597 0.959 . S
H1586 C1600 0.929 . S
H1587 C1601 0.931 . S
H1588 C1603 0.930 . S
C1589 H1577 0.930 . S
C1589 C1590 1.399 . S
C1589 C1594 1.399 . S
C1590 C1589 1.399 . S
C1590 C1591 1.376 . S
C1591 H1578 0.930 . S
C1591 C1590 1.376 . S
C1591 C1592 1.388 . S
C1592 H1579 0.930 . S
C1592 C1591 1.388 . S
C1592 C1593 1.390 . S
C1593 C1592 1.390 . S
C1593 C1594 1.394 . S
C1593 C1599 1.465 . S
C1594 C1589 1.399 . S
C1594 C1593 1.394 . S
C1594 C1595 1.516 . S
C1595 C1594 1.516 . S
C1595 C1596 1.502 . S
C1595 C1597 1.561 . S
C1595 C1598 1.526 . S
C1596 H1580 0.959 . S
C1596 H1581 0.959 . S
C1596 H1582 0.961 . S
C1596 C1595 1.502 . S
C1597 H1583 0.960 . S
C1597 H1584 0.961 . S
C1597 H1585 0.959 . S
C1597 C1595 1.561 . S
C1598 C1595 1.526 . S
C1598 C1599 1.396 . S
C1598 C1603 1.390 . S
C1599 C1593 1.465 . S
C1599 C1598 1.396 . S
C1599 C1600 1.399 . S
C1600 H1586 0.929 . S
C1600 C1599 1.399 . S
C1600 C1601 1.385 . S
C1601 H1587 0.931 . S
C1601 C1600 1.385 . S
C1601 C1602 1.389 . S
C1602 C1601 1.389 . S
C1602 C1603 1.387 . S
C1603 H1588 0.930 . S
C1603 C1598 1.390 . S
C1603 C1602 1.387 . S
H1604 C1616 0.930 . S
H1605 C1618 0.930 . S
H1606 C1619 0.930 . S
H1607 C1623 0.959 . S
H1608 C1623 0.959 . S
H1609 C1623 0.961 . S
H1610 C1624 0.960 . S
H1611 C1624 0.961 . S
H1612 C1624 0.959 . S
H1613 C1627 0.929 . S
H1614 C1628 0.931 . S
H1615 C1630 0.930 . S
C1616 H1604 0.930 . S
C1616 C1617 1.399 1_545 S
C1616 C1621 1.399 . S
C1617 C1616 1.399 1_565 S
C1617 C1618 1.376 . S
C1618 H1605 0.930 . S
C1618 C1617 1.376 . S
C1618 C1619 1.388 . S
C1619 H1606 0.930 . S
C1619 C1618 1.388 . S
C1619 C1620 1.390 . S
C1620 C1619 1.390 . S
C1620 C1621 1.394 1_565 S
C1620 C1626 1.465 1_565 S
C1621 C1616 1.399 . S
C1621 C1620 1.394 1_545 S
C1621 C1622 1.516 . S
C1622 C1621 1.516 . S
C1622 C1623 1.502 . S
C1622 C1624 1.561 . S
C1622 C1625 1.526 . S
C1623 H1607 0.959 . S
C1623 H1608 0.959 . S
C1623 H1609 0.961 . S
C1623 C1622 1.502 . S
C1624 H1610 0.960 . S
C1624 H1611 0.961 . S
C1624 H1612 0.959 . S
C1624 C1622 1.561 . S
C1625 C1622 1.526 . S
C1625 C1626 1.396 . S
C1625 C1630 1.390 . S
C1626 C1620 1.465 1_545 S
C1626 C1625 1.396 . S
C1626 C1627 1.399 1_545 S
C1627 H1613 0.929 . S
C1627 C1626 1.399 1_565 S
C1627 C1628 1.385 . S
C1628 H1614 0.931 . S
C1628 C1627 1.385 . S
C1628 C1629 1.389 1_565 S
C1629 C1628 1.389 1_545 S
C1629 C1630 1.387 . S
C1630 H1615 0.930 . S
C1630 C1625 1.390 . S
C1630 C1629 1.387 . S
H1631 C1643 0.930 . S
H1632 C1645 0.930 . S
H1633 C1646 0.930 . S
H1634 C1650 0.959 . S
H1635 C1650 0.959 . S
H1636 C1650 0.961 . S
H1637 C1651 0.960 . S
H1638 C1651 0.961 . S
H1639 C1651 0.959 . S
H1640 C1654 0.929 . S
H1641 C1655 0.931 . S
H1642 C1657 0.930 . S
C1643 H1631 0.930 . S
C1643 C1644 1.399 . S
C1643 C1648 1.399 . S
C1644 C1643 1.399 . S
C1644 C1645 1.376 . S
C1645 H1632 0.930 . S
C1645 C1644 1.376 . S
C1645 C1646 1.388 . S
C1646 H1633 0.930 . S
C1646 C1645 1.388 . S
C1646 C1647 1.390 . S
C1647 C1646 1.390 . S
C1647 C1648 1.394 . S
C1647 C1653 1.465 . S
C1648 C1643 1.399 . S
C1648 C1647 1.394 . S
C1648 C1649 1.516 . S
C1649 C1648 1.516 . S
C1649 C1650 1.502 . S
C1649 C1651 1.561 . S
C1649 C1652 1.526 . S
C1650 H1634 0.959 . S
C1650 H1635 0.959 . S
C1650 H1636 0.961 . S
C1650 C1649 1.502 . S
C1651 H1637 0.960 . S
C1651 H1638 0.961 . S
C1651 H1639 0.959 . S
C1651 C1649 1.561 . S
C1652 C1649 1.526 . S
C1652 C1653 1.396 . S
C1652 C1657 1.390 . S
C1653 C1647 1.465 . S
C1653 C1652 1.396 . S
C1653 C1654 1.399 . S
C1654 H1640 0.929 . S
C1654 C1653 1.399 . S
C1654 C1655 1.385 . S
C1655 H1641 0.931 . S
C1655 C1654 1.385 . S
C1655 C1656 1.389 . S
C1656 C1655 1.389 . S
C1656 C1657 1.387 . S
C1657 H1642 0.930 . S
C1657 C1652 1.390 . S
C1657 C1656 1.387 . S
H1658 C1670 0.930 . S
H1659 C1672 0.930 . S
H1660 C1673 0.900 1_565 S
H1661 C1677 0.959 . S
H1662 C1677 0.959 . S
H1663 C1677 0.961 . S
H1664 C1678 0.960 . S
H1665 C1678 0.961 . S
H1666 C1678 0.959 . S
H1667 C1681 0.929 1_565 S
H1668 C1682 0.931 1_565 S
H1669 C1684 0.930 . S
C1670 H1658 0.930 . S
C1670 C1671 1.399 . S
C1670 C1675 1.399 . S
C1671 C1670 1.399 . S
C1671 C1672 1.376 . S
C1672 H1659 0.930 . S
C1672 C1671 1.376 . S
C1672 C1673 1.388 . S
C1673 H1660 0.900 1_545 S
C1673 C1672 1.388 . S
C1673 C1674 1.390 . S
C1674 C1673 1.390 . S
C1674 C1675 1.394 . S
C1674 C1680 1.465 . S
C1675 C1670 1.399 . S
C1675 C1674 1.394 . S
C1675 C1676 1.516 . S
C1676 C1675 1.516 . S
C1676 C1677 1.502 . S
C1676 C1678 1.561 . S
C1676 C1679 1.526 . S
C1677 H1661 0.959 . S
C1677 H1662 0.959 . S
C1677 H1663 0.961 . S
C1677 C1676 1.502 . S
C1678 H1664 0.960 . S
C1678 H1665 0.961 . S
C1678 H1666 0.959 . S
C1678 C1676 1.561 . S
C1679 C1676 1.526 . S
C1679 C1680 1.396 . S
C1679 C1684 1.390 . S
C1680 C1674 1.465 . S
C1680 C1679 1.396 . S
C1680 C1681 1.399 . S
C1681 H1667 0.929 1_545 S
C1681 C1680 1.399 . S
C1681 C1682 1.385 . S
C1682 H1668 0.931 1_545 S
C1682 C1681 1.385 . S
C1682 C1683 1.389 . S
C1683 C1682 1.389 . S
C1683 C1684 1.387 . S
C1684 H1669 0.930 . S
C1684 C1679 1.390 . S
C1684 C1683 1.387 . S
H1685 C1697 0.930 . S
H1686 C1699 0.930 . S
H1687 C1700 0.930 . S
H1688 C1704 0.959 . S
H1689 C1704 0.959 . S
H1690 C1704 0.961 . S
H1691 C1705 0.960 . S
H1692 C1705 0.961 . S
H1693 C1705 0.959 . S
H1694 C1708 0.929 . S
H1695 C1709 0.931 . S
H1696 C1711 0.930 . S
C1697 H1685 0.930 . S
C1697 C1698 1.399 . S
C1697 C1702 1.399 . S
C1698 C1697 1.399 . S
C1698 C1699 1.376 . S
C1699 H1686 0.930 . S
C1699 C1698 1.376 . S
C1699 C1700 1.388 . S
C1700 H1687 0.930 . S
C1700 C1699 1.388 . S
C1700 C1701 1.390 . S
C1701 C1700 1.390 . S
C1701 C1702 1.394 . S
C1701 C1707 1.465 . S
C1702 C1697 1.399 . S
C1702 C1701 1.394 . S
C1702 C1703 1.516 . S
C1703 C1702 1.516 . S
C1703 C1704 1.502 . S
C1703 C1705 1.561 . S
C1703 C1706 1.526 . S
C1704 H1688 0.959 . S
C1704 H1689 0.959 . S
C1704 H1690 0.961 . S
C1704 C1703 1.502 . S
C1705 H1691 0.960 . S
C1705 H1692 0.961 . S
C1705 H1693 0.959 . S
C1705 C1703 1.561 . S
C1706 C1703 1.526 . S
C1706 C1707 1.396 . S
C1706 C1711 1.390 . S
C1707 C1701 1.465 . S
C1707 C1706 1.396 . S
C1707 C1708 1.399 . S
C1708 H1694 0.929 . S
C1708 C1707 1.399 . S
C1708 C1709 1.385 . S
C1709 H1695 0.931 . S
C1709 C1708 1.385 . S
C1709 C1710 1.389 . S
C1710 C1709 1.389 . S
C1710 C1711 1.387 . S
C1711 H1696 0.930 . S
C1711 C1706 1.390 . S
C1711 C1710 1.387 . S
H1712 C1724 0.930 . S
H1713 C1726 0.930 . S
H1714 C1727 0.930 . S
H1715 C1731 0.959 . S
H1716 C1731 0.959 . S
H1717 C1731 0.961 . S
H1718 C1732 0.960 . S
H1719 C1732 0.961 . S
H1720 C1732 0.959 1_556 S
H1721 C1735 0.929 . S
H1722 C1736 0.931 . S
H1723 C1738 0.930 . S
C1724 H1712 0.930 . S
C1724 C1725 1.399 1_554 S
C1724 C1729 1.399 . S
C1725 C1724 1.399 1_556 S
C1725 C1726 1.376 . S
C1726 H1713 0.930 . S
C1726 C1725 1.376 . S
C1726 C1727 1.388 . S
C1727 H1714 0.930 . S
C1727 C1726 1.388 . S
C1727 C1728 1.390 . S
C1728 C1727 1.390 . S
C1728 C1729 1.394 1_556 S
C1728 C1734 1.465 . S
C1729 C1724 1.399 . S
C1729 C1728 1.394 1_554 S
C1729 C1730 1.516 . S
C1730 C1729 1.516 . S
C1730 C1731 1.502 . S
C1730 C1732 1.561 . S
C1730 C1733 1.526 . S
C1731 H1715 0.959 . S
C1731 H1716 0.959 . S
C1731 H1717 0.961 . S
C1731 C1730 1.502 . S
C1732 H1718 0.960 . S
C1732 H1719 0.961 . S
C1732 H1720 0.959 1_554 S
C1732 C1730 1.561 . S
C1733 C1730 1.526 . S
C1733 C1734 1.396 1_554 S
C1733 C1738 1.390 . S
C1734 C1728 1.465 . S
C1734 C1733 1.396 1_556 S
C1734 C1735 1.399 . S
C1735 H1721 0.929 . S
C1735 C1734 1.399 . S
C1735 C1736 1.385 . S
C1736 H1722 0.931 . S
C1736 C1735 1.385 . S
C1736 C1737 1.389 . S
C1737 C1736 1.389 . S
C1737 C1738 1.387 1_556 S
C1738 H1723 0.930 . S
C1738 C1733 1.390 . S
C1738 C1737 1.387 1_554 S
H1739 C1751 0.930 . S
H1740 C1753 0.930 . S
H1741 C1754 0.930 1_556 S
H1742 C1758 0.959 . S
H1743 C1758 0.959 . S
H1744 C1758 0.961 . S
H1745 C1759 0.960 . S
H1746 C1759 0.961 . S
H1747 C1759 0.959 . S
H1748 C1762 0.929 1_556 S
H1749 C1763 0.931 1_556 S
H1750 C1765 0.930 . S
C1751 H1739 0.930 . S
C1751 C1752 1.399 . S
C1751 C1756 1.399 . S
C1752 C1751 1.399 . S
C1752 C1753 1.376 . S
C1753 H1740 0.930 . S
C1753 C1752 1.376 . S
C1753 C1754 1.388 . S
C1754 H1741 0.930 1_554 S
C1754 C1753 1.388 . S
C1754 C1755 1.390 . S
C1755 C1754 1.390 . S
C1755 C1756 1.394 . S
C1755 C1761 1.465 . S
C1756 C1751 1.399 . S
C1756 C1755 1.394 . S
C1756 C1757 1.516 . S
C1757 C1756 1.516 . S
C1757 C1758 1.502 . S
C1757 C1759 1.561 . S
C1757 C1760 1.526 . S
C1758 H1742 0.959 . S
C1758 H1743 0.959 . S
C1758 H1744 0.961 . S
C1758 C1757 1.502 . S
C1759 H1745 0.960 . S
C1759 H1746 0.961 . S
C1759 H1747 0.959 . S
C1759 C1757 1.561 . S
C1760 C1757 1.526 . S
C1760 C1761 1.396 . S
C1760 C1765 1.390 . S
C1761 C1755 1.465 . S
C1761 C1760 1.396 . S
C1761 C1762 1.399 . S
C1762 H1748 0.929 1_554 S
C1762 C1761 1.399 . S
C1762 C1763 1.385 . S
C1763 H1749 0.931 1_554 S
C1763 C1762 1.385 . S
C1763 C1764 1.389 . S
C1764 C1763 1.389 . S
C1764 C1765 1.387 . S
C1765 H1750 0.930 . S
C1765 C1760 1.390 . S
C1765 C1764 1.387 . S
H1766 C1778 0.930 . S
H1767 C1780 0.930 . S
H1768 C1781 0.930 . S
H1769 C1785 0.959 . S
H1770 C1785 0.959 . S
H1771 C1785 0.961 . S
H1772 C1786 0.960 . S
H1773 C1786 0.961 . S
H1774 C1786 0.959 . S
H1775 C1789 0.929 . S
H1776 C1790 0.931 . S
H1777 C1792 0.930 . S
C1778 H1766 0.930 . S
C1778 C1779 1.399 . S
C1778 C1783 1.399 . S
C1779 C1778 1.399 . S
C1779 C1780 1.376 . S
C1780 H1767 0.930 . S
C1780 C1779 1.376 . S
C1780 C1781 1.388 . S
C1781 H1768 0.930 . S
C1781 C1780 1.388 . S
C1781 C1782 1.390 . S
C1782 C1781 1.390 . S
C1782 C1783 1.394 . S
C1782 C1788 1.465 . S
C1783 C1778 1.399 . S
C1783 C1782 1.394 . S
C1783 C1784 1.516 . S
C1784 C1783 1.516 . S
C1784 C1785 1.502 . S
C1784 C1786 1.561 . S
C1784 C1787 1.526 . S
C1785 H1769 0.959 . S
C1785 H1770 0.959 . S
C1785 H1771 0.961 . S
C1785 C1784 1.502 . S
C1786 H1772 0.960 . S
C1786 H1773 0.961 . S
C1786 H1774 0.959 . S
C1786 C1784 1.561 . S
C1787 C1784 1.526 . S
C1787 C1788 1.396 . S
C1787 C1792 1.390 . S
C1788 C1782 1.465 . S
C1788 C1787 1.396 . S
C1788 C1789 1.399 . S
C1789 H1775 0.929 . S
C1789 C1788 1.399 . S
C1789 C1790 1.385 . S
C1790 H1776 0.931 . S
C1790 C1789 1.385 . S
C1790 C1791 1.389 . S
C1791 C1790 1.389 . S
C1791 C1792 1.387 . S
C1792 H1777 0.930 . S
C1792 C1787 1.390 . S
C1792 C1791 1.387 . S
H1793 C1805 0.930 . S
H1794 C1807 0.930 . S
H1795 C1808 0.930 . S
H1796 C1812 0.959 . S
H1797 C1812 0.959 . S
H1798 C1812 0.961 . S
H1799 C1813 0.960 . S
H1800 C1813 0.961 . S
H1801 C1813 0.959 . S
H1802 C1816 0.929 . S
H1803 C1817 0.931 . S
H1804 C1819 0.930 . S
C1805 H1793 0.930 . S
C1805 C1806 1.399 . S
C1805 C1810 1.399 . S
C1806 C1805 1.399 . S
C1806 C1807 1.376 . S
C1807 H1794 0.930 . S
C1807 C1806 1.376 . S
C1807 C1808 1.388 . S
C1808 H1795 0.930 . S
C1808 C1807 1.388 . S
C1808 C1809 1.390 . S
C1809 C1808 1.390 . S
C1809 C1810 1.394 . S
C1809 C1815 1.465 . S
C1810 C1805 1.399 . S
C1810 C1809 1.394 . S
C1810 C1811 1.516 . S
C1811 C1810 1.516 . S
C1811 C1812 1.502 . S
C1811 C1813 1.561 . S
C1811 C1814 1.526 . S
C1812 H1796 0.959 . S
C1812 H1797 0.959 . S
C1812 H1798 0.961 . S
C1812 C1811 1.502 . S
C1813 H1799 0.960 . S
C1813 H1800 0.961 . S
C1813 H1801 0.959 . S
C1813 C1811 1.561 . S
C1814 C1811 1.526 . S
C1814 C1815 1.396 . S
C1814 C1819 1.390 . S
C1815 C1809 1.465 . S
C1815 C1814 1.396 . S
C1815 C1816 1.399 . S
C1816 H1802 0.929 . S
C1816 C1815 1.399 . S
C1816 C1817 1.385 . S
C1817 H1803 0.931 . S
C1817 C1816 1.385 . S
C1817 C1818 1.389 . S
C1818 C1817 1.389 . S
C1818 C1819 1.387 . S
C1819 H1804 0.930 . S
C1819 C1814 1.390 . S
C1819 C1818 1.387 . S
H1820 C1832 0.930 . S
H1821 C1834 0.930 . S
H1822 C1835 0.930 . S
H1823 C1839 0.959 . S
H1824 C1839 0.959 . S
H1825 C1839 0.961 . S
H1826 C1840 0.960 . S
H1827 C1840 0.961 . S
H1828 C1840 0.959 . S
H1829 C1843 0.929 . S
H1830 C1844 0.931 . S
H1831 C1846 0.930 . S
C1832 H1820 0.930 . S
C1832 C1833 1.399 . S
C1832 C1837 1.399 . S
C1833 C1832 1.399 . S
C1833 C1834 1.376 . S
C1834 H1821 0.930 . S
C1834 C1833 1.376 . S
C1834 C1835 1.388 . S
C1835 H1822 0.930 . S
C1835 C1834 1.388 . S
C1835 C1836 1.390 . S
C1836 C1835 1.390 . S
C1836 C1837 1.394 . S
C1836 C1842 1.465 . S
C1837 C1832 1.399 . S
C1837 C1836 1.394 . S
C1837 C1838 1.516 . S
C1838 C1837 1.516 . S
C1838 C1839 1.502 . S
C1838 C1840 1.561 . S
C1838 C1841 1.526 . S
C1839 H1823 0.959 . S
C1839 H1824 0.959 . S
C1839 H1825 0.961 . S
C1839 C1838 1.502 . S
C1840 H1826 0.960 . S
C1840 H1827 0.961 . S
C1840 H1828 0.959 . S
C1840 C1838 1.561 . S
C1841 C1838 1.526 . S
C1841 C1842 1.396 . S
C1841 C1846 1.390 . S
C1842 C1836 1.465 . S
C1842 C1841 1.396 . S
C1842 C1843 1.399 . S
C1843 H1829 0.929 . S
C1843 C1842 1.399 . S
C1843 C1844 1.385 . S
C1844 H1830 0.931 . S
C1844 C1843 1.385 . S
C1844 C1845 1.389 . S
C1845 C1844 1.389 . S
C1845 C1846 1.387 . S
C1846 H1831 0.930 . S
C1846 C1841 1.390 . S
C1846 C1845 1.387 . S
H1847 C1859 0.930 . S
H1848 C1861 0.930 . S
H1849 C1862 0.930 . S
H1850 C1866 0.959 . S
H1851 C1866 0.959 . S
H1852 C1866 0.961 . S
H1853 C1867 0.960 . S
H1854 C1867 0.961 . S
H1855 C1867 0.959 . S
H1856 C1870 0.929 1_545 S
H1857 C1871 0.931 . S
H1858 C1873 0.930 . S
C1859 H1847 0.930 . S
C1859 C1860 1.399 . S
C1859 C1864 1.399 . S
C1860 C1859 1.399 . S
C1860 C1861 1.376 . S
C1861 H1848 0.930 . S
C1861 C1860 1.376 . S
C1861 C1862 1.388 . S
C1862 H1849 0.930 . S
C1862 C1861 1.388 . S
C1862 C1863 1.390 . S
C1863 C1862 1.390 . S
C1863 C1864 1.394 . S
C1863 C1869 1.465 . S
C1864 C1859 1.399 . S
C1864 C1863 1.394 . S
C1864 C1865 1.516 . S
C1865 C1864 1.516 . S
C1865 C1866 1.502 . S
C1865 C1867 1.561 . S
C1865 C1868 1.526 . S
C1866 H1850 0.959 . S
C1866 H1851 0.959 . S
C1866 H1852 0.961 . S
C1866 C1865 1.502 . S
C1867 H1853 0.960 . S
C1867 H1854 0.961 . S
C1867 H1855 0.959 . S
C1867 C1865 1.561 . S
C1868 C1865 1.526 . S
C1868 C1869 1.396 . S
C1868 C1873 1.390 . S
C1869 C1863 1.465 . S
C1869 C1868 1.396 . S
C1869 C1870 1.399 . S
C1870 H1856 0.929 1_565 S
C1870 C1869 1.399 . S
C1870 C1871 1.385 1_565 S
C1871 H1857 0.931 . S
C1871 C1870 1.385 1_545 S
C1871 C1872 1.389 1_545 S
C1872 C1871 1.389 1_565 S
C1872 C1873 1.387 . S
C1873 H1858 0.930 . S
C1873 C1868 1.390 . S
C1873 C1872 1.387 . S
H1874 C1886 0.930 . S
H1875 C1888 0.930 . S
H1876 C1889 0.930 . S
H1877 C1893 0.959 . S
H1878 C1893 0.959 . S
H1879 C1893 0.961 . S
H1880 C1894 0.960 . S
H1881 C1894 0.961 . S
H1882 C1894 0.959 . S
H1883 C1897 0.929 . S
H1884 C1898 0.931 . S
H1885 C1900 0.930 . S
C1886 H1874 0.930 . S
C1886 C1887 1.399 . S
C1886 C1891 1.399 . S
C1887 C1886 1.399 . S
C1887 C1888 1.376 . S
C1888 H1875 0.930 . S
C1888 C1887 1.376 . S
C1888 C1889 1.388 . S
C1889 H1876 0.930 . S
C1889 C1888 1.388 . S
C1889 C1890 1.390 . S
C1890 C1889 1.390 . S
C1890 C1891 1.394 . S
C1890 C1896 1.465 . S
C1891 C1886 1.399 . S
C1891 C1890 1.394 . S
C1891 C1892 1.516 . S
C1892 C1891 1.516 . S
C1892 C1893 1.502 . S
C1892 C1894 1.561 . S
C1892 C1895 1.526 . S
C1893 H1877 0.959 . S
C1893 H1878 0.959 . S
C1893 H1879 0.961 . S
C1893 C1892 1.502 . S
C1894 H1880 0.960 . S
C1894 H1881 0.961 . S
C1894 H1882 0.959 . S
C1894 C1892 1.561 . S
C1895 C1892 1.526 . S
C1895 C1896 1.396 . S
C1895 C1900 1.390 . S
C1896 C1890 1.465 . S
C1896 C1895 1.396 . S
C1896 C1897 1.399 . S
C1897 H1883 0.929 . S
C1897 C1896 1.399 . S
C1897 C1898 1.385 . S
C1898 H1884 0.931 . S
C1898 C1897 1.385 . S
C1898 C1899 1.389 . S
C1899 C1898 1.389 . S
C1899 C1900 1.387 . S
C1900 H1885 0.930 . S
C1900 C1895 1.390 . S
C1900 C1899 1.387 . S
H1901 C1913 0.930 . S
H1902 C1915 0.930 . S
H1903 C1916 0.930 . S
H1904 C1920 0.959 . S
H1905 C1920 0.959 . S
H1906 C1920 0.961 . S
H1907 C1921 0.960 . S
H1908 C1921 0.961 . S
H1909 C1921 0.959 . S
H1910 C1924 0.929 . S
H1911 C1925 0.931 . S
H1912 C1927 0.930 . S
C1913 H1901 0.930 . S
C1913 C1914 1.399 . S
C1913 C1918 1.399 . S
C1914 C1913 1.399 . S
C1914 C1915 1.376 . S
C1915 H1902 0.930 . S
C1915 C1914 1.376 . S
C1915 C1916 1.388 . S
C1916 H1903 0.930 . S
C1916 C1915 1.388 . S
C1916 C1917 1.390 . S
C1917 C1916 1.390 . S
C1917 C1918 1.394 . S
C1917 C1923 1.465 . S
C1918 C1913 1.399 . S
C1918 C1917 1.394 . S
C1918 C1919 1.516 . S
C1919 C1918 1.516 . S
C1919 C1920 1.502 . S
C1919 C1921 1.561 . S
C1919 C1922 1.526 . S
C1920 H1904 0.959 . S
C1920 H1905 0.959 . S
C1920 H1906 0.961 . S
C1920 C1919 1.502 . S
C1921 H1907 0.960 . S
C1921 H1908 0.961 . S
C1921 H1909 0.959 . S
C1921 C1919 1.561 . S
C1922 C1919 1.526 . S
C1922 C1923 1.396 . S
C1922 C1927 1.390 . S
C1923 C1917 1.465 . S
C1923 C1922 1.396 . S
C1923 C1924 1.399 . S
C1924 H1910 0.929 . S
C1924 C1923 1.399 . S
C1924 C1925 1.385 . S
C1925 H1911 0.931 . S
C1925 C1924 1.385 . S
C1925 C1926 1.389 . S
C1926 C1925 1.389 . S
C1926 C1927 1.387 . S
C1927 H1912 0.930 . S
C1927 C1922 1.390 . S
C1927 C1926 1.387 . S
H1928 C1940 0.930 . S
H1929 C1942 0.930 . S
H1930 C1943 0.930 . S
H1931 C1947 0.959 . S
H1932 C1947 0.959 . S
H1933 C1947 0.961 . S
H1934 C1948 0.960 . S
H1935 C1948 0.961 . S
H1936 C1948 0.959 . S
H1937 C1951 0.929 . S
H1938 C1952 0.931 . S
H1939 C1954 0.930 . S
C1940 H1928 0.930 . S
C1940 C1941 1.399 . S
C1940 C1945 1.399 . S
C1941 C1940 1.399 . S
C1941 C1942 1.376 . S
C1942 H1929 0.930 . S
C1942 C1941 1.376 . S
C1942 C1943 1.388 . S
C1943 H1930 0.930 . S
C1943 C1942 1.388 . S
C1943 C1944 1.390 . S
C1944 C1943 1.390 . S
C1944 C1945 1.394 . S
C1944 C1950 1.465 . S
C1945 C1940 1.399 . S
C1945 C1944 1.394 . S
C1945 C1946 1.516 . S
C1946 C1945 1.516 . S
C1946 C1947 1.502 . S
C1946 C1948 1.561 . S
C1946 C1949 1.526 . S
C1947 H1931 0.959 . S
C1947 H1932 0.959 . S
C1947 H1933 0.961 . S
C1947 C1946 1.502 . S
C1948 H1934 0.960 . S
C1948 H1935 0.961 . S
C1948 H1936 0.959 . S
C1948 C1946 1.561 . S
C1949 C1946 1.526 . S
C1949 C1950 1.396 . S
C1949 C1954 1.390 . S
C1950 C1944 1.465 . S
C1950 C1949 1.396 . S
C1950 C1951 1.399 . S
C1951 H1937 0.929 . S
C1951 C1950 1.399 . S
C1951 C1952 1.385 . S
C1952 H1938 0.931 . S
C1952 C1951 1.385 . S
C1952 C1953 1.389 . S
C1953 C1952 1.389 . S
C1953 C1954 1.387 . S
C1954 H1939 0.930 . S
C1954 C1949 1.390 . S
C1954 C1953 1.387 . S
H1955 C1967 0.930 . S
H1956 C1969 0.930 . S
H1957 C1970 0.930 . S
H1958 C1974 0.959 . S
H1959 C1974 0.959 . S
H1960 C1974 0.961 . S
H1961 C1975 0.960 . S
H1962 C1975 0.961 . S
H1963 C1975 0.959 . S
H1964 C1978 0.929 . S
H1965 C1979 0.931 . S
H1966 C1981 0.930 . S
C1967 H1955 0.930 . S
C1967 C1968 1.399 . S
C1967 C1972 1.399 . S
C1968 C1967 1.399 . S
C1968 C1969 1.376 . S
C1969 H1956 0.930 . S
C1969 C1968 1.376 . S
C1969 C1970 1.388 . S
C1970 H1957 0.930 . S
C1970 C1969 1.388 . S
C1970 C1971 1.390 . S
C1971 C1970 1.390 . S
C1971 C1972 1.394 . S
C1971 C1977 1.465 . S
C1972 C1967 1.399 . S
C1972 C1971 1.394 . S
C1972 C1973 1.516 . S
C1973 C1972 1.516 . S
C1973 C1974 1.502 . S
C1973 C1975 1.561 . S
C1973 C1976 1.526 . S
C1974 H1958 0.959 . S
C1974 H1959 0.959 . S
C1974 H1960 0.961 . S
C1974 C1973 1.502 . S
C1975 H1961 0.960 . S
C1975 H1962 0.961 . S
C1975 H1963 0.959 . S
C1975 C1973 1.561 . S
C1976 C1973 1.526 . S
C1976 C1977 1.396 . S
C1976 C1981 1.390 . S
C1977 C1971 1.465 . S
C1977 C1976 1.396 . S
C1977 C1978 1.399 . S
C1978 H1964 0.929 . S
C1978 C1977 1.399 . S
C1978 C1979 1.385 . S
C1979 H1965 0.931 . S
C1979 C1978 1.385 . S
C1979 C1980 1.389 . S
C1980 C1979 1.389 . S
C1980 C1981 1.387 . S
C1981 H1966 0.930 . S
C1981 C1976 1.390 . S
C1981 C1980 1.387 . S
H1982 C1994 0.930 . S
H1983 C1996 0.930 . S
H1984 C1997 0.930 . S
H1985 C2001 0.959 . S
H1986 C2001 0.959 . S
H1987 C2001 0.961 . S
H1988 C2002 0.960 . S
H1989 C2002 0.961 . S
H1990 C2002 0.959 . S
H1991 C2005 0.929 . S
H1992 C2006 0.931 1_554 S
H1993 C2008 0.930 . S
C1994 H1982 0.930 . S
C1994 C1995 1.399 . S
C1994 C1999 1.399 . S
C1995 C1994 1.399 . S
C1995 C1996 1.376 1_455 S
C1996 H1983 0.930 . S
C1996 C1995 1.376 1_655 S
C1996 C1997 1.388 . S
C1997 H1984 0.930 . S
C1997 C1996 1.388 . S
C1997 C1998 1.390 1_655 S
C1998 C1997 1.390 1_455 S
C1998 C1999 1.394 . S
C1998 C2004 1.465 . S
C1999 C1994 1.399 . S
C1999 C1998 1.394 . S
C1999 C2000 1.516 . S
C2000 C1999 1.516 . S
C2000 C2001 1.502 . S
C2000 C2002 1.561 . S
C2000 C2003 1.526 . S
C2001 H1985 0.959 . S
C2001 H1986 0.959 . S
C2001 H1987 0.961 . S
C2001 C2000 1.502 . S
C2002 H1988 0.960 . S
C2002 H1989 0.961 . S
C2002 H1990 0.959 . S
C2002 C2000 1.561 . S
C2003 C2000 1.526 . S
C2003 C2004 1.396 . S
C2003 C2008 1.390 . S
C2004 C1998 1.465 . S
C2004 C2003 1.396 . S
C2004 C2005 1.399 1_455 S
C2005 H1991 0.929 . S
C2005 C2004 1.399 1_655 S
C2005 C2006 1.385 . S
C2006 H1992 0.931 1_556 S
C2006 C2005 1.385 . S
C2006 C2007 1.389 1_655 S
C2007 C2006 1.389 1_455 S
C2007 C2008 1.387 . S
C2008 H1993 0.930 . S
C2008 C2003 1.390 . S
C2008 C2007 1.387 . S
H2009 C2021 0.930 . S
H2010 C2023 0.930 . S
H2011 C2024 0.930 . S
H2012 C2028 0.959 . S
H2013 C2028 0.959 . S
H2014 C2028 0.961 . S
H2015 C2029 0.960 . S
H2016 C2029 0.961 . S
H2017 C2029 0.959 . S
H2018 C2032 0.929 . S
H2019 C2033 0.931 . S
H2020 C2035 0.930 . S
C2021 H2009 0.930 . S
C2021 C2022 1.399 . S
C2021 C2026 1.399 . S
C2022 C2021 1.399 . S
C2022 C2023 1.376 . S
C2023 H2010 0.930 . S
C2023 C2022 1.376 . S
C2023 C2024 1.388 . S
C2024 H2011 0.930 . S
C2024 C2023 1.388 . S
C2024 C2025 1.390 . S
C2025 C2024 1.390 . S
C2025 C2026 1.394 . S
C2025 C2031 1.465 . S
C2026 C2021 1.399 . S
C2026 C2025 1.394 . S
C2026 C2027 1.516 . S
C2027 C2026 1.516 . S
C2027 C2028 1.502 . S
C2027 C2029 1.561 . S
C2027 C2030 1.526 . S
C2028 H2012 0.959 . S
C2028 H2013 0.959 . S
C2028 H2014 0.961 . S
C2028 C2027 1.502 . S
C2029 H2015 0.960 . S
C2029 H2016 0.961 . S
C2029 H2017 0.959 . S
C2029 C2027 1.561 . S
C2030 C2027 1.526 . S
C2030 C2031 1.396 . S
C2030 C2035 1.390 . S
C2031 C2025 1.465 . S
C2031 C2030 1.396 . S
C2031 C2032 1.399 . S
C2032 H2018 0.929 . S
C2032 C2031 1.399 . S
C2032 C2033 1.385 . S
C2033 H2019 0.931 . S
C2033 C2032 1.385 . S
C2033 C2034 1.389 . S
C2034 C2033 1.389 . S
C2034 C2035 1.387 . S
C2035 H2020 0.930 . S
C2035 C2030 1.390 . S
C2035 C2034 1.387 . S
H2036 C2048 0.930 . S
H2037 C2050 0.930 . S
H2038 C2051 0.930 . S
H2039 C2055 0.959 . S
H2040 C2055 0.959 . S
H2041 C2055 0.961 . S
H2042 C2056 0.960 . S
H2043 C2056 0.961 . S
H2044 C2056 0.959 . S
H2045 C2059 0.929 . S
H2046 C2060 0.931 . S
H2047 C2062 0.930 . S
C2048 H2036 0.930 . S
C2048 C2049 1.399 . S
C2048 C2053 1.399 . S
C2049 C2048 1.399 . S
C2049 C2050 1.376 . S
C2050 H2037 0.930 . S
C2050 C2049 1.376 . S
C2050 C2051 1.388 . S
C2051 H2038 0.930 . S
C2051 C2050 1.388 . S
C2051 C2052 1.390 . S
C2052 C2051 1.390 . S
C2052 C2053 1.394 . S
C2052 C2058 1.465 . S
C2053 C2048 1.399 . S
C2053 C2052 1.394 . S
C2053 C2054 1.516 . S
C2054 C2053 1.516 . S
C2054 C2055 1.502 . S
C2054 C2056 1.561 . S
C2054 C2057 1.526 . S
C2055 H2039 0.959 . S
C2055 H2040 0.959 . S
C2055 H2041 0.961 . S
C2055 C2054 1.502 . S
C2056 H2042 0.960 . S
C2056 H2043 0.961 . S
C2056 H2044 0.959 . S
C2056 C2054 1.561 . S
C2057 C2054 1.526 . S
C2057 C2058 1.396 . S
C2057 C2062 1.390 . S
C2058 C2052 1.465 . S
C2058 C2057 1.396 . S
C2058 C2059 1.399 . S
C2059 H2045 0.929 . S
C2059 C2058 1.399 . S
C2059 C2060 1.385 . S
C2060 H2046 0.931 . S
C2060 C2059 1.385 . S
C2060 C2061 1.389 . S
C2061 C2060 1.389 . S
C2061 C2062 1.387 . S
C2062 H2047 0.930 . S
C2062 C2057 1.390 . S
C2062 C2061 1.387 . S
H2063 C2075 0.930 . S
H2064 C2077 0.930 . S
H2065 C2078 0.930 . S
H2066 C2082 0.959 . S
H2067 C2082 0.959 . S
H2068 C2082 0.961 . S
H2069 C2083 0.960 . S
H2070 C2083 0.961 . S
H2071 C2083 0.959 . S
H2072 C2086 0.929 . S
H2073 C2087 0.931 . S
H2074 C2089 0.930 . S
C2075 H2063 0.930 . S
C2075 C2076 1.399 . S
C2075 C2080 1.399 . S
C2076 C2075 1.399 . S
C2076 C2077 1.376 . S
C2077 H2064 0.930 . S
C2077 C2076 1.376 . S
C2077 C2078 1.388 . S
C2078 H2065 0.930 . S
C2078 C2077 1.388 . S
C2078 C2079 1.390 . S
C2079 C2078 1.390 . S
C2079 C2080 1.394 . S
C2079 C2085 1.465 . S
C2080 C2075 1.399 . S
C2080 C2079 1.394 . S
C2080 C2081 1.516 . S
C2081 C2080 1.516 . S
C2081 C2082 1.502 . S
C2081 C2083 1.561 . S
C2081 C2084 1.526 . S
C2082 H2066 0.959 . S
C2082 H2067 0.959 . S
C2082 H2068 0.961 . S
C2082 C2081 1.502 . S
C2083 H2069 0.960 . S
C2083 H2070 0.961 . S
C2083 H2071 0.959 . S
C2083 C2081 1.561 . S
C2084 C2081 1.526 . S
C2084 C2085 1.396 . S
C2084 C2089 1.390 . S
C2085 C2079 1.465 . S
C2085 C2084 1.396 . S
C2085 C2086 1.399 . S
C2086 H2072 0.929 . S
C2086 C2085 1.399 . S
C2086 C2087 1.385 . S
C2087 H2073 0.931 . S
C2087 C2086 1.385 . S
C2087 C2088 1.389 . S
C2088 C2087 1.389 . S
C2088 C2089 1.387 . S
C2089 H2074 0.930 . S
C2089 C2084 1.390 . S
C2089 C2088 1.387 . S
H2090 C2102 0.930 . S
H2091 C2104 0.930 . S
H2092 C2105 0.930 . S
H2093 C2109 0.959 . S
H2094 C2109 0.959 . S
H2095 C2109 0.961 . S
H2096 C2110 0.960 . S
H2097 C2110 0.967 . S
H2098 C2110 0.959 . S
H2099 C2113 0.929 . S
H2100 C2114 0.931 . S
H2101 C2116 0.930 . S
C2102 H2090 0.930 . S
C2102 C2103 1.399 1_455 S
C2102 C2107 1.399 . S
C2103 C2102 1.399 1_655 S
C2103 C2104 1.376 . S
C2104 H2091 0.930 . S
C2104 C2103 1.376 . S
C2104 C2105 1.388 . S
C2105 H2092 0.930 . S
C2105 C2104 1.388 . S
C2105 C2106 1.390 . S
C2106 C2105 1.390 . S
C2106 C2107 1.394 1_655 S
C2106 C2112 1.465 . S
C2107 C2102 1.399 . S
C2107 C2106 1.394 1_455 S
C2107 C2108 1.516 . S
C2108 C2107 1.516 . S
C2108 C2109 1.502 . S
C2108 C2110 1.561 1_455 S
C2108 C2111 1.526 . S
C2109 H2093 0.959 . S
C2109 H2094 0.959 . S
C2109 H2095 0.961 . S
C2109 C2108 1.502 . S
C2110 H2096 0.960 . S
C2110 H2097 0.967 . S
C2110 H2098 0.959 . S
C2110 C2108 1.561 1_655 S
C2111 C2108 1.526 . S
C2111 C2112 1.396 1_455 S
C2111 C2116 1.390 . S
C2112 C2106 1.465 . S
C2112 C2111 1.396 1_655 S
C2112 C2113 1.399 . S
C2113 H2099 0.929 . S
C2113 C2112 1.399 . S
C2113 C2114 1.385 . S
C2114 H2100 0.931 . S
C2114 C2113 1.385 . S
C2114 C2115 1.377 1_655 S
C2115 C2114 1.377 1_455 S
C2115 C2116 1.390 . S
C2116 H2101 0.930 . S
C2116 C2111 1.390 . S
C2116 C2115 1.390 . S
H2117 C2129 0.930 . S
H2118 C2131 0.930 . S
H2119 C2132 0.930 . S
H2120 C2136 0.959 . S
H2121 C2136 0.959 . S
H2122 C2136 0.961 . S
H2123 C2137 0.960 . S
H2124 C2137 0.961 . S
H2125 C2137 0.959 . S
H2126 C2140 0.929 . S
H2127 C2141 0.931 . S
H2128 C2143 0.930 . S
C2129 H2117 0.930 . S
C2129 C2130 1.399 . S
C2129 C2134 1.399 . S
C2130 C2129 1.399 . S
C2130 C2131 1.376 . S
C2131 H2118 0.930 . S
C2131 C2130 1.376 . S
C2131 C2132 1.388 . S
C2132 H2119 0.930 . S
C2132 C2131 1.388 . S
C2132 C2133 1.390 . S
C2133 C2132 1.390 . S
C2133 C2134 1.394 . S
C2133 C2139 1.465 . S
C2134 C2129 1.399 . S
C2134 C2133 1.394 . S
C2134 C2135 1.516 . S
C2135 C2134 1.516 . S
C2135 C2136 1.502 . S
C2135 C2137 1.561 . S
C2135 C2138 1.526 . S
C2136 H2120 0.959 . S
C2136 H2121 0.959 . S
C2136 H2122 0.961 . S
C2136 C2135 1.502 . S
C2137 H2123 0.960 . S
C2137 H2124 0.961 . S
C2137 H2125 0.959 . S
C2137 C2135 1.561 . S
C2138 C2135 1.526 . S
C2138 C2139 1.396 . S
C2138 C2143 1.390 . S
C2139 C2133 1.465 . S
C2139 C2138 1.396 . S
C2139 C2140 1.399 . S
C2140 H2126 0.929 . S
C2140 C2139 1.399 . S
C2140 C2141 1.385 . S
C2141 H2127 0.931 . S
C2141 C2140 1.385 . S
C2141 C2142 1.389 . S
C2142 C2141 1.389 . S
C2142 C2143 1.387 . S
C2143 H2128 0.930 . S
C2143 C2138 1.390 . S
C2143 C2142 1.387 . S
H2144 C2156 0.930 . S
H2145 C2158 0.930 . S
H2146 C2159 0.930 . S
H2147 C2163 0.959 . S
H2148 C2163 0.959 . S
H2149 C2163 0.961 . S
H2150 C2164 0.960 . S
H2151 C2164 0.961 . S
H2152 C2164 0.959 . S
H2153 C2167 0.929 . S
H2154 C2168 0.931 . S
H2155 C2170 0.930 . S
C2156 H2144 0.930 . S
C2156 C2157 1.399 . S
C2156 C2161 1.399 . S
C2157 C2156 1.399 . S
C2157 C2158 1.376 . S
C2158 H2145 0.930 . S
C2158 C2157 1.376 . S
C2158 C2159 1.388 . S
C2159 H2146 0.930 . S
C2159 C2158 1.388 . S
C2159 C2160 1.390 . S
C2160 C2159 1.390 . S
C2160 C2161 1.394 . S
C2160 C2166 1.465 . S
C2161 C2156 1.399 . S
C2161 C2160 1.394 . S
C2161 C2162 1.516 . S
C2162 C2161 1.516 . S
C2162 C2163 1.502 . S
C2162 C2164 1.561 . S
C2162 C2165 1.526 . S
C2163 H2147 0.959 . S
C2163 H2148 0.959 . S
C2163 H2149 0.961 . S
C2163 C2162 1.502 . S
C2164 H2150 0.960 . S
C2164 H2151 0.961 . S
C2164 H2152 0.959 . S
C2164 C2162 1.561 . S
C2165 C2162 1.526 . S
C2165 C2166 1.396 . S
C2165 C2170 1.390 . S
C2166 C2160 1.465 . S
C2166 C2165 1.396 . S
C2166 C2167 1.399 . S
C2167 H2153 0.929 . S
C2167 C2166 1.399 . S
C2167 C2168 1.385 . S
C2168 H2154 0.931 . S
C2168 C2167 1.385 . S
C2168 C2169 1.389 . S
C2169 C2168 1.389 . S
C2169 C2170 1.387 . S
C2170 H2155 0.930 . S
C2170 C2165 1.390 . S
C2170 C2169 1.387 . S
H2171 C2183 0.930 . S
H2172 C2185 0.930 . S
H2173 C2186 0.930 . S
H2174 C2190 0.959 . S
H2175 C2190 0.959 . S
H2176 C2190 0.961 . S
H2177 C2191 0.960 . S
H2178 C2191 0.961 . S
H2179 C2191 0.959 . S
H2180 C2194 0.929 . S
H2181 C2195 0.931 . S
H2182 C2197 0.930 . S
C2183 H2171 0.930 . S
C2183 C2184 1.399 . S
C2183 C2188 1.399 . S
C2184 C2183 1.399 . S
C2184 C2185 1.376 . S
C2185 H2172 0.930 . S
C2185 C2184 1.376 . S
C2185 C2186 1.388 . S
C2186 H2173 0.930 . S
C2186 C2185 1.388 . S
C2186 C2187 1.390 . S
C2187 C2186 1.390 . S
C2187 C2188 1.394 . S
C2187 C2193 1.465 . S
C2188 C2183 1.399 . S
C2188 C2187 1.394 . S
C2188 C2189 1.516 . S
C2189 C2188 1.516 . S
C2189 C2190 1.502 . S
C2189 C2191 1.561 . S
C2189 C2192 1.526 . S
C2190 H2174 0.959 . S
C2190 H2175 0.959 . S
C2190 H2176 0.961 . S
C2190 C2189 1.502 . S
C2191 H2177 0.960 . S
C2191 H2178 0.961 . S
C2191 H2179 0.959 . S
C2191 C2189 1.561 . S
C2192 C2189 1.526 . S
C2192 C2193 1.396 . S
C2192 C2197 1.390 . S
C2193 C2187 1.465 . S
C2193 C2192 1.396 . S
C2193 C2194 1.399 . S
C2194 H2180 0.929 . S
C2194 C2193 1.399 . S
C2194 C2195 1.385 . S
C2195 H2181 0.931 . S
C2195 C2194 1.385 . S
C2195 C2196 1.389 . S
C2196 C2195 1.389 . S
C2196 C2197 1.387 . S
C2197 H2182 0.930 . S
C2197 C2192 1.390 . S
C2197 C2196 1.387 . S
H2198 C2210 0.930 . S
H2199 C2212 0.930 . S
H2200 C2213 0.930 . S
H2201 C2217 0.959 . S
H2202 C2217 0.959 . S
H2203 C2217 0.961 . S
H2204 C2218 0.960 . S
H2205 C2218 0.961 . S
H2206 C2218 0.959 . S
H2207 C2221 0.929 . S
H2208 C2222 0.931 . S
H2209 C2224 0.930 . S
C2210 H2198 0.930 . S
C2210 C2211 1.399 . S
C2210 C2215 1.399 . S
C2211 C2210 1.399 . S
C2211 C2212 1.376 . S
C2212 H2199 0.930 . S
C2212 C2211 1.376 . S
C2212 C2213 1.388 . S
C2213 H2200 0.930 . S
C2213 C2212 1.388 . S
C2213 C2214 1.390 . S
C2214 C2213 1.390 . S
C2214 C2215 1.394 . S
C2214 C2220 1.465 . S
C2215 C2210 1.399 . S
C2215 C2214 1.394 . S
C2215 C2216 1.516 . S
C2216 C2215 1.516 . S
C2216 C2217 1.502 . S
C2216 C2218 1.561 . S
C2216 C2219 1.526 . S
C2217 H2201 0.959 . S
C2217 H2202 0.959 . S
C2217 H2203 0.961 . S
C2217 C2216 1.502 . S
C2218 H2204 0.960 . S
C2218 H2205 0.961 . S
C2218 H2206 0.959 . S
C2218 C2216 1.561 . S
C2219 C2216 1.526 . S
C2219 C2220 1.396 . S
C2219 C2224 1.390 . S
C2220 C2214 1.465 . S
C2220 C2219 1.396 . S
C2220 C2221 1.399 . S
C2221 H2207 0.929 . S
C2221 C2220 1.399 . S
C2221 C2222 1.385 . S
C2222 H2208 0.931 . S
C2222 C2221 1.385 . S
C2222 C2223 1.389 . S
C2223 C2222 1.389 . S
C2223 C2224 1.387 . S
C2224 H2209 0.930 . S
C2224 C2219 1.390 . S
C2224 C2223 1.387 . S
H2225 C2237 0.930 . S
H2226 C2239 0.930 . S
H2227 C2240 0.930 . S
H2228 C2244 0.959 . S
H2229 C2244 0.959 . S
H2230 C2244 0.961 . S
H2231 C2245 0.960 . S
H2232 C2245 0.961 . S
H2233 C2245 0.959 . S
H2234 C2248 0.929 . S
H2235 C2249 0.931 . S
H2236 C2251 0.930 . S
C2237 H2225 0.930 . S
C2237 C2238 1.399 . S
C2237 C2242 1.399 . S
C2238 C2237 1.399 . S
C2238 C2239 1.376 . S
C2239 H2226 0.930 . S
C2239 C2238 1.376 . S
C2239 C2240 1.388 . S
C2240 H2227 0.930 . S
C2240 C2239 1.388 . S
C2240 C2241 1.390 . S
C2241 C2240 1.390 . S
C2241 C2242 1.394 . S
C2241 C2247 1.465 . S
C2242 C2237 1.399 . S
C2242 C2241 1.394 . S
C2242 C2243 1.516 . S
C2243 C2242 1.516 . S
C2243 C2244 1.502 . S
C2243 C2245 1.561 . S
C2243 C2246 1.526 . S
C2244 H2228 0.959 . S
C2244 H2229 0.959 . S
C2244 H2230 0.961 . S
C2244 C2243 1.502 . S
C2245 H2231 0.960 . S
C2245 H2232 0.961 . S
C2245 H2233 0.959 . S
C2245 C2243 1.561 . S
C2246 C2243 1.526 . S
C2246 C2247 1.396 . S
C2246 C2251 1.390 . S
C2247 C2241 1.465 . S
C2247 C2246 1.396 . S
C2247 C2248 1.399 . S
C2248 H2234 0.929 . S
C2248 C2247 1.399 . S
C2248 C2249 1.385 . S
C2249 H2235 0.931 . S
C2249 C2248 1.385 . S
C2249 C2250 1.389 . S
C2250 C2249 1.389 . S
C2250 C2251 1.387 . S
C2251 H2236 0.930 . S
C2251 C2246 1.390 . S
C2251 C2250 1.387 . S
H2252 C2264 0.930 . S
H2253 C2266 0.930 . S
H2254 C2267 0.930 . S
H2255 C2271 0.959 . S
H2256 C2271 0.959 . S
H2257 C2271 0.961 . S
H2258 C2272 0.960 . S
H2259 C2272 0.961 . S
H2260 C2272 0.959 . S
H2261 C2275 0.929 . S
H2262 C2276 0.931 . S
H2263 C2278 0.930 . S
C2264 H2252 0.930 . S
C2264 C2265 1.399 . S
C2264 C2269 1.399 . S
C2265 C2264 1.399 . S
C2265 C2266 1.376 . S
C2266 H2253 0.930 . S
C2266 C2265 1.376 . S
C2266 C2267 1.388 . S
C2267 H2254 0.930 . S
C2267 C2266 1.388 . S
C2267 C2268 1.390 . S
C2268 C2267 1.390 . S
C2268 C2269 1.394 . S
C2268 C2274 1.465 . S
C2269 C2264 1.399 . S
C2269 C2268 1.394 . S
C2269 C2270 1.516 . S
C2270 C2269 1.516 . S
C2270 C2271 1.502 . S
C2270 C2272 1.561 . S
C2270 C2273 1.526 . S
C2271 H2255 0.959 . S
C2271 H2256 0.959 . S
C2271 H2257 0.961 . S
C2271 C2270 1.502 . S
C2272 H2258 0.960 . S
C2272 H2259 0.961 . S
C2272 H2260 0.959 . S
C2272 C2270 1.561 . S
C2273 C2270 1.526 . S
C2273 C2274 1.396 . S
C2273 C2278 1.390 . S
C2274 C2268 1.465 . S
C2274 C2273 1.396 . S
C2274 C2275 1.399 . S
C2275 H2261 0.929 . S
C2275 C2274 1.399 . S
C2275 C2276 1.385 . S
C2276 H2262 0.931 . S
C2276 C2275 1.385 . S
C2276 C2277 1.389 . S
C2277 C2276 1.389 . S
C2277 C2278 1.387 . S
C2278 H2263 0.930 . S
C2278 C2273 1.390 . S
C2278 C2277 1.387 . S
H2279 C2291 0.930 . S
H2280 C2293 0.930 . S
H2281 C2294 0.930 . S
H2282 C2298 0.959 . S
H2283 C2298 0.959 . S
H2284 C2298 0.961 . S
H2285 C2299 0.960 . S
H2286 C2299 0.961 . S
H2287 C2299 0.959 . S
H2288 C2302 0.929 . S
H2289 C2303 0.931 . S
H2290 C2305 0.930 . S
C2291 H2279 0.930 . S
C2291 C2292 1.399 . S
C2291 C2296 1.399 . S
C2292 C2291 1.399 . S
C2292 C2293 1.376 . S
C2293 H2280 0.930 . S
C2293 C2292 1.376 . S
C2293 C2294 1.388 . S
C2294 H2281 0.930 . S
C2294 C2293 1.388 . S
C2294 C2295 1.390 . S
C2295 C2294 1.390 . S
C2295 C2296 1.394 . S
C2295 C2301 1.465 . S
C2296 C2291 1.399 . S
C2296 C2295 1.394 . S
C2296 C2297 1.516 . S
C2297 C2296 1.516 . S
C2297 C2298 1.502 . S
C2297 C2299 1.561 . S
C2297 C2300 1.526 . S
C2298 H2282 0.959 . S
C2298 H2283 0.959 . S
C2298 H2284 0.961 . S
C2298 C2297 1.502 . S
C2299 H2285 0.960 . S
C2299 H2286 0.961 . S
C2299 H2287 0.959 . S
C2299 C2297 1.561 . S
C2300 C2297 1.526 . S
C2300 C2301 1.396 . S
C2300 C2305 1.390 . S
C2301 C2295 1.465 . S
C2301 C2300 1.396 . S
C2301 C2302 1.399 . S
C2302 H2288 0.929 . S
C2302 C2301 1.399 . S
C2302 C2303 1.385 . S
C2303 H2289 0.931 . S
C2303 C2302 1.385 . S
C2303 C2304 1.389 . S
C2304 C2303 1.389 . S
C2304 C2305 1.387 . S
C2305 H2290 0.930 . S
C2305 C2300 1.390 . S
C2305 C2304 1.387 . S
H2306 C2318 0.930 . S
H2307 C2320 0.930 . S
H2308 C2321 0.930 . S
H2309 C2325 0.959 . S
H2310 C2325 0.959 . S
H2311 C2325 0.961 . S
H2312 C2326 0.960 . S
H2313 C2326 0.961 . S
H2314 C2326 0.959 . S
H2315 C2329 0.929 . S
H2316 C2330 0.931 . S
H2317 C2332 0.930 . S
C2318 H2306 0.930 . S
C2318 C2319 1.399 . S
C2318 C2323 1.399 . S
C2319 C2318 1.399 . S
C2319 C2320 1.376 . S
C2320 H2307 0.930 . S
C2320 C2319 1.376 . S
C2320 C2321 1.388 . S
C2321 H2308 0.930 . S
C2321 C2320 1.388 . S
C2321 C2322 1.390 . S
C2322 C2321 1.390 . S
C2322 C2323 1.394 . S
C2322 C2328 1.465 . S
C2323 C2318 1.399 . S
C2323 C2322 1.394 . S
C2323 C2324 1.516 . S
C2324 C2323 1.516 . S
C2324 C2325 1.502 . S
C2324 C2326 1.561 . S
C2324 C2327 1.526 . S
C2325 H2309 0.959 . S
C2325 H2310 0.959 . S
C2325 H2311 0.961 . S
C2325 C2324 1.502 . S
C2326 H2312 0.960 . S
C2326 H2313 0.961 . S
C2326 H2314 0.959 . S
C2326 C2324 1.561 . S
C2327 C2324 1.526 . S
C2327 C2328 1.396 . S
C2327 C2332 1.390 . S
C2328 C2322 1.465 . S
C2328 C2327 1.396 . S
C2328 C2329 1.399 . S
C2329 H2315 0.929 . S
C2329 C2328 1.399 . S
C2329 C2330 1.385 . S
C2330 H2316 0.931 . S
C2330 C2329 1.385 . S
C2330 C2331 1.389 . S
C2331 C2330 1.389 . S
C2331 C2332 1.387 . S
C2332 H2317 0.930 . S
C2332 C2327 1.390 . S
C2332 C2331 1.387 . S
H2333 C2345 0.930 . S
H2334 C2347 0.930 . S
H2335 C2348 0.930 . S
H2336 C2352 0.959 . S
H2337 C2352 0.959 . S
H2338 C2352 0.961 . S
H2339 C2353 0.960 . S
H2340 C2353 0.961 . S
H2341 C2353 0.959 . S
H2342 C2356 0.929 . S
H2343 C2357 0.931 . S
H2344 C2359 0.930 . S
C2345 H2333 0.930 . S
C2345 C2346 1.399 . S
C2345 C2350 1.399 . S
C2346 C2345 1.399 . S
C2346 C2347 1.376 . S
C2347 H2334 0.930 . S
C2347 C2346 1.376 . S
C2347 C2348 1.388 . S
C2348 H2335 0.930 . S
C2348 C2347 1.388 . S
C2348 C2349 1.390 . S
C2349 C2348 1.390 . S
C2349 C2350 1.394 . S
C2349 C2355 1.465 . S
C2350 C2345 1.399 . S
C2350 C2349 1.394 . S
C2350 C2351 1.516 . S
C2351 C2350 1.516 . S
C2351 C2352 1.502 . S
C2351 C2353 1.561 . S
C2351 C2354 1.526 . S
C2352 H2336 0.959 . S
C2352 H2337 0.959 . S
C2352 H2338 0.961 . S
C2352 C2351 1.502 . S
C2353 H2339 0.960 . S
C2353 H2340 0.961 . S
C2353 H2341 0.959 . S
C2353 C2351 1.561 . S
C2354 C2351 1.526 . S
C2354 C2355 1.396 . S
C2354 C2359 1.390 . S
C2355 C2349 1.465 . S
C2355 C2354 1.396 . S
C2355 C2356 1.399 . S
C2356 H2342 0.929 . S
C2356 C2355 1.399 . S
C2356 C2357 1.385 . S
C2357 H2343 0.931 . S
C2357 C2356 1.385 . S
C2357 C2358 1.389 . S
C2358 C2357 1.389 . S
C2358 C2359 1.387 . S
C2359 H2344 0.930 . S
C2359 C2354 1.390 . S
C2359 C2358 1.387 . S
H2360 C2372 0.930 . S
H2361 C2374 0.930 . S
H2362 C2375 0.930 . S
H2363 C2379 0.959 . S
H2364 C2379 0.959 . S
H2365 C2379 0.961 . S
H2366 C2380 0.960 . S
H2367 C2380 0.961 . S
H2368 C2380 0.959 . S
H2369 C2383 0.929 . S
H2370 C2384 0.931 . S
H2371 C2386 0.930 . S
C2372 H2360 0.930 . S
C2372 C2373 1.399 . S
C2372 C2377 1.399 . S
C2373 C2372 1.399 . S
C2373 C2374 1.376 . S
C2374 H2361 0.930 . S
C2374 C2373 1.376 . S
C2374 C2375 1.388 . S
C2375 H2362 0.930 . S
C2375 C2374 1.388 . S
C2375 C2376 1.390 . S
C2376 C2375 1.390 . S
C2376 C2377 1.394 . S
C2376 C2382 1.465 . S
C2377 C2372 1.399 . S
C2377 C2376 1.394 . S
C2377 C2378 1.516 . S
C2378 C2377 1.516 . S
C2378 C2379 1.502 . S
C2378 C2380 1.561 . S
C2378 C2381 1.526 . S
C2379 H2363 0.959 . S
C2379 H2364 0.959 . S
C2379 H2365 0.961 . S
C2379 C2378 1.502 . S
C2380 H2366 0.960 . S
C2380 H2367 0.961 . S
C2380 H2368 0.959 . S
C2380 C2378 1.561 . S
C2381 C2378 1.526 . S
C2381 C2382 1.396 . S
C2381 C2386 1.390 . S
C2382 C2376 1.465 . S
C2382 C2381 1.396 . S
C2382 C2383 1.399 . S
C2383 H2369 0.929 . S
C2383 C2382 1.399 . S
C2383 C2384 1.385 . S
C2384 H2370 0.931 . S
C2384 C2383 1.385 . S
C2384 C2385 1.389 . S
C2385 C2384 1.389 . S
C2385 C2386 1.387 . S
C2386 H2371 0.930 . S
C2386 C2381 1.390 . S
C2386 C2385 1.387 . S
H2387 C2399 0.930 . S
H2388 C2401 0.930 . S
H2389 C2402 0.930 . S
H2390 C2406 0.959 . S
H2391 C2406 0.959 . S
H2392 C2406 0.961 . S
H2393 C2407 0.960 . S
H2394 C2407 0.961 . S
H2395 C2407 0.959 . S
H2396 C2410 0.929 . S
H2397 C2411 0.931 . S
H2398 C2413 0.930 . S
C2399 H2387 0.930 . S
C2399 C2400 1.399 . S
C2399 C2404 1.399 . S
C2400 C2399 1.399 . S
C2400 C2401 1.376 . S
C2401 H2388 0.930 . S
C2401 C2400 1.376 . S
C2401 C2402 1.388 . S
C2402 H2389 0.930 . S
C2402 C2401 1.388 . S
C2402 C2403 1.390 . S
C2403 C2402 1.390 . S
C2403 C2404 1.394 . S
C2403 C2409 1.465 . S
C2404 C2399 1.399 . S
C2404 C2403 1.394 . S
C2404 C2405 1.516 . S
C2405 C2404 1.516 . S
C2405 C2406 1.502 . S
C2405 C2407 1.561 . S
C2405 C2408 1.526 . S
C2406 H2390 0.959 . S
C2406 H2391 0.959 . S
C2406 H2392 0.961 . S
C2406 C2405 1.502 . S
C2407 H2393 0.960 . S
C2407 H2394 0.961 . S
C2407 H2395 0.959 . S
C2407 C2405 1.561 . S
C2408 C2405 1.526 . S
C2408 C2409 1.396 . S
C2408 C2413 1.390 . S
C2409 C2403 1.465 . S
C2409 C2408 1.396 . S
C2409 C2410 1.399 . S
C2410 H2396 0.929 . S
C2410 C2409 1.399 . S
C2410 C2411 1.385 . S
C2411 H2397 0.931 . S
C2411 C2410 1.385 . S
C2411 C2412 1.389 . S
C2412 C2411 1.389 . S
C2412 C2413 1.387 . S
C2413 H2398 0.930 . S
C2413 C2408 1.390 . S
C2413 C2412 1.387 . S
H2414 C2426 0.930 . S
H2415 C2428 0.930 . S
H2416 C2429 0.930 . S
H2417 C2433 0.959 . S
H2418 C2433 0.959 . S
H2419 C2433 0.961 . S
H2420 C2434 0.960 . S
H2421 C2434 0.961 . S
H2422 C2434 0.959 . S
H2423 C2437 0.929 . S
H2424 C2438 0.931 . S
H2425 C2440 0.930 . S
C2426 H2414 0.930 . S
C2426 C2427 1.399 . S
C2426 C2431 1.399 . S
C2427 C2426 1.399 . S
C2427 C2428 1.376 . S
C2428 H2415 0.930 . S
C2428 C2427 1.376 . S
C2428 C2429 1.388 . S
C2429 H2416 0.930 . S
C2429 C2428 1.388 . S
C2429 C2430 1.390 . S
C2430 C2429 1.390 . S
C2430 C2431 1.394 . S
C2430 C2436 1.465 . S
C2431 C2426 1.399 . S
C2431 C2430 1.394 . S
C2431 C2432 1.516 . S
C2432 C2431 1.516 . S
C2432 C2433 1.502 . S
C2432 C2434 1.561 . S
C2432 C2435 1.526 . S
C2433 H2417 0.959 . S
C2433 H2418 0.959 . S
C2433 H2419 0.961 . S
C2433 C2432 1.502 . S
C2434 H2420 0.960 . S
C2434 H2421 0.961 . S
C2434 H2422 0.959 . S
C2434 C2432 1.561 . S
C2435 C2432 1.526 . S
C2435 C2436 1.396 . S
C2435 C2440 1.390 . S
C2436 C2430 1.465 . S
C2436 C2435 1.396 . S
C2436 C2437 1.399 . S
C2437 H2423 0.929 . S
C2437 C2436 1.399 . S
C2437 C2438 1.385 . S
C2438 H2424 0.931 . S
C2438 C2437 1.385 . S
C2438 C2439 1.389 . S
C2439 C2438 1.389 . S
C2439 C2440 1.387 . S
C2440 H2425 0.930 . S
C2440 C2435 1.390 . S
C2440 C2439 1.387 . S
H2441 C2453 0.930 . S
H2442 C2455 0.930 . S
H2443 C2456 0.930 1_545 S
H2444 C2460 0.959 . S
H2445 C2460 0.959 . S
H2446 C2460 0.961 . S
H2447 C2461 0.960 . S
H2448 C2461 0.961 . S
H2449 C2461 0.959 . S
H2450 C2464 0.929 . S
H2451 C2465 0.931 . S
H2452 C2467 0.930 . S
C2453 H2441 0.930 . S
C2453 C2454 1.399 . S
C2453 C2458 1.399 . S
C2454 C2453 1.399 . S
C2454 C2455 1.376 . S
C2455 H2442 0.930 . S
C2455 C2454 1.376 . S
C2455 C2456 1.388 . S
C2456 H2443 0.930 1_565 S
C2456 C2455 1.388 . S
C2456 C2457 1.390 . S
C2457 C2456 1.390 . S
C2457 C2458 1.394 . S
C2457 C2463 1.465 . S
C2458 C2453 1.399 . S
C2458 C2457 1.394 . S
C2458 C2459 1.516 . S
C2459 C2458 1.516 . S
C2459 C2460 1.502 . S
C2459 C2461 1.561 1_554 S
C2459 C2462 1.526 . S
C2460 H2444 0.959 . S
C2460 H2445 0.959 . S
C2460 H2446 0.961 . S
C2460 C2459 1.502 . S
C2461 H2447 0.960 . S
C2461 H2448 0.961 . S
C2461 H2449 0.959 . S
C2461 C2459 1.561 1_556 S
C2462 C2459 1.526 . S
C2462 C2463 1.396 . S
C2462 C2467 1.390 . S
C2463 C2457 1.465 . S
C2463 C2462 1.396 . S
C2463 C2464 1.399 1_565 S
C2464 H2450 0.929 . S
C2464 C2463 1.399 1_545 S
C2464 C2465 1.385 . S
C2465 H2451 0.931 . S
C2465 C2464 1.385 . S
C2465 C2466 1.389 . S
C2466 C2465 1.389 . S
C2466 C2467 1.387 1_545 S
C2467 H2452 0.930 . S
C2467 C2462 1.390 . S
C2467 C2466 1.387 1_565 S
H2468 C2480 0.930 . S
H2469 C2482 0.930 . S
H2470 C2483 0.930 . S
H2471 C2487 0.959 . S
H2472 C2487 0.959 . S
H2473 C2487 0.961 . S
H2474 C2488 0.960 . S
H2475 C2488 0.961 . S
H2476 C2488 0.959 . S
H2477 C2491 0.929 . S
H2478 C2492 0.931 . S
H2479 C2494 0.930 . S
C2480 H2468 0.930 . S
C2480 C2481 1.399 . S
C2480 C2485 1.399 . S
C2481 C2480 1.399 . S
C2481 C2482 1.376 . S
C2482 H2469 0.930 . S
C2482 C2481 1.376 . S
C2482 C2483 1.388 . S
C2483 H2470 0.930 . S
C2483 C2482 1.388 . S
C2483 C2484 1.390 . S
C2484 C2483 1.390 . S
C2484 C2485 1.394 . S
C2484 C2490 1.465 . S
C2485 C2480 1.399 . S
C2485 C2484 1.394 . S
C2485 C2486 1.516 . S
C2486 C2485 1.516 . S
C2486 C2487 1.502 . S
C2486 C2488 1.561 . S
C2486 C2489 1.526 . S
C2487 H2471 0.959 . S
C2487 H2472 0.959 . S
C2487 H2473 0.961 . S
C2487 C2486 1.502 . S
C2488 H2474 0.960 . S
C2488 H2475 0.961 . S
C2488 H2476 0.959 . S
C2488 C2486 1.561 . S
C2489 C2486 1.526 . S
C2489 C2490 1.396 . S
C2489 C2494 1.390 . S
C2490 C2484 1.465 . S
C2490 C2489 1.396 . S
C2490 C2491 1.399 . S
C2491 H2477 0.929 . S
C2491 C2490 1.399 . S
C2491 C2492 1.385 . S
C2492 H2478 0.931 . S
C2492 C2491 1.385 . S
C2492 C2493 1.389 . S
C2493 C2492 1.389 . S
C2493 C2494 1.387 . S
C2494 H2479 0.930 . S
C2494 C2489 1.390 . S
C2494 C2493 1.387 . S
H2495 C2507 0.930 . S
H2496 C2509 0.930 . S
H2497 C2510 0.930 . S
H2498 C2514 0.959 . S
H2499 C2514 0.959 . S
H2500 C2514 0.961 . S
H2501 C2515 0.960 . S
H2502 C2515 0.961 . S
H2503 C2515 0.959 . S
H2504 C2518 0.929 . S
H2505 C2519 0.931 1_556 S
H2506 C2521 0.930 . S
C2507 H2495 0.930 . S
C2507 C2508 1.399 . S
C2507 C2512 1.399 . S
C2508 C2507 1.399 . S
C2508 C2509 1.376 1_554 S
C2509 H2496 0.930 . S
C2509 C2508 1.376 1_556 S
C2509 C2510 1.388 . S
C2510 H2497 0.930 . S
C2510 C2509 1.388 . S
C2510 C2511 1.390 1_556 S
C2511 C2510 1.390 1_554 S
C2511 C2512 1.394 . S
C2511 C2517 1.465 . S
C2512 C2507 1.399 . S
C2512 C2511 1.394 . S
C2512 C2513 1.516 . S
C2513 C2512 1.516 . S
C2513 C2514 1.502 . S
C2513 C2515 1.561 . S
C2513 C2516 1.526 . S
C2514 H2498 0.959 . S
C2514 H2499 0.959 . S
C2514 H2500 0.961 . S
C2514 C2513 1.502 . S
C2515 H2501 0.960 . S
C2515 H2502 0.961 . S
C2515 H2503 0.959 . S
C2515 C2513 1.561 . S
C2516 C2513 1.526 . S
C2516 C2517 1.396 . S
C2516 C2521 1.390 . S
C2517 C2511 1.465 . S
C2517 C2516 1.396 . S
C2517 C2518 1.399 1_554 S
C2518 H2504 0.929 . S
C2518 C2517 1.399 1_556 S
C2518 C2519 1.385 1_556 S
C2519 H2505 0.931 1_554 S
C2519 C2518 1.385 1_554 S
C2519 C2520 1.389 . S
C2520 C2519 1.389 . S
C2520 C2521 1.387 . S
C2521 H2506 0.930 . S
C2521 C2516 1.390 . S
C2521 C2520 1.387 . S
H2522 C2534 0.930 . S
H2523 C2536 0.930 . S
H2524 C2537 0.930 . S
H2525 C2541 0.959 . S
H2526 C2541 0.959 . S
H2527 C2541 0.961 . S
H2528 C2542 0.960 . S
H2529 C2542 0.961 . S
H2530 C2542 0.959 . S
H2531 C2545 0.929 . S
H2532 C2546 0.931 . S
H2533 C2548 0.930 . S
C2534 H2522 0.930 . S
C2534 C2535 1.399 . S
C2534 C2539 1.399 . S
C2535 C2534 1.399 . S
C2535 C2536 1.376 . S
C2536 H2523 0.930 . S
C2536 C2535 1.376 . S
C2536 C2537 1.388 . S
C2537 H2524 0.930 . S
C2537 C2536 1.388 . S
C2537 C2538 1.390 . S
C2538 C2537 1.390 . S
C2538 C2539 1.394 . S
C2538 C2544 1.465 . S
C2539 C2534 1.399 . S
C2539 C2538 1.394 . S
C2539 C2540 1.516 . S
C2540 C2539 1.516 . S
C2540 C2541 1.502 . S
C2540 C2542 1.561 . S
C2540 C2543 1.526 . S
C2541 H2525 0.959 . S
C2541 H2526 0.959 . S
C2541 H2527 0.961 . S
C2541 C2540 1.502 . S
C2542 H2528 0.960 . S
C2542 H2529 0.961 . S
C2542 H2530 0.959 . S
C2542 C2540 1.561 . S
C2543 C2540 1.526 . S
C2543 C2544 1.396 . S
C2543 C2548 1.390 . S
C2544 C2538 1.465 . S
C2544 C2543 1.396 . S
C2544 C2545 1.399 . S
C2545 H2531 0.929 . S
C2545 C2544 1.399 . S
C2545 C2546 1.385 . S
C2546 H2532 0.931 . S
C2546 C2545 1.385 . S
C2546 C2547 1.389 . S
C2547 C2546 1.389 . S
C2547 C2548 1.387 . S
C2548 H2533 0.930 . S
C2548 C2543 1.390 . S
C2548 C2547 1.387 . S
H2549 C2561 0.930 . S
H2550 C2563 0.930 . S
H2551 C2564 0.930 . S
H2552 C2568 0.959 . S
H2553 C2568 0.959 . S
H2554 C2568 0.961 . S
H2555 C2569 0.960 . S
H2556 C2569 0.961 . S
H2557 C2569 0.959 . S
H2558 C2572 0.929 . S
H2559 C2573 0.931 . S
H2560 C2575 0.930 . S
C2561 H2549 0.930 . S
C2561 C2562 1.399 . S
C2561 C2566 1.399 . S
C2562 C2561 1.399 . S
C2562 C2563 1.376 . S
C2563 H2550 0.930 . S
C2563 C2562 1.376 . S
C2563 C2564 1.388 . S
C2564 H2551 0.930 . S
C2564 C2563 1.388 . S
C2564 C2565 1.390 . S
C2565 C2564 1.390 . S
C2565 C2566 1.394 . S
C2565 C2571 1.465 . S
C2566 C2561 1.399 . S
C2566 C2565 1.394 . S
C2566 C2567 1.516 . S
C2567 C2566 1.516 . S
C2567 C2568 1.502 . S
C2567 C2569 1.561 . S
C2567 C2570 1.526 . S
C2568 H2552 0.959 . S
C2568 H2553 0.959 . S
C2568 H2554 0.961 . S
C2568 C2567 1.502 . S
C2569 H2555 0.960 . S
C2569 H2556 0.961 . S
C2569 H2557 0.959 . S
C2569 C2567 1.561 . S
C2570 C2567 1.526 . S
C2570 C2571 1.396 . S
C2570 C2575 1.390 . S
C2571 C2565 1.465 . S
C2571 C2570 1.396 . S
C2571 C2572 1.399 . S
C2572 H2558 0.929 . S
C2572 C2571 1.399 . S
C2572 C2573 1.385 . S
C2573 H2559 0.931 . S
C2573 C2572 1.385 . S
C2573 C2574 1.389 . S
C2574 C2573 1.389 . S
C2574 C2575 1.387 . S
C2575 H2560 0.930 . S
C2575 C2570 1.390 . S
C2575 C2574 1.387 . S
H2576 C2588 0.930 . S
H2577 C2590 0.930 . S
H2578 C2591 0.930 . S
H2579 C2595 0.959 . S
H2580 C2595 0.959 . S
H2581 C2595 0.961 . S
H2582 C2596 0.960 . S
H2583 C2596 0.961 . S
H2584 C2596 0.959 . S
H2585 C2599 0.929 . S
H2586 C2600 0.931 . S
H2587 C2602 0.930 . S
C2588 H2576 0.930 . S
C2588 C2589 1.399 . S
C2588 C2593 1.399 . S
C2589 C2588 1.399 . S
C2589 C2590 1.376 . S
C2590 H2577 0.930 . S
C2590 C2589 1.376 . S
C2590 C2591 1.388 . S
C2591 H2578 0.930 . S
C2591 C2590 1.388 . S
C2591 C2592 1.390 . S
C2592 C2591 1.390 . S
C2592 C2593 1.394 . S
C2592 C2598 1.465 . S
C2593 C2588 1.399 . S
C2593 C2592 1.394 . S
C2593 C2594 1.516 . S
C2594 C2593 1.516 . S
C2594 C2595 1.502 . S
C2594 C2596 1.561 . S
C2594 C2597 1.526 . S
C2595 H2579 0.959 . S
C2595 H2580 0.959 . S
C2595 H2581 0.961 . S
C2595 C2594 1.502 . S
C2596 H2582 0.960 . S
C2596 H2583 0.961 . S
C2596 H2584 0.959 . S
C2596 C2594 1.561 . S
C2597 C2594 1.526 . S
C2597 C2598 1.396 . S
C2597 C2602 1.390 . S
C2598 C2592 1.465 . S
C2598 C2597 1.396 . S
C2598 C2599 1.399 . S
C2599 H2585 0.929 . S
C2599 C2598 1.399 . S
C2599 C2600 1.385 . S
C2600 H2586 0.931 . S
C2600 C2599 1.385 . S
C2600 C2601 1.389 . S
C2601 C2600 1.389 . S
C2601 C2602 1.387 . S
C2602 H2587 0.930 . S
C2602 C2597 1.390 . S
C2602 C2601 1.387 . S
H2603 C2615 0.930 . S
H2604 C2617 0.930 . S
H2605 C2618 0.930 . S
H2606 C2622 0.959 . S
H2607 C2622 0.959 . S
H2608 C2622 0.961 . S
H2609 C2623 0.960 . S
H2610 C2623 0.961 . S
H2611 C2623 0.959 . S
H2612 C2626 0.929 . S
H2613 C2627 0.931 . S
H2614 C2629 0.930 . S
C2615 H2603 0.930 . S
C2615 C2616 1.399 . S
C2615 C2620 1.399 . S
C2616 C2615 1.399 . S
C2616 C2617 1.376 . S
C2617 H2604 0.930 . S
C2617 C2616 1.376 . S
C2617 C2618 1.388 . S
C2618 H2605 0.930 . S
C2618 C2617 1.388 . S
C2618 C2619 1.390 . S
C2619 C2618 1.390 . S
C2619 C2620 1.394 . S
C2619 C2625 1.465 . S
C2620 C2615 1.399 . S
C2620 C2619 1.394 . S
C2620 C2621 1.516 . S
C2621 C2620 1.516 . S
C2621 C2622 1.502 . S
C2621 C2623 1.561 . S
C2621 C2624 1.526 . S
C2622 H2606 0.959 . S
C2622 H2607 0.959 . S
C2622 H2608 0.961 . S
C2622 C2621 1.502 . S
C2623 H2609 0.960 . S
C2623 H2610 0.961 . S
C2623 H2611 0.959 . S
C2623 C2621 1.561 . S
C2624 C2621 1.526 . S
C2624 C2625 1.396 . S
C2624 C2629 1.390 . S
C2625 C2619 1.465 . S
C2625 C2624 1.396 . S
C2625 C2626 1.399 . S
C2626 H2612 0.929 . S
C2626 C2625 1.399 . S
C2626 C2627 1.385 . S
C2627 H2613 0.931 . S
C2627 C2626 1.385 . S
C2627 C2628 1.389 . S
C2628 C2627 1.389 . S
C2628 C2629 1.387 . S
C2629 H2614 0.930 . S
C2629 C2624 1.390 . S
C2629 C2628 1.387 . S
H2630 C2642 0.930 . S
H2631 C2644 0.930 . S
H2632 C2645 0.930 . S
H2633 C2649 0.959 . S
H2634 C2649 0.959 . S
H2635 C2649 0.961 . S
H2636 C2650 0.960 1_655 S
H2637 C2650 0.961 1_655 S
H2638 C2650 0.959 . S
H2639 C2653 0.929 . S
H2640 C2654 0.931 . S
H2641 C2656 0.930 1_655 S
C2642 H2630 0.930 . S
C2642 C2643 1.399 1_655 S
C2642 C2647 1.399 1_655 S
C2643 C2642 1.399 1_455 S
C2643 C2644 1.376 . S
C2644 H2631 0.930 . S
C2644 C2643 1.376 . S
C2644 C2645 1.388 . S
C2645 H2632 0.930 . S
C2645 C2644 1.388 . S
C2645 C2646 1.390 . S
C2646 C2645 1.390 . S
C2646 C2647 1.394 . S
C2646 C2652 1.465 . S
C2647 C2642 1.399 1_455 S
C2647 C2646 1.394 . S
C2647 C2648 1.516 1_455 S
C2648 C2647 1.516 1_655 S
C2648 C2649 1.502 . S
C2648 C2650 1.561 1_655 S
C2648 C2651 1.526 1_655 S
C2649 H2633 0.959 . S
C2649 H2634 0.959 . S
C2649 H2635 0.961 . S
C2649 C2648 1.502 . S
C2650 H2636 0.960 1_455 S
C2650 H2637 0.961 1_455 S
C2650 H2638 0.959 . S
C2650 C2648 1.561 1_455 S
C2651 C2648 1.526 1_455 S
C2651 C2652 1.396 . S
C2651 C2656 1.390 . S
C2652 C2646 1.465 . S
C2652 C2651 1.396 . S
C2652 C2653 1.399 . S
C2653 H2639 0.929 . S
C2653 C2652 1.399 . S
C2653 C2654 1.385 . S
C2654 H2640 0.931 . S
C2654 C2653 1.385 . S
C2654 C2655 1.389 . S
C2655 C2654 1.389 . S
C2655 C2656 1.387 . S
C2656 H2641 0.930 1_455 S
C2656 C2651 1.390 . S
C2656 C2655 1.387 . S
H2657 C2669 0.930 . S
H2658 C2671 0.930 . S
H2659 C2672 0.930 . S
H2660 C2676 0.959 . S
H2661 C2676 0.959 . S
H2662 C2676 0.961 . S
H2663 C2677 0.960 . S
H2664 C2677 0.961 . S
H2665 C2677 0.959 . S
H2666 C2680 0.929 . S
H2667 C2681 0.931 . S
H2668 C2683 0.930 . S
C2669 H2657 0.930 . S
C2669 C2670 1.399 . S
C2669 C2674 1.399 . S
C2670 C2669 1.399 . S
C2670 C2671 1.376 . S
C2671 H2658 0.930 . S
C2671 C2670 1.376 . S
C2671 C2672 1.388 . S
C2672 H2659 0.930 . S
C2672 C2671 1.388 . S
C2672 C2673 1.390 . S
C2673 C2672 1.390 . S
C2673 C2674 1.394 . S
C2673 C2679 1.465 . S
C2674 C2669 1.399 . S
C2674 C2673 1.394 . S
C2674 C2675 1.516 . S
C2675 C2674 1.516 . S
C2675 C2676 1.502 . S
C2675 C2677 1.561 . S
C2675 C2678 1.526 . S
C2676 H2660 0.959 . S
C2676 H2661 0.959 . S
C2676 H2662 0.961 . S
C2676 C2675 1.502 . S
C2677 H2663 0.960 . S
C2677 H2664 0.961 . S
C2677 H2665 0.959 . S
C2677 C2675 1.561 . S
C2678 C2675 1.526 . S
C2678 C2679 1.396 . S
C2678 C2683 1.390 . S
C2679 C2673 1.465 . S
C2679 C2678 1.396 . S
C2679 C2680 1.399 . S
C2680 H2666 0.929 . S
C2680 C2679 1.399 . S
C2680 C2681 1.385 . S
C2681 H2667 0.931 . S
C2681 C2680 1.385 . S
C2681 C2682 1.389 . S
C2682 C2681 1.389 . S
C2682 C2683 1.387 . S
C2683 H2668 0.930 . S
C2683 C2678 1.390 . S
C2683 C2682 1.387 . S
H2684 C2696 0.930 . S
H2685 C2698 0.930 . S
H2686 C2699 0.930 . S
H2687 C2703 0.959 . S
H2688 C2703 0.959 . S
H2689 C2703 0.961 . S
H2690 C2704 0.960 . S
H2691 C2704 0.961 . S
H2692 C2704 0.959 . S
H2693 C2707 0.929 1_554 S
H2694 C2708 0.931 . S
H2695 C2710 0.930 . S
C2696 H2684 0.930 . S
C2696 C2697 1.399 . S
C2696 C2701 1.399 . S
C2697 C2696 1.399 . S
C2697 C2698 1.376 . S
C2698 H2685 0.930 . S
C2698 C2697 1.376 . S
C2698 C2699 1.388 . S
C2699 H2686 0.930 . S
C2699 C2698 1.388 . S
C2699 C2700 1.390 . S
C2700 C2699 1.390 . S
C2700 C2701 1.394 . S
C2700 C2706 1.465 . S
C2701 C2696 1.399 . S
C2701 C2700 1.394 . S
C2701 C2702 1.516 . S
C2702 C2701 1.516 . S
C2702 C2703 1.502 . S
C2702 C2704 1.561 . S
C2702 C2705 1.526 . S
C2703 H2687 0.959 . S
C2703 H2688 0.959 . S
C2703 H2689 0.961 . S
C2703 C2702 1.502 . S
C2704 H2690 0.960 . S
C2704 H2691 0.961 . S
C2704 H2692 0.959 . S
C2704 C2702 1.561 . S
C2705 C2702 1.526 . S
C2705 C2706 1.396 . S
C2705 C2710 1.390 . S
C2706 C2700 1.465 . S
C2706 C2705 1.396 . S
C2706 C2707 1.399 . S
C2707 H2693 0.929 1_556 S
C2707 C2706 1.399 . S
C2707 C2708 1.385 1_556 S
C2708 H2694 0.931 . S
C2708 C2707 1.385 1_554 S
C2708 C2709 1.389 1_554 S
C2709 C2708 1.389 1_556 S
C2709 C2710 1.387 . S
C2710 H2695 0.930 . S
C2710 C2705 1.390 . S
C2710 C2709 1.387 . S
H2711 C2723 0.930 . S
H2712 C2725 0.930 . S
H2713 C2726 0.930 . S
H2714 C2730 0.959 . S
H2715 C2730 0.959 . S
H2716 C2730 0.961 . S
H2717 C2731 0.960 . S
H2718 C2731 0.961 . S
H2719 C2731 0.959 . S
H2720 C2734 0.929 . S
H2721 C2735 0.931 . S
H2722 C2737 0.930 . S
C2723 H2711 0.930 . S
C2723 C2724 1.399 . S
C2723 C2728 1.399 . S
C2724 C2723 1.399 . S
C2724 C2725 1.376 . S
C2725 H2712 0.930 . S
C2725 C2724 1.376 . S
C2725 C2726 1.388 . S
C2726 H2713 0.930 . S
C2726 C2725 1.388 . S
C2726 C2727 1.390 . S
C2727 C2726 1.390 . S
C2727 C2728 1.394 . S
C2727 C2733 1.465 . S
C2728 C2723 1.399 . S
C2728 C2727 1.394 . S
C2728 C2729 1.516 . S
C2729 C2728 1.516 . S
C2729 C2730 1.502 . S
C2729 C2731 1.561 . S
C2729 C2732 1.526 . S
C2730 H2714 0.959 . S
C2730 H2715 0.959 . S
C2730 H2716 0.961 . S
C2730 C2729 1.502 . S
C2731 H2717 0.960 . S
C2731 H2718 0.961 . S
C2731 H2719 0.959 . S
C2731 C2729 1.561 . S
C2732 C2729 1.526 . S
C2732 C2733 1.396 . S
C2732 C2737 1.390 . S
C2733 C2727 1.465 . S
C2733 C2732 1.396 . S
C2733 C2734 1.399 . S
C2734 H2720 0.929 . S
C2734 C2733 1.399 . S
C2734 C2735 1.385 . S
C2735 H2721 0.931 . S
C2735 C2734 1.385 . S
C2735 C2736 1.389 . S
C2736 C2735 1.389 . S
C2736 C2737 1.387 . S
C2737 H2722 0.930 . S
C2737 C2732 1.390 . S
C2737 C2736 1.387 . S
H2738 C2750 0.930 . S
H2739 C2752 0.930 . S
H2740 C2753 0.930 . S
H2741 C2757 0.959 . S
H2742 C2757 0.959 . S
H2743 C2757 0.961 . S
H2744 C2758 0.960 . S
H2745 C2758 0.961 . S
H2746 C2758 0.959 . S
H2747 C2761 0.929 . S
H2748 C2762 0.931 . S
H2749 C2764 0.930 . S
C2750 H2738 0.930 . S
C2750 C2751 1.399 . S
C2750 C2755 1.399 . S
C2751 C2750 1.399 . S
C2751 C2752 1.376 . S
C2752 H2739 0.930 . S
C2752 C2751 1.376 . S
C2752 C2753 1.388 . S
C2753 H2740 0.930 . S
C2753 C2752 1.388 . S
C2753 C2754 1.390 . S
C2754 C2753 1.390 . S
C2754 C2755 1.394 . S
C2754 C2760 1.465 . S
C2755 C2750 1.399 . S
C2755 C2754 1.394 . S
C2755 C2756 1.516 . S
C2756 C2755 1.516 . S
C2756 C2757 1.502 1_455 S
C2756 C2758 1.561 . S
C2756 C2759 1.526 . S
C2757 H2741 0.959 . S
C2757 H2742 0.959 . S
C2757 H2743 0.961 . S
C2757 C2756 1.502 1_655 S
C2758 H2744 0.960 . S
C2758 H2745 0.961 . S
C2758 H2746 0.959 . S
C2758 C2756 1.561 . S
C2759 C2756 1.526 . S
C2759 C2760 1.396 . S
C2759 C2764 1.390 . S
C2760 C2754 1.465 . S
C2760 C2759 1.396 . S
C2760 C2761 1.399 . S
C2761 H2747 0.929 . S
C2761 C2760 1.399 . S
C2761 C2762 1.385 . S
C2762 H2748 0.931 . S
C2762 C2761 1.385 . S
C2762 C2763 1.389 . S
C2763 C2762 1.389 . S
C2763 C2764 1.387 . S
C2764 H2749 0.930 . S
C2764 C2759 1.390 . S
C2764 C2763 1.387 . S
H2765 C2777 0.930 . S
H2766 C2779 0.930 . S
H2767 C2780 0.930 . S
H2768 C2784 0.959 . S
H2769 C2784 0.959 . S
H2770 C2784 0.961 . S
H2771 C2785 0.960 . S
H2772 C2785 0.961 . S
H2773 C2785 0.959 . S
H2774 C2788 0.929 . S
H2775 C2789 0.931 . S
H2776 C2791 0.930 . S
C2777 H2765 0.930 . S
C2777 C2778 1.399 . S
C2777 C2782 1.399 . S
C2778 C2777 1.399 . S
C2778 C2779 1.376 . S
C2779 H2766 0.930 . S
C2779 C2778 1.376 . S
C2779 C2780 1.388 . S
C2780 H2767 0.930 . S
C2780 C2779 1.388 . S
C2780 C2781 1.390 . S
C2781 C2780 1.390 . S
C2781 C2782 1.394 . S
C2781 C2787 1.465 . S
C2782 C2777 1.399 . S
C2782 C2781 1.394 . S
C2782 C2783 1.516 . S
C2783 C2782 1.516 . S
C2783 C2784 1.502 . S
C2783 C2785 1.561 . S
C2783 C2786 1.526 . S
C2784 H2768 0.959 . S
C2784 H2769 0.959 . S
C2784 H2770 0.961 . S
C2784 C2783 1.502 . S
C2785 H2771 0.960 . S
C2785 H2772 0.961 . S
C2785 H2773 0.959 . S
C2785 C2783 1.561 . S
C2786 C2783 1.526 . S
C2786 C2787 1.396 . S
C2786 C2791 1.390 . S
C2787 C2781 1.465 . S
C2787 C2786 1.396 . S
C2787 C2788 1.399 . S
C2788 H2774 0.929 . S
C2788 C2787 1.399 . S
C2788 C2789 1.385 . S
C2789 H2775 0.931 . S
C2789 C2788 1.385 . S
C2789 C2790 1.389 . S
C2790 C2789 1.389 . S
C2790 C2791 1.387 . S
C2791 H2776 0.930 . S
C2791 C2786 1.390 . S
C2791 C2790 1.387 . S
H2792 C2804 0.930 . S
H2793 C2806 0.930 . S
H2794 C2807 0.930 . S
H2795 C2811 0.959 . S
H2796 C2811 0.959 . S
H2797 C2811 0.961 . S
H2798 C2812 0.960 . S
H2799 C2812 0.961 . S
H2800 C2812 0.959 . S
H2801 C2815 0.929 . S
H2802 C2816 0.931 . S
H2803 C2818 0.930 . S
C2804 H2792 0.930 . S
C2804 C2805 1.399 . S
C2804 C2809 1.399 . S
C2805 C2804 1.399 . S
C2805 C2806 1.376 . S
C2806 H2793 0.930 . S
C2806 C2805 1.376 . S
C2806 C2807 1.388 . S
C2807 H2794 0.930 . S
C2807 C2806 1.388 . S
C2807 C2808 1.390 . S
C2808 C2807 1.390 . S
C2808 C2809 1.394 . S
C2808 C2814 1.465 . S
C2809 C2804 1.399 . S
C2809 C2808 1.394 . S
C2809 C2810 1.516 . S
C2810 C2809 1.516 . S
C2810 C2811 1.502 . S
C2810 C2812 1.561 . S
C2810 C2813 1.526 . S
C2811 H2795 0.959 . S
C2811 H2796 0.959 . S
C2811 H2797 0.961 . S
C2811 C2810 1.502 . S
C2812 H2798 0.960 . S
C2812 H2799 0.961 . S
C2812 H2800 0.959 . S
C2812 C2810 1.561 . S
C2813 C2810 1.526 . S
C2813 C2814 1.396 . S
C2813 C2818 1.390 . S
C2814 C2808 1.465 . S
C2814 C2813 1.396 . S
C2814 C2815 1.399 . S
C2815 H2801 0.929 . S
C2815 C2814 1.399 . S
C2815 C2816 1.385 . S
C2816 H2802 0.931 . S
C2816 C2815 1.385 . S
C2816 C2817 1.389 . S
C2817 C2816 1.389 . S
C2817 C2818 1.387 . S
C2818 H2803 0.930 . S
C2818 C2813 1.390 . S
C2818 C2817 1.387 . S
H2819 C2831 0.930 . S
H2820 C2833 0.930 . S
H2821 C2834 0.930 . S
H2822 C2838 0.959 . S
H2823 C2838 0.959 . S
H2824 C2838 0.961 . S
H2825 C2839 0.960 . S
H2826 C2839 0.961 . S
H2827 C2839 0.959 . S
H2828 C2842 0.929 . S
H2829 C2843 0.931 . S
H2830 C2845 0.930 . S
C2831 H2819 0.930 . S
C2831 C2832 1.399 . S
C2831 C2836 1.399 . S
C2832 C2831 1.399 . S
C2832 C2833 1.376 . S
C2833 H2820 0.930 . S
C2833 C2832 1.376 . S
C2833 C2834 1.388 . S
C2834 H2821 0.930 . S
C2834 C2833 1.388 . S
C2834 C2835 1.390 . S
C2835 C2834 1.390 . S
C2835 C2836 1.394 . S
C2835 C2841 1.465 . S
C2836 C2831 1.399 . S
C2836 C2835 1.394 . S
C2836 C2837 1.516 . S
C2837 C2836 1.516 . S
C2837 C2838 1.502 . S
C2837 C2839 1.561 . S
C2837 C2840 1.526 . S
C2838 H2822 0.959 . S
C2838 H2823 0.959 . S
C2838 H2824 0.961 . S
C2838 C2837 1.502 . S
C2839 H2825 0.960 . S
C2839 H2826 0.961 . S
C2839 H2827 0.959 . S
C2839 C2837 1.561 . S
C2840 C2837 1.526 . S
C2840 C2841 1.396 . S
C2840 C2845 1.390 . S
C2841 C2835 1.465 . S
C2841 C2840 1.396 . S
C2841 C2842 1.399 . S
C2842 H2828 0.929 . S
C2842 C2841 1.399 . S
C2842 C2843 1.385 . S
C2843 H2829 0.931 . S
C2843 C2842 1.385 . S
C2843 C2844 1.389 . S
C2844 C2843 1.389 . S
C2844 C2845 1.387 . S
C2845 H2830 0.930 . S
C2845 C2840 1.390 . S
C2845 C2844 1.387 . S
H2846 C2858 0.930 . S
H2847 C2860 0.930 . S
H2848 C2861 0.930 . S
H2849 C2865 0.959 . S
H2850 C2865 0.959 . S
H2851 C2865 0.961 . S
H2852 C2866 0.960 . S
H2853 C2866 0.961 . S
H2854 C2866 0.959 . S
H2855 C2869 0.929 . S
H2856 C2870 0.931 . S
H2857 C2872 0.930 1_455 S
C2858 H2846 0.930 . S
C2858 C2859 1.399 . S
C2858 C2863 1.399 . S
C2859 C2858 1.399 . S
C2859 C2860 1.376 . S
C2860 H2847 0.930 . S
C2860 C2859 1.376 . S
C2860 C2861 1.388 . S
C2861 H2848 0.930 . S
C2861 C2860 1.388 . S
C2861 C2862 1.390 . S
C2862 C2861 1.390 . S
C2862 C2863 1.394 . S
C2862 C2868 1.465 . S
C2863 C2858 1.399 . S
C2863 C2862 1.394 . S
C2863 C2864 1.516 . S
C2864 C2863 1.516 . S
C2864 C2865 1.502 1_655 S
C2864 C2866 1.561 . S
C2864 C2867 1.526 . S
C2865 H2849 0.959 . S
C2865 H2850 0.959 . S
C2865 H2851 0.961 . S
C2865 C2864 1.502 1_455 S
C2866 H2852 0.960 . S
C2866 H2853 0.961 . S
C2866 H2854 0.959 . S
C2866 C2864 1.561 . S
C2867 C2864 1.526 . S
C2867 C2868 1.396 . S
C2867 C2872 1.390 . S
C2868 C2862 1.465 . S
C2868 C2867 1.396 . S
C2868 C2869 1.399 . S
C2869 H2855 0.929 . S
C2869 C2868 1.399 . S
C2869 C2870 1.385 . S
C2870 H2856 0.931 . S
C2870 C2869 1.385 . S
C2870 C2871 1.389 . S
C2871 C2870 1.389 . S
C2871 C2872 1.387 . S
C2872 H2857 0.930 1_655 S
C2872 C2867 1.390 . S
C2872 C2871 1.387 . S
H2873 C2885 0.930 . S
H2874 C2887 0.930 . S
H2875 C2888 0.930 . S
H2876 C2892 0.959 . S
H2877 C2892 0.959 . S
H2878 C2892 0.961 . S
H2879 C2893 0.960 . S
H2880 C2893 0.961 . S
H2881 C2893 0.959 . S
H2882 C2896 0.929 . S
H2883 C2897 0.931 . S
H2884 C2899 0.930 . S
C2885 H2873 0.930 . S
C2885 C2886 1.399 . S
C2885 C2890 1.399 . S
C2886 C2885 1.399 . S
C2886 C2887 1.376 . S
C2887 H2874 0.930 . S
C2887 C2886 1.376 . S
C2887 C2888 1.388 . S
C2888 H2875 0.930 . S
C2888 C2887 1.388 . S
C2888 C2889 1.390 . S
C2889 C2888 1.390 . S
C2889 C2890 1.394 . S
C2889 C2895 1.465 . S
C2890 C2885 1.399 . S
C2890 C2889 1.394 . S
C2890 C2891 1.516 . S
C2891 C2890 1.516 . S
C2891 C2892 1.502 . S
C2891 C2893 1.561 . S
C2891 C2894 1.526 . S
C2892 H2876 0.959 . S
C2892 H2877 0.959 . S
C2892 H2878 0.961 . S
C2892 C2891 1.502 . S
C2893 H2879 0.960 . S
C2893 H2880 0.961 . S
C2893 H2881 0.959 . S
C2893 C2891 1.561 . S
C2894 C2891 1.526 . S
C2894 C2895 1.396 . S
C2894 C2899 1.390 . S
C2895 C2889 1.465 . S
C2895 C2894 1.396 . S
C2895 C2896 1.399 . S
C2896 H2882 0.929 . S
C2896 C2895 1.399 . S
C2896 C2897 1.385 . S
C2897 H2883 0.931 . S
C2897 C2896 1.385 . S
C2897 C2898 1.389 . S
C2898 C2897 1.389 . S
C2898 C2899 1.387 . S
C2899 H2884 0.930 . S
C2899 C2894 1.390 . S
C2899 C2898 1.387 . S
H2900 C2912 0.930 . S
H2901 C2914 0.930 . S
H2902 C2915 0.930 . S
H2903 C2919 0.959 . S
H2904 C2919 0.959 . S
H2905 C2919 0.961 . S
H2906 C2920 0.960 . S
H2907 C2920 0.961 . S
H2908 C2920 0.959 . S
H2909 C2923 0.929 . S
H2910 C2924 0.931 . S
H2911 C2926 0.930 . S
C2912 H2900 0.930 . S
C2912 C2913 1.399 . S
C2912 C2917 1.399 . S
C2913 C2912 1.399 . S
C2913 C2914 1.376 . S
C2914 H2901 0.930 . S
C2914 C2913 1.376 . S
C2914 C2915 1.388 . S
C2915 H2902 0.930 . S
C2915 C2914 1.388 . S
C2915 C2916 1.390 . S
C2916 C2915 1.390 . S
C2916 C2917 1.394 . S
C2916 C2922 1.465 . S
C2917 C2912 1.399 . S
C2917 C2916 1.394 . S
C2917 C2918 1.516 . S
C2918 C2917 1.516 . S
C2918 C2919 1.502 . S
C2918 C2920 1.561 . S
C2918 C2921 1.526 . S
C2919 H2903 0.959 . S
C2919 H2904 0.959 . S
C2919 H2905 0.961 . S
C2919 C2918 1.502 . S
C2920 H2906 0.960 . S
C2920 H2907 0.961 . S
C2920 H2908 0.959 . S
C2920 C2918 1.561 . S
C2921 C2918 1.526 . S
C2921 C2922 1.396 . S
C2921 C2926 1.390 . S
C2922 C2916 1.465 . S
C2922 C2921 1.396 . S
C2922 C2923 1.399 . S
C2923 H2909 0.929 . S
C2923 C2922 1.399 . S
C2923 C2924 1.385 . S
C2924 H2910 0.931 . S
C2924 C2923 1.385 . S
C2924 C2925 1.389 . S
C2925 C2924 1.389 . S
C2925 C2926 1.387 . S
C2926 H2911 0.930 . S
C2926 C2921 1.390 . S
C2926 C2925 1.387 . S
H2927 C2939 0.930 . S
H2928 C2941 0.930 . S
H2929 C2942 0.930 . S
H2930 C2946 0.959 . S
H2931 C2946 0.959 . S
H2932 C2946 0.961 . S
H2933 C2947 0.960 . S
H2934 C2947 0.961 . S
H2935 C2947 0.959 . S
H2936 C2950 0.929 . S
H2937 C2951 0.931 . S
H2938 C2953 0.930 . S
C2939 H2927 0.930 . S
C2939 C2940 1.399 . S
C2939 C2944 1.399 . S
C2940 C2939 1.399 . S
C2940 C2941 1.376 . S
C2941 H2928 0.930 . S
C2941 C2940 1.376 . S
C2941 C2942 1.388 . S
C2942 H2929 0.930 . S
C2942 C2941 1.388 . S
C2942 C2943 1.390 . S
C2943 C2942 1.390 . S
C2943 C2944 1.394 . S
C2943 C2949 1.465 . S
C2944 C2939 1.399 . S
C2944 C2943 1.394 . S
C2944 C2945 1.516 . S
C2945 C2944 1.516 . S
C2945 C2946 1.502 . S
C2945 C2947 1.561 . S
C2945 C2948 1.526 . S
C2946 H2930 0.959 . S
C2946 H2931 0.959 . S
C2946 H2932 0.961 . S
C2946 C2945 1.502 . S
C2947 H2933 0.960 . S
C2947 H2934 0.961 . S
C2947 H2935 0.959 . S
C2947 C2945 1.561 . S
C2948 C2945 1.526 . S
C2948 C2949 1.396 . S
C2948 C2953 1.390 . S
C2949 C2943 1.465 . S
C2949 C2948 1.396 . S
C2949 C2950 1.399 . S
C2950 H2936 0.929 . S
C2950 C2949 1.399 . S
C2950 C2951 1.385 . S
C2951 H2937 0.931 . S
C2951 C2950 1.385 . S
C2951 C2952 1.389 . S
C2952 C2951 1.389 . S
C2952 C2953 1.387 . S
C2953 H2938 0.930 . S
C2953 C2948 1.390 . S
C2953 C2952 1.387 . S
H2954 C2966 0.930 . S
H2955 C2968 0.930 . S
H2956 C2969 0.930 . S
H2957 C2973 0.959 . S
H2958 C2973 0.959 . S
H2959 C2973 0.961 . S
H2960 C2974 0.960 . S
H2961 C2974 0.961 1_455 S
H2962 C2974 0.959 1_455 S
H2963 C2977 0.929 . S
H2964 C2978 0.931 . S
H2965 C2980 0.930 . S
C2966 H2954 0.930 . S
C2966 C2967 1.399 . S
C2966 C2971 1.399 . S
C2967 C2966 1.399 . S
C2967 C2968 1.376 . S
C2968 H2955 0.930 . S
C2968 C2967 1.376 . S
C2968 C2969 1.388 . S
C2969 H2956 0.930 . S
C2969 C2968 1.388 . S
C2969 C2970 1.390 . S
C2970 C2969 1.390 . S
C2970 C2971 1.394 . S
C2970 C2976 1.465 . S
C2971 C2966 1.399 . S
C2971 C2970 1.394 . S
C2971 C2972 1.516 . S
C2972 C2971 1.516 . S
C2972 C2973 1.502 . S
C2972 C2974 1.561 . S
C2972 C2975 1.526 . S
C2973 H2957 0.959 . S
C2973 H2958 0.959 . S
C2973 H2959 0.961 . S
C2973 C2972 1.502 . S
C2974 H2960 0.960 . S
C2974 H2961 0.961 1_655 S
C2974 H2962 0.959 1_655 S
C2974 C2972 1.561 . S
C2975 C2972 1.526 . S
C2975 C2976 1.396 . S
C2975 C2980 1.390 . S
C2976 C2970 1.465 . S
C2976 C2975 1.396 . S
C2976 C2977 1.399 . S
C2977 H2963 0.929 . S
C2977 C2976 1.399 . S
C2977 C2978 1.385 . S
C2978 H2964 0.931 . S
C2978 C2977 1.385 . S
C2978 C2979 1.389 . S
C2979 C2978 1.389 . S
C2979 C2980 1.387 . S
C2980 H2965 0.930 . S
C2980 C2975 1.390 . S
C2980 C2979 1.387 . S
H2981 C2993 0.930 . S
H2982 C2995 0.930 . S
H2983 C2996 0.930 . S
H2984 C3000 0.959 . S
H2985 C3000 0.959 . S
H2986 C3000 0.961 . S
H2987 C3001 0.960 . S
H2988 C3001 0.961 . S
H2989 C3001 0.959 . S
H2990 C3004 0.929 . S
H2991 C3005 0.931 . S
H2992 C3007 0.930 . S
C2993 H2981 0.930 . S
C2993 C2994 1.399 . S
C2993 C2998 1.399 . S
C2994 C2993 1.399 . S
C2994 C2995 1.376 . S
C2995 H2982 0.930 . S
C2995 C2994 1.376 . S
C2995 C2996 1.388 . S
C2996 H2983 0.930 . S
C2996 C2995 1.388 . S
C2996 C2997 1.390 . S
C2997 C2996 1.390 . S
C2997 C2998 1.394 . S
C2997 C3003 1.465 . S
C2998 C2993 1.399 . S
C2998 C2997 1.394 . S
C2998 C2999 1.516 . S
C2999 C2998 1.516 . S
C2999 C3000 1.502 . S
C2999 C3001 1.561 . S
C2999 C3002 1.526 . S
C3000 H2984 0.959 . S
C3000 H2985 0.959 . S
C3000 H2986 0.961 . S
C3000 C2999 1.502 . S
C3001 H2987 0.960 . S
C3001 H2988 0.961 . S
C3001 H2989 0.959 . S
C3001 C2999 1.561 . S
C3002 C2999 1.526 . S
C3002 C3003 1.396 . S
C3002 C3007 1.390 . S
C3003 C2997 1.465 . S
C3003 C3002 1.396 . S
C3003 C3004 1.399 . S
C3004 H2990 0.929 . S
C3004 C3003 1.399 . S
C3004 C3005 1.385 . S
C3005 H2991 0.931 . S
C3005 C3004 1.385 . S
C3005 C3006 1.389 . S
C3006 C3005 1.389 . S
C3006 C3007 1.387 . S
C3007 H2992 0.930 . S
C3007 C3002 1.390 . S
C3007 C3006 1.387 . S
H3008 C3020 0.930 . S
H3009 C3022 0.930 . S
H3010 C3023 0.930 . S
H3011 C3027 0.959 . S
H3012 C3027 0.959 . S
H3013 C3027 0.961 . S
H3014 C3028 0.960 . S
H3015 C3028 0.961 . S
H3016 C3028 0.959 . S
H3017 C3031 0.929 . S
H3018 C3032 0.931 . S
H3019 C3034 0.930 . S
C3020 H3008 0.930 . S
C3020 C3021 1.399 . S
C3020 C3025 1.399 . S
C3021 C3020 1.399 . S
C3021 C3022 1.376 . S
C3022 H3009 0.930 . S
C3022 C3021 1.376 . S
C3022 C3023 1.388 . S
C3023 H3010 0.930 . S
C3023 C3022 1.388 . S
C3023 C3024 1.390 . S
C3024 C3023 1.390 . S
C3024 C3025 1.394 . S
C3024 C3030 1.465 . S
C3025 C3020 1.399 . S
C3025 C3024 1.394 . S
C3025 C3026 1.516 . S
C3026 C3025 1.516 . S
C3026 C3027 1.502 . S
C3026 C3028 1.561 . S
C3026 C3029 1.526 . S
C3027 H3011 0.959 . S
C3027 H3012 0.959 . S
C3027 H3013 0.961 . S
C3027 C3026 1.502 . S
C3028 H3014 0.960 . S
C3028 H3015 0.961 . S
C3028 H3016 0.959 . S
C3028 C3026 1.561 . S
C3029 C3026 1.526 . S
C3029 C3030 1.396 . S
C3029 C3034 1.390 . S
C3030 C3024 1.465 . S
C3030 C3029 1.396 . S
C3030 C3031 1.399 . S
C3031 H3017 0.929 . S
C3031 C3030 1.399 . S
C3031 C3032 1.385 . S
C3032 H3018 0.931 . S
C3032 C3031 1.385 . S
C3032 C3033 1.389 . S
C3033 C3032 1.389 . S
C3033 C3034 1.387 . S
C3034 H3019 0.930 . S
C3034 C3029 1.390 . S
C3034 C3033 1.387 . S
H3035 C3047 0.930 . S
H3036 C3049 0.930 . S
H3037 C3050 0.930 . S
H3038 C3054 0.959 . S
H3039 C3054 0.959 . S
H3040 C3054 0.961 . S
H3041 C3055 0.960 . S
H3042 C3055 0.961 . S
H3043 C3055 0.959 . S
H3044 C3058 0.929 . S
H3045 C3059 0.931 . S
H3046 C3061 0.930 . S
C3047 H3035 0.930 . S
C3047 C3048 1.399 . S
C3047 C3052 1.399 . S
C3048 C3047 1.399 . S
C3048 C3049 1.376 . S
C3049 H3036 0.930 . S
C3049 C3048 1.376 . S
C3049 C3050 1.388 . S
C3050 H3037 0.930 . S
C3050 C3049 1.388 . S
C3050 C3051 1.390 . S
C3051 C3050 1.390 . S
C3051 C3052 1.394 . S
C3051 C3057 1.465 . S
C3052 C3047 1.399 . S
C3052 C3051 1.394 . S
C3052 C3053 1.516 . S
C3053 C3052 1.516 . S
C3053 C3054 1.502 . S
C3053 C3055 1.561 . S
C3053 C3056 1.526 . S
C3054 H3038 0.959 . S
C3054 H3039 0.959 . S
C3054 H3040 0.961 . S
C3054 C3053 1.502 . S
C3055 H3041 0.960 . S
C3055 H3042 0.961 . S
C3055 H3043 0.959 . S
C3055 C3053 1.561 . S
C3056 C3053 1.526 . S
C3056 C3057 1.396 . S
C3056 C3061 1.390 . S
C3057 C3051 1.465 . S
C3057 C3056 1.396 . S
C3057 C3058 1.399 1_565 S
C3058 H3044 0.929 . S
C3058 C3057 1.399 1_545 S
C3058 C3059 1.385 . S
C3059 H3045 0.931 . S
C3059 C3058 1.385 . S
C3059 C3060 1.386 1_545 S
C3060 C3059 1.386 1_565 S
C3060 C3061 1.391 . S
C3061 H3046 0.930 . S
C3061 C3056 1.390 . S
C3061 C3060 1.391 . S
H3062 C3074 0.930 . S
H3063 C3076 0.930 . S
H3064 C3077 0.930 . S
H3065 C3081 0.959 . S
H3066 C3081 0.959 . S
H3067 C3081 0.961 . S
H3068 C3082 0.960 . S
H3069 C3082 0.961 . S
H3070 C3082 0.959 . S
H3071 C3085 0.929 . S
H3072 C3086 0.931 . S
H3073 C3088 0.930 . S
C3074 H3062 0.930 . S
C3074 C3075 1.399 . S
C3074 C3079 1.399 . S
C3075 C3074 1.399 . S
C3075 C3076 1.376 . S
C3076 H3063 0.930 . S
C3076 C3075 1.376 . S
C3076 C3077 1.388 . S
C3077 H3064 0.930 . S
C3077 C3076 1.388 . S
C3077 C3078 1.390 . S
C3078 C3077 1.390 . S
C3078 C3079 1.394 . S
C3078 C3084 1.465 . S
C3079 C3074 1.399 . S
C3079 C3078 1.394 . S
C3079 C3080 1.516 . S
C3080 C3079 1.516 . S
C3080 C3081 1.502 . S
C3080 C3082 1.561 . S
C3080 C3083 1.526 . S
C3081 H3065 0.959 . S
C3081 H3066 0.959 . S
C3081 H3067 0.961 . S
C3081 C3080 1.502 . S
C3082 H3068 0.960 . S
C3082 H3069 0.961 . S
C3082 H3070 0.959 . S
C3082 C3080 1.561 . S
C3083 C3080 1.526 . S
C3083 C3084 1.396 . S
C3083 C3088 1.390 . S
C3084 C3078 1.465 . S
C3084 C3083 1.396 . S
C3084 C3085 1.399 . S
C3085 H3071 0.929 . S
C3085 C3084 1.399 . S
C3085 C3086 1.385 . S
C3086 H3072 0.931 . S
C3086 C3085 1.385 . S
C3086 C3087 1.389 . S
C3087 C3086 1.389 . S
C3087 C3088 1.387 . S
C3088 H3073 0.930 . S
C3088 C3083 1.390 . S
C3088 C3087 1.387 . S
H3089 C3101 0.930 . S
H3090 C3103 0.930 . S
H3091 C3104 0.930 . S
H3092 C3108 0.959 . S
H3093 C3108 0.959 . S
H3094 C3108 0.961 . S
H3095 C3109 0.960 . S
H3096 C3109 0.961 . S
H3097 C3109 0.959 . S
H3098 C3112 0.929 . S
H3099 C3113 0.931 . S
H3100 C3115 0.930 . S
C3101 H3089 0.930 . S
C3101 C3102 1.408 . S
C3101 C3106 1.399 . S
C3102 C3101 1.408 . S
C3102 C3103 1.362 1_556 S
C3103 H3090 0.930 . S
C3103 C3102 1.362 1_554 S
C3103 C3104 1.388 . S
C3104 H3091 0.930 . S
C3104 C3103 1.388 . S
C3104 C3105 1.390 . S
C3105 C3104 1.390 . S
C3105 C3106 1.394 1_554 S
C3105 C3111 1.465 . S
C3106 C3101 1.399 . S
C3106 C3105 1.394 1_556 S
C3106 C3107 1.516 . S
C3107 C3106 1.516 . S
C3107 C3108 1.502 . S
C3107 C3109 1.561 . S
C3107 C3110 1.526 . S
C3108 H3092 0.959 . S
C3108 H3093 0.959 . S
C3108 H3094 0.961 . S
C3108 C3107 1.502 . S
C3109 H3095 0.960 . S
C3109 H3096 0.961 . S
C3109 H3097 0.959 . S
C3109 C3107 1.561 . S
C3110 C3107 1.526 . S
C3110 C3111 1.396 1_556 S
C3110 C3115 1.390 . S
C3111 C3105 1.465 . S
C3111 C3110 1.396 1_554 S
C3111 C3112 1.399 . S
C3112 H3098 0.929 . S
C3112 C3111 1.399 . S
C3112 C3113 1.385 . S
C3113 H3099 0.931 . S
C3113 C3112 1.385 . S
C3113 C3114 1.389 . S
C3114 C3113 1.389 . S
C3114 C3115 1.387 1_554 S
C3115 H3100 0.930 . S
C3115 C3110 1.390 . S
C3115 C3114 1.387 1_556 S
H3116 C3128 0.930 . S
H3117 C3130 0.930 . S
H3118 C3131 0.930 . S
H3119 C3135 0.959 . S
H3120 C3135 0.959 . S
H3121 C3135 0.961 . S
H3122 C3136 0.960 . S
H3123 C3136 0.961 . S
H3124 C3136 0.959 . S
H3125 C3139 0.929 . S
H3126 C3140 0.931 . S
H3127 C3142 0.930 . S
C3128 H3116 0.930 . S
C3128 C3129 1.399 . S
C3128 C3133 1.399 . S
C3129 C3128 1.399 . S
C3129 C3130 1.376 . S
C3130 H3117 0.930 . S
C3130 C3129 1.376 . S
C3130 C3131 1.388 . S
C3131 H3118 0.930 . S
C3131 C3130 1.388 . S
C3131 C3132 1.390 . S
C3132 C3131 1.390 . S
C3132 C3133 1.394 . S
C3132 C3138 1.465 . S
C3133 C3128 1.399 . S
C3133 C3132 1.394 . S
C3133 C3134 1.516 . S
C3134 C3133 1.516 . S
C3134 C3135 1.502 . S
C3134 C3136 1.561 . S
C3134 C3137 1.526 . S
C3135 H3119 0.959 . S
C3135 H3120 0.959 . S
C3135 H3121 0.961 . S
C3135 C3134 1.502 . S
C3136 H3122 0.960 . S
C3136 H3123 0.961 . S
C3136 H3124 0.959 . S
C3136 C3134 1.561 . S
C3137 C3134 1.526 . S
C3137 C3138 1.396 . S
C3137 C3142 1.390 . S
C3138 C3132 1.465 . S
C3138 C3137 1.396 . S
C3138 C3139 1.399 . S
C3139 H3125 0.929 . S
C3139 C3138 1.399 . S
C3139 C3140 1.385 . S
C3140 H3126 0.931 . S
C3140 C3139 1.385 . S
C3140 C3141 1.389 . S
C3141 C3140 1.389 . S
C3141 C3142 1.387 . S
C3142 H3127 0.930 . S
C3142 C3137 1.390 . S
C3142 C3141 1.387 . S
H3143 C3155 0.930 . S
H3144 C3157 0.930 . S
H3145 C3158 0.930 . S
H3146 C3162 0.959 . S
H3147 C3162 0.959 . S
H3148 C3162 0.961 . S
H3149 C3163 0.960 . S
H3150 C3163 0.961 . S
H3151 C3163 0.959 . S
H3152 C3166 0.929 . S
H3153 C3167 0.931 . S
H3154 C3169 0.930 . S
C3155 H3143 0.930 . S
C3155 C3156 1.399 . S
C3155 C3160 1.399 . S
C3156 C3155 1.399 . S
C3156 C3157 1.376 1_554 S
C3157 H3144 0.930 . S
C3157 C3156 1.376 1_556 S
C3157 C3158 1.388 . S
C3158 H3145 0.930 . S
C3158 C3157 1.388 . S
C3158 C3159 1.390 . S
C3159 C3158 1.390 . S
C3159 C3160 1.394 1_556 S
C3159 C3165 1.465 . S
C3160 C3155 1.399 . S
C3160 C3159 1.394 1_554 S
C3160 C3161 1.516 . S
C3161 C3160 1.516 . S
C3161 C3162 1.502 . S
C3161 C3163 1.561 . S
C3161 C3164 1.526 . S
C3162 H3146 0.959 . S
C3162 H3147 0.959 . S
C3162 H3148 0.961 . S
C3162 C3161 1.502 . S
C3163 H3149 0.960 . S
C3163 H3150 0.961 . S
C3163 H3151 0.959 . S
C3163 C3161 1.561 . S
C3164 C3161 1.526 . S
C3164 C3165 1.396 1_554 S
C3164 C3169 1.390 . S
C3165 C3159 1.465 . S
C3165 C3164 1.396 1_556 S
C3165 C3166 1.399 . S
C3166 H3152 0.929 . S
C3166 C3165 1.399 . S
C3166 C3167 1.385 . S
C3167 H3153 0.931 . S
C3167 C3166 1.385 . S
C3167 C3168 1.389 . S
C3168 C3167 1.389 . S
C3168 C3169 1.387 1_556 S
C3169 H3154 0.930 . S
C3169 C3164 1.390 . S
C3169 C3168 1.387 1_554 S
H3170 C3182 0.930 . S
H3171 C3184 0.930 . S
H3172 C3185 0.930 . S
H3173 C3189 0.959 . S
H3174 C3189 0.959 . S
H3175 C3189 0.961 . S
H3176 C3190 0.960 . S
H3177 C3190 0.961 . S
H3178 C3190 0.959 . S
H3179 C3193 0.929 . S
H3180 C3194 0.931 . S
H3181 C3196 0.930 . S
C3182 H3170 0.930 . S
C3182 C3183 1.399 . S
C3182 C3187 1.399 . S
C3183 C3182 1.399 . S
C3183 C3184 1.376 . S
C3184 H3171 0.930 . S
C3184 C3183 1.376 . S
C3184 C3185 1.388 . S
C3185 H3172 0.930 . S
C3185 C3184 1.388 . S
C3185 C3186 1.390 . S
C3186 C3185 1.390 . S
C3186 C3187 1.394 . S
C3186 C3192 1.465 . S
C3187 C3182 1.399 . S
C3187 C3186 1.394 . S
C3187 C3188 1.516 . S
C3188 C3187 1.516 . S
C3188 C3189 1.502 . S
C3188 C3190 1.561 . S
C3188 C3191 1.526 . S
C3189 H3173 0.959 . S
C3189 H3174 0.959 . S
C3189 H3175 0.961 . S
C3189 C3188 1.502 . S
C3190 H3176 0.960 . S
C3190 H3177 0.961 . S
C3190 H3178 0.959 . S
C3190 C3188 1.561 . S
C3191 C3188 1.526 . S
C3191 C3192 1.396 . S
C3191 C3196 1.390 . S
C3192 C3186 1.465 . S
C3192 C3191 1.396 . S
C3192 C3193 1.399 . S
C3193 H3179 0.929 . S
C3193 C3192 1.399 . S
C3193 C3194 1.385 . S
C3194 H3180 0.931 . S
C3194 C3193 1.385 . S
C3194 C3195 1.389 . S
C3195 C3194 1.389 . S
C3195 C3196 1.387 . S
C3196 H3181 0.930 . S
C3196 C3191 1.390 . S
C3196 C3195 1.387 . S
H3197 C3209 0.930 . S
H3198 C3211 0.930 . S
H3199 C3212 0.930 . S
H3200 C3216 0.959 . S
H3201 C3216 0.959 . S
H3202 C3216 0.961 . S
H3203 C3217 0.960 . S
H3204 C3217 0.961 . S
H3205 C3217 0.959 . S
H3206 C3220 0.929 . S
H3207 C3221 0.931 . S
H3208 C3223 0.930 . S
C3209 H3197 0.930 . S
C3209 C3210 1.399 . S
C3209 C3214 1.399 . S
C3210 C3209 1.399 . S
C3210 C3211 1.376 . S
C3211 H3198 0.930 . S
C3211 C3210 1.376 . S
C3211 C3212 1.388 . S
C3212 H3199 0.930 . S
C3212 C3211 1.388 . S
C3212 C3213 1.390 . S
C3213 C3212 1.390 . S
C3213 C3214 1.394 . S
C3213 C3219 1.465 . S
C3214 C3209 1.399 . S
C3214 C3213 1.394 . S
C3214 C3215 1.516 . S
C3215 C3214 1.516 . S
C3215 C3216 1.502 . S
C3215 C3217 1.561 . S
C3215 C3218 1.526 . S
C3216 H3200 0.959 . S
C3216 H3201 0.959 . S
C3216 H3202 0.961 . S
C3216 C3215 1.502 . S
C3217 H3203 0.960 . S
C3217 H3204 0.961 . S
C3217 H3205 0.959 . S
C3217 C3215 1.561 . S
C3218 C3215 1.526 . S
C3218 C3219 1.396 . S
C3218 C3223 1.390 . S
C3219 C3213 1.465 . S
C3219 C3218 1.396 . S
C3219 C3220 1.399 . S
C3220 H3206 0.929 . S
C3220 C3219 1.399 . S
C3220 C3221 1.385 . S
C3221 H3207 0.931 . S
C3221 C3220 1.385 . S
C3221 C3222 1.389 . S
C3222 C3221 1.389 . S
C3222 C3223 1.387 . S
C3223 H3208 0.930 . S
C3223 C3218 1.390 . S
C3223 C3222 1.387 . S
C645 C101 1.264 . S
C657 C328 1.239 . S
C672 C57 1.304 . S
C684 C341 1.281 . S
C699 C73 1.319 . S
C711 C360 1.343 . S
C738 C391 1.873 . S
C726 C78 1.854 . S
C753 C21 1.736 . S
C765 C411 1.730 . S
C792 C428 0.874 . S
C780 C31 0.900 . S
C819 C441 1.482 . S
C807 C49 1.483 . S
C834 C0 0.905 . S
C846 C468 0.898 . S
C873 C321 1.171 . S
C861 C218 1.190 . S
C888 C229 1.364 . S
C900 C351 1.453 . S
C927 C353 1.707 . S
C915 C257 1.710 . S
C954 C388 0.849 . S
C942 C164 0.796 . S
C969 C216 1.154 . S
C981 C408 1.169 . S
C1008 C421 1.752 . S
C996 C231 1.747 . S
C1035 C451 1.290 . S
C1023 C255 1.201 . S
C1062 C461 1.189 . S
C1050 C166 1.200 . S
C1089 C331 1.574 1_565 S
C1077 C143 1.528 . S
C1104 C265 1.718 1_556 S
C1116 C481 1.793 . S
C1143 C511 1.546 . S
C1131 C299 1.520 . S
C1170 C528 1.177 . S
C1158 C291 1.163 . S
C1185 C104 1.833 . S
C1197 C471 1.791 . S
C1212 C117 1.121 . S
C1224 C358 1.208 . S
C1239 C304 1.748 . S
C1251 C541 1.769 . S
C1278 C568 0.920 . S
C1266 C278 0.921 . S
C1305 C318 1.152 . S
C1293 C60 1.232 . S
C1332 C553 1.269 . S
C1320 C96 1.259 . S
C1347 C88 1.332 . S
C1359 C371 1.324 . S
C1374 C65 1.798 . S
C1386 C540 1.765 . S
C1413 C400 1.650 . S
C1401 C10 1.704 . S
C1428 C44 0.811 . S
C1440 C498 0.804 . S
C1467 C433 1.449 1_556 S
C1455 C34 1.407 . S
C1494 C578 0.896 . S
C1482 C13 0.956 . S
C1521 C313 1.110 . S
C1509 C138 1.086 . S
C1548 C560 1.341 . S
C1536 C296 1.385 . S
C1563 C112 1.546 . S
C1575 C361 1.630 . S
C1590 C270 0.784 . S
C1602 C538 0.793 . S
C1617 C140 1.082 . S
C1629 C398 1.065 . S
C1656 C493 1.693 . S
C1644 C294 1.615 . S
C1671 C114 1.201 . S
C1683 C440 1.180 . S
C1698 C268 1.145 . S
C1710 C573 1.158 . S
C1725 C169 1.528 1_556 S
C1737 C320 1.520 . S
C1752 C161 1.677 . S
C1764 C473 1.713 . S
C1779 C234 1.505 . S
C1791 C420 1.467 . S
C1806 C226 1.108 . S
C1818 C518 1.106 . S
C1845 C580 1.763 . S
C1833 C247 1.719 . S
C1860 C195 1.146 . S
C1872 C368 1.064 1_565 S
C1899 C373 1.711 . S
C1887 C239 1.699 . S
C1926 C338 0.900 . S
C1914 C187 0.897 . S
C1941 C75 1.265 . S
C1953 C608 1.216 . S
C1980 C561 1.340 . S
C1968 C83 1.278 . S
C1995 C99 1.306 . S
C2007 C620 1.340 . S
C2022 C52 1.904 . S
C2034 C551 1.850 . S
C2049 C47 1.779 . S
C2061 C491 1.755 . S
C2088 C508 0.902 . S
C2076 C5 0.925 . S
C2115 C521 1.487 . S
C2103 C23 1.484 . S
C2142 C588 0.899 . S
C2130 C26 0.904 . S
C2169 C601 1.226 . S
C2157 C244 1.223 . S
C2184 C177 1.367 . S
C2196 C571 1.403 . S
C2223 C613 1.711 . S
C2211 C192 1.712 . S
C2250 C548 0.887 . S
C2238 C203 0.857 . S
C2277 C488 1.110 . S
C2265 C242 1.028 . S
C2292 C179 1.758 . S
C2304 C501 1.747 . S
C2331 C531 1.237 . S
C2319 C190 1.293 . S
C2346 C205 1.197 . S
C2358 C581 1.172 . S
C2385 C611 1.539 . S
C2373 C286 1.535 . S
C2400 C122 1.713 . S
C2412 C401 1.792 . S
C2439 C431 1.530 . S
C2427 C130 1.462 . S
C2466 C448 1.232 . S
C2454 C148 1.238 . S
C2493 C591 1.795 . S
C2481 C273 1.834 . S
C2508 C260 1.197 . S
C2520 C618 1.108 . S
C2547 C381 1.768 . S
C2535 C135 1.743 . S
C2574 C348 0.875 . S
C2562 C109 0.913 . S
C2589 C86 1.211 . S
C2601 C598 1.149 . S
C2628 C333 1.279 . S
C2616 C70 1.230 . S
C2643 C62 1.312 . S
C2655 C631 1.291 . S
C2670 C91 1.757 . S
C2682 C380 1.817 . S
C2697 C36 1.705 . S
C2709 C480 1.651 1_556 S
C2736 C418 0.827 . S
C2724 C18 0.845 . S
C2751 C8 1.402 . S
C2763 C513 1.447 . S
C2778 C39 0.960 . S
C2790 C458 0.871 . S
C2817 C593 1.169 . S
C2805 C307 1.167 . S
C2832 C153 1.369 . S
C2844 C340 1.305 . S
C2871 C621 1.618 1_655 S
C2859 C281 1.554 . S
C2886 C127 0.807 . S
C2898 C378 0.784 . S
C2913 C309 1.034 . S
C2925 C478 1.037 . S
C2952 C413 1.706 . S
C2940 C151 1.651 . S
C2967 C283 1.203 . S
C2979 C520 1.204 . S
C3006 C453 1.085 . S
C2994 C125 1.098 . S
C3033 C600 1.510 . S
C3021 C221 1.482 . S
C3060 C393 1.721 1_565 S
C3048 C200 1.720 . S
C3075 C208 1.494 . S
C3087 C500 1.449 . S
C3114 C438 1.108 . S
C3102 C174 1.114 . S
C3129 C182 1.762 . S
C3141 C460 1.743 . S
C3156 C156 1.176 . S
C3168 C628 1.165 . S
C3195 C533 1.741 . S
C3183 C213 1.712 1_565 S
C3222 C558 0.865 . S
C3210 C252 0.871 . S
