# Generated by pormake.
# Topology pto, (3,4)-cn, num edge types: 1
# Building blocks:
#     Node 0, Type 0, BuildingBlock: WUSLED_clean_sbu_0, # of connection points: 3
#     Node 1, Type 0, BuildingBlock: WUSLED_clean_sbu_0, # of connection points: 3
#     Node 2, Type 0, BuildingBlock: WUSLED_clean_sbu_0, # of connection points: 3
#     Node 3, Type 0, BuildingBlock: WUSLED_clean_sbu_0, # of connection points: 3
#     Node 4, Type 0, BuildingBlock: WUSLED_clean_sbu_0, # of connection points: 3
#     Node 5, Type 0, BuildingBlock: WUSLED_clean_sbu_0, # of connection points: 3
#     Node 6, Type 0, BuildingBlock: WUSLED_clean_sbu_0, # of connection points: 3
#     Node 7, Type 0, BuildingBlock: WUSLED_clean_sbu_0, # of connection points: 3
#     Node 8, Type 1, BuildingBlock: NAWXER_clean_sbu_0, # of connection points: 4
#     Node 9, Type 1, BuildingBlock: NAWXER_clean_sbu_0, # of connection points: 4
#     Node 10, Type 1, BuildingBlock: NAWXER_clean_sbu_0, # of connection points: 4
#     Node 11, Type 1, BuildingBlock: NAWXER_clean_sbu_0, # of connection points: 4
#     Node 12, Type 1, BuildingBlock: NAWXER_clean_sbu_0, # of connection points: 4
#     Node 13, Type 1, BuildingBlock: NAWXER_clean_sbu_0, # of connection points: 4
#     Edge 14, Type (0, 1), BuildingBlock: XUDNAN_clean_linker_2, # of connection points: 2
#     Edge 15, Type (0, 1), BuildingBlock: XUDNAN_clean_linker_2, # of connection points: 2
#     Edge 16, Type (0, 1), BuildingBlock: XUDNAN_clean_linker_2, # of connection points: 2
#     Edge 17, Type (0, 1), BuildingBlock: XUDNAN_clean_linker_2, # of connection points: 2
#     Edge 18, Type (0, 1), BuildingBlock: XUDNAN_clean_linker_2, # of connection points: 2
#     Edge 19, Type (0, 1), BuildingBlock: XUDNAN_clean_linker_2, # of connection points: 2
#     Edge 20, Type (0, 1), BuildingBlock: XUDNAN_clean_linker_2, # of connection points: 2
#     Edge 21, Type (0, 1), BuildingBlock: XUDNAN_clean_linker_2, # of connection points: 2
#     Edge 22, Type (0, 1), BuildingBlock: XUDNAN_clean_linker_2, # of connection points: 2
#     Edge 23, Type (0, 1), BuildingBlock: XUDNAN_clean_linker_2, # of connection points: 2
#     Edge 24, Type (0, 1), BuildingBlock: XUDNAN_clean_linker_2, # of connection points: 2
#     Edge 25, Type (0, 1), BuildingBlock: XUDNAN_clean_linker_2, # of connection points: 2
#     Edge 26, Type (0, 1), BuildingBlock: XUDNAN_clean_linker_2, # of connection points: 2
#     Edge 27, Type (0, 1), BuildingBlock: XUDNAN_clean_linker_2, # of connection points: 2
#     Edge 28, Type (0, 1), BuildingBlock: XUDNAN_clean_linker_2, # of connection points: 2
#     Edge 29, Type (0, 1), BuildingBlock: XUDNAN_clean_linker_2, # of connection points: 2
#     Edge 30, Type (0, 1), BuildingBlock: XUDNAN_clean_linker_2, # of connection points: 2
#     Edge 31, Type (0, 1), BuildingBlock: XUDNAN_clean_linker_2, # of connection points: 2
#     Edge 32, Type (0, 1), BuildingBlock: XUDNAN_clean_linker_2, # of connection points: 2
#     Edge 33, Type (0, 1), BuildingBlock: XUDNAN_clean_linker_2, # of connection points: 2
#     Edge 34, Type (0, 1), BuildingBlock: XUDNAN_clean_linker_2, # of connection points: 2
#     Edge 35, Type (0, 1), BuildingBlock: XUDNAN_clean_linker_2, # of connection points: 2
#     Edge 36, Type (0, 1), BuildingBlock: XUDNAN_clean_linker_2, # of connection points: 2
#     Edge 37, Type (0, 1), BuildingBlock: XUDNAN_clean_linker_2, # of connection points: 2
# Relax obj value: 0.000
# Max RMSD: 0.007
# Mean RMSD: 0.004
data_MOF--net-pto--node1-WUSLED_clean_sbu_0--node2-NAWXER_clean_sbu_0--edge1-XUDNAN_clean_linker_2
_symmetry_space_group_name_H-M    P1
_symmetry_Int_Tables_number       1
_symmetry_cell_setting            triclinic
loop_
_symmetry_equiv_pos_as_xyz
'x, y, z'
_cell_length_a     56.818628
_cell_length_b     53.338234
_cell_length_c     50.049463
_cell_angle_alpha  89.273139
_cell_angle_beta   90.567186
_cell_angle_gamma 90.494014
loop_
_atom_site_label
_atom_site_type_symbol
_atom_site_fract_x
_atom_site_fract_y
_atom_site_fract_z
_atom_type_partial_charge
C0 C 0.26169 0.2332 0.31296 0.0
C1 C 0.28208 0.21862 0.31041 0.0
C2 C 0.27193 0.19497 0.35101 0.0
C3 C 0.28712 0.19949 0.32932 0.0
C4 C 0.25129 0.20917 0.35268 0.0
C5 C 0.24632 0.22801 0.334 0.0
U6 U 0.2701 0.28255 0.2547 0.0
O7 O 0.24268 0.29696 0.22725 0.0
O8 O 0.26044 0.32247 0.25517 0.0
C9 C 0.24429 0.31991 0.23642 0.0
C10 C 0.25557 0.25434 0.29488 0.0
C11 C 0.22215 0.33375 0.23985 0.0
C12 C 0.183 0.33892 0.25817 0.0
C13 C 0.20368 0.32487 0.2559 0.0
C14 C 0.19917 0.37074 0.22852 0.0
C15 C 0.18051 0.36214 0.24454 0.0
C16 C 0.21965 0.35668 0.2262 0.0
C17 C 0.32712 0.28358 0.21197 0.0
C18 C 0.33605 0.30864 0.17227 0.0
C19 C 0.36624 0.2829 0.19292 0.0
C20 C 0.35029 0.27491 0.21231 0.0
C21 C 0.35938 0.29974 0.17251 0.0
C22 C 0.32001 0.30062 0.19189 0.0
C23 C 0.31112 0.27407 0.23285 0.0
O24 O 0.26745 0.27536 0.298 0.0
O25 O 0.25088 0.24924 0.26975 0.0
O26 O 0.29141 0.26338 0.2248 0.0
O27 O 0.3085 0.28838 0.25377 0.0
H28 H 0.29419 0.22228 0.29421 0.0
H29 H 0.30318 0.18887 0.32752 0.0
H30 H 0.23901 0.20594 0.36881 0.0
H31 H 0.23045 0.23889 0.33626 0.0
H32 H 0.16893 0.33148 0.27044 0.0
H33 H 0.20522 0.30715 0.26658 0.0
H34 H 0.19824 0.38864 0.21815 0.0
H35 H 0.23373 0.36387 0.21375 0.0
H36 H 0.33008 0.3215 0.15677 0.0
H37 H 0.38411 0.27607 0.19422 0.0
H38 H 0.35612 0.26186 0.22772 0.0
H39 H 0.30215 0.30757 0.1913 0.0
C40 C 0.26391 0.80599 0.70778 0.0
C41 C 0.27147 0.82813 0.72031 0.0
C42 C 0.27435 0.84957 0.67704 0.0
C43 C 0.27662 0.84967 0.7051 0.0
C44 C 0.26824 0.82693 0.66452 0.0
C45 C 0.26305 0.80541 0.67975 0.0
U46 U 0.26922 0.75857 0.7659 0.0
O47 O 0.24235 0.74346 0.79324 0.0
O48 O 0.26191 0.7179 0.76771 0.0
C49 C 0.24532 0.72021 0.78561 0.0
C50 C 0.25534 0.78399 0.72339 0.0
C51 C 0.22392 0.70468 0.78208 0.0
C52 C 0.18442 0.69729 0.76456 0.0
C53 C 0.20464 0.71251 0.76646 0.0
C54 C 0.20264 0.66633 0.79369 0.0
C55 C 0.18319 0.6739 0.77811 0.0
C56 C 0.2227 0.68156 0.79565 0.0
C57 C 0.32548 0.7673 0.81064 0.0
C58 C 0.33597 0.74816 0.85339 0.0
C59 C 0.36439 0.7741 0.82982 0.0
C60 C 0.34797 0.77812 0.80936 0.0
C61 C 0.35863 0.75918 0.85218 0.0
C62 C 0.3195 0.75216 0.83272 0.0
C63 C 0.30889 0.77286 0.78869 0.0
O64 O 0.26794 0.7635 0.72203 0.0
O65 O 0.2478 0.78843 0.74764 0.0
O66 O 0.28826 0.78179 0.79518 0.0
O67 O 0.30782 0.7566 0.76921 0.0
H68 H 0.27273 0.82906 0.74189 0.0
H69 H 0.28185 0.8666 0.71539 0.0
H70 H 0.26628 0.82614 0.643 0.0
H71 H 0.25745 0.78851 0.66963 0.0
H72 H 0.1697 0.70398 0.75266 0.0
H73 H 0.20515 0.73038 0.75594 0.0
H74 H 0.20263 0.64837 0.80401 0.0
H75 H 0.2374 0.67522 0.80785 0.0
H76 H 0.33085 0.73671 0.87042 0.0
H77 H 0.38174 0.78243 0.82785 0.0
H78 H 0.35289 0.78979 0.7924 0.0
H79 H 0.30217 0.74363 0.83405 0.0
C80 C 0.72259 0.76759 0.21754 0.0
C81 C 0.7246 0.74722 0.20024 0.0
C82 C 0.68705 0.7582 0.17886 0.0
C83 C 0.70699 0.74261 0.18098 0.0
C84 C 0.6854 0.77857 0.19626 0.0
C85 C 0.70298 0.78321 0.21526 0.0
U86 U 0.77987 0.75754 0.26017 0.0
O87 O 0.80391 0.7864 0.2758 0.0
O88 O 0.78353 0.76293 0.30371 0.0
C89 C 0.79766 0.78239 0.30074 0.0
C90 C 0.74009 0.77311 0.23863 0.0
C91 C 0.79262 0.8048 0.31694 0.0
C92 C 0.79015 0.85013 0.32118 0.0
C93 C 0.79052 0.82879 0.30521 0.0
C94 C 0.79216 0.82391 0.36093 0.0
C95 C 0.79186 0.848 0.34921 0.0
C96 C 0.79261 0.80256 0.34494 0.0
C97 C 0.82026 0.70024 0.24185 0.0
C98 C 0.86124 0.68918 0.25051 0.0
C99 C 0.83567 0.66094 0.22592 0.0
C100 C 0.81703 0.6774 0.22881 0.0
C101 C 0.85812 0.66685 0.23608 0.0
C102 C 0.84239 0.70595 0.25322 0.0
C103 C 0.80043 0.7179 0.24071 0.0
O104 O 0.74114 0.7572 0.25885 0.0
O105 O 0.76086 0.78122 0.23087 0.0
O106 O 0.8047 0.74088 0.23213 0.0
O107 O 0.78476 0.71655 0.25982 0.0
H108 H 0.73965 0.73493 0.20169 0.0
H109 H 0.70904 0.7269 0.16773 0.0
H110 H 0.67021 0.79068 0.19574 0.0
H111 H 0.70109 0.79894 0.22853 0.0
H112 H 0.78937 0.86841 0.31153 0.0
H113 H 0.79019 0.83119 0.28369 0.0
H114 H 0.79351 0.82158 0.38242 0.0
H115 H 0.79416 0.78429 0.35448 0.0
H116 H 0.8784 0.69415 0.25856 0.0
H117 H 0.83265 0.64374 0.21508 0.0
H118 H 0.80012 0.67263 0.21995 0.0
H119 H 0.84526 0.72354 0.26339 0.0
C120 C 0.77268 0.22019 0.71649 0.0
C121 C 0.79677 0.21651 0.71213 0.0
C122 C 0.7874 0.18463 0.67874 0.0
C123 C 0.80407 0.199 0.69325 0.0
C124 C 0.76335 0.1892 0.68283 0.0
C125 C 0.75617 0.20687 0.70125 0.0
U126 U 0.77222 0.27498 0.76814 0.0
O127 O 0.7411 0.29725 0.7783 0.0
O128 O 0.7581 0.27267 0.80906 0.0
C129 C 0.74161 0.28902 0.80316 0.0
C130 C 0.76366 0.23589 0.73806 0.0
C131 C 0.72191 0.29329 0.82116 0.0
C132 C 0.68269 0.28461 0.83812 0.0
C133 C 0.70109 0.27892 0.8207 0.0
C134 C 0.7062 0.31848 0.85655 0.0
C135 C 0.68499 0.30473 0.85602 0.0
C136 C 0.72434 0.31288 0.83924 0.0
C137 C 0.82892 0.32 0.76771 0.0
C138 C 0.84369 0.35695 0.79098 0.0
C139 C 0.86502 0.3403 0.75355 0.0
C140 C 0.84831 0.32138 0.75082 0.0
C141 C 0.8627 0.35868 0.77314 0.0
C142 C 0.82673 0.33763 0.78824 0.0
C143 C 0.81184 0.2998 0.76209 0.0
O144 O 0.77432 0.2344 0.76146 0.0
O145 O 0.75703 0.2587 0.73151 0.0
O146 O 0.79256 0.30528 0.7486 0.0
O147 O 0.8094 0.2813 0.77946 0.0
H148 H 0.80986 0.22672 0.72364 0.0
H149 H 0.82276 0.19657 0.69032 0.0
H150 H 0.74984 0.17841 0.67269 0.0
H151 H 0.7375 0.20941 0.7044 0.0
H152 H 0.66654 0.27372 0.83711 0.0
H153 H 0.69899 0.26363 0.80682 0.0
H154 H 0.7089 0.33366 0.87044 0.0
H155 H 0.74037 0.32402 0.83989 0.0
H156 H 0.8415 0.37098 0.8062 0.0
H157 H 0.87959 0.34094 0.73974 0.0
H158 H 0.85038 0.30788 0.73501 0.0
H159 H 0.81187 0.33677 0.80161 0.0
C160 C 0.82191 0.69027 0.76149 0.0
C161 C 0.83107 0.68595 0.73599 0.0
C162 C 0.86292 0.66178 0.75636 0.0
C163 C 0.85162 0.67172 0.73345 0.0
C164 C 0.85307 0.66568 0.78154 0.0
C165 C 0.83296 0.67991 0.78405 0.0
U166 U 0.76841 0.73857 0.76136 0.0
O167 O 0.73219 0.72547 0.76896 0.0
O168 O 0.75201 0.74713 0.7999 0.0
C169 C 0.73276 0.73486 0.7931 0.0
C170 C 0.79996 0.70355 0.76621 0.0
C171 C 0.71271 0.73279 0.81091 0.0
C172 C 0.69555 0.71856 0.85267 0.0
C173 C 0.71456 0.71946 0.83515 0.0
C174 C 0.6728 0.74393 0.82138 0.0
C175 C 0.67469 0.73129 0.84616 0.0
C176 C 0.69168 0.74463 0.80387 0.0
C177 C 0.77286 0.79715 0.70912 0.0
C178 C 0.75624 0.83595 0.6918 0.0
C179 C 0.78939 0.81702 0.66982 0.0
C180 C 0.78943 0.79767 0.6887 0.0
C181 C 0.77246 0.83607 0.67068 0.0
C182 C 0.75645 0.81653 0.71096 0.0
C183 C 0.77249 0.77546 0.72727 0.0
O184 O 0.80087 0.72436 0.77997 0.0
O185 O 0.78262 0.70235 0.74866 0.0
O186 O 0.76185 0.75435 0.72094 0.0
O187 O 0.78068 0.77695 0.75187 0.0
H188 H 0.82249 0.69355 0.71829 0.0
H189 H 0.85892 0.66897 0.7138 0.0
H190 H 0.86101 0.65778 0.79949 0.0
H191 H 0.82582 0.68261 0.80381 0.0
H192 H 0.69749 0.70881 0.87167 0.0
H193 H 0.73077 0.71009 0.84066 0.0
H194 H 0.65682 0.75366 0.81574 0.0
H195 H 0.69006 0.75491 0.78514 0.0
H196 H 0.74291 0.85027 0.69297 0.0
H197 H 0.80252 0.81684 0.65428 0.0
H198 H 0.80225 0.78284 0.68715 0.0
H199 H 0.74349 0.8163 0.7267 0.0
C200 C 0.71701 0.27201 0.2192 0.0
C201 C 0.71405 0.2963 0.20863 0.0
C202 C 0.68135 0.28148 0.1806 0.0
C203 C 0.69645 0.30096 0.18937 0.0
C204 C 0.68506 0.25712 0.19078 0.0
C205 C 0.70272 0.25249 0.20971 0.0
U206 U 0.77128 0.28181 0.26697 0.0
O207 O 0.77146 0.27567 0.31065 0.0
O208 O 0.79354 0.25261 0.28507 0.0
C209 C 0.78559 0.25637 0.30927 0.0
C210 C 0.73316 0.26643 0.24167 0.0
C211 C 0.77869 0.23376 0.32465 0.0
C212 C 0.76372 0.19095 0.32708 0.0
C213 C 0.7676 0.21316 0.31248 0.0
C214 C 0.78104 0.21005 0.36635 0.0
C215 C 0.77095 0.18891 0.35406 0.0
C216 C 0.78481 0.23222 0.35179 0.0
C217 C 0.81448 0.33848 0.25785 0.0
C218 C 0.85537 0.34581 0.27116 0.0
C219 C 0.83019 0.3809 0.25995 0.0
C220 C 0.81159 0.36441 0.2548 0.0
C221 C 0.85225 0.37185 0.26817 0.0
C222 C 0.83653 0.32918 0.26617 0.0
C223 C 0.79427 0.32211 0.25086 0.0
O224 O 0.75438 0.25873 0.23579 0.0
O225 O 0.73283 0.28183 0.26195 0.0
O226 O 0.77613 0.32281 0.26694 0.0
O227 O 0.79878 0.2995 0.24219 0.0
H228 H 0.72494 0.31168 0.21567 0.0
H229 H 0.6945 0.31989 0.18164 0.0
H230 H 0.67369 0.24168 0.18503 0.0
H231 H 0.70466 0.23365 0.21775 0.0
H232 H 0.75539 0.17526 0.3171 0.0
H233 H 0.76248 0.21402 0.29158 0.0
H234 H 0.78703 0.20922 0.38694 0.0
H235 H 0.79332 0.24795 0.36153 0.0
H236 H 0.87219 0.33843 0.27774 0.0
H237 H 0.82737 0.40085 0.25735 0.0
H238 H 0.79483 0.37197 0.24822 0.0
H239 H 0.83921 0.30921 0.2687 0.0
C240 C 0.25511 0.23064 0.70091 0.0
C241 C 0.27538 0.21588 0.69845 0.0
C242 C 0.25591 0.19183 0.66323 0.0
C243 C 0.27572 0.19639 0.67971 0.0
C244 C 0.23553 0.20602 0.66691 0.0
C245 C 0.2352 0.22519 0.68541 0.0
U246 U 0.27188 0.27822 0.75779 0.0
O247 O 0.26806 0.31925 0.75485 0.0
O248 O 0.2463 0.29739 0.78295 0.0
C249 C 0.25092 0.31951 0.77228 0.0
C250 C 0.25372 0.25277 0.71802 0.0
C251 C 0.23061 0.3356 0.76582 0.0
C252 C 0.19101 0.34285 0.74818 0.0
C253 C 0.21089 0.3274 0.75092 0.0
C254 C 0.21097 0.37485 0.77404 0.0
C255 C 0.19072 0.36643 0.76047 0.0
C256 C 0.23063 0.35961 0.77668 0.0
C257 C 0.32678 0.2686 0.80439 0.0
C258 C 0.34248 0.29579 0.83905 0.0
C259 C 0.36197 0.2568 0.82933 0.0
C260 C 0.34497 0.2517 0.80979 0.0
C261 C 0.36111 0.27896 0.84417 0.0
C262 C 0.32547 0.29069 0.81923 0.0
C263 C 0.31009 0.26255 0.78265 0.0
O264 O 0.24755 0.24908 0.74299 0.0
O265 O 0.26964 0.27055 0.71475 0.0
O266 O 0.31049 0.27732 0.76144 0.0
O267 O 0.28875 0.25562 0.78964 0.0
H268 H 0.29094 0.21979 0.71043 0.0
H269 H 0.29163 0.18563 0.67735 0.0
H270 H 0.21982 0.20263 0.65501 0.0
H271 H 0.21939 0.23626 0.68715 0.0
H272 H 0.17552 0.33591 0.73775 0.0
H273 H 0.21057 0.30888 0.74229 0.0
H274 H 0.21124 0.39297 0.7836 0.0
H275 H 0.24565 0.3663 0.78815 0.0
H276 H 0.34101 0.3129 0.85031 0.0
H277 H 0.37617 0.24361 0.83218 0.0
H278 H 0.3463 0.2346 0.79846 0.0
H279 H 0.31149 0.30398 0.81539 0.0
C280 C 0.2128 0.7124 0.27382 0.0
C281 C 0.21662 0.69458 0.25397 0.0
C282 C 0.17905 0.67434 0.26455 0.0
C283 C 0.19987 0.67561 0.24942 0.0
C284 C 0.17558 0.69227 0.28444 0.0
C285 C 0.19232 0.71099 0.28905 0.0
U286 U 0.27012 0.75142 0.26359 0.0
O287 O 0.27368 0.7925 0.26513 0.0
O288 O 0.2922 0.76885 0.29474 0.0
C289 C 0.28693 0.79171 0.28682 0.0
C290 C 0.22942 0.733 0.2791 0.0
C291 C 0.28191 0.80989 0.30795 0.0
C292 C 0.25559 0.83631 0.33335 0.0
C293 C 0.25897 0.8166 0.31535 0.0
C294 C 0.29786 0.8416 0.33745 0.0
C295 C 0.27511 0.84949 0.34381 0.0
C296 C 0.30118 0.82207 0.31975 0.0
C297 C 0.31629 0.73126 0.2109 0.0
C298 C 0.34707 0.75549 0.18877 0.0
C299 C 0.34484 0.71056 0.18288 0.0
C300 C 0.32547 0.70941 0.1999 0.0
C301 C 0.3556 0.73368 0.17652 0.0
C302 C 0.32754 0.75431 0.2057 0.0
C303 C 0.29409 0.72932 0.22596 0.0
O304 O 0.24957 0.72683 0.29036 0.0
O305 O 0.23151 0.75012 0.26013 0.0
O306 O 0.27819 0.7466 0.22107 0.0
O307 O 0.29585 0.72313 0.25139 0.0
H308 H 0.23242 0.6954 0.24204 0.0
H309 H 0.20329 0.66193 0.23417 0.0
H310 H 0.15964 0.6923 0.2961 0.0
H311 H 0.1891 0.72467 0.30439 0.0
H312 H 0.23787 0.84207 0.33797 0.0
H313 H 0.2438 0.80727 0.30659 0.0
H314 H 0.31319 0.85123 0.34546 0.0
H315 H 0.31898 0.81708 0.31446 0.0
H316 H 0.35521 0.77359 0.1849 0.0
H317 H 0.35063 0.69341 0.17377 0.0
H318 H 0.31706 0.69142 0.20369 0.0
H319 H 0.32091 0.77143 0.21416 0.0
C320 C 0.98683 0.48804 0.27594 0.0
C321 C 0.04955 0.55063 0.26225 0.0
O322 O 0.99623 0.50136 0.29421 0.0
Zn323 Zn 0.01831 0.51997 0.272 0.0
O324 O 0.9936 0.49051 0.25175 0.0
Zn325 Zn 0.0175 0.51222 0.22887 0.0
O326 O 0.03926 0.48662 0.21548 0.0
O327 O 0.0409 0.49156 0.25922 0.0
O328 O 0.04175 0.53951 0.24147 0.0
O329 O 0.04096 0.54518 0.28507 0.0
O330 O 0.99472 0.54216 0.24985 0.0
O331 O 0.99573 0.53267 0.20713 0.0
C332 C 0.04784 0.48045 0.23826 0.0
C333 C 0.9873 0.54567 0.22596 0.0
C334 C 0.9913 0.48323 0.78282 0.0
C335 C 0.05444 0.54837 0.78353 0.0
O336 O 0.99876 0.49189 0.8051 0.0
Zn337 Zn 0.02344 0.51499 0.78936 0.0
O338 O 1.00096 0.49053 0.76121 0.0
Zn339 Zn 0.02547 0.51329 0.74322 0.0
O340 O 0.04863 0.48872 0.72964 0.0
O341 O 0.04699 0.49005 0.77365 0.0
O342 O 0.0475 0.53887 0.76157 0.0
O343 O 0.04591 0.54013 0.80558 0.0
O344 O 1.0021 0.53953 0.7681 0.0
O345 O 1.00386 0.53686 0.72405 0.0
C346 C 0.05586 0.48103 0.75256 0.0
C347 C 0.99549 0.54696 0.74493 0.0
C348 C 0.28852 0.98715 0.54564 0.0
C349 C 0.29213 0.05353 0.47643 0.0
O350 O 0.2686 0.99399 0.53615 0.0
Zn351 Zn 0.25465 0.01765 0.50596 0.0
O352 O 0.30745 0.99638 0.53613 0.0
Zn353 Zn 0.29266 0.01936 0.51017 0.0
O354 O 0.27393 0.04408 0.5353 0.0
O355 O 0.23575 0.04009 0.52689 0.0
O356 O 0.30992 0.04417 0.48851 0.0
O357 O 0.27149 0.04512 0.48143 0.0
O358 O 0.24113 0.99402 0.48035 0.0
O359 O 0.28003 0.99497 0.48042 0.0
C360 C 0.25267 0.05045 0.53967 0.0
C361 C 0.26056 0.98658 0.471 0.0
C362 C 0.5525 0.75285 0.05265 0.0
C363 C 0.48907 0.75537 0.98368 0.0
O364 O 0.54393 0.73247 0.04357 0.0
Zn365 Zn 0.5203 0.71627 0.01744 0.0
O366 O 0.54461 0.77383 0.04394 0.0
Zn367 Zn 0.521 0.75988 0.01813 0.0
O368 O 0.49707 0.7426 0.04303 0.0
O369 O 0.49621 0.70123 0.04244 0.0
O370 O 0.49787 0.77589 0.99249 0.0
O371 O 0.49716 0.73452 0.99214 0.0
O372 O 0.54233 0.7018 0.99031 0.0
O373 O 0.54268 0.7431 0.99134 0.0
C374 C 0.48803 0.72192 0.05097 0.0
C375 C 0.55011 0.72285 0.98137 0.0
C376 C 0.76752 0.98072 0.54821 0.0
C377 C 0.76592 0.04731 0.4807 0.0
O378 O 0.7492 0.99182 0.53956 0.0
Zn379 Zn 0.76532 0.01515 0.51572 0.0
O380 O 0.7879 0.98779 0.54042 0.0
Zn381 Zn 0.80304 0.01558 0.51514 0.0
O382 O 0.8197 0.03743 0.53963 0.0
O383 O 0.78118 0.04119 0.54243 0.0
O384 O 0.78666 0.04068 0.48772 0.0
O385 O 0.74799 0.03737 0.49174 0.0
O386 O 0.78111 0.98975 0.48796 0.0
O387 O 0.81977 0.9949 0.49035 0.0
C388 C 0.80192 0.04787 0.54977 0.0
C389 C 0.80181 0.984 0.48024 0.0
C390 C 0.55029 0.28721 0.04999 0.0
C391 C 0.49102 0.28793 0.9765 0.0
O392 O 0.54251 0.26699 0.03957 0.0
Zn393 Zn 0.52094 0.28353 0.01296 0.0
O394 O 0.54315 0.30828 0.04097 0.0
Zn395 Zn 0.52129 0.32494 0.01285 0.0
O396 O 0.4991 0.34196 0.03523 0.0
O397 O 0.49617 0.30068 0.03879 0.0
O398 O 0.49877 0.3087 0.9854 0.0
O399 O 0.49884 0.26744 0.98653 0.0
O400 O 0.54603 0.30092 0.98712 0.0
O401 O 0.54357 0.34212 0.99003 0.0
C402 C 0.48934 0.32255 0.0455 0.0
C403 C 0.55313 0.32288 0.98009 0.0
H404 H 0.15828 0.39259 0.20667 0.0
H405 H 0.15425 0.36802 0.2897 0.0
H406 H 0.11952 0.39445 0.29559 0.0
H407 H 0.14249 0.45719 0.21931 0.0
H408 H 0.12581 0.46081 0.1887 0.0
H409 H 0.15012 0.43935 0.19034 0.0
H410 H 0.12255 0.40333 0.17485 0.0
H411 H 0.09817 0.42469 0.17327 0.0
H412 H 0.09613 0.39644 0.19331 0.0
H413 H 0.08624 0.42326 0.29338 0.0
H414 H 0.05552 0.45399 0.28361 0.0
H415 H 0.08053 0.46211 0.20213 0.0
C416 C 0.15022 0.39281 0.22617 0.0
C417 C 0.15905 0.37784 0.24767 0.0
C418 C 0.14767 0.37868 0.27271 0.0
C419 C 0.128 0.39386 0.27635 0.0
C420 C 0.1199 0.40827 0.25484 0.0
C421 C 0.1306 0.40806 0.23025 0.0
C422 C 0.11837 0.42591 0.21071 0.0
C423 C 0.1352 0.44707 0.20174 0.0
C424 C 0.1082 0.41174 0.18661 0.0
C425 C 0.09893 0.43587 0.22818 0.0
C426 C 0.10038 0.42539 0.25356 0.0
C427 C 0.08487 0.43159 0.27361 0.0
C428 C 0.06745 0.44913 0.26777 0.0
C429 C 0.0655 0.46044 0.24205 0.0
C430 C 0.08137 0.45354 0.22185 0.0
H431 H 0.16297 0.64206 0.81617 0.0
H432 H 0.15601 0.66678 0.73334 0.0
H433 H 0.1217 0.639 0.72784 0.0
H434 H 0.14835 0.57695 0.80362 0.0
H435 H 0.13239 0.57239 0.83427 0.0
H436 H 0.15605 0.59506 0.83265 0.0
H437 H 0.12778 0.62962 0.84839 0.0
H438 H 0.10402 0.60705 0.84991 0.0
H439 H 0.10085 0.63524 0.83001 0.0
H440 H 0.08887 0.60975 0.73054 0.0
H441 H 0.05941 0.57758 0.73987 0.0
H442 H 0.08736 0.56793 0.82058 0.0
C443 C 0.15432 0.64159 0.79682 0.0
C444 C 0.16216 0.65707 0.77527 0.0
C445 C 0.15013 0.65581 0.75038 0.0
C446 C 0.13069 0.63988 0.74698 0.0
C447 C 0.12347 0.62511 0.76855 0.0
C448 C 0.13489 0.62553 0.79295 0.0
C449 C 0.12356 0.60695 0.81246 0.0
C450 C 0.14114 0.58663 0.82126 0.0
C451 C 0.11345 0.62053 0.83663 0.0
C452 C 0.104 0.59607 0.79507 0.0
C453 C 0.10442 0.60715 0.76993 0.0
C454 C 0.08842 0.60082 0.75006 0.0
C455 C 0.07172 0.58235 0.75571 0.0
C456 C 0.07109 0.56986 0.78098 0.0
C457 C 0.08728 0.57714 0.80118 0.0
H458 H 0.89173 0.64628 0.27014 0.0
H459 H 0.86931 0.64976 0.18707 0.0
H460 H 0.90022 0.61984 0.17531 0.0
H461 H 0.95464 0.64105 0.25798 0.0
H462 H 0.95946 0.61903 0.28505 0.0
H463 H 0.93608 0.64151 0.28698 0.0
H464 H 0.90604 0.60544 0.29481 0.0
H465 H 0.92935 0.58289 0.29286 0.0
H466 H 0.90399 0.58031 0.27113 0.0
H467 H 0.93281 0.58898 0.17227 0.0
H468 H 0.96521 0.55868 0.17862 0.0
H469 H 0.96644 0.57479 0.26351 0.0
C470 C 0.89362 0.64098 0.24946 0.0
C471 C 0.87813 0.65034 0.22949 0.0
C472 C 0.8809 0.64269 0.20269 0.0
C473 C 0.89842 0.62575 0.19579 0.0
C474 C 0.91316 0.61655 0.21588 0.0
C475 C 0.91101 0.62384 0.24219 0.0
C476 C 0.92875 0.61037 0.25994 0.0
C477 C 0.94574 0.62911 0.27326 0.0
C478 C 0.91628 0.59376 0.28092 0.0
C479 C 0.94119 0.59464 0.23939 0.0
C480 C 0.93192 0.59848 0.21413 0.0
C481 C 0.94032 0.58582 0.19196 0.0
C482 C 0.95873 0.56867 0.19571 0.0
C483 C 0.96845 0.56435 0.22143 0.0
C484 C 0.95951 0.57766 0.24347 0.0
H485 H 0.88962 0.37973 0.81431 0.0
H486 H 0.87291 0.38662 0.72965 0.0
H487 H 0.90315 0.41927 0.72468 0.0
H488 H 0.9018 0.44779 0.82389 0.0
H489 H 0.92581 0.44261 0.84705 0.0
H490 H 0.9019 0.42023 0.84511 0.0
H491 H 0.93165 0.38484 0.8361 0.0
H492 H 0.9556 0.40714 0.83793 0.0
H493 H 0.95176 0.3882 0.8086 0.0
H494 H 0.93494 0.44846 0.72715 0.0
H495 H 0.96792 0.47591 0.73663 0.0
H496 H 0.96676 0.45311 0.82055 0.0
C497 C 0.89211 0.38857 0.79494 0.0
C498 C 0.879 0.38055 0.77228 0.0
C499 C 0.88288 0.39228 0.74716 0.0
C500 C 0.89999 0.41089 0.74414 0.0
C501 C 0.91296 0.41794 0.76651 0.0
C502 C 0.90929 0.40753 0.7915 0.0
C503 C 0.92648 0.41881 0.81178 0.0
C504 C 0.9132 0.43321 0.83324 0.0
C505 C 0.94231 0.39853 0.82434 0.0
C506 C 0.94054 0.43666 0.79395 0.0
C507 C 0.93205 0.43563 0.76801 0.0
C508 C 0.94175 0.44957 0.74737 0.0
C509 C 0.96074 0.46511 0.75316 0.0
C510 C 0.97032 0.46672 0.77947 0.0
C511 C 0.95988 0.4524 0.80033 0.0
H512 H 0.28698 0.14542 0.34817 0.0
H513 H 0.26956 0.20383 0.40409 0.0
H514 H 0.27502 0.17424 0.4416 0.0
H515 H 0.25762 0.09549 0.38279 0.0
H516 H 0.27945 0.07207 0.37629 0.0
H517 H 0.27554 0.098 0.35333 0.0
H518 H 0.3197 0.10964 0.35822 0.0
H519 H 0.32374 0.08368 0.38119 0.0
H520 H 0.33201 0.11496 0.39102 0.0
H521 H 0.28043 0.13896 0.473 0.0
H522 H 0.28545 0.0987 0.49713 0.0
H523 H 0.29946 0.06173 0.42241 0.0
C524 C 0.28474 0.152 0.36835 0.0
C525 C 0.27772 0.17699 0.37315 0.0
C526 C 0.27466 0.18478 0.39985 0.0
C527 C 0.27782 0.16813 0.42135 0.0
C528 C 0.28429 0.14364 0.41602 0.0
C529 C 0.28781 0.13546 0.39029 0.0
C530 C 0.29398 0.10772 0.39049 0.0
C531 C 0.27554 0.09242 0.3748 0.0
C532 C 0.31884 0.10377 0.37958 0.0
C533 C 0.29308 0.10173 0.42029 0.0
C534 C 0.28761 0.1229 0.43452 0.0
C535 C 0.28512 0.12232 0.46217 0.0
C536 C 0.28821 0.09948 0.47573 0.0
C537 C 0.29373 0.07751 0.46171 0.0
C538 C 0.29613 0.07855 0.43361 0.0
H539 H 0.3916 0.79259 0.87246 0.0
H540 H 0.36663 0.71557 0.88017 0.0
H541 H 0.39671 0.70767 0.91486 0.0
H542 H 0.45359 0.77787 0.87988 0.0
H543 H 0.46063 0.80577 0.89838 0.0
H544 H 0.43672 0.80599 0.87445 0.0
H545 H 0.4083 0.82063 0.91121 0.0
H546 H 0.43212 0.82037 0.93526 0.0
H547 H 0.40569 0.80244 0.94167 0.0
H548 H 0.42847 0.70763 0.94777 0.0
H549 H 0.4616 0.7144 0.97786 0.0
H550 H 0.46881 0.79141 0.949 0.0
C551 C 0.39251 0.774 0.88131 0.0
C552 C 0.3765 0.75474 0.87364 0.0
C553 C 0.37824 0.73079 0.88601 0.0
C554 C 0.39543 0.72605 0.90558 0.0
C555 C 0.41084 0.74539 0.91251 0.0
C556 C 0.40973 0.76885 0.9008 0.0
C557 C 0.42886 0.78608 0.91191 0.0
C558 C 0.44596 0.79442 0.88984 0.0
C559 C 0.41809 0.80872 0.92584 0.0
C560 C 0.44074 0.7686 0.93193 0.0
C561 C 0.42989 0.74528 0.93168 0.0
C562 C 0.4372 0.72574 0.94807 0.0
C563 C 0.45624 0.72993 0.96511 0.0
C564 C 0.46817 0.75351 0.96577 0.0
C565 C 0.46012 0.77327 0.94905 0.0
H566 H 0.77245 0.85934 0.39822 0.0
H567 H 0.82069 0.88779 0.33805 0.0
H568 H 0.82884 0.92489 0.36549 0.0
H569 H 0.74807 0.91868 0.41552 0.0
H570 H 0.74614 0.91164 0.45076 0.0
H571 H 0.74437 0.88669 0.42689 0.0
H572 H 0.77904 0.86419 0.45072 0.0
H573 H 0.78086 0.88905 0.47472 0.0
H574 H 0.80644 0.88082 0.45584 0.0
H575 H 0.83334 0.95796 0.39982 0.0
H576 H 0.8309 0.98728 0.4376 0.0
H577 H 0.77811 0.93941 0.47458 0.0
C578 C 0.78474 0.87337 0.39086 0.0
C579 C 0.79576 0.87071 0.36579 0.0
C580 C 0.81167 0.88958 0.35687 0.0
C581 C 0.81661 0.91064 0.37245 0.0
C582 C 0.80551 0.91269 0.39696 0.0
C583 C 0.78977 0.89472 0.40612 0.0
C584 C 0.7799 0.90198 0.43301 0.0
C585 C 0.75303 0.90494 0.43143 0.0
C586 C 0.78698 0.88287 0.45486 0.0
C587 C 0.79229 0.92698 0.43719 0.0
C588 C 0.80736 0.93249 0.41639 0.0
C589 C 0.82152 0.95397 0.41618 0.0
C590 C 0.82015 0.97041 0.43772 0.0
C591 C 0.80436 0.96554 0.45883 0.0
C592 C 0.79023 0.94358 0.45853 0.0
H593 H 0.6537 0.27408 0.8834 0.0
H594 H 0.67175 0.35232 0.86854 0.0
H595 H 0.64052 0.36518 0.89894 0.0
H596 H 0.59073 0.28334 0.88503 0.0
H597 H 0.58599 0.26031 0.91114 0.0
H598 H 0.61026 0.25702 0.88859 0.0
H599 H 0.63925 0.25502 0.9288 0.0
H600 H 0.61509 0.25831 0.95148 0.0
H601 H 0.63959 0.27998 0.95276 0.0
H602 H 0.6074 0.36996 0.93052 0.0
H603 H 0.57412 0.36613 0.9617 0.0
H604 H 0.57658 0.28503 0.95526 0.0
C605 C 0.65094 0.29391 0.88632 0.0
C606 C 0.6654 0.31214 0.87368 0.0
C607 C 0.6613 0.33792 0.87835 0.0
C608 C 0.64347 0.34548 0.89546 0.0
C609 C 0.62964 0.32709 0.90763 0.0
C610 C 0.63306 0.30185 0.90327 0.0
C611 C 0.61552 0.28599 0.91878 0.0
C612 C 0.59968 0.27078 0.89975 0.0
C613 C 0.62812 0.26882 0.93917 0.0
C614 C 0.6018 0.30634 0.93251 0.0
C615 C 0.61026 0.32989 0.92578 0.0
C616 C 0.60054 0.35163 0.93597 0.0
C617 C 0.58164 0.34928 0.95363 0.0
C618 C 0.5727 0.32535 0.96093 0.0
C619 C 0.58296 0.30364 0.9501 0.0
H620 H 0.29472 0.85748 0.62738 0.0
H621 H 0.25771 0.89555 0.69045 0.0
H622 H 0.25947 0.93492 0.66443 0.0
H623 H 0.33344 0.90909 0.60925 0.0
H624 H 0.33194 0.90314 0.5739 0.0
H625 H 0.32837 0.87765 0.59754 0.0
H626 H 0.28817 0.86619 0.57586 0.0
H627 H 0.29168 0.89155 0.55209 0.0
H628 H 0.26581 0.88984 0.5726 0.0
H629 H 0.26336 0.96959 0.63144 0.0
H630 H 0.26974 0.9981 0.59289 0.0
H631 H 0.30491 0.93884 0.55083 0.0
C632 C 0.28702 0.87411 0.63573 0.0
C633 C 0.27636 0.87339 0.66124 0.0
C634 C 0.26649 0.89564 0.67134 0.0
C635 C 0.26722 0.9181 0.6566 0.0
C636 C 0.2779 0.91817 0.63171 0.0
C637 C 0.28764 0.89683 0.62125 0.0
C638 C 0.29779 0.90219 0.59375 0.0
C639 C 0.32447 0.89775 0.59362 0.0
C640 C 0.2851 0.88651 0.57231 0.0
C641 C 0.29225 0.92986 0.59051 0.0
C642 C 0.28066 0.93857 0.61268 0.0
C643 C 0.27273 0.96312 0.61415 0.0
C644 C 0.27654 0.97919 0.59229 0.0
C645 C 0.28843 0.97078 0.56945 0.0
C646 C 0.29653 0.94586 0.56854 0.0
H647 H 0.65944 0.79212 0.15047 0.0
H648 H 0.66993 0.71222 0.1636 0.0
H649 H 0.6369 0.70322 0.13298 0.0
H650 H 0.59551 0.78871 0.14901 0.0
H651 H 0.59245 0.81273 0.12359 0.0
H652 H 0.61735 0.8133 0.14617 0.0
H653 H 0.64562 0.81382 0.1058 0.0
H654 H 0.62078 0.81317 0.08315 0.0
H655 H 0.64314 0.78951 0.08119 0.0
H656 H 0.60312 0.70243 0.10235 0.0
H657 H 0.57018 0.70919 0.07183 0.0
H658 H 0.57958 0.79001 0.07798 0.0
C659 C 0.65475 0.7727 0.1471 0.0
C660 C 0.66756 0.75287 0.15947 0.0
C661 C 0.66088 0.72777 0.15407 0.0
C662 C 0.64194 0.72244 0.13689 0.0
C663 C 0.6297 0.74239 0.12535 0.0
C664 C 0.63571 0.76702 0.13015 0.0
C665 C 0.61933 0.78483 0.11513 0.0
C666 C 0.60534 0.80084 0.13464 0.0
C667 C 0.63304 0.8013 0.09513 0.0
C668 C 0.60336 0.76628 0.10088 0.0
C669 C 0.60975 0.74196 0.10735 0.0
C670 C 0.59793 0.72136 0.09712 0.0
C671 C 0.57911 0.72557 0.07969 0.0
C672 C 0.57209 0.75028 0.07231 0.0
C673 C 0.58441 0.77097 0.0832 0.0
H674 H 0.76475 0.16746 0.633 0.0
H675 H 0.8264 0.1543 0.68331 0.0
H676 H 0.83752 0.11938 0.65457 0.0
H677 H 0.75044 0.10242 0.62455 0.0
H678 H 0.74019 0.10653 0.59058 0.0
H679 H 0.73802 0.1319 0.61379 0.0
H680 H 0.76146 0.16074 0.58144 0.0
H681 H 0.76379 0.1354 0.55818 0.0
H682 H 0.78998 0.1511 0.57016 0.0
H683 H 0.84222 0.08584 0.6204 0.0
H684 H 0.83843 0.05401 0.58506 0.0
H685 H 0.7717 0.08614 0.56015 0.0
C686 C 0.78051 0.15724 0.63831 0.0
C687 C 0.79475 0.1641 0.66054 0.0
C688 C 0.81543 0.15015 0.66612 0.0
C689 C 0.82182 0.13002 0.65003 0.0
C690 C 0.80724 0.12371 0.62859 0.0
C691 C 0.78688 0.13673 0.62286 0.0
C692 C 0.77373 0.12543 0.59933 0.0
C693 C 0.74915 0.11601 0.60757 0.0
C694 C 0.77216 0.14429 0.57589 0.0
C695 C 0.78986 0.10388 0.59292 0.0
C696 C 0.80928 0.1035 0.60975 0.0
C697 C 0.82703 0.08583 0.6072 0.0
C698 C 0.82479 0.0679 0.58704 0.0
C699 C 0.80476 0.06754 0.57006 0.0
C700 C 0.78711 0.08582 0.57307 0.0
H701 H 0.39373 0.27161 0.14891 0.0
H702 H 0.36481 0.34671 0.14972 0.0
H703 H 0.39498 0.36073 0.11751 0.0
H704 H 0.45462 0.291 0.14655 0.0
H705 H 0.46302 0.26578 0.12508 0.0
H706 H 0.43878 0.26158 0.14767 0.0
H707 H 0.41159 0.24938 0.10798 0.0
H708 H 0.43575 0.25358 0.08531 0.0
H709 H 0.40877 0.27047 0.07972 0.0
H710 H 0.42917 0.36697 0.0863 0.0
H711 H 0.46356 0.36434 0.05659 0.0
H712 H 0.47023 0.2853 0.07686 0.0
C713 C 0.39375 0.29107 0.14252 0.0
C714 C 0.3768 0.30805 0.15201 0.0
C715 C 0.37733 0.33322 0.14257 0.0
C716 C 0.39455 0.34144 0.12444 0.0
C717 C 0.41117 0.32429 0.11591 0.0
C718 C 0.41086 0.29961 0.12458 0.0
C719 C 0.43074 0.28494 0.11245 0.0
C720 C 0.4478 0.27526 0.13424 0.0
C721 C 0.42113 0.26332 0.09534 0.0
C722 C 0.44215 0.30523 0.0954 0.0
C723 C 0.43072 0.32783 0.09782 0.0
C724 C 0.43824 0.34937 0.0842 0.0
C725 C 0.45784 0.34773 0.06746 0.0
C726 C 0.46957 0.32467 0.06436 0.0
C727 C 0.4616 0.30322 0.07869 0.0
H728 H 0.87627 0.62429 0.72177 0.0
H729 H 0.9009 0.66953 0.78819 0.0
H730 H 0.93779 0.64611 0.78979 0.0
H731 H 0.90056 0.56649 0.74493 0.0
H732 H 0.90944 0.55576 0.71257 0.0
H733 H 0.88488 0.57666 0.71529 0.0
H734 H 0.90484 0.608 0.68255 0.0
H735 H 0.92952 0.58721 0.67965 0.0
H736 H 0.93423 0.6192 0.6897 0.0
H737 H 0.97083 0.61861 0.78575 0.0
H738 H 0.99964 0.58594 0.77735 0.0
H739 H 0.95554 0.55654 0.71341 0.0
C740 C 0.88966 0.62945 0.73628 0.0
C741 C 0.88569 0.64864 0.75497 0.0
C742 C 0.90343 0.6547 0.77393 0.0
C743 C 0.92451 0.64161 0.77492 0.0
C744 C 0.92781 0.62271 0.75655 0.0
C745 C 0.91108 0.61651 0.73752 0.0
C746 C 0.91934 0.59469 0.72081 0.0
C747 C 0.90256 0.57206 0.72358 0.0
C748 C 0.92214 0.60276 0.69143 0.0
C749 C 0.94314 0.58952 0.73379 0.0
C750 C 0.9475 0.60625 0.75417 0.0
C751 C 0.96779 0.6055 0.76973 0.0
C752 C 0.98407 0.58689 0.76468 0.0
C753 C 0.97995 0.56892 0.74449 0.0
C754 C 0.95937 0.57043 0.72846 0.0
H755 H 0.8973 0.37442 0.24788 0.0
H756 H 0.84969 0.41079 0.3021 0.0
H757 H 0.87976 0.44327 0.31125 0.0
H758 H 0.95181 0.38753 0.28496 0.0
H759 H 0.96882 0.39371 0.25536 0.0
H760 H 0.94418 0.37224 0.2541 0.0
H761 H 0.92589 0.39821 0.2152 0.0
H762 H 0.95045 0.41973 0.21644 0.0
H763 H 0.92088 0.43125 0.21948 0.0
H764 H 0.91458 0.47127 0.31541 0.0
H765 H 0.95144 0.49588 0.31095 0.0
H766 H 0.97596 0.44363 0.25182 0.0
C767 C 0.89346 0.38903 0.26198 0.0
C768 C 0.87131 0.39002 0.27459 0.0
C769 C 0.86661 0.4097 0.29241 0.0
C770 C 0.88356 0.42819 0.29774 0.0
C771 C 0.90513 0.42685 0.28497 0.0
C772 C 0.91015 0.40796 0.26727 0.0
C773 C 0.9344 0.41185 0.25531 0.0
C774 C 0.95076 0.39003 0.26289 0.0
C775 C 0.93279 0.41549 0.2248 0.0
C776 C 0.94203 0.43583 0.2691 0.0
C777 C 0.92499 0.44388 0.28642 0.0
C778 C 0.92811 0.46521 0.30193 0.0
C779 C 0.94914 0.47892 0.29949 0.0
C780 C 0.96653 0.47147 0.28133 0.0
C781 C 0.96293 0.44961 0.266 0.0
H782 H 0.16128 0.38527 0.72018 0.0
H783 H 0.1712 0.38107 0.80626 0.0
H784 H 0.1375 0.40881 0.81231 0.0
H785 H 0.14564 0.45012 0.71712 0.0
H786 H 0.1233 0.44692 0.69153 0.0
H787 H 0.14748 0.4253 0.69311 0.0
H788 H 0.11804 0.38797 0.6958 0.0
H789 H 0.09381 0.40956 0.69412 0.0
H790 H 0.09603 0.38741 0.72151 0.0
H791 H 0.10511 0.43713 0.8101 0.0
H792 H 0.0734 0.46595 0.80033 0.0
H793 H 0.08213 0.45448 0.71496 0.0
C794 C 0.15599 0.38994 0.74022 0.0
C795 C 0.16884 0.3811 0.76283 0.0
C796 C 0.16167 0.38776 0.78876 0.0
C797 C 0.14254 0.40346 0.79239 0.0
C798 C 0.13058 0.4123 0.76989 0.0
C799 C 0.13674 0.40587 0.74428 0.0
C800 C 0.12084 0.41902 0.72386 0.0
C801 C 0.13518 0.43637 0.70531 0.0
C802 C 0.10632 0.39984 0.70787 0.0
C803 C 0.10519 0.43401 0.74216 0.0
C804 C 0.11128 0.42947 0.76856 0.0
C805 C 0.10002 0.4408 0.78953 0.0
C806 C 0.08189 0.45726 0.78357 0.0
C807 C 0.075 0.46262 0.75672 0.0
C808 C 0.08687 0.45076 0.73563 0.0
H809 H 0.15055 0.64978 0.30104 0.0
H810 H 0.16526 0.65539 0.21606 0.0
H811 H 0.13387 0.62446 0.2071 0.0
H812 H 0.13691 0.58448 0.30392 0.0
H813 H 0.1131 0.58752 0.32716 0.0
H814 H 0.13702 0.6099 0.32733 0.0
H815 H 0.10745 0.64625 0.32077 0.0
H816 H 0.08343 0.62397 0.32073 0.0
H817 H 0.08699 0.64553 0.29302 0.0
H818 H 0.10141 0.59384 0.20695 0.0
H819 H 0.06916 0.56429 0.21509 0.0
H820 H 0.07363 0.57885 0.30034 0.0
C821 C 0.1471 0.64472 0.28049 0.0
C822 C 0.16059 0.65502 0.25926 0.0
C823 C 0.15561 0.64747 0.23274 0.0
C824 C 0.13764 0.63009 0.2274 0.0
C825 C 0.12466 0.62058 0.24875 0.0
C826 C 0.12902 0.62762 0.27475 0.0
C827 C 0.11219 0.6146 0.29392 0.0
C828 C 0.12561 0.59814 0.31428 0.0
C829 C 0.09659 0.63373 0.30793 0.0
C830 C 0.09792 0.59883 0.27458 0.0
C831 C 0.10546 0.6028 0.24866 0.0
C832 C 0.09529 0.59058 0.22712 0.0
C833 C 0.07691 0.57378 0.23208 0.0
C834 C 0.06875 0.56917 0.25845 0.0
C835 C 0.07941 0.58197 0.28001 0.0
H836 H 0.76315 0.88686 0.67383 0.0
H837 H 0.77851 0.82792 0.61755 0.0
H838 H 0.77815 0.85875 0.58077 0.0
H839 H 0.7228 0.92088 0.63001 0.0
H840 H 0.73252 0.95135 0.64101 0.0
H841 H 0.73416 0.92474 0.66349 0.0
H842 H 0.77869 0.93324 0.67076 0.0
H843 H 0.77724 0.95982 0.64826 0.0
H844 H 0.79784 0.93504 0.64229 0.0
H845 H 0.7774 0.89505 0.55033 0.0
H846 H 0.7751 0.93598 0.52698 0.0
H847 H 0.75824 0.97201 0.60146 0.0
C848 C 0.76619 0.88042 0.65374 0.0
C849 C 0.7712 0.85497 0.64869 0.0
C850 C 0.77524 0.84737 0.6221 0.0
C851 C 0.77489 0.8647 0.60098 0.0
C852 C 0.77014 0.88956 0.60664 0.0
C853 C 0.76572 0.89752 0.63224 0.0
C854 C 0.76114 0.92551 0.63252 0.0
C855 C 0.73617 0.93093 0.64234 0.0
C856 C 0.77985 0.93921 0.64946 0.0
C857 C 0.7636 0.93188 0.60304 0.0
C858 C 0.76892 0.91076 0.58862 0.0
C859 C 0.7729 0.91168 0.56125 0.0
C860 C 0.77143 0.93489 0.54817 0.0
C861 C 0.76582 0.95669 0.56241 0.0
C862 C 0.76183 0.95531 0.59016 0.0
H863 H 0.662 0.25074 0.14158 0.0
H864 H 0.65377 0.32353 0.17842 0.0
H865 H 0.61924 0.33149 0.14974 0.0
H866 H 0.64445 0.26825 0.07543 0.0
H867 H 0.62826 0.23971 0.06895 0.0
H868 H 0.65273 0.23944 0.09211 0.0
H869 H 0.62585 0.22077 0.129 0.0
H870 H 0.6013 0.22091 0.10591 0.0
H871 H 0.59913 0.23673 0.13739 0.0
H872 H 0.58596 0.33184 0.11822 0.0
H873 H 0.55569 0.32559 0.08394 0.0
H874 H 0.58355 0.25182 0.06716 0.0
C875 C 0.65289 0.2683 0.14386 0.0
C876 C 0.66095 0.28658 0.16229 0.0
C877 C 0.64852 0.30942 0.16415 0.0
C878 C 0.62864 0.31402 0.14814 0.0
C879 C 0.62115 0.29553 0.13053 0.0
C880 C 0.63277 0.27311 0.12825 0.0
C881 C 0.62078 0.25645 0.10764 0.0
C882 C 0.63756 0.25063 0.08466 0.0
C883 C 0.6112 0.23228 0.12078 0.0
C884 C 0.60083 0.27328 0.09836 0.0
C885 C 0.60146 0.29562 0.11213 0.0
C886 C 0.58525 0.31445 0.10734 0.0
C887 C 0.5681 0.31061 0.08771 0.0
C888 C 0.56718 0.28816 0.07272 0.0
C889 C 0.58361 0.26902 0.07843 0.0
H890 H 0.2716 0.14259 0.66355 0.0
H891 H 0.24074 0.2002 0.61247 0.0
H892 H 0.23549 0.16966 0.57654 0.0
H893 H 0.30352 0.1113 0.60996 0.0
H894 H 0.29842 0.08027 0.62352 0.0
H895 H 0.30028 0.10673 0.64549 0.0
H896 H 0.25937 0.09519 0.6646 0.0
H897 H 0.25729 0.06882 0.64253 0.0
H898 H 0.23452 0.09214 0.64217 0.0
H899 H 0.23019 0.1331 0.54763 0.0
H900 H 0.23072 0.09272 0.524 0.0
H901 H 0.26782 0.05863 0.5911 0.0
C902 C 0.26415 0.14879 0.64462 0.0
C903 C 0.2562 0.17369 0.64096 0.0
C904 C 0.24648 0.18111 0.61592 0.0
C905 C 0.24345 0.16393 0.59535 0.0
C906 C 0.25056 0.13938 0.59985 0.0
C907 C 0.26115 0.1318 0.62357 0.0
C908 C 0.26725 0.10414 0.62275 0.0
C909 C 0.29396 0.10039 0.62558 0.0
C910 C 0.25381 0.0892 0.6443 0.0
C911 C 0.25837 0.09759 0.59492 0.0
C912 C 0.24845 0.11819 0.58237 0.0
C913 C 0.23801 0.1168 0.55711 0.0
C914 C 0.23808 0.09379 0.54401 0.0
C915 C 0.24886 0.07267 0.556 0.0
C916 C 0.25919 0.07456 0.58175 0.0
H917 H 0.39134 0.69976 0.16609 0.0
H918 H 0.36194 0.77078 0.13896 0.0
H919 H 0.3916 0.77348 0.10376 0.0
H920 H 0.45178 0.71475 0.15451 0.0
H921 H 0.45949 0.68431 0.14219 0.0
H922 H 0.43575 0.68724 0.16551 0.0
H923 H 0.40742 0.66486 0.13247 0.0
H924 H 0.43112 0.66181 0.10907 0.0
H925 H 0.40423 0.67699 0.09885 0.0
H926 H 0.42318 0.76912 0.07182 0.0
H927 H 0.45735 0.75936 0.04503 0.0
H928 H 0.46824 0.69061 0.091 0.0
C929 C 0.39102 0.71582 0.15266 0.0
C930 C 0.3743 0.73525 0.15572 0.0
C931 C 0.37477 0.75597 0.13771 0.0
C932 C 0.39141 0.75754 0.11735 0.0
C933 C 0.40745 0.73814 0.11493 0.0
C934 C 0.40752 0.71765 0.13196 0.0
C935 C 0.42711 0.69964 0.12474 0.0
C936 C 0.44457 0.6963 0.14813 0.0
C937 C 0.41685 0.67432 0.11576 0.0
C938 C 0.43834 0.71363 0.1014 0.0
C939 C 0.4263 0.73561 0.09611 0.0
C940 C 0.4328 0.75203 0.07581 0.0
C941 C 0.45241 0.74623 0.06074 0.0
C942 C 0.4658 0.72428 0.06604 0.0
C943 C 0.45837 0.70741 0.08639 0.0
H944 H 0.76082 0.18059 0.40746 0.0
H945 H 0.77822 0.14185 0.33446 0.0
H946 H 0.77682 0.10152 0.35883 0.0
H947 H 0.79676 0.14145 0.45088 0.0
H948 H 0.77646 0.14231 0.47828 0.0
H949 H 0.77812 0.16827 0.45499 0.0
H950 H 0.73335 0.16404 0.44548 0.0
H951 H 0.73161 0.13797 0.46863 0.0
H952 H 0.72143 0.13438 0.43466 0.0
H953 H 0.77474 0.06558 0.39083 0.0
H954 H 0.77234 0.03602 0.42923 0.0
H955 H 0.75688 0.09755 0.48175 0.0
C956 C 0.76442 0.16367 0.39655 0.0
C957 C 0.76933 0.16451 0.36884 0.0
C958 C 0.77381 0.14179 0.35545 0.0
C959 C 0.77328 0.11876 0.36918 0.0
C960 C 0.76839 0.11867 0.39636 0.0
C961 C 0.76415 0.14049 0.41 0.0
C962 C 0.75983 0.13511 0.4394 0.0
C963 C 0.77893 0.14752 0.45691 0.0
C964 C 0.73508 0.14337 0.4475 0.0
C965 C 0.76191 0.10681 0.44 0.0
C966 C 0.76699 0.09777 0.41494 0.0
C967 C 0.77048 0.07237 0.41047 0.0
C968 C 0.76889 0.05574 0.43224 0.0
C969 C 0.76362 0.06459 0.45795 0.0
C970 C 0.76009 0.09038 0.46197 0.0
H971 H 0.38544 0.24613 0.87765 0.0
H972 H 0.38071 0.32495 0.85512 0.0
H973 H 0.41324 0.33463 0.88614 0.0
H974 H 0.39972 0.25462 0.94688 0.0
H975 H 0.4205 0.22928 0.94874 0.0
H976 H 0.39642 0.22813 0.92508 0.0
H977 H 0.42586 0.22249 0.88644 0.0
H978 H 0.45003 0.22356 0.91001 0.0
H979 H 0.44935 0.24506 0.88195 0.0
H980 H 0.446 0.33611 0.91802 0.0
H981 H 0.47736 0.33027 0.95082 0.0
H982 H 0.46289 0.25 0.95364 0.0
C983 C 0.39129 0.26543 0.87905 0.0
C984 C 0.38022 0.2848 0.8639 0.0
C985 C 0.38837 0.30981 0.86678 0.0
C986 C 0.40706 0.31548 0.88417 0.0
C987 C 0.4176 0.29595 0.89847 0.0
C988 C 0.41013 0.27143 0.89619 0.0
C989 C 0.42484 0.2541 0.91393 0.0
C990 C 0.40945 0.24075 0.93491 0.0
C991 C 0.43831 0.23518 0.89707 0.0
C992 C 0.44157 0.27285 0.92678 0.0
C993 C 0.43697 0.29679 0.91726 0.0
C994 C 0.44976 0.31749 0.92565 0.0
C995 C 0.46765 0.31381 0.94445 0.0
C996 C 0.47274 0.28956 0.9551 0.0
C997 C 0.45956 0.2687 0.94591 0.0
H998 H 0.24916 0.85841 0.38953 0.0
H999 H 0.29558 0.8939 0.33171 0.0
H1000 H 0.29501 0.93298 0.3572 0.0
H1001 H 0.21363 0.91378 0.40335 0.0
H1002 H 0.21155 0.90715 0.43866 0.0
H1003 H 0.21449 0.88182 0.41547 0.0
H1004 H 0.25132 0.8662 0.44148 0.0
H1005 H 0.24847 0.89152 0.46468 0.0
H1006 H 0.27564 0.88749 0.44705 0.0
H1007 H 0.29197 0.9669 0.38922 0.0
H1008 H 0.28531 0.99547 0.42664 0.0
H1009 H 0.23973 0.94006 0.46425 0.0
C1010 C 0.25883 0.87459 0.38213 0.0
C1011 C 0.27248 0.87317 0.35868 0.0
C1012 C 0.28519 0.89457 0.34972 0.0
C1013 C 0.28494 0.91686 0.36401 0.0
C1014 C 0.27177 0.9176 0.38722 0.0
C1015 C 0.25885 0.8972 0.39632 0.0
C1016 C 0.24696 0.90318 0.42257 0.0
C1017 C 0.22005 0.90138 0.41983 0.0
C1018 C 0.25615 0.88608 0.44528 0.0
C1019 C 0.25504 0.93014 0.4264 0.0
C1020 C 0.26951 0.93784 0.40578 0.0
C1021 C 0.28038 0.9613 0.40529 0.0
C1022 C 0.27646 0.97739 0.42654 0.0
C1023 C 0.2616 0.97009 0.4478 0.0
C1024 C 0.25056 0.94627 0.44771 0.0
H1025 H 0.65485 0.69403 0.87814 0.0
H1026 H 0.65199 0.77367 0.85903 0.0
H1027 H 0.61939 0.77842 0.89021 0.0
H1028 H 0.59194 0.68467 0.88488 0.0
H1029 H 0.59413 0.66309 0.91279 0.0
H1030 H 0.61752 0.66515 0.88877 0.0
H1031 H 0.64757 0.67436 0.92667 0.0
H1032 H 0.62435 0.6722 0.95088 0.0
H1033 H 0.64245 0.70007 0.94887 0.0
H1034 H 0.58767 0.77534 0.92105 0.0
H1035 H 0.55823 0.76587 0.95435 0.0
H1036 H 0.5804 0.68787 0.95759 0.0
C1037 C 0.64735 0.71243 0.88071 0.0
C1038 C 0.65562 0.73345 0.86583 0.0
C1039 C 0.64552 0.75725 0.8697 0.0
C1040 C 0.62709 0.76016 0.88746 0.0
C1041 C 0.61903 0.73913 0.90138 0.0
C1042 C 0.62876 0.71574 0.89856 0.0
C1043 C 0.61642 0.69655 0.91649 0.0
C1044 C 0.60428 0.67615 0.89973 0.0
C1045 C 0.63374 0.68512 0.93695 0.0
C1046 C 0.59843 0.71303 0.92993 0.0
C1047 C 0.60041 0.73741 0.92043 0.0
C1048 C 0.58601 0.7564 0.92889 0.0
C1049 C 0.56927 0.75064 0.94801 0.0
C1050 C 0.56701 0.72605 0.95911 0.0
C1051 C 0.58164 0.70679 0.94961 0.0
loop_
_geom_bond_atom_site_label_1
_geom_bond_atom_site_label_2
_geom_bond_distance
_geom_bond_site_symmetry_2
_ccdc_geom_bond_type
C0 C1 1.264 . S
C0 C5 1.479 . S
C0 C10 1.465 . S
C1 C0 1.264 . S
C1 C3 1.339 . S
C1 H28 0.931 . S
C2 C3 1.395 . S
C2 C4 1.320 . S
C3 C1 1.339 . S
C3 C2 1.395 . S
C3 H29 0.929 . S
C4 C2 1.320 . S
C4 C5 1.405 . S
C4 H30 0.930 . S
C5 C0 1.479 . S
C5 C4 1.405 . S
C5 H31 0.931 . S
U6 O7 2.454 . S
U6 O8 2.458 . S
U6 C9 2.984 . S
U6 C10 2.847 . S
U6 C23 2.882 . S
U6 O24 2.441 . S
U6 O25 2.420 . S
U6 O26 2.455 . S
U6 O27 2.449 . S
O7 U6 2.454 . S
O7 C9 1.353 . S
O8 U6 2.458 . S
O8 C9 1.286 . S
C9 U6 2.984 . S
C9 O7 1.353 . S
C9 O8 1.286 . S
C9 C11 1.363 . S
C10 C0 1.465 . S
C10 U6 2.847 . S
C10 O24 1.249 . S
C10 O25 1.202 . S
C11 C9 1.363 . S
C11 C13 1.408 . S
C11 C16 1.342 . S
C12 C13 1.310 . S
C12 C15 1.461 . S
C12 H32 0.932 . S
C13 C11 1.408 . S
C13 C12 1.310 . S
C13 H33 0.930 . S
C14 C15 1.474 . S
C14 C16 1.285 . S
C14 H34 0.929 . S
C15 C12 1.461 . S
C15 C14 1.474 . S
C16 C11 1.342 . S
C16 C14 1.285 . S
C16 H35 0.930 . S
C17 C20 1.424 . S
C17 C22 1.245 . S
C17 C23 1.428 . S
C18 C21 1.260 . S
C18 C22 1.477 . S
C18 H36 0.932 . S
C19 C20 1.384 . S
C19 C21 1.479 . S
C19 H37 0.929 . S
C20 C17 1.424 . S
C20 C19 1.384 . S
C20 H38 0.928 . S
C21 C18 1.260 . S
C21 C19 1.479 . S
C22 C17 1.245 . S
C22 C18 1.477 . S
C22 H39 0.932 . S
C23 U6 2.882 . S
C23 C17 1.428 . S
C23 O26 1.301 . S
C23 O27 1.282 . S
O24 U6 2.441 . S
O24 C10 1.249 . S
O25 U6 2.420 . S
O25 C10 1.202 . S
O26 U6 2.455 . S
O26 C23 1.301 . S
O27 U6 2.449 . S
O27 C23 1.282 . S
H28 C1 0.931 . S
H29 C3 0.929 . S
H30 C4 0.930 . S
H31 C5 0.931 . S
H32 C12 0.932 . S
H33 C13 0.930 . S
H34 C14 0.929 . S
H35 C16 0.930 . S
H36 C18 0.932 . S
H37 C19 0.929 . S
H38 C20 0.928 . S
H39 C22 0.932 . S
C40 C41 1.264 . S
C40 C45 1.479 . S
C40 C50 1.465 . S
C41 C40 1.264 . S
C41 C43 1.339 . S
C41 H68 0.931 . S
C42 C43 1.395 . S
C42 C44 1.320 . S
C43 C41 1.339 . S
C43 C42 1.395 . S
C43 H69 0.929 . S
C44 C42 1.320 . S
C44 C45 1.405 . S
C44 H70 0.930 . S
C45 C40 1.479 . S
C45 C44 1.405 . S
C45 H71 0.931 . S
U46 O47 2.454 . S
U46 O48 2.458 . S
U46 C49 2.984 . S
U46 C50 2.847 . S
U46 C63 2.882 . S
U46 O64 2.441 . S
U46 O65 2.420 . S
U46 O66 2.455 . S
U46 O67 2.449 . S
O47 U46 2.454 . S
O47 C49 1.353 . S
O48 U46 2.458 . S
O48 C49 1.286 . S
C49 U46 2.984 . S
C49 O47 1.353 . S
C49 O48 1.286 . S
C49 C51 1.363 . S
C50 C40 1.465 . S
C50 U46 2.847 . S
C50 O64 1.249 . S
C50 O65 1.202 . S
C51 C49 1.363 . S
C51 C53 1.408 . S
C51 C56 1.342 . S
C52 C53 1.310 . S
C52 C55 1.461 . S
C52 H72 0.932 . S
C53 C51 1.408 . S
C53 C52 1.310 . S
C53 H73 0.930 . S
C54 C55 1.474 . S
C54 C56 1.285 . S
C54 H74 0.929 . S
C55 C52 1.461 . S
C55 C54 1.474 . S
C56 C51 1.342 . S
C56 C54 1.285 . S
C56 H75 0.930 . S
C57 C60 1.424 . S
C57 C62 1.245 . S
C57 C63 1.428 . S
C58 C61 1.260 . S
C58 C62 1.477 . S
C58 H76 0.932 . S
C59 C60 1.384 . S
C59 C61 1.479 . S
C59 H77 0.929 . S
C60 C57 1.424 . S
C60 C59 1.384 . S
C60 H78 0.928 . S
C61 C58 1.260 . S
C61 C59 1.479 . S
C62 C57 1.245 . S
C62 C58 1.477 . S
C62 H79 0.932 . S
C63 U46 2.882 . S
C63 C57 1.428 . S
C63 O66 1.301 . S
C63 O67 1.282 . S
O64 U46 2.441 . S
O64 C50 1.249 . S
O65 U46 2.420 . S
O65 C50 1.202 . S
O66 U46 2.455 . S
O66 C63 1.301 . S
O67 U46 2.449 . S
O67 C63 1.282 . S
H68 C41 0.931 . S
H69 C43 0.929 . S
H70 C44 0.930 . S
H71 C45 0.931 . S
H72 C52 0.932 . S
H73 C53 0.930 . S
H74 C54 0.929 . S
H75 C56 0.930 . S
H76 C58 0.932 . S
H77 C59 0.929 . S
H78 C60 0.928 . S
H79 C62 0.932 . S
C80 C81 1.264 . S
C80 C85 1.479 . S
C80 C90 1.465 . S
C81 C80 1.264 . S
C81 C83 1.339 . S
C81 H108 0.931 . S
C82 C83 1.395 . S
C82 C84 1.320 . S
C83 C81 1.339 . S
C83 C82 1.395 . S
C83 H109 0.929 . S
C84 C82 1.320 . S
C84 C85 1.405 . S
C84 H110 0.930 . S
C85 C80 1.479 . S
C85 C84 1.405 . S
C85 H111 0.931 . S
U86 O87 2.454 . S
U86 O88 2.458 . S
U86 C89 2.984 . S
U86 C90 2.847 . S
U86 C103 2.882 . S
U86 O104 2.441 . S
U86 O105 2.420 . S
U86 O106 2.455 . S
U86 O107 2.449 . S
O87 U86 2.454 . S
O87 C89 1.353 . S
O88 U86 2.458 . S
O88 C89 1.286 . S
C89 U86 2.984 . S
C89 O87 1.353 . S
C89 O88 1.286 . S
C89 C91 1.363 . S
C90 C80 1.465 . S
C90 U86 2.847 . S
C90 O104 1.249 . S
C90 O105 1.202 . S
C91 C89 1.363 . S
C91 C93 1.408 . S
C91 C96 1.342 . S
C92 C93 1.310 . S
C92 C95 1.461 . S
C92 H112 0.932 . S
C93 C91 1.408 . S
C93 C92 1.310 . S
C93 H113 0.930 . S
C94 C95 1.474 . S
C94 C96 1.285 . S
C94 H114 0.929 . S
C95 C92 1.461 . S
C95 C94 1.474 . S
C96 C91 1.342 . S
C96 C94 1.285 . S
C96 H115 0.930 . S
C97 C100 1.424 . S
C97 C102 1.245 . S
C97 C103 1.428 . S
C98 C101 1.260 . S
C98 C102 1.477 . S
C98 H116 0.932 . S
C99 C100 1.384 . S
C99 C101 1.479 . S
C99 H117 0.929 . S
C100 C97 1.424 . S
C100 C99 1.384 . S
C100 H118 0.928 . S
C101 C98 1.260 . S
C101 C99 1.479 . S
C102 C97 1.245 . S
C102 C98 1.477 . S
C102 H119 0.932 . S
C103 U86 2.882 . S
C103 C97 1.428 . S
C103 O106 1.301 . S
C103 O107 1.282 . S
O104 U86 2.441 . S
O104 C90 1.249 . S
O105 U86 2.420 . S
O105 C90 1.202 . S
O106 U86 2.455 . S
O106 C103 1.301 . S
O107 U86 2.449 . S
O107 C103 1.282 . S
H108 C81 0.931 . S
H109 C83 0.929 . S
H110 C84 0.930 . S
H111 C85 0.931 . S
H112 C92 0.932 . S
H113 C93 0.930 . S
H114 C94 0.929 . S
H115 C96 0.930 . S
H116 C98 0.932 . S
H117 C99 0.929 . S
H118 C100 0.928 . S
H119 C102 0.932 . S
C120 C121 1.264 . S
C120 C125 1.479 . S
C120 C130 1.465 . S
C121 C120 1.264 . S
C121 C123 1.339 . S
C121 H148 0.931 . S
C122 C123 1.395 . S
C122 C124 1.320 . S
C123 C121 1.339 . S
C123 C122 1.395 . S
C123 H149 0.929 . S
C124 C122 1.320 . S
C124 C125 1.405 . S
C124 H150 0.930 . S
C125 C120 1.479 . S
C125 C124 1.405 . S
C125 H151 0.931 . S
U126 O127 2.454 . S
U126 O128 2.458 . S
U126 C129 2.984 . S
U126 C130 2.847 . S
U126 C143 2.882 . S
U126 O144 2.441 . S
U126 O145 2.420 . S
U126 O146 2.455 . S
U126 O147 2.449 . S
O127 U126 2.454 . S
O127 C129 1.353 . S
O128 U126 2.458 . S
O128 C129 1.286 . S
C129 U126 2.984 . S
C129 O127 1.353 . S
C129 O128 1.286 . S
C129 C131 1.363 . S
C130 C120 1.465 . S
C130 U126 2.847 . S
C130 O144 1.249 . S
C130 O145 1.202 . S
C131 C129 1.363 . S
C131 C133 1.408 . S
C131 C136 1.342 . S
C132 C133 1.310 . S
C132 C135 1.461 . S
C132 H152 0.932 . S
C133 C131 1.408 . S
C133 C132 1.310 . S
C133 H153 0.930 . S
C134 C135 1.474 . S
C134 C136 1.285 . S
C134 H154 0.929 . S
C135 C132 1.461 . S
C135 C134 1.474 . S
C136 C131 1.342 . S
C136 C134 1.285 . S
C136 H155 0.930 . S
C137 C140 1.424 . S
C137 C142 1.245 . S
C137 C143 1.428 . S
C138 C141 1.260 . S
C138 C142 1.477 . S
C138 H156 0.932 . S
C139 C140 1.384 . S
C139 C141 1.479 . S
C139 H157 0.929 . S
C140 C137 1.424 . S
C140 C139 1.384 . S
C140 H158 0.928 . S
C141 C138 1.260 . S
C141 C139 1.479 . S
C142 C137 1.245 . S
C142 C138 1.477 . S
C142 H159 0.932 . S
C143 U126 2.882 . S
C143 C137 1.428 . S
C143 O146 1.301 . S
C143 O147 1.282 . S
O144 U126 2.441 . S
O144 C130 1.249 . S
O145 U126 2.420 . S
O145 C130 1.202 . S
O146 U126 2.455 . S
O146 C143 1.301 . S
O147 U126 2.449 . S
O147 C143 1.282 . S
H148 C121 0.931 . S
H149 C123 0.929 . S
H150 C124 0.930 . S
H151 C125 0.931 . S
H152 C132 0.932 . S
H153 C133 0.930 . S
H154 C134 0.929 . S
H155 C136 0.930 . S
H156 C138 0.932 . S
H157 C139 0.929 . S
H158 C140 0.928 . S
H159 C142 0.932 . S
C160 C161 1.264 . S
C160 C165 1.479 . S
C160 C170 1.465 . S
C161 C160 1.264 . S
C161 C163 1.339 . S
C161 H188 0.931 . S
C162 C163 1.395 . S
C162 C164 1.320 . S
C163 C161 1.339 . S
C163 C162 1.395 . S
C163 H189 0.929 . S
C164 C162 1.320 . S
C164 C165 1.405 . S
C164 H190 0.930 . S
C165 C160 1.479 . S
C165 C164 1.405 . S
C165 H191 0.931 . S
U166 O167 2.454 . S
U166 O168 2.458 . S
U166 C169 2.984 . S
U166 C170 2.847 . S
U166 C183 2.882 . S
U166 O184 2.441 . S
U166 O185 2.420 . S
U166 O186 2.455 . S
U166 O187 2.449 . S
O167 U166 2.454 . S
O167 C169 1.353 . S
O168 U166 2.458 . S
O168 C169 1.286 . S
C169 U166 2.984 . S
C169 O167 1.353 . S
C169 O168 1.286 . S
C169 C171 1.363 . S
C170 C160 1.465 . S
C170 U166 2.847 . S
C170 O184 1.249 . S
C170 O185 1.202 . S
C171 C169 1.363 . S
C171 C173 1.408 . S
C171 C176 1.342 . S
C172 C173 1.310 . S
C172 C175 1.461 . S
C172 H192 0.932 . S
C173 C171 1.408 . S
C173 C172 1.310 . S
C173 H193 0.930 . S
C174 C175 1.474 . S
C174 C176 1.285 . S
C174 H194 0.929 . S
C175 C172 1.461 . S
C175 C174 1.474 . S
C176 C171 1.342 . S
C176 C174 1.285 . S
C176 H195 0.930 . S
C177 C180 1.424 . S
C177 C182 1.245 . S
C177 C183 1.428 . S
C178 C181 1.260 . S
C178 C182 1.477 . S
C178 H196 0.932 . S
C179 C180 1.384 . S
C179 C181 1.479 . S
C179 H197 0.929 . S
C180 C177 1.424 . S
C180 C179 1.384 . S
C180 H198 0.928 . S
C181 C178 1.260 . S
C181 C179 1.479 . S
C182 C177 1.245 . S
C182 C178 1.477 . S
C182 H199 0.932 . S
C183 U166 2.882 . S
C183 C177 1.428 . S
C183 O186 1.301 . S
C183 O187 1.282 . S
O184 U166 2.441 . S
O184 C170 1.249 . S
O185 U166 2.420 . S
O185 C170 1.202 . S
O186 U166 2.455 . S
O186 C183 1.301 . S
O187 U166 2.449 . S
O187 C183 1.282 . S
H188 C161 0.931 . S
H189 C163 0.929 . S
H190 C164 0.930 . S
H191 C165 0.931 . S
H192 C172 0.932 . S
H193 C173 0.930 . S
H194 C174 0.929 . S
H195 C176 0.930 . S
H196 C178 0.932 . S
H197 C179 0.929 . S
H198 C180 0.928 . S
H199 C182 0.932 . S
C200 C201 1.264 . S
C200 C205 1.479 . S
C200 C210 1.465 . S
C201 C200 1.264 . S
C201 C203 1.339 . S
C201 H228 0.931 . S
C202 C203 1.395 . S
C202 C204 1.320 . S
C203 C201 1.339 . S
C203 C202 1.395 . S
C203 H229 0.929 . S
C204 C202 1.320 . S
C204 C205 1.405 . S
C204 H230 0.930 . S
C205 C200 1.479 . S
C205 C204 1.405 . S
C205 H231 0.931 . S
U206 O207 2.454 . S
U206 O208 2.458 . S
U206 C209 2.984 . S
U206 C210 2.847 . S
U206 C223 2.882 . S
U206 O224 2.441 . S
U206 O225 2.420 . S
U206 O226 2.455 . S
U206 O227 2.449 . S
O207 U206 2.454 . S
O207 C209 1.353 . S
O208 U206 2.458 . S
O208 C209 1.286 . S
C209 U206 2.984 . S
C209 O207 1.353 . S
C209 O208 1.286 . S
C209 C211 1.363 . S
C210 C200 1.465 . S
C210 U206 2.847 . S
C210 O224 1.249 . S
C210 O225 1.202 . S
C211 C209 1.363 . S
C211 C213 1.408 . S
C211 C216 1.342 . S
C212 C213 1.310 . S
C212 C215 1.461 . S
C212 H232 0.932 . S
C213 C211 1.408 . S
C213 C212 1.310 . S
C213 H233 0.930 . S
C214 C215 1.474 . S
C214 C216 1.285 . S
C214 H234 0.929 . S
C215 C212 1.461 . S
C215 C214 1.474 . S
C216 C211 1.342 . S
C216 C214 1.285 . S
C216 H235 0.930 . S
C217 C220 1.424 . S
C217 C222 1.245 . S
C217 C223 1.428 . S
C218 C221 1.260 . S
C218 C222 1.477 . S
C218 H236 0.932 . S
C219 C220 1.384 . S
C219 C221 1.479 . S
C219 H237 0.929 . S
C220 C217 1.424 . S
C220 C219 1.384 . S
C220 H238 0.928 . S
C221 C218 1.260 . S
C221 C219 1.479 . S
C222 C217 1.245 . S
C222 C218 1.477 . S
C222 H239 0.932 . S
C223 U206 2.882 . S
C223 C217 1.428 . S
C223 O226 1.301 . S
C223 O227 1.282 . S
O224 U206 2.441 . S
O224 C210 1.249 . S
O225 U206 2.420 . S
O225 C210 1.202 . S
O226 U206 2.455 . S
O226 C223 1.301 . S
O227 U206 2.449 . S
O227 C223 1.282 . S
H228 C201 0.931 . S
H229 C203 0.929 . S
H230 C204 0.930 . S
H231 C205 0.931 . S
H232 C212 0.932 . S
H233 C213 0.930 . S
H234 C214 0.929 . S
H235 C216 0.930 . S
H236 C218 0.932 . S
H237 C219 0.929 . S
H238 C220 0.928 . S
H239 C222 0.932 . S
C240 C241 1.264 . S
C240 C245 1.479 . S
C240 C250 1.465 . S
C241 C240 1.264 . S
C241 C243 1.339 . S
C241 H268 0.931 . S
C242 C243 1.395 . S
C242 C244 1.320 . S
C243 C241 1.339 . S
C243 C242 1.395 . S
C243 H269 0.929 . S
C244 C242 1.320 . S
C244 C245 1.405 . S
C244 H270 0.930 . S
C245 C240 1.479 . S
C245 C244 1.405 . S
C245 H271 0.931 . S
U246 O247 2.454 . S
U246 O248 2.458 . S
U246 C249 2.984 . S
U246 C250 2.847 . S
U246 C263 2.882 . S
U246 O264 2.441 . S
U246 O265 2.420 . S
U246 O266 2.455 . S
U246 O267 2.449 . S
O247 U246 2.454 . S
O247 C249 1.353 . S
O248 U246 2.458 . S
O248 C249 1.286 . S
C249 U246 2.984 . S
C249 O247 1.353 . S
C249 O248 1.286 . S
C249 C251 1.363 . S
C250 C240 1.465 . S
C250 U246 2.847 . S
C250 O264 1.249 . S
C250 O265 1.202 . S
C251 C249 1.363 . S
C251 C253 1.408 . S
C251 C256 1.342 . S
C252 C253 1.310 . S
C252 C255 1.461 . S
C252 H272 0.932 . S
C253 C251 1.408 . S
C253 C252 1.310 . S
C253 H273 0.930 . S
C254 C255 1.474 . S
C254 C256 1.285 . S
C254 H274 0.929 . S
C255 C252 1.461 . S
C255 C254 1.474 . S
C256 C251 1.342 . S
C256 C254 1.285 . S
C256 H275 0.930 . S
C257 C260 1.424 . S
C257 C262 1.245 . S
C257 C263 1.428 . S
C258 C261 1.260 . S
C258 C262 1.477 . S
C258 H276 0.932 . S
C259 C260 1.384 . S
C259 C261 1.479 . S
C259 H277 0.929 . S
C260 C257 1.424 . S
C260 C259 1.384 . S
C260 H278 0.928 . S
C261 C258 1.260 . S
C261 C259 1.479 . S
C262 C257 1.245 . S
C262 C258 1.477 . S
C262 H279 0.932 . S
C263 U246 2.882 . S
C263 C257 1.428 . S
C263 O266 1.301 . S
C263 O267 1.282 . S
O264 U246 2.441 . S
O264 C250 1.249 . S
O265 U246 2.420 . S
O265 C250 1.202 . S
O266 U246 2.455 . S
O266 C263 1.301 . S
O267 U246 2.449 . S
O267 C263 1.282 . S
H268 C241 0.931 . S
H269 C243 0.929 . S
H270 C244 0.930 . S
H271 C245 0.931 . S
H272 C252 0.932 . S
H273 C253 0.930 . S
H274 C254 0.929 . S
H275 C256 0.930 . S
H276 C258 0.932 . S
H277 C259 0.929 . S
H278 C260 0.928 . S
H279 C262 0.932 . S
C280 C281 1.264 . S
C280 C285 1.479 . S
C280 C290 1.465 . S
C281 C280 1.264 . S
C281 C283 1.339 . S
C281 H308 0.931 . S
C282 C283 1.395 . S
C282 C284 1.320 . S
C283 C281 1.339 . S
C283 C282 1.395 . S
C283 H309 0.929 . S
C284 C282 1.320 . S
C284 C285 1.405 . S
C284 H310 0.930 . S
C285 C280 1.479 . S
C285 C284 1.405 . S
C285 H311 0.931 . S
U286 O287 2.454 . S
U286 O288 2.458 . S
U286 C289 2.984 . S
U286 C290 2.847 . S
U286 C303 2.882 . S
U286 O304 2.441 . S
U286 O305 2.420 . S
U286 O306 2.455 . S
U286 O307 2.449 . S
O287 U286 2.454 . S
O287 C289 1.353 . S
O288 U286 2.458 . S
O288 C289 1.286 . S
C289 U286 2.984 . S
C289 O287 1.353 . S
C289 O288 1.286 . S
C289 C291 1.363 . S
C290 C280 1.465 . S
C290 U286 2.847 . S
C290 O304 1.249 . S
C290 O305 1.202 . S
C291 C289 1.363 . S
C291 C293 1.408 . S
C291 C296 1.342 . S
C292 C293 1.310 . S
C292 C295 1.461 . S
C292 H312 0.932 . S
C293 C291 1.408 . S
C293 C292 1.310 . S
C293 H313 0.930 . S
C294 C295 1.474 . S
C294 C296 1.285 . S
C294 H314 0.929 . S
C295 C292 1.461 . S
C295 C294 1.474 . S
C296 C291 1.342 . S
C296 C294 1.285 . S
C296 H315 0.930 . S
C297 C300 1.424 . S
C297 C302 1.245 . S
C297 C303 1.428 . S
C298 C301 1.260 . S
C298 C302 1.477 . S
C298 H316 0.932 . S
C299 C300 1.384 . S
C299 C301 1.479 . S
C299 H317 0.929 . S
C300 C297 1.424 . S
C300 C299 1.384 . S
C300 H318 0.928 . S
C301 C298 1.260 . S
C301 C299 1.479 . S
C302 C297 1.245 . S
C302 C298 1.477 . S
C302 H319 0.932 . S
C303 U286 2.882 . S
C303 C297 1.428 . S
C303 O306 1.301 . S
C303 O307 1.282 . S
O304 U286 2.441 . S
O304 C290 1.249 . S
O305 U286 2.420 . S
O305 C290 1.202 . S
O306 U286 2.455 . S
O306 C303 1.301 . S
O307 U286 2.449 . S
O307 C303 1.282 . S
H308 C281 0.931 . S
H309 C283 0.929 . S
H310 C284 0.930 . S
H311 C285 0.931 . S
H312 C292 0.932 . S
H313 C293 0.930 . S
H314 C294 0.929 . S
H315 C296 0.930 . S
H316 C298 0.932 . S
H317 C299 0.929 . S
H318 C300 0.928 . S
H319 C302 0.932 . S
C320 O322 1.247 . S
C320 O324 1.258 . S
C321 O328 1.247 . S
C321 O329 1.258 . S
O322 C320 1.247 . S
O322 Zn323 2.028 1_655 S
Zn323 O322 2.028 1_455 S
Zn323 O327 2.035 . S
Zn323 O329 2.035 . S
Zn323 O330 2.028 1_455 S
O324 C320 1.258 . S
O324 Zn325 2.035 1_655 S
Zn325 O324 2.035 1_455 S
Zn325 O326 2.028 . S
Zn325 O328 2.028 . S
Zn325 O331 2.035 1_455 S
O326 Zn325 2.028 . S
O326 C332 1.247 . S
O327 Zn323 2.035 . S
O327 C332 1.258 . S
O328 C321 1.247 . S
O328 Zn325 2.028 . S
O329 C321 1.258 . S
O329 Zn323 2.035 . S
O330 Zn323 2.028 1_655 S
O330 C333 1.247 . S
O331 Zn325 2.035 1_655 S
O331 C333 1.258 . S
C332 O326 1.247 . S
C332 O327 1.258 . S
C333 O330 1.247 . S
C333 O331 1.258 . S
C334 O336 1.247 . S
C334 O338 1.258 . S
C335 O342 1.247 . S
C335 O343 1.258 . S
O336 C334 1.247 . S
O336 Zn337 2.028 1_655 S
Zn337 O336 2.028 1_455 S
Zn337 O341 2.035 . S
Zn337 O343 2.035 . S
Zn337 O344 2.028 1_455 S
O338 C334 1.258 . S
O338 Zn339 2.035 1_655 S
Zn339 O338 2.035 1_455 S
Zn339 O340 2.028 . S
Zn339 O342 2.028 . S
Zn339 O345 2.035 1_455 S
O340 Zn339 2.028 . S
O340 C346 1.247 . S
O341 Zn337 2.035 . S
O341 C346 1.258 . S
O342 C335 1.247 . S
O342 Zn339 2.028 . S
O343 C335 1.258 . S
O343 Zn337 2.035 . S
O344 Zn337 2.028 1_655 S
O344 C347 1.247 . S
O345 Zn339 2.035 1_655 S
O345 C347 1.258 . S
C346 O340 1.247 . S
C346 O341 1.258 . S
C347 O344 1.247 . S
C347 O345 1.258 . S
C348 O350 1.247 . S
C348 O352 1.258 . S
C349 O356 1.247 . S
C349 O357 1.258 . S
O350 C348 1.247 . S
O350 Zn351 2.028 1_565 S
Zn351 O350 2.028 1_545 S
Zn351 O355 2.035 . S
Zn351 O357 2.035 . S
Zn351 O358 2.028 1_545 S
O352 C348 1.258 . S
O352 Zn353 2.035 1_565 S
Zn353 O352 2.035 1_545 S
Zn353 O354 2.028 . S
Zn353 O356 2.028 . S
Zn353 O359 2.035 1_545 S
O354 Zn353 2.028 . S
O354 C360 1.247 . S
O355 Zn351 2.035 . S
O355 C360 1.258 . S
O356 C349 1.247 . S
O356 Zn353 2.028 . S
O357 C349 1.258 . S
O357 Zn351 2.035 . S
O358 Zn351 2.028 1_565 S
O358 C361 1.247 . S
O359 Zn353 2.035 1_565 S
O359 C361 1.258 . S
C360 O354 1.247 . S
C360 O355 1.258 . S
C361 O358 1.247 . S
C361 O359 1.258 . S
C362 O364 1.247 . S
C362 O366 1.258 . S
C363 O370 1.247 . S
C363 O371 1.258 . S
O364 C362 1.247 . S
O364 Zn365 2.028 . S
Zn365 O364 2.028 . S
Zn365 O369 2.035 . S
Zn365 O371 2.035 1_554 S
Zn365 O372 2.028 1_554 S
O366 C362 1.258 . S
O366 Zn367 2.035 . S
Zn367 O366 2.035 . S
Zn367 O368 2.028 . S
Zn367 O370 2.028 1_554 S
Zn367 O373 2.035 1_554 S
O368 Zn367 2.028 . S
O368 C374 1.247 . S
O369 Zn365 2.035 . S
O369 C374 1.258 . S
O370 C363 1.247 . S
O370 Zn367 2.028 1_556 S
O371 C363 1.258 . S
O371 Zn365 2.035 1_556 S
O372 Zn365 2.028 1_556 S
O372 C375 1.247 . S
O373 Zn367 2.035 1_556 S
O373 C375 1.258 . S
C374 O368 1.247 . S
C374 O369 1.258 . S
C375 O372 1.247 . S
C375 O373 1.258 . S
C376 O378 1.247 . S
C376 O380 1.258 . S
C377 O384 1.247 . S
C377 O385 1.258 . S
O378 C376 1.247 . S
O378 Zn379 2.025 . S
Zn379 O378 2.025 . S
Zn379 O383 2.038 1_565 S
Zn379 O385 2.038 1_565 S
Zn379 O386 2.025 . S
O380 C376 1.258 . S
O380 Zn381 2.009 1_565 S
Zn381 O380 2.009 1_545 S
Zn381 O382 2.054 . S
Zn381 O384 2.054 . S
Zn381 O387 2.009 1_545 S
O382 Zn381 2.054 . S
O382 C388 1.247 . S
O383 Zn379 2.038 1_545 S
O383 C388 1.258 . S
O384 C377 1.247 . S
O384 Zn381 2.054 . S
O385 C377 1.258 . S
O385 Zn379 2.038 1_545 S
O386 Zn379 2.025 . S
O386 C389 1.247 . S
O387 Zn381 2.009 1_565 S
O387 C389 1.258 . S
C388 O382 1.247 . S
C388 O383 1.258 . S
C389 O386 1.247 . S
C389 O387 1.258 . S
C390 O392 1.247 . S
C390 O394 1.258 . S
C391 O398 1.247 . S
C391 O399 1.258 . S
O392 C390 1.247 . S
O392 Zn393 2.028 . S
Zn393 O392 2.028 . S
Zn393 O397 2.035 . S
Zn393 O399 2.035 1_554 S
Zn393 O400 2.028 1_554 S
O394 C390 1.258 . S
O394 Zn395 2.055 . S
Zn395 O394 2.055 . S
Zn395 O396 2.048 . S
Zn395 O398 2.008 1_554 S
Zn395 O401 2.015 1_554 S
O396 Zn395 2.048 . S
O396 C402 1.247 . S
O397 Zn393 2.035 . S
O397 C402 1.258 . S
O398 C391 1.247 . S
O398 Zn395 2.008 1_556 S
O399 C391 1.258 . S
O399 Zn393 2.035 1_556 S
O400 Zn393 2.028 1_556 S
O400 C403 1.247 . S
O401 Zn395 2.015 1_556 S
O401 C403 1.258 . S
C402 O396 1.247 . S
C402 O397 1.258 . S
C403 O400 1.247 . S
C403 O401 1.258 . S
H404 C416 0.930 . S
H405 C418 0.930 . S
H406 C419 0.930 . S
H407 C423 0.959 . S
H408 C423 0.959 . S
H409 C423 0.961 . S
H410 C424 0.960 . S
H411 C424 0.961 . S
H412 C424 0.959 . S
H413 C427 0.929 . S
H414 C428 0.931 . S
H415 C430 0.930 . S
C416 H404 0.930 . S
C416 C417 1.399 . S
C416 C421 1.399 . S
C417 C416 1.399 . S
C417 C418 1.376 . S
C418 H405 0.930 . S
C418 C417 1.376 . S
C418 C419 1.388 . S
C419 H406 0.930 . S
C419 C418 1.388 . S
C419 C420 1.390 . S
C420 C419 1.390 . S
C420 C421 1.394 . S
C420 C426 1.465 . S
C421 C416 1.399 . S
C421 C420 1.394 . S
C421 C422 1.516 . S
C422 C421 1.516 . S
C422 C423 1.502 . S
C422 C424 1.561 . S
C422 C425 1.526 . S
C423 H407 0.959 . S
C423 H408 0.959 . S
C423 H409 0.961 . S
C423 C422 1.502 . S
C424 H410 0.960 . S
C424 H411 0.961 . S
C424 H412 0.959 . S
C424 C422 1.561 . S
C425 C422 1.526 . S
C425 C426 1.396 . S
C425 C430 1.390 . S
C426 C420 1.465 . S
C426 C425 1.396 . S
C426 C427 1.399 . S
C427 H413 0.929 . S
C427 C426 1.399 . S
C427 C428 1.385 . S
C428 H414 0.931 . S
C428 C427 1.385 . S
C428 C429 1.389 . S
C429 C428 1.389 . S
C429 C430 1.387 . S
C430 H415 0.930 . S
C430 C425 1.390 . S
C430 C429 1.387 . S
H431 C443 0.930 . S
H432 C445 0.930 . S
H433 C446 0.930 . S
H434 C450 0.959 . S
H435 C450 0.959 . S
H436 C450 0.961 . S
H437 C451 0.960 . S
H438 C451 0.961 . S
H439 C451 0.959 . S
H440 C454 0.929 . S
H441 C455 0.931 . S
H442 C457 0.930 . S
C443 H431 0.930 . S
C443 C444 1.399 . S
C443 C448 1.399 . S
C444 C443 1.399 . S
C444 C445 1.376 . S
C445 H432 0.930 . S
C445 C444 1.376 . S
C445 C446 1.388 . S
C446 H433 0.930 . S
C446 C445 1.388 . S
C446 C447 1.390 . S
C447 C446 1.390 . S
C447 C448 1.394 . S
C447 C453 1.465 . S
C448 C443 1.399 . S
C448 C447 1.394 . S
C448 C449 1.516 . S
C449 C448 1.516 . S
C449 C450 1.502 . S
C449 C451 1.561 . S
C449 C452 1.526 . S
C450 H434 0.959 . S
C450 H435 0.959 . S
C450 H436 0.961 . S
C450 C449 1.502 . S
C451 H437 0.960 . S
C451 H438 0.961 . S
C451 H439 0.959 . S
C451 C449 1.561 . S
C452 C449 1.526 . S
C452 C453 1.396 . S
C452 C457 1.390 . S
C453 C447 1.465 . S
C453 C452 1.396 . S
C453 C454 1.399 . S
C454 H440 0.929 . S
C454 C453 1.399 . S
C454 C455 1.385 . S
C455 H441 0.931 . S
C455 C454 1.385 . S
C455 C456 1.389 . S
C456 C455 1.389 . S
C456 C457 1.387 . S
C457 H442 0.930 . S
C457 C452 1.390 . S
C457 C456 1.387 . S
H458 C470 0.930 . S
H459 C472 0.930 . S
H460 C473 0.930 . S
H461 C477 0.959 . S
H462 C477 0.959 . S
H463 C477 0.961 . S
H464 C478 0.960 . S
H465 C478 0.961 . S
H466 C478 0.959 . S
H467 C481 0.929 . S
H468 C482 0.931 . S
H469 C484 0.930 . S
C470 H458 0.930 . S
C470 C471 1.399 . S
C470 C475 1.399 . S
C471 C470 1.399 . S
C471 C472 1.376 . S
C472 H459 0.930 . S
C472 C471 1.376 . S
C472 C473 1.388 . S
C473 H460 0.930 . S
C473 C472 1.388 . S
C473 C474 1.390 . S
C474 C473 1.390 . S
C474 C475 1.394 . S
C474 C480 1.465 . S
C475 C470 1.399 . S
C475 C474 1.394 . S
C475 C476 1.516 . S
C476 C475 1.516 . S
C476 C477 1.502 . S
C476 C478 1.561 . S
C476 C479 1.526 . S
C477 H461 0.959 . S
C477 H462 0.959 . S
C477 H463 0.961 . S
C477 C476 1.502 . S
C478 H464 0.960 . S
C478 H465 0.961 . S
C478 H466 0.959 . S
C478 C476 1.561 . S
C479 C476 1.526 . S
C479 C480 1.396 . S
C479 C484 1.390 . S
C480 C474 1.465 . S
C480 C479 1.396 . S
C480 C481 1.399 . S
C481 H467 0.929 . S
C481 C480 1.399 . S
C481 C482 1.385 . S
C482 H468 0.931 . S
C482 C481 1.385 . S
C482 C483 1.389 . S
C483 C482 1.389 . S
C483 C484 1.387 . S
C484 H469 0.930 . S
C484 C479 1.390 . S
C484 C483 1.387 . S
H485 C497 0.930 . S
H486 C499 0.930 . S
H487 C500 0.930 . S
H488 C504 0.959 . S
H489 C504 0.959 . S
H490 C504 0.961 . S
H491 C505 0.960 . S
H492 C505 0.961 . S
H493 C505 0.959 . S
H494 C508 0.929 . S
H495 C509 0.931 . S
H496 C511 0.930 . S
C497 H485 0.930 . S
C497 C498 1.399 . S
C497 C502 1.399 . S
C498 C497 1.399 . S
C498 C499 1.376 . S
C499 H486 0.930 . S
C499 C498 1.376 . S
C499 C500 1.388 . S
C500 H487 0.930 . S
C500 C499 1.388 . S
C500 C501 1.390 . S
C501 C500 1.390 . S
C501 C502 1.394 . S
C501 C507 1.465 . S
C502 C497 1.399 . S
C502 C501 1.394 . S
C502 C503 1.516 . S
C503 C502 1.516 . S
C503 C504 1.502 . S
C503 C505 1.561 . S
C503 C506 1.526 . S
C504 H488 0.959 . S
C504 H489 0.959 . S
C504 H490 0.961 . S
C504 C503 1.502 . S
C505 H491 0.960 . S
C505 H492 0.961 . S
C505 H493 0.959 . S
C505 C503 1.561 . S
C506 C503 1.526 . S
C506 C507 1.396 . S
C506 C511 1.390 . S
C507 C501 1.465 . S
C507 C506 1.396 . S
C507 C508 1.399 . S
C508 H494 0.929 . S
C508 C507 1.399 . S
C508 C509 1.385 . S
C509 H495 0.931 . S
C509 C508 1.385 . S
C509 C510 1.389 . S
C510 C509 1.389 . S
C510 C511 1.387 . S
C511 H496 0.930 . S
C511 C506 1.390 . S
C511 C510 1.387 . S
H512 C524 0.930 . S
H513 C526 0.930 . S
H514 C527 0.930 . S
H515 C531 0.959 . S
H516 C531 0.959 . S
H517 C531 0.961 . S
H518 C532 0.960 . S
H519 C532 0.961 . S
H520 C532 0.959 . S
H521 C535 0.929 . S
H522 C536 0.931 . S
H523 C538 0.930 . S
C524 H512 0.930 . S
C524 C525 1.399 . S
C524 C529 1.399 . S
C525 C524 1.399 . S
C525 C526 1.376 . S
C526 H513 0.930 . S
C526 C525 1.376 . S
C526 C527 1.388 . S
C527 H514 0.930 . S
C527 C526 1.388 . S
C527 C528 1.390 . S
C528 C527 1.390 . S
C528 C529 1.394 . S
C528 C534 1.465 . S
C529 C524 1.399 . S
C529 C528 1.394 . S
C529 C530 1.516 . S
C530 C529 1.516 . S
C530 C531 1.502 . S
C530 C532 1.561 . S
C530 C533 1.526 . S
C531 H515 0.959 . S
C531 H516 0.959 . S
C531 H517 0.961 . S
C531 C530 1.502 . S
C532 H518 0.960 . S
C532 H519 0.961 . S
C532 H520 0.959 . S
C532 C530 1.561 . S
C533 C530 1.526 . S
C533 C534 1.396 . S
C533 C538 1.390 . S
C534 C528 1.465 . S
C534 C533 1.396 . S
C534 C535 1.399 . S
C535 H521 0.929 . S
C535 C534 1.399 . S
C535 C536 1.385 . S
C536 H522 0.931 . S
C536 C535 1.385 . S
C536 C537 1.389 . S
C537 C536 1.389 . S
C537 C538 1.387 . S
C538 H523 0.930 . S
C538 C533 1.390 . S
C538 C537 1.387 . S
H539 C551 0.930 . S
H540 C553 0.930 . S
H541 C554 0.930 . S
H542 C558 0.959 . S
H543 C558 0.959 . S
H544 C558 0.961 . S
H545 C559 0.960 . S
H546 C559 0.961 . S
H547 C559 0.959 . S
H548 C562 0.929 . S
H549 C563 0.931 . S
H550 C565 0.930 . S
C551 H539 0.930 . S
C551 C552 1.399 . S
C551 C556 1.399 . S
C552 C551 1.399 . S
C552 C553 1.376 . S
C553 H540 0.930 . S
C553 C552 1.376 . S
C553 C554 1.388 . S
C554 H541 0.930 . S
C554 C553 1.388 . S
C554 C555 1.390 . S
C555 C554 1.390 . S
C555 C556 1.394 . S
C555 C561 1.465 . S
C556 C551 1.399 . S
C556 C555 1.394 . S
C556 C557 1.516 . S
C557 C556 1.516 . S
C557 C558 1.502 . S
C557 C559 1.561 . S
C557 C560 1.526 . S
C558 H542 0.959 . S
C558 H543 0.959 . S
C558 H544 0.961 . S
C558 C557 1.502 . S
C559 H545 0.960 . S
C559 H546 0.961 . S
C559 H547 0.959 . S
C559 C557 1.561 . S
C560 C557 1.526 . S
C560 C561 1.396 . S
C560 C565 1.390 . S
C561 C555 1.465 . S
C561 C560 1.396 . S
C561 C562 1.399 . S
C562 H548 0.929 . S
C562 C561 1.399 . S
C562 C563 1.385 . S
C563 H549 0.931 . S
C563 C562 1.385 . S
C563 C564 1.389 . S
C564 C563 1.389 . S
C564 C565 1.387 . S
C565 H550 0.930 . S
C565 C560 1.390 . S
C565 C564 1.387 . S
H566 C578 0.930 . S
H567 C580 0.930 . S
H568 C581 0.930 . S
H569 C585 0.959 . S
H570 C585 0.959 . S
H571 C585 0.961 . S
H572 C586 0.960 . S
H573 C586 0.961 . S
H574 C586 0.959 . S
H575 C589 0.929 . S
H576 C590 0.931 . S
H577 C592 0.930 . S
C578 H566 0.930 . S
C578 C579 1.399 . S
C578 C583 1.399 . S
C579 C578 1.399 . S
C579 C580 1.376 . S
C580 H567 0.930 . S
C580 C579 1.376 . S
C580 C581 1.388 . S
C581 H568 0.930 . S
C581 C580 1.388 . S
C581 C582 1.390 . S
C582 C581 1.390 . S
C582 C583 1.394 . S
C582 C588 1.465 . S
C583 C578 1.399 . S
C583 C582 1.394 . S
C583 C584 1.516 . S
C584 C583 1.516 . S
C584 C585 1.502 . S
C584 C586 1.561 . S
C584 C587 1.526 . S
C585 H569 0.959 . S
C585 H570 0.959 . S
C585 H571 0.961 . S
C585 C584 1.502 . S
C586 H572 0.960 . S
C586 H573 0.961 . S
C586 H574 0.959 . S
C586 C584 1.561 . S
C587 C584 1.526 . S
C587 C588 1.396 . S
C587 C592 1.390 . S
C588 C582 1.465 . S
C588 C587 1.396 . S
C588 C589 1.399 . S
C589 H575 0.929 . S
C589 C588 1.399 . S
C589 C590 1.385 . S
C590 H576 0.931 . S
C590 C589 1.385 . S
C590 C591 1.389 . S
C591 C590 1.389 . S
C591 C592 1.387 . S
C592 H577 0.930 . S
C592 C587 1.390 . S
C592 C591 1.387 . S
H593 C605 0.930 . S
H594 C607 0.930 . S
H595 C608 0.930 . S
H596 C612 0.959 . S
H597 C612 0.959 . S
H598 C612 0.961 . S
H599 C613 0.960 . S
H600 C613 0.961 . S
H601 C613 0.959 . S
H602 C616 0.929 . S
H603 C617 0.931 . S
H604 C619 0.930 . S
C605 H593 0.930 . S
C605 C606 1.399 . S
C605 C610 1.399 . S
C606 C605 1.399 . S
C606 C607 1.376 . S
C607 H594 0.930 . S
C607 C606 1.376 . S
C607 C608 1.388 . S
C608 H595 0.930 . S
C608 C607 1.388 . S
C608 C609 1.390 . S
C609 C608 1.390 . S
C609 C610 1.394 . S
C609 C615 1.465 . S
C610 C605 1.399 . S
C610 C609 1.394 . S
C610 C611 1.516 . S
C611 C610 1.516 . S
C611 C612 1.502 . S
C611 C613 1.561 . S
C611 C614 1.526 . S
C612 H596 0.959 . S
C612 H597 0.959 . S
C612 H598 0.961 . S
C612 C611 1.502 . S
C613 H599 0.960 . S
C613 H600 0.961 . S
C613 H601 0.959 . S
C613 C611 1.561 . S
C614 C611 1.526 . S
C614 C615 1.396 . S
C614 C619 1.390 . S
C615 C609 1.465 . S
C615 C614 1.396 . S
C615 C616 1.399 . S
C616 H602 0.929 . S
C616 C615 1.399 . S
C616 C617 1.385 . S
C617 H603 0.931 . S
C617 C616 1.385 . S
C617 C618 1.389 . S
C618 C617 1.389 . S
C618 C619 1.387 . S
C619 H604 0.930 . S
C619 C614 1.390 . S
C619 C618 1.387 . S
H620 C632 0.930 . S
H621 C634 0.930 . S
H622 C635 0.930 . S
H623 C639 0.959 . S
H624 C639 0.959 . S
H625 C639 0.961 . S
H626 C640 0.960 . S
H627 C640 0.961 . S
H628 C640 0.959 . S
H629 C643 0.929 . S
H630 C644 0.931 . S
H631 C646 0.930 . S
C632 H620 0.930 . S
C632 C633 1.399 . S
C632 C637 1.399 . S
C633 C632 1.399 . S
C633 C634 1.376 . S
C634 H621 0.930 . S
C634 C633 1.376 . S
C634 C635 1.388 . S
C635 H622 0.930 . S
C635 C634 1.388 . S
C635 C636 1.390 . S
C636 C635 1.390 . S
C636 C637 1.394 . S
C636 C642 1.465 . S
C637 C632 1.399 . S
C637 C636 1.394 . S
C637 C638 1.516 . S
C638 C637 1.516 . S
C638 C639 1.502 . S
C638 C640 1.561 . S
C638 C641 1.526 . S
C639 H623 0.959 . S
C639 H624 0.959 . S
C639 H625 0.961 . S
C639 C638 1.502 . S
C640 H626 0.960 . S
C640 H627 0.961 . S
C640 H628 0.959 . S
C640 C638 1.561 . S
C641 C638 1.526 . S
C641 C642 1.396 . S
C641 C646 1.390 . S
C642 C636 1.465 . S
C642 C641 1.396 . S
C642 C643 1.399 . S
C643 H629 0.929 . S
C643 C642 1.399 . S
C643 C644 1.385 . S
C644 H630 0.931 . S
C644 C643 1.385 . S
C644 C645 1.389 . S
C645 C644 1.389 . S
C645 C646 1.387 . S
C646 H631 0.930 . S
C646 C641 1.390 . S
C646 C645 1.387 . S
H647 C659 0.930 . S
H648 C661 0.930 . S
H649 C662 0.930 . S
H650 C666 0.959 . S
H651 C666 0.959 . S
H652 C666 0.961 . S
H653 C667 0.960 . S
H654 C667 0.961 . S
H655 C667 0.959 . S
H656 C670 0.929 . S
H657 C671 0.931 . S
H658 C673 0.930 . S
C659 H647 0.930 . S
C659 C660 1.399 . S
C659 C664 1.399 . S
C660 C659 1.399 . S
C660 C661 1.376 . S
C661 H648 0.930 . S
C661 C660 1.376 . S
C661 C662 1.388 . S
C662 H649 0.930 . S
C662 C661 1.388 . S
C662 C663 1.390 . S
C663 C662 1.390 . S
C663 C664 1.394 . S
C663 C669 1.465 . S
C664 C659 1.399 . S
C664 C663 1.394 . S
C664 C665 1.516 . S
C665 C664 1.516 . S
C665 C666 1.502 . S
C665 C667 1.561 . S
C665 C668 1.526 . S
C666 H650 0.959 . S
C666 H651 0.959 . S
C666 H652 0.961 . S
C666 C665 1.502 . S
C667 H653 0.960 . S
C667 H654 0.961 . S
C667 H655 0.959 . S
C667 C665 1.561 . S
C668 C665 1.526 . S
C668 C669 1.396 . S
C668 C673 1.390 . S
C669 C663 1.465 . S
C669 C668 1.396 . S
C669 C670 1.399 . S
C670 H656 0.929 . S
C670 C669 1.399 . S
C670 C671 1.385 . S
C671 H657 0.931 . S
C671 C670 1.385 . S
C671 C672 1.389 . S
C672 C671 1.389 . S
C672 C673 1.387 . S
C673 H658 0.930 . S
C673 C668 1.390 . S
C673 C672 1.387 . S
H674 C686 0.930 . S
H675 C688 0.930 . S
H676 C689 0.930 . S
H677 C693 0.959 . S
H678 C693 0.959 . S
H679 C693 0.961 . S
H680 C694 0.960 . S
H681 C694 0.961 . S
H682 C694 0.959 . S
H683 C697 0.929 . S
H684 C698 0.931 . S
H685 C700 0.930 . S
C686 H674 0.930 . S
C686 C687 1.399 . S
C686 C691 1.399 . S
C687 C686 1.399 . S
C687 C688 1.376 . S
C688 H675 0.930 . S
C688 C687 1.376 . S
C688 C689 1.388 . S
C689 H676 0.930 . S
C689 C688 1.388 . S
C689 C690 1.390 . S
C690 C689 1.390 . S
C690 C691 1.394 . S
C690 C696 1.465 . S
C691 C686 1.399 . S
C691 C690 1.394 . S
C691 C692 1.516 . S
C692 C691 1.516 . S
C692 C693 1.502 . S
C692 C694 1.561 . S
C692 C695 1.526 . S
C693 H677 0.959 . S
C693 H678 0.959 . S
C693 H679 0.961 . S
C693 C692 1.502 . S
C694 H680 0.960 . S
C694 H681 0.961 . S
C694 H682 0.959 . S
C694 C692 1.561 . S
C695 C692 1.526 . S
C695 C696 1.396 . S
C695 C700 1.390 . S
C696 C690 1.465 . S
C696 C695 1.396 . S
C696 C697 1.399 . S
C697 H683 0.929 . S
C697 C696 1.399 . S
C697 C698 1.385 . S
C698 H684 0.931 . S
C698 C697 1.385 . S
C698 C699 1.389 . S
C699 C698 1.389 . S
C699 C700 1.387 . S
C700 H685 0.930 . S
C700 C695 1.390 . S
C700 C699 1.387 . S
H701 C713 0.930 . S
H702 C715 0.930 . S
H703 C716 0.930 . S
H704 C720 0.959 . S
H705 C720 0.959 . S
H706 C720 0.961 . S
H707 C721 0.960 . S
H708 C721 0.961 . S
H709 C721 0.959 . S
H710 C724 0.929 . S
H711 C725 0.931 . S
H712 C727 0.930 . S
C713 H701 0.930 . S
C713 C714 1.399 . S
C713 C718 1.399 . S
C714 C713 1.399 . S
C714 C715 1.376 . S
C715 H702 0.930 . S
C715 C714 1.376 . S
C715 C716 1.388 . S
C716 H703 0.930 . S
C716 C715 1.388 . S
C716 C717 1.390 . S
C717 C716 1.390 . S
C717 C718 1.394 . S
C717 C723 1.465 . S
C718 C713 1.399 . S
C718 C717 1.394 . S
C718 C719 1.516 . S
C719 C718 1.516 . S
C719 C720 1.502 . S
C719 C721 1.561 . S
C719 C722 1.526 . S
C720 H704 0.959 . S
C720 H705 0.959 . S
C720 H706 0.961 . S
C720 C719 1.502 . S
C721 H707 0.960 . S
C721 H708 0.961 . S
C721 H709 0.959 . S
C721 C719 1.561 . S
C722 C719 1.526 . S
C722 C723 1.396 . S
C722 C727 1.390 . S
C723 C717 1.465 . S
C723 C722 1.396 . S
C723 C724 1.399 . S
C724 H710 0.929 . S
C724 C723 1.399 . S
C724 C725 1.385 . S
C725 H711 0.931 . S
C725 C724 1.385 . S
C725 C726 1.389 . S
C726 C725 1.389 . S
C726 C727 1.387 . S
C727 H712 0.930 . S
C727 C722 1.390 . S
C727 C726 1.387 . S
H728 C740 0.930 . S
H729 C742 0.930 . S
H730 C743 0.930 . S
H731 C747 0.959 . S
H732 C747 0.959 . S
H733 C747 0.961 . S
H734 C748 0.960 . S
H735 C748 0.961 . S
H736 C748 0.959 . S
H737 C751 0.929 . S
H738 C752 0.931 . S
H739 C754 0.930 . S
C740 H728 0.930 . S
C740 C741 1.399 . S
C740 C745 1.399 . S
C741 C740 1.399 . S
C741 C742 1.376 . S
C742 H729 0.930 . S
C742 C741 1.376 . S
C742 C743 1.388 . S
C743 H730 0.930 . S
C743 C742 1.388 . S
C743 C744 1.390 . S
C744 C743 1.390 . S
C744 C745 1.394 . S
C744 C750 1.465 . S
C745 C740 1.399 . S
C745 C744 1.394 . S
C745 C746 1.516 . S
C746 C745 1.516 . S
C746 C747 1.502 . S
C746 C748 1.561 . S
C746 C749 1.526 . S
C747 H731 0.959 . S
C747 H732 0.959 . S
C747 H733 0.961 . S
C747 C746 1.502 . S
C748 H734 0.960 . S
C748 H735 0.961 . S
C748 H736 0.959 . S
C748 C746 1.561 . S
C749 C746 1.526 . S
C749 C750 1.396 . S
C749 C754 1.390 . S
C750 C744 1.465 . S
C750 C749 1.396 . S
C750 C751 1.399 . S
C751 H737 0.929 . S
C751 C750 1.399 . S
C751 C752 1.385 . S
C752 H738 0.931 . S
C752 C751 1.385 . S
C752 C753 1.389 . S
C753 C752 1.389 . S
C753 C754 1.387 . S
C754 H739 0.930 . S
C754 C749 1.390 . S
C754 C753 1.387 . S
H755 C767 0.930 . S
H756 C769 0.930 . S
H757 C770 0.930 . S
H758 C774 0.959 . S
H759 C774 0.959 . S
H760 C774 0.961 . S
H761 C775 0.960 . S
H762 C775 0.961 . S
H763 C775 0.959 . S
H764 C778 0.929 . S
H765 C779 0.931 . S
H766 C781 0.930 . S
C767 H755 0.930 . S
C767 C768 1.399 . S
C767 C772 1.399 . S
C768 C767 1.399 . S
C768 C769 1.376 . S
C769 H756 0.930 . S
C769 C768 1.376 . S
C769 C770 1.388 . S
C770 H757 0.930 . S
C770 C769 1.388 . S
C770 C771 1.390 . S
C771 C770 1.390 . S
C771 C772 1.394 . S
C771 C777 1.465 . S
C772 C767 1.399 . S
C772 C771 1.394 . S
C772 C773 1.516 . S
C773 C772 1.516 . S
C773 C774 1.502 . S
C773 C775 1.561 . S
C773 C776 1.526 . S
C774 H758 0.959 . S
C774 H759 0.959 . S
C774 H760 0.961 . S
C774 C773 1.502 . S
C775 H761 0.960 . S
C775 H762 0.961 . S
C775 H763 0.959 . S
C775 C773 1.561 . S
C776 C773 1.526 . S
C776 C777 1.396 . S
C776 C781 1.390 . S
C777 C771 1.465 . S
C777 C776 1.396 . S
C777 C778 1.399 . S
C778 H764 0.929 . S
C778 C777 1.399 . S
C778 C779 1.385 . S
C779 H765 0.931 . S
C779 C778 1.385 . S
C779 C780 1.389 . S
C780 C779 1.389 . S
C780 C781 1.387 . S
C781 H766 0.930 . S
C781 C776 1.390 . S
C781 C780 1.387 . S
H782 C794 0.930 . S
H783 C796 0.930 . S
H784 C797 0.930 . S
H785 C801 0.959 . S
H786 C801 0.959 . S
H787 C801 0.961 . S
H788 C802 0.960 . S
H789 C802 0.961 . S
H790 C802 0.959 . S
H791 C805 0.929 . S
H792 C806 0.931 . S
H793 C808 0.930 . S
C794 H782 0.930 . S
C794 C795 1.399 . S
C794 C799 1.399 . S
C795 C794 1.399 . S
C795 C796 1.376 . S
C796 H783 0.930 . S
C796 C795 1.376 . S
C796 C797 1.388 . S
C797 H784 0.930 . S
C797 C796 1.388 . S
C797 C798 1.390 . S
C798 C797 1.390 . S
C798 C799 1.394 . S
C798 C804 1.465 . S
C799 C794 1.399 . S
C799 C798 1.394 . S
C799 C800 1.516 . S
C800 C799 1.516 . S
C800 C801 1.502 . S
C800 C802 1.561 . S
C800 C803 1.526 . S
C801 H785 0.959 . S
C801 H786 0.959 . S
C801 H787 0.961 . S
C801 C800 1.502 . S
C802 H788 0.960 . S
C802 H789 0.961 . S
C802 H790 0.959 . S
C802 C800 1.561 . S
C803 C800 1.526 . S
C803 C804 1.396 . S
C803 C808 1.390 . S
C804 C798 1.465 . S
C804 C803 1.396 . S
C804 C805 1.399 . S
C805 H791 0.929 . S
C805 C804 1.399 . S
C805 C806 1.385 . S
C806 H792 0.931 . S
C806 C805 1.385 . S
C806 C807 1.389 . S
C807 C806 1.389 . S
C807 C808 1.387 . S
C808 H793 0.930 . S
C808 C803 1.390 . S
C808 C807 1.387 . S
H809 C821 0.930 . S
H810 C823 0.930 . S
H811 C824 0.930 . S
H812 C828 0.959 . S
H813 C828 0.959 . S
H814 C828 0.961 . S
H815 C829 0.960 . S
H816 C829 0.961 . S
H817 C829 0.959 . S
H818 C832 0.929 . S
H819 C833 0.931 . S
H820 C835 0.930 . S
C821 H809 0.930 . S
C821 C822 1.399 . S
C821 C826 1.399 . S
C822 C821 1.399 . S
C822 C823 1.376 . S
C823 H810 0.930 . S
C823 C822 1.376 . S
C823 C824 1.388 . S
C824 H811 0.930 . S
C824 C823 1.388 . S
C824 C825 1.390 . S
C825 C824 1.390 . S
C825 C826 1.394 . S
C825 C831 1.465 . S
C826 C821 1.399 . S
C826 C825 1.394 . S
C826 C827 1.516 . S
C827 C826 1.516 . S
C827 C828 1.502 . S
C827 C829 1.561 . S
C827 C830 1.526 . S
C828 H812 0.959 . S
C828 H813 0.959 . S
C828 H814 0.961 . S
C828 C827 1.502 . S
C829 H815 0.960 . S
C829 H816 0.961 . S
C829 H817 0.959 . S
C829 C827 1.561 . S
C830 C827 1.526 . S
C830 C831 1.396 . S
C830 C835 1.390 . S
C831 C825 1.465 . S
C831 C830 1.396 . S
C831 C832 1.399 . S
C832 H818 0.929 . S
C832 C831 1.399 . S
C832 C833 1.385 . S
C833 H819 0.931 . S
C833 C832 1.385 . S
C833 C834 1.389 . S
C834 C833 1.389 . S
C834 C835 1.387 . S
C835 H820 0.930 . S
C835 C830 1.390 . S
C835 C834 1.387 . S
H836 C848 0.930 . S
H837 C850 0.930 . S
H838 C851 0.930 . S
H839 C855 0.959 . S
H840 C855 0.959 . S
H841 C855 0.961 . S
H842 C856 0.960 . S
H843 C856 0.961 . S
H844 C856 0.959 . S
H845 C859 0.929 . S
H846 C860 0.931 . S
H847 C862 0.930 . S
C848 H836 0.930 . S
C848 C849 1.399 . S
C848 C853 1.399 . S
C849 C848 1.399 . S
C849 C850 1.376 . S
C850 H837 0.930 . S
C850 C849 1.376 . S
C850 C851 1.388 . S
C851 H838 0.930 . S
C851 C850 1.388 . S
C851 C852 1.390 . S
C852 C851 1.390 . S
C852 C853 1.394 . S
C852 C858 1.465 . S
C853 C848 1.399 . S
C853 C852 1.394 . S
C853 C854 1.516 . S
C854 C853 1.516 . S
C854 C855 1.502 . S
C854 C856 1.561 . S
C854 C857 1.526 . S
C855 H839 0.959 . S
C855 H840 0.959 . S
C855 H841 0.961 . S
C855 C854 1.502 . S
C856 H842 0.960 . S
C856 H843 0.961 . S
C856 H844 0.959 . S
C856 C854 1.561 . S
C857 C854 1.526 . S
C857 C858 1.396 . S
C857 C862 1.390 . S
C858 C852 1.465 . S
C858 C857 1.396 . S
C858 C859 1.399 . S
C859 H845 0.929 . S
C859 C858 1.399 . S
C859 C860 1.385 . S
C860 H846 0.931 . S
C860 C859 1.385 . S
C860 C861 1.389 . S
C861 C860 1.389 . S
C861 C862 1.387 . S
C862 H847 0.930 . S
C862 C857 1.390 . S
C862 C861 1.387 . S
H863 C875 0.930 . S
H864 C877 0.930 . S
H865 C878 0.930 . S
H866 C882 0.959 . S
H867 C882 0.959 . S
H868 C882 0.961 . S
H869 C883 0.960 . S
H870 C883 0.961 . S
H871 C883 0.959 . S
H872 C886 0.929 . S
H873 C887 0.931 . S
H874 C889 0.930 . S
C875 H863 0.930 . S
C875 C876 1.399 . S
C875 C880 1.399 . S
C876 C875 1.399 . S
C876 C877 1.376 . S
C877 H864 0.930 . S
C877 C876 1.376 . S
C877 C878 1.388 . S
C878 H865 0.930 . S
C878 C877 1.388 . S
C878 C879 1.390 . S
C879 C878 1.390 . S
C879 C880 1.394 . S
C879 C885 1.465 . S
C880 C875 1.399 . S
C880 C879 1.394 . S
C880 C881 1.516 . S
C881 C880 1.516 . S
C881 C882 1.502 . S
C881 C883 1.561 . S
C881 C884 1.526 . S
C882 H866 0.959 . S
C882 H867 0.959 . S
C882 H868 0.961 . S
C882 C881 1.502 . S
C883 H869 0.960 . S
C883 H870 0.961 . S
C883 H871 0.959 . S
C883 C881 1.561 . S
C884 C881 1.526 . S
C884 C885 1.396 . S
C884 C889 1.390 . S
C885 C879 1.465 . S
C885 C884 1.396 . S
C885 C886 1.399 . S
C886 H872 0.929 . S
C886 C885 1.399 . S
C886 C887 1.385 . S
C887 H873 0.931 . S
C887 C886 1.385 . S
C887 C888 1.389 . S
C888 C887 1.389 . S
C888 C889 1.387 . S
C889 H874 0.930 . S
C889 C884 1.390 . S
C889 C888 1.387 . S
H890 C902 0.930 . S
H891 C904 0.930 . S
H892 C905 0.930 . S
H893 C909 0.959 . S
H894 C909 0.959 . S
H895 C909 0.961 . S
H896 C910 0.960 . S
H897 C910 0.961 . S
H898 C910 0.959 . S
H899 C913 0.929 . S
H900 C914 0.931 . S
H901 C916 0.930 . S
C902 H890 0.930 . S
C902 C903 1.399 . S
C902 C907 1.399 . S
C903 C902 1.399 . S
C903 C904 1.376 . S
C904 H891 0.930 . S
C904 C903 1.376 . S
C904 C905 1.388 . S
C905 H892 0.930 . S
C905 C904 1.388 . S
C905 C906 1.390 . S
C906 C905 1.390 . S
C906 C907 1.394 . S
C906 C912 1.465 . S
C907 C902 1.399 . S
C907 C906 1.394 . S
C907 C908 1.516 . S
C908 C907 1.516 . S
C908 C909 1.502 . S
C908 C910 1.561 . S
C908 C911 1.526 . S
C909 H893 0.959 . S
C909 H894 0.959 . S
C909 H895 0.961 . S
C909 C908 1.502 . S
C910 H896 0.960 . S
C910 H897 0.961 . S
C910 H898 0.959 . S
C910 C908 1.561 . S
C911 C908 1.526 . S
C911 C912 1.396 . S
C911 C916 1.390 . S
C912 C906 1.465 . S
C912 C911 1.396 . S
C912 C913 1.399 . S
C913 H899 0.929 . S
C913 C912 1.399 . S
C913 C914 1.385 . S
C914 H900 0.931 . S
C914 C913 1.385 . S
C914 C915 1.389 . S
C915 C914 1.389 . S
C915 C916 1.387 . S
C916 H901 0.930 . S
C916 C911 1.390 . S
C916 C915 1.387 . S
H917 C929 0.930 . S
H918 C931 0.930 . S
H919 C932 0.930 . S
H920 C936 0.959 . S
H921 C936 0.959 . S
H922 C936 0.961 . S
H923 C937 0.960 . S
H924 C937 0.961 . S
H925 C937 0.959 . S
H926 C940 0.929 . S
H927 C941 0.931 . S
H928 C943 0.930 . S
C929 H917 0.930 . S
C929 C930 1.399 . S
C929 C934 1.399 . S
C930 C929 1.399 . S
C930 C931 1.376 . S
C931 H918 0.930 . S
C931 C930 1.376 . S
C931 C932 1.388 . S
C932 H919 0.930 . S
C932 C931 1.388 . S
C932 C933 1.390 . S
C933 C932 1.390 . S
C933 C934 1.394 . S
C933 C939 1.465 . S
C934 C929 1.399 . S
C934 C933 1.394 . S
C934 C935 1.516 . S
C935 C934 1.516 . S
C935 C936 1.502 . S
C935 C937 1.561 . S
C935 C938 1.526 . S
C936 H920 0.959 . S
C936 H921 0.959 . S
C936 H922 0.961 . S
C936 C935 1.502 . S
C937 H923 0.960 . S
C937 H924 0.961 . S
C937 H925 0.959 . S
C937 C935 1.561 . S
C938 C935 1.526 . S
C938 C939 1.396 . S
C938 C943 1.390 . S
C939 C933 1.465 . S
C939 C938 1.396 . S
C939 C940 1.399 . S
C940 H926 0.929 . S
C940 C939 1.399 . S
C940 C941 1.385 . S
C941 H927 0.931 . S
C941 C940 1.385 . S
C941 C942 1.389 . S
C942 C941 1.389 . S
C942 C943 1.387 . S
C943 H928 0.930 . S
C943 C938 1.390 . S
C943 C942 1.387 . S
H944 C956 0.930 . S
H945 C958 0.930 . S
H946 C959 0.930 . S
H947 C963 0.959 . S
H948 C963 0.959 . S
H949 C963 0.961 . S
H950 C964 0.960 . S
H951 C964 0.961 . S
H952 C964 0.959 . S
H953 C967 0.929 . S
H954 C968 0.931 . S
H955 C970 0.930 . S
C956 H944 0.930 . S
C956 C957 1.399 . S
C956 C961 1.399 . S
C957 C956 1.399 . S
C957 C958 1.376 . S
C958 H945 0.930 . S
C958 C957 1.376 . S
C958 C959 1.388 . S
C959 H946 0.930 . S
C959 C958 1.388 . S
C959 C960 1.390 . S
C960 C959 1.390 . S
C960 C961 1.394 . S
C960 C966 1.465 . S
C961 C956 1.399 . S
C961 C960 1.394 . S
C961 C962 1.516 . S
C962 C961 1.516 . S
C962 C963 1.502 . S
C962 C964 1.561 . S
C962 C965 1.526 . S
C963 H947 0.959 . S
C963 H948 0.959 . S
C963 H949 0.961 . S
C963 C962 1.502 . S
C964 H950 0.960 . S
C964 H951 0.961 . S
C964 H952 0.959 . S
C964 C962 1.561 . S
C965 C962 1.526 . S
C965 C966 1.396 . S
C965 C970 1.390 . S
C966 C960 1.465 . S
C966 C965 1.396 . S
C966 C967 1.399 . S
C967 H953 0.929 . S
C967 C966 1.399 . S
C967 C968 1.385 . S
C968 H954 0.931 . S
C968 C967 1.385 . S
C968 C969 1.389 . S
C969 C968 1.389 . S
C969 C970 1.387 . S
C970 H955 0.930 . S
C970 C965 1.390 . S
C970 C969 1.387 . S
H971 C983 0.930 . S
H972 C985 0.930 . S
H973 C986 0.930 . S
H974 C990 0.959 . S
H975 C990 0.959 . S
H976 C990 0.961 . S
H977 C991 0.960 . S
H978 C991 0.961 . S
H979 C991 0.959 . S
H980 C994 0.929 . S
H981 C995 0.931 . S
H982 C997 0.930 . S
C983 H971 0.930 . S
C983 C984 1.399 . S
C983 C988 1.399 . S
C984 C983 1.399 . S
C984 C985 1.376 . S
C985 H972 0.930 . S
C985 C984 1.376 . S
C985 C986 1.388 . S
C986 H973 0.930 . S
C986 C985 1.388 . S
C986 C987 1.390 . S
C987 C986 1.390 . S
C987 C988 1.394 . S
C987 C993 1.465 . S
C988 C983 1.399 . S
C988 C987 1.394 . S
C988 C989 1.516 . S
C989 C988 1.516 . S
C989 C990 1.502 . S
C989 C991 1.561 . S
C989 C992 1.526 . S
C990 H974 0.959 . S
C990 H975 0.959 . S
C990 H976 0.961 . S
C990 C989 1.502 . S
C991 H977 0.960 . S
C991 H978 0.961 . S
C991 H979 0.959 . S
C991 C989 1.561 . S
C992 C989 1.526 . S
C992 C993 1.396 . S
C992 C997 1.390 . S
C993 C987 1.465 . S
C993 C992 1.396 . S
C993 C994 1.399 . S
C994 H980 0.929 . S
C994 C993 1.399 . S
C994 C995 1.385 . S
C995 H981 0.931 . S
C995 C994 1.385 . S
C995 C996 1.389 . S
C996 C995 1.389 . S
C996 C997 1.387 . S
C997 H982 0.930 . S
C997 C992 1.390 . S
C997 C996 1.387 . S
H998 C1010 0.930 . S
H999 C1012 0.930 . S
H1000 C1013 0.930 . S
H1001 C1017 0.959 . S
H1002 C1017 0.959 . S
H1003 C1017 0.961 . S
H1004 C1018 0.960 . S
H1005 C1018 0.961 . S
H1006 C1018 0.959 . S
H1007 C1021 0.929 . S
H1008 C1022 0.931 . S
H1009 C1024 0.930 . S
C1010 H998 0.930 . S
C1010 C1011 1.399 . S
C1010 C1015 1.399 . S
C1011 C1010 1.399 . S
C1011 C1012 1.376 . S
C1012 H999 0.930 . S
C1012 C1011 1.376 . S
C1012 C1013 1.388 . S
C1013 H1000 0.930 . S
C1013 C1012 1.388 . S
C1013 C1014 1.390 . S
C1014 C1013 1.390 . S
C1014 C1015 1.394 . S
C1014 C1020 1.465 . S
C1015 C1010 1.399 . S
C1015 C1014 1.394 . S
C1015 C1016 1.516 . S
C1016 C1015 1.516 . S
C1016 C1017 1.502 . S
C1016 C1018 1.561 . S
C1016 C1019 1.526 . S
C1017 H1001 0.959 . S
C1017 H1002 0.959 . S
C1017 H1003 0.961 . S
C1017 C1016 1.502 . S
C1018 H1004 0.960 . S
C1018 H1005 0.961 . S
C1018 H1006 0.959 . S
C1018 C1016 1.561 . S
C1019 C1016 1.526 . S
C1019 C1020 1.396 . S
C1019 C1024 1.390 . S
C1020 C1014 1.465 . S
C1020 C1019 1.396 . S
C1020 C1021 1.399 . S
C1021 H1007 0.929 . S
C1021 C1020 1.399 . S
C1021 C1022 1.385 . S
C1022 H1008 0.931 . S
C1022 C1021 1.385 . S
C1022 C1023 1.389 . S
C1023 C1022 1.389 . S
C1023 C1024 1.387 . S
C1024 H1009 0.930 . S
C1024 C1019 1.390 . S
C1024 C1023 1.387 . S
H1025 C1037 0.930 . S
H1026 C1039 0.930 . S
H1027 C1040 0.930 . S
H1028 C1044 0.959 . S
H1029 C1044 0.959 . S
H1030 C1044 0.961 . S
H1031 C1045 0.960 . S
H1032 C1045 0.961 . S
H1033 C1045 0.959 . S
H1034 C1048 0.929 . S
H1035 C1049 0.931 . S
H1036 C1051 0.930 . S
C1037 H1025 0.930 . S
C1037 C1038 1.399 . S
C1037 C1042 1.399 . S
C1038 C1037 1.399 . S
C1038 C1039 1.376 . S
C1039 H1026 0.930 . S
C1039 C1038 1.376 . S
C1039 C1040 1.388 . S
C1040 H1027 0.930 . S
C1040 C1039 1.388 . S
C1040 C1041 1.390 . S
C1041 C1040 1.390 . S
C1041 C1042 1.394 . S
C1041 C1047 1.465 . S
C1042 C1037 1.399 . S
C1042 C1041 1.394 . S
C1042 C1043 1.516 . S
C1043 C1042 1.516 . S
C1043 C1044 1.502 . S
C1043 C1045 1.561 . S
C1043 C1046 1.526 . S
C1044 H1028 0.959 . S
C1044 H1029 0.959 . S
C1044 H1030 0.961 . S
C1044 C1043 1.502 . S
C1045 H1031 0.960 . S
C1045 H1032 0.961 . S
C1045 H1033 0.959 . S
C1045 C1043 1.561 . S
C1046 C1043 1.526 . S
C1046 C1047 1.396 . S
C1046 C1051 1.390 . S
C1047 C1041 1.465 . S
C1047 C1046 1.396 . S
C1047 C1048 1.399 . S
C1048 H1034 0.929 . S
C1048 C1047 1.399 . S
C1048 C1049 1.385 . S
C1049 H1035 0.931 . S
C1049 C1048 1.385 . S
C1049 C1050 1.389 . S
C1050 C1049 1.389 . S
C1050 C1051 1.387 . S
C1051 H1036 0.930 . S
C1051 C1046 1.390 . S
C1051 C1050 1.387 . S
C429 C332 1.503 . S
C417 C15 1.513 . S
C456 C335 1.464 . S
C444 C55 1.470 . S
C483 C333 1.539 . S
C471 C101 1.508 . S
C510 C334 1.489 . S
C498 C141 1.478 . S
C537 C349 1.500 . S
C525 C2 1.495 . S
C564 C363 1.502 . S
C552 C61 1.481 . S
C579 C95 1.505 . S
C591 C389 1.511 . S
C618 C403 1.498 . S
C606 C135 1.491 . S
C645 C348 1.478 . S
C633 C42 1.449 . S
C660 C82 1.511 . S
C672 C362 1.520 . S
C699 C388 1.502 . S
C687 C122 1.510 . S
C726 C402 1.526 . S
C714 C21 1.504 . S
C741 C162 1.495 . S
C753 C347 1.488 . S
C780 C320 1.529 . S
C768 C221 1.512 . S
C795 C255 1.473 . S
C807 C346 1.476 . S
C822 C282 1.485 . S
C834 C321 1.517 . S
C861 C376 1.518 . S
C849 C181 1.498 . S
C888 C390 1.509 . S
C876 C202 1.491 . S
C915 C360 1.494 . S
C903 C242 1.462 . S
C930 C301 1.489 . S
C942 C374 1.516 . S
C969 C377 1.509 . S
C957 C215 1.510 . S
C996 C391 1.505 . S
C984 C261 1.478 . S
C1023 C361 1.490 . S
C1011 C295 1.494 . S
C1038 C175 1.492 . S
C1050 C375 1.484 . S
