# Generated by pormake.
# Topology gar, (4,6)-cn, num edge types: 1
# Building blocks:
#     Node 0, Type 0, BuildingBlock: KUFVIS_clean_sbu_0, # of connection points: 4
#     Node 1, Type 0, BuildingBlock: KUFVIS_clean_sbu_0, # of connection points: 4
#     Node 2, Type 0, BuildingBlock: KUFVIS_clean_sbu_0, # of connection points: 4
#     Node 3, Type 0, BuildingBlock: KUFVIS_clean_sbu_0, # of connection points: 4
#     Node 4, Type 0, BuildingBlock: KUFVIS_clean_sbu_0, # of connection points: 4
#     Node 5, Type 0, BuildingBlock: KUFVIS_clean_sbu_0, # of connection points: 4
#     Node 6, Type 0, BuildingBlock: KUFVIS_clean_sbu_0, # of connection points: 4
#     Node 7, Type 0, BuildingBlock: KUFVIS_clean_sbu_0, # of connection points: 4
#     Node 8, Type 0, BuildingBlock: KUFVIS_clean_sbu_0, # of connection points: 4
#     Node 9, Type 0, BuildingBlock: KUFVIS_clean_sbu_0, # of connection points: 4
#     Node 10, Type 0, BuildingBlock: KUFVIS_clean_sbu_0, # of connection points: 4
#     Node 11, Type 0, BuildingBlock: KUFVIS_clean_sbu_0, # of connection points: 4
#     Node 12, Type 0, BuildingBlock: KUFVIS_clean_sbu_0, # of connection points: 4
#     Node 13, Type 0, BuildingBlock: KUFVIS_clean_sbu_0, # of connection points: 4
#     Node 14, Type 0, BuildingBlock: KUFVIS_clean_sbu_0, # of connection points: 4
#     Node 15, Type 0, BuildingBlock: KUFVIS_clean_sbu_0, # of connection points: 4
#     Node 16, Type 0, BuildingBlock: KUFVIS_clean_sbu_0, # of connection points: 4
#     Node 17, Type 0, BuildingBlock: KUFVIS_clean_sbu_0, # of connection points: 4
#     Node 18, Type 0, BuildingBlock: KUFVIS_clean_sbu_0, # of connection points: 4
#     Node 19, Type 0, BuildingBlock: KUFVIS_clean_sbu_0, # of connection points: 4
#     Node 20, Type 0, BuildingBlock: KUFVIS_clean_sbu_0, # of connection points: 4
#     Node 21, Type 0, BuildingBlock: KUFVIS_clean_sbu_0, # of connection points: 4
#     Node 22, Type 0, BuildingBlock: KUFVIS_clean_sbu_0, # of connection points: 4
#     Node 23, Type 0, BuildingBlock: KUFVIS_clean_sbu_0, # of connection points: 4
#     Node 24, Type 1, BuildingBlock: PAMTUU_clean_sbu_0, # of connection points: 6
#     Node 25, Type 1, BuildingBlock: PAMTUU_clean_sbu_0, # of connection points: 6
#     Node 26, Type 1, BuildingBlock: PAMTUU_clean_sbu_0, # of connection points: 6
#     Node 27, Type 1, BuildingBlock: PAMTUU_clean_sbu_0, # of connection points: 6
#     Node 28, Type 1, BuildingBlock: PAMTUU_clean_sbu_0, # of connection points: 6
#     Node 29, Type 1, BuildingBlock: PAMTUU_clean_sbu_0, # of connection points: 6
#     Node 30, Type 1, BuildingBlock: PAMTUU_clean_sbu_0, # of connection points: 6
#     Node 31, Type 1, BuildingBlock: PAMTUU_clean_sbu_0, # of connection points: 6
#     Node 32, Type 1, BuildingBlock: PAMTUU_clean_sbu_0, # of connection points: 6
#     Node 33, Type 1, BuildingBlock: PAMTUU_clean_sbu_0, # of connection points: 6
#     Node 34, Type 1, BuildingBlock: PAMTUU_clean_sbu_0, # of connection points: 6
#     Node 35, Type 1, BuildingBlock: PAMTUU_clean_sbu_0, # of connection points: 6
#     Node 36, Type 1, BuildingBlock: PAMTUU_clean_sbu_0, # of connection points: 6
#     Node 37, Type 1, BuildingBlock: PAMTUU_clean_sbu_0, # of connection points: 6
#     Node 38, Type 1, BuildingBlock: PAMTUU_clean_sbu_0, # of connection points: 6
#     Node 39, Type 1, BuildingBlock: PAMTUU_clean_sbu_0, # of connection points: 6
#     Edge 40, Type (0, 1), BuildingBlock: XUDNAN_clean_linker_2, # of connection points: 2
#     Edge 41, Type (0, 1), BuildingBlock: XUDNAN_clean_linker_2, # of connection points: 2
#     Edge 42, Type (0, 1), BuildingBlock: XUDNAN_clean_linker_2, # of connection points: 2
#     Edge 43, Type (0, 1), BuildingBlock: XUDNAN_clean_linker_2, # of connection points: 2
#     Edge 44, Type (0, 1), BuildingBlock: XUDNAN_clean_linker_2, # of connection points: 2
#     Edge 45, Type (0, 1), BuildingBlock: XUDNAN_clean_linker_2, # of connection points: 2
#     Edge 46, Type (0, 1), BuildingBlock: XUDNAN_clean_linker_2, # of connection points: 2
#     Edge 47, Type (0, 1), BuildingBlock: XUDNAN_clean_linker_2, # of connection points: 2
#     Edge 48, Type (0, 1), BuildingBlock: XUDNAN_clean_linker_2, # of connection points: 2
#     Edge 49, Type (0, 1), BuildingBlock: XUDNAN_clean_linker_2, # of connection points: 2
#     Edge 50, Type (0, 1), BuildingBlock: XUDNAN_clean_linker_2, # of connection points: 2
#     Edge 51, Type (0, 1), BuildingBlock: XUDNAN_clean_linker_2, # of connection points: 2
#     Edge 52, Type (0, 1), BuildingBlock: XUDNAN_clean_linker_2, # of connection points: 2
#     Edge 53, Type (0, 1), BuildingBlock: XUDNAN_clean_linker_2, # of connection points: 2
#     Edge 54, Type (0, 1), BuildingBlock: XUDNAN_clean_linker_2, # of connection points: 2
#     Edge 55, Type (0, 1), BuildingBlock: XUDNAN_clean_linker_2, # of connection points: 2
#     Edge 56, Type (0, 1), BuildingBlock: XUDNAN_clean_linker_2, # of connection points: 2
#     Edge 57, Type (0, 1), BuildingBlock: XUDNAN_clean_linker_2, # of connection points: 2
#     Edge 58, Type (0, 1), BuildingBlock: XUDNAN_clean_linker_2, # of connection points: 2
#     Edge 59, Type (0, 1), BuildingBlock: XUDNAN_clean_linker_2, # of connection points: 2
#     Edge 60, Type (0, 1), BuildingBlock: XUDNAN_clean_linker_2, # of connection points: 2
#     Edge 61, Type (0, 1), BuildingBlock: XUDNAN_clean_linker_2, # of connection points: 2
#     Edge 62, Type (0, 1), BuildingBlock: XUDNAN_clean_linker_2, # of connection points: 2
#     Edge 63, Type (0, 1), BuildingBlock: XUDNAN_clean_linker_2, # of connection points: 2
#     Edge 64, Type (0, 1), BuildingBlock: XUDNAN_clean_linker_2, # of connection points: 2
#     Edge 65, Type (0, 1), BuildingBlock: XUDNAN_clean_linker_2, # of connection points: 2
#     Edge 66, Type (0, 1), BuildingBlock: XUDNAN_clean_linker_2, # of connection points: 2
#     Edge 67, Type (0, 1), BuildingBlock: XUDNAN_clean_linker_2, # of connection points: 2
#     Edge 68, Type (0, 1), BuildingBlock: XUDNAN_clean_linker_2, # of connection points: 2
#     Edge 69, Type (0, 1), BuildingBlock: XUDNAN_clean_linker_2, # of connection points: 2
#     Edge 70, Type (0, 1), BuildingBlock: XUDNAN_clean_linker_2, # of connection points: 2
#     Edge 71, Type (0, 1), BuildingBlock: XUDNAN_clean_linker_2, # of connection points: 2
#     Edge 72, Type (0, 1), BuildingBlock: XUDNAN_clean_linker_2, # of connection points: 2
#     Edge 73, Type (0, 1), BuildingBlock: XUDNAN_clean_linker_2, # of connection points: 2
#     Edge 74, Type (0, 1), BuildingBlock: XUDNAN_clean_linker_2, # of connection points: 2
#     Edge 75, Type (0, 1), BuildingBlock: XUDNAN_clean_linker_2, # of connection points: 2
#     Edge 76, Type (0, 1), BuildingBlock: XUDNAN_clean_linker_2, # of connection points: 2
#     Edge 77, Type (0, 1), BuildingBlock: XUDNAN_clean_linker_2, # of connection points: 2
#     Edge 78, Type (0, 1), BuildingBlock: XUDNAN_clean_linker_2, # of connection points: 2
#     Edge 79, Type (0, 1), BuildingBlock: XUDNAN_clean_linker_2, # of connection points: 2
#     Edge 80, Type (0, 1), BuildingBlock: XUDNAN_clean_linker_2, # of connection points: 2
#     Edge 81, Type (0, 1), BuildingBlock: XUDNAN_clean_linker_2, # of connection points: 2
#     Edge 82, Type (0, 1), BuildingBlock: XUDNAN_clean_linker_2, # of connection points: 2
#     Edge 83, Type (0, 1), BuildingBlock: XUDNAN_clean_linker_2, # of connection points: 2
#     Edge 84, Type (0, 1), BuildingBlock: XUDNAN_clean_linker_2, # of connection points: 2
#     Edge 85, Type (0, 1), BuildingBlock: XUDNAN_clean_linker_2, # of connection points: 2
#     Edge 86, Type (0, 1), BuildingBlock: XUDNAN_clean_linker_2, # of connection points: 2
#     Edge 87, Type (0, 1), BuildingBlock: XUDNAN_clean_linker_2, # of connection points: 2
#     Edge 88, Type (0, 1), BuildingBlock: XUDNAN_clean_linker_2, # of connection points: 2
#     Edge 89, Type (0, 1), BuildingBlock: XUDNAN_clean_linker_2, # of connection points: 2
#     Edge 90, Type (0, 1), BuildingBlock: XUDNAN_clean_linker_2, # of connection points: 2
#     Edge 91, Type (0, 1), BuildingBlock: XUDNAN_clean_linker_2, # of connection points: 2
#     Edge 92, Type (0, 1), BuildingBlock: XUDNAN_clean_linker_2, # of connection points: 2
#     Edge 93, Type (0, 1), BuildingBlock: XUDNAN_clean_linker_2, # of connection points: 2
#     Edge 94, Type (0, 1), BuildingBlock: XUDNAN_clean_linker_2, # of connection points: 2
#     Edge 95, Type (0, 1), BuildingBlock: XUDNAN_clean_linker_2, # of connection points: 2
#     Edge 96, Type (0, 1), BuildingBlock: XUDNAN_clean_linker_2, # of connection points: 2
#     Edge 97, Type (0, 1), BuildingBlock: XUDNAN_clean_linker_2, # of connection points: 2
#     Edge 98, Type (0, 1), BuildingBlock: XUDNAN_clean_linker_2, # of connection points: 2
#     Edge 99, Type (0, 1), BuildingBlock: XUDNAN_clean_linker_2, # of connection points: 2
#     Edge 100, Type (0, 1), BuildingBlock: XUDNAN_clean_linker_2, # of connection points: 2
#     Edge 101, Type (0, 1), BuildingBlock: XUDNAN_clean_linker_2, # of connection points: 2
#     Edge 102, Type (0, 1), BuildingBlock: XUDNAN_clean_linker_2, # of connection points: 2
#     Edge 103, Type (0, 1), BuildingBlock: XUDNAN_clean_linker_2, # of connection points: 2
#     Edge 104, Type (0, 1), BuildingBlock: XUDNAN_clean_linker_2, # of connection points: 2
#     Edge 105, Type (0, 1), BuildingBlock: XUDNAN_clean_linker_2, # of connection points: 2
#     Edge 106, Type (0, 1), BuildingBlock: XUDNAN_clean_linker_2, # of connection points: 2
#     Edge 107, Type (0, 1), BuildingBlock: XUDNAN_clean_linker_2, # of connection points: 2
#     Edge 108, Type (0, 1), BuildingBlock: XUDNAN_clean_linker_2, # of connection points: 2
#     Edge 109, Type (0, 1), BuildingBlock: XUDNAN_clean_linker_2, # of connection points: 2
#     Edge 110, Type (0, 1), BuildingBlock: XUDNAN_clean_linker_2, # of connection points: 2
#     Edge 111, Type (0, 1), BuildingBlock: XUDNAN_clean_linker_2, # of connection points: 2
#     Edge 112, Type (0, 1), BuildingBlock: XUDNAN_clean_linker_2, # of connection points: 2
#     Edge 113, Type (0, 1), BuildingBlock: XUDNAN_clean_linker_2, # of connection points: 2
#     Edge 114, Type (0, 1), BuildingBlock: XUDNAN_clean_linker_2, # of connection points: 2
#     Edge 115, Type (0, 1), BuildingBlock: XUDNAN_clean_linker_2, # of connection points: 2
#     Edge 116, Type (0, 1), BuildingBlock: XUDNAN_clean_linker_2, # of connection points: 2
#     Edge 117, Type (0, 1), BuildingBlock: XUDNAN_clean_linker_2, # of connection points: 2
#     Edge 118, Type (0, 1), BuildingBlock: XUDNAN_clean_linker_2, # of connection points: 2
#     Edge 119, Type (0, 1), BuildingBlock: XUDNAN_clean_linker_2, # of connection points: 2
#     Edge 120, Type (0, 1), BuildingBlock: XUDNAN_clean_linker_2, # of connection points: 2
#     Edge 121, Type (0, 1), BuildingBlock: XUDNAN_clean_linker_2, # of connection points: 2
#     Edge 122, Type (0, 1), BuildingBlock: XUDNAN_clean_linker_2, # of connection points: 2
#     Edge 123, Type (0, 1), BuildingBlock: XUDNAN_clean_linker_2, # of connection points: 2
#     Edge 124, Type (0, 1), BuildingBlock: XUDNAN_clean_linker_2, # of connection points: 2
#     Edge 125, Type (0, 1), BuildingBlock: XUDNAN_clean_linker_2, # of connection points: 2
#     Edge 126, Type (0, 1), BuildingBlock: XUDNAN_clean_linker_2, # of connection points: 2
#     Edge 127, Type (0, 1), BuildingBlock: XUDNAN_clean_linker_2, # of connection points: 2
#     Edge 128, Type (0, 1), BuildingBlock: XUDNAN_clean_linker_2, # of connection points: 2
#     Edge 129, Type (0, 1), BuildingBlock: XUDNAN_clean_linker_2, # of connection points: 2
#     Edge 130, Type (0, 1), BuildingBlock: XUDNAN_clean_linker_2, # of connection points: 2
#     Edge 131, Type (0, 1), BuildingBlock: XUDNAN_clean_linker_2, # of connection points: 2
#     Edge 132, Type (0, 1), BuildingBlock: XUDNAN_clean_linker_2, # of connection points: 2
#     Edge 133, Type (0, 1), BuildingBlock: XUDNAN_clean_linker_2, # of connection points: 2
#     Edge 134, Type (0, 1), BuildingBlock: XUDNAN_clean_linker_2, # of connection points: 2
#     Edge 135, Type (0, 1), BuildingBlock: XUDNAN_clean_linker_2, # of connection points: 2
# Relax obj value: 0.170
# Max RMSD: 0.331
# Mean RMSD: 0.159
data_MOF--net-gar--node1-KUFVIS_clean_sbu_0--node2-PAMTUU_clean_sbu_0--edge1-XUDNAN_clean_linker_2
_symmetry_space_group_name_H-M    P1
_symmetry_Int_Tables_number       1
_symmetry_cell_setting            triclinic
loop_
_symmetry_equiv_pos_as_xyz
'x, y, z'
_cell_length_a     58.646965
_cell_length_b     55.342017
_cell_length_c     59.899748
_cell_angle_alpha  93.53533
_cell_angle_beta   93.81067
_cell_angle_gamma 106.92268
loop_
_atom_site_label
_atom_site_type_symbol
_atom_site_fract_x
_atom_site_fract_y
_atom_site_fract_z
_atom_type_partial_charge
Mn0 Mn 0.06894 0.27942 0.41038 0.0
Mn1 Mn 0.07144 0.3162 0.36606 0.0
C2 C 0.03109 0.28244 0.38931 0.0
C3 C 0.06822 0.23811 0.42848 0.0
C4 C 0.07845 0.34001 0.41544 0.0
O5 O 0.10535 0.28489 0.39939 0.0
O6 O 0.10322 0.3084 0.37062 0.0
C7 C 0.07408 0.27756 0.33055 0.0
N8 N 0.06337 0.29467 0.33867 0.0
C9 C 0.0349 0.28542 0.30614 0.0
C10 C 0.04579 0.26792 0.29735 0.0
C11 C 0.0654 0.2639 0.30966 0.0
C12 C 0.04426 0.29838 0.32712 0.0
H13 H 0.08908 0.27426 0.33994 0.0
C14 C 0.11489 0.29629 0.38217 0.0
O15 O 0.07519 0.26051 0.43902 0.0
O16 O 0.06206 0.23952 0.40741 0.0
N17 N 0.04327 0.3257 0.35797 0.0
C18 C 0.03459 0.34309 0.36882 0.0
C19 C 1.01525 0.3496 0.35851 0.0
C20 C 1.00502 0.33823 0.33716 0.0
C21 C 1.01427 0.32052 0.32626 0.0
C22 C 0.03388 0.31513 0.33716 0.0
H23 H 0.04245 0.35213 0.38514 0.0
O24 O 0.03182 0.2749 0.40941 0.0
O25 O 0.05241 0.28733 0.38187 0.0
O26 O 0.07581 0.31866 0.42449 0.0
O27 O 0.07884 0.3405 0.39398 0.0
C28 C 1.00479 0.30801 0.30499 0.0
C29 C 1.01499 0.29033 0.29501 0.0
H30 H 0.03915 0.25735 0.28123 0.0
H31 H 0.0738 0.2503 0.30306 0.0
H32 H 1.00831 0.36344 0.36699 0.0
H33 H 0.99011 0.34329 0.32922 0.0
H34 H 0.98952 0.31167 0.29625 0.0
H35 H 1.00738 0.2806 0.27876 0.0
Mn36 Mn 0.06713 0.79285 0.67725 0.0
Mn37 Mn 0.08282 0.83704 0.7216 0.0
C38 C 0.10906 0.80504 0.69651 0.0
C39 C 0.05673 0.74946 0.65555 0.0
C40 C 0.07455 0.8526 0.67311 0.0
O41 O 0.03192 0.79109 0.69093 0.0
O42 O 0.04652 0.82111 0.71952 0.0
C43 C 0.07054 0.80396 0.75876 0.0
N44 N 0.08702 0.82158 0.74863 0.0
C45 C 0.11765 0.82356 0.77807 0.0
C46 C 0.10098 0.80554 0.78888 0.0
C47 C 0.07735 0.79562 0.77913 0.0
C48 C 0.10988 0.83099 0.75772 0.0
H49 H 0.05234 0.79632 0.75138 0.0
C50 C 0.02824 0.80462 0.70859 0.0
O51 O 0.05353 0.76961 0.64776 0.0
O52 O 0.06356 0.7534 0.67691 0.0
N53 N 0.11648 0.85385 0.72624 0.0
C54 C 0.13057 0.87049 0.71334 0.0
C55 C 0.15489 0.88169 0.72048 0.0
C56 C 0.16442 0.87581 0.74085 0.0
C57 C 0.14953 0.85878 0.75392 0.0
C58 C 0.12545 0.84816 0.74592 0.0
H59 H 0.12335 0.87512 0.69767 0.0
O60 O 0.10374 0.79727 0.67541 0.0
O61 O 0.08979 0.80761 0.70534 0.0
O62 O 0.06966 0.82958 0.66396 0.0
O63 O 0.07953 0.85657 0.69451 0.0
C64 C 0.15764 0.85192 0.77455 0.0
C65 C 0.14168 0.8344 0.78666 0.0
H66 H 0.10616 0.79911 0.80462 0.0
H67 H 0.0644 0.78164 0.78733 0.0
H68 H 0.16626 0.8948 0.71029 0.0
H69 H 0.1832 0.88445 0.74629 0.0
H70 H 0.17614 0.85989 0.78121 0.0
H71 H 0.14816 0.82915 0.80245 0.0
Mn72 Mn 0.5673 0.78351 0.91158 0.0
Mn73 Mn 0.5706 0.82529 0.87112 0.0
C74 C 0.52949 0.78819 0.89104 0.0
C75 C 0.56752 0.74319 0.93146 0.0
C76 C 0.57631 0.84397 0.92153 0.0
O77 O 0.60364 0.78908 0.90026 0.0
O78 O 0.60284 0.81758 0.87544 0.0
C79 C 0.57566 0.79091 0.83294 0.0
N80 N 0.56409 0.80661 0.84223 0.0
C81 C 0.53698 0.80018 0.80891 0.0
C82 C 0.54879 0.7842 0.79895 0.0
C83 C 0.56815 0.77947 0.81106 0.0
C84 C 0.54523 0.81102 0.83081 0.0
H85 H 0.59048 0.78703 0.84211 0.0
C86 C 0.61398 0.80327 0.88483 0.0
O87 O 0.57451 0.76624 0.94026 0.0
O88 O 0.56039 0.74274 0.91031 0.0
N89 N 0.54222 0.83463 0.86343 0.0
C90 C 0.53213 0.84981 0.87561 0.0
C91 C 0.5126 0.8564 0.86582 0.0
C92 C 0.50357 0.84731 0.84362 0.0
C93 C 0.5142 0.83176 0.83139 0.0
C94 C 0.53389 0.82615 0.8419 0.0
H95 H 0.53885 0.85689 0.89268 0.0
O96 O 0.5301 0.77937 0.91066 0.0
O97 O 0.551 0.79374 0.88382 0.0
O98 O 0.57458 0.82147 0.92768 0.0
O99 O 0.57637 0.84767 0.90056 0.0
C100 C 0.50587 0.82143 0.80924 0.0
C101 C 0.51717 0.80554 0.79805 0.0
H102 H 0.54304 0.77532 0.78208 0.0
H103 H 0.57727 0.76702 0.80355 0.0
H104 H 0.50451 0.86845 0.87538 0.0
H105 H 0.48842 0.85232 0.83613 0.0
H106 H 0.49059 0.82533 0.80075 0.0
H107 H 0.51042 0.79744 0.78112 0.0
Mn108 Mn 0.57098 0.29544 0.18264 0.0
Mn109 Mn 0.52506 0.28283 0.14143 0.0
C110 C 0.55504 0.25235 0.16291 0.0
C111 C 0.61483 0.30266 0.19781 0.0
C112 C 0.51557 0.29234 0.19137 0.0
O113 O 0.57389 0.33249 0.16974 0.0
O114 O 0.54323 0.32054 0.14247 0.0
C115 C 0.5521 0.29294 0.10121 0.0
N116 N 0.53594 0.27674 0.11282 0.0
C117 C 0.52717 0.24414 0.0823 0.0
C118 C 0.54359 0.26054 0.06996 0.0
C119 C 0.55623 0.28499 0.07953 0.0
C120 C 0.524 0.25301 0.10391 0.0
H121 H 0.56175 0.31183 0.10837 0.0
C122 C 0.5612 0.33793 0.15283 0.0
O123 O 0.59836 0.30663 0.20969 0.0
O124 O 0.60663 0.29691 0.17689 0.0
N125 N 0.50681 0.24777 0.13787 0.0
C126 C 0.49284 0.2337 0.15254 0.0
C127 C 0.48008 0.20828 0.14604 0.0
C128 C 0.48163 0.19766 0.12449 0.0
C129 C 0.49611 0.21252 0.1097 0.0
C130 C 0.50865 0.23765 0.1172 0.0
H131 H 0.49153 0.24174 0.16911 0.0
O132 O 0.56453 0.25661 0.18347 0.0
O133 O 0.55305 0.27337 0.1551 0.0
O134 O 0.53791 0.29544 0.19858 0.0
O135 O 0.50953 0.28802 0.17017 0.0
C136 C 0.49863 0.20337 0.08782 0.0
C137 C 0.51393 0.21928 0.07404 0.0
H138 H 0.54675 0.2545 0.0532 0.0
H139 H 0.56901 0.29773 0.07016 0.0
H140 H 0.46902 0.19691 0.15759 0.0
H141 H 0.4717 0.17807 0.11951 0.0
H142 H 0.489 0.18409 0.08147 0.0
H143 H 0.51579 0.21201 0.05727 0.0
Mn144 Mn 0.10899 0.81354 0.14022 0.0
Mn145 Mn 0.07314 0.7969 0.09167 0.0
C146 C 0.10095 0.77292 0.12224 0.0
C147 C 0.14678 0.82972 0.16067 0.0
C148 C 0.05393 0.79859 0.13727 0.0
O149 O 0.10803 0.84822 0.12982 0.0
O150 O 0.08404 0.83446 0.09779 0.0
C151 C 0.11022 0.81806 0.0611 0.0
N152 N 0.09299 0.79795 0.06748 0.0
C153 C 0.09988 0.77013 0.03791 0.0
C154 C 0.1176 0.79057 0.03094 0.0
C155 C 0.12282 0.81463 0.04261 0.0
C156 C 0.08795 0.77469 0.05646 0.0
H157 H 0.11436 0.83655 0.07008 0.0
C158 C 0.09658 0.85231 0.11212 0.0
O159 O 0.12716 0.82888 0.16983 0.0
O160 O 0.14455 0.82268 0.13936 0.0
N161 N 0.06106 0.76128 0.08325 0.0
C162 C 0.04326 0.74365 0.09198 0.0
C163 C 0.03553 0.7187 0.08194 0.0
C164 C 0.04619 0.71212 0.0631 0.0
C165 C 0.06419 0.73067 0.0542 0.0
C166 C 0.0708 0.75535 0.06463 0.0
H167 H 0.03495 0.74861 0.10642 0.0
O168 O 0.10799 0.77739 0.14345 0.0
O169 O 0.09907 0.79244 0.11199 0.0
O170 O 0.07432 0.80588 0.14862 0.0
O171 O 0.05141 0.79469 0.11585 0.0
C172 C 0.07582 0.72567 0.03539 0.0
C173 C 0.09373 0.74536 0.02732 0.0
H174 H 0.12738 0.788 0.01671 0.0
H175 H 0.13654 0.83048 0.03739 0.0
H176 H 1.02138 0.70459 0.08873 0.0
H177 H 0.04032 0.69279 0.05551 0.0
H178 H 0.0712 0.70672 0.02708 0.0
H179 H 0.10267 0.74124 0.01294 0.0
Mn180 Mn 0.51164 0.77364 0.44054 0.0
Mn181 Mn 0.51747 0.81649 0.40139 0.0
C182 C 0.47767 0.77623 0.41821 0.0
C183 C 0.51325 0.73362 0.452 0.0
C184 C 0.51993 0.83105 0.45153 0.0
O185 O 0.54762 0.78348 0.43568 0.0
O186 O 0.54818 0.80926 0.40797 0.0
C187 C 0.52612 0.78534 0.3627 0.0
N188 N 0.51331 0.79977 0.37187 0.0
C189 C 0.48958 0.79656 0.33686 0.0
C190 C 0.50255 0.78171 0.32702 0.0
C191 C 0.52084 0.77599 0.34003 0.0
C192 C 0.49555 0.80519 0.35957 0.0
H193 H 0.54029 0.78103 0.3726 0.0
C194 C 0.55841 0.79723 0.42087 0.0
O195 O 0.51696 0.7533 0.4662 0.0
O196 O 0.50824 0.73697 0.43117 0.0
N197 N 0.4891 0.8253 0.39283 0.0
C198 C 0.47782 0.8392 0.40504 0.0
C199 C 0.45925 0.84676 0.39444 0.0
C200 C 0.45252 0.84002 0.37142 0.0
C201 C 0.46425 0.82557 0.35925 0.0
C202 C 0.48288 0.81893 0.37062 0.0
H203 H 0.48317 0.84479 0.42264 0.0
O204 O 0.47536 0.76596 0.43721 0.0
O205 O 0.49955 0.78444 0.41293 0.0
O206 O 0.51557 0.80853 0.4577 0.0
O207 O 0.52178 0.83598 0.43105 0.0
C208 C 0.4582 0.81751 0.33628 0.0
C209 C 0.47076 0.80288 0.32512 0.0
H210 H 0.49854 0.77449 0.30953 0.0
H211 H 0.5309 0.76449 0.33257 0.0
H212 H 0.45022 0.85789 0.40396 0.0
H213 H 0.43826 0.84599 0.36326 0.0
H214 H 0.44374 0.82222 0.3271 0.0
H215 H 0.46572 0.79648 0.30754 0.0
Mn216 Mn 0.6146 0.31522 0.63795 0.0
Mn217 Mn 0.56933 0.29695 0.59678 0.0
C218 C 0.60086 0.27305 0.62251 0.0
C219 C 0.65492 0.32856 0.65269 0.0
C220 C 0.56137 0.30596 0.64539 0.0
O221 O 0.61406 0.34955 0.62631 0.0
O222 O 0.58266 0.33473 0.60019 0.0
C223 C 0.59844 0.31311 0.5588 0.0
N224 N 0.58294 0.29453 0.5689 0.0
C225 C 0.58231 0.26339 0.53881 0.0
C226 C 0.59818 0.28221 0.52804 0.0
C227 C 0.6063 0.30717 0.53809 0.0
C228 C 0.57508 0.27044 0.5594 0.0
H229 H 0.6048 0.33229 0.56649 0.0
C230 C 0.59902 0.35308 0.61116 0.0
O231 O 0.63793 0.33151 0.66434 0.0
O232 O 0.64876 0.31991 0.6318 0.0
N233 N 0.55489 0.2611 0.59142 0.0
C234 C 0.53989 0.24511 0.60414 0.0
C235 C 0.52998 0.21947 0.59634 0.0
C236 C 0.53559 0.21055 0.57556 0.0
C237 C 0.55102 0.22737 0.56276 0.0
C238 C 0.56003 0.2528 0.57121 0.0
H239 H 0.53551 0.25187 0.62012 0.0
O240 O 0.61143 0.27872 0.64265 0.0
O241 O 0.59824 0.29218 0.61209 0.0
O242 O 0.58352 0.31301 0.65216 0.0
O243 O 0.5535 0.2984 0.62498 0.0
C244 C 0.55788 0.21987 0.54197 0.0
C245 C 0.57359 0.23785 0.53004 0.0
H246 H 0.60434 0.27769 0.5121 0.0
H247 H 0.61861 0.32178 0.52992 0.0
H248 H 0.51806 0.20659 0.60631 0.0
H249 H 0.52794 0.19076 0.56959 0.0
H250 H 0.55131 0.2003 0.53507 0.0
H251 H 0.57889 0.23183 0.51416 0.0
Mn252 Mn 1.01203 0.27505 0.94395 0.0
Mn253 Mn 1.01635 0.31728 0.90428 0.0
C254 C 0.97735 0.27649 0.92233 0.0
C255 C 1.0151 0.23689 0.95876 0.0
C256 C 1.01917 0.33233 0.95422 0.0
O257 O 0.04786 0.28557 0.93877 0.0
O258 O 0.04719 0.31017 0.91038 0.0
C259 C 1.02519 0.2872 0.86503 0.0
N260 N 1.01209 0.30105 0.87462 0.0
C261 C 0.99254 0.30406 0.8388 0.0
C262 C 1.00569 0.28969 0.8285 0.0
C263 C 1.02186 0.28095 0.84172 0.0
C264 C 0.99578 0.30864 0.86219 0.0
H265 H 0.03835 0.28137 0.87505 0.0
C266 C 0.05801 0.29885 0.92344 0.0
O267 O 1.01807 0.25785 0.97089 0.0
O268 O 1.01001 0.23758 0.93733 0.0
N269 N 0.98812 0.32648 0.89603 0.0
C270 C 0.97718 0.34054 0.90849 0.0
C271 C 0.95971 0.34982 0.89794 0.0
C272 C 0.95459 0.34569 0.87453 0.0
C273 C 0.96678 0.33205 0.86195 0.0
C274 C 0.98313 0.32219 0.87352 0.0
H275 H 0.98176 0.34469 0.92636 0.0
O276 O 0.9761 0.26657 0.9415 0.0
O277 O 0.99881 0.28474 0.91582 0.0
O278 O 1.01503 0.30993 0.9604 0.0
O279 O 1.02105 0.33709 0.93377 0.0
C280 C 0.96399 0.32862 0.83832 0.0
C281 C 0.97682 0.31457 0.82674 0.0
H282 H 1.00366 0.28544 0.81045 0.0
H283 H 0.03219 0.26999 0.83389 0.0
H284 H 0.95066 0.36066 0.90774 0.0
H285 H 0.94157 0.35345 0.86637 0.0
H286 H 0.95178 0.33641 0.82888 0.0
H287 H 0.97425 0.31174 0.80859 0.0
Mn288 Mn 0.47501 0.0646 0.31876 0.0
Mn289 Mn 0.42626 0.05181 0.34806 0.0
C290 C 0.44953 0.0238 0.31726 0.0
C291 C 0.49528 0.07787 0.28787 0.0
C292 C 0.47645 0.06126 0.36942 0.0
O293 O 0.47084 0.09938 0.32544 0.0
O294 O 0.43744 0.08842 0.34382 0.0
C295 C 0.39275 0.06329 0.31405 0.0
N296 N 0.39841 0.04673 0.32775 0.0
C297 C 0.36146 1.01452 0.31555 0.0
C298 C 0.35517 0.03127 0.3014 0.0
C299 C 0.37092 0.05574 0.30062 0.0
C300 C 0.38348 0.02311 0.32852 0.0
H301 H 0.40481 0.0821 0.31336 0.0
C302 C 0.45428 0.10475 0.33557 0.0
O303 O 0.50638 0.07961 0.30759 0.0
O304 O 0.47209 0.06845 0.28593 0.0
N305 N 0.41329 0.01686 0.35311 0.0
C306 C 0.42234 1.00282 0.36717 0.0
C307 C 0.40865 0.97798 0.3701 0.0
C308 C 0.38582 0.96788 0.35857 0.0
C309 C 0.377 0.98259 0.34405 0.0
C310 C 0.39125 1.00738 0.34213 0.0
H311 H 0.43977 1.01061 0.37623 0.0
O312 O 0.47156 0.0277 0.3126 0.0
O313 O 0.44317 0.04384 0.32266 0.0
O314 O 0.48635 0.06392 0.35118 0.0
O315 O 0.45391 0.05646 0.37044 0.0
C316 C 0.35461 0.97364 0.3314 0.0
C317 C 0.34691 0.98955 0.31706 0.0
H318 H 0.33836 0.0255 0.29098 0.0
H319 H 0.36625 0.06874 0.28968 0.0
H320 H 0.41561 0.96667 0.38128 0.0
H321 H 0.37521 0.94879 0.36099 0.0
H322 H 0.34328 0.95448 0.33243 0.0
H323 H 0.32979 0.98236 0.30722 0.0
Mn324 Mn 0.30777 0.22215 0.54025 0.0
Mn325 Mn 0.29904 0.16839 0.50632 0.0
C326 C 0.26905 0.19386 0.53064 0.0
C327 C 0.31227 0.2412 0.57874 0.0
C328 C 0.31295 0.22088 0.48824 0.0
O329 O 0.34111 0.21607 0.54277 0.0
O330 O 0.33177 0.17864 0.52159 0.0
C331 C 0.3013 0.13287 0.54083 0.0
N332 N 0.28907 0.13962 0.52334 0.0
C333 C 0.25539 0.10258 0.52459 0.0
C334 C 0.26762 0.09523 0.54261 0.0
C335 C 0.29065 0.11047 0.55078 0.0
C336 C 0.26686 0.12515 0.5154 0.0
H337 H 0.319 0.14452 0.54717 0.0
C338 C 0.34642 0.1965 0.53459 0.0
O339 O 0.31797 0.25464 0.56176 0.0
O340 O 0.30496 0.21707 0.57356 0.0
N341 N 0.2676 0.15654 0.4911 0.0
C342 C 0.25783 0.16689 0.47429 0.0
C343 C 0.2349 0.15392 0.46414 0.0
C344 C 0.22229 0.13045 0.47133 0.0
C345 C 0.23255 0.12036 0.48891 0.0
C346 C 0.25557 0.13401 0.49821 0.0
H347 H 0.26755 0.1848 0.46853 0.0
O348 O 0.27188 0.21751 0.53677 0.0
O349 O 0.28885 0.18842 0.52912 0.0
O350 O 0.31259 0.23396 0.50688 0.0
O351 O 0.30876 0.19681 0.48714 0.0
C352 C 0.22082 0.09735 0.49763 0.0
C353 C 0.23215 0.08858 0.51557 0.0
H354 H 0.25945 0.07799 0.55036 0.0
H355 H 0.30018 0.10496 0.56472 0.0
H356 H 0.22701 0.16191 0.45069 0.0
H357 H 0.20468 0.12043 0.46331 0.0
H358 H 0.20299 0.08636 0.49079 0.0
H359 H 0.22281 0.07106 0.52234 0.0
Mn360 Mn 0.19358 0.04637 0.8423 0.0
Mn361 Mn 0.246 0.05809 0.87378 0.0
C362 C 0.21396 0.08679 0.8574 0.0
C363 C 0.17017 0.04309 0.80891 0.0
C364 C 0.19837 0.033 0.89077 0.0
O365 O 0.2043 0.01608 0.83289 0.0
O366 O 0.23884 0.02513 0.8552 0.0
C367 C 0.27928 0.06347 0.83799 0.0
N368 N 0.27178 0.07356 0.85644 0.0
C369 C 0.30452 0.11193 0.8575 0.0
C370 C 0.31266 0.10186 0.83862 0.0
C371 C 0.29989 0.07759 0.82875 0.0
C372 C 0.28386 0.09698 0.86597 0.0
H373 H 0.26973 0.04473 0.83045 0.0
C374 C 0.22341 1.01123 0.83984 0.0
O375 O 0.16162 0.03139 0.82601 0.0
O376 O 0.19268 0.05604 0.81092 0.0
N377 N 0.2549 0.08995 0.89152 0.0
C378 C 0.24416 0.09735 0.90908 0.0
C379 C 0.25403 0.12168 0.92013 0.0
C380 C 0.27487 0.13813 0.91304 0.0
C381 C 0.28557 0.13014 0.89488 0.0
C382 C 0.27483 0.10573 0.88444 0.0
H383 H 0.22801 0.08493 0.9144 0.0
O384 O 0.19089 0.08021 0.85299 0.0
O385 O 0.22415 0.06924 0.85364 0.0
O386 O 0.18618 0.03284 0.87244 0.0
O387 O 0.221 0.04275 0.89374 0.0
C388 C 0.3064 0.14549 0.88666 0.0
C389 C 0.31602 0.13628 0.86814 0.0
H390 H 0.32855 0.1127 0.83144 0.0
H391 H 0.30601 0.06972 0.81413 0.0
H392 H 0.24556 0.12775 0.93403 0.0
H393 H 0.28244 0.15689 0.9216 0.0
H394 H 0.31517 0.16442 0.89445 0.0
H395 H 0.33205 0.14825 0.86198 0.0
Mn396 Mn 0.31251 0.93394 1.00981 0.0
Mn397 Mn 0.3444 0.9788 0.97899 0.0
C398 C 0.35229 0.9379 1.00547 0.0
C399 C 0.29913 0.91924 0.0436 0.0
C400 C 0.30746 0.93066 0.9587 0.0
O401 O 0.29266 0.95886 1.00827 0.0
O402 O 0.31713 0.98895 0.98981 0.0
C403 C 0.36301 0.02257 0.01294 0.0
N404 N 0.36711 1.00536 0.99768 0.0
C405 C 0.40941 0.02669 1.00153 0.0
C406 C 0.40561 0.0448 0.01712 0.0
C407 C 0.38234 0.04257 0.02302 0.0
C408 C 0.38949 1.00706 0.99221 0.0
H409 H 0.3451 0.02123 0.01717 0.0
C410 C 0.29842 0.98057 1.00027 0.0
O411 O 0.28774 0.90889 0.02446 0.0
O412 O 0.3173 0.93929 0.04317 0.0
N413 N 0.37157 0.97102 0.96797 0.0
C414 C 0.37213 0.95237 0.95224 0.0
C415 C 0.39421 0.95125 0.94525 0.0
C416 C 0.41544 0.96954 0.95422 0.0
C417 C 0.41437 0.9888 0.97009 0.0
C418 C 0.39188 0.98876 0.97663 0.0
H419 H 0.35587 0.9384 0.94512 0.0
O420 O 0.33808 0.91656 1.01049 0.0
O421 O 0.34277 0.95606 1.00297 0.0
O422 O 0.30237 0.92068 0.97699 0.0
O423 O 0.32214 0.95257 0.95773 0.0
C424 C 0.43472 1.00819 0.97949 0.0
C425 C 0.43221 0.02729 0.99498 0.0
H426 H 0.42046 0.06033 0.02485 0.0
H427 H 0.3793 0.05639 0.03513 0.0
H428 H 0.39487 0.93639 0.93292 0.0
H429 H 0.43243 0.96868 0.94871 0.0
H430 H 0.45237 1.00872 0.97477 0.0
H431 H 0.44798 0.04221 1.00198 0.0
Mn432 Mn 0.32524 0.37014 0.05038 0.0
Mn433 Mn 0.33047 0.41718 0.0152 0.0
C434 C 0.36297 0.39833 0.04545 0.0
C435 C 0.31991 0.35895 0.08902 0.0
C436 C 0.32168 0.36202 0.99763 0.0
O437 O 0.29092 0.37293 0.04619 0.0
O438 O 0.29769 0.40584 0.02459 0.0
C439 C 0.32379 0.45671 0.04755 0.0
N440 N 0.33716 0.44907 0.03241 0.0
C441 C 0.36642 0.49021 0.03622 0.0
C442 C 0.35294 0.49855 0.0518 0.0
C443 C 0.33157 0.48169 0.05754 0.0
C444 C 0.35778 0.46509 0.02684 0.0
H445 H 0.30731 0.44385 0.05194 0.0
C446 C 0.284 0.38943 0.03573 0.0
O447 O 0.31543 0.3417 0.07221 0.0
O448 O 0.32708 0.38182 0.08324 0.0
N449 N 0.36152 0.43043 1.00494 0.0
C450 C 0.37297 0.41906 0.99046 0.0
C451 C 0.39473 0.43327 0.98316 0.0
C452 C 0.40442 0.45902 0.99075 0.0
C453 C 0.39239 0.47027 1.00572 0.0
C454 C 0.37061 0.45526 1.01218 0.0
H455 H 0.36546 0.39935 0.98438 0.0
O456 O 0.36123 0.37655 0.0532 0.0
O457 O 0.34276 0.40271 0.04067 0.0
O458 O 0.32213 0.35264 0.01696 0.0
O459 O 0.32401 0.38547 0.99583 0.0
C460 C 0.40122 0.49575 0.01461 0.0
C461 C 0.38829 0.50569 0.02992 0.0
H462 H 0.35891 0.51778 0.05958 0.0
H463 H 0.3211 0.48797 0.06959 0.0
H464 H 0.40399 0.42444 0.97166 0.0
H465 H 0.42118 0.46997 0.98504 0.0
H466 H 0.4181 0.50778 1.01002 0.0
H467 H 0.39544 0.52519 0.03689 0.0
Mn468 Mn 0.81799 0.1767 0.06948 0.0
Mn469 Mn 0.79101 0.12892 0.02962 0.0
C470 C 0.77714 0.16519 0.06124 0.0
C471 C 0.83381 0.19302 0.10579 0.0
C472 C 0.81447 0.18228 0.01869 0.0
O473 O 0.84383 0.15949 0.06577 0.0
O474 O 0.82477 0.13066 0.03753 0.0
C475 C 0.79227 0.08758 0.05836 0.0
N476 N 0.77963 0.0988 0.04467 0.0
C477 C 0.74379 0.06406 0.04527 0.0
C478 C 0.75641 0.05213 0.05936 0.0
C479 C 0.7807 0.06407 0.06612 0.0
C480 C 0.75603 0.08796 0.03883 0.0
H481 H 0.81107 0.09639 0.0632 0.0
C482 C 0.84313 0.14165 0.05108 0.0
O483 O 0.84095 0.2051 0.08846 0.0
O484 O 0.81776 0.17102 0.10204 0.0
N485 N 0.75814 0.12356 0.01931 0.0
C486 C 0.7493 0.13581 1.00336 0.0
C487 C 0.72535 0.12609 0.99447 0.0
C488 C 0.71095 0.10323 1.00128 0.0
C489 C 0.72083 0.09002 0.01653 0.0
C490 C 0.74469 0.10093 0.02521 0.0
H491 H 0.76036 0.15307 0.99761 0.0
O492 O 0.78856 0.18743 0.07095 0.0
O493 O 0.78963 0.14964 0.05728 0.0
O494 O 0.8229 0.19072 0.03877 0.0
O495 O 0.80164 0.15945 0.01322 0.0
C496 C 0.70827 0.06582 0.02251 0.0
C497 C 0.71974 0.05286 0.03691 0.0
H498 H 0.74768 0.03372 0.06495 0.0
H499 H 0.79058 0.05498 0.07696 0.0
H500 H 0.71808 0.13609 0.98223 0.0
H501 H 0.69257 0.09562 0.99418 0.0
H502 H 0.68984 0.05691 0.016 0.0
H503 H 0.70989 0.03427 0.04141 0.0
Mn504 Mn 0.17327 0.54263 0.27273 0.0
Mn505 Mn 0.19852 0.56694 0.3246 0.0
C506 C 0.18082 0.58533 0.28334 0.0
C507 C 0.17381 0.5321 0.23478 0.0
C508 C 0.14701 0.53452 0.31487 0.0
O509 O 0.18783 0.51553 0.28342 0.0
O510 O 0.20679 0.53553 0.31656 0.0
C511 C 0.24984 0.58087 0.31668 0.0
N512 N 0.23066 0.58771 0.32329 0.0
C513 C 0.25512 0.63046 0.33412 0.0
C514 C 0.27522 0.62375 0.32778 0.0
C515 C 0.27251 0.59892 0.31881 0.0
C516 C 0.23297 0.61171 0.33144 0.0
H517 H 0.24785 0.56176 0.30993 0.0
C518 C 0.2015 0.51697 0.30135 0.0
O519 O 0.15613 0.52081 0.24593 0.0
O520 O 0.19233 0.54806 0.24615 0.0
N521 N 0.19189 0.59767 0.33413 0.0
C522 C 0.17079 0.60096 0.33977 0.0
C523 C 0.17027 0.62499 0.34829 0.0
C524 C 0.19148 0.64528 0.35124 0.0
C525 C 0.21305 0.64133 0.34569 0.0
C526 C 0.21245 0.617 0.33716 0.0
H527 H 0.15447 0.58538 0.33776 0.0
O528 O 0.16454 0.57432 0.2672 0.0
O529 O 0.19193 0.57104 0.2928 0.0
O530 O 0.14721 0.53249 0.29372 0.0
O531 O 0.16535 0.5463 0.32815 0.0
C532 C 0.23515 0.66053 0.34847 0.0
C533 C 0.25619 0.65505 0.34285 0.0
H534 H 0.29276 0.63761 0.32946 0.0
H535 H 0.2879 0.59367 0.31367 0.0
H536 H 0.15357 0.62785 0.35264 0.0
H537 H 0.19102 0.66378 0.35784 0.0
H538 H 0.23617 0.67954 0.355 0.0
H539 H 0.27309 0.66995 0.34511 0.0
Mn540 Mn 0.82549 0.86958 0.55707 0.0
Mn541 Mn 0.83274 0.91855 0.52367 0.0
C542 C 0.86378 0.89725 0.55338 0.0
C543 C 0.81833 0.85297 0.5934 0.0
C544 C 0.82333 0.86401 0.50433 0.0
O545 O 0.79156 0.8739 0.55314 0.0
O546 O 0.79962 0.90731 0.53214 0.0
C547 C 0.82595 0.95694 0.55719 0.0
N548 N 0.83946 0.94978 0.54193 0.0
C549 C 0.86892 0.99078 0.54699 0.0
C550 C 0.8553 0.99863 0.56272 0.0
C551 C 0.83377 0.9816 0.5679 0.0
C552 C 0.86028 0.96594 0.53694 0.0
H553 H 0.80933 0.94396 0.56113 0.0
C554 C 0.78533 0.89095 0.54282 0.0
O555 O 0.81377 0.83858 0.57469 0.0
O556 O 0.82677 0.87698 0.5911 0.0
N557 N 0.86411 0.93194 0.51419 0.0
C558 C 0.87548 0.92113 0.49919 0.0
C559 C 0.89725 0.93566 0.49216 0.0
C560 C 0.90709 0.96113 0.50058 0.0
C561 C 0.89505 0.97185 0.51596 0.0
C562 C 0.87323 0.95657 0.52208 0.0
H563 H 0.86788 0.90166 0.49245 0.0
O564 O 0.86129 0.87479 0.56002 0.0
O565 O 0.844 0.90273 0.54903 0.0
O566 O 0.82273 0.85402 0.52331 0.0
O567 O 0.82632 0.88765 0.50305 0.0
C568 C 0.9039 0.99708 0.52552 0.0
C569 C 0.8909 1.0065 0.54111 0.0
H570 H 0.86127 0.01763 0.57102 0.0
H571 H 0.82319 0.98749 0.58006 0.0
H572 H 0.9064 0.92726 0.48021 0.0
H573 H 0.92394 0.97226 0.49518 0.0
H574 H 0.92082 1.00929 0.52121 0.0
H575 H 0.89805 0.0258 0.54859 0.0
Mn576 Mn 0.97182 0.05458 0.25262 0.0
Mn577 Mn 0.94069 0.05447 0.2983 0.0
C578 C 0.95019 0.01653 0.26469 0.0
C579 C 0.97662 0.05792 0.21474 0.0
C580 C 0.99415 0.06311 0.30117 0.0
O581 O 0.97059 0.09091 0.25641 0.0
O582 O 0.94808 0.08776 0.2857 0.0
C583 C 0.89639 0.05934 0.27485 0.0
N584 N 0.90748 0.04667 0.28857 0.0
C585 C 0.86982 0.01765 0.29563 0.0
C586 C 0.85797 0.03042 0.28164 0.0
C587 C 0.87133 0.05121 0.27103 0.0
C588 C 0.89485 0.0261 0.2982 0.0
H589 H 0.9066 0.07556 0.26696 0.0
C590 C 0.95968 0.10018 0.27069 0.0
O591 O 0.99468 0.06374 0.22978 0.0
O592 O 0.95534 0.05016 0.22168 0.0
N593 N 0.93182 0.02373 0.31291 0.0
C594 C 0.94581 0.01474 0.32731 0.0
C595 C 0.9352 0.99394 0.3393 0.0
C596 C 0.91024 0.98327 0.33711 0.0
C597 C 0.8961 0.99373 0.3232 0.0
C598 C 0.90771 1.01412 0.3113 0.0
H599 H 0.96495 0.02327 0.32957 0.0
O600 O 0.9673 0.0175 0.2518 0.0
O601 O 0.94554 0.03774 0.26969 0.0
O602 O 0.99571 0.06052 0.28014 0.0
O603 O 0.97457 0.06196 0.30982 0.0
C604 C 0.87091 0.98531 0.32131 0.0
C605 C 0.85778 0.99716 0.30742 0.0
H606 H 0.83862 0.02448 0.27898 0.0
H607 H 0.86232 0.06112 0.26017 0.0
H608 H 0.94621 0.98635 0.35039 0.0
H609 H 0.90209 0.96741 0.34657 0.0
H610 H 0.86144 0.96965 0.3304 0.0
H611 H 0.83841 0.99035 0.30595 0.0
Mn612 Mn 0.31639 0.68417 0.57091 0.0
Mn613 Mn 0.29357 0.64323 0.52512 0.0
C614 C 0.27645 0.6753 0.5582 0.0
C615 C 0.3275 0.6931 0.60915 0.0
C616 C 0.32536 0.69704 0.52296 0.0
O617 O 0.34127 0.66542 0.56729 0.0
O618 O 0.32201 0.63596 0.53929 0.0
C619 C 0.27781 0.59492 0.54636 0.0
N620 N 0.27268 0.61215 0.53315 0.0
C621 C 0.23309 0.58439 0.52213 0.0
C622 C 0.23807 0.56617 0.53534 0.0
C623 C 0.26042 0.5716 0.54774 0.0
C624 C 0.25094 0.60748 0.5218 0.0
H625 H 0.2951 0.59888 0.55562 0.0
C626 C 0.33931 0.64552 0.55444 0.0
O627 O 0.3377 0.70813 0.5946 0.0
O628 O 0.31082 0.67251 0.60156 0.0
N629 N 0.26567 0.64778 0.50964 0.0
C630 C 0.26398 0.66693 0.49698 0.0
C631 C 0.24248 0.6648 0.48411 0.0
C632 C 0.22308 0.64276 0.48398 0.0
C633 C 0.22541 0.62303 0.49668 0.0
C634 C 0.2472 0.62635 0.50938 0.0
H635 H 0.27885 0.68381 0.49679 0.0
O636 O 0.28709 0.69587 0.57099 0.0
O637 O 0.28929 0.66045 0.55353 0.0
O638 O 0.32694 0.70369 0.54383 0.0
O639 O 0.31428 0.67462 0.51448 0.0
C640 C 0.20712 0.59999 0.49686 0.0
C641 C 0.21104 0.5806 0.50941 0.0
H642 H 0.22478 0.54806 0.53628 0.0
H643 H 0.26433 0.55772 0.55812 0.0
H644 H 0.24091 0.68004 0.47422 0.0
H645 H 0.20655 0.64111 0.47394 0.0
H646 H 0.19005 0.5969 0.48727 0.0
H647 H 0.19686 0.56293 0.50936 0.0
Mn648 Mn 0.45009 0.53795 0.7393 0.0
Mn649 Mn 0.41159 0.50525 0.77505 0.0
C650 C 0.43648 0.49451 0.73391 0.0
C651 C 0.45736 0.5597 0.70731 0.0
C652 C 0.46508 0.52854 0.78701 0.0
O653 O 0.43855 0.5653 0.75481 0.0
O654 O 0.41065 0.5407 0.77425 0.0
C655 C 0.36786 0.50652 0.74808 0.0
N656 N 0.37965 0.49283 0.75985 0.0
C657 C 0.34293 0.45901 0.7615 0.0
C658 C 0.33061 0.47287 0.74922 0.0
C659 C 0.34317 0.49643 0.74212 0.0
C660 C 0.36794 0.46915 0.76481 0.0
H661 H 0.3772 0.52526 0.74368 0.0
C662 C 0.42143 0.56211 0.76737 0.0
O663 O 0.47354 0.56363 0.72409 0.0
O664 O 0.43653 0.54392 0.70956 0.0
N665 N 0.40925 0.47023 0.78045 0.0
C666 C 0.42708 0.46152 0.7979 0.0
C667 C 0.41494 0.4363 0.8144 0.0
C668 C 0.38403 0.42089 0.81009 0.0
C669 C 0.3669 0.43204 0.79039 0.0
C670 C 0.38126 0.4567 0.77574 0.0
H671 H 0.44563 0.47254 0.80121 0.0
O672 O 0.4556 0.5068 0.72512 0.0
O673 O 0.42566 0.50764 0.74566 0.0
O674 O 0.47034 0.53661 0.76795 0.0
O675 O 0.44374 0.51725 0.79152 0.0
C676 C 0.34209 0.42388 0.78622 0.0
C677 C 0.33062 0.43657 0.77135 0.0
H678 H 0.31136 0.46589 0.74563 0.0
H679 H 0.33367 0.50726 0.73287 0.0
H680 H 0.42607 0.4309 0.82712 0.0
H681 H 0.37559 0.40603 0.82041 0.0
H682 H 0.33162 0.40798 0.79441 0.0
H683 H 0.3113 0.42951 0.76848 0.0
Mn684 Mn 0.67451 0.02725 0.76583 0.0
Mn685 Mn 0.71873 0.05378 0.80674 0.0
C686 C 0.69438 0.06996 0.76737 0.0
C687 C 0.65624 1.00567 0.73187 0.0
C688 C 0.66767 0.04645 0.81352 0.0
O689 O 0.68157 0.99623 0.77701 0.0
O690 O 0.70587 0.01656 0.80699 0.0
C691 C 0.75234 0.03002 0.78597 0.0
N692 N 0.74735 0.0511 0.79461 0.0
C693 C 0.78733 0.07712 0.79059 0.0
C694 C 0.79288 0.05571 0.78166 0.0
C695 C 0.77523 0.03209 0.77918 0.0
C696 C 0.76394 0.07406 0.79631 0.0
H697 H 0.73903 1.01172 0.78434 0.0
C698 C 0.69327 0.99624 0.79563 0.0
O699 O 0.6448 1.0056 0.74957 0.0
O700 O 0.67909 0.01762 0.73395 0.0
N701 N 0.73421 0.08954 0.81012 0.0
C702 C 0.7271 0.10755 0.8219 0.0
C703 C 0.74293 0.13209 0.82664 0.0
C704 C 0.76642 0.13751 0.82045 0.0
C705 C 0.77395 0.11823 0.80984 0.0
C706 C 0.75714 0.09432 0.80494 0.0
H707 H 0.70942 0.1032 0.82769 0.0
O708 O 0.67314 0.06069 0.75711 0.0
O709 O 0.70435 0.05389 0.77583 0.0
O710 O 0.66045 0.033 0.79501 0.0
O711 O 0.68972 0.05749 0.8197 0.0
C712 C 0.79772 0.12161 0.80466 0.0
C713 C 0.80429 0.10121 0.79463 0.0
H714 H 0.81068 0.05715 0.77684 0.0
H715 H 0.77936 0.01545 0.77234 0.0
H716 H 0.73716 0.14665 0.83543 0.0
H717 H 0.7787 0.15636 0.82445 0.0
H718 H 0.8111 0.13989 0.8083 0.0
H719 H 0.82257 0.10411 0.79059 0.0
Mn720 Mn 0.81074 0.72383 0.04782 0.0
Mn721 Mn 0.80326 0.6725 1.01085 0.0
C722 C 0.77238 0.69476 0.03755 0.0
C723 C 0.81633 0.74294 0.08619 0.0
C724 C 0.81472 0.72615 0.99572 0.0
O725 O 0.84451 0.71881 0.04923 0.0
O726 O 0.83614 0.68301 0.02591 0.0
C727 C 0.80728 0.63497 0.04294 0.0
N728 N 0.79449 0.64233 0.02626 0.0
C729 C 0.76192 0.60392 0.02594 0.0
C730 C 0.77474 0.59595 0.04313 0.0
C731 C 0.7975 0.61157 0.05168 0.0
C732 C 0.77254 0.62749 0.01796 0.0
H733 H 0.82478 0.6469 0.04958 0.0
C734 C 0.85038 0.70016 0.03986 0.0
O735 O 0.82107 0.7562 0.06901 0.0
O736 O 0.8091 0.71865 0.0813 0.0
N737 N 0.77178 0.66033 0.99574 0.0
C738 C 0.76143 0.67117 0.9797 0.0
C739 C 0.73884 0.65778 0.96908 0.0
C740 C 0.72713 0.63342 0.97505 0.0
C741 C 0.73788 0.62287 0.99195 0.0
C742 C 0.76062 0.63692 1.00166 0.0
H743 H 0.77046 0.68976 0.97481 0.0
O744 O 0.77462 0.71793 0.04501 0.0
O745 O 0.79248 0.69005 0.03542 0.0
O746 O 0.8144 0.73723 0.0153 0.0
O747 O 0.8116 0.7023 0.99282 0.0
C748 C 0.72695 0.59896 0.99953 0.0
C749 C 0.73889 0.58958 0.01663 0.0
H750 H 0.76725 0.57793 0.04994 0.0
H751 H 0.80749 0.60556 0.06497 0.0
H752 H 0.73055 0.66612 0.95618 0.0
H753 H 0.70984 0.62304 0.96657 0.0
H754 H 0.70929 0.58774 0.99245 0.0
H755 H 0.73019 0.57132 0.0225 0.0
Mn756 Mn 0.97285 0.55707 0.8201 0.0
Mn757 Mn 0.92431 0.54068 0.84951 0.0
C758 C 0.94846 0.51576 0.81693 0.0
C759 C 0.99275 0.57274 0.78968 0.0
C760 C 0.97462 0.54999 0.87023 0.0
O761 O 0.96767 0.59095 0.82855 0.0
O762 O 0.93512 0.57786 0.84779 0.0
C763 C 0.89062 0.5544 0.81722 0.0
N764 N 0.89645 0.53682 0.82953 0.0
C765 C 0.85979 0.50499 0.81574 0.0
C766 C 0.85332 0.52279 0.80302 0.0
C767 C 0.86884 0.54758 0.80372 0.0
C768 C 0.88173 0.51288 0.82886 0.0
H769 H 0.90251 0.57347 0.81765 0.0
C770 C 0.95142 0.59517 0.8399 0.0
O771 O 1.00396 0.57414 0.80932 0.0
O772 O 0.96968 0.56232 0.78766 0.0
N773 N 0.91165 0.50513 0.85231 0.0
C774 C 0.92083 0.49012 0.86514 0.0
C775 C 0.9074 0.46479 0.86646 0.0
C776 C 0.8847 0.45519 0.85459 0.0
C777 C 0.87568 0.47097 0.84145 0.0
C778 C 0.88967 0.49617 0.84112 0.0
H779 H 0.93819 0.49748 0.87441 0.0
O780 O 0.97059 0.52075 0.81226 0.0
O781 O 0.9414 0.53503 0.82343 0.0
O782 O 0.98439 0.55493 0.85213 0.0
O783 O 0.95203 0.54395 0.87144 0.0
C784 C 0.85337 0.46267 0.82862 0.0
C785 C 0.84548 0.47963 0.81569 0.0
H786 H 0.83656 0.51758 0.79255 0.0
H787 H 0.86404 0.56141 0.79387 0.0
H788 H 0.91449 0.4527 0.87663 0.0
H789 H 0.87435 0.43566 0.85567 0.0
H790 H 0.84224 0.44321 0.82843 0.0
H791 H 0.82843 0.47296 0.80569 0.0
Mn792 Mn 0.81147 0.42421 0.51339 0.0
Mn793 Mn 0.8219 0.47023 0.47801 0.0
C794 C 0.84984 0.44351 0.50433 0.0
C795 C 0.81023 0.4111 0.54942 0.0
C796 C 0.7992 0.41453 0.46276 0.0
O797 O 0.78162 0.43578 0.5142 0.0
O798 O 0.7914 0.468 0.49175 0.0
C799 C 0.82969 0.51461 0.51104 0.0
N800 N 0.83788 0.50201 0.49463 0.0
C801 C 0.87626 0.53386 0.4986 0.0
C802 C 0.8681 0.54731 0.51533 0.0
C803 C 0.84472 0.53763 0.52157 0.0
C804 C 0.86037 0.51117 0.48849 0.0
H805 H 0.81191 0.50706 0.51622 0.0
C806 C 0.77754 0.45457 0.50503 0.0
O807 O 0.79911 0.39564 0.53229 0.0
O808 O 0.82023 0.43449 0.54572 0.0
N809 N 0.85141 0.47422 0.46461 0.0
C810 C 0.85706 0.45818 0.44924 0.0
C811 C 0.87998 0.46485 0.44154 0.0
C812 C 0.89689 0.48784 0.44981 0.0
C813 C 0.89076 0.50394 0.46578 0.0
C814 C 0.8675 0.4965 0.47254 0.0
H815 H 0.84425 0.44036 0.44296 0.0
O816 O 0.84427 0.42075 0.51082 0.0
O817 O 0.83246 0.45346 0.50245 0.0
O818 O 0.80026 0.40658 0.48217 0.0
O819 O 0.80624 0.43801 0.45927 0.0
C820 C 0.90694 0.52685 0.47553 0.0
C821 C 0.89971 0.54179 0.49195 0.0
H822 H 0.87973 0.56493 0.52367 0.0
H823 H 0.83837 0.54777 0.53462 0.0
H824 H 0.88465 0.45222 0.42935 0.0
H825 H 0.9146 0.49285 0.44392 0.0
H826 H 0.92509 0.53301 0.47072 0.0
H827 H 0.91241 0.5592 0.49953 0.0
Mn828 Mn 0.69403 0.54646 0.33779 0.0
Mn829 Mn 0.73591 0.56898 0.38106 0.0
C830 C 0.71242 0.58945 0.34453 0.0
C831 C 0.68334 0.53208 0.30032 0.0
C832 C 0.68304 0.54667 0.38634 0.0
O833 O 0.70425 0.51572 0.3454 0.0
O834 O 0.73565 0.53395 0.37111 0.0
C835 C 0.77971 0.57187 0.35809 0.0
N836 N 0.76647 0.58353 0.37021 0.0
C837 C 0.79567 0.62424 0.36924 0.0
C838 C 0.80979 0.61257 0.35709 0.0
C839 C 0.80174 0.58628 0.35145 0.0
C840 C 0.77402 0.60884 0.37568 0.0
H841 H 0.77334 0.55181 0.35321 0.0
C842 C 0.72236 0.51498 0.35817 0.0
O843 O 0.66802 0.52638 0.31528 0.0
O844 O 0.70516 0.54493 0.30737 0.0
N845 N 0.73759 0.60305 0.39108 0.0
C846 C 0.72096 0.61166 0.40116 0.0
C847 C 0.72575 0.63774 0.40697 0.0
C848 C 0.74754 0.65468 0.40233 0.0
C849 C 0.76435 0.6454 0.39186 0.0
C850 C 0.75871 0.61919 0.38668 0.0
H851 H 0.7041 0.59876 0.40462 0.0
O852 O 0.69147 0.58127 0.33346 0.0
O853 O 0.72099 0.5721 0.35189 0.0
O854 O 0.67614 0.54426 0.36556 0.0
O855 O 0.70501 0.55493 0.39403 0.0
C856 C 0.78624 0.66119 0.3859 0.0
C857 C 0.80187 0.65062 0.37459 0.0
H858 H 0.82665 0.62367 0.35168 0.0
H859 H 0.81237 0.57717 0.34181 0.0
H860 H 0.71263 0.64477 0.41492 0.0
H861 H 0.75107 0.6748 0.40666 0.0
H862 H 0.79107 0.68154 0.38966 0.0
H863 H 0.81846 0.66301 0.36975 0.0
Tb864 Tb 0.09026 0.06829 0.04808 0.0
Tb865 Tb 0.04146 0.02961 0.02194 0.0
C866 C 0.04112 0.05666 0.06909 0.0
C867 C 0.15413 0.09451 0.06202 0.0
C868 C 0.19482 0.08067 0.05063 0.0
C869 C 0.18452 0.07368 0.07068 0.0
C870 C 0.16441 0.08059 0.07636 0.0
C871 C 0.16553 0.10309 0.04284 0.0
C872 C 0.18557 0.09616 0.03717 0.0
C873 C 0.12999 0.0968 0.0652 0.0
O874 O 0.09402 0.0309 0.05229 0.0
O875 O 0.05467 1.00682 0.04571 0.0
O876 O 0.0697 0.02019 1.00552 0.0
O877 O 0.0987 0.05814 0.01457 0.0
O878 O 1.01009 0.99988 0.02365 0.0
O879 O 1.01788 0.01717 0.99267 0.0
O880 O 0.04694 0.06655 1.0076 0.0
O881 O 0.06788 0.09174 0.03827 0.0
O882 O 0.06429 0.0607 0.07293 0.0
O883 O 0.03019 0.05001 0.04892 0.0
C884 C 0.0769 1.00977 0.05379 0.0
O885 O 0.11843 0.10181 0.04755 0.0
O886 O 0.11615 0.079 0.0757 0.0
C887 C 0.09066 0.03595 1.00298 0.0
C888 C 0.97897 1.01105 1.00466 0.0
C889 C 0.94667 0.03735 0.01691 0.0
C890 C 0.94794 0.01605 0.02789 0.0
C891 C 0.96374 1.0028 0.02162 0.0
C892 C 0.97582 0.03074 0.99216 0.0
C893 C 0.95975 0.04375 0.99823 0.0
C894 C 1.00122 1.00363 1.00408 0.0
C895 C 0.05446 0.08881 0.01926 0.0
H896 H 0.19155 0.06219 0.08164 0.0
H897 H 0.15622 0.07393 0.0914 0.0
H898 H 0.15821 0.11397 0.03147 0.0
H899 H 0.19293 0.10176 0.02152 0.0
H900 H 0.93764 1.01049 0.04207 0.0
H901 H 0.96555 0.98753 0.03141 0.0
H902 H 0.98712 0.03749 0.97889 0.0
H903 H 0.95895 0.06005 0.98942 0.0
Tb904 Tb 0.30335 0.81574 0.31144 0.0
Tb905 Tb 0.32248 0.79642 0.26555 0.0
C906 C 0.28074 0.82219 0.2635 0.0
C907 C 0.29905 0.8271 0.37145 0.0
C908 C 0.31753 0.81186 0.41083 0.0
C909 C 0.29276 0.80444 0.40494 0.0
C910 C 0.28358 0.81221 0.38552 0.0
C911 C 0.32369 0.83625 0.37829 0.0
C912 C 0.33281 0.82896 0.39809 0.0
C913 C 0.28982 0.82835 0.34823 0.0
O914 O 0.27663 0.78202 0.29592 0.0
O915 O 0.3013 0.76258 0.27941 0.0
O916 O 0.34817 0.79292 0.29227 0.0
O917 O 0.32721 0.79424 0.32337 0.0
O918 O 0.31543 0.7736 0.23502 0.0
O919 O 0.35022 0.80052 0.24428 0.0
O920 O 0.3331 0.83752 0.26927 0.0
O921 O 0.33824 0.84159 0.30729 0.0
O922 O 0.28605 0.83161 0.28464 0.0
O923 O 0.29001 0.80525 0.25477 0.0
C924 C 0.28093 0.76145 0.28776 0.0
O925 O 0.30333 0.84459 0.33611 0.0
O926 O 0.28079 0.80621 0.33717 0.0
C927 C 0.34548 0.7901 0.31375 0.0
C928 C 0.33256 0.79956 0.20741 0.0
C929 C 0.31857 0.82352 0.17083 0.0
C930 C 0.31471 0.79711 0.16919 0.0
C931 C 0.32165 0.78525 0.18734 0.0
C932 C 0.3371 0.82604 0.20877 0.0
C933 C 0.33027 0.83787 0.19067 0.0
C934 C 0.33546 0.78675 0.22786 0.0
C935 C 0.34338 0.85062 0.28801 0.0
H936 H 0.28061 0.79154 0.41476 0.0
H937 H 0.26455 0.80492 0.38057 0.0
H938 H 0.33607 0.8477 0.36771 0.0
H939 H 0.35191 0.83528 0.40259 0.0
H940 H 0.306 0.78557 0.15401 0.0
H941 H 0.31765 0.7648 0.186 0.0
H942 H 0.34502 0.8376 0.22417 0.0
H943 H 0.33323 0.85817 0.19261 0.0
Tb944 Tb 0.53823 0.04348 0.56457 0.0
Tb945 Tb 0.59254 0.04585 0.54791 0.0
C946 C 0.57551 0.02502 0.59362 0.0
C947 C 0.4851 0.06569 0.57244 0.0
C948 C 0.46172 0.10383 0.56857 0.0
C949 C 0.46218 0.09178 0.58856 0.0
C950 C 0.47367 0.07294 0.59043 0.0
C951 C 0.48483 0.07776 0.55245 0.0
C952 C 0.47316 0.09648 0.55051 0.0
C953 C 0.49797 0.04639 0.57519 0.0
O954 O 0.55822 0.08346 0.56739 0.0
O955 O 0.59744 0.08326 0.56543 0.0
O956 O 0.57838 0.06689 0.52428 0.0
O957 O 0.53841 0.04954 0.52919 0.0
O958 O 0.62926 0.05301 0.557 0.0
O959 O 0.6141 0.03761 0.52354 0.0
O960 O 0.5665 1.01193 0.53109 0.0
O961 O 0.53692 1.004 0.55549 0.0
O962 O 0.55808 0.03546 0.59369 0.0
O963 O 0.58696 0.02299 0.57597 0.0
C964 C 0.58133 0.09494 0.56967 0.0
O965 O 0.5009 0.03371 0.55705 0.0
O966 O 0.51741 0.05346 0.58883 0.0
C967 C 0.55561 0.06223 0.51767 0.0
C968 C 0.64469 0.02242 0.53972 0.0
C969 C 0.66827 0.98464 0.5442 0.0
C970 C 0.6455 0.98142 0.55198 0.0
C971 C 0.63383 1.00009 0.54972 0.0
C972 C 0.66729 0.0257 0.53189 0.0
C973 C 0.67896 1.00705 0.53408 0.0
C974 C 0.63287 0.04258 0.53797 0.0
C975 C 0.54798 0.99636 0.53918 0.0
H976 H 0.45334 0.09665 0.60272 0.0
H977 H 0.47372 0.06405 0.60605 0.0
H978 H 0.49377 0.07286 0.53837 0.0
H979 H 0.47341 0.10549 0.53494 0.0
H980 H 0.63657 0.96437 0.55963 0.0
H981 H 0.61635 0.99713 0.55587 0.0
H982 H 0.67606 0.04284 0.52426 0.0
H983 H 0.6966 1.01045 0.52822 0.0
Tb984 Tb 0.33672 0.28614 0.79007 0.0
Tb985 Tb 0.28771 0.30446 0.78884 0.0
C986 C 0.28852 0.25125 0.8043 0.0
C987 C 0.3953 0.28065 0.77484 0.0
C988 C 0.43364 0.29203 0.74721 0.0
C989 C 0.42244 0.26685 0.75157 0.0
C990 C 0.40352 0.26125 0.76535 0.0
C991 C 0.40609 0.30577 0.77004 0.0
C992 C 0.42515 0.31139 0.75648 0.0
C993 C 0.37512 0.27431 0.78914 0.0
O994 O 0.32633 0.2847 0.75406 0.0
O995 O 0.28783 0.28766 0.75409 0.0
O996 O 0.31237 0.33169 0.77094 0.0
O997 O 0.3475 0.32679 0.7864 0.0
O998 O 0.2504 0.29472 0.78211 0.0
O999 O 0.27087 0.3324 0.79603 0.0
O1000 O 0.30716 0.31851 0.8223 0.0
O1001 O 0.3297 0.29101 0.82551 0.0
O1002 O 0.30774 0.25208 0.79397 0.0
O1003 O 0.28024 0.27068 0.80654 0.0
C1004 C 0.30564 0.28353 0.74334 0.0
O1005 O 0.37253 0.29269 0.80249 0.0
O1006 O 0.35471 0.26039 0.77914 0.0
C1007 C 0.33571 0.3392 0.77456 0.0
C1008 C 0.23281 0.31469 0.80902 0.0
C1009 C 0.19971 0.30953 0.84211 0.0
C1010 C 0.1937 0.31482 0.82014 0.0
C1011 C 0.21008 0.31737 0.80381 0.0
C1012 C 0.23901 0.30949 0.83089 0.0
C1013 C 0.22265 0.30698 0.84728 0.0
C1014 C 0.24952 0.31639 0.79137 0.0
C1015 C 0.31955 0.30706 0.83487 0.0
H1016 H 0.42871 0.25157 0.74479 0.0
H1017 H 0.39534 0.24173 0.76868 0.0
H1018 H 0.39987 0.3211 0.77679 0.0
H1019 H 0.43324 0.33094 0.7532 0.0
H1020 H 0.17612 0.31647 0.81537 0.0
H1021 H 0.20487 0.32115 0.78699 0.0
H1022 H 0.25646 0.30724 0.83526 0.0
H1023 H 0.22804 0.30319 0.86403 0.0
Tb1024 Tb 0.06723 0.06022 0.56881 0.0
Tb1025 Tb 0.07234 0.02585 0.52637 0.0
C1026 C 1.02315 0.01881 0.54561 0.0
C1027 C 0.07406 0.0846 0.62723 0.0
C1028 C 0.08995 0.07611 0.67052 0.0
C1029 C 0.06943 0.08415 0.66714 0.0
C1030 C 0.06155 0.0884 0.6456 0.0
C1031 C 0.09483 0.07709 0.63065 0.0
C1032 C 0.10277 0.07302 0.65212 0.0
C1033 C 0.06401 0.08537 0.60431 0.0
O1034 O 0.06833 0.024 0.58369 0.0
O1035 O 0.07836 1.00173 0.55428 0.0
O1036 O 0.10427 0.05837 0.53156 0.0
O1037 O 0.10492 0.06269 0.56926 0.0
O1038 O 0.05743 1.00484 0.49594 0.0
O1039 O 0.09433 1.00977 0.5079 0.0
O1040 O 0.06233 0.05843 0.51132 0.0
O1041 O 0.06972 0.0875 0.54179 0.0
O1042 O 0.03128 0.04294 0.55258 0.0
O1043 O 0.0376 1.00712 0.53755 0.0
C1044 C 0.07372 1.00341 0.57577 0.0
O1045 O 0.07948 0.09399 0.58989 0.0
O1046 O 0.04782 0.06458 0.59621 0.0
C1047 C 0.11589 0.06727 0.55104 0.0
C1048 C 0.08531 1.01301 0.46955 0.0
C1049 C 0.0878 0.0335 0.42778 0.0
C1050 C 0.09377 0.04958 0.44768 0.0
C1051 C 0.09266 0.0394 0.46843 0.0
C1052 C 0.08102 0.99695 0.44975 0.0
C1053 C 0.08244 1.00716 0.42893 0.0
C1054 C 0.07811 1.00274 0.49081 0.0
C1055 C 0.06566 0.08236 0.51963 0.0
H1056 H 0.0593 0.08677 0.6811 0.0
H1057 H 0.04531 0.09387 0.64318 0.0
H1058 H 0.10448 0.07352 0.61662 0.0
H1059 H 0.1184 0.06643 0.65416 0.0
H1060 H 0.09789 0.06993 0.44718 0.0
H1061 H 0.09597 0.0521 0.48357 0.0
H1062 H 0.07511 0.97655 0.45035 0.0
H1063 H 0.07747 0.9944 0.41377 0.0
Tb1064 Tb 0.33416 0.82124 0.78288 0.0
Tb1065 Tb 0.30569 0.77102 0.80285 0.0
C1066 C 0.33033 0.76942 0.75895 0.0
C1067 C 0.34174 0.88079 0.75922 0.0
C1068 C 0.31363 0.91409 0.76216 0.0
C1069 C 0.3042 0.88992 0.75067 0.0
C1070 C 0.3182 0.87354 0.74907 0.0
C1071 C 0.35204 0.90583 0.76844 0.0
C1072 C 0.33814 0.92246 0.76972 0.0
C1073 C 0.35303 0.86118 0.76492 0.0
O1074 O 0.29609 0.81202 0.76607 0.0
O1075 O 0.27422 0.78284 0.7879 0.0
O1076 O 0.30525 0.80047 0.82848 0.0
O1077 O 0.31387 0.83422 0.80713 0.0
O1078 O 0.28447 0.73292 0.79771 0.0
O1079 O 0.29817 0.74998 0.83094 0.0
O1080 O 0.34513 0.77386 0.81086 0.0
O1081 O 0.36267 0.8159 0.80801 0.0
O1082 O 0.34526 0.79128 0.76638 0.0
O1083 O 0.31025 0.76095 0.76809 0.0
C1084 C 0.27455 0.79857 0.77177 0.0
O1085 O 0.35593 0.85904 0.78644 0.0
O1086 O 0.34418 0.83906 0.75359 0.0
C1087 C 0.30625 0.82393 0.8253 0.0
C1088 C 0.30263 0.70976 0.82073 0.0
C1089 C 0.33338 0.67951 0.81503 0.0
C1090 C 0.34073 0.70176 0.82956 0.0
C1091 C 0.32552 0.71671 0.83243 0.0
C1092 C 0.29455 0.68645 0.80767 0.0
C1093 C 0.3098 0.67141 0.80486 0.0
C1094 C 0.28959 0.72878 0.81833 0.0
C1095 C 0.36453 0.79405 0.81492 0.0
H1096 H 0.28547 0.88268 0.74462 0.0
H1097 H 0.30988 0.85444 0.7416 0.0
H1098 H 0.37021 0.91188 0.77626 0.0
H1099 H 0.34619 0.94127 0.77801 0.0
H1100 H 0.35866 0.7082 0.83795 0.0
H1101 H 0.33239 0.73454 0.84267 0.0
H1102 H 0.27708 0.68075 0.79837 0.0
H1103 H 0.30367 0.65434 0.79352 0.0
Tb1104 Tb 0.57212 0.03331 0.0707 0.0
Tb1105 Tb 0.55528 0.05489 0.02697 0.0
C1106 C 0.60809 0.07257 0.04505 0.0
C1107 C 0.59272 0.03698 0.12852 0.0
C1108 C 0.5887 0.06778 0.16604 0.0
C1109 C 0.58606 0.04188 0.16775 0.0
C1110 C 0.58789 0.0265 0.14899 0.0
C1111 C 0.59822 0.06335 0.12759 0.0
C1112 C 0.5961 0.07866 0.14622 0.0
C1113 C 0.58565 0.02065 0.10754 0.0
O1114 O 0.55787 0.06466 0.08395 0.0
O1115 O 0.56014 0.08733 0.05327 0.0
O1116 O 0.52426 0.03768 0.04468 0.0
O1117 O 0.53856 1.00684 0.05692 0.0
O1118 O 0.55494 0.08591 1.00883 0.0
O1119 O 0.53232 0.04839 0.9973 0.0
O1120 O 0.56045 0.01785 0.01272 0.0
O1121 O 0.57894 1.00684 0.04386 0.0
O1122 O 0.60088 0.06613 0.06457 0.0
O1123 O 0.59377 0.06484 0.02669 0.0
C1124 C 0.55817 0.08628 0.07514 0.0
O1125 O 0.56318 0.0165 0.10052 0.0
O1126 O 0.59969 0.02671 0.09142 0.0
C1127 C 0.52048 0.01464 0.05057 0.0
C1128 C 0.55047 0.07466 0.97046 0.0
C1129 C 0.56875 0.07758 0.92837 0.0
C1130 C 0.54533 0.07865 0.93057 0.0
C1131 C 0.53624 0.07724 0.95159 0.0
C1132 C 0.57394 0.07403 0.96835 0.0
C1133 C 0.58303 0.07555 0.94751 0.0
C1134 C 0.54092 0.07171 0.99231 0.0
C1135 C 0.57098 1.00208 0.02217 0.0
H1136 H 0.58011 0.033 0.18281 0.0
H1137 H 0.5833 1.00617 0.1499 0.0
H1138 H 0.60179 0.0718 0.11186 0.0
H1139 H 0.59824 0.09857 0.14454 0.0
H1140 H 0.53398 0.08014 0.91601 0.0
H1141 H 0.51804 0.07768 0.95305 0.0
H1142 H 0.5851 0.07182 0.98276 0.0
H1143 H 0.60092 0.07403 0.94628 0.0
Tb1144 Tb 0.30659 0.26881 0.2816 0.0
Tb1145 Tb 0.33029 0.32439 0.30127 0.0
C1146 C 0.31103 0.31185 0.24891 0.0
C1147 C 0.30754 0.20522 0.27077 0.0
C1148 C 0.3452 0.18722 0.28653 0.0
C1149 C 0.32301 0.17961 0.29565 0.0
C1150 C 0.30425 0.18842 0.28772 0.0
C1151 C 0.3288 0.2103 0.25989 0.0
C1152 C 0.3475 0.20138 0.26775 0.0
C1153 C 0.29243 0.2223 0.26912 0.0
O1154 O 0.3436 0.27724 0.26848 0.0
O1155 O 0.36266 0.3131 0.29101 0.0
O1156 O 0.32218 0.30307 0.33102 0.0
O1157 O 0.32647 0.26743 0.31413 0.0
O1158 O 0.33596 0.36281 0.29723 0.0
O1159 O 0.35226 0.35104 0.32634 0.0
O1160 O 0.29161 0.31927 0.30754 0.0
O1161 O 0.27526 0.27675 0.29853 0.0
O1162 O 0.29783 0.28933 0.25341 0.0
O1163 O 0.32599 0.32687 0.26478 0.0
C1164 C 0.36391 0.2954 0.27527 0.0
O1165 O 0.28831 0.23167 0.28836 0.0
O1166 O 0.29836 0.23983 0.25525 0.0
C1167 C 0.32485 0.28061 0.33275 0.0
C1168 C 0.33614 0.38554 0.33073 0.0
C1169 C 0.30247 0.41102 0.33986 0.0
C1170 C 0.2994 0.38652 0.34662 0.0
C1171 C 0.31613 0.37379 0.34202 0.0
C1172 C 0.34081 0.41113 0.32677 0.0
C1173 C 0.32408 0.42385 0.33134 0.0
C1174 C 0.34715 0.36984 0.31714 0.0
C1175 C 0.27304 0.29848 0.30782 0.0
H1176 H 0.32063 0.1681 0.3098 0.0
H1177 H 0.28802 0.18409 0.2963 0.0
H1178 H 0.33194 0.22307 0.24667 0.0
H1179 H 0.36437 0.20733 0.26029 0.0
H1180 H 0.28309 0.37647 0.35364 0.0
H1181 H 0.31213 0.35398 0.34515 0.0
H1182 H 0.35602 0.4204 0.31785 0.0
H1183 H 0.32693 0.44275 0.32595 0.0
Tb1184 Tb 0.56875 0.55866 0.06781 0.0
Tb1185 Tb 0.5713 0.52803 0.02219 0.0
C1186 C 0.52292 0.52105 0.04361 0.0
C1187 C 0.58025 0.57619 0.12729 0.0
C1188 C 0.60667 0.56231 0.16265 0.0
C1189 C 0.5842 0.54609 0.15414 0.0
C1190 C 0.57112 0.55293 0.13661 0.0
C1191 C 0.60201 0.59309 0.13681 0.0
C1192 C 0.61517 0.58616 0.15427 0.0
C1193 C 0.56937 0.58103 0.1057 0.0
O1194 O 0.56833 0.52095 0.07987 0.0
O1195 O 0.57719 0.50135 0.0482 0.0
O1196 O 0.60448 0.55913 0.02799 0.0
O1197 O 0.60596 0.55966 0.06572 0.0
O1198 O 0.5538 0.50763 0.99243 0.0
O1199 O 0.59145 0.51232 1.00093 0.0
O1200 O 0.56331 0.56308 1.00948 0.0
O1201 O 0.57044 0.58774 0.04286 0.0
O1202 O 0.53192 0.54419 0.05304 0.0
O1203 O 0.53666 0.50975 0.03374 0.0
C1204 C 0.57288 0.50093 0.0699 0.0
O1205 O 0.58443 0.59015 0.09106 0.0
O1206 O 0.55098 0.56293 0.0964 0.0
C1207 C 0.6166 0.56607 0.04756 0.0
C1208 C 0.57744 0.51041 0.96265 0.0
C1209 C 0.57075 0.52092 0.91799 0.0
C1210 C 0.57927 0.5409 0.93489 0.0
C1211 C 0.5825 0.53564 0.95722 0.0
C1212 C 0.57124 0.49069 0.94551 0.0
C1213 C 0.56788 0.49591 0.92328 0.0
C1214 C 0.57335 0.50407 0.98566 0.0
C1215 C 0.5666 0.5858 0.02052 0.0
H1216 H 0.57725 0.52757 0.16027 0.0
H1217 H 0.55443 0.53937 0.12968 0.0
H1218 H 0.60944 0.61113 0.13 0.0
H1219 H 0.63226 0.59922 0.16087 0.0
H1220 H 0.58131 0.56029 0.93115 0.0
H1221 H 0.58704 0.55105 0.97035 0.0
H1222 H 0.56708 0.47112 0.94949 0.0
H1223 H 0.56125 0.48027 0.91044 0.0
Tb1224 Tb 0.83778 0.31989 0.28745 0.0
Tb1225 Tb 0.80961 0.26442 0.29737 0.0
C1226 C 0.83726 0.27444 0.25457 0.0
C1227 C 0.84711 0.3866 0.28415 0.0
C1228 C 0.81721 0.4147 0.29895 0.0
C1229 C 0.81291 0.40224 0.27723 0.0
C1230 C 0.82767 0.38822 0.2699 0.0
C1231 C 0.8532 0.40181 0.3046 0.0
C1232 C 0.83825 0.41552 0.31205 0.0
C1233 C 0.8572 0.36529 0.28059 0.0
O1234 O 0.80107 0.31224 0.26852 0.0
O1235 O 0.77861 0.27811 0.28507 0.0
O1236 O 0.80696 0.28688 0.32745 0.0
O1237 O 0.81541 0.32559 0.31333 0.0
O1238 O 0.78598 0.22834 0.28664 0.0
O1239 O 0.80455 0.23581 0.31966 0.0
O1240 O 0.84892 0.26727 0.30471 0.0
O1241 O 0.86465 0.30995 0.31112 0.0
O1242 O 0.85068 0.29606 0.26449 0.0
O1243 O 0.81739 0.26223 0.26263 0.0
C1244 C 0.77949 0.29659 0.27159 0.0
O1245 O 0.86161 0.35529 0.29892 0.0
O1246 O 0.84646 0.34783 0.26452 0.0
C1247 C 0.80749 0.31073 0.32903 0.0
C1248 C 0.80739 0.20037 0.29798 0.0
C1249 C 0.84783 0.18504 0.28905 0.0
C1250 C 0.84058 0.1854 0.31094 0.0
C1251 C 0.82046 0.19291 0.31536 0.0
C1252 C 0.81293 0.19684 0.27572 0.0
C1253 C 0.83308 0.18946 0.27132 0.0
C1254 C 0.79397 0.21844 0.30355 0.0
C1255 C 0.86722 0.28711 0.31304 0.0
H1256 H 0.79734 0.40209 0.26636 0.0
H1257 H 0.82271 0.37712 0.25385 0.0
H1258 H 0.86826 0.40119 0.31582 0.0
H1259 H 0.84227 0.42508 0.32879 0.0
H1260 H 0.85118 0.18121 0.32484 0.0
H1261 H 0.81652 0.19525 0.33264 0.0
H1262 H 0.80308 0.20207 0.26184 0.0
H1263 H 0.83806 0.1891 0.25424 0.0
Tb1264 Tb 0.07386 0.53523 0.55633 0.0
Tb1265 Tb 0.05672 0.55444 0.51152 0.0
C1266 C 0.10935 0.57524 0.53159 0.0
C1267 C 0.07755 0.53031 0.61506 0.0
C1268 C 0.0663 0.55266 0.65451 0.0
C1269 C 0.08518 0.5417 0.65514 0.0
C1270 C 0.09084 0.53063 0.63543 0.0
C1271 C 0.05876 0.54125 0.61451 0.0
C1272 C 0.05324 0.55237 0.63399 0.0
C1273 C 0.08463 0.52173 0.59376 0.0
O1274 O 0.07154 0.57372 0.56885 0.0
O1275 O 0.05023 0.58163 0.53815 0.0
O1276 O 0.0309 0.51993 0.51874 0.0
O1277 O 0.03569 0.53098 0.55556 0.0
O1278 O 0.06227 0.56922 0.48036 0.0
O1279 O 0.02707 0.55915 0.49261 0.0
O1280 O 0.07144 0.52351 0.49903 0.0
O1281 O 0.07148 0.50237 0.53069 0.0
O1282 O 0.10621 0.55391 0.54104 0.0
O1283 O 0.0913 0.58101 0.52178 0.0
C1284 C 0.05974 0.58817 0.55932 0.0
O1285 O 0.06705 0.5078 0.57972 0.0
O1286 O 0.09902 0.53979 0.58404 0.0
C1287 C 1.02183 0.51921 0.53791 0.0
C1288 C 0.03017 0.54867 0.45458 0.0
C1289 C 0.02773 0.51986 0.41391 0.0
C1290 C 0.02709 0.54508 0.41398 0.0
C1291 C 0.02851 0.5595 0.43428 0.0
C1292 C 0.02783 0.52267 0.45444 0.0
C1293 C 0.02667 0.50833 0.4342 0.0
C1294 C 0.03937 0.56501 0.47529 0.0
C1295 C 0.0726 0.50269 0.50853 0.0
H1296 H 0.0954 0.54151 0.67083 0.0
H1297 H 0.10569 0.52269 0.63602 0.0
H1298 H 0.0486 0.5417 0.59887 0.0
H1299 H 0.0389 0.56105 0.63293 0.0
H1300 H 0.02821 0.5545 0.39859 0.0
H1301 H 0.03042 0.57956 0.43415 0.0
H1302 H 0.02911 0.51402 0.47003 0.0
H1303 H 0.02725 0.48897 0.43454 0.0
Tb1304 Tb 0.84715 0.79596 0.298 0.0
Tb1305 Tb 0.79685 0.81111 0.29523 0.0
C1306 C 0.79894 0.75564 0.29892 0.0
C1307 C 0.90242 0.78333 0.28033 0.0
C1308 C 0.93023 0.77913 0.24422 0.0
C1309 C 0.9056 0.76589 0.24276 0.0
C1310 C 0.89178 0.76815 0.26056 0.0
C1311 C 0.92705 0.79576 0.28219 0.0
C1312 C 0.94079 0.79379 0.26436 0.0
C1313 C 0.88797 0.78933 0.2979 0.0
O1314 O 0.83915 0.79744 0.26172 0.0
O1315 O 0.80006 0.79891 0.26 0.0
O1316 O 0.82464 0.84318 0.28478 0.0
O1317 O 0.85234 0.83514 0.3087 0.0
O1318 O 0.75973 0.80048 0.2864 0.0
O1319 O 0.77826 0.83727 0.30324 0.0
O1320 O 0.81122 0.81914 0.33075 0.0
O1321 O 0.83671 0.79436 0.33288 0.0
O1322 O 0.81877 0.76143 0.28902 0.0
O1323 O 0.79007 0.77331 0.30679 0.0
C1324 C 0.81877 0.79598 0.25011 0.0
O1325 O 0.88408 0.81123 0.29678 0.0
O1326 O 0.86876 0.77172 0.30207 0.0
C1327 C 0.84584 0.85056 0.2959 0.0
C1328 C 0.73924 0.81724 0.31311 0.0
C1329 C 0.70375 0.80968 0.3441 0.0
C1330 C 0.72651 0.80716 0.35025 0.0
C1331 C 0.74405 0.81087 0.33492 0.0
C1332 C 0.71662 0.81972 0.30688 0.0
C1333 C 0.69908 0.81597 0.32215 0.0
C1334 C 0.75747 0.82103 0.29669 0.0
C1335 C 0.82426 0.80788 0.34273 0.0
H1336 H 0.89684 0.75408 0.22774 0.0
H1337 H 0.87271 0.75865 0.25861 0.0
H1338 H 0.93553 0.80792 0.29715 0.0
H1339 H 0.9595 0.80471 0.26611 0.0
H1340 H 0.73091 0.80262 0.36702 0.0
H1341 H 0.7614 0.8088 0.34009 0.0
H1342 H 0.71247 0.82444 0.2901 0.0
H1343 H 0.68169 0.81765 0.31661 0.0
Tb1344 Tb 0.80158 0.30619 0.8037 0.0
Tb1345 Tb 0.83006 0.28689 0.76423 0.0
C1346 C 0.78672 0.30938 0.75324 0.0
C1347 C 0.77954 0.30563 0.85774 0.0
C1348 C 0.78724 0.2845 0.89806 0.0
C1349 C 0.78553 0.30939 0.89842 0.0
C1350 C 0.78182 0.31993 0.87834 0.0
C1351 C 0.78005 0.28042 0.85746 0.0
C1352 C 0.78391 0.27 0.87736 0.0
C1353 C 0.78134 0.31786 0.83664 0.0
O1354 O 0.77993 0.26868 0.79014 0.0
O1355 O 0.80817 0.25213 0.77594 0.0
O1356 O 0.85129 0.28634 0.79573 0.0
O1357 O 0.82198 0.28395 0.81994 0.0
O1358 O 0.82928 0.26449 0.73434 0.0
O1359 O 0.862 0.29185 0.7486 0.0
O1360 O 0.83874 0.3279 0.76589 0.0
O1361 O 0.83573 0.33479 0.80312 0.0
O1362 O 0.78954 0.32095 0.77356 0.0
O1363 O 0.79738 0.29207 0.7483 0.0
C1364 C 0.78679 0.24932 0.78272 0.0
O1365 O 0.80313 0.32994 0.83288 0.0
O1366 O 0.76974 0.30369 0.81891 0.0
C1367 C 0.84342 0.28284 0.81576 0.0
C1368 C 0.85127 0.29224 0.71043 0.0
C1369 C 0.85147 0.3213 0.67358 0.0
C1370 C 0.86119 0.30085 0.67235 0.0
C1371 C 0.86123 0.28639 0.69087 0.0
C1372 C 0.84109 0.31221 0.71109 0.0
C1373 C 0.84127 0.32662 0.69301 0.0
C1374 C 0.85063 0.27814 0.7305 0.0
C1375 C 0.84475 0.34243 0.78459 0.0
H1376 H 0.78775 0.32094 0.91413 0.0
H1377 H 0.78185 0.33954 0.87883 0.0
H1378 H 0.77886 0.26916 0.84173 0.0
H1379 H 0.7856 0.251 0.87633 0.0
H1380 H 0.86902 0.29643 0.65734 0.0
H1381 H 0.86898 0.27086 0.68997 0.0
H1382 H 0.8328 0.31673 0.72565 0.0
H1383 H 0.83328 0.34199 0.69417 0.0
Tb1384 Tb 0.80973 0.77127 0.7909 0.0
Tb1385 Tb 0.83084 0.82906 0.80374 0.0
C1386 C 0.81019 0.80901 0.75377 0.0
C1387 C 0.81227 0.70778 0.78221 0.0
C1388 C 0.84893 0.68855 0.79845 0.0
C1389 C 0.82611 0.68036 0.80631 0.0
C1390 C 0.80788 0.68987 0.7982 0.0
C1391 C 0.83436 0.7139 0.77271 0.0
C1392 C 0.85254 0.70439 0.7808 0.0
C1393 C 0.79681 0.72437 0.78001 0.0
O1394 O 0.84761 0.77917 0.77871 0.0
O1395 O 0.864 0.82025 0.79288 0.0
O1396 O 0.82784 0.81256 0.83628 0.0
O1397 O 0.82645 0.77218 0.82525 0.0
O1398 O 0.83153 0.86584 0.79706 0.0
O1399 O 0.85378 0.8594 0.82497 0.0
O1400 O 0.79178 0.82217 0.81052 0.0
O1401 O 0.77789 0.77899 0.80721 0.0
O1402 O 0.79702 0.78887 0.76249 0.0
O1403 O 0.82695 0.82583 0.76679 0.0
C1404 C 0.86663 0.79997 0.78127 0.0
O1405 O 0.79274 0.73431 0.79902 0.0
O1406 O 0.80228 0.74129 0.76555 0.0
C1407 C 0.82805 0.7899 0.84147 0.0
C1408 C 0.83285 0.88962 0.83028 0.0
C1409 C 0.79362 0.90564 0.8408 0.0
C1410 C 0.79693 0.88403 0.84976 0.0
C1411 C 0.81657 0.87605 0.84458 0.0
C1412 C 0.83142 0.91323 0.82429 0.0
C1413 C 0.8118 0.92124 0.82954 0.0
C1414 C 0.84462 0.87565 0.81572 0.0
C1415 C 0.77429 0.80113 0.81354 0.0
H1416 H 0.8227 0.66758 0.81952 0.0
H1417 H 0.79102 0.68485 0.80575 0.0
H1418 H 0.83837 0.72764 0.76032 0.0
H1419 H 0.86992 0.71091 0.77434 0.0
H1420 H 0.78301 0.87183 0.85848 0.0
H1421 H 0.81724 0.85768 0.84931 0.0
H1422 H 0.84364 0.92381 0.81309 0.0
H1423 H 0.80936 0.93794 0.82241 0.0
Tb1424 Tb 0.58008 0.567 0.55105 0.0
Tb1425 Tb 0.52998 0.52561 0.52922 0.0
C1426 C 0.53234 0.5626 0.57264 0.0
C1427 C 0.64313 0.58343 0.56474 0.0
C1428 C 0.67382 0.55329 0.55712 0.0
C1429 C 0.66284 0.55295 0.57733 0.0
C1430 C 0.64763 0.56782 0.58109 0.0
C1431 C 0.65608 0.58575 0.54565 0.0
C1432 C 0.67111 0.57075 0.54181 0.0
C1433 C 0.62182 0.59269 0.56507 0.0
O1434 O 0.5755 0.53237 0.56847 0.0
O1435 O 0.55209 0.50268 0.54163 0.0
O1436 O 0.55355 0.53056 0.50275 0.0
O1437 O 0.58884 0.5431 0.52495 0.0
O1438 O 0.49964 0.49589 0.53475 0.0
O1439 O 0.5047 0.50915 0.50188 0.0
O1440 O 0.52587 0.56224 0.52133 0.0
O1441 O 0.5646 0.58864 0.52801 0.0
O1442 O 0.55361 0.5776 0.56975 0.0
O1443 O 0.52316 0.54025 0.56163 0.0
C1444 C 0.56731 0.50873 0.55968 0.0
O1445 O 0.61187 0.59444 0.54533 0.0
O1446 O 0.60577 0.58209 0.57845 0.0
C1447 C 0.57665 0.53443 0.50556 0.0
C1448 C 0.46742 0.50574 0.51613 0.0
C1449 C 0.43797 0.53496 0.52932 0.0
C1450 C 0.45085 0.54058 0.51051 0.0
C1451 C 0.46523 0.52591 0.50376 0.0
C1452 C 0.45247 0.49858 0.53352 0.0
C1453 C 0.4378 0.51316 0.5401 0.0
C1454 C 0.48917 0.49748 0.51521 0.0
C1455 C 0.5422 0.58404 0.51967 0.0
H1456 H 0.66517 0.54042 0.5899 0.0
H1457 H 0.63823 0.56579 0.59616 0.0
H1458 H 0.65321 0.59774 0.53277 0.0
H1459 H 0.67934 0.57178 0.52612 0.0
H1460 H 0.45089 0.55722 0.50184 0.0
H1461 H 0.47624 0.53189 0.49013 0.0
H1462 H 0.45376 0.48316 0.54334 0.0
H1463 H 0.42777 0.50855 0.5546 0.0
Tb1464 Tb 0.04079 0.54538 0.06781 0.0
Tb1465 Tb 0.09362 0.54551 0.05027 0.0
C1466 C 0.08086 0.53308 0.09706 0.0
C1467 C 0.98913 0.56912 0.07826 0.0
C1468 C 0.96568 0.60725 0.07444 0.0
C1469 C 0.96646 0.59541 0.09453 0.0
C1470 C 0.97799 0.57657 0.09637 0.0
C1471 C 0.98865 0.58106 0.05823 0.0
C1472 C 0.97696 0.59978 0.05631 0.0
C1473 C 1.00171 0.5495 0.08073 0.0
O1474 O 0.05975 0.58487 0.06531 0.0
O1475 O 0.09883 0.58351 0.06685 0.0
O1476 O 0.07916 0.56484 0.02534 0.0
O1477 O 0.03935 0.54994 0.03208 0.0
O1478 O 0.12989 0.55078 0.06017 0.0
O1479 O 0.11535 0.53745 0.02607 0.0
O1480 O 0.06695 0.51184 0.0342 0.0
O1481 O 0.03878 0.50529 0.06 0.0
O1482 O 0.06651 0.54728 0.0964 0.0
O1483 O 0.0855 0.52295 0.07842 0.0
C1484 C 0.08288 0.59597 0.06881 0.0
O1485 O 1.00327 0.53609 0.06254 0.0
O1486 O 1.02187 0.5565 0.09332 0.0
C1487 C 0.05628 0.56045 0.01929 0.0
C1488 C 0.1449 0.52061 0.04161 0.0
C1489 C 0.16708 0.48159 0.04353 0.0
C1490 C 0.17837 0.50454 0.03451 0.0
C1491 C 0.16739 0.52382 0.03357 0.0
C1492 C 0.13344 0.49777 0.05056 0.0
C1493 C 0.14445 0.47846 0.05156 0.0
C1494 C 0.13371 0.54125 0.0408 0.0
C1495 C 0.04856 0.49694 0.04297 0.0
H1496 H 0.95778 0.6004 0.10876 0.0
H1497 H 0.9782 0.56778 0.11203 0.0
H1498 H 0.99737 0.57601 0.04404 0.0
H1499 H 0.97702 0.60864 0.04068 0.0
H1500 H 0.19594 0.50782 0.0285 0.0
H1501 H 0.17655 0.54134 0.02669 0.0
H1502 H 0.11601 0.49491 0.05681 0.0
H1503 H 0.13514 0.46099 0.05842 0.0
H1504 H 1.02185 0.19117 0.94033 0.0
H1505 H 1.01459 0.23094 1.00306 0.0
H1506 H 1.0219 0.19691 0.02389 0.0
H1507 H 0.99348 0.12625 0.95752 0.0
H1508 H 1.01364 0.11239 0.94373 0.0
H1509 H 1.00646 0.13918 0.93278 0.0
H1510 H 0.05153 0.16382 0.93518 0.0
H1511 H 0.05882 0.13715 0.9462 0.0
H1512 H 0.06937 0.16791 0.96161 0.0
H1513 H 0.03275 0.16125 0.03897 0.0
H1514 H 0.04509 0.12384 0.04755 0.0
H1515 H 0.04466 0.1036 0.9763 0.0
C1516 C 1.02144 0.19246 0.9584 0.0
C1517 C 1.01762 0.21406 0.96992 0.0
C1518 C 1.01754 0.21493 0.99365 0.0
C1519 C 1.02165 0.19556 1.00577 0.0
C1520 C 1.02578 0.17494 0.99415 0.0
C1521 C 1.02556 0.17294 0.97101 0.0
C1522 C 0.03123 0.14861 0.9632 0.0
C1523 C 1.00993 0.13054 0.94842 0.0
C1524 C 0.0541 0.15475 0.95081 0.0
C1525 C 0.03505 0.13776 0.98558 0.0
C1526 C 0.03174 0.15348 1.00309 0.0
C1527 C 0.03518 0.14865 0.0254 0.0
C1528 C 0.04232 0.12731 0.03012 0.0
C1529 C 0.04585 0.1106 0.01271 0.0
C1530 C 0.04185 0.11579 0.99002 0.0
H1531 H 0.15558 0.82856 0.20642 0.0
H1532 H 0.19117 0.843 0.14527 0.0
H1533 H 0.22999 0.84783 0.16651 0.0
H1534 H 0.20477 0.87135 0.24586 0.0
H1535 H 0.19976 0.84955 0.26744 0.0
H1536 H 0.17514 0.85059 0.24821 0.0
H1537 H 0.1657 0.8025 0.23718 0.0
H1538 H 0.19025 0.80132 0.25633 0.0
H1539 H 0.18889 0.79036 0.22716 0.0
H1540 H 0.26409 0.84649 0.19302 0.0
H1541 H 0.29121 0.83841 0.22295 0.0
H1542 H 0.23454 0.82466 0.26771 0.0
C1543 C 0.17165 0.83348 0.19765 0.0
C1544 C 0.17033 0.83578 0.17417 0.0
C1545 C 0.1917 0.84139 0.16322 0.0
C1546 C 0.21387 0.84422 0.17518 0.0
C1547 C 0.21451 0.84134 0.19817 0.0
C1548 C 0.194 0.83613 0.20936 0.0
C1549 C 0.19946 0.83173 0.23374 0.0
C1550 C 0.19449 0.85202 0.24976 0.0
C1551 C 0.18523 0.80489 0.23889 0.0
C1552 C 0.22612 0.83472 0.23437 0.0
C1553 C 0.2344 0.84053 0.21365 0.0
C1554 C 0.2579 0.84243 0.2094 0.0
C1555 C 0.27319 0.83782 0.22652 0.0
C1556 C 0.26514 0.83143 0.24777 0.0
C1557 C 0.24138 0.83032 0.25188 0.0
H1558 H 0.54159 0.88181 0.44807 0.0
H1559 H 0.50341 0.82969 0.49366 0.0
H1560 H 0.50533 0.86604 0.52079 0.0
H1561 H 0.58174 0.92543 0.49101 0.0
H1562 H 0.58187 0.95299 0.47642 0.0
H1563 H 0.57717 0.92283 0.46079 0.0
H1564 H 0.53744 0.92638 0.4417 0.0
H1565 H 0.54193 0.95646 0.4574 0.0
H1566 H 0.51474 0.93112 0.45887 0.0
H1567 H 0.51022 0.90926 0.54252 0.0
H1568 H 0.52084 0.95419 0.55786 0.0
H1569 H 0.55736 0.97725 0.49856 0.0
C1570 C 0.53365 0.87795 0.46377 0.0
C1571 C 0.52226 0.85274 0.46862 0.0
C1572 C 0.51232 0.84872 0.48952 0.0
C1573 C 0.51323 0.86931 0.50501 0.0
C1574 C 0.52439 0.89391 0.49957 0.0
C1575 C 0.53471 0.89822 0.47954 0.0
C1576 C 0.54621 0.92632 0.47784 0.0
C1577 C 0.57336 0.93223 0.47644 0.0
C1578 C 0.53437 0.93561 0.45776 0.0
C1579 C 0.54065 0.93727 0.49995 0.0
C1580 C 0.52786 0.91836 0.51223 0.0
C1581 C 0.52036 0.92413 0.53304 0.0
C1582 C 0.52637 0.94975 0.5416 0.0
C1583 C 0.54001 0.96937 0.52953 0.0
C1584 C 0.54706 0.96281 0.50836 0.0
H1585 H 0.51393 0.27757 0.64635 0.0
H1586 H 0.57068 0.33882 0.68268 0.0
H1587 H 0.54378 0.34247 0.71165 0.0
H1588 H 0.46444 0.30207 0.65909 0.0
H1589 H 0.44424 0.27135 0.66274 0.0
H1590 H 0.46748 0.27414 0.64398 0.0
H1591 H 0.4832 0.24223 0.66553 0.0
H1592 H 0.46003 0.23936 0.68437 0.0
H1593 H 0.49096 0.24835 0.6954 0.0
H1594 H 0.51146 0.33979 0.7368 0.0
H1595 H 0.47564 0.32936 0.75789 0.0
H1596 H 0.4396 0.26875 0.70677 0.0
C1597 C 0.52057 0.29186 0.66031 0.0
C1598 C 0.54443 0.30793 0.66222 0.0
C1599 C 0.55254 0.32619 0.6809 0.0
C1600 C 0.53737 0.32851 0.69743 0.0
C1601 C 0.51411 0.3123 0.69522 0.0
C1602 C 0.50569 0.2942 0.67727 0.0
C1603 C 0.48013 0.27851 0.67966 0.0
C1604 C 0.46307 0.28172 0.66021 0.0
C1605 C 0.4785 0.25045 0.68135 0.0
C1606 C 0.47564 0.29063 0.70175 0.0
C1607 C 0.49546 0.31025 0.71025 0.0
C1608 C 0.49579 0.3245 0.73032 0.0
C1609 C 0.47532 0.31851 0.74213 0.0
C1610 C 0.45483 0.29832 0.73397 0.0
C1611 C 0.45507 0.28419 0.71349 0.0
H1612 H 0.07232 0.86201 0.62444 0.0
H1613 H 0.0764 0.90016 0.69076 0.0
H1614 H 0.07674 0.93936 0.67381 0.0
H1615 H 0.11178 0.91773 0.59997 0.0
H1616 H 0.09512 0.91209 0.5728 0.0
H1617 H 0.09469 0.88593 0.58947 0.0
H1618 H 0.04863 0.87317 0.58704 0.0
H1619 H 0.04894 0.89929 0.57035 0.0
H1620 H 0.03402 0.8962 0.59583 0.0
H1621 H 0.07617 0.97673 0.6499 0.0
H1622 H 0.07573 1.0074 0.62201 0.0
H1623 H 0.07331 0.9498 0.56864 0.0
C1624 C 0.07321 0.8785 0.63554 0.0
C1625 C 0.07427 0.8766 0.65974 0.0
C1626 C 0.07557 0.89969 0.67263 0.0
C1627 C 0.07576 0.92264 0.66297 0.0
C1628 C 0.07479 0.92383 0.63962 0.0
C1629 C 0.07362 0.90236 0.62592 0.0
C1630 C 0.07309 0.90967 0.60116 0.0
C1631 C 0.09497 0.90613 0.59019 0.0
C1632 C 0.04979 0.89361 0.58779 0.0
C1633 C 0.07411 0.93824 0.60317 0.0
C1634 C 0.07496 0.94572 0.62573 0.0
C1635 C 0.07559 0.97075 0.63227 0.0
C1636 C 0.07532 0.98842 0.61593 0.0
C1637 C 0.07463 0.98225 0.59235 0.0
C1638 C 0.07409 0.95618 0.58619 0.0
H1639 H 0.48922 0.80757 0.90103 0.0
H1640 H 0.51208 0.76574 0.84797 0.0
H1641 H 0.47477 0.76261 0.82457 0.0
H1642 H 0.42459 0.77227 0.89091 0.0
H1643 H 0.41411 0.79934 0.89684 0.0
H1644 H 0.44245 0.7985 0.9099 0.0
H1645 H 0.46436 0.84091 0.89376 0.0
H1646 H 0.43535 0.84172 0.88244 0.0
H1647 H 0.45885 0.84396 0.86422 0.0
H1648 H 0.43188 0.76286 0.80566 0.0
H1649 H 0.39245 0.76828 0.79408 0.0
H1650 H 0.39551 0.81232 0.85707 0.0
C1651 C 0.4866 0.7978 0.88443 0.0
C1652 C 0.50514 0.78735 0.87677 0.0
C1653 C 0.49949 0.77452 0.85478 0.0
C1654 C 0.47781 0.77253 0.84114 0.0
C1655 C 0.46051 0.78341 0.8489 0.0
C1656 C 0.46476 0.796 0.87015 0.0
C1657 C 0.4429 0.80586 0.87441 0.0
C1658 C 0.43027 0.79326 0.8942 0.0
C1659 C 0.45088 0.83483 0.879 0.0
C1660 C 0.42609 0.79757 0.85225 0.0
C1661 C 0.43655 0.78417 0.83794 0.0
C1662 C 0.42411 0.77364 0.81695 0.0
C1663 C 0.40122 0.77684 0.81035 0.0
C1664 C 0.38975 0.79106 0.82396 0.0
C1665 C 0.40303 0.80155 0.84554 0.0
H1666 H 0.56995 0.23651 0.12022 0.0
H1667 H 0.532 0.20589 0.17662 0.0
H1668 H 0.52852 0.16254 0.16086 0.0
H1669 H 0.53837 0.18332 0.07555 0.0
H1670 H 0.56566 0.18508 0.06293 0.0
H1671 H 0.5622 0.21299 0.07768 0.0
H1672 H 0.60179 0.21627 0.10173 0.0
H1673 H 0.60351 0.18725 0.0875 0.0
H1674 H 0.60353 0.19014 0.11763 0.0
H1675 H 0.53063 0.12046 0.13957 0.0
H1676 H 0.53676 0.08574 0.11501 0.0
H1677 H 0.57309 0.1405 0.07066 0.0
C1678 C 0.56028 0.2207 0.129 0.0
C1679 C 0.55055 0.22559 0.14986 0.0
C1680 C 0.5392 0.20361 0.16071 0.0
C1681 C 0.53721 0.17851 0.15177 0.0
C1682 C 0.547 0.17441 0.1316 0.0
C1683 C 0.55831 0.19498 0.12023 0.0
C1684 C 0.56853 0.18493 0.0995 0.0
C1685 C 0.55806 0.19208 0.07763 0.0
C1686 C 0.59597 0.19527 0.10171 0.0
C1687 C 0.56043 0.15576 0.1005 0.0
C1688 C 0.54834 0.15027 0.11948 0.0
C1689 C 0.5399 0.12491 0.12463 0.0
C1690 C 0.54352 0.10496 0.11034 0.0
C1691 C 0.5552 0.10932 0.09021 0.0
C1692 C 0.56374 0.13565 0.08549 0.0
H1693 H 0.13827 0.25917 0.36383 0.0
H1694 H 0.15215 0.33961 0.38086 0.0
H1695 H 0.19097 0.34786 0.3646 0.0
H1696 H 0.20246 0.25851 0.37419 0.0
H1697 H 0.20069 0.23577 0.35078 0.0
H1698 H 0.17424 0.23542 0.36466 0.0
H1699 H 0.15257 0.23932 0.32681 0.0
H1700 H 0.17901 0.23984 0.31287 0.0
H1701 H 0.16574 0.26523 0.3104 0.0
H1702 H 0.22982 0.34862 0.34418 0.0
H1703 H 0.26304 0.34165 0.32428 0.0
H1704 H 0.22824 0.26069 0.31902 0.0
C1705 C 0.1497 0.27854 0.36487 0.0
C1706 C 0.14123 0.29866 0.37505 0.0
C1707 C 0.15733 0.3235 0.3743 0.0
C1708 C 0.17983 0.32847 0.36471 0.0
C1709 C 0.18742 0.30863 0.35497 0.0
C1710 C 0.17284 0.28398 0.35508 0.0
C1711 C 0.18555 0.26634 0.3429 0.0
C1712 C 0.19105 0.2479 0.35909 0.0
C1713 C 0.16977 0.2518 0.32201 0.0
C1714 C 0.20929 0.2847 0.33598 0.0
C1715 C 0.20972 0.30908 0.34321 0.0
C1716 C 0.2293 0.32943 0.33877 0.0
C1717 C 0.2486 0.32519 0.32721 0.0
C1718 C 0.24972 0.30064 0.31946 0.0
C1719 C 0.22901 0.28 0.32419 0.0
H1720 H 1.01953 0.07282 0.19732 0.0
H1721 H 0.94312 0.0462 0.17811 0.0
H1722 H 0.95121 0.04653 0.13799 0.0
H1723 H 0.03637 0.11368 0.15162 0.0
H1724 H 0.06368 0.10541 0.14904 0.0
H1725 H 0.05155 0.10555 0.17589 0.0
H1726 H 0.0514 0.05894 0.17884 0.0
H1727 H 0.06344 0.05863 0.15203 0.0
H1728 H 0.03592 0.03518 0.15663 0.0
H1729 H 0.96824 0.04686 0.10008 0.0
H1730 H 0.99231 0.04618 0.0679 0.0
H1731 H 0.05734 0.07208 0.11301 0.0
C1732 C 1.00441 0.0674 0.18474 0.0
C1733 C 0.98068 0.05954 0.19078 0.0
C1734 C 0.96144 0.05237 0.17379 0.0
C1735 C 0.96588 0.05256 0.15101 0.0
C1736 C 0.9896 0.06007 0.14568 0.0
C1737 C 1.0085 0.06742 0.16213 0.0
C1738 C 0.03236 0.07305 0.15227 0.0
C1739 C 0.04684 0.10109 0.15752 0.0
C1740 C 0.0466 0.05539 0.16043 0.0
C1741 C 1.02401 0.06716 0.12764 0.0
C1742 C 0.99932 0.06001 0.12408 0.0
C1743 C 0.98757 0.05266 0.10267 0.0
C1744 C 1.00143 0.05233 0.08451 0.0
C1745 C 0.02675 0.0591 0.08796 0.0
C1746 C 0.03807 0.06691 0.10979 0.0
H1747 H 0.31588 0.6935 0.47739 0.0
H1748 H 0.3541 0.74596 0.53373 0.0
H1749 H 0.3621 0.78092 0.5089 0.0
H1750 H 0.35113 0.72559 0.43202 0.0
H1751 H 0.32466 0.71946 0.41286 0.0
H1752 H 0.32653 0.69737 0.43332 0.0
H1753 H 0.28741 0.70069 0.44881 0.0
H1754 H 0.28484 0.72243 0.42842 0.0
H1755 H 0.28489 0.73141 0.45788 0.0
H1756 H 0.36047 0.8112 0.47934 0.0
H1757 H 0.34799 0.83366 0.44828 0.0
H1758 H 0.30871 0.7614 0.41278 0.0
C1759 C 0.32662 0.71215 0.48443 0.0
C1760 C 0.33434 0.71693 0.50753 0.0
C1761 C 0.34801 0.74177 0.51606 0.0
C1762 C 0.35273 0.76176 0.50206 0.0
C1763 C 0.34371 0.7566 0.47959 0.0
C1764 C 0.33103 0.73231 0.47083 0.0
C1765 C 0.32019 0.73214 0.4472 0.0
C1766 C 0.33129 0.7178 0.43035 0.0
C1767 C 0.29272 0.72103 0.4455 0.0
C1768 C 0.32776 0.76022 0.4444 0.0
C1769 C 0.34189 0.77406 0.46294 0.0
C1770 C 0.3497 0.80054 0.46461 0.0
C1771 C 0.34252 0.81313 0.44701 0.0
C1772 C 0.32725 0.79915 0.42844 0.0
C1773 C 0.32027 0.77245 0.42697 0.0
H1774 H 0.67021 0.016 0.68973 0.0
H1775 H 0.61045 0.9753 0.72509 0.0
H1776 H 0.58319 0.97116 0.69121 0.0
H1777 H 0.64375 0.05236 0.66348 0.0
H1778 H 0.65577 0.05149 0.63662 0.0
H1779 H 0.672 0.04595 0.6613 0.0
H1780 H 0.67255 1.00253 0.64294 0.0
H1781 H 0.65683 1.00817 0.61782 0.0
H1782 H 0.64487 0.97969 0.63156 0.0
H1783 H 0.5614 0.98192 0.65823 0.0
H1784 H 0.54747 0.99901 0.62432 0.0
H1785 H 0.62099 0.02937 0.6088 0.0
C1786 C 0.65163 1.00505 0.68993 0.0
C1787 C 0.64242 0.99616 0.71002 0.0
C1788 C 0.61788 0.98239 0.70986 0.0
C1789 C 0.6022 0.97991 0.69068 0.0
C1790 C 0.61145 0.99063 0.67161 0.0
C1791 C 0.63573 1.00207 0.67072 0.0
C1792 C 0.64062 1.01406 0.64881 0.0
C1793 C 0.6538 0.04265 0.65282 0.0
C1794 C 0.65454 1.00029 0.63443 0.0
C1795 C 0.61528 1.00926 0.63847 0.0
C1796 C 0.59869 0.99559 0.65179 0.0
C1797 C 0.57417 0.99179 0.64717 0.0
C1798 C 0.56642 1.00179 0.62813 0.0
C1799 C 0.58319 0.01511 0.614 0.0
C1800 C 0.60783 0.01869 0.61917 0.0
H1801 H 0.3045 0.37135 0.95613 0.0
H1802 H 0.33537 0.3184 0.98784 0.0
H1803 H 0.3377 0.2983 0.95007 0.0
H1804 H 0.26895 0.32664 0.90962 0.0
H1805 H 0.27396 0.35059 0.88992 0.0
H1806 H 0.27339 0.35931 0.91932 0.0
H1807 H 0.31536 0.3917 0.91954 0.0
H1808 H 0.31621 0.38292 0.89023 0.0
H1809 H 0.33979 0.38113 0.91036 0.0
H1810 H 0.33945 0.28621 0.90741 0.0
H1811 H 0.33767 0.28124 0.86602 0.0
H1812 H 0.30475 0.34178 0.86212 0.0
C1813 C 0.31142 0.35521 0.95531 0.0
C1814 C 0.31964 0.34648 0.97538 0.0
C1815 C 0.32861 0.32535 0.97307 0.0
C1816 C 0.33017 0.31394 0.95154 0.0
C1817 C 0.32247 0.32356 0.9322 0.0
C1818 C 0.31289 0.34353 0.93402 0.0
C1819 C 0.30612 0.35074 0.91082 0.0
C1820 C 0.279 0.34657 0.90721 0.0
C1821 C 0.32021 0.37825 0.90755 0.0
C1822 C 0.31374 0.33206 0.89545 0.0
C1823 C 0.32316 0.31653 0.90809 0.0
C1824 C 0.33193 0.29824 0.89756 0.0
C1825 C 0.33092 0.29563 0.87384 0.0
C1826 C 0.32113 0.31109 0.86034 0.0
C1827 C 0.31239 0.32955 0.87161 0.0
H1828 H 1.00185 0.07849 0.34604 0.0
H1829 H 0.03439 0.05082 0.29083 0.0
H1830 H 0.06671 0.0467 0.31738 0.0
H1831 H 0.05998 0.11294 0.38051 0.0
H1832 H 0.04678 0.10423 0.40624 0.0
H1833 H 0.02868 0.10953 0.38263 0.0
H1834 H 0.99891 0.06483 0.38414 0.0
H1835 H 1.01674 0.05945 0.40777 0.0
H1836 H 1.00985 0.03756 0.38296 0.0
H1837 H 0.09011 0.03697 0.3503 0.0
H1838 H 0.1044 0.02572 0.38698 0.0
H1839 H 0.05833 0.06218 0.42037 0.0
C1840 C 1.01617 0.0723 0.33945 0.0
C1841 C 1.01559 0.065 0.31639 0.0
C1842 C 0.03454 0.05675 0.30842 0.0
C1843 C 0.05301 0.05434 0.32338 0.0
C1844 C 0.05256 0.0608 0.34615 0.0
C1845 C 0.03487 0.0701 0.35409 0.0
C1846 C 0.03721 0.07356 0.37944 0.0
C1847 C 0.04354 0.10176 0.38767 0.0
C1848 C 1.01433 0.05791 0.38912 0.0
C1849 C 0.058 0.06323 0.38457 0.0
C1850 C 0.06685 0.05623 0.36517 0.0
C1851 C 0.08393 0.04316 0.36565 0.0
C1852 C 0.09188 0.03676 0.38646 0.0
C1853 C 0.08284 0.04365 0.40639 0.0
C1854 C 0.06616 0.05755 0.40542 0.0
H1855 H 0.29814 0.68387 0.6433 0.0
H1856 H 0.37118 0.71985 0.62894 0.0
H1857 H 0.38119 0.73801 0.66825 0.0
H1858 H 0.29201 0.73487 0.67454 0.0
H1859 H 0.27389 0.71765 0.69489 0.0
H1860 H 0.27347 0.70273 0.66729 0.0
H1861 H 0.28538 0.66588 0.68458 0.0
H1862 H 0.28565 0.68063 0.71234 0.0
H1863 H 0.31177 0.67279 0.70395 0.0
H1864 H 0.38198 0.75732 0.70657 0.0
H1865 H 0.37343 0.77729 0.74163 0.0
H1866 H 0.29948 0.73014 0.73158 0.0
C1867 C 0.31643 0.69475 0.64875 0.0
C1868 C 0.33403 0.70021 0.63331 0.0
C1869 C 0.35756 0.71533 0.64066 0.0
C1870 C 0.36342 0.72562 0.66295 0.0
C1871 C 0.34551 0.72068 0.67765 0.0
C1872 C 0.32248 0.70554 0.67095 0.0
C1873 C 0.3059 0.70606 0.68925 0.0
C1874 C 0.2851 0.71592 0.68099 0.0
C1875 C 0.29663 0.67977 0.69805 0.0
C1876 C 0.32297 0.72471 0.70681 0.0
C1877 C 0.34582 0.73246 0.69993 0.0
C1878 C 0.36427 0.75109 0.71236 0.0
C1879 C 0.35919 0.76244 0.73219 0.0
C1880 C 0.33579 0.75526 0.73933 0.0
C1881 C 0.31761 0.73575 0.7267 0.0
H1882 H 0.67279 0.07977 0.85097 0.0
H1883 H 0.62011 0.02083 0.80776 0.0
H1884 H 0.58821 0.02745 0.82953 0.0
H1885 H 0.64731 0.06317 0.90146 0.0
H1886 H 0.65387 0.09531 0.91366 0.0
H1887 H 0.67244 0.08759 0.89334 0.0
H1888 H 0.66474 0.12205 0.86897 0.0
H1889 H 0.64581 0.1296 0.88912 0.0
H1890 H 0.63443 0.12093 0.86013 0.0
H1891 H 0.56237 0.03775 0.85689 0.0
H1892 H 0.54479 0.04836 0.89099 0.0
H1893 H 0.61338 0.10134 0.91625 0.0
C1894 C 0.65455 0.06836 0.84604 0.0
C1895 C 0.649 0.04994 0.82756 0.0
C1896 C 0.62487 0.03525 0.82174 0.0
C1897 C 0.60652 0.03894 0.83389 0.0
C1898 C 0.61252 0.05746 0.85177 0.0
C1899 C 0.6359 0.0718 0.858 0.0
C1900 C 0.63754 0.0891 0.87896 0.0
C1901 C 0.65373 0.08344 0.89797 0.0
C1902 C 0.64614 0.11708 0.87399 0.0
C1903 C 0.61155 0.08143 0.88394 0.0
C1904 C 0.59737 0.06354 0.86776 0.0
C1905 C 0.57312 0.05209 0.86952 0.0
C1906 C 0.56325 0.05837 0.88885 0.0
C1907 C 0.57773 0.07574 0.90613 0.0
C1908 C 0.60193 0.08807 0.90321 0.0
H1909 H 0.30976 0.31302 0.11149 0.0
H1910 H 0.32438 0.39454 0.12344 0.0
H1911 H 0.32196 0.39045 0.16371 0.0
H1912 H 0.26751 0.29618 0.15518 0.0
H1913 H 0.27789 0.27039 0.16408 0.0
H1914 H 0.28016 0.27881 0.13553 0.0
H1915 H 0.32559 0.28438 0.13981 0.0
H1916 H 0.32343 0.27591 0.16834 0.0
H1917 H 0.34408 0.30551 0.16244 0.0
H1918 H 0.31968 0.37904 0.20317 0.0
H1919 H 0.31737 0.36058 0.23956 0.0
H1920 H 0.30316 0.28558 0.20537 0.0
C1921 C 0.3123 0.32997 0.12257 0.0
C1922 C 0.3173 0.35425 0.1137 0.0
C1923 C 0.32059 0.37573 0.12922 0.0
C1924 C 0.31922 0.37364 0.1524 0.0
C1925 C 0.31446 0.3498 0.16056 0.0
C1926 C 0.311 0.32822 0.14625 0.0
C1927 C 0.30651 0.30506 0.16012 0.0
C1928 C 0.28153 0.2865 0.15332 0.0
C1929 C 0.32607 0.29193 0.15752 0.0
C1930 C 0.30808 0.31712 0.18423 0.0
C1931 C 0.31274 0.34303 0.18382 0.0
C1932 C 0.31586 0.35874 0.20363 0.0
C1933 C 0.31448 0.34799 0.22438 0.0
C1934 C 0.30976 0.3215 0.22576 0.0
C1935 C 0.30629 0.30582 0.20514 0.0
H1936 H 0.25715 0.97287 0.02247 0.0
H1937 H 0.3076 0.02889 0.98787 0.0
H1938 H 0.28702 0.06023 0.99759 0.0
H1939 H 0.20511 0.99359 1.0054 0.0
H1940 H 0.19218 0.98799 0.03177 0.0
H1941 H 0.21034 0.9691 0.02169 0.0
H1942 H 0.23794 0.9815 0.05868 0.0
H1943 H 0.22001 1.00049 0.06901 0.0
H1944 H 0.25171 1.01454 0.06777 0.0
H1945 H 0.26307 0.08657 0.01276 0.0
H1946 H 0.2342 0.10522 0.02969 0.0
H1947 H 0.19794 0.0323 0.0531 0.0
C1948 C 0.2637 0.99161 0.01671 0.0
C1949 C 0.28412 0.99827 1.00446 0.0
C1950 C 0.29206 0.02312 0.99729 0.0
C1951 C 0.28053 0.04121 1.00277 0.0
C1952 C 0.26089 0.03424 0.01526 0.0
C1953 C 0.25225 1.01 0.02188 0.0
C1954 C 0.23065 1.00765 0.03511 0.0
C1955 C 0.20824 0.98845 0.02275 0.0
C1956 C 0.23538 1.00063 0.05906 0.0
C1957 C 0.22895 0.03448 0.0352 0.0
C1958 C 0.24661 0.04947 0.02367 0.0
C1959 C 0.24898 0.07499 0.02166 0.0
C1960 C 0.23249 0.08541 0.03132 0.0
C1961 C 0.21379 0.07027 0.04273 0.0
C1962 C 0.21224 0.04452 0.04484 0.0
H1963 H 0.72506 0.68486 0.0193 0.0
H1964 H 0.77074 0.65807 0.06526 0.0
H1965 H 0.73618 0.62278 0.07301 0.0
H1966 H 0.6737 0.6693 0.05274 0.0
H1967 H 0.6516 0.65958 0.029 0.0
H1968 H 0.67979 0.68303 0.02644 0.0
H1969 H 0.68899 0.65516 0.99276 0.0
H1970 H 0.65936 0.63437 0.99494 0.0
H1971 H 0.68433 0.62184 0.99614 0.0
H1972 H 0.69678 0.59059 0.07656 0.0
H1973 H 0.65496 0.56261 0.07423 0.0
H1974 H 0.63426 0.60825 0.02498 0.0
C1975 C 0.72766 0.67147 0.0309 0.0
C1976 C 0.75071 0.6739 0.04136 0.0
C1977 C 0.75336 0.65627 0.05675 0.0
C1978 C 0.7338 0.6362 0.06134 0.0
C1979 C 0.71143 0.63393 0.05055 0.0
C1980 C 0.70815 0.65098 0.03559 0.0
C1981 C 0.6819 0.64419 0.02673 0.0
C1982 C 0.67111 0.66528 0.03417 0.0
C1983 C 0.67852 0.63862 1.0011 0.0
C1984 C 0.67135 0.62026 0.03836 0.0
C1985 C 0.68863 0.615 0.05237 0.0
C1986 C 0.68312 0.59438 0.06547 0.0
C1987 C 0.65937 0.57858 0.06406 0.0
C1988 C 0.64156 0.58302 0.04919 0.0
C1989 C 0.64768 0.60417 0.0362 0.0
H1990 H 0.76753 0.51228 0.36782 0.0
H1991 H 0.69643 0.4673 0.34029 0.0
H1992 H 0.713 0.43359 0.32641 0.0
H1993 H 0.79397 0.50243 0.32134 0.0
H1994 H 0.822 0.50191 0.33529 0.0
H1995 H 0.80425 0.51915 0.34862 0.0
H1996 H 0.80441 0.49419 0.38319 0.0
H1997 H 0.82129 0.47539 0.37038 0.0
H1998 H 0.79285 0.46021 0.38066 0.0
H1999 H 0.73773 0.40873 0.30989 0.0
H2000 H 0.76859 0.39346 0.29294 0.0
H2001 H 0.82385 0.45737 0.32776 0.0
C2002 C 0.75525 0.49499 0.3596 0.0
C2003 C 0.73069 0.49241 0.35511 0.0
C2004 C 0.71532 0.46961 0.34397 0.0
C2005 C 0.72457 0.45037 0.33606 0.0
C2006 C 0.74918 0.45436 0.33934 0.0
C2007 C 0.76431 0.47606 0.35099 0.0
C2008 C 0.79032 0.47778 0.34908 0.0
C2009 C 0.80338 0.50172 0.33791 0.0
C2010 C 0.80297 0.47679 0.37218 0.0
C2011 C 0.78745 0.45404 0.33393 0.0
C2012 C 0.76362 0.44058 0.32885 0.0
C2013 C 0.75646 0.41894 0.31393 0.0
C2014 C 0.77414 0.41071 0.30404 0.0
C2015 C 0.79871 0.42437 0.3088 0.0
C2016 C 0.80531 0.44629 0.324 0.0
H2017 H 0.89085 0.43764 0.48847 0.0
H2018 H 0.86387 0.48486 0.53372 0.0
H2019 H 0.90515 0.50888 0.54819 0.0
H2020 H 0.93846 0.43293 0.52469 0.0
H2021 H 0.95958 0.43535 0.50379 0.0
H2022 H 0.92798 0.4227 0.49568 0.0
H2023 H 0.93044 0.45651 0.46687 0.0
H2024 H 0.96222 0.4683 0.47439 0.0
H2025 H 0.94414 0.48955 0.47615 0.0
H2026 H 0.94899 0.52476 0.56048 0.0
H2027 H 0.99328 0.53659 0.565 0.0
H2028 H 0.99182 0.48077 0.51039 0.0
C2029 C 0.89381 0.45339 0.50107 0.0
C2030 C 0.87443 0.4598 0.50978 0.0
C2031 C 0.87867 0.48015 0.52654 0.0
C2032 C 0.90199 0.49373 0.535 0.0
C2033 C 0.92081 0.48673 0.5264 0.0
C2034 C 0.91705 0.46749 0.50941 0.0
C2035 C 0.94049 0.46396 0.50308 0.0
C2036 C 0.94168 0.43714 0.50705 0.0
C2037 C 0.94455 0.46993 0.47867 0.0
C2038 C 0.95785 0.48375 0.51951 0.0
C2039 C 0.94614 0.4965 0.53298 0.0
C2040 C 0.95842 0.51514 0.54986 0.0
C2041 C 0.98348 0.52154 0.55249 0.0
C2042 C 0.99576 0.50954 0.53805 0.0
C2043 C 0.98275 0.4902 0.52163 0.0
H2044 H 0.45021 0.1264 0.29741 0.0
H2045 H 0.44698 0.13609 0.36918 0.0
H2046 H 0.42465 0.16708 0.36388 0.0
H2047 H 0.44636 0.19312 0.28286 0.0
H2048 H 0.42694 0.1785 0.25806 0.0
H2049 H 0.45057 0.16581 0.26766 0.0
H2050 H 0.41928 0.12189 0.26821 0.0
H2051 H 0.39546 0.13439 0.2595 0.0
H2052 H 0.3944 0.11875 0.2851 0.0
H2053 H 0.39374 0.18591 0.35094 0.0
H2054 H 0.35892 0.19442 0.33138 0.0
H2055 H 0.37941 0.17009 0.26752 0.0
C2056 C 0.44632 0.13659 0.312 0.0
C2057 C 0.4508 0.12965 0.3337 0.0
C2058 C 0.44421 0.14188 0.35251 0.0
C2059 C 0.43144 0.15939 0.34959 0.0
C2060 C 0.4253 0.16418 0.32777 0.0
C2061 C 0.43289 0.15347 0.30922 0.0
C2062 C 0.41973 0.1571 0.28764 0.0
C2063 C 0.43693 0.17469 0.2732 0.0
C2064 C 0.40644 0.13152 0.27437 0.0
C2065 C 0.40242 0.1698 0.29702 0.0
C2066 C 0.40636 0.17432 0.32013 0.0
C2067 C 0.39089 0.18312 0.33281 0.0
C2068 C 0.37095 0.18747 0.3216 0.0
C2069 C 0.3665 0.18272 0.29798 0.0
C2070 C 0.38266 0.17419 0.28556 0.0
H2071 H 0.36802 0.16611 0.51217 0.0
H2072 H 0.37643 0.21497 0.5735 0.0
H2073 H 0.40967 0.19921 0.58794 0.0
H2074 H 0.3745 0.11405 0.53713 0.0
H2075 H 0.39033 0.10369 0.5155 0.0
H2076 H 0.37025 0.12179 0.50866 0.0
H2077 H 0.40427 0.15523 0.49222 0.0
H2078 H 0.42447 0.13704 0.49872 0.0
H2079 H 0.43201 0.16989 0.50921 0.0
H2080 H 0.43866 0.17337 0.59735 0.0
H2081 H 0.46149 0.14229 0.60003 0.0
H2082 H 0.43277 0.11002 0.53258 0.0
C2083 C 0.37723 0.17411 0.52842 0.0
C2084 C 0.36962 0.19197 0.54164 0.0
C2085 C 0.38211 0.20164 0.56289 0.0
C2086 C 0.40092 0.19262 0.57127 0.0
C2087 C 0.40718 0.17413 0.55812 0.0
C2088 C 0.39585 0.16531 0.53697 0.0
C2089 C 0.40443 0.14414 0.52669 0.0
C2090 C 0.38364 0.11947 0.52171 0.0
C2091 C 0.41705 0.15206 0.50545 0.0
C2092 C 0.42199 0.14183 0.54553 0.0
C2093 C 0.42352 0.15937 0.56349 0.0
C2094 C 0.43771 0.1598 0.58325 0.0
C2095 C 0.45049 0.1419 0.58468 0.0
C2096 C 0.44904 0.12363 0.56651 0.0
C2097 C 0.4347 0.12394 0.54664 0.0
H2098 H 0.70854 0.63796 0.34972 0.0
H2099 H 0.75241 0.59325 0.32435 0.0
H2100 H 0.77951 0.63117 0.31079 0.0
H2101 H 0.71268 0.67648 0.30417 0.0
H2102 H 0.71447 0.70539 0.32075 0.0
H2103 H 0.69918 0.67523 0.33042 0.0
H2104 H 0.72648 0.6864 0.36789 0.0
H2105 H 0.74118 0.71686 0.35837 0.0
H2106 H 0.75851 0.69648 0.36699 0.0
H2107 H 0.80011 0.67201 0.29784 0.0
H2108 H 0.81536 0.71571 0.28766 0.0
H2109 H 0.75885 0.73552 0.32111 0.0
C2110 C 0.72412 0.63646 0.34166 0.0
C2111 C 0.72898 0.61305 0.33867 0.0
C2112 C 0.74899 0.61132 0.32746 0.0
C2113 C 0.76436 0.63266 0.31955 0.0
C2114 C 0.75928 0.65553 0.3228 0.0
C2115 C 0.73983 0.65778 0.33368 0.0
C2116 C 0.73828 0.68468 0.33405 0.0
C2117 C 0.71475 0.68548 0.3216 0.0
C2118 C 0.74129 0.69681 0.35827 0.0
C2119 C 0.75964 0.69687 0.32135 0.0
C2120 C 0.7714 0.67959 0.31509 0.0
C2121 C 0.79126 0.68588 0.30279 0.0
C2122 C 0.7997 0.71076 0.29701 0.0
C2123 C 0.78834 0.72908 0.30363 0.0
C2124 C 0.76792 0.72194 0.31582 0.0
H2125 H 0.9506 0.468 0.82464 0.0
H2126 H 0.90856 0.50883 0.78938 0.0
H2127 H 0.87874 0.46838 0.77507 0.0
H2128 H 0.93725 0.41552 0.7795 0.0
H2129 H 0.9368 0.39164 0.79873 0.0
H2130 H 0.95572 0.42366 0.80575 0.0
H2131 H 0.93515 0.42711 0.84332 0.0
H2132 H 0.91946 0.39411 0.83613 0.0
H2133 H 0.90289 0.416 0.84174 0.0
H2134 H 0.85266 0.42435 0.76617 0.0
H2135 H 0.83114 0.37843 0.76373 0.0
H2136 H 0.88933 0.36563 0.80504 0.0
C2137 C 0.93504 0.46823 0.81394 0.0
C2138 C 0.93123 0.49132 0.80866 0.0
C2139 C 0.91121 0.4912 0.79411 0.0
C2140 C 0.89436 0.46838 0.78576 0.0
C2141 C 0.89811 0.44587 0.7918 0.0
C2142 C 0.91796 0.44549 0.80545 0.0
C2143 C 0.91765 0.41848 0.80902 0.0
C2144 C 0.93806 0.41195 0.79756 0.0
C2145 C 0.91888 0.41375 0.83404 0.0
C2146 C 0.89355 0.40407 0.7969 0.0
C2147 C 0.88302 0.42021 0.78643 0.0
C2148 C 0.86073 0.41146 0.77418 0.0
C2149 C 0.84867 0.38549 0.77288 0.0
C2150 C 0.85873 0.36893 0.78423 0.0
C2151 C 0.88145 0.37818 0.79624 0.0
H2152 H 0.06491 0.86724 0.08428 0.0
H2153 H 0.12987 0.89751 0.12886 0.0
H2154 H 0.13166 0.94086 0.11901 0.0
H2155 H 0.08106 0.9091 0.04114 0.0
H2156 H 0.05145 0.91201 0.03544 0.0
H2157 H 0.0552 0.8836 0.04619 0.0
H2158 H 0.03065 0.88917 0.07947 0.0
H2159 H 0.02675 0.91757 0.06879 0.0
H2160 H 0.03963 0.91852 0.09713 0.0
H2161 H 0.12732 0.98088 0.10243 0.0
H2162 H 0.11598 1.0143 0.08309 0.0
H2163 H 0.05254 0.95819 0.05063 0.0
C2164 C 0.07955 0.88294 0.09207 0.0
C2165 C 0.09738 0.87879 0.10734 0.0
C2166 C 0.116 0.90006 0.11721 0.0
C2167 C 0.11718 0.92478 0.11163 0.0
C2168 C 0.09943 0.92807 0.09635 0.0
C2169 C 0.08081 0.90771 0.08693 0.0
C2170 C 0.0638 0.91629 0.07119 0.0
C2171 C 0.06283 0.90455 0.04706 0.0
C2172 C 0.03872 0.91001 0.07966 0.0
C2173 C 0.07584 0.94472 0.07299 0.0
C2174 C 0.09647 0.95108 0.08748 0.0
C2175 C 0.1111 0.97606 0.09124 0.0
C2176 C 0.1045 0.99495 0.08006 0.0
C2177 C 0.08325 0.98905 0.06534 0.0
C2178 C 0.06873 0.96348 0.06191 0.0
H2179 H 0.95899 0.257 0.87879 0.0
H2180 H 0.94505 0.29822 0.93762 0.0
H2181 H 0.90821 0.30192 0.91743 0.0
H2182 H 0.93303 0.28363 0.83114 0.0
H2183 H 0.92165 0.25215 0.81827 0.0
H2184 H 0.94777 0.2601 0.83802 0.0
H2185 H 0.91973 0.21942 0.85607 0.0
H2186 H 0.89383 0.2189 0.8378 0.0
H2187 H 0.89309 0.2225 0.8678 0.0
H2188 H 0.87452 0.30379 0.89041 0.0
H2189 H 0.84529 0.30263 0.85856 0.0
H2190 H 0.87887 0.25833 0.81691 0.0
C2191 C 0.94823 0.26703 0.8872 0.0
C2192 C 0.9553 0.27823 0.90953 0.0
C2193 C 0.94019 0.29001 0.92045 0.0
C2194 C 0.91923 0.29216 0.9091 0.0
C2195 C 0.9129 0.28139 0.88706 0.0
C2196 C 0.92661 0.26855 0.87629 0.0
C2197 C 0.91412 0.2566 0.85334 0.0
C2198 C 0.93026 0.26356 0.83415 0.0
C2199 C 0.90463 0.22764 0.85378 0.0
C2200 C 0.89348 0.26811 0.85163 0.0
C2201 C 0.89254 0.2813 0.87174 0.0
C2202 C 0.87509 0.29348 0.87461 0.0
C2203 C 0.85853 0.29272 0.85635 0.0
C2204 C 0.85983 0.28057 0.83514 0.0
C2205 C 0.87748 0.26788 0.83286 0.0
H2206 H 0.57956 0.2253 0.63561 0.0
H2207 H 0.61931 0.26449 0.58345 0.0
H2208 H 0.61989 0.22344 0.56498 0.0
H2209 H 0.60964 0.1776 0.63892 0.0
H2210 H 0.58341 0.15228 0.64337 0.0
H2211 H 0.58543 0.18455 0.65244 0.0
H2212 H 0.5456 0.18129 0.62829 0.0
H2213 H 0.54343 0.14853 0.62123 0.0
H2214 H 0.54225 0.16892 0.59928 0.0
H2215 H 0.61835 0.17804 0.55344 0.0
H2216 H 0.61014 0.13147 0.54699 0.0
H2217 H 0.5689 0.12116 0.60491 0.0
C2218 C 0.58807 0.22511 0.62013 0.0
C2219 C 0.59892 0.24803 0.61063 0.0
C2220 C 0.61037 0.24712 0.59066 0.0
C2221 C 0.61094 0.22389 0.58016 0.0
C2222 C 0.60001 0.2016 0.58985 0.0
C2223 C 0.58842 0.20194 0.60919 0.0
C2224 C 0.57808 0.1752 0.61609 0.0
C2225 C 0.58984 0.17224 0.63907 0.0
C2226 C 0.55072 0.16812 0.61623 0.0
C2227 C 0.58531 0.1598 0.59744 0.0
C2228 C 0.59843 0.17544 0.58276 0.0
C2229 C 0.6079 0.16564 0.56472 0.0
C2230 C 0.60333 0.13919 0.56127 0.0
C2231 C 0.58898 0.12278 0.57546 0.0
C2232 C 0.57996 0.13331 0.59381 0.0
H2233 H 0.58818 0.82985 0.39557 0.0
H2234 H 0.58475 0.76574 0.43482 0.0
H2235 H 0.62337 0.76357 0.42159 0.0
H2236 H 0.60871 0.80649 0.34857 0.0
H2237 H 0.62776 0.8367 0.34203 0.0
H2238 H 0.60181 0.83524 0.35691 0.0
H2239 H 0.62824 0.86602 0.38925 0.0
H2240 H 0.65431 0.86788 0.37435 0.0
H2241 H 0.65353 0.85864 0.40269 0.0
H2242 H 0.66083 0.76619 0.40049 0.0
H2243 H 0.69318 0.7738 0.37495 0.0
H2244 H 0.67113 0.8362 0.34989 0.0
C2245 C 0.59568 0.81561 0.40185 0.0
C2246 C 0.58333 0.798 0.41638 0.0
C2247 C 0.5939 0.77963 0.42393 0.0
C2248 C 0.61581 0.7782 0.41639 0.0
C2249 C 0.62701 0.79538 0.40144 0.0
C2250 C 0.61732 0.81389 0.39449 0.0
C2251 C 0.63181 0.82918 0.37736 0.0
C2252 C 0.61661 0.82674 0.3549 0.0
C2253 C 0.64262 0.85708 0.38646 0.0
C2254 C 0.65099 0.81609 0.37527 0.0
C2255 C 0.64813 0.79677 0.38938 0.0
C2256 C 0.66333 0.7815 0.38963 0.0
C2257 C 0.68176 0.78605 0.37508 0.0
C2258 C 0.68486 0.80564 0.36031 0.0
C2259 C 0.66925 0.82091 0.36072 0.0
H2260 H 0.07807 0.22691 0.47472 0.0
H2261 H 0.05536 0.18909 0.408 0.0
H2262 H 0.05251 0.14796 0.42323 0.0
H2263 H 0.11371 0.18504 0.49336 0.0
H2264 H 0.10524 0.18482 0.52174 0.0
H2265 H 0.10589 0.21167 0.50592 0.0
H2266 H 0.0619 0.2068 0.51289 0.0
H2267 H 0.06115 0.17993 0.52871 0.0
H2268 H 0.03949 0.17683 0.50509 0.0
H2269 H 0.05234 0.10836 0.44638 0.0
H2270 H 0.05395 0.07706 0.4735 0.0
H2271 H 0.0759 0.13751 0.52713 0.0
C2272 C 0.07252 0.21004 0.46315 0.0
C2273 C 0.06702 0.21241 0.4395 0.0
C2274 C 0.05981 0.18898 0.42582 0.0
C2275 C 0.05813 0.16504 0.43451 0.0
C2276 C 0.06359 0.16344 0.45753 0.0
C2277 C 0.07066 0.18547 0.47175 0.0
C2278 C 0.07532 0.17815 0.49595 0.0
C2279 C 0.1016 0.19068 0.50477 0.0
C2280 C 0.05847 0.1859 0.5116 0.0
C2281 C 0.0697 0.14881 0.49323 0.0
C2282 C 0.0631 0.14086 0.47076 0.0
C2283 C 0.05743 0.11484 0.46389 0.0
C2284 C 0.05837 0.09679 0.47978 0.0
C2285 C 0.06479 0.10364 0.50323 0.0
C2286 C 0.07061 0.13065 0.50969 0.0
H2287 H 0.63393 0.28236 0.23631 0.0
H2288 H 0.65756 0.32652 0.18046 0.0
H2289 H 0.69959 0.33028 0.19315 0.0
H2290 H 0.68479 0.31384 0.27798 0.0
H2291 H 0.68684 0.28514 0.2895 0.0
H2292 H 0.65855 0.28677 0.277 0.0
H2293 H 0.65511 0.24733 0.25024 0.0
H2294 H 0.68339 0.24558 0.26268 0.0
H2295 H 0.67899 0.24724 0.23281 0.0
H2296 H 0.74156 0.33078 0.21339 0.0
H2297 H 0.77621 0.32464 0.23539 0.0
H2298 H 0.72812 0.27643 0.27735 0.0
C2299 C 0.64789 0.29309 0.22677 0.0
C2300 C 0.64134 0.30463 0.20713 0.0
C2301 C 0.66103 0.31765 0.1954 0.0
C2302 C 0.6854 0.3199 0.20265 0.0
C2303 C 0.69112 0.30849 0.22179 0.0
C2304 C 0.67276 0.29489 0.23352 0.0
C2305 C 0.68398 0.28317 0.25278 0.0
C2306 C 0.67819 0.2928 0.27568 0.0
C2307 C 0.67481 0.2541 0.24944 0.0
C2308 C 0.71137 0.29264 0.25046 0.0
C2309 C 0.71494 0.30745 0.23247 0.0
C2310 C 0.7385 0.31893 0.22726 0.0
C2311 C 0.75851 0.31529 0.24015 0.0
C2312 C 0.75613 0.2998 0.25858 0.0
C2313 C 0.73156 0.28831 0.26352 0.0
H2314 H 0.56818 0.8928 0.91689 0.0
H2315 H 0.58647 0.84778 0.96798 0.0
H2316 H 0.58753 0.88187 0.99707 0.0
H2317 H 0.60399 0.95565 0.94329 0.0
H2318 H 0.58207 0.97148 0.93581 0.0
H2319 H 0.58342 0.94412 0.91858 0.0
H2320 H 0.53891 0.92207 0.92298 0.0
H2321 H 0.53743 0.94939 0.94018 0.0
H2322 H 0.52885 0.91849 0.95071 0.0
H2323 H 0.58727 0.92256 0.02208 0.0
H2324 H 0.58384 0.96252 0.03967 0.0
H2325 H 0.56327 0.98323 0.97435 0.0
C2326 C 0.57257 0.88998 0.93417 0.0
C2327 C 0.57751 0.86662 0.93942 0.0
C2328 C 0.58274 0.86471 0.96271 0.0
C2329 C 0.58337 0.88435 0.97964 0.0
C2330 C 0.57841 0.90671 0.97391 0.0
C2331 C 0.57289 0.90957 0.95163 0.0
C2332 C 0.56751 0.93537 0.95028 0.0
C2333 C 0.5853 0.95268 0.93614 0.0
C2334 C 0.54164 0.93108 0.94044 0.0
C2335 C 0.57099 0.94667 0.9751 0.0
C2336 C 0.57746 0.92966 0.98832 0.0
C2337 C 0.5821 0.93568 1.0116 0.0
C2338 C 0.58011 0.95896 0.02163 0.0
C2339 C 0.57322 0.97723 1.0091 0.0
C2340 C 0.56855 0.97041 0.98508 0.0
H2341 H 0.98005 0.76521 0.71354 0.0
H2342 H 1.01677 0.84569 0.72615 0.0
H2343 H 0.98259 0.85164 0.74454 0.0
H2344 H 0.91802 0.77281 0.70349 0.0
H2345 H 0.90297 0.74558 0.71762 0.0
H2346 H 0.93005 0.74636 0.70464 0.0
H2347 H 0.94913 0.73804 0.74222 0.0
H2348 H 0.92213 0.73735 0.7553 0.0
H2349 H 0.95041 0.75886 0.76694 0.0
H2350 H 0.94383 0.85054 0.76405 0.0
H2351 H 0.9052 0.84262 0.78015 0.0
H2352 H 0.88755 0.76309 0.75665 0.0
C2353 C 0.98096 0.78427 0.71973 0.0
C2354 C 1.00277 0.80504 0.71741 0.0
C2355 C 1.00162 0.82905 0.72689 0.0
C2356 C 0.98174 0.83279 0.73773 0.0
C2357 C 0.96129 0.81249 0.73993 0.0
C2358 C 0.9605 0.78853 0.73104 0.0
C2359 C 0.93566 0.77029 0.73622 0.0
C2360 C 0.92079 0.758 0.71418 0.0
C2361 C 0.93956 0.7499 0.75104 0.0
C2362 C 0.92295 0.78761 0.74917 0.0
C2363 C 0.93854 0.81192 0.75104 0.0
C2364 C 0.93174 0.83144 0.76239 0.0
C2365 C 0.90914 0.82659 0.77178 0.0
C2366 C 0.89171 0.80218 0.77047 0.0
C2367 C 0.89943 0.78228 0.75857 0.0
H2368 H 0.20416 0.05408 0.93408 0.0
H2369 H 0.16071 0.99066 0.88916 0.0
H2370 H 0.13085 0.98036 0.91685 0.0
H2371 H 0.18484 0.02508 0.9892 0.0
H2372 H 0.18421 0.05521 1.00175 0.0
H2373 H 0.20595 0.05385 0.98216 0.0
H2374 H 0.19145 0.08426 0.95779 0.0
H2375 H 0.16988 0.08615 0.97722 0.0
H2376 H 0.16021 0.07646 0.94798 0.0
H2377 H 0.10229 0.98238 0.94457 0.0
H2378 H 0.07743 0.99522 0.97173 0.0
H2379 H 0.13818 0.05889 0.99821 0.0
C2380 C 0.18895 0.03735 0.9306 0.0
C2381 C 0.18475 0.02302 0.90964 0.0
C2382 C 0.16426 1.00168 0.90527 0.0
C2383 C 0.14724 0.99568 0.92091 0.0
C2384 C 0.15101 1.01122 0.94081 0.0
C2385 C 0.17152 0.03142 0.94592 0.0
C2386 C 0.16949 0.04733 0.96679 0.0
C2387 C 0.18721 0.04523 0.9861 0.0
C2388 C 0.17295 0.07518 0.96214 0.0
C2389 C 0.14397 0.03416 0.97142 0.0
C2390 C 0.13395 1.01291 0.95668 0.0
C2391 C 0.11008 0.99864 0.95655 0.0
C2392 C 0.09604 1.00623 0.97193 0.0
C2393 C 0.10582 0.02814 0.98701 0.0
C2394 C 0.13018 0.04209 0.98685 0.0
H2395 H 0.79901 0.36178 0.56067 0.0
H2396 H 0.83437 0.43964 0.58699 0.0
H2397 H 0.85086 0.42446 0.62032 0.0
H2398 H 0.78429 0.33749 0.61573 0.0
H2399 H 0.78924 0.30757 0.60789 0.0
H2400 H 0.77898 0.32475 0.58678 0.0
H2401 H 0.81502 0.32343 0.56442 0.0
H2402 H 0.82579 0.30694 0.58581 0.0
H2403 H 0.84499 0.33633 0.57777 0.0
H2404 H 0.86607 0.40148 0.64907 0.0
H2405 H 0.87355 0.37155 0.6755 0.0
H2406 H 0.82815 0.30837 0.63144 0.0
C2407 C 0.80972 0.37563 0.57372 0.0
C2408 C 0.81544 0.4019 0.57121 0.0
C2409 C 0.82971 0.41942 0.58855 0.0
C2410 C 0.83933 0.411 0.60748 0.0
C2411 C 0.83433 0.38501 0.60891 0.0
C2412 C 0.81941 0.36754 0.59285 0.0
C2413 C 0.8169 0.34066 0.59869 0.0
C2414 C 0.79081 0.3268 0.60251 0.0
C2415 C 0.82624 0.32598 0.58059 0.0
C2416 C 0.83299 0.34584 0.6204 0.0
C2417 C 0.84301 0.3716 0.6258 0.0
C2418 C 0.8583 0.38127 0.6451 0.0
C2419 C 0.86263 0.36419 0.65986 0.0
C2420 C 0.85166 0.33781 0.65523 0.0
C2421 C 0.83715 0.32845 0.635 0.0
H2422 H 0.46375 0.05406 0.4125 0.0
H2423 H 0.52532 0.07734 0.37359 0.0
H2424 H 0.5522 0.08456 0.40811 0.0
H2425 H 0.48936 0.09867 0.462 0.0
H2426 H 0.47624 0.07605 0.48141 0.0
H2427 H 0.46139 0.07456 0.4538 0.0
H2428 H 0.461 0.02777 0.44629 0.0
H2429 H 0.47558 0.02907 0.47391 0.0
H2430 H 0.48872 0.01991 0.44964 0.0
H2431 H 0.57264 0.08702 0.44617 0.0
H2432 H 0.58508 0.0817 0.48527 0.0
H2433 H 0.51044 0.05717 0.49939 0.0
C2434 C 0.48286 0.06088 0.41125 0.0
C2435 C 0.49234 0.06514 0.39031 0.0
C2436 C 0.51752 0.07386 0.38941 0.0
C2437 C 0.53302 0.07823 0.40895 0.0
C2438 C 0.52311 0.0739 0.42928 0.0
C2439 C 0.49865 0.06534 0.43061 0.0
C2440 C 0.49275 0.06063 0.45444 0.0
C2441 C 0.47913 0.07855 0.46344 0.0
C2442 C 0.4787 0.03268 0.45616 0.0
C2443 C 0.51773 0.06719 0.46608 0.0
C2444 C 0.53498 0.07519 0.45135 0.0
C2445 C 0.55933 0.08103 0.45798 0.0
C2446 C 0.56622 0.07797 0.48021 0.0
C2447 C 0.54875 0.06895 0.49535 0.0
C2448 C 0.52426 0.06415 0.48825 0.0
H2449 H 0.83256 0.73021 0.1279 0.0
H2450 H 0.80006 0.78291 0.09799 0.0
H2451 H 0.79682 0.80147 0.13586 0.0
H2452 H 0.79992 0.72013 0.1769 0.0
H2453 H 0.82512 0.72044 0.19599 0.0
H2454 H 0.82453 0.71069 0.16664 0.0
H2455 H 0.86516 0.74463 0.16436 0.0
H2456 H 0.86587 0.75436 0.19374 0.0
H2457 H 0.86844 0.77728 0.17323 0.0
H2458 H 0.79385 0.81214 0.17763 0.0
H2459 H 0.79689 0.81832 0.21913 0.0
H2460 H 0.83611 0.76315 0.22322 0.0
C2461 C 0.82487 0.74575 0.12935 0.0
C2462 C 0.8164 0.75493 0.10967 0.0
C2463 C 0.80674 0.7755 0.11254 0.0
C2464 C 0.80472 0.78613 0.13411 0.0
C2465 C 0.81305 0.77664 0.15309 0.0
C2466 C 0.82352 0.75732 0.15095 0.0
C2467 C 0.83217 0.75165 0.1742 0.0
C2468 C 0.81969 0.72409 0.17869 0.0
C2469 C 0.85953 0.75732 0.17651 0.0
C2470 C 0.82439 0.77028 0.1897 0.0
C2471 C 0.81307 0.78424 0.17711 0.0
C2472 C 0.80306 0.80157 0.18755 0.0
C2473 C 0.8048 0.80493 0.21126 0.0
C2474 C 0.81697 0.79157 0.22473 0.0
C2475 C 0.82699 0.77404 0.21357 0.0
H2476 H 0.18243 0.06765 0.77116 0.0
H2477 H 0.12216 0.01948 0.80148 0.0
H2478 H 0.09495 0.02316 0.76953 0.0
H2479 H 0.15269 0.10996 0.7503 0.0
H2480 H 0.16713 0.11359 0.72456 0.0
H2481 H 0.18217 0.1063 0.74929 0.0
H2482 H 0.18729 0.06654 0.72747 0.0
H2483 H 0.1725 0.07387 0.70259 0.0
H2484 H 0.16136 0.04325 0.71325 0.0
H2485 H 0.07409 0.03369 0.73531 0.0
H2486 H 0.06137 0.04771 0.69942 0.0
H2487 H 0.13522 0.08896 0.69157 0.0
C2488 C 0.16356 0.05761 0.77094 0.0
C2489 C 0.15439 0.04327 0.78877 0.0
C2490 C 0.12957 0.03053 0.78795 0.0
C2491 C 0.11396 0.03256 0.76992 0.0
C2492 C 0.1235 0.0473 0.75286 0.0
C2493 C 0.14773 0.05938 0.75307 0.0
C2494 C 0.15335 0.07422 0.73272 0.0
C2495 C 0.16449 0.10271 0.73964 0.0
C2496 C 0.16958 0.06384 0.71815 0.0
C2497 C 0.12845 0.06872 0.72113 0.0
C2498 C 0.11148 0.05324 0.73305 0.0
C2499 C 0.0872 0.04577 0.72577 0.0
C2500 C 0.08013 0.05399 0.70551 0.0
C2501 C 0.09732 0.06942 0.69281 0.0
C2502 C 0.12173 0.07702 0.70088 0.0
H2503 H 0.80441 0.42159 0.41805 0.0
H2504 H 0.77791 0.36359 0.46352 0.0
H2505 H 0.7725 0.33055 0.43257 0.0
H2506 H 0.76548 0.38551 0.36625 0.0
H2507 H 0.78927 0.39702 0.34854 0.0
H2508 H 0.78655 0.41649 0.37284 0.0
H2509 H 0.83023 0.42084 0.38702 0.0
H2510 H 0.83315 0.40101 0.36314 0.0
H2511 H 0.83903 0.39267 0.39109 0.0
H2512 H 0.77599 0.30379 0.39877 0.0
H2513 H 0.78657 0.28534 0.36382 0.0
H2514 H 0.81088 0.36052 0.34025 0.0
C2515 C 0.79671 0.402 0.42136 0.0
C2516 C 0.79167 0.39525 0.44329 0.0
C2517 C 0.78198 0.3693 0.44691 0.0
C2518 C 0.77875 0.35034 0.42941 0.0
C2519 C 0.78498 0.35757 0.40827 0.0
C2520 C 0.79339 0.38277 0.40404 0.0
C2521 C 0.80093 0.38534 0.38039 0.0
C2522 C 0.78457 0.39678 0.36618 0.0
C2523 C 0.8274 0.40087 0.38044 0.0
C2524 C 0.79684 0.35777 0.37253 0.0
C2525 C 0.78714 0.34201 0.38867 0.0
C2526 C 0.78315 0.31589 0.38581 0.0
C2527 C 0.78933 0.30559 0.36594 0.0
C2528 C 0.79951 0.32144 0.34926 0.0
C2529 C 0.80294 0.34782 0.35256 0.0
H2530 H 0.54055 0.07716 0.28342 0.0
H2531 H 0.4804 0.09355 0.2484 0.0
H2532 H 0.50332 0.10268 0.21503 0.0
H2533 H 0.5901 0.12192 0.25627 0.0
H2534 H 0.60658 0.09906 0.25497 0.0
H2535 H 0.58802 0.1 0.27764 0.0
H2536 H 0.56513 0.05241 0.26783 0.0
H2537 H 0.58366 0.05133 0.24536 0.0
H2538 H 0.55158 0.04184 0.23965 0.0
H2539 H 0.53037 0.10456 0.18446 0.0
H2540 H 0.55579 0.09238 0.15748 0.0
H2541 H 0.59716 0.07192 0.21178 0.0
C2542 C 0.53252 0.08348 0.26896 0.0
C2543 C 0.50895 0.08509 0.26844 0.0
C2544 C 0.49856 0.09243 0.24904 0.0
C2545 C 0.51154 0.0979 0.23018 0.0
C2546 C 0.53471 0.09571 0.23108 0.0
C2547 C 0.54498 0.08839 0.24993 0.0
C2548 C 0.56819 0.08301 0.24548 0.0
C2549 C 0.58948 0.10215 0.25942 0.0
C2550 C 0.56704 0.05553 0.24982 0.0
C2551 C 0.5688 0.08713 0.22081 0.0
C2552 C 0.54986 0.09547 0.21304 0.0
C2553 C 0.5455 0.09852 0.19043 0.0
C2554 C 0.56013 0.09172 0.17523 0.0
C2555 C 0.57853 0.08151 0.18268 0.0
C2556 C 0.58344 0.08008 0.20581 0.0
H2557 H 0.81285 0.70757 0.95097 0.0
H2558 H 0.82468 0.77812 0.99218 0.0
H2559 H 0.83033 0.80144 0.95794 0.0
H2560 H 0.85615 0.73184 0.911 0.0
H2561 H 0.8379 0.71279 0.88717 0.0
H2562 H 0.83507 0.70168 0.91481 0.0
H2563 H 0.78973 0.69677 0.91067 0.0
H2564 H 0.79242 0.70777 0.883 0.0
H2565 H 0.77974 0.72354 0.9039 0.0
H2566 H 0.83447 0.81736 0.91833 0.0
H2567 H 0.83583 0.82436 0.87819 0.0
H2568 H 0.82121 0.74355 0.86165 0.0
C2569 C 0.81673 0.72798 0.95298 0.0
C2570 C 0.81837 0.74083 0.9748 0.0
C2571 C 0.82332 0.76758 0.97606 0.0
C2572 C 0.82659 0.78104 0.95654 0.0
C2573 C 0.82488 0.76775 0.93547 0.0
C2574 C 0.82 0.74174 0.93359 0.0
C2575 C 0.81871 0.73188 0.90891 0.0
C2576 C 0.83811 0.71877 0.90526 0.0
C2577 C 0.79366 0.71392 0.90116 0.0
C2578 C 0.82365 0.75637 0.89708 0.0
C2579 C 0.82718 0.77683 0.9128 0.0
C2580 C 0.83176 0.80138 0.90605 0.0
C2581 C 0.83254 0.80517 0.88296 0.0
C2582 C 0.82882 0.78468 0.86622 0.0
C2583 C 0.82442 0.75984 0.87369 0.0
H2584 H 0.85598 0.11943 0.01434 0.0
H2585 H 0.876 0.1404 0.08549 0.0
H2586 H 0.90617 0.11703 0.08427 0.0
H2587 H 0.85865 0.05793 0.01371 0.0
H2588 H 0.8709 0.05739 0.98693 0.0
H2589 H 0.85296 0.07804 0.9928 0.0
H2590 H 0.88733 0.11692 0.98405 0.0
H2591 H 0.90527 0.09633 0.97773 0.0
H2592 H 0.91667 0.12295 0.99845 0.0
H2593 H 0.93041 0.08705 0.07593 0.0
H2594 H 0.95022 0.05674 0.06035 0.0
H2595 H 0.9146 0.05658 0.99452 0.0
C2596 C 0.86705 0.11954 0.02959 0.0
C2597 C 0.86373 0.13163 0.05003 0.0
C2598 C 0.87849 0.13141 0.06963 0.0
C2599 C 0.89553 0.11809 0.0691 0.0
C2600 C 0.89772 0.10558 0.04877 0.0
C2601 C 0.88419 0.10665 0.02928 0.0
C2602 C 0.88927 0.09093 1.00976 0.0
C2603 C 0.86659 0.06983 1.00025 0.0
C2604 C 0.9003 0.10779 0.99142 0.0
C2605 C 0.9073 0.08018 0.0214 0.0
C2606 C 0.91196 0.08882 0.0439 0.0
C2607 C 0.92713 0.08044 0.05829 0.0
C2608 C 0.93808 0.06306 0.04937 0.0
C2609 C 0.93381 0.05438 0.02628 0.0
C2610 C 0.91826 0.0631 1.01218 0.0
H2611 H 0.40712 0.3983 0.03151 0.0
H2612 H 0.37089 0.44418 0.0678 0.0
H2613 H 0.40756 0.48058 0.07111 0.0
H2614 H 0.46427 0.42674 0.06743 0.0
H2615 H 0.48269 0.4243 0.04501 0.0
H2616 H 0.45365 0.40151 0.04531 0.0
H2617 H 0.44018 0.41231 1.00525 0.0
H2618 H 0.47036 0.43276 1.00542 0.0
H2619 H 0.44574 0.44527 1.00029 0.0
H2620 H 0.44666 0.51323 0.06716 0.0
H2621 H 0.48811 0.53816 0.06191 0.0
H2622 H 0.5004 0.47069 0.03057 0.0
C2623 C 0.40703 0.41608 0.04006 0.0
C2624 C 0.38587 0.419 0.04835 0.0
C2625 C 0.38663 0.44205 0.06041 0.0
C2626 C 0.40741 0.46276 0.0625 0.0
C2627 C 0.42759 0.4599 0.053 0.0
C2628 C 0.42787 0.43697 0.04258 0.0
C2629 C 0.45265 0.43867 0.03543 0.0
C2630 C 0.46398 0.42181 0.04911 0.0
C2631 C 0.45212 0.43182 1.0101 0.0
C2632 C 0.46548 0.46658 0.0418 0.0
C2633 C 0.45077 0.47838 0.05215 0.0
C2634 C 0.45849 0.50416 0.05931 0.0
C2635 C 0.48203 0.51821 0.05614 0.0
C2636 C 0.49758 0.50652 0.04577 0.0
C2637 C 0.48901 0.48033 0.03846 0.0
H2638 H 0.3785 0.56039 0.78324 0.0
H2639 H 0.44473 0.61294 0.76641 0.0
H2640 H 0.42988 0.64892 0.77808 0.0
H2641 H 0.34003 0.59514 0.76296 0.0
H2642 H 0.32011 0.58714 0.78481 0.0
H2643 H 0.3364 0.5658 0.77584 0.0
H2644 H 0.35413 0.56689 0.81683 0.0
H2645 H 0.33796 0.5883 0.82594 0.0
H2646 H 0.36998 0.59694 0.83193 0.0
H2647 H 0.40765 0.67896 0.79175 0.0
H2648 H 0.37898 0.70086 0.8042 0.0
H2649 H 0.3272 0.62825 0.81135 0.0
C2650 C 0.39003 0.57945 0.78214 0.0
C2651 C 0.41288 0.58389 0.77409 0.0
C2652 C 0.42717 0.60912 0.77256 0.0
C2653 C 0.41893 0.62964 0.77921 0.0
C2654 C 0.39633 0.62453 0.78716 0.0
C2655 C 0.38203 0.60004 0.78848 0.0
C2656 C 0.35814 0.59953 0.79687 0.0
C2657 C 0.33745 0.58611 0.77905 0.0
C2658 C 0.35488 0.58718 0.81922 0.0
C2659 C 0.36117 0.62762 0.80011 0.0
C2660 C 0.38338 0.64173 0.79458 0.0
C2661 C 0.39026 0.66811 0.79618 0.0
C2662 C 0.37391 0.68036 0.80342 0.0
C2663 C 0.35093 0.66622 0.80887 0.0
C2664 C 0.3446 0.63951 0.80724 0.0
H2665 H 0.24585 0.6369 0.57674 0.0
H2666 H 0.24863 0.69576 0.53175 0.0
H2667 H 0.20509 0.67742 0.52092 0.0
H2668 H 0.20034 0.58216 0.55214 0.0
H2669 H 0.18858 0.57669 0.57859 0.0
H2670 H 0.21952 0.59427 0.57768 0.0
H2671 H 0.20623 0.62766 0.60451 0.0
H2672 H 0.17506 0.60967 0.59951 0.0
H2673 H 0.18481 0.64218 0.59288 0.0
H2674 H 0.16397 0.6476 0.50984 0.0
H2675 H 0.12479 0.61468 0.50573 0.0
H2676 H 0.14741 0.5788 0.56205 0.0
C2677 C 0.23709 0.64583 0.56468 0.0
C2678 C 0.25037 0.66675 0.554 0.0
C2679 C 0.23858 0.67914 0.53936 0.0
C2680 C 0.21397 0.66894 0.53325 0.0
C2681 C 0.20149 0.64735 0.54307 0.0
C2682 C 0.21236 0.63671 0.55935 0.0
C2683 C 0.19417 0.61545 0.56912 0.0
C2684 C 0.20123 0.5908 0.56937 0.0
C2685 C 0.18981 0.62427 0.5929 0.0
C2686 C 0.17253 0.61278 0.55285 0.0
C2687 C 0.1769 0.63195 0.53851 0.0
C2688 C 0.16007 0.63288 0.52133 0.0
C2689 C 0.13801 0.61396 0.51898 0.0
C2690 C 0.13316 0.59415 0.53349 0.0
C2691 C 0.15069 0.5936 0.55061 0.0
H2692 H 0.70986 0.98928 0.83727 0.0
H2693 H 0.68233 0.94957 0.77192 0.0
H2694 H 0.69664 0.9139 0.78274 0.0
H2695 H 0.76147 0.98156 0.83767 0.0
H2696 H 0.76671 0.97702 0.86691 0.0
H2697 H 0.74621 0.99394 0.85869 0.0
H2698 H 0.71239 0.96291 0.87751 0.0
H2699 H 0.73303 0.946 0.8863 0.0
H2700 H 0.70517 0.92928 0.87028 0.0
H2701 H 0.72416 0.89083 0.79466 0.0
H2702 H 0.76149 0.8818 0.8068 0.0
H2703 H 0.77303 0.93629 0.8644 0.0
C2704 C 0.70591 0.97257 0.82559 0.0
C2705 C 0.69519 0.97221 0.80371 0.0
C2706 C 0.6904 0.95017 0.78882 0.0
C2707 C 0.69841 0.92977 0.7949 0.0
C2708 C 0.71085 0.93167 0.81597 0.0
C2709 C 0.71418 0.95239 0.83131 0.0
C2710 C 0.73227 0.95266 0.85068 0.0
C2711 C 0.75286 0.97776 0.85361 0.0
C2712 C 0.71997 0.94739 0.87248 0.0
C2713 C 0.74069 0.9306 0.84256 0.0
C2714 C 0.72729 0.91802 0.82305 0.0
C2715 C 0.73403 0.89969 0.81041 0.0
C2716 C 0.75523 0.89464 0.81743 0.0
C2717 C 0.76935 0.90771 0.83696 0.0
C2718 C 0.7618 0.92544 0.84996 0.0
H2719 H 0.76136 0.91124 0.51253 0.0
H2720 H 0.75632 0.88143 0.57784 0.0
H2721 H 0.72247 0.89878 0.58412 0.0
H2722 H 0.75459 0.9684 0.52908 0.0
H2723 H 0.73756 0.9717 0.50387 0.0
H2724 H 0.75776 0.95277 0.50266 0.0
H2725 H 0.72337 0.91392 0.48512 0.0
H2726 H 0.70305 0.93286 0.4858 0.0
H2727 H 0.69631 0.90352 0.49906 0.0
H2728 H 0.69306 0.92545 0.58513 0.0
H2729 H 0.67027 0.95628 0.58023 0.0
H2730 H 0.69558 0.9686 0.51423 0.0
C2731 C 0.75262 0.90755 0.52787 0.0
C2732 C 0.76139 0.89473 0.54462 0.0
C2733 C 0.74966 0.8907 0.56458 0.0
C2734 C 0.73054 0.90071 0.56833 0.0
C2735 C 0.72323 0.91446 0.55187 0.0
C2736 C 0.73376 0.91745 0.53186 0.0
C2737 C 0.72443 0.93482 0.51762 0.0
C2738 C 0.7448 0.9583 0.51305 0.0
C2739 C 0.71099 0.92041 0.4956 0.0
C2740 C 0.70749 0.9419 0.53295 0.0
C2741 C 0.70676 0.92981 0.55254 0.0
C2742 C 0.69324 0.93461 0.56967 0.0
C2743 C 0.68027 0.95215 0.56669 0.0
C2744 C 0.68099 0.96495 0.5468 0.0
C2745 C 0.69468 0.95938 0.52971 0.0
H2746 H 0.44402 0.46063 0.75947 0.0
H2747 H 0.40555 0.46901 0.69831 0.0
H2748 H 0.37493 0.42784 0.70189 0.0
H2749 H 0.42339 0.39983 0.76415 0.0
H2750 H 0.41857 0.39815 0.79257 0.0
H2751 H 0.44074 0.42479 0.78326 0.0
H2752 H 0.40589 0.48433 0.81688 0.0
H2753 H 0.39227 0.45987 0.83153 0.0
H2754 H 0.37646 0.47079 0.81247 0.0
H2755 H 0.34789 0.38881 0.71431 0.0
H2756 H 0.3252 0.35214 0.73318 0.0
H2757 H 0.37623 0.37551 0.79144 0.0
C2758 C 0.4289 0.45332 0.74703 0.0
C2759 C 0.42642 0.46748 0.72927 0.0
C2760 C 0.40749 0.458 0.71227 0.0
C2761 C 0.3897 0.43537 0.71465 0.0
C2762 C 0.39011 0.42492 0.73523 0.0
C2763 C 0.40826 0.43515 0.75211 0.0
C2764 C 0.40184 0.42647 0.7763 0.0
C2765 C 0.42224 0.41186 0.77947 0.0
C2766 C 0.39317 0.4645 0.81342 0.0
C2767 C 0.38072 0.40184 0.76532 0.0
C2768 C 0.37313 0.40405 0.74333 0.0
C2769 C 0.35338 0.38653 0.73147 0.0
C2770 C 0.3408 0.36568 0.74217 0.0
C2771 C 0.34901 0.36165 0.76389 0.0
C2772 C 0.36964 0.37919 0.77511 0.0
H2773 H 0.22442 0.61114 0.27194 0.0
H2774 H 0.15982 0.62117 0.29677 0.0
H2775 H 0.17842 0.66784 0.30036 0.0
H2776 H 0.27128 0.66425 0.30103 0.0
H2777 H 0.28596 0.66931 0.27577 0.0
H2778 H 0.26724 0.63811 0.28002 0.0
H2779 H 0.24569 0.64132 0.24034 0.0
H2780 H 0.26325 0.67393 0.23972 0.0
H2781 H 0.23107 0.66562 0.23765 0.0
H2782 H 0.20558 0.71264 0.30431 0.0
H2783 H 0.23693 0.75329 0.3036 0.0
H2784 H 0.28204 0.71421 0.27146 0.0
C2785 C 0.21441 0.6233 0.27836 0.0
C2786 C 0.19121 0.61293 0.28511 0.0
C2787 C 0.17791 0.62904 0.29224 0.0
C2788 C 0.1883 0.65543 0.29424 0.0
C2789 C 0.21149 0.66514 0.28794 0.0
C2790 C 0.22412 0.64962 0.27951 0.0
C2791 C 0.24757 0.66496 0.27151 0.0
C2792 C 0.26923 0.65868 0.28278 0.0
C2793 C 0.24684 0.66124 0.24578 0.0
C2794 C 0.24731 0.69147 0.27903 0.0
C2795 C 0.22616 0.69115 0.28812 0.0
C2796 C 0.22207 0.71319 0.29695 0.0
C2797 C 0.24008 0.73618 0.29655 0.0
C2798 C 0.26199 0.73697 0.28746 0.0
C2799 C 0.26549 0.71427 0.27845 0.0
H2800 H 0.54095 0.72391 0.48779 0.0
H2801 H 0.48881 0.68648 0.43233 0.0
H2802 H 0.49004 0.64476 0.44408 0.0
H2803 H 0.57655 0.68021 0.48293 0.0
H2804 H 0.58387 0.68129 0.51275 0.0
H2805 H 0.57811 0.70823 0.50074 0.0
H2806 H 0.5452 0.70698 0.52776 0.0
H2807 H 0.55084 0.68002 0.53983 0.0
H2808 H 0.52109 0.67813 0.52841 0.0
H2809 H 0.49541 0.60682 0.46302 0.0
H2810 H 0.50782 0.57564 0.48479 0.0
H2811 H 0.55966 0.63685 0.5261 0.0
C2812 C 0.52971 0.7069 0.4782 0.0
C2813 C 0.51453 0.70854 0.4592 0.0
C2814 C 0.5005 0.6858 0.4469 0.0
C2815 C 0.50104 0.66197 0.45352 0.0
C2816 C 0.51612 0.66098 0.47228 0.0
C2817 C 0.53053 0.68285 0.48425 0.0
C2818 C 0.54602 0.67639 0.50308 0.0
C2819 C 0.57272 0.68717 0.49966 0.0
C2820 C 0.54045 0.68595 0.52614 0.0
C2821 C 0.53794 0.64752 0.49997 0.0
C2822 C 0.52039 0.63909 0.48229 0.0
C2823 C 0.50934 0.61327 0.4767 0.0
C2824 C 0.51647 0.59564 0.48927 0.0
C2825 C 0.53489 0.60362 0.50709 0.0
C2826 C 0.54577 0.63004 0.51241 0.0
H2827 H 0.67087 0.33971 0.69761 0.0
H2828 H 0.6934 0.32123 0.63282 0.0
H2829 H 0.73098 0.31783 0.65155 0.0
H2830 H 0.73175 0.37629 0.72404 0.0
H2831 H 0.72543 0.36425 0.75095 0.0
H2832 H 0.70163 0.3683 0.73231 0.0
H2833 H 0.67783 0.32118 0.73427 0.0
H2834 H 0.7016 0.31691 0.75271 0.0
H2835 H 0.69152 0.29688 0.72693 0.0
H2836 H 0.76332 0.31066 0.67737 0.0
H2837 H 0.78967 0.30325 0.70818 0.0
H2838 H 0.74782 0.32803 0.75686 0.0
C2839 C 0.684 0.33567 0.68729 0.0
C2840 C 0.67916 0.33093 0.66363 0.0
C2841 C 0.69668 0.32517 0.65087 0.0
C2842 C 0.71811 0.32313 0.6614 0.0
C2843 C 0.72196 0.32711 0.68475 0.0
C2844 C 0.70557 0.33363 0.69756 0.0
C2845 C 0.71353 0.33548 0.72248 0.0
C2846 C 0.71837 0.3627 0.73307 0.0
C2847 C 0.69502 0.31648 0.73481 0.0
C2848 C 0.73659 0.32827 0.72171 0.0
C2849 C 0.74108 0.32359 0.69973 0.0
C2850 C 0.76024 0.31479 0.69461 0.0
C2851 C 0.77514 0.31059 0.71232 0.0
C2852 C 0.77116 0.31544 0.73504 0.0
C2853 C 0.75169 0.32468 0.73972 0.0
H2854 H 0.03856 0.38336 0.95013 0.0
H2855 H 1.00444 0.33051 0.99707 0.0
H2856 H 1.00651 0.36656 0.02458 0.0
H2857 H 0.07967 0.42764 0.99141 0.0
H2858 H 0.07814 0.45499 0.97722 0.0
H2859 H 0.07332 0.42497 0.96134 0.0
H2860 H 0.03223 0.42739 0.94453 0.0
H2861 H 0.03687 0.45734 0.96051 0.0
H2862 H 1.01042 0.43145 0.96311 0.0
H2863 H 1.01172 0.40967 0.04694 0.0
H2864 H 1.02279 0.45459 0.06264 0.0
H2865 H 0.0547 0.47818 1.00126 0.0
C2866 C 0.03148 0.37927 0.96618 0.0
C2867 C 1.02125 0.35394 0.97131 0.0
C2868 C 1.01244 0.34964 0.99267 0.0
C2869 C 1.01343 0.37006 1.0084 0.0
C2870 C 1.0235 0.39478 1.0027 0.0
C2871 C 0.03261 0.39936 0.98214 0.0
C2872 C 0.04324 0.42754 0.98025 0.0
C2873 C 0.07019 0.43417 0.97739 0.0
C2874 C 0.02989 0.43644 0.96095 0.0
C2875 C 0.03871 0.43818 1.00289 0.0
C2876 C 0.02709 0.41912 0.01561 0.0
C2877 C 1.02091 0.42468 0.03709 0.0
C2878 C 0.02714 0.45027 0.04586 0.0
C2879 C 0.0397 0.47 0.0333 0.0
C2880 C 0.04525 0.46364 1.01145 0.0
H2881 H 0.05017 0.79525 0.18267 0.0
H2882 H 1.00788 0.79168 0.11954 0.0
H2883 H 0.97147 0.78455 0.13971 0.0
H2884 H 1.00579 0.74615 0.20711 0.0
H2885 H 1.01295 0.76187 0.23506 0.0
H2886 H 0.03567 0.76634 0.2156 0.0
H2887 H 0.04352 0.81498 0.22113 0.0
H2888 H 1.02085 0.81067 0.2406 0.0
H2889 H 1.01898 0.82804 0.21641 0.0
H2890 H 0.93983 0.77984 0.16708 0.0
H2891 H 0.91551 0.77736 0.19931 0.0
H2892 H 0.97799 0.7813 0.24431 0.0
C2893 C 0.03328 0.79299 0.17304 0.0
C2894 C 0.032 0.79417 0.14947 0.0
C2895 C 1.00942 0.79087 0.13758 0.0
C2896 C 0.98859 0.7868 0.14889 0.0
C2897 C 0.99052 0.7858 0.1721 0.0
C2898 C 1.01226 0.78865 0.18403 0.0
C2899 C 1.00946 0.78684 0.2089 0.0
C2900 C 1.01637 0.76393 0.21715 0.0
C2901 C 1.02407 0.81161 0.22256 0.0
C2902 C 0.98281 0.78295 0.20914 0.0
C2903 C 0.9722 0.78237 0.18776 0.0
C2904 C 0.94791 0.77993 0.18388 0.0
C2905 C 0.93416 0.7783 0.20236 0.0
C2906 C 0.94463 0.77895 0.22454 0.0
C2907 C 0.96931 0.78098 0.22773 0.0
H2908 H 0.54779 0.3533 0.11021 0.0
H2909 H 0.58705 0.38635 0.17398 0.0
H2910 H 0.59387 0.42916 0.1603 0.0
H2911 H 0.58683 0.39799 0.07542 0.0
H2912 H 0.56276 0.39889 0.05546 0.0
H2913 H 0.56042 0.37106 0.07036 0.0
H2914 H 0.52072 0.37407 0.08458 0.0
H2915 H 0.52297 0.40196 0.06979 0.0
H2916 H 0.51983 0.40303 0.09953 0.0
H2917 H 0.59436 0.47111 0.13917 0.0
H2918 H 0.59211 0.50401 0.11374 0.0
H2919 H 0.55596 0.44548 0.06121 0.0
C2920 C 0.55795 0.36943 0.12149 0.0
C2921 C 0.56668 0.36526 0.14379 0.0
C2922 C 0.57996 0.38783 0.15713 0.0
C2923 C 0.5839 0.41267 0.14932 0.0
C2924 C 0.57499 0.41589 0.12752 0.0
C2925 C 0.56253 0.39461 0.11366 0.0
C2926 C 0.55548 0.40317 0.09063 0.0
C2927 C 0.56705 0.39211 0.07184 0.0
C2928 C 0.52812 0.39506 0.08584 0.0
C2929 C 0.56567 0.4325 0.0935 0.0
C2930 C 0.57657 0.4394 0.11515 0.0
C2931 C 0.58614 0.46537 0.12221 0.0
C2932 C 0.58477 0.48432 0.10734 0.0
C2933 C 0.57441 0.47848 0.08466 0.0
C2934 C 0.56471 0.45156 0.07794 0.0
H2935 H 0.99292 0.30513 0.39752 0.0
H2936 H 1.01192 0.25517 0.34852 0.0
H2937 H 0.97407 0.2507 0.32543 0.0
H2938 H 0.92783 0.27128 0.39081 0.0
H2939 H 0.91837 0.29936 0.39433 0.0
H2940 H 0.94678 0.29891 0.40753 0.0
H2941 H 0.96933 0.33841 0.38735 0.0
H2942 H 0.9401 0.33909 0.37657 0.0
H2943 H 0.96225 0.33833 0.35754 0.0
H2944 H 0.93122 0.25027 0.30688 0.0
H2945 H 0.89211 0.25615 0.29485 0.0
H2946 H 0.89977 0.3093 0.35301 0.0
C2947 C 0.98933 0.29335 0.38184 0.0
C2948 C 1.00679 0.28094 0.37511 0.0
C2949 C 1.00004 0.26544 0.35442 0.0
C2950 C 0.97812 0.26269 0.34102 0.0
C2951 C 0.96185 0.27549 0.3478 0.0
C2952 C 0.96729 0.29075 0.36779 0.0
C2953 C 0.94629 0.30212 0.37125 0.0
C2954 C 0.9341 0.29235 0.39223 0.0
C2955 C 0.95507 0.33121 0.37333 0.0
C2956 C 0.92881 0.29193 0.34981 0.0
C2957 C 0.93794 0.27597 0.33684 0.0
C2958 C 0.92446 0.26309 0.31701 0.0
C2959 C 0.90182 0.26658 0.31017 0.0
C2960 C 0.89192 0.28356 0.32227 0.0
C2961 C 0.90623 0.29641 0.34266 0.0
H2962 H 0.07265 0.70432 0.66132 0.0
H2963 H 0.03537 0.73749 0.61262 0.0
H2964 H 0.03208 0.70157 0.58503 0.0
H2965 H 0.10641 0.67942 0.62087 0.0
H2966 H 0.10428 0.65026 0.63361 0.0
H2967 H 0.1033 0.67798 0.65054 0.0
H2968 H 0.06302 0.65266 0.66395 0.0
H2969 H 0.06392 0.62488 0.64706 0.0
H2970 H 0.03844 0.63668 0.6435 0.0
H2971 H 0.0329 0.66151 0.56092 0.0
H2972 H 0.03789 0.62228 0.54324 0.0
H2973 H 0.07517 0.61157 0.60513 0.0
C2974 C 0.06349 0.70397 0.64496 0.0
C2975 C 0.05404 0.72469 0.63986 0.0
C2976 C 0.04272 0.72266 0.61773 0.0
C2977 C 0.04076 0.70197 0.60162 0.0
C2978 C 0.05023 0.68232 0.60702 0.0
C2979 C 0.0614 0.683 0.62823 0.0
C2980 C 0.07038 0.65921 0.62909 0.0
C2981 C 0.09772 0.6672 0.63382 0.0
C2982 C 0.05823 0.64236 0.64697 0.0
C2983 C 0.06263 0.64532 0.60523 0.0
C2984 C 0.05094 0.6592 0.59294 0.0
C2985 C 0.04205 0.6507 0.57061 0.0
C2986 C 0.04503 0.62795 0.56053 0.0
C2987 C 0.05698 0.61275 0.57214 0.0
C2988 C 0.06589 0.62206 0.59519 0.0
H2989 H 0.64042 0.7655 0.87313 0.0
H2990 H 0.64853 0.84599 0.87522 0.0
H2991 H 0.68697 0.85297 0.85866 0.0
H2992 H 0.70607 0.77168 0.88485 0.0
H2993 H 0.70566 0.74522 0.86555 0.0
H2994 H 0.67895 0.7458 0.8786 0.0
H2995 H 0.65582 0.73996 0.83962 0.0
H2996 H 0.68249 0.73947 0.82646 0.0
H2997 H 0.66693 0.76192 0.81904 0.0
H2998 H 0.72677 0.85241 0.84043 0.0
H2999 H 0.76107 0.84427 0.82309 0.0
H3000 H 0.73134 0.76412 0.83001 0.0
C3001 C 0.65039 0.78478 0.87066 0.0
C3002 C 0.64017 0.80529 0.87672 0.0
C3003 C 0.65474 0.82965 0.87171 0.0
C3004 C 0.67714 0.83391 0.86197 0.0
C3005 C 0.68637 0.81374 0.85624 0.0
C3006 C 0.67339 0.78948 0.86042 0.0
C3007 C 0.68764 0.77126 0.85179 0.0
C3008 C 0.695 0.75766 0.87136 0.0
C3009 C 0.6723 0.75198 0.83313 0.0
C3010 C 0.71038 0.78885 0.84229 0.0
C3011 C 0.70901 0.81337 0.84524 0.0
C3012 C 0.72754 0.83313 0.83815 0.0
C3013 C 0.74748 0.82824 0.82808 0.0
C3014 C 0.7504 0.8036 0.82435 0.0
C3015 C 0.73078 0.7835 0.83192 0.0
H3016 H 0.50166 0.58466 0.69551 0.0
H3017 H 0.42714 0.55542 0.66953 0.0
H3018 H 0.43883 0.56231 0.63114 0.0
H3019 H 0.5219 0.63107 0.65012 0.0
H3020 H 0.54992 0.62379 0.6501 0.0
H3021 H 0.53542 0.62374 0.67574 0.0
H3022 H 0.53656 0.57784 0.68017 0.0
H3023 H 0.55066 0.57755 0.65453 0.0
H3024 H 0.52306 0.5535 0.65779 0.0
H3025 H 0.45845 0.56129 0.59628 0.0
H3026 H 0.48463 0.55494 0.56738 0.0
H3027 H 0.54689 0.58595 0.61494 0.0
C3028 C 0.48772 0.58083 0.68185 0.0
C3029 C 0.4635 0.56961 0.68547 0.0
C3030 C 0.4458 0.56419 0.66714 0.0
C3031 C 0.45228 0.56812 0.64526 0.0
C3032 C 0.47648 0.57778 0.64207 0.0
C3033 C 0.49395 0.58454 0.6599 0.0
C3034 C 0.5188 0.59077 0.65181 0.0
C3035 C 0.53231 0.61903 0.65726 0.0
C3036 C 0.53307 0.5739 0.66165 0.0
C3037 C 0.51256 0.58453 0.62678 0.0
C3038 C 0.48804 0.57764 0.62149 0.0
C3039 C 0.47767 0.5675 0.60006 0.0
C3040 C 0.49265 0.56382 0.5838 0.0
C3041 C 0.5177 0.57039 0.58898 0.0
C3042 C 0.52784 0.58159 0.61049 0.0
H3043 H 0.7911 0.17506 0.97659 0.0
H3044 H 0.84355 0.2315 0.02203 0.0
H3045 H 0.84286 0.26398 0.99575 0.0
H3046 H 0.81104 0.20002 0.9238 0.0
H3047 H 0.78083 0.19274 0.91108 0.0
H3048 H 0.78798 0.17354 0.93211 0.0
H3049 H 0.75491 0.18184 0.95544 0.0
H3050 H 0.74791 0.20138 0.93469 0.0
H3051 H 0.75573 0.21401 0.96356 0.0
H3052 H 0.83439 0.29082 0.96554 0.0
H3053 H 0.82018 0.3094 0.93293 0.0
H3054 H 0.77058 0.23574 0.90975 0.0
C3055 C 0.80276 0.19411 0.98095 0.0
C3056 C 0.81728 0.2007 1.00146 0.0
C3057 C 0.83225 0.22595 1.00641 0.0
C3058 C 0.83194 0.24456 0.99163 0.0
C3059 C 0.81652 0.23761 0.97207 0.0
C3060 C 0.80233 0.21294 0.96667 0.0
C3061 C 0.78613 0.21062 0.94545 0.0
C3062 C 0.79185 0.1932 0.92702 0.0
C3063 C 0.75961 0.20143 0.95007 0.0
C3064 C 0.79332 0.2379 0.93982 0.0
C3065 C 0.81099 0.25316 0.95524 0.0
C3066 C 0.82053 0.27906 0.95336 0.0
C3067 C 0.81212 0.28949 0.93493 0.0
C3068 C 0.79421 0.27406 0.91878 0.0
C3069 C 0.78449 0.24802 0.92161 0.0
H3070 H 0.14131 0.4959 0.20669 0.0
H3071 H 0.19595 0.56838 0.20807 0.0
H3072 H 0.17936 0.57496 0.17081 0.0
H3073 H 0.1369 0.48034 0.14278 0.0
H3074 H 0.1051 0.46561 0.14241 0.0
H3075 H 0.12468 0.46411 0.16647 0.0
H3076 H 0.09926 0.4834 0.19186 0.0
H3077 H 0.08019 0.48595 0.16793 0.0
H3078 H 0.09539 0.51373 0.18645 0.0
H3079 H 0.1514 0.57832 0.13872 0.0
H3080 H 0.11854 0.57415 0.10923 0.0
H3081 H 0.08296 0.4987 0.12736 0.0
C3082 C 0.1505 0.51254 0.19862 0.0
C3083 C 0.16992 0.53161 0.21018 0.0
C3084 C 0.18127 0.55337 0.19936 0.0
C3085 C 0.17182 0.55737 0.17826 0.0
C3086 C 0.15147 0.5391 0.16808 0.0
C3087 C 0.14145 0.51665 0.17747 0.0
C3088 C 0.11851 0.50105 0.16401 0.0
C3089 C 0.12148 0.47631 0.15327 0.0
C3090 C 0.09709 0.49574 0.17843 0.0
C3091 C 0.11641 0.51893 0.14643 0.0
C3092 C 0.13564 0.54075 0.14904 0.0
C3093 C 0.1366 0.56107 0.13613 0.0
C3094 C 0.11776 0.55871 0.11971 0.0
C3095 C 0.09836 0.53624 0.11638 0.0
C3096 C 0.09767 0.51607 0.12978 0.0
H3097 H 0.8085 0.87416 0.46223 0.0
H3098 H 0.83593 0.81973 0.49555 0.0
H3099 H 0.83874 0.79886 0.45829 0.0
H3100 H 0.77276 0.82957 0.41592 0.0
H3101 H 0.77896 0.85309 0.39586 0.0
H3102 H 0.77815 0.86255 0.42506 0.0
H3103 H 0.82087 0.89354 0.42556 0.0
H3104 H 0.82192 0.88404 0.39645 0.0
H3105 H 0.84482 0.88169 0.41708 0.0
H3106 H 0.84156 0.7861 0.41578 0.0
H3107 H 0.84068 0.78079 0.37429 0.0
H3108 H 0.80973 0.84268 0.36922 0.0
C3109 C 0.81479 0.85759 0.46183 0.0
C3110 C 0.82191 0.84865 0.48217 0.0
C3111 C 0.83006 0.8269 0.48049 0.0
C3112 C 0.83188 0.81502 0.45927 0.0
C3113 C 0.82518 0.82475 0.43962 0.0
C3114 C 0.81639 0.84535 0.44085 0.0
C3115 C 0.81039 0.8524 0.41744 0.0
C3116 C 0.78347 0.84921 0.41333 0.0
C3117 C 0.8254 0.87953 0.41394 0.0
C3118 C 0.81755 0.83291 0.40268 0.0
C3119 C 0.82615 0.81713 0.4157 0.0
C3120 C 0.8346 0.79829 0.40561 0.0
C3121 C 0.83411 0.79544 0.38188 0.0
C3122 C 0.82506 0.81115 0.36811 0.0
C3123 C 0.81663 0.83009 0.37897 0.0
H3124 H 0.46266 0.50802 0.82752 0.0
H3125 H 0.51225 0.55668 0.78674 0.0
H3126 H 0.54523 0.56072 0.81597 0.0
H3127 H 0.48872 0.53864 0.88139 0.0
H3128 H 0.48351 0.50929 0.89449 0.0
H3129 H 0.46384 0.51163 0.87087 0.0
H3130 H 0.47187 0.47303 0.84971 0.0
H3131 H 0.49162 0.47058 0.87323 0.0
H3132 H 0.50223 0.4737 0.84568 0.0
H3133 H 0.57279 0.55975 0.85055 0.0
H3134 H 0.59241 0.55175 0.88631 0.0
H3135 H 0.52478 0.50108 0.90168 0.0
C3136 C 0.48041 0.51949 0.82457 0.0
C3137 C 0.48482 0.53188 0.80472 0.0
C3138 C 0.50839 0.5469 0.80179 0.0
C3139 C 0.52726 0.54934 0.81829 0.0
C3140 C 0.52227 0.53644 0.83748 0.0
C3141 C 0.49942 0.52169 0.84055 0.0
C3142 C 0.49875 0.50886 0.8621 0.0
C3143 C 0.48276 0.51764 0.87816 0.0
C3144 C 0.49065 0.47982 0.85739 0.0
C3145 C 0.52481 0.51871 0.87075 0.0
C3146 C 0.53815 0.53484 0.85654 0.0
C3147 C 0.56257 0.54693 0.86168 0.0
C3148 C 0.57356 0.54231 0.88189 0.0
C3149 C 0.56012 0.52543 0.89628 0.0
C3150 C 0.53552 0.51358 0.89059 0.0
H3151 H 0.81313 0.18006 0.14467 0.0
H3152 H 0.87267 0.23391 0.11834 0.0
H3153 H 0.8832 0.25808 0.15548 0.0
H3154 H 0.79435 0.22383 0.17483 0.0
H3155 H 0.78572 0.20558 0.19843 0.0
H3156 H 0.78556 0.18968 0.17132 0.0
H3157 H 0.81415 0.16597 0.18802 0.0
H3158 H 0.81376 0.1815 0.21528 0.0
H3159 H 0.84186 0.1839 0.20371 0.0
H3160 H 0.88405 0.2794 0.19379 0.0
H3161 H 0.87501 0.29614 0.23029 0.0
H3162 H 0.81422 0.229 0.23105 0.0
C3163 C 0.82886 0.19644 0.14695 0.0
C3164 C 0.84221 0.20502 0.12872 0.0
C3165 C 0.86227 0.22695 0.13214 0.0
C3166 C 0.86845 0.24076 0.15319 0.0
C3167 C 0.85442 0.23232 0.17066 0.0
C3168 C 0.83514 0.21055 0.16782 0.0
C3169 C 0.82141 0.20712 0.1885 0.0
C3170 C 0.79522 0.20654 0.18292 0.0
C3171 C 0.8229 0.1832 0.19953 0.0
C3172 C 0.83534 0.23089 0.20296 0.0
C3173 C 0.8546 0.24493 0.19261 0.0
C3174 C 0.86923 0.26838 0.20223 0.0
C3175 C 0.8639 0.27778 0.22292 0.0
C3176 C 0.84392 0.26389 0.23355 0.0
C3177 C 0.82974 0.24001 0.22349 0.0
H3178 H 0.13978 0.51753 0.35644 0.0
H3179 H 0.10242 0.52762 0.29441 0.0
H3180 H 0.06401 0.51391 0.31128 0.0
H3181 H 0.08905 0.46114 0.37141 0.0
H3182 H 0.0956 0.47154 0.4008 0.0
H3183 H 0.11944 0.47707 0.38252 0.0
H3184 H 0.13203 0.5252 0.39493 0.0
H3185 H 0.10868 0.51971 0.41352 0.0
H3186 H 0.11001 0.54207 0.39262 0.0
H3187 H 0.03216 0.5097 0.33712 0.0
H3188 H 1.00979 0.5147 0.36978 0.0
H3189 H 0.06635 0.50306 0.41408 0.0
C3190 C 0.12341 0.51622 0.34629 0.0
C3191 C 0.124 0.52368 0.32423 0.0
C3192 C 0.10231 0.52182 0.31136 0.0
C3193 C 0.08039 0.51391 0.32074 0.0
C3194 C 0.08041 0.50722 0.34277 0.0
C3195 C 0.10133 0.50785 0.35525 0.0
C3196 C 0.09685 0.50217 0.37917 0.0
C3197 C 0.10045 0.47645 0.38373 0.0
C3198 C 0.11281 0.52357 0.39602 0.0
C3199 C 0.0707 0.50095 0.37882 0.0
C3200 C 0.06131 0.50317 0.3575 0.0
C3201 C 0.0389 0.50695 0.35374 0.0
C3202 C 0.02629 0.50978 0.37232 0.0
C3203 C 0.03617 0.5087 0.39427 0.0
C3204 C 0.05799 0.5029 0.39736 0.0
H3205 H 0.83565 0.87627 0.63671 0.0
H3206 H 0.79119 0.80549 0.60198 0.0
H3207 H 0.78338 0.78752 0.63846 0.0
H3208 H 0.86249 0.84727 0.68009 0.0
H3209 H 0.86342 0.87139 0.70205 0.0
H3210 H 0.86489 0.87915 0.6733 0.0
H3211 H 0.82843 0.89615 0.6763 0.0
H3212 H 0.82681 0.88836 0.70504 0.0
H3213 H 0.80102 0.87588 0.68504 0.0
H3214 H 0.77972 0.777 0.67948 0.0
H3215 H 0.78283 0.774 0.72049 0.0
H3216 H 0.83124 0.85056 0.72965 0.0
C3217 C 0.82417 0.85701 0.63676 0.0
C3218 C 0.81392 0.84245 0.6161 0.0
C3219 C 0.79929 0.81721 0.61726 0.0
C3220 C 0.79468 0.80679 0.63805 0.0
C3221 C 0.805 0.82156 0.65799 0.0
C3222 C 0.81966 0.8461 0.65753 0.0
C3223 C 0.8292 0.85754 0.68146 0.0
C3224 C 0.85663 0.86423 0.68439 0.0
C3225 C 0.82087 0.88087 0.6873 0.0
C3226 C 0.81756 0.83573 0.69542 0.0
C3227 C 0.8035 0.81523 0.6815 0.0
C3228 C 0.79077 0.79299 0.69042 0.0
C3229 C 0.79259 0.79148 0.71393 0.0
C3230 C 0.80722 0.81195 0.72875 0.0
C3231 C 0.81981 0.83444 0.71908 0.0
H3232 H 0.77051 0.50063 0.49956 0.0
H3233 H 0.73916 0.42872 0.52698 0.0
H3234 H 0.70828 0.44572 0.54236 0.0
H3235 H 0.76441 0.53865 0.54655 0.0
H3236 H 0.7582 0.56286 0.53051 0.0
H3237 H 0.77604 0.5441 0.5196 0.0
H3238 H 0.74709 0.5309 0.48348 0.0
H3239 H 0.72897 0.54949 0.49417 0.0
H3240 H 0.71566 0.51623 0.48559 0.0
H3241 H 0.68192 0.47147 0.55606 0.0
H3242 H 0.66219 0.50351 0.56699 0.0
H3243 H 0.71347 0.55942 0.53316 0.0
C3244 C 0.75695 0.48819 0.50843 0.0
C3245 C 0.75721 0.46323 0.51193 0.0
C3246 C 0.73927 0.44785 0.52397 0.0
C3247 C 0.72168 0.45735 0.53279 0.0
C3248 C 0.72244 0.48231 0.52957 0.0
C3249 C 0.73964 0.49749 0.51767 0.0
C3250 C 0.73762 0.52413 0.51779 0.0
C3251 C 0.76042 0.54357 0.5293 0.0
C3252 C 0.73199 0.53056 0.49383 0.0
C3253 C 0.71659 0.52166 0.5317 0.0
C3254 C 0.70796 0.49736 0.53819 0.0
C3255 C 0.68861 0.49059 0.55116 0.0
C3256 C 0.67771 0.50908 0.55753 0.0
C3257 C 0.68637 0.53423 0.5512 0.0
C3258 C 0.70618 0.54043 0.53817 0.0
H3259 H 0.22128 0.18253 0.51345 0.0
H3260 H 0.26871 0.16124 0.56191 0.0
H3261 H 0.23476 0.12753 0.57304 0.0
H3262 H 0.17111 0.17085 0.54914 0.0
H3263 H 0.14833 0.15885 0.52616 0.0
H3264 H 0.17614 0.18188 0.52167 0.0
H3265 H 0.18431 0.15124 0.48985 0.0
H3266 H 0.15518 0.13046 0.49387 0.0
H3267 H 0.18061 0.1187 0.49565 0.0
H3268 H 0.19612 0.09613 0.57933 0.0
H3269 H 0.15472 0.06753 0.5789 0.0
H3270 H 0.13181 0.10717 0.52569 0.0
C3271 C 0.22436 0.17069 0.52636 0.0
C3272 C 0.24769 0.1741 0.53652 0.0
C3273 C 0.25106 0.15858 0.55361 0.0
C3274 C 0.23187 0.13945 0.56014 0.0
C3275 C 0.20919 0.13612 0.54961 0.0
C3276 C 0.20521 0.15121 0.53306 0.0
C3277 C 0.17877 0.14354 0.52484 0.0
C3278 C 0.16795 0.16506 0.53081 0.0
C3279 C 0.17454 0.13556 0.49954 0.0
C3280 C 0.169 0.12108 0.53847 0.0
C3281 C 0.18677 0.11759 0.55307 0.0
C3282 C 0.18205 0.09855 0.56787 0.0
C3283 C 0.15856 0.08241 0.56754 0.0
C3284 C 0.14033 0.08498 0.55208 0.0
C3285 C 0.14562 0.10462 0.53744 0.0
H3286 H 0.26235 0.99462 0.84905 0.0
H3287 H 0.20052 0.98313 0.80099 0.0
H3288 H 0.21694 0.95698 0.77553 0.0
H3289 H 0.30462 1.00269 0.81027 0.0
H3290 H 0.32291 0.98632 0.82461 0.0
H3291 H 0.30513 1.00167 0.84031 0.0
H3292 H 0.28434 0.95968 0.85694 0.0
H3293 H 0.3022 0.944 0.84169 0.0
H3294 H 0.26999 0.93168 0.8384 0.0
H3295 H 0.24272 0.93668 0.75336 0.0
H3296 H 0.2729 0.91822 0.73869 0.0
H3297 H 0.31663 0.94204 0.80218 0.0
C3298 C 0.25188 0.98611 0.83346 0.0
C3299 C 0.23016 0.99103 0.82706 0.0
C3300 C 0.21717 0.97958 0.80637 0.0
C3301 C 0.22642 0.96485 0.79169 0.0
C3302 C 0.24854 0.96159 0.79804 0.0
C3303 C 0.26083 0.97146 0.81863 0.0
C3304 C 0.28458 0.96597 0.82122 0.0
C3305 C 0.30553 0.99063 0.82428 0.0
C3306 C 0.28532 0.94933 0.84071 0.0
C3307 C 0.28387 0.95168 0.79876 0.0
C3308 C 0.26307 0.9495 0.78552 0.0
C3309 C 0.25891 0.93786 0.76373 0.0
C3310 C 0.27617 0.92746 0.75555 0.0
C3311 C 0.2972 0.92854 0.76924 0.0
C3312 C 0.30107 0.94117 0.79102 0.0
H3313 H 0.37958 0.97045 0.03876 0.0
H3314 H 0.38235 0.91631 0.98443 0.0
H3315 H 0.4264 0.92713 0.99275 0.0
H3316 H 0.43529 0.02007 0.03929 0.0
H3317 H 0.43805 0.02167 0.06919 0.0
H3318 H 0.40882 1.01003 0.05432 0.0
H3319 H 0.40654 0.97091 0.0794 0.0
H3320 H 0.43786 0.98312 0.08905 0.0
H3321 H 0.42637 0.95201 0.07447 0.0
H3322 H 0.47011 0.9477 1.00427 0.0
H3323 H 0.51032 0.97514 0.01915 0.0
H3324 H 0.47838 1.01356 0.06765 0.0
C3325 C 0.38963 0.96104 0.02863 0.0
C3326 C 0.37813 0.94337 1.01042 0.0
C3327 C 0.39124 0.93037 0.99807 0.0
C3328 C 0.4161 0.93627 1.00279 0.0
C3329 C 0.42709 0.95421 0.02063 0.0
C3330 C 0.4142 0.96598 0.03371 0.0
C3331 C 0.4301 0.98329 0.05278 0.0
C3332 C 0.42779 1.01029 0.05387 0.0
C3333 C 0.42491 0.97163 0.07525 0.0
C3334 C 0.45433 0.98257 0.04616 0.0
C3335 C 0.45215 0.96476 0.02825 0.0
C3336 C 0.47205 0.96137 0.01852 0.0
C3337 C 0.49472 0.97702 0.02699 0.0
C3338 C 0.49709 0.99616 0.04447 0.0
C3339 C 0.47679 0.99879 0.05439 0.0
H3340 H 0.9503 0.62276 0.80478 0.0
H3341 H 0.94184 0.62163 0.87591 0.0
H3342 H 0.9214 0.65464 0.87376 0.0
H3343 H 0.95041 0.6929 0.79859 0.0
H3344 H 0.93265 0.68286 0.77209 0.0
H3345 H 0.95481 0.66765 0.78053 0.0
H3346 H 0.92215 0.62423 0.7748 0.0
H3347 H 0.89972 0.63906 0.76713 0.0
H3348 H 0.89593 0.61912 0.79013 0.0
H3349 H 0.89267 0.6769 0.86256 0.0
H3350 H 0.85977 0.68932 0.84355 0.0
H3351 H 0.88405 0.67363 0.7789 0.0
C3352 C 0.94562 0.63088 0.8201 0.0
C3353 C 0.94803 0.62033 0.84059 0.0
C3354 C 0.94053 0.63006 0.86021 0.0
C3355 C 0.9289 0.64877 0.85909 0.0
C3356 C 0.92484 0.6573 0.8382 0.0
C3357 C 0.93335 0.64901 0.81903 0.0
C3358 C 0.92225 0.65662 0.79806 0.0
C3359 C 0.94116 0.67618 0.78665 0.0
C3360 C 0.90924 0.63337 0.7816 0.0
C3361 C 0.90481 0.66854 0.80826 0.0
C3362 C 0.90712 0.66948 0.83145 0.0
C3363 C 0.89111 0.67691 0.84446 0.0
C3364 C 0.87225 0.6835 0.83351 0.0
C3365 C 0.86935 0.68225 0.80977 0.0
C3366 C 0.88612 0.67513 0.79708 0.0
H3367 H 0.87184 0.66931 0.01763 0.0
H3368 H 0.88049 0.71864 0.07873 0.0
H3369 H 0.91354 0.70274 0.09332 0.0
H3370 H 0.87806 0.6173 0.04309 0.0
H3371 H 0.89378 0.60663 0.02152 0.0
H3372 H 0.87378 0.62478 0.01455 0.0
H3373 H 0.90783 0.65789 0.99783 0.0
H3374 H 0.92795 0.63965 1.00446 0.0
H3375 H 0.93563 0.67259 0.01471 0.0
H3376 H 0.94251 0.67689 0.1029 0.0
H3377 H 0.96541 0.64588 0.10573 0.0
H3378 H 0.93642 0.61305 0.03848 0.0
C3379 C 0.88105 0.67739 0.03386 0.0
C3380 C 0.87355 0.69546 0.04694 0.0
C3381 C 0.88606 0.70516 0.06819 0.0
C3382 C 0.90478 0.69606 0.07667 0.0
C3383 C 0.91093 0.6774 0.06365 0.0
C3384 C 0.89957 0.66848 0.04253 0.0
C3385 C 0.90804 0.64715 0.03241 0.0
C3386 C 0.88718 0.62252 0.02762 0.0
C3387 C 0.92061 0.65479 1.01109 0.0
C3388 C 0.92563 0.64492 0.05128 0.0
C3389 C 0.92722 0.6626 0.06914 0.0
C3390 C 0.9415 0.6632 0.08888 0.0
C3391 C 0.95432 0.64533 0.0904 0.0
C3392 C 0.95284 0.62693 0.07233 0.0
C3393 C 0.93837 0.62706 0.05248 0.0
H3394 H 0.24643 0.10586 0.82849 0.0
H3395 H 0.20998 0.12739 0.88344 0.0
H3396 H 0.22805 0.17272 0.87748 0.0
H3397 H 0.30157 0.16103 0.83354 0.0
H3398 H 0.30086 0.16172 0.80355 0.0
H3399 H 0.28899 0.13207 0.81549 0.0
H3400 H 0.24901 0.12561 0.79131 0.0
H3401 H 0.26071 0.15584 0.78025 0.0
H3402 H 0.23348 0.14921 0.79411 0.0
H3403 H 0.2464 0.21472 0.86292 0.0
H3404 H 0.2645 0.25106 0.84155 0.0
H3405 H 0.28751 0.20174 0.7947 0.0
C3406 C 0.2431 0.12023 0.83983 0.0
C3407 C 0.22757 0.11349 0.85692 0.0
C3408 C 0.22235 0.13249 0.87066 0.0
C3409 C 0.2325 0.15814 0.86735 0.0
C3410 C 0.24729 0.16418 0.84992 0.0
C3411 C 0.25259 0.14577 0.83637 0.0
C3412 C 0.26614 0.15691 0.81691 0.0
C3413 C 0.29088 0.15265 0.81746 0.0
C3414 C 0.25145 0.14626 0.79432 0.0
C3415 C 0.26819 0.18456 0.82192 0.0
C3416 C 0.25707 0.18832 0.84094 0.0
C3417 C 0.2554 0.21204 0.84819 0.0
C3418 C 0.26559 0.2325 0.83582 0.0
C3419 C 0.27742 0.22913 0.81649 0.0
C3420 C 0.2788 0.20486 0.80954 0.0
H3421 H 0.44987 0.97627 0.32788 0.0
H3422 H 0.41007 0.01658 0.28904 0.0
H3423 H 0.37969 0.97613 0.27574 0.0
H3424 H 0.43678 0.92196 0.28531 0.0
H3425 H 0.43499 0.89891 0.3056 0.0
H3426 H 0.45427 0.93087 0.31205 0.0
H3427 H 0.43234 0.93661 0.34831 0.0
H3428 H 0.41626 0.90356 0.34194 0.0
H3429 H 0.40004 0.92615 0.34562 0.0
H3430 H 0.35352 0.9321 0.26705 0.0
H3431 H 0.33157 0.88637 0.26503 0.0
H3432 H 0.38714 0.87413 0.31038 0.0
C3433 C 0.43464 0.9764 0.31668 0.0
C3434 C 0.4317 0.99939 0.30998 0.0
C3435 C 0.41208 0.99908 0.29482 0.0
C3436 C 0.3949 0.97624 0.28705 0.0
C3437 C 0.39788 0.95388 0.29434 0.0
C3438 C 0.41721 0.95365 0.3088 0.0
C3439 C 0.41613 0.92675 0.31363 0.0
C3440 C 0.43677 0.91918 0.30354 0.0
C3441 C 0.41622 0.92315 0.33888 0.0
C3442 C 0.3923 0.91229 0.30103 0.0
C3443 C 0.38255 0.92825 0.28938 0.0
C3444 C 0.3609 0.91937 0.2761 0.0
C3445 C 0.34861 0.89347 0.27501 0.0
C3446 C 0.35773 0.87708 0.28765 0.0
C3447 C 0.37986 0.88651 0.3007 0.0
H3448 H 0.57085 0.3672 0.57876 0.0
H3449 H 0.62767 0.39918 0.63194 0.0
H3450 H 0.62624 0.44227 0.62434 0.0
H3451 H 0.59001 0.41646 0.54084 0.0
H3452 H 0.55986 0.41528 0.53136 0.0
H3453 H 0.56608 0.3873 0.5406 0.0
H3454 H 0.5345 0.38341 0.56947 0.0
H3455 H 0.52827 0.41144 0.56041 0.0
H3456 H 0.53694 0.40985 0.58959 0.0
H3457 H 0.61739 0.48241 0.61126 0.0
H3458 H 0.60276 0.51511 0.59395 0.0
H3459 H 0.55163 0.45659 0.54934 0.0
C3460 C 0.58318 0.38318 0.58882 0.0
C3461 C 0.59944 0.3795 0.60605 0.0
C3462 C 0.6151 0.40124 0.61865 0.0
C3463 C 0.61437 0.42587 0.61444 0.0
C3464 C 0.59791 0.42866 0.59752 0.0
C3465 C 0.58268 0.40782 0.58486 0.0
C3466 C 0.56639 0.41574 0.56784 0.0
C3467 C 0.57086 0.40825 0.54373 0.0
C3468 C 0.53996 0.40444 0.57209 0.0
C3469 C 0.5746 0.44434 0.57295 0.0
C3470 C 0.59285 0.45146 0.5901 0.0
C3471 C 0.60312 0.47691 0.59784 0.0
C3472 C 0.59459 0.49542 0.58789 0.0
C3473 C 0.57587 0.48863 0.57026 0.0
C3474 C 0.5659 0.4626 0.56275 0.0
H3475 H 0.43417 0.78706 0.42229 0.0
H3476 H 0.47351 0.75501 0.376 0.0
H3477 H 0.44237 0.75205 0.34541 0.0
H3478 H 0.37435 0.74457 0.39413 0.0
H3479 H 0.35878 0.76772 0.39925 0.0
H3480 H 0.38295 0.76645 0.41894 0.0
H3481 H 0.40717 0.81407 0.41485 0.0
H3482 H 0.38032 0.81415 0.3986 0.0
H3483 H 0.40837 0.82449 0.38685 0.0
H3484 H 0.41161 0.75925 0.31871 0.0
H3485 H 0.37864 0.76942 0.2978 0.0
H3486 H 0.35541 0.79367 0.36049 0.0
C3487 C 0.436 0.77928 0.40571 0.0
C3488 C 0.45687 0.77235 0.4012 0.0
C3489 C 0.45821 0.76135 0.37958 0.0
C3490 C 0.4405 0.75943 0.36212 0.0
C3491 C 0.42097 0.76787 0.36659 0.0
C3492 C 0.41806 0.77683 0.38795 0.0
C3493 C 0.39443 0.78336 0.3879 0.0
C3494 C 0.37659 0.76439 0.40082 0.0
C3495 C 0.39791 0.81064 0.39765 0.0
C3496 C 0.38633 0.77969 0.36281 0.0
C3497 C 0.40173 0.77011 0.35106 0.0
C3498 C 0.3991 0.76623 0.32773 0.0
C3499 C 0.38031 0.77228 0.31595 0.0
C3500 C 0.36417 0.78229 0.32732 0.0
C3501 C 0.36715 0.78573 0.35122 0.0
H3502 H 0.076 0.7251 0.13178 0.0
H3503 H 0.12624 0.76565 0.08729 0.0
H3504 H 0.12833 0.72485 0.0694 0.0
H3505 H 0.10363 0.67596 0.13965 0.0
H3506 H 0.07597 0.65106 0.14034 0.0
H3507 H 0.07776 0.68326 0.1494 0.0
H3508 H 0.04215 0.68242 0.11996 0.0
H3509 H 0.03985 0.64955 0.11341 0.0
H3510 H 0.04301 0.67049 0.09136 0.0
H3511 H 0.12607 0.67914 0.0574 0.0
H3512 H 0.11661 0.63244 0.04997 0.0
H3513 H 0.06634 0.62183 0.10093 0.0
C3514 C 0.08715 0.72526 0.11805 0.0
C3515 C 0.10044 0.74843 0.11041 0.0
C3516 C 0.1154 0.74805 0.09289 0.0
C3517 C 0.11682 0.72498 0.08277 0.0
C3518 C 0.10327 0.70239 0.09047 0.0
C3519 C 0.08848 0.70235 0.10756 0.0
C3520 C 0.07601 0.67547 0.11291 0.0
C3521 C 0.08382 0.6712 0.13701 0.0
C3522 C 0.04864 0.66918 0.10919 0.0
C3523 C 0.08556 0.66044 0.0958 0.0
C3524 C 0.10167 0.67627 0.08333 0.0
C3525 C 0.11335 0.6666 0.06697 0.0
C3526 C 0.10801 0.64011 0.06293 0.0
C3527 C 0.09076 0.62367 0.07484 0.0
C3528 C 0.07956 0.63404 0.09154 0.0
H3529 H 0.08674 0.33119 0.89724 0.0
H3530 H 0.08511 0.26809 0.93731 0.0
H3531 H 0.12338 0.26596 0.92321 0.0
H3532 H 0.10576 0.30701 0.84997 0.0
H3533 H 0.12436 0.33702 0.84252 0.0
H3534 H 0.09902 0.33588 0.85821 0.0
H3535 H 0.12643 0.36742 0.88955 0.0
H3536 H 0.15189 0.36895 0.87383 0.0
H3537 H 0.15222 0.36043 0.90238 0.0
H3538 H 0.15991 0.26815 0.901 0.0
H3539 H 0.19093 0.27489 0.87409 0.0
H3540 H 0.16772 0.33655 0.84895 0.0
C3541 C 0.09459 0.31721 0.90354 0.0
C3542 C 0.08284 0.29985 0.91852 0.0
C3543 C 0.09383 0.2818 0.92608 0.0
C3544 C 0.11553 0.2804 0.91806 0.0
C3545 C 0.12611 0.29729 0.90264 0.0
C3546 C 0.11604 0.31553 0.8957 0.0
C3547 C 0.12976 0.33039 0.87793 0.0
C3548 C 0.11377 0.32738 0.85586 0.0
C3549 C 0.14073 0.35846 0.88644 0.0
C3550 C 0.1489 0.31733 0.87544 0.0
C3551 C 0.14673 0.29844 0.88994 0.0
C3552 C 0.16191 0.28315 0.88984 0.0
C3553 C 0.17958 0.2872 0.87452 0.0
C3554 C 0.1819 0.30629 0.85931 0.0
C3555 C 0.16641 0.32165 0.86012 0.0
H3556 H 0.55777 0.68717 0.92123 0.0
H3557 H 0.57782 0.74558 0.97675 0.0
H3558 H 0.57922 0.71353 1.00281 0.0
H3559 H 0.5205 0.63655 0.95301 0.0
H3560 H 0.53002 0.61109 0.9404 0.0
H3561 H 0.53017 0.63817 0.92505 0.0
H3562 H 0.57481 0.64551 0.91954 0.0
H3563 H 0.57474 0.61845 0.93489 0.0
H3564 H 0.59587 0.64894 0.94372 0.0
H3565 H 0.57851 0.67489 0.02486 0.0
H3566 H 0.57655 0.63436 0.04013 0.0
H3567 H 0.55779 0.59629 0.97299 0.0
C3568 C 0.56244 0.69338 0.93886 0.0
C3569 C 0.56764 0.7202 0.94619 0.0
C3570 C 0.57369 0.72611 0.9698 0.0
C3571 C 0.57455 0.70764 0.98512 0.0
C3572 C 0.56946 0.68199 0.97754 0.0
C3573 C 0.56358 0.67464 0.95489 0.0
C3574 C 0.55924 0.64535 0.95179 0.0
C3575 C 0.53345 0.63199 0.94196 0.0
C3576 C 0.57723 0.63919 0.93656 0.0
C3577 C 0.56347 0.6376 0.97601 0.0
C3578 C 0.56931 0.65941 0.99042 0.0
C3579 C 0.57394 0.65789 0.01349 0.0
C3580 C 0.57271 0.63418 0.02219 0.0
C3581 C 0.56691 0.61078 1.00851 0.0
C3582 C 0.56226 0.61306 0.98462 0.0
H3583 H 0.12745 0.78261 0.73503 0.0
H3584 H 0.15241 0.83353 0.68387 0.0
H3585 H 0.19417 0.83755 0.69733 0.0
H3586 H 0.17886 0.81121 0.78039 0.0
H3587 H 0.17911 0.78057 0.78849 0.0
H3588 H 0.15172 0.78488 0.77637 0.0
H3589 H 0.14963 0.74761 0.74681 0.0
H3590 H 0.17797 0.74533 0.7586 0.0
H3591 H 0.17397 0.75027 0.72932 0.0
H3592 H 0.23585 0.83603 0.71638 0.0
H3593 H 0.27038 0.82831 0.73696 0.0
H3594 H 0.22243 0.77654 0.77652 0.0
C3595 C 0.14162 0.79515 0.72689 0.0
C3596 C 0.13531 0.80858 0.7083 0.0
C3597 C 0.15549 0.82347 0.69817 0.0
C3598 C 0.1798 0.82582 0.70583 0.0
C3599 C 0.18527 0.81261 0.72383 0.0
C3600 C 0.16664 0.79734 0.73423 0.0
C3601 C 0.17793 0.78386 0.75226 0.0
C3602 C 0.17145 0.79052 0.77577 0.0
C3603 C 0.16936 0.75505 0.74641 0.0
C3604 C 0.20555 0.79438 0.75084 0.0
C3605 C 0.20913 0.81096 0.73415 0.0
C3606 C 0.23275 0.82306 0.72942 0.0
C3607 C 0.25279 0.8185 0.74158 0.0
C3608 C 0.25067 0.80182 0.75915 0.0
C3609 C 0.22591 0.78955 0.76353 0.0
H3610 H 0.07048 0.35459 0.46228 0.0
H3611 H 0.0901 0.38701 0.39954 0.0
H3612 H 0.0905 0.42857 0.41603 0.0
H3613 H 0.03208 0.39431 0.47698 0.0
H3614 H 0.04139 0.39919 0.50662 0.0
H3615 H 0.04265 0.37097 0.49063 0.0
H3616 H 0.08746 0.3812 0.50374 0.0
H3617 H 0.0863 0.40941 0.51981 0.0
H3618 H 0.10768 0.4116 0.49919 0.0
H3619 H 0.08736 0.46835 0.43828 0.0
H3620 H 0.08339 0.50226 0.46462 0.0
H3621 H 0.06737 0.44932 0.51601 0.0
C3622 C 0.07518 0.3704 0.45199 0.0
C3623 C 0.08033 0.36615 0.42892 0.0
C3624 C 0.08602 0.38834 0.41685 0.0
C3625 C 0.08628 0.41263 0.42622 0.0
C3626 C 0.08098 0.41602 0.4484 0.0
C3627 C 0.07572 0.3956 0.46137 0.0
C3628 C 0.07087 0.40537 0.485 0.0
C3629 C 0.04522 0.39163 0.49012 0.0
C3630 C 0.08916 0.40166 0.50301 0.0
C3631 C 0.07412 0.43411 0.48312 0.0
C3632 C 0.07982 0.43948 0.46161 0.0
C3633 C 0.08313 0.46412 0.45515 0.0
C3634 C 0.08079 0.48365 0.47058 0.0
C3635 C 0.07528 0.47968 0.49314 0.0
C3636 C 0.07191 0.45395 0.49926 0.0
H3637 H 0.46341 0.27464 0.18496 0.0
H3638 H 0.51998 0.31426 0.23597 0.0
H3639 H 0.48938 0.31909 0.26112 0.0
H3640 H 0.42112 0.31054 0.19656 0.0
H3641 H 0.39468 0.28359 0.19234 0.0
H3642 H 0.42077 0.28343 0.17808 0.0
H3643 H 0.42126 0.24177 0.19481 0.0
H3644 H 0.39514 0.24179 0.20909 0.0
H3645 H 0.42187 0.24017 0.2248 0.0
H3646 H 0.45006 0.3217 0.28169 0.0
H3647 H 0.41032 0.3187 0.29479 0.0
H3648 H 0.37664 0.27437 0.23291 0.0
C3649 C 0.46963 0.28436 0.20145 0.0
C3650 C 0.49536 0.29412 0.2077 0.0
C3651 C 0.5013 0.30638 0.22991 0.0
C3652 C 0.48359 0.30932 0.24458 0.0
C3653 C 0.45881 0.29967 0.23785 0.0
C3654 C 0.45185 0.28703 0.21673 0.0
C3655 C 0.42392 0.2777 0.21387 0.0
C3656 C 0.41456 0.2895 0.19402 0.0
C3657 C 0.41501 0.24863 0.21042 0.0
C3658 C 0.4161 0.28717 0.23635 0.0
C3659 C 0.4367 0.30006 0.24985 0.0
C3660 C 0.4342 0.31131 0.27099 0.0
C3661 C 0.411 0.30948 0.27848 0.0
C3662 C 0.389 0.29605 0.26566 0.0
C3663 C 0.39227 0.28464 0.24395 0.0
H3664 H 0.68753 0.55684 0.43228 0.0
H3665 H 0.63632 0.51944 0.37584 0.0
H3666 H 0.60451 0.50811 0.40134 0.0
H3667 H 0.66116 0.51199 0.47355 0.0
H3668 H 0.66637 0.53639 0.49622 0.0
H3669 H 0.6864 0.54004 0.47427 0.0
H3670 H 0.67987 0.5827 0.46586 0.0
H3671 H 0.66012 0.58005 0.4879 0.0
H3672 H 0.64986 0.5844 0.45983 0.0
H3673 H 0.5776 0.50441 0.43149 0.0
H3674 H 0.55677 0.50926 0.46506 0.0
H3675 H 0.62502 0.54853 0.50238 0.0
C3676 C 0.66972 0.5459 0.42536 0.0
C3677 C 0.66444 0.53908 0.40207 0.0
C3678 C 0.64082 0.52504 0.39361 0.0
C3679 C 0.62262 0.5183 0.40796 0.0
C3680 C 0.62832 0.52559 0.43074 0.0
C3681 C 0.65125 0.53902 0.43948 0.0
C3682 C 0.65205 0.54607 0.46441 0.0
C3683 C 0.6674 0.53282 0.47792 0.0
C3684 C 0.661 0.57501 0.46981 0.0
C3685 C 0.62583 0.53541 0.468 0.0
C3686 C 0.61256 0.52333 0.44842 0.0
C3687 C 0.58777 0.51348 0.44706 0.0
C3688 C 0.57611 0.51644 0.46618 0.0
C3689 C 0.58929 0.52923 0.4863 0.0
C3690 C 0.6145 0.53837 0.4873 0.0
H3691 H 0.32876 0.92671 0.08213 0.0
H3692 H 0.25944 0.88097 0.05109 0.0
H3693 H 0.25525 0.85337 0.0824 0.0
H3694 H 0.34831 0.8771 0.09728 0.0
H3695 H 0.3644 0.89214 0.12359 0.0
H3696 H 0.36016 0.91115 0.1013 0.0
H3697 H 0.34016 0.93629 0.12757 0.0
H3698 H 0.3447 0.91762 0.15014 0.0
H3699 H 0.31512 0.91944 0.14206 0.0
H3700 H 0.26097 0.82767 0.11438 0.0
H3701 H 0.27545 0.8069 0.14536 0.0
H3702 H 0.34176 0.86858 0.15443 0.0
C3703 C 0.31229 0.91148 0.08235 0.0
C3704 C 0.29428 0.90615 0.06433 0.0
C3705 C 0.27334 0.88553 0.06486 0.0
C3706 C 0.27082 0.86974 0.08256 0.0
C3707 C 0.2894 0.87485 0.09958 0.0
C3708 C 0.30963 0.89539 0.09974 0.0
C3709 C 0.32803 0.89531 0.1187 0.0
C3710 C 0.3516 0.89383 0.10966 0.0
C3711 C 0.33224 0.91854 0.13562 0.0
C3712 C 0.3153 0.87111 0.12876 0.0
C3713 C 0.29294 0.85973 0.11769 0.0
C3714 C 0.27836 0.83655 0.12331 0.0
C3715 C 0.28685 0.82476 0.14076 0.0
C3716 C 0.30977 0.83606 0.15228 0.0
C3717 C 0.32404 0.85962 0.14618 0.0
H3718 H 0.9626 0.54456 0.91371 0.0
H3719 H 1.0234 0.56269 0.87338 0.0
H3720 H 0.05085 0.57095 0.90757 0.0
H3721 H 0.98942 0.59154 0.96004 0.0
H3722 H 0.97655 0.57118 0.98117 0.0
H3723 H 0.9612 0.56728 0.9535 0.0
H3724 H 0.96028 0.52005 0.94944 0.0
H3725 H 0.97527 0.52374 0.9772 0.0
H3726 H 0.98786 0.51206 0.95369 0.0
H3727 H 0.07188 0.57679 0.94563 0.0
H3728 H 0.08503 0.57588 0.98544 0.0
H3729 H 1.01079 0.55416 1.00103 0.0
C3730 C 0.98166 0.55022 0.91205 0.0
C3731 C 0.99076 0.55307 0.89084 0.0
C3732 C 1.01589 0.56042 0.88942 0.0
C3733 C 0.03171 0.56532 0.90875 0.0
C3734 C 1.02217 0.56279 0.92938 0.0
C3735 C 0.99778 0.55519 0.9312 0.0
C3736 C 0.99231 0.55293 0.95542 0.0
C3737 C 0.97909 0.57187 0.96297 0.0
C3738 C 0.9781 0.52557 0.95915 0.0
C3739 C 1.01745 0.56009 0.96677 0.0
C3740 C 0.0344 0.56601 0.95148 0.0
C3741 C 0.05882 0.57232 0.95786 0.0
C3742 C 0.06611 0.57183 0.9805 0.0
C3743 C 0.04895 0.56489 0.99632 0.0
C3744 C 1.02438 0.5596 0.98938 0.0
H3745 H 0.32238 0.22357 0.61992 0.0
H3746 H 0.3 0.28399 0.59152 0.0
H3747 H 0.29439 0.30012 0.62967 0.0
H3748 H 0.28395 0.21233 0.66467 0.0
H3749 H 0.30601 0.20792 0.68516 0.0
H3750 H 0.30788 0.20073 0.65571 0.0
H3751 H 0.35097 0.23122 0.65852 0.0
H3752 H 0.34933 0.2383 0.68804 0.0
H3753 H 0.35665 0.26361 0.66975 0.0
H3754 H 0.28778 0.3076 0.67168 0.0
H3755 H 0.28772 0.31025 0.71316 0.0
H3756 H 0.31933 0.2487 0.7155 0.0
C3757 C 0.31651 0.24035 0.62174 0.0
C3758 C 0.31159 0.25242 0.60239 0.0
C3759 C 0.30407 0.27441 0.60581 0.0
C3760 C 0.30065 0.28363 0.62754 0.0
C3761 C 0.30537 0.27117 0.64617 0.0
C3762 C 0.31379 0.25038 0.64352 0.0
C3763 C 0.3188 0.24132 0.66646 0.0
C3764 C 0.30323 0.21395 0.66809 0.0
C3765 C 0.34553 0.24376 0.67096 0.0
C3766 C 0.31148 0.25989 0.6824 0.0
C3767 C 0.30334 0.27666 0.67029 0.0
C3768 C 0.29445 0.2947 0.6812 0.0
C3769 C 0.29429 0.29597 0.70489 0.0
C3770 C 0.30346 0.27976 0.71789 0.0
C3771 C 0.31221 0.26148 0.70624 0.0
H3772 H 0.63756 0.51813 0.28089 0.0
H3773 H 0.71166 0.53914 0.26545 0.0
H3774 H 0.699 0.5434 0.22618 0.0
H3775 H 0.61023 0.48519 0.22333 0.0
H3776 H 0.5852 0.4977 0.22506 0.0
H3777 H 0.59941 0.49013 0.2502 0.0
H3778 H 0.60598 0.53588 0.26771 0.0
H3779 H 0.59234 0.5438 0.24258 0.0
H3780 H 0.62221 0.56229 0.25322 0.0
H3781 H 0.67959 0.55383 0.19147 0.0
H3782 H 0.65423 0.56648 0.16263 0.0
H3783 H 0.59281 0.53945 0.20078 0.0
C3784 C 0.65102 0.52248 0.26901 0.0
C3785 C 0.67556 0.52816 0.27613 0.0
C3786 C 0.69273 0.53454 0.26027 0.0
C3787 C 0.6857 0.53699 0.23792 0.0
C3788 C 0.66145 0.53275 0.23173 0.0
C3789 C 0.64429 0.52518 0.2467 0.0
C3790 C 0.61984 0.525 0.23668 0.0
C3791 C 0.60266 0.49789 0.23363 0.0
C3792 C 0.60952 0.54281 0.25089 0.0
C3793 C 0.62618 0.53502 0.21428 0.0
C3794 C 0.65018 0.53897 0.21158 0.0
C3795 C 0.66066 0.55029 0.19315 0.0
C3796 C 0.64621 0.5577 0.17702 0.0
C3797 C 0.62161 0.55391 0.17954 0.0
C3798 C 0.61148 0.54215 0.19828 0.0
H3799 H 0.30291 0.88061 0.9494 0.0
H3800 H 0.29335 0.94679 0.9196 0.0
H3801 H 0.2854 0.92323 0.88215 0.0
H3802 H 0.33644 0.8661 0.90962 0.0
H3803 H 0.32503 0.83207 0.90907 0.0
H3804 H 0.3242 0.85148 0.93401 0.0
H3805 H 0.27843 0.83079 0.93339 0.0
H3806 H 0.27911 0.811 0.90852 0.0
H3807 H 0.25941 0.83065 0.90844 0.0
H3808 H 0.28529 0.89583 0.84804 0.0
H3809 H 0.29304 0.86643 0.81914 0.0
H3810 H 0.3039 0.81778 0.87044 0.0
C3811 C 0.29806 0.88968 0.93507 0.0
C3812 C 0.29819 0.91528 0.93731 0.0
C3813 C 0.29296 0.92706 0.91815 0.0
C3814 C 0.28839 0.91382 0.89687 0.0
C3815 C 0.2893 0.8889 0.89504 0.0
C3816 C 0.2939 0.87685 0.91361 0.0
C3817 C 0.29724 0.85134 0.90672 0.0
C3818 C 0.32221 0.8502 0.91536 0.0
C3819 C 0.27736 0.82966 0.91474 0.0
C3820 C 0.29479 0.85142 0.88139 0.0
C3821 C 0.28977 0.87307 0.87506 0.0
C3822 C 0.28877 0.87861 0.85274 0.0
C3823 C 0.29336 0.86183 0.83646 0.0
C3824 C 0.299 0.83977 0.84255 0.0
C3825 C 0.29921 0.83426 0.86527 0.0
H3826 H 0.97719 0.56002 0.74547 0.0
H3827 H 0.0392 0.60159 0.79035 0.0
H3828 H 0.06427 0.60678 0.75854 0.0
H3829 H 1.00419 0.52419 0.71715 0.0
H3830 H 0.98931 0.52357 0.68971 0.0
H3831 H 0.97491 0.52867 0.71433 0.0
H3832 H 0.97045 0.57077 0.70072 0.0
H3833 H 0.98453 0.56559 0.67574 0.0
H3834 H 0.99646 0.59469 0.69349 0.0
H3835 H 0.08382 0.6 0.72415 0.0
H3836 H 0.09587 0.58369 0.68882 0.0
H3837 H 1.02127 0.54577 0.6669 0.0
C3838 C 0.99582 0.57114 0.74839 0.0
C3839 C 1.00629 0.58046 0.77024 0.0
C3840 C 0.03086 0.59433 0.77364 0.0
C3841 C 0.04522 0.59748 0.75568 0.0
C3842 C 0.03466 0.58684 0.73447 0.0
C3843 C 1.01042 0.57428 0.73066 0.0
C3844 C 1.00408 0.56165 0.70706 0.0
C3845 C 0.99246 0.53283 0.70709 0.0
C3846 C 0.98793 0.57392 0.69345 0.0
C3847 C 0.02869 0.56774 0.69871 0.0
C3848 C 0.04605 0.58273 0.71454 0.0
C3849 C 0.07035 0.58875 0.71138 0.0
C3850 C 0.07705 0.57918 0.69145 0.0
C3851 C 0.05947 0.56364 0.67517 0.0
C3852 C 0.03504 0.55813 0.67883 0.0
H3853 H 0.29841 0.25821 0.46413 0.0
H3854 H 0.34358 0.20859 0.46145 0.0
H3855 H 0.35139 0.2185 0.4228 0.0
H3856 H 0.27244 0.24343 0.40723 0.0
H3857 H 0.27263 0.27515 0.40176 0.0
H3858 H 0.27113 0.26571 0.43002 0.0
H3859 H 0.30873 0.30305 0.4433 0.0
H3860 H 0.31019 0.31275 0.41511 0.0
H3861 H 0.33572 0.30663 0.4294 0.0
H3862 H 0.35136 0.22966 0.38255 0.0
H3863 H 0.34766 0.24606 0.34545 0.0
H3864 H 0.30546 0.29174 0.3725 0.0
C3865 C 0.31052 0.25006 0.45567 0.0
C3866 C 0.32049 0.23258 0.46644 0.0
C3867 C 0.33569 0.22201 0.45406 0.0
C3868 C 0.34022 0.22746 0.43185 0.0
C3869 C 0.32971 0.24393 0.42153 0.0
C3870 C 0.31554 0.25557 0.43308 0.0
C3871 C 0.30652 0.2725 0.41747 0.0
C3872 C 0.27904 0.26367 0.41392 0.0
C3873 C 0.31584 0.30039 0.42688 0.0
C3874 C 0.3176 0.26824 0.39555 0.0
C3875 C 0.33068 0.25139 0.39833 0.0
C3876 C 0.3415 0.24323 0.38036 0.0
C3877 C 0.33924 0.25263 0.35917 0.0
C3878 C 0.32662 0.27058 0.35573 0.0
C3879 C 0.31566 0.27842 0.37443 0.0
H3880 H 0.33323 0.59555 0.5436 0.0
H3881 H 0.38657 0.66532 0.57057 0.0
H3882 H 0.41757 0.64297 0.57086 0.0
H3883 H 0.35875 0.55225 0.57507 0.0
H3884 H 0.35065 0.52828 0.55178 0.0
H3885 H 0.33256 0.54918 0.55627 0.0
H3886 H 0.33752 0.5624 0.51569 0.0
H3887 H 0.35573 0.54176 0.5111 0.0
H3888 H 0.36718 0.57494 0.50686 0.0
H3889 H 0.44317 0.61463 0.56267 0.0
H3890 H 0.46111 0.58175 0.54911 0.0
H3891 H 0.39046 0.53001 0.52989 0.0
C3892 C 0.35134 0.60609 0.54997 0.0
C3893 C 0.35759 0.63218 0.55698 0.0
C3894 C 0.38145 0.64528 0.56521 0.0
C3895 C 0.39912 0.63274 0.56544 0.0
C3896 C 0.39238 0.60708 0.55789 0.0
C3897 C 0.36896 0.59383 0.55067 0.0
C3898 C 0.36643 0.56677 0.54225 0.0
C3899 C 0.35119 0.54801 0.55724 0.0
C3900 C 0.35612 0.56116 0.51751 0.0
C3901 C 0.39229 0.56709 0.54487 0.0
C3902 C 0.40699 0.59047 0.55406 0.0
C3903 C 0.43181 0.59609 0.55604 0.0
C3904 C 0.44182 0.5774 0.54828 0.0
C3905 C 0.42699 0.55344 0.53893 0.0
C3906 C 0.40199 0.54807 0.5375 0.0
H3907 H 0.90744 0.89597 0.53869 0.0
H3908 H 0.87334 0.94279 0.57662 0.0
H3909 H 0.91034 0.97868 0.57905 0.0
H3910 H 0.96629 0.92491 0.57347 0.0
H3911 H 0.98379 0.92177 0.55047 0.0
H3912 H 0.9549 0.89909 0.55197 0.0
H3913 H 0.9396 0.90885 0.51192 0.0
H3914 H 0.96991 0.92855 0.51109 0.0
H3915 H 0.94571 0.9417 0.50631 0.0
H3916 H 0.94839 1.01116 0.57235 0.0
H3917 H 0.98897 0.03609 0.56467 0.0
H3918 H 1.00065 0.9679 0.53415 0.0
C3919 C 0.90793 0.91381 0.54751 0.0
C3920 C 0.8872 0.91718 0.55644 0.0
C3921 C 0.88872 0.94029 0.5688 0.0
C3922 C 0.90969 0.96073 0.57036 0.0
C3923 C 0.9293 0.95752 0.56005 0.0
C3924 C 0.92902 0.93444 0.54955 0.0
C3925 C 0.95343 0.93587 0.54152 0.0
C3926 C 0.96531 0.91944 0.55517 0.0
C3927 C 0.95198 0.92825 0.51623 0.0
C3928 C 0.96645 0.96391 0.5471 0.0
C3929 C 0.95225 0.97592 0.55801 0.0
C3930 C 0.95991 1.00191 0.5642 0.0
C3931 C 0.98294 0.01597 0.55957 0.0
C3932 C 0.99811 1.00407 0.54879 0.0
C3933 C 0.98957 0.97765 0.54241 0.0
H3934 H 0.92981 0.11037 0.23977 0.0
H3935 H 0.97908 0.14323 0.298 0.0
H3936 H 0.95982 0.17703 0.30333 0.0
H3937 H 0.91539 0.17243 0.22309 0.0
H3938 H 0.88448 0.15426 0.21649 0.0
H3939 H 0.90789 0.14009 0.21116 0.0
H3940 H 0.88807 0.10336 0.23505 0.0
H3941 H 0.86506 0.11759 0.24072 0.0
H3942 H 0.88296 0.11075 0.26371 0.0
H3943 H 0.92894 0.19792 0.3094 0.0
H3944 H 0.89032 0.20578 0.31463 0.0
H3945 H 0.85857 0.15692 0.25429 0.0
C3946 C 0.93756 0.1259 0.25252 0.0
C3947 C 0.95632 0.12498 0.26801 0.0
C3948 C 0.96525 0.14436 0.28554 0.0
C3949 C 0.95428 0.16351 0.28872 0.0
C3950 C 0.93429 0.16268 0.27434 0.0
C3951 C 0.9262 0.14457 0.25627 0.0
C3952 C 0.90146 0.14393 0.24658 0.0
C3953 C 0.90237 0.15324 0.22293 0.0
C3954 C 0.88336 0.11734 0.24654 0.0
C3955 C 0.89605 0.16275 0.2632 0.0
C3956 C 0.9155 0.17403 0.27857 0.0
C3957 C 0.91381 0.18969 0.29713 0.0
C3958 C 0.89169 0.19368 0.30018 0.0
C3959 C 0.87142 0.18174 0.28495 0.0
C3960 C 0.87386 0.1666 0.26598 0.0
H3961 H 0.74574 0.13199 0.08408 0.0
H3962 H 0.75032 0.18339 0.03183 0.0
H3963 H 0.70634 0.16685 0.02267 0.0
H3964 H 0.70061 0.07911 0.06487 0.0
H3965 H 0.68592 0.07555 0.09023 0.0
H3966 H 0.71736 0.0921 0.09135 0.0
H3967 H 0.70754 0.13021 0.11262 0.0
H3968 H 0.67604 0.11322 0.10946 0.0
H3969 H 0.68654 0.14411 0.09921 0.0
H3970 H 0.66435 0.13658 0.01359 0.0
H3971 H 0.62427 0.10523 0.01297 0.0
H3972 H 0.64609 0.07994 0.07585 0.0
C3973 C 0.73729 0.13971 0.0708 0.0
C3974 C 0.75108 0.15762 0.05757 0.0
C3975 C 0.73977 0.16886 0.04142 0.0
C3976 C 0.71493 0.15969 0.03622 0.0
C3977 C 0.70184 0.14064 0.0485 0.0
C3978 C 0.71242 0.132 0.06642 0.0
C3979 C 0.69391 0.11357 0.07846 0.0
C3980 C 0.69988 0.08864 0.0814 0.0
C3981 C 0.69083 0.12602 0.10128 0.0
C3982 C 0.67208 0.10995 0.06222 0.0
C3983 C 0.67686 0.12607 0.04526 0.0
C3984 C 0.66006 0.12451 0.0272 0.0
C3985 C 0.63753 0.10644 0.02681 0.0
C3986 C 0.63213 0.09038 0.04444 0.0
C3987 C 0.64965 0.09226 0.06231 0.0
H3988 H 0.24301 0.521 0.32632 0.0
H3989 H 0.18419 0.4666 0.28563 0.0
H3990 H 0.20165 0.43225 0.29491 0.0
H3991 H 0.28806 0.49473 0.3093 0.0
H3992 H 0.30499 0.50195 0.33637 0.0
H3993 H 0.28677 0.52135 0.32756 0.0
H3994 H 0.26463 0.51326 0.3637 0.0
H3995 H 0.28254 0.49345 0.37244 0.0
H3996 H 0.25036 0.48115 0.36987 0.0
H3997 H 0.22597 0.40426 0.30864 0.0
H3998 H 0.2578 0.38576 0.32072 0.0
H3999 H 0.30108 0.45929 0.35132 0.0
C4000 C 0.23367 0.50186 0.31939 0.0
C4001 C 0.21215 0.49637 0.30537 0.0
C4002 C 0.20073 0.47116 0.29637 0.0
C4003 C 0.21039 0.45157 0.30172 0.0
C4004 C 0.2315 0.45767 0.3159 0.0
C4005 C 0.24317 0.4823 0.32428 0.0
C4006 C 0.26648 0.48436 0.33775 0.0
C4007 C 0.28783 0.5016 0.3271 0.0
C4008 C 0.26596 0.4936 0.3624 0.0
C4009 C 0.26634 0.457 0.33551 0.0
C4010 C 0.2458 0.4418 0.32323 0.0
C4011 C 0.24203 0.41595 0.31838 0.0
C4012 C 0.26011 0.40556 0.32553 0.0
C4013 C 0.28178 0.42109 0.33716 0.0
C4014 C 0.28461 0.44699 0.34264 0.0
H4015 H 0.25892 0.40968 1.00642 0.0
H4016 H 0.25573 0.37819 0.07103 0.0
H4017 H 0.22139 0.39425 0.07847 0.0
H4018 H 0.2516 0.46567 0.0246 0.0
H4019 H 0.23392 0.46946 1.00002 0.0
H4020 H 0.2543 0.45088 0.99763 0.0
H4021 H 0.21987 0.41214 0.97996 0.0
H4022 H 0.19933 0.43075 0.98182 0.0
H4023 H 0.19322 0.401 0.99436 0.0
H4024 H 0.19176 0.42021 0.0811 0.0
H4025 H 0.16915 0.45147 0.07813 0.0
H4026 H 0.19278 0.46607 1.01185 0.0
C4027 C 0.25047 0.40532 0.02182 0.0
C4028 C 0.25991 0.39249 0.03808 0.0
C4029 C 0.24855 0.38754 0.05815 0.0
C4030 C 0.22913 0.39678 0.06256 0.0
C4031 C 0.22117 0.41063 0.04661 0.0
C4032 C 0.23132 0.41447 0.02646 0.0
C4033 C 0.22149 0.43208 0.01303 0.0
C4034 C 0.24152 0.45592 1.00858 0.0
C4035 C 0.20765 0.41816 0.99099 0.0
C4036 C 0.20483 0.43844 0.02906 0.0
C4037 C 0.20455 0.42566 0.04822 0.0
C4038 C 0.19154 0.42989 0.06597 0.0
C4039 C 0.1787 0.44768 0.06411 0.0
C4040 C 0.17912 0.46128 0.04474 0.0
C4041 C 0.19214 0.45616 0.02694 0.0
H4042 H 0.90368 0.98836 0.25266 0.0
H4043 H 0.96854 0.98907 0.29212 0.0
H4044 H 0.94778 0.9476 0.30535 0.0
H4045 H 0.85564 0.95095 0.28579 0.0
H4046 H 0.83978 0.93504 0.26001 0.0
H4047 H 0.85981 0.96671 0.26015 0.0
H4048 H 0.87846 0.9449 0.22782 0.0
H4049 H 0.86004 0.91369 0.23263 0.0
H4050 H 0.89214 0.92086 0.23513 0.0
H4051 H 0.91993 0.90907 0.31667 0.0
H4052 H 0.88891 0.86929 0.31985 0.0
H4053 H 0.84268 0.88867 0.26855 0.0
C4054 C 0.91315 0.97986 0.26449 0.0
C4055 C 0.93719 0.99226 0.27259 0.0
C4056 C 0.94984 0.98007 0.28658 0.0
C4057 C 0.93821 0.95664 0.29413 0.0
C4058 C 0.91431 0.94517 0.28652 0.0
C4059 C 0.90205 0.95579 0.2714 0.0
C4060 C 0.87773 0.93723 0.26324 0.0
C4061 C 0.85709 0.94826 0.26754 0.0
C4062 C 0.87706 0.92866 0.23822 0.0
C4063 C 0.87753 0.91565 0.27779 0.0
C4064 C 0.89892 0.92085 0.29097 0.0
C4065 C 0.9032 0.90453 0.30625 0.0
C4066 C 0.88529 0.88197 0.30795 0.0
C4067 C 0.86327 0.8757 0.29437 0.0
C4068 C 0.85928 0.89291 0.27915 0.0
H4069 H 0.7351 0.09976 0.75147 0.0
H4070 H 0.67524 0.10191 0.78944 0.0
H4071 H 0.69153 0.14852 0.79604 0.0
H4072 H 0.78467 0.15383 0.77872 0.0
H4073 H 0.79329 0.16069 0.7513 0.0
H4074 H 0.77707 0.12872 0.75617 0.0
H4075 H 0.74909 0.13624 0.7209 0.0
H4076 H 0.76462 0.16972 0.72268 0.0
H4077 H 0.73293 0.15904 0.7254 0.0
H4078 H 0.71678 0.19316 0.80286 0.0
H4079 H 0.74628 0.23535 0.80446 0.0
H4080 H 0.78773 0.20582 0.75829 0.0
C4081 C 0.72573 0.11021 0.76135 0.0
C4082 C 0.70459 0.09752 0.77089 0.0
C4083 C 0.69179 0.11153 0.78256 0.0
C4084 C 0.70086 0.13789 0.78633 0.0
C4085 C 0.72212 0.14992 0.77735 0.0
C4086 C 0.73408 0.13675 0.76453 0.0
C4087 C 0.75521 0.15489 0.755 0.0
C4088 C 0.77887 0.14901 0.76063 0.0
C4089 C 0.75015 0.15498 0.72948 0.0
C4090 C 0.75506 0.17974 0.76705 0.0
C4091 C 0.73546 0.17644 0.7794 0.0
C4092 C 0.73196 0.19617 0.79291 0.0
C4093 C 0.74891 0.22002 0.79381 0.0
C4094 C 0.76929 0.22388 0.78148 0.0
C4095 C 0.77233 0.20344 0.76788 0.0
loop_
_geom_bond_atom_site_label_1
_geom_bond_atom_site_label_2
_geom_bond_distance
_geom_bond_site_symmetry_2
_ccdc_geom_bond_type
Mn0 O5 2.095 . S
Mn0 O15 2.162 . S
Mn0 O16 2.297 . S
Mn0 O24 2.385 1_455 S
Mn0 O25 2.209 . S
Mn0 O26 2.094 . S
Mn1 O6 2.121 . S
Mn1 N8 2.257 . S
Mn1 N17 2.282 . S
Mn1 O25 2.215 . S
Mn1 O27 2.117 . S
C2 O24 1.237 . S
C2 O25 1.266 1_655 S
C3 O15 1.281 . S
C3 O16 1.236 . S
C4 O26 1.240 . S
C4 O27 1.264 . S
O5 Mn0 2.095 . S
O5 C14 1.250 . S
O6 Mn1 2.121 . S
O6 C14 1.258 . S
C7 N8 1.326 . S
C7 C11 1.460 . S
C7 H13 0.929 . S
N8 Mn1 2.257 . S
N8 C7 1.326 . S
N8 C12 1.362 . S
C9 C10 1.257 1_655 S
C9 C12 1.431 1_655 S
C9 C29 1.450 . S
C10 C9 1.257 1_455 S
C10 C11 1.477 . S
C10 H30 0.931 . S
C11 C7 1.460 . S
C11 C10 1.477 . S
C11 H31 0.930 . S
C12 N8 1.362 . S
C12 C9 1.431 1_455 S
C12 C22 1.476 1_455 S
H13 C7 0.929 . S
C14 O5 1.250 . S
C14 O6 1.258 . S
O15 Mn0 2.162 . S
O15 C3 1.281 . S
O16 Mn0 2.297 . S
O16 C3 1.236 . S
N17 Mn1 2.282 . S
N17 C18 1.328 1_455 S
N17 C22 1.318 1_455 S
C18 N17 1.328 1_655 S
C18 C19 1.457 . S
C18 H23 0.929 1_655 S
C19 C18 1.457 . S
C19 C20 1.291 . S
C19 H32 0.931 . S
C20 C19 1.291 . S
C20 C21 1.373 . S
C20 H33 0.929 . S
C21 C20 1.373 . S
C21 C22 1.396 . S
C21 C28 1.403 . S
C22 C12 1.476 1_655 S
C22 N17 1.318 1_655 S
C22 C21 1.396 . S
H23 C18 0.929 1_455 S
O24 Mn0 2.385 1_655 S
O24 C2 1.237 . S
O25 Mn0 2.209 . S
O25 Mn1 2.215 . S
O25 C2 1.266 1_455 S
O26 Mn0 2.094 . S
O26 C4 1.240 . S
O27 Mn1 2.117 . S
O27 C4 1.264 . S
C28 C21 1.403 . S
C28 C29 1.399 . S
C28 H34 0.929 . S
C29 C9 1.450 . S
C29 C28 1.399 . S
C29 H35 0.930 . S
H30 C10 0.931 . S
H31 C11 0.930 . S
H32 C19 0.931 . S
H33 C20 0.929 . S
H34 C28 0.929 . S
H35 C29 0.930 . S
Mn36 O41 2.095 . S
Mn36 O51 2.162 . S
Mn36 O52 2.297 . S
Mn36 O60 2.385 . S
Mn36 O61 2.209 . S
Mn36 O62 2.094 . S
Mn37 O42 2.121 . S
Mn37 N44 2.257 . S
Mn37 N53 2.282 . S
Mn37 O61 2.215 . S
Mn37 O63 2.117 . S
C38 O60 1.234 . S
C38 O61 1.283 . S
C39 O51 1.281 . S
C39 O52 1.236 . S
C40 O62 1.240 . S
C40 O63 1.264 . S
O41 Mn36 2.095 . S
O41 C50 1.250 . S
O42 Mn37 2.121 . S
O42 C50 1.258 . S
C43 N44 1.326 . S
C43 C47 1.460 . S
C43 H49 0.929 . S
N44 Mn37 2.257 . S
N44 C43 1.326 . S
N44 C48 1.362 . S
C45 C46 1.258 . S
C45 C48 1.431 . S
C45 C65 1.449 . S
C46 C45 1.258 . S
C46 C47 1.477 . S
C46 H66 0.931 . S
C47 C43 1.460 . S
C47 C46 1.477 . S
C47 H67 0.930 . S
C48 N44 1.362 . S
C48 C45 1.431 . S
C48 C58 1.476 . S
H49 C43 0.929 . S
C50 O41 1.250 . S
C50 O42 1.258 . S
O51 Mn36 2.162 . S
O51 C39 1.281 . S
O52 Mn36 2.297 . S
O52 C39 1.236 . S
N53 Mn37 2.282 . S
N53 C54 1.328 . S
N53 C58 1.318 . S
C54 N53 1.328 . S
C54 C55 1.457 . S
C54 H59 0.929 . S
C55 C54 1.457 . S
C55 C56 1.291 . S
C55 H68 0.931 . S
C56 C55 1.291 . S
C56 C57 1.373 . S
C56 H69 0.929 . S
C57 C56 1.373 . S
C57 C58 1.396 . S
C57 C64 1.403 . S
C58 C48 1.476 . S
C58 N53 1.318 . S
C58 C57 1.396 . S
H59 C54 0.929 . S
O60 Mn36 2.385 . S
O60 C38 1.234 . S
O61 Mn36 2.209 . S
O61 Mn37 2.215 . S
O61 C38 1.283 . S
O62 Mn36 2.094 . S
O62 C40 1.240 . S
O63 Mn37 2.117 . S
O63 C40 1.264 . S
C64 C57 1.403 . S
C64 C65 1.399 . S
C64 H70 0.929 . S
C65 C45 1.449 . S
C65 C64 1.399 . S
C65 H71 0.930 . S
H66 C46 0.931 . S
H67 C47 0.930 . S
H68 C55 0.931 . S
H69 C56 0.929 . S
H70 C64 0.929 . S
H71 C65 0.930 . S
Mn72 O77 2.095 . S
Mn72 O87 2.162 . S
Mn72 O88 2.297 . S
Mn72 O96 2.385 . S
Mn72 O97 2.209 . S
Mn72 O98 2.094 . S
Mn73 O78 2.121 . S
Mn73 N80 2.257 . S
Mn73 N89 2.282 . S
Mn73 O97 2.215 . S
Mn73 O99 2.117 . S
C74 O96 1.234 . S
C74 O97 1.283 . S
C75 O87 1.281 . S
C75 O88 1.236 . S
C76 O98 1.240 . S
C76 O99 1.264 . S
O77 Mn72 2.095 . S
O77 C86 1.250 . S
O78 Mn73 2.121 . S
O78 C86 1.258 . S
C79 N80 1.326 . S
C79 C83 1.460 . S
C79 H85 0.929 . S
N80 Mn73 2.257 . S
N80 C79 1.326 . S
N80 C84 1.362 . S
C81 C82 1.258 . S
C81 C84 1.431 . S
C81 C101 1.449 . S
C82 C81 1.258 . S
C82 C83 1.477 . S
C82 H102 0.931 . S
C83 C79 1.460 . S
C83 C82 1.477 . S
C83 H103 0.930 . S
C84 N80 1.362 . S
C84 C81 1.431 . S
C84 C94 1.476 . S
H85 C79 0.929 . S
C86 O77 1.250 . S
C86 O78 1.258 . S
O87 Mn72 2.162 . S
O87 C75 1.281 . S
O88 Mn72 2.297 . S
O88 C75 1.236 . S
N89 Mn73 2.282 . S
N89 C90 1.328 . S
N89 C94 1.318 . S
C90 N89 1.328 . S
C90 C91 1.457 . S
C90 H95 0.929 . S
C91 C90 1.457 . S
C91 C92 1.291 . S
C91 H104 0.931 . S
C92 C91 1.291 . S
C92 C93 1.373 . S
C92 H105 0.929 . S
C93 C92 1.373 . S
C93 C94 1.396 . S
C93 C100 1.403 . S
C94 C84 1.476 . S
C94 N89 1.318 . S
C94 C93 1.396 . S
H95 C90 0.929 . S
O96 Mn72 2.385 . S
O96 C74 1.234 . S
O97 Mn72 2.209 . S
O97 Mn73 2.215 . S
O97 C74 1.283 . S
O98 Mn72 2.094 . S
O98 C76 1.240 . S
O99 Mn73 2.117 . S
O99 C76 1.264 . S
C100 C93 1.403 . S
C100 C101 1.399 . S
C100 H106 0.929 . S
C101 C81 1.449 . S
C101 C100 1.399 . S
C101 H107 0.930 . S
H102 C82 0.931 . S
H103 C83 0.930 . S
H104 C91 0.931 . S
H105 C92 0.929 . S
H106 C100 0.929 . S
H107 C101 0.930 . S
Mn108 O113 2.095 . S
Mn108 O123 2.162 . S
Mn108 O124 2.297 . S
Mn108 O132 2.385 . S
Mn108 O133 2.209 . S
Mn108 O134 2.094 . S
Mn109 O114 2.121 . S
Mn109 N116 2.257 . S
Mn109 N125 2.282 . S
Mn109 O133 2.215 . S
Mn109 O135 2.117 . S
C110 O132 1.234 . S
C110 O133 1.283 . S
C111 O123 1.281 . S
C111 O124 1.236 . S
C112 O134 1.240 . S
C112 O135 1.264 . S
O113 Mn108 2.095 . S
O113 C122 1.250 . S
O114 Mn109 2.121 . S
O114 C122 1.258 . S
C115 N116 1.326 . S
C115 C119 1.460 . S
C115 H121 0.929 . S
N116 Mn109 2.257 . S
N116 C115 1.326 . S
N116 C120 1.362 . S
C117 C118 1.258 . S
C117 C120 1.431 . S
C117 C137 1.449 . S
C118 C117 1.258 . S
C118 C119 1.477 . S
C118 H138 0.931 . S
C119 C115 1.460 . S
C119 C118 1.477 . S
C119 H139 0.930 . S
C120 N116 1.362 . S
C120 C117 1.431 . S
C120 C130 1.476 . S
H121 C115 0.929 . S
C122 O113 1.250 . S
C122 O114 1.258 . S
O123 Mn108 2.162 . S
O123 C111 1.281 . S
O124 Mn108 2.297 . S
O124 C111 1.236 . S
N125 Mn109 2.282 . S
N125 C126 1.328 . S
N125 C130 1.318 . S
C126 N125 1.328 . S
C126 C127 1.457 . S
C126 H131 0.929 . S
C127 C126 1.457 . S
C127 C128 1.291 . S
C127 H140 0.931 . S
C128 C127 1.291 . S
C128 C129 1.373 . S
C128 H141 0.929 . S
C129 C128 1.373 . S
C129 C130 1.396 . S
C129 C136 1.403 . S
C130 C120 1.476 . S
C130 N125 1.318 . S
C130 C129 1.396 . S
H131 C126 0.929 . S
O132 Mn108 2.385 . S
O132 C110 1.234 . S
O133 Mn108 2.209 . S
O133 Mn109 2.215 . S
O133 C110 1.283 . S
O134 Mn108 2.094 . S
O134 C112 1.240 . S
O135 Mn109 2.117 . S
O135 C112 1.264 . S
C136 C129 1.403 . S
C136 C137 1.399 . S
C136 H142 0.929 . S
C137 C117 1.449 . S
C137 C136 1.399 . S
C137 H143 0.930 . S
H138 C118 0.931 . S
H139 C119 0.930 . S
H140 C127 0.931 . S
H141 C128 0.929 . S
H142 C136 0.929 . S
H143 C137 0.930 . S
Mn144 O149 2.095 . S
Mn144 O159 2.162 . S
Mn144 O160 2.297 . S
Mn144 O168 2.385 . S
Mn144 O169 2.209 . S
Mn144 O170 2.094 . S
Mn145 O150 2.121 . S
Mn145 N152 2.257 . S
Mn145 N161 2.282 . S
Mn145 O169 2.215 . S
Mn145 O171 2.117 . S
C146 O168 1.234 . S
C146 O169 1.283 . S
C147 O159 1.281 . S
C147 O160 1.236 . S
C148 O170 1.240 . S
C148 O171 1.264 . S
O149 Mn144 2.095 . S
O149 C158 1.250 . S
O150 Mn145 2.121 . S
O150 C158 1.258 . S
C151 N152 1.326 . S
C151 C155 1.460 . S
C151 H157 0.929 . S
N152 Mn145 2.257 . S
N152 C151 1.326 . S
N152 C156 1.362 . S
C153 C154 1.258 . S
C153 C156 1.431 . S
C153 C173 1.449 . S
C154 C153 1.258 . S
C154 C155 1.477 . S
C154 H174 0.931 . S
C155 C151 1.460 . S
C155 C154 1.477 . S
C155 H175 0.930 . S
C156 N152 1.362 . S
C156 C153 1.431 . S
C156 C166 1.476 . S
H157 C151 0.929 . S
C158 O149 1.250 . S
C158 O150 1.258 . S
O159 Mn144 2.162 . S
O159 C147 1.281 . S
O160 Mn144 2.297 . S
O160 C147 1.236 . S
N161 Mn145 2.282 . S
N161 C162 1.328 . S
N161 C166 1.318 . S
C162 N161 1.328 . S
C162 C163 1.457 . S
C162 H167 0.929 . S
C163 C162 1.457 . S
C163 C164 1.291 . S
C163 H176 0.931 1_455 S
C164 C163 1.291 . S
C164 C165 1.373 . S
C164 H177 0.929 1_455 S
C165 C164 1.373 . S
C165 C166 1.396 . S
C165 C172 1.403 . S
C166 C156 1.476 . S
C166 N161 1.318 . S
C166 C165 1.396 . S
H167 C162 0.929 . S
O168 Mn144 2.385 . S
O168 C146 1.234 . S
O169 Mn144 2.209 . S
O169 Mn145 2.215 . S
O169 C146 1.283 . S
O170 Mn144 2.094 . S
O170 C148 1.240 . S
O171 Mn145 2.117 . S
O171 C148 1.264 . S
C172 C165 1.403 . S
C172 C173 1.399 . S
C172 H178 0.929 . S
C173 C153 1.449 . S
C173 C172 1.399 . S
C173 H179 0.930 . S
H174 C154 0.931 . S
H175 C155 0.930 . S
H176 C163 0.931 1_655 S
H177 C164 0.929 1_655 S
H178 C172 0.929 . S
H179 C173 0.930 . S
Mn180 O185 2.095 . S
Mn180 O195 2.162 . S
Mn180 O196 2.297 . S
Mn180 O204 2.385 . S
Mn180 O205 2.209 . S
Mn180 O206 2.094 . S
Mn181 O186 2.121 . S
Mn181 N188 2.257 . S
Mn181 N197 2.282 . S
Mn181 O205 2.215 . S
Mn181 O207 2.117 . S
C182 O204 1.234 . S
C182 O205 1.283 . S
C183 O195 1.281 . S
C183 O196 1.236 . S
C184 O206 1.240 . S
C184 O207 1.264 . S
O185 Mn180 2.095 . S
O185 C194 1.250 . S
O186 Mn181 2.121 . S
O186 C194 1.258 . S
C187 N188 1.326 . S
C187 C191 1.460 . S
C187 H193 0.929 . S
N188 Mn181 2.257 . S
N188 C187 1.326 . S
N188 C192 1.362 . S
C189 C190 1.258 . S
C189 C192 1.431 . S
C189 C209 1.449 . S
C190 C189 1.258 . S
C190 C191 1.477 . S
C190 H210 0.931 . S
C191 C187 1.460 . S
C191 C190 1.477 . S
C191 H211 0.930 . S
C192 N188 1.362 . S
C192 C189 1.431 . S
C192 C202 1.476 . S
H193 C187 0.929 . S
C194 O185 1.250 . S
C194 O186 1.258 . S
O195 Mn180 2.162 . S
O195 C183 1.281 . S
O196 Mn180 2.297 . S
O196 C183 1.236 . S
N197 Mn181 2.282 . S
N197 C198 1.328 . S
N197 C202 1.318 . S
C198 N197 1.328 . S
C198 C199 1.457 . S
C198 H203 0.929 . S
C199 C198 1.457 . S
C199 C200 1.291 . S
C199 H212 0.931 . S
C200 C199 1.291 . S
C200 C201 1.373 . S
C200 H213 0.929 . S
C201 C200 1.373 . S
C201 C202 1.396 . S
C201 C208 1.403 . S
C202 C192 1.476 . S
C202 N197 1.318 . S
C202 C201 1.396 . S
H203 C198 0.929 . S
O204 Mn180 2.385 . S
O204 C182 1.234 . S
O205 Mn180 2.209 . S
O205 Mn181 2.215 . S
O205 C182 1.283 . S
O206 Mn180 2.094 . S
O206 C184 1.240 . S
O207 Mn181 2.117 . S
O207 C184 1.264 . S
C208 C201 1.403 . S
C208 C209 1.399 . S
C208 H214 0.929 . S
C209 C189 1.449 . S
C209 C208 1.399 . S
C209 H215 0.930 . S
H210 C190 0.931 . S
H211 C191 0.930 . S
H212 C199 0.931 . S
H213 C200 0.929 . S
H214 C208 0.929 . S
H215 C209 0.930 . S
Mn216 O221 2.095 . S
Mn216 O231 2.162 . S
Mn216 O232 2.297 . S
Mn216 O240 2.385 . S
Mn216 O241 2.209 . S
Mn216 O242 2.094 . S
Mn217 O222 2.121 . S
Mn217 N224 2.257 . S
Mn217 N233 2.282 . S
Mn217 O241 2.215 . S
Mn217 O243 2.117 . S
C218 O240 1.234 . S
C218 O241 1.283 . S
C219 O231 1.281 . S
C219 O232 1.236 . S
C220 O242 1.240 . S
C220 O243 1.264 . S
O221 Mn216 2.095 . S
O221 C230 1.250 . S
O222 Mn217 2.121 . S
O222 C230 1.258 . S
C223 N224 1.326 . S
C223 C227 1.460 . S
C223 H229 0.929 . S
N224 Mn217 2.257 . S
N224 C223 1.326 . S
N224 C228 1.362 . S
C225 C226 1.258 . S
C225 C228 1.431 . S
C225 C245 1.449 . S
C226 C225 1.258 . S
C226 C227 1.477 . S
C226 H246 0.931 . S
C227 C223 1.460 . S
C227 C226 1.477 . S
C227 H247 0.930 . S
C228 N224 1.362 . S
C228 C225 1.431 . S
C228 C238 1.476 . S
H229 C223 0.929 . S
C230 O221 1.250 . S
C230 O222 1.258 . S
O231 Mn216 2.162 . S
O231 C219 1.281 . S
O232 Mn216 2.297 . S
O232 C219 1.236 . S
N233 Mn217 2.282 . S
N233 C234 1.328 . S
N233 C238 1.318 . S
C234 N233 1.328 . S
C234 C235 1.457 . S
C234 H239 0.929 . S
C235 C234 1.457 . S
C235 C236 1.291 . S
C235 H248 0.931 . S
C236 C235 1.291 . S
C236 C237 1.373 . S
C236 H249 0.929 . S
C237 C236 1.373 . S
C237 C238 1.396 . S
C237 C244 1.403 . S
C238 C228 1.476 . S
C238 N233 1.318 . S
C238 C237 1.396 . S
H239 C234 0.929 . S
O240 Mn216 2.385 . S
O240 C218 1.234 . S
O241 Mn216 2.209 . S
O241 Mn217 2.215 . S
O241 C218 1.283 . S
O242 Mn216 2.094 . S
O242 C220 1.240 . S
O243 Mn217 2.117 . S
O243 C220 1.264 . S
C244 C237 1.403 . S
C244 C245 1.399 . S
C244 H250 0.929 . S
C245 C225 1.449 . S
C245 C244 1.399 . S
C245 H251 0.930 . S
H246 C226 0.931 . S
H247 C227 0.930 . S
H248 C235 0.931 . S
H249 C236 0.929 . S
H250 C244 0.929 . S
H251 C245 0.930 . S
Mn252 O257 2.095 1_655 S
Mn252 O267 2.162 . S
Mn252 O268 2.297 . S
Mn252 O276 2.385 . S
Mn252 O277 2.209 . S
Mn252 O278 2.094 1_655 S
Mn253 O258 2.121 . S
Mn253 N260 2.257 1_455 S
Mn253 N269 2.282 1_455 S
Mn253 O277 2.215 1_455 S
Mn253 O279 2.117 . S
C254 O276 1.234 . S
C254 O277 1.283 . S
C255 O267 1.281 . S
C255 O268 1.236 . S
C256 O278 1.240 . S
C256 O279 1.264 . S
O257 Mn252 2.095 1_455 S
O257 C266 1.250 . S
O258 Mn253 2.121 . S
O258 C266 1.258 . S
C259 N260 1.325 1_455 S
C259 C263 1.459 1_455 S
C259 H265 0.931 . S
N260 Mn253 2.257 1_655 S
N260 C259 1.325 1_655 S
N260 C264 1.362 . S
C261 C262 1.258 . S
C261 C264 1.431 . S
C261 C281 1.449 . S
C262 C261 1.258 . S
C262 C263 1.477 . S
C262 H282 0.931 . S
C263 C259 1.459 1_655 S
C263 C262 1.477 . S
C263 H283 0.930 . S
C264 N260 1.362 . S
C264 C261 1.431 . S
C264 C274 1.476 . S
H265 C259 0.931 . S
C266 O257 1.250 . S
C266 O258 1.258 . S
O267 Mn252 2.162 . S
O267 C255 1.281 . S
O268 Mn252 2.297 . S
O268 C255 1.236 . S
N269 Mn253 2.282 1_655 S
N269 C270 1.328 . S
N269 C274 1.318 . S
C270 N269 1.328 . S
C270 C271 1.457 . S
C270 H275 0.929 . S
C271 C270 1.457 . S
C271 C272 1.291 . S
C271 H284 0.931 . S
C272 C271 1.291 . S
C272 C273 1.373 . S
C272 H285 0.929 . S
C273 C272 1.373 . S
C273 C274 1.396 . S
C273 C280 1.403 . S
C274 C264 1.476 . S
C274 N269 1.318 . S
C274 C273 1.396 . S
H275 C270 0.929 . S
O276 Mn252 2.385 . S
O276 C254 1.234 . S
O277 Mn252 2.209 . S
O277 Mn253 2.215 1_655 S
O277 C254 1.283 . S
O278 Mn252 2.094 1_455 S
O278 C256 1.240 . S
O279 Mn253 2.117 . S
O279 C256 1.264 . S
C280 C273 1.403 . S
C280 C281 1.399 . S
C280 H286 0.929 . S
C281 C261 1.449 . S
C281 C280 1.399 . S
C281 H287 0.930 . S
H282 C262 0.931 . S
H283 C263 0.930 . S
H284 C271 0.931 . S
H285 C272 0.929 . S
H286 C280 0.929 . S
H287 C281 0.930 . S
Mn288 O293 2.095 . S
Mn288 O303 2.162 . S
Mn288 O304 2.297 . S
Mn288 O312 2.385 1_545 S
Mn288 O313 2.209 . S
Mn288 O314 2.094 . S
Mn289 O294 2.121 . S
Mn289 N296 2.257 1_545 S
Mn289 N305 2.282 1_545 S
Mn289 O313 2.215 . S
Mn289 O315 2.117 . S
C290 O312 1.234 . S
C290 O313 1.283 1_565 S
C291 O303 1.281 . S
C291 O304 1.236 . S
C292 O314 1.240 . S
C292 O315 1.264 . S
O293 Mn288 2.095 . S
O293 C302 1.250 . S
O294 Mn289 2.121 . S
O294 C302 1.258 . S
C295 N296 1.328 1_545 S
C295 C299 1.460 1_545 S
C295 H301 0.929 . S
N296 Mn289 2.257 1_565 S
N296 C295 1.328 1_565 S
N296 C300 1.361 . S
C297 C298 1.258 . S
C297 C300 1.431 . S
C297 C317 1.449 . S
C298 C297 1.258 . S
C298 C299 1.477 . S
C298 H318 0.931 . S
C299 C295 1.460 1_565 S
C299 C298 1.477 . S
C299 H319 0.930 1_565 S
C300 N296 1.361 . S
C300 C297 1.431 . S
C300 C310 1.476 . S
H301 C295 0.929 . S
C302 O293 1.250 . S
C302 O294 1.258 . S
O303 Mn288 2.162 . S
O303 C291 1.281 . S
O304 Mn288 2.297 . S
O304 C291 1.236 . S
N305 Mn289 2.282 1_565 S
N305 C306 1.328 . S
N305 C310 1.318 . S
C306 N305 1.328 . S
C306 C307 1.457 . S
C306 H311 0.929 . S
C307 C306 1.457 . S
C307 C308 1.291 . S
C307 H320 0.931 . S
C308 C307 1.291 . S
C308 C309 1.373 . S
C308 H321 0.929 . S
C309 C308 1.373 . S
C309 C310 1.396 . S
C309 C316 1.403 . S
C310 C300 1.476 . S
C310 N305 1.318 . S
C310 C309 1.396 . S
H311 C306 0.929 . S
O312 Mn288 2.385 1_565 S
O312 C290 1.234 . S
O313 Mn288 2.209 . S
O313 Mn289 2.215 . S
O313 C290 1.283 1_545 S
O314 Mn288 2.094 . S
O314 C292 1.240 . S
O315 Mn289 2.117 . S
O315 C292 1.264 . S
C316 C309 1.403 . S
C316 C317 1.399 . S
C316 H322 0.929 . S
C317 C297 1.449 . S
C317 C316 1.399 . S
C317 H323 0.930 . S
H318 C298 0.931 . S
H319 C299 0.930 1_545 S
H320 C307 0.931 . S
H321 C308 0.929 . S
H322 C316 0.929 . S
H323 C317 0.930 . S
Mn324 O329 2.095 . S
Mn324 O339 2.162 . S
Mn324 O340 2.297 . S
Mn324 O348 2.385 . S
Mn324 O349 2.209 . S
Mn324 O350 2.094 . S
Mn325 O330 2.121 . S
Mn325 N332 2.257 . S
Mn325 N341 2.282 . S
Mn325 O349 2.215 . S
Mn325 O351 2.117 . S
C326 O348 1.234 . S
C326 O349 1.283 . S
C327 O339 1.281 . S
C327 O340 1.236 . S
C328 O350 1.240 . S
C328 O351 1.264 . S
O329 Mn324 2.095 . S
O329 C338 1.250 . S
O330 Mn325 2.121 . S
O330 C338 1.258 . S
C331 N332 1.326 . S
C331 C335 1.460 . S
C331 H337 0.929 . S
N332 Mn325 2.257 . S
N332 C331 1.326 . S
N332 C336 1.362 . S
C333 C334 1.258 . S
C333 C336 1.431 . S
C333 C353 1.449 . S
C334 C333 1.258 . S
C334 C335 1.477 . S
C334 H354 0.931 . S
C335 C331 1.460 . S
C335 C334 1.477 . S
C335 H355 0.930 . S
C336 N332 1.362 . S
C336 C333 1.431 . S
C336 C346 1.476 . S
H337 C331 0.929 . S
C338 O329 1.250 . S
C338 O330 1.258 . S
O339 Mn324 2.162 . S
O339 C327 1.281 . S
O340 Mn324 2.297 . S
O340 C327 1.236 . S
N341 Mn325 2.282 . S
N341 C342 1.328 . S
N341 C346 1.318 . S
C342 N341 1.328 . S
C342 C343 1.457 . S
C342 H347 0.929 . S
C343 C342 1.457 . S
C343 C344 1.291 . S
C343 H356 0.931 . S
C344 C343 1.291 . S
C344 C345 1.373 . S
C344 H357 0.929 . S
C345 C344 1.373 . S
C345 C346 1.396 . S
C345 C352 1.403 . S
C346 C336 1.476 . S
C346 N341 1.318 . S
C346 C345 1.396 . S
H347 C342 0.929 . S
O348 Mn324 2.385 . S
O348 C326 1.234 . S
O349 Mn324 2.209 . S
O349 Mn325 2.215 . S
O349 C326 1.283 . S
O350 Mn324 2.094 . S
O350 C328 1.240 . S
O351 Mn325 2.117 . S
O351 C328 1.264 . S
C352 C345 1.403 . S
C352 C353 1.399 . S
C352 H358 0.929 . S
C353 C333 1.449 . S
C353 C352 1.399 . S
C353 H359 0.930 . S
H354 C334 0.931 . S
H355 C335 0.930 . S
H356 C343 0.931 . S
H357 C344 0.929 . S
H358 C352 0.929 . S
H359 C353 0.930 . S
Mn360 O365 2.095 . S
Mn360 O375 2.162 . S
Mn360 O376 2.297 . S
Mn360 O384 2.385 . S
Mn360 O385 2.209 . S
Mn360 O386 2.094 . S
Mn361 O366 2.121 . S
Mn361 N368 2.257 . S
Mn361 N377 2.282 . S
Mn361 O385 2.215 . S
Mn361 O387 2.117 . S
C362 O384 1.234 . S
C362 O385 1.283 . S
C363 O375 1.281 . S
C363 O376 1.236 . S
C364 O386 1.240 . S
C364 O387 1.264 . S
O365 Mn360 2.095 . S
O365 C374 1.250 . S
O366 Mn361 2.121 . S
O366 C374 1.258 . S
C367 N368 1.326 . S
C367 C371 1.460 . S
C367 H373 0.929 . S
N368 Mn361 2.257 . S
N368 C367 1.326 . S
N368 C372 1.362 . S
C369 C370 1.258 . S
C369 C372 1.431 . S
C369 C389 1.449 . S
C370 C369 1.258 . S
C370 C371 1.477 . S
C370 H390 0.931 . S
C371 C367 1.460 . S
C371 C370 1.477 . S
C371 H391 0.930 . S
C372 N368 1.362 . S
C372 C369 1.431 . S
C372 C382 1.476 . S
H373 C367 0.929 . S
C374 O365 1.250 . S
C374 O366 1.258 . S
O375 Mn360 2.162 . S
O375 C363 1.281 . S
O376 Mn360 2.297 . S
O376 C363 1.236 . S
N377 Mn361 2.282 . S
N377 C378 1.328 . S
N377 C382 1.318 . S
C378 N377 1.328 . S
C378 C379 1.457 . S
C378 H383 0.929 . S
C379 C378 1.457 . S
C379 C380 1.291 . S
C379 H392 0.931 . S
C380 C379 1.291 . S
C380 C381 1.373 . S
C380 H393 0.929 . S
C381 C380 1.373 . S
C381 C382 1.396 . S
C381 C388 1.403 . S
C382 C372 1.476 . S
C382 N377 1.318 . S
C382 C381 1.396 . S
H383 C378 0.929 . S
O384 Mn360 2.385 . S
O384 C362 1.234 . S
O385 Mn360 2.209 . S
O385 Mn361 2.215 . S
O385 C362 1.283 . S
O386 Mn360 2.094 . S
O386 C364 1.240 . S
O387 Mn361 2.117 . S
O387 C364 1.264 . S
C388 C381 1.403 . S
C388 C389 1.399 . S
C388 H394 0.929 . S
C389 C369 1.449 . S
C389 C388 1.399 . S
C389 H395 0.930 . S
H390 C370 0.931 . S
H391 C371 0.930 . S
H392 C379 0.931 . S
H393 C380 0.929 . S
H394 C388 0.929 . S
H395 C389 0.930 . S
Mn396 O401 2.095 1_554 S
Mn396 O411 2.162 . S
Mn396 O412 2.297 . S
Mn396 O420 2.385 . S
Mn396 O421 2.200 1_554 S
Mn396 O422 2.094 1_554 S
Mn397 O402 2.121 . S
Mn397 N404 2.257 1_565 S
Mn397 N413 2.282 . S
Mn397 O421 2.250 . S
Mn397 O423 2.117 . S
C398 O420 1.234 . S
C398 O421 1.278 1_554 S
C399 O411 1.281 . S
C399 O412 1.236 . S
C400 O422 1.240 . S
C400 O423 1.264 . S
O401 Mn396 2.095 1_556 S
O401 C410 1.250 . S
O402 Mn397 2.121 . S
O402 C410 1.258 . S
C403 N404 1.326 . S
C403 C407 1.460 . S
C403 H409 0.929 . S
N404 Mn397 2.257 1_545 S
N404 C403 1.326 . S
N404 C408 1.362 . S
C405 C406 1.258 . S
C405 C408 1.431 . S
C405 C425 1.449 . S
C406 C405 1.258 . S
C406 C407 1.477 . S
C406 H426 0.931 . S
C407 C403 1.460 . S
C407 C406 1.477 . S
C407 H427 0.930 . S
C408 N404 1.362 . S
C408 C405 1.431 . S
C408 C418 1.476 . S
H409 C403 0.929 . S
C410 O401 1.250 . S
C410 O402 1.258 . S
O411 Mn396 2.162 . S
O411 C399 1.281 . S
O412 Mn396 2.297 . S
O412 C399 1.236 . S
N413 Mn397 2.282 . S
N413 C414 1.328 . S
N413 C418 1.318 1_565 S
C414 N413 1.328 . S
C414 C415 1.457 . S
C414 H419 0.929 . S
C415 C414 1.457 . S
C415 C416 1.291 . S
C415 H428 0.931 . S
C416 C415 1.291 . S
C416 C417 1.373 1_565 S
C416 H429 0.929 . S
C417 C416 1.373 1_545 S
C417 C418 1.396 . S
C417 C424 1.403 . S
C418 C408 1.476 . S
C418 N413 1.318 1_545 S
C418 C417 1.396 . S
H419 C414 0.929 . S
O420 Mn396 2.385 . S
O420 C398 1.234 . S
O421 Mn396 2.200 1_556 S
O421 Mn397 2.250 . S
O421 C398 1.278 1_556 S
O422 Mn396 2.094 1_556 S
O422 C400 1.240 . S
O423 Mn397 2.117 . S
O423 C400 1.264 . S
C424 C417 1.403 . S
C424 C425 1.399 . S
C424 H430 0.929 . S
C425 C405 1.449 . S
C425 C424 1.399 . S
C425 H431 0.930 . S
H426 C406 0.931 . S
H427 C407 0.930 . S
H428 C415 0.931 . S
H429 C416 0.929 . S
H430 C424 0.929 . S
H431 C425 0.930 . S
Mn432 O437 2.095 . S
Mn432 O447 2.162 . S
Mn432 O448 2.297 . S
Mn432 O456 2.385 . S
Mn432 O457 2.209 . S
Mn432 O458 2.094 . S
Mn433 O438 2.143 . S
Mn433 N440 2.262 . S
Mn433 N449 2.265 1_554 S
Mn433 O457 2.248 . S
Mn433 O459 2.104 1_554 S
C434 O456 1.234 . S
C434 O457 1.283 . S
C435 O447 1.281 . S
C435 O448 1.236 . S
C436 O458 1.240 1_556 S
C436 O459 1.264 . S
O437 Mn432 2.095 . S
O437 C446 1.250 . S
O438 Mn433 2.143 . S
O438 C446 1.258 . S
C439 N440 1.326 . S
C439 C443 1.460 . S
C439 H445 0.929 . S
N440 Mn433 2.262 . S
N440 C439 1.326 . S
N440 C444 1.377 . S
C441 C442 1.258 . S
C441 C444 1.432 . S
C441 C461 1.449 1_554 S
C442 C441 1.258 . S
C442 C443 1.477 . S
C442 H462 0.931 . S
C443 C439 1.460 . S
C443 C442 1.477 . S
C443 H463 0.930 . S
C444 N440 1.377 . S
C444 C441 1.432 . S
C444 C454 1.463 1_554 S
H445 C439 0.929 . S
C446 O437 1.250 . S
C446 O438 1.258 . S
O447 Mn432 2.162 . S
O447 C435 1.281 . S
O448 Mn432 2.297 . S
O448 C435 1.236 . S
N449 Mn433 2.265 1_556 S
N449 C450 1.328 . S
N449 C454 1.318 . S
C450 N449 1.328 . S
C450 C451 1.457 . S
C450 H455 0.929 . S
C451 C450 1.457 . S
C451 C452 1.291 . S
C451 H464 0.931 . S
C452 C451 1.291 . S
C452 C453 1.373 . S
C452 H465 0.929 . S
C453 C452 1.373 . S
C453 C454 1.396 . S
C453 C460 1.403 . S
C454 C444 1.463 1_556 S
C454 N449 1.318 . S
C454 C453 1.396 . S
H455 C450 0.929 . S
O456 Mn432 2.385 . S
O456 C434 1.234 . S
O457 Mn432 2.209 . S
O457 Mn433 2.248 . S
O457 C434 1.283 . S
O458 Mn432 2.094 . S
O458 C436 1.240 1_554 S
O459 Mn433 2.104 1_556 S
O459 C436 1.264 . S
C460 C453 1.403 . S
C460 C461 1.399 . S
C460 H466 0.929 . S
C461 C441 1.449 1_556 S
C461 C460 1.399 . S
C461 H467 0.930 . S
H462 C442 0.931 . S
H463 C443 0.930 . S
H464 C451 0.931 . S
H465 C452 0.929 . S
H466 C460 0.929 . S
H467 C461 0.930 . S
Mn468 O473 2.095 . S
Mn468 O483 2.162 . S
Mn468 O484 2.297 . S
Mn468 O492 2.385 . S
Mn468 O493 2.209 . S
Mn468 O494 2.094 . S
Mn469 O474 2.121 . S
Mn469 N476 2.257 . S
Mn469 N485 2.282 . S
Mn469 O493 2.215 . S
Mn469 O495 2.117 . S
C470 O492 1.234 . S
C470 O493 1.283 . S
C471 O483 1.281 . S
C471 O484 1.236 . S
C472 O494 1.240 . S
C472 O495 1.264 . S
O473 Mn468 2.095 . S
O473 C482 1.250 . S
O474 Mn469 2.121 . S
O474 C482 1.258 . S
C475 N476 1.326 . S
C475 C479 1.460 . S
C475 H481 0.929 . S
N476 Mn469 2.257 . S
N476 C475 1.326 . S
N476 C480 1.362 . S
C477 C478 1.258 . S
C477 C480 1.431 . S
C477 C497 1.449 . S
C478 C477 1.258 . S
C478 C479 1.477 . S
C478 H498 0.931 1_545 S
C479 C475 1.460 . S
C479 C478 1.477 . S
C479 H499 0.930 . S
C480 N476 1.362 . S
C480 C477 1.431 . S
C480 C490 1.476 . S
H481 C475 0.929 . S
C482 O473 1.250 . S
C482 O474 1.258 . S
O483 Mn468 2.162 . S
O483 C471 1.281 . S
O484 Mn468 2.297 . S
O484 C471 1.236 . S
N485 Mn469 2.282 . S
N485 C486 1.328 . S
N485 C490 1.318 . S
C486 N485 1.328 . S
C486 C487 1.457 1_554 S
C486 H491 0.929 . S
C487 C486 1.457 1_556 S
C487 C488 1.291 . S
C487 H500 0.931 . S
C488 C487 1.291 . S
C488 C489 1.383 . S
C488 H501 0.929 . S
C489 C488 1.383 . S
C489 C490 1.387 1_556 S
C489 C496 1.401 . S
C490 C480 1.476 . S
C490 N485 1.318 . S
C490 C489 1.387 1_554 S
H491 C486 0.929 . S
O492 Mn468 2.385 . S
O492 C470 1.234 . S
O493 Mn468 2.209 . S
O493 Mn469 2.215 . S
O493 C470 1.283 . S
O494 Mn468 2.094 . S
O494 C472 1.240 . S
O495 Mn469 2.117 . S
O495 C472 1.264 . S
C496 C489 1.401 . S
C496 C497 1.399 1_556 S
C496 H502 0.929 . S
C497 C477 1.449 . S
C497 C496 1.399 1_554 S
C497 H503 0.930 1_545 S
H498 C478 0.931 1_565 S
H499 C479 0.930 . S
H500 C487 0.931 . S
H501 C488 0.929 . S
H502 C496 0.929 . S
H503 C497 0.930 1_565 S
Mn504 O509 2.095 . S
Mn504 O519 2.162 . S
Mn504 O520 2.297 . S
Mn504 O528 2.385 . S
Mn504 O529 2.209 . S
Mn504 O530 2.094 . S
Mn505 O510 2.121 . S
Mn505 N512 2.257 . S
Mn505 N521 2.282 . S
Mn505 O529 2.215 . S
Mn505 O531 2.117 . S
C506 O528 1.234 . S
C506 O529 1.283 . S
C507 O519 1.281 . S
C507 O520 1.236 . S
C508 O530 1.240 . S
C508 O531 1.264 . S
O509 Mn504 2.095 . S
O509 C518 1.250 . S
O510 Mn505 2.121 . S
O510 C518 1.258 . S
C511 N512 1.326 . S
C511 C515 1.460 . S
C511 H517 0.929 . S
N512 Mn505 2.257 . S
N512 C511 1.326 . S
N512 C516 1.362 . S
C513 C514 1.258 . S
C513 C516 1.431 . S
C513 C533 1.449 . S
C514 C513 1.258 . S
C514 C515 1.477 . S
C514 H534 0.931 . S
C515 C511 1.460 . S
C515 C514 1.477 . S
C515 H535 0.930 . S
C516 N512 1.362 . S
C516 C513 1.431 . S
C516 C526 1.476 . S
H517 C511 0.929 . S
C518 O509 1.250 . S
C518 O510 1.258 . S
O519 Mn504 2.162 . S
O519 C507 1.281 . S
O520 Mn504 2.297 . S
O520 C507 1.236 . S
N521 Mn505 2.282 . S
N521 C522 1.328 . S
N521 C526 1.318 . S
C522 N521 1.328 . S
C522 C523 1.457 . S
C522 H527 0.929 . S
C523 C522 1.457 . S
C523 C524 1.291 . S
C523 H536 0.931 . S
C524 C523 1.291 . S
C524 C525 1.373 . S
C524 H537 0.929 . S
C525 C524 1.373 . S
C525 C526 1.396 . S
C525 C532 1.403 . S
C526 C516 1.476 . S
C526 N521 1.318 . S
C526 C525 1.396 . S
H527 C522 0.929 . S
O528 Mn504 2.385 . S
O528 C506 1.234 . S
O529 Mn504 2.209 . S
O529 Mn505 2.215 . S
O529 C506 1.283 . S
O530 Mn504 2.094 . S
O530 C508 1.240 . S
O531 Mn505 2.117 . S
O531 C508 1.264 . S
C532 C525 1.403 . S
C532 C533 1.399 . S
C532 H538 0.929 . S
C533 C513 1.449 . S
C533 C532 1.399 . S
C533 H539 0.930 . S
H534 C514 0.931 . S
H535 C515 0.930 . S
H536 C523 0.931 . S
H537 C524 0.929 . S
H538 C532 0.929 . S
H539 C533 0.930 . S
Mn540 O545 2.095 . S
Mn540 O555 2.162 . S
Mn540 O556 2.297 . S
Mn540 O564 2.385 . S
Mn540 O565 2.209 . S
Mn540 O566 2.094 . S
Mn541 O546 2.121 . S
Mn541 N548 2.257 . S
Mn541 N557 2.282 . S
Mn541 O565 2.215 . S
Mn541 O567 2.117 . S
C542 O564 1.234 . S
C542 O565 1.283 . S
C543 O555 1.281 . S
C543 O556 1.236 . S
C544 O566 1.240 . S
C544 O567 1.264 . S
O545 Mn540 2.095 . S
O545 C554 1.250 . S
O546 Mn541 2.121 . S
O546 C554 1.258 . S
C547 N548 1.326 . S
C547 C551 1.460 . S
C547 H553 0.929 . S
N548 Mn541 2.257 . S
N548 C547 1.326 . S
N548 C552 1.362 . S
C549 C550 1.271 . S
C549 C552 1.431 . S
C549 C569 1.449 . S
C550 C549 1.271 . S
C550 C551 1.478 . S
C550 H570 0.916 1_565 S
C551 C547 1.460 . S
C551 C550 1.478 . S
C551 H571 0.930 1_565 S
C552 N548 1.362 . S
C552 C549 1.431 . S
C552 C562 1.476 . S
H553 C547 0.929 . S
C554 O545 1.250 . S
C554 O546 1.258 . S
O555 Mn540 2.162 . S
O555 C543 1.281 . S
O556 Mn540 2.297 . S
O556 C543 1.236 . S
N557 Mn541 2.282 . S
N557 C558 1.328 . S
N557 C562 1.318 . S
C558 N557 1.328 . S
C558 C559 1.457 . S
C558 H563 0.929 . S
C559 C558 1.457 . S
C559 C560 1.291 . S
C559 H572 0.931 . S
C560 C559 1.291 . S
C560 C561 1.373 . S
C560 H573 0.929 . S
C561 C560 1.373 . S
C561 C562 1.396 . S
C561 C568 1.403 . S
C562 C552 1.476 . S
C562 N557 1.318 . S
C562 C561 1.396 . S
H563 C558 0.929 . S
O564 Mn540 2.385 . S
O564 C542 1.234 . S
O565 Mn540 2.209 . S
O565 Mn541 2.215 . S
O565 C542 1.283 . S
O566 Mn540 2.094 . S
O566 C544 1.240 . S
O567 Mn541 2.117 . S
O567 C544 1.264 . S
C568 C561 1.403 . S
C568 C569 1.399 . S
C568 H574 0.929 . S
C569 C549 1.449 . S
C569 C568 1.399 . S
C569 H575 0.930 1_565 S
H570 C550 0.916 1_545 S
H571 C551 0.930 1_545 S
H572 C559 0.931 . S
H573 C560 0.929 . S
H574 C568 0.929 . S
H575 C569 0.930 1_545 S
Mn576 O581 2.095 . S
Mn576 O591 2.162 . S
Mn576 O592 2.297 . S
Mn576 O600 2.385 1_545 S
Mn576 O601 2.209 1_545 S
Mn576 O602 2.094 . S
Mn577 O582 2.121 1_565 S
Mn577 N584 2.257 . S
Mn577 N593 2.282 . S
Mn577 O601 2.215 . S
Mn577 O603 2.117 1_565 S
C578 O600 1.234 . S
C578 O601 1.283 . S
C579 O591 1.281 . S
C579 O592 1.236 . S
C580 O602 1.240 . S
C580 O603 1.264 . S
O581 Mn576 2.095 . S
O581 C590 1.250 . S
O582 Mn577 2.121 1_545 S
O582 C590 1.258 . S
C583 N584 1.326 . S
C583 C587 1.460 . S
C583 H589 0.929 1_565 S
N584 Mn577 2.257 . S
N584 C583 1.326 . S
N584 C588 1.362 . S
C585 C586 1.258 . S
C585 C588 1.431 . S
C585 C605 1.449 . S
C586 C585 1.258 . S
C586 C587 1.477 . S
C586 H606 0.931 . S
C587 C583 1.460 . S
C587 C586 1.477 . S
C587 H607 0.930 . S
C588 N584 1.362 . S
C588 C585 1.431 . S
C588 C598 1.476 . S
H589 C583 0.929 1_545 S
C590 O581 1.250 . S
C590 O582 1.258 . S
O591 Mn576 2.162 . S
O591 C579 1.281 . S
O592 Mn576 2.297 . S
O592 C579 1.236 . S
N593 Mn577 2.282 . S
N593 C594 1.328 . S
N593 C598 1.318 . S
C594 N593 1.328 . S
C594 C595 1.457 . S
C594 H599 0.929 . S
C595 C594 1.457 . S
C595 C596 1.291 . S
C595 H608 0.931 . S
C596 C595 1.291 . S
C596 C597 1.373 . S
C596 H609 0.929 . S
C597 C596 1.373 . S
C597 C598 1.396 . S
C597 C604 1.403 . S
C598 C588 1.476 . S
C598 N593 1.318 . S
C598 C597 1.396 . S
H599 C594 0.929 . S
O600 Mn576 2.385 1_565 S
O600 C578 1.234 . S
O601 Mn576 2.209 1_565 S
O601 Mn577 2.215 . S
O601 C578 1.283 . S
O602 Mn576 2.094 . S
O602 C580 1.240 . S
O603 Mn577 2.117 1_545 S
O603 C580 1.264 . S
C604 C597 1.403 . S
C604 C605 1.399 . S
C604 H610 0.929 . S
C605 C585 1.449 . S
C605 C604 1.399 . S
C605 H611 0.930 . S
H606 C586 0.931 . S
H607 C587 0.930 . S
H608 C595 0.931 . S
H609 C596 0.929 . S
H610 C604 0.929 . S
H611 C605 0.930 . S
Mn612 O617 2.095 . S
Mn612 O627 2.162 . S
Mn612 O628 2.297 . S
Mn612 O636 2.385 . S
Mn612 O637 2.209 . S
Mn612 O638 2.094 . S
Mn613 O618 2.121 . S
Mn613 N620 2.257 . S
Mn613 N629 2.282 . S
Mn613 O637 2.215 . S
Mn613 O639 2.117 . S
C614 O636 1.234 . S
C614 O637 1.283 . S
C615 O627 1.281 . S
C615 O628 1.236 . S
C616 O638 1.240 . S
C616 O639 1.264 . S
O617 Mn612 2.095 . S
O617 C626 1.250 . S
O618 Mn613 2.121 . S
O618 C626 1.258 . S
C619 N620 1.326 . S
C619 C623 1.460 . S
C619 H625 0.929 . S
N620 Mn613 2.257 . S
N620 C619 1.326 . S
N620 C624 1.362 . S
C621 C622 1.258 . S
C621 C624 1.431 . S
C621 C641 1.449 . S
C622 C621 1.258 . S
C622 C623 1.477 . S
C622 H642 0.931 . S
C623 C619 1.460 . S
C623 C622 1.477 . S
C623 H643 0.930 . S
C624 N620 1.362 . S
C624 C621 1.431 . S
C624 C634 1.476 . S
H625 C619 0.929 . S
C626 O617 1.250 . S
C626 O618 1.258 . S
O627 Mn612 2.162 . S
O627 C615 1.281 . S
O628 Mn612 2.297 . S
O628 C615 1.236 . S
N629 Mn613 2.282 . S
N629 C630 1.328 . S
N629 C634 1.318 . S
C630 N629 1.328 . S
C630 C631 1.457 . S
C630 H635 0.929 . S
C631 C630 1.457 . S
C631 C632 1.291 . S
C631 H644 0.931 . S
C632 C631 1.291 . S
C632 C633 1.373 . S
C632 H645 0.929 . S
C633 C632 1.373 . S
C633 C634 1.396 . S
C633 C640 1.403 . S
C634 C624 1.476 . S
C634 N629 1.318 . S
C634 C633 1.396 . S
H635 C630 0.929 . S
O636 Mn612 2.385 . S
O636 C614 1.234 . S
O637 Mn612 2.209 . S
O637 Mn613 2.215 . S
O637 C614 1.283 . S
O638 Mn612 2.094 . S
O638 C616 1.240 . S
O639 Mn613 2.117 . S
O639 C616 1.264 . S
C640 C633 1.403 . S
C640 C641 1.399 . S
C640 H646 0.929 . S
C641 C621 1.449 . S
C641 C640 1.399 . S
C641 H647 0.930 . S
H642 C622 0.931 . S
H643 C623 0.930 . S
H644 C631 0.931 . S
H645 C632 0.929 . S
H646 C640 0.929 . S
H647 C641 0.930 . S
Mn648 O653 2.095 . S
Mn648 O663 2.162 . S
Mn648 O664 2.297 . S
Mn648 O672 2.385 . S
Mn648 O673 2.209 . S
Mn648 O674 2.094 . S
Mn649 O654 2.121 . S
Mn649 N656 2.257 . S
Mn649 N665 2.282 . S
Mn649 O673 2.215 . S
Mn649 O675 2.117 . S
C650 O672 1.234 . S
C650 O673 1.283 . S
C651 O663 1.281 . S
C651 O664 1.236 . S
C652 O674 1.240 . S
C652 O675 1.264 . S
O653 Mn648 2.095 . S
O653 C662 1.250 . S
O654 Mn649 2.121 . S
O654 C662 1.258 . S
C655 N656 1.326 . S
C655 C659 1.460 . S
C655 H661 0.929 . S
N656 Mn649 2.257 . S
N656 C655 1.326 . S
N656 C660 1.362 . S
C657 C658 1.258 . S
C657 C660 1.431 . S
C657 C677 1.449 . S
C658 C657 1.258 . S
C658 C659 1.477 . S
C658 H678 0.931 . S
C659 C655 1.460 . S
C659 C658 1.477 . S
C659 H679 0.930 . S
C660 N656 1.362 . S
C660 C657 1.431 . S
C660 C670 1.476 . S
H661 C655 0.929 . S
C662 O653 1.250 . S
C662 O654 1.258 . S
O663 Mn648 2.162 . S
O663 C651 1.281 . S
O664 Mn648 2.297 . S
O664 C651 1.236 . S
N665 Mn649 2.282 . S
N665 C666 1.328 . S
N665 C670 1.318 . S
C666 N665 1.328 . S
C666 C667 1.457 . S
C666 H671 0.929 . S
C667 C666 1.457 . S
C667 C668 1.291 . S
C667 H680 0.931 . S
C668 C667 1.291 . S
C668 C669 1.373 . S
C668 H681 0.929 . S
C669 C668 1.373 . S
C669 C670 1.396 . S
C669 C676 1.403 . S
C670 C660 1.476 . S
C670 N665 1.318 . S
C670 C669 1.396 . S
H671 C666 0.929 . S
O672 Mn648 2.385 . S
O672 C650 1.234 . S
O673 Mn648 2.209 . S
O673 Mn649 2.215 . S
O673 C650 1.283 . S
O674 Mn648 2.094 . S
O674 C652 1.240 . S
O675 Mn649 2.117 . S
O675 C652 1.264 . S
C676 C669 1.403 . S
C676 C677 1.399 . S
C676 H682 0.929 . S
C677 C657 1.449 . S
C677 C676 1.399 . S
C677 H683 0.930 . S
H678 C658 0.931 . S
H679 C659 0.930 . S
H680 C667 0.931 . S
H681 C668 0.929 . S
H682 C676 0.929 . S
H683 C677 0.930 . S
Mn684 O689 2.095 . S
Mn684 O699 2.162 . S
Mn684 O700 2.297 . S
Mn684 O708 2.385 . S
Mn684 O709 2.209 . S
Mn684 O710 2.094 . S
Mn685 O690 2.121 . S
Mn685 N692 2.257 . S
Mn685 N701 2.282 . S
Mn685 O709 2.215 . S
Mn685 O711 2.117 . S
C686 O708 1.234 . S
C686 O709 1.283 . S
C687 O699 1.281 . S
C687 O700 1.236 . S
C688 O710 1.240 . S
C688 O711 1.264 . S
O689 Mn684 2.095 . S
O689 C698 1.250 . S
O690 Mn685 2.121 . S
O690 C698 1.258 . S
C691 N692 1.326 . S
C691 C695 1.460 . S
C691 H697 0.929 . S
N692 Mn685 2.257 . S
N692 C691 1.326 . S
N692 C696 1.362 . S
C693 C694 1.258 . S
C693 C696 1.431 . S
C693 C713 1.449 . S
C694 C693 1.258 . S
C694 C695 1.477 . S
C694 H714 0.931 . S
C695 C691 1.460 . S
C695 C694 1.477 . S
C695 H715 0.930 . S
C696 N692 1.362 . S
C696 C693 1.431 . S
C696 C706 1.476 . S
H697 C691 0.929 . S
C698 O689 1.250 . S
C698 O690 1.258 . S
O699 Mn684 2.162 . S
O699 C687 1.281 . S
O700 Mn684 2.297 . S
O700 C687 1.236 . S
N701 Mn685 2.282 . S
N701 C702 1.328 . S
N701 C706 1.318 . S
C702 N701 1.328 . S
C702 C703 1.457 . S
C702 H707 0.929 . S
C703 C702 1.457 . S
C703 C704 1.291 . S
C703 H716 0.931 . S
C704 C703 1.291 . S
C704 C705 1.373 . S
C704 H717 0.929 . S
C705 C704 1.373 . S
C705 C706 1.396 . S
C705 C712 1.403 . S
C706 C696 1.476 . S
C706 N701 1.318 . S
C706 C705 1.396 . S
H707 C702 0.929 . S
O708 Mn684 2.385 . S
O708 C686 1.234 . S
O709 Mn684 2.209 . S
O709 Mn685 2.215 . S
O709 C686 1.283 . S
O710 Mn684 2.094 . S
O710 C688 1.240 . S
O711 Mn685 2.117 . S
O711 C688 1.264 . S
C712 C705 1.403 . S
C712 C713 1.399 . S
C712 H718 0.929 . S
C713 C693 1.449 . S
C713 C712 1.399 . S
C713 H719 0.930 . S
H714 C694 0.931 . S
H715 C695 0.930 . S
H716 C703 0.931 . S
H717 C704 0.929 . S
H718 C712 0.929 . S
H719 C713 0.930 . S
Mn720 O725 2.095 . S
Mn720 O735 2.162 . S
Mn720 O736 2.297 . S
Mn720 O744 2.385 . S
Mn720 O745 2.209 . S
Mn720 O746 2.094 . S
Mn721 O726 2.121 1_556 S
Mn721 N728 2.257 . S
Mn721 N737 2.282 . S
Mn721 O745 2.215 1_556 S
Mn721 O747 2.117 . S
C722 O744 1.234 . S
C722 O745 1.283 . S
C723 O735 1.281 . S
C723 O736 1.236 . S
C724 O746 1.240 1_556 S
C724 O747 1.264 . S
O725 Mn720 2.095 . S
O725 C734 1.250 . S
O726 Mn721 2.121 1_554 S
O726 C734 1.258 . S
C727 N728 1.326 1_554 S
C727 C731 1.460 . S
C727 H733 0.929 . S
N728 Mn721 2.257 . S
N728 C727 1.326 1_556 S
N728 C732 1.362 . S
C729 C730 1.258 . S
C729 C732 1.431 . S
C729 C749 1.449 . S
C730 C729 1.258 . S
C730 C731 1.477 1_556 S
C730 H750 0.931 . S
C731 C727 1.460 . S
C731 C730 1.477 1_554 S
C731 H751 0.930 . S
C732 N728 1.362 . S
C732 C729 1.431 . S
C732 C742 1.476 . S
H733 C727 0.929 . S
C734 O725 1.250 . S
C734 O726 1.258 . S
O735 Mn720 2.162 . S
O735 C723 1.281 . S
O736 Mn720 2.297 . S
O736 C723 1.236 . S
N737 Mn721 2.282 . S
N737 C738 1.328 . S
N737 C742 1.318 . S
C738 N737 1.328 . S
C738 C739 1.457 . S
C738 H743 0.929 . S
C739 C738 1.457 . S
C739 C740 1.291 . S
C739 H752 0.931 . S
C740 C739 1.291 . S
C740 C741 1.373 . S
C740 H753 0.929 . S
C741 C740 1.373 . S
C741 C742 1.396 . S
C741 C748 1.403 . S
C742 C732 1.476 . S
C742 N737 1.318 . S
C742 C741 1.396 . S
H743 C738 0.929 . S
O744 Mn720 2.385 . S
O744 C722 1.234 . S
O745 Mn720 2.209 . S
O745 Mn721 2.215 1_554 S
O745 C722 1.283 . S
O746 Mn720 2.094 . S
O746 C724 1.240 1_554 S
O747 Mn721 2.117 . S
O747 C724 1.264 . S
C748 C741 1.403 . S
C748 C749 1.399 . S
C748 H754 0.929 . S
C749 C729 1.449 . S
C749 C748 1.399 . S
C749 H755 0.930 . S
H750 C730 0.931 . S
H751 C731 0.930 . S
H752 C739 0.931 . S
H753 C740 0.929 . S
H754 C748 0.929 . S
H755 C749 0.930 . S
Mn756 O761 2.095 . S
Mn756 O771 2.162 . S
Mn756 O772 2.297 . S
Mn756 O780 2.385 . S
Mn756 O781 2.209 . S
Mn756 O782 2.094 . S
Mn757 O762 2.121 . S
Mn757 N764 2.257 . S
Mn757 N773 2.282 . S
Mn757 O781 2.215 . S
Mn757 O783 2.117 . S
C758 O780 1.234 . S
C758 O781 1.283 . S
C759 O771 1.281 . S
C759 O772 1.236 . S
C760 O782 1.240 . S
C760 O783 1.264 . S
O761 Mn756 2.095 . S
O761 C770 1.250 . S
O762 Mn757 2.121 . S
O762 C770 1.258 . S
C763 N764 1.326 . S
C763 C767 1.460 . S
C763 H769 0.929 . S
N764 Mn757 2.257 . S
N764 C763 1.326 . S
N764 C768 1.362 . S
C765 C766 1.258 . S
C765 C768 1.431 . S
C765 C785 1.449 . S
C766 C765 1.258 . S
C766 C767 1.477 . S
C766 H786 0.931 . S
C767 C763 1.460 . S
C767 C766 1.477 . S
C767 H787 0.930 . S
C768 N764 1.362 . S
C768 C765 1.431 . S
C768 C778 1.476 . S
H769 C763 0.929 . S
C770 O761 1.250 . S
C770 O762 1.258 . S
O771 Mn756 2.162 . S
O771 C759 1.281 . S
O772 Mn756 2.297 . S
O772 C759 1.236 . S
N773 Mn757 2.282 . S
N773 C774 1.328 . S
N773 C778 1.318 . S
C774 N773 1.328 . S
C774 C775 1.457 . S
C774 H779 0.929 . S
C775 C774 1.457 . S
C775 C776 1.291 . S
C775 H788 0.931 . S
C776 C775 1.291 . S
C776 C777 1.373 . S
C776 H789 0.929 . S
C777 C776 1.373 . S
C777 C778 1.396 . S
C777 C784 1.403 . S
C778 C768 1.476 . S
C778 N773 1.318 . S
C778 C777 1.396 . S
H779 C774 0.929 . S
O780 Mn756 2.385 . S
O780 C758 1.234 . S
O781 Mn756 2.209 . S
O781 Mn757 2.215 . S
O781 C758 1.283 . S
O782 Mn756 2.094 . S
O782 C760 1.240 . S
O783 Mn757 2.117 . S
O783 C760 1.264 . S
C784 C777 1.403 . S
C784 C785 1.399 . S
C784 H790 0.929 . S
C785 C765 1.449 . S
C785 C784 1.399 . S
C785 H791 0.930 . S
H786 C766 0.931 . S
H787 C767 0.930 . S
H788 C775 0.931 . S
H789 C776 0.929 . S
H790 C784 0.929 . S
H791 C785 0.930 . S
Mn792 O797 2.095 . S
Mn792 O807 2.162 . S
Mn792 O808 2.297 . S
Mn792 O816 2.385 . S
Mn792 O817 2.209 . S
Mn792 O818 2.094 . S
Mn793 O798 2.121 . S
Mn793 N800 2.257 . S
Mn793 N809 2.282 . S
Mn793 O817 2.215 . S
Mn793 O819 2.117 . S
C794 O816 1.234 . S
C794 O817 1.283 . S
C795 O807 1.281 . S
C795 O808 1.236 . S
C796 O818 1.240 . S
C796 O819 1.264 . S
O797 Mn792 2.095 . S
O797 C806 1.250 . S
O798 Mn793 2.121 . S
O798 C806 1.258 . S
C799 N800 1.326 . S
C799 C803 1.460 . S
C799 H805 0.929 . S
N800 Mn793 2.257 . S
N800 C799 1.326 . S
N800 C804 1.362 . S
C801 C802 1.258 . S
C801 C804 1.431 . S
C801 C821 1.449 . S
C802 C801 1.258 . S
C802 C803 1.477 . S
C802 H822 0.931 . S
C803 C799 1.460 . S
C803 C802 1.477 . S
C803 H823 0.930 . S
C804 N800 1.362 . S
C804 C801 1.431 . S
C804 C814 1.476 . S
H805 C799 0.929 . S
C806 O797 1.250 . S
C806 O798 1.258 . S
O807 Mn792 2.162 . S
O807 C795 1.281 . S
O808 Mn792 2.297 . S
O808 C795 1.236 . S
N809 Mn793 2.282 . S
N809 C810 1.328 . S
N809 C814 1.318 . S
C810 N809 1.328 . S
C810 C811 1.457 . S
C810 H815 0.929 . S
C811 C810 1.457 . S
C811 C812 1.291 . S
C811 H824 0.931 . S
C812 C811 1.291 . S
C812 C813 1.373 . S
C812 H825 0.929 . S
C813 C812 1.373 . S
C813 C814 1.396 . S
C813 C820 1.403 . S
C814 C804 1.476 . S
C814 N809 1.318 . S
C814 C813 1.396 . S
H815 C810 0.929 . S
O816 Mn792 2.385 . S
O816 C794 1.234 . S
O817 Mn792 2.209 . S
O817 Mn793 2.215 . S
O817 C794 1.283 . S
O818 Mn792 2.094 . S
O818 C796 1.240 . S
O819 Mn793 2.117 . S
O819 C796 1.264 . S
C820 C813 1.403 . S
C820 C821 1.399 . S
C820 H826 0.929 . S
C821 C801 1.449 . S
C821 C820 1.399 . S
C821 H827 0.930 . S
H822 C802 0.931 . S
H823 C803 0.930 . S
H824 C811 0.931 . S
H825 C812 0.929 . S
H826 C820 0.929 . S
H827 C821 0.930 . S
Mn828 O833 2.095 . S
Mn828 O843 2.162 . S
Mn828 O844 2.297 . S
Mn828 O852 2.385 . S
Mn828 O853 2.209 . S
Mn828 O854 2.094 . S
Mn829 O834 2.121 . S
Mn829 N836 2.257 . S
Mn829 N845 2.282 . S
Mn829 O853 2.215 . S
Mn829 O855 2.117 . S
C830 O852 1.234 . S
C830 O853 1.283 . S
C831 O843 1.281 . S
C831 O844 1.236 . S
C832 O854 1.240 . S
C832 O855 1.264 . S
O833 Mn828 2.095 . S
O833 C842 1.250 . S
O834 Mn829 2.121 . S
O834 C842 1.258 . S
C835 N836 1.326 . S
C835 C839 1.460 . S
C835 H841 0.929 . S
N836 Mn829 2.257 . S
N836 C835 1.326 . S
N836 C840 1.362 . S
C837 C838 1.258 . S
C837 C840 1.431 . S
C837 C857 1.449 . S
C838 C837 1.258 . S
C838 C839 1.477 . S
C838 H858 0.931 . S
C839 C835 1.460 . S
C839 C838 1.477 . S
C839 H859 0.930 . S
C840 N836 1.362 . S
C840 C837 1.431 . S
C840 C850 1.476 . S
H841 C835 0.929 . S
C842 O833 1.250 . S
C842 O834 1.258 . S
O843 Mn828 2.162 . S
O843 C831 1.281 . S
O844 Mn828 2.297 . S
O844 C831 1.236 . S
N845 Mn829 2.282 . S
N845 C846 1.328 . S
N845 C850 1.318 . S
C846 N845 1.328 . S
C846 C847 1.457 . S
C846 H851 0.929 . S
C847 C846 1.457 . S
C847 C848 1.291 . S
C847 H860 0.931 . S
C848 C847 1.291 . S
C848 C849 1.373 . S
C848 H861 0.929 . S
C849 C848 1.373 . S
C849 C850 1.396 . S
C849 C856 1.403 . S
C850 C840 1.476 . S
C850 N845 1.318 . S
C850 C849 1.396 . S
H851 C846 0.929 . S
O852 Mn828 2.385 . S
O852 C830 1.234 . S
O853 Mn828 2.209 . S
O853 Mn829 2.215 . S
O853 C830 1.283 . S
O854 Mn828 2.094 . S
O854 C832 1.240 . S
O855 Mn829 2.117 . S
O855 C832 1.264 . S
C856 C849 1.403 . S
C856 C857 1.399 . S
C856 H862 0.929 . S
C857 C837 1.449 . S
C857 C856 1.399 . S
C857 H863 0.930 . S
H858 C838 0.931 . S
H859 C839 0.930 . S
H860 C847 0.931 . S
H861 C848 0.929 . S
H862 C856 0.929 . S
H863 C857 0.930 . S
Tb864 C873 2.764 . S
Tb864 O874 2.298 1_545 S
Tb864 O877 2.303 . S
Tb864 O881 2.322 . S
Tb864 O882 2.349 . S
Tb864 O885 2.415 . S
Tb864 O886 2.399 . S
Tb865 O875 2.322 1_545 S
Tb865 O876 2.349 1_554 S
Tb865 O878 2.415 1_455 S
Tb865 O879 2.399 1_454 S
Tb865 O880 2.325 . S
Tb865 O883 2.303 . S
Tb865 C894 2.764 1_455 S
C866 O882 1.261 . S
C866 O883 1.257 . S
C867 C870 1.358 . S
C867 C871 1.332 . S
C867 C873 1.504 . S
C868 C869 1.373 . S
C868 C872 1.308 . S
C869 C868 1.373 . S
C869 C870 1.429 . S
C869 H896 0.932 . S
C870 C867 1.358 . S
C870 C869 1.429 . S
C870 H897 0.930 . S
C871 C867 1.332 . S
C871 C872 1.394 . S
C871 H898 0.932 . S
C872 C868 1.308 . S
C872 C871 1.394 . S
C872 H899 0.929 1_545 S
C873 Tb864 2.764 . S
C873 C867 1.504 . S
C873 O885 1.239 . S
C873 O886 1.263 . S
O874 Tb864 2.298 1_565 S
O874 C884 1.252 . S
O875 Tb865 2.322 1_565 S
O875 C884 1.257 . S
O876 Tb865 2.349 1_556 S
O876 C887 1.261 . S
O877 Tb864 2.303 . S
O877 C887 1.257 1_554 S
O878 Tb865 2.415 1_655 S
O878 C894 1.239 . S
O879 Tb865 2.399 1_656 S
O879 C894 1.263 1_556 S
O880 Tb865 2.325 . S
O880 C895 1.236 . S
O881 Tb864 2.322 . S
O881 C895 1.257 . S
O882 Tb864 2.349 . S
O882 C866 1.261 . S
O883 Tb865 2.303 . S
O883 C866 1.257 . S
C884 O874 1.252 . S
C884 O875 1.257 . S
O885 Tb864 2.415 . S
O885 C873 1.239 . S
O886 Tb864 2.399 . S
O886 C873 1.263 . S
C887 O876 1.261 . S
C887 O877 1.257 1_556 S
C888 C891 1.358 1_554 S
C888 C892 1.332 . S
C888 C894 1.504 . S
C889 C890 1.373 . S
C889 C893 1.308 1_556 S
C890 C889 1.373 . S
C890 C891 1.429 . S
C890 H900 0.932 . S
C891 C888 1.358 1_556 S
C891 C890 1.429 . S
C891 H901 0.930 . S
C892 C888 1.332 . S
C892 C893 1.394 . S
C892 H902 0.932 . S
C893 C889 1.308 1_554 S
C893 C892 1.394 . S
C893 H903 0.929 . S
C894 Tb865 2.764 1_655 S
C894 O878 1.239 . S
C894 O879 1.263 1_554 S
C894 C888 1.504 . S
C895 O880 1.236 . S
C895 O881 1.257 . S
H896 C869 0.932 . S
H897 C870 0.930 . S
H898 C871 0.932 . S
H899 C872 0.929 1_565 S
H900 C890 0.932 . S
H901 C891 0.930 . S
H902 C892 0.932 . S
H903 C893 0.929 . S
Tb904 C913 2.764 . S
Tb904 O914 2.325 . S
Tb904 O917 2.303 . S
Tb904 O921 2.322 . S
Tb904 O922 2.349 . S
Tb904 O925 2.415 . S
Tb904 O926 2.399 . S
Tb905 O915 2.322 . S
Tb905 O916 2.349 . S
Tb905 O918 2.415 . S
Tb905 O919 2.399 . S
Tb905 O920 2.325 . S
Tb905 O923 2.303 . S
Tb905 C934 2.764 . S
C906 O922 1.261 . S
C906 O923 1.257 . S
C907 C910 1.358 . S
C907 C911 1.332 . S
C907 C913 1.504 . S
C908 C909 1.373 . S
C908 C912 1.308 . S
C909 C908 1.373 . S
C909 C910 1.429 . S
C909 H936 0.932 . S
C910 C907 1.358 . S
C910 C909 1.429 . S
C910 H937 0.930 . S
C911 C907 1.332 . S
C911 C912 1.394 . S
C911 H938 0.932 . S
C912 C908 1.308 . S
C912 C911 1.394 . S
C912 H939 0.929 . S
C913 Tb904 2.764 . S
C913 C907 1.504 . S
C913 O925 1.239 . S
C913 O926 1.263 . S
O914 Tb904 2.325 . S
O914 C924 1.236 . S
O915 Tb905 2.322 . S
O915 C924 1.257 . S
O916 Tb905 2.349 . S
O916 C927 1.261 . S
O917 Tb904 2.303 . S
O917 C927 1.257 . S
O918 Tb905 2.415 . S
O918 C934 1.239 . S
O919 Tb905 2.399 . S
O919 C934 1.263 . S
O920 Tb905 2.325 . S
O920 C935 1.236 . S
O921 Tb904 2.322 . S
O921 C935 1.257 . S
O922 Tb904 2.349 . S
O922 C906 1.261 . S
O923 Tb905 2.303 . S
O923 C906 1.257 . S
C924 O914 1.236 . S
C924 O915 1.257 . S
O925 Tb904 2.415 . S
O925 C913 1.239 . S
O926 Tb904 2.399 . S
O926 C913 1.263 . S
C927 O916 1.261 . S
C927 O917 1.257 . S
C928 C931 1.358 . S
C928 C932 1.332 . S
C928 C934 1.504 . S
C929 C930 1.373 . S
C929 C933 1.308 . S
C930 C929 1.373 . S
C930 C931 1.429 . S
C930 H940 0.932 . S
C931 C928 1.358 . S
C931 C930 1.429 . S
C931 H941 0.930 . S
C932 C928 1.332 . S
C932 C933 1.394 . S
C932 H942 0.932 . S
C933 C929 1.308 . S
C933 C932 1.394 . S
C933 H943 0.929 . S
C934 Tb905 2.764 . S
C934 O918 1.239 . S
C934 O919 1.263 . S
C934 C928 1.504 . S
C935 O920 1.236 . S
C935 O921 1.257 . S
H936 C909 0.932 . S
H937 C910 0.930 . S
H938 C911 0.932 . S
H939 C912 0.929 . S
H940 C930 0.932 . S
H941 C931 0.930 . S
H942 C932 0.932 . S
H943 C933 0.929 . S
Tb944 C953 2.764 . S
Tb944 O954 2.325 . S
Tb944 O957 2.303 . S
Tb944 O961 2.322 1_545 S
Tb944 O962 2.349 . S
Tb944 O965 2.415 . S
Tb944 O966 2.399 . S
Tb945 O955 2.322 . S
Tb945 O956 2.349 . S
Tb945 O958 2.415 . S
Tb945 O959 2.399 . S
Tb945 O960 2.325 . S
Tb945 O963 2.303 . S
Tb945 C974 2.764 . S
C946 O962 1.261 . S
C946 O963 1.257 . S
C947 C950 1.358 . S
C947 C951 1.332 . S
C947 C953 1.504 . S
C948 C949 1.373 . S
C948 C952 1.308 . S
C949 C948 1.373 . S
C949 C950 1.429 . S
C949 H976 0.932 . S
C950 C947 1.358 . S
C950 C949 1.429 . S
C950 H977 0.930 . S
C951 C947 1.332 . S
C951 C952 1.394 . S
C951 H978 0.932 . S
C952 C948 1.308 . S
C952 C951 1.394 . S
C952 H979 0.929 . S
C953 Tb944 2.764 . S
C953 C947 1.504 . S
C953 O965 1.239 . S
C953 O966 1.263 . S
O954 Tb944 2.325 . S
O954 C964 1.236 . S
O955 Tb945 2.322 . S
O955 C964 1.257 . S
O956 Tb945 2.349 . S
O956 C967 1.261 . S
O957 Tb944 2.303 . S
O957 C967 1.257 . S
O958 Tb945 2.415 . S
O958 C974 1.239 . S
O959 Tb945 2.399 . S
O959 C974 1.263 . S
O960 Tb945 2.325 . S
O960 C975 1.236 1_545 S
O961 Tb944 2.322 1_565 S
O961 C975 1.257 . S
O962 Tb944 2.349 . S
O962 C946 1.261 . S
O963 Tb945 2.303 . S
O963 C946 1.257 . S
C964 O954 1.236 . S
C964 O955 1.257 . S
O965 Tb944 2.415 . S
O965 C953 1.239 . S
O966 Tb944 2.399 . S
O966 C953 1.263 . S
C967 O956 1.261 . S
C967 O957 1.257 . S
C968 C971 1.358 . S
C968 C972 1.332 1_545 S
C968 C974 1.504 . S
C969 C970 1.373 . S
C969 C973 1.308 . S
C970 C969 1.373 . S
C970 C971 1.429 1_565 S
C970 H980 0.931 1_565 S
C971 C968 1.358 . S
C971 C970 1.429 1_545 S
C971 H981 0.930 . S
C972 C968 1.332 1_565 S
C972 C973 1.394 . S
C972 H982 0.932 . S
C973 C969 1.308 . S
C973 C972 1.394 . S
C973 H983 0.929 . S
C974 Tb945 2.764 . S
C974 O958 1.239 . S
C974 O959 1.263 . S
C974 C968 1.504 . S
C975 O960 1.236 1_565 S
C975 O961 1.257 . S
H976 C949 0.932 . S
H977 C950 0.930 . S
H978 C951 0.932 . S
H979 C952 0.929 . S
H980 C970 0.931 1_545 S
H981 C971 0.930 . S
H982 C972 0.932 . S
H983 C973 0.929 . S
Tb984 C993 2.764 . S
Tb984 O994 2.325 . S
Tb984 O997 2.303 . S
Tb984 O1001 2.322 . S
Tb984 O1002 2.349 . S
Tb984 O1005 2.415 . S
Tb984 O1006 2.399 . S
Tb985 O995 2.322 . S
Tb985 O996 2.349 . S
Tb985 O998 2.415 . S
Tb985 O999 2.399 . S
Tb985 O1000 2.325 . S
Tb985 O1003 2.303 . S
Tb985 C1014 2.764 . S
C986 O1002 1.261 . S
C986 O1003 1.257 . S
C987 C990 1.358 . S
C987 C991 1.332 . S
C987 C993 1.504 . S
C988 C989 1.373 . S
C988 C992 1.308 . S
C989 C988 1.373 . S
C989 C990 1.429 . S
C989 H1016 0.932 . S
C990 C987 1.358 . S
C990 C989 1.429 . S
C990 H1017 0.930 . S
C991 C987 1.332 . S
C991 C992 1.394 . S
C991 H1018 0.932 . S
C992 C988 1.308 . S
C992 C991 1.394 . S
C992 H1019 0.929 . S
C993 Tb984 2.764 . S
C993 C987 1.504 . S
C993 O1005 1.239 . S
C993 O1006 1.263 . S
O994 Tb984 2.325 . S
O994 C1004 1.236 . S
O995 Tb985 2.322 . S
O995 C1004 1.257 . S
O996 Tb985 2.349 . S
O996 C1007 1.261 . S
O997 Tb984 2.303 . S
O997 C1007 1.257 . S
O998 Tb985 2.415 . S
O998 C1014 1.239 . S
O999 Tb985 2.399 . S
O999 C1014 1.263 . S
O1000 Tb985 2.325 . S
O1000 C1015 1.236 . S
O1001 Tb984 2.322 . S
O1001 C1015 1.257 . S
O1002 Tb984 2.349 . S
O1002 C986 1.261 . S
O1003 Tb985 2.303 . S
O1003 C986 1.257 . S
C1004 O994 1.236 . S
C1004 O995 1.257 . S
O1005 Tb984 2.415 . S
O1005 C993 1.239 . S
O1006 Tb984 2.399 . S
O1006 C993 1.263 . S
C1007 O996 1.261 . S
C1007 O997 1.257 . S
C1008 C1011 1.358 . S
C1008 C1012 1.332 . S
C1008 C1014 1.504 . S
C1009 C1010 1.373 . S
C1009 C1013 1.308 . S
C1010 C1009 1.373 . S
C1010 C1011 1.429 . S
C1010 H1020 0.932 . S
C1011 C1008 1.358 . S
C1011 C1010 1.429 . S
C1011 H1021 0.930 . S
C1012 C1008 1.332 . S
C1012 C1013 1.394 . S
C1012 H1022 0.932 . S
C1013 C1009 1.308 . S
C1013 C1012 1.394 . S
C1013 H1023 0.929 . S
C1014 Tb985 2.764 . S
C1014 O998 1.239 . S
C1014 O999 1.263 . S
C1014 C1008 1.504 . S
C1015 O1000 1.236 . S
C1015 O1001 1.257 . S
H1016 C989 0.932 . S
H1017 C990 0.930 . S
H1018 C991 0.932 . S
H1019 C992 0.929 . S
H1020 C1010 0.932 . S
H1021 C1011 0.930 . S
H1022 C1012 0.932 . S
H1023 C1013 0.929 . S
Tb1024 C1033 2.764 . S
Tb1024 O1034 2.325 . S
Tb1024 O1037 2.303 . S
Tb1024 O1041 2.322 . S
Tb1024 O1042 2.349 . S
Tb1024 O1045 2.415 . S
Tb1024 O1046 2.399 . S
Tb1025 O1035 2.322 1_545 S
Tb1025 O1036 2.349 . S
Tb1025 O1038 2.415 . S
Tb1025 O1039 2.399 . S
Tb1025 O1040 2.325 . S
Tb1025 O1043 2.303 . S
Tb1025 C1054 2.764 . S
C1026 O1042 1.261 1_655 S
C1026 O1043 1.257 1_655 S
C1027 C1030 1.358 . S
C1027 C1031 1.332 . S
C1027 C1033 1.504 . S
C1028 C1029 1.373 . S
C1028 C1032 1.308 . S
C1029 C1028 1.373 . S
C1029 C1030 1.429 . S
C1029 H1056 0.932 . S
C1030 C1027 1.358 . S
C1030 C1029 1.429 . S
C1030 H1057 0.930 . S
C1031 C1027 1.332 . S
C1031 C1032 1.394 . S
C1031 H1058 0.932 . S
C1032 C1028 1.308 . S
C1032 C1031 1.394 . S
C1032 H1059 0.929 . S
C1033 Tb1024 2.764 . S
C1033 C1027 1.504 . S
C1033 O1045 1.239 . S
C1033 O1046 1.263 . S
O1034 Tb1024 2.325 . S
O1034 C1044 1.236 1_545 S
O1035 Tb1025 2.322 1_565 S
O1035 C1044 1.257 . S
O1036 Tb1025 2.349 . S
O1036 C1047 1.261 . S
O1037 Tb1024 2.303 . S
O1037 C1047 1.257 . S
O1038 Tb1025 2.415 . S
O1038 C1054 1.239 . S
O1039 Tb1025 2.399 . S
O1039 C1054 1.263 . S
O1040 Tb1025 2.325 . S
O1040 C1055 1.236 . S
O1041 Tb1024 2.322 . S
O1041 C1055 1.257 . S
O1042 Tb1024 2.349 . S
O1042 C1026 1.261 1_455 S
O1043 Tb1025 2.303 . S
O1043 C1026 1.257 1_455 S
C1044 O1034 1.236 1_565 S
C1044 O1035 1.257 . S
O1045 Tb1024 2.415 . S
O1045 C1033 1.239 . S
O1046 Tb1024 2.399 . S
O1046 C1033 1.263 . S
C1047 O1036 1.261 . S
C1047 O1037 1.257 . S
C1048 C1051 1.358 . S
C1048 C1052 1.332 1_455 S
C1048 C1054 1.504 . S
C1049 C1050 1.373 . S
C1049 C1053 1.308 1_455 S
C1050 C1049 1.373 . S
C1050 C1051 1.429 . S
C1050 H1060 0.932 . S
C1051 C1048 1.358 . S
C1051 C1050 1.429 . S
C1051 H1061 0.930 . S
C1052 C1048 1.332 1_655 S
C1052 C1053 1.394 . S
C1052 H1062 0.932 . S
C1053 C1049 1.308 1_655 S
C1053 C1052 1.394 . S
C1053 H1063 0.929 . S
C1054 Tb1025 2.764 . S
C1054 O1038 1.239 . S
C1054 O1039 1.263 . S
C1054 C1048 1.504 . S
C1055 O1040 1.236 . S
C1055 O1041 1.257 . S
H1056 C1029 0.932 . S
H1057 C1030 0.930 . S
H1058 C1031 0.932 . S
H1059 C1032 0.929 . S
H1060 C1050 0.932 . S
H1061 C1051 0.930 . S
H1062 C1052 0.932 . S
H1063 C1053 0.929 . S
Tb1064 C1073 2.764 . S
Tb1064 O1074 2.325 . S
Tb1064 O1077 2.303 . S
Tb1064 O1081 2.322 . S
Tb1064 O1082 2.349 . S
Tb1064 O1085 2.415 . S
Tb1064 O1086 2.399 . S
Tb1065 O1075 2.322 . S
Tb1065 O1076 2.349 . S
Tb1065 O1078 2.415 . S
Tb1065 O1079 2.399 . S
Tb1065 O1080 2.325 . S
Tb1065 O1083 2.303 . S
Tb1065 C1094 2.764 . S
C1066 O1082 1.261 . S
C1066 O1083 1.257 . S
C1067 C1070 1.358 . S
C1067 C1071 1.332 . S
C1067 C1073 1.504 . S
C1068 C1069 1.373 . S
C1068 C1072 1.308 . S
C1069 C1068 1.373 . S
C1069 C1070 1.429 . S
C1069 H1096 0.932 . S
C1070 C1067 1.358 . S
C1070 C1069 1.429 . S
C1070 H1097 0.930 . S
C1071 C1067 1.332 . S
C1071 C1072 1.394 . S
C1071 H1098 0.932 . S
C1072 C1068 1.308 . S
C1072 C1071 1.394 . S
C1072 H1099 0.929 . S
C1073 Tb1064 2.764 . S
C1073 C1067 1.504 . S
C1073 O1085 1.239 . S
C1073 O1086 1.263 . S
O1074 Tb1064 2.325 . S
O1074 C1084 1.236 . S
O1075 Tb1065 2.322 . S
O1075 C1084 1.257 . S
O1076 Tb1065 2.349 . S
O1076 C1087 1.261 . S
O1077 Tb1064 2.303 . S
O1077 C1087 1.257 . S
O1078 Tb1065 2.415 . S
O1078 C1094 1.239 . S
O1079 Tb1065 2.399 . S
O1079 C1094 1.263 . S
O1080 Tb1065 2.325 . S
O1080 C1095 1.236 . S
O1081 Tb1064 2.322 . S
O1081 C1095 1.257 . S
O1082 Tb1064 2.349 . S
O1082 C1066 1.261 . S
O1083 Tb1065 2.303 . S
O1083 C1066 1.257 . S
C1084 O1074 1.236 . S
C1084 O1075 1.257 . S
O1085 Tb1064 2.415 . S
O1085 C1073 1.239 . S
O1086 Tb1064 2.399 . S
O1086 C1073 1.263 . S
C1087 O1076 1.261 . S
C1087 O1077 1.257 . S
C1088 C1091 1.358 . S
C1088 C1092 1.332 . S
C1088 C1094 1.504 . S
C1089 C1090 1.373 . S
C1089 C1093 1.308 . S
C1090 C1089 1.373 . S
C1090 C1091 1.429 . S
C1090 H1100 0.932 . S
C1091 C1088 1.358 . S
C1091 C1090 1.429 . S
C1091 H1101 0.930 . S
C1092 C1088 1.332 . S
C1092 C1093 1.394 . S
C1092 H1102 0.932 . S
C1093 C1089 1.308 . S
C1093 C1092 1.394 . S
C1093 H1103 0.929 . S
C1094 Tb1065 2.764 . S
C1094 O1078 1.239 . S
C1094 O1079 1.263 . S
C1094 C1088 1.504 . S
C1095 O1080 1.236 . S
C1095 O1081 1.257 . S
H1096 C1069 0.932 . S
H1097 C1070 0.930 . S
H1098 C1071 0.932 . S
H1099 C1072 0.929 . S
H1100 C1090 0.932 . S
H1101 C1091 0.930 . S
H1102 C1092 0.932 . S
H1103 C1093 0.929 . S
Tb1104 C1113 2.764 . S
Tb1104 O1114 2.325 . S
Tb1104 O1117 2.303 . S
Tb1104 O1121 2.322 1_545 S
Tb1104 O1122 2.349 . S
Tb1104 O1125 2.415 . S
Tb1104 O1126 2.399 . S
Tb1105 O1115 2.322 . S
Tb1105 O1116 2.349 . S
Tb1105 O1118 2.415 1_554 S
Tb1105 O1119 2.399 1_554 S
Tb1105 O1120 2.325 . S
Tb1105 O1123 2.303 . S
Tb1105 C1134 2.764 1_554 S
C1106 O1122 1.261 . S
C1106 O1123 1.257 . S
C1107 C1110 1.358 . S
C1107 C1111 1.332 . S
C1107 C1113 1.504 . S
C1108 C1109 1.373 . S
C1108 C1112 1.308 . S
C1109 C1108 1.373 . S
C1109 C1110 1.429 . S
C1109 H1136 0.932 . S
C1110 C1107 1.358 . S
C1110 C1109 1.429 . S
C1110 H1137 0.930 . S
C1111 C1107 1.332 . S
C1111 C1112 1.394 . S
C1111 H1138 0.932 . S
C1112 C1108 1.308 . S
C1112 C1111 1.394 . S
C1112 H1139 0.929 . S
C1113 Tb1104 2.764 . S
C1113 C1107 1.504 . S
C1113 O1125 1.239 . S
C1113 O1126 1.263 . S
O1114 Tb1104 2.325 . S
O1114 C1124 1.236 . S
O1115 Tb1105 2.322 . S
O1115 C1124 1.257 . S
O1116 Tb1105 2.349 . S
O1116 C1127 1.261 . S
O1117 Tb1104 2.303 . S
O1117 C1127 1.257 . S
O1118 Tb1105 2.415 1_556 S
O1118 C1134 1.239 . S
O1119 Tb1105 2.399 1_556 S
O1119 C1134 1.263 . S
O1120 Tb1105 2.325 . S
O1120 C1135 1.234 1_545 S
O1121 Tb1104 2.322 1_565 S
O1121 C1135 1.257 . S
O1122 Tb1104 2.349 . S
O1122 C1106 1.261 . S
O1123 Tb1105 2.303 . S
O1123 C1106 1.257 . S
C1124 O1114 1.236 . S
C1124 O1115 1.257 . S
O1125 Tb1104 2.415 . S
O1125 C1113 1.239 . S
O1126 Tb1104 2.399 . S
O1126 C1113 1.263 . S
C1127 O1116 1.261 . S
C1127 O1117 1.257 . S
C1128 C1131 1.358 . S
C1128 C1132 1.332 . S
C1128 C1134 1.504 . S
C1129 C1130 1.373 . S
C1129 C1133 1.308 . S
C1130 C1129 1.373 . S
C1130 C1131 1.429 . S
C1130 H1140 0.932 . S
C1131 C1128 1.358 . S
C1131 C1130 1.429 . S
C1131 H1141 0.930 . S
C1132 C1128 1.332 . S
C1132 C1133 1.394 . S
C1132 H1142 0.932 . S
C1133 C1129 1.308 . S
C1133 C1132 1.394 . S
C1133 H1143 0.929 . S
C1134 Tb1105 2.764 1_556 S
C1134 O1118 1.239 . S
C1134 O1119 1.263 . S
C1134 C1128 1.504 . S
C1135 O1120 1.234 1_565 S
C1135 O1121 1.257 . S
H1136 C1109 0.932 . S
H1137 C1110 0.930 . S
H1138 C1111 0.932 . S
H1139 C1112 0.929 . S
H1140 C1130 0.932 . S
H1141 C1131 0.930 . S
H1142 C1132 0.932 . S
H1143 C1133 0.929 . S
Tb1144 C1153 2.764 . S
Tb1144 O1154 2.325 . S
Tb1144 O1157 2.303 . S
Tb1144 O1161 2.322 . S
Tb1144 O1162 2.349 . S
Tb1144 O1165 2.415 . S
Tb1144 O1166 2.399 . S
Tb1145 O1155 2.322 . S
Tb1145 O1156 2.349 . S
Tb1145 O1158 2.415 . S
Tb1145 O1159 2.399 . S
Tb1145 O1160 2.325 . S
Tb1145 O1163 2.303 . S
Tb1145 C1174 2.764 . S
C1146 O1162 1.261 . S
C1146 O1163 1.257 . S
C1147 C1150 1.358 . S
C1147 C1151 1.332 . S
C1147 C1153 1.504 . S
C1148 C1149 1.373 . S
C1148 C1152 1.308 . S
C1149 C1148 1.373 . S
C1149 C1150 1.429 . S
C1149 H1176 0.932 . S
C1150 C1147 1.358 . S
C1150 C1149 1.429 . S
C1150 H1177 0.930 . S
C1151 C1147 1.332 . S
C1151 C1152 1.394 . S
C1151 H1178 0.932 . S
C1152 C1148 1.308 . S
C1152 C1151 1.394 . S
C1152 H1179 0.929 . S
C1153 Tb1144 2.764 . S
C1153 C1147 1.504 . S
C1153 O1165 1.239 . S
C1153 O1166 1.263 . S
O1154 Tb1144 2.325 . S
O1154 C1164 1.236 . S
O1155 Tb1145 2.322 . S
O1155 C1164 1.257 . S
O1156 Tb1145 2.349 . S
O1156 C1167 1.261 . S
O1157 Tb1144 2.303 . S
O1157 C1167 1.257 . S
O1158 Tb1145 2.415 . S
O1158 C1174 1.239 . S
O1159 Tb1145 2.399 . S
O1159 C1174 1.263 . S
O1160 Tb1145 2.325 . S
O1160 C1175 1.236 . S
O1161 Tb1144 2.322 . S
O1161 C1175 1.257 . S
O1162 Tb1144 2.349 . S
O1162 C1146 1.261 . S
O1163 Tb1145 2.303 . S
O1163 C1146 1.257 . S
C1164 O1154 1.236 . S
C1164 O1155 1.257 . S
O1165 Tb1144 2.415 . S
O1165 C1153 1.239 . S
O1166 Tb1144 2.399 . S
O1166 C1153 1.263 . S
C1167 O1156 1.261 . S
C1167 O1157 1.257 . S
C1168 C1171 1.358 . S
C1168 C1172 1.332 . S
C1168 C1174 1.504 . S
C1169 C1170 1.373 . S
C1169 C1173 1.308 . S
C1170 C1169 1.373 . S
C1170 C1171 1.429 . S
C1170 H1180 0.932 . S
C1171 C1168 1.358 . S
C1171 C1170 1.429 . S
C1171 H1181 0.930 . S
C1172 C1168 1.332 . S
C1172 C1173 1.394 . S
C1172 H1182 0.932 . S
C1173 C1169 1.308 . S
C1173 C1172 1.394 . S
C1173 H1183 0.929 . S
C1174 Tb1145 2.764 . S
C1174 O1158 1.239 . S
C1174 O1159 1.263 . S
C1174 C1168 1.504 . S
C1175 O1160 1.236 . S
C1175 O1161 1.257 . S
H1176 C1149 0.932 . S
H1177 C1150 0.930 . S
H1178 C1151 0.932 . S
H1179 C1152 0.929 . S
H1180 C1170 0.932 . S
H1181 C1171 0.930 . S
H1182 C1172 0.932 . S
H1183 C1173 0.929 . S
Tb1184 C1193 2.764 . S
Tb1184 O1194 2.325 . S
Tb1184 O1197 2.303 . S
Tb1184 O1201 2.322 . S
Tb1184 O1202 2.349 . S
Tb1184 O1205 2.415 . S
Tb1184 O1206 2.399 . S
Tb1185 O1195 2.322 . S
Tb1185 O1196 2.349 . S
Tb1185 O1198 2.415 1_554 S
Tb1185 O1199 2.399 1_554 S
Tb1185 O1200 2.325 . S
Tb1185 O1203 2.303 . S
Tb1185 C1214 2.764 1_554 S
C1186 O1202 1.261 . S
C1186 O1203 1.257 . S
C1187 C1190 1.358 . S
C1187 C1191 1.332 . S
C1187 C1193 1.504 . S
C1188 C1189 1.373 . S
C1188 C1192 1.308 . S
C1189 C1188 1.373 . S
C1189 C1190 1.429 . S
C1189 H1216 0.932 . S
C1190 C1187 1.358 . S
C1190 C1189 1.429 . S
C1190 H1217 0.930 . S
C1191 C1187 1.332 . S
C1191 C1192 1.394 . S
C1191 H1218 0.932 . S
C1192 C1188 1.308 . S
C1192 C1191 1.394 . S
C1192 H1219 0.929 . S
C1193 Tb1184 2.764 . S
C1193 C1187 1.504 . S
C1193 O1205 1.239 . S
C1193 O1206 1.263 . S
O1194 Tb1184 2.325 . S
O1194 C1204 1.236 . S
O1195 Tb1185 2.322 . S
O1195 C1204 1.257 . S
O1196 Tb1185 2.349 . S
O1196 C1207 1.261 . S
O1197 Tb1184 2.303 . S
O1197 C1207 1.257 . S
O1198 Tb1185 2.415 1_556 S
O1198 C1214 1.239 . S
O1199 Tb1185 2.399 1_556 S
O1199 C1214 1.263 . S
O1200 Tb1185 2.325 . S
O1200 C1215 1.236 . S
O1201 Tb1184 2.322 . S
O1201 C1215 1.257 . S
O1202 Tb1184 2.349 . S
O1202 C1186 1.261 . S
O1203 Tb1185 2.303 . S
O1203 C1186 1.257 . S
C1204 O1194 1.236 . S
C1204 O1195 1.257 . S
O1205 Tb1184 2.415 . S
O1205 C1193 1.239 . S
O1206 Tb1184 2.399 . S
O1206 C1193 1.263 . S
C1207 O1196 1.261 . S
C1207 O1197 1.257 . S
C1208 C1211 1.358 . S
C1208 C1212 1.332 . S
C1208 C1214 1.504 . S
C1209 C1210 1.373 . S
C1209 C1213 1.308 . S
C1210 C1209 1.373 . S
C1210 C1211 1.429 . S
C1210 H1220 0.932 . S
C1211 C1208 1.358 . S
C1211 C1210 1.429 . S
C1211 H1221 0.930 . S
C1212 C1208 1.332 . S
C1212 C1213 1.394 . S
C1212 H1222 0.932 . S
C1213 C1209 1.308 . S
C1213 C1212 1.394 . S
C1213 H1223 0.929 . S
C1214 Tb1185 2.764 1_556 S
C1214 O1198 1.239 . S
C1214 O1199 1.263 . S
C1214 C1208 1.504 . S
C1215 O1200 1.236 . S
C1215 O1201 1.257 . S
H1216 C1189 0.932 . S
H1217 C1190 0.930 . S
H1218 C1191 0.932 . S
H1219 C1192 0.929 . S
H1220 C1210 0.932 . S
H1221 C1211 0.930 . S
H1222 C1212 0.932 . S
H1223 C1213 0.929 . S
Tb1224 C1233 2.764 . S
Tb1224 O1234 2.325 . S
Tb1224 O1237 2.303 . S
Tb1224 O1241 2.322 . S
Tb1224 O1242 2.349 . S
Tb1224 O1245 2.415 . S
Tb1224 O1246 2.399 . S
Tb1225 O1235 2.322 . S
Tb1225 O1236 2.349 . S
Tb1225 O1238 2.415 . S
Tb1225 O1239 2.399 . S
Tb1225 O1240 2.325 . S
Tb1225 O1243 2.303 . S
Tb1225 C1254 2.764 . S
C1226 O1242 1.261 . S
C1226 O1243 1.257 . S
C1227 C1230 1.358 . S
C1227 C1231 1.332 . S
C1227 C1233 1.504 . S
C1228 C1229 1.373 . S
C1228 C1232 1.308 . S
C1229 C1228 1.373 . S
C1229 C1230 1.429 . S
C1229 H1256 0.932 . S
C1230 C1227 1.358 . S
C1230 C1229 1.429 . S
C1230 H1257 0.930 . S
C1231 C1227 1.332 . S
C1231 C1232 1.394 . S
C1231 H1258 0.932 . S
C1232 C1228 1.308 . S
C1232 C1231 1.394 . S
C1232 H1259 0.929 . S
C1233 Tb1224 2.764 . S
C1233 C1227 1.504 . S
C1233 O1245 1.239 . S
C1233 O1246 1.263 . S
O1234 Tb1224 2.325 . S
O1234 C1244 1.236 . S
O1235 Tb1225 2.322 . S
O1235 C1244 1.257 . S
O1236 Tb1225 2.349 . S
O1236 C1247 1.261 . S
O1237 Tb1224 2.303 . S
O1237 C1247 1.257 . S
O1238 Tb1225 2.415 . S
O1238 C1254 1.239 . S
O1239 Tb1225 2.399 . S
O1239 C1254 1.263 . S
O1240 Tb1225 2.325 . S
O1240 C1255 1.236 . S
O1241 Tb1224 2.322 . S
O1241 C1255 1.257 . S
O1242 Tb1224 2.349 . S
O1242 C1226 1.261 . S
O1243 Tb1225 2.303 . S
O1243 C1226 1.257 . S
C1244 O1234 1.236 . S
C1244 O1235 1.257 . S
O1245 Tb1224 2.415 . S
O1245 C1233 1.239 . S
O1246 Tb1224 2.399 . S
O1246 C1233 1.263 . S
C1247 O1236 1.261 . S
C1247 O1237 1.257 . S
C1248 C1251 1.358 . S
C1248 C1252 1.332 . S
C1248 C1254 1.504 . S
C1249 C1250 1.373 . S
C1249 C1253 1.308 . S
C1250 C1249 1.373 . S
C1250 C1251 1.429 . S
C1250 H1260 0.932 . S
C1251 C1248 1.358 . S
C1251 C1250 1.429 . S
C1251 H1261 0.930 . S
C1252 C1248 1.332 . S
C1252 C1253 1.394 . S
C1252 H1262 0.932 . S
C1253 C1249 1.308 . S
C1253 C1252 1.394 . S
C1253 H1263 0.929 . S
C1254 Tb1225 2.764 . S
C1254 O1238 1.239 . S
C1254 O1239 1.263 . S
C1254 C1248 1.504 . S
C1255 O1240 1.236 . S
C1255 O1241 1.257 . S
H1256 C1229 0.932 . S
H1257 C1230 0.930 . S
H1258 C1231 0.932 . S
H1259 C1232 0.929 . S
H1260 C1250 0.932 . S
H1261 C1251 0.930 . S
H1262 C1252 0.932 . S
H1263 C1253 0.929 . S
Tb1264 C1273 2.764 . S
Tb1264 O1274 2.325 . S
Tb1264 O1277 2.303 . S
Tb1264 O1281 2.322 . S
Tb1264 O1282 2.349 . S
Tb1264 O1285 2.415 . S
Tb1264 O1286 2.399 . S
Tb1265 O1275 2.322 . S
Tb1265 O1276 2.349 . S
Tb1265 O1278 2.415 . S
Tb1265 O1279 2.399 . S
Tb1265 O1280 2.325 . S
Tb1265 O1283 2.303 . S
Tb1265 C1294 2.764 . S
C1266 O1282 1.261 . S
C1266 O1283 1.257 . S
C1267 C1270 1.358 . S
C1267 C1271 1.332 . S
C1267 C1273 1.504 . S
C1268 C1269 1.373 . S
C1268 C1272 1.308 1_455 S
C1269 C1268 1.373 . S
C1269 C1270 1.429 . S
C1269 H1296 0.932 . S
C1270 C1267 1.358 . S
C1270 C1269 1.429 . S
C1270 H1297 0.930 . S
C1271 C1267 1.332 . S
C1271 C1272 1.394 1_455 S
C1271 H1298 0.932 1_455 S
C1272 C1268 1.308 1_655 S
C1272 C1271 1.394 1_655 S
C1272 H1299 0.929 . S
C1273 Tb1264 2.764 . S
C1273 C1267 1.504 . S
C1273 O1285 1.239 . S
C1273 O1286 1.263 . S
O1274 Tb1264 2.325 . S
O1274 C1284 1.236 . S
O1275 Tb1265 2.322 . S
O1275 C1284 1.257 . S
O1276 Tb1265 2.349 . S
O1276 C1287 1.262 . S
O1277 Tb1264 2.303 . S
O1277 C1287 1.265 . S
O1278 Tb1265 2.415 . S
O1278 C1294 1.239 . S
O1279 Tb1265 2.399 . S
O1279 C1294 1.263 . S
O1280 Tb1265 2.325 . S
O1280 C1295 1.236 . S
O1281 Tb1264 2.322 . S
O1281 C1295 1.257 . S
O1282 Tb1264 2.349 . S
O1282 C1266 1.261 . S
O1283 Tb1265 2.303 . S
O1283 C1266 1.257 . S
C1284 O1274 1.236 . S
C1284 O1275 1.257 . S
O1285 Tb1264 2.415 . S
O1285 C1273 1.239 . S
O1286 Tb1264 2.399 . S
O1286 C1273 1.263 . S
C1287 O1276 1.262 . S
C1287 O1277 1.265 . S
C1288 C1291 1.358 . S
C1288 C1292 1.332 . S
C1288 C1294 1.504 . S
C1289 C1290 1.373 . S
C1289 C1293 1.308 . S
C1290 C1289 1.373 . S
C1290 C1291 1.429 . S
C1290 H1300 0.932 . S
C1291 C1288 1.358 . S
C1291 C1290 1.429 . S
C1291 H1301 0.930 . S
C1292 C1288 1.332 . S
C1292 C1293 1.394 . S
C1292 H1302 0.932 . S
C1293 C1289 1.308 . S
C1293 C1292 1.394 . S
C1293 H1303 0.929 . S
C1294 Tb1265 2.764 . S
C1294 O1278 1.239 . S
C1294 O1279 1.263 . S
C1294 C1288 1.504 . S
C1295 O1280 1.236 . S
C1295 O1281 1.257 . S
H1296 C1269 0.932 . S
H1297 C1270 0.930 . S
H1298 C1271 0.932 1_655 S
H1299 C1272 0.929 . S
H1300 C1290 0.932 . S
H1301 C1291 0.930 . S
H1302 C1292 0.932 . S
H1303 C1293 0.929 . S
Tb1304 C1313 2.764 . S
Tb1304 O1314 2.325 . S
Tb1304 O1317 2.303 . S
Tb1304 O1321 2.322 . S
Tb1304 O1322 2.349 . S
Tb1304 O1325 2.415 . S
Tb1304 O1326 2.399 . S
Tb1305 O1315 2.322 . S
Tb1305 O1316 2.349 . S
Tb1305 O1318 2.415 . S
Tb1305 O1319 2.399 . S
Tb1305 O1320 2.325 . S
Tb1305 O1323 2.303 . S
Tb1305 C1334 2.764 . S
C1306 O1322 1.261 . S
C1306 O1323 1.257 . S
C1307 C1310 1.358 . S
C1307 C1311 1.332 . S
C1307 C1313 1.504 . S
C1308 C1309 1.373 . S
C1308 C1312 1.308 . S
C1309 C1308 1.373 . S
C1309 C1310 1.429 . S
C1309 H1336 0.932 . S
C1310 C1307 1.358 . S
C1310 C1309 1.429 . S
C1310 H1337 0.930 . S
C1311 C1307 1.332 . S
C1311 C1312 1.394 . S
C1311 H1338 0.932 . S
C1312 C1308 1.308 . S
C1312 C1311 1.394 . S
C1312 H1339 0.929 . S
C1313 Tb1304 2.764 . S
C1313 C1307 1.504 . S
C1313 O1325 1.239 . S
C1313 O1326 1.263 . S
O1314 Tb1304 2.325 . S
O1314 C1324 1.236 . S
O1315 Tb1305 2.322 . S
O1315 C1324 1.257 . S
O1316 Tb1305 2.349 . S
O1316 C1327 1.261 . S
O1317 Tb1304 2.303 . S
O1317 C1327 1.257 . S
O1318 Tb1305 2.415 . S
O1318 C1334 1.239 . S
O1319 Tb1305 2.399 . S
O1319 C1334 1.263 . S
O1320 Tb1305 2.325 . S
O1320 C1335 1.236 . S
O1321 Tb1304 2.322 . S
O1321 C1335 1.257 . S
O1322 Tb1304 2.349 . S
O1322 C1306 1.261 . S
O1323 Tb1305 2.303 . S
O1323 C1306 1.257 . S
C1324 O1314 1.236 . S
C1324 O1315 1.257 . S
O1325 Tb1304 2.415 . S
O1325 C1313 1.239 . S
O1326 Tb1304 2.399 . S
O1326 C1313 1.263 . S
C1327 O1316 1.261 . S
C1327 O1317 1.257 . S
C1328 C1331 1.358 . S
C1328 C1332 1.332 . S
C1328 C1334 1.504 . S
C1329 C1330 1.373 . S
C1329 C1333 1.308 . S
C1330 C1329 1.373 . S
C1330 C1331 1.429 . S
C1330 H1340 0.932 . S
C1331 C1328 1.358 . S
C1331 C1330 1.429 . S
C1331 H1341 0.930 . S
C1332 C1328 1.332 . S
C1332 C1333 1.394 . S
C1332 H1342 0.932 . S
C1333 C1329 1.308 . S
C1333 C1332 1.394 . S
C1333 H1343 0.929 . S
C1334 Tb1305 2.764 . S
C1334 O1318 1.239 . S
C1334 O1319 1.263 . S
C1334 C1328 1.504 . S
C1335 O1320 1.236 . S
C1335 O1321 1.257 . S
H1336 C1309 0.932 . S
H1337 C1310 0.930 . S
H1338 C1311 0.932 . S
H1339 C1312 0.929 . S
H1340 C1330 0.932 . S
H1341 C1331 0.930 . S
H1342 C1332 0.932 . S
H1343 C1333 0.929 . S
Tb1344 C1353 2.764 . S
Tb1344 O1354 2.325 . S
Tb1344 O1357 2.303 . S
Tb1344 O1361 2.322 . S
Tb1344 O1362 2.349 . S
Tb1344 O1365 2.415 . S
Tb1344 O1366 2.399 . S
Tb1345 O1355 2.322 . S
Tb1345 O1356 2.349 . S
Tb1345 O1358 2.415 . S
Tb1345 O1359 2.399 . S
Tb1345 O1360 2.325 . S
Tb1345 O1363 2.303 . S
Tb1345 C1374 2.764 . S
C1346 O1362 1.261 . S
C1346 O1363 1.257 . S
C1347 C1350 1.358 . S
C1347 C1351 1.332 . S
C1347 C1353 1.504 . S
C1348 C1349 1.373 . S
C1348 C1352 1.308 . S
C1349 C1348 1.373 . S
C1349 C1350 1.429 . S
C1349 H1376 0.932 . S
C1350 C1347 1.358 . S
C1350 C1349 1.429 . S
C1350 H1377 0.930 . S
C1351 C1347 1.332 . S
C1351 C1352 1.394 . S
C1351 H1378 0.932 . S
C1352 C1348 1.308 . S
C1352 C1351 1.394 . S
C1352 H1379 0.929 . S
C1353 Tb1344 2.764 . S
C1353 C1347 1.504 . S
C1353 O1365 1.239 . S
C1353 O1366 1.263 . S
O1354 Tb1344 2.325 . S
O1354 C1364 1.236 . S
O1355 Tb1345 2.322 . S
O1355 C1364 1.257 . S
O1356 Tb1345 2.349 . S
O1356 C1367 1.261 . S
O1357 Tb1344 2.303 . S
O1357 C1367 1.257 . S
O1358 Tb1345 2.415 . S
O1358 C1374 1.239 . S
O1359 Tb1345 2.399 . S
O1359 C1374 1.263 . S
O1360 Tb1345 2.325 . S
O1360 C1375 1.236 . S
O1361 Tb1344 2.322 . S
O1361 C1375 1.257 . S
O1362 Tb1344 2.349 . S
O1362 C1346 1.261 . S
O1363 Tb1345 2.303 . S
O1363 C1346 1.257 . S
C1364 O1354 1.236 . S
C1364 O1355 1.257 . S
O1365 Tb1344 2.415 . S
O1365 C1353 1.239 . S
O1366 Tb1344 2.399 . S
O1366 C1353 1.263 . S
C1367 O1356 1.261 . S
C1367 O1357 1.257 . S
C1368 C1371 1.358 . S
C1368 C1372 1.332 . S
C1368 C1374 1.504 . S
C1369 C1370 1.373 . S
C1369 C1373 1.308 . S
C1370 C1369 1.373 . S
C1370 C1371 1.429 . S
C1370 H1380 0.932 . S
C1371 C1368 1.358 . S
C1371 C1370 1.429 . S
C1371 H1381 0.930 . S
C1372 C1368 1.332 . S
C1372 C1373 1.394 . S
C1372 H1382 0.932 . S
C1373 C1369 1.308 . S
C1373 C1372 1.394 . S
C1373 H1383 0.929 . S
C1374 Tb1345 2.764 . S
C1374 O1358 1.239 . S
C1374 O1359 1.263 . S
C1374 C1368 1.504 . S
C1375 O1360 1.236 . S
C1375 O1361 1.257 . S
H1376 C1349 0.932 . S
H1377 C1350 0.930 . S
H1378 C1351 0.932 . S
H1379 C1352 0.929 . S
H1380 C1370 0.932 . S
H1381 C1371 0.930 . S
H1382 C1372 0.932 . S
H1383 C1373 0.929 . S
Tb1384 C1393 2.764 . S
Tb1384 O1394 2.325 . S
Tb1384 O1397 2.303 . S
Tb1384 O1401 2.322 . S
Tb1384 O1402 2.349 . S
Tb1384 O1405 2.415 . S
Tb1384 O1406 2.399 . S
Tb1385 O1395 2.322 . S
Tb1385 O1396 2.349 . S
Tb1385 O1398 2.415 . S
Tb1385 O1399 2.399 . S
Tb1385 O1400 2.325 . S
Tb1385 O1403 2.303 . S
Tb1385 C1414 2.764 . S
C1386 O1402 1.261 . S
C1386 O1403 1.257 . S
C1387 C1390 1.358 . S
C1387 C1391 1.332 . S
C1387 C1393 1.504 . S
C1388 C1389 1.373 . S
C1388 C1392 1.308 . S
C1389 C1388 1.373 . S
C1389 C1390 1.429 . S
C1389 H1416 0.932 . S
C1390 C1387 1.358 . S
C1390 C1389 1.429 . S
C1390 H1417 0.930 . S
C1391 C1387 1.332 . S
C1391 C1392 1.394 . S
C1391 H1418 0.932 . S
C1392 C1388 1.308 . S
C1392 C1391 1.394 . S
C1392 H1419 0.929 . S
C1393 Tb1384 2.764 . S
C1393 C1387 1.504 . S
C1393 O1405 1.239 . S
C1393 O1406 1.263 . S
O1394 Tb1384 2.325 . S
O1394 C1404 1.236 . S
O1395 Tb1385 2.322 . S
O1395 C1404 1.257 . S
O1396 Tb1385 2.349 . S
O1396 C1407 1.261 . S
O1397 Tb1384 2.303 . S
O1397 C1407 1.257 . S
O1398 Tb1385 2.415 . S
O1398 C1414 1.239 . S
O1399 Tb1385 2.399 . S
O1399 C1414 1.263 . S
O1400 Tb1385 2.325 . S
O1400 C1415 1.236 . S
O1401 Tb1384 2.322 . S
O1401 C1415 1.257 . S
O1402 Tb1384 2.349 . S
O1402 C1386 1.261 . S
O1403 Tb1385 2.303 . S
O1403 C1386 1.257 . S
C1404 O1394 1.236 . S
C1404 O1395 1.257 . S
O1405 Tb1384 2.415 . S
O1405 C1393 1.239 . S
O1406 Tb1384 2.399 . S
O1406 C1393 1.263 . S
C1407 O1396 1.261 . S
C1407 O1397 1.257 . S
C1408 C1411 1.358 . S
C1408 C1412 1.332 . S
C1408 C1414 1.504 . S
C1409 C1410 1.373 . S
C1409 C1413 1.308 . S
C1410 C1409 1.373 . S
C1410 C1411 1.429 . S
C1410 H1420 0.932 . S
C1411 C1408 1.358 . S
C1411 C1410 1.429 . S
C1411 H1421 0.930 . S
C1412 C1408 1.332 . S
C1412 C1413 1.394 . S
C1412 H1422 0.932 . S
C1413 C1409 1.308 . S
C1413 C1412 1.394 . S
C1413 H1423 0.929 . S
C1414 Tb1385 2.764 . S
C1414 O1398 1.239 . S
C1414 O1399 1.263 . S
C1414 C1408 1.504 . S
C1415 O1400 1.236 . S
C1415 O1401 1.257 . S
H1416 C1389 0.932 . S
H1417 C1390 0.930 . S
H1418 C1391 0.932 . S
H1419 C1392 0.929 . S
H1420 C1410 0.932 . S
H1421 C1411 0.930 . S
H1422 C1412 0.932 . S
H1423 C1413 0.929 . S
Tb1424 C1433 2.764 . S
Tb1424 O1434 2.325 . S
Tb1424 O1437 2.303 . S
Tb1424 O1441 2.322 . S
Tb1424 O1442 2.349 . S
Tb1424 O1445 2.415 . S
Tb1424 O1446 2.399 . S
Tb1425 O1435 2.322 . S
Tb1425 O1436 2.349 . S
Tb1425 O1438 2.415 . S
Tb1425 O1439 2.399 . S
Tb1425 O1440 2.325 . S
Tb1425 O1443 2.303 . S
Tb1425 C1454 2.764 . S
C1426 O1442 1.261 . S
C1426 O1443 1.257 . S
C1427 C1430 1.358 . S
C1427 C1431 1.332 . S
C1427 C1433 1.504 . S
C1428 C1429 1.373 . S
C1428 C1432 1.308 . S
C1429 C1428 1.373 . S
C1429 C1430 1.429 . S
C1429 H1456 0.932 . S
C1430 C1427 1.358 . S
C1430 C1429 1.429 . S
C1430 H1457 0.930 . S
C1431 C1427 1.332 . S
C1431 C1432 1.394 . S
C1431 H1458 0.932 . S
C1432 C1428 1.308 . S
C1432 C1431 1.394 . S
C1432 H1459 0.929 . S
C1433 Tb1424 2.764 . S
C1433 C1427 1.504 . S
C1433 O1445 1.239 . S
C1433 O1446 1.263 . S
O1434 Tb1424 2.325 . S
O1434 C1444 1.236 . S
O1435 Tb1425 2.322 . S
O1435 C1444 1.257 . S
O1436 Tb1425 2.349 . S
O1436 C1447 1.261 . S
O1437 Tb1424 2.303 . S
O1437 C1447 1.257 . S
O1438 Tb1425 2.415 . S
O1438 C1454 1.239 . S
O1439 Tb1425 2.399 . S
O1439 C1454 1.263 . S
O1440 Tb1425 2.325 . S
O1440 C1455 1.236 . S
O1441 Tb1424 2.322 . S
O1441 C1455 1.257 . S
O1442 Tb1424 2.349 . S
O1442 C1426 1.261 . S
O1443 Tb1425 2.303 . S
O1443 C1426 1.257 . S
C1444 O1434 1.236 . S
C1444 O1435 1.257 . S
O1445 Tb1424 2.415 . S
O1445 C1433 1.239 . S
O1446 Tb1424 2.399 . S
O1446 C1433 1.263 . S
C1447 O1436 1.261 . S
C1447 O1437 1.257 . S
C1448 C1451 1.358 . S
C1448 C1452 1.332 . S
C1448 C1454 1.504 . S
C1449 C1450 1.373 . S
C1449 C1453 1.308 . S
C1450 C1449 1.373 . S
C1450 C1451 1.429 . S
C1450 H1460 0.932 . S
C1451 C1448 1.358 . S
C1451 C1450 1.429 . S
C1451 H1461 0.930 . S
C1452 C1448 1.332 . S
C1452 C1453 1.394 . S
C1452 H1462 0.932 . S
C1453 C1449 1.308 . S
C1453 C1452 1.394 . S
C1453 H1463 0.929 . S
C1454 Tb1425 2.764 . S
C1454 O1438 1.239 . S
C1454 O1439 1.263 . S
C1454 C1448 1.504 . S
C1455 O1440 1.236 . S
C1455 O1441 1.257 . S
H1456 C1429 0.932 . S
H1457 C1430 0.930 . S
H1458 C1431 0.932 . S
H1459 C1432 0.929 . S
H1460 C1450 0.932 . S
H1461 C1451 0.930 . S
H1462 C1452 0.932 . S
H1463 C1453 0.929 . S
Tb1464 C1473 2.764 1_455 S
Tb1464 O1474 2.325 . S
Tb1464 O1477 2.303 . S
Tb1464 O1481 2.322 . S
Tb1464 O1482 2.349 . S
Tb1464 O1485 2.415 1_455 S
Tb1464 O1486 2.399 1_455 S
Tb1465 O1475 2.322 . S
Tb1465 O1476 2.349 1_554 S
Tb1465 O1478 2.415 . S
Tb1465 O1479 2.381 1_554 S
Tb1465 O1480 2.325 . S
Tb1465 O1483 2.303 . S
Tb1465 C1494 2.764 . S
C1466 O1482 1.261 . S
C1466 O1483 1.257 . S
C1467 C1470 1.358 . S
C1467 C1471 1.332 . S
C1467 C1473 1.504 . S
C1468 C1469 1.373 . S
C1468 C1472 1.308 . S
C1469 C1468 1.373 . S
C1469 C1470 1.429 . S
C1469 H1496 0.932 . S
C1470 C1467 1.358 . S
C1470 C1469 1.429 . S
C1470 H1497 0.930 . S
C1471 C1467 1.332 . S
C1471 C1472 1.394 . S
C1471 H1498 0.932 . S
C1472 C1468 1.308 . S
C1472 C1471 1.394 . S
C1472 H1499 0.929 . S
C1473 Tb1464 2.764 1_655 S
C1473 C1467 1.504 . S
C1473 O1485 1.239 . S
C1473 O1486 1.263 . S
O1474 Tb1464 2.325 . S
O1474 C1484 1.236 . S
O1475 Tb1465 2.322 . S
O1475 C1484 1.257 . S
O1476 Tb1465 2.349 1_556 S
O1476 C1487 1.261 . S
O1477 Tb1464 2.303 . S
O1477 C1487 1.257 1_554 S
O1478 Tb1465 2.415 . S
O1478 C1494 1.239 . S
O1479 Tb1465 2.381 1_556 S
O1479 C1494 1.239 1_556 S
O1480 Tb1465 2.325 . S
O1480 C1495 1.236 . S
O1481 Tb1464 2.322 . S
O1481 C1495 1.257 . S
O1482 Tb1464 2.349 . S
O1482 C1466 1.261 . S
O1483 Tb1465 2.303 . S
O1483 C1466 1.257 . S
C1484 O1474 1.236 . S
C1484 O1475 1.257 . S
O1485 Tb1464 2.415 1_655 S
O1485 C1473 1.239 . S
O1486 Tb1464 2.399 1_655 S
O1486 C1473 1.263 . S
C1487 O1476 1.261 . S
C1487 O1477 1.257 1_556 S
C1488 C1491 1.358 1_554 S
C1488 C1492 1.332 . S
C1488 C1494 1.504 . S
C1489 C1490 1.373 1_554 S
C1489 C1493 1.308 . S
C1490 C1489 1.373 1_556 S
C1490 C1491 1.429 . S
C1490 H1500 0.932 . S
C1491 C1488 1.358 1_556 S
C1491 C1490 1.429 . S
C1491 H1501 0.930 . S
C1492 C1488 1.332 . S
C1492 C1493 1.394 . S
C1492 H1502 0.932 . S
C1493 C1489 1.308 . S
C1493 C1492 1.394 . S
C1493 H1503 0.929 . S
C1494 Tb1465 2.764 . S
C1494 O1478 1.239 . S
C1494 O1479 1.239 1_554 S
C1494 C1488 1.504 . S
C1495 O1480 1.236 . S
C1495 O1481 1.257 . S
H1496 C1469 0.932 . S
H1497 C1470 0.930 . S
H1498 C1471 0.932 . S
H1499 C1472 0.929 . S
H1500 C1490 0.932 . S
H1501 C1491 0.930 . S
H1502 C1492 0.932 . S
H1503 C1493 0.929 . S
H1504 C1516 0.930 . S
H1505 C1518 0.930 . S
H1506 C1519 0.941 . S
H1507 C1523 0.959 . S
H1508 C1523 0.959 . S
H1509 C1523 0.961 . S
H1510 C1524 0.960 . S
H1511 C1524 0.961 . S
H1512 C1524 0.959 . S
H1513 C1527 0.929 . S
H1514 C1528 0.931 . S
H1515 C1530 0.930 . S
C1516 H1504 0.930 . S
C1516 C1517 1.399 . S
C1516 C1521 1.399 1_655 S
C1517 C1516 1.399 . S
C1517 C1518 1.376 1_655 S
C1518 H1505 0.930 . S
C1518 C1517 1.376 1_455 S
C1518 C1519 1.380 1_556 S
C1519 H1506 0.941 . S
C1519 C1518 1.380 1_554 S
C1519 C1520 1.387 1_554 S
C1520 C1519 1.387 1_556 S
C1520 C1521 1.394 . S
C1520 C1526 1.465 1_556 S
C1521 C1516 1.399 1_455 S
C1521 C1520 1.394 . S
C1521 C1522 1.516 . S
C1522 C1521 1.516 . S
C1522 C1523 1.502 1_455 S
C1522 C1524 1.561 . S
C1522 C1525 1.526 . S
C1523 H1507 0.959 . S
C1523 H1508 0.959 . S
C1523 H1509 0.961 . S
C1523 C1522 1.502 1_655 S
C1524 H1510 0.960 . S
C1524 H1511 0.961 . S
C1524 H1512 0.959 . S
C1524 C1522 1.561 . S
C1525 C1522 1.526 . S
C1525 C1526 1.396 1_556 S
C1525 C1530 1.390 . S
C1526 C1520 1.465 1_554 S
C1526 C1525 1.396 1_554 S
C1526 C1527 1.399 . S
C1527 H1513 0.929 . S
C1527 C1526 1.399 . S
C1527 C1528 1.385 . S
C1528 H1514 0.931 . S
C1528 C1527 1.385 . S
C1528 C1529 1.389 . S
C1529 C1528 1.389 . S
C1529 C1530 1.387 1_554 S
C1530 H1515 0.930 . S
C1530 C1525 1.390 . S
C1530 C1529 1.387 1_556 S
H1531 C1543 0.930 . S
H1532 C1545 0.930 . S
H1533 C1546 0.930 . S
H1534 C1550 0.959 . S
H1535 C1550 0.959 . S
H1536 C1550 0.961 . S
H1537 C1551 0.960 . S
H1538 C1551 0.961 . S
H1539 C1551 0.959 . S
H1540 C1554 0.929 . S
H1541 C1555 0.931 . S
H1542 C1557 0.930 . S
C1543 H1531 0.930 . S
C1543 C1544 1.399 . S
C1543 C1548 1.399 . S
C1544 C1543 1.399 . S
C1544 C1545 1.376 . S
C1545 H1532 0.930 . S
C1545 C1544 1.376 . S
C1545 C1546 1.388 . S
C1546 H1533 0.930 . S
C1546 C1545 1.388 . S
C1546 C1547 1.390 . S
C1547 C1546 1.390 . S
C1547 C1548 1.394 . S
C1547 C1553 1.465 . S
C1548 C1543 1.399 . S
C1548 C1547 1.394 . S
C1548 C1549 1.516 . S
C1549 C1548 1.516 . S
C1549 C1550 1.502 . S
C1549 C1551 1.561 . S
C1549 C1552 1.526 . S
C1550 H1534 0.959 . S
C1550 H1535 0.959 . S
C1550 H1536 0.961 . S
C1550 C1549 1.502 . S
C1551 H1537 0.960 . S
C1551 H1538 0.961 . S
C1551 H1539 0.959 . S
C1551 C1549 1.561 . S
C1552 C1549 1.526 . S
C1552 C1553 1.396 . S
C1552 C1557 1.390 . S
C1553 C1547 1.465 . S
C1553 C1552 1.396 . S
C1553 C1554 1.399 . S
C1554 H1540 0.929 . S
C1554 C1553 1.399 . S
C1554 C1555 1.385 . S
C1555 H1541 0.931 . S
C1555 C1554 1.385 . S
C1555 C1556 1.389 . S
C1556 C1555 1.389 . S
C1556 C1557 1.387 . S
C1557 H1542 0.930 . S
C1557 C1552 1.390 . S
C1557 C1556 1.387 . S
H1558 C1570 0.930 . S
H1559 C1572 0.930 . S
H1560 C1573 0.930 . S
H1561 C1577 0.959 . S
H1562 C1577 0.959 . S
H1563 C1577 0.961 . S
H1564 C1578 0.960 . S
H1565 C1578 0.961 . S
H1566 C1578 0.959 . S
H1567 C1581 0.929 . S
H1568 C1582 0.931 . S
H1569 C1584 0.930 . S
C1570 H1558 0.930 . S
C1570 C1571 1.399 . S
C1570 C1575 1.399 . S
C1571 C1570 1.399 . S
C1571 C1572 1.376 . S
C1572 H1559 0.930 . S
C1572 C1571 1.376 . S
C1572 C1573 1.388 . S
C1573 H1560 0.930 . S
C1573 C1572 1.388 . S
C1573 C1574 1.390 . S
C1574 C1573 1.390 . S
C1574 C1575 1.394 . S
C1574 C1580 1.465 . S
C1575 C1570 1.399 . S
C1575 C1574 1.394 . S
C1575 C1576 1.516 . S
C1576 C1575 1.516 . S
C1576 C1577 1.502 . S
C1576 C1578 1.561 . S
C1576 C1579 1.526 . S
C1577 H1561 0.959 . S
C1577 H1562 0.959 . S
C1577 H1563 0.961 . S
C1577 C1576 1.502 . S
C1578 H1564 0.960 . S
C1578 H1565 0.961 . S
C1578 H1566 0.959 . S
C1578 C1576 1.561 . S
C1579 C1576 1.526 . S
C1579 C1580 1.396 . S
C1579 C1584 1.390 . S
C1580 C1574 1.465 . S
C1580 C1579 1.396 . S
C1580 C1581 1.399 . S
C1581 H1567 0.929 . S
C1581 C1580 1.399 . S
C1581 C1582 1.385 . S
C1582 H1568 0.931 . S
C1582 C1581 1.385 . S
C1582 C1583 1.389 . S
C1583 C1582 1.389 . S
C1583 C1584 1.387 . S
C1584 H1569 0.930 . S
C1584 C1579 1.390 . S
C1584 C1583 1.387 . S
H1585 C1597 0.930 . S
H1586 C1599 0.930 . S
H1587 C1600 0.930 . S
H1588 C1604 0.959 . S
H1589 C1604 0.959 . S
H1590 C1604 0.961 . S
H1591 C1605 0.960 . S
H1592 C1605 0.961 . S
H1593 C1605 0.959 . S
H1594 C1608 0.929 . S
H1595 C1609 0.931 . S
H1596 C1611 0.930 . S
C1597 H1585 0.930 . S
C1597 C1598 1.399 . S
C1597 C1602 1.399 . S
C1598 C1597 1.399 . S
C1598 C1599 1.376 . S
C1599 H1586 0.930 . S
C1599 C1598 1.376 . S
C1599 C1600 1.388 . S
C1600 H1587 0.930 . S
C1600 C1599 1.388 . S
C1600 C1601 1.390 . S
C1601 C1600 1.390 . S
C1601 C1602 1.394 . S
C1601 C1607 1.465 . S
C1602 C1597 1.399 . S
C1602 C1601 1.394 . S
C1602 C1603 1.516 . S
C1603 C1602 1.516 . S
C1603 C1604 1.502 . S
C1603 C1605 1.561 . S
C1603 C1606 1.526 . S
C1604 H1588 0.959 . S
C1604 H1589 0.959 . S
C1604 H1590 0.961 . S
C1604 C1603 1.502 . S
C1605 H1591 0.960 . S
C1605 H1592 0.961 . S
C1605 H1593 0.959 . S
C1605 C1603 1.561 . S
C1606 C1603 1.526 . S
C1606 C1607 1.396 . S
C1606 C1611 1.390 . S
C1607 C1601 1.465 . S
C1607 C1606 1.396 . S
C1607 C1608 1.399 . S
C1608 H1594 0.929 . S
C1608 C1607 1.399 . S
C1608 C1609 1.385 . S
C1609 H1595 0.931 . S
C1609 C1608 1.385 . S
C1609 C1610 1.389 . S
C1610 C1609 1.389 . S
C1610 C1611 1.387 . S
C1611 H1596 0.930 . S
C1611 C1606 1.390 . S
C1611 C1610 1.387 . S
H1612 C1624 0.930 . S
H1613 C1626 0.930 . S
H1614 C1627 0.930 . S
H1615 C1631 0.959 . S
H1616 C1631 0.959 . S
H1617 C1631 0.961 . S
H1618 C1632 0.960 . S
H1619 C1632 0.961 . S
H1620 C1632 0.959 . S
H1621 C1635 0.929 . S
H1622 C1636 0.931 . S
H1623 C1638 0.930 . S
C1624 H1612 0.930 . S
C1624 C1625 1.399 . S
C1624 C1629 1.399 . S
C1625 C1624 1.399 . S
C1625 C1626 1.376 . S
C1626 H1613 0.930 . S
C1626 C1625 1.376 . S
C1626 C1627 1.388 . S
C1627 H1614 0.930 . S
C1627 C1626 1.388 . S
C1627 C1628 1.390 . S
C1628 C1627 1.390 . S
C1628 C1629 1.394 . S
C1628 C1634 1.465 . S
C1629 C1624 1.399 . S
C1629 C1628 1.394 . S
C1629 C1630 1.516 . S
C1630 C1629 1.516 . S
C1630 C1631 1.502 . S
C1630 C1632 1.561 . S
C1630 C1633 1.526 . S
C1631 H1615 0.959 . S
C1631 H1616 0.959 . S
C1631 H1617 0.961 . S
C1631 C1630 1.502 . S
C1632 H1618 0.960 . S
C1632 H1619 0.961 . S
C1632 H1620 0.959 . S
C1632 C1630 1.561 . S
C1633 C1630 1.526 . S
C1633 C1634 1.396 . S
C1633 C1638 1.390 . S
C1634 C1628 1.465 . S
C1634 C1633 1.396 . S
C1634 C1635 1.399 . S
C1635 H1621 0.929 . S
C1635 C1634 1.399 . S
C1635 C1636 1.385 . S
C1636 H1622 0.931 . S
C1636 C1635 1.385 . S
C1636 C1637 1.389 . S
C1637 C1636 1.389 . S
C1637 C1638 1.387 . S
C1638 H1623 0.930 . S
C1638 C1633 1.390 . S
C1638 C1637 1.387 . S
H1639 C1651 0.930 . S
H1640 C1653 0.930 . S
H1641 C1654 0.930 . S
H1642 C1658 0.959 . S
H1643 C1658 0.959 . S
H1644 C1658 0.961 . S
H1645 C1659 0.960 . S
H1646 C1659 0.961 . S
H1647 C1659 0.959 . S
H1648 C1662 0.929 . S
H1649 C1663 0.931 . S
H1650 C1665 0.930 . S
C1651 H1639 0.930 . S
C1651 C1652 1.399 . S
C1651 C1656 1.399 . S
C1652 C1651 1.399 . S
C1652 C1653 1.376 . S
C1653 H1640 0.930 . S
C1653 C1652 1.376 . S
C1653 C1654 1.388 . S
C1654 H1641 0.930 . S
C1654 C1653 1.388 . S
C1654 C1655 1.390 . S
C1655 C1654 1.390 . S
C1655 C1656 1.394 . S
C1655 C1661 1.465 . S
C1656 C1651 1.399 . S
C1656 C1655 1.394 . S
C1656 C1657 1.516 . S
C1657 C1656 1.516 . S
C1657 C1658 1.502 . S
C1657 C1659 1.561 . S
C1657 C1660 1.526 . S
C1658 H1642 0.959 . S
C1658 H1643 0.959 . S
C1658 H1644 0.961 . S
C1658 C1657 1.502 . S
C1659 H1645 0.960 . S
C1659 H1646 0.961 . S
C1659 H1647 0.959 . S
C1659 C1657 1.561 . S
C1660 C1657 1.526 . S
C1660 C1661 1.396 . S
C1660 C1665 1.390 . S
C1661 C1655 1.465 . S
C1661 C1660 1.396 . S
C1661 C1662 1.399 . S
C1662 H1648 0.929 . S
C1662 C1661 1.399 . S
C1662 C1663 1.385 . S
C1663 H1649 0.931 . S
C1663 C1662 1.385 . S
C1663 C1664 1.389 . S
C1664 C1663 1.389 . S
C1664 C1665 1.387 . S
C1665 H1650 0.930 . S
C1665 C1660 1.390 . S
C1665 C1664 1.387 . S
H1666 C1678 0.930 . S
H1667 C1680 0.930 . S
H1668 C1681 0.930 . S
H1669 C1685 0.959 . S
H1670 C1685 0.959 . S
H1671 C1685 0.961 . S
H1672 C1686 0.960 . S
H1673 C1686 0.961 . S
H1674 C1686 0.959 . S
H1675 C1689 0.929 . S
H1676 C1690 0.931 . S
H1677 C1692 0.930 . S
C1678 H1666 0.930 . S
C1678 C1679 1.399 . S
C1678 C1683 1.399 . S
C1679 C1678 1.399 . S
C1679 C1680 1.376 . S
C1680 H1667 0.930 . S
C1680 C1679 1.376 . S
C1680 C1681 1.388 . S
C1681 H1668 0.930 . S
C1681 C1680 1.388 . S
C1681 C1682 1.390 . S
C1682 C1681 1.390 . S
C1682 C1683 1.394 . S
C1682 C1688 1.465 . S
C1683 C1678 1.399 . S
C1683 C1682 1.394 . S
C1683 C1684 1.516 . S
C1684 C1683 1.516 . S
C1684 C1685 1.502 . S
C1684 C1686 1.561 . S
C1684 C1687 1.526 . S
C1685 H1669 0.959 . S
C1685 H1670 0.959 . S
C1685 H1671 0.961 . S
C1685 C1684 1.502 . S
C1686 H1672 0.960 . S
C1686 H1673 0.961 . S
C1686 H1674 0.959 . S
C1686 C1684 1.561 . S
C1687 C1684 1.526 . S
C1687 C1688 1.396 . S
C1687 C1692 1.390 . S
C1688 C1682 1.465 . S
C1688 C1687 1.396 . S
C1688 C1689 1.399 . S
C1689 H1675 0.929 . S
C1689 C1688 1.399 . S
C1689 C1690 1.385 . S
C1690 H1676 0.931 . S
C1690 C1689 1.385 . S
C1690 C1691 1.389 . S
C1691 C1690 1.389 . S
C1691 C1692 1.387 . S
C1692 H1677 0.930 . S
C1692 C1687 1.390 . S
C1692 C1691 1.387 . S
H1693 C1705 0.930 . S
H1694 C1707 0.930 . S
H1695 C1708 0.930 . S
H1696 C1712 0.959 . S
H1697 C1712 0.959 . S
H1698 C1712 0.961 . S
H1699 C1713 0.960 . S
H1700 C1713 0.961 . S
H1701 C1713 0.959 . S
H1702 C1716 0.929 . S
H1703 C1717 0.931 . S
H1704 C1719 0.930 . S
C1705 H1693 0.930 . S
C1705 C1706 1.399 . S
C1705 C1710 1.399 . S
C1706 C1705 1.399 . S
C1706 C1707 1.376 . S
C1707 H1694 0.930 . S
C1707 C1706 1.376 . S
C1707 C1708 1.388 . S
C1708 H1695 0.930 . S
C1708 C1707 1.388 . S
C1708 C1709 1.390 . S
C1709 C1708 1.390 . S
C1709 C1710 1.394 . S
C1709 C1715 1.465 . S
C1710 C1705 1.399 . S
C1710 C1709 1.394 . S
C1710 C1711 1.516 . S
C1711 C1710 1.516 . S
C1711 C1712 1.502 . S
C1711 C1713 1.561 . S
C1711 C1714 1.526 . S
C1712 H1696 0.959 . S
C1712 H1697 0.959 . S
C1712 H1698 0.961 . S
C1712 C1711 1.502 . S
C1713 H1699 0.960 . S
C1713 H1700 0.961 . S
C1713 H1701 0.959 . S
C1713 C1711 1.561 . S
C1714 C1711 1.526 . S
C1714 C1715 1.396 . S
C1714 C1719 1.390 . S
C1715 C1709 1.465 . S
C1715 C1714 1.396 . S
C1715 C1716 1.399 . S
C1716 H1702 0.929 . S
C1716 C1715 1.399 . S
C1716 C1717 1.385 . S
C1717 H1703 0.931 . S
C1717 C1716 1.385 . S
C1717 C1718 1.389 . S
C1718 C1717 1.389 . S
C1718 C1719 1.387 . S
C1719 H1704 0.930 . S
C1719 C1714 1.390 . S
C1719 C1718 1.387 . S
H1720 C1732 0.930 . S
H1721 C1734 0.930 . S
H1722 C1735 0.930 . S
H1723 C1739 0.959 . S
H1724 C1739 0.959 . S
H1725 C1739 0.961 . S
H1726 C1740 0.961 . S
H1727 C1740 0.961 . S
H1728 C1740 0.959 . S
H1729 C1743 0.931 1_655 S
H1730 C1744 0.931 1_565 S
H1731 C1746 0.930 . S
C1732 H1720 0.930 . S
C1732 C1733 1.399 . S
C1732 C1737 1.399 . S
C1733 C1732 1.399 . S
C1733 C1734 1.376 1_545 S
C1734 H1721 0.930 . S
C1734 C1733 1.376 1_565 S
C1734 C1735 1.388 . S
C1735 H1722 0.930 . S
C1735 C1734 1.388 . S
C1735 C1736 1.390 1_565 S
C1736 C1735 1.390 1_545 S
C1736 C1737 1.394 . S
C1736 C1742 1.465 . S
C1737 C1732 1.399 . S
C1737 C1736 1.394 . S
C1737 C1738 1.516 . S
C1738 C1737 1.516 . S
C1738 C1739 1.502 . S
C1738 C1740 1.561 1_655 S
C1738 C1741 1.526 . S
C1739 H1723 0.959 . S
C1739 H1724 0.959 . S
C1739 H1725 0.961 . S
C1739 C1738 1.502 . S
C1740 H1726 0.961 . S
C1740 H1727 0.961 . S
C1740 H1728 0.959 . S
C1740 C1738 1.561 1_455 S
C1741 C1738 1.526 . S
C1741 C1742 1.396 . S
C1741 C1746 1.390 1_655 S
C1742 C1736 1.465 . S
C1742 C1741 1.396 . S
C1742 C1743 1.399 1_645 S
C1743 H1729 0.931 1_455 S
C1743 C1742 1.399 1_465 S
C1743 C1744 1.385 1_565 S
C1744 H1730 0.931 1_545 S
C1744 C1743 1.385 1_545 S
C1744 C1745 1.389 . S
C1745 C1744 1.389 . S
C1745 C1746 1.387 . S
C1746 H1731 0.930 . S
C1746 C1741 1.390 1_455 S
C1746 C1745 1.387 . S
H1747 C1759 0.930 . S
H1748 C1761 0.930 . S
H1749 C1762 0.930 . S
H1750 C1766 0.959 . S
H1751 C1766 0.959 . S
H1752 C1766 0.961 . S
H1753 C1767 0.960 . S
H1754 C1767 0.961 . S
H1755 C1767 0.959 . S
H1756 C1770 0.929 . S
H1757 C1771 0.931 . S
H1758 C1773 0.930 . S
C1759 H1747 0.930 . S
C1759 C1760 1.399 . S
C1759 C1764 1.399 . S
C1760 C1759 1.399 . S
C1760 C1761 1.376 . S
C1761 H1748 0.930 . S
C1761 C1760 1.376 . S
C1761 C1762 1.388 . S
C1762 H1749 0.930 . S
C1762 C1761 1.388 . S
C1762 C1763 1.390 . S
C1763 C1762 1.390 . S
C1763 C1764 1.394 . S
C1763 C1769 1.465 . S
C1764 C1759 1.399 . S
C1764 C1763 1.394 . S
C1764 C1765 1.516 . S
C1765 C1764 1.516 . S
C1765 C1766 1.502 . S
C1765 C1767 1.561 . S
C1765 C1768 1.526 . S
C1766 H1750 0.959 . S
C1766 H1751 0.959 . S
C1766 H1752 0.961 . S
C1766 C1765 1.502 . S
C1767 H1753 0.960 . S
C1767 H1754 0.961 . S
C1767 H1755 0.959 . S
C1767 C1765 1.561 . S
C1768 C1765 1.526 . S
C1768 C1769 1.396 . S
C1768 C1773 1.390 . S
C1769 C1763 1.465 . S
C1769 C1768 1.396 . S
C1769 C1770 1.399 . S
C1770 H1756 0.929 . S
C1770 C1769 1.399 . S
C1770 C1771 1.385 . S
C1771 H1757 0.931 . S
C1771 C1770 1.385 . S
C1771 C1772 1.389 . S
C1772 C1771 1.389 . S
C1772 C1773 1.387 . S
C1773 H1758 0.930 . S
C1773 C1768 1.390 . S
C1773 C1772 1.387 . S
H1774 C1786 0.930 . S
H1775 C1788 0.930 . S
H1776 C1789 0.930 . S
H1777 C1793 0.959 . S
H1778 C1793 0.959 . S
H1779 C1793 0.961 . S
H1780 C1794 0.960 . S
H1781 C1794 0.961 . S
H1782 C1794 0.959 . S
H1783 C1797 0.929 . S
H1784 C1798 0.931 . S
H1785 C1800 0.930 . S
C1786 H1774 0.930 . S
C1786 C1787 1.399 . S
C1786 C1791 1.399 . S
C1787 C1786 1.399 . S
C1787 C1788 1.376 . S
C1788 H1775 0.930 . S
C1788 C1787 1.376 . S
C1788 C1789 1.388 . S
C1789 H1776 0.930 . S
C1789 C1788 1.388 . S
C1789 C1790 1.390 . S
C1790 C1789 1.390 . S
C1790 C1791 1.394 . S
C1790 C1796 1.465 . S
C1791 C1786 1.399 . S
C1791 C1790 1.394 . S
C1791 C1792 1.516 . S
C1792 C1791 1.516 . S
C1792 C1793 1.502 . S
C1792 C1794 1.561 1_545 S
C1792 C1795 1.526 . S
C1793 H1777 0.959 . S
C1793 H1778 0.959 . S
C1793 H1779 0.961 . S
C1793 C1792 1.502 . S
C1794 H1780 0.960 . S
C1794 H1781 0.961 . S
C1794 H1782 0.959 . S
C1794 C1792 1.561 1_565 S
C1795 C1792 1.526 . S
C1795 C1796 1.396 . S
C1795 C1800 1.390 . S
C1796 C1790 1.465 . S
C1796 C1795 1.396 . S
C1796 C1797 1.399 . S
C1797 H1783 0.929 . S
C1797 C1796 1.399 . S
C1797 C1798 1.385 . S
C1798 H1784 0.931 . S
C1798 C1797 1.385 . S
C1798 C1799 1.389 . S
C1799 C1798 1.389 . S
C1799 C1800 1.387 . S
C1800 H1785 0.930 . S
C1800 C1795 1.390 . S
C1800 C1799 1.387 . S
H1801 C1813 0.930 . S
H1802 C1815 0.930 . S
H1803 C1816 0.930 . S
H1804 C1820 0.959 . S
H1805 C1820 0.959 . S
H1806 C1820 0.961 . S
H1807 C1821 0.960 . S
H1808 C1821 0.961 . S
H1809 C1821 0.959 . S
H1810 C1824 0.929 . S
H1811 C1825 0.931 . S
H1812 C1827 0.930 . S
C1813 H1801 0.930 . S
C1813 C1814 1.399 . S
C1813 C1818 1.399 . S
C1814 C1813 1.399 . S
C1814 C1815 1.376 . S
C1815 H1802 0.930 . S
C1815 C1814 1.376 . S
C1815 C1816 1.388 . S
C1816 H1803 0.930 . S
C1816 C1815 1.388 . S
C1816 C1817 1.390 . S
C1817 C1816 1.390 . S
C1817 C1818 1.394 . S
C1817 C1823 1.465 . S
C1818 C1813 1.399 . S
C1818 C1817 1.394 . S
C1818 C1819 1.516 . S
C1819 C1818 1.516 . S
C1819 C1820 1.502 . S
C1819 C1821 1.561 . S
C1819 C1822 1.526 . S
C1820 H1804 0.959 . S
C1820 H1805 0.959 . S
C1820 H1806 0.961 . S
C1820 C1819 1.502 . S
C1821 H1807 0.960 . S
C1821 H1808 0.961 . S
C1821 H1809 0.959 . S
C1821 C1819 1.561 . S
C1822 C1819 1.526 . S
C1822 C1823 1.396 . S
C1822 C1827 1.390 . S
C1823 C1817 1.465 . S
C1823 C1822 1.396 . S
C1823 C1824 1.399 . S
C1824 H1810 0.929 . S
C1824 C1823 1.399 . S
C1824 C1825 1.385 . S
C1825 H1811 0.931 . S
C1825 C1824 1.385 . S
C1825 C1826 1.389 . S
C1826 C1825 1.389 . S
C1826 C1827 1.387 . S
C1827 H1812 0.930 . S
C1827 C1822 1.390 . S
C1827 C1826 1.387 . S
H1828 C1840 0.930 . S
H1829 C1842 0.930 . S
H1830 C1843 0.930 . S
H1831 C1847 0.959 . S
H1832 C1847 0.959 . S
H1833 C1847 0.961 . S
H1834 C1848 0.960 . S
H1835 C1848 0.961 . S
H1836 C1848 0.959 . S
H1837 C1851 0.929 . S
H1838 C1852 0.931 . S
H1839 C1854 0.930 . S
C1840 H1828 0.930 . S
C1840 C1841 1.399 . S
C1840 C1845 1.399 . S
C1841 C1840 1.399 . S
C1841 C1842 1.376 1_545 S
C1842 H1829 0.930 . S
C1842 C1841 1.376 1_565 S
C1842 C1843 1.388 . S
C1843 H1830 0.930 . S
C1843 C1842 1.388 . S
C1843 C1844 1.390 1_565 S
C1844 C1843 1.390 1_545 S
C1844 C1845 1.394 . S
C1844 C1850 1.465 . S
C1845 C1840 1.399 . S
C1845 C1844 1.394 . S
C1845 C1846 1.516 . S
C1846 C1845 1.516 . S
C1846 C1847 1.502 1_655 S
C1846 C1848 1.561 . S
C1846 C1849 1.526 . S
C1847 H1831 0.959 . S
C1847 H1832 0.959 . S
C1847 H1833 0.961 . S
C1847 C1846 1.502 1_455 S
C1848 H1834 0.960 . S
C1848 H1835 0.961 . S
C1848 H1836 0.959 . S
C1848 C1846 1.561 . S
C1849 C1846 1.526 . S
C1849 C1850 1.396 . S
C1849 C1854 1.390 1_655 S
C1850 C1844 1.465 . S
C1850 C1849 1.396 . S
C1850 C1851 1.399 1_545 S
C1851 H1837 0.929 . S
C1851 C1850 1.399 1_565 S
C1851 C1852 1.385 . S
C1852 H1838 0.931 . S
C1852 C1851 1.385 . S
C1852 C1853 1.395 1_565 S
C1853 C1852 1.395 1_545 S
C1853 C1854 1.389 1_655 S
C1854 H1839 0.930 . S
C1854 C1849 1.390 1_455 S
C1854 C1853 1.389 1_455 S
H1855 C1867 0.930 . S
H1856 C1869 0.930 . S
H1857 C1870 0.930 . S
H1858 C1874 0.959 . S
H1859 C1874 0.959 . S
H1860 C1874 0.961 . S
H1861 C1875 0.960 . S
H1862 C1875 0.961 . S
H1863 C1875 0.959 . S
H1864 C1878 0.929 . S
H1865 C1879 0.931 . S
H1866 C1881 0.930 . S
C1867 H1855 0.930 . S
C1867 C1868 1.399 . S
C1867 C1872 1.399 . S
C1868 C1867 1.399 . S
C1868 C1869 1.376 . S
C1869 H1856 0.930 . S
C1869 C1868 1.376 . S
C1869 C1870 1.388 . S
C1870 H1857 0.930 . S
C1870 C1869 1.388 . S
C1870 C1871 1.390 . S
C1871 C1870 1.390 . S
C1871 C1872 1.394 . S
C1871 C1877 1.465 . S
C1872 C1867 1.399 . S
C1872 C1871 1.394 . S
C1872 C1873 1.516 . S
C1873 C1872 1.516 . S
C1873 C1874 1.502 . S
C1873 C1875 1.561 . S
C1873 C1876 1.526 . S
C1874 H1858 0.959 . S
C1874 H1859 0.959 . S
C1874 H1860 0.961 . S
C1874 C1873 1.502 . S
C1875 H1861 0.960 . S
C1875 H1862 0.961 . S
C1875 H1863 0.959 . S
C1875 C1873 1.561 . S
C1876 C1873 1.526 . S
C1876 C1877 1.396 . S
C1876 C1881 1.390 . S
C1877 C1871 1.465 . S
C1877 C1876 1.396 . S
C1877 C1878 1.399 . S
C1878 H1864 0.929 . S
C1878 C1877 1.399 . S
C1878 C1879 1.385 . S
C1879 H1865 0.931 . S
C1879 C1878 1.385 . S
C1879 C1880 1.389 . S
C1880 C1879 1.389 . S
C1880 C1881 1.387 . S
C1881 H1866 0.930 . S
C1881 C1876 1.390 . S
C1881 C1880 1.387 . S
H1882 C1894 0.930 . S
H1883 C1896 0.930 . S
H1884 C1897 0.930 1_565 S
H1885 C1901 0.959 . S
H1886 C1901 0.959 . S
H1887 C1901 0.961 . S
H1888 C1902 0.960 . S
H1889 C1902 0.961 . S
H1890 C1902 0.959 . S
H1891 C1905 0.929 1_565 S
H1892 C1906 0.931 . S
H1893 C1908 0.930 . S
C1894 H1882 0.930 . S
C1894 C1895 1.399 . S
C1894 C1899 1.399 . S
C1895 C1894 1.399 . S
C1895 C1896 1.376 . S
C1896 H1883 0.930 . S
C1896 C1895 1.376 . S
C1896 C1897 1.388 . S
C1897 H1884 0.930 1_545 S
C1897 C1896 1.388 . S
C1897 C1898 1.390 . S
C1898 C1897 1.390 . S
C1898 C1899 1.394 . S
C1898 C1904 1.465 . S
C1899 C1894 1.399 . S
C1899 C1898 1.394 . S
C1899 C1900 1.516 . S
C1900 C1899 1.516 . S
C1900 C1901 1.502 . S
C1900 C1902 1.561 . S
C1900 C1903 1.526 . S
C1901 H1885 0.959 . S
C1901 H1886 0.959 . S
C1901 H1887 0.961 . S
C1901 C1900 1.502 . S
C1902 H1888 0.960 . S
C1902 H1889 0.961 . S
C1902 H1890 0.959 . S
C1902 C1900 1.561 . S
C1903 C1900 1.526 . S
C1903 C1904 1.396 . S
C1903 C1908 1.390 . S
C1904 C1898 1.465 . S
C1904 C1903 1.396 . S
C1904 C1905 1.399 . S
C1905 H1891 0.929 1_545 S
C1905 C1904 1.399 . S
C1905 C1906 1.385 . S
C1906 H1892 0.931 . S
C1906 C1905 1.385 . S
C1906 C1907 1.389 . S
C1907 C1906 1.389 . S
C1907 C1908 1.387 . S
C1908 H1893 0.930 . S
C1908 C1903 1.390 . S
C1908 C1907 1.387 . S
H1909 C1921 0.930 . S
H1910 C1923 0.930 . S
H1911 C1924 0.930 . S
H1912 C1928 0.959 . S
H1913 C1928 0.959 . S
H1914 C1928 0.961 . S
H1915 C1929 0.960 . S
H1916 C1929 0.961 . S
H1917 C1929 0.959 . S
H1918 C1932 0.929 . S
H1919 C1933 0.931 . S
H1920 C1935 0.930 . S
C1921 H1909 0.930 . S
C1921 C1922 1.399 . S
C1921 C1926 1.399 . S
C1922 C1921 1.399 . S
C1922 C1923 1.376 . S
C1923 H1910 0.930 . S
C1923 C1922 1.376 . S
C1923 C1924 1.388 . S
C1924 H1911 0.930 . S
C1924 C1923 1.388 . S
C1924 C1925 1.390 . S
C1925 C1924 1.390 . S
C1925 C1926 1.394 . S
C1925 C1931 1.465 . S
C1926 C1921 1.399 . S
C1926 C1925 1.394 . S
C1926 C1927 1.516 . S
C1927 C1926 1.516 . S
C1927 C1928 1.502 . S
C1927 C1929 1.561 . S
C1927 C1930 1.526 . S
C1928 H1912 0.959 . S
C1928 H1913 0.959 . S
C1928 H1914 0.961 . S
C1928 C1927 1.502 . S
C1929 H1915 0.960 . S
C1929 H1916 0.961 . S
C1929 H1917 0.959 . S
C1929 C1927 1.561 . S
C1930 C1927 1.526 . S
C1930 C1931 1.396 . S
C1930 C1935 1.390 . S
C1931 C1925 1.465 . S
C1931 C1930 1.396 . S
C1931 C1932 1.399 . S
C1932 H1918 0.929 . S
C1932 C1931 1.399 . S
C1932 C1933 1.385 . S
C1933 H1919 0.931 . S
C1933 C1932 1.385 . S
C1933 C1934 1.389 . S
C1934 C1933 1.389 . S
C1934 C1935 1.387 . S
C1935 H1920 0.930 . S
C1935 C1930 1.390 . S
C1935 C1934 1.387 . S
H1936 C1948 0.930 . S
H1937 C1950 0.930 . S
H1938 C1951 0.930 . S
H1939 C1955 0.959 . S
H1940 C1955 0.959 . S
H1941 C1955 0.961 . S
H1942 C1956 0.960 . S
H1943 C1956 0.961 . S
H1944 C1956 0.959 1_545 S
H1945 C1959 0.929 . S
H1946 C1960 0.931 . S
H1947 C1962 0.930 . S
C1948 H1936 0.930 . S
C1948 C1949 1.399 . S
C1948 C1953 1.399 . S
C1949 C1948 1.399 . S
C1949 C1950 1.376 1_554 S
C1950 H1937 0.930 . S
C1950 C1949 1.376 1_556 S
C1950 C1951 1.388 . S
C1951 H1938 0.930 . S
C1951 C1950 1.388 . S
C1951 C1952 1.390 1_556 S
C1952 C1951 1.390 1_554 S
C1952 C1953 1.394 . S
C1952 C1958 1.465 . S
C1953 C1948 1.399 . S
C1953 C1952 1.394 . S
C1953 C1954 1.516 . S
C1954 C1953 1.516 . S
C1954 C1955 1.502 . S
C1954 C1956 1.561 . S
C1954 C1957 1.526 . S
C1955 H1939 0.959 . S
C1955 H1940 0.959 . S
C1955 H1941 0.961 . S
C1955 C1954 1.502 . S
C1956 H1942 0.960 . S
C1956 H1943 0.961 . S
C1956 H1944 0.959 1_565 S
C1956 C1954 1.561 . S
C1957 C1954 1.526 . S
C1957 C1958 1.396 . S
C1957 C1962 1.390 . S
C1958 C1952 1.465 . S
C1958 C1957 1.396 . S
C1958 C1959 1.399 1_565 S
C1959 H1945 0.929 . S
C1959 C1958 1.399 1_545 S
C1959 C1960 1.385 . S
C1960 H1946 0.931 . S
C1960 C1959 1.385 . S
C1960 C1961 1.389 . S
C1961 C1960 1.389 . S
C1961 C1962 1.387 1_545 S
C1962 H1947 0.930 . S
C1962 C1957 1.390 . S
C1962 C1961 1.387 1_565 S
H1963 C1975 0.954 . S
H1964 C1977 0.930 . S
H1965 C1978 0.930 . S
H1966 C1982 0.959 1_554 S
H1967 C1982 0.959 . S
H1968 C1982 0.961 . S
H1969 C1983 0.960 . S
H1970 C1983 0.961 . S
H1971 C1983 0.959 . S
H1972 C1986 0.929 . S
H1973 C1987 0.931 . S
H1974 C1989 0.930 . S
C1975 H1963 0.954 . S
C1975 C1976 1.399 . S
C1975 C1980 1.399 . S
C1976 C1975 1.399 . S
C1976 C1977 1.376 . S
C1977 H1964 0.930 . S
C1977 C1976 1.376 . S
C1977 C1978 1.388 . S
C1978 H1965 0.930 . S
C1978 C1977 1.388 . S
C1978 C1979 1.390 . S
C1979 C1978 1.390 . S
C1979 C1980 1.394 . S
C1979 C1985 1.465 . S
C1980 C1975 1.399 . S
C1980 C1979 1.394 . S
C1980 C1981 1.516 . S
C1981 C1980 1.516 . S
C1981 C1982 1.502 1_554 S
C1981 C1983 1.561 1_554 S
C1981 C1984 1.526 . S
C1982 H1966 0.959 1_556 S
C1982 H1967 0.959 . S
C1982 H1968 0.961 . S
C1982 C1981 1.502 1_556 S
C1983 H1969 0.960 . S
C1983 H1970 0.961 . S
C1983 H1971 0.959 . S
C1983 C1981 1.561 1_556 S
C1984 C1981 1.526 . S
C1984 C1985 1.396 . S
C1984 C1989 1.390 . S
C1985 C1979 1.465 . S
C1985 C1984 1.396 . S
C1985 C1986 1.399 . S
C1986 H1972 0.929 . S
C1986 C1985 1.399 . S
C1986 C1987 1.385 . S
C1987 H1973 0.931 . S
C1987 C1986 1.385 . S
C1987 C1988 1.389 . S
C1988 C1987 1.389 . S
C1988 C1989 1.387 . S
C1989 H1974 0.930 . S
C1989 C1984 1.390 . S
C1989 C1988 1.387 . S
H1990 C2002 0.930 . S
H1991 C2004 0.930 . S
H1992 C2005 0.930 . S
H1993 C2009 0.959 . S
H1994 C2009 0.959 . S
H1995 C2009 0.961 . S
H1996 C2010 0.960 . S
H1997 C2010 0.961 . S
H1998 C2010 0.959 . S
H1999 C2013 0.929 . S
H2000 C2014 0.931 . S
H2001 C2016 0.930 . S
C2002 H1990 0.930 . S
C2002 C2003 1.399 . S
C2002 C2007 1.399 . S
C2003 C2002 1.399 . S
C2003 C2004 1.376 . S
C2004 H1991 0.930 . S
C2004 C2003 1.376 . S
C2004 C2005 1.388 . S
C2005 H1992 0.930 . S
C2005 C2004 1.388 . S
C2005 C2006 1.390 . S
C2006 C2005 1.390 . S
C2006 C2007 1.394 . S
C2006 C2012 1.465 . S
C2007 C2002 1.399 . S
C2007 C2006 1.394 . S
C2007 C2008 1.516 . S
C2008 C2007 1.516 . S
C2008 C2009 1.502 . S
C2008 C2010 1.561 . S
C2008 C2011 1.526 . S
C2009 H1993 0.959 . S
C2009 H1994 0.959 . S
C2009 H1995 0.961 . S
C2009 C2008 1.502 . S
C2010 H1996 0.960 . S
C2010 H1997 0.961 . S
C2010 H1998 0.959 . S
C2010 C2008 1.561 . S
C2011 C2008 1.526 . S
C2011 C2012 1.396 . S
C2011 C2016 1.390 . S
C2012 C2006 1.465 . S
C2012 C2011 1.396 . S
C2012 C2013 1.399 . S
C2013 H1999 0.929 . S
C2013 C2012 1.399 . S
C2013 C2014 1.385 . S
C2014 H2000 0.931 . S
C2014 C2013 1.385 . S
C2014 C2015 1.389 . S
C2015 C2014 1.389 . S
C2015 C2016 1.387 . S
C2016 H2001 0.930 . S
C2016 C2011 1.390 . S
C2016 C2015 1.387 . S
H2017 C2029 0.930 . S
H2018 C2031 0.930 . S
H2019 C2032 0.930 . S
H2020 C2036 0.959 . S
H2021 C2036 0.959 . S
H2022 C2036 0.961 . S
H2023 C2037 0.960 . S
H2024 C2037 0.961 . S
H2025 C2037 0.959 . S
H2026 C2040 0.929 . S
H2027 C2041 0.931 . S
H2028 C2043 0.930 . S
C2029 H2017 0.930 . S
C2029 C2030 1.399 . S
C2029 C2034 1.399 . S
C2030 C2029 1.399 . S
C2030 C2031 1.376 . S
C2031 H2018 0.930 . S
C2031 C2030 1.376 . S
C2031 C2032 1.388 . S
C2032 H2019 0.930 . S
C2032 C2031 1.388 . S
C2032 C2033 1.390 . S
C2033 C2032 1.390 . S
C2033 C2034 1.394 . S
C2033 C2039 1.465 . S
C2034 C2029 1.399 . S
C2034 C2033 1.394 . S
C2034 C2035 1.516 . S
C2035 C2034 1.516 . S
C2035 C2036 1.502 . S
C2035 C2037 1.561 . S
C2035 C2038 1.526 . S
C2036 H2020 0.959 . S
C2036 H2021 0.959 . S
C2036 H2022 0.961 . S
C2036 C2035 1.502 . S
C2037 H2023 0.960 . S
C2037 H2024 0.961 . S
C2037 H2025 0.959 . S
C2037 C2035 1.561 . S
C2038 C2035 1.526 . S
C2038 C2039 1.396 . S
C2038 C2043 1.390 . S
C2039 C2033 1.465 . S
C2039 C2038 1.396 . S
C2039 C2040 1.399 . S
C2040 H2026 0.929 . S
C2040 C2039 1.399 . S
C2040 C2041 1.385 . S
C2041 H2027 0.931 . S
C2041 C2040 1.385 . S
C2041 C2042 1.389 . S
C2042 C2041 1.389 . S
C2042 C2043 1.387 . S
C2043 H2028 0.930 . S
C2043 C2038 1.390 . S
C2043 C2042 1.387 . S
H2044 C2056 0.930 . S
H2045 C2058 0.930 . S
H2046 C2059 0.930 . S
H2047 C2063 0.959 . S
H2048 C2063 0.959 . S
H2049 C2063 0.961 . S
H2050 C2064 0.960 . S
H2051 C2064 0.961 . S
H2052 C2064 0.959 . S
H2053 C2067 0.929 . S
H2054 C2068 0.931 . S
H2055 C2070 0.930 . S
C2056 H2044 0.930 . S
C2056 C2057 1.399 . S
C2056 C2061 1.399 . S
C2057 C2056 1.399 . S
C2057 C2058 1.376 . S
C2058 H2045 0.930 . S
C2058 C2057 1.376 . S
C2058 C2059 1.388 . S
C2059 H2046 0.930 . S
C2059 C2058 1.388 . S
C2059 C2060 1.390 . S
C2060 C2059 1.390 . S
C2060 C2061 1.394 . S
C2060 C2066 1.465 . S
C2061 C2056 1.399 . S
C2061 C2060 1.394 . S
C2061 C2062 1.516 . S
C2062 C2061 1.516 . S
C2062 C2063 1.502 . S
C2062 C2064 1.561 . S
C2062 C2065 1.526 . S
C2063 H2047 0.959 . S
C2063 H2048 0.959 . S
C2063 H2049 0.961 . S
C2063 C2062 1.502 . S
C2064 H2050 0.960 . S
C2064 H2051 0.961 . S
C2064 H2052 0.959 . S
C2064 C2062 1.561 . S
C2065 C2062 1.526 . S
C2065 C2066 1.396 . S
C2065 C2070 1.390 . S
C2066 C2060 1.465 . S
C2066 C2065 1.396 . S
C2066 C2067 1.399 . S
C2067 H2053 0.929 . S
C2067 C2066 1.399 . S
C2067 C2068 1.385 . S
C2068 H2054 0.931 . S
C2068 C2067 1.385 . S
C2068 C2069 1.389 . S
C2069 C2068 1.389 . S
C2069 C2070 1.387 . S
C2070 H2055 0.930 . S
C2070 C2065 1.390 . S
C2070 C2069 1.387 . S
H2071 C2083 0.930 . S
H2072 C2085 0.930 . S
H2073 C2086 0.930 . S
H2074 C2090 0.959 . S
H2075 C2090 0.959 . S
H2076 C2090 0.961 . S
H2077 C2091 0.960 . S
H2078 C2091 0.961 . S
H2079 C2091 0.959 . S
H2080 C2094 0.929 . S
H2081 C2095 0.931 . S
H2082 C2097 0.930 . S
C2083 H2071 0.930 . S
C2083 C2084 1.399 . S
C2083 C2088 1.399 . S
C2084 C2083 1.399 . S
C2084 C2085 1.376 . S
C2085 H2072 0.930 . S
C2085 C2084 1.376 . S
C2085 C2086 1.388 . S
C2086 H2073 0.930 . S
C2086 C2085 1.388 . S
C2086 C2087 1.390 . S
C2087 C2086 1.390 . S
C2087 C2088 1.394 . S
C2087 C2093 1.465 . S
C2088 C2083 1.399 . S
C2088 C2087 1.394 . S
C2088 C2089 1.516 . S
C2089 C2088 1.516 . S
C2089 C2090 1.502 . S
C2089 C2091 1.561 . S
C2089 C2092 1.526 . S
C2090 H2074 0.959 . S
C2090 H2075 0.959 . S
C2090 H2076 0.961 . S
C2090 C2089 1.502 . S
C2091 H2077 0.960 . S
C2091 H2078 0.961 . S
C2091 H2079 0.959 . S
C2091 C2089 1.561 . S
C2092 C2089 1.526 . S
C2092 C2093 1.396 . S
C2092 C2097 1.390 . S
C2093 C2087 1.465 . S
C2093 C2092 1.396 . S
C2093 C2094 1.399 . S
C2094 H2080 0.929 . S
C2094 C2093 1.399 . S
C2094 C2095 1.385 . S
C2095 H2081 0.931 . S
C2095 C2094 1.385 . S
C2095 C2096 1.389 . S
C2096 C2095 1.389 . S
C2096 C2097 1.387 . S
C2097 H2082 0.930 . S
C2097 C2092 1.390 . S
C2097 C2096 1.387 . S
H2098 C2110 0.930 . S
H2099 C2112 0.930 . S
H2100 C2113 0.930 . S
H2101 C2117 0.959 . S
H2102 C2117 0.959 . S
H2103 C2117 0.961 . S
H2104 C2118 0.960 . S
H2105 C2118 0.961 . S
H2106 C2118 0.959 . S
H2107 C2121 0.929 . S
H2108 C2122 0.931 . S
H2109 C2124 0.930 . S
C2110 H2098 0.930 . S
C2110 C2111 1.399 . S
C2110 C2115 1.399 . S
C2111 C2110 1.399 . S
C2111 C2112 1.376 . S
C2112 H2099 0.930 . S
C2112 C2111 1.376 . S
C2112 C2113 1.388 . S
C2113 H2100 0.930 . S
C2113 C2112 1.388 . S
C2113 C2114 1.390 . S
C2114 C2113 1.390 . S
C2114 C2115 1.394 . S
C2114 C2120 1.465 . S
C2115 C2110 1.399 . S
C2115 C2114 1.394 . S
C2115 C2116 1.516 . S
C2116 C2115 1.516 . S
C2116 C2117 1.502 . S
C2116 C2118 1.561 . S
C2116 C2119 1.526 . S
C2117 H2101 0.959 . S
C2117 H2102 0.959 . S
C2117 H2103 0.961 . S
C2117 C2116 1.502 . S
C2118 H2104 0.960 . S
C2118 H2105 0.961 . S
C2118 H2106 0.959 . S
C2118 C2116 1.561 . S
C2119 C2116 1.526 . S
C2119 C2120 1.396 . S
C2119 C2124 1.390 . S
C2120 C2114 1.465 . S
C2120 C2119 1.396 . S
C2120 C2121 1.399 . S
C2121 H2107 0.929 . S
C2121 C2120 1.399 . S
C2121 C2122 1.385 . S
C2122 H2108 0.931 . S
C2122 C2121 1.385 . S
C2122 C2123 1.389 . S
C2123 C2122 1.389 . S
C2123 C2124 1.387 . S
C2124 H2109 0.930 . S
C2124 C2119 1.390 . S
C2124 C2123 1.387 . S
H2125 C2137 0.930 . S
H2126 C2139 0.930 . S
H2127 C2140 0.930 . S
H2128 C2144 0.959 . S
H2129 C2144 0.959 . S
H2130 C2144 0.961 . S
H2131 C2145 0.960 . S
H2132 C2145 0.961 . S
H2133 C2145 0.959 . S
H2134 C2148 0.929 . S
H2135 C2149 0.931 . S
H2136 C2151 0.930 . S
C2137 H2125 0.930 . S
C2137 C2138 1.399 . S
C2137 C2142 1.399 . S
C2138 C2137 1.399 . S
C2138 C2139 1.376 . S
C2139 H2126 0.930 . S
C2139 C2138 1.376 . S
C2139 C2140 1.388 . S
C2140 H2127 0.930 . S
C2140 C2139 1.388 . S
C2140 C2141 1.390 . S
C2141 C2140 1.390 . S
C2141 C2142 1.394 . S
C2141 C2147 1.465 . S
C2142 C2137 1.399 . S
C2142 C2141 1.394 . S
C2142 C2143 1.516 . S
C2143 C2142 1.516 . S
C2143 C2144 1.502 . S
C2143 C2145 1.561 . S
C2143 C2146 1.526 . S
C2144 H2128 0.959 . S
C2144 H2129 0.959 . S
C2144 H2130 0.961 . S
C2144 C2143 1.502 . S
C2145 H2131 0.960 . S
C2145 H2132 0.961 . S
C2145 H2133 0.959 . S
C2145 C2143 1.561 . S
C2146 C2143 1.526 . S
C2146 C2147 1.396 . S
C2146 C2151 1.390 . S
C2147 C2141 1.465 . S
C2147 C2146 1.396 . S
C2147 C2148 1.399 . S
C2148 H2134 0.929 . S
C2148 C2147 1.399 . S
C2148 C2149 1.385 . S
C2149 H2135 0.931 . S
C2149 C2148 1.385 . S
C2149 C2150 1.389 . S
C2150 C2149 1.389 . S
C2150 C2151 1.387 . S
C2151 H2136 0.930 . S
C2151 C2146 1.390 . S
C2151 C2150 1.387 . S
H2152 C2164 0.930 . S
H2153 C2166 0.930 . S
H2154 C2167 0.930 . S
H2155 C2171 0.959 . S
H2156 C2171 0.959 . S
H2157 C2171 0.961 . S
H2158 C2172 0.960 . S
H2159 C2172 0.961 . S
H2160 C2172 0.959 . S
H2161 C2175 0.929 . S
H2162 C2176 0.931 . S
H2163 C2178 0.930 . S
C2164 H2152 0.930 . S
C2164 C2165 1.399 . S
C2164 C2169 1.399 . S
C2165 C2164 1.399 . S
C2165 C2166 1.376 . S
C2166 H2153 0.930 . S
C2166 C2165 1.376 . S
C2166 C2167 1.388 . S
C2167 H2154 0.930 . S
C2167 C2166 1.388 . S
C2167 C2168 1.390 . S
C2168 C2167 1.390 . S
C2168 C2169 1.394 . S
C2168 C2174 1.465 . S
C2169 C2164 1.399 . S
C2169 C2168 1.394 . S
C2169 C2170 1.516 . S
C2170 C2169 1.516 . S
C2170 C2171 1.502 . S
C2170 C2172 1.561 . S
C2170 C2173 1.526 . S
C2171 H2155 0.959 . S
C2171 H2156 0.959 . S
C2171 H2157 0.961 . S
C2171 C2170 1.502 . S
C2172 H2158 0.960 . S
C2172 H2159 0.961 . S
C2172 H2160 0.959 . S
C2172 C2170 1.561 . S
C2173 C2170 1.526 . S
C2173 C2174 1.396 . S
C2173 C2178 1.390 . S
C2174 C2168 1.465 . S
C2174 C2173 1.396 . S
C2174 C2175 1.399 . S
C2175 H2161 0.929 . S
C2175 C2174 1.399 . S
C2175 C2176 1.385 . S
C2176 H2162 0.931 . S
C2176 C2175 1.385 . S
C2176 C2177 1.389 . S
C2177 C2176 1.389 . S
C2177 C2178 1.387 . S
C2178 H2163 0.930 . S
C2178 C2173 1.390 . S
C2178 C2177 1.387 . S
H2179 C2191 0.930 . S
H2180 C2193 0.930 . S
H2181 C2194 0.930 . S
H2182 C2198 0.959 . S
H2183 C2198 0.959 . S
H2184 C2198 0.961 . S
H2185 C2199 0.960 . S
H2186 C2199 0.961 . S
H2187 C2199 0.959 . S
H2188 C2202 0.929 . S
H2189 C2203 0.931 . S
H2190 C2205 0.930 . S
C2191 H2179 0.930 . S
C2191 C2192 1.399 . S
C2191 C2196 1.399 . S
C2192 C2191 1.399 . S
C2192 C2193 1.376 . S
C2193 H2180 0.930 . S
C2193 C2192 1.376 . S
C2193 C2194 1.388 . S
C2194 H2181 0.930 . S
C2194 C2193 1.388 . S
C2194 C2195 1.390 . S
C2195 C2194 1.390 . S
C2195 C2196 1.394 . S
C2195 C2201 1.465 . S
C2196 C2191 1.399 . S
C2196 C2195 1.394 . S
C2196 C2197 1.516 . S
C2197 C2196 1.516 . S
C2197 C2198 1.502 . S
C2197 C2199 1.561 . S
C2197 C2200 1.526 . S
C2198 H2182 0.959 . S
C2198 H2183 0.959 . S
C2198 H2184 0.961 . S
C2198 C2197 1.502 . S
C2199 H2185 0.960 . S
C2199 H2186 0.961 . S
C2199 H2187 0.959 . S
C2199 C2197 1.561 . S
C2200 C2197 1.526 . S
C2200 C2201 1.396 . S
C2200 C2205 1.390 . S
C2201 C2195 1.465 . S
C2201 C2200 1.396 . S
C2201 C2202 1.399 . S
C2202 H2188 0.929 . S
C2202 C2201 1.399 . S
C2202 C2203 1.385 . S
C2203 H2189 0.931 . S
C2203 C2202 1.385 . S
C2203 C2204 1.389 . S
C2204 C2203 1.389 . S
C2204 C2205 1.387 . S
C2205 H2190 0.930 . S
C2205 C2200 1.390 . S
C2205 C2204 1.387 . S
H2206 C2218 0.930 . S
H2207 C2220 0.930 . S
H2208 C2221 0.930 . S
H2209 C2225 0.959 . S
H2210 C2225 0.959 . S
H2211 C2225 0.961 . S
H2212 C2226 0.960 . S
H2213 C2226 0.961 . S
H2214 C2226 0.959 . S
H2215 C2229 0.929 . S
H2216 C2230 0.931 . S
H2217 C2232 0.930 . S
C2218 H2206 0.930 . S
C2218 C2219 1.399 . S
C2218 C2223 1.399 . S
C2219 C2218 1.399 . S
C2219 C2220 1.376 . S
C2220 H2207 0.930 . S
C2220 C2219 1.376 . S
C2220 C2221 1.388 . S
C2221 H2208 0.930 . S
C2221 C2220 1.388 . S
C2221 C2222 1.390 . S
C2222 C2221 1.390 . S
C2222 C2223 1.394 . S
C2222 C2228 1.465 . S
C2223 C2218 1.399 . S
C2223 C2222 1.394 . S
C2223 C2224 1.516 . S
C2224 C2223 1.516 . S
C2224 C2225 1.502 . S
C2224 C2226 1.561 . S
C2224 C2227 1.526 . S
C2225 H2209 0.959 . S
C2225 H2210 0.959 . S
C2225 H2211 0.961 . S
C2225 C2224 1.502 . S
C2226 H2212 0.960 . S
C2226 H2213 0.961 . S
C2226 H2214 0.959 . S
C2226 C2224 1.561 . S
C2227 C2224 1.526 . S
C2227 C2228 1.396 . S
C2227 C2232 1.390 . S
C2228 C2222 1.465 . S
C2228 C2227 1.396 . S
C2228 C2229 1.399 . S
C2229 H2215 0.929 . S
C2229 C2228 1.399 . S
C2229 C2230 1.385 . S
C2230 H2216 0.931 . S
C2230 C2229 1.385 . S
C2230 C2231 1.389 . S
C2231 C2230 1.389 . S
C2231 C2232 1.387 . S
C2232 H2217 0.930 . S
C2232 C2227 1.390 . S
C2232 C2231 1.387 . S
H2233 C2245 0.930 . S
H2234 C2247 0.930 . S
H2235 C2248 0.930 . S
H2236 C2252 0.959 . S
H2237 C2252 0.959 . S
H2238 C2252 0.961 . S
H2239 C2253 0.960 . S
H2240 C2253 0.961 . S
H2241 C2253 0.959 . S
H2242 C2256 0.929 . S
H2243 C2257 0.931 . S
H2244 C2259 0.930 . S
C2245 H2233 0.930 . S
C2245 C2246 1.399 . S
C2245 C2250 1.399 . S
C2246 C2245 1.399 . S
C2246 C2247 1.376 . S
C2247 H2234 0.930 . S
C2247 C2246 1.376 . S
C2247 C2248 1.388 . S
C2248 H2235 0.930 . S
C2248 C2247 1.388 . S
C2248 C2249 1.390 . S
C2249 C2248 1.390 . S
C2249 C2250 1.394 . S
C2249 C2255 1.465 . S
C2250 C2245 1.399 . S
C2250 C2249 1.394 . S
C2250 C2251 1.516 . S
C2251 C2250 1.516 . S
C2251 C2252 1.502 . S
C2251 C2253 1.561 . S
C2251 C2254 1.526 . S
C2252 H2236 0.959 . S
C2252 H2237 0.959 . S
C2252 H2238 0.961 . S
C2252 C2251 1.502 . S
C2253 H2239 0.960 . S
C2253 H2240 0.961 . S
C2253 H2241 0.959 . S
C2253 C2251 1.561 . S
C2254 C2251 1.526 . S
C2254 C2255 1.396 . S
C2254 C2259 1.390 . S
C2255 C2249 1.465 . S
C2255 C2254 1.396 . S
C2255 C2256 1.399 . S
C2256 H2242 0.929 . S
C2256 C2255 1.399 . S
C2256 C2257 1.385 . S
C2257 H2243 0.931 . S
C2257 C2256 1.385 . S
C2257 C2258 1.389 . S
C2258 C2257 1.389 . S
C2258 C2259 1.387 . S
C2259 H2244 0.930 . S
C2259 C2254 1.390 . S
C2259 C2258 1.387 . S
H2260 C2272 0.930 . S
H2261 C2274 0.930 . S
H2262 C2275 0.930 . S
H2263 C2279 0.959 . S
H2264 C2279 0.959 . S
H2265 C2279 0.961 . S
H2266 C2280 0.960 . S
H2267 C2280 0.961 . S
H2268 C2280 0.959 . S
H2269 C2283 0.929 . S
H2270 C2284 0.931 . S
H2271 C2286 0.930 . S
C2272 H2260 0.930 . S
C2272 C2273 1.399 . S
C2272 C2277 1.399 . S
C2273 C2272 1.399 . S
C2273 C2274 1.376 . S
C2274 H2261 0.930 . S
C2274 C2273 1.376 . S
C2274 C2275 1.388 . S
C2275 H2262 0.930 . S
C2275 C2274 1.388 . S
C2275 C2276 1.390 . S
C2276 C2275 1.390 . S
C2276 C2277 1.394 . S
C2276 C2282 1.465 . S
C2277 C2272 1.399 . S
C2277 C2276 1.394 . S
C2277 C2278 1.516 . S
C2278 C2277 1.516 . S
C2278 C2279 1.502 . S
C2278 C2280 1.561 1_455 S
C2278 C2281 1.526 . S
C2279 H2263 0.959 . S
C2279 H2264 0.959 . S
C2279 H2265 0.961 . S
C2279 C2278 1.502 . S
C2280 H2266 0.960 . S
C2280 H2267 0.961 . S
C2280 H2268 0.959 . S
C2280 C2278 1.561 1_655 S
C2281 C2278 1.526 . S
C2281 C2282 1.396 . S
C2281 C2286 1.390 . S
C2282 C2276 1.465 . S
C2282 C2281 1.396 . S
C2282 C2283 1.399 . S
C2283 H2269 0.929 . S
C2283 C2282 1.399 . S
C2283 C2284 1.385 . S
C2284 H2270 0.931 . S
C2284 C2283 1.385 . S
C2284 C2285 1.389 . S
C2285 C2284 1.389 . S
C2285 C2286 1.387 . S
C2286 H2271 0.930 . S
C2286 C2281 1.390 . S
C2286 C2285 1.387 . S
H2287 C2299 0.930 . S
H2288 C2301 0.930 . S
H2289 C2302 0.930 . S
H2290 C2306 0.959 . S
H2291 C2306 0.959 . S
H2292 C2306 0.961 . S
H2293 C2307 0.960 . S
H2294 C2307 0.961 . S
H2295 C2307 0.959 . S
H2296 C2310 0.929 . S
H2297 C2311 0.931 . S
H2298 C2313 0.930 . S
C2299 H2287 0.930 . S
C2299 C2300 1.399 . S
C2299 C2304 1.399 . S
C2300 C2299 1.399 . S
C2300 C2301 1.376 . S
C2301 H2288 0.930 . S
C2301 C2300 1.376 . S
C2301 C2302 1.388 . S
C2302 H2289 0.930 . S
C2302 C2301 1.388 . S
C2302 C2303 1.390 . S
C2303 C2302 1.390 . S
C2303 C2304 1.394 . S
C2303 C2309 1.465 . S
C2304 C2299 1.399 . S
C2304 C2303 1.394 . S
C2304 C2305 1.516 . S
C2305 C2304 1.516 . S
C2305 C2306 1.502 . S
C2305 C2307 1.561 . S
C2305 C2308 1.526 . S
C2306 H2290 0.959 . S
C2306 H2291 0.959 . S
C2306 H2292 0.961 . S
C2306 C2305 1.502 . S
C2307 H2293 0.960 . S
C2307 H2294 0.961 . S
C2307 H2295 0.959 . S
C2307 C2305 1.561 . S
C2308 C2305 1.526 . S
C2308 C2309 1.396 . S
C2308 C2313 1.390 . S
C2309 C2303 1.465 . S
C2309 C2308 1.396 . S
C2309 C2310 1.399 . S
C2310 H2296 0.929 . S
C2310 C2309 1.399 . S
C2310 C2311 1.385 . S
C2311 H2297 0.931 . S
C2311 C2310 1.385 . S
C2311 C2312 1.389 . S
C2312 C2311 1.389 . S
C2312 C2313 1.387 . S
C2313 H2298 0.930 . S
C2313 C2308 1.390 . S
C2313 C2312 1.387 . S
H2314 C2326 0.930 . S
H2315 C2328 0.930 . S
H2316 C2329 0.930 . S
H2317 C2333 0.959 . S
H2318 C2333 0.959 . S
H2319 C2333 0.961 . S
H2320 C2334 0.960 . S
H2321 C2334 0.961 . S
H2322 C2334 0.959 . S
H2323 C2337 0.929 . S
H2324 C2338 0.931 1_554 S
H2325 C2340 0.930 . S
C2326 H2314 0.930 . S
C2326 C2327 1.399 . S
C2326 C2331 1.399 . S
C2327 C2326 1.399 . S
C2327 C2328 1.376 . S
C2328 H2315 0.930 . S
C2328 C2327 1.376 . S
C2328 C2329 1.388 . S
C2329 H2316 0.930 . S
C2329 C2328 1.388 . S
C2329 C2330 1.390 . S
C2330 C2329 1.390 . S
C2330 C2331 1.394 . S
C2330 C2336 1.465 . S
C2331 C2326 1.399 . S
C2331 C2330 1.394 . S
C2331 C2332 1.516 . S
C2332 C2331 1.516 . S
C2332 C2333 1.502 . S
C2332 C2334 1.561 . S
C2332 C2335 1.526 . S
C2333 H2317 0.959 . S
C2333 H2318 0.959 . S
C2333 H2319 0.961 . S
C2333 C2332 1.502 . S
C2334 H2320 0.960 . S
C2334 H2321 0.961 . S
C2334 H2322 0.959 . S
C2334 C2332 1.561 . S
C2335 C2332 1.526 . S
C2335 C2336 1.396 . S
C2335 C2340 1.390 . S
C2336 C2330 1.465 . S
C2336 C2335 1.396 . S
C2336 C2337 1.399 . S
C2337 H2323 0.929 . S
C2337 C2336 1.399 . S
C2337 C2338 1.385 . S
C2338 H2324 0.931 1_556 S
C2338 C2337 1.385 . S
C2338 C2339 1.389 . S
C2339 C2338 1.389 . S
C2339 C2340 1.387 . S
C2340 H2325 0.930 . S
C2340 C2335 1.390 . S
C2340 C2339 1.387 . S
H2341 C2353 0.930 . S
H2342 C2355 0.930 . S
H2343 C2356 0.930 . S
H2344 C2360 0.959 . S
H2345 C2360 0.959 . S
H2346 C2360 0.961 . S
H2347 C2361 0.960 . S
H2348 C2361 0.961 . S
H2349 C2361 0.959 . S
H2350 C2364 0.929 . S
H2351 C2365 0.931 . S
H2352 C2367 0.930 . S
C2353 H2341 0.930 . S
C2353 C2354 1.399 . S
C2353 C2358 1.399 . S
C2354 C2353 1.399 . S
C2354 C2355 1.376 . S
C2355 H2342 0.930 . S
C2355 C2354 1.376 . S
C2355 C2356 1.388 . S
C2356 H2343 0.930 . S
C2356 C2355 1.388 . S
C2356 C2357 1.390 . S
C2357 C2356 1.390 . S
C2357 C2358 1.394 . S
C2357 C2363 1.465 . S
C2358 C2353 1.399 . S
C2358 C2357 1.394 . S
C2358 C2359 1.516 . S
C2359 C2358 1.516 . S
C2359 C2360 1.502 . S
C2359 C2361 1.561 . S
C2359 C2362 1.526 . S
C2360 H2344 0.959 . S
C2360 H2345 0.959 . S
C2360 H2346 0.961 . S
C2360 C2359 1.502 . S
C2361 H2347 0.960 . S
C2361 H2348 0.961 . S
C2361 H2349 0.959 . S
C2361 C2359 1.561 . S
C2362 C2359 1.526 . S
C2362 C2363 1.396 . S
C2362 C2367 1.390 . S
C2363 C2357 1.465 . S
C2363 C2362 1.396 . S
C2363 C2364 1.399 . S
C2364 H2350 0.929 . S
C2364 C2363 1.399 . S
C2364 C2365 1.385 . S
C2365 H2351 0.931 . S
C2365 C2364 1.385 . S
C2365 C2366 1.389 . S
C2366 C2365 1.389 . S
C2366 C2367 1.387 . S
C2367 H2352 0.930 . S
C2367 C2362 1.390 . S
C2367 C2366 1.387 . S
H2368 C2380 0.930 . S
H2369 C2382 0.930 . S
H2370 C2383 0.930 1_565 S
H2371 C2387 0.959 . S
H2372 C2387 0.959 . S
H2373 C2387 0.961 . S
H2374 C2388 0.960 . S
H2375 C2388 0.961 . S
H2376 C2388 0.959 . S
H2377 C2391 0.929 . S
H2378 C2392 0.931 . S
H2379 C2394 0.930 . S
C2380 H2368 0.930 . S
C2380 C2381 1.399 . S
C2380 C2385 1.399 . S
C2381 C2380 1.399 . S
C2381 C2382 1.376 . S
C2382 H2369 0.930 . S
C2382 C2381 1.376 . S
C2382 C2383 1.388 . S
C2383 H2370 0.930 1_545 S
C2383 C2382 1.388 . S
C2383 C2384 1.390 . S
C2384 C2383 1.390 . S
C2384 C2385 1.394 . S
C2384 C2390 1.465 . S
C2385 C2380 1.399 . S
C2385 C2384 1.394 . S
C2385 C2386 1.516 . S
C2386 C2385 1.516 . S
C2386 C2387 1.502 . S
C2386 C2388 1.561 . S
C2386 C2389 1.526 . S
C2387 H2371 0.959 . S
C2387 H2372 0.959 . S
C2387 H2373 0.961 . S
C2387 C2386 1.502 . S
C2388 H2374 0.960 . S
C2388 H2375 0.961 . S
C2388 H2376 0.959 . S
C2388 C2386 1.561 . S
C2389 C2386 1.526 . S
C2389 C2390 1.396 . S
C2389 C2394 1.390 . S
C2390 C2384 1.465 . S
C2390 C2389 1.396 . S
C2390 C2391 1.399 1_545 S
C2391 H2377 0.929 . S
C2391 C2390 1.399 1_565 S
C2391 C2392 1.385 . S
C2392 H2378 0.931 . S
C2392 C2391 1.385 . S
C2392 C2393 1.389 1_565 S
C2393 C2392 1.389 1_545 S
C2393 C2394 1.387 . S
C2394 H2379 0.930 . S
C2394 C2389 1.390 . S
C2394 C2393 1.387 . S
H2395 C2407 0.930 . S
H2396 C2409 0.930 . S
H2397 C2410 0.930 . S
H2398 C2414 0.959 . S
H2399 C2414 0.959 . S
H2400 C2414 0.961 . S
H2401 C2415 0.960 . S
H2402 C2415 0.961 . S
H2403 C2415 0.959 . S
H2404 C2418 0.929 . S
H2405 C2419 0.931 . S
H2406 C2421 0.930 . S
C2407 H2395 0.930 . S
C2407 C2408 1.399 . S
C2407 C2412 1.399 . S
C2408 C2407 1.399 . S
C2408 C2409 1.376 . S
C2409 H2396 0.930 . S
C2409 C2408 1.376 . S
C2409 C2410 1.388 . S
C2410 H2397 0.930 . S
C2410 C2409 1.388 . S
C2410 C2411 1.390 . S
C2411 C2410 1.390 . S
C2411 C2412 1.394 . S
C2411 C2417 1.465 . S
C2412 C2407 1.399 . S
C2412 C2411 1.394 . S
C2412 C2413 1.516 . S
C2413 C2412 1.516 . S
C2413 C2414 1.502 . S
C2413 C2415 1.561 . S
C2413 C2416 1.526 . S
C2414 H2398 0.959 . S
C2414 H2399 0.959 . S
C2414 H2400 0.961 . S
C2414 C2413 1.502 . S
C2415 H2401 0.960 . S
C2415 H2402 0.961 . S
C2415 H2403 0.959 . S
C2415 C2413 1.561 . S
C2416 C2413 1.526 . S
C2416 C2417 1.396 . S
C2416 C2421 1.390 . S
C2417 C2411 1.465 . S
C2417 C2416 1.396 . S
C2417 C2418 1.399 . S
C2418 H2404 0.929 . S
C2418 C2417 1.399 . S
C2418 C2419 1.385 . S
C2419 H2405 0.931 . S
C2419 C2418 1.385 . S
C2419 C2420 1.389 . S
C2420 C2419 1.389 . S
C2420 C2421 1.387 . S
C2421 H2406 0.930 . S
C2421 C2416 1.390 . S
C2421 C2420 1.387 . S
H2422 C2434 0.930 . S
H2423 C2436 0.937 . S
H2424 C2437 0.930 1_565 S
H2425 C2441 0.959 . S
H2426 C2441 0.959 . S
H2427 C2441 0.961 . S
H2428 C2442 0.960 . S
H2429 C2442 0.961 . S
H2430 C2442 0.959 . S
H2431 C2445 0.929 1_565 S
H2432 C2446 0.931 . S
H2433 C2448 0.930 . S
C2434 H2422 0.930 . S
C2434 C2435 1.399 . S
C2434 C2439 1.399 . S
C2435 C2434 1.399 . S
C2435 C2436 1.376 . S
C2436 H2423 0.937 . S
C2436 C2435 1.376 . S
C2436 C2437 1.388 . S
C2437 H2424 0.930 1_545 S
C2437 C2436 1.388 . S
C2437 C2438 1.390 . S
C2438 C2437 1.390 . S
C2438 C2439 1.394 . S
C2438 C2444 1.465 . S
C2439 C2434 1.399 . S
C2439 C2438 1.394 . S
C2439 C2440 1.516 . S
C2440 C2439 1.516 . S
C2440 C2441 1.502 . S
C2440 C2442 1.561 . S
C2440 C2443 1.526 . S
C2441 H2425 0.959 . S
C2441 H2426 0.959 . S
C2441 H2427 0.961 . S
C2441 C2440 1.502 . S
C2442 H2428 0.960 . S
C2442 H2429 0.961 . S
C2442 H2430 0.959 . S
C2442 C2440 1.561 . S
C2443 C2440 1.526 . S
C2443 C2444 1.396 . S
C2443 C2448 1.390 . S
C2444 C2438 1.465 . S
C2444 C2443 1.396 . S
C2444 C2445 1.399 . S
C2445 H2431 0.929 1_545 S
C2445 C2444 1.399 . S
C2445 C2446 1.385 . S
C2446 H2432 0.931 . S
C2446 C2445 1.385 . S
C2446 C2447 1.389 . S
C2447 C2446 1.389 . S
C2447 C2448 1.387 . S
C2448 H2433 0.930 . S
C2448 C2443 1.390 . S
C2448 C2447 1.387 . S
H2449 C2461 0.930 . S
H2450 C2463 0.930 . S
H2451 C2464 0.930 . S
H2452 C2468 0.959 . S
H2453 C2468 0.959 . S
H2454 C2468 0.961 . S
H2455 C2469 0.960 . S
H2456 C2469 0.961 . S
H2457 C2469 0.959 . S
H2458 C2472 0.929 . S
H2459 C2473 0.931 . S
H2460 C2475 0.930 . S
C2461 H2449 0.930 . S
C2461 C2462 1.399 . S
C2461 C2466 1.399 . S
C2462 C2461 1.399 . S
C2462 C2463 1.376 . S
C2463 H2450 0.930 . S
C2463 C2462 1.376 . S
C2463 C2464 1.388 . S
C2464 H2451 0.930 . S
C2464 C2463 1.388 . S
C2464 C2465 1.390 . S
C2465 C2464 1.390 . S
C2465 C2466 1.394 . S
C2465 C2471 1.465 . S
C2466 C2461 1.399 . S
C2466 C2465 1.394 . S
C2466 C2467 1.516 . S
C2467 C2466 1.516 . S
C2467 C2468 1.502 . S
C2467 C2469 1.561 . S
C2467 C2470 1.526 . S
C2468 H2452 0.959 . S
C2468 H2453 0.959 . S
C2468 H2454 0.961 . S
C2468 C2467 1.502 . S
C2469 H2455 0.960 . S
C2469 H2456 0.961 . S
C2469 H2457 0.959 . S
C2469 C2467 1.561 . S
C2470 C2467 1.526 . S
C2470 C2471 1.396 . S
C2470 C2475 1.390 . S
C2471 C2465 1.465 . S
C2471 C2470 1.396 . S
C2471 C2472 1.399 . S
C2472 H2458 0.929 . S
C2472 C2471 1.399 . S
C2472 C2473 1.385 . S
C2473 H2459 0.931 . S
C2473 C2472 1.385 . S
C2473 C2474 1.389 . S
C2474 C2473 1.389 . S
C2474 C2475 1.387 . S
C2475 H2460 0.930 . S
C2475 C2470 1.390 . S
C2475 C2474 1.387 . S
H2476 C2488 0.930 . S
H2477 C2490 0.930 . S
H2478 C2491 0.930 . S
H2479 C2495 0.959 . S
H2480 C2495 0.959 . S
H2481 C2495 0.961 . S
H2482 C2496 0.960 . S
H2483 C2496 0.961 . S
H2484 C2496 0.959 . S
H2485 C2499 0.929 . S
H2486 C2500 0.931 . S
H2487 C2502 0.930 . S
C2488 H2476 0.930 . S
C2488 C2489 1.399 . S
C2488 C2493 1.399 . S
C2489 C2488 1.399 . S
C2489 C2490 1.376 . S
C2490 H2477 0.930 . S
C2490 C2489 1.376 . S
C2490 C2491 1.388 . S
C2491 H2478 0.930 . S
C2491 C2490 1.388 . S
C2491 C2492 1.390 . S
C2492 C2491 1.390 . S
C2492 C2493 1.394 . S
C2492 C2498 1.465 . S
C2493 C2488 1.399 . S
C2493 C2492 1.394 . S
C2493 C2494 1.516 . S
C2494 C2493 1.516 . S
C2494 C2495 1.502 . S
C2494 C2496 1.561 . S
C2494 C2497 1.526 . S
C2495 H2479 0.959 . S
C2495 H2480 0.959 . S
C2495 H2481 0.961 . S
C2495 C2494 1.502 . S
C2496 H2482 0.960 . S
C2496 H2483 0.961 . S
C2496 H2484 0.959 . S
C2496 C2494 1.561 . S
C2497 C2494 1.526 . S
C2497 C2498 1.396 . S
C2497 C2502 1.390 . S
C2498 C2492 1.465 . S
C2498 C2497 1.396 . S
C2498 C2499 1.399 . S
C2499 H2485 0.929 . S
C2499 C2498 1.399 . S
C2499 C2500 1.385 . S
C2500 H2486 0.931 . S
C2500 C2499 1.385 . S
C2500 C2501 1.389 . S
C2501 C2500 1.389 . S
C2501 C2502 1.387 . S
C2502 H2487 0.930 . S
C2502 C2497 1.390 . S
C2502 C2501 1.387 . S
H2503 C2515 0.930 . S
H2504 C2517 0.930 . S
H2505 C2518 0.930 . S
H2506 C2522 0.959 . S
H2507 C2522 0.959 . S
H2508 C2522 0.961 . S
H2509 C2523 0.960 . S
H2510 C2523 0.961 . S
H2511 C2523 0.959 . S
H2512 C2526 0.929 . S
H2513 C2527 0.931 . S
H2514 C2529 0.930 . S
C2515 H2503 0.930 . S
C2515 C2516 1.399 . S
C2515 C2520 1.399 . S
C2516 C2515 1.399 . S
C2516 C2517 1.376 . S
C2517 H2504 0.930 . S
C2517 C2516 1.376 . S
C2517 C2518 1.388 . S
C2518 H2505 0.930 . S
C2518 C2517 1.388 . S
C2518 C2519 1.390 . S
C2519 C2518 1.390 . S
C2519 C2520 1.394 . S
C2519 C2525 1.465 . S
C2520 C2515 1.399 . S
C2520 C2519 1.394 . S
C2520 C2521 1.516 . S
C2521 C2520 1.516 . S
C2521 C2522 1.502 . S
C2521 C2523 1.561 . S
C2521 C2524 1.526 . S
C2522 H2506 0.959 . S
C2522 H2507 0.959 . S
C2522 H2508 0.961 . S
C2522 C2521 1.502 . S
C2523 H2509 0.960 . S
C2523 H2510 0.961 . S
C2523 H2511 0.959 . S
C2523 C2521 1.561 . S
C2524 C2521 1.526 . S
C2524 C2525 1.396 . S
C2524 C2529 1.390 . S
C2525 C2519 1.465 . S
C2525 C2524 1.396 . S
C2525 C2526 1.399 . S
C2526 H2512 0.929 . S
C2526 C2525 1.399 . S
C2526 C2527 1.385 . S
C2527 H2513 0.931 . S
C2527 C2526 1.385 . S
C2527 C2528 1.389 . S
C2528 C2527 1.389 . S
C2528 C2529 1.387 . S
C2529 H2514 0.930 . S
C2529 C2524 1.390 . S
C2529 C2528 1.387 . S
H2530 C2542 0.930 . S
H2531 C2544 0.930 . S
H2532 C2545 0.930 1_565 S
H2533 C2549 0.959 . S
H2534 C2549 0.959 . S
H2535 C2549 0.961 . S
H2536 C2550 0.960 . S
H2537 C2550 0.961 . S
H2538 C2550 0.959 . S
H2539 C2553 0.929 1_565 S
H2540 C2554 0.931 . S
H2541 C2556 0.930 . S
C2542 H2530 0.930 . S
C2542 C2543 1.399 . S
C2542 C2547 1.399 . S
C2543 C2542 1.399 . S
C2543 C2544 1.376 . S
C2544 H2531 0.930 . S
C2544 C2543 1.376 . S
C2544 C2545 1.388 . S
C2545 H2532 0.930 1_545 S
C2545 C2544 1.388 . S
C2545 C2546 1.390 . S
C2546 C2545 1.390 . S
C2546 C2547 1.394 . S
C2546 C2552 1.465 . S
C2547 C2542 1.399 . S
C2547 C2546 1.394 . S
C2547 C2548 1.516 . S
C2548 C2547 1.516 . S
C2548 C2549 1.502 . S
C2548 C2550 1.561 . S
C2548 C2551 1.526 . S
C2549 H2533 0.959 . S
C2549 H2534 0.959 . S
C2549 H2535 0.961 . S
C2549 C2548 1.502 . S
C2550 H2536 0.960 . S
C2550 H2537 0.961 . S
C2550 H2538 0.959 . S
C2550 C2548 1.561 . S
C2551 C2548 1.526 . S
C2551 C2552 1.396 . S
C2551 C2556 1.390 . S
C2552 C2546 1.465 . S
C2552 C2551 1.396 . S
C2552 C2553 1.399 . S
C2553 H2539 0.929 1_545 S
C2553 C2552 1.399 . S
C2553 C2554 1.385 . S
C2554 H2540 0.931 . S
C2554 C2553 1.385 . S
C2554 C2555 1.389 . S
C2555 C2554 1.389 . S
C2555 C2556 1.387 . S
C2556 H2541 0.930 . S
C2556 C2551 1.390 . S
C2556 C2555 1.387 . S
H2557 C2569 0.930 . S
H2558 C2571 0.930 . S
H2559 C2572 0.930 . S
H2560 C2576 0.959 . S
H2561 C2576 0.959 . S
H2562 C2576 0.961 . S
H2563 C2577 0.960 . S
H2564 C2577 0.961 . S
H2565 C2577 0.959 . S
H2566 C2580 0.929 . S
H2567 C2581 0.931 . S
H2568 C2583 0.930 . S
C2569 H2557 0.930 . S
C2569 C2570 1.399 . S
C2569 C2574 1.399 . S
C2570 C2569 1.399 . S
C2570 C2571 1.376 . S
C2571 H2558 0.930 . S
C2571 C2570 1.376 . S
C2571 C2572 1.388 . S
C2572 H2559 0.930 . S
C2572 C2571 1.388 . S
C2572 C2573 1.390 . S
C2573 C2572 1.390 . S
C2573 C2574 1.394 . S
C2573 C2579 1.465 . S
C2574 C2569 1.399 . S
C2574 C2573 1.394 . S
C2574 C2575 1.516 . S
C2575 C2574 1.516 . S
C2575 C2576 1.502 . S
C2575 C2577 1.561 . S
C2575 C2578 1.526 . S
C2576 H2560 0.959 . S
C2576 H2561 0.959 . S
C2576 H2562 0.961 . S
C2576 C2575 1.502 . S
C2577 H2563 0.960 . S
C2577 H2564 0.961 . S
C2577 H2565 0.959 . S
C2577 C2575 1.561 . S
C2578 C2575 1.526 . S
C2578 C2579 1.396 . S
C2578 C2583 1.390 . S
C2579 C2573 1.465 . S
C2579 C2578 1.396 . S
C2579 C2580 1.399 . S
C2580 H2566 0.929 . S
C2580 C2579 1.399 . S
C2580 C2581 1.385 . S
C2581 H2567 0.931 . S
C2581 C2580 1.385 . S
C2581 C2582 1.389 . S
C2582 C2581 1.389 . S
C2582 C2583 1.387 . S
C2583 H2568 0.930 . S
C2583 C2578 1.390 . S
C2583 C2582 1.387 . S
H2584 C2596 0.930 . S
H2585 C2598 0.930 . S
H2586 C2599 0.930 . S
H2587 C2603 0.959 . S
H2588 C2603 0.959 . S
H2589 C2603 0.961 . S
H2590 C2604 0.960 . S
H2591 C2604 0.961 . S
H2592 C2604 0.959 . S
H2593 C2607 0.929 . S
H2594 C2608 0.931 . S
H2595 C2610 0.930 . S
C2596 H2584 0.930 . S
C2596 C2597 1.399 . S
C2596 C2601 1.399 . S
C2597 C2596 1.399 . S
C2597 C2598 1.376 . S
C2598 H2585 0.930 . S
C2598 C2597 1.376 . S
C2598 C2599 1.388 . S
C2599 H2586 0.930 . S
C2599 C2598 1.388 . S
C2599 C2600 1.390 . S
C2600 C2599 1.390 . S
C2600 C2601 1.394 . S
C2600 C2606 1.465 . S
C2601 C2596 1.399 . S
C2601 C2600 1.394 . S
C2601 C2602 1.516 . S
C2602 C2601 1.516 . S
C2602 C2603 1.502 . S
C2602 C2604 1.561 . S
C2602 C2605 1.526 . S
C2603 H2587 0.959 . S
C2603 H2588 0.959 . S
C2603 H2589 0.961 . S
C2603 C2602 1.502 . S
C2604 H2590 0.960 . S
C2604 H2591 0.961 . S
C2604 H2592 0.959 . S
C2604 C2602 1.561 . S
C2605 C2602 1.526 . S
C2605 C2606 1.396 . S
C2605 C2610 1.390 . S
C2606 C2600 1.465 . S
C2606 C2605 1.396 . S
C2606 C2607 1.399 . S
C2607 H2593 0.929 . S
C2607 C2606 1.399 . S
C2607 C2608 1.385 1_554 S
C2608 H2594 0.931 . S
C2608 C2607 1.385 1_556 S
C2608 C2609 1.389 1_556 S
C2609 C2608 1.389 1_554 S
C2609 C2610 1.387 . S
C2610 H2595 0.930 . S
C2610 C2605 1.390 . S
C2610 C2609 1.387 . S
H2611 C2623 0.930 . S
H2612 C2625 0.930 . S
H2613 C2626 0.930 . S
H2614 C2630 0.959 . S
H2615 C2630 0.959 1_556 S
H2616 C2630 0.961 1_556 S
H2617 C2631 0.960 . S
H2618 C2631 0.961 . S
H2619 C2631 0.959 . S
H2620 C2634 0.929 . S
H2621 C2635 0.931 . S
H2622 C2637 0.930 . S
C2623 H2611 0.930 . S
C2623 C2624 1.399 . S
C2623 C2628 1.399 . S
C2624 C2623 1.399 . S
C2624 C2625 1.376 . S
C2625 H2612 0.930 . S
C2625 C2624 1.376 . S
C2625 C2626 1.388 . S
C2626 H2613 0.930 . S
C2626 C2625 1.388 . S
C2626 C2627 1.390 . S
C2627 C2626 1.390 . S
C2627 C2628 1.394 . S
C2627 C2633 1.465 . S
C2628 C2623 1.399 . S
C2628 C2627 1.394 . S
C2628 C2629 1.516 . S
C2629 C2628 1.516 . S
C2629 C2630 1.502 . S
C2629 C2631 1.561 1_554 S
C2629 C2632 1.526 . S
C2630 H2614 0.959 . S
C2630 H2615 0.959 1_554 S
C2630 H2616 0.961 1_554 S
C2630 C2629 1.502 . S
C2631 H2617 0.960 . S
C2631 H2618 0.961 . S
C2631 H2619 0.959 . S
C2631 C2629 1.561 1_556 S
C2632 C2629 1.526 . S
C2632 C2633 1.396 . S
C2632 C2637 1.390 . S
C2633 C2627 1.465 . S
C2633 C2632 1.396 . S
C2633 C2634 1.399 . S
C2634 H2620 0.929 . S
C2634 C2633 1.399 . S
C2634 C2635 1.385 . S
C2635 H2621 0.931 . S
C2635 C2634 1.385 . S
C2635 C2636 1.389 . S
C2636 C2635 1.389 . S
C2636 C2637 1.387 . S
C2637 H2622 0.930 . S
C2637 C2632 1.390 . S
C2637 C2636 1.387 . S
H2638 C2650 0.930 . S
H2639 C2652 0.930 . S
H2640 C2653 0.930 . S
H2641 C2657 0.959 . S
H2642 C2657 0.959 . S
H2643 C2657 0.961 . S
H2644 C2658 0.960 . S
H2645 C2658 0.961 . S
H2646 C2658 0.959 . S
H2647 C2661 0.929 . S
H2648 C2662 0.931 . S
H2649 C2664 0.930 . S
C2650 H2638 0.930 . S
C2650 C2651 1.399 . S
C2650 C2655 1.399 . S
C2651 C2650 1.399 . S
C2651 C2652 1.376 . S
C2652 H2639 0.930 . S
C2652 C2651 1.376 . S
C2652 C2653 1.388 . S
C2653 H2640 0.930 . S
C2653 C2652 1.388 . S
C2653 C2654 1.390 . S
C2654 C2653 1.390 . S
C2654 C2655 1.394 . S
C2654 C2660 1.465 . S
C2655 C2650 1.399 . S
C2655 C2654 1.394 . S
C2655 C2656 1.516 . S
C2656 C2655 1.516 . S
C2656 C2657 1.502 . S
C2656 C2658 1.561 . S
C2656 C2659 1.526 . S
C2657 H2641 0.959 . S
C2657 H2642 0.959 . S
C2657 H2643 0.961 . S
C2657 C2656 1.502 . S
C2658 H2644 0.960 . S
C2658 H2645 0.961 . S
C2658 H2646 0.959 . S
C2658 C2656 1.561 . S
C2659 C2656 1.526 . S
C2659 C2660 1.396 . S
C2659 C2664 1.390 . S
C2660 C2654 1.465 . S
C2660 C2659 1.396 . S
C2660 C2661 1.399 . S
C2661 H2647 0.929 . S
C2661 C2660 1.399 . S
C2661 C2662 1.385 . S
C2662 H2648 0.931 . S
C2662 C2661 1.385 . S
C2662 C2663 1.389 . S
C2663 C2662 1.389 . S
C2663 C2664 1.387 . S
C2664 H2649 0.930 . S
C2664 C2659 1.390 . S
C2664 C2663 1.387 . S
H2665 C2677 0.930 . S
H2666 C2679 0.930 . S
H2667 C2680 0.930 . S
H2668 C2684 0.959 . S
H2669 C2684 0.959 . S
H2670 C2684 0.961 . S
H2671 C2685 0.960 . S
H2672 C2685 0.961 . S
H2673 C2685 0.959 . S
H2674 C2688 0.929 . S
H2675 C2689 0.931 . S
H2676 C2691 0.930 . S
C2677 H2665 0.930 . S
C2677 C2678 1.399 . S
C2677 C2682 1.399 . S
C2678 C2677 1.399 . S
C2678 C2679 1.376 . S
C2679 H2666 0.930 . S
C2679 C2678 1.376 . S
C2679 C2680 1.388 . S
C2680 H2667 0.930 . S
C2680 C2679 1.388 . S
C2680 C2681 1.390 . S
C2681 C2680 1.390 . S
C2681 C2682 1.394 . S
C2681 C2687 1.465 . S
C2682 C2677 1.399 . S
C2682 C2681 1.394 . S
C2682 C2683 1.516 . S
C2683 C2682 1.516 . S
C2683 C2684 1.502 . S
C2683 C2685 1.561 . S
C2683 C2686 1.526 . S
C2684 H2668 0.959 . S
C2684 H2669 0.959 . S
C2684 H2670 0.961 . S
C2684 C2683 1.502 . S
C2685 H2671 0.960 . S
C2685 H2672 0.961 . S
C2685 H2673 0.959 . S
C2685 C2683 1.561 . S
C2686 C2683 1.526 . S
C2686 C2687 1.396 . S
C2686 C2691 1.390 . S
C2687 C2681 1.465 . S
C2687 C2686 1.396 . S
C2687 C2688 1.399 . S
C2688 H2674 0.929 . S
C2688 C2687 1.399 . S
C2688 C2689 1.385 . S
C2689 H2675 0.931 . S
C2689 C2688 1.385 . S
C2689 C2690 1.389 . S
C2690 C2689 1.389 . S
C2690 C2691 1.387 . S
C2691 H2676 0.930 . S
C2691 C2686 1.390 . S
C2691 C2690 1.387 . S
H2692 C2704 0.930 1_545 S
H2693 C2706 0.930 . S
H2694 C2707 0.930 . S
H2695 C2711 0.959 . S
H2696 C2711 0.959 . S
H2697 C2711 0.961 . S
H2698 C2712 0.960 . S
H2699 C2712 0.961 . S
H2700 C2712 0.959 . S
H2701 C2715 0.929 . S
H2702 C2716 0.931 . S
H2703 C2718 0.930 . S
C2704 H2692 0.930 1_565 S
C2704 C2705 1.399 . S
C2704 C2709 1.399 . S
C2705 C2704 1.399 . S
C2705 C2706 1.376 . S
C2706 H2693 0.930 . S
C2706 C2705 1.376 . S
C2706 C2707 1.388 . S
C2707 H2694 0.930 . S
C2707 C2706 1.388 . S
C2707 C2708 1.390 . S
C2708 C2707 1.390 . S
C2708 C2709 1.394 . S
C2708 C2714 1.465 . S
C2709 C2704 1.399 . S
C2709 C2708 1.394 . S
C2709 C2710 1.516 . S
C2710 C2709 1.516 . S
C2710 C2711 1.502 1_565 S
C2710 C2712 1.561 . S
C2710 C2713 1.526 . S
C2711 H2695 0.959 . S
C2711 H2696 0.959 . S
C2711 H2697 0.961 . S
C2711 C2710 1.502 1_545 S
C2712 H2698 0.960 . S
C2712 H2699 0.961 . S
C2712 H2700 0.959 . S
C2712 C2710 1.561 . S
C2713 C2710 1.526 . S
C2713 C2714 1.396 . S
C2713 C2718 1.390 . S
C2714 C2708 1.465 . S
C2714 C2713 1.396 . S
C2714 C2715 1.399 . S
C2715 H2701 0.929 . S
C2715 C2714 1.399 . S
C2715 C2716 1.385 . S
C2716 H2702 0.931 . S
C2716 C2715 1.385 . S
C2716 C2717 1.389 . S
C2717 C2716 1.389 . S
C2717 C2718 1.387 . S
C2718 H2703 0.930 . S
C2718 C2713 1.390 . S
C2718 C2717 1.387 . S
H2719 C2731 0.930 . S
H2720 C2733 0.930 . S
H2721 C2734 0.930 . S
H2722 C2738 0.959 . S
H2723 C2738 0.959 . S
H2724 C2738 0.961 . S
H2725 C2739 0.960 . S
H2726 C2739 0.961 . S
H2727 C2739 0.959 . S
H2728 C2742 0.929 . S
H2729 C2743 0.931 . S
H2730 C2745 0.930 . S
C2731 H2719 0.930 . S
C2731 C2732 1.399 . S
C2731 C2736 1.399 . S
C2732 C2731 1.399 . S
C2732 C2733 1.376 . S
C2733 H2720 0.930 . S
C2733 C2732 1.376 . S
C2733 C2734 1.388 . S
C2734 H2721 0.930 . S
C2734 C2733 1.388 . S
C2734 C2735 1.390 . S
C2735 C2734 1.390 . S
C2735 C2736 1.394 . S
C2735 C2741 1.465 . S
C2736 C2731 1.399 . S
C2736 C2735 1.394 . S
C2736 C2737 1.516 . S
C2737 C2736 1.516 . S
C2737 C2738 1.502 . S
C2737 C2739 1.561 . S
C2737 C2740 1.526 . S
C2738 H2722 0.959 . S
C2738 H2723 0.959 . S
C2738 H2724 0.961 . S
C2738 C2737 1.502 . S
C2739 H2725 0.960 . S
C2739 H2726 0.961 . S
C2739 H2727 0.959 . S
C2739 C2737 1.561 . S
C2740 C2737 1.526 . S
C2740 C2741 1.396 . S
C2740 C2745 1.390 . S
C2741 C2735 1.465 . S
C2741 C2740 1.396 . S
C2741 C2742 1.399 . S
C2742 H2728 0.929 . S
C2742 C2741 1.399 . S
C2742 C2743 1.385 . S
C2743 H2729 0.931 . S
C2743 C2742 1.385 . S
C2743 C2744 1.389 . S
C2744 C2743 1.389 . S
C2744 C2745 1.387 . S
C2745 H2730 0.930 . S
C2745 C2740 1.390 . S
C2745 C2744 1.387 . S
H2746 C2758 0.930 . S
H2747 C2760 0.930 . S
H2748 C2761 0.930 . S
H2749 C2765 0.959 . S
H2750 C2765 0.959 . S
H2751 C2765 0.961 . S
H2752 C2766 0.960 . S
H2753 C2766 0.961 . S
H2754 C2766 0.959 . S
H2755 C2769 0.929 . S
H2756 C2770 0.931 . S
H2757 C2772 0.930 . S
C2758 H2746 0.930 . S
C2758 C2759 1.399 . S
C2758 C2763 1.399 . S
C2759 C2758 1.399 . S
C2759 C2760 1.376 . S
C2760 H2747 0.930 . S
C2760 C2759 1.376 . S
C2760 C2761 1.388 . S
C2761 H2748 0.930 . S
C2761 C2760 1.388 . S
C2761 C2762 1.390 . S
C2762 C2761 1.390 . S
C2762 C2763 1.394 . S
C2762 C2768 1.465 . S
C2763 C2758 1.399 . S
C2763 C2762 1.394 . S
C2763 C2764 1.516 . S
C2764 C2763 1.516 . S
C2764 C2765 1.502 . S
C2764 C2766 1.561 . S
C2764 C2767 1.526 . S
C2765 H2749 0.959 . S
C2765 H2750 0.959 . S
C2765 H2751 0.961 . S
C2765 C2764 1.502 . S
C2766 H2752 0.960 . S
C2766 H2753 0.961 . S
C2766 H2754 0.959 . S
C2766 C2764 1.561 . S
C2767 C2764 1.526 . S
C2767 C2768 1.396 . S
C2767 C2772 1.390 . S
C2768 C2762 1.465 . S
C2768 C2767 1.396 . S
C2768 C2769 1.399 . S
C2769 H2755 0.929 . S
C2769 C2768 1.399 . S
C2769 C2770 1.385 . S
C2770 H2756 0.931 . S
C2770 C2769 1.385 . S
C2770 C2771 1.389 . S
C2771 C2770 1.389 . S
C2771 C2772 1.387 . S
C2772 H2757 0.930 . S
C2772 C2767 1.390 . S
C2772 C2771 1.387 . S
H2773 C2785 0.930 . S
H2774 C2787 0.930 . S
H2775 C2788 0.930 . S
H2776 C2792 0.959 . S
H2777 C2792 0.959 . S
H2778 C2792 0.961 . S
H2779 C2793 0.960 . S
H2780 C2793 0.961 . S
H2781 C2793 0.959 . S
H2782 C2796 0.929 . S
H2783 C2797 0.931 . S
H2784 C2799 0.930 . S
C2785 H2773 0.930 . S
C2785 C2786 1.399 . S
C2785 C2790 1.399 . S
C2786 C2785 1.399 . S
C2786 C2787 1.376 . S
C2787 H2774 0.930 . S
C2787 C2786 1.376 . S
C2787 C2788 1.388 . S
C2788 H2775 0.930 . S
C2788 C2787 1.388 . S
C2788 C2789 1.390 . S
C2789 C2788 1.390 . S
C2789 C2790 1.394 . S
C2789 C2795 1.465 . S
C2790 C2785 1.399 . S
C2790 C2789 1.394 . S
C2790 C2791 1.516 . S
C2791 C2790 1.516 . S
C2791 C2792 1.502 . S
C2791 C2793 1.561 . S
C2791 C2794 1.526 . S
C2792 H2776 0.959 . S
C2792 H2777 0.959 . S
C2792 H2778 0.961 . S
C2792 C2791 1.502 . S
C2793 H2779 0.960 . S
C2793 H2780 0.961 . S
C2793 H2781 0.959 . S
C2793 C2791 1.561 . S
C2794 C2791 1.526 . S
C2794 C2795 1.396 . S
C2794 C2799 1.390 . S
C2795 C2789 1.465 . S
C2795 C2794 1.396 . S
C2795 C2796 1.399 . S
C2796 H2782 0.929 . S
C2796 C2795 1.399 . S
C2796 C2797 1.385 . S
C2797 H2783 0.931 . S
C2797 C2796 1.385 . S
C2797 C2798 1.389 . S
C2798 C2797 1.389 . S
C2798 C2799 1.387 . S
C2799 H2784 0.930 . S
C2799 C2794 1.390 . S
C2799 C2798 1.387 . S
H2800 C2812 0.930 . S
H2801 C2814 0.930 . S
H2802 C2815 0.930 . S
H2803 C2819 0.959 . S
H2804 C2819 0.959 . S
H2805 C2819 0.961 . S
H2806 C2820 0.960 . S
H2807 C2820 0.961 . S
H2808 C2820 0.959 . S
H2809 C2823 0.929 . S
H2810 C2824 0.931 . S
H2811 C2826 0.930 . S
C2812 H2800 0.930 . S
C2812 C2813 1.399 . S
C2812 C2817 1.399 . S
C2813 C2812 1.399 . S
C2813 C2814 1.376 . S
C2814 H2801 0.930 . S
C2814 C2813 1.376 . S
C2814 C2815 1.388 . S
C2815 H2802 0.930 . S
C2815 C2814 1.388 . S
C2815 C2816 1.390 . S
C2816 C2815 1.390 . S
C2816 C2817 1.394 . S
C2816 C2822 1.465 . S
C2817 C2812 1.399 . S
C2817 C2816 1.394 . S
C2817 C2818 1.516 . S
C2818 C2817 1.516 . S
C2818 C2819 1.502 . S
C2818 C2820 1.561 . S
C2818 C2821 1.526 . S
C2819 H2803 0.959 . S
C2819 H2804 0.959 . S
C2819 H2805 0.961 . S
C2819 C2818 1.502 . S
C2820 H2806 0.960 . S
C2820 H2807 0.961 . S
C2820 H2808 0.959 . S
C2820 C2818 1.561 . S
C2821 C2818 1.526 . S
C2821 C2822 1.396 . S
C2821 C2826 1.390 . S
C2822 C2816 1.465 . S
C2822 C2821 1.396 . S
C2822 C2823 1.399 . S
C2823 H2809 0.929 . S
C2823 C2822 1.399 . S
C2823 C2824 1.385 . S
C2824 H2810 0.931 . S
C2824 C2823 1.385 . S
C2824 C2825 1.389 . S
C2825 C2824 1.389 . S
C2825 C2826 1.387 . S
C2826 H2811 0.930 . S
C2826 C2821 1.390 . S
C2826 C2825 1.387 . S
H2827 C2839 0.930 . S
H2828 C2841 0.930 . S
H2829 C2842 0.930 . S
H2830 C2846 0.959 . S
H2831 C2846 0.959 . S
H2832 C2846 0.961 . S
H2833 C2847 0.960 . S
H2834 C2847 0.961 . S
H2835 C2847 0.959 . S
H2836 C2850 0.929 . S
H2837 C2851 0.931 . S
H2838 C2853 0.930 . S
C2839 H2827 0.930 . S
C2839 C2840 1.399 . S
C2839 C2844 1.399 . S
C2840 C2839 1.399 . S
C2840 C2841 1.376 . S
C2841 H2828 0.930 . S
C2841 C2840 1.376 . S
C2841 C2842 1.388 . S
C2842 H2829 0.930 . S
C2842 C2841 1.388 . S
C2842 C2843 1.390 . S
C2843 C2842 1.390 . S
C2843 C2844 1.394 . S
C2843 C2849 1.465 . S
C2844 C2839 1.399 . S
C2844 C2843 1.394 . S
C2844 C2845 1.516 . S
C2845 C2844 1.516 . S
C2845 C2846 1.502 . S
C2845 C2847 1.561 . S
C2845 C2848 1.526 . S
C2846 H2830 0.959 . S
C2846 H2831 0.959 . S
C2846 H2832 0.961 . S
C2846 C2845 1.502 . S
C2847 H2833 0.960 . S
C2847 H2834 0.961 . S
C2847 H2835 0.959 . S
C2847 C2845 1.561 . S
C2848 C2845 1.526 . S
C2848 C2849 1.396 . S
C2848 C2853 1.390 . S
C2849 C2843 1.465 . S
C2849 C2848 1.396 . S
C2849 C2850 1.399 . S
C2850 H2836 0.929 . S
C2850 C2849 1.399 . S
C2850 C2851 1.385 . S
C2851 H2837 0.931 . S
C2851 C2850 1.385 . S
C2851 C2852 1.389 . S
C2852 C2851 1.389 . S
C2852 C2853 1.387 . S
C2853 H2838 0.930 . S
C2853 C2848 1.390 . S
C2853 C2852 1.387 . S
H2854 C2866 0.930 . S
H2855 C2868 0.944 . S
H2856 C2869 0.940 1_554 S
H2857 C2873 0.959 . S
H2858 C2873 0.959 . S
H2859 C2873 0.961 . S
H2860 C2874 0.960 . S
H2861 C2874 0.961 . S
H2862 C2874 0.959 . S
H2863 C2877 0.917 1_655 S
H2864 C2878 0.931 . S
H2865 C2880 0.930 . S
C2866 H2854 0.930 . S
C2866 C2867 1.399 . S
C2866 C2871 1.399 . S
C2867 C2866 1.399 . S
C2867 C2868 1.350 1_455 S
C2868 H2855 0.944 . S
C2868 C2867 1.350 1_655 S
C2868 C2869 1.397 . S
C2869 H2856 0.940 1_556 S
C2869 C2868 1.397 . S
C2869 C2870 1.385 1_655 S
C2870 C2869 1.385 1_455 S
C2870 C2871 1.394 . S
C2870 C2876 1.465 1_556 S
C2871 C2866 1.399 . S
C2871 C2870 1.394 . S
C2871 C2872 1.516 . S
C2872 C2871 1.516 . S
C2872 C2873 1.502 . S
C2872 C2874 1.561 . S
C2872 C2875 1.526 . S
C2873 H2857 0.959 . S
C2873 H2858 0.959 . S
C2873 H2859 0.961 . S
C2873 C2872 1.502 . S
C2874 H2860 0.960 . S
C2874 H2861 0.961 . S
C2874 H2862 0.959 . S
C2874 C2872 1.561 . S
C2875 C2872 1.526 . S
C2875 C2876 1.396 1_556 S
C2875 C2880 1.390 . S
C2876 C2870 1.465 1_554 S
C2876 C2875 1.396 1_554 S
C2876 C2877 1.399 . S
C2877 H2863 0.917 1_455 S
C2877 C2876 1.399 . S
C2877 C2878 1.385 . S
C2878 H2864 0.931 . S
C2878 C2877 1.385 . S
C2878 C2879 1.389 . S
C2879 C2878 1.389 . S
C2879 C2880 1.387 1_554 S
C2880 H2865 0.930 . S
C2880 C2875 1.390 . S
C2880 C2879 1.387 1_556 S
H2881 C2893 0.930 . S
H2882 C2895 0.930 . S
H2883 C2896 0.930 . S
H2884 C2900 0.959 1_455 S
H2885 C2900 0.959 . S
H2886 C2900 0.961 1_455 S
H2887 C2901 0.960 . S
H2888 C2901 0.961 . S
H2889 C2901 0.959 . S
H2890 C2904 0.929 . S
H2891 C2905 0.931 . S
H2892 C2907 0.930 . S
C2893 H2881 0.930 . S
C2893 C2894 1.399 . S
C2893 C2898 1.399 1_455 S
C2894 C2893 1.399 . S
C2894 C2895 1.376 . S
C2895 H2882 0.930 . S
C2895 C2894 1.376 . S
C2895 C2896 1.388 1_455 S
C2896 H2883 0.930 . S
C2896 C2895 1.388 1_655 S
C2896 C2897 1.390 . S
C2897 C2896 1.390 . S
C2897 C2898 1.394 . S
C2897 C2903 1.465 . S
C2898 C2893 1.399 1_655 S
C2898 C2897 1.394 . S
C2898 C2899 1.516 . S
C2899 C2898 1.516 . S
C2899 C2900 1.502 . S
C2899 C2901 1.561 . S
C2899 C2902 1.526 . S
C2900 H2884 0.959 1_655 S
C2900 H2885 0.959 . S
C2900 H2886 0.961 1_655 S
C2900 C2899 1.502 . S
C2901 H2887 0.960 . S
C2901 H2888 0.961 . S
C2901 H2889 0.959 . S
C2901 C2899 1.561 . S
C2902 C2899 1.526 . S
C2902 C2903 1.396 . S
C2902 C2907 1.390 . S
C2903 C2897 1.465 . S
C2903 C2902 1.396 . S
C2903 C2904 1.399 . S
C2904 H2890 0.929 . S
C2904 C2903 1.399 . S
C2904 C2905 1.385 . S
C2905 H2891 0.931 . S
C2905 C2904 1.385 . S
C2905 C2906 1.389 . S
C2906 C2905 1.389 . S
C2906 C2907 1.387 . S
C2907 H2892 0.930 . S
C2907 C2902 1.390 . S
C2907 C2906 1.387 . S
H2908 C2920 0.930 . S
H2909 C2922 0.930 . S
H2910 C2923 0.930 . S
H2911 C2927 0.959 . S
H2912 C2927 0.959 . S
H2913 C2927 0.961 . S
H2914 C2928 0.960 . S
H2915 C2928 0.961 . S
H2916 C2928 0.959 . S
H2917 C2931 0.929 . S
H2918 C2932 0.931 . S
H2919 C2934 0.930 . S
C2920 H2908 0.930 . S
C2920 C2921 1.399 . S
C2920 C2925 1.399 . S
C2921 C2920 1.399 . S
C2921 C2922 1.376 . S
C2922 H2909 0.930 . S
C2922 C2921 1.376 . S
C2922 C2923 1.388 . S
C2923 H2910 0.930 . S
C2923 C2922 1.388 . S
C2923 C2924 1.390 . S
C2924 C2923 1.390 . S
C2924 C2925 1.394 . S
C2924 C2930 1.465 . S
C2925 C2920 1.399 . S
C2925 C2924 1.394 . S
C2925 C2926 1.516 . S
C2926 C2925 1.516 . S
C2926 C2927 1.502 . S
C2926 C2928 1.561 . S
C2926 C2929 1.526 . S
C2927 H2911 0.959 . S
C2927 H2912 0.959 . S
C2927 H2913 0.961 . S
C2927 C2926 1.502 . S
C2928 H2914 0.960 . S
C2928 H2915 0.961 . S
C2928 H2916 0.959 . S
C2928 C2926 1.561 . S
C2929 C2926 1.526 . S
C2929 C2930 1.396 . S
C2929 C2934 1.390 . S
C2930 C2924 1.465 . S
C2930 C2929 1.396 . S
C2930 C2931 1.399 . S
C2931 H2917 0.929 . S
C2931 C2930 1.399 . S
C2931 C2932 1.385 . S
C2932 H2918 0.931 . S
C2932 C2931 1.385 . S
C2932 C2933 1.389 . S
C2933 C2932 1.389 . S
C2933 C2934 1.387 . S
C2934 H2919 0.930 . S
C2934 C2929 1.390 . S
C2934 C2933 1.387 . S
H2935 C2947 0.930 . S
H2936 C2949 0.930 . S
H2937 C2950 0.930 . S
H2938 C2954 0.959 . S
H2939 C2954 0.959 . S
H2940 C2954 0.961 . S
H2941 C2955 0.960 . S
H2942 C2955 0.961 . S
H2943 C2955 0.959 . S
H2944 C2958 0.929 . S
H2945 C2959 0.931 . S
H2946 C2961 0.930 . S
C2947 H2935 0.930 . S
C2947 C2948 1.399 . S
C2947 C2952 1.399 . S
C2948 C2947 1.399 . S
C2948 C2949 1.376 . S
C2949 H2936 0.930 . S
C2949 C2948 1.376 . S
C2949 C2950 1.388 . S
C2950 H2937 0.930 . S
C2950 C2949 1.388 . S
C2950 C2951 1.390 . S
C2951 C2950 1.390 . S
C2951 C2952 1.394 . S
C2951 C2957 1.465 . S
C2952 C2947 1.399 . S
C2952 C2951 1.394 . S
C2952 C2953 1.516 . S
C2953 C2952 1.516 . S
C2953 C2954 1.502 . S
C2953 C2955 1.561 . S
C2953 C2956 1.526 . S
C2954 H2938 0.959 . S
C2954 H2939 0.959 . S
C2954 H2940 0.961 . S
C2954 C2953 1.502 . S
C2955 H2941 0.960 . S
C2955 H2942 0.961 . S
C2955 H2943 0.959 . S
C2955 C2953 1.561 . S
C2956 C2953 1.526 . S
C2956 C2957 1.396 . S
C2956 C2961 1.390 . S
C2957 C2951 1.465 . S
C2957 C2956 1.396 . S
C2957 C2958 1.399 . S
C2958 H2944 0.929 . S
C2958 C2957 1.399 . S
C2958 C2959 1.385 . S
C2959 H2945 0.931 . S
C2959 C2958 1.385 . S
C2959 C2960 1.389 . S
C2960 C2959 1.389 . S
C2960 C2961 1.387 . S
C2961 H2946 0.930 . S
C2961 C2956 1.390 . S
C2961 C2960 1.387 . S
H2962 C2974 0.930 . S
H2963 C2976 0.930 . S
H2964 C2977 0.930 . S
H2965 C2981 0.959 . S
H2966 C2981 0.959 . S
H2967 C2981 0.961 . S
H2968 C2982 0.960 . S
H2969 C2982 0.961 . S
H2970 C2982 0.959 . S
H2971 C2985 0.929 . S
H2972 C2986 0.931 . S
H2973 C2988 0.930 . S
C2974 H2962 0.930 . S
C2974 C2975 1.399 . S
C2974 C2979 1.399 . S
C2975 C2974 1.399 . S
C2975 C2976 1.376 . S
C2976 H2963 0.930 . S
C2976 C2975 1.376 . S
C2976 C2977 1.388 . S
C2977 H2964 0.930 . S
C2977 C2976 1.388 . S
C2977 C2978 1.390 . S
C2978 C2977 1.390 . S
C2978 C2979 1.394 . S
C2978 C2984 1.465 . S
C2979 C2974 1.399 . S
C2979 C2978 1.394 . S
C2979 C2980 1.516 . S
C2980 C2979 1.516 . S
C2980 C2981 1.502 . S
C2980 C2982 1.561 . S
C2980 C2983 1.526 . S
C2981 H2965 0.959 . S
C2981 H2966 0.959 . S
C2981 H2967 0.961 . S
C2981 C2980 1.502 . S
C2982 H2968 0.960 . S
C2982 H2969 0.961 . S
C2982 H2970 0.959 . S
C2982 C2980 1.561 . S
C2983 C2980 1.526 . S
C2983 C2984 1.396 . S
C2983 C2988 1.390 . S
C2984 C2978 1.465 . S
C2984 C2983 1.396 . S
C2984 C2985 1.399 . S
C2985 H2971 0.929 . S
C2985 C2984 1.399 . S
C2985 C2986 1.385 . S
C2986 H2972 0.931 . S
C2986 C2985 1.385 . S
C2986 C2987 1.389 . S
C2987 C2986 1.389 . S
C2987 C2988 1.387 . S
C2988 H2973 0.930 . S
C2988 C2983 1.390 . S
C2988 C2987 1.387 . S
H2989 C3001 0.930 . S
H2990 C3003 0.930 . S
H2991 C3004 0.930 . S
H2992 C3008 0.959 . S
H2993 C3008 0.959 . S
H2994 C3008 0.961 . S
H2995 C3009 0.960 . S
H2996 C3009 0.961 . S
H2997 C3009 0.959 . S
H2998 C3012 0.929 . S
H2999 C3013 0.931 . S
H3000 C3015 0.930 . S
C3001 H2989 0.930 . S
C3001 C3002 1.399 . S
C3001 C3006 1.399 . S
C3002 C3001 1.399 . S
C3002 C3003 1.376 . S
C3003 H2990 0.930 . S
C3003 C3002 1.376 . S
C3003 C3004 1.388 . S
C3004 H2991 0.930 . S
C3004 C3003 1.388 . S
C3004 C3005 1.390 . S
C3005 C3004 1.390 . S
C3005 C3006 1.394 . S
C3005 C3011 1.465 . S
C3006 C3001 1.399 . S
C3006 C3005 1.394 . S
C3006 C3007 1.516 . S
C3007 C3006 1.516 . S
C3007 C3008 1.502 . S
C3007 C3009 1.561 . S
C3007 C3010 1.526 . S
C3008 H2992 0.959 . S
C3008 H2993 0.959 . S
C3008 H2994 0.961 . S
C3008 C3007 1.502 . S
C3009 H2995 0.960 . S
C3009 H2996 0.961 . S
C3009 H2997 0.959 . S
C3009 C3007 1.561 . S
C3010 C3007 1.526 . S
C3010 C3011 1.396 . S
C3010 C3015 1.390 . S
C3011 C3005 1.465 . S
C3011 C3010 1.396 . S
C3011 C3012 1.399 . S
C3012 H2998 0.929 . S
C3012 C3011 1.399 . S
C3012 C3013 1.385 . S
C3013 H2999 0.931 . S
C3013 C3012 1.385 . S
C3013 C3014 1.389 . S
C3014 C3013 1.389 . S
C3014 C3015 1.387 . S
C3015 H3000 0.930 . S
C3015 C3010 1.390 . S
C3015 C3014 1.387 . S
H3016 C3028 0.930 . S
H3017 C3030 0.930 . S
H3018 C3031 0.930 . S
H3019 C3035 0.959 . S
H3020 C3035 0.959 . S
H3021 C3035 0.961 . S
H3022 C3036 0.960 . S
H3023 C3036 0.961 . S
H3024 C3036 0.959 . S
H3025 C3039 0.929 . S
H3026 C3040 0.931 . S
H3027 C3042 0.930 . S
C3028 H3016 0.930 . S
C3028 C3029 1.399 . S
C3028 C3033 1.399 . S
C3029 C3028 1.399 . S
C3029 C3030 1.376 . S
C3030 H3017 0.930 . S
C3030 C3029 1.376 . S
C3030 C3031 1.388 . S
C3031 H3018 0.930 . S
C3031 C3030 1.388 . S
C3031 C3032 1.390 . S
C3032 C3031 1.390 . S
C3032 C3033 1.394 . S
C3032 C3038 1.465 . S
C3033 C3028 1.399 . S
C3033 C3032 1.394 . S
C3033 C3034 1.516 . S
C3034 C3033 1.516 . S
C3034 C3035 1.502 . S
C3034 C3036 1.561 . S
C3034 C3037 1.526 . S
C3035 H3019 0.959 . S
C3035 H3020 0.959 . S
C3035 H3021 0.961 . S
C3035 C3034 1.502 . S
C3036 H3022 0.960 . S
C3036 H3023 0.961 . S
C3036 H3024 0.959 . S
C3036 C3034 1.561 . S
C3037 C3034 1.526 . S
C3037 C3038 1.396 . S
C3037 C3042 1.390 . S
C3038 C3032 1.465 . S
C3038 C3037 1.396 . S
C3038 C3039 1.399 . S
C3039 H3025 0.929 . S
C3039 C3038 1.399 . S
C3039 C3040 1.385 . S
C3040 H3026 0.931 . S
C3040 C3039 1.385 . S
C3040 C3041 1.389 . S
C3041 C3040 1.389 . S
C3041 C3042 1.387 . S
C3042 H3027 0.930 . S
C3042 C3037 1.390 . S
C3042 C3041 1.387 . S
H3043 C3055 0.930 . S
H3044 C3057 0.930 . S
H3045 C3058 0.930 . S
H3046 C3062 0.959 . S
H3047 C3062 0.959 . S
H3048 C3062 0.961 . S
H3049 C3063 0.960 . S
H3050 C3063 0.961 . S
H3051 C3063 0.959 . S
H3052 C3066 0.929 . S
H3053 C3067 0.931 . S
H3054 C3069 0.930 . S
C3055 H3043 0.930 . S
C3055 C3056 1.399 1_556 S
C3055 C3060 1.399 . S
C3056 C3055 1.399 1_554 S
C3056 C3057 1.376 . S
C3057 H3044 0.930 . S
C3057 C3056 1.376 . S
C3057 C3058 1.388 1_554 S
C3058 H3045 0.930 . S
C3058 C3057 1.388 1_556 S
C3058 C3059 1.390 . S
C3059 C3058 1.390 . S
C3059 C3060 1.394 . S
C3059 C3065 1.465 . S
C3060 C3055 1.399 . S
C3060 C3059 1.394 . S
C3060 C3061 1.516 . S
C3061 C3060 1.516 . S
C3061 C3062 1.502 . S
C3061 C3063 1.561 . S
C3061 C3064 1.526 . S
C3062 H3046 0.959 . S
C3062 H3047 0.959 . S
C3062 H3048 0.961 . S
C3062 C3061 1.502 . S
C3063 H3049 0.960 . S
C3063 H3050 0.961 . S
C3063 H3051 0.959 . S
C3063 C3061 1.561 . S
C3064 C3061 1.526 . S
C3064 C3065 1.396 . S
C3064 C3069 1.390 . S
C3065 C3059 1.465 . S
C3065 C3064 1.396 . S
C3065 C3066 1.399 . S
C3066 H3052 0.929 . S
C3066 C3065 1.399 . S
C3066 C3067 1.385 . S
C3067 H3053 0.931 . S
C3067 C3066 1.385 . S
C3067 C3068 1.389 . S
C3068 C3067 1.389 . S
C3068 C3069 1.387 . S
C3069 H3054 0.930 . S
C3069 C3064 1.390 . S
C3069 C3068 1.387 . S
H3070 C3082 0.930 . S
H3071 C3084 0.930 . S
H3072 C3085 0.930 . S
H3073 C3089 0.959 . S
H3074 C3089 0.959 . S
H3075 C3089 0.961 . S
H3076 C3090 0.960 . S
H3077 C3090 0.961 . S
H3078 C3090 0.959 . S
H3079 C3093 0.929 . S
H3080 C3094 0.931 . S
H3081 C3096 0.930 . S
C3082 H3070 0.930 . S
C3082 C3083 1.399 . S
C3082 C3087 1.399 . S
C3083 C3082 1.399 . S
C3083 C3084 1.376 . S
C3084 H3071 0.930 . S
C3084 C3083 1.376 . S
C3084 C3085 1.388 . S
C3085 H3072 0.930 . S
C3085 C3084 1.388 . S
C3085 C3086 1.390 . S
C3086 C3085 1.390 . S
C3086 C3087 1.394 . S
C3086 C3092 1.465 . S
C3087 C3082 1.399 . S
C3087 C3086 1.394 . S
C3087 C3088 1.516 . S
C3088 C3087 1.516 . S
C3088 C3089 1.502 . S
C3088 C3090 1.561 . S
C3088 C3091 1.526 . S
C3089 H3073 0.959 . S
C3089 H3074 0.959 . S
C3089 H3075 0.961 . S
C3089 C3088 1.502 . S
C3090 H3076 0.960 . S
C3090 H3077 0.961 . S
C3090 H3078 0.959 . S
C3090 C3088 1.561 . S
C3091 C3088 1.526 . S
C3091 C3092 1.396 . S
C3091 C3096 1.390 . S
C3092 C3086 1.465 . S
C3092 C3091 1.396 . S
C3092 C3093 1.399 . S
C3093 H3079 0.929 . S
C3093 C3092 1.399 . S
C3093 C3094 1.385 . S
C3094 H3080 0.931 . S
C3094 C3093 1.385 . S
C3094 C3095 1.389 . S
C3095 C3094 1.389 . S
C3095 C3096 1.387 . S
C3096 H3081 0.930 . S
C3096 C3091 1.390 . S
C3096 C3095 1.387 . S
H3097 C3109 0.930 . S
H3098 C3111 0.930 . S
H3099 C3112 0.930 . S
H3100 C3116 0.959 . S
H3101 C3116 0.959 . S
H3102 C3116 0.961 . S
H3103 C3117 0.960 . S
H3104 C3117 0.961 . S
H3105 C3117 0.959 . S
H3106 C3120 0.929 . S
H3107 C3121 0.931 . S
H3108 C3123 0.930 . S
C3109 H3097 0.930 . S
C3109 C3110 1.399 . S
C3109 C3114 1.399 . S
C3110 C3109 1.399 . S
C3110 C3111 1.376 . S
C3111 H3098 0.930 . S
C3111 C3110 1.376 . S
C3111 C3112 1.388 . S
C3112 H3099 0.930 . S
C3112 C3111 1.388 . S
C3112 C3113 1.390 . S
C3113 C3112 1.390 . S
C3113 C3114 1.394 . S
C3113 C3119 1.465 . S
C3114 C3109 1.399 . S
C3114 C3113 1.394 . S
C3114 C3115 1.516 . S
C3115 C3114 1.516 . S
C3115 C3116 1.502 . S
C3115 C3117 1.561 . S
C3115 C3118 1.526 . S
C3116 H3100 0.959 . S
C3116 H3101 0.959 . S
C3116 H3102 0.961 . S
C3116 C3115 1.502 . S
C3117 H3103 0.960 . S
C3117 H3104 0.961 . S
C3117 H3105 0.959 . S
C3117 C3115 1.561 . S
C3118 C3115 1.526 . S
C3118 C3119 1.396 . S
C3118 C3123 1.390 . S
C3119 C3113 1.465 . S
C3119 C3118 1.396 . S
C3119 C3120 1.399 . S
C3120 H3106 0.929 . S
C3120 C3119 1.399 . S
C3120 C3121 1.385 . S
C3121 H3107 0.931 . S
C3121 C3120 1.385 . S
C3121 C3122 1.389 . S
C3122 C3121 1.389 . S
C3122 C3123 1.387 . S
C3123 H3108 0.930 . S
C3123 C3118 1.390 . S
C3123 C3122 1.387 . S
H3124 C3136 0.930 . S
H3125 C3138 0.930 . S
H3126 C3139 0.930 . S
H3127 C3143 0.959 . S
H3128 C3143 0.959 . S
H3129 C3143 0.961 . S
H3130 C3144 0.960 . S
H3131 C3144 0.961 . S
H3132 C3144 0.959 . S
H3133 C3147 0.929 . S
H3134 C3148 0.931 . S
H3135 C3150 0.930 . S
C3136 H3124 0.930 . S
C3136 C3137 1.399 . S
C3136 C3141 1.399 . S
C3137 C3136 1.399 . S
C3137 C3138 1.376 . S
C3138 H3125 0.930 . S
C3138 C3137 1.376 . S
C3138 C3139 1.388 . S
C3139 H3126 0.930 . S
C3139 C3138 1.388 . S
C3139 C3140 1.390 . S
C3140 C3139 1.390 . S
C3140 C3141 1.394 . S
C3140 C3146 1.465 . S
C3141 C3136 1.399 . S
C3141 C3140 1.394 . S
C3141 C3142 1.516 . S
C3142 C3141 1.516 . S
C3142 C3143 1.502 . S
C3142 C3144 1.561 . S
C3142 C3145 1.526 . S
C3143 H3127 0.959 . S
C3143 H3128 0.959 . S
C3143 H3129 0.961 . S
C3143 C3142 1.502 . S
C3144 H3130 0.960 . S
C3144 H3131 0.961 . S
C3144 H3132 0.959 . S
C3144 C3142 1.561 . S
C3145 C3142 1.526 . S
C3145 C3146 1.396 . S
C3145 C3150 1.390 . S
C3146 C3140 1.465 . S
C3146 C3145 1.396 . S
C3146 C3147 1.399 . S
C3147 H3133 0.929 . S
C3147 C3146 1.399 . S
C3147 C3148 1.385 . S
C3148 H3134 0.931 . S
C3148 C3147 1.385 . S
C3148 C3149 1.389 . S
C3149 C3148 1.389 . S
C3149 C3150 1.387 . S
C3150 H3135 0.930 . S
C3150 C3145 1.390 . S
C3150 C3149 1.387 . S
H3151 C3163 0.930 . S
H3152 C3165 0.930 . S
H3153 C3166 0.930 . S
H3154 C3170 0.959 . S
H3155 C3170 0.959 . S
H3156 C3170 0.961 . S
H3157 C3171 0.960 . S
H3158 C3171 0.961 . S
H3159 C3171 0.959 . S
H3160 C3174 0.929 . S
H3161 C3175 0.931 . S
H3162 C3177 0.930 . S
C3163 H3151 0.930 . S
C3163 C3164 1.399 . S
C3163 C3168 1.399 . S
C3164 C3163 1.399 . S
C3164 C3165 1.376 . S
C3165 H3152 0.930 . S
C3165 C3164 1.376 . S
C3165 C3166 1.388 . S
C3166 H3153 0.930 . S
C3166 C3165 1.388 . S
C3166 C3167 1.390 . S
C3167 C3166 1.390 . S
C3167 C3168 1.394 . S
C3167 C3173 1.465 . S
C3168 C3163 1.399 . S
C3168 C3167 1.394 . S
C3168 C3169 1.516 . S
C3169 C3168 1.516 . S
C3169 C3170 1.502 . S
C3169 C3171 1.561 . S
C3169 C3172 1.526 . S
C3170 H3154 0.959 . S
C3170 H3155 0.959 . S
C3170 H3156 0.961 . S
C3170 C3169 1.502 . S
C3171 H3157 0.960 . S
C3171 H3158 0.961 . S
C3171 H3159 0.959 . S
C3171 C3169 1.561 . S
C3172 C3169 1.526 . S
C3172 C3173 1.396 . S
C3172 C3177 1.390 . S
C3173 C3167 1.465 . S
C3173 C3172 1.396 . S
C3173 C3174 1.399 . S
C3174 H3160 0.929 . S
C3174 C3173 1.399 . S
C3174 C3175 1.385 . S
C3175 H3161 0.931 . S
C3175 C3174 1.385 . S
C3175 C3176 1.389 . S
C3176 C3175 1.389 . S
C3176 C3177 1.387 . S
C3177 H3162 0.930 . S
C3177 C3172 1.390 . S
C3177 C3176 1.387 . S
H3178 C3190 0.930 . S
H3179 C3192 0.930 . S
H3180 C3193 0.930 . S
H3181 C3197 0.959 . S
H3182 C3197 0.959 . S
H3183 C3197 0.961 . S
H3184 C3198 0.960 . S
H3185 C3198 0.961 . S
H3186 C3198 0.959 . S
H3187 C3201 0.929 . S
H3188 C3202 0.931 . S
H3189 C3204 0.930 . S
C3190 H3178 0.930 . S
C3190 C3191 1.399 . S
C3190 C3195 1.399 . S
C3191 C3190 1.399 . S
C3191 C3192 1.376 . S
C3192 H3179 0.930 . S
C3192 C3191 1.376 . S
C3192 C3193 1.388 . S
C3193 H3180 0.930 . S
C3193 C3192 1.388 . S
C3193 C3194 1.390 . S
C3194 C3193 1.390 . S
C3194 C3195 1.394 . S
C3194 C3200 1.465 . S
C3195 C3190 1.399 . S
C3195 C3194 1.394 . S
C3195 C3196 1.516 . S
C3196 C3195 1.516 . S
C3196 C3197 1.502 . S
C3196 C3198 1.561 . S
C3196 C3199 1.526 . S
C3197 H3181 0.959 . S
C3197 H3182 0.959 . S
C3197 H3183 0.961 . S
C3197 C3196 1.502 . S
C3198 H3184 0.960 . S
C3198 H3185 0.961 . S
C3198 H3186 0.959 . S
C3198 C3196 1.561 . S
C3199 C3196 1.526 . S
C3199 C3200 1.396 . S
C3199 C3204 1.390 . S
C3200 C3194 1.465 . S
C3200 C3199 1.396 . S
C3200 C3201 1.399 . S
C3201 H3187 0.929 . S
C3201 C3200 1.399 . S
C3201 C3202 1.385 . S
C3202 H3188 0.931 . S
C3202 C3201 1.385 . S
C3202 C3203 1.389 . S
C3203 C3202 1.389 . S
C3203 C3204 1.387 . S
C3204 H3189 0.930 . S
C3204 C3199 1.390 . S
C3204 C3203 1.387 . S
H3205 C3217 0.930 . S
H3206 C3219 0.930 . S
H3207 C3220 0.930 . S
H3208 C3224 0.959 . S
H3209 C3224 0.959 . S
H3210 C3224 0.961 . S
H3211 C3225 0.960 . S
H3212 C3225 0.961 . S
H3213 C3225 0.959 . S
H3214 C3228 0.929 . S
H3215 C3229 0.931 . S
H3216 C3231 0.930 . S
C3217 H3205 0.930 . S
C3217 C3218 1.399 . S
C3217 C3222 1.399 . S
C3218 C3217 1.399 . S
C3218 C3219 1.376 . S
C3219 H3206 0.930 . S
C3219 C3218 1.376 . S
C3219 C3220 1.388 . S
C3220 H3207 0.930 . S
C3220 C3219 1.388 . S
C3220 C3221 1.390 . S
C3221 C3220 1.390 . S
C3221 C3222 1.394 . S
C3221 C3227 1.465 . S
C3222 C3217 1.399 . S
C3222 C3221 1.394 . S
C3222 C3223 1.516 . S
C3223 C3222 1.516 . S
C3223 C3224 1.502 . S
C3223 C3225 1.561 . S
C3223 C3226 1.526 . S
C3224 H3208 0.959 . S
C3224 H3209 0.959 . S
C3224 H3210 0.961 . S
C3224 C3223 1.502 . S
C3225 H3211 0.960 . S
C3225 H3212 0.961 . S
C3225 H3213 0.959 . S
C3225 C3223 1.561 . S
C3226 C3223 1.526 . S
C3226 C3227 1.396 . S
C3226 C3231 1.390 . S
C3227 C3221 1.465 . S
C3227 C3226 1.396 . S
C3227 C3228 1.399 . S
C3228 H3214 0.929 . S
C3228 C3227 1.399 . S
C3228 C3229 1.385 . S
C3229 H3215 0.931 . S
C3229 C3228 1.385 . S
C3229 C3230 1.389 . S
C3230 C3229 1.389 . S
C3230 C3231 1.387 . S
C3231 H3216 0.930 . S
C3231 C3226 1.390 . S
C3231 C3230 1.387 . S
H3232 C3244 0.930 . S
H3233 C3246 0.930 . S
H3234 C3247 0.930 . S
H3235 C3251 0.959 . S
H3236 C3251 0.959 . S
H3237 C3251 0.961 . S
H3238 C3252 0.960 . S
H3239 C3252 0.961 . S
H3240 C3252 0.959 . S
H3241 C3255 0.929 . S
H3242 C3256 0.931 . S
H3243 C3258 0.930 . S
C3244 H3232 0.930 . S
C3244 C3245 1.399 . S
C3244 C3249 1.399 . S
C3245 C3244 1.399 . S
C3245 C3246 1.376 . S
C3246 H3233 0.930 . S
C3246 C3245 1.376 . S
C3246 C3247 1.388 . S
C3247 H3234 0.930 . S
C3247 C3246 1.388 . S
C3247 C3248 1.390 . S
C3248 C3247 1.390 . S
C3248 C3249 1.394 . S
C3248 C3254 1.465 . S
C3249 C3244 1.399 . S
C3249 C3248 1.394 . S
C3249 C3250 1.516 . S
C3250 C3249 1.516 . S
C3250 C3251 1.502 . S
C3250 C3252 1.561 . S
C3250 C3253 1.526 . S
C3251 H3235 0.959 . S
C3251 H3236 0.959 . S
C3251 H3237 0.961 . S
C3251 C3250 1.502 . S
C3252 H3238 0.960 . S
C3252 H3239 0.961 . S
C3252 H3240 0.959 . S
C3252 C3250 1.561 . S
C3253 C3250 1.526 . S
C3253 C3254 1.396 . S
C3253 C3258 1.390 . S
C3254 C3248 1.465 . S
C3254 C3253 1.396 . S
C3254 C3255 1.399 . S
C3255 H3241 0.929 . S
C3255 C3254 1.399 . S
C3255 C3256 1.385 . S
C3256 H3242 0.931 . S
C3256 C3255 1.385 . S
C3256 C3257 1.389 . S
C3257 C3256 1.389 . S
C3257 C3258 1.387 . S
C3258 H3243 0.930 . S
C3258 C3253 1.390 . S
C3258 C3257 1.387 . S
H3259 C3271 0.930 . S
H3260 C3273 0.930 . S
H3261 C3274 0.930 . S
H3262 C3278 0.959 . S
H3263 C3278 0.959 . S
H3264 C3278 0.961 . S
H3265 C3279 0.960 . S
H3266 C3279 0.961 . S
H3267 C3279 0.959 . S
H3268 C3282 0.929 . S
H3269 C3283 0.931 . S
H3270 C3285 0.930 . S
C3271 H3259 0.930 . S
C3271 C3272 1.399 . S
C3271 C3276 1.399 . S
C3272 C3271 1.399 . S
C3272 C3273 1.376 . S
C3273 H3260 0.930 . S
C3273 C3272 1.376 . S
C3273 C3274 1.388 . S
C3274 H3261 0.930 . S
C3274 C3273 1.388 . S
C3274 C3275 1.390 . S
C3275 C3274 1.390 . S
C3275 C3276 1.394 . S
C3275 C3281 1.465 . S
C3276 C3271 1.399 . S
C3276 C3275 1.394 . S
C3276 C3277 1.516 . S
C3277 C3276 1.516 . S
C3277 C3278 1.502 . S
C3277 C3279 1.561 . S
C3277 C3280 1.526 . S
C3278 H3262 0.959 . S
C3278 H3263 0.959 . S
C3278 H3264 0.961 . S
C3278 C3277 1.502 . S
C3279 H3265 0.960 . S
C3279 H3266 0.961 . S
C3279 H3267 0.959 . S
C3279 C3277 1.561 . S
C3280 C3277 1.526 . S
C3280 C3281 1.396 . S
C3280 C3285 1.390 . S
C3281 C3275 1.465 . S
C3281 C3280 1.396 . S
C3281 C3282 1.399 . S
C3282 H3268 0.929 . S
C3282 C3281 1.399 . S
C3282 C3283 1.385 . S
C3283 H3269 0.931 . S
C3283 C3282 1.385 . S
C3283 C3284 1.389 . S
C3284 C3283 1.389 . S
C3284 C3285 1.387 . S
C3285 H3270 0.930 . S
C3285 C3280 1.390 . S
C3285 C3284 1.387 . S
H3286 C3298 0.930 . S
H3287 C3300 0.930 . S
H3288 C3301 0.930 . S
H3289 C3305 0.959 . S
H3290 C3305 0.959 . S
H3291 C3305 0.961 . S
H3292 C3306 0.960 . S
H3293 C3306 0.961 . S
H3294 C3306 0.959 . S
H3295 C3309 0.929 . S
H3296 C3310 0.931 . S
H3297 C3312 0.930 . S
C3298 H3286 0.930 . S
C3298 C3299 1.399 1_565 S
C3298 C3303 1.399 . S
C3299 C3298 1.399 1_545 S
C3299 C3300 1.376 . S
C3300 H3287 0.930 . S
C3300 C3299 1.376 . S
C3300 C3301 1.388 . S
C3301 H3288 0.930 . S
C3301 C3300 1.388 . S
C3301 C3302 1.390 1_545 S
C3302 C3301 1.390 1_565 S
C3302 C3303 1.394 . S
C3302 C3308 1.465 . S
C3303 C3298 1.399 . S
C3303 C3302 1.394 . S
C3303 C3304 1.516 . S
C3304 C3303 1.516 . S
C3304 C3305 1.502 . S
C3304 C3306 1.561 . S
C3304 C3307 1.526 . S
C3305 H3289 0.959 . S
C3305 H3290 0.959 . S
C3305 H3291 0.961 . S
C3305 C3304 1.502 . S
C3306 H3292 0.960 . S
C3306 H3293 0.961 . S
C3306 H3294 0.959 . S
C3306 C3304 1.561 . S
C3307 C3304 1.526 . S
C3307 C3308 1.396 . S
C3307 C3312 1.390 . S
C3308 C3302 1.465 . S
C3308 C3307 1.396 . S
C3308 C3309 1.399 . S
C3309 H3295 0.929 . S
C3309 C3308 1.399 . S
C3309 C3310 1.385 . S
C3310 H3296 0.931 . S
C3310 C3309 1.385 . S
C3310 C3311 1.389 . S
C3311 C3310 1.389 . S
C3311 C3312 1.387 . S
C3312 H3297 0.930 . S
C3312 C3307 1.390 . S
C3312 C3311 1.387 . S
H3313 C3325 0.930 . S
H3314 C3327 0.930 . S
H3315 C3328 0.930 . S
H3316 C3332 0.959 . S
H3317 C3332 0.959 . S
H3318 C3332 0.959 1_565 S
H3319 C3333 0.960 . S
H3320 C3333 0.961 . S
H3321 C3333 0.959 . S
H3322 C3336 0.929 . S
H3323 C3337 0.934 1_556 S
H3324 C3339 0.930 . S
C3325 H3313 0.930 . S
C3325 C3326 1.399 . S
C3325 C3330 1.399 . S
C3326 C3325 1.399 . S
C3326 C3327 1.376 1_554 S
C3327 H3314 0.930 . S
C3327 C3326 1.376 1_556 S
C3327 C3328 1.388 . S
C3328 H3315 0.930 . S
C3328 C3327 1.388 . S
C3328 C3329 1.356 1_556 S
C3329 C3328 1.356 1_554 S
C3329 C3330 1.433 . S
C3329 C3335 1.469 . S
C3330 C3325 1.399 . S
C3330 C3329 1.433 . S
C3330 C3331 1.516 . S
C3331 C3330 1.516 . S
C3331 C3332 1.502 1_565 S
C3331 C3333 1.561 . S
C3331 C3334 1.525 1_565 S
C3332 H3316 0.959 . S
C3332 H3317 0.959 . S
C3332 H3318 0.959 1_545 S
C3332 C3331 1.502 1_545 S
C3333 H3319 0.960 . S
C3333 H3320 0.961 . S
C3333 H3321 0.959 . S
C3333 C3331 1.561 . S
C3334 C3331 1.525 1_545 S
C3334 C3335 1.396 1_545 S
C3334 C3339 1.390 . S
C3335 C3329 1.469 . S
C3335 C3334 1.396 1_565 S
C3335 C3336 1.399 1_564 S
C3336 H3322 0.929 . S
C3336 C3335 1.399 1_546 S
C3336 C3337 1.387 1_556 S
C3337 H3323 0.934 1_554 S
C3337 C3336 1.387 1_554 S
C3337 C3338 1.385 . S
C3338 C3337 1.385 . S
C3338 C3339 1.387 . S
C3339 H3324 0.930 . S
C3339 C3334 1.390 . S
C3339 C3338 1.387 . S
H3340 C3352 0.930 . S
H3341 C3354 0.930 . S
H3342 C3355 0.930 . S
H3343 C3359 0.959 . S
H3344 C3359 0.959 . S
H3345 C3359 0.961 . S
H3346 C3360 0.960 . S
H3347 C3360 0.961 . S
H3348 C3360 0.959 . S
H3349 C3363 0.929 . S
H3350 C3364 0.931 . S
H3351 C3366 0.930 . S
C3352 H3340 0.930 . S
C3352 C3353 1.399 . S
C3352 C3357 1.399 . S
C3353 C3352 1.399 . S
C3353 C3354 1.376 . S
C3354 H3341 0.930 . S
C3354 C3353 1.376 . S
C3354 C3355 1.388 . S
C3355 H3342 0.930 . S
C3355 C3354 1.388 . S
C3355 C3356 1.390 . S
C3356 C3355 1.390 . S
C3356 C3357 1.394 . S
C3356 C3362 1.465 . S
C3357 C3352 1.399 . S
C3357 C3356 1.394 . S
C3357 C3358 1.516 . S
C3358 C3357 1.516 . S
C3358 C3359 1.502 . S
C3358 C3360 1.561 . S
C3358 C3361 1.526 . S
C3359 H3343 0.959 . S
C3359 H3344 0.959 . S
C3359 H3345 0.961 . S
C3359 C3358 1.502 . S
C3360 H3346 0.960 . S
C3360 H3347 0.961 . S
C3360 H3348 0.959 . S
C3360 C3358 1.561 . S
C3361 C3358 1.526 . S
C3361 C3362 1.396 . S
C3361 C3366 1.390 . S
C3362 C3356 1.465 . S
C3362 C3361 1.396 . S
C3362 C3363 1.399 . S
C3363 H3349 0.929 . S
C3363 C3362 1.399 . S
C3363 C3364 1.385 . S
C3364 H3350 0.931 . S
C3364 C3363 1.385 . S
C3364 C3365 1.389 . S
C3365 C3364 1.389 . S
C3365 C3366 1.387 . S
C3366 H3351 0.930 . S
C3366 C3361 1.390 . S
C3366 C3365 1.387 . S
H3367 C3379 0.930 . S
H3368 C3381 0.930 . S
H3369 C3382 0.930 . S
H3370 C3386 0.959 . S
H3371 C3386 0.936 1_556 S
H3372 C3386 0.961 1_556 S
H3373 C3387 0.960 1_556 S
H3374 C3387 0.961 1_556 S
H3375 C3387 0.959 . S
H3376 C3390 0.929 . S
H3377 C3391 0.931 . S
H3378 C3393 0.930 . S
C3379 H3367 0.930 . S
C3379 C3380 1.399 . S
C3379 C3384 1.399 . S
C3380 C3379 1.399 . S
C3380 C3381 1.376 . S
C3381 H3368 0.930 . S
C3381 C3380 1.376 . S
C3381 C3382 1.388 . S
C3382 H3369 0.930 . S
C3382 C3381 1.388 . S
C3382 C3383 1.390 . S
C3383 C3382 1.390 . S
C3383 C3384 1.394 . S
C3383 C3389 1.465 . S
C3384 C3379 1.399 . S
C3384 C3383 1.394 . S
C3384 C3385 1.516 . S
C3385 C3384 1.516 . S
C3385 C3386 1.502 . S
C3385 C3387 1.561 . S
C3385 C3388 1.526 . S
C3386 H3370 0.959 . S
C3386 H3371 0.936 1_554 S
C3386 H3372 0.961 1_554 S
C3386 C3385 1.502 . S
C3387 H3373 0.960 1_554 S
C3387 H3374 0.961 1_554 S
C3387 H3375 0.959 . S
C3387 C3385 1.561 . S
C3388 C3385 1.526 . S
C3388 C3389 1.396 . S
C3388 C3393 1.390 . S
C3389 C3383 1.465 . S
C3389 C3388 1.396 . S
C3389 C3390 1.399 . S
C3390 H3376 0.929 . S
C3390 C3389 1.399 . S
C3390 C3391 1.385 . S
C3391 H3377 0.931 . S
C3391 C3390 1.385 . S
C3391 C3392 1.389 . S
C3392 C3391 1.389 . S
C3392 C3393 1.387 . S
C3393 H3378 0.930 . S
C3393 C3388 1.390 . S
C3393 C3392 1.387 . S
H3394 C3406 0.930 . S
H3395 C3408 0.930 . S
H3396 C3409 0.930 . S
H3397 C3413 0.959 . S
H3398 C3413 0.959 . S
H3399 C3413 0.961 . S
H3400 C3414 0.960 . S
H3401 C3414 0.961 . S
H3402 C3414 0.959 . S
H3403 C3417 0.929 . S
H3404 C3418 0.931 . S
H3405 C3420 0.930 . S
C3406 H3394 0.930 . S
C3406 C3407 1.399 . S
C3406 C3411 1.399 . S
C3407 C3406 1.399 . S
C3407 C3408 1.376 . S
C3408 H3395 0.930 . S
C3408 C3407 1.376 . S
C3408 C3409 1.388 . S
C3409 H3396 0.930 . S
C3409 C3408 1.388 . S
C3409 C3410 1.390 . S
C3410 C3409 1.390 . S
C3410 C3411 1.394 . S
C3410 C3416 1.465 . S
C3411 C3406 1.399 . S
C3411 C3410 1.394 . S
C3411 C3412 1.516 . S
C3412 C3411 1.516 . S
C3412 C3413 1.502 . S
C3412 C3414 1.561 . S
C3412 C3415 1.526 . S
C3413 H3397 0.959 . S
C3413 H3398 0.959 . S
C3413 H3399 0.961 . S
C3413 C3412 1.502 . S
C3414 H3400 0.960 . S
C3414 H3401 0.961 . S
C3414 H3402 0.959 . S
C3414 C3412 1.561 . S
C3415 C3412 1.526 . S
C3415 C3416 1.396 . S
C3415 C3420 1.390 . S
C3416 C3410 1.465 . S
C3416 C3415 1.396 . S
C3416 C3417 1.399 . S
C3417 H3403 0.929 . S
C3417 C3416 1.399 . S
C3417 C3418 1.385 . S
C3418 H3404 0.931 . S
C3418 C3417 1.385 . S
C3418 C3419 1.389 . S
C3419 C3418 1.389 . S
C3419 C3420 1.387 . S
C3420 H3405 0.930 . S
C3420 C3415 1.390 . S
C3420 C3419 1.387 . S
H3421 C3433 0.930 . S
H3422 C3435 0.930 . S
H3423 C3436 0.930 . S
H3424 C3440 0.959 . S
H3425 C3440 0.959 . S
H3426 C3440 0.961 . S
H3427 C3441 0.960 . S
H3428 C3441 0.961 . S
H3429 C3441 0.959 . S
H3430 C3444 0.929 . S
H3431 C3445 0.931 . S
H3432 C3447 0.930 . S
C3433 H3421 0.930 . S
C3433 C3434 1.399 . S
C3433 C3438 1.399 . S
C3434 C3433 1.399 . S
C3434 C3435 1.376 . S
C3435 H3422 0.930 . S
C3435 C3434 1.376 . S
C3435 C3436 1.388 . S
C3436 H3423 0.930 . S
C3436 C3435 1.388 . S
C3436 C3437 1.390 . S
C3437 C3436 1.390 . S
C3437 C3438 1.394 . S
C3437 C3443 1.465 . S
C3438 C3433 1.399 . S
C3438 C3437 1.394 . S
C3438 C3439 1.516 . S
C3439 C3438 1.516 . S
C3439 C3440 1.502 . S
C3439 C3441 1.561 . S
C3439 C3442 1.526 . S
C3440 H3424 0.959 . S
C3440 H3425 0.959 . S
C3440 H3426 0.961 . S
C3440 C3439 1.502 . S
C3441 H3427 0.960 . S
C3441 H3428 0.961 . S
C3441 H3429 0.959 . S
C3441 C3439 1.561 . S
C3442 C3439 1.526 . S
C3442 C3443 1.396 . S
C3442 C3447 1.390 . S
C3443 C3437 1.465 . S
C3443 C3442 1.396 . S
C3443 C3444 1.399 . S
C3444 H3430 0.929 . S
C3444 C3443 1.399 . S
C3444 C3445 1.385 . S
C3445 H3431 0.931 . S
C3445 C3444 1.385 . S
C3445 C3446 1.389 . S
C3446 C3445 1.389 . S
C3446 C3447 1.387 . S
C3447 H3432 0.930 . S
C3447 C3442 1.390 . S
C3447 C3446 1.387 . S
H3448 C3460 0.930 . S
H3449 C3462 0.930 . S
H3450 C3463 0.930 . S
H3451 C3467 0.959 . S
H3452 C3467 0.959 . S
H3453 C3467 0.961 . S
H3454 C3468 0.960 . S
H3455 C3468 0.961 . S
H3456 C3468 0.959 . S
H3457 C3471 0.929 . S
H3458 C3472 0.931 . S
H3459 C3474 0.930 . S
C3460 H3448 0.930 . S
C3460 C3461 1.399 . S
C3460 C3465 1.399 . S
C3461 C3460 1.399 . S
C3461 C3462 1.376 . S
C3462 H3449 0.930 . S
C3462 C3461 1.376 . S
C3462 C3463 1.388 . S
C3463 H3450 0.930 . S
C3463 C3462 1.388 . S
C3463 C3464 1.390 . S
C3464 C3463 1.390 . S
C3464 C3465 1.394 . S
C3464 C3470 1.465 . S
C3465 C3460 1.399 . S
C3465 C3464 1.394 . S
C3465 C3466 1.516 . S
C3466 C3465 1.516 . S
C3466 C3467 1.502 . S
C3466 C3468 1.561 . S
C3466 C3469 1.526 . S
C3467 H3451 0.959 . S
C3467 H3452 0.959 . S
C3467 H3453 0.961 . S
C3467 C3466 1.502 . S
C3468 H3454 0.960 . S
C3468 H3455 0.961 . S
C3468 H3456 0.959 . S
C3468 C3466 1.561 . S
C3469 C3466 1.526 . S
C3469 C3470 1.396 . S
C3469 C3474 1.390 . S
C3470 C3464 1.465 . S
C3470 C3469 1.396 . S
C3470 C3471 1.399 . S
C3471 H3457 0.929 . S
C3471 C3470 1.399 . S
C3471 C3472 1.385 . S
C3472 H3458 0.931 . S
C3472 C3471 1.385 . S
C3472 C3473 1.389 . S
C3473 C3472 1.389 . S
C3473 C3474 1.387 . S
C3474 H3459 0.930 . S
C3474 C3469 1.390 . S
C3474 C3473 1.387 . S
H3475 C3487 0.930 . S
H3476 C3489 0.930 . S
H3477 C3490 0.930 . S
H3478 C3494 0.959 . S
H3479 C3494 0.959 . S
H3480 C3494 0.961 . S
H3481 C3495 0.960 . S
H3482 C3495 0.961 . S
H3483 C3495 0.959 . S
H3484 C3498 0.929 . S
H3485 C3499 0.931 . S
H3486 C3501 0.930 . S
C3487 H3475 0.930 . S
C3487 C3488 1.399 . S
C3487 C3492 1.399 . S
C3488 C3487 1.399 . S
C3488 C3489 1.376 . S
C3489 H3476 0.930 . S
C3489 C3488 1.376 . S
C3489 C3490 1.388 . S
C3490 H3477 0.930 . S
C3490 C3489 1.388 . S
C3490 C3491 1.390 . S
C3491 C3490 1.390 . S
C3491 C3492 1.394 . S
C3491 C3497 1.465 . S
C3492 C3487 1.399 . S
C3492 C3491 1.394 . S
C3492 C3493 1.516 . S
C3493 C3492 1.516 . S
C3493 C3494 1.502 . S
C3493 C3495 1.561 . S
C3493 C3496 1.526 . S
C3494 H3478 0.959 . S
C3494 H3479 0.959 . S
C3494 H3480 0.961 . S
C3494 C3493 1.502 . S
C3495 H3481 0.960 . S
C3495 H3482 0.961 . S
C3495 H3483 0.959 . S
C3495 C3493 1.561 . S
C3496 C3493 1.526 . S
C3496 C3497 1.396 . S
C3496 C3501 1.390 . S
C3497 C3491 1.465 . S
C3497 C3496 1.396 . S
C3497 C3498 1.399 . S
C3498 H3484 0.929 . S
C3498 C3497 1.399 . S
C3498 C3499 1.385 . S
C3499 H3485 0.931 . S
C3499 C3498 1.385 . S
C3499 C3500 1.389 . S
C3500 C3499 1.389 . S
C3500 C3501 1.387 . S
C3501 H3486 0.930 . S
C3501 C3496 1.390 . S
C3501 C3500 1.387 . S
H3502 C3514 0.930 . S
H3503 C3516 0.930 . S
H3504 C3517 0.930 . S
H3505 C3521 0.959 . S
H3506 C3521 0.959 . S
H3507 C3521 0.961 . S
H3508 C3522 0.960 . S
H3509 C3522 0.961 . S
H3510 C3522 0.959 . S
H3511 C3525 0.929 . S
H3512 C3526 0.931 . S
H3513 C3528 0.930 . S
C3514 H3502 0.930 . S
C3514 C3515 1.399 . S
C3514 C3519 1.399 . S
C3515 C3514 1.399 . S
C3515 C3516 1.376 . S
C3516 H3503 0.930 . S
C3516 C3515 1.376 . S
C3516 C3517 1.388 . S
C3517 H3504 0.930 . S
C3517 C3516 1.388 . S
C3517 C3518 1.390 . S
C3518 C3517 1.390 . S
C3518 C3519 1.394 . S
C3518 C3524 1.465 . S
C3519 C3514 1.399 . S
C3519 C3518 1.394 . S
C3519 C3520 1.516 . S
C3520 C3519 1.516 . S
C3520 C3521 1.502 . S
C3520 C3522 1.561 . S
C3520 C3523 1.526 . S
C3521 H3505 0.959 . S
C3521 H3506 0.959 . S
C3521 H3507 0.961 . S
C3521 C3520 1.502 . S
C3522 H3508 0.960 . S
C3522 H3509 0.961 . S
C3522 H3510 0.959 . S
C3522 C3520 1.561 . S
C3523 C3520 1.526 . S
C3523 C3524 1.396 . S
C3523 C3528 1.390 . S
C3524 C3518 1.465 . S
C3524 C3523 1.396 . S
C3524 C3525 1.399 . S
C3525 H3511 0.929 . S
C3525 C3524 1.399 . S
C3525 C3526 1.385 . S
C3526 H3512 0.931 . S
C3526 C3525 1.385 . S
C3526 C3527 1.389 . S
C3527 C3526 1.389 . S
C3527 C3528 1.387 . S
C3528 H3513 0.930 . S
C3528 C3523 1.390 . S
C3528 C3527 1.387 . S
H3529 C3541 0.930 . S
H3530 C3543 0.930 . S
H3531 C3544 0.930 . S
H3532 C3548 0.959 . S
H3533 C3548 0.959 . S
H3534 C3548 0.961 . S
H3535 C3549 0.960 . S
H3536 C3549 0.961 . S
H3537 C3549 0.959 . S
H3538 C3552 0.929 . S
H3539 C3553 0.931 . S
H3540 C3555 0.930 . S
C3541 H3529 0.930 . S
C3541 C3542 1.399 . S
C3541 C3546 1.399 . S
C3542 C3541 1.399 . S
C3542 C3543 1.376 . S
C3543 H3530 0.930 . S
C3543 C3542 1.376 . S
C3543 C3544 1.388 . S
C3544 H3531 0.930 . S
C3544 C3543 1.388 . S
C3544 C3545 1.390 . S
C3545 C3544 1.390 . S
C3545 C3546 1.394 . S
C3545 C3551 1.465 . S
C3546 C3541 1.399 . S
C3546 C3545 1.394 . S
C3546 C3547 1.516 . S
C3547 C3546 1.516 . S
C3547 C3548 1.502 . S
C3547 C3549 1.561 . S
C3547 C3550 1.526 . S
C3548 H3532 0.959 . S
C3548 H3533 0.959 . S
C3548 H3534 0.961 . S
C3548 C3547 1.502 . S
C3549 H3535 0.960 . S
C3549 H3536 0.961 . S
C3549 H3537 0.959 . S
C3549 C3547 1.561 . S
C3550 C3547 1.526 . S
C3550 C3551 1.396 . S
C3550 C3555 1.390 . S
C3551 C3545 1.465 . S
C3551 C3550 1.396 . S
C3551 C3552 1.399 . S
C3552 H3538 0.929 . S
C3552 C3551 1.399 . S
C3552 C3553 1.385 . S
C3553 H3539 0.931 . S
C3553 C3552 1.385 . S
C3553 C3554 1.389 . S
C3554 C3553 1.389 . S
C3554 C3555 1.387 . S
C3555 H3540 0.930 . S
C3555 C3550 1.390 . S
C3555 C3554 1.387 . S
H3556 C3568 0.930 . S
H3557 C3570 0.930 . S
H3558 C3571 0.930 . S
H3559 C3575 0.959 . S
H3560 C3575 0.959 . S
H3561 C3575 0.961 . S
H3562 C3576 0.960 . S
H3563 C3576 0.961 . S
H3564 C3576 0.959 . S
H3565 C3579 0.929 1_554 S
H3566 C3580 0.931 . S
H3567 C3582 0.930 . S
C3568 H3556 0.930 . S
C3568 C3569 1.399 . S
C3568 C3573 1.399 . S
C3569 C3568 1.399 . S
C3569 C3570 1.376 . S
C3570 H3557 0.930 . S
C3570 C3569 1.376 . S
C3570 C3571 1.388 . S
C3571 H3558 0.930 . S
C3571 C3570 1.388 . S
C3571 C3572 1.390 . S
C3572 C3571 1.390 . S
C3572 C3573 1.394 . S
C3572 C3578 1.465 . S
C3573 C3568 1.399 . S
C3573 C3572 1.394 . S
C3573 C3574 1.516 . S
C3574 C3573 1.516 . S
C3574 C3575 1.502 . S
C3574 C3576 1.561 . S
C3574 C3577 1.526 . S
C3575 H3559 0.959 . S
C3575 H3560 0.959 . S
C3575 H3561 0.961 . S
C3575 C3574 1.502 . S
C3576 H3562 0.960 . S
C3576 H3563 0.961 . S
C3576 H3564 0.959 . S
C3576 C3574 1.561 . S
C3577 C3574 1.526 . S
C3577 C3578 1.396 . S
C3577 C3582 1.390 . S
C3578 C3572 1.465 . S
C3578 C3577 1.396 . S
C3578 C3579 1.399 . S
C3579 H3565 0.929 1_556 S
C3579 C3578 1.399 . S
C3579 C3580 1.385 1_556 S
C3580 H3566 0.931 . S
C3580 C3579 1.385 1_554 S
C3580 C3581 1.389 1_554 S
C3581 C3580 1.389 1_556 S
C3581 C3582 1.387 . S
C3582 H3567 0.930 . S
C3582 C3577 1.390 . S
C3582 C3581 1.387 . S
H3583 C3595 0.930 . S
H3584 C3597 0.930 . S
H3585 C3598 0.930 . S
H3586 C3602 0.959 . S
H3587 C3602 0.959 . S
H3588 C3602 0.961 . S
H3589 C3603 0.960 . S
H3590 C3603 0.961 . S
H3591 C3603 0.959 . S
H3592 C3606 0.929 . S
H3593 C3607 0.931 . S
H3594 C3609 0.930 . S
C3595 H3583 0.930 . S
C3595 C3596 1.399 . S
C3595 C3600 1.399 . S
C3596 C3595 1.399 . S
C3596 C3597 1.376 . S
C3597 H3584 0.930 . S
C3597 C3596 1.376 . S
C3597 C3598 1.388 . S
C3598 H3585 0.930 . S
C3598 C3597 1.388 . S
C3598 C3599 1.390 . S
C3599 C3598 1.390 . S
C3599 C3600 1.394 . S
C3599 C3605 1.465 . S
C3600 C3595 1.399 . S
C3600 C3599 1.394 . S
C3600 C3601 1.516 . S
C3601 C3600 1.516 . S
C3601 C3602 1.502 . S
C3601 C3603 1.561 . S
C3601 C3604 1.526 . S
C3602 H3586 0.959 . S
C3602 H3587 0.959 . S
C3602 H3588 0.961 . S
C3602 C3601 1.502 . S
C3603 H3589 0.960 . S
C3603 H3590 0.961 . S
C3603 H3591 0.959 . S
C3603 C3601 1.561 . S
C3604 C3601 1.526 . S
C3604 C3605 1.396 . S
C3604 C3609 1.390 . S
C3605 C3599 1.465 . S
C3605 C3604 1.396 . S
C3605 C3606 1.399 . S
C3606 H3592 0.929 . S
C3606 C3605 1.399 . S
C3606 C3607 1.385 . S
C3607 H3593 0.931 . S
C3607 C3606 1.385 . S
C3607 C3608 1.389 . S
C3608 C3607 1.389 . S
C3608 C3609 1.387 . S
C3609 H3594 0.930 . S
C3609 C3604 1.390 . S
C3609 C3608 1.387 . S
H3610 C3622 0.930 . S
H3611 C3624 0.930 . S
H3612 C3625 0.930 . S
H3613 C3629 0.959 . S
H3614 C3629 0.959 . S
H3615 C3629 0.961 . S
H3616 C3630 0.960 . S
H3617 C3630 0.961 . S
H3618 C3630 0.959 . S
H3619 C3633 0.929 . S
H3620 C3634 0.931 . S
H3621 C3636 0.930 . S
C3622 H3610 0.930 . S
C3622 C3623 1.399 . S
C3622 C3627 1.399 . S
C3623 C3622 1.399 . S
C3623 C3624 1.376 . S
C3624 H3611 0.930 . S
C3624 C3623 1.376 . S
C3624 C3625 1.388 . S
C3625 H3612 0.930 . S
C3625 C3624 1.388 . S
C3625 C3626 1.390 . S
C3626 C3625 1.390 . S
C3626 C3627 1.394 . S
C3626 C3632 1.465 . S
C3627 C3622 1.399 . S
C3627 C3626 1.394 . S
C3627 C3628 1.516 . S
C3628 C3627 1.516 . S
C3628 C3629 1.502 . S
C3628 C3630 1.561 . S
C3628 C3631 1.526 . S
C3629 H3613 0.959 . S
C3629 H3614 0.959 . S
C3629 H3615 0.961 . S
C3629 C3628 1.502 . S
C3630 H3616 0.960 . S
C3630 H3617 0.961 . S
C3630 H3618 0.959 . S
C3630 C3628 1.561 . S
C3631 C3628 1.526 . S
C3631 C3632 1.396 . S
C3631 C3636 1.390 . S
C3632 C3626 1.465 . S
C3632 C3631 1.396 . S
C3632 C3633 1.399 . S
C3633 H3619 0.929 . S
C3633 C3632 1.399 . S
C3633 C3634 1.385 . S
C3634 H3620 0.931 . S
C3634 C3633 1.385 . S
C3634 C3635 1.389 . S
C3635 C3634 1.389 . S
C3635 C3636 1.387 . S
C3636 H3621 0.930 . S
C3636 C3631 1.390 . S
C3636 C3635 1.387 . S
H3637 C3649 0.930 . S
H3638 C3651 0.930 . S
H3639 C3652 0.930 . S
H3640 C3656 0.959 . S
H3641 C3656 0.959 . S
H3642 C3656 0.961 . S
H3643 C3657 0.960 . S
H3644 C3657 0.961 . S
H3645 C3657 0.959 . S
H3646 C3660 0.929 . S
H3647 C3661 0.931 . S
H3648 C3663 0.930 . S
C3649 H3637 0.930 . S
C3649 C3650 1.399 . S
C3649 C3654 1.399 . S
C3650 C3649 1.399 . S
C3650 C3651 1.376 . S
C3651 H3638 0.930 . S
C3651 C3650 1.376 . S
C3651 C3652 1.388 . S
C3652 H3639 0.930 . S
C3652 C3651 1.388 . S
C3652 C3653 1.390 . S
C3653 C3652 1.390 . S
C3653 C3654 1.394 . S
C3653 C3659 1.465 . S
C3654 C3649 1.399 . S
C3654 C3653 1.394 . S
C3654 C3655 1.516 . S
C3655 C3654 1.516 . S
C3655 C3656 1.502 . S
C3655 C3657 1.561 . S
C3655 C3658 1.526 . S
C3656 H3640 0.959 . S
C3656 H3641 0.959 . S
C3656 H3642 0.961 . S
C3656 C3655 1.502 . S
C3657 H3643 0.960 . S
C3657 H3644 0.961 . S
C3657 H3645 0.959 . S
C3657 C3655 1.561 . S
C3658 C3655 1.526 . S
C3658 C3659 1.396 . S
C3658 C3663 1.390 . S
C3659 C3653 1.465 . S
C3659 C3658 1.396 . S
C3659 C3660 1.399 . S
C3660 H3646 0.929 . S
C3660 C3659 1.399 . S
C3660 C3661 1.385 . S
C3661 H3647 0.931 . S
C3661 C3660 1.385 . S
C3661 C3662 1.389 . S
C3662 C3661 1.389 . S
C3662 C3663 1.387 . S
C3663 H3648 0.930 . S
C3663 C3658 1.390 . S
C3663 C3662 1.387 . S
H3664 C3676 0.930 . S
H3665 C3678 0.930 . S
H3666 C3679 0.930 . S
H3667 C3683 0.959 . S
H3668 C3683 0.959 . S
H3669 C3683 0.961 . S
H3670 C3684 0.960 . S
H3671 C3684 0.961 . S
H3672 C3684 0.959 . S
H3673 C3687 0.929 . S
H3674 C3688 0.931 . S
H3675 C3690 0.930 . S
C3676 H3664 0.930 . S
C3676 C3677 1.399 . S
C3676 C3681 1.399 . S
C3677 C3676 1.399 . S
C3677 C3678 1.376 . S
C3678 H3665 0.930 . S
C3678 C3677 1.376 . S
C3678 C3679 1.388 . S
C3679 H3666 0.930 . S
C3679 C3678 1.388 . S
C3679 C3680 1.390 . S
C3680 C3679 1.390 . S
C3680 C3681 1.394 . S
C3680 C3686 1.465 . S
C3681 C3676 1.399 . S
C3681 C3680 1.394 . S
C3681 C3682 1.516 . S
C3682 C3681 1.516 . S
C3682 C3683 1.502 . S
C3682 C3684 1.561 . S
C3682 C3685 1.526 . S
C3683 H3667 0.959 . S
C3683 H3668 0.959 . S
C3683 H3669 0.961 . S
C3683 C3682 1.502 . S
C3684 H3670 0.960 . S
C3684 H3671 0.961 . S
C3684 H3672 0.959 . S
C3684 C3682 1.561 . S
C3685 C3682 1.526 . S
C3685 C3686 1.396 . S
C3685 C3690 1.390 . S
C3686 C3680 1.465 . S
C3686 C3685 1.396 . S
C3686 C3687 1.399 . S
C3687 H3673 0.929 . S
C3687 C3686 1.399 . S
C3687 C3688 1.385 . S
C3688 H3674 0.931 . S
C3688 C3687 1.385 . S
C3688 C3689 1.389 . S
C3689 C3688 1.389 . S
C3689 C3690 1.387 . S
C3690 H3675 0.930 . S
C3690 C3685 1.390 . S
C3690 C3689 1.387 . S
H3691 C3703 0.930 . S
H3692 C3705 0.930 . S
H3693 C3706 0.930 . S
H3694 C3710 0.959 . S
H3695 C3710 0.959 . S
H3696 C3710 0.961 . S
H3697 C3711 0.960 . S
H3698 C3711 0.961 . S
H3699 C3711 0.959 . S
H3700 C3714 0.929 . S
H3701 C3715 0.931 . S
H3702 C3717 0.930 . S
C3703 H3691 0.930 . S
C3703 C3704 1.399 . S
C3703 C3708 1.399 . S
C3704 C3703 1.399 . S
C3704 C3705 1.376 . S
C3705 H3692 0.930 . S
C3705 C3704 1.376 . S
C3705 C3706 1.388 . S
C3706 H3693 0.930 . S
C3706 C3705 1.388 . S
C3706 C3707 1.390 . S
C3707 C3706 1.390 . S
C3707 C3708 1.394 . S
C3707 C3713 1.465 . S
C3708 C3703 1.399 . S
C3708 C3707 1.394 . S
C3708 C3709 1.516 . S
C3709 C3708 1.516 . S
C3709 C3710 1.502 . S
C3709 C3711 1.561 . S
C3709 C3712 1.526 . S
C3710 H3694 0.959 . S
C3710 H3695 0.959 . S
C3710 H3696 0.961 . S
C3710 C3709 1.502 . S
C3711 H3697 0.960 . S
C3711 H3698 0.961 . S
C3711 H3699 0.959 . S
C3711 C3709 1.561 . S
C3712 C3709 1.526 . S
C3712 C3713 1.396 . S
C3712 C3717 1.390 . S
C3713 C3707 1.465 . S
C3713 C3712 1.396 . S
C3713 C3714 1.399 . S
C3714 H3700 0.929 . S
C3714 C3713 1.399 . S
C3714 C3715 1.385 . S
C3715 H3701 0.931 . S
C3715 C3714 1.385 . S
C3715 C3716 1.389 . S
C3716 C3715 1.389 . S
C3716 C3717 1.387 . S
C3717 H3702 0.930 . S
C3717 C3712 1.390 . S
C3717 C3716 1.387 . S
H3718 C3730 0.930 . S
H3719 C3732 0.930 . S
H3720 C3733 0.930 1_455 S
H3721 C3737 0.959 . S
H3722 C3737 0.959 . S
H3723 C3737 0.961 . S
H3724 C3738 0.960 . S
H3725 C3738 0.961 1_455 S
H3726 C3738 0.959 1_455 S
H3727 C3741 0.929 . S
H3728 C3742 0.931 . S
H3729 C3744 0.930 . S
C3730 H3718 0.930 . S
C3730 C3731 1.399 . S
C3730 C3735 1.399 . S
C3731 C3730 1.399 . S
C3731 C3732 1.376 . S
C3732 H3719 0.930 . S
C3732 C3731 1.376 . S
C3732 C3733 1.388 . S
C3733 H3720 0.930 1_655 S
C3733 C3732 1.388 . S
C3733 C3734 1.390 . S
C3734 C3733 1.390 . S
C3734 C3735 1.394 . S
C3734 C3740 1.465 1_655 S
C3735 C3730 1.399 . S
C3735 C3734 1.394 . S
C3735 C3736 1.516 . S
C3736 C3735 1.516 . S
C3736 C3737 1.502 . S
C3736 C3738 1.561 . S
C3736 C3739 1.526 1_655 S
C3737 H3721 0.959 . S
C3737 H3722 0.959 . S
C3737 H3723 0.961 . S
C3737 C3736 1.502 . S
C3738 H3724 0.960 . S
C3738 H3725 0.961 1_655 S
C3738 H3726 0.959 1_655 S
C3738 C3736 1.561 . S
C3739 C3736 1.526 1_455 S
C3739 C3740 1.396 . S
C3739 C3744 1.390 . S
C3740 C3734 1.465 1_455 S
C3740 C3739 1.396 . S
C3740 C3741 1.399 . S
C3741 H3727 0.929 . S
C3741 C3740 1.399 . S
C3741 C3742 1.385 . S
C3742 H3728 0.931 . S
C3742 C3741 1.385 . S
C3742 C3743 1.389 . S
C3743 C3742 1.389 . S
C3743 C3744 1.387 . S
C3744 H3729 0.930 . S
C3744 C3739 1.390 . S
C3744 C3743 1.387 . S
H3745 C3757 0.930 . S
H3746 C3759 0.930 . S
H3747 C3760 0.930 . S
H3748 C3764 0.959 . S
H3749 C3764 0.959 . S
H3750 C3764 0.961 . S
H3751 C3765 0.960 . S
H3752 C3765 0.961 . S
H3753 C3765 0.959 . S
H3754 C3768 0.929 . S
H3755 C3769 0.931 . S
H3756 C3771 0.930 . S
C3757 H3745 0.930 . S
C3757 C3758 1.399 . S
C3757 C3762 1.399 . S
C3758 C3757 1.399 . S
C3758 C3759 1.376 . S
C3759 H3746 0.930 . S
C3759 C3758 1.376 . S
C3759 C3760 1.388 . S
C3760 H3747 0.930 . S
C3760 C3759 1.388 . S
C3760 C3761 1.390 . S
C3761 C3760 1.390 . S
C3761 C3762 1.394 . S
C3761 C3767 1.465 . S
C3762 C3757 1.399 . S
C3762 C3761 1.394 . S
C3762 C3763 1.516 . S
C3763 C3762 1.516 . S
C3763 C3764 1.502 . S
C3763 C3765 1.561 . S
C3763 C3766 1.526 . S
C3764 H3748 0.959 . S
C3764 H3749 0.959 . S
C3764 H3750 0.961 . S
C3764 C3763 1.502 . S
C3765 H3751 0.960 . S
C3765 H3752 0.961 . S
C3765 H3753 0.959 . S
C3765 C3763 1.561 . S
C3766 C3763 1.526 . S
C3766 C3767 1.396 . S
C3766 C3771 1.390 . S
C3767 C3761 1.465 . S
C3767 C3766 1.396 . S
C3767 C3768 1.399 . S
C3768 H3754 0.929 . S
C3768 C3767 1.399 . S
C3768 C3769 1.385 . S
C3769 H3755 0.931 . S
C3769 C3768 1.385 . S
C3769 C3770 1.389 . S
C3770 C3769 1.389 . S
C3770 C3771 1.387 . S
C3771 H3756 0.930 . S
C3771 C3766 1.390 . S
C3771 C3770 1.387 . S
H3772 C3784 0.930 . S
H3773 C3786 0.930 . S
H3774 C3787 0.930 . S
H3775 C3791 0.959 . S
H3776 C3791 0.959 . S
H3777 C3791 0.961 . S
H3778 C3792 0.960 . S
H3779 C3792 0.961 . S
H3780 C3792 0.959 . S
H3781 C3795 0.929 . S
H3782 C3796 0.931 . S
H3783 C3798 0.930 . S
C3784 H3772 0.930 . S
C3784 C3785 1.399 . S
C3784 C3789 1.399 . S
C3785 C3784 1.399 . S
C3785 C3786 1.376 . S
C3786 H3773 0.930 . S
C3786 C3785 1.376 . S
C3786 C3787 1.388 . S
C3787 H3774 0.930 . S
C3787 C3786 1.388 . S
C3787 C3788 1.390 . S
C3788 C3787 1.390 . S
C3788 C3789 1.394 . S
C3788 C3794 1.465 . S
C3789 C3784 1.399 . S
C3789 C3788 1.394 . S
C3789 C3790 1.516 . S
C3790 C3789 1.516 . S
C3790 C3791 1.502 . S
C3790 C3792 1.561 . S
C3790 C3793 1.526 . S
C3791 H3775 0.959 . S
C3791 H3776 0.959 . S
C3791 H3777 0.961 . S
C3791 C3790 1.502 . S
C3792 H3778 0.960 . S
C3792 H3779 0.961 . S
C3792 H3780 0.959 . S
C3792 C3790 1.561 . S
C3793 C3790 1.526 . S
C3793 C3794 1.396 . S
C3793 C3798 1.390 . S
C3794 C3788 1.465 . S
C3794 C3793 1.396 . S
C3794 C3795 1.399 . S
C3795 H3781 0.929 . S
C3795 C3794 1.399 . S
C3795 C3796 1.385 . S
C3796 H3782 0.931 . S
C3796 C3795 1.385 . S
C3796 C3797 1.389 . S
C3797 C3796 1.389 . S
C3797 C3798 1.387 . S
C3798 H3783 0.930 . S
C3798 C3793 1.390 . S
C3798 C3797 1.387 . S
H3799 C3811 0.930 . S
H3800 C3813 0.930 . S
H3801 C3814 0.930 . S
H3802 C3818 0.959 . S
H3803 C3818 0.959 . S
H3804 C3818 0.961 . S
H3805 C3819 0.960 . S
H3806 C3819 0.961 . S
H3807 C3819 0.959 . S
H3808 C3822 0.929 . S
H3809 C3823 0.931 . S
H3810 C3825 0.930 . S
C3811 H3799 0.930 . S
C3811 C3812 1.399 . S
C3811 C3816 1.399 . S
C3812 C3811 1.399 . S
C3812 C3813 1.376 . S
C3813 H3800 0.930 . S
C3813 C3812 1.376 . S
C3813 C3814 1.388 . S
C3814 H3801 0.930 . S
C3814 C3813 1.388 . S
C3814 C3815 1.390 . S
C3815 C3814 1.390 . S
C3815 C3816 1.394 . S
C3815 C3821 1.465 . S
C3816 C3811 1.399 . S
C3816 C3815 1.394 . S
C3816 C3817 1.516 . S
C3817 C3816 1.516 . S
C3817 C3818 1.502 . S
C3817 C3819 1.561 . S
C3817 C3820 1.526 . S
C3818 H3802 0.959 . S
C3818 H3803 0.959 . S
C3818 H3804 0.961 . S
C3818 C3817 1.502 . S
C3819 H3805 0.960 . S
C3819 H3806 0.961 . S
C3819 H3807 0.959 . S
C3819 C3817 1.561 . S
C3820 C3817 1.526 . S
C3820 C3821 1.396 . S
C3820 C3825 1.390 . S
C3821 C3815 1.465 . S
C3821 C3820 1.396 . S
C3821 C3822 1.399 . S
C3822 H3808 0.929 . S
C3822 C3821 1.399 . S
C3822 C3823 1.385 . S
C3823 H3809 0.931 . S
C3823 C3822 1.385 . S
C3823 C3824 1.389 . S
C3824 C3823 1.389 . S
C3824 C3825 1.387 . S
C3825 H3810 0.930 . S
C3825 C3820 1.390 . S
C3825 C3824 1.387 . S
H3826 C3838 0.930 . S
H3827 C3840 0.930 . S
H3828 C3841 0.930 . S
H3829 C3845 0.959 1_455 S
H3830 C3845 0.946 1_455 S
H3831 C3845 0.961 . S
H3832 C3846 0.960 . S
H3833 C3846 0.961 . S
H3834 C3846 0.959 . S
H3835 C3849 0.929 . S
H3836 C3850 0.931 . S
H3837 C3852 0.930 . S
C3838 H3826 0.930 . S
C3838 C3839 1.399 . S
C3838 C3843 1.399 . S
C3839 C3838 1.399 . S
C3839 C3840 1.376 . S
C3840 H3827 0.930 . S
C3840 C3839 1.376 . S
C3840 C3841 1.388 . S
C3841 H3828 0.930 . S
C3841 C3840 1.388 . S
C3841 C3842 1.390 . S
C3842 C3841 1.390 . S
C3842 C3843 1.394 . S
C3842 C3848 1.465 . S
C3843 C3838 1.399 . S
C3843 C3842 1.394 . S
C3843 C3844 1.516 . S
C3844 C3843 1.516 . S
C3844 C3845 1.502 . S
C3844 C3846 1.561 . S
C3844 C3847 1.526 . S
C3845 H3829 0.959 1_655 S
C3845 H3830 0.946 1_655 S
C3845 H3831 0.961 . S
C3845 C3844 1.502 . S
C3846 H3832 0.960 . S
C3846 H3833 0.961 . S
C3846 H3834 0.959 . S
C3846 C3844 1.561 . S
C3847 C3844 1.526 . S
C3847 C3848 1.396 . S
C3847 C3852 1.390 1_655 S
C3848 C3842 1.465 . S
C3848 C3847 1.396 . S
C3848 C3849 1.399 . S
C3849 H3835 0.929 . S
C3849 C3848 1.399 . S
C3849 C3850 1.385 1_655 S
C3850 H3836 0.931 . S
C3850 C3849 1.385 1_455 S
C3850 C3851 1.389 . S
C3851 C3850 1.389 . S
C3851 C3852 1.387 . S
C3852 H3837 0.930 . S
C3852 C3847 1.390 1_455 S
C3852 C3851 1.387 . S
H3853 C3865 0.930 . S
H3854 C3867 0.930 . S
H3855 C3868 0.930 . S
H3856 C3872 0.959 . S
H3857 C3872 0.959 . S
H3858 C3872 0.961 . S
H3859 C3873 0.960 . S
H3860 C3873 0.961 . S
H3861 C3873 0.959 . S
H3862 C3876 0.929 . S
H3863 C3877 0.931 . S
H3864 C3879 0.930 . S
C3865 H3853 0.930 . S
C3865 C3866 1.399 . S
C3865 C3870 1.399 . S
C3866 C3865 1.399 . S
C3866 C3867 1.376 . S
C3867 H3854 0.930 . S
C3867 C3866 1.376 . S
C3867 C3868 1.388 . S
C3868 H3855 0.930 . S
C3868 C3867 1.388 . S
C3868 C3869 1.390 . S
C3869 C3868 1.390 . S
C3869 C3870 1.394 . S
C3869 C3875 1.465 . S
C3870 C3865 1.399 . S
C3870 C3869 1.394 . S
C3870 C3871 1.516 . S
C3871 C3870 1.516 . S
C3871 C3872 1.502 . S
C3871 C3873 1.561 . S
C3871 C3874 1.526 . S
C3872 H3856 0.959 . S
C3872 H3857 0.959 . S
C3872 H3858 0.961 . S
C3872 C3871 1.502 . S
C3873 H3859 0.960 . S
C3873 H3860 0.961 . S
C3873 H3861 0.959 . S
C3873 C3871 1.561 . S
C3874 C3871 1.526 . S
C3874 C3875 1.396 . S
C3874 C3879 1.390 . S
C3875 C3869 1.465 . S
C3875 C3874 1.396 . S
C3875 C3876 1.399 . S
C3876 H3862 0.929 . S
C3876 C3875 1.399 . S
C3876 C3877 1.385 . S
C3877 H3863 0.931 . S
C3877 C3876 1.385 . S
C3877 C3878 1.389 . S
C3878 C3877 1.389 . S
C3878 C3879 1.387 . S
C3879 H3864 0.930 . S
C3879 C3874 1.390 . S
C3879 C3878 1.387 . S
H3880 C3892 0.930 . S
H3881 C3894 0.930 . S
H3882 C3895 0.930 . S
H3883 C3899 0.959 . S
H3884 C3899 0.959 . S
H3885 C3899 0.961 . S
H3886 C3900 0.960 . S
H3887 C3900 0.961 . S
H3888 C3900 0.959 . S
H3889 C3903 0.929 . S
H3890 C3904 0.931 . S
H3891 C3906 0.930 . S
C3892 H3880 0.930 . S
C3892 C3893 1.399 . S
C3892 C3897 1.399 . S
C3893 C3892 1.399 . S
C3893 C3894 1.376 . S
C3894 H3881 0.930 . S
C3894 C3893 1.376 . S
C3894 C3895 1.388 . S
C3895 H3882 0.930 . S
C3895 C3894 1.388 . S
C3895 C3896 1.390 . S
C3896 C3895 1.390 . S
C3896 C3897 1.394 . S
C3896 C3902 1.465 . S
C3897 C3892 1.399 . S
C3897 C3896 1.394 . S
C3897 C3898 1.516 . S
C3898 C3897 1.516 . S
C3898 C3899 1.502 . S
C3898 C3900 1.561 . S
C3898 C3901 1.526 . S
C3899 H3883 0.959 . S
C3899 H3884 0.959 . S
C3899 H3885 0.961 . S
C3899 C3898 1.502 . S
C3900 H3886 0.960 . S
C3900 H3887 0.961 . S
C3900 H3888 0.959 . S
C3900 C3898 1.561 . S
C3901 C3898 1.526 . S
C3901 C3902 1.396 . S
C3901 C3906 1.390 . S
C3902 C3896 1.465 . S
C3902 C3901 1.396 . S
C3902 C3903 1.399 . S
C3903 H3889 0.929 . S
C3903 C3902 1.399 . S
C3903 C3904 1.385 . S
C3904 H3890 0.931 . S
C3904 C3903 1.385 . S
C3904 C3905 1.389 . S
C3905 C3904 1.389 . S
C3905 C3906 1.387 . S
C3906 H3891 0.930 . S
C3906 C3901 1.390 . S
C3906 C3905 1.387 . S
H3907 C3919 0.930 . S
H3908 C3921 0.930 . S
H3909 C3922 0.930 . S
H3910 C3926 0.959 . S
H3911 C3926 0.959 . S
H3912 C3926 0.961 . S
H3913 C3927 0.960 . S
H3914 C3927 0.961 . S
H3915 C3927 0.959 . S
H3916 C3930 0.919 1_545 S
H3917 C3931 0.931 . S
H3918 C3933 0.930 . S
C3919 H3907 0.930 . S
C3919 C3920 1.399 . S
C3919 C3924 1.399 . S
C3920 C3919 1.399 . S
C3920 C3921 1.376 . S
C3921 H3908 0.930 . S
C3921 C3920 1.376 . S
C3921 C3922 1.388 . S
C3922 H3909 0.930 . S
C3922 C3921 1.388 . S
C3922 C3923 1.390 . S
C3923 C3922 1.390 . S
C3923 C3924 1.394 . S
C3923 C3929 1.465 . S
C3924 C3919 1.399 . S
C3924 C3923 1.394 . S
C3924 C3925 1.516 . S
C3925 C3924 1.516 . S
C3925 C3926 1.502 . S
C3925 C3927 1.561 . S
C3925 C3928 1.526 . S
C3926 H3910 0.959 . S
C3926 H3911 0.959 . S
C3926 H3912 0.961 . S
C3926 C3925 1.502 . S
C3927 H3913 0.960 . S
C3927 H3914 0.961 . S
C3927 H3915 0.959 . S
C3927 C3925 1.561 . S
C3928 C3925 1.526 . S
C3928 C3929 1.396 . S
C3928 C3933 1.390 . S
C3929 C3923 1.465 . S
C3929 C3928 1.396 . S
C3929 C3930 1.413 . S
C3930 H3916 0.919 1_565 S
C3930 C3929 1.413 . S
C3930 C3931 1.382 1_565 S
C3931 H3917 0.931 . S
C3931 C3930 1.382 1_545 S
C3931 C3932 1.416 . S
C3932 C3931 1.416 . S
C3932 C3933 1.351 1_545 S
C3933 H3918 0.930 . S
C3933 C3928 1.390 . S
C3933 C3932 1.351 1_565 S
H3934 C3946 0.930 . S
H3935 C3948 0.930 . S
H3936 C3949 0.930 . S
H3937 C3953 0.959 . S
H3938 C3953 0.959 . S
H3939 C3953 0.961 . S
H3940 C3954 0.960 . S
H3941 C3954 0.961 . S
H3942 C3954 0.959 . S
H3943 C3957 0.929 . S
H3944 C3958 0.931 . S
H3945 C3960 0.930 . S
C3946 H3934 0.930 . S
C3946 C3947 1.399 . S
C3946 C3951 1.399 . S
C3947 C3946 1.399 . S
C3947 C3948 1.376 . S
C3948 H3935 0.930 . S
C3948 C3947 1.376 . S
C3948 C3949 1.388 . S
C3949 H3936 0.930 . S
C3949 C3948 1.388 . S
C3949 C3950 1.390 . S
C3950 C3949 1.390 . S
C3950 C3951 1.394 . S
C3950 C3956 1.465 . S
C3951 C3946 1.399 . S
C3951 C3950 1.394 . S
C3951 C3952 1.516 . S
C3952 C3951 1.516 . S
C3952 C3953 1.502 . S
C3952 C3954 1.561 . S
C3952 C3955 1.526 . S
C3953 H3937 0.959 . S
C3953 H3938 0.959 . S
C3953 H3939 0.961 . S
C3953 C3952 1.502 . S
C3954 H3940 0.960 . S
C3954 H3941 0.961 . S
C3954 H3942 0.959 . S
C3954 C3952 1.561 . S
C3955 C3952 1.526 . S
C3955 C3956 1.396 . S
C3955 C3960 1.390 . S
C3956 C3950 1.465 . S
C3956 C3955 1.396 . S
C3956 C3957 1.399 . S
C3957 H3943 0.929 . S
C3957 C3956 1.399 . S
C3957 C3958 1.385 . S
C3958 H3944 0.931 . S
C3958 C3957 1.385 . S
C3958 C3959 1.389 . S
C3959 C3958 1.389 . S
C3959 C3960 1.387 . S
C3960 H3945 0.930 . S
C3960 C3955 1.390 . S
C3960 C3959 1.387 . S
H3961 C3973 0.930 . S
H3962 C3975 0.930 . S
H3963 C3976 0.930 . S
H3964 C3980 0.959 . S
H3965 C3980 0.945 1_556 S
H3966 C3980 0.961 . S
H3967 C3981 0.960 . S
H3968 C3981 0.961 . S
H3969 C3981 0.959 . S
H3970 C3984 0.929 . S
H3971 C3985 0.931 . S
H3972 C3987 0.930 . S
C3973 H3961 0.930 . S
C3973 C3974 1.399 . S
C3973 C3978 1.399 . S
C3974 C3973 1.399 . S
C3974 C3975 1.376 . S
C3975 H3962 0.930 . S
C3975 C3974 1.376 . S
C3975 C3976 1.388 . S
C3976 H3963 0.930 . S
C3976 C3975 1.388 . S
C3976 C3977 1.390 . S
C3977 C3976 1.390 . S
C3977 C3978 1.394 . S
C3977 C3983 1.465 . S
C3978 C3973 1.399 . S
C3978 C3977 1.394 . S
C3978 C3979 1.516 . S
C3979 C3978 1.516 . S
C3979 C3980 1.502 . S
C3979 C3981 1.561 . S
C3979 C3982 1.526 . S
C3980 H3964 0.959 . S
C3980 H3965 0.945 1_554 S
C3980 H3966 0.961 . S
C3980 C3979 1.502 . S
C3981 H3967 0.960 . S
C3981 H3968 0.961 . S
C3981 H3969 0.959 . S
C3981 C3979 1.561 . S
C3982 C3979 1.526 . S
C3982 C3983 1.396 . S
C3982 C3987 1.390 . S
C3983 C3977 1.465 . S
C3983 C3982 1.396 . S
C3983 C3984 1.399 . S
C3984 H3970 0.929 . S
C3984 C3983 1.399 . S
C3984 C3985 1.385 . S
C3985 H3971 0.931 . S
C3985 C3984 1.385 . S
C3985 C3986 1.389 . S
C3986 C3985 1.389 . S
C3986 C3987 1.387 . S
C3987 H3972 0.930 . S
C3987 C3982 1.390 . S
C3987 C3986 1.387 . S
H3988 C4000 0.930 . S
H3989 C4002 0.930 . S
H3990 C4003 0.930 . S
H3991 C4007 0.959 . S
H3992 C4007 0.959 . S
H3993 C4007 0.961 . S
H3994 C4008 0.960 . S
H3995 C4008 0.961 . S
H3996 C4008 0.959 . S
H3997 C4011 0.929 . S
H3998 C4012 0.931 . S
H3999 C4014 0.930 . S
C4000 H3988 0.930 . S
C4000 C4001 1.399 . S
C4000 C4005 1.399 . S
C4001 C4000 1.399 . S
C4001 C4002 1.376 . S
C4002 H3989 0.930 . S
C4002 C4001 1.376 . S
C4002 C4003 1.388 . S
C4003 H3990 0.930 . S
C4003 C4002 1.388 . S
C4003 C4004 1.390 . S
C4004 C4003 1.390 . S
C4004 C4005 1.394 . S
C4004 C4010 1.465 . S
C4005 C4000 1.399 . S
C4005 C4004 1.394 . S
C4005 C4006 1.516 . S
C4006 C4005 1.516 . S
C4006 C4007 1.502 . S
C4006 C4008 1.561 . S
C4006 C4009 1.526 . S
C4007 H3991 0.959 . S
C4007 H3992 0.959 . S
C4007 H3993 0.961 . S
C4007 C4006 1.502 . S
C4008 H3994 0.960 . S
C4008 H3995 0.961 . S
C4008 H3996 0.959 . S
C4008 C4006 1.561 . S
C4009 C4006 1.526 . S
C4009 C4010 1.396 . S
C4009 C4014 1.390 . S
C4010 C4004 1.465 . S
C4010 C4009 1.396 . S
C4010 C4011 1.399 . S
C4011 H3997 0.929 . S
C4011 C4010 1.399 . S
C4011 C4012 1.385 . S
C4012 H3998 0.931 . S
C4012 C4011 1.385 . S
C4012 C4013 1.389 . S
C4013 C4012 1.389 . S
C4013 C4014 1.387 . S
C4014 H3999 0.930 . S
C4014 C4009 1.390 . S
C4014 C4013 1.387 . S
H4015 C4027 0.925 1_556 S
H4016 C4029 0.930 . S
H4017 C4030 0.930 . S
H4018 C4034 0.959 . S
H4019 C4034 0.959 . S
H4020 C4034 0.961 . S
H4021 C4035 0.960 . S
H4022 C4035 0.961 . S
H4023 C4035 0.959 . S
H4024 C4038 0.929 . S
H4025 C4039 0.931 . S
H4026 C4041 0.930 . S
C4027 H4015 0.925 1_554 S
C4027 C4028 1.399 . S
C4027 C4032 1.399 . S
C4028 C4027 1.399 . S
C4028 C4029 1.376 . S
C4029 H4016 0.930 . S
C4029 C4028 1.376 . S
C4029 C4030 1.388 . S
C4030 H4017 0.930 . S
C4030 C4029 1.388 . S
C4030 C4031 1.390 . S
C4031 C4030 1.390 . S
C4031 C4032 1.394 . S
C4031 C4037 1.465 . S
C4032 C4027 1.399 . S
C4032 C4031 1.394 . S
C4032 C4033 1.516 1_554 S
C4033 C4032 1.516 1_556 S
C4033 C4034 1.502 . S
C4033 C4035 1.561 . S
C4033 C4036 1.526 1_556 S
C4034 H4018 0.959 . S
C4034 H4019 0.959 . S
C4034 H4020 0.961 . S
C4034 C4033 1.502 . S
C4035 H4021 0.960 . S
C4035 H4022 0.961 . S
C4035 H4023 0.959 . S
C4035 C4033 1.561 . S
C4036 C4033 1.526 1_554 S
C4036 C4037 1.396 . S
C4036 C4041 1.390 1_554 S
C4037 C4031 1.465 . S
C4037 C4036 1.396 . S
C4037 C4038 1.399 . S
C4038 H4024 0.929 . S
C4038 C4037 1.399 . S
C4038 C4039 1.385 . S
C4039 H4025 0.931 . S
C4039 C4038 1.385 . S
C4039 C4040 1.389 . S
C4040 C4039 1.389 . S
C4040 C4041 1.387 1_554 S
C4041 H4026 0.930 . S
C4041 C4036 1.390 1_556 S
C4041 C4040 1.387 1_556 S
H4042 C4054 0.930 . S
H4043 C4056 0.930 . S
H4044 C4057 0.930 . S
H4045 C4061 0.959 . S
H4046 C4061 0.959 . S
H4047 C4061 0.961 . S
H4048 C4062 0.960 . S
H4049 C4062 0.961 . S
H4050 C4062 0.959 . S
H4051 C4065 0.929 . S
H4052 C4066 0.931 . S
H4053 C4068 0.930 . S
C4054 H4042 0.930 . S
C4054 C4055 1.399 . S
C4054 C4059 1.399 . S
C4055 C4054 1.399 . S
C4055 C4056 1.376 . S
C4056 H4043 0.930 . S
C4056 C4055 1.376 . S
C4056 C4057 1.388 . S
C4057 H4044 0.930 . S
C4057 C4056 1.388 . S
C4057 C4058 1.390 . S
C4058 C4057 1.390 . S
C4058 C4059 1.394 . S
C4058 C4064 1.465 . S
C4059 C4054 1.399 . S
C4059 C4058 1.394 . S
C4059 C4060 1.516 . S
C4060 C4059 1.516 . S
C4060 C4061 1.502 . S
C4060 C4062 1.561 . S
C4060 C4063 1.526 . S
C4061 H4045 0.959 . S
C4061 H4046 0.959 . S
C4061 H4047 0.961 . S
C4061 C4060 1.502 . S
C4062 H4048 0.960 . S
C4062 H4049 0.961 . S
C4062 H4050 0.959 . S
C4062 C4060 1.561 . S
C4063 C4060 1.526 . S
C4063 C4064 1.396 . S
C4063 C4068 1.390 . S
C4064 C4058 1.465 . S
C4064 C4063 1.396 . S
C4064 C4065 1.399 . S
C4065 H4051 0.929 . S
C4065 C4064 1.399 . S
C4065 C4066 1.385 . S
C4066 H4052 0.931 . S
C4066 C4065 1.385 . S
C4066 C4067 1.389 . S
C4067 C4066 1.389 . S
C4067 C4068 1.387 . S
C4068 H4053 0.930 . S
C4068 C4063 1.390 . S
C4068 C4067 1.387 . S
H4069 C4081 0.930 . S
H4070 C4083 0.930 . S
H4071 C4084 0.930 . S
H4072 C4088 0.959 . S
H4073 C4088 0.959 . S
H4074 C4088 0.961 . S
H4075 C4089 0.960 . S
H4076 C4089 0.961 . S
H4077 C4089 0.959 . S
H4078 C4092 0.929 . S
H4079 C4093 0.931 . S
H4080 C4095 0.930 . S
C4081 H4069 0.930 . S
C4081 C4082 1.399 . S
C4081 C4086 1.399 . S
C4082 C4081 1.399 . S
C4082 C4083 1.376 . S
C4083 H4070 0.930 . S
C4083 C4082 1.376 . S
C4083 C4084 1.388 . S
C4084 H4071 0.930 . S
C4084 C4083 1.388 . S
C4084 C4085 1.390 . S
C4085 C4084 1.390 . S
C4085 C4086 1.394 . S
C4085 C4091 1.465 . S
C4086 C4081 1.399 . S
C4086 C4085 1.394 . S
C4086 C4087 1.516 . S
C4087 C4086 1.516 . S
C4087 C4088 1.502 . S
C4087 C4089 1.561 . S
C4087 C4090 1.526 . S
C4088 H4072 0.959 . S
C4088 H4073 0.959 . S
C4088 H4074 0.961 . S
C4088 C4087 1.502 . S
C4089 H4075 0.960 . S
C4089 H4076 0.961 . S
C4089 H4077 0.959 . S
C4089 C4087 1.561 . S
C4090 C4087 1.526 . S
C4090 C4091 1.396 . S
C4090 C4095 1.390 . S
C4091 C4085 1.465 . S
C4091 C4090 1.396 . S
C4091 C4092 1.399 . S
C4092 H4078 0.929 . S
C4092 C4091 1.399 . S
C4092 C4093 1.385 . S
C4093 H4079 0.931 . S
C4093 C4092 1.385 . S
C4093 C4094 1.389 . S
C4094 C4093 1.389 . S
C4094 C4095 1.387 . S
C4095 H4080 0.930 . S
C4095 C4090 1.390 . S
C4095 C4094 1.387 . S
C1517 C255 2.086 . S
C1529 C895 2.122 . S
C1544 C147 1.808 . S
C1556 C906 1.822 . S
C1571 C184 1.629 . S
C1583 C975 1.617 . S
C1610 C988 1.163 . S
C1598 C220 1.216 . S
C1625 C40 2.497 . S
C1637 C1044 2.438 . S
C1664 C1095 2.139 . S
C1652 C74 2.168 . S
C1691 C1124 2.411 . S
C1679 C110 2.424 . S
C1706 C14 2.388 . S
C1718 C1175 2.357 . S
C1745 C866 1.265 . S
C1733 C579 1.289 . S
C1760 C616 1.000 . S
C1772 C908 0.883 . S
C1799 C946 1.059 . S
C1787 C687 1.090 . S
C1826 C1015 1.747 . S
C1814 C436 1.713 . S
C1841 C580 0.574 . S
C1853 C1049 0.632 1_655 S
C1880 C1066 1.453 . S
C1868 C615 1.430 . S
C1907 C1129 0.446 . S
C1895 C688 0.474 . S
C1934 C1146 2.109 . S
C1922 C435 2.162 . S
C1961 C868 1.569 . S
C1949 C410 1.701 1_554 S
C1976 C722 1.670 . S
C1988 C1207 1.654 . S
C2015 C1228 1.505 . S
C2003 C842 1.588 . S
C2042 C1287 0.512 1_655 S
C2030 C794 0.513 . S
C2057 C302 1.037 . S
C2069 C1148 1.029 . S
C2084 C338 1.413 . S
C2096 C948 1.404 . S
C2111 C830 0.998 . S
C2123 C1306 0.989 . S
C2150 C1375 1.058 . S
C2138 C758 1.032 . S
C2177 C884 2.051 . S
C2165 C158 1.953 . S
C2204 C1367 1.794 . S
C2192 C254 1.790 . S
C2219 C218 1.650 . S
C2231 C964 1.637 . S
C2246 C194 1.081 . S
C2258 C1329 1.202 . S
C2285 C1055 2.411 . S
C2273 C3 2.452 . S
C2300 C111 2.061 . S
C2312 C1244 2.006 . S
C2339 C1135 2.357 1_556 S
C2327 C76 2.362 . S
C2366 C1404 2.455 . S
C2354 C50 2.386 1_655 S
C2393 C887 1.297 . S
C2381 C364 1.275 . S
C2420 C1369 0.989 . S
C2408 C795 0.976 . S
C2435 C292 1.020 . S
C2447 C967 1.011 . S
C2462 C723 1.656 . S
C2474 C1324 1.659 . S
C2489 C363 0.637 . S
C2501 C1028 0.557 . S
C2528 C1247 1.458 . S
C2516 C796 1.454 . S
C2543 C291 0.364 . S
C2555 C1108 0.467 . S
C2570 C724 2.131 . S
C2582 C1407 2.080 . S
C2597 C482 1.572 . S
C2609 C889 1.679 1_554 S
C2624 C434 1.664 . S
C2636 C1186 1.592 . S
C2651 C662 1.293 . S
C2663 C1089 1.508 . S
C2678 C614 0.330 . S
C2690 C1266 0.500 . S
C2717 C1409 0.964 . S
C2705 C698 1.040 1_565 S
C2732 C554 1.282 . S
C2744 C969 1.425 . S
C2771 C1007 0.926 . S
C2759 C650 0.977 . S
C2798 C924 0.996 . S
C2786 C506 1.001 . S
C2813 C183 2.104 . S
C2825 C1455 2.119 . S
C2852 C1346 1.814 . S
C2840 C219 1.795 . S
C2867 C256 1.617 . S
C2879 C1495 1.611 . S
C2894 C148 1.190 . S
C2906 C1308 1.204 . S
C2921 C122 2.410 . S
C2933 C1204 2.490 . S
C2960 C1255 2.099 . S
C2948 C2 2.113 . S
C2987 C1284 2.322 . S
C2975 C39 2.317 . S
C3014 C1415 2.434 . S
C3002 C86 2.441 . S
C3041 C1426 1.321 . S
C3029 C651 1.321 . S
C3056 C472 0.951 . S
C3068 C1348 0.990 . S
C3095 C1466 1.045 . S
C3083 C507 1.079 . S
C3122 C1335 1.765 . S
C3110 C544 1.729 . S
C3149 C1209 0.668 . S
C3137 C652 0.580 . S
C3164 C471 1.422 . S
C3176 C1226 1.453 . S
C3203 C1289 0.437 . S
C3191 C508 0.465 . S
C3218 C543 2.165 . S
C3230 C1386 2.150 . S
C3257 C1428 1.566 . S
C3245 C806 1.733 . S
C3272 C326 1.651 . S
C3284 C1047 1.636 . S
C3311 C1068 1.483 . S
C3299 C374 1.520 . S
C3338 C1127 0.353 . S
C3326 C398 0.428 . S
C3365 C1388 1.023 . S
C3353 C770 1.014 . S
C3380 C734 1.408 . S
C3392 C1468 1.390 . S
C3419 C986 1.004 . S
C3407 C362 0.987 . S
C3446 C935 1.077 . S
C3434 C290 1.053 . S
C3461 C230 1.932 . S
C3473 C1444 2.057 . S
C3500 C927 1.806 . S
C3488 C182 1.795 . S
C3515 C146 1.647 . S
C3527 C1484 1.635 . S
C3542 C266 1.193 . S
C3554 C1009 1.126 . S
C3569 C75 2.474 . S
C3581 C1215 2.472 1_556 S
C3608 C1084 2.138 . S
C3596 C38 2.168 . S
C3623 C4 2.304 . S
C3635 C1295 2.285 . S
C3650 C112 2.412 . S
C3662 C1164 2.365 . S
C3689 C1447 1.245 . S
C3677 C832 1.293 . S
C3704 C399 0.993 . S
C3716 C929 0.984 . S
C3743 C1487 1.042 . S
C3731 C760 1.051 . S
C3758 C327 1.672 . S
C3770 C1004 1.674 . S
C3785 C831 0.638 . S
C3797 C1188 0.561 . S
C3824 C1087 1.454 . S
C3812 C400 1.459 . S
C3839 C759 0.414 . S
C3851 C1268 0.366 . S
C3878 C1167 2.126 . S
C3866 C328 2.121 . S
C3905 C1449 1.687 . S
C3893 C626 1.533 . S
C3932 C1026 1.620 . S
C3920 C542 1.660 . S
C3947 C590 1.264 . S
C3959 C1249 1.474 . S
C3986 C1106 0.361 . S
C3974 C470 0.461 . S
C4001 C518 0.853 . S
C4013 C1169 1.066 . S
C4028 C446 1.386 . S
C4040 C1489 1.350 . S
C4067 C1327 0.965 . S
C4055 C578 0.888 . S
C4094 C1364 0.961 . S
C4082 C686 0.976 . S
