# Generated by pormake.
# Topology zzz, (3,6)-cn, num edge types: 1
# Building blocks:
#     Node 0, Type 0, BuildingBlock: OLANEW_clean_sbu_2, # of connection points: 3
#     Node 1, Type 0, BuildingBlock: OLANEW_clean_sbu_2, # of connection points: 3
#     Node 2, Type 0, BuildingBlock: OLANEW_clean_sbu_2, # of connection points: 3
#     Node 3, Type 0, BuildingBlock: OLANEW_clean_sbu_2, # of connection points: 3
#     Node 4, Type 0, BuildingBlock: OLANEW_clean_sbu_2, # of connection points: 3
#     Node 5, Type 0, BuildingBlock: OLANEW_clean_sbu_2, # of connection points: 3
#     Node 6, Type 0, BuildingBlock: OLANEW_clean_sbu_2, # of connection points: 3
#     Node 7, Type 0, BuildingBlock: OLANEW_clean_sbu_2, # of connection points: 3
#     Node 8, Type 1, BuildingBlock: BETGAK_clean_sbu_0, # of connection points: 6
#     Node 9, Type 1, BuildingBlock: BETGAK_clean_sbu_0, # of connection points: 6
#     Node 10, Type 1, BuildingBlock: BETGAK_clean_sbu_0, # of connection points: 6
#     Node 11, Type 1, BuildingBlock: BETGAK_clean_sbu_0, # of connection points: 6
#     Edge 12, Type (0, 1), BuildingBlock: UVAHIK_clean_linker_0, # of connection points: 2
#     Edge 13, Type (0, 1), BuildingBlock: UVAHIK_clean_linker_0, # of connection points: 2
#     Edge 14, Type (0, 1), BuildingBlock: UVAHIK_clean_linker_0, # of connection points: 2
#     Edge 15, Type (0, 1), BuildingBlock: UVAHIK_clean_linker_0, # of connection points: 2
#     Edge 16, Type (0, 1), BuildingBlock: UVAHIK_clean_linker_0, # of connection points: 2
#     Edge 17, Type (0, 1), BuildingBlock: UVAHIK_clean_linker_0, # of connection points: 2
#     Edge 18, Type (0, 1), BuildingBlock: UVAHIK_clean_linker_0, # of connection points: 2
#     Edge 19, Type (0, 1), BuildingBlock: UVAHIK_clean_linker_0, # of connection points: 2
#     Edge 20, Type (0, 1), BuildingBlock: UVAHIK_clean_linker_0, # of connection points: 2
#     Edge 21, Type (0, 1), BuildingBlock: UVAHIK_clean_linker_0, # of connection points: 2
#     Edge 22, Type (0, 1), BuildingBlock: UVAHIK_clean_linker_0, # of connection points: 2
#     Edge 23, Type (0, 1), BuildingBlock: UVAHIK_clean_linker_0, # of connection points: 2
#     Edge 24, Type (0, 1), BuildingBlock: UVAHIK_clean_linker_0, # of connection points: 2
#     Edge 25, Type (0, 1), BuildingBlock: UVAHIK_clean_linker_0, # of connection points: 2
#     Edge 26, Type (0, 1), BuildingBlock: UVAHIK_clean_linker_0, # of connection points: 2
#     Edge 27, Type (0, 1), BuildingBlock: UVAHIK_clean_linker_0, # of connection points: 2
#     Edge 28, Type (0, 1), BuildingBlock: UVAHIK_clean_linker_0, # of connection points: 2
#     Edge 29, Type (0, 1), BuildingBlock: UVAHIK_clean_linker_0, # of connection points: 2
#     Edge 30, Type (0, 1), BuildingBlock: UVAHIK_clean_linker_0, # of connection points: 2
#     Edge 31, Type (0, 1), BuildingBlock: UVAHIK_clean_linker_0, # of connection points: 2
#     Edge 32, Type (0, 1), BuildingBlock: UVAHIK_clean_linker_0, # of connection points: 2
#     Edge 33, Type (0, 1), BuildingBlock: UVAHIK_clean_linker_0, # of connection points: 2
#     Edge 34, Type (0, 1), BuildingBlock: UVAHIK_clean_linker_0, # of connection points: 2
#     Edge 35, Type (0, 1), BuildingBlock: UVAHIK_clean_linker_0, # of connection points: 2
# Relax obj value: 0.225
# Max RMSD: 0.182
# Mean RMSD: 0.168
data_MOF--net-zzz--node1-OLANEW_clean_sbu_2--node2-BETGAK_clean_sbu_0--edge1-UVAHIK_clean_linker_0
_symmetry_space_group_name_H-M    P1
_symmetry_Int_Tables_number       1
_symmetry_cell_setting            triclinic
loop_
_symmetry_equiv_pos_as_xyz
'x, y, z'
_cell_length_a     71.697611
_cell_length_b     71.830574
_cell_length_c     19.32531
_cell_angle_alpha  89.952648
_cell_angle_beta   90.027042
_cell_angle_gamma 90.025945
loop_
_atom_site_label
_atom_site_type_symbol
_atom_site_fract_x
_atom_site_fract_y
_atom_site_fract_z
_atom_type_partial_charge
O0 O 0.74417 0.54141 0.25205 0.0
Cd1 Cd 0.71476 0.55169 0.30331 0.0
O2 O 0.74663 0.51876 0.32748 0.0
Cd3 Cd 0.75765 0.4929 0.37154 0.0
O4 O 0.75703 0.46437 0.42375 0.0
C5 C 0.76894 0.45826 0.46766 0.0
O6 O 0.75646 0.46387 0.4232 0.0
C7 C 0.7531 0.52749 0.27548 0.0
C8 C 0.68459 0.54348 0.21722 0.0
O9 O 0.69396 0.55855 0.20969 0.0
O10 O 0.68944 0.5323 0.26574 0.0
O11 O 0.97156 0.72596 0.17394 0.0
Cd12 Cd 0.96777 0.69802 0.24477 0.0
O13 O 0.99368 0.73258 0.2479 0.0
Cd14 Cd 0.01168 0.75292 0.29778 0.0
O15 O 0.01574 0.78002 0.34509 0.0
C16 C 0.00482 0.79273 0.32384 0.0
O17 O 0.99251 0.78873 0.27579 0.0
C18 C 0.98422 0.73698 0.19467 0.0
C19 C 0.97156 0.66569 0.16732 0.0
O20 O 0.95542 0.67267 0.17924 0.0
O21 O 0.98588 0.674 0.19227 0.0
O22 O 0.76412 0.96241 0.18879 0.0
Cd23 Cd 0.79362 0.95162 0.23807 0.0
O24 O 0.76148 0.98118 0.27747 0.0
Cd25 Cd 0.74693 0.00176 0.34051 0.0
O26 O 0.72195 0.01123 0.39338 0.0
C27 C 0.7195 0.00776 0.45719 0.0
O28 O 0.73301 -0.00016 0.49248 0.0
C29 C 0.75466 0.97432 0.22225 0.0
C30 C 0.82472 0.96111 0.1595 0.0
O31 O 0.81524 0.94641 0.14621 0.0
O32 O 0.81938 0.97146 0.20971 0.0
O33 O 0.54868 0.7653 0.19249 0.0
Cd34 Cd 0.55934 0.79346 0.25085 0.0
O35 O 0.52741 0.76257 0.27325 0.0
Cd36 Cd 0.50494 0.74773 0.32584 0.0
O37 O 0.49682 0.72253 0.38044 0.0
C38 C 0.50889 0.71686 0.42369 0.0
O39 O 0.52379 0.72712 0.43457 0.0
C40 C 0.53536 0.75618 0.21941 0.0
C41 C 0.54919 0.82509 0.17736 0.0
O42 O 0.56449 0.81655 0.16446 0.0
O43 O 0.53871 0.81871 0.22559 0.0
O44 O 0.27223 0.53221 0.15404 0.0
Cd45 Cd 0.30366 0.53554 0.10758 0.0
O46 O 0.26734 0.5103 0.07753 0.0
Cd47 Cd 0.24963 0.49146 0.01827 0.0
O48 O 0.2252 0.47977 0.96781 0.0
C49 C 0.22185 0.48376 0.90498 0.0
O50 O 0.23385 0.49407 0.87071 0.0
C51 C 0.2614 0.52019 0.12749 0.0
C52 C 0.32993 0.52247 0.20171 0.0
O53 O 0.32426 0.53938 0.20341 0.0
O54 O 0.32326 0.51172 0.15493 0.0
O55 O 0.9733 0.2683 0.02148 0.0
Cd56 Cd 0.97504 0.29744 0.95703 0.0
O57 O 0.00308 0.27295 0.04066 0.0
Cd58 Cd 0.0301 0.26108 0.06751 0.0
O59 O 0.04173 0.23487 0.03206 0.0
C60 C 0.04384 0.22094 0.07177 0.0
O61 O 0.04125 0.22299 0.13859 0.0
C62 C 0.98855 0.263 0.04844 0.0
C63 C 0.9841 0.32605 0.04773 0.0
O64 O 0.96713 0.32304 0.03015 0.0
O65 O 0.99684 0.31577 0.02132 0.0
O66 O 0.23676 0.97989 0.0671 0.0
Cd67 Cd 0.20455 0.97771 0.02694 0.0
O68 O 0.24008 0.00613 0.01108 0.0
Cd69 Cd 0.25287 0.03149 0.96973 0.0
O70 O 0.25494 0.06073 0.92412 0.0
C71 C 0.26767 0.06656 0.883 0.0
O72 O 0.25442 0.06126 0.92474 0.0
C73 C 0.2469 0.99373 0.05078 0.0
C74 C 0.17986 0.98571 0.13445 0.0
O75 O 0.18578 0.9691 0.12427 0.0
O76 O 0.18552 0.99855 0.09339 0.0
O77 O 0.51591 0.22697 0.08924 0.0
Cd78 Cd 0.5127 0.19559 0.0432 0.0
O79 O 0.48535 0.22676 0.09261 0.0
Cd80 Cd 0.45934 0.24234 0.09832 0.0
O81 O 0.4522 0.26852 0.04883 0.0
C82 C 0.45131 0.28345 0.08367 0.0
O83 O 0.45202 0.28255 0.15149 0.0
C84 C 0.5007 0.23513 0.1037 0.0
C85 C 0.50702 0.17109 0.15261 0.0
O86 O 0.52335 0.17373 0.12746 0.0
O87 O 0.4933 0.1798 0.12511 0.0
La88 La 0.01733 -0.00086 0.76156 0.0
La89 La 0.00429 0.01713 0.62752 0.0
C90 C 0.01896 0.97998 0.87075 0.0
C91 C 0.0162 0.9603 0.89044 0.0
C92 C 0.02564 0.94576 0.8566 0.0
C93 C 0.02299 0.92728 0.87738 0.0
C94 C 0.01072 0.92296 0.93185 0.0
C95 C 0.00113 0.93752 0.96494 0.0
C96 C 0.0039 0.95599 0.94457 0.0
C97 C 0.04353 0.00648 0.67008 0.0
C98 C 0.0032 0.97387 0.63593 0.0
C99 C 0.00172 0.03504 0.51552 0.0
C100 C 0.00082 0.05417 0.48744 0.0
C101 C 0.98504 0.05954 0.44944 0.0
C102 C 0.98443 0.0768 0.41617 0.0
C103 C 0.99969 0.08907 0.41958 0.0
C104 C 0.01535 0.08387 0.45917 0.0
C105 C 0.01592 0.06659 0.49274 0.0
C106 C 0.97802 0.00883 0.71666 0.0
C107 C 0.01873 0.04228 0.75473 0.0
O108 O 0.03349 0.98395 0.83242 0.0
O109 O 0.00402 0.98897 0.85076 0.0
O110 O 0.04613 0.00718 0.73651 0.0
O111 O 0.02735 0.00067 0.65799 0.0
O112 O 0.00586 0.97553 0.70348 0.0
O113 O 0.0045 0.98831 0.59362 0.0
O114 O 0.98732 0.02924 0.55109 0.0
O115 O 0.01756 0.0294 0.54217 0.0
O116 O 0.97581 0.00812 0.65019 0.0
O117 O 0.99392 0.01521 0.73053 0.0
O118 O 0.01492 0.04106 0.68751 0.0
O119 O 0.01839 0.02763 0.79607 0.0
H120 H 0.03509 0.94865 0.81419 0.0
H121 H 0.0304 0.91634 0.85038 0.0
H122 H 0.99171 0.93465 0.00747 0.0
H123 H 0.99648 0.96696 0.97139 0.0
H124 H 0.97325 0.05019 0.44427 0.0
H125 H 0.97201 0.08046 0.38733 0.0
H126 H 0.02742 0.0929 0.46248 0.0
H127 H 0.02835 0.06282 0.52138 0.0
La128 La 0.49644 0.01077 0.78856 0.0
La129 La 0.48696 0.00067 0.6397 0.0
C130 C 0.51049 0.01082 0.90807 0.0
C131 C 0.5298 0.01021 0.93408 0.0
C132 C 0.54454 0.01782 0.8955 0.0
C133 C 0.56292 0.01634 0.91916 0.0
C134 C 0.56693 0.00714 0.98178 0.0
C135 C 0.55206 -0.00041 0.02026 0.0
C136 C 0.53368 0.00111 0.99656 0.0
C137 C 0.49212 0.03872 0.70213 0.0
C138 C 0.52894 0.00187 0.67844 0.0
C139 C 0.47477 0.00108 0.5175 0.0
C140 C 0.45654 0.00174 0.48291 0.0
C141 C 0.44053 0.99431 0.5143 0.0
C142 C 0.42346 0.99454 0.4793 0.0
C143 C 0.42211 0.00239 0.41275 0.0
C144 C 0.43811 0.01019 0.38231 0.0
C145 C 0.45519 0.00981 0.41708 0.0
C146 C 0.49253 0.97257 0.72351 0.0
C147 C 0.4545 0.00963 0.75005 0.0
O148 O 0.50555 0.02595 0.87496 0.0
O149 O 0.50477 0.99575 0.8766 0.0
O150 O 0.48737 0.03952 0.76685 0.0
O151 O 0.49977 0.0234 0.69023 0.0
O152 O 0.52367 0.00273 0.74421 0.0
O153 O 0.51681 0.00327 0.62718 0.0
O154 O 0.47864 0.98582 0.55173 0.0
O155 O 0.47962 0.0161 0.55142 0.0
O156 O 0.49694 0.97237 0.65843 0.0
O157 O 0.4843 0.98753 0.73783 0.0
O158 O 0.45982 0.00858 0.6843 0.0
O159 O 0.46654 0.0084 0.80181 0.0
H160 H 0.54188 0.0248 0.84677 0.0
H161 H 0.57397 0.02248 0.8885 0.0
H162 H 0.55463 0.99214 0.06806 0.0
H163 H 0.52251 0.99495 0.02663 0.0
H164 H 0.44125 0.98821 0.56552 0.0
H165 H 0.41129 0.98865 0.50431 0.0
H166 H 0.43751 0.01619 0.33092 0.0
H167 H 0.46741 0.01566 0.39226 0.0
La168 La 0.49923 0.49822 0.7805 0.0
La169 La 0.51468 0.48434 0.64381 0.0
C170 C 0.49445 0.51524 0.89305 0.0
C171 C 0.49648 0.53468 0.9158 0.0
C172 C 0.48458 0.5417 0.96695 0.0
C173 C 0.48611 0.56022 0.98844 0.0
C174 C 0.49956 0.57207 0.9589 0.0
C175 C 0.51143 0.56497 0.90732 0.0
C176 C 0.50993 0.54644 0.88606 0.0
C177 C 0.4742 0.48799 0.68845 0.0
C178 C 0.51058 0.52711 0.66152 0.0
C179 C 0.52071 0.468 0.53049 0.0
C180 C 0.51772 0.44964 0.49811 0.0
C181 C 0.53244 0.44136 0.46171 0.0
C182 C 0.52992 0.42434 0.428 0.0
C183 C 0.51254 0.41525 0.42948 0.0
C184 C 0.49782 0.42351 0.46675 0.0
C185 C 0.5004 0.44051 0.5009 0.0
C186 C 0.53946 0.49532 0.73526 0.0
C187 C 0.50205 0.45581 0.76276 0.0
O188 O 0.48108 0.51208 0.84853 0.0
O189 O 0.50987 0.50652 0.87672 0.0
O190 O 0.47206 0.48603 0.75475 0.0
O191 O 0.48922 0.49644 0.67684 0.0
O192 O 0.50784 0.52384 0.72817 0.0
O193 O 0.51189 0.51349 0.6157 0.0
O194 O 0.53281 0.46868 0.58117 0.0
O195 O 0.50591 0.47814 0.54294 0.0
O196 O 0.54138 0.49757 0.66912 0.0
O197 O 0.52477 0.48633 0.74718 0.0
O198 O 0.5043 0.45888 0.69544 0.0
O199 O 0.50221 0.46945 0.80837 0.0
H200 H 0.47404 0.53286 0.99015 0.0
H201 H 0.47661 0.56531 0.02766 0.0
H202 H 0.52208 0.57366 0.88411 0.0
H203 H 0.51931 0.54131 0.84651 0.0
H204 H 0.54593 0.44814 0.45905 0.0
H205 H 0.54169 0.41826 0.40115 0.0
H206 H 0.48419 0.41703 0.46856 0.0
H207 H 0.48879 0.44659 0.52875 0.0
La208 La 0.99047 0.47905 0.70505 0.0
La209 La 0.00142 0.49645 0.56778 0.0
C210 C 0.97652 0.472 0.82187 0.0
C211 C 0.95908 0.47641 0.85813 0.0
C212 C 0.95272 0.4645 0.91046 0.0
C213 C 0.93606 0.46832 0.94516 0.0
C214 C 0.92545 0.48414 0.92801 0.0
C215 C 0.93192 0.49606 0.87533 0.0
C216 C 0.94859 0.49222 0.84068 0.0
C217 C 0.99642 0.4559 0.60243 0.0
C218 C 0.95935 0.49485 0.60195 0.0
C219 C 0.01598 0.50155 0.45073 0.0
C220 C 0.03528 0.50344 0.42577 0.0
C221 C 0.04916 0.51146 0.46753 0.0
C222 C 0.06754 0.51271 0.44379 0.0
C223 C 0.0724 0.50581 0.37814 0.0
C224 C 0.05846 0.49768 0.33671 0.0
C225 C 0.04006 0.49654 0.36033 0.0
C226 C 0.99531 0.52013 0.66819 0.0
C227 C 0.03281 0.48129 0.67378 0.0
O228 O 0.97496 0.46097 0.76834 0.0
O229 O 0.98773 0.48603 0.8098 0.0
O230 O 0.00059 0.45215 0.66621 0.0
O231 O 0.98843 0.4714 0.59918 0.0
O232 O 0.96449 0.49167 0.66685 0.0
O233 O 0.97157 0.49475 0.55061 0.0
O234 O 0.00969 0.51504 0.48986 0.0
O235 O 0.01151 0.48512 0.47488 0.0
O236 O 0.99206 0.52371 0.60347 0.0
O237 O 0.00311 0.5045 0.67377 0.0
O238 O 0.02839 0.48738 0.61099 0.0
O239 O 0.02016 0.4785 0.72231 0.0
H240 H 0.96061 0.45218 0.92431 0.0
H241 H 0.93136 0.45872 0.98472 0.0
H242 H 0.92421 0.50847 0.8614 0.0
H243 H 0.9533 0.50162 0.80042 0.0
H244 H 0.04583 0.51664 0.51869 0.0
H245 H 0.07801 0.5188 0.47727 0.0
H246 H 0.06175 0.49238 0.28571 0.0
H247 H 0.02956 0.4902 0.32759 0.0
C248 C 0.16219 0.97607 0.24037 0.0
C249 C 0.16692 0.98991 0.19201 0.0
C250 C 0.14993 0.97997 0.29461 0.0
C251 C 0.11188 0.01136 0.34379 0.0
H252 H 0.12097 0.99192 0.52809 0.0
C253 C 0.05412 0.00345 0.54794 0.0
C254 C 0.05828 0.00777 0.61711 0.0
C255 C 0.06808 0.00363 0.49773 0.0
C256 C 0.11834 0.99764 0.47713 0.0
H257 H 0.16252 0.01876 0.16291 0.0
H258 H 0.141 0.02553 0.25755 0.0
H259 H 0.1444 0.98765 0.43776 0.0
H260 H 0.08022 0.01582 0.6881 0.0
H261 H 0.10483 0.01597 0.59996 0.0
H262 H 0.08573 0.02115 0.38291 0.0
C263 C 0.14677 0.01164 0.25326 0.0
C264 C 0.13166 0.99502 0.42524 0.0
C265 C 0.15914 0.00777 0.19922 0.0
C266 C 0.07666 0.01245 0.63509 0.0
C267 C 0.09072 0.01248 0.58477 0.0
C268 C 0.09852 0.01388 0.39554 0.0
C269 C 0.14202 0.99777 0.30151 0.0
C270 C 0.12846 0.00164 0.35778 0.0
C271 C 0.08657 0.00795 0.51562 0.0
C272 C 0.10149 0.00682 0.46253 0.0
H273 H 0.16794 0.96217 0.23632 0.0
H274 H 0.14635 0.96892 0.3304 0.0
H275 H 0.10896 0.01653 0.29224 0.0
H276 H 0.04013 -0.00048 0.53271 0.0
H277 H 0.06449 -0.00022 0.4452 0.0
C278 C 0.51834 0.14632 0.23305 0.0
C279 C 0.50421 0.15867 0.21266 0.0
C280 C 0.51595 0.13492 0.29086 0.0
C281 C 0.47987 0.11563 0.40875 0.0
H282 H 0.52333 0.10382 0.51999 0.0
C283 C 0.48038 0.06971 0.66068 0.0
C284 C 0.49215 0.05425 0.65252 0.0
C285 C 0.48066 0.08417 0.61187 0.0
C286 C 0.51107 0.10714 0.4896 0.0
H287 H 0.4765 0.16883 0.23685 0.0
H288 H 0.47252 0.1493 0.33912 0.0
H289 H 0.52612 0.12609 0.42543 0.0
H290 H 0.5135 0.04175 0.58801 0.0
H291 H 0.51434 0.06713 0.50452 0.0
H292 H 0.46491 0.0966 0.47417 0.0
C293 C 0.4853 0.1481 0.3096 0.0
C294 C 0.51267 0.11973 0.43498 0.0
C295 C 0.4876 0.15935 0.25112 0.0
C296 C 0.50426 0.05351 0.59552 0.0
C297 C 0.50481 0.06803 0.5479 0.0
C298 C 0.47823 0.10322 0.46427 0.0
C299 C 0.49949 0.13579 0.33039 0.0
C300 C 0.49723 0.12376 0.39259 0.0
C301 C 0.49304 0.08346 0.55557 0.0
C302 C 0.49393 0.09857 0.50394 0.0
H303 H 0.53124 0.14537 0.20409 0.0
H304 H 0.52701 0.12528 0.30409 0.0
H305 H 0.46772 0.11826 0.37697 0.0
H306 H 0.47088 0.0705 0.70415 0.0
H307 H 0.47145 0.09599 0.61849 0.0
C308 C 0.34931 0.52694 0.30797 0.0
C309 C 0.34373 0.51559 0.25252 0.0
C310 C 0.36236 0.52056 0.35603 0.0
C311 C 0.4011 0.48798 0.37598 0.0
H312 H 0.39478 0.49878 0.57121 0.0
C313 C 0.4619 0.49229 0.569 0.0
C314 C 0.4592 0.48589 0.63691 0.0
C315 C 0.44724 0.4921 0.52156 0.0
C316 C 0.39664 0.49539 0.51705 0.0
H317 H 0.34744 0.4886 0.20407 0.0
H318 H 0.37042 0.47751 0.28805 0.0
H319 H 0.36967 0.50596 0.49025 0.0
H320 H 0.43932 0.47367 0.70804 0.0
H321 H 0.41349 0.47347 0.62494 0.0
H322 H 0.42824 0.47777 0.40268 0.0
C323 C 0.36466 0.49135 0.29411 0.0
C324 C 0.38235 0.49969 0.47062 0.0
C325 C 0.35147 0.49769 0.24623 0.0
C326 C 0.44173 0.47872 0.65598 0.0
C327 C 0.42697 0.47866 0.60857 0.0
C328 C 0.41545 0.48377 0.42241 0.0
C329 C 0.37021 0.50273 0.34953 0.0
C330 C 0.38458 0.49639 0.39945 0.0
C331 C 0.42951 0.48565 0.54121 0.0
C332 C 0.4135 0.48777 0.49323 0.0
H333 H 0.34362 0.5408 0.3143 0.0
H334 H 0.36658 0.52975 0.39761 0.0
H335 H 0.40324 0.48534 0.32138 0.0
H336 H 0.47514 0.49814 0.55314 0.0
H337 H 0.44957 0.49784 0.47044 0.0
C338 C 0.00536 0.33943 0.13747 0.0
C339 C 0.98877 0.34055 0.09889 0.0
C340 C 0.00914 0.35245 0.18933 0.0
C341 C 0.99924 0.39952 0.24696 0.0
H342 H 0.00507 0.38078 0.43398 0.0
C343 C 0.98854 0.44661 0.48229 0.0
C344 C 0.99861 0.44326 0.54323 0.0
C345 C 0.98999 0.4345 0.42628 0.0
C346 C 0.00391 0.38631 0.38203 0.0
H347 H 0.96345 0.35645 0.08253 0.0
H348 H 0.97036 0.37954 0.17189 0.0
H349 H 0.00325 0.35898 0.3375 0.0
H350 H 0.01846 0.425 0.59341 0.0
H351 H 0.02156 0.40401 0.49439 0.0
H352 H 0.00012 0.42681 0.29052 0.0
C353 C 0.98029 0.36847 0.16238 0.0
C354 C 0.00277 0.37379 0.32689 0.0
C355 C 0.97631 0.35524 0.1116 0.0
C356 C 0.01045 0.42776 0.54696 0.0
C357 C 0.01214 0.41573 0.49036 0.0
C358 C 0.00072 0.41205 0.30183 0.0
C359 C 0.9966 0.36703 0.20225 0.0
C360 C 0.99998 0.38029 0.25921 0.0
C361 C 0.00179 0.41887 0.42944 0.0
C362 C 0.00255 0.40561 0.37036 0.0
H363 H 0.01516 0.32819 0.12893 0.0
H364 H 0.02181 0.35111 0.2195 0.0
H365 H 0.9973 0.40482 0.19496 0.0
H366 H 0.97919 0.45841 0.47833 0.0
H367 H 0.98146 0.43719 0.38116 0.0
C368 C 0.84514 0.95651 0.05609 0.0
C369 C 0.84145 0.96585 0.1184 0.0
C370 C 0.86097 0.96086 0.01727 0.0
C371 C 0.89683 0.99761 0.99311 0.0
H372 H 0.92194 0.95858 0.89055 0.0
C373 C 0.96487 0.00949 0.83642 0.0
C374 C 0.96389 0.00323 0.76772 0.0
C375 C 0.951 0.00453 0.88391 0.0
C376 C 0.91504 0.9696 0.91895 0.0
H377 H 0.85157 0.98692 0.18939 0.0
H378 H 0.87951 0.99416 0.1227 0.0
H379 H 0.8958 0.95069 0.96571 0.0
H380 H 0.94805 0.98669 0.69473 0.0
H381 H 0.92398 0.97777 0.77793 0.0
H382 H 0.91634 0.01645 0.94652 0.0
C383 C 0.86995 0.98378 0.10284 0.0
C384 C 0.89999 0.96513 0.96169 0.0
C385 C 0.85398 0.97957 0.14129 0.0
C386 C 0.94906 0.99171 0.74744 0.0
C387 C 0.93539 0.98652 0.79507 0.0
C388 C 0.91205 0.00203 0.95101 0.0
C389 C 0.87365 0.97449 0.04024 0.0
C390 C 0.89046 0.97912 -0.00161 0.0
C391 C 0.93614 0.993 0.86356 0.0
C392 C 0.92108 0.98811 0.91269 0.0
H393 H 0.83569 0.94595 0.03682 0.0
H394 H 0.86311 0.95369 0.96866 0.0
H395 H 0.88972 0.00879 0.01979 0.0
H396 H 0.97617 0.01844 0.85309 0.0
H397 H 0.95191 0.00964 0.93653 0.0
C398 C 0.52801 0.85222 0.15587 0.0
C399 C 0.54366 0.84164 0.13682 0.0
C400 C 0.52258 0.86759 0.11629 0.0
C401 C 0.5397 0.90014 0.98087 0.0
H402 H 0.487 0.9077 0.94539 0.0
C403 C 0.51235 0.94578 0.75829 0.0
C404 C 0.49796 0.95829 0.77405 0.0
C405 C 0.51796 0.9325 0.80676 0.0
C406 C 0.50174 0.90587 0.95553 0.0
H407 H 0.56591 0.83886 0.06151 0.0
H408 H 0.5562 0.86528 0.99166 0.0
H409 H 0.49687 0.88275 0.02291 0.0
H410 H 0.47785 0.96667 0.85159 0.0
H411 H 0.48753 0.94319 0.93647 0.0
H412 H 0.54452 0.92293 0.91165 0.0
C413 C 0.54833 0.86204 0.03796 0.0
C414 C 0.50742 0.89163 8e-05 0.0
C415 C 0.55384 0.84679 0.07778 0.0
C416 C 0.48905 0.95718 0.83855 0.0
C417 C 0.49452 0.94375 0.88683 0.0
C418 C 0.53403 0.91425 0.93587 0.0
C419 C 0.53261 0.8726 0.05658 0.0
C420 C 0.52649 0.88846 0.01266 0.0
C421 C 0.50911 0.93137 0.87147 0.0
C422 C 0.51501 0.91711 0.92222 0.0
H423 H 0.51995 0.84865 0.20136 0.0
H424 H 0.51056 0.87557 0.13268 0.0
H425 H 0.55447 0.89836 0.99055 0.0
H426 H 0.51943 0.94639 0.70882 0.0
H427 H 0.52909 0.92297 0.79332 0.0
C428 C 0.66582 0.54946 0.11022 0.0
C429 C 0.66876 0.53908 0.17086 0.0
C430 C 0.65109 0.54511 0.06566 0.0
C431 C 0.61815 0.50693 0.02182 0.0
H432 H 0.59235 0.5462 0.92261 0.0
C433 C 0.55257 0.49351 0.85478 0.0
C434 C 0.55307 0.50118 0.78798 0.0
C435 C 0.56595 0.49856 0.90394 0.0
C436 C 0.5995 0.5351 0.9498 0.0
H437 H 0.65835 0.51619 0.23303 0.0
H438 H 0.63233 0.50893 0.15652 0.0
H439 H 0.6169 0.5542 0.00486 0.0
H440 H 0.56758 0.52035 0.72025 0.0
H441 H 0.59089 0.52939 0.80654 0.0
H442 H 0.60047 0.48789 0.96722 0.0
C443 C 0.64166 0.52015 0.14226 0.0
C444 C 0.61363 0.53965 0.99672 0.0
C445 C 0.65653 0.52438 0.18643 0.0
C446 C 0.56694 0.51423 0.77144 0.0
C447 C 0.58018 0.51946 0.82085 0.0
C448 C 0.60387 0.50241 0.97551 0.0
C449 C 0.6388 0.5304 0.08105 0.0
C450 C 0.62327 0.52561 0.03293 0.0
C451 C 0.57993 0.51154 0.88737 0.0
C452 C 0.59452 0.51643 0.93861 0.0
H453 H 0.67507 0.56081 0.09652 0.0
H454 H 0.64957 0.55311 0.01848 0.0
H455 H 0.62544 0.49571 0.0477 0.0
H456 H 0.54203 0.48335 0.86867 0.0
H457 H 0.56535 0.49234 0.95499 0.0
C458 C 0.95807 0.6376 0.10952 0.0
C459 C 0.97362 0.64875 0.12475 0.0
C460 C 0.9599 0.62197 0.06711 0.0
C461 C 0.99521 0.59043 0.98746 0.0
H462 H 0.95549 0.58123 0.85574 0.0
C463 C 0.98237 0.54992 0.71243 0.0
C464 C 0.992 0.53329 0.72521 0.0
C465 C 0.97945 0.56272 0.76557 0.0
C466 C 0.96679 0.58367 0.89182 0.0
H467 H 0.00332 0.65222 0.10821 0.0
H468 H 0.00644 0.62541 0.03229 0.0
H469 H 0.95216 0.60608 0.93977 0.0
H470 H 0.0064 0.51703 0.80301 0.0
H471 H 0.00062 0.53899 0.89694 0.0
H472 H 0.01028 0.5687 0.93676 0.0
C473 C 0.99289 0.62836 0.05444 0.0
C474 C 0.96475 0.59777 0.94089 0.0
C475 C 0.99109 0.64383 0.09761 0.0
C476 C 0.99863 0.5296 0.79214 0.0
C477 C 0.99554 0.54232 0.84565 0.0
C478 C 0.99734 0.57646 0.93781 0.0
C479 C 0.97729 0.6173 0.03817 0.0
C480 C 0.97902 0.60148 0.9889 0.0
C481 C 0.98598 0.5591 0.83292 0.0
C482 C 0.98325 0.57307 0.88878 0.0
H483 H 0.94444 0.64094 0.1303 0.0
H484 H 0.94766 0.61358 0.0569 0.0
H485 H 0.00637 0.59267 0.02434 0.0
H486 H 0.97721 0.55314 0.6611 0.0
H487 H 0.9724 0.57564 0.75335 0.0
C488 C 0.98085 0.22914 0.05995 0.0
C489 C 0.98967 0.24513 0.08583 0.0
C490 C 0.9824 0.21215 0.09506 0.0
C491 C 0.99152 0.1924 0.2674 0.0
H492 H 0.00337 0.14722 0.16701 0.0
C493 C 0.0069 0.1233 0.40923 0.0
C494 C 0.9994 0.10696 0.38048 0.0
C495 C 0.00638 0.14009 0.37251 0.0
C496 C 0.99984 0.15966 0.19577 0.0
H497 H 0.00637 0.25622 0.16955 0.0
H498 H 0.00866 0.22671 0.23198 0.0
H499 H 0.0005 0.17663 0.10446 0.0
H500 H 0.98593 0.09543 0.28948 0.0
H501 H 0.98451 0.12473 0.22656 0.0
H502 H 0.99053 0.17552 0.35848 0.0
C503 C 0.0008 0.22717 0.18413 0.0
C504 C 0.99821 0.17651 0.15987 0.0
C505 C 0.99962 0.24401 0.14821 0.0
C506 C 0.99156 0.10779 0.31378 0.0
C507 C 0.99099 0.12457 0.27718 0.0
C508 C 0.99301 0.17556 0.30321 0.0
C509 C 0.99241 0.211 0.15757 0.0
C510 C 0.99403 0.19306 0.19533 0.0
C511 C 0.99832 0.14097 0.30615 0.0
C512 C 0.99716 0.15896 0.26791 0.0
H513 H 0.97304 0.22972 0.012 0.0
H514 H 0.97558 0.19998 0.07382 0.0
H515 H 0.98807 0.20489 0.29604 0.0
H516 H 0.01293 0.12321 0.4606 0.0
H517 H 0.01237 0.15239 0.39611 0.0
C518 C 0.27498 0.01236 0.08755 0.0
C519 C 0.26603 0.99509 0.0792 0.0
C520 C 0.29249 0.01342 0.11932 0.0
C521 C 0.3208 0.98897 0.24701 0.0
H522 H 0.36221 0.01769 0.17446 0.0
C523 C 0.39358 0.98561 0.37163 0.0
C524 C 0.40421 0.00201 0.37437 0.0
C525 C 0.37696 0.98503 0.334 0.0
C526 C 0.3507 0.00982 0.19596 0.0
H527 H 0.26853 0.96537 0.09731 0.0
H528 H 0.29887 0.96729 0.15377 0.0
H529 H 0.3329 0.01632 0.10995 0.0
H530 H 0.40566 0.03076 0.34081 0.0
H531 H 0.37638 0.02994 0.27638 0.0
H532 H 0.33822 0.98275 0.33362 0.0
C533 C 0.29238 0.97999 0.13536 0.0
C534 C 0.33397 0.00899 0.15881 0.0
C535 C 0.27503 0.97891 0.10292 0.0
C536 C 0.39782 0.01787 0.33902 0.0
C537 C 0.38109 0.01736 0.30188 0.0
C538 C 0.33742 0.98994 0.28444 0.0
C539 C 0.30119 0.99726 0.14463 0.0
C540 C 0.31892 0.99843 0.18379 0.0
C541 C 0.37046 0.00091 0.29876 0.0
C542 C 0.35264 0.00026 0.25923 0.0
H543 H 0.26817 0.02515 0.07275 0.0
H544 H 0.29886 0.02695 0.12671 0.0
H545 H 0.3093 0.98099 0.26807 0.0
H546 H 0.39833 0.97308 0.39746 0.0
H547 H 0.36937 0.97201 0.33169 0.0
C548 C 0.48916 0.25859 0.18821 0.0
C549 C 0.50085 0.25414 0.13247 0.0
C550 C 0.48983 0.27626 0.21828 0.0
C551 C 0.50282 0.32494 0.18517 0.0
H552 H 0.50563 0.32817 0.38521 0.0
C553 C 0.51852 0.39403 0.32811 0.0
C554 C 0.50986 0.39724 0.39237 0.0
C555 C 0.5166 0.37691 0.29442 0.0
C556 C 0.50452 0.32759 0.32937 0.0
H557 H 0.52233 0.26456 0.06392 0.0
H558 H 0.52304 0.29583 0.115 0.0
H559 H 0.50382 0.2978 0.3299 0.0
H560 H 0.49213 0.38485 0.47084 0.0
H561 H 0.48825 0.3553 0.4111 0.0
H562 H 0.50326 0.35475 0.18455 0.0
C563 C 0.51344 0.28559 0.13566 0.0
C564 C 0.50356 0.31015 0.29767 0.0
C565 C 0.5131 0.26773 0.10668 0.0
C566 C 0.49889 0.38298 0.42125 0.0
C567 C 0.49687 0.3659 0.38733 0.0
C568 C 0.50358 0.34244 0.21693 0.0
C569 C 0.5019 0.28998 0.19218 0.0
C570 C 0.50276 0.30862 0.22528 0.0
C571 C 0.50587 0.36255 0.32382 0.0
C572 C 0.50452 0.34399 0.28953 0.0
H573 H 0.47976 0.24826 0.20955 0.0
H574 H 0.48072 0.27926 0.26156 0.0
H575 H 0.502 0.32419 0.12927 0.0
H576 H 0.52682 0.40477 0.30362 0.0
H577 H 0.52389 0.37483 0.24597 0.0
C578 C 0.23281 0.53402 0.18066 0.0
C579 C 0.24201 0.51845 0.15297 0.0
C580 C 0.21455 0.53251 0.2053 0.0
C581 C 0.17217 0.50382 0.19155 0.0
H582 H 0.1588 0.52722 0.36533 0.0
C583 C 0.10041 0.49184 0.32009 0.0
C584 C 0.09193 0.50708 0.35295 0.0
C585 C 0.11879 0.49305 0.2963 0.0
C586 C 0.16221 0.5208 0.31625 0.0
H587 H 0.23969 0.4888 0.13404 0.0
H588 H 0.2076 0.48627 0.17491 0.0
H589 H 0.19065 0.52979 0.32229 0.0
H590 H 0.09597 0.53564 0.38574 0.0
H591 H 0.1279 0.53791 0.34328 0.0
H592 H 0.14372 0.49504 0.18481 0.0
C593 C 0.21437 0.49975 0.17597 0.0
C594 C 0.18049 0.52225 0.29169 0.0
C595 C 0.2327 0.50124 0.1518 0.0
C596 C 0.10221 0.52358 0.36143 0.0
C597 C 0.12054 0.52484 0.33721 0.0
C598 C 0.15385 0.50248 0.21585 0.0
C599 C 0.20509 0.51537 0.20294 0.0
C600 C 0.18567 0.51378 0.22908 0.0
C601 C 0.12909 0.50959 0.30437 0.0
C602 C 0.14862 0.51095 0.27855 0.0
H603 H 0.23968 0.54744 0.18263 0.0
H604 H 0.20773 0.54482 0.22538 0.0
H605 H 0.17569 0.49734 0.14268 0.0
H606 H 0.09292 0.47885 0.31367 0.0
H607 H 0.125 0.48091 0.27241 0.0
C608 C 0.00505 0.76247 0.15229 0.0
C609 C 0.98701 0.75519 0.16077 0.0
C610 C 0.00767 0.78016 0.12364 0.0
C611 C 0.98387 0.82488 0.10201 0.0
H612 H 0.02184 0.83474 0.96391 0.0
C613 C 0.99007 0.89652 0.96873 0.0
C614 C 0.00803 0.90338 0.95474 0.0
C615 C 0.98754 0.87824 0.99178 0.0
C616 C 0.01133 0.8323 0.00312 0.0
H617 H 0.95761 0.76032 0.14384 0.0
H618 H 0.96213 0.79143 0.09453 0.0
H619 H 0.01745 0.8031 0.00713 0.0
H620 H 0.03745 0.8965 0.9545 0.0
H621 H 0.03312 0.86469 0.99589 0.0
H622 H 0.97797 0.85404 0.09944 0.0
C623 C 0.97424 0.78349 0.11044 0.0
C624 C 0.00879 0.81415 0.02766 0.0
C625 C 0.97165 0.76568 0.13818 0.0
C626 C 0.02341 0.89153 0.96401 0.0
C627 C 0.02091 0.87328 0.98762 0.0
C628 C 0.98652 0.84305 0.07797 0.0
C629 C 0.99227 0.79099 0.10352 0.0
C630 C 0.99497 0.81023 0.07712 0.0
C631 C 0.00293 0.86639 0.002 0.0
C632 C 0.00024 0.84701 0.02796 0.0
H633 H 0.01714 0.7545 0.16822 0.0
H634 H 0.02172 0.78558 0.11914 0.0
H635 H 0.97334 0.82234 0.14106 0.0
H636 H 0.97792 0.90525 0.96116 0.0
H637 H 0.97347 0.87334 0.00094 0.0
C638 C 0.72129 0.9826 0.24551 0.0
C639 C 0.73577 0.97948 0.19802 0.0
C640 C 0.70328 0.98678 0.22252 0.0
C641 C 0.67651 0.00216 0.06761 0.0
H642 H 0.6348 0.9804 0.16652 0.0
C643 C 0.60109 0.00154 0.95964 0.0
C644 C 0.58653 0.00521 0.00649 0.0
C645 C 0.61942 -0.0007 0.98312 0.0
C646 C 0.64628 0.98676 0.13877 0.0
H647 H 0.74262 0.97764 0.08914 0.0
H648 H 0.71108 0.98447 0.04864 0.0
H649 H 0.66646 0.97482 0.20708 0.0
H650 H 0.58003 0.00992 0.11471 0.0
H651 H 0.61193 0.00582 0.1556 0.0
H652 H 0.65622 0.01383 -0.00139 0.0
C653 C 0.71373 0.98432 0.1038 0.0
C654 C 0.66446 0.98359 0.1621 0.0
C655 C 0.73178 0.98025 0.12693 0.0
C656 C 0.59081 0.00676 0.0773 0.0
C657 C 0.60911 0.00444 0.10078 0.0
C658 C 0.65831 0.00524 0.04405 0.0
C659 C 0.69922 0.98758 0.15133 0.0
C660 C 0.67984 0.99124 0.12685 0.0
C661 C 0.62362 0.00059 0.05403 0.0
C662 C 0.64298 0.99757 0.07935 0.0
H663 H 0.72368 0.98118 0.30051 0.0
H664 H 0.69252 0.98927 0.26071 0.0
H665 H 0.68797 0.00851 0.03975 0.0
H666 H 0.59829 -3e-05 0.90488 0.0
H667 H 0.63024 0.99611 0.94587 0.0
C668 C 0.52568 0.72297 0.23315 0.0
C669 C 0.52981 0.73808 0.18974 0.0
C670 C 0.5209 0.70568 0.20529 0.0
C671 C 0.52635 0.6773 0.04819 0.0
H672 H 0.48719 0.64741 0.13083 0.0
C673 C 0.50454 0.60612 0.93477 0.0
C674 C 0.50141 0.59167 0.98254 0.0
C675 C 0.50673 0.62448 0.95734 0.0
C676 C 0.49827 0.65552 0.1075 0.0
H677 H 0.53276 0.74691 0.08318 0.0
H678 H 0.52437 0.71664 0.03399 0.0
H679 H 0.49334 0.67861 0.17506 0.0
H680 H 0.49819 0.58522 0.09152 0.0
H681 H 0.50209 0.61718 0.1309 0.0
H682 H 0.53149 0.65414 0.98138 0.0
C683 C 0.52472 0.71817 0.08972 0.0
C684 C 0.50178 0.6734 0.13282 0.0
C685 C 0.52946 0.7355 0.11776 0.0
C686 C 0.50032 0.59605 0.0533 0.0
C687 C 0.50253 0.61439 0.07586 0.0
C688 C 0.52286 0.65941 0.02295 0.0
C689 C 0.52039 0.70306 0.13322 0.0
C690 C 0.51598 0.68444 0.10389 0.0
C691 C 0.50586 0.62883 0.02822 0.0
C692 C 0.5089 0.64822 0.05273 0.0
H693 H 0.52682 0.72433 0.28867 0.0
H694 H 0.51813 0.69422 0.2403 0.0
H695 H 0.53756 0.68534 0.02537 0.0
H696 H 0.50517 0.60325 0.87979 0.0
H697 H 0.50899 0.6353 0.91918 0.0
C698 C 0.78525 0.51378 0.27871 0.0
C699 C 0.77044 0.5215 0.24086 0.0
C700 C 0.80198 0.50911 0.24572 0.0
C701 C 0.82928 0.52006 0.08847 0.0
H702 H 0.85665 0.47528 0.13584 0.0
C703 C 0.89207 0.49473 0.92823 0.0
C704 C 0.90769 0.48814 0.96476 0.0
C705 C 0.87537 0.49849 0.96273 0.0
C706 C 0.84925 0.48793 0.12255 0.0
H707 H 0.76138 0.5303 0.13899 0.0
H708 H 0.79036 0.52189 0.08118 0.0
H709 H 0.8273 0.48214 0.19459 0.0
H710 H 0.91804 0.48054 0.06645 0.0
H711 H 0.88885 0.48706 0.12658 0.0
H712 H 0.85116 0.52583 0.01636 0.0
C713 C 0.78925 0.51966 0.13646 0.0
C714 C 0.83244 0.49187 0.15622 0.0
C715 C 0.7726 0.52439 0.16946 0.0
C716 C 0.90619 0.48534 0.03659 0.0
C717 C 0.88947 0.48907 0.07108 0.0
C718 C 0.84603 0.5161 0.05475 0.0
C719 C 0.80422 0.51214 0.17425 0.0
C720 C 0.82221 0.50794 0.13931 0.0
C721 C 0.87389 0.49574 0.03455 0.0
C722 C 0.85618 0.49996 0.07117 0.0
H723 H 0.78419 0.512 0.33417 0.0
H724 H 0.81335 0.50366 0.2765 0.0
H725 H 0.82198 0.53277 0.07522 0.0
H726 H 0.89264 0.49672 0.87271 0.0
H727 H 0.86353 0.50334 0.93293 0.0
C728 C 0.04745 0.20008 0.96926 0.0
C729 C 0.04572 0.20216 0.04129 0.0
C730 C 0.04642 0.18249 0.93893 0.0
C731 C 0.02694 0.13598 0.97274 0.0
H732 H 0.05546 0.12207 0.81024 0.0
C733 C 0.02441 0.06228 0.85822 0.0
C734 C 0.02272 0.06066 0.78596 0.0
C735 C 0.028 0.07948 0.88875 0.0
C736 C 0.04729 0.12585 0.8552 0.0
H737 H 0.04244 0.18731 0.13833 0.0
H738 H 0.04102 0.15654 0.08548 0.0
H739 H 0.06161 0.15181 0.86707 0.0
H740 H 0.02367 0.07589 0.68902 0.0
H741 H 0.03 0.1061 0.7428 0.0
H742 H 0.01269 0.11001 0.96103 0.0
C743 C 0.04283 0.16856 0.0523 0.0
C744 C 0.05082 0.14286 0.88784 0.0
C745 C 0.04384 0.18619 0.08268 0.0
C746 C 0.02486 0.07667 0.74482 0.0
C747 C 0.02858 0.09393 0.77553 0.0
C748 C 0.0235 0.11896 0.94036 0.0
C749 C 0.04368 0.16656 0.97993 0.0
C750 C 0.04065 0.14813 0.94693 0.0
C751 C 0.03007 0.09549 0.84788 0.0
C752 C 0.03362 0.11373 0.88125 0.0
H753 H 0.0489 0.2121 0.93584 0.0
H754 H 0.04695 0.1815 0.88306 0.0
H755 H 0.01856 0.13977 0.01715 0.0
H756 H 0.02289 0.05026 0.89163 0.0
H757 H 0.02932 0.0802 0.94453 0.0
C758 C 0.29436 0.0583 0.80893 0.0
C759 C 0.2848 0.05569 0.87137 0.0
C760 C 0.31152 0.04967 0.79759 0.0
C761 C 0.3526 0.03411 0.88921 0.0
H762 H 0.36535 0.0105 0.71519 0.0
C763 C 0.42764 0.00904 0.83312 0.0
C764 C 0.43443 0.01191 0.76574 0.0
C765 C 0.40872 0.01155 0.84805 0.0
C766 C 0.3621 0.01722 0.76384 0.0
H767 H 0.28585 0.04241 0.97217 0.0
H768 H 0.31609 0.0274 0.95262 0.0
H769 H 0.33317 0.01971 0.73745 0.0
H770 H 0.42663 0.01958 0.66105 0.0
H771 H 0.3939 0.02461 0.68741 0.0
H772 H 0.38157 0.03258 0.91452 0.0
C773 C 0.31005 0.03582 0.91183 0.0
C774 C 0.34363 0.02236 0.7767 0.0
C775 C 0.29267 0.04422 0.9227 0.0
C776 C 0.42186 0.01718 0.71349 0.0
C777 C 0.403 0.01991 0.72857 0.0
C778 C 0.37113 0.02921 0.87601 0.0
C779 C 0.31968 0.03858 0.84927 0.0
C780 C 0.33876 0.03112 0.83904 0.0
C781 C 0.39617 0.01721 0.79614 0.0
C782 C 0.3762 0.02098 0.81261 0.0
H783 H 0.28865 0.06728 0.76909 0.0
H784 H 0.31876 0.05228 0.74934 0.0
H785 H 0.34926 0.04104 0.93741 0.0
H786 H 0.43692 0.00478 0.87444 0.0
H787 H 0.40396 0.00901 0.90037 0.0
C788 C 0.45223 0.30249 0.97532 0.0
C789 C 0.45342 0.3015 0.04787 0.0
C790 C 0.45712 0.31881 0.94045 0.0
C791 C 0.48697 0.35975 0.96223 0.0
H792 H 0.45929 0.38005 0.80703 0.0
C793 C 0.49952 0.43333 0.86029 0.0
C794 C 0.49862 0.43677 0.78877 0.0
C795 C 0.49498 0.41591 0.88688 0.0
C796 C 0.46734 0.37435 0.8495 0.0
H797 H 0.4599 0.31711 0.14092 0.0
H798 H 0.4683 0.34563 0.08003 0.0
H799 H 0.44802 0.35195 0.86504 0.0
H800 H 0.49269 0.42445 0.68874 0.0
H801 H 0.48477 0.3937 0.73565 0.0
H802 H 0.50623 0.38209 0.94716 0.0
C803 C 0.46378 0.3337 0.05012 0.0
C804 C 0.46083 0.35833 0.88292 0.0
C805 C 0.45878 0.31743 0.08502 0.0
C806 C 0.49352 0.4222 0.74409 0.0
C807 C 0.48887 0.40467 0.77094 0.0
C808 C 0.49348 0.37567 0.92877 0.0
C809 C 0.46341 0.33441 0.97742 0.0
C810 C 0.47043 0.35107 0.94036 0.0
C811 C 0.48943 0.40142 0.84275 0.0
C812 C 0.48357 0.38335 0.87284 0.0
H813 H 0.44814 0.29044 0.94524 0.0
H814 H 0.45676 0.31893 0.88441 0.0
H815 H 0.49491 0.3542 0.00526 0.0
H816 H 0.50345 0.4442 0.89626 0.0
H817 H 0.49531 0.41397 0.94246 0.0
C818 C 0.199 0.48496 0.80698 0.0
C819 C 0.20367 0.47882 0.87386 0.0
C820 C 0.181 0.48227 0.78098 0.0
C821 C 0.13324 0.47706 0.84421 0.0
H822 H 0.12147 0.46536 0.65323 0.0
C823 C 0.05746 0.46975 0.75447 0.0
C824 C 0.05264 0.47826 0.69145 0.0
C825 C 0.07611 0.46767 0.77334 0.0
C826 C 0.12457 0.46878 0.70659 0.0
H827 H 0.19345 0.46403 0.96425 0.0
H828 H 0.16215 0.45924 0.91864 0.0
H829 H 0.15397 0.46498 0.69197 0.0
H830 H 0.06371 0.49074 0.59778 0.0
H831 H 0.09634 0.48746 0.63148 0.0
H832 H 0.10405 0.4813 0.85889 0.0
C833 C 0.1723 0.46642 0.88681 0.0
C834 C 0.14315 0.46852 0.72876 0.0
C835 C 0.19027 0.46909 0.91277 0.0
C836 C 0.06694 0.48417 0.64677 0.0
C837 C 0.08565 0.48218 0.66589 0.0
C838 C 0.11474 0.47738 0.82209 0.0
C839 C 0.16734 0.4734 0.82139 0.0
C840 C 0.14766 0.4727 0.79782 0.0
C841 C 0.09043 0.47415 0.7299 0.0
C842 C 0.11016 0.47328 0.75304 0.0
H843 H 0.20902 0.49244 0.77559 0.0
H844 H 0.17757 0.4879 0.73055 0.0
H845 H 0.13628 0.48076 0.89736 0.0
H846 H 0.04682 0.4648 0.78974 0.0
H847 H 0.07931 0.46107 0.82233 0.0
C848 C 0.01358 0.81443 0.41954 0.0
C849 C 0.00516 0.81145 0.35491 0.0
C850 C 0.01285 0.83194 0.45069 0.0
C851 C 0.9867 0.87654 0.44406 0.0
H852 H 0.0285 0.89458 0.55239 0.0
C853 C 0.99546 0.9527 0.53727 0.0
C854 C 0.00089 0.95506 0.60657 0.0
C855 C 0.99481 0.93493 0.50807 0.0
C856 C 0.01667 0.88961 0.52275 0.0
H857 H 0.98997 0.82454 0.27092 0.0
H858 H 0.98928 0.85525 0.32392 0.0
H859 H 0.03051 0.86428 0.49629 0.0
H860 H 0.00944 0.94062 0.70018 0.0
H861 H 0.00856 0.90966 0.64864 0.0
H862 H 0.97317 0.90227 0.46918 0.0
C863 C 0.99591 0.84397 0.35182 0.0
C864 C 0.01778 0.87225 0.49076 0.0
C865 C 0.99642 0.8264 0.32116 0.0
C866 C 0.0052 0.93928 0.64661 0.0
C867 C 0.00481 0.92157 0.61713 0.0
C868 C 0.98572 0.89403 0.47532 0.0
C869 C 0.00391 0.84691 0.41737 0.0
C870 C 0.00279 0.86547 0.45109 0.0
C871 C 0.99984 0.91927 0.54742 0.0
C872 C 0.00067 0.90067 0.51506 0.0
H873 H 0.02031 0.80311 0.44694 0.0
H874 H 0.01893 0.8336 0.50161 0.0
H875 H 0.97475 0.87163 0.41507 0.0
H876 H 0.99199 0.96459 0.50525 0.0
H877 H 0.991 0.93349 0.45409 0.0
C878 C 0.68549 0.01454 0.44571 0.0
C879 C 0.70075 0.00989 0.48796 0.0
C880 C 0.66739 0.014 0.47197 0.0
C881 C 0.63889 0.01418 0.62904 0.0
H882 H 0.60422 0.98616 0.51541 0.0
C883 C 0.5626 -0.00086 0.7135 0.0
C884 C 0.54903 0.00118 0.66146 0.0
C885 C 0.58159 -0.00055 0.6968 0.0
C886 C 0.61365 0.99419 0.54749 0.0
H887 H 0.70908 0.00212 0.59201 0.0
H888 H 0.6773 0.00138 0.6381 0.0
H889 H 0.63643 0.98967 0.47823 0.0
H890 H 0.54479 0.0051 0.55113 0.0
H891 H 0.57763 0.00591 0.52244 0.0
H892 H 0.61592 0.01907 0.69759 0.0
C893 C 0.67944 0.00532 0.58456 0.0
C894 C 0.6321 0.99618 0.52616 0.0
C895 C 0.6976 0.0057 0.5581 0.0
C896 C 0.55483 0.00334 0.59252 0.0
C897 C 0.57372 0.00371 0.57595 0.0
C898 C 0.62031 0.01234 0.65019 0.0
C899 C 0.66416 0.00895 0.54114 0.0
C900 C 0.64483 0.00641 0.56613 0.0
C901 C 0.58735 0.00179 0.62775 0.0
C902 C 0.60742 0.00255 0.609 0.0
H903 H 0.68741 0.01791 0.39152 0.0
H904 H 0.65585 0.01716 0.43771 0.0
H905 H 0.64846 0.02214 0.66076 0.0
H906 H 0.55858 0.99736 0.7671 0.0
H907 H 0.59174 0.99775 0.73784 0.0
C908 C 0.49223 0.68646 0.4402 0.0
C909 C 0.50748 0.69812 0.45482 0.0
C910 C 0.49184 0.66818 0.46508 0.0
C911 C 0.51389 0.63682 0.59405 0.0
H912 H 0.4967 0.59789 0.47057 0.0
C913 C 0.51526 0.55135 0.5694 0.0
C914 C 0.51092 0.54671 0.63815 0.0
C915 C 0.51473 0.56992 0.54752 0.0
C916 C 0.50172 0.60858 0.50541 0.0
H917 H 0.53406 0.69988 0.5082 0.0
H918 H 0.53353 0.66806 0.55037 0.0
H919 H 0.49558 0.63026 0.43295 0.0
H920 H 0.5025 0.55795 0.73771 0.0
H921 H 0.50128 0.59002 0.69947 0.0
H922 H 0.52068 0.61517 0.6655 0.0
C923 C 0.52172 0.67304 0.5207 0.0
C924 C 0.5008 0.62716 0.48428 0.0
C925 C 0.52207 0.69129 0.49616 0.0
C926 C 0.50614 0.561 0.68454 0.0
C927 C 0.5055 0.57947 0.66264 0.0
C928 C 0.51492 0.61826 0.61497 0.0
C929 C 0.50671 0.66119 0.50488 0.0
C930 C 0.50693 0.6415 0.5283 0.0
C931 C 0.50975 0.58418 0.59388 0.0
C932 C 0.50886 0.6039 0.57093 0.0
H933 H 0.48075 0.69134 0.40859 0.0
H934 H 0.47993 0.6595 0.45288 0.0
H935 H 0.51853 0.64752 0.62957 0.0
H936 H 0.51903 0.54067 0.53244 0.0
H937 H 0.51835 0.5731 0.49441 0.0
C938 C 0.79598 0.47762 0.42534 0.0
C939 C 0.78684 0.46788 0.4786 0.0
C940 C 0.81388 0.48485 0.43606 0.0
C941 C 0.8479 0.49766 0.57151 0.0
H942 H 0.88518 0.48297 0.43704 0.0
C943 C 0.92588 0.49388 0.63832 0.0
C944 C 0.93924 0.49704 0.58644 0.0
C945 C 0.90687 0.49409 0.62263 0.0
C946 C 0.87496 0.4876 0.47448 0.0
H947 H 0.78904 0.45806 0.58404 0.0
H948 H 0.82017 0.47092 0.60325 0.0
H949 H 0.85237 0.47691 0.41382 0.0
H950 H 0.94306 0.50387 0.47802 0.0
H951 H 0.90985 0.50468 0.45093 0.0
H952 H 0.87043 0.5082 0.63258 0.0
C953 C 0.81348 0.47318 0.55368 0.0
C954 C 0.85613 0.48407 0.46114 0.0
C955 C 0.79573 0.46575 0.54265 0.0
C956 C 0.93313 0.50121 0.51908 0.0
C957 C 0.91408 0.50157 0.50347 0.0
C958 C 0.86671 0.50138 0.58457 0.0
C959 C 0.82286 0.48257 0.5002 0.0
C960 C 0.84246 0.48863 0.51029 0.0
C961 C 0.90071 0.49763 0.55475 0.0
C962 C 0.88054 0.49594 0.53705 0.0
H963 H 0.78968 0.47892 0.37467 0.0
H964 H 0.82085 0.49195 0.39393 0.0
H965 H 0.83761 0.50155 0.60989 0.0
H966 H 0.93006 0.49059 0.69079 0.0
H967 H 0.89707 0.49072 0.66336 0.0
loop_
_geom_bond_atom_site_label_1
_geom_bond_atom_site_label_2
_geom_bond_distance
_geom_bond_site_symmetry_2
_ccdc_geom_bond_type
O0 Cd1 2.300 . S
O0 C7 1.275 . S
Cd1 O0 2.300 . S
Cd1 O9 2.381 . S
Cd1 O10 2.378 . S
O2 Cd3 2.385 . S
O2 C7 1.255 . S
Cd3 O2 2.385 . S
Cd3 O4 2.317 . S
O4 Cd3 2.317 . S
O4 C5 1.232 . S
C5 O4 1.232 . S
C5 O6 1.218 . S
O6 C5 1.218 . S
C7 O0 1.275 . S
C7 O2 1.255 . S
C8 O9 1.258 . S
C8 O10 1.256 . S
O9 Cd1 2.381 . S
O9 C8 1.258 . S
O10 Cd1 2.378 . S
O10 C8 1.256 . S
O11 Cd12 2.300 1_655 S
O11 C18 1.275 1_655 S
Cd12 O11 2.300 1_455 S
Cd12 O20 2.381 1_455 S
Cd12 O21 2.378 . S
O13 Cd14 2.385 . S
O13 C18 1.255 . S
Cd14 O13 2.385 . S
Cd14 O15 2.317 . S
O15 Cd14 2.317 . S
O15 C16 1.232 . S
C16 O15 1.232 . S
C16 O17 1.218 . S
O17 C16 1.218 . S
C18 O11 1.275 1_455 S
C18 O13 1.255 . S
C19 O20 1.235 1_455 S
C19 O21 1.287 . S
O20 Cd12 2.381 1_655 S
O20 C19 1.235 1_655 S
O21 Cd12 2.378 . S
O21 C19 1.287 . S
O22 Cd23 2.300 1_565 S
O22 C29 1.275 1_565 S
Cd23 O22 2.300 1_545 S
Cd23 O31 2.381 1_545 S
Cd23 O32 2.378 . S
O24 Cd25 2.385 . S
O24 C29 1.255 . S
Cd25 O24 2.385 . S
Cd25 O26 2.317 . S
O26 Cd25 2.317 . S
O26 C27 1.232 . S
C27 O26 1.232 . S
C27 O28 1.218 . S
O28 C27 1.218 . S
C29 O22 1.275 1_545 S
C29 O24 1.255 . S
C30 O31 1.250 1_545 S
C30 O32 1.266 . S
O31 Cd23 2.381 1_565 S
O31 C30 1.250 1_565 S
O32 Cd23 2.378 . S
O32 C30 1.266 . S
O33 Cd34 2.300 . S
O33 C40 1.275 . S
Cd34 O33 2.300 . S
Cd34 O42 2.381 . S
Cd34 O43 2.378 . S
O35 Cd36 2.385 . S
O35 C40 1.255 . S
Cd36 O35 2.385 . S
Cd36 O37 2.317 . S
O37 Cd36 2.317 . S
O37 C38 1.232 . S
C38 O37 1.232 . S
C38 O39 1.218 . S
O39 C38 1.218 . S
C40 O33 1.275 . S
C40 O35 1.255 . S
C41 O42 1.258 . S
C41 O43 1.256 . S
O42 Cd34 2.381 . S
O42 C41 1.258 . S
O43 Cd34 2.378 . S
O43 C41 1.256 . S
O44 Cd45 2.300 . S
O44 C51 1.275 . S
Cd45 O44 2.300 . S
Cd45 O53 2.381 . S
Cd45 O54 2.378 . S
O46 Cd47 2.385 1_554 S
O46 C51 1.255 . S
Cd47 O46 2.385 1_556 S
Cd47 O48 2.317 . S
O48 Cd47 2.317 . S
O48 C49 1.232 . S
C49 O48 1.232 . S
C49 O50 1.218 . S
O50 C49 1.218 . S
C51 O44 1.275 . S
C51 O46 1.255 . S
C52 O53 1.258 . S
C52 O54 1.256 . S
O53 Cd45 2.381 . S
O53 C52 1.258 . S
O54 Cd45 2.378 . S
O54 C52 1.256 . S
O55 Cd56 2.315 . S
O55 C62 1.287 . S
Cd56 O55 2.315 . S
Cd56 O64 2.381 1_455 S
Cd56 O65 2.378 . S
O57 Cd58 2.376 1_554 S
O57 C62 1.255 . S
Cd58 O57 2.376 1_556 S
Cd58 O59 2.324 . S
O59 Cd58 2.324 . S
O59 C60 1.232 . S
C60 O59 1.232 . S
C60 O61 1.218 . S
O61 C60 1.218 . S
C62 O55 1.287 . S
C62 O57 1.255 . S
C63 O64 1.258 1_455 S
C63 O65 1.256 . S
O64 Cd56 2.381 1_655 S
O64 C63 1.258 1_655 S
O65 Cd56 2.378 . S
O65 C63 1.256 . S
O66 Cd67 2.299 1_565 S
O66 C73 1.274 1_565 S
Cd67 O66 2.299 1_545 S
Cd67 O75 2.381 1_545 S
Cd67 O76 2.378 . S
O68 Cd69 2.379 1_554 S
O68 C73 1.255 . S
Cd69 O68 2.379 1_556 S
Cd69 O70 2.322 . S
O70 Cd69 2.322 . S
O70 C71 1.232 . S
C71 O70 1.232 . S
C71 O72 1.218 . S
O72 C71 1.218 . S
C73 O66 1.274 1_545 S
C73 O68 1.255 . S
C74 O75 1.258 1_545 S
C74 O76 1.256 . S
O75 Cd67 2.381 1_565 S
O75 C74 1.258 1_565 S
O76 Cd67 2.378 . S
O76 C74 1.256 . S
O77 Cd78 2.300 . S
O77 C84 1.275 . S
Cd78 O77 2.300 . S
Cd78 O86 2.381 . S
Cd78 O87 2.378 . S
O79 Cd80 2.372 1_554 S
O79 C84 1.255 . S
Cd80 O79 2.372 1_556 S
Cd80 O81 2.327 . S
O81 Cd80 2.327 . S
O81 C82 1.232 . S
C82 O81 1.232 . S
C82 O83 1.218 . S
O83 C82 1.218 . S
C84 O77 1.275 . S
C84 O79 1.255 . S
C85 O86 1.258 . S
C85 O87 1.256 . S
O86 Cd78 2.381 . S
O86 C85 1.258 . S
O87 Cd78 2.378 . S
O87 C85 1.256 . S
La88 C90 2.928 . S
La88 O108 2.521 . S
La88 O109 2.628 . S
La88 O110 2.554 . S
La88 O111 2.757 1_565 S
La88 O112 2.470 . S
La88 O117 2.482 1_455 S
La88 O119 2.503 1_565 S
La89 C99 2.928 . S
La89 O111 2.482 1_655 S
La89 O113 2.503 1_545 S
La89 O114 2.521 . S
La89 O115 2.628 1_655 S
La89 O116 2.554 . S
La89 O117 2.757 1_545 S
La89 O118 2.470 . S
C90 La88 2.928 . S
C90 C91 1.503 . S
C90 O108 1.261 . S
C90 O109 1.243 . S
C91 C90 1.503 . S
C91 C92 1.394 . S
C91 C96 1.373 . S
C92 C91 1.394 . S
C92 C93 1.380 . S
C92 H120 0.930 . S
C93 C92 1.380 . S
C93 C94 1.376 . S
C93 H121 0.930 . S
C94 C93 1.376 . S
C94 C95 1.370 . S
C95 C94 1.370 . S
C95 C96 1.396 . S
C95 H122 0.929 1_455 S
C96 C91 1.373 . S
C96 C95 1.396 . S
C96 H123 0.929 1_455 S
C97 O110 1.240 1_545 S
C97 O111 1.290 . S
C98 O112 1.258 1_655 S
C98 O113 1.256 . S
C99 La89 2.928 . S
C99 C100 1.503 . S
C99 O114 1.261 . S
C99 O115 1.243 1_655 S
C100 C99 1.503 . S
C100 C101 1.394 . S
C100 C105 1.373 . S
C101 C100 1.394 . S
C101 C102 1.380 . S
C101 H124 0.930 . S
C102 C101 1.380 . S
C102 C103 1.376 . S
C102 H125 0.930 . S
C103 C102 1.376 . S
C103 C104 1.370 . S
C104 C103 1.370 . S
C104 C105 1.396 . S
C104 H126 0.929 1_655 S
C105 C100 1.373 . S
C105 C104 1.396 . S
C105 H127 0.929 1_655 S
C106 O116 1.240 . S
C106 O117 1.289 1_545 S
C107 O118 1.258 1_455 S
C107 O119 1.256 . S
O108 La88 2.521 . S
O108 C90 1.261 . S
O109 La88 2.628 . S
O109 C90 1.243 . S
O110 La88 2.554 . S
O110 C97 1.240 1_565 S
O111 La88 2.757 1_545 S
O111 La89 2.482 1_455 S
O111 C97 1.290 . S
O112 La88 2.470 . S
O112 C98 1.258 1_455 S
O113 La89 2.503 1_565 S
O113 C98 1.256 . S
O114 La89 2.521 . S
O114 C99 1.261 . S
O115 La89 2.628 1_455 S
O115 C99 1.243 1_455 S
O116 La89 2.554 . S
O116 C106 1.240 . S
O117 La88 2.482 1_655 S
O117 La89 2.757 1_565 S
O117 C106 1.289 1_565 S
O118 La89 2.470 . S
O118 C107 1.258 1_655 S
O119 La88 2.503 1_545 S
O119 C107 1.256 . S
H120 C92 0.930 . S
H121 C93 0.930 . S
H122 C95 0.929 1_655 S
H123 C96 0.929 1_655 S
H124 C101 0.930 . S
H125 C102 0.930 . S
H126 C104 0.929 1_455 S
H127 C105 0.929 1_455 S
La128 C130 2.928 . S
La128 O148 2.521 . S
La128 O149 2.641 . S
La128 O150 2.554 . S
La128 O151 2.757 . S
La128 O152 2.470 . S
La128 O157 2.482 1_545 S
La128 O159 2.503 . S
La129 C139 2.928 . S
La129 O151 2.482 1_565 S
La129 O153 2.503 . S
La129 O154 2.521 . S
La129 O155 2.628 1_565 S
La129 O156 2.554 . S
La129 O157 2.757 . S
La129 O158 2.470 . S
C130 La128 2.928 . S
C130 C131 1.503 . S
C130 O148 1.261 . S
C130 O149 1.273 . S
C131 C130 1.503 . S
C131 C132 1.394 . S
C131 C136 1.373 . S
C132 C131 1.394 . S
C132 C133 1.380 . S
C132 H160 0.930 . S
C133 C132 1.380 . S
C133 C134 1.376 . S
C133 H161 0.930 . S
C134 C133 1.376 . S
C134 C135 1.370 . S
C135 C134 1.370 . S
C135 C136 1.396 . S
C135 H162 0.929 1_545 S
C136 C131 1.373 . S
C136 C135 1.396 . S
C136 H163 0.929 1_545 S
C137 O150 1.240 . S
C137 O151 1.289 . S
C138 O152 1.258 1_565 S
C138 O153 1.256 . S
C139 La129 2.928 . S
C139 C140 1.503 . S
C139 O154 1.261 . S
C139 O155 1.243 1_565 S
C140 C139 1.503 . S
C140 C141 1.394 . S
C140 C145 1.373 . S
C141 C140 1.394 . S
C141 C142 1.380 . S
C141 H164 0.930 . S
C142 C141 1.380 . S
C142 C143 1.376 . S
C142 H165 0.930 . S
C143 C142 1.376 . S
C143 C144 1.370 . S
C144 C143 1.370 . S
C144 C145 1.396 . S
C144 H166 0.929 1_565 S
C145 C140 1.373 . S
C145 C144 1.396 . S
C145 H167 0.929 1_565 S
C146 O156 1.240 . S
C146 O157 1.289 . S
C147 O158 1.258 1_545 S
C147 O159 1.256 . S
O148 La128 2.521 . S
O148 C130 1.261 . S
O149 La128 2.641 . S
O149 C130 1.273 . S
O150 La128 2.554 . S
O150 C137 1.240 . S
O151 La128 2.757 . S
O151 La129 2.482 1_545 S
O151 C137 1.289 . S
O152 La128 2.470 . S
O152 C138 1.258 1_545 S
O153 La129 2.503 . S
O153 C138 1.256 . S
O154 La129 2.521 . S
O154 C139 1.261 . S
O155 La129 2.628 1_545 S
O155 C139 1.243 1_545 S
O156 La129 2.554 . S
O156 C146 1.240 . S
O157 La128 2.482 1_565 S
O157 La129 2.757 . S
O157 C146 1.289 . S
O158 La129 2.470 . S
O158 C147 1.258 1_565 S
O159 La128 2.503 . S
O159 C147 1.256 . S
H160 C132 0.930 . S
H161 C133 0.930 . S
H162 C135 0.929 1_565 S
H163 C136 0.929 1_565 S
H164 C141 0.930 . S
H165 C142 0.930 . S
H166 C144 0.929 1_545 S
H167 C145 0.929 1_545 S
La168 C170 2.928 . S
La168 O188 2.521 . S
La168 O189 2.628 . S
La168 O190 2.554 . S
La168 O191 2.757 . S
La168 O192 2.470 . S
La168 O197 2.482 . S
La168 O199 2.503 . S
La169 C179 2.928 . S
La169 O191 2.482 . S
La169 O193 2.503 . S
La169 O194 2.521 . S
La169 O195 2.628 . S
La169 O196 2.554 . S
La169 O197 2.757 . S
La169 O198 2.470 . S
C170 La168 2.928 . S
C170 C171 1.503 . S
C170 O188 1.261 . S
C170 O189 1.243 . S
C171 C170 1.503 . S
C171 C172 1.394 . S
C171 C176 1.373 . S
C172 C171 1.394 . S
C172 C173 1.380 . S
C172 H200 0.930 . S
C173 C172 1.380 . S
C173 C174 1.376 . S
C173 H201 0.930 . S
C174 C173 1.376 . S
C174 C175 1.370 . S
C175 C174 1.370 . S
C175 C176 1.396 . S
C175 H202 0.929 . S
C176 C171 1.373 . S
C176 C175 1.396 . S
C176 H203 0.929 . S
C177 O190 1.240 . S
C177 O191 1.289 . S
C178 O192 1.258 . S
C178 O193 1.256 . S
C179 La169 2.928 . S
C179 C180 1.503 . S
C179 O194 1.261 . S
C179 O195 1.243 . S
C180 C179 1.503 . S
C180 C181 1.394 . S
C180 C185 1.373 . S
C181 C180 1.394 . S
C181 C182 1.380 . S
C181 H204 0.930 . S
C182 C181 1.380 . S
C182 C183 1.376 . S
C182 H205 0.930 . S
C183 C182 1.376 . S
C183 C184 1.370 . S
C184 C183 1.370 . S
C184 C185 1.396 . S
C184 H206 0.929 . S
C185 C180 1.373 . S
C185 C184 1.396 . S
C185 H207 0.929 . S
C186 O196 1.240 . S
C186 O197 1.289 . S
C187 O198 1.258 . S
C187 O199 1.256 . S
O188 La168 2.521 . S
O188 C170 1.261 . S
O189 La168 2.628 . S
O189 C170 1.243 . S
O190 La168 2.554 . S
O190 C177 1.240 . S
O191 La168 2.757 . S
O191 La169 2.482 . S
O191 C177 1.289 . S
O192 La168 2.470 . S
O192 C178 1.258 . S
O193 La169 2.503 . S
O193 C178 1.256 . S
O194 La169 2.521 . S
O194 C179 1.261 . S
O195 La169 2.628 . S
O195 C179 1.243 . S
O196 La169 2.554 . S
O196 C186 1.240 . S
O197 La168 2.482 . S
O197 La169 2.757 . S
O197 C186 1.289 . S
O198 La169 2.470 . S
O198 C187 1.258 . S
O199 La168 2.503 . S
O199 C187 1.256 . S
H200 C172 0.930 . S
H201 C173 0.930 . S
H202 C175 0.929 . S
H203 C176 0.929 . S
H204 C181 0.930 . S
H205 C182 0.930 . S
H206 C184 0.929 . S
H207 C185 0.929 . S
La208 C210 2.928 . S
La208 O228 2.521 . S
La208 O229 2.628 . S
La208 O230 2.554 . S
La208 O231 2.757 1_655 S
La208 O232 2.470 . S
La208 O237 2.482 . S
La208 O239 2.503 1_655 S
La209 C219 2.928 . S
La209 O231 2.482 . S
La209 O233 2.503 1_455 S
La209 O234 2.521 . S
La209 O235 2.628 . S
La209 O236 2.554 . S
La209 O237 2.757 1_455 S
La209 O238 2.470 . S
C210 La208 2.928 . S
C210 C211 1.503 . S
C210 O228 1.261 . S
C210 O229 1.243 . S
C211 C210 1.503 . S
C211 C212 1.394 . S
C211 C216 1.373 . S
C212 C211 1.394 . S
C212 C213 1.380 . S
C212 H240 0.930 . S
C213 C212 1.380 . S
C213 C214 1.376 . S
C213 H241 0.930 . S
C214 C213 1.376 . S
C214 C215 1.370 . S
C215 C214 1.370 . S
C215 C216 1.396 . S
C215 H242 0.929 . S
C216 C211 1.373 . S
C216 C215 1.396 . S
C216 H243 0.929 . S
C217 O230 1.217 1_455 S
C217 O231 1.305 . S
C218 O232 1.258 . S
C218 O233 1.256 . S
C219 La209 2.928 . S
C219 C220 1.503 . S
C219 O234 1.261 . S
C219 O235 1.243 . S
C220 C219 1.503 . S
C220 C221 1.394 . S
C220 C225 1.373 . S
C221 C220 1.394 . S
C221 C222 1.380 . S
C221 H244 0.930 . S
C222 C221 1.380 . S
C222 C223 1.376 . S
C222 H245 0.930 . S
C223 C222 1.376 . S
C223 C224 1.370 . S
C224 C223 1.370 . S
C224 C225 1.396 . S
C224 H246 0.929 . S
C225 C220 1.373 . S
C225 C224 1.396 . S
C225 H247 0.929 . S
C226 O236 1.240 . S
C226 O237 1.289 1_455 S
C227 O238 1.258 . S
C227 O239 1.256 . S
O228 La208 2.521 . S
O228 C210 1.261 . S
O229 La208 2.628 . S
O229 C210 1.243 . S
O230 La208 2.554 . S
O230 C217 1.217 1_655 S
O231 La208 2.757 1_455 S
O231 La209 2.482 . S
O231 C217 1.305 . S
O232 La208 2.470 . S
O232 C218 1.258 . S
O233 La209 2.503 1_655 S
O233 C218 1.256 . S
O234 La209 2.521 . S
O234 C219 1.261 . S
O235 La209 2.628 . S
O235 C219 1.243 . S
O236 La209 2.554 . S
O236 C226 1.240 . S
O237 La208 2.482 . S
O237 La209 2.757 1_655 S
O237 C226 1.289 1_655 S
O238 La209 2.470 . S
O238 C227 1.258 . S
O239 La208 2.503 1_455 S
O239 C227 1.256 . S
H240 C212 0.930 . S
H241 C213 0.930 . S
H242 C215 0.929 . S
H243 C216 0.929 . S
H244 C221 0.930 . S
H245 C222 0.930 . S
H246 C224 0.929 . S
H247 C225 0.929 . S
C248 C249 1.349 1_565 S
C248 C250 1.327 . S
C248 H273 0.950 . S
C249 C248 1.349 1_545 S
C249 C265 1.349 . S
C250 C248 1.327 . S
C250 C269 1.429 1_565 S
C250 H274 0.950 . S
C251 C268 1.574 . S
C251 C270 1.368 . S
C251 H275 0.949 . S
H252 C256 0.949 . S
C253 C254 1.349 . S
C253 C255 1.327 . S
C253 H276 0.950 . S
C254 C253 1.349 . S
C254 C266 1.349 1_545 S
C255 C253 1.327 . S
C255 C271 1.429 . S
C255 H277 0.950 . S
C256 H252 0.949 . S
C256 C264 1.574 . S
C256 C272 1.368 1_565 S
H257 C265 0.950 . S
H258 C263 0.950 . S
H259 C264 0.949 . S
H260 C266 0.950 . S
H261 C267 0.950 . S
H262 C268 0.949 . S
C263 H258 0.950 . S
C263 C265 1.327 . S
C263 C269 1.429 . S
C264 C256 1.574 . S
C264 H259 0.949 . S
C264 C270 1.368 1_565 S
C265 C249 1.349 . S
C265 H257 0.950 . S
C265 C263 1.327 . S
C266 C254 1.349 1_565 S
C266 H260 0.950 . S
C266 C267 1.327 . S
C267 H261 0.950 . S
C267 C266 1.327 . S
C267 C271 1.429 1_565 S
C268 C251 1.574 . S
C268 H262 0.949 . S
C268 C272 1.368 . S
C269 C250 1.429 1_545 S
C269 C263 1.429 . S
C269 C270 1.523 . S
C270 C251 1.368 . S
C270 C264 1.368 1_545 S
C270 C269 1.523 . S
C271 C255 1.429 . S
C271 C267 1.429 1_545 S
C271 C272 1.523 . S
C272 C256 1.368 1_545 S
C272 C268 1.368 . S
C272 C271 1.523 . S
H273 C248 0.950 . S
H274 C250 0.950 . S
H275 C251 0.949 . S
H276 C253 0.950 . S
H277 C255 0.950 . S
C278 C279 1.349 . S
C278 C280 1.327 . S
C278 H303 0.950 . S
C279 C278 1.349 . S
C279 C295 1.349 . S
C280 C278 1.327 . S
C280 C299 1.429 . S
C280 H304 0.950 . S
C281 C298 1.574 . S
C281 C300 1.368 . S
C281 H305 0.949 . S
H282 C286 0.949 . S
C283 C284 1.349 . S
C283 C285 1.327 . S
C283 H306 0.950 . S
C284 C283 1.349 . S
C284 C296 1.349 . S
C285 C283 1.327 . S
C285 C301 1.429 . S
C285 H307 0.950 . S
C286 H282 0.949 . S
C286 C294 1.574 . S
C286 C302 1.368 . S
H287 C295 0.950 . S
H288 C293 0.950 . S
H289 C294 0.949 . S
H290 C296 0.950 . S
H291 C297 0.950 . S
H292 C298 0.949 . S
C293 H288 0.950 . S
C293 C295 1.327 . S
C293 C299 1.429 . S
C294 C286 1.574 . S
C294 H289 0.949 . S
C294 C300 1.368 . S
C295 C279 1.349 . S
C295 H287 0.950 . S
C295 C293 1.327 . S
C296 C284 1.349 . S
C296 H290 0.950 . S
C296 C297 1.327 . S
C297 H291 0.950 . S
C297 C296 1.327 . S
C297 C301 1.429 . S
C298 C281 1.574 . S
C298 H292 0.949 . S
C298 C302 1.368 . S
C299 C280 1.429 . S
C299 C293 1.429 . S
C299 C300 1.523 . S
C300 C281 1.368 . S
C300 C294 1.368 . S
C300 C299 1.523 . S
C301 C285 1.429 . S
C301 C297 1.429 . S
C301 C302 1.523 . S
C302 C286 1.368 . S
C302 C298 1.368 . S
C302 C301 1.523 . S
H303 C278 0.950 . S
H304 C280 0.950 . S
H305 C281 0.949 . S
H306 C283 0.950 . S
H307 C285 0.950 . S
C308 C309 1.349 . S
C308 C310 1.327 . S
C308 H333 0.950 . S
C309 C308 1.349 . S
C309 C325 1.349 . S
C310 C308 1.327 . S
C310 C329 1.429 . S
C310 H334 0.950 . S
C311 C328 1.574 . S
C311 C330 1.368 . S
C311 H335 0.949 . S
H312 C316 0.949 . S
C313 C314 1.349 . S
C313 C315 1.327 . S
C313 H336 0.950 . S
C314 C313 1.349 . S
C314 C326 1.349 . S
C315 C313 1.327 . S
C315 C331 1.429 . S
C315 H337 0.950 . S
C316 H312 0.949 . S
C316 C324 1.574 . S
C316 C332 1.368 . S
H317 C325 0.950 . S
H318 C323 0.950 . S
H319 C324 0.949 . S
H320 C326 0.950 . S
H321 C327 0.950 . S
H322 C328 0.949 . S
C323 H318 0.950 . S
C323 C325 1.327 . S
C323 C329 1.429 . S
C324 C316 1.574 . S
C324 H319 0.949 . S
C324 C330 1.368 . S
C325 C309 1.349 . S
C325 H317 0.950 . S
C325 C323 1.327 . S
C326 C314 1.349 . S
C326 H320 0.950 . S
C326 C327 1.327 . S
C327 H321 0.950 . S
C327 C326 1.327 . S
C327 C331 1.429 . S
C328 C311 1.574 . S
C328 H322 0.949 . S
C328 C332 1.368 . S
C329 C310 1.429 . S
C329 C323 1.429 . S
C329 C330 1.523 . S
C330 C311 1.368 . S
C330 C324 1.368 . S
C330 C329 1.523 . S
C331 C315 1.429 . S
C331 C327 1.429 . S
C331 C332 1.523 . S
C332 C316 1.368 . S
C332 C328 1.368 . S
C332 C331 1.523 . S
H333 C308 0.950 . S
H334 C310 0.950 . S
H335 C311 0.949 . S
H336 C313 0.950 . S
H337 C315 0.950 . S
C338 C339 1.349 . S
C338 C340 1.327 . S
C338 H363 0.950 . S
C339 C338 1.349 . S
C339 C355 1.350 . S
C340 C338 1.327 . S
C340 C359 1.429 . S
C340 H364 0.950 . S
C341 C358 1.574 . S
C341 C360 1.360 1_655 S
C341 H365 0.957 . S
H342 C346 0.949 . S
C343 C344 1.337 1_655 S
C343 C345 1.327 . S
C343 H366 0.965 . S
C344 C343 1.337 1_455 S
C344 C356 1.349 . S
C345 C343 1.327 . S
C345 C361 1.418 1_655 S
C345 H367 0.963 . S
C346 H342 0.949 . S
C346 C354 1.574 . S
C346 C362 1.368 . S
H347 C355 0.948 1_655 S
H348 C353 0.949 . S
H349 C354 0.949 . S
H350 C356 0.950 . S
H351 C357 0.950 . S
H352 C358 0.961 . S
C353 H348 0.949 . S
C353 C355 1.327 1_655 S
C353 C359 1.429 1_655 S
C354 C346 1.574 . S
C354 H349 0.949 . S
C354 C360 1.368 . S
C355 C339 1.350 . S
C355 H347 0.948 1_455 S
C355 C353 1.327 1_455 S
C356 C344 1.349 . S
C356 H350 0.950 . S
C356 C357 1.327 . S
C357 H351 0.950 . S
C357 C356 1.327 . S
C357 C361 1.429 . S
C358 C341 1.574 . S
C358 H352 0.961 . S
C358 C362 1.358 1_655 S
C359 C340 1.429 . S
C359 C353 1.429 1_455 S
C359 C360 1.523 . S
C360 C341 1.360 1_455 S
C360 C354 1.368 . S
C360 C359 1.523 . S
C361 C345 1.418 1_455 S
C361 C357 1.429 . S
C361 C362 1.523 . S
C362 C346 1.368 . S
C362 C358 1.358 1_455 S
C362 C361 1.523 . S
H363 C338 0.950 . S
H364 C340 0.950 . S
H365 C341 0.957 . S
H366 C343 0.965 . S
H367 C345 0.963 . S
C368 C369 1.349 . S
C368 C370 1.327 . S
C368 H393 0.950 . S
C369 C368 1.349 . S
C369 C385 1.349 1_565 S
C370 C368 1.327 . S
C370 C389 1.429 . S
C370 H394 0.950 . S
C371 C388 1.574 1_554 S
C371 C390 1.368 1_545 S
C371 H395 0.949 . S
H372 C376 0.949 . S
C373 C374 1.324 1_545 S
C373 C375 1.327 . S
C373 H396 0.950 . S
C374 C373 1.324 1_565 S
C374 C386 1.374 . S
C375 C373 1.327 . S
C375 C391 1.390 1_545 S
C375 H397 0.950 . S
C376 H372 0.949 . S
C376 C384 1.586 . S
C376 C392 1.368 . S
H377 C385 0.950 . S
H378 C383 0.950 . S
H379 C384 0.949 1_554 S
H380 C386 0.950 . S
H381 C387 0.950 . S
H382 C388 0.949 . S
C383 H378 0.950 . S
C383 C385 1.327 . S
C383 C389 1.429 1_545 S
C384 C376 1.586 . S
C384 H379 0.949 1_556 S
C384 C390 1.357 1_556 S
C385 C369 1.349 1_545 S
C385 H377 0.950 . S
C385 C383 1.327 . S
C386 C374 1.374 . S
C386 H380 0.950 . S
C386 C387 1.327 . S
C387 H381 0.950 . S
C387 C386 1.327 . S
C387 C391 1.468 . S
C388 C371 1.574 1_556 S
C388 H382 0.949 . S
C388 C392 1.368 1_545 S
C389 C370 1.429 . S
C389 C383 1.429 1_565 S
C389 C390 1.523 . S
C390 C371 1.368 1_565 S
C390 C384 1.357 1_554 S
C390 C389 1.523 . S
C391 C375 1.390 1_565 S
C391 C387 1.468 . S
C391 C392 1.524 . S
C392 C376 1.368 . S
C392 C388 1.368 1_565 S
C392 C391 1.524 . S
H393 C368 0.950 . S
H394 C370 0.950 . S
H395 C371 0.949 . S
H396 C373 0.950 . S
H397 C375 0.950 . S
C398 C399 1.349 . S
C398 C400 1.327 . S
C398 H423 0.950 . S
C399 C398 1.349 . S
C399 C415 1.349 . S
C400 C398 1.327 . S
C400 C419 1.429 . S
C400 H424 0.950 . S
C401 C418 1.574 1_554 S
C401 C420 1.368 . S
C401 H425 0.949 . S
H402 C406 0.949 . S
C403 C404 1.349 . S
C403 C405 1.327 . S
C403 H426 0.950 . S
C404 C403 1.349 . S
C404 C416 1.349 . S
C405 C403 1.327 . S
C405 C421 1.429 . S
C405 H427 0.950 . S
C406 H402 0.949 . S
C406 C414 1.574 1_556 S
C406 C422 1.368 . S
H407 C415 0.950 . S
H408 C413 0.950 . S
H409 C414 0.949 . S
H410 C416 0.950 . S
H411 C417 0.950 . S
H412 C418 0.949 . S
C413 H408 0.950 . S
C413 C415 1.327 . S
C413 C419 1.429 . S
C414 C406 1.574 1_554 S
C414 H409 0.949 . S
C414 C420 1.368 . S
C415 C399 1.349 . S
C415 H407 0.950 . S
C415 C413 1.327 . S
C416 C404 1.349 . S
C416 H410 0.950 . S
C416 C417 1.327 . S
C417 H411 0.950 . S
C417 C416 1.327 . S
C417 C421 1.429 . S
C418 C401 1.574 1_556 S
C418 H412 0.949 . S
C418 C422 1.368 . S
C419 C400 1.429 . S
C419 C413 1.429 . S
C419 C420 1.523 . S
C420 C401 1.368 . S
C420 C414 1.368 . S
C420 C419 1.523 . S
C421 C405 1.429 . S
C421 C417 1.429 . S
C421 C422 1.523 . S
C422 C406 1.368 . S
C422 C418 1.368 . S
C422 C421 1.523 . S
H423 C398 0.950 . S
H424 C400 0.950 . S
H425 C401 0.949 . S
H426 C403 0.950 . S
H427 C405 0.950 . S
C428 C429 1.349 . S
C428 C430 1.327 . S
C428 H453 0.950 . S
C429 C428 1.349 . S
C429 C445 1.349 . S
C430 C428 1.327 . S
C430 C449 1.429 . S
C430 H454 0.950 . S
C431 C448 1.574 1_554 S
C431 C450 1.368 . S
C431 H455 0.949 . S
H432 C436 0.949 . S
C433 C434 1.349 . S
C433 C435 1.327 . S
C433 H456 0.950 . S
C434 C433 1.349 . S
C434 C446 1.349 . S
C435 C433 1.327 . S
C435 C451 1.429 . S
C435 H457 0.950 . S
C436 H432 0.949 . S
C436 C444 1.585 . S
C436 C452 1.368 . S
H437 C445 0.950 . S
H438 C443 0.950 . S
H439 C444 0.948 1_554 S
H440 C446 0.950 . S
H441 C447 0.950 . S
H442 C448 0.949 . S
C443 H438 0.950 . S
C443 C445 1.327 . S
C443 C449 1.429 . S
C444 C436 1.585 . S
C444 H439 0.948 1_556 S
C444 C450 1.358 1_556 S
C445 C429 1.349 . S
C445 H437 0.950 . S
C445 C443 1.327 . S
C446 C434 1.349 . S
C446 H440 0.950 . S
C446 C447 1.327 . S
C447 H441 0.950 . S
C447 C446 1.327 . S
C447 C451 1.429 . S
C448 C431 1.574 1_556 S
C448 H442 0.949 . S
C448 C452 1.368 . S
C449 C430 1.429 . S
C449 C443 1.429 . S
C449 C450 1.523 . S
C450 C431 1.368 . S
C450 C444 1.358 1_554 S
C450 C449 1.523 . S
C451 C435 1.429 . S
C451 C447 1.429 . S
C451 C452 1.523 . S
C452 C436 1.368 . S
C452 C448 1.368 . S
C452 C451 1.523 . S
H453 C428 0.950 . S
H454 C430 0.950 . S
H455 C431 0.949 . S
H456 C433 0.950 . S
H457 C435 0.950 . S
C458 C459 1.349 . S
C458 C460 1.327 . S
C458 H483 0.950 . S
C459 C458 1.349 . S
C459 C475 1.349 1_655 S
C460 C458 1.327 . S
C460 C479 1.429 . S
C460 H484 0.950 . S
C461 C478 1.574 . S
C461 C480 1.357 1_456 S
C461 H485 0.949 . S
H462 C466 0.949 . S
C463 C464 1.349 1_455 S
C463 C465 1.327 . S
C463 H486 0.950 . S
C464 C463 1.349 1_655 S
C464 C476 1.348 . S
C465 C463 1.327 . S
C465 C481 1.424 1_455 S
C465 H487 0.950 . S
C466 H462 0.949 . S
C466 C474 1.574 . S
C466 C482 1.376 1_554 S
H467 C475 0.950 . S
H468 C473 0.950 . S
H469 C474 0.949 . S
H470 C476 0.950 . S
H471 C477 0.950 . S
H472 C478 0.949 . S
C473 H468 0.950 . S
C473 C475 1.327 . S
C473 C479 1.429 1_455 S
C474 C466 1.574 . S
C474 H469 0.949 . S
C474 C480 1.382 . S
C475 C459 1.349 1_455 S
C475 H467 0.950 . S
C475 C473 1.327 . S
C476 C464 1.348 . S
C476 H470 0.950 . S
C476 C477 1.327 . S
C477 H471 0.950 . S
C477 C476 1.327 . S
C477 C481 1.433 . S
C478 C461 1.574 . S
C478 H472 0.949 . S
C478 C482 1.361 1_455 S
C479 C460 1.429 . S
C479 C473 1.429 1_655 S
C479 C480 1.524 . S
C480 C461 1.357 1_654 S
C480 C474 1.382 . S
C480 C479 1.524 . S
C481 C465 1.424 1_655 S
C481 C477 1.433 . S
C481 C482 1.523 . S
C482 C466 1.376 1_556 S
C482 C478 1.361 1_655 S
C482 C481 1.523 . S
H483 C458 0.950 . S
H484 C460 0.950 . S
H485 C461 0.949 . S
H486 C463 0.950 . S
H487 C465 0.950 . S
C488 C489 1.349 . S
C488 C490 1.327 . S
C488 H513 0.950 . S
C489 C488 1.349 . S
C489 C505 1.349 . S
C490 C488 1.327 . S
C490 C509 1.429 1_455 S
C490 H514 0.953 . S
C491 C508 1.574 . S
C491 C510 1.368 . S
C491 H515 0.949 . S
H492 C496 0.949 . S
C493 C494 1.349 . S
C493 C495 1.327 . S
C493 H516 0.950 . S
C494 C493 1.349 . S
C494 C506 1.349 . S
C495 C493 1.327 . S
C495 C511 1.429 . S
C495 H517 0.950 . S
C496 H492 0.949 . S
C496 C504 1.574 . S
C496 C512 1.368 . S
H497 C505 0.950 . S
H498 C503 0.957 . S
H499 C504 0.949 . S
H500 C506 0.950 . S
H501 C507 0.950 . S
H502 C508 0.949 . S
C503 H498 0.957 . S
C503 C505 1.319 1_655 S
C503 C509 1.431 . S
C504 C496 1.574 . S
C504 H499 0.949 . S
C504 C510 1.368 . S
C505 C489 1.349 . S
C505 H497 0.950 . S
C505 C503 1.319 1_455 S
C506 C494 1.349 . S
C506 H500 0.950 . S
C506 C507 1.327 . S
C507 H501 0.950 . S
C507 C506 1.327 . S
C507 C511 1.429 . S
C508 C491 1.574 . S
C508 H502 0.949 . S
C508 C512 1.368 . S
C509 C490 1.429 1_655 S
C509 C503 1.431 . S
C509 C510 1.523 . S
C510 C491 1.368 . S
C510 C504 1.368 . S
C510 C509 1.523 . S
C511 C495 1.429 . S
C511 C507 1.429 . S
C511 C512 1.523 . S
C512 C496 1.368 . S
C512 C508 1.368 . S
C512 C511 1.523 . S
H513 C488 0.950 . S
H514 C490 0.953 . S
H515 C491 0.949 . S
H516 C493 0.950 . S
H517 C495 0.950 . S
C518 C519 1.349 . S
C518 C520 1.327 . S
C518 H543 0.950 . S
C519 C518 1.349 . S
C519 C535 1.349 1_545 S
C520 C518 1.327 . S
C520 C539 1.429 1_545 S
C520 H544 0.950 . S
C521 C538 1.574 . S
C521 C540 1.368 . S
C521 H545 0.949 . S
H522 C526 0.949 . S
C523 C524 1.349 . S
C523 C525 1.327 . S
C523 H546 0.950 . S
C524 C523 1.349 . S
C524 C536 1.349 . S
C525 C523 1.327 . S
C525 C541 1.429 . S
C525 H547 0.950 . S
C526 H522 0.949 . S
C526 C534 1.574 . S
C526 C542 1.368 1_545 S
H527 C535 0.950 . S
H528 C533 0.950 . S
H529 C534 0.949 . S
H530 C536 0.950 1_545 S
H531 C537 0.950 1_545 S
H532 C538 0.949 . S
C533 H528 0.950 . S
C533 C535 1.327 . S
C533 C539 1.429 . S
C534 C526 1.574 . S
C534 H529 0.949 . S
C534 C540 1.368 1_545 S
C535 C519 1.349 1_565 S
C535 H527 0.950 . S
C535 C533 1.327 . S
C536 C524 1.349 . S
C536 H530 0.950 1_565 S
C536 C537 1.327 . S
C537 H531 0.950 1_565 S
C537 C536 1.327 . S
C537 C541 1.429 . S
C538 C521 1.574 . S
C538 H532 0.949 . S
C538 C542 1.368 . S
C539 C520 1.429 1_565 S
C539 C533 1.429 . S
C539 C540 1.523 . S
C540 C521 1.368 . S
C540 C534 1.368 1_565 S
C540 C539 1.523 . S
C541 C525 1.429 . S
C541 C537 1.429 . S
C541 C542 1.523 . S
C542 C526 1.368 1_565 S
C542 C538 1.368 . S
C542 C541 1.523 . S
H543 C518 0.950 . S
H544 C520 0.950 . S
H545 C521 0.949 . S
H546 C523 0.950 . S
H547 C525 0.950 . S
C548 C549 1.349 . S
C548 C550 1.327 . S
C548 H573 0.950 . S
C549 C548 1.349 . S
C549 C565 1.349 . S
C550 C548 1.327 . S
C550 C569 1.429 . S
C550 H574 0.950 . S
C551 C568 1.574 . S
C551 C570 1.368 . S
C551 H575 0.949 . S
H552 C556 0.949 . S
C553 C554 1.349 . S
C553 C555 1.327 . S
C553 H576 0.950 . S
C554 C553 1.349 . S
C554 C566 1.349 . S
C555 C553 1.327 . S
C555 C571 1.429 . S
C555 H577 0.950 . S
C556 H552 0.949 . S
C556 C564 1.574 . S
C556 C572 1.368 . S
H557 C565 0.950 . S
H558 C563 0.950 . S
H559 C564 0.949 . S
H560 C566 0.950 . S
H561 C567 0.950 . S
H562 C568 0.949 . S
C563 H558 0.950 . S
C563 C565 1.327 . S
C563 C569 1.429 . S
C564 C556 1.574 . S
C564 H559 0.949 . S
C564 C570 1.368 . S
C565 C549 1.349 . S
C565 H557 0.950 . S
C565 C563 1.327 . S
C566 C554 1.349 . S
C566 H560 0.950 . S
C566 C567 1.327 . S
C567 H561 0.950 . S
C567 C566 1.327 . S
C567 C571 1.429 . S
C568 C551 1.574 . S
C568 H562 0.949 . S
C568 C572 1.368 . S
C569 C550 1.429 . S
C569 C563 1.429 . S
C569 C570 1.523 . S
C570 C551 1.368 . S
C570 C564 1.368 . S
C570 C569 1.523 . S
C571 C555 1.429 . S
C571 C567 1.429 . S
C571 C572 1.523 . S
C572 C556 1.368 . S
C572 C568 1.368 . S
C572 C571 1.523 . S
H573 C548 0.950 . S
H574 C550 0.950 . S
H575 C551 0.949 . S
H576 C553 0.950 . S
H577 C555 0.950 . S
C578 C579 1.349 . S
C578 C580 1.327 . S
C578 H603 0.950 . S
C579 C578 1.349 . S
C579 C595 1.349 . S
C580 C578 1.327 . S
C580 C599 1.429 . S
C580 H604 0.950 . S
C581 C598 1.574 . S
C581 C600 1.368 . S
C581 H605 0.949 . S
H582 C586 0.949 . S
C583 C584 1.349 . S
C583 C585 1.327 . S
C583 H606 0.950 . S
C584 C583 1.349 . S
C584 C596 1.349 . S
C585 C583 1.327 . S
C585 C601 1.429 . S
C585 H607 0.950 . S
C586 H582 0.949 . S
C586 C594 1.574 . S
C586 C602 1.368 . S
H587 C595 0.950 . S
H588 C593 0.950 . S
H589 C594 0.949 . S
H590 C596 0.950 . S
H591 C597 0.950 . S
H592 C598 0.949 . S
C593 H588 0.950 . S
C593 C595 1.327 . S
C593 C599 1.429 . S
C594 C586 1.574 . S
C594 H589 0.949 . S
C594 C600 1.368 . S
C595 C579 1.349 . S
C595 H587 0.950 . S
C595 C593 1.327 . S
C596 C584 1.349 . S
C596 H590 0.950 . S
C596 C597 1.327 . S
C597 H591 0.950 . S
C597 C596 1.327 . S
C597 C601 1.429 . S
C598 C581 1.574 . S
C598 H592 0.949 . S
C598 C602 1.368 . S
C599 C580 1.429 . S
C599 C593 1.429 . S
C599 C600 1.523 . S
C600 C581 1.368 . S
C600 C594 1.368 . S
C600 C599 1.523 . S
C601 C585 1.429 . S
C601 C597 1.429 . S
C601 C602 1.523 . S
C602 C586 1.368 . S
C602 C598 1.368 . S
C602 C601 1.523 . S
H603 C578 0.950 . S
H604 C580 0.950 . S
H605 C581 0.949 . S
H606 C583 0.950 . S
H607 C585 0.950 . S
C608 C609 1.349 1_455 S
C608 C610 1.327 . S
C608 H633 0.950 . S
C609 C608 1.349 1_655 S
C609 C625 1.349 . S
C610 C608 1.327 . S
C610 C629 1.429 . S
C610 H634 0.950 . S
C611 C628 1.574 1_655 S
C611 C630 1.368 1_655 S
C611 H635 0.949 . S
H612 C616 0.949 . S
C613 C614 1.349 . S
C613 C615 1.327 . S
C613 H636 0.950 . S
C614 C613 1.349 . S
C614 C626 1.349 . S
C615 C613 1.327 . S
C615 C631 1.429 1_556 S
C615 H637 0.948 . S
C616 H612 0.949 . S
C616 C624 1.574 . S
C616 C632 1.368 . S
H617 C625 0.950 . S
H618 C623 0.950 . S
H619 C624 0.949 . S
H620 C626 0.950 1_554 S
H621 C627 0.950 . S
H622 C628 0.949 1_656 S
C623 H618 0.950 . S
C623 C625 1.327 . S
C623 C629 1.429 1_655 S
C624 C616 1.574 . S
C624 H619 0.949 . S
C624 C630 1.368 . S
C625 C609 1.349 . S
C625 H617 0.950 . S
C625 C623 1.327 . S
C626 C614 1.349 . S
C626 H620 0.950 1_556 S
C626 C627 1.327 1_556 S
C627 H621 0.950 . S
C627 C626 1.327 1_554 S
C627 C631 1.429 . S
C628 C611 1.574 1_455 S
C628 H622 0.949 1_454 S
C628 C632 1.368 . S
C629 C610 1.429 . S
C629 C623 1.429 1_455 S
C629 C630 1.523 . S
C630 C611 1.368 1_455 S
C630 C624 1.368 . S
C630 C629 1.523 . S
C631 C615 1.429 1_554 S
C631 C627 1.429 . S
C631 C632 1.523 . S
C632 C616 1.368 . S
C632 C628 1.368 . S
C632 C631 1.523 . S
H633 C608 0.950 . S
H634 C610 0.950 . S
H635 C611 0.949 . S
H636 C613 0.950 . S
H637 C615 0.948 . S
C638 C639 1.349 . S
C638 C640 1.327 . S
C638 H663 0.950 . S
C639 C638 1.349 . S
C639 C655 1.349 1_565 S
C640 C638 1.327 . S
C640 C659 1.429 1_565 S
C640 H664 0.950 . S
C641 C658 1.574 . S
C641 C660 1.368 . S
C641 H665 0.949 . S
H642 C646 0.949 1_565 S
C643 C644 1.349 . S
C643 C645 1.327 . S
C643 H666 0.950 . S
C644 C643 1.349 . S
C644 C656 1.349 . S
C645 C643 1.327 . S
C645 C661 1.429 1_556 S
C645 H667 0.950 . S
C646 H642 0.949 1_545 S
C646 C654 1.571 1_545 S
C646 C662 1.368 . S
H647 C655 0.950 . S
H648 C653 0.950 . S
H649 C654 0.959 . S
H650 C656 0.950 1_554 S
H651 C657 0.950 . S
H652 C658 0.949 1_556 S
C653 H648 0.950 . S
C653 C655 1.327 . S
C653 C659 1.429 . S
C654 C646 1.571 1_565 S
C654 H649 0.959 . S
C654 C660 1.361 1_565 S
C655 C639 1.349 1_545 S
C655 H647 0.950 . S
C655 C653 1.327 . S
C656 C644 1.349 . S
C656 H650 0.950 1_556 S
C656 C657 1.327 1_556 S
C657 H651 0.950 . S
C657 C656 1.327 1_554 S
C657 C661 1.429 . S
C658 C641 1.574 . S
C658 H652 0.949 1_554 S
C658 C662 1.368 . S
C659 C640 1.429 1_545 S
C659 C653 1.429 . S
C659 C660 1.523 . S
C660 C641 1.368 . S
C660 C654 1.361 1_545 S
C660 C659 1.523 . S
C661 C645 1.429 1_554 S
C661 C657 1.429 . S
C661 C662 1.523 . S
C662 C646 1.368 . S
C662 C658 1.368 . S
C662 C661 1.523 . S
H663 C638 0.950 . S
H664 C640 0.950 . S
H665 C641 0.949 . S
H666 C643 0.950 . S
H667 C645 0.950 . S
C668 C669 1.349 . S
C668 C670 1.327 . S
C668 H693 0.950 . S
C669 C668 1.349 . S
C669 C685 1.349 . S
C670 C668 1.327 . S
C670 C689 1.429 . S
C670 H694 0.950 . S
C671 C688 1.574 . S
C671 C690 1.368 . S
C671 H695 0.949 . S
H672 C676 0.949 . S
C673 C674 1.349 . S
C673 C675 1.327 . S
C673 H696 0.950 . S
C674 C673 1.349 . S
C674 C686 1.349 . S
C675 C673 1.327 . S
C675 C691 1.429 1_556 S
C675 H697 0.950 . S
C676 H672 0.949 . S
C676 C684 1.574 . S
C676 C692 1.368 . S
H677 C685 0.950 . S
H678 C683 0.950 . S
H679 C684 0.949 . S
H680 C686 0.950 1_554 S
H681 C687 0.950 . S
H682 C688 0.949 1_556 S
C683 H678 0.950 . S
C683 C685 1.327 . S
C683 C689 1.429 . S
C684 C676 1.574 . S
C684 H679 0.949 . S
C684 C690 1.368 . S
C685 C669 1.349 . S
C685 H677 0.950 . S
C685 C683 1.327 . S
C686 C674 1.349 . S
C686 H680 0.950 1_556 S
C686 C687 1.327 1_556 S
C687 H681 0.950 . S
C687 C686 1.327 1_554 S
C687 C691 1.429 . S
C688 C671 1.574 . S
C688 H682 0.949 1_554 S
C688 C692 1.368 . S
C689 C670 1.429 . S
C689 C683 1.429 . S
C689 C690 1.523 . S
C690 C671 1.368 . S
C690 C684 1.368 . S
C690 C689 1.523 . S
C691 C675 1.429 1_554 S
C691 C687 1.429 . S
C691 C692 1.523 . S
C692 C676 1.368 . S
C692 C688 1.368 . S
C692 C691 1.523 . S
H693 C668 0.950 . S
H694 C670 0.950 . S
H695 C671 0.949 . S
H696 C673 0.950 . S
H697 C675 0.950 . S
C698 C699 1.349 . S
C698 C700 1.327 . S
C698 H723 0.950 . S
C699 C698 1.349 . S
C699 C715 1.349 . S
C700 C698 1.327 . S
C700 C719 1.429 . S
C700 H724 0.950 . S
C701 C718 1.573 . S
C701 C720 1.368 . S
C701 H725 0.949 . S
H702 C706 0.949 . S
C703 C704 1.349 . S
C703 C705 1.327 . S
C703 H726 0.950 . S
C704 C703 1.349 . S
C704 C716 1.349 . S
C705 C703 1.327 . S
C705 C721 1.429 1_556 S
C705 H727 0.950 . S
C706 H702 0.949 . S
C706 C714 1.574 . S
C706 C722 1.368 . S
H707 C715 0.950 . S
H708 C713 0.950 . S
H709 C714 0.949 . S
H710 C716 0.950 1_554 S
H711 C717 0.950 . S
H712 C718 0.950 1_556 S
C713 H708 0.950 . S
C713 C715 1.327 . S
C713 C719 1.429 . S
C714 C706 1.574 . S
C714 H709 0.949 . S
C714 C720 1.368 . S
C715 C699 1.349 . S
C715 H707 0.950 . S
C715 C713 1.327 . S
C716 C704 1.349 . S
C716 H710 0.950 1_556 S
C716 C717 1.327 1_556 S
C717 H711 0.950 . S
C717 C716 1.327 1_554 S
C717 C721 1.429 . S
C718 C701 1.573 . S
C718 H712 0.950 1_554 S
C718 C722 1.367 . S
C719 C700 1.429 . S
C719 C713 1.429 . S
C719 C720 1.523 . S
C720 C701 1.368 . S
C720 C714 1.368 . S
C720 C719 1.523 . S
C721 C705 1.429 1_554 S
C721 C717 1.429 . S
C721 C722 1.523 . S
C722 C706 1.368 . S
C722 C718 1.367 . S
C722 C721 1.523 . S
H723 C698 0.950 . S
H724 C700 0.950 . S
H725 C701 0.949 . S
H726 C703 0.950 . S
H727 C705 0.950 . S
C728 C729 1.349 . S
C728 C730 1.327 . S
C728 H753 0.950 . S
C729 C728 1.349 . S
C729 C745 1.349 1_455 S
C730 C728 1.327 . S
C730 C749 1.429 . S
C730 H754 0.950 . S
C731 C748 1.574 . S
C731 C750 1.368 1_655 S
C731 H755 0.949 . S
H732 C736 0.949 . S
C733 C734 1.349 . S
C733 C735 1.329 . S
C733 H756 0.950 1_455 S
C734 C733 1.349 . S
C734 C746 1.349 . S
C735 C733 1.329 . S
C735 C751 1.443 . S
C735 H757 0.934 1_455 S
C736 H732 0.949 . S
C736 C744 1.574 . S
C736 C752 1.368 . S
H737 C745 0.950 . S
H738 C743 0.950 . S
H739 C744 0.949 . S
H740 C746 0.950 . S
H741 C747 0.950 . S
H742 C748 0.949 . S
C743 H738 0.950 . S
C743 C745 1.327 . S
C743 C749 1.429 1_655 S
C744 C736 1.574 . S
C744 H739 0.949 . S
C744 C750 1.368 . S
C745 C729 1.349 1_655 S
C745 H737 0.950 . S
C745 C743 1.327 . S
C746 C734 1.349 . S
C746 H740 0.950 . S
C746 C747 1.327 . S
C747 H741 0.950 . S
C747 C746 1.327 . S
C747 C751 1.429 . S
C748 C731 1.574 . S
C748 H742 0.949 . S
C748 C752 1.368 1_655 S
C749 C730 1.429 . S
C749 C743 1.429 1_455 S
C749 C750 1.523 . S
C750 C731 1.368 1_455 S
C750 C744 1.368 . S
C750 C749 1.523 . S
C751 C735 1.443 . S
C751 C747 1.429 . S
C751 C752 1.523 . S
C752 C736 1.368 . S
C752 C748 1.368 1_455 S
C752 C751 1.523 . S
H753 C728 0.950 . S
H754 C730 0.950 . S
H755 C731 0.949 . S
H756 C733 0.950 1_655 S
H757 C735 0.934 1_655 S
C758 C759 1.349 1_565 S
C758 C760 1.327 . S
C758 H783 0.950 . S
C759 C758 1.349 1_545 S
C759 C775 1.349 . S
C760 C758 1.327 . S
C760 C779 1.429 1_565 S
C760 H784 0.950 . S
C761 C778 1.574 . S
C761 C780 1.368 . S
C761 H785 0.949 . S
H762 C766 0.949 . S
C763 C764 1.349 . S
C763 C765 1.327 . S
C763 H786 0.950 . S
C764 C763 1.349 . S
C764 C776 1.349 1_545 S
C765 C763 1.327 . S
C765 C781 1.429 . S
C765 H787 0.950 . S
C766 H762 0.949 . S
C766 C774 1.574 . S
C766 C782 1.368 1_565 S
H767 C775 0.950 . S
H768 C773 0.950 . S
H769 C774 0.949 . S
H770 C776 0.950 . S
H771 C777 0.950 . S
H772 C778 0.949 . S
C773 H768 0.950 . S
C773 C775 1.327 . S
C773 C779 1.429 . S
C774 C766 1.574 . S
C774 H769 0.949 . S
C774 C780 1.368 1_565 S
C775 C759 1.349 . S
C775 H767 0.950 . S
C775 C773 1.327 . S
C776 C764 1.349 1_565 S
C776 H770 0.950 . S
C776 C777 1.327 . S
C777 H771 0.950 . S
C777 C776 1.327 . S
C777 C781 1.429 1_565 S
C778 C761 1.574 . S
C778 H772 0.949 . S
C778 C782 1.368 . S
C779 C760 1.429 1_545 S
C779 C773 1.429 . S
C779 C780 1.523 . S
C780 C761 1.368 . S
C780 C774 1.368 1_545 S
C780 C779 1.523 . S
C781 C765 1.429 . S
C781 C777 1.429 1_545 S
C781 C782 1.523 . S
C782 C766 1.368 1_545 S
C782 C778 1.368 . S
C782 C781 1.523 . S
H783 C758 0.950 . S
H784 C760 0.950 . S
H785 C761 0.949 . S
H786 C763 0.950 . S
H787 C765 0.950 . S
C788 C789 1.349 . S
C788 C790 1.327 . S
C788 H813 0.950 . S
C789 C788 1.349 . S
C789 C805 1.349 . S
C790 C788 1.327 . S
C790 C809 1.429 . S
C790 H814 0.950 . S
C791 C808 1.574 . S
C791 C810 1.368 . S
C791 H815 0.949 . S
H792 C796 0.949 . S
C793 C794 1.349 . S
C793 C795 1.327 . S
C793 H816 0.950 . S
C794 C793 1.349 . S
C794 C806 1.349 . S
C795 C793 1.327 . S
C795 C811 1.429 . S
C795 H817 0.950 . S
C796 H792 0.949 . S
C796 C804 1.574 . S
C796 C812 1.368 . S
H797 C805 0.950 . S
H798 C803 0.950 . S
H799 C804 0.949 . S
H800 C806 0.950 . S
H801 C807 0.950 . S
H802 C808 0.949 . S
C803 H798 0.950 . S
C803 C805 1.327 . S
C803 C809 1.429 . S
C804 C796 1.574 . S
C804 H799 0.949 . S
C804 C810 1.368 . S
C805 C789 1.349 . S
C805 H797 0.950 . S
C805 C803 1.327 . S
C806 C794 1.349 . S
C806 H800 0.950 . S
C806 C807 1.327 . S
C807 H801 0.950 . S
C807 C806 1.327 . S
C807 C811 1.429 . S
C808 C791 1.574 . S
C808 H802 0.949 . S
C808 C812 1.368 . S
C809 C790 1.429 . S
C809 C803 1.429 . S
C809 C810 1.523 . S
C810 C791 1.368 . S
C810 C804 1.368 . S
C810 C809 1.523 . S
C811 C795 1.429 . S
C811 C807 1.429 . S
C811 C812 1.523 . S
C812 C796 1.368 . S
C812 C808 1.368 . S
C812 C811 1.523 . S
H813 C788 0.950 . S
H814 C790 0.950 . S
H815 C791 0.949 . S
H816 C793 0.950 . S
H817 C795 0.950 . S
C818 C819 1.349 . S
C818 C820 1.327 . S
C818 H843 0.950 . S
C819 C818 1.349 . S
C819 C835 1.349 . S
C820 C818 1.327 . S
C820 C839 1.429 . S
C820 H844 0.950 . S
C821 C838 1.574 . S
C821 C840 1.368 . S
C821 H845 0.949 . S
H822 C826 0.949 . S
C823 C824 1.349 . S
C823 C825 1.327 . S
C823 H846 0.950 . S
C824 C823 1.349 . S
C824 C836 1.349 . S
C825 C823 1.327 . S
C825 C841 1.429 . S
C825 H847 0.950 . S
C826 H822 0.949 . S
C826 C834 1.574 . S
C826 C842 1.368 . S
H827 C835 0.950 . S
H828 C833 0.950 . S
H829 C834 0.949 . S
H830 C836 0.950 . S
H831 C837 0.950 . S
H832 C838 0.949 . S
C833 H828 0.950 . S
C833 C835 1.327 . S
C833 C839 1.429 . S
C834 C826 1.574 . S
C834 H829 0.949 . S
C834 C840 1.368 . S
C835 C819 1.349 . S
C835 H827 0.950 . S
C835 C833 1.327 . S
C836 C824 1.349 . S
C836 H830 0.950 . S
C836 C837 1.327 . S
C837 H831 0.950 . S
C837 C836 1.327 . S
C837 C841 1.429 . S
C838 C821 1.574 . S
C838 H832 0.949 . S
C838 C842 1.368 . S
C839 C820 1.429 . S
C839 C833 1.429 . S
C839 C840 1.523 . S
C840 C821 1.368 . S
C840 C834 1.368 . S
C840 C839 1.523 . S
C841 C825 1.429 . S
C841 C837 1.429 . S
C841 C842 1.523 . S
C842 C826 1.368 . S
C842 C838 1.368 . S
C842 C841 1.523 . S
H843 C818 0.950 . S
H844 C820 0.950 . S
H845 C821 0.949 . S
H846 C823 0.950 . S
H847 C825 0.950 . S
C848 C849 1.349 1_455 S
C848 C850 1.327 . S
C848 H873 0.950 . S
C849 C848 1.349 1_655 S
C849 C865 1.349 . S
C850 C848 1.327 . S
C850 C869 1.429 1_455 S
C850 H874 0.950 . S
C851 C868 1.574 . S
C851 C870 1.368 . S
C851 H875 0.949 . S
H852 C856 0.949 . S
C853 C854 1.349 . S
C853 C855 1.327 . S
C853 H876 0.950 . S
C854 C853 1.349 . S
C854 C866 1.349 1_655 S
C855 C853 1.327 . S
C855 C871 1.429 . S
C855 H877 0.950 . S
C856 H852 0.949 . S
C856 C864 1.574 . S
C856 C872 1.368 1_455 S
H857 C865 0.950 . S
H858 C863 0.950 . S
H859 C864 0.949 . S
H860 C866 0.950 . S
H861 C867 0.950 . S
H862 C868 0.949 . S
C863 H858 0.950 . S
C863 C865 1.327 . S
C863 C869 1.429 . S
C864 C856 1.574 . S
C864 H859 0.949 . S
C864 C870 1.368 1_455 S
C865 C849 1.349 . S
C865 H857 0.950 . S
C865 C863 1.327 . S
C866 C854 1.349 1_455 S
C866 H860 0.950 . S
C866 C867 1.327 . S
C867 H861 0.950 . S
C867 C866 1.327 . S
C867 C871 1.429 1_455 S
C868 C851 1.574 . S
C868 H862 0.949 . S
C868 C872 1.368 . S
C869 C850 1.429 1_655 S
C869 C863 1.429 . S
C869 C870 1.523 . S
C870 C851 1.368 . S
C870 C864 1.368 1_655 S
C870 C869 1.523 . S
C871 C855 1.429 . S
C871 C867 1.429 1_655 S
C871 C872 1.523 . S
C872 C856 1.368 1_655 S
C872 C868 1.368 . S
C872 C871 1.523 . S
H873 C848 0.950 . S
H874 C850 0.950 . S
H875 C851 0.949 . S
H876 C853 0.950 . S
H877 C855 0.950 . S
C878 C879 1.349 1_545 S
C878 C880 1.327 . S
C878 H903 0.950 . S
C879 C878 1.349 1_565 S
C879 C895 1.349 . S
C880 C878 1.327 . S
C880 C899 1.429 1_545 S
C880 H904 0.950 . S
C881 C898 1.574 . S
C881 C900 1.368 . S
C881 H905 0.949 . S
H882 C886 0.949 . S
C883 C884 1.349 . S
C883 C885 1.327 . S
C883 H906 0.950 . S
C884 C883 1.349 . S
C884 C896 1.349 1_565 S
C885 C883 1.327 . S
C885 C901 1.429 . S
C885 H907 0.950 . S
C886 H882 0.949 . S
C886 C894 1.574 . S
C886 C902 1.368 1_545 S
H887 C895 0.950 . S
H888 C893 0.950 . S
H889 C894 0.949 . S
H890 C896 0.950 . S
H891 C897 0.950 . S
H892 C898 0.949 . S
C893 H888 0.950 . S
C893 C895 1.327 . S
C893 C899 1.429 . S
C894 C886 1.574 . S
C894 H889 0.949 . S
C894 C900 1.368 1_545 S
C895 C879 1.349 . S
C895 H887 0.950 . S
C895 C893 1.327 . S
C896 C884 1.349 1_545 S
C896 H890 0.950 . S
C896 C897 1.327 . S
C897 H891 0.950 . S
C897 C896 1.327 . S
C897 C901 1.429 1_545 S
C898 C881 1.574 . S
C898 H892 0.949 . S
C898 C902 1.368 . S
C899 C880 1.429 1_565 S
C899 C893 1.429 . S
C899 C900 1.523 . S
C900 C881 1.368 . S
C900 C894 1.368 1_565 S
C900 C899 1.523 . S
C901 C885 1.429 . S
C901 C897 1.429 1_565 S
C901 C902 1.523 . S
C902 C886 1.368 1_565 S
C902 C898 1.368 . S
C902 C901 1.523 . S
H903 C878 0.950 . S
H904 C880 0.950 . S
H905 C881 0.949 . S
H906 C883 0.950 . S
H907 C885 0.950 . S
C908 C909 1.349 . S
C908 C910 1.327 . S
C908 H933 0.950 . S
C909 C908 1.349 . S
C909 C925 1.349 . S
C910 C908 1.327 . S
C910 C929 1.429 . S
C910 H934 0.950 . S
C911 C928 1.574 . S
C911 C930 1.368 . S
C911 H935 0.949 . S
H912 C916 0.949 . S
C913 C914 1.349 . S
C913 C915 1.327 . S
C913 H936 0.950 . S
C914 C913 1.349 . S
C914 C926 1.349 . S
C915 C913 1.327 . S
C915 C931 1.429 . S
C915 H937 0.950 . S
C916 H912 0.949 . S
C916 C924 1.574 . S
C916 C932 1.368 . S
H917 C925 0.950 . S
H918 C923 0.950 . S
H919 C924 0.949 . S
H920 C926 0.950 . S
H921 C927 0.950 . S
H922 C928 0.949 . S
C923 H918 0.950 . S
C923 C925 1.327 . S
C923 C929 1.429 . S
C924 C916 1.574 . S
C924 H919 0.949 . S
C924 C930 1.368 . S
C925 C909 1.349 . S
C925 H917 0.950 . S
C925 C923 1.327 . S
C926 C914 1.349 . S
C926 H920 0.950 . S
C926 C927 1.327 . S
C927 H921 0.950 . S
C927 C926 1.327 . S
C927 C931 1.429 . S
C928 C911 1.574 . S
C928 H922 0.949 . S
C928 C932 1.368 . S
C929 C910 1.429 . S
C929 C923 1.429 . S
C929 C930 1.523 . S
C930 C911 1.368 . S
C930 C924 1.368 . S
C930 C929 1.523 . S
C931 C915 1.429 . S
C931 C927 1.429 . S
C931 C932 1.523 . S
C932 C916 1.368 . S
C932 C928 1.368 . S
C932 C931 1.523 . S
H933 C908 0.950 . S
H934 C910 0.950 . S
H935 C911 0.949 . S
H936 C913 0.950 . S
H937 C915 0.950 . S
C938 C939 1.349 . S
C938 C940 1.327 . S
C938 H963 0.950 . S
C939 C938 1.349 . S
C939 C955 1.349 . S
C940 C938 1.327 . S
C940 C959 1.429 . S
C940 H964 0.950 . S
C941 C958 1.574 . S
C941 C960 1.368 . S
C941 H965 0.949 . S
H942 C946 0.949 . S
C943 C944 1.349 . S
C943 C945 1.327 . S
C943 H966 0.950 . S
C944 C943 1.349 . S
C944 C956 1.349 . S
C945 C943 1.327 . S
C945 C961 1.429 . S
C945 H967 0.950 . S
C946 H942 0.949 . S
C946 C954 1.574 . S
C946 C962 1.368 . S
H947 C955 0.950 . S
H948 C953 0.950 . S
H949 C954 0.949 . S
H950 C956 0.950 . S
H951 C957 0.950 . S
H952 C958 0.949 . S
C953 H948 0.950 . S
C953 C955 1.327 . S
C953 C959 1.429 . S
C954 C946 1.574 . S
C954 H949 0.949 . S
C954 C960 1.368 . S
C955 C939 1.349 . S
C955 H947 0.950 . S
C955 C953 1.327 . S
C956 C944 1.349 . S
C956 H950 0.950 . S
C956 C957 1.327 . S
C957 H951 0.950 . S
C957 C956 1.327 . S
C957 C961 1.429 . S
C958 C941 1.574 . S
C958 H952 0.949 . S
C958 C962 1.368 . S
C959 C940 1.429 . S
C959 C953 1.429 . S
C959 C960 1.523 . S
C960 C941 1.368 . S
C960 C954 1.368 . S
C960 C959 1.523 . S
C961 C945 1.429 . S
C961 C957 1.429 . S
C961 C962 1.523 . S
C962 C946 1.368 . S
C962 C958 1.368 . S
C962 C961 1.523 . S
H963 C938 0.950 . S
H964 C940 0.950 . S
H965 C941 0.949 . S
H966 C943 0.950 . S
H967 C945 0.950 . S
C249 C74 1.677 . S
C254 C97 1.732 . S
C284 C137 1.734 . S
C279 C85 1.678 . S
C314 C177 1.733 . S
C309 C52 1.678 . S
C344 C217 1.736 . S
C339 C63 1.676 . S
C374 C106 1.730 1_565 S
C369 C30 1.675 1_565 S
C399 C41 1.675 . S
C404 C146 1.732 . S
C429 C8 1.675 . S
C434 C186 1.732 . S
C459 C19 1.673 1_655 S
C464 C226 1.734 1_655 S
C494 C103 0.416 . S
C489 C62 0.395 . S
C524 C143 0.415 . S
C519 C73 0.395 . S
C554 C183 0.415 . S
C549 C84 0.395 . S
C579 C51 0.396 . S
C584 C223 0.417 . S
C609 C18 0.472 1_655 S
C614 C94 0.416 . S
C644 C134 0.416 . S
C639 C29 0.472 1_565 S
C674 C174 0.416 . S
C669 C40 0.472 . S
C699 C7 0.471 . S
C704 C214 0.415 . S
C729 C60 1.582 . S
C734 C107 2.024 . S
C759 C71 1.583 . S
C764 C147 2.025 . S
C794 C187 2.025 . S
C789 C82 1.583 . S
C824 C227 2.025 . S
C819 C49 1.583 . S
C849 C16 1.618 1_655 S
C854 C98 2.026 . S
C884 C138 2.025 . S
C879 C27 1.618 1_565 S
C914 C178 2.025 . S
C909 C38 1.617 . S
C939 C5 1.617 . S
C944 C218 2.024 . S
