# Generated by pormake.
# Topology ssb, (4,4)-cn, num edge types: 1
# Building blocks:
#     Node 0, Type 0, BuildingBlock: NAWXER_clean_sbu_0, # of connection points: 4
#     Node 1, Type 0, BuildingBlock: NAWXER_clean_sbu_0, # of connection points: 4
#     Node 2, Type 0, BuildingBlock: NAWXER_clean_sbu_0, # of connection points: 4
#     Node 3, Type 0, BuildingBlock: NAWXER_clean_sbu_0, # of connection points: 4
#     Node 4, Type 0, BuildingBlock: NAWXER_clean_sbu_0, # of connection points: 4
#     Node 5, Type 0, BuildingBlock: NAWXER_clean_sbu_0, # of connection points: 4
#     Node 6, Type 0, BuildingBlock: NAWXER_clean_sbu_0, # of connection points: 4
#     Node 7, Type 0, BuildingBlock: NAWXER_clean_sbu_0, # of connection points: 4
#     Node 8, Type 1, BuildingBlock: NAWXER_clean_sbu_0, # of connection points: 4
#     Node 9, Type 1, BuildingBlock: NAWXER_clean_sbu_0, # of connection points: 4
#     Node 10, Type 1, BuildingBlock: NAWXER_clean_sbu_0, # of connection points: 4
#     Node 11, Type 1, BuildingBlock: NAWXER_clean_sbu_0, # of connection points: 4
#     Node 12, Type 1, BuildingBlock: NAWXER_clean_sbu_0, # of connection points: 4
#     Node 13, Type 1, BuildingBlock: NAWXER_clean_sbu_0, # of connection points: 4
#     Node 14, Type 1, BuildingBlock: NAWXER_clean_sbu_0, # of connection points: 4
#     Node 15, Type 1, BuildingBlock: NAWXER_clean_sbu_0, # of connection points: 4
#     Edge 16, Type (0, 1), BuildingBlock: TEMPAE_clean_linker_10, # of connection points: 2
#     Edge 17, Type (0, 1), BuildingBlock: TEMPAE_clean_linker_10, # of connection points: 2
#     Edge 18, Type (0, 1), BuildingBlock: TEMPAE_clean_linker_10, # of connection points: 2
#     Edge 19, Type (0, 1), BuildingBlock: TEMPAE_clean_linker_10, # of connection points: 2
#     Edge 20, Type (0, 1), BuildingBlock: TEMPAE_clean_linker_10, # of connection points: 2
#     Edge 21, Type (0, 1), BuildingBlock: TEMPAE_clean_linker_10, # of connection points: 2
#     Edge 22, Type (0, 1), BuildingBlock: TEMPAE_clean_linker_10, # of connection points: 2
#     Edge 23, Type (0, 1), BuildingBlock: TEMPAE_clean_linker_10, # of connection points: 2
#     Edge 24, Type (0, 1), BuildingBlock: TEMPAE_clean_linker_10, # of connection points: 2
#     Edge 25, Type (0, 1), BuildingBlock: TEMPAE_clean_linker_10, # of connection points: 2
#     Edge 26, Type (0, 1), BuildingBlock: TEMPAE_clean_linker_10, # of connection points: 2
#     Edge 27, Type (0, 1), BuildingBlock: TEMPAE_clean_linker_10, # of connection points: 2
#     Edge 28, Type (0, 1), BuildingBlock: TEMPAE_clean_linker_10, # of connection points: 2
#     Edge 29, Type (0, 1), BuildingBlock: TEMPAE_clean_linker_10, # of connection points: 2
#     Edge 30, Type (0, 1), BuildingBlock: TEMPAE_clean_linker_10, # of connection points: 2
#     Edge 31, Type (0, 1), BuildingBlock: TEMPAE_clean_linker_10, # of connection points: 2
#     Edge 32, Type (0, 1), BuildingBlock: TEMPAE_clean_linker_10, # of connection points: 2
#     Edge 33, Type (0, 1), BuildingBlock: TEMPAE_clean_linker_10, # of connection points: 2
#     Edge 34, Type (0, 1), BuildingBlock: TEMPAE_clean_linker_10, # of connection points: 2
#     Edge 35, Type (0, 1), BuildingBlock: TEMPAE_clean_linker_10, # of connection points: 2
#     Edge 36, Type (0, 1), BuildingBlock: TEMPAE_clean_linker_10, # of connection points: 2
#     Edge 37, Type (0, 1), BuildingBlock: TEMPAE_clean_linker_10, # of connection points: 2
#     Edge 38, Type (0, 1), BuildingBlock: TEMPAE_clean_linker_10, # of connection points: 2
#     Edge 39, Type (0, 1), BuildingBlock: TEMPAE_clean_linker_10, # of connection points: 2
#     Edge 40, Type (0, 1), BuildingBlock: TEMPAE_clean_linker_10, # of connection points: 2
#     Edge 41, Type (0, 1), BuildingBlock: TEMPAE_clean_linker_10, # of connection points: 2
#     Edge 42, Type (0, 1), BuildingBlock: TEMPAE_clean_linker_10, # of connection points: 2
#     Edge 43, Type (0, 1), BuildingBlock: TEMPAE_clean_linker_10, # of connection points: 2
#     Edge 44, Type (0, 1), BuildingBlock: TEMPAE_clean_linker_10, # of connection points: 2
#     Edge 45, Type (0, 1), BuildingBlock: TEMPAE_clean_linker_10, # of connection points: 2
#     Edge 46, Type (0, 1), BuildingBlock: TEMPAE_clean_linker_10, # of connection points: 2
#     Edge 47, Type (0, 1), BuildingBlock: TEMPAE_clean_linker_10, # of connection points: 2
# Relax obj value: 0.002
# Max RMSD: 0.009
# Mean RMSD: 0.008
data_MOF--net-ssb--node1-NAWXER_clean_sbu_0--node2-NAWXER_clean_sbu_0--edge1-TEMPAE_clean_linker_10
_symmetry_space_group_name_H-M    P1
_symmetry_Int_Tables_number       1
_symmetry_cell_setting            triclinic
loop_
_symmetry_equiv_pos_as_xyz
'x, y, z'
_cell_length_a     44.758403
_cell_length_b     44.856818
_cell_length_c     38.381207
_cell_angle_alpha  89.846594
_cell_angle_beta   89.666689
_cell_angle_gamma 90.069984
loop_
_atom_site_label
_atom_site_type_symbol
_atom_site_fract_x
_atom_site_fract_y
_atom_site_fract_z
_atom_type_partial_charge
C0 C 0.16786 0.23533 0.25692 0.0
C1 C 0.25656 0.21636 0.18299 0.0
O2 O 0.16817 0.21946 0.22942 0.0
Zn3 Zn 0.2097 0.22832 0.21453 0.0
O4 O 0.19066 0.25146 0.26381 0.0
Zn5 Zn 0.23466 0.25966 0.24514 0.0
O6 O 0.23505 0.30092 0.23024 0.0
O7 O 0.20944 0.2728 0.19411 0.0
O8 O 0.26018 0.23633 0.20644 0.0
O9 O 0.23049 0.20587 0.1777 0.0
O10 O 0.2325 0.21106 0.25904 0.0
O11 O 0.25588 0.24741 0.28678 0.0
C12 C 0.22 0.29839 0.20245 0.0
C13 C 0.24875 0.21997 0.28432 0.0
C14 C 0.70943 0.23948 0.23014 0.0
C15 C 0.79339 0.26123 0.30739 0.0
O16 O 0.70405 0.25835 0.25432 0.0
Zn17 Zn 0.72534 0.28056 0.29604 0.0
O18 O 0.73555 0.22852 0.22661 0.0
Zn19 Zn 0.75285 0.24915 0.26648 0.0
O20 O 0.72719 0.23004 0.30769 0.0
O21 O 0.70185 0.26477 0.33587 0.0
O22 O 0.79401 0.24334 0.28169 0.0
O23 O 0.76938 0.27555 0.31426 0.0
O24 O 0.72478 0.32235 0.27919 0.0
O25 O 0.75333 0.29322 0.24713 0.0
C26 C 0.70879 0.2374 0.33184 0.0
C27 C 0.74221 0.31896 0.25308 0.0
C28 C 0.75811 0.7072 0.22617 0.0
C29 C 0.75484 0.7973 0.29679 0.0
O30 O 0.74631 0.71039 0.2561 0.0
Zn31 Zn 0.75869 0.75119 0.26466 0.0
O32 O 0.77445 0.72821 0.21365 0.0
Zn33 Zn 0.78791 0.77235 0.22787 0.0
O34 O 0.83102 0.77135 0.23766 0.0
O35 O 0.80454 0.75037 0.27949 0.0
O36 O 0.77183 0.79958 0.26991 0.0
O37 O 0.74227 0.77251 0.30395 0.0
O38 O 0.73739 0.77508 0.22313 0.0
O39 O 0.77167 0.7949 0.18846 0.0
C40 C 0.82986 0.75929 0.26769 0.0
C41 C 0.74424 0.79075 0.19627 0.0
C42 C 0.26403 0.71026 0.22956 0.0
C43 C 0.29338 0.79566 0.30216 0.0
O44 O 0.2568 0.73742 0.22457 0.0
Zn45 Zn 0.27597 0.75348 0.26589 0.0
O46 O 0.27875 0.70309 0.25691 0.0
Zn47 Zn 0.29941 0.72423 0.30101 0.0
O48 O 0.27756 0.70749 0.34059 0.0
O49 O 0.24934 0.73584 0.30716 0.0
O50 O 0.30237 0.77046 0.31388 0.0
O51 O 0.27746 0.79631 0.27482 0.0
O52 O 0.32065 0.74343 0.25222 0.0
O53 O 0.34137 0.714 0.2915 0.0
C54 C 0.2522 0.71882 0.33381 0.0
C55 C 0.34298 0.72816 0.26271 0.0
C56 C 0.28439 0.80937 0.83287 0.0
C57 C 0.1992 0.80191 0.75157 0.0
O58 O 0.25875 0.82115 0.83716 0.0
Zn59 Zn 0.23976 0.80522 0.79501 0.0
O60 O 0.28899 0.79258 0.80641 0.0
Zn61 Zn 0.26553 0.77589 0.76226 0.0
O62 O 0.28901 0.79146 0.7239 0.0
O63 O 0.26519 0.82606 0.7542 0.0
O64 O 0.22219 0.78639 0.74354 0.0
O65 O 0.19895 0.8162 0.78024 0.0
O66 O 0.23537 0.75898 0.80717 0.0
O67 O 0.26328 0.73335 0.77045 0.0
C68 C 0.28242 0.81874 0.72883 0.0
C69 C 0.24524 0.73388 0.79614 0.0
C70 C 0.31724 0.24581 0.67825 0.0
C71 C 0.29327 0.33263 0.7516 0.0
O72 O 0.2986 0.24044 0.70297 0.0
Zn73 Zn 0.27503 0.2638 0.74302 0.0
O74 O 0.32565 0.27253 0.67258 0.0
Zn75 Zn 0.30337 0.29108 0.71096 0.0
O76 O 0.32389 0.27013 0.75522 0.0
O77 O 0.28983 0.24386 0.78394 0.0
O78 O 0.30892 0.33325 0.72377 0.0
O79 O 0.27961 0.30857 0.76001 0.0
O80 O 0.23342 0.26013 0.73115 0.0
O81 O 0.25794 0.2885 0.69372 0.0
C82 C 0.31659 0.25323 0.7809 0.0
C83 C 0.23354 0.27604 0.70375 0.0
C84 C 0.73472 0.20169 0.73204 0.0
C85 C 0.73938 0.29123 0.80324 0.0
O86 O 0.72211 0.22656 0.72582 0.0
Zn87 Zn 0.73866 0.24699 0.76532 0.0
O88 O 0.7516 0.19882 0.75872 0.0
Zn89 Zn 0.76773 0.22546 0.80118 0.0
O90 O 0.75139 0.20267 0.84053 0.0
O91 O 0.717 0.22286 0.80692 0.0
O92 O 0.75538 0.27003 0.81566 0.0
O93 O 0.72704 0.28786 0.77382 0.0
O94 O 0.78461 0.2475 0.74959 0.0
O95 O 0.81086 0.22579 0.79069 0.0
C96 C 0.72393 0.20689 0.83344 0.0
C97 C 0.80983 0.23813 0.76081 0.0
C98 C 0.79924 0.75257 0.71436 0.0
C99 C 0.71358 0.77063 0.7913 0.0
O100 O 0.77568 0.73798 0.70625 0.0
Zn101 Zn 0.73111 0.73174 0.7239 0.0
O102 O 0.79882 0.76954 0.74089 0.0
Zn103 Zn 0.75745 0.7626 0.75463 0.0
O104 O 0.75813 0.71799 0.77264 0.0
O105 O 0.73061 0.6895 0.73895 0.0
O106 O 0.73948 0.782 0.79493 0.0
O107 O 0.7086 0.75236 0.76641 0.0
O108 O 0.70805 0.74774 0.68439 0.0
O109 O 0.73267 0.78234 0.71327 0.0
C110 C 0.74737 0.69231 0.7655 0.0
C111 C 0.71481 0.77512 0.68872 0.0
C112 C 0.97083 0.23025 0.57446 0.0
C113 C 0.03238 0.22434 0.46678 0.0
O114 O 0.97834 0.25559 0.56159 0.0
Zn115 Zn 1.0038 0.27316 0.51878 0.0
O116 O 0.97999 0.20654 0.55968 0.0
Zn117 Zn 1.00313 0.22526 0.5217 0.0
O118 O 0.0394 0.24603 0.54811 0.0
O119 O 0.03558 0.29479 0.54195 0.0
O120 O 0.02419 0.20218 0.48539 0.0
O121 O 0.02632 0.25082 0.47701 0.0
O122 O 0.97386 0.29424 0.49193 0.0
O123 O 0.96849 0.24522 0.49153 0.0
C124 C 0.04941 0.27231 0.55403 0.0
C125 C 0.95986 0.27114 0.48176 0.0
C126 C 0.72787 0.0348 0.55899 0.0
C127 C 0.73211 0.97329 0.45553 0.0
O128 O 0.75117 0.0255 0.54337 0.0
Zn129 Zn 0.7309 1.00449 0.50692 0.0
O130 O 0.70195 0.0277 0.54765 0.0
Zn131 Zn 0.68284 1.00324 0.50568 0.0
O132 O 0.66205 0.97033 0.53022 0.0
O133 O 0.71112 0.9676 0.53332 0.0
O134 O 0.70528 0.97915 0.46519 0.0
O135 O 0.75402 0.98434 0.47203 0.0
O136 O 0.71089 0.04025 0.4792 0.0
O137 O 0.66194 0.0354 0.48033 0.0
C138 C 0.68538 0.95653 0.54026 0.0
C139 C 0.68503 0.05015 0.47105 0.0
C140 C 0.97558 0.74117 0.55009 0.0
C141 C 0.067 0.73173 0.48075 0.0
O142 O 0.98475 0.76603 0.53736 0.0
Zn143 Zn 0.02037 0.78235 0.50493 0.0
O144 O 0.98948 0.71724 0.54277 0.0
Zn145 Zn 0.02018 0.73534 0.51386 0.0
O146 O 0.04311 0.7615 0.55227 0.0
O147 O 0.04093 0.80898 0.53736 0.0
O148 O 0.05198 0.71082 0.49486 0.0
O149 O 0.05738 0.75861 0.48264 0.0
O150 O 0.99883 0.79797 0.46459 0.0
O151 O 0.99602 0.74904 0.46832 0.0
C152 C 0.04935 0.78885 0.55862 0.0
C153 C 0.98943 0.77334 0.45246 0.0
C154 C 0.33603 0.06136 0.53492 0.0
C155 C 0.32492 0.97715 0.45281 0.0
O156 O 0.35783 0.048 0.52018 0.0
Zn157 Zn 0.33351 0.01815 0.49506 0.0
O158 O 0.30948 0.05145 0.53081 0.0
Zn159 Zn 0.28547 0.01831 0.50346 0.0
O160 O 0.26888 0.99349 0.53995 0.0
O161 O 0.31795 0.98958 0.53567 0.0
O162 O 0.30075 0.98635 0.46708 0.0
O163 O 0.34961 0.98953 0.46075 0.0
O164 O 0.30848 0.04734 0.46282 0.0
O165 O 0.26031 0.04381 0.47518 0.0
C166 C 0.29324 0.98188 0.55017 0.0
C167 C 0.28152 0.05575 0.45778 0.0
C168 C 0.48969 0.75796 0.07261 0.0
C169 C 0.5452 0.77386 0.96489 0.0
O170 O 0.49273 0.7857 0.06497 0.0
Zn171 Zn 0.51162 0.81243 0.02364 0.0
O172 O 0.49898 0.73831 0.05137 0.0
Zn173 Zn 0.51471 0.76535 0.01678 0.0
O174 O 0.55067 0.78578 0.04465 0.0
O175 O 0.54283 0.83419 0.04869 0.0
O176 O 0.53627 0.74918 0.9776 0.0
O177 O 0.53701 0.79835 0.97916 0.0
O178 O 0.47733 0.83311 1.00335 0.0
O179 O 0.47558 0.78471 0.9943 0.0
C180 C 0.5592 0.81157 0.05488 0.0
C181 C 0.46388 0.81061 0.9908 0.0
C182 C 0.26439 0.55084 0.04391 0.0
C183 C 0.27707 0.48282 0.94457 0.0
O184 O 0.28897 0.54068 0.03203 0.0
Zn185 Zn 0.2722 0.51488 0.99623 0.0
O186 O 0.23974 0.54173 0.03083 0.0
Zn187 Zn 0.22456 0.5124 0.99068 0.0
O188 O 0.20295 0.48174 0.0167 0.0
O189 O 0.25151 0.48005 0.02567 0.0
O190 O 0.24975 0.48824 0.95247 0.0
O191 O 0.29781 0.49313 0.96364 0.0
O192 O 0.25242 0.5474 0.9627 0.0
O193 O 0.20359 0.54025 0.96042 0.0
C194 C 0.22525 0.46971 0.03152 0.0
C195 C 0.22671 0.55492 0.95111 0.0
C196 C 0.54294 0.17884 0.98386 0.0
C197 C 0.45021 0.18203 0.05522 0.0
O198 O 0.53369 0.20472 0.99274 0.0
Zn199 Zn 0.49935 0.2258 0.0219 0.0
O200 O 0.52813 0.15588 0.99348 0.0
Zn201 Zn 0.49731 0.17759 0.02058 0.0
O202 O 0.47411 0.20044 0.98007 0.0
O203 O 0.47955 0.24912 0.98667 0.0
O204 O 0.46367 0.1583 0.04589 0.0
O205 O 0.462 0.20733 0.0481 0.0
O206 O 0.52246 0.24498 0.05771 0.0
O207 O 0.52456 0.19586 0.06055 0.0
C208 C 0.46873 0.22716 0.96998 0.0
C209 C 0.5329 0.22146 0.07164 0.0
C210 C 0.71795 0.5433 0.0549 0.0
C211 C 0.71414 0.4657 0.96417 0.0
O212 O 0.74323 0.53397 0.04374 0.0
Zn213 Zn 0.76188 0.50371 1.00762 0.0
O214 O 0.69394 0.5334 0.04144 0.0
Zn215 Zn 0.7131 0.50498 0.00915 0.0
O216 O 0.7332 0.47483 0.04485 0.0
O217 O 0.78237 0.47679 0.04022 0.0
O218 O 0.69125 0.4772 0.97877 0.0
O219 O 0.74029 0.47394 0.97338 0.0
O220 O 0.7824 0.5297 0.97375 0.0
O221 O 0.73331 0.53407 0.97198 0.0
C222 C 0.75901 0.4661 0.0548 0.0
C223 C 0.75919 0.54151 0.96047 0.0
C224 C 0.11933 0.21343 0.28021 0.0
C225 C 0.14394 0.23258 0.28405 0.0
C226 C 0.09873 0.20895 0.30782 0.0
C227 C 0.10311 0.22357 0.34016 0.0
C228 C 0.12779 0.243 0.34398 0.0
C229 C 0.14757 0.24743 0.31598 0.0
C230 C 0.0724 0.18848 0.3025 0.0
C231 C 0.13358 0.25899 0.3779 0.0
C232 C 0.04215 0.24136 0.40598 0.0
C233 C 0.04774 0.22065 0.43264 0.0
C234 C 0.05846 0.24103 0.37463 0.0
C235 C 0.08158 0.21989 0.36992 0.0
C236 C 0.08645 0.19799 0.39611 0.0
C237 C 0.06921 0.19842 0.42705 0.0
C238 C 0.05203 0.26447 0.34738 0.0
C239 C 0.11112 0.17532 0.39243 0.0
H240 H 0.11636 0.20167 0.25584 0.0
H241 H 0.1665 0.26218 0.31959 0.0
H242 H 0.07332 0.16974 0.32137 0.0
H243 H 0.05128 0.2007 0.30754 0.0
H244 H 0.07176 0.17922 0.2757 0.0
H245 H 0.15443 0.27245 0.37708 0.0
H246 H 0.11464 0.27404 0.38409 0.0
H247 H 0.1353 0.24262 0.39952 0.0
H248 H 0.02527 0.25836 0.40994 0.0
H249 H 0.07363 0.18241 0.44757 0.0
H250 H 0.05077 0.25425 0.32114 0.0
H251 H 0.07047 0.28102 0.34677 0.0
H252 H 0.03079 0.27646 0.35271 0.0
H253 H 0.11031 0.16459 0.36645 0.0
H254 H 0.10981 0.15774 0.41283 0.0
H255 H 0.13308 0.18668 0.3945 0.0
C256 C 0.69105 0.21628 0.38943 0.0
C257 C 0.69584 0.21312 0.35352 0.0
C258 C 0.68418 0.19122 0.41038 0.0
C259 C 0.68179 0.16258 0.3949 0.0
C260 C 0.68424 0.15993 0.35827 0.0
C261 C 0.69139 0.18512 0.33817 0.0
C262 C 0.68166 0.19505 0.44931 0.0
C263 C 0.68168 0.13007 0.34042 0.0
C264 C 0.70969 0.09417 0.44307 0.0
C265 C 0.68314 0.0792 0.45216 0.0
C266 C 0.70933 0.12165 0.42563 0.0
C267 C 0.68171 0.13488 0.41677 0.0
C268 C 0.65471 0.12028 0.42629 0.0
C269 C 0.65572 0.09257 0.44387 0.0
C270 C 0.73874 0.13617 0.41592 0.0
C271 C 0.62482 0.13368 0.41736 0.0
H272 H 0.69448 0.23786 0.40141 0.0
H273 H 0.69463 0.18263 0.31029 0.0
H274 H 0.66244 0.18216 0.45983 0.0
H275 H 0.70216 0.18632 0.46184 0.0
H276 H 0.67901 0.21884 0.45671 0.0
H277 H 0.68008 0.13235 0.31166 0.0
H278 H 0.70165 0.11641 0.3465 0.0
H279 H 0.6618 0.11773 0.35008 0.0
H280 H 0.73108 0.0843 0.4494 0.0
H281 H 0.63509 0.08138 0.45097 0.0
H282 H 0.7395 0.15933 0.42592 0.0
H283 H 0.74095 0.13736 0.38713 0.0
H284 H 0.75824 0.1238 0.42634 0.0
H285 H 0.62363 0.15704 0.42671 0.0
H286 H 0.60593 0.12087 0.42889 0.0
H287 H 0.62211 0.13427 0.38865 0.0
C288 C 0.88462 0.76854 0.28005 0.0
C289 C 0.85626 0.75896 0.2913 0.0
C290 C 0.9086 0.77104 0.30363 0.0
C291 C 0.90405 0.76428 0.33941 0.0
C292 C 0.87561 0.75418 0.35072 0.0
C293 C 0.85229 0.75142 0.32661 0.0
C294 C 0.9387 0.78132 0.29037 0.0
C295 C 0.86953 0.74698 0.38858 0.0
C296 C 0.96677 0.74553 0.4025 0.0
C297 C 0.96995 0.77225 0.42112 0.0
C298 C 0.94664 0.74314 0.37462 0.0
C299 C 0.92866 0.76787 0.36542 0.0
C300 C 0.9324 0.7952 0.38344 0.0
C301 C 0.95318 0.79714 0.41082 0.0
C302 C 0.94386 0.71375 0.35582 0.0
C303 C 0.91341 0.822 0.37492 0.0
H304 H 0.88798 0.77451 0.25293 0.0
H305 H 0.83053 0.74417 0.33584 0.0
H306 H 0.9446 0.80293 0.30252 0.0
H307 H 0.9562 0.76506 0.29787 0.0
H308 H 0.93913 0.78409 0.2616 0.0
H309 H 0.84616 0.7395 0.39322 0.0
H310 H 0.88486 0.72919 0.39759 0.0
H311 H 0.8738 0.76695 0.40483 0.0
H312 H 0.97982 0.72624 0.41001 0.0
H313 H 0.95539 0.81784 0.42509 0.0
H314 H 0.94497 0.71726 0.32722 0.0
H315 H 0.92184 0.70353 0.36185 0.0
H316 H 0.96164 0.69777 0.36342 0.0
H317 H 0.91455 0.82698 0.34663 0.0
H318 H 0.92041 0.84215 0.38955 0.0
H319 H 0.88971 0.81711 0.38141 0.0
C320 C 0.29475 0.85169 0.30745 0.0
C321 C 0.30135 0.82343 0.32114 0.0
C322 C 0.30136 0.87782 0.32622 0.0
C323 C 0.31456 0.87565 0.35963 0.0
C324 C 0.32199 0.84722 0.3731 0.0
C325 C 0.31544 0.82157 0.35369 0.0
C326 C 0.29332 0.90771 0.31078 0.0
C327 C 0.33566 0.84376 0.40877 0.0
C328 C 0.347 0.94351 0.40645 0.0
C329 C 0.32307 0.95162 0.4282 0.0
C330 C 0.34444 0.91927 0.38326 0.0
C331 C 0.3175 0.90257 0.38222 0.0
C332 C 0.29337 0.91074 0.40413 0.0
C333 C 0.2964 0.93511 0.42658 0.0
C334 C 0.37054 0.91141 0.36002 0.0
C335 C 0.2644 0.89338 0.40437 0.0
H336 H 0.28411 0.85342 0.28224 0.0
H337 H 0.32074 0.7999 0.36457 0.0
H338 H 0.27473 0.91773 0.32597 0.0
H339 H 0.3126 0.92321 0.31234 0.0
H340 H 0.2863 0.9059 0.28315 0.0
H341 H 0.3422 0.82036 0.41439 0.0
H342 H 0.35569 0.85818 0.41117 0.0
H343 H 0.31938 0.85101 0.42895 0.0
H344 H 0.36761 0.95619 0.40739 0.0
H345 H 0.27776 0.94096 0.44335 0.0
H346 H 0.36337 0.91109 0.33239 0.0
H347 H 0.37866 0.88871 0.36646 0.0
H348 H 0.38938 0.92736 0.36271 0.0
H349 H 0.25466 0.89307 0.37787 0.0
H350 H 0.24762 0.90289 0.42266 0.0
H351 H 0.26868 0.8699 0.41201 0.0
C352 C 0.14726 0.81803 0.73329 0.0
C353 C 0.1745 0.80389 0.72579 0.0
C354 C 0.12433 0.81938 0.70817 0.0
C355 C 0.12888 0.80649 0.67482 0.0
C356 C 0.15657 0.79281 0.66703 0.0
C357 C 0.17882 0.79161 0.69248 0.0
C358 C 0.09507 0.83408 0.71747 0.0
C359 C 0.16259 0.77882 0.63189 0.0
C360 C 0.06759 0.77521 0.61787 0.0
C361 C 0.06655 0.79605 0.59054 0.0
C362 C 0.08611 0.77953 0.64679 0.0
C363 C 0.10446 0.8052 0.64844 0.0
C364 C 0.10231 0.82718 0.62191 0.0
C365 C 0.08323 0.82242 0.59332 0.0
C366 C 0.08741 0.75559 0.67449 0.0
C367 C 0.12153 0.85482 0.62258 0.0
H368 H 0.14373 0.82772 0.75881 0.0
H369 H 0.19983 0.7809 0.68605 0.0
H370 H 0.08941 0.85128 0.69777 0.0
H371 H 0.07688 0.81726 0.71725 0.0
H372 H 0.09564 0.84468 0.74358 0.0
H373 H 0.18582 0.77038 0.62939 0.0
H374 H 0.147 0.75993 0.62772 0.0
H375 H 0.15864 0.79529 0.61081 0.0
H376 H 0.0544 0.75498 0.61628 0.0
H377 H 0.08248 0.83868 0.5724 0.0
H378 H 0.08613 0.76559 0.70085 0.0
H379 H 0.10904 0.74362 0.67252 0.0
H380 H 0.06907 0.73905 0.67185 0.0
H381 H 0.1211 0.8651 0.64883 0.0
H382 H 0.11424 0.87163 0.60311 0.0
H383 H 0.14505 0.84868 0.61676 0.0
C384 C 0.32688 0.19147 0.67117 0.0
C385 C 0.32858 0.22041 0.65727 0.0
C386 C 0.3341 0.16643 0.65105 0.0
C387 C 0.34297 0.17023 0.61587 0.0
C388 C 0.3466 0.19947 0.60228 0.0
C389 C 0.33949 0.22429 0.62323 0.0
C390 C 0.33008 0.13579 0.66683 0.0
C391 C 0.35599 0.20452 0.56492 0.0
C392 C 0.36696 0.09929 0.56798 0.0
C393 C 0.33959 0.08989 0.55413 0.0
C394 C 0.3689 0.12605 0.58722 0.0
C395 C 0.34299 0.14379 0.59227 0.0
C396 C 0.31571 0.13487 0.57708 0.0
C397 C 0.31437 0.10816 0.55845 0.0
C398 C 0.39837 0.13483 0.60306 0.0
C399 C 0.2875 0.15303 0.58145 0.0
H400 H 0.31903 0.18826 0.6977 0.0
H401 H 0.34106 0.24658 0.6124 0.0
H402 H 0.30999 0.12507 0.65555 0.0
H403 H 0.34953 0.12141 0.66065 0.0
H404 H 0.32721 0.13665 0.69558 0.0
H405 H 0.36275 0.22801 0.56006 0.0
H406 H 0.37482 0.18964 0.55776 0.0
H407 H 0.33705 0.1991 0.5475 0.0
H408 H 0.38657 0.08544 0.56455 0.0
H409 H 0.29319 0.10154 0.54728 0.0
H410 H 0.39692 0.13275 0.63183 0.0
H411 H 0.40357 0.15849 0.59702 0.0
H412 H 0.41704 0.12065 0.5936 0.0
H413 H 0.28073 0.15329 0.60931 0.0
H414 H 0.26862 0.14404 0.56601 0.0
H415 H 0.29149 0.17646 0.57335 0.0
C416 C 0.86415 0.2272 0.74697 0.0
C417 C 0.83623 0.23841 0.73677 0.0
C418 C 0.88806 0.22487 0.72294 0.0
C419 C 0.88391 0.23358 0.68772 0.0
C420 C 0.85591 0.24522 0.67746 0.0
C421 C 0.83263 0.24766 0.70201 0.0
C422 C 0.91766 0.21278 0.73511 0.0
C423 C 0.8503 0.25468 0.64026 0.0
C424 C 0.94808 0.25482 0.62683 0.0
C425 C 0.95083 0.22942 0.6057 0.0
C426 C 0.92753 0.25586 0.65465 0.0
C427 C 0.90873 0.23108 0.66141 0.0
C428 C 0.91202 0.20498 0.64089 0.0
C429 C 0.93319 0.20437 0.61348 0.0
C430 C 0.9252 0.28399 0.67602 0.0
C431 C 0.89223 0.17817 0.64687 0.0
H432 H 0.86722 0.21985 0.77363 0.0
H433 H 0.81121 0.25619 0.69356 0.0
H434 H 0.92309 0.19203 0.72076 0.0
H435 H 0.93572 0.22906 0.72933 0.0
H436 H 0.91765 0.20785 0.76349 0.0
H437 H 0.82716 0.26293 0.63632 0.0
H438 H 0.86614 0.2726 0.63261 0.0
H439 H 0.85421 0.23561 0.62245 0.0
H440 H 0.9618 0.27422 0.62131 0.0
H441 H 0.93506 0.1847 0.59729 0.0
H442 H 0.926 0.27861 0.70423 0.0
H443 H 0.90345 0.29497 0.67101 0.0
H444 H 0.94337 0.30009 0.66982 0.0
H445 H 0.89274 0.17138 0.67467 0.0
H446 H 0.89901 0.15886 0.63058 0.0
H447 H 0.86878 0.184 0.64062 0.0
C448 C 0.69199 0.79391 0.63261 0.0
C449 C 0.70268 0.79932 0.66629 0.0
C450 C 0.68408 0.81776 0.6104 0.0
C451 C 0.68678 0.84759 0.6223 0.0
C452 C 0.69574 0.85289 0.65703 0.0
C453 C 0.7036 0.82881 0.67844 0.0
C454 C 0.67448 0.81112 0.57363 0.0
C455 C 0.69888 0.88418 0.67104 0.0
C456 C 0.71024 0.91036 0.56175 0.0
C457 C 0.68402 0.92738 0.55891 0.0
C458 C 0.71087 0.88364 0.58072 0.0
C459 C 0.68462 0.87338 0.59762 0.0
C460 C 0.65768 0.8897 0.59376 0.0
C461 C 0.65766 0.91653 0.57435 0.0
C462 C 0.74013 0.86708 0.58391 0.0
C463 C 0.62919 0.87946 0.61125 0.0
H464 H 0.69106 0.77121 0.62306 0.0
H465 H 0.71131 0.83326 0.70464 0.0
H466 H 0.65476 0.82475 0.5665 0.0
H467 H 0.69282 0.81707 0.55531 0.0
H468 H 0.66896 0.78718 0.57004 0.0
H469 H 0.70293 0.88444 0.69957 0.0
H470 H 0.71789 0.89551 0.65783 0.0
H471 H 0.67849 0.89737 0.66557 0.0
H472 H 0.73069 0.91815 0.54947 0.0
H473 H 0.63726 0.92937 0.57213 0.0
H474 H 0.73712 0.84329 0.57696 0.0
H475 H 0.74788 0.86787 0.61131 0.0
H476 H 0.75791 0.8767 0.56695 0.0
H477 H 0.62535 0.85541 0.60632 0.0
H478 H 0.60946 0.89224 0.60215 0.0
H479 H 0.63114 0.88234 0.63985 0.0
C480 C 0.82381 0.73572 0.65941 0.0
C481 C 0.82616 0.74973 0.69196 0.0
C482 C 0.84853 0.73314 0.6371 0.0
C483 C 0.8765 0.74455 0.64765 0.0
C484 C 0.87927 0.75821 0.68074 0.0
C485 C 0.85398 0.76083 0.70246 0.0
C486 C 0.84451 0.71882 0.60184 0.0
C487 C 0.90885 0.77037 0.69297 0.0
C488 C 0.94471 0.71733 0.59736 0.0
C489 C 0.94976 0.74118 0.57437 0.0
C490 C 0.9213 0.71834 0.62192 0.0
C491 C 0.90231 0.74358 0.62309 0.0
C492 C 0.90715 0.76752 0.59966 0.0
C493 C 0.93089 0.7661 0.57577 0.0
C494 C 0.91693 0.69249 0.64671 0.0
C495 C 0.88708 0.79459 0.59961 0.0
H496 H 0.8024 0.72715 0.65095 0.0
H497 H 0.856 0.77152 0.72764 0.0
H498 H 0.84954 0.73528 0.58098 0.0
H499 H 0.86037 0.70004 0.59862 0.0
H500 H 0.82145 0.71029 0.598 0.0
H501 H 0.9077 0.77871 0.72017 0.0
H502 H 0.92626 0.75282 0.69138 0.0
H503 H 0.91609 0.78893 0.67571 0.0
H504 H 0.9594 0.69815 0.59663 0.0
H505 H 0.93459 0.78459 0.558 0.0
H506 H 0.89461 0.68234 0.64273 0.0
H507 H 0.91767 0.70051 0.67402 0.0
H508 H 0.9342 0.67497 0.64321 0.0
H509 H 0.86372 0.78777 0.59421 0.0
H510 H 0.89402 0.81139 0.57984 0.0
H511 H 0.8872 0.80527 0.62564 0.0
C512 C 0.29023 0.87204 0.71366 0.0
C513 C 0.29107 0.84204 0.70352 0.0
C514 C 0.2927 0.89501 0.68905 0.0
C515 C 0.29583 0.88777 0.65338 0.0
C516 C 0.29823 0.85755 0.64312 0.0
C517 C 0.29599 0.83496 0.66843 0.0
C518 C 0.29055 0.92698 0.70108 0.0
C519 C 0.30156 0.84903 0.60527 0.0
C520 C 0.26696 0.94492 0.58869 0.0
C521 C 0.29353 0.95853 0.57745 0.0
C522 C 0.26744 0.92158 0.61313 0.0
C523 C 0.29512 0.91187 0.6268 0.0
C524 C 0.32196 0.92571 0.61583 0.0
C525 C 0.32085 0.9488 0.59123 0.0
C526 C 0.23834 0.90723 0.62421 0.0
C527 C 0.35184 0.91615 0.63012 0.0
H528 H 0.2866 0.8776 0.74084 0.0
H529 H 0.29639 0.81179 0.66047 0.0
H530 H 0.30947 0.94023 0.69045 0.0
H531 H 0.26965 0.93709 0.69111 0.0
H532 H 0.29055 0.92885 0.72993 0.0
H533 H 0.30539 0.82475 0.60187 0.0
H534 H 0.28102 0.85531 0.59097 0.0
H535 H 0.32044 0.86137 0.59312 0.0
H536 H 0.24581 0.95218 0.57801 0.0
H537 H 0.34151 0.95923 0.58274 0.0
H538 H 0.23503 0.90993 0.6527 0.0
H539 H 0.23904 0.88295 0.61883 0.0
H540 H 0.2188 0.91697 0.61059 0.0
H541 H 0.35206 0.91897 0.65883 0.0
H542 H 0.37068 0.92913 0.61873 0.0
H543 H 0.3556 0.89216 0.62474 0.0
C544 C 0.20781 0.2901 0.64837 0.0
C545 C 0.20606 0.27936 0.68271 0.0
C546 C 0.18235 0.29147 0.62724 0.0
C547 C 0.15436 0.28228 0.6409 0.0
C548 C 0.15224 0.27254 0.67596 0.0
C549 C 0.17815 0.27097 0.69636 0.0
C550 C 0.18564 0.30159 0.58985 0.0
C551 C 0.12273 0.26293 0.69163 0.0
C552 C 0.08329 0.30267 0.59207 0.0
C553 C 0.07681 0.27581 0.57509 0.0
C554 C 0.10849 0.30522 0.61364 0.0
C555 C 0.12784 0.28048 0.61774 0.0
C556 C 0.12172 0.25358 0.59995 0.0
C557 C 0.09621 0.25152 0.57911 0.0
C558 C 0.1141 0.33412 0.63255 0.0
C559 C 0.14203 0.22684 0.60312 0.0
H560 H 0.2293 0.29659 0.63758 0.0
H561 H 0.17657 0.2629 0.72296 0.0
H562 H 0.18057 0.28274 0.57216 0.0
H563 H 0.16943 0.31959 0.58405 0.0
H564 H 0.20852 0.30983 0.58388 0.0
H565 H 0.12436 0.25852 0.72005 0.0
H566 H 0.10555 0.28033 0.68727 0.0
H567 H 0.11487 0.24231 0.67865 0.0
H568 H 0.06829 0.32146 0.5892 0.0
H569 H 0.09148 0.23075 0.56583 0.0
H570 H 0.13661 0.34286 0.62583 0.0
H571 H 0.11368 0.33015 0.6611 0.0
H572 H 0.09723 0.35141 0.62618 0.0
H573 H 0.16518 0.23303 0.59555 0.0
H574 H 0.13469 0.20795 0.58656 0.0
H575 H 0.14264 0.21914 0.6306 0.0
C576 C 0.7215 0.18029 0.67404 0.0
C577 C 0.73153 0.17619 0.70821 0.0
C578 C 0.72106 0.15639 0.65054 0.0
C579 C 0.73056 0.12784 0.66174 0.0
C580 C 0.73994 0.12345 0.69646 0.0
C581 C 0.74041 0.14772 0.71924 0.0
C582 C 0.71101 0.16179 0.61357 0.0
C583 C 0.74985 0.09322 0.7094 0.0
C584 C 0.70479 0.0618 0.60878 0.0
C585 C 0.73001 0.05615 0.58797 0.0
C586 C 0.70489 0.08471 0.63344 0.0
C587 C 0.73075 0.1025 0.63713 0.0
C588 C 0.75663 0.09634 0.61702 0.0
C589 C 0.75601 0.07305 0.59274 0.0
C590 C 0.67707 0.09036 0.65488 0.0
C591 C 0.78459 0.11498 0.62033 0.0
H592 H 0.71479 0.20229 0.66538 0.0
H593 H 0.748 0.14438 0.74574 0.0
H594 H 0.72942 0.15638 0.59517 0.0
H595 H 0.69198 0.14691 0.60727 0.0
H596 H 0.70404 0.18525 0.60911 0.0
H597 H 0.75568 0.09343 0.7375 0.0
H598 H 0.73189 0.07655 0.7053 0.0
H599 H 0.76966 0.08567 0.69434 0.0
H600 H 0.68469 0.04866 0.60531 0.0
H601 H 0.77546 0.06888 0.57653 0.0
H602 H 0.66804 0.11277 0.64871 0.0
H603 H 0.6825 0.09013 0.68305 0.0
H604 H 0.65934 0.07354 0.65002 0.0
H605 H 0.7797 0.1384 0.61298 0.0
H606 H 0.80308 0.10669 0.60353 0.0
H607 H 0.79226 0.11511 0.64776 0.0
C608 C 0.81598 0.28207 0.36125 0.0
C609 C 0.81942 0.26535 0.33058 0.0
C610 C 0.83942 0.2853 0.38489 0.0
C611 C 0.86723 0.27174 0.37765 0.0
C612 C 0.87132 0.2557 0.3462 0.0
C613 C 0.84725 0.25252 0.32306 0.0
C614 C 0.83399 0.30224 0.41832 0.0
C615 C 0.90084 0.24123 0.33749 0.0
C616 C 0.93347 0.29631 0.43239 0.0
C617 C 0.93496 0.27311 0.45683 0.0
C618 C 0.91182 0.29601 0.40598 0.0
C619 C 0.89099 0.27222 0.40453 0.0
C620 C 0.89201 0.24919 0.42974 0.0
C621 C 0.9141 0.24982 0.45539 0.0
C622 C 0.91152 0.32078 0.3793 0.0
C623 C 0.86981 0.22378 0.42961 0.0
H624 H 0.79459 0.29215 0.36738 0.0
H625 H 0.85015 0.23977 0.29934 0.0
H626 H 0.83569 0.28679 0.44085 0.0
H627 H 0.85127 0.31972 0.42172 0.0
H628 H 0.81164 0.31296 0.41904 0.0
H629 H 0.90127 0.23197 0.31067 0.0
H630 H 0.91929 0.25761 0.34006 0.0
H631 H 0.90527 0.22286 0.35617 0.0
H632 H 0.94985 0.31412 0.43316 0.0
H633 H 0.91516 0.23187 0.47432 0.0
H634 H 0.8896 0.33229 0.37978 0.0
H635 H 0.91449 0.31136 0.35281 0.0
H636 H 0.92939 0.33751 0.38387 0.0
H637 H 0.84673 0.23262 0.43184 0.0
H638 H 0.87355 0.20777 0.45127 0.0
H639 H 0.87132 0.21152 0.4046 0.0
C640 C 0.75863 0.85197 0.30604 0.0
C641 C 0.75051 0.82378 0.31894 0.0
C642 C 0.75602 0.87747 0.32671 0.0
C643 C 0.74526 0.87467 0.36123 0.0
C644 C 0.73678 0.84634 0.37441 0.0
C645 C 0.73935 0.82116 0.35297 0.0
C646 C 0.76488 0.90738 0.31164 0.0
C647 C 0.72536 0.84262 0.41127 0.0
C648 C 0.76411 0.93529 0.42613 0.0
C649 C 0.73697 0.95075 0.42819 0.0
C650 C 0.76724 0.91058 0.40411 0.0
C651 C 0.74277 0.90148 0.38348 0.0
C652 C 0.71579 0.91784 0.3843 0.0
C653 C 0.71318 0.94223 0.40678 0.0
C654 C 0.79635 0.89357 0.40384 0.0
C655 C 0.68941 0.90907 0.36218 0.0
H656 H 0.76707 0.85419 0.27963 0.0
H657 H 0.73318 0.79939 0.36305 0.0
H658 H 0.74574 0.92303 0.31307 0.0
H659 H 0.78326 0.91719 0.32713 0.0
H660 H 0.77235 0.90575 0.28405 0.0
H661 H 0.7198 0.81906 0.41755 0.0
H662 H 0.74243 0.85056 0.42993 0.0
H663 H 0.70508 0.85642 0.41526 0.0
H664 H 0.78248 0.94165 0.44283 0.0
H665 H 0.69219 0.95421 0.40818 0.0
H666 H 0.8053 0.89208 0.3769 0.0
H667 H 0.79246 0.87044 0.41315 0.0
H668 H 0.81351 0.9041 0.42062 0.0
H669 H 0.69618 0.90777 0.33437 0.0
H670 H 0.67056 0.92504 0.36461 0.0
H671 H 0.68137 0.88661 0.37001 0.0
C672 C 0.22902 0.70676 0.39201 0.0
C673 C 0.22585 0.71364 0.35657 0.0
C674 C 0.20395 0.7059 0.41434 0.0
C675 C 0.17515 0.71167 0.40071 0.0
C676 C 0.17176 0.71678 0.36456 0.0
C677 C 0.19712 0.7179 0.34303 0.0
C678 C 0.20849 0.70053 0.45277 0.0
C679 C 0.14146 0.72264 0.3488 0.0
C680 C 0.10331 0.6968 0.45169 0.0
C681 C 0.0956 0.72568 0.46241 0.0
C682 C 0.12971 0.69158 0.43255 0.0
C683 C 0.14893 0.71575 0.42434 0.0
C684 C 0.14178 0.74471 0.43632 0.0
C685 C 0.11518 0.74933 0.45497 0.0
C686 C 0.13646 0.66044 0.42 0.0
C687 C 0.16176 0.77109 0.42847 0.0
H688 H 0.25118 0.70347 0.4026 0.0
H689 H 0.19448 0.72283 0.31555 0.0
H690 H 0.20433 0.72153 0.46722 0.0
H691 H 0.19234 0.68372 0.4627 0.0
H692 H 0.23151 0.69283 0.4586 0.0
H693 H 0.14227 0.72306 0.31987 0.0
H694 H 0.12524 0.70532 0.35725 0.0
H695 H 0.13291 0.74445 0.35804 0.0
H696 H 0.08831 0.67841 0.4574 0.0
H697 H 0.10962 0.77167 0.46353 0.0
H698 H 0.15965 0.65409 0.42682 0.0
H699 H 0.13476 0.65969 0.39118 0.0
H700 H 0.12083 0.64367 0.43122 0.0
H701 H 0.18505 0.76621 0.4364 0.0
H702 H 0.15424 0.79166 0.44198 0.0
H703 H 0.16205 0.77548 0.4 0.0
C704 C 0.25618 0.16756 0.30229 0.0
C705 C 0.25694 0.19788 0.31104 0.0
C706 C 0.25974 0.14547 0.32759 0.0
C707 C 0.26426 0.15389 0.36261 0.0
C708 C 0.26586 0.18446 0.37164 0.0
C709 C 0.26225 0.20624 0.34559 0.0
C710 C 0.25834 0.1131 0.31684 0.0
C711 C 0.27082 0.19408 0.40881 0.0
C712 C 0.24774 0.09277 0.42854 0.0
C713 C 0.27634 0.08093 0.43365 0.0
C714 C 0.24351 0.1174 0.40642 0.0
C715 C 0.26848 0.13033 0.38922 0.0
C716 C 0.29739 0.1188 0.39482 0.0
C717 C 0.30094 0.09423 0.41682 0.0
C718 C 0.21232 0.12919 0.40082 0.0
C719 C 0.32454 0.1319 0.37682 0.0
H720 H 0.25228 0.161 0.27552 0.0
H721 H 0.26254 0.22966 0.35243 0.0
H722 H 0.27954 0.10173 0.32358 0.0
H723 H 0.24011 0.10157 0.33124 0.0
H724 H 0.25444 0.1104 0.28846 0.0
H725 H 0.27192 0.21872 0.41142 0.0
H726 H 0.25242 0.18557 0.4256 0.0
H727 H 0.2919 0.18438 0.41878 0.0
H728 H 0.2287 0.08279 0.44172 0.0
H729 H 0.32322 0.08545 0.42075 0.0
H730 H 0.20571 0.12566 0.37332 0.0
H731 H 0.21166 0.15355 0.4057 0.0
H732 H 0.19561 0.11809 0.41802 0.0
H733 H 0.32287 0.12841 0.34829 0.0
H734 H 0.3457 0.1217 0.386 0.0
H735 H 0.32564 0.1563 0.38128 0.0
C736 C 0.69429 0.78331 0.85088 0.0
C737 C 0.68889 0.7769 0.8158 0.0
C738 C 0.67055 0.78456 0.87499 0.0
C739 C 0.6409 0.77965 0.86345 0.0
C740 C 0.63532 0.77479 0.82772 0.0
C741 C 0.65938 0.77334 0.80439 0.0
C742 C 0.67727 0.78977 0.91298 0.0
C743 C 0.60402 0.76991 0.8143 0.0
C744 C 0.58341 0.7489 0.92717 0.0
C745 C 0.56776 0.77473 0.9366 0.0
C746 C 0.60743 0.75026 0.90355 0.0
C747 C 0.61577 0.77805 0.88881 0.0
C748 C 0.59958 0.80406 0.89751 0.0
C749 C 0.57581 0.8021 0.92136 0.0
C750 C 0.62419 0.72202 0.8948 0.0
C751 C 0.60758 0.83399 0.88192 0.0
H752 H 0.7171 0.7859 0.85974 0.0
H753 H 0.65511 0.76868 0.77715 0.0
H754 H 0.66338 0.80826 0.92326 0.0
H755 H 0.67151 0.76949 0.92824 0.0
H756 H 0.70119 0.79517 0.91736 0.0
H757 H 0.60333 0.76865 0.78541 0.0
H758 H 0.59486 0.74883 0.82515 0.0
H759 H 0.58912 0.78821 0.82298 0.0
H760 H 0.57749 0.72773 0.93903 0.0
H761 H 0.56383 0.82218 0.9285 0.0
H762 H 0.64811 0.72456 0.90165 0.0
H763 H 0.62314 0.71778 0.86637 0.0
H764 H 0.61506 0.70226 0.90877 0.0
H765 H 0.63087 0.83995 0.8888 0.0
H766 H 0.5925 0.85203 0.8911 0.0
H767 H 0.60647 0.83292 0.85308 0.0
C768 C 0.21916 0.70769 0.84517 0.0
C769 C 0.23666 0.70612 0.81474 0.0
C770 C 0.21346 0.68226 0.86545 0.0
C771 C 0.22535 0.65448 0.85497 0.0
C772 C 0.24142 0.65235 0.82316 0.0
C773 C 0.24701 0.67824 0.80347 0.0
C774 C 0.19642 0.68556 0.89931 0.0
C775 C 0.25418 0.62303 0.81092 0.0
C776 C 0.24838 0.6015 0.92676 0.0
C777 C 0.22491 0.58076 0.92721 0.0
C778 C 0.24857 0.62554 0.9035 0.0
C779 C 0.22482 0.62887 0.87967 0.0
C780 C 0.20085 0.60817 0.88003 0.0
C781 C 0.20106 0.58438 0.90407 0.0
C782 C 0.27433 0.64736 0.90445 0.0
C783 C 0.17531 0.61095 0.85476 0.0
H784 H 0.21083 0.72907 0.85401 0.0
H785 H 0.26026 0.67675 0.77981 0.0
H786 H 0.17903 0.66804 0.90177 0.0
H787 H 0.21198 0.68275 0.92147 0.0
H788 H 0.18556 0.70773 0.90161 0.0
H789 H 0.26232 0.62423 0.78355 0.0
H790 H 0.27318 0.61664 0.82781 0.0
H791 H 0.23716 0.6051 0.81302 0.0
H792 H 0.26677 0.59901 0.9448 0.0
H793 H 0.18298 0.56829 0.90419 0.0
H794 H 0.26585 0.67022 0.90928 0.0
H795 H 0.28603 0.64766 0.87889 0.0
H796 H 0.29082 0.64178 0.92497 0.0
H797 H 0.16436 0.63298 0.8577 0.0
H798 H 0.15825 0.59321 0.85861 0.0
H799 H 0.18393 0.60967 0.82764 0.0
C800 C 0.36941 0.25263 0.80048 0.0
C801 C 0.33918 0.24683 0.8077 0.0
C802 C 0.39114 0.2496 0.82628 0.0
C803 C 0.38241 0.24069 0.86017 0.0
C804 C 0.35203 0.23423 0.86756 0.0
C805 C 0.33072 0.23725 0.8411 0.0
C806 C 0.42339 0.25628 0.81735 0.0
C807 C 0.34201 0.22468 0.90353 0.0
C808 C 0.44113 0.20742 0.91897 0.0
C809 C 0.44834 0.23167 0.94038 0.0
C810 C 0.41981 0.21013 0.89267 0.0
C811 C 0.40524 0.23773 0.88774 0.0
C812 C 0.41275 0.2625 0.90879 0.0
C813 C 0.43438 0.25921 0.93485 0.0
C814 C 0.41264 0.18335 0.87041 0.0
C815 C 0.39756 0.29228 0.90415 0.0
H816 H 0.37612 0.2599 0.77463 0.0
H817 H 0.30736 0.23296 0.84684 0.0
H818 H 0.43165 0.27484 0.83374 0.0
H819 H 0.43749 0.23655 0.82302 0.0
H820 H 0.42649 0.2625 0.78952 0.0
H821 H 0.31759 0.22034 0.90493 0.0
H822 H 0.35401 0.20414 0.91145 0.0
H823 H 0.34767 0.24224 0.9227 0.0
H824 H 0.45196 0.1861 0.92299 0.0
H825 H 0.43974 0.27794 0.95148 0.0
H826 H 0.41645 0.18873 0.84251 0.0
H827 H 0.38872 0.17735 0.87346 0.0
H828 H 0.42638 0.1636 0.87729 0.0
H829 H 0.40097 0.3005 0.87713 0.0
H830 H 0.40608 0.30935 0.92253 0.0
H831 H 0.37313 0.28977 0.90827 0.0
C832 C 0.74466 0.32025 0.85851 0.0
C833 C 0.73344 0.31826 0.82453 0.0
C834 C 0.73808 0.34477 0.87985 0.0
C835 C 0.71989 0.3681 0.86695 0.0
C836 C 0.70834 0.36623 0.83275 0.0
C837 C 0.71522 0.34133 0.81196 0.0
C838 C 0.75095 0.34588 0.91612 0.0
C839 C 0.68906 0.39073 0.81798 0.0
C840 C 0.68966 0.42121 0.93623 0.0
C841 C 0.71197 0.44314 0.93622 0.0
C842 C 0.69108 0.39714 0.91268 0.0
C843 C 0.71514 0.39535 0.8885 0.0
C844 C 0.73653 0.41854 0.88706 0.0
C845 C 0.73475 0.44198 0.91099 0.0
C846 C 0.66784 0.37283 0.91499 0.0
C847 C 0.76233 0.41784 0.8615 0.0
H848 H 0.75855 0.30249 0.86865 0.0
H849 H 0.70624 0.33994 0.78584 0.0
H850 H 0.76641 0.36513 0.9183 0.0
H851 H 0.73283 0.34915 0.93558 0.0
H852 H 0.76337 0.32525 0.9229 0.0
H853 H 0.68055 0.38525 0.79162 0.0
H854 H 0.66975 0.39497 0.83552 0.0
H855 H 0.70209 0.41174 0.81627 0.0
H856 H 0.67208 0.42199 0.95575 0.0
H857 H 0.75185 0.45914 0.91057 0.0
H858 H 0.6782 0.35223 0.92547 0.0
H859 H 0.65912 0.36749 0.88874 0.0
H860 H 0.64882 0.3791 0.9322 0.0
H861 H 0.77762 0.39929 0.86832 0.0
H862 H 0.77532 0.43896 0.86146 0.0
H863 H 0.75413 0.41369 0.83473 0.0
C864 C 0.65529 0.23316 0.22044 0.0
C865 C 0.68449 0.23132 0.20717 0.0
C866 C 0.63053 0.22995 0.19878 0.0
C867 C 0.63506 0.22489 0.16283 0.0
C868 C 0.66448 0.22168 0.14941 0.0
C869 C 0.689 0.2248 0.1719 0.0
C870 C 0.59955 0.23309 0.21421 0.0
C871 C 0.67003 0.21619 0.11114 0.0
C872 C 0.56838 0.19661 0.11228 0.0
C873 C 0.55746 0.22297 0.09719 0.0
C874 C 0.59389 0.19683 0.13325 0.0
C875 C 0.60884 0.22407 0.13937 0.0
C876 C 0.59773 0.25084 0.1247 0.0
C877 C 0.57211 0.24999 0.10382 0.0
C878 C 0.6049 0.1679 0.14877 0.0
C879 C 0.61305 0.28036 0.1309 0.0
H880 H 0.65175 0.23785 0.24787 0.0
H881 H 0.71158 0.22353 0.16163 0.0
H882 H 0.58849 0.25307 0.20312 0.0
H883 H 0.58565 0.21349 0.20741 0.0
H884 H 0.59991 0.2353 0.24303 0.0
H885 H 0.69404 0.21228 0.10525 0.0
H886 H 0.65697 0.19663 0.10225 0.0
H887 H 0.66238 0.23574 0.09583 0.0
H888 H 0.55726 0.17559 0.10725 0.0
H889 H 0.56399 0.27039 0.09202 0.0
H890 H 0.60477 0.16936 0.17762 0.0
H891 H 0.62832 0.16378 0.14048 0.0
H892 H 0.59101 0.14853 0.14094 0.0
H893 H 0.61306 0.28546 0.15917 0.0
H894 H 0.60204 0.29902 0.1169 0.0
H895 H 0.63672 0.27913 0.12227 0.0
C896 C 0.7609 0.6801 0.16938 0.0
C897 C 0.75053 0.68119 0.20395 0.0
C898 C 0.7522 0.65716 0.14682 0.0
C899 C 0.73276 0.63445 0.15903 0.0
C900 C 0.72224 0.63527 0.1939 0.0
C901 C 0.73119 0.65866 0.21594 0.0
C902 C 0.76406 0.65713 0.10988 0.0
C903 C 0.70171 0.61133 0.20796 0.0
C904 C 0.69729 0.58764 0.08733 0.0
C905 C 0.71807 0.56445 0.08445 0.0
C906 C 0.70087 0.61005 0.11271 0.0
C907 C 0.72552 0.60884 0.13581 0.0
C908 C 0.74532 0.58434 0.13429 0.0
C909 C 0.74144 0.56263 0.10858 0.0
C910 C 0.6793 0.63585 0.11352 0.0
C911 C 0.77168 0.58186 0.15855 0.0
H912 H 0.77563 0.69746 0.15967 0.0
H913 H 0.72285 0.65939 0.24249 0.0
H914 H 0.77797 0.63701 0.10551 0.0
H915 H 0.74526 0.65622 0.09119 0.0
H916 H 0.77781 0.67716 0.10393 0.0
H917 H 0.69458 0.61575 0.23524 0.0
H918 H 0.68153 0.60956 0.19144 0.0
H919 H 0.71314 0.58941 0.20708 0.0
H920 H 0.67924 0.58911 0.0687 0.0
H921 H 0.75733 0.54444 0.10679 0.0
H922 H 0.69078 0.65632 0.10414 0.0
H923 H 0.67161 0.64016 0.14057 0.0
H924 H 0.65949 0.63183 0.09685 0.0
H925 H 0.78814 0.59963 0.15231 0.0
H926 H 0.78307 0.55994 0.1564 0.0
H927 H 0.76444 0.58507 0.18596 0.0
C928 C 0.36332 0.7286 0.2029 0.0
C929 C 0.36871 0.7255 0.23869 0.0
C930 C 0.38671 0.72975 0.17878 0.0
C931 C 0.41648 0.72767 0.19062 0.0
C932 C 0.42216 0.7226 0.22649 0.0
C933 C 0.39805 0.72151 0.2503 0.0
C934 C 0.37945 0.73488 0.14079 0.0
C935 C 0.45363 0.71979 0.23989 0.0
C936 C 0.46876 0.71931 0.11353 0.0
C937 C 0.4749 0.7493 0.10576 0.0
C938 C 0.45199 0.71146 0.14325 0.0
C939 C 0.44101 0.73415 0.16545 0.0
C940 C 0.44906 0.76421 0.15909 0.0
C941 C 0.4659 0.7714 0.12937 0.0
C942 C 0.44423 0.67912 0.14943 0.0
C943 C 0.43784 0.78913 0.18208 0.0
H944 H 0.34058 0.73089 0.19366 0.0
H945 H 0.40222 0.71883 0.27792 0.0
H946 H 0.38798 0.75705 0.13246 0.0
H947 H 0.39055 0.71788 0.1243 0.0
H948 H 0.35505 0.73408 0.1357 0.0
H949 H 0.45414 0.71061 0.26679 0.0
H950 H 0.46719 0.70528 0.2226 0.0
H951 H 0.46435 0.7421 0.24008 0.0
H952 H 0.47603 0.70203 0.09573 0.0
H953 H 0.47099 0.7946 0.12397 0.0
H954 H 0.4209 0.67497 0.14108 0.0
H955 H 0.44563 0.67348 0.17753 0.0
H956 H 0.45917 0.66398 0.13454 0.0
H957 H 0.41352 0.79221 0.17789 0.0
H958 H 0.44929 0.81061 0.17642 0.0
H959 H 0.44107 0.78353 0.20996 0.0
C960 C 0.20694 0.3197 0.14409 0.0
C961 C 0.21628 0.32422 0.17854 0.0
C962 C 0.20593 0.34337 0.12009 0.0
C963 C 0.21402 0.37243 0.13085 0.0
C964 C 0.22223 0.37739 0.16597 0.0
C965 C 0.2235 0.3532 0.18931 0.0
C966 C 0.19747 0.33701 0.0828 0.0
C967 C 0.23061 0.4081 0.17863 0.0
C968 C 0.24614 0.42601 0.06352 0.0
C969 C 0.22153 0.44419 0.05586 0.0
C970 C 0.24381 0.40243 0.08746 0.0
C971 C 0.21629 0.39709 0.10475 0.0
C972 C 0.19127 0.41526 0.09709 0.0
C973 C 0.19411 0.43846 0.07246 0.0
C974 C 0.2709 0.38329 0.09433 0.0
C975 C 0.16168 0.41052 0.11535 0.0
H976 H 0.2014 0.29739 0.13545 0.0
H977 H 0.23055 0.35695 0.21591 0.0
H978 H 0.17941 0.35224 0.07431 0.0
H979 H 0.21701 0.34111 0.06551 0.0
H980 H 0.1899 0.31364 0.07912 0.0
H981 H 0.23369 0.40876 0.20731 0.0
H982 H 0.25173 0.41534 0.1659 0.0
H983 H 0.21312 0.42446 0.17137 0.0
H984 H 0.26737 0.43016 0.05063 0.0
H985 H 0.17507 0.45254 0.06685 0.0
H986 H 0.26558 0.35954 0.08923 0.0
H987 H 0.27738 0.38505 0.1221 0.0
H988 H 0.29038 0.3898 0.07791 0.0
H989 H 0.15358 0.38749 0.11083 0.0
H990 H 0.14435 0.42644 0.10636 0.0
H991 H 0.16452 0.41316 0.14388 0.0
C992 C 0.31174 0.20949 0.17847 0.0
C993 C 0.28334 0.2052 0.16392 0.0
C994 C 0.33785 0.20104 0.16069 0.0
C995 C 0.33578 0.18826 0.12712 0.0
C996 C 0.30714 0.18271 0.11277 0.0
C997 C 0.28121 0.19107 0.13146 0.0
C998 C 0.36776 0.20719 0.17725 0.0
C999 C 0.30393 0.16931 0.07699 0.0
C1000 C 0.40246 0.20758 0.07 0.0
C1001 C 0.4201 0.18174 0.07193 0.0
C1002 C 0.37446 0.20929 0.08637 0.0
C1003 C 0.36359 0.18463 0.10569 0.0
C1004 C 0.38075 0.15803 0.10693 0.0
C1005 C 0.40878 0.15681 0.08981 0.0
C1006 C 0.35699 0.23803 0.08396 0.0
C1007 C 0.37002 0.1313 0.1274 0.0
H1008 H 0.31368 0.21988 0.20383 0.0
H1009 H 0.25938 0.18752 0.12012 0.0
H1010 H 0.38214 0.18709 0.17605 0.0
H1011 H 0.3794 0.22521 0.16266 0.0
H1012 H 0.36553 0.21416 0.2049 0.0
H1013 H 0.28047 0.16293 0.07134 0.0
H1014 H 0.31141 0.18572 0.05707 0.0
H1015 H 0.31835 0.14934 0.0743 0.0
H1016 H 0.41065 0.22684 0.05572 0.0
H1017 H 0.42215 0.13672 0.09128 0.0
H1018 H 0.35561 0.24856 0.11005 0.0
H1019 H 0.33381 0.23351 0.07536 0.0
H1020 H 0.36737 0.25423 0.06557 0.0
H1021 H 0.37022 0.13657 0.15562 0.0
H1022 H 0.38425 0.11139 0.12287 0.0
H1023 H 0.34664 0.1258 0.12041 0.0
C1024 C 0.73666 0.37201 0.23115 0.0
C1025 C 0.74868 0.3433 0.22758 0.0
C1026 C 0.74102 0.39377 0.20495 0.0
C1027 C 0.75741 0.38651 0.17434 0.0
C1028 C 0.77045 0.35795 0.1713 0.0
C1029 C 0.76612 0.33691 0.19791 0.0
C1030 C 0.72717 0.42417 0.20942 0.0
C1031 C 0.78767 0.34897 0.13901 0.0
C1032 C 0.73657 0.42476 0.08947 0.0
C1033 C 0.76045 0.44458 0.08415 0.0
C1034 C 0.73535 0.40598 0.1187 0.0
C1035 C 0.75833 0.40732 0.14384 0.0
C1036 C 0.78263 0.42723 0.13865 0.0
C1037 C 0.78357 0.44545 0.10863 0.0
C1038 C 0.70943 0.38458 0.12257 0.0
C1039 C 0.80735 0.42957 0.16505 0.0
H1040 H 0.72333 0.37728 0.25396 0.0
H1041 H 0.77573 0.31491 0.19474 0.0
H1042 H 0.74383 0.44186 0.20354 0.0
H1043 H 0.70853 0.42687 0.19076 0.0
H1044 H 0.71834 0.42758 0.23622 0.0
H1045 H 0.79825 0.3267 0.14175 0.0
H1046 H 0.77235 0.34835 0.11638 0.0
H1047 H 0.80534 0.36557 0.13299 0.0
H1048 H 0.71864 0.42396 0.07061 0.0
H1049 H 0.80182 0.46107 0.10491 0.0
H1050 H 0.6972 0.38904 0.14723 0.0
H1051 H 0.71782 0.36134 0.12392 0.0
H1052 H 0.69343 0.38626 0.10063 0.0
H1053 H 0.79784 0.43543 0.19091 0.0
H1054 H 0.82429 0.44661 0.15766 0.0
H1055 H 0.81868 0.40774 0.16794 0.0
C1056 C 0.72373 0.81036 0.13958 0.0
C1057 C 0.71958 0.80278 0.17474 0.0
C1058 C 0.69908 0.81725 0.11831 0.0
C1059 C 0.6698 0.81655 0.13267 0.0
C1060 C 0.66588 0.81111 0.16872 0.0
C1061 C 0.69075 0.80431 0.18922 0.0
C1062 C 0.7042 0.82327 0.08006 0.0
C1063 C 0.63517 0.81014 0.18525 0.0
C1064 C 0.59946 0.84148 0.08491 0.0
C1065 C 0.58824 0.81404 0.07328 0.0
C1066 C 0.62678 0.84303 0.10297 0.0
C1067 C 0.64305 0.81653 0.10967 0.0
C1068 C 0.63216 0.78898 0.09713 0.0
C1069 C 0.60507 0.78811 0.07914 0.0
C1070 C 0.63783 0.87284 0.11569 0.0
C1071 C 0.64858 0.7601 0.10381 0.0
H1072 H 0.74595 0.8094 0.12826 0.0
H1073 H 0.68737 0.79905 0.21655 0.0
H1074 H 0.69752 0.80339 0.06482 0.0
H1075 H 0.69029 0.84223 0.07113 0.0
H1076 H 0.72803 0.82825 0.0742 0.0
H1077 H 0.63619 0.8092 0.21415 0.0
H1078 H 0.62194 0.82994 0.17755 0.0
H1079 H 0.62304 0.79011 0.17597 0.0
H1080 H 0.58678 0.86166 0.08026 0.0
H1081 H 0.59686 0.76676 0.07011 0.0
H1082 H 0.66165 0.87603 0.10841 0.0
H1083 H 0.63639 0.87359 0.14453 0.0
H1084 H 0.62459 0.89164 0.10494 0.0
H1085 H 0.67206 0.76189 0.09466 0.0
H1086 H 0.63798 0.74081 0.09062 0.0
H1087 H 0.64908 0.75548 0.13222 0.0
C1088 C 0.26227 0.65694 0.21123 0.0
C1089 C 0.25913 0.68719 0.20252 0.0
C1090 C 0.26223 0.63474 0.18554 0.0
C1091 C 0.25921 0.6429 0.1501 0.0
C1092 C 0.25507 0.6733 0.14116 0.0
C1093 C 0.25494 0.6951 0.16751 0.0
C1094 C 0.26625 0.60258 0.1963 0.0
C1095 C 0.2518 0.68291 0.10365 0.0
C1096 C 0.28971 0.58834 0.08264 0.0
C1097 C 0.26359 0.57394 0.07164 0.0
C1098 C 0.28858 0.61111 0.1078 0.0
C1099 C 0.2607 0.61954 0.1225 0.0
C1100 C 0.23433 0.60496 0.11164 0.0
C1101 C 0.23608 0.58246 0.08636 0.0
C1102 C 0.31721 0.62619 0.11866 0.0
C1103 C 0.20421 0.61304 0.12683 0.0
H1104 H 0.26545 0.65059 0.23823 0.0
H1105 H 0.25282 0.71842 0.16051 0.0
H1106 H 0.2477 0.58879 0.18603 0.0
H1107 H 0.28732 0.59375 0.185 0.0
H1108 H 0.26701 0.59981 0.22505 0.0
H1109 H 0.24754 0.70721 0.10111 0.0
H1110 H 0.27247 0.67739 0.08895 0.0
H1111 H 0.23317 0.67061 0.09127 0.0
H1112 H 0.31102 0.58207 0.07131 0.0
H1113 H 0.21572 0.5715 0.07813 0.0
H1114 H 0.32088 0.62277 0.14695 0.0
H1115 H 0.31556 0.65058 0.11417 0.0
H1116 H 0.33696 0.61759 0.10421 0.0
H1117 H 0.20422 0.60929 0.15542 0.0
H1118 H 0.18576 0.59982 0.11531 0.0
H1119 H 0.19962 0.63705 0.12245 0.0
C1120 C 0.33885 0.8095 0.84664 0.0
C1121 C 0.30931 0.81441 0.85771 0.0
C1122 C 0.36292 0.81181 0.86975 0.0
C1123 C 0.3575 0.81879 0.90518 0.0
C1124 C 0.32781 0.82458 0.91643 0.0
C1125 C 0.30406 0.82255 0.89249 0.0
C1126 C 0.39416 0.80587 0.85637 0.0
C1127 C 0.32101 0.83176 0.95402 0.0
C1128 C 0.41725 0.78859 0.96586 0.0
C1129 C 0.43522 0.81376 0.97159 0.0
C1130 C 0.39114 0.79032 0.94581 0.0
C1131 C 0.38282 0.81784 0.93052 0.0
C1132 C 0.40035 0.84358 0.93704 0.0
C1133 C 0.42622 0.84128 0.95771 0.0
C1134 C 0.37301 0.76238 0.93998 0.0
C1135 C 0.39251 0.87327 0.92096 0.0
H1136 H 0.34321 0.80352 0.81974 0.0
H1137 H 0.28132 0.8263 0.90128 0.0
H1138 H 0.40926 0.82449 0.86348 0.0
H1139 H 0.40306 0.78534 0.86869 0.0
H1140 H 0.39487 0.803 0.82763 0.0
H1141 H 0.29722 0.83793 0.95813 0.0
H1142 H 0.32614 0.81211 0.97055 0.0
H1143 H 0.33534 0.85037 0.96304 0.0
H1144 H 0.42379 0.76727 0.97677 0.0
H1145 H 0.43994 0.86085 0.96195 0.0
H1146 H 0.37453 0.75577 0.91219 0.0
H1147 H 0.34909 0.76653 0.94597 0.0
H1148 H 0.38083 0.74344 0.95624 0.0
H1149 H 0.39538 0.87203 0.89227 0.0
H1150 H 0.40674 0.89163 0.93095 0.0
H1151 H 0.36875 0.87876 0.92619 0.0
C1152 C 0.30661 0.38529 0.76956 0.0
C1153 C 0.29267 0.35788 0.7767 0.0
C1154 C 0.30697 0.40822 0.79468 0.0
C1155 C 0.29343 0.40344 0.82775 0.0
C1156 C 0.27955 0.37576 0.83503 0.0
C1157 C 0.27917 0.35356 0.80949 0.0
C1158 C 0.32167 0.43759 0.78585 0.0
C1159 C 0.26495 0.36952 0.86993 0.0
C1160 C 0.30991 0.4484 0.90952 0.0
C1161 C 0.28363 0.46514 0.91281 0.0
C1162 C 0.31434 0.42934 0.8808 0.0
C1163 C 0.29219 0.42746 0.85458 0.0
C1164 C 0.26656 0.44582 0.85681 0.0
C1165 C 0.26249 0.46417 0.88597 0.0
C1166 C 0.34182 0.40991 0.87963 0.0
C1167 C 0.24256 0.44488 0.82934 0.0
H1168 H 0.31723 0.3888 0.74443 0.0
H1169 H 0.26852 0.33246 0.8156 0.0
H1170 H 0.30503 0.45584 0.78768 0.0
H1171 H 0.33951 0.44254 0.80493 0.0
H1172 H 0.33157 0.43769 0.75924 0.0
H1173 H 0.25624 0.34637 0.87196 0.0
H1174 H 0.28121 0.37314 0.89122 0.0
H1175 H 0.24611 0.38516 0.87421 0.0
H1176 H 0.32636 0.44914 0.93011 0.0
H1177 H 0.24234 0.47746 0.88802 0.0
H1178 H 0.35238 0.41079 0.85344 0.0
H1179 H 0.33532 0.3864 0.88465 0.0
H1180 H 0.35857 0.41661 0.89937 0.0
H1181 H 0.25261 0.44629 0.8029 0.0
H1182 H 0.22616 0.46327 0.83241 0.0
H1183 H 0.23037 0.42337 0.83112 0.0
C1184 C 0.67023 0.19379 0.84234 0.0
C1185 C 0.69947 0.19432 0.85539 0.0
C1186 C 0.64588 0.18561 0.86345 0.0
C1187 C 0.6507 0.17784 0.89873 0.0
C1188 C 0.68036 0.17638 0.9115 0.0
C1189 C 0.70445 0.18459 0.88963 0.0
C1190 C 0.61476 0.18746 0.84858 0.0
C1191 C 0.6865 0.16807 0.94888 0.0
C1192 C 0.58804 0.2032 0.95825 0.0
C1193 C 0.57131 0.177 0.96349 0.0
C1194 C 0.61436 0.20333 0.93841 0.0
C1195 C 0.6246 0.17654 0.92314 0.0
C1196 C 0.60847 0.14971 0.92906 0.0
C1197 C 0.58194 0.15023 0.94922 0.0
C1198 C 0.63068 0.23252 0.93288 0.0
C1199 C 0.6188 0.12069 0.91336 0.0
H1200 H 0.66614 0.20074 0.81571 0.0
H1201 H 0.72697 0.18473 0.89987 0.0
H1202 H 0.60165 0.16728 0.8555 0.0
H1203 H 0.60299 0.20696 0.8599 0.0
H1204 H 0.61502 0.18993 0.81977 0.0
H1205 H 0.71048 0.16295 0.95317 0.0
H1206 H 0.68014 0.1869 0.96607 0.0
H1207 H 0.67289 0.1485 0.95686 0.0
H1208 H 0.58043 0.22403 0.96942 0.0
H1209 H 0.56934 0.12986 0.95328 0.0
H1210 H 0.63024 0.23867 0.90486 0.0
H1211 H 0.65444 0.23026 0.94047 0.0
H1212 H 0.62064 0.25106 0.94807 0.0
H1213 H 0.61644 0.12166 0.88462 0.0
H1214 H 0.60575 0.10136 0.92334 0.0
H1215 H 0.6428 0.117 0.91898 0.0
C1216 C 0.77014 0.67284 0.82032 0.0
C1217 C 0.75322 0.66731 0.79023 0.0
C1218 C 0.77362 0.65115 0.84635 0.0
C1219 C 0.76023 0.62282 0.84228 0.0
C1220 C 0.7444 0.61644 0.81121 0.0
C1221 C 0.7409 0.63882 0.78563 0.0
C1222 C 0.7903 0.65921 0.87914 0.0
C1223 C 0.7302 0.58633 0.80562 0.0
C1224 C 0.78439 0.56231 0.90667 0.0
C1225 C 0.76092 0.56302 0.93103 0.0
C1226 C 0.78416 0.58103 0.87706 0.0
C1227 C 0.76024 0.60132 0.87214 0.0
C1228 C 0.73681 0.60239 0.89706 0.0
C1229 C 0.73732 0.58311 0.92589 0.0
C1230 C 0.80934 0.57894 0.85087 0.0
C1231 C 0.71124 0.62412 0.89347 0.0
H1232 H 0.77996 0.69466 0.82429 0.0
H1233 H 0.72794 0.63422 0.76249 0.0
H1234 H 0.77454 0.6595 0.90156 0.0
H1235 H 0.80762 0.64227 0.88488 0.0
H1236 H 0.80125 0.6814 0.87722 0.0
H1237 H 0.72191 0.58361 0.77859 0.0
H1238 H 0.74644 0.56831 0.81127 0.0
H1239 H 0.71109 0.58349 0.82388 0.0
H1240 H 0.80246 0.54655 0.91023 0.0
H1241 H 0.71913 0.58387 0.94464 0.0
H1242 H 0.82123 0.6006 0.84906 0.0
H1243 H 0.80022 0.5741 0.82466 0.0
H1244 H 0.82572 0.56134 0.85776 0.0
H1245 H 0.71994 0.6473 0.89307 0.0
H1246 H 0.69472 0.62207 0.91506 0.0
H1247 H 0.69954 0.62042 0.86845 0.0
loop_
_geom_bond_atom_site_label_1
_geom_bond_atom_site_label_2
_geom_bond_distance
_geom_bond_site_symmetry_2
_ccdc_geom_bond_type
C0 O2 1.247 . S
C0 O4 1.258 . S
C1 O8 1.247 . S
C1 O9 1.258 . S
O2 C0 1.247 . S
O2 Zn3 2.028 . S
Zn3 O2 2.028 . S
Zn3 O7 2.035 . S
Zn3 O9 2.035 . S
Zn3 O10 2.028 . S
O4 C0 1.258 . S
O4 Zn5 2.035 . S
Zn5 O4 2.035 . S
Zn5 O6 2.028 . S
Zn5 O8 2.028 . S
Zn5 O11 2.035 . S
O6 Zn5 2.028 . S
O6 C12 1.247 . S
O7 Zn3 2.035 . S
O7 C12 1.258 . S
O8 C1 1.247 . S
O8 Zn5 2.028 . S
O9 C1 1.258 . S
O9 Zn3 2.035 . S
O10 Zn3 2.028 . S
O10 C13 1.247 . S
O11 Zn5 2.035 . S
O11 C13 1.258 . S
C12 O6 1.247 . S
C12 O7 1.258 . S
C13 O10 1.247 . S
C13 O11 1.258 . S
C14 O16 1.247 . S
C14 O18 1.258 . S
C15 O22 1.247 . S
C15 O23 1.258 . S
O16 C14 1.247 . S
O16 Zn17 2.028 . S
Zn17 O16 2.028 . S
Zn17 O21 2.035 . S
Zn17 O23 2.035 . S
Zn17 O24 2.028 . S
O18 C14 1.258 . S
O18 Zn19 2.035 . S
Zn19 O18 2.035 . S
Zn19 O20 2.028 . S
Zn19 O22 2.028 . S
Zn19 O25 2.035 . S
O20 Zn19 2.028 . S
O20 C26 1.247 . S
O21 Zn17 2.035 . S
O21 C26 1.258 . S
O22 C15 1.247 . S
O22 Zn19 2.028 . S
O23 C15 1.258 . S
O23 Zn17 2.035 . S
O24 Zn17 2.028 . S
O24 C27 1.247 . S
O25 Zn19 2.035 . S
O25 C27 1.258 . S
C26 O20 1.247 . S
C26 O21 1.258 . S
C27 O24 1.247 . S
C27 O25 1.258 . S
C28 O30 1.247 . S
C28 O32 1.258 . S
C29 O36 1.247 . S
C29 O37 1.258 . S
O30 C28 1.247 . S
O30 Zn31 2.028 . S
Zn31 O30 2.028 . S
Zn31 O35 2.035 . S
Zn31 O37 2.035 . S
Zn31 O38 2.028 . S
O32 C28 1.258 . S
O32 Zn33 2.035 . S
Zn33 O32 2.035 . S
Zn33 O34 2.028 . S
Zn33 O36 2.028 . S
Zn33 O39 2.035 . S
O34 Zn33 2.028 . S
O34 C40 1.247 . S
O35 Zn31 2.035 . S
O35 C40 1.258 . S
O36 C29 1.247 . S
O36 Zn33 2.028 . S
O37 C29 1.258 . S
O37 Zn31 2.035 . S
O38 Zn31 2.028 . S
O38 C41 1.247 . S
O39 Zn33 2.035 . S
O39 C41 1.258 . S
C40 O34 1.247 . S
C40 O35 1.258 . S
C41 O38 1.247 . S
C41 O39 1.258 . S
C42 O44 1.247 . S
C42 O46 1.258 . S
C43 O50 1.247 . S
C43 O51 1.258 . S
O44 C42 1.247 . S
O44 Zn45 2.028 . S
Zn45 O44 2.028 . S
Zn45 O49 2.035 . S
Zn45 O51 2.035 . S
Zn45 O52 2.028 . S
O46 C42 1.258 . S
O46 Zn47 2.035 . S
Zn47 O46 2.035 . S
Zn47 O48 2.028 . S
Zn47 O50 2.028 . S
Zn47 O53 2.035 . S
O48 Zn47 2.028 . S
O48 C54 1.247 . S
O49 Zn45 2.035 . S
O49 C54 1.258 . S
O50 C43 1.247 . S
O50 Zn47 2.028 . S
O51 C43 1.258 . S
O51 Zn45 2.035 . S
O52 Zn45 2.028 . S
O52 C55 1.247 . S
O53 Zn47 2.035 . S
O53 C55 1.258 . S
C54 O48 1.247 . S
C54 O49 1.258 . S
C55 O52 1.247 . S
C55 O53 1.258 . S
C56 O58 1.247 . S
C56 O60 1.258 . S
C57 O64 1.247 . S
C57 O65 1.258 . S
O58 C56 1.247 . S
O58 Zn59 2.028 . S
Zn59 O58 2.028 . S
Zn59 O63 2.035 . S
Zn59 O65 2.035 . S
Zn59 O66 2.028 . S
O60 C56 1.258 . S
O60 Zn61 2.035 . S
Zn61 O60 2.035 . S
Zn61 O62 2.028 . S
Zn61 O64 2.028 . S
Zn61 O67 2.035 . S
O62 Zn61 2.028 . S
O62 C68 1.247 . S
O63 Zn59 2.035 . S
O63 C68 1.258 . S
O64 C57 1.247 . S
O64 Zn61 2.028 . S
O65 C57 1.258 . S
O65 Zn59 2.035 . S
O66 Zn59 2.028 . S
O66 C69 1.247 . S
O67 Zn61 2.035 . S
O67 C69 1.258 . S
C68 O62 1.247 . S
C68 O63 1.258 . S
C69 O66 1.247 . S
C69 O67 1.258 . S
C70 O72 1.247 . S
C70 O74 1.258 . S
C71 O78 1.247 . S
C71 O79 1.258 . S
O72 C70 1.247 . S
O72 Zn73 2.028 . S
Zn73 O72 2.028 . S
Zn73 O77 2.035 . S
Zn73 O79 2.035 . S
Zn73 O80 2.028 . S
O74 C70 1.258 . S
O74 Zn75 2.035 . S
Zn75 O74 2.035 . S
Zn75 O76 2.028 . S
Zn75 O78 2.028 . S
Zn75 O81 2.035 . S
O76 Zn75 2.028 . S
O76 C82 1.247 . S
O77 Zn73 2.035 . S
O77 C82 1.258 . S
O78 C71 1.247 . S
O78 Zn75 2.028 . S
O79 C71 1.258 . S
O79 Zn73 2.035 . S
O80 Zn73 2.028 . S
O80 C83 1.247 . S
O81 Zn75 2.035 . S
O81 C83 1.258 . S
C82 O76 1.247 . S
C82 O77 1.258 . S
C83 O80 1.247 . S
C83 O81 1.258 . S
C84 O86 1.247 . S
C84 O88 1.258 . S
C85 O92 1.247 . S
C85 O93 1.258 . S
O86 C84 1.247 . S
O86 Zn87 2.028 . S
Zn87 O86 2.028 . S
Zn87 O91 2.035 . S
Zn87 O93 2.035 . S
Zn87 O94 2.028 . S
O88 C84 1.258 . S
O88 Zn89 2.035 . S
Zn89 O88 2.035 . S
Zn89 O90 2.028 . S
Zn89 O92 2.028 . S
Zn89 O95 2.035 . S
O90 Zn89 2.028 . S
O90 C96 1.247 . S
O91 Zn87 2.035 . S
O91 C96 1.258 . S
O92 C85 1.247 . S
O92 Zn89 2.028 . S
O93 C85 1.258 . S
O93 Zn87 2.035 . S
O94 Zn87 2.028 . S
O94 C97 1.247 . S
O95 Zn89 2.035 . S
O95 C97 1.258 . S
C96 O90 1.247 . S
C96 O91 1.258 . S
C97 O94 1.247 . S
C97 O95 1.258 . S
C98 O100 1.247 . S
C98 O102 1.258 . S
C99 O106 1.247 . S
C99 O107 1.258 . S
O100 C98 1.247 . S
O100 Zn101 2.028 . S
Zn101 O100 2.028 . S
Zn101 O105 2.035 . S
Zn101 O107 2.035 . S
Zn101 O108 2.028 . S
O102 C98 1.258 . S
O102 Zn103 2.035 . S
Zn103 O102 2.035 . S
Zn103 O104 2.028 . S
Zn103 O106 2.028 . S
Zn103 O109 2.035 . S
O104 Zn103 2.028 . S
O104 C110 1.247 . S
O105 Zn101 2.035 . S
O105 C110 1.258 . S
O106 C99 1.247 . S
O106 Zn103 2.028 . S
O107 C99 1.258 . S
O107 Zn101 2.035 . S
O108 Zn101 2.028 . S
O108 C111 1.247 . S
O109 Zn103 2.035 . S
O109 C111 1.258 . S
C110 O104 1.247 . S
C110 O105 1.258 . S
C111 O108 1.247 . S
C111 O109 1.258 . S
C112 O114 1.247 . S
C112 O116 1.258 . S
C113 O120 1.247 . S
C113 O121 1.258 . S
O114 C112 1.247 . S
O114 Zn115 2.029 . S
Zn115 O114 2.029 . S
Zn115 O119 2.034 1_655 S
Zn115 O121 2.034 1_655 S
Zn115 O122 2.029 . S
O116 C112 1.258 . S
O116 Zn117 2.028 1_655 S
Zn117 O116 2.028 1_455 S
Zn117 O118 2.035 . S
Zn117 O120 2.035 . S
Zn117 O123 2.028 1_455 S
O118 Zn117 2.035 . S
O118 C124 1.247 . S
O119 Zn115 2.034 1_455 S
O119 C124 1.258 . S
O120 C113 1.247 . S
O120 Zn117 2.035 . S
O121 C113 1.258 . S
O121 Zn115 2.034 1_455 S
O122 Zn115 2.029 . S
O122 C125 1.247 . S
O123 Zn117 2.028 1_655 S
O123 C125 1.258 . S
C124 O118 1.247 . S
C124 O119 1.258 . S
C125 O122 1.247 . S
C125 O123 1.258 . S
C126 O128 1.247 . S
C126 O130 1.258 . S
C127 O134 1.247 . S
C127 O135 1.258 . S
O128 C126 1.247 . S
O128 Zn129 2.035 . S
Zn129 O128 2.035 . S
Zn129 O133 2.028 1_545 S
Zn129 O135 2.028 1_545 S
Zn129 O136 2.035 . S
O130 C126 1.258 . S
O130 Zn131 2.034 1_545 S
Zn131 O130 2.034 1_565 S
Zn131 O132 2.029 . S
Zn131 O134 2.029 . S
Zn131 O137 2.034 1_565 S
O132 Zn131 2.029 . S
O132 C138 1.247 . S
O133 Zn129 2.028 1_565 S
O133 C138 1.258 . S
O134 C127 1.247 . S
O134 Zn131 2.029 . S
O135 C127 1.258 . S
O135 Zn129 2.028 1_565 S
O136 Zn129 2.035 . S
O136 C139 1.247 . S
O137 Zn131 2.034 1_545 S
O137 C139 1.258 . S
C138 O132 1.247 . S
C138 O133 1.258 . S
C139 O136 1.247 . S
C139 O137 1.258 . S
C140 O142 1.247 . S
C140 O144 1.258 . S
C141 O148 1.247 . S
C141 O149 1.258 . S
O142 C140 1.247 . S
O142 Zn143 2.029 . S
Zn143 O142 2.029 . S
Zn143 O147 2.034 1_655 S
Zn143 O149 2.034 1_655 S
Zn143 O150 2.029 . S
O144 C140 1.258 . S
O144 Zn145 2.028 1_655 S
Zn145 O144 2.028 1_455 S
Zn145 O146 2.035 . S
Zn145 O148 2.035 . S
Zn145 O151 2.028 1_455 S
O146 Zn145 2.035 . S
O146 C152 1.247 . S
O147 Zn143 2.034 1_455 S
O147 C152 1.258 . S
O148 C141 1.247 . S
O148 Zn145 2.035 . S
O149 C141 1.258 . S
O149 Zn143 2.034 1_455 S
O150 Zn143 2.029 . S
O150 C153 1.247 . S
O151 Zn145 2.028 1_655 S
O151 C153 1.258 . S
C152 O146 1.247 . S
C152 O147 1.258 . S
C153 O150 1.247 . S
C153 O151 1.258 . S
C154 O156 1.247 . S
C154 O158 1.258 . S
C155 O162 1.247 . S
C155 O163 1.258 . S
O156 C154 1.247 . S
O156 Zn157 2.035 . S
Zn157 O156 2.035 . S
Zn157 O161 2.028 1_545 S
Zn157 O163 2.028 1_545 S
Zn157 O164 2.035 . S
O158 C154 1.258 . S
O158 Zn159 2.034 1_545 S
Zn159 O158 2.034 1_565 S
Zn159 O160 2.029 . S
Zn159 O162 2.029 . S
Zn159 O165 2.034 1_565 S
O160 Zn159 2.029 . S
O160 C166 1.247 . S
O161 Zn157 2.028 1_565 S
O161 C166 1.258 . S
O162 C155 1.247 . S
O162 Zn159 2.029 . S
O163 C155 1.258 . S
O163 Zn157 2.028 1_565 S
O164 Zn157 2.035 . S
O164 C167 1.247 . S
O165 Zn159 2.034 1_545 S
O165 C167 1.258 . S
C166 O160 1.247 . S
C166 O161 1.258 . S
C167 O164 1.247 . S
C167 O165 1.258 . S
C168 O170 1.247 . S
C168 O172 1.258 . S
C169 O176 1.247 . S
C169 O177 1.258 . S
O170 C168 1.247 . S
O170 Zn171 2.028 . S
Zn171 O170 2.028 . S
Zn171 O175 2.035 . S
Zn171 O177 2.035 1_554 S
Zn171 O178 2.028 1_554 S
O172 C168 1.258 . S
O172 Zn173 2.035 . S
Zn173 O172 2.035 . S
Zn173 O174 2.028 . S
Zn173 O176 2.028 1_554 S
Zn173 O179 2.035 1_554 S
O174 Zn173 2.028 . S
O174 C180 1.247 . S
O175 Zn171 2.035 . S
O175 C180 1.258 . S
O176 C169 1.247 . S
O176 Zn173 2.028 1_556 S
O177 C169 1.258 . S
O177 Zn171 2.035 1_556 S
O178 Zn171 2.028 1_556 S
O178 C181 1.247 . S
O179 Zn173 2.035 1_556 S
O179 C181 1.258 . S
C180 O174 1.247 . S
C180 O175 1.258 . S
C181 O178 1.247 . S
C181 O179 1.258 . S
C182 O184 1.247 . S
C182 O186 1.258 . S
C183 O190 1.247 . S
C183 O191 1.258 . S
O184 C182 1.247 . S
O184 Zn185 2.028 . S
Zn185 O184 2.028 . S
Zn185 O189 2.035 . S
Zn185 O191 2.035 1_554 S
Zn185 O192 2.028 1_554 S
O186 C182 1.258 . S
O186 Zn187 2.035 . S
Zn187 O186 2.035 . S
Zn187 O188 2.028 . S
Zn187 O190 2.028 1_554 S
Zn187 O193 2.035 1_554 S
O188 Zn187 2.028 . S
O188 C194 1.247 . S
O189 Zn185 2.035 . S
O189 C194 1.258 . S
O190 C183 1.247 . S
O190 Zn187 2.028 1_556 S
O191 C183 1.258 . S
O191 Zn185 2.035 1_556 S
O192 Zn185 2.028 1_556 S
O192 C195 1.247 . S
O193 Zn187 2.035 1_556 S
O193 C195 1.258 . S
C194 O188 1.247 . S
C194 O189 1.258 . S
C195 O192 1.247 . S
C195 O193 1.258 . S
C196 O198 1.247 . S
C196 O200 1.258 . S
C197 O204 1.247 . S
C197 O205 1.258 . S
O198 C196 1.247 . S
O198 Zn199 2.028 1_556 S
Zn199 O198 2.028 1_554 S
Zn199 O203 2.035 1_554 S
Zn199 O205 2.035 . S
Zn199 O206 2.028 . S
O200 C196 1.258 . S
O200 Zn201 2.035 1_556 S
Zn201 O200 2.035 1_554 S
Zn201 O202 2.028 1_554 S
Zn201 O204 2.028 . S
Zn201 O207 2.035 . S
O202 Zn201 2.028 1_556 S
O202 C208 1.247 . S
O203 Zn199 2.035 1_556 S
O203 C208 1.258 . S
O204 C197 1.247 . S
O204 Zn201 2.028 . S
O205 C197 1.258 . S
O205 Zn199 2.035 . S
O206 Zn199 2.028 . S
O206 C209 1.247 . S
O207 Zn201 2.035 . S
O207 C209 1.258 . S
C208 O202 1.247 . S
C208 O203 1.258 . S
C209 O206 1.247 . S
C209 O207 1.258 . S
C210 O212 1.247 . S
C210 O214 1.258 . S
C211 O218 1.247 . S
C211 O219 1.258 . S
O212 C210 1.247 . S
O212 Zn213 2.028 . S
Zn213 O212 2.028 . S
Zn213 O217 2.035 . S
Zn213 O219 2.035 1_554 S
Zn213 O220 2.028 1_554 S
O214 C210 1.258 . S
O214 Zn215 2.035 . S
Zn215 O214 2.035 . S
Zn215 O216 2.028 . S
Zn215 O218 2.028 1_554 S
Zn215 O221 2.035 1_554 S
O216 Zn215 2.028 . S
O216 C222 1.247 . S
O217 Zn213 2.035 . S
O217 C222 1.258 . S
O218 C211 1.247 . S
O218 Zn215 2.028 1_556 S
O219 C211 1.258 . S
O219 Zn213 2.035 1_556 S
O220 Zn213 2.028 1_556 S
O220 C223 1.247 . S
O221 Zn215 2.035 1_556 S
O221 C223 1.258 . S
C222 O216 1.247 . S
C222 O217 1.258 . S
C223 O220 1.247 . S
C223 O221 1.258 . S
C224 C225 1.391 . S
C224 C226 1.394 . S
C224 H240 0.931 . S
C225 C224 1.391 . S
C225 C229 1.376 . S
C226 C224 1.394 . S
C226 C227 1.369 . S
C226 C230 1.531 . S
C227 C226 1.369 . S
C227 C228 1.410 . S
C227 C235 1.503 . S
C228 C227 1.410 . S
C228 C229 1.392 . S
C228 C231 1.511 . S
C229 C225 1.376 . S
C229 C228 1.392 . S
C229 H241 0.929 . S
C230 C226 1.531 . S
C230 H242 0.960 . S
C230 H243 0.962 . S
C230 H244 0.960 . S
C231 C228 1.511 . S
C231 H245 0.961 . S
C231 H246 0.961 . S
C231 H247 0.961 . S
C232 C233 1.370 . S
C232 C234 1.363 . S
C232 H248 0.931 . S
C233 C232 1.370 . S
C233 C237 1.408 . S
C234 C232 1.363 . S
C234 C235 1.370 . S
C234 C238 1.524 . S
C235 C227 1.503 . S
C235 C234 1.370 . S
C235 C236 1.403 . S
C236 C235 1.403 . S
C236 C237 1.404 . S
C236 C239 1.539 . S
C237 C233 1.408 . S
C237 C236 1.404 . S
C237 H249 0.930 . S
C238 C234 1.524 . S
C238 H250 0.956 . S
C238 H251 0.961 . S
C238 H252 0.961 . S
C239 C236 1.539 . S
C239 H253 0.958 . S
C239 H254 0.961 . S
C239 H255 0.960 . S
H240 C224 0.931 . S
H241 C229 0.929 . S
H242 C230 0.960 . S
H243 C230 0.962 . S
H244 C230 0.960 . S
H245 C231 0.961 . S
H246 C231 0.961 . S
H247 C231 0.961 . S
H248 C232 0.931 . S
H249 C237 0.930 . S
H250 C238 0.956 . S
H251 C238 0.961 . S
H252 C238 0.961 . S
H253 C239 0.958 . S
H254 C239 0.961 . S
H255 C239 0.960 . S
C256 C257 1.391 . S
C256 C258 1.394 . S
C256 H272 0.931 . S
C257 C256 1.391 . S
C257 C261 1.376 . S
C258 C256 1.394 . S
C258 C259 1.369 . S
C258 C262 1.531 . S
C259 C258 1.369 . S
C259 C260 1.410 . S
C259 C267 1.503 . S
C260 C259 1.410 . S
C260 C261 1.392 . S
C260 C263 1.511 . S
C261 C257 1.376 . S
C261 C260 1.392 . S
C261 H273 0.929 . S
C262 C258 1.531 . S
C262 H274 0.960 . S
C262 H275 0.962 . S
C262 H276 0.960 . S
C263 C260 1.511 . S
C263 H277 0.961 . S
C263 H278 0.961 . S
C263 H279 0.961 . S
C264 C265 1.370 . S
C264 C266 1.363 . S
C264 H280 0.931 . S
C265 C264 1.370 . S
C265 C269 1.408 . S
C266 C264 1.363 . S
C266 C267 1.370 . S
C266 C270 1.524 . S
C267 C259 1.503 . S
C267 C266 1.370 . S
C267 C268 1.403 . S
C268 C267 1.403 . S
C268 C269 1.404 . S
C268 C271 1.539 . S
C269 C265 1.408 . S
C269 C268 1.404 . S
C269 H281 0.930 . S
C270 C266 1.524 . S
C270 H282 0.956 . S
C270 H283 0.961 . S
C270 H284 0.961 . S
C271 C268 1.539 . S
C271 H285 0.958 . S
C271 H286 0.961 . S
C271 H287 0.960 . S
H272 C256 0.931 . S
H273 C261 0.929 . S
H274 C262 0.960 . S
H275 C262 0.962 . S
H276 C262 0.960 . S
H277 C263 0.961 . S
H278 C263 0.961 . S
H279 C263 0.961 . S
H280 C264 0.931 . S
H281 C269 0.930 . S
H282 C270 0.956 . S
H283 C270 0.961 . S
H284 C270 0.961 . S
H285 C271 0.958 . S
H286 C271 0.961 . S
H287 C271 0.960 . S
C288 C289 1.391 . S
C288 C290 1.394 . S
C288 H304 0.931 . S
C289 C288 1.391 . S
C289 C293 1.376 . S
C290 C288 1.394 . S
C290 C291 1.369 . S
C290 C294 1.531 . S
C291 C290 1.369 . S
C291 C292 1.410 . S
C291 C299 1.503 . S
C292 C291 1.410 . S
C292 C293 1.392 . S
C292 C295 1.511 . S
C293 C289 1.376 . S
C293 C292 1.392 . S
C293 H305 0.929 . S
C294 C290 1.531 . S
C294 H306 0.960 . S
C294 H307 0.962 . S
C294 H308 0.960 . S
C295 C292 1.511 . S
C295 H309 0.961 . S
C295 H310 0.961 . S
C295 H311 0.961 . S
C296 C297 1.370 . S
C296 C298 1.363 . S
C296 H312 0.931 . S
C297 C296 1.370 . S
C297 C301 1.408 . S
C298 C296 1.363 . S
C298 C299 1.370 . S
C298 C302 1.524 . S
C299 C291 1.503 . S
C299 C298 1.370 . S
C299 C300 1.403 . S
C300 C299 1.403 . S
C300 C301 1.404 . S
C300 C303 1.539 . S
C301 C297 1.408 . S
C301 C300 1.404 . S
C301 H313 0.930 . S
C302 C298 1.524 . S
C302 H314 0.956 . S
C302 H315 0.961 . S
C302 H316 0.961 . S
C303 C300 1.539 . S
C303 H317 0.958 . S
C303 H318 0.961 . S
C303 H319 0.960 . S
H304 C288 0.931 . S
H305 C293 0.929 . S
H306 C294 0.960 . S
H307 C294 0.962 . S
H308 C294 0.960 . S
H309 C295 0.961 . S
H310 C295 0.961 . S
H311 C295 0.961 . S
H312 C296 0.931 . S
H313 C301 0.930 . S
H314 C302 0.956 . S
H315 C302 0.961 . S
H316 C302 0.961 . S
H317 C303 0.958 . S
H318 C303 0.961 . S
H319 C303 0.960 . S
C320 C321 1.391 . S
C320 C322 1.394 . S
C320 H336 0.931 . S
C321 C320 1.391 . S
C321 C325 1.376 . S
C322 C320 1.394 . S
C322 C323 1.369 . S
C322 C326 1.531 . S
C323 C322 1.369 . S
C323 C324 1.410 . S
C323 C331 1.503 . S
C324 C323 1.410 . S
C324 C325 1.392 . S
C324 C327 1.511 . S
C325 C321 1.376 . S
C325 C324 1.392 . S
C325 H337 0.929 . S
C326 C322 1.531 . S
C326 H338 0.960 . S
C326 H339 0.962 . S
C326 H340 0.960 . S
C327 C324 1.511 . S
C327 H341 0.961 . S
C327 H342 0.961 . S
C327 H343 0.961 . S
C328 C329 1.370 . S
C328 C330 1.363 . S
C328 H344 0.931 . S
C329 C328 1.370 . S
C329 C333 1.408 . S
C330 C328 1.363 . S
C330 C331 1.370 . S
C330 C334 1.524 . S
C331 C323 1.503 . S
C331 C330 1.370 . S
C331 C332 1.403 . S
C332 C331 1.403 . S
C332 C333 1.404 . S
C332 C335 1.539 . S
C333 C329 1.408 . S
C333 C332 1.404 . S
C333 H345 0.930 . S
C334 C330 1.524 . S
C334 H346 0.956 . S
C334 H347 0.961 . S
C334 H348 0.961 . S
C335 C332 1.539 . S
C335 H349 0.958 . S
C335 H350 0.961 . S
C335 H351 0.960 . S
H336 C320 0.931 . S
H337 C325 0.929 . S
H338 C326 0.960 . S
H339 C326 0.962 . S
H340 C326 0.960 . S
H341 C327 0.961 . S
H342 C327 0.961 . S
H343 C327 0.961 . S
H344 C328 0.931 . S
H345 C333 0.930 . S
H346 C334 0.956 . S
H347 C334 0.961 . S
H348 C334 0.961 . S
H349 C335 0.958 . S
H350 C335 0.961 . S
H351 C335 0.960 . S
C352 C353 1.391 . S
C352 C354 1.394 . S
C352 H368 0.931 . S
C353 C352 1.391 . S
C353 C357 1.376 . S
C354 C352 1.394 . S
C354 C355 1.369 . S
C354 C358 1.531 . S
C355 C354 1.369 . S
C355 C356 1.410 . S
C355 C363 1.503 . S
C356 C355 1.410 . S
C356 C357 1.392 . S
C356 C359 1.511 . S
C357 C353 1.376 . S
C357 C356 1.392 . S
C357 H369 0.929 . S
C358 C354 1.531 . S
C358 H370 0.960 . S
C358 H371 0.962 . S
C358 H372 0.960 . S
C359 C356 1.511 . S
C359 H373 0.961 . S
C359 H374 0.961 . S
C359 H375 0.961 . S
C360 C361 1.370 . S
C360 C362 1.363 . S
C360 H376 0.931 . S
C361 C360 1.370 . S
C361 C365 1.408 . S
C362 C360 1.363 . S
C362 C363 1.370 . S
C362 C366 1.524 . S
C363 C355 1.503 . S
C363 C362 1.370 . S
C363 C364 1.403 . S
C364 C363 1.403 . S
C364 C365 1.404 . S
C364 C367 1.539 . S
C365 C361 1.408 . S
C365 C364 1.404 . S
C365 H377 0.930 . S
C366 C362 1.524 . S
C366 H378 0.956 . S
C366 H379 0.961 . S
C366 H380 0.961 . S
C367 C364 1.539 . S
C367 H381 0.958 . S
C367 H382 0.961 . S
C367 H383 0.960 . S
H368 C352 0.931 . S
H369 C357 0.929 . S
H370 C358 0.960 . S
H371 C358 0.962 . S
H372 C358 0.960 . S
H373 C359 0.961 . S
H374 C359 0.961 . S
H375 C359 0.961 . S
H376 C360 0.931 . S
H377 C365 0.930 . S
H378 C366 0.956 . S
H379 C366 0.961 . S
H380 C366 0.961 . S
H381 C367 0.958 . S
H382 C367 0.961 . S
H383 C367 0.960 . S
C384 C385 1.391 . S
C384 C386 1.394 . S
C384 H400 0.931 . S
C385 C384 1.391 . S
C385 C389 1.376 . S
C386 C384 1.394 . S
C386 C387 1.369 . S
C386 C390 1.531 . S
C387 C386 1.369 . S
C387 C388 1.410 . S
C387 C395 1.503 . S
C388 C387 1.410 . S
C388 C389 1.392 . S
C388 C391 1.511 . S
C389 C385 1.376 . S
C389 C388 1.392 . S
C389 H401 0.929 . S
C390 C386 1.531 . S
C390 H402 0.960 . S
C390 H403 0.962 . S
C390 H404 0.960 . S
C391 C388 1.511 . S
C391 H405 0.961 . S
C391 H406 0.961 . S
C391 H407 0.961 . S
C392 C393 1.370 . S
C392 C394 1.363 . S
C392 H408 0.931 . S
C393 C392 1.370 . S
C393 C397 1.408 . S
C394 C392 1.363 . S
C394 C395 1.370 . S
C394 C398 1.524 . S
C395 C387 1.503 . S
C395 C394 1.370 . S
C395 C396 1.403 . S
C396 C395 1.403 . S
C396 C397 1.404 . S
C396 C399 1.539 . S
C397 C393 1.408 . S
C397 C396 1.404 . S
C397 H409 0.930 . S
C398 C394 1.524 . S
C398 H410 0.956 . S
C398 H411 0.961 . S
C398 H412 0.961 . S
C399 C396 1.539 . S
C399 H413 0.958 . S
C399 H414 0.961 . S
C399 H415 0.960 . S
H400 C384 0.931 . S
H401 C389 0.929 . S
H402 C390 0.960 . S
H403 C390 0.962 . S
H404 C390 0.960 . S
H405 C391 0.961 . S
H406 C391 0.961 . S
H407 C391 0.961 . S
H408 C392 0.931 . S
H409 C397 0.930 . S
H410 C398 0.956 . S
H411 C398 0.961 . S
H412 C398 0.961 . S
H413 C399 0.958 . S
H414 C399 0.961 . S
H415 C399 0.960 . S
C416 C417 1.391 . S
C416 C418 1.394 . S
C416 H432 0.931 . S
C417 C416 1.391 . S
C417 C421 1.376 . S
C418 C416 1.394 . S
C418 C419 1.369 . S
C418 C422 1.531 . S
C419 C418 1.369 . S
C419 C420 1.410 . S
C419 C427 1.503 . S
C420 C419 1.410 . S
C420 C421 1.392 . S
C420 C423 1.511 . S
C421 C417 1.376 . S
C421 C420 1.392 . S
C421 H433 0.929 . S
C422 C418 1.531 . S
C422 H434 0.960 . S
C422 H435 0.962 . S
C422 H436 0.960 . S
C423 C420 1.511 . S
C423 H437 0.961 . S
C423 H438 0.961 . S
C423 H439 0.961 . S
C424 C425 1.370 . S
C424 C426 1.363 . S
C424 H440 0.931 . S
C425 C424 1.370 . S
C425 C429 1.408 . S
C426 C424 1.363 . S
C426 C427 1.370 . S
C426 C430 1.524 . S
C427 C419 1.503 . S
C427 C426 1.370 . S
C427 C428 1.403 . S
C428 C427 1.403 . S
C428 C429 1.404 . S
C428 C431 1.539 . S
C429 C425 1.408 . S
C429 C428 1.404 . S
C429 H441 0.930 . S
C430 C426 1.524 . S
C430 H442 0.956 . S
C430 H443 0.961 . S
C430 H444 0.961 . S
C431 C428 1.539 . S
C431 H445 0.958 . S
C431 H446 0.961 . S
C431 H447 0.960 . S
H432 C416 0.931 . S
H433 C421 0.929 . S
H434 C422 0.960 . S
H435 C422 0.962 . S
H436 C422 0.960 . S
H437 C423 0.961 . S
H438 C423 0.961 . S
H439 C423 0.961 . S
H440 C424 0.931 . S
H441 C429 0.930 . S
H442 C430 0.956 . S
H443 C430 0.961 . S
H444 C430 0.961 . S
H445 C431 0.958 . S
H446 C431 0.961 . S
H447 C431 0.960 . S
C448 C449 1.391 . S
C448 C450 1.394 . S
C448 H464 0.931 . S
C449 C448 1.391 . S
C449 C453 1.376 . S
C450 C448 1.394 . S
C450 C451 1.369 . S
C450 C454 1.531 . S
C451 C450 1.369 . S
C451 C452 1.410 . S
C451 C459 1.503 . S
C452 C451 1.410 . S
C452 C453 1.392 . S
C452 C455 1.511 . S
C453 C449 1.376 . S
C453 C452 1.392 . S
C453 H465 0.929 . S
C454 C450 1.531 . S
C454 H466 0.960 . S
C454 H467 0.962 . S
C454 H468 0.960 . S
C455 C452 1.511 . S
C455 H469 0.961 . S
C455 H470 0.961 . S
C455 H471 0.961 . S
C456 C457 1.370 . S
C456 C458 1.363 . S
C456 H472 0.931 . S
C457 C456 1.370 . S
C457 C461 1.408 . S
C458 C456 1.363 . S
C458 C459 1.370 . S
C458 C462 1.524 . S
C459 C451 1.503 . S
C459 C458 1.370 . S
C459 C460 1.403 . S
C460 C459 1.403 . S
C460 C461 1.404 . S
C460 C463 1.539 . S
C461 C457 1.408 . S
C461 C460 1.404 . S
C461 H473 0.930 . S
C462 C458 1.524 . S
C462 H474 0.956 . S
C462 H475 0.961 . S
C462 H476 0.961 . S
C463 C460 1.539 . S
C463 H477 0.958 . S
C463 H478 0.961 . S
C463 H479 0.960 . S
H464 C448 0.931 . S
H465 C453 0.929 . S
H466 C454 0.960 . S
H467 C454 0.962 . S
H468 C454 0.960 . S
H469 C455 0.961 . S
H470 C455 0.961 . S
H471 C455 0.961 . S
H472 C456 0.931 . S
H473 C461 0.930 . S
H474 C462 0.956 . S
H475 C462 0.961 . S
H476 C462 0.961 . S
H477 C463 0.958 . S
H478 C463 0.961 . S
H479 C463 0.960 . S
C480 C481 1.391 . S
C480 C482 1.394 . S
C480 H496 0.931 . S
C481 C480 1.391 . S
C481 C485 1.376 . S
C482 C480 1.394 . S
C482 C483 1.369 . S
C482 C486 1.531 . S
C483 C482 1.369 . S
C483 C484 1.410 . S
C483 C491 1.503 . S
C484 C483 1.410 . S
C484 C485 1.392 . S
C484 C487 1.511 . S
C485 C481 1.376 . S
C485 C484 1.392 . S
C485 H497 0.929 . S
C486 C482 1.531 . S
C486 H498 0.960 . S
C486 H499 0.962 . S
C486 H500 0.960 . S
C487 C484 1.511 . S
C487 H501 0.961 . S
C487 H502 0.961 . S
C487 H503 0.961 . S
C488 C489 1.370 . S
C488 C490 1.363 . S
C488 H504 0.931 . S
C489 C488 1.370 . S
C489 C493 1.408 . S
C490 C488 1.363 . S
C490 C491 1.370 . S
C490 C494 1.524 . S
C491 C483 1.503 . S
C491 C490 1.370 . S
C491 C492 1.403 . S
C492 C491 1.403 . S
C492 C493 1.404 . S
C492 C495 1.539 . S
C493 C489 1.408 . S
C493 C492 1.404 . S
C493 H505 0.930 . S
C494 C490 1.524 . S
C494 H506 0.956 . S
C494 H507 0.961 . S
C494 H508 0.961 . S
C495 C492 1.539 . S
C495 H509 0.958 . S
C495 H510 0.961 . S
C495 H511 0.960 . S
H496 C480 0.931 . S
H497 C485 0.929 . S
H498 C486 0.960 . S
H499 C486 0.962 . S
H500 C486 0.960 . S
H501 C487 0.961 . S
H502 C487 0.961 . S
H503 C487 0.961 . S
H504 C488 0.931 . S
H505 C493 0.930 . S
H506 C494 0.956 . S
H507 C494 0.961 . S
H508 C494 0.961 . S
H509 C495 0.958 . S
H510 C495 0.961 . S
H511 C495 0.960 . S
C512 C513 1.391 . S
C512 C514 1.394 . S
C512 H528 0.931 . S
C513 C512 1.391 . S
C513 C517 1.376 . S
C514 C512 1.394 . S
C514 C515 1.369 . S
C514 C518 1.531 . S
C515 C514 1.369 . S
C515 C516 1.410 . S
C515 C523 1.503 . S
C516 C515 1.410 . S
C516 C517 1.392 . S
C516 C519 1.511 . S
C517 C513 1.376 . S
C517 C516 1.392 . S
C517 H529 0.929 . S
C518 C514 1.531 . S
C518 H530 0.960 . S
C518 H531 0.962 . S
C518 H532 0.960 . S
C519 C516 1.511 . S
C519 H533 0.961 . S
C519 H534 0.961 . S
C519 H535 0.961 . S
C520 C521 1.370 . S
C520 C522 1.363 . S
C520 H536 0.931 . S
C521 C520 1.370 . S
C521 C525 1.408 . S
C522 C520 1.363 . S
C522 C523 1.370 . S
C522 C526 1.524 . S
C523 C515 1.503 . S
C523 C522 1.370 . S
C523 C524 1.403 . S
C524 C523 1.403 . S
C524 C525 1.404 . S
C524 C527 1.539 . S
C525 C521 1.408 . S
C525 C524 1.404 . S
C525 H537 0.930 . S
C526 C522 1.524 . S
C526 H538 0.956 . S
C526 H539 0.961 . S
C526 H540 0.961 . S
C527 C524 1.539 . S
C527 H541 0.958 . S
C527 H542 0.961 . S
C527 H543 0.960 . S
H528 C512 0.931 . S
H529 C517 0.929 . S
H530 C518 0.960 . S
H531 C518 0.962 . S
H532 C518 0.960 . S
H533 C519 0.961 . S
H534 C519 0.961 . S
H535 C519 0.961 . S
H536 C520 0.931 . S
H537 C525 0.930 . S
H538 C526 0.956 . S
H539 C526 0.961 . S
H540 C526 0.961 . S
H541 C527 0.958 . S
H542 C527 0.961 . S
H543 C527 0.960 . S
C544 C545 1.391 . S
C544 C546 1.394 . S
C544 H560 0.931 . S
C545 C544 1.391 . S
C545 C549 1.376 . S
C546 C544 1.394 . S
C546 C547 1.369 . S
C546 C550 1.531 . S
C547 C546 1.369 . S
C547 C548 1.410 . S
C547 C555 1.503 . S
C548 C547 1.410 . S
C548 C549 1.392 . S
C548 C551 1.511 . S
C549 C545 1.376 . S
C549 C548 1.392 . S
C549 H561 0.929 . S
C550 C546 1.531 . S
C550 H562 0.960 . S
C550 H563 0.962 . S
C550 H564 0.960 . S
C551 C548 1.511 . S
C551 H565 0.961 . S
C551 H566 0.961 . S
C551 H567 0.961 . S
C552 C553 1.370 . S
C552 C554 1.363 . S
C552 H568 0.931 . S
C553 C552 1.370 . S
C553 C557 1.408 . S
C554 C552 1.363 . S
C554 C555 1.370 . S
C554 C558 1.524 . S
C555 C547 1.503 . S
C555 C554 1.370 . S
C555 C556 1.403 . S
C556 C555 1.403 . S
C556 C557 1.404 . S
C556 C559 1.539 . S
C557 C553 1.408 . S
C557 C556 1.404 . S
C557 H569 0.930 . S
C558 C554 1.524 . S
C558 H570 0.956 . S
C558 H571 0.961 . S
C558 H572 0.961 . S
C559 C556 1.539 . S
C559 H573 0.958 . S
C559 H574 0.961 . S
C559 H575 0.960 . S
H560 C544 0.931 . S
H561 C549 0.929 . S
H562 C550 0.960 . S
H563 C550 0.962 . S
H564 C550 0.960 . S
H565 C551 0.961 . S
H566 C551 0.961 . S
H567 C551 0.961 . S
H568 C552 0.931 . S
H569 C557 0.930 . S
H570 C558 0.956 . S
H571 C558 0.961 . S
H572 C558 0.961 . S
H573 C559 0.958 . S
H574 C559 0.961 . S
H575 C559 0.960 . S
C576 C577 1.391 . S
C576 C578 1.394 . S
C576 H592 0.931 . S
C577 C576 1.391 . S
C577 C581 1.376 . S
C578 C576 1.394 . S
C578 C579 1.369 . S
C578 C582 1.531 . S
C579 C578 1.369 . S
C579 C580 1.410 . S
C579 C587 1.503 . S
C580 C579 1.410 . S
C580 C581 1.392 . S
C580 C583 1.511 . S
C581 C577 1.376 . S
C581 C580 1.392 . S
C581 H593 0.929 . S
C582 C578 1.531 . S
C582 H594 0.960 . S
C582 H595 0.962 . S
C582 H596 0.960 . S
C583 C580 1.511 . S
C583 H597 0.961 . S
C583 H598 0.961 . S
C583 H599 0.961 . S
C584 C585 1.370 . S
C584 C586 1.363 . S
C584 H600 0.931 . S
C585 C584 1.370 . S
C585 C589 1.408 . S
C586 C584 1.363 . S
C586 C587 1.370 . S
C586 C590 1.524 . S
C587 C579 1.503 . S
C587 C586 1.370 . S
C587 C588 1.403 . S
C588 C587 1.403 . S
C588 C589 1.404 . S
C588 C591 1.539 . S
C589 C585 1.408 . S
C589 C588 1.404 . S
C589 H601 0.930 . S
C590 C586 1.524 . S
C590 H602 0.956 . S
C590 H603 0.961 . S
C590 H604 0.961 . S
C591 C588 1.539 . S
C591 H605 0.958 . S
C591 H606 0.961 . S
C591 H607 0.960 . S
H592 C576 0.931 . S
H593 C581 0.929 . S
H594 C582 0.960 . S
H595 C582 0.962 . S
H596 C582 0.960 . S
H597 C583 0.961 . S
H598 C583 0.961 . S
H599 C583 0.961 . S
H600 C584 0.931 . S
H601 C589 0.930 . S
H602 C590 0.956 . S
H603 C590 0.961 . S
H604 C590 0.961 . S
H605 C591 0.958 . S
H606 C591 0.961 . S
H607 C591 0.960 . S
C608 C609 1.391 . S
C608 C610 1.394 . S
C608 H624 0.931 . S
C609 C608 1.391 . S
C609 C613 1.376 . S
C610 C608 1.394 . S
C610 C611 1.369 . S
C610 C614 1.531 . S
C611 C610 1.369 . S
C611 C612 1.410 . S
C611 C619 1.503 . S
C612 C611 1.410 . S
C612 C613 1.392 . S
C612 C615 1.511 . S
C613 C609 1.376 . S
C613 C612 1.392 . S
C613 H625 0.929 . S
C614 C610 1.531 . S
C614 H626 0.960 . S
C614 H627 0.962 . S
C614 H628 0.960 . S
C615 C612 1.511 . S
C615 H629 0.961 . S
C615 H630 0.961 . S
C615 H631 0.961 . S
C616 C617 1.370 . S
C616 C618 1.363 . S
C616 H632 0.931 . S
C617 C616 1.370 . S
C617 C621 1.408 . S
C618 C616 1.363 . S
C618 C619 1.370 . S
C618 C622 1.524 . S
C619 C611 1.503 . S
C619 C618 1.370 . S
C619 C620 1.403 . S
C620 C619 1.403 . S
C620 C621 1.404 . S
C620 C623 1.539 . S
C621 C617 1.408 . S
C621 C620 1.404 . S
C621 H633 0.930 . S
C622 C618 1.524 . S
C622 H634 0.956 . S
C622 H635 0.961 . S
C622 H636 0.961 . S
C623 C620 1.539 . S
C623 H637 0.958 . S
C623 H638 0.961 . S
C623 H639 0.960 . S
H624 C608 0.931 . S
H625 C613 0.929 . S
H626 C614 0.960 . S
H627 C614 0.962 . S
H628 C614 0.960 . S
H629 C615 0.961 . S
H630 C615 0.961 . S
H631 C615 0.961 . S
H632 C616 0.931 . S
H633 C621 0.930 . S
H634 C622 0.956 . S
H635 C622 0.961 . S
H636 C622 0.961 . S
H637 C623 0.958 . S
H638 C623 0.961 . S
H639 C623 0.960 . S
C640 C641 1.391 . S
C640 C642 1.394 . S
C640 H656 0.931 . S
C641 C640 1.391 . S
C641 C645 1.376 . S
C642 C640 1.394 . S
C642 C643 1.369 . S
C642 C646 1.531 . S
C643 C642 1.369 . S
C643 C644 1.410 . S
C643 C651 1.503 . S
C644 C643 1.410 . S
C644 C645 1.392 . S
C644 C647 1.511 . S
C645 C641 1.376 . S
C645 C644 1.392 . S
C645 H657 0.929 . S
C646 C642 1.531 . S
C646 H658 0.960 . S
C646 H659 0.962 . S
C646 H660 0.960 . S
C647 C644 1.511 . S
C647 H661 0.961 . S
C647 H662 0.961 . S
C647 H663 0.961 . S
C648 C649 1.370 . S
C648 C650 1.363 . S
C648 H664 0.931 . S
C649 C648 1.370 . S
C649 C653 1.408 . S
C650 C648 1.363 . S
C650 C651 1.370 . S
C650 C654 1.524 . S
C651 C643 1.503 . S
C651 C650 1.370 . S
C651 C652 1.403 . S
C652 C651 1.403 . S
C652 C653 1.404 . S
C652 C655 1.539 . S
C653 C649 1.408 . S
C653 C652 1.404 . S
C653 H665 0.930 . S
C654 C650 1.524 . S
C654 H666 0.956 . S
C654 H667 0.961 . S
C654 H668 0.961 . S
C655 C652 1.539 . S
C655 H669 0.958 . S
C655 H670 0.961 . S
C655 H671 0.960 . S
H656 C640 0.931 . S
H657 C645 0.929 . S
H658 C646 0.960 . S
H659 C646 0.962 . S
H660 C646 0.960 . S
H661 C647 0.961 . S
H662 C647 0.961 . S
H663 C647 0.961 . S
H664 C648 0.931 . S
H665 C653 0.930 . S
H666 C654 0.956 . S
H667 C654 0.961 . S
H668 C654 0.961 . S
H669 C655 0.958 . S
H670 C655 0.961 . S
H671 C655 0.960 . S
C672 C673 1.391 . S
C672 C674 1.394 . S
C672 H688 0.931 . S
C673 C672 1.391 . S
C673 C677 1.376 . S
C674 C672 1.394 . S
C674 C675 1.369 . S
C674 C678 1.531 . S
C675 C674 1.369 . S
C675 C676 1.410 . S
C675 C683 1.503 . S
C676 C675 1.410 . S
C676 C677 1.392 . S
C676 C679 1.511 . S
C677 C673 1.376 . S
C677 C676 1.392 . S
C677 H689 0.929 . S
C678 C674 1.531 . S
C678 H690 0.960 . S
C678 H691 0.962 . S
C678 H692 0.960 . S
C679 C676 1.511 . S
C679 H693 0.961 . S
C679 H694 0.961 . S
C679 H695 0.961 . S
C680 C681 1.370 . S
C680 C682 1.363 . S
C680 H696 0.931 . S
C681 C680 1.370 . S
C681 C685 1.408 . S
C682 C680 1.363 . S
C682 C683 1.370 . S
C682 C686 1.524 . S
C683 C675 1.503 . S
C683 C682 1.370 . S
C683 C684 1.403 . S
C684 C683 1.403 . S
C684 C685 1.404 . S
C684 C687 1.539 . S
C685 C681 1.408 . S
C685 C684 1.404 . S
C685 H697 0.930 . S
C686 C682 1.524 . S
C686 H698 0.956 . S
C686 H699 0.961 . S
C686 H700 0.961 . S
C687 C684 1.539 . S
C687 H701 0.958 . S
C687 H702 0.961 . S
C687 H703 0.960 . S
H688 C672 0.931 . S
H689 C677 0.929 . S
H690 C678 0.960 . S
H691 C678 0.962 . S
H692 C678 0.960 . S
H693 C679 0.961 . S
H694 C679 0.961 . S
H695 C679 0.961 . S
H696 C680 0.931 . S
H697 C685 0.930 . S
H698 C686 0.956 . S
H699 C686 0.961 . S
H700 C686 0.961 . S
H701 C687 0.958 . S
H702 C687 0.961 . S
H703 C687 0.960 . S
C704 C705 1.391 . S
C704 C706 1.394 . S
C704 H720 0.931 . S
C705 C704 1.391 . S
C705 C709 1.376 . S
C706 C704 1.394 . S
C706 C707 1.369 . S
C706 C710 1.531 . S
C707 C706 1.369 . S
C707 C708 1.410 . S
C707 C715 1.503 . S
C708 C707 1.410 . S
C708 C709 1.392 . S
C708 C711 1.511 . S
C709 C705 1.376 . S
C709 C708 1.392 . S
C709 H721 0.929 . S
C710 C706 1.531 . S
C710 H722 0.960 . S
C710 H723 0.962 . S
C710 H724 0.960 . S
C711 C708 1.511 . S
C711 H725 0.961 . S
C711 H726 0.961 . S
C711 H727 0.961 . S
C712 C713 1.370 . S
C712 C714 1.363 . S
C712 H728 0.931 . S
C713 C712 1.370 . S
C713 C717 1.408 . S
C714 C712 1.363 . S
C714 C715 1.370 . S
C714 C718 1.524 . S
C715 C707 1.503 . S
C715 C714 1.370 . S
C715 C716 1.403 . S
C716 C715 1.403 . S
C716 C717 1.404 . S
C716 C719 1.539 . S
C717 C713 1.408 . S
C717 C716 1.404 . S
C717 H729 0.930 . S
C718 C714 1.524 . S
C718 H730 0.956 . S
C718 H731 0.961 . S
C718 H732 0.961 . S
C719 C716 1.539 . S
C719 H733 0.958 . S
C719 H734 0.961 . S
C719 H735 0.960 . S
H720 C704 0.931 . S
H721 C709 0.929 . S
H722 C710 0.960 . S
H723 C710 0.962 . S
H724 C710 0.960 . S
H725 C711 0.961 . S
H726 C711 0.961 . S
H727 C711 0.961 . S
H728 C712 0.931 . S
H729 C717 0.930 . S
H730 C718 0.956 . S
H731 C718 0.961 . S
H732 C718 0.961 . S
H733 C719 0.958 . S
H734 C719 0.961 . S
H735 C719 0.960 . S
C736 C737 1.391 . S
C736 C738 1.394 . S
C736 H752 0.931 . S
C737 C736 1.391 . S
C737 C741 1.376 . S
C738 C736 1.394 . S
C738 C739 1.369 . S
C738 C742 1.531 . S
C739 C738 1.369 . S
C739 C740 1.410 . S
C739 C747 1.503 . S
C740 C739 1.410 . S
C740 C741 1.392 . S
C740 C743 1.511 . S
C741 C737 1.376 . S
C741 C740 1.392 . S
C741 H753 0.929 . S
C742 C738 1.531 . S
C742 H754 0.960 . S
C742 H755 0.962 . S
C742 H756 0.960 . S
C743 C740 1.511 . S
C743 H757 0.961 . S
C743 H758 0.961 . S
C743 H759 0.961 . S
C744 C745 1.370 . S
C744 C746 1.363 . S
C744 H760 0.931 . S
C745 C744 1.370 . S
C745 C749 1.408 . S
C746 C744 1.363 . S
C746 C747 1.370 . S
C746 C750 1.524 . S
C747 C739 1.503 . S
C747 C746 1.370 . S
C747 C748 1.403 . S
C748 C747 1.403 . S
C748 C749 1.404 . S
C748 C751 1.539 . S
C749 C745 1.408 . S
C749 C748 1.404 . S
C749 H761 0.930 . S
C750 C746 1.524 . S
C750 H762 0.956 . S
C750 H763 0.961 . S
C750 H764 0.961 . S
C751 C748 1.539 . S
C751 H765 0.958 . S
C751 H766 0.961 . S
C751 H767 0.960 . S
H752 C736 0.931 . S
H753 C741 0.929 . S
H754 C742 0.960 . S
H755 C742 0.962 . S
H756 C742 0.960 . S
H757 C743 0.961 . S
H758 C743 0.961 . S
H759 C743 0.961 . S
H760 C744 0.931 . S
H761 C749 0.930 . S
H762 C750 0.956 . S
H763 C750 0.961 . S
H764 C750 0.961 . S
H765 C751 0.958 . S
H766 C751 0.961 . S
H767 C751 0.960 . S
C768 C769 1.391 . S
C768 C770 1.394 . S
C768 H784 0.931 . S
C769 C768 1.391 . S
C769 C773 1.376 . S
C770 C768 1.394 . S
C770 C771 1.369 . S
C770 C774 1.531 . S
C771 C770 1.369 . S
C771 C772 1.410 . S
C771 C779 1.503 . S
C772 C771 1.410 . S
C772 C773 1.392 . S
C772 C775 1.511 . S
C773 C769 1.376 . S
C773 C772 1.392 . S
C773 H785 0.929 . S
C774 C770 1.531 . S
C774 H786 0.960 . S
C774 H787 0.962 . S
C774 H788 0.960 . S
C775 C772 1.511 . S
C775 H789 0.961 . S
C775 H790 0.961 . S
C775 H791 0.961 . S
C776 C777 1.370 . S
C776 C778 1.363 . S
C776 H792 0.931 . S
C777 C776 1.370 . S
C777 C781 1.408 . S
C778 C776 1.363 . S
C778 C779 1.370 . S
C778 C782 1.524 . S
C779 C771 1.503 . S
C779 C778 1.370 . S
C779 C780 1.403 . S
C780 C779 1.403 . S
C780 C781 1.404 . S
C780 C783 1.539 . S
C781 C777 1.408 . S
C781 C780 1.404 . S
C781 H793 0.930 . S
C782 C778 1.524 . S
C782 H794 0.956 . S
C782 H795 0.961 . S
C782 H796 0.961 . S
C783 C780 1.539 . S
C783 H797 0.958 . S
C783 H798 0.961 . S
C783 H799 0.960 . S
H784 C768 0.931 . S
H785 C773 0.929 . S
H786 C774 0.960 . S
H787 C774 0.962 . S
H788 C774 0.960 . S
H789 C775 0.961 . S
H790 C775 0.961 . S
H791 C775 0.961 . S
H792 C776 0.931 . S
H793 C781 0.930 . S
H794 C782 0.956 . S
H795 C782 0.961 . S
H796 C782 0.961 . S
H797 C783 0.958 . S
H798 C783 0.961 . S
H799 C783 0.960 . S
C800 C801 1.391 . S
C800 C802 1.394 . S
C800 H816 0.931 . S
C801 C800 1.391 . S
C801 C805 1.376 . S
C802 C800 1.394 . S
C802 C803 1.369 . S
C802 C806 1.531 . S
C803 C802 1.369 . S
C803 C804 1.410 . S
C803 C811 1.503 . S
C804 C803 1.410 . S
C804 C805 1.392 . S
C804 C807 1.511 . S
C805 C801 1.376 . S
C805 C804 1.392 . S
C805 H817 0.929 . S
C806 C802 1.531 . S
C806 H818 0.960 . S
C806 H819 0.962 . S
C806 H820 0.960 . S
C807 C804 1.511 . S
C807 H821 0.961 . S
C807 H822 0.961 . S
C807 H823 0.961 . S
C808 C809 1.370 . S
C808 C810 1.363 . S
C808 H824 0.931 . S
C809 C808 1.370 . S
C809 C813 1.408 . S
C810 C808 1.363 . S
C810 C811 1.370 . S
C810 C814 1.524 . S
C811 C803 1.503 . S
C811 C810 1.370 . S
C811 C812 1.403 . S
C812 C811 1.403 . S
C812 C813 1.404 . S
C812 C815 1.539 . S
C813 C809 1.408 . S
C813 C812 1.404 . S
C813 H825 0.930 . S
C814 C810 1.524 . S
C814 H826 0.956 . S
C814 H827 0.961 . S
C814 H828 0.961 . S
C815 C812 1.539 . S
C815 H829 0.958 . S
C815 H830 0.961 . S
C815 H831 0.960 . S
H816 C800 0.931 . S
H817 C805 0.929 . S
H818 C806 0.960 . S
H819 C806 0.962 . S
H820 C806 0.960 . S
H821 C807 0.961 . S
H822 C807 0.961 . S
H823 C807 0.961 . S
H824 C808 0.931 . S
H825 C813 0.930 . S
H826 C814 0.956 . S
H827 C814 0.961 . S
H828 C814 0.961 . S
H829 C815 0.958 . S
H830 C815 0.961 . S
H831 C815 0.960 . S
C832 C833 1.391 . S
C832 C834 1.394 . S
C832 H848 0.931 . S
C833 C832 1.391 . S
C833 C837 1.376 . S
C834 C832 1.394 . S
C834 C835 1.369 . S
C834 C838 1.531 . S
C835 C834 1.369 . S
C835 C836 1.410 . S
C835 C843 1.503 . S
C836 C835 1.410 . S
C836 C837 1.392 . S
C836 C839 1.511 . S
C837 C833 1.376 . S
C837 C836 1.392 . S
C837 H849 0.929 . S
C838 C834 1.531 . S
C838 H850 0.960 . S
C838 H851 0.962 . S
C838 H852 0.960 . S
C839 C836 1.511 . S
C839 H853 0.961 . S
C839 H854 0.961 . S
C839 H855 0.961 . S
C840 C841 1.370 . S
C840 C842 1.363 . S
C840 H856 0.931 . S
C841 C840 1.370 . S
C841 C845 1.408 . S
C842 C840 1.363 . S
C842 C843 1.370 . S
C842 C846 1.524 . S
C843 C835 1.503 . S
C843 C842 1.370 . S
C843 C844 1.403 . S
C844 C843 1.403 . S
C844 C845 1.404 . S
C844 C847 1.539 . S
C845 C841 1.408 . S
C845 C844 1.404 . S
C845 H857 0.930 . S
C846 C842 1.524 . S
C846 H858 0.956 . S
C846 H859 0.961 . S
C846 H860 0.961 . S
C847 C844 1.539 . S
C847 H861 0.958 . S
C847 H862 0.961 . S
C847 H863 0.960 . S
H848 C832 0.931 . S
H849 C837 0.929 . S
H850 C838 0.960 . S
H851 C838 0.962 . S
H852 C838 0.960 . S
H853 C839 0.961 . S
H854 C839 0.961 . S
H855 C839 0.961 . S
H856 C840 0.931 . S
H857 C845 0.930 . S
H858 C846 0.956 . S
H859 C846 0.961 . S
H860 C846 0.961 . S
H861 C847 0.958 . S
H862 C847 0.961 . S
H863 C847 0.960 . S
C864 C865 1.391 . S
C864 C866 1.394 . S
C864 H880 0.931 . S
C865 C864 1.391 . S
C865 C869 1.376 . S
C866 C864 1.394 . S
C866 C867 1.369 . S
C866 C870 1.531 . S
C867 C866 1.369 . S
C867 C868 1.410 . S
C867 C875 1.503 . S
C868 C867 1.410 . S
C868 C869 1.392 . S
C868 C871 1.511 . S
C869 C865 1.376 . S
C869 C868 1.392 . S
C869 H881 0.929 . S
C870 C866 1.531 . S
C870 H882 0.960 . S
C870 H883 0.962 . S
C870 H884 0.960 . S
C871 C868 1.511 . S
C871 H885 0.961 . S
C871 H886 0.961 . S
C871 H887 0.961 . S
C872 C873 1.370 . S
C872 C874 1.363 . S
C872 H888 0.931 . S
C873 C872 1.370 . S
C873 C877 1.408 . S
C874 C872 1.363 . S
C874 C875 1.370 . S
C874 C878 1.524 . S
C875 C867 1.503 . S
C875 C874 1.370 . S
C875 C876 1.403 . S
C876 C875 1.403 . S
C876 C877 1.404 . S
C876 C879 1.539 . S
C877 C873 1.408 . S
C877 C876 1.404 . S
C877 H889 0.930 . S
C878 C874 1.524 . S
C878 H890 0.956 . S
C878 H891 0.961 . S
C878 H892 0.961 . S
C879 C876 1.539 . S
C879 H893 0.958 . S
C879 H894 0.961 . S
C879 H895 0.960 . S
H880 C864 0.931 . S
H881 C869 0.929 . S
H882 C870 0.960 . S
H883 C870 0.962 . S
H884 C870 0.960 . S
H885 C871 0.961 . S
H886 C871 0.961 . S
H887 C871 0.961 . S
H888 C872 0.931 . S
H889 C877 0.930 . S
H890 C878 0.956 . S
H891 C878 0.961 . S
H892 C878 0.961 . S
H893 C879 0.958 . S
H894 C879 0.961 . S
H895 C879 0.960 . S
C896 C897 1.391 . S
C896 C898 1.394 . S
C896 H912 0.931 . S
C897 C896 1.391 . S
C897 C901 1.376 . S
C898 C896 1.394 . S
C898 C899 1.369 . S
C898 C902 1.531 . S
C899 C898 1.369 . S
C899 C900 1.410 . S
C899 C907 1.503 . S
C900 C899 1.410 . S
C900 C901 1.392 . S
C900 C903 1.511 . S
C901 C897 1.376 . S
C901 C900 1.392 . S
C901 H913 0.929 . S
C902 C898 1.531 . S
C902 H914 0.960 . S
C902 H915 0.962 . S
C902 H916 0.960 . S
C903 C900 1.511 . S
C903 H917 0.961 . S
C903 H918 0.961 . S
C903 H919 0.961 . S
C904 C905 1.370 . S
C904 C906 1.363 . S
C904 H920 0.931 . S
C905 C904 1.370 . S
C905 C909 1.408 . S
C906 C904 1.363 . S
C906 C907 1.370 . S
C906 C910 1.524 . S
C907 C899 1.503 . S
C907 C906 1.370 . S
C907 C908 1.403 . S
C908 C907 1.403 . S
C908 C909 1.404 . S
C908 C911 1.539 . S
C909 C905 1.408 . S
C909 C908 1.404 . S
C909 H921 0.930 . S
C910 C906 1.524 . S
C910 H922 0.956 . S
C910 H923 0.961 . S
C910 H924 0.961 . S
C911 C908 1.539 . S
C911 H925 0.958 . S
C911 H926 0.961 . S
C911 H927 0.960 . S
H912 C896 0.931 . S
H913 C901 0.929 . S
H914 C902 0.960 . S
H915 C902 0.962 . S
H916 C902 0.960 . S
H917 C903 0.961 . S
H918 C903 0.961 . S
H919 C903 0.961 . S
H920 C904 0.931 . S
H921 C909 0.930 . S
H922 C910 0.956 . S
H923 C910 0.961 . S
H924 C910 0.961 . S
H925 C911 0.958 . S
H926 C911 0.961 . S
H927 C911 0.960 . S
C928 C929 1.391 . S
C928 C930 1.394 . S
C928 H944 0.931 . S
C929 C928 1.391 . S
C929 C933 1.376 . S
C930 C928 1.394 . S
C930 C931 1.369 . S
C930 C934 1.531 . S
C931 C930 1.369 . S
C931 C932 1.410 . S
C931 C939 1.503 . S
C932 C931 1.410 . S
C932 C933 1.392 . S
C932 C935 1.511 . S
C933 C929 1.376 . S
C933 C932 1.392 . S
C933 H945 0.929 . S
C934 C930 1.531 . S
C934 H946 0.960 . S
C934 H947 0.962 . S
C934 H948 0.960 . S
C935 C932 1.511 . S
C935 H949 0.961 . S
C935 H950 0.961 . S
C935 H951 0.961 . S
C936 C937 1.370 . S
C936 C938 1.363 . S
C936 H952 0.931 . S
C937 C936 1.370 . S
C937 C941 1.408 . S
C938 C936 1.363 . S
C938 C939 1.370 . S
C938 C942 1.524 . S
C939 C931 1.503 . S
C939 C938 1.370 . S
C939 C940 1.403 . S
C940 C939 1.403 . S
C940 C941 1.404 . S
C940 C943 1.539 . S
C941 C937 1.408 . S
C941 C940 1.404 . S
C941 H953 0.930 . S
C942 C938 1.524 . S
C942 H954 0.956 . S
C942 H955 0.961 . S
C942 H956 0.961 . S
C943 C940 1.539 . S
C943 H957 0.958 . S
C943 H958 0.961 . S
C943 H959 0.960 . S
H944 C928 0.931 . S
H945 C933 0.929 . S
H946 C934 0.960 . S
H947 C934 0.962 . S
H948 C934 0.960 . S
H949 C935 0.961 . S
H950 C935 0.961 . S
H951 C935 0.961 . S
H952 C936 0.931 . S
H953 C941 0.930 . S
H954 C942 0.956 . S
H955 C942 0.961 . S
H956 C942 0.961 . S
H957 C943 0.958 . S
H958 C943 0.961 . S
H959 C943 0.960 . S
C960 C961 1.391 . S
C960 C962 1.394 . S
C960 H976 0.931 . S
C961 C960 1.391 . S
C961 C965 1.376 . S
C962 C960 1.394 . S
C962 C963 1.369 . S
C962 C966 1.531 . S
C963 C962 1.369 . S
C963 C964 1.410 . S
C963 C971 1.503 . S
C964 C963 1.410 . S
C964 C965 1.392 . S
C964 C967 1.511 . S
C965 C961 1.376 . S
C965 C964 1.392 . S
C965 H977 0.929 . S
C966 C962 1.531 . S
C966 H978 0.960 . S
C966 H979 0.962 . S
C966 H980 0.960 . S
C967 C964 1.511 . S
C967 H981 0.961 . S
C967 H982 0.961 . S
C967 H983 0.961 . S
C968 C969 1.370 . S
C968 C970 1.363 . S
C968 H984 0.931 . S
C969 C968 1.370 . S
C969 C973 1.408 . S
C970 C968 1.363 . S
C970 C971 1.370 . S
C970 C974 1.524 . S
C971 C963 1.503 . S
C971 C970 1.370 . S
C971 C972 1.403 . S
C972 C971 1.403 . S
C972 C973 1.404 . S
C972 C975 1.539 . S
C973 C969 1.408 . S
C973 C972 1.404 . S
C973 H985 0.930 . S
C974 C970 1.524 . S
C974 H986 0.956 . S
C974 H987 0.961 . S
C974 H988 0.961 . S
C975 C972 1.539 . S
C975 H989 0.958 . S
C975 H990 0.961 . S
C975 H991 0.960 . S
H976 C960 0.931 . S
H977 C965 0.929 . S
H978 C966 0.960 . S
H979 C966 0.962 . S
H980 C966 0.960 . S
H981 C967 0.961 . S
H982 C967 0.961 . S
H983 C967 0.961 . S
H984 C968 0.931 . S
H985 C973 0.930 . S
H986 C974 0.956 . S
H987 C974 0.961 . S
H988 C974 0.961 . S
H989 C975 0.958 . S
H990 C975 0.961 . S
H991 C975 0.960 . S
C992 C993 1.391 . S
C992 C994 1.394 . S
C992 H1008 0.931 . S
C993 C992 1.391 . S
C993 C997 1.376 . S
C994 C992 1.394 . S
C994 C995 1.369 . S
C994 C998 1.531 . S
C995 C994 1.369 . S
C995 C996 1.410 . S
C995 C1003 1.503 . S
C996 C995 1.410 . S
C996 C997 1.392 . S
C996 C999 1.511 . S
C997 C993 1.376 . S
C997 C996 1.392 . S
C997 H1009 0.929 . S
C998 C994 1.531 . S
C998 H1010 0.960 . S
C998 H1011 0.962 . S
C998 H1012 0.960 . S
C999 C996 1.511 . S
C999 H1013 0.961 . S
C999 H1014 0.961 . S
C999 H1015 0.961 . S
C1000 C1001 1.370 . S
C1000 C1002 1.363 . S
C1000 H1016 0.931 . S
C1001 C1000 1.370 . S
C1001 C1005 1.408 . S
C1002 C1000 1.363 . S
C1002 C1003 1.370 . S
C1002 C1006 1.524 . S
C1003 C995 1.503 . S
C1003 C1002 1.370 . S
C1003 C1004 1.403 . S
C1004 C1003 1.403 . S
C1004 C1005 1.404 . S
C1004 C1007 1.539 . S
C1005 C1001 1.408 . S
C1005 C1004 1.404 . S
C1005 H1017 0.930 . S
C1006 C1002 1.524 . S
C1006 H1018 0.956 . S
C1006 H1019 0.961 . S
C1006 H1020 0.961 . S
C1007 C1004 1.539 . S
C1007 H1021 0.958 . S
C1007 H1022 0.961 . S
C1007 H1023 0.960 . S
H1008 C992 0.931 . S
H1009 C997 0.929 . S
H1010 C998 0.960 . S
H1011 C998 0.962 . S
H1012 C998 0.960 . S
H1013 C999 0.961 . S
H1014 C999 0.961 . S
H1015 C999 0.961 . S
H1016 C1000 0.931 . S
H1017 C1005 0.930 . S
H1018 C1006 0.956 . S
H1019 C1006 0.961 . S
H1020 C1006 0.961 . S
H1021 C1007 0.958 . S
H1022 C1007 0.961 . S
H1023 C1007 0.960 . S
C1024 C1025 1.391 . S
C1024 C1026 1.394 . S
C1024 H1040 0.931 . S
C1025 C1024 1.391 . S
C1025 C1029 1.376 . S
C1026 C1024 1.394 . S
C1026 C1027 1.369 . S
C1026 C1030 1.531 . S
C1027 C1026 1.369 . S
C1027 C1028 1.410 . S
C1027 C1035 1.503 . S
C1028 C1027 1.410 . S
C1028 C1029 1.392 . S
C1028 C1031 1.511 . S
C1029 C1025 1.376 . S
C1029 C1028 1.392 . S
C1029 H1041 0.929 . S
C1030 C1026 1.531 . S
C1030 H1042 0.960 . S
C1030 H1043 0.962 . S
C1030 H1044 0.960 . S
C1031 C1028 1.511 . S
C1031 H1045 0.961 . S
C1031 H1046 0.961 . S
C1031 H1047 0.961 . S
C1032 C1033 1.370 . S
C1032 C1034 1.363 . S
C1032 H1048 0.931 . S
C1033 C1032 1.370 . S
C1033 C1037 1.408 . S
C1034 C1032 1.363 . S
C1034 C1035 1.370 . S
C1034 C1038 1.524 . S
C1035 C1027 1.503 . S
C1035 C1034 1.370 . S
C1035 C1036 1.403 . S
C1036 C1035 1.403 . S
C1036 C1037 1.404 . S
C1036 C1039 1.539 . S
C1037 C1033 1.408 . S
C1037 C1036 1.404 . S
C1037 H1049 0.930 . S
C1038 C1034 1.524 . S
C1038 H1050 0.956 . S
C1038 H1051 0.961 . S
C1038 H1052 0.961 . S
C1039 C1036 1.539 . S
C1039 H1053 0.958 . S
C1039 H1054 0.961 . S
C1039 H1055 0.960 . S
H1040 C1024 0.931 . S
H1041 C1029 0.929 . S
H1042 C1030 0.960 . S
H1043 C1030 0.962 . S
H1044 C1030 0.960 . S
H1045 C1031 0.961 . S
H1046 C1031 0.961 . S
H1047 C1031 0.961 . S
H1048 C1032 0.931 . S
H1049 C1037 0.930 . S
H1050 C1038 0.956 . S
H1051 C1038 0.961 . S
H1052 C1038 0.961 . S
H1053 C1039 0.958 . S
H1054 C1039 0.961 . S
H1055 C1039 0.960 . S
C1056 C1057 1.391 . S
C1056 C1058 1.394 . S
C1056 H1072 0.931 . S
C1057 C1056 1.391 . S
C1057 C1061 1.376 . S
C1058 C1056 1.394 . S
C1058 C1059 1.369 . S
C1058 C1062 1.531 . S
C1059 C1058 1.369 . S
C1059 C1060 1.410 . S
C1059 C1067 1.503 . S
C1060 C1059 1.410 . S
C1060 C1061 1.392 . S
C1060 C1063 1.511 . S
C1061 C1057 1.376 . S
C1061 C1060 1.392 . S
C1061 H1073 0.929 . S
C1062 C1058 1.531 . S
C1062 H1074 0.960 . S
C1062 H1075 0.962 . S
C1062 H1076 0.960 . S
C1063 C1060 1.511 . S
C1063 H1077 0.961 . S
C1063 H1078 0.961 . S
C1063 H1079 0.961 . S
C1064 C1065 1.370 . S
C1064 C1066 1.363 . S
C1064 H1080 0.931 . S
C1065 C1064 1.370 . S
C1065 C1069 1.408 . S
C1066 C1064 1.363 . S
C1066 C1067 1.370 . S
C1066 C1070 1.524 . S
C1067 C1059 1.503 . S
C1067 C1066 1.370 . S
C1067 C1068 1.403 . S
C1068 C1067 1.403 . S
C1068 C1069 1.404 . S
C1068 C1071 1.539 . S
C1069 C1065 1.408 . S
C1069 C1068 1.404 . S
C1069 H1081 0.930 . S
C1070 C1066 1.524 . S
C1070 H1082 0.956 . S
C1070 H1083 0.961 . S
C1070 H1084 0.961 . S
C1071 C1068 1.539 . S
C1071 H1085 0.958 . S
C1071 H1086 0.961 . S
C1071 H1087 0.960 . S
H1072 C1056 0.931 . S
H1073 C1061 0.929 . S
H1074 C1062 0.960 . S
H1075 C1062 0.962 . S
H1076 C1062 0.960 . S
H1077 C1063 0.961 . S
H1078 C1063 0.961 . S
H1079 C1063 0.961 . S
H1080 C1064 0.931 . S
H1081 C1069 0.930 . S
H1082 C1070 0.956 . S
H1083 C1070 0.961 . S
H1084 C1070 0.961 . S
H1085 C1071 0.958 . S
H1086 C1071 0.961 . S
H1087 C1071 0.960 . S
C1088 C1089 1.391 . S
C1088 C1090 1.394 . S
C1088 H1104 0.931 . S
C1089 C1088 1.391 . S
C1089 C1093 1.376 . S
C1090 C1088 1.394 . S
C1090 C1091 1.369 . S
C1090 C1094 1.531 . S
C1091 C1090 1.369 . S
C1091 C1092 1.410 . S
C1091 C1099 1.503 . S
C1092 C1091 1.410 . S
C1092 C1093 1.392 . S
C1092 C1095 1.511 . S
C1093 C1089 1.376 . S
C1093 C1092 1.392 . S
C1093 H1105 0.929 . S
C1094 C1090 1.531 . S
C1094 H1106 0.960 . S
C1094 H1107 0.962 . S
C1094 H1108 0.960 . S
C1095 C1092 1.511 . S
C1095 H1109 0.961 . S
C1095 H1110 0.961 . S
C1095 H1111 0.961 . S
C1096 C1097 1.370 . S
C1096 C1098 1.363 . S
C1096 H1112 0.931 . S
C1097 C1096 1.370 . S
C1097 C1101 1.408 . S
C1098 C1096 1.363 . S
C1098 C1099 1.370 . S
C1098 C1102 1.524 . S
C1099 C1091 1.503 . S
C1099 C1098 1.370 . S
C1099 C1100 1.403 . S
C1100 C1099 1.403 . S
C1100 C1101 1.404 . S
C1100 C1103 1.539 . S
C1101 C1097 1.408 . S
C1101 C1100 1.404 . S
C1101 H1113 0.930 . S
C1102 C1098 1.524 . S
C1102 H1114 0.956 . S
C1102 H1115 0.961 . S
C1102 H1116 0.961 . S
C1103 C1100 1.539 . S
C1103 H1117 0.958 . S
C1103 H1118 0.961 . S
C1103 H1119 0.960 . S
H1104 C1088 0.931 . S
H1105 C1093 0.929 . S
H1106 C1094 0.960 . S
H1107 C1094 0.962 . S
H1108 C1094 0.960 . S
H1109 C1095 0.961 . S
H1110 C1095 0.961 . S
H1111 C1095 0.961 . S
H1112 C1096 0.931 . S
H1113 C1101 0.930 . S
H1114 C1102 0.956 . S
H1115 C1102 0.961 . S
H1116 C1102 0.961 . S
H1117 C1103 0.958 . S
H1118 C1103 0.961 . S
H1119 C1103 0.960 . S
C1120 C1121 1.391 . S
C1120 C1122 1.394 . S
C1120 H1136 0.931 . S
C1121 C1120 1.391 . S
C1121 C1125 1.376 . S
C1122 C1120 1.394 . S
C1122 C1123 1.369 . S
C1122 C1126 1.531 . S
C1123 C1122 1.369 . S
C1123 C1124 1.410 . S
C1123 C1131 1.503 . S
C1124 C1123 1.410 . S
C1124 C1125 1.392 . S
C1124 C1127 1.511 . S
C1125 C1121 1.376 . S
C1125 C1124 1.392 . S
C1125 H1137 0.929 . S
C1126 C1122 1.531 . S
C1126 H1138 0.960 . S
C1126 H1139 0.962 . S
C1126 H1140 0.960 . S
C1127 C1124 1.511 . S
C1127 H1141 0.961 . S
C1127 H1142 0.961 . S
C1127 H1143 0.961 . S
C1128 C1129 1.370 . S
C1128 C1130 1.363 . S
C1128 H1144 0.931 . S
C1129 C1128 1.370 . S
C1129 C1133 1.408 . S
C1130 C1128 1.363 . S
C1130 C1131 1.370 . S
C1130 C1134 1.524 . S
C1131 C1123 1.503 . S
C1131 C1130 1.370 . S
C1131 C1132 1.403 . S
C1132 C1131 1.403 . S
C1132 C1133 1.404 . S
C1132 C1135 1.539 . S
C1133 C1129 1.408 . S
C1133 C1132 1.404 . S
C1133 H1145 0.930 . S
C1134 C1130 1.524 . S
C1134 H1146 0.956 . S
C1134 H1147 0.961 . S
C1134 H1148 0.961 . S
C1135 C1132 1.539 . S
C1135 H1149 0.958 . S
C1135 H1150 0.961 . S
C1135 H1151 0.960 . S
H1136 C1120 0.931 . S
H1137 C1125 0.929 . S
H1138 C1126 0.960 . S
H1139 C1126 0.962 . S
H1140 C1126 0.960 . S
H1141 C1127 0.961 . S
H1142 C1127 0.961 . S
H1143 C1127 0.961 . S
H1144 C1128 0.931 . S
H1145 C1133 0.930 . S
H1146 C1134 0.956 . S
H1147 C1134 0.961 . S
H1148 C1134 0.961 . S
H1149 C1135 0.958 . S
H1150 C1135 0.961 . S
H1151 C1135 0.960 . S
C1152 C1153 1.391 . S
C1152 C1154 1.394 . S
C1152 H1168 0.931 . S
C1153 C1152 1.391 . S
C1153 C1157 1.376 . S
C1154 C1152 1.394 . S
C1154 C1155 1.369 . S
C1154 C1158 1.531 . S
C1155 C1154 1.369 . S
C1155 C1156 1.410 . S
C1155 C1163 1.503 . S
C1156 C1155 1.410 . S
C1156 C1157 1.392 . S
C1156 C1159 1.511 . S
C1157 C1153 1.376 . S
C1157 C1156 1.392 . S
C1157 H1169 0.929 . S
C1158 C1154 1.531 . S
C1158 H1170 0.960 . S
C1158 H1171 0.962 . S
C1158 H1172 0.960 . S
C1159 C1156 1.511 . S
C1159 H1173 0.961 . S
C1159 H1174 0.961 . S
C1159 H1175 0.961 . S
C1160 C1161 1.370 . S
C1160 C1162 1.363 . S
C1160 H1176 0.931 . S
C1161 C1160 1.370 . S
C1161 C1165 1.408 . S
C1162 C1160 1.363 . S
C1162 C1163 1.370 . S
C1162 C1166 1.524 . S
C1163 C1155 1.503 . S
C1163 C1162 1.370 . S
C1163 C1164 1.403 . S
C1164 C1163 1.403 . S
C1164 C1165 1.404 . S
C1164 C1167 1.539 . S
C1165 C1161 1.408 . S
C1165 C1164 1.404 . S
C1165 H1177 0.930 . S
C1166 C1162 1.524 . S
C1166 H1178 0.956 . S
C1166 H1179 0.961 . S
C1166 H1180 0.961 . S
C1167 C1164 1.539 . S
C1167 H1181 0.958 . S
C1167 H1182 0.961 . S
C1167 H1183 0.960 . S
H1168 C1152 0.931 . S
H1169 C1157 0.929 . S
H1170 C1158 0.960 . S
H1171 C1158 0.962 . S
H1172 C1158 0.960 . S
H1173 C1159 0.961 . S
H1174 C1159 0.961 . S
H1175 C1159 0.961 . S
H1176 C1160 0.931 . S
H1177 C1165 0.930 . S
H1178 C1166 0.956 . S
H1179 C1166 0.961 . S
H1180 C1166 0.961 . S
H1181 C1167 0.958 . S
H1182 C1167 0.961 . S
H1183 C1167 0.960 . S
C1184 C1185 1.391 . S
C1184 C1186 1.394 . S
C1184 H1200 0.931 . S
C1185 C1184 1.391 . S
C1185 C1189 1.376 . S
C1186 C1184 1.394 . S
C1186 C1187 1.369 . S
C1186 C1190 1.531 . S
C1187 C1186 1.369 . S
C1187 C1188 1.410 . S
C1187 C1195 1.503 . S
C1188 C1187 1.410 . S
C1188 C1189 1.392 . S
C1188 C1191 1.511 . S
C1189 C1185 1.376 . S
C1189 C1188 1.392 . S
C1189 H1201 0.929 . S
C1190 C1186 1.531 . S
C1190 H1202 0.960 . S
C1190 H1203 0.962 . S
C1190 H1204 0.960 . S
C1191 C1188 1.511 . S
C1191 H1205 0.961 . S
C1191 H1206 0.961 . S
C1191 H1207 0.961 . S
C1192 C1193 1.370 . S
C1192 C1194 1.363 . S
C1192 H1208 0.931 . S
C1193 C1192 1.370 . S
C1193 C1197 1.408 . S
C1194 C1192 1.363 . S
C1194 C1195 1.370 . S
C1194 C1198 1.524 . S
C1195 C1187 1.503 . S
C1195 C1194 1.370 . S
C1195 C1196 1.403 . S
C1196 C1195 1.403 . S
C1196 C1197 1.404 . S
C1196 C1199 1.539 . S
C1197 C1193 1.408 . S
C1197 C1196 1.404 . S
C1197 H1209 0.930 . S
C1198 C1194 1.524 . S
C1198 H1210 0.956 . S
C1198 H1211 0.961 . S
C1198 H1212 0.961 . S
C1199 C1196 1.539 . S
C1199 H1213 0.958 . S
C1199 H1214 0.961 . S
C1199 H1215 0.960 . S
H1200 C1184 0.931 . S
H1201 C1189 0.929 . S
H1202 C1190 0.960 . S
H1203 C1190 0.962 . S
H1204 C1190 0.960 . S
H1205 C1191 0.961 . S
H1206 C1191 0.961 . S
H1207 C1191 0.961 . S
H1208 C1192 0.931 . S
H1209 C1197 0.930 . S
H1210 C1198 0.956 . S
H1211 C1198 0.961 . S
H1212 C1198 0.961 . S
H1213 C1199 0.958 . S
H1214 C1199 0.961 . S
H1215 C1199 0.960 . S
C1216 C1217 1.391 . S
C1216 C1218 1.394 . S
C1216 H1232 0.931 . S
C1217 C1216 1.391 . S
C1217 C1221 1.376 . S
C1218 C1216 1.394 . S
C1218 C1219 1.369 . S
C1218 C1222 1.531 . S
C1219 C1218 1.369 . S
C1219 C1220 1.410 . S
C1219 C1227 1.503 . S
C1220 C1219 1.410 . S
C1220 C1221 1.392 . S
C1220 C1223 1.511 . S
C1221 C1217 1.376 . S
C1221 C1220 1.392 . S
C1221 H1233 0.929 . S
C1222 C1218 1.531 . S
C1222 H1234 0.960 . S
C1222 H1235 0.962 . S
C1222 H1236 0.960 . S
C1223 C1220 1.511 . S
C1223 H1237 0.961 . S
C1223 H1238 0.961 . S
C1223 H1239 0.961 . S
C1224 C1225 1.370 . S
C1224 C1226 1.363 . S
C1224 H1240 0.931 . S
C1225 C1224 1.370 . S
C1225 C1229 1.408 . S
C1226 C1224 1.363 . S
C1226 C1227 1.370 . S
C1226 C1230 1.524 . S
C1227 C1219 1.503 . S
C1227 C1226 1.370 . S
C1227 C1228 1.403 . S
C1228 C1227 1.403 . S
C1228 C1229 1.404 . S
C1228 C1231 1.539 . S
C1229 C1225 1.408 . S
C1229 C1228 1.404 . S
C1229 H1241 0.930 . S
C1230 C1226 1.524 . S
C1230 H1242 0.956 . S
C1230 H1243 0.961 . S
C1230 H1244 0.961 . S
C1231 C1228 1.539 . S
C1231 H1245 0.958 . S
C1231 H1246 0.961 . S
C1231 H1247 0.960 . S
H1232 C1216 0.931 . S
H1233 C1221 0.929 . S
H1234 C1222 0.960 . S
H1235 C1222 0.962 . S
H1236 C1222 0.960 . S
H1237 C1223 0.961 . S
H1238 C1223 0.961 . S
H1239 C1223 0.961 . S
H1240 C1224 0.931 . S
H1241 C1229 0.930 . S
H1242 C1230 0.956 . S
H1243 C1230 0.961 . S
H1244 C1230 0.961 . S
H1245 C1231 0.958 . S
H1246 C1231 0.961 . S
H1247 C1231 0.960 . S
C233 C113 1.554 . S
C225 C0 1.557 . S
C265 C139 1.556 . S
C257 C26 1.556 . S
C297 C153 1.546 . S
C289 C40 1.565 . S
C329 C155 1.553 . S
C321 C43 1.562 . S
C353 C57 1.559 . S
C361 C152 1.554 . S
C393 C154 1.547 . S
C385 C70 1.561 . S
C425 C112 1.552 . S
C417 C97 1.565 . S
C457 C138 1.557 . S
C449 C111 1.550 . S
C489 C140 1.545 . S
C481 C98 1.566 . S
C521 C166 1.554 . S
C513 C68 1.553 . S
C553 C124 1.546 . S
C545 C83 1.557 . S
C585 C126 1.550 . S
C577 C84 1.560 . S
C617 C125 1.547 . S
C609 C15 1.564 . S
C649 C127 1.554 . S
C641 C29 1.552 . S
C681 C141 1.548 . S
C673 C54 1.563 . S
C713 C167 1.556 . S
C705 C13 1.547 . S
C745 C169 1.555 . S
C737 C99 1.550 . S
C769 C69 1.551 . S
C777 C195 1.553 . S
C801 C82 1.563 . S
C809 C208 1.549 . S
C833 C85 1.557 . S
C841 C211 1.549 . S
C865 C14 1.556 . S
C873 C209 1.545 . S
C897 C28 1.555 . S
C905 C210 1.547 . S
C929 C55 1.548 . S
C937 C168 1.555 . S
C969 C194 1.548 . S
C961 C12 1.554 . S
C1001 C197 1.558 . S
C993 C1 1.547 . S
C1025 C27 1.549 . S
C1033 C222 1.553 . S
C1057 C41 1.563 . S
C1065 C180 1.543 . S
C1089 C42 1.557 . S
C1097 C182 1.552 . S
C1129 C181 1.558 . S
C1121 C56 1.551 . S
C1161 C183 1.553 . S
C1153 C71 1.553 . S
C1185 C96 1.555 . S
C1193 C196 1.557 . S
C1225 C223 1.550 . S
C1217 C110 1.565 . S
