# Generated by pormake.
# Topology ssa, (4,4)-cn, num edge types: 1
# Building blocks:
#     Node 0, Type 0, BuildingBlock: ESEHIV_clean_sbu_0, # of connection points: 4
#     Node 1, Type 0, BuildingBlock: ESEHIV_clean_sbu_0, # of connection points: 4
#     Node 2, Type 0, BuildingBlock: ESEHIV_clean_sbu_0, # of connection points: 4
#     Node 3, Type 0, BuildingBlock: ESEHIV_clean_sbu_0, # of connection points: 4
#     Node 4, Type 0, BuildingBlock: ESEHIV_clean_sbu_0, # of connection points: 4
#     Node 5, Type 0, BuildingBlock: ESEHIV_clean_sbu_0, # of connection points: 4
#     Node 6, Type 1, BuildingBlock: ESEHIV_clean_sbu_0, # of connection points: 4
#     Node 7, Type 1, BuildingBlock: ESEHIV_clean_sbu_0, # of connection points: 4
#     Node 8, Type 1, BuildingBlock: ESEHIV_clean_sbu_0, # of connection points: 4
#     Node 9, Type 1, BuildingBlock: ESEHIV_clean_sbu_0, # of connection points: 4
#     Node 10, Type 1, BuildingBlock: ESEHIV_clean_sbu_0, # of connection points: 4
#     Node 11, Type 1, BuildingBlock: ESEHIV_clean_sbu_0, # of connection points: 4
#     Edge 12, Type (0, 1), BuildingBlock: MIFKUJ_clean_linker_0, # of connection points: 2
#     Edge 13, Type (0, 1), BuildingBlock: MIFKUJ_clean_linker_0, # of connection points: 2
#     Edge 14, Type (0, 1), BuildingBlock: MIFKUJ_clean_linker_0, # of connection points: 2
#     Edge 15, Type (0, 1), BuildingBlock: MIFKUJ_clean_linker_0, # of connection points: 2
#     Edge 16, Type (0, 1), BuildingBlock: MIFKUJ_clean_linker_0, # of connection points: 2
#     Edge 17, Type (0, 1), BuildingBlock: MIFKUJ_clean_linker_0, # of connection points: 2
#     Edge 18, Type (0, 1), BuildingBlock: MIFKUJ_clean_linker_0, # of connection points: 2
#     Edge 19, Type (0, 1), BuildingBlock: MIFKUJ_clean_linker_0, # of connection points: 2
#     Edge 20, Type (0, 1), BuildingBlock: MIFKUJ_clean_linker_0, # of connection points: 2
#     Edge 21, Type (0, 1), BuildingBlock: MIFKUJ_clean_linker_0, # of connection points: 2
#     Edge 22, Type (0, 1), BuildingBlock: MIFKUJ_clean_linker_0, # of connection points: 2
#     Edge 23, Type (0, 1), BuildingBlock: MIFKUJ_clean_linker_0, # of connection points: 2
#     Edge 24, Type (0, 1), BuildingBlock: MIFKUJ_clean_linker_0, # of connection points: 2
#     Edge 25, Type (0, 1), BuildingBlock: MIFKUJ_clean_linker_0, # of connection points: 2
#     Edge 26, Type (0, 1), BuildingBlock: MIFKUJ_clean_linker_0, # of connection points: 2
#     Edge 27, Type (0, 1), BuildingBlock: MIFKUJ_clean_linker_0, # of connection points: 2
#     Edge 28, Type (0, 1), BuildingBlock: MIFKUJ_clean_linker_0, # of connection points: 2
#     Edge 29, Type (0, 1), BuildingBlock: MIFKUJ_clean_linker_0, # of connection points: 2
#     Edge 30, Type (0, 1), BuildingBlock: MIFKUJ_clean_linker_0, # of connection points: 2
#     Edge 31, Type (0, 1), BuildingBlock: MIFKUJ_clean_linker_0, # of connection points: 2
#     Edge 32, Type (0, 1), BuildingBlock: MIFKUJ_clean_linker_0, # of connection points: 2
#     Edge 33, Type (0, 1), BuildingBlock: MIFKUJ_clean_linker_0, # of connection points: 2
#     Edge 34, Type (0, 1), BuildingBlock: MIFKUJ_clean_linker_0, # of connection points: 2
#     Edge 35, Type (0, 1), BuildingBlock: MIFKUJ_clean_linker_0, # of connection points: 2
# Relax obj value: 0.024
# Max RMSD: 0.105
# Mean RMSD: 0.096
data_MOF--net-ssa--node1-ESEHIV_clean_sbu_0--node2-ESEHIV_clean_sbu_0--edge1-MIFKUJ_clean_linker_0
_symmetry_space_group_name_H-M    P1
_symmetry_Int_Tables_number       1
_symmetry_cell_setting            triclinic
loop_
_symmetry_equiv_pos_as_xyz
'x, y, z'
_cell_length_a     63.354537
_cell_length_b     66.580737
_cell_length_c     48.189566
_cell_angle_alpha  88.583612
_cell_angle_beta   90.502
_cell_angle_gamma 122.05954
loop_
_atom_site_label
_atom_site_type_symbol
_atom_site_fract_x
_atom_site_fract_y
_atom_site_fract_z
_atom_type_partial_charge
Cu0 Cu 0.03055 0.52333 0.99982 0.0
N1 N 0.03876 0.51008 0.97138 0.0
N2 N 0.03368 0.48338 0.94054 0.0
C3 C 0.02387 0.48783 0.96254 0.0
C4 C 0.05571 0.50367 0.93538 0.0
C5 C 0.05884 0.52011 0.95453 0.0
O6 O 0.99587 0.51556 0.9918 0.0
C7 C 0.06341 0.52186 0.03741 0.0
O8 O 0.07783 0.53429 0.0163 0.0
H9 H 1.0057 0.47549 0.97145 0.0
H10 H 0.07443 0.5382 0.95577 0.0
N11 N 0.05099 0.55635 0.99842 0.0
N12 N 0.07605 0.5927 0.01463 0.0
C13 C 0.06036 0.56956 0.02111 0.0
C14 C 0.06075 0.5717 0.97666 0.0
C15 C 0.07622 0.59425 0.98665 0.0
C16 C 0.99218 0.51958 0.96652 0.0
O17 O 1.01097 0.52808 0.94906 0.0
H18 H 0.05602 0.5622 0.04204 0.0
H19 H 0.05745 0.56682 0.95511 0.0
O20 O 0.03995 0.51368 0.03532 0.0
H21 H 0.06855 0.50647 0.91889 0.0
H22 H 0.0874 0.61033 0.97433 0.0
Cu23 Cu 0.52354 0.01467 0.52897 0.0
N24 N 0.53032 1.0078 0.4933 0.0
N25 N 0.53089 0.98509 0.45967 0.0
C26 C 0.53052 0.98808 0.48735 0.0
C27 C 0.5311 1.00375 0.44773 0.0
C28 C 0.53081 0.01768 0.4684 0.0
O29 O 0.49207 0.98603 0.53837 0.0
C30 C 0.5718 0.03527 0.54787 0.0
O31 O 0.57613 0.04571 0.52326 0.0
H32 H 0.52895 0.97542 0.50302 0.0
H33 H 0.53001 0.03338 0.46531 0.0
N34 N 0.52113 0.04188 0.53138 0.0
N35 N 0.51954 0.07161 0.55077 0.0
C36 C 0.52493 0.05452 0.55456 0.0
C37 C 0.51316 0.0514 0.51223 0.0
C38 C 0.51221 0.06962 0.52402 0.0
C39 C 0.47134 0.98473 0.53663 0.0
O40 O 0.47111 1.00433 0.53618 0.0
H41 H 0.53064 0.05061 0.57414 0.0
H42 H 0.50747 0.045 0.49144 0.0
O43 O 0.54949 0.0196 0.55459 0.0
H44 H 0.53104 1.0069 0.42559 0.0
H45 H 0.5063 0.0804 0.51363 0.0
Cu46 Cu 0.51265 0.51362 0.01676 0.0
N47 N 0.50895 0.48356 0.01262 0.0
N48 N 0.50796 0.45288 0.99212 0.0
C49 C 0.5121 0.47503 0.98876 0.0
C50 C 0.50207 0.44747 0.01934 0.0
C51 C 0.50268 0.46626 0.0318 0.0
O52 O 0.54106 0.5355 0.994 0.0
C53 C 0.46133 0.4939 1.00847 0.0
O54 O 0.45984 0.47351 0.01107 0.0
H55 H 0.51702 0.48486 0.96922 0.0
H56 H 0.49863 0.46712 0.05333 0.0
N57 N 0.51833 0.52544 0.05325 0.0
N58 N 0.52063 0.5483 0.08853 0.0
C59 C 0.51604 0.54361 0.0611 0.0
C60 C 0.52457 0.51827 0.07649 0.0
C61 C 0.52598 0.53221 0.09813 0.0
C62 C 0.56137 0.53744 1.00139 0.0
O63 O 0.56144 0.52608 0.02406 0.0
H64 H 0.51116 0.55322 0.04672 0.0
H65 H 0.52784 0.50391 0.07772 0.0
O66 O 0.48268 0.51284 1.00605 0.0
H67 H 0.49781 0.43117 0.0298 0.0
H68 H 0.53035 0.53027 0.11938 0.0
Cu69 Cu 1.01455 0.5078 0.50736 0.0
N70 N 1.00736 0.48968 0.47579 0.0
N71 N 1.01133 0.4686 0.44322 0.0
C72 C 0.01616 0.47583 0.46972 0.0
C73 C 0.99839 0.47778 0.43248 0.0
C74 C 0.99592 0.49072 0.45265 0.0
O75 O 0.04898 0.53626 0.50182 0.0
C76 C 0.99854 0.48843 0.56439 0.0
O77 O 1.00488 0.50994 0.57109 0.0
H78 H 0.02768 0.47278 0.48374 0.0
H79 H 0.98765 0.50127 0.4501 0.0
N80 N 0.99428 0.5203 0.50629 0.0
N81 N 0.96698 0.53008 0.51837 0.0
C82 C 0.97483 0.51497 0.52275 0.0
C83 C 0.99851 0.53906 0.49054 0.0
C84 C 0.98173 0.54516 0.49793 0.0
C85 C 0.06695 0.53704 0.48871 0.0
O86 O 0.06559 0.51711 0.48365 0.0
H87 H 0.96746 0.50115 0.53866 0.0
H88 H 1.01346 0.54824 0.47552 0.0
O89 O 1.00392 0.48518 0.53998 0.0
H90 H 0.99225 0.47626 0.41118 0.0
H91 H 0.98104 0.56003 0.48956 0.0
Cu92 Cu 0.53995 0.02932 0.04156 0.0
N93 N 0.53001 0.05077 0.04602 0.0
N94 N 0.51134 0.07033 0.03482 0.0
C95 C 0.51074 0.04985 0.03291 0.0
C96 C 0.53128 0.08431 0.05077 0.0
C97 C 0.5428 0.07219 0.05762 0.0
O98 O 0.55931 0.03888 1.00583 0.0
C99 C 0.50811 0.97802 0.05607 0.0
O100 O 0.52775 0.97657 0.05218 0.0
H101 H 0.49777 0.03516 0.02026 0.0
H102 H 0.56033 0.07921 0.06833 0.0
N103 N 0.56297 0.0349 0.06935 0.0
N104 N 0.58133 0.02817 0.10506 0.0
C105 C 0.55992 0.0205 0.09103 0.0
C106 C 0.587 0.05267 0.06994 0.0
C107 C 0.59841 0.04857 0.09193 0.0
C108 C 0.55484 0.04792 0.98446 0.0
O109 O 0.5332 0.04605 0.98275 0.0
H110 H 0.5427 1.00397 0.09541 0.0
H111 H 0.59584 0.067 0.05468 0.0
O112 O 0.50944 0.99743 0.04946 0.0
H113 H 0.53844 0.10275 0.0549 0.0
H114 H 0.61797 0.05929 0.09706 0.0
Cu115 Cu 0.52251 0.51001 0.50891 0.0
N116 N 0.54567 0.52457 0.48021 0.0
N117 N 0.56739 0.55088 0.44629 0.0
C118 C 0.54609 0.53988 0.46121 0.0
C119 C 0.58103 0.54225 0.45637 0.0
C120 C 0.56752 0.52593 0.47733 0.0
O121 O 0.49457 0.51454 0.49837 0.0
C122 C 0.5383 0.51448 0.56782 0.0
O123 O 0.51499 0.49952 0.57497 0.0
H124 H 0.53197 0.54432 0.45985 0.0
H125 H 0.57376 0.51679 0.49062 0.0
N126 N 0.51048 0.47768 0.5097 0.0
N127 N 0.49347 0.44111 0.52783 0.0
C128 C 0.49474 0.46195 0.52887 0.0
C129 C 0.51897 0.46625 0.49542 0.0
C130 C 0.50845 0.44363 0.50653 0.0
C131 C 0.48372 0.50436 0.4757 0.0
O132 O 0.49101 0.49145 0.46389 0.0
H133 H 0.48527 0.46609 0.54409 0.0
H134 H 0.533 0.47424 0.47926 0.0
O135 O 0.54342 0.52265 0.54281 0.0
H136 H 0.5998 0.54809 0.44992 0.0
H137 H 0.51297 0.43072 0.50073 0.0
Cu138 Cu 0.25512 0.48663 0.26321 0.0
N139 N 0.26233 0.47193 0.23553 0.0
N140 N 0.28082 0.46782 0.19864 0.0
C141 C 0.28009 0.48316 0.2159 0.0
C142 C 0.26266 0.44608 0.20792 0.0
C143 C 0.25127 0.44869 0.23057 0.0
O144 O 0.28541 0.50398 0.28723 0.0
C145 C 0.21995 0.48828 0.22999 0.0
O146 O 0.21267 0.46576 0.23044 0.0
H147 H 0.29198 0.50226 0.21427 0.0
H148 H 0.23598 0.4346 0.24251 0.0
N149 N 0.22972 0.46392 0.28636 0.0
N150 N 0.1943 0.4463 0.31085 0.0
C151 C 0.21035 0.46521 0.29491 0.0
C152 C 0.2261 0.44363 0.29769 0.0
C153 C 0.20421 0.4327 0.31288 0.0
C154 C 0.29598 0.49256 0.2939 0.0
O155 O 0.28671 0.47135 0.28381 0.0
H156 H 0.20823 0.47994 0.28964 0.0
H157 H 0.23835 0.43713 0.29496 0.0
O158 O 0.23996 0.50269 0.24319 0.0
H159 H 0.25804 0.42938 0.1993 0.0
H160 H 0.19606 0.41591 0.32411 0.0
Cu161 Cu 0.79456 0.24605 0.76751 0.0
N162 N 0.78936 0.2219 0.74415 0.0
N163 N 0.77101 0.18932 0.71867 0.0
C164 C 0.76804 0.20127 0.73896 0.0
C165 C 0.79519 0.20286 0.71105 0.0
C166 C 0.80644 0.22288 0.72686 0.0
O167 O 0.76572 0.23266 0.79385 0.0
C168 C 0.81786 0.29623 0.74892 0.0
O169 O 0.81938 0.30159 0.77522 0.0
H170 H 0.75047 0.19555 0.74891 0.0
H171 H 0.82558 0.23755 0.72529 0.0
N172 N 0.82152 0.25257 0.78994 0.0
N173 N 0.85793 0.27212 0.81206 0.0
C174 C 0.84443 0.27235 0.79035 0.0
C175 C 0.8207 0.23912 0.81169 0.0
C176 C 0.84309 0.25115 0.82544 0.0
C177 C 0.74231 0.22166 0.78901 0.0
O178 O 0.73475 0.22213 0.76367 0.0
H179 H 0.85065 0.2872 0.77603 0.0
H180 H 0.80449 0.22221 0.81782 0.0
O181 O 0.80565 0.27434 0.74242 0.0
H182 H 0.804 0.19883 0.69483 0.0
H183 H 0.84772 0.24528 0.84438 0.0
Cu184 Cu 0.55569 0.77989 0.2778 0.0
N185 N 0.57495 0.8045 0.25247 0.0
N186 N 0.59043 0.83925 0.22995 0.0
C187 C 0.57312 0.82353 0.24811 0.0
C188 C 0.60357 0.82962 0.22237 0.0
C189 C 0.59403 0.80818 0.23642 0.0
O190 O 0.53818 0.79146 0.30043 0.0
C191 C 0.54859 0.74068 0.24825 0.0
O192 O 0.57268 0.752 0.25262 0.0
H193 H 0.55926 0.82575 0.25806 0.0
H194 H 0.60091 0.79644 0.23544 0.0
N195 N 0.57702 0.77601 0.3011 0.0
N196 N 0.5912 0.75626 0.32465 0.0
C197 C 0.57095 0.75571 0.31455 0.0
C198 C 0.60191 0.7902 0.30321 0.0
C199 C 0.61071 0.7781 0.31783 0.0
C200 C 0.55226 0.80873 0.31633 0.0
O201 O 0.57603 0.81614 0.31726 0.0
H202 H 0.55216 0.74038 0.31519 0.0
H203 H 0.61302 0.80749 0.29325 0.0
O204 O 0.53636 0.7497 0.25706 0.0
H205 H 0.61929 0.8377 0.20822 0.0
H206 H 0.63012 0.78433 0.3213 0.0
Cu207 Cu 0.77372 0.54217 0.77954 0.0
N208 N 0.79589 0.55746 0.7501 0.0
N209 N 0.82125 0.56325 0.71478 0.0
C210 C 0.80824 0.54922 0.73677 0.0
C211 C 0.8169 0.58102 0.71435 0.0
C212 C 0.80114 0.57732 0.73605 0.0
O213 O 0.7875 0.52583 0.80185 0.0
C214 C 0.73137 0.53582 0.75138 0.0
O215 O 0.74417 0.5589 0.754 0.0
H216 H 0.80736 0.53305 0.74293 0.0
H217 H 0.79347 0.588 0.74071 0.0
N218 N 0.77356 0.56491 0.80132 0.0
N219 N 0.75865 0.58119 0.82844 0.0
C220 C 0.75469 0.56095 0.81789 0.0
C221 C 0.79014 0.58847 0.8017 0.0
C222 C 0.78081 0.59864 0.81829 0.0
C223 C 0.79224 0.52897 0.82791 0.0
O224 O 0.78416 0.54037 0.84171 0.0
H225 H 0.73794 0.54368 0.82126 0.0
H226 H 0.80748 0.5977 0.7902 0.0
O227 O 0.74023 0.52379 0.76171 0.0
H228 H 0.8238 0.59517 0.69884 0.0
H229 H 0.78948 0.6173 0.82246 0.0
Cu230 Cu 0.27192 0.77981 0.28108 0.0
N231 N 0.24754 0.77625 0.25599 0.0
N232 N 0.21934 0.7606 0.22217 0.0
C233 C 0.23475 0.75782 0.2391 0.0
C234 C 0.22263 0.78168 0.2287 0.0
C235 C 0.24004 0.79129 0.24955 0.0
O236 O 0.25726 0.74868 0.30205 0.0
C237 C 0.31017 0.81509 0.24813 0.0
O238 O 0.29691 0.82412 0.25492 0.0
H239 H 0.2373 0.74299 0.23874 0.0
H240 H 0.24706 0.80827 0.25892 0.0
N241 N 0.27703 0.80181 0.3079 0.0
N242 N 0.29491 0.82729 0.34251 0.0
C243 C 0.2975 0.81402 0.32364 0.0
C244 C 0.2609 0.8075 0.31702 0.0
C245 C 0.27183 0.82317 0.33829 0.0
C246 C 0.23579 0.7414 0.31287 0.0
O247 O 0.22604 0.75428 0.30793 0.0
H248 H 0.31383 0.81295 0.32129 0.0
H249 H 0.24221 0.80029 0.30932 0.0
O250 O 0.3033 0.79443 0.25828 0.0
H251 H 0.21319 0.78963 0.21909 0.0
H252 H 0.26301 0.83031 0.35023 0.0
Cu253 Cu 0.48144 0.24371 0.77534 0.0
N254 N 0.45842 0.24597 0.75339 0.0
N255 N 0.44092 0.26013 0.72533 0.0
C256 C 0.4588 0.26543 0.74432 0.0
C257 C 0.42869 0.23645 0.7225 0.0
C258 C 0.43946 0.22775 0.73996 0.0
O259 O 0.49907 0.272 0.7989 0.0
C260 C 0.51307 0.22675 0.75325 0.0
O261 O 0.52233 0.2282 0.77813 0.0
H262 H 0.47283 0.28327 0.74998 0.0
H263 H 0.43468 0.20958 0.74173 0.0
N264 N 0.46247 0.21877 0.80039 0.0
N265 N 0.45153 0.19104 0.83361 0.0
C266 C 0.46848 0.20453 0.81384 0.0
C267 C 0.44097 0.21398 0.812 0.0
C268 C 0.43421 0.19692 0.8326 0.0
C269 C 0.51094 0.29409 0.79242 0.0
O270 O 0.51701 0.30082 0.76634 0.0
H271 H 0.48559 0.20504 0.81054 0.0
H272 H 0.43152 0.22312 0.8067 0.0
O273 O 0.49852 0.23435 0.74902 0.0
H274 H 0.4138 0.22634 0.70794 0.0
H275 H 0.41826 0.1899 0.84633 0.0
H276 H 0.10869 0.55475 0.05689 0.0
H277 H 0.13336 0.55063 0.09293 0.0
H278 H 0.07243 0.47948 0.11147 0.0
H279 H 0.04712 0.48384 0.07528 0.0
H280 H 0.09691 0.5006 0.15898 0.0
H281 H 0.12238 0.49042 0.07033 0.0
H282 H 0.13621 0.50035 0.02153 0.0
H283 H 0.20222 0.56469 0.0465 0.0
H284 H 0.18861 0.55531 0.09545 0.0
H285 H 0.17051 0.45996 0.22024 0.0
H286 H 0.14359 0.46773 0.19191 0.0
H287 H 0.20454 0.53947 0.1765 0.0
H288 H 0.23207 0.5316 0.20514 0.0
H289 H 0.18001 0.51874 0.1285 0.0
H290 H 0.15451 0.52645 0.2187 0.0
H291 H 0.14041 0.51419 0.26712 0.0
H292 H 0.07383 0.45191 0.239 0.0
H293 H 0.08772 0.46359 0.19038 0.0
C294 C 0.10028 0.53825 0.06881 0.0
C295 C 0.07587 0.51956 0.0629 0.0
C296 C 0.11458 0.53586 0.08944 0.0
C297 C 0.10527 0.5145 0.10467 0.0
C298 C 0.08032 0.49614 0.09998 0.0
C299 C 0.06575 0.49864 0.07932 0.0
C300 C 0.12214 0.51138 0.12432 0.0
C301 C 0.11493 0.50429 0.15216 0.0
C302 C 0.14605 0.51658 0.11593 0.0
C303 C 0.15435 0.52227 0.08653 0.0
C304 C 0.13976 0.50677 0.0654 0.0
C305 C 0.14757 0.51229 0.03772 0.0
C306 C 0.17005 0.53317 0.03091 0.0
C307 C 0.18479 0.54854 0.0518 0.0
C308 C 0.17705 0.54313 0.07952 0.0
C309 C 0.17833 0.47756 0.21112 0.0
C310 C 0.20365 0.49514 0.2151 0.0
C311 C 0.1627 0.48201 0.19493 0.0
C312 C 0.1717 0.50427 0.18203 0.0
C313 C 0.19695 0.52212 0.18623 0.0
C314 C 0.2127 0.51769 0.20279 0.0
C315 C 0.1549 0.50814 0.16321 0.0
C316 C 0.16209 0.51525 0.13542 0.0
C317 C 0.13091 0.50269 0.17164 0.0
C318 C 0.12228 0.49581 0.20086 0.0
C319 C 0.13694 0.51006 0.22282 0.0
C320 C 0.12898 0.50321 0.25032 0.0
C321 C 0.10628 0.48225 0.25614 0.0
C322 C 0.09143 0.46813 0.23446 0.0
C323 C 0.09933 0.47487 0.20692 0.0
H324 H 0.10017 0.47697 0.27744 0.0
H325 H 0.17607 0.53741 1.00947 0.0
H326 H 0.56828 0.02447 0.60367 0.0
H327 H 0.60152 0.04316 0.63816 0.0
H328 H 0.65428 0.08501 0.57318 0.0
H329 H 0.62138 0.06631 0.53869 0.0
H330 H 0.67462 0.0698 0.61202 0.0
H331 H 0.62777 0.10963 0.61165 0.0
H332 H 0.58937 0.1102 0.61626 0.0
H333 H 0.57627 0.0772 0.69726 0.0
H334 H 0.61492 0.07681 0.69322 0.0
H335 H 0.7691 0.17785 0.66485 0.0
H336 H 0.73476 0.14415 0.64158 0.0
H337 H 0.69443 0.11906 0.71917 0.0
H338 H 0.72878 0.15321 0.74252 0.0
H339 H 0.66517 0.11844 0.68126 0.0
H340 H 0.71839 0.08872 0.68606 0.0
H341 H 0.75734 0.08908 0.6819 0.0
H342 H 0.75832 0.10111 0.59384 0.0
H343 H 0.71956 0.10117 0.5975 0.0
C344 C 0.58704 0.03736 0.59669 0.0
C345 C 0.59215 0.04405 0.56845 0.0
C346 C 0.60599 0.0481 0.61644 0.0
C347 C 0.63032 0.06571 0.60828 0.0
C348 C 0.63566 0.07149 0.57997 0.0
C349 C 0.61677 0.06083 0.56027 0.0
C350 C 0.64998 0.07941 0.62905 0.0
C351 C 0.67265 0.08047 0.62719 0.0
C352 C 0.64708 0.09266 0.64949 0.0
C353 C 0.62398 0.09294 0.652 0.0
C354 C 0.61661 0.10241 0.63037 0.0
C355 C 0.59484 0.10272 0.6329 0.0
C356 C 0.58023 0.0935 0.65693 0.0
C357 C 0.58756 0.08423 0.67862 0.0
C358 C 0.60944 0.08406 0.67628 0.0
C359 C 0.75318 0.16492 0.6771 0.0
C360 C 0.75168 0.16821 0.70555 0.0
C361 C 0.73352 0.14556 0.66377 0.0
C362 C 0.71207 0.12879 0.67866 0.0
C363 C 0.71078 0.13172 0.70723 0.0
C364 C 0.73037 0.15125 0.72054 0.0
C365 C 0.6903 0.10951 0.66376 0.0
C366 C 0.66716 0.10738 0.66669 0.0
C367 C 0.69279 0.09516 0.64447 0.0
C368 C 0.71609 0.09506 0.64209 0.0
C369 C 0.72698 0.0916 0.66582 0.0
C370 C 0.74903 0.0917 0.66355 0.0
C371 C 0.76032 0.09514 0.63763 0.0
C372 C 0.74955 0.09844 0.61391 0.0
C373 C 0.72752 0.09836 0.61607 0.0
H374 H 0.77738 0.09523 0.63592 0.0
H375 H 0.56328 0.09357 0.65879 0.0
H376 H 0.50184 0.57565 0.07235 0.0
H377 H 0.50117 0.60611 0.09881 0.0
H378 H 0.53639 0.59286 0.16755 0.0
H379 H 0.53761 0.56276 0.14128 0.0
H380 H 0.49913 0.59773 0.18596 0.0
H381 H 0.56936 0.64128 0.12454 0.0
H382 H 0.59105 0.65364 0.07931 0.0
H383 H 0.54396 0.67856 0.05218 0.0
H384 H 0.52176 0.66604 0.09717 0.0
H385 H 0.55522 0.70473 0.26136 0.0
H386 H 0.54403 0.66993 0.23421 0.0
H387 H 0.50676 0.68991 0.17478 0.0
H388 H 0.51761 0.72481 0.20251 0.0
H389 H 0.53994 0.68051 0.14968 0.0
H390 H 0.4743 0.64212 0.21586 0.0
H391 H 0.45507 0.63102 0.26239 0.0
H392 H 0.49452 0.59636 0.28182 0.0
H393 H 0.51418 0.60741 0.23547 0.0
C394 C 0.50973 0.57923 0.09294 0.0
C395 C 0.51998 0.56648 0.10426 0.0
C396 C 0.50923 0.59676 0.10819 0.0
C397 C 0.51889 0.60209 0.13527 0.0
C398 C 0.52872 0.58918 0.1468 0.0
C399 C 0.52941 0.57181 0.13155 0.0
C400 C 0.51919 0.6213 0.15151 0.0
C401 C 0.50824 0.61586 0.1781 0.0
C402 C 0.53044 0.64495 0.14114 0.0
C403 C 0.5437 0.65245 0.11408 0.0
C404 C 0.56348 0.64919 0.10884 0.0
C405 C 0.5759 0.65627 0.08327 0.0
C406 C 0.56883 0.66681 0.06285 0.0
C407 C 0.54937 0.67035 0.068 0.0
C408 C 0.53687 0.66327 0.09353 0.0
C409 C 0.544 0.70137 0.24291 0.0
C410 C 0.53695 0.71737 0.23437 0.0
C411 C 0.53769 0.68145 0.2273 0.0
C412 C 0.52449 0.67708 0.20231 0.0
C413 C 0.51688 0.69275 0.19398 0.0
C414 C 0.52282 0.71257 0.21 0.0
C415 C 0.52023 0.65705 0.18438 0.0
C416 C 0.53051 0.66233 0.15747 0.0
C417 C 0.5085 0.63328 0.19459 0.0
C418 C 0.49619 0.62609 0.22231 0.0
C419 C 0.47913 0.63237 0.23013 0.0
C420 C 0.46807 0.62602 0.25647 0.0
C421 C 0.47377 0.61321 0.27515 0.0
C422 C 0.49027 0.60645 0.2674 0.0
C423 C 0.50135 0.61273 0.24107 0.0
H424 H 0.46528 0.6084 0.29557 0.0
H425 H 0.57848 0.67229 0.04307 0.0
H426 H 0.96757 0.57018 0.52893 0.0
H427 H 0.94082 0.57431 0.56129 0.0
H428 H 0.90077 0.49917 0.57966 0.0
H429 H 0.92722 0.49477 0.54673 0.0
H430 H 0.86966 0.51696 0.57482 0.0
H431 H 0.94381 0.53456 0.623 0.0
H432 H 0.98912 0.55442 0.63002 0.0
H433 H 0.99584 0.62208 0.63005 0.0
H434 H 0.95059 0.60264 0.62259 0.0
H435 H 0.81479 0.52107 0.7009 0.0
H436 H 0.83855 0.51447 0.66667 0.0
H437 H 0.88321 0.58963 0.64858 0.0
H438 H 0.86 0.59645 0.68342 0.0
H439 H 0.91153 0.57054 0.65365 0.0
H440 H 0.83713 0.55272 0.60506 0.0
H441 H 0.79181 0.53263 0.59794 0.0
H442 H 0.78541 0.4651 0.59895 0.0
H443 H 0.83068 0.48478 0.60647 0.0
C444 C 0.95277 0.55442 0.53935 0.0
C445 C 0.94962 0.53213 0.53533 0.0
C446 C 0.93764 0.55686 0.55805 0.0
C447 C 0.91909 0.5371 0.57313 0.0
C448 C 0.91509 0.51465 0.5683 0.0
C449 C 0.93031 0.5122 0.54964 0.0
C450 C 0.90468 0.54016 0.59481 0.0
C451 C 0.87873 0.52841 0.59227 0.0
C452 C 0.91664 0.55541 0.61729 0.0
C453 C 0.94384 0.56715 0.62196 0.0
C454 C 0.95498 0.55369 0.62428 0.0
C455 C 0.98065 0.56487 0.62837 0.0
C456 C 0.99536 0.5895 0.63041 0.0
C457 C 0.98442 0.603 0.62843 0.0
C458 C 0.95876 0.59191 0.62429 0.0
C459 C 0.82984 0.53624 0.6899 0.0
C460 C 0.83547 0.55931 0.69489 0.0
C461 C 0.84323 0.5324 0.67012 0.0
C462 C 0.86243 0.55153 0.65484 0.0
C463 C 0.86837 0.57461 0.66006 0.0
C464 C 0.85497 0.57846 0.67982 0.0
C465 C 0.87648 0.54755 0.63356 0.0
C466 C 0.90241 0.55907 0.63622 0.0
C467 C 0.86446 0.53206 0.61124 0.0
C468 C 0.83726 0.52021 0.60662 0.0
C469 C 0.82603 0.53357 0.60399 0.0
C470 C 0.80036 0.52226 0.59984 0.0
C471 C 0.78573 0.4976 0.59807 0.0
C472 C 0.79676 0.4842 0.60037 0.0
C473 C 0.82243 0.49542 0.60455 0.0
H474 H 0.76586 0.48888 0.59485 0.0
H475 H 1.01523 0.59813 0.63359 0.0
H476 H 0.4981 0.93366 0.07127 0.0
H477 H 0.46598 0.90436 0.10304 0.0
H478 H 0.43673 0.9494 0.1116 0.0
H479 H 0.46912 0.97895 0.08003 0.0
H480 H 0.44059 0.93314 0.16169 0.0
H481 H 0.40624 0.89675 0.07384 0.0
H482 H 0.40667 0.88056 0.02851 0.0
H483 H 0.41919 0.82964 0.06905 0.0
H484 H 0.41914 0.84573 0.11462 0.0
H485 H 0.32539 0.85842 0.22525 0.0
H486 H 0.35904 0.88272 0.19309 0.0
H487 H 0.37886 0.83003 0.19289 0.0
H488 H 0.34412 0.80479 0.22543 0.0
H489 H 0.3825 0.84841 0.14035 0.0
H490 H 0.41436 0.8822 0.22792 0.0
H491 H 0.41455 0.89784 0.2738 0.0
H492 H 0.4088 0.95349 0.23499 0.0
H493 H 0.4081 0.93792 0.18885 0.0
C494 C 0.48472 0.9373 0.07963 0.0
C495 C 0.48639 0.95884 0.07281 0.0
C496 C 0.46617 0.92037 0.09786 0.0
C497 C 0.44855 0.92434 0.10989 0.0
C498 C 0.44995 0.94569 0.10278 0.0
C499 C 0.46846 0.9626 0.08445 0.0
C500 C 0.4293 0.90678 0.13053 0.0
C501 C 0.42773 0.9147 0.15678 0.0
C502 C 0.41299 0.88232 0.12496 0.0
C503 C 0.41294 0.8726 0.09761 0.0
C504 C 0.40927 0.88222 0.07307 0.0
C505 C 0.40941 0.87304 0.04734 0.0
C506 C 0.41302 0.85413 0.0459 0.0
C507 C 0.41643 0.84431 0.0702 0.0
C508 C 0.41633 0.85344 0.09598 0.0
C509 C 0.33677 0.85172 0.21867 0.0
C510 C 0.33183 0.82944 0.22844 0.0
C511 C 0.35631 0.86591 0.20013 0.0
C512 C 0.3721 0.8587 0.19066 0.0
C513 C 0.36716 0.83625 0.19988 0.0
C514 C 0.34731 0.82182 0.21864 0.0
C515 C 0.39346 0.87493 0.17126 0.0
C516 C 0.39548 0.86681 0.14531 0.0
C517 C 0.41043 0.89921 0.17718 0.0
C518 C 0.41101 0.90877 0.2049 0.0
C519 C 0.41296 0.89768 0.22916 0.0
C520 C 0.41318 0.90654 0.25522 0.0
C521 C 0.41168 0.92664 0.25732 0.0
C522 C 0.40997 0.93792 0.23334 0.0
C523 C 0.40967 0.92909 0.20721 0.0
H524 H 0.41189 0.9335 0.27752 0.0
H525 H 0.41312 0.84705 0.02595 0.0
H526 H 0.47763 0.39499 0.52052 0.0
H527 H 0.46293 0.36381 0.55656 0.0
H528 H 0.47011 0.41319 0.61786 0.0
H529 H 0.48549 0.44448 0.58226 0.0
H530 H 0.49157 0.38969 0.63487 0.0
H531 H 0.41284 0.36932 0.59662 0.0
H532 H 0.38215 0.35997 0.55949 0.0
H533 H 0.38488 0.29909 0.53843 0.0
H534 H 0.41586 0.30826 0.5752 0.0
H535 H 0.44538 0.30094 0.74051 0.0
H536 H 0.44745 0.33166 0.70937 0.0
H537 H 0.43636 0.28818 0.639 0.0
H538 H 0.43309 0.2572 0.67017 0.0
H539 H 0.41382 0.31045 0.62967 0.0
H540 H 0.49602 0.3335 0.66361 0.0
H541 H 0.52686 0.34243 0.7005 0.0
H542 H 0.51835 0.39843 0.72871 0.0
H543 H 0.4871 0.38952 0.69231 0.0
C544 C 0.47594 0.39914 0.54164 0.0
C545 C 0.48263 0.42219 0.54843 0.0
C546 C 0.46735 0.38128 0.56218 0.0
C547 C 0.46521 0.38615 0.58985 0.0
C548 C 0.4715 0.40903 0.59661 0.0
C549 C 0.48006 0.42686 0.57613 0.0
C550 C 0.45781 0.36775 0.61199 0.0
C551 C 0.47435 0.3725 0.63401 0.0
C552 C 0.43556 0.34523 0.61059 0.0
C553 C 0.41682 0.33959 0.58855 0.0
C554 C 0.40703 0.35403 0.58395 0.0
C555 C 0.38956 0.34875 0.56298 0.0
C556 C 0.3816 0.32898 0.54658 0.0
C557 C 0.39107 0.31441 0.55115 0.0
C558 C 0.40856 0.31963 0.57207 0.0
C559 C 0.44297 0.29791 0.71841 0.0
C560 C 0.43917 0.27684 0.70765 0.0
C561 C 0.44426 0.31544 0.70064 0.0
C562 C 0.44266 0.31247 0.67175 0.0
C563 C 0.43768 0.29092 0.66117 0.0
C564 C 0.4358 0.27321 0.67898 0.0
C565 C 0.44781 0.3322 0.65226 0.0
C566 C 0.43089 0.32774 0.63072 0.0
C567 C 0.46982 0.35496 0.65397 0.0
C568 C 0.48904 0.36068 0.67543 0.0
C569 C 0.50065 0.34764 0.67776 0.0
C570 C 0.51817 0.35268 0.69861 0.0
C571 C 0.52447 0.37091 0.71702 0.0
C572 C 0.51338 0.38425 0.71451 0.0
C573 C 0.49576 0.37921 0.69378 0.0
H574 H 0.53799 0.37475 0.73318 0.0
H575 H 0.36808 0.32492 0.53035 0.0
H576 H 0.50451 0.9631 0.4135 0.0
H577 H 0.50356 0.93065 0.38901 0.0
H578 H 0.55445 0.93059 0.44888 0.0
H579 H 0.55479 0.96254 0.47388 0.0
H580 H 0.56797 0.9325 0.38998 0.0
H581 H 0.49893 0.88899 0.45314 0.0
H582 H 0.45845 0.87627 0.47467 0.0
H583 H 0.42229 0.85202 0.39605 0.0
H584 H 0.4627 0.8654 0.3738 0.0
H585 H 0.57293 0.83326 0.36307 0.0
H586 H 0.56502 0.86079 0.38594 0.0
H587 H 0.50533 0.84381 0.32886 0.0
H588 H 0.51311 0.81558 0.30575 0.0
H589 H 0.49408 0.85094 0.38226 0.0
H590 H 0.56079 0.89424 0.31816 0.0
H591 H 0.60022 0.90553 0.29484 0.0
H592 H 0.63927 0.9299 0.37194 0.0
H593 H 0.60002 0.91854 0.39581 0.0
C594 C 0.51542 0.9561 0.42149 0.0
C595 C 0.5298 0.96548 0.44565 0.0
C596 C 0.51479 0.93746 0.40752 0.0
C597 C 0.52894 0.92807 0.417 0.0
C598 C 0.54334 0.93745 0.4411 0.0
C599 C 0.54347 0.95567 0.45547 0.0
C600 C 0.52947 0.90908 0.40138 0.0
C601 C 0.55184 0.91463 0.38855 0.0
C602 C 0.50819 0.8859 0.39844 0.0
C603 C 0.48398 0.87855 0.41168 0.0
C604 C 0.48245 0.88136 0.4403 0.0
C605 C 0.45948 0.87394 0.45267 0.0
C606 C 0.43781 0.86334 0.43674 0.0
C607 C 0.43909 0.86019 0.40838 0.0
C608 C 0.46204 0.86781 0.39585 0.0
C609 C 0.55784 0.83503 0.35548 0.0
C610 C 0.54375 0.82219 0.33239 0.0
C611 C 0.5534 0.85097 0.36858 0.0
C612 C 0.53494 0.85496 0.35888 0.0
C613 C 0.51982 0.84124 0.33674 0.0
C614 C 0.52419 0.825 0.32358 0.0
C615 C 0.5327 0.87429 0.37133 0.0
C616 C 0.5101 0.86888 0.38347 0.0
C617 C 0.55361 0.89779 0.37324 0.0
C618 C 0.57741 0.90534 0.35883 0.0
C619 C 0.57777 0.90192 0.33017 0.0
C620 C 0.60008 0.90832 0.31685 0.0
C621 C 0.62219 0.91828 0.33195 0.0
C622 C 0.6221 0.92212 0.36031 0.0
C623 C 0.59983 0.91574 0.37374 0.0
H624 H 0.63941 0.92303 0.32168 0.0
H625 H 0.42004 0.85759 0.44636 0.0
H626 H 0.60476 0.53916 1.00933 0.0
H627 H 0.64025 0.55542 0.97821 0.0
H628 H 0.60506 0.58009 0.92176 0.0
H629 H 0.56864 0.56288 0.9527 0.0
H630 H 0.62274 0.5595 0.89379 0.0
H631 H 0.6581 0.61972 0.95972 0.0
H632 H 0.66894 0.63786 1.00575 0.0
H633 H 0.71177 0.60624 0.02314 0.0
H634 H 0.7009 0.5876 0.97739 0.0
H635 H 0.74178 0.61043 0.81993 0.0
H636 H 0.70982 0.61141 0.84769 0.0
H637 H 0.70628 0.55817 0.90375 0.0
H638 H 0.73737 0.55657 0.87545 0.0
H639 H 0.70997 0.60301 0.92736 0.0
H640 H 0.66712 0.5384 0.86115 0.0
H641 H 0.65699 0.52328 0.81361 0.0
H642 H 0.62814 0.56769 0.79544 0.0
H643 H 0.63911 0.58385 0.84248 0.0
C644 C 0.60459 0.5483 0.9905 0.0
C645 C 0.58383 0.54972 0.98351 0.0
C646 C 0.62507 0.55779 0.97276 0.0
C647 C 0.62561 0.5694 0.94782 0.0
C648 C 0.60513 0.57132 0.94097 0.0
C649 C 0.58438 0.56155 0.95869 0.0
C650 C 0.64685 0.57774 0.92829 0.0
C651 C 0.64184 0.56956 0.90098 0.0
C652 C 0.67186 0.59094 0.93751 0.0
C653 C 0.67858 0.60217 0.9651 0.0
C654 C 0.6697 0.6165 0.97341 0.0
C655 C 0.67587 0.62689 0.99946 0.0
C656 C 0.69101 0.62319 0.01736 0.0
C657 C 0.70005 0.60911 1.00924 0.0
C658 C 0.69393 0.59866 0.98322 0.0
C659 C 0.73427 0.59921 0.83838 0.0
C660 C 0.74182 0.58343 0.84578 0.0
C661 C 0.7161 0.59973 0.85409 0.0
C662 C 0.70583 0.58487 0.87767 0.0
C663 C 0.71411 0.56979 0.88562 0.0
C664 C 0.7317 0.56881 0.86953 0.0
C665 C 0.68557 0.58397 0.89361 0.0
C666 C 0.69086 0.59355 0.92015 0.0
C667 C 0.66094 0.5725 0.88349 0.0
C668 C 0.65445 0.56273 0.85518 0.0
C669 C 0.6591 0.54532 0.84685 0.0
C670 C 0.65318 0.53654 0.81997 0.0
C671 C 0.64218 0.5447 0.80139 0.0
C672 C 0.63697 0.56159 0.8097 0.0
C673 C 0.64309 0.57062 0.83644 0.0
H674 H 0.63753 0.53783 0.78062 0.0
H675 H 0.69576 0.63124 0.03752 0.0
H676 H 0.11217 0.54683 0.46928 0.0
H677 H 0.143 0.58103 0.44124 0.0
H678 H 0.0986 0.61223 0.44709 0.0
H679 H 0.06776 0.57811 0.47556 0.0
H680 H 0.11292 0.61204 0.39271 0.0
H681 H 0.15322 0.63574 0.48132 0.0
H682 H 0.17114 0.63108 0.52481 0.0
H683 H 0.22366 0.62316 0.47825 0.0
H684 H 0.20581 0.62745 0.43443 0.0
H685 H 0.19142 0.72604 0.33809 0.0
H686 H 0.16642 0.69177 0.36798 0.0
H687 H 0.22053 0.67171 0.36062 0.0
H688 H 0.24652 0.70705 0.33036 0.0
H689 H 0.20278 0.66415 0.41413 0.0
H690 H 0.16451 0.64152 0.32592 0.0
H691 H 0.14693 0.64527 0.28167 0.0
H692 H 0.0907 0.6491 0.32597 0.0
H693 H 0.10817 0.64573 0.37053 0.0
C694 C 0.10911 0.56115 0.46509 0.0
C695 C 0.08739 0.55961 0.47502 0.0
C696 C 0.12686 0.58079 0.44894 0.0
C697 C 0.12337 0.59946 0.44186 0.0
C698 C 0.10191 0.59819 0.45214 0.0
C699 C 0.08431 0.57869 0.4687 0.0
C700 C 0.14138 0.61963 0.42272 0.0
C701 C 0.13249 0.62359 0.39765 0.0
C702 C 0.16727 0.63427 0.4283 0.0
C703 C 0.17799 0.63165 0.45459 0.0
C704 C 0.16843 0.63278 0.48034 0.0
C705 C 0.17861 0.63026 0.50506 0.0
C706 C 0.19848 0.62676 0.50429 0.0
C707 C 0.20824 0.62583 0.47881 0.0
C708 C 0.19811 0.62833 0.45403 0.0
C709 C 0.1983 0.7145 0.34253 0.0
C710 C 0.22119 0.71955 0.33129 0.0
C711 C 0.18369 0.69461 0.35977 0.0
C712 C 0.19105 0.67857 0.36641 0.0
C713 C 0.21416 0.68361 0.35579 0.0
C714 C 0.22903 0.70382 0.33835 0.0
C715 C 0.1742 0.65683 0.38431 0.0
C716 C 0.18325 0.65252 0.4091 0.0
C717 C 0.14845 0.64159 0.37835 0.0
C718 C 0.13779 0.64356 0.35159 0.0
C719 C 0.14851 0.64334 0.32624 0.0
C720 C 0.13854 0.64537 0.3011 0.0
C721 C 0.11774 0.64747 0.30101 0.0
C722 C 0.10683 0.64749 0.32607 0.0
C723 C 0.11674 0.64549 0.35128 0.0
H724 H 0.11005 0.64904 0.28152 0.0
H725 H 0.20634 0.62482 0.52345 0.0
H726 H 0.4944 0.05568 0.98282 0.0
H727 H 0.47901 0.07331 0.95011 0.0
H728 H 0.48453 0.12098 0.01272 0.0
H729 H 0.50003 0.10324 0.046 0.0
H730 H 0.43933 0.09943 0.9743 0.0
H731 H 0.5302 0.14318 0.97473 0.0
H732 H 0.5701 0.14506 0.97282 0.0
H733 H 0.55105 0.11304 0.89288 0.0
H734 H 0.51085 0.11069 0.8945 0.0
H735 H 0.44208 0.18846 0.88838 0.0
H736 H 0.44821 0.16504 0.92364 0.0
H737 H 0.47096 0.13582 0.85983 0.0
H738 H 0.46607 0.16037 0.82478 0.0
H739 H 0.50067 0.14646 0.89958 0.0
H740 H 0.41206 0.1034 0.89556 0.0
H741 H 0.37007 0.09717 0.896 0.0
H742 H 0.3814 0.12232 0.9793 0.0
H743 H 0.42361 0.129 0.97923 0.0
C744 C 0.4917 0.06941 0.99004 0.0
C745 C 0.49854 0.07814 0.01707 0.0
C746 C 0.483 0.07954 0.9712 0.0
C747 C 0.48085 0.09848 0.97903 0.0
C748 C 0.4861 0.10632 1.00641 0.0
C749 C 0.49506 0.0963 0.02528 0.0
C750 C 0.47569 0.11159 0.95773 0.0
C751 C 0.45276 0.11001 0.95811 0.0
C752 C 0.49298 0.12457 0.93618 0.0
C753 C 0.51745 0.1266 0.93483 0.0
C754 C 0.53446 0.13642 0.95681 0.0
C755 C 0.55713 0.13759 0.95578 0.0
C756 C 0.56309 0.12914 0.93276 0.0
C757 C 0.54641 0.11958 0.91069 0.0
C758 C 0.52369 0.11836 0.91164 0.0
C759 C 0.44809 0.1768 0.88196 0.0
C760 C 0.45349 0.17603 0.85397 0.0
C761 C 0.4515 0.16333 0.90206 0.0
C762 C 0.45963 0.14827 0.89442 0.0
C763 C 0.46468 0.14728 0.8663 0.0
C764 C 0.46184 0.1612 0.84629 0.0
C765 C 0.46408 0.13451 0.91586 0.0
C766 C 0.48701 0.13593 0.9156 0.0
C767 C 0.44649 0.12094 0.93713 0.0
C768 C 0.42109 0.11691 0.93729 0.0
C769 C 0.40567 0.10777 0.9139 0.0
C770 C 0.38181 0.10413 0.9141 0.0
C771 C 0.37309 0.1094 0.93764 0.0
C772 C 0.38819 0.11827 0.96107 0.0
C773 C 0.41207 0.12196 0.96098 0.0
H774 H 0.35462 0.10657 0.93775 0.0
H775 H 0.58067 0.13008 0.932 0.0
H776 H 0.461 0.52915 0.49084 0.0
H777 H 0.43076 0.53406 0.4634 0.0
H778 H 0.4337 0.49203 0.39875 0.0
H779 H 0.46319 0.48707 0.42545 0.0
H780 H 0.43719 0.53066 0.37637 0.0
H781 H 0.38404 0.4702 0.44498 0.0
H782 H 0.36945 0.45481 0.49259 0.0
H783 H 0.35501 0.51002 0.50571 0.0
H784 H 0.36983 0.52591 0.45825 0.0
H785 H 0.33111 0.4812 0.29307 0.0
H786 H 0.36387 0.49021 0.32633 0.0
H787 H 0.34389 0.53247 0.37233 0.0
H788 H 0.31046 0.52328 0.33853 0.0
H789 H 0.35133 0.50284 0.40752 0.0
H790 H 0.39803 0.55927 0.33613 0.0
H791 H 0.41237 0.57455 0.28846 0.0
H792 H 0.43992 0.52833 0.28071 0.0
H793 H 0.42532 0.51241 0.32815 0.0
C794 C 0.45509 0.5209 0.47084 0.0
C795 C 0.46474 0.50767 0.46062 0.0
C796 C 0.43772 0.52368 0.45511 0.0
C797 C 0.42975 0.51344 0.42873 0.0
C798 C 0.43944 0.5003 0.41877 0.0
C799 C 0.45642 0.4974 0.43436 0.0
C800 C 0.41159 0.51611 0.41085 0.0
C801 C 0.41841 0.52451 0.38326 0.0
C802 C 0.38722 0.50896 0.41976 0.0
C803 C 0.37835 0.49942 0.44823 0.0
C804 C 0.37797 0.47918 0.45811 0.0
C805 C 0.36961 0.47034 0.48504 0.0
C806 C 0.36139 0.48149 0.5022 0.0
C807 C 0.36144 0.50145 0.49242 0.0
C808 C 0.36981 0.51037 0.46551 0.0
C809 C 0.33376 0.49271 0.31 0.0
C810 C 0.31807 0.5016 0.31283 0.0
C811 C 0.35269 0.49791 0.32913 0.0
C812 C 0.35675 0.5122 0.35201 0.0
C813 C 0.34133 0.52144 0.35491 0.0
C814 C 0.32234 0.51639 0.33538 0.0
C815 C 0.37672 0.51658 0.37277 0.0
C816 C 0.37026 0.50946 0.40079 0.0
C817 C 0.40154 0.525 0.3643 0.0
C818 C 0.41039 0.53452 0.3357 0.0
C819 C 0.40694 0.5522 0.32419 0.0
C820 C 0.41512 0.56097 0.2972 0.0
C821 C 0.42697 0.55235 0.28154 0.0
C822 C 0.43071 0.53496 0.29286 0.0
C823 C 0.42249 0.52606 0.31981 0.0
H824 H 0.43333 0.5592 0.26066 0.0
H825 H 0.35492 0.47461 0.52304 0.0
H826 H 1.00111 0.43894 0.95996 0.0
H827 H 0.97828 0.40306 0.93299 0.0
H828 H 0.01688 0.44285 0.85873 0.0
H829 H 0.03941 0.4791 0.88564 0.0
H830 H 0.96739 0.41592 0.85072 0.0
H831 H 0.02925 0.40284 0.88689 0.0
H832 H 0.05598 0.40044 0.9226 0.0
H833 H 0.99133 0.34484 0.96552 0.0
H834 H 0.96416 0.34712 0.9303 0.0
H835 H 0.89539 0.30696 0.78064 0.0
H836 H 0.93252 0.34295 0.7974 0.0
H837 H 0.90961 0.31844 0.88194 0.0
H838 H 0.87291 0.2825 0.86535 0.0
H839 H 0.95818 0.33925 0.87766 0.0
H840 H 0.89699 0.35789 0.84701 0.0
H841 H 0.86959 0.36121 0.81301 0.0
H842 H 0.93273 0.40678 0.76085 0.0
H843 H 0.96047 0.40349 0.79441 0.0
C844 C 1.00481 0.44008 0.93792 0.0
C845 C 0.02197 0.4619 0.92493 0.0
C846 C 0.99195 0.41948 0.92255 0.0
C847 C 0.99606 0.42021 0.89387 0.0
C848 C 1.01353 0.44187 0.88087 0.0
C849 C 0.0265 0.46253 0.8963 0.0
C850 C 0.9807 0.39859 0.87743 0.0
C851 C 0.96582 0.39926 0.85613 0.0
C852 C 0.97838 0.37679 0.88479 0.0
C853 C 0.99465 0.37525 0.90599 0.0
C854 C 0.02071 0.39021 0.90404 0.0
C855 C 0.03595 0.38885 0.92418 0.0
C856 C 0.02536 0.37252 0.94633 0.0
C857 C 0.9995 0.35748 0.94835 0.0
C858 C 0.98418 0.35877 0.92827 0.0
C859 C 0.89845 0.30921 0.80278 0.0
C860 C 0.88114 0.29195 0.82166 0.0
C861 C 0.91963 0.32976 0.81234 0.0
C862 C 0.92366 0.33359 0.84095 0.0
C863 C 0.90696 0.31589 0.85977 0.0
C864 C 0.88597 0.29528 0.85024 0.0
C865 C 0.94429 0.35646 0.85164 0.0
C866 C 0.96017 0.35602 0.87182 0.0
C867 C 0.94745 0.37847 0.84337 0.0
C868 C 0.93075 0.38024 0.82306 0.0
C869 C 0.90499 0.36845 0.82818 0.0
C870 C 0.88941 0.37036 0.80902 0.0
C871 C 0.89943 0.3842 0.78481 0.0
C872 C 0.92501 0.39607 0.77962 0.0
C873 C 0.94067 0.39419 0.7987 0.0
H874 H 0.88737 0.38586 0.77018 0.0
H875 H 0.03719 0.3715 0.96191 0.0
H876 H 0.9531 0.5192 0.99386 0.0
H877 H 0.91688 0.51776 0.9722 0.0
H878 H 0.94054 0.50922 0.89208 0.0
H879 H 0.97644 0.51112 0.91326 0.0
H880 H 0.92959 0.54077 0.88601 0.0
H881 H 0.88727 0.46333 0.92981 0.0
H882 H 0.87429 0.43441 0.96881 0.0
H883 H 0.84031 0.4671 1.00931 0.0
H884 H 0.85337 0.49641 0.97069 0.0
H885 H 0.8236 0.51609 0.80556 0.0
H886 H 0.85471 0.51099 0.8301 0.0
H887 H 0.83119 0.52354 0.90796 0.0
H888 H 0.80008 0.52832 0.88377 0.0
H889 H 0.84148 0.4901 0.91615 0.0
H890 H 0.88419 0.56756 0.87242 0.0
H891 H 0.89697 0.5963 0.83325 0.0
H892 H 0.93036 0.56316 0.79252 0.0
H893 H 0.91749 0.53402 0.83131 0.0
C894 C 0.9503 0.51662 0.97172 0.0
C895 C 0.9679 0.51537 0.95542 0.0
C896 C 0.92952 0.51581 0.95924 0.0
C897 C 0.92569 0.51344 0.93021 0.0
C898 C 0.94288 0.51135 0.91432 0.0
C899 C 0.96353 0.51234 0.92663 0.0
C900 C 0.90469 0.51408 0.91579 0.0
C901 C 0.91031 0.52937 0.89251 0.0
C902 C 0.87937 0.49978 0.92428 0.0
C903 C 0.87154 0.48222 0.94751 0.0
C904 C 0.87721 0.46447 0.94714 0.0
C905 C 0.8698 0.44798 0.96915 0.0
C906 C 0.85655 0.44896 0.99156 0.0
C907 C 0.85061 0.46639 0.99196 0.0
C908 C 0.858 0.48293 0.97001 0.0
C909 C 0.82476 0.51739 0.82794 0.0
C910 C 0.8092 0.52271 0.84251 0.0
C911 C 0.84279 0.51467 0.84203 0.0
C912 C 0.84582 0.51723 0.87107 0.0
C913 C 0.82952 0.5215 0.88567 0.0
C914 C 0.81165 0.5243 0.87166 0.0
C915 C 0.86645 0.5165 0.8862 0.0
C916 C 0.86077 0.50136 0.90965 0.0
C917 C 0.89177 0.53089 0.87787 0.0
C918 C 0.89966 0.54847 0.85462 0.0
C919 C 0.89411 0.56631 0.85502 0.0
C920 C 0.90139 0.58268 0.8329 0.0
C921 C 0.91441 0.58151 0.81037 0.0
C922 C 0.92024 0.56401 0.80996 0.0
C923 C 0.91298 0.54758 0.83201 0.0
H924 H 0.92002 0.5942 0.79327 0.0
H925 H 0.85082 0.43618 1.00858 0.0
H926 H 0.42437 0.97564 0.52791 0.0
H927 H 0.39216 0.94443 0.4994 0.0
H928 H 0.43664 0.91333 0.49194 0.0
H929 H 0.46898 0.94447 0.52036 0.0
H930 H 0.42453 0.92423 0.44175 0.0
H931 H 0.38169 0.88345 0.52574 0.0
H932 H 0.36298 0.8793 0.57181 0.0
H933 H 0.31205 0.89657 0.5361 0.0
H934 H 0.33069 0.90115 0.48986 0.0
H935 H 0.335 0.82619 0.36162 0.0
H936 H 0.364 0.85049 0.39771 0.0
H937 H 0.32368 0.88541 0.4083 0.0
H938 H 0.29502 0.86181 0.37174 0.0
H939 H 0.33371 0.87094 0.45804 0.0
H940 H 0.37552 0.91075 0.37381 0.0
H941 H 0.39485 0.91641 0.32787 0.0
H942 H 0.44938 0.90401 0.36361 0.0
H943 H 0.43009 0.89788 0.4097 0.0
C944 C 0.427 0.96177 0.52093 0.0
C945 C 0.44939 0.96274 0.52618 0.0
C946 C 0.40854 0.94391 0.50463 0.0
C947 C 0.4121 0.92667 0.4934 0.0
C948 C 0.43359 0.92655 0.50032 0.0
C949 C 0.452 0.94432 0.51674 0.0
C950 C 0.39494 0.91063 0.47193 0.0
C951 C 0.40473 0.91213 0.4454 0.0
C952 C 0.36903 0.89564 0.47657 0.0
C953 C 0.35774 0.89284 0.50436 0.0
C954 C 0.36664 0.88656 0.52774 0.0
C955 C 0.35601 0.88408 0.55388 0.0
C956 C 0.33637 0.88772 0.55689 0.0
C957 C 0.32727 0.89377 0.53375 0.0
C958 C 0.33784 0.89628 0.50756 0.0
C959 C 0.33236 0.8392 0.37125 0.0
C960 C 0.31246 0.84188 0.36357 0.0
C961 C 0.34896 0.85302 0.39204 0.0
C962 C 0.34597 0.86974 0.40565 0.0
C963 C 0.3262 0.87247 0.39816 0.0
C964 C 0.30974 0.85885 0.37724 0.0
C965 C 0.36334 0.88433 0.42785 0.0
C966 C 0.35356 0.88273 0.45443 0.0
C967 C 0.3893 0.8994 0.42315 0.0
C968 C 0.4008 0.90302 0.39521 0.0
C969 C 0.3913 0.90872 0.37185 0.0
C970 C 0.40236 0.91218 0.34575 0.0
C971 C 0.4232 0.91037 0.34276 0.0
C972 C 0.4331 0.90521 0.36588 0.0
C973 C 0.42205 0.90166 0.39199 0.0
H974 H 0.43181 0.91316 0.32257 0.0
H975 H 0.32817 0.88579 0.57715 0.0
H976 H 0.48717 0.4049 0.99481 0.0
H977 H 0.49014 0.38004 0.96085 0.0
H978 H 0.53429 0.44118 0.90737 0.0
H979 H 0.53157 0.46641 0.94149 0.0
H980 H 0.50094 0.40418 0.87701 0.0
H981 H 0.56099 0.41578 0.94586 0.0
H982 H 0.57653 0.41609 0.99304 0.0
H983 H 0.52402 0.34119 1.00226 0.0
H984 H 0.50792 0.34048 0.95525 0.0
H985 H 0.5349 0.34269 0.78635 0.0
H986 H 0.53703 0.37094 0.81954 0.0
H987 H 0.49598 0.31396 0.87939 0.0
H988 H 0.49444 0.28576 0.84663 0.0
H989 H 0.53008 0.35084 0.90569 0.0
H990 H 0.46888 0.3395 0.83754 0.0
H991 H 0.45402 0.3389 0.7899 0.0
H992 H 0.50887 0.4131 0.7791 0.0
H993 H 0.52432 0.41407 0.82656 0.0
C994 C 0.49777 0.4133 0.97605 0.0
C995 C 0.50932 0.43797 0.97136 0.0
C996 C 0.49942 0.3989 0.95646 0.0
C997 C 0.51277 0.4086 0.93149 0.0
C998 C 0.52389 0.43311 0.92639 0.0
C999 C 0.52227 0.4476 0.94604 0.0
C1000 C 0.51508 0.39311 0.91095 0.0
C1001 C 0.50767 0.3928 0.88325 0.0
C1002 C 0.52343 0.37778 0.91887 0.0
C1003 C 0.5331 0.37812 0.94712 0.0
C1004 C 0.55263 0.3994 0.95803 0.0
C1005 C 0.56155 0.39964 0.98473 0.0
C1006 C 0.55122 0.37868 1.00066 0.0
C1007 C 0.53198 0.35742 0.9899 0.0
C1008 C 0.52296 0.35708 0.96322 0.0
C1009 C 0.52656 0.33615 0.80668 0.0
C1010 C 0.51446 0.31179 0.81362 0.0
C1011 C 0.52759 0.35238 0.82567 0.0
C1012 C 0.51621 0.34472 0.85202 0.0
C1013 C 0.50486 0.32052 0.85929 0.0
C1014 C 0.50399 0.30432 0.84042 0.0
C1015 C 0.51566 0.36166 0.87182 0.0
C1016 C 0.5234 0.36225 0.8994 0.0
C1017 C 0.50758 0.3772 0.86378 0.0
C1018 C 0.49789 0.37681 0.83552 0.0
C1019 C 0.47784 0.35567 0.82497 0.0
C1020 C 0.46931 0.35526 0.798 0.0
C1021 C 0.48052 0.37594 0.78148 0.0
C1022 C 0.50022 0.3971 0.79193 0.0
C1023 C 0.50886 0.39759 0.81886 0.0
H1024 H 0.4739 0.37558 0.7606 0.0
H1025 H 0.55816 0.3789 0.02133 0.0
H1026 H 0.02599 0.47673 0.38934 0.0
H1027 H 0.05112 0.46427 0.36633 0.0
H1028 H 0.04832 0.42494 0.44021 0.0
H1029 H 0.02327 0.43765 0.4635 0.0
H1030 H 0.09452 0.45341 0.42355 0.0
H1031 H 0.01893 0.39702 0.37853 0.0
H1032 H 0.98028 0.38308 0.35205 0.0
H1033 H 0.02265 0.42818 0.28287 0.0
H1034 H 0.06154 0.44266 0.30907 0.0
H1035 H 0.17161 0.42099 0.35803 0.0
H1036 H 0.1346 0.41643 0.38018 0.0
H1037 H 0.12882 0.45782 0.31364 0.0
H1038 H 0.16506 0.46165 0.291 0.0
H1039 H 0.0838 0.42206 0.32875 0.0
H1040 H 0.15722 0.48301 0.37491 0.0
H1041 H 0.19671 0.49945 0.40049 0.0
H1042 H 0.15888 0.44812 0.46649 0.0
H1043 H 0.1192 0.43117 0.44109 0.0
C1044 C 0.03008 0.46487 0.40046 0.0
C1045 C 0.02269 0.45822 0.4283 0.0
C1046 C 0.04448 0.45773 0.38724 0.0
C1047 C 0.05148 0.44351 0.40145 0.0
C1048 C 0.04315 0.43593 0.42884 0.0
C1049 C 0.02889 0.44321 0.44214 0.0
C1050 C 0.06965 0.43878 0.38876 0.0
C1051 C 0.09186 0.44597 0.4031 0.0
C1052 C 0.06655 0.42976 0.36172 0.0
C1053 C 0.04316 0.42104 0.34587 0.0
C1054 C 0.02 0.4041 0.35775 0.0
C1055 C 0.99805 0.39608 0.34277 0.0
C1056 C 0.999 0.40477 0.31582 0.0
C1057 C 0.02193 0.42147 0.30376 0.0
C1058 C 0.04394 0.42957 0.31866 0.0
C1059 C 0.1622 0.42877 0.34792 0.0
C1060 C 0.17153 0.44201 0.323 0.0
C1061 C 0.14116 0.42629 0.36067 0.0
C1062 C 0.1292 0.43712 0.34878 0.0
C1063 C 0.13782 0.44942 0.32328 0.0
C1064 C 0.15874 0.45184 0.31053 0.0
C1065 C 0.10862 0.43692 0.36347 0.0
C1066 C 0.0861 0.42896 0.34946 0.0
C1067 C 0.1115 0.44549 0.39068 0.0
C1068 C 0.13533 0.45563 0.40595 0.0
C1069 C 0.15737 0.4751 0.39477 0.0
C1070 C 0.17978 0.48453 0.40925 0.0
C1071 C 0.18032 0.47478 0.43505 0.0
C1072 C 0.15844 0.45561 0.44647 0.0
C1073 C 0.13599 0.44609 0.43204 0.0
H1074 H 0.19769 0.48212 0.44624 0.0
H1075 H 0.98198 0.39853 0.30426 0.0
H1076 H 0.54947 0.06646 0.93542 0.0
H1077 H 0.5816 0.09509 0.90345 0.0
H1078 H 0.63801 0.09467 0.95361 0.0
H1079 H 0.60568 0.06586 0.98605 0.0
H1080 H 0.65245 0.13976 0.93887 0.0
H1081 H 0.62056 0.0677 0.88894 0.0
H1082 H 0.58807 0.03056 0.86772 0.0
H1083 H 0.56681 0.06963 0.81472 0.0
H1084 H 0.59897 0.10699 0.83587 0.0
H1085 H 0.7509 0.20745 0.84003 0.0
H1086 H 0.72041 0.17801 0.87307 0.0
H1087 H 0.66068 0.16945 0.82084 0.0
H1088 H 0.69113 0.19826 0.78733 0.0
H1089 H 0.64859 0.12818 0.8373 0.0
H1090 H 0.67812 0.19958 0.88701 0.0
H1091 H 0.70917 0.23733 0.90829 0.0
H1092 H 0.73318 0.20068 0.96164 0.0
H1093 H 0.70247 0.16273 0.94042 0.0
C1094 C 0.56865 0.07209 0.93959 0.0
C1095 C 0.57474 0.06344 0.9634 0.0
C1096 C 0.58714 0.0886 0.92111 0.0
C1097 C 0.61249 0.09715 0.92569 0.0
C1098 C 0.6187 0.08847 0.94936 0.0
C1099 C 0.6001 0.07176 0.96786 0.0
C1100 C 0.63232 0.1155 0.90614 0.0
C1101 C 0.6518 0.13701 0.91671 0.0
C1102 C 0.63133 0.11255 0.87697 0.0
C1103 C 0.61205 0.09012 0.86415 0.0
C1104 C 0.60884 0.06835 0.87289 0.0
C1105 C 0.5905 0.04726 0.86086 0.0
C1106 C 0.57535 0.04773 0.83993 0.0
C1107 C 0.57855 0.0693 0.83094 0.0
C1108 C 0.59685 0.09044 0.84293 0.0
C1109 C 0.73128 0.19957 0.83569 0.0
C1110 C 0.72368 0.20555 0.81088 0.0
C1111 C 0.7137 0.18264 0.85478 0.0
C1112 C 0.68787 0.17137 0.84998 0.0
C1113 C 0.68031 0.17761 0.82535 0.0
C1114 C 0.69787 0.19434 0.80615 0.0
C1115 C 0.66878 0.15262 0.86994 0.0
C1116 C 0.64938 0.13099 0.85945 0.0
C1117 C 0.66968 0.15559 0.89914 0.0
C1118 C 0.68818 0.17836 0.91191 0.0
C1119 C 0.69016 0.1996 0.90313 0.0
C1120 C 0.70767 0.22102 0.91521 0.0
C1121 C 0.72319 0.22141 0.93624 0.0
C1122 C 0.72118 0.20036 0.9453 0.0
C1123 C 0.70371 0.17888 0.93327 0.0
H1124 H 0.73673 0.23802 0.94557 0.0
H1125 H 0.56116 0.03138 0.83064 0.0
H1126 H 0.61351 0.59037 0.44145 0.0
H1127 H 0.6245 0.62698 0.41581 0.0
H1128 H 0.54962 0.59314 0.3841 0.0
H1129 H 0.53866 0.55657 0.40957 0.0
H1130 H 0.58621 0.62376 0.34498 0.0
H1131 H 0.56269 0.62299 0.44119 0.0
H1132 H 0.56693 0.61996 0.49181 0.0
H1133 H 0.64233 0.67944 0.4874 0.0
H1134 H 0.63863 0.68258 0.43665 0.0
H1135 H 0.55668 0.70929 0.31887 0.0
H1136 H 0.55904 0.67613 0.33643 0.0
H1137 H 0.63098 0.72442 0.37191 0.0
H1138 H 0.62817 0.75801 0.35565 0.0
H1139 H 0.60387 0.68932 0.40701 0.0
H1140 H 0.62481 0.69476 0.31169 0.0
H1141 H 0.62038 0.69809 0.2612 0.0
H1142 H 0.5515 0.63062 0.2629 0.0
H1143 H 0.55506 0.62714 0.31348 0.0
C1144 C 0.59965 0.59058 0.42836 0.0
C1145 C 0.57518 0.57077 0.42761 0.0
C1146 C 0.60589 0.61149 0.41388 0.0
C1147 C 0.58777 0.61278 0.39835 0.0
C1148 C 0.56385 0.59249 0.39599 0.0
C1149 C 0.55757 0.5717 0.41064 0.0
C1150 C 0.59265 0.63571 0.38704 0.0
C1151 C 0.59007 0.63814 0.35844 0.0
C1152 C 0.59832 0.65463 0.40464 0.0
C1153 C 0.60049 0.65282 0.43512 0.0
C1154 C 0.58023 0.63529 0.451 0.0
C1155 C 0.58253 0.63357 0.4797 0.0
C1156 C 0.60491 0.64945 0.4928 0.0
C1157 C 0.62503 0.66712 0.47722 0.0
C1158 C 0.62284 0.66888 0.44849 0.0
C1159 C 0.57288 0.71306 0.33077 0.0
C1160 C 0.59225 0.7365 0.33583 0.0
C1161 C 0.57437 0.69396 0.34043 0.0
C1162 C 0.59545 0.69778 0.35493 0.0
C1163 C 0.61465 0.72108 0.3605 0.0
C1164 C 0.61307 0.74026 0.35104 0.0
C1165 C 0.5969 0.67731 0.36488 0.0
C1166 C 0.6006 0.67527 0.3933 0.0
C1167 C 0.59239 0.65883 0.34703 0.0
C1168 C 0.59016 0.66076 0.31649 0.0
C1169 C 0.60859 0.68071 0.30135 0.0
C1170 C 0.6062 0.68264 0.27269 0.0
C1171 C 0.5856 0.66461 0.25885 0.0
C1172 C 0.56735 0.64462 0.27365 0.0
C1173 C 0.56955 0.64265 0.30232 0.0
H1174 H 0.5838 0.66609 0.23665 0.0
H1175 H 0.60665 0.64811 0.51503 0.0
H1176 H 0.5477 0.08727 0.5976 0.0
H1177 H 0.54949 0.11529 0.63108 0.0
H1178 H 0.4942 0.12039 0.5843 0.0
H1179 H 0.49296 0.09314 0.55042 0.0
H1180 H 0.52807 0.16268 0.60049 0.0
H1181 H 0.48173 0.08624 0.64791 0.0
H1182 H 0.47547 0.04861 0.66659 0.0
H1183 H 0.53979 0.08705 0.71834 0.0
H1184 H 0.54664 0.12491 0.69966 0.0
H1185 H 0.49069 0.21379 0.70203 0.0
H1186 H 0.49389 0.18899 0.6679 0.0
H1187 H 0.54723 0.18455 0.71961 0.0
H1188 H 0.54355 0.20883 0.75425 0.0
H1189 H 0.51671 0.14287 0.70126 0.0
H1190 H 0.5632 0.21877 0.65618 0.0
H1191 H 0.5717 0.25717 0.63735 0.0
H1192 H 0.51016 0.22114 0.58138 0.0
H1193 H 0.50108 0.18251 0.60013 0.0
C1194 C 0.53589 0.0943 0.59445 0.0
C1195 C 0.52028 0.08785 0.57108 0.0
C1196 C 0.53681 0.11028 0.61378 0.0
C1197 C 0.52168 0.11983 0.61074 0.0
C1198 C 0.50615 0.11346 0.58734 0.0
C1199 C 0.50548 0.09777 0.56784 0.0
C1200 C 0.52192 0.13642 0.63173 0.0
C1201 C 0.52524 0.15814 0.62248 0.0
C1202 C 0.51913 0.13115 0.6607 0.0
C1203 C 0.51481 0.1084 0.67221 0.0
C1204 C 0.49461 0.08666 0.66316 0.0
C1205 C 0.49096 0.06529 0.67376 0.0
C1206 C 0.50726 0.06544 0.6936 0.0
C1207 C 0.52718 0.08696 0.70298 0.0
C1208 C 0.53095 0.10837 0.6924 0.0
C1209 C 0.50337 0.20782 0.70608 0.0
C1210 C 0.51695 0.21356 0.73102 0.0
C1211 C 0.50525 0.1936 0.68637 0.0
C1212 C 0.52106 0.18491 0.69073 0.0
C1213 C 0.53486 0.19087 0.7155 0.0
C1214 C 0.53285 0.20496 0.73532 0.0
C1215 C 0.52255 0.16905 0.67 0.0
C1216 C 0.51958 0.14746 0.67929 0.0
C1217 C 0.52593 0.17455 0.64109 0.0
C1218 C 0.53131 0.19774 0.62976 0.0
C1219 C 0.55136 0.21903 0.64 0.0
C1220 C 0.5563 0.24084 0.62932 0.0
C1221 C 0.54144 0.24159 0.60824 0.0
C1222 C 0.52164 0.22053 0.59774 0.0
C1223 C 0.5166 0.19867 0.60837 0.0
H1224 H 0.5453 0.25849 0.59999 0.0
H1225 H 0.50442 0.04888 0.70174 0.0
H1226 H 0.46178 0.53298 0.02576 0.0
H1227 H 0.42905 0.53293 0.05221 0.0
H1228 H 0.37988 0.4581 0.03881 0.0
H1229 H 0.41256 0.45791 0.01242 0.0
H1230 H 0.35512 0.48334 0.03929 0.0
H1231 H 0.41424 0.47402 0.09345 0.0
H1232 H 0.45575 0.48527 0.11083 0.0
H1233 H 0.46651 0.55 0.14171 0.0
H1234 H 0.42526 0.53939 0.1239 0.0
H1235 H 0.27532 0.43925 0.15608 0.0
H1236 H 0.30465 0.44804 0.1186 0.0
H1237 H 0.3535 0.51826 0.14983 0.0
H1238 H 0.32496 0.5092 0.18834 0.0
H1239 H 0.37932 0.49994 0.1382 0.0
H1240 H 0.31848 0.50773 0.08889 0.0
H1241 H 0.2765 0.49615 0.07288 0.0
H1242 H 0.26867 0.43541 0.03348 0.0
H1243 H 0.31048 0.44643 0.04959 0.0
C1244 C 0.44375 0.51665 0.0276 0.0
C1245 C 0.43986 0.49534 0.01728 0.0
C1246 C 0.4251 0.51666 0.04286 0.0
C1247 C 0.40224 0.49543 0.04785 0.0
C1248 C 0.39746 0.47465 0.03527 0.0
C1249 C 0.41617 0.47456 0.02022 0.0
C1250 C 0.38464 0.49416 0.06889 0.0
C1251 C 0.3603 0.48689 0.06094 0.0
C1252 C 0.39168 0.49933 0.09702 0.0
C1253 C 0.41677 0.50603 0.10706 0.0
C1254 C 0.42559 0.4908 0.1036 0.0
C1255 C 0.44904 0.49703 0.11358 0.0
C1256 C 0.46371 0.5183 0.12741 0.0
C1257 C 0.45509 0.53352 0.13101 0.0
C1258 C 0.4317 0.52743 0.12093 0.0
C1259 C 0.29231 0.45654 0.15521 0.0
C1260 C 0.29763 0.47343 0.17552 0.0
C1261 C 0.30896 0.46168 0.1334 0.0
C1262 C 0.33115 0.48397 0.13106 0.0
C1263 C 0.33643 0.50097 0.15107 0.0
C1264 C 0.31991 0.49578 0.17305 0.0
C1265 C 0.34953 0.48898 0.10877 0.0
C1266 C 0.3741 0.49683 0.1165 0.0
C1267 C 0.34269 0.4845 0.08047 0.0
C1268 C 0.31756 0.47782 0.07064 0.0
C1269 C 0.30774 0.4918 0.07699 0.0
C1270 C 0.28399 0.48535 0.06786 0.0
C1271 C 0.26991 0.46503 0.05222 0.0
C1272 C 0.27959 0.45114 0.04562 0.0
C1273 C 0.30333 0.4575 0.05471 0.0
H1274 H 0.25152 0.46006 0.04518 0.0
H1275 H 0.4817 0.52291 0.13545 0.0
H1276 H 0.98297 0.48965 0.61704 0.0
H1277 H 0.9528 0.45678 0.64681 0.0
H1278 H 0.94502 0.40713 0.58569 0.0
H1279 H 0.97509 0.44017 0.55544 0.0
H1280 H 0.90026 0.394 0.60452 0.0
H1281 H 0.97701 0.41573 0.64936 0.0
H1282 H 0.0175 0.44199 0.6717 0.0
H1283 H 0.98146 0.45798 0.73475 0.0
H1284 H 0.9408 0.43216 0.7125 0.0
H1285 H 0.82976 0.2917 0.69522 0.0
H1286 H 0.85995 0.32294 0.66339 0.0
H1287 H 0.87305 0.37574 0.72266 0.0
H1288 H 0.84361 0.34457 0.75493 0.0
H1289 H 0.91572 0.38623 0.70406 0.0
H1290 H 0.83958 0.36636 0.65879 0.0
H1291 H 0.79873 0.34019 0.6371 0.0
H1292 H 0.83315 0.3209 0.57568 0.0
H1293 H 0.87419 0.34675 0.59723 0.0
C1294 C 0.97516 0.47176 0.60993 0.0
C1295 C 0.98186 0.46781 0.58369 0.0
C1296 C 0.95779 0.45281 0.62716 0.0
C1297 C 0.94653 0.42912 0.61895 0.0
C1298 C 0.95328 0.42508 0.59281 0.0
C1299 C 0.97073 0.44408 0.57551 0.0
C1300 C 0.92731 0.40881 0.63725 0.0
C1301 C 0.90388 0.39216 0.62617 0.0
C1302 C 0.93139 0.40639 0.66587 0.0
C1303 C 0.95588 0.4222 0.67907 0.0
C1304 C 0.97774 0.42504 0.66782 0.0
C1305 C 1.00072 0.43982 0.68049 0.0
C1306 C 1.00206 0.45171 0.70457 0.0
C1307 C 0.98041 0.44882 0.71605 0.0
C1308 C 0.95739 0.43411 0.70341 0.0
C1309 C 0.83878 0.30997 0.7014 0.0
C1310 C 0.83394 0.31541 0.7278 0.0
C1311 C 0.85615 0.32797 0.68305 0.0
C1312 C 0.86903 0.35205 0.6903 0.0
C1313 C 0.86375 0.35747 0.71642 0.0
C1314 C 0.84662 0.33951 0.73486 0.0
C1315 C 0.88858 0.37153 0.67141 0.0
C1316 C 0.9121 0.38804 0.68239 0.0
C1317 C 0.88453 0.37387 0.64277 0.0
C1318 C 0.8599 0.35829 0.62981 0.0
C1319 C 0.8384 0.35639 0.64079 0.0
C1320 C 0.81523 0.34164 0.6285 0.0
C1321 C 0.81334 0.32884 0.60508 0.0
C1322 C 0.83464 0.3308 0.59385 0.0
C1323 C 0.85786 0.34551 0.60609 0.0
H1324 H 0.79538 0.31743 0.59558 0.0
H1325 H 0.01987 0.46311 0.71438 0.0
H1326 H 0.62532 0.03182 0.11719 0.0
H1327 H 0.63058 1.00353 0.1447 0.0
H1328 H 0.55255 0.96458 0.16599 0.0
H1329 H 0.54717 0.99323 0.13947 0.0
H1330 H 0.61705 0.98212 0.20218 0.0
H1331 H 0.53283 0.90795 0.14534 0.0
H1332 H 0.50972 0.9017 0.10161 0.0
H1333 H 0.57631 0.9572 0.06143 0.0
H1334 H 0.59983 0.96354 0.10477 0.0
H1335 H 0.57959 0.86727 0.25852 0.0
H1336 H 0.58224 0.90337 0.24137 0.0
H1337 H 0.61224 0.89828 0.16367 0.0
H1338 H 0.60898 0.86177 0.18044 0.0
H1339 H 0.5743 0.90457 0.15558 0.0
H1340 H 0.64918 0.94094 0.20977 0.0
H1341 H 0.67471 0.94841 0.25168 0.0
H1342 H 0.63089 0.96956 0.29493 0.0
H1343 H 0.60491 0.96198 0.25335 0.0
C1344 C 0.6094 0.01777 0.12843 0.0
C1345 C 0.58566 0.01455 0.12551 0.0
C1346 C 0.61249 1.00159 0.14416 0.0
C1347 C 0.59188 0.98189 0.15697 0.0
C1348 C 0.56861 0.97962 0.15598 0.0
C1349 C 0.56556 0.9959 0.14056 0.0
C1350 C 0.59388 0.96209 0.16803 0.0
C1351 C 0.60768 0.96511 0.19215 0.0
C1352 C 0.58197 0.94013 0.15454 0.0
C1353 C 0.568 0.93634 0.12834 0.0
C1354 C 0.54253 0.91876 0.12713 0.0
C1355 C 0.52937 0.9152 0.10242 0.0
C1356 C 0.54156 0.92903 0.07876 0.0
C1357 C 0.56689 0.94652 0.07978 0.0
C1358 C 0.58013 0.95013 0.10442 0.0
C1359 C 0.58673 0.87381 0.23777 0.0
C1360 C 0.59385 0.86152 0.2207 0.0
C1361 C 0.5885 0.89461 0.22813 0.0
C1362 C 0.59754 0.90355 0.2013 0.0
C1363 C 0.60524 0.89166 0.18447 0.0
C1364 C 0.60351 0.87089 0.19412 0.0
C1365 C 0.59736 0.92435 0.19004 0.0
C1366 C 0.58371 0.92151 0.1658 0.0
C1367 C 0.60963 0.94647 0.20336 0.0
C1368 C 0.62502 0.95077 0.22849 0.0
C1369 C 0.64487 0.94701 0.22828 0.0
C1370 C 0.65946 0.95132 0.25195 0.0
C1371 C 0.65447 0.95953 0.27591 0.0
C1372 C 0.6348 0.96331 0.27631 0.0
C1373 C 0.62014 0.95903 0.25269 0.0
H1374 H 0.66585 0.96294 0.29418 0.0
H1375 H 0.5314 0.92618 0.0596 0.0
H1376 H 0.58617 0.52669 0.55567 0.0
H1377 H 0.6173 0.52793 0.58755 0.0
H1378 H 0.56776 0.51222 0.65662 0.0
H1379 H 0.53625 0.51023 0.62479 0.0
H1380 H 0.62099 0.5507 0.66504 0.0
H1381 H 0.57008 0.46938 0.63733 0.0
H1382 H 0.54974 0.43773 0.60307 0.0
H1383 H 0.62107 0.45897 0.56842 0.0
H1384 H 0.64182 0.49102 0.60223 0.0
H1385 H 0.68725 0.52964 0.76761 0.0
H1386 H 0.65293 0.52351 0.7377 0.0
H1387 H 0.68973 0.51625 0.66726 0.0
H1388 H 0.72352 0.52136 0.69762 0.0
H1389 H 0.64233 0.48921 0.65904 0.0
H1390 H 0.69399 0.56964 0.6855 0.0
H1391 H 0.71579 0.60315 0.71718 0.0
H1392 H 0.64571 0.58706 0.75045 0.0
H1393 H 0.62347 0.55285 0.71976 0.0
C1394 C 0.58199 0.52385 0.57769 0.0
C1395 C 0.55863 0.51851 0.58756 0.0
C1396 C 0.5998 0.52441 0.59592 0.0
C1397 C 0.59498 0.52009 0.62462 0.0
C1398 C 0.57206 0.51564 0.63466 0.0
C1399 C 0.55402 0.51454 0.61637 0.0
C1400 C 0.61346 0.51952 0.64398 0.0
C1401 C 0.6254 0.53707 0.66401 0.0
C1402 C 0.61987 0.50217 0.64224 0.0
C1403 C 0.60748 0.48276 0.62211 0.0
C1404 C 0.58142 0.46744 0.62225 0.0
C1405 C 0.56981 0.4494 0.60295 0.0
C1406 C 0.5841 0.44638 0.58353 0.0
C1407 C 0.61003 0.46135 0.58345 0.0
C1408 C 0.62172 0.47945 0.60269 0.0
C1409 C 0.68749 0.52575 0.74595 0.0
C1410 C 0.70781 0.52532 0.73519 0.0
C1411 C 0.66803 0.52269 0.72864 0.0
C1412 C 0.66876 0.52001 0.69978 0.0
C1413 C 0.68847 0.51832 0.68929 0.0
C1414 C 0.70777 0.52102 0.70674 0.0
C1415 C 0.64996 0.5204 0.6805 0.0
C1416 C 0.63797 0.50286 0.66032 0.0
C1417 C 0.64376 0.53802 0.68184 0.0
C1418 C 0.65707 0.55846 0.70055 0.0
C1419 C 0.68322 0.57304 0.69983 0.0
C1420 C 0.69566 0.59213 0.71767 0.0
C1421 C 0.68214 0.59709 0.736 0.0
C1422 C 0.65615 0.58301 0.73647 0.0
C1423 C 0.64362 0.56374 0.7189 0.0
H1424 H 0.69179 0.61192 0.74974 0.0
H1425 H 0.57509 0.43241 0.56859 0.0
H1426 H 0.09429 0.58824 0.06366 0.0
H1427 H 0.1175 0.61896 0.09747 0.0
H1428 H 0.11488 0.67013 0.04327 0.0
H1429 H 0.09151 0.6392 1.00905 0.0
H1430 H 0.16063 0.68817 0.06659 0.0
H1431 H 0.07634 0.64719 0.09897 0.0
H1432 H 0.03548 0.61227 0.11222 0.0
H1433 H 0.06987 0.594 0.17687 0.0
H1434 H 0.111 0.62864 0.16375 0.0
H1435 H 0.20385 0.77208 0.17505 0.0
H1436 H 0.17802 0.74524 0.13847 0.0
H1437 H 0.17381 0.68658 0.18395 0.0
H1438 H 0.1989 0.71313 0.22096 0.0
H1439 H 0.12923 0.67467 0.16351 0.0
H1440 H 0.21351 0.71327 0.12886 0.0
H1441 H 0.25474 0.74757 0.11542 0.0
H1442 H 0.22056 0.76993 0.05514 0.0
H1443 H 0.17907 0.7359 0.0685 0.0
C1444 C 0.09843 0.60596 0.05899 0.0
C1445 C 0.09071 0.61124 0.03389 0.0
C1446 C 0.11175 0.62352 0.07832 0.0
C1447 C 0.11745 0.64671 0.07315 0.0
C1448 C 0.11051 0.65229 0.04773 0.0
C1449 C 0.09723 0.63467 0.02822 0.0
C1450 C 0.1306 0.66493 0.0945 0.0
C1451 C 0.15356 0.68546 0.08766 0.0
C1452 C 0.12154 0.66116 0.12209 0.0
C1453 C 0.09678 0.64044 0.13025 0.0
C1454 C 0.07521 0.63565 0.1159 0.0
C1455 C 0.052 0.61591 0.1234 0.0
C1456 C 0.05009 0.6009 0.14534 0.0
C1457 C 0.07138 0.60564 0.15987 0.0
C1458 C 0.09464 0.62534 0.15244 0.0
C1459 C 0.19719 0.75344 0.17743 0.0
C1460 C 0.20357 0.74478 0.20089 0.0
C1461 C 0.18262 0.73815 0.15638 0.0
C1462 C 0.17426 0.71397 0.15833 0.0
C1463 C 0.18015 0.70521 0.18196 0.0
C1464 C 0.19469 0.72045 0.203 0.0
C1465 C 0.15949 0.69769 0.13575 0.0
C1466 C 0.13618 0.67752 0.14237 0.0
C1467 C 0.16825 0.70179 0.108 0.0
C1468 C 0.19318 0.7222 0.0999 0.0
C1469 C 0.21477 0.72561 0.1129 0.0
C1470 C 0.23819 0.74498 0.10527 0.0
C1471 C 0.24026 0.76096 0.0845 0.0
C1472 C 0.21892 0.75756 0.07127 0.0
C1473 C 0.19546 0.73823 0.07885 0.0
H1474 H 0.25841 0.77595 0.07862 0.0
H1475 H 0.0321 0.58563 0.15111 0.0
loop_
_geom_bond_atom_site_label_1
_geom_bond_atom_site_label_2
_geom_bond_distance
_geom_bond_site_symmetry_2
_ccdc_geom_bond_type
Cu0 N1 1.999 1_454 S
Cu0 O6 1.974 1_454 S
Cu0 N11 1.985 . S
Cu0 O20 1.959 . S
N1 Cu0 1.999 1_656 S
N1 C3 1.263 . S
N1 C5 1.389 1_556 S
N2 C3 1.358 . S
N2 C4 1.400 . S
C3 N1 1.263 . S
C3 N2 1.358 . S
C3 H9 0.930 . S
C4 N2 1.400 . S
C4 C5 1.351 1_556 S
C4 H21 0.930 . S
C5 N1 1.389 1_554 S
C5 C4 1.351 1_554 S
C5 H10 0.930 . S
O6 Cu0 1.974 1_656 S
O6 C16 1.282 . S
C7 O8 1.263 . S
C7 O20 1.251 . S
O8 C7 1.263 . S
H9 C3 0.930 . S
H10 C5 0.930 . S
N11 Cu0 1.985 . S
N11 C13 1.335 . S
N11 C14 1.390 . S
N12 C13 1.345 . S
N12 C15 1.336 . S
C13 N11 1.335 . S
C13 N12 1.345 . S
C13 H18 0.930 . S
C14 N11 1.390 . S
C14 C15 1.346 . S
C14 H19 0.930 1_554 S
C15 N12 1.336 . S
C15 C14 1.346 . S
C15 H22 0.929 . S
C16 O6 1.282 . S
C16 O17 1.216 1_655 S
O17 C16 1.216 1_455 S
H18 C13 0.930 . S
H19 C14 0.930 1_556 S
O20 Cu0 1.959 . S
O20 C7 1.251 . S
H21 C4 0.930 . S
H22 C15 0.929 . S
Cu23 N24 1.999 . S
Cu23 O29 1.974 . S
Cu23 N34 1.985 1_565 S
Cu23 O43 1.959 1_565 S
N24 Cu23 1.999 . S
N24 C26 1.263 . S
N24 C28 1.389 . S
N25 C26 1.358 . S
N25 C27 1.400 . S
C26 N24 1.263 . S
C26 N25 1.358 . S
C26 H32 0.930 . S
C27 N25 1.400 . S
C27 C28 1.351 . S
C27 H44 0.930 . S
C28 N24 1.389 . S
C28 C27 1.351 . S
C28 H33 0.930 . S
O29 Cu23 1.974 . S
O29 C39 1.282 . S
C30 O31 1.261 . S
C30 O43 1.251 . S
O31 C30 1.261 . S
H32 C26 0.930 . S
H33 C28 0.930 . S
N34 Cu23 1.985 1_545 S
N34 C36 1.335 . S
N34 C37 1.390 . S
N35 C36 1.345 . S
N35 C38 1.336 . S
C36 N34 1.335 . S
C36 N35 1.345 . S
C36 H41 0.930 . S
C37 N34 1.390 . S
C37 C38 1.346 . S
C37 H42 0.930 . S
C38 N35 1.336 . S
C38 C37 1.346 . S
C38 H45 0.929 . S
C39 O29 1.282 . S
C39 O40 1.216 1_565 S
O40 C39 1.216 1_545 S
H41 C36 0.930 . S
H42 C37 0.930 . S
O43 Cu23 1.959 1_545 S
O43 C30 1.251 . S
H44 C27 0.930 . S
H45 C38 0.929 . S
Cu46 N47 1.999 1_554 S
Cu46 O52 1.974 1_554 S
Cu46 N57 1.985 . S
Cu46 O66 1.959 . S
N47 Cu46 1.999 1_556 S
N47 C49 1.263 . S
N47 C51 1.389 . S
N48 C49 1.358 . S
N48 C50 1.400 . S
C49 N47 1.263 . S
C49 N48 1.358 . S
C49 H55 0.930 . S
C50 N48 1.400 . S
C50 C51 1.351 . S
C50 H67 0.930 . S
C51 N47 1.389 . S
C51 C50 1.351 . S
C51 H56 0.930 . S
O52 Cu46 1.974 1_556 S
O52 C62 1.282 . S
C53 O54 1.261 . S
C53 O66 1.251 . S
O54 C53 1.261 . S
H55 C49 0.930 . S
H56 C51 0.930 . S
N57 Cu46 1.985 . S
N57 C59 1.335 . S
N57 C60 1.390 . S
N58 C59 1.345 . S
N58 C61 1.336 . S
C59 N57 1.335 . S
C59 N58 1.345 . S
C59 H64 0.930 . S
C60 N57 1.390 . S
C60 C61 1.346 . S
C60 H65 0.930 . S
C61 N58 1.336 . S
C61 C60 1.346 . S
C61 H68 0.929 . S
C62 O52 1.282 . S
C62 O63 1.216 1_556 S
O63 C62 1.216 1_554 S
H64 C59 0.930 . S
H65 C60 0.930 . S
O66 Cu46 1.959 . S
O66 C53 1.251 . S
H67 C50 0.930 . S
H68 C61 0.929 . S
Cu69 N70 1.999 1_655 S
Cu69 O75 1.974 1_655 S
Cu69 N80 1.985 . S
Cu69 O89 1.959 . S
N70 Cu69 1.999 1_455 S
N70 C72 1.263 . S
N70 C74 1.389 1_455 S
N71 C72 1.358 . S
N71 C73 1.400 . S
C72 N70 1.263 . S
C72 N71 1.358 . S
C72 H78 0.930 . S
C73 N71 1.400 . S
C73 C74 1.351 1_455 S
C73 H90 0.930 . S
C74 N70 1.389 1_655 S
C74 C73 1.351 1_655 S
C74 H79 0.930 . S
O75 Cu69 1.974 1_455 S
O75 C85 1.282 . S
C76 O77 1.261 1_655 S
C76 O89 1.251 . S
O77 C76 1.261 1_455 S
H78 C72 0.930 . S
H79 C74 0.930 . S
N80 Cu69 1.985 . S
N80 C82 1.335 . S
N80 C83 1.390 . S
N81 C82 1.345 . S
N81 C84 1.336 . S
C82 N80 1.335 . S
C82 N81 1.345 . S
C82 H87 0.930 . S
C83 N80 1.390 . S
C83 C84 1.346 . S
C83 H88 0.930 1_655 S
C84 N81 1.336 . S
C84 C83 1.346 . S
C84 H91 0.929 . S
C85 O75 1.282 . S
C85 O86 1.216 . S
O86 C85 1.216 . S
H87 C82 0.930 . S
H88 C83 0.930 1_455 S
O89 Cu69 1.959 . S
O89 C76 1.251 . S
H90 C73 0.930 . S
H91 C84 0.929 . S
Cu92 N93 1.999 . S
Cu92 O98 1.974 1_554 S
Cu92 N103 1.985 1_545 S
Cu92 O112 1.959 1_545 S
N93 Cu92 1.999 . S
N93 C95 1.263 1_554 S
N93 C97 1.389 . S
N94 C95 1.358 . S
N94 C96 1.400 1_556 S
C95 N93 1.263 1_556 S
C95 N94 1.358 . S
C95 H101 0.930 . S
C96 N94 1.400 1_554 S
C96 C97 1.351 . S
C96 H113 0.930 . S
C97 N93 1.389 . S
C97 C96 1.351 . S
C97 H102 0.930 . S
O98 Cu92 1.974 1_556 S
O98 C108 1.282 . S
C99 O100 1.261 . S
C99 O112 1.251 . S
O100 C99 1.261 . S
H101 C95 0.930 . S
H102 C97 0.930 . S
N103 Cu92 1.985 1_565 S
N103 C105 1.335 . S
N103 C106 1.390 . S
N104 C105 1.345 . S
N104 C107 1.336 . S
C105 N103 1.335 . S
C105 N104 1.345 . S
C105 H110 0.930 . S
C106 N103 1.390 . S
C106 C107 1.346 . S
C106 H111 0.930 . S
C107 N104 1.336 . S
C107 C106 1.346 . S
C107 H114 0.929 . S
C108 O98 1.282 . S
C108 O109 1.216 . S
O109 C108 1.216 . S
H110 C105 0.930 . S
H111 C106 0.930 . S
O112 Cu92 1.959 1_565 S
O112 C99 1.251 . S
H113 C96 0.930 . S
H114 C107 0.929 . S
Cu115 N116 1.999 . S
Cu115 O121 1.974 . S
Cu115 N126 1.985 . S
Cu115 O135 1.959 . S
N116 Cu115 1.999 . S
N116 C118 1.263 . S
N116 C120 1.389 . S
N117 C118 1.358 . S
N117 C119 1.400 . S
C118 N116 1.263 . S
C118 N117 1.358 . S
C118 H124 0.930 . S
C119 N117 1.400 . S
C119 C120 1.351 . S
C119 H136 0.930 . S
C120 N116 1.389 . S
C120 C119 1.351 . S
C120 H125 0.930 . S
O121 Cu115 1.974 . S
O121 C131 1.282 . S
C122 O123 1.261 . S
C122 O135 1.251 . S
O123 C122 1.261 . S
H124 C118 0.930 . S
H125 C120 0.930 . S
N126 Cu115 1.985 . S
N126 C128 1.335 . S
N126 C129 1.390 . S
N127 C128 1.345 . S
N127 C130 1.336 . S
C128 N126 1.335 . S
C128 N127 1.345 . S
C128 H133 0.930 . S
C129 N126 1.390 . S
C129 C130 1.346 . S
C129 H134 0.930 . S
C130 N127 1.336 . S
C130 C129 1.346 . S
C130 H137 0.929 . S
C131 O121 1.282 . S
C131 O132 1.216 . S
O132 C131 1.216 . S
H133 C128 0.930 . S
H134 C129 0.930 . S
O135 Cu115 1.959 . S
O135 C122 1.251 . S
H136 C119 0.930 . S
H137 C130 0.929 . S
Cu138 N139 1.999 . S
Cu138 O144 1.974 . S
Cu138 N149 1.985 . S
Cu138 O158 1.959 . S
N139 Cu138 1.999 . S
N139 C141 1.263 . S
N139 C143 1.389 . S
N140 C141 1.358 . S
N140 C142 1.400 . S
C141 N139 1.263 . S
C141 N140 1.358 . S
C141 H147 0.930 . S
C142 N140 1.400 . S
C142 C143 1.351 . S
C142 H159 0.930 . S
C143 N139 1.389 . S
C143 C142 1.351 . S
C143 H148 0.930 . S
O144 Cu138 1.974 . S
O144 C154 1.282 . S
C145 O146 1.261 . S
C145 O158 1.251 . S
O146 C145 1.261 . S
H147 C141 0.930 . S
H148 C143 0.930 . S
N149 Cu138 1.985 . S
N149 C151 1.335 . S
N149 C152 1.390 . S
N150 C151 1.345 . S
N150 C153 1.336 . S
C151 N149 1.335 . S
C151 N150 1.345 . S
C151 H156 0.930 . S
C152 N149 1.390 . S
C152 C153 1.346 . S
C152 H157 0.930 . S
C153 N150 1.336 . S
C153 C152 1.346 . S
C153 H160 0.929 . S
C154 O144 1.282 . S
C154 O155 1.216 . S
O155 C154 1.216 . S
H156 C151 0.930 . S
H157 C152 0.930 . S
O158 Cu138 1.959 . S
O158 C145 1.251 . S
H159 C142 0.930 . S
H160 C153 0.929 . S
Cu161 N162 1.999 . S
Cu161 O167 1.974 . S
Cu161 N172 1.985 . S
Cu161 O181 1.959 . S
N162 Cu161 1.999 . S
N162 C164 1.263 . S
N162 C166 1.389 . S
N163 C164 1.358 . S
N163 C165 1.400 . S
C164 N162 1.263 . S
C164 N163 1.358 . S
C164 H170 0.930 . S
C165 N163 1.400 . S
C165 C166 1.351 . S
C165 H182 0.930 . S
C166 N162 1.389 . S
C166 C165 1.351 . S
C166 H171 0.930 . S
O167 Cu161 1.974 . S
O167 C177 1.282 . S
C168 O169 1.261 . S
C168 O181 1.251 . S
O169 C168 1.261 . S
H170 C164 0.930 . S
H171 C166 0.930 . S
N172 Cu161 1.985 . S
N172 C174 1.335 . S
N172 C175 1.390 . S
N173 C174 1.345 . S
N173 C176 1.336 . S
C174 N172 1.335 . S
C174 N173 1.345 . S
C174 H179 0.930 . S
C175 N172 1.390 . S
C175 C176 1.346 . S
C175 H180 0.930 . S
C176 N173 1.336 . S
C176 C175 1.346 . S
C176 H183 0.929 . S
C177 O167 1.282 . S
C177 O178 1.216 . S
O178 C177 1.216 . S
H179 C174 0.930 . S
H180 C175 0.930 . S
O181 Cu161 1.959 . S
O181 C168 1.251 . S
H182 C165 0.930 . S
H183 C176 0.929 . S
Cu184 N185 1.999 . S
Cu184 O190 1.974 . S
Cu184 N195 1.985 . S
Cu184 O204 1.959 . S
N185 Cu184 1.999 . S
N185 C187 1.263 . S
N185 C189 1.389 . S
N186 C187 1.358 . S
N186 C188 1.400 . S
C187 N185 1.263 . S
C187 N186 1.358 . S
C187 H193 0.930 . S
C188 N186 1.400 . S
C188 C189 1.351 . S
C188 H205 0.930 . S
C189 N185 1.389 . S
C189 C188 1.351 . S
C189 H194 0.930 . S
O190 Cu184 1.974 . S
O190 C200 1.282 . S
C191 O192 1.261 . S
C191 O204 1.251 . S
O192 C191 1.261 . S
H193 C187 0.930 . S
H194 C189 0.930 . S
N195 Cu184 1.985 . S
N195 C197 1.335 . S
N195 C198 1.390 . S
N196 C197 1.345 . S
N196 C199 1.336 . S
C197 N195 1.335 . S
C197 N196 1.345 . S
C197 H202 0.930 . S
C198 N195 1.390 . S
C198 C199 1.346 . S
C198 H203 0.930 . S
C199 N196 1.336 . S
C199 C198 1.346 . S
C199 H206 0.929 . S
C200 O190 1.282 . S
C200 O201 1.216 . S
O201 C200 1.216 . S
H202 C197 0.930 . S
H203 C198 0.930 . S
O204 Cu184 1.959 . S
O204 C191 1.251 . S
H205 C188 0.930 . S
H206 C199 0.929 . S
Cu207 N208 1.999 . S
Cu207 O213 1.974 . S
Cu207 N218 1.985 . S
Cu207 O227 1.959 . S
N208 Cu207 1.999 . S
N208 C210 1.263 . S
N208 C212 1.389 . S
N209 C210 1.358 . S
N209 C211 1.400 . S
C210 N208 1.263 . S
C210 N209 1.358 . S
C210 H216 0.930 . S
C211 N209 1.400 . S
C211 C212 1.351 . S
C211 H228 0.930 . S
C212 N208 1.389 . S
C212 C211 1.351 . S
C212 H217 0.930 . S
O213 Cu207 1.974 . S
O213 C223 1.282 . S
C214 O215 1.261 . S
C214 O227 1.251 . S
O215 C214 1.261 . S
H216 C210 0.930 . S
H217 C212 0.930 . S
N218 Cu207 1.985 . S
N218 C220 1.335 . S
N218 C221 1.390 . S
N219 C220 1.345 . S
N219 C222 1.336 . S
C220 N218 1.335 . S
C220 N219 1.345 . S
C220 H225 0.930 . S
C221 N218 1.390 . S
C221 C222 1.346 . S
C221 H226 0.930 . S
C222 N219 1.336 . S
C222 C221 1.346 . S
C222 H229 0.929 . S
C223 O213 1.282 . S
C223 O224 1.216 . S
O224 C223 1.216 . S
H225 C220 0.930 . S
H226 C221 0.930 . S
O227 Cu207 1.959 . S
O227 C214 1.251 . S
H228 C211 0.930 . S
H229 C222 0.929 . S
Cu230 N231 1.999 . S
Cu230 O236 1.974 . S
Cu230 N241 1.985 . S
Cu230 O250 1.959 . S
N231 Cu230 1.999 . S
N231 C233 1.263 . S
N231 C235 1.389 . S
N232 C233 1.358 . S
N232 C234 1.400 . S
C233 N231 1.263 . S
C233 N232 1.358 . S
C233 H239 0.930 . S
C234 N232 1.400 . S
C234 C235 1.351 . S
C234 H251 0.930 . S
C235 N231 1.389 . S
C235 C234 1.351 . S
C235 H240 0.930 . S
O236 Cu230 1.974 . S
O236 C246 1.282 . S
C237 O238 1.261 . S
C237 O250 1.251 . S
O238 C237 1.261 . S
H239 C233 0.930 . S
H240 C235 0.930 . S
N241 Cu230 1.985 . S
N241 C243 1.335 . S
N241 C244 1.390 . S
N242 C243 1.345 . S
N242 C245 1.336 . S
C243 N241 1.335 . S
C243 N242 1.345 . S
C243 H248 0.930 . S
C244 N241 1.390 . S
C244 C245 1.346 . S
C244 H249 0.930 . S
C245 N242 1.336 . S
C245 C244 1.346 . S
C245 H252 0.929 . S
C246 O236 1.282 . S
C246 O247 1.216 . S
O247 C246 1.216 . S
H248 C243 0.930 . S
H249 C244 0.930 . S
O250 Cu230 1.959 . S
O250 C237 1.251 . S
H251 C234 0.930 . S
H252 C245 0.929 . S
Cu253 N254 1.999 . S
Cu253 O259 1.974 . S
Cu253 N264 1.985 . S
Cu253 O273 1.959 . S
N254 Cu253 1.999 . S
N254 C256 1.263 . S
N254 C258 1.389 . S
N255 C256 1.358 . S
N255 C257 1.400 . S
C256 N254 1.263 . S
C256 N255 1.358 . S
C256 H262 0.930 . S
C257 N255 1.400 . S
C257 C258 1.351 . S
C257 H274 0.930 . S
C258 N254 1.389 . S
C258 C257 1.351 . S
C258 H263 0.930 . S
O259 Cu253 1.974 . S
O259 C269 1.282 . S
C260 O261 1.261 . S
C260 O273 1.251 . S
O261 C260 1.261 . S
H262 C256 0.930 . S
H263 C258 0.930 . S
N264 Cu253 1.985 . S
N264 C266 1.335 . S
N264 C267 1.390 . S
N265 C266 1.345 . S
N265 C268 1.336 . S
C266 N264 1.335 . S
C266 N265 1.345 . S
C266 H271 0.930 . S
C267 N264 1.390 . S
C267 C268 1.346 . S
C267 H272 0.930 . S
C268 N265 1.336 . S
C268 C267 1.346 . S
C268 H275 0.929 . S
C269 O259 1.282 . S
C269 O270 1.216 . S
O270 C269 1.216 . S
H271 C266 0.930 . S
H272 C267 0.930 . S
O273 Cu253 1.959 . S
O273 C260 1.251 . S
H274 C257 0.930 . S
H275 C268 0.929 . S
H276 C294 0.951 . S
H277 C296 0.951 . S
H278 C298 0.950 . S
H279 C299 0.950 . S
H280 C301 0.950 . S
H281 C304 0.950 . S
H282 C305 0.950 . S
H283 C307 0.950 . S
H284 C308 0.950 . S
H285 C309 0.951 . S
H286 C311 0.951 . S
H287 C313 0.950 . S
H288 C314 0.950 . S
H289 C316 0.950 . S
H290 C319 0.950 . S
H291 C320 0.950 . S
H292 C322 0.950 . S
H293 C323 0.950 . S
C294 H276 0.951 . S
C294 C295 1.366 . S
C294 C296 1.388 . S
C295 C294 1.366 . S
C295 C299 1.385 . S
C296 H277 0.951 . S
C296 C294 1.388 . S
C296 C297 1.366 . S
C297 C296 1.366 . S
C297 C298 1.414 . S
C297 C300 1.499 . S
C298 H278 0.950 . S
C298 C297 1.414 . S
C298 C299 1.374 . S
C299 H279 0.950 . S
C299 C295 1.385 . S
C299 C298 1.374 . S
C300 C297 1.499 . S
C300 C301 1.373 . S
C300 C302 1.389 . S
C301 H280 0.950 . S
C301 C300 1.373 . S
C301 C317 1.377 . S
C302 C300 1.389 . S
C302 C303 1.524 . S
C302 C316 1.377 . S
C303 C302 1.524 . S
C303 C304 1.397 . S
C303 C308 1.363 . S
C304 H281 0.950 . S
C304 C303 1.397 . S
C304 C305 1.334 . S
C305 H282 0.950 . S
C305 C304 1.334 . S
C305 C306 1.287 . S
C306 C305 1.287 . S
C306 C307 1.524 . S
C306 H325 0.913 1_554 S
C307 H283 0.950 . S
C307 C306 1.524 . S
C307 C308 1.415 . S
C308 H284 0.950 . S
C308 C303 1.363 . S
C308 C307 1.415 . S
C309 H285 0.951 . S
C309 C310 1.366 . S
C309 C311 1.388 . S
C310 C309 1.366 . S
C310 C314 1.385 . S
C311 H286 0.951 . S
C311 C309 1.388 . S
C311 C312 1.366 . S
C312 C311 1.366 . S
C312 C313 1.414 . S
C312 C315 1.499 . S
C313 H287 0.950 . S
C313 C312 1.414 . S
C313 C314 1.374 . S
C314 H288 0.950 . S
C314 C310 1.385 . S
C314 C313 1.374 . S
C315 C312 1.499 . S
C315 C316 1.373 . S
C315 C317 1.389 . S
C316 H289 0.950 . S
C316 C302 1.377 . S
C316 C315 1.373 . S
C317 C301 1.377 . S
C317 C315 1.389 . S
C317 C318 1.524 . S
C318 C317 1.524 . S
C318 C319 1.397 . S
C318 C323 1.363 . S
C319 H290 0.950 . S
C319 C318 1.397 . S
C319 C320 1.334 . S
C320 H291 0.950 . S
C320 C319 1.334 . S
C320 C321 1.287 . S
C321 C320 1.287 . S
C321 C322 1.524 . S
C321 H324 0.999 . S
C322 H292 0.950 . S
C322 C321 1.524 . S
C322 C323 1.415 . S
C323 H293 0.950 . S
C323 C318 1.363 . S
C323 C322 1.415 . S
H324 C321 0.999 . S
H325 C306 0.913 1_556 S
H326 C344 0.951 . S
H327 C346 0.951 . S
H328 C348 0.950 . S
H329 C349 0.950 . S
H330 C351 0.950 . S
H331 C354 0.950 . S
H332 C355 0.950 . S
H333 C357 0.950 . S
H334 C358 0.950 . S
H335 C359 0.951 . S
H336 C361 0.951 . S
H337 C363 0.950 . S
H338 C364 0.950 . S
H339 C366 0.950 . S
H340 C369 0.950 . S
H341 C370 0.950 . S
H342 C372 0.950 . S
H343 C373 0.950 . S
C344 H326 0.951 . S
C344 C345 1.366 . S
C344 C346 1.388 . S
C345 C344 1.366 . S
C345 C349 1.385 . S
C346 H327 0.951 . S
C346 C344 1.388 . S
C346 C347 1.366 . S
C347 C346 1.366 . S
C347 C348 1.414 . S
C347 C350 1.499 . S
C348 H328 0.950 . S
C348 C347 1.414 . S
C348 C349 1.374 . S
C349 H329 0.950 . S
C349 C345 1.385 . S
C349 C348 1.374 . S
C350 C347 1.499 . S
C350 C351 1.373 . S
C350 C352 1.389 . S
C351 H330 0.950 . S
C351 C350 1.373 . S
C351 C367 1.377 . S
C352 C350 1.389 . S
C352 C353 1.524 . S
C352 C366 1.377 . S
C353 C352 1.524 . S
C353 C354 1.397 . S
C353 C358 1.363 . S
C354 H331 0.950 . S
C354 C353 1.397 . S
C354 C355 1.334 . S
C355 H332 0.950 . S
C355 C354 1.334 . S
C355 C356 1.287 . S
C356 C355 1.287 . S
C356 C357 1.524 . S
C356 H375 0.913 . S
C357 H333 0.950 . S
C357 C356 1.524 . S
C357 C358 1.415 . S
C358 H334 0.950 . S
C358 C353 1.363 . S
C358 C357 1.415 . S
C359 H335 0.951 . S
C359 C360 1.366 . S
C359 C361 1.388 . S
C360 C359 1.366 . S
C360 C364 1.385 . S
C361 H336 0.951 . S
C361 C359 1.388 . S
C361 C362 1.366 . S
C362 C361 1.366 . S
C362 C363 1.414 . S
C362 C365 1.499 . S
C363 H337 0.950 . S
C363 C362 1.414 . S
C363 C364 1.374 . S
C364 H338 0.950 . S
C364 C360 1.385 . S
C364 C363 1.374 . S
C365 C362 1.499 . S
C365 C366 1.373 . S
C365 C367 1.389 . S
C366 H339 0.950 . S
C366 C352 1.377 . S
C366 C365 1.373 . S
C367 C351 1.377 . S
C367 C365 1.389 . S
C367 C368 1.524 . S
C368 C367 1.524 . S
C368 C369 1.397 . S
C368 C373 1.363 . S
C369 H340 0.950 . S
C369 C368 1.397 . S
C369 C370 1.334 . S
C370 H341 0.950 . S
C370 C369 1.334 . S
C370 C371 1.287 . S
C371 C370 1.287 . S
C371 C372 1.524 . S
C371 H374 0.999 . S
C372 H342 0.950 . S
C372 C371 1.524 . S
C372 C373 1.415 . S
C373 H343 0.950 . S
C373 C368 1.363 . S
C373 C372 1.415 . S
H374 C371 0.999 . S
H375 C356 0.913 . S
H376 C394 0.951 . S
H377 C396 0.951 . S
H378 C398 0.950 . S
H379 C399 0.950 . S
H380 C401 0.950 . S
H381 C404 0.950 . S
H382 C405 0.950 . S
H383 C407 0.950 . S
H384 C408 0.950 . S
H385 C409 0.951 . S
H386 C411 0.951 . S
H387 C413 0.950 . S
H388 C414 0.950 . S
H389 C416 0.950 . S
H390 C419 0.950 . S
H391 C420 0.950 . S
H392 C422 0.950 . S
H393 C423 0.950 . S
C394 H376 0.951 . S
C394 C395 1.366 . S
C394 C396 1.388 . S
C395 C394 1.366 . S
C395 C399 1.385 . S
C396 H377 0.951 . S
C396 C394 1.388 . S
C396 C397 1.366 . S
C397 C396 1.366 . S
C397 C398 1.414 . S
C397 C400 1.499 . S
C398 H378 0.950 . S
C398 C397 1.414 . S
C398 C399 1.374 . S
C399 H379 0.950 . S
C399 C395 1.385 . S
C399 C398 1.374 . S
C400 C397 1.499 . S
C400 C401 1.373 . S
C400 C402 1.389 . S
C401 H380 0.950 . S
C401 C400 1.373 . S
C401 C417 1.377 . S
C402 C400 1.389 . S
C402 C403 1.524 . S
C402 C416 1.377 . S
C403 C402 1.524 . S
C403 C404 1.397 . S
C403 C408 1.363 . S
C404 H381 0.950 . S
C404 C403 1.397 . S
C404 C405 1.334 . S
C405 H382 0.950 . S
C405 C404 1.334 . S
C405 C406 1.287 . S
C406 C405 1.287 . S
C406 C407 1.524 . S
C406 H425 0.913 . S
C407 H383 0.950 . S
C407 C406 1.524 . S
C407 C408 1.415 . S
C408 H384 0.950 . S
C408 C403 1.363 . S
C408 C407 1.415 . S
C409 H385 0.951 . S
C409 C410 1.366 . S
C409 C411 1.388 . S
C410 C409 1.366 . S
C410 C414 1.385 . S
C411 H386 0.951 . S
C411 C409 1.388 . S
C411 C412 1.366 . S
C412 C411 1.366 . S
C412 C413 1.414 . S
C412 C415 1.499 . S
C413 H387 0.950 . S
C413 C412 1.414 . S
C413 C414 1.374 . S
C414 H388 0.950 . S
C414 C410 1.385 . S
C414 C413 1.374 . S
C415 C412 1.499 . S
C415 C416 1.373 . S
C415 C417 1.389 . S
C416 H389 0.950 . S
C416 C402 1.377 . S
C416 C415 1.373 . S
C417 C401 1.377 . S
C417 C415 1.389 . S
C417 C418 1.524 . S
C418 C417 1.524 . S
C418 C419 1.397 . S
C418 C423 1.363 . S
C419 H390 0.950 . S
C419 C418 1.397 . S
C419 C420 1.334 . S
C420 H391 0.950 . S
C420 C419 1.334 . S
C420 C421 1.287 . S
C421 C420 1.287 . S
C421 C422 1.524 . S
C421 H424 0.999 . S
C422 H392 0.950 . S
C422 C421 1.524 . S
C422 C423 1.415 . S
C423 H393 0.950 . S
C423 C418 1.363 . S
C423 C422 1.415 . S
H424 C421 0.999 . S
H425 C406 0.913 . S
H426 C444 0.951 . S
H427 C446 0.951 . S
H428 C448 0.950 . S
H429 C449 0.950 . S
H430 C451 0.950 . S
H431 C454 0.950 . S
H432 C455 0.950 . S
H433 C457 0.950 1_455 S
H434 C458 0.950 . S
H435 C459 0.951 . S
H436 C461 0.951 . S
H437 C463 0.950 . S
H438 C464 0.950 . S
H439 C466 0.950 . S
H440 C469 0.950 . S
H441 C470 0.950 . S
H442 C472 0.950 . S
H443 C473 0.950 . S
C444 H426 0.951 . S
C444 C445 1.366 . S
C444 C446 1.388 . S
C445 C444 1.366 . S
C445 C449 1.385 . S
C446 H427 0.951 . S
C446 C444 1.388 . S
C446 C447 1.366 . S
C447 C446 1.366 . S
C447 C448 1.414 . S
C447 C450 1.499 . S
C448 H428 0.950 . S
C448 C447 1.414 . S
C448 C449 1.374 . S
C449 H429 0.950 . S
C449 C445 1.385 . S
C449 C448 1.374 . S
C450 C447 1.499 . S
C450 C451 1.373 . S
C450 C452 1.389 . S
C451 H430 0.950 . S
C451 C450 1.373 . S
C451 C467 1.377 . S
C452 C450 1.389 . S
C452 C453 1.524 . S
C452 C466 1.377 . S
C453 C452 1.524 . S
C453 C454 1.397 . S
C453 C458 1.363 . S
C454 H431 0.950 . S
C454 C453 1.397 . S
C454 C455 1.334 . S
C455 H432 0.950 . S
C455 C454 1.334 . S
C455 C456 1.287 . S
C456 C455 1.287 . S
C456 C457 1.524 . S
C456 H475 0.913 1_655 S
C457 H433 0.950 1_655 S
C457 C456 1.524 . S
C457 C458 1.415 . S
C458 H434 0.950 . S
C458 C453 1.363 . S
C458 C457 1.415 . S
C459 H435 0.951 . S
C459 C460 1.366 . S
C459 C461 1.388 . S
C460 C459 1.366 . S
C460 C464 1.385 . S
C461 H436 0.951 . S
C461 C459 1.388 . S
C461 C462 1.366 . S
C462 C461 1.366 . S
C462 C463 1.414 . S
C462 C465 1.499 . S
C463 H437 0.950 . S
C463 C462 1.414 . S
C463 C464 1.374 . S
C464 H438 0.950 . S
C464 C460 1.385 . S
C464 C463 1.374 . S
C465 C462 1.499 . S
C465 C466 1.373 . S
C465 C467 1.389 . S
C466 H439 0.950 . S
C466 C452 1.377 . S
C466 C465 1.373 . S
C467 C451 1.377 . S
C467 C465 1.389 . S
C467 C468 1.524 . S
C468 C467 1.524 . S
C468 C469 1.397 . S
C468 C473 1.363 . S
C469 H440 0.950 . S
C469 C468 1.397 . S
C469 C470 1.334 . S
C470 H441 0.950 . S
C470 C469 1.334 . S
C470 C471 1.287 . S
C471 C470 1.287 . S
C471 C472 1.524 . S
C471 H474 0.999 . S
C472 H442 0.950 . S
C472 C471 1.524 . S
C472 C473 1.415 . S
C473 H443 0.950 . S
C473 C468 1.363 . S
C473 C472 1.415 . S
H474 C471 0.999 . S
H475 C456 0.913 1_455 S
H476 C494 0.951 . S
H477 C496 0.951 . S
H478 C498 0.950 . S
H479 C499 0.950 . S
H480 C501 0.950 . S
H481 C504 0.950 . S
H482 C505 0.950 . S
H483 C507 0.950 . S
H484 C508 0.950 . S
H485 C509 0.951 . S
H486 C511 0.951 . S
H487 C513 0.950 . S
H488 C514 0.950 . S
H489 C516 0.950 . S
H490 C519 0.950 . S
H491 C520 0.950 . S
H492 C522 0.950 . S
H493 C523 0.950 . S
C494 H476 0.951 . S
C494 C495 1.366 . S
C494 C496 1.388 . S
C495 C494 1.366 . S
C495 C499 1.385 . S
C496 H477 0.951 . S
C496 C494 1.388 . S
C496 C497 1.366 . S
C497 C496 1.366 . S
C497 C498 1.414 . S
C497 C500 1.499 . S
C498 H478 0.950 . S
C498 C497 1.414 . S
C498 C499 1.374 . S
C499 H479 0.950 . S
C499 C495 1.385 . S
C499 C498 1.374 . S
C500 C497 1.499 . S
C500 C501 1.373 . S
C500 C502 1.389 . S
C501 H480 0.950 . S
C501 C500 1.373 . S
C501 C517 1.377 . S
C502 C500 1.389 . S
C502 C503 1.524 . S
C502 C516 1.377 . S
C503 C502 1.524 . S
C503 C504 1.397 . S
C503 C508 1.363 . S
C504 H481 0.950 . S
C504 C503 1.397 . S
C504 C505 1.334 . S
C505 H482 0.950 . S
C505 C504 1.334 . S
C505 C506 1.287 . S
C506 C505 1.287 . S
C506 C507 1.524 . S
C506 H525 0.913 . S
C507 H483 0.950 . S
C507 C506 1.524 . S
C507 C508 1.415 . S
C508 H484 0.950 . S
C508 C503 1.363 . S
C508 C507 1.415 . S
C509 H485 0.951 . S
C509 C510 1.366 . S
C509 C511 1.388 . S
C510 C509 1.366 . S
C510 C514 1.385 . S
C511 H486 0.951 . S
C511 C509 1.388 . S
C511 C512 1.366 . S
C512 C511 1.366 . S
C512 C513 1.414 . S
C512 C515 1.499 . S
C513 H487 0.950 . S
C513 C512 1.414 . S
C513 C514 1.374 . S
C514 H488 0.950 . S
C514 C510 1.385 . S
C514 C513 1.374 . S
C515 C512 1.499 . S
C515 C516 1.373 . S
C515 C517 1.389 . S
C516 H489 0.950 . S
C516 C502 1.377 . S
C516 C515 1.373 . S
C517 C501 1.377 . S
C517 C515 1.389 . S
C517 C518 1.524 . S
C518 C517 1.524 . S
C518 C519 1.397 . S
C518 C523 1.363 . S
C519 H490 0.950 . S
C519 C518 1.397 . S
C519 C520 1.334 . S
C520 H491 0.950 . S
C520 C519 1.334 . S
C520 C521 1.287 . S
C521 C520 1.287 . S
C521 C522 1.524 . S
C521 H524 0.999 . S
C522 H492 0.950 . S
C522 C521 1.524 . S
C522 C523 1.415 . S
C523 H493 0.950 . S
C523 C518 1.363 . S
C523 C522 1.415 . S
H524 C521 0.999 . S
H525 C506 0.913 . S
H526 C544 0.951 . S
H527 C546 0.951 . S
H528 C548 0.950 . S
H529 C549 0.950 . S
H530 C551 0.950 . S
H531 C554 0.950 . S
H532 C555 0.950 . S
H533 C557 0.950 . S
H534 C558 0.950 . S
H535 C559 0.951 . S
H536 C561 0.951 . S
H537 C563 0.950 . S
H538 C564 0.950 . S
H539 C566 0.950 . S
H540 C569 0.950 . S
H541 C570 0.950 . S
H542 C572 0.950 . S
H543 C573 0.950 . S
C544 H526 0.951 . S
C544 C545 1.366 . S
C544 C546 1.388 . S
C545 C544 1.366 . S
C545 C549 1.385 . S
C546 H527 0.951 . S
C546 C544 1.388 . S
C546 C547 1.366 . S
C547 C546 1.366 . S
C547 C548 1.414 . S
C547 C550 1.499 . S
C548 H528 0.950 . S
C548 C547 1.414 . S
C548 C549 1.374 . S
C549 H529 0.950 . S
C549 C545 1.385 . S
C549 C548 1.374 . S
C550 C547 1.499 . S
C550 C551 1.373 . S
C550 C552 1.389 . S
C551 H530 0.950 . S
C551 C550 1.373 . S
C551 C567 1.377 . S
C552 C550 1.389 . S
C552 C553 1.524 . S
C552 C566 1.377 . S
C553 C552 1.524 . S
C553 C554 1.397 . S
C553 C558 1.363 . S
C554 H531 0.950 . S
C554 C553 1.397 . S
C554 C555 1.334 . S
C555 H532 0.950 . S
C555 C554 1.334 . S
C555 C556 1.287 . S
C556 C555 1.287 . S
C556 C557 1.524 . S
C556 H575 0.913 . S
C557 H533 0.950 . S
C557 C556 1.524 . S
C557 C558 1.415 . S
C558 H534 0.950 . S
C558 C553 1.363 . S
C558 C557 1.415 . S
C559 H535 0.951 . S
C559 C560 1.366 . S
C559 C561 1.388 . S
C560 C559 1.366 . S
C560 C564 1.385 . S
C561 H536 0.951 . S
C561 C559 1.388 . S
C561 C562 1.366 . S
C562 C561 1.366 . S
C562 C563 1.414 . S
C562 C565 1.499 . S
C563 H537 0.950 . S
C563 C562 1.414 . S
C563 C564 1.374 . S
C564 H538 0.950 . S
C564 C560 1.385 . S
C564 C563 1.374 . S
C565 C562 1.499 . S
C565 C566 1.373 . S
C565 C567 1.389 . S
C566 H539 0.950 . S
C566 C552 1.377 . S
C566 C565 1.373 . S
C567 C551 1.377 . S
C567 C565 1.389 . S
C567 C568 1.524 . S
C568 C567 1.524 . S
C568 C569 1.397 . S
C568 C573 1.363 . S
C569 H540 0.950 . S
C569 C568 1.397 . S
C569 C570 1.334 . S
C570 H541 0.950 . S
C570 C569 1.334 . S
C570 C571 1.287 . S
C571 C570 1.287 . S
C571 C572 1.524 . S
C571 H574 0.999 . S
C572 H542 0.950 . S
C572 C571 1.524 . S
C572 C573 1.415 . S
C573 H543 0.950 . S
C573 C568 1.363 . S
C573 C572 1.415 . S
H574 C571 0.999 . S
H575 C556 0.913 . S
H576 C594 0.951 . S
H577 C596 0.951 . S
H578 C598 0.950 . S
H579 C599 0.950 . S
H580 C601 0.950 . S
H581 C604 0.950 . S
H582 C605 0.950 . S
H583 C607 0.950 . S
H584 C608 0.950 . S
H585 C609 0.951 . S
H586 C611 0.951 . S
H587 C613 0.950 . S
H588 C614 0.950 . S
H589 C616 0.950 . S
H590 C619 0.950 . S
H591 C620 0.950 . S
H592 C622 0.950 . S
H593 C623 0.950 . S
C594 H576 0.951 . S
C594 C595 1.366 . S
C594 C596 1.388 . S
C595 C594 1.366 . S
C595 C599 1.385 . S
C596 H577 0.951 . S
C596 C594 1.388 . S
C596 C597 1.366 . S
C597 C596 1.366 . S
C597 C598 1.414 . S
C597 C600 1.499 . S
C598 H578 0.950 . S
C598 C597 1.414 . S
C598 C599 1.374 . S
C599 H579 0.950 . S
C599 C595 1.385 . S
C599 C598 1.374 . S
C600 C597 1.499 . S
C600 C601 1.373 . S
C600 C602 1.389 . S
C601 H580 0.950 . S
C601 C600 1.373 . S
C601 C617 1.377 . S
C602 C600 1.389 . S
C602 C603 1.524 . S
C602 C616 1.377 . S
C603 C602 1.524 . S
C603 C604 1.397 . S
C603 C608 1.363 . S
C604 H581 0.950 . S
C604 C603 1.397 . S
C604 C605 1.334 . S
C605 H582 0.950 . S
C605 C604 1.334 . S
C605 C606 1.287 . S
C606 C605 1.287 . S
C606 C607 1.524 . S
C606 H625 0.913 . S
C607 H583 0.950 . S
C607 C606 1.524 . S
C607 C608 1.415 . S
C608 H584 0.950 . S
C608 C603 1.363 . S
C608 C607 1.415 . S
C609 H585 0.951 . S
C609 C610 1.366 . S
C609 C611 1.388 . S
C610 C609 1.366 . S
C610 C614 1.385 . S
C611 H586 0.951 . S
C611 C609 1.388 . S
C611 C612 1.366 . S
C612 C611 1.366 . S
C612 C613 1.414 . S
C612 C615 1.499 . S
C613 H587 0.950 . S
C613 C612 1.414 . S
C613 C614 1.374 . S
C614 H588 0.950 . S
C614 C610 1.385 . S
C614 C613 1.374 . S
C615 C612 1.499 . S
C615 C616 1.373 . S
C615 C617 1.389 . S
C616 H589 0.950 . S
C616 C602 1.377 . S
C616 C615 1.373 . S
C617 C601 1.377 . S
C617 C615 1.389 . S
C617 C618 1.524 . S
C618 C617 1.524 . S
C618 C619 1.397 . S
C618 C623 1.363 . S
C619 H590 0.950 . S
C619 C618 1.397 . S
C619 C620 1.334 . S
C620 H591 0.950 . S
C620 C619 1.334 . S
C620 C621 1.287 . S
C621 C620 1.287 . S
C621 C622 1.524 . S
C621 H624 0.999 . S
C622 H592 0.950 . S
C622 C621 1.524 . S
C622 C623 1.415 . S
C623 H593 0.950 . S
C623 C618 1.363 . S
C623 C622 1.415 . S
H624 C621 0.999 . S
H625 C606 0.913 . S
H626 C644 0.951 . S
H627 C646 0.951 . S
H628 C648 0.950 . S
H629 C649 0.950 . S
H630 C651 0.950 . S
H631 C654 0.950 . S
H632 C655 0.950 1_554 S
H633 C657 0.932 1_554 S
H634 C658 0.950 . S
H635 C659 0.951 . S
H636 C661 0.951 . S
H637 C663 0.950 . S
H638 C664 0.950 . S
H639 C666 0.950 . S
H640 C669 0.950 . S
H641 C670 0.950 . S
H642 C672 0.950 . S
H643 C673 0.950 . S
C644 H626 0.951 . S
C644 C645 1.366 . S
C644 C646 1.388 . S
C645 C644 1.366 . S
C645 C649 1.385 . S
C646 H627 0.951 . S
C646 C644 1.388 . S
C646 C647 1.366 . S
C647 C646 1.366 . S
C647 C648 1.414 . S
C647 C650 1.499 . S
C648 H628 0.950 . S
C648 C647 1.414 . S
C648 C649 1.374 . S
C649 H629 0.950 . S
C649 C645 1.385 . S
C649 C648 1.374 . S
C650 C647 1.499 . S
C650 C651 1.373 . S
C650 C652 1.389 . S
C651 H630 0.950 . S
C651 C650 1.373 . S
C651 C667 1.377 . S
C652 C650 1.389 . S
C652 C653 1.524 . S
C652 C666 1.377 . S
C653 C652 1.524 . S
C653 C654 1.397 . S
C653 C658 1.363 . S
C654 H631 0.950 . S
C654 C653 1.397 . S
C654 C655 1.334 . S
C655 H632 0.950 1_556 S
C655 C654 1.334 . S
C655 C656 1.287 1_556 S
C656 C655 1.287 1_554 S
C656 C657 1.513 1_554 S
C656 H675 0.913 . S
C657 H633 0.932 1_556 S
C657 C656 1.513 1_556 S
C657 C658 1.447 . S
C658 H634 0.950 . S
C658 C653 1.363 . S
C658 C657 1.447 . S
C659 H635 0.951 . S
C659 C660 1.366 . S
C659 C661 1.388 . S
C660 C659 1.366 . S
C660 C664 1.385 . S
C661 H636 0.951 . S
C661 C659 1.388 . S
C661 C662 1.366 . S
C662 C661 1.366 . S
C662 C663 1.414 . S
C662 C665 1.499 . S
C663 H637 0.950 . S
C663 C662 1.414 . S
C663 C664 1.374 . S
C664 H638 0.950 . S
C664 C660 1.385 . S
C664 C663 1.374 . S
C665 C662 1.499 . S
C665 C666 1.373 . S
C665 C667 1.389 . S
C666 H639 0.950 . S
C666 C652 1.377 . S
C666 C665 1.373 . S
C667 C651 1.377 . S
C667 C665 1.389 . S
C667 C668 1.524 . S
C668 C667 1.524 . S
C668 C669 1.397 . S
C668 C673 1.363 . S
C669 H640 0.950 . S
C669 C668 1.397 . S
C669 C670 1.334 . S
C670 H641 0.950 . S
C670 C669 1.334 . S
C670 C671 1.287 . S
C671 C670 1.287 . S
C671 C672 1.524 . S
C671 H674 0.999 . S
C672 H642 0.950 . S
C672 C671 1.524 . S
C672 C673 1.415 . S
C673 H643 0.950 . S
C673 C668 1.363 . S
C673 C672 1.415 . S
H674 C671 0.999 . S
H675 C656 0.913 . S
H676 C694 0.951 . S
H677 C696 0.951 . S
H678 C698 0.950 . S
H679 C699 0.950 . S
H680 C701 0.950 . S
H681 C704 0.950 . S
H682 C705 0.950 . S
H683 C707 0.950 . S
H684 C708 0.950 . S
H685 C709 0.951 . S
H686 C711 0.951 . S
H687 C713 0.950 . S
H688 C714 0.950 . S
H689 C716 0.950 . S
H690 C719 0.950 . S
H691 C720 0.950 . S
H692 C722 0.950 . S
H693 C723 0.950 . S
C694 H676 0.951 . S
C694 C695 1.366 . S
C694 C696 1.388 . S
C695 C694 1.366 . S
C695 C699 1.385 . S
C696 H677 0.951 . S
C696 C694 1.388 . S
C696 C697 1.366 . S
C697 C696 1.366 . S
C697 C698 1.414 . S
C697 C700 1.499 . S
C698 H678 0.950 . S
C698 C697 1.414 . S
C698 C699 1.374 . S
C699 H679 0.950 . S
C699 C695 1.385 . S
C699 C698 1.374 . S
C700 C697 1.499 . S
C700 C701 1.373 . S
C700 C702 1.389 . S
C701 H680 0.950 . S
C701 C700 1.373 . S
C701 C717 1.377 . S
C702 C700 1.389 . S
C702 C703 1.524 . S
C702 C716 1.377 . S
C703 C702 1.524 . S
C703 C704 1.397 . S
C703 C708 1.363 . S
C704 H681 0.950 . S
C704 C703 1.397 . S
C704 C705 1.334 . S
C705 H682 0.950 . S
C705 C704 1.334 . S
C705 C706 1.287 . S
C706 C705 1.287 . S
C706 C707 1.524 . S
C706 H725 0.913 . S
C707 H683 0.950 . S
C707 C706 1.524 . S
C707 C708 1.415 . S
C708 H684 0.950 . S
C708 C703 1.363 . S
C708 C707 1.415 . S
C709 H685 0.951 . S
C709 C710 1.366 . S
C709 C711 1.388 . S
C710 C709 1.366 . S
C710 C714 1.385 . S
C711 H686 0.951 . S
C711 C709 1.388 . S
C711 C712 1.366 . S
C712 C711 1.366 . S
C712 C713 1.414 . S
C712 C715 1.499 . S
C713 H687 0.950 . S
C713 C712 1.414 . S
C713 C714 1.374 . S
C714 H688 0.950 . S
C714 C710 1.385 . S
C714 C713 1.374 . S
C715 C712 1.499 . S
C715 C716 1.373 . S
C715 C717 1.389 . S
C716 H689 0.950 . S
C716 C702 1.377 . S
C716 C715 1.373 . S
C717 C701 1.377 . S
C717 C715 1.389 . S
C717 C718 1.524 . S
C718 C717 1.524 . S
C718 C719 1.397 . S
C718 C723 1.363 . S
C719 H690 0.950 . S
C719 C718 1.397 . S
C719 C720 1.334 . S
C720 H691 0.950 . S
C720 C719 1.334 . S
C720 C721 1.287 . S
C721 C720 1.287 . S
C721 C722 1.524 . S
C721 H724 0.999 . S
C722 H692 0.950 . S
C722 C721 1.524 . S
C722 C723 1.415 . S
C723 H693 0.950 . S
C723 C718 1.363 . S
C723 C722 1.415 . S
H724 C721 0.999 . S
H725 C706 0.913 . S
H726 C744 0.951 . S
H727 C746 0.951 . S
H728 C748 0.950 . S
H729 C749 0.950 . S
H730 C751 0.950 . S
H731 C754 0.950 . S
H732 C755 0.950 . S
H733 C757 0.950 . S
H734 C758 0.950 . S
H735 C759 0.951 . S
H736 C761 0.951 . S
H737 C763 0.950 . S
H738 C764 0.950 . S
H739 C766 0.950 . S
H740 C769 0.950 . S
H741 C770 0.950 . S
H742 C772 0.950 . S
H743 C773 0.950 . S
C744 H726 0.951 . S
C744 C745 1.366 . S
C744 C746 1.388 . S
C745 C744 1.366 . S
C745 C749 1.385 . S
C746 H727 0.951 . S
C746 C744 1.388 . S
C746 C747 1.366 . S
C747 C746 1.366 . S
C747 C748 1.414 . S
C747 C750 1.499 . S
C748 H728 0.950 . S
C748 C747 1.414 . S
C748 C749 1.374 . S
C749 H729 0.950 . S
C749 C745 1.385 . S
C749 C748 1.374 . S
C750 C747 1.499 . S
C750 C751 1.373 . S
C750 C752 1.389 . S
C751 H730 0.950 . S
C751 C750 1.373 . S
C751 C767 1.377 . S
C752 C750 1.389 . S
C752 C753 1.524 . S
C752 C766 1.377 . S
C753 C752 1.524 . S
C753 C754 1.397 . S
C753 C758 1.363 . S
C754 H731 0.950 . S
C754 C753 1.397 . S
C754 C755 1.334 . S
C755 H732 0.950 . S
C755 C754 1.334 . S
C755 C756 1.287 . S
C756 C755 1.287 . S
C756 C757 1.524 . S
C756 H775 0.913 . S
C757 H733 0.950 . S
C757 C756 1.524 . S
C757 C758 1.415 . S
C758 H734 0.950 . S
C758 C753 1.363 . S
C758 C757 1.415 . S
C759 H735 0.951 . S
C759 C760 1.366 . S
C759 C761 1.388 . S
C760 C759 1.366 . S
C760 C764 1.385 . S
C761 H736 0.951 . S
C761 C759 1.388 . S
C761 C762 1.366 . S
C762 C761 1.366 . S
C762 C763 1.414 . S
C762 C765 1.499 . S
C763 H737 0.950 . S
C763 C762 1.414 . S
C763 C764 1.374 . S
C764 H738 0.950 . S
C764 C760 1.385 . S
C764 C763 1.374 . S
C765 C762 1.499 . S
C765 C766 1.373 . S
C765 C767 1.389 . S
C766 H739 0.950 . S
C766 C752 1.377 . S
C766 C765 1.373 . S
C767 C751 1.377 . S
C767 C765 1.389 . S
C767 C768 1.524 . S
C768 C767 1.524 . S
C768 C769 1.397 . S
C768 C773 1.363 . S
C769 H740 0.950 . S
C769 C768 1.397 . S
C769 C770 1.334 . S
C770 H741 0.950 . S
C770 C769 1.334 . S
C770 C771 1.287 . S
C771 C770 1.287 . S
C771 C772 1.524 . S
C771 H774 0.999 . S
C772 H742 0.950 . S
C772 C771 1.524 . S
C772 C773 1.415 . S
C773 H743 0.950 . S
C773 C768 1.363 . S
C773 C772 1.415 . S
H774 C771 0.999 . S
H775 C756 0.913 . S
H776 C794 0.951 . S
H777 C796 0.951 . S
H778 C798 0.950 . S
H779 C799 0.950 . S
H780 C801 0.950 . S
H781 C804 0.950 . S
H782 C805 0.950 . S
H783 C807 0.950 . S
H784 C808 0.950 . S
H785 C809 0.951 . S
H786 C811 0.951 . S
H787 C813 0.950 . S
H788 C814 0.950 . S
H789 C816 0.950 . S
H790 C819 0.950 . S
H791 C820 0.950 . S
H792 C822 0.950 . S
H793 C823 0.950 . S
C794 H776 0.951 . S
C794 C795 1.366 . S
C794 C796 1.388 . S
C795 C794 1.366 . S
C795 C799 1.385 . S
C796 H777 0.951 . S
C796 C794 1.388 . S
C796 C797 1.366 . S
C797 C796 1.366 . S
C797 C798 1.414 . S
C797 C800 1.499 . S
C798 H778 0.950 . S
C798 C797 1.414 . S
C798 C799 1.374 . S
C799 H779 0.950 . S
C799 C795 1.385 . S
C799 C798 1.374 . S
C800 C797 1.499 . S
C800 C801 1.373 . S
C800 C802 1.389 . S
C801 H780 0.950 . S
C801 C800 1.373 . S
C801 C817 1.377 . S
C802 C800 1.389 . S
C802 C803 1.524 . S
C802 C816 1.377 . S
C803 C802 1.524 . S
C803 C804 1.397 . S
C803 C808 1.363 . S
C804 H781 0.950 . S
C804 C803 1.397 . S
C804 C805 1.334 . S
C805 H782 0.950 . S
C805 C804 1.334 . S
C805 C806 1.287 . S
C806 C805 1.287 . S
C806 C807 1.524 . S
C806 H825 0.913 . S
C807 H783 0.950 . S
C807 C806 1.524 . S
C807 C808 1.415 . S
C808 H784 0.950 . S
C808 C803 1.363 . S
C808 C807 1.415 . S
C809 H785 0.951 . S
C809 C810 1.366 . S
C809 C811 1.388 . S
C810 C809 1.366 . S
C810 C814 1.385 . S
C811 H786 0.951 . S
C811 C809 1.388 . S
C811 C812 1.366 . S
C812 C811 1.366 . S
C812 C813 1.414 . S
C812 C815 1.499 . S
C813 H787 0.950 . S
C813 C812 1.414 . S
C813 C814 1.374 . S
C814 H788 0.950 . S
C814 C810 1.385 . S
C814 C813 1.374 . S
C815 C812 1.499 . S
C815 C816 1.373 . S
C815 C817 1.389 . S
C816 H789 0.950 . S
C816 C802 1.377 . S
C816 C815 1.373 . S
C817 C801 1.377 . S
C817 C815 1.389 . S
C817 C818 1.524 . S
C818 C817 1.524 . S
C818 C819 1.397 . S
C818 C823 1.363 . S
C819 H790 0.950 . S
C819 C818 1.397 . S
C819 C820 1.334 . S
C820 H791 0.950 . S
C820 C819 1.334 . S
C820 C821 1.287 . S
C821 C820 1.287 . S
C821 C822 1.524 . S
C821 H824 0.999 . S
C822 H792 0.950 . S
C822 C821 1.524 . S
C822 C823 1.415 . S
C823 H793 0.950 . S
C823 C818 1.363 . S
C823 C822 1.415 . S
H824 C821 0.999 . S
H825 C806 0.913 . S
H826 C844 0.951 . S
H827 C846 0.951 . S
H828 C848 0.950 . S
H829 C849 0.950 . S
H830 C851 0.950 . S
H831 C854 0.950 . S
H832 C855 0.925 1_455 S
H833 C857 0.950 . S
H834 C858 0.950 . S
H835 C859 0.951 . S
H836 C861 0.951 . S
H837 C863 0.950 . S
H838 C864 0.950 . S
H839 C866 0.950 . S
H840 C869 0.950 . S
H841 C870 0.950 . S
H842 C872 0.950 . S
H843 C873 0.950 . S
C844 H826 0.951 . S
C844 C845 1.366 . S
C844 C846 1.388 . S
C845 C844 1.366 . S
C845 C849 1.385 . S
C846 H827 0.951 . S
C846 C844 1.388 . S
C846 C847 1.366 . S
C847 C846 1.366 . S
C847 C848 1.414 . S
C847 C850 1.499 . S
C848 H828 0.950 . S
C848 C847 1.414 . S
C848 C849 1.374 . S
C849 H829 0.950 . S
C849 C845 1.385 . S
C849 C848 1.374 . S
C850 C847 1.499 . S
C850 C851 1.373 . S
C850 C852 1.389 . S
C851 H830 0.950 . S
C851 C850 1.373 . S
C851 C867 1.377 . S
C852 C850 1.389 . S
C852 C853 1.524 . S
C852 C866 1.377 . S
C853 C852 1.524 . S
C853 C854 1.397 . S
C853 C858 1.363 . S
C854 H831 0.950 . S
C854 C853 1.397 . S
C854 C855 1.384 . S
C855 H832 0.925 1_655 S
C855 C854 1.384 . S
C855 C856 1.265 . S
C856 C855 1.265 . S
C856 C857 1.524 . S
C856 H875 0.913 1_655 S
C857 H833 0.950 . S
C857 C856 1.524 . S
C857 C858 1.415 . S
C858 H834 0.950 . S
C858 C853 1.363 . S
C858 C857 1.415 . S
C859 H835 0.951 . S
C859 C860 1.366 . S
C859 C861 1.388 . S
C860 C859 1.366 . S
C860 C864 1.385 . S
C861 H836 0.951 . S
C861 C859 1.388 . S
C861 C862 1.366 . S
C862 C861 1.366 . S
C862 C863 1.414 . S
C862 C865 1.499 . S
C863 H837 0.950 . S
C863 C862 1.414 . S
C863 C864 1.374 . S
C864 H838 0.950 . S
C864 C860 1.385 . S
C864 C863 1.374 . S
C865 C862 1.499 . S
C865 C866 1.373 . S
C865 C867 1.389 . S
C866 H839 0.950 . S
C866 C852 1.377 . S
C866 C865 1.373 . S
C867 C851 1.377 . S
C867 C865 1.389 . S
C867 C868 1.524 . S
C868 C867 1.524 . S
C868 C869 1.397 . S
C868 C873 1.363 . S
C869 H840 0.950 . S
C869 C868 1.397 . S
C869 C870 1.334 . S
C870 H841 0.950 . S
C870 C869 1.334 . S
C870 C871 1.287 . S
C871 C870 1.287 . S
C871 C872 1.524 . S
C871 H874 0.999 . S
C872 H842 0.950 . S
C872 C871 1.524 . S
C872 C873 1.415 . S
C873 H843 0.950 . S
C873 C868 1.363 . S
C873 C872 1.415 . S
H874 C871 0.999 . S
H875 C856 0.913 1_455 S
H876 C894 0.951 . S
H877 C896 0.951 . S
H878 C898 0.950 . S
H879 C899 0.950 . S
H880 C901 0.950 . S
H881 C904 0.950 . S
H882 C905 0.950 . S
H883 C907 0.950 . S
H884 C908 0.950 . S
H885 C909 0.951 . S
H886 C911 0.951 . S
H887 C913 0.950 . S
H888 C914 0.950 . S
H889 C916 0.950 . S
H890 C919 0.950 . S
H891 C920 0.950 . S
H892 C922 0.950 . S
H893 C923 0.950 . S
C894 H876 0.951 . S
C894 C895 1.366 . S
C894 C896 1.388 . S
C895 C894 1.366 . S
C895 C899 1.385 . S
C896 H877 0.951 . S
C896 C894 1.388 . S
C896 C897 1.366 . S
C897 C896 1.366 . S
C897 C898 1.414 . S
C897 C900 1.499 . S
C898 H878 0.950 . S
C898 C897 1.414 . S
C898 C899 1.374 . S
C899 H879 0.950 . S
C899 C895 1.385 . S
C899 C898 1.374 . S
C900 C897 1.499 . S
C900 C901 1.373 . S
C900 C902 1.389 . S
C901 H880 0.950 . S
C901 C900 1.373 . S
C901 C917 1.377 . S
C902 C900 1.389 . S
C902 C903 1.524 . S
C902 C916 1.377 . S
C903 C902 1.524 . S
C903 C904 1.397 . S
C903 C908 1.363 . S
C904 H881 0.950 . S
C904 C903 1.397 . S
C904 C905 1.334 . S
C905 H882 0.950 . S
C905 C904 1.334 . S
C905 C906 1.287 . S
C906 C905 1.287 . S
C906 C907 1.524 . S
C906 H925 0.913 . S
C907 H883 0.950 . S
C907 C906 1.524 . S
C907 C908 1.415 . S
C908 H884 0.950 . S
C908 C903 1.363 . S
C908 C907 1.415 . S
C909 H885 0.951 . S
C909 C910 1.366 . S
C909 C911 1.388 . S
C910 C909 1.366 . S
C910 C914 1.385 . S
C911 H886 0.951 . S
C911 C909 1.388 . S
C911 C912 1.366 . S
C912 C911 1.366 . S
C912 C913 1.414 . S
C912 C915 1.499 . S
C913 H887 0.950 . S
C913 C912 1.414 . S
C913 C914 1.374 . S
C914 H888 0.950 . S
C914 C910 1.385 . S
C914 C913 1.374 . S
C915 C912 1.499 . S
C915 C916 1.373 . S
C915 C917 1.389 . S
C916 H889 0.950 . S
C916 C902 1.377 . S
C916 C915 1.373 . S
C917 C901 1.377 . S
C917 C915 1.389 . S
C917 C918 1.524 . S
C918 C917 1.524 . S
C918 C919 1.397 . S
C918 C923 1.363 . S
C919 H890 0.950 . S
C919 C918 1.397 . S
C919 C920 1.334 . S
C920 H891 0.950 . S
C920 C919 1.334 . S
C920 C921 1.287 . S
C921 C920 1.287 . S
C921 C922 1.524 . S
C921 H924 0.999 . S
C922 H892 0.950 . S
C922 C921 1.524 . S
C922 C923 1.415 . S
C923 H893 0.950 . S
C923 C918 1.363 . S
C923 C922 1.415 . S
H924 C921 0.999 . S
H925 C906 0.913 . S
H926 C944 0.951 . S
H927 C946 0.951 . S
H928 C948 0.950 . S
H929 C949 0.950 . S
H930 C951 0.950 . S
H931 C954 0.950 . S
H932 C955 0.950 . S
H933 C957 0.950 . S
H934 C958 0.950 . S
H935 C959 0.951 . S
H936 C961 0.951 . S
H937 C963 0.950 . S
H938 C964 0.950 . S
H939 C966 0.950 . S
H940 C969 0.950 . S
H941 C970 0.950 . S
H942 C972 0.950 . S
H943 C973 0.950 . S
C944 H926 0.951 . S
C944 C945 1.366 . S
C944 C946 1.388 . S
C945 C944 1.366 . S
C945 C949 1.385 . S
C946 H927 0.951 . S
C946 C944 1.388 . S
C946 C947 1.366 . S
C947 C946 1.366 . S
C947 C948 1.414 . S
C947 C950 1.499 . S
C948 H928 0.950 . S
C948 C947 1.414 . S
C948 C949 1.374 . S
C949 H929 0.950 . S
C949 C945 1.385 . S
C949 C948 1.374 . S
C950 C947 1.499 . S
C950 C951 1.373 . S
C950 C952 1.389 . S
C951 H930 0.950 . S
C951 C950 1.373 . S
C951 C967 1.377 . S
C952 C950 1.389 . S
C952 C953 1.524 . S
C952 C966 1.377 . S
C953 C952 1.524 . S
C953 C954 1.397 . S
C953 C958 1.363 . S
C954 H931 0.950 . S
C954 C953 1.397 . S
C954 C955 1.334 . S
C955 H932 0.950 . S
C955 C954 1.334 . S
C955 C956 1.287 . S
C956 C955 1.287 . S
C956 C957 1.524 . S
C956 H975 0.913 . S
C957 H933 0.950 . S
C957 C956 1.524 . S
C957 C958 1.415 . S
C958 H934 0.950 . S
C958 C953 1.363 . S
C958 C957 1.415 . S
C959 H935 0.951 . S
C959 C960 1.366 . S
C959 C961 1.388 . S
C960 C959 1.366 . S
C960 C964 1.385 . S
C961 H936 0.951 . S
C961 C959 1.388 . S
C961 C962 1.366 . S
C962 C961 1.366 . S
C962 C963 1.414 . S
C962 C965 1.499 . S
C963 H937 0.950 . S
C963 C962 1.414 . S
C963 C964 1.374 . S
C964 H938 0.950 . S
C964 C960 1.385 . S
C964 C963 1.374 . S
C965 C962 1.499 . S
C965 C966 1.373 . S
C965 C967 1.389 . S
C966 H939 0.950 . S
C966 C952 1.377 . S
C966 C965 1.373 . S
C967 C951 1.377 . S
C967 C965 1.389 . S
C967 C968 1.524 . S
C968 C967 1.524 . S
C968 C969 1.397 . S
C968 C973 1.363 . S
C969 H940 0.950 . S
C969 C968 1.397 . S
C969 C970 1.334 . S
C970 H941 0.950 . S
C970 C969 1.334 . S
C970 C971 1.287 . S
C971 C970 1.287 . S
C971 C972 1.524 . S
C971 H974 0.999 . S
C972 H942 0.950 . S
C972 C971 1.524 . S
C972 C973 1.415 . S
C973 H943 0.950 . S
C973 C968 1.363 . S
C973 C972 1.415 . S
H974 C971 0.999 . S
H975 C956 0.913 . S
H976 C994 0.951 . S
H977 C996 0.951 . S
H978 C998 0.950 . S
H979 C999 0.950 . S
H980 C1001 0.950 . S
H981 C1004 0.950 . S
H982 C1005 0.950 . S
H983 C1007 0.950 . S
H984 C1008 0.950 . S
H985 C1009 0.951 . S
H986 C1011 0.951 . S
H987 C1013 0.950 . S
H988 C1014 0.950 . S
H989 C1016 0.950 . S
H990 C1019 0.950 . S
H991 C1020 0.950 . S
H992 C1022 0.950 . S
H993 C1023 0.950 . S
C994 H976 0.951 . S
C994 C995 1.366 . S
C994 C996 1.388 . S
C995 C994 1.366 . S
C995 C999 1.385 . S
C996 H977 0.951 . S
C996 C994 1.388 . S
C996 C997 1.366 . S
C997 C996 1.366 . S
C997 C998 1.414 . S
C997 C1000 1.499 . S
C998 H978 0.950 . S
C998 C997 1.414 . S
C998 C999 1.374 . S
C999 H979 0.950 . S
C999 C995 1.385 . S
C999 C998 1.374 . S
C1000 C997 1.499 . S
C1000 C1001 1.373 . S
C1000 C1002 1.389 . S
C1001 H980 0.950 . S
C1001 C1000 1.373 . S
C1001 C1017 1.377 . S
C1002 C1000 1.389 . S
C1002 C1003 1.524 . S
C1002 C1016 1.377 . S
C1003 C1002 1.524 . S
C1003 C1004 1.397 . S
C1003 C1008 1.363 . S
C1004 H981 0.950 . S
C1004 C1003 1.397 . S
C1004 C1005 1.334 . S
C1005 H982 0.950 . S
C1005 C1004 1.334 . S
C1005 C1006 1.287 . S
C1006 C1005 1.287 . S
C1006 C1007 1.524 . S
C1006 H1025 0.913 1_556 S
C1007 H983 0.950 . S
C1007 C1006 1.524 . S
C1007 C1008 1.415 . S
C1008 H984 0.950 . S
C1008 C1003 1.363 . S
C1008 C1007 1.415 . S
C1009 H985 0.951 . S
C1009 C1010 1.366 . S
C1009 C1011 1.388 . S
C1010 C1009 1.366 . S
C1010 C1014 1.385 . S
C1011 H986 0.951 . S
C1011 C1009 1.388 . S
C1011 C1012 1.366 . S
C1012 C1011 1.366 . S
C1012 C1013 1.414 . S
C1012 C1015 1.499 . S
C1013 H987 0.950 . S
C1013 C1012 1.414 . S
C1013 C1014 1.374 . S
C1014 H988 0.950 . S
C1014 C1010 1.385 . S
C1014 C1013 1.374 . S
C1015 C1012 1.499 . S
C1015 C1016 1.373 . S
C1015 C1017 1.389 . S
C1016 H989 0.950 . S
C1016 C1002 1.377 . S
C1016 C1015 1.373 . S
C1017 C1001 1.377 . S
C1017 C1015 1.389 . S
C1017 C1018 1.524 . S
C1018 C1017 1.524 . S
C1018 C1019 1.397 . S
C1018 C1023 1.363 . S
C1019 H990 0.950 . S
C1019 C1018 1.397 . S
C1019 C1020 1.334 . S
C1020 H991 0.950 . S
C1020 C1019 1.334 . S
C1020 C1021 1.287 . S
C1021 C1020 1.287 . S
C1021 C1022 1.524 . S
C1021 H1024 0.999 . S
C1022 H992 0.950 . S
C1022 C1021 1.524 . S
C1022 C1023 1.415 . S
C1023 H993 0.950 . S
C1023 C1018 1.363 . S
C1023 C1022 1.415 . S
H1024 C1021 0.999 . S
H1025 C1006 0.913 1_554 S
H1026 C1044 0.951 . S
H1027 C1046 0.951 . S
H1028 C1048 0.950 . S
H1029 C1049 0.950 . S
H1030 C1051 0.950 . S
H1031 C1054 0.950 . S
H1032 C1055 0.950 1_655 S
H1033 C1057 0.950 . S
H1034 C1058 0.950 . S
H1035 C1059 0.951 . S
H1036 C1061 0.951 . S
H1037 C1063 0.950 . S
H1038 C1064 0.950 . S
H1039 C1066 0.950 . S
H1040 C1069 0.950 . S
H1041 C1070 0.950 . S
H1042 C1072 0.950 . S
H1043 C1073 0.950 . S
C1044 H1026 0.951 . S
C1044 C1045 1.366 . S
C1044 C1046 1.388 . S
C1045 C1044 1.366 . S
C1045 C1049 1.385 . S
C1046 H1027 0.951 . S
C1046 C1044 1.388 . S
C1046 C1047 1.366 . S
C1047 C1046 1.366 . S
C1047 C1048 1.414 . S
C1047 C1050 1.499 . S
C1048 H1028 0.950 . S
C1048 C1047 1.414 . S
C1048 C1049 1.374 . S
C1049 H1029 0.950 . S
C1049 C1045 1.385 . S
C1049 C1048 1.374 . S
C1050 C1047 1.499 . S
C1050 C1051 1.373 . S
C1050 C1052 1.389 . S
C1051 H1030 0.950 . S
C1051 C1050 1.373 . S
C1051 C1067 1.377 . S
C1052 C1050 1.389 . S
C1052 C1053 1.524 . S
C1052 C1066 1.377 . S
C1053 C1052 1.524 . S
C1053 C1054 1.397 . S
C1053 C1058 1.363 . S
C1054 H1031 0.950 . S
C1054 C1053 1.397 . S
C1054 C1055 1.334 . S
C1055 H1032 0.950 1_455 S
C1055 C1054 1.334 . S
C1055 C1056 1.287 . S
C1056 C1055 1.287 . S
C1056 C1057 1.524 . S
C1056 H1075 0.913 1_455 S
C1057 H1033 0.950 . S
C1057 C1056 1.524 . S
C1057 C1058 1.415 . S
C1058 H1034 0.950 . S
C1058 C1053 1.363 . S
C1058 C1057 1.415 . S
C1059 H1035 0.951 . S
C1059 C1060 1.366 . S
C1059 C1061 1.388 . S
C1060 C1059 1.366 . S
C1060 C1064 1.385 . S
C1061 H1036 0.951 . S
C1061 C1059 1.388 . S
C1061 C1062 1.366 . S
C1062 C1061 1.366 . S
C1062 C1063 1.414 . S
C1062 C1065 1.499 . S
C1063 H1037 0.950 . S
C1063 C1062 1.414 . S
C1063 C1064 1.374 . S
C1064 H1038 0.950 . S
C1064 C1060 1.385 . S
C1064 C1063 1.374 . S
C1065 C1062 1.499 . S
C1065 C1066 1.373 . S
C1065 C1067 1.389 . S
C1066 H1039 0.950 . S
C1066 C1052 1.377 . S
C1066 C1065 1.373 . S
C1067 C1051 1.377 . S
C1067 C1065 1.389 . S
C1067 C1068 1.524 . S
C1068 C1067 1.524 . S
C1068 C1069 1.397 . S
C1068 C1073 1.363 . S
C1069 H1040 0.950 . S
C1069 C1068 1.397 . S
C1069 C1070 1.334 . S
C1070 H1041 0.950 . S
C1070 C1069 1.334 . S
C1070 C1071 1.287 . S
C1071 C1070 1.287 . S
C1071 C1072 1.524 . S
C1071 H1074 0.999 . S
C1072 H1042 0.950 . S
C1072 C1071 1.524 . S
C1072 C1073 1.415 . S
C1073 H1043 0.950 . S
C1073 C1068 1.363 . S
C1073 C1072 1.415 . S
H1074 C1071 0.999 . S
H1075 C1056 0.913 1_655 S
H1076 C1094 0.951 . S
H1077 C1096 0.951 . S
H1078 C1098 0.950 . S
H1079 C1099 0.950 . S
H1080 C1101 0.950 . S
H1081 C1104 0.950 . S
H1082 C1105 0.950 . S
H1083 C1107 0.950 . S
H1084 C1108 0.950 . S
H1085 C1109 0.951 . S
H1086 C1111 0.951 . S
H1087 C1113 0.950 . S
H1088 C1114 0.950 . S
H1089 C1116 0.950 . S
H1090 C1119 0.950 . S
H1091 C1120 0.950 . S
H1092 C1122 0.950 . S
H1093 C1123 0.950 . S
C1094 H1076 0.951 . S
C1094 C1095 1.366 . S
C1094 C1096 1.388 . S
C1095 C1094 1.366 . S
C1095 C1099 1.385 . S
C1096 H1077 0.951 . S
C1096 C1094 1.388 . S
C1096 C1097 1.366 . S
C1097 C1096 1.366 . S
C1097 C1098 1.414 . S
C1097 C1100 1.499 . S
C1098 H1078 0.950 . S
C1098 C1097 1.414 . S
C1098 C1099 1.374 . S
C1099 H1079 0.950 . S
C1099 C1095 1.385 . S
C1099 C1098 1.374 . S
C1100 C1097 1.499 . S
C1100 C1101 1.373 . S
C1100 C1102 1.389 . S
C1101 H1080 0.950 . S
C1101 C1100 1.373 . S
C1101 C1117 1.377 . S
C1102 C1100 1.389 . S
C1102 C1103 1.524 . S
C1102 C1116 1.377 . S
C1103 C1102 1.524 . S
C1103 C1104 1.397 . S
C1103 C1108 1.363 . S
C1104 H1081 0.950 . S
C1104 C1103 1.397 . S
C1104 C1105 1.334 . S
C1105 H1082 0.950 . S
C1105 C1104 1.334 . S
C1105 C1106 1.287 . S
C1106 C1105 1.287 . S
C1106 C1107 1.524 . S
C1106 H1125 0.913 . S
C1107 H1083 0.950 . S
C1107 C1106 1.524 . S
C1107 C1108 1.415 . S
C1108 H1084 0.950 . S
C1108 C1103 1.363 . S
C1108 C1107 1.415 . S
C1109 H1085 0.951 . S
C1109 C1110 1.366 . S
C1109 C1111 1.388 . S
C1110 C1109 1.366 . S
C1110 C1114 1.385 . S
C1111 H1086 0.951 . S
C1111 C1109 1.388 . S
C1111 C1112 1.366 . S
C1112 C1111 1.366 . S
C1112 C1113 1.414 . S
C1112 C1115 1.499 . S
C1113 H1087 0.950 . S
C1113 C1112 1.414 . S
C1113 C1114 1.374 . S
C1114 H1088 0.950 . S
C1114 C1110 1.385 . S
C1114 C1113 1.374 . S
C1115 C1112 1.499 . S
C1115 C1116 1.373 . S
C1115 C1117 1.389 . S
C1116 H1089 0.950 . S
C1116 C1102 1.377 . S
C1116 C1115 1.373 . S
C1117 C1101 1.377 . S
C1117 C1115 1.389 . S
C1117 C1118 1.524 . S
C1118 C1117 1.524 . S
C1118 C1119 1.397 . S
C1118 C1123 1.363 . S
C1119 H1090 0.950 . S
C1119 C1118 1.397 . S
C1119 C1120 1.334 . S
C1120 H1091 0.950 . S
C1120 C1119 1.334 . S
C1120 C1121 1.287 . S
C1121 C1120 1.287 . S
C1121 C1122 1.524 . S
C1121 H1124 0.999 . S
C1122 H1092 0.950 . S
C1122 C1121 1.524 . S
C1122 C1123 1.415 . S
C1123 H1093 0.950 . S
C1123 C1118 1.363 . S
C1123 C1122 1.415 . S
H1124 C1121 0.999 . S
H1125 C1106 0.913 . S
H1126 C1144 0.951 . S
H1127 C1146 0.951 . S
H1128 C1148 0.950 . S
H1129 C1149 0.950 . S
H1130 C1151 0.950 . S
H1131 C1154 0.950 . S
H1132 C1155 0.950 . S
H1133 C1157 0.950 . S
H1134 C1158 0.950 . S
H1135 C1159 0.951 . S
H1136 C1161 0.951 . S
H1137 C1163 0.950 . S
H1138 C1164 0.950 . S
H1139 C1166 0.950 . S
H1140 C1169 0.950 . S
H1141 C1170 0.950 . S
H1142 C1172 0.950 . S
H1143 C1173 0.950 . S
C1144 H1126 0.951 . S
C1144 C1145 1.366 . S
C1144 C1146 1.388 . S
C1145 C1144 1.366 . S
C1145 C1149 1.385 . S
C1146 H1127 0.951 . S
C1146 C1144 1.388 . S
C1146 C1147 1.366 . S
C1147 C1146 1.366 . S
C1147 C1148 1.414 . S
C1147 C1150 1.499 . S
C1148 H1128 0.950 . S
C1148 C1147 1.414 . S
C1148 C1149 1.374 . S
C1149 H1129 0.950 . S
C1149 C1145 1.385 . S
C1149 C1148 1.374 . S
C1150 C1147 1.499 . S
C1150 C1151 1.373 . S
C1150 C1152 1.389 . S
C1151 H1130 0.950 . S
C1151 C1150 1.373 . S
C1151 C1167 1.377 . S
C1152 C1150 1.389 . S
C1152 C1153 1.524 . S
C1152 C1166 1.377 . S
C1153 C1152 1.524 . S
C1153 C1154 1.397 . S
C1153 C1158 1.363 . S
C1154 H1131 0.950 . S
C1154 C1153 1.397 . S
C1154 C1155 1.334 . S
C1155 H1132 0.950 . S
C1155 C1154 1.334 . S
C1155 C1156 1.287 . S
C1156 C1155 1.287 . S
C1156 C1157 1.524 . S
C1156 H1175 0.913 . S
C1157 H1133 0.950 . S
C1157 C1156 1.524 . S
C1157 C1158 1.415 . S
C1158 H1134 0.950 . S
C1158 C1153 1.363 . S
C1158 C1157 1.415 . S
C1159 H1135 0.951 . S
C1159 C1160 1.366 . S
C1159 C1161 1.388 . S
C1160 C1159 1.366 . S
C1160 C1164 1.385 . S
C1161 H1136 0.951 . S
C1161 C1159 1.388 . S
C1161 C1162 1.366 . S
C1162 C1161 1.366 . S
C1162 C1163 1.414 . S
C1162 C1165 1.499 . S
C1163 H1137 0.950 . S
C1163 C1162 1.414 . S
C1163 C1164 1.374 . S
C1164 H1138 0.950 . S
C1164 C1160 1.385 . S
C1164 C1163 1.374 . S
C1165 C1162 1.499 . S
C1165 C1166 1.373 . S
C1165 C1167 1.389 . S
C1166 H1139 0.950 . S
C1166 C1152 1.377 . S
C1166 C1165 1.373 . S
C1167 C1151 1.377 . S
C1167 C1165 1.389 . S
C1167 C1168 1.524 . S
C1168 C1167 1.524 . S
C1168 C1169 1.397 . S
C1168 C1173 1.363 . S
C1169 H1140 0.950 . S
C1169 C1168 1.397 . S
C1169 C1170 1.334 . S
C1170 H1141 0.950 . S
C1170 C1169 1.334 . S
C1170 C1171 1.287 . S
C1171 C1170 1.287 . S
C1171 C1172 1.524 . S
C1171 H1174 0.999 . S
C1172 H1142 0.950 . S
C1172 C1171 1.524 . S
C1172 C1173 1.415 . S
C1173 H1143 0.950 . S
C1173 C1168 1.363 . S
C1173 C1172 1.415 . S
H1174 C1171 0.999 . S
H1175 C1156 0.913 . S
H1176 C1194 0.951 . S
H1177 C1196 0.951 . S
H1178 C1198 0.950 . S
H1179 C1199 0.950 . S
H1180 C1201 0.950 . S
H1181 C1204 0.950 . S
H1182 C1205 0.950 . S
H1183 C1207 0.950 . S
H1184 C1208 0.950 . S
H1185 C1209 0.951 . S
H1186 C1211 0.951 . S
H1187 C1213 0.950 . S
H1188 C1214 0.950 . S
H1189 C1216 0.950 . S
H1190 C1219 0.950 . S
H1191 C1220 0.950 . S
H1192 C1222 0.950 . S
H1193 C1223 0.950 . S
C1194 H1176 0.951 . S
C1194 C1195 1.366 . S
C1194 C1196 1.388 . S
C1195 C1194 1.366 . S
C1195 C1199 1.385 . S
C1196 H1177 0.951 . S
C1196 C1194 1.388 . S
C1196 C1197 1.366 . S
C1197 C1196 1.366 . S
C1197 C1198 1.414 . S
C1197 C1200 1.499 . S
C1198 H1178 0.950 . S
C1198 C1197 1.414 . S
C1198 C1199 1.374 . S
C1199 H1179 0.950 . S
C1199 C1195 1.385 . S
C1199 C1198 1.374 . S
C1200 C1197 1.499 . S
C1200 C1201 1.373 . S
C1200 C1202 1.389 . S
C1201 H1180 0.950 . S
C1201 C1200 1.373 . S
C1201 C1217 1.377 . S
C1202 C1200 1.389 . S
C1202 C1203 1.524 . S
C1202 C1216 1.377 . S
C1203 C1202 1.524 . S
C1203 C1204 1.397 . S
C1203 C1208 1.363 . S
C1204 H1181 0.950 . S
C1204 C1203 1.397 . S
C1204 C1205 1.334 . S
C1205 H1182 0.950 . S
C1205 C1204 1.334 . S
C1205 C1206 1.287 . S
C1206 C1205 1.287 . S
C1206 C1207 1.524 . S
C1206 H1225 0.913 . S
C1207 H1183 0.950 . S
C1207 C1206 1.524 . S
C1207 C1208 1.415 . S
C1208 H1184 0.950 . S
C1208 C1203 1.363 . S
C1208 C1207 1.415 . S
C1209 H1185 0.951 . S
C1209 C1210 1.366 . S
C1209 C1211 1.388 . S
C1210 C1209 1.366 . S
C1210 C1214 1.385 . S
C1211 H1186 0.951 . S
C1211 C1209 1.388 . S
C1211 C1212 1.366 . S
C1212 C1211 1.366 . S
C1212 C1213 1.414 . S
C1212 C1215 1.499 . S
C1213 H1187 0.950 . S
C1213 C1212 1.414 . S
C1213 C1214 1.374 . S
C1214 H1188 0.950 . S
C1214 C1210 1.385 . S
C1214 C1213 1.374 . S
C1215 C1212 1.499 . S
C1215 C1216 1.373 . S
C1215 C1217 1.389 . S
C1216 H1189 0.950 . S
C1216 C1202 1.377 . S
C1216 C1215 1.373 . S
C1217 C1201 1.377 . S
C1217 C1215 1.389 . S
C1217 C1218 1.524 . S
C1218 C1217 1.524 . S
C1218 C1219 1.397 . S
C1218 C1223 1.363 . S
C1219 H1190 0.950 . S
C1219 C1218 1.397 . S
C1219 C1220 1.334 . S
C1220 H1191 0.950 . S
C1220 C1219 1.334 . S
C1220 C1221 1.287 . S
C1221 C1220 1.287 . S
C1221 C1222 1.524 . S
C1221 H1224 0.999 . S
C1222 H1192 0.950 . S
C1222 C1221 1.524 . S
C1222 C1223 1.415 . S
C1223 H1193 0.950 . S
C1223 C1218 1.363 . S
C1223 C1222 1.415 . S
H1224 C1221 0.999 . S
H1225 C1206 0.913 . S
H1226 C1244 0.951 . S
H1227 C1246 0.951 . S
H1228 C1248 0.950 . S
H1229 C1249 0.950 . S
H1230 C1251 0.950 . S
H1231 C1254 0.950 . S
H1232 C1255 0.950 . S
H1233 C1257 0.950 . S
H1234 C1258 0.950 . S
H1235 C1259 0.951 . S
H1236 C1261 0.951 . S
H1237 C1263 0.950 . S
H1238 C1264 0.950 . S
H1239 C1266 0.950 . S
H1240 C1269 0.950 . S
H1241 C1270 0.950 . S
H1242 C1272 0.950 . S
H1243 C1273 0.950 . S
C1244 H1226 0.951 . S
C1244 C1245 1.366 . S
C1244 C1246 1.388 . S
C1245 C1244 1.366 . S
C1245 C1249 1.385 . S
C1246 H1227 0.951 . S
C1246 C1244 1.388 . S
C1246 C1247 1.366 . S
C1247 C1246 1.366 . S
C1247 C1248 1.414 . S
C1247 C1250 1.499 . S
C1248 H1228 0.950 . S
C1248 C1247 1.414 . S
C1248 C1249 1.374 . S
C1249 H1229 0.950 . S
C1249 C1245 1.385 . S
C1249 C1248 1.374 . S
C1250 C1247 1.499 . S
C1250 C1251 1.373 . S
C1250 C1252 1.389 . S
C1251 H1230 0.950 . S
C1251 C1250 1.373 . S
C1251 C1267 1.377 . S
C1252 C1250 1.389 . S
C1252 C1253 1.524 . S
C1252 C1266 1.377 . S
C1253 C1252 1.524 . S
C1253 C1254 1.397 . S
C1253 C1258 1.363 . S
C1254 H1231 0.950 . S
C1254 C1253 1.397 . S
C1254 C1255 1.334 . S
C1255 H1232 0.950 . S
C1255 C1254 1.334 . S
C1255 C1256 1.287 . S
C1256 C1255 1.287 . S
C1256 C1257 1.524 . S
C1256 H1275 0.913 . S
C1257 H1233 0.950 . S
C1257 C1256 1.524 . S
C1257 C1258 1.415 . S
C1258 H1234 0.950 . S
C1258 C1253 1.363 . S
C1258 C1257 1.415 . S
C1259 H1235 0.951 . S
C1259 C1260 1.366 . S
C1259 C1261 1.388 . S
C1260 C1259 1.366 . S
C1260 C1264 1.385 . S
C1261 H1236 0.951 . S
C1261 C1259 1.388 . S
C1261 C1262 1.366 . S
C1262 C1261 1.366 . S
C1262 C1263 1.414 . S
C1262 C1265 1.499 . S
C1263 H1237 0.950 . S
C1263 C1262 1.414 . S
C1263 C1264 1.374 . S
C1264 H1238 0.950 . S
C1264 C1260 1.385 . S
C1264 C1263 1.374 . S
C1265 C1262 1.499 . S
C1265 C1266 1.373 . S
C1265 C1267 1.389 . S
C1266 H1239 0.950 . S
C1266 C1252 1.377 . S
C1266 C1265 1.373 . S
C1267 C1251 1.377 . S
C1267 C1265 1.389 . S
C1267 C1268 1.524 . S
C1268 C1267 1.524 . S
C1268 C1269 1.397 . S
C1268 C1273 1.363 . S
C1269 H1240 0.950 . S
C1269 C1268 1.397 . S
C1269 C1270 1.334 . S
C1270 H1241 0.950 . S
C1270 C1269 1.334 . S
C1270 C1271 1.287 . S
C1271 C1270 1.287 . S
C1271 C1272 1.524 . S
C1271 H1274 0.999 . S
C1272 H1242 0.950 . S
C1272 C1271 1.524 . S
C1272 C1273 1.415 . S
C1273 H1243 0.950 . S
C1273 C1268 1.363 . S
C1273 C1272 1.415 . S
H1274 C1271 0.999 . S
H1275 C1256 0.913 . S
H1276 C1294 0.951 . S
H1277 C1296 0.951 . S
H1278 C1298 0.950 . S
H1279 C1299 0.950 . S
H1280 C1301 0.950 . S
H1281 C1304 0.950 . S
H1282 C1305 0.950 1_455 S
H1283 C1307 0.950 . S
H1284 C1308 0.950 . S
H1285 C1309 0.951 . S
H1286 C1311 0.951 . S
H1287 C1313 0.950 . S
H1288 C1314 0.950 . S
H1289 C1316 0.950 . S
H1290 C1319 0.950 . S
H1291 C1320 0.950 . S
H1292 C1322 0.950 . S
H1293 C1323 0.950 . S
C1294 H1276 0.951 . S
C1294 C1295 1.366 . S
C1294 C1296 1.388 . S
C1295 C1294 1.366 . S
C1295 C1299 1.385 . S
C1296 H1277 0.951 . S
C1296 C1294 1.388 . S
C1296 C1297 1.366 . S
C1297 C1296 1.366 . S
C1297 C1298 1.414 . S
C1297 C1300 1.499 . S
C1298 H1278 0.950 . S
C1298 C1297 1.414 . S
C1298 C1299 1.374 . S
C1299 H1279 0.950 . S
C1299 C1295 1.385 . S
C1299 C1298 1.374 . S
C1300 C1297 1.499 . S
C1300 C1301 1.373 . S
C1300 C1302 1.389 . S
C1301 H1280 0.950 . S
C1301 C1300 1.373 . S
C1301 C1317 1.377 . S
C1302 C1300 1.389 . S
C1302 C1303 1.524 . S
C1302 C1316 1.377 . S
C1303 C1302 1.524 . S
C1303 C1304 1.397 . S
C1303 C1308 1.363 . S
C1304 H1281 0.950 . S
C1304 C1303 1.397 . S
C1304 C1305 1.334 . S
C1305 H1282 0.950 1_655 S
C1305 C1304 1.334 . S
C1305 C1306 1.287 . S
C1306 C1305 1.287 . S
C1306 C1307 1.524 . S
C1306 H1325 0.913 1_655 S
C1307 H1283 0.950 . S
C1307 C1306 1.524 . S
C1307 C1308 1.415 . S
C1308 H1284 0.950 . S
C1308 C1303 1.363 . S
C1308 C1307 1.415 . S
C1309 H1285 0.951 . S
C1309 C1310 1.366 . S
C1309 C1311 1.388 . S
C1310 C1309 1.366 . S
C1310 C1314 1.385 . S
C1311 H1286 0.951 . S
C1311 C1309 1.388 . S
C1311 C1312 1.366 . S
C1312 C1311 1.366 . S
C1312 C1313 1.414 . S
C1312 C1315 1.499 . S
C1313 H1287 0.950 . S
C1313 C1312 1.414 . S
C1313 C1314 1.374 . S
C1314 H1288 0.950 . S
C1314 C1310 1.385 . S
C1314 C1313 1.374 . S
C1315 C1312 1.499 . S
C1315 C1316 1.373 . S
C1315 C1317 1.389 . S
C1316 H1289 0.950 . S
C1316 C1302 1.377 . S
C1316 C1315 1.373 . S
C1317 C1301 1.377 . S
C1317 C1315 1.389 . S
C1317 C1318 1.524 . S
C1318 C1317 1.524 . S
C1318 C1319 1.397 . S
C1318 C1323 1.363 . S
C1319 H1290 0.950 . S
C1319 C1318 1.397 . S
C1319 C1320 1.334 . S
C1320 H1291 0.950 . S
C1320 C1319 1.334 . S
C1320 C1321 1.287 . S
C1321 C1320 1.287 . S
C1321 C1322 1.524 . S
C1321 H1324 0.999 . S
C1322 H1292 0.950 . S
C1322 C1321 1.524 . S
C1322 C1323 1.415 . S
C1323 H1293 0.950 . S
C1323 C1318 1.363 . S
C1323 C1322 1.415 . S
H1324 C1321 0.999 . S
H1325 C1306 0.913 1_455 S
H1326 C1344 0.951 . S
H1327 C1346 0.951 . S
H1328 C1348 0.950 . S
H1329 C1349 0.950 . S
H1330 C1351 0.950 . S
H1331 C1354 0.950 . S
H1332 C1355 0.950 . S
H1333 C1357 0.950 . S
H1334 C1358 0.950 . S
H1335 C1359 0.951 . S
H1336 C1361 0.951 . S
H1337 C1363 0.950 . S
H1338 C1364 0.950 . S
H1339 C1366 0.950 . S
H1340 C1369 0.950 . S
H1341 C1370 0.950 . S
H1342 C1372 0.950 . S
H1343 C1373 0.950 . S
C1344 H1326 0.951 . S
C1344 C1345 1.366 . S
C1344 C1346 1.388 . S
C1345 C1344 1.366 . S
C1345 C1349 1.385 . S
C1346 H1327 0.951 . S
C1346 C1344 1.388 . S
C1346 C1347 1.366 . S
C1347 C1346 1.366 . S
C1347 C1348 1.414 . S
C1347 C1350 1.499 . S
C1348 H1328 0.950 . S
C1348 C1347 1.414 . S
C1348 C1349 1.374 . S
C1349 H1329 0.950 . S
C1349 C1345 1.385 . S
C1349 C1348 1.374 . S
C1350 C1347 1.499 . S
C1350 C1351 1.373 . S
C1350 C1352 1.389 . S
C1351 H1330 0.950 . S
C1351 C1350 1.373 . S
C1351 C1367 1.377 . S
C1352 C1350 1.389 . S
C1352 C1353 1.524 . S
C1352 C1366 1.377 . S
C1353 C1352 1.524 . S
C1353 C1354 1.397 . S
C1353 C1358 1.363 . S
C1354 H1331 0.950 . S
C1354 C1353 1.397 . S
C1354 C1355 1.334 . S
C1355 H1332 0.950 . S
C1355 C1354 1.334 . S
C1355 C1356 1.287 . S
C1356 C1355 1.287 . S
C1356 C1357 1.524 . S
C1356 H1375 0.913 . S
C1357 H1333 0.950 . S
C1357 C1356 1.524 . S
C1357 C1358 1.415 . S
C1358 H1334 0.950 . S
C1358 C1353 1.363 . S
C1358 C1357 1.415 . S
C1359 H1335 0.951 . S
C1359 C1360 1.366 . S
C1359 C1361 1.388 . S
C1360 C1359 1.366 . S
C1360 C1364 1.385 . S
C1361 H1336 0.951 . S
C1361 C1359 1.388 . S
C1361 C1362 1.366 . S
C1362 C1361 1.366 . S
C1362 C1363 1.414 . S
C1362 C1365 1.499 . S
C1363 H1337 0.950 . S
C1363 C1362 1.414 . S
C1363 C1364 1.374 . S
C1364 H1338 0.950 . S
C1364 C1360 1.385 . S
C1364 C1363 1.374 . S
C1365 C1362 1.499 . S
C1365 C1366 1.373 . S
C1365 C1367 1.389 . S
C1366 H1339 0.950 . S
C1366 C1352 1.377 . S
C1366 C1365 1.373 . S
C1367 C1351 1.377 . S
C1367 C1365 1.389 . S
C1367 C1368 1.524 . S
C1368 C1367 1.524 . S
C1368 C1369 1.397 . S
C1368 C1373 1.363 . S
C1369 H1340 0.950 . S
C1369 C1368 1.397 . S
C1369 C1370 1.334 . S
C1370 H1341 0.950 . S
C1370 C1369 1.334 . S
C1370 C1371 1.287 . S
C1371 C1370 1.287 . S
C1371 C1372 1.524 . S
C1371 H1374 0.999 . S
C1372 H1342 0.950 . S
C1372 C1371 1.524 . S
C1372 C1373 1.415 . S
C1373 H1343 0.950 . S
C1373 C1368 1.363 . S
C1373 C1372 1.415 . S
H1374 C1371 0.999 . S
H1375 C1356 0.913 . S
H1376 C1394 0.951 . S
H1377 C1396 0.951 . S
H1378 C1398 0.950 . S
H1379 C1399 0.950 . S
H1380 C1401 0.950 . S
H1381 C1404 0.950 . S
H1382 C1405 0.950 . S
H1383 C1407 0.950 . S
H1384 C1408 0.950 . S
H1385 C1409 0.951 . S
H1386 C1411 0.951 . S
H1387 C1413 0.950 . S
H1388 C1414 0.950 . S
H1389 C1416 0.950 . S
H1390 C1419 0.950 . S
H1391 C1420 0.950 . S
H1392 C1422 0.950 . S
H1393 C1423 0.950 . S
C1394 H1376 0.951 . S
C1394 C1395 1.366 . S
C1394 C1396 1.388 . S
C1395 C1394 1.366 . S
C1395 C1399 1.385 . S
C1396 H1377 0.951 . S
C1396 C1394 1.388 . S
C1396 C1397 1.366 . S
C1397 C1396 1.366 . S
C1397 C1398 1.414 . S
C1397 C1400 1.499 . S
C1398 H1378 0.950 . S
C1398 C1397 1.414 . S
C1398 C1399 1.374 . S
C1399 H1379 0.950 . S
C1399 C1395 1.385 . S
C1399 C1398 1.374 . S
C1400 C1397 1.499 . S
C1400 C1401 1.373 . S
C1400 C1402 1.389 . S
C1401 H1380 0.950 . S
C1401 C1400 1.373 . S
C1401 C1417 1.377 . S
C1402 C1400 1.389 . S
C1402 C1403 1.524 . S
C1402 C1416 1.377 . S
C1403 C1402 1.524 . S
C1403 C1404 1.397 . S
C1403 C1408 1.363 . S
C1404 H1381 0.950 . S
C1404 C1403 1.397 . S
C1404 C1405 1.334 . S
C1405 H1382 0.950 . S
C1405 C1404 1.334 . S
C1405 C1406 1.287 . S
C1406 C1405 1.287 . S
C1406 C1407 1.524 . S
C1406 H1425 0.913 . S
C1407 H1383 0.950 . S
C1407 C1406 1.524 . S
C1407 C1408 1.415 . S
C1408 H1384 0.950 . S
C1408 C1403 1.363 . S
C1408 C1407 1.415 . S
C1409 H1385 0.951 . S
C1409 C1410 1.366 . S
C1409 C1411 1.388 . S
C1410 C1409 1.366 . S
C1410 C1414 1.385 . S
C1411 H1386 0.951 . S
C1411 C1409 1.388 . S
C1411 C1412 1.366 . S
C1412 C1411 1.366 . S
C1412 C1413 1.414 . S
C1412 C1415 1.499 . S
C1413 H1387 0.950 . S
C1413 C1412 1.414 . S
C1413 C1414 1.374 . S
C1414 H1388 0.950 . S
C1414 C1410 1.385 . S
C1414 C1413 1.374 . S
C1415 C1412 1.499 . S
C1415 C1416 1.373 . S
C1415 C1417 1.389 . S
C1416 H1389 0.950 . S
C1416 C1402 1.377 . S
C1416 C1415 1.373 . S
C1417 C1401 1.377 . S
C1417 C1415 1.389 . S
C1417 C1418 1.524 . S
C1418 C1417 1.524 . S
C1418 C1419 1.397 . S
C1418 C1423 1.363 . S
C1419 H1390 0.950 . S
C1419 C1418 1.397 . S
C1419 C1420 1.334 . S
C1420 H1391 0.950 . S
C1420 C1419 1.334 . S
C1420 C1421 1.287 . S
C1421 C1420 1.287 . S
C1421 C1422 1.524 . S
C1421 H1424 0.999 . S
C1422 H1392 0.950 . S
C1422 C1421 1.524 . S
C1422 C1423 1.415 . S
C1423 H1393 0.950 . S
C1423 C1418 1.363 . S
C1423 C1422 1.415 . S
H1424 C1421 0.999 . S
H1425 C1406 0.913 . S
H1426 C1444 0.951 . S
H1427 C1446 0.951 . S
H1428 C1448 0.950 . S
H1429 C1449 0.950 . S
H1430 C1451 0.950 . S
H1431 C1454 0.950 . S
H1432 C1455 0.950 . S
H1433 C1457 0.950 . S
H1434 C1458 0.950 . S
H1435 C1459 0.951 . S
H1436 C1461 0.951 . S
H1437 C1463 0.950 . S
H1438 C1464 0.950 . S
H1439 C1466 0.950 . S
H1440 C1469 0.950 . S
H1441 C1470 0.950 . S
H1442 C1472 0.950 . S
H1443 C1473 0.950 . S
C1444 H1426 0.951 . S
C1444 C1445 1.366 . S
C1444 C1446 1.388 . S
C1445 C1444 1.366 . S
C1445 C1449 1.385 . S
C1446 H1427 0.951 . S
C1446 C1444 1.388 . S
C1446 C1447 1.366 . S
C1447 C1446 1.366 . S
C1447 C1448 1.414 . S
C1447 C1450 1.499 . S
C1448 H1428 0.950 . S
C1448 C1447 1.414 . S
C1448 C1449 1.374 . S
C1449 H1429 0.950 . S
C1449 C1445 1.385 . S
C1449 C1448 1.374 . S
C1450 C1447 1.499 . S
C1450 C1451 1.373 . S
C1450 C1452 1.389 . S
C1451 H1430 0.950 . S
C1451 C1450 1.373 . S
C1451 C1467 1.377 . S
C1452 C1450 1.389 . S
C1452 C1453 1.524 . S
C1452 C1466 1.377 . S
C1453 C1452 1.524 . S
C1453 C1454 1.397 . S
C1453 C1458 1.363 . S
C1454 H1431 0.950 . S
C1454 C1453 1.397 . S
C1454 C1455 1.334 . S
C1455 H1432 0.950 . S
C1455 C1454 1.334 . S
C1455 C1456 1.287 . S
C1456 C1455 1.287 . S
C1456 C1457 1.524 . S
C1456 H1475 0.913 . S
C1457 H1433 0.950 . S
C1457 C1456 1.524 . S
C1457 C1458 1.415 . S
C1458 H1434 0.950 . S
C1458 C1453 1.363 . S
C1458 C1457 1.415 . S
C1459 H1435 0.951 . S
C1459 C1460 1.366 . S
C1459 C1461 1.388 . S
C1460 C1459 1.366 . S
C1460 C1464 1.385 . S
C1461 H1436 0.951 . S
C1461 C1459 1.388 . S
C1461 C1462 1.366 . S
C1462 C1461 1.366 . S
C1462 C1463 1.414 . S
C1462 C1465 1.499 . S
C1463 H1437 0.950 . S
C1463 C1462 1.414 . S
C1463 C1464 1.374 . S
C1464 H1438 0.950 . S
C1464 C1460 1.385 . S
C1464 C1463 1.374 . S
C1465 C1462 1.499 . S
C1465 C1466 1.373 . S
C1465 C1467 1.389 . S
C1466 H1439 0.950 . S
C1466 C1452 1.377 . S
C1466 C1465 1.373 . S
C1467 C1451 1.377 . S
C1467 C1465 1.389 . S
C1467 C1468 1.524 . S
C1468 C1467 1.524 . S
C1468 C1469 1.397 . S
C1468 C1473 1.363 . S
C1469 H1440 0.950 . S
C1469 C1468 1.397 . S
C1469 C1470 1.334 . S
C1470 H1441 0.950 . S
C1470 C1469 1.334 . S
C1470 C1471 1.287 . S
C1471 C1470 1.287 . S
C1471 C1472 1.524 . S
C1471 H1474 0.999 . S
C1472 H1442 0.950 . S
C1472 C1471 1.524 . S
C1472 C1473 1.415 . S
C1473 H1443 0.950 . S
C1473 C1468 1.363 . S
C1473 C1472 1.415 . S
H1474 C1471 0.999 . S
H1475 C1456 0.913 . S
C295 C7 2.234 . S
C310 C145 2.210 . S
C345 C30 1.314 . S
C360 N163 1.303 . S
C410 C191 2.062 . S
C395 N58 2.034 . S
C460 N209 1.189 . S
C445 N81 1.164 . S
C510 C237 2.127 . S
C495 C99 2.152 . S
C560 N255 1.217 . S
C545 N127 1.190 . S
C595 N25 2.033 . S
C610 C200 2.076 . S
C645 C62 1.305 . S
C660 N219 1.245 . S
C710 C246 2.170 . S
C695 C85 2.162 . S
C760 N265 1.166 . S
C745 N94 1.193 . S
C795 C131 2.162 . S
C810 C154 2.159 . S
C860 N173 1.153 . S
C845 N2 1.179 . S
C910 C223 2.041 . S
C895 C16 2.079 . S
C945 C39 1.174 . S
C960 N242 1.160 . S
C1010 C269 1.918 . S
C995 N48 1.923 . S
C1045 N71 1.075 . S
C1060 N150 1.078 . S
C1095 C108 2.042 . S
C1110 C177 2.005 . S
C1145 N117 1.063 . S
C1160 N196 1.073 . S
C1195 N35 1.927 . S
C1210 C260 1.954 . S
C1260 N140 1.138 . S
C1245 C53 1.196 . S
C1295 C76 2.116 . S
C1310 C168 2.104 . S
C1345 N104 1.064 . S
C1360 N186 1.033 . S
C1395 C122 2.051 . S
C1410 C214 2.037 . S
C1445 N12 1.047 . S
C1460 N232 1.021 . S
