# Generated by pormake.
# Topology cor, (4,6)-cn, num edge types: 1
# Building blocks:
#     Node 0, Type 0, BuildingBlock: ESEHIV_clean_sbu_0, # of connection points: 4
#     Node 1, Type 0, BuildingBlock: ESEHIV_clean_sbu_0, # of connection points: 4
#     Node 2, Type 0, BuildingBlock: ESEHIV_clean_sbu_0, # of connection points: 4
#     Node 3, Type 0, BuildingBlock: ESEHIV_clean_sbu_0, # of connection points: 4
#     Node 4, Type 0, BuildingBlock: ESEHIV_clean_sbu_0, # of connection points: 4
#     Node 5, Type 0, BuildingBlock: ESEHIV_clean_sbu_0, # of connection points: 4
#     Node 6, Type 0, BuildingBlock: ESEHIV_clean_sbu_0, # of connection points: 4
#     Node 7, Type 0, BuildingBlock: ESEHIV_clean_sbu_0, # of connection points: 4
#     Node 8, Type 0, BuildingBlock: ESEHIV_clean_sbu_0, # of connection points: 4
#     Node 9, Type 0, BuildingBlock: ESEHIV_clean_sbu_0, # of connection points: 4
#     Node 10, Type 0, BuildingBlock: ESEHIV_clean_sbu_0, # of connection points: 4
#     Node 11, Type 0, BuildingBlock: ESEHIV_clean_sbu_0, # of connection points: 4
#     Node 12, Type 0, BuildingBlock: ESEHIV_clean_sbu_0, # of connection points: 4
#     Node 13, Type 0, BuildingBlock: ESEHIV_clean_sbu_0, # of connection points: 4
#     Node 14, Type 0, BuildingBlock: ESEHIV_clean_sbu_0, # of connection points: 4
#     Node 15, Type 0, BuildingBlock: ESEHIV_clean_sbu_0, # of connection points: 4
#     Node 16, Type 0, BuildingBlock: ESEHIV_clean_sbu_0, # of connection points: 4
#     Node 17, Type 0, BuildingBlock: ESEHIV_clean_sbu_0, # of connection points: 4
#     Node 18, Type 1, BuildingBlock: MIDCAF_clean_sbu_0, # of connection points: 6
#     Node 19, Type 1, BuildingBlock: MIDCAF_clean_sbu_0, # of connection points: 6
#     Node 20, Type 1, BuildingBlock: MIDCAF_clean_sbu_0, # of connection points: 6
#     Node 21, Type 1, BuildingBlock: MIDCAF_clean_sbu_0, # of connection points: 6
#     Node 22, Type 1, BuildingBlock: MIDCAF_clean_sbu_0, # of connection points: 6
#     Node 23, Type 1, BuildingBlock: MIDCAF_clean_sbu_0, # of connection points: 6
#     Node 24, Type 1, BuildingBlock: MIDCAF_clean_sbu_0, # of connection points: 6
#     Node 25, Type 1, BuildingBlock: MIDCAF_clean_sbu_0, # of connection points: 6
#     Node 26, Type 1, BuildingBlock: MIDCAF_clean_sbu_0, # of connection points: 6
#     Node 27, Type 1, BuildingBlock: MIDCAF_clean_sbu_0, # of connection points: 6
#     Node 28, Type 1, BuildingBlock: MIDCAF_clean_sbu_0, # of connection points: 6
#     Node 29, Type 1, BuildingBlock: MIDCAF_clean_sbu_0, # of connection points: 6
#     Edge 30, Type (0, 1), BuildingBlock: XUDNAN_clean_linker_2, # of connection points: 2
#     Edge 31, Type (0, 1), BuildingBlock: XUDNAN_clean_linker_2, # of connection points: 2
#     Edge 32, Type (0, 1), BuildingBlock: XUDNAN_clean_linker_2, # of connection points: 2
#     Edge 33, Type (0, 1), BuildingBlock: XUDNAN_clean_linker_2, # of connection points: 2
#     Edge 34, Type (0, 1), BuildingBlock: XUDNAN_clean_linker_2, # of connection points: 2
#     Edge 35, Type (0, 1), BuildingBlock: XUDNAN_clean_linker_2, # of connection points: 2
#     Edge 36, Type (0, 1), BuildingBlock: XUDNAN_clean_linker_2, # of connection points: 2
#     Edge 37, Type (0, 1), BuildingBlock: XUDNAN_clean_linker_2, # of connection points: 2
#     Edge 38, Type (0, 1), BuildingBlock: XUDNAN_clean_linker_2, # of connection points: 2
#     Edge 39, Type (0, 1), BuildingBlock: XUDNAN_clean_linker_2, # of connection points: 2
#     Edge 40, Type (0, 1), BuildingBlock: XUDNAN_clean_linker_2, # of connection points: 2
#     Edge 41, Type (0, 1), BuildingBlock: XUDNAN_clean_linker_2, # of connection points: 2
#     Edge 42, Type (0, 1), BuildingBlock: XUDNAN_clean_linker_2, # of connection points: 2
#     Edge 43, Type (0, 1), BuildingBlock: XUDNAN_clean_linker_2, # of connection points: 2
#     Edge 44, Type (0, 1), BuildingBlock: XUDNAN_clean_linker_2, # of connection points: 2
#     Edge 45, Type (0, 1), BuildingBlock: XUDNAN_clean_linker_2, # of connection points: 2
#     Edge 46, Type (0, 1), BuildingBlock: XUDNAN_clean_linker_2, # of connection points: 2
#     Edge 47, Type (0, 1), BuildingBlock: XUDNAN_clean_linker_2, # of connection points: 2
#     Edge 48, Type (0, 1), BuildingBlock: XUDNAN_clean_linker_2, # of connection points: 2
#     Edge 49, Type (0, 1), BuildingBlock: XUDNAN_clean_linker_2, # of connection points: 2
#     Edge 50, Type (0, 1), BuildingBlock: XUDNAN_clean_linker_2, # of connection points: 2
#     Edge 51, Type (0, 1), BuildingBlock: XUDNAN_clean_linker_2, # of connection points: 2
#     Edge 52, Type (0, 1), BuildingBlock: XUDNAN_clean_linker_2, # of connection points: 2
#     Edge 53, Type (0, 1), BuildingBlock: XUDNAN_clean_linker_2, # of connection points: 2
#     Edge 54, Type (0, 1), BuildingBlock: XUDNAN_clean_linker_2, # of connection points: 2
#     Edge 55, Type (0, 1), BuildingBlock: XUDNAN_clean_linker_2, # of connection points: 2
#     Edge 56, Type (0, 1), BuildingBlock: XUDNAN_clean_linker_2, # of connection points: 2
#     Edge 57, Type (0, 1), BuildingBlock: XUDNAN_clean_linker_2, # of connection points: 2
#     Edge 58, Type (0, 1), BuildingBlock: XUDNAN_clean_linker_2, # of connection points: 2
#     Edge 59, Type (0, 1), BuildingBlock: XUDNAN_clean_linker_2, # of connection points: 2
#     Edge 60, Type (0, 1), BuildingBlock: XUDNAN_clean_linker_2, # of connection points: 2
#     Edge 61, Type (0, 1), BuildingBlock: XUDNAN_clean_linker_2, # of connection points: 2
#     Edge 62, Type (0, 1), BuildingBlock: XUDNAN_clean_linker_2, # of connection points: 2
#     Edge 63, Type (0, 1), BuildingBlock: XUDNAN_clean_linker_2, # of connection points: 2
#     Edge 64, Type (0, 1), BuildingBlock: XUDNAN_clean_linker_2, # of connection points: 2
#     Edge 65, Type (0, 1), BuildingBlock: XUDNAN_clean_linker_2, # of connection points: 2
#     Edge 66, Type (0, 1), BuildingBlock: XUDNAN_clean_linker_2, # of connection points: 2
#     Edge 67, Type (0, 1), BuildingBlock: XUDNAN_clean_linker_2, # of connection points: 2
#     Edge 68, Type (0, 1), BuildingBlock: XUDNAN_clean_linker_2, # of connection points: 2
#     Edge 69, Type (0, 1), BuildingBlock: XUDNAN_clean_linker_2, # of connection points: 2
#     Edge 70, Type (0, 1), BuildingBlock: XUDNAN_clean_linker_2, # of connection points: 2
#     Edge 71, Type (0, 1), BuildingBlock: XUDNAN_clean_linker_2, # of connection points: 2
#     Edge 72, Type (0, 1), BuildingBlock: XUDNAN_clean_linker_2, # of connection points: 2
#     Edge 73, Type (0, 1), BuildingBlock: XUDNAN_clean_linker_2, # of connection points: 2
#     Edge 74, Type (0, 1), BuildingBlock: XUDNAN_clean_linker_2, # of connection points: 2
#     Edge 75, Type (0, 1), BuildingBlock: XUDNAN_clean_linker_2, # of connection points: 2
#     Edge 76, Type (0, 1), BuildingBlock: XUDNAN_clean_linker_2, # of connection points: 2
#     Edge 77, Type (0, 1), BuildingBlock: XUDNAN_clean_linker_2, # of connection points: 2
#     Edge 78, Type (0, 1), BuildingBlock: XUDNAN_clean_linker_2, # of connection points: 2
#     Edge 79, Type (0, 1), BuildingBlock: XUDNAN_clean_linker_2, # of connection points: 2
#     Edge 80, Type (0, 1), BuildingBlock: XUDNAN_clean_linker_2, # of connection points: 2
#     Edge 81, Type (0, 1), BuildingBlock: XUDNAN_clean_linker_2, # of connection points: 2
#     Edge 82, Type (0, 1), BuildingBlock: XUDNAN_clean_linker_2, # of connection points: 2
#     Edge 83, Type (0, 1), BuildingBlock: XUDNAN_clean_linker_2, # of connection points: 2
#     Edge 84, Type (0, 1), BuildingBlock: XUDNAN_clean_linker_2, # of connection points: 2
#     Edge 85, Type (0, 1), BuildingBlock: XUDNAN_clean_linker_2, # of connection points: 2
#     Edge 86, Type (0, 1), BuildingBlock: XUDNAN_clean_linker_2, # of connection points: 2
#     Edge 87, Type (0, 1), BuildingBlock: XUDNAN_clean_linker_2, # of connection points: 2
#     Edge 88, Type (0, 1), BuildingBlock: XUDNAN_clean_linker_2, # of connection points: 2
#     Edge 89, Type (0, 1), BuildingBlock: XUDNAN_clean_linker_2, # of connection points: 2
#     Edge 90, Type (0, 1), BuildingBlock: XUDNAN_clean_linker_2, # of connection points: 2
#     Edge 91, Type (0, 1), BuildingBlock: XUDNAN_clean_linker_2, # of connection points: 2
#     Edge 92, Type (0, 1), BuildingBlock: XUDNAN_clean_linker_2, # of connection points: 2
#     Edge 93, Type (0, 1), BuildingBlock: XUDNAN_clean_linker_2, # of connection points: 2
#     Edge 94, Type (0, 1), BuildingBlock: XUDNAN_clean_linker_2, # of connection points: 2
#     Edge 95, Type (0, 1), BuildingBlock: XUDNAN_clean_linker_2, # of connection points: 2
#     Edge 96, Type (0, 1), BuildingBlock: XUDNAN_clean_linker_2, # of connection points: 2
#     Edge 97, Type (0, 1), BuildingBlock: XUDNAN_clean_linker_2, # of connection points: 2
#     Edge 98, Type (0, 1), BuildingBlock: XUDNAN_clean_linker_2, # of connection points: 2
#     Edge 99, Type (0, 1), BuildingBlock: XUDNAN_clean_linker_2, # of connection points: 2
#     Edge 100, Type (0, 1), BuildingBlock: XUDNAN_clean_linker_2, # of connection points: 2
#     Edge 101, Type (0, 1), BuildingBlock: XUDNAN_clean_linker_2, # of connection points: 2
# Relax obj value: 0.149
# Max RMSD: 0.293
# Mean RMSD: 0.236
data_MOF--net-cor--node1-ESEHIV_clean_sbu_0--node2-MIDCAF_clean_sbu_0--edge1-XUDNAN_clean_linker_2
_symmetry_space_group_name_H-M    P1
_symmetry_Int_Tables_number       1
_symmetry_cell_setting            triclinic
loop_
_symmetry_equiv_pos_as_xyz
'x, y, z'
_cell_length_a     39.33653
_cell_length_b     37.932484
_cell_length_c     116.90696
_cell_angle_alpha  91.904081
_cell_angle_beta   91.849835
_cell_angle_gamma 120.17208
loop_
_atom_site_label
_atom_site_type_symbol
_atom_site_fract_x
_atom_site_fract_y
_atom_site_fract_z
_atom_type_partial_charge
Cu0 Cu 0.74635 0.01073 0.26217 0.0
N1 N 0.76799 0.99708 0.24988 0.0
N2 N 0.7942 0.99957 0.23293 0.0
C3 C 0.78254 0.01859 0.2405 0.0
C4 C 0.78665 0.96469 0.23779 0.0
C5 C 0.77051 0.96325 0.2482 0.0
O6 O 0.73377 0.05076 0.2561 0.0
C7 C 0.77693 0.04083 0.28525 0.0
O8 O 0.74884 0.04992 0.28558 0.0
H9 H 0.78382 0.04727 0.23914 0.0
H10 H 0.761 0.9391 0.25411 0.0
N11 N 0.69999 0.96374 0.26608 0.0
N12 N 0.6549 0.91431 0.27636 0.0
C13 C 0.68871 0.95085 0.27669 0.0
C14 C 0.67231 0.93433 0.25881 0.0
C15 C 0.64455 0.9039 0.2651 0.0
C16 C 0.7592 0.08773 0.25438 0.0
O17 O 0.79547 0.10309 0.25867 0.0
H18 H 0.70545 0.96726 0.2845 0.0
H19 H 0.67261 0.93476 0.24957 0.0
O20 O 0.78277 0.02772 0.27575 0.0
H21 H 0.79276 0.94196 0.23417 0.0
H22 H 0.61861 0.87636 0.26162 0.0
Cu23 Cu 0.02404 0.73644 0.26082 0.0
N24 N 0.04148 0.77864 0.25074 0.0
N25 N 0.04215 0.81496 0.23597 0.0
C26 C 0.02534 0.77759 0.24026 0.0
C27 C 0.06995 0.84031 0.24402 0.0
C28 C 0.06955 0.81782 0.25309 0.0
O29 O 0.97546 0.69123 0.25348 0.0
C30 C 1.00107 0.77801 0.27692 0.0
O31 O 0.98357 0.78348 0.26796 0.0
H32 H 1.00039 0.7505 0.23615 0.0
H33 H 0.08731 0.82943 0.26105 0.0
N34 N 0.06313 0.72277 0.26343 0.0
N35 N 0.11262 0.71917 0.2723 0.0
C36 C 0.08511 0.73033 0.2733 0.0
C37 C 0.07704 0.70616 0.25593 0.0
C38 C 0.10753 0.70389 0.26137 0.0
C39 C 0.96106 0.65333 0.25493 0.0
O40 O 0.97812 0.64178 0.26258 0.0
H41 H 0.08169 0.74483 0.28095 0.0
H42 H 0.0661 0.69687 0.2471 0.0
O43 O 0.01759 0.75679 0.27565 0.0
H44 H 0.08855 0.873 0.24351 0.0
H45 H 0.12452 0.6918 0.25754 0.0
Cu46 Cu 0.30772 0.29075 0.25942 0.0
N47 N 0.29624 0.25957 0.27239 0.0
N48 N 0.27652 0.23737 0.28984 0.0
C49 C 0.27572 0.26039 0.28135 0.0
C50 C 0.29814 0.22129 0.28601 0.0
C51 C 0.31019 0.23499 0.27528 0.0
O52 O 0.30254 0.33821 0.26415 0.0
C53 C 0.26344 0.26956 0.23757 0.0
O54 O 0.27451 0.30847 0.23738 0.0
H55 H 0.26158 0.27856 0.28178 0.0
H56 H 0.32858 0.2282 0.27004 0.0
N57 N 0.35895 0.30525 0.25532 0.0
N58 N 0.40706 0.30575 0.24535 0.0
C59 C 0.3703 0.30041 0.24484 0.0
C60 C 0.38969 0.31404 0.26262 0.0
C61 C 0.41927 0.31447 0.25653 0.0
C62 C 0.32491 0.36206 0.27252 0.0
O63 O 0.35292 0.35638 0.27681 0.0
H64 H 0.35109 0.29042 0.23713 0.0
H65 H 0.3897 0.31725 0.27185 0.0
O66 O 0.27254 0.25648 0.24639 0.0
H67 H 0.30469 0.20093 0.29061 0.0
H68 H 0.44713 0.31935 0.26012 0.0
Cu69 Cu 0.31646 0.05738 0.76196 0.0
N70 N 0.31187 0.0892 0.77375 0.0
N71 N 0.29157 0.10781 0.78934 0.0
C72 C 0.28669 0.07635 0.78227 0.0
C73 C 0.32108 0.14159 0.78504 0.0
C74 C 0.33348 0.13003 0.77547 0.0
O75 O 0.30505 0.00568 0.76882 0.0
C76 C 0.27814 0.03526 0.73933 0.0
O77 O 0.29587 0.01404 0.73792 0.0
H78 H 0.26489 0.04462 0.78315 0.0
H79 H 0.35674 0.14998 0.77014 0.0
N80 N 0.36769 0.08721 0.75676 0.0
N81 N 0.41779 0.12967 0.74639 0.0
C82 C 0.37824 0.10628 0.74682 0.0
C83 C 0.40173 0.09906 0.76282 0.0
C84 C 0.43257 0.12502 0.75645 0.0
C85 C 0.32708 0.9899 0.76853 0.0
O86 O 0.35762 0.00585 0.76214 0.0
H87 H 0.35735 0.10481 0.7403 0.0
H88 H 0.40387 0.09048 0.77143 0.0
O89 O 0.28085 0.05254 0.74914 0.0
H90 H 0.33326 0.17253 0.78862 0.0
H91 H 0.46352 0.13989 0.75912 0.0
Cu92 Cu 0.02915 0.30936 0.75999 0.0
N93 N 0.00923 0.26591 0.7697 0.0
N94 N 1.00654 0.22464 0.78336 0.0
C95 C 0.02887 0.26063 0.77854 0.0
C96 C 0.97148 0.20684 0.77732 0.0
C97 C 0.97324 0.23233 0.76893 0.0
O98 O 0.07645 0.35441 0.76817 0.0
C99 C 0.05318 0.26689 0.74468 0.0
O100 O 0.06599 0.25825 0.75409 0.0
H101 H 0.05934 0.2822 0.78112 0.0
H102 H 0.95013 0.22659 0.76259 0.0
N103 N 0.99061 0.32352 0.75665 0.0
N104 N 0.94493 0.33152 0.74699 0.0
C105 C 0.96942 0.31619 0.74662 0.0
C106 C 0.97878 0.34368 0.76363 0.0
C107 C 0.95083 0.34882 0.7577 0.0
C108 C 0.08767 0.39226 0.76783 0.0
O109 O 0.06863 0.40355 0.7608 0.0
H110 H 0.97253 0.3007 0.73913 0.0
H111 H 0.99003 0.35424 0.77239 0.0
O112 O 0.039 0.29047 0.74542 0.0
H113 H 0.94625 0.17746 0.77885 0.0
H114 H 0.9358 0.36392 0.76105 0.0
Cu115 Cu 0.74504 0.7628 0.75814 0.0
N116 N 0.75337 0.79409 0.74529 0.0
N117 N 0.77472 0.81895 0.72815 0.0
C118 C 0.77767 0.79802 0.73691 0.0
C119 C 0.74757 0.82881 0.73125 0.0
C120 C 0.73444 0.81339 0.74178 0.0
O121 O 0.75261 0.71741 0.7527 0.0
C122 C 0.78559 0.78524 0.78046 0.0
O123 O 0.76711 0.74574 0.78179 0.0
H124 H 0.79602 0.78429 0.73709 0.0
H125 H 0.71205 0.81531 0.74644 0.0
N126 N 0.69371 0.74323 0.7632 0.0
N127 N 0.6434 0.73667 0.7734 0.0
C128 C 0.68231 0.76002 0.77156 0.0
C129 C 0.66093 0.70818 0.75965 0.0
C130 C 0.63009 0.70418 0.76582 0.0
C131 C 0.73403 0.6975 0.74334 0.0
O132 O 0.70956 0.70674 0.73821 0.0
H133 H 0.70244 0.78829 0.77637 0.0
H134 H 0.65939 0.68645 0.75316 0.0
O135 O 0.78173 0.79807 0.77082 0.0
H136 H 0.73769 0.84589 0.72629 0.0
H137 H 0.60007 0.67909 0.76471 0.0
Cu138 Cu 0.41693 0.36673 0.59207 0.0
N139 N 0.42547 0.34075 0.57952 0.0
N140 N 0.44315 0.33216 0.56206 0.0
C141 C 0.44678 0.35931 0.5705 0.0
C142 C 0.4187 0.29507 0.56598 0.0
C143 C 0.4078 0.30048 0.57672 0.0
O144 O 0.42757 0.41928 0.58618 0.0
C145 C 0.44883 0.38605 0.61511 0.0
O146 O 0.42564 0.40153 0.61597 0.0
H147 H 0.46332 0.39214 0.56995 0.0
H148 H 0.3875 0.27678 0.58198 0.0
N149 N 0.36488 0.33316 0.59636 0.0
N150 N 0.31387 0.28778 0.60597 0.0
C151 C 0.35355 0.31036 0.60564 0.0
C152 C 0.33123 0.32419 0.59052 0.0
C153 C 0.29984 0.29655 0.59644 0.0
C154 C 0.40517 0.43456 0.58621 0.0
O155 O 0.37327 0.41746 0.59203 0.0
H156 H 0.37407 0.31019 0.61199 0.0
H157 H 0.32966 0.33635 0.5824 0.0
O158 O 0.45144 0.37195 0.60532 0.0
H159 H 0.40916 0.26605 0.56141 0.0
H160 H 0.26906 0.28312 0.59372 0.0
Cu161 Cu 0.69658 0.08271 0.59602 0.0
N162 N 0.71998 0.11427 0.5835 0.0
N163 N 0.72411 0.1408 0.5664 0.0
C164 C 0.7015 0.12409 0.57537 0.0
C165 C 0.75825 0.14177 0.56907 0.0
C166 C 0.75559 0.12536 0.5796 0.0
O167 O 0.64451 0.03877 0.58994 0.0
C168 C 0.68507 0.10415 0.61851 0.0
O169 O 0.67303 0.06558 0.62011 0.0
H170 H 0.67124 0.11694 0.57573 0.0
H171 H 0.7774 0.12025 0.58387 0.0
N172 N 0.72712 0.0611 0.60179 0.0
N173 N 0.76974 0.05261 0.61297 0.0
C174 C 0.75583 0.07772 0.61029 0.0
C175 C 0.72287 0.02439 0.59898 0.0
C176 C 0.74905 0.01915 0.60579 0.0
C177 C 0.64238 0.01914 0.58057 0.0
O178 O 0.67516 0.02761 0.57575 0.0
H179 H 0.76536 0.10709 0.61465 0.0
H180 H 0.70165 1.00246 0.59259 0.0
O181 O 0.69439 0.11721 0.60851 0.0
H182 H 0.78317 0.15296 0.56372 0.0
H183 H 0.75246 0.99256 0.60542 0.0
Cu184 Cu 0.98474 0.64043 0.59154 0.0
N185 N 0.97366 0.61151 0.60489 0.0
N186 N 0.95186 0.59158 0.6223 0.0
C187 C 0.95105 0.61231 0.61321 0.0
C188 C 0.97578 0.57703 0.61954 0.0
C189 C 0.98913 0.58933 0.6088 0.0
O190 O 0.97802 0.68717 0.59572 0.0
C191 C 0.94173 0.61557 0.56954 0.0
O192 O 0.95302 0.65432 0.56865 0.0
H193 H 0.93524 0.62879 0.61275 0.0
H194 H 0.00927 0.58317 0.60425 0.0
N195 N 0.03602 0.65528 0.58757 0.0
N196 N 0.08432 0.65685 0.57752 0.0
C197 C 0.04741 0.65098 0.57707 0.0
C198 C 0.06685 0.66426 0.59486 0.0
C199 C 0.09663 0.66541 0.58871 0.0
C200 C 1.00548 0.71853 0.60138 0.0
O201 O 0.04036 0.72215 0.60273 0.0
H202 H 0.02818 0.6412 0.56937 0.0
H203 H 0.06692 0.66767 0.60408 0.0
O204 O 0.94999 0.60401 0.57881 0.0
H205 H 0.98292 0.55857 0.62487 0.0
H206 H 0.1248 0.671 0.59224 0.0
Cu207 Cu 0.97133 0.35175 0.08993 0.0
N208 N 0.94682 0.36631 0.10118 0.0
N209 N 0.91188 0.36301 0.1163 0.0
C210 C 0.92317 0.3424 0.10918 0.0
C211 C 0.92931 0.40134 0.11266 0.0
C212 C 0.951 0.40335 0.10343 0.0
O213 O 0.98022 0.31042 0.0969 0.0
C214 C 0.93546 0.36479 0.07113 0.0
O215 O 0.94965 0.39938 0.07727 0.0
H216 H 0.91437 0.31055 0.10977 0.0
H217 H 0.96917 0.43021 0.09882 0.0
N218 N 0.02023 0.39765 0.08714 0.0
N219 N 0.0686 0.44814 0.07794 0.0
C220 C 0.03431 0.41199 0.07686 0.0
C221 C 0.04676 0.42536 0.09498 0.0
C222 C 0.07652 0.4564 0.08937 0.0
C223 C 0.95485 0.27264 0.09749 0.0
O224 O 0.92087 0.25708 0.09164 0.0
H225 H 0.01889 0.39697 0.06875 0.0
H226 H 0.04408 0.42359 0.10415 0.0
O227 O 0.93981 0.33639 0.07525 0.0
H228 H 0.92728 0.42644 0.11657 0.0
H229 H 0.10192 0.48311 0.09344 0.0
Cu230 Cu 0.6866 0.62472 0.09673 0.0
N231 N 0.67139 0.58396 0.10737 0.0
N232 N 0.6724 0.54899 0.12238 0.0
C233 C 0.69383 0.58097 0.11586 0.0
C234 C 0.63512 0.53152 0.1178 0.0
C235 C 0.63459 0.55315 0.10864 0.0
O236 O 0.72744 0.67552 0.10489 0.0
C237 C 0.67453 0.57413 0.07743 0.0
O238 O 0.6413 0.5527 0.08243 0.0
H239 H 0.72516 0.60195 0.11724 0.0
H240 H 0.60893 0.54734 0.1034 0.0
N241 N 0.64298 0.63048 0.09271 0.0
N242 N 0.59415 0.63126 0.08242 0.0
C243 C 0.62768 0.62954 0.08209 0.0
C244 C 0.61859 0.63336 0.09998 0.0
C245 C 0.58857 0.63384 0.0937 0.0
C246 C 0.76444 0.68901 0.10558 0.0
O247 O 0.7788 0.6703 0.09949 0.0
H248 H 0.64021 0.6264 0.07429 0.0
H249 H 0.62205 0.63426 0.10922 0.0
O250 O 0.70106 0.60776 0.08246 0.0
H251 H 0.60967 0.50559 0.12103 0.0
H252 H 0.5645 0.63597 0.0972 0.0
Cu253 Cu 0.41112 0.0729 0.09536 0.0
N254 N 0.43739 0.11142 0.08452 0.0
N255 N 0.4677 0.13918 0.06864 0.0
C256 C 0.44255 0.10431 0.07349 0.0
C257 C 0.47898 0.16922 0.07689 0.0
C258 C 0.46003 0.15204 0.08666 0.0
O259 O 0.4018 0.02089 0.08827 0.0
C260 C 0.43605 0.07786 0.11944 0.0
O261 O 0.40666 0.04035 0.12007 0.0
H262 H 0.42997 0.07414 0.06931 0.0
H263 H 0.46394 0.16774 0.09491 0.0
N264 N 0.36267 0.06962 0.09771 0.0
N265 N 0.31312 0.07237 0.10588 0.0
C266 C 0.34954 0.07729 0.10751 0.0
C267 C 0.33364 0.05947 0.08965 0.0
C268 C 0.30315 0.06111 0.09463 0.0
C269 C 0.42838 0.01188 0.08638 0.0
O270 O 0.46421 0.03558 0.09093 0.0
H271 H 0.36657 0.08688 0.11561 0.0
H272 H 0.33465 0.0514 0.08076 0.0
O273 O 0.44337 0.09411 0.10978 0.0
H274 H 0.50053 0.20106 0.07601 0.0
H275 H 0.27548 0.05387 0.0903 0.0
Cu276 Cu 0.07514 0.6844 0.92707 0.0
N277 N 0.10989 0.68447 0.9164 0.0
N278 N 0.14369 0.69786 0.90051 0.0
C279 C 0.11121 0.69388 0.90529 0.0
C280 C 0.16336 0.69042 0.90885 0.0
C281 C 0.14235 0.6819 0.9186 0.0
O282 O 0.05778 0.72118 0.9215 0.0
C283 C 0.13444 0.72013 0.94641 0.0
O284 O 0.16006 0.74524 0.93945 0.0
H285 H 0.09 0.69991 0.90101 0.0
H286 H 0.15101 0.676 0.92686 0.0
N287 N 0.03152 0.632 0.92806 0.0
N288 N 0.98494 0.57753 0.9365 0.0
C289 C 0.0127 0.6176 0.93776 0.0
C290 C 0.01525 0.60006 0.92033 0.0
C291 C 0.98643 0.5665 0.92548 0.0
C292 C 0.08208 0.75848 0.9198 0.0
O293 O 0.11915 0.77425 0.92336 0.0
H294 H 0.01977 0.63632 0.94563 0.0
H295 H 0.02448 0.60081 0.91168 0.0
O296 O 0.0989 0.69642 0.94274 0.0
H297 H 0.19136 0.69186 0.908 0.0
H298 H 0.9689 0.53607 0.92148 0.0
Cu299 Cu 0.36428 0.41994 0.92215 0.0
N300 N 0.37888 0.45806 0.91069 0.0
N301 N 0.37843 0.48664 0.89423 0.0
C302 C 0.35641 0.45907 0.90182 0.0
C303 C 0.41595 0.50375 0.8985 0.0
C304 C 0.41612 0.48624 0.90862 0.0
O305 O 0.32535 0.36657 0.9147 0.0
C306 C 0.37288 0.47257 0.94082 0.0
O307 O 0.40632 0.49507 0.93601 0.0
H308 H 0.32493 0.43868 0.90063 0.0
H309 H 0.44186 0.49249 0.91389 0.0
N310 N 0.40883 0.41674 0.92694 0.0
N311 N 0.45784 0.41811 0.93774 0.0
C312 C 0.42415 0.41966 0.93771 0.0
C313 C 0.43335 0.41268 0.91998 0.0
C314 C 0.4635 0.4136 0.92657 0.0
C315 C 0.28985 0.35523 0.91146 0.0
O316 O 0.27519 0.37849 0.9143 0.0
H317 H 0.41135 0.42372 0.94534 0.0
H318 H 0.42974 0.40973 0.91073 0.0
O319 O 0.34795 0.43802 0.93587 0.0
H320 H 0.4415 0.52684 0.89447 0.0
H321 H 0.48757 0.41079 0.92336 0.0
Cu322 Cu 0.63508 0.97713 0.92441 0.0
N323 N 0.60725 0.93654 0.93457 0.0
N324 N 0.57545 0.90708 0.95012 0.0
C325 C 0.6044 0.94147 0.94593 0.0
C326 C 0.55972 0.87952 0.94111 0.0
C327 C 0.57945 0.89773 0.93155 0.0
O328 O 0.64297 0.02761 0.93201 0.0
C329 C 0.61343 0.97537 0.90021 0.0
O330 O 0.64417 0.01221 0.89985 0.0
H331 H 0.62127 0.97033 0.95084 0.0
H332 H 0.57255 0.88439 0.92287 0.0
N333 N 0.68428 0.98206 0.92224 0.0
N334 N 0.73683 0.98643 0.91397 0.0
C335 C 0.69897 0.9773 0.91238 0.0
C336 C 0.71361 0.99412 0.93033 0.0
C337 C 0.74596 0.99685 0.92528 0.0
C338 C 0.61503 0.03367 0.93463 0.0
O339 O 0.57899 0.00792 0.93055 0.0
H340 H 0.68268 0.96853 0.90416 0.0
H341 H 0.71175 1.00114 0.93925 0.0
O342 O 0.60434 0.95858 0.90976 0.0
H343 H 0.53487 0.84882 0.94138 0.0
H344 H 0.7741 0.00593 0.92964 0.0
Cu345 Cu 0.65328 0.6888 0.42918 0.0
N346 N 0.63432 0.70721 0.4412 0.0
N347 N 0.60929 0.70958 0.458 0.0
C348 C 0.62303 0.69017 0.45137 0.0
C349 C 0.61256 0.74048 0.45181 0.0
C350 C 0.62795 0.7389 0.44147 0.0
O351 O 0.65251 0.63943 0.43425 0.0
C352 C 0.58735 0.66864 0.41289 0.0
O353 O 0.56411 0.65591 0.42147 0.0
H354 H 0.62479 0.66397 0.45391 0.0
H355 H 0.63338 0.75894 0.43453 0.0
N356 N 0.70469 0.72929 0.42628 0.0
N357 N 0.75462 0.77698 0.41688 0.0
C358 C 0.71509 0.75352 0.41731 0.0
C359 C 0.73876 0.73785 0.43178 0.0
C360 C 0.76956 0.7672 0.42601 0.0
C361 C 0.62071 0.60928 0.43742 0.0
O362 O 0.58763 0.60947 0.43573 0.0
H363 H 0.69405 0.75275 0.41096 0.0
H364 H 0.74103 0.72306 0.43928 0.0
O365 O 0.62384 0.68111 0.4146 0.0
H366 H 0.60317 0.76178 0.45439 0.0
H367 H 0.80057 0.78007 0.42833 0.0
Cu368 Cu 0.37122 0.98017 0.42446 0.0
N369 N 0.3482 0.94456 0.43634 0.0
N370 N 0.34175 0.91628 0.45329 0.0
C371 C 0.36692 0.93904 0.4454 0.0
C372 C 0.30574 0.90694 0.44899 0.0
C373 C 0.30982 0.92442 0.43858 0.0
O374 O 0.41832 0.02849 0.43162 0.0
C375 C 0.35565 0.9189 0.40719 0.0
O376 O 0.32227 0.89953 0.41227 0.0
H377 H 0.39851 0.95298 0.4465 0.0
H378 H 0.28658 0.92374 0.4332 0.0
N379 N 0.33628 0.99673 0.41884 0.0
N380 N 0.29222 1.00363 0.40788 0.0
C381 C 0.31098 0.98228 0.40946 0.0
C382 C 0.33316 0.02799 0.42334 0.0
C383 C 0.30617 0.03234 0.41664 0.0
C384 C 0.44887 0.02797 0.43539 0.0
O385 O 0.45164 0.9954 0.43307 0.0
H386 H 0.30709 0.95734 0.40376 0.0
H387 H 0.34972 0.04661 0.43094 0.0
O388 O 0.38225 0.95391 0.41145 0.0
H389 H 0.27841 0.88912 0.45313 0.0
H390 H 0.2973 0.05479 0.41817 0.0
Cu391 Cu 0.08292 0.41984 0.42699 0.0
N392 N 0.09377 0.45367 0.41473 0.0
N393 N 0.11242 0.47711 0.39736 0.0
C394 C 0.11551 0.45538 0.40585 0.0
C395 C 0.08797 0.48976 0.40111 0.0
C396 C 0.07648 0.4752 0.41181 0.0
O397 O 0.09088 0.37599 0.42075 0.0
C398 C 0.11383 0.43564 0.45015 0.0
O399 O 0.08694 0.39719 0.45112 0.0
H400 H 0.13156 0.43915 0.40535 0.0
H401 H 0.05567 0.47858 0.41689 0.0
N402 N 0.03075 0.40146 0.43083 0.0
N403 N 0.97845 0.39356 0.44009 0.0
C404 C 0.01816 0.41115 0.44042 0.0
C405 C 0.998 0.37771 0.42412 0.0
C406 C 0.9658 0.37253 0.42981 0.0
C407 C 0.06616 0.3378 0.42029 0.0
O408 O 0.03391 0.3242 0.4259 0.0
H409 H 0.03768 0.43073 0.4475 0.0
H410 H 0.99766 0.36541 0.41561 0.0
O411 O 0.11815 0.45066 0.44034 0.0
H412 H 0.07855 0.5077 0.39638 0.0
H413 H 0.93546 0.35537 0.4265 0.0
Zn414 Zn 0.01193 0.02073 0.13781 0.0
Zn415 Zn 0.02128 0.04375 0.17689 0.0
Zn416 Zn 0.01663 0.03031 0.15876 0.0
C417 C 0.01512 0.97179 0.1764 0.0
C418 C 0.0878 0.10233 0.17342 0.0
O419 O 0.98831 0.06551 0.15213 0.0
O420 O 0.99035 0.05595 0.13348 0.0
C421 C 0.96739 0.94196 0.14532 0.0
O422 O 0.99576 0.97089 0.16715 0.0
O423 O 0.0395 0.00608 0.18123 0.0
O424 O 0.0596 0.10338 0.17793 0.0
O425 O 0.07961 0.07259 0.16602 0.0
O426 O 0.97672 0.96096 0.13623 0.0
O427 O 0.98071 0.96195 0.15514 0.0
O428 O 0.07957 0.05844 0.15414 0.0
O429 O 0.06839 0.04223 0.13557 0.0
C430 C 0.09247 0.05781 0.14417 0.0
O431 O 0.97535 0.05349 0.1634 0.0
O432 O 0.96635 0.02439 0.17981 0.0
C433 C 0.98278 0.07284 0.1417 0.0
C434 C 0.95494 0.03973 0.17231 0.0
Zn435 Zn 0.01594 0.04587 0.33713 0.0
Zn436 Zn 0.03175 0.03157 0.37369 0.0
Zn437 Zn 0.02326 0.03467 0.35515 0.0
C438 C 0.04286 0.10674 0.37277 0.0
C439 C 0.95715 0.97198 0.36953 0.0
O440 O 0.03965 0.9935 0.34593 0.0
O441 O 1.00167 0.99032 0.3313 0.0
C442 C 0.08301 0.11292 0.34238 0.0
O443 O 0.05267 0.09936 0.36291 0.0
O444 O 0.02554 0.07758 0.37923 0.0
O445 O 0.98693 0.97593 0.37513 0.0
O446 O 0.96257 0.9972 0.36168 0.0
O447 O 0.06698 0.08995 0.33349 0.0
O448 O 0.06777 0.10082 0.35215 0.0
O449 O 0.95879 0.01234 0.35035 0.0
O450 O 0.97399 0.05908 0.33777 0.0
C451 C 0.94832 0.03167 0.34349 0.0
O452 O 0.05998 0.00447 0.35717 0.0
O453 O 0.08539 0.03968 0.37357 0.0
C454 C 0.02067 0.97604 0.33629 0.0
C455 C 0.087 0.01812 0.3654 0.0
Zn456 Zn 0.03778 0.02765 0.88119 0.0
Zn457 Zn 0.02731 0.97929 0.84549 0.0
Zn458 Zn 0.02864 0.01199 0.8614 0.0
C459 C 0.0385 0.05642 0.83987 0.0
C460 C 0.9549 0.94205 0.84798 0.0
O461 O 0.0398 0.96494 0.86771 0.0
O462 O 0.05139 0.98552 0.88592 0.0
C463 C 0.0929 0.10051 0.87157 0.0
O464 O 0.05635 0.06339 0.8499 0.0
O465 O 0.01919 0.01971 0.83587 0.0
O466 O 0.9773 0.92697 0.84789 0.0
O467 O 0.96904 0.97875 0.85238 0.0
O468 O 0.07992 0.0857 0.88105 0.0
O469 O 0.07845 0.07772 0.86217 0.0
O470 O 0.97048 0.00494 0.8641 0.0
O471 O 0.98335 0.01787 0.88273 0.0
C472 C 0.95988 0.0094 0.87407 0.0
O473 O 0.08621 0.04916 0.85339 0.0
O474 O 0.084 0.99247 0.84736 0.0
C475 C 0.04867 0.96061 0.87799 0.0
C476 C 0.10356 0.03108 0.84895 0.0
Zn477 Zn 0.0479 0.00473 0.68189 0.0
Zn478 Zn 0.02925 0.02241 0.64554 0.0
Zn479 Zn 0.03822 0.02033 0.66442 0.0
C480 C 0.01771 0.94703 0.64689 0.0
C481 C 0.10418 0.08308 0.64975 0.0
O482 O 0.02137 0.05857 0.67446 0.0
O483 O 0.06078 0.05994 0.68843 0.0
C484 C 0.97898 0.94018 0.67715 0.0
O485 O 0.00903 0.95554 0.65678 0.0
O486 O 0.03425 0.97521 0.64009 0.0
O487 O 0.07459 0.07757 0.64369 0.0
O488 O 0.0987 0.05901 0.65792 0.0
O489 O 0.99824 0.96031 0.68617 0.0
O490 O 0.99236 0.95409 0.66731 0.0
O491 O 0.10276 0.0454 0.66971 0.0
O492 O 0.08995 0.99169 0.67919 0.0
C493 C 0.11517 0.02482 0.6753 0.0
O494 O 1.00225 0.05066 0.66288 0.0
O495 O 0.97611 0.01606 0.64641 0.0
C496 C 0.04058 0.07426 0.68415 0.0
C497 C 0.97514 0.03758 0.65472 0.0
Zn498 Zn 0.68966 0.37302 0.515 0.0
Zn499 Zn 0.68524 0.35704 0.47596 0.0
Zn500 Zn 0.68829 0.36179 0.49519 0.0
C501 C 0.7592 0.37373 0.48139 0.0
C502 C 0.63028 0.28153 0.48056 0.0
O503 O 0.64499 0.38342 0.49911 0.0
O504 O 0.64357 0.37656 0.51779 0.0
C505 C 0.76362 0.42873 0.51063 0.0
O506 O 0.75101 0.38913 0.49016 0.0
O507 O 0.73172 0.3509 0.47412 0.0
O508 O 0.63274 0.30698 0.47347 0.0
O509 O 0.65411 0.29465 0.48959 0.0
O510 O 0.73918 0.42428 0.51794 0.0
O511 O 0.752 0.40471 0.50147 0.0
O512 O 0.66774 0.29969 0.50149 0.0
O513 O 0.6869 0.3222 0.5195 0.0
C514 C 0.67378 0.29328 0.51193 0.0
O515 O 0.65969 0.39651 0.48831 0.0
O516 O 0.69052 0.41002 0.4723 0.0
C517 C 0.63003 0.38355 0.50881 0.0
C518 C 0.67041 0.41707 0.4792 0.0
Zn519 Zn 0.69929 0.38798 0.70508 0.0
Zn520 Zn 0.69532 0.38308 0.66557 0.0
Zn521 Zn 0.69574 0.38157 0.68602 0.0
C522 C 0.61824 0.35629 0.66972 0.0
C523 C 0.74921 0.46137 0.67153 0.0
O524 O 0.73016 0.35181 0.69192 0.0
O525 O 0.75081 0.39181 0.70762 0.0
C526 C 0.62502 0.32874 0.70133 0.0
O527 O 0.6319 0.3583 0.68009 0.0
O528 O 0.64098 0.36587 0.66161 0.0
O529 O 0.73315 0.43904 0.66253 0.0
O530 O 0.73825 0.44637 0.68142 0.0
O531 O 0.65306 0.33668 0.70844 0.0
O532 O 0.63297 0.34697 0.6918 0.0
O533 O 0.7269 0.44869 0.69261 0.0
O534 O 0.69628 0.43743 0.70867 0.0
C535 C 0.71757 0.4623 0.70157 0.0
O536 O 0.71613 0.3379 0.68006 0.0
O537 O 0.71067 0.34322 0.66146 0.0
C538 C 0.75411 0.36715 0.70089 0.0
C539 C 0.7181 0.32687 0.66962 0.0
Zn540 Zn 0.68962 0.32513 0.21559 0.0
Zn541 Zn 0.69388 0.34752 0.1603 0.0
Zn542 Zn 0.69479 0.33248 0.19525 0.0
C543 C 0.71865 0.4007 0.18188 0.0
C544 C 0.61991 0.29121 0.1731 0.0
O545 O 0.72127 0.29312 0.19996 0.0
O546 O 0.70446 0.28371 0.21793 0.0
C547 C 0.74165 0.40711 0.2147 0.0
O548 O 0.72154 0.39951 0.19273 0.0
O549 O 0.71156 0.36853 0.17637 0.0
O550 O 0.63816 0.30793 0.16416 0.0
O551 O 0.63711 0.29876 0.18341 0.0
O552 O 0.72871 0.38023 0.22199 0.0
O553 O 0.72972 0.39649 0.20403 0.0
O554 O 0.63006 0.30288 0.19641 0.0
O555 O 0.63316 0.30787 0.2153 0.0
C556 C 0.61303 0.29877 0.2059 0.0
O557 O 0.73198 0.30809 0.18853 0.0
O558 O 0.71195 0.33007 0.17473 0.0
C559 C 0.71962 0.2763 0.20953 0.0
C560 C 0.73344 0.31577 0.17796 0.0
Zn561 Zn 0.70288 0.3568 0.01806 0.0
Zn562 Zn 0.68309 0.34589 0.97603 0.0
Zn563 Zn 0.69398 0.35182 0.99719 0.0
C564 C 0.64913 0.26631 0.98117 0.0
C565 C 0.76454 0.38912 0.97981 0.0
O566 O 0.6763 0.39683 1.00428 0.0
O567 O 0.6915 0.39888 0.02275 0.0
C568 C 0.64613 0.27681 0.01344 0.0
O569 O 0.65942 0.28467 0.99128 0.0
O570 O 0.65562 0.28696 0.97245 0.0
O571 O 0.73797 0.37684 0.97187 0.0
O572 O 0.75472 0.38132 0.99027 0.0
O573 O 0.66426 0.30191 0.02181 0.0
O574 O 0.65368 0.28858 1.00311 0.0
O575 O 0.758 0.37164 1.00185 0.0
O576 O 0.75689 0.37057 0.02072 0.0
C577 C 0.77532 0.37527 0.01179 0.0
O578 O 0.6624 0.38644 0.99259 0.0
O579 O 0.65261 0.37283 0.97386 0.0
C580 C 0.67935 0.41148 0.01467 0.0
C581 C 0.64792 0.38914 0.98277 0.0
Zn582 Zn 0.35261 0.71556 0.84691 0.0
Zn583 Zn 0.35602 0.71413 0.80739 0.0
Zn584 Zn 0.35463 0.71727 0.82661 0.0
C585 C 0.4283 0.72948 0.81369 0.0
C586 C 0.29624 0.63984 0.81042 0.0
O587 O 0.31599 0.74371 0.83127 0.0
O588 O 0.31585 0.73372 0.84976 0.0
C589 C 0.43035 0.76914 0.84433 0.0
O590 O 0.4184 0.74424 0.82224 0.0
O591 O 0.40217 0.70686 0.80607 0.0
O592 O 0.30376 0.66641 0.8032 0.0
O593 O 0.31716 0.65082 0.82002 0.0
O594 O 0.40652 0.75421 0.85212 0.0
O595 O 0.41782 0.75811 0.83373 0.0
O596 O 0.33024 0.65114 0.83152 0.0
O597 O 0.3345 0.65962 0.85038 0.0
C598 C 0.32665 0.63643 0.84155 0.0
O599 O 0.32932 0.75565 0.81984 0.0
O600 O 0.36283 0.76807 0.80438 0.0
C601 C 0.30394 0.74521 0.84134 0.0
C602 C 0.3425 0.77647 0.81084 0.0
Zn603 Zn 0.35824 0.69429 0.04321 0.0
Zn604 Zn 0.36377 0.69842 1.00405 0.0
Zn605 Zn 0.35684 0.69431 0.0224 0.0
C606 C 0.29714 0.69971 1.0064 0.0
C607 C 0.42486 0.76631 0.01058 0.0
O608 O 0.38859 0.66042 0.02693 0.0
O609 O 0.39035 0.66881 0.04576 0.0
C610 C 0.27823 0.6491 0.03581 0.0
O611 O 0.29728 0.67762 0.01456 0.0
O612 O 0.3286 0.72059 1.00142 0.0
O613 O 0.42111 0.73711 1.00415 0.0
O614 O 0.39889 0.75894 0.01803 0.0
O615 O 0.30114 0.65984 0.04466 0.0
O616 O 0.29259 0.66049 0.02594 0.0
O617 O 0.3874 0.76036 0.02956 0.0
O618 O 0.38224 0.75232 0.04815 0.0
C619 C 0.39252 0.77568 0.03996 0.0
O620 O 0.3751 0.64974 0.01514 0.0
O621 O 0.3447 0.64218 0.99832 0.0
C622 C 0.39986 0.65603 0.03703 0.0
C623 C 0.3612 0.63005 1.00526 0.0
Zn624 Zn 0.37041 0.70467 0.54492 0.0
Zn625 Zn 0.3851 0.69964 0.50476 0.0
Zn626 Zn 0.37557 0.69857 0.52481 0.0
C627 C 0.39862 0.77569 0.50893 0.0
C628 C 0.30783 0.64132 0.50554 0.0
O629 O 0.40266 0.66355 0.53296 0.0
O630 O 0.37941 0.66141 0.54994 0.0
C631 C 0.4206 0.78274 0.54108 0.0
O632 O 0.3964 0.76298 0.51918 0.0
O633 O 0.39348 0.752 0.50043 0.0
O634 O 0.3353 0.65338 0.49876 0.0
O635 O 0.31546 0.65615 0.51603 0.0
O636 O 0.41045 0.76092 0.54959 0.0
O637 O 0.40779 0.76592 0.53085 0.0
O638 O 0.31038 0.66601 0.52747 0.0
O639 O 0.31553 0.69087 0.54518 0.0
C640 C 0.29424 0.67054 0.53642 0.0
O641 O 0.41903 0.67664 0.52217 0.0
O642 O 0.43118 0.69438 0.5043 0.0
C643 C 0.3958 0.6492 0.54306 0.0
C644 C 0.43924 0.68182 0.51323 0.0
Zn645 Zn 0.3719 0.67691 0.31143 0.0
Zn646 Zn 0.35506 0.67265 0.34964 0.0
Zn647 Zn 0.36577 0.67589 0.33142 0.0
C648 C 0.42187 0.67112 0.34944 0.0
C649 C 0.29295 0.60531 0.34226 0.0
O650 O 0.33586 0.70988 0.32553 0.0
O651 O 0.33253 0.6924 0.30719 0.0
C652 C 0.44814 0.72488 0.32005 0.0
O653 O 0.42342 0.6916 0.34065 0.0
O654 O 0.3893 0.65106 0.35393 0.0
O655 O 0.29836 0.63403 0.34918 0.0
O656 O 0.31915 0.6117 0.33495 0.0
O657 O 0.42727 0.71844 0.31096 0.0
O658 O 0.43146 0.70847 0.32931 0.0
O659 O 0.33416 0.60976 0.32424 0.0
O660 O 0.35936 0.62087 0.30726 0.0
C661 C 0.33964 0.59612 0.3146 0.0
O662 O 0.34855 0.72272 0.33713 0.0
O663 O 0.37238 0.72892 0.35485 0.0
C664 C 0.32278 0.70833 0.31513 0.0
C665 C 0.35951 0.74211 0.3471 0.0
H666 H 0.2177 0.27631 0.22045 0.0
H667 H 0.26459 0.20004 0.23115 0.0
H668 H 0.23377 0.15504 0.2136 0.0
H669 H 0.12482 0.19437 0.21028 0.0
H670 H 0.11911 0.22118 0.1986 0.0
H671 H 0.14874 0.24933 0.21129 0.0
H672 H 0.20757 0.29147 0.19872 0.0
H673 H 0.17819 0.26263 0.18601 0.0
H674 H 0.22454 0.26542 0.1894 0.0
H675 H 0.19488 0.11623 0.19509 0.0
H676 H 0.14273 0.0813 0.17954 0.0
H677 H 0.11927 0.18124 0.18139 0.0
C678 C 0.22184 0.25039 0.21904 0.0
C679 C 0.24379 0.24188 0.22716 0.0
C680 C 0.24783 0.20716 0.22508 0.0
C681 C 0.23076 0.18164 0.21506 0.0
C682 C 0.20942 0.19096 0.20718 0.0
C683 C 0.20439 0.22418 0.20917 0.0
C684 C 0.17669 0.22513 0.20003 0.0
C685 C 0.14018 0.22231 0.20537 0.0
C686 C 0.19804 0.26345 0.19313 0.0
C687 C 0.16621 0.18683 0.19272 0.0
C688 C 0.18616 0.16805 0.19679 0.0
C689 C 0.17947 0.13096 0.19176 0.0
C690 C 0.15017 0.11154 0.1828 0.0
C691 C 0.12745 0.12888 0.1791 0.0
C692 C 0.13684 0.16776 0.18385 0.0
H693 H 0.79371 0.95324 0.21453 0.0
H694 H 0.8355 0.07835 0.22667 0.0
H695 H 0.86984 0.10265 0.2088 0.0
H696 H 0.88001 0.97032 0.20357 0.0
H697 H 0.85728 0.93392 0.19148 0.0
H698 H 0.83087 0.9273 0.2042 0.0
H699 H 0.7737 0.92547 0.19195 0.0
H700 H 0.80076 0.93324 0.17922 0.0
H701 H 0.78356 0.96763 0.18326 0.0
H702 H 0.90938 0.11369 0.19119 0.0
H703 H 0.95279 0.10961 0.17698 0.0
H704 H 0.88317 0.97789 0.17582 0.0
C705 C 0.80955 0.98573 0.21339 0.0
C706 C 0.8117 0.01375 0.22207 0.0
C707 C 0.83281 0.05607 0.22014 0.0
C708 C 0.85242 0.07021 0.20997 0.0
C709 C 0.85023 0.04173 0.20166 0.0
C710 C 0.82907 1.00029 0.20327 0.0
C711 C 0.83468 0.97606 0.19372 0.0
C712 C 0.85175 0.95045 0.19853 0.0
C713 C 0.79586 0.949 0.18662 0.0
C714 C 0.86408 0.01036 0.18681 0.0
C715 C 0.87211 0.04809 0.19134 0.0
C716 C 0.90242 0.08431 0.18735 0.0
C717 C 0.92665 0.08184 0.17911 0.0
C718 C 0.92053 0.04345 0.17505 0.0
C719 C 0.88733 0.00756 0.17842 0.0
H720 H 0.03508 0.88145 0.23389 0.0
H721 H 0.02197 0.77517 0.21486 0.0
H722 H 1.00583 0.79898 0.19698 0.0
H723 H 0.95516 0.88594 0.21806 0.0
H724 H 0.98164 0.94099 0.21909 0.0
H725 H 0.98889 0.91325 0.23021 0.0
H726 H 0.06412 0.95261 0.22751 0.0
H727 H 0.05709 0.98055 0.21647 0.0
H728 H 0.08168 0.95227 0.21347 0.0
H729 H 0.99778 0.84071 0.18061 0.0
H730 H 0.99881 0.89411 0.16843 0.0
H731 H 0.01381 0.96866 0.19916 0.0
C732 C 0.02855 0.86305 0.22597 0.0
C733 C 0.03008 0.82674 0.22569 0.0
C734 C 0.02082 0.80311 0.21521 0.0
C735 C 0.01165 0.81643 0.20504 0.0
C736 C 0.01099 0.85296 0.20558 0.0
C737 C 0.01874 0.87548 0.21588 0.0
C738 C 0.01757 0.91416 0.21438 0.0
C739 C 0.9838 0.91352 0.22082 0.0
C740 C 0.05748 0.95211 0.21817 0.0
C741 C 0.00948 0.911 0.20157 0.0
C742 C 1.00537 0.87553 0.19651 0.0
C743 C 1.0004 0.86825 0.18455 0.0
C744 C 1.0008 0.89852 0.17768 0.0
C745 C 1.00649 0.93548 0.18286 0.0
C746 C 0.00949 0.94073 0.19493 0.0
H747 H 0.20863 0.23637 0.29426 0.0
H748 H 0.30204 0.22232 0.30998 0.0
H749 H 0.26738 0.20452 0.32798 0.0
H750 H 0.1833 0.27512 0.32106 0.0
H751 H 0.13148 0.24649 0.31688 0.0
H752 H 0.1673 0.26616 0.30609 0.0
H753 H 0.13772 0.19334 0.29644 0.0
H754 H 0.10159 0.17392 0.30703 0.0
H755 H 0.13282 0.15239 0.30494 0.0
H756 H 0.21759 0.17743 0.34316 0.0
H757 H 0.15516 0.13665 0.35265 0.0
H758 H 0.09479 0.16961 0.32741 0.0
C759 C 0.22242 0.23092 0.30161 0.0
C760 C 0.25817 0.23096 0.3007 0.0
C761 C 0.27459 0.22228 0.31043 0.0
C762 C 0.25531 0.21261 0.32076 0.0
C763 C 0.21964 0.21199 0.32131 0.0
C764 C 0.20338 0.22094 0.31197 0.0
C765 C 0.16233 0.21264 0.31417 0.0
C766 C 0.16105 0.25249 0.31458 0.0
C767 C 0.13185 0.1812 0.30512 0.0
C768 C 0.15711 0.19545 0.32594 0.0
C769 C 0.1909 0.19644 0.3301 0.0
C770 C 0.19134 0.17753 0.34014 0.0
C771 C 0.15585 0.15488 0.34562 0.0
C772 C 0.12046 0.15091 0.34092 0.0
C773 C 0.12181 0.17351 0.3314 0.0
H774 H 0.81956 1.00219 0.28878 0.0
H775 H 0.77863 0.07505 0.30648 0.0
H776 H 0.80841 0.06931 0.32477 0.0
H777 H 0.8039 0.93335 0.31191 0.0
H778 H 0.84746 0.93073 0.3092 0.0
H779 H 0.82111 0.93869 0.29761 0.0
H780 H 0.88467 0.00489 0.29289 0.0
H781 H 0.9112 0.99628 0.30421 0.0
H782 H 0.91167 0.04404 0.30412 0.0
H783 H 0.84879 0.06124 0.34086 0.0
H784 H 0.89978 0.05613 0.35248 0.0
H785 H 0.90953 0.98404 0.32476 0.0
C786 C 0.81685 0.017 0.2965 0.0
C787 C 0.79689 0.03933 0.29614 0.0
C788 C 0.79384 0.05789 0.30649 0.0
C789 C 0.81042 0.05452 0.31695 0.0
C790 C 0.82946 0.03185 0.31703 0.0
C791 C 0.83273 0.01345 0.30704 0.0
C792 C 0.85627 0.99248 0.30929 0.0
C793 C 0.83064 0.94605 0.30686 0.0
C794 C 0.89314 0.01052 0.30222 0.0
C795 C 0.86697 1.00312 0.32202 0.0
C796 C 0.85087 0.02547 0.32639 0.0
C797 C 0.86059 0.04277 0.33762 0.0
C798 C 0.8891 0.03914 0.34427 0.0
C799 C 0.90724 0.01808 0.33973 0.0
C800 C 0.8945 0.99831 0.32867 0.0
H801 H 0.9612 0.8164 0.28356 0.0
H802 H 0.05216 0.79134 0.2954 0.0
H803 H 0.06457 0.83515 0.31301 0.0
H804 H 0.0094 0.91912 0.29259 0.0
H805 H 0.96574 0.91908 0.29684 0.0
H806 H 0.96197 0.88286 0.28583 0.0
H807 H 0.91146 0.82327 0.29734 0.0
H808 H 0.91504 0.85944 0.30839 0.0
H809 H 0.92422 0.819 0.31198 0.0
H810 H 0.07129 0.88881 0.32868 0.0
H811 H 0.06943 0.94359 0.34051 0.0
H812 H 0.97216 0.92902 0.31831 0.0
C813 C 0.98329 0.81951 0.28993 0.0
C814 C 1.00563 0.80036 0.28808 0.0
C815 C 0.03441 0.80546 0.29664 0.0
C816 C 0.04174 0.83038 0.30668 0.0
C817 C 0.01966 0.84954 0.30813 0.0
C818 C 0.99065 0.84381 0.30001 0.0
C819 C 0.97191 0.86877 0.30325 0.0
C820 C 0.97763 0.89926 0.29409 0.0
C821 C 0.92806 0.84095 0.30537 0.0
C822 C 0.99557 0.8904 0.31428 0.0
C823 C 0.02293 0.87905 0.31708 0.0
C824 C 0.04949 0.89738 0.32663 0.0
C825 C 0.04822 0.92838 0.33334 0.0
C826 C 0.02066 0.94066 0.33041 0.0
C827 C 0.99369 0.92055 0.32087 0.0
H828 H 0.81741 0.77167 0.79997 0.0
H829 H 0.80402 0.86512 0.78352 0.0
H830 H 0.83813 0.91277 0.80043 0.0
H831 H 0.80593 0.79743 0.82936 0.0
H832 H 0.84338 0.78816 0.83531 0.0
H833 H 0.81532 0.76039 0.82233 0.0
H834 H 0.87973 0.78509 0.81175 0.0
H835 H 0.90788 0.81222 0.82475 0.0
H836 H 0.91481 0.83903 0.8118 0.0
H837 H 0.87517 0.95096 0.81925 0.0
H838 H 0.92024 0.97911 0.8366 0.0
H839 H 0.91165 0.8616 0.84035 0.0
C840 C 0.82143 0.80208 0.79995 0.0
C841 C 0.8078 0.81453 0.79041 0.0
C842 C 0.81425 0.85485 0.79069 0.0
C843 C 0.83331 0.88204 0.80031 0.0
C844 C 0.8461 0.86869 0.80961 0.0
C845 C 0.84094 0.82982 0.80942 0.0
C846 C 0.8602 0.824 0.82008 0.0
C847 C 0.82936 0.7905 0.82719 0.0
C848 C 0.89258 0.81455 0.8169 0.0
C849 C 0.87746 0.86578 0.82625 0.0
C850 C 0.86833 0.89092 0.82021 0.0
C851 C 0.88226 0.9314 0.82407 0.0
C852 C 0.90755 0.94706 0.83403 0.0
C853 C 0.91929 0.92254 0.83994 0.0
C854 C 0.90284 0.881 0.83615 0.0
H855 H 0.25149 0.04312 0.8027 0.0
H856 H 0.28097 0.1684 0.79844 0.0
H857 H 0.24256 0.16531 0.815 0.0
H858 H 0.15292 0.00624 0.8094 0.0
H859 H 0.15218 0.97166 0.81973 0.0
H860 H 0.18492 0.98524 0.80819 0.0
H861 H 0.24411 0.00961 0.82294 0.0
H862 H 0.21149 0.99648 0.83454 0.0
H863 H 0.25286 0.04758 0.83412 0.0
H864 H 0.19574 0.14652 0.83106 0.0
H865 H 0.14313 0.11267 0.84459 0.0
H866 H 0.14564 1.00045 0.83873 0.0
C867 C 0.25005 0.06999 0.80525 0.0
C868 C 0.26962 0.10609 0.79922 0.0
C869 C 0.26694 0.14057 0.80296 0.0
C870 C 0.24505 0.1391 0.81238 0.0
C871 C 0.22611 0.10304 0.81809 0.0
C872 C 0.22845 0.06912 0.81467 0.0
C873 C 0.20367 0.03339 0.82187 0.0
C874 C 0.17152 0.997 0.81435 0.0
C875 C 0.22959 0.02105 0.82878 0.0
C876 C 0.18616 0.05214 0.82966 0.0
C877 C 0.19973 0.09248 0.82745 0.0
C878 C 0.18548 0.11516 0.83302 0.0
C879 C 0.15578 0.09576 0.84079 0.0
C880 C 0.14062 0.05406 0.84293 0.0
C881 C 0.15699 0.03255 0.83748 0.0
H882 H 0.97735 0.14432 0.78716 0.0
H883 H 0.06196 0.26677 0.80075 0.0
H884 H 0.08103 0.23779 0.81672 0.0
H885 H 0.94511 0.10019 0.81412 0.0
H886 H 0.9401 0.05188 0.80954 0.0
H887 H 0.93386 0.08265 0.79922 0.0
H888 H 0.98772 0.08169 0.78723 0.0
H889 H 0.99416 0.05098 0.79753 0.0
H890 H 0.03579 0.09865 0.79392 0.0
H891 H 0.08927 0.19401 0.83173 0.0
H892 H 0.08656 0.14 0.84377 0.0
H893 H 0.99691 0.04753 0.81987 0.0
C894 C 0.99967 0.16516 0.79352 0.0
C895 C 0.01801 0.20791 0.79268 0.0
C896 C 0.04767 0.23393 0.80112 0.0
C897 C 0.05858 0.21773 0.81026 0.0
C898 C 0.03975 0.17539 0.81083 0.0
C899 C 0.01101 0.14954 0.80262 0.0
C900 C 0.99524 0.10521 0.80507 0.0
C901 C 0.95096 0.08373 0.80711 0.0
C902 C 1.00375 0.08283 0.79536 0.0
C903 C 0.01932 0.11001 0.81597 0.0
C904 C 0.04487 0.15062 0.81922 0.0
C905 C 0.06947 0.16212 0.8292 0.0
C906 C 0.06775 0.13129 0.836 0.0
C907 C 0.04175 0.08954 0.83274 0.0
C908 C 0.01744 0.07911 0.82257 0.0
H909 H 0.84356 0.82036 0.72445 0.0
H910 H 0.75419 0.83931 0.70787 0.0
H911 H 0.79208 0.85898 0.6905 0.0
H912 H 0.92356 0.90377 0.71462 0.0
H913 H 0.95262 0.87958 0.71281 0.0
H914 H 0.91535 0.86158 0.72308 0.0
H915 H 0.88315 0.78877 0.71324 0.0
H916 H 0.92013 0.807 0.70277 0.0
H917 H 0.86866 0.78111 0.69817 0.0
H918 H 0.84468 0.88578 0.67581 0.0
H919 H 0.90851 0.9227 0.66669 0.0
H920 H 0.96119 0.88256 0.69237 0.0
C921 C 0.8312 0.82746 0.71709 0.0
C922 C 0.79562 0.82809 0.71765 0.0
C923 C 0.78145 0.83885 0.70782 0.0
C924 C 0.80259 0.84962 0.6978 0.0
C925 C 0.83774 0.84902 0.69761 0.0
C926 C 0.85182 0.83809 0.70703 0.0
C927 C 0.89221 0.84392 0.70518 0.0
C928 C 0.92271 0.87401 0.71446 0.0
C929 C 0.89094 0.80274 0.70482 0.0
C930 C 0.89959 0.86172 0.69349 0.0
C931 C 0.86755 0.86365 0.68909 0.0
C932 C 0.86954 0.88345 0.67903 0.0
C933 C 0.90579 0.90388 0.67376 0.0
C934 C 0.93952 0.9047 0.67868 0.0
C935 C 0.93552 0.88128 0.68823 0.0
H936 H 0.24589 0.98863 0.71916 0.0
H937 H 0.26997 0.10209 0.73666 0.0
H938 H 0.2429 0.11867 0.71963 0.0
H939 H 0.26402 0.0247 0.68981 0.0
H940 H 0.22337 0.97777 0.68347 0.0
H941 H 0.24937 0.97718 0.69639 0.0
H942 H 0.18402 0.94193 0.7068 0.0
H943 H 0.15796 0.94142 0.69383 0.0
H944 H 0.15338 0.96474 0.70694 0.0
H945 H 0.20935 0.12103 0.70105 0.0
H946 H 0.16092 0.10239 0.68468 0.0
H947 H 0.15652 0.9866 0.67955 0.0
C948 C 0.24585 0.01717 0.71935 0.0
C949 C 0.26023 0.04413 0.72924 0.0
C950 C 0.25898 0.08084 0.72921 0.0
C951 C 0.24411 0.09078 0.71951 0.0
C952 C 0.23034 0.06366 0.70987 0.0
C953 C 0.23045 0.02724 0.70981 0.0
C954 C 0.20961 1.00108 0.69895 0.0
C955 C 0.23832 0.99482 0.69173 0.0
C956 C 0.17414 0.95989 0.7018 0.0
C957 C 0.19669 0.02786 0.69307 0.0
C958 C 0.20998 0.06443 0.69932 0.0
C959 C 0.19923 0.09273 0.69601 0.0
C960 C 0.17214 0.08221 0.68656 0.0
C961 C 0.15543 0.04334 0.68072 0.0
C962 C 0.16966 0.01697 0.68366 0.0
H963 H 0.08622 0.21996 0.73984 0.0
H964 H 0.01365 0.2639 0.72444 0.0
H965 H 1.00409 0.22182 0.70667 0.0
H966 H 0.13349 0.21614 0.71372 0.0
H967 H 0.13362 0.17056 0.71755 0.0
H968 H 0.13656 0.20638 0.7286 0.0
H969 H 0.07536 0.14831 0.73755 0.0
H970 H 0.07211 0.11243 0.72649 0.0
H971 H 0.03033 0.11872 0.7288 0.0
H972 H 0.9985 0.16928 0.69087 0.0
H973 H 1.00043 0.11513 0.67879 0.0
H974 H 0.07785 0.10876 0.7049 0.0
C975 C 0.06877 0.22128 0.73269 0.0
C976 C 0.05078 0.24534 0.73356 0.0
C977 C 0.02801 0.24593 0.72398 0.0
C978 C 0.0223 0.22201 0.71384 0.0
C979 C 0.03987 0.19795 0.71336 0.0
C980 C 0.06302 0.19791 0.72253 0.0
C981 C 0.07786 0.16876 0.7201 0.0
C982 C 0.12306 0.19185 0.71998 0.0
C983 C 0.06301 0.13507 0.72875 0.0
C984 C 0.05894 0.15177 0.70823 0.0
C985 C 0.03713 0.1688 0.7044 0.0
C986 C 0.0159 0.15614 0.69377 0.0
C987 C 0.0171 0.12536 0.68696 0.0
C988 C 0.03938 0.10769 0.69082 0.0
C989 C 0.06062 0.12157 0.70158 0.0
H990 H 0.89489 0.61714 0.55183 0.0
H991 H 0.94686 0.54759 0.56441 0.0
H992 H 0.9175 0.49928 0.54743 0.0
H993 H 0.80412 0.53171 0.54291 0.0
H994 H 0.79597 0.55462 0.53063 0.0
H995 H 0.82615 0.58641 0.5428 0.0
H996 H 0.88299 0.62667 0.52941 0.0
H997 H 0.85306 0.59399 0.51725 0.0
H998 H 0.90064 0.59975 0.52071 0.0
H999 H 0.87813 0.45531 0.52979 0.0
H1000 H 0.82282 0.41338 0.51559 0.0
H1001 H 0.79442 0.50961 0.51493 0.0
C1002 C 0.90057 0.59209 0.5509 0.0
C1003 C 0.92338 0.58629 0.55941 0.0
C1004 C 0.92939 0.55259 0.55802 0.0
C1005 C 0.91323 0.52526 0.54832 0.0
C1006 C 0.89086 0.53179 0.54007 0.0
C1007 C 0.88399 0.56404 0.54137 0.0
C1008 C 0.85471 0.56126 0.53212 0.0
C1009 C 0.81808 0.55829 0.53743 0.0
C1010 C 0.87402 0.59759 0.52442 0.0
C1011 C 0.84516 0.52174 0.52563 0.0
C1012 C 0.86725 0.50583 0.5301 0.0
C1013 C 0.86117 0.46783 0.52609 0.0
C1014 C 0.83008 0.4444 0.51787 0.0
C1015 C 0.80511 0.45876 0.51395 0.0
C1016 C 0.81408 0.49868 0.51747 0.0
H1017 H 0.513 0.39791 0.55726 0.0
H1018 H 0.41457 0.28562 0.54205 0.0
H1019 H 0.44771 0.29783 0.52381 0.0
H1020 H 0.53905 0.45693 0.53039 0.0
H1021 H 0.59098 0.48065 0.53422 0.0
H1022 H 0.55626 0.46736 0.54527 0.0
H1023 H 0.58304 0.42436 0.55462 0.0
H1024 H 0.61818 0.43841 0.5438 0.0
H1025 H 0.58499 0.3852 0.54598 0.0
H1026 H 0.49597 0.31655 0.50828 0.0
H1027 H 0.557 0.33459 0.4985 0.0
H1028 H 0.62327 0.43548 0.52342 0.0
C1029 C 0.49783 0.37658 0.54998 0.0
C1030 C 0.46105 0.34091 0.55111 0.0
C1031 C 0.44283 0.31306 0.54146 0.0
C1032 C 0.46124 0.32004 0.53099 0.0
C1033 C 0.49783 0.35523 0.53021 0.0
C1034 C 0.51593 0.38302 0.5395 0.0
C1035 C 0.55745 0.41533 0.53704 0.0
C1036 C 0.56113 0.45757 0.53671 0.0
C1037 C 0.58766 0.4158 0.54587 0.0
C1038 C 0.56078 0.40013 0.52519 0.0
C1039 C 0.5257 0.36614 0.52122 0.0
C1040 C 0.52326 0.34376 0.51115 0.0
C1041 C 0.558 0.35459 0.50551 0.0
C1042 C 0.59462 0.38698 0.51007 0.0
C1043 C 0.59537 0.41155 0.51954 0.0
H1044 H 0.67501 0.17125 0.56401 0.0
H1045 H 0.74943 0.13912 0.5451 0.0
H1046 H 0.73354 0.16341 0.52746 0.0
H1047 H 0.59947 0.14703 0.54033 0.0
H1048 H 0.59445 0.19027 0.54454 0.0
H1049 H 0.60702 0.1648 0.55519 0.0
H1050 H 0.6695 0.23336 0.56188 0.0
H1051 H 0.65669 0.25892 0.5514 0.0
H1052 H 0.70427 0.26274 0.5515 0.0
H1053 H 0.71465 0.1981 0.51224 0.0
H1054 H 0.70139 0.24662 0.502 0.0
H1055 H 0.63961 0.25558 0.5309 0.0
C1056 C 0.68714 0.16834 0.55609 0.0
C1057 C 0.7133 0.15305 0.55595 0.0
C1058 C 0.7295 0.15093 0.54546 0.0
C1059 C 0.72027 0.16423 0.53535 0.0
C1060 C 0.69464 0.17954 0.53581 0.0
C1061 C 0.67847 0.18178 0.54596 0.0
C1062 C 0.65543 0.20365 0.54457 0.0
C1063 C 0.61148 0.1747 0.54626 0.0
C1064 C 0.67251 0.24193 0.55282 0.0
C1065 C 0.66232 0.21473 0.53219 0.0
C1066 C 0.68416 0.19974 0.52714 0.0
C1067 C 0.6969 0.2093 0.51603 0.0
C1068 C 0.68887 0.23649 0.5102 0.0
C1069 C 0.66887 0.25415 0.51559 0.0
C1070 C 0.65407 0.24163 0.52649 0.0
H1071 H 0.88045 0.58488 0.6244 0.0
H1072 H 0.97534 0.58283 0.64362 0.0
H1073 H 0.93673 0.5657 0.66091 0.0
H1074 H 0.84412 0.6227 0.64897 0.0
H1075 H 0.79358 0.58972 0.64385 0.0
H1076 H 0.83191 0.61072 0.63381 0.0
H1077 H 0.80998 0.5378 0.62537 0.0
H1078 H 0.7714 0.51699 0.63519 0.0
H1079 H 0.80655 0.49976 0.63487 0.0
H1080 H 0.88389 0.53801 0.67513 0.0
H1081 H 0.82013 0.49374 0.68354 0.0
H1082 H 0.7597 0.51418 0.65524 0.0
C1083 C 0.89364 0.58228 0.63236 0.0
C1084 C 0.93102 0.58551 0.63267 0.0
C1085 C 0.94671 0.58039 0.64316 0.0
C1086 C 0.92516 0.57116 0.65307 0.0
C1087 C 0.88795 0.56733 0.65242 0.0
C1088 C 0.87232 0.57268 0.64229 0.0
C1089 C 0.82962 0.56078 0.64327 0.0
C1090 C 0.82452 0.59822 0.64243 0.0
C1091 C 0.80284 0.52681 0.63415 0.0
C1092 C 0.82289 0.54553 0.65527 0.0
C1093 C 0.8572 0.55086 0.6606 0.0
C1094 C 0.85706 0.53456 0.67116 0.0
C1095 C 0.82071 0.50982 0.67599 0.0
C1096 C 0.78512 0.50101 0.6701 0.0
C1097 C 0.78663 0.52137 0.66005 0.0
H1098 H 0.48323 0.33869 0.61762 0.0
H1099 H 0.45752 0.42193 0.6366 0.0
H1100 H 0.48778 0.41269 0.65427 0.0
H1101 H 0.46554 0.26915 0.6409 0.0
H1102 H 0.50513 0.26082 0.63713 0.0
H1103 H 0.47872 0.27155 0.62621 0.0
H1104 H 0.54412 0.33304 0.62025 0.0
H1105 H 0.57056 0.32166 0.63092 0.0
H1106 H 0.57622 0.37187 0.63101 0.0
H1107 H 0.52756 0.39955 0.66957 0.0
H1108 H 0.57726 0.3887 0.67996 0.0
H1109 H 0.57232 0.31051 0.65138 0.0
C1110 C 0.48379 0.35488 0.62549 0.0
C1111 C 0.46809 0.3812 0.62567 0.0
C1112 C 0.46936 0.40161 0.63621 0.0
C1113 C 0.48626 0.39632 0.64633 0.0
C1114 C 0.50125 0.36991 0.64588 0.0
C1115 C 0.50008 0.34953 0.6357 0.0
C1116 C 0.5202 0.32477 0.63729 0.0
C1117 C 0.49062 0.27884 0.63526 0.0
C1118 C 0.55482 0.33869 0.62941 0.0
C1119 C 0.53432 0.33567 0.64982 0.0
C1120 C 0.52268 0.36127 0.65474 0.0
C1121 C 0.53607 0.37877 0.66588 0.0
C1122 C 0.56386 0.37195 0.67184 0.0
C1123 C 0.57802 0.34808 0.66659 0.0
C1124 C 0.56113 0.32791 0.65574 0.0
H1125 H 0.72365 0.18825 0.61948 0.0
H1126 H 0.65971 0.08428 0.64022 0.0
H1127 H 0.67022 0.13105 0.65692 0.0
H1128 H 0.7966 0.25533 0.64218 0.0
H1129 H 0.79747 0.30033 0.63729 0.0
H1130 H 0.78699 0.25868 0.62719 0.0
H1131 H 0.72121 0.25381 0.62044 0.0
H1132 H 0.73199 0.29591 0.63033 0.0
H1133 H 0.68637 0.24823 0.6309 0.0
H1134 H 0.6833 0.1903 0.67111 0.0
H1135 H 0.69337 0.2549 0.68044 0.0
H1136 H 0.75204 0.31917 0.65073 0.0
C1137 C 0.71195 0.17525 0.62754 0.0
C1138 C 0.69071 0.13248 0.62848 0.0
C1139 C 0.67606 0.11691 0.63924 0.0
C1140 C 0.68209 0.14328 0.64882 0.0
C1141 C 0.70337 0.18533 0.64761 0.0
C1142 C 0.71808 0.20113 0.63722 0.0
C1143 C 0.73828 0.24726 0.63795 0.0
C1144 C 0.78246 0.26652 0.63604 0.0
C1145 C 0.71826 0.26216 0.62941 0.0
C1146 C 0.73157 0.25497 0.65026 0.0
C1147 C 0.7118 0.21905 0.65579 0.0
C1148 C 0.69944 0.21868 0.66692 0.0
C1149 C 0.7057 0.2556 0.67224 0.0
C1150 C 0.72397 0.29219 0.6664 0.0
C1151 C 0.73861 0.29184 0.65551 0.0
H1152 H 0.4718 0.16084 0.12281 0.0
H1153 H 0.44785 0.05223 0.14021 0.0
H1154 H 0.48348 0.0952 0.15785 0.0
H1155 H 0.56732 0.22548 0.13445 0.0
H1156 H 0.56223 0.2701 0.13555 0.0
H1157 H 0.53286 0.22983 0.1249 0.0
H1158 H 0.46977 0.22439 0.13294 0.0
H1159 H 0.49916 0.2641 0.14382 0.0
H1160 H 0.46058 0.21512 0.14786 0.0
H1161 H 0.52959 0.15251 0.17291 0.0
H1162 H 0.58222 0.21659 0.18289 0.0
H1163 H 0.56861 0.28589 0.15625 0.0
C1164 C 0.47392 0.146 0.13034 0.0
C1165 C 0.45742 0.10317 0.13009 0.0
C1166 C 0.4604 0.08501 0.14019 0.0
C1167 C 0.48041 0.10919 0.15026 0.0
C1168 C 0.49634 0.15145 0.15022 0.0
C1169 C 0.49285 0.16951 0.1405 0.0
C1170 C 0.51358 0.21548 0.14241 0.0
C1171 C 0.54591 0.23643 0.13383 0.0
C1172 C 0.48399 0.23065 0.14172 0.0
C1173 C 0.53087 0.22085 0.15454 0.0
C1174 C 0.52049 0.18369 0.15901 0.0
C1175 C 0.5371 0.18169 0.16958 0.0
C1176 C 0.56666 0.21834 0.17532 0.0
C1177 C 0.57931 0.25637 0.17044 0.0
C1178 C 0.55911 0.25739 0.16032 0.0
H1179 H 0.86159 0.38697 0.12347 0.0
H1180 H 0.90509 0.30498 0.13074 0.0
H1181 H 0.86384 0.28203 0.1476 0.0
H1182 H 0.85901 0.41799 0.15234 0.0
H1183 H 0.81451 0.41977 0.14971 0.0
H1184 H 0.84713 0.42861 0.13832 0.0
H1185 H 0.78948 0.37052 0.12567 0.0
H1186 H 0.75673 0.36155 0.13703 0.0
H1187 H 0.76201 0.32026 0.13105 0.0
H1188 H 0.81863 0.2713 0.16472 0.0
H1189 H 0.77207 0.27096 0.17878 0.0
H1190 H 0.75919 0.3589 0.15914 0.0
C1191 C 0.86259 0.36429 0.12862 0.0
C1192 C 0.88676 0.34799 0.12583 0.0
C1193 C 0.88662 0.31774 0.13269 0.0
C1194 C 0.86342 0.3047 0.14231 0.0
C1195 C 0.84017 0.32185 0.14488 0.0
C1196 C 0.83945 0.35072 0.1381 0.0
C1197 C 0.81197 0.36442 0.14244 0.0
C1198 C 0.83451 0.41041 0.14591 0.0
C1199 C 0.77804 0.35352 0.13352 0.0
C1200 C 0.79741 0.33908 0.15278 0.0
C1201 C 0.81393 0.31477 0.15421 0.0
C1202 C 0.80527 0.28995 0.16355 0.0
C1203 C 0.77889 0.28993 0.17151 0.0
C1204 C 0.76127 0.31418 0.16995 0.0
C1205 C 0.77109 0.33902 0.16047 0.0
H1206 H 0.6382 0.47268 0.13032 0.0
H1207 H 0.73683 0.59571 0.13701 0.0
H1208 H 0.75807 0.57316 0.15408 0.0
H1209 H 0.61631 0.44942 0.15983 0.0
H1210 H 0.6038 0.39696 0.15742 0.0
H1211 H 0.59635 0.42341 0.14596 0.0
H1212 H 0.63933 0.40654 0.13306 0.0
H1213 H 0.64655 0.37983 0.14446 0.0
H1214 H 0.68853 0.4207 0.13819 0.0
H1215 H 0.76886 0.53495 0.17063 0.0
H1216 H 0.76969 0.48456 0.18361 0.0
H1217 H 0.66274 0.3889 0.16593 0.0
C1218 C 0.66399 0.49517 0.13542 0.0
C1219 C 0.68561 0.53613 0.13229 0.0
C1220 C 0.71982 0.56411 0.13913 0.0
C1221 C 0.73195 0.55162 0.14892 0.0
C1222 C 0.70962 0.51101 0.15179 0.0
C1223 C 0.67642 0.48326 0.14515 0.0
C1224 C 0.65801 0.44106 0.14971 0.0
C1225 C 0.61614 0.4269 0.15345 0.0
C1226 C 0.65814 0.41024 0.14083 0.0
C1227 C 0.68606 0.44913 0.15991 0.0
C1228 C 0.71562 0.48959 0.1611 0.0
C1229 C 0.74556 0.5033 0.1698 0.0
C1230 C 0.74566 0.47467 0.17722 0.0
C1231 C 0.71611 0.433 0.17582 0.0
C1232 C 0.68572 0.42059 0.1672 0.0
H1233 H 0.54188 0.15862 0.06506 0.0
H1234 H 0.43194 0.13134 0.04783 0.0
H1235 H 0.46452 0.14949 0.02931 0.0
H1236 H 0.60118 0.24403 0.05182 0.0
H1237 H 0.64238 0.23581 0.05094 0.0
H1238 H 0.60821 0.21293 0.06189 0.0
H1239 H 0.59596 0.14164 0.05489 0.0
H1240 H 0.6299 0.16453 0.04376 0.0
H1241 H 0.58024 0.12387 0.04013 0.0
H1242 H 0.51286 0.1844 0.01379 0.0
H1243 H 0.57083 0.23351 1.00357 0.0
H1244 H 0.64795 0.23254 0.03061 0.0
C1245 C 0.5246 0.15517 0.05726 0.0
C1246 C 0.48457 0.14333 0.05771 0.0
C1247 C 0.4626 0.13987 0.04751 0.0
C1248 C 0.48088 0.15 0.037 0.0
C1249 C 0.52092 0.16259 0.03684 0.0
C1250 C 0.54229 0.1645 0.04674 0.0
C1251 C 0.58559 0.18308 0.04471 0.0
C1252 C 0.61078 0.22121 0.05281 0.0
C1253 C 0.59868 0.15137 0.04594 0.0
C1254 C 0.58589 0.19399 0.03235 0.0
C1255 C 0.54832 0.18126 0.02782 0.0
C1256 C 0.54225 0.19335 0.01712 0.0
C1257 C 0.57534 0.22093 0.01127 0.0
C1258 C 0.61378 0.23625 0.01623 0.0
C1259 C 0.61884 0.22042 0.0265 0.0
H1260 H 0.92478 0.42242 0.06108 0.0
H1261 H 0.90484 0.3 0.05471 0.0
H1262 H 0.87414 0.29659 0.03548 0.0
H1263 H 0.83543 0.40382 0.0495 0.0
H1264 H 0.85469 0.45357 0.04385 0.0
H1265 H 0.87947 0.44708 0.05604 0.0
H1266 H 0.94384 0.47824 0.0451 0.0
H1267 H 0.91858 0.48357 0.03272 0.0
H1268 H 0.9441 0.45543 0.03135 0.0
H1269 H 0.8385 0.30446 0.01779 0.0
H1270 H 0.79417 0.31791 1.00559 0.0
H1271 H 0.83904 0.43532 0.02367 0.0
C1272 C 0.91459 0.39497 0.05561 0.0
C1273 C 0.91738 0.36146 0.05944 0.0
C1274 C 0.90313 0.3261 0.05199 0.0
C1275 C 0.88598 0.3241 0.04101 0.0
C1276 C 0.8837 0.35788 0.03754 0.0
C1277 C 0.89758 0.39257 0.04471 0.0
C1278 C 0.88808 0.4231 0.03969 0.0
C1279 C 0.86291 0.43238 0.04774 0.0
C1280 C 0.92591 0.46241 0.03706 0.0
C1281 C 0.86495 0.3996 0.02876 0.0
C1282 C 0.86358 0.36247 0.02745 0.0
C1283 C 0.84019 0.33381 0.01862 0.0
C1284 C 0.81556 0.34201 0.01154 0.0
C1285 C 0.81396 0.37816 0.01349 0.0
C1286 C 0.8409 0.40826 0.02169 0.0
H1287 H 0.62546 0.50011 0.06637 0.0
H1288 H 0.733 0.61467 0.06224 0.0
H1289 H 0.73769 0.58899 0.04287 0.0
H1290 H 0.6566 0.43711 0.05408 0.0
H1291 H 0.60875 0.40051 0.04764 0.0
H1292 H 0.6126 0.43063 0.06031 0.0
H1293 H 0.57049 0.45571 0.04962 0.0
H1294 H 0.56762 0.42642 0.03679 0.0
H1295 H 0.58646 0.48056 0.03637 0.0
H1296 H 0.73306 0.54737 0.02451 0.0
H1297 H 0.72558 0.492 0.01097 0.0
H1298 H 0.62108 0.40574 0.02732 0.0
C1299 C 0.64983 0.52019 0.06137 0.0
C1300 C 0.67879 0.55959 0.06584 0.0
C1301 C 0.71043 0.58441 0.05902 0.0
C1302 C 0.71308 0.57017 0.04796 0.0
C1303 C 0.68375 0.53113 0.0438 0.0
C1304 C 0.65292 0.50647 0.0504 0.0
C1305 C 0.62724 0.46435 0.0446 0.0
C1306 C 0.62628 0.43123 0.0521 0.0
C1307 C 0.58548 0.45631 0.04167 0.0
C1308 C 0.64907 0.4684 0.03384 0.0
C1309 C 0.68107 0.50743 0.03335 0.0
C1310 C 0.70762 0.51706 0.02471 0.0
C1311 C 0.70278 0.48555 0.01689 0.0
C1312 C 0.67196 0.44488 0.01785 0.0
C1313 C 0.64379 0.43688 0.02607 0.0
H1314 H 0.56905 0.89235 0.89726 0.0
H1315 H 0.61151 1.00257 0.8787 0.0
H1316 H 0.5773 0.96042 0.86083 0.0
H1317 H 0.57789 0.83036 0.87412 0.0
H1318 H 0.53413 0.78462 0.87776 0.0
H1319 H 0.56389 0.82363 0.88877 0.0
H1320 H 0.50315 0.82848 0.89453 0.0
H1321 H 0.47323 0.78893 0.88376 0.0
H1322 H 0.47501 0.83734 0.88371 0.0
H1323 H 0.53158 0.90447 0.84529 0.0
H1324 H 0.47773 0.84258 0.83466 0.0
H1325 H 0.47135 0.77057 0.86333 0.0
C1326 C 0.57129 0.90777 0.88944 0.0
C1327 C 0.59266 0.95083 0.88942 0.0
C1328 C 0.59516 0.96961 0.87895 0.0
C1329 C 0.57601 0.94588 0.86874 0.0
C1330 C 0.55523 0.90334 0.86908 0.0
C1331 C 0.55311 0.88465 0.87921 0.0
C1332 C 0.52784 0.83875 0.87757 0.0
C1333 C 0.55242 0.81814 0.87968 0.0
C1334 C 0.49274 0.82244 0.88535 0.0
C1335 C 0.51467 0.83433 0.86505 0.0
C1336 C 0.53092 0.87172 0.86017 0.0
C1337 C 0.51941 0.875 0.84897 0.0
C1338 C 0.48915 0.83962 0.8429 0.0
C1339 C 0.47081 0.8017 0.8481 0.0
C1340 C 0.48542 0.799 0.85904 0.0
H1341 H 0.21476 0.7592 0.89537 0.0
H1342 H 0.10265 0.6642 0.88024 0.0
H1343 H 0.12888 0.67984 0.86085 0.0
H1344 H 0.23893 0.83083 0.8709 0.0
H1345 H 0.29049 0.84701 0.87272 0.0
H1346 H 0.26042 0.83308 0.88495 0.0
H1347 H 0.28075 0.77969 0.88981 0.0
H1348 H 0.31138 0.79428 0.87783 0.0
H1349 H 0.27395 0.74157 0.87891 0.0
H1350 H 0.17269 0.69562 0.84392 0.0
H1351 H 0.22829 0.70813 0.83209 0.0
H1352 H 0.3095 0.79922 0.8576 0.0
C1353 C 0.19553 0.74262 0.88791 0.0
C1354 C 0.15679 0.71058 0.88921 0.0
C1355 C 0.13232 0.68912 0.87934 0.0
C1356 C 0.14701 0.69794 0.86832 0.0
C1357 C 0.18584 0.72928 0.8673 0.0
C1358 C 0.20945 0.75183 0.87688 0.0
C1359 C 0.25107 0.78125 0.87373 0.0
C1360 C 0.26079 0.82568 0.87569 0.0
C1361 C 0.281 0.7737 0.88046 0.0
C1362 C 0.24821 0.76972 0.86105 0.0
C1363 C 0.21022 0.74017 0.85739 0.0
C1364 C 0.20218 0.71981 0.84657 0.0
C1365 C 0.23394 0.7276 0.83974 0.0
C1366 C 0.27313 0.75532 0.84382 0.0
C1367 C 0.27968 0.77903 0.85411 0.0
H1368 H 0.31813 0.50089 0.89035 0.0
H1369 H 0.41161 0.49371 0.87395 0.0
H1370 H 0.39546 0.5162 0.85598 0.0
H1371 H 0.24891 0.4738 0.86395 0.0
H1372 H 0.23537 0.51086 0.86837 0.0
H1373 H 0.24803 0.48531 0.87899 0.0
H1374 H 0.30165 0.55528 0.88838 0.0
H1375 H 0.28859 0.58071 0.87795 0.0
H1376 H 0.3388 0.59184 0.87966 0.0
H1377 H 0.37604 0.5494 0.8408 0.0
H1378 H 0.36209 0.59843 0.83129 0.0
H1379 H 0.28206 0.58569 0.85748 0.0
C1380 C 0.33409 0.50265 0.88281 0.0
C1381 C 0.36568 0.49498 0.88345 0.0
C1382 C 0.38711 0.49918 0.87358 0.0
C1383 C 0.3779 0.51161 0.86332 0.0
C1384 C 0.34714 0.51993 0.863 0.0
C1385 C 0.32566 0.5158 0.87254 0.0
C1386 C 0.29844 0.53277 0.87059 0.0
C1387 C 0.25511 0.49864 0.87047 0.0
C1388 C 0.30744 0.56719 0.87967 0.0
C1389 C 0.30938 0.54894 0.85875 0.0
C1390 C 0.33656 0.54006 0.85433 0.0
C1391 C 0.3541 0.55573 0.84406 0.0
C1392 C 0.34562 0.5832 0.83859 0.0
C1393 C 0.32047 0.59529 0.84353 0.0
C1394 C 0.30049 0.576 0.85334 0.0
H1395 H 0.49983 0.87506 0.95544 0.0
H1396 H 0.61839 0.92593 0.97026 0.0
H1397 H 0.59218 0.908 0.98959 0.0
H1398 H 0.46017 0.90599 0.98059 0.0
H1399 H 0.41307 0.85966 0.97851 0.0
H1400 H 0.4419 0.88264 0.96637 0.0
H1401 H 0.43938 0.81465 0.96063 0.0
H1402 H 0.41016 0.7916 0.97259 0.0
H1403 H 0.45548 0.79132 0.97105 0.0
H1404 H 0.5515 0.87049 1.00624 0.0
H1405 H 0.5012 0.81933 0.01823 0.0
H1406 H 0.40974 0.80029 0.99312 0.0
C1407 C 0.5202 0.88328 0.96284 0.0
C1408 C 0.561 0.9017 0.96146 0.0
C1409 C 0.58703 0.91204 0.97123 0.0
C1410 C 0.57235 0.90205 0.98221 0.0
C1411 C 0.53167 0.88291 0.98327 0.0
C1412 C 0.50607 0.87443 0.97383 0.0
C1413 C 0.46358 0.85077 0.97697 0.0
C1414 C 0.4435 0.8763 0.97553 0.0
C1415 C 0.44086 0.80967 0.9699 0.0
C1416 C 0.46901 0.84485 0.98951 0.0
C1417 C 0.50847 0.86397 0.99308 0.0
C1418 C 0.52054 0.85687 1.00372 0.0
C1419 C 0.49181 0.82813 0.01057 0.0
C1420 C 0.4516 0.80742 1.00681 0.0
C1421 C 0.44013 0.81751 0.99644 0.0
H1422 H 0.20488 0.77039 0.95844 0.0
H1423 H 0.09495 0.65616 0.96026 0.0
H1424 H 0.12083 0.64196 0.97798 0.0
H1425 H 0.26692 0.73557 0.96653 0.0
H1426 H 0.30191 0.78114 0.9749 0.0
H1427 H 0.27251 0.78435 0.96336 0.0
H1428 H 0.24698 0.81907 0.9774 0.0
H1429 H 0.2763 0.81574 0.98902 0.0
H1430 H 0.22401 0.79411 0.99014 0.0
H1431 H 0.16362 0.63558 0.99406 0.0
H1432 H 0.21808 0.63934 1.00649 0.0
H1433 H 0.29687 0.75963 0.99474 0.0
C1434 C 0.18586 0.74286 0.96271 0.0
C1435 C 0.14787 0.71452 0.95792 0.0
C1436 C 0.1241 0.67863 0.96377 0.0
C1437 C 0.13856 0.67023 0.97387 0.0
C1438 C 0.17659 0.69838 0.97821 0.0
C1439 C 0.1996 0.73432 0.97287 0.0
C1440 C 0.24028 0.75847 0.97875 0.0
C1441 C 0.27226 0.76524 0.97039 0.0
C1442 C 0.24729 0.79926 0.98415 0.0
C1443 C 0.23725 0.72977 0.98788 0.0
C1444 C 0.20031 0.69533 0.98758 0.0
C1445 C 0.19238 0.6629 0.99453 0.0
C1446 C 0.22336 0.6653 1.00164 0.0
C1447 C 0.26167 0.6998 1.00164 0.0
C1448 C 0.26785 0.73289 0.99502 0.0
H1449 H 0.41961 0.54679 0.95232 0.0
H1450 H 0.31218 0.43092 0.95523 0.0
H1451 H 0.30394 0.45525 0.97433 0.0
H1452 H 0.45416 0.56424 0.98254 0.0
H1453 H 0.47273 0.61842 0.9825 0.0
H1454 H 0.47172 0.59059 0.96957 0.0
H1455 H 0.43059 0.61631 0.95867 0.0
H1456 H 0.43241 0.6449 0.97148 0.0
H1457 H 0.38552 0.60861 0.96443 0.0
H1458 H 0.30528 0.49522 0.99266 0.0
H1459 H 0.3119 0.54853 1.00688 0.0
H1460 H 0.4189 0.63713 0.99202 0.0
C1461 C 0.39444 0.52622 0.95698 0.0
C1462 C 0.36658 0.48675 0.95222 0.0
C1463 C 0.33393 0.46124 0.95864 0.0
C1464 C 0.32921 0.47474 0.96956 0.0
C1465 C 0.35749 0.51379 0.97401 0.0
C1466 C 0.38932 0.53919 0.96784 0.0
C1467 C 0.41407 0.58083 0.97404 0.0
C1468 C 0.45564 0.58898 0.97736 0.0
C1469 C 0.41571 0.61464 0.96673 0.0
C1470 C 0.39077 0.57548 0.98457 0.0
C1471 C 0.35856 0.53638 0.98453 0.0
C1472 C 0.33091 0.52555 0.99289 0.0
C1473 C 0.3352 0.55586 1.00108 0.0
C1474 C 0.36689 0.5965 1.00089 0.0
C1475 C 0.39562 0.60584 0.99275 0.0
H1476 H 0.16958 0.51744 0.45147 0.0
H1477 H 0.10944 0.41337 0.47243 0.0
H1478 H 0.14629 0.45712 0.48973 0.0
H1479 H 0.26271 0.56002 0.466 0.0
H1480 H 0.2749 0.61216 0.46448 0.0
H1481 H 0.24144 0.57287 0.45411 0.0
H1482 H 0.18905 0.59367 0.45784 0.0
H1483 H 0.22225 0.63262 0.4684 0.0
H1484 H 0.17394 0.59417 0.47221 0.0
H1485 H 0.1938 0.51285 0.50484 0.0
H1486 H 0.2506 0.57254 0.51542 0.0
H1487 H 0.27732 0.63878 0.48441 0.0
C1488 C 0.16391 0.50381 0.45969 0.0
C1489 C 0.13653 0.46187 0.46054 0.0
C1490 C 0.13026 0.44539 0.47151 0.0
C1491 C 0.1509 0.4701 0.48142 0.0
C1492 C 0.17761 0.51141 0.48028 0.0
C1493 C 0.18415 0.52799 0.46965 0.0
C1494 C 0.21593 0.57254 0.47055 0.0
C1495 C 0.2508 0.5798 0.46337 0.0
C1496 C 0.19928 0.59985 0.46704 0.0
C1497 C 0.22707 0.57824 0.48327 0.0
C1498 C 0.20438 0.54297 0.48885 0.0
C1499 C 0.21139 0.54075 0.50056 0.0
C1500 C 0.24342 0.57486 0.50656 0.0
C1501 C 0.26808 0.61027 0.50075 0.0
C1502 C 0.25866 0.61221 0.4891 0.0
H1503 H 0.60908 0.75897 0.47534 0.0
H1504 H 0.56725 0.63233 0.4651 0.0
H1505 H 0.52998 0.61089 0.48259 0.0
H1506 H 0.61385 0.74742 0.50742 0.0
H1507 H 0.59745 0.78333 0.51028 0.0
H1508 H 0.6268 0.78897 0.49819 0.0
H1509 H 0.57303 0.78796 0.48448 0.0
H1510 H 0.54441 0.78347 0.49654 0.0
H1511 H 0.52307 0.7461 0.48463 0.0
H1512 H 0.486 0.60287 0.49872 0.0
H1513 H 0.43918 0.60993 0.51085 0.0
H1514 H 0.51354 0.74112 0.51202 0.0
C1515 C 0.59281 0.7268 0.47693 0.0
C1516 C 0.59123 0.69741 0.46885 0.0
C1517 C 0.56943 0.65553 0.47122 0.0
C1518 C 0.54818 0.64304 0.48117 0.0
C1519 C 0.54968 0.67279 0.48887 0.0
C1520 C 0.57194 0.71391 0.48691 0.0
C1521 C 0.56541 0.73963 0.49578 0.0
C1522 C 0.60313 0.76642 0.50337 0.0
C1523 C 0.55057 0.76576 0.49001 0.0
C1524 C 0.53393 0.70651 0.50255 0.0
C1525 C 0.52572 0.66808 0.49861 0.0
C1526 C 0.49314 0.63276 0.50219 0.0
C1527 C 0.46689 0.63691 0.50927 0.0
C1528 C 0.47346 0.67603 0.51268 0.0
C1529 C 0.50894 0.71089 0.50998 0.0
H1530 H 0.40213 0.90297 0.45841 0.0
H1531 H 0.30285 0.90441 0.47292 0.0
H1532 H 0.31722 0.88238 0.49122 0.0
H1533 H 0.38555 0.81366 0.46983 0.0
H1534 H 0.43677 0.82911 0.4723 0.0
H1535 H 0.42226 0.85148 0.46126 0.0
H1536 H 0.47104 0.92351 0.47059 0.0
H1537 H 0.48502 0.90101 0.48181 0.0
H1538 H 0.46712 0.93516 0.48539 0.0
H1539 H 0.33763 0.85198 0.50719 0.0
H1540 H 0.35594 0.80793 0.51779 0.0
H1541 H 0.44201 0.82692 0.49299 0.0
C1542 C 0.38411 0.89977 0.46554 0.0
C1543 C 0.3515 0.90569 0.46422 0.0
C1544 C 0.32787 0.89989 0.47367 0.0
C1545 C 0.33613 0.88784 0.48417 0.0
C1546 C 0.36828 0.88183 0.48515 0.0
C1547 C 0.39178 0.88745 0.47604 0.0
C1548 C 0.42139 0.87408 0.47873 0.0
C1549 C 0.41614 0.84006 0.47002 0.0
C1550 C 0.46365 0.91063 0.47916 0.0
C1551 C 0.40977 0.85831 0.49057 0.0
C1552 C 0.37983 0.86406 0.4943 0.0
C1553 C 0.36164 0.84811 0.50447 0.0
C1554 C 0.37259 0.82355 0.51056 0.0
C1555 C 0.40089 0.81468 0.50632 0.0
C1556 C 0.42112 0.83425 0.49659 0.0
H1557 H 0.18359 0.48625 0.39283 0.0
H1558 H 0.08131 0.48402 0.37707 0.0
H1559 H 0.11314 0.50019 0.3586 0.0
H1560 H 0.25201 0.57111 0.38023 0.0
H1561 H 0.28726 0.55446 0.3785 0.0
H1562 H 0.25304 0.53478 0.38959 0.0
H1563 H 0.22942 0.46109 0.38146 0.0
H1564 H 0.26317 0.48095 0.37015 0.0
H1565 H 0.21139 0.44683 0.3667 0.0
H1566 H 0.15969 0.52745 0.34289 0.0
H1567 H 0.219 0.57129 0.3325 0.0
H1568 H 0.29097 0.5547 0.35797 0.0
C1569 C 0.16747 0.4879 0.38539 0.0
C1570 C 0.12988 0.48364 0.38638 0.0
C1571 C 0.11019 0.48735 0.37654 0.0
C1572 C 0.12786 0.496 0.36596 0.0
C1573 C 0.16525 0.50068 0.3653 0.0
C1574 C 0.18489 0.49689 0.37479 0.0
C1575 C 0.22687 0.50914 0.37228 0.0
C1576 C 0.25651 0.54447 0.38063 0.0
C1577 C 0.23306 0.4723 0.37267 0.0
C1578 C 0.22852 0.52262 0.36014 0.0
C1579 C 0.19229 0.5163 0.35612 0.0
C1580 C 0.18787 0.53138 0.34577 0.0
C1581 C 0.22164 0.55579 0.3398 0.0
C1582 C 0.25923 0.56497 0.34421 0.0
C1583 C 0.26226 0.54625 0.35413 0.0
H1584 H 0.51228 0.622 0.40342 0.0
H1585 H 0.62735 0.72255 0.39651 0.0
H1586 H 0.60004 0.73122 0.37811 0.0
H1587 H 0.48414 0.58033 0.37344 0.0
H1588 H 0.43331 0.56556 0.37499 0.0
H1589 H 0.46296 0.56628 0.38717 0.0
H1590 H 0.44631 0.6149 0.39863 0.0
H1591 H 0.41654 0.61411 0.38652 0.0
H1592 H 0.45606 0.66215 0.39268 0.0
H1593 H 0.55635 0.73338 0.3612 0.0
H1594 H 0.50228 0.72622 0.34784 0.0
H1595 H 0.41934 0.62012 0.36537 0.0
C1596 C 0.53184 0.64551 0.39797 0.0
C1597 C 0.57186 0.67162 0.40142 0.0
C1598 C 0.59656 0.70198 0.39401 0.0
C1599 C 0.58129 0.70717 0.38354 0.0
C1600 C 0.54145 0.68112 0.38043 0.0
C1601 C 0.51734 0.65042 0.3874 0.0
C1602 C 0.47551 0.62682 0.38235 0.0
C1603 C 0.46327 0.5821 0.37931 0.0
C1604 C 0.44695 0.6297 0.39053 0.0
C1605 C 0.47936 0.64978 0.37169 0.0
C1606 C 0.51744 0.68108 0.37061 0.0
C1607 C 0.52658 0.70838 0.36186 0.0
C1608 C 0.49579 0.70404 0.35425 0.0
C1609 C 0.45652 0.67258 0.35548 0.0
C1610 C 0.44897 0.64451 0.36409 0.0
H1611 H 0.30635 0.84249 0.39712 0.0
H1612 H 0.41565 0.95458 0.39233 0.0
H1613 H 0.42197 0.92467 0.37392 0.0
H1614 H 0.33734 0.7756 0.38697 0.0
H1615 H 0.2899 0.7387 0.38035 0.0
H1616 H 0.293 0.77098 0.39241 0.0
H1617 H 0.25299 0.79542 0.38037 0.0
H1618 H 0.25073 0.76385 0.36816 0.0
H1619 H 0.27063 0.81788 0.3669 0.0
H1620 H 0.41866 0.87975 0.35662 0.0
H1621 H 0.41027 0.82227 0.34378 0.0
H1622 H 0.30303 0.74053 0.35983 0.0
C1623 C 0.33149 0.86103 0.39217 0.0
C1624 C 0.36045 0.90107 0.39621 0.0
C1625 C 0.39307 0.92388 0.38947 0.0
C1626 C 0.39671 0.90723 0.37893 0.0
C1627 C 0.36743 0.86772 0.37518 0.0
C1628 C 0.33561 0.84487 0.38168 0.0
C1629 C 0.30981 0.80204 0.3763 0.0
C1630 C 0.30741 0.76996 0.38449 0.0
C1631 C 0.2686 0.79437 0.37272 0.0
C1632 C 0.33256 0.8038 0.3659 0.0
C1633 C 0.36534 0.84217 0.36525 0.0
C1634 C 0.3926 0.84992 0.35692 0.0
C1635 C 0.38732 0.81725 0.34951 0.0
C1636 C 0.35512 0.77737 0.35048 0.0
C1637 C 0.32678 0.77111 0.35851 0.0
H1638 H 0.25588 0.09126 0.10182 0.0
H1639 H 0.31535 0.06404 0.12898 0.0
H1640 H 0.27063 0.06725 0.14289 0.0
H1641 H 0.23454 0.16009 0.11912 0.0
H1642 H 0.18723 0.14113 0.11167 0.0
H1643 H 0.22704 0.14163 0.10432 0.0
H1644 H 0.18344 0.06398 0.09907 0.0
H1645 H 0.14354 0.06339 0.10629 0.0
H1646 H 0.16089 0.02944 0.11031 0.0
H1647 H 0.21319 0.06617 0.15347 0.0
H1648 H 0.14921 0.05817 0.15894 0.0
H1649 H 0.12954 0.08676 0.12466 0.0
C1650 C 0.25984 0.08626 0.1107 0.0
C1651 C 0.28922 0.07729 0.11425 0.0
C1652 C 0.29341 0.07139 0.12603 0.0
C1653 C 0.26805 0.07311 0.134 0.0
C1654 C 0.23888 0.08129 0.13013 0.0
C1655 C 0.23498 0.08799 0.11872 0.0
C1656 C 0.19986 0.09338 0.11643 0.0
C1657 C 0.21297 0.13663 0.11267 0.0
C1658 C 0.17019 0.06059 0.1075 0.0
C1659 C 0.18361 0.08724 0.12821 0.0
C1660 C 0.20663 0.08091 0.13611 0.0
C1661 C 0.19538 0.07175 0.14737 0.0
C1662 C 0.15914 0.06757 0.15045 0.0
C1663 C 0.13451 0.07211 0.14226 0.0
C1664 C 0.14784 0.08344 0.13116 0.0
H1665 H 0.92625 0.18962 0.09646 0.0
H1666 H 0.99753 0.30001 0.11802 0.0
H1667 H 1.00494 0.2592 0.13294 0.0
H1668 H 0.87694 0.12066 0.119 0.0
H1669 H 0.87954 0.07876 0.11222 0.0
H1670 H 0.87715 0.11607 0.1036 0.0
H1671 H 0.94141 0.13076 0.09418 0.0
H1672 H 0.94349 0.09298 0.1026 0.0
H1673 H 0.98485 0.14439 0.10316 0.0
H1674 H 1.00437 0.20537 0.1457 0.0
H1675 H 1.00597 0.14605 0.15343 0.0
H1676 H 0.93908 0.07204 0.12299 0.0
C1677 C 0.94331 0.20515 0.10434 0.0
C1678 C 0.96122 0.24804 0.10608 0.0
C1679 C 0.98374 0.26724 0.11646 0.0
C1680 C 0.98777 0.24423 0.12504 0.0
C1681 C 0.96951 0.20195 0.12311 0.0
C1682 C 0.94838 0.18272 0.1129 0.0
C1683 C 0.93458 0.13746 0.11253 0.0
C1684 C 0.88937 0.11173 0.11179 0.0
C1685 C 0.95215 0.12572 0.10253 0.0
C1686 C 0.95152 0.13425 0.12404 0.0
C1687 C 0.97076 0.17154 0.13017 0.0
C1688 C 0.98931 0.17604 0.14097 0.0
C1689 C 0.98972 0.14206 0.14537 0.0
C1690 C 0.97242 0.10435 0.13887 0.0
C1691 C 0.95219 0.10036 0.12822 0.0
H1692 H 0.84427 0.74199 0.10496 0.0
H1693 H 0.74405 0.71452 0.12508 0.0
H1694 H 0.7877 0.77053 0.13926 0.0
H1695 H 0.91823 0.7726 0.1287 0.0
H1696 H 0.9561 0.81368 0.12124 0.0
H1697 H 0.91776 0.76901 0.11327 0.0
H1698 H 0.89957 0.81434 0.10141 0.0
H1699 H 0.9383 0.85903 0.10919 0.0
H1700 H 0.88857 0.84964 0.10877 0.0
H1701 H 0.84312 0.83194 0.15114 0.0
H1702 H 0.90179 0.89843 0.15759 0.0
H1703 H 0.96438 0.88714 0.12921 0.0
C1704 C 0.83156 0.7475 0.11241 0.0
C1705 C 0.7907 0.7236 0.11392 0.0
C1706 C 0.77521 0.7324 0.12369 0.0
C1707 C 0.79988 0.76397 0.13187 0.0
C1708 C 0.84009 0.78688 0.13014 0.0
C1709 C 0.85566 0.77937 0.12054 0.0
C1710 C 0.89905 0.81067 0.1201 0.0
C1711 C 0.92427 0.79026 0.12088 0.0
C1712 C 0.90681 0.83485 0.10923 0.0
C1713 C 0.9054 0.83735 0.13083 0.0
C1714 C 0.87136 0.82271 0.13669 0.0
C1715 C 0.86998 0.84344 0.14664 0.0
C1716 C 0.9036 0.88097 0.15035 0.0
C1717 C 0.93781 0.89768 0.14401 0.0
C1718 C 0.93888 0.87475 0.13436 0.0
H1719 H 0.01983 0.25446 0.41749 0.0
H1720 H 0.12321 0.35714 0.40465 0.0
H1721 H 0.12772 0.31047 0.39026 0.0
H1722 H 0.05271 0.18181 0.41443 0.0
H1723 H 1.00409 0.13995 0.4103 0.0
H1724 H 0.00992 0.18189 0.41948 0.0
H1725 H 0.96479 0.19294 0.40518 0.0
H1726 H 0.95928 0.15137 0.39588 0.0
H1727 H 0.97716 0.2012 0.39042 0.0
H1728 H 0.11922 0.25037 0.37668 0.0
H1729 H 0.10157 0.18351 0.36688 0.0
H1730 H 1.00433 0.12279 0.389 0.0
C1731 C 0.04365 0.26725 0.41172 0.0
C1732 C 0.07119 0.30956 0.41227 0.0
C1733 C 0.10182 0.3248 0.40449 0.0
C1734 C 0.1045 0.29853 0.39622 0.0
C1735 C 0.07639 0.25698 0.39581 0.0
C1736 C 0.04678 0.24155 0.40346 0.0
C1737 C 0.02039 0.19588 0.40144 0.0
C1738 C 0.0219 0.17358 0.41204 0.0
C1739 C 0.9779 0.18471 0.39803 0.0
C1740 C 0.03971 0.18782 0.3915 0.0
C1741 C 0.07182 0.22324 0.38824 0.0
C1742 C 0.09411 0.2225 0.37921 0.0
C1743 C 0.08378 0.1845 0.37363 0.0
C1744 C 0.05171 0.14789 0.37718 0.0
C1745 C 0.02921 0.15012 0.38609 0.0
H1746 H 0.82695 0.79614 0.40996 0.0
H1747 H 0.7319 0.82097 0.40393 0.0
H1748 H 0.77028 0.86971 0.3894 0.0
H1749 H 0.90521 0.8969 0.40819 0.0
H1750 H 0.93657 0.88196 0.4012 0.0
H1751 H 0.90014 0.84773 0.41045 0.0
H1752 H 0.87058 0.79153 0.3939 0.0
H1753 H 0.90677 0.82584 0.38456 0.0
H1754 H 0.85507 0.80213 0.38041 0.0
H1755 H 0.82333 0.92071 0.37621 0.0
H1756 H 0.88443 0.96754 0.36659 0.0
H1757 H 0.94153 0.90565 0.38122 0.0
C1758 C 0.8141 0.81178 0.40561 0.0
C1759 C 0.7764 0.80474 0.40816 0.0
C1760 C 0.76059 0.82555 0.40209 0.0
C1761 C 0.78224 0.85337 0.39382 0.0
C1762 C 0.81953 0.85975 0.39157 0.0
C1763 C 0.83506 0.83919 0.3973 0.0
C1764 C 0.87602 0.85189 0.39369 0.0
C1765 C 0.90625 0.87075 0.40399 0.0
C1766 C 0.87715 0.81568 0.38779 0.0
C1767 C 0.88172 0.88357 0.38526 0.0
C1768 C 0.84894 0.88778 0.38401 0.0
C1769 C 0.84894 0.9172 0.37705 0.0
C1770 C 0.88364 0.94354 0.37155 0.0
C1771 C 0.91781 0.94032 0.37311 0.0
C1772 C 0.91599 0.90902 0.37979 0.0
H1773 H 0.28013 0.06189 0.399 0.0
H1774 H 0.23855 0.93217 0.39631 0.0
H1775 H 0.18578 0.92208 0.38208 0.0
H1776 H 0.18872 0.05419 0.39864 0.0
H1777 H 0.20263 0.09849 0.39047 0.0
H1778 H 0.23929 0.09507 0.39914 0.0
H1779 H 0.2802 0.10578 0.38128 0.0
H1780 H 0.2432 0.10867 0.37252 0.0
H1781 H 0.25782 0.072 0.36866 0.0
H1782 H 0.13152 0.92594 0.36989 0.0
H1783 H 0.08258 0.94332 0.36204 0.0
H1784 H 0.16229 0.07045 0.3724 0.0
C1785 C 0.26023 0.03137 0.39534 0.0
C1786 C 0.26351 0.99782 0.39883 0.0
C1787 C 0.23693 0.95844 0.39371 0.0
C1788 C 0.20682 0.95245 0.38562 0.0
C1789 C 0.20402 0.98624 0.38254 0.0
C1790 C 0.23042 0.025 0.38722 0.0
C1791 C 0.21994 0.05607 0.38323 0.0
C1792 C 0.21217 0.07715 0.39347 0.0
C1793 C 0.25222 0.08748 0.37599 0.0
C1794 C 0.1826 0.02869 0.37593 0.0
C1795 C 0.1739 0.98852 0.37544 0.0
C1796 C 0.13863 0.95746 0.37002 0.0
C1797 C 0.11111 0.96758 0.36543 0.0
C1798 C 0.11902 0.00834 0.36638 0.0
C1799 C 0.15587 0.03917 0.3713 0.0
H1800 H 0.81634 0.03446 0.91466 0.0
H1801 H 0.71692 0.93999 0.89384 0.0
H1802 H 0.76266 0.93956 0.87978 0.0
H1803 H 0.87637 0.08878 0.8911 0.0
H1804 H 0.9215 0.10024 0.89881 0.0
H1805 H 0.88043 0.095 0.90652 0.0
H1806 H 0.88203 0.03942 0.91849 0.0
H1807 H 0.92319 0.04473 0.91088 0.0
H1808 H 0.87931 0.99534 0.91121 0.0
H1809 H 0.82216 0.94696 0.86859 0.0
H1810 H 0.88724 0.95988 0.86233 0.0
H1811 H 0.94491 0.04919 0.89085 0.0
C1812 C 0.80401 0.01363 0.90716 0.0
C1813 C 0.76296 0.9871 0.90542 0.0
C1814 C 0.74823 0.96084 0.89534 0.0
C1815 C 0.77404 0.96037 0.88731 0.0
C1816 C 0.81451 0.9867 0.8894 0.0
C1817 C 0.82919 0.01295 0.89909 0.0
C1818 C 0.87364 0.03708 0.89978 0.0
C1819 C 0.88887 0.08299 0.899 0.0
C1820 C 0.89051 0.02861 0.91074 0.0
C1821 C 0.882 0.01956 0.88915 0.0
C1822 C 0.8478 0.9909 0.88311 0.0
C1823 C 0.84904 0.96967 0.87324 0.0
C1824 C 0.88607 0.97729 0.86968 0.0
C1825 C 0.92109 0.00547 0.87611 0.0
C1826 C 0.91868 0.02739 0.88576 0.0
H1827 H 0.11688 0.8418 0.91928 0.0
H1828 H 0.02127 0.72867 0.90339 0.0
H1829 H 1.00576 0.76795 0.8898 0.0
H1830 H 0.06554 0.89801 0.91767 0.0
H1831 H 0.10915 0.94548 0.915 0.0
H1832 H 0.11323 0.90805 0.92307 0.0
H1833 H 0.16254 0.90835 0.90884 0.0
H1834 H 0.15807 0.9453 0.90061 0.0
H1835 H 0.14825 0.89758 0.89375 0.0
H1836 H 1.00263 0.82047 0.8773 0.0
H1837 H 1.00492 0.88136 0.86928 0.0
H1838 H 0.09923 0.95952 0.8943 0.0
C1839 C 0.09256 0.82529 0.91297 0.0
C1840 C 0.07031 0.78213 0.9124 0.0
C1841 C 0.03855 0.76172 0.90406 0.0
C1842 C 0.02977 0.78377 0.89622 0.0
C1843 C 0.05268 0.82631 0.89691 0.0
C1844 C 0.08292 0.84685 0.90523 0.0
C1845 C 0.1017 0.8927 0.90458 0.0
C1846 C 0.09711 0.91219 0.91574 0.0
C1847 C 0.14522 0.91211 0.90178 0.0
C1848 C 0.07718 0.89483 0.89465 0.0
C1849 C 0.04963 0.85628 0.89014 0.0
C1850 C 0.024 0.85078 0.8808 0.0
C1851 C 0.02572 0.8855 0.87622 0.0
C1852 C 0.05229 0.92506 0.88115 0.0
C1853 C 0.07868 0.92961 0.89035 0.0
H1854 H 0.20974 0.31328 0.90622 0.0
H1855 H 0.31686 0.31282 0.89882 0.0
H1856 H 0.27869 0.25305 0.88519 0.0
H1857 H 0.14899 0.20547 0.90626 0.0
H1858 H 0.10603 0.20457 0.90003 0.0
H1859 H 0.14268 0.2491 0.90836 0.0
H1860 H 0.14944 0.29336 0.8912 0.0
H1861 H 0.11336 0.24863 0.88274 0.0
H1862 H 0.16148 0.2807 0.87749 0.0
H1863 H 0.22755 0.19057 0.87281 0.0
H1864 H 0.16795 0.1268 0.8653 0.0
H1865 H 0.09459 0.1675 0.88098 0.0
C1866 C 0.22526 0.30082 0.90168 0.0
C1867 C 0.26646 0.31805 0.9036 0.0
C1868 C 0.28538 0.30027 0.89756 0.0
C1869 C 0.26394 0.26646 0.8897 0.0
C1870 C 0.22342 0.25044 0.88794 0.0
C1871 C 0.20424 0.26678 0.8939 0.0
C1872 C 0.16011 0.24197 0.89119 0.0
C1873 C 0.13817 0.22421 0.90211 0.0
C1874 C 0.14524 0.26771 0.8853 0.0
C1875 C 0.1573 0.2087 0.88295 0.0
C1876 C 0.19417 0.21449 0.88097 0.0
C1877 C 0.19862 0.1862 0.87416 0.0
C1878 C 0.16459 0.15031 0.86972 0.0
C1879 C 0.12665 0.14291 0.87216 0.0
C1880 C 0.12322 0.17312 0.8786 0.0
H1881 H 0.05823 0.79765 0.6083 0.0
H1882 H 0.93535 0.70479 0.60978 0.0
H1883 H 0.92537 0.75094 0.62303 0.0
H1884 H 0.07517 0.83571 0.63738 0.0
H1885 H 0.10655 0.88829 0.63416 0.0
H1886 H 0.10368 0.84798 0.62484 0.0
H1887 H 0.08373 0.87572 0.60746 0.0
H1888 H 0.08743 0.91661 0.61667 0.0
H1889 H 0.04235 0.88366 0.60827 0.0
H1890 H 0.93067 0.80824 0.63717 0.0
H1891 H 0.94816 0.87354 0.64791 0.0
H1892 H 0.0664 0.92794 0.63612 0.0
C1893 C 0.02908 0.78712 0.61131 0.0
C1894 C 0.99755 0.74764 0.60797 0.0
C1895 C 0.95986 0.7351 0.6121 0.0
C1896 C 0.95405 0.76097 0.61974 0.0
C1897 C 0.98611 0.79947 0.62307 0.0
C1898 C 0.0227 0.81265 0.61876 0.0
C1899 C 0.05218 0.85576 0.62322 0.0
C1900 C 0.08641 0.85698 0.63032 0.0
C1901 C 0.06729 0.88464 0.61332 0.0
C1902 C 0.02669 0.865 0.63073 0.0
C1903 C 0.98878 0.83212 0.63074 0.0
C1904 C 0.96028 0.83412 0.63716 0.0
C1905 C 0.97049 0.8711 0.64335 0.0
C1906 C 0.00865 0.90557 0.64289 0.0
C1907 C 0.03706 0.90193 0.63668 0.0
H1908 H 0.23871 0.26422 0.61115 0.0
H1909 H 0.3366 0.24636 0.62013 0.0
H1910 H 0.29604 0.19584 0.63396 0.0
H1911 H 0.20097 0.25357 0.63964 0.0
H1912 H 0.15039 0.22713 0.63413 0.0
H1913 H 0.18838 0.26382 0.62566 0.0
H1914 H 0.16669 0.20904 0.6089 0.0
H1915 H 0.12855 0.17235 0.61728 0.0
H1916 H 0.16423 0.16122 0.61146 0.0
H1917 H 0.24095 0.14235 0.64618 0.0
H1918 H 0.17828 0.09242 0.65456 0.0
H1919 H 0.11896 0.14762 0.63727 0.0
C1920 C 0.25181 0.24984 0.61601 0.0
C1921 C 0.29099 0.25945 0.61447 0.0
C1922 C 0.30686 0.24002 0.62119 0.0
C1923 C 0.28394 0.21111 0.62907 0.0
C1924 C 0.2452 0.20207 0.63026 0.0
C1925 C 0.22949 0.22117 0.6239 0.0
C1926 C 0.18684 0.20537 0.62631 0.0
C1927 C 0.18134 0.23951 0.63176 0.0
C1928 C 0.16001 0.18583 0.61534 0.0
C1929 C 0.18051 0.17369 0.63481 0.0
C1930 C 0.21438 0.17218 0.63714 0.0
C1931 C 0.21442 0.14364 0.64445 0.0
C1932 C 0.17877 0.11549 0.64923 0.0
C1933 C 0.14361 0.11594 0.64658 0.0
C1934 C 0.14519 0.14624 0.6395 0.0
H1935 H 0.77942 0.99459 0.62327 0.0
H1936 H 0.82869 0.1256 0.62262 0.0
H1937 H 0.88203 0.13629 0.63661 0.0
H1938 H 0.80599 0.99176 0.6537 0.0
H1939 H 0.81737 0.9521 0.65056 0.0
H1940 H 0.78017 0.95491 0.64188 0.0
H1941 H 0.81689 0.95782 0.62358 0.0
H1942 H 0.85363 0.95432 0.63218 0.0
H1943 H 0.86809 0.99631 0.62301 0.0
H1944 H 0.93514 0.1323 0.64902 0.0
H1945 H 0.9831 0.11387 0.65699 0.0
H1946 H 0.89828 0.98603 0.64928 0.0
C1947 C 0.80113 0.02561 0.62609 0.0
C1948 C 0.79961 0.05921 0.62175 0.0
C1949 C 0.82872 0.09923 0.62586 0.0
C1950 C 0.85922 0.10562 0.63383 0.0
C1951 C 0.8601 0.0717 0.63777 0.0
C1952 C 0.83161 0.03246 0.63401 0.0
C1953 C 0.84071 1.00113 0.63862 0.0
C1954 C 0.80918 0.97334 0.64667 0.0
C1955 C 0.84512 0.97595 0.62876 0.0
C1956 C 0.87963 0.02878 0.64519 0.0
C1957 C 0.89016 0.06941 0.64485 0.0
C1958 C 0.92671 0.10052 0.64954 0.0
C1959 C 0.95368 0.08985 0.65419 0.0
C1960 C 0.94399 0.04851 0.65398 0.0
C1961 C 0.90598 0.01779 0.64982 0.0
H1962 H 0.90277 0.33748 0.44374 0.0
H1963 H 0.99869 0.45663 0.45593 0.0
H1964 H 0.95515 0.46281 0.46974 0.0
H1965 H 0.82829 0.36201 0.44411 0.0
H1966 H 0.79132 0.31289 0.44857 0.0
H1967 H 0.83146 0.31712 0.44064 0.0
H1968 H 0.84953 0.28322 0.45682 0.0
H1969 H 0.80949 0.27915 0.46485 0.0
H1970 H 0.85888 0.30503 0.47131 0.0
H1971 H 0.89705 0.45722 0.48133 0.0
H1972 H 0.83208 0.44092 0.48855 0.0
H1973 H 0.77704 0.32563 0.46848 0.0
C1974 C 0.91481 0.36487 0.44933 0.0
C1975 C 0.95419 0.3966 0.44868 0.0
C1976 C 0.96874 0.43169 0.4563 0.0
C1977 C 0.94415 0.43549 0.46417 0.0
C1978 C 0.90516 0.40374 0.46444 0.0
C1979 C 0.89086 0.36902 0.45721 0.0
C1980 C 0.84765 0.33988 0.45863 0.0
C1981 C 0.82326 0.33258 0.44732 0.0
C1982 C 0.84102 0.29943 0.46317 0.0
C1983 C 0.83935 0.36394 0.46755 0.0
C1984 C 0.8727 0.40055 0.47096 0.0
C1985 C 0.87092 0.42839 0.47876 0.0
C1986 C 0.83398 0.41888 0.48288 0.0
C1987 C 0.79946 0.38209 0.47907 0.0
C1988 C 0.8028 0.35409 0.47157 0.0
H1989 H 0.68012 0.59107 0.44066 0.0
H1990 H 0.56317 0.55753 0.45102 0.0
H1991 H 0.56492 0.50872 0.46411 0.0
H1992 H 0.66534 0.48959 0.44039 0.0
H1993 H 0.71499 0.50616 0.44563 0.0
H1994 H 0.70492 0.53966 0.4375 0.0
H1995 H 0.73745 0.59539 0.4541 0.0
H1996 H 0.74715 0.56178 0.46234 0.0
H1997 H 0.71967 0.58363 0.46829 0.0
H1998 H 0.57976 0.46287 0.47639 0.0
H1999 H 0.60365 0.41933 0.48477 0.0
H2000 H 0.70933 0.48145 0.46588 0.0
C2001 C 0.65487 0.57345 0.44567 0.0
C2002 C 0.62151 0.57826 0.44476 0.0
C2003 C 0.58902 0.55434 0.45147 0.0
C2004 C 0.58982 0.52666 0.45902 0.0
C2005 C 0.62322 0.52283 0.45978 0.0
C2006 C 0.65496 0.54524 0.45317 0.0
C2007 C 0.68649 0.53399 0.45516 0.0
C2008 C 0.69331 0.51629 0.44401 0.0
C2009 C 0.72496 0.5709 0.46028 0.0
C2010 C 0.66744 0.50161 0.46383 0.0
C2011 C 0.63121 0.49593 0.46655 0.0
C2012 C 0.60815 0.46712 0.4743 0.0
C2013 C 0.622 0.4427 0.47911 0.0
C2014 C 0.65828 0.44692 0.476 0.0
C2015 C 0.68142 0.47741 0.46844 0.0
H2016 H 0.45886 0.10456 0.44016 0.0
H2017 H 0.50633 0.02703 0.44908 0.0
H2018 H 0.55374 0.08062 0.4632 0.0
H2019 H 0.55143 0.19778 0.44157 0.0
H2020 H 0.53186 0.22819 0.44732 0.0
H2021 H 0.50057 0.18267 0.43844 0.0
H2022 H 0.45144 0.15518 0.45458 0.0
H2023 H 0.48297 0.20044 0.46357 0.0
H2024 H 0.46851 0.15075 0.46866 0.0
H2025 H 0.59734 0.14443 0.47649 0.0
H2026 H 0.63704 0.21451 0.48565 0.0
H2027 H 0.56168 0.24977 0.46762 0.0
C2028 C 0.47916 0.09878 0.44509 0.0
C2029 C 0.47869 0.0614 0.44347 0.0
C2030 C 0.50607 0.05538 0.45009 0.0
C2031 C 0.53301 0.08559 0.45822 0.0
C2032 C 0.5325 0.12196 0.45967 0.0
C2033 C 0.50652 0.12877 0.45317 0.0
C2034 C 0.51333 0.17125 0.45588 0.0
C2035 C 0.525 0.19645 0.44517 0.0
C2036 C 0.47689 0.16926 0.46098 0.0
C2037 C 0.54744 0.18746 0.4648 0.0
C2038 C 0.55782 0.1585 0.46704 0.0
C2039 C 0.5893 0.16725 0.47481 0.0
C2040 C 0.61152 0.20702 0.48007 0.0
C2041 C 0.60243 0.23758 0.4774 0.0
C2042 C 0.5693 0.22704 0.46989 0.0
H2043 H 0.68211 0.63268 0.7292 0.0
H2044 H 0.8014 0.69171 0.74427 0.0
H2045 H 0.81342 0.64281 0.73292 0.0
H2046 H 0.66469 0.53063 0.72985 0.0
H2047 H 0.63448 0.51376 0.71667 0.0
H2048 H 0.63717 0.55476 0.72558 0.0
H2049 H 0.6586 0.6007 0.70824 0.0
H2050 H 0.65695 0.56006 0.69937 0.0
H2051 H 0.70153 0.60914 0.70094 0.0
H2052 H 0.81159 0.58614 0.71947 0.0
H2053 H 0.7928 0.52156 0.70824 0.0
H2054 H 0.67407 0.49913 0.70293 0.0
C2055 C 0.71082 0.63537 0.73014 0.0
C2056 C 0.7409 0.66615 0.7376 0.0
C2057 C 0.77785 0.66824 0.73867 0.0
C2058 C 0.78502 0.64085 0.73215 0.0
C2059 C 0.75482 0.61129 0.72469 0.0
C2060 C 0.7182 0.60802 0.72386 0.0
C2061 C 0.68965 0.57206 0.7159 0.0
C2062 C 0.65444 0.54096 0.72239 0.0
C2063 C 0.67588 0.58637 0.7055 0.0
C2064 C 0.71567 0.5552 0.71238 0.0
C2065 C 0.75345 0.57861 0.71732 0.0
C2066 C 0.78217 0.5679 0.71552 0.0
C2067 C 0.77146 0.53149 0.70899 0.0
C2068 C 0.73233 0.50606 0.70445 0.0
C2069 C 0.70452 0.51873 0.70597 0.0
H2070 H 0.48653 0.20153 0.74941 0.0
H2071 H 0.39908 0.1194 0.72334 0.0
H2072 H 0.43904 0.16478 0.70831 0.0
H2073 H 0.51128 0.29613 0.736 0.0
H2074 H 0.56258 0.31977 0.74064 0.0
H2075 H 0.52554 0.28186 0.74908 0.0
H2076 H 0.56027 0.23913 0.74805 0.0
H2077 H 0.5975 0.27702 0.73972 0.0
H2078 H 0.57001 0.22453 0.73425 0.0
H2079 H 0.49417 0.21915 0.69589 0.0
H2080 H 0.55628 0.27373 0.68822 0.0
H2081 H 0.60318 0.31879 0.72305 0.0
C2082 C 0.47566 0.19298 0.74055 0.0
C2083 C 0.43979 0.1567 0.73757 0.0
C2084 C 0.42641 0.14715 0.72585 0.0
C2085 C 0.44898 0.17277 0.71725 0.0
C2086 C 0.48461 0.20822 0.72052 0.0
C2087 C 0.49746 0.21826 0.73196 0.0
C2088 C 0.53698 0.25699 0.73344 0.0
C2089 C 0.53389 0.29068 0.74018 0.0
C2090 C 0.568 0.24891 0.7392 0.0
C2091 C 0.54511 0.26692 0.72106 0.0
C2092 C 0.5148 0.23889 0.71362 0.0
C2093 C 0.51778 0.24144 0.7017 0.0
C2094 C 0.55301 0.27265 0.69739 0.0
C2095 C 0.58465 0.30052 0.70501 0.0
C2096 C 0.57967 0.29799 0.71694 0.0
H2097 H 0.92454 0.38891 0.74351 0.0
H2098 H 0.90538 0.27244 0.72983 0.0
H2099 H 0.85755 0.27008 0.71498 0.0
H2100 H 0.82657 0.3665 0.74045 0.0
H2101 H 0.83914 0.41711 0.73661 0.0
H2102 H 0.87324 0.40994 0.74543 0.0
H2103 H 0.92711 0.44688 0.73094 0.0
H2104 H 0.89299 0.45395 0.72204 0.0
H2105 H 0.91733 0.42859 0.71609 0.0
H2106 H 0.80651 0.27935 0.70234 0.0
H2107 H 0.76008 0.29934 0.69388 0.0
H2108 H 0.81669 0.41033 0.71591 0.0
C2109 C 0.9104 0.3629 0.73739 0.0
C2110 C 0.91861 0.33076 0.7379 0.0
C2111 C 0.89979 0.29758 0.72958 0.0
C2112 C 0.87249 0.29597 0.72112 0.0
C2113 C 0.86473 0.3281 0.72097 0.0
C2114 C 0.8836 0.36108 0.72888 0.0
C2115 C 0.86986 0.39137 0.72725 0.0
C2116 C 0.85108 0.3965 0.73808 0.0
C2117 C 0.90385 0.43263 0.72388 0.0
C2118 C 0.8395 0.36998 0.7174 0.0
C2119 C 0.83679 0.33361 0.71376 0.0
C2120 C 0.80885 0.30805 0.70508 0.0
C2121 C 0.78267 0.31966 0.70026 0.0
C2122 C 0.78457 0.35637 0.7042 0.0
C2123 C 0.81419 0.38199 0.71266 0.0
H2124 H 0.44981 0.26823 0.24694 0.0
H2125 H 0.41154 0.32847 0.22334 0.0
H2126 H 0.45301 0.32295 0.20855 0.0
H2127 H 0.54705 0.31601 0.24041 0.0
H2128 H 0.55246 0.27189 0.24187 0.0
H2129 H 0.51611 0.27647 0.24964 0.0
H2130 H 0.46196 0.20617 0.24055 0.0
H2131 H 0.4983 0.2017 0.23263 0.0
H2132 H 0.45562 0.19783 0.22517 0.0
H2133 H 0.5076 0.31924 0.19742 0.0
H2134 H 0.56789 0.31882 0.19182 0.0
H2135 H 0.56548 0.257 0.22251 0.0
C2136 C 0.44972 0.27974 0.2386 0.0
C2137 C 0.42768 0.29899 0.23629 0.0
C2138 C 0.42808 0.31341 0.22524 0.0
C2139 C 0.45154 0.31035 0.21681 0.0
C2140 C 0.47367 0.29184 0.21947 0.0
C2141 C 0.47232 0.27629 0.2301 0.0
C2142 C 0.50033 0.26012 0.23126 0.0
C2143 C 0.53078 0.28247 0.24138 0.0
C2144 C 0.47769 0.21369 0.23247 0.0
C2145 C 0.51921 0.27063 0.21985 0.0
C2146 C 0.50336 0.28848 0.21303 0.0
C2147 C 0.5195 0.30443 0.20261 0.0
C2148 C 0.55355 0.30372 0.1994 0.0
C2149 C 0.57113 0.28746 0.20666 0.0
C2150 C 0.55236 0.26904 0.21668 0.0
H2151 H 0.79265 0.171 0.25307 0.0
H2152 H 0.70591 0.0555 0.23594 0.0
H2153 H 0.69468 0.09241 0.22058 0.0
H2154 H 0.73822 0.22156 0.24756 0.0
H2155 H 0.78144 0.27048 0.24585 0.0
H2156 H 0.78451 0.23443 0.25481 0.0
H2157 H 0.84095 0.23892 0.24293 0.0
H2158 H 0.83721 0.2742 0.23374 0.0
H2159 H 0.83277 0.22769 0.22765 0.0
H2160 H 0.69219 0.1426 0.20706 0.0
H2161 H 0.68934 0.2006 0.19886 0.0
H2162 H 0.77468 0.28281 0.22529 0.0
C2163 C 0.77134 0.15351 0.24607 0.0
C2164 C 0.75019 0.11031 0.24572 0.0
C2165 C 0.72224 0.08859 0.23647 0.0
C2166 C 0.71601 0.10931 0.22761 0.0
C2167 C 0.73766 0.15192 0.22814 0.0
C2168 C 0.76415 0.17375 0.23727 0.0
C2169 C 0.7809 0.21929 0.23638 0.0
C2170 C 0.77063 0.2375 0.24676 0.0
C2171 C 0.82562 0.24131 0.2351 0.0
C2172 C 0.75935 0.21969 0.22541 0.0
C2173 C 0.73528 0.18061 0.2206 0.0
C2174 C 0.71124 0.17335 0.2107 0.0
C2175 C 0.71022 0.20654 0.20596 0.0
C2176 C 0.73262 0.24631 0.21123 0.0
C2177 C 0.75832 0.25293 0.22086 0.0
H2178 H 0.91584 0.57079 0.25753 0.0
H2179 H 0.92857 0.66575 0.23538 0.0
H2180 H 0.87355 0.61394 0.22254 0.0
H2181 H 0.89344 0.49377 0.23552 0.0
H2182 H 0.85801 0.45269 0.24354 0.0
H2183 H 0.89798 0.49746 0.25097 0.0
H2184 H 0.84809 0.50806 0.26239 0.0
H2185 H 0.80797 0.46324 0.25501 0.0
H2186 H 0.80937 0.51144 0.25475 0.0
H2187 H 0.8177 0.54949 0.2115 0.0
H2188 H 0.76502 0.48009 0.20431 0.0
H2189 H 0.78881 0.42957 0.23421 0.0
C2190 C 0.90702 0.5808 0.25001 0.0
C2191 C 0.92669 0.62243 0.24749 0.0
C2192 C 0.91396 0.63409 0.23755 0.0
C2193 C 0.88275 0.60482 0.23017 0.0
C2194 C 0.86418 0.56395 0.23287 0.0
C2195 C 0.87572 0.55211 0.24263 0.0
C2196 C 0.85099 0.50647 0.2437 0.0
C2197 C 0.87664 0.48643 0.24341 0.0
C2198 C 0.82773 0.49675 0.25461 0.0
C2199 C 0.82392 0.49435 0.233 0.0
C2200 C 0.83193 0.5277 0.22678 0.0
C2201 C 0.8111 0.52325 0.21638 0.0
C2202 C 0.78134 0.48374 0.21231 0.0
C2203 C 0.77252 0.44935 0.21868 0.0
C2204 C 0.79428 0.45516 0.22916 0.0
H2205 H 0.57888 0.07946 0.93652 0.0
H2206 H 0.66661 0.05879 0.95336 0.0
H2207 H 0.67566 0.10806 0.96923 0.0
H2208 H 0.63137 0.18671 0.94274 0.0
H2209 H 0.58781 0.19026 0.9445 0.0
H2210 H 0.58536 0.14996 0.93533 0.0
H2211 H 0.52889 0.09678 0.94697 0.0
H2212 H 0.53198 0.1371 0.95635 0.0
H2213 H 0.53674 0.09636 0.96223 0.0
H2214 H 0.67629 0.16131 0.98317 0.0
H2215 H 0.67887 0.22343 0.99162 0.0
H2216 H 0.59442 0.21277 0.96505 0.0
C2217 C 0.59977 0.08516 0.9436 0.0
C2218 C 0.62193 0.06519 0.94373 0.0
C2219 C 0.64948 0.07392 0.95305 0.0
C2220 C 0.65446 0.10149 0.96218 0.0
C2221 C 0.63199 0.12054 0.96184 0.0
C2222 C 0.60581 0.11338 0.95266 0.0
C2223 C 0.58865 0.14121 0.9537 0.0
C2224 C 0.59893 0.16867 0.94347 0.0
C2225 C 0.5439 0.11636 0.95488 0.0
C2226 C 0.6098 0.16569 0.96478 0.0
C2227 C 0.63376 0.15249 0.96955 0.0
C2228 C 0.65742 0.1717 0.97954 0.0
C2229 C 0.65833 0.20668 0.9844 0.0
C2230 C 0.63647 0.22258 0.97908 0.0
C2231 C 0.6108 0.20077 0.96942 0.0
H2232 H 0.91631 0.5046 0.93301 0.0
H2233 H 0.99583 0.59172 0.95985 0.0
H2234 H 0.95152 0.54923 0.97441 0.0
H2235 H 0.82854 0.48302 0.94523 0.0
H2236 H 0.8026 0.4296 0.94064 0.0
H2237 H 0.84218 0.46574 0.93256 0.0
H2238 H 0.87735 0.42379 0.93469 0.0
H2239 H 0.8379 0.38763 0.94287 0.0
H2240 H 0.88798 0.41265 0.94879 0.0
H2241 H 0.89449 0.49799 0.98617 0.0
H2242 H 0.83037 0.44595 0.99328 0.0
H2243 H 0.79165 0.39228 0.95863 0.0
C2244 C 0.92502 0.51458 0.94193 0.0
C2245 C 0.95982 0.55185 0.94516 0.0
C2246 C 0.96924 0.56374 0.95702 0.0
C2247 C 0.94434 0.53951 0.96542 0.0
C2248 C 0.91017 0.5031 0.9619 0.0
C2249 C 0.90069 0.49073 0.9504 0.0
C2250 C 0.86145 0.45154 0.94871 0.0
C2251 C 0.83197 0.45788 0.94136 0.0
C2252 C 0.86649 0.41685 0.94346 0.0
C2253 C 0.8498 0.44419 0.961 0.0
C2254 C 0.87823 0.47387 0.96856 0.0
C2255 C 0.87229 0.47432 0.98031 0.0
C2256 C 0.83589 0.44449 0.98431 0.0
C2257 C 0.80593 0.41491 0.97655 0.0
C2258 C 0.81389 0.41429 0.96484 0.0
H2259 H 0.5366 0.44717 0.93815 0.0
H2260 H 0.43634 0.39453 0.95941 0.0
H2261 H 0.47879 0.3935 0.9754 0.0
H2262 H 0.57519 0.38755 0.94636 0.0
H2263 H 0.62599 0.42718 0.94586 0.0
H2264 H 0.58874 0.42904 0.93706 0.0
H2265 H 0.61136 0.50153 0.94598 0.0
H2266 H 0.64837 0.49948 0.95497 0.0
H2267 H 0.61265 0.50943 0.96132 0.0
H2268 H 0.53153 0.38949 0.98819 0.0
H2269 H 0.58611 0.37961 0.99543 0.0
H2270 H 0.65095 0.43652 0.96578 0.0
C2271 C 0.52355 0.43584 0.9462 0.0
C2272 C 0.483 0.42081 0.94747 0.0
C2273 C 0.46736 0.40659 0.95823 0.0
C2274 C 0.49133 0.40592 0.96737 0.0
C2275 C 0.53112 0.42025 0.96572 0.0
C2276 C 0.54702 0.43523 0.95537 0.0
C2277 C 0.58952 0.44565 0.95528 0.0
C2278 C 0.59516 0.42086 0.94557 0.0
C2279 C 0.6171 0.49177 0.95433 0.0
C2280 C 0.59476 0.43251 0.96698 0.0
C2281 C 0.56114 0.41859 0.97304 0.0
C2282 C 0.55824 0.40118 0.98361 0.0
C2283 C 0.58957 0.39608 0.98775 0.0
C2284 C 0.62302 0.40795 0.98126 0.0
C2285 C 0.62613 0.42807 0.97105 0.0
H2286 H 0.57294 0.68027 0.78131 0.0
H2287 H 0.6607 0.8093 0.78441 0.0
H2288 H 0.61892 0.82113 0.79759 0.0
H2289 H 0.49107 0.69291 0.77954 0.0
H2290 H 0.46046 0.64857 0.78735 0.0
H2291 H 0.4997 0.65051 0.77943 0.0
H2292 H 0.52874 0.63696 0.79788 0.0
H2293 H 0.48971 0.63547 0.80589 0.0
H2294 H 0.54038 0.67032 0.81054 0.0
H2295 H 0.56285 0.8188 0.8095 0.0
H2296 H 0.49865 0.80299 0.81719 0.0
H2297 H 0.44921 0.67632 0.80548 0.0
C2298 C 0.58375 0.71113 0.78472 0.0
C2299 C 0.62039 0.74381 0.78169 0.0
C2300 C 0.63308 0.78352 0.78661 0.0
C2301 C 0.60943 0.79056 0.79413 0.0
C2302 C 0.57314 0.75759 0.79675 0.0
C2303 C 0.56057 0.71865 0.79214 0.0
C2304 C 0.51944 0.6886 0.7955 0.0
C2305 C 0.49101 0.66903 0.78482 0.0
C2306 C 0.5196 0.65591 0.80289 0.0
C2307 C 0.51012 0.71671 0.80246 0.0
C2308 C 0.5415 0.75635 0.80333 0.0
C2309 C 0.53836 0.78773 0.80895 0.0
C2310 C 0.50192 0.77851 0.81339 0.0
C2311 C 0.46909 0.7384 0.81201 0.0
C2312 C 0.47393 0.7072 0.80678 0.0
H2313 H 0.36932 0.95046 0.7697 0.0
H2314 H 0.27139 0.95336 0.78475 0.0
H2315 H 0.26472 0.90055 0.79795 0.0
H2316 H 0.33074 0.84245 0.77076 0.0
H2317 H 0.37848 0.8483 0.77399 0.0
H2318 H 0.37435 0.8856 0.76587 0.0
H2319 H 0.42308 0.94284 0.78064 0.0
H2320 H 0.42704 0.90564 0.78886 0.0
H2321 H 0.41248 0.93909 0.79559 0.0
H2322 H 0.27035 0.84567 0.80996 0.0
H2323 H 0.28578 0.79506 0.81815 0.0
H2324 H 0.38027 0.83169 0.79495 0.0
C2325 C 0.34624 0.93998 0.77571 0.0
C2326 C 0.32082 0.95621 0.7761 0.0
C2327 C 0.29117 0.94139 0.78419 0.0
C2328 C 0.28727 0.91143 0.79177 0.0
C2329 C 0.31324 0.89645 0.79122 0.0
C2330 C 0.34201 0.91032 0.7833 0.0
C2331 C 0.36638 0.88979 0.78425 0.0
C2332 C 0.36222 0.86507 0.77306 0.0
C2333 C 0.40981 0.92122 0.78753 0.0
C2334 C 0.34701 0.86208 0.79391 0.0
C2335 C 0.31642 0.86604 0.79793 0.0
C2336 C 0.29433 0.84254 0.80682 0.0
C2337 C 0.30338 0.81397 0.81149 0.0
C2338 C 0.33418 0.80907 0.80724 0.0
C2339 C 0.35636 0.83419 0.79845 0.0
H2340 H 0.11904 0.47535 0.76899 0.0
H2341 H 0.13006 0.37961 0.78489 0.0
H2342 H 0.18237 0.4314 0.79851 0.0
H2343 H 0.22146 0.55014 0.77077 0.0
H2344 H 0.21321 0.59218 0.7736 0.0
H2345 H 0.17649 0.54713 0.76545 0.0
H2346 H 0.12445 0.53948 0.77974 0.0
H2347 H 0.16117 0.58431 0.78801 0.0
H2348 H 0.13362 0.53672 0.79481 0.0
H2349 H 0.23532 0.49639 0.81059 0.0
H2350 H 0.28435 0.56637 0.81854 0.0
H2351 H 0.23646 0.61682 0.79443 0.0
C2352 C 0.13237 0.46509 0.77531 0.0
C2353 C 0.12029 0.42325 0.77581 0.0
C2354 C 0.13877 0.41145 0.78427 0.0
C2355 C 0.16846 0.44069 0.7921 0.0
C2356 C 0.17945 0.48173 0.7914 0.0
C2357 C 0.16193 0.49375 0.78314 0.0
C2358 C 0.17921 0.53954 0.78391 0.0
C2359 C 0.19876 0.55834 0.77277 0.0
C2360 C 0.14773 0.55065 0.78679 0.0
C2361 C 0.20947 0.55166 0.7938 0.0
C2362 C 0.20925 0.51815 0.79814 0.0
C2363 C 0.23554 0.52274 0.80723 0.0
C2364 C 0.26316 0.56256 0.81177 0.0
C2365 C 0.26442 0.59719 0.80713 0.0
C2366 C 0.23655 0.59114 0.79818 0.0
H2367 H 0.45884 0.96041 0.08587 0.0
H2368 H 0.38094 0.98987 0.06678 0.0
H2369 H 0.3716 0.93933 0.05125 0.0
H2370 H 0.50373 0.93986 0.06169 0.0
H2371 H 0.50351 0.89688 0.06789 0.0
H2372 H 0.50711 0.93795 0.07705 0.0
H2373 H 0.44573 0.88668 0.08746 0.0
H2374 H 0.44257 0.84551 0.07851 0.0
H2375 H 0.40072 0.85271 0.07915 0.0
H2376 H 0.37083 0.88487 0.03762 0.0
H2377 H 0.36778 0.82242 0.02917 0.0
H2378 H 0.44155 0.82475 0.05783 0.0
C2379 C 0.43993 0.95626 0.07839 0.0
C2380 C 0.42075 0.97923 0.07752 0.0
C2381 C 0.39577 0.97249 0.06768 0.0
C2382 C 0.39064 0.94415 0.05874 0.0
C2383 C 0.41022 0.9222 0.05981 0.0
C2384 C 0.43364 0.92727 0.06952 0.0
C2385 C 0.44818 0.89703 0.06908 0.0
C2386 C 0.49332 0.91927 0.06892 0.0
C2387 C 0.4334 0.86881 0.07914 0.0
C2388 C 0.42896 0.87387 0.05769 0.0
C2389 C 0.40808 0.88955 0.0523 0.0
C2390 C 0.3872 0.87246 0.04177 0.0
C2391 C 0.38602 0.83728 0.03693 0.0
C2392 C 0.40484 0.81907 0.04275 0.0
C2393 C 0.42748 0.83846 0.05308 0.0
H2394 H 0.11896 0.53044 0.0795 0.0
H2395 H 0.0701 0.42406 0.05575 0.0
H2396 H 0.11113 0.46742 0.04067 0.0
H2397 H 0.12913 0.60506 0.05849 0.0
H2398 H 0.1749 0.64452 0.06539 0.0
H2399 H 0.13812 0.60592 0.07375 0.0
H2400 H 0.18911 0.58696 0.08147 0.0
H2401 H 0.226 0.62588 0.07331 0.0
H2402 H 0.21549 0.57392 0.07144 0.0
H2403 H 0.16425 0.52254 0.02875 0.0
H2404 H 0.22552 0.58107 0.0222 0.0
H2405 H 0.23748 0.65017 0.05379 0.0
C2406 C 0.11657 0.5161 0.07113 0.0
C2407 C 0.09115 0.47361 0.06889 0.0
C2408 C 0.08892 0.45651 0.05771 0.0
C2409 C 0.11217 0.48099 0.04906 0.0
C2410 C 0.13726 0.52274 0.05163 0.0
C2411 C 0.13937 0.54003 0.06243 0.0
C2412 C 0.1706 0.58481 0.06341 0.0
C2413 C 0.15207 0.61166 0.06537 0.0
C2414 C 0.20216 0.59337 0.07296 0.0
C2415 C 0.18692 0.58985 0.05164 0.0
C2416 C 0.16704 0.55405 0.04484 0.0
C2417 C 0.17949 0.5509 0.03395 0.0
C2418 C 0.21409 0.58444 0.03021 0.0
C2419 C 0.23594 0.62033 0.03741 0.0
C2420 C 0.22097 0.62339 0.048 0.0
H2421 H 0.51561 0.60387 0.0824 0.0
H2422 H 0.61488 0.65526 0.06073 0.0
H2423 H 0.57201 0.65637 0.04492 0.0
H2424 H 0.43898 0.54132 0.05969 0.0
H2425 H 0.4035 0.55161 0.06606 0.0
H2426 H 0.4409 0.55015 0.07501 0.0
H2427 H 0.46378 0.6231 0.0836 0.0
H2428 H 0.42616 0.62443 0.07483 0.0
H2429 H 0.47689 0.66397 0.0741 0.0
H2430 H 0.51858 0.65923 0.03214 0.0
H2431 H 0.46293 0.66701 0.02469 0.0
H2432 H 0.39978 0.61252 0.05483 0.0
C2433 C 0.52843 0.61511 0.07432 0.0
C2434 C 0.5688 0.62959 0.07287 0.0
C2435 C 0.58403 0.64361 0.06206 0.0
C2436 C 0.55982 0.64434 0.05301 0.0
C2437 C 0.5202 0.63038 0.05482 0.0
C2438 C 0.50473 0.61584 0.06524 0.0
C2439 C 0.46225 0.6054 0.06544 0.0
C2440 C 0.43479 0.55938 0.06662 0.0
C2441 C 0.45699 0.63075 0.07505 0.0
C2442 C 0.4565 0.61781 0.05368 0.0
C2443 C 0.48988 0.63155 0.04754 0.0
C2444 C 0.4921 0.6478 0.03681 0.0
C2445 C 0.4602 0.65176 0.03257 0.0
C2446 C 0.42686 0.63993 0.03911 0.0
C2447 C 0.4246 0.6212 0.04954 0.0
H2448 H 0.13292 0.62585 0.57889 0.0
H2449 H 0.08338 0.67597 0.55532 0.0
H2450 H 0.12421 0.67229 0.54006 0.0
H2451 H 0.22833 0.6801 0.57105 0.0
H2452 H 0.23884 0.6394 0.57272 0.0
H2453 H 0.20157 0.64084 0.58084 0.0
H2454 H 0.15093 0.56758 0.57269 0.0
H2455 H 0.18817 0.56634 0.56438 0.0
H2456 H 0.14263 0.55697 0.55739 0.0
H2457 H 0.17916 0.67295 0.52841 0.0
H2458 H 0.24219 0.68006 0.52233 0.0
H2459 H 0.25201 0.62615 0.55336 0.0
C2460 C 0.13026 0.63556 0.57048 0.0
C2461 C 0.10517 0.65143 0.5683 0.0
C2462 C 0.10226 0.66348 0.55714 0.0
C2463 C 0.1253 0.6614 0.54843 0.0
C2464 C 0.15043 0.64629 0.55095 0.0
C2465 C 0.15254 0.63315 0.56171 0.0
C2466 C 0.18381 0.62122 0.56268 0.0
C2467 C 0.21497 0.64694 0.57238 0.0
C2468 C 0.16526 0.57529 0.56438 0.0
C2469 C 0.20055 0.63162 0.55099 0.0
C2470 C 0.18067 0.64541 0.5442 0.0
C2471 C 0.19419 0.66115 0.53355 0.0
C2472 C 0.22979 0.66469 0.53006 0.0
C2473 C 0.25135 0.65277 0.53727 0.0
C2474 C 0.2354 0.63432 0.54755 0.0
H2475 H 0.36735 0.4787 0.58572 0.0
H2476 H 0.45921 0.46725 0.56951 0.0
H2477 H 0.4673 0.52003 0.55614 0.0
H2478 H 0.32311 0.49156 0.56043 0.0
H2479 H 0.31257 0.52805 0.56726 0.0
H2480 H 0.31511 0.49021 0.57555 0.0
H2481 H 0.36817 0.54725 0.58956 0.0
H2482 H 0.36551 0.58522 0.58136 0.0
H2483 H 0.41215 0.58786 0.584 0.0
H2484 H 0.46273 0.57451 0.54376 0.0
H2485 H 0.4489 0.62588 0.53528 0.0
H2486 H 0.36096 0.59936 0.5602 0.0
C2487 C 0.38942 0.48738 0.57943 0.0
C2488 C 0.41264 0.4687 0.57873 0.0
C2489 C 0.44115 0.48121 0.57031 0.0
C2490 C 0.44583 0.5111 0.56262 0.0
C2491 C 0.42197 0.52851 0.56345 0.0
C2492 C 0.39459 0.51717 0.57176 0.0
C2493 C 0.37254 0.54018 0.57107 0.0
C2494 C 0.32822 0.51074 0.56842 0.0
C2495 C 0.38006 0.5667 0.58215 0.0
C2496 C 0.39149 0.56618 0.56107 0.0
C2497 C 0.41986 0.55925 0.55665 0.0
C2498 C 0.44064 0.58016 0.54724 0.0
C2499 C 0.43254 0.60917 0.54242 0.0
C2500 C 0.40413 0.61715 0.54709 0.0
C2501 C 0.38331 0.5947 0.55644 0.0
H2502 H 0.62939 0.96177 0.5635 0.0
H2503 H 0.56849 0.0071 0.58425 0.0
H2504 H 0.50547 0.95771 0.57376 0.0
H2505 H 0.57024 0.94107 0.53668 0.0
H2506 H 0.57091 0.89491 0.53299 0.0
H2507 H 0.61159 0.93602 0.54141 0.0
H2508 H 0.60326 0.88687 0.55737 0.0
H2509 H 0.56321 0.84561 0.54888 0.0
H2510 H 0.55584 0.85751 0.56332 0.0
H2511 H 0.4486 0.90071 0.56168 0.0
H2512 H 0.40198 0.83557 0.55103 0.0
H2513 H 0.49959 0.82678 0.53826 0.0
C2514 C 0.60287 0.96163 0.56579 0.0
C2515 C 0.60398 0.98858 0.57468 0.0
C2516 C 0.56844 0.98681 0.57751 0.0
C2517 C 0.53256 0.95909 0.57151 0.0
C2518 C 0.53262 0.93323 0.56272 0.0
C2519 C 0.56684 0.93395 0.55997 0.0
C2520 C 0.5586 0.90074 0.55086 0.0
C2521 C 0.57906 0.91931 0.53983 0.0
C2522 C 0.57094 0.87092 0.55538 0.0
C2523 C 0.5142 0.88051 0.54904 0.0
C2524 C 0.49989 0.90026 0.5558 0.0
C2525 C 0.45958 0.88552 0.55622 0.0
C2526 C 0.43327 0.84874 0.55002 0.0
C2527 C 0.44722 0.82703 0.54349 0.0
C2528 C 0.48822 0.84378 0.54274 0.0
H2529 H 0.3775 0.42891 0.28601 0.0
H2530 H 0.25611 0.36511 0.27252 0.0
H2531 H 0.24383 0.41352 0.28398 0.0
H2532 H 0.36109 0.45277 0.31455 0.0
H2533 H 0.40467 0.50272 0.31564 0.0
H2534 H 0.40331 0.46243 0.30667 0.0
H2535 H 0.42063 0.50737 0.28914 0.0
H2536 H 0.42303 0.54806 0.29814 0.0
H2537 H 0.39101 0.52961 0.2853 0.0
H2538 H 0.24577 0.47076 0.29723 0.0
H2539 H 0.26418 0.53547 0.30836 0.0
H2540 H 0.38422 0.56101 0.31264 0.0
C2541 C 0.34827 0.42506 0.28543 0.0
C2542 C 0.31773 0.39309 0.27836 0.0
C2543 C 0.28006 0.3895 0.2778 0.0
C2544 C 0.27275 0.41664 0.28438 0.0
C2545 C 0.30345 0.4474 0.29145 0.0
C2546 C 0.34065 0.45202 0.29182 0.0
C2547 C 0.3694 0.48876 0.29951 0.0
C2548 C 0.38556 0.47588 0.3097 0.0
C2549 C 0.40298 0.52031 0.29261 0.0
C2550 C 0.34278 0.50439 0.30342 0.0
C2551 C 0.30465 0.47994 0.29885 0.0
C2552 C 0.27545 0.48975 0.30094 0.0
C2553 C 0.28595 0.52624 0.30741 0.0
C2554 C 0.32527 0.55246 0.31168 0.0
C2555 C 0.35362 0.54073 0.30984 0.0
H2556 H 0.60871 0.83182 0.27671 0.0
H2557 H 0.65305 0.94397 0.29777 0.0
H2558 H 0.61319 0.90442 0.31358 0.0
H2559 H 0.51245 0.78656 0.2844 0.0
H2560 H 0.50447 0.7354 0.28417 0.0
H2561 H 0.54068 0.77246 0.27545 0.0
H2562 H 0.59363 0.75945 0.28494 0.0
H2563 H 0.55746 0.7228 0.29387 0.0
H2564 H 0.60211 0.76548 0.30031 0.0
H2565 H 0.56001 0.8525 0.32607 0.0
H2566 H 0.49839 0.79556 0.33298 0.0
H2567 H 0.49204 0.71796 0.30407 0.0
C2568 C 0.61046 0.84809 0.28469 0.0
C2569 C 0.63406 0.8911 0.28595 0.0
C2570 C 0.63557 0.91104 0.2966 0.0
C2571 C 0.613 0.88875 0.30565 0.0
C2572 C 0.58953 0.84634 0.30404 0.0
C2573 C 0.5885 0.8263 0.29381 0.0
C2574 C 0.55874 0.78113 0.29378 0.0
C2575 C 0.52723 0.76816 0.28387 0.0
C2576 C 0.57922 0.75572 0.29319 0.0
C2577 C 0.54174 0.77899 0.30535 0.0
C2578 C 0.56016 0.81667 0.31129 0.0
C2579 C 0.54613 0.82267 0.32162 0.0
C2580 C 0.51137 0.79002 0.3256 0.0
C2581 C 0.49106 0.75209 0.31921 0.0
C2582 C 0.50773 0.74625 0.30931 0.0
H2583 H 0.18461 0.72861 0.26873 0.0
H2584 H 0.10741 0.71951 0.29553 0.0
H2585 H 0.15676 0.72424 0.31015 0.0
H2586 H 0.21737 0.6667 0.28064 0.0
H2587 H 0.26686 0.69638 0.27606 0.0
H2588 H 0.22677 0.69587 0.26808 0.0
H2589 H 0.26276 0.77494 0.27045 0.0
H2590 H 0.30283 0.7756 0.27856 0.0
H2591 H 0.27753 0.79974 0.28462 0.0
H2592 H 0.21391 0.72401 0.32182 0.0
H2593 H 0.27032 0.71657 0.32876 0.0
H2594 H 0.30901 0.72773 0.29408 0.0
C2595 C 0.17801 0.72772 0.27766 0.0
C2596 C 0.14197 0.72358 0.28094 0.0
C2597 C 0.13492 0.72305 0.29278 0.0
C2598 C 0.16282 0.72569 0.30116 0.0
C2599 C 0.19796 0.72938 0.2976 0.0
C2600 C 0.20554 0.73061 0.2861 0.0
C2601 C 0.24443 0.73279 0.28433 0.0
C2602 C 0.23848 0.69573 0.27684 0.0
C2603 C 0.27361 0.77318 0.27919 0.0
C2604 C 0.25714 0.73136 0.29658 0.0
C2605 C 0.23038 0.72982 0.3042 0.0
C2606 C 0.23525 0.72575 0.31591 0.0
C2607 C 0.26752 0.72182 0.31982 0.0
C2608 C 0.2942 0.72168 0.31199 0.0
C2609 C 0.28933 0.72789 0.30032 0.0
loop_
_geom_bond_atom_site_label_1
_geom_bond_atom_site_label_2
_geom_bond_distance
_geom_bond_site_symmetry_2
_ccdc_geom_bond_type
Cu0 N1 1.999 . S
Cu0 O6 1.974 . S
Cu0 N11 1.985 . S
Cu0 O20 1.959 1_545 S
N1 Cu0 1.999 . S
N1 C3 1.263 . S
N1 C5 1.389 . S
N2 C3 1.358 . S
N2 C4 1.400 . S
C3 N1 1.263 . S
C3 N2 1.358 . S
C3 H9 0.930 . S
C4 N2 1.400 . S
C4 C5 1.351 . S
C4 H21 0.930 . S
C5 N1 1.389 . S
C5 C4 1.351 . S
C5 H10 0.930 1_545 S
O6 Cu0 1.974 . S
O6 C16 1.282 . S
C7 O8 1.261 . S
C7 O20 1.251 1_545 S
O8 C7 1.261 . S
H9 C3 0.930 . S
H10 C5 0.930 1_565 S
N11 Cu0 1.985 . S
N11 C13 1.335 1_545 S
N11 C14 1.390 . S
N12 C13 1.345 . S
N12 C15 1.336 1_565 S
C13 N11 1.335 1_565 S
C13 N12 1.345 . S
C13 H18 0.930 . S
C14 N11 1.390 . S
C14 C15 1.346 . S
C14 H19 0.930 . S
C15 N12 1.336 1_545 S
C15 C14 1.346 . S
C15 H22 0.929 . S
C16 O6 1.282 . S
C16 O17 1.216 . S
O17 C16 1.216 . S
H18 C13 0.930 . S
H19 C14 0.930 . S
O20 Cu0 1.959 1_565 S
O20 C7 1.251 1_565 S
H21 C4 0.930 . S
H22 C15 0.929 . S
Cu23 N24 1.999 . S
Cu23 O29 1.974 . S
Cu23 N34 1.985 . S
Cu23 O43 1.959 . S
N24 Cu23 1.999 . S
N24 C26 1.263 1_455 S
N24 C28 1.389 . S
N25 C26 1.358 . S
N25 C27 1.400 1_655 S
C26 N24 1.263 1_655 S
C26 N25 1.358 . S
C26 H32 0.930 . S
C27 N25 1.400 1_455 S
C27 C28 1.351 . S
C27 H44 0.930 . S
C28 N24 1.389 . S
C28 C27 1.351 . S
C28 H33 0.930 . S
O29 Cu23 1.974 . S
O29 C39 1.282 1_455 S
C30 O31 1.261 1_455 S
C30 O43 1.251 . S
O31 C30 1.261 1_655 S
H32 C26 0.930 . S
H33 C28 0.930 . S
N34 Cu23 1.985 . S
N34 C36 1.335 . S
N34 C37 1.390 . S
N35 C36 1.345 . S
N35 C38 1.336 . S
C36 N34 1.335 . S
C36 N35 1.345 . S
C36 H41 0.930 . S
C37 N34 1.390 . S
C37 C38 1.346 . S
C37 H42 0.930 . S
C38 N35 1.336 . S
C38 C37 1.346 . S
C38 H45 0.929 . S
C39 O29 1.282 1_655 S
C39 O40 1.216 . S
O40 C39 1.216 . S
H41 C36 0.930 . S
H42 C37 0.930 . S
O43 Cu23 1.959 . S
O43 C30 1.251 . S
H44 C27 0.930 . S
H45 C38 0.929 . S
Cu46 N47 1.999 . S
Cu46 O52 1.974 . S
Cu46 N57 1.985 . S
Cu46 O66 1.959 . S
N47 Cu46 1.999 . S
N47 C49 1.263 . S
N47 C51 1.389 . S
N48 C49 1.358 . S
N48 C50 1.400 . S
C49 N47 1.263 . S
C49 N48 1.358 . S
C49 H55 0.930 . S
C50 N48 1.400 . S
C50 C51 1.351 . S
C50 H67 0.930 . S
C51 N47 1.389 . S
C51 C50 1.351 . S
C51 H56 0.930 . S
O52 Cu46 1.974 . S
O52 C62 1.282 . S
C53 O54 1.261 . S
C53 O66 1.251 . S
O54 C53 1.261 . S
H55 C49 0.930 . S
H56 C51 0.930 . S
N57 Cu46 1.985 . S
N57 C59 1.335 . S
N57 C60 1.390 . S
N58 C59 1.345 . S
N58 C61 1.336 . S
C59 N57 1.335 . S
C59 N58 1.345 . S
C59 H64 0.930 . S
C60 N57 1.390 . S
C60 C61 1.346 . S
C60 H65 0.930 . S
C61 N58 1.336 . S
C61 C60 1.346 . S
C61 H68 0.929 . S
C62 O52 1.282 . S
C62 O63 1.216 . S
O63 C62 1.216 . S
H64 C59 0.930 . S
H65 C60 0.930 . S
O66 Cu46 1.959 . S
O66 C53 1.251 . S
H67 C50 0.930 . S
H68 C61 0.929 . S
Cu69 N70 1.999 . S
Cu69 O75 1.974 . S
Cu69 N80 1.985 . S
Cu69 O89 1.959 . S
N70 Cu69 1.999 . S
N70 C72 1.263 1_545 S
N70 C74 1.389 . S
N71 C72 1.358 . S
N71 C73 1.400 1_565 S
C72 N70 1.263 1_565 S
C72 N71 1.358 . S
C72 H78 0.930 . S
C73 N71 1.400 1_545 S
C73 C74 1.351 . S
C73 H90 0.930 . S
C74 N70 1.389 . S
C74 C73 1.351 . S
C74 H79 0.930 . S
O75 Cu69 1.974 . S
O75 C85 1.282 1_545 S
C76 O77 1.261 1_545 S
C76 O89 1.251 . S
O77 C76 1.261 1_565 S
H78 C72 0.930 . S
H79 C74 0.930 . S
N80 Cu69 1.985 . S
N80 C82 1.335 . S
N80 C83 1.390 . S
N81 C82 1.345 . S
N81 C84 1.336 . S
C82 N80 1.335 . S
C82 N81 1.345 . S
C82 H87 0.930 . S
C83 N80 1.390 . S
C83 C84 1.346 . S
C83 H88 0.930 . S
C84 N81 1.336 . S
C84 C83 1.346 . S
C84 H91 0.929 . S
C85 O75 1.282 1_565 S
C85 O86 1.216 . S
O86 C85 1.216 . S
H87 C82 0.930 . S
H88 C83 0.930 . S
O89 Cu69 1.959 . S
O89 C76 1.251 . S
H90 C73 0.930 . S
H91 C84 0.929 . S
Cu92 N93 1.999 . S
Cu92 O98 1.974 . S
Cu92 N103 1.985 . S
Cu92 O112 1.959 1_455 S
N93 Cu92 1.999 . S
N93 C95 1.263 . S
N93 C97 1.389 . S
N94 C95 1.358 . S
N94 C96 1.400 . S
C95 N93 1.263 . S
C95 N94 1.358 . S
C95 H101 0.930 . S
C96 N94 1.400 . S
C96 C97 1.351 . S
C96 H113 0.930 . S
C97 N93 1.389 . S
C97 C96 1.351 . S
C97 H102 0.930 1_455 S
O98 Cu92 1.974 . S
O98 C108 1.282 . S
C99 O100 1.261 . S
C99 O112 1.251 1_455 S
O100 C99 1.261 . S
H101 C95 0.930 . S
H102 C97 0.930 1_655 S
N103 Cu92 1.985 . S
N103 C105 1.335 1_455 S
N103 C106 1.390 . S
N104 C105 1.345 . S
N104 C107 1.336 1_655 S
C105 N103 1.335 1_655 S
C105 N104 1.345 . S
C105 H110 0.930 . S
C106 N103 1.390 . S
C106 C107 1.346 . S
C106 H111 0.930 . S
C107 N104 1.336 1_455 S
C107 C106 1.346 . S
C107 H114 0.929 . S
C108 O98 1.282 . S
C108 O109 1.216 . S
O109 C108 1.216 . S
H110 C105 0.930 . S
H111 C106 0.930 . S
O112 Cu92 1.959 1_655 S
O112 C99 1.251 1_655 S
H113 C96 0.930 . S
H114 C107 0.929 . S
Cu115 N116 1.999 . S
Cu115 O121 1.974 . S
Cu115 N126 1.985 . S
Cu115 O135 1.959 . S
N116 Cu115 1.999 . S
N116 C118 1.263 . S
N116 C120 1.389 . S
N117 C118 1.358 . S
N117 C119 1.400 . S
C118 N116 1.263 . S
C118 N117 1.358 . S
C118 H124 0.930 . S
C119 N117 1.400 . S
C119 C120 1.351 . S
C119 H136 0.930 . S
C120 N116 1.389 . S
C120 C119 1.351 . S
C120 H125 0.930 . S
O121 Cu115 1.974 . S
O121 C131 1.282 . S
C122 O123 1.261 . S
C122 O135 1.251 . S
O123 C122 1.261 . S
H124 C118 0.930 . S
H125 C120 0.930 . S
N126 Cu115 1.985 . S
N126 C128 1.335 . S
N126 C129 1.390 . S
N127 C128 1.345 . S
N127 C130 1.336 . S
C128 N126 1.335 . S
C128 N127 1.345 . S
C128 H133 0.930 . S
C129 N126 1.390 . S
C129 C130 1.346 . S
C129 H134 0.930 . S
C130 N127 1.336 . S
C130 C129 1.346 . S
C130 H137 0.929 . S
C131 O121 1.282 . S
C131 O132 1.216 . S
O132 C131 1.216 . S
H133 C128 0.930 . S
H134 C129 0.930 . S
O135 Cu115 1.959 . S
O135 C122 1.251 . S
H136 C119 0.930 . S
H137 C130 0.929 . S
Cu138 N139 1.999 . S
Cu138 O144 1.974 . S
Cu138 N149 1.985 . S
Cu138 O158 1.959 . S
N139 Cu138 1.999 . S
N139 C141 1.263 . S
N139 C143 1.389 . S
N140 C141 1.358 . S
N140 C142 1.400 . S
C141 N139 1.263 . S
C141 N140 1.358 . S
C141 H147 0.930 . S
C142 N140 1.400 . S
C142 C143 1.351 . S
C142 H159 0.930 . S
C143 N139 1.389 . S
C143 C142 1.351 . S
C143 H148 0.930 . S
O144 Cu138 1.974 . S
O144 C154 1.282 . S
C145 O146 1.261 . S
C145 O158 1.251 . S
O146 C145 1.261 . S
H147 C141 0.930 . S
H148 C143 0.930 . S
N149 Cu138 1.985 . S
N149 C151 1.335 . S
N149 C152 1.390 . S
N150 C151 1.345 . S
N150 C153 1.336 . S
C151 N149 1.335 . S
C151 N150 1.345 . S
C151 H156 0.930 . S
C152 N149 1.390 . S
C152 C153 1.346 . S
C152 H157 0.930 . S
C153 N150 1.336 . S
C153 C152 1.346 . S
C153 H160 0.929 . S
C154 O144 1.282 . S
C154 O155 1.216 . S
O155 C154 1.216 . S
H156 C151 0.930 . S
H157 C152 0.930 . S
O158 Cu138 1.959 . S
O158 C145 1.251 . S
H159 C142 0.930 . S
H160 C153 0.929 . S
Cu161 N162 1.999 . S
Cu161 O167 1.974 . S
Cu161 N172 1.985 . S
Cu161 O181 1.959 . S
N162 Cu161 1.999 . S
N162 C164 1.263 . S
N162 C166 1.389 . S
N163 C164 1.358 . S
N163 C165 1.400 . S
C164 N162 1.263 . S
C164 N163 1.358 . S
C164 H170 0.930 . S
C165 N163 1.400 . S
C165 C166 1.351 . S
C165 H182 0.930 . S
C166 N162 1.389 . S
C166 C165 1.351 . S
C166 H171 0.930 . S
O167 Cu161 1.974 . S
O167 C177 1.282 . S
C168 O169 1.261 . S
C168 O181 1.251 . S
O169 C168 1.261 . S
H170 C164 0.930 . S
H171 C166 0.930 . S
N172 Cu161 1.985 . S
N172 C174 1.335 . S
N172 C175 1.390 . S
N173 C174 1.345 . S
N173 C176 1.336 1_545 S
C174 N172 1.335 . S
C174 N173 1.345 . S
C174 H179 0.930 . S
C175 N172 1.390 . S
C175 C176 1.346 1_545 S
C175 H180 0.930 1_545 S
C176 N173 1.336 1_565 S
C176 C175 1.346 1_565 S
C176 H183 0.929 . S
C177 O167 1.282 . S
C177 O178 1.216 1_545 S
O178 C177 1.216 1_565 S
H179 C174 0.930 . S
H180 C175 0.930 1_565 S
O181 Cu161 1.959 . S
O181 C168 1.251 . S
H182 C165 0.930 . S
H183 C176 0.929 . S
Cu184 N185 1.999 . S
Cu184 O190 1.974 . S
Cu184 N195 1.985 1_655 S
Cu184 O204 1.959 . S
N185 Cu184 1.999 . S
N185 C187 1.263 . S
N185 C189 1.389 . S
N186 C187 1.358 . S
N186 C188 1.400 . S
C187 N185 1.263 . S
C187 N186 1.358 . S
C187 H193 0.930 . S
C188 N186 1.400 . S
C188 C189 1.351 . S
C188 H205 0.930 . S
C189 N185 1.389 . S
C189 C188 1.351 . S
C189 H194 0.930 . S
O190 Cu184 1.974 . S
O190 C200 1.282 . S
C191 O192 1.261 . S
C191 O204 1.251 . S
O192 C191 1.261 . S
H193 C187 0.930 . S
H194 C189 0.930 . S
N195 Cu184 1.985 1_455 S
N195 C197 1.335 . S
N195 C198 1.390 . S
N196 C197 1.345 . S
N196 C199 1.336 . S
C197 N195 1.335 . S
C197 N196 1.345 . S
C197 H202 0.930 . S
C198 N195 1.390 . S
C198 C199 1.346 . S
C198 H203 0.930 . S
C199 N196 1.336 . S
C199 C198 1.346 . S
C199 H206 0.929 . S
C200 O190 1.282 . S
C200 O201 1.216 . S
O201 C200 1.216 . S
H202 C197 0.930 . S
H203 C198 0.930 . S
O204 Cu184 1.959 . S
O204 C191 1.251 . S
H205 C188 0.930 . S
H206 C199 0.929 . S
Cu207 N208 1.999 . S
Cu207 O213 1.974 . S
Cu207 N218 1.985 1_655 S
Cu207 O227 1.959 . S
N208 Cu207 1.999 . S
N208 C210 1.263 . S
N208 C212 1.389 . S
N209 C210 1.358 . S
N209 C211 1.400 . S
C210 N208 1.263 . S
C210 N209 1.358 . S
C210 H216 0.930 . S
C211 N209 1.400 . S
C211 C212 1.351 . S
C211 H228 0.930 . S
C212 N208 1.389 . S
C212 C211 1.351 . S
C212 H217 0.930 . S
O213 Cu207 1.974 . S
O213 C223 1.282 . S
C214 O215 1.261 . S
C214 O227 1.251 . S
O215 C214 1.261 . S
H216 C210 0.930 . S
H217 C212 0.930 . S
N218 Cu207 1.985 1_455 S
N218 C220 1.335 . S
N218 C221 1.390 . S
N219 C220 1.345 . S
N219 C222 1.336 . S
C220 N218 1.335 . S
C220 N219 1.345 . S
C220 H225 0.930 . S
C221 N218 1.390 . S
C221 C222 1.346 . S
C221 H226 0.930 . S
C222 N219 1.336 . S
C222 C221 1.346 . S
C222 H229 0.929 . S
C223 O213 1.282 . S
C223 O224 1.216 . S
O224 C223 1.216 . S
H225 C220 0.930 . S
H226 C221 0.930 . S
O227 Cu207 1.959 . S
O227 C214 1.251 . S
H228 C211 0.930 . S
H229 C222 0.929 . S
Cu230 N231 1.999 . S
Cu230 O236 1.974 . S
Cu230 N241 1.985 . S
Cu230 O250 1.959 . S
N231 Cu230 1.999 . S
N231 C233 1.263 . S
N231 C235 1.389 . S
N232 C233 1.358 . S
N232 C234 1.400 . S
C233 N231 1.263 . S
C233 N232 1.358 . S
C233 H239 0.930 . S
C234 N232 1.400 . S
C234 C235 1.351 . S
C234 H251 0.930 . S
C235 N231 1.389 . S
C235 C234 1.351 . S
C235 H240 0.930 . S
O236 Cu230 1.974 . S
O236 C246 1.282 . S
C237 O238 1.261 . S
C237 O250 1.251 . S
O238 C237 1.261 . S
H239 C233 0.930 . S
H240 C235 0.930 . S
N241 Cu230 1.985 . S
N241 C243 1.335 . S
N241 C244 1.390 . S
N242 C243 1.345 . S
N242 C245 1.336 . S
C243 N241 1.335 . S
C243 N242 1.345 . S
C243 H248 0.930 . S
C244 N241 1.390 . S
C244 C245 1.346 . S
C244 H249 0.930 . S
C245 N242 1.336 . S
C245 C244 1.346 . S
C245 H252 0.929 . S
C246 O236 1.282 . S
C246 O247 1.216 . S
O247 C246 1.216 . S
H248 C243 0.930 . S
H249 C244 0.930 . S
O250 Cu230 1.959 . S
O250 C237 1.251 . S
H251 C234 0.930 . S
H252 C245 0.929 . S
Cu253 N254 1.999 . S
Cu253 O259 1.974 . S
Cu253 N264 1.985 . S
Cu253 O273 1.959 . S
N254 Cu253 1.999 . S
N254 C256 1.263 . S
N254 C258 1.389 . S
N255 C256 1.358 . S
N255 C257 1.400 . S
C256 N254 1.263 . S
C256 N255 1.358 . S
C256 H262 0.930 . S
C257 N255 1.400 . S
C257 C258 1.351 . S
C257 H274 0.930 . S
C258 N254 1.389 . S
C258 C257 1.351 . S
C258 H263 0.930 . S
O259 Cu253 1.974 . S
O259 C269 1.282 1_545 S
C260 O261 1.261 . S
C260 O273 1.251 . S
O261 C260 1.261 . S
H262 C256 0.930 . S
H263 C258 0.930 . S
N264 Cu253 1.985 . S
N264 C266 1.335 . S
N264 C267 1.390 1_545 S
N265 C266 1.345 . S
N265 C268 1.336 1_545 S
C266 N264 1.335 . S
C266 N265 1.345 . S
C266 H271 0.930 . S
C267 N264 1.390 1_565 S
C267 C268 1.346 . S
C267 H272 0.930 . S
C268 N265 1.336 1_565 S
C268 C267 1.346 . S
C268 H275 0.929 . S
C269 O259 1.282 1_565 S
C269 O270 1.216 . S
O270 C269 1.216 . S
H271 C266 0.930 . S
H272 C267 0.930 . S
O273 Cu253 1.959 . S
O273 C260 1.251 . S
H274 C257 0.930 . S
H275 C268 0.929 . S
Cu276 N277 1.999 . S
Cu276 O282 1.974 . S
Cu276 N287 1.985 . S
Cu276 O296 1.959 . S
N277 Cu276 1.999 . S
N277 C279 1.263 . S
N277 C281 1.389 . S
N278 C279 1.358 . S
N278 C280 1.400 . S
C279 N277 1.263 . S
C279 N278 1.358 . S
C279 H285 0.930 . S
C280 N278 1.400 . S
C280 C281 1.351 . S
C280 H297 0.930 . S
C281 N277 1.389 . S
C281 C280 1.351 . S
C281 H286 0.930 . S
O282 Cu276 1.974 . S
O282 C292 1.282 . S
C283 O284 1.261 . S
C283 O296 1.251 . S
O284 C283 1.261 . S
H285 C279 0.930 . S
H286 C281 0.930 . S
N287 Cu276 1.985 . S
N287 C289 1.335 . S
N287 C290 1.411 . S
N288 C289 1.345 1_655 S
N288 C291 1.336 . S
C289 N287 1.335 . S
C289 N288 1.345 1_455 S
C289 H294 0.930 . S
C290 N287 1.411 . S
C290 C291 1.334 1_455 S
C290 H295 0.923 . S
C291 N288 1.336 . S
C291 C290 1.334 1_655 S
C291 H298 0.929 . S
C292 O282 1.282 . S
C292 O293 1.216 . S
O293 C292 1.216 . S
H294 C289 0.930 . S
H295 C290 0.923 . S
O296 Cu276 1.959 . S
O296 C283 1.251 . S
H297 C280 0.930 . S
H298 C291 0.929 . S
Cu299 N300 1.999 . S
Cu299 O305 1.974 . S
Cu299 N310 1.985 . S
Cu299 O319 1.959 . S
N300 Cu299 1.999 . S
N300 C302 1.263 . S
N300 C304 1.389 . S
N301 C302 1.358 . S
N301 C303 1.400 . S
C302 N300 1.263 . S
C302 N301 1.358 . S
C302 H308 0.930 . S
C303 N301 1.400 . S
C303 C304 1.351 . S
C303 H320 0.930 . S
C304 N300 1.389 . S
C304 C303 1.351 . S
C304 H309 0.930 . S
O305 Cu299 1.974 . S
O305 C315 1.282 . S
C306 O307 1.261 . S
C306 O319 1.251 . S
O307 C306 1.261 . S
H308 C302 0.930 . S
H309 C304 0.930 . S
N310 Cu299 1.985 . S
N310 C312 1.335 . S
N310 C313 1.390 . S
N311 C312 1.345 . S
N311 C314 1.336 . S
C312 N310 1.335 . S
C312 N311 1.345 . S
C312 H317 0.930 . S
C313 N310 1.390 . S
C313 C314 1.346 . S
C313 H318 0.930 . S
C314 N311 1.336 . S
C314 C313 1.346 . S
C314 H321 0.929 . S
C315 O305 1.282 . S
C315 O316 1.216 . S
O316 C315 1.216 . S
H317 C312 0.930 . S
H318 C313 0.930 . S
O319 Cu299 1.959 . S
O319 C306 1.251 . S
H320 C303 0.930 . S
H321 C314 0.929 . S
Cu322 N323 1.999 . S
Cu322 O328 1.974 1_565 S
Cu322 N333 1.985 1_565 S
Cu322 O342 1.959 . S
N323 Cu322 1.999 . S
N323 C325 1.263 . S
N323 C327 1.389 . S
N324 C325 1.358 . S
N324 C326 1.400 . S
C325 N323 1.263 . S
C325 N324 1.358 . S
C325 H331 0.930 . S
C326 N324 1.400 . S
C326 C327 1.351 . S
C326 H343 0.930 . S
C327 N323 1.389 . S
C327 C326 1.351 . S
C327 H332 0.930 . S
O328 Cu322 1.974 1_545 S
O328 C338 1.282 . S
C329 O330 1.261 . S
C329 O342 1.251 . S
O330 C329 1.261 . S
H331 C325 0.930 . S
H332 C327 0.930 . S
N333 Cu322 1.985 1_545 S
N333 C335 1.335 1_545 S
N333 C336 1.390 . S
N334 C335 1.345 1_545 S
N334 C337 1.336 . S
C335 N333 1.335 1_565 S
C335 N334 1.345 1_565 S
C335 H340 0.930 . S
C336 N333 1.390 . S
C336 C337 1.346 . S
C336 H341 0.930 . S
C337 N334 1.336 . S
C337 C336 1.346 . S
C337 H344 0.929 . S
C338 O328 1.282 . S
C338 O339 1.216 . S
O339 C338 1.216 . S
H340 C335 0.930 . S
H341 C336 0.930 . S
O342 Cu322 1.959 . S
O342 C329 1.251 . S
H343 C326 0.930 . S
H344 C337 0.929 . S
Cu345 N346 1.999 . S
Cu345 O351 1.974 . S
Cu345 N356 1.985 . S
Cu345 O365 1.959 . S
N346 Cu345 1.999 . S
N346 C348 1.263 . S
N346 C350 1.389 . S
N347 C348 1.358 . S
N347 C349 1.400 . S
C348 N346 1.263 . S
C348 N347 1.358 . S
C348 H354 0.930 . S
C349 N347 1.400 . S
C349 C350 1.351 . S
C349 H366 0.930 . S
C350 N346 1.389 . S
C350 C349 1.351 . S
C350 H355 0.930 . S
O351 Cu345 1.974 . S
O351 C361 1.282 . S
C352 O353 1.261 . S
C352 O365 1.251 . S
O353 C352 1.261 . S
H354 C348 0.930 . S
H355 C350 0.930 . S
N356 Cu345 1.985 . S
N356 C358 1.335 . S
N356 C359 1.390 . S
N357 C358 1.345 . S
N357 C360 1.336 . S
C358 N356 1.335 . S
C358 N357 1.345 . S
C358 H363 0.930 . S
C359 N356 1.390 . S
C359 C360 1.346 . S
C359 H364 0.930 . S
C360 N357 1.336 . S
C360 C359 1.346 . S
C360 H367 0.929 . S
C361 O351 1.282 . S
C361 O362 1.216 . S
O362 C361 1.216 . S
H363 C358 0.930 . S
H364 C359 0.930 . S
O365 Cu345 1.959 . S
O365 C352 1.251 . S
H366 C349 0.930 . S
H367 C360 0.929 . S
Cu368 N369 1.999 . S
Cu368 O374 1.974 1_565 S
Cu368 N379 1.972 1_565 S
Cu368 O388 1.959 . S
N369 Cu368 1.999 . S
N369 C371 1.263 . S
N369 C373 1.389 . S
N370 C371 1.358 . S
N370 C372 1.400 . S
C371 N369 1.263 . S
C371 N370 1.358 . S
C371 H377 0.930 . S
C372 N370 1.400 . S
C372 C373 1.351 . S
C372 H389 0.930 . S
C373 N369 1.389 . S
C373 C372 1.351 . S
C373 H378 0.930 . S
O374 Cu368 1.974 1_545 S
O374 C384 1.282 . S
C375 O376 1.261 . S
C375 O388 1.251 . S
O376 C375 1.261 . S
H377 C371 0.930 . S
H378 C373 0.930 . S
N379 Cu368 1.972 1_545 S
N379 C381 1.336 1_545 S
N379 C382 1.405 . S
N380 C381 1.345 1_545 S
N380 C383 1.336 . S
C381 N379 1.336 1_565 S
C381 N380 1.345 1_565 S
C381 H386 0.930 . S
C382 N379 1.405 . S
C382 C383 1.346 . S
C382 H387 0.930 . S
C383 N380 1.336 . S
C383 C382 1.346 . S
C383 H390 0.929 . S
C384 O374 1.282 . S
C384 O385 1.216 . S
O385 C384 1.216 . S
H386 C381 0.930 . S
H387 C382 0.930 . S
O388 Cu368 1.959 . S
O388 C375 1.251 . S
H389 C372 0.930 . S
H390 C383 0.929 . S
Cu391 N392 1.999 . S
Cu391 O397 1.974 . S
Cu391 N402 1.985 . S
Cu391 O411 1.959 . S
N392 Cu391 1.999 . S
N392 C394 1.263 . S
N392 C396 1.389 . S
N393 C394 1.358 . S
N393 C395 1.400 . S
C394 N392 1.263 . S
C394 N393 1.358 . S
C394 H400 0.930 . S
C395 N393 1.400 . S
C395 C396 1.351 . S
C395 H412 0.930 . S
C396 N392 1.389 . S
C396 C395 1.351 . S
C396 H401 0.930 . S
O397 Cu391 1.974 . S
O397 C407 1.282 . S
C398 O399 1.261 . S
C398 O411 1.251 . S
O399 C398 1.261 . S
H400 C394 0.930 . S
H401 C396 0.930 . S
N402 Cu391 1.985 . S
N402 C404 1.335 . S
N402 C405 1.390 1_455 S
N403 C404 1.345 1_655 S
N403 C406 1.336 . S
C404 N402 1.335 . S
C404 N403 1.345 1_455 S
C404 H409 0.930 . S
C405 N402 1.390 1_655 S
C405 C406 1.346 . S
C405 H410 0.930 . S
C406 N403 1.336 . S
C406 C405 1.346 . S
C406 H413 0.929 . S
C407 O397 1.282 . S
C407 O408 1.216 . S
O408 C407 1.216 . S
H409 C404 0.930 . S
H410 C405 0.930 . S
O411 Cu391 1.959 . S
O411 C398 1.251 . S
H412 C395 0.930 . S
H413 C406 0.929 . S
Zn414 O420 1.920 1_455 S
Zn414 O426 1.898 1_445 S
Zn414 O429 1.905 . S
Zn415 O423 1.905 1_545 S
Zn415 O424 1.898 . S
Zn415 O432 1.920 1_455 S
Zn416 O419 2.080 . S
Zn416 O422 2.114 1_545 S
Zn416 O425 2.120 . S
Zn416 O427 2.120 1_445 S
Zn416 O428 2.114 . S
Zn416 O431 2.080 1_455 S
C417 O422 1.166 . S
C417 O423 1.182 . S
C418 O424 1.167 . S
C418 O425 1.299 . S
O419 Zn416 2.080 . S
O419 C433 1.325 . S
O420 Zn414 1.920 1_655 S
O420 C433 1.239 1_655 S
C421 O426 1.167 . S
C421 O427 1.299 . S
O422 Zn416 2.114 1_565 S
O422 C417 1.166 . S
O423 Zn415 1.905 1_565 S
O423 C417 1.182 . S
O424 Zn415 1.898 . S
O424 C418 1.167 . S
O425 Zn416 2.120 . S
O425 C418 1.299 . S
O426 Zn414 1.898 1_665 S
O426 C421 1.167 . S
O427 Zn416 2.120 1_665 S
O427 C421 1.299 . S
O428 Zn416 2.114 . S
O428 C430 1.166 . S
O429 Zn414 1.905 . S
O429 C430 1.182 . S
C430 O428 1.166 . S
C430 O429 1.182 . S
O431 Zn416 2.080 1_655 S
O431 C434 1.305 . S
O432 Zn415 1.920 1_655 S
O432 C434 1.234 . S
C433 O419 1.325 . S
C433 O420 1.239 1_455 S
C434 O431 1.305 . S
C434 O432 1.234 . S
Zn435 O441 1.920 1_545 S
Zn435 O447 1.898 . S
Zn435 O450 1.905 1_455 S
Zn436 O444 1.905 . S
Zn436 O445 1.898 1_445 S
Zn436 O453 1.920 . S
Zn437 O440 2.080 1_545 S
Zn437 O443 2.114 . S
Zn437 O446 2.120 1_445 S
Zn437 O448 2.120 . S
Zn437 O449 2.114 1_455 S
Zn437 O452 2.080 . S
C438 O443 1.166 . S
C438 O444 1.182 . S
C439 O445 1.167 . S
C439 O446 1.299 . S
O440 Zn437 2.080 1_565 S
O440 C454 1.305 . S
O441 Zn435 1.920 1_565 S
O441 C454 1.234 . S
C442 O447 1.167 . S
C442 O448 1.299 . S
O443 Zn437 2.114 . S
O443 C438 1.166 . S
O444 Zn436 1.905 . S
O444 C438 1.182 . S
O445 Zn436 1.898 1_665 S
O445 C439 1.167 . S
O446 Zn437 2.120 1_665 S
O446 C439 1.299 . S
O447 Zn435 1.898 . S
O447 C442 1.167 . S
O448 Zn437 2.120 . S
O448 C442 1.299 . S
O449 Zn437 2.114 1_655 S
O449 C451 1.166 . S
O450 Zn435 1.905 1_655 S
O450 C451 1.182 . S
C451 O449 1.166 . S
C451 O450 1.182 . S
O452 Zn437 2.080 . S
O452 C455 1.305 . S
O453 Zn436 1.920 . S
O453 C455 1.234 . S
C454 O440 1.305 . S
C454 O441 1.234 . S
C455 O452 1.305 . S
C455 O453 1.234 . S
Zn456 O462 1.920 1_545 S
Zn456 O468 1.898 . S
Zn456 O471 1.905 1_445 S
Zn457 O465 1.905 . S
Zn457 O466 1.898 1_445 S
Zn457 O474 1.920 1_545 S
Zn458 O461 2.080 1_545 S
Zn458 O464 2.114 . S
Zn458 O467 2.120 1_445 S
Zn458 O469 2.120 . S
Zn458 O470 2.114 1_455 S
Zn458 O473 2.080 . S
C459 O464 1.166 . S
C459 O465 1.182 . S
C460 O466 1.167 . S
C460 O467 1.299 . S
O461 Zn458 2.080 1_565 S
O461 C475 1.305 . S
O462 Zn456 1.920 1_565 S
O462 C475 1.234 . S
C463 O468 1.167 . S
C463 O469 1.299 . S
O464 Zn458 2.114 . S
O464 C459 1.166 . S
O465 Zn457 1.905 . S
O465 C459 1.182 . S
O466 Zn457 1.898 1_665 S
O466 C460 1.167 . S
O467 Zn458 2.120 1_665 S
O467 C460 1.299 . S
O468 Zn456 1.898 . S
O468 C463 1.167 . S
O469 Zn458 2.120 . S
O469 C463 1.299 . S
O470 Zn458 2.114 1_655 S
O470 C472 1.166 . S
O471 Zn456 1.905 1_665 S
O471 C472 1.182 1_565 S
C472 O470 1.166 . S
C472 O471 1.182 1_545 S
O473 Zn458 2.080 . S
O473 C476 1.322 . S
O474 Zn457 1.920 1_565 S
O474 C476 1.237 1_565 S
C475 O461 1.305 . S
C475 O462 1.234 . S
C476 O473 1.322 . S
C476 O474 1.237 1_545 S
Zn477 O483 1.920 . S
Zn477 O489 1.898 1_445 S
Zn477 O492 1.905 . S
Zn478 O486 1.905 1_545 S
Zn478 O487 1.898 . S
Zn478 O495 1.920 1_455 S
Zn479 O482 2.080 . S
Zn479 O485 2.114 1_545 S
Zn479 O488 2.120 . S
Zn479 O490 2.120 1_445 S
Zn479 O491 2.114 . S
Zn479 O494 2.080 1_455 S
C480 O485 1.166 . S
C480 O486 1.182 . S
C481 O487 1.167 . S
C481 O488 1.299 . S
O482 Zn479 2.080 . S
O482 C496 1.305 . S
O483 Zn477 1.920 . S
O483 C496 1.234 . S
C484 O489 1.167 . S
C484 O490 1.299 . S
O485 Zn479 2.114 1_565 S
O485 C480 1.166 . S
O486 Zn478 1.905 1_565 S
O486 C480 1.182 . S
O487 Zn478 1.898 . S
O487 C481 1.167 . S
O488 Zn479 2.120 . S
O488 C481 1.299 . S
O489 Zn477 1.898 1_665 S
O489 C484 1.167 . S
O490 Zn479 2.120 1_665 S
O490 C484 1.299 . S
O491 Zn479 2.114 . S
O491 C493 1.166 . S
O492 Zn477 1.905 . S
O492 C493 1.182 . S
C493 O491 1.166 . S
C493 O492 1.182 . S
O494 Zn479 2.080 1_655 S
O494 C497 1.305 . S
O495 Zn478 1.920 1_655 S
O495 C497 1.234 . S
C496 O482 1.305 . S
C496 O483 1.234 . S
C497 O494 1.305 . S
C497 O495 1.234 . S
Zn498 O504 1.920 . S
Zn498 O510 1.898 . S
Zn498 O513 1.905 . S
Zn499 O507 1.905 . S
Zn499 O508 1.898 . S
Zn499 O516 1.920 . S
Zn500 O503 2.080 . S
Zn500 O506 2.114 . S
Zn500 O509 2.120 . S
Zn500 O511 2.120 . S
Zn500 O512 2.114 . S
Zn500 O515 2.080 . S
C501 O506 1.166 . S
C501 O507 1.182 . S
C502 O508 1.167 . S
C502 O509 1.299 . S
O503 Zn500 2.080 . S
O503 C517 1.305 . S
O504 Zn498 1.920 . S
O504 C517 1.234 . S
C505 O510 1.167 . S
C505 O511 1.299 . S
O506 Zn500 2.114 . S
O506 C501 1.166 . S
O507 Zn499 1.905 . S
O507 C501 1.182 . S
O508 Zn499 1.898 . S
O508 C502 1.167 . S
O509 Zn500 2.120 . S
O509 C502 1.299 . S
O510 Zn498 1.898 . S
O510 C505 1.167 . S
O511 Zn500 2.120 . S
O511 C505 1.299 . S
O512 Zn500 2.114 . S
O512 C514 1.166 . S
O513 Zn498 1.905 . S
O513 C514 1.182 . S
C514 O512 1.166 . S
C514 O513 1.182 . S
O515 Zn500 2.080 . S
O515 C518 1.305 . S
O516 Zn499 1.920 . S
O516 C518 1.234 . S
C517 O503 1.305 . S
C517 O504 1.234 . S
C518 O515 1.305 . S
C518 O516 1.234 . S
Zn519 O525 1.920 . S
Zn519 O531 1.898 . S
Zn519 O534 1.905 . S
Zn520 O528 1.905 . S
Zn520 O529 1.898 . S
Zn520 O537 1.920 . S
Zn521 O524 2.080 . S
Zn521 O527 2.114 . S
Zn521 O530 2.120 . S
Zn521 O532 2.120 . S
Zn521 O533 2.114 . S
Zn521 O536 2.080 . S
C522 O527 1.166 . S
C522 O528 1.182 . S
C523 O529 1.167 . S
C523 O530 1.299 . S
O524 Zn521 2.080 . S
O524 C538 1.305 . S
O525 Zn519 1.920 . S
O525 C538 1.234 . S
C526 O531 1.167 . S
C526 O532 1.299 . S
O527 Zn521 2.114 . S
O527 C522 1.166 . S
O528 Zn520 1.905 . S
O528 C522 1.182 . S
O529 Zn520 1.898 . S
O529 C523 1.167 . S
O530 Zn521 2.120 . S
O530 C523 1.299 . S
O531 Zn519 1.898 . S
O531 C526 1.167 . S
O532 Zn521 2.120 . S
O532 C526 1.299 . S
O533 Zn521 2.114 . S
O533 C535 1.166 . S
O534 Zn519 1.905 . S
O534 C535 1.182 . S
C535 O533 1.166 . S
C535 O534 1.182 . S
O536 Zn521 2.080 . S
O536 C539 1.305 . S
O537 Zn520 1.920 . S
O537 C539 1.234 . S
C538 O524 1.305 . S
C538 O525 1.234 . S
C539 O536 1.305 . S
C539 O537 1.234 . S
Zn540 O546 1.920 . S
Zn540 O552 1.898 . S
Zn540 O555 1.905 . S
Zn541 O549 1.905 . S
Zn541 O550 1.898 . S
Zn541 O558 1.920 . S
Zn542 O545 2.080 . S
Zn542 O548 2.114 . S
Zn542 O551 2.120 . S
Zn542 O553 2.120 . S
Zn542 O554 2.114 . S
Zn542 O557 2.080 . S
C543 O548 1.166 . S
C543 O549 1.182 . S
C544 O550 1.167 . S
C544 O551 1.299 . S
O545 Zn542 2.080 . S
O545 C559 1.305 . S
O546 Zn540 1.920 . S
O546 C559 1.234 . S
C547 O552 1.167 . S
C547 O553 1.299 . S
O548 Zn542 2.114 . S
O548 C543 1.166 . S
O549 Zn541 1.905 . S
O549 C543 1.182 . S
O550 Zn541 1.898 . S
O550 C544 1.167 . S
O551 Zn542 2.120 . S
O551 C544 1.299 . S
O552 Zn540 1.898 . S
O552 C547 1.167 . S
O553 Zn542 2.120 . S
O553 C547 1.299 . S
O554 Zn542 2.114 . S
O554 C556 1.166 . S
O555 Zn540 1.905 . S
O555 C556 1.182 . S
C556 O554 1.166 . S
C556 O555 1.182 . S
O557 Zn542 2.080 . S
O557 C560 1.305 . S
O558 Zn541 1.920 . S
O558 C560 1.234 . S
C559 O545 1.305 . S
C559 O546 1.234 . S
C560 O557 1.305 . S
C560 O558 1.234 . S
Zn561 O567 1.920 . S
Zn561 O573 1.898 . S
Zn561 O576 1.905 . S
Zn562 O570 1.905 . S
Zn562 O571 1.898 . S
Zn562 O579 1.920 . S
Zn563 O566 2.080 1_556 S
Zn563 O569 2.114 . S
Zn563 O572 2.120 . S
Zn563 O574 2.063 1_556 S
Zn563 O575 2.114 1_556 S
Zn563 O578 2.080 . S
C564 O569 1.166 . S
C564 O570 1.182 . S
C565 O571 1.167 . S
C565 O572 1.299 . S
O566 Zn563 2.080 1_554 S
O566 C580 1.305 . S
O567 Zn561 1.920 . S
O567 C580 1.234 . S
C568 O573 1.167 . S
C568 O574 1.376 . S
O569 Zn563 2.114 . S
O569 C564 1.166 . S
O570 Zn562 1.905 . S
O570 C564 1.182 . S
O571 Zn562 1.898 . S
O571 C565 1.167 . S
O572 Zn563 2.120 . S
O572 C565 1.299 . S
O573 Zn561 1.898 . S
O573 C568 1.167 . S
O574 Zn563 2.063 1_554 S
O574 C568 1.376 . S
O575 Zn563 2.114 1_554 S
O575 C577 1.166 . S
O576 Zn561 1.905 . S
O576 C577 1.182 . S
C577 O575 1.166 . S
C577 O576 1.182 . S
O578 Zn563 2.080 . S
O578 C581 1.305 . S
O579 Zn562 1.920 . S
O579 C581 1.234 . S
C580 O566 1.305 . S
C580 O567 1.234 . S
C581 O578 1.305 . S
C581 O579 1.234 . S
Zn582 O588 1.920 . S
Zn582 O594 1.898 . S
Zn582 O597 1.905 . S
Zn583 O591 1.905 . S
Zn583 O592 1.898 . S
Zn583 O600 1.920 . S
Zn584 O587 2.080 . S
Zn584 O590 2.114 . S
Zn584 O593 2.120 . S
Zn584 O595 2.120 . S
Zn584 O596 2.114 . S
Zn584 O599 2.080 . S
C585 O590 1.166 . S
C585 O591 1.182 . S
C586 O592 1.167 . S
C586 O593 1.299 . S
O587 Zn584 2.080 . S
O587 C601 1.305 . S
O588 Zn582 1.920 . S
O588 C601 1.234 . S
C589 O594 1.167 . S
C589 O595 1.299 . S
O590 Zn584 2.114 . S
O590 C585 1.166 . S
O591 Zn583 1.905 . S
O591 C585 1.182 . S
O592 Zn583 1.898 . S
O592 C586 1.167 . S
O593 Zn584 2.120 . S
O593 C586 1.299 . S
O594 Zn582 1.898 . S
O594 C589 1.167 . S
O595 Zn584 2.120 . S
O595 C589 1.299 . S
O596 Zn584 2.114 . S
O596 C598 1.166 . S
O597 Zn582 1.905 . S
O597 C598 1.182 . S
C598 O596 1.166 . S
C598 O597 1.182 . S
O599 Zn584 2.080 . S
O599 C602 1.305 . S
O600 Zn583 1.920 . S
O600 C602 1.234 . S
C601 O587 1.305 . S
C601 O588 1.234 . S
C602 O599 1.305 . S
C602 O600 1.234 . S
Zn603 O609 1.920 . S
Zn603 O615 1.898 . S
Zn603 O618 1.905 . S
Zn604 O612 1.905 . S
Zn604 O613 1.898 . S
Zn604 O621 1.920 . S
Zn605 O608 2.080 . S
Zn605 O611 2.114 1_554 S
Zn605 O614 2.120 1_554 S
Zn605 O616 2.120 . S
Zn605 O617 2.114 . S
Zn605 O620 2.080 1_554 S
C606 O611 1.166 . S
C606 O612 1.182 . S
C607 O613 1.167 . S
C607 O614 1.299 . S
O608 Zn605 2.080 . S
O608 C622 1.305 . S
O609 Zn603 1.920 . S
O609 C622 1.234 . S
C610 O615 1.167 . S
C610 O616 1.299 . S
O611 Zn605 2.114 1_556 S
O611 C606 1.166 . S
O612 Zn604 1.905 . S
O612 C606 1.182 . S
O613 Zn604 1.898 . S
O613 C607 1.167 . S
O614 Zn605 2.120 1_556 S
O614 C607 1.299 . S
O615 Zn603 1.898 . S
O615 C610 1.167 . S
O616 Zn605 2.120 . S
O616 C610 1.299 . S
O617 Zn605 2.114 . S
O617 C619 1.166 . S
O618 Zn603 1.905 . S
O618 C619 1.182 . S
C619 O617 1.166 . S
C619 O618 1.182 . S
O620 Zn605 2.080 1_556 S
O620 C623 1.305 . S
O621 Zn604 1.920 . S
O621 C623 1.234 . S
C622 O608 1.305 . S
C622 O609 1.234 . S
C623 O620 1.305 . S
C623 O621 1.234 . S
Zn624 O630 1.920 . S
Zn624 O636 1.898 . S
Zn624 O639 1.905 . S
Zn625 O633 1.905 . S
Zn625 O634 1.898 . S
Zn625 O642 1.920 . S
Zn626 O629 2.080 . S
Zn626 O632 2.114 . S
Zn626 O635 2.120 . S
Zn626 O637 2.120 . S
Zn626 O638 2.114 . S
Zn626 O641 2.080 . S
C627 O632 1.166 . S
C627 O633 1.182 . S
C628 O634 1.167 . S
C628 O635 1.299 . S
O629 Zn626 2.080 . S
O629 C643 1.305 . S
O630 Zn624 1.920 . S
O630 C643 1.234 . S
C631 O636 1.167 . S
C631 O637 1.299 . S
O632 Zn626 2.114 . S
O632 C627 1.166 . S
O633 Zn625 1.905 . S
O633 C627 1.182 . S
O634 Zn625 1.898 . S
O634 C628 1.167 . S
O635 Zn626 2.120 . S
O635 C628 1.299 . S
O636 Zn624 1.898 . S
O636 C631 1.167 . S
O637 Zn626 2.120 . S
O637 C631 1.299 . S
O638 Zn626 2.114 . S
O638 C640 1.166 . S
O639 Zn624 1.905 . S
O639 C640 1.182 . S
C640 O638 1.166 . S
C640 O639 1.182 . S
O641 Zn626 2.080 . S
O641 C644 1.305 . S
O642 Zn625 1.920 . S
O642 C644 1.234 . S
C643 O629 1.305 . S
C643 O630 1.234 . S
C644 O641 1.305 . S
C644 O642 1.234 . S
Zn645 O651 1.920 . S
Zn645 O657 1.898 . S
Zn645 O660 1.905 . S
Zn646 O654 1.905 . S
Zn646 O655 1.898 . S
Zn646 O663 1.920 . S
Zn647 O650 2.080 . S
Zn647 O653 2.114 . S
Zn647 O656 2.120 . S
Zn647 O658 2.120 . S
Zn647 O659 2.114 . S
Zn647 O662 2.080 . S
C648 O653 1.166 . S
C648 O654 1.182 . S
C649 O655 1.167 . S
C649 O656 1.299 . S
O650 Zn647 2.080 . S
O650 C664 1.305 . S
O651 Zn645 1.920 . S
O651 C664 1.234 . S
C652 O657 1.167 . S
C652 O658 1.299 . S
O653 Zn647 2.114 . S
O653 C648 1.166 . S
O654 Zn646 1.905 . S
O654 C648 1.182 . S
O655 Zn646 1.898 . S
O655 C649 1.167 . S
O656 Zn647 2.120 . S
O656 C649 1.299 . S
O657 Zn645 1.898 . S
O657 C652 1.167 . S
O658 Zn647 2.120 . S
O658 C652 1.299 . S
O659 Zn647 2.114 . S
O659 C661 1.166 . S
O660 Zn645 1.905 . S
O660 C661 1.182 . S
C661 O659 1.166 . S
C661 O660 1.182 . S
O662 Zn647 2.080 . S
O662 C665 1.305 . S
O663 Zn646 1.920 . S
O663 C665 1.234 . S
C664 O650 1.305 . S
C664 O651 1.234 . S
C665 O662 1.305 . S
C665 O663 1.234 . S
H666 C678 0.930 . S
H667 C680 0.930 . S
H668 C681 0.930 . S
H669 C685 0.959 . S
H670 C685 0.959 . S
H671 C685 0.961 . S
H672 C686 0.960 . S
H673 C686 0.961 . S
H674 C686 0.959 . S
H675 C689 0.929 . S
H676 C690 0.931 . S
H677 C692 0.930 . S
C678 H666 0.930 . S
C678 C679 1.399 . S
C678 C683 1.399 . S
C679 C678 1.399 . S
C679 C680 1.376 . S
C680 H667 0.930 . S
C680 C679 1.376 . S
C680 C681 1.388 . S
C681 H668 0.930 . S
C681 C680 1.388 . S
C681 C682 1.390 . S
C682 C681 1.390 . S
C682 C683 1.394 . S
C682 C688 1.465 . S
C683 C678 1.399 . S
C683 C682 1.394 . S
C683 C684 1.516 . S
C684 C683 1.516 . S
C684 C685 1.502 . S
C684 C686 1.561 . S
C684 C687 1.526 . S
C685 H669 0.959 . S
C685 H670 0.959 . S
C685 H671 0.961 . S
C685 C684 1.502 . S
C686 H672 0.960 . S
C686 H673 0.961 . S
C686 H674 0.959 . S
C686 C684 1.561 . S
C687 C684 1.526 . S
C687 C688 1.396 . S
C687 C692 1.390 . S
C688 C682 1.465 . S
C688 C687 1.396 . S
C688 C689 1.399 . S
C689 H675 0.929 . S
C689 C688 1.399 . S
C689 C690 1.385 . S
C690 H676 0.931 . S
C690 C689 1.385 . S
C690 C691 1.389 . S
C691 C690 1.389 . S
C691 C692 1.387 . S
C692 H677 0.930 . S
C692 C687 1.390 . S
C692 C691 1.387 . S
H693 C705 0.930 . S
H694 C707 0.930 . S
H695 C708 0.930 . S
H696 C712 0.959 . S
H697 C712 0.982 . S
H698 C712 0.961 . S
H699 C713 0.960 . S
H700 C713 0.961 . S
H701 C713 0.959 . S
H702 C716 0.929 . S
H703 C717 0.931 . S
H704 C719 0.930 . S
C705 H693 0.930 . S
C705 C706 1.399 . S
C705 C710 1.399 . S
C706 C705 1.399 . S
C706 C707 1.376 . S
C707 H694 0.930 . S
C707 C706 1.376 . S
C707 C708 1.388 . S
C708 H695 0.930 . S
C708 C707 1.388 . S
C708 C709 1.390 . S
C709 C708 1.390 . S
C709 C710 1.394 . S
C709 C715 1.465 . S
C710 C705 1.399 . S
C710 C709 1.394 . S
C710 C711 1.516 . S
C711 C710 1.516 . S
C711 C712 1.502 . S
C711 C713 1.561 1_545 S
C711 C714 1.526 . S
C712 H696 0.959 . S
C712 H697 0.982 . S
C712 H698 0.961 . S
C712 C711 1.502 . S
C713 H699 0.960 . S
C713 H700 0.961 . S
C713 H701 0.959 . S
C713 C711 1.561 1_565 S
C714 C711 1.526 . S
C714 C715 1.396 . S
C714 C719 1.390 . S
C715 C709 1.465 . S
C715 C714 1.396 . S
C715 C716 1.399 . S
C716 H702 0.929 . S
C716 C715 1.399 . S
C716 C717 1.385 . S
C717 H703 0.931 . S
C717 C716 1.385 . S
C717 C718 1.389 . S
C718 C717 1.389 . S
C718 C719 1.387 . S
C719 H704 0.930 . S
C719 C714 1.390 . S
C719 C718 1.387 . S
H720 C732 0.930 . S
H721 C734 0.930 . S
H722 C735 0.930 . S
H723 C739 0.959 . S
H724 C739 0.959 . S
H725 C739 0.961 . S
H726 C740 0.960 . S
H727 C740 0.961 . S
H728 C740 0.959 . S
H729 C743 0.929 . S
H730 C744 0.927 1_455 S
H731 C746 0.922 . S
C732 H720 0.930 . S
C732 C733 1.399 . S
C732 C737 1.399 . S
C733 C732 1.399 . S
C733 C734 1.376 . S
C734 H721 0.930 . S
C734 C733 1.376 . S
C734 C735 1.388 . S
C735 H722 0.930 . S
C735 C734 1.388 . S
C735 C736 1.390 . S
C736 C735 1.390 . S
C736 C737 1.394 . S
C736 C742 1.465 . S
C737 C732 1.399 . S
C737 C736 1.394 . S
C737 C738 1.516 . S
C738 C737 1.516 . S
C738 C739 1.502 . S
C738 C740 1.561 1_655 S
C738 C741 1.526 . S
C739 H723 0.959 . S
C739 H724 0.959 . S
C739 H725 0.961 . S
C739 C738 1.502 . S
C740 H726 0.960 . S
C740 H727 0.961 . S
C740 H728 0.959 . S
C740 C738 1.561 1_455 S
C741 C738 1.526 . S
C741 C742 1.396 . S
C741 C746 1.395 1_655 S
C742 C736 1.465 . S
C742 C741 1.396 . S
C742 C743 1.399 . S
C743 H729 0.929 . S
C743 C742 1.399 . S
C743 C744 1.378 . S
C744 H730 0.927 1_655 S
C744 C743 1.378 . S
C744 C745 1.400 1_655 S
C745 C744 1.400 1_455 S
C745 C746 1.390 . S
C746 H731 0.922 . S
C746 C741 1.395 1_455 S
C746 C745 1.390 . S
H747 C759 0.930 . S
H748 C761 0.930 . S
H749 C762 0.930 . S
H750 C766 0.959 . S
H751 C766 0.959 . S
H752 C766 0.961 . S
H753 C767 0.960 . S
H754 C767 0.961 . S
H755 C767 0.959 . S
H756 C770 0.929 . S
H757 C771 0.931 . S
H758 C773 0.930 . S
C759 H747 0.930 . S
C759 C760 1.399 . S
C759 C764 1.399 . S
C760 C759 1.399 . S
C760 C761 1.376 . S
C761 H748 0.930 . S
C761 C760 1.376 . S
C761 C762 1.388 . S
C762 H749 0.930 . S
C762 C761 1.388 . S
C762 C763 1.390 . S
C763 C762 1.390 . S
C763 C764 1.394 . S
C763 C769 1.465 . S
C764 C759 1.399 . S
C764 C763 1.394 . S
C764 C765 1.516 . S
C765 C764 1.516 . S
C765 C766 1.502 . S
C765 C767 1.561 . S
C765 C768 1.526 . S
C766 H750 0.959 . S
C766 H751 0.959 . S
C766 H752 0.961 . S
C766 C765 1.502 . S
C767 H753 0.960 . S
C767 H754 0.961 . S
C767 H755 0.959 . S
C767 C765 1.561 . S
C768 C765 1.526 . S
C768 C769 1.396 . S
C768 C773 1.390 . S
C769 C763 1.465 . S
C769 C768 1.396 . S
C769 C770 1.399 . S
C770 H756 0.929 . S
C770 C769 1.399 . S
C770 C771 1.385 . S
C771 H757 0.931 . S
C771 C770 1.385 . S
C771 C772 1.389 . S
C772 C771 1.389 . S
C772 C773 1.387 . S
C773 H758 0.930 . S
C773 C768 1.390 . S
C773 C772 1.387 . S
H774 C786 0.930 . S
H775 C788 0.930 . S
H776 C789 0.930 . S
H777 C793 0.959 . S
H778 C793 0.959 . S
H779 C793 0.961 . S
H780 C794 0.960 . S
H781 C794 0.961 . S
H782 C794 0.959 . S
H783 C797 0.929 . S
H784 C798 0.931 . S
H785 C800 0.930 . S
C786 H774 0.930 . S
C786 C787 1.399 1_565 S
C786 C791 1.399 . S
C787 C786 1.399 1_545 S
C787 C788 1.376 . S
C788 H775 0.930 . S
C788 C787 1.376 . S
C788 C789 1.388 . S
C789 H776 0.930 . S
C789 C788 1.388 . S
C789 C790 1.390 . S
C790 C789 1.390 . S
C790 C791 1.394 1_545 S
C790 C796 1.465 . S
C791 C786 1.399 . S
C791 C790 1.394 1_565 S
C791 C792 1.516 . S
C792 C791 1.516 . S
C792 C793 1.502 . S
C792 C794 1.561 . S
C792 C795 1.526 . S
C793 H777 0.959 . S
C793 H778 0.959 . S
C793 H779 0.961 . S
C793 C792 1.502 . S
C794 H780 0.960 . S
C794 H781 0.961 . S
C794 H782 0.959 . S
C794 C792 1.561 . S
C795 C792 1.526 . S
C795 C796 1.396 1_565 S
C795 C800 1.390 . S
C796 C790 1.465 . S
C796 C795 1.396 1_545 S
C796 C797 1.399 . S
C797 H783 0.929 . S
C797 C796 1.399 . S
C797 C798 1.385 . S
C798 H784 0.931 . S
C798 C797 1.385 . S
C798 C799 1.389 . S
C799 C798 1.389 . S
C799 C800 1.387 1_545 S
C800 H785 0.930 . S
C800 C795 1.390 . S
C800 C799 1.387 1_565 S
H801 C813 0.930 1_655 S
H802 C815 0.930 . S
H803 C816 0.930 . S
H804 C820 0.959 1_455 S
H805 C820 0.959 . S
H806 C820 0.961 . S
H807 C821 0.960 . S
H808 C821 0.961 . S
H809 C821 0.959 . S
H810 C824 0.929 . S
H811 C825 0.931 . S
H812 C827 0.930 1_655 S
C813 H801 0.930 1_455 S
C813 C814 1.399 . S
C813 C818 1.399 . S
C814 C813 1.399 . S
C814 C815 1.376 . S
C815 H802 0.930 . S
C815 C814 1.376 . S
C815 C816 1.388 . S
C816 H803 0.930 . S
C816 C815 1.388 . S
C816 C817 1.390 . S
C817 C816 1.390 . S
C817 C818 1.394 . S
C817 C823 1.465 . S
C818 C813 1.399 . S
C818 C817 1.394 . S
C818 C819 1.516 1_455 S
C819 C818 1.516 1_655 S
C819 C820 1.502 . S
C819 C821 1.561 . S
C819 C822 1.526 1_655 S
C820 H804 0.959 1_655 S
C820 H805 0.959 . S
C820 H806 0.961 . S
C820 C819 1.502 . S
C821 H807 0.960 . S
C821 H808 0.961 . S
C821 H809 0.959 . S
C821 C819 1.561 . S
C822 C819 1.526 1_455 S
C822 C823 1.396 . S
C822 C827 1.390 . S
C823 C817 1.465 . S
C823 C822 1.396 . S
C823 C824 1.399 . S
C824 H810 0.929 . S
C824 C823 1.399 . S
C824 C825 1.385 . S
C825 H811 0.931 . S
C825 C824 1.385 . S
C825 C826 1.389 . S
C826 C825 1.389 . S
C826 C827 1.387 . S
C827 H812 0.930 1_455 S
C827 C822 1.390 . S
C827 C826 1.387 . S
H828 C840 0.930 . S
H829 C842 0.930 . S
H830 C843 0.930 . S
H831 C847 0.959 . S
H832 C847 0.959 . S
H833 C847 0.961 . S
H834 C848 0.960 . S
H835 C848 0.961 . S
H836 C848 0.959 . S
H837 C851 0.929 . S
H838 C852 0.931 . S
H839 C854 0.930 . S
C840 H828 0.930 . S
C840 C841 1.399 . S
C840 C845 1.399 . S
C841 C840 1.399 . S
C841 C842 1.376 . S
C842 H829 0.930 . S
C842 C841 1.376 . S
C842 C843 1.388 . S
C843 H830 0.930 . S
C843 C842 1.388 . S
C843 C844 1.390 . S
C844 C843 1.390 . S
C844 C845 1.394 . S
C844 C850 1.465 . S
C845 C840 1.399 . S
C845 C844 1.394 . S
C845 C846 1.516 . S
C846 C845 1.516 . S
C846 C847 1.502 . S
C846 C848 1.561 . S
C846 C849 1.526 . S
C847 H831 0.959 . S
C847 H832 0.959 . S
C847 H833 0.961 . S
C847 C846 1.502 . S
C848 H834 0.960 . S
C848 H835 0.961 . S
C848 H836 0.959 . S
C848 C846 1.561 . S
C849 C846 1.526 . S
C849 C850 1.396 . S
C849 C854 1.390 . S
C850 C844 1.465 . S
C850 C849 1.396 . S
C850 C851 1.399 . S
C851 H837 0.929 . S
C851 C850 1.399 . S
C851 C852 1.385 . S
C852 H838 0.931 . S
C852 C851 1.385 . S
C852 C853 1.389 . S
C853 C852 1.389 . S
C853 C854 1.387 . S
C854 H839 0.930 . S
C854 C849 1.390 . S
C854 C853 1.387 . S
H855 C867 0.930 . S
H856 C869 0.930 . S
H857 C870 0.930 . S
H858 C874 0.959 . S
H859 C874 0.959 . S
H860 C874 0.961 . S
H861 C875 0.960 . S
H862 C875 0.961 . S
H863 C875 0.959 . S
H864 C878 0.933 . S
H865 C879 0.922 1_545 S
H866 C881 0.930 . S
C867 H855 0.930 . S
C867 C868 1.399 . S
C867 C872 1.399 . S
C868 C867 1.399 . S
C868 C869 1.376 . S
C869 H856 0.930 . S
C869 C868 1.376 . S
C869 C870 1.388 . S
C870 H857 0.930 . S
C870 C869 1.388 . S
C870 C871 1.390 . S
C871 C870 1.390 . S
C871 C872 1.394 . S
C871 C877 1.465 . S
C872 C867 1.399 . S
C872 C871 1.394 . S
C872 C873 1.516 . S
C873 C872 1.516 . S
C873 C874 1.502 . S
C873 C875 1.561 1_565 S
C873 C876 1.526 . S
C874 H858 0.959 . S
C874 H859 0.959 . S
C874 H860 0.961 . S
C874 C873 1.502 . S
C875 H861 0.960 . S
C875 H862 0.961 . S
C875 H863 0.959 . S
C875 C873 1.561 1_545 S
C876 C873 1.526 . S
C876 C877 1.396 . S
C876 C881 1.390 . S
C877 C871 1.465 . S
C877 C876 1.396 . S
C877 C878 1.399 . S
C878 H864 0.933 . S
C878 C877 1.399 . S
C878 C879 1.385 . S
C879 H865 0.922 1_565 S
C879 C878 1.385 . S
C879 C880 1.389 . S
C880 C879 1.389 . S
C880 C881 1.387 . S
C881 H866 0.930 . S
C881 C876 1.390 . S
C881 C880 1.387 . S
H882 C894 0.930 . S
H883 C896 0.930 . S
H884 C897 0.930 . S
H885 C901 0.959 . S
H886 C901 0.959 . S
H887 C901 0.961 . S
H888 C902 0.960 1_655 S
H889 C902 0.961 1_655 S
H890 C902 0.959 . S
H891 C905 0.929 . S
H892 C906 0.931 . S
H893 C908 0.930 1_655 S
C894 H882 0.930 . S
C894 C895 1.399 . S
C894 C899 1.399 . S
C895 C894 1.399 . S
C895 C896 1.376 . S
C896 H883 0.930 . S
C896 C895 1.376 . S
C896 C897 1.388 . S
C897 H884 0.930 . S
C897 C896 1.388 . S
C897 C898 1.390 . S
C898 C897 1.390 . S
C898 C899 1.394 . S
C898 C904 1.465 . S
C899 C894 1.399 . S
C899 C898 1.394 . S
C899 C900 1.516 . S
C900 C899 1.516 . S
C900 C901 1.502 1_455 S
C900 C902 1.561 . S
C900 C903 1.526 . S
C901 H885 0.959 . S
C901 H886 0.959 . S
C901 H887 0.961 . S
C901 C900 1.502 1_655 S
C902 H888 0.960 1_455 S
C902 H889 0.961 1_455 S
C902 H890 0.959 . S
C902 C900 1.561 . S
C903 C900 1.526 . S
C903 C904 1.396 . S
C903 C908 1.390 . S
C904 C898 1.465 . S
C904 C903 1.396 . S
C904 C905 1.399 . S
C905 H891 0.929 . S
C905 C904 1.399 . S
C905 C906 1.385 . S
C906 H892 0.931 . S
C906 C905 1.385 . S
C906 C907 1.389 . S
C907 C906 1.389 . S
C907 C908 1.387 . S
C908 H893 0.930 1_455 S
C908 C903 1.390 . S
C908 C907 1.387 . S
H909 C921 0.930 . S
H910 C923 0.930 . S
H911 C924 0.930 . S
H912 C928 0.959 . S
H913 C928 0.959 . S
H914 C928 0.961 . S
H915 C929 0.960 . S
H916 C929 0.961 . S
H917 C929 0.959 . S
H918 C932 0.929 . S
H919 C933 0.931 . S
H920 C935 0.930 . S
C921 H909 0.930 . S
C921 C922 1.399 . S
C921 C926 1.399 . S
C922 C921 1.399 . S
C922 C923 1.376 . S
C923 H910 0.930 . S
C923 C922 1.376 . S
C923 C924 1.388 . S
C924 H911 0.930 . S
C924 C923 1.388 . S
C924 C925 1.390 . S
C925 C924 1.390 . S
C925 C926 1.394 . S
C925 C931 1.465 . S
C926 C921 1.399 . S
C926 C925 1.394 . S
C926 C927 1.516 . S
C927 C926 1.516 . S
C927 C928 1.502 . S
C927 C929 1.561 . S
C927 C930 1.526 . S
C928 H912 0.959 . S
C928 H913 0.959 . S
C928 H914 0.961 . S
C928 C927 1.502 . S
C929 H915 0.960 . S
C929 H916 0.961 . S
C929 H917 0.959 . S
C929 C927 1.561 . S
C930 C927 1.526 . S
C930 C931 1.396 . S
C930 C935 1.390 . S
C931 C925 1.465 . S
C931 C930 1.396 . S
C931 C932 1.399 . S
C932 H918 0.929 . S
C932 C931 1.399 . S
C932 C933 1.385 . S
C933 H919 0.931 . S
C933 C932 1.385 . S
C933 C934 1.389 . S
C934 C933 1.389 . S
C934 C935 1.387 . S
C935 H920 0.930 . S
C935 C930 1.390 . S
C935 C934 1.387 . S
H936 C948 0.930 1_565 S
H937 C950 0.930 . S
H938 C951 0.930 . S
H939 C955 0.947 1_545 S
H940 C955 0.959 . S
H941 C955 0.961 . S
H942 C956 0.960 . S
H943 C956 0.961 . S
H944 C956 0.959 . S
H945 C959 0.929 . S
H946 C960 0.931 . S
H947 C962 0.930 1_565 S
C948 H936 0.930 1_545 S
C948 C949 1.399 . S
C948 C953 1.399 . S
C949 C948 1.399 . S
C949 C950 1.376 . S
C950 H937 0.930 . S
C950 C949 1.376 . S
C950 C951 1.388 . S
C951 H938 0.930 . S
C951 C950 1.388 . S
C951 C952 1.390 . S
C952 C951 1.390 . S
C952 C953 1.394 . S
C952 C958 1.465 . S
C953 C948 1.399 . S
C953 C952 1.394 . S
C953 C954 1.516 1_545 S
C954 C953 1.516 1_565 S
C954 C955 1.502 . S
C954 C956 1.561 . S
C954 C957 1.526 1_565 S
C955 H939 0.947 1_565 S
C955 H940 0.959 . S
C955 H941 0.961 . S
C955 C954 1.502 . S
C956 H942 0.960 . S
C956 H943 0.961 . S
C956 H944 0.959 . S
C956 C954 1.561 . S
C957 C954 1.526 1_545 S
C957 C958 1.396 . S
C957 C962 1.390 . S
C958 C952 1.465 . S
C958 C957 1.396 . S
C958 C959 1.399 . S
C959 H945 0.929 . S
C959 C958 1.399 . S
C959 C960 1.385 . S
C960 H946 0.931 . S
C960 C959 1.385 . S
C960 C961 1.389 . S
C961 C960 1.389 . S
C961 C962 1.387 . S
C962 H947 0.930 1_545 S
C962 C957 1.390 . S
C962 C961 1.387 . S
H963 C975 0.930 . S
H964 C977 0.930 . S
H965 C978 0.930 . S
H966 C982 0.959 . S
H967 C982 0.959 . S
H968 C982 0.961 . S
H969 C983 0.960 . S
H970 C983 0.961 . S
H971 C983 0.959 . S
H972 C986 0.929 . S
H973 C987 0.931 . S
H974 C989 0.930 . S
C975 H963 0.930 . S
C975 C976 1.414 . S
C975 C980 1.399 . S
C976 C975 1.414 . S
C976 C977 1.371 1_455 S
C977 H964 0.930 . S
C977 C976 1.371 1_655 S
C977 C978 1.388 . S
C978 H965 0.930 . S
C978 C977 1.388 . S
C978 C979 1.390 . S
C979 C978 1.390 . S
C979 C980 1.394 1_655 S
C979 C985 1.465 . S
C980 C975 1.399 . S
C980 C979 1.394 1_455 S
C980 C981 1.516 . S
C981 C980 1.516 . S
C981 C982 1.502 . S
C981 C983 1.561 . S
C981 C984 1.526 . S
C982 H966 0.959 . S
C982 H967 0.959 . S
C982 H968 0.961 . S
C982 C981 1.502 . S
C983 H969 0.960 . S
C983 H970 0.961 . S
C983 H971 0.959 . S
C983 C981 1.561 . S
C984 C981 1.526 . S
C984 C985 1.396 1_455 S
C984 C989 1.390 . S
C985 C979 1.465 . S
C985 C984 1.396 1_655 S
C985 C986 1.399 . S
C986 H972 0.929 . S
C986 C985 1.399 . S
C986 C987 1.385 . S
C987 H973 0.931 . S
C987 C986 1.385 . S
C987 C988 1.389 1_655 S
C988 C987 1.389 1_455 S
C988 C989 1.387 . S
C989 H974 0.930 . S
C989 C984 1.390 . S
C989 C988 1.387 . S
H990 C1002 0.930 . S
H991 C1004 0.930 . S
H992 C1005 0.930 . S
H993 C1009 0.959 . S
H994 C1009 0.959 . S
H995 C1009 0.961 . S
H996 C1010 0.960 . S
H997 C1010 0.961 . S
H998 C1010 0.959 . S
H999 C1013 0.929 . S
H1000 C1014 0.931 . S
H1001 C1016 0.930 . S
C1002 H990 0.930 . S
C1002 C1003 1.399 . S
C1002 C1007 1.399 . S
C1003 C1002 1.399 . S
C1003 C1004 1.376 . S
C1004 H991 0.930 . S
C1004 C1003 1.376 . S
C1004 C1005 1.388 . S
C1005 H992 0.930 . S
C1005 C1004 1.388 . S
C1005 C1006 1.390 . S
C1006 C1005 1.390 . S
C1006 C1007 1.394 . S
C1006 C1012 1.465 . S
C1007 C1002 1.399 . S
C1007 C1006 1.394 . S
C1007 C1008 1.516 . S
C1008 C1007 1.516 . S
C1008 C1009 1.502 . S
C1008 C1010 1.561 . S
C1008 C1011 1.526 . S
C1009 H993 0.959 . S
C1009 H994 0.959 . S
C1009 H995 0.961 . S
C1009 C1008 1.502 . S
C1010 H996 0.960 . S
C1010 H997 0.961 . S
C1010 H998 0.959 . S
C1010 C1008 1.561 . S
C1011 C1008 1.526 . S
C1011 C1012 1.396 . S
C1011 C1016 1.390 . S
C1012 C1006 1.465 . S
C1012 C1011 1.396 . S
C1012 C1013 1.399 . S
C1013 H999 0.929 . S
C1013 C1012 1.399 . S
C1013 C1014 1.385 . S
C1014 H1000 0.931 . S
C1014 C1013 1.385 . S
C1014 C1015 1.389 . S
C1015 C1014 1.389 . S
C1015 C1016 1.387 . S
C1016 H1001 0.930 . S
C1016 C1011 1.390 . S
C1016 C1015 1.387 . S
H1017 C1029 0.930 . S
H1018 C1031 0.930 . S
H1019 C1032 0.930 . S
H1020 C1036 0.959 . S
H1021 C1036 0.959 . S
H1022 C1036 0.961 . S
H1023 C1037 0.960 . S
H1024 C1037 0.961 . S
H1025 C1037 0.959 . S
H1026 C1040 0.929 . S
H1027 C1041 0.931 . S
H1028 C1043 0.930 . S
C1029 H1017 0.930 . S
C1029 C1030 1.399 . S
C1029 C1034 1.399 . S
C1030 C1029 1.399 . S
C1030 C1031 1.376 . S
C1031 H1018 0.930 . S
C1031 C1030 1.376 . S
C1031 C1032 1.388 . S
C1032 H1019 0.930 . S
C1032 C1031 1.388 . S
C1032 C1033 1.390 . S
C1033 C1032 1.390 . S
C1033 C1034 1.394 . S
C1033 C1039 1.465 . S
C1034 C1029 1.399 . S
C1034 C1033 1.394 . S
C1034 C1035 1.516 . S
C1035 C1034 1.516 . S
C1035 C1036 1.502 . S
C1035 C1037 1.561 . S
C1035 C1038 1.526 . S
C1036 H1020 0.959 . S
C1036 H1021 0.959 . S
C1036 H1022 0.961 . S
C1036 C1035 1.502 . S
C1037 H1023 0.960 . S
C1037 H1024 0.961 . S
C1037 H1025 0.959 . S
C1037 C1035 1.561 . S
C1038 C1035 1.526 . S
C1038 C1039 1.396 . S
C1038 C1043 1.390 . S
C1039 C1033 1.465 . S
C1039 C1038 1.396 . S
C1039 C1040 1.399 . S
C1040 H1026 0.929 . S
C1040 C1039 1.399 . S
C1040 C1041 1.385 . S
C1041 H1027 0.931 . S
C1041 C1040 1.385 . S
C1041 C1042 1.389 . S
C1042 C1041 1.389 . S
C1042 C1043 1.387 . S
C1043 H1028 0.930 . S
C1043 C1038 1.390 . S
C1043 C1042 1.387 . S
H1044 C1056 0.930 . S
H1045 C1058 0.930 . S
H1046 C1059 0.930 . S
H1047 C1063 0.959 . S
H1048 C1063 0.959 . S
H1049 C1063 0.961 . S
H1050 C1064 0.960 . S
H1051 C1064 0.961 . S
H1052 C1064 0.959 . S
H1053 C1067 0.929 . S
H1054 C1068 0.931 . S
H1055 C1070 0.930 . S
C1056 H1044 0.930 . S
C1056 C1057 1.399 . S
C1056 C1061 1.399 . S
C1057 C1056 1.399 . S
C1057 C1058 1.376 . S
C1058 H1045 0.930 . S
C1058 C1057 1.376 . S
C1058 C1059 1.388 . S
C1059 H1046 0.930 . S
C1059 C1058 1.388 . S
C1059 C1060 1.390 . S
C1060 C1059 1.390 . S
C1060 C1061 1.394 . S
C1060 C1066 1.465 . S
C1061 C1056 1.399 . S
C1061 C1060 1.394 . S
C1061 C1062 1.516 . S
C1062 C1061 1.516 . S
C1062 C1063 1.502 . S
C1062 C1064 1.561 . S
C1062 C1065 1.526 . S
C1063 H1047 0.959 . S
C1063 H1048 0.959 . S
C1063 H1049 0.961 . S
C1063 C1062 1.502 . S
C1064 H1050 0.960 . S
C1064 H1051 0.961 . S
C1064 H1052 0.959 . S
C1064 C1062 1.561 . S
C1065 C1062 1.526 . S
C1065 C1066 1.396 . S
C1065 C1070 1.390 . S
C1066 C1060 1.465 . S
C1066 C1065 1.396 . S
C1066 C1067 1.399 . S
C1067 H1053 0.929 . S
C1067 C1066 1.399 . S
C1067 C1068 1.385 . S
C1068 H1054 0.931 . S
C1068 C1067 1.385 . S
C1068 C1069 1.389 . S
C1069 C1068 1.389 . S
C1069 C1070 1.387 . S
C1070 H1055 0.930 . S
C1070 C1065 1.390 . S
C1070 C1069 1.387 . S
H1071 C1083 0.930 . S
H1072 C1085 0.930 . S
H1073 C1086 0.930 . S
H1074 C1090 0.959 . S
H1075 C1090 0.959 . S
H1076 C1090 0.961 . S
H1077 C1091 0.960 . S
H1078 C1091 0.961 . S
H1079 C1091 0.959 . S
H1080 C1094 0.929 . S
H1081 C1095 0.931 . S
H1082 C1097 0.930 . S
C1083 H1071 0.930 . S
C1083 C1084 1.399 . S
C1083 C1088 1.399 . S
C1084 C1083 1.399 . S
C1084 C1085 1.376 . S
C1085 H1072 0.930 . S
C1085 C1084 1.376 . S
C1085 C1086 1.388 . S
C1086 H1073 0.930 . S
C1086 C1085 1.388 . S
C1086 C1087 1.390 . S
C1087 C1086 1.390 . S
C1087 C1088 1.394 . S
C1087 C1093 1.465 . S
C1088 C1083 1.399 . S
C1088 C1087 1.394 . S
C1088 C1089 1.516 . S
C1089 C1088 1.516 . S
C1089 C1090 1.502 . S
C1089 C1091 1.561 . S
C1089 C1092 1.526 . S
C1090 H1074 0.959 . S
C1090 H1075 0.959 . S
C1090 H1076 0.961 . S
C1090 C1089 1.502 . S
C1091 H1077 0.960 . S
C1091 H1078 0.961 . S
C1091 H1079 0.959 . S
C1091 C1089 1.561 . S
C1092 C1089 1.526 . S
C1092 C1093 1.396 . S
C1092 C1097 1.390 . S
C1093 C1087 1.465 . S
C1093 C1092 1.396 . S
C1093 C1094 1.399 . S
C1094 H1080 0.929 . S
C1094 C1093 1.399 . S
C1094 C1095 1.385 . S
C1095 H1081 0.931 . S
C1095 C1094 1.385 . S
C1095 C1096 1.389 . S
C1096 C1095 1.389 . S
C1096 C1097 1.387 . S
C1097 H1082 0.930 . S
C1097 C1092 1.390 . S
C1097 C1096 1.387 . S
H1098 C1110 0.930 . S
H1099 C1112 0.930 . S
H1100 C1113 0.930 . S
H1101 C1117 0.959 . S
H1102 C1117 0.959 . S
H1103 C1117 0.961 . S
H1104 C1118 0.960 . S
H1105 C1118 0.961 . S
H1106 C1118 0.959 . S
H1107 C1121 0.929 . S
H1108 C1122 0.931 . S
H1109 C1124 0.930 . S
C1110 H1098 0.930 . S
C1110 C1111 1.399 . S
C1110 C1115 1.399 . S
C1111 C1110 1.399 . S
C1111 C1112 1.376 . S
C1112 H1099 0.930 . S
C1112 C1111 1.376 . S
C1112 C1113 1.388 . S
C1113 H1100 0.930 . S
C1113 C1112 1.388 . S
C1113 C1114 1.390 . S
C1114 C1113 1.390 . S
C1114 C1115 1.394 . S
C1114 C1120 1.465 . S
C1115 C1110 1.399 . S
C1115 C1114 1.394 . S
C1115 C1116 1.516 . S
C1116 C1115 1.516 . S
C1116 C1117 1.502 . S
C1116 C1118 1.561 . S
C1116 C1119 1.526 . S
C1117 H1101 0.959 . S
C1117 H1102 0.959 . S
C1117 H1103 0.961 . S
C1117 C1116 1.502 . S
C1118 H1104 0.960 . S
C1118 H1105 0.961 . S
C1118 H1106 0.959 . S
C1118 C1116 1.561 . S
C1119 C1116 1.526 . S
C1119 C1120 1.396 . S
C1119 C1124 1.390 . S
C1120 C1114 1.465 . S
C1120 C1119 1.396 . S
C1120 C1121 1.399 . S
C1121 H1107 0.929 . S
C1121 C1120 1.399 . S
C1121 C1122 1.385 . S
C1122 H1108 0.931 . S
C1122 C1121 1.385 . S
C1122 C1123 1.389 . S
C1123 C1122 1.389 . S
C1123 C1124 1.387 . S
C1124 H1109 0.930 . S
C1124 C1119 1.390 . S
C1124 C1123 1.387 . S
H1125 C1137 0.930 . S
H1126 C1139 0.930 . S
H1127 C1140 0.930 . S
H1128 C1144 0.959 . S
H1129 C1144 0.959 . S
H1130 C1144 0.961 . S
H1131 C1145 0.960 . S
H1132 C1145 0.961 . S
H1133 C1145 0.959 . S
H1134 C1148 0.929 . S
H1135 C1149 0.931 . S
H1136 C1151 0.930 . S
C1137 H1125 0.930 . S
C1137 C1138 1.399 . S
C1137 C1142 1.399 . S
C1138 C1137 1.399 . S
C1138 C1139 1.376 . S
C1139 H1126 0.930 . S
C1139 C1138 1.376 . S
C1139 C1140 1.388 . S
C1140 H1127 0.930 . S
C1140 C1139 1.388 . S
C1140 C1141 1.390 . S
C1141 C1140 1.390 . S
C1141 C1142 1.394 . S
C1141 C1147 1.465 . S
C1142 C1137 1.399 . S
C1142 C1141 1.394 . S
C1142 C1143 1.516 . S
C1143 C1142 1.516 . S
C1143 C1144 1.502 . S
C1143 C1145 1.561 . S
C1143 C1146 1.526 . S
C1144 H1128 0.959 . S
C1144 H1129 0.959 . S
C1144 H1130 0.961 . S
C1144 C1143 1.502 . S
C1145 H1131 0.960 . S
C1145 H1132 0.961 . S
C1145 H1133 0.959 . S
C1145 C1143 1.561 . S
C1146 C1143 1.526 . S
C1146 C1147 1.396 . S
C1146 C1151 1.390 . S
C1147 C1141 1.465 . S
C1147 C1146 1.396 . S
C1147 C1148 1.399 . S
C1148 H1134 0.929 . S
C1148 C1147 1.399 . S
C1148 C1149 1.385 . S
C1149 H1135 0.931 . S
C1149 C1148 1.385 . S
C1149 C1150 1.389 . S
C1150 C1149 1.389 . S
C1150 C1151 1.387 . S
C1151 H1136 0.930 . S
C1151 C1146 1.390 . S
C1151 C1150 1.387 . S
H1152 C1164 0.930 . S
H1153 C1166 0.930 . S
H1154 C1167 0.930 . S
H1155 C1171 0.959 . S
H1156 C1171 0.959 . S
H1157 C1171 0.961 . S
H1158 C1172 0.960 . S
H1159 C1172 0.961 . S
H1160 C1172 0.959 . S
H1161 C1175 0.929 . S
H1162 C1176 0.931 . S
H1163 C1178 0.930 . S
C1164 H1152 0.930 . S
C1164 C1165 1.399 . S
C1164 C1169 1.399 . S
C1165 C1164 1.399 . S
C1165 C1166 1.376 . S
C1166 H1153 0.930 . S
C1166 C1165 1.376 . S
C1166 C1167 1.388 . S
C1167 H1154 0.930 . S
C1167 C1166 1.388 . S
C1167 C1168 1.390 . S
C1168 C1167 1.390 . S
C1168 C1169 1.394 . S
C1168 C1174 1.465 . S
C1169 C1164 1.399 . S
C1169 C1168 1.394 . S
C1169 C1170 1.516 . S
C1170 C1169 1.516 . S
C1170 C1171 1.502 . S
C1170 C1172 1.561 . S
C1170 C1173 1.526 . S
C1171 H1155 0.959 . S
C1171 H1156 0.959 . S
C1171 H1157 0.961 . S
C1171 C1170 1.502 . S
C1172 H1158 0.960 . S
C1172 H1159 0.961 . S
C1172 H1160 0.959 . S
C1172 C1170 1.561 . S
C1173 C1170 1.526 . S
C1173 C1174 1.396 . S
C1173 C1178 1.390 . S
C1174 C1168 1.465 . S
C1174 C1173 1.396 . S
C1174 C1175 1.399 . S
C1175 H1161 0.929 . S
C1175 C1174 1.399 . S
C1175 C1176 1.385 . S
C1176 H1162 0.931 . S
C1176 C1175 1.385 . S
C1176 C1177 1.389 . S
C1177 C1176 1.389 . S
C1177 C1178 1.387 . S
C1178 H1163 0.930 . S
C1178 C1173 1.390 . S
C1178 C1177 1.387 . S
H1179 C1191 0.930 . S
H1180 C1193 0.930 . S
H1181 C1194 0.930 . S
H1182 C1198 0.959 . S
H1183 C1198 0.959 . S
H1184 C1198 0.961 . S
H1185 C1199 0.960 . S
H1186 C1199 0.961 . S
H1187 C1199 0.959 . S
H1188 C1202 0.929 . S
H1189 C1203 0.931 . S
H1190 C1205 0.930 . S
C1191 H1179 0.930 . S
C1191 C1192 1.399 . S
C1191 C1196 1.399 . S
C1192 C1191 1.399 . S
C1192 C1193 1.376 . S
C1193 H1180 0.930 . S
C1193 C1192 1.376 . S
C1193 C1194 1.388 . S
C1194 H1181 0.930 . S
C1194 C1193 1.388 . S
C1194 C1195 1.390 . S
C1195 C1194 1.390 . S
C1195 C1196 1.394 . S
C1195 C1201 1.465 . S
C1196 C1191 1.399 . S
C1196 C1195 1.394 . S
C1196 C1197 1.516 . S
C1197 C1196 1.516 . S
C1197 C1198 1.502 . S
C1197 C1199 1.561 . S
C1197 C1200 1.526 . S
C1198 H1182 0.959 . S
C1198 H1183 0.959 . S
C1198 H1184 0.961 . S
C1198 C1197 1.502 . S
C1199 H1185 0.960 . S
C1199 H1186 0.961 . S
C1199 H1187 0.959 . S
C1199 C1197 1.561 . S
C1200 C1197 1.526 . S
C1200 C1201 1.396 . S
C1200 C1205 1.390 . S
C1201 C1195 1.465 . S
C1201 C1200 1.396 . S
C1201 C1202 1.399 . S
C1202 H1188 0.929 . S
C1202 C1201 1.399 . S
C1202 C1203 1.385 . S
C1203 H1189 0.931 . S
C1203 C1202 1.385 . S
C1203 C1204 1.389 . S
C1204 C1203 1.389 . S
C1204 C1205 1.387 . S
C1205 H1190 0.930 . S
C1205 C1200 1.390 . S
C1205 C1204 1.387 . S
H1206 C1218 0.930 . S
H1207 C1220 0.930 . S
H1208 C1221 0.930 . S
H1209 C1225 0.959 . S
H1210 C1225 0.959 . S
H1211 C1225 0.961 . S
H1212 C1226 0.960 . S
H1213 C1226 0.961 . S
H1214 C1226 0.959 . S
H1215 C1229 0.929 . S
H1216 C1230 0.931 . S
H1217 C1232 0.930 . S
C1218 H1206 0.930 . S
C1218 C1219 1.399 . S
C1218 C1223 1.399 . S
C1219 C1218 1.399 . S
C1219 C1220 1.376 . S
C1220 H1207 0.930 . S
C1220 C1219 1.376 . S
C1220 C1221 1.388 . S
C1221 H1208 0.930 . S
C1221 C1220 1.388 . S
C1221 C1222 1.390 . S
C1222 C1221 1.390 . S
C1222 C1223 1.394 . S
C1222 C1228 1.465 . S
C1223 C1218 1.399 . S
C1223 C1222 1.394 . S
C1223 C1224 1.516 . S
C1224 C1223 1.516 . S
C1224 C1225 1.502 . S
C1224 C1226 1.561 . S
C1224 C1227 1.526 . S
C1225 H1209 0.959 . S
C1225 H1210 0.959 . S
C1225 H1211 0.961 . S
C1225 C1224 1.502 . S
C1226 H1212 0.960 . S
C1226 H1213 0.961 . S
C1226 H1214 0.959 . S
C1226 C1224 1.561 . S
C1227 C1224 1.526 . S
C1227 C1228 1.396 . S
C1227 C1232 1.390 . S
C1228 C1222 1.465 . S
C1228 C1227 1.396 . S
C1228 C1229 1.399 . S
C1229 H1215 0.929 . S
C1229 C1228 1.399 . S
C1229 C1230 1.385 . S
C1230 H1216 0.931 . S
C1230 C1229 1.385 . S
C1230 C1231 1.389 . S
C1231 C1230 1.389 . S
C1231 C1232 1.387 . S
C1232 H1217 0.930 . S
C1232 C1227 1.390 . S
C1232 C1231 1.387 . S
H1233 C1245 0.930 . S
H1234 C1247 0.930 . S
H1235 C1248 0.930 . S
H1236 C1252 0.959 . S
H1237 C1252 0.959 . S
H1238 C1252 0.961 . S
H1239 C1253 0.960 . S
H1240 C1253 0.961 . S
H1241 C1253 0.959 . S
H1242 C1256 0.929 . S
H1243 C1257 0.931 1_556 S
H1244 C1259 0.930 . S
C1245 H1233 0.930 . S
C1245 C1246 1.399 . S
C1245 C1250 1.399 . S
C1246 C1245 1.399 . S
C1246 C1247 1.376 . S
C1247 H1234 0.930 . S
C1247 C1246 1.376 . S
C1247 C1248 1.388 . S
C1248 H1235 0.930 . S
C1248 C1247 1.388 . S
C1248 C1249 1.390 . S
C1249 C1248 1.390 . S
C1249 C1250 1.394 . S
C1249 C1255 1.465 . S
C1250 C1245 1.399 . S
C1250 C1249 1.394 . S
C1250 C1251 1.516 . S
C1251 C1250 1.516 . S
C1251 C1252 1.502 . S
C1251 C1253 1.561 . S
C1251 C1254 1.526 . S
C1252 H1236 0.959 . S
C1252 H1237 0.959 . S
C1252 H1238 0.961 . S
C1252 C1251 1.502 . S
C1253 H1239 0.960 . S
C1253 H1240 0.961 . S
C1253 H1241 0.959 . S
C1253 C1251 1.561 . S
C1254 C1251 1.526 . S
C1254 C1255 1.396 . S
C1254 C1259 1.390 . S
C1255 C1249 1.465 . S
C1255 C1254 1.396 . S
C1255 C1256 1.399 . S
C1256 H1242 0.929 . S
C1256 C1255 1.399 . S
C1256 C1257 1.385 . S
C1257 H1243 0.931 1_554 S
C1257 C1256 1.385 . S
C1257 C1258 1.389 . S
C1258 C1257 1.389 . S
C1258 C1259 1.387 . S
C1259 H1244 0.930 . S
C1259 C1254 1.390 . S
C1259 C1258 1.387 . S
H1260 C1272 0.930 . S
H1261 C1274 0.930 . S
H1262 C1275 0.930 . S
H1263 C1279 0.959 . S
H1264 C1279 0.959 . S
H1265 C1279 0.961 . S
H1266 C1280 0.960 . S
H1267 C1280 0.961 . S
H1268 C1280 0.959 . S
H1269 C1283 0.929 . S
H1270 C1284 0.931 . S
H1271 C1286 0.930 . S
C1272 H1260 0.930 . S
C1272 C1273 1.399 . S
C1272 C1277 1.399 . S
C1273 C1272 1.399 . S
C1273 C1274 1.376 . S
C1274 H1261 0.930 . S
C1274 C1273 1.376 . S
C1274 C1275 1.388 . S
C1275 H1262 0.930 . S
C1275 C1274 1.388 . S
C1275 C1276 1.390 . S
C1276 C1275 1.390 . S
C1276 C1277 1.394 . S
C1276 C1282 1.465 . S
C1277 C1272 1.399 . S
C1277 C1276 1.394 . S
C1277 C1278 1.516 . S
C1278 C1277 1.516 . S
C1278 C1279 1.502 . S
C1278 C1280 1.561 . S
C1278 C1281 1.526 . S
C1279 H1263 0.959 . S
C1279 H1264 0.959 . S
C1279 H1265 0.961 . S
C1279 C1278 1.502 . S
C1280 H1266 0.960 . S
C1280 H1267 0.961 . S
C1280 H1268 0.959 . S
C1280 C1278 1.561 . S
C1281 C1278 1.526 . S
C1281 C1282 1.396 . S
C1281 C1286 1.390 . S
C1282 C1276 1.465 . S
C1282 C1281 1.396 . S
C1282 C1283 1.399 . S
C1283 H1269 0.929 . S
C1283 C1282 1.399 . S
C1283 C1284 1.385 . S
C1284 H1270 0.931 . S
C1284 C1283 1.385 . S
C1284 C1285 1.389 . S
C1285 C1284 1.389 . S
C1285 C1286 1.387 . S
C1286 H1271 0.930 . S
C1286 C1281 1.390 . S
C1286 C1285 1.387 . S
H1287 C1299 0.930 . S
H1288 C1301 0.930 . S
H1289 C1302 0.930 . S
H1290 C1306 0.959 . S
H1291 C1306 0.959 . S
H1292 C1306 0.961 . S
H1293 C1307 0.960 . S
H1294 C1307 0.961 . S
H1295 C1307 0.959 . S
H1296 C1310 0.929 . S
H1297 C1311 0.986 . S
H1298 C1313 0.930 . S
C1299 H1287 0.930 . S
C1299 C1300 1.399 . S
C1299 C1304 1.399 . S
C1300 C1299 1.399 . S
C1300 C1301 1.376 . S
C1301 H1288 0.930 . S
C1301 C1300 1.376 . S
C1301 C1302 1.388 . S
C1302 H1289 0.930 . S
C1302 C1301 1.388 . S
C1302 C1303 1.390 . S
C1303 C1302 1.390 . S
C1303 C1304 1.394 . S
C1303 C1309 1.465 . S
C1304 C1299 1.399 . S
C1304 C1303 1.394 . S
C1304 C1305 1.516 . S
C1305 C1304 1.516 . S
C1305 C1306 1.502 . S
C1305 C1307 1.561 . S
C1305 C1308 1.526 . S
C1306 H1290 0.959 . S
C1306 H1291 0.959 . S
C1306 H1292 0.961 . S
C1306 C1305 1.502 . S
C1307 H1293 0.960 . S
C1307 H1294 0.961 . S
C1307 H1295 0.959 . S
C1307 C1305 1.561 . S
C1308 C1305 1.526 . S
C1308 C1309 1.396 . S
C1308 C1313 1.390 . S
C1309 C1303 1.465 . S
C1309 C1308 1.396 . S
C1309 C1310 1.399 . S
C1310 H1296 0.929 . S
C1310 C1309 1.399 . S
C1310 C1311 1.385 . S
C1311 H1297 0.986 . S
C1311 C1310 1.385 . S
C1311 C1312 1.389 . S
C1312 C1311 1.389 . S
C1312 C1313 1.387 . S
C1313 H1298 0.930 . S
C1313 C1308 1.390 . S
C1313 C1312 1.387 . S
H1314 C1326 0.930 . S
H1315 C1328 0.930 . S
H1316 C1329 0.930 . S
H1317 C1333 0.959 . S
H1318 C1333 0.959 . S
H1319 C1333 0.961 . S
H1320 C1334 0.960 . S
H1321 C1334 0.961 . S
H1322 C1334 0.959 . S
H1323 C1337 0.929 . S
H1324 C1338 0.931 . S
H1325 C1340 0.930 . S
C1326 H1314 0.930 . S
C1326 C1327 1.399 . S
C1326 C1331 1.399 . S
C1327 C1326 1.399 . S
C1327 C1328 1.376 . S
C1328 H1315 0.930 . S
C1328 C1327 1.376 . S
C1328 C1329 1.388 . S
C1329 H1316 0.930 . S
C1329 C1328 1.388 . S
C1329 C1330 1.390 . S
C1330 C1329 1.390 . S
C1330 C1331 1.394 . S
C1330 C1336 1.465 . S
C1331 C1326 1.399 . S
C1331 C1330 1.394 . S
C1331 C1332 1.516 . S
C1332 C1331 1.516 . S
C1332 C1333 1.502 . S
C1332 C1334 1.561 . S
C1332 C1335 1.526 . S
C1333 H1317 0.959 . S
C1333 H1318 0.959 . S
C1333 H1319 0.961 . S
C1333 C1332 1.502 . S
C1334 H1320 0.960 . S
C1334 H1321 0.961 . S
C1334 H1322 0.959 . S
C1334 C1332 1.561 . S
C1335 C1332 1.526 . S
C1335 C1336 1.396 . S
C1335 C1340 1.390 . S
C1336 C1330 1.465 . S
C1336 C1335 1.396 . S
C1336 C1337 1.399 . S
C1337 H1323 0.929 . S
C1337 C1336 1.399 . S
C1337 C1338 1.385 . S
C1338 H1324 0.931 . S
C1338 C1337 1.385 . S
C1338 C1339 1.389 . S
C1339 C1338 1.389 . S
C1339 C1340 1.387 . S
C1340 H1325 0.930 . S
C1340 C1335 1.390 . S
C1340 C1339 1.387 . S
H1341 C1353 0.930 . S
H1342 C1355 0.930 . S
H1343 C1356 0.930 . S
H1344 C1360 0.959 . S
H1345 C1360 0.959 . S
H1346 C1360 0.961 . S
H1347 C1361 0.960 . S
H1348 C1361 0.961 . S
H1349 C1361 0.959 . S
H1350 C1364 0.929 . S
H1351 C1365 0.931 . S
H1352 C1367 0.930 . S
C1353 H1341 0.930 . S
C1353 C1354 1.399 . S
C1353 C1358 1.399 . S
C1354 C1353 1.399 . S
C1354 C1355 1.376 . S
C1355 H1342 0.930 . S
C1355 C1354 1.376 . S
C1355 C1356 1.388 . S
C1356 H1343 0.930 . S
C1356 C1355 1.388 . S
C1356 C1357 1.390 . S
C1357 C1356 1.390 . S
C1357 C1358 1.394 . S
C1357 C1363 1.465 . S
C1358 C1353 1.399 . S
C1358 C1357 1.394 . S
C1358 C1359 1.516 . S
C1359 C1358 1.516 . S
C1359 C1360 1.502 . S
C1359 C1361 1.561 . S
C1359 C1362 1.526 . S
C1360 H1344 0.959 . S
C1360 H1345 0.959 . S
C1360 H1346 0.961 . S
C1360 C1359 1.502 . S
C1361 H1347 0.960 . S
C1361 H1348 0.961 . S
C1361 H1349 0.959 . S
C1361 C1359 1.561 . S
C1362 C1359 1.526 . S
C1362 C1363 1.396 . S
C1362 C1367 1.390 . S
C1363 C1357 1.465 . S
C1363 C1362 1.396 . S
C1363 C1364 1.399 . S
C1364 H1350 0.929 . S
C1364 C1363 1.399 . S
C1364 C1365 1.385 . S
C1365 H1351 0.931 . S
C1365 C1364 1.385 . S
C1365 C1366 1.389 . S
C1366 C1365 1.389 . S
C1366 C1367 1.387 . S
C1367 H1352 0.930 . S
C1367 C1362 1.390 . S
C1367 C1366 1.387 . S
H1368 C1380 0.930 . S
H1369 C1382 0.930 . S
H1370 C1383 0.930 . S
H1371 C1387 0.959 . S
H1372 C1387 0.959 . S
H1373 C1387 0.961 . S
H1374 C1388 0.960 . S
H1375 C1388 0.961 . S
H1376 C1388 0.959 . S
H1377 C1391 0.929 . S
H1378 C1392 0.931 . S
H1379 C1394 0.930 . S
C1380 H1368 0.930 . S
C1380 C1381 1.399 . S
C1380 C1385 1.399 . S
C1381 C1380 1.399 . S
C1381 C1382 1.376 . S
C1382 H1369 0.930 . S
C1382 C1381 1.376 . S
C1382 C1383 1.388 . S
C1383 H1370 0.930 . S
C1383 C1382 1.388 . S
C1383 C1384 1.390 . S
C1384 C1383 1.390 . S
C1384 C1385 1.394 . S
C1384 C1390 1.465 . S
C1385 C1380 1.399 . S
C1385 C1384 1.394 . S
C1385 C1386 1.516 . S
C1386 C1385 1.516 . S
C1386 C1387 1.502 . S
C1386 C1388 1.561 . S
C1386 C1389 1.526 . S
C1387 H1371 0.959 . S
C1387 H1372 0.959 . S
C1387 H1373 0.961 . S
C1387 C1386 1.502 . S
C1388 H1374 0.960 . S
C1388 H1375 0.961 . S
C1388 H1376 0.959 . S
C1388 C1386 1.561 . S
C1389 C1386 1.526 . S
C1389 C1390 1.396 . S
C1389 C1394 1.390 . S
C1390 C1384 1.465 . S
C1390 C1389 1.396 . S
C1390 C1391 1.399 . S
C1391 H1377 0.929 . S
C1391 C1390 1.399 . S
C1391 C1392 1.385 . S
C1392 H1378 0.931 . S
C1392 C1391 1.385 . S
C1392 C1393 1.389 . S
C1393 C1392 1.389 . S
C1393 C1394 1.387 . S
C1394 H1379 0.930 . S
C1394 C1389 1.390 . S
C1394 C1393 1.387 . S
H1395 C1407 0.930 . S
H1396 C1409 0.930 . S
H1397 C1410 0.930 . S
H1398 C1414 0.959 . S
H1399 C1414 0.959 . S
H1400 C1414 0.961 . S
H1401 C1415 0.960 . S
H1402 C1415 0.961 . S
H1403 C1415 0.959 . S
H1404 C1418 0.929 . S
H1405 C1419 0.931 1_554 S
H1406 C1421 0.930 . S
C1407 H1395 0.930 . S
C1407 C1408 1.399 . S
C1407 C1412 1.399 . S
C1408 C1407 1.399 . S
C1408 C1409 1.376 . S
C1409 H1396 0.930 . S
C1409 C1408 1.376 . S
C1409 C1410 1.388 . S
C1410 H1397 0.930 . S
C1410 C1409 1.388 . S
C1410 C1411 1.390 . S
C1411 C1410 1.390 . S
C1411 C1412 1.394 . S
C1411 C1417 1.465 . S
C1412 C1407 1.399 . S
C1412 C1411 1.394 . S
C1412 C1413 1.516 . S
C1413 C1412 1.516 . S
C1413 C1414 1.502 . S
C1413 C1415 1.561 . S
C1413 C1416 1.526 . S
C1414 H1398 0.959 . S
C1414 H1399 0.959 . S
C1414 H1400 0.961 . S
C1414 C1413 1.502 . S
C1415 H1401 0.960 . S
C1415 H1402 0.961 . S
C1415 H1403 0.959 . S
C1415 C1413 1.561 . S
C1416 C1413 1.526 . S
C1416 C1417 1.396 . S
C1416 C1421 1.390 . S
C1417 C1411 1.465 . S
C1417 C1416 1.396 . S
C1417 C1418 1.399 . S
C1418 H1404 0.929 . S
C1418 C1417 1.399 . S
C1418 C1419 1.385 . S
C1419 H1405 0.931 1_556 S
C1419 C1418 1.385 . S
C1419 C1420 1.389 . S
C1420 C1419 1.389 . S
C1420 C1421 1.387 . S
C1421 H1406 0.930 . S
C1421 C1416 1.390 . S
C1421 C1420 1.387 . S
H1422 C1434 0.930 . S
H1423 C1436 0.930 . S
H1424 C1437 0.930 . S
H1425 C1441 0.959 . S
H1426 C1441 0.959 . S
H1427 C1441 0.961 . S
H1428 C1442 0.960 . S
H1429 C1442 0.961 . S
H1430 C1442 0.959 . S
H1431 C1445 0.929 . S
H1432 C1446 0.931 . S
H1433 C1448 0.930 . S
C1434 H1422 0.930 . S
C1434 C1435 1.399 . S
C1434 C1439 1.399 . S
C1435 C1434 1.399 . S
C1435 C1436 1.376 . S
C1436 H1423 0.930 . S
C1436 C1435 1.376 . S
C1436 C1437 1.388 . S
C1437 H1424 0.930 . S
C1437 C1436 1.388 . S
C1437 C1438 1.390 . S
C1438 C1437 1.390 . S
C1438 C1439 1.394 . S
C1438 C1444 1.465 . S
C1439 C1434 1.399 . S
C1439 C1438 1.394 . S
C1439 C1440 1.516 . S
C1440 C1439 1.516 . S
C1440 C1441 1.502 . S
C1440 C1442 1.561 . S
C1440 C1443 1.526 . S
C1441 H1425 0.959 . S
C1441 H1426 0.959 . S
C1441 H1427 0.961 . S
C1441 C1440 1.502 . S
C1442 H1428 0.960 . S
C1442 H1429 0.961 . S
C1442 H1430 0.959 . S
C1442 C1440 1.561 . S
C1443 C1440 1.526 . S
C1443 C1444 1.396 . S
C1443 C1448 1.390 . S
C1444 C1438 1.465 . S
C1444 C1443 1.396 . S
C1444 C1445 1.399 . S
C1445 H1431 0.929 . S
C1445 C1444 1.399 . S
C1445 C1446 1.385 . S
C1446 H1432 0.931 . S
C1446 C1445 1.385 . S
C1446 C1447 1.389 . S
C1447 C1446 1.389 . S
C1447 C1448 1.387 . S
C1448 H1433 0.930 . S
C1448 C1443 1.390 . S
C1448 C1447 1.387 . S
H1449 C1461 0.930 . S
H1450 C1463 0.930 . S
H1451 C1464 0.930 . S
H1452 C1468 0.959 . S
H1453 C1468 0.959 . S
H1454 C1468 0.961 . S
H1455 C1469 0.960 . S
H1456 C1469 0.961 . S
H1457 C1469 0.959 . S
H1458 C1472 0.929 . S
H1459 C1473 0.931 . S
H1460 C1475 0.930 . S
C1461 H1449 0.930 . S
C1461 C1462 1.399 . S
C1461 C1466 1.399 . S
C1462 C1461 1.399 . S
C1462 C1463 1.376 . S
C1463 H1450 0.930 . S
C1463 C1462 1.376 . S
C1463 C1464 1.388 . S
C1464 H1451 0.930 . S
C1464 C1463 1.388 . S
C1464 C1465 1.390 . S
C1465 C1464 1.390 . S
C1465 C1466 1.394 . S
C1465 C1471 1.465 . S
C1466 C1461 1.399 . S
C1466 C1465 1.394 . S
C1466 C1467 1.516 . S
C1467 C1466 1.516 . S
C1467 C1468 1.502 . S
C1467 C1469 1.561 . S
C1467 C1470 1.526 . S
C1468 H1452 0.959 . S
C1468 H1453 0.959 . S
C1468 H1454 0.961 . S
C1468 C1467 1.502 . S
C1469 H1455 0.960 . S
C1469 H1456 0.961 . S
C1469 H1457 0.959 . S
C1469 C1467 1.561 . S
C1470 C1467 1.526 . S
C1470 C1471 1.396 . S
C1470 C1475 1.390 . S
C1471 C1465 1.465 . S
C1471 C1470 1.396 . S
C1471 C1472 1.399 . S
C1472 H1458 0.929 . S
C1472 C1471 1.399 . S
C1472 C1473 1.385 . S
C1473 H1459 0.931 . S
C1473 C1472 1.385 . S
C1473 C1474 1.389 . S
C1474 C1473 1.389 . S
C1474 C1475 1.387 . S
C1475 H1460 0.930 . S
C1475 C1470 1.390 . S
C1475 C1474 1.387 . S
H1476 C1488 0.930 . S
H1477 C1490 0.930 . S
H1478 C1491 0.930 . S
H1479 C1495 0.959 . S
H1480 C1495 0.959 . S
H1481 C1495 0.961 . S
H1482 C1496 0.960 . S
H1483 C1496 0.961 . S
H1484 C1496 0.959 . S
H1485 C1499 0.929 . S
H1486 C1500 0.931 . S
H1487 C1502 0.930 . S
C1488 H1476 0.930 . S
C1488 C1489 1.399 . S
C1488 C1493 1.399 . S
C1489 C1488 1.399 . S
C1489 C1490 1.376 . S
C1490 H1477 0.930 . S
C1490 C1489 1.376 . S
C1490 C1491 1.388 . S
C1491 H1478 0.930 . S
C1491 C1490 1.388 . S
C1491 C1492 1.390 . S
C1492 C1491 1.390 . S
C1492 C1493 1.394 . S
C1492 C1498 1.465 . S
C1493 C1488 1.399 . S
C1493 C1492 1.394 . S
C1493 C1494 1.516 . S
C1494 C1493 1.516 . S
C1494 C1495 1.502 . S
C1494 C1496 1.561 . S
C1494 C1497 1.526 . S
C1495 H1479 0.959 . S
C1495 H1480 0.959 . S
C1495 H1481 0.961 . S
C1495 C1494 1.502 . S
C1496 H1482 0.960 . S
C1496 H1483 0.961 . S
C1496 H1484 0.959 . S
C1496 C1494 1.561 . S
C1497 C1494 1.526 . S
C1497 C1498 1.396 . S
C1497 C1502 1.390 . S
C1498 C1492 1.465 . S
C1498 C1497 1.396 . S
C1498 C1499 1.399 . S
C1499 H1485 0.929 . S
C1499 C1498 1.399 . S
C1499 C1500 1.385 . S
C1500 H1486 0.931 . S
C1500 C1499 1.385 . S
C1500 C1501 1.389 . S
C1501 C1500 1.389 . S
C1501 C1502 1.387 . S
C1502 H1487 0.930 . S
C1502 C1497 1.390 . S
C1502 C1501 1.387 . S
H1503 C1515 0.930 . S
H1504 C1517 0.930 . S
H1505 C1518 0.930 . S
H1506 C1522 0.959 . S
H1507 C1522 0.959 . S
H1508 C1522 0.961 . S
H1509 C1523 0.960 . S
H1510 C1523 0.961 . S
H1511 C1523 0.959 . S
H1512 C1526 0.929 . S
H1513 C1527 0.931 . S
H1514 C1529 0.930 . S
C1515 H1503 0.930 . S
C1515 C1516 1.399 . S
C1515 C1520 1.399 . S
C1516 C1515 1.399 . S
C1516 C1517 1.376 . S
C1517 H1504 0.930 . S
C1517 C1516 1.376 . S
C1517 C1518 1.388 . S
C1518 H1505 0.930 . S
C1518 C1517 1.388 . S
C1518 C1519 1.390 . S
C1519 C1518 1.390 . S
C1519 C1520 1.394 . S
C1519 C1525 1.465 . S
C1520 C1515 1.399 . S
C1520 C1519 1.394 . S
C1520 C1521 1.516 . S
C1521 C1520 1.516 . S
C1521 C1522 1.502 . S
C1521 C1523 1.561 . S
C1521 C1524 1.526 . S
C1522 H1506 0.959 . S
C1522 H1507 0.959 . S
C1522 H1508 0.961 . S
C1522 C1521 1.502 . S
C1523 H1509 0.960 . S
C1523 H1510 0.961 . S
C1523 H1511 0.959 . S
C1523 C1521 1.561 . S
C1524 C1521 1.526 . S
C1524 C1525 1.396 . S
C1524 C1529 1.390 . S
C1525 C1519 1.465 . S
C1525 C1524 1.396 . S
C1525 C1526 1.399 . S
C1526 H1512 0.929 . S
C1526 C1525 1.399 . S
C1526 C1527 1.385 . S
C1527 H1513 0.931 . S
C1527 C1526 1.385 . S
C1527 C1528 1.389 . S
C1528 C1527 1.389 . S
C1528 C1529 1.387 . S
C1529 H1514 0.930 . S
C1529 C1524 1.390 . S
C1529 C1528 1.387 . S
H1530 C1542 0.930 . S
H1531 C1544 0.930 . S
H1532 C1545 0.930 . S
H1533 C1549 0.959 . S
H1534 C1549 0.959 . S
H1535 C1549 0.961 . S
H1536 C1550 0.960 . S
H1537 C1550 0.961 . S
H1538 C1550 0.959 . S
H1539 C1553 0.929 . S
H1540 C1554 0.931 . S
H1541 C1556 0.930 . S
C1542 H1530 0.930 . S
C1542 C1543 1.399 . S
C1542 C1547 1.399 . S
C1543 C1542 1.399 . S
C1543 C1544 1.376 . S
C1544 H1531 0.930 . S
C1544 C1543 1.376 . S
C1544 C1545 1.388 . S
C1545 H1532 0.930 . S
C1545 C1544 1.388 . S
C1545 C1546 1.390 . S
C1546 C1545 1.390 . S
C1546 C1547 1.394 . S
C1546 C1552 1.465 . S
C1547 C1542 1.399 . S
C1547 C1546 1.394 . S
C1547 C1548 1.516 . S
C1548 C1547 1.516 . S
C1548 C1549 1.502 . S
C1548 C1550 1.561 . S
C1548 C1551 1.526 . S
C1549 H1533 0.959 . S
C1549 H1534 0.959 . S
C1549 H1535 0.961 . S
C1549 C1548 1.502 . S
C1550 H1536 0.960 . S
C1550 H1537 0.961 . S
C1550 H1538 0.959 . S
C1550 C1548 1.561 . S
C1551 C1548 1.526 . S
C1551 C1552 1.396 . S
C1551 C1556 1.390 . S
C1552 C1546 1.465 . S
C1552 C1551 1.396 . S
C1552 C1553 1.399 . S
C1553 H1539 0.929 . S
C1553 C1552 1.399 . S
C1553 C1554 1.385 . S
C1554 H1540 0.931 . S
C1554 C1553 1.385 . S
C1554 C1555 1.389 . S
C1555 C1554 1.389 . S
C1555 C1556 1.387 . S
C1556 H1541 0.930 . S
C1556 C1551 1.390 . S
C1556 C1555 1.387 . S
H1557 C1569 0.930 . S
H1558 C1571 0.930 . S
H1559 C1572 0.930 . S
H1560 C1576 0.959 . S
H1561 C1576 0.959 . S
H1562 C1576 0.961 . S
H1563 C1577 0.960 . S
H1564 C1577 0.961 . S
H1565 C1577 0.959 . S
H1566 C1580 0.929 . S
H1567 C1581 0.931 . S
H1568 C1583 0.930 . S
C1569 H1557 0.930 . S
C1569 C1570 1.399 . S
C1569 C1574 1.399 . S
C1570 C1569 1.399 . S
C1570 C1571 1.376 . S
C1571 H1558 0.930 . S
C1571 C1570 1.376 . S
C1571 C1572 1.388 . S
C1572 H1559 0.930 . S
C1572 C1571 1.388 . S
C1572 C1573 1.390 . S
C1573 C1572 1.390 . S
C1573 C1574 1.394 . S
C1573 C1579 1.465 . S
C1574 C1569 1.399 . S
C1574 C1573 1.394 . S
C1574 C1575 1.516 . S
C1575 C1574 1.516 . S
C1575 C1576 1.502 . S
C1575 C1577 1.561 . S
C1575 C1578 1.526 . S
C1576 H1560 0.959 . S
C1576 H1561 0.959 . S
C1576 H1562 0.961 . S
C1576 C1575 1.502 . S
C1577 H1563 0.960 . S
C1577 H1564 0.961 . S
C1577 H1565 0.959 . S
C1577 C1575 1.561 . S
C1578 C1575 1.526 . S
C1578 C1579 1.396 . S
C1578 C1583 1.390 . S
C1579 C1573 1.465 . S
C1579 C1578 1.396 . S
C1579 C1580 1.399 . S
C1580 H1566 0.929 . S
C1580 C1579 1.399 . S
C1580 C1581 1.385 . S
C1581 H1567 0.931 . S
C1581 C1580 1.385 . S
C1581 C1582 1.389 . S
C1582 C1581 1.389 . S
C1582 C1583 1.387 . S
C1583 H1568 0.930 . S
C1583 C1578 1.390 . S
C1583 C1582 1.387 . S
H1584 C1596 0.930 . S
H1585 C1598 0.930 . S
H1586 C1599 0.930 . S
H1587 C1603 0.959 . S
H1588 C1603 0.959 . S
H1589 C1603 0.961 . S
H1590 C1604 0.960 . S
H1591 C1604 0.961 . S
H1592 C1604 0.959 . S
H1593 C1607 0.929 . S
H1594 C1608 0.931 . S
H1595 C1610 0.930 . S
C1596 H1584 0.930 . S
C1596 C1597 1.399 . S
C1596 C1601 1.399 . S
C1597 C1596 1.399 . S
C1597 C1598 1.376 . S
C1598 H1585 0.930 . S
C1598 C1597 1.376 . S
C1598 C1599 1.388 . S
C1599 H1586 0.930 . S
C1599 C1598 1.388 . S
C1599 C1600 1.390 . S
C1600 C1599 1.390 . S
C1600 C1601 1.394 . S
C1600 C1606 1.465 . S
C1601 C1596 1.399 . S
C1601 C1600 1.394 . S
C1601 C1602 1.516 . S
C1602 C1601 1.516 . S
C1602 C1603 1.502 . S
C1602 C1604 1.561 . S
C1602 C1605 1.526 . S
C1603 H1587 0.959 . S
C1603 H1588 0.959 . S
C1603 H1589 0.961 . S
C1603 C1602 1.502 . S
C1604 H1590 0.960 . S
C1604 H1591 0.961 . S
C1604 H1592 0.959 . S
C1604 C1602 1.561 . S
C1605 C1602 1.526 . S
C1605 C1606 1.396 . S
C1605 C1610 1.390 . S
C1606 C1600 1.465 . S
C1606 C1605 1.396 . S
C1606 C1607 1.399 . S
C1607 H1593 0.929 . S
C1607 C1606 1.399 . S
C1607 C1608 1.385 . S
C1608 H1594 0.931 . S
C1608 C1607 1.385 . S
C1608 C1609 1.389 . S
C1609 C1608 1.389 . S
C1609 C1610 1.387 . S
C1610 H1595 0.930 . S
C1610 C1605 1.390 . S
C1610 C1609 1.387 . S
H1611 C1623 0.930 . S
H1612 C1625 0.930 . S
H1613 C1626 0.930 . S
H1614 C1630 0.959 . S
H1615 C1630 0.959 . S
H1616 C1630 0.961 . S
H1617 C1631 0.960 . S
H1618 C1631 0.961 . S
H1619 C1631 0.959 . S
H1620 C1634 0.929 . S
H1621 C1635 0.931 . S
H1622 C1637 0.930 . S
C1623 H1611 0.930 . S
C1623 C1624 1.399 . S
C1623 C1628 1.399 . S
C1624 C1623 1.399 . S
C1624 C1625 1.376 . S
C1625 H1612 0.930 . S
C1625 C1624 1.376 . S
C1625 C1626 1.388 . S
C1626 H1613 0.930 . S
C1626 C1625 1.388 . S
C1626 C1627 1.390 . S
C1627 C1626 1.390 . S
C1627 C1628 1.394 . S
C1627 C1633 1.465 . S
C1628 C1623 1.399 . S
C1628 C1627 1.394 . S
C1628 C1629 1.516 . S
C1629 C1628 1.516 . S
C1629 C1630 1.502 . S
C1629 C1631 1.561 . S
C1629 C1632 1.526 . S
C1630 H1614 0.959 . S
C1630 H1615 0.959 . S
C1630 H1616 0.961 . S
C1630 C1629 1.502 . S
C1631 H1617 0.960 . S
C1631 H1618 0.961 . S
C1631 H1619 0.959 . S
C1631 C1629 1.561 . S
C1632 C1629 1.526 . S
C1632 C1633 1.396 . S
C1632 C1637 1.390 . S
C1633 C1627 1.465 . S
C1633 C1632 1.396 . S
C1633 C1634 1.399 . S
C1634 H1620 0.929 . S
C1634 C1633 1.399 . S
C1634 C1635 1.385 . S
C1635 H1621 0.931 . S
C1635 C1634 1.385 . S
C1635 C1636 1.389 . S
C1636 C1635 1.389 . S
C1636 C1637 1.387 . S
C1637 H1622 0.930 . S
C1637 C1632 1.390 . S
C1637 C1636 1.387 . S
H1638 C1650 0.930 . S
H1639 C1652 0.930 . S
H1640 C1653 0.930 . S
H1641 C1657 0.959 . S
H1642 C1657 0.959 . S
H1643 C1657 0.961 . S
H1644 C1658 0.960 . S
H1645 C1658 0.961 . S
H1646 C1658 0.959 . S
H1647 C1661 0.929 . S
H1648 C1662 0.931 1_565 S
H1649 C1664 0.930 . S
C1650 H1638 0.930 . S
C1650 C1651 1.399 . S
C1650 C1655 1.399 . S
C1651 C1650 1.399 . S
C1651 C1652 1.376 1_545 S
C1652 H1639 0.930 . S
C1652 C1651 1.376 1_565 S
C1652 C1653 1.388 . S
C1653 H1640 0.930 . S
C1653 C1652 1.388 . S
C1653 C1654 1.390 1_565 S
C1654 C1653 1.390 1_545 S
C1654 C1655 1.394 . S
C1654 C1660 1.465 . S
C1655 C1650 1.399 . S
C1655 C1654 1.394 . S
C1655 C1656 1.516 . S
C1656 C1655 1.516 . S
C1656 C1657 1.502 . S
C1656 C1658 1.561 . S
C1656 C1659 1.526 . S
C1657 H1641 0.959 . S
C1657 H1642 0.959 . S
C1657 H1643 0.961 . S
C1657 C1656 1.502 . S
C1658 H1644 0.960 . S
C1658 H1645 0.961 . S
C1658 H1646 0.959 . S
C1658 C1656 1.561 . S
C1659 C1656 1.526 . S
C1659 C1660 1.396 . S
C1659 C1664 1.390 . S
C1660 C1654 1.465 . S
C1660 C1659 1.396 . S
C1660 C1661 1.399 1_545 S
C1661 H1647 0.929 . S
C1661 C1660 1.399 1_565 S
C1661 C1662 1.385 1_565 S
C1662 H1648 0.931 1_545 S
C1662 C1661 1.385 1_545 S
C1662 C1663 1.389 . S
C1663 C1662 1.389 . S
C1663 C1664 1.387 . S
C1664 H1649 0.930 . S
C1664 C1659 1.390 . S
C1664 C1663 1.387 . S
H1665 C1677 0.930 . S
H1666 C1679 0.930 . S
H1667 C1680 0.930 . S
H1668 C1684 0.980 . S
H1669 C1684 0.959 . S
H1670 C1684 0.961 . S
H1671 C1685 0.960 . S
H1672 C1685 0.961 . S
H1673 C1685 0.959 . S
H1674 C1688 0.929 . S
H1675 C1689 0.931 . S
H1676 C1691 0.930 . S
C1677 H1665 0.930 . S
C1677 C1678 1.399 . S
C1677 C1682 1.399 . S
C1678 C1677 1.399 . S
C1678 C1679 1.376 1_655 S
C1679 H1666 0.930 . S
C1679 C1678 1.376 1_455 S
C1679 C1680 1.388 . S
C1680 H1667 0.930 . S
C1680 C1679 1.388 . S
C1680 C1681 1.390 . S
C1681 C1680 1.390 . S
C1681 C1682 1.394 1_455 S
C1681 C1687 1.465 . S
C1682 C1677 1.399 . S
C1682 C1681 1.394 1_655 S
C1682 C1683 1.516 . S
C1683 C1682 1.516 . S
C1683 C1684 1.502 . S
C1683 C1685 1.561 . S
C1683 C1686 1.526 . S
C1684 H1668 0.980 . S
C1684 H1669 0.959 . S
C1684 H1670 0.961 . S
C1684 C1683 1.502 . S
C1685 H1671 0.960 . S
C1685 H1672 0.961 . S
C1685 H1673 0.959 . S
C1685 C1683 1.561 . S
C1686 C1683 1.526 . S
C1686 C1687 1.396 1_655 S
C1686 C1691 1.390 . S
C1687 C1681 1.465 . S
C1687 C1686 1.396 1_455 S
C1687 C1688 1.399 . S
C1688 H1674 0.929 . S
C1688 C1687 1.399 . S
C1688 C1689 1.385 . S
C1689 H1675 0.931 . S
C1689 C1688 1.385 . S
C1689 C1690 1.389 1_455 S
C1690 C1689 1.389 1_655 S
C1690 C1691 1.387 . S
C1691 H1676 0.930 . S
C1691 C1686 1.390 . S
C1691 C1690 1.387 . S
H1692 C1704 0.930 . S
H1693 C1706 0.930 . S
H1694 C1707 0.930 . S
H1695 C1711 0.959 . S
H1696 C1711 0.959 . S
H1697 C1711 0.961 . S
H1698 C1712 0.960 . S
H1699 C1712 0.961 . S
H1700 C1712 0.959 . S
H1701 C1715 0.929 . S
H1702 C1716 0.931 . S
H1703 C1718 0.930 . S
C1704 H1692 0.930 . S
C1704 C1705 1.399 . S
C1704 C1709 1.399 . S
C1705 C1704 1.399 . S
C1705 C1706 1.376 . S
C1706 H1693 0.930 . S
C1706 C1705 1.376 . S
C1706 C1707 1.388 . S
C1707 H1694 0.930 . S
C1707 C1706 1.388 . S
C1707 C1708 1.390 . S
C1708 C1707 1.390 . S
C1708 C1709 1.394 . S
C1708 C1714 1.465 . S
C1709 C1704 1.399 . S
C1709 C1708 1.394 . S
C1709 C1710 1.516 . S
C1710 C1709 1.516 . S
C1710 C1711 1.502 . S
C1710 C1712 1.561 . S
C1710 C1713 1.526 . S
C1711 H1695 0.959 . S
C1711 H1696 0.959 . S
C1711 H1697 0.961 . S
C1711 C1710 1.502 . S
C1712 H1698 0.960 . S
C1712 H1699 0.961 . S
C1712 H1700 0.959 . S
C1712 C1710 1.561 . S
C1713 C1710 1.526 . S
C1713 C1714 1.396 . S
C1713 C1718 1.390 . S
C1714 C1708 1.465 . S
C1714 C1713 1.396 . S
C1714 C1715 1.399 . S
C1715 H1701 0.929 . S
C1715 C1714 1.399 . S
C1715 C1716 1.385 . S
C1716 H1702 0.931 . S
C1716 C1715 1.385 . S
C1716 C1717 1.389 . S
C1717 C1716 1.389 . S
C1717 C1718 1.387 . S
C1718 H1703 0.930 . S
C1718 C1713 1.390 . S
C1718 C1717 1.387 . S
H1719 C1731 0.930 . S
H1720 C1733 0.930 . S
H1721 C1734 0.930 . S
H1722 C1738 0.959 . S
H1723 C1738 0.959 . S
H1724 C1738 0.961 . S
H1725 C1739 0.960 . S
H1726 C1739 0.961 . S
H1727 C1739 0.959 . S
H1728 C1742 0.929 . S
H1729 C1743 0.931 . S
H1730 C1745 0.930 . S
C1731 H1719 0.930 . S
C1731 C1732 1.399 . S
C1731 C1736 1.399 . S
C1732 C1731 1.399 . S
C1732 C1733 1.376 . S
C1733 H1720 0.930 . S
C1733 C1732 1.376 . S
C1733 C1734 1.388 . S
C1734 H1721 0.930 . S
C1734 C1733 1.388 . S
C1734 C1735 1.390 . S
C1735 C1734 1.390 . S
C1735 C1736 1.394 . S
C1735 C1741 1.465 . S
C1736 C1731 1.399 . S
C1736 C1735 1.394 . S
C1736 C1737 1.516 . S
C1737 C1736 1.516 . S
C1737 C1738 1.502 . S
C1737 C1739 1.561 1_455 S
C1737 C1740 1.526 . S
C1738 H1722 0.959 . S
C1738 H1723 0.959 . S
C1738 H1724 0.961 . S
C1738 C1737 1.502 . S
C1739 H1725 0.960 . S
C1739 H1726 0.961 . S
C1739 H1727 0.959 . S
C1739 C1737 1.561 1_655 S
C1740 C1737 1.526 . S
C1740 C1741 1.396 . S
C1740 C1745 1.390 . S
C1741 C1735 1.465 . S
C1741 C1740 1.396 . S
C1741 C1742 1.399 . S
C1742 H1728 0.929 . S
C1742 C1741 1.399 . S
C1742 C1743 1.385 . S
C1743 H1729 0.931 . S
C1743 C1742 1.385 . S
C1743 C1744 1.389 . S
C1744 C1743 1.389 . S
C1744 C1745 1.387 . S
C1745 H1730 0.930 . S
C1745 C1740 1.390 . S
C1745 C1744 1.387 . S
H1746 C1758 0.930 . S
H1747 C1760 0.930 . S
H1748 C1761 0.930 . S
H1749 C1765 0.959 . S
H1750 C1765 0.959 . S
H1751 C1765 0.961 . S
H1752 C1766 0.960 . S
H1753 C1766 0.961 . S
H1754 C1766 0.959 . S
H1755 C1769 0.929 . S
H1756 C1770 0.931 . S
H1757 C1772 0.930 . S
C1758 H1746 0.930 . S
C1758 C1759 1.399 . S
C1758 C1763 1.399 . S
C1759 C1758 1.399 . S
C1759 C1760 1.376 . S
C1760 H1747 0.930 . S
C1760 C1759 1.376 . S
C1760 C1761 1.388 . S
C1761 H1748 0.930 . S
C1761 C1760 1.388 . S
C1761 C1762 1.390 . S
C1762 C1761 1.390 . S
C1762 C1763 1.394 . S
C1762 C1768 1.465 . S
C1763 C1758 1.399 . S
C1763 C1762 1.394 . S
C1763 C1764 1.516 . S
C1764 C1763 1.516 . S
C1764 C1765 1.502 . S
C1764 C1766 1.561 . S
C1764 C1767 1.526 . S
C1765 H1749 0.959 . S
C1765 H1750 0.959 . S
C1765 H1751 0.961 . S
C1765 C1764 1.502 . S
C1766 H1752 0.960 . S
C1766 H1753 0.961 . S
C1766 H1754 0.959 . S
C1766 C1764 1.561 . S
C1767 C1764 1.526 . S
C1767 C1768 1.396 . S
C1767 C1772 1.390 . S
C1768 C1762 1.465 . S
C1768 C1767 1.396 . S
C1768 C1769 1.399 . S
C1769 H1755 0.929 . S
C1769 C1768 1.399 . S
C1769 C1770 1.385 . S
C1770 H1756 0.931 . S
C1770 C1769 1.385 . S
C1770 C1771 1.389 . S
C1771 C1770 1.389 . S
C1771 C1772 1.387 . S
C1772 H1757 0.930 . S
C1772 C1767 1.390 . S
C1772 C1771 1.387 . S
H1773 C1785 0.930 . S
H1774 C1787 0.930 . S
H1775 C1788 0.930 . S
H1776 C1792 0.959 . S
H1777 C1792 0.959 . S
H1778 C1792 0.961 . S
H1779 C1793 0.960 . S
H1780 C1793 0.961 . S
H1781 C1793 0.959 . S
H1782 C1796 0.929 . S
H1783 C1797 0.931 . S
H1784 C1799 0.930 . S
C1785 H1773 0.930 . S
C1785 C1786 1.399 . S
C1785 C1790 1.399 . S
C1786 C1785 1.399 . S
C1786 C1787 1.376 1_545 S
C1787 H1774 0.930 . S
C1787 C1786 1.376 1_565 S
C1787 C1788 1.388 . S
C1788 H1775 0.930 . S
C1788 C1787 1.388 . S
C1788 C1789 1.390 . S
C1789 C1788 1.390 . S
C1789 C1790 1.394 1_565 S
C1789 C1795 1.465 . S
C1790 C1785 1.399 . S
C1790 C1789 1.394 1_545 S
C1790 C1791 1.516 . S
C1791 C1790 1.516 . S
C1791 C1792 1.502 . S
C1791 C1793 1.561 . S
C1791 C1794 1.526 . S
C1792 H1776 0.959 . S
C1792 H1777 0.959 . S
C1792 H1778 0.961 . S
C1792 C1791 1.502 . S
C1793 H1779 0.960 . S
C1793 H1780 0.961 . S
C1793 H1781 0.959 . S
C1793 C1791 1.561 . S
C1794 C1791 1.526 . S
C1794 C1795 1.396 1_545 S
C1794 C1799 1.390 . S
C1795 C1789 1.465 . S
C1795 C1794 1.396 1_565 S
C1795 C1796 1.399 . S
C1796 H1782 0.929 . S
C1796 C1795 1.399 . S
C1796 C1797 1.385 . S
C1797 H1783 0.931 . S
C1797 C1796 1.385 . S
C1797 C1798 1.389 . S
C1798 C1797 1.389 . S
C1798 C1799 1.387 1_565 S
C1799 H1784 0.930 . S
C1799 C1794 1.390 . S
C1799 C1798 1.387 1_545 S
H1800 C1812 0.930 . S
H1801 C1814 0.930 . S
H1802 C1815 0.930 . S
H1803 C1819 0.959 . S
H1804 C1819 0.959 . S
H1805 C1819 0.961 . S
H1806 C1820 0.960 . S
H1807 C1820 0.961 . S
H1808 C1820 0.959 . S
H1809 C1823 0.929 . S
H1810 C1824 0.931 . S
H1811 C1826 0.930 . S
C1812 H1800 0.930 . S
C1812 C1813 1.399 . S
C1812 C1817 1.399 . S
C1813 C1812 1.399 . S
C1813 C1814 1.376 1_545 S
C1814 H1801 0.930 . S
C1814 C1813 1.376 1_565 S
C1814 C1815 1.388 . S
C1815 H1802 0.930 . S
C1815 C1814 1.388 . S
C1815 C1816 1.390 . S
C1816 C1815 1.390 . S
C1816 C1817 1.393 1_565 S
C1816 C1822 1.466 . S
C1817 C1812 1.399 . S
C1817 C1816 1.393 1_545 S
C1817 C1818 1.516 . S
C1818 C1817 1.516 . S
C1818 C1819 1.502 . S
C1818 C1820 1.561 . S
C1818 C1821 1.526 . S
C1819 H1803 0.959 . S
C1819 H1804 0.959 . S
C1819 H1805 0.961 . S
C1819 C1818 1.502 . S
C1820 H1806 0.960 . S
C1820 H1807 0.961 . S
C1820 H1808 0.959 . S
C1820 C1818 1.561 . S
C1821 C1818 1.526 . S
C1821 C1822 1.396 1_545 S
C1821 C1826 1.390 . S
C1822 C1816 1.466 . S
C1822 C1821 1.396 1_565 S
C1822 C1823 1.399 . S
C1823 H1809 0.929 . S
C1823 C1822 1.399 . S
C1823 C1824 1.385 . S
C1824 H1810 0.931 . S
C1824 C1823 1.385 . S
C1824 C1825 1.389 . S
C1825 C1824 1.389 . S
C1825 C1826 1.387 1_565 S
C1826 H1811 0.930 . S
C1826 C1821 1.390 . S
C1826 C1825 1.387 1_545 S
H1827 C1839 0.930 . S
H1828 C1841 0.939 . S
H1829 C1842 0.930 1_655 S
H1830 C1846 0.959 . S
H1831 C1846 0.959 . S
H1832 C1846 0.961 . S
H1833 C1847 0.960 . S
H1834 C1847 0.961 . S
H1835 C1847 0.959 . S
H1836 C1850 0.929 1_655 S
H1837 C1851 0.931 . S
H1838 C1853 0.930 . S
C1839 H1827 0.930 . S
C1839 C1840 1.399 . S
C1839 C1844 1.399 . S
C1840 C1839 1.399 . S
C1840 C1841 1.376 . S
C1841 H1828 0.939 . S
C1841 C1840 1.376 . S
C1841 C1842 1.388 . S
C1842 H1829 0.930 1_455 S
C1842 C1841 1.388 . S
C1842 C1843 1.390 . S
C1843 C1842 1.390 . S
C1843 C1844 1.394 . S
C1843 C1849 1.465 . S
C1844 C1839 1.399 . S
C1844 C1843 1.394 . S
C1844 C1845 1.516 . S
C1845 C1844 1.516 . S
C1845 C1846 1.502 . S
C1845 C1847 1.561 . S
C1845 C1848 1.526 . S
C1846 H1830 0.959 . S
C1846 H1831 0.959 . S
C1846 H1832 0.961 . S
C1846 C1845 1.502 . S
C1847 H1833 0.960 . S
C1847 H1834 0.961 . S
C1847 H1835 0.959 . S
C1847 C1845 1.561 . S
C1848 C1845 1.526 . S
C1848 C1849 1.396 . S
C1848 C1853 1.390 . S
C1849 C1843 1.465 . S
C1849 C1848 1.396 . S
C1849 C1850 1.399 . S
C1850 H1836 0.929 1_455 S
C1850 C1849 1.399 . S
C1850 C1851 1.385 . S
C1851 H1837 0.931 . S
C1851 C1850 1.385 . S
C1851 C1852 1.389 . S
C1852 C1851 1.389 . S
C1852 C1853 1.387 . S
C1853 H1838 0.930 . S
C1853 C1848 1.390 . S
C1853 C1852 1.387 . S
H1854 C1866 0.930 . S
H1855 C1868 0.930 . S
H1856 C1869 0.930 . S
H1857 C1873 0.959 . S
H1858 C1873 0.959 . S
H1859 C1873 0.961 . S
H1860 C1874 0.960 . S
H1861 C1874 0.961 . S
H1862 C1874 0.959 . S
H1863 C1877 0.929 . S
H1864 C1878 0.931 . S
H1865 C1880 0.930 . S
C1866 H1854 0.930 . S
C1866 C1867 1.399 . S
C1866 C1871 1.399 . S
C1867 C1866 1.399 . S
C1867 C1868 1.376 . S
C1868 H1855 0.930 . S
C1868 C1867 1.376 . S
C1868 C1869 1.388 . S
C1869 H1856 0.930 . S
C1869 C1868 1.388 . S
C1869 C1870 1.390 . S
C1870 C1869 1.390 . S
C1870 C1871 1.394 . S
C1870 C1876 1.465 . S
C1871 C1866 1.399 . S
C1871 C1870 1.394 . S
C1871 C1872 1.516 . S
C1872 C1871 1.516 . S
C1872 C1873 1.502 . S
C1872 C1874 1.561 . S
C1872 C1875 1.526 . S
C1873 H1857 0.959 . S
C1873 H1858 0.959 . S
C1873 H1859 0.961 . S
C1873 C1872 1.502 . S
C1874 H1860 0.960 . S
C1874 H1861 0.961 . S
C1874 H1862 0.959 . S
C1874 C1872 1.561 . S
C1875 C1872 1.526 . S
C1875 C1876 1.396 . S
C1875 C1880 1.390 . S
C1876 C1870 1.465 . S
C1876 C1875 1.396 . S
C1876 C1877 1.399 . S
C1877 H1863 0.929 . S
C1877 C1876 1.399 . S
C1877 C1878 1.385 . S
C1878 H1864 0.931 . S
C1878 C1877 1.385 . S
C1878 C1879 1.389 . S
C1879 C1878 1.389 . S
C1879 C1880 1.387 . S
C1880 H1865 0.930 . S
C1880 C1875 1.390 . S
C1880 C1879 1.387 . S
H1881 C1893 0.930 . S
H1882 C1895 0.930 . S
H1883 C1896 0.930 . S
H1884 C1900 0.959 . S
H1885 C1900 0.959 . S
H1886 C1900 0.961 . S
H1887 C1901 0.960 . S
H1888 C1901 0.961 . S
H1889 C1901 0.959 1_655 S
H1890 C1904 0.929 . S
H1891 C1905 0.931 . S
H1892 C1907 0.930 . S
C1893 H1881 0.930 . S
C1893 C1894 1.399 1_455 S
C1893 C1898 1.399 . S
C1894 C1893 1.399 1_655 S
C1894 C1895 1.376 . S
C1895 H1882 0.930 . S
C1895 C1894 1.376 . S
C1895 C1896 1.388 . S
C1896 H1883 0.930 . S
C1896 C1895 1.388 . S
C1896 C1897 1.390 . S
C1897 C1896 1.390 . S
C1897 C1898 1.394 1_655 S
C1897 C1903 1.465 . S
C1898 C1893 1.399 . S
C1898 C1897 1.394 1_455 S
C1898 C1899 1.516 . S
C1899 C1898 1.516 . S
C1899 C1900 1.502 . S
C1899 C1901 1.561 . S
C1899 C1902 1.526 . S
C1900 H1884 0.959 . S
C1900 H1885 0.959 . S
C1900 H1886 0.961 . S
C1900 C1899 1.502 . S
C1901 H1887 0.960 . S
C1901 H1888 0.961 . S
C1901 H1889 0.959 1_455 S
C1901 C1899 1.561 . S
C1902 C1899 1.526 . S
C1902 C1903 1.396 1_455 S
C1902 C1907 1.390 . S
C1903 C1897 1.465 . S
C1903 C1902 1.396 1_655 S
C1903 C1904 1.399 . S
C1904 H1890 0.929 . S
C1904 C1903 1.399 . S
C1904 C1905 1.385 . S
C1905 H1891 0.931 . S
C1905 C1904 1.385 . S
C1905 C1906 1.389 . S
C1906 C1905 1.389 . S
C1906 C1907 1.387 1_655 S
C1907 H1892 0.930 . S
C1907 C1902 1.390 . S
C1907 C1906 1.387 1_455 S
H1908 C1920 0.930 . S
H1909 C1922 0.930 . S
H1910 C1923 0.930 . S
H1911 C1927 0.959 . S
H1912 C1927 0.959 . S
H1913 C1927 0.961 . S
H1914 C1928 0.960 . S
H1915 C1928 0.961 . S
H1916 C1928 0.959 . S
H1917 C1931 0.929 . S
H1918 C1932 0.931 . S
H1919 C1934 0.930 . S
C1920 H1908 0.930 . S
C1920 C1921 1.399 . S
C1920 C1925 1.399 . S
C1921 C1920 1.399 . S
C1921 C1922 1.376 . S
C1922 H1909 0.930 . S
C1922 C1921 1.376 . S
C1922 C1923 1.388 . S
C1923 H1910 0.930 . S
C1923 C1922 1.388 . S
C1923 C1924 1.390 . S
C1924 C1923 1.390 . S
C1924 C1925 1.394 . S
C1924 C1930 1.465 . S
C1925 C1920 1.399 . S
C1925 C1924 1.394 . S
C1925 C1926 1.516 . S
C1926 C1925 1.516 . S
C1926 C1927 1.502 . S
C1926 C1928 1.561 . S
C1926 C1929 1.526 . S
C1927 H1911 0.959 . S
C1927 H1912 0.959 . S
C1927 H1913 0.961 . S
C1927 C1926 1.502 . S
C1928 H1914 0.960 . S
C1928 H1915 0.961 . S
C1928 H1916 0.959 . S
C1928 C1926 1.561 . S
C1929 C1926 1.526 . S
C1929 C1930 1.396 . S
C1929 C1934 1.390 . S
C1930 C1924 1.465 . S
C1930 C1929 1.396 . S
C1930 C1931 1.399 . S
C1931 H1917 0.929 . S
C1931 C1930 1.399 . S
C1931 C1932 1.385 . S
C1932 H1918 0.931 . S
C1932 C1931 1.385 . S
C1932 C1933 1.389 . S
C1933 C1932 1.389 . S
C1933 C1934 1.387 . S
C1934 H1919 0.930 . S
C1934 C1929 1.390 . S
C1934 C1933 1.387 . S
H1935 C1947 0.930 1_565 S
H1936 C1949 0.930 . S
H1937 C1950 0.930 . S
H1938 C1954 0.959 . S
H1939 C1954 0.959 . S
H1940 C1954 0.961 . S
H1941 C1955 0.960 . S
H1942 C1955 0.961 . S
H1943 C1955 0.959 . S
H1944 C1958 0.929 . S
H1945 C1959 0.931 . S
H1946 C1961 0.930 1_565 S
C1947 H1935 0.930 1_545 S
C1947 C1948 1.399 . S
C1947 C1952 1.399 . S
C1948 C1947 1.399 . S
C1948 C1949 1.376 . S
C1949 H1936 0.930 . S
C1949 C1948 1.376 . S
C1949 C1950 1.388 . S
C1950 H1937 0.930 . S
C1950 C1949 1.388 . S
C1950 C1951 1.390 . S
C1951 C1950 1.390 . S
C1951 C1952 1.394 . S
C1951 C1957 1.465 . S
C1952 C1947 1.399 . S
C1952 C1951 1.394 . S
C1952 C1953 1.516 1_545 S
C1953 C1952 1.516 1_565 S
C1953 C1954 1.502 . S
C1953 C1955 1.561 . S
C1953 C1956 1.526 1_565 S
C1954 H1938 0.959 . S
C1954 H1939 0.959 . S
C1954 H1940 0.961 . S
C1954 C1953 1.502 . S
C1955 H1941 0.960 . S
C1955 H1942 0.961 . S
C1955 H1943 0.959 . S
C1955 C1953 1.561 . S
C1956 C1953 1.526 1_545 S
C1956 C1957 1.396 . S
C1956 C1961 1.390 . S
C1957 C1951 1.465 . S
C1957 C1956 1.396 . S
C1957 C1958 1.399 . S
C1958 H1944 0.929 . S
C1958 C1957 1.399 . S
C1958 C1959 1.385 . S
C1959 H1945 0.931 . S
C1959 C1958 1.385 . S
C1959 C1960 1.389 . S
C1960 C1959 1.389 . S
C1960 C1961 1.387 . S
C1961 H1946 0.930 1_545 S
C1961 C1956 1.390 . S
C1961 C1960 1.387 . S
H1962 C1974 0.930 . S
H1963 C1976 0.930 . S
H1964 C1977 0.930 . S
H1965 C1981 0.959 . S
H1966 C1981 0.959 . S
H1967 C1981 0.961 . S
H1968 C1982 0.960 . S
H1969 C1982 0.961 . S
H1970 C1982 0.959 . S
H1971 C1985 0.929 . S
H1972 C1986 0.931 . S
H1973 C1988 0.930 . S
C1974 H1962 0.930 . S
C1974 C1975 1.399 . S
C1974 C1979 1.399 . S
C1975 C1974 1.399 . S
C1975 C1976 1.376 . S
C1976 H1963 0.930 . S
C1976 C1975 1.376 . S
C1976 C1977 1.388 . S
C1977 H1964 0.930 . S
C1977 C1976 1.388 . S
C1977 C1978 1.390 . S
C1978 C1977 1.390 . S
C1978 C1979 1.394 . S
C1978 C1984 1.465 . S
C1979 C1974 1.399 . S
C1979 C1978 1.394 . S
C1979 C1980 1.516 . S
C1980 C1979 1.516 . S
C1980 C1981 1.502 . S
C1980 C1982 1.561 . S
C1980 C1983 1.526 . S
C1981 H1965 0.959 . S
C1981 H1966 0.959 . S
C1981 H1967 0.961 . S
C1981 C1980 1.502 . S
C1982 H1968 0.960 . S
C1982 H1969 0.961 . S
C1982 H1970 0.959 . S
C1982 C1980 1.561 . S
C1983 C1980 1.526 . S
C1983 C1984 1.396 . S
C1983 C1988 1.390 . S
C1984 C1978 1.465 . S
C1984 C1983 1.396 . S
C1984 C1985 1.399 . S
C1985 H1971 0.929 . S
C1985 C1984 1.399 . S
C1985 C1986 1.385 . S
C1986 H1972 0.931 . S
C1986 C1985 1.385 . S
C1986 C1987 1.389 . S
C1987 C1986 1.389 . S
C1987 C1988 1.387 . S
C1988 H1973 0.930 . S
C1988 C1983 1.390 . S
C1988 C1987 1.387 . S
H1989 C2001 0.930 . S
H1990 C2003 0.930 . S
H1991 C2004 0.930 . S
H1992 C2008 0.959 . S
H1993 C2008 0.959 . S
H1994 C2008 0.961 . S
H1995 C2009 0.960 . S
H1996 C2009 0.961 . S
H1997 C2009 0.959 . S
H1998 C2012 0.929 . S
H1999 C2013 0.931 . S
H2000 C2015 0.930 . S
C2001 H1989 0.930 . S
C2001 C2002 1.399 . S
C2001 C2006 1.399 . S
C2002 C2001 1.399 . S
C2002 C2003 1.376 . S
C2003 H1990 0.930 . S
C2003 C2002 1.376 . S
C2003 C2004 1.388 . S
C2004 H1991 0.930 . S
C2004 C2003 1.388 . S
C2004 C2005 1.390 . S
C2005 C2004 1.390 . S
C2005 C2006 1.394 . S
C2005 C2011 1.465 . S
C2006 C2001 1.399 . S
C2006 C2005 1.394 . S
C2006 C2007 1.516 . S
C2007 C2006 1.516 . S
C2007 C2008 1.502 . S
C2007 C2009 1.561 . S
C2007 C2010 1.526 . S
C2008 H1992 0.959 . S
C2008 H1993 0.959 . S
C2008 H1994 0.961 . S
C2008 C2007 1.502 . S
C2009 H1995 0.960 . S
C2009 H1996 0.961 . S
C2009 H1997 0.959 . S
C2009 C2007 1.561 . S
C2010 C2007 1.526 . S
C2010 C2011 1.396 . S
C2010 C2015 1.390 . S
C2011 C2005 1.465 . S
C2011 C2010 1.396 . S
C2011 C2012 1.399 . S
C2012 H1998 0.929 . S
C2012 C2011 1.399 . S
C2012 C2013 1.385 . S
C2013 H1999 0.931 . S
C2013 C2012 1.385 . S
C2013 C2014 1.389 . S
C2014 C2013 1.389 . S
C2014 C2015 1.387 . S
C2015 H2000 0.930 . S
C2015 C2010 1.390 . S
C2015 C2014 1.387 . S
H2016 C2028 0.930 . S
H2017 C2030 0.930 . S
H2018 C2031 0.930 . S
H2019 C2035 0.959 . S
H2020 C2035 0.959 . S
H2021 C2035 0.961 . S
H2022 C2036 0.960 . S
H2023 C2036 0.961 . S
H2024 C2036 0.959 . S
H2025 C2039 0.929 . S
H2026 C2040 0.931 . S
H2027 C2042 0.930 . S
C2028 H2016 0.930 . S
C2028 C2029 1.399 . S
C2028 C2033 1.399 . S
C2029 C2028 1.399 . S
C2029 C2030 1.376 . S
C2030 H2017 0.930 . S
C2030 C2029 1.376 . S
C2030 C2031 1.388 . S
C2031 H2018 0.930 . S
C2031 C2030 1.388 . S
C2031 C2032 1.390 . S
C2032 C2031 1.390 . S
C2032 C2033 1.394 . S
C2032 C2038 1.465 . S
C2033 C2028 1.399 . S
C2033 C2032 1.394 . S
C2033 C2034 1.516 . S
C2034 C2033 1.516 . S
C2034 C2035 1.502 . S
C2034 C2036 1.561 . S
C2034 C2037 1.526 . S
C2035 H2019 0.959 . S
C2035 H2020 0.959 . S
C2035 H2021 0.961 . S
C2035 C2034 1.502 . S
C2036 H2022 0.960 . S
C2036 H2023 0.961 . S
C2036 H2024 0.959 . S
C2036 C2034 1.561 . S
C2037 C2034 1.526 . S
C2037 C2038 1.396 . S
C2037 C2042 1.390 . S
C2038 C2032 1.465 . S
C2038 C2037 1.396 . S
C2038 C2039 1.399 . S
C2039 H2025 0.929 . S
C2039 C2038 1.399 . S
C2039 C2040 1.385 . S
C2040 H2026 0.931 . S
C2040 C2039 1.385 . S
C2040 C2041 1.389 . S
C2041 C2040 1.389 . S
C2041 C2042 1.387 . S
C2042 H2027 0.930 . S
C2042 C2037 1.390 . S
C2042 C2041 1.387 . S
H2043 C2055 0.930 . S
H2044 C2057 0.930 . S
H2045 C2058 0.930 . S
H2046 C2062 0.959 . S
H2047 C2062 0.959 . S
H2048 C2062 0.961 . S
H2049 C2063 0.960 . S
H2050 C2063 0.961 . S
H2051 C2063 0.959 . S
H2052 C2066 0.929 . S
H2053 C2067 0.931 . S
H2054 C2069 0.930 . S
C2055 H2043 0.930 . S
C2055 C2056 1.399 . S
C2055 C2060 1.399 . S
C2056 C2055 1.399 . S
C2056 C2057 1.376 . S
C2057 H2044 0.930 . S
C2057 C2056 1.376 . S
C2057 C2058 1.388 . S
C2058 H2045 0.930 . S
C2058 C2057 1.388 . S
C2058 C2059 1.390 . S
C2059 C2058 1.390 . S
C2059 C2060 1.394 . S
C2059 C2065 1.465 . S
C2060 C2055 1.399 . S
C2060 C2059 1.394 . S
C2060 C2061 1.516 . S
C2061 C2060 1.516 . S
C2061 C2062 1.502 . S
C2061 C2063 1.561 . S
C2061 C2064 1.526 . S
C2062 H2046 0.959 . S
C2062 H2047 0.959 . S
C2062 H2048 0.961 . S
C2062 C2061 1.502 . S
C2063 H2049 0.960 . S
C2063 H2050 0.961 . S
C2063 H2051 0.959 . S
C2063 C2061 1.561 . S
C2064 C2061 1.526 . S
C2064 C2065 1.396 . S
C2064 C2069 1.390 . S
C2065 C2059 1.465 . S
C2065 C2064 1.396 . S
C2065 C2066 1.399 . S
C2066 H2052 0.929 . S
C2066 C2065 1.399 . S
C2066 C2067 1.385 . S
C2067 H2053 0.931 . S
C2067 C2066 1.385 . S
C2067 C2068 1.389 . S
C2068 C2067 1.389 . S
C2068 C2069 1.387 . S
C2069 H2054 0.930 . S
C2069 C2064 1.390 . S
C2069 C2068 1.387 . S
H2070 C2082 0.930 . S
H2071 C2084 0.930 . S
H2072 C2085 0.930 . S
H2073 C2089 0.959 . S
H2074 C2089 0.959 . S
H2075 C2089 0.961 . S
H2076 C2090 0.960 . S
H2077 C2090 0.961 . S
H2078 C2090 0.959 . S
H2079 C2093 0.929 . S
H2080 C2094 0.931 . S
H2081 C2096 0.930 . S
C2082 H2070 0.930 . S
C2082 C2083 1.399 . S
C2082 C2087 1.399 . S
C2083 C2082 1.399 . S
C2083 C2084 1.376 . S
C2084 H2071 0.930 . S
C2084 C2083 1.376 . S
C2084 C2085 1.388 . S
C2085 H2072 0.930 . S
C2085 C2084 1.388 . S
C2085 C2086 1.390 . S
C2086 C2085 1.390 . S
C2086 C2087 1.394 . S
C2086 C2092 1.465 . S
C2087 C2082 1.399 . S
C2087 C2086 1.394 . S
C2087 C2088 1.516 . S
C2088 C2087 1.516 . S
C2088 C2089 1.502 . S
C2088 C2090 1.561 . S
C2088 C2091 1.526 . S
C2089 H2073 0.959 . S
C2089 H2074 0.959 . S
C2089 H2075 0.961 . S
C2089 C2088 1.502 . S
C2090 H2076 0.960 . S
C2090 H2077 0.961 . S
C2090 H2078 0.959 . S
C2090 C2088 1.561 . S
C2091 C2088 1.526 . S
C2091 C2092 1.396 . S
C2091 C2096 1.390 . S
C2092 C2086 1.465 . S
C2092 C2091 1.396 . S
C2092 C2093 1.399 . S
C2093 H2079 0.929 . S
C2093 C2092 1.399 . S
C2093 C2094 1.385 . S
C2094 H2080 0.931 . S
C2094 C2093 1.385 . S
C2094 C2095 1.389 . S
C2095 C2094 1.389 . S
C2095 C2096 1.387 . S
C2096 H2081 0.930 . S
C2096 C2091 1.390 . S
C2096 C2095 1.387 . S
H2097 C2109 0.930 . S
H2098 C2111 0.930 . S
H2099 C2112 0.930 . S
H2100 C2116 0.959 . S
H2101 C2116 0.959 . S
H2102 C2116 0.961 . S
H2103 C2117 0.960 . S
H2104 C2117 0.961 . S
H2105 C2117 0.959 . S
H2106 C2120 0.929 . S
H2107 C2121 0.931 . S
H2108 C2123 0.930 . S
C2109 H2097 0.930 . S
C2109 C2110 1.399 . S
C2109 C2114 1.399 . S
C2110 C2109 1.399 . S
C2110 C2111 1.376 . S
C2111 H2098 0.930 . S
C2111 C2110 1.376 . S
C2111 C2112 1.388 . S
C2112 H2099 0.930 . S
C2112 C2111 1.388 . S
C2112 C2113 1.390 . S
C2113 C2112 1.390 . S
C2113 C2114 1.394 . S
C2113 C2119 1.465 . S
C2114 C2109 1.399 . S
C2114 C2113 1.394 . S
C2114 C2115 1.516 . S
C2115 C2114 1.516 . S
C2115 C2116 1.502 . S
C2115 C2117 1.561 . S
C2115 C2118 1.526 . S
C2116 H2100 0.959 . S
C2116 H2101 0.959 . S
C2116 H2102 0.961 . S
C2116 C2115 1.502 . S
C2117 H2103 0.960 . S
C2117 H2104 0.961 . S
C2117 H2105 0.959 . S
C2117 C2115 1.561 . S
C2118 C2115 1.526 . S
C2118 C2119 1.396 . S
C2118 C2123 1.390 . S
C2119 C2113 1.465 . S
C2119 C2118 1.396 . S
C2119 C2120 1.399 . S
C2120 H2106 0.929 . S
C2120 C2119 1.399 . S
C2120 C2121 1.385 . S
C2121 H2107 0.931 . S
C2121 C2120 1.385 . S
C2121 C2122 1.389 . S
C2122 C2121 1.389 . S
C2122 C2123 1.387 . S
C2123 H2108 0.930 . S
C2123 C2118 1.390 . S
C2123 C2122 1.387 . S
H2124 C2136 0.930 . S
H2125 C2138 0.930 . S
H2126 C2139 0.930 . S
H2127 C2143 0.959 . S
H2128 C2143 0.959 . S
H2129 C2143 0.961 . S
H2130 C2144 0.960 . S
H2131 C2144 0.961 . S
H2132 C2144 0.959 . S
H2133 C2147 0.929 . S
H2134 C2148 0.931 . S
H2135 C2150 0.930 . S
C2136 H2124 0.930 . S
C2136 C2137 1.399 . S
C2136 C2141 1.399 . S
C2137 C2136 1.399 . S
C2137 C2138 1.376 . S
C2138 H2125 0.930 . S
C2138 C2137 1.376 . S
C2138 C2139 1.388 . S
C2139 H2126 0.930 . S
C2139 C2138 1.388 . S
C2139 C2140 1.390 . S
C2140 C2139 1.390 . S
C2140 C2141 1.394 . S
C2140 C2146 1.465 . S
C2141 C2136 1.399 . S
C2141 C2140 1.394 . S
C2141 C2142 1.516 . S
C2142 C2141 1.516 . S
C2142 C2143 1.502 . S
C2142 C2144 1.561 . S
C2142 C2145 1.526 . S
C2143 H2127 0.959 . S
C2143 H2128 0.959 . S
C2143 H2129 0.961 . S
C2143 C2142 1.502 . S
C2144 H2130 0.960 . S
C2144 H2131 0.961 . S
C2144 H2132 0.959 . S
C2144 C2142 1.561 . S
C2145 C2142 1.526 . S
C2145 C2146 1.396 . S
C2145 C2150 1.390 . S
C2146 C2140 1.465 . S
C2146 C2145 1.396 . S
C2146 C2147 1.399 . S
C2147 H2133 0.929 . S
C2147 C2146 1.399 . S
C2147 C2148 1.385 . S
C2148 H2134 0.931 . S
C2148 C2147 1.385 . S
C2148 C2149 1.389 . S
C2149 C2148 1.389 . S
C2149 C2150 1.387 . S
C2150 H2135 0.930 . S
C2150 C2145 1.390 . S
C2150 C2149 1.387 . S
H2151 C2163 0.930 . S
H2152 C2165 0.930 . S
H2153 C2166 0.930 . S
H2154 C2170 0.959 . S
H2155 C2170 0.959 . S
H2156 C2170 0.961 . S
H2157 C2171 0.960 . S
H2158 C2171 0.961 . S
H2159 C2171 0.959 . S
H2160 C2174 0.929 . S
H2161 C2175 0.931 . S
H2162 C2177 0.930 . S
C2163 H2151 0.930 . S
C2163 C2164 1.399 . S
C2163 C2168 1.399 . S
C2164 C2163 1.399 . S
C2164 C2165 1.376 . S
C2165 H2152 0.930 . S
C2165 C2164 1.376 . S
C2165 C2166 1.388 . S
C2166 H2153 0.930 . S
C2166 C2165 1.388 . S
C2166 C2167 1.390 . S
C2167 C2166 1.390 . S
C2167 C2168 1.394 . S
C2167 C2173 1.465 . S
C2168 C2163 1.399 . S
C2168 C2167 1.394 . S
C2168 C2169 1.516 . S
C2169 C2168 1.516 . S
C2169 C2170 1.502 . S
C2169 C2171 1.561 . S
C2169 C2172 1.526 . S
C2170 H2154 0.959 . S
C2170 H2155 0.959 . S
C2170 H2156 0.961 . S
C2170 C2169 1.502 . S
C2171 H2157 0.960 . S
C2171 H2158 0.961 . S
C2171 H2159 0.959 . S
C2171 C2169 1.561 . S
C2172 C2169 1.526 . S
C2172 C2173 1.396 . S
C2172 C2177 1.390 . S
C2173 C2167 1.465 . S
C2173 C2172 1.396 . S
C2173 C2174 1.399 . S
C2174 H2160 0.929 . S
C2174 C2173 1.399 . S
C2174 C2175 1.385 . S
C2175 H2161 0.931 . S
C2175 C2174 1.385 . S
C2175 C2176 1.389 . S
C2176 C2175 1.389 . S
C2176 C2177 1.387 . S
C2177 H2162 0.930 . S
C2177 C2172 1.390 . S
C2177 C2176 1.387 . S
H2178 C2190 0.930 . S
H2179 C2192 0.930 . S
H2180 C2193 0.930 . S
H2181 C2197 0.959 . S
H2182 C2197 0.959 . S
H2183 C2197 0.961 . S
H2184 C2198 0.960 . S
H2185 C2198 0.961 . S
H2186 C2198 0.959 . S
H2187 C2201 0.929 . S
H2188 C2202 0.931 . S
H2189 C2204 0.930 . S
C2190 H2178 0.930 . S
C2190 C2191 1.399 . S
C2190 C2195 1.399 . S
C2191 C2190 1.399 . S
C2191 C2192 1.376 . S
C2192 H2179 0.930 . S
C2192 C2191 1.376 . S
C2192 C2193 1.388 . S
C2193 H2180 0.930 . S
C2193 C2192 1.388 . S
C2193 C2194 1.390 . S
C2194 C2193 1.390 . S
C2194 C2195 1.394 . S
C2194 C2200 1.465 . S
C2195 C2190 1.399 . S
C2195 C2194 1.394 . S
C2195 C2196 1.516 . S
C2196 C2195 1.516 . S
C2196 C2197 1.502 . S
C2196 C2198 1.561 . S
C2196 C2199 1.526 . S
C2197 H2181 0.959 . S
C2197 H2182 0.959 . S
C2197 H2183 0.961 . S
C2197 C2196 1.502 . S
C2198 H2184 0.960 . S
C2198 H2185 0.961 . S
C2198 H2186 0.959 . S
C2198 C2196 1.561 . S
C2199 C2196 1.526 . S
C2199 C2200 1.396 . S
C2199 C2204 1.390 . S
C2200 C2194 1.465 . S
C2200 C2199 1.396 . S
C2200 C2201 1.399 . S
C2201 H2187 0.929 . S
C2201 C2200 1.399 . S
C2201 C2202 1.385 . S
C2202 H2188 0.931 . S
C2202 C2201 1.385 . S
C2202 C2203 1.389 . S
C2203 C2202 1.389 . S
C2203 C2204 1.387 . S
C2204 H2189 0.930 . S
C2204 C2199 1.390 . S
C2204 C2203 1.387 . S
H2205 C2217 0.930 . S
H2206 C2219 0.930 . S
H2207 C2220 0.930 . S
H2208 C2224 0.959 . S
H2209 C2224 0.959 . S
H2210 C2224 0.961 . S
H2211 C2225 0.960 . S
H2212 C2225 0.961 . S
H2213 C2225 0.959 . S
H2214 C2228 0.929 . S
H2215 C2229 0.931 . S
H2216 C2231 0.930 . S
C2217 H2205 0.930 . S
C2217 C2218 1.399 . S
C2217 C2222 1.399 . S
C2218 C2217 1.399 . S
C2218 C2219 1.376 . S
C2219 H2206 0.930 . S
C2219 C2218 1.376 . S
C2219 C2220 1.388 . S
C2220 H2207 0.930 . S
C2220 C2219 1.388 . S
C2220 C2221 1.390 . S
C2221 C2220 1.390 . S
C2221 C2222 1.394 . S
C2221 C2227 1.465 . S
C2222 C2217 1.399 . S
C2222 C2221 1.394 . S
C2222 C2223 1.516 . S
C2223 C2222 1.516 . S
C2223 C2224 1.502 . S
C2223 C2225 1.561 . S
C2223 C2226 1.526 . S
C2224 H2208 0.959 . S
C2224 H2209 0.959 . S
C2224 H2210 0.961 . S
C2224 C2223 1.502 . S
C2225 H2211 0.960 . S
C2225 H2212 0.961 . S
C2225 H2213 0.959 . S
C2225 C2223 1.561 . S
C2226 C2223 1.526 . S
C2226 C2227 1.396 . S
C2226 C2231 1.390 . S
C2227 C2221 1.465 . S
C2227 C2226 1.396 . S
C2227 C2228 1.399 . S
C2228 H2214 0.929 . S
C2228 C2227 1.399 . S
C2228 C2229 1.385 . S
C2229 H2215 0.931 . S
C2229 C2228 1.385 . S
C2229 C2230 1.389 . S
C2230 C2229 1.389 . S
C2230 C2231 1.387 . S
C2231 H2216 0.930 . S
C2231 C2226 1.390 . S
C2231 C2230 1.387 . S
H2232 C2244 0.930 . S
H2233 C2246 0.930 . S
H2234 C2247 0.930 . S
H2235 C2251 0.959 . S
H2236 C2251 0.959 . S
H2237 C2251 0.961 . S
H2238 C2252 0.960 . S
H2239 C2252 0.961 . S
H2240 C2252 0.959 . S
H2241 C2255 0.929 . S
H2242 C2256 0.931 . S
H2243 C2258 0.930 . S
C2244 H2232 0.930 . S
C2244 C2245 1.399 . S
C2244 C2249 1.399 . S
C2245 C2244 1.399 . S
C2245 C2246 1.376 . S
C2246 H2233 0.930 . S
C2246 C2245 1.376 . S
C2246 C2247 1.388 . S
C2247 H2234 0.930 . S
C2247 C2246 1.388 . S
C2247 C2248 1.390 . S
C2248 C2247 1.390 . S
C2248 C2249 1.394 . S
C2248 C2254 1.465 . S
C2249 C2244 1.399 . S
C2249 C2248 1.394 . S
C2249 C2250 1.516 . S
C2250 C2249 1.516 . S
C2250 C2251 1.502 . S
C2250 C2252 1.561 . S
C2250 C2253 1.526 . S
C2251 H2235 0.959 . S
C2251 H2236 0.959 . S
C2251 H2237 0.961 . S
C2251 C2250 1.502 . S
C2252 H2238 0.960 . S
C2252 H2239 0.961 . S
C2252 H2240 0.959 . S
C2252 C2250 1.561 . S
C2253 C2250 1.526 . S
C2253 C2254 1.396 . S
C2253 C2258 1.390 . S
C2254 C2248 1.465 . S
C2254 C2253 1.396 . S
C2254 C2255 1.399 . S
C2255 H2241 0.929 . S
C2255 C2254 1.399 . S
C2255 C2256 1.385 . S
C2256 H2242 0.931 . S
C2256 C2255 1.385 . S
C2256 C2257 1.389 . S
C2257 C2256 1.389 . S
C2257 C2258 1.387 . S
C2258 H2243 0.930 . S
C2258 C2253 1.390 . S
C2258 C2257 1.387 . S
H2259 C2271 0.930 . S
H2260 C2273 0.930 . S
H2261 C2274 0.930 . S
H2262 C2278 0.959 . S
H2263 C2278 0.959 . S
H2264 C2278 0.961 . S
H2265 C2279 0.960 . S
H2266 C2279 0.961 . S
H2267 C2279 0.959 . S
H2268 C2282 0.929 . S
H2269 C2283 0.931 . S
H2270 C2285 0.930 . S
C2271 H2259 0.930 . S
C2271 C2272 1.399 . S
C2271 C2276 1.399 . S
C2272 C2271 1.399 . S
C2272 C2273 1.376 . S
C2273 H2260 0.930 . S
C2273 C2272 1.376 . S
C2273 C2274 1.388 . S
C2274 H2261 0.930 . S
C2274 C2273 1.388 . S
C2274 C2275 1.390 . S
C2275 C2274 1.390 . S
C2275 C2276 1.394 . S
C2275 C2281 1.465 . S
C2276 C2271 1.399 . S
C2276 C2275 1.394 . S
C2276 C2277 1.516 . S
C2277 C2276 1.516 . S
C2277 C2278 1.502 . S
C2277 C2279 1.561 . S
C2277 C2280 1.526 . S
C2278 H2262 0.959 . S
C2278 H2263 0.959 . S
C2278 H2264 0.961 . S
C2278 C2277 1.502 . S
C2279 H2265 0.960 . S
C2279 H2266 0.961 . S
C2279 H2267 0.959 . S
C2279 C2277 1.561 . S
C2280 C2277 1.526 . S
C2280 C2281 1.396 . S
C2280 C2285 1.390 . S
C2281 C2275 1.465 . S
C2281 C2280 1.396 . S
C2281 C2282 1.399 . S
C2282 H2268 0.929 . S
C2282 C2281 1.399 . S
C2282 C2283 1.385 . S
C2283 H2269 0.931 . S
C2283 C2282 1.385 . S
C2283 C2284 1.389 . S
C2284 C2283 1.389 . S
C2284 C2285 1.387 . S
C2285 H2270 0.930 . S
C2285 C2280 1.390 . S
C2285 C2284 1.387 . S
H2286 C2298 0.930 . S
H2287 C2300 0.930 . S
H2288 C2301 0.930 . S
H2289 C2305 0.959 . S
H2290 C2305 0.959 . S
H2291 C2305 0.961 . S
H2292 C2306 0.960 . S
H2293 C2306 0.961 . S
H2294 C2306 0.959 . S
H2295 C2309 0.929 . S
H2296 C2310 0.931 . S
H2297 C2312 0.930 . S
C2298 H2286 0.930 . S
C2298 C2299 1.399 . S
C2298 C2303 1.399 . S
C2299 C2298 1.399 . S
C2299 C2300 1.376 . S
C2300 H2287 0.930 . S
C2300 C2299 1.376 . S
C2300 C2301 1.388 . S
C2301 H2288 0.930 . S
C2301 C2300 1.388 . S
C2301 C2302 1.390 . S
C2302 C2301 1.390 . S
C2302 C2303 1.394 . S
C2302 C2308 1.465 . S
C2303 C2298 1.399 . S
C2303 C2302 1.394 . S
C2303 C2304 1.516 . S
C2304 C2303 1.516 . S
C2304 C2305 1.502 . S
C2304 C2306 1.561 . S
C2304 C2307 1.526 . S
C2305 H2289 0.959 . S
C2305 H2290 0.959 . S
C2305 H2291 0.961 . S
C2305 C2304 1.502 . S
C2306 H2292 0.960 . S
C2306 H2293 0.961 . S
C2306 H2294 0.959 . S
C2306 C2304 1.561 . S
C2307 C2304 1.526 . S
C2307 C2308 1.396 . S
C2307 C2312 1.390 . S
C2308 C2302 1.465 . S
C2308 C2307 1.396 . S
C2308 C2309 1.399 . S
C2309 H2295 0.929 . S
C2309 C2308 1.399 . S
C2309 C2310 1.385 . S
C2310 H2296 0.931 . S
C2310 C2309 1.385 . S
C2310 C2311 1.389 . S
C2311 C2310 1.389 . S
C2311 C2312 1.387 . S
C2312 H2297 0.930 . S
C2312 C2307 1.390 . S
C2312 C2311 1.387 . S
H2313 C2325 0.930 . S
H2314 C2327 0.930 . S
H2315 C2328 0.930 . S
H2316 C2332 0.959 . S
H2317 C2332 0.959 . S
H2318 C2332 0.961 . S
H2319 C2333 0.960 . S
H2320 C2333 0.961 . S
H2321 C2333 0.959 . S
H2322 C2336 0.929 . S
H2323 C2337 0.931 . S
H2324 C2339 0.930 . S
C2325 H2313 0.930 . S
C2325 C2326 1.399 . S
C2325 C2330 1.399 . S
C2326 C2325 1.399 . S
C2326 C2327 1.376 . S
C2327 H2314 0.930 . S
C2327 C2326 1.376 . S
C2327 C2328 1.388 . S
C2328 H2315 0.930 . S
C2328 C2327 1.388 . S
C2328 C2329 1.390 . S
C2329 C2328 1.390 . S
C2329 C2330 1.394 . S
C2329 C2335 1.465 . S
C2330 C2325 1.399 . S
C2330 C2329 1.394 . S
C2330 C2331 1.516 . S
C2331 C2330 1.516 . S
C2331 C2332 1.502 . S
C2331 C2333 1.561 . S
C2331 C2334 1.526 . S
C2332 H2316 0.959 . S
C2332 H2317 0.959 . S
C2332 H2318 0.961 . S
C2332 C2331 1.502 . S
C2333 H2319 0.960 . S
C2333 H2320 0.961 . S
C2333 H2321 0.959 . S
C2333 C2331 1.561 . S
C2334 C2331 1.526 . S
C2334 C2335 1.396 . S
C2334 C2339 1.390 . S
C2335 C2329 1.465 . S
C2335 C2334 1.396 . S
C2335 C2336 1.399 . S
C2336 H2322 0.929 . S
C2336 C2335 1.399 . S
C2336 C2337 1.385 . S
C2337 H2323 0.931 . S
C2337 C2336 1.385 . S
C2337 C2338 1.389 . S
C2338 C2337 1.389 . S
C2338 C2339 1.387 . S
C2339 H2324 0.930 . S
C2339 C2334 1.390 . S
C2339 C2338 1.387 . S
H2340 C2352 0.930 . S
H2341 C2354 0.930 . S
H2342 C2355 0.930 . S
H2343 C2359 0.959 . S
H2344 C2359 0.959 . S
H2345 C2359 0.961 . S
H2346 C2360 0.960 . S
H2347 C2360 0.961 . S
H2348 C2360 0.959 . S
H2349 C2363 0.929 . S
H2350 C2364 0.931 . S
H2351 C2366 0.930 . S
C2352 H2340 0.930 . S
C2352 C2353 1.399 . S
C2352 C2357 1.399 . S
C2353 C2352 1.399 . S
C2353 C2354 1.376 . S
C2354 H2341 0.930 . S
C2354 C2353 1.376 . S
C2354 C2355 1.388 . S
C2355 H2342 0.930 . S
C2355 C2354 1.388 . S
C2355 C2356 1.390 . S
C2356 C2355 1.390 . S
C2356 C2357 1.394 . S
C2356 C2362 1.465 . S
C2357 C2352 1.399 . S
C2357 C2356 1.394 . S
C2357 C2358 1.516 . S
C2358 C2357 1.516 . S
C2358 C2359 1.502 . S
C2358 C2360 1.561 . S
C2358 C2361 1.526 . S
C2359 H2343 0.959 . S
C2359 H2344 0.959 . S
C2359 H2345 0.961 . S
C2359 C2358 1.502 . S
C2360 H2346 0.960 . S
C2360 H2347 0.961 . S
C2360 H2348 0.959 . S
C2360 C2358 1.561 . S
C2361 C2358 1.526 . S
C2361 C2362 1.396 . S
C2361 C2366 1.390 . S
C2362 C2356 1.465 . S
C2362 C2361 1.396 . S
C2362 C2363 1.399 . S
C2363 H2349 0.929 . S
C2363 C2362 1.399 . S
C2363 C2364 1.385 . S
C2364 H2350 0.931 . S
C2364 C2363 1.385 . S
C2364 C2365 1.389 . S
C2365 C2364 1.389 . S
C2365 C2366 1.387 . S
C2366 H2351 0.930 . S
C2366 C2361 1.390 . S
C2366 C2365 1.387 . S
H2367 C2379 0.930 . S
H2368 C2381 0.930 . S
H2369 C2382 0.930 . S
H2370 C2386 0.959 . S
H2371 C2386 0.959 . S
H2372 C2386 0.961 . S
H2373 C2387 0.960 . S
H2374 C2387 0.961 . S
H2375 C2387 0.959 . S
H2376 C2390 0.929 . S
H2377 C2391 0.931 . S
H2378 C2393 0.930 . S
C2379 H2367 0.930 . S
C2379 C2380 1.399 . S
C2379 C2384 1.399 . S
C2380 C2379 1.399 . S
C2380 C2381 1.376 . S
C2381 H2368 0.930 . S
C2381 C2380 1.376 . S
C2381 C2382 1.388 . S
C2382 H2369 0.930 . S
C2382 C2381 1.388 . S
C2382 C2383 1.390 . S
C2383 C2382 1.390 . S
C2383 C2384 1.394 . S
C2383 C2389 1.465 . S
C2384 C2379 1.399 . S
C2384 C2383 1.394 . S
C2384 C2385 1.516 . S
C2385 C2384 1.516 . S
C2385 C2386 1.502 . S
C2385 C2387 1.561 . S
C2385 C2388 1.526 . S
C2386 H2370 0.959 . S
C2386 H2371 0.959 . S
C2386 H2372 0.961 . S
C2386 C2385 1.502 . S
C2387 H2373 0.960 . S
C2387 H2374 0.961 . S
C2387 H2375 0.959 . S
C2387 C2385 1.561 . S
C2388 C2385 1.526 . S
C2388 C2389 1.396 . S
C2388 C2393 1.390 . S
C2389 C2383 1.465 . S
C2389 C2388 1.396 . S
C2389 C2390 1.399 . S
C2390 H2376 0.929 . S
C2390 C2389 1.399 . S
C2390 C2391 1.385 . S
C2391 H2377 0.931 . S
C2391 C2390 1.385 . S
C2391 C2392 1.389 . S
C2392 C2391 1.389 . S
C2392 C2393 1.387 . S
C2393 H2378 0.930 . S
C2393 C2388 1.390 . S
C2393 C2392 1.387 . S
H2394 C2406 0.930 . S
H2395 C2408 0.930 . S
H2396 C2409 0.930 . S
H2397 C2413 0.959 . S
H2398 C2413 0.959 . S
H2399 C2413 0.961 . S
H2400 C2414 0.960 . S
H2401 C2414 0.961 . S
H2402 C2414 0.959 . S
H2403 C2417 0.929 . S
H2404 C2418 0.931 . S
H2405 C2420 0.930 . S
C2406 H2394 0.930 . S
C2406 C2407 1.399 . S
C2406 C2411 1.399 . S
C2407 C2406 1.399 . S
C2407 C2408 1.376 . S
C2408 H2395 0.930 . S
C2408 C2407 1.376 . S
C2408 C2409 1.388 . S
C2409 H2396 0.930 . S
C2409 C2408 1.388 . S
C2409 C2410 1.390 . S
C2410 C2409 1.390 . S
C2410 C2411 1.394 . S
C2410 C2416 1.465 . S
C2411 C2406 1.399 . S
C2411 C2410 1.394 . S
C2411 C2412 1.516 . S
C2412 C2411 1.516 . S
C2412 C2413 1.502 . S
C2412 C2414 1.561 . S
C2412 C2415 1.526 . S
C2413 H2397 0.959 . S
C2413 H2398 0.959 . S
C2413 H2399 0.961 . S
C2413 C2412 1.502 . S
C2414 H2400 0.960 . S
C2414 H2401 0.961 . S
C2414 H2402 0.959 . S
C2414 C2412 1.561 . S
C2415 C2412 1.526 . S
C2415 C2416 1.396 . S
C2415 C2420 1.390 . S
C2416 C2410 1.465 . S
C2416 C2415 1.396 . S
C2416 C2417 1.399 . S
C2417 H2403 0.929 . S
C2417 C2416 1.399 . S
C2417 C2418 1.385 . S
C2418 H2404 0.931 . S
C2418 C2417 1.385 . S
C2418 C2419 1.389 . S
C2419 C2418 1.389 . S
C2419 C2420 1.387 . S
C2420 H2405 0.930 . S
C2420 C2415 1.390 . S
C2420 C2419 1.387 . S
H2421 C2433 0.930 . S
H2422 C2435 0.930 . S
H2423 C2436 0.930 . S
H2424 C2440 0.959 . S
H2425 C2440 0.959 . S
H2426 C2440 0.961 . S
H2427 C2441 0.960 . S
H2428 C2441 0.961 . S
H2429 C2441 0.959 . S
H2430 C2444 0.929 . S
H2431 C2445 0.931 . S
H2432 C2447 0.930 . S
C2433 H2421 0.930 . S
C2433 C2434 1.399 . S
C2433 C2438 1.399 . S
C2434 C2433 1.399 . S
C2434 C2435 1.376 . S
C2435 H2422 0.930 . S
C2435 C2434 1.376 . S
C2435 C2436 1.388 . S
C2436 H2423 0.930 . S
C2436 C2435 1.388 . S
C2436 C2437 1.390 . S
C2437 C2436 1.390 . S
C2437 C2438 1.394 . S
C2437 C2443 1.465 . S
C2438 C2433 1.399 . S
C2438 C2437 1.394 . S
C2438 C2439 1.516 . S
C2439 C2438 1.516 . S
C2439 C2440 1.502 . S
C2439 C2441 1.561 . S
C2439 C2442 1.526 . S
C2440 H2424 0.959 . S
C2440 H2425 0.959 . S
C2440 H2426 0.961 . S
C2440 C2439 1.502 . S
C2441 H2427 0.960 . S
C2441 H2428 0.961 . S
C2441 H2429 0.959 . S
C2441 C2439 1.561 . S
C2442 C2439 1.526 . S
C2442 C2443 1.396 . S
C2442 C2447 1.390 . S
C2443 C2437 1.465 . S
C2443 C2442 1.396 . S
C2443 C2444 1.399 . S
C2444 H2430 0.929 . S
C2444 C2443 1.399 . S
C2444 C2445 1.385 . S
C2445 H2431 0.931 . S
C2445 C2444 1.385 . S
C2445 C2446 1.389 . S
C2446 C2445 1.389 . S
C2446 C2447 1.387 . S
C2447 H2432 0.930 . S
C2447 C2442 1.390 . S
C2447 C2446 1.387 . S
H2448 C2460 0.930 . S
H2449 C2462 0.930 . S
H2450 C2463 0.930 . S
H2451 C2467 0.959 . S
H2452 C2467 0.959 . S
H2453 C2467 0.961 . S
H2454 C2468 0.960 . S
H2455 C2468 0.961 . S
H2456 C2468 0.959 . S
H2457 C2471 0.929 . S
H2458 C2472 0.931 . S
H2459 C2474 0.930 . S
C2460 H2448 0.930 . S
C2460 C2461 1.399 . S
C2460 C2465 1.399 . S
C2461 C2460 1.399 . S
C2461 C2462 1.376 . S
C2462 H2449 0.930 . S
C2462 C2461 1.376 . S
C2462 C2463 1.388 . S
C2463 H2450 0.930 . S
C2463 C2462 1.388 . S
C2463 C2464 1.390 . S
C2464 C2463 1.390 . S
C2464 C2465 1.394 . S
C2464 C2470 1.465 . S
C2465 C2460 1.399 . S
C2465 C2464 1.394 . S
C2465 C2466 1.516 . S
C2466 C2465 1.516 . S
C2466 C2467 1.502 . S
C2466 C2468 1.561 . S
C2466 C2469 1.526 . S
C2467 H2451 0.959 . S
C2467 H2452 0.959 . S
C2467 H2453 0.961 . S
C2467 C2466 1.502 . S
C2468 H2454 0.960 . S
C2468 H2455 0.961 . S
C2468 H2456 0.959 . S
C2468 C2466 1.561 . S
C2469 C2466 1.526 . S
C2469 C2470 1.396 . S
C2469 C2474 1.390 . S
C2470 C2464 1.465 . S
C2470 C2469 1.396 . S
C2470 C2471 1.399 . S
C2471 H2457 0.929 . S
C2471 C2470 1.399 . S
C2471 C2472 1.385 . S
C2472 H2458 0.931 . S
C2472 C2471 1.385 . S
C2472 C2473 1.389 . S
C2473 C2472 1.389 . S
C2473 C2474 1.387 . S
C2474 H2459 0.930 . S
C2474 C2469 1.390 . S
C2474 C2473 1.387 . S
H2475 C2487 0.930 . S
H2476 C2489 0.930 . S
H2477 C2490 0.930 . S
H2478 C2494 0.959 . S
H2479 C2494 0.959 . S
H2480 C2494 0.961 . S
H2481 C2495 0.960 . S
H2482 C2495 0.961 . S
H2483 C2495 0.959 . S
H2484 C2498 0.929 . S
H2485 C2499 0.931 . S
H2486 C2501 0.930 . S
C2487 H2475 0.930 . S
C2487 C2488 1.399 . S
C2487 C2492 1.399 . S
C2488 C2487 1.399 . S
C2488 C2489 1.376 . S
C2489 H2476 0.930 . S
C2489 C2488 1.376 . S
C2489 C2490 1.388 . S
C2490 H2477 0.930 . S
C2490 C2489 1.388 . S
C2490 C2491 1.390 . S
C2491 C2490 1.390 . S
C2491 C2492 1.394 . S
C2491 C2497 1.465 . S
C2492 C2487 1.399 . S
C2492 C2491 1.394 . S
C2492 C2493 1.516 . S
C2493 C2492 1.516 . S
C2493 C2494 1.502 . S
C2493 C2495 1.561 . S
C2493 C2496 1.526 . S
C2494 H2478 0.959 . S
C2494 H2479 0.959 . S
C2494 H2480 0.961 . S
C2494 C2493 1.502 . S
C2495 H2481 0.960 . S
C2495 H2482 0.961 . S
C2495 H2483 0.959 . S
C2495 C2493 1.561 . S
C2496 C2493 1.526 . S
C2496 C2497 1.396 . S
C2496 C2501 1.390 . S
C2497 C2491 1.465 . S
C2497 C2496 1.396 . S
C2497 C2498 1.399 . S
C2498 H2484 0.929 . S
C2498 C2497 1.399 . S
C2498 C2499 1.385 . S
C2499 H2485 0.931 . S
C2499 C2498 1.385 . S
C2499 C2500 1.389 . S
C2500 C2499 1.389 . S
C2500 C2501 1.387 . S
C2501 H2486 0.930 . S
C2501 C2496 1.390 . S
C2501 C2500 1.387 . S
H2502 C2514 0.930 . S
H2503 C2516 0.930 . S
H2504 C2517 0.930 . S
H2505 C2521 0.959 . S
H2506 C2521 0.959 . S
H2507 C2521 0.961 . S
H2508 C2522 0.960 . S
H2509 C2522 0.961 . S
H2510 C2522 0.959 . S
H2511 C2525 0.929 . S
H2512 C2526 0.931 . S
H2513 C2528 0.930 . S
C2514 H2502 0.930 . S
C2514 C2515 1.399 . S
C2514 C2519 1.399 . S
C2515 C2514 1.399 . S
C2515 C2516 1.376 . S
C2516 H2503 0.930 . S
C2516 C2515 1.376 . S
C2516 C2517 1.388 . S
C2517 H2504 0.930 . S
C2517 C2516 1.388 . S
C2517 C2518 1.390 . S
C2518 C2517 1.390 . S
C2518 C2519 1.394 . S
C2518 C2524 1.465 . S
C2519 C2514 1.399 . S
C2519 C2518 1.394 . S
C2519 C2520 1.516 . S
C2520 C2519 1.516 . S
C2520 C2521 1.502 . S
C2520 C2522 1.561 . S
C2520 C2523 1.526 . S
C2521 H2505 0.959 . S
C2521 H2506 0.959 . S
C2521 H2507 0.961 . S
C2521 C2520 1.502 . S
C2522 H2508 0.960 . S
C2522 H2509 0.961 . S
C2522 H2510 0.959 . S
C2522 C2520 1.561 . S
C2523 C2520 1.526 . S
C2523 C2524 1.396 . S
C2523 C2528 1.390 . S
C2524 C2518 1.465 . S
C2524 C2523 1.396 . S
C2524 C2525 1.399 . S
C2525 H2511 0.929 . S
C2525 C2524 1.399 . S
C2525 C2526 1.385 . S
C2526 H2512 0.931 . S
C2526 C2525 1.385 . S
C2526 C2527 1.389 . S
C2527 C2526 1.389 . S
C2527 C2528 1.387 . S
C2528 H2513 0.930 . S
C2528 C2523 1.390 . S
C2528 C2527 1.387 . S
H2529 C2541 0.930 . S
H2530 C2543 0.930 . S
H2531 C2544 0.930 . S
H2532 C2548 0.959 . S
H2533 C2548 0.959 . S
H2534 C2548 0.961 . S
H2535 C2549 0.960 . S
H2536 C2549 0.961 . S
H2537 C2549 0.959 . S
H2538 C2552 0.929 . S
H2539 C2553 0.931 . S
H2540 C2555 0.930 . S
C2541 H2529 0.930 . S
C2541 C2542 1.399 . S
C2541 C2546 1.399 . S
C2542 C2541 1.399 . S
C2542 C2543 1.376 . S
C2543 H2530 0.930 . S
C2543 C2542 1.376 . S
C2543 C2544 1.388 . S
C2544 H2531 0.930 . S
C2544 C2543 1.388 . S
C2544 C2545 1.390 . S
C2545 C2544 1.390 . S
C2545 C2546 1.394 . S
C2545 C2551 1.465 . S
C2546 C2541 1.399 . S
C2546 C2545 1.394 . S
C2546 C2547 1.516 . S
C2547 C2546 1.516 . S
C2547 C2548 1.502 . S
C2547 C2549 1.561 . S
C2547 C2550 1.526 . S
C2548 H2532 0.959 . S
C2548 H2533 0.959 . S
C2548 H2534 0.961 . S
C2548 C2547 1.502 . S
C2549 H2535 0.960 . S
C2549 H2536 0.961 . S
C2549 H2537 0.959 . S
C2549 C2547 1.561 . S
C2550 C2547 1.526 . S
C2550 C2551 1.396 . S
C2550 C2555 1.390 . S
C2551 C2545 1.465 . S
C2551 C2550 1.396 . S
C2551 C2552 1.399 . S
C2552 H2538 0.929 . S
C2552 C2551 1.399 . S
C2552 C2553 1.385 . S
C2553 H2539 0.931 . S
C2553 C2552 1.385 . S
C2553 C2554 1.389 . S
C2554 C2553 1.389 . S
C2554 C2555 1.387 . S
C2555 H2540 0.930 . S
C2555 C2550 1.390 . S
C2555 C2554 1.387 . S
H2556 C2568 0.930 . S
H2557 C2570 0.930 . S
H2558 C2571 0.930 . S
H2559 C2575 0.959 . S
H2560 C2575 0.959 . S
H2561 C2575 0.961 . S
H2562 C2576 0.960 . S
H2563 C2576 0.961 . S
H2564 C2576 0.959 . S
H2565 C2579 0.929 . S
H2566 C2580 0.931 . S
H2567 C2582 0.930 . S
C2568 H2556 0.930 . S
C2568 C2569 1.399 . S
C2568 C2573 1.399 . S
C2569 C2568 1.399 . S
C2569 C2570 1.376 . S
C2570 H2557 0.930 . S
C2570 C2569 1.376 . S
C2570 C2571 1.388 . S
C2571 H2558 0.930 . S
C2571 C2570 1.388 . S
C2571 C2572 1.390 . S
C2572 C2571 1.390 . S
C2572 C2573 1.394 . S
C2572 C2578 1.465 . S
C2573 C2568 1.399 . S
C2573 C2572 1.394 . S
C2573 C2574 1.516 . S
C2574 C2573 1.516 . S
C2574 C2575 1.502 . S
C2574 C2576 1.561 . S
C2574 C2577 1.526 . S
C2575 H2559 0.959 . S
C2575 H2560 0.959 . S
C2575 H2561 0.961 . S
C2575 C2574 1.502 . S
C2576 H2562 0.960 . S
C2576 H2563 0.961 . S
C2576 H2564 0.959 . S
C2576 C2574 1.561 . S
C2577 C2574 1.526 . S
C2577 C2578 1.396 . S
C2577 C2582 1.390 . S
C2578 C2572 1.465 . S
C2578 C2577 1.396 . S
C2578 C2579 1.399 . S
C2579 H2565 0.929 . S
C2579 C2578 1.399 . S
C2579 C2580 1.385 . S
C2580 H2566 0.931 . S
C2580 C2579 1.385 . S
C2580 C2581 1.389 . S
C2581 C2580 1.389 . S
C2581 C2582 1.387 . S
C2582 H2567 0.930 . S
C2582 C2577 1.390 . S
C2582 C2581 1.387 . S
H2583 C2595 0.930 . S
H2584 C2597 0.930 . S
H2585 C2598 0.930 . S
H2586 C2602 0.959 . S
H2587 C2602 0.959 . S
H2588 C2602 0.961 . S
H2589 C2603 0.960 . S
H2590 C2603 0.961 . S
H2591 C2603 0.959 . S
H2592 C2606 0.929 . S
H2593 C2607 0.931 . S
H2594 C2609 0.930 . S
C2595 H2583 0.930 . S
C2595 C2596 1.399 . S
C2595 C2600 1.399 . S
C2596 C2595 1.399 . S
C2596 C2597 1.376 . S
C2597 H2584 0.930 . S
C2597 C2596 1.376 . S
C2597 C2598 1.388 . S
C2598 H2585 0.930 . S
C2598 C2597 1.388 . S
C2598 C2599 1.390 . S
C2599 C2598 1.390 . S
C2599 C2600 1.394 . S
C2599 C2605 1.465 . S
C2600 C2595 1.399 . S
C2600 C2599 1.394 . S
C2600 C2601 1.516 . S
C2601 C2600 1.516 . S
C2601 C2602 1.502 . S
C2601 C2603 1.561 . S
C2601 C2604 1.526 . S
C2602 H2586 0.959 . S
C2602 H2587 0.959 . S
C2602 H2588 0.961 . S
C2602 C2601 1.502 . S
C2603 H2589 0.960 . S
C2603 H2590 0.961 . S
C2603 H2591 0.959 . S
C2603 C2601 1.561 . S
C2604 C2601 1.526 . S
C2604 C2605 1.396 . S
C2604 C2609 1.390 . S
C2605 C2599 1.465 . S
C2605 C2604 1.396 . S
C2605 C2606 1.399 . S
C2606 H2592 0.929 . S
C2606 C2605 1.399 . S
C2606 C2607 1.385 . S
C2607 H2593 0.931 . S
C2607 C2606 1.385 . S
C2607 C2608 1.389 . S
C2608 C2607 1.389 . S
C2608 C2609 1.387 . S
C2609 H2594 0.930 . S
C2609 C2604 1.390 . S
C2609 C2608 1.387 . S
C679 C53 1.527 . S
C691 C418 1.270 . S
C706 N2 1.351 . S
C718 C434 1.287 . S
C745 C417 1.318 . S
C733 N25 1.277 . S
C772 C442 1.176 . S
C760 N48 1.237 . S
C787 C7 1.530 . S
C799 C451 1.309 . S
C826 C454 1.348 . S
C814 C30 1.472 . S
C841 C122 1.493 . S
C853 C460 1.235 . S
C880 C476 1.119 1_565 S
C868 N71 1.266 . S
C907 C459 1.274 . S
C895 N94 1.351 . S
C922 N117 1.300 . S
C934 C484 1.281 . S
C961 C493 1.334 . S
C949 C76 1.564 . S
C988 C496 1.246 . S
C976 C99 1.456 . S
C1015 C505 1.309 . S
C1003 C191 1.532 . S
C1042 C517 1.158 . S
C1030 N140 1.261 . S
C1069 C514 1.245 . S
C1057 N163 1.218 . S
C1084 N186 1.266 . S
C1096 C523 1.285 . S
C1123 C522 1.307 . S
C1111 C145 1.530 . S
C1138 C168 1.417 . S
C1150 C539 1.274 . S
C1177 C544 1.288 . S
C1165 C260 1.478 . S
C1204 C560 1.164 . S
C1192 N209 1.316 . S
C1219 N232 1.356 . S
C1231 C543 1.301 . S
C1258 C568 1.298 . S
C1246 N255 1.355 . S
C1285 C577 1.423 . S
C1273 C214 1.578 . S
C1300 C237 1.471 . S
C1312 C580 1.358 . S
C1327 C329 1.473 . S
C1339 C589 1.291 . S
C1366 C601 1.180 . S
C1354 N278 1.250 . S
C1393 C598 1.290 . S
C1381 N301 1.236 . S
C1408 N324 1.315 . S
C1420 C607 1.300 . S
C1447 C606 1.410 . S
C1435 C283 1.575 . S
C1462 C306 1.425 . S
C1474 C623 1.328 . S
C1501 C628 1.307 . S
C1489 C398 1.483 . S
C1528 C644 1.212 . S
C1516 N347 1.352 . S
C1543 N370 1.268 . S
C1555 C627 1.285 . S
C1582 C649 1.236 . S
C1570 N393 1.259 . S
C1609 C648 1.377 . S
C1597 C352 1.576 . S
C1636 C665 1.214 . S
C1624 C375 1.423 . S
C1663 C430 1.812 . S
C1651 N265 1.892 . S
C1678 C223 1.751 . S
C1690 C433 1.662 1_655 S
C1717 C421 1.637 . S
C1705 C246 1.650 . S
C1732 C407 1.752 . S
C1744 C438 1.705 . S
C1759 N357 1.824 . S
C1771 C439 1.694 . S
C1798 C455 1.776 1_565 S
C1786 N380 1.825 . S
C1825 C472 1.828 1_565 S
C1813 N334 1.880 . S
C1852 C475 1.682 . S
C1840 C292 1.784 . S
C1867 C315 1.677 . S
C1879 C463 1.630 . S
C1906 C480 1.710 1_655 S
C1894 C200 1.709 . S
C1921 N150 1.824 . S
C1933 C481 1.712 . S
C1948 N173 1.790 . S
C1960 C497 1.758 . S
C1975 N403 1.924 . S
C1987 C501 1.873 . S
C2002 C361 1.740 . S
C2014 C518 1.704 . S
C2041 C502 1.646 . S
C2029 C384 1.650 . S
C2068 C535 1.699 . S
C2056 C131 1.716 . S
C2095 C526 1.766 . S
C2083 N81 1.870 . S
C2110 N104 1.811 . S
C2122 C538 1.759 . S
C2149 C556 1.860 . S
C2137 N58 1.936 . S
C2176 C559 1.767 . S
C2164 C16 1.796 . S
C2191 C39 1.673 . S
C2203 C547 1.709 . S
C2230 C564 1.624 . S
C2218 C338 1.728 . S
C2257 C565 1.697 . S
C2245 N288 1.825 . S
C2284 C581 1.715 . S
C2272 N311 1.808 . S
C2311 C585 1.873 . S
C2299 N127 1.924 . S
C2338 C602 1.714 . S
C2326 C85 1.795 . S
C2353 C108 1.735 . S
C2365 C586 1.715 . S
C2380 C269 1.730 . S
C2392 C619 1.649 . S
C2407 N219 1.864 . S
C2419 C610 1.753 . S
C2446 C622 1.699 . S
C2434 N242 1.775 . S
C2461 N196 1.926 . S
C2473 C640 1.834 . S
C2488 C154 1.796 . S
C2500 C643 1.767 . S
C2527 C631 1.660 . S
C2515 C177 1.649 1_565 S
C2554 C661 1.708 . S
C2542 C62 1.736 . S
C2581 C652 1.774 . S
C2569 N12 1.876 . S
C2596 N35 1.826 . S
C2608 C664 1.744 . S
