# Generated by pormake.
# Topology gar, (4,6)-cn, num edge types: 1
# Building blocks:
#     Node 0, Type 0, BuildingBlock: QUQFOY_clean_sbu_3, # of connection points: 4
#     Node 1, Type 0, BuildingBlock: QUQFOY_clean_sbu_3, # of connection points: 4
#     Node 2, Type 0, BuildingBlock: QUQFOY_clean_sbu_3, # of connection points: 4
#     Node 3, Type 0, BuildingBlock: QUQFOY_clean_sbu_3, # of connection points: 4
#     Node 4, Type 0, BuildingBlock: QUQFOY_clean_sbu_3, # of connection points: 4
#     Node 5, Type 0, BuildingBlock: QUQFOY_clean_sbu_3, # of connection points: 4
#     Node 6, Type 0, BuildingBlock: QUQFOY_clean_sbu_3, # of connection points: 4
#     Node 7, Type 0, BuildingBlock: QUQFOY_clean_sbu_3, # of connection points: 4
#     Node 8, Type 0, BuildingBlock: QUQFOY_clean_sbu_3, # of connection points: 4
#     Node 9, Type 0, BuildingBlock: QUQFOY_clean_sbu_3, # of connection points: 4
#     Node 10, Type 0, BuildingBlock: QUQFOY_clean_sbu_3, # of connection points: 4
#     Node 11, Type 0, BuildingBlock: QUQFOY_clean_sbu_3, # of connection points: 4
#     Node 12, Type 0, BuildingBlock: QUQFOY_clean_sbu_3, # of connection points: 4
#     Node 13, Type 0, BuildingBlock: QUQFOY_clean_sbu_3, # of connection points: 4
#     Node 14, Type 0, BuildingBlock: QUQFOY_clean_sbu_3, # of connection points: 4
#     Node 15, Type 0, BuildingBlock: QUQFOY_clean_sbu_3, # of connection points: 4
#     Node 16, Type 0, BuildingBlock: QUQFOY_clean_sbu_3, # of connection points: 4
#     Node 17, Type 0, BuildingBlock: QUQFOY_clean_sbu_3, # of connection points: 4
#     Node 18, Type 0, BuildingBlock: QUQFOY_clean_sbu_3, # of connection points: 4
#     Node 19, Type 0, BuildingBlock: QUQFOY_clean_sbu_3, # of connection points: 4
#     Node 20, Type 0, BuildingBlock: QUQFOY_clean_sbu_3, # of connection points: 4
#     Node 21, Type 0, BuildingBlock: QUQFOY_clean_sbu_3, # of connection points: 4
#     Node 22, Type 0, BuildingBlock: QUQFOY_clean_sbu_3, # of connection points: 4
#     Node 23, Type 0, BuildingBlock: QUQFOY_clean_sbu_3, # of connection points: 4
#     Node 24, Type 1, BuildingBlock: BETDIP_clean_sbu_0, # of connection points: 6
#     Node 25, Type 1, BuildingBlock: BETDIP_clean_sbu_0, # of connection points: 6
#     Node 26, Type 1, BuildingBlock: BETDIP_clean_sbu_0, # of connection points: 6
#     Node 27, Type 1, BuildingBlock: BETDIP_clean_sbu_0, # of connection points: 6
#     Node 28, Type 1, BuildingBlock: BETDIP_clean_sbu_0, # of connection points: 6
#     Node 29, Type 1, BuildingBlock: BETDIP_clean_sbu_0, # of connection points: 6
#     Node 30, Type 1, BuildingBlock: BETDIP_clean_sbu_0, # of connection points: 6
#     Node 31, Type 1, BuildingBlock: BETDIP_clean_sbu_0, # of connection points: 6
#     Node 32, Type 1, BuildingBlock: BETDIP_clean_sbu_0, # of connection points: 6
#     Node 33, Type 1, BuildingBlock: BETDIP_clean_sbu_0, # of connection points: 6
#     Node 34, Type 1, BuildingBlock: BETDIP_clean_sbu_0, # of connection points: 6
#     Node 35, Type 1, BuildingBlock: BETDIP_clean_sbu_0, # of connection points: 6
#     Node 36, Type 1, BuildingBlock: BETDIP_clean_sbu_0, # of connection points: 6
#     Node 37, Type 1, BuildingBlock: BETDIP_clean_sbu_0, # of connection points: 6
#     Node 38, Type 1, BuildingBlock: BETDIP_clean_sbu_0, # of connection points: 6
#     Node 39, Type 1, BuildingBlock: BETDIP_clean_sbu_0, # of connection points: 6
#     Edge 40, Type (0, 1), BuildingBlock: AJUNOK_clean_linker_0, # of connection points: 2
#     Edge 41, Type (0, 1), BuildingBlock: AJUNOK_clean_linker_0, # of connection points: 2
#     Edge 42, Type (0, 1), BuildingBlock: AJUNOK_clean_linker_0, # of connection points: 2
#     Edge 43, Type (0, 1), BuildingBlock: AJUNOK_clean_linker_0, # of connection points: 2
#     Edge 44, Type (0, 1), BuildingBlock: AJUNOK_clean_linker_0, # of connection points: 2
#     Edge 45, Type (0, 1), BuildingBlock: AJUNOK_clean_linker_0, # of connection points: 2
#     Edge 46, Type (0, 1), BuildingBlock: AJUNOK_clean_linker_0, # of connection points: 2
#     Edge 47, Type (0, 1), BuildingBlock: AJUNOK_clean_linker_0, # of connection points: 2
#     Edge 48, Type (0, 1), BuildingBlock: AJUNOK_clean_linker_0, # of connection points: 2
#     Edge 49, Type (0, 1), BuildingBlock: AJUNOK_clean_linker_0, # of connection points: 2
#     Edge 50, Type (0, 1), BuildingBlock: AJUNOK_clean_linker_0, # of connection points: 2
#     Edge 51, Type (0, 1), BuildingBlock: AJUNOK_clean_linker_0, # of connection points: 2
#     Edge 52, Type (0, 1), BuildingBlock: AJUNOK_clean_linker_0, # of connection points: 2
#     Edge 53, Type (0, 1), BuildingBlock: AJUNOK_clean_linker_0, # of connection points: 2
#     Edge 54, Type (0, 1), BuildingBlock: AJUNOK_clean_linker_0, # of connection points: 2
#     Edge 55, Type (0, 1), BuildingBlock: AJUNOK_clean_linker_0, # of connection points: 2
#     Edge 56, Type (0, 1), BuildingBlock: AJUNOK_clean_linker_0, # of connection points: 2
#     Edge 57, Type (0, 1), BuildingBlock: AJUNOK_clean_linker_0, # of connection points: 2
#     Edge 58, Type (0, 1), BuildingBlock: AJUNOK_clean_linker_0, # of connection points: 2
#     Edge 59, Type (0, 1), BuildingBlock: AJUNOK_clean_linker_0, # of connection points: 2
#     Edge 60, Type (0, 1), BuildingBlock: AJUNOK_clean_linker_0, # of connection points: 2
#     Edge 61, Type (0, 1), BuildingBlock: AJUNOK_clean_linker_0, # of connection points: 2
#     Edge 62, Type (0, 1), BuildingBlock: AJUNOK_clean_linker_0, # of connection points: 2
#     Edge 63, Type (0, 1), BuildingBlock: AJUNOK_clean_linker_0, # of connection points: 2
#     Edge 64, Type (0, 1), BuildingBlock: AJUNOK_clean_linker_0, # of connection points: 2
#     Edge 65, Type (0, 1), BuildingBlock: AJUNOK_clean_linker_0, # of connection points: 2
#     Edge 66, Type (0, 1), BuildingBlock: AJUNOK_clean_linker_0, # of connection points: 2
#     Edge 67, Type (0, 1), BuildingBlock: AJUNOK_clean_linker_0, # of connection points: 2
#     Edge 68, Type (0, 1), BuildingBlock: AJUNOK_clean_linker_0, # of connection points: 2
#     Edge 69, Type (0, 1), BuildingBlock: AJUNOK_clean_linker_0, # of connection points: 2
#     Edge 70, Type (0, 1), BuildingBlock: AJUNOK_clean_linker_0, # of connection points: 2
#     Edge 71, Type (0, 1), BuildingBlock: AJUNOK_clean_linker_0, # of connection points: 2
#     Edge 72, Type (0, 1), BuildingBlock: AJUNOK_clean_linker_0, # of connection points: 2
#     Edge 73, Type (0, 1), BuildingBlock: AJUNOK_clean_linker_0, # of connection points: 2
#     Edge 74, Type (0, 1), BuildingBlock: AJUNOK_clean_linker_0, # of connection points: 2
#     Edge 75, Type (0, 1), BuildingBlock: AJUNOK_clean_linker_0, # of connection points: 2
#     Edge 76, Type (0, 1), BuildingBlock: AJUNOK_clean_linker_0, # of connection points: 2
#     Edge 77, Type (0, 1), BuildingBlock: AJUNOK_clean_linker_0, # of connection points: 2
#     Edge 78, Type (0, 1), BuildingBlock: AJUNOK_clean_linker_0, # of connection points: 2
#     Edge 79, Type (0, 1), BuildingBlock: AJUNOK_clean_linker_0, # of connection points: 2
#     Edge 80, Type (0, 1), BuildingBlock: AJUNOK_clean_linker_0, # of connection points: 2
#     Edge 81, Type (0, 1), BuildingBlock: AJUNOK_clean_linker_0, # of connection points: 2
#     Edge 82, Type (0, 1), BuildingBlock: AJUNOK_clean_linker_0, # of connection points: 2
#     Edge 83, Type (0, 1), BuildingBlock: AJUNOK_clean_linker_0, # of connection points: 2
#     Edge 84, Type (0, 1), BuildingBlock: AJUNOK_clean_linker_0, # of connection points: 2
#     Edge 85, Type (0, 1), BuildingBlock: AJUNOK_clean_linker_0, # of connection points: 2
#     Edge 86, Type (0, 1), BuildingBlock: AJUNOK_clean_linker_0, # of connection points: 2
#     Edge 87, Type (0, 1), BuildingBlock: AJUNOK_clean_linker_0, # of connection points: 2
#     Edge 88, Type (0, 1), BuildingBlock: AJUNOK_clean_linker_0, # of connection points: 2
#     Edge 89, Type (0, 1), BuildingBlock: AJUNOK_clean_linker_0, # of connection points: 2
#     Edge 90, Type (0, 1), BuildingBlock: AJUNOK_clean_linker_0, # of connection points: 2
#     Edge 91, Type (0, 1), BuildingBlock: AJUNOK_clean_linker_0, # of connection points: 2
#     Edge 92, Type (0, 1), BuildingBlock: AJUNOK_clean_linker_0, # of connection points: 2
#     Edge 93, Type (0, 1), BuildingBlock: AJUNOK_clean_linker_0, # of connection points: 2
#     Edge 94, Type (0, 1), BuildingBlock: AJUNOK_clean_linker_0, # of connection points: 2
#     Edge 95, Type (0, 1), BuildingBlock: AJUNOK_clean_linker_0, # of connection points: 2
#     Edge 96, Type (0, 1), BuildingBlock: AJUNOK_clean_linker_0, # of connection points: 2
#     Edge 97, Type (0, 1), BuildingBlock: AJUNOK_clean_linker_0, # of connection points: 2
#     Edge 98, Type (0, 1), BuildingBlock: AJUNOK_clean_linker_0, # of connection points: 2
#     Edge 99, Type (0, 1), BuildingBlock: AJUNOK_clean_linker_0, # of connection points: 2
#     Edge 100, Type (0, 1), BuildingBlock: AJUNOK_clean_linker_0, # of connection points: 2
#     Edge 101, Type (0, 1), BuildingBlock: AJUNOK_clean_linker_0, # of connection points: 2
#     Edge 102, Type (0, 1), BuildingBlock: AJUNOK_clean_linker_0, # of connection points: 2
#     Edge 103, Type (0, 1), BuildingBlock: AJUNOK_clean_linker_0, # of connection points: 2
#     Edge 104, Type (0, 1), BuildingBlock: AJUNOK_clean_linker_0, # of connection points: 2
#     Edge 105, Type (0, 1), BuildingBlock: AJUNOK_clean_linker_0, # of connection points: 2
#     Edge 106, Type (0, 1), BuildingBlock: AJUNOK_clean_linker_0, # of connection points: 2
#     Edge 107, Type (0, 1), BuildingBlock: AJUNOK_clean_linker_0, # of connection points: 2
#     Edge 108, Type (0, 1), BuildingBlock: AJUNOK_clean_linker_0, # of connection points: 2
#     Edge 109, Type (0, 1), BuildingBlock: AJUNOK_clean_linker_0, # of connection points: 2
#     Edge 110, Type (0, 1), BuildingBlock: AJUNOK_clean_linker_0, # of connection points: 2
#     Edge 111, Type (0, 1), BuildingBlock: AJUNOK_clean_linker_0, # of connection points: 2
#     Edge 112, Type (0, 1), BuildingBlock: AJUNOK_clean_linker_0, # of connection points: 2
#     Edge 113, Type (0, 1), BuildingBlock: AJUNOK_clean_linker_0, # of connection points: 2
#     Edge 114, Type (0, 1), BuildingBlock: AJUNOK_clean_linker_0, # of connection points: 2
#     Edge 115, Type (0, 1), BuildingBlock: AJUNOK_clean_linker_0, # of connection points: 2
#     Edge 116, Type (0, 1), BuildingBlock: AJUNOK_clean_linker_0, # of connection points: 2
#     Edge 117, Type (0, 1), BuildingBlock: AJUNOK_clean_linker_0, # of connection points: 2
#     Edge 118, Type (0, 1), BuildingBlock: AJUNOK_clean_linker_0, # of connection points: 2
#     Edge 119, Type (0, 1), BuildingBlock: AJUNOK_clean_linker_0, # of connection points: 2
#     Edge 120, Type (0, 1), BuildingBlock: AJUNOK_clean_linker_0, # of connection points: 2
#     Edge 121, Type (0, 1), BuildingBlock: AJUNOK_clean_linker_0, # of connection points: 2
#     Edge 122, Type (0, 1), BuildingBlock: AJUNOK_clean_linker_0, # of connection points: 2
#     Edge 123, Type (0, 1), BuildingBlock: AJUNOK_clean_linker_0, # of connection points: 2
#     Edge 124, Type (0, 1), BuildingBlock: AJUNOK_clean_linker_0, # of connection points: 2
#     Edge 125, Type (0, 1), BuildingBlock: AJUNOK_clean_linker_0, # of connection points: 2
#     Edge 126, Type (0, 1), BuildingBlock: AJUNOK_clean_linker_0, # of connection points: 2
#     Edge 127, Type (0, 1), BuildingBlock: AJUNOK_clean_linker_0, # of connection points: 2
#     Edge 128, Type (0, 1), BuildingBlock: AJUNOK_clean_linker_0, # of connection points: 2
#     Edge 129, Type (0, 1), BuildingBlock: AJUNOK_clean_linker_0, # of connection points: 2
#     Edge 130, Type (0, 1), BuildingBlock: AJUNOK_clean_linker_0, # of connection points: 2
#     Edge 131, Type (0, 1), BuildingBlock: AJUNOK_clean_linker_0, # of connection points: 2
#     Edge 132, Type (0, 1), BuildingBlock: AJUNOK_clean_linker_0, # of connection points: 2
#     Edge 133, Type (0, 1), BuildingBlock: AJUNOK_clean_linker_0, # of connection points: 2
#     Edge 134, Type (0, 1), BuildingBlock: AJUNOK_clean_linker_0, # of connection points: 2
#     Edge 135, Type (0, 1), BuildingBlock: AJUNOK_clean_linker_0, # of connection points: 2
# Relax obj value: 0.239
# Max RMSD: 0.360
# Mean RMSD: 0.166
data_MOF--net-gar--node1-QUQFOY_clean_sbu_3--node2-BETDIP_clean_sbu_0--edge1-AJUNOK_clean_linker_0
_symmetry_space_group_name_H-M    P1
_symmetry_Int_Tables_number       1
_symmetry_cell_setting            triclinic
loop_
_symmetry_equiv_pos_as_xyz
'x, y, z'
_cell_length_a     50.029052
_cell_length_b     44.210865
_cell_length_c     41.387347
_cell_angle_alpha  98.93099
_cell_angle_beta   100.02537
_cell_angle_gamma 102.15803
loop_
_atom_site_label
_atom_site_type_symbol
_atom_site_fract_x
_atom_site_fract_y
_atom_site_fract_z
_atom_type_partial_charge
C0 C 0.98001 0.3598 0.38063 0.0
O1 O 0.99193 0.37692 0.36286 0.0
Cd2 Cd 0.04177 0.38795 0.3765 0.0
O3 O 0.99383 0.34706 0.40056 0.0
Cd4 Cd 0.03711 0.33877 0.42089 0.0
C5 C 0.05172 0.40989 0.46196 0.0
O6 O 0.05487 0.3382 0.37163 0.0
O7 O 0.08446 0.3455 0.41938 0.0
O8 O 1.01554 0.28424 0.41727 0.0
C9 C 0.07914 0.33937 0.38769 0.0
O10 O 0.05186 0.41839 0.43394 0.0
C11 C 0.02527 0.28621 0.4482 0.0
O12 O 0.04626 0.38124 0.46389 0.0
O13 O 0.04089 0.31231 0.46484 0.0
C14 C 0.03898 0.75931 0.80386 0.0
O15 O 0.05002 0.7385 0.81471 0.0
Cd16 Cd 0.09208 0.72697 0.80058 0.0
O17 O 0.04796 0.77375 0.78249 0.0
Cd18 Cd 0.08258 0.77259 0.75258 0.0
C19 C 0.07002 0.69992 0.71743 0.0
O20 O 0.12154 0.77404 0.79462 0.0
O21 O 0.12336 0.76111 0.74222 0.0
O22 O 0.09129 0.82792 0.76075 0.0
C23 C 0.13568 0.76832 0.7727 0.0
O24 O 0.0838 0.69606 0.74468 0.0
C25 C 0.08956 0.82771 0.72983 0.0
O26 O 0.06098 0.72442 0.71525 0.0
O27 O 0.08274 0.80137 0.70943 0.0
C28 C 0.47826 0.85584 0.88013 0.0
O29 O 0.48978 0.8732 0.8623 0.0
Cd30 Cd 0.5396 0.88356 0.87617 0.0
O31 O 0.49252 0.84405 0.90062 0.0
Cd32 Cd 0.53608 0.83689 0.92156 0.0
C33 C 0.55013 0.90673 0.96221 0.0
O34 O 0.55222 0.83352 0.87089 0.0
O35 O 0.58348 0.84666 0.91768 0.0
O36 O 0.51244 0.78312 0.91861 0.0
C37 C 0.57719 0.83713 0.88619 0.0
O38 O 0.55078 0.91399 0.93369 0.0
C39 C 0.52522 0.78392 0.94815 0.0
O40 O 0.54419 0.87844 0.96535 0.0
O41 O 0.54311 0.80897 0.96375 0.0
C42 C 0.54067 0.261 0.30477 0.0
O43 O 0.54972 0.23857 0.31477 0.0
Cd44 Cd 0.59289 0.22661 0.30459 0.0
O45 O 0.55245 0.27682 0.2861 0.0
Cd46 Cd 0.58893 0.27506 0.25924 0.0
C47 C 0.57772 0.20208 0.22124 0.0
O48 O 0.62491 0.27451 0.30414 0.0
O49 O 0.63124 0.26658 0.25283 0.0
O50 O 0.60334 0.32986 0.26106 0.0
C51 C 0.641 0.27119 0.28397 0.0
O52 O 0.58661 0.19517 0.24916 0.0
C53 C 0.59359 0.32606 0.22991 0.0
O54 O 0.57252 0.22852 0.21906 0.0
O55 O 0.58157 0.2985 0.21335 0.0
C56 C 0.0474 0.80259 0.23511 0.0
O57 O 0.06466 0.79603 0.25765 0.0
Cd58 Cd 0.1112 0.79346 0.25477 0.0
O59 O 0.05534 0.81328 0.21032 0.0
Cd60 Cd 0.10062 0.83039 0.18819 0.0
C61 C 0.09394 0.75114 0.17138 0.0
O62 O 0.13555 0.83968 0.24163 0.0
O63 O 0.15363 0.83296 0.1989 0.0
O64 O 0.08806 0.88281 0.18567 0.0
C65 C 0.15715 0.83649 0.23054 0.0
O66 O 0.10144 0.75593 0.2031 0.0
C67 C 0.08892 0.88354 0.15525 0.0
O68 O 0.09052 0.7739 0.15656 0.0
O69 O 0.096 0.86019 0.1398 0.0
C70 C 0.46836 0.79422 0.43073 0.0
O71 O 0.48709 0.80824 0.41746 0.0
Cd72 Cd 0.53563 0.82633 0.43702 0.0
O73 O 0.476 0.78252 0.45674 0.0
Cd74 Cd 0.52808 0.78141 0.49159 0.0
C75 C 0.53298 0.85978 0.51764 0.0
O76 O 0.55458 0.7835 0.44648 0.0
O77 O 0.57945 0.80406 0.49553 0.0
O78 O 0.51971 0.72368 0.4965 0.0
C79 C 0.57874 0.79589 0.46463 0.0
O80 O 0.53698 0.86196 0.48848 0.0
C81 C 0.53461 0.72727 0.52578 0.0
O82 O 0.52837 0.83312 0.52674 0.0
O83 O 0.54511 0.75584 0.54057 0.0
C84 C 0.54706 0.30135 0.73583 0.0
O85 O 0.56491 0.29283 0.75593 0.0
Cd86 Cd 0.61191 0.29176 0.75358 0.0
O87 O 0.55434 0.31404 0.71189 0.0
Cd88 Cd 0.59898 0.32931 0.68876 0.0
C89 C 0.59528 0.24976 0.6705 0.0
O90 O 0.63628 0.33848 0.74126 0.0
O91 O 0.65118 0.33017 0.69606 0.0
O92 O 0.598 0.38613 0.68594 0.0
C93 C 0.65681 0.33522 0.72791 0.0
O94 O 0.60312 0.25392 0.70217 0.0
C95 C 0.58735 0.38205 0.65489 0.0
O96 O 0.59039 0.2727 0.65672 0.0
O97 O 0.58301 0.35396 0.63854 0.0
C98 C 0.96756 0.29013 0.93186 0.0
O99 O 0.98623 0.30557 0.91947 0.0
Cd100 Cd 0.03556 0.32245 0.93482 0.0
O101 O 0.97515 0.27832 0.9578 0.0
Cd102 Cd 0.02701 0.27987 0.99432 0.0
C103 C 0.0336 0.36 0.0145 0.0
O104 O 0.05447 0.28153 0.94991 0.0
O105 O 0.0788 0.30094 0.99961 0.0
O106 O 0.02515 0.22234 0.99716 0.0
C107 C 0.07848 0.29315 0.96873 0.0
O108 O 0.03791 0.35873 0.98499 0.0
C109 C 0.03327 0.22561 0.0287 0.0
O110 O 0.02804 0.33471 0.02624 0.0
O111 O 0.03626 0.25342 0.04514 0.0
C112 C 0.47591 0.06356 0.39238 0.0
O113 O 0.48258 0.04388 0.37139 0.0
Cd114 Cd 0.46328 0.02865 0.31238 0.0
O115 O 0.45754 0.07874 0.38122 0.0
Cd116 Cd 0.42531 0.0789 0.31659 0.0
C117 C 0.39668 0.99264 0.31401 0.0
O118 O 0.46908 0.07525 0.28722 0.0
O119 O 0.43179 0.06642 0.25138 0.0
O120 O 0.41776 0.13966 0.33179 0.0
C121 C 0.4582 0.06934 0.25607 0.0
O122 O 0.41948 0.98856 0.30667 0.0
C123 C 0.39166 0.13593 0.31941 0.0
O124 O 0.39328 0.02115 0.32002 0.0
O125 O 0.38055 0.10695 0.30557 0.0
C126 C 0.32134 0.15435 0.58685 0.0
O127 O 0.30361 0.13495 0.59685 0.0
Cd128 Cd 0.25685 0.13587 0.6001 0.0
O129 O 0.31385 0.17562 0.57212 0.0
Cd130 Cd 0.26796 0.19293 0.55455 0.0
C131 C 0.27537 0.21581 0.63786 0.0
O132 O 0.23196 0.14323 0.54976 0.0
O133 O 0.21564 0.18434 0.55303 0.0
O134 O 0.27644 0.19615 0.4972 0.0
C135 C 0.21096 0.15476 0.55172 0.0
O136 O 0.26749 0.18639 0.63734 0.0
C137 C 0.27829 0.22562 0.49968 0.0
O138 O 0.27837 0.22625 0.6113 0.0
O139 O 0.27439 0.23973 0.52706 0.0
C140 C 0.11627 0.09152 0.92897 0.0
O141 O 0.10632 0.11118 0.91448 0.0
Cd142 Cd 0.13408 0.11636 0.87245 0.0
O143 O 0.1355 0.08087 0.91811 0.0
Cd144 Cd 0.15475 0.0895 0.86612 0.0
C145 C 0.1911 0.1623 0.87369 0.0
O146 O 0.11163 0.08048 0.82106 0.0
O147 O 0.15066 0.10326 0.8104 0.0
O148 O 0.15235 0.03348 0.84968 0.0
C149 C 0.1252 0.08881 0.79953 0.0
O150 O 0.16599 0.16442 0.86568 0.0
C151 C 0.17841 0.03763 0.85138 0.0
O152 O 0.1951 0.13681 0.88185 0.0
O153 O 0.19329 0.06558 0.86198 0.0
C154 C 0.28284 0.92429 0.01092 0.0
O155 O 0.26587 0.93579 0.99261 0.0
Cd156 Cd 0.21677 0.91234 0.97138 0.0
O157 O 0.27498 0.89722 0.01822 0.0
Cd158 Cd 0.23247 0.85314 0.01045 0.0
C159 C 0.22032 0.84122 0.93464 0.0
O160 O 0.21956 0.89819 0.02456 0.0
O161 O 0.19981 0.86195 0.04805 0.0
O162 O 0.23571 0.81754 0.04706 0.0
C163 C 0.20237 0.88963 0.04214 0.0
O164 O 0.22149 0.86901 0.92942 0.0
C165 C 0.26105 0.81794 0.04603 0.0
O166 O 0.2063 0.83192 0.95536 0.0
O167 O 0.2714 0.83151 0.0246 0.0
C168 C 0.40141 0.46928 0.11014 0.0
O169 O 0.3859 0.48469 0.09573 0.0
Cd170 Cd 0.33627 0.46917 0.0775 0.0
O171 O 0.39047 0.44467 0.12079 0.0
Cd172 Cd 0.33862 0.41503 0.12116 0.0
C173 C 0.3326 0.39266 0.0393 0.0
O174 O 0.31241 0.45664 0.11984 0.0
O175 O 0.28782 0.40912 0.09987 0.0
O176 O 0.34317 0.41002 0.18096 0.0
C177 C 0.28842 0.43815 0.1075 0.0
O178 O 0.33055 0.42075 0.03864 0.0
C179 C 0.33299 0.3803 0.1751 0.0
O180 O 0.33679 0.38304 0.06677 0.0
O181 O 0.32714 0.36657 0.14452 0.0
C182 C 0.91135 0.19885 0.15375 0.0
O183 O 0.90074 0.18702 0.17624 0.0
Cd184 Cd 0.88146 0.21316 0.21893 0.0
O185 O 0.90928 0.22548 0.14756 0.0
Cd186 Cd 0.874 0.25114 0.15573 0.0
C187 C 0.89776 0.28705 0.22118 0.0
O188 O 0.84198 0.21007 0.17649 0.0
O189 O 0.82434 0.22604 0.13319 0.0
O190 O 0.86869 0.25112 0.09873 0.0
C191 C 0.82074 0.20824 0.15387 0.0
O192 O 0.90953 0.26443 0.22164 0.0
C193 C 0.85815 0.27497 0.10216 0.0
O194 O 0.89742 0.2994 0.19587 0.0
O195 O 0.86195 0.29159 0.13121 0.0
C196 C 0.14356 0.55085 0.41701 0.0
O197 O 0.1353 0.56805 0.39748 0.0
Cd198 Cd 0.15027 0.57319 0.3459 0.0
O199 O 0.16173 0.5352 0.40808 0.0
Cd200 Cd 0.18968 0.52796 0.34984 0.0
C201 C 0.2169 0.61501 0.35408 0.0
O202 O 0.14298 0.52426 0.30607 0.0
O203 O 0.17844 0.53346 0.28481 0.0
O204 O 0.19651 0.46648 0.34503 0.0
C205 C 0.15193 0.52876 0.27979 0.0
O206 O 0.19133 0.61598 0.34915 0.0
C207 C 0.22313 0.47044 0.34982 0.0
O208 O 0.22315 0.5883 0.35702 0.0
O209 O 0.23496 0.4999 0.35474 0.0
C210 C 0.90011 0.97043 0.60573 0.0
O211 O 0.88106 0.98137 0.59078 0.0
Cd212 Cd 0.83178 0.96218 0.57883 0.0
O213 O 0.89308 0.94769 0.62098 0.0
Cd214 Cd 0.84179 0.91687 0.62367 0.0
C215 C 0.83057 0.88716 0.54246 0.0
O216 O 0.81228 0.95547 0.62605 0.0
O217 O 0.79213 0.91081 0.5935 0.0
O218 O 0.84183 0.91054 0.68324 0.0
C219 C 0.78982 0.93734 0.60787 0.0
O220 O 0.82318 0.91259 0.53945 0.0
C221 C 0.83469 0.88051 0.67681 0.0
O222 O 0.84129 0.88254 0.57095 0.0
O223 O 0.83253 0.86756 0.64656 0.0
C224 C 1.00164 1.01075 0.37676 0.0
O225 O 1.01567 0.99568 0.36067 0.0
Cd226 Cd 0.99194 0.97536 0.30399 0.0
O227 O 0.97976 0.01681 0.36116 0.0
Cd228 Cd 0.95796 1.01261 0.30061 0.0
C229 C 0.92354 0.94204 0.30317 0.0
O230 O 1.00064 0.02182 0.27744 0.0
O231 O 0.96159 1.01117 0.24126 0.0
O232 O 0.95867 0.06339 0.33142 0.0
C233 C 0.98797 0.02133 0.24792 0.0
O234 O 0.94825 0.9381 0.30844 0.0
C235 C 0.93519 0.0641 0.31463 0.0
O236 O 0.91961 0.96761 0.29567 0.0
O237 O 0.92323 0.04175 0.28988 0.0
C238 C 0.40257 0.69555 0.65723 0.0
O239 O 0.40427 0.69245 0.68752 0.0
Cd240 Cd 0.37473 0.70497 0.72337 0.0
O241 O 0.38942 0.71428 0.64523 0.0
Cd242 Cd 0.36792 0.75054 0.67323 0.0
C243 C 0.39733 0.77604 0.74828 0.0
O244 O 0.33687 0.70062 0.67504 0.0
O245 O 0.31784 0.73997 0.67116 0.0
O246 O 0.36867 0.76164 0.62038 0.0
C247 C 0.31488 0.71063 0.66972 0.0
O248 O 0.39903 0.75381 0.76377 0.0
C249 C 0.35475 0.78238 0.62435 0.0
O250 O 0.40538 0.77353 0.721 0.0
O251 O 0.35292 0.79356 0.65389 0.0
C252 C 0.50028 0.50956 0.87748 0.0
O253 O 0.50817 0.48738 0.86146 0.0
Cd254 Cd 0.48907 0.4719 0.80209 0.0
O255 O 0.48364 0.52307 0.86192 0.0
Cd256 Cd 0.45927 0.51724 0.8038 0.0
C257 C 0.42184 0.44295 0.80254 0.0
O258 O 0.50161 0.51993 0.77904 0.0
O259 O 0.46302 0.51611 0.74442 0.0
O260 O 0.46229 0.56986 0.83358 0.0
C261 C 0.48955 0.52214 0.75014 0.0
O262 O 0.44307 0.43417 0.79535 0.0
C263 C 0.43931 0.5717 0.81648 0.0
O264 O 0.4224 0.47213 0.80785 0.0
O265 O 0.4261 0.54865 0.79289 0.0
C266 C 0.64451 0.05021 0.91707 0.0
O267 O 0.63449 0.06547 0.89654 0.0
Cd268 Cd 0.65493 0.06574 0.84882 0.0
O269 O 0.66357 0.03591 0.90849 0.0
Cd270 Cd 0.6898 0.02827 0.8491 0.0
C271 C 0.7155 0.11462 0.85437 0.0
O272 O 0.64211 0.02086 0.80313 0.0
O273 O 0.67865 0.03686 0.78565 0.0
O274 O 0.69847 0.96872 0.85521 0.0
C275 C 0.65203 0.02869 0.77846 0.0
O276 O 0.68942 0.11292 0.84909 0.0
C277 C 0.72286 0.97027 0.84898 0.0
O278 O 0.72354 0.08896 0.85791 0.0
O279 O 0.73258 0.99742 0.84275 0.0
C280 C 0.82118 0.65302 0.08321 0.0
O281 O 0.80309 0.63304 0.09195 0.0
Cd282 Cd 0.75785 0.63955 0.09679 0.0
O283 O 0.81428 0.67592 0.07108 0.0
Cd284 Cd 0.76833 0.69355 0.05457 0.0
C285 C 0.77585 0.71849 0.13629 0.0
O286 O 0.73048 0.64417 0.04576 0.0
O287 O 0.71756 0.68612 0.06167 0.0
O288 O 0.77309 0.69773 0.99542 0.0
C289 C 0.71079 0.65622 0.05289 0.0
O290 O 0.76825 0.68919 0.13644 0.0
C291 C 0.77814 0.72771 1.00026 0.0
O292 O 0.77918 0.72829 0.10958 0.0
O293 O 0.77698 0.74139 0.02917 0.0
C294 C 0.97592 0.56477 0.89345 0.0
O295 O 0.98395 0.54657 0.87236 0.0
Cd296 Cd 0.96433 0.53095 0.81371 0.0
O297 O 0.95649 0.57859 0.88205 0.0
Cd298 Cd 0.92419 0.57799 0.81626 0.0
C299 C 0.89746 0.49186 0.81408 0.0
O300 O 0.96757 0.57597 0.78591 0.0
O301 O 0.92934 0.56112 0.7509 0.0
O302 O 0.91661 0.63898 0.81739 0.0
C303 C 0.95599 0.56709 0.75495 0.0
O304 O 0.92183 0.48998 0.81052 0.0
C305 C 0.8907 0.63562 0.81825 0.0
O306 O 0.89168 0.51932 0.81688 0.0
O307 O 0.87958 0.60674 0.81814 0.0
C308 C 0.79377 0.40509 0.51582 0.0
O309 O 0.78163 0.41008 0.48851 0.0
Cd310 Cd 0.73303 0.40715 0.47596 0.0
O311 O 0.78 0.38775 0.53188 0.0
Cd312 Cd 0.73164 0.35305 0.51308 0.0
C313 C 0.71056 0.33762 0.4347 0.0
O314 O 0.72868 0.40441 0.53236 0.0
O315 O 0.6944 0.36638 0.53676 0.0
O316 O 0.73288 0.32687 0.55769 0.0
C317 C 0.7063 0.39563 0.54228 0.0
O318 O 0.7079 0.36437 0.42949 0.0
C319 C 0.75603 0.32078 0.55383 0.0
O320 O 0.70146 0.32881 0.45914 0.0
O321 O 0.76264 0.32128 0.52562 0.0
C322 C 0.61967 0.59048 0.43103 0.0
O323 O 0.62152 0.61887 0.42795 0.0
Cd324 Cd 0.64229 0.62227 0.3791 0.0
O325 O 0.62955 0.57314 0.41117 0.0
Cd326 Cd 0.65441 0.5906 0.36686 0.0
C327 C 0.69537 0.66447 0.37602 0.0
O328 O 0.61391 0.5975 0.32419 0.0
O329 O 0.64917 0.58334 0.3082 0.0
O330 O 0.65354 0.53596 0.34801 0.0
C331 C 0.62497 0.58774 0.30037 0.0
O332 O 0.67205 0.6716 0.37482 0.0
C333 C 0.67997 0.54057 0.35541 0.0
O334 O 0.69616 0.63627 0.3779 0.0
O335 O 0.69394 0.56787 0.37102 0.0
Tb336 Tb 0.03201 0.0391 0.07336 0.0
Tb337 Tb 0.08903 0.06967 0.11383 0.0
C338 C 0.98016 0.02976 0.05707 0.0
C339 C 0.96406 0.05396 0.06056 0.0
C340 C 0.95833 0.06411 0.09198 0.0
C341 C 0.94864 0.09107 0.09798 0.0
C342 C 0.94408 0.10815 0.07268 0.0
C343 C 0.94826 0.09763 0.04078 0.0
C344 C 0.95829 0.07052 0.03471 0.0
C345 C 0.0707 0.04346 0.03701 0.0
C346 C 0.05534 0.11575 0.08634 0.0
C347 C 0.14054 0.07755 0.13399 0.0
C348 C 0.15599 0.05259 0.13011 0.0
C349 C 0.1737 0.05313 0.10727 0.0
C350 C 0.18133 0.02576 0.09474 0.0
C351 C 0.17217 0.99777 0.10587 0.0
C352 C 0.15683 0.99787 0.13111 0.0
C353 C 0.14865 0.02505 0.14307 0.0
C354 C 0.04941 0.06474 0.14889 0.0
C355 C 0.06603 0.99306 0.09865 0.0
O356 O 0.99313 0.02497 0.08539 0.0
O357 O 0.99612 0.03143 0.03515 0.0
O358 O 0.06976 0.0632 0.06214 0.0
O359 O 0.04827 0.02042 0.03087 0.0
O360 O 0.0338 0.09046 0.07783 0.0
O361 O 0.08063 0.11357 0.10048 0.0
O362 O 0.12953 0.08432 0.1058 0.0
O363 O 0.12298 0.07509 0.15404 0.0
O364 O 0.05153 0.04521 0.12446 0.0
O365 O 0.07129 0.08846 0.15546 0.0
O366 O 0.08763 0.01816 0.10594 0.0
O367 O 0.04051 0.99553 0.08651 0.0
H368 H 0.96254 0.05213 0.11254 0.0
H369 H 0.94525 0.09908 0.12274 0.0
H370 H 0.94449 0.11071 0.02108 0.0
H371 H 0.96261 0.06329 0.01033 0.0
H372 H 0.18005 0.07418 0.09744 0.0
H373 H 0.19359 0.02615 0.07558 0.0
H374 H 0.14978 0.97643 0.14009 0.0
H375 H 0.13502 0.02372 0.16073 0.0
Tb376 Tb 0.31324 0.79086 0.30658 0.0
Tb377 Tb 0.29941 0.82027 0.37007 0.0
C378 C 0.31435 0.77445 0.24709 0.0
C379 C 0.32297 0.79451 0.22447 0.0
C380 C 0.31588 0.82365 0.22515 0.0
C381 C 0.32015 0.83976 0.19956 0.0
C382 C 0.32982 0.82543 0.17272 0.0
C383 C 0.34294 0.8008 0.17651 0.0
C384 C 0.3389 0.78475 0.20219 0.0
C385 C 0.35432 0.7899 0.35765 0.0
C386 C 0.33349 0.86727 0.33189 0.0
C387 C 0.29815 0.83694 0.42947 0.0
C388 C 0.29351 0.8173 0.45384 0.0
C389 C 0.31017 0.7962 0.46014 0.0
C390 C 0.30635 0.7791 0.48496 0.0
C391 C 0.28614 0.78342 0.50374 0.0
C392 C 0.26662 0.80038 0.49368 0.0
C393 C 0.27056 0.81771 0.46895 0.0
C394 C 0.25786 0.82092 0.31991 0.0
C395 C 0.28013 0.74362 0.34488 0.0
O396 O 0.29114 0.77676 0.25683 0.0
O397 O 0.33469 0.77452 0.27144 0.0
O398 O 0.33246 0.8001 0.35885 0.0
O399 O 0.35286 0.77969 0.32638 0.0
O400 O 0.32974 0.84227 0.30737 0.0
O401 O 0.32474 0.86371 0.3599 0.0
O402 O 0.32179 0.8393 0.41923 0.0
O403 O 0.27634 0.83181 0.40517 0.0
O404 O 0.27954 0.81046 0.31772 0.0
O405 O 0.26036 0.83222 0.3511 0.0
O406 O 0.2845 0.76855 0.36979 0.0
O407 O 0.2877 0.7475 0.31632 0.0
H408 H 0.30482 0.83242 0.24342 0.0
H409 H 0.31074 0.85952 0.19736 0.0
H410 H 0.35145 0.79023 0.15647 0.0
H411 H 0.34597 0.76327 0.20286 0.0
H412 H 0.32703 0.79414 0.44731 0.0
H413 H 0.32151 0.76579 0.49225 0.0
H414 H 0.25074 0.80347 0.50779 0.0
H415 H 0.25662 0.83269 0.46284 0.0
Tb416 Tb 0.5865 0.05386 0.577 0.0
Tb417 Tb 0.53334 0.05319 0.60518 0.0
C418 C 0.63316 0.04678 0.56671 0.0
C419 C 0.652 0.02543 0.57098 0.0
C420 C 0.65573 1.01151 0.59917 0.0
C421 C 0.6753 0.9931 0.60303 0.0
C422 C 0.69135 0.98817 0.57873 0.0
C423 C 0.68638 1.00081 0.54976 0.0
C424 C 0.66688 0.01917 0.54595 0.0
C425 C 0.54565 0.06084 0.52683 0.0
C426 C 0.54459 0.98882 0.57733 0.0
C427 C 0.48733 0.06146 0.61714 0.0
C428 C 0.46948 0.08441 0.61503 0.0
C429 C 0.45714 0.09034 0.58444 0.0
C430 C 0.43725 0.10842 0.58257 0.0
C431 C 0.42966 0.12224 0.61168 0.0
C432 C 0.44483 0.1192 0.64277 0.0
C433 C 0.46362 0.09972 0.64431 0.0
C434 C 0.57506 0.04501 0.65413 0.0
C435 C 0.57568 0.11823 0.60594 0.0
O436 O 0.63033 0.06514 0.59342 0.0
O437 O 0.60945 0.03455 0.54519 0.0
O438 O 0.54385 0.0578 0.55695 0.0
O439 O 0.57142 0.06117 0.52631 0.0
O440 O 0.57043 1.00449 0.57841 0.0
O441 O 0.52463 1.00319 0.58275 0.0
O442 O 0.48946 0.04386 0.58946 0.0
O443 O 0.51121 0.07153 0.63873 0.0
O444 O 0.57559 0.04912 0.62421 0.0
O445 O 0.54931 0.04396 0.65565 0.0
O446 O 0.54985 0.10307 0.6055 0.0
O447 O 0.59516 0.10362 0.59939 0.0
H448 H 0.64404 1.01544 0.61849 0.0
H449 H 0.67845 0.98335 0.62545 0.0
H450 H 0.69853 0.99785 0.53076 0.0
H451 H 0.664 0.02934 0.52377 0.0
H452 H 0.46203 0.07989 0.56183 0.0
H453 H 0.42702 0.11004 0.55787 0.0
H454 H 0.44242 0.13149 0.66629 0.0
H455 H 0.47341 0.09636 0.66856 0.0
Tb456 Tb 0.28159 0.3173 0.83784 0.0
Tb457 Tb 0.33264 0.29067 0.84296 0.0
C458 C 0.23747 0.33347 0.84689 0.0
C459 C 0.21751 0.3297 0.86949 0.0
C460 C 0.20921 0.30119 0.88023 0.0
C461 C 0.18835 0.29734 0.89898 0.0
C462 C 0.17548 0.32198 0.90763 0.0
C463 C 0.18443 0.35079 0.89769 0.0
C464 C 0.20529 0.35461 0.87893 0.0
C465 C 0.32625 0.35416 0.82568 0.0
C466 C 0.31934 0.31873 0.90832 0.0
C467 C 0.37788 0.27732 0.83503 0.0
C468 C 0.39625 0.27903 0.81048 0.0
C469 C 0.40995 0.30814 0.80435 0.0
C470 C 0.43039 0.30959 0.78504 0.0
C471 C 0.43764 0.28201 0.77145 0.0
C472 C 0.42274 0.25276 0.77601 0.0
C473 C 0.4023 0.25131 0.79531 0.0
C474 C 0.28777 0.25288 0.85401 0.0
C475 C 0.2949 0.28727 0.77226 0.0
O476 O 0.2378 0.30819 0.82599 0.0
O477 O 0.26268 0.35112 0.86001 0.0
O478 O 0.32596 0.3371 0.84738 0.0
O479 O 0.30074 0.35331 0.81202 0.0
O480 O 0.29367 0.3148 0.89081 0.0
O481 O 0.3402 0.31482 0.89401 0.0
O482 O 0.37642 0.30402 0.85257 0.0
O483 O 0.35355 0.25689 0.82558 0.0
O484 O 0.28823 0.27074 0.83302 0.0
O485 O 0.31338 0.25416 0.86807 0.0
O486 O 0.32031 0.29137 0.79029 0.0
O487 O 0.27398 0.29289 0.78594 0.0
H488 H 0.21839 0.28165 0.87356 0.0
H489 H 0.18167 0.27472 0.90583 0.0
H490 H 0.17507 0.37026 0.90413 0.0
H491 H 0.21145 0.37688 0.87113 0.0
H492 H 0.40582 0.32999 0.81566 0.0
H493 H 0.44172 0.33255 0.78256 0.0
H494 H 0.42775 0.23106 0.7658 0.0
H495 H 0.39206 0.22857 0.79958 0.0
Tb496 Tb 0.05247 0.08834 0.59338 0.0
Tb497 Tb 0.07102 0.02469 0.58341 0.0
C498 C 0.05218 0.14394 0.59366 0.0
C499 C 0.04062 0.15613 0.56502 0.0
C500 C 0.05524 0.15969 0.53927 0.0
C501 C 0.04438 0.17158 0.51229 0.0
C502 C 0.01922 0.18075 0.51134 0.0
C503 C 1.00321 0.17442 0.53507 0.0
C504 C 1.01389 0.16206 0.56193 0.0
C505 C 1.01152 0.04122 0.59986 0.0
C506 C 0.03905 0.04529 0.52077 0.0
C507 C 0.07272 0.96891 0.58005 0.0
C508 C 0.08046 0.95404 0.60811 0.0
C509 C 0.06015 0.94219 0.62538 0.0
C510 C 0.06781 0.93037 0.65367 0.0
C511 C 0.09586 0.93027 0.66503 0.0
C512 C 0.11639 0.94315 0.64867 0.0
C513 C 0.10872 0.95482 0.62018 0.0
C514 C 0.11179 0.07278 0.57792 0.0
C515 C 0.08215 0.06681 0.65642 0.0
O516 O 0.07451 0.13333 0.59139 0.0
O517 O 0.03366 0.12529 0.60507 0.0
O518 O 0.03561 0.04022 0.5945 0.0
O519 O 1.0103 0.07035 0.60148 0.0
O520 O 0.03911 0.07275 0.53905 0.0
O521 O 0.04943 0.02325 0.53288 0.0
O522 O 0.04921 0.97787 0.57831 0.0
O523 O 0.09311 0.99033 0.57502 0.0
O524 O 0.08741 0.07249 0.58259 0.0
O525 O 0.11398 0.0441 0.57706 0.0
O526 O 0.08038 0.03859 0.63817 0.0
O527 O 0.07472 0.09007 0.64349 0.0
H528 H 0.07561 0.15475 0.54064 0.0
H529 H 0.05714 0.17708 0.49432 0.0
H530 H 0.98393 0.18199 0.53464 0.0
H531 H 1.00186 0.15853 0.58101 0.0
H532 H 0.03828 0.94169 0.61688 0.0
H533 H 0.05152 0.91953 0.66538 0.0
H534 H 0.13805 0.94266 0.65697 0.0
H535 H 0.12489 0.96427 0.60757 0.0
Tb536 Tb 0.30842 0.76673 0.83718 0.0
Tb537 Tb 0.30174 0.83459 0.84006 0.0
C538 C 0.31316 0.71181 0.82239 0.0
C539 C 0.33707 0.69812 0.83002 0.0
C540 C 0.36319 0.7118 0.82373 0.0
C541 C 0.38506 0.697 0.82889 0.0
C542 C 0.38093 0.66834 0.8401 0.0
C543 C 0.35572 0.65641 0.84937 0.0
C544 C 0.33386 0.67125 0.84429 0.0
C545 C 0.30467 0.79683 0.89526 0.0
C546 C 0.36051 0.8217 0.86391 0.0
C547 C 0.29747 0.88998 0.85289 0.0
C548 C 0.27494 0.90522 0.84261 0.0
C549 C 0.25287 0.90395 0.8596 0.0
C550 C 0.23282 0.92061 0.85189 0.0
C551 C 0.23455 0.93882 0.82714 0.0
C552 C 0.25551 0.93859 0.80867 0.0
C553 C 0.27564 0.92186 0.81638 0.0
C554 C 0.30552 0.80474 0.78201 0.0
C555 C 0.24983 0.77918 0.81469 0.0
O556 O 0.31499 0.73153 0.80178 0.0
O557 O 0.30325 0.72161 0.84828 0.0
O558 O 0.29229 0.79833 0.86682 0.0
O559 O 0.31769 0.77448 0.89221 0.0
O560 O 0.35101 0.79214 0.8478 0.0
O561 O 0.34454 0.84173 0.86716 0.0
O562 O 0.29221 0.86961 0.87215 0.0
O563 O 0.30998 0.88006 0.8295 0.0
O564 O 0.31792 0.80324 0.81053 0.0
O565 O 0.29134 0.82595 0.78533 0.0
O566 O 0.25899 0.80907 0.82975 0.0
O567 O 0.2658 0.75942 0.81071 0.0
H568 H 0.36646 0.73325 0.81381 0.0
H569 H 0.40462 0.70692 0.82228 0.0
H570 H 0.35217 0.6344 0.85822 0.0
H571 H 0.31408 0.66103 0.85023 0.0
H572 H 0.25164 0.89116 0.8798 0.0
H573 H 0.21718 0.92106 0.86695 0.0
H574 H 0.25717 0.95274 0.78961 0.0
H575 H 0.2923 0.92295 0.80269 0.0
Tb576 Tb 0.52943 0.05693 0.06563 0.0
Tb577 Tb 0.58231 0.05696 0.11541 0.0
C578 C 0.48138 0.02761 0.03502 0.0
C579 C 0.45319 0.01747 0.04084 0.0
C580 C 0.44369 0.98538 0.04151 0.0
C581 C 0.41684 0.97353 0.04541 0.0
C582 C 0.39868 0.99342 0.0481 0.0
C583 C 0.40835 0.02587 0.04878 0.0
C584 C 0.43567 0.03796 0.04534 0.0
C585 C 0.5564 0.11179 0.10099 0.0
C586 C 0.52563 0.05287 0.14508 0.0
C587 C 0.63056 0.081 0.14978 0.0
C588 C 0.65799 0.09429 0.14235 0.0
C589 C 0.66426 0.12534 0.13665 0.0
C590 C 0.69093 0.13946 0.13326 0.0
C591 C 0.71205 0.12308 0.13585 0.0
C592 C 0.70566 0.09155 0.13979 0.0
C593 C 0.67874 0.0772 0.14297 0.0
C594 C 0.55586 1.0027 0.0759 0.0
C595 C 0.5862 0.0621 0.03594 0.0
O596 O 0.49921 1.01546 0.05263 0.0
O597 O 0.4918 0.0572 0.03318 0.0
O598 O 0.55392 0.08541 0.10933 0.0
O599 O 0.53957 0.10829 0.07193 0.0
O600 O 0.51344 0.05347 0.11357 0.0
O601 O 0.55315 0.05363 0.1519 0.0
O602 O 0.61162 0.09693 0.14337 0.0
O603 O 0.62018 0.05028 0.14125 0.0
O604 O 0.5587 0.02995 0.07028 0.0
O605 O 0.57039 1.00481 0.10608 0.0
O606 O 0.59931 0.06411 0.06802 0.0
O607 O 0.55832 0.05908 0.02926 0.0
H608 H 0.45686 0.96907 0.03797 0.0
H609 H 0.40972 0.94835 0.04393 0.0
H610 H 0.39443 0.0415 0.05063 0.0
H611 H 0.4427 0.06284 0.04526 0.0
H612 H 0.6489 0.13933 0.13604 0.0
H613 H 0.69548 0.16389 0.13049 0.0
H614 H 0.72172 0.07848 0.1416 0.0
H615 H 0.67447 0.05321 0.14709 0.0
Tb616 Tb 0.28066 0.28163 0.32096 0.0
Tb617 Tb 0.33317 0.32352 0.35396 0.0
C618 C 0.23063 0.25516 0.31523 0.0
C619 C 0.20824 0.27018 0.32267 0.0
C620 C 0.20619 0.2792 0.35614 0.0
C621 C 0.18588 0.29454 0.36352 0.0
C622 C 0.16729 0.30097 0.33766 0.0
C623 C 0.16967 0.29321 0.30442 0.0
C624 C 0.19014 0.27784 0.29692 0.0
C625 C 0.30645 0.30884 0.27895 0.0
C626 C 0.28255 0.35832 0.34765 0.0
C627 C 0.38365 0.34905 0.36037 0.0
C628 C 0.40585 0.33357 0.35303 0.0
C629 C 0.4085 0.32537 0.31961 0.0
C630 C 0.42825 0.30913 0.31207 0.0
C631 C 0.44566 0.30095 0.33772 0.0
C632 C 0.44295 0.30841 0.37092 0.0
C633 C 0.42305 0.32461 0.37857 0.0
C634 C 0.30671 0.29632 0.39558 0.0
C635 C 0.33134 0.24711 0.32583 0.0
O636 O 0.25006 0.25616 0.34127 0.0
O637 O 0.24101 0.26176 0.28947 0.0
O638 O 0.30535 0.32124 0.30817 0.0
O639 O 0.29174 0.27967 0.2719 0.0
O640 O 0.2675 0.3282 0.33578 0.0
O641 O 0.31037 0.36268 0.35652 0.0
O642 O 0.36451 0.34789 0.33415 0.0
O643 O 0.37284 0.3429 0.386 0.0
O644 O 0.30857 0.28395 0.36668 0.0
O645 O 0.32091 0.32571 0.40259 0.0
O646 O 0.34621 0.27702 0.33903 0.0
O647 O 0.30359 0.24274 0.31638 0.0
H648 H 0.22006 0.27421 0.37673 0.0
H649 H 0.18398 0.30037 0.38932 0.0
H650 H 0.15509 0.29792 0.28433 0.0
H651 H 0.19161 0.27167 0.27103 0.0
H652 H 0.39544 0.33158 0.29916 0.0
H653 H 0.43057 0.30383 0.28639 0.0
H654 H 0.45679 0.30257 0.39093 0.0
H655 H 0.42124 0.3303 0.40439 0.0
Tb656 Tb 0.55135 0.58732 0.09398 0.0
Tb657 Tb 0.57017 0.52492 0.08505 0.0
C658 C 0.54986 0.64258 0.09403 0.0
C659 C 0.53852 0.65406 0.06498 0.0
C660 C 0.54925 0.64978 0.03586 0.0
C661 C 0.53862 0.66132 0.00852 0.0
C662 C 0.51764 0.6776 0.01044 0.0
C663 C 0.50442 0.67818 0.03755 0.0
C664 C 0.51497 0.66647 0.06497 0.0
C665 C 0.5099 0.54098 0.10057 0.0
C666 C 0.53952 0.54427 0.02153 0.0
C667 C 0.57293 0.4697 0.08291 0.0
C668 C 0.5816 0.45628 0.11142 0.0
C669 C 0.5692 0.45998 0.13926 0.0
C670 C 0.57786 0.4472 0.16649 0.0
C671 C 0.59869 0.43061 0.16568 0.0
C672 C 0.61343 0.43033 0.13995 0.0
C673 C 0.60474 0.44309 0.11263 0.0
C674 C 0.61126 0.57178 0.07803 0.0
C675 C 0.58001 0.56641 0.15777 0.0
O676 O 0.57282 0.63296 0.09303 0.0
O677 O 0.5311 0.62323 0.10424 0.0
O678 O 0.53361 0.53897 0.09437 0.0
O679 O 0.50947 0.57031 0.10276 0.0
O680 O 0.53877 0.57154 0.03954 0.0
O681 O 0.5495 0.52243 0.03435 0.0
O682 O 0.5491 0.47794 0.0809 0.0
O683 O 0.59304 0.49119 0.07765 0.0
O684 O 0.58759 0.57314 0.08451 0.0
O685 O 0.61213 0.54268 0.07642 0.0
O686 O 0.57977 0.53893 0.1394 0.0
O687 O 0.5722 0.5895 0.14493 0.0
H688 H 0.5666 0.63885 0.03461 0.0
H689 H 0.54903 0.66098 0.98761 0.0
H690 H 0.48818 0.6908 0.03915 0.0
H691 H 0.5056 0.66838 0.08668 0.0
H692 H 0.55216 0.47156 0.13954 0.0
H693 H 0.5663 0.44718 0.18635 0.0
H694 H 0.62955 0.4174 0.13933 0.0
H695 H 0.61538 0.44166 0.09196 0.0
Tb696 Tb 0.81265 0.26979 0.34341 0.0
Tb697 Tb 0.80301 0.33569 0.34463 0.0
C698 C 0.82568 0.21974 0.3263 0.0
C699 C 0.84791 0.20489 0.33733 0.0
C700 C 0.87275 0.21114 0.32556 0.0
C701 C 0.891 0.19183 0.32965 0.0
C702 C 0.88429 0.16602 0.34504 0.0
C703 C 0.86111 0.16182 0.35998 0.0
C704 C 0.84291 0.18129 0.35613 0.0
C705 C 0.80262 0.29524 0.40033 0.0
C706 C 0.86329 0.3309 0.37302 0.0
C707 C 0.78226 0.38225 0.34887 0.0
C708 C 0.76296 0.39742 0.33059 0.0
C709 C 0.73608 0.39356 0.33746 0.0
C710 C 0.72029 0.41482 0.33025 0.0
C711 C 0.7312 0.44025 0.31616 0.0
C712 C 0.75647 0.44188 0.30537 0.0
C713 C 0.77247 0.42055 0.31276 0.0
C714 C 0.81148 0.30835 0.28722 0.0
C715 C 0.75344 0.27581 0.3296 0.0
O716 O 0.83276 0.24462 0.31314 0.0
O717 O 0.80838 0.22262 0.34639 0.0
O718 O 0.81507 0.3092 0.38098 0.0
O719 O 0.79774 0.26502 0.38924 0.0
O720 O 0.85459 0.29973 0.36281 0.0
O721 O 0.84607 0.34995 0.37257 0.0
O722 O 0.77089 0.35515 0.35545 0.0
O723 O 0.80724 0.38384 0.34262 0.0
O724 O 0.79938 0.29571 0.30746 0.0
O725 O 0.81661 0.33834 0.29759 0.0
O726 O 0.76302 0.30551 0.34466 0.0
O727 O 0.76964 0.25863 0.31912 0.0
H728 H 0.87717 0.22937 0.31115 0.0
H729 H 0.90902 0.19529 0.31818 0.0
H730 H 0.85561 0.14179 0.37172 0.0
H731 H 0.8239 0.17627 0.36558 0.0
H732 H 0.72831 0.37608 0.35147 0.0
H733 H 0.70099 0.41332 0.3391 0.0
H734 H 0.76498 0.46133 0.29417 0.0
H735 H 0.79312 0.42387 0.30713 0.0
Tb736 Tb 0.02766 0.55597 0.56456 0.0
Tb737 Tb 0.07966 0.5539 0.61543 0.0
C738 C 0.97909 0.53723 0.52931 0.0
C739 C 0.95245 0.52071 0.53586 0.0
C740 C 0.94305 0.488 0.52358 0.0
C741 C 0.91894 0.47089 0.53071 0.0
C742 C 0.90331 0.48617 0.5497 0.0
C743 C 0.91273 0.51889 0.56243 0.0
C744 C 0.93726 0.53609 0.55565 0.0
C745 C 0.05809 0.61015 0.59925 0.0
C746 C 0.02269 0.55007 0.64332 0.0
C747 C 0.12743 0.57603 0.65171 0.0
C748 C 0.15456 0.5925 0.64621 0.0
C749 C 0.16303 0.62546 0.65663 0.0
C750 C 0.1883 0.64218 0.65193 0.0
C751 C 0.20594 0.62634 0.63714 0.0
C752 C 0.19768 0.59337 0.62647 0.0
C753 C 0.17193 0.57649 0.6307 0.0
C754 C 0.05136 0.49963 0.57773 0.0
C755 C 0.08463 0.55888 0.53632 0.0
O756 O 0.99767 0.52058 0.5306 0.0
O757 O 0.98995 0.5669 0.54405 0.0
O758 O 0.05314 0.58409 0.60809 0.0
O759 O 0.04325 0.60677 0.56909 0.0
O760 O 1.0102 0.54745 0.61098 0.0
O761 O 0.05043 0.55298 0.65115 0.0
O762 O 0.10811 0.59185 0.64809 0.0
O763 O 0.11774 0.54577 0.63871 0.0
O764 O 0.05495 0.52661 0.57114 0.0
O765 O 0.06552 0.50225 0.60822 0.0
O766 O 0.0972 0.56019 0.56843 0.0
O767 O 0.05703 0.5574 0.52897 0.0
H768 H 0.95438 0.47551 0.50829 0.0
H769 H 0.91178 0.44588 0.51992 0.0
H770 H 0.90081 0.53118 0.57697 0.0
H771 H 0.94418 0.56123 0.56571 0.0
H772 H 0.1502 0.63842 0.66887 0.0
H773 H 0.19462 0.66749 0.66123 0.0
H774 H 0.21131 0.58075 0.61544 0.0
H775 H 0.16586 0.55108 0.62232 0.0
Tb776 Tb 0.78288 0.81626 0.33716 0.0
Tb777 Tb 0.83562 0.79257 0.34432 0.0
C778 C 0.73834 0.83212 0.34473 0.0
C779 C 0.71885 0.83092 0.3679 0.0
C780 C 0.71477 0.8071 0.38672 0.0
C781 C 0.69399 0.80499 0.40571 0.0
C782 C 0.67703 0.82667 0.40623 0.0
C783 C 0.68244 0.85159 0.38906 0.0
C784 C 0.7031 0.85363 0.37007 0.0
C785 C 0.82743 0.8557 0.32828 0.0
C786 C 0.81906 0.81859 0.40911 0.0
C787 C 0.8816 0.78068 0.33646 0.0
C788 C 0.89781 0.77724 0.30989 0.0
C789 C 0.89982 0.79797 0.28733 0.0
C790 C 0.92003 0.79871 0.26763 0.0
C791 C 0.93835 0.7786 0.26994 0.0
C792 C 0.93455 0.75597 0.29015 0.0
C793 C 0.91445 0.75533 0.30996 0.0
C794 C 0.79179 0.75276 0.35388 0.0
C795 C 0.79753 0.78645 0.2723 0.0
O796 O 0.73891 0.80543 0.3264 0.0
O797 O 0.76335 0.85072 0.35626 0.0
O798 O 0.82697 0.83805 0.34943 0.0
O799 O 0.8021 0.85264 0.3122 0.0
O800 O 0.79384 0.81345 0.38986 0.0
O801 O 0.84098 0.81549 0.39618 0.0
O802 O 0.87843 0.80885 0.3468 0.0
O803 O 0.85884 0.7588 0.33396 0.0
O804 O 0.79151 0.77063 0.33281 0.0
O805 O 0.81746 0.7553 0.36867 0.0
O806 O 0.82279 0.791 0.29098 0.0
O807 O 0.77635 0.79224 0.28534 0.0
H808 H 0.7271 0.78974 0.38613 0.0
H809 H 0.69036 0.78561 0.4188 0.0
H810 H 0.6701 0.86899 0.38954 0.0
H811 H 0.70621 0.87251 0.35623 0.0
H812 H 0.88705 0.81494 0.28646 0.0
H813 H 0.92269 0.81645 0.25233 0.0
H814 H 0.9486 0.74048 0.29267 0.0
H815 H 0.91321 0.73908 0.32704 0.0
Tb816 Tb 0.81403 0.28891 0.80712 0.0
Tb817 Tb 0.79935 0.31885 0.86544 0.0
C818 C 0.81769 0.27215 0.74847 0.0
C819 C 0.81834 0.29078 0.72264 0.0
C820 C 0.79746 0.30685 0.71504 0.0
C821 C 0.79944 0.32616 0.69187 0.0
C822 C 0.82242 0.32986 0.67608 0.0
C823 C 0.84473 0.3167 0.68684 0.0
C824 C 0.84228 0.29646 0.70922 0.0
C825 C 0.85167 0.28776 0.86139 0.0
C826 C 0.83214 0.36582 0.82799 0.0
C827 C 0.79534 0.33711 0.92396 0.0
C828 C 0.7895 0.31731 0.94797 0.0
C829 C 0.80371 0.29355 0.95154 0.0
C830 C 0.79854 0.27483 0.97456 0.0
C831 C 0.7795 0.28012 0.99482 0.0
C832 C 0.76212 0.3003 0.98747 0.0
C833 C 0.76747 0.31935 0.96436 0.0
C834 C 0.75752 0.3182 0.8146 0.0
C835 C 0.78068 0.24266 0.84541 0.0
O836 O 0.79398 0.26539 0.75833 0.0
O837 O 0.83949 0.28224 0.77326 0.0
O838 O 0.83962 0.31021 0.85674 0.0
O839 O 0.84238 0.26607 0.83459 0.0
O840 O 0.82938 0.34011 0.8047 0.0
O841 O 0.82305 0.36298 0.85575 0.0
O842 O 0.81951 0.33902 0.91528 0.0
O843 O 0.77464 0.33185 0.8984 0.0
O844 O 0.77902 0.30747 0.81289 0.0
O845 O 0.7607 0.33195 0.84514 0.0
O846 O 0.7844 0.2683 0.86875 0.0
O847 O 0.78902 0.24544 0.81725 0.0
H848 H 0.77932 0.30408 0.72633 0.0
H849 H 0.78177 0.33602 0.68456 0.0
H850 H 0.86321 0.32029 0.67629 0.0
H851 H 0.85912 0.28525 0.71617 0.0
H852 H 0.81971 0.29029 0.93767 0.0
H853 H 0.81218 0.25922 0.97939 0.0
H854 H 0.74698 0.30415 1.00247 0.0
H855 H 0.75523 0.33645 0.96028 0.0
Tb856 Tb 0.78017 0.7815 0.82225 0.0
Tb857 Tb 0.83306 0.82375 0.85206 0.0
C858 C 0.73008 0.75507 0.81664 0.0
C859 C 0.70755 0.77021 0.82327 0.0
C860 C 0.70703 0.78346 0.85634 0.0
C861 C 0.68677 0.79941 0.86253 0.0
C862 C 0.66664 0.80219 0.83587 0.0
C863 C 0.66719 0.78954 0.80289 0.0
C864 C 0.68768 0.77377 0.79659 0.0
C865 C 0.80516 0.80753 0.77863 0.0
C866 C 0.7822 0.85824 0.84724 0.0
C867 C 0.88313 0.84979 0.85704 0.0
C868 C 0.9055 0.8342 0.85064 0.0
C869 C 0.90695 0.82223 0.81752 0.0
C870 C 0.92682 0.80555 0.81145 0.0
C871 C 0.94552 0.80075 0.8383 0.0
C872 C 0.94407 0.81219 0.87126 0.0
C873 C 0.92406 0.82871 0.87743 0.0
C874 C 0.80837 0.79814 0.89633 0.0
C875 C 0.83102 0.74726 0.82587 0.0
O876 O 0.74944 0.75673 0.84295 0.0
O877 O 0.74057 0.76105 0.79077 0.0
O878 O 0.80392 0.82053 0.80743 0.0
O879 O 0.79115 0.77815 0.77272 0.0
O880 O 0.76713 0.82793 0.83833 0.0
O881 O 0.81009 0.8628 0.85303 0.0
O882 O 0.86369 0.84783 0.83068 0.0
O883 O 0.87273 0.84458 0.88319 0.0
O884 O 0.80918 0.78478 0.86737 0.0
O885 O 0.82273 0.82734 0.90177 0.0
O886 O 0.84603 0.77753 0.83522 0.0
O887 O 0.80315 0.74254 0.82039 0.0
H888 H 0.72219 0.78152 0.87758 0.0
H889 H 0.68618 0.80856 0.8882 0.0
H890 H 0.65148 0.79137 0.78217 0.0
H891 H 0.68793 0.76426 0.77093 0.0
H892 H 0.89281 0.82572 0.79621 0.0
H893 H 0.92822 0.79733 0.78586 0.0
H894 H 0.95885 0.80894 0.89213 0.0
H895 H 0.92316 0.83727 0.9031 0.0
Tb896 Tb 0.53065 0.53764 0.57175 0.0
Tb897 Tb 0.58772 0.57053 0.61173 0.0
C898 C 0.47905 0.53044 0.55455 0.0
C899 C 0.46599 0.55694 0.56048 0.0
C900 C 0.4798 0.58219 0.58719 0.0
C901 C 0.46998 0.60906 0.59218 0.0
C902 C 0.44406 0.60954 0.57348 0.0
C903 C 0.42995 0.58466 0.54654 0.0
C904 C 0.4414 0.55867 0.5394 0.0
C905 C 0.56918 0.54238 0.53588 0.0
C906 C 0.55398 0.61523 0.58215 0.0
C907 C 0.63985 0.58073 0.62652 0.0
C908 C 0.65673 0.55736 0.62215 0.0
C909 C 0.66688 0.55272 0.59258 0.0
C910 C 0.67541 0.52536 0.58293 0.0
C911 C 0.67451 0.50269 0.60305 0.0
C912 C 0.66716 0.50847 0.63409 0.0
C913 C 0.65818 0.5357 0.6436 0.0
C914 C 0.54902 0.56578 0.64843 0.0
C915 C 0.5654 0.49319 0.59977 0.0
O916 O 0.4909 0.52287 0.5818 0.0
O917 O 0.49542 0.53256 0.53319 0.0
O918 O 0.56752 0.56213 0.56048 0.0
O919 O 0.54765 0.51822 0.53015 0.0
O920 O 0.53356 0.58891 0.57293 0.0
O921 O 0.57886 0.61443 0.59884 0.0
O922 O 0.62605 0.58502 0.59844 0.0
O923 O 0.62435 0.5784 0.64891 0.0
O924 O 0.5504 0.54607 0.62351 0.0
O925 O 0.57132 0.58904 0.65455 0.0
O926 O 0.58649 0.51912 0.60784 0.0
O927 O 0.54001 0.49442 0.58504 0.0
H928 H 0.49804 0.58106 0.6049 0.0
H929 H 0.48075 0.62775 0.61362 0.0
H930 H 0.40948 0.58449 0.53252 0.0
H931 H 0.43053 0.53948 0.51862 0.0
H932 H 0.66632 0.56912 0.57569 0.0
H933 H 0.68166 0.52129 0.55914 0.0
H934 H 0.66678 0.49111 0.64995 0.0
H935 H 0.65063 0.53863 0.6666 0.0
Tb936 Tb 0.08612 0.55522 0.07881 0.0
Tb937 Tb 0.03278 0.55388 0.10646 0.0
C938 C 0.1336 0.54929 0.07068 0.0
C939 C 0.15157 0.52677 0.07279 0.0
C940 C 0.15782 0.51394 0.1014 0.0
C941 C 0.17723 0.49517 0.10325 0.0
C942 C 0.19066 0.48901 0.0766 0.0
C943 C 0.1827 0.49995 0.04715 0.0
C944 C 0.16354 0.5188 0.0454 0.0
C945 C 0.04549 0.56217 0.0285 0.0
C946 C 0.04338 0.48967 0.07653 0.0
C947 C 0.98674 0.56209 0.11807 0.0
C948 C 0.96868 0.58456 0.1152 0.0
C949 C 0.96593 0.60038 0.08834 0.0
C950 C 0.94575 0.61807 0.08432 0.0
C951 C 0.92882 0.62109 0.10782 0.0
C952 C 0.93344 0.60768 0.13624 0.0
C953 C 0.95316 0.58952 0.13984 0.0
C954 C 0.07413 0.54533 0.1556 0.0
C955 C 0.07437 0.61933 0.10742 0.0
O956 O 0.12946 0.56463 0.09845 0.0
O957 O 0.11093 0.53994 0.04707 0.0
O958 O 0.04352 0.55895 0.05854 0.0
O959 O 0.07134 0.5627 0.02811 0.0
O960 O 0.06904 0.50502 0.07626 0.0
O961 O 0.02399 0.50402 0.08419 0.0
O962 O 0.98896 0.54427 0.0906 0.0
O963 O 1.01061 0.57286 0.13958 0.0
O964 O 0.07501 0.54968 0.1258 0.0
O965 O 0.04844 0.54493 0.15688 0.0
O966 O 0.04872 0.6035 0.10661 0.0
O967 O 0.0941 0.60535 0.10032 0.0
H968 H 0.14844 0.51919 0.12264 0.0
H969 H 0.18277 0.48682 0.12616 0.0
H970 H 0.19201 0.49483 0.02581 0.0
H971 H 0.15864 0.52797 0.02284 0.0
H972 H 0.97872 0.59831 0.07004 0.0
H973 H 0.94247 0.62814 0.06214 0.0
H974 H 0.92055 0.60958 0.1546 0.0
H975 H 0.95546 0.57823 0.16126 0.0
C976 C 0.0393 0.16938 0.02461 0.0
C977 C 0.03976 0.19846 0.04484 0.0
C978 C 0.04483 0.1434 0.03842 0.0
C979 C 0.0515 0.14498 0.07329 0.0
H980 H 0.03447 0.16648 0.9976 0.0
H981 H 0.04381 0.12166 0.0215 0.0
S982 S 0.05691 0.21538 0.13808 0.0
N983 N 0.04848 0.22702 0.1024 0.0
N984 N 0.0591 0.17845 0.12792 0.0
C985 C 0.05291 0.17399 0.09399 0.0
C986 C 0.04702 0.20053 0.07994 0.0
C987 C 0.20764 0.82946 0.24075 0.0
C988 C 0.18266 0.83058 0.25229 0.0
C989 C 0.23174 0.82454 0.2614 0.0
C990 C 0.2318 0.8201 0.29446 0.0
H991 H 0.20886 0.83318 0.21574 0.0
H992 H 0.25065 0.82542 0.25185 0.0
S993 S 0.17099 0.81666 0.33569 0.0
N994 N 0.15962 0.82441 0.29877 0.0
N995 N 0.20347 0.81407 0.33629 0.0
C996 C 0.20648 0.81954 0.3055 0.0
C997 C 0.1824 0.82504 0.28491 0.0
C998 C 0.51144 0.90466 0.5311 0.0
C999 C 0.53276 0.88921 0.53986 0.0
C1000 C 0.51415 0.93642 0.54557 0.0
C1001 C 0.53862 0.95392 0.56865 0.0
H1002 H 0.49328 0.89264 0.51147 0.0
H1003 H 0.49799 0.94791 0.53671 0.0
S1004 S 0.59965 0.92379 0.60152 0.0
N1005 N 0.57823 0.89318 0.57451 0.0
N1006 N 0.58356 0.9528 0.60157 0.0
C1007 C 0.55935 0.93817 0.57896 0.0
C1008 C 0.55641 0.90581 0.56454 0.0
C1009 C 0.50968 0.27345 0.7613 0.0
C1010 C 0.51752 0.29479 0.74057 0.0
C1011 C 0.48333 0.2683 0.76949 0.0
C1012 C 0.46338 0.28423 0.75742 0.0
H1013 H 0.52429 0.26097 0.77214 0.0
H1014 H 0.47913 0.25276 0.7868 0.0
S1015 S 0.47099 0.33844 0.69776 0.0
N1016 N 0.50151 0.32911 0.70481 0.0
N1017 N 0.45178 0.3193 0.72035 0.0
C1018 C 0.47003 0.30407 0.73492 0.0
C1019 C 0.49704 0.30928 0.72636 0.0
C1020 C 0.10879 0.85753 0.69061 0.0
C1021 C 0.09586 0.85685 0.71797 0.0
C1022 C 0.11197 0.88379 0.6759 0.0
C1023 C 0.1019 0.9097 0.68799 0.0
H1024 H 0.11538 0.83716 0.67964 0.0
H1025 H 0.11997 0.88254 0.65313 0.0
S1026 S 0.06937 0.92034 0.76134 0.0
N1027 N 0.07546 0.88484 0.75881 0.0
N1028 N 0.08123 0.93466 0.73058 0.0
C1029 C 0.09103 0.9103 0.71701 0.0
C1030 C 0.08799 0.88359 0.73217 0.0
C1031 C 0.43255 0.86974 0.87038 0.0
C1032 C 0.44823 0.84785 0.87739 0.0
C1033 C 0.40382 0.86235 0.86895 0.0
C1034 C 0.39047 0.83289 0.87434 0.0
H1035 H 0.44249 0.89246 0.86578 0.0
H1036 H 0.39186 0.87893 0.86179 0.0
S1037 S 0.42241 0.76825 0.89536 0.0
N1038 N 0.44848 0.7959 0.89071 0.0
N1039 N 0.39464 0.78283 0.88931 0.0
C1040 C 0.40612 0.81155 0.88306 0.0
C1041 C 0.43504 0.81874 0.88406 0.0
C1042 C 0.59278 0.17984 0.17099 0.0
C1043 C 0.57247 0.1792 0.19058 0.0
C1044 C 0.58684 0.15936 0.13986 0.0
C1045 C 0.56025 0.13885 0.12757 0.0
H1046 H 0.61332 0.19587 0.17997 0.0
H1047 H 0.60324 0.15878 0.12595 0.0
S1048 S 0.49994 0.13062 0.16923 0.0
N1049 N 0.52521 0.15775 0.1959 0.0
N1050 N 0.5133 0.12016 0.13664 0.0
C1051 C 0.53961 0.13918 0.14662 0.0
C1052 C 0.54594 0.15922 0.17846 0.0
C1053 C 0.10075 0.29806 0.36699 0.0
C1054 C 0.09931 0.3296 0.37063 0.0
C1055 C 0.1224 0.28874 0.35448 0.0
C1056 C 0.14286 0.31083 0.34546 0.0
H1057 H 0.08568 0.28089 0.37495 0.0
H1058 H 0.12379 0.26444 0.35298 0.0
S1059 S 0.14691 0.39596 0.34995 0.0
N1060 N 0.11876 0.38271 0.36419 0.0
N1061 N 0.15976 0.36505 0.33997 0.0
C1062 C 0.14092 0.3422 0.34802 0.0
C1063 C 0.11893 0.35169 0.36093 0.0
C1064 C 0.99967 1.01434 0.19113 0.0
C1065 C 1.00318 0.0333 0.22285 0.0
C1066 C 1.01443 0.0249 0.16736 0.0
C1067 C 0.03278 0.05522 0.17398 0.0
H1068 H 0.98594 0.99082 0.18493 0.0
H1069 H 1.01172 1.00889 0.14377 0.0
S1070 S 0.04746 0.11494 0.25259 0.0
N1071 N 0.02543 0.08422 0.25933 0.0
N1072 N 0.05248 0.10451 0.21444 0.0
C1073 C 0.03583 0.07471 0.20538 0.0
C1074 C 0.02122 0.06366 0.22984 0.0
C1075 C 0.31848 0.75429 0.57489 0.0
C1076 C 0.33325 0.78317 0.59627 0.0
C1077 C 0.29866 0.75351 0.54655 0.0
C1078 C 0.29341 0.78167 0.53882 0.0
H1079 H 0.32302 0.73221 0.57941 0.0
H1080 H 0.28968 0.73135 0.52884 0.0
S1081 S 0.3228 0.86246 0.59014 0.0
N1082 N 0.33822 0.83963 0.61105 0.0
N1083 N 0.30127 0.8386 0.55685 0.0
C1084 C 0.30562 0.81023 0.56205 0.0
C1085 C 0.32573 0.81093 0.59104 0.0
C1086 C 0.60428 0.01916 0.73692 0.0
C1087 C 0.63363 0.03196 0.74514 0.0
C1088 C 0.58659 0.02281 0.70737 0.0
C1089 C 0.59659 0.03938 0.68328 0.0
H1090 H 0.5946 1.00626 0.75379 0.0
H1091 H 0.56434 1.01257 0.70357 0.0
S1092 S 0.67128 0.08091 0.69343 0.0
N1093 N 0.67146 0.06423 0.72655 0.0
N1094 N 0.63855 0.07081 0.67193 0.0
C1095 C 0.62587 0.05271 0.6912 0.0
C1096 C 0.64406 0.04909 0.72156 0.0
C1097 C 0.31853 0.33997 1.00007 0.0
C1098 C 0.33203 0.37233 0.00741 0.0
C1099 C 0.31507 0.32184 0.96789 0.0
C1100 C 0.32586 0.33553 0.94297 0.0
H1101 H 0.30948 0.32908 0.01866 0.0
H1102 H 0.30347 0.29734 0.96226 0.0
S1103 S 0.3642 0.41838 0.9502 0.0
N1104 N 0.35712 0.41669 0.98746 0.0
N1105 N 0.35117 0.38236 0.92764 0.0
C1106 C 0.34043 0.36727 0.9505 0.0
C1107 C 0.34342 0.38578 0.98267 0.0
C1108 C 0.9916 0.0188 0.43439 0.0
C1109 C 1.01097 0.02174 0.4134 0.0
C1110 C 1.00062 0.02731 0.46944 0.0
C1111 C 0.02916 0.03947 0.4843 0.0
H1112 H 0.96951 1.00894 0.42371 0.0
H1113 H 0.98534 0.02367 0.48496 0.0
S1114 S 0.08768 0.05439 0.44055 0.0
N1115 N 0.05961 0.03958 0.41012 0.0
N1116 N 0.07642 0.05517 0.4758 0.0
C1117 C 0.0485 0.04326 0.46363 0.0
C1118 C 0.03942 0.03457 0.42817 0.0
C1119 C 0.34572 0.76233 0.74001 0.0
C1120 C 0.37101 0.78549 0.74688 0.0
C1121 C 0.32072 0.77039 0.74297 0.0
C1122 C 0.3209 0.80152 0.75584 0.0
H1123 H 0.34539 0.73763 0.73447 0.0
H1124 H 0.30222 0.75155 0.74052 0.0
S1125 S 0.38144 0.87101 0.77724 0.0
N1126 N 0.39442 0.84102 0.76432 0.0
N1127 N 0.34754 0.85616 0.77291 0.0
C1128 C 0.34543 0.82538 0.75975 0.0
C1129 C 0.37077 0.81722 0.75554 0.0
C1130 C 0.64548 0.0572 0.98262 0.0
C1131 C 0.63085 0.04874 0.94845 0.0
C1132 C 0.6315 0.06148 0.01037 0.0
C1133 C 0.60195 0.05837 0.00613 0.0
H1134 H 0.66807 0.06158 0.98813 0.0
H1135 H 0.64423 0.06789 0.03554 0.0
S1136 S 0.55356 0.03615 0.9221 0.0
N1137 N 0.58446 0.03654 0.91317 0.0
N1138 N 0.55931 0.0459 0.96327 0.0
C1139 C 0.58743 0.04985 0.97206 0.0
C1140 C 0.60143 0.04487 0.9442 0.0
C1141 C 0.31238 0.33044 0.19396 0.0
C1142 C 0.32706 0.36254 0.20219 0.0
C1143 C 0.30604 0.31329 0.21882 0.0
C1144 C 0.31369 0.32753 0.25306 0.0
H1145 H 0.30556 0.31835 0.16801 0.0
H1146 H 0.29475 0.28871 0.21103 0.0
S1147 S 0.35076 0.41155 0.28809 0.0
N1148 N 0.34863 0.40794 0.24737 0.0
N1149 N 0.33505 0.37654 0.29352 0.0
C1150 C 0.32755 0.35988 0.26155 0.0
C1151 C 0.33464 0.37713 0.23633 0.0
C1152 C 0.20025 0.92486 0.09352 0.0
C1153 C 0.19027 0.91292 0.05907 0.0
C1154 C 0.19376 0.95213 0.10884 0.0
C1155 C 0.17743 0.96813 0.08992 0.0
H1156 H 0.21427 0.91406 0.10827 0.0
H1157 H 0.20239 0.96144 0.13528 0.0
S1158 S 0.14534 0.94469 0.99917 0.0
N1159 N 0.16277 0.91782 0.00675 0.0
N1160 N 0.15025 0.96908 0.03543 0.0
C1161 C 0.16677 0.95574 0.05561 0.0
C1162 C 0.17333 0.92806 0.04017 0.0
C1163 C 0.66709 0.64762 0.07844 0.0
C1164 C 0.68363 0.63605 0.05713 0.0
C1165 C 0.64275 0.62771 0.08432 0.0
C1166 C 0.63386 0.59542 0.06892 0.0
H1167 H 0.67352 0.672 0.0916 0.0
H1168 H 0.63162 0.63734 0.102 0.0
S1169 S 0.66826 0.55393 0.00909 0.0
N1170 N 0.68805 0.59033 0.01964 0.0
N1171 N 0.64294 0.55366 0.02987 0.0
C1172 C 0.64977 0.58411 0.04681 0.0
C1173 C 0.67438 0.6041 0.04114 0.0
C1174 C 0.67795 0.488 0.32192 0.0
C1175 C 0.69388 0.51602 0.34395 0.0
C1176 C 0.69057 0.46429 0.31055 0.0
C1177 C 0.7195 0.46794 0.32073 0.0
H1178 H 0.6555 0.48406 0.31378 0.0
H1179 H 0.67751 0.44243 0.29483 0.0
S1180 S 0.7707 0.53703 0.37722 0.0
N1181 N 0.74031 0.54652 0.37443 0.0
N1182 N 0.76391 0.50155 0.35348 0.0
C1183 C 0.73584 0.49621 0.34175 0.0
C1184 C 0.72303 0.52036 0.35334 0.0
C1185 C 0.84358 0.41739 0.54888 0.0
C1186 C 0.8209 0.427 0.53202 0.0
C1187 C 0.87043 0.43804 0.55788 0.0
C1188 C 0.87497 0.46858 0.55036 0.0
H1189 H 0.84097 0.39345 0.55307 0.0
H1190 H 0.88802 0.42948 0.56873 0.0
S1191 S 0.82111 0.50554 0.51098 0.0
N1192 N 0.8038 0.47001 0.51277 0.0
N1193 N 0.85402 0.50786 0.52792 0.0
C1194 C 0.85189 0.479 0.53627 0.0
C1195 C 0.82487 0.45836 0.52754 0.0
C1196 C 0.38882 0.19578 0.33645 0.0
C1197 C 0.37541 0.16371 0.32085 0.0
C1198 C 0.37512 0.22171 0.33715 0.0
C1199 C 0.34608 0.21814 0.32347 0.0
H1200 H 0.41047 0.20101 0.34917 0.0
H1201 H 0.38767 0.24508 0.34938 0.0
S1202 S 0.2986 0.13884 0.28351 0.0
N1203 N 0.32937 0.13055 0.29318 0.0
N1204 N 0.30398 0.17741 0.29592 0.0
C1205 C 0.33193 0.18589 0.30905 0.0
C1206 C 0.34616 0.15959 0.30755 0.0
C1207 C 0.36912 0.15591 0.57313 0.0
C1208 C 0.35122 0.1529 0.59568 0.0
C1209 C 0.39537 0.14842 0.57976 0.0
C1210 C 0.40462 0.13684 0.60883 0.0
H1211 H 0.36232 0.16264 0.54956 0.0
H1212 H 0.40801 0.15088 0.56119 0.0
S1213 S 0.36738 0.13271 0.67944 0.0
N1214 N 0.34673 0.14463 0.6512 0.0
N1215 N 0.39416 0.12792 0.66272 0.0
C1216 C 0.38759 0.1367 0.63287 0.0
C1217 C 0.36141 0.14525 0.62644 0.0
C1218 C 0.71734 0.71391 0.35822 0.0
C1219 C 0.72043 0.68711 0.37156 0.0
C1220 C 0.74029 0.73435 0.35132 0.0
C1221 C 0.76736 0.72956 0.35859 0.0
H1222 H 0.69693 0.71886 0.35233 0.0
H1223 H 0.7368 0.75419 0.34058 0.0
S1224 S 0.78655 0.66131 0.39033 0.0
N1225 N 0.75264 0.65543 0.38894 0.0
N1226 N 0.79572 0.69472 0.3774 0.0
C1227 C 0.77072 0.70256 0.37126 0.0
C1228 C 0.7473 0.68121 0.37747 0.0
C1229 C 0.85194 0.44619 0.79856 0.0
C1230 C 0.87841 0.46176 0.8196 0.0
C1231 C 0.83715 0.41532 0.80093 0.0
C1232 C 0.84784 0.3985 0.82465 0.0
H1233 H 0.84299 0.45739 0.77932 0.0
H1234 H 0.81715 0.40452 0.78395 0.0
S1235 S 0.91562 0.42838 0.88617 0.0
N1236 N 0.9141 0.45705 0.86517 0.0
N1237 N 0.88638 0.40078 0.87012 0.0
C1238 C 0.87377 0.41418 0.84626 0.0
C1239 C 0.88894 0.44508 0.84353 0.0
C1240 C 0.07058 0.93322 0.15605 0.0
C1241 C 0.08199 0.91037 0.13905 0.0
C1242 C 0.06469 0.95907 0.14222 0.0
C1243 C 0.07007 0.96364 0.11078 0.0
H1244 H 0.06629 0.93132 0.18052 0.0
H1245 H 0.05636 0.97606 0.15666 0.0
S1246 S 0.09776 0.91023 0.05447 0.0
N1247 N 0.09676 0.89372 0.08757 0.0
N1248 N 0.08621 0.9424 0.0623 0.0
C1249 C 0.08079 0.94083 0.09309 0.0
C1250 C 0.08654 0.91425 0.10697 0.0
C1251 C 0.91469 0.2864 0.93104 0.0
C1252 C 0.9373 0.28764 0.91448 0.0
C1253 C 0.88758 0.28816 0.91445 0.0
C1254 C 0.88164 0.29164 0.88064 0.0
H1255 H 0.91799 0.28452 0.95712 0.0
H1256 H 0.87092 0.28622 0.92812 0.0
S1257 S 0.93331 0.29564 0.82552 0.0
N1258 N 0.95103 0.29167 0.86145 0.0
N1259 N 0.90155 0.296 0.83144 0.0
C1260 C 0.90416 0.29289 0.86395 0.0
C1261 C 0.93139 0.29069 0.88051 0.0
C1262 C 0.59906 0.1942 0.66919 0.0
C1263 C 0.59171 0.21705 0.65121 0.0
C1264 C 0.59507 0.16271 0.65372 0.0
C1265 C 0.58354 0.15241 0.61951 0.0
H1266 H 0.6076 0.20034 0.69591 0.0
H1267 H 0.60019 0.14603 0.66896 0.0
S1268 S 0.56156 0.20139 0.55987 0.0
N1269 N 0.57301 0.22649 0.59623 0.0
N1270 N 0.56529 0.16668 0.56731 0.0
C1271 C 0.57648 0.17453 0.6007 0.0
C1272 C 0.58068 0.20699 0.61646 0.0
C1273 C 0.63099 0.81022 0.46926 0.0
C1274 C 0.60373 0.80568 0.45007 0.0
C1275 C 0.65474 0.81759 0.45529 0.0
C1276 C 0.65216 0.82152 0.42186 0.0
H1277 H 0.63397 0.80718 0.49501 0.0
H1278 H 0.67526 0.82004 0.47065 0.0
S1279 S 0.58592 0.81584 0.3621 0.0
N1280 N 0.57593 0.80805 0.39652 0.0
N1281 N 0.62036 0.82236 0.37067 0.0
C1282 C 0.62517 0.81859 0.40298 0.0
C1283 C 0.60103 0.81055 0.41695 0.0
C1284 C 0.03535 0.26239 0.49715 0.0
C1285 C 0.02016 0.25928 0.46442 0.0
C1286 C 0.03354 0.23667 0.5125 0.0
C1287 C 1.01653 0.20716 0.49563 0.0
H1288 H 0.04958 0.28449 0.51072 0.0
H1289 H 0.0464 0.23951 0.53728 0.0
S1290 S 0.97014 0.18734 0.41178 0.0
N1291 N 0.98543 0.2252 0.41694 0.0
N1292 N 0.98261 0.17606 0.4464 0.0
C1293 C 1.00008 0.20378 0.46385 0.0
C1294 C 1.00176 0.23018 0.44805 0.0
C1295 C 0.68862 0.27822 0.27571 0.0
C1296 C 0.66923 0.26938 0.29531 0.0
C1297 C 0.71606 0.27685 0.28559 0.0
C1298 C 0.72444 0.26665 0.31516 0.0
H1299 H 0.6828 0.28726 0.25328 0.0
H1300 H 0.73118 0.28577 0.27133 0.0
S1301 S 0.68132 0.23834 0.37322 0.0
N1302 N 0.65953 0.248 0.34403 0.0
N1303 N 0.71213 0.24586 0.36286 0.0
C1304 C 0.70528 0.25654 0.33425 0.0
C1305 C 0.67723 0.25793 0.32427 0.0
C1306 C 0.56389 0.92846 0.0235 0.0
C1307 C 0.55153 0.93081 0.99105 0.0
C1308 C 0.56386 0.95088 0.05143 0.0
C1309 C 0.55147 0.97615 0.04751 0.0
H1310 H 0.5739 0.90943 0.02723 0.0
H1311 H 0.57441 0.94901 0.07595 0.0
S1312 S 0.51173 0.98827 0.9673 0.0
N1313 N 0.52285 0.95647 0.9567 0.0
N1314 N 0.52478 1.00018 0.00778 0.0
C1315 C 0.53822 0.97767 0.01482 0.0
C1316 C 0.53773 0.95456 0.98687 0.0
C1317 C 0.01787 0.80054 0.827 0.0
C1318 C 1.01601 0.76832 0.81632 0.0
C1319 C 0.99488 0.81059 0.83501 0.0
C1320 C 0.96943 0.78871 0.83193 0.0
H1321 H 0.03705 0.81806 0.82854 0.0
H1322 H 0.99675 0.83566 0.84278 0.0
S1323 S 0.95398 0.70222 0.80252 0.0
N1324 N 0.98722 0.71487 0.80163 0.0
N1325 N 0.94328 0.7338 0.8164 0.0
C1326 C 0.96727 0.75648 0.82097 0.0
C1327 C 0.99088 0.74623 0.81326 0.0
C1328 C 0.07593 0.07027 0.95455 0.0
C1329 C 0.10501 0.07983 0.95692 0.0
C1330 C 0.06501 0.05755 0.98009 0.0
C1331 C 0.08276 0.05443 0.00919 0.0
H1332 H 0.06153 0.07214 0.93257 0.0
H1333 H 0.0425 0.05065 0.9773 0.0
S1334 S 0.16026 0.07732 0.02793 0.0
N1335 N 0.15118 0.08581 0.99075 0.0
N1336 N 0.13073 0.0627 0.03892 0.0
C1337 C 0.11176 0.06437 0.01195 0.0
C1338 C 0.12286 0.07675 0.98574 0.0
C1339 C 0.78098 0.35349 0.60871 0.0
C1340 C 0.77859 0.32743 0.58317 0.0
C1341 C 0.80157 0.35996 0.63787 0.0
C1342 C 0.81849 0.33881 0.64312 0.0
H1343 H 0.76629 0.36832 0.60668 0.0
H1344 H 0.80108 0.37827 0.65833 0.0
S1345 S 0.82831 0.27688 0.57762 0.0
N1346 N 0.80109 0.28841 0.55965 0.0
N1347 N 0.83852 0.29849 0.61587 0.0
C1348 C 0.81995 0.31693 0.61517 0.0
C1349 C 0.79968 0.3112 0.58495 0.0
C1350 C 0.52088 0.06852 0.43463 0.0
C1351 C 0.49212 0.06825 0.42905 0.0
C1352 C 0.53674 0.06672 0.46596 0.0
C1353 C 0.52538 0.06386 0.49484 0.0
H1354 H 0.53146 0.06939 0.41394 0.0
H1355 H 0.55855 0.06687 0.46707 0.0
S1356 S 0.44996 0.05882 0.49393 0.0
N1357 N 0.4524 0.06351 0.45566 0.0
N1358 N 0.48173 0.05903 0.51398 0.0
C1359 C 0.49636 0.06318 0.48978 0.0
C1360 C 0.48006 0.06561 0.45742 0.0
C1361 C 0.76714 0.76023 0.17849 0.0
C1362 C 0.78404 0.74031 0.16874 0.0
C1363 C 0.77167 0.77572 0.21209 0.0
C1364 C 0.79338 0.77184 0.23655 0.0
H1365 H 0.7496 0.76262 0.16047 0.0
H1366 H 0.75788 0.7903 0.21902 0.0
S1367 S 0.84357 0.72231 0.22246 0.0
N1368 N 0.82343 0.71812 0.18519 0.0
N1369 N 0.83199 0.74651 0.24801 0.0
C1370 C 0.81083 0.75256 0.22646 0.0
C1371 C 0.80616 0.737 0.19257 0.0
C1372 C 0.10128 0.05275 0.745 0.0
C1373 C 0.11226 0.08354 0.7639 0.0
C1374 C 0.09176 0.04748 0.71015 0.0
C1375 C 0.09249 0.07287 0.69326 0.0
H1376 H 0.10085 0.03265 0.75708 0.0
H1377 H 0.08373 0.02335 0.69641 0.0
S1378 S 0.11834 0.15819 0.73286 0.0
N1379 N 0.12298 0.13958 0.76422 0.0
N1380 N 0.10442 0.13028 0.69906 0.0
C1381 C 0.10285 0.1039 0.71243 0.0
C1382 C 0.11296 0.10906 0.74768 0.0
C1383 C 0.73891 0.29843 0.43291 0.0
C1384 C 0.73684 0.32925 0.43057 0.0
C1385 C 0.76245 0.28824 0.42725 0.0
C1386 C 0.78483 0.30882 0.41972 0.0
H1387 H 0.72157 0.28153 0.43746 0.0
H1388 H 0.76207 0.2635 0.42614 0.0
S1389 S 0.7948 0.3948 0.42409 0.0
N1390 N 0.76169 0.38184 0.42608 0.0
N1391 N 0.80781 0.36336 0.4213 0.0
C1392 C 0.78517 0.34087 0.42296 0.0
C1393 C 0.76047 0.3509 0.42637 0.0
C1394 C 0.50462 0.06715 0.23417 0.0
C1395 C 0.47506 0.06407 0.22743 0.0
C1396 C 0.52044 0.06282 0.20837 0.0
C1397 C 0.50813 0.05495 0.17343 0.0
H1398 H 0.51598 0.07332 0.25998 0.0
H1399 H 0.54286 0.06628 0.21612 0.0
S1400 S 0.43139 0.04242 0.1406 0.0
N1401 N 0.43449 0.05137 0.18156 0.0
N1402 N 0.46326 0.04333 0.13447 0.0
C1403 C 0.47851 0.05117 0.16639 0.0
C1404 C 0.46246 0.05565 0.19262 0.0
C1405 C 0.77961 0.73134 0.93985 0.0
C1406 C 0.78588 0.74599 0.97401 0.0
C1407 C 0.78683 0.74828 0.91503 0.0
C1408 C 0.80068 0.78068 0.92315 0.0
H1409 H 0.76889 0.70657 0.93214 0.0
H1410 H 0.78158 0.73576 0.88925 0.0
S1411 S 0.82522 0.8292 0.0092 0.0
N1412 N 0.80909 0.79435 0.01468 0.0
N1413 N 0.82241 0.82588 0.96839 0.0
C1414 C 0.8078 0.79532 0.95727 0.0
C1415 C 0.80047 0.77811 0.98251 0.0
C1416 C 0.94728 0.18386 0.1254 0.0
C1417 C 0.91935 0.17865 0.12833 0.0
C1418 C 0.95517 0.16297 0.10215 0.0
C1419 C 0.9351 0.13695 0.08137 0.0
H1420 H 0.96317 0.20287 0.14243 0.0
H1421 H 0.97727 0.16522 0.10283 0.0
S1422 S 0.8584 0.11924 0.07366 0.0
N1423 N 0.8709 0.15041 0.1045 0.0
N1424 N 0.88588 0.11086 0.06057 0.0
C1425 C 0.90672 0.13429 0.08114 0.0
C1426 C 0.89875 0.15523 0.10499 0.0
C1427 C 0.44439 0.5127 0.13273 0.0
C1428 C 0.43238 0.48185 0.11444 0.0
C1429 C 0.4706 0.52992 0.12985 0.0
C1430 C 0.48633 0.51758 0.10815 0.0
H1431 H 0.43257 0.52447 0.14795 0.0
H1432 H 0.47789 0.55413 0.1435 0.0
S1433 S 0.46474 0.43714 0.05505 0.0
N1434 N 0.43874 0.43885 0.07455 0.0
N1435 N 0.48795 0.47149 0.06875 0.0
C1436 C 0.47529 0.48606 0.0908 0.0
C1437 C 0.44836 0.46824 0.09396 0.0
C1438 C 0.42313 0.60861 0.85574 0.0
C1439 C 0.42812 0.59924 0.82378 0.0
C1440 C 0.40903 0.63244 0.86169 0.0
C1441 C 0.40018 0.6478 0.83597 0.0
H1442 H 0.4289 0.59644 0.87568 0.0
H1443 H 0.40418 0.63816 0.88609 0.0
S1444 S 0.41042 0.63291 0.74895 0.0
N1445 N 0.42475 0.60769 0.76696 0.0
N1446 N 0.39847 0.65276 0.77798 0.0
C1447 C 0.40634 0.63946 0.80444 0.0
C1448 C 0.42024 0.615 0.79835 0.0
C1449 C 0.28337 0.65838 0.66642 0.0
C1450 C 0.28742 0.68811 0.6574 0.0
C1451 C 0.25721 0.6369 0.65692 0.0
C1452 C 0.23436 0.64442 0.63785 0.0
H1453 H 0.30022 0.6522 0.68224 0.0
H1454 H 0.25442 0.61523 0.66646 0.0
S1455 S 0.23545 0.71594 0.60133 0.0
N1456 N 0.26751 0.7219 0.62379 0.0
N1457 N 0.21821 0.68112 0.60575 0.0
C1458 C 0.23869 0.67281 0.6261 0.0
C1459 C 0.26526 0.69487 0.63601 0.0
C1460 C 0.73033 0.9151 0.86299 0.0
C1461 C 0.73878 0.94216 0.84884 0.0
C1462 C 0.74362 0.88876 0.86226 0.0
C1463 C 0.76766 0.88735 0.84833 0.0
H1464 H 0.71322 0.91452 0.87549 0.0
H1465 H 0.73508 0.86939 0.87352 0.0
S1466 S 0.79995 0.95133 0.80757 0.0
N1467 N 0.77387 0.9643 0.8196 0.0
N1468 N 0.79912 0.91739 0.81985 0.0
C1469 C 0.77688 0.91464 0.83478 0.0
C1470 C 0.76276 0.94099 0.8347 0.0
C1471 C 0.75849 0.9719 0.62315 0.0
C1472 C 0.76389 0.94863 0.59966 0.0
C1473 C 0.73464 0.98371 0.61632 0.0
C1474 C 0.71529 0.97317 0.58546 0.0
H1475 H 0.77286 0.98111 0.64718 0.0
H1476 H 0.73172 1.00192 0.63518 0.0
S1477 S 0.72005 0.91323 0.51449 0.0
N1478 N 0.74801 0.91573 0.54367 0.0
N1479 N 0.70331 0.93824 0.53074 0.0
C1480 C 0.72045 0.95002 0.56144 0.0
C1481 C 0.74465 0.93763 0.56859 0.0
C1482 C 0.38512 0.42727 0.83527 0.0
C1483 C 0.39755 0.41979 0.80792 0.0
C1484 C 0.3626 0.40552 0.84155 0.0
C1485 C 0.3513 0.37581 0.82028 0.0
H1486 H 0.39312 0.44996 0.85224 0.0
H1487 H 0.35367 0.41219 0.86284 0.0
S1488 S 0.37503 0.34539 0.74436 0.0
N1489 N 0.39653 0.38062 0.75936 0.0
N1490 N 0.35342 0.34059 0.77013 0.0
C1491 C 0.3632 0.36827 0.79266 0.0
C1492 C 0.38656 0.39002 0.78677 0.0
C1493 C 0.24254 0.65365 0.32297 0.0
C1494 C 0.2381 0.64557 0.35374 0.0
C1495 C 0.25644 0.68467 0.32054 0.0
C1496 C 0.26635 0.71003 0.34866 0.0
H1497 H 0.23419 0.63602 0.30011 0.0
H1498 H 0.25861 0.68895 0.29595 0.0
S1499 S 0.26084 0.70207 0.43559 0.0
N1500 N 0.24549 0.66628 0.41327 0.0
N1501 N 0.27127 0.7237 0.40888 0.0
C1502 C 0.26249 0.70212 0.3797 0.0
C1503 C 0.24847 0.67044 0.38215 0.0
C1504 C 0.56403 0.70094 0.56527 0.0
C1505 C 0.53937 0.69942 0.54154 0.0
C1506 C 0.56875 0.67416 0.57864 0.0
C1507 C 0.54887 0.64459 0.56934 0.0
H1508 H 0.58014 0.72281 0.57305 0.0
H1509 H 0.58822 0.67666 0.59621 0.0
S1510 S 0.48108 0.62811 0.50771 0.0
N1511 N 0.49515 0.66573 0.50964 0.0
N1512 N 0.50374 0.61617 0.53359 0.0
C1513 C 0.52427 0.64311 0.54557 0.0
C1514 C 0.51963 0.67015 0.53206 0.0
C1515 C 0.6851 0.30071 0.75562 0.0
C1516 C 0.68356 0.33032 0.74754 0.0
C1517 C 0.70985 0.2961 0.77499 0.0
C1518 C 0.73433 0.32082 0.78712 0.0
H1519 H 0.66681 0.28104 0.74749 0.0
H1520 H 0.70937 0.27332 0.78177 0.0
S1521 S 0.74109 0.40311 0.77408 0.0
N1522 N 0.70886 0.38471 0.75376 0.0
N1523 N 0.75468 0.37632 0.79011 0.0
C1524 C 0.73293 0.35042 0.77907 0.0
C1525 C 0.70787 0.35506 0.7593 0.0
C1526 C 0.02978 0.41502 0.0132 0.0
C1527 C 0.03278 0.39173 0.03252 0.0
C1528 C 0.0314 0.44614 0.02789 0.0
C1529 C 0.0358 0.45555 0.06259 0.0
H1530 H 0.02681 0.40953 0.98619 0.0
H1531 H 0.0303 0.46332 0.01194 0.0
S1532 S 0.04288 0.40457 0.12505 0.0
N1533 N 0.0387 0.38046 0.08873 0.0
N1534 N 0.04176 0.43961 0.11638 0.0
C1535 C 0.03759 0.43271 0.08248 0.0
C1536 C 0.03595 0.40062 0.06744 0.0
C1537 C 0.99656 0.77297 0.22181 0.0
C1538 C 0.01823 0.79918 0.23974 0.0
C1539 C 0.97028 0.76639 0.23092 0.0
C1540 C 0.96489 0.78607 0.25799 0.0
H1541 H 1.00035 0.75674 0.20164 0.0
H1542 H 0.95435 0.74559 0.21724 0.0
S1543 S 1.01486 0.85647 0.31347 0.0
N1544 N 0.03256 0.84399 0.28616 0.0
N1545 N 0.98345 0.83206 0.30282 0.0
C1546 C 0.98628 0.81233 0.27567 0.0
C1547 C 1.01287 0.81876 0.26668 0.0
C1548 C 0.6184 0.37856 0.22398 0.0
C1549 C 0.59499 0.35267 0.21368 0.0
C1550 C 0.61973 0.40448 0.20852 0.0
C1551 C 0.5974 0.40487 0.18322 0.0
H1552 H 0.63579 0.37853 0.24366 0.0
H1553 H 0.63806 0.42414 0.21624 0.0
S1554 S 0.5322 0.34242 0.1468 0.0
N1555 N 0.54961 0.32848 0.17634 0.0
N1556 N 0.55207 0.37746 0.14731 0.0
C1557 C 0.57413 0.37898 0.17247 0.0
C1558 C 0.57292 0.35266 0.18779 0.0
C1559 C 0.93745 0.3293 0.39315 0.0
C1560 C 0.9503 0.3549 0.38026 0.0
C1561 C 0.90947 0.32397 0.39443 0.0
C1562 C 0.89326 0.34363 0.38226 0.0
H1563 H 0.94886 0.31268 0.40163 0.0
H1564 H 0.90006 0.30312 0.40306 0.0
S1565 S 0.91765 0.41579 0.34988 0.0
N1566 N 0.94569 0.40194 0.35846 0.0
N1567 N 0.89204 0.39114 0.35978 0.0
C1568 C 0.90602 0.37036 0.37119 0.0
C1569 C 0.9348 0.37597 0.37007 0.0
C1570 C 0.08987 0.67689 0.67179 0.0
C1571 C 0.06687 0.67747 0.68693 0.0
C1572 C 0.0866 0.65668 0.64106 0.0
C1573 C 0.06021 0.63733 0.62488 0.0
H1574 H 0.11038 0.69191 0.68388 0.0
H1575 H 0.10482 0.65525 0.63062 0.0
S1576 S 0.99452 0.62899 0.65636 0.0
N1577 N 0.01781 0.65648 0.68515 0.0
N1578 N 1.01125 0.61874 0.62697 0.0
C1579 C 0.03718 0.63806 0.63996 0.0
C1580 C 0.04064 0.65816 0.67124 0.0
C1581 C 0.59431 0.80101 0.84835 0.0
C1582 C 0.59831 0.83084 0.86837 0.0
C1583 C 0.61644 0.79262 0.83591 0.0
C1584 C 0.6428 0.81398 0.84319 0.0
H1585 H 0.57462 0.78353 0.84407 0.0
H1586 H 0.61342 0.76873 0.82227 0.0
S1587 S 0.66181 0.89616 0.89134 0.0
N1588 N 0.62878 0.88261 0.89257 0.0
N1589 N 0.67085 0.8669 0.86923 0.0
C1590 C 0.64638 0.84447 0.86168 0.0
C1591 C 0.62388 0.85292 0.8743 0.0
C1592 C 0.49224 0.52725 0.69089 0.0
C1593 C 0.50557 0.53323 0.72493 0.0
C1594 C 0.50639 0.53799 0.66667 0.0
C1595 C 0.53436 0.55581 0.67521 0.0
H1596 H 0.47062 0.51393 0.68273 0.0
H1597 H 0.495 0.53258 0.64111 0.0
S1598 S 0.57932 0.57765 0.7609 0.0
N1599 N 0.54892 0.55784 0.76593 0.0
N1600 N 0.57522 0.57827 0.72055 0.0
C1601 C 0.54806 0.56198 0.70922 0.0
C1602 C 0.53378 0.55062 0.73394 0.0
C1603 C 0.81777 0.24744 0.05657 0.0
C1604 C 0.83423 0.27593 0.07725 0.0
C1605 C 0.79397 0.24715 0.03333 0.0
C1606 C 0.78706 0.27564 0.02913 0.0
H1607 H 0.82362 0.22532 0.05769 0.0
H1608 H 0.78362 0.22554 0.01528 0.0
S1609 S 0.81816 0.35435 0.08449 0.0
N1610 N 0.83786 0.33145 0.09819 0.0
N1611 N 0.79365 0.33131 0.0533 0.0
C1612 C 0.80052 0.30315 0.0534 0.0
C1613 C 0.82454 0.30338 0.0773 0.0
C1614 C 0.14302 0.54416 0.22014 0.0
C1615 C 0.13274 0.53173 0.24677 0.0
C1616 C 0.12494 0.54791 0.19042 0.0
C1617 C 0.09523 0.53939 0.1852 0.0
H1618 H 0.16543 0.55166 0.22246 0.0
H1619 H 0.13442 0.55824 0.17181 0.0
S1620 S 0.05688 0.50427 0.24556 0.0
N1621 N 0.09005 0.51016 0.26401 0.0
N1622 N 0.05705 0.51666 0.21 0.0
C1623 C 0.08495 0.52651 0.21143 0.0
C1624 C 0.10318 0.52285 0.24138 0.0
C1625 C 0.80147 0.85457 0.48917 0.0
C1626 C 0.82736 0.86382 0.51184 0.0
C1627 C 0.79881 0.83796 0.45678 0.0
C1628 C 0.82217 0.83068 0.44542 0.0
H1629 H 0.78333 0.86139 0.49612 0.0
H1630 H 0.77844 0.8324 0.44008 0.0
S1631 S 0.89433 0.84788 0.49671 0.0
N1632 N 0.87634 0.86269 0.52235 0.0
N1633 N 0.87179 0.83214 0.46078 0.0
C1634 C 0.84797 0.83838 0.4686 0.0
C1635 C 0.85046 0.85482 0.50201 0.0
C1636 C 0.53535 0.51407 0.9299 0.0
C1637 C 0.51004 0.51953 0.91422 0.0
C1638 C 0.54488 0.52278 0.96465 0.0
C1639 C 0.52955 0.53741 0.98498 0.0
H1640 H 0.54794 0.50304 0.91523 0.0
H1641 H 0.56447 0.51802 0.97572 0.0
S1642 S 0.46079 0.55421 0.95697 0.0
N1643 N 0.46898 0.5389 0.92208 0.0
N1644 N 0.48719 0.55517 0.98758 0.0
C1645 C 0.50416 0.5428 0.96986 0.0
C1646 C 0.49434 0.53388 0.9344 0.0
C1647 C 0.8787 0.29238 0.27104 0.0
C1648 C 0.87343 0.28586 0.23629 0.0
C1649 C 0.85799 0.29883 0.28725 0.0
C1650 C 0.83054 0.29536 0.26986 0.0
H1651 H 0.8997 0.29586 0.28573 0.0
H1652 H 0.86447 0.30914 0.31307 0.0
S1653 S 0.80587 0.28041 0.17841 0.0
N1654 N 0.83923 0.27967 0.18433 0.0
N1655 N 0.79896 0.28602 0.21611 0.0
C1656 C 0.82442 0.28737 0.23512 0.0
C1657 C 0.84617 0.28365 0.21806 0.0
C1658 C 0.10438 0.56068 0.44807 0.0
C1659 C 0.12966 0.55029 0.44858 0.0
C1660 C 0.09065 0.56329 0.4757 0.0
C1661 C 0.10105 0.55641 0.50712 0.0
H1662 H 0.09462 0.56709 0.42551 0.0
H1663 H 0.07149 0.57124 0.47225 0.0
S1664 S 0.1659 0.52712 0.52405 0.0
N1665 N 0.16383 0.53209 0.48497 0.0
N1666 N 0.13876 0.5374 0.53628 0.0
C1667 C 0.12623 0.54573 0.50837 0.0
C1668 C 0.14015 0.54257 0.47971 0.0
C1669 C 0.82312 0.87603 0.73339 0.0
C1670 C 0.82805 0.86152 0.70287 0.0
C1671 C 0.81602 0.85847 0.7577 0.0
C1672 C 0.81328 0.82556 0.7526 0.0
H1673 H 0.82442 0.90115 0.73846 0.0
H1674 H 0.81229 0.87075 0.78055 0.0
S1675 S 0.82504 0.77618 0.678 0.0
N1676 N 0.83035 0.81204 0.66965 0.0
N1677 N 0.81692 0.77941 0.71517 0.0
C1678 C 0.81825 0.81079 0.72241 0.0
C1679 C 0.8256 0.82863 0.69766 0.0
C1680 C 0.71359 0.44003 0.58907 0.0
C1681 C 0.69571 0.41912 0.56088 0.0
C1682 C 0.70576 0.46633 0.60409 0.0
C1683 C 0.68026 0.47253 0.59063 0.0
H1684 H 0.73406 0.43658 0.59877 0.0
H1685 H 0.72026 0.48272 0.62517 0.0
S1686 S 0.62679 0.42489 0.51667 0.0
N1687 N 0.65183 0.40575 0.52012 0.0
N1688 N 0.63706 0.45578 0.54801 0.0
C1689 C 0.66199 0.45134 0.56287 0.0
C1690 C 0.66979 0.42435 0.54799 0.0
C1691 C 0.18664 0.11979 0.58628 0.0
C1692 C 0.18485 0.13658 0.56 0.0
C1693 C 0.16253 0.10141 0.59358 0.0
C1694 C 0.13535 0.099 0.57518 0.0
H1695 H 0.20688 0.12045 0.60115 0.0
H1696 H 0.16529 0.08798 0.61317 0.0
S1697 S 0.11914 0.13681 0.50266 0.0
N1698 N 0.15352 0.14908 0.51516 0.0
N1699 N 0.10847 0.11429 0.52857 0.0
C1700 C 0.13322 0.11611 0.54926 0.0
C1701 C 0.15783 0.13495 0.54183 0.0
C1702 C 0.21977 0.01861 0.84053 0.0
C1703 C 0.19112 1.01159 0.84107 0.0
C1704 C 0.23319 0.99466 0.83313 0.0
C1705 C 0.21844 0.96287 0.82611 0.0
H1706 H 0.23224 0.04277 0.84686 0.0
H1707 H 0.25562 1.00104 0.83496 0.0
S1708 S 0.14262 0.93179 0.81977 0.0
N1709 N 0.14781 0.9705 0.83048 0.0
N1710 N 0.1735 0.9253 0.8168 0.0
C1711 C 0.18954 0.95541 0.82451 0.0
C1712 C 0.17574 0.97985 0.83192 0.0
C1713 C 0.3227 0.96635 0.00624 0.0
C1714 C 0.31231 0.94248 0.02287 0.0
C1715 C 0.35032 0.98411 0.01615 0.0
C1716 C 0.36865 0.97883 0.04321 0.0
H1717 H 0.30963 0.97085 0.98463 0.0
H1718 H 0.35772 1.00111 1.00147 0.0
S1719 S 0.35195 0.92086 0.09693 0.0
N1720 N 0.32257 0.91526 0.06886 0.0
N1721 N 0.37469 0.94947 0.08782 0.0
C1722 C 0.3586 0.95571 0.06082 0.0
C1723 C 0.33041 0.93725 0.05052 0.0
C1724 C 0.88099 0.68989 0.80368 0.0
C1725 C 0.87465 0.6636 0.81973 0.0
C1726 C 0.8677 0.71622 0.80599 0.0
C1727 C 0.84567 0.7183 0.82342 0.0
H1728 H 0.89604 0.68981 0.78798 0.0
H1729 H 0.8745 0.73498 0.79307 0.0
S1730 S 0.81905 0.65631 0.86976 0.0
N1731 N 0.84346 0.64273 0.85414 0.0
N1732 N 0.81824 0.68977 0.85696 0.0
C1733 C 0.83839 0.69173 0.83873 0.0
C1734 C 0.85252 0.66536 0.83713 0.0
C1735 C 0.85257 0.6171 0.0754 0.0
C1736 C 0.8499 0.64788 0.08626 0.0
C1737 C 0.87844 0.60932 0.08163 0.0
C1738 C 0.90278 0.63185 0.09943 0.0
H1739 H 0.83425 0.59856 0.0625 0.0
H1740 H 0.87929 0.58513 0.07328 0.0
S1741 S 0.90757 0.71556 0.13494 0.0
N1742 N 0.87418 0.70119 0.11635 0.0
N1743 N 0.92294 0.68616 0.12861 0.0
C1744 C 0.90077 0.66284 0.11047 0.0
C1745 C 0.8743 0.67099 0.10369 0.0
C1746 C 0.24247 0.1894 0.88744 0.0
C1747 C 0.2151 0.18697 0.86977 0.0
C1748 C 0.26567 0.21091 0.88229 0.0
C1749 C 0.26263 0.23039 0.85867 0.0
H1750 H 0.24603 0.17453 0.90543 0.0
H1751 H 0.28621 0.21205 0.89679 0.0
S1752 S 0.19599 0.23034 0.80276 0.0
N1753 N 0.18661 0.20478 0.8263 0.0
N1754 N 0.23028 0.2435 0.81521 0.0
C1755 C 0.23554 0.22736 0.83997 0.0
C1756 C 0.2118 0.20616 0.84591 0.0
C1757 C 0.36261 0.93815 0.29145 0.0
C1758 C 0.37627 0.96337 0.3188 0.0
C1759 C 0.34866 0.90783 0.29577 0.0
C1760 C 0.3478 0.9005 0.32779 0.0
H1761 H 0.36337 0.9416 0.26625 0.0
H1762 H 0.33876 0.88976 0.27362 0.0
S1763 S 0.38254 0.9569 0.40812 0.0
N1764 N 0.38915 0.97778 0.37934 0.0
N1765 N 0.3634 0.92178 0.38759 0.0
C1766 C 0.36141 0.92558 0.35539 0.0
C1767 C 0.3755 0.95646 0.3509 0.0
C1768 C 0.60113 0.43823 0.64629 0.0
C1769 C 0.58115 0.40908 0.63884 0.0
C1770 C 0.59594 0.46441 0.63274 0.0
C1771 C 0.57036 0.46334 0.61125 0.0
H1772 H 0.62113 0.44093 0.6629 0.0
H1773 H 0.61204 0.48613 0.64015 0.0
S1774 S 0.50944 0.39338 0.58654 0.0
N1775 N 0.53376 0.38114 0.60983 0.0
N1776 N 0.52378 0.43027 0.58509 0.0
C1777 C 0.5498 0.43436 0.60409 0.0
C1778 C 0.55526 0.40739 0.61758 0.0
C1779 C 0.41397 0.77716 0.42357 0.0
C1780 C 0.43822 0.79496 0.4157 0.0
C1781 C 0.38633 0.77744 0.40718 0.0
C1782 C 0.38164 0.79615 0.38284 0.0
H1783 H 0.41628 0.76201 0.44153 0.0
H1784 H 0.36857 0.76177 0.41246 0.0
S1785 S 0.43689 0.84821 0.35364 0.0
N1786 N 0.45434 0.83296 0.38182 0.0
N1787 N 0.4036 0.83316 0.35245 0.0
C1788 C 0.40551 0.81471 0.3758 0.0
C1789 C 0.4333 0.81429 0.39182 0.0
C1790 C 0.09251 0.70945 0.12075 0.0
C1791 C 0.08785 0.71777 0.15326 0.0
C1792 C 0.08933 0.67746 0.10586 0.0
C1793 C 0.08129 0.65312 0.1231 0.0
H1794 H 0.0991 0.72767 0.10707 0.0
H1795 H 0.09267 0.67173 0.0807 0.0
S1796 S 0.06509 0.66192 0.20753 0.0
N1797 N 0.07326 0.69827 0.20104 0.0
N1798 N 0.06829 0.63922 0.17356 0.0
C1799 C 0.07632 0.66118 0.15519 0.0
C1800 C 0.07926 0.6932 0.1701 0.0
C1801 C 0.10256 0.31573 0.92614 0.0
C1802 C 0.10393 0.30228 0.95491 0.0
C1803 C 0.12609 0.3233 0.91188 0.0
C1804 C 0.15174 0.31695 0.92531 0.0
H1805 H 0.08312 0.3204 0.91448 0.0
H1806 H 0.1239 0.33318 0.88947 0.0
S1807 S 0.16677 0.2837 1.00153 0.0
N1808 N 0.13354 0.28473 0.99741 0.0
N1809 N 0.17743 0.29801 0.97012 0.0
C1810 C 0.15356 0.3043 0.95456 0.0
C1811 C 0.12978 0.29726 0.96949 0.0
C1812 C 0.54463 0.75337 0.98601 0.0
C1813 C 0.52162 0.7564 0.96324 0.0
C1814 C 0.54289 0.72717 1.00048 0.0
C1815 C 0.51806 0.70329 0.9927 0.0
H1816 H 0.56432 0.77113 0.99242 0.0
H1817 H 0.56106 0.72571 0.01823 0.0
S1818 S 0.45094 0.70197 0.93804 0.0
N1819 N 0.47258 0.73496 0.93544 0.0
N1820 N 0.46935 0.68501 0.96366 0.0
C1821 C 0.49449 0.7064 0.97113 0.0
C1822 C 0.4963 0.73318 0.95595 0.0
C1823 C 0.17578 0.76875 0.81626 0.0
C1824 C 0.16427 0.76632 0.78227 0.0
C1825 C 0.20378 0.76967 0.82654 0.0
C1826 C 0.22052 0.76788 0.80298 0.0
H1827 H 0.16348 0.77125 0.83519 0.0
H1828 H 0.2128 0.77376 0.85311 0.0
S1829 S 0.2006 0.75954 0.71137 0.0
N1830 N 0.1716 0.76072 0.7249 0.0
N1831 N 0.22474 0.76195 0.74503 0.0
C1832 C 0.20926 0.76345 0.76893 0.0
C1833 C 0.18082 0.76291 0.75831 0.0
C1834 C 0.03967 0.45679 0.48897 0.0
C1835 C 0.0533 0.43271 0.49194 0.0
C1836 C 0.03811 0.47698 0.51728 0.0
C1837 C 0.04927 0.47356 0.54986 0.0
H1838 H 0.03013 0.46017 0.4646 0.0
H1839 H 0.02973 0.49664 0.5129 0.0
S1840 S 0.09051 0.41596 0.57017 0.0
N1841 N 0.08046 0.40731 0.52894 0.0
N1842 N 0.07711 0.44566 0.58291 0.0
C1843 C 0.06345 0.44963 0.5531 0.0
C1844 C 0.06542 0.42906 0.52394 0.0
C1845 C 0.51636 0.3022 0.31987 0.0
C1846 C 0.51669 0.2701 0.31498 0.0
C1847 C 0.49315 0.31184 0.32762 0.0
C1848 C 0.46964 0.28965 0.3304 0.0
H1849 H 0.53414 0.31999 0.31762 0.0
H1850 H 0.49346 0.33675 0.33122 0.0
S1851 S 0.45905 0.20289 0.31604 0.0
N1852 N 0.49121 0.21611 0.31118 0.0
N1853 N 0.44695 0.23447 0.32533 0.0
C1854 C 0.4694 0.25755 0.32487 0.0
C1855 C 0.49321 0.24768 0.3173 0.0
C1856 C 0.61253 0.59552 0.48991 0.0
C1857 C 0.60668 0.5776 0.45725 0.0
C1858 C 0.60103 0.5834 0.51528 0.0
C1859 C 0.58294 0.55297 0.50899 0.0
H1860 H 0.62633 0.619 0.49602 0.0
H1861 H 0.60598 0.59836 0.5399 0.0
S1862 S 0.55862 0.49804 0.42644 0.0
N1863 N 0.58044 0.5287 0.41932 0.0
N1864 N 0.55825 0.5062 0.46666 0.0
C1865 C 0.57647 0.53509 0.47615 0.0
C1866 C 0.58849 0.54732 0.45041 0.0
C1867 C 0.26773 0.80467 0.10178 0.0
C1868 C 0.27946 0.81223 0.07478 0.0
C1869 C 0.28442 0.81016 0.13355 0.0
C1870 C 0.31345 0.82301 0.13934 0.0
H1871 H 0.2453 0.79636 0.09894 0.0
H1872 H 0.27447 0.80435 0.15382 0.0
S1873 S 0.35521 0.83949 0.07606 0.0
N1874 N 0.32242 0.82817 0.05481 0.0
N1875 N 0.35392 0.83806 0.1154 0.0
C1876 C 0.32586 0.82778 0.1123 0.0
C1877 C 0.30882 0.82228 0.07971 0.0
C1878 C 0.02044 0.56843 0.93593 0.0
C1879 C 0.99184 0.56911 0.93041 0.0
C1880 C 0.03626 0.56658 0.96724 0.0
C1881 C 0.02514 0.56482 0.99639 0.0
H1882 H 0.03099 0.56866 0.91519 0.0
H1883 H 0.05789 0.56594 0.96815 0.0
S1884 S 0.95064 0.56415 0.99708 0.0
N1885 N 0.95269 0.56722 0.9582 0.0
N1886 N 0.98214 0.56298 0.01653 0.0
C1887 C 0.99637 0.56535 0.99169 0.0
C1888 C 0.98001 0.56769 0.95925 0.0
C1889 C 0.27252 0.26398 0.67722 0.0
C1890 C 0.28303 0.23698 0.67093 0.0
C1891 C 0.27583 0.28045 0.71028 0.0
C1892 C 0.29005 0.27042 0.73747 0.0
H1893 H 0.2608 0.27157 0.65674 0.0
H1894 H 0.26736 0.30098 0.71457 0.0
S1895 S 0.32292 0.20247 0.73368 0.0
N1896 N 0.30957 0.20236 0.69429 0.0
N1897 N 0.31521 0.23256 0.75581 0.0
C1898 C 0.30129 0.2441 0.73114 0.0
C1899 C 0.29801 0.22761 0.69796 0.0
C1900 C 0.61939 0.55996 0.24192 0.0
C1901 C 0.61118 0.58147 0.2647 0.0
C1902 C 0.60883 0.55498 0.20752 0.0
C1903 C 0.58997 0.57169 0.19442 0.0
H1904 H 0.63433 0.54694 0.25072 0.0
H1905 H 0.61603 0.5384 0.19104 0.0
S1906 S 0.5614 0.63024 0.2436 0.0
N1907 N 0.58257 0.61899 0.27208 0.0
N1908 N 0.5629 0.61022 0.20704 0.0
C1909 C 0.58131 0.5931 0.21694 0.0
C1910 C 0.59179 0.59776 0.25219 0.0
C1911 C 0.24374 0.79684 0.92868 0.0
C1912 C 0.24566 0.82946 0.93335 0.0
C1913 C 0.2669 0.78501 0.92383 0.0
C1914 C 0.29234 0.80558 0.92336 0.0
H1915 H 0.22379 0.78033 0.92622 0.0
H1916 H 0.26369 0.75978 0.9155 0.0
S1917 S 0.31103 0.89257 0.94651 0.0
N1918 N 0.27712 0.88206 0.94529 0.0
N1919 N 0.3206 0.85926 0.93753 0.0
C1920 C 0.29584 0.83791 0.93409 0.0
C1921 C 0.27229 0.85011 0.93804 0.0
C1922 C 1.00192 0.57524 0.73063 0.0
C1923 C 0.97263 0.56176 0.72607 0.0
C1924 C 0.01761 0.57091 0.70475 0.0
C1925 C 1.00548 0.55271 0.67184 0.0
H1926 H 1.01306 0.58983 0.75465 0.0
H1927 H 0.03966 0.5827 0.71058 0.0
S1928 S 0.93056 0.50846 0.64638 0.0
N1929 N 0.93313 0.52668 0.68523 0.0
N1930 N 0.96185 0.51908 0.63785 0.0
C1931 C 0.97642 0.53849 0.66712 0.0
C1932 C 0.96043 0.54278 0.69352 0.0
C1933 C 0.28848 0.27597 0.4771 0.0
C1934 C 0.2852 0.24294 0.47244 0.0
C1935 C 0.29534 0.29296 0.45225 0.0
C1936 C 0.29898 0.27773 0.4214 0.0
H1937 H 0.28588 0.28898 0.50029 0.0
H1938 H 0.29773 0.31828 0.45724 0.0
S1939 S 0.29454 0.19199 0.3969 0.0
N1940 N 0.28749 0.196 0.43463 0.0
N1941 N 0.29989 0.22766 0.38816 0.0
C1942 C 0.29601 0.24478 0.41644 0.0
C1943 C 0.28929 0.22751 0.44184 0.0
C1944 C 0.4166 0.67939 0.60331 0.0
C1945 C 0.41192 0.67321 0.63455 0.0
C1946 C 0.42543 0.65773 0.58164 0.0
C1947 C 0.42879 0.62923 0.59052 0.0
H1948 H 0.41424 0.70137 0.59607 0.0
H1949 H 0.43063 0.66371 0.5587 0.0
S1950 S 0.41643 0.60035 0.66719 0.0
N1951 N 0.40948 0.63539 0.67168 0.0
N1952 N 0.42513 0.59473 0.63055 0.0
C1953 C 0.42248 0.62205 0.6205 0.0
C1954 C 0.41434 0.64411 0.64273 0.0
C1955 C 0.95414 0.98139 0.62377 0.0
C1956 C 0.92979 0.98366 0.60194 0.0
C1957 C 0.98149 0.99735 0.62134 0.0
C1958 C 0.98555 1.01558 0.59655 0.0
H1959 H 0.95205 0.96862 0.64386 0.0
H1960 H 0.99932 0.99698 0.6402 0.0
S1961 S 0.92964 0.02641 0.53092 0.0
N1962 N 0.9127 1.00377 0.55264 0.0
N1963 N 0.96303 0.03292 0.54864 0.0
C1964 C 0.96159 1.01622 0.57355 0.0
C1965 C 0.93411 1.00051 0.57603 0.0
C1966 C 0.90926 0.10233 0.29774 0.0
C1967 C 0.92231 0.0898 0.3234 0.0
C1968 C 0.89721 0.12736 0.3053 0.0
C1969 C 0.89758 0.14013 0.33869 0.0
H1970 H 0.90873 0.09306 0.27175 0.0
H1971 H 0.88729 0.13661 0.28487 0.0
S1972 S 0.92489 0.11182 0.41426 0.0
N1973 N 0.93268 0.08951 0.38307 0.0
N1974 N 0.90878 0.13631 0.39718 0.0
C1975 C 0.90915 0.1267 0.36447 0.0
C1976 C 0.92201 0.10159 0.35684 0.0
C1977 C 0.77386 0.17897 0.11891 0.0
C1978 C 0.79398 0.18446 0.14901 0.0
C1979 C 0.74787 0.15753 0.11388 0.0
C1980 C 0.74114 0.14069 0.13865 0.0
H1981 H 0.77797 0.19169 0.09922 0.0
H1982 H 0.7326 0.15477 0.09089 0.0
S1983 S 0.78625 0.14607 0.22148 0.0
N1984 N 0.80542 0.17082 0.20355 0.0
N1985 N 0.75643 0.13049 0.194 0.0
C1986 C 0.76127 0.14516 0.16832 0.0
C1987 C 0.78772 0.16709 0.17354 0.0
C1988 C 0.22482 0.40986 0.34327 0.0
C1989 C 0.23916 0.44242 0.34968 0.0
C1990 C 0.23837 0.38378 0.34312 0.0
C1991 C 0.26802 0.38753 0.3491 0.0
H1992 H 0.2024 0.40434 0.33758 0.0
H1993 H 0.22508 0.36009 0.33792 0.0
S1994 S 0.31721 0.46732 0.36475 0.0
N1995 N 0.2863 0.47578 0.36078 0.0
N1996 N 0.31118 0.42852 0.36018 0.0
C1997 C 0.28284 0.42006 0.35502 0.0
C1998 C 0.26889 0.4466 0.3553 0.0
C1999 C 0.237 0.43449 0.10191 0.0
C2000 C 0.26325 0.45002 0.09726 0.0
C2001 C 0.21331 0.44663 0.09434 0.0
C2002 C 0.21489 0.47422 0.08097 0.0
H2003 H 0.23496 0.41341 0.11251 0.0
H2004 H 0.1937 0.43458 0.09935 0.0
S2005 S 0.27788 0.52079 0.05932 0.0
N2006 N 0.28875 0.49248 0.07539 0.0
N2007 N 0.24444 0.515 0.06068 0.0
C2008 C 0.24068 0.48876 0.07431 0.0
C2009 C 0.26481 0.47676 0.08261 0.0
C2010 C 0.87239 0.91558 0.29096 0.0
C2011 C 0.89971 0.91874 0.30908 0.0
C2012 C 0.84928 0.89519 0.29756 0.0
C2013 C 0.85241 0.87798 0.32329 0.0
H2014 H 0.86883 0.92878 0.27133 0.0
H2015 H 0.82876 0.89302 0.28237 0.0
S2016 S 0.9189 0.88301 0.38241 0.0
N2017 N 0.92835 0.905 0.35559 0.0
N2018 N 0.88456 0.8698 0.37056 0.0
C2019 C 0.87939 0.88264 0.34309 0.0
C2020 C 0.90312 0.90217 0.33528 0.0
C2021 C 0.72395 0.17446 0.85974 0.0
C2022 C 0.73479 0.14714 0.85543 0.0
C2023 C 0.73906 0.20489 0.8576 0.0
C2024 C 0.76593 0.21016 0.85027 0.0
H2025 H 0.70309 0.17238 0.86448 0.0
H2026 H 0.72911 0.22435 0.86069 0.0
S2027 S 0.80589 0.14859 0.83949 0.0
N2028 N 0.77587 0.12901 0.84587 0.0
N2029 N 0.80359 0.18549 0.8407 0.0
C2030 C 0.7775 0.18349 0.84664 0.0
C2031 C 0.76229 0.15242 0.84959 0.0
loop_
_geom_bond_atom_site_label_1
_geom_bond_atom_site_label_2
_geom_bond_distance
_geom_bond_site_symmetry_2
_ccdc_geom_bond_type
C0 O1 1.306 . S
C0 O3 1.160 . S
O1 C0 1.306 . S
O1 Cd2 2.228 1_655 S
Cd2 O1 2.228 1_455 S
Cd2 O6 2.273 . S
Cd2 O10 2.277 . S
O3 C0 1.160 . S
O3 Cd4 2.203 1_655 S
Cd4 O3 2.203 1_455 S
Cd4 O6 2.411 . S
Cd4 O7 2.333 . S
Cd4 O8 2.352 1_455 S
Cd4 O12 2.277 . S
Cd4 O13 2.356 . S
C5 O10 1.209 . S
C5 O12 1.226 . S
O6 Cd2 2.273 . S
O6 Cd4 2.411 . S
O6 C9 1.320 . S
O7 Cd4 2.333 . S
O7 C9 1.214 . S
O8 Cd4 2.352 1_655 S
O8 C11 1.258 1_655 S
C9 O6 1.320 . S
C9 O7 1.214 . S
O10 Cd2 2.277 . S
O10 C5 1.209 . S
C11 O8 1.258 1_455 S
C11 O13 1.282 . S
O12 Cd4 2.277 . S
O12 C5 1.226 . S
O13 Cd4 2.356 . S
O13 C11 1.282 . S
C14 O15 1.306 . S
C14 O17 1.160 . S
O15 C14 1.306 . S
O15 Cd16 2.228 . S
Cd16 O15 2.228 . S
Cd16 O20 2.273 . S
Cd16 O24 2.277 . S
O17 C14 1.160 . S
O17 Cd18 2.203 . S
Cd18 O17 2.203 . S
Cd18 O20 2.411 . S
Cd18 O21 2.333 . S
Cd18 O22 2.352 . S
Cd18 O26 2.277 . S
Cd18 O27 2.356 . S
C19 O24 1.209 . S
C19 O26 1.226 . S
O20 Cd16 2.273 . S
O20 Cd18 2.411 . S
O20 C23 1.320 . S
O21 Cd18 2.333 . S
O21 C23 1.214 . S
O22 Cd18 2.352 . S
O22 C25 1.258 . S
C23 O20 1.320 . S
C23 O21 1.214 . S
O24 Cd16 2.277 . S
O24 C19 1.209 . S
C25 O22 1.258 . S
C25 O27 1.282 . S
O26 Cd18 2.277 . S
O26 C19 1.226 . S
O27 Cd18 2.356 . S
O27 C25 1.282 . S
C28 O29 1.306 . S
C28 O31 1.160 . S
O29 C28 1.306 . S
O29 Cd30 2.228 . S
Cd30 O29 2.228 . S
Cd30 O34 2.273 . S
Cd30 O38 2.277 . S
O31 C28 1.160 . S
O31 Cd32 2.203 . S
Cd32 O31 2.203 . S
Cd32 O34 2.411 . S
Cd32 O35 2.333 . S
Cd32 O36 2.352 . S
Cd32 O40 2.277 . S
Cd32 O41 2.356 . S
C33 O38 1.209 . S
C33 O40 1.226 . S
O34 Cd30 2.273 . S
O34 Cd32 2.411 . S
O34 C37 1.320 . S
O35 Cd32 2.333 . S
O35 C37 1.214 . S
O36 Cd32 2.352 . S
O36 C39 1.258 . S
C37 O34 1.320 . S
C37 O35 1.214 . S
O38 Cd30 2.277 . S
O38 C33 1.209 . S
C39 O36 1.258 . S
C39 O41 1.282 . S
O40 Cd32 2.277 . S
O40 C33 1.226 . S
O41 Cd32 2.356 . S
O41 C39 1.282 . S
C42 O43 1.306 . S
C42 O45 1.160 . S
O43 C42 1.306 . S
O43 Cd44 2.228 . S
Cd44 O43 2.228 . S
Cd44 O48 2.273 . S
Cd44 O52 2.277 . S
O45 C42 1.160 . S
O45 Cd46 2.203 . S
Cd46 O45 2.203 . S
Cd46 O48 2.411 . S
Cd46 O49 2.333 . S
Cd46 O50 2.352 . S
Cd46 O54 2.277 . S
Cd46 O55 2.356 . S
C47 O52 1.209 . S
C47 O54 1.226 . S
O48 Cd44 2.273 . S
O48 Cd46 2.411 . S
O48 C51 1.320 . S
O49 Cd46 2.333 . S
O49 C51 1.214 . S
O50 Cd46 2.352 . S
O50 C53 1.258 . S
C51 O48 1.320 . S
C51 O49 1.214 . S
O52 Cd44 2.277 . S
O52 C47 1.209 . S
C53 O50 1.258 . S
C53 O55 1.282 . S
O54 Cd46 2.277 . S
O54 C47 1.226 . S
O55 Cd46 2.356 . S
O55 C53 1.282 . S
C56 O57 1.306 . S
C56 O59 1.160 . S
O57 C56 1.306 . S
O57 Cd58 2.228 . S
Cd58 O57 2.228 . S
Cd58 O62 2.273 . S
Cd58 O66 2.277 . S
O59 C56 1.160 . S
O59 Cd60 2.203 . S
Cd60 O59 2.203 . S
Cd60 O62 2.411 . S
Cd60 O63 2.333 . S
Cd60 O64 2.352 . S
Cd60 O68 2.277 . S
Cd60 O69 2.356 . S
C61 O66 1.209 . S
C61 O68 1.226 . S
O62 Cd58 2.273 . S
O62 Cd60 2.411 . S
O62 C65 1.320 . S
O63 Cd60 2.333 . S
O63 C65 1.214 . S
O64 Cd60 2.352 . S
O64 C67 1.258 . S
C65 O62 1.320 . S
C65 O63 1.214 . S
O66 Cd58 2.277 . S
O66 C61 1.209 . S
C67 O64 1.258 . S
C67 O69 1.282 . S
O68 Cd60 2.277 . S
O68 C61 1.226 . S
O69 Cd60 2.356 . S
O69 C67 1.282 . S
C70 O71 1.306 . S
C70 O73 1.160 . S
O71 C70 1.306 . S
O71 Cd72 2.228 . S
Cd72 O71 2.228 . S
Cd72 O76 2.273 . S
Cd72 O80 2.277 . S
O73 C70 1.160 . S
O73 Cd74 2.203 . S
Cd74 O73 2.203 . S
Cd74 O76 2.411 . S
Cd74 O77 2.333 . S
Cd74 O78 2.352 . S
Cd74 O82 2.277 . S
Cd74 O83 2.356 . S
C75 O80 1.209 . S
C75 O82 1.226 . S
O76 Cd72 2.273 . S
O76 Cd74 2.411 . S
O76 C79 1.320 . S
O77 Cd74 2.333 . S
O77 C79 1.214 . S
O78 Cd74 2.352 . S
O78 C81 1.258 . S
C79 O76 1.320 . S
C79 O77 1.214 . S
O80 Cd72 2.277 . S
O80 C75 1.209 . S
C81 O78 1.258 . S
C81 O83 1.282 . S
O82 Cd74 2.277 . S
O82 C75 1.226 . S
O83 Cd74 2.356 . S
O83 C81 1.282 . S
C84 O85 1.306 . S
C84 O87 1.160 . S
O85 C84 1.306 . S
O85 Cd86 2.228 . S
Cd86 O85 2.228 . S
Cd86 O90 2.273 . S
Cd86 O94 2.277 . S
O87 C84 1.160 . S
O87 Cd88 2.203 . S
Cd88 O87 2.203 . S
Cd88 O90 2.411 . S
Cd88 O91 2.333 . S
Cd88 O92 2.352 . S
Cd88 O96 2.277 . S
Cd88 O97 2.356 . S
C89 O94 1.209 . S
C89 O96 1.226 . S
O90 Cd86 2.273 . S
O90 Cd88 2.411 . S
O90 C93 1.320 . S
O91 Cd88 2.333 . S
O91 C93 1.214 . S
O92 Cd88 2.352 . S
O92 C95 1.258 . S
C93 O90 1.320 . S
C93 O91 1.214 . S
O94 Cd86 2.277 . S
O94 C89 1.209 . S
C95 O92 1.258 . S
C95 O97 1.282 . S
O96 Cd88 2.277 . S
O96 C89 1.226 . S
O97 Cd88 2.356 . S
O97 C95 1.282 . S
C98 O99 1.306 . S
C98 O101 1.160 . S
O99 C98 1.306 . S
O99 Cd100 2.228 1_655 S
Cd100 O99 2.228 1_455 S
Cd100 O104 2.273 . S
Cd100 O108 2.277 . S
O101 C98 1.160 . S
O101 Cd102 2.203 1_655 S
Cd102 O101 2.203 1_455 S
Cd102 O104 2.411 . S
Cd102 O105 2.333 . S
Cd102 O106 2.352 . S
Cd102 O110 2.277 1_556 S
Cd102 O111 2.356 1_556 S
C103 O108 1.209 1_554 S
C103 O110 1.226 . S
O104 Cd100 2.273 . S
O104 Cd102 2.411 . S
O104 C107 1.320 . S
O105 Cd102 2.333 . S
O105 C107 1.214 . S
O106 Cd102 2.352 . S
O106 C109 1.258 1_556 S
C107 O104 1.320 . S
C107 O105 1.214 . S
O108 Cd100 2.277 . S
O108 C103 1.209 1_556 S
C109 O106 1.258 1_554 S
C109 O111 1.282 . S
O110 Cd102 2.277 1_554 S
O110 C103 1.226 . S
O111 Cd102 2.356 1_554 S
O111 C109 1.282 . S
C112 O113 1.306 . S
C112 O115 1.160 . S
O113 C112 1.306 . S
O113 Cd114 2.228 . S
Cd114 O113 2.228 . S
Cd114 O118 2.273 . S
Cd114 O122 2.277 1_545 S
O115 C112 1.160 . S
O115 Cd116 2.203 . S
Cd116 O115 2.203 . S
Cd116 O118 2.411 . S
Cd116 O119 2.333 . S
Cd116 O120 2.352 . S
Cd116 O124 2.277 1_545 S
Cd116 O125 2.356 . S
C117 O122 1.209 . S
C117 O124 1.226 . S
O118 Cd114 2.273 . S
O118 Cd116 2.411 . S
O118 C121 1.320 . S
O119 Cd116 2.333 . S
O119 C121 1.214 . S
O120 Cd116 2.352 . S
O120 C123 1.258 . S
C121 O118 1.320 . S
C121 O119 1.214 . S
O122 Cd114 2.277 1_565 S
O122 C117 1.209 . S
C123 O120 1.258 . S
C123 O125 1.282 . S
O124 Cd116 2.277 1_565 S
O124 C117 1.226 . S
O125 Cd116 2.356 . S
O125 C123 1.282 . S
C126 O127 1.306 . S
C126 O129 1.160 . S
O127 C126 1.306 . S
O127 Cd128 2.228 . S
Cd128 O127 2.228 . S
Cd128 O132 2.273 . S
Cd128 O136 2.277 . S
O129 C126 1.160 . S
O129 Cd130 2.203 . S
Cd130 O129 2.203 . S
Cd130 O132 2.411 . S
Cd130 O133 2.333 . S
Cd130 O134 2.352 . S
Cd130 O138 2.277 . S
Cd130 O139 2.356 . S
C131 O136 1.209 . S
C131 O138 1.226 . S
O132 Cd128 2.273 . S
O132 Cd130 2.411 . S
O132 C135 1.320 . S
O133 Cd130 2.333 . S
O133 C135 1.214 . S
O134 Cd130 2.352 . S
O134 C137 1.258 . S
C135 O132 1.320 . S
C135 O133 1.214 . S
O136 Cd128 2.277 . S
O136 C131 1.209 . S
C137 O134 1.258 . S
C137 O139 1.282 . S
O138 Cd130 2.277 . S
O138 C131 1.226 . S
O139 Cd130 2.356 . S
O139 C137 1.282 . S
C140 O141 1.306 . S
C140 O143 1.160 . S
O141 C140 1.306 . S
O141 Cd142 2.228 . S
Cd142 O141 2.228 . S
Cd142 O146 2.273 . S
Cd142 O150 2.277 . S
O143 C140 1.160 . S
O143 Cd144 2.203 . S
Cd144 O143 2.203 . S
Cd144 O146 2.411 . S
Cd144 O147 2.333 . S
Cd144 O148 2.352 . S
Cd144 O152 2.277 . S
Cd144 O153 2.356 . S
C145 O150 1.209 . S
C145 O152 1.226 . S
O146 Cd142 2.273 . S
O146 Cd144 2.411 . S
O146 C149 1.320 . S
O147 Cd144 2.333 . S
O147 C149 1.214 . S
O148 Cd144 2.352 . S
O148 C151 1.258 . S
C149 O146 1.320 . S
C149 O147 1.214 . S
O150 Cd142 2.277 . S
O150 C145 1.209 . S
C151 O148 1.258 . S
C151 O153 1.282 . S
O152 Cd144 2.277 . S
O152 C145 1.226 . S
O153 Cd144 2.356 . S
O153 C151 1.282 . S
C154 O155 1.306 1_554 S
C154 O157 1.160 . S
O155 C154 1.306 1_556 S
O155 Cd156 2.228 . S
Cd156 O155 2.228 . S
Cd156 O160 2.241 1_556 S
Cd156 O164 2.277 . S
O157 C154 1.160 . S
O157 Cd158 2.203 . S
Cd158 O157 2.203 . S
Cd158 O160 2.416 . S
Cd158 O161 2.333 1_554 S
Cd158 O162 2.352 . S
Cd158 O166 2.277 1_554 S
Cd158 O167 2.356 . S
C159 O164 1.209 . S
C159 O166 1.226 . S
O160 Cd156 2.241 1_554 S
O160 Cd158 2.416 . S
O160 C163 1.328 1_554 S
O161 Cd158 2.333 1_556 S
O161 C163 1.214 . S
O162 Cd158 2.352 . S
O162 C165 1.258 . S
C163 O160 1.328 1_556 S
C163 O161 1.214 . S
O164 Cd156 2.277 . S
O164 C159 1.209 . S
C165 O162 1.258 . S
C165 O167 1.282 . S
O166 Cd158 2.277 1_556 S
O166 C159 1.226 . S
O167 Cd158 2.356 . S
O167 C165 1.282 . S
C168 O169 1.306 . S
C168 O171 1.160 . S
O169 C168 1.306 . S
O169 Cd170 2.228 . S
Cd170 O169 2.228 . S
Cd170 O174 2.273 . S
Cd170 O178 2.277 . S
O171 C168 1.160 . S
O171 Cd172 2.203 . S
Cd172 O171 2.203 . S
Cd172 O174 2.411 . S
Cd172 O175 2.333 . S
Cd172 O176 2.352 . S
Cd172 O180 2.277 . S
Cd172 O181 2.356 . S
C173 O178 1.209 . S
C173 O180 1.226 . S
O174 Cd170 2.273 . S
O174 Cd172 2.411 . S
O174 C177 1.320 . S
O175 Cd172 2.333 . S
O175 C177 1.214 . S
O176 Cd172 2.352 . S
O176 C179 1.258 . S
C177 O174 1.320 . S
C177 O175 1.214 . S
O178 Cd170 2.277 . S
O178 C173 1.209 . S
C179 O176 1.258 . S
C179 O181 1.282 . S
O180 Cd172 2.277 . S
O180 C173 1.226 . S
O181 Cd172 2.356 . S
O181 C179 1.282 . S
C182 O183 1.306 . S
C182 O185 1.160 . S
O183 C182 1.306 . S
O183 Cd184 2.228 . S
Cd184 O183 2.228 . S
Cd184 O188 2.273 . S
Cd184 O192 2.277 . S
O185 C182 1.160 . S
O185 Cd186 2.203 . S
Cd186 O185 2.203 . S
Cd186 O188 2.411 . S
Cd186 O189 2.333 . S
Cd186 O190 2.352 . S
Cd186 O194 2.277 . S
Cd186 O195 2.356 . S
C187 O192 1.209 . S
C187 O194 1.226 . S
O188 Cd184 2.273 . S
O188 Cd186 2.411 . S
O188 C191 1.320 . S
O189 Cd186 2.333 . S
O189 C191 1.214 . S
O190 Cd186 2.352 . S
O190 C193 1.258 . S
C191 O188 1.320 . S
C191 O189 1.214 . S
O192 Cd184 2.277 . S
O192 C187 1.209 . S
C193 O190 1.258 . S
C193 O195 1.282 . S
O194 Cd186 2.277 . S
O194 C187 1.226 . S
O195 Cd186 2.356 . S
O195 C193 1.282 . S
C196 O197 1.306 . S
C196 O199 1.160 . S
O197 C196 1.306 . S
O197 Cd198 2.228 . S
Cd198 O197 2.228 . S
Cd198 O202 2.273 . S
Cd198 O206 2.277 . S
O199 C196 1.160 . S
O199 Cd200 2.203 . S
Cd200 O199 2.203 . S
Cd200 O202 2.411 . S
Cd200 O203 2.333 . S
Cd200 O204 2.352 . S
Cd200 O208 2.277 . S
Cd200 O209 2.356 . S
C201 O206 1.209 . S
C201 O208 1.226 . S
O202 Cd198 2.273 . S
O202 Cd200 2.411 . S
O202 C205 1.320 . S
O203 Cd200 2.333 . S
O203 C205 1.214 . S
O204 Cd200 2.352 . S
O204 C207 1.258 . S
C205 O202 1.320 . S
C205 O203 1.214 . S
O206 Cd198 2.277 . S
O206 C201 1.209 . S
C207 O204 1.258 . S
C207 O209 1.282 . S
O208 Cd200 2.277 . S
O208 C201 1.226 . S
O209 Cd200 2.356 . S
O209 C207 1.282 . S
C210 O211 1.306 . S
C210 O213 1.160 . S
O211 C210 1.306 . S
O211 Cd212 2.228 . S
Cd212 O211 2.228 . S
Cd212 O216 2.273 . S
Cd212 O220 2.277 . S
O213 C210 1.160 . S
O213 Cd214 2.203 . S
Cd214 O213 2.203 . S
Cd214 O216 2.411 . S
Cd214 O217 2.333 . S
Cd214 O218 2.352 . S
Cd214 O222 2.277 . S
Cd214 O223 2.356 . S
C215 O220 1.209 . S
C215 O222 1.226 . S
O216 Cd212 2.273 . S
O216 Cd214 2.411 . S
O216 C219 1.320 . S
O217 Cd214 2.333 . S
O217 C219 1.214 . S
O218 Cd214 2.352 . S
O218 C221 1.258 . S
C219 O216 1.320 . S
C219 O217 1.214 . S
O220 Cd212 2.277 . S
O220 C215 1.209 . S
C221 O218 1.258 . S
C221 O223 1.282 . S
O222 Cd214 2.277 . S
O222 C215 1.226 . S
O223 Cd214 2.356 . S
O223 C221 1.282 . S
C224 O225 1.306 1_545 S
C224 O227 1.160 . S
O225 C224 1.306 1_565 S
O225 Cd226 2.228 . S
Cd226 O225 2.228 . S
Cd226 O230 2.273 1_565 S
Cd226 O234 2.277 . S
O227 C224 1.160 . S
O227 Cd228 2.203 . S
Cd228 O227 2.203 . S
Cd228 O230 2.411 . S
Cd228 O231 2.336 1_545 S
Cd228 O232 2.352 . S
Cd228 O236 2.277 1_545 S
Cd228 O237 2.356 . S
C229 O234 1.209 . S
C229 O236 1.226 . S
O230 Cd226 2.273 1_545 S
O230 Cd228 2.411 . S
O230 C233 1.326 1_545 S
O231 Cd228 2.336 1_565 S
O231 C233 1.217 . S
O232 Cd228 2.352 . S
O232 C235 1.258 . S
C233 O230 1.326 1_565 S
C233 O231 1.217 . S
O234 Cd226 2.277 . S
O234 C229 1.209 . S
C235 O232 1.258 . S
C235 O237 1.282 . S
O236 Cd228 2.277 1_565 S
O236 C229 1.226 . S
O237 Cd228 2.356 . S
O237 C235 1.282 . S
C238 O239 1.306 . S
C238 O241 1.160 . S
O239 C238 1.306 . S
O239 Cd240 2.228 . S
Cd240 O239 2.228 . S
Cd240 O244 2.273 . S
Cd240 O248 2.277 . S
O241 C238 1.160 . S
O241 Cd242 2.203 . S
Cd242 O241 2.203 . S
Cd242 O244 2.411 . S
Cd242 O245 2.333 . S
Cd242 O246 2.352 . S
Cd242 O250 2.277 . S
Cd242 O251 2.356 . S
C243 O248 1.209 . S
C243 O250 1.226 . S
O244 Cd240 2.273 . S
O244 Cd242 2.411 . S
O244 C247 1.320 . S
O245 Cd242 2.333 . S
O245 C247 1.214 . S
O246 Cd242 2.352 . S
O246 C249 1.258 . S
C247 O244 1.320 . S
C247 O245 1.214 . S
O248 Cd240 2.277 . S
O248 C243 1.209 . S
C249 O246 1.258 . S
C249 O251 1.282 . S
O250 Cd242 2.277 . S
O250 C243 1.226 . S
O251 Cd242 2.356 . S
O251 C249 1.282 . S
C252 O253 1.306 . S
C252 O255 1.160 . S
O253 C252 1.306 . S
O253 Cd254 2.228 . S
Cd254 O253 2.228 . S
Cd254 O258 2.273 . S
Cd254 O262 2.277 . S
O255 C252 1.160 . S
O255 Cd256 2.203 . S
Cd256 O255 2.203 . S
Cd256 O258 2.411 . S
Cd256 O259 2.333 . S
Cd256 O260 2.352 . S
Cd256 O264 2.277 . S
Cd256 O265 2.356 . S
C257 O262 1.209 . S
C257 O264 1.226 . S
O258 Cd254 2.273 . S
O258 Cd256 2.411 . S
O258 C261 1.320 . S
O259 Cd256 2.333 . S
O259 C261 1.214 . S
O260 Cd256 2.352 . S
O260 C263 1.258 . S
C261 O258 1.320 . S
C261 O259 1.214 . S
O262 Cd254 2.277 . S
O262 C257 1.209 . S
C263 O260 1.258 . S
C263 O265 1.282 . S
O264 Cd256 2.277 . S
O264 C257 1.226 . S
O265 Cd256 2.356 . S
O265 C263 1.282 . S
C266 O267 1.306 . S
C266 O269 1.160 . S
O267 C266 1.306 . S
O267 Cd268 2.228 . S
Cd268 O267 2.228 . S
Cd268 O272 2.273 . S
Cd268 O276 2.277 . S
O269 C266 1.160 . S
O269 Cd270 2.203 . S
Cd270 O269 2.203 . S
Cd270 O272 2.411 . S
Cd270 O273 2.333 . S
Cd270 O274 2.352 1_545 S
Cd270 O278 2.277 . S
Cd270 O279 2.356 . S
C271 O276 1.209 . S
C271 O278 1.226 . S
O272 Cd268 2.273 . S
O272 Cd270 2.411 . S
O272 C275 1.320 . S
O273 Cd270 2.333 . S
O273 C275 1.214 . S
O274 Cd270 2.352 1_565 S
O274 C277 1.258 . S
C275 O272 1.320 . S
C275 O273 1.214 . S
O276 Cd268 2.277 . S
O276 C271 1.209 . S
C277 O274 1.258 . S
C277 O279 1.282 1_565 S
O278 Cd270 2.277 . S
O278 C271 1.226 . S
O279 Cd270 2.356 . S
O279 C277 1.282 1_545 S
C280 O281 1.306 . S
C280 O283 1.160 . S
O281 C280 1.306 . S
O281 Cd282 2.228 . S
Cd282 O281 2.228 . S
Cd282 O286 2.273 . S
Cd282 O290 2.277 . S
O283 C280 1.160 . S
O283 Cd284 2.203 . S
Cd284 O283 2.203 . S
Cd284 O286 2.411 . S
Cd284 O287 2.333 . S
Cd284 O288 2.352 . S
Cd284 O292 2.277 . S
Cd284 O293 2.356 . S
C285 O290 1.209 . S
C285 O292 1.226 . S
O286 Cd282 2.273 . S
O286 Cd284 2.411 . S
O286 C289 1.320 . S
O287 Cd284 2.333 . S
O287 C289 1.214 . S
O288 Cd284 2.352 . S
O288 C291 1.258 . S
C289 O286 1.320 . S
C289 O287 1.214 . S
O290 Cd282 2.277 . S
O290 C285 1.209 . S
C291 O288 1.258 . S
C291 O293 1.282 . S
O292 Cd284 2.277 . S
O292 C285 1.226 . S
O293 Cd284 2.356 . S
O293 C291 1.282 . S
C294 O295 1.306 . S
C294 O297 1.160 . S
O295 C294 1.306 . S
O295 Cd296 2.228 . S
Cd296 O295 2.228 . S
Cd296 O300 2.273 . S
Cd296 O304 2.277 . S
O297 C294 1.160 . S
O297 Cd298 2.203 . S
Cd298 O297 2.203 . S
Cd298 O300 2.411 . S
Cd298 O301 2.333 . S
Cd298 O302 2.352 . S
Cd298 O306 2.277 . S
Cd298 O307 2.356 . S
C299 O304 1.209 . S
C299 O306 1.226 . S
O300 Cd296 2.273 . S
O300 Cd298 2.411 . S
O300 C303 1.320 . S
O301 Cd298 2.333 . S
O301 C303 1.214 . S
O302 Cd298 2.352 . S
O302 C305 1.258 . S
C303 O300 1.320 . S
C303 O301 1.214 . S
O304 Cd296 2.277 . S
O304 C299 1.209 . S
C305 O302 1.258 . S
C305 O307 1.282 . S
O306 Cd298 2.277 . S
O306 C299 1.226 . S
O307 Cd298 2.356 . S
O307 C305 1.282 . S
C308 O309 1.306 . S
C308 O311 1.160 . S
O309 C308 1.306 . S
O309 Cd310 2.228 . S
Cd310 O309 2.228 . S
Cd310 O314 2.273 . S
Cd310 O318 2.277 . S
O311 C308 1.160 . S
O311 Cd312 2.203 . S
Cd312 O311 2.203 . S
Cd312 O314 2.411 . S
Cd312 O315 2.333 . S
Cd312 O316 2.352 . S
Cd312 O320 2.277 . S
Cd312 O321 2.356 . S
C313 O318 1.209 . S
C313 O320 1.226 . S
O314 Cd310 2.273 . S
O314 Cd312 2.411 . S
O314 C317 1.320 . S
O315 Cd312 2.333 . S
O315 C317 1.214 . S
O316 Cd312 2.352 . S
O316 C319 1.258 . S
C317 O314 1.320 . S
C317 O315 1.214 . S
O318 Cd310 2.277 . S
O318 C313 1.209 . S
C319 O316 1.258 . S
C319 O321 1.282 . S
O320 Cd312 2.277 . S
O320 C313 1.226 . S
O321 Cd312 2.356 . S
O321 C319 1.282 . S
C322 O323 1.306 . S
C322 O325 1.160 . S
O323 C322 1.306 . S
O323 Cd324 2.228 . S
Cd324 O323 2.228 . S
Cd324 O328 2.273 . S
Cd324 O332 2.277 . S
O325 C322 1.160 . S
O325 Cd326 2.203 . S
Cd326 O325 2.203 . S
Cd326 O328 2.411 . S
Cd326 O329 2.333 . S
Cd326 O330 2.352 . S
Cd326 O334 2.277 . S
Cd326 O335 2.356 . S
C327 O332 1.209 . S
C327 O334 1.226 . S
O328 Cd324 2.273 . S
O328 Cd326 2.411 . S
O328 C331 1.320 . S
O329 Cd326 2.333 . S
O329 C331 1.214 . S
O330 Cd326 2.352 . S
O330 C333 1.258 . S
C331 O328 1.320 . S
C331 O329 1.214 . S
O332 Cd324 2.277 . S
O332 C327 1.209 . S
C333 O330 1.258 . S
C333 O335 1.282 . S
O334 Cd326 2.277 . S
O334 C327 1.226 . S
O335 Cd326 2.356 . S
O335 C333 1.282 . S
Tb336 C338 2.809 1_455 S
Tb336 O356 2.484 1_455 S
Tb336 O357 2.440 1_455 S
Tb336 O358 2.658 . S
Tb336 O359 2.409 . S
Tb336 O360 2.378 . S
Tb336 O364 2.325 . S
Tb336 O367 2.341 1_545 S
Tb337 C347 2.809 . S
Tb337 O358 2.325 . S
Tb337 O361 2.341 . S
Tb337 O362 2.484 . S
Tb337 O363 2.440 . S
Tb337 O364 2.658 . S
Tb337 O365 2.409 . S
Tb337 O366 2.378 1_545 S
C338 Tb336 2.809 1_655 S
C338 C339 1.514 . S
C338 O356 1.248 . S
C338 O357 1.266 . S
C339 C338 1.514 . S
C339 C340 1.359 . S
C339 C344 1.348 . S
C340 C339 1.359 . S
C340 C341 1.380 . S
C340 H368 0.929 . S
C341 C340 1.380 . S
C341 C342 1.347 . S
C341 H369 0.931 . S
C342 C341 1.347 . S
C342 C343 1.369 . S
C343 C342 1.369 . S
C343 C344 1.408 . S
C343 H370 0.930 . S
C344 C339 1.348 . S
C344 C343 1.408 . S
C344 H371 0.930 . S
C345 O358 1.281 . S
C345 O359 1.254 . S
C346 O360 1.236 . S
C346 O361 1.266 . S
C347 Tb337 2.809 . S
C347 C348 1.514 1_545 S
C347 O362 1.248 . S
C347 O363 1.266 . S
C348 C347 1.514 1_565 S
C348 C349 1.359 . S
C348 C353 1.348 . S
C349 C348 1.359 . S
C349 C350 1.380 . S
C349 H372 0.929 . S
C350 C349 1.380 . S
C350 C351 1.347 . S
C350 H373 0.931 . S
C351 C350 1.347 . S
C351 C352 1.369 . S
C352 C351 1.369 . S
C352 C353 1.408 . S
C352 H374 0.930 . S
C353 C348 1.348 . S
C353 C352 1.408 . S
C353 H375 0.930 1_565 S
C354 O364 1.281 . S
C354 O365 1.254 . S
C355 O366 1.236 . S
C355 O367 1.266 . S
O356 Tb336 2.484 1_655 S
O356 C338 1.248 . S
O357 Tb336 2.440 1_655 S
O357 C338 1.266 . S
O358 Tb336 2.658 . S
O358 Tb337 2.325 . S
O358 C345 1.281 . S
O359 Tb336 2.409 . S
O359 C345 1.254 . S
O360 Tb336 2.378 . S
O360 C346 1.236 . S
O361 Tb337 2.341 . S
O361 C346 1.266 . S
O362 Tb337 2.484 . S
O362 C347 1.248 . S
O363 Tb337 2.440 . S
O363 C347 1.266 . S
O364 Tb336 2.325 . S
O364 Tb337 2.658 . S
O364 C354 1.281 . S
O365 Tb337 2.409 . S
O365 C354 1.254 . S
O366 Tb337 2.378 1_565 S
O366 C355 1.236 . S
O367 Tb336 2.341 1_565 S
O367 C355 1.266 . S
H368 C340 0.929 . S
H369 C341 0.931 . S
H370 C343 0.930 . S
H371 C344 0.930 . S
H372 C349 0.929 . S
H373 C350 0.931 . S
H374 C352 0.930 . S
H375 C353 0.930 1_545 S
Tb376 C378 2.809 . S
Tb376 O396 2.484 . S
Tb376 O397 2.440 . S
Tb376 O398 2.658 . S
Tb376 O399 2.409 . S
Tb376 O400 2.378 . S
Tb376 O404 2.325 . S
Tb376 O407 2.341 . S
Tb377 C387 2.809 . S
Tb377 O398 2.325 . S
Tb377 O401 2.341 . S
Tb377 O402 2.484 . S
Tb377 O403 2.440 . S
Tb377 O404 2.658 . S
Tb377 O405 2.409 . S
Tb377 O406 2.378 . S
C378 Tb376 2.809 . S
C378 C379 1.514 . S
C378 O396 1.248 . S
C378 O397 1.266 . S
C379 C378 1.514 . S
C379 C380 1.359 . S
C379 C384 1.348 . S
C380 C379 1.359 . S
C380 C381 1.380 . S
C380 H408 0.929 . S
C381 C380 1.380 . S
C381 C382 1.347 . S
C381 H409 0.931 . S
C382 C381 1.347 . S
C382 C383 1.369 . S
C383 C382 1.369 . S
C383 C384 1.408 . S
C383 H410 0.930 . S
C384 C379 1.348 . S
C384 C383 1.408 . S
C384 H411 0.930 . S
C385 O398 1.281 . S
C385 O399 1.254 . S
C386 O400 1.236 . S
C386 O401 1.266 . S
C387 Tb377 2.809 . S
C387 C388 1.514 . S
C387 O402 1.248 . S
C387 O403 1.266 . S
C388 C387 1.514 . S
C388 C389 1.359 . S
C388 C393 1.348 . S
C389 C388 1.359 . S
C389 C390 1.380 . S
C389 H412 0.929 . S
C390 C389 1.380 . S
C390 C391 1.347 . S
C390 H413 0.931 . S
C391 C390 1.347 . S
C391 C392 1.369 . S
C392 C391 1.369 . S
C392 C393 1.408 . S
C392 H414 0.930 . S
C393 C388 1.348 . S
C393 C392 1.408 . S
C393 H415 0.930 . S
C394 O404 1.281 . S
C394 O405 1.254 . S
C395 O406 1.236 . S
C395 O407 1.266 . S
O396 Tb376 2.484 . S
O396 C378 1.248 . S
O397 Tb376 2.440 . S
O397 C378 1.266 . S
O398 Tb376 2.658 . S
O398 Tb377 2.325 . S
O398 C385 1.281 . S
O399 Tb376 2.409 . S
O399 C385 1.254 . S
O400 Tb376 2.378 . S
O400 C386 1.236 . S
O401 Tb377 2.341 . S
O401 C386 1.266 . S
O402 Tb377 2.484 . S
O402 C387 1.248 . S
O403 Tb377 2.440 . S
O403 C387 1.266 . S
O404 Tb376 2.325 . S
O404 Tb377 2.658 . S
O404 C394 1.281 . S
O405 Tb377 2.409 . S
O405 C394 1.254 . S
O406 Tb377 2.378 . S
O406 C395 1.236 . S
O407 Tb376 2.341 . S
O407 C395 1.266 . S
H408 C380 0.929 . S
H409 C381 0.931 . S
H410 C383 0.930 . S
H411 C384 0.930 . S
H412 C389 0.929 . S
H413 C390 0.931 . S
H414 C392 0.930 . S
H415 C393 0.930 . S
Tb416 C418 2.809 . S
Tb416 O436 2.484 . S
Tb416 O437 2.440 . S
Tb416 O438 2.658 . S
Tb416 O439 2.409 . S
Tb416 O440 2.378 1_545 S
Tb416 O444 2.325 . S
Tb416 O447 2.341 . S
Tb417 C427 2.809 . S
Tb417 O438 2.325 . S
Tb417 O441 2.341 1_545 S
Tb417 O442 2.484 . S
Tb417 O443 2.440 . S
Tb417 O444 2.658 . S
Tb417 O445 2.409 . S
Tb417 O446 2.378 . S
C418 Tb416 2.809 . S
C418 C419 1.514 1_545 S
C418 O436 1.248 . S
C418 O437 1.266 . S
C419 C418 1.514 1_565 S
C419 C420 1.359 . S
C419 C424 1.348 . S
C420 C419 1.359 . S
C420 C421 1.380 . S
C420 H448 0.929 . S
C421 C420 1.380 . S
C421 C422 1.347 . S
C421 H449 0.931 . S
C422 C421 1.347 . S
C422 C423 1.369 . S
C423 C422 1.369 . S
C423 C424 1.408 . S
C423 H450 0.930 . S
C424 C419 1.348 . S
C424 C423 1.408 . S
C424 H451 0.930 . S
C425 O438 1.281 . S
C425 O439 1.254 . S
C426 O440 1.236 . S
C426 O441 1.266 . S
C427 Tb417 2.809 . S
C427 C428 1.514 . S
C427 O442 1.248 . S
C427 O443 1.266 . S
C428 C427 1.514 . S
C428 C429 1.359 . S
C428 C433 1.348 . S
C429 C428 1.359 . S
C429 C430 1.380 . S
C429 H452 0.929 . S
C430 C429 1.380 . S
C430 C431 1.347 . S
C430 H453 0.931 . S
C431 C430 1.347 . S
C431 C432 1.369 . S
C432 C431 1.369 . S
C432 C433 1.408 . S
C432 H454 0.930 . S
C433 C428 1.348 . S
C433 C432 1.408 . S
C433 H455 0.930 . S
C434 O444 1.281 . S
C434 O445 1.254 . S
C435 O446 1.236 . S
C435 O447 1.266 . S
O436 Tb416 2.484 . S
O436 C418 1.248 . S
O437 Tb416 2.440 . S
O437 C418 1.266 . S
O438 Tb416 2.658 . S
O438 Tb417 2.325 . S
O438 C425 1.281 . S
O439 Tb416 2.409 . S
O439 C425 1.254 . S
O440 Tb416 2.378 1_565 S
O440 C426 1.236 . S
O441 Tb417 2.341 1_565 S
O441 C426 1.266 . S
O442 Tb417 2.484 . S
O442 C427 1.248 . S
O443 Tb417 2.440 . S
O443 C427 1.266 . S
O444 Tb416 2.325 . S
O444 Tb417 2.658 . S
O444 C434 1.281 . S
O445 Tb417 2.409 . S
O445 C434 1.254 . S
O446 Tb417 2.378 . S
O446 C435 1.236 . S
O447 Tb416 2.341 . S
O447 C435 1.266 . S
H448 C420 0.929 . S
H449 C421 0.931 . S
H450 C423 0.930 . S
H451 C424 0.930 . S
H452 C429 0.929 . S
H453 C430 0.931 . S
H454 C432 0.930 . S
H455 C433 0.930 . S
Tb456 C458 2.809 . S
Tb456 O476 2.484 . S
Tb456 O477 2.440 . S
Tb456 O478 2.658 . S
Tb456 O479 2.409 . S
Tb456 O480 2.378 . S
Tb456 O484 2.325 . S
Tb456 O487 2.341 . S
Tb457 C467 2.809 . S
Tb457 O478 2.325 . S
Tb457 O481 2.341 . S
Tb457 O482 2.484 . S
Tb457 O483 2.440 . S
Tb457 O484 2.658 . S
Tb457 O485 2.409 . S
Tb457 O486 2.378 . S
C458 Tb456 2.809 . S
C458 C459 1.514 . S
C458 O476 1.248 . S
C458 O477 1.266 . S
C459 C458 1.514 . S
C459 C460 1.359 . S
C459 C464 1.348 . S
C460 C459 1.359 . S
C460 C461 1.380 . S
C460 H488 0.929 . S
C461 C460 1.380 . S
C461 C462 1.347 . S
C461 H489 0.931 . S
C462 C461 1.347 . S
C462 C463 1.369 . S
C463 C462 1.369 . S
C463 C464 1.408 . S
C463 H490 0.930 . S
C464 C459 1.348 . S
C464 C463 1.408 . S
C464 H491 0.930 . S
C465 O478 1.281 . S
C465 O479 1.254 . S
C466 O480 1.236 . S
C466 O481 1.266 . S
C467 Tb457 2.809 . S
C467 C468 1.514 . S
C467 O482 1.248 . S
C467 O483 1.266 . S
C468 C467 1.514 . S
C468 C469 1.359 . S
C468 C473 1.348 . S
C469 C468 1.359 . S
C469 C470 1.380 . S
C469 H492 0.929 . S
C470 C469 1.380 . S
C470 C471 1.347 . S
C470 H493 0.931 . S
C471 C470 1.347 . S
C471 C472 1.369 . S
C472 C471 1.369 . S
C472 C473 1.408 . S
C472 H494 0.930 . S
C473 C468 1.348 . S
C473 C472 1.408 . S
C473 H495 0.930 . S
C474 O484 1.281 . S
C474 O485 1.254 . S
C475 O486 1.236 . S
C475 O487 1.266 . S
O476 Tb456 2.484 . S
O476 C458 1.248 . S
O477 Tb456 2.440 . S
O477 C458 1.266 . S
O478 Tb456 2.658 . S
O478 Tb457 2.325 . S
O478 C465 1.281 . S
O479 Tb456 2.409 . S
O479 C465 1.254 . S
O480 Tb456 2.378 . S
O480 C466 1.236 . S
O481 Tb457 2.341 . S
O481 C466 1.266 . S
O482 Tb457 2.484 . S
O482 C467 1.248 . S
O483 Tb457 2.440 . S
O483 C467 1.266 . S
O484 Tb456 2.325 . S
O484 Tb457 2.658 . S
O484 C474 1.281 . S
O485 Tb457 2.409 . S
O485 C474 1.254 . S
O486 Tb457 2.378 . S
O486 C475 1.236 . S
O487 Tb456 2.341 . S
O487 C475 1.266 . S
H488 C460 0.929 . S
H489 C461 0.931 . S
H490 C463 0.930 . S
H491 C464 0.930 . S
H492 C469 0.929 . S
H493 C470 0.931 . S
H494 C472 0.930 . S
H495 C473 0.930 . S
Tb496 C498 2.809 . S
Tb496 O516 2.484 . S
Tb496 O517 2.440 . S
Tb496 O518 2.658 . S
Tb496 O519 2.409 1_455 S
Tb496 O520 2.378 . S
Tb496 O524 2.325 . S
Tb496 O527 2.341 . S
Tb497 C507 2.809 . S
Tb497 O518 2.325 1_565 S
Tb497 O521 2.341 1_565 S
Tb497 O522 2.484 . S
Tb497 O523 2.440 . S
Tb497 O524 2.658 1_565 S
Tb497 O525 2.409 1_565 S
Tb497 O526 2.378 1_565 S
C498 Tb496 2.809 . S
C498 C499 1.514 . S
C498 O516 1.248 . S
C498 O517 1.266 . S
C499 C498 1.514 . S
C499 C500 1.359 . S
C499 C504 1.348 1_455 S
C500 C499 1.359 . S
C500 C501 1.380 . S
C500 H528 0.929 . S
C501 C500 1.380 . S
C501 C502 1.347 . S
C501 H529 0.931 . S
C502 C501 1.347 . S
C502 C503 1.369 1_455 S
C503 C502 1.369 1_655 S
C503 C504 1.408 . S
C503 H530 0.930 . S
C504 C499 1.348 1_655 S
C504 C503 1.408 . S
C504 H531 0.930 . S
C505 O518 1.281 1_655 S
C505 O519 1.254 . S
C506 O520 1.236 . S
C506 O521 1.266 . S
C507 Tb497 2.809 . S
C507 C508 1.514 . S
C507 O522 1.248 . S
C507 O523 1.266 . S
C508 C507 1.514 . S
C508 C509 1.359 . S
C508 C513 1.348 . S
C509 C508 1.359 . S
C509 C510 1.380 . S
C509 H532 0.929 . S
C510 C509 1.380 . S
C510 C511 1.347 . S
C510 H533 0.931 . S
C511 C510 1.347 . S
C511 C512 1.369 . S
C512 C511 1.369 . S
C512 C513 1.408 . S
C512 H534 0.930 . S
C513 C508 1.348 . S
C513 C512 1.408 . S
C513 H535 0.930 . S
C514 O524 1.281 . S
C514 O525 1.254 . S
C515 O526 1.236 . S
C515 O527 1.266 . S
O516 Tb496 2.484 . S
O516 C498 1.248 . S
O517 Tb496 2.440 . S
O517 C498 1.266 . S
O518 Tb496 2.658 . S
O518 Tb497 2.325 1_545 S
O518 C505 1.281 1_455 S
O519 Tb496 2.409 1_655 S
O519 C505 1.254 . S
O520 Tb496 2.378 . S
O520 C506 1.236 . S
O521 Tb497 2.341 1_545 S
O521 C506 1.266 . S
O522 Tb497 2.484 . S
O522 C507 1.248 . S
O523 Tb497 2.440 . S
O523 C507 1.266 . S
O524 Tb496 2.325 . S
O524 Tb497 2.658 1_545 S
O524 C514 1.281 . S
O525 Tb497 2.409 1_545 S
O525 C514 1.254 . S
O526 Tb497 2.378 1_545 S
O526 C515 1.236 . S
O527 Tb496 2.341 . S
O527 C515 1.266 . S
H528 C500 0.929 . S
H529 C501 0.931 . S
H530 C503 0.930 . S
H531 C504 0.930 . S
H532 C509 0.929 . S
H533 C510 0.931 . S
H534 C512 0.930 . S
H535 C513 0.930 . S
Tb536 C538 2.809 . S
Tb536 O556 2.484 . S
Tb536 O557 2.440 . S
Tb536 O558 2.658 . S
Tb536 O559 2.409 . S
Tb536 O560 2.378 . S
Tb536 O564 2.325 . S
Tb536 O567 2.341 . S
Tb537 C547 2.809 . S
Tb537 O558 2.325 . S
Tb537 O561 2.341 . S
Tb537 O562 2.484 . S
Tb537 O563 2.440 . S
Tb537 O564 2.658 . S
Tb537 O565 2.409 . S
Tb537 O566 2.378 . S
C538 Tb536 2.809 . S
C538 C539 1.514 . S
C538 O556 1.248 . S
C538 O557 1.266 . S
C539 C538 1.514 . S
C539 C540 1.359 . S
C539 C544 1.348 . S
C540 C539 1.359 . S
C540 C541 1.380 . S
C540 H568 0.929 . S
C541 C540 1.380 . S
C541 C542 1.347 . S
C541 H569 0.931 . S
C542 C541 1.347 . S
C542 C543 1.369 . S
C543 C542 1.369 . S
C543 C544 1.408 . S
C543 H570 0.930 . S
C544 C539 1.348 . S
C544 C543 1.408 . S
C544 H571 0.930 . S
C545 O558 1.281 . S
C545 O559 1.254 . S
C546 O560 1.236 . S
C546 O561 1.266 . S
C547 Tb537 2.809 . S
C547 C548 1.514 . S
C547 O562 1.248 . S
C547 O563 1.266 . S
C548 C547 1.514 . S
C548 C549 1.359 . S
C548 C553 1.348 . S
C549 C548 1.359 . S
C549 C550 1.380 . S
C549 H572 0.929 . S
C550 C549 1.380 . S
C550 C551 1.347 . S
C550 H573 0.931 . S
C551 C550 1.347 . S
C551 C552 1.369 . S
C552 C551 1.369 . S
C552 C553 1.408 . S
C552 H574 0.930 . S
C553 C548 1.348 . S
C553 C552 1.408 . S
C553 H575 0.930 . S
C554 O564 1.281 . S
C554 O565 1.254 . S
C555 O566 1.236 . S
C555 O567 1.266 . S
O556 Tb536 2.484 . S
O556 C538 1.248 . S
O557 Tb536 2.440 . S
O557 C538 1.266 . S
O558 Tb536 2.658 . S
O558 Tb537 2.325 . S
O558 C545 1.281 . S
O559 Tb536 2.409 . S
O559 C545 1.254 . S
O560 Tb536 2.378 . S
O560 C546 1.236 . S
O561 Tb537 2.341 . S
O561 C546 1.266 . S
O562 Tb537 2.484 . S
O562 C547 1.248 . S
O563 Tb537 2.440 . S
O563 C547 1.266 . S
O564 Tb536 2.325 . S
O564 Tb537 2.658 . S
O564 C554 1.281 . S
O565 Tb537 2.409 . S
O565 C554 1.254 . S
O566 Tb537 2.378 . S
O566 C555 1.236 . S
O567 Tb536 2.341 . S
O567 C555 1.266 . S
H568 C540 0.929 . S
H569 C541 0.931 . S
H570 C543 0.930 . S
H571 C544 0.930 . S
H572 C549 0.929 . S
H573 C550 0.931 . S
H574 C552 0.930 . S
H575 C553 0.930 . S
Tb576 C578 2.809 . S
Tb576 O596 2.484 1_545 S
Tb576 O597 2.440 . S
Tb576 O598 2.658 . S
Tb576 O599 2.409 . S
Tb576 O600 2.378 . S
Tb576 O604 2.325 . S
Tb576 O607 2.341 . S
Tb577 C587 2.809 . S
Tb577 O598 2.325 . S
Tb577 O601 2.341 . S
Tb577 O602 2.484 . S
Tb577 O603 2.440 . S
Tb577 O604 2.658 . S
Tb577 O605 2.409 1_545 S
Tb577 O606 2.378 . S
C578 Tb576 2.809 . S
C578 C579 1.511 1_545 S
C578 O596 1.248 1_545 S
C578 O597 1.266 . S
C579 C578 1.511 1_565 S
C579 C580 1.374 . S
C579 C584 1.336 1_565 S
C580 C579 1.374 . S
C580 C581 1.380 . S
C580 H608 0.929 . S
C581 C580 1.380 . S
C581 C582 1.347 . S
C581 H609 0.931 . S
C582 C581 1.347 . S
C582 C583 1.369 1_565 S
C583 C582 1.369 1_545 S
C583 C584 1.408 . S
C583 H610 0.930 . S
C584 C579 1.336 1_545 S
C584 C583 1.408 . S
C584 H611 0.930 . S
C585 O598 1.281 . S
C585 O599 1.254 . S
C586 O600 1.236 . S
C586 O601 1.266 . S
C587 Tb577 2.809 . S
C587 C588 1.514 . S
C587 O602 1.248 . S
C587 O603 1.266 . S
C588 C587 1.514 . S
C588 C589 1.359 . S
C588 C593 1.348 . S
C589 C588 1.359 . S
C589 C590 1.380 . S
C589 H612 0.929 . S
C590 C589 1.380 . S
C590 C591 1.347 . S
C590 H613 0.931 . S
C591 C590 1.347 . S
C591 C592 1.369 . S
C592 C591 1.369 . S
C592 C593 1.408 . S
C592 H614 0.930 . S
C593 C588 1.348 . S
C593 C592 1.408 . S
C593 H615 0.930 . S
C594 O604 1.281 1_565 S
C594 O605 1.254 . S
C595 O606 1.236 . S
C595 O607 1.266 . S
O596 Tb576 2.484 1_565 S
O596 C578 1.248 1_565 S
O597 Tb576 2.440 . S
O597 C578 1.266 . S
O598 Tb576 2.658 . S
O598 Tb577 2.325 . S
O598 C585 1.281 . S
O599 Tb576 2.409 . S
O599 C585 1.254 . S
O600 Tb576 2.378 . S
O600 C586 1.236 . S
O601 Tb577 2.341 . S
O601 C586 1.266 . S
O602 Tb577 2.484 . S
O602 C587 1.248 . S
O603 Tb577 2.440 . S
O603 C587 1.266 . S
O604 Tb576 2.325 . S
O604 Tb577 2.658 . S
O604 C594 1.281 1_545 S
O605 Tb577 2.409 1_565 S
O605 C594 1.254 . S
O606 Tb577 2.378 . S
O606 C595 1.236 . S
O607 Tb576 2.341 . S
O607 C595 1.266 . S
H608 C580 0.929 . S
H609 C581 0.931 . S
H610 C583 0.930 . S
H611 C584 0.930 . S
H612 C589 0.929 . S
H613 C590 0.931 . S
H614 C592 0.930 . S
H615 C593 0.930 . S
Tb616 C618 2.809 . S
Tb616 O636 2.484 . S
Tb616 O637 2.440 . S
Tb616 O638 2.658 . S
Tb616 O639 2.409 . S
Tb616 O640 2.378 . S
Tb616 O644 2.325 . S
Tb616 O647 2.341 . S
Tb617 C627 2.809 . S
Tb617 O638 2.325 . S
Tb617 O641 2.341 . S
Tb617 O642 2.484 . S
Tb617 O643 2.440 . S
Tb617 O644 2.658 . S
Tb617 O645 2.409 . S
Tb617 O646 2.378 . S
C618 Tb616 2.809 . S
C618 C619 1.514 . S
C618 O636 1.248 . S
C618 O637 1.266 . S
C619 C618 1.514 . S
C619 C620 1.359 . S
C619 C624 1.348 . S
C620 C619 1.359 . S
C620 C621 1.380 . S
C620 H648 0.929 . S
C621 C620 1.380 . S
C621 C622 1.347 . S
C621 H649 0.931 . S
C622 C621 1.347 . S
C622 C623 1.369 . S
C623 C622 1.369 . S
C623 C624 1.408 . S
C623 H650 0.930 . S
C624 C619 1.348 . S
C624 C623 1.408 . S
C624 H651 0.930 . S
C625 O638 1.281 . S
C625 O639 1.254 . S
C626 O640 1.236 . S
C626 O641 1.266 . S
C627 Tb617 2.809 . S
C627 C628 1.514 . S
C627 O642 1.248 . S
C627 O643 1.266 . S
C628 C627 1.514 . S
C628 C629 1.359 . S
C628 C633 1.348 . S
C629 C628 1.359 . S
C629 C630 1.380 . S
C629 H652 0.929 . S
C630 C629 1.380 . S
C630 C631 1.347 . S
C630 H653 0.931 . S
C631 C630 1.347 . S
C631 C632 1.369 . S
C632 C631 1.369 . S
C632 C633 1.408 . S
C632 H654 0.930 . S
C633 C628 1.348 . S
C633 C632 1.408 . S
C633 H655 0.930 . S
C634 O644 1.281 . S
C634 O645 1.254 . S
C635 O646 1.236 . S
C635 O647 1.266 . S
O636 Tb616 2.484 . S
O636 C618 1.248 . S
O637 Tb616 2.440 . S
O637 C618 1.266 . S
O638 Tb616 2.658 . S
O638 Tb617 2.325 . S
O638 C625 1.281 . S
O639 Tb616 2.409 . S
O639 C625 1.254 . S
O640 Tb616 2.378 . S
O640 C626 1.236 . S
O641 Tb617 2.341 . S
O641 C626 1.266 . S
O642 Tb617 2.484 . S
O642 C627 1.248 . S
O643 Tb617 2.440 . S
O643 C627 1.266 . S
O644 Tb616 2.325 . S
O644 Tb617 2.658 . S
O644 C634 1.281 . S
O645 Tb617 2.409 . S
O645 C634 1.254 . S
O646 Tb617 2.378 . S
O646 C635 1.236 . S
O647 Tb616 2.341 . S
O647 C635 1.266 . S
H648 C620 0.929 . S
H649 C621 0.931 . S
H650 C623 0.930 . S
H651 C624 0.930 . S
H652 C629 0.929 . S
H653 C630 0.931 . S
H654 C632 0.930 . S
H655 C633 0.930 . S
Tb656 C658 2.809 . S
Tb656 O676 2.484 . S
Tb656 O677 2.440 . S
Tb656 O678 2.658 . S
Tb656 O679 2.409 . S
Tb656 O680 2.378 . S
Tb656 O684 2.325 . S
Tb656 O687 2.341 . S
Tb657 C667 2.809 . S
Tb657 O678 2.325 . S
Tb657 O681 2.341 . S
Tb657 O682 2.484 . S
Tb657 O683 2.440 . S
Tb657 O684 2.658 . S
Tb657 O685 2.409 . S
Tb657 O686 2.378 . S
C658 Tb656 2.809 . S
C658 C659 1.514 . S
C658 O676 1.248 . S
C658 O677 1.266 . S
C659 C658 1.514 . S
C659 C660 1.359 . S
C659 C664 1.348 . S
C660 C659 1.359 . S
C660 C661 1.380 1_554 S
C660 H688 0.929 . S
C661 C660 1.380 1_556 S
C661 C662 1.347 . S
C661 H689 0.931 . S
C662 C661 1.347 . S
C662 C663 1.369 1_556 S
C663 C662 1.369 1_554 S
C663 C664 1.408 . S
C663 H690 0.930 . S
C664 C659 1.348 . S
C664 C663 1.408 . S
C664 H691 0.930 . S
C665 O678 1.281 . S
C665 O679 1.254 . S
C666 O680 1.236 . S
C666 O681 1.266 . S
C667 Tb657 2.809 . S
C667 C668 1.514 . S
C667 O682 1.248 . S
C667 O683 1.266 . S
C668 C667 1.514 . S
C668 C669 1.359 . S
C668 C673 1.348 . S
C669 C668 1.359 . S
C669 C670 1.380 . S
C669 H692 0.929 . S
C670 C669 1.380 . S
C670 C671 1.347 . S
C670 H693 0.931 . S
C671 C670 1.347 . S
C671 C672 1.369 . S
C672 C671 1.369 . S
C672 C673 1.408 . S
C672 H694 0.930 . S
C673 C668 1.348 . S
C673 C672 1.408 . S
C673 H695 0.930 . S
C674 O684 1.281 . S
C674 O685 1.254 . S
C675 O686 1.236 . S
C675 O687 1.266 . S
O676 Tb656 2.484 . S
O676 C658 1.248 . S
O677 Tb656 2.440 . S
O677 C658 1.266 . S
O678 Tb656 2.658 . S
O678 Tb657 2.325 . S
O678 C665 1.281 . S
O679 Tb656 2.409 . S
O679 C665 1.254 . S
O680 Tb656 2.378 . S
O680 C666 1.236 . S
O681 Tb657 2.341 . S
O681 C666 1.266 . S
O682 Tb657 2.484 . S
O682 C667 1.248 . S
O683 Tb657 2.440 . S
O683 C667 1.266 . S
O684 Tb656 2.325 . S
O684 Tb657 2.658 . S
O684 C674 1.281 . S
O685 Tb657 2.409 . S
O685 C674 1.254 . S
O686 Tb657 2.378 . S
O686 C675 1.236 . S
O687 Tb656 2.341 . S
O687 C675 1.266 . S
H688 C660 0.929 . S
H689 C661 0.931 . S
H690 C663 0.930 . S
H691 C664 0.930 . S
H692 C669 0.929 . S
H693 C670 0.931 . S
H694 C672 0.930 . S
H695 C673 0.930 . S
Tb696 C698 2.809 . S
Tb696 O716 2.484 . S
Tb696 O717 2.440 . S
Tb696 O718 2.658 . S
Tb696 O719 2.409 . S
Tb696 O720 2.378 . S
Tb696 O724 2.325 . S
Tb696 O727 2.341 . S
Tb697 C707 2.809 . S
Tb697 O718 2.325 . S
Tb697 O721 2.341 . S
Tb697 O722 2.484 . S
Tb697 O723 2.440 . S
Tb697 O724 2.658 . S
Tb697 O725 2.409 . S
Tb697 O726 2.378 . S
C698 Tb696 2.809 . S
C698 C699 1.514 . S
C698 O716 1.248 . S
C698 O717 1.266 . S
C699 C698 1.514 . S
C699 C700 1.359 . S
C699 C704 1.348 . S
C700 C699 1.359 . S
C700 C701 1.380 . S
C700 H728 0.929 . S
C701 C700 1.380 . S
C701 C702 1.347 . S
C701 H729 0.931 . S
C702 C701 1.347 . S
C702 C703 1.369 . S
C703 C702 1.369 . S
C703 C704 1.408 . S
C703 H730 0.930 . S
C704 C699 1.348 . S
C704 C703 1.408 . S
C704 H731 0.930 . S
C705 O718 1.281 . S
C705 O719 1.254 . S
C706 O720 1.236 . S
C706 O721 1.266 . S
C707 Tb697 2.809 . S
C707 C708 1.514 . S
C707 O722 1.248 . S
C707 O723 1.266 . S
C708 C707 1.514 . S
C708 C709 1.359 . S
C708 C713 1.348 . S
C709 C708 1.359 . S
C709 C710 1.380 . S
C709 H732 0.929 . S
C710 C709 1.380 . S
C710 C711 1.347 . S
C710 H733 0.931 . S
C711 C710 1.347 . S
C711 C712 1.369 . S
C712 C711 1.369 . S
C712 C713 1.408 . S
C712 H734 0.930 . S
C713 C708 1.348 . S
C713 C712 1.408 . S
C713 H735 0.930 . S
C714 O724 1.281 . S
C714 O725 1.254 . S
C715 O726 1.236 . S
C715 O727 1.266 . S
O716 Tb696 2.484 . S
O716 C698 1.248 . S
O717 Tb696 2.440 . S
O717 C698 1.266 . S
O718 Tb696 2.658 . S
O718 Tb697 2.325 . S
O718 C705 1.281 . S
O719 Tb696 2.409 . S
O719 C705 1.254 . S
O720 Tb696 2.378 . S
O720 C706 1.236 . S
O721 Tb697 2.341 . S
O721 C706 1.266 . S
O722 Tb697 2.484 . S
O722 C707 1.248 . S
O723 Tb697 2.440 . S
O723 C707 1.266 . S
O724 Tb696 2.325 . S
O724 Tb697 2.658 . S
O724 C714 1.281 . S
O725 Tb697 2.409 . S
O725 C714 1.254 . S
O726 Tb697 2.378 . S
O726 C715 1.236 . S
O727 Tb696 2.341 . S
O727 C715 1.266 . S
H728 C700 0.929 . S
H729 C701 0.931 . S
H730 C703 0.930 . S
H731 C704 0.930 . S
H732 C709 0.929 . S
H733 C710 0.931 . S
H734 C712 0.930 . S
H735 C713 0.930 . S
Tb736 C738 2.809 1_455 S
Tb736 O756 2.484 1_455 S
Tb736 O757 2.440 1_455 S
Tb736 O758 2.658 . S
Tb736 O759 2.409 . S
Tb736 O760 2.381 . S
Tb736 O764 2.325 . S
Tb736 O767 2.341 . S
Tb737 C747 2.809 . S
Tb737 O758 2.325 . S
Tb737 O761 2.341 . S
Tb737 O762 2.484 . S
Tb737 O763 2.440 . S
Tb737 O764 2.658 . S
Tb737 O765 2.409 . S
Tb737 O766 2.378 . S
C738 Tb736 2.809 1_655 S
C738 C739 1.514 . S
C738 O756 1.248 . S
C738 O757 1.266 . S
C739 C738 1.514 . S
C739 C740 1.359 . S
C739 C744 1.348 . S
C740 C739 1.359 . S
C740 C741 1.380 . S
C740 H768 0.929 . S
C741 C740 1.380 . S
C741 C742 1.347 . S
C741 H769 0.931 . S
C742 C741 1.347 . S
C742 C743 1.369 . S
C743 C742 1.369 . S
C743 C744 1.408 . S
C743 H770 0.930 . S
C744 C739 1.348 . S
C744 C743 1.408 . S
C744 H771 0.930 . S
C745 O758 1.281 . S
C745 O759 1.254 . S
C746 O760 1.241 . S
C746 O761 1.266 . S
C747 Tb737 2.809 . S
C747 C748 1.514 . S
C747 O762 1.248 . S
C747 O763 1.266 . S
C748 C747 1.514 . S
C748 C749 1.359 . S
C748 C753 1.348 . S
C749 C748 1.359 . S
C749 C750 1.380 . S
C749 H772 0.929 . S
C750 C749 1.380 . S
C750 C751 1.347 . S
C750 H773 0.931 . S
C751 C750 1.347 . S
C751 C752 1.369 . S
C752 C751 1.369 . S
C752 C753 1.408 . S
C752 H774 0.930 . S
C753 C748 1.348 . S
C753 C752 1.408 . S
C753 H775 0.930 . S
C754 O764 1.281 . S
C754 O765 1.254 . S
C755 O766 1.236 . S
C755 O767 1.266 . S
O756 Tb736 2.484 1_655 S
O756 C738 1.248 . S
O757 Tb736 2.440 1_655 S
O757 C738 1.266 . S
O758 Tb736 2.658 . S
O758 Tb737 2.325 . S
O758 C745 1.281 . S
O759 Tb736 2.409 . S
O759 C745 1.254 . S
O760 Tb736 2.381 . S
O760 C746 1.241 . S
O761 Tb737 2.341 . S
O761 C746 1.266 . S
O762 Tb737 2.484 . S
O762 C747 1.248 . S
O763 Tb737 2.440 . S
O763 C747 1.266 . S
O764 Tb736 2.325 . S
O764 Tb737 2.658 . S
O764 C754 1.281 . S
O765 Tb737 2.409 . S
O765 C754 1.254 . S
O766 Tb737 2.378 . S
O766 C755 1.236 . S
O767 Tb736 2.341 . S
O767 C755 1.266 . S
H768 C740 0.929 . S
H769 C741 0.931 . S
H770 C743 0.930 . S
H771 C744 0.930 . S
H772 C749 0.929 . S
H773 C750 0.931 . S
H774 C752 0.930 . S
H775 C753 0.930 . S
Tb776 C778 2.809 . S
Tb776 O796 2.484 . S
Tb776 O797 2.440 . S
Tb776 O798 2.658 . S
Tb776 O799 2.409 . S
Tb776 O800 2.378 . S
Tb776 O804 2.325 . S
Tb776 O807 2.341 . S
Tb777 C787 2.809 . S
Tb777 O798 2.325 . S
Tb777 O801 2.341 . S
Tb777 O802 2.484 . S
Tb777 O803 2.440 . S
Tb777 O804 2.658 . S
Tb777 O805 2.409 . S
Tb777 O806 2.378 . S
C778 Tb776 2.809 . S
C778 C779 1.514 . S
C778 O796 1.248 . S
C778 O797 1.266 . S
C779 C778 1.514 . S
C779 C780 1.359 . S
C779 C784 1.348 . S
C780 C779 1.359 . S
C780 C781 1.380 . S
C780 H808 0.929 . S
C781 C780 1.380 . S
C781 C782 1.347 . S
C781 H809 0.931 . S
C782 C781 1.347 . S
C782 C783 1.369 . S
C783 C782 1.369 . S
C783 C784 1.408 . S
C783 H810 0.930 . S
C784 C779 1.348 . S
C784 C783 1.408 . S
C784 H811 0.930 . S
C785 O798 1.281 . S
C785 O799 1.254 . S
C786 O800 1.236 . S
C786 O801 1.266 . S
C787 Tb777 2.809 . S
C787 C788 1.514 . S
C787 O802 1.248 . S
C787 O803 1.266 . S
C788 C787 1.514 . S
C788 C789 1.359 . S
C788 C793 1.348 . S
C789 C788 1.359 . S
C789 C790 1.380 . S
C789 H812 0.929 . S
C790 C789 1.380 . S
C790 C791 1.347 . S
C790 H813 0.931 . S
C791 C790 1.347 . S
C791 C792 1.369 . S
C792 C791 1.369 . S
C792 C793 1.408 . S
C792 H814 0.930 . S
C793 C788 1.348 . S
C793 C792 1.408 . S
C793 H815 0.930 . S
C794 O804 1.281 . S
C794 O805 1.254 . S
C795 O806 1.236 . S
C795 O807 1.266 . S
O796 Tb776 2.484 . S
O796 C778 1.248 . S
O797 Tb776 2.440 . S
O797 C778 1.266 . S
O798 Tb776 2.658 . S
O798 Tb777 2.325 . S
O798 C785 1.281 . S
O799 Tb776 2.409 . S
O799 C785 1.254 . S
O800 Tb776 2.378 . S
O800 C786 1.236 . S
O801 Tb777 2.341 . S
O801 C786 1.266 . S
O802 Tb777 2.484 . S
O802 C787 1.248 . S
O803 Tb777 2.440 . S
O803 C787 1.266 . S
O804 Tb776 2.325 . S
O804 Tb777 2.658 . S
O804 C794 1.281 . S
O805 Tb777 2.409 . S
O805 C794 1.254 . S
O806 Tb777 2.378 . S
O806 C795 1.236 . S
O807 Tb776 2.341 . S
O807 C795 1.266 . S
H808 C780 0.929 . S
H809 C781 0.931 . S
H810 C783 0.930 . S
H811 C784 0.930 . S
H812 C789 0.929 . S
H813 C790 0.931 . S
H814 C792 0.930 . S
H815 C793 0.930 . S
Tb816 C818 2.809 . S
Tb816 O836 2.484 . S
Tb816 O837 2.440 . S
Tb816 O838 2.658 . S
Tb816 O839 2.409 . S
Tb816 O840 2.378 . S
Tb816 O844 2.325 . S
Tb816 O847 2.341 . S
Tb817 C827 2.809 . S
Tb817 O838 2.325 . S
Tb817 O841 2.341 . S
Tb817 O842 2.484 . S
Tb817 O843 2.440 . S
Tb817 O844 2.658 . S
Tb817 O845 2.409 . S
Tb817 O846 2.378 . S
C818 Tb816 2.809 . S
C818 C819 1.514 . S
C818 O836 1.248 . S
C818 O837 1.266 . S
C819 C818 1.514 . S
C819 C820 1.359 . S
C819 C824 1.348 . S
C820 C819 1.359 . S
C820 C821 1.380 . S
C820 H848 0.929 . S
C821 C820 1.380 . S
C821 C822 1.347 . S
C821 H849 0.931 . S
C822 C821 1.347 . S
C822 C823 1.369 . S
C823 C822 1.369 . S
C823 C824 1.408 . S
C823 H850 0.930 . S
C824 C819 1.348 . S
C824 C823 1.408 . S
C824 H851 0.930 . S
C825 O838 1.281 . S
C825 O839 1.254 . S
C826 O840 1.236 . S
C826 O841 1.266 . S
C827 Tb817 2.809 . S
C827 C828 1.514 . S
C827 O842 1.248 . S
C827 O843 1.266 . S
C828 C827 1.514 . S
C828 C829 1.359 . S
C828 C833 1.348 . S
C829 C828 1.359 . S
C829 C830 1.380 1_556 S
C829 H852 0.929 . S
C830 C829 1.380 1_554 S
C830 C831 1.347 . S
C830 H853 0.931 . S
C831 C830 1.347 . S
C831 C832 1.369 . S
C832 C831 1.369 . S
C832 C833 1.408 1_554 S
C832 H854 0.930 . S
C833 C828 1.348 . S
C833 C832 1.408 1_556 S
C833 H855 0.930 . S
C834 O844 1.281 . S
C834 O845 1.254 . S
C835 O846 1.236 . S
C835 O847 1.266 . S
O836 Tb816 2.484 . S
O836 C818 1.248 . S
O837 Tb816 2.440 . S
O837 C818 1.266 . S
O838 Tb816 2.658 . S
O838 Tb817 2.325 . S
O838 C825 1.281 . S
O839 Tb816 2.409 . S
O839 C825 1.254 . S
O840 Tb816 2.378 . S
O840 C826 1.236 . S
O841 Tb817 2.341 . S
O841 C826 1.266 . S
O842 Tb817 2.484 . S
O842 C827 1.248 . S
O843 Tb817 2.440 . S
O843 C827 1.266 . S
O844 Tb816 2.325 . S
O844 Tb817 2.658 . S
O844 C834 1.281 . S
O845 Tb817 2.409 . S
O845 C834 1.254 . S
O846 Tb817 2.378 . S
O846 C835 1.236 . S
O847 Tb816 2.341 . S
O847 C835 1.266 . S
H848 C820 0.929 . S
H849 C821 0.931 . S
H850 C823 0.930 . S
H851 C824 0.930 . S
H852 C829 0.929 . S
H853 C830 0.931 . S
H854 C832 0.930 . S
H855 C833 0.930 . S
Tb856 C858 2.809 . S
Tb856 O876 2.484 . S
Tb856 O877 2.440 . S
Tb856 O878 2.658 . S
Tb856 O879 2.409 . S
Tb856 O880 2.378 . S
Tb856 O884 2.325 . S
Tb856 O887 2.341 . S
Tb857 C867 2.809 . S
Tb857 O878 2.325 . S
Tb857 O881 2.341 . S
Tb857 O882 2.484 . S
Tb857 O883 2.440 . S
Tb857 O884 2.658 . S
Tb857 O885 2.409 . S
Tb857 O886 2.378 . S
C858 Tb856 2.809 . S
C858 C859 1.514 . S
C858 O876 1.248 . S
C858 O877 1.266 . S
C859 C858 1.514 . S
C859 C860 1.359 . S
C859 C864 1.348 . S
C860 C859 1.359 . S
C860 C861 1.380 . S
C860 H888 0.929 . S
C861 C860 1.380 . S
C861 C862 1.347 . S
C861 H889 0.931 . S
C862 C861 1.347 . S
C862 C863 1.369 . S
C863 C862 1.369 . S
C863 C864 1.408 . S
C863 H890 0.930 . S
C864 C859 1.348 . S
C864 C863 1.408 . S
C864 H891 0.930 . S
C865 O878 1.281 . S
C865 O879 1.254 . S
C866 O880 1.236 . S
C866 O881 1.266 . S
C867 Tb857 2.809 . S
C867 C868 1.514 . S
C867 O882 1.248 . S
C867 O883 1.266 . S
C868 C867 1.514 . S
C868 C869 1.359 . S
C868 C873 1.348 . S
C869 C868 1.359 . S
C869 C870 1.380 . S
C869 H892 0.929 . S
C870 C869 1.380 . S
C870 C871 1.347 . S
C870 H893 0.931 . S
C871 C870 1.347 . S
C871 C872 1.369 . S
C872 C871 1.369 . S
C872 C873 1.408 . S
C872 H894 0.930 . S
C873 C868 1.348 . S
C873 C872 1.408 . S
C873 H895 0.930 . S
C874 O884 1.281 . S
C874 O885 1.254 . S
C875 O886 1.236 . S
C875 O887 1.266 . S
O876 Tb856 2.484 . S
O876 C858 1.248 . S
O877 Tb856 2.440 . S
O877 C858 1.266 . S
O878 Tb856 2.658 . S
O878 Tb857 2.325 . S
O878 C865 1.281 . S
O879 Tb856 2.409 . S
O879 C865 1.254 . S
O880 Tb856 2.378 . S
O880 C866 1.236 . S
O881 Tb857 2.341 . S
O881 C866 1.266 . S
O882 Tb857 2.484 . S
O882 C867 1.248 . S
O883 Tb857 2.440 . S
O883 C867 1.266 . S
O884 Tb856 2.325 . S
O884 Tb857 2.658 . S
O884 C874 1.281 . S
O885 Tb857 2.409 . S
O885 C874 1.254 . S
O886 Tb857 2.378 . S
O886 C875 1.236 . S
O887 Tb856 2.341 . S
O887 C875 1.266 . S
H888 C860 0.929 . S
H889 C861 0.931 . S
H890 C863 0.930 . S
H891 C864 0.930 . S
H892 C869 0.929 . S
H893 C870 0.931 . S
H894 C872 0.930 . S
H895 C873 0.930 . S
Tb896 C898 2.809 . S
Tb896 O916 2.484 . S
Tb896 O917 2.440 . S
Tb896 O918 2.658 . S
Tb896 O919 2.409 . S
Tb896 O920 2.378 . S
Tb896 O924 2.325 . S
Tb896 O927 2.341 . S
Tb897 C907 2.809 . S
Tb897 O918 2.325 . S
Tb897 O921 2.341 . S
Tb897 O922 2.484 . S
Tb897 O923 2.440 . S
Tb897 O924 2.658 . S
Tb897 O925 2.409 . S
Tb897 O926 2.378 . S
C898 Tb896 2.809 . S
C898 C899 1.514 . S
C898 O916 1.248 . S
C898 O917 1.266 . S
C899 C898 1.514 . S
C899 C900 1.359 . S
C899 C904 1.348 . S
C900 C899 1.359 . S
C900 C901 1.380 . S
C900 H928 0.929 . S
C901 C900 1.380 . S
C901 C902 1.347 . S
C901 H929 0.931 . S
C902 C901 1.347 . S
C902 C903 1.369 . S
C903 C902 1.369 . S
C903 C904 1.408 . S
C903 H930 0.930 . S
C904 C899 1.348 . S
C904 C903 1.408 . S
C904 H931 0.930 . S
C905 O918 1.281 . S
C905 O919 1.254 . S
C906 O920 1.236 . S
C906 O921 1.266 . S
C907 Tb897 2.809 . S
C907 C908 1.514 . S
C907 O922 1.248 . S
C907 O923 1.266 . S
C908 C907 1.514 . S
C908 C909 1.359 . S
C908 C913 1.348 . S
C909 C908 1.359 . S
C909 C910 1.380 . S
C909 H932 0.929 . S
C910 C909 1.380 . S
C910 C911 1.347 . S
C910 H933 0.931 . S
C911 C910 1.347 . S
C911 C912 1.369 . S
C912 C911 1.369 . S
C912 C913 1.408 . S
C912 H934 0.930 . S
C913 C908 1.348 . S
C913 C912 1.408 . S
C913 H935 0.930 . S
C914 O924 1.281 . S
C914 O925 1.254 . S
C915 O926 1.236 . S
C915 O927 1.266 . S
O916 Tb896 2.484 . S
O916 C898 1.248 . S
O917 Tb896 2.440 . S
O917 C898 1.266 . S
O918 Tb896 2.658 . S
O918 Tb897 2.325 . S
O918 C905 1.281 . S
O919 Tb896 2.409 . S
O919 C905 1.254 . S
O920 Tb896 2.378 . S
O920 C906 1.236 . S
O921 Tb897 2.341 . S
O921 C906 1.266 . S
O922 Tb897 2.484 . S
O922 C907 1.248 . S
O923 Tb897 2.440 . S
O923 C907 1.266 . S
O924 Tb896 2.325 . S
O924 Tb897 2.658 . S
O924 C914 1.281 . S
O925 Tb897 2.409 . S
O925 C914 1.254 . S
O926 Tb897 2.378 . S
O926 C915 1.236 . S
O927 Tb896 2.341 . S
O927 C915 1.266 . S
H928 C900 0.929 . S
H929 C901 0.931 . S
H930 C903 0.930 . S
H931 C904 0.930 . S
H932 C909 0.929 . S
H933 C910 0.931 . S
H934 C912 0.930 . S
H935 C913 0.930 . S
Tb936 C938 2.809 . S
Tb936 O956 2.484 . S
Tb936 O957 2.440 . S
Tb936 O958 2.658 . S
Tb936 O959 2.409 . S
Tb936 O960 2.378 . S
Tb936 O964 2.325 . S
Tb936 O967 2.341 . S
Tb937 C947 2.809 1_455 S
Tb937 O958 2.325 . S
Tb937 O961 2.341 . S
Tb937 O962 2.484 1_455 S
Tb937 O963 2.440 1_455 S
Tb937 O964 2.658 . S
Tb937 O965 2.409 . S
Tb937 O966 2.378 . S
C938 Tb936 2.809 . S
C938 C939 1.514 . S
C938 O956 1.248 . S
C938 O957 1.266 . S
C939 C938 1.514 . S
C939 C940 1.359 . S
C939 C944 1.348 . S
C940 C939 1.359 . S
C940 C941 1.380 . S
C940 H968 0.929 . S
C941 C940 1.380 . S
C941 C942 1.347 . S
C941 H969 0.931 . S
C942 C941 1.347 . S
C942 C943 1.369 . S
C943 C942 1.369 . S
C943 C944 1.408 . S
C943 H970 0.930 . S
C944 C939 1.348 . S
C944 C943 1.408 . S
C944 H971 0.930 . S
C945 O958 1.281 . S
C945 O959 1.254 . S
C946 O960 1.236 . S
C946 O961 1.266 . S
C947 Tb937 2.809 1_655 S
C947 C948 1.514 . S
C947 O962 1.248 . S
C947 O963 1.266 . S
C948 C947 1.514 . S
C948 C949 1.359 . S
C948 C953 1.348 . S
C949 C948 1.359 . S
C949 C950 1.380 . S
C949 H972 0.929 . S
C950 C949 1.380 . S
C950 C951 1.347 . S
C950 H973 0.931 . S
C951 C950 1.347 . S
C951 C952 1.369 . S
C952 C951 1.369 . S
C952 C953 1.408 . S
C952 H974 0.930 . S
C953 C948 1.348 . S
C953 C952 1.408 . S
C953 H975 0.930 . S
C954 O964 1.281 . S
C954 O965 1.254 . S
C955 O966 1.236 . S
C955 O967 1.266 . S
O956 Tb936 2.484 . S
O956 C938 1.248 . S
O957 Tb936 2.440 . S
O957 C938 1.266 . S
O958 Tb936 2.658 . S
O958 Tb937 2.325 . S
O958 C945 1.281 . S
O959 Tb936 2.409 . S
O959 C945 1.254 . S
O960 Tb936 2.378 . S
O960 C946 1.236 . S
O961 Tb937 2.341 . S
O961 C946 1.266 . S
O962 Tb937 2.484 1_655 S
O962 C947 1.248 . S
O963 Tb937 2.440 1_655 S
O963 C947 1.266 . S
O964 Tb936 2.325 . S
O964 Tb937 2.658 . S
O964 C954 1.281 . S
O965 Tb937 2.409 . S
O965 C954 1.254 . S
O966 Tb937 2.378 . S
O966 C955 1.236 . S
O967 Tb936 2.341 . S
O967 C955 1.266 . S
H968 C940 0.929 . S
H969 C941 0.931 . S
H970 C943 0.930 . S
H971 C944 0.930 . S
H972 C949 0.929 . S
H973 C950 0.931 . S
H974 C952 0.930 . S
H975 C953 0.930 . S
C976 C977 1.369 . S
C976 C978 1.419 . S
C976 H980 0.930 1_554 S
C977 C976 1.369 . S
C977 C986 1.429 . S
C978 C976 1.419 . S
C978 C979 1.363 . S
C978 H981 0.929 . S
C979 C978 1.363 . S
C979 C985 1.428 . S
H980 C976 0.930 1_556 S
H981 C978 0.929 . S
S982 N983 1.613 . S
S982 N984 1.610 . S
N983 S982 1.613 . S
N983 C986 1.350 . S
N984 S982 1.610 . S
N984 C985 1.351 . S
C985 C979 1.428 . S
C985 N984 1.351 . S
C985 C986 1.434 . S
C986 C977 1.429 . S
C986 N983 1.350 . S
C986 C985 1.434 . S
C987 C988 1.369 . S
C987 C989 1.419 . S
C987 H991 0.930 . S
C988 C987 1.369 . S
C988 C997 1.429 . S
C989 C987 1.419 . S
C989 C990 1.363 . S
C989 H992 0.929 . S
C990 C989 1.363 . S
C990 C996 1.428 . S
H991 C987 0.930 . S
H992 C989 0.929 . S
S993 N994 1.613 . S
S993 N995 1.610 . S
N994 S993 1.613 . S
N994 C997 1.350 . S
N995 S993 1.610 . S
N995 C996 1.351 . S
C996 C990 1.428 . S
C996 N995 1.351 . S
C996 C997 1.434 . S
C997 C988 1.429 . S
C997 N994 1.350 . S
C997 C996 1.434 . S
C998 C999 1.369 . S
C998 C1000 1.419 . S
C998 H1002 0.930 . S
C999 C998 1.369 . S
C999 C1008 1.429 . S
C1000 C998 1.419 . S
C1000 C1001 1.363 . S
C1000 H1003 0.929 . S
C1001 C1000 1.363 . S
C1001 C1007 1.428 . S
H1002 C998 0.930 . S
H1003 C1000 0.929 . S
S1004 N1005 1.613 . S
S1004 N1006 1.610 . S
N1005 S1004 1.613 . S
N1005 C1008 1.350 . S
N1006 S1004 1.610 . S
N1006 C1007 1.351 . S
C1007 C1001 1.428 . S
C1007 N1006 1.351 . S
C1007 C1008 1.434 . S
C1008 C999 1.429 . S
C1008 N1005 1.350 . S
C1008 C1007 1.434 . S
C1009 C1010 1.369 . S
C1009 C1011 1.419 . S
C1009 H1013 0.930 . S
C1010 C1009 1.369 . S
C1010 C1019 1.429 . S
C1011 C1009 1.419 . S
C1011 C1012 1.363 . S
C1011 H1014 0.929 . S
C1012 C1011 1.363 . S
C1012 C1018 1.428 . S
H1013 C1009 0.930 . S
H1014 C1011 0.929 . S
S1015 N1016 1.613 . S
S1015 N1017 1.610 . S
N1016 S1015 1.613 . S
N1016 C1019 1.350 . S
N1017 S1015 1.610 . S
N1017 C1018 1.351 . S
C1018 C1012 1.428 . S
C1018 N1017 1.351 . S
C1018 C1019 1.434 . S
C1019 C1010 1.429 . S
C1019 N1016 1.350 . S
C1019 C1018 1.434 . S
C1020 C1021 1.369 . S
C1020 C1022 1.419 . S
C1020 H1024 0.930 . S
C1021 C1020 1.369 . S
C1021 C1030 1.429 . S
C1022 C1020 1.419 . S
C1022 C1023 1.363 . S
C1022 H1025 0.929 . S
C1023 C1022 1.363 . S
C1023 C1029 1.428 . S
H1024 C1020 0.930 . S
H1025 C1022 0.929 . S
S1026 N1027 1.613 . S
S1026 N1028 1.610 . S
N1027 S1026 1.613 . S
N1027 C1030 1.350 . S
N1028 S1026 1.610 . S
N1028 C1029 1.351 . S
C1029 C1023 1.428 . S
C1029 N1028 1.351 . S
C1029 C1030 1.434 . S
C1030 C1021 1.429 . S
C1030 N1027 1.350 . S
C1030 C1029 1.434 . S
C1031 C1032 1.369 . S
C1031 C1033 1.419 . S
C1031 H1035 0.930 . S
C1032 C1031 1.369 . S
C1032 C1041 1.429 . S
C1033 C1031 1.419 . S
C1033 C1034 1.363 . S
C1033 H1036 0.929 . S
C1034 C1033 1.363 . S
C1034 C1040 1.428 . S
H1035 C1031 0.930 . S
H1036 C1033 0.929 . S
S1037 N1038 1.613 . S
S1037 N1039 1.610 . S
N1038 S1037 1.613 . S
N1038 C1041 1.350 . S
N1039 S1037 1.610 . S
N1039 C1040 1.351 . S
C1040 C1034 1.428 . S
C1040 N1039 1.351 . S
C1040 C1041 1.434 . S
C1041 C1032 1.429 . S
C1041 N1038 1.350 . S
C1041 C1040 1.434 . S
C1042 C1043 1.369 . S
C1042 C1044 1.419 . S
C1042 H1046 0.930 . S
C1043 C1042 1.369 . S
C1043 C1052 1.429 . S
C1044 C1042 1.419 . S
C1044 C1045 1.363 . S
C1044 H1047 0.929 . S
C1045 C1044 1.363 . S
C1045 C1051 1.428 . S
H1046 C1042 0.930 . S
H1047 C1044 0.929 . S
S1048 N1049 1.613 . S
S1048 N1050 1.610 . S
N1049 S1048 1.613 . S
N1049 C1052 1.350 . S
N1050 S1048 1.610 . S
N1050 C1051 1.351 . S
C1051 C1045 1.428 . S
C1051 N1050 1.351 . S
C1051 C1052 1.434 . S
C1052 C1043 1.429 . S
C1052 N1049 1.350 . S
C1052 C1051 1.434 . S
C1053 C1054 1.369 . S
C1053 C1055 1.419 . S
C1053 H1057 0.930 . S
C1054 C1053 1.369 . S
C1054 C1063 1.429 . S
C1055 C1053 1.419 . S
C1055 C1056 1.363 . S
C1055 H1058 0.929 . S
C1056 C1055 1.363 . S
C1056 C1062 1.428 . S
H1057 C1053 0.930 . S
H1058 C1055 0.929 . S
S1059 N1060 1.613 . S
S1059 N1061 1.610 . S
N1060 S1059 1.613 . S
N1060 C1063 1.350 . S
N1061 S1059 1.610 . S
N1061 C1062 1.351 . S
C1062 C1056 1.428 . S
C1062 N1061 1.351 . S
C1062 C1063 1.434 . S
C1063 C1054 1.429 . S
C1063 N1060 1.350 . S
C1063 C1062 1.434 . S
C1064 C1065 1.369 1_565 S
C1064 C1066 1.419 1_665 S
C1064 H1068 0.930 . S
C1065 C1064 1.369 1_545 S
C1065 C1074 1.429 . S
C1066 C1064 1.419 1_445 S
C1066 C1067 1.363 . S
C1066 H1069 0.929 1_545 S
C1067 C1066 1.363 . S
C1067 C1073 1.428 . S
H1068 C1064 0.930 . S
H1069 C1066 0.929 1_565 S
S1070 N1071 1.613 1_455 S
S1070 N1072 1.610 . S
N1071 S1070 1.613 1_655 S
N1071 C1074 1.350 . S
N1072 S1070 1.610 . S
N1072 C1073 1.351 . S
C1073 C1067 1.428 . S
C1073 N1072 1.351 . S
C1073 C1074 1.434 1_455 S
C1074 C1065 1.429 . S
C1074 N1071 1.350 . S
C1074 C1073 1.434 1_655 S
C1075 C1076 1.369 . S
C1075 C1077 1.419 . S
C1075 H1079 0.930 . S
C1076 C1075 1.369 . S
C1076 C1085 1.429 . S
C1077 C1075 1.419 . S
C1077 C1078 1.363 . S
C1077 H1080 0.929 . S
C1078 C1077 1.363 . S
C1078 C1084 1.428 . S
H1079 C1075 0.930 . S
H1080 C1077 0.929 . S
S1081 N1082 1.613 . S
S1081 N1083 1.610 . S
N1082 S1081 1.613 . S
N1082 C1085 1.350 . S
N1083 S1081 1.610 . S
N1083 C1084 1.351 . S
C1084 C1078 1.428 . S
C1084 N1083 1.351 . S
C1084 C1085 1.434 . S
C1085 C1076 1.429 . S
C1085 N1082 1.350 . S
C1085 C1084 1.434 . S
C1086 C1087 1.369 . S
C1086 C1088 1.419 . S
C1086 H1090 0.933 1_545 S
C1087 C1086 1.369 . S
C1087 C1096 1.429 . S
C1088 C1086 1.419 . S
C1088 C1089 1.363 . S
C1088 H1091 0.929 . S
C1089 C1088 1.363 . S
C1089 C1095 1.428 . S
H1090 C1086 0.933 1_565 S
H1091 C1088 0.929 . S
S1092 N1093 1.613 . S
S1092 N1094 1.610 . S
N1093 S1092 1.613 . S
N1093 C1096 1.350 . S
N1094 S1092 1.610 . S
N1094 C1095 1.351 . S
C1095 C1089 1.428 . S
C1095 N1094 1.351 . S
C1095 C1096 1.434 . S
C1096 C1087 1.429 . S
C1096 N1093 1.350 . S
C1096 C1095 1.434 . S
C1097 C1098 1.369 . S
C1097 C1099 1.419 . S
C1097 H1101 0.930 . S
C1098 C1097 1.369 . S
C1098 C1107 1.429 . S
C1099 C1097 1.419 . S
C1099 C1100 1.363 . S
C1099 H1102 0.929 . S
C1100 C1099 1.363 . S
C1100 C1106 1.428 . S
H1101 C1097 0.930 . S
H1102 C1099 0.929 . S
S1103 N1104 1.613 . S
S1103 N1105 1.610 . S
N1104 S1103 1.613 . S
N1104 C1107 1.350 . S
N1105 S1103 1.610 . S
N1105 C1106 1.351 . S
C1106 C1100 1.428 . S
C1106 N1105 1.351 . S
C1106 C1107 1.434 . S
C1107 C1098 1.429 . S
C1107 N1104 1.350 . S
C1107 C1106 1.434 . S
C1108 C1109 1.369 . S
C1108 C1110 1.419 . S
C1108 H1112 0.930 1_545 S
C1109 C1108 1.369 . S
C1109 C1118 1.429 1_655 S
C1110 C1108 1.419 . S
C1110 C1111 1.363 1_655 S
C1110 H1113 0.929 . S
C1111 C1110 1.363 1_455 S
C1111 C1117 1.428 . S
H1112 C1108 0.930 1_565 S
H1113 C1110 0.929 . S
S1114 N1115 1.613 . S
S1114 N1116 1.610 . S
N1115 S1114 1.613 . S
N1115 C1118 1.350 . S
N1116 S1114 1.610 . S
N1116 C1117 1.351 . S
C1117 C1111 1.428 . S
C1117 N1116 1.351 . S
C1117 C1118 1.434 . S
C1118 C1109 1.429 1_455 S
C1118 N1115 1.350 . S
C1118 C1117 1.434 . S
C1119 C1120 1.369 . S
C1119 C1121 1.419 . S
C1119 H1123 0.930 . S
C1120 C1119 1.369 . S
C1120 C1129 1.429 . S
C1121 C1119 1.419 . S
C1121 C1122 1.363 . S
C1121 H1124 0.929 . S
C1122 C1121 1.363 . S
C1122 C1128 1.428 . S
H1123 C1119 0.930 . S
H1124 C1121 0.929 . S
S1125 N1126 1.613 . S
S1125 N1127 1.610 . S
N1126 S1125 1.613 . S
N1126 C1129 1.350 . S
N1127 S1125 1.610 . S
N1127 C1128 1.351 . S
C1128 C1122 1.428 . S
C1128 N1127 1.351 . S
C1128 C1129 1.434 . S
C1129 C1120 1.429 . S
C1129 N1126 1.350 . S
C1129 C1128 1.434 . S
C1130 C1131 1.369 . S
C1130 C1132 1.419 1_556 S
C1130 H1134 0.930 1_556 S
C1131 C1130 1.369 . S
C1131 C1140 1.429 . S
C1132 C1130 1.419 1_554 S
C1132 C1133 1.363 . S
C1132 H1135 0.929 . S
C1133 C1132 1.363 . S
C1133 C1139 1.428 1_554 S
H1134 C1130 0.930 1_554 S
H1135 C1132 0.929 . S
S1136 N1137 1.613 . S
S1136 N1138 1.610 . S
N1137 S1136 1.613 . S
N1137 C1140 1.350 . S
N1138 S1136 1.610 . S
N1138 C1139 1.351 . S
C1139 C1133 1.428 1_556 S
C1139 N1138 1.351 . S
C1139 C1140 1.434 . S
C1140 C1131 1.429 . S
C1140 N1137 1.350 . S
C1140 C1139 1.434 . S
C1141 C1142 1.369 . S
C1141 C1143 1.419 . S
C1141 H1145 0.930 . S
C1142 C1141 1.369 . S
C1142 C1151 1.429 . S
C1143 C1141 1.419 . S
C1143 C1144 1.363 . S
C1143 H1146 0.929 . S
C1144 C1143 1.363 . S
C1144 C1150 1.428 . S
H1145 C1141 0.930 . S
H1146 C1143 0.929 . S
S1147 N1148 1.613 . S
S1147 N1149 1.610 . S
N1148 S1147 1.613 . S
N1148 C1151 1.350 . S
N1149 S1147 1.610 . S
N1149 C1150 1.351 . S
C1150 C1144 1.428 . S
C1150 N1149 1.351 . S
C1150 C1151 1.434 . S
C1151 C1142 1.429 . S
C1151 N1148 1.350 . S
C1151 C1150 1.434 . S
C1152 C1153 1.369 . S
C1152 C1154 1.419 . S
C1152 H1156 0.930 . S
C1153 C1152 1.369 . S
C1153 C1162 1.429 . S
C1154 C1152 1.419 . S
C1154 C1155 1.363 . S
C1154 H1157 0.929 . S
C1155 C1154 1.363 . S
C1155 C1161 1.428 . S
H1156 C1152 0.930 . S
H1157 C1154 0.929 . S
S1158 N1159 1.621 . S
S1158 N1160 1.610 . S
N1159 S1158 1.621 . S
N1159 C1162 1.373 . S
N1160 S1158 1.610 . S
N1160 C1161 1.351 . S
C1161 C1155 1.428 . S
C1161 N1160 1.351 . S
C1161 C1162 1.434 . S
C1162 C1153 1.429 . S
C1162 N1159 1.373 . S
C1162 C1161 1.434 . S
C1163 C1164 1.369 . S
C1163 C1165 1.419 . S
C1163 H1167 0.930 . S
C1164 C1163 1.369 . S
C1164 C1173 1.429 . S
C1165 C1163 1.419 . S
C1165 C1166 1.363 . S
C1165 H1168 0.929 . S
C1166 C1165 1.363 . S
C1166 C1172 1.428 . S
H1167 C1163 0.930 . S
H1168 C1165 0.929 . S
S1169 N1170 1.613 . S
S1169 N1171 1.610 . S
N1170 S1169 1.613 . S
N1170 C1173 1.350 . S
N1171 S1169 1.610 . S
N1171 C1172 1.351 . S
C1172 C1166 1.428 . S
C1172 N1171 1.351 . S
C1172 C1173 1.434 . S
C1173 C1164 1.429 . S
C1173 N1170 1.350 . S
C1173 C1172 1.434 . S
C1174 C1175 1.369 . S
C1174 C1176 1.419 . S
C1174 H1178 0.930 . S
C1175 C1174 1.369 . S
C1175 C1184 1.429 . S
C1176 C1174 1.419 . S
C1176 C1177 1.363 . S
C1176 H1179 0.929 . S
C1177 C1176 1.363 . S
C1177 C1183 1.428 . S
H1178 C1174 0.930 . S
H1179 C1176 0.929 . S
S1180 N1181 1.613 . S
S1180 N1182 1.610 . S
N1181 S1180 1.613 . S
N1181 C1184 1.350 . S
N1182 S1180 1.610 . S
N1182 C1183 1.351 . S
C1183 C1177 1.428 . S
C1183 N1182 1.351 . S
C1183 C1184 1.434 . S
C1184 C1175 1.429 . S
C1184 N1181 1.350 . S
C1184 C1183 1.434 . S
C1185 C1186 1.369 . S
C1185 C1187 1.419 . S
C1185 H1189 0.930 . S
C1186 C1185 1.369 . S
C1186 C1195 1.429 . S
C1187 C1185 1.419 . S
C1187 C1188 1.363 . S
C1187 H1190 0.929 . S
C1188 C1187 1.363 . S
C1188 C1194 1.428 . S
H1189 C1185 0.930 . S
H1190 C1187 0.929 . S
S1191 N1192 1.613 . S
S1191 N1193 1.610 . S
N1192 S1191 1.613 . S
N1192 C1195 1.350 . S
N1193 S1191 1.610 . S
N1193 C1194 1.351 . S
C1194 C1188 1.428 . S
C1194 N1193 1.351 . S
C1194 C1195 1.434 . S
C1195 C1186 1.429 . S
C1195 N1192 1.350 . S
C1195 C1194 1.434 . S
C1196 C1197 1.369 . S
C1196 C1198 1.419 . S
C1196 H1200 0.930 . S
C1197 C1196 1.369 . S
C1197 C1206 1.429 . S
C1198 C1196 1.419 . S
C1198 C1199 1.363 . S
C1198 H1201 0.929 . S
C1199 C1198 1.363 . S
C1199 C1205 1.428 . S
H1200 C1196 0.930 . S
H1201 C1198 0.929 . S
S1202 N1203 1.613 . S
S1202 N1204 1.610 . S
N1203 S1202 1.613 . S
N1203 C1206 1.350 . S
N1204 S1202 1.610 . S
N1204 C1205 1.351 . S
C1205 C1199 1.428 . S
C1205 N1204 1.351 . S
C1205 C1206 1.434 . S
C1206 C1197 1.429 . S
C1206 N1203 1.350 . S
C1206 C1205 1.434 . S
C1207 C1208 1.369 . S
C1207 C1209 1.419 . S
C1207 H1211 0.930 . S
C1208 C1207 1.369 . S
C1208 C1217 1.429 . S
C1209 C1207 1.419 . S
C1209 C1210 1.363 . S
C1209 H1212 0.929 . S
C1210 C1209 1.363 . S
C1210 C1216 1.428 . S
H1211 C1207 0.930 . S
H1212 C1209 0.929 . S
S1213 N1214 1.613 . S
S1213 N1215 1.610 . S
N1214 S1213 1.613 . S
N1214 C1217 1.350 . S
N1215 S1213 1.610 . S
N1215 C1216 1.351 . S
C1216 C1210 1.428 . S
C1216 N1215 1.351 . S
C1216 C1217 1.434 . S
C1217 C1208 1.429 . S
C1217 N1214 1.350 . S
C1217 C1216 1.434 . S
C1218 C1219 1.369 . S
C1218 C1220 1.419 . S
C1218 H1222 0.930 . S
C1219 C1218 1.369 . S
C1219 C1228 1.429 . S
C1220 C1218 1.419 . S
C1220 C1221 1.363 . S
C1220 H1223 0.929 . S
C1221 C1220 1.363 . S
C1221 C1227 1.428 . S
H1222 C1218 0.930 . S
H1223 C1220 0.929 . S
S1224 N1225 1.613 . S
S1224 N1226 1.610 . S
N1225 S1224 1.613 . S
N1225 C1228 1.350 . S
N1226 S1224 1.610 . S
N1226 C1227 1.351 . S
C1227 C1221 1.428 . S
C1227 N1226 1.351 . S
C1227 C1228 1.434 . S
C1228 C1219 1.429 . S
C1228 N1225 1.350 . S
C1228 C1227 1.434 . S
C1229 C1230 1.369 . S
C1229 C1231 1.419 . S
C1229 H1233 0.930 . S
C1230 C1229 1.369 . S
C1230 C1239 1.429 . S
C1231 C1229 1.419 . S
C1231 C1232 1.363 . S
C1231 H1234 0.929 . S
C1232 C1231 1.363 . S
C1232 C1238 1.428 . S
H1233 C1229 0.930 . S
H1234 C1231 0.929 . S
S1235 N1236 1.613 . S
S1235 N1237 1.610 . S
N1236 S1235 1.613 . S
N1236 C1239 1.350 . S
N1237 S1235 1.610 . S
N1237 C1238 1.351 . S
C1238 C1232 1.428 . S
C1238 N1237 1.351 . S
C1238 C1239 1.434 . S
C1239 C1230 1.429 . S
C1239 N1236 1.350 . S
C1239 C1238 1.434 . S
C1240 C1241 1.369 . S
C1240 C1242 1.419 . S
C1240 H1244 0.930 . S
C1241 C1240 1.369 . S
C1241 C1250 1.429 . S
C1242 C1240 1.419 . S
C1242 C1243 1.363 . S
C1242 H1245 0.929 . S
C1243 C1242 1.363 . S
C1243 C1249 1.428 . S
H1244 C1240 0.930 . S
H1245 C1242 0.929 . S
S1246 N1247 1.613 . S
S1246 N1248 1.610 . S
N1247 S1246 1.613 . S
N1247 C1250 1.350 . S
N1248 S1246 1.610 . S
N1248 C1249 1.351 . S
C1249 C1243 1.428 . S
C1249 N1248 1.351 . S
C1249 C1250 1.434 . S
C1250 C1241 1.429 . S
C1250 N1247 1.350 . S
C1250 C1249 1.434 . S
C1251 C1252 1.369 . S
C1251 C1253 1.419 . S
C1251 H1255 0.930 . S
C1252 C1251 1.369 . S
C1252 C1261 1.429 . S
C1253 C1251 1.419 . S
C1253 C1254 1.363 . S
C1253 H1256 0.929 . S
C1254 C1253 1.363 . S
C1254 C1260 1.428 . S
H1255 C1251 0.930 . S
H1256 C1253 0.929 . S
S1257 N1258 1.613 . S
S1257 N1259 1.610 . S
N1258 S1257 1.613 . S
N1258 C1261 1.350 . S
N1259 S1257 1.610 . S
N1259 C1260 1.351 . S
C1260 C1254 1.428 . S
C1260 N1259 1.351 . S
C1260 C1261 1.434 . S
C1261 C1252 1.429 . S
C1261 N1258 1.350 . S
C1261 C1260 1.434 . S
C1262 C1263 1.369 . S
C1262 C1264 1.419 . S
C1262 H1266 0.930 . S
C1263 C1262 1.369 . S
C1263 C1272 1.429 . S
C1264 C1262 1.419 . S
C1264 C1265 1.363 . S
C1264 H1267 0.929 . S
C1265 C1264 1.363 . S
C1265 C1271 1.428 . S
H1266 C1262 0.930 . S
H1267 C1264 0.929 . S
S1268 N1269 1.613 . S
S1268 N1270 1.610 . S
N1269 S1268 1.613 . S
N1269 C1272 1.350 . S
N1270 S1268 1.610 . S
N1270 C1271 1.351 . S
C1271 C1265 1.428 . S
C1271 N1270 1.351 . S
C1271 C1272 1.434 . S
C1272 C1263 1.429 . S
C1272 N1269 1.350 . S
C1272 C1271 1.434 . S
C1273 C1274 1.369 . S
C1273 C1275 1.419 . S
C1273 H1277 0.930 . S
C1274 C1273 1.369 . S
C1274 C1283 1.429 . S
C1275 C1273 1.419 . S
C1275 C1276 1.363 . S
C1275 H1278 0.929 . S
C1276 C1275 1.363 . S
C1276 C1282 1.428 . S
H1277 C1273 0.930 . S
H1278 C1275 0.929 . S
S1279 N1280 1.613 . S
S1279 N1281 1.610 . S
N1280 S1279 1.613 . S
N1280 C1283 1.350 . S
N1281 S1279 1.610 . S
N1281 C1282 1.351 . S
C1282 C1276 1.428 . S
C1282 N1281 1.351 . S
C1282 C1283 1.434 . S
C1283 C1274 1.429 . S
C1283 N1280 1.350 . S
C1283 C1282 1.434 . S
C1284 C1285 1.391 . S
C1284 C1286 1.419 . S
C1284 H1288 0.930 . S
C1285 C1284 1.391 . S
C1285 C1294 1.409 1_455 S
C1286 C1284 1.419 . S
C1286 C1287 1.363 1_455 S
C1286 H1289 0.929 . S
C1287 C1286 1.363 1_655 S
C1287 C1293 1.428 . S
H1288 C1284 0.930 . S
H1289 C1286 0.929 . S
S1290 N1291 1.613 . S
S1290 N1292 1.610 . S
N1291 S1290 1.613 . S
N1291 C1294 1.350 . S
N1292 S1290 1.610 . S
N1292 C1293 1.351 . S
C1293 C1287 1.428 . S
C1293 N1292 1.351 . S
C1293 C1294 1.434 . S
C1294 C1285 1.409 1_655 S
C1294 N1291 1.350 . S
C1294 C1293 1.434 . S
C1295 C1296 1.369 . S
C1295 C1297 1.419 . S
C1295 H1299 0.930 . S
C1296 C1295 1.369 . S
C1296 C1305 1.429 . S
C1297 C1295 1.419 . S
C1297 C1298 1.363 . S
C1297 H1300 0.929 . S
C1298 C1297 1.363 . S
C1298 C1304 1.428 . S
H1299 C1295 0.930 . S
H1300 C1297 0.929 . S
S1301 N1302 1.613 . S
S1301 N1303 1.610 . S
N1302 S1301 1.613 . S
N1302 C1305 1.350 . S
N1303 S1301 1.610 . S
N1303 C1304 1.351 . S
C1304 C1298 1.428 . S
C1304 N1303 1.351 . S
C1304 C1305 1.434 . S
C1305 C1296 1.429 . S
C1305 N1302 1.350 . S
C1305 C1304 1.434 . S
C1306 C1307 1.356 1_554 S
C1306 C1308 1.434 . S
C1306 H1310 0.928 1_554 S
C1307 C1306 1.356 1_556 S
C1307 C1316 1.429 . S
C1308 C1306 1.434 . S
C1308 C1309 1.363 . S
C1308 H1311 0.929 . S
C1309 C1308 1.363 . S
C1309 C1315 1.428 . S
H1310 C1306 0.928 1_556 S
H1311 C1308 0.929 . S
S1312 N1313 1.613 . S
S1312 N1314 1.610 1_556 S
N1313 S1312 1.613 . S
N1313 C1316 1.350 . S
N1314 S1312 1.610 1_554 S
N1314 C1315 1.351 . S
C1315 C1309 1.428 . S
C1315 N1314 1.351 . S
C1315 C1316 1.434 1_554 S
C1316 C1307 1.429 . S
C1316 N1313 1.350 . S
C1316 C1315 1.434 1_556 S
C1317 C1318 1.369 . S
C1317 C1319 1.427 . S
C1317 H1321 0.930 . S
C1318 C1317 1.369 . S
C1318 C1327 1.429 1_455 S
C1319 C1317 1.427 . S
C1319 C1320 1.355 1_455 S
C1319 H1322 0.929 . S
C1320 C1319 1.355 1_655 S
C1320 C1326 1.428 . S
H1321 C1317 0.930 . S
H1322 C1319 0.929 . S
S1323 N1324 1.613 . S
S1323 N1325 1.610 . S
N1324 S1323 1.613 . S
N1324 C1327 1.350 . S
N1325 S1323 1.610 . S
N1325 C1326 1.351 . S
C1326 C1320 1.428 . S
C1326 N1325 1.351 . S
C1326 C1327 1.434 . S
C1327 C1318 1.429 1_655 S
C1327 N1324 1.350 . S
C1327 C1326 1.434 . S
C1328 C1329 1.369 . S
C1328 C1330 1.419 . S
C1328 H1332 0.930 . S
C1329 C1328 1.369 . S
C1329 C1338 1.429 . S
C1330 C1328 1.419 . S
C1330 C1331 1.363 . S
C1330 H1333 0.929 . S
C1331 C1330 1.363 . S
C1331 C1337 1.428 . S
H1332 C1328 0.930 . S
H1333 C1330 0.929 . S
S1334 N1335 1.613 1_554 S
S1334 N1336 1.610 . S
N1335 S1334 1.613 1_556 S
N1335 C1338 1.350 . S
N1336 S1334 1.610 . S
N1336 C1337 1.349 1_554 S
C1337 C1331 1.428 . S
C1337 N1336 1.349 1_556 S
C1337 C1338 1.436 . S
C1338 C1329 1.429 . S
C1338 N1335 1.350 . S
C1338 C1337 1.436 . S
C1339 C1340 1.369 . S
C1339 C1341 1.419 . S
C1339 H1343 0.930 . S
C1340 C1339 1.369 . S
C1340 C1349 1.429 . S
C1341 C1339 1.419 . S
C1341 C1342 1.363 . S
C1341 H1344 0.929 . S
C1342 C1341 1.363 . S
C1342 C1348 1.428 . S
H1343 C1339 0.930 . S
H1344 C1341 0.929 . S
S1345 N1346 1.613 . S
S1345 N1347 1.610 . S
N1346 S1345 1.613 . S
N1346 C1349 1.350 . S
N1347 S1345 1.610 . S
N1347 C1348 1.351 . S
C1348 C1342 1.428 . S
C1348 N1347 1.351 . S
C1348 C1349 1.434 . S
C1349 C1340 1.429 . S
C1349 N1346 1.350 . S
C1349 C1348 1.434 . S
C1350 C1351 1.369 . S
C1350 C1352 1.419 . S
C1350 H1354 0.930 . S
C1351 C1350 1.369 . S
C1351 C1360 1.429 . S
C1352 C1350 1.419 . S
C1352 C1353 1.363 . S
C1352 H1355 0.929 . S
C1353 C1352 1.363 . S
C1353 C1359 1.428 . S
H1354 C1350 0.930 . S
H1355 C1352 0.929 . S
S1356 N1357 1.613 . S
S1356 N1358 1.610 . S
N1357 S1356 1.613 . S
N1357 C1360 1.350 . S
N1358 S1356 1.610 . S
N1358 C1359 1.351 . S
C1359 C1353 1.428 . S
C1359 N1358 1.351 . S
C1359 C1360 1.434 . S
C1360 C1351 1.429 . S
C1360 N1357 1.350 . S
C1360 C1359 1.434 . S
C1361 C1362 1.369 . S
C1361 C1363 1.419 . S
C1361 H1365 0.930 . S
C1362 C1361 1.369 . S
C1362 C1371 1.429 . S
C1363 C1361 1.419 . S
C1363 C1364 1.363 . S
C1363 H1366 0.929 . S
C1364 C1363 1.363 . S
C1364 C1370 1.428 . S
H1365 C1361 0.930 . S
H1366 C1363 0.929 . S
S1367 N1368 1.613 . S
S1367 N1369 1.610 . S
N1368 S1367 1.613 . S
N1368 C1371 1.350 . S
N1369 S1367 1.610 . S
N1369 C1370 1.351 . S
C1370 C1364 1.428 . S
C1370 N1369 1.351 . S
C1370 C1371 1.434 . S
C1371 C1362 1.429 . S
C1371 N1368 1.350 . S
C1371 C1370 1.434 . S
C1372 C1373 1.369 . S
C1372 C1374 1.419 . S
C1372 H1376 0.930 . S
C1373 C1372 1.369 . S
C1373 C1382 1.429 . S
C1374 C1372 1.419 . S
C1374 C1375 1.363 . S
C1374 H1377 0.929 . S
C1375 C1374 1.363 . S
C1375 C1381 1.428 . S
H1376 C1372 0.930 . S
H1377 C1374 0.929 . S
S1378 N1379 1.613 . S
S1378 N1380 1.610 . S
N1379 S1378 1.613 . S
N1379 C1382 1.350 . S
N1380 S1378 1.610 . S
N1380 C1381 1.351 . S
C1381 C1375 1.428 . S
C1381 N1380 1.351 . S
C1381 C1382 1.434 . S
C1382 C1373 1.429 . S
C1382 N1379 1.350 . S
C1382 C1381 1.434 . S
C1383 C1384 1.369 . S
C1383 C1385 1.419 . S
C1383 H1387 0.930 . S
C1384 C1383 1.369 . S
C1384 C1393 1.429 . S
C1385 C1383 1.419 . S
C1385 C1386 1.363 . S
C1385 H1388 0.929 . S
C1386 C1385 1.363 . S
C1386 C1392 1.428 . S
H1387 C1383 0.930 . S
H1388 C1385 0.929 . S
S1389 N1390 1.613 . S
S1389 N1391 1.610 . S
N1390 S1389 1.613 . S
N1390 C1393 1.350 . S
N1391 S1389 1.610 . S
N1391 C1392 1.351 . S
C1392 C1386 1.428 . S
C1392 N1391 1.351 . S
C1392 C1393 1.434 . S
C1393 C1384 1.429 . S
C1393 N1390 1.350 . S
C1393 C1392 1.434 . S
C1394 C1395 1.369 . S
C1394 C1396 1.419 . S
C1394 H1398 0.930 . S
C1395 C1394 1.369 . S
C1395 C1404 1.429 . S
C1396 C1394 1.419 . S
C1396 C1397 1.363 . S
C1396 H1399 0.929 . S
C1397 C1396 1.363 . S
C1397 C1403 1.428 . S
H1398 C1394 0.930 . S
H1399 C1396 0.929 . S
S1400 N1401 1.613 . S
S1400 N1402 1.610 . S
N1401 S1400 1.613 . S
N1401 C1404 1.350 . S
N1402 S1400 1.610 . S
N1402 C1403 1.351 . S
C1403 C1397 1.428 . S
C1403 N1402 1.351 . S
C1403 C1404 1.434 . S
C1404 C1395 1.429 . S
C1404 N1401 1.350 . S
C1404 C1403 1.434 . S
C1405 C1406 1.369 . S
C1405 C1407 1.419 . S
C1405 H1409 0.930 . S
C1406 C1405 1.369 . S
C1406 C1415 1.429 . S
C1407 C1405 1.419 . S
C1407 C1408 1.363 . S
C1407 H1410 0.929 . S
C1408 C1407 1.363 . S
C1408 C1414 1.428 . S
H1409 C1405 0.930 . S
H1410 C1407 0.929 . S
S1411 N1412 1.613 . S
S1411 N1413 1.610 1_554 S
N1412 S1411 1.613 . S
N1412 C1415 1.350 1_554 S
N1413 S1411 1.610 1_556 S
N1413 C1414 1.351 . S
C1414 C1408 1.428 . S
C1414 N1413 1.351 . S
C1414 C1415 1.434 . S
C1415 C1406 1.429 . S
C1415 N1412 1.350 1_556 S
C1415 C1414 1.434 . S
C1416 C1417 1.369 . S
C1416 C1418 1.419 . S
C1416 H1420 0.930 . S
C1417 C1416 1.369 . S
C1417 C1426 1.429 . S
C1418 C1416 1.419 . S
C1418 C1419 1.363 . S
C1418 H1421 0.929 . S
C1419 C1418 1.363 . S
C1419 C1425 1.428 . S
H1420 C1416 0.930 . S
H1421 C1418 0.929 . S
S1422 N1423 1.613 . S
S1422 N1424 1.610 . S
N1423 S1422 1.613 . S
N1423 C1426 1.350 . S
N1424 S1422 1.610 . S
N1424 C1425 1.351 . S
C1425 C1419 1.428 . S
C1425 N1424 1.351 . S
C1425 C1426 1.434 . S
C1426 C1417 1.429 . S
C1426 N1423 1.350 . S
C1426 C1425 1.434 . S
C1427 C1428 1.369 . S
C1427 C1429 1.419 . S
C1427 H1431 0.930 . S
C1428 C1427 1.369 . S
C1428 C1437 1.429 . S
C1429 C1427 1.419 . S
C1429 C1430 1.363 . S
C1429 H1432 0.929 . S
C1430 C1429 1.363 . S
C1430 C1436 1.428 . S
H1431 C1427 0.930 . S
H1432 C1429 0.929 . S
S1433 N1434 1.613 . S
S1433 N1435 1.610 . S
N1434 S1433 1.613 . S
N1434 C1437 1.350 . S
N1435 S1433 1.610 . S
N1435 C1436 1.351 . S
C1436 C1430 1.428 . S
C1436 N1435 1.351 . S
C1436 C1437 1.434 . S
C1437 C1428 1.429 . S
C1437 N1434 1.350 . S
C1437 C1436 1.434 . S
C1438 C1439 1.369 . S
C1438 C1440 1.419 . S
C1438 H1442 0.930 . S
C1439 C1438 1.369 . S
C1439 C1448 1.429 . S
C1440 C1438 1.419 . S
C1440 C1441 1.363 . S
C1440 H1443 0.929 . S
C1441 C1440 1.363 . S
C1441 C1447 1.428 . S
H1442 C1438 0.930 . S
H1443 C1440 0.929 . S
S1444 N1445 1.613 . S
S1444 N1446 1.610 . S
N1445 S1444 1.613 . S
N1445 C1448 1.350 . S
N1446 S1444 1.610 . S
N1446 C1447 1.351 . S
C1447 C1441 1.428 . S
C1447 N1446 1.351 . S
C1447 C1448 1.434 . S
C1448 C1439 1.429 . S
C1448 N1445 1.350 . S
C1448 C1447 1.434 . S
C1449 C1450 1.369 . S
C1449 C1451 1.419 . S
C1449 H1453 0.930 . S
C1450 C1449 1.369 . S
C1450 C1459 1.429 . S
C1451 C1449 1.419 . S
C1451 C1452 1.363 . S
C1451 H1454 0.929 . S
C1452 C1451 1.363 . S
C1452 C1458 1.428 . S
H1453 C1449 0.930 . S
H1454 C1451 0.929 . S
S1455 N1456 1.613 . S
S1455 N1457 1.610 . S
N1456 S1455 1.613 . S
N1456 C1459 1.350 . S
N1457 S1455 1.610 . S
N1457 C1458 1.351 . S
C1458 C1452 1.428 . S
C1458 N1457 1.351 . S
C1458 C1459 1.434 . S
C1459 C1450 1.429 . S
C1459 N1456 1.350 . S
C1459 C1458 1.434 . S
C1460 C1461 1.369 . S
C1460 C1462 1.419 . S
C1460 H1464 0.930 . S
C1461 C1460 1.369 . S
C1461 C1470 1.429 . S
C1462 C1460 1.419 . S
C1462 C1463 1.363 . S
C1462 H1465 0.929 . S
C1463 C1462 1.363 . S
C1463 C1469 1.428 . S
H1464 C1460 0.930 . S
H1465 C1462 0.929 . S
S1466 N1467 1.613 . S
S1466 N1468 1.610 . S
N1467 S1466 1.613 . S
N1467 C1470 1.350 . S
N1468 S1466 1.610 . S
N1468 C1469 1.351 . S
C1469 C1463 1.428 . S
C1469 N1468 1.351 . S
C1469 C1470 1.434 . S
C1470 C1461 1.429 . S
C1470 N1467 1.350 . S
C1470 C1469 1.434 . S
C1471 C1472 1.369 . S
C1471 C1473 1.419 . S
C1471 H1475 0.930 . S
C1472 C1471 1.369 . S
C1472 C1481 1.429 . S
C1473 C1471 1.419 . S
C1473 C1474 1.363 . S
C1473 H1476 0.929 . S
C1474 C1473 1.363 . S
C1474 C1480 1.428 . S
H1475 C1471 0.930 . S
H1476 C1473 0.929 . S
S1477 N1478 1.613 . S
S1477 N1479 1.610 . S
N1478 S1477 1.613 . S
N1478 C1481 1.350 . S
N1479 S1477 1.610 . S
N1479 C1480 1.351 . S
C1480 C1474 1.428 . S
C1480 N1479 1.351 . S
C1480 C1481 1.434 . S
C1481 C1472 1.429 . S
C1481 N1478 1.350 . S
C1481 C1480 1.434 . S
C1482 C1483 1.369 . S
C1482 C1484 1.419 . S
C1482 H1486 0.930 . S
C1483 C1482 1.369 . S
C1483 C1492 1.429 . S
C1484 C1482 1.419 . S
C1484 C1485 1.363 . S
C1484 H1487 0.929 . S
C1485 C1484 1.363 . S
C1485 C1491 1.428 . S
H1486 C1482 0.930 . S
H1487 C1484 0.929 . S
S1488 N1489 1.613 . S
S1488 N1490 1.610 . S
N1489 S1488 1.613 . S
N1489 C1492 1.350 . S
N1490 S1488 1.610 . S
N1490 C1491 1.351 . S
C1491 C1485 1.428 . S
C1491 N1490 1.351 . S
C1491 C1492 1.434 . S
C1492 C1483 1.429 . S
C1492 N1489 1.350 . S
C1492 C1491 1.434 . S
C1493 C1494 1.369 . S
C1493 C1495 1.419 . S
C1493 H1497 0.930 . S
C1494 C1493 1.369 . S
C1494 C1503 1.429 . S
C1495 C1493 1.419 . S
C1495 C1496 1.363 . S
C1495 H1498 0.929 . S
C1496 C1495 1.363 . S
C1496 C1502 1.428 . S
H1497 C1493 0.930 . S
H1498 C1495 0.929 . S
S1499 N1500 1.613 . S
S1499 N1501 1.610 . S
N1500 S1499 1.613 . S
N1500 C1503 1.350 . S
N1501 S1499 1.610 . S
N1501 C1502 1.351 . S
C1502 C1496 1.428 . S
C1502 N1501 1.351 . S
C1502 C1503 1.434 . S
C1503 C1494 1.429 . S
C1503 N1500 1.350 . S
C1503 C1502 1.434 . S
C1504 C1505 1.369 . S
C1504 C1506 1.419 . S
C1504 H1508 0.930 . S
C1505 C1504 1.369 . S
C1505 C1514 1.429 . S
C1506 C1504 1.419 . S
C1506 C1507 1.363 . S
C1506 H1509 0.929 . S
C1507 C1506 1.363 . S
C1507 C1513 1.428 . S
H1508 C1504 0.930 . S
H1509 C1506 0.929 . S
S1510 N1511 1.613 . S
S1510 N1512 1.610 . S
N1511 S1510 1.613 . S
N1511 C1514 1.350 . S
N1512 S1510 1.610 . S
N1512 C1513 1.351 . S
C1513 C1507 1.428 . S
C1513 N1512 1.351 . S
C1513 C1514 1.434 . S
C1514 C1505 1.429 . S
C1514 N1511 1.350 . S
C1514 C1513 1.434 . S
C1515 C1516 1.369 . S
C1515 C1517 1.419 . S
C1515 H1519 0.930 . S
C1516 C1515 1.369 . S
C1516 C1525 1.429 . S
C1517 C1515 1.419 . S
C1517 C1518 1.363 . S
C1517 H1520 0.929 . S
C1518 C1517 1.363 . S
C1518 C1524 1.428 . S
H1519 C1515 0.930 . S
H1520 C1517 0.929 . S
S1521 N1522 1.613 . S
S1521 N1523 1.610 . S
N1522 S1521 1.613 . S
N1522 C1525 1.350 . S
N1523 S1521 1.610 . S
N1523 C1524 1.351 . S
C1524 C1518 1.428 . S
C1524 N1523 1.351 . S
C1524 C1525 1.434 . S
C1525 C1516 1.429 . S
C1525 N1522 1.350 . S
C1525 C1524 1.434 . S
C1526 C1527 1.369 . S
C1526 C1528 1.419 . S
C1526 H1530 0.930 1_554 S
C1527 C1526 1.369 . S
C1527 C1536 1.429 . S
C1528 C1526 1.419 . S
C1528 C1529 1.363 . S
C1528 H1531 0.929 . S
C1529 C1528 1.363 . S
C1529 C1535 1.428 . S
H1530 C1526 0.930 1_556 S
H1531 C1528 0.929 . S
S1532 N1533 1.613 . S
S1532 N1534 1.610 . S
N1533 S1532 1.613 . S
N1533 C1536 1.350 . S
N1534 S1532 1.610 . S
N1534 C1535 1.351 . S
C1535 C1529 1.428 . S
C1535 N1534 1.351 . S
C1535 C1536 1.434 . S
C1536 C1527 1.429 . S
C1536 N1533 1.350 . S
C1536 C1535 1.434 . S
C1537 C1538 1.369 . S
C1537 C1539 1.419 . S
C1537 H1541 0.930 . S
C1538 C1537 1.369 . S
C1538 C1547 1.429 . S
C1539 C1537 1.419 . S
C1539 C1540 1.363 . S
C1539 H1542 0.929 . S
C1540 C1539 1.363 . S
C1540 C1546 1.428 . S
H1541 C1537 0.930 . S
H1542 C1539 0.929 . S
S1543 N1544 1.591 1_655 S
S1543 N1545 1.610 . S
N1544 S1543 1.591 1_455 S
N1544 C1547 1.346 1_455 S
N1545 S1543 1.610 . S
N1545 C1546 1.351 . S
C1546 C1540 1.428 . S
C1546 N1545 1.351 . S
C1546 C1547 1.434 . S
C1547 C1538 1.429 . S
C1547 N1544 1.346 1_655 S
C1547 C1546 1.434 . S
C1548 C1549 1.369 . S
C1548 C1550 1.419 . S
C1548 H1552 0.930 . S
C1549 C1548 1.369 . S
C1549 C1558 1.429 . S
C1550 C1548 1.419 . S
C1550 C1551 1.363 . S
C1550 H1553 0.929 . S
C1551 C1550 1.363 . S
C1551 C1557 1.428 . S
H1552 C1548 0.930 . S
H1553 C1550 0.929 . S
S1554 N1555 1.613 . S
S1554 N1556 1.610 . S
N1555 S1554 1.613 . S
N1555 C1558 1.350 . S
N1556 S1554 1.610 . S
N1556 C1557 1.351 . S
C1557 C1551 1.428 . S
C1557 N1556 1.351 . S
C1557 C1558 1.434 . S
C1558 C1549 1.429 . S
C1558 N1555 1.350 . S
C1558 C1557 1.434 . S
C1559 C1560 1.369 . S
C1559 C1561 1.419 . S
C1559 H1563 0.930 . S
C1560 C1559 1.369 . S
C1560 C1569 1.429 . S
C1561 C1559 1.419 . S
C1561 C1562 1.363 . S
C1561 H1564 0.929 . S
C1562 C1561 1.363 . S
C1562 C1568 1.428 . S
H1563 C1559 0.930 . S
H1564 C1561 0.929 . S
S1565 N1566 1.613 . S
S1565 N1567 1.610 . S
N1566 S1565 1.613 . S
N1566 C1569 1.350 . S
N1567 S1565 1.610 . S
N1567 C1568 1.351 . S
C1568 C1562 1.428 . S
C1568 N1567 1.351 . S
C1568 C1569 1.434 . S
C1569 C1560 1.429 . S
C1569 N1566 1.350 . S
C1569 C1568 1.434 . S
C1570 C1571 1.369 . S
C1570 C1572 1.419 . S
C1570 H1574 0.930 . S
C1571 C1570 1.369 . S
C1571 C1580 1.429 . S
C1572 C1570 1.419 . S
C1572 C1573 1.363 . S
C1572 H1575 0.929 . S
C1573 C1572 1.363 . S
C1573 C1579 1.428 . S
H1574 C1570 0.930 . S
H1575 C1572 0.929 . S
S1576 N1577 1.613 1_655 S
S1576 N1578 1.610 1_655 S
N1577 S1576 1.613 1_455 S
N1577 C1580 1.350 . S
N1578 S1576 1.610 1_455 S
N1578 C1579 1.351 . S
C1579 C1573 1.428 . S
C1579 N1578 1.351 . S
C1579 C1580 1.434 . S
C1580 C1571 1.429 . S
C1580 N1577 1.350 . S
C1580 C1579 1.434 . S
C1581 C1582 1.369 . S
C1581 C1583 1.419 . S
C1581 H1585 0.930 . S
C1582 C1581 1.369 . S
C1582 C1591 1.429 . S
C1583 C1581 1.419 . S
C1583 C1584 1.363 . S
C1583 H1586 0.929 . S
C1584 C1583 1.363 . S
C1584 C1590 1.428 . S
H1585 C1581 0.930 . S
H1586 C1583 0.929 . S
S1587 N1588 1.613 . S
S1587 N1589 1.610 . S
N1588 S1587 1.613 . S
N1588 C1591 1.350 . S
N1589 S1587 1.610 . S
N1589 C1590 1.351 . S
C1590 C1584 1.428 . S
C1590 N1589 1.351 . S
C1590 C1591 1.434 . S
C1591 C1582 1.429 . S
C1591 N1588 1.350 . S
C1591 C1590 1.434 . S
C1592 C1593 1.369 . S
C1592 C1594 1.419 . S
C1592 H1596 0.930 . S
C1593 C1592 1.369 . S
C1593 C1602 1.429 . S
C1594 C1592 1.419 . S
C1594 C1595 1.363 . S
C1594 H1597 0.929 . S
C1595 C1594 1.363 . S
C1595 C1601 1.428 . S
H1596 C1592 0.930 . S
H1597 C1594 0.929 . S
S1598 N1599 1.613 . S
S1598 N1600 1.610 . S
N1599 S1598 1.613 . S
N1599 C1602 1.350 . S
N1600 S1598 1.610 . S
N1600 C1601 1.351 . S
C1601 C1595 1.428 . S
C1601 N1600 1.351 . S
C1601 C1602 1.434 . S
C1602 C1593 1.429 . S
C1602 N1599 1.350 . S
C1602 C1601 1.434 . S
C1603 C1604 1.369 . S
C1603 C1605 1.419 . S
C1603 H1607 0.930 . S
C1604 C1603 1.369 . S
C1604 C1613 1.429 . S
C1605 C1603 1.419 . S
C1605 C1606 1.363 . S
C1605 H1608 0.929 . S
C1606 C1605 1.363 . S
C1606 C1612 1.428 . S
H1607 C1603 0.930 . S
H1608 C1605 0.929 . S
S1609 N1610 1.613 . S
S1609 N1611 1.610 . S
N1610 S1609 1.613 . S
N1610 C1613 1.350 . S
N1611 S1609 1.610 . S
N1611 C1612 1.351 . S
C1612 C1606 1.428 . S
C1612 N1611 1.351 . S
C1612 C1613 1.434 . S
C1613 C1604 1.429 . S
C1613 N1610 1.350 . S
C1613 C1612 1.434 . S
C1614 C1615 1.369 . S
C1614 C1616 1.419 . S
C1614 H1618 0.930 . S
C1615 C1614 1.369 . S
C1615 C1624 1.429 . S
C1616 C1614 1.419 . S
C1616 C1617 1.363 . S
C1616 H1619 0.929 . S
C1617 C1616 1.363 . S
C1617 C1623 1.428 . S
H1618 C1614 0.930 . S
H1619 C1616 0.929 . S
S1620 N1621 1.613 . S
S1620 N1622 1.610 . S
N1621 S1620 1.613 . S
N1621 C1624 1.350 . S
N1622 S1620 1.610 . S
N1622 C1623 1.351 . S
C1623 C1617 1.428 . S
C1623 N1622 1.351 . S
C1623 C1624 1.434 . S
C1624 C1615 1.429 . S
C1624 N1621 1.350 . S
C1624 C1623 1.434 . S
C1625 C1626 1.369 . S
C1625 C1627 1.419 . S
C1625 H1629 0.930 . S
C1626 C1625 1.369 . S
C1626 C1635 1.429 . S
C1627 C1625 1.419 . S
C1627 C1628 1.363 . S
C1627 H1630 0.929 . S
C1628 C1627 1.363 . S
C1628 C1634 1.428 . S
H1629 C1625 0.930 . S
H1630 C1627 0.929 . S
S1631 N1632 1.613 . S
S1631 N1633 1.610 . S
N1632 S1631 1.613 . S
N1632 C1635 1.350 . S
N1633 S1631 1.610 . S
N1633 C1634 1.351 . S
C1634 C1628 1.428 . S
C1634 N1633 1.351 . S
C1634 C1635 1.434 . S
C1635 C1626 1.429 . S
C1635 N1632 1.350 . S
C1635 C1634 1.434 . S
C1636 C1637 1.369 . S
C1636 C1638 1.419 . S
C1636 H1640 0.930 . S
C1637 C1636 1.369 . S
C1637 C1646 1.429 . S
C1638 C1636 1.419 . S
C1638 C1639 1.363 . S
C1638 H1641 0.929 . S
C1639 C1638 1.363 . S
C1639 C1645 1.428 . S
H1640 C1636 0.930 . S
H1641 C1638 0.929 . S
S1642 N1643 1.613 . S
S1642 N1644 1.610 . S
N1643 S1642 1.613 . S
N1643 C1646 1.350 . S
N1644 S1642 1.610 . S
N1644 C1645 1.351 . S
C1645 C1639 1.428 . S
C1645 N1644 1.351 . S
C1645 C1646 1.434 . S
C1646 C1637 1.429 . S
C1646 N1643 1.350 . S
C1646 C1645 1.434 . S
C1647 C1648 1.369 . S
C1647 C1649 1.419 . S
C1647 H1651 0.930 . S
C1648 C1647 1.369 . S
C1648 C1657 1.429 . S
C1649 C1647 1.419 . S
C1649 C1650 1.363 . S
C1649 H1652 0.929 . S
C1650 C1649 1.363 . S
C1650 C1656 1.428 . S
H1651 C1647 0.930 . S
H1652 C1649 0.929 . S
S1653 N1654 1.613 . S
S1653 N1655 1.610 . S
N1654 S1653 1.613 . S
N1654 C1657 1.350 . S
N1655 S1653 1.610 . S
N1655 C1656 1.351 . S
C1656 C1650 1.428 . S
C1656 N1655 1.351 . S
C1656 C1657 1.434 . S
C1657 C1648 1.429 . S
C1657 N1654 1.350 . S
C1657 C1656 1.434 . S
C1658 C1659 1.369 . S
C1658 C1660 1.419 . S
C1658 H1662 0.930 . S
C1659 C1658 1.369 . S
C1659 C1668 1.429 . S
C1660 C1658 1.419 . S
C1660 C1661 1.363 . S
C1660 H1663 0.929 . S
C1661 C1660 1.363 . S
C1661 C1667 1.428 . S
H1662 C1658 0.930 . S
H1663 C1660 0.929 . S
S1664 N1665 1.613 . S
S1664 N1666 1.610 . S
N1665 S1664 1.613 . S
N1665 C1668 1.350 . S
N1666 S1664 1.610 . S
N1666 C1667 1.351 . S
C1667 C1661 1.428 . S
C1667 N1666 1.351 . S
C1667 C1668 1.434 . S
C1668 C1659 1.429 . S
C1668 N1665 1.350 . S
C1668 C1667 1.434 . S
C1669 C1670 1.369 . S
C1669 C1671 1.419 . S
C1669 H1673 0.930 . S
C1670 C1669 1.369 . S
C1670 C1679 1.429 . S
C1671 C1669 1.419 . S
C1671 C1672 1.363 . S
C1671 H1674 0.929 . S
C1672 C1671 1.363 . S
C1672 C1678 1.428 . S
H1673 C1669 0.930 . S
H1674 C1671 0.929 . S
S1675 N1676 1.613 . S
S1675 N1677 1.610 . S
N1676 S1675 1.613 . S
N1676 C1679 1.350 . S
N1677 S1675 1.610 . S
N1677 C1678 1.351 . S
C1678 C1672 1.428 . S
C1678 N1677 1.351 . S
C1678 C1679 1.434 . S
C1679 C1670 1.429 . S
C1679 N1676 1.350 . S
C1679 C1678 1.434 . S
C1680 C1681 1.369 . S
C1680 C1682 1.419 . S
C1680 H1684 0.930 . S
C1681 C1680 1.369 . S
C1681 C1690 1.429 . S
C1682 C1680 1.419 . S
C1682 C1683 1.363 . S
C1682 H1685 0.929 . S
C1683 C1682 1.363 . S
C1683 C1689 1.428 . S
H1684 C1680 0.930 . S
H1685 C1682 0.929 . S
S1686 N1687 1.613 . S
S1686 N1688 1.610 . S
N1687 S1686 1.613 . S
N1687 C1690 1.350 . S
N1688 S1686 1.610 . S
N1688 C1689 1.351 . S
C1689 C1683 1.428 . S
C1689 N1688 1.351 . S
C1689 C1690 1.434 . S
C1690 C1681 1.429 . S
C1690 N1687 1.350 . S
C1690 C1689 1.434 . S
C1691 C1692 1.369 . S
C1691 C1693 1.419 . S
C1691 H1695 0.930 . S
C1692 C1691 1.369 . S
C1692 C1701 1.429 . S
C1693 C1691 1.419 . S
C1693 C1694 1.363 . S
C1693 H1696 0.929 . S
C1694 C1693 1.363 . S
C1694 C1700 1.428 . S
H1695 C1691 0.930 . S
H1696 C1693 0.929 . S
S1697 N1698 1.613 . S
S1697 N1699 1.610 . S
N1698 S1697 1.613 . S
N1698 C1701 1.350 . S
N1699 S1697 1.610 . S
N1699 C1700 1.351 . S
C1700 C1694 1.428 . S
C1700 N1699 1.351 . S
C1700 C1701 1.434 . S
C1701 C1692 1.429 . S
C1701 N1698 1.350 . S
C1701 C1700 1.434 . S
C1702 C1703 1.369 1_545 S
C1702 C1704 1.419 1_545 S
C1702 H1706 0.930 . S
C1703 C1702 1.369 1_565 S
C1703 C1712 1.429 . S
C1704 C1702 1.419 1_565 S
C1704 C1705 1.363 . S
C1704 H1707 0.929 . S
C1705 C1704 1.363 . S
C1705 C1711 1.428 . S
H1706 C1702 0.930 . S
H1707 C1704 0.929 . S
S1708 N1709 1.613 . S
S1708 N1710 1.610 . S
N1709 S1708 1.613 . S
N1709 C1712 1.350 . S
N1710 S1708 1.610 . S
N1710 C1711 1.351 . S
C1711 C1705 1.428 . S
C1711 N1710 1.351 . S
C1711 C1712 1.434 . S
C1712 C1703 1.429 . S
C1712 N1709 1.350 . S
C1712 C1711 1.434 . S
C1713 C1714 1.369 1_556 S
C1713 C1715 1.419 1_556 S
C1713 H1717 0.930 . S
C1714 C1713 1.369 1_554 S
C1714 C1723 1.429 . S
C1715 C1713 1.419 1_554 S
C1715 C1716 1.363 . S
C1715 H1718 0.929 1_554 S
C1716 C1715 1.363 . S
C1716 C1722 1.428 . S
H1717 C1713 0.930 . S
H1718 C1715 0.929 1_556 S
S1719 N1720 1.613 . S
S1719 N1721 1.610 . S
N1720 S1719 1.613 . S
N1720 C1723 1.350 . S
N1721 S1719 1.610 . S
N1721 C1722 1.351 . S
C1722 C1716 1.428 . S
C1722 N1721 1.351 . S
C1722 C1723 1.434 . S
C1723 C1714 1.429 . S
C1723 N1720 1.350 . S
C1723 C1722 1.434 . S
C1724 C1725 1.369 . S
C1724 C1726 1.419 . S
C1724 H1728 0.930 . S
C1725 C1724 1.369 . S
C1725 C1734 1.429 . S
C1726 C1724 1.419 . S
C1726 C1727 1.363 . S
C1726 H1729 0.929 . S
C1727 C1726 1.363 . S
C1727 C1733 1.428 . S
H1728 C1724 0.930 . S
H1729 C1726 0.929 . S
S1730 N1731 1.613 . S
S1730 N1732 1.610 . S
N1731 S1730 1.613 . S
N1731 C1734 1.350 . S
N1732 S1730 1.610 . S
N1732 C1733 1.351 . S
C1733 C1727 1.428 . S
C1733 N1732 1.351 . S
C1733 C1734 1.434 . S
C1734 C1725 1.429 . S
C1734 N1731 1.350 . S
C1734 C1733 1.434 . S
C1735 C1736 1.369 . S
C1735 C1737 1.419 . S
C1735 H1739 0.930 . S
C1736 C1735 1.369 . S
C1736 C1745 1.429 . S
C1737 C1735 1.419 . S
C1737 C1738 1.363 . S
C1737 H1740 0.929 . S
C1738 C1737 1.363 . S
C1738 C1744 1.428 . S
H1739 C1735 0.930 . S
H1740 C1737 0.929 . S
S1741 N1742 1.613 . S
S1741 N1743 1.610 . S
N1742 S1741 1.613 . S
N1742 C1745 1.350 . S
N1743 S1741 1.610 . S
N1743 C1744 1.351 . S
C1744 C1738 1.428 . S
C1744 N1743 1.351 . S
C1744 C1745 1.434 . S
C1745 C1736 1.429 . S
C1745 N1742 1.350 . S
C1745 C1744 1.434 . S
C1746 C1747 1.369 . S
C1746 C1748 1.419 . S
C1746 H1750 0.930 . S
C1747 C1746 1.369 . S
C1747 C1756 1.429 . S
C1748 C1746 1.419 . S
C1748 C1749 1.363 . S
C1748 H1751 0.929 . S
C1749 C1748 1.363 . S
C1749 C1755 1.428 . S
H1750 C1746 0.930 . S
H1751 C1748 0.929 . S
S1752 N1753 1.613 . S
S1752 N1754 1.610 . S
N1753 S1752 1.613 . S
N1753 C1756 1.350 . S
N1754 S1752 1.610 . S
N1754 C1755 1.351 . S
C1755 C1749 1.428 . S
C1755 N1754 1.351 . S
C1755 C1756 1.434 . S
C1756 C1747 1.429 . S
C1756 N1753 1.350 . S
C1756 C1755 1.434 . S
C1757 C1758 1.369 . S
C1757 C1759 1.419 . S
C1757 H1761 0.930 . S
C1758 C1757 1.369 . S
C1758 C1767 1.429 . S
C1759 C1757 1.419 . S
C1759 C1760 1.363 . S
C1759 H1762 0.929 . S
C1760 C1759 1.363 . S
C1760 C1766 1.428 . S
H1761 C1757 0.930 . S
H1762 C1759 0.929 . S
S1763 N1764 1.613 . S
S1763 N1765 1.610 . S
N1764 S1763 1.613 . S
N1764 C1767 1.350 . S
N1765 S1763 1.610 . S
N1765 C1766 1.351 . S
C1766 C1760 1.428 . S
C1766 N1765 1.351 . S
C1766 C1767 1.434 . S
C1767 C1758 1.429 . S
C1767 N1764 1.350 . S
C1767 C1766 1.434 . S
C1768 C1769 1.369 . S
C1768 C1770 1.419 . S
C1768 H1772 0.930 . S
C1769 C1768 1.369 . S
C1769 C1778 1.429 . S
C1770 C1768 1.419 . S
C1770 C1771 1.363 . S
C1770 H1773 0.929 . S
C1771 C1770 1.363 . S
C1771 C1777 1.428 . S
H1772 C1768 0.930 . S
H1773 C1770 0.929 . S
S1774 N1775 1.613 . S
S1774 N1776 1.610 . S
N1775 S1774 1.613 . S
N1775 C1778 1.350 . S
N1776 S1774 1.610 . S
N1776 C1777 1.351 . S
C1777 C1771 1.428 . S
C1777 N1776 1.351 . S
C1777 C1778 1.434 . S
C1778 C1769 1.429 . S
C1778 N1775 1.350 . S
C1778 C1777 1.434 . S
C1779 C1780 1.369 . S
C1779 C1781 1.419 . S
C1779 H1783 0.930 . S
C1780 C1779 1.369 . S
C1780 C1789 1.429 . S
C1781 C1779 1.419 . S
C1781 C1782 1.363 . S
C1781 H1784 0.929 . S
C1782 C1781 1.363 . S
C1782 C1788 1.428 . S
H1783 C1779 0.930 . S
H1784 C1781 0.929 . S
S1785 N1786 1.613 . S
S1785 N1787 1.610 . S
N1786 S1785 1.613 . S
N1786 C1789 1.350 . S
N1787 S1785 1.610 . S
N1787 C1788 1.351 . S
C1788 C1782 1.428 . S
C1788 N1787 1.351 . S
C1788 C1789 1.434 . S
C1789 C1780 1.429 . S
C1789 N1786 1.350 . S
C1789 C1788 1.434 . S
C1790 C1791 1.369 . S
C1790 C1792 1.419 . S
C1790 H1794 0.930 . S
C1791 C1790 1.369 . S
C1791 C1800 1.429 . S
C1792 C1790 1.419 . S
C1792 C1793 1.363 . S
C1792 H1795 0.929 . S
C1793 C1792 1.363 . S
C1793 C1799 1.428 . S
H1794 C1790 0.930 . S
H1795 C1792 0.929 . S
S1796 N1797 1.613 . S
S1796 N1798 1.610 . S
N1797 S1796 1.613 . S
N1797 C1800 1.350 . S
N1798 S1796 1.610 . S
N1798 C1799 1.351 . S
C1799 C1793 1.428 . S
C1799 N1798 1.351 . S
C1799 C1800 1.434 . S
C1800 C1791 1.429 . S
C1800 N1797 1.350 . S
C1800 C1799 1.434 . S
C1801 C1802 1.369 . S
C1801 C1803 1.419 . S
C1801 H1805 0.930 . S
C1802 C1801 1.369 . S
C1802 C1811 1.429 . S
C1803 C1801 1.419 . S
C1803 C1804 1.363 . S
C1803 H1806 0.929 . S
C1804 C1803 1.363 . S
C1804 C1810 1.428 . S
H1805 C1801 0.930 . S
H1806 C1803 0.929 . S
S1807 N1808 1.613 . S
S1807 N1809 1.610 . S
N1808 S1807 1.613 . S
N1808 C1811 1.350 . S
N1809 S1807 1.610 . S
N1809 C1810 1.351 . S
C1810 C1804 1.428 . S
C1810 N1809 1.351 . S
C1810 C1811 1.434 . S
C1811 C1802 1.429 . S
C1811 N1808 1.350 . S
C1811 C1810 1.434 . S
C1812 C1813 1.369 . S
C1812 C1814 1.419 . S
C1812 H1816 0.930 . S
C1813 C1812 1.369 . S
C1813 C1822 1.429 . S
C1814 C1812 1.419 . S
C1814 C1815 1.363 . S
C1814 H1817 0.914 1_556 S
C1815 C1814 1.363 . S
C1815 C1821 1.428 . S
H1816 C1812 0.930 . S
H1817 C1814 0.914 1_554 S
S1818 N1819 1.613 . S
S1818 N1820 1.610 . S
N1819 S1818 1.613 . S
N1819 C1822 1.350 . S
N1820 S1818 1.610 . S
N1820 C1821 1.351 . S
C1821 C1815 1.428 . S
C1821 N1820 1.351 . S
C1821 C1822 1.434 . S
C1822 C1813 1.429 . S
C1822 N1819 1.350 . S
C1822 C1821 1.434 . S
C1823 C1824 1.369 . S
C1823 C1825 1.419 . S
C1823 H1827 0.930 . S
C1824 C1823 1.369 . S
C1824 C1833 1.429 . S
C1825 C1823 1.419 . S
C1825 C1826 1.363 . S
C1825 H1828 0.929 . S
C1826 C1825 1.363 . S
C1826 C1832 1.428 . S
H1827 C1823 0.930 . S
H1828 C1825 0.929 . S
S1829 N1830 1.613 . S
S1829 N1831 1.610 . S
N1830 S1829 1.613 . S
N1830 C1833 1.350 . S
N1831 S1829 1.610 . S
N1831 C1832 1.351 . S
C1832 C1826 1.428 . S
C1832 N1831 1.351 . S
C1832 C1833 1.434 . S
C1833 C1824 1.429 . S
C1833 N1830 1.350 . S
C1833 C1832 1.434 . S
C1834 C1835 1.369 . S
C1834 C1836 1.419 . S
C1834 H1838 0.930 1_455 S
C1835 C1834 1.369 . S
C1835 C1844 1.429 . S
C1836 C1834 1.419 . S
C1836 C1837 1.363 . S
C1836 H1839 0.958 . S
C1837 C1836 1.363 . S
C1837 C1843 1.428 . S
H1838 C1834 0.930 1_655 S
H1839 C1836 0.958 . S
S1840 N1841 1.613 . S
S1840 N1842 1.610 . S
N1841 S1840 1.613 . S
N1841 C1844 1.350 . S
N1842 S1840 1.610 . S
N1842 C1843 1.351 . S
C1843 C1837 1.428 . S
C1843 N1842 1.351 . S
C1843 C1844 1.434 . S
C1844 C1835 1.429 . S
C1844 N1841 1.350 . S
C1844 C1843 1.434 . S
C1845 C1846 1.369 . S
C1845 C1847 1.419 . S
C1845 H1849 0.930 . S
C1846 C1845 1.369 . S
C1846 C1855 1.429 . S
C1847 C1845 1.419 . S
C1847 C1848 1.363 . S
C1847 H1850 0.929 . S
C1848 C1847 1.363 . S
C1848 C1854 1.428 . S
H1849 C1845 0.930 . S
H1850 C1847 0.929 . S
S1851 N1852 1.613 . S
S1851 N1853 1.610 . S
N1852 S1851 1.613 . S
N1852 C1855 1.350 . S
N1853 S1851 1.610 . S
N1853 C1854 1.351 . S
C1854 C1848 1.428 . S
C1854 N1853 1.351 . S
C1854 C1855 1.434 . S
C1855 C1846 1.429 . S
C1855 N1852 1.350 . S
C1855 C1854 1.434 . S
C1856 C1857 1.369 . S
C1856 C1858 1.419 . S
C1856 H1860 0.930 . S
C1857 C1856 1.369 . S
C1857 C1866 1.429 . S
C1858 C1856 1.419 . S
C1858 C1859 1.363 . S
C1858 H1861 0.929 . S
C1859 C1858 1.363 . S
C1859 C1865 1.428 . S
H1860 C1856 0.930 . S
H1861 C1858 0.929 . S
S1862 N1863 1.613 . S
S1862 N1864 1.610 . S
N1863 S1862 1.613 . S
N1863 C1866 1.350 . S
N1864 S1862 1.610 . S
N1864 C1865 1.351 . S
C1865 C1859 1.428 . S
C1865 N1864 1.351 . S
C1865 C1866 1.434 . S
C1866 C1857 1.429 . S
C1866 N1863 1.350 . S
C1866 C1865 1.434 . S
C1867 C1868 1.369 . S
C1867 C1869 1.419 . S
C1867 H1871 0.930 . S
C1868 C1867 1.369 . S
C1868 C1877 1.429 . S
C1869 C1867 1.419 . S
C1869 C1870 1.363 . S
C1869 H1872 0.929 . S
C1870 C1869 1.363 . S
C1870 C1876 1.428 . S
H1871 C1867 0.930 . S
H1872 C1869 0.929 . S
S1873 N1874 1.613 . S
S1873 N1875 1.610 . S
N1874 S1873 1.613 . S
N1874 C1877 1.350 . S
N1875 S1873 1.610 . S
N1875 C1876 1.351 . S
C1876 C1870 1.428 . S
C1876 N1875 1.351 . S
C1876 C1877 1.434 . S
C1877 C1868 1.429 . S
C1877 N1874 1.350 . S
C1877 C1876 1.434 . S
C1878 C1879 1.369 . S
C1878 C1880 1.419 1_655 S
C1878 H1882 0.930 . S
C1879 C1878 1.369 . S
C1879 C1888 1.429 . S
C1880 C1878 1.419 1_455 S
C1880 C1881 1.363 1_455 S
C1880 H1883 0.929 . S
C1881 C1880 1.363 1_655 S
C1881 C1887 1.428 . S
H1882 C1878 0.930 . S
H1883 C1880 0.929 . S
S1884 N1885 1.613 . S
S1884 N1886 1.605 1_556 S
N1885 S1884 1.613 . S
N1885 C1888 1.350 . S
N1886 S1884 1.605 1_554 S
N1886 C1887 1.329 1_554 S
C1887 C1881 1.428 . S
C1887 N1886 1.329 1_556 S
C1887 C1888 1.434 . S
C1888 C1879 1.429 . S
C1888 N1885 1.350 . S
C1888 C1887 1.434 . S
C1889 C1890 1.369 . S
C1889 C1891 1.419 . S
C1889 H1893 0.930 . S
C1890 C1889 1.369 . S
C1890 C1899 1.429 . S
C1891 C1889 1.419 . S
C1891 C1892 1.363 . S
C1891 H1894 0.929 . S
C1892 C1891 1.363 . S
C1892 C1898 1.428 . S
H1893 C1889 0.930 . S
H1894 C1891 0.929 . S
S1895 N1896 1.613 . S
S1895 N1897 1.610 . S
N1896 S1895 1.613 . S
N1896 C1899 1.350 . S
N1897 S1895 1.610 . S
N1897 C1898 1.351 . S
C1898 C1892 1.428 . S
C1898 N1897 1.351 . S
C1898 C1899 1.434 . S
C1899 C1890 1.429 . S
C1899 N1896 1.350 . S
C1899 C1898 1.434 . S
C1900 C1901 1.369 . S
C1900 C1902 1.419 . S
C1900 H1904 0.930 . S
C1901 C1900 1.369 . S
C1901 C1910 1.429 . S
C1902 C1900 1.419 . S
C1902 C1903 1.363 . S
C1902 H1905 0.929 . S
C1903 C1902 1.363 . S
C1903 C1909 1.428 . S
H1904 C1900 0.930 . S
H1905 C1902 0.929 . S
S1906 N1907 1.613 . S
S1906 N1908 1.610 . S
N1907 S1906 1.613 . S
N1907 C1910 1.350 . S
N1908 S1906 1.610 . S
N1908 C1909 1.351 . S
C1909 C1903 1.428 . S
C1909 N1908 1.351 . S
C1909 C1910 1.434 . S
C1910 C1901 1.429 . S
C1910 N1907 1.350 . S
C1910 C1909 1.434 . S
C1911 C1912 1.369 . S
C1911 C1913 1.419 . S
C1911 H1915 0.930 . S
C1912 C1911 1.369 . S
C1912 C1921 1.429 . S
C1913 C1911 1.419 . S
C1913 C1914 1.363 . S
C1913 H1916 0.929 . S
C1914 C1913 1.363 . S
C1914 C1920 1.428 . S
H1915 C1911 0.930 . S
H1916 C1913 0.929 . S
S1917 N1918 1.613 . S
S1917 N1919 1.610 . S
N1918 S1917 1.613 . S
N1918 C1921 1.350 . S
N1919 S1917 1.610 . S
N1919 C1920 1.351 . S
C1920 C1914 1.428 . S
C1920 N1919 1.351 . S
C1920 C1921 1.434 . S
C1921 C1912 1.429 . S
C1921 N1918 1.350 . S
C1921 C1920 1.434 . S
C1922 C1923 1.369 . S
C1922 C1924 1.419 . S
C1922 H1926 0.930 . S
C1923 C1922 1.369 . S
C1923 C1932 1.429 . S
C1924 C1922 1.419 . S
C1924 C1925 1.363 . S
C1924 H1927 0.929 1_655 S
C1925 C1924 1.363 . S
C1925 C1931 1.428 . S
H1926 C1922 0.930 . S
H1927 C1924 0.929 1_455 S
S1928 N1929 1.613 . S
S1928 N1930 1.610 . S
N1929 S1928 1.613 . S
N1929 C1932 1.350 . S
N1930 S1928 1.610 . S
N1930 C1931 1.351 . S
C1931 C1925 1.428 . S
C1931 N1930 1.351 . S
C1931 C1932 1.434 . S
C1932 C1923 1.429 . S
C1932 N1929 1.350 . S
C1932 C1931 1.434 . S
C1933 C1934 1.369 . S
C1933 C1935 1.419 . S
C1933 H1937 0.930 . S
C1934 C1933 1.369 . S
C1934 C1943 1.429 . S
C1935 C1933 1.419 . S
C1935 C1936 1.363 . S
C1935 H1938 0.929 . S
C1936 C1935 1.363 . S
C1936 C1942 1.428 . S
H1937 C1933 0.930 . S
H1938 C1935 0.929 . S
S1939 N1940 1.613 . S
S1939 N1941 1.610 . S
N1940 S1939 1.613 . S
N1940 C1943 1.350 . S
N1941 S1939 1.610 . S
N1941 C1942 1.351 . S
C1942 C1936 1.428 . S
C1942 N1941 1.351 . S
C1942 C1943 1.434 . S
C1943 C1934 1.429 . S
C1943 N1940 1.350 . S
C1943 C1942 1.434 . S
C1944 C1945 1.369 . S
C1944 C1946 1.419 . S
C1944 H1948 0.930 . S
C1945 C1944 1.369 . S
C1945 C1954 1.429 . S
C1946 C1944 1.419 . S
C1946 C1947 1.363 . S
C1946 H1949 0.929 . S
C1947 C1946 1.363 . S
C1947 C1953 1.428 . S
H1948 C1944 0.930 . S
H1949 C1946 0.929 . S
S1950 N1951 1.613 . S
S1950 N1952 1.610 . S
N1951 S1950 1.613 . S
N1951 C1954 1.350 . S
N1952 S1950 1.610 . S
N1952 C1953 1.351 . S
C1953 C1947 1.428 . S
C1953 N1952 1.351 . S
C1953 C1954 1.434 . S
C1954 C1945 1.429 . S
C1954 N1951 1.350 . S
C1954 C1953 1.434 . S
C1955 C1956 1.369 . S
C1955 C1957 1.419 . S
C1955 H1959 0.930 . S
C1956 C1955 1.369 . S
C1956 C1965 1.429 . S
C1957 C1955 1.419 . S
C1957 C1958 1.363 . S
C1957 H1960 0.929 . S
C1958 C1957 1.363 . S
C1958 C1964 1.428 . S
H1959 C1955 0.930 . S
H1960 C1957 0.929 . S
S1961 N1962 1.613 1_545 S
S1961 N1963 1.610 . S
N1962 S1961 1.613 1_565 S
N1962 C1965 1.350 . S
N1963 S1961 1.610 . S
N1963 C1964 1.351 1_545 S
C1964 C1958 1.428 . S
C1964 N1963 1.351 1_565 S
C1964 C1965 1.434 . S
C1965 C1956 1.429 . S
C1965 N1962 1.350 . S
C1965 C1964 1.434 . S
C1966 C1967 1.369 . S
C1966 C1968 1.419 . S
C1966 H1970 0.930 . S
C1967 C1966 1.369 . S
C1967 C1976 1.429 . S
C1968 C1966 1.419 . S
C1968 C1969 1.363 . S
C1968 H1971 0.929 . S
C1969 C1968 1.363 . S
C1969 C1975 1.428 . S
H1970 C1966 0.930 . S
H1971 C1968 0.929 . S
S1972 N1973 1.613 . S
S1972 N1974 1.610 . S
N1973 S1972 1.613 . S
N1973 C1976 1.350 . S
N1974 S1972 1.610 . S
N1974 C1975 1.351 . S
C1975 C1969 1.428 . S
C1975 N1974 1.351 . S
C1975 C1976 1.434 . S
C1976 C1967 1.429 . S
C1976 N1973 1.350 . S
C1976 C1975 1.434 . S
C1977 C1978 1.369 . S
C1977 C1979 1.419 . S
C1977 H1981 0.930 . S
C1978 C1977 1.369 . S
C1978 C1987 1.429 . S
C1979 C1977 1.419 . S
C1979 C1980 1.363 . S
C1979 H1982 0.929 . S
C1980 C1979 1.363 . S
C1980 C1986 1.428 . S
H1981 C1977 0.930 . S
H1982 C1979 0.929 . S
S1983 N1984 1.613 . S
S1983 N1985 1.610 . S
N1984 S1983 1.613 . S
N1984 C1987 1.350 . S
N1985 S1983 1.610 . S
N1985 C1986 1.351 . S
C1986 C1980 1.428 . S
C1986 N1985 1.351 . S
C1986 C1987 1.434 . S
C1987 C1978 1.429 . S
C1987 N1984 1.350 . S
C1987 C1986 1.434 . S
C1988 C1989 1.369 . S
C1988 C1990 1.419 . S
C1988 H1992 0.930 . S
C1989 C1988 1.369 . S
C1989 C1998 1.429 . S
C1990 C1988 1.419 . S
C1990 C1991 1.363 . S
C1990 H1993 0.929 . S
C1991 C1990 1.363 . S
C1991 C1997 1.428 . S
H1992 C1988 0.930 . S
H1993 C1990 0.929 . S
S1994 N1995 1.613 . S
S1994 N1996 1.610 . S
N1995 S1994 1.613 . S
N1995 C1998 1.350 . S
N1996 S1994 1.610 . S
N1996 C1997 1.351 . S
C1997 C1991 1.428 . S
C1997 N1996 1.351 . S
C1997 C1998 1.434 . S
C1998 C1989 1.429 . S
C1998 N1995 1.350 . S
C1998 C1997 1.434 . S
C1999 C2000 1.369 . S
C1999 C2001 1.419 . S
C1999 H2003 0.930 . S
C2000 C1999 1.369 . S
C2000 C2009 1.429 . S
C2001 C1999 1.419 . S
C2001 C2002 1.363 . S
C2001 H2004 0.929 . S
C2002 C2001 1.363 . S
C2002 C2008 1.428 . S
H2003 C1999 0.930 . S
H2004 C2001 0.929 . S
S2005 N2006 1.613 . S
S2005 N2007 1.610 . S
N2006 S2005 1.613 . S
N2006 C2009 1.350 . S
N2007 S2005 1.610 . S
N2007 C2008 1.351 . S
C2008 C2002 1.428 . S
C2008 N2007 1.351 . S
C2008 C2009 1.434 . S
C2009 C2000 1.429 . S
C2009 N2006 1.350 . S
C2009 C2008 1.434 . S
C2010 C2011 1.369 . S
C2010 C2012 1.419 . S
C2010 H2014 0.930 . S
C2011 C2010 1.369 . S
C2011 C2020 1.429 . S
C2012 C2010 1.419 . S
C2012 C2013 1.363 . S
C2012 H2015 0.929 . S
C2013 C2012 1.363 . S
C2013 C2019 1.428 . S
H2014 C2010 0.930 . S
H2015 C2012 0.929 . S
S2016 N2017 1.613 . S
S2016 N2018 1.610 . S
N2017 S2016 1.613 . S
N2017 C2020 1.350 . S
N2018 S2016 1.610 . S
N2018 C2019 1.351 . S
C2019 C2013 1.428 . S
C2019 N2018 1.351 . S
C2019 C2020 1.434 . S
C2020 C2011 1.429 . S
C2020 N2017 1.350 . S
C2020 C2019 1.434 . S
C2021 C2022 1.369 . S
C2021 C2023 1.419 . S
C2021 H2025 0.930 . S
C2022 C2021 1.369 . S
C2022 C2031 1.429 . S
C2023 C2021 1.419 . S
C2023 C2024 1.363 . S
C2023 H2026 0.929 . S
C2024 C2023 1.363 . S
C2024 C2030 1.428 . S
H2025 C2021 0.930 . S
H2026 C2023 0.929 . S
S2027 N2028 1.613 . S
S2027 N2029 1.610 . S
N2028 S2027 1.613 . S
N2028 C2031 1.350 . S
N2029 S2027 1.610 . S
N2029 C2030 1.351 . S
C2030 C2024 1.428 . S
C2030 N2029 1.351 . S
C2030 C2031 1.434 . S
C2031 C2022 1.429 . S
C2031 N2028 1.350 . S
C2031 C2030 1.434 . S
C977 C109 2.382 . S
C979 C346 2.285 . S
C988 C65 2.052 . S
C990 C394 2.039 . S
C999 C75 1.512 . S
C1001 C426 1.500 . S
C1012 C471 1.659 . S
C1010 C84 1.721 . S
C1021 C25 0.938 . S
C1023 C511 0.927 . S
C1034 C546 1.169 . S
C1032 C28 1.163 . S
C1045 C585 1.345 . S
C1043 C47 1.324 . S
C1054 C9 1.372 . S
C1056 C622 1.362 . S
C1067 C354 2.273 . S
C1065 C233 2.228 1_545 S
C1076 C249 0.868 . S
C1078 C391 0.845 . S
C1089 C434 2.379 . S
C1087 C275 2.396 . S
C1100 C466 1.191 . S
C1098 C173 1.208 1_556 S
C1109 C224 1.496 . S
C1111 C506 1.473 . S
C1122 C554 0.670 . S
C1120 C243 0.747 . S
C1133 C595 2.146 . S
C1131 C266 2.199 . S
C1144 C625 2.037 . S
C1142 C179 2.020 . S
C1155 C351 2.012 . S
C1153 C163 2.034 1_554 S
C1164 C289 2.152 . S
C1166 C674 2.126 . S
C1177 C711 1.255 . S
C1175 C333 1.252 . S
C1188 C742 1.097 . S
C1186 C308 1.112 . S
C1197 C123 2.737 . S
C1199 C635 2.700 . S
C1208 C126 1.484 . S
C1210 C431 1.474 . S
C1219 C327 1.780 . S
C1221 C794 1.856 . S
C1232 C826 1.997 . S
C1230 C299 1.996 . S
C1243 C355 2.277 . S
C1241 C67 2.383 . S
C1254 C825 2.075 . S
C1252 C98 2.036 . S
C1263 C89 1.532 . S
C1265 C435 1.524 . S
C1274 C79 1.789 . S
C1276 C782 1.693 . S
C1287 C502 0.948 1_655 S
C1285 C11 0.952 . S
C1296 C51 1.182 . S
C1298 C715 1.211 . S
C1309 C594 1.335 . S
C1307 C33 1.316 . S
C1320 C871 1.348 . S
C1318 C14 1.377 . S
C1331 C345 2.243 1_556 S
C1329 C140 2.230 . S
C1342 C822 0.857 . S
C1340 C319 0.881 . S
C1351 C112 2.365 . S
C1353 C425 2.387 . S
C1362 C285 1.229 . S
C1364 C795 1.216 . S
C1373 C149 1.522 . S
C1375 C515 1.509 . S
C1386 C705 0.685 . S
C1384 C313 0.716 . S
C1395 C121 2.321 . S
C1397 C586 2.214 . S
C1406 C291 2.033 1_556 S
C1408 C874 2.038 . S
C1417 C182 2.001 . S
C1419 C342 1.951 . S
C1428 C168 2.141 . S
C1430 C665 2.154 . S
C1439 C263 1.273 . S
C1441 C542 1.255 . S
C1450 C247 1.160 . S
C1452 C751 1.077 . S
C1463 C866 2.694 . S
C1461 C277 2.739 . S
C1472 C219 1.540 . S
C1474 C422 1.499 . S
C1485 C465 1.887 . S
C1483 C257 1.824 . S
C1496 C395 1.996 . S
C1494 C201 1.988 . S
C1505 C81 2.385 . S
C1507 C906 2.282 . S
C1518 C834 2.039 . S
C1516 C93 2.054 . S
C1527 C103 1.512 . S
C1529 C946 1.499 . S
C1538 C56 1.718 1_655 S
C1540 C791 1.660 . S
C1549 C53 0.936 . S
C1551 C671 0.927 . S
C1562 C706 1.166 . S
C1560 C0 1.160 . S
C1573 C745 1.345 . S
C1571 C19 1.323 . S
C1584 C862 1.361 . S
C1582 C37 1.373 . S
C1595 C914 2.272 . S
C1593 C261 2.234 . S
C1604 C193 0.866 . S
C1606 C831 0.847 . S
C1617 C954 2.377 . S
C1615 C205 2.398 . S
C1628 C786 1.191 . S
C1626 C215 1.207 . S
C1639 C666 1.470 1_556 S
C1637 C252 1.497 . S
C1648 C187 0.713 . S
C1650 C714 0.695 . S
C1661 C755 2.143 . S
C1659 C196 2.204 . S
C1670 C221 2.017 . S
C1672 C865 2.036 . S
C1683 C911 2.011 . S
C1681 C317 2.034 . S
C1692 C135 2.152 . S
C1694 C514 2.128 . S
C1705 C551 1.254 . S
C1703 C151 1.260 1_565 S
C1716 C582 1.089 . S
C1714 C154 1.122 . S
C1727 C875 2.698 . S
C1725 C305 2.737 . S
C1736 C280 1.488 . S
C1738 C951 1.471 . S
C1749 C474 1.857 . S
C1747 C145 1.782 . S
C1760 C386 1.998 . S
C1758 C117 1.994 . S
C1769 C95 2.381 . S
C1771 C915 2.278 . S
C1782 C385 2.076 . S
C1780 C70 2.036 . S
C1791 C61 1.529 . S
C1793 C955 1.520 . S
C1802 C107 1.788 . S
C1804 C462 1.692 . S
C1813 C39 0.951 . S
C1815 C662 0.948 . S
C1826 C555 1.212 . S
C1824 C23 1.172 . S
C1835 C5 1.308 . S
C1837 C754 1.336 . S
C1846 C42 1.378 . S
C1848 C631 1.349 . S
C1859 C905 2.242 . S
C1857 C322 2.227 . S
C1868 C165 0.875 . S
C1870 C382 0.861 . S
C1881 C945 2.387 1_656 S
C1879 C294 2.365 . S
C1890 C131 1.228 . S
C1892 C475 1.215 . S
C1901 C331 1.522 . S
C1903 C675 1.511 . S
C1914 C545 0.694 . S
C1912 C159 0.701 . S
C1923 C303 2.320 . S
C1925 C746 2.216 1_655 S
C1936 C634 2.038 . S
C1934 C137 2.035 . S
C1947 C902 1.943 . S
C1945 C238 2.011 . S
C1958 C505 2.152 1_565 S
C1956 C210 2.137 . S
C1967 C235 1.264 . S
C1969 C702 1.263 . S
C1980 C591 1.089 . S
C1978 C191 1.149 . S
C1989 C207 2.738 . S
C1991 C626 2.695 . S
C2000 C177 1.543 . S
C2002 C942 1.495 . S
C2013 C785 1.889 . S
C2011 C229 1.824 . S
C2024 C835 1.998 . S
C2022 C271 1.986 . S
