# Generated by pormake.
# Topology the, (3,8)-cn, num edge types: 1
# Building blocks:
#     Node 0, Type 0, BuildingBlock: OLANEW_clean_sbu_2, # of connection points: 3
#     Node 1, Type 0, BuildingBlock: OLANEW_clean_sbu_2, # of connection points: 3
#     Node 2, Type 0, BuildingBlock: OLANEW_clean_sbu_2, # of connection points: 3
#     Node 3, Type 0, BuildingBlock: OLANEW_clean_sbu_2, # of connection points: 3
#     Node 4, Type 0, BuildingBlock: OLANEW_clean_sbu_2, # of connection points: 3
#     Node 5, Type 0, BuildingBlock: OLANEW_clean_sbu_2, # of connection points: 3
#     Node 6, Type 0, BuildingBlock: OLANEW_clean_sbu_2, # of connection points: 3
#     Node 7, Type 0, BuildingBlock: OLANEW_clean_sbu_2, # of connection points: 3
#     Node 8, Type 1, BuildingBlock: GIZVER_clean_sbu_0, # of connection points: 8
#     Node 9, Type 1, BuildingBlock: GIZVER_clean_sbu_0, # of connection points: 8
#     Node 10, Type 1, BuildingBlock: GIZVER_clean_sbu_0, # of connection points: 8
#     Edge 11, Type (0, 1), BuildingBlock: MIFKUJ_clean_linker_0, # of connection points: 2
#     Edge 12, Type (0, 1), BuildingBlock: MIFKUJ_clean_linker_0, # of connection points: 2
#     Edge 13, Type (0, 1), BuildingBlock: MIFKUJ_clean_linker_0, # of connection points: 2
#     Edge 14, Type (0, 1), BuildingBlock: MIFKUJ_clean_linker_0, # of connection points: 2
#     Edge 15, Type (0, 1), BuildingBlock: MIFKUJ_clean_linker_0, # of connection points: 2
#     Edge 16, Type (0, 1), BuildingBlock: MIFKUJ_clean_linker_0, # of connection points: 2
#     Edge 17, Type (0, 1), BuildingBlock: MIFKUJ_clean_linker_0, # of connection points: 2
#     Edge 18, Type (0, 1), BuildingBlock: MIFKUJ_clean_linker_0, # of connection points: 2
#     Edge 19, Type (0, 1), BuildingBlock: MIFKUJ_clean_linker_0, # of connection points: 2
#     Edge 20, Type (0, 1), BuildingBlock: MIFKUJ_clean_linker_0, # of connection points: 2
#     Edge 21, Type (0, 1), BuildingBlock: MIFKUJ_clean_linker_0, # of connection points: 2
#     Edge 22, Type (0, 1), BuildingBlock: MIFKUJ_clean_linker_0, # of connection points: 2
#     Edge 23, Type (0, 1), BuildingBlock: MIFKUJ_clean_linker_0, # of connection points: 2
#     Edge 24, Type (0, 1), BuildingBlock: MIFKUJ_clean_linker_0, # of connection points: 2
#     Edge 25, Type (0, 1), BuildingBlock: MIFKUJ_clean_linker_0, # of connection points: 2
#     Edge 26, Type (0, 1), BuildingBlock: MIFKUJ_clean_linker_0, # of connection points: 2
#     Edge 27, Type (0, 1), BuildingBlock: MIFKUJ_clean_linker_0, # of connection points: 2
#     Edge 28, Type (0, 1), BuildingBlock: MIFKUJ_clean_linker_0, # of connection points: 2
#     Edge 29, Type (0, 1), BuildingBlock: MIFKUJ_clean_linker_0, # of connection points: 2
#     Edge 30, Type (0, 1), BuildingBlock: MIFKUJ_clean_linker_0, # of connection points: 2
#     Edge 31, Type (0, 1), BuildingBlock: MIFKUJ_clean_linker_0, # of connection points: 2
#     Edge 32, Type (0, 1), BuildingBlock: MIFKUJ_clean_linker_0, # of connection points: 2
#     Edge 33, Type (0, 1), BuildingBlock: MIFKUJ_clean_linker_0, # of connection points: 2
#     Edge 34, Type (0, 1), BuildingBlock: MIFKUJ_clean_linker_0, # of connection points: 2
# Relax obj value: 0.072
# Max RMSD: 0.200
# Mean RMSD: 0.136
data_MOF--net-the--node1-OLANEW_clean_sbu_2--node2-GIZVER_clean_sbu_0--edge1-MIFKUJ_clean_linker_0
_symmetry_space_group_name_H-M    P1
_symmetry_Int_Tables_number       1
_symmetry_cell_setting            triclinic
loop_
_symmetry_equiv_pos_as_xyz
'x, y, z'
_cell_length_a     55.461993
_cell_length_b     53.116734
_cell_length_c     47.896641
_cell_angle_alpha  91.388826
_cell_angle_beta   91.988546
_cell_angle_gamma 105.58709
loop_
_atom_site_label
_atom_site_type_symbol
_atom_site_fract_x
_atom_site_fract_y
_atom_site_fract_z
_atom_type_partial_charge
O0 O 0.33734 0.34989 0.34047 0.0
Cd1 Cd 0.31929 0.32994 0.38343 0.0
O2 O 0.31918 0.3819 0.34413 0.0
Cd3 Cd 0.29713 0.36862 0.38066 0.0
O4 O 0.26538 0.36792 0.40696 0.0
C5 C 0.26568 0.38846 0.42132 0.0
O6 O 0.28568 0.40848 0.42126 0.0
C7 C 0.33353 0.37087 0.33134 0.0
C8 C 0.33946 0.29003 0.40228 0.0
O9 O 0.32023 0.28501 0.38534 0.0
O10 O 0.34935 0.31395 0.4101 0.0
O11 O 0.73295 0.37104 0.29549 0.0
Cd12 Cd 0.69534 0.34627 0.26826 0.0
O13 O 0.73633 0.3351 0.3154 0.0
Cd14 Cd 0.70065 0.30838 0.30036 0.0
O15 O 0.67016 0.27318 0.30664 0.0
C16 C 0.67541 0.2577 0.32425 0.0
O17 O 0.69803 0.26373 0.33617 0.0
C18 C 0.74492 0.35946 0.31162 0.0
C19 C 0.67144 0.37507 0.23397 0.0
O20 O 0.66409 0.36909 0.25863 0.0
O21 O 0.69051 0.36809 0.22577 0.0
O22 O 0.72251 0.71627 0.27482 0.0
Cd23 Cd 0.74787 0.7469 0.31058 0.0
O24 O 0.68651 0.71941 0.29054 0.0
Cd25 Cd 0.7011 0.75155 0.32142 0.0
O26 O 0.6947 0.78539 0.34422 0.0
C27 C 0.67201 0.78628 0.34289 0.0
O28 O 0.65539 0.76737 0.32901 0.0
C29 C 0.69868 0.70927 0.27356 0.0
C30 C 0.7814 0.72536 0.34048 0.0
O31 O 0.75955 0.72401 0.34933 0.0
O32 O 0.78739 0.73684 0.3175 0.0
O33 O 0.32846 0.78789 0.26725 0.0
Cd34 Cd 0.30103 0.7575 0.23293 0.0
O35 O 0.29648 0.77535 0.29375 0.0
Cd36 Cd 0.27559 0.7711 0.33195 0.0
O37 O 0.24521 0.75014 0.35739 0.0
C38 C 0.22477 0.73925 0.34393 0.0
O39 O 0.22334 0.7423 0.31683 0.0
C40 C 0.31858 0.7895 0.29053 0.0
C41 C 0.32157 0.7193 0.21069 0.0
O42 O 0.32257 0.74039 0.19777 0.0
O43 O 0.31117 0.71643 0.23431 0.0
O44 O 0.3705 0.75846 0.72563 0.0
Cd45 Cd 0.3463 0.7176 0.74594 0.0
O46 O 0.33801 0.77498 0.72226 0.0
Cd47 Cd 0.30834 0.73917 0.7285 0.0
O48 O 0.27162 0.71417 0.71351 0.0
C49 C 0.27024 0.70241 0.68982 0.0
O50 O 0.29093 0.70446 0.67644 0.0
C51 C 0.36133 0.77745 0.72015 0.0
C52 C 0.37305 0.69513 0.7847 0.0
O53 O 0.37097 0.68809 0.75874 0.0
O54 O 0.36293 0.71309 0.79231 0.0
O55 O 0.33775 0.34506 0.72238 0.0
Cd56 Cd 0.31539 0.32476 0.67889 0.0
O57 O 0.30561 0.35539 0.74073 0.0
Cd58 Cd 0.28031 0.34514 0.70348 0.0
O59 O 0.25455 0.35412 0.67178 0.0
C60 C 0.23097 0.34399 0.67123 0.0
O61 O 0.22152 0.3262 0.68934 0.0
C62 C 0.32835 0.35464 0.74259 0.0
C63 C 0.33465 0.28528 0.65629 0.0
O64 O 0.34411 0.30936 0.6509 0.0
O65 O 0.31617 0.2798 0.67249 0.0
O66 O 0.70301 0.3695 0.75236 0.0
Cd67 Cd 0.70981 0.33918 0.71616 0.0
O68 O 0.71059 0.34732 0.78826 0.0
Cd69 Cd 0.70922 0.31364 0.76064 0.0
O70 O 0.69183 0.28029 0.73237 0.0
C71 C 0.67218 0.28138 0.71851 0.0
O72 O 0.66386 0.30217 0.72173 0.0
C73 C 0.70576 0.36762 0.77862 0.0
C74 C 0.75521 0.36032 0.69148 0.0
O75 O 0.73533 0.36667 0.68384 0.0
O76 O 0.75365 0.34358 0.71063 0.0
O77 O 0.74113 0.72466 0.58987 0.0
Cd78 Cd 0.70516 0.73845 0.60595 0.0
O79 O 0.73706 0.70463 0.62941 0.0
Cd80 Cd 0.742 0.67734 0.66128 0.0
O81 O 0.72907 0.65203 0.69619 0.0
C82 C 0.73637 0.65956 0.72121 0.0
O83 O 0.75312 0.68216 0.72576 0.0
C84 C 0.74847 0.70993 0.60681 0.0
C85 C 0.69327 0.77977 0.57902 0.0
O86 O 0.7088 0.78395 0.60018 0.0
O87 O 0.68408 0.75608 0.56998 0.0
Co88 Co 0.04736 0.50283 0.52528 0.0
Co89 Co 0.0219 0.49344 0.47666 0.0
Co90 Co 0.99936 0.53069 0.5148 0.0
O91 O 0.01306 0.4994 0.51351 0.0
H92 H 0.00157 0.48392 0.52033 0.0
O93 O 0.98604 0.56227 0.51566 0.0
Co94 Co 0.95385 0.56038 0.49874 0.0
Co95 Co 0.97294 0.56833 0.54919 0.0
H96 H 0.99855 0.57787 0.5107 0.0
O97 O 0.02783 0.46154 0.46495 0.0
O98 O 0.05507 0.49605 0.48645 0.0
O99 O 0.024 0.52133 0.45086 0.0
O100 O 0.02106 0.54951 0.48483 0.0
O101 O 0.97321 0.51214 0.4858 0.0
O102 O 0.92543 0.56134 0.48146 0.0
O103 O 0.96038 0.59443 0.48969 0.0
O104 O 0.94295 0.52449 0.50547 0.0
O105 O 0.97734 0.51188 0.54512 0.0
O106 O 0.96943 0.54112 0.57522 0.0
O107 O 0.94111 0.5682 0.53526 0.0
O108 O 0.96854 0.60054 0.56027 0.0
C109 C 0.06791 0.47851 0.53972 0.0
C110 C 0.0492 0.5527 0.53828 0.0
C111 C 0.02724 0.5446 0.46028 0.0
C112 C 0.05041 0.47301 0.4744 0.0
C113 C 0.93768 0.58565 0.4787 0.0
C114 C 0.94991 0.50948 0.48846 0.0
C115 C 0.9689 0.51777 0.56828 0.0
C116 C 0.94633 0.59071 0.54877 0.0
O117 O 0.0782 0.50326 0.5366 0.0
O118 O 0.04398 0.46883 0.53354 0.0
O119 O 0.02609 0.54918 0.54334 0.0
O120 O 0.05531 0.53875 0.51934 0.0
Co121 Co 0.52916 0.97988 0.48841 0.0
Co122 Co 0.54213 0.00093 0.53833 0.0
Co123 Co 0.50019 0.02511 0.51164 0.0
O124 O 0.53073 0.01288 0.50588 0.0
H125 H 0.54415 0.02658 0.49887 0.0
O126 O 0.47016 0.03875 0.5171 0.0
Co127 Co 0.47486 0.07508 0.52855 0.0
Co128 Co 0.45909 0.04734 0.48196 0.0
H129 H 0.45691 0.02671 0.52647 0.0
O130 O 0.57475 0.99861 0.54369 0.0
O131 O 0.54191 0.96809 0.52379 0.0
O132 O 0.52035 0.99658 0.56909 0.0
O133 O 0.48745 1.00059 0.54319 0.0
O134 O 0.52076 0.0521 0.53882 0.0
O135 O 0.47655 0.10738 0.54016 0.0
O136 O 0.44346 0.07191 0.54057 0.0
O137 O 0.50852 0.08341 0.51855 0.0
O138 O 0.51276 0.04894 0.47985 0.0
O139 O 0.47991 0.04559 0.45084 0.0
O140 O 0.4644 0.08284 0.49049 0.0
O141 O 0.42825 0.05466 0.47509 0.0
C142 C 0.55275 0.96461 0.46555 0.0
C143 C 0.47853 0.97367 0.48585 0.0
C144 C 0.49696 0.99337 0.56539 0.0
C145 C 0.56518 0.9751 0.53322 0.0
C146 C 0.45334 0.09691 0.54588 0.0
C147 C 0.52361 0.07633 0.53512 0.0
C148 C 0.50342 0.05181 0.45574 0.0
C149 C 0.44132 0.07848 0.48112 0.0
O150 O 0.53033 0.95067 0.47074 0.0
O151 O 0.56054 0.98871 0.47538 0.0
O152 O 0.47952 0.99787 0.48466 0.0
O153 O 0.49574 0.96647 0.49893 0.0
Co154 Co 0.47531 0.53501 0.06682 0.0
Co155 Co 0.46748 0.48788 0.04601 0.0
Co156 Co 0.51186 0.52645 0.01365 0.0
O157 O 0.47857 0.52056 0.03072 0.0
H158 H 0.46599 0.52297 0.01737 0.0
O159 O 0.54518 0.53255 0.99701 0.0
Co160 Co 0.54925 0.51816 0.96135 0.0
Co161 Co 0.5562 0.56579 0.98243 0.0
H162 H 0.55767 0.53031 0.01059 0.0
O163 O 0.43417 0.47223 0.05446 0.0
O164 O 0.46386 0.49964 0.08202 0.0
O165 O 0.49184 0.46847 0.0497 0.0
O166 O 0.52399 0.50152 0.03859 0.0
O167 O 0.49603 0.49741 0.98589 0.0
O168 O 0.55615 0.5046 0.92941 0.0
O169 O 0.581 0.51684 0.96835 0.0
O170 O 0.51602 0.51667 0.9497 0.0
O171 O 0.49977 0.55113 0.98827 0.0
O172 O 0.53156 0.58527 0.97866 0.0
O173 O 0.56087 0.55378 0.9468 0.0
O174 O 0.58991 0.58126 0.97489 0.0
C175 C 0.44795 0.54729 0.08581 0.0
C176 C 0.52717 0.55227 0.06759 0.0
C177 C 0.51519 0.47918 0.04921 0.0
C178 C 0.44183 0.48314 0.07888 0.0
C179 C 0.57742 0.50679 0.94292 0.0
C180 C 0.49758 0.50007 0.95956 0.0
C181 C 0.50831 0.57388 0.97849 0.0
C182 C 0.58333 0.56922 0.95079 0.0
O183 O 0.46923 0.54886 0.099 0.0
O184 O 0.44359 0.53675 0.06061 0.0
O185 O 0.52786 0.55549 0.04132 0.0
O186 O 0.50862 0.53613 0.0778 0.0
H187 H 0.25934 0.43118 0.4499 0.0
H188 H 0.22036 0.43805 0.46605 0.0
H189 H 0.18105 0.35899 0.43968 0.0
H190 H 0.22004 0.35212 0.42285 0.0
H191 H 0.15836 0.39207 0.41871 0.0
H192 H 0.18937 0.38003 0.51052 0.0
H193 H 0.22065 0.38735 0.54986 0.0
H194 H 0.22112 0.46822 0.5562 0.0
H195 H 0.19023 0.46158 0.51667 0.0
H196 H 0.04615 0.42126 0.46234 0.0
H197 H 0.08014 0.39993 0.45961 0.0
H198 H 0.13432 0.47396 0.47868 0.0
H199 H 0.10061 0.4953 0.48159 0.0
H200 H 0.14513 0.43488 0.50784 0.0
H201 H 0.12284 0.44983 0.41216 0.0
H202 H 0.09389 0.44566 0.37099 0.0
H203 H 0.07854 0.36202 0.37164 0.0
H204 H 0.10718 0.3657 0.41308 0.0
C205 C 0.24252 0.41505 0.44796 0.0
C206 C 0.2428 0.39117 0.43484 0.0
C207 C 0.22022 0.41896 0.45745 0.0
C208 C 0.19773 0.39897 0.45433 0.0
C209 C 0.19817 0.37468 0.44238 0.0
C210 C 0.22049 0.37079 0.43278 0.0
C211 C 0.17353 0.40457 0.46039 0.0
C212 C 0.15524 0.40082 0.4385 0.0
C213 C 0.16958 0.41653 0.48599 0.0
C214 C 0.18769 0.42035 0.51032 0.0
C215 C 0.19627 0.39942 0.52016 0.0
C216 C 0.21391 0.40345 0.54253 0.0
C217 C 0.22297 0.42827 0.55537 0.0
C218 C 0.21414 0.44903 0.54617 0.0
C219 C 0.19655 0.44513 0.5238 0.0
C220 C 0.06532 0.43297 0.46585 0.0
C221 C 0.07072 0.45996 0.4721 0.0
C222 C 0.08469 0.42075 0.46437 0.0
C223 C 0.10975 0.43538 0.46887 0.0
C224 C 0.11512 0.46228 0.47527 0.0
C225 C 0.09582 0.47446 0.47678 0.0
C226 C 0.13063 0.42311 0.46594 0.0
C227 C 0.14813 0.42556 0.48838 0.0
C228 C 0.13406 0.41025 0.4408 0.0
C229 C 0.11687 0.40802 0.41591 0.0
C230 C 0.11312 0.43054 0.40366 0.0
C231 C 0.09681 0.42827 0.38026 0.0
C232 C 0.08432 0.40359 0.36876 0.0
C233 C 0.08818 0.38112 0.38061 0.0
C234 C 0.10445 0.38329 0.40405 0.0
H235 H 0.0717 0.40187 0.35063 0.0
H236 H 0.23686 0.43146 0.57244 0.0
H237 H 0.62631 0.23946 0.30503 0.0
H238 H 0.59495 0.2007 0.32003 0.0
H239 H 0.65014 0.18365 0.37679 0.0
H240 H 0.68151 0.22185 0.36166 0.0
H241 H 0.62318 0.14002 0.35091 0.0
H242 H 0.60614 0.21429 0.39843 0.0
H243 H 0.59531 0.25628 0.40258 0.0
H244 H 0.52612 0.22315 0.35575 0.0
H245 H 0.53673 0.18106 0.35093 0.0
H246 H 0.55461 0.06781 0.45811 0.0
H247 H 0.5816 0.09839 0.42778 0.0
H248 H 0.51716 0.10134 0.37622 0.0
H249 H 0.4899 0.07086 0.4066 0.0
H250 H 0.54521 0.14951 0.39229 0.0
H251 H 0.56026 0.07314 0.35066 0.0
H252 H 0.57055 0.03077 0.34984 0.0
H253 H 0.64313 0.06737 0.38798 0.0
H254 H 0.63316 0.10991 0.38941 0.0
C255 C 0.63177 0.22735 0.32059 0.0
C256 C 0.6564 0.23383 0.33223 0.0
C257 C 0.61381 0.20526 0.32921 0.0
C258 C 0.62012 0.18938 0.34974 0.0
C259 C 0.64482 0.19555 0.36089 0.0
C260 C 0.66273 0.21751 0.35228 0.0
C261 C 0.60109 0.16665 0.36032 0.0
C262 C 0.60617 0.14211 0.36006 0.0
C263 C 0.57853 0.16918 0.37157 0.0
C264 C 0.57243 0.19466 0.37391 0.0
C265 C 0.58877 0.21606 0.3887 0.0
C266 C 0.58264 0.23986 0.39124 0.0
C267 C 0.5601 0.24242 0.37932 0.0
C268 C 0.54363 0.22118 0.36485 0.0
C269 C 0.5497 0.19735 0.36219 0.0
C270 C 0.54617 0.07456 0.44004 0.0
C271 C 0.52005 0.06697 0.43492 0.0
C272 C 0.56167 0.09198 0.42263 0.0
C273 C 0.55141 0.10208 0.39966 0.0
C274 C 0.52546 0.09376 0.39382 0.0
C275 C 0.50993 0.07625 0.41118 0.0
C276 C 0.56756 0.12304 0.3834 0.0
C277 C 0.56196 0.14726 0.38263 0.0
C278 C 0.58968 0.12024 0.37138 0.0
C279 C 0.59588 0.09472 0.37029 0.0
C280 C 0.57836 0.07214 0.35904 0.0
C281 C 0.58414 0.04808 0.35844 0.0
C282 C 0.60746 0.04637 0.36889 0.0
C283 C 0.62507 0.06873 0.3799 0.0
C284 C 0.61937 0.09283 0.38056 0.0
H285 H 0.61189 0.02773 0.36843 0.0
H286 H 0.55536 0.26084 0.38138 0.0
H287 H 0.82649 0.71977 0.32403 0.0
H288 H 0.85463 0.69875 0.34894 0.0
H289 H 0.80496 0.68447 0.41763 0.0
H290 H 0.7764 0.7048 0.39249 0.0
H291 H 0.88139 0.70734 0.39621 0.0
H292 H 0.80461 0.6268 0.44611 0.0
H293 H 0.76056 0.60178 0.43659 0.0
H294 H 0.76896 0.61345 0.34867 0.0
H295 H 0.81312 0.63821 0.35764 0.0
H296 H 0.94085 0.63717 0.49101 0.0
H297 H 0.91573 0.66372 0.46931 0.0
H298 H 0.88141 0.59946 0.41138 0.0
H299 H 0.90527 0.57269 0.43403 0.0
H300 H 0.84718 0.61728 0.42868 0.0
H301 H 0.92841 0.6582 0.39386 0.0
H302 H 0.97358 0.68068 0.39766 0.0
H303 H 0.95843 0.74391 0.44515 0.0
H304 H 0.91318 0.72165 0.4419 0.0
C305 C 0.82157 0.7122 0.34447 0.0
C306 C 0.79906 0.71373 0.35614 0.0
C307 C 0.83776 0.7003 0.35876 0.0
C308 C 0.83182 0.68972 0.38504 0.0
C309 C 0.80976 0.69203 0.39716 0.0
C310 C 0.79345 0.70372 0.38277 0.0
C311 C 0.84819 0.6754 0.39921 0.0
C312 C 0.87392 0.68766 0.40337 0.0
C313 C 0.83859 0.64957 0.40823 0.0
C314 C 0.81207 0.63463 0.40261 0.0
C315 C 0.79706 0.62397 0.42475 0.0
C316 C 0.77207 0.60984 0.41945 0.0
C317 C 0.76194 0.60612 0.39206 0.0
C318 C 0.77679 0.61644 0.36989 0.0
C319 C 0.80179 0.63055 0.37508 0.0
C320 C 0.92815 0.62897 0.4734 0.0
C321 C 0.92502 0.60298 0.46407 0.0
C322 C 0.91381 0.64412 0.46097 0.0
C323 C 0.89671 0.63374 0.43847 0.0
C324 C 0.89425 0.60795 0.42879 0.0
C325 C 0.90801 0.59268 0.44163 0.0
C326 C 0.88058 0.64902 0.42543 0.0
C327 C 0.85476 0.637 0.42166 0.0
C328 C 0.89028 0.67471 0.41599 0.0
C329 C 0.91745 0.68814 0.41787 0.0
C330 C 0.93474 0.67682 0.40527 0.0
C331 C 0.96035 0.68953 0.4073 0.0
C332 C 0.96888 0.71367 0.4217 0.0
C333 C 0.9518 0.72519 0.43404 0.0
C334 C 0.92617 0.71255 0.43209 0.0
H335 H 0.98871 0.72348 0.42326 0.0
H336 H 0.74259 0.59518 0.388 0.0
H337 H 0.36866 0.80173 0.30325 0.0
H338 H 0.39219 0.83232 0.34014 0.0
H339 H 0.32393 0.84908 0.36472 0.0
H340 H 0.3002 0.81808 0.32827 0.0
H341 H 0.37185 0.89471 0.35276 0.0
H342 H 0.33932 0.81756 0.4069 0.0
H343 H 0.33183 0.77066 0.41609 0.0
H344 H 0.41108 0.77902 0.41876 0.0
H345 H 0.41901 0.82591 0.40913 0.0
H346 H 0.43203 0.97689 0.46789 0.0
H347 H 0.40081 0.94477 0.43863 0.0
H348 H 0.45064 0.89479 0.43596 0.0
H349 H 0.48083 0.92576 0.46667 0.0
H350 H 0.40762 0.86543 0.43847 0.0
H351 H 0.44232 0.93837 0.38112 0.0
H352 H 0.45358 0.98463 0.3682 0.0
H353 H 0.37598 0.98412 0.36659 0.0
H354 H 0.3643 0.93793 0.37986 0.0
C355 C 0.35868 0.81181 0.31667 0.0
C356 C 0.3326 0.80732 0.31321 0.0
C357 C 0.3721 0.82921 0.33767 0.0
C358 C 0.35971 0.8428 0.3551 0.0
C359 C 0.33373 0.83862 0.3515 0.0
C360 C 0.32021 0.82078 0.33089 0.0
C361 C 0.37413 0.86168 0.37678 0.0
C362 C 0.37937 0.88845 0.37179 0.0
C363 C 0.38448 0.8533 0.40101 0.0
C364 C 0.37973 0.82517 0.40702 0.0
C365 C 0.35513 0.80934 0.40917 0.0
C366 C 0.35081 0.78277 0.41452 0.0
C367 C 0.37096 0.77185 0.41793 0.0
C368 C 0.39548 0.78749 0.41608 0.0
C369 C 0.3999 0.81407 0.4107 0.0
C370 C 0.43614 0.95891 0.46123 0.0
C371 C 0.45895 0.95395 0.4694 0.0
C372 C 0.41838 0.94063 0.44432 0.0
C373 C 0.42351 0.91752 0.43444 0.0
C374 C 0.4461 0.91238 0.44321 0.0
C375 C 0.46347 0.93023 0.46071 0.0
C376 C 0.40586 0.89884 0.4145 0.0
C377 C 0.39999 0.87196 0.41969 0.0
C378 C 0.39551 0.90713 0.39 0.0
C379 C 0.40247 0.93481 0.38179 0.0
C380 C 0.42768 0.94818 0.37817 0.0
C381 C 0.43413 0.97438 0.37077 0.0
C382 C 0.41551 0.98733 0.36666 0.0
C383 C 0.39039 0.97408 0.36984 0.0
C384 C 0.38384 0.94789 0.37728 0.0
H385 H 0.42055 0.00761 0.36094 0.0
H386 H 0.36758 0.75128 0.42207 0.0
H387 H 0.22321 0.70147 0.70675 0.0
H388 H 0.18298 0.68012 0.68264 0.0
H389 H 0.2215 0.64975 0.61868 0.0
H390 H 0.26167 0.67153 0.64221 0.0
H391 H 0.18692 0.6685 0.59526 0.0
H392 H 0.18969 0.61121 0.67138 0.0
H393 H 0.19321 0.60003 0.72076 0.0
H394 H 0.12851 0.62648 0.73855 0.0
H395 H 0.12479 0.6381 0.6893 0.0
H396 H 0.09923 0.56126 0.53292 0.0
H397 H 0.13319 0.59091 0.56016 0.0
H398 H 0.07992 0.61686 0.60896 0.0
H399 H 0.04525 0.58665 0.58149 0.0
H400 H 0.11803 0.60613 0.64148 0.0
H401 H 0.11248 0.65699 0.56177 0.0
H402 H 0.10894 0.66467 0.5114 0.0
H403 H 0.17926 0.64751 0.49928 0.0
H404 H 0.18312 0.63939 0.54953 0.0
C405 C 0.22309 0.6901 0.68765 0.0
C406 C 0.24567 0.68818 0.67643 0.0
C407 C 0.20006 0.67787 0.67389 0.0
C408 C 0.19914 0.66317 0.64887 0.0
C409 C 0.22168 0.66107 0.63785 0.0
C410 C 0.24466 0.67344 0.65143 0.0
C411 C 0.17486 0.65009 0.63387 0.0
C412 C 0.17193 0.65478 0.60536 0.0
C413 C 0.15491 0.63275 0.64717 0.0
C414 C 0.15715 0.62583 0.67676 0.0
C415 C 0.17635 0.61484 0.68588 0.0
C416 C 0.17835 0.60839 0.71383 0.0
C417 C 0.16115 0.61263 0.7328 0.0
C418 C 0.14186 0.62327 0.72384 0.0
C419 C 0.13978 0.62978 0.69592 0.0
C420 C 0.09454 0.57341 0.5492 0.0
C421 C 0.06943 0.57171 0.55483 0.0
C422 C 0.11409 0.59044 0.56477 0.0
C423 C 0.10914 0.60644 0.58629 0.0
C424 C 0.08413 0.60479 0.59226 0.0
C425 C 0.06437 0.5876 0.57655 0.0
C426 C 0.13044 0.62408 0.60281 0.0
C427 C 0.13283 0.62027 0.63155 0.0
C428 C 0.15 0.64205 0.58966 0.0
C429 C 0.14807 0.64755 0.55948 0.0
C430 C 0.12718 0.65479 0.54837 0.0
C431 C 0.12512 0.65924 0.51984 0.0
C432 C 0.14391 0.65668 0.50218 0.0
C433 C 0.16479 0.64962 0.51302 0.0
C434 C 0.16694 0.64514 0.54154 0.0
H435 H 0.14226 0.66008 0.48009 0.0
H436 H 0.16273 0.60761 0.75443 0.0
H437 H 0.37795 0.2911 0.6285 0.0
H438 H 0.39442 0.25683 0.60816 0.0
H439 H 0.33027 0.19807 0.63515 0.0
H440 H 0.31411 0.23228 0.65638 0.0
H441 H 0.37073 0.18305 0.64509 0.0
H442 H 0.33766 0.21887 0.56691 0.0
H443 H 0.33248 0.25399 0.53655 0.0
H444 H 0.40945 0.26991 0.51491 0.0
H445 H 0.41549 0.23577 0.54621 0.0
H446 H 0.40466 0.0831 0.56289 0.0
H447 H 0.38042 0.11263 0.57952 0.0
H448 H 0.44368 0.17898 0.56838 0.0
H449 H 0.46792 0.14995 0.55219 0.0
H450 H 0.39848 0.18646 0.54755 0.0
H451 H 0.43305 0.15788 0.63139 0.0
H452 H 0.44023 0.12453 0.66318 0.0
H453 H 0.36094 0.09531 0.67244 0.0
H454 H 0.3533 0.12828 0.64032 0.0
C455 C 0.36732 0.27089 0.63009 0.0
C456 C 0.34466 0.26444 0.64398 0.0
C457 C 0.3767 0.25128 0.61831 0.0
C458 C 0.36338 0.22481 0.61961 0.0
C459 C 0.34086 0.21832 0.63374 0.0
C460 C 0.33162 0.23792 0.64584 0.0
C461 C 0.37321 0.20392 0.60676 0.0
C462 C 0.37633 0.1836 0.62358 0.0
C463 C 0.3809 0.20472 0.57874 0.0
C464 C 0.37712 0.22492 0.55932 0.0
C465 C 0.3536 0.23008 0.55601 0.0
C466 C 0.35054 0.24992 0.53872 0.0
C467 C 0.37067 0.2643 0.52397 0.0
C468 C 0.39391 0.25886 0.52648 0.0
C469 C 0.39719 0.23934 0.54411 0.0
C470 C 0.41338 0.10397 0.56407 0.0
C471 C 0.43828 0.1141 0.55639 0.0
C472 C 0.39951 0.1208 0.57349 0.0
C473 C 0.41027 0.14801 0.57514 0.0
C474 C 0.43496 0.1581 0.56712 0.0
C475 C 0.44885 0.14137 0.55805 0.0
C476 C 0.39637 0.16619 0.5861 0.0
C477 C 0.39247 0.18588 0.5689 0.0
C478 C 0.38804 0.16494 0.61372 0.0
C479 C 0.39259 0.1453 0.63321 0.0
C480 C 0.41714 0.14419 0.64003 0.0
C481 C 0.4213 0.12539 0.65813 0.0
C482 C 0.40104 0.10776 0.66976 0.0
C483 C 0.3766 0.10895 0.66337 0.0
C484 C 0.37235 0.12769 0.64522 0.0
H485 H 0.40429 0.09321 0.68378 0.0
H486 H 0.36819 0.27948 0.51037 0.0
H487 H 0.7961 0.34102 0.68778 0.0
H488 H 0.83599 0.36183 0.66693 0.0
H489 H 0.80894 0.42882 0.64807 0.0
H490 H 0.76875 0.40742 0.66724 0.0
H491 H 0.83174 0.42003 0.60692 0.0
H492 H 0.85221 0.42601 0.70563 0.0
H493 H 0.85542 0.40949 0.75291 0.0
H494 H 0.9028 0.36342 0.72336 0.0
H495 H 0.89962 0.37946 0.67579 0.0
H496 H 0.94567 0.52293 0.61665 0.0
H497 H 0.91386 0.48932 0.63855 0.0
H498 H 0.9264 0.4309 0.58112 0.0
H499 H 0.958 0.46458 0.5583 0.0
H500 H 0.91349 0.43023 0.65773 0.0
H501 H 0.8862 0.42751 0.55427 0.0
H502 H 0.88237 0.45188 0.51191 0.0
H503 H 0.84761 0.50154 0.55852 0.0
H504 H 0.85157 0.47769 0.60128 0.0
C505 C 0.79874 0.36015 0.67907 0.0
C506 C 0.77937 0.37262 0.67907 0.0
C507 C 0.82159 0.37212 0.66732 0.0
C508 C 0.82572 0.39711 0.6562 0.0
C509 C 0.80628 0.40949 0.65631 0.0
C510 C 0.78329 0.39728 0.66735 0.0
C511 C 0.85005 0.41055 0.64419 0.0
C512 C 0.84953 0.42195 0.6181 0.0
C513 C 0.87348 0.41332 0.65857 0.0
C514 C 0.87542 0.40367 0.68711 0.0
C515 C 0.86315 0.4122 0.70918 0.0
C516 C 0.865 0.40296 0.73603 0.0
C517 C 0.87924 0.38535 0.74111 0.0
C518 C 0.89173 0.37702 0.71937 0.0
C519 C 0.88992 0.38619 0.69247 0.0
C520 C 0.94216 0.50289 0.60893 0.0
C521 C 0.95413 0.49658 0.58532 0.0
C522 C 0.924 0.48369 0.62161 0.0
C523 C 0.91765 0.45781 0.61118 0.0
C524 C 0.931 0.4509 0.58926 0.0
C525 C 0.94906 0.47018 0.5763 0.0
C526 C 0.8948 0.43926 0.62076 0.0
C527 C 0.89562 0.42732 0.64641 0.0
C528 C 0.87151 0.4366 0.60653 0.0
C529 C 0.86934 0.45096 0.5809 0.0
C530 C 0.87797 0.44379 0.5555 0.0
C531 C 0.87571 0.45748 0.53142 0.0
C532 C 0.86459 0.47816 0.53248 0.0
C533 C 0.85603 0.48542 0.5577 0.0
C534 C 0.85831 0.47186 0.58185 0.0
H535 H 0.8625 0.48852 0.51377 0.0
H536 H 0.88064 0.37821 0.76192 0.0
H537 H 0.70756 0.83155 0.59523 0.0
H538 H 0.68857 0.86571 0.58006 0.0
H539 H 0.6405 0.81121 0.52028 0.0
H540 H 0.65917 0.77684 0.53555 0.0
H541 H 0.68218 0.88977 0.53308 0.0
H542 H 0.58289 0.8207 0.51935 0.0
H543 H 0.55816 0.77815 0.5357 0.0
H544 H 0.60399 0.78952 0.61153 0.0
H545 H 0.62876 0.83223 0.59576 0.0
H546 H 0.55367 0.92653 0.50728 0.0
H547 H 0.57922 0.89579 0.50607 0.0
H548 H 0.6357 0.94861 0.55967 0.0
H549 H 0.61126 0.9805 0.55869 0.0
H550 H 0.59062 0.87013 0.54474 0.0
H551 H 0.69421 0.93486 0.55504 0.0
H552 H 0.71981 0.97763 0.54066 0.0
H553 H 0.6663 0.97766 0.47382 0.0
H554 H 0.64045 0.93474 0.48756 0.0
C555 C 0.69321 0.82691 0.57855 0.0
C556 C 0.68461 0.80136 0.56689 0.0
C557 C 0.68243 0.84651 0.56983 0.0
C558 C 0.66282 0.8409 0.54939 0.0
C559 C 0.65531 0.81585 0.53646 0.0
C560 C 0.66606 0.79624 0.54515 0.0
C561 C 0.64891 0.8606 0.54341 0.0
C562 C 0.66216 0.88566 0.53561 0.0
C563 C 0.62275 0.85497 0.54637 0.0
C564 C 0.60781 0.82948 0.55623 0.0
C565 C 0.58762 0.81412 0.53954 0.0
C566 C 0.57361 0.78999 0.5487 0.0
C567 C 0.57956 0.7811 0.57459 0.0
C568 C 0.59946 0.79637 0.59143 0.0
C569 C 0.6135 0.82053 0.58239 0.0
C570 C 0.57182 0.93195 0.51819 0.0
C571 C 0.58057 0.95622 0.53266 0.0
C572 C 0.58638 0.91422 0.51767 0.0
C573 C 0.60966 0.9199 0.53245 0.0
C574 C 0.61825 0.94398 0.54733 0.0
C575 C 0.60407 0.96212 0.54703 0.0
C576 C 0.62377 0.89972 0.53419 0.0
C577 C 0.61055 0.87443 0.54144 0.0
C578 C 0.65002 0.90536 0.53084 0.0
C579 C 0.66532 0.93138 0.52232 0.0
C580 C 0.68793 0.94383 0.53712 0.0
C581 C 0.70249 0.96816 0.52912 0.0
C582 C 0.69469 0.98031 0.5063 0.0
C583 C 0.67231 0.96815 0.49144 0.0
C584 C 0.65771 0.94379 0.49932 0.0
H585 H 0.70596 0.99917 0.50016 0.0
H586 H 0.5687 0.7624 0.58163 0.0
H587 H 0.32176 0.23745 0.39068 0.0
H588 H 0.33896 0.20251 0.40754 0.0
H589 H 0.39762 0.25937 0.45424 0.0
H590 H 0.38062 0.29452 0.43735 0.0
H591 H 0.41542 0.22385 0.4238 0.0
H592 H 0.34937 0.22217 0.4859 0.0
H593 H 0.30626 0.21925 0.49962 0.0
H594 H 0.28088 0.14246 0.46089 0.0
H595 H 0.32377 0.14515 0.44662 0.0
H596 H 0.46254 0.13046 0.49397 0.0
H597 H 0.44495 0.16703 0.48483 0.0
H598 H 0.37853 0.11368 0.44659 0.0
H599 H 0.3954 0.07684 0.45716 0.0
H600 H 0.36546 0.14908 0.47545 0.0
H601 H 0.42781 0.15099 0.408 0.0
H602 H 0.46987 0.1522 0.39194 0.0
H603 H 0.5005 0.22594 0.43588 0.0
H604 H 0.45865 0.22497 0.45258 0.0
C605 C 0.33831 0.24256 0.40455 0.0
C606 C 0.34983 0.26881 0.41261 0.0
C607 C 0.34805 0.22254 0.41427 0.0
C608 C 0.36948 0.22832 0.43229 0.0
C609 C 0.38109 0.25449 0.44032 0.0
C610 C 0.37131 0.27454 0.43068 0.0
C611 C 0.38007 0.20708 0.44222 0.0
C612 C 0.40464 0.20768 0.43546 0.0
C613 C 0.36571 0.1856 0.45671 0.0
C614 C 0.33981 0.184 0.46507 0.0
C615 C 0.33457 0.20477 0.4802 0.0
C616 C 0.31018 0.20313 0.48808 0.0
C617 C 0.29084 0.18069 0.48112 0.0
C618 C 0.29588 0.15985 0.46627 0.0
C619 C 0.32024 0.16143 0.45829 0.0
C620 C 0.44405 0.12643 0.48394 0.0
C621 C 0.43038 0.10067 0.47631 0.0
C622 C 0.4341 0.14743 0.47849 0.0
C623 C 0.41061 0.14323 0.46448 0.0
C624 C 0.39671 0.11748 0.45737 0.0
C625 C 0.40645 0.09641 0.46332 0.0
C626 C 0.40068 0.16559 0.45663 0.0
C627 C 0.37628 0.16526 0.46384 0.0
C628 C 0.41498 0.18703 0.44198 0.0
C629 C 0.44014 0.18776 0.4318 0.0
C630 C 0.44354 0.16737 0.41441 0.0
C631 C 0.46734 0.16802 0.40517 0.0
C632 C 0.48785 0.18909 0.41297 0.0
C633 C 0.48459 0.20961 0.42992 0.0
C634 C 0.46084 0.20902 0.43927 0.0
H635 H 0.50626 0.18953 0.40584 0.0
H636 H 0.27197 0.17944 0.48726 0.0
H637 H 0.76625 0.41267 0.3155 0.0
H638 H 0.80389 0.43615 0.34327 0.0
H639 H 0.81476 0.36266 0.36934 0.0
H640 H 0.77713 0.3392 0.34227 0.0
H641 H 0.81896 0.39405 0.41266 0.0
H642 H 0.85286 0.40089 0.32183 0.0
H643 H 0.85528 0.41167 0.27204 0.0
H644 H 0.86363 0.49252 0.29397 0.0
H645 H 0.86093 0.48216 0.3439 0.0
H646 H 0.95698 0.47582 0.44674 0.0
H647 H 0.92474 0.4475 0.41485 0.0
H648 H 0.86763 0.47391 0.45607 0.0
H649 H 0.89953 0.50262 0.4872 0.0
H650 H 0.88984 0.46282 0.37787 0.0
H651 H 0.81715 0.41946 0.46043 0.0
H652 H 0.8154 0.40306 0.50829 0.0
H653 H 0.8877 0.38917 0.50071 0.0
H654 H 0.8898 0.40528 0.45275 0.0
C655 C 0.77679 0.40153 0.32697 0.0
C656 C 0.76856 0.37405 0.32675 0.0
C657 C 0.79837 0.41497 0.34275 0.0
C658 C 0.81227 0.40117 0.35834 0.0
C659 C 0.80434 0.37376 0.35762 0.0
C660 C 0.78278 0.36036 0.34205 0.0
C661 C 0.83429 0.41514 0.37661 0.0
C662 C 0.83444 0.40907 0.40498 0.0
C663 C 0.85478 0.4344 0.36658 0.0
C664 C 0.85646 0.4407 0.33659 0.0
C665 C 0.85502 0.42094 0.31602 0.0
C666 C 0.85647 0.42697 0.28778 0.0
C667 C 0.85955 0.45275 0.27984 0.0
C668 C 0.86123 0.47255 0.30015 0.0
C669 C 0.85976 0.46662 0.32842 0.0
C670 C 0.93754 0.47548 0.44907 0.0
C671 C 0.93079 0.49126 0.46978 0.0
C672 C 0.91918 0.45935 0.43082 0.0
C673 C 0.89379 0.45845 0.4333 0.0
C674 C 0.88706 0.47406 0.454 0.0
C675 C 0.90535 0.49041 0.47187 0.0
C676 C 0.87416 0.44194 0.41386 0.0
C677 C 0.87437 0.44768 0.3854 0.0
C678 C 0.85416 0.42204 0.42367 0.0
C679 C 0.85368 0.41374 0.45305 0.0
C680 C 0.83269 0.41294 0.469 0.0
C681 C 0.8316 0.40361 0.4961 0.0
C682 C 0.85133 0.39487 0.50743 0.0
C683 C 0.87237 0.39582 0.49185 0.0
C684 C 0.87359 0.40519 0.46475 0.0
H685 H 0.8504 0.38756 0.52838 0.0
H686 H 0.86067 0.45739 0.25796 0.0
H687 H 0.70119 0.83 0.37185 0.0
H688 H 0.68742 0.86654 0.39197 0.0
H689 H 0.61139 0.82854 0.36351 0.0
H690 H 0.6249 0.79243 0.34325 0.0
H691 H 0.62407 0.87923 0.35101 0.0
H692 H 0.63334 0.82804 0.43237 0.0
H693 H 0.65734 0.80859 0.46589 0.0
H694 H 0.70634 0.88461 0.48708 0.0
H695 H 0.68272 0.9045 0.45359 0.0
H696 H 0.53902 0.91994 0.43338 0.0
H697 H 0.56605 0.89663 0.41141 0.0
H698 H 0.63127 0.95674 0.44148 0.0
H699 H 0.60417 0.98038 0.46403 0.0
H700 H 0.63213 0.90296 0.45227 0.0
H701 H 0.62055 0.95564 0.37692 0.0
H702 H 0.59669 0.97629 0.34456 0.0
H703 H 0.55419 0.90062 0.31242 0.0
H704 H 0.5775 0.87948 0.34494 0.0
C705 C 0.68154 0.82945 0.36996 0.0
C706 C 0.66416 0.80829 0.35591 0.0
C707 C 0.6737 0.85031 0.38152 0.0
C708 C 0.64835 0.85026 0.37929 0.0
C709 C 0.63106 0.8291 0.36537 0.0
C710 C 0.63883 0.80838 0.35386 0.0
C711 C 0.63936 0.87208 0.39109 0.0
C712 C 0.62593 0.8845 0.37316 0.0
C713 C 0.64256 0.87972 0.41983 0.0
C714 C 0.65659 0.86767 0.44004 0.0
C715 C 0.64939 0.84056 0.44396 0.0
C716 C 0.66289 0.82948 0.46301 0.0
C717 C 0.68349 0.84533 0.47841 0.0
C718 C 0.6905 0.87233 0.47499 0.0
C719 C 0.67704 0.88352 0.45602 0.0
C720 C 0.55911 0.92839 0.43522 0.0
C721 C 0.56946 0.95207 0.45036 0.0
C722 C 0.57453 0.91503 0.4226 0.0
C723 C 0.60064 0.92497 0.42489 0.0
C724 C 0.61115 0.94875 0.43969 0.0
C725 C 0.59566 0.96232 0.45226 0.0
C726 C 0.61657 0.90975 0.4123 0.0
C727 C 0.63109 0.89846 0.43002 0.0
C728 C 0.61466 0.90338 0.38335 0.0
C729 C 0.6007 0.91596 0.36351 0.0
C730 C 0.60599 0.94339 0.3631 0.0
C731 C 0.59258 0.95519 0.34471 0.0
C732 C 0.57392 0.93978 0.32647 0.0
C733 C 0.56866 0.91253 0.32656 0.0
C734 C 0.58199 0.90063 0.34495 0.0
H735 H 0.56355 0.94895 0.31224 0.0
H736 H 0.69394 0.83672 0.49312 0.0
H737 H 0.1787 0.71437 0.32072 0.0
H738 H 0.14404 0.68434 0.34283 0.0
H739 H 0.18736 0.69515 0.42088 0.0
H740 H 0.22245 0.72514 0.39874 0.0
H741 H 0.16539 0.64441 0.40968 0.0
H742 H 0.1393 0.72233 0.41343 0.0
H743 H 0.13033 0.76227 0.39592 0.0
H744 H 0.07409 0.71591 0.33798 0.0
H745 H 0.08297 0.67567 0.35487 0.0
H746 H 0.03538 0.59682 0.47209 0.0
H747 H 0.06777 0.6325 0.45378 0.0
H748 H 0.08753 0.57825 0.39632 0.0
H749 H 0.05535 0.54225 0.41475 0.0
H750 H 0.07872 0.65384 0.40363 0.0
H751 H 0.15177 0.59361 0.39642 0.0
H752 H 0.16119 0.55575 0.41872 0.0
H753 H 0.12493 0.57099 0.4925 0.0
H754 H 0.1153 0.60889 0.47074 0.0
C755 C 0.18087 0.71054 0.34264 0.0
C756 C 0.20335 0.72218 0.35797 0.0
C757 C 0.16096 0.69343 0.35528 0.0
C758 C 0.16302 0.68769 0.38356 0.0
C759 C 0.18538 0.69935 0.39903 0.0
C760 C 0.20536 0.71655 0.38637 0.0
C761 C 0.14202 0.66882 0.39652 0.0
C762 C 0.14646 0.64651 0.40843 0.0
C763 C 0.11742 0.67186 0.3955 0.0
C764 C 0.11195 0.69599 0.38527 0.0
C765 C 0.12516 0.72065 0.3968 0.0
C766 C 0.12006 0.74335 0.38702 0.0
C767 C 0.10169 0.74163 0.36581 0.0
C768 C 0.08833 0.71721 0.35439 0.0
C769 C 0.09337 0.69444 0.36409 0.0
C770 C 0.04627 0.59248 0.45518 0.0
C771 C 0.04292 0.56659 0.44507 0.0
C772 C 0.06478 0.61295 0.44475 0.0
C773 C 0.08032 0.60792 0.4241 0.0
C774 C 0.07595 0.58243 0.41261 0.0
C775 C 0.0574 0.56192 0.42301 0.0
C776 C 0.10198 0.62903 0.41573 0.0
C777 C 0.09767 0.65178 0.40486 0.0
C778 C 0.12679 0.6267 0.41838 0.0
C779 C 0.13269 0.60404 0.43183 0.0
C780 C 0.14588 0.58893 0.41744 0.0
C781 C 0.15119 0.56741 0.42997 0.0
C782 C 0.14356 0.56089 0.45697 0.0
C783 C 0.13068 0.57595 0.47154 0.0
C784 C 0.12526 0.59744 0.45909 0.0
H785 H 0.14766 0.54421 0.46663 0.0
H786 H 0.09777 0.75923 0.35827 0.0
H787 H 0.40239 0.78389 0.68834 0.0
H788 H 0.42508 0.82367 0.66592 0.0
H789 H 0.37918 0.86662 0.70619 0.0
H790 H 0.35547 0.82646 0.72709 0.0
H791 H 0.38256 0.88096 0.65747 0.0
H792 H 0.44472 0.87313 0.72511 0.0
H793 H 0.4723 0.85175 0.75138 0.0
H794 H 0.50805 0.84023 0.67585 0.0
H795 H 0.48046 0.86125 0.64905 0.0
H796 H 0.50592 0.98944 0.62122 0.0
H797 H 0.48193 0.95701 0.65226 0.0
H798 H 0.42813 0.9254 0.58443 0.0
H799 H 0.45133 0.95875 0.55391 0.0
H800 H 0.47495 0.90875 0.65165 0.0
H801 H 0.37276 0.89178 0.60603 0.0
H802 H 0.34586 0.91755 0.58596 0.0
H803 H 0.39116 0.98682 0.62916 0.0
H804 H 0.41814 0.96142 0.64978 0.0
C805 C 0.39741 0.80192 0.69268 0.0
C806 C 0.37722 0.8021 0.70952 0.0
C807 C 0.41046 0.82475 0.67993 0.0
C808 C 0.40416 0.84845 0.68453 0.0
C809 C 0.38442 0.8487 0.70208 0.0
C810 C 0.37095 0.82575 0.71419 0.0
C811 C 0.41726 0.87264 0.67006 0.0
C812 C 0.40279 0.88708 0.65638 0.0
C813 C 0.44371 0.88121 0.66901 0.0
C814 C 0.46037 0.86858 0.68504 0.0
C815 C 0.45835 0.86588 0.71407 0.0
C816 C 0.474 0.85385 0.72906 0.0
C817 C 0.49188 0.84459 0.71528 0.0
C818 C 0.49418 0.8474 0.68649 0.0
C819 C 0.47856 0.85939 0.67139 0.0
C820 C 0.48859 0.97599 0.6132 0.0
C821 C 0.48039 0.97676 0.58522 0.0
C822 C 0.47497 0.9573 0.63089 0.0
C823 C 0.45308 0.93864 0.62087 0.0
C824 C 0.44456 0.93985 0.59303 0.0
C825 C 0.45787 0.95895 0.57552 0.0
C826 C 0.44023 0.91692 0.63889 0.0
C827 C 0.45474 0.90283 0.65305 0.0
C828 C 0.4139 0.90933 0.64134 0.0
C829 C 0.3976 0.92471 0.62925 0.0
C830 C 0.37692 0.91248 0.61135 0.0
C831 C 0.36167 0.92703 0.59985 0.0
C832 C 0.36684 0.95382 0.60622 0.0
C833 C 0.38723 0.9661 0.62417 0.0
C834 C 0.40252 0.95164 0.63574 0.0
H835 H 0.35503 0.96504 0.59728 0.0
H836 H 0.50398 0.83528 0.72692 0.0
H837 H 0.17979 0.32671 0.66413 0.0
H838 H 0.15216 0.34653 0.63662 0.0
H839 H 0.21648 0.40439 0.60887 0.0
H840 H 0.24418 0.38474 0.63604 0.0
H841 H 0.1834 0.4269 0.62785 0.0
H842 H 0.18007 0.35475 0.56434 0.0
H843 H 0.17336 0.30849 0.54977 0.0
H844 H 0.0967 0.29181 0.5729 0.0
H845 H 0.10304 0.33798 0.58786 0.0
H846 H 0.11854 0.48958 0.53788 0.0
H847 H 0.14585 0.46362 0.55432 0.0
H848 H 0.08157 0.40383 0.57927 0.0
H849 H 0.0538 0.42937 0.56131 0.0
H850 H 0.11516 0.38173 0.55974 0.0
H851 H 0.11865 0.4521 0.62643 0.0
H852 H 0.12466 0.49814 0.64174 0.0
H853 H 0.2003 0.51724 0.61482 0.0
H854 H 0.19463 0.47137 0.59908 0.0
C855 C 0.18809 0.3434 0.65178 0.0
C856 C 0.21423 0.35415 0.65236 0.0
C857 C 0.17224 0.35464 0.63593 0.0
C858 C 0.18223 0.37681 0.6203 0.0
C859 C 0.20833 0.38716 0.62042 0.0
C860 C 0.22417 0.37588 0.63607 0.0
C861 C 0.16556 0.39053 0.6057 0.0
C862 C 0.16874 0.41707 0.61263 0.0
C863 C 0.14594 0.37759 0.58641 0.0
C864 C 0.1421 0.34982 0.5774 0.0
C865 C 0.16183 0.34122 0.56647 0.0
C866 C 0.15808 0.315 0.55811 0.0
C867 C 0.13463 0.29721 0.56046 0.0
C868 C 0.11487 0.30561 0.57111 0.0
C869 C 0.11852 0.33181 0.57948 0.0
C870 C 0.11011 0.47085 0.54676 0.0
C871 C 0.08398 0.46172 0.54875 0.0
C872 C 0.12582 0.45603 0.55623 0.0
C873 C 0.11589 0.43208 0.56881 0.0
C874 C 0.08971 0.42235 0.56983 0.0
C875 C 0.07386 0.43699 0.55971 0.0
C876 C 0.13296 0.41801 0.58208 0.0
C877 C 0.12988 0.3915 0.57491 0.0
C878 C 0.15259 0.43086 0.60143 0.0
C879 C 0.15613 0.45837 0.61131 0.0
C880 C 0.13652 0.46616 0.62364 0.0
C881 C 0.13987 0.49222 0.63241 0.0
C882 C 0.16282 0.51062 0.62918 0.0
C883 C 0.18251 0.50298 0.61727 0.0
C884 C 0.17925 0.47696 0.60844 0.0
H885 H 0.16537 0.53079 0.63596 0.0
H886 H 0.13177 0.27691 0.554 0.0
H887 H 0.67789 0.23178 0.71458 0.0
H888 H 0.65414 0.19548 0.68383 0.0
H889 H 0.61231 0.24553 0.64812 0.0
H890 H 0.63534 0.28153 0.67942 0.0
H891 H 0.58167 0.20077 0.65701 0.0
H892 H 0.66059 0.22811 0.61365 0.0
H893 H 0.70654 0.23908 0.61087 0.0
H894 H 0.70572 0.16091 0.63259 0.0
H895 H 0.65977 0.14956 0.63586 0.0
H896 H 0.53198 0.12922 0.53373 0.0
H897 H 0.55941 0.16232 0.56504 0.0
H898 H 0.58472 0.10255 0.60696 0.0
H899 H 0.55715 0.06898 0.57557 0.0
H900 H 0.62356 0.14967 0.59649 0.0
H901 H 0.54231 0.12316 0.63691 0.0
H902 H 0.49622 0.11353 0.63411 0.0
H903 H 0.50167 0.19286 0.61288 0.0
H904 H 0.54783 0.2029 0.6152 0.0
C905 C 0.66369 0.23504 0.7001 0.0
C906 C 0.65851 0.25953 0.6994 0.0
C907 C 0.65017 0.21431 0.68246 0.0
C908 C 0.63159 0.21781 0.6634 0.0
C909 C 0.62649 0.24229 0.66268 0.0
C910 C 0.63974 0.2629 0.68053 0.0
C911 C 0.61721 0.196 0.6444 0.0
C912 C 0.59091 0.1898 0.64364 0.0
C913 C 0.62915 0.18131 0.62721 0.0
C914 C 0.65678 0.18808 0.62532 0.0
C915 C 0.67024 0.21332 0.61806 0.0
C916 C 0.69627 0.2196 0.61636 0.0
C917 C 0.70905 0.20073 0.62164 0.0
C918 C 0.6958 0.17552 0.62856 0.0
C919 C 0.66976 0.16915 0.63033 0.0
C920 C 0.5435 0.12302 0.54942 0.0
C921 C 0.54215 0.0964 0.55237 0.0
C922 C 0.55916 0.142 0.56729 0.0
C923 C 0.57378 0.13479 0.58849 0.0
C924 C 0.57346 0.10842 0.59074 0.0
C925 C 0.55767 0.0893 0.57286 0.0
C926 C 0.58828 0.15479 0.6091 0.0
C927 C 0.61448 0.16058 0.61013 0.0
C928 C 0.57629 0.1694 0.6262 0.0
C929 C 0.54855 0.16374 0.62608 0.0
C930 C 0.53369 0.13854 0.63159 0.0
C931 C 0.50755 0.133 0.63007 0.0
C932 C 0.49603 0.15255 0.62326 0.0
C933 C 0.51063 0.17774 0.61815 0.0
C934 C 0.53679 0.18338 0.61962 0.0
H935 H 0.47579 0.14819 0.62195 0.0
H936 H 0.72921 0.20562 0.62029 0.0
H937 H 0.78398 0.69979 0.64237 0.0
H938 H 0.81832 0.681 0.6303 0.0
H939 H 0.79378 0.67567 0.54345 0.0
H940 H 0.75975 0.69501 0.55526 0.0
H941 H 0.80326 0.62682 0.57365 0.0
H942 H 0.83918 0.71767 0.55099 0.0
H943 H 0.85136 0.76513 0.56189 0.0
H944 H 0.89827 0.75422 0.63123 0.0
H945 H 0.88605 0.70661 0.62098 0.0
H946 H 0.90156 0.58283 0.51921 0.0
H947 H 0.86906 0.60503 0.52601 0.0
H948 H 0.91185 0.64853 0.59705 0.0
H949 H 0.94565 0.62838 0.5883 0.0
H950 H 0.89206 0.67899 0.57351 0.0
H951 H 0.85734 0.59009 0.59974 0.0
H952 H 0.84361 0.54195 0.59437 0.0
H953 H 0.79378 0.54742 0.52554 0.0
H954 H 0.80743 0.59556 0.53026 0.0
C955 C 0.78583 0.69445 0.62075 0.0
C956 C 0.76911 0.69857 0.59977 0.0
C957 C 0.80551 0.68393 0.61389 0.0
C958 C 0.80848 0.67702 0.58602 0.0
C959 C 0.79173 0.68095 0.56505 0.0
C960 C 0.7724 0.692 0.57182 0.0
C961 C 0.82879 0.66514 0.57889 0.0
C962 C 0.82269 0.63815 0.57321 0.0
C963 C 0.85407 0.67996 0.5793 0.0
C964 C 0.86147 0.70856 0.58542 0.0
C965 C 0.85187 0.72536 0.56874 0.0
C966 C 0.85884 0.75229 0.57476 0.0
C967 C 0.87552 0.76268 0.59729 0.0
C968 C 0.88532 0.74615 0.61381 0.0
C969 C 0.8784 0.7192 0.60789 0.0
C970 C 0.90432 0.59749 0.53592 0.0
C971 C 0.92639 0.60404 0.55297 0.0
C972 C 0.88543 0.6099 0.54014 0.0
C973 C 0.88753 0.62806 0.56255 0.0
C974 C 0.90964 0.63464 0.57958 0.0
C975 C 0.92897 0.62301 0.57464 0.0
C976 C 0.86681 0.6402 0.56834 0.0
C977 C 0.87273 0.66737 0.57383 0.0
C978 C 0.84135 0.62537 0.56844 0.0
C979 C 0.83356 0.59642 0.56521 0.0
C980 C 0.84362 0.58102 0.58331 0.0
C981 C 0.83582 0.55373 0.58041 0.0
C982 C 0.81783 0.54165 0.55963 0.0
C983 C 0.8077 0.55681 0.54162 0.0
C984 C 0.81545 0.58408 0.54441 0.0
H985 H 0.81165 0.52054 0.55753 0.0
H986 H 0.8809 0.78354 0.60191 0.0
H987 H 0.33287 0.41774 0.30953 0.0
H988 H 0.35032 0.43606 0.26612 0.0
H989 H 0.3775 0.36841 0.25046 0.0
H990 H 0.36048 0.35009 0.29437 0.0
H991 H 0.41171 0.41127 0.2375 0.0
H992 H 0.32434 0.37547 0.21601 0.0
H993 H 0.27902 0.36811 0.22204 0.0
H994 H 0.28614 0.44981 0.21152 0.0
H995 H 0.33158 0.45772 0.20581 0.0
H996 H 0.39883 0.4432 0.0817 0.0
H997 H 0.37917 0.42379 0.1239 0.0
H998 H 0.43277 0.48221 0.17487 0.0
H999 H 0.45268 0.50158 0.13291 0.0
H1000 H 0.35722 0.44001 0.16777 0.0
H1001 H 0.45097 0.45257 0.23123 0.0
H1002 H 0.49532 0.45631 0.22223 0.0
H1003 H 0.47358 0.41358 0.14403 0.0
H1004 H 0.42911 0.40918 0.1528 0.0
C1005 C 0.3426 0.40671 0.29694 0.0
C1006 C 0.34512 0.38232 0.30541 0.0
C1007 C 0.35249 0.4172 0.27201 0.0
C1008 C 0.36485 0.40343 0.25472 0.0
C1009 C 0.36795 0.37936 0.26339 0.0
C1010 C 0.35818 0.36889 0.28849 0.0
C1011 C 0.37439 0.41419 0.22759 0.0
C1012 C 0.39978 0.41753 0.22228 0.0
C1013 C 0.35874 0.4219 0.20737 0.0
C1014 C 0.33141 0.41721 0.21072 0.0
C1015 C 0.31627 0.3919 0.21518 0.0
C1016 C 0.29056 0.38762 0.21851 0.0
C1017 C 0.27972 0.40849 0.21723 0.0
C1018 C 0.29457 0.43367 0.21254 0.0
C1019 C 0.3203 0.43805 0.20923 0.0
C1020 C 0.40623 0.45216 0.10186 0.0
C1021 C 0.42755 0.47374 0.10392 0.0
C1022 C 0.39495 0.44103 0.12597 0.0
C1023 C 0.40481 0.45123 0.15254 0.0
C1024 C 0.42516 0.4737 0.15459 0.0
C1025 C 0.43646 0.48481 0.13054 0.0
C1026 C 0.39462 0.4377 0.17811 0.0
C1027 C 0.36912 0.43378 0.18305 0.0
C1028 C 0.41003 0.42889 0.19766 0.0
C1029 C 0.43671 0.43079 0.19257 0.0
C1030 C 0.45565 0.44384 0.2122 0.0
C1031 C 0.48081 0.44609 0.20713 0.0
C1032 C 0.48727 0.43526 0.18253 0.0
C1033 C 0.46856 0.42203 0.16304 0.0
C1034 C 0.44338 0.41966 0.16805 0.0
H1035 H 0.50676 0.43709 0.1786 0.0
H1036 H 0.25981 0.40514 0.21981 0.0
H1037 H 0.38624 0.71014 0.83948 0.0
H1038 H 0.40754 0.68898 0.87359 0.0
H1039 H 0.41074 0.63027 0.81113 0.0
H1040 H 0.38959 0.6514 0.77681 0.0
H1041 H 0.39493 0.60935 0.86297 0.0
H1042 H 0.46193 0.6772 0.82717 0.0
H1043 H 0.48324 0.72253 0.81559 0.0
H1044 H 0.48443 0.74688 0.90189 0.0
H1045 H 0.46281 0.70173 0.91392 0.0
H1046 H 0.48072 0.55188 0.93233 0.0
H1047 H 0.45669 0.57193 0.90037 0.0
H1048 H 0.47262 0.64074 0.95521 0.0
H1049 H 0.49872 0.62139 0.9858 0.0
H1050 H 0.47715 0.65676 0.90757 0.0
H1051 H 0.41089 0.58944 0.94468 0.0
H1052 H 0.38902 0.54446 0.95698 0.0
H1053 H 0.3846 0.51939 0.8706 0.0
H1054 H 0.4067 0.56416 0.85781 0.0
C1055 C 0.39151 0.69275 0.83296 0.0
C1056 C 0.38629 0.68254 0.80535 0.0
C1057 C 0.40371 0.68069 0.85249 0.0
C1058 C 0.41083 0.65808 0.8449 0.0
C1059 C 0.4054 0.64767 0.81747 0.0
C1060 C 0.39342 0.65987 0.79783 0.0
C1061 C 0.42416 0.64546 0.86549 0.0
C1062 C 0.41302 0.61957 0.87262 0.0
C1063 C 0.44742 0.65903 0.87858 0.0
C1064 C 0.46053 0.68615 0.87139 0.0
C1065 C 0.46656 0.69226 0.84364 0.0
C1066 C 0.47872 0.71791 0.837 0.0
C1067 C 0.48512 0.73759 0.85798 0.0
C1068 C 0.47943 0.73163 0.88566 0.0
C1069 C 0.46724 0.70601 0.8924 0.0
C1070 C 0.47876 0.57116 0.93766 0.0
C1071 C 0.49124 0.58504 0.96161 0.0
C1072 C 0.46482 0.5826 0.91948 0.0
C1073 C 0.4621 0.60774 0.92549 0.0
C1074 C 0.47425 0.62135 0.94993 0.0
C1075 C 0.48901 0.61026 0.96757 0.0
C1076 C 0.4479 0.62044 0.90561 0.0
C1077 C 0.45893 0.64641 0.89838 0.0
C1078 C 0.42433 0.60699 0.89273 0.0
C1079 C 0.41063 0.58014 0.90033 0.0
C1080 C 0.40535 0.57432 0.92833 0.0
C1081 C 0.3929 0.54886 0.93538 0.0
C1082 C 0.38548 0.52907 0.91459 0.0
C1083 C 0.39038 0.53473 0.88668 0.0
C1084 C 0.40283 0.56016 0.87952 0.0
H1085 H 0.3759 0.50937 0.92009 0.0
H1086 H 0.49454 0.75743 0.8528 0.0
H1087 H 0.31323 0.36694 0.79381 0.0
H1088 H 0.33957 0.38881 0.83403 0.0
H1089 H 0.40568 0.39212 0.78774 0.0
H1090 H 0.37949 0.36927 0.748 0.0
H1091 H 0.41482 0.38147 0.83764 0.0
H1092 H 0.3789 0.44567 0.79764 0.0
H1093 H 0.34567 0.46526 0.78104 0.0
H1094 H 0.3169 0.46157 0.86336 0.0
H1095 H 0.34973 0.44157 0.88036 0.0
H1096 H 0.50192 0.49056 0.90418 0.0
H1097 H 0.47067 0.46303 0.87138 0.0
H1098 H 0.41796 0.44502 0.93688 0.0
H1099 H 0.44949 0.47236 0.97029 0.0
H1100 H 0.39984 0.46102 0.88195 0.0
H1101 H 0.44071 0.39968 0.92119 0.0
H1102 H 0.47766 0.38489 0.93551 0.0
H1103 H 0.5008 0.38827 0.85074 0.0
H1104 H 0.46417 0.40347 0.83598 0.0
C1105 C 0.33339 0.37216 0.79229 0.0
C1106 C 0.34425 0.36643 0.76764 0.0
C1107 C 0.34845 0.38485 0.81526 0.0
C1108 C 0.37468 0.39266 0.81385 0.0
C1109 C 0.38553 0.38637 0.78945 0.0
C1110 C 0.37051 0.3733 0.76667 0.0
C1111 C 0.39093 0.40751 0.83755 0.0
C1112 C 0.41154 0.39894 0.84712 0.0
C1113 C 0.38657 0.43014 0.85047 0.0
C1114 C 0.36654 0.44174 0.84017 0.0
C1115 C 0.36531 0.44876 0.81213 0.0
C1116 C 0.34658 0.45999 0.80266 0.0
C1117 C 0.32912 0.46455 0.8211 0.0
C1118 C 0.33038 0.45794 0.84907 0.0
C1119 C 0.34904 0.44664 0.85863 0.0
C1120 C 0.48369 0.48081 0.91171 0.0
C1121 C 0.4782 0.48359 0.93989 0.0
C1122 C 0.46589 0.46503 0.89291 0.0
C1123 C 0.44211 0.45192 0.90177 0.0
C1124 C 0.43628 0.45497 0.92973 0.0
C1125 C 0.4543 0.47048 0.94876 0.0
C1126 C 0.42359 0.43503 0.88152 0.0
C1127 C 0.40271 0.44328 0.87262 0.0
C1128 C 0.42798 0.41248 0.86878 0.0
C1129 C 0.44978 0.40289 0.87753 0.0
C1130 C 0.45377 0.39744 0.90564 0.0
C1131 C 0.47464 0.38896 0.91382 0.0
C1132 C 0.49159 0.38569 0.89406 0.0
C1133 C 0.48766 0.39082 0.86603 0.0
C1134 C 0.46682 0.39933 0.85774 0.0
H1135 H 0.50776 0.37915 0.90044 0.0
H1136 H 0.31466 0.47329 0.81374 0.0
H1137 H 0.68396 0.40641 0.76585 0.0
H1138 H 0.67176 0.43641 0.79807 0.0
H1139 H 0.70589 0.40578 0.86708 0.0
H1140 H 0.71725 0.37477 0.83489 0.0
H1141 H 0.66216 0.40641 0.87989 0.0
H1142 H 0.72894 0.47077 0.84328 0.0
H1143 H 0.75574 0.49644 0.80828 0.0
H1144 H 0.69387 0.52295 0.77638 0.0
H1145 H 0.66654 0.49706 0.8108 0.0
H1146 H 0.61786 0.49423 0.96722 0.0
H1147 H 0.64878 0.4767 0.94362 0.0
H1148 H 0.61321 0.48366 0.86374 0.0
H1149 H 0.58213 0.50063 0.88707 0.0
H1150 H 0.66566 0.4991 0.86338 0.0
H1151 H 0.59835 0.42672 0.89398 0.0
H1152 H 0.5718 0.40179 0.9297 0.0
H1153 H 0.63717 0.39221 0.97415 0.0
H1154 H 0.66412 0.41738 0.93882 0.0
C1155 C 0.68927 0.40632 0.78782 0.0
C1156 C 0.70144 0.38807 0.79783 0.0
C1157 C 0.68245 0.42371 0.80626 0.0
C1158 C 0.68815 0.42368 0.83507 0.0
C1159 C 0.70128 0.40621 0.84497 0.0
C1160 C 0.70777 0.3885 0.82655 0.0
C1161 C 0.67786 0.4397 0.85491 0.0
C1162 C 0.66361 0.42691 0.87668 0.0
C1163 C 0.67931 0.46638 0.85064 0.0
C1164 C 0.69562 0.48176 0.82957 0.0
C1165 C 0.72096 0.48185 0.82864 0.0
C1166 C 0.73627 0.49649 0.8089 0.0
C1167 C 0.7265 0.51127 0.79008 0.0
C1168 C 0.7014 0.51147 0.79095 0.0
C1169 C 0.686 0.49682 0.81059 0.0
C1170 C 0.61683 0.49224 0.94462 0.0
C1171 C 0.59744 0.49846 0.92898 0.0
C1172 C 0.63443 0.48221 0.93121 0.0
C1173 C 0.63312 0.47874 0.90198 0.0
C1174 C 0.61453 0.48621 0.88631 0.0
C1175 C 0.5967 0.49573 0.89969 0.0
C1176 C 0.64979 0.46557 0.88758 0.0
C1177 C 0.66503 0.47885 0.86691 0.0
C1178 C 0.64945 0.43944 0.8929 0.0
C1179 C 0.63324 0.42417 0.91398 0.0
C1180 C 0.60705 0.41945 0.91149 0.0
C1181 C 0.59194 0.40526 0.93164 0.0
C1182 C 0.6028 0.39549 0.95424 0.0
C1183 C 0.62879 0.39983 0.95668 0.0
C1184 C 0.64399 0.41405 0.9366 0.0
H1185 H 0.59106 0.38451 0.96982 0.0
H1186 H 0.7384 0.52262 0.77485 0.0
H1187 H 0.69779 0.61467 0.71901 0.0
H1188 H 0.67394 0.59341 0.75796 0.0
H1189 H 0.72242 0.64951 0.81593 0.0
H1190 H 0.74653 0.67082 0.77715 0.0
H1191 H 0.70916 0.59923 0.83643 0.0
H1192 H 0.66857 0.65962 0.7936 0.0
H1193 H 0.64952 0.67765 0.75423 0.0
H1194 H 0.5948 0.60371 0.73952 0.0
H1195 H 0.61377 0.58515 0.77861 0.0
H1196 H 0.63179 0.59986 0.95167 0.0
H1197 H 0.65967 0.60897 0.91258 0.0
H1198 H 0.60281 0.55709 0.85869 0.0
H1199 H 0.57455 0.5487 0.89733 0.0
H1200 H 0.62016 0.60105 0.83449 0.0
H1201 H 0.65778 0.54168 0.88073 0.0
H1202 H 0.67745 0.52322 0.91931 0.0
H1203 H 0.7372 0.59391 0.92788 0.0
H1204 H 0.71797 0.6129 0.88941 0.0
C1205 C 0.70364 0.62229 0.74007 0.0
C1206 C 0.7239 0.64466 0.74493 0.0
C1207 C 0.68994 0.61012 0.7623 0.0
C1208 C 0.6962 0.62012 0.78978 0.0
C1209 C 0.71725 0.64152 0.79487 0.0
C1210 C 0.73094 0.65374 0.77264 0.0
C1211 C 0.67972 0.60964 0.81293 0.0
C1212 C 0.68974 0.59975 0.83619 0.0
C1213 C 0.65423 0.60975 0.81221 0.0
C1214 C 0.64275 0.62093 0.78881 0.0
C1215 C 0.6526 0.64716 0.78183 0.0
C1216 C 0.6418 0.65748 0.75959 0.0
C1217 C 0.62101 0.64181 0.74433 0.0
C1218 C 0.61094 0.61581 0.75133 0.0
C1219 C 0.62169 0.60538 0.77353 0.0
C1220 C 0.62527 0.59026 0.93154 0.0
C1221 C 0.6009 0.57359 0.92765 0.0
C1222 C 0.64133 0.5953 0.90925 0.0
C1223 C 0.63346 0.58351 0.8827 0.0
C1224 C 0.60933 0.56642 0.87895 0.0
C1225 C 0.5932 0.56159 0.90113 0.0
C1226 C 0.64954 0.59068 0.85835 0.0
C1227 C 0.63947 0.6001 0.83478 0.0
C1228 C 0.67493 0.59003 0.85884 0.0
C1229 C 0.68633 0.57879 0.88228 0.0
C1230 C 0.67502 0.55337 0.89096 0.0
C1231 C 0.6861 0.54279 0.91278 0.0
C1232 C 0.70846 0.55739 0.92609 0.0
C1233 C 0.71986 0.58262 0.91756 0.0
C1234 C 0.70892 0.59328 0.8957 0.0
H1235 H 0.71698 0.54914 0.94297 0.0
H1236 H 0.61267 0.64984 0.72712 0.0
H1237 H 0.64977 0.68077 0.27304 0.0
H1238 H 0.62591 0.65129 0.23583 0.0
H1239 H 0.69174 0.66527 0.18694 0.0
H1240 H 0.71599 0.69465 0.22441 0.0
H1241 H 0.64767 0.671 0.15752 0.0
H1242 H 0.6736 0.60851 0.21253 0.0
H1243 H 0.68033 0.58635 0.25559 0.0
H1244 H 0.60114 0.56398 0.26758 0.0
H1245 H 0.59396 0.58635 0.22481 0.0
H1246 H 0.57547 0.57763 0.05499 0.0
H1247 H 0.60947 0.60163 0.08756 0.0
H1248 H 0.55934 0.58487 0.15575 0.0
H1249 H 0.52586 0.56019 0.12371 0.0
H1250 H 0.60189 0.57866 0.17225 0.0
H1251 H 0.57625 0.6461 0.1225 0.0
H1252 H 0.56833 0.66926 0.08059 0.0
H1253 H 0.6454 0.6832 0.0598 0.0
H1254 H 0.6537 0.65984 0.10145 0.0
C1255 C 0.65928 0.67743 0.2545 0.0
C1256 C 0.68479 0.69006 0.25169 0.0
C1257 C 0.64562 0.66051 0.23328 0.0
C1258 C 0.65709 0.65603 0.20868 0.0
C1259 C 0.68258 0.66844 0.20581 0.0
C1260 C 0.69641 0.68511 0.22727 0.0
C1261 C 0.64192 0.63918 0.18571 0.0
C1262 C 0.63805 0.65063 0.16045 0.0
C1263 C 0.62904 0.61278 0.18979 0.0
C1264 C 0.63327 0.5993 0.21556 0.0
C1265 C 0.65764 0.59906 0.22448 0.0
C1266 C 0.66153 0.58642 0.24881 0.0
C1267 C 0.64118 0.57381 0.26434 0.0
C1268 C 0.61689 0.57377 0.25554 0.0
C1269 C 0.61289 0.58641 0.23123 0.0
C1270 C 0.57177 0.57913 0.07693 0.0
C1271 C 0.54795 0.5671 0.08675 0.0
C1272 C 0.59117 0.59292 0.09553 0.0
C1273 C 0.58693 0.5954 0.12414 0.0
C1274 C 0.56317 0.58324 0.13385 0.0
C1275 C 0.54398 0.56916 0.11545 0.0
C1276 C 0.60693 0.61066 0.14425 0.0
C1277 C 0.61176 0.5989 0.16903 0.0
C1278 C 0.62047 0.63685 0.13982 0.0
C1279 C 0.61552 0.65098 0.11488 0.0
C1280 C 0.59146 0.65395 0.10888 0.0
C1281 C 0.58691 0.66713 0.08519 0.0
C1282 C 0.60633 0.67762 0.06749 0.0
C1283 C 0.63036 0.67502 0.0735 0.0
C1284 C 0.63501 0.66183 0.09714 0.0
H1285 H 0.60276 0.68782 0.04917 0.0
H1286 H 0.64423 0.56402 0.28317 0.0
H1287 H 0.33367 0.67928 0.23757 0.0
H1288 H 0.35145 0.64572 0.21741 0.0
H1289 H 0.34992 0.67886 0.13631 0.0
H1290 H 0.33264 0.71282 0.15635 0.0
H1291 H 0.33063 0.62064 0.13895 0.0
H1292 H 0.40205 0.69393 0.16698 0.0
H1293 H 0.42753 0.72682 0.20102 0.0
H1294 H 0.43648 0.66574 0.2542 0.0
H1295 H 0.41073 0.63249 0.22062 0.0
H1296 H 0.41332 0.56829 0.06075 0.0
H1297 H 0.38759 0.59285 0.08359 0.0
H1298 H 0.41454 0.57489 0.16436 0.0
H1299 H 0.44122 0.55149 0.14148 0.0
H1300 H 0.41868 0.62317 0.16469 0.0
H1301 H 0.35143 0.54933 0.13766 0.0
H1302 H 0.32484 0.51457 0.10638 0.0
H1303 H 0.30585 0.57241 0.05539 0.0
H1304 H 0.33261 0.60756 0.08615 0.0
C1305 C 0.33706 0.67938 0.21543 0.0
C1306 C 0.3319 0.69876 0.19855 0.0
C1307 C 0.34717 0.6602 0.20398 0.0
C1308 C 0.35191 0.65986 0.17541 0.0
C1309 C 0.34627 0.67879 0.15839 0.0
C1310 C 0.33658 0.69825 0.16991 0.0
C1311 C 0.36382 0.64047 0.16349 0.0
C1312 C 0.34994 0.6212 0.14431 0.0
C1313 C 0.38867 0.64078 0.17136 0.0
C1314 C 0.40423 0.66076 0.19146 0.0
C1315 C 0.40925 0.68753 0.18605 0.0
C1316 C 0.42378 0.70623 0.20523 0.0
C1317 C 0.43355 0.69838 0.2298 0.0
C1318 C 0.42886 0.6718 0.23519 0.0
C1319 C 0.41432 0.65302 0.21609 0.0
C1320 C 0.41334 0.56919 0.08337 0.0
C1321 C 0.42934 0.55819 0.09938 0.0
C1322 C 0.39854 0.58314 0.09645 0.0
C1323 C 0.39895 0.58568 0.12579 0.0
C1324 C 0.41398 0.57342 0.14174 0.0
C1325 C 0.42917 0.55999 0.12866 0.0
C1326 C 0.38562 0.60305 0.13975 0.0
C1327 C 0.39926 0.62215 0.15938 0.0
C1328 C 0.36037 0.60216 0.13267 0.0
C1329 C 0.34421 0.5811 0.1141 0.0
C1330 C 0.34174 0.55465 0.11966 0.0
C1331 C 0.32661 0.53488 0.10204 0.0
C1332 C 0.31371 0.54128 0.07888 0.0
C1333 C 0.31587 0.56748 0.07333 0.0
C1334 C 0.33099 0.58734 0.09087 0.0
H1335 H 0.302 0.52594 0.06526 0.0
H1336 H 0.4448 0.71289 0.24462 0.0
H1337 H 0.62414 0.38029 0.23923 0.0
H1338 H 0.59983 0.39896 0.20592 0.0
H1339 H 0.66279 0.41887 0.15269 0.0
H1340 H 0.68715 0.3997 0.18565 0.0
H1341 H 0.63505 0.45979 0.16254 0.0
H1342 H 0.62275 0.36935 0.1325 0.0
H1343 H 0.61221 0.32188 0.13967 0.0
H1344 H 0.53907 0.323 0.16533 0.0
H1345 H 0.54934 0.37058 0.15871 0.0
H1346 H 0.56614 0.48894 0.04546 0.0
H1347 H 0.59474 0.47174 0.07469 0.0
H1348 H 0.53203 0.42651 0.11897 0.0
H1349 H 0.50342 0.44261 0.08914 0.0
H1350 H 0.56218 0.39857 0.11209 0.0
H1351 H 0.57262 0.48725 0.14448 0.0
H1352 H 0.58161 0.53502 0.14029 0.0
H1353 H 0.65575 0.53842 0.11447 0.0
H1354 H 0.64706 0.49057 0.11807 0.0
C1355 C 0.63293 0.38887 0.22059 0.0
C1356 C 0.65755 0.38843 0.21502 0.0
C1357 C 0.61899 0.39948 0.20157 0.0
C1358 C 0.62951 0.41019 0.17685 0.0
C1359 C 0.65438 0.41072 0.17169 0.0
C1360 C 0.66821 0.39968 0.19048 0.0
C1361 C 0.61402 0.41959 0.1558 0.0
C1362 C 0.61932 0.44645 0.15115 0.0
C1363 C 0.59316 0.40218 0.14157 0.0
C1364 C 0.58691 0.37356 0.14538 0.0
C1365 C 0.60451 0.35951 0.13992 0.0
C1366 C 0.59856 0.33258 0.14383 0.0
C1367 C 0.57501 0.31944 0.15302 0.0
C1368 C 0.55732 0.3332 0.15825 0.0
C1369 C 0.56319 0.36015 0.1544 0.0
C1370 C 0.55846 0.47507 0.0612 0.0
C1371 C 0.53249 0.46713 0.0649 0.0
C1372 C 0.57484 0.46542 0.07808 0.0
C1373 C 0.56565 0.44817 0.09947 0.0
C1374 C 0.53966 0.43975 0.10266 0.0
C1375 C 0.52328 0.44898 0.0855 0.0
C1376 C 0.58289 0.43901 0.11883 0.0
C1377 C 0.57795 0.41207 0.12325 0.0
C1378 C 0.60378 0.45647 0.13324 0.0
C1379 C 0.60909 0.48528 0.13124 0.0
C1380 C 0.59078 0.49816 0.13771 0.0
C1381 C 0.59583 0.52526 0.13546 0.0
C1382 C 0.61922 0.53974 0.12704 0.0
C1383 C 0.63762 0.52716 0.12093 0.0
C1384 C 0.63265 0.50005 0.12308 0.0
H1385 H 0.62313 0.5607 0.12529 0.0
H1386 H 0.57044 0.29858 0.15603 0.0
loop_
_geom_bond_atom_site_label_1
_geom_bond_atom_site_label_2
_geom_bond_distance
_geom_bond_site_symmetry_2
_ccdc_geom_bond_type
O0 Cd1 2.300 . S
O0 C7 1.275 . S
Cd1 O0 2.300 . S
Cd1 O9 2.381 . S
Cd1 O10 2.378 . S
O2 Cd3 2.385 . S
O2 C7 1.255 . S
Cd3 O2 2.385 . S
Cd3 O4 2.317 . S
O4 Cd3 2.317 . S
O4 C5 1.232 . S
C5 O4 1.232 . S
C5 O6 1.218 . S
O6 C5 1.218 . S
C7 O0 1.275 . S
C7 O2 1.255 . S
C8 O9 1.258 . S
C8 O10 1.256 . S
O9 Cd1 2.381 . S
O9 C8 1.258 . S
O10 Cd1 2.378 . S
O10 C8 1.256 . S
O11 Cd12 2.300 . S
O11 C18 1.275 . S
Cd12 O11 2.300 . S
Cd12 O20 2.381 . S
Cd12 O21 2.378 . S
O13 Cd14 2.385 . S
O13 C18 1.255 . S
Cd14 O13 2.385 . S
Cd14 O15 2.317 . S
O15 Cd14 2.317 . S
O15 C16 1.232 . S
C16 O15 1.232 . S
C16 O17 1.218 . S
O17 C16 1.218 . S
C18 O11 1.275 . S
C18 O13 1.255 . S
C19 O20 1.258 . S
C19 O21 1.256 . S
O20 Cd12 2.381 . S
O20 C19 1.258 . S
O21 Cd12 2.378 . S
O21 C19 1.256 . S
O22 Cd23 2.300 . S
O22 C29 1.275 . S
Cd23 O22 2.300 . S
Cd23 O31 2.381 . S
Cd23 O32 2.378 . S
O24 Cd25 2.385 . S
O24 C29 1.255 . S
Cd25 O24 2.385 . S
Cd25 O26 2.317 . S
O26 Cd25 2.317 . S
O26 C27 1.232 . S
C27 O26 1.232 . S
C27 O28 1.218 . S
O28 C27 1.218 . S
C29 O22 1.275 . S
C29 O24 1.255 . S
C30 O31 1.258 . S
C30 O32 1.256 . S
O31 Cd23 2.381 . S
O31 C30 1.258 . S
O32 Cd23 2.378 . S
O32 C30 1.256 . S
O33 Cd34 2.300 . S
O33 C40 1.275 . S
Cd34 O33 2.300 . S
Cd34 O42 2.381 . S
Cd34 O43 2.378 . S
O35 Cd36 2.385 . S
O35 C40 1.255 . S
Cd36 O35 2.385 . S
Cd36 O37 2.317 . S
O37 Cd36 2.317 . S
O37 C38 1.232 . S
C38 O37 1.232 . S
C38 O39 1.218 . S
O39 C38 1.218 . S
C40 O33 1.275 . S
C40 O35 1.255 . S
C41 O42 1.258 . S
C41 O43 1.256 . S
O42 Cd34 2.381 . S
O42 C41 1.258 . S
O43 Cd34 2.378 . S
O43 C41 1.256 . S
O44 Cd45 2.300 . S
O44 C51 1.275 . S
Cd45 O44 2.300 . S
Cd45 O53 2.381 . S
Cd45 O54 2.378 . S
O46 Cd47 2.385 . S
O46 C51 1.255 . S
Cd47 O46 2.385 . S
Cd47 O48 2.317 . S
O48 Cd47 2.317 . S
O48 C49 1.232 . S
C49 O48 1.232 . S
C49 O50 1.218 . S
O50 C49 1.218 . S
C51 O44 1.275 . S
C51 O46 1.255 . S
C52 O53 1.258 . S
C52 O54 1.256 . S
O53 Cd45 2.381 . S
O53 C52 1.258 . S
O54 Cd45 2.378 . S
O54 C52 1.256 . S
O55 Cd56 2.300 . S
O55 C62 1.275 . S
Cd56 O55 2.300 . S
Cd56 O64 2.381 . S
Cd56 O65 2.378 . S
O57 Cd58 2.385 . S
O57 C62 1.255 . S
Cd58 O57 2.385 . S
Cd58 O59 2.317 . S
O59 Cd58 2.317 . S
O59 C60 1.232 . S
C60 O59 1.232 . S
C60 O61 1.218 . S
O61 C60 1.218 . S
C62 O55 1.275 . S
C62 O57 1.255 . S
C63 O64 1.258 . S
C63 O65 1.256 . S
O64 Cd56 2.381 . S
O64 C63 1.258 . S
O65 Cd56 2.378 . S
O65 C63 1.256 . S
O66 Cd67 2.300 . S
O66 C73 1.275 . S
Cd67 O66 2.300 . S
Cd67 O75 2.381 . S
Cd67 O76 2.378 . S
O68 Cd69 2.385 . S
O68 C73 1.255 . S
Cd69 O68 2.385 . S
Cd69 O70 2.317 . S
O70 Cd69 2.317 . S
O70 C71 1.232 . S
C71 O70 1.232 . S
C71 O72 1.218 . S
O72 C71 1.218 . S
C73 O66 1.275 . S
C73 O68 1.255 . S
C74 O75 1.258 . S
C74 O76 1.256 . S
O75 Cd67 2.381 . S
O75 C74 1.258 . S
O76 Cd67 2.378 . S
O76 C74 1.256 . S
O77 Cd78 2.300 . S
O77 C84 1.275 . S
Cd78 O77 2.300 . S
Cd78 O86 2.381 . S
Cd78 O87 2.378 . S
O79 Cd80 2.385 . S
O79 C84 1.255 . S
Cd80 O79 2.385 . S
Cd80 O81 2.317 . S
O81 Cd80 2.317 . S
O81 C82 1.232 . S
C82 O81 1.232 . S
C82 O83 1.218 . S
O83 C82 1.218 . S
C84 O77 1.275 . S
C84 O79 1.255 . S
C85 O86 1.258 . S
C85 O87 1.256 . S
O86 Cd78 2.381 . S
O86 C85 1.258 . S
O87 Cd78 2.378 . S
O87 C85 1.256 . S
Co88 O91 2.042 . S
Co88 O98 2.264 . S
Co88 O117 2.286 . S
Co88 O118 2.069 . S
Co88 O120 2.015 . S
Co89 O91 2.122 . S
Co89 O97 2.073 . S
Co89 O98 2.327 . S
Co89 O99 1.976 . S
Co90 O91 2.087 . S
Co90 O93 2.087 1_455 S
Co90 O100 2.111 . S
Co90 O101 2.143 1_455 S
Co90 O105 2.111 1_455 S
Co90 O119 2.143 . S
O91 Co88 2.042 . S
O91 Co89 2.122 . S
O91 Co90 2.087 . S
O91 H92 0.980 . S
H92 O91 0.980 . S
O93 Co90 2.087 1_655 S
O93 Co94 2.042 . S
O93 Co95 2.122 . S
O93 H96 0.980 1_655 S
Co94 O93 2.042 . S
Co94 O102 2.286 . S
Co94 O103 2.069 . S
Co94 O104 2.015 . S
Co94 O107 2.264 . S
Co95 O93 2.122 . S
Co95 O106 1.976 . S
Co95 O107 2.327 . S
Co95 O108 2.073 . S
H96 O93 0.980 1_455 S
O97 Co89 2.073 . S
O97 C112 1.245 . S
O98 Co88 2.264 . S
O98 Co89 2.327 . S
O98 C112 1.257 . S
O99 Co89 1.976 . S
O99 C111 1.251 . S
O100 Co90 2.111 . S
O100 C111 1.274 . S
O101 Co90 2.143 1_655 S
O101 C114 1.246 . S
O102 Co94 2.286 . S
O102 C113 1.259 . S
O103 Co94 2.069 . S
O103 C113 1.289 . S
O104 Co94 2.015 . S
O104 C114 1.257 . S
O105 Co90 2.111 1_655 S
O105 C115 1.274 . S
O106 Co95 1.976 . S
O106 C115 1.251 . S
O107 Co94 2.264 . S
O107 Co95 2.327 . S
O107 C116 1.257 . S
O108 Co95 2.073 . S
O108 C116 1.245 . S
C109 O117 1.259 . S
C109 O118 1.289 . S
C110 O119 1.246 . S
C110 O120 1.257 . S
C111 O99 1.251 . S
C111 O100 1.274 . S
C112 O97 1.245 . S
C112 O98 1.257 . S
C113 O102 1.259 . S
C113 O103 1.289 . S
C114 O101 1.246 . S
C114 O104 1.257 . S
C115 O105 1.274 . S
C115 O106 1.251 . S
C116 O107 1.257 . S
C116 O108 1.245 . S
O117 Co88 2.286 . S
O117 C109 1.259 . S
O118 Co88 2.069 . S
O118 C109 1.289 . S
O119 Co90 2.143 . S
O119 C110 1.246 . S
O120 Co88 2.015 . S
O120 C110 1.257 . S
Co121 O124 2.042 . S
Co121 O131 2.264 . S
Co121 O150 2.286 . S
Co121 O151 2.069 . S
Co121 O153 2.015 . S
Co122 O124 2.122 . S
Co122 O130 2.073 . S
Co122 O131 2.327 . S
Co122 O132 1.976 . S
Co123 O124 2.087 1_545 S
Co123 O126 2.087 . S
Co123 O133 2.118 . S
Co123 O134 2.143 . S
Co123 O138 2.111 . S
Co123 O152 2.143 1_545 S
O124 Co121 2.042 . S
O124 Co122 2.122 . S
O124 Co123 2.087 1_565 S
O124 H125 0.980 1_565 S
H125 O124 0.980 1_545 S
O126 Co123 2.087 . S
O126 Co127 2.042 . S
O126 Co128 2.122 . S
O126 H129 0.980 . S
Co127 O126 2.042 . S
Co127 O135 2.286 . S
Co127 O136 2.069 . S
Co127 O137 2.015 . S
Co127 O140 2.264 . S
Co128 O126 2.122 . S
Co128 O139 1.976 . S
Co128 O140 2.327 . S
Co128 O141 2.073 . S
H129 O126 0.980 . S
O130 Co122 2.073 . S
O130 C145 1.245 . S
O131 Co121 2.264 . S
O131 Co122 2.327 . S
O131 C145 1.257 . S
O132 Co122 1.976 . S
O132 C144 1.251 . S
O133 Co123 2.118 . S
O133 C144 1.255 1_545 S
O134 Co123 2.143 . S
O134 C147 1.246 . S
O135 Co127 2.286 . S
O135 C146 1.259 . S
O136 Co127 2.069 . S
O136 C146 1.289 . S
O137 Co127 2.015 . S
O137 C147 1.257 . S
O138 Co123 2.111 . S
O138 C148 1.274 . S
O139 Co128 1.976 . S
O139 C148 1.251 . S
O140 Co127 2.264 . S
O140 Co128 2.327 . S
O140 C149 1.257 . S
O141 Co128 2.073 . S
O141 C149 1.245 . S
C142 O150 1.259 . S
C142 O151 1.289 . S
C143 O152 1.246 . S
C143 O153 1.257 . S
C144 O132 1.251 . S
C144 O133 1.255 1_565 S
C145 O130 1.245 . S
C145 O131 1.257 . S
C146 O135 1.259 . S
C146 O136 1.289 . S
C147 O134 1.246 . S
C147 O137 1.257 . S
C148 O138 1.274 . S
C148 O139 1.251 . S
C149 O140 1.257 . S
C149 O141 1.245 . S
O150 Co121 2.286 . S
O150 C142 1.259 . S
O151 Co121 2.069 . S
O151 C142 1.289 . S
O152 Co123 2.143 1_565 S
O152 C143 1.246 . S
O153 Co121 2.015 . S
O153 C143 1.257 . S
Co154 O157 2.042 . S
Co154 O164 2.264 . S
Co154 O183 2.286 . S
Co154 O184 2.069 . S
Co154 O186 2.015 . S
Co155 O157 2.122 . S
Co155 O163 2.073 . S
Co155 O164 2.327 . S
Co155 O165 1.976 . S
Co156 O157 2.087 . S
Co156 O159 2.087 1_554 S
Co156 O166 2.111 . S
Co156 O167 2.143 1_554 S
Co156 O171 2.111 1_554 S
Co156 O185 2.143 . S
O157 Co154 2.042 . S
O157 Co155 2.122 . S
O157 Co156 2.087 . S
O157 H158 0.980 . S
H158 O157 0.980 . S
O159 Co156 2.087 1_556 S
O159 Co160 2.042 . S
O159 Co161 2.122 . S
O159 H162 0.980 . S
Co160 O159 2.042 . S
Co160 O168 2.286 . S
Co160 O169 2.069 . S
Co160 O170 2.015 . S
Co160 O173 2.264 . S
Co161 O159 2.122 . S
Co161 O172 1.976 . S
Co161 O173 2.327 . S
Co161 O174 2.073 . S
H162 O159 0.980 . S
O163 Co155 2.073 . S
O163 C178 1.245 . S
O164 Co154 2.264 . S
O164 Co155 2.327 . S
O164 C178 1.257 . S
O165 Co155 1.976 . S
O165 C177 1.251 . S
O166 Co156 2.111 . S
O166 C177 1.274 . S
O167 Co156 2.143 1_556 S
O167 C180 1.246 . S
O168 Co160 2.286 . S
O168 C179 1.259 . S
O169 Co160 2.069 . S
O169 C179 1.289 . S
O170 Co160 2.015 . S
O170 C180 1.257 . S
O171 Co156 2.111 1_556 S
O171 C181 1.274 . S
O172 Co161 1.976 . S
O172 C181 1.251 . S
O173 Co160 2.264 . S
O173 Co161 2.327 . S
O173 C182 1.257 . S
O174 Co161 2.073 . S
O174 C182 1.245 . S
C175 O183 1.259 . S
C175 O184 1.289 . S
C176 O185 1.246 . S
C176 O186 1.257 . S
C177 O165 1.251 . S
C177 O166 1.274 . S
C178 O163 1.245 . S
C178 O164 1.257 . S
C179 O168 1.259 . S
C179 O169 1.289 . S
C180 O167 1.246 . S
C180 O170 1.257 . S
C181 O171 1.274 . S
C181 O172 1.251 . S
C182 O173 1.257 . S
C182 O174 1.245 . S
O183 Co154 2.286 . S
O183 C175 1.259 . S
O184 Co154 2.069 . S
O184 C175 1.289 . S
O185 Co156 2.143 . S
O185 C176 1.246 . S
O186 Co154 2.015 . S
O186 C176 1.257 . S
H187 C205 0.951 . S
H188 C207 0.951 . S
H189 C209 0.950 . S
H190 C210 0.950 . S
H191 C212 0.950 . S
H192 C215 0.950 . S
H193 C216 0.950 . S
H194 C218 0.950 . S
H195 C219 0.950 . S
H196 C220 0.951 . S
H197 C222 0.951 . S
H198 C224 0.950 . S
H199 C225 0.950 . S
H200 C227 0.950 . S
H201 C230 0.950 . S
H202 C231 0.950 . S
H203 C233 0.950 . S
H204 C234 0.950 . S
C205 H187 0.951 . S
C205 C206 1.366 . S
C205 C207 1.388 . S
C206 C205 1.366 . S
C206 C210 1.385 . S
C207 H188 0.951 . S
C207 C205 1.388 . S
C207 C208 1.366 . S
C208 C207 1.366 . S
C208 C209 1.414 . S
C208 C211 1.499 . S
C209 H189 0.950 . S
C209 C208 1.414 . S
C209 C210 1.374 . S
C210 H190 0.950 . S
C210 C206 1.385 . S
C210 C209 1.374 . S
C211 C208 1.499 . S
C211 C212 1.373 . S
C211 C213 1.389 . S
C212 H191 0.950 . S
C212 C211 1.373 . S
C212 C228 1.377 . S
C213 C211 1.389 . S
C213 C214 1.524 . S
C213 C227 1.377 . S
C214 C213 1.524 . S
C214 C215 1.397 . S
C214 C219 1.363 . S
C215 H192 0.950 . S
C215 C214 1.397 . S
C215 C216 1.334 . S
C216 H193 0.950 . S
C216 C215 1.334 . S
C216 C217 1.287 . S
C217 C216 1.287 . S
C217 C218 1.524 . S
C217 H236 0.913 . S
C218 H194 0.950 . S
C218 C217 1.524 . S
C218 C219 1.415 . S
C219 H195 0.950 . S
C219 C214 1.363 . S
C219 C218 1.415 . S
C220 H196 0.951 . S
C220 C221 1.366 . S
C220 C222 1.388 . S
C221 C220 1.366 . S
C221 C225 1.385 . S
C222 H197 0.951 . S
C222 C220 1.388 . S
C222 C223 1.366 . S
C223 C222 1.366 . S
C223 C224 1.414 . S
C223 C226 1.499 . S
C224 H198 0.950 . S
C224 C223 1.414 . S
C224 C225 1.374 . S
C225 H199 0.950 . S
C225 C221 1.385 . S
C225 C224 1.374 . S
C226 C223 1.499 . S
C226 C227 1.373 . S
C226 C228 1.389 . S
C227 H200 0.950 . S
C227 C213 1.377 . S
C227 C226 1.373 . S
C228 C212 1.377 . S
C228 C226 1.389 . S
C228 C229 1.524 . S
C229 C228 1.524 . S
C229 C230 1.397 . S
C229 C234 1.363 . S
C230 H201 0.950 . S
C230 C229 1.397 . S
C230 C231 1.334 . S
C231 H202 0.950 . S
C231 C230 1.334 . S
C231 C232 1.287 . S
C232 C231 1.287 . S
C232 C233 1.524 . S
C232 H235 0.999 . S
C233 H203 0.950 . S
C233 C232 1.524 . S
C233 C234 1.415 . S
C234 H204 0.950 . S
C234 C229 1.363 . S
C234 C233 1.415 . S
H235 C232 0.999 . S
H236 C217 0.913 . S
H237 C255 0.951 . S
H238 C257 0.951 . S
H239 C259 0.950 . S
H240 C260 0.950 . S
H241 C262 0.950 . S
H242 C265 0.950 . S
H243 C266 0.950 . S
H244 C268 0.950 . S
H245 C269 0.950 . S
H246 C270 0.951 . S
H247 C272 0.951 . S
H248 C274 0.950 . S
H249 C275 0.950 . S
H250 C277 0.950 . S
H251 C280 0.950 . S
H252 C281 0.950 . S
H253 C283 0.950 . S
H254 C284 0.950 . S
C255 H237 0.951 . S
C255 C256 1.366 . S
C255 C257 1.388 . S
C256 C255 1.366 . S
C256 C260 1.385 . S
C257 H238 0.951 . S
C257 C255 1.388 . S
C257 C258 1.366 . S
C258 C257 1.366 . S
C258 C259 1.414 . S
C258 C261 1.499 . S
C259 H239 0.950 . S
C259 C258 1.414 . S
C259 C260 1.374 . S
C260 H240 0.950 . S
C260 C256 1.385 . S
C260 C259 1.374 . S
C261 C258 1.499 . S
C261 C262 1.373 . S
C261 C263 1.389 . S
C262 H241 0.950 . S
C262 C261 1.373 . S
C262 C278 1.377 . S
C263 C261 1.389 . S
C263 C264 1.524 . S
C263 C277 1.377 . S
C264 C263 1.524 . S
C264 C265 1.397 . S
C264 C269 1.363 . S
C265 H242 0.950 . S
C265 C264 1.397 . S
C265 C266 1.334 . S
C266 H243 0.950 . S
C266 C265 1.334 . S
C266 C267 1.287 . S
C267 C266 1.287 . S
C267 C268 1.524 . S
C267 H286 0.913 . S
C268 H244 0.950 . S
C268 C267 1.524 . S
C268 C269 1.415 . S
C269 H245 0.950 . S
C269 C264 1.363 . S
C269 C268 1.415 . S
C270 H246 0.951 . S
C270 C271 1.366 . S
C270 C272 1.388 . S
C271 C270 1.366 . S
C271 C275 1.385 . S
C272 H247 0.951 . S
C272 C270 1.388 . S
C272 C273 1.366 . S
C273 C272 1.366 . S
C273 C274 1.414 . S
C273 C276 1.499 . S
C274 H248 0.950 . S
C274 C273 1.414 . S
C274 C275 1.374 . S
C275 H249 0.950 . S
C275 C271 1.385 . S
C275 C274 1.374 . S
C276 C273 1.499 . S
C276 C277 1.373 . S
C276 C278 1.389 . S
C277 H250 0.950 . S
C277 C263 1.377 . S
C277 C276 1.373 . S
C278 C262 1.377 . S
C278 C276 1.389 . S
C278 C279 1.524 . S
C279 C278 1.524 . S
C279 C280 1.397 . S
C279 C284 1.363 . S
C280 H251 0.950 . S
C280 C279 1.397 . S
C280 C281 1.334 . S
C281 H252 0.950 . S
C281 C280 1.334 . S
C281 C282 1.287 . S
C282 C281 1.287 . S
C282 C283 1.524 . S
C282 H285 0.999 . S
C283 H253 0.950 . S
C283 C282 1.524 . S
C283 C284 1.415 . S
C284 H254 0.950 . S
C284 C279 1.363 . S
C284 C283 1.415 . S
H285 C282 0.999 . S
H286 C267 0.913 . S
H287 C305 0.951 . S
H288 C307 0.951 . S
H289 C309 0.950 . S
H290 C310 0.950 . S
H291 C312 0.950 . S
H292 C315 0.950 . S
H293 C316 0.950 . S
H294 C318 0.950 . S
H295 C319 0.950 . S
H296 C320 0.951 . S
H297 C322 0.951 . S
H298 C324 0.950 . S
H299 C325 0.950 . S
H300 C327 0.950 . S
H301 C330 0.950 . S
H302 C331 0.950 . S
H303 C333 0.950 . S
H304 C334 0.950 . S
C305 H287 0.951 . S
C305 C306 1.366 . S
C305 C307 1.388 . S
C306 C305 1.366 . S
C306 C310 1.385 . S
C307 H288 0.951 . S
C307 C305 1.388 . S
C307 C308 1.366 . S
C308 C307 1.366 . S
C308 C309 1.414 . S
C308 C311 1.499 . S
C309 H289 0.950 . S
C309 C308 1.414 . S
C309 C310 1.374 . S
C310 H290 0.950 . S
C310 C306 1.385 . S
C310 C309 1.374 . S
C311 C308 1.499 . S
C311 C312 1.373 . S
C311 C313 1.389 . S
C312 H291 0.950 . S
C312 C311 1.373 . S
C312 C328 1.377 . S
C313 C311 1.389 . S
C313 C314 1.524 . S
C313 C327 1.377 . S
C314 C313 1.524 . S
C314 C315 1.397 . S
C314 C319 1.363 . S
C315 H292 0.950 . S
C315 C314 1.397 . S
C315 C316 1.334 . S
C316 H293 0.950 . S
C316 C315 1.334 . S
C316 C317 1.287 . S
C317 C316 1.287 . S
C317 C318 1.524 . S
C317 H336 0.913 . S
C318 H294 0.950 . S
C318 C317 1.524 . S
C318 C319 1.415 . S
C319 H295 0.950 . S
C319 C314 1.363 . S
C319 C318 1.415 . S
C320 H296 0.951 . S
C320 C321 1.366 . S
C320 C322 1.388 . S
C321 C320 1.366 . S
C321 C325 1.385 . S
C322 H297 0.951 . S
C322 C320 1.388 . S
C322 C323 1.366 . S
C323 C322 1.366 . S
C323 C324 1.414 . S
C323 C326 1.499 . S
C324 H298 0.950 . S
C324 C323 1.414 . S
C324 C325 1.374 . S
C325 H299 0.950 . S
C325 C321 1.385 . S
C325 C324 1.374 . S
C326 C323 1.499 . S
C326 C327 1.373 . S
C326 C328 1.389 . S
C327 H300 0.950 . S
C327 C313 1.377 . S
C327 C326 1.373 . S
C328 C312 1.377 . S
C328 C326 1.389 . S
C328 C329 1.524 . S
C329 C328 1.524 . S
C329 C330 1.397 . S
C329 C334 1.363 . S
C330 H301 0.950 . S
C330 C329 1.397 . S
C330 C331 1.334 . S
C331 H302 0.950 . S
C331 C330 1.334 . S
C331 C332 1.287 . S
C332 C331 1.287 . S
C332 C333 1.524 . S
C332 H335 0.999 . S
C333 H303 0.950 . S
C333 C332 1.524 . S
C333 C334 1.415 . S
C334 H304 0.950 . S
C334 C329 1.363 . S
C334 C333 1.415 . S
H335 C332 0.999 . S
H336 C317 0.913 . S
H337 C355 0.951 . S
H338 C357 0.951 . S
H339 C359 0.950 . S
H340 C360 0.950 . S
H341 C362 0.950 . S
H342 C365 0.950 . S
H343 C366 0.950 . S
H344 C368 0.950 . S
H345 C369 0.950 . S
H346 C370 0.951 . S
H347 C372 0.951 . S
H348 C374 0.950 . S
H349 C375 0.950 . S
H350 C377 0.950 . S
H351 C380 0.950 . S
H352 C381 0.950 . S
H353 C383 0.950 . S
H354 C384 0.950 . S
C355 H337 0.951 . S
C355 C356 1.366 . S
C355 C357 1.388 . S
C356 C355 1.366 . S
C356 C360 1.385 . S
C357 H338 0.951 . S
C357 C355 1.388 . S
C357 C358 1.366 . S
C358 C357 1.366 . S
C358 C359 1.414 . S
C358 C361 1.499 . S
C359 H339 0.950 . S
C359 C358 1.414 . S
C359 C360 1.374 . S
C360 H340 0.950 . S
C360 C356 1.385 . S
C360 C359 1.374 . S
C361 C358 1.499 . S
C361 C362 1.373 . S
C361 C363 1.389 . S
C362 H341 0.950 . S
C362 C361 1.373 . S
C362 C378 1.377 . S
C363 C361 1.389 . S
C363 C364 1.524 . S
C363 C377 1.377 . S
C364 C363 1.524 . S
C364 C365 1.397 . S
C364 C369 1.363 . S
C365 H342 0.950 . S
C365 C364 1.397 . S
C365 C366 1.334 . S
C366 H343 0.950 . S
C366 C365 1.334 . S
C366 C367 1.287 . S
C367 C366 1.287 . S
C367 C368 1.524 . S
C367 H386 0.913 . S
C368 H344 0.950 . S
C368 C367 1.524 . S
C368 C369 1.415 . S
C369 H345 0.950 . S
C369 C364 1.363 . S
C369 C368 1.415 . S
C370 H346 0.951 . S
C370 C371 1.366 . S
C370 C372 1.388 . S
C371 C370 1.366 . S
C371 C375 1.385 . S
C372 H347 0.951 . S
C372 C370 1.388 . S
C372 C373 1.366 . S
C373 C372 1.366 . S
C373 C374 1.414 . S
C373 C376 1.499 . S
C374 H348 0.950 . S
C374 C373 1.414 . S
C374 C375 1.374 . S
C375 H349 0.950 . S
C375 C371 1.385 . S
C375 C374 1.374 . S
C376 C373 1.499 . S
C376 C377 1.373 . S
C376 C378 1.389 . S
C377 H350 0.950 . S
C377 C363 1.377 . S
C377 C376 1.373 . S
C378 C362 1.377 . S
C378 C376 1.389 . S
C378 C379 1.524 . S
C379 C378 1.524 . S
C379 C380 1.397 . S
C379 C384 1.363 . S
C380 H351 0.950 . S
C380 C379 1.397 . S
C380 C381 1.334 . S
C381 H352 0.950 . S
C381 C380 1.334 . S
C381 C382 1.287 . S
C382 C381 1.287 . S
C382 C383 1.524 . S
C382 H385 0.999 . S
C383 H353 0.950 . S
C383 C382 1.524 . S
C383 C384 1.415 . S
C384 H354 0.950 . S
C384 C379 1.363 . S
C384 C383 1.415 . S
H385 C382 0.999 . S
H386 C367 0.913 . S
H387 C405 0.951 . S
H388 C407 0.951 . S
H389 C409 0.950 . S
H390 C410 0.950 . S
H391 C412 0.950 . S
H392 C415 0.950 . S
H393 C416 0.950 . S
H394 C418 0.950 . S
H395 C419 0.950 . S
H396 C420 0.951 . S
H397 C422 0.951 . S
H398 C424 0.950 . S
H399 C425 0.950 . S
H400 C427 0.950 . S
H401 C430 0.950 . S
H402 C431 0.950 . S
H403 C433 0.950 . S
H404 C434 0.950 . S
C405 H387 0.951 . S
C405 C406 1.366 . S
C405 C407 1.388 . S
C406 C405 1.366 . S
C406 C410 1.385 . S
C407 H388 0.951 . S
C407 C405 1.388 . S
C407 C408 1.366 . S
C408 C407 1.366 . S
C408 C409 1.414 . S
C408 C411 1.499 . S
C409 H389 0.950 . S
C409 C408 1.414 . S
C409 C410 1.374 . S
C410 H390 0.950 . S
C410 C406 1.385 . S
C410 C409 1.374 . S
C411 C408 1.499 . S
C411 C412 1.373 . S
C411 C413 1.389 . S
C412 H391 0.950 . S
C412 C411 1.373 . S
C412 C428 1.377 . S
C413 C411 1.389 . S
C413 C414 1.524 . S
C413 C427 1.377 . S
C414 C413 1.524 . S
C414 C415 1.397 . S
C414 C419 1.363 . S
C415 H392 0.950 . S
C415 C414 1.397 . S
C415 C416 1.334 . S
C416 H393 0.950 . S
C416 C415 1.334 . S
C416 C417 1.287 . S
C417 C416 1.287 . S
C417 C418 1.524 . S
C417 H436 0.913 . S
C418 H394 0.950 . S
C418 C417 1.524 . S
C418 C419 1.415 . S
C419 H395 0.950 . S
C419 C414 1.363 . S
C419 C418 1.415 . S
C420 H396 0.951 . S
C420 C421 1.366 . S
C420 C422 1.388 . S
C421 C420 1.366 . S
C421 C425 1.385 . S
C422 H397 0.951 . S
C422 C420 1.388 . S
C422 C423 1.366 . S
C423 C422 1.366 . S
C423 C424 1.414 . S
C423 C426 1.499 . S
C424 H398 0.950 . S
C424 C423 1.414 . S
C424 C425 1.374 . S
C425 H399 0.950 . S
C425 C421 1.385 . S
C425 C424 1.374 . S
C426 C423 1.499 . S
C426 C427 1.373 . S
C426 C428 1.389 . S
C427 H400 0.950 . S
C427 C413 1.377 . S
C427 C426 1.373 . S
C428 C412 1.377 . S
C428 C426 1.389 . S
C428 C429 1.524 . S
C429 C428 1.524 . S
C429 C430 1.397 . S
C429 C434 1.363 . S
C430 H401 0.950 . S
C430 C429 1.397 . S
C430 C431 1.334 . S
C431 H402 0.950 . S
C431 C430 1.334 . S
C431 C432 1.287 . S
C432 C431 1.287 . S
C432 C433 1.524 . S
C432 H435 0.999 . S
C433 H403 0.950 . S
C433 C432 1.524 . S
C433 C434 1.415 . S
C434 H404 0.950 . S
C434 C429 1.363 . S
C434 C433 1.415 . S
H435 C432 0.999 . S
H436 C417 0.913 . S
H437 C455 0.951 . S
H438 C457 0.951 . S
H439 C459 0.950 . S
H440 C460 0.950 . S
H441 C462 0.950 . S
H442 C465 0.950 . S
H443 C466 0.950 . S
H444 C468 0.950 . S
H445 C469 0.950 . S
H446 C470 0.951 . S
H447 C472 0.951 . S
H448 C474 0.950 . S
H449 C475 0.950 . S
H450 C477 0.950 . S
H451 C480 0.950 . S
H452 C481 0.950 . S
H453 C483 0.950 . S
H454 C484 0.950 . S
C455 H437 0.951 . S
C455 C456 1.366 . S
C455 C457 1.388 . S
C456 C455 1.366 . S
C456 C460 1.385 . S
C457 H438 0.951 . S
C457 C455 1.388 . S
C457 C458 1.366 . S
C458 C457 1.366 . S
C458 C459 1.414 . S
C458 C461 1.499 . S
C459 H439 0.950 . S
C459 C458 1.414 . S
C459 C460 1.374 . S
C460 H440 0.950 . S
C460 C456 1.385 . S
C460 C459 1.374 . S
C461 C458 1.499 . S
C461 C462 1.373 . S
C461 C463 1.389 . S
C462 H441 0.950 . S
C462 C461 1.373 . S
C462 C478 1.377 . S
C463 C461 1.389 . S
C463 C464 1.524 . S
C463 C477 1.377 . S
C464 C463 1.524 . S
C464 C465 1.397 . S
C464 C469 1.363 . S
C465 H442 0.950 . S
C465 C464 1.397 . S
C465 C466 1.334 . S
C466 H443 0.950 . S
C466 C465 1.334 . S
C466 C467 1.287 . S
C467 C466 1.287 . S
C467 C468 1.524 . S
C467 H486 0.913 . S
C468 H444 0.950 . S
C468 C467 1.524 . S
C468 C469 1.415 . S
C469 H445 0.950 . S
C469 C464 1.363 . S
C469 C468 1.415 . S
C470 H446 0.951 . S
C470 C471 1.366 . S
C470 C472 1.388 . S
C471 C470 1.366 . S
C471 C475 1.385 . S
C472 H447 0.951 . S
C472 C470 1.388 . S
C472 C473 1.366 . S
C473 C472 1.366 . S
C473 C474 1.414 . S
C473 C476 1.499 . S
C474 H448 0.950 . S
C474 C473 1.414 . S
C474 C475 1.374 . S
C475 H449 0.950 . S
C475 C471 1.385 . S
C475 C474 1.374 . S
C476 C473 1.499 . S
C476 C477 1.373 . S
C476 C478 1.389 . S
C477 H450 0.950 . S
C477 C463 1.377 . S
C477 C476 1.373 . S
C478 C462 1.377 . S
C478 C476 1.389 . S
C478 C479 1.524 . S
C479 C478 1.524 . S
C479 C480 1.397 . S
C479 C484 1.363 . S
C480 H451 0.950 . S
C480 C479 1.397 . S
C480 C481 1.334 . S
C481 H452 0.950 . S
C481 C480 1.334 . S
C481 C482 1.287 . S
C482 C481 1.287 . S
C482 C483 1.524 . S
C482 H485 0.999 . S
C483 H453 0.950 . S
C483 C482 1.524 . S
C483 C484 1.415 . S
C484 H454 0.950 . S
C484 C479 1.363 . S
C484 C483 1.415 . S
H485 C482 0.999 . S
H486 C467 0.913 . S
H487 C505 0.951 . S
H488 C507 0.951 . S
H489 C509 0.950 . S
H490 C510 0.950 . S
H491 C512 0.950 . S
H492 C515 0.950 . S
H493 C516 0.950 . S
H494 C518 0.950 . S
H495 C519 0.950 . S
H496 C520 0.951 . S
H497 C522 0.951 . S
H498 C524 0.950 . S
H499 C525 0.950 . S
H500 C527 0.950 . S
H501 C530 0.950 . S
H502 C531 0.950 . S
H503 C533 0.950 . S
H504 C534 0.950 . S
C505 H487 0.951 . S
C505 C506 1.366 . S
C505 C507 1.388 . S
C506 C505 1.366 . S
C506 C510 1.385 . S
C507 H488 0.951 . S
C507 C505 1.388 . S
C507 C508 1.366 . S
C508 C507 1.366 . S
C508 C509 1.414 . S
C508 C511 1.499 . S
C509 H489 0.950 . S
C509 C508 1.414 . S
C509 C510 1.374 . S
C510 H490 0.950 . S
C510 C506 1.385 . S
C510 C509 1.374 . S
C511 C508 1.499 . S
C511 C512 1.373 . S
C511 C513 1.389 . S
C512 H491 0.950 . S
C512 C511 1.373 . S
C512 C528 1.377 . S
C513 C511 1.389 . S
C513 C514 1.524 . S
C513 C527 1.377 . S
C514 C513 1.524 . S
C514 C515 1.397 . S
C514 C519 1.363 . S
C515 H492 0.950 . S
C515 C514 1.397 . S
C515 C516 1.334 . S
C516 H493 0.950 . S
C516 C515 1.334 . S
C516 C517 1.287 . S
C517 C516 1.287 . S
C517 C518 1.524 . S
C517 H536 0.913 . S
C518 H494 0.950 . S
C518 C517 1.524 . S
C518 C519 1.415 . S
C519 H495 0.950 . S
C519 C514 1.363 . S
C519 C518 1.415 . S
C520 H496 0.951 . S
C520 C521 1.366 . S
C520 C522 1.388 . S
C521 C520 1.366 . S
C521 C525 1.385 . S
C522 H497 0.951 . S
C522 C520 1.388 . S
C522 C523 1.366 . S
C523 C522 1.366 . S
C523 C524 1.414 . S
C523 C526 1.499 . S
C524 H498 0.950 . S
C524 C523 1.414 . S
C524 C525 1.374 . S
C525 H499 0.950 . S
C525 C521 1.385 . S
C525 C524 1.374 . S
C526 C523 1.499 . S
C526 C527 1.373 . S
C526 C528 1.389 . S
C527 H500 0.950 . S
C527 C513 1.377 . S
C527 C526 1.373 . S
C528 C512 1.377 . S
C528 C526 1.389 . S
C528 C529 1.524 . S
C529 C528 1.524 . S
C529 C530 1.397 . S
C529 C534 1.363 . S
C530 H501 0.950 . S
C530 C529 1.397 . S
C530 C531 1.334 . S
C531 H502 0.950 . S
C531 C530 1.334 . S
C531 C532 1.287 . S
C532 C531 1.287 . S
C532 C533 1.524 . S
C532 H535 0.999 . S
C533 H503 0.950 . S
C533 C532 1.524 . S
C533 C534 1.415 . S
C534 H504 0.950 . S
C534 C529 1.363 . S
C534 C533 1.415 . S
H535 C532 0.999 . S
H536 C517 0.913 . S
H537 C555 0.951 . S
H538 C557 0.951 . S
H539 C559 0.950 . S
H540 C560 0.950 . S
H541 C562 0.950 . S
H542 C565 0.950 . S
H543 C566 0.950 . S
H544 C568 0.950 . S
H545 C569 0.950 . S
H546 C570 0.951 . S
H547 C572 0.951 . S
H548 C574 0.950 . S
H549 C575 0.950 . S
H550 C577 0.950 . S
H551 C580 0.950 . S
H552 C581 0.950 . S
H553 C583 0.950 . S
H554 C584 0.950 . S
C555 H537 0.951 . S
C555 C556 1.366 . S
C555 C557 1.388 . S
C556 C555 1.366 . S
C556 C560 1.385 . S
C557 H538 0.951 . S
C557 C555 1.388 . S
C557 C558 1.366 . S
C558 C557 1.366 . S
C558 C559 1.414 . S
C558 C561 1.499 . S
C559 H539 0.950 . S
C559 C558 1.414 . S
C559 C560 1.374 . S
C560 H540 0.950 . S
C560 C556 1.385 . S
C560 C559 1.374 . S
C561 C558 1.499 . S
C561 C562 1.373 . S
C561 C563 1.389 . S
C562 H541 0.950 . S
C562 C561 1.373 . S
C562 C578 1.377 . S
C563 C561 1.389 . S
C563 C564 1.524 . S
C563 C577 1.377 . S
C564 C563 1.524 . S
C564 C565 1.397 . S
C564 C569 1.363 . S
C565 H542 0.950 . S
C565 C564 1.397 . S
C565 C566 1.334 . S
C566 H543 0.950 . S
C566 C565 1.334 . S
C566 C567 1.287 . S
C567 C566 1.287 . S
C567 C568 1.524 . S
C567 H586 0.913 . S
C568 H544 0.950 . S
C568 C567 1.524 . S
C568 C569 1.415 . S
C569 H545 0.950 . S
C569 C564 1.363 . S
C569 C568 1.415 . S
C570 H546 0.951 . S
C570 C571 1.366 . S
C570 C572 1.388 . S
C571 C570 1.366 . S
C571 C575 1.385 . S
C572 H547 0.951 . S
C572 C570 1.388 . S
C572 C573 1.366 . S
C573 C572 1.366 . S
C573 C574 1.414 . S
C573 C576 1.499 . S
C574 H548 0.950 . S
C574 C573 1.414 . S
C574 C575 1.374 . S
C575 H549 0.950 . S
C575 C571 1.385 . S
C575 C574 1.374 . S
C576 C573 1.499 . S
C576 C577 1.373 . S
C576 C578 1.389 . S
C577 H550 0.950 . S
C577 C563 1.377 . S
C577 C576 1.373 . S
C578 C562 1.377 . S
C578 C576 1.389 . S
C578 C579 1.524 . S
C579 C578 1.524 . S
C579 C580 1.397 . S
C579 C584 1.363 . S
C580 H551 0.950 . S
C580 C579 1.397 . S
C580 C581 1.334 . S
C581 H552 0.950 . S
C581 C580 1.334 . S
C581 C582 1.287 . S
C582 C581 1.287 . S
C582 C583 1.524 . S
C582 H585 0.999 . S
C583 H553 0.950 . S
C583 C582 1.524 . S
C583 C584 1.415 . S
C584 H554 0.950 . S
C584 C579 1.363 . S
C584 C583 1.415 . S
H585 C582 0.999 . S
H586 C567 0.913 . S
H587 C605 0.951 . S
H588 C607 0.951 . S
H589 C609 0.950 . S
H590 C610 0.950 . S
H591 C612 0.950 . S
H592 C615 0.950 . S
H593 C616 0.950 . S
H594 C618 0.950 . S
H595 C619 0.950 . S
H596 C620 0.951 . S
H597 C622 0.951 . S
H598 C624 0.950 . S
H599 C625 0.950 . S
H600 C627 0.950 . S
H601 C630 0.950 . S
H602 C631 0.950 . S
H603 C633 0.950 . S
H604 C634 0.950 . S
C605 H587 0.951 . S
C605 C606 1.366 . S
C605 C607 1.388 . S
C606 C605 1.366 . S
C606 C610 1.385 . S
C607 H588 0.951 . S
C607 C605 1.388 . S
C607 C608 1.366 . S
C608 C607 1.366 . S
C608 C609 1.414 . S
C608 C611 1.499 . S
C609 H589 0.950 . S
C609 C608 1.414 . S
C609 C610 1.374 . S
C610 H590 0.950 . S
C610 C606 1.385 . S
C610 C609 1.374 . S
C611 C608 1.499 . S
C611 C612 1.373 . S
C611 C613 1.389 . S
C612 H591 0.950 . S
C612 C611 1.373 . S
C612 C628 1.377 . S
C613 C611 1.389 . S
C613 C614 1.524 . S
C613 C627 1.377 . S
C614 C613 1.524 . S
C614 C615 1.397 . S
C614 C619 1.363 . S
C615 H592 0.950 . S
C615 C614 1.397 . S
C615 C616 1.334 . S
C616 H593 0.950 . S
C616 C615 1.334 . S
C616 C617 1.287 . S
C617 C616 1.287 . S
C617 C618 1.524 . S
C617 H636 0.913 . S
C618 H594 0.950 . S
C618 C617 1.524 . S
C618 C619 1.415 . S
C619 H595 0.950 . S
C619 C614 1.363 . S
C619 C618 1.415 . S
C620 H596 0.951 . S
C620 C621 1.366 . S
C620 C622 1.388 . S
C621 C620 1.366 . S
C621 C625 1.385 . S
C622 H597 0.951 . S
C622 C620 1.388 . S
C622 C623 1.366 . S
C623 C622 1.366 . S
C623 C624 1.414 . S
C623 C626 1.499 . S
C624 H598 0.950 . S
C624 C623 1.414 . S
C624 C625 1.374 . S
C625 H599 0.950 . S
C625 C621 1.385 . S
C625 C624 1.374 . S
C626 C623 1.499 . S
C626 C627 1.373 . S
C626 C628 1.389 . S
C627 H600 0.950 . S
C627 C613 1.377 . S
C627 C626 1.373 . S
C628 C612 1.377 . S
C628 C626 1.389 . S
C628 C629 1.524 . S
C629 C628 1.524 . S
C629 C630 1.397 . S
C629 C634 1.363 . S
C630 H601 0.950 . S
C630 C629 1.397 . S
C630 C631 1.334 . S
C631 H602 0.950 . S
C631 C630 1.334 . S
C631 C632 1.287 . S
C632 C631 1.287 . S
C632 C633 1.524 . S
C632 H635 0.999 . S
C633 H603 0.950 . S
C633 C632 1.524 . S
C633 C634 1.415 . S
C634 H604 0.950 . S
C634 C629 1.363 . S
C634 C633 1.415 . S
H635 C632 0.999 . S
H636 C617 0.913 . S
H637 C655 0.951 . S
H638 C657 0.951 . S
H639 C659 0.950 . S
H640 C660 0.950 . S
H641 C662 0.950 . S
H642 C665 0.950 . S
H643 C666 0.950 . S
H644 C668 0.950 . S
H645 C669 0.950 . S
H646 C670 0.951 . S
H647 C672 0.951 . S
H648 C674 0.950 . S
H649 C675 0.950 . S
H650 C677 0.950 . S
H651 C680 0.950 . S
H652 C681 0.950 . S
H653 C683 0.950 . S
H654 C684 0.950 . S
C655 H637 0.951 . S
C655 C656 1.366 . S
C655 C657 1.388 . S
C656 C655 1.366 . S
C656 C660 1.385 . S
C657 H638 0.951 . S
C657 C655 1.388 . S
C657 C658 1.366 . S
C658 C657 1.366 . S
C658 C659 1.414 . S
C658 C661 1.499 . S
C659 H639 0.950 . S
C659 C658 1.414 . S
C659 C660 1.374 . S
C660 H640 0.950 . S
C660 C656 1.385 . S
C660 C659 1.374 . S
C661 C658 1.499 . S
C661 C662 1.373 . S
C661 C663 1.389 . S
C662 H641 0.950 . S
C662 C661 1.373 . S
C662 C678 1.377 . S
C663 C661 1.389 . S
C663 C664 1.524 . S
C663 C677 1.377 . S
C664 C663 1.524 . S
C664 C665 1.397 . S
C664 C669 1.363 . S
C665 H642 0.950 . S
C665 C664 1.397 . S
C665 C666 1.334 . S
C666 H643 0.950 . S
C666 C665 1.334 . S
C666 C667 1.287 . S
C667 C666 1.287 . S
C667 C668 1.524 . S
C667 H686 0.913 . S
C668 H644 0.950 . S
C668 C667 1.524 . S
C668 C669 1.415 . S
C669 H645 0.950 . S
C669 C664 1.363 . S
C669 C668 1.415 . S
C670 H646 0.951 . S
C670 C671 1.366 . S
C670 C672 1.388 . S
C671 C670 1.366 . S
C671 C675 1.385 . S
C672 H647 0.951 . S
C672 C670 1.388 . S
C672 C673 1.366 . S
C673 C672 1.366 . S
C673 C674 1.414 . S
C673 C676 1.499 . S
C674 H648 0.950 . S
C674 C673 1.414 . S
C674 C675 1.374 . S
C675 H649 0.950 . S
C675 C671 1.385 . S
C675 C674 1.374 . S
C676 C673 1.499 . S
C676 C677 1.373 . S
C676 C678 1.389 . S
C677 H650 0.950 . S
C677 C663 1.377 . S
C677 C676 1.373 . S
C678 C662 1.377 . S
C678 C676 1.389 . S
C678 C679 1.524 . S
C679 C678 1.524 . S
C679 C680 1.397 . S
C679 C684 1.363 . S
C680 H651 0.950 . S
C680 C679 1.397 . S
C680 C681 1.334 . S
C681 H652 0.950 . S
C681 C680 1.334 . S
C681 C682 1.287 . S
C682 C681 1.287 . S
C682 C683 1.524 . S
C682 H685 0.999 . S
C683 H653 0.950 . S
C683 C682 1.524 . S
C683 C684 1.415 . S
C684 H654 0.950 . S
C684 C679 1.363 . S
C684 C683 1.415 . S
H685 C682 0.999 . S
H686 C667 0.913 . S
H687 C705 0.951 . S
H688 C707 0.951 . S
H689 C709 0.950 . S
H690 C710 0.950 . S
H691 C712 0.950 . S
H692 C715 0.950 . S
H693 C716 0.950 . S
H694 C718 0.950 . S
H695 C719 0.950 . S
H696 C720 0.951 . S
H697 C722 0.951 . S
H698 C724 0.950 . S
H699 C725 0.950 . S
H700 C727 0.950 . S
H701 C730 0.950 . S
H702 C731 0.950 . S
H703 C733 0.950 . S
H704 C734 0.950 . S
C705 H687 0.951 . S
C705 C706 1.366 . S
C705 C707 1.388 . S
C706 C705 1.366 . S
C706 C710 1.385 . S
C707 H688 0.951 . S
C707 C705 1.388 . S
C707 C708 1.366 . S
C708 C707 1.366 . S
C708 C709 1.414 . S
C708 C711 1.499 . S
C709 H689 0.950 . S
C709 C708 1.414 . S
C709 C710 1.374 . S
C710 H690 0.950 . S
C710 C706 1.385 . S
C710 C709 1.374 . S
C711 C708 1.499 . S
C711 C712 1.373 . S
C711 C713 1.389 . S
C712 H691 0.950 . S
C712 C711 1.373 . S
C712 C728 1.377 . S
C713 C711 1.389 . S
C713 C714 1.524 . S
C713 C727 1.377 . S
C714 C713 1.524 . S
C714 C715 1.397 . S
C714 C719 1.363 . S
C715 H692 0.950 . S
C715 C714 1.397 . S
C715 C716 1.334 . S
C716 H693 0.950 . S
C716 C715 1.334 . S
C716 C717 1.287 . S
C717 C716 1.287 . S
C717 C718 1.524 . S
C717 H736 0.913 . S
C718 H694 0.950 . S
C718 C717 1.524 . S
C718 C719 1.415 . S
C719 H695 0.950 . S
C719 C714 1.363 . S
C719 C718 1.415 . S
C720 H696 0.951 . S
C720 C721 1.366 . S
C720 C722 1.388 . S
C721 C720 1.366 . S
C721 C725 1.385 . S
C722 H697 0.951 . S
C722 C720 1.388 . S
C722 C723 1.366 . S
C723 C722 1.366 . S
C723 C724 1.414 . S
C723 C726 1.499 . S
C724 H698 0.950 . S
C724 C723 1.414 . S
C724 C725 1.374 . S
C725 H699 0.950 . S
C725 C721 1.385 . S
C725 C724 1.374 . S
C726 C723 1.499 . S
C726 C727 1.373 . S
C726 C728 1.389 . S
C727 H700 0.950 . S
C727 C713 1.377 . S
C727 C726 1.373 . S
C728 C712 1.377 . S
C728 C726 1.389 . S
C728 C729 1.524 . S
C729 C728 1.524 . S
C729 C730 1.397 . S
C729 C734 1.363 . S
C730 H701 0.950 . S
C730 C729 1.397 . S
C730 C731 1.334 . S
C731 H702 0.950 . S
C731 C730 1.334 . S
C731 C732 1.287 . S
C732 C731 1.287 . S
C732 C733 1.524 . S
C732 H735 0.999 . S
C733 H703 0.950 . S
C733 C732 1.524 . S
C733 C734 1.415 . S
C734 H704 0.950 . S
C734 C729 1.363 . S
C734 C733 1.415 . S
H735 C732 0.999 . S
H736 C717 0.913 . S
H737 C755 0.951 . S
H738 C757 0.951 . S
H739 C759 0.950 . S
H740 C760 0.950 . S
H741 C762 0.950 . S
H742 C765 0.950 . S
H743 C766 0.950 . S
H744 C768 0.950 . S
H745 C769 0.950 . S
H746 C770 0.951 . S
H747 C772 0.951 . S
H748 C774 0.950 . S
H749 C775 0.950 . S
H750 C777 0.950 . S
H751 C780 0.950 . S
H752 C781 0.950 . S
H753 C783 0.950 . S
H754 C784 0.950 . S
C755 H737 0.951 . S
C755 C756 1.366 . S
C755 C757 1.388 . S
C756 C755 1.366 . S
C756 C760 1.385 . S
C757 H738 0.951 . S
C757 C755 1.388 . S
C757 C758 1.366 . S
C758 C757 1.366 . S
C758 C759 1.414 . S
C758 C761 1.499 . S
C759 H739 0.950 . S
C759 C758 1.414 . S
C759 C760 1.374 . S
C760 H740 0.950 . S
C760 C756 1.385 . S
C760 C759 1.374 . S
C761 C758 1.499 . S
C761 C762 1.373 . S
C761 C763 1.389 . S
C762 H741 0.950 . S
C762 C761 1.373 . S
C762 C778 1.377 . S
C763 C761 1.389 . S
C763 C764 1.524 . S
C763 C777 1.377 . S
C764 C763 1.524 . S
C764 C765 1.397 . S
C764 C769 1.363 . S
C765 H742 0.950 . S
C765 C764 1.397 . S
C765 C766 1.334 . S
C766 H743 0.950 . S
C766 C765 1.334 . S
C766 C767 1.287 . S
C767 C766 1.287 . S
C767 C768 1.524 . S
C767 H786 0.913 . S
C768 H744 0.950 . S
C768 C767 1.524 . S
C768 C769 1.415 . S
C769 H745 0.950 . S
C769 C764 1.363 . S
C769 C768 1.415 . S
C770 H746 0.951 . S
C770 C771 1.366 . S
C770 C772 1.388 . S
C771 C770 1.366 . S
C771 C775 1.385 . S
C772 H747 0.951 . S
C772 C770 1.388 . S
C772 C773 1.366 . S
C773 C772 1.366 . S
C773 C774 1.414 . S
C773 C776 1.499 . S
C774 H748 0.950 . S
C774 C773 1.414 . S
C774 C775 1.374 . S
C775 H749 0.950 . S
C775 C771 1.385 . S
C775 C774 1.374 . S
C776 C773 1.499 . S
C776 C777 1.373 . S
C776 C778 1.389 . S
C777 H750 0.950 . S
C777 C763 1.377 . S
C777 C776 1.373 . S
C778 C762 1.377 . S
C778 C776 1.389 . S
C778 C779 1.524 . S
C779 C778 1.524 . S
C779 C780 1.397 . S
C779 C784 1.363 . S
C780 H751 0.950 . S
C780 C779 1.397 . S
C780 C781 1.334 . S
C781 H752 0.950 . S
C781 C780 1.334 . S
C781 C782 1.287 . S
C782 C781 1.287 . S
C782 C783 1.524 . S
C782 H785 0.999 . S
C783 H753 0.950 . S
C783 C782 1.524 . S
C783 C784 1.415 . S
C784 H754 0.950 . S
C784 C779 1.363 . S
C784 C783 1.415 . S
H785 C782 0.999 . S
H786 C767 0.913 . S
H787 C805 0.951 . S
H788 C807 0.951 . S
H789 C809 0.950 . S
H790 C810 0.950 . S
H791 C812 0.950 . S
H792 C815 0.950 . S
H793 C816 0.950 . S
H794 C818 0.950 . S
H795 C819 0.950 . S
H796 C820 0.951 . S
H797 C822 0.951 . S
H798 C824 0.950 . S
H799 C825 0.950 . S
H800 C827 0.950 . S
H801 C830 0.950 . S
H802 C831 0.950 . S
H803 C833 0.950 . S
H804 C834 0.950 . S
C805 H787 0.951 . S
C805 C806 1.366 . S
C805 C807 1.388 . S
C806 C805 1.366 . S
C806 C810 1.385 . S
C807 H788 0.951 . S
C807 C805 1.388 . S
C807 C808 1.366 . S
C808 C807 1.366 . S
C808 C809 1.414 . S
C808 C811 1.499 . S
C809 H789 0.950 . S
C809 C808 1.414 . S
C809 C810 1.374 . S
C810 H790 0.950 . S
C810 C806 1.385 . S
C810 C809 1.374 . S
C811 C808 1.499 . S
C811 C812 1.373 . S
C811 C813 1.389 . S
C812 H791 0.950 . S
C812 C811 1.373 . S
C812 C828 1.377 . S
C813 C811 1.389 . S
C813 C814 1.524 . S
C813 C827 1.377 . S
C814 C813 1.524 . S
C814 C815 1.397 . S
C814 C819 1.363 . S
C815 H792 0.950 . S
C815 C814 1.397 . S
C815 C816 1.334 . S
C816 H793 0.950 . S
C816 C815 1.334 . S
C816 C817 1.287 . S
C817 C816 1.287 . S
C817 C818 1.524 . S
C817 H836 0.913 . S
C818 H794 0.950 . S
C818 C817 1.524 . S
C818 C819 1.415 . S
C819 H795 0.950 . S
C819 C814 1.363 . S
C819 C818 1.415 . S
C820 H796 0.951 . S
C820 C821 1.366 . S
C820 C822 1.388 . S
C821 C820 1.366 . S
C821 C825 1.385 . S
C822 H797 0.951 . S
C822 C820 1.388 . S
C822 C823 1.366 . S
C823 C822 1.366 . S
C823 C824 1.414 . S
C823 C826 1.499 . S
C824 H798 0.950 . S
C824 C823 1.414 . S
C824 C825 1.374 . S
C825 H799 0.950 . S
C825 C821 1.385 . S
C825 C824 1.374 . S
C826 C823 1.499 . S
C826 C827 1.373 . S
C826 C828 1.389 . S
C827 H800 0.950 . S
C827 C813 1.377 . S
C827 C826 1.373 . S
C828 C812 1.377 . S
C828 C826 1.389 . S
C828 C829 1.524 . S
C829 C828 1.524 . S
C829 C830 1.397 . S
C829 C834 1.363 . S
C830 H801 0.950 . S
C830 C829 1.397 . S
C830 C831 1.334 . S
C831 H802 0.950 . S
C831 C830 1.334 . S
C831 C832 1.287 . S
C832 C831 1.287 . S
C832 C833 1.524 . S
C832 H835 0.999 . S
C833 H803 0.950 . S
C833 C832 1.524 . S
C833 C834 1.415 . S
C834 H804 0.950 . S
C834 C829 1.363 . S
C834 C833 1.415 . S
H835 C832 0.999 . S
H836 C817 0.913 . S
H837 C855 0.951 . S
H838 C857 0.951 . S
H839 C859 0.950 . S
H840 C860 0.950 . S
H841 C862 0.950 . S
H842 C865 0.950 . S
H843 C866 0.950 . S
H844 C868 0.950 . S
H845 C869 0.950 . S
H846 C870 0.951 . S
H847 C872 0.951 . S
H848 C874 0.950 . S
H849 C875 0.950 . S
H850 C877 0.950 . S
H851 C880 0.950 . S
H852 C881 0.950 . S
H853 C883 0.950 . S
H854 C884 0.950 . S
C855 H837 0.951 . S
C855 C856 1.366 . S
C855 C857 1.388 . S
C856 C855 1.366 . S
C856 C860 1.385 . S
C857 H838 0.951 . S
C857 C855 1.388 . S
C857 C858 1.366 . S
C858 C857 1.366 . S
C858 C859 1.414 . S
C858 C861 1.499 . S
C859 H839 0.950 . S
C859 C858 1.414 . S
C859 C860 1.374 . S
C860 H840 0.950 . S
C860 C856 1.385 . S
C860 C859 1.374 . S
C861 C858 1.499 . S
C861 C862 1.373 . S
C861 C863 1.389 . S
C862 H841 0.950 . S
C862 C861 1.373 . S
C862 C878 1.377 . S
C863 C861 1.389 . S
C863 C864 1.524 . S
C863 C877 1.377 . S
C864 C863 1.524 . S
C864 C865 1.397 . S
C864 C869 1.363 . S
C865 H842 0.950 . S
C865 C864 1.397 . S
C865 C866 1.334 . S
C866 H843 0.950 . S
C866 C865 1.334 . S
C866 C867 1.287 . S
C867 C866 1.287 . S
C867 C868 1.524 . S
C867 H886 0.913 . S
C868 H844 0.950 . S
C868 C867 1.524 . S
C868 C869 1.415 . S
C869 H845 0.950 . S
C869 C864 1.363 . S
C869 C868 1.415 . S
C870 H846 0.951 . S
C870 C871 1.366 . S
C870 C872 1.388 . S
C871 C870 1.366 . S
C871 C875 1.385 . S
C872 H847 0.951 . S
C872 C870 1.388 . S
C872 C873 1.366 . S
C873 C872 1.366 . S
C873 C874 1.414 . S
C873 C876 1.499 . S
C874 H848 0.950 . S
C874 C873 1.414 . S
C874 C875 1.374 . S
C875 H849 0.950 . S
C875 C871 1.385 . S
C875 C874 1.374 . S
C876 C873 1.499 . S
C876 C877 1.373 . S
C876 C878 1.389 . S
C877 H850 0.950 . S
C877 C863 1.377 . S
C877 C876 1.373 . S
C878 C862 1.377 . S
C878 C876 1.389 . S
C878 C879 1.524 . S
C879 C878 1.524 . S
C879 C880 1.397 . S
C879 C884 1.363 . S
C880 H851 0.950 . S
C880 C879 1.397 . S
C880 C881 1.334 . S
C881 H852 0.950 . S
C881 C880 1.334 . S
C881 C882 1.287 . S
C882 C881 1.287 . S
C882 C883 1.524 . S
C882 H885 0.999 . S
C883 H853 0.950 . S
C883 C882 1.524 . S
C883 C884 1.415 . S
C884 H854 0.950 . S
C884 C879 1.363 . S
C884 C883 1.415 . S
H885 C882 0.999 . S
H886 C867 0.913 . S
H887 C905 0.951 . S
H888 C907 0.951 . S
H889 C909 0.950 . S
H890 C910 0.950 . S
H891 C912 0.950 . S
H892 C915 0.950 . S
H893 C916 0.950 . S
H894 C918 0.950 . S
H895 C919 0.950 . S
H896 C920 0.951 . S
H897 C922 0.951 . S
H898 C924 0.950 . S
H899 C925 0.950 . S
H900 C927 0.950 . S
H901 C930 0.950 . S
H902 C931 0.950 . S
H903 C933 0.950 . S
H904 C934 0.950 . S
C905 H887 0.951 . S
C905 C906 1.366 . S
C905 C907 1.388 . S
C906 C905 1.366 . S
C906 C910 1.385 . S
C907 H888 0.951 . S
C907 C905 1.388 . S
C907 C908 1.366 . S
C908 C907 1.366 . S
C908 C909 1.414 . S
C908 C911 1.499 . S
C909 H889 0.950 . S
C909 C908 1.414 . S
C909 C910 1.374 . S
C910 H890 0.950 . S
C910 C906 1.385 . S
C910 C909 1.374 . S
C911 C908 1.499 . S
C911 C912 1.373 . S
C911 C913 1.389 . S
C912 H891 0.950 . S
C912 C911 1.373 . S
C912 C928 1.377 . S
C913 C911 1.389 . S
C913 C914 1.524 . S
C913 C927 1.377 . S
C914 C913 1.524 . S
C914 C915 1.397 . S
C914 C919 1.363 . S
C915 H892 0.950 . S
C915 C914 1.397 . S
C915 C916 1.334 . S
C916 H893 0.950 . S
C916 C915 1.334 . S
C916 C917 1.287 . S
C917 C916 1.287 . S
C917 C918 1.524 . S
C917 H936 0.913 . S
C918 H894 0.950 . S
C918 C917 1.524 . S
C918 C919 1.415 . S
C919 H895 0.950 . S
C919 C914 1.363 . S
C919 C918 1.415 . S
C920 H896 0.951 . S
C920 C921 1.366 . S
C920 C922 1.388 . S
C921 C920 1.366 . S
C921 C925 1.385 . S
C922 H897 0.951 . S
C922 C920 1.388 . S
C922 C923 1.366 . S
C923 C922 1.366 . S
C923 C924 1.414 . S
C923 C926 1.499 . S
C924 H898 0.950 . S
C924 C923 1.414 . S
C924 C925 1.374 . S
C925 H899 0.950 . S
C925 C921 1.385 . S
C925 C924 1.374 . S
C926 C923 1.499 . S
C926 C927 1.373 . S
C926 C928 1.389 . S
C927 H900 0.950 . S
C927 C913 1.377 . S
C927 C926 1.373 . S
C928 C912 1.377 . S
C928 C926 1.389 . S
C928 C929 1.524 . S
C929 C928 1.524 . S
C929 C930 1.397 . S
C929 C934 1.363 . S
C930 H901 0.950 . S
C930 C929 1.397 . S
C930 C931 1.334 . S
C931 H902 0.950 . S
C931 C930 1.334 . S
C931 C932 1.287 . S
C932 C931 1.287 . S
C932 C933 1.524 . S
C932 H935 0.999 . S
C933 H903 0.950 . S
C933 C932 1.524 . S
C933 C934 1.415 . S
C934 H904 0.950 . S
C934 C929 1.363 . S
C934 C933 1.415 . S
H935 C932 0.999 . S
H936 C917 0.913 . S
H937 C955 0.951 . S
H938 C957 0.951 . S
H939 C959 0.950 . S
H940 C960 0.950 . S
H941 C962 0.950 . S
H942 C965 0.950 . S
H943 C966 0.950 . S
H944 C968 0.950 . S
H945 C969 0.950 . S
H946 C970 0.951 . S
H947 C972 0.951 . S
H948 C974 0.950 . S
H949 C975 0.950 . S
H950 C977 0.950 . S
H951 C980 0.950 . S
H952 C981 0.950 . S
H953 C983 0.950 . S
H954 C984 0.950 . S
C955 H937 0.951 . S
C955 C956 1.366 . S
C955 C957 1.388 . S
C956 C955 1.366 . S
C956 C960 1.385 . S
C957 H938 0.951 . S
C957 C955 1.388 . S
C957 C958 1.366 . S
C958 C957 1.366 . S
C958 C959 1.414 . S
C958 C961 1.499 . S
C959 H939 0.950 . S
C959 C958 1.414 . S
C959 C960 1.374 . S
C960 H940 0.950 . S
C960 C956 1.385 . S
C960 C959 1.374 . S
C961 C958 1.499 . S
C961 C962 1.373 . S
C961 C963 1.389 . S
C962 H941 0.950 . S
C962 C961 1.373 . S
C962 C978 1.377 . S
C963 C961 1.389 . S
C963 C964 1.524 . S
C963 C977 1.377 . S
C964 C963 1.524 . S
C964 C965 1.397 . S
C964 C969 1.363 . S
C965 H942 0.950 . S
C965 C964 1.397 . S
C965 C966 1.334 . S
C966 H943 0.950 . S
C966 C965 1.334 . S
C966 C967 1.287 . S
C967 C966 1.287 . S
C967 C968 1.524 . S
C967 H986 0.913 . S
C968 H944 0.950 . S
C968 C967 1.524 . S
C968 C969 1.415 . S
C969 H945 0.950 . S
C969 C964 1.363 . S
C969 C968 1.415 . S
C970 H946 0.951 . S
C970 C971 1.366 . S
C970 C972 1.388 . S
C971 C970 1.366 . S
C971 C975 1.385 . S
C972 H947 0.951 . S
C972 C970 1.388 . S
C972 C973 1.366 . S
C973 C972 1.366 . S
C973 C974 1.414 . S
C973 C976 1.499 . S
C974 H948 0.950 . S
C974 C973 1.414 . S
C974 C975 1.374 . S
C975 H949 0.950 . S
C975 C971 1.385 . S
C975 C974 1.374 . S
C976 C973 1.499 . S
C976 C977 1.373 . S
C976 C978 1.389 . S
C977 H950 0.950 . S
C977 C963 1.377 . S
C977 C976 1.373 . S
C978 C962 1.377 . S
C978 C976 1.389 . S
C978 C979 1.524 . S
C979 C978 1.524 . S
C979 C980 1.397 . S
C979 C984 1.363 . S
C980 H951 0.950 . S
C980 C979 1.397 . S
C980 C981 1.334 . S
C981 H952 0.950 . S
C981 C980 1.334 . S
C981 C982 1.287 . S
C982 C981 1.287 . S
C982 C983 1.524 . S
C982 H985 0.999 . S
C983 H953 0.950 . S
C983 C982 1.524 . S
C983 C984 1.415 . S
C984 H954 0.950 . S
C984 C979 1.363 . S
C984 C983 1.415 . S
H985 C982 0.999 . S
H986 C967 0.913 . S
H987 C1005 0.951 . S
H988 C1007 0.951 . S
H989 C1009 0.950 . S
H990 C1010 0.950 . S
H991 C1012 0.950 . S
H992 C1015 0.950 . S
H993 C1016 0.950 . S
H994 C1018 0.950 . S
H995 C1019 0.950 . S
H996 C1020 0.951 . S
H997 C1022 0.951 . S
H998 C1024 0.950 . S
H999 C1025 0.950 . S
H1000 C1027 0.950 . S
H1001 C1030 0.950 . S
H1002 C1031 0.950 . S
H1003 C1033 0.950 . S
H1004 C1034 0.950 . S
C1005 H987 0.951 . S
C1005 C1006 1.366 . S
C1005 C1007 1.388 . S
C1006 C1005 1.366 . S
C1006 C1010 1.385 . S
C1007 H988 0.951 . S
C1007 C1005 1.388 . S
C1007 C1008 1.366 . S
C1008 C1007 1.366 . S
C1008 C1009 1.414 . S
C1008 C1011 1.499 . S
C1009 H989 0.950 . S
C1009 C1008 1.414 . S
C1009 C1010 1.374 . S
C1010 H990 0.950 . S
C1010 C1006 1.385 . S
C1010 C1009 1.374 . S
C1011 C1008 1.499 . S
C1011 C1012 1.373 . S
C1011 C1013 1.389 . S
C1012 H991 0.950 . S
C1012 C1011 1.373 . S
C1012 C1028 1.377 . S
C1013 C1011 1.389 . S
C1013 C1014 1.524 . S
C1013 C1027 1.377 . S
C1014 C1013 1.524 . S
C1014 C1015 1.397 . S
C1014 C1019 1.363 . S
C1015 H992 0.950 . S
C1015 C1014 1.397 . S
C1015 C1016 1.334 . S
C1016 H993 0.950 . S
C1016 C1015 1.334 . S
C1016 C1017 1.287 . S
C1017 C1016 1.287 . S
C1017 C1018 1.524 . S
C1017 H1036 0.913 . S
C1018 H994 0.950 . S
C1018 C1017 1.524 . S
C1018 C1019 1.415 . S
C1019 H995 0.950 . S
C1019 C1014 1.363 . S
C1019 C1018 1.415 . S
C1020 H996 0.951 . S
C1020 C1021 1.366 . S
C1020 C1022 1.388 . S
C1021 C1020 1.366 . S
C1021 C1025 1.385 . S
C1022 H997 0.951 . S
C1022 C1020 1.388 . S
C1022 C1023 1.366 . S
C1023 C1022 1.366 . S
C1023 C1024 1.414 . S
C1023 C1026 1.499 . S
C1024 H998 0.950 . S
C1024 C1023 1.414 . S
C1024 C1025 1.374 . S
C1025 H999 0.950 . S
C1025 C1021 1.385 . S
C1025 C1024 1.374 . S
C1026 C1023 1.499 . S
C1026 C1027 1.373 . S
C1026 C1028 1.389 . S
C1027 H1000 0.950 . S
C1027 C1013 1.377 . S
C1027 C1026 1.373 . S
C1028 C1012 1.377 . S
C1028 C1026 1.389 . S
C1028 C1029 1.524 . S
C1029 C1028 1.524 . S
C1029 C1030 1.397 . S
C1029 C1034 1.363 . S
C1030 H1001 0.950 . S
C1030 C1029 1.397 . S
C1030 C1031 1.334 . S
C1031 H1002 0.950 . S
C1031 C1030 1.334 . S
C1031 C1032 1.287 . S
C1032 C1031 1.287 . S
C1032 C1033 1.524 . S
C1032 H1035 0.999 . S
C1033 H1003 0.950 . S
C1033 C1032 1.524 . S
C1033 C1034 1.415 . S
C1034 H1004 0.950 . S
C1034 C1029 1.363 . S
C1034 C1033 1.415 . S
H1035 C1032 0.999 . S
H1036 C1017 0.913 . S
H1037 C1055 0.951 . S
H1038 C1057 0.951 . S
H1039 C1059 0.950 . S
H1040 C1060 0.950 . S
H1041 C1062 0.950 . S
H1042 C1065 0.950 . S
H1043 C1066 0.950 . S
H1044 C1068 0.950 . S
H1045 C1069 0.950 . S
H1046 C1070 0.951 . S
H1047 C1072 0.951 . S
H1048 C1074 0.950 . S
H1049 C1075 0.950 . S
H1050 C1077 0.950 . S
H1051 C1080 0.950 . S
H1052 C1081 0.950 . S
H1053 C1083 0.950 . S
H1054 C1084 0.950 . S
C1055 H1037 0.951 . S
C1055 C1056 1.366 . S
C1055 C1057 1.388 . S
C1056 C1055 1.366 . S
C1056 C1060 1.385 . S
C1057 H1038 0.951 . S
C1057 C1055 1.388 . S
C1057 C1058 1.366 . S
C1058 C1057 1.366 . S
C1058 C1059 1.414 . S
C1058 C1061 1.499 . S
C1059 H1039 0.950 . S
C1059 C1058 1.414 . S
C1059 C1060 1.374 . S
C1060 H1040 0.950 . S
C1060 C1056 1.385 . S
C1060 C1059 1.374 . S
C1061 C1058 1.499 . S
C1061 C1062 1.373 . S
C1061 C1063 1.389 . S
C1062 H1041 0.950 . S
C1062 C1061 1.373 . S
C1062 C1078 1.377 . S
C1063 C1061 1.389 . S
C1063 C1064 1.524 . S
C1063 C1077 1.377 . S
C1064 C1063 1.524 . S
C1064 C1065 1.397 . S
C1064 C1069 1.363 . S
C1065 H1042 0.950 . S
C1065 C1064 1.397 . S
C1065 C1066 1.334 . S
C1066 H1043 0.950 . S
C1066 C1065 1.334 . S
C1066 C1067 1.287 . S
C1067 C1066 1.287 . S
C1067 C1068 1.524 . S
C1067 H1086 0.913 . S
C1068 H1044 0.950 . S
C1068 C1067 1.524 . S
C1068 C1069 1.415 . S
C1069 H1045 0.950 . S
C1069 C1064 1.363 . S
C1069 C1068 1.415 . S
C1070 H1046 0.951 . S
C1070 C1071 1.366 . S
C1070 C1072 1.388 . S
C1071 C1070 1.366 . S
C1071 C1075 1.385 . S
C1072 H1047 0.951 . S
C1072 C1070 1.388 . S
C1072 C1073 1.366 . S
C1073 C1072 1.366 . S
C1073 C1074 1.414 . S
C1073 C1076 1.499 . S
C1074 H1048 0.950 . S
C1074 C1073 1.414 . S
C1074 C1075 1.374 . S
C1075 H1049 0.950 . S
C1075 C1071 1.385 . S
C1075 C1074 1.374 . S
C1076 C1073 1.499 . S
C1076 C1077 1.373 . S
C1076 C1078 1.389 . S
C1077 H1050 0.950 . S
C1077 C1063 1.377 . S
C1077 C1076 1.373 . S
C1078 C1062 1.377 . S
C1078 C1076 1.389 . S
C1078 C1079 1.524 . S
C1079 C1078 1.524 . S
C1079 C1080 1.397 . S
C1079 C1084 1.363 . S
C1080 H1051 0.950 . S
C1080 C1079 1.397 . S
C1080 C1081 1.334 . S
C1081 H1052 0.950 . S
C1081 C1080 1.334 . S
C1081 C1082 1.287 . S
C1082 C1081 1.287 . S
C1082 C1083 1.524 . S
C1082 H1085 0.999 . S
C1083 H1053 0.950 . S
C1083 C1082 1.524 . S
C1083 C1084 1.415 . S
C1084 H1054 0.950 . S
C1084 C1079 1.363 . S
C1084 C1083 1.415 . S
H1085 C1082 0.999 . S
H1086 C1067 0.913 . S
H1087 C1105 0.951 . S
H1088 C1107 0.951 . S
H1089 C1109 0.950 . S
H1090 C1110 0.950 . S
H1091 C1112 0.950 . S
H1092 C1115 0.950 . S
H1093 C1116 0.950 . S
H1094 C1118 0.950 . S
H1095 C1119 0.950 . S
H1096 C1120 0.951 . S
H1097 C1122 0.951 . S
H1098 C1124 0.950 . S
H1099 C1125 0.950 . S
H1100 C1127 0.950 . S
H1101 C1130 0.950 . S
H1102 C1131 0.950 . S
H1103 C1133 0.950 . S
H1104 C1134 0.950 . S
C1105 H1087 0.951 . S
C1105 C1106 1.366 . S
C1105 C1107 1.388 . S
C1106 C1105 1.366 . S
C1106 C1110 1.385 . S
C1107 H1088 0.951 . S
C1107 C1105 1.388 . S
C1107 C1108 1.366 . S
C1108 C1107 1.366 . S
C1108 C1109 1.414 . S
C1108 C1111 1.499 . S
C1109 H1089 0.950 . S
C1109 C1108 1.414 . S
C1109 C1110 1.374 . S
C1110 H1090 0.950 . S
C1110 C1106 1.385 . S
C1110 C1109 1.374 . S
C1111 C1108 1.499 . S
C1111 C1112 1.373 . S
C1111 C1113 1.389 . S
C1112 H1091 0.950 . S
C1112 C1111 1.373 . S
C1112 C1128 1.377 . S
C1113 C1111 1.389 . S
C1113 C1114 1.524 . S
C1113 C1127 1.377 . S
C1114 C1113 1.524 . S
C1114 C1115 1.397 . S
C1114 C1119 1.363 . S
C1115 H1092 0.950 . S
C1115 C1114 1.397 . S
C1115 C1116 1.334 . S
C1116 H1093 0.950 . S
C1116 C1115 1.334 . S
C1116 C1117 1.287 . S
C1117 C1116 1.287 . S
C1117 C1118 1.524 . S
C1117 H1136 0.913 . S
C1118 H1094 0.950 . S
C1118 C1117 1.524 . S
C1118 C1119 1.415 . S
C1119 H1095 0.950 . S
C1119 C1114 1.363 . S
C1119 C1118 1.415 . S
C1120 H1096 0.951 . S
C1120 C1121 1.366 . S
C1120 C1122 1.388 . S
C1121 C1120 1.366 . S
C1121 C1125 1.385 . S
C1122 H1097 0.951 . S
C1122 C1120 1.388 . S
C1122 C1123 1.366 . S
C1123 C1122 1.366 . S
C1123 C1124 1.414 . S
C1123 C1126 1.499 . S
C1124 H1098 0.950 . S
C1124 C1123 1.414 . S
C1124 C1125 1.374 . S
C1125 H1099 0.950 . S
C1125 C1121 1.385 . S
C1125 C1124 1.374 . S
C1126 C1123 1.499 . S
C1126 C1127 1.373 . S
C1126 C1128 1.389 . S
C1127 H1100 0.950 . S
C1127 C1113 1.377 . S
C1127 C1126 1.373 . S
C1128 C1112 1.377 . S
C1128 C1126 1.389 . S
C1128 C1129 1.524 . S
C1129 C1128 1.524 . S
C1129 C1130 1.397 . S
C1129 C1134 1.363 . S
C1130 H1101 0.950 . S
C1130 C1129 1.397 . S
C1130 C1131 1.334 . S
C1131 H1102 0.950 . S
C1131 C1130 1.334 . S
C1131 C1132 1.287 . S
C1132 C1131 1.287 . S
C1132 C1133 1.524 . S
C1132 H1135 0.999 . S
C1133 H1103 0.950 . S
C1133 C1132 1.524 . S
C1133 C1134 1.415 . S
C1134 H1104 0.950 . S
C1134 C1129 1.363 . S
C1134 C1133 1.415 . S
H1135 C1132 0.999 . S
H1136 C1117 0.913 . S
H1137 C1155 0.951 . S
H1138 C1157 0.951 . S
H1139 C1159 0.950 . S
H1140 C1160 0.950 . S
H1141 C1162 0.950 . S
H1142 C1165 0.950 . S
H1143 C1166 0.950 . S
H1144 C1168 0.950 . S
H1145 C1169 0.950 . S
H1146 C1170 0.951 . S
H1147 C1172 0.951 . S
H1148 C1174 0.950 . S
H1149 C1175 0.950 . S
H1150 C1177 0.950 . S
H1151 C1180 0.950 . S
H1152 C1181 0.950 . S
H1153 C1183 0.950 . S
H1154 C1184 0.950 . S
C1155 H1137 0.951 . S
C1155 C1156 1.366 . S
C1155 C1157 1.388 . S
C1156 C1155 1.366 . S
C1156 C1160 1.385 . S
C1157 H1138 0.951 . S
C1157 C1155 1.388 . S
C1157 C1158 1.366 . S
C1158 C1157 1.366 . S
C1158 C1159 1.414 . S
C1158 C1161 1.499 . S
C1159 H1139 0.950 . S
C1159 C1158 1.414 . S
C1159 C1160 1.374 . S
C1160 H1140 0.950 . S
C1160 C1156 1.385 . S
C1160 C1159 1.374 . S
C1161 C1158 1.499 . S
C1161 C1162 1.373 . S
C1161 C1163 1.389 . S
C1162 H1141 0.950 . S
C1162 C1161 1.373 . S
C1162 C1178 1.377 . S
C1163 C1161 1.389 . S
C1163 C1164 1.524 . S
C1163 C1177 1.377 . S
C1164 C1163 1.524 . S
C1164 C1165 1.397 . S
C1164 C1169 1.363 . S
C1165 H1142 0.950 . S
C1165 C1164 1.397 . S
C1165 C1166 1.334 . S
C1166 H1143 0.950 . S
C1166 C1165 1.334 . S
C1166 C1167 1.287 . S
C1167 C1166 1.287 . S
C1167 C1168 1.524 . S
C1167 H1186 0.913 . S
C1168 H1144 0.950 . S
C1168 C1167 1.524 . S
C1168 C1169 1.415 . S
C1169 H1145 0.950 . S
C1169 C1164 1.363 . S
C1169 C1168 1.415 . S
C1170 H1146 0.951 . S
C1170 C1171 1.366 . S
C1170 C1172 1.388 . S
C1171 C1170 1.366 . S
C1171 C1175 1.385 . S
C1172 H1147 0.951 . S
C1172 C1170 1.388 . S
C1172 C1173 1.366 . S
C1173 C1172 1.366 . S
C1173 C1174 1.414 . S
C1173 C1176 1.499 . S
C1174 H1148 0.950 . S
C1174 C1173 1.414 . S
C1174 C1175 1.374 . S
C1175 H1149 0.950 . S
C1175 C1171 1.385 . S
C1175 C1174 1.374 . S
C1176 C1173 1.499 . S
C1176 C1177 1.373 . S
C1176 C1178 1.389 . S
C1177 H1150 0.950 . S
C1177 C1163 1.377 . S
C1177 C1176 1.373 . S
C1178 C1162 1.377 . S
C1178 C1176 1.389 . S
C1178 C1179 1.524 . S
C1179 C1178 1.524 . S
C1179 C1180 1.397 . S
C1179 C1184 1.363 . S
C1180 H1151 0.950 . S
C1180 C1179 1.397 . S
C1180 C1181 1.334 . S
C1181 H1152 0.950 . S
C1181 C1180 1.334 . S
C1181 C1182 1.287 . S
C1182 C1181 1.287 . S
C1182 C1183 1.524 . S
C1182 H1185 0.999 . S
C1183 H1153 0.950 . S
C1183 C1182 1.524 . S
C1183 C1184 1.415 . S
C1184 H1154 0.950 . S
C1184 C1179 1.363 . S
C1184 C1183 1.415 . S
H1185 C1182 0.999 . S
H1186 C1167 0.913 . S
H1187 C1205 0.951 . S
H1188 C1207 0.951 . S
H1189 C1209 0.950 . S
H1190 C1210 0.950 . S
H1191 C1212 0.950 . S
H1192 C1215 0.950 . S
H1193 C1216 0.950 . S
H1194 C1218 0.950 . S
H1195 C1219 0.950 . S
H1196 C1220 0.951 . S
H1197 C1222 0.951 . S
H1198 C1224 0.950 . S
H1199 C1225 0.950 . S
H1200 C1227 0.950 . S
H1201 C1230 0.950 . S
H1202 C1231 0.950 . S
H1203 C1233 0.950 . S
H1204 C1234 0.950 . S
C1205 H1187 0.951 . S
C1205 C1206 1.366 . S
C1205 C1207 1.388 . S
C1206 C1205 1.366 . S
C1206 C1210 1.385 . S
C1207 H1188 0.951 . S
C1207 C1205 1.388 . S
C1207 C1208 1.366 . S
C1208 C1207 1.366 . S
C1208 C1209 1.414 . S
C1208 C1211 1.499 . S
C1209 H1189 0.950 . S
C1209 C1208 1.414 . S
C1209 C1210 1.374 . S
C1210 H1190 0.950 . S
C1210 C1206 1.385 . S
C1210 C1209 1.374 . S
C1211 C1208 1.499 . S
C1211 C1212 1.373 . S
C1211 C1213 1.389 . S
C1212 H1191 0.950 . S
C1212 C1211 1.373 . S
C1212 C1228 1.377 . S
C1213 C1211 1.389 . S
C1213 C1214 1.524 . S
C1213 C1227 1.377 . S
C1214 C1213 1.524 . S
C1214 C1215 1.397 . S
C1214 C1219 1.363 . S
C1215 H1192 0.950 . S
C1215 C1214 1.397 . S
C1215 C1216 1.334 . S
C1216 H1193 0.950 . S
C1216 C1215 1.334 . S
C1216 C1217 1.287 . S
C1217 C1216 1.287 . S
C1217 C1218 1.524 . S
C1217 H1236 0.913 . S
C1218 H1194 0.950 . S
C1218 C1217 1.524 . S
C1218 C1219 1.415 . S
C1219 H1195 0.950 . S
C1219 C1214 1.363 . S
C1219 C1218 1.415 . S
C1220 H1196 0.951 . S
C1220 C1221 1.366 . S
C1220 C1222 1.388 . S
C1221 C1220 1.366 . S
C1221 C1225 1.385 . S
C1222 H1197 0.951 . S
C1222 C1220 1.388 . S
C1222 C1223 1.366 . S
C1223 C1222 1.366 . S
C1223 C1224 1.414 . S
C1223 C1226 1.499 . S
C1224 H1198 0.950 . S
C1224 C1223 1.414 . S
C1224 C1225 1.374 . S
C1225 H1199 0.950 . S
C1225 C1221 1.385 . S
C1225 C1224 1.374 . S
C1226 C1223 1.499 . S
C1226 C1227 1.373 . S
C1226 C1228 1.389 . S
C1227 H1200 0.950 . S
C1227 C1213 1.377 . S
C1227 C1226 1.373 . S
C1228 C1212 1.377 . S
C1228 C1226 1.389 . S
C1228 C1229 1.524 . S
C1229 C1228 1.524 . S
C1229 C1230 1.397 . S
C1229 C1234 1.363 . S
C1230 H1201 0.950 . S
C1230 C1229 1.397 . S
C1230 C1231 1.334 . S
C1231 H1202 0.950 . S
C1231 C1230 1.334 . S
C1231 C1232 1.287 . S
C1232 C1231 1.287 . S
C1232 C1233 1.524 . S
C1232 H1235 0.999 . S
C1233 H1203 0.950 . S
C1233 C1232 1.524 . S
C1233 C1234 1.415 . S
C1234 H1204 0.950 . S
C1234 C1229 1.363 . S
C1234 C1233 1.415 . S
H1235 C1232 0.999 . S
H1236 C1217 0.913 . S
H1237 C1255 0.951 . S
H1238 C1257 0.951 . S
H1239 C1259 0.950 . S
H1240 C1260 0.950 . S
H1241 C1262 0.950 . S
H1242 C1265 0.950 . S
H1243 C1266 0.950 . S
H1244 C1268 0.950 . S
H1245 C1269 0.950 . S
H1246 C1270 0.951 . S
H1247 C1272 0.951 . S
H1248 C1274 0.950 . S
H1249 C1275 0.950 . S
H1250 C1277 0.950 . S
H1251 C1280 0.950 . S
H1252 C1281 0.950 . S
H1253 C1283 0.950 . S
H1254 C1284 0.950 . S
C1255 H1237 0.951 . S
C1255 C1256 1.366 . S
C1255 C1257 1.388 . S
C1256 C1255 1.366 . S
C1256 C1260 1.385 . S
C1257 H1238 0.951 . S
C1257 C1255 1.388 . S
C1257 C1258 1.366 . S
C1258 C1257 1.366 . S
C1258 C1259 1.414 . S
C1258 C1261 1.499 . S
C1259 H1239 0.950 . S
C1259 C1258 1.414 . S
C1259 C1260 1.374 . S
C1260 H1240 0.950 . S
C1260 C1256 1.385 . S
C1260 C1259 1.374 . S
C1261 C1258 1.499 . S
C1261 C1262 1.373 . S
C1261 C1263 1.389 . S
C1262 H1241 0.950 . S
C1262 C1261 1.373 . S
C1262 C1278 1.377 . S
C1263 C1261 1.389 . S
C1263 C1264 1.524 . S
C1263 C1277 1.377 . S
C1264 C1263 1.524 . S
C1264 C1265 1.397 . S
C1264 C1269 1.363 . S
C1265 H1242 0.950 . S
C1265 C1264 1.397 . S
C1265 C1266 1.334 . S
C1266 H1243 0.950 . S
C1266 C1265 1.334 . S
C1266 C1267 1.287 . S
C1267 C1266 1.287 . S
C1267 C1268 1.524 . S
C1267 H1286 0.913 . S
C1268 H1244 0.950 . S
C1268 C1267 1.524 . S
C1268 C1269 1.415 . S
C1269 H1245 0.950 . S
C1269 C1264 1.363 . S
C1269 C1268 1.415 . S
C1270 H1246 0.951 . S
C1270 C1271 1.366 . S
C1270 C1272 1.388 . S
C1271 C1270 1.366 . S
C1271 C1275 1.385 . S
C1272 H1247 0.951 . S
C1272 C1270 1.388 . S
C1272 C1273 1.366 . S
C1273 C1272 1.366 . S
C1273 C1274 1.414 . S
C1273 C1276 1.499 . S
C1274 H1248 0.950 . S
C1274 C1273 1.414 . S
C1274 C1275 1.374 . S
C1275 H1249 0.950 . S
C1275 C1271 1.385 . S
C1275 C1274 1.374 . S
C1276 C1273 1.499 . S
C1276 C1277 1.373 . S
C1276 C1278 1.389 . S
C1277 H1250 0.950 . S
C1277 C1263 1.377 . S
C1277 C1276 1.373 . S
C1278 C1262 1.377 . S
C1278 C1276 1.389 . S
C1278 C1279 1.524 . S
C1279 C1278 1.524 . S
C1279 C1280 1.397 . S
C1279 C1284 1.363 . S
C1280 H1251 0.950 . S
C1280 C1279 1.397 . S
C1280 C1281 1.334 . S
C1281 H1252 0.950 . S
C1281 C1280 1.334 . S
C1281 C1282 1.287 . S
C1282 C1281 1.287 . S
C1282 C1283 1.524 . S
C1282 H1285 0.999 . S
C1283 H1253 0.950 . S
C1283 C1282 1.524 . S
C1283 C1284 1.415 . S
C1284 H1254 0.950 . S
C1284 C1279 1.363 . S
C1284 C1283 1.415 . S
H1285 C1282 0.999 . S
H1286 C1267 0.913 . S
H1287 C1305 0.951 . S
H1288 C1307 0.951 . S
H1289 C1309 0.950 . S
H1290 C1310 0.950 . S
H1291 C1312 0.950 . S
H1292 C1315 0.950 . S
H1293 C1316 0.950 . S
H1294 C1318 0.950 . S
H1295 C1319 0.950 . S
H1296 C1320 0.951 . S
H1297 C1322 0.951 . S
H1298 C1324 0.950 . S
H1299 C1325 0.950 . S
H1300 C1327 0.950 . S
H1301 C1330 0.950 . S
H1302 C1331 0.950 . S
H1303 C1333 0.950 . S
H1304 C1334 0.950 . S
C1305 H1287 0.951 . S
C1305 C1306 1.366 . S
C1305 C1307 1.388 . S
C1306 C1305 1.366 . S
C1306 C1310 1.385 . S
C1307 H1288 0.951 . S
C1307 C1305 1.388 . S
C1307 C1308 1.366 . S
C1308 C1307 1.366 . S
C1308 C1309 1.414 . S
C1308 C1311 1.499 . S
C1309 H1289 0.950 . S
C1309 C1308 1.414 . S
C1309 C1310 1.374 . S
C1310 H1290 0.950 . S
C1310 C1306 1.385 . S
C1310 C1309 1.374 . S
C1311 C1308 1.499 . S
C1311 C1312 1.373 . S
C1311 C1313 1.389 . S
C1312 H1291 0.950 . S
C1312 C1311 1.373 . S
C1312 C1328 1.377 . S
C1313 C1311 1.389 . S
C1313 C1314 1.524 . S
C1313 C1327 1.377 . S
C1314 C1313 1.524 . S
C1314 C1315 1.397 . S
C1314 C1319 1.363 . S
C1315 H1292 0.950 . S
C1315 C1314 1.397 . S
C1315 C1316 1.334 . S
C1316 H1293 0.950 . S
C1316 C1315 1.334 . S
C1316 C1317 1.287 . S
C1317 C1316 1.287 . S
C1317 C1318 1.524 . S
C1317 H1336 0.913 . S
C1318 H1294 0.950 . S
C1318 C1317 1.524 . S
C1318 C1319 1.415 . S
C1319 H1295 0.950 . S
C1319 C1314 1.363 . S
C1319 C1318 1.415 . S
C1320 H1296 0.951 . S
C1320 C1321 1.366 . S
C1320 C1322 1.388 . S
C1321 C1320 1.366 . S
C1321 C1325 1.385 . S
C1322 H1297 0.951 . S
C1322 C1320 1.388 . S
C1322 C1323 1.366 . S
C1323 C1322 1.366 . S
C1323 C1324 1.414 . S
C1323 C1326 1.499 . S
C1324 H1298 0.950 . S
C1324 C1323 1.414 . S
C1324 C1325 1.374 . S
C1325 H1299 0.950 . S
C1325 C1321 1.385 . S
C1325 C1324 1.374 . S
C1326 C1323 1.499 . S
C1326 C1327 1.373 . S
C1326 C1328 1.389 . S
C1327 H1300 0.950 . S
C1327 C1313 1.377 . S
C1327 C1326 1.373 . S
C1328 C1312 1.377 . S
C1328 C1326 1.389 . S
C1328 C1329 1.524 . S
C1329 C1328 1.524 . S
C1329 C1330 1.397 . S
C1329 C1334 1.363 . S
C1330 H1301 0.950 . S
C1330 C1329 1.397 . S
C1330 C1331 1.334 . S
C1331 H1302 0.950 . S
C1331 C1330 1.334 . S
C1331 C1332 1.287 . S
C1332 C1331 1.287 . S
C1332 C1333 1.524 . S
C1332 H1335 0.999 . S
C1333 H1303 0.950 . S
C1333 C1332 1.524 . S
C1333 C1334 1.415 . S
C1334 H1304 0.950 . S
C1334 C1329 1.363 . S
C1334 C1333 1.415 . S
H1335 C1332 0.999 . S
H1336 C1317 0.913 . S
H1337 C1355 0.951 . S
H1338 C1357 0.951 . S
H1339 C1359 0.950 . S
H1340 C1360 0.950 . S
H1341 C1362 0.950 . S
H1342 C1365 0.950 . S
H1343 C1366 0.950 . S
H1344 C1368 0.950 . S
H1345 C1369 0.950 . S
H1346 C1370 0.951 . S
H1347 C1372 0.951 . S
H1348 C1374 0.950 . S
H1349 C1375 0.950 . S
H1350 C1377 0.950 . S
H1351 C1380 0.950 . S
H1352 C1381 0.950 . S
H1353 C1383 0.950 . S
H1354 C1384 0.950 . S
C1355 H1337 0.951 . S
C1355 C1356 1.366 . S
C1355 C1357 1.388 . S
C1356 C1355 1.366 . S
C1356 C1360 1.385 . S
C1357 H1338 0.951 . S
C1357 C1355 1.388 . S
C1357 C1358 1.366 . S
C1358 C1357 1.366 . S
C1358 C1359 1.414 . S
C1358 C1361 1.499 . S
C1359 H1339 0.950 . S
C1359 C1358 1.414 . S
C1359 C1360 1.374 . S
C1360 H1340 0.950 . S
C1360 C1356 1.385 . S
C1360 C1359 1.374 . S
C1361 C1358 1.499 . S
C1361 C1362 1.373 . S
C1361 C1363 1.389 . S
C1362 H1341 0.950 . S
C1362 C1361 1.373 . S
C1362 C1378 1.377 . S
C1363 C1361 1.389 . S
C1363 C1364 1.524 . S
C1363 C1377 1.377 . S
C1364 C1363 1.524 . S
C1364 C1365 1.397 . S
C1364 C1369 1.363 . S
C1365 H1342 0.950 . S
C1365 C1364 1.397 . S
C1365 C1366 1.334 . S
C1366 H1343 0.950 . S
C1366 C1365 1.334 . S
C1366 C1367 1.287 . S
C1367 C1366 1.287 . S
C1367 C1368 1.524 . S
C1367 H1386 0.913 . S
C1368 H1344 0.950 . S
C1368 C1367 1.524 . S
C1368 C1369 1.415 . S
C1369 H1345 0.950 . S
C1369 C1364 1.363 . S
C1369 C1368 1.415 . S
C1370 H1346 0.951 . S
C1370 C1371 1.366 . S
C1370 C1372 1.388 . S
C1371 C1370 1.366 . S
C1371 C1375 1.385 . S
C1372 H1347 0.951 . S
C1372 C1370 1.388 . S
C1372 C1373 1.366 . S
C1373 C1372 1.366 . S
C1373 C1374 1.414 . S
C1373 C1376 1.499 . S
C1374 H1348 0.950 . S
C1374 C1373 1.414 . S
C1374 C1375 1.374 . S
C1375 H1349 0.950 . S
C1375 C1371 1.385 . S
C1375 C1374 1.374 . S
C1376 C1373 1.499 . S
C1376 C1377 1.373 . S
C1376 C1378 1.389 . S
C1377 H1350 0.950 . S
C1377 C1363 1.377 . S
C1377 C1376 1.373 . S
C1378 C1362 1.377 . S
C1378 C1376 1.389 . S
C1378 C1379 1.524 . S
C1379 C1378 1.524 . S
C1379 C1380 1.397 . S
C1379 C1384 1.363 . S
C1380 H1351 0.950 . S
C1380 C1379 1.397 . S
C1380 C1381 1.334 . S
C1381 H1352 0.950 . S
C1381 C1380 1.334 . S
C1381 C1382 1.287 . S
C1382 C1381 1.287 . S
C1382 C1383 1.524 . S
C1382 H1385 0.999 . S
C1383 H1353 0.950 . S
C1383 C1382 1.524 . S
C1383 C1384 1.415 . S
C1384 H1354 0.950 . S
C1384 C1379 1.363 . S
C1384 C1383 1.415 . S
H1385 C1382 0.999 . S
H1386 C1367 0.913 . S
C221 C112 1.496 . S
C206 C5 1.329 . S
C271 C148 1.856 . S
C256 C16 1.843 . S
C321 C113 1.116 . S
C306 C30 1.139 . S
C371 C143 1.097 . S
C356 C40 1.072 . S
C421 C110 1.058 . S
C406 C49 1.043 . S
C456 C63 1.462 . S
C471 C146 1.453 . S
C506 C74 0.366 . S
C521 C115 0.577 . S
C571 C145 1.576 . S
C556 C85 1.574 . S
C621 C149 1.528 . S
C606 C8 1.565 . S
C671 C114 1.870 . S
C656 C18 1.910 . S
C721 C142 1.669 . S
C706 C27 1.564 . S
C771 C111 0.639 . S
C756 C38 0.681 . S
C821 C144 1.811 . S
C806 C51 1.930 . S
C856 C60 1.552 . S
C871 C109 1.656 . S
C906 C71 1.084 . S
C921 C147 1.127 . S
C971 C116 1.429 . S
C956 C84 1.455 . S
C1021 C178 2.340 . S
C1006 C7 2.350 . S
C1056 C52 1.870 . S
C1071 C181 1.709 . S
C1121 C180 1.951 . S
C1106 C62 1.967 . S
C1156 C73 2.019 . S
C1171 C179 2.047 . S
C1221 C182 1.838 . S
C1206 C82 1.668 . S
C1256 C29 1.958 . S
C1271 C176 1.913 . S
C1321 C175 1.402 . S
C1306 C41 1.396 . S
C1356 C19 1.935 . S
C1371 C177 1.804 . S
