# Generated by pormake.
# Topology ocu, (6,8)-cn, num edge types: 1
# Building blocks:
#     Node 0, Type 0, BuildingBlock: PAMTOO_clean_sbu_0, # of connection points: 6
#     Node 1, Type 0, BuildingBlock: PAMTOO_clean_sbu_0, # of connection points: 6
#     Node 2, Type 0, BuildingBlock: PAMTOO_clean_sbu_0, # of connection points: 6
#     Node 3, Type 0, BuildingBlock: PAMTOO_clean_sbu_0, # of connection points: 6
#     Node 4, Type 0, BuildingBlock: PAMTOO_clean_sbu_0, # of connection points: 6
#     Node 5, Type 0, BuildingBlock: PAMTOO_clean_sbu_0, # of connection points: 6
#     Node 6, Type 0, BuildingBlock: PAMTOO_clean_sbu_0, # of connection points: 6
#     Node 7, Type 0, BuildingBlock: PAMTOO_clean_sbu_0, # of connection points: 6
#     Node 8, Type 1, BuildingBlock: TAGTUT_clean_sbu_1, # of connection points: 8
#     Node 9, Type 1, BuildingBlock: TAGTUT_clean_sbu_1, # of connection points: 8
#     Node 10, Type 1, BuildingBlock: TAGTUT_clean_sbu_1, # of connection points: 8
#     Node 11, Type 1, BuildingBlock: TAGTUT_clean_sbu_1, # of connection points: 8
#     Node 12, Type 1, BuildingBlock: TAGTUT_clean_sbu_1, # of connection points: 8
#     Node 13, Type 1, BuildingBlock: TAGTUT_clean_sbu_1, # of connection points: 8
#     Edge 14, Type (0, 1), BuildingBlock: MIFKUJ_clean_linker_0, # of connection points: 2
#     Edge 15, Type (0, 1), BuildingBlock: MIFKUJ_clean_linker_0, # of connection points: 2
#     Edge 16, Type (0, 1), BuildingBlock: MIFKUJ_clean_linker_0, # of connection points: 2
#     Edge 17, Type (0, 1), BuildingBlock: MIFKUJ_clean_linker_0, # of connection points: 2
#     Edge 18, Type (0, 1), BuildingBlock: MIFKUJ_clean_linker_0, # of connection points: 2
#     Edge 19, Type (0, 1), BuildingBlock: MIFKUJ_clean_linker_0, # of connection points: 2
#     Edge 20, Type (0, 1), BuildingBlock: MIFKUJ_clean_linker_0, # of connection points: 2
#     Edge 21, Type (0, 1), BuildingBlock: MIFKUJ_clean_linker_0, # of connection points: 2
#     Edge 22, Type (0, 1), BuildingBlock: MIFKUJ_clean_linker_0, # of connection points: 2
#     Edge 23, Type (0, 1), BuildingBlock: MIFKUJ_clean_linker_0, # of connection points: 2
#     Edge 24, Type (0, 1), BuildingBlock: MIFKUJ_clean_linker_0, # of connection points: 2
#     Edge 25, Type (0, 1), BuildingBlock: MIFKUJ_clean_linker_0, # of connection points: 2
#     Edge 26, Type (0, 1), BuildingBlock: MIFKUJ_clean_linker_0, # of connection points: 2
#     Edge 27, Type (0, 1), BuildingBlock: MIFKUJ_clean_linker_0, # of connection points: 2
#     Edge 28, Type (0, 1), BuildingBlock: MIFKUJ_clean_linker_0, # of connection points: 2
#     Edge 29, Type (0, 1), BuildingBlock: MIFKUJ_clean_linker_0, # of connection points: 2
#     Edge 30, Type (0, 1), BuildingBlock: MIFKUJ_clean_linker_0, # of connection points: 2
#     Edge 31, Type (0, 1), BuildingBlock: MIFKUJ_clean_linker_0, # of connection points: 2
#     Edge 32, Type (0, 1), BuildingBlock: MIFKUJ_clean_linker_0, # of connection points: 2
#     Edge 33, Type (0, 1), BuildingBlock: MIFKUJ_clean_linker_0, # of connection points: 2
#     Edge 34, Type (0, 1), BuildingBlock: MIFKUJ_clean_linker_0, # of connection points: 2
#     Edge 35, Type (0, 1), BuildingBlock: MIFKUJ_clean_linker_0, # of connection points: 2
#     Edge 36, Type (0, 1), BuildingBlock: MIFKUJ_clean_linker_0, # of connection points: 2
#     Edge 37, Type (0, 1), BuildingBlock: MIFKUJ_clean_linker_0, # of connection points: 2
#     Edge 38, Type (0, 1), BuildingBlock: MIFKUJ_clean_linker_0, # of connection points: 2
#     Edge 39, Type (0, 1), BuildingBlock: MIFKUJ_clean_linker_0, # of connection points: 2
#     Edge 40, Type (0, 1), BuildingBlock: MIFKUJ_clean_linker_0, # of connection points: 2
#     Edge 41, Type (0, 1), BuildingBlock: MIFKUJ_clean_linker_0, # of connection points: 2
#     Edge 42, Type (0, 1), BuildingBlock: MIFKUJ_clean_linker_0, # of connection points: 2
#     Edge 43, Type (0, 1), BuildingBlock: MIFKUJ_clean_linker_0, # of connection points: 2
#     Edge 44, Type (0, 1), BuildingBlock: MIFKUJ_clean_linker_0, # of connection points: 2
#     Edge 45, Type (0, 1), BuildingBlock: MIFKUJ_clean_linker_0, # of connection points: 2
#     Edge 46, Type (0, 1), BuildingBlock: MIFKUJ_clean_linker_0, # of connection points: 2
#     Edge 47, Type (0, 1), BuildingBlock: MIFKUJ_clean_linker_0, # of connection points: 2
#     Edge 48, Type (0, 1), BuildingBlock: MIFKUJ_clean_linker_0, # of connection points: 2
#     Edge 49, Type (0, 1), BuildingBlock: MIFKUJ_clean_linker_0, # of connection points: 2
#     Edge 50, Type (0, 1), BuildingBlock: MIFKUJ_clean_linker_0, # of connection points: 2
#     Edge 51, Type (0, 1), BuildingBlock: MIFKUJ_clean_linker_0, # of connection points: 2
#     Edge 52, Type (0, 1), BuildingBlock: MIFKUJ_clean_linker_0, # of connection points: 2
#     Edge 53, Type (0, 1), BuildingBlock: MIFKUJ_clean_linker_0, # of connection points: 2
#     Edge 54, Type (0, 1), BuildingBlock: MIFKUJ_clean_linker_0, # of connection points: 2
#     Edge 55, Type (0, 1), BuildingBlock: MIFKUJ_clean_linker_0, # of connection points: 2
#     Edge 56, Type (0, 1), BuildingBlock: MIFKUJ_clean_linker_0, # of connection points: 2
#     Edge 57, Type (0, 1), BuildingBlock: MIFKUJ_clean_linker_0, # of connection points: 2
#     Edge 58, Type (0, 1), BuildingBlock: MIFKUJ_clean_linker_0, # of connection points: 2
#     Edge 59, Type (0, 1), BuildingBlock: MIFKUJ_clean_linker_0, # of connection points: 2
#     Edge 60, Type (0, 1), BuildingBlock: MIFKUJ_clean_linker_0, # of connection points: 2
#     Edge 61, Type (0, 1), BuildingBlock: MIFKUJ_clean_linker_0, # of connection points: 2
# Relax obj value: 0.172
# Max RMSD: 0.290
# Mean RMSD: 0.154
data_MOF--net-ocu--node1-PAMTOO_clean_sbu_0--node2-TAGTUT_clean_sbu_1--edge1-MIFKUJ_clean_linker_0
_symmetry_space_group_name_H-M    P1
_symmetry_Int_Tables_number       1
_symmetry_cell_setting            triclinic
loop_
_symmetry_equiv_pos_as_xyz
'x, y, z'
_cell_length_a     48.765594
_cell_length_b     49.536342
_cell_length_c     51.160717
_cell_angle_alpha  92.822497
_cell_angle_beta   94.353029
_cell_angle_gamma 105.44681
loop_
_atom_site_label
_atom_site_type_symbol
_atom_site_fract_x
_atom_site_fract_y
_atom_site_fract_z
_atom_type_partial_charge
Dy0 Dy 0.32486 0.29736 0.29757 0.0
Dy1 Dy 0.2687 0.28313 0.25642 0.0
C2 C 0.32021 0.2538 0.24513 0.0
O3 O 0.33949 0.32162 0.26274 0.0
O4 O 0.2965 0.3238 0.2432 0.0
O5 O 0.36365 0.32625 0.31627 0.0
O6 O 0.35048 0.28319 0.32711 0.0
O7 O 0.25802 0.31098 0.28884 0.0
O8 O 0.30135 0.32795 0.31313 0.0
O9 O 0.2613 0.24703 0.28272 0.0
O10 O 0.28936 0.27047 0.31863 0.0
O11 O 0.2231 0.26488 0.24935 0.0
O12 O 0.24742 0.2825 0.2177 0.0
C13 C 0.3247 0.33203 0.24527 0.0
O14 O 0.33276 0.26408 0.26873 0.0
O15 O 0.29601 0.25896 0.23649 0.0
C16 C 0.39942 0.30327 0.32572 0.0
C17 C 0.45126 0.28874 0.32344 0.0
C18 C 0.42932 0.27964 0.3029 0.0
C19 C 0.40372 0.28701 0.30399 0.0
C20 C 0.42184 0.3141 0.3453 0.0
C21 C 0.44769 0.30711 0.34407 0.0
C22 C 0.37086 0.30663 0.32902 0.0
C23 C 0.27411 0.32731 0.30858 0.0
C24 C 0.26771 0.24977 0.30833 0.0
C25 C 0.20013 0.28671 0.2182 0.0
C26 C 0.15734 0.31367 0.20515 0.0
C27 C 0.15002 0.28599 0.21285 0.0
C28 C 0.17124 0.27263 0.21923 0.0
C29 C 0.20759 0.31448 0.21088 0.0
C30 C 0.1864 0.32776 0.20428 0.0
C31 C 0.22205 0.27226 0.22533 0.0
H32 H 0.43107 0.26532 0.28682 0.0
H33 H 0.38668 0.27877 0.28857 0.0
H34 H 0.41897 0.32697 0.36207 0.0
H35 H 0.46439 0.31504 0.35991 0.0
H36 H 0.1279 0.27466 0.21403 0.0
H37 H 0.16509 0.25126 0.22505 0.0
H38 H 0.22976 0.3259 0.2101 0.0
H39 H 0.19281 0.3489 0.19798 0.0
Dy40 Dy 0.83472 0.29517 0.26411 0.0
Dy41 Dy 0.78198 0.28643 0.2992 0.0
C42 C 0.83821 0.33666 0.31476 0.0
O43 O 0.83776 0.25996 0.29004 0.0
O44 O 0.81543 0.27173 0.32447 0.0
O45 O 0.86775 0.31853 0.24161 0.0
O46 O 0.86431 0.27491 0.24811 0.0
O47 O 0.77163 0.24793 0.27151 0.0
O48 O 0.79847 0.26667 0.23888 0.0
O49 O 0.76674 0.30366 0.26197 0.0
O50 O 0.80973 0.32454 0.24699 0.0
O51 O 0.74894 0.30262 0.31445 0.0
O52 O 0.75248 0.26148 0.32381 0.0
C53 C 0.83307 0.25834 0.31499 0.0
O54 O 0.85246 0.32354 0.3003 0.0
O55 O 0.81026 0.32859 0.31354 0.0
C56 C 0.87658 0.28943 0.20718 0.0
C57 C 0.87884 0.27896 0.153 0.0
C58 C 0.85449 0.28468 0.16263 0.0
C59 C 0.85341 0.2899 0.18947 0.0
C60 C 0.89958 0.281 0.19812 0.0
C61 C 0.90061 0.27552 0.17122 0.0
C62 C 0.87607 0.29628 0.23522 0.0
C63 C 0.77795 0.24702 0.24709 0.0
C64 C 0.78181 0.32133 0.24654 0.0
C65 C 0.70671 0.266 0.31287 0.0
C66 C 0.65491 0.22874 0.29112 0.0
C67 C 0.67365 0.24502 0.27478 0.0
C68 C 0.69948 0.26329 0.28556 0.0
C69 C 0.68677 0.25232 0.32938 0.0
C70 C 0.66113 0.23375 0.31863 0.0
C71 C 0.73641 0.27873 0.32346 0.0
H72 H 0.83709 0.28733 0.14951 0.0
H73 H 0.83494 0.29536 0.19631 0.0
H74 H 0.91711 0.27944 0.21176 0.0
H75 H 0.91923 0.2702 0.16465 0.0
H76 H 0.66948 0.24195 0.25361 0.0
H77 H 0.71466 0.2737 0.27243 0.0
H78 H 0.69209 0.25398 0.35046 0.0
H79 H 0.64782 0.22111 0.33192 0.0
Dy80 Dy 0.76162 0.72755 0.34566 0.0
Dy81 Dy 0.73251 0.75792 0.29966 0.0
C82 C 0.77995 0.79258 0.3412 0.0
O83 O 0.72222 0.73223 0.36272 0.0
O84 O 0.71229 0.7656 0.33595 0.0
O85 O 0.79421 0.73198 0.37757 0.0
O86 O 0.76665 0.69072 0.3644 0.0
O87 O 0.7022 0.71764 0.30738 0.0
O88 O 0.73593 0.69483 0.31531 0.0
O89 O 0.75863 0.7339 0.27972 0.0
O90 O 0.79187 0.73669 0.31438 0.0
O91 O 0.70679 0.75488 0.26281 0.0
O92 O 0.72742 0.79565 0.28311 0.0
C93 C 0.70862 0.75116 0.35697 0.0
O94 O 0.77067 0.77312 0.3572 0.0
O95 O 0.77413 0.78741 0.31578 0.0
C96 C 0.81593 0.69584 0.37451 0.0
C97 C 0.87015 0.68871 0.36698 0.0
C98 C 0.86268 0.69396 0.39241 0.0
C99 C 0.83581 0.69755 0.39611 0.0
C100 C 0.82295 0.68982 0.3491 0.0
C101 C 0.84984 0.68609 0.34537 0.0
C102 C 0.79019 0.70497 0.37812 0.0
C103 C 0.71045 0.69469 0.30506 0.0
C104 C 0.78354 0.73154 0.28922 0.0
C105 C 0.68484 0.79204 0.25597 0.0
C106 C 0.63975 0.81265 0.23512 0.0
C107 C 0.63544 0.78374 0.23793 0.0
C108 C 0.65781 0.77349 0.24826 0.0
C109 C 0.68876 0.82094 0.25415 0.0
C110 C 0.66652 0.83114 0.24387 0.0
C111 C 0.71 0.78193 0.26333 0.0
H112 H 0.87771 0.69544 0.40948 0.0
H113 H 0.83089 0.70259 0.41577 0.0
H114 H 0.80801 0.68895 0.33208 0.0
H115 H 0.85506 0.682 0.32562 0.0
H116 H 0.61501 0.76899 0.23151 0.0
H117 H 0.65417 0.75106 0.2494 0.0
H118 H 0.70946 0.83565 0.25968 0.0
H119 H 0.67086 0.85345 0.24153 0.0
Dy120 Dy 0.27609 0.80599 0.27466 0.0
Dy121 Dy 0.33045 0.78335 0.29514 0.0
C122 C 0.32412 0.84192 0.31931 0.0
O123 O 0.30685 0.81781 0.24343 0.0
O124 O 0.34845 0.81423 0.26544 0.0
O125 O 0.25262 0.8371 0.27348 0.0
O126 O 0.2375 0.7988 0.24827 0.0
O127 O 0.30943 0.75688 0.25885 0.0
O128 O 0.26513 0.75966 0.26653 0.0
O129 O 0.29489 0.76267 0.31981 0.0
O130 O 0.26143 0.78716 0.31231 0.0
O131 O 0.34425 0.75066 0.31401 0.0
O132 O 0.37543 0.78518 0.2999 0.0
C133 C 0.33496 0.8229 0.24556 0.0
O134 O 0.30478 0.84193 0.30002 0.0
O135 O 0.33395 0.82008 0.32322 0.0
C136 C 0.2039 0.81634 0.26985 0.0
C137 C 0.16771 0.81742 0.30974 0.0
C138 C 0.1753 0.79268 0.30306 0.0
C139 C 0.19359 0.79224 0.28343 0.0
C140 C 0.19277 0.83936 0.27366 0.0
C141 C 0.17487 0.83998 0.29353 0.0
C142 C 0.23127 0.82087 0.2584 0.0
C143 C 0.28176 0.7463 0.25595 0.0
C144 C 0.27081 0.76835 0.32505 0.0
C145 C 0.38122 0.73953 0.29387 0.0
C146 C 0.3915 0.69391 0.26512 0.0
C147 C 0.38406 0.71564 0.25209 0.0
C148 C 0.37878 0.73814 0.26632 0.0
C149 C 0.38969 0.71851 0.30703 0.0
C150 C 0.3949 0.69585 0.29275 0.0
C151 C 0.37053 0.76016 0.30854 0.0
H152 H 0.16943 0.77467 0.31468 0.0
H153 H 0.2019 0.77416 0.28081 0.0
H154 H 0.20058 0.85817 0.26346 0.0
H155 H 0.16956 0.85947 0.29799 0.0
H156 H 0.3819 0.71508 0.23082 0.0
H157 H 0.37182 0.75394 0.25576 0.0
H158 H 0.39114 0.71903 0.32829 0.0
H159 H 0.4005 0.67938 0.30332 0.0
Dy160 Dy 0.2955 0.78315 0.76344 0.0
Dy161 Dy 0.25984 0.7938 0.81124 0.0
C162 C 0.31636 0.8358 0.8023 0.0
O163 O 0.31675 0.76722 0.79867 0.0
O164 O 0.28229 0.76214 0.82762 0.0
O165 O 0.33724 0.7852 0.75132 0.0
O166 O 0.29984 0.7702 0.72328 0.0
O167 O 0.22988 0.76087 0.78423 0.0
O168 O 0.26369 0.74215 0.768 0.0
O169 O 0.24665 0.81974 0.77925 0.0
O170 O 0.26238 0.80193 0.74286 0.0
O171 O 0.23066 0.78205 0.84095 0.0
O172 O 0.24989 0.82612 0.83543 0.0
C173 C 0.30635 0.75743 0.82057 0.0
O174 O 0.30978 0.82863 0.77728 0.0
O175 O 0.30506 0.8183 0.81919 0.0
C176 C 0.34241 0.79877 0.70865 0.0
C177 C 0.37448 0.84389 0.68269 0.0
C178 C 0.34497 0.83999 0.68412 0.0
C179 C 0.32913 0.81778 0.69718 0.0
C180 C 0.37142 0.80169 0.70604 0.0
C181 C 0.38736 0.82407 0.69329 0.0
C182 C 0.32774 0.77873 0.72667 0.0
C183 C 0.23731 0.73981 0.77331 0.0
C184 C 0.24746 0.8177 0.75344 0.0
C185 C 0.23752 0.81455 0.87769 0.0
C186 C 0.23982 0.82036 0.93272 0.0
C187 C 0.2618 0.81271 0.92042 0.0
C188 C 0.26065 0.80983 0.89299 0.0
C189 C 0.21689 0.8243 0.88979 0.0
C190 C 0.2181 0.82739 0.91708 0.0
C191 C 0.23354 0.80813 0.84926 0.0
H192 H 0.33421 0.85449 0.67573 0.0
H193 H 0.30679 0.81616 0.69918 0.0
H194 H 0.38213 0.78746 0.71508 0.0
H195 H 0.41006 0.82655 0.69291 0.0
H196 H 0.27885 0.8073 0.93198 0.0
H197 H 0.27698 0.80263 0.88379 0.0
H198 H 0.19907 0.82831 0.87813 0.0
H199 H 0.20066 0.83301 0.92583 0.0
Dy200 Dy 0.32971 0.30624 0.76764 0.0
Dy201 Dy 0.27639 0.28339 0.80287 0.0
C202 C 0.28719 0.24405 0.75601 0.0
O203 O 0.29751 0.3297 0.75587 0.0
O204 O 0.2571 0.29809 0.76645 0.0
O205 O 0.34571 0.31826 0.73057 0.0
O206 O 0.37472 0.32534 0.76602 0.0
O207 O 0.29052 0.32965 0.8111 0.0
O208 O 0.33687 0.33386 0.80437 0.0
O209 O 0.31522 0.27464 0.82419 0.0
O210 O 0.34259 0.27298 0.79006 0.0
O211 O 0.26367 0.27841 0.84215 0.0
O212 O 0.2319 0.26534 0.80875 0.0
C213 C 0.26951 0.31975 0.75353 0.0
O214 O 0.3037 0.26617 0.74647 0.0
O215 O 0.27773 0.24504 0.77929 0.0
C216 C 0.39223 0.31501 0.72646 0.0
C217 C 0.42933 0.29352 0.6975 0.0
C218 C 0.40908 0.27564 0.71153 0.0
C219 C 0.39063 0.28632 0.7259 0.0
C220 C 0.41272 0.33303 0.71301 0.0
C221 C 0.4312 0.32238 0.69862 0.0
C222 C 0.37226 0.32621 0.74055 0.0
C223 C 0.31739 0.34363 0.81465 0.0
C224 C 0.3365 0.26724 0.81413 0.0
C225 C 0.22048 0.28942 0.846 0.0
C226 C 0.19959 0.33159 0.86971 0.0
C227 C 0.21163 0.31429 0.88525 0.0
C228 C 0.22187 0.29331 0.87348 0.0
C229 C 0.20755 0.30607 0.83045 0.0
C230 C 0.19705 0.32684 0.84222 0.0
C231 C 0.23655 0.27139 0.83414 0.0
H232 H 0.40739 0.25338 0.71125 0.0
H233 H 0.37491 0.2722 0.73634 0.0
H234 H 0.41412 0.35525 0.71331 0.0
H235 H 0.44634 0.33658 0.68775 0.0
H236 H 0.21362 0.31732 0.90649 0.0
H237 H 0.23205 0.28095 0.88585 0.0
H238 H 0.20663 0.30393 0.80921 0.0
H239 H 0.18813 0.34004 0.82976 0.0
Dy240 Dy 0.7706 0.31724 0.76966 0.0
Dy241 Dy 0.81522 0.28499 0.79585 0.0
C242 C 0.80833 0.34141 0.82392 0.0
O243 O 0.80804 0.3255 0.74494 0.0
O244 O 0.84255 0.31973 0.77522 0.0
O245 O 0.76332 0.34761 0.74296 0.0
O246 O 0.72955 0.32648 0.7656 0.0
O247 O 0.80255 0.26626 0.75429 0.0
O248 O 0.75871 0.27491 0.74829 0.0
O249 O 0.77234 0.26193 0.80722 0.0
O250 O 0.74812 0.29541 0.80303 0.0
O251 O 0.82155 0.24668 0.81021 0.0
O252 O 0.85741 0.28344 0.81096 0.0
C253 C 0.83517 0.32952 0.75317 0.0
O254 O 0.79776 0.34707 0.80119 0.0
O255 O 0.81268 0.31675 0.8277 0.0
C256 C 0.73625 0.37471 0.76198 0.0
C257 C 0.72882 0.42245 0.78992 0.0
C258 C 0.75483 0.41523 0.79318 0.0
C259 C 0.75855 0.39184 0.77917 0.0
C260 C 0.71085 0.38251 0.75743 0.0
C261 C 0.70728 0.4064 0.77103 0.0
C262 C 0.73871 0.34745 0.75125 0.0
C263 C 0.77688 0.26092 0.74177 0.0
C264 C 0.7505 0.27158 0.812 0.0
C265 C 0.86401 0.23948 0.79789 0.0
C266 C 0.88127 0.20153 0.76447 0.0
C267 C 0.87915 0.2275 0.75588 0.0
C268 C 0.87055 0.24623 0.77239 0.0
C269 C 0.86716 0.21414 0.807 0.0
C270 C 0.87575 0.19524 0.79039 0.0
C271 C 0.84923 0.25636 0.81287 0.0
H272 H 0.77192 0.4266 0.8076 0.0
H273 H 0.77853 0.38644 0.78269 0.0
H274 H 0.69347 0.36966 0.74406 0.0
H275 H 0.68726 0.41168 0.7673 0.0
H276 H 0.88261 0.23275 0.73587 0.0
H277 H 0.86755 0.26536 0.7647 0.0
H278 H 0.8617 0.20842 0.8265 0.0
H279 H 0.8773 0.17543 0.79754 0.0
Dy280 Dy 0.82849 0.7977 0.80682 0.0
Dy281 Dy 0.77543 0.77389 0.76293 0.0
C282 C 0.83518 0.75431 0.75716 0.0
O283 O 0.84258 0.82191 0.77181 0.0
O284 O 0.80152 0.81151 0.74397 0.0
O285 O 0.8612 0.79116 0.83453 0.0
O286 O 0.85865 0.83348 0.82803 0.0
O287 O 0.75781 0.80141 0.79146 0.0
O288 O 0.79723 0.82223 0.81981 0.0
O289 O 0.76608 0.74221 0.79335 0.0
O290 O 0.79776 0.76498 0.82792 0.0
O291 O 0.7333 0.77347 0.74678 0.0
O292 O 0.75434 0.74447 0.7301 0.0
C293 C 0.8286 0.82533 0.74976 0.0
O294 O 0.84548 0.76786 0.78036 0.0
O295 O 0.80935 0.75447 0.74713 0.0
C296 C 0.877 0.82525 0.86987 0.0
C297 C 0.89025 0.83169 0.92464 0.0
C298 C 0.86159 0.82256 0.91385 0.0
C299 C 0.85501 0.81925 0.88659 0.0
C300 C 0.9053 0.83637 0.88046 0.0
C301 C 0.91191 0.8396 0.90761 0.0
C302 C 0.87131 0.81789 0.84159 0.0
C303 C 0.76993 0.81912 0.81202 0.0
C304 C 0.77527 0.74457 0.81841 0.0
C305 C 0.72459 0.76274 0.70178 0.0
C306 C 0.70279 0.7872 0.65954 0.0
C307 C 0.73082 0.7991 0.67118 0.0
C308 C 0.74164 0.78688 0.69208 0.0
C309 C 0.69786 0.74918 0.68868 0.0
C310 C 0.68709 0.76119 0.66747 0.0
C311 C 0.73245 0.75476 0.7278 0.0
H312 H 0.84441 0.81658 0.92644 0.0
H313 H 0.83297 0.81083 0.87859 0.0
H314 H 0.92247 0.84116 0.86772 0.0
H315 H 0.93423 0.84627 0.91509 0.0
H316 H 0.74356 0.81917 0.66587 0.0
H317 H 0.76238 0.79753 0.70203 0.0
H318 H 0.68454 0.73038 0.69592 0.0
H319 H 0.66573 0.75113 0.6585 0.0
C320 C 0.96196 0.0812 0.54921 0.0
C321 C 0.99253 0.09744 0.4766 0.0
C322 C 1.0055 0.9822 0.49069 0.0
Mg323 Mg 1.02392 0.09689 0.53339 0.0
O324 O 1.01664 0.058 0.52993 0.0
Mg325 Mg 0.98091 0.03519 0.50881 0.0
Mg326 Mg 0.04521 0.03548 0.52612 0.0
O327 O 0.07336 1.01245 0.52228 0.0
Mg328 Mg 0.06312 0.97353 0.52426 0.0
Mg329 Mg 0.1089 0.03501 0.54368 0.0
C330 C 0.08362 0.08893 0.5636 0.0
C331 C 0.09837 0.07322 0.49392 0.0
O332 O 0.9554 0.05983 0.5324 0.0
O333 O 0.98749 0.09707 0.55419 0.0
O334 O 0.98273 0.07039 0.47649 0.0
O335 O 1.01055 0.11124 0.49543 0.0
O336 O 0.06676 0.10389 0.55594 0.0
O337 O 0.07781 0.06221 0.55796 0.0
C338 C 0.99205 0.99644 0.55766 0.0
O339 O 1.01943 1.00564 0.55732 0.0
O340 O 0.97528 1.00412 0.541 0.0
O341 O 0.1332 1.00665 0.52266 0.0
O342 O 0.099 0.96815 0.50525 0.0
O343 O 0.10646 1.00235 0.57777 0.0
C344 C 0.12504 0.98305 0.50879 0.0
O345 O 0.07458 0.96169 0.56432 0.0
O346 O 1.02079 0.96685 0.5008 0.0
C347 C 0.09461 0.97629 0.58116 0.0
O348 O 1.01272 1.0092 0.49418 0.0
O349 O 0.07103 0.06506 0.495 0.0
O350 O 0.11516 0.06489 0.51013 0.0
C351 C 0.46663 0.10591 0.06335 0.0
C352 C 0.48703 0.11246 0.98156 0.0
C353 C 0.4774 1.00144 0.9722 0.0
Mg354 Mg 0.52239 0.10743 0.03415 0.0
O355 O 0.50887 0.06801 0.03044 0.0
Mg356 Mg 0.46793 0.05336 0.01492 0.0
Mg357 Mg 0.52915 0.0414 1.01201 0.0
O358 O 0.54907 1.01542 0.99203 0.0
Mg359 Mg 0.53391 0.97668 0.98297 0.0
Mg360 Mg 0.58894 0.02822 1.00963 0.0
C361 C 0.58122 0.08556 0.0458 0.0
C362 C 0.57712 0.07755 0.97344 0.0
O363 O 0.45355 0.08428 0.04742 0.0
O364 O 0.49367 0.11701 0.06292 0.0
O365 O 0.47124 0.0881 0.98536 0.0
O366 O 0.50952 0.12396 0.99705 0.0
O367 O 0.56652 0.10389 0.04524 0.0
O368 O 0.57056 0.05942 0.03745 0.0
C369 C 0.48185 1.00502 0.05221 0.0
O370 O 0.50681 1.00828 0.04347 0.0
O371 O 0.46533 0.01963 0.04396 0.0
O372 O 0.60559 0.99604 0.9788 0.0
O373 O 0.56686 0.96461 0.95908 0.0
O374 O 0.57781 0.99268 0.03797 0.0
C375 C 0.59435 0.9745 0.96208 0.0
O376 O 0.53791 0.96044 0.02116 0.0
O377 O 0.49122 0.98265 0.96882 0.0
C378 C 0.558 0.96996 0.03957 0.0
O379 O 0.48793 0.02446 0.98661 0.0
O380 O 0.55199 0.07409 0.98176 0.0
O381 O 0.59379 0.06274 0.98121 0.0
C382 C 0.94726 0.61268 0.11822 0.0
C383 C 0.98911 0.65115 0.05494 0.0
C384 C 0.96376 0.54267 1.00745 0.0
Mg385 Mg 1.00781 0.62023 0.10058 0.0
O386 O 0.99073 0.58646 0.08085 0.0
Mg387 Mg 0.95428 0.58251 0.05841 0.0
Mg388 Mg 1.01249 0.57133 0.05519 0.0
O389 O 0.03451 0.5548 0.03011 0.0
Mg390 Mg 1.01784 0.51761 0.01694 0.0
Mg391 Mg 0.07115 0.56021 0.05334 0.0
C392 C 0.0602 0.59415 0.10683 0.0
C393 C 0.0649 0.62096 0.03714 0.0
O394 O 0.93661 0.59921 0.09595 0.0
O395 O 0.97422 0.62114 0.12459 0.0
O396 O 0.96933 0.62864 0.04757 0.0
O397 O 1.00787 0.65211 0.07403 0.0
O398 O 0.04753 0.61185 0.11574 0.0
O399 O 0.04972 0.57743 0.08643 0.0
C400 C 0.96002 0.52111 0.07156 0.0
O401 O 0.98663 0.52889 0.06762 0.0
O402 O 0.94382 0.53767 0.0698 0.0
O403 O 0.08861 0.54099 0.01762 0.0
O404 O 0.05045 0.5141 0.99223 0.0
O405 O 0.05889 0.51714 0.06942 0.0
C406 C 0.0775 0.52459 0.99702 0.0
O407 O 1.01911 0.4898 0.04783 0.0
O408 O 0.97703 0.52393 1.00298 0.0
C409 C 0.03924 0.49412 0.06626 0.0
O410 O 0.97461 0.56472 0.02344 0.0
O411 O 0.03873 0.61443 0.04272 0.0
O412 O 0.08035 0.6037 0.03868 0.0
C413 C 0.47205 0.56956 0.05347 0.0
C414 C 0.47304 0.60019 0.98059 0.0
C415 C 0.50907 0.47611 1.0062 0.0
Mg416 Mg 0.52215 0.5994 0.02405 0.0
O417 O 0.52393 0.56339 1.01068 0.0
Mg418 Mg 0.4858 0.53567 0.99705 0.0
Mg419 Mg 0.54686 0.53867 0.02991 0.0
O420 O 0.56951 0.51383 0.04906 0.0
Mg421 Mg 0.57155 0.4781 0.03508 0.0
Mg422 Mg 0.60695 0.54165 0.06387 0.0
C423 C 0.58332 0.60122 0.05546 0.0
C424 C 0.60567 0.56378 1.00099 0.0
O425 O 0.46697 0.54857 0.03618 0.0
O426 O 0.4931 0.59101 0.05296 0.0
O427 O 0.46424 0.57328 0.9828 0.0
O428 O 0.49735 0.61452 0.99221 0.0
O429 O 0.5654 0.614 0.04566 0.0
O430 O 0.57921 0.57446 0.05244 0.0
C431 C 0.48832 0.51457 0.06028 0.0
O432 O 0.51562 0.5245 0.06305 0.0
O433 O 0.47397 0.51852 0.0391 0.0
O434 O 0.62738 0.52956 0.02513 0.0
O435 O 0.60139 0.48779 1.00669 0.0
O436 O 0.62779 0.50423 0.07916 0.0
C437 C 0.6227 0.50927 1.00707 0.0
O438 O 0.596 0.46271 0.0672 0.0
O439 O 0.52707 0.46306 0.01531 0.0
C440 C 0.61947 0.47713 0.08026 0.0
O441 O 0.51419 0.50299 1.00762 0.0
O442 O 0.57852 0.55281 0.99713 0.0
O443 O 0.61946 0.56024 0.02263 0.0
C444 C 1.01215 0.60877 0.59939 0.0
C445 C 0.04173 0.60698 0.51789 0.0
C446 C 1.02329 0.49579 0.51893 0.0
Mg447 Mg 0.07075 0.60819 0.57376 0.0
O448 O 0.05624 0.56771 0.57187 0.0
Mg449 Mg 1.01601 0.55284 0.55425 0.0
Mg450 Mg 0.07623 0.53994 0.55256 0.0
O451 O 0.09544 0.51348 0.53311 0.0
Mg452 Mg 0.08192 0.474 0.52905 0.0
Mg453 Mg 0.13675 0.52854 0.5464 0.0
C454 C 0.11729 0.5794 0.58889 0.0
C455 C 0.12189 0.57812 0.51187 0.0
O456 O 1.00034 0.58624 0.58403 0.0
O457 O 0.03949 0.61979 0.60024 0.0
O458 O 1.0242 0.584 0.52258 0.0
O459 O 0.0615 0.62073 0.53497 0.0
O460 O 0.11244 0.59768 0.57368 0.0
O461 O 0.11904 0.55555 0.57912 0.0
C462 C 0.02762 0.50424 0.5909 0.0
O463 O 0.05282 0.50706 0.58282 0.0
O464 O 1.0118 0.51996 0.58358 0.0
O465 O 0.14941 0.4987 0.5119 0.0
O466 O 0.10948 0.4645 0.49913 0.0
O467 O 0.13525 0.49289 0.57481 0.0
C468 C 0.13602 0.47645 0.49689 0.0
O469 O 0.09584 0.45764 0.56585 0.0
O470 O 0.03758 0.47713 0.51879 0.0
C471 C 0.11953 0.46888 0.57977 0.0
O472 O 0.03455 0.52165 0.52769 0.0
O473 O 0.09708 0.57358 0.52095 0.0
O474 O 0.13892 0.56369 0.51902 0.0
C475 C 0.55611 0.15552 0.51263 0.0
C476 C 0.56627 0.11683 0.4369 0.0
C477 C 0.51733 0.01946 0.47869 0.0
Mg478 Mg 0.60086 0.12858 0.49075 0.0
O479 O 0.57594 0.09671 0.50277 0.0
Mg480 Mg 0.53454 0.08734 0.48968 0.0
Mg481 Mg 0.58204 0.05931 0.49456 0.0
O482 O 0.58869 0.02226 0.48605 0.0
Mg483 Mg 0.5654 0.98995 0.49779 0.0
Mg484 Mg 0.63097 0.03161 0.49516 0.0
C485 C 0.64711 0.09964 0.51484 0.0
C486 C 0.616 0.06083 0.44244 0.0
O487 O 0.537 0.13228 0.50594 0.0
O488 O 0.58256 0.15892 0.5092 0.0
O489 O 0.54466 0.10391 0.44853 0.0
O490 O 0.59103 0.12642 0.44916 0.0
O491 O 0.64092 0.12189 0.50735 0.0
O492 O 0.62847 0.07555 0.5123 0.0
C493 C 0.54204 0.0552 0.54285 0.0
O494 O 0.56355 0.04862 0.53389 0.0
O495 O 0.52812 0.0698 0.53006 0.0
O496 O 0.62788 0.98649 0.47762 0.0
O497 O 0.582 0.96073 0.47612 0.0
O498 O 0.62581 1.01363 0.53562 0.0
C499 C 0.60805 0.96355 0.4715 0.0
O500 O 0.5805 0.98919 0.53798 0.0
O501 O 0.52416 0.9976 0.48646 0.0
C502 C 0.6062 0.99879 0.54824 0.0
O503 O 0.53627 0.04275 0.47668 0.0
O504 O 0.5973 0.0688 0.45468 0.0
O505 O 0.63253 0.04779 0.4537 0.0
H506 H 0.27634 0.24727 0.36204 0.0
H507 H 0.24598 0.21748 0.39119 0.0
H508 H 0.18654 0.17831 0.32483 0.0
H509 H 0.21686 0.2083 0.29547 0.0
H510 H 0.15703 0.18746 0.36544 0.0
H511 H 0.23269 0.14417 0.35559 0.0
H512 H 0.28263 0.14194 0.35595 0.0
H513 H 0.2972 0.16899 0.43807 0.0
H514 H 0.24742 0.17174 0.43812 0.0
H515 H 0.07866 0.07785 0.44208 0.0
H516 H 0.10491 0.10586 0.40895 0.0
H517 H 0.17547 0.14133 0.46755 0.0
H518 H 0.15009 0.11233 0.49989 0.0
H519 H 0.19799 0.13194 0.42779 0.0
H520 H 0.12205 0.17711 0.43711 0.0
H521 H 0.07141 0.17722 0.43656 0.0
H522 H 0.05692 0.14582 0.35554 0.0
H523 H 0.10736 0.14519 0.3557 0.0
C524 C 0.25693 0.23223 0.35347 0.0
C525 C 0.24947 0.23028 0.3261 0.0
C526 C 0.23944 0.21502 0.37031 0.0
C527 C 0.21375 0.1951 0.36052 0.0
C528 C 0.20609 0.19329 0.33321 0.0
C529 C 0.22368 0.21043 0.31629 0.0
C530 C 0.19523 0.17626 0.37874 0.0
C531 C 0.16601 0.17513 0.37888 0.0
C532 C 0.20648 0.16012 0.39673 0.0
C533 C 0.2364 0.15842 0.39679 0.0
C534 C 0.2466 0.14984 0.37368 0.0
C535 C 0.27487 0.14845 0.37382 0.0
C536 C 0.2931 0.15539 0.397 0.0
C537 C 0.28307 0.16366 0.42012 0.0
C538 C 0.25482 0.16511 0.42008 0.0
C539 C 0.09961 0.09191 0.44795 0.0
C540 C 0.11205 0.09271 0.47387 0.0
C541 C 0.11476 0.10815 0.4289 0.0
C542 C 0.14252 0.12642 0.43534 0.0
C543 C 0.15441 0.12757 0.46149 0.0
C544 C 0.13965 0.11096 0.48022 0.0
C545 C 0.15982 0.14365 0.41522 0.0
C546 C 0.1889 0.14438 0.41456 0.0
C547 C 0.1484 0.15944 0.39686 0.0
C548 C 0.11839 0.16083 0.3965 0.0
C549 C 0.10803 0.17017 0.4192 0.0
C550 C 0.07937 0.17029 0.41897 0.0
C551 C 0.06093 0.16137 0.39607 0.0
C552 C 0.0712 0.15262 0.37328 0.0
C553 C 0.09982 0.15241 0.37342 0.0
H554 H 0.0387 0.16126 0.39596 0.0
H555 H 0.31497 0.15429 0.39707 0.0
H556 H 0.85469 0.2145 0.29938 0.0
H557 H 0.88065 0.18751 0.32568 0.0
H558 H 0.8738 0.23613 0.39571 0.0
H559 H 0.84682 0.2627 0.36947 0.0
H560 H 0.93158 0.22904 0.39072 0.0
H561 H 0.8346 0.17137 0.38762 0.0
H562 H 0.78803 0.14436 0.36541 0.0
H563 H 0.82899 0.09095 0.32375 0.0
H564 H 0.87589 0.11793 0.34543 0.0
H565 H 0.98968 0.15198 0.48369 0.0
H566 H 0.96296 0.17764 0.45763 0.0
H567 H 0.93679 0.10784 0.39917 0.0
H568 H 0.96178 0.08091 0.42685 0.0
H569 H 0.8956 0.12631 0.39686 0.0
H570 H 0.99175 0.18291 0.39508 0.0
H571 H 0.04017 0.21105 0.41225 0.0
H572 H 1.00432 0.26644 0.45716 0.0
H573 H 0.95571 0.23874 0.44028 0.0
C574 C 0.8584 0.21946 0.32042 0.0
C575 C 0.84819 0.24102 0.332 0.0
C576 C 0.87342 0.20382 0.33559 0.0
C577 C 0.87959 0.20938 0.36304 0.0
C578 C 0.86962 0.23106 0.3747 0.0
C579 C 0.85392 0.24629 0.35957 0.0
C580 C 0.89649 0.19281 0.37926 0.0
C581 C 0.92345 0.20662 0.39232 0.0
C582 C 0.88698 0.16321 0.38085 0.0
C583 C 0.85879 0.14686 0.36796 0.0
C584 C 0.83371 0.15402 0.37356 0.0
C585 C 0.80725 0.13869 0.36109 0.0
C586 C 0.80556 0.116 0.34313 0.0
C587 C 0.83033 0.10855 0.33765 0.0
C588 C 0.85686 0.12385 0.35003 0.0
C589 C 0.97872 0.142 0.46507 0.0
C590 C 0.97878 0.11414 0.45754 0.0
C591 C 0.96333 0.15711 0.44973 0.0
C592 C 0.94799 0.14577 0.42529 0.0
C593 C 0.94819 0.11787 0.41759 0.0
C594 C 0.96293 0.10232 0.43346 0.0
C595 C 0.93114 0.16245 0.40865 0.0
C596 C 0.90406 0.14869 0.39538 0.0
C597 C 0.94092 0.19208 0.40626 0.0
C598 C 0.9701 0.20858 0.41663 0.0
C599 C 0.9942 0.20099 0.40875 0.0
C600 C 1.02166 0.21686 0.4184 0.0
C601 C 1.02529 0.24037 0.43588 0.0
C602 C 1.00147 0.24818 0.44366 0.0
C603 C 0.97397 0.23246 0.43401 0.0
H604 H 0.04657 0.2526 0.44333 0.0
H605 H 0.78505 0.10415 0.3335 0.0
H606 H 0.7666 0.8229 0.38105 0.0
H607 H 0.79724 0.86564 0.40475 0.0
H608 H 0.86219 0.86566 0.35175 0.0
H609 H 0.83057 0.82401 0.32704 0.0
H610 H 0.84155 0.8687 0.43224 0.0
H611 H 0.91076 0.92635 0.352 0.0
H612 H 0.90339 0.93915 0.30655 0.0
H613 H 0.81548 0.93344 0.31669 0.0
H614 H 0.82238 0.92101 0.36233 0.0
H615 H 0.98151 0.92581 0.48126 0.0
H616 H 0.9368 0.90223 0.45557 0.0
H617 H 0.92187 0.98231 0.44041 0.0
H618 H 0.96733 1.00628 0.4653 0.0
H619 H 0.90932 0.9491 0.39719 0.0
H620 H 0.88314 0.94151 0.48356 0.0
H621 H 0.88751 0.93296 0.53056 0.0
H622 H 0.88186 0.84634 0.5105 0.0
H623 H 0.87782 0.85443 0.46335 0.0
C624 C 0.78714 0.83263 0.37412 0.0
C625 C 0.79649 0.82039 0.35243 0.0
C626 C 0.80464 0.85696 0.38765 0.0
C627 C 0.8321 0.86899 0.38014 0.0
C628 C 0.84089 0.85731 0.35765 0.0
C629 C 0.82296 0.8334 0.34362 0.0
C630 C 0.85284 0.89107 0.39771 0.0
C631 C 0.85604 0.88649 0.42454 0.0
C632 C 0.87131 0.91486 0.38802 0.0
C633 C 0.86708 0.92258 0.3606 0.0
C634 C 0.88989 0.928 0.34462 0.0
C635 C 0.88579 0.93514 0.31879 0.0
C636 C 0.85898 0.93705 0.30873 0.0
C637 C 0.83622 0.93187 0.32448 0.0
C638 C 0.84021 0.92473 0.35033 0.0
C639 C 0.96876 0.93851 0.47259 0.0
C640 C 0.97791 0.96797 0.47565 0.0
C641 C 0.94308 0.92496 0.45801 0.0
C642 C 0.92575 0.94052 0.44653 0.0
C643 C 0.93484 0.96993 0.44931 0.0
C644 C 0.96074 0.98356 0.46372 0.0
C645 C 0.89857 0.92571 0.43109 0.0
C646 C 0.89425 0.93168 0.40481 0.0
C647 C 0.87834 0.90384 0.44148 0.0
C648 C 0.88028 0.89862 0.46986 0.0
C649 C 0.88296 0.92066 0.48915 0.0
C650 C 0.88539 0.9159 0.51583 0.0
C651 C 0.88503 0.88914 0.52352 0.0
C652 C 0.88213 0.86706 0.50452 0.0
C653 C 0.8797 0.87171 0.4778 0.0
H654 H 0.88697 0.88552 0.54419 0.0
H655 H 0.85584 0.94257 0.28872 0.0
H656 H 0.13083 0.84777 0.32391 0.0
H657 H 0.13156 0.87018 0.36766 0.0
H658 H 0.18479 0.82084 0.3999 0.0
H659 H 0.18584 0.79959 0.35618 0.0
H660 H 0.12833 0.84278 0.4281 0.0
H661 H 0.22671 0.86292 0.40187 0.0
H662 H 0.26163 0.87253 0.36875 0.0
H663 H 0.2323 0.94324 0.34643 0.0
H664 H 0.19678 0.93364 0.37908 0.0
H665 H 0.15181 0.94699 0.52965 0.0
H666 H 0.17076 0.914 0.50408 0.0
H667 H 0.16097 0.95786 0.43464 0.0
H668 H 0.14237 0.9909 0.46028 0.0
H669 H 0.20522 0.93234 0.43293 0.0
H670 H 0.10465 0.90964 0.45224 0.0
H671 H 0.06735 0.9022 0.48319 0.0
H672 H 0.09918 0.83764 0.5172 0.0
H673 H 0.13693 0.84502 0.48665 0.0
C674 C 0.14219 0.8412 0.34035 0.0
C675 C 0.15895 0.82252 0.33631 0.0
C676 C 0.14247 0.85391 0.36533 0.0
C677 C 0.1589 0.84761 0.38663 0.0
C678 C 0.17237 0.82619 0.38346 0.0
C679 C 0.17262 0.81383 0.3584 0.0
C680 C 0.16521 0.86648 0.41072 0.0
C681 C 0.14569 0.86194 0.42976 0.0
C682 C 0.18763 0.8916 0.41242 0.0
C683 C 0.20878 0.89727 0.39261 0.0
C684 C 0.22733 0.88018 0.38955 0.0
C685 C 0.24732 0.8857 0.37094 0.0
C686 C 0.24908 0.9084 0.35541 0.0
C687 C 0.23087 0.92563 0.35845 0.0
C688 C 0.21081 0.92015 0.377 0.0
C689 C 0.15527 0.95039 0.50925 0.0
C690 C 0.14596 0.97139 0.49678 0.0
C691 C 0.16589 0.9315 0.49466 0.0
C692 C 0.16675 0.93324 0.46742 0.0
C693 C 0.16052 0.9562 0.45565 0.0
C694 C 0.14996 0.97511 0.47026 0.0
C695 C 0.1682 0.9088 0.45035 0.0
C696 C 0.18881 0.91255 0.43223 0.0
C697 C 0.14677 0.88292 0.44949 0.0
C698 C 0.12374 0.87808 0.46742 0.0
C699 C 0.10374 0.89395 0.46641 0.0
C700 C 0.08254 0.88975 0.48387 0.0
C701 C 0.08094 0.86951 0.5022 0.0
C702 C 0.10048 0.85335 0.50303 0.0
C703 C 0.12178 0.85753 0.48566 0.0
H704 H 0.06453 0.8663 0.51572 0.0
H705 H 0.26462 0.91273 0.34108 0.0
H706 H 0.21272 0.85128 0.76782 0.0
H707 H 0.18661 0.87709 0.74038 0.0
H708 H 0.21957 0.84839 0.67165 0.0
H709 H 0.24516 0.82197 0.69904 0.0
H710 H 0.19591 0.91849 0.71261 0.0
H711 H 0.17802 0.84896 0.615 0.0
H712 H 0.17049 0.79924 0.59984 0.0
H713 H 0.13819 0.77365 0.67311 0.0
H714 H 0.14522 0.82318 0.68857 0.0
H715 H 0.14682 0.99509 0.61129 0.0
H716 H 0.17139 0.96938 0.64018 0.0
H717 H 0.09872 0.89673 0.62756 0.0
H718 H 0.07443 0.9223 0.59794 0.0
H719 H 0.1402 0.87647 0.62857 0.0
H720 H 0.12296 0.94361 0.6909 0.0
H721 H 0.12348 0.99022 0.71065 0.0
H722 H 0.21506 1.0161 0.7138 0.0
H723 H 0.21508 0.96964 0.69402 0.0
C724 C 0.21443 0.85022 0.74684 0.0
C725 C 0.23128 0.83397 0.73604 0.0
C726 C 0.19937 0.86531 0.73094 0.0
C727 C 0.20023 0.86493 0.70333 0.0
C728 C 0.21743 0.84899 0.69256 0.0
C729 C 0.23244 0.8338 0.70847 0.0
C730 C 0.1835 0.88123 0.68621 0.0
C731 C 0.18392 0.90911 0.69419 0.0
C732 C 0.16677 0.86961 0.66217 0.0
C733 C 0.16248 0.83979 0.65304 0.0
C734 C 0.16927 0.83272 0.62785 0.0
C735 C 0.16509 0.80457 0.61921 0.0
C736 C 0.15397 0.7833 0.63554 0.0
C737 C 0.14692 0.79014 0.66052 0.0
C738 C 0.15103 0.81825 0.66925 0.0
C739 C 0.13561 0.97385 0.61503 0.0
C740 C 0.10799 0.96139 0.60228 0.0
C741 C 0.14991 0.95888 0.63183 0.0
C742 C 0.13729 0.93065 0.63704 0.0
C743 C 0.10956 0.91826 0.62441 0.0
C744 C 0.09533 0.93318 0.60744 0.0
C745 C 0.15306 0.91396 0.6547 0.0
C746 C 0.1524 0.88597 0.64687 0.0
C747 C 0.16891 0.9252 0.67925 0.0
C748 C 0.169 0.95325 0.6908 0.0
C749 C 0.1432 0.9593 0.69569 0.0
C750 C 0.1434 0.98564 0.707 0.0
C751 C 0.16929 1.00609 0.71351 0.0
C752 C 0.19503 1.00022 0.70879 0.0
C753 C 0.19495 0.97387 0.69759 0.0
H754 H 0.16939 0.02652 0.72213 0.0
H755 H 0.15076 0.76153 0.62882 0.0
H756 H 0.30704 0.2303 0.7101 0.0
H757 H 0.28064 0.19469 0.676 0.0
H758 H 0.21543 0.16442 0.72808 0.0
H759 H 0.24189 0.19944 0.76247 0.0
H760 H 0.2183 0.12275 0.69037 0.0
H761 H 0.20835 0.21761 0.69639 0.0
H762 H 0.23056 0.2687 0.70231 0.0
H763 H 0.27122 0.26536 0.63112 0.0
H764 H 0.24949 0.21409 0.62498 0.0
H765 H 0.09356 0.1372 0.59476 0.0
H766 H 0.13493 0.15842 0.62598 0.0
H767 H 0.175 0.09476 0.60129 0.0
H768 H 0.13347 0.07307 0.5707 0.0
H769 H 0.1887 0.1814 0.62349 0.0
H770 H 0.21229 0.07791 0.65342 0.0
H771 H 0.18644 0.02786 0.65468 0.0
H772 H 0.10806 0.05016 0.66248 0.0
H773 H 0.13344 0.10028 0.66152 0.0
C774 C 0.28758 0.21544 0.71461 0.0
C775 C 0.276 0.21823 0.7386 0.0
C776 C 0.27266 0.19498 0.69519 0.0
C777 C 0.24582 0.1775 0.69941 0.0
C778 C 0.23608 0.17784 0.72447 0.0
C779 C 0.25114 0.19808 0.74403 0.0
C780 C 0.22524 0.16427 0.67679 0.0
C781 C 0.21213 0.13535 0.67543 0.0
C782 C 0.21642 0.18106 0.65805 0.0
C783 C 0.22754 0.21208 0.66035 0.0
C784 C 0.22196 0.22782 0.68196 0.0
C785 C 0.23454 0.25676 0.68542 0.0
C786 C 0.25251 0.27021 0.66725 0.0
C787 C 0.25747 0.25485 0.64529 0.0
C788 C 0.24497 0.22586 0.64176 0.0
C789 C 0.11128 0.12784 0.59578 0.0
C790 C 0.10997 0.10313 0.58044 0.0
C791 C 0.13493 0.14002 0.61362 0.0
C792 C 0.15783 0.12789 0.61625 0.0
C793 C 0.15726 0.10409 0.60001 0.0
C794 C 0.13341 0.09166 0.58246 0.0
C795 C 0.18169 0.13961 0.63674 0.0
C796 C 0.19533 0.16845 0.63786 0.0
C797 C 0.19001 0.12285 0.65588 0.0
C798 C 0.17472 0.09279 0.65706 0.0
C799 C 0.18956 0.07211 0.65548 0.0
C800 C 0.17499 0.04375 0.65611 0.0
C801 C 0.14562 0.03587 0.65854 0.0
C802 C 0.13078 0.0563 0.66048 0.0
C803 C 0.14523 0.08467 0.65986 0.0
H804 H 0.13434 1.01393 0.65899 0.0
H805 H 0.26242 0.29259 0.6701 0.0
H806 H 0.8545 0.1451 0.75759 0.0
H807 H 0.85763 0.11272 0.72071 0.0
H808 H 0.92185 0.17855 0.69074 0.0
H809 H 0.91989 0.21055 0.7279 0.0
H810 H 0.86594 0.15183 0.6571 0.0
H811 H 0.94368 0.13242 0.71307 0.0
H812 H 0.96447 0.11373 0.75122 0.0
H813 H 0.90725 0.03199 0.73016 0.0
H814 H 0.8857 0.05036 0.69215 0.0
H815 H 0.95687 0.13172 0.56727 0.0
H816 H 0.9273 0.14057 0.60123 0.0
H817 H 0.88899 0.05148 0.60267 0.0
H818 H 0.91848 0.04252 0.56815 0.0
H819 H 0.91411 0.07572 0.65033 0.0
H820 H 0.845 0.09118 0.58908 0.0
H821 H 0.82379 0.1077 0.54981 0.0
H822 H 0.86142 0.19329 0.57933 0.0
H823 H 0.88326 0.17737 0.61859 0.0
C824 C 0.87 0.15237 0.74364 0.0
C825 C 0.88674 0.18049 0.74543 0.0
C826 C 0.87157 0.13392 0.72254 0.0
C827 C 0.88967 0.1435 0.70301 0.0
C828 C 0.90759 0.17096 0.70562 0.0
C829 C 0.90636 0.18921 0.72677 0.0
C830 C 0.8882 0.12641 0.67834 0.0
C831 C 0.87632 0.13506 0.65547 0.0
C832 C 0.90031 0.10356 0.67667 0.0
C833 C 0.91258 0.09294 0.70014 0.0
C834 C 0.93509 0.11061 0.71688 0.0
C835 C 0.94714 0.10003 0.7384 0.0
C836 C 0.93705 0.07174 0.74323 0.0
C837 C 0.9149 0.05396 0.72653 0.0
C838 C 0.90274 0.06445 0.70501 0.0
C839 C 0.94151 0.11409 0.57426 0.0
C840 C 0.93998 0.08649 0.56529 0.0
C841 C 0.92445 0.11914 0.5935 0.0
C842 C 0.90582 0.09666 0.60433 0.0
C843 C 0.90305 0.06907 0.59435 0.0
C844 C 0.91982 0.06402 0.57466 0.0
C845 C 0.89347 0.10236 0.6288 0.0
C846 C 0.90263 0.09165 0.65179 0.0
C847 C 0.87853 0.1231 0.63062 0.0
C848 C 0.86585 0.13301 0.60683 0.0
C849 C 0.84897 0.11354 0.58713 0.0
C850 C 0.83678 0.1228 0.56487 0.0
C851 C 0.84125 0.15152 0.56208 0.0
C852 C 0.85794 0.17104 0.58154 0.0
C853 C 0.87019 0.1619 0.60384 0.0
H854 H 0.83178 0.15865 0.54484 0.0
H855 H 0.9465 0.06356 0.75983 0.0
H856 H 0.81118 0.8337 0.69845 0.0
H857 H 0.83913 0.86237 0.66681 0.0
H858 H 0.91116 0.88875 0.72524 0.0
H859 H 0.88339 0.86039 0.7569 0.0
H860 H 0.90705 0.9328 0.69815 0.0
H861 H 0.90637 0.8372 0.67414 0.0
H862 H 0.88368 0.78707 0.66138 0.0
H863 H 0.84063 0.80906 0.59262 0.0
H864 H 0.86276 0.85935 0.60517 0.0
H865 H 1.01252 0.9896 0.60884 0.0
H866 H 0.98597 0.96137 0.6419 0.0
H867 H 0.91301 0.93137 0.58482 0.0
H868 H 0.93913 0.95929 0.55217 0.0
H869 H 0.91823 0.88915 0.61173 0.0
H870 H 0.91611 0.98276 0.63393 0.0
H871 H 0.93421 0.03352 0.64613 0.0
H872 H 0.97806 1.01677 0.71689 0.0
H873 H 0.96064 0.96583 0.70486 0.0
C874 C 0.83288 0.84573 0.70472 0.0
C875 C 0.84477 0.84443 0.73051 0.0
C876 C 0.84905 0.8621 0.68642 0.0
C877 C 0.87771 0.87774 0.69321 0.0
C878 C 0.88929 0.87705 0.71916 0.0
C879 C 0.87322 0.86062 0.73738 0.0
C880 C 0.89579 0.89436 0.6734 0.0
C881 C 0.90982 0.92305 0.67944 0.0
C882 C 0.89906 0.88227 0.64845 0.0
C883 C 0.88601 0.85205 0.64074 0.0
C884 C 0.89192 0.83135 0.65639 0.0
C885 C 0.87918 0.80291 0.64918 0.0
C886 C 0.86067 0.79489 0.62624 0.0
C887 C 0.85494 0.8153 0.61041 0.0
C888 C 0.86759 0.84377 0.61755 0.0
C889 C 0.99097 0.97671 0.60325 0.0
C890 C 0.97814 0.97696 0.57764 0.0
C891 C 0.97558 0.9607 0.62232 0.0
C892 C 0.94704 0.94422 0.61626 0.0
C893 C 0.93478 0.94374 0.5904 0.0
C894 C 0.94989 0.9599 0.57159 0.0
C895 C 0.92968 0.92761 0.63651 0.0
C896 C 0.91571 0.89891 0.63052 0.0
C897 C 0.92613 0.93983 0.66134 0.0
C898 C 0.93741 0.97045 0.66829 0.0
C899 C 0.92994 0.98989 0.65192 0.0
C900 C 0.94 1.0187 0.65885 0.0
C901 C 0.95737 0.02838 0.68223 0.0
C902 C 0.9647 1.00924 0.69873 0.0
C903 C 0.95475 0.98039 0.69186 0.0
H904 H 0.96502 0.05069 0.68762 0.0
H905 H 0.85082 0.77286 0.6207 0.0
H906 H 0.29773 0.22127 0.19847 0.0
H907 H 0.32099 0.19551 0.16898 0.0
H908 H 0.39869 0.22191 0.22052 0.0
H909 H 0.3754 0.24728 0.25024 0.0
H910 H 0.41102 0.22735 0.16918 0.0
H911 H 0.35603 0.15322 0.21595 0.0
H912 H 0.31233 0.12441 0.23262 0.0
H913 H 0.27373 0.10146 0.15358 0.0
H914 H 0.31708 0.13046 0.13644 0.0
H915 H 0.48838 0.14282 0.107 0.0
H916 H 0.46375 0.16541 0.13741 0.0
H917 H 0.38305 0.12357 0.09416 0.0
H918 H 0.40778 0.09966 0.06429 0.0
H919 H 0.37136 0.12634 0.14106 0.0
H920 H 0.42397 0.20043 0.09347 0.0
H921 H 0.4661 0.23043 0.07537 0.0
H922 H 0.50713 0.25517 0.15339 0.0
H923 H 0.46537 0.22505 0.17195 0.0
C924 C 0.31972 0.22152 0.2038 0.0
C925 C 0.3343 0.23663 0.22727 0.0
C926 C 0.33315 0.20656 0.18673 0.0
C927 C 0.36196 0.20625 0.19209 0.0
C928 C 0.37659 0.22145 0.21543 0.0
C929 C 0.36303 0.23603 0.23271 0.0
C930 C 0.37683 0.19062 0.1734 0.0
C931 C 0.40242 0.20515 0.1634 0.0
C932 C 0.36572 0.16171 0.1647 0.0
C933 C 0.33968 0.14425 0.17493 0.0
C934 C 0.33813 0.14222 0.20213 0.0
C935 C 0.31344 0.12582 0.21166 0.0
C936 C 0.29024 0.11118 0.19418 0.0
C937 C 0.2917 0.11285 0.16711 0.0
C938 C 0.31633 0.12925 0.15747 0.0
C939 C 0.46535 0.13824 0.10378 0.0
C940 C 0.45045 0.11918 0.08264 0.0
C941 C 0.45106 0.15163 0.1213 0.0
C942 C 0.42109 0.14739 0.11827 0.0
C943 C 0.40605 0.12785 0.09744 0.0
C944 C 0.42036 0.11402 0.0801 0.0
C945 C 0.40575 0.16304 0.1367 0.0
C946 C 0.38005 0.14855 0.14671 0.0
C947 C 0.41653 0.19216 0.14513 0.0
C948 C 0.44167 0.21027 0.13407 0.0
C949 C 0.44206 0.21213 0.10675 0.0
C950 C 0.46586 0.22917 0.09642 0.0
C951 C 0.48931 0.24463 0.11322 0.0
C952 C 0.48897 0.24315 0.1404 0.0
C953 C 0.46524 0.22611 0.15084 0.0
H954 H 0.50771 0.25782 0.10518 0.0
H955 H 0.27115 0.09848 0.20159 0.0
H956 H 0.93002 0.30221 0.13368 0.0
H957 H 0.93501 0.33076 0.09694 0.0
H958 H 0.84548 0.29686 0.07154 0.0
H959 H 0.8402 0.26704 0.10849 0.0
H960 H 0.9238 0.34092 0.04604 0.0
H961 H 0.81887 0.34398 0.06924 0.0
H962 H 0.78131 0.32997 0.09965 0.0
H963 H 0.84545 0.34621 0.16509 0.0
H964 H 0.8833 0.35977 0.13495 0.0
H965 H 0.90379 0.49348 0.06115 0.0
H966 H 0.88272 0.44318 0.05819 0.0
H967 H 0.96386 0.43033 0.08495 0.0
H968 H 0.98528 0.48131 0.08863 0.0
H969 H 0.87524 0.40474 0.08932 0.0
H970 H 0.9726 0.36835 0.05209 0.0
H971 H 1.0123 0.38552 0.02496 0.0
H972 H 0.96891 0.44173 0.99037 0.0
H973 H 0.92847 0.4243 0.01648 0.0
C974 C 0.91153 0.29924 0.11965 0.0
C975 C 0.88422 0.2836 0.12511 0.0
C976 C 0.9145 0.31582 0.09836 0.0
C977 C 0.89026 0.31707 0.08241 0.0
C978 C 0.86425 0.29694 0.08433 0.0
C979 C 0.86126 0.28007 0.10562 0.0
C980 C 0.89114 0.34406 0.07097 0.0
C981 C 0.913 0.35503 0.05498 0.0
C982 C 0.87623 0.3621 0.08199 0.0
C983 C 0.85376 0.35256 0.09992 0.0
C984 C 0.82487 0.34428 0.0901 0.0
C985 C 0.80357 0.33642 0.10727 0.0
C986 C 0.811 0.3371 0.13428 0.0
C987 C 0.83974 0.3456 0.14417 0.0
C988 C 0.8611 0.35322 0.12707 0.0
C989 C 0.91726 0.48005 0.0665 0.0
C990 C 0.94654 0.49121 0.07417 0.0
C991 C 0.90521 0.45118 0.06433 0.0
C992 C 0.9222 0.43293 0.06947 0.0
C993 C 0.95089 0.44409 0.07924 0.0
C994 C 0.96302 0.47308 0.0815 0.0
C995 C 0.90962 0.40223 0.06605 0.0
C996 C 0.88546 0.39086 0.07915 0.0
C997 C 0.92277 0.38408 0.05246 0.0
C998 C 0.94719 0.39485 0.03641 0.0
C999 C 0.97118 0.38406 0.03844 0.0
C1000 C 0.9939 0.39383 0.02316 0.0
C1001 C 0.99311 0.41466 1.00591 0.0
C1002 C 0.96951 0.42559 1.00375 0.0
C1003 C 0.9466 0.41567 0.01875 0.0
H1004 H 1.01083 0.42238 0.99428 0.0
H1005 H 0.7945 0.33113 0.14756 0.0
H1006 H 0.60567 0.78888 0.19047 0.0
H1007 H 0.57958 0.81223 0.16065 0.0
H1008 H 0.59999 0.88509 0.21567 0.0
H1009 H 0.62489 0.86131 0.24625 0.0
H1010 H 0.55004 0.88049 0.18697 0.0
H1011 H 0.6458 0.8793 0.17165 0.0
H1012 H 0.68434 0.85689 0.16438 0.0
H1013 H 0.63663 0.81224 0.09409 0.0
H1014 H 0.59756 0.83407 0.10122 0.0
H1015 H 0.60041 0.98035 0.07971 0.0
H1016 H 0.60425 0.95207 0.11677 0.0
H1017 H 0.52201 0.89538 0.09076 0.0
H1018 H 0.5182 0.92305 0.05285 0.0
H1019 H 0.59916 0.89071 0.10512 0.0
H1020 H 0.50086 0.88096 0.16702 0.0
H1021 H 0.46849 0.90856 0.18053 0.0
H1022 H 0.52824 0.98432 0.16204 0.0
H1023 H 0.56164 0.95747 0.14979 0.0
C1024 C 0.6036 0.80938 0.19677 0.0
C1025 C 0.61797 0.82354 0.22046 0.0
C1026 C 0.58882 0.82278 0.17959 0.0
C1027 C 0.58859 0.85068 0.18564 0.0
C1028 C 0.60016 0.86367 0.21049 0.0
C1029 C 0.61467 0.85016 0.22782 0.0
C1030 C 0.58077 0.86774 0.16479 0.0
C1031 C 0.56034 0.88246 0.16883 0.0
C1032 C 0.59508 0.87098 0.14161 0.0
C1033 C 0.61864 0.85805 0.13713 0.0
C1034 C 0.64345 0.86456 0.15475 0.0
C1035 C 0.66539 0.85197 0.15065 0.0
C1036 C 0.6629 0.83309 0.12882 0.0
C1037 C 0.6385 0.82682 0.11101 0.0
C1038 C 0.61645 0.83928 0.11508 0.0
C1039 C 0.58295 0.96204 0.08187 0.0
C1040 C 0.55908 0.9539 0.06315 0.0
C1041 C 0.58515 0.946 0.10316 0.0
C1042 C 0.56326 0.92192 0.10657 0.0
C1043 C 0.53891 0.91415 0.08856 0.0
C1044 C 0.53693 0.92987 0.06684 0.0
C1045 C 0.56795 0.90315 0.12695 0.0
C1046 C 0.58808 0.88819 0.12284 0.0
C1047 C 0.55386 0.90046 0.15028 0.0
C1048 C 0.53345 0.91692 0.15655 0.0
C1049 C 0.50705 0.90348 0.16563 0.0
C1050 C 0.48859 0.91905 0.1733 0.0
C1051 C 0.49614 0.94814 0.17185 0.0
C1052 C 0.52228 0.96174 0.16291 0.0
C1053 C 0.541 0.94631 0.15554 0.0
H1054 H 0.48183 0.96017 0.17781 0.0
H1055 H 0.67992 0.82337 0.12567 0.0
H1056 H 0.30297 0.72064 0.21638 0.0
H1057 H 0.27678 0.67862 0.18813 0.0
H1058 H 0.20521 0.66866 0.23493 0.0
H1059 H 0.23088 0.71028 0.26275 0.0
H1060 H 0.21189 0.61727 0.21689 0.0
H1061 H 0.21163 0.70929 0.18441 0.0
H1062 H 0.23306 0.75493 0.16696 0.0
H1063 H 0.26327 0.71326 0.10415 0.0
H1064 H 0.24254 0.66741 0.12162 0.0
H1065 H 0.07577 0.60125 0.159 0.0
H1066 H 0.12367 0.60944 0.18097 0.0
H1067 H 0.15616 0.59716 0.10643 0.0
H1068 H 0.1081 0.58916 0.08432 0.0
H1069 H 0.18204 0.64699 0.13083 0.0
H1070 H 0.16421 0.55447 0.15481 0.0
H1071 H 0.13683 0.50981 0.17037 0.0
H1072 H 0.13705 0.55074 0.24635 0.0
H1073 H 0.16391 0.5958 0.23116 0.0
C1074 C 0.28189 0.70904 0.22087 0.0
C1075 C 0.26864 0.71897 0.24132 0.0
C1076 C 0.26705 0.68505 0.20484 0.0
C1077 C 0.23901 0.67065 0.20938 0.0
C1078 C 0.22685 0.67935 0.23113 0.0
C1079 C 0.24141 0.70337 0.24682 0.0
C1080 C 0.2202 0.64966 0.18967 0.0
C1081 C 0.2056 0.62338 0.19777 0.0
C1082 C 0.21268 0.65736 0.16442 0.0
C1083 C 0.2262 0.68503 0.15469 0.0
C1084 C 0.2233 0.70992 0.16717 0.0
C1085 C 0.23523 0.73581 0.15722 0.0
C1086 C 0.2497 0.73702 0.13456 0.0
C1087 C 0.25227 0.71232 0.12181 0.0
C1088 C 0.24053 0.6864 0.13179 0.0
C1089 C 0.09301 0.59959 0.14739 0.0
C1090 C 0.08824 0.59453 0.11999 0.0
C1091 C 0.12033 0.60391 0.15999 0.0
C1092 C 0.14346 0.60347 0.1454 0.0
C1093 C 0.13852 0.59711 0.1181 0.0
C1094 C 0.11102 0.59247 0.10549 0.0
C1095 C 0.17287 0.615 0.15815 0.0
C1096 C 0.18935 0.63972 0.14893 0.0
C1097 C 0.18195 0.6058 0.18222 0.0
C1098 C 0.16617 0.57863 0.19179 0.0
C1099 C 0.15833 0.55403 0.17482 0.0
C1100 C 0.14288 0.52861 0.18357 0.0
C1101 C 0.13523 0.52743 0.20933 0.0
C1102 C 0.14305 0.55167 0.22641 0.0
C1103 C 0.15845 0.57717 0.21774 0.0
H1104 H 0.12326 0.50774 0.21607 0.0
H1105 H 0.25879 0.75707 0.12681 0.0
H1106 H 0.346 0.85197 0.84949 0.0
H1107 H 0.36258 0.89943 0.87016 0.0
H1108 H 0.33675 0.93259 0.79879 0.0
H1109 H 0.31996 0.88449 0.77764 0.0
H1110 H 0.39533 0.96286 0.83149 0.0
H1111 H 0.29602 0.94027 0.83662 0.0
H1112 H 0.248 0.9086 0.83929 0.0
H1113 H 0.27441 0.88681 0.91552 0.0
H1114 H 0.32272 0.91813 0.91324 0.0
H1115 H 0.45264 0.04147 0.95484 0.0
H1116 H 0.41231 0.03422 0.92119 0.0
H1117 H 0.39995 0.94469 0.92096 0.0
H1118 H 0.43982 0.95174 0.95458 0.0
H1119 H 0.34643 0.96907 0.9123 0.0
H1120 H 0.44404 0.96354 0.86392 0.0
H1121 H 0.49433 0.9908 0.86296 0.0
H1122 H 0.47005 0.06774 0.87183 0.0
H1123 H 0.41961 0.04087 0.87254 0.0
C1124 C 0.34432 0.86935 0.83798 0.0
C1125 C 0.33154 0.86466 0.81211 0.0
C1126 C 0.35366 0.8964 0.84982 0.0
C1127 C 0.35021 0.91925 0.8361 0.0
C1128 C 0.33927 0.91504 0.80964 0.0
C1129 C 0.32993 0.8877 0.79761 0.0
C1130 C 0.35724 0.94686 0.85082 0.0
C1131 C 0.38401 0.96537 0.84851 0.0
C1132 C 0.34218 0.95023 0.87278 0.0
C1133 C 0.31297 0.93184 0.87484 0.0
C1134 C 0.2916 0.92876 0.85398 0.0
C1135 C 0.26434 0.91084 0.85541 0.0
C1136 C 0.25814 0.89585 0.87762 0.0
C1137 C 0.27922 0.89863 0.89842 0.0
C1138 C 0.30653 0.91657 0.89711 0.0
C1139 C 0.44058 0.02024 0.94834 0.0
C1140 C 0.44949 0.99714 0.95707 0.0
C1141 C 0.41767 1.01618 0.92905 0.0
C1142 C 0.40347 0.98898 0.91851 0.0
C1143 C 0.41068 0.96586 0.929 0.0
C1144 C 0.43357 0.9699 0.94805 0.0
C1145 C 0.38512 0.98376 0.89355 0.0
C1146 C 0.35648 0.96874 0.89413 0.0
C1147 C 0.39813 0.9841 0.86975 0.0
C1148 C 0.42818 1.00026 0.8683 0.0
C1149 C 0.44946 0.98628 0.86544 0.0
C1150 C 0.47796 1.00164 0.865 0.0
C1151 C 0.48538 0.03099 0.86734 0.0
C1152 C 0.46429 0.04502 0.87002 0.0
C1153 C 0.43575 0.02974 0.87043 0.0
H1154 H 0.50747 0.04284 0.86707 0.0
H1155 H 0.23697 0.88212 0.8787 0.0
H1156 H 0.15072 0.34722 0.85782 0.0
H1157 H 0.13698 0.38708 0.87751 0.0
H1158 H 0.2153 0.40977 0.92874 0.0
H1159 H 0.22906 0.36974 0.90922 0.0
H1160 H 0.17112 0.41148 0.95534 0.0
H1161 H 0.2061 0.44797 0.87595 0.0
H1162 H 0.2103 0.44803 0.82823 0.0
H1163 H 0.12157 0.44508 0.81428 0.0
H1164 H 0.11671 0.44458 0.8619 0.0
H1165 H 0.13527 0.53125 1.0056 0.0
H1166 H 0.16359 0.50629 0.98138 0.0
H1167 H 0.09048 0.46969 0.92575 0.0
H1168 H 0.06224 0.49477 0.94943 0.0
H1169 H 0.13968 0.48056 0.90183 0.0
H1170 H 0.10305 0.43582 0.97915 0.0
H1171 H 0.09714 0.43418 0.02657 0.0
H1172 H 0.18798 0.45149 0.04373 0.0
H1173 H 0.19444 0.4536 0.9964 0.0
C1174 C 0.16507 0.36081 0.87317 0.0
C1175 C 0.19092 0.35536 0.88202 0.0
C1176 C 0.15727 0.38365 0.88433 0.0
C1177 C 0.17535 0.40169 0.90429 0.0
C1178 C 0.20108 0.39617 0.9133 0.0
C1179 C 0.20883 0.37322 0.90225 0.0
C1180 C 0.16672 0.4256 0.91645 0.0
C1181 C 0.16488 0.42697 0.94369 0.0
C1182 C 0.15811 0.44552 0.9012 0.0
C1183 C 0.16101 0.44607 0.87252 0.0
C1184 C 0.18743 0.44715 0.8627 0.0
C1185 C 0.18994 0.44729 0.83566 0.0
C1186 C 0.16621 0.44652 0.81823 0.0
C1187 C 0.13994 0.44568 0.82781 0.0
C1188 C 0.13731 0.44551 0.85483 0.0
C1189 C 0.12543 0.51848 0.98782 0.0
C1190 C 0.09633 0.51462 0.97973 0.0
C1191 C 0.14162 0.50415 0.97407 0.0
C1192 C 0.12894 0.48571 0.9521 0.0
C1193 C 0.10065 0.48371 0.94273 0.0
C1194 C 0.08448 0.49798 0.95641 0.0
C1195 C 0.14371 0.46608 0.94056 0.0
C1196 C 0.14658 0.46544 0.91347 0.0
C1197 C 0.15313 0.44668 0.95588 0.0
C1198 C 0.14925 0.4452 0.9843 0.0
C1199 C 0.12177 0.43947 0.99306 0.0
C1200 C 0.11832 0.43843 0.01991 0.0
C1201 C 0.14218 0.44281 0.03816 0.0
C1202 C 0.16953 0.44816 0.02958 0.0
C1203 C 0.1731 0.44928 1.00275 0.0
H1204 H 0.13947 0.44199 0.05893 0.0
H1205 H 0.16819 0.44662 0.7973 0.0
H1206 H 0.75056 0.22244 0.83403 0.0
H1207 H 0.71468 0.19324 0.85859 0.0
H1208 H 0.6633 0.25147 0.85066 0.0
H1209 H 0.69976 0.28142 0.82597 0.0
H1210 H 0.66272 0.23201 0.90041 0.0
H1211 H 0.64414 0.19 0.81324 0.0
H1212 H 0.65552 0.17157 0.77096 0.0
H1213 H 0.68579 0.10889 0.81011 0.0
H1214 H 0.675 0.12721 0.85271 0.0
H1215 H 0.55626 0.12188 0.95655 0.0
H1216 H 0.57793 0.15751 0.92657 0.0
H1217 H 0.64533 0.11733 0.91768 0.0
H1218 H 0.62404 0.08212 0.94666 0.0
H1219 H 0.62796 0.13073 0.87146 0.0
H1220 H 0.65254 0.17851 0.95942 0.0
H1221 H 0.64026 0.19707 1.00129 0.0
H1222 H 0.59634 0.2486 0.95942 0.0
H1223 H 0.60821 0.23015 0.91729 0.0
C1224 C 0.73172 0.22927 0.83738 0.0
C1225 C 0.72817 0.25439 0.82766 0.0
C1226 C 0.71103 0.21235 0.85148 0.0
C1227 C 0.68585 0.21971 0.85624 0.0
C1228 C 0.68241 0.24513 0.84721 0.0
C1229 C 0.70327 0.26223 0.83299 0.0
C1230 C 0.66338 0.2003 0.87028 0.0
C1231 C 0.65469 0.20997 0.89378 0.0
C1232 C 0.65263 0.17143 0.86183 0.0
C1233 C 0.65889 0.1601 0.83621 0.0
C1234 C 0.65338 0.17239 0.81287 0.0
C1235 C 0.65971 0.16195 0.78884 0.0
C1236 C 0.67141 0.1391 0.78786 0.0
C1237 C 0.67673 0.12659 0.8109 0.0
C1238 C 0.67047 0.13697 0.83499 0.0
C1239 C 0.57558 0.12059 0.94803 0.0
C1240 C 0.58833 0.09901 0.95432 0.0
C1241 C 0.58809 0.1411 0.93098 0.0
C1242 C 0.61357 0.14041 0.91985 0.0
C1243 C 0.62576 0.11854 0.92579 0.0
C1244 C 0.61346 0.09833 0.94265 0.0
C1245 C 0.62834 0.1621 0.90223 0.0
C1246 C 0.63556 0.15285 0.8779 0.0
C1247 C 0.63752 0.19127 0.90988 0.0
C1248 C 0.6309 0.20268 0.93522 0.0
C1249 C 0.64011 0.19367 0.95915 0.0
C1250 C 0.63327 0.2042 0.98293 0.0
C1251 C 0.61744 0.22393 0.98301 0.0
C1252 C 0.60854 0.23327 0.95933 0.0
C1253 C 0.61533 0.2228 0.9355 0.0
H1254 H 0.61214 0.23204 1.00143 0.0
H1255 H 0.67631 0.13106 0.76923 0.0
H1256 H 0.86604 0.78807 0.95313 0.0
H1257 H 0.88835 0.77329 0.99149 0.0
H1258 H 0.95593 0.85064 0.99775 0.0
H1259 H 0.9333 0.86581 0.9589 0.0
H1260 H 0.97771 0.80973 0.9908 0.0
H1261 H 0.91848 0.82752 0.05212 0.0
H1262 H 0.87561 0.83181 0.07265 0.0
H1263 H 0.84105 0.74225 0.06444 0.0
H1264 H 0.88334 0.73735 0.04335 0.0
H1265 H 1.02543 0.70395 0.06684 0.0
H1266 H 1.01554 0.74855 0.05706 0.0
H1267 H 0.93781 0.70351 1.01071 0.0
H1268 H 0.9475 0.65903 0.01987 0.0
H1269 H 0.9336 0.74387 0.0553 0.0
H1270 H 0.98998 0.73377 0.98002 0.0
H1271 H 0.03519 0.73224 0.96215 0.0
H1272 H 0.07737 0.81228 1.00268 0.0
H1273 H 0.0326 0.81403 0.02103 0.0
C1274 C 0.88481 0.80271 0.96333 0.0
C1275 C 0.89823 0.82786 0.95254 0.0
C1276 C 0.89764 0.7942 0.98551 0.0
C1277 C 0.92406 0.81071 0.99748 0.0
C1278 C 0.93568 0.83743 0.98872 0.0
C1279 C 0.92279 0.84601 0.96644 0.0
C1280 C 0.94191 0.79706 0.01417 0.0
C1281 C 0.9684 0.79607 1.00561 0.0
C1282 C 0.93022 0.77945 0.03381 0.0
C1283 C 0.90425 0.7821 0.04607 0.0
C1284 C 0.90166 0.80872 0.05445 0.0
C1285 C 0.87743 0.81126 0.06623 0.0
C1286 C 0.85563 0.78732 0.06985 0.0
C1287 C 0.85798 0.76078 0.06166 0.0
C1288 C 0.88213 0.75811 0.04982 0.0
C1289 C 1.00658 0.70352 0.05403 0.0
C1290 C 0.98707 0.67785 0.04436 0.0
C1291 C 1.00092 0.72902 0.04866 0.0
C1292 C 0.97569 0.72908 0.0337 0.0
C1293 C 0.95719 0.70369 0.02267 0.0
C1294 C 0.96292 0.6783 0.02775 0.0
C1295 C 0.96742 0.75522 0.02997 0.0
C1296 C 0.94309 0.75848 0.04126 0.0
C1297 C 0.98126 0.77522 1.01324 0.0
C1298 C 1.00808 0.77386 1.00217 0.0
C1299 C 1.009 0.75088 0.98534 0.0
C1300 C 0.03455 0.75 0.97506 0.0
C1301 C 0.05922 0.7721 0.9813 0.0
C1302 C 0.05836 0.79511 0.99785 0.0
C1303 C 0.03291 0.79607 1.00819 0.0
H1304 H 0.07893 0.77145 0.97323 0.0
H1305 H 0.83691 0.78934 0.07901 0.0
H1306 H 0.10584 0.29005 0.17657 0.0
H1307 H 0.0719 0.31418 0.15849 0.0
H1308 H 0.12483 0.39285 0.19559 0.0
H1309 H 0.15788 0.36864 0.21514 0.0
H1310 H 0.07059 0.39246 0.19486 0.0
H1311 H 0.13198 0.36931 0.13157 0.0
H1312 H 0.15199 0.33703 0.10563 0.0
H1313 H 0.0678 0.29325 0.07121 0.0
H1314 H 0.04728 0.32512 0.09721 0.0
H1315 H 0.07389 0.49957 0.11159 0.0
H1316 H 0.08003 0.46273 0.13915 0.0
H1317 H 1.01413 0.40187 0.08987 0.0
H1318 H 1.00844 0.43899 0.06157 0.0
H1319 H 0.06139 0.38503 0.09733 0.0
H1320 H 1.00331 0.41922 0.15401 0.0
H1321 H 0.98719 0.45548 0.17838 0.0
H1322 H 0.06844 0.48238 0.22418 0.0
H1323 H 0.08522 0.44654 0.19988 0.0
C1324 C 0.10986 0.31234 0.18155 0.0
C1325 C 0.13491 0.32752 0.19689 0.0
C1326 C 0.09052 0.32614 0.171 0.0
C1327 C 0.09619 0.3554 0.17517 0.0
C1328 C 0.12012 0.37027 0.19194 0.0
C1329 C 0.13924 0.35646 0.20279 0.0
C1330 C 0.07921 0.37108 0.16002 0.0
C1331 C 0.06844 0.3908 0.17354 0.0
C1332 C 0.07577 0.36842 0.13219 0.0
C1333 C 0.08808 0.34931 0.11657 0.0
C1334 C 0.11774 0.35267 0.1186 0.0
C1335 C 0.12917 0.33448 0.10388 0.0
C1336 C 0.11116 0.31304 0.08686 0.0
C1337 C 0.0817 0.30981 0.08446 0.0
C1338 C 0.07016 0.32792 0.09918 0.0
C1339 C 0.06044 0.47842 0.10668 0.0
C1340 C 0.04074 0.47205 0.08425 0.0
C1341 C 0.06375 0.4574 0.12269 0.0
C1342 C 0.0472 0.42961 0.11684 0.0
C1343 C 1.02697 0.42324 0.09484 0.0
C1344 C 1.02375 0.44436 0.07869 0.0
C1345 C 0.05363 0.40711 0.13214 0.0
C1346 C 0.06252 0.38609 0.11864 0.0
C1347 C 0.05571 0.40893 0.15994 0.0
C1348 C 0.0455 0.43012 0.1751 0.0
C1349 C 1.01777 0.4329 0.16924 0.0
C1350 C 1.00852 0.45339 0.18304 0.0
C1351 C 1.02678 0.4712 0.20283 0.0
C1352 C 0.0543 0.46852 0.20889 0.0
C1353 C 0.06366 0.44805 0.19516 0.0
H1354 H 1.01959 0.48709 0.21345 0.0
H1355 H 0.12005 0.29898 0.07547 0.0
H1356 H 0.24562 0.77465 0.9571 0.0
H1357 H 0.2199 0.75563 0.99343 0.0
H1358 H 0.19733 0.83322 1.00804 0.0
H1359 H 0.22258 0.85225 0.97054 0.0
H1360 H 0.20923 0.7592 0.04172 0.0
H1361 H 0.13419 0.82121 0.01555 0.0
H1362 H 0.1229 0.85152 0.98167 0.0
H1363 H 0.14402 0.79873 0.92166 0.0
H1364 H 0.15544 0.76823 0.95526 0.0
H1365 H 0.0551 0.6704 0.05495 0.0
H1366 H 0.08642 0.71786 0.05217 0.0
H1367 H 0.13928 0.68353 1.00362 0.0
H1368 H 0.10816 0.63645 1.00621 0.0
H1369 H 0.10919 0.74993 1.00654 0.0
H1370 H 0.20716 0.70896 0.03016 0.0
H1371 H 0.21768 0.66886 0.05133 0.0
H1372 H 0.1515 0.66733 0.10248 0.0
H1373 H 0.1413 0.70817 0.08232 0.0
C1374 C 0.23643 0.7883 0.96871 0.0
C1375 C 0.23536 0.81463 0.96044 0.0
C1376 C 0.22157 0.77732 0.98964 0.0
C1377 C 0.20561 0.79256 1.00281 0.0
C1378 C 0.20863 0.82071 0.99751 0.0
C1379 C 0.22318 0.83161 0.97619 0.0
C1380 C 0.18167 0.77663 0.01696 0.0
C1381 C 0.18727 0.75758 0.03463 0.0
C1382 C 0.15292 0.77471 1.00797 0.0
C1383 C 0.1456 0.79259 0.98779 0.0
C1384 C 0.13631 0.81611 0.9951 0.0
C1385 C 0.12997 0.83332 0.97598 0.0
C1386 C 0.13273 0.82705 0.94953 0.0
C1387 C 0.14182 0.80353 0.94214 0.0
C1388 C 0.14823 0.7863 0.96118 0.0
C1389 C 0.0728 0.67315 0.043 0.0
C1390 C 0.07925 0.64976 0.03092 0.0
C1391 C 0.09083 0.70019 0.04165 0.0
C1392 C 0.1155 0.70394 0.0283 0.0
C1393 C 0.12063 0.68089 0.01451 0.0
C1394 C 0.10278 0.65405 0.01591 0.0
C1395 C 0.13714 0.73136 0.02956 0.0
C1396 C 0.13089 0.75252 0.01503 0.0
C1397 C 0.16551 0.73437 0.04038 0.0
C1398 C 0.17339 0.71167 0.05464 0.0
C1399 C 0.19523 0.7005 0.0463 0.0
C1400 C 0.2011 0.67756 0.05807 0.0
C1401 C 0.18521 0.66547 0.07813 0.0
C1402 C 0.16383 0.6767 0.08692 0.0
C1403 C 0.15805 0.69984 0.07538 0.0
H1404 H 0.18946 0.6473 0.08669 0.0
H1405 H 0.12783 0.8404 0.93477 0.0
H1406 H 0.37899 0.24395 0.79921 0.0
H1407 H 0.40634 0.21831 0.82556 0.0
H1408 H 0.36198 0.23152 0.89275 0.0
H1409 H 0.33412 0.25646 0.86638 0.0
H1410 H 0.44341 0.22886 0.86669 0.0
H1411 H 0.35452 0.1784 0.9324 0.0
H1412 H 0.3019 0.16212 0.92993 0.0
H1413 H 0.29801 0.14924 0.84596 0.0
H1414 H 0.3506 0.16509 0.84796 0.0
H1415 H 0.50319 0.16962 0.97562 0.0
H1416 H 0.48015 0.19602 0.94587 0.0
H1417 H 0.42343 0.11843 0.91046 0.0
H1418 H 0.44581 0.09211 0.94051 0.0
H1419 H 0.39291 0.15191 0.91842 0.0
H1420 H 0.48009 0.16203 0.87875 0.0
H1421 H 0.53236 0.17387 0.87734 0.0
H1422 H 0.53921 0.25977 0.90171 0.0
H1423 H 0.48699 0.24837 0.90367 0.0
C1424 C 0.37498 0.2414 0.81959 0.0
C1425 C 0.35399 0.25221 0.83044 0.0
C1426 C 0.39081 0.22675 0.83476 0.0
C1427 C 0.38619 0.22239 0.86127 0.0
C1428 C 0.36575 0.23384 0.87229 0.0
C1429 C 0.34979 0.2483 0.85711 0.0
C1430 C 0.40225 0.20555 0.8772 0.0
C1431 C 0.43228 0.21209 0.87802 0.0
C1432 C 0.3881 0.18307 0.89172 0.0
C1433 C 0.35648 0.17321 0.89033 0.0
C1434 C 0.34243 0.172 0.91342 0.0
C1435 C 0.31262 0.16286 0.9121 0.0
C1436 C 0.29662 0.15474 0.88779 0.0
C1437 C 0.31042 0.15563 0.86476 0.0
C1438 C 0.34022 0.16472 0.86598 0.0
C1439 C 0.48618 0.15811 0.96118 0.0
C1440 C 0.47651 0.12859 0.96065 0.0
C1441 C 0.4729 0.17331 0.94407 0.0
C1442 C 0.44982 0.15944 0.92562 0.0
C1443 C 0.4409 0.12991 0.92449 0.0
C1444 C 0.45396 0.11477 0.94169 0.0
C1445 C 0.43414 0.17548 0.9083 0.0
C1446 C 0.40411 0.16875 0.9072 0.0
C1447 C 0.44828 0.19726 0.89303 0.0
C1448 C 0.47964 0.20429 0.89157 0.0
C1449 C 0.49276 0.18341 0.88397 0.0
C1450 C 0.52237 0.19004 0.88306 0.0
C1451 C 0.53909 0.21754 0.88947 0.0
C1452 C 0.52623 0.23848 0.89677 0.0
C1453 C 0.49661 0.23195 0.89776 0.0
H1454 H 0.56199 0.22264 0.88868 0.0
H1455 H 0.27354 0.1477 0.88681 0.0
H1456 H 0.78379 0.38411 0.83153 0.0
H1457 H 0.79853 0.42382 0.86442 0.0
H1458 H 0.86547 0.39006 0.89736 0.0
H1459 H 0.85029 0.34995 0.86462 0.0
H1460 H 0.83971 0.40808 0.93476 0.0
H1461 H 0.87398 0.44726 0.85338 0.0
H1462 H 0.86681 0.45962 0.80771 0.0
H1463 H 0.81195 0.50935 0.83165 0.0
H1464 H 0.81801 0.49653 0.87728 0.0
H1465 H 0.95554 0.54508 0.9557 0.0
H1466 H 0.91573 0.51518 0.92803 0.0
H1467 H 0.8683 0.49667 0.99603 0.0
H1468 H 0.90989 0.52487 0.02402 0.0
H1469 H 0.86764 0.50641 0.91022 0.0
H1470 H 0.82007 0.45834 0.98323 0.0
H1471 H 0.80999 0.43388 0.02373 0.0
H1472 H 0.87821 0.39576 1.01369 0.0
H1473 H 0.8897 0.42125 0.97394 0.0
C1474 C 0.80175 0.38526 0.8457 0.0
C1475 C 0.81617 0.36414 0.84526 0.0
C1476 C 0.8102 0.40803 0.86452 0.0
C1477 C 0.83358 0.41041 0.8831 0.0
C1478 C 0.84747 0.38885 0.88314 0.0
C1479 C 0.83878 0.36587 0.86449 0.0
C1480 C 0.84354 0.43493 0.90286 0.0
C1481 C 0.84652 0.42961 0.92935 0.0
C1482 C 0.84994 0.46316 0.89615 0.0
C1483 C 0.84624 0.47071 0.86868 0.0
C1484 C 0.86016 0.46059 0.84884 0.0
C1485 C 0.85624 0.46764 0.82295 0.0
C1486 C 0.8388 0.48512 0.81675 0.0
C1487 C 0.8253 0.49566 0.83644 0.0
C1488 C 0.8289 0.48845 0.8623 0.0
C1489 C 0.93614 0.53553 0.96463 0.0
C1490 C 0.93586 0.53745 0.99202 0.0
C1491 C 0.91318 0.51798 0.94875 0.0
C1492 C 0.88876 0.50216 0.95964 0.0
C1493 C 0.8871 0.50688 0.98684 0.0
C1494 C 0.91063 0.52402 1.00293 0.0
C1495 C 0.86744 0.47951 0.94223 0.0
C1496 C 0.86153 0.48495 0.91586 0.0
C1497 C 0.85766 0.45131 0.94912 0.0
C1498 C 0.85652 0.44267 0.97629 0.0
C1499 C 0.83374 0.44575 0.99037 0.0
C1500 C 0.82764 0.43152 1.01305 0.0
C1501 C 0.84355 0.41337 0.02133 0.0
C1502 C 0.86623 0.41018 1.00748 0.0
C1503 C 0.87287 0.4249 0.98514 0.0
H1504 H 0.83835 0.4018 0.03852 0.0
H1505 H 0.83583 0.4906 0.79671 0.0
H1506 H 0.71117 0.81532 0.80578 0.0
H1507 H 0.68296 0.84035 0.83011 0.0
H1508 H 0.75911 0.88705 0.87749 0.0
H1509 H 0.78719 0.86112 0.85374 0.0
H1510 H 0.72195 0.88216 0.90924 0.0
H1511 H 0.71479 0.91328 0.82261 0.0
H1512 H 0.70437 0.90891 0.77441 0.0
H1513 H 0.61695 0.86542 0.78235 0.0
H1514 H 0.62694 0.86926 0.83061 0.0
H1515 H 0.65439 0.98369 0.96528 0.0
H1516 H 0.68347 0.9593 0.94098 0.0
H1517 H 0.60724 0.90644 0.89807 0.0
H1518 H 0.57823 0.93088 0.92218 0.0
H1519 H 0.64482 0.91529 0.86412 0.0
H1520 H 0.65285 0.8852 0.95141 0.0
H1521 H 0.66396 0.89101 0.99954 0.0
H1522 H 0.75095 0.93464 0.99 0.0
H1523 H 0.74026 0.92938 0.9418 0.0
C1524 C 0.72222 0.83099 0.82126 0.0
C1525 C 0.75215 0.83577 0.82708 0.0
C1526 C 0.70577 0.84585 0.83535 0.0
C1527 C 0.71815 0.86691 0.85598 0.0
C1528 C 0.74806 0.87143 0.86198 0.0
C1529 C 0.76449 0.85639 0.84802 0.0
C1530 C 0.70029 0.88365 0.87129 0.0
C1531 C 0.70545 0.88962 0.89896 0.0
C1532 C 0.67777 0.89369 0.85915 0.0
C1533 C 0.67169 0.8913 0.83019 0.0
C1534 C 0.6934 0.90263 0.81406 0.0
C1535 C 0.68756 0.90027 0.78674 0.0
C1536 C 0.66004 0.88682 0.77532 0.0
C1537 C 0.63827 0.87578 0.79122 0.0
C1538 C 0.644 0.87806 0.81856 0.0
C1539 C 0.64356 0.96692 0.95069 0.0
C1540 C 0.61329 0.95982 0.94627 0.0
C1541 C 0.6605 0.95251 0.93665 0.0
C1542 C 0.64832 0.93001 0.91726 0.0
C1543 C 0.61811 0.92331 0.91256 0.0
C1544 C 0.60119 0.93756 0.92669 0.0
C1545 C 0.66652 0.91374 0.90197 0.0
C1546 C 0.66138 0.90784 0.87433 0.0
C1547 C 0.68919 0.90398 0.9141 0.0
C1548 C 0.69568 0.90716 0.94302 0.0
C1549 C 0.6743 0.89621 0.95959 0.0
C1550 C 0.68053 0.89937 0.98688 0.0
C1551 C 0.70813 0.91326 0.99782 0.0
C1552 C 0.72957 0.92394 0.98149 0.0
C1553 C 0.72344 0.92085 0.95419 0.0
H1554 H 0.71291 0.91569 0.01895 0.0
H1555 H 0.65556 0.88502 0.75417 0.0
H1556 H 0.76328 0.69193 0.24912 0.0
H1557 H 0.7904 0.66933 0.22121 0.0
H1558 H 0.86915 0.72068 0.26175 0.0
H1559 H 0.84183 0.7425 0.29088 0.0
H1560 H 0.86411 0.71837 0.20299 0.0
H1561 H 0.85361 0.65847 0.27525 0.0
H1562 H 0.82606 0.62912 0.30698 0.0
H1563 H 0.77508 0.5741 0.24351 0.0
H1564 H 0.8021 0.60338 0.21137 0.0
H1565 H 0.96342 0.65031 0.16083 0.0
H1566 H 0.93318 0.66848 0.18856 0.0
H1567 H 0.85805 0.61366 0.14529 0.0
H1568 H 0.88838 0.59539 0.11669 0.0
H1569 H 0.85896 0.61692 0.20361 0.0
H1570 H 0.86847 0.67462 0.13137 0.0
H1571 H 0.89307 0.70424 0.09824 0.0
H1572 H 0.94286 0.76326 0.15952 0.0
H1573 H 0.9188 0.7338 0.19305 0.0
C1574 C 0.78636 0.69841 0.25214 0.0
C1575 C 0.8005 0.71914 0.27194 0.0
C1576 C 0.80179 0.68547 0.2362 0.0
C1577 C 0.83169 0.69353 0.23931 0.0
C1578 C 0.84602 0.71436 0.25899 0.0
C1579 C 0.83048 0.72676 0.27555 0.0
C1580 C 0.84774 0.68015 0.22173 0.0
C1581 C 0.8634 0.69632 0.20337 0.0
C1582 C 0.8457 0.65111 0.2216 0.0
C1583 C 0.82971 0.63326 0.2409 0.0
C1584 C 0.83638 0.64024 0.26805 0.0
C1585 C 0.82089 0.6236 0.28612 0.0
C1586 C 0.79878 0.59981 0.27727 0.0
C1587 C 0.79219 0.59256 0.25034 0.0
C1588 C 0.80761 0.60915 0.23218 0.0
C1589 C 0.94049 0.64177 0.15719 0.0
C1590 C 0.92835 0.62134 0.1364 0.0
C1591 C 0.92325 0.65234 0.17307 0.0
C1592 C 0.89347 0.64259 0.16879 0.0
C1593 C 0.88107 0.62147 0.14878 0.0
C1594 C 0.8984 0.61108 0.13249 0.0
C1595 C 0.87573 0.65526 0.18513 0.0
C1596 C 0.85969 0.63898 0.20321 0.0
C1597 C 0.87716 0.68416 0.18481 0.0
C1598 C 0.89204 0.70181 0.16475 0.0
C1599 C 0.8849 0.69374 0.13781 0.0
C1600 C 0.89868 0.71055 0.11894 0.0
C1601 C 0.91958 0.73557 0.12677 0.0
C1602 C 0.9267 0.74385 0.15348 0.0
C1603 C 0.91297 0.72712 0.17243 0.0
H1604 H 0.93018 0.74858 0.11213 0.0
H1605 H 0.7868 0.58696 0.29129 0.0
H1606 H 0.3906 0.82669 0.23427 0.0
H1607 H 0.41841 0.85508 0.2022 0.0
H1608 H 0.34644 0.88622 0.17907 0.0
H1609 H 0.31838 0.8575 0.21053 0.0
H1610 H 0.40984 0.85795 0.14574 0.0
H1611 H 0.3734 0.95749 0.17191 0.0
H1612 H 0.3596 0.98094 0.21051 0.0
H1613 H 0.40817 0.94127 0.26195 0.0
H1614 H 0.42259 0.91795 0.22368 0.0
H1615 H 0.4302 0.99574 0.07262 0.0
H1616 H 0.40997 0.96404 0.10489 0.0
H1617 H 0.48567 0.93474 0.11136 0.0
H1618 H 0.50681 0.96779 0.07891 0.0
H1619 H 0.42489 0.96108 0.15513 0.0
H1620 H 0.46256 0.86256 0.13072 0.0
H1621 H 0.47963 0.84045 0.09331 0.0
H1622 H 0.43161 0.87813 0.03938 0.0
H1623 H 0.41405 0.90024 0.07647 0.0
C1624 C 0.38054 0.83941 0.22225 0.0
C1625 C 0.352 0.83956 0.22524 0.0
C1626 C 0.39654 0.85563 0.20373 0.0
C1627 C 0.3848 0.87309 0.18796 0.0
C1628 C 0.35628 0.87314 0.19084 0.0
C1629 C 0.34012 0.85654 0.20894 0.0
C1630 C 0.40238 0.89206 0.16931 0.0
C1631 C 0.41341 0.88053 0.14803 0.0
C1632 C 0.40725 0.92165 0.17184 0.0
C1633 C 0.39874 0.9357 0.19492 0.0
C1634 C 0.38116 0.95382 0.19146 0.0
C1635 C 0.37325 0.96709 0.21328 0.0
C1636 C 0.3829 0.9625 0.23866 0.0
C1637 C 0.40059 0.9447 0.24228 0.0
C1638 C 0.40859 0.93141 0.22054 0.0
C1639 C 0.44295 0.98274 0.0807 0.0
C1640 C 0.47041 0.98445 0.0725 0.0
C1641 C 0.43112 0.96443 0.09948 0.0
C1642 C 0.44588 0.94656 0.11091 0.0
C1643 C 0.47341 0.94799 0.10292 0.0
C1644 C 0.48556 0.96683 0.08416 0.0
C1645 C 0.43196 0.92707 0.13112 0.0
C1646 C 0.42144 0.93851 0.15275 0.0
C1647 C 0.42788 0.89749 0.12895 0.0
C1648 C 0.43752 0.88357 0.10644 0.0
C1649 C 0.4557 0.86619 0.1109 0.0
C1650 C 0.4654 0.85359 0.08974 0.0
C1651 C 0.45687 0.85804 0.06398 0.0
C1652 C 0.43838 0.87487 0.05934 0.0
C1653 C 0.42858 0.88746 0.08044 0.0
H1654 H 0.46448 0.84834 0.04762 0.0
H1655 H 0.37675 0.97279 0.25553 0.0
H1656 H 0.79175 0.23203 0.19887 0.0
H1657 H 0.76181 0.19785 0.16534 0.0
H1658 H 0.69572 0.17626 0.21818 0.0
H1659 H 0.72539 0.21094 0.25175 0.0
H1660 H 0.73458 0.14044 0.16116 0.0
H1661 H 0.63348 0.17126 0.18273 0.0
H1662 H 0.61978 0.21059 0.2047 0.0
H1663 H 0.69618 0.2685 0.18399 0.0
H1664 H 0.71003 0.2296 0.16146 0.0
H1665 H 0.60658 0.05744 0.08081 0.0
H1666 H 0.64501 0.07975 0.11524 0.0
H1667 H 0.65745 0.15837 0.07896 0.0
H1668 H 0.61922 0.13633 0.04484 0.0
H1669 H 0.64507 0.163 0.12962 0.0
H1670 H 0.7087 0.12465 0.08093 0.0
H1671 H 0.72445 0.08678 0.0588 0.0
H1672 H 0.72587 0.04663 0.13119 0.0
H1673 H 0.70975 0.08409 0.15368 0.0
C1674 C 0.77097 0.21981 0.2035 0.0
C1675 C 0.76088 0.22428 0.22794 0.0
C1676 C 0.754 0.20008 0.18438 0.0
C1677 C 0.72653 0.1846 0.1892 0.0
C1678 C 0.71685 0.18807 0.21402 0.0
C1679 C 0.73385 0.20782 0.23321 0.0
C1680 C 0.70708 0.16731 0.16728 0.0
C1681 C 0.71487 0.14515 0.15436 0.0
C1682 C 0.68161 0.17375 0.15821 0.0
C1683 C 0.67281 0.1975 0.17054 0.0
C1684 C 0.64718 0.19243 0.18263 0.0
C1685 C 0.6394 0.21464 0.19518 0.0
C1686 C 0.65705 0.24203 0.19565 0.0
C1687 C 0.68249 0.24728 0.18353 0.0
C1688 C 0.69029 0.22517 0.17085 0.0
C1689 C 0.6184 0.07914 0.07959 0.0
C1690 C 0.60986 0.09522 0.06027 0.0
C1691 C 0.64016 0.09195 0.0994 0.0
C1692 C 0.65373 0.12087 0.09992 0.0
C1693 C 0.64701 0.13615 0.07916 0.0
C1694 C 0.62534 0.12346 0.05953 0.0
C1695 C 0.67255 0.13607 0.12323 0.0
C1696 C 0.66457 0.15793 0.13651 0.0
C1697 C 0.69793 0.12947 0.13238 0.0
C1698 C 0.70772 0.10701 0.11891 0.0
C1699 C 0.71213 0.10762 0.09207 0.0
C1700 C 0.72118 0.08626 0.07948 0.0
C1701 C 0.72608 0.06427 0.09356 0.0
C1702 C 0.72202 0.06365 0.1203 0.0
C1703 C 0.71296 0.08495 0.13298 0.0
H1704 H 0.73308 0.04775 0.08378 0.0
H1705 H 0.65107 0.25917 0.20547 0.0
H1706 H 0.78973 0.73635 0.87049 0.0
H1707 H 0.76128 0.70455 0.89981 0.0
H1708 H 0.69397 0.67523 0.8372 0.0
H1709 H 0.7223 0.70661 0.80781 0.0
H1710 H 0.6713 0.6849 0.8822 0.0
H1711 H 0.73569 0.63293 0.85704 0.0
H1712 H 0.78223 0.62417 0.85036 0.0
H1713 H 0.80778 0.64131 0.93302 0.0
H1714 H 0.76149 0.6505 0.94014 0.0
H1715 H 0.58773 0.57185 0.94961 0.0
H1716 H 0.61525 0.60103 0.91821 0.0
H1717 H 0.68937 0.62279 0.97459 0.0
H1718 H 0.66198 0.59407 1.00594 0.0
H1719 H 0.70813 0.61597 0.93108 0.0
H1720 H 0.64281 0.66899 0.95572 0.0
H1721 H 0.59525 0.67579 0.96147 0.0
H1722 H 0.57062 0.65531 0.87898 0.0
H1723 H 0.61795 0.64808 0.87281 0.0
C1724 C 0.76898 0.723 0.86282 0.0
C1725 C 0.75865 0.7242 0.83648 0.0
C1726 C 0.75263 0.70466 0.8797 0.0
C1727 C 0.72522 0.68709 0.87096 0.0
C1728 C 0.71488 0.68837 0.84472 0.0
C1729 C 0.73133 0.70638 0.82777 0.0
C1730 C 0.70719 0.66779 0.88909 0.0
C1731 C 0.67936 0.66966 0.89266 0.0
C1732 C 0.71734 0.64791 0.90327 0.0
C1733 C 0.7453 0.64277 0.89906 0.0
C1734 C 0.75137 0.63513 0.87375 0.0
C1735 C 0.77766 0.63 0.8699 0.0
C1736 C 0.79799 0.63229 0.89124 0.0
C1737 C 0.79204 0.63962 0.9165 0.0
C1738 C 0.76577 0.64477 0.92046 0.0
C1739 C 0.60994 0.58267 0.95529 0.0
C1740 C 0.62246 0.58008 0.98046 0.0
C1741 C 0.62585 0.5996 0.93719 0.0
C1742 C 0.65483 0.6146 0.9436 0.0
C1743 C 0.66731 0.61162 0.96864 0.0
C1744 C 0.65144 0.59495 0.98672 0.0
C1745 C 0.67232 0.63337 0.92467 0.0
C1746 C 0.7001 0.63138 0.92087 0.0
C1747 C 0.66207 0.6531 0.91025 0.0
C1748 C 0.63381 0.65782 0.91385 0.0
C1749 C 0.6272 0.66585 0.93884 0.0
C1750 C 0.6003 0.66977 0.94217 0.0
C1751 C 0.57991 0.66593 0.92061 0.0
C1752 C 0.58643 0.65826 0.89566 0.0
C1753 C 0.61329 0.65428 0.89223 0.0
H1754 H 0.55908 0.66895 0.92324 0.0
H1755 H 0.81833 0.62829 0.88822 0.0
H1756 H 0.36343 0.75791 0.82204 0.0
H1757 H 0.39021 0.73242 0.8488 0.0
H1758 H 0.31374 0.69238 0.88427 0.0
H1759 H 0.28734 0.71962 0.85862 0.0
H1760 H 0.35087 0.69561 0.92005 0.0
H1761 H 0.35224 0.65993 0.83241 0.0
H1762 H 0.35985 0.66071 0.78531 0.0
H1763 H 0.44928 0.70017 0.80478 0.0
H1764 H 0.44214 0.69993 0.85202 0.0
H1765 H 0.41409 0.58508 0.96597 0.0
H1766 H 0.38561 0.61058 0.94019 0.0
H1767 H 0.46214 0.67518 0.93038 0.0
H1768 H 0.49047 0.6504 0.95686 0.0
H1769 H 0.42408 0.65717 0.88164 0.0
H1770 H 0.41906 0.68936 0.97136 0.0
H1771 H 0.40821 0.68309 0.01733 0.0
H1772 H 0.32042 0.64231 0.99136 0.0
H1773 H 0.33085 0.64798 0.94518 0.0
C1774 C 0.35211 0.74369 0.83549 0.0
C1775 C 0.32278 0.74109 0.83765 0.0
C1776 C 0.36761 0.72856 0.85084 0.0
C1777 C 0.35446 0.70908 0.86858 0.0
C1778 C 0.32513 0.70678 0.871 0.0
C1779 C 0.30975 0.72251 0.85606 0.0
C1780 C 0.37117 0.6917 0.88458 0.0
C1781 C 0.36648 0.68698 0.91118 0.0
C1782 C 0.39217 0.67992 0.87408 0.0
C1783 C 0.39659 0.68018 0.84574 0.0
C1784 C 0.3735 0.66894 0.82664 0.0
C1785 C 0.37773 0.66927 0.79992 0.0
C1786 C 0.40502 0.68056 0.79206 0.0
C1787 C 0.42815 0.69148 0.8109 0.0
C1788 C 0.42402 0.69124 0.83765 0.0
C1789 C 0.425 0.60472 0.95841 0.0
C1790 C 0.45497 0.61536 0.96393 0.0
C1791 C 0.40851 0.61949 0.94356 0.0
C1792 C 0.42129 0.64524 0.93294 0.0
C1793 C 0.45126 0.65556 0.93801 0.0
C1794 C 0.46761 0.64122 0.95341 0.0
C1795 C 0.40373 0.6614 0.91678 0.0
C1796 C 0.40833 0.66583 0.89024 0.0
C1797 C 0.38211 0.67214 0.92709 0.0
C1798 C 0.37581 0.66882 0.95481 0.0
C1799 C 0.3975 0.67882 0.97544 0.0
C1800 C 0.39141 0.67543 1.00153 0.0
C1801 C 0.36366 0.66224 1.00726 0.0
C1802 C 0.34192 0.65248 0.98689 0.0
C1803 C 0.3479 0.6558 0.96076 0.0
H1804 H 0.35898 0.65963 0.02747 0.0
H1805 H 0.40825 0.68079 0.77137 0.0
H1806 H 0.37014 0.37977 0.82246 0.0
H1807 H 0.38857 0.4139 0.85921 0.0
H1808 H 0.30384 0.39995 0.88493 0.0
H1809 H 0.28525 0.36431 0.84832 0.0
H1810 H 0.38385 0.46013 0.88228 0.0
H1811 H 0.31013 0.40198 0.94775 0.0
H1812 H 0.27171 0.35793 0.9484 0.0
H1813 H 0.31992 0.31335 0.90482 0.0
H1814 H 0.35857 0.35718 0.90398 0.0
H1815 H 0.45616 0.46691 0.02333 0.0
H1816 H 0.41098 0.4535 0.99511 0.0
H1817 H 0.45602 0.43559 0.9298 0.0
H1818 H 0.50125 0.45026 0.95771 0.0
H1819 H 0.3803 0.40631 0.96183 0.0
H1820 H 0.4355 0.46451 0.87704 0.0
H1821 H 0.47774 0.50298 0.87058 0.0
H1822 H 0.47452 0.54099 0.94692 0.0
H1823 H 0.43156 0.50319 0.95378 0.0
C1824 C 0.35524 0.38423 0.83561 0.0
C1825 C 0.32648 0.36874 0.83306 0.0
C1826 C 0.36575 0.40408 0.85653 0.0
C1827 C 0.34769 0.40904 0.87522 0.0
C1828 C 0.31824 0.39598 0.87104 0.0
C1829 C 0.30767 0.3757 0.8501 0.0
C1830 C 0.36131 0.42371 0.90068 0.0
C1831 C 0.3828 0.44881 0.89997 0.0
C1832 C 0.35925 0.40932 0.924 0.0
C1833 C 0.3371 0.3827 0.92585 0.0
C1834 C 0.31258 0.38269 0.93856 0.0
C1835 C 0.29075 0.35782 0.93887 0.0
C1836 C 0.29338 0.33286 0.92666 0.0
C1837 C 0.31793 0.33268 0.91429 0.0
C1838 C 0.33981 0.35749 0.91394 0.0
C1839 C 0.45622 0.45988 1.003 0.0
C1840 C 0.48195 0.46012 0.99232 0.0
C1841 C 0.43048 0.45209 0.98701 0.0
C1842 C 0.43048 0.44458 0.96025 0.0
C1843 C 0.45585 0.44211 0.95031 0.0
C1844 C 0.48153 0.45008 0.96623 0.0
C1845 C 0.40464 0.44098 0.94207 0.0
C1846 C 0.38073 0.41851 0.94475 0.0
C1847 C 0.40513 0.45721 0.91999 0.0
C1848 C 0.43016 0.48095 0.91589 0.0
C1849 C 0.44346 0.48128 0.89237 0.0
C1850 C 0.46757 0.50296 0.88867 0.0
C1851 C 0.4787 0.52446 0.90836 0.0
C1852 C 0.46567 0.52437 0.93174 0.0
C1853 C 0.44142 0.50284 0.93553 0.0
H1854 H 0.49747 0.54116 0.90554 0.0
H1855 H 0.27638 0.31368 0.92678 0.0
H1856 H 0.76715 0.4707 0.81343 0.0
H1857 H 0.75937 0.50111 0.84971 0.0
H1858 H 0.6701 0.45613 0.84284 0.0
H1859 H 0.67789 0.42426 0.80845 0.0
H1860 H 0.68456 0.5188 0.85048 0.0
H1861 H 0.70753 0.43485 0.88272 0.0
H1862 H 0.73819 0.40345 0.89177 0.0
H1863 H 0.80203 0.47185 0.93371 0.0
H1864 H 0.77212 0.50391 0.92414 0.0
H1865 H 0.60981 0.47763 0.96062 0.0
H1866 H 0.63726 0.48136 0.92276 0.0
H1867 H 0.70153 0.5516 0.96231 0.0
H1868 H 0.67445 0.54733 1.00138 0.0
H1869 H 0.71422 0.49502 0.93937 0.0
H1870 H 0.69565 0.57825 0.87961 0.0
H1871 H 0.66347 0.60708 0.86638 0.0
H1872 H 0.59073 0.53987 0.87965 0.0
H1873 H 0.62236 0.51022 0.89165 0.0
C1874 C 0.74588 0.46712 0.81969 0.0
C1875 C 0.72331 0.44453 0.80813 0.0
C1876 C 0.74146 0.48478 0.84021 0.0
C1877 C 0.71421 0.48072 0.84888 0.0
C1878 C 0.69128 0.45965 0.83621 0.0
C1879 C 0.6958 0.44152 0.8163 0.0
C1880 C 0.70944 0.49635 0.87265 0.0
C1881 C 0.69148 0.51409 0.86998 0.0
C1882 C 0.71911 0.49075 0.89804 0.0
C1883 C 0.73783 0.4719 0.90228 0.0
C1884 C 0.72838 0.44336 0.89333 0.0
C1885 C 0.74557 0.42541 0.89865 0.0
C1886 C 0.77204 0.43566 0.91327 0.0
C1887 C 0.78158 0.46397 0.92228 0.0
C1888 C 0.76457 0.48206 0.91684 0.0
C1889 C 0.62965 0.49408 0.96143 0.0
C1890 C 0.63984 0.5123 0.9841 0.0
C1891 C 0.64505 0.49652 0.93947 0.0
C1892 C 0.67073 0.51752 0.9393 0.0
C1893 C 0.68123 0.53583 0.9618 0.0
C1894 C 0.66584 0.53325 0.98409 0.0
C1895 C 0.68817 0.51634 0.91714 0.0
C1896 C 0.70856 0.50112 0.92004 0.0
C1897 C 0.68068 0.52416 0.89195 0.0
C1898 C 0.66146 0.5424 0.88749 0.0
C1899 C 0.6728 0.56978 0.88005 0.0
C1900 C 0.65464 0.58613 0.87241 0.0
C1901 C 0.62509 0.57537 0.8723 0.0
C1902 C 0.61364 0.54824 0.87989 0.0
C1903 C 0.63171 0.53165 0.88717 0.0
H1904 H 0.61107 0.58807 0.86641 0.0
H1905 H 0.785 0.42157 0.91778 0.0
H1906 H 0.72396 0.31022 0.23076 0.0
H1907 H 0.69871 0.33623 0.2026 0.0
H1908 H 0.77857 0.39606 0.19254 0.0
H1909 H 0.80413 0.36963 0.22037 0.0
H1910 H 0.7357 0.42345 0.2017 0.0
H1911 H 0.74449 0.34914 0.14208 0.0
H1912 H 0.73986 0.29984 0.12736 0.0
H1913 H 0.64904 0.28002 0.13085 0.0
H1914 H 0.65315 0.32917 0.14592 0.0
H1915 H 0.67576 0.4963 0.10337 0.0
H1916 H 0.70404 0.47132 0.12943 0.0
H1917 H 0.63196 0.39799 0.12313 0.0
H1918 H 0.60427 0.42249 0.09592 0.0
H1919 H 0.67272 0.37765 0.12236 0.0
H1920 H 0.66267 0.45007 0.18353 0.0
H1921 H 0.66612 0.49829 0.201 0.0
H1922 H 0.75708 0.52075 0.19784 0.0
H1923 H 0.75413 0.47274 0.18002 0.0
C1924 C 0.73639 0.32886 0.22257 0.0
C1925 C 0.76647 0.33748 0.22825 0.0
C1926 C 0.72173 0.34387 0.20621 0.0
C1927 C 0.73629 0.36856 0.19497 0.0
C1928 C 0.76634 0.37733 0.20072 0.0
C1929 C 0.78112 0.36197 0.21671 0.0
C1930 C 0.72021 0.38491 0.17743 0.0
C1931 C 0.72228 0.41343 0.18414 0.0
C1932 C 0.70175 0.37227 0.15466 0.0
C1933 C 0.69915 0.3428 0.14529 0.0
C1934 C 0.72354 0.33424 0.13984 0.0
C1935 C 0.72101 0.30634 0.13139 0.0
C1936 C 0.69417 0.28684 0.12811 0.0
C1937 C 0.6698 0.29519 0.13331 0.0
C1938 C 0.67221 0.32307 0.14179 0.0
C1939 C 0.66576 0.47487 0.10752 0.0
C1940 C 0.63725 0.46187 0.09722 0.0
C1941 C 0.68209 0.4604 0.12289 0.0
C1942 C 0.67057 0.43235 0.12942 0.0
C1943 C 0.6421 0.41937 0.11893 0.0
C1944 C 0.62596 0.43366 0.10321 0.0
C1945 C 0.68786 0.41647 0.14661 0.0
C1946 C 0.68606 0.3879 0.13987 0.0
C1947 C 0.70629 0.42901 0.1696 0.0
C1948 C 0.70813 0.4579 0.18015 0.0
C1949 C 0.68338 0.46535 0.18637 0.0
C1950 C 0.68525 0.49264 0.19636 0.0
C1951 C 0.71179 0.51259 0.20045 0.0
C1952 C 0.73653 0.50528 0.19461 0.0
C1953 C 0.73477 0.47804 0.18457 0.0
H1954 H 0.7132 0.53369 0.2082 0.0
H1955 H 0.69226 0.26523 0.12161 0.0
H1956 H 0.7336 0.65851 0.27802 0.0
H1957 H 0.71745 0.63849 0.23306 0.0
H1958 H 0.64036 0.66501 0.23689 0.0
H1959 H 0.65665 0.68573 0.28146 0.0
H1960 H 0.63131 0.61386 0.20903 0.0
H1961 H 0.69488 0.70722 0.2152 0.0
H1962 H 0.73845 0.74665 0.22366 0.0
H1963 H 0.78417 0.70208 0.17723 0.0
H1964 H 0.7411 0.66207 0.16892 0.0
H1965 H 0.58344 0.64567 0.08839 0.0
H1966 H 0.61319 0.65965 0.12988 0.0
H1967 H 0.66533 0.60582 0.10794 0.0
H1968 H 0.63562 0.59167 0.06627 0.0
H1969 H 0.69132 0.66485 0.14321 0.0
H1970 H 0.62289 0.57156 0.13586 0.0
H1971 H 0.57527 0.54032 0.12065 0.0
H1972 H 0.53587 0.59174 0.16675 0.0
H1973 H 0.58331 0.6236 0.18183 0.0
C1974 C 0.7128 0.65931 0.26959 0.0
C1975 C 0.69666 0.67429 0.28294 0.0
C1976 C 0.70374 0.64803 0.24386 0.0
C1977 C 0.67812 0.65098 0.2316 0.0
C1978 C 0.66038 0.66285 0.24603 0.0
C1979 C 0.66964 0.67455 0.27152 0.0
C1980 C 0.67078 0.64426 0.20315 0.0
C1981 C 0.64462 0.62478 0.19468 0.0
C1982 C 0.68821 0.65863 0.18444 0.0
C1983 C 0.71486 0.68135 0.19187 0.0
C1984 C 0.71438 0.70548 0.20733 0.0
C1985 C 0.73892 0.72805 0.21192 0.0
C1986 C 0.76401 0.72687 0.20099 0.0
C1987 C 0.76469 0.70301 0.18562 0.0
C1988 C 0.74029 0.6803 0.18111 0.0
C1989 C 0.60199 0.63778 0.09181 0.0
C1990 C 0.60679 0.61696 0.07454 0.0
C1991 C 0.61887 0.64571 0.11554 0.0
C1992 C 0.64086 0.63319 0.12192 0.0
C1993 C 0.64819 0.61541 0.10323 0.0
C1994 C 0.6311 0.60721 0.07958 0.0
C1995 C 0.65218 0.63464 0.14946 0.0
C1996 C 0.67876 0.65319 0.15767 0.0
C1997 C 0.63508 0.6198 0.16798 0.0
C1998 C 0.60663 0.60004 0.15983 0.0
C1999 C 0.60407 0.57628 0.14264 0.0
C2000 C 0.57711 0.55846 0.13405 0.0
C2001 C 0.55255 0.56405 0.14272 0.0
C2002 C 0.55492 0.58743 0.16006 0.0
C2003 C 0.58183 0.60536 0.16866 0.0
H2004 H 0.53171 0.55023 0.13606 0.0
H2005 H 0.78295 0.74439 0.20454 0.0
H2006 H 0.43285 0.66634 0.2738 0.0
H2007 H 0.44239 0.62976 0.24483 0.0
H2008 H 0.36892 0.62999 0.19232 0.0
H2009 H 0.35851 0.66553 0.2217 0.0
H2010 H 0.37681 0.57768 0.19243 0.0
H2011 H 0.43374 0.67332 0.18477 0.0
H2012 H 0.46761 0.71856 0.20113 0.0
H2013 H 0.53113 0.67618 0.22317 0.0
H2014 H 0.49745 0.63061 0.20727 0.0
H2015 H 0.41665 0.56709 0.06179 0.0
H2016 H 0.39864 0.57195 0.10488 0.0
H2017 H 0.47936 0.56795 0.14319 0.0
H2018 H 0.49768 0.56494 0.10044 0.0
H2019 H 0.46979 0.61499 0.15611 0.0
H2020 H 0.41437 0.51934 0.15547 0.0
H2021 H 0.37959 0.47486 0.13831 0.0
H2022 H 0.31368 0.5171 0.12902 0.0
H2023 H 0.34782 0.5618 0.14639 0.0
C2024 C 0.41828 0.65803 0.25647 0.0
C2025 C 0.39534 0.66929 0.24967 0.0
C2026 C 0.42378 0.63718 0.23992 0.0
C2027 C 0.40664 0.62758 0.21621 0.0
C2028 C 0.38247 0.6372 0.21046 0.0
C2029 C 0.37684 0.65784 0.22706 0.0
C2030 C 0.41601 0.61092 0.19563 0.0
C2031 C 0.39717 0.58565 0.18446 0.0
C2032 C 0.44276 0.62118 0.18558 0.0
C2033 C 0.46296 0.64855 0.19521 0.0
C2034 C 0.45485 0.67363 0.19333 0.0
C2035 C 0.47401 0.69933 0.20248 0.0
C2036 C 0.50147 0.70023 0.21328 0.0
C2037 C 0.50983 0.67544 0.21489 0.0
C2038 C 0.49071 0.64967 0.20582 0.0
C2039 C 0.43008 0.5665 0.0795 0.0
C2040 C 0.45851 0.56603 0.07811 0.0
C2041 C 0.41976 0.56894 0.10408 0.0
C2042 C 0.43771 0.57037 0.12731 0.0
C2043 C 0.46519 0.56702 0.12559 0.0
C2044 C 0.47567 0.56541 0.10122 0.0
C2045 C 0.43057 0.58157 0.15252 0.0
C2046 C 0.44979 0.60621 0.16446 0.0
C2047 C 0.40418 0.57073 0.16301 0.0
C2048 C 0.38372 0.54398 0.1521 0.0
C2049 C 0.39251 0.51921 0.14959 0.0
C2050 C 0.37291 0.49394 0.1399 0.0
C2051 C 0.34457 0.4932 0.13242 0.0
C2052 C 0.33566 0.51771 0.13479 0.0
C2053 C 0.35508 0.54299 0.14469 0.0
H2054 H 0.32949 0.47361 0.12486 0.0
H2055 H 0.51629 0.72015 0.22033 0.0
H2056 H 0.38287 0.35419 0.24524 0.0
H2057 H 0.40948 0.38619 0.21552 0.0
H2058 H 0.33047 0.38975 0.17391 0.0
H2059 H 0.30354 0.35715 0.20359 0.0
H2060 H 0.36679 0.38671 0.13895 0.0
H2061 H 0.37453 0.44631 0.21681 0.0
H2062 H 0.38488 0.4613 0.26403 0.0
H2063 H 0.47245 0.46099 0.26015 0.0
H2064 H 0.46253 0.44565 0.21295 0.0
H2065 H 0.43025 0.49902 0.06352 0.0
H2066 H 0.40304 0.4712 0.09554 0.0
H2067 H 0.48132 0.46672 0.13798 0.0
H2068 H 0.50892 0.4956 0.10612 0.0
H2069 H 0.4447 0.47079 0.17245 0.0
H2070 H 0.43582 0.41072 0.0935 0.0
H2071 H 0.42491 0.39883 0.04578 0.0
H2072 H 0.33836 0.40177 0.05156 0.0
H2073 H 0.3489 0.41421 0.09926 0.0
C2074 C 0.37093 0.36181 0.22992 0.0
C2075 C 0.34075 0.3529 0.22722 0.0
C2076 C 0.38636 0.38042 0.21283 0.0
C2077 C 0.37234 0.39113 0.19233 0.0
C2078 C 0.34216 0.38213 0.18943 0.0
C2079 C 0.32664 0.36346 0.20661 0.0
C2080 C 0.38919 0.41113 0.17386 0.0
C2081 C 0.38355 0.40524 0.14644 0.0
C2082 C 0.41166 0.43536 0.18306 0.0
C2083 C 0.41771 0.44455 0.21142 0.0
C2084 C 0.39594 0.44923 0.22608 0.0
C2085 C 0.40174 0.45783 0.25283 0.0
C2086 C 0.42928 0.46202 0.2651 0.0
C2087 C 0.45111 0.4577 0.25063 0.0
C2088 C 0.44542 0.44907 0.22387 0.0
C2089 C 0.44189 0.49239 0.07973 0.0
C2090 C 0.47205 0.4996 0.08183 0.0
C2091 C 0.42612 0.47612 0.09813 0.0
C2092 C 0.43974 0.46579 0.11915 0.0
C2093 C 0.46993 0.47395 0.12198 0.0
C2094 C 0.48582 0.49056 0.10363 0.0
C2095 C 0.42253 0.44615 0.13762 0.0
C2096 C 0.42804 0.45215 0.16502 0.0
C2097 C 0.39987 0.42209 0.1284 0.0
C2098 C 0.3932 0.41353 0.09993 0.0
C2099 C 0.41447 0.40887 0.08458 0.0
C2100 C 0.40837 0.40208 0.05753 0.0
C2101 C 0.38097 0.39958 0.04564 0.0
C2102 C 0.35958 0.40372 0.0608 0.0
C2103 C 0.36559 0.41062 0.08785 0.0
H2104 H 0.37631 0.39441 0.02468 0.0
H2105 H 0.43373 0.46868 0.28582 0.0
H2106 H 0.81957 0.71815 0.71129 0.0
H2107 H 0.84817 0.69426 0.68597 0.0
H2108 H 0.9217 0.73097 0.74068 0.0
H2109 H 0.89301 0.75481 0.76619 0.0
H2110 H 0.94037 0.73179 0.69283 0.0
H2111 H 0.88105 0.6571 0.73606 0.0
H2112 H 0.83571 0.62695 0.7486 0.0
H2113 H 0.80748 0.60187 0.66733 0.0
H2114 H 0.85253 0.63216 0.65428 0.0
H2115 H 0.0294 0.65075 0.64064 0.0
H2116 H 1.00115 0.67362 0.66702 0.0
H2117 H 0.92404 0.62392 0.62286 0.0
H2118 H 0.95241 0.59986 0.59737 0.0
H2119 H 0.90687 0.63016 0.66572 0.0
H2120 H 0.96361 0.70543 0.62138 0.0
H2121 H 1.00771 0.73645 0.60732 0.0
H2122 H 0.0392 0.76169 0.68793 0.0
H2123 H 0.99538 0.7306 0.70248 0.0
C2124 C 0.84178 0.72118 0.71826 0.0
C2125 C 0.85331 0.73874 0.74145 0.0
C2126 C 0.85842 0.70716 0.70354 0.0
C2127 C 0.88777 0.70992 0.71093 0.0
C2128 C 0.89942 0.72781 0.7339 0.0
C2129 C 0.88268 0.74159 0.74881 0.0
C2130 C 0.90605 0.69456 0.69492 0.0
C2131 C 0.93296 0.70945 0.68731 0.0
C2132 C 0.89708 0.66535 0.6864 0.0
C2133 C 0.87004 0.64711 0.69418 0.0
C2134 C 0.86509 0.64531 0.72085 0.0
C2135 C 0.83945 0.62817 0.72805 0.0
C2136 C 0.81869 0.61257 0.70877 0.0
C2137 C 0.82356 0.61401 0.68224 0.0
C2138 C 0.84915 0.63114 0.67493 0.0
C2139 C 1.00641 0.64451 0.63631 0.0
C2140 C 0.99382 0.62302 0.61623 0.0
C2141 C 0.98987 0.65817 0.65151 0.0
C2142 C 0.9596 0.65187 0.64722 0.0
C2143 C 0.947 0.63006 0.62732 0.0
C2144 C 0.96354 0.61605 0.61238 0.0
C2145 C 0.94134 0.66737 0.66336 0.0
C2146 C 0.91438 0.65251 0.67107 0.0
C2147 C 0.95009 0.69674 0.67165 0.0
C2148 C 0.97636 0.71549 0.663 0.0
C2149 C 0.98001 0.7175 0.6361 0.0
C2150 C 1.00494 0.7351 0.62805 0.0
C2151 C 1.02628 0.75097 0.64672 0.0
C2152 C 1.02267 0.74935 0.67349 0.0
C2153 C 0.99779 0.73177 0.68165 0.0
H2154 H 0.04557 0.76457 0.64045 0.0
H2155 H 0.79886 0.59931 0.71438 0.0
H2156 H 0.42031 0.84819 0.65354 0.0
H2157 H 0.45082 0.89069 0.63788 0.0
H2158 H 0.3989 0.93965 0.67042 0.0
H2159 H 0.36894 0.89756 0.68723 0.0
H2160 H 0.41078 0.94848 0.61686 0.0
H2161 H 0.45974 0.9464 0.70152 0.0
H2162 H 0.48232 0.92454 0.7363 0.0
H2163 H 0.54366 0.91158 0.6845 0.0
H2164 H 0.52116 0.93296 0.64926 0.0
H2165 H 0.50049 0.06758 0.57076 0.0
H2166 H 0.47464 0.03956 0.60364 0.0
H2167 H 0.53015 0.98482 0.60008 0.0
H2168 H 0.55751 1.01429 0.5694 0.0
H2169 H 0.5144 0.98373 0.64519 0.0
H2170 H 0.46192 0.97439 0.55901 0.0
H2171 H 0.43888 0.99137 0.52099 0.0
H2172 H 0.38459 0.0205 0.57129 0.0
H2173 H 0.40743 1.00384 0.60968 0.0
C2174 C 0.41551 0.868 0.65768 0.0
C2175 C 0.39212 0.86936 0.6717 0.0
C2176 C 0.43295 0.89225 0.64866 0.0
C2177 C 0.42721 0.91825 0.65328 0.0
C2178 C 0.40364 0.91971 0.66675 0.0
C2179 C 0.38639 0.89555 0.67609 0.0
C2180 C 0.4454 0.94375 0.64324 0.0
C2181 C 0.43334 0.95661 0.62336 0.0
C2182 C 0.47489 0.95377 0.65142 0.0
C2183 C 0.48861 0.94111 0.67267 0.0
C2184 C 0.4779 0.93869 0.69747 0.0
C2185 C 0.49071 0.92642 0.71728 0.0
C2186 C 0.51437 0.91663 0.7126 0.0
C2187 C 0.52532 0.91916 0.6881 0.0
C2188 C 0.51256 0.93138 0.66821 0.0
C2189 C 0.50765 0.05 0.57753 0.0
C2190 C 0.53047 0.04249 0.56668 0.0
C2191 C 0.49266 0.03381 0.59616 0.0
C2192 C 0.49952 1.00922 0.60343 0.0
C2193 C 0.52399 1.00335 0.59451 0.0
C2194 C 0.53953 0.02009 0.57664 0.0
C2195 C 0.48003 0.98813 0.61807 0.0
C2196 C 0.49177 0.97602 0.63889 0.0
C2197 C 0.45031 0.97821 0.61026 0.0
C2198 C 0.43659 0.98819 0.58722 0.0
C2199 C 0.44517 0.98456 0.56196 0.0
C2200 C 0.43216 0.99411 0.54035 0.0
C2201 C 0.41039 1.00711 0.54372 0.0
C2202 C 0.40151 1.0105 0.56871 0.0
C2203 C 0.41445 1.00099 0.5904 0.0
H2204 H 0.40036 1.01449 0.52694 0.0
H2205 H 0.52426 0.90714 0.72797 0.0
H2206 H 0.212 0.30125 0.73634 0.0
H2207 H 0.18353 0.32475 0.70852 0.0
H2208 H 0.25795 0.39416 0.70467 0.0
H2209 H 0.28656 0.37068 0.73205 0.0
H2210 H 0.21024 0.41229 0.71494 0.0
H2211 H 0.23321 0.35093 0.6467 0.0
H2212 H 0.23596 0.30532 0.6271 0.0
H2213 H 0.14682 0.26974 0.63527 0.0
H2214 H 0.14341 0.31551 0.65412 0.0
H2215 H 0.17065 0.48577 0.61024 0.0
H2216 H 0.19191 0.45942 0.64082 0.0
H2217 H 0.11627 0.38971 0.62799 0.0
H2218 H 0.09502 0.4159 0.59635 0.0
H2219 H 0.1603 0.3696 0.62864 0.0
H2220 H 0.13543 0.43459 0.68752 0.0
H2221 H 0.13243 0.48072 0.70549 0.0
H2222 H 0.22392 0.50917 0.7181 0.0
H2223 H 0.22752 0.46333 0.69983 0.0
C2224 C 0.22238 0.32148 0.72953 0.0
C2225 C 0.25175 0.33391 0.73654 0.0
C2226 C 0.20603 0.3349 0.71347 0.0
C2227 C 0.21846 0.36133 0.70422 0.0
C2228 C 0.24769 0.37386 0.71143 0.0
C2229 C 0.26411 0.36028 0.72711 0.0
C2230 C 0.20113 0.37613 0.68739 0.0
C2231 C 0.19954 0.40305 0.69597 0.0
C2232 C 0.1862 0.36395 0.66298 0.0
C2233 C 0.18813 0.33644 0.65199 0.0
C2234 C 0.21425 0.33332 0.64437 0.0
C2235 C 0.21588 0.3075 0.6333 0.0
C2236 C 0.19165 0.28454 0.6302 0.0
C2237 C 0.1656 0.2875 0.63777 0.0
C2238 C 0.16374 0.31343 0.64844 0.0
C2239 C 0.1582 0.46495 0.61401 0.0
C2240 C 0.13086 0.4532 0.60067 0.0
C2241 C 0.17048 0.44983 0.63179 0.0
C2242 C 0.15575 0.4225 0.63736 0.0
C2243 C 0.12826 0.41072 0.6243 0.0
C2244 C 0.11598 0.42585 0.60625 0.0
C2245 C 0.16965 0.40615 0.65593 0.0
C2246 C 0.17065 0.37889 0.64772 0.0
C2247 C 0.18379 0.41799 0.68087 0.0
C2248 C 0.18175 0.44555 0.69209 0.0
C2249 C 0.15493 0.45073 0.69396 0.0
C2250 C 0.15312 0.47683 0.70422 0.0
C2251 C 0.17797 0.49788 0.71287 0.0
C2252 C 0.20469 0.49284 0.71136 0.0
C2253 C 0.20663 0.46679 0.70109 0.0
H2254 H 0.17653 0.51808 0.72079 0.0
H2255 H 0.19305 0.26449 0.62184 0.0
H2256 H 0.7232 0.23739 0.71823 0.0
H2257 H 0.70869 0.20399 0.67997 0.0
H2258 H 0.79629 0.2027 0.67506 0.0
H2259 H 0.81094 0.23576 0.71412 0.0
H2260 H 0.72021 0.21033 0.63264 0.0
H2261 H 0.79625 0.13763 0.6423 0.0
H2262 H 0.82157 0.11805 0.67698 0.0
H2263 H 0.76176 0.12906 0.73115 0.0
H2264 H 0.73547 0.14779 0.69665 0.0
H2265 H 0.69822 0.1385 0.51329 0.0
H2266 H 0.7307 0.15976 0.55195 0.0
H2267 H 0.68567 0.09466 0.59817 0.0
H2268 H 0.65355 0.07285 0.55935 0.0
H2269 H 0.74304 0.11905 0.6194 0.0
H2270 H 0.65865 0.14703 0.59129 0.0
H2271 H 0.62663 0.16172 0.55862 0.0
H2272 H 0.69377 0.23519 0.54736 0.0
H2273 H 0.72631 0.22069 0.57971 0.0
C2274 C 0.73944 0.22993 0.70918 0.0
C2275 C 0.76828 0.23946 0.71919 0.0
C2276 C 0.73109 0.21079 0.6872 0.0
C2277 C 0.75133 0.20074 0.67445 0.0
C2278 C 0.78016 0.20983 0.68464 0.0
C2279 C 0.78853 0.22884 0.70693 0.0
C2280 C 0.74202 0.18197 0.64983 0.0
C2281 C 0.72544 0.19048 0.62986 0.0
C2282 C 0.74844 0.1558 0.64604 0.0
C2283 C 0.76415 0.14457 0.66696 0.0
C2284 C 0.78847 0.13585 0.6616 0.0
C2285 C 0.80299 0.12489 0.68123 0.0
C2286 C 0.79346 0.12259 0.7063 0.0
C2287 C 0.76924 0.13104 0.71177 0.0
C2288 C 0.75449 0.1418 0.69218 0.0
C2289 C 0.69622 0.12783 0.53132 0.0
C2290 C 0.67304 0.10428 0.53337 0.0
C2291 C 0.71473 0.14009 0.55348 0.0
C2292 C 0.71005 0.12929 0.57812 0.0
C2293 C 0.68957 0.10348 0.57941 0.0
C2294 C 0.67124 0.09094 0.55709 0.0
C2295 C 0.7216 0.14772 0.60253 0.0
C2296 C 0.73838 0.13915 0.62228 0.0
C2297 C 0.71467 0.17351 0.60668 0.0
C2298 C 0.69498 0.18264 0.58769 0.0
C2299 C 0.66661 0.16625 0.58174 0.0
C2300 C 0.64837 0.17453 0.56329 0.0
C2301 C 0.6582 0.19933 0.55087 0.0
C2302 C 0.68622 0.21596 0.55697 0.0
C2303 C 0.70457 0.20773 0.57536 0.0
H2304 H 0.64409 0.20568 0.53653 0.0
H2305 H 0.80472 0.11409 0.72147 0.0
H2306 H 0.89589 0.35476 0.329 0.0
H2307 H 0.92061 0.38992 0.36425 0.0
H2308 H 0.84081 0.40702 0.37931 0.0
H2309 H 0.81585 0.3716 0.34447 0.0
H2310 H 0.92846 0.44535 0.37587 0.0
H2311 H 0.83972 0.41701 0.4457 0.0
H2312 H 0.7988 0.37734 0.45324 0.0
H2313 H 0.84038 0.31928 0.41991 0.0
H2314 H 0.88167 0.35856 0.41251 0.0
H2315 H 0.9942 0.52744 0.49131 0.0
H2316 H 0.9536 0.50861 0.45815 0.0
H2317 H 0.94734 0.425 0.48195 0.0
H2318 H 0.98689 0.44363 0.51536 0.0
H2319 H 0.89722 0.42695 0.46492 0.0
H2320 H 0.99253 0.45832 0.43361 0.0
H2321 H 0.03653 0.49538 0.4282 0.0
H2322 H 0.9872 0.54167 0.38555 0.0
H2323 H 0.9429 0.50491 0.39084 0.0
C2324 C 0.88362 0.36621 0.33959 0.0
C2325 C 0.85382 0.36006 0.3341 0.0
C2326 C 0.89782 0.38642 0.35969 0.0
C2327 C 0.88252 0.40088 0.37467 0.0
C2328 C 0.85301 0.39585 0.36829 0.0
C2329 C 0.83878 0.37555 0.34833 0.0
C2330 C 0.89715 0.41948 0.39817 0.0
C2331 C 0.92145 0.44152 0.39531 0.0
C2332 C 0.88809 0.41455 0.42359 0.0
C2333 C 0.86356 0.39074 0.42825 0.0
C2334 C 0.84012 0.39577 0.44004 0.0
C2335 C 0.81688 0.37335 0.44429 0.0
C2336 C 0.81694 0.34582 0.43696 0.0
C2337 C 0.84031 0.34062 0.42548 0.0
C2338 C 0.86362 0.36295 0.42124 0.0
C2339 C 0.98332 0.50523 0.4902 0.0
C2340 C 0.99405 0.4869 0.50555 0.0
C2341 C 0.96027 0.49445 0.47106 0.0
C2342 C 0.94791 0.46528 0.46696 0.0
C2343 C 0.95658 0.44753 0.48443 0.0
C2344 C 0.97935 0.45822 0.50353 0.0
C2345 C 0.92901 0.45241 0.4428 0.0
C2346 C 0.90381 0.43136 0.44544 0.0
C2347 C 0.93768 0.4578 0.41727 0.0
C2348 C 0.96441 0.47912 0.41296 0.0
C2349 C 0.9911 0.47642 0.42309 0.0
C2350 C 1.01607 0.49737 0.42006 0.0
C2351 C 1.01464 0.52094 0.40666 0.0
C2352 C 0.98826 0.52346 0.39602 0.0
C2353 C 0.96322 0.50257 0.399 0.0
H2354 H 0.03397 0.53721 0.40444 0.0
H2355 H 0.79891 0.3285 0.44024 0.0
H2356 H 0.65127 0.74345 0.35475 0.0
H2357 H 0.62711 0.77172 0.38047 0.0
H2358 H 0.707 0.81159 0.42643 0.0
H2359 H 0.73039 0.78177 0.4021 0.0
H2360 H 0.66653 0.8138 0.45496 0.0
H2361 H 0.68601 0.83543 0.36618 0.0
H2362 H 0.68304 0.82545 0.31814 0.0
H2363 H 0.59185 0.81019 0.31354 0.0
H2364 H 0.59423 0.81963 0.36162 0.0
H2365 H 0.66123 0.95534 0.47054 0.0
H2366 H 0.67304 0.91288 0.45443 0.0
H2367 H 0.58401 0.87368 0.43037 0.0
H2368 H 0.57189 0.91595 0.44648 0.0
H2369 H 0.62351 0.86807 0.39254 0.0
H2370 H 0.60941 0.85589 0.48441 0.0
H2371 H 0.61895 0.87403 0.53091 0.0
H2372 H 0.70787 0.87861 0.52844 0.0
H2373 H 0.69899 0.86112 0.48173 0.0
C2374 C 0.66315 0.75726 0.37126 0.0
C2375 C 0.69247 0.76057 0.37671 0.0
C2376 C 0.64951 0.77361 0.38573 0.0
C2377 C 0.66548 0.79448 0.40475 0.0
C2378 C 0.69423 0.79578 0.41179 0.0
C2379 C 0.70761 0.77875 0.39792 0.0
C2380 C 0.65386 0.81757 0.41426 0.0
C2381 C 0.65706 0.82558 0.4413 0.0
C2382 C 0.64167 0.8332 0.39645 0.0
C2383 C 0.64026 0.8279 0.3675 0.0
C2384 C 0.66532 0.82981 0.35492 0.0
C2385 C 0.66374 0.82424 0.32771 0.0
C2386 C 0.63726 0.81711 0.31285 0.0
C2387 C 0.61233 0.81564 0.32512 0.0
C2388 C 0.61377 0.82108 0.35234 0.0
C2389 C 0.64418 0.9378 0.4616 0.0
C2390 C 0.61561 0.93894 0.45989 0.0
C2391 C 0.65095 0.91355 0.45257 0.0
C2392 C 0.6293 0.89017 0.44158 0.0
C2393 C 0.60092 0.89154 0.43897 0.0
C2394 C 0.59408 0.91567 0.44822 0.0
C2395 C 0.6363 0.86415 0.43302 0.0
C2396 C 0.63237 0.8558 0.40617 0.0
C2397 C 0.64859 0.84884 0.4509 0.0
C2398 C 0.65356 0.85741 0.47948 0.0
C2399 C 0.63102 0.86083 0.49375 0.0
C2400 C 0.63632 0.87111 0.52012 0.0
C2401 C 0.66405 0.87771 0.53254 0.0
C2402 C 0.68643 0.87364 0.51874 0.0
C2403 C 0.68127 0.86352 0.49232 0.0
H2404 H 0.66816 0.88581 0.55291 0.0
H2405 H 0.63604 0.81277 0.29183 0.0
H2406 H 0.28791 0.73773 0.36352 0.0
H2407 H 0.2594 0.70835 0.39395 0.0
H2408 H 0.1842 0.72966 0.36176 0.0
H2409 H 0.21328 0.76045 0.3321 0.0
H2410 H 0.17684 0.72326 0.40986 0.0
H2411 H 0.20102 0.66289 0.34671 0.0
H2412 H 0.23146 0.64378 0.31877 0.0
H2413 H 0.27798 0.62594 0.38746 0.0
H2414 H 0.24807 0.64532 0.41584 0.0
H2415 H 0.09207 0.60468 0.47662 0.0
H2416 H 0.1121 0.63761 0.4438 0.0
H2417 H 0.19693 0.63487 0.47159 0.0
H2418 H 0.17726 0.60229 0.50354 0.0
H2419 H 0.19301 0.6297 0.42091 0.0
H2420 H 0.16499 0.69391 0.48322 0.0
H2421 H 0.12856 0.70855 0.50702 0.0
H2422 H 0.08169 0.71351 0.43373 0.0
H2423 H 0.11764 0.69853 0.4095 0.0
C2424 C 0.26533 0.73639 0.3629 0.0
C2425 C 0.25311 0.75157 0.34493 0.0
C2426 C 0.24877 0.71917 0.38032 0.0
C2427 C 0.219 0.71557 0.38003 0.0
C2428 C 0.20688 0.73148 0.36265 0.0
C2429 C 0.22364 0.74921 0.3455 0.0
C2430 C 0.20092 0.69494 0.39742 0.0
C2431 C 0.18032 0.70272 0.41195 0.0
C2432 C 0.20446 0.6676 0.40036 0.0
C2433 C 0.22245 0.65579 0.38341 0.0
C2434 C 0.21785 0.65505 0.35587 0.0
C2435 C 0.235 0.64416 0.33995 0.0
C2436 C 0.25668 0.63371 0.35134 0.0
C2437 C 0.2612 0.63407 0.37867 0.0
C2438 C 0.24414 0.64499 0.39468 0.0
C2439 C 0.11496 0.61144 0.47596 0.0
C2440 C 0.13278 0.60047 0.493 0.0
C2441 C 0.12657 0.63038 0.45705 0.0
C2442 C 0.15641 0.63918 0.45482 0.0
C2443 C 0.17397 0.62861 0.4723 0.0
C2444 C 0.1625 0.60979 0.49086 0.0
C2445 C 0.17001 0.65848 0.43423 0.0
C2446 C 0.18964 0.65031 0.41887 0.0
C2447 C 0.16487 0.68496 0.43002 0.0
C2448 C 0.14389 0.69493 0.44458 0.0
C2449 C 0.14688 0.69808 0.4722 0.0
C2450 C 0.1263 0.7064 0.48575 0.0
C2451 C 0.10279 0.71188 0.47189 0.0
C2452 C 0.09988 0.70921 0.44443 0.0
C2453 C 0.12037 0.70084 0.43078 0.0
H2454 H 0.08683 0.71822 0.48242 0.0
H2455 H 0.26994 0.62529 0.33898 0.0
H2456 H 0.48114 0.2744 0.28354 0.0
H2457 H 0.51466 0.24522 0.28656 0.0
H2458 H 0.50899 0.24432 0.37028 0.0
H2459 H 0.47561 0.27263 0.36747 0.0
H2460 H 0.56232 0.24791 0.35902 0.0
H2461 H 0.46402 0.19289 0.32527 0.0
H2462 H 0.4234 0.18162 0.291 0.0
H2463 H 0.47814 0.16569 0.23362 0.0
H2464 H 0.51914 0.17719 0.26757 0.0
H2465 H 0.51569 0.11202 0.40766 0.0
H2466 H 0.50929 0.13778 0.36949 0.0
H2467 H 0.60042 0.16262 0.36453 0.0
H2468 H 0.60713 0.13782 0.40362 0.0
H2469 H 0.52031 0.15039 0.32031 0.0
H2470 H 0.61923 0.23493 0.36243 0.0
H2471 H 0.65457 0.24604 0.40135 0.0
H2472 H 0.59021 0.20348 0.44927 0.0
H2473 H 0.55463 0.19226 0.41059 0.0
C2474 C 0.4874 0.26829 0.30263 0.0
C2475 C 0.47554 0.27583 0.32526 0.0
C2476 C 0.50663 0.25171 0.3043 0.0
C2477 C 0.51419 0.24246 0.32861 0.0
C2478 C 0.50371 0.25142 0.35132 0.0
C2479 C 0.48461 0.26781 0.34969 0.0
C2480 C 0.53035 0.22111 0.33093 0.0
C2481 C 0.55376 0.22674 0.34994 0.0
C2482 C 0.5193 0.19353 0.31899 0.0
C2483 C 0.49462 0.18619 0.2988 0.0
C2484 C 0.46737 0.18708 0.30531 0.0
C2485 C 0.4443 0.18067 0.28596 0.0
C2486 C 0.44821 0.17303 0.26012 0.0
C2487 C 0.47517 0.17168 0.25362 0.0
C2488 C 0.49832 0.17815 0.27289 0.0
C2489 C 0.53436 0.12224 0.39806 0.0
C2490 C 0.56198 0.12406 0.40942 0.0
C2491 C 0.53065 0.13675 0.37595 0.0
C2492 C 0.55448 0.15303 0.36478 0.0
C2493 C 0.58179 0.15084 0.37333 0.0
C2494 C 0.58558 0.13682 0.39582 0.0
C2495 C 0.55089 0.17693 0.34978 0.0
C2496 C 0.53007 0.17182 0.32826 0.0
C2497 C 0.56365 0.20499 0.36004 0.0
C2498 C 0.58461 0.21211 0.38352 0.0
C2499 C 0.61279 0.22778 0.38124 0.0
C2500 C 0.63279 0.23417 0.40326 0.0
C2501 C 0.6247 0.22528 0.42774 0.0
C2502 C 0.59651 0.21022 0.43028 0.0
C2503 C 0.57643 0.20384 0.40832 0.0
H2504 H 0.64022 0.2302 0.44476 0.0
H2505 H 0.43034 0.16811 0.24516 0.0
H2506 H 0.64786 0.79078 0.66009 0.0
H2507 H 0.62844 0.8272 0.64241 0.0
H2508 H 0.70637 0.86105 0.60661 0.0
H2509 H 0.72567 0.82367 0.62304 0.0
H2510 H 0.68937 0.89819 0.6455 0.0
H2511 H 0.65302 0.83423 0.56985 0.0
H2512 H 0.62548 0.79082 0.54442 0.0
H2513 H 0.5476 0.80306 0.57011 0.0
H2514 H 0.5747 0.8465 0.59603 0.0
H2515 H 0.66043 1.00312 0.56929 0.0
H2516 H 0.67416 0.96784 0.5943 0.0
H2517 H 0.58591 0.93046 0.60669 0.0
H2518 H 0.57175 0.96518 0.58051 0.0
H2519 H 0.60581 0.89386 0.58233 0.0
H2520 H 0.63979 0.95576 0.6588 0.0
H2521 H 0.66575 0.99952 0.68487 0.0
H2522 H 0.74528 0.99033 0.66043 0.0
H2523 H 0.71978 0.94671 0.6339 0.0
C2524 C 0.66052 0.8051 0.6475 0.0
C2525 C 0.68856 0.80445 0.64329 0.0
C2526 C 0.64941 0.82611 0.63765 0.0
C2527 C 0.66621 0.84689 0.62365 0.0
C2528 C 0.69332 0.84524 0.6177 0.0
C2529 C 0.70428 0.82392 0.62714 0.0
C2530 C 0.65666 0.87186 0.61769 0.0
C2531 C 0.67128 0.89745 0.63148 0.0
C2532 C 0.63228 0.87024 0.60033 0.0
C2533 C 0.61602 0.84363 0.58518 0.0
C2534 C 0.63008 0.82756 0.57044 0.0
C2535 C 0.61451 0.80297 0.5558 0.0
C2536 C 0.58481 0.79413 0.55571 0.0
C2537 C 0.57062 0.80992 0.57022 0.0
C2538 C 0.58609 0.83458 0.58485 0.0
C2539 C 0.64395 0.98814 0.57816 0.0
C2540 C 0.61488 0.98635 0.57209 0.0
C2541 C 0.65191 0.9679 0.59262 0.0
C2542 C 0.63101 0.94614 0.60197 0.0
C2543 C 0.60234 0.9468 0.59923 0.0
C2544 C 0.5943 0.96682 0.58442 0.0
C2545 C 0.63851 0.92053 0.61014 0.0
C2546 C 0.6236 0.8947 0.59671 0.0
C2547 C 0.66233 0.9218 0.6282 0.0
C2548 C 0.67781 0.94802 0.64421 0.0
C2549 C 0.66279 0.96316 0.65882 0.0
C2550 C 0.67744 0.98793 0.67372 0.0
C2551 C 0.70714 0.99772 0.67427 0.0
C2552 C 0.72227 0.98272 0.65998 0.0
C2553 C 0.70773 0.95794 0.64504 0.0
H2554 H 0.71843 1.01691 0.68581 0.0
H2555 H 0.57279 0.77509 0.54434 0.0
H2556 H 0.60225 0.20405 0.30794 0.0
H2557 H 0.58459 0.15339 0.30864 0.0
H2558 H 0.63985 0.14224 0.24961 0.0
H2559 H 0.65918 0.19267 0.25004 0.0
H2560 H 0.57161 0.09551 0.28227 0.0
H2561 H 0.68012 0.12196 0.27283 0.0
H2562 H 0.72498 0.15918 0.27071 0.0
H2563 H 0.7071 0.20377 0.33859 0.0
H2564 H 0.66167 0.16722 0.34054 0.0
H2565 H 0.65643 0.05559 0.40906 0.0
H2566 H 0.65462 0.06162 0.36176 0.0
H2567 H 0.57241 0.07872 0.36465 0.0
H2568 H 0.5729 0.06958 0.41046 0.0
H2569 H 0.65943 0.10443 0.34142 0.0
H2570 H 0.53435 0.07883 0.30974 0.0
H2571 H 0.49165 0.03895 0.30978 0.0
H2572 H 0.54458 0.9833 0.32287 0.0
H2573 H 0.58772 0.02259 0.3218 0.0
C2574 C 0.60981 0.19089 0.29424 0.0
C2575 C 0.63355 0.20236 0.28039 0.0
C2576 C 0.59936 0.16182 0.29439 0.0
C2577 C 0.61225 0.14425 0.2803 0.0
C2578 C 0.63048 0.15561 0.26137 0.0
C2579 C 0.64147 0.1847 0.26162 0.0
C2580 C 0.61521 0.11874 0.29272 0.0
C2581 C 0.5908 0.09674 0.29496 0.0
C2582 C 0.64083 0.1197 0.30817 0.0
C2583 C 0.66754 0.14211 0.30665 0.0
C2584 C 0.68571 0.13986 0.28713 0.0
C2585 C 0.71112 0.16088 0.28589 0.0
C2586 C 0.71873 0.18399 0.30434 0.0
C2587 C 0.70097 0.18608 0.3241 0.0
C2588 C 0.67535 0.16529 0.32523 0.0
C2589 C 0.63786 0.06023 0.39937 0.0
C2590 C 0.61551 0.0637 0.41379 0.0
C2591 C 0.63671 0.06353 0.3723 0.0
C2592 C 0.61338 0.07072 0.35928 0.0
C2593 C 0.59047 0.07261 0.37362 0.0
C2594 C 0.59128 0.06853 0.40031 0.0
C2595 C 0.61504 0.08151 0.3326 0.0
C2596 C 0.64039 0.10127 0.32795 0.0
C2597 C 0.59052 0.0775 0.3144 0.0
C2598 C 0.56446 0.05382 0.31557 0.0
C2599 C 0.53701 0.05807 0.31225 0.0
C2600 C 0.51267 0.03551 0.31241 0.0
C2601 C 0.5154 1.00859 0.31622 0.0
C2602 C 0.5425 1.00417 0.31987 0.0
C2603 C 0.56693 0.02659 0.31943 0.0
H2604 H 0.49651 0.99121 0.31654 0.0
H2605 H 0.73846 0.2002 0.30342 0.0
H2606 H 0.92128 0.72197 0.38897 0.0
H2607 H 0.96581 0.70868 0.39442 0.0
H2608 H 0.92874 0.63431 0.34261 0.0
H2609 H 0.8837 0.6473 0.33762 0.0
H2610 H 0.93825 0.62238 0.39129 0.0
H2611 H 0.99518 0.67811 0.33306 0.0
H2612 H 1.01671 0.72002 0.31001 0.0
H2613 H 0.05845 0.76314 0.3831 0.0
H2614 H 0.03676 0.72175 0.40671 0.0
H2615 H 0.02955 0.57475 0.47218 0.0
H2616 H 1.01693 0.58884 0.42886 0.0
H2617 H 0.03489 0.67476 0.46065 0.0
H2618 H 0.0493 0.66089 0.50383 0.0
H2619 H 0.04101 0.67299 0.40852 0.0
H2620 H 0.97126 0.62846 0.46612 0.0
H2621 H 0.94648 0.59107 0.49291 0.0
H2622 H 0.92413 0.53308 0.42459 0.0
H2623 H 0.94963 0.56994 0.3975 0.0
C2624 C 0.92295 0.70324 0.37807 0.0
C2625 C 0.89886 0.68513 0.36363 0.0
C2626 C 0.94863 0.6959 0.3808 0.0
C2627 C 0.95059 0.67035 0.36909 0.0
C2628 C 0.92767 0.65413 0.35181 0.0
C2629 C 0.9019 0.66148 0.34908 0.0
C2630 C 0.97193 0.6572 0.38118 0.0
C2631 C 0.96096 0.63287 0.39412 0.0
C2632 C 1.00135 0.6715 0.38574 0.0
C2633 C 1.01427 0.6967 0.37169 0.0
C2634 C 1.00875 0.69659 0.34428 0.0
C2635 C 1.02103 0.72027 0.3311 0.0
C2636 C 0.03894 0.74422 0.34507 0.0
C2637 C 0.04461 0.74455 0.37228 0.0
C2638 C 0.03236 0.72095 0.38557 0.0
C2639 C 0.0315 0.59677 0.46972 0.0
C2640 C 0.03936 0.61668 0.49137 0.0
C2641 C 1.02458 0.60482 0.44494 0.0
C2642 C 1.02408 0.63265 0.44178 0.0
C2643 C 0.0349 0.6531 0.46274 0.0
C2644 C 0.04279 0.64516 0.48745 0.0
C2645 C 1.00681 0.63912 0.41911 0.0
C2646 C 1.01854 0.662 0.40455 0.0
C2647 C 0.97765 0.6242 0.41359 0.0
C2648 C 0.96285 0.60179 0.4299 0.0
C2649 C 0.96143 0.60762 0.45688 0.0
C2650 C 0.94726 0.58654 0.47211 0.0
C2651 C 0.9339 0.55968 0.46047 0.0
C2652 C 0.93471 0.55385 0.43358 0.0
C2653 C 0.94912 0.57478 0.4183 0.0
H2654 H 0.92282 0.5434 0.47226 0.0
H2655 H 0.04844 0.76252 0.33482 0.0
H2656 H 0.37422 0.85589 0.35058 0.0
H2657 H 0.39623 0.89982 0.37682 0.0
H2658 H 0.3243 0.93114 0.35332 0.0
H2659 H 0.30211 0.88707 0.32646 0.0
H2660 H 0.41091 0.95508 0.35779 0.0
H2661 H 0.32014 0.97298 0.41267 0.0
H2662 H 0.27384 0.94766 0.42765 0.0
H2663 H 0.30273 0.87334 0.43342 0.0
H2664 H 0.34918 0.89826 0.41861 0.0
H2665 H 0.49427 0.05496 0.44977 0.0
H2666 H 0.44733 0.04196 0.42458 0.0
H2667 H 0.42569 0.96332 0.46108 0.0
H2668 H 0.47161 0.97645 0.48682 0.0
H2669 H 0.37698 0.97847 0.44284 0.0
H2670 H 0.46863 0.96486 0.40508 0.0
H2671 H 0.51829 0.99 0.39807 0.0
H2672 H 0.48865 0.05462 0.36171 0.0
H2673 H 0.43881 0.02951 0.36807 0.0
C2674 C 0.36293 0.87199 0.35103 0.0
C2675 C 0.33645 0.86801 0.33638 0.0
C2676 C 0.37564 0.89717 0.3659 0.0
C2677 C 0.36199 0.91876 0.36679 0.0
C2678 C 0.33521 0.91475 0.35273 0.0
C2679 C 0.32261 0.88959 0.33745 0.0
C2680 C 0.37636 0.94519 0.3827 0.0
C2681 C 0.40306 0.96079 0.37598 0.0
C2682 C 0.36603 0.95289 0.40624 0.0
C2683 C 0.33795 0.93739 0.41431 0.0
C2684 C 0.31654 0.95122 0.41708 0.0
C2685 C 0.29032 0.93697 0.4256 0.0
C2686 C 0.28544 0.90898 0.43163 0.0
C2687 C 0.30659 0.89504 0.4288 0.0
C2688 C 0.33281 0.90918 0.42025 0.0
C2689 C 0.47904 0.03543 0.45322 0.0
C2690 C 0.48704 1.01626 0.46956 0.0
C2691 C 0.45219 0.02802 0.4388 0.0
C2692 C 0.43342 1.00124 0.44028 0.0
C2693 C 0.43988 0.98397 0.45937 0.0
C2694 C 0.46644 0.99139 0.47385 0.0
C2695 C 0.41179 0.98774 0.41825 0.0
C2696 C 0.38389 0.97419 0.42377 0.0
C2697 C 0.42083 0.98196 0.39344 0.0
C2698 C 0.45016 0.99529 0.38685 0.0
C2699 C 0.47275 0.98416 0.39515 0.0
C2700 C 0.50088 0.99845 0.39141 0.0
C2701 C 0.5066 0.02389 0.37946 0.0
C2702 C 0.48416 0.03487 0.37087 0.0
C2703 C 0.45597 0.02052 0.37434 0.0
H2704 H 0.5284 0.03504 0.37678 0.0
H2705 H 0.26526 0.89808 0.43849 0.0
H2706 H 0.21682 0.32451 0.31179 0.0
H2707 H 0.19487 0.34978 0.34259 0.0
H2708 H 0.27828 0.39519 0.37848 0.0
H2709 H 0.30026 0.36888 0.34833 0.0
H2710 H 0.24762 0.38698 0.41617 0.0
H2711 H 0.22856 0.42353 0.33392 0.0
H2712 H 0.21102 0.42145 0.28716 0.0
H2713 H 0.12604 0.38021 0.30507 0.0
H2714 H 0.14315 0.38174 0.35191 0.0
H2715 H 0.19438 0.4883 0.48962 0.0
H2716 H 0.21826 0.46524 0.45821 0.0
H2717 H 0.13674 0.41098 0.42671 0.0
H2718 H 0.11291 0.43387 0.45787 0.0
H2719 H 0.16737 0.42536 0.3867 0.0
H2720 H 0.1875 0.38906 0.46924 0.0
H2721 H 0.20571 0.39189 0.51588 0.0
H2722 H 0.28986 0.43466 0.49694 0.0
H2723 H 0.27205 0.43239 0.4502 0.0
C2724 C 0.23069 0.34002 0.32604 0.0
C2725 C 0.26065 0.3445 0.32696 0.0
C2726 C 0.21795 0.35484 0.34382 0.0
C2727 C 0.23449 0.37542 0.36312 0.0
C2728 C 0.26447 0.37979 0.36411 0.0
C2729 C 0.27722 0.36467 0.34654 0.0
C2730 C 0.22071 0.39181 0.38233 0.0
C2731 C 0.2304 0.39569 0.40938 0.0
C2732 C 0.19762 0.40319 0.37447 0.0
C2733 C 0.1872 0.40251 0.34638 0.0
C2734 C 0.20616 0.41388 0.32786 0.0
C2735 C 0.19629 0.41281 0.30134 0.0
C2736 C 0.16745 0.40063 0.29313 0.0
C2737 C 0.14839 0.3896 0.31145 0.0
C2738 C 0.15815 0.39059 0.33799 0.0
C2739 C 0.1814 0.47153 0.47599 0.0
C2740 C 0.15138 0.46326 0.47676 0.0
C2741 C 0.19523 0.45805 0.45794 0.0
C2742 C 0.1797 0.43572 0.43973 0.0
C2743 C 0.14971 0.42791 0.44018 0.0
C2744 C 0.13594 0.44117 0.45832 0.0
C2745 C 0.19431 0.42046 0.42041 0.0
C2746 C 0.18472 0.41676 0.39337 0.0
C2747 C 0.21762 0.40948 0.42824 0.0
C2748 C 0.22838 0.41082 0.45628 0.0
C2749 C 0.20984 0.39926 0.47505 0.0
C2750 C 0.2201 0.40073 0.5015 0.0
C2751 C 0.24891 0.41352 0.50938 0.0
C2752 C 0.26754 0.4248 0.49081 0.0
C2753 C 0.25738 0.42341 0.46434 0.0
H2754 H 0.25681 0.41463 0.52987 0.0
H2755 H 0.15986 0.39978 0.27259 0.0
H2756 H 0.48641 0.31476 0.69208 0.0
H2757 H 0.5152 0.29632 0.6622 0.0
H2758 H 0.44148 0.22799 0.63484 0.0
H2759 H 0.41274 0.24622 0.66445 0.0
H2760 H 0.48818 0.20979 0.64361 0.0
H2761 H 0.46302 0.28611 0.60007 0.0
H2762 H 0.46199 0.33533 0.59669 0.0
H2763 H 0.55372 0.36196 0.60488 0.0
H2764 H 0.55526 0.31288 0.60865 0.0
H2765 H 0.50202 0.15767 0.52014 0.0
H2766 H 0.48804 0.18745 0.55292 0.0
H2767 H 0.57632 0.23276 0.57308 0.0
H2768 H 0.59078 0.20278 0.54029 0.0
H2769 H 0.53231 0.26609 0.57244 0.0
H2770 H 0.55659 0.18785 0.61029 0.0
H2771 H 0.55627 0.13812 0.61217 0.0
H2772 H 0.46514 0.11479 0.61407 0.0
H2773 H 0.46485 0.16436 0.61172 0.0
C2774 C 0.47641 0.29581 0.67966 0.0
C2775 C 0.44735 0.28189 0.68058 0.0
C2776 C 0.49285 0.28532 0.66266 0.0
C2777 C 0.48038 0.26092 0.64622 0.0
C2778 C 0.45154 0.24678 0.64748 0.0
C2779 C 0.43517 0.25716 0.66447 0.0
C2780 C 0.49689 0.25009 0.62716 0.0
C2781 C 0.49783 0.22211 0.62807 0.0
C2782 C 0.5102 0.26647 0.60736 0.0
C2783 C 0.50925 0.2959 0.60496 0.0
C2784 C 0.48296 0.30249 0.60135 0.0
C2785 C 0.48228 0.33035 0.59933 0.0
C2786 C 0.50777 0.35177 0.60065 0.0
C2787 C 0.53399 0.34536 0.60391 0.0
C2788 C 0.53478 0.31753 0.60598 0.0
C2789 C 0.51852 0.1743 0.53109 0.0
C2790 C 0.54757 0.17751 0.52793 0.0
C2791 C 0.51045 0.19131 0.54979 0.0
C2792 C 0.53123 0.21186 0.56559 0.0
C2793 C 0.56007 0.21686 0.56104 0.0
C2794 C 0.56823 0.19972 0.54231 0.0
C2795 C 0.52263 0.22564 0.58852 0.0
C2796 C 0.52322 0.25405 0.58836 0.0
C2797 C 0.51062 0.20968 0.60904 0.0
C2798 C 0.5107 0.17983 0.61065 0.0
C2799 C 0.53645 0.1721 0.61087 0.0
C2800 C 0.53638 0.14394 0.61206 0.0
C2801 C 0.5107 0.12332 0.61322 0.0
C2802 C 0.48502 0.1308 0.61317 0.0
C2803 C 0.48497 0.15893 0.61194 0.0
H2804 H 0.51071 0.10156 0.61427 0.0
H2805 H 0.50721 0.37333 0.59908 0.0
H2806 H 0.82893 0.35365 0.70649 0.0
H2807 H 0.8663 0.37904 0.68051 0.0
H2808 H 0.93087 0.36618 0.73714 0.0
H2809 H 0.89359 0.34106 0.76345 0.0
H2810 H 0.94742 0.4183 0.72218 0.0
H2811 H 0.91403 0.32784 0.67703 0.0
H2812 H 0.87855 0.28585 0.65575 0.0
H2813 H 0.85172 0.33604 0.59818 0.0
H2814 H 0.88676 0.37843 0.61935 0.0
H2815 H 0.05124 0.4788 0.63148 0.0
H2816 H 1.02444 0.44434 0.6602 0.0
H2817 H 0.9456 0.44358 0.61542 0.0
H2818 H 0.97178 0.47669 0.58695 0.0
H2819 H 0.94273 0.39283 0.6267 0.0
H2820 H 0.97287 0.48419 0.67659 0.0
H2821 H 1.00957 0.52535 0.6977 0.0
H2822 H 0.04406 0.47195 0.74641 0.0
H2823 H 1.00783 0.43033 0.72521 0.0
C2824 C 0.85105 0.35613 0.71347 0.0
C2825 C 0.85804 0.34506 0.73713 0.0
C2826 C 0.87252 0.37063 0.69847 0.0
C2827 C 0.90165 0.37436 0.70652 0.0
C2828 C 0.9087 0.36367 0.73033 0.0
C2829 C 0.88723 0.34916 0.74536 0.0
C2830 C 0.92454 0.38932 0.69004 0.0
C2831 C 0.94659 0.4124 0.70138 0.0
C2832 C 0.92388 0.38183 0.66284 0.0
C2833 C 0.9029 0.35636 0.64991 0.0
C2834 C 0.90044 0.32996 0.65993 0.0
C2835 C 0.88042 0.30608 0.64788 0.0
C2836 C 0.86286 0.30828 0.62566 0.0
C2837 C 0.86533 0.33437 0.61541 0.0
C2838 C 0.88529 0.35833 0.62741 0.0
C2839 C 0.02827 0.47083 0.62761 0.0
C2840 C 1.01372 0.48086 0.60705 0.0
C2841 C 1.01286 0.45131 0.64417 0.0
C2842 C 0.9827 0.44146 0.64037 0.0
C2843 C 0.96866 0.45063 0.61906 0.0
C2844 C 0.98382 0.46987 0.60278 0.0
C2845 C 0.96489 0.42254 0.65855 0.0
C2846 C 0.94377 0.39855 0.64756 0.0
C2847 C 0.96654 0.42913 0.68604 0.0
C2848 C 0.98787 0.45416 0.69913 0.0
C2849 C 0.98837 0.48122 0.69172 0.0
C2850 C 1.00909 0.50464 0.70369 0.0
C2851 C 0.02918 0.5013 0.72335 0.0
C2852 C 0.02852 0.47451 0.73114 0.0
C2853 C 1.00792 0.45099 0.71915 0.0
H2854 H 0.04521 0.51948 0.73257 0.0
H2855 H 0.84736 0.28977 0.61636 0.0
H2856 H 0.23733 0.68778 0.78798 0.0
H2857 H 0.20051 0.64357 0.77512 0.0
H2858 H 0.15235 0.68903 0.72879 0.0
H2859 H 0.18769 0.73304 0.74364 0.0
H2860 H 0.11653 0.64831 0.74535 0.0
H2861 H 0.20897 0.6552 0.70623 0.0
H2862 H 0.26001 0.65615 0.70932 0.0
H2863 H 0.24123 0.57941 0.74835 0.0
H2864 H 0.19013 0.57822 0.74571 0.0
H2865 H 0.10588 0.62361 0.61539 0.0
H2866 H 0.10518 0.6308 0.6623 0.0
H2867 H 0.11121 0.54644 0.67205 0.0
H2868 H 0.11196 0.53898 0.62459 0.0
H2869 H 0.15636 0.58283 0.69388 0.0
H2870 H 0.05962 0.57099 0.70306 0.0
H2871 H 1.00993 0.57296 0.69285 0.0
H2872 H 0.03694 0.66288 0.70247 0.0
H2873 H 0.08678 0.66176 0.71189 0.0
C2874 C 0.21859 0.68808 0.7753 0.0
C2875 C 0.21533 0.71341 0.76625 0.0
C2876 C 0.1976 0.66293 0.76799 0.0
C2877 C 0.17387 0.66272 0.75045 0.0
C2878 C 0.17028 0.68843 0.7424 0.0
C2879 C 0.19063 0.71357 0.75055 0.0
C2880 C 0.15453 0.6362 0.73755 0.0
C2881 C 0.12507 0.63384 0.73406 0.0
C2882 C 0.16527 0.61594 0.72431 0.0
C2883 C 0.19595 0.61692 0.72625 0.0
C2884 C 0.21582 0.63867 0.71565 0.0
C2885 C 0.24472 0.63924 0.7173 0.0
C2886 C 0.25388 0.61794 0.72916 0.0
C2887 C 0.23414 0.59598 0.73932 0.0
C2888 C 0.20523 0.59537 0.73779 0.0
C2889 C 0.10585 0.6061 0.62725 0.0
C2890 C 0.10961 0.58095 0.61623 0.0
C2891 C 0.10505 0.61012 0.65425 0.0
C2892 C 0.10816 0.58915 0.67084 0.0
C2893 C 0.10871 0.56288 0.65962 0.0
C2894 C 0.10945 0.55879 0.63249 0.0
C2895 C 0.11927 0.59789 0.69858 0.0
C2896 C 0.14715 0.59637 0.70571 0.0
C2897 C 0.10727 0.6153 0.71424 0.0
C2898 C 0.07712 0.61622 0.70851 0.0
C2899 C 0.05505 0.59123 0.7029 0.0
C2900 C 1.02683 0.59218 0.69721 0.0
C2901 C 1.02029 0.61796 0.69719 0.0
C2902 C 0.04199 0.64289 0.70265 0.0
C2903 C 0.07026 0.64211 0.70821 0.0
H2904 H 0.99841 0.61859 0.69287 0.0
H2905 H 0.27626 0.6184 0.73039 0.0
loop_
_geom_bond_atom_site_label_1
_geom_bond_atom_site_label_2
_geom_bond_distance
_geom_bond_site_symmetry_2
_ccdc_geom_bond_type
Dy0 O3 2.307 . S
Dy0 O5 2.395 . S
Dy0 O6 2.379 . S
Dy0 O8 2.339 . S
Dy0 O10 2.298 . S
Dy0 O14 2.275 . S
Dy0 C22 2.738 . S
Dy1 O4 2.298 . S
Dy1 O7 2.275 . S
Dy1 O9 2.307 . S
Dy1 O11 2.395 . S
Dy1 O12 2.379 . S
Dy1 O15 2.339 . S
Dy1 C31 2.738 . S
C2 O14 1.254 . S
C2 O15 1.257 . S
O3 Dy0 2.307 . S
O3 C13 1.266 . S
O4 Dy1 2.298 . S
O4 C13 1.236 . S
O5 Dy0 2.395 . S
O5 C22 1.255 . S
O6 Dy0 2.379 . S
O6 C22 1.249 . S
O7 Dy1 2.275 . S
O7 C23 1.254 . S
O8 Dy0 2.339 . S
O8 C23 1.257 . S
O9 Dy1 2.307 . S
O9 C24 1.266 . S
O10 Dy0 2.298 . S
O10 C24 1.236 . S
O11 Dy1 2.395 . S
O11 C31 1.255 . S
O12 Dy1 2.379 . S
O12 C31 1.249 . S
C13 O3 1.266 . S
C13 O4 1.236 . S
O14 Dy0 2.275 . S
O14 C2 1.254 . S
O15 Dy1 2.339 . S
O15 C2 1.257 . S
C16 C19 1.344 . S
C16 C20 1.328 . S
C16 C22 1.516 . S
C17 C18 1.304 . S
C17 C21 1.323 . S
C18 C17 1.304 . S
C18 C19 1.371 . S
C18 H32 0.930 . S
C19 C16 1.344 . S
C19 C18 1.371 . S
C19 H33 0.931 . S
C20 C16 1.328 . S
C20 C21 1.433 . S
C20 H34 0.931 . S
C21 C17 1.323 . S
C21 C20 1.433 . S
C21 H35 0.933 . S
C22 Dy0 2.738 . S
C22 O5 1.255 . S
C22 O6 1.249 . S
C22 C16 1.516 . S
C23 O7 1.254 . S
C23 O8 1.257 . S
C24 O9 1.266 . S
C24 O10 1.236 . S
C25 C28 1.344 . S
C25 C29 1.328 . S
C25 C31 1.516 . S
C26 C27 1.304 . S
C26 C30 1.323 . S
C27 C26 1.304 . S
C27 C28 1.371 . S
C27 H36 0.930 . S
C28 C25 1.344 . S
C28 C27 1.371 . S
C28 H37 0.931 . S
C29 C25 1.328 . S
C29 C30 1.433 . S
C29 H38 0.931 . S
C30 C26 1.323 . S
C30 C29 1.433 . S
C30 H39 0.933 . S
C31 Dy1 2.738 . S
C31 O11 1.255 . S
C31 O12 1.249 . S
C31 C25 1.516 . S
H32 C18 0.930 . S
H33 C19 0.931 . S
H34 C20 0.931 . S
H35 C21 0.933 . S
H36 C27 0.930 . S
H37 C28 0.931 . S
H38 C29 0.931 . S
H39 C30 0.933 . S
Dy40 O43 2.307 . S
Dy40 O45 2.395 . S
Dy40 O46 2.379 . S
Dy40 O48 2.339 . S
Dy40 O50 2.298 . S
Dy40 O54 2.275 . S
Dy40 C62 2.738 . S
Dy41 O44 2.298 . S
Dy41 O47 2.275 . S
Dy41 O49 2.307 . S
Dy41 O51 2.395 . S
Dy41 O52 2.379 . S
Dy41 O55 2.339 . S
Dy41 C71 2.738 . S
C42 O54 1.254 . S
C42 O55 1.257 . S
O43 Dy40 2.307 . S
O43 C53 1.266 . S
O44 Dy41 2.298 . S
O44 C53 1.236 . S
O45 Dy40 2.395 . S
O45 C62 1.255 . S
O46 Dy40 2.379 . S
O46 C62 1.249 . S
O47 Dy41 2.275 . S
O47 C63 1.254 . S
O48 Dy40 2.339 . S
O48 C63 1.257 . S
O49 Dy41 2.307 . S
O49 C64 1.266 . S
O50 Dy40 2.298 . S
O50 C64 1.236 . S
O51 Dy41 2.395 . S
O51 C71 1.255 . S
O52 Dy41 2.379 . S
O52 C71 1.249 . S
C53 O43 1.266 . S
C53 O44 1.236 . S
O54 Dy40 2.275 . S
O54 C42 1.254 . S
O55 Dy41 2.339 . S
O55 C42 1.257 . S
C56 C59 1.344 . S
C56 C60 1.328 . S
C56 C62 1.516 . S
C57 C58 1.304 . S
C57 C61 1.323 . S
C58 C57 1.304 . S
C58 C59 1.371 . S
C58 H72 0.930 . S
C59 C56 1.344 . S
C59 C58 1.371 . S
C59 H73 0.931 . S
C60 C56 1.328 . S
C60 C61 1.433 . S
C60 H74 0.931 . S
C61 C57 1.323 . S
C61 C60 1.433 . S
C61 H75 0.933 . S
C62 Dy40 2.738 . S
C62 O45 1.255 . S
C62 O46 1.249 . S
C62 C56 1.516 . S
C63 O47 1.254 . S
C63 O48 1.257 . S
C64 O49 1.266 . S
C64 O50 1.236 . S
C65 C68 1.344 . S
C65 C69 1.328 . S
C65 C71 1.516 . S
C66 C67 1.304 . S
C66 C70 1.323 . S
C67 C66 1.304 . S
C67 C68 1.371 . S
C67 H76 0.930 . S
C68 C65 1.344 . S
C68 C67 1.371 . S
C68 H77 0.931 . S
C69 C65 1.328 . S
C69 C70 1.433 . S
C69 H78 0.931 . S
C70 C66 1.323 . S
C70 C69 1.433 . S
C70 H79 0.933 . S
C71 Dy41 2.738 . S
C71 O51 1.255 . S
C71 O52 1.249 . S
C71 C65 1.516 . S
H72 C58 0.930 . S
H73 C59 0.931 . S
H74 C60 0.931 . S
H75 C61 0.933 . S
H76 C67 0.930 . S
H77 C68 0.931 . S
H78 C69 0.931 . S
H79 C70 0.933 . S
Dy80 O83 2.307 . S
Dy80 O85 2.395 . S
Dy80 O86 2.379 . S
Dy80 O88 2.339 . S
Dy80 O90 2.298 . S
Dy80 O94 2.275 . S
Dy80 C102 2.738 . S
Dy81 O84 2.298 . S
Dy81 O87 2.275 . S
Dy81 O89 2.307 . S
Dy81 O91 2.395 . S
Dy81 O92 2.379 . S
Dy81 O95 2.339 . S
Dy81 C111 2.738 . S
C82 O94 1.254 . S
C82 O95 1.257 . S
O83 Dy80 2.307 . S
O83 C93 1.266 . S
O84 Dy81 2.298 . S
O84 C93 1.236 . S
O85 Dy80 2.395 . S
O85 C102 1.255 . S
O86 Dy80 2.379 . S
O86 C102 1.249 . S
O87 Dy81 2.275 . S
O87 C103 1.254 . S
O88 Dy80 2.339 . S
O88 C103 1.257 . S
O89 Dy81 2.307 . S
O89 C104 1.266 . S
O90 Dy80 2.298 . S
O90 C104 1.236 . S
O91 Dy81 2.395 . S
O91 C111 1.255 . S
O92 Dy81 2.379 . S
O92 C111 1.249 . S
C93 O83 1.266 . S
C93 O84 1.236 . S
O94 Dy80 2.275 . S
O94 C82 1.254 . S
O95 Dy81 2.339 . S
O95 C82 1.257 . S
C96 C99 1.344 . S
C96 C100 1.328 . S
C96 C102 1.516 . S
C97 C98 1.304 . S
C97 C101 1.323 . S
C98 C97 1.304 . S
C98 C99 1.371 . S
C98 H112 0.930 . S
C99 C96 1.344 . S
C99 C98 1.371 . S
C99 H113 0.931 . S
C100 C96 1.328 . S
C100 C101 1.433 . S
C100 H114 0.931 . S
C101 C97 1.323 . S
C101 C100 1.433 . S
C101 H115 0.933 . S
C102 Dy80 2.738 . S
C102 O85 1.255 . S
C102 O86 1.249 . S
C102 C96 1.516 . S
C103 O87 1.254 . S
C103 O88 1.257 . S
C104 O89 1.266 . S
C104 O90 1.236 . S
C105 C108 1.344 . S
C105 C109 1.328 . S
C105 C111 1.516 . S
C106 C107 1.304 . S
C106 C110 1.323 . S
C107 C106 1.304 . S
C107 C108 1.371 . S
C107 H116 0.930 . S
C108 C105 1.344 . S
C108 C107 1.371 . S
C108 H117 0.931 . S
C109 C105 1.328 . S
C109 C110 1.433 . S
C109 H118 0.931 . S
C110 C106 1.323 . S
C110 C109 1.433 . S
C110 H119 0.933 . S
C111 Dy81 2.738 . S
C111 O91 1.255 . S
C111 O92 1.249 . S
C111 C105 1.516 . S
H112 C98 0.930 . S
H113 C99 0.931 . S
H114 C100 0.931 . S
H115 C101 0.933 . S
H116 C107 0.930 . S
H117 C108 0.931 . S
H118 C109 0.931 . S
H119 C110 0.933 . S
Dy120 O123 2.307 . S
Dy120 O125 2.395 . S
Dy120 O126 2.379 . S
Dy120 O128 2.339 . S
Dy120 O130 2.298 . S
Dy120 O134 2.275 . S
Dy120 C142 2.738 . S
Dy121 O124 2.298 . S
Dy121 O127 2.275 . S
Dy121 O129 2.307 . S
Dy121 O131 2.395 . S
Dy121 O132 2.379 . S
Dy121 O135 2.339 . S
Dy121 C151 2.738 . S
C122 O134 1.254 . S
C122 O135 1.257 . S
O123 Dy120 2.307 . S
O123 C133 1.266 . S
O124 Dy121 2.298 . S
O124 C133 1.236 . S
O125 Dy120 2.395 . S
O125 C142 1.255 . S
O126 Dy120 2.379 . S
O126 C142 1.249 . S
O127 Dy121 2.275 . S
O127 C143 1.254 . S
O128 Dy120 2.339 . S
O128 C143 1.257 . S
O129 Dy121 2.307 . S
O129 C144 1.266 . S
O130 Dy120 2.298 . S
O130 C144 1.236 . S
O131 Dy121 2.395 . S
O131 C151 1.255 . S
O132 Dy121 2.379 . S
O132 C151 1.249 . S
C133 O123 1.266 . S
C133 O124 1.236 . S
O134 Dy120 2.275 . S
O134 C122 1.254 . S
O135 Dy121 2.339 . S
O135 C122 1.257 . S
C136 C139 1.344 . S
C136 C140 1.328 . S
C136 C142 1.516 . S
C137 C138 1.304 . S
C137 C141 1.323 . S
C138 C137 1.304 . S
C138 C139 1.371 . S
C138 H152 0.930 . S
C139 C136 1.344 . S
C139 C138 1.371 . S
C139 H153 0.931 . S
C140 C136 1.328 . S
C140 C141 1.433 . S
C140 H154 0.931 . S
C141 C137 1.323 . S
C141 C140 1.433 . S
C141 H155 0.933 . S
C142 Dy120 2.738 . S
C142 O125 1.255 . S
C142 O126 1.249 . S
C142 C136 1.516 . S
C143 O127 1.254 . S
C143 O128 1.257 . S
C144 O129 1.266 . S
C144 O130 1.236 . S
C145 C148 1.344 . S
C145 C149 1.328 . S
C145 C151 1.516 . S
C146 C147 1.304 . S
C146 C150 1.323 . S
C147 C146 1.304 . S
C147 C148 1.371 . S
C147 H156 0.930 . S
C148 C145 1.344 . S
C148 C147 1.371 . S
C148 H157 0.931 . S
C149 C145 1.328 . S
C149 C150 1.433 . S
C149 H158 0.931 . S
C150 C146 1.323 . S
C150 C149 1.433 . S
C150 H159 0.933 . S
C151 Dy121 2.738 . S
C151 O131 1.255 . S
C151 O132 1.249 . S
C151 C145 1.516 . S
H152 C138 0.930 . S
H153 C139 0.931 . S
H154 C140 0.931 . S
H155 C141 0.933 . S
H156 C147 0.930 . S
H157 C148 0.931 . S
H158 C149 0.931 . S
H159 C150 0.933 . S
Dy160 O163 2.307 . S
Dy160 O165 2.395 . S
Dy160 O166 2.379 . S
Dy160 O168 2.339 . S
Dy160 O170 2.298 . S
Dy160 O174 2.275 . S
Dy160 C182 2.738 . S
Dy161 O164 2.298 . S
Dy161 O167 2.275 . S
Dy161 O169 2.307 . S
Dy161 O171 2.395 . S
Dy161 O172 2.379 . S
Dy161 O175 2.339 . S
Dy161 C191 2.738 . S
C162 O174 1.254 . S
C162 O175 1.257 . S
O163 Dy160 2.307 . S
O163 C173 1.266 . S
O164 Dy161 2.298 . S
O164 C173 1.236 . S
O165 Dy160 2.395 . S
O165 C182 1.255 . S
O166 Dy160 2.379 . S
O166 C182 1.249 . S
O167 Dy161 2.275 . S
O167 C183 1.254 . S
O168 Dy160 2.339 . S
O168 C183 1.257 . S
O169 Dy161 2.307 . S
O169 C184 1.266 . S
O170 Dy160 2.298 . S
O170 C184 1.236 . S
O171 Dy161 2.395 . S
O171 C191 1.255 . S
O172 Dy161 2.379 . S
O172 C191 1.249 . S
C173 O163 1.266 . S
C173 O164 1.236 . S
O174 Dy160 2.275 . S
O174 C162 1.254 . S
O175 Dy161 2.339 . S
O175 C162 1.257 . S
C176 C179 1.344 . S
C176 C180 1.328 . S
C176 C182 1.516 . S
C177 C178 1.304 . S
C177 C181 1.323 . S
C178 C177 1.304 . S
C178 C179 1.371 . S
C178 H192 0.930 . S
C179 C176 1.344 . S
C179 C178 1.371 . S
C179 H193 0.931 . S
C180 C176 1.328 . S
C180 C181 1.433 . S
C180 H194 0.931 . S
C181 C177 1.323 . S
C181 C180 1.433 . S
C181 H195 0.933 . S
C182 Dy160 2.738 . S
C182 O165 1.255 . S
C182 O166 1.249 . S
C182 C176 1.516 . S
C183 O167 1.254 . S
C183 O168 1.257 . S
C184 O169 1.266 . S
C184 O170 1.236 . S
C185 C188 1.344 . S
C185 C189 1.328 . S
C185 C191 1.516 . S
C186 C187 1.304 . S
C186 C190 1.323 . S
C187 C186 1.304 . S
C187 C188 1.371 . S
C187 H196 0.930 . S
C188 C185 1.344 . S
C188 C187 1.371 . S
C188 H197 0.931 . S
C189 C185 1.328 . S
C189 C190 1.433 . S
C189 H198 0.931 . S
C190 C186 1.323 . S
C190 C189 1.433 . S
C190 H199 0.933 . S
C191 Dy161 2.738 . S
C191 O171 1.255 . S
C191 O172 1.249 . S
C191 C185 1.516 . S
H192 C178 0.930 . S
H193 C179 0.931 . S
H194 C180 0.931 . S
H195 C181 0.933 . S
H196 C187 0.930 . S
H197 C188 0.931 . S
H198 C189 0.931 . S
H199 C190 0.933 . S
Dy200 O203 2.307 . S
Dy200 O205 2.395 . S
Dy200 O206 2.379 . S
Dy200 O208 2.339 . S
Dy200 O210 2.298 . S
Dy200 O214 2.275 . S
Dy200 C222 2.738 . S
Dy201 O204 2.298 . S
Dy201 O207 2.275 . S
Dy201 O209 2.307 . S
Dy201 O211 2.395 . S
Dy201 O212 2.379 . S
Dy201 O215 2.339 . S
Dy201 C231 2.738 . S
C202 O214 1.254 . S
C202 O215 1.257 . S
O203 Dy200 2.307 . S
O203 C213 1.266 . S
O204 Dy201 2.298 . S
O204 C213 1.236 . S
O205 Dy200 2.395 . S
O205 C222 1.255 . S
O206 Dy200 2.379 . S
O206 C222 1.249 . S
O207 Dy201 2.275 . S
O207 C223 1.254 . S
O208 Dy200 2.339 . S
O208 C223 1.257 . S
O209 Dy201 2.307 . S
O209 C224 1.266 . S
O210 Dy200 2.298 . S
O210 C224 1.236 . S
O211 Dy201 2.395 . S
O211 C231 1.255 . S
O212 Dy201 2.379 . S
O212 C231 1.249 . S
C213 O203 1.266 . S
C213 O204 1.236 . S
O214 Dy200 2.275 . S
O214 C202 1.254 . S
O215 Dy201 2.339 . S
O215 C202 1.257 . S
C216 C219 1.344 . S
C216 C220 1.328 . S
C216 C222 1.516 . S
C217 C218 1.304 . S
C217 C221 1.323 . S
C218 C217 1.304 . S
C218 C219 1.371 . S
C218 H232 0.930 . S
C219 C216 1.344 . S
C219 C218 1.371 . S
C219 H233 0.931 . S
C220 C216 1.328 . S
C220 C221 1.433 . S
C220 H234 0.931 . S
C221 C217 1.323 . S
C221 C220 1.433 . S
C221 H235 0.933 . S
C222 Dy200 2.738 . S
C222 O205 1.255 . S
C222 O206 1.249 . S
C222 C216 1.516 . S
C223 O207 1.254 . S
C223 O208 1.257 . S
C224 O209 1.266 . S
C224 O210 1.236 . S
C225 C228 1.344 . S
C225 C229 1.328 . S
C225 C231 1.516 . S
C226 C227 1.304 . S
C226 C230 1.323 . S
C227 C226 1.304 . S
C227 C228 1.371 . S
C227 H236 0.930 . S
C228 C225 1.344 . S
C228 C227 1.371 . S
C228 H237 0.931 . S
C229 C225 1.328 . S
C229 C230 1.433 . S
C229 H238 0.931 . S
C230 C226 1.323 . S
C230 C229 1.433 . S
C230 H239 0.933 . S
C231 Dy201 2.738 . S
C231 O211 1.255 . S
C231 O212 1.249 . S
C231 C225 1.516 . S
H232 C218 0.930 . S
H233 C219 0.931 . S
H234 C220 0.931 . S
H235 C221 0.933 . S
H236 C227 0.930 . S
H237 C228 0.931 . S
H238 C229 0.931 . S
H239 C230 0.933 . S
Dy240 O243 2.307 . S
Dy240 O245 2.395 . S
Dy240 O246 2.379 . S
Dy240 O248 2.339 . S
Dy240 O250 2.298 . S
Dy240 O254 2.275 . S
Dy240 C262 2.738 . S
Dy241 O244 2.298 . S
Dy241 O247 2.275 . S
Dy241 O249 2.307 . S
Dy241 O251 2.395 . S
Dy241 O252 2.379 . S
Dy241 O255 2.339 . S
Dy241 C271 2.738 . S
C242 O254 1.254 . S
C242 O255 1.257 . S
O243 Dy240 2.307 . S
O243 C253 1.266 . S
O244 Dy241 2.298 . S
O244 C253 1.236 . S
O245 Dy240 2.395 . S
O245 C262 1.255 . S
O246 Dy240 2.379 . S
O246 C262 1.249 . S
O247 Dy241 2.275 . S
O247 C263 1.254 . S
O248 Dy240 2.339 . S
O248 C263 1.257 . S
O249 Dy241 2.307 . S
O249 C264 1.266 . S
O250 Dy240 2.298 . S
O250 C264 1.236 . S
O251 Dy241 2.395 . S
O251 C271 1.255 . S
O252 Dy241 2.379 . S
O252 C271 1.249 . S
C253 O243 1.266 . S
C253 O244 1.236 . S
O254 Dy240 2.275 . S
O254 C242 1.254 . S
O255 Dy241 2.339 . S
O255 C242 1.257 . S
C256 C259 1.344 . S
C256 C260 1.328 . S
C256 C262 1.516 . S
C257 C258 1.304 . S
C257 C261 1.323 . S
C258 C257 1.304 . S
C258 C259 1.371 . S
C258 H272 0.930 . S
C259 C256 1.344 . S
C259 C258 1.371 . S
C259 H273 0.931 . S
C260 C256 1.328 . S
C260 C261 1.433 . S
C260 H274 0.931 . S
C261 C257 1.323 . S
C261 C260 1.433 . S
C261 H275 0.933 . S
C262 Dy240 2.738 . S
C262 O245 1.255 . S
C262 O246 1.249 . S
C262 C256 1.516 . S
C263 O247 1.254 . S
C263 O248 1.257 . S
C264 O249 1.266 . S
C264 O250 1.236 . S
C265 C268 1.344 . S
C265 C269 1.328 . S
C265 C271 1.516 . S
C266 C267 1.304 . S
C266 C270 1.323 . S
C267 C266 1.304 . S
C267 C268 1.371 . S
C267 H276 0.930 . S
C268 C265 1.344 . S
C268 C267 1.371 . S
C268 H277 0.931 . S
C269 C265 1.328 . S
C269 C270 1.433 . S
C269 H278 0.931 . S
C270 C266 1.323 . S
C270 C269 1.433 . S
C270 H279 0.933 . S
C271 Dy241 2.738 . S
C271 O251 1.255 . S
C271 O252 1.249 . S
C271 C265 1.516 . S
H272 C258 0.930 . S
H273 C259 0.931 . S
H274 C260 0.931 . S
H275 C261 0.933 . S
H276 C267 0.930 . S
H277 C268 0.931 . S
H278 C269 0.931 . S
H279 C270 0.933 . S
Dy280 O283 2.307 . S
Dy280 O285 2.395 . S
Dy280 O286 2.379 . S
Dy280 O288 2.339 . S
Dy280 O290 2.298 . S
Dy280 O294 2.275 . S
Dy280 C302 2.738 . S
Dy281 O284 2.298 . S
Dy281 O287 2.275 . S
Dy281 O289 2.307 . S
Dy281 O291 2.395 . S
Dy281 O292 2.379 . S
Dy281 O295 2.339 . S
Dy281 C311 2.738 . S
C282 O294 1.254 . S
C282 O295 1.257 . S
O283 Dy280 2.307 . S
O283 C293 1.266 . S
O284 Dy281 2.298 . S
O284 C293 1.236 . S
O285 Dy280 2.395 . S
O285 C302 1.255 . S
O286 Dy280 2.379 . S
O286 C302 1.249 . S
O287 Dy281 2.275 . S
O287 C303 1.254 . S
O288 Dy280 2.339 . S
O288 C303 1.257 . S
O289 Dy281 2.307 . S
O289 C304 1.266 . S
O290 Dy280 2.298 . S
O290 C304 1.236 . S
O291 Dy281 2.395 . S
O291 C311 1.255 . S
O292 Dy281 2.379 . S
O292 C311 1.249 . S
C293 O283 1.266 . S
C293 O284 1.236 . S
O294 Dy280 2.275 . S
O294 C282 1.254 . S
O295 Dy281 2.339 . S
O295 C282 1.257 . S
C296 C299 1.344 . S
C296 C300 1.328 . S
C296 C302 1.516 . S
C297 C298 1.304 . S
C297 C301 1.323 . S
C298 C297 1.304 . S
C298 C299 1.371 . S
C298 H312 0.930 . S
C299 C296 1.344 . S
C299 C298 1.371 . S
C299 H313 0.931 . S
C300 C296 1.328 . S
C300 C301 1.433 . S
C300 H314 0.931 . S
C301 C297 1.323 . S
C301 C300 1.433 . S
C301 H315 0.933 . S
C302 Dy280 2.738 . S
C302 O285 1.255 . S
C302 O286 1.249 . S
C302 C296 1.516 . S
C303 O287 1.254 . S
C303 O288 1.257 . S
C304 O289 1.266 . S
C304 O290 1.236 . S
C305 C308 1.344 . S
C305 C309 1.328 . S
C305 C311 1.516 . S
C306 C307 1.304 . S
C306 C310 1.323 . S
C307 C306 1.304 . S
C307 C308 1.371 . S
C307 H316 0.930 . S
C308 C305 1.344 . S
C308 C307 1.371 . S
C308 H317 0.931 . S
C309 C305 1.328 . S
C309 C310 1.433 . S
C309 H318 0.931 . S
C310 C306 1.323 . S
C310 C309 1.433 . S
C310 H319 0.933 . S
C311 Dy281 2.738 . S
C311 O291 1.255 . S
C311 O292 1.249 . S
C311 C305 1.516 . S
H312 C298 0.930 . S
H313 C299 0.931 . S
H314 C300 0.931 . S
H315 C301 0.933 . S
H316 C307 0.930 . S
H317 C308 0.931 . S
H318 C309 0.931 . S
H319 C310 0.933 . S
C320 O332 1.241 . S
C320 O333 1.280 . S
C321 O334 1.277 . S
C321 O335 1.245 . S
C322 O346 1.247 . S
C322 O348 1.289 . S
Mg323 O324 1.926 1_455 S
Mg323 O333 1.984 1_455 S
Mg323 O335 1.988 1_455 S
Mg323 O336 2.061 . S
O324 Mg323 1.926 1_655 S
O324 Mg325 1.986 . S
O324 Mg326 1.917 1_655 S
Mg325 O324 1.986 . S
Mg325 O332 2.042 . S
Mg325 O334 2.041 . S
Mg325 O340 2.038 1_545 S
Mg325 O348 2.238 1_545 S
Mg326 O324 1.917 1_455 S
Mg326 O327 1.917 1_545 S
Mg326 O337 2.106 . S
Mg326 O339 2.079 1_545 S
Mg326 O348 2.106 1_445 S
Mg326 O349 2.079 . S
O327 Mg326 1.917 1_565 S
O327 Mg328 1.926 . S
O327 Mg329 1.986 1_565 S
Mg328 O327 1.926 . S
Mg328 O342 1.984 . S
Mg328 O345 1.988 . S
Mg328 O346 2.061 1_455 S
Mg329 O327 1.986 1_545 S
Mg329 O337 2.238 . S
Mg329 O341 2.042 1_545 S
Mg329 O343 2.041 1_545 S
Mg329 O350 2.038 . S
C330 O336 1.247 . S
C330 O337 1.289 . S
C331 O349 1.245 . S
C331 O350 1.274 . S
O332 C320 1.241 . S
O332 Mg325 2.042 . S
O333 C320 1.280 . S
O333 Mg323 1.984 1_655 S
O334 C321 1.277 . S
O334 Mg325 2.041 . S
O335 C321 1.245 . S
O335 Mg323 1.988 1_655 S
O336 Mg323 2.061 . S
O336 C330 1.247 . S
O337 Mg326 2.106 . S
O337 Mg329 2.238 . S
O337 C330 1.289 . S
C338 O339 1.245 1_655 S
C338 O340 1.274 . S
O339 Mg326 2.079 1_565 S
O339 C338 1.245 1_455 S
O340 Mg325 2.038 1_565 S
O340 C338 1.274 . S
O341 Mg329 2.042 1_565 S
O341 C344 1.241 . S
O342 Mg328 1.984 . S
O342 C344 1.280 . S
O343 Mg329 2.041 1_565 S
O343 C347 1.277 . S
C344 O341 1.241 . S
C344 O342 1.280 . S
O345 Mg328 1.988 . S
O345 C347 1.245 . S
O346 C322 1.247 . S
O346 Mg328 2.061 1_655 S
C347 O343 1.277 . S
C347 O345 1.245 . S
O348 C322 1.289 . S
O348 Mg325 2.238 1_565 S
O348 Mg326 2.106 1_665 S
O349 Mg326 2.079 . S
O349 C331 1.245 . S
O350 Mg329 2.038 . S
O350 C331 1.274 . S
C351 O363 1.241 . S
C351 O364 1.280 . S
C352 O365 1.277 . S
C352 O366 1.245 . S
C353 O377 1.247 . S
C353 O379 1.289 1_565 S
Mg354 O355 1.926 . S
Mg354 O364 1.984 . S
Mg354 O366 1.988 1_554 S
Mg354 O367 2.061 . S
O355 Mg354 1.926 . S
O355 Mg356 1.986 1_554 S
O355 Mg357 1.924 . S
Mg356 O355 1.986 1_556 S
Mg356 O363 2.042 1_556 S
Mg356 O365 2.041 . S
Mg356 O371 2.038 1_556 S
Mg356 O379 2.238 . S
Mg357 O355 1.924 . S
Mg357 O358 1.910 1_554 S
Mg357 O368 2.118 . S
Mg357 O370 2.100 . S
Mg357 O379 2.095 1_554 S
Mg357 O380 2.057 1_554 S
O358 Mg357 1.910 1_556 S
O358 Mg359 1.926 1_545 S
O358 Mg360 1.986 1_556 S
Mg359 O358 1.926 1_565 S
Mg359 O373 1.984 . S
Mg359 O376 1.988 1_556 S
Mg359 O377 2.061 . S
Mg360 O358 1.986 1_554 S
Mg360 O368 2.238 . S
Mg360 O372 2.042 1_554 S
Mg360 O374 2.041 . S
Mg360 O381 2.038 1_554 S
C361 O367 1.247 . S
C361 O368 1.289 . S
C362 O380 1.245 . S
C362 O381 1.274 . S
O363 C351 1.241 . S
O363 Mg356 2.042 1_554 S
O364 C351 1.280 . S
O364 Mg354 1.984 . S
O365 C352 1.277 . S
O365 Mg356 2.041 . S
O366 C352 1.245 . S
O366 Mg354 1.988 1_556 S
O367 Mg354 2.061 . S
O367 C361 1.247 . S
O368 Mg357 2.118 . S
O368 Mg360 2.238 . S
O368 C361 1.289 . S
C369 O370 1.245 . S
C369 O371 1.274 . S
O370 Mg357 2.100 . S
O370 C369 1.245 . S
O371 Mg356 2.038 1_554 S
O371 C369 1.274 . S
O372 Mg360 2.042 1_556 S
O372 C375 1.241 1_545 S
O373 Mg359 1.984 . S
O373 C375 1.280 . S
O374 Mg360 2.041 . S
O374 C378 1.277 1_545 S
C375 O372 1.241 1_565 S
C375 O373 1.280 . S
O376 Mg359 1.988 1_554 S
O376 C378 1.245 . S
O377 C353 1.247 . S
O377 Mg359 2.061 . S
C378 O374 1.277 1_565 S
C378 O376 1.245 . S
O379 C353 1.289 1_545 S
O379 Mg356 2.238 . S
O379 Mg357 2.095 1_556 S
O380 Mg357 2.057 1_556 S
O380 C362 1.245 . S
O381 Mg360 2.038 1_556 S
O381 C362 1.274 . S
C382 O394 1.241 . S
C382 O395 1.280 . S
C383 O396 1.277 . S
C383 O397 1.245 . S
C384 O408 1.247 1_556 S
C384 O410 1.289 1_556 S
Mg385 O386 1.926 . S
Mg385 O395 1.984 . S
Mg385 O397 1.988 . S
Mg385 O398 2.061 1_655 S
O386 Mg385 1.926 . S
O386 Mg387 1.986 . S
O386 Mg388 1.917 1_655 S
Mg387 O386 1.986 . S
Mg387 O394 2.042 . S
Mg387 O396 2.041 . S
Mg387 O402 2.038 . S
Mg387 O410 2.238 . S
Mg388 O386 1.917 1_455 S
Mg388 O389 1.917 . S
Mg388 O399 2.106 . S
Mg388 O401 2.079 1_455 S
Mg388 O410 2.106 1_455 S
Mg388 O411 2.079 . S
O389 Mg388 1.917 . S
O389 Mg390 1.926 . S
O389 Mg391 1.986 . S
Mg390 O389 1.926 . S
Mg390 O404 1.984 . S
Mg390 O407 1.988 . S
Mg390 O408 2.061 1_455 S
Mg391 O389 1.986 . S
Mg391 O399 2.238 . S
Mg391 O403 2.042 . S
Mg391 O405 2.041 . S
Mg391 O412 2.038 . S
C392 O398 1.247 . S
C392 O399 1.289 . S
C393 O411 1.245 . S
C393 O412 1.274 . S
O394 C382 1.241 . S
O394 Mg387 2.042 . S
O395 C382 1.280 . S
O395 Mg385 1.984 . S
O396 C383 1.277 . S
O396 Mg387 2.041 . S
O397 C383 1.245 . S
O397 Mg385 1.988 . S
O398 Mg385 2.061 1_455 S
O398 C392 1.247 . S
O399 Mg388 2.106 . S
O399 Mg391 2.238 . S
O399 C392 1.289 . S
C400 O401 1.245 . S
C400 O402 1.274 . S
O401 Mg388 2.079 1_655 S
O401 C400 1.245 . S
O402 Mg387 2.038 . S
O402 C400 1.274 . S
O403 Mg391 2.042 . S
O403 C406 1.238 . S
O404 Mg390 1.984 . S
O404 C406 1.278 . S
O405 Mg391 2.041 . S
O405 C409 1.277 . S
C406 O403 1.238 . S
C406 O404 1.278 . S
O407 Mg390 1.988 . S
O407 C409 1.245 . S
O408 C384 1.247 1_554 S
O408 Mg390 2.061 1_655 S
C409 O405 1.277 . S
C409 O407 1.245 . S
O410 C384 1.289 1_554 S
O410 Mg387 2.238 . S
O410 Mg388 2.106 1_655 S
O411 Mg388 2.079 . S
O411 C393 1.245 . S
O412 Mg391 2.038 . S
O412 C393 1.274 . S
C413 O425 1.241 . S
C413 O426 1.280 . S
C414 O427 1.277 . S
C414 O428 1.245 . S
C415 O439 1.247 . S
C415 O441 1.289 . S
Mg416 O417 1.926 . S
Mg416 O426 1.984 . S
Mg416 O428 1.988 1_554 S
Mg416 O429 2.061 . S
O417 Mg416 1.926 . S
O417 Mg418 1.986 . S
O417 Mg419 1.917 . S
Mg418 O417 1.986 . S
Mg418 O425 2.042 . S
Mg418 O427 2.041 1_554 S
Mg418 O433 2.038 . S
Mg418 O441 2.238 1_554 S
Mg419 O417 1.917 . S
Mg419 O420 1.917 . S
Mg419 O430 2.106 . S
Mg419 O432 2.079 . S
Mg419 O441 2.106 1_554 S
Mg419 O442 2.079 1_554 S
O420 Mg419 1.917 . S
O420 Mg421 1.926 . S
O420 Mg422 1.986 . S
Mg421 O420 1.926 . S
Mg421 O435 1.984 1_554 S
Mg421 O438 1.988 . S
Mg421 O439 2.061 1_554 S
Mg422 O420 1.986 . S
Mg422 O430 2.238 . S
Mg422 O434 2.042 1_554 S
Mg422 O436 2.041 . S
Mg422 O443 2.038 1_554 S
C423 O429 1.247 . S
C423 O430 1.289 . S
C424 O442 1.245 . S
C424 O443 1.274 . S
O425 C413 1.241 . S
O425 Mg418 2.042 . S
O426 C413 1.280 . S
O426 Mg416 1.984 . S
O427 C414 1.277 . S
O427 Mg418 2.041 1_556 S
O428 C414 1.245 . S
O428 Mg416 1.988 1_556 S
O429 Mg416 2.061 . S
O429 C423 1.247 . S
O430 Mg419 2.106 . S
O430 Mg422 2.238 . S
O430 C423 1.289 . S
C431 O432 1.245 . S
C431 O433 1.274 . S
O432 Mg419 2.079 . S
O432 C431 1.245 . S
O433 Mg418 2.038 . S
O433 C431 1.274 . S
O434 Mg422 2.042 1_556 S
O434 C437 1.241 . S
O435 Mg421 1.984 1_556 S
O435 C437 1.280 . S
O436 Mg422 2.041 . S
O436 C440 1.277 . S
C437 O434 1.241 . S
C437 O435 1.280 . S
O438 Mg421 1.988 . S
O438 C440 1.245 . S
O439 C415 1.247 . S
O439 Mg421 2.061 1_556 S
C440 O436 1.277 . S
C440 O438 1.245 . S
O441 C415 1.289 . S
O441 Mg418 2.238 1_556 S
O441 Mg419 2.106 1_556 S
O442 Mg419 2.079 1_556 S
O442 C424 1.245 . S
O443 Mg422 2.038 1_556 S
O443 C424 1.274 . S
C444 O456 1.241 . S
C444 O457 1.280 . S
C445 O458 1.277 . S
C445 O459 1.245 1_655 S
C446 O470 1.247 1_655 S
C446 O472 1.289 . S
Mg447 O448 1.926 . S
Mg447 O457 1.984 1_455 S
Mg447 O459 1.988 . S
Mg447 O460 2.061 . S
O448 Mg447 1.926 . S
O448 Mg449 1.986 1_455 S
O448 Mg450 1.917 . S
Mg449 O448 1.986 1_655 S
Mg449 O456 2.042 . S
Mg449 O458 2.041 . S
Mg449 O464 2.038 . S
Mg449 O472 2.238 . S
Mg450 O448 1.917 . S
Mg450 O451 1.917 . S
Mg450 O461 2.106 . S
Mg450 O463 2.079 . S
Mg450 O472 2.106 1_455 S
Mg450 O473 2.079 . S
O451 Mg450 1.917 . S
O451 Mg452 1.926 . S
O451 Mg453 1.986 . S
Mg452 O451 1.926 . S
Mg452 O466 1.984 . S
Mg452 O469 1.988 . S
Mg452 O470 2.061 . S
Mg453 O451 1.986 . S
Mg453 O461 2.238 . S
Mg453 O465 2.042 . S
Mg453 O467 2.041 . S
Mg453 O474 2.038 . S
C454 O460 1.247 . S
C454 O461 1.289 . S
C455 O473 1.245 . S
C455 O474 1.274 . S
O456 C444 1.241 . S
O456 Mg449 2.042 . S
O457 C444 1.280 . S
O457 Mg447 1.984 1_655 S
O458 C445 1.277 . S
O458 Mg449 2.041 . S
O459 C445 1.245 1_455 S
O459 Mg447 1.988 . S
O460 Mg447 2.061 . S
O460 C454 1.247 . S
O461 Mg450 2.106 . S
O461 Mg453 2.238 . S
O461 C454 1.289 . S
C462 O463 1.245 1_655 S
C462 O464 1.274 . S
O463 Mg450 2.079 . S
O463 C462 1.245 1_455 S
O464 Mg449 2.038 . S
O464 C462 1.274 . S
O465 Mg453 2.042 . S
O465 C468 1.241 . S
O466 Mg452 1.984 . S
O466 C468 1.280 . S
O467 Mg453 2.041 . S
O467 C471 1.277 . S
C468 O465 1.241 . S
C468 O466 1.280 . S
O469 Mg452 1.988 . S
O469 C471 1.245 . S
O470 C446 1.247 1_455 S
O470 Mg452 2.061 . S
C471 O467 1.277 . S
C471 O469 1.245 . S
O472 C446 1.289 . S
O472 Mg449 2.238 . S
O472 Mg450 2.106 1_655 S
O473 Mg450 2.079 . S
O473 C455 1.245 . S
O474 Mg453 2.038 . S
O474 C455 1.274 . S
C475 O487 1.241 . S
C475 O488 1.280 . S
C476 O489 1.277 . S
C476 O490 1.245 . S
C477 O501 1.247 . S
C477 O503 1.289 . S
Mg478 O479 1.926 . S
Mg478 O488 1.984 . S
Mg478 O490 1.988 . S
Mg478 O491 2.061 . S
O479 Mg478 1.926 . S
O479 Mg480 1.986 . S
O479 Mg481 1.917 . S
Mg480 O479 1.986 . S
Mg480 O487 2.042 . S
Mg480 O489 2.041 . S
Mg480 O495 2.038 1_545 S
Mg480 O503 2.238 1_545 S
Mg481 O479 1.917 . S
Mg481 O482 1.917 1_545 S
Mg481 O492 2.106 . S
Mg481 O494 2.079 1_545 S
Mg481 O503 2.106 1_545 S
Mg481 O504 2.079 . S
O482 Mg481 1.917 1_565 S
O482 Mg483 1.926 . S
O482 Mg484 1.978 1_565 S
Mg483 O482 1.926 . S
Mg483 O497 1.984 . S
Mg483 O500 1.988 . S
Mg483 O501 2.061 . S
Mg484 O482 1.978 1_545 S
Mg484 O492 2.261 . S
Mg484 O496 2.019 1_545 S
Mg484 O498 2.015 1_545 S
Mg484 O505 2.065 . S
C485 O491 1.247 . S
C485 O492 1.289 . S
C486 O504 1.245 . S
C486 O505 1.274 . S
O487 C475 1.241 . S
O487 Mg480 2.042 . S
O488 C475 1.280 . S
O488 Mg478 1.984 . S
O489 C476 1.277 . S
O489 Mg480 2.041 . S
O490 C476 1.245 . S
O490 Mg478 1.988 . S
O491 Mg478 2.061 . S
O491 C485 1.247 . S
O492 Mg481 2.106 . S
O492 Mg484 2.261 . S
O492 C485 1.289 . S
C493 O494 1.245 . S
C493 O495 1.274 . S
O494 Mg481 2.079 1_565 S
O494 C493 1.245 . S
O495 Mg480 2.038 1_565 S
O495 C493 1.274 . S
O496 Mg484 2.019 1_565 S
O496 C499 1.241 . S
O497 Mg483 1.984 . S
O497 C499 1.280 . S
O498 Mg484 2.015 1_565 S
O498 C502 1.277 . S
C499 O496 1.241 . S
C499 O497 1.280 . S
O500 Mg483 1.988 . S
O500 C502 1.245 . S
O501 C477 1.247 . S
O501 Mg483 2.061 . S
C502 O498 1.277 . S
C502 O500 1.245 . S
O503 C477 1.289 . S
O503 Mg480 2.238 1_565 S
O503 Mg481 2.106 1_565 S
O504 Mg481 2.079 . S
O504 C486 1.245 . S
O505 Mg484 2.065 . S
O505 C486 1.274 . S
H506 C524 0.951 . S
H507 C526 0.951 . S
H508 C528 0.950 . S
H509 C529 0.950 . S
H510 C531 0.950 . S
H511 C534 0.950 . S
H512 C535 0.950 . S
H513 C537 0.950 . S
H514 C538 0.950 . S
H515 C539 0.951 . S
H516 C541 0.951 . S
H517 C543 0.950 . S
H518 C544 0.950 . S
H519 C546 0.950 . S
H520 C549 0.950 . S
H521 C550 0.950 . S
H522 C552 0.950 . S
H523 C553 0.950 . S
C524 H506 0.951 . S
C524 C525 1.366 . S
C524 C526 1.388 . S
C525 C524 1.366 . S
C525 C529 1.385 . S
C526 H507 0.951 . S
C526 C524 1.388 . S
C526 C527 1.366 . S
C527 C526 1.366 . S
C527 C528 1.414 . S
C527 C530 1.499 . S
C528 H508 0.950 . S
C528 C527 1.414 . S
C528 C529 1.374 . S
C529 H509 0.950 . S
C529 C525 1.385 . S
C529 C528 1.374 . S
C530 C527 1.499 . S
C530 C531 1.373 . S
C530 C532 1.389 . S
C531 H510 0.950 . S
C531 C530 1.373 . S
C531 C547 1.377 . S
C532 C530 1.389 . S
C532 C533 1.524 . S
C532 C546 1.377 . S
C533 C532 1.524 . S
C533 C534 1.397 . S
C533 C538 1.363 . S
C534 H511 0.950 . S
C534 C533 1.397 . S
C534 C535 1.334 . S
C535 H512 0.950 . S
C535 C534 1.334 . S
C535 C536 1.287 . S
C536 C535 1.287 . S
C536 C537 1.524 . S
C536 H555 0.913 . S
C537 H513 0.950 . S
C537 C536 1.524 . S
C537 C538 1.415 . S
C538 H514 0.950 . S
C538 C533 1.363 . S
C538 C537 1.415 . S
C539 H515 0.951 . S
C539 C540 1.366 . S
C539 C541 1.388 . S
C540 C539 1.366 . S
C540 C544 1.385 . S
C541 H516 0.951 . S
C541 C539 1.388 . S
C541 C542 1.366 . S
C542 C541 1.366 . S
C542 C543 1.414 . S
C542 C545 1.499 . S
C543 H517 0.950 . S
C543 C542 1.414 . S
C543 C544 1.374 . S
C544 H518 0.950 . S
C544 C540 1.385 . S
C544 C543 1.374 . S
C545 C542 1.499 . S
C545 C546 1.373 . S
C545 C547 1.389 . S
C546 H519 0.950 . S
C546 C532 1.377 . S
C546 C545 1.373 . S
C547 C531 1.377 . S
C547 C545 1.389 . S
C547 C548 1.524 . S
C548 C547 1.524 . S
C548 C549 1.397 . S
C548 C553 1.363 . S
C549 H520 0.950 . S
C549 C548 1.397 . S
C549 C550 1.334 . S
C550 H521 0.950 . S
C550 C549 1.334 . S
C550 C551 1.287 . S
C551 C550 1.287 . S
C551 C552 1.524 . S
C551 H554 0.999 . S
C552 H522 0.950 . S
C552 C551 1.524 . S
C552 C553 1.415 . S
C553 H523 0.950 . S
C553 C548 1.363 . S
C553 C552 1.415 . S
H554 C551 0.999 . S
H555 C536 0.913 . S
H556 C574 0.951 . S
H557 C576 0.951 . S
H558 C578 0.950 . S
H559 C579 0.950 . S
H560 C581 0.950 . S
H561 C584 0.950 . S
H562 C585 0.950 . S
H563 C587 0.950 . S
H564 C588 0.950 . S
H565 C589 0.951 . S
H566 C591 0.951 . S
H567 C593 0.950 . S
H568 C594 0.950 . S
H569 C596 0.950 . S
H570 C599 0.950 . S
H571 C600 0.950 . S
H572 C602 0.950 . S
H573 C603 0.950 . S
C574 H556 0.951 . S
C574 C575 1.366 . S
C574 C576 1.388 . S
C575 C574 1.366 . S
C575 C579 1.385 . S
C576 H557 0.951 . S
C576 C574 1.388 . S
C576 C577 1.366 . S
C577 C576 1.366 . S
C577 C578 1.414 . S
C577 C580 1.499 . S
C578 H558 0.950 . S
C578 C577 1.414 . S
C578 C579 1.374 . S
C579 H559 0.950 . S
C579 C575 1.385 . S
C579 C578 1.374 . S
C580 C577 1.499 . S
C580 C581 1.373 . S
C580 C582 1.389 . S
C581 H560 0.950 . S
C581 C580 1.373 . S
C581 C597 1.377 . S
C582 C580 1.389 . S
C582 C583 1.524 . S
C582 C596 1.377 . S
C583 C582 1.524 . S
C583 C584 1.397 . S
C583 C588 1.363 . S
C584 H561 0.950 . S
C584 C583 1.397 . S
C584 C585 1.334 . S
C585 H562 0.950 . S
C585 C584 1.334 . S
C585 C586 1.287 . S
C586 C585 1.287 . S
C586 C587 1.524 . S
C586 H605 0.913 . S
C587 H563 0.950 . S
C587 C586 1.524 . S
C587 C588 1.415 . S
C588 H564 0.950 . S
C588 C583 1.363 . S
C588 C587 1.415 . S
C589 H565 0.951 . S
C589 C590 1.366 . S
C589 C591 1.388 . S
C590 C589 1.366 . S
C590 C594 1.385 . S
C591 H566 0.951 . S
C591 C589 1.388 . S
C591 C592 1.366 . S
C592 C591 1.366 . S
C592 C593 1.414 . S
C592 C595 1.499 . S
C593 H567 0.950 . S
C593 C592 1.414 . S
C593 C594 1.374 . S
C594 H568 0.950 . S
C594 C590 1.385 . S
C594 C593 1.374 . S
C595 C592 1.499 . S
C595 C596 1.373 . S
C595 C597 1.389 . S
C596 H569 0.950 . S
C596 C582 1.377 . S
C596 C595 1.373 . S
C597 C581 1.377 . S
C597 C595 1.389 . S
C597 C598 1.524 . S
C598 C597 1.524 . S
C598 C599 1.397 . S
C598 C603 1.363 . S
C599 H570 0.950 . S
C599 C598 1.397 . S
C599 C600 1.334 . S
C600 H571 0.950 . S
C600 C599 1.334 . S
C600 C601 1.287 . S
C601 C600 1.287 . S
C601 C602 1.524 . S
C601 H604 0.999 . S
C602 H572 0.950 . S
C602 C601 1.524 . S
C602 C603 1.415 . S
C603 H573 0.950 . S
C603 C598 1.363 . S
C603 C602 1.415 . S
H604 C601 0.999 . S
H605 C586 0.913 . S
H606 C624 0.951 . S
H607 C626 0.951 . S
H608 C628 0.950 . S
H609 C629 0.950 . S
H610 C631 0.950 . S
H611 C634 0.950 . S
H612 C635 0.950 . S
H613 C637 0.950 . S
H614 C638 0.950 . S
H615 C639 0.951 . S
H616 C641 0.951 . S
H617 C643 0.950 . S
H618 C644 0.950 . S
H619 C646 0.950 . S
H620 C649 0.950 . S
H621 C650 0.950 . S
H622 C652 0.950 . S
H623 C653 0.950 . S
C624 H606 0.951 . S
C624 C625 1.366 . S
C624 C626 1.388 . S
C625 C624 1.366 . S
C625 C629 1.385 . S
C626 H607 0.951 . S
C626 C624 1.388 . S
C626 C627 1.366 . S
C627 C626 1.366 . S
C627 C628 1.414 . S
C627 C630 1.499 . S
C628 H608 0.950 . S
C628 C627 1.414 . S
C628 C629 1.374 . S
C629 H609 0.950 . S
C629 C625 1.385 . S
C629 C628 1.374 . S
C630 C627 1.499 . S
C630 C631 1.373 . S
C630 C632 1.389 . S
C631 H610 0.950 . S
C631 C630 1.373 . S
C631 C647 1.377 . S
C632 C630 1.389 . S
C632 C633 1.524 . S
C632 C646 1.377 . S
C633 C632 1.524 . S
C633 C634 1.397 . S
C633 C638 1.363 . S
C634 H611 0.950 . S
C634 C633 1.397 . S
C634 C635 1.334 . S
C635 H612 0.950 . S
C635 C634 1.334 . S
C635 C636 1.287 . S
C636 C635 1.287 . S
C636 C637 1.524 . S
C636 H655 0.913 . S
C637 H613 0.950 . S
C637 C636 1.524 . S
C637 C638 1.415 . S
C638 H614 0.950 . S
C638 C633 1.363 . S
C638 C637 1.415 . S
C639 H615 0.951 . S
C639 C640 1.366 . S
C639 C641 1.388 . S
C640 C639 1.366 . S
C640 C644 1.385 . S
C641 H616 0.951 . S
C641 C639 1.388 . S
C641 C642 1.366 . S
C642 C641 1.366 . S
C642 C643 1.414 . S
C642 C645 1.499 . S
C643 H617 0.950 . S
C643 C642 1.414 . S
C643 C644 1.374 . S
C644 H618 0.950 . S
C644 C640 1.385 . S
C644 C643 1.374 . S
C645 C642 1.499 . S
C645 C646 1.373 . S
C645 C647 1.389 . S
C646 H619 0.950 . S
C646 C632 1.377 . S
C646 C645 1.373 . S
C647 C631 1.377 . S
C647 C645 1.389 . S
C647 C648 1.524 . S
C648 C647 1.524 . S
C648 C649 1.397 . S
C648 C653 1.363 . S
C649 H620 0.950 . S
C649 C648 1.397 . S
C649 C650 1.334 . S
C650 H621 0.950 . S
C650 C649 1.334 . S
C650 C651 1.287 . S
C651 C650 1.287 . S
C651 C652 1.524 . S
C651 H654 0.999 . S
C652 H622 0.950 . S
C652 C651 1.524 . S
C652 C653 1.415 . S
C653 H623 0.950 . S
C653 C648 1.363 . S
C653 C652 1.415 . S
H654 C651 0.999 . S
H655 C636 0.913 . S
H656 C674 0.951 . S
H657 C676 0.951 . S
H658 C678 0.950 . S
H659 C679 0.950 . S
H660 C681 0.950 . S
H661 C684 0.950 . S
H662 C685 0.950 . S
H663 C687 0.950 . S
H664 C688 0.950 . S
H665 C689 0.951 1_545 S
H666 C691 0.951 . S
H667 C693 0.950 . S
H668 C694 0.950 . S
H669 C696 0.950 . S
H670 C699 0.950 . S
H671 C700 0.950 . S
H672 C702 0.950 . S
H673 C703 0.950 . S
C674 H656 0.951 . S
C674 C675 1.366 . S
C674 C676 1.388 . S
C675 C674 1.366 . S
C675 C679 1.385 . S
C676 H657 0.951 . S
C676 C674 1.388 . S
C676 C677 1.366 . S
C677 C676 1.366 . S
C677 C678 1.414 . S
C677 C680 1.499 . S
C678 H658 0.950 . S
C678 C677 1.414 . S
C678 C679 1.374 . S
C679 H659 0.950 . S
C679 C675 1.385 . S
C679 C678 1.374 . S
C680 C677 1.499 . S
C680 C681 1.373 . S
C680 C682 1.389 . S
C681 H660 0.950 . S
C681 C680 1.373 . S
C681 C697 1.377 . S
C682 C680 1.389 . S
C682 C683 1.524 . S
C682 C696 1.377 . S
C683 C682 1.524 . S
C683 C684 1.397 . S
C683 C688 1.363 . S
C684 H661 0.950 . S
C684 C683 1.397 . S
C684 C685 1.334 . S
C685 H662 0.950 . S
C685 C684 1.334 . S
C685 C686 1.287 . S
C686 C685 1.287 . S
C686 C687 1.524 . S
C686 H705 0.913 . S
C687 H663 0.950 . S
C687 C686 1.524 . S
C687 C688 1.415 . S
C688 H664 0.950 . S
C688 C683 1.363 . S
C688 C687 1.415 . S
C689 H665 0.951 1_565 S
C689 C690 1.366 . S
C689 C691 1.388 . S
C690 C689 1.366 . S
C690 C694 1.385 . S
C691 H666 0.951 . S
C691 C689 1.388 . S
C691 C692 1.366 . S
C692 C691 1.366 . S
C692 C693 1.414 . S
C692 C695 1.499 . S
C693 H667 0.950 . S
C693 C692 1.414 . S
C693 C694 1.374 . S
C694 H668 0.950 . S
C694 C690 1.385 . S
C694 C693 1.374 . S
C695 C692 1.499 . S
C695 C696 1.373 . S
C695 C697 1.389 . S
C696 H669 0.950 . S
C696 C682 1.377 . S
C696 C695 1.373 . S
C697 C681 1.377 . S
C697 C695 1.389 . S
C697 C698 1.524 . S
C698 C697 1.524 . S
C698 C699 1.397 . S
C698 C703 1.363 . S
C699 H670 0.950 . S
C699 C698 1.397 . S
C699 C700 1.334 . S
C700 H671 0.950 . S
C700 C699 1.334 . S
C700 C701 1.287 . S
C701 C700 1.287 . S
C701 C702 1.524 . S
C701 H704 0.999 . S
C702 H672 0.950 . S
C702 C701 1.524 . S
C702 C703 1.415 . S
C703 H673 0.950 . S
C703 C698 1.363 . S
C703 C702 1.415 . S
H704 C701 0.999 . S
H705 C686 0.913 . S
H706 C724 0.951 . S
H707 C726 0.951 . S
H708 C728 0.950 . S
H709 C729 0.950 . S
H710 C731 0.950 . S
H711 C734 0.950 . S
H712 C735 0.950 . S
H713 C737 0.950 . S
H714 C738 0.950 . S
H715 C739 0.951 . S
H716 C741 0.951 . S
H717 C743 0.950 . S
H718 C744 0.950 . S
H719 C746 0.950 . S
H720 C749 0.950 . S
H721 C750 0.950 1_545 S
H722 C752 0.950 1_545 S
H723 C753 0.950 . S
C724 H706 0.951 . S
C724 C725 1.366 . S
C724 C726 1.388 . S
C725 C724 1.366 . S
C725 C729 1.385 . S
C726 H707 0.951 . S
C726 C724 1.388 . S
C726 C727 1.366 . S
C727 C726 1.366 . S
C727 C728 1.414 . S
C727 C730 1.499 . S
C728 H708 0.950 . S
C728 C727 1.414 . S
C728 C729 1.374 . S
C729 H709 0.950 . S
C729 C725 1.385 . S
C729 C728 1.374 . S
C730 C727 1.499 . S
C730 C731 1.373 . S
C730 C732 1.389 . S
C731 H710 0.950 . S
C731 C730 1.373 . S
C731 C747 1.377 . S
C732 C730 1.389 . S
C732 C733 1.524 . S
C732 C746 1.377 . S
C733 C732 1.524 . S
C733 C734 1.397 . S
C733 C738 1.363 . S
C734 H711 0.950 . S
C734 C733 1.397 . S
C734 C735 1.334 . S
C735 H712 0.950 . S
C735 C734 1.334 . S
C735 C736 1.287 . S
C736 C735 1.287 . S
C736 C737 1.524 . S
C736 H755 0.913 . S
C737 H713 0.950 . S
C737 C736 1.524 . S
C737 C738 1.415 . S
C738 H714 0.950 . S
C738 C733 1.363 . S
C738 C737 1.415 . S
C739 H715 0.951 . S
C739 C740 1.366 . S
C739 C741 1.388 . S
C740 C739 1.366 . S
C740 C744 1.385 . S
C741 H716 0.951 . S
C741 C739 1.388 . S
C741 C742 1.366 . S
C742 C741 1.366 . S
C742 C743 1.414 . S
C742 C745 1.499 . S
C743 H717 0.950 . S
C743 C742 1.414 . S
C743 C744 1.374 . S
C744 H718 0.950 . S
C744 C740 1.385 . S
C744 C743 1.374 . S
C745 C742 1.499 . S
C745 C746 1.373 . S
C745 C747 1.389 . S
C746 H719 0.950 . S
C746 C732 1.377 . S
C746 C745 1.373 . S
C747 C731 1.377 . S
C747 C745 1.389 . S
C747 C748 1.524 . S
C748 C747 1.524 . S
C748 C749 1.397 . S
C748 C753 1.363 . S
C749 H720 0.950 . S
C749 C748 1.397 . S
C749 C750 1.334 . S
C750 H721 0.950 1_565 S
C750 C749 1.334 . S
C750 C751 1.287 1_565 S
C751 C750 1.287 1_545 S
C751 C752 1.524 1_545 S
C751 H754 0.999 . S
C752 H722 0.950 1_565 S
C752 C751 1.524 1_565 S
C752 C753 1.415 . S
C753 H723 0.950 . S
C753 C748 1.363 . S
C753 C752 1.415 . S
H754 C751 0.999 . S
H755 C736 0.913 . S
H756 C774 0.951 . S
H757 C776 0.951 . S
H758 C778 0.950 . S
H759 C779 0.950 . S
H760 C781 0.950 . S
H761 C784 0.950 . S
H762 C785 0.950 . S
H763 C787 0.950 . S
H764 C788 0.950 . S
H765 C789 0.951 . S
H766 C791 0.951 . S
H767 C793 0.950 . S
H768 C794 0.950 . S
H769 C796 0.950 . S
H770 C799 0.950 . S
H771 C800 0.950 . S
H772 C802 0.950 . S
H773 C803 0.950 . S
C774 H756 0.951 . S
C774 C775 1.366 . S
C774 C776 1.388 . S
C775 C774 1.366 . S
C775 C779 1.385 . S
C776 H757 0.951 . S
C776 C774 1.388 . S
C776 C777 1.366 . S
C777 C776 1.366 . S
C777 C778 1.414 . S
C777 C780 1.499 . S
C778 H758 0.950 . S
C778 C777 1.414 . S
C778 C779 1.374 . S
C779 H759 0.950 . S
C779 C775 1.385 . S
C779 C778 1.374 . S
C780 C777 1.499 . S
C780 C781 1.373 . S
C780 C782 1.389 . S
C781 H760 0.950 . S
C781 C780 1.373 . S
C781 C797 1.377 . S
C782 C780 1.389 . S
C782 C783 1.524 . S
C782 C796 1.377 . S
C783 C782 1.524 . S
C783 C784 1.397 . S
C783 C788 1.363 . S
C784 H761 0.950 . S
C784 C783 1.397 . S
C784 C785 1.334 . S
C785 H762 0.950 . S
C785 C784 1.334 . S
C785 C786 1.287 . S
C786 C785 1.287 . S
C786 C787 1.524 . S
C786 H805 0.913 . S
C787 H763 0.950 . S
C787 C786 1.524 . S
C787 C788 1.415 . S
C788 H764 0.950 . S
C788 C783 1.363 . S
C788 C787 1.415 . S
C789 H765 0.951 . S
C789 C790 1.366 . S
C789 C791 1.388 . S
C790 C789 1.366 . S
C790 C794 1.385 . S
C791 H766 0.951 . S
C791 C789 1.388 . S
C791 C792 1.366 . S
C792 C791 1.366 . S
C792 C793 1.414 . S
C792 C795 1.499 . S
C793 H767 0.950 . S
C793 C792 1.414 . S
C793 C794 1.374 . S
C794 H768 0.950 . S
C794 C790 1.385 . S
C794 C793 1.374 . S
C795 C792 1.499 . S
C795 C796 1.373 . S
C795 C797 1.389 . S
C796 H769 0.950 . S
C796 C782 1.377 . S
C796 C795 1.373 . S
C797 C781 1.377 . S
C797 C795 1.389 . S
C797 C798 1.524 . S
C798 C797 1.524 . S
C798 C799 1.397 . S
C798 C803 1.363 . S
C799 H770 0.950 . S
C799 C798 1.397 . S
C799 C800 1.334 . S
C800 H771 0.950 . S
C800 C799 1.334 . S
C800 C801 1.287 . S
C801 C800 1.287 . S
C801 C802 1.524 . S
C801 H804 0.999 . S
C802 H772 0.950 . S
C802 C801 1.524 . S
C802 C803 1.415 . S
C803 H773 0.950 . S
C803 C798 1.363 . S
C803 C802 1.415 . S
H804 C801 0.999 . S
H805 C786 0.913 . S
H806 C824 0.951 . S
H807 C826 0.951 . S
H808 C828 0.950 . S
H809 C829 0.950 . S
H810 C831 0.950 . S
H811 C834 0.950 . S
H812 C835 0.950 . S
H813 C837 0.928 1_455 S
H814 C838 0.950 . S
H815 C839 0.951 . S
H816 C841 0.951 . S
H817 C843 0.950 . S
H818 C844 0.950 . S
H819 C846 0.950 . S
H820 C849 0.950 . S
H821 C850 0.950 . S
H822 C852 0.950 . S
H823 C853 0.950 . S
C824 H806 0.951 . S
C824 C825 1.366 . S
C824 C826 1.388 . S
C825 C824 1.366 . S
C825 C829 1.385 . S
C826 H807 0.951 . S
C826 C824 1.388 . S
C826 C827 1.366 . S
C827 C826 1.366 . S
C827 C828 1.414 . S
C827 C830 1.499 . S
C828 H808 0.950 . S
C828 C827 1.414 . S
C828 C829 1.374 . S
C829 H809 0.950 . S
C829 C825 1.385 . S
C829 C828 1.374 . S
C830 C827 1.499 . S
C830 C831 1.373 . S
C830 C832 1.389 . S
C831 H810 0.950 . S
C831 C830 1.373 . S
C831 C847 1.377 . S
C832 C830 1.389 . S
C832 C833 1.524 . S
C832 C846 1.377 . S
C833 C832 1.524 . S
C833 C834 1.397 . S
C833 C838 1.363 . S
C834 H811 0.950 . S
C834 C833 1.397 . S
C834 C835 1.334 . S
C835 H812 0.950 . S
C835 C834 1.334 . S
C835 C836 1.287 1_655 S
C836 C835 1.287 1_455 S
C836 C837 1.530 1_455 S
C836 H855 0.913 . S
C837 H813 0.928 1_655 S
C837 C836 1.530 1_655 S
C837 C838 1.434 . S
C838 H814 0.950 . S
C838 C833 1.363 . S
C838 C837 1.434 . S
C839 H815 0.951 . S
C839 C840 1.366 . S
C839 C841 1.388 . S
C840 C839 1.366 . S
C840 C844 1.385 . S
C841 H816 0.951 . S
C841 C839 1.388 . S
C841 C842 1.366 . S
C842 C841 1.366 . S
C842 C843 1.414 . S
C842 C845 1.499 . S
C843 H817 0.950 . S
C843 C842 1.414 . S
C843 C844 1.374 . S
C844 H818 0.950 . S
C844 C840 1.385 . S
C844 C843 1.374 . S
C845 C842 1.499 . S
C845 C846 1.373 . S
C845 C847 1.389 . S
C846 H819 0.950 . S
C846 C832 1.377 . S
C846 C845 1.373 . S
C847 C831 1.377 . S
C847 C845 1.389 . S
C847 C848 1.524 . S
C848 C847 1.524 . S
C848 C849 1.397 . S
C848 C853 1.363 . S
C849 H820 0.950 . S
C849 C848 1.397 . S
C849 C850 1.334 . S
C850 H821 0.950 . S
C850 C849 1.334 . S
C850 C851 1.287 . S
C851 C850 1.287 . S
C851 C852 1.524 . S
C851 H854 0.999 . S
C852 H822 0.950 . S
C852 C851 1.524 . S
C852 C853 1.415 . S
C853 H823 0.950 . S
C853 C848 1.363 . S
C853 C852 1.415 . S
H854 C851 0.999 . S
H855 C836 0.913 . S
H856 C874 0.951 . S
H857 C876 0.951 . S
H858 C878 0.950 . S
H859 C879 0.950 . S
H860 C881 0.950 . S
H861 C884 0.950 . S
H862 C885 0.950 . S
H863 C887 0.950 . S
H864 C888 0.950 . S
H865 C889 0.951 . S
H866 C891 0.951 . S
H867 C893 0.950 . S
H868 C894 0.950 . S
H869 C896 0.950 . S
H870 C899 0.950 . S
H871 C900 0.950 1_545 S
H872 C902 0.950 1_455 S
H873 C903 0.950 . S
C874 H856 0.951 . S
C874 C875 1.366 . S
C874 C876 1.388 . S
C875 C874 1.366 . S
C875 C879 1.385 . S
C876 H857 0.951 . S
C876 C874 1.388 . S
C876 C877 1.366 . S
C877 C876 1.366 . S
C877 C878 1.414 . S
C877 C880 1.499 . S
C878 H858 0.950 . S
C878 C877 1.414 . S
C878 C879 1.374 . S
C879 H859 0.950 . S
C879 C875 1.385 . S
C879 C878 1.374 . S
C880 C877 1.499 . S
C880 C881 1.373 . S
C880 C882 1.389 . S
C881 H860 0.950 . S
C881 C880 1.373 . S
C881 C897 1.377 . S
C882 C880 1.389 . S
C882 C883 1.524 . S
C882 C896 1.377 . S
C883 C882 1.524 . S
C883 C884 1.397 . S
C883 C888 1.363 . S
C884 H861 0.950 . S
C884 C883 1.397 . S
C884 C885 1.334 . S
C885 H862 0.950 . S
C885 C884 1.334 . S
C885 C886 1.287 . S
C886 C885 1.287 . S
C886 C887 1.524 . S
C886 H905 0.913 . S
C887 H863 0.950 . S
C887 C886 1.524 . S
C887 C888 1.415 . S
C888 H864 0.950 . S
C888 C883 1.363 . S
C888 C887 1.415 . S
C889 H865 0.951 . S
C889 C890 1.366 . S
C889 C891 1.388 . S
C890 C889 1.366 . S
C890 C894 1.385 . S
C891 H866 0.951 . S
C891 C889 1.388 . S
C891 C892 1.366 . S
C892 C891 1.366 . S
C892 C893 1.414 . S
C892 C895 1.499 . S
C893 H867 0.950 . S
C893 C892 1.414 . S
C893 C894 1.374 . S
C894 H868 0.950 . S
C894 C890 1.385 . S
C894 C893 1.374 . S
C895 C892 1.499 . S
C895 C896 1.373 . S
C895 C897 1.389 . S
C896 H869 0.950 . S
C896 C882 1.377 . S
C896 C895 1.373 . S
C897 C881 1.377 . S
C897 C895 1.389 . S
C897 C898 1.524 . S
C898 C897 1.524 . S
C898 C899 1.397 . S
C898 C903 1.363 . S
C899 H870 0.950 . S
C899 C898 1.397 . S
C899 C900 1.334 . S
C900 H871 0.950 1_565 S
C900 C899 1.334 . S
C900 C901 1.287 . S
C901 C900 1.287 . S
C901 C902 1.524 . S
C901 H904 0.999 1_655 S
C902 H872 0.950 1_655 S
C902 C901 1.524 . S
C902 C903 1.415 . S
C903 H873 0.950 . S
C903 C898 1.363 . S
C903 C902 1.415 . S
H904 C901 0.999 1_455 S
H905 C886 0.913 . S
H906 C924 0.951 . S
H907 C926 0.951 . S
H908 C928 0.950 . S
H909 C929 0.950 . S
H910 C931 0.950 . S
H911 C934 0.950 . S
H912 C935 0.950 . S
H913 C937 0.950 . S
H914 C938 0.950 . S
H915 C939 0.951 . S
H916 C941 0.951 . S
H917 C943 0.950 . S
H918 C944 0.950 . S
H919 C946 0.950 . S
H920 C949 0.950 . S
H921 C950 0.950 . S
H922 C952 0.950 . S
H923 C953 0.950 . S
C924 H906 0.951 . S
C924 C925 1.366 . S
C924 C926 1.388 . S
C925 C924 1.366 . S
C925 C929 1.385 . S
C926 H907 0.951 . S
C926 C924 1.388 . S
C926 C927 1.366 . S
C927 C926 1.366 . S
C927 C928 1.414 . S
C927 C930 1.499 . S
C928 H908 0.950 . S
C928 C927 1.414 . S
C928 C929 1.374 . S
C929 H909 0.950 . S
C929 C925 1.385 . S
C929 C928 1.374 . S
C930 C927 1.499 . S
C930 C931 1.373 . S
C930 C932 1.389 . S
C931 H910 0.950 . S
C931 C930 1.373 . S
C931 C947 1.377 . S
C932 C930 1.389 . S
C932 C933 1.524 . S
C932 C946 1.377 . S
C933 C932 1.524 . S
C933 C934 1.397 . S
C933 C938 1.363 . S
C934 H911 0.950 . S
C934 C933 1.397 . S
C934 C935 1.334 . S
C935 H912 0.950 . S
C935 C934 1.334 . S
C935 C936 1.287 . S
C936 C935 1.287 . S
C936 C937 1.524 . S
C936 H955 0.913 . S
C937 H913 0.950 . S
C937 C936 1.524 . S
C937 C938 1.415 . S
C938 H914 0.950 . S
C938 C933 1.363 . S
C938 C937 1.415 . S
C939 H915 0.951 . S
C939 C940 1.366 . S
C939 C941 1.388 . S
C940 C939 1.366 . S
C940 C944 1.385 . S
C941 H916 0.951 . S
C941 C939 1.388 . S
C941 C942 1.366 . S
C942 C941 1.366 . S
C942 C943 1.414 . S
C942 C945 1.499 . S
C943 H917 0.950 . S
C943 C942 1.414 . S
C943 C944 1.374 . S
C944 H918 0.950 . S
C944 C940 1.385 . S
C944 C943 1.374 . S
C945 C942 1.499 . S
C945 C946 1.373 . S
C945 C947 1.389 . S
C946 H919 0.950 . S
C946 C932 1.377 . S
C946 C945 1.373 . S
C947 C931 1.377 . S
C947 C945 1.389 . S
C947 C948 1.524 . S
C948 C947 1.524 . S
C948 C949 1.397 . S
C948 C953 1.363 . S
C949 H920 0.950 . S
C949 C948 1.397 . S
C949 C950 1.334 . S
C950 H921 0.950 . S
C950 C949 1.334 . S
C950 C951 1.287 . S
C951 C950 1.287 . S
C951 C952 1.524 . S
C951 H954 0.999 . S
C952 H922 0.950 . S
C952 C951 1.524 . S
C952 C953 1.415 . S
C953 H923 0.950 . S
C953 C948 1.363 . S
C953 C952 1.415 . S
H954 C951 0.999 . S
H955 C936 0.913 . S
H956 C974 0.951 . S
H957 C976 0.951 . S
H958 C978 0.950 . S
H959 C979 0.950 . S
H960 C981 0.950 . S
H961 C984 0.950 . S
H962 C985 0.950 . S
H963 C987 0.950 . S
H964 C988 0.950 . S
H965 C989 0.951 . S
H966 C991 0.951 . S
H967 C993 0.950 . S
H968 C994 0.950 1_455 S
H969 C996 0.950 . S
H970 C999 0.950 . S
H971 C1000 0.950 . S
H972 C1002 0.950 . S
H973 C1003 0.950 . S
C974 H956 0.951 . S
C974 C975 1.366 . S
C974 C976 1.388 . S
C975 C974 1.366 . S
C975 C979 1.385 . S
C976 H957 0.951 . S
C976 C974 1.388 . S
C976 C977 1.366 . S
C977 C976 1.366 . S
C977 C978 1.414 . S
C977 C980 1.499 . S
C978 H958 0.950 . S
C978 C977 1.414 . S
C978 C979 1.374 . S
C979 H959 0.950 . S
C979 C975 1.385 . S
C979 C978 1.374 . S
C980 C977 1.499 . S
C980 C981 1.373 . S
C980 C982 1.389 . S
C981 H960 0.950 . S
C981 C980 1.373 . S
C981 C997 1.377 . S
C982 C980 1.389 . S
C982 C983 1.524 . S
C982 C996 1.377 . S
C983 C982 1.524 . S
C983 C984 1.397 . S
C983 C988 1.363 . S
C984 H961 0.950 . S
C984 C983 1.397 . S
C984 C985 1.334 . S
C985 H962 0.950 . S
C985 C984 1.334 . S
C985 C986 1.287 . S
C986 C985 1.287 . S
C986 C987 1.524 . S
C986 H1005 0.913 . S
C987 H963 0.950 . S
C987 C986 1.524 . S
C987 C988 1.415 . S
C988 H964 0.950 . S
C988 C983 1.363 . S
C988 C987 1.415 . S
C989 H965 0.951 . S
C989 C990 1.366 . S
C989 C991 1.388 . S
C990 C989 1.366 . S
C990 C994 1.385 . S
C991 H966 0.951 . S
C991 C989 1.388 . S
C991 C992 1.366 . S
C992 C991 1.366 . S
C992 C993 1.414 . S
C992 C995 1.499 . S
C993 H967 0.950 . S
C993 C992 1.414 . S
C993 C994 1.374 . S
C994 H968 0.950 1_655 S
C994 C990 1.385 . S
C994 C993 1.374 . S
C995 C992 1.499 . S
C995 C996 1.373 . S
C995 C997 1.389 . S
C996 H969 0.950 . S
C996 C982 1.377 . S
C996 C995 1.373 . S
C997 C981 1.377 . S
C997 C995 1.389 . S
C997 C998 1.524 . S
C998 C997 1.524 . S
C998 C999 1.397 . S
C998 C1003 1.363 . S
C999 H970 0.950 . S
C999 C998 1.397 . S
C999 C1000 1.334 . S
C1000 H971 0.950 . S
C1000 C999 1.334 . S
C1000 C1001 1.287 . S
C1001 C1000 1.287 . S
C1001 C1002 1.524 . S
C1001 H1004 0.999 1_554 S
C1002 H972 0.950 . S
C1002 C1001 1.524 . S
C1002 C1003 1.415 . S
C1003 H973 0.950 . S
C1003 C998 1.363 . S
C1003 C1002 1.415 . S
H1004 C1001 0.999 1_556 S
H1005 C986 0.913 . S
H1006 C1024 0.951 . S
H1007 C1026 0.951 . S
H1008 C1028 0.950 . S
H1009 C1029 0.950 . S
H1010 C1031 0.950 . S
H1011 C1034 0.950 . S
H1012 C1035 0.950 . S
H1013 C1037 0.950 . S
H1014 C1038 0.950 . S
H1015 C1039 0.951 1_545 S
H1016 C1041 0.951 . S
H1017 C1043 0.950 . S
H1018 C1044 0.950 . S
H1019 C1046 0.950 . S
H1020 C1049 0.950 . S
H1021 C1050 0.950 . S
H1022 C1052 0.950 . S
H1023 C1053 0.950 . S
C1024 H1006 0.951 . S
C1024 C1025 1.366 . S
C1024 C1026 1.388 . S
C1025 C1024 1.366 . S
C1025 C1029 1.385 . S
C1026 H1007 0.951 . S
C1026 C1024 1.388 . S
C1026 C1027 1.366 . S
C1027 C1026 1.366 . S
C1027 C1028 1.414 . S
C1027 C1030 1.499 . S
C1028 H1008 0.950 . S
C1028 C1027 1.414 . S
C1028 C1029 1.374 . S
C1029 H1009 0.950 . S
C1029 C1025 1.385 . S
C1029 C1028 1.374 . S
C1030 C1027 1.499 . S
C1030 C1031 1.373 . S
C1030 C1032 1.389 . S
C1031 H1010 0.950 . S
C1031 C1030 1.373 . S
C1031 C1047 1.377 . S
C1032 C1030 1.389 . S
C1032 C1033 1.524 . S
C1032 C1046 1.377 . S
C1033 C1032 1.524 . S
C1033 C1034 1.397 . S
C1033 C1038 1.363 . S
C1034 H1011 0.950 . S
C1034 C1033 1.397 . S
C1034 C1035 1.334 . S
C1035 H1012 0.950 . S
C1035 C1034 1.334 . S
C1035 C1036 1.287 . S
C1036 C1035 1.287 . S
C1036 C1037 1.524 . S
C1036 H1055 0.913 . S
C1037 H1013 0.950 . S
C1037 C1036 1.524 . S
C1037 C1038 1.415 . S
C1038 H1014 0.950 . S
C1038 C1033 1.363 . S
C1038 C1037 1.415 . S
C1039 H1015 0.951 1_565 S
C1039 C1040 1.366 . S
C1039 C1041 1.388 . S
C1040 C1039 1.366 . S
C1040 C1044 1.385 . S
C1041 H1016 0.951 . S
C1041 C1039 1.388 . S
C1041 C1042 1.366 . S
C1042 C1041 1.366 . S
C1042 C1043 1.414 . S
C1042 C1045 1.499 . S
C1043 H1017 0.950 . S
C1043 C1042 1.414 . S
C1043 C1044 1.374 . S
C1044 H1018 0.950 . S
C1044 C1040 1.385 . S
C1044 C1043 1.374 . S
C1045 C1042 1.499 . S
C1045 C1046 1.373 . S
C1045 C1047 1.389 . S
C1046 H1019 0.950 . S
C1046 C1032 1.377 . S
C1046 C1045 1.373 . S
C1047 C1031 1.377 . S
C1047 C1045 1.389 . S
C1047 C1048 1.524 . S
C1048 C1047 1.524 . S
C1048 C1049 1.397 . S
C1048 C1053 1.363 . S
C1049 H1020 0.950 . S
C1049 C1048 1.397 . S
C1049 C1050 1.334 . S
C1050 H1021 0.950 . S
C1050 C1049 1.334 . S
C1050 C1051 1.287 . S
C1051 C1050 1.287 . S
C1051 C1052 1.524 . S
C1051 H1054 0.999 . S
C1052 H1022 0.950 . S
C1052 C1051 1.524 . S
C1052 C1053 1.415 . S
C1053 H1023 0.950 . S
C1053 C1048 1.363 . S
C1053 C1052 1.415 . S
H1054 C1051 0.999 . S
H1055 C1036 0.913 . S
H1056 C1074 0.951 . S
H1057 C1076 0.951 . S
H1058 C1078 0.950 . S
H1059 C1079 0.950 . S
H1060 C1081 0.950 . S
H1061 C1084 0.950 . S
H1062 C1085 0.950 . S
H1063 C1087 0.950 . S
H1064 C1088 0.950 . S
H1065 C1089 0.951 . S
H1066 C1091 0.951 . S
H1067 C1093 0.950 . S
H1068 C1094 0.950 . S
H1069 C1096 0.950 . S
H1070 C1099 0.950 . S
H1071 C1100 0.950 . S
H1072 C1102 0.950 . S
H1073 C1103 0.950 . S
C1074 H1056 0.951 . S
C1074 C1075 1.366 . S
C1074 C1076 1.388 . S
C1075 C1074 1.366 . S
C1075 C1079 1.385 . S
C1076 H1057 0.951 . S
C1076 C1074 1.388 . S
C1076 C1077 1.366 . S
C1077 C1076 1.366 . S
C1077 C1078 1.414 . S
C1077 C1080 1.499 . S
C1078 H1058 0.950 . S
C1078 C1077 1.414 . S
C1078 C1079 1.374 . S
C1079 H1059 0.950 . S
C1079 C1075 1.385 . S
C1079 C1078 1.374 . S
C1080 C1077 1.499 . S
C1080 C1081 1.373 . S
C1080 C1082 1.389 . S
C1081 H1060 0.950 . S
C1081 C1080 1.373 . S
C1081 C1097 1.377 . S
C1082 C1080 1.389 . S
C1082 C1083 1.524 . S
C1082 C1096 1.377 . S
C1083 C1082 1.524 . S
C1083 C1084 1.397 . S
C1083 C1088 1.363 . S
C1084 H1061 0.950 . S
C1084 C1083 1.397 . S
C1084 C1085 1.334 . S
C1085 H1062 0.950 . S
C1085 C1084 1.334 . S
C1085 C1086 1.287 . S
C1086 C1085 1.287 . S
C1086 C1087 1.524 . S
C1086 H1105 0.913 . S
C1087 H1063 0.950 . S
C1087 C1086 1.524 . S
C1087 C1088 1.415 . S
C1088 H1064 0.950 . S
C1088 C1083 1.363 . S
C1088 C1087 1.415 . S
C1089 H1065 0.951 . S
C1089 C1090 1.366 . S
C1089 C1091 1.388 . S
C1090 C1089 1.366 . S
C1090 C1094 1.385 . S
C1091 H1066 0.951 . S
C1091 C1089 1.388 . S
C1091 C1092 1.366 . S
C1092 C1091 1.366 . S
C1092 C1093 1.414 . S
C1092 C1095 1.499 . S
C1093 H1067 0.950 . S
C1093 C1092 1.414 . S
C1093 C1094 1.374 . S
C1094 H1068 0.950 . S
C1094 C1090 1.385 . S
C1094 C1093 1.374 . S
C1095 C1092 1.499 . S
C1095 C1096 1.373 . S
C1095 C1097 1.389 . S
C1096 H1069 0.950 . S
C1096 C1082 1.377 . S
C1096 C1095 1.373 . S
C1097 C1081 1.377 . S
C1097 C1095 1.389 . S
C1097 C1098 1.524 . S
C1098 C1097 1.524 . S
C1098 C1099 1.397 . S
C1098 C1103 1.363 . S
C1099 H1070 0.950 . S
C1099 C1098 1.397 . S
C1099 C1100 1.334 . S
C1100 H1071 0.950 . S
C1100 C1099 1.334 . S
C1100 C1101 1.287 . S
C1101 C1100 1.287 . S
C1101 C1102 1.524 . S
C1101 H1104 0.999 . S
C1102 H1072 0.950 . S
C1102 C1101 1.524 . S
C1102 C1103 1.415 . S
C1103 H1073 0.950 . S
C1103 C1098 1.363 . S
C1103 C1102 1.415 . S
H1104 C1101 0.999 . S
H1105 C1086 0.913 . S
H1106 C1124 0.951 . S
H1107 C1126 0.951 . S
H1108 C1128 0.950 . S
H1109 C1129 0.950 . S
H1110 C1131 0.950 . S
H1111 C1134 0.950 . S
H1112 C1135 0.950 . S
H1113 C1137 0.950 . S
H1114 C1138 0.950 . S
H1115 C1139 0.951 1_545 S
H1116 C1141 0.951 . S
H1117 C1143 0.950 . S
H1118 C1144 0.950 . S
H1119 C1146 0.950 . S
H1120 C1149 0.950 . S
H1121 C1150 0.950 . S
H1122 C1152 0.950 . S
H1123 C1153 0.950 . S
C1124 H1106 0.951 . S
C1124 C1125 1.366 . S
C1124 C1126 1.388 . S
C1125 C1124 1.366 . S
C1125 C1129 1.385 . S
C1126 H1107 0.951 . S
C1126 C1124 1.388 . S
C1126 C1127 1.366 . S
C1127 C1126 1.366 . S
C1127 C1128 1.414 . S
C1127 C1130 1.499 . S
C1128 H1108 0.950 . S
C1128 C1127 1.414 . S
C1128 C1129 1.374 . S
C1129 H1109 0.950 . S
C1129 C1125 1.385 . S
C1129 C1128 1.374 . S
C1130 C1127 1.499 . S
C1130 C1131 1.373 . S
C1130 C1132 1.389 . S
C1131 H1110 0.950 . S
C1131 C1130 1.373 . S
C1131 C1147 1.377 . S
C1132 C1130 1.389 . S
C1132 C1133 1.524 . S
C1132 C1146 1.377 . S
C1133 C1132 1.524 . S
C1133 C1134 1.397 . S
C1133 C1138 1.363 . S
C1134 H1111 0.950 . S
C1134 C1133 1.397 . S
C1134 C1135 1.334 . S
C1135 H1112 0.950 . S
C1135 C1134 1.334 . S
C1135 C1136 1.287 . S
C1136 C1135 1.287 . S
C1136 C1137 1.524 . S
C1136 H1155 0.913 . S
C1137 H1113 0.950 . S
C1137 C1136 1.524 . S
C1137 C1138 1.415 . S
C1138 H1114 0.950 . S
C1138 C1133 1.363 . S
C1138 C1137 1.415 . S
C1139 H1115 0.951 1_565 S
C1139 C1140 1.366 . S
C1139 C1141 1.388 . S
C1140 C1139 1.366 . S
C1140 C1144 1.385 . S
C1141 H1116 0.951 . S
C1141 C1139 1.388 . S
C1141 C1142 1.366 . S
C1142 C1141 1.366 . S
C1142 C1143 1.414 . S
C1142 C1145 1.499 . S
C1143 H1117 0.950 . S
C1143 C1142 1.414 . S
C1143 C1144 1.374 . S
C1144 H1118 0.950 . S
C1144 C1140 1.385 . S
C1144 C1143 1.374 . S
C1145 C1142 1.499 . S
C1145 C1146 1.373 . S
C1145 C1147 1.389 . S
C1146 H1119 0.950 . S
C1146 C1132 1.377 . S
C1146 C1145 1.373 . S
C1147 C1131 1.377 . S
C1147 C1145 1.389 . S
C1147 C1148 1.524 . S
C1148 C1147 1.524 . S
C1148 C1149 1.397 . S
C1148 C1153 1.363 . S
C1149 H1120 0.950 . S
C1149 C1148 1.397 . S
C1149 C1150 1.334 . S
C1150 H1121 0.950 . S
C1150 C1149 1.334 . S
C1150 C1151 1.287 . S
C1151 C1150 1.287 . S
C1151 C1152 1.524 . S
C1151 H1154 0.999 . S
C1152 H1122 0.950 . S
C1152 C1151 1.524 . S
C1152 C1153 1.415 . S
C1153 H1123 0.950 . S
C1153 C1148 1.363 . S
C1153 C1152 1.415 . S
H1154 C1151 0.999 . S
H1155 C1136 0.913 . S
H1156 C1174 0.951 . S
H1157 C1176 0.951 . S
H1158 C1178 0.950 . S
H1159 C1179 0.950 . S
H1160 C1181 0.950 . S
H1161 C1184 0.950 . S
H1162 C1185 0.950 . S
H1163 C1187 0.950 . S
H1164 C1188 0.950 . S
H1165 C1189 0.951 . S
H1166 C1191 0.951 . S
H1167 C1193 0.950 . S
H1168 C1194 0.950 1_554 S
H1169 C1196 0.950 . S
H1170 C1199 0.950 . S
H1171 C1200 0.950 . S
H1172 C1202 0.950 . S
H1173 C1203 0.950 . S
C1174 H1156 0.951 . S
C1174 C1175 1.366 . S
C1174 C1176 1.388 . S
C1175 C1174 1.366 . S
C1175 C1179 1.385 . S
C1176 H1157 0.951 . S
C1176 C1174 1.388 . S
C1176 C1177 1.366 . S
C1177 C1176 1.366 . S
C1177 C1178 1.414 . S
C1177 C1180 1.499 . S
C1178 H1158 0.950 . S
C1178 C1177 1.414 . S
C1178 C1179 1.374 . S
C1179 H1159 0.950 . S
C1179 C1175 1.385 . S
C1179 C1178 1.374 . S
C1180 C1177 1.499 . S
C1180 C1181 1.373 . S
C1180 C1182 1.389 . S
C1181 H1160 0.950 . S
C1181 C1180 1.373 . S
C1181 C1197 1.377 . S
C1182 C1180 1.389 . S
C1182 C1183 1.524 . S
C1182 C1196 1.377 . S
C1183 C1182 1.524 . S
C1183 C1184 1.397 . S
C1183 C1188 1.363 . S
C1184 H1161 0.950 . S
C1184 C1183 1.397 . S
C1184 C1185 1.334 . S
C1185 H1162 0.950 . S
C1185 C1184 1.334 . S
C1185 C1186 1.287 . S
C1186 C1185 1.287 . S
C1186 C1187 1.524 . S
C1186 H1205 0.913 . S
C1187 H1163 0.950 . S
C1187 C1186 1.524 . S
C1187 C1188 1.415 . S
C1188 H1164 0.950 . S
C1188 C1183 1.363 . S
C1188 C1187 1.415 . S
C1189 H1165 0.951 . S
C1189 C1190 1.366 . S
C1189 C1191 1.388 . S
C1190 C1189 1.366 . S
C1190 C1194 1.385 . S
C1191 H1166 0.951 . S
C1191 C1189 1.388 . S
C1191 C1192 1.366 . S
C1192 C1191 1.366 . S
C1192 C1193 1.414 . S
C1192 C1195 1.499 . S
C1193 H1167 0.950 . S
C1193 C1192 1.414 . S
C1193 C1194 1.374 . S
C1194 H1168 0.950 1_556 S
C1194 C1190 1.385 . S
C1194 C1193 1.374 . S
C1195 C1192 1.499 . S
C1195 C1196 1.373 . S
C1195 C1197 1.389 . S
C1196 H1169 0.950 . S
C1196 C1182 1.377 . S
C1196 C1195 1.373 . S
C1197 C1181 1.377 . S
C1197 C1195 1.389 . S
C1197 C1198 1.524 . S
C1198 C1197 1.524 . S
C1198 C1199 1.397 . S
C1198 C1203 1.363 . S
C1199 H1170 0.950 . S
C1199 C1198 1.397 . S
C1199 C1200 1.334 . S
C1200 H1171 0.950 . S
C1200 C1199 1.334 . S
C1200 C1201 1.287 . S
C1201 C1200 1.287 . S
C1201 C1202 1.524 . S
C1201 H1204 0.999 . S
C1202 H1172 0.950 . S
C1202 C1201 1.524 . S
C1202 C1203 1.415 . S
C1203 H1173 0.950 . S
C1203 C1198 1.363 . S
C1203 C1202 1.415 . S
H1204 C1201 0.999 . S
H1205 C1186 0.913 . S
H1206 C1224 0.951 . S
H1207 C1226 0.951 . S
H1208 C1228 0.950 . S
H1209 C1229 0.950 . S
H1210 C1231 0.950 . S
H1211 C1234 0.950 . S
H1212 C1235 0.950 . S
H1213 C1237 0.950 . S
H1214 C1238 0.950 . S
H1215 C1239 0.951 . S
H1216 C1241 0.951 . S
H1217 C1243 0.950 . S
H1218 C1244 0.950 . S
H1219 C1246 0.950 . S
H1220 C1249 0.950 . S
H1221 C1250 0.950 . S
H1222 C1252 0.950 . S
H1223 C1253 0.950 . S
C1224 H1206 0.951 . S
C1224 C1225 1.366 . S
C1224 C1226 1.388 . S
C1225 C1224 1.366 . S
C1225 C1229 1.385 . S
C1226 H1207 0.951 . S
C1226 C1224 1.388 . S
C1226 C1227 1.366 . S
C1227 C1226 1.366 . S
C1227 C1228 1.414 . S
C1227 C1230 1.499 . S
C1228 H1208 0.950 . S
C1228 C1227 1.414 . S
C1228 C1229 1.374 . S
C1229 H1209 0.950 . S
C1229 C1225 1.385 . S
C1229 C1228 1.374 . S
C1230 C1227 1.499 . S
C1230 C1231 1.373 . S
C1230 C1232 1.389 . S
C1231 H1210 0.950 . S
C1231 C1230 1.373 . S
C1231 C1247 1.377 . S
C1232 C1230 1.389 . S
C1232 C1233 1.524 . S
C1232 C1246 1.377 . S
C1233 C1232 1.524 . S
C1233 C1234 1.397 . S
C1233 C1238 1.363 . S
C1234 H1211 0.950 . S
C1234 C1233 1.397 . S
C1234 C1235 1.334 . S
C1235 H1212 0.950 . S
C1235 C1234 1.334 . S
C1235 C1236 1.287 . S
C1236 C1235 1.287 . S
C1236 C1237 1.524 . S
C1236 H1255 0.913 . S
C1237 H1213 0.950 . S
C1237 C1236 1.524 . S
C1237 C1238 1.415 . S
C1238 H1214 0.950 . S
C1238 C1233 1.363 . S
C1238 C1237 1.415 . S
C1239 H1215 0.951 . S
C1239 C1240 1.366 . S
C1239 C1241 1.388 . S
C1240 C1239 1.366 . S
C1240 C1244 1.385 . S
C1241 H1216 0.951 . S
C1241 C1239 1.388 . S
C1241 C1242 1.366 . S
C1242 C1241 1.366 . S
C1242 C1243 1.414 . S
C1242 C1245 1.499 . S
C1243 H1217 0.950 . S
C1243 C1242 1.414 . S
C1243 C1244 1.374 . S
C1244 H1218 0.950 . S
C1244 C1240 1.385 . S
C1244 C1243 1.374 . S
C1245 C1242 1.499 . S
C1245 C1246 1.373 . S
C1245 C1247 1.389 . S
C1246 H1219 0.950 . S
C1246 C1232 1.377 . S
C1246 C1245 1.373 . S
C1247 C1231 1.377 . S
C1247 C1245 1.389 . S
C1247 C1248 1.524 . S
C1248 C1247 1.524 . S
C1248 C1249 1.397 . S
C1248 C1253 1.363 . S
C1249 H1220 0.950 . S
C1249 C1248 1.397 . S
C1249 C1250 1.334 . S
C1250 H1221 0.950 . S
C1250 C1249 1.334 . S
C1250 C1251 1.287 . S
C1251 C1250 1.287 . S
C1251 C1252 1.524 . S
C1251 H1254 0.999 1_556 S
C1252 H1222 0.950 . S
C1252 C1251 1.524 . S
C1252 C1253 1.415 . S
C1253 H1223 0.950 . S
C1253 C1248 1.363 . S
C1253 C1252 1.415 . S
H1254 C1251 0.999 1_554 S
H1255 C1236 0.913 . S
H1256 C1274 0.951 . S
H1257 C1276 0.951 . S
H1258 C1278 0.950 . S
H1259 C1279 0.950 . S
H1260 C1281 0.950 . S
H1261 C1284 0.950 . S
H1262 C1285 0.950 . S
H1263 C1287 0.950 . S
H1264 C1288 0.950 . S
H1265 C1289 0.941 1_554 S
H1266 C1291 0.951 . S
H1267 C1293 0.950 . S
H1268 C1294 0.950 . S
H1269 C1296 0.950 . S
H1270 C1299 0.950 . S
H1271 C1300 0.950 . S
H1272 C1302 0.950 . S
H1273 C1303 0.950 . S
C1274 H1256 0.951 . S
C1274 C1275 1.366 . S
C1274 C1276 1.388 . S
C1275 C1274 1.366 . S
C1275 C1279 1.385 . S
C1276 H1257 0.951 . S
C1276 C1274 1.388 . S
C1276 C1277 1.366 . S
C1277 C1276 1.366 . S
C1277 C1278 1.414 . S
C1277 C1280 1.499 . S
C1278 H1258 0.950 . S
C1278 C1277 1.414 . S
C1278 C1279 1.374 . S
C1279 H1259 0.950 . S
C1279 C1275 1.385 . S
C1279 C1278 1.374 . S
C1280 C1277 1.499 . S
C1280 C1281 1.373 . S
C1280 C1282 1.389 . S
C1281 H1260 0.950 . S
C1281 C1280 1.373 . S
C1281 C1297 1.377 . S
C1282 C1280 1.389 . S
C1282 C1283 1.524 . S
C1282 C1296 1.377 . S
C1283 C1282 1.524 . S
C1283 C1284 1.397 . S
C1283 C1288 1.363 . S
C1284 H1261 0.950 . S
C1284 C1283 1.397 . S
C1284 C1285 1.334 . S
C1285 H1262 0.950 . S
C1285 C1284 1.334 . S
C1285 C1286 1.287 . S
C1286 C1285 1.287 . S
C1286 C1287 1.524 . S
C1286 H1305 0.913 . S
C1287 H1263 0.950 . S
C1287 C1286 1.524 . S
C1287 C1288 1.415 . S
C1288 H1264 0.950 . S
C1288 C1283 1.363 . S
C1288 C1287 1.415 . S
C1289 H1265 0.941 1_556 S
C1289 C1290 1.364 . S
C1289 C1291 1.400 . S
C1290 C1289 1.364 . S
C1290 C1294 1.385 . S
C1291 H1266 0.951 . S
C1291 C1289 1.400 . S
C1291 C1292 1.366 . S
C1292 C1291 1.366 . S
C1292 C1293 1.414 . S
C1292 C1295 1.499 . S
C1293 H1267 0.950 . S
C1293 C1292 1.414 . S
C1293 C1294 1.374 . S
C1294 H1268 0.950 . S
C1294 C1290 1.385 . S
C1294 C1293 1.374 . S
C1295 C1292 1.499 . S
C1295 C1296 1.373 . S
C1295 C1297 1.389 . S
C1296 H1269 0.950 . S
C1296 C1282 1.377 . S
C1296 C1295 1.373 . S
C1297 C1281 1.377 . S
C1297 C1295 1.389 . S
C1297 C1298 1.524 . S
C1298 C1297 1.524 . S
C1298 C1299 1.397 . S
C1298 C1303 1.363 . S
C1299 H1270 0.950 . S
C1299 C1298 1.397 . S
C1299 C1300 1.334 . S
C1300 H1271 0.950 . S
C1300 C1299 1.334 . S
C1300 C1301 1.287 1_655 S
C1301 C1300 1.287 1_455 S
C1301 C1302 1.524 . S
C1301 H1304 0.999 . S
C1302 H1272 0.950 . S
C1302 C1301 1.524 . S
C1302 C1303 1.415 1_455 S
C1303 H1273 0.950 . S
C1303 C1298 1.363 . S
C1303 C1302 1.415 1_655 S
H1304 C1301 0.999 . S
H1305 C1286 0.913 . S
H1306 C1324 0.951 . S
H1307 C1326 0.951 . S
H1308 C1328 0.950 . S
H1309 C1329 0.950 . S
H1310 C1331 0.950 . S
H1311 C1334 0.950 . S
H1312 C1335 0.950 . S
H1313 C1337 0.950 . S
H1314 C1338 0.950 . S
H1315 C1339 0.951 . S
H1316 C1341 0.951 . S
H1317 C1343 0.950 . S
H1318 C1344 0.950 . S
H1319 C1346 0.950 . S
H1320 C1349 0.950 . S
H1321 C1350 0.950 . S
H1322 C1352 0.950 . S
H1323 C1353 0.950 . S
C1324 H1306 0.951 . S
C1324 C1325 1.366 . S
C1324 C1326 1.388 . S
C1325 C1324 1.366 . S
C1325 C1329 1.385 . S
C1326 H1307 0.951 . S
C1326 C1324 1.388 . S
C1326 C1327 1.366 . S
C1327 C1326 1.366 . S
C1327 C1328 1.414 . S
C1327 C1330 1.499 . S
C1328 H1308 0.950 . S
C1328 C1327 1.414 . S
C1328 C1329 1.374 . S
C1329 H1309 0.950 . S
C1329 C1325 1.385 . S
C1329 C1328 1.374 . S
C1330 C1327 1.499 . S
C1330 C1331 1.373 . S
C1330 C1332 1.389 . S
C1331 H1310 0.950 . S
C1331 C1330 1.373 . S
C1331 C1347 1.377 . S
C1332 C1330 1.389 . S
C1332 C1333 1.524 . S
C1332 C1346 1.377 . S
C1333 C1332 1.524 . S
C1333 C1334 1.397 . S
C1333 C1338 1.363 . S
C1334 H1311 0.950 . S
C1334 C1333 1.397 . S
C1334 C1335 1.334 . S
C1335 H1312 0.950 . S
C1335 C1334 1.334 . S
C1335 C1336 1.287 . S
C1336 C1335 1.287 . S
C1336 C1337 1.524 . S
C1336 H1355 0.913 . S
C1337 H1313 0.950 . S
C1337 C1336 1.524 . S
C1337 C1338 1.415 . S
C1338 H1314 0.950 . S
C1338 C1333 1.363 . S
C1338 C1337 1.415 . S
C1339 H1315 0.951 . S
C1339 C1340 1.366 . S
C1339 C1341 1.388 . S
C1340 C1339 1.366 . S
C1340 C1344 1.385 . S
C1341 H1316 0.951 . S
C1341 C1339 1.388 . S
C1341 C1342 1.366 . S
C1342 C1341 1.366 . S
C1342 C1343 1.414 . S
C1342 C1345 1.499 . S
C1343 H1317 0.950 . S
C1343 C1342 1.414 . S
C1343 C1344 1.374 . S
C1344 H1318 0.950 . S
C1344 C1340 1.385 . S
C1344 C1343 1.374 . S
C1345 C1342 1.499 . S
C1345 C1346 1.373 . S
C1345 C1347 1.389 . S
C1346 H1319 0.950 . S
C1346 C1332 1.377 . S
C1346 C1345 1.373 . S
C1347 C1331 1.377 . S
C1347 C1345 1.389 . S
C1347 C1348 1.524 . S
C1348 C1347 1.524 . S
C1348 C1349 1.397 . S
C1348 C1353 1.363 . S
C1349 H1320 0.950 . S
C1349 C1348 1.397 . S
C1349 C1350 1.334 . S
C1350 H1321 0.950 . S
C1350 C1349 1.334 . S
C1350 C1351 1.287 . S
C1351 C1350 1.287 . S
C1351 C1352 1.524 . S
C1351 H1354 0.999 . S
C1352 H1322 0.950 . S
C1352 C1351 1.524 . S
C1352 C1353 1.415 . S
C1353 H1323 0.950 . S
C1353 C1348 1.363 . S
C1353 C1352 1.415 . S
H1354 C1351 0.999 . S
H1355 C1336 0.913 . S
H1356 C1374 0.951 . S
H1357 C1376 0.951 . S
H1358 C1378 0.950 . S
H1359 C1379 0.950 . S
H1360 C1381 0.950 . S
H1361 C1384 0.950 . S
H1362 C1385 0.950 . S
H1363 C1387 0.950 . S
H1364 C1388 0.950 . S
H1365 C1389 0.951 . S
H1366 C1391 0.951 . S
H1367 C1393 0.950 . S
H1368 C1394 0.950 . S
H1369 C1396 0.950 . S
H1370 C1399 0.950 . S
H1371 C1400 0.950 . S
H1372 C1402 0.950 . S
H1373 C1403 0.950 . S
C1374 H1356 0.951 . S
C1374 C1375 1.366 . S
C1374 C1376 1.388 . S
C1375 C1374 1.366 . S
C1375 C1379 1.385 . S
C1376 H1357 0.951 . S
C1376 C1374 1.388 . S
C1376 C1377 1.366 . S
C1377 C1376 1.366 . S
C1377 C1378 1.414 . S
C1377 C1380 1.499 . S
C1378 H1358 0.950 . S
C1378 C1377 1.414 . S
C1378 C1379 1.374 . S
C1379 H1359 0.950 . S
C1379 C1375 1.385 . S
C1379 C1378 1.374 . S
C1380 C1377 1.499 . S
C1380 C1381 1.373 . S
C1380 C1382 1.389 . S
C1381 H1360 0.950 . S
C1381 C1380 1.373 . S
C1381 C1397 1.377 . S
C1382 C1380 1.389 . S
C1382 C1383 1.524 . S
C1382 C1396 1.377 . S
C1383 C1382 1.524 . S
C1383 C1384 1.397 . S
C1383 C1388 1.363 . S
C1384 H1361 0.950 . S
C1384 C1383 1.397 . S
C1384 C1385 1.334 . S
C1385 H1362 0.950 . S
C1385 C1384 1.334 . S
C1385 C1386 1.287 . S
C1386 C1385 1.287 . S
C1386 C1387 1.524 . S
C1386 H1405 0.913 . S
C1387 H1363 0.950 . S
C1387 C1386 1.524 . S
C1387 C1388 1.415 . S
C1388 H1364 0.950 . S
C1388 C1383 1.363 . S
C1388 C1387 1.415 . S
C1389 H1365 0.951 . S
C1389 C1390 1.366 . S
C1389 C1391 1.388 1_554 S
C1390 C1389 1.366 . S
C1390 C1394 1.385 1_554 S
C1391 H1366 0.951 . S
C1391 C1389 1.388 1_556 S
C1391 C1392 1.366 . S
C1392 C1391 1.366 . S
C1392 C1393 1.414 . S
C1392 C1395 1.499 . S
C1393 H1367 0.950 . S
C1393 C1392 1.414 . S
C1393 C1394 1.374 . S
C1394 H1368 0.950 . S
C1394 C1390 1.385 1_556 S
C1394 C1393 1.374 . S
C1395 C1392 1.499 . S
C1395 C1396 1.373 . S
C1395 C1397 1.389 . S
C1396 H1369 0.950 . S
C1396 C1382 1.377 . S
C1396 C1395 1.373 . S
C1397 C1381 1.377 . S
C1397 C1395 1.389 . S
C1397 C1398 1.524 . S
C1398 C1397 1.524 . S
C1398 C1399 1.397 . S
C1398 C1403 1.363 . S
C1399 H1370 0.950 . S
C1399 C1398 1.397 . S
C1399 C1400 1.334 . S
C1400 H1371 0.950 . S
C1400 C1399 1.334 . S
C1400 C1401 1.287 . S
C1401 C1400 1.287 . S
C1401 C1402 1.524 . S
C1401 H1404 0.999 . S
C1402 H1372 0.950 . S
C1402 C1401 1.524 . S
C1402 C1403 1.415 . S
C1403 H1373 0.950 . S
C1403 C1398 1.363 . S
C1403 C1402 1.415 . S
H1404 C1401 0.999 . S
H1405 C1386 0.913 . S
H1406 C1424 0.951 . S
H1407 C1426 0.951 . S
H1408 C1428 0.950 . S
H1409 C1429 0.950 . S
H1410 C1431 0.950 . S
H1411 C1434 0.950 . S
H1412 C1435 0.950 . S
H1413 C1437 0.950 . S
H1414 C1438 0.950 . S
H1415 C1439 0.951 . S
H1416 C1441 0.951 . S
H1417 C1443 0.950 . S
H1418 C1444 0.950 . S
H1419 C1446 0.950 . S
H1420 C1449 0.950 . S
H1421 C1450 0.950 . S
H1422 C1452 0.950 . S
H1423 C1453 0.950 . S
C1424 H1406 0.951 . S
C1424 C1425 1.366 . S
C1424 C1426 1.388 . S
C1425 C1424 1.366 . S
C1425 C1429 1.385 . S
C1426 H1407 0.951 . S
C1426 C1424 1.388 . S
C1426 C1427 1.366 . S
C1427 C1426 1.366 . S
C1427 C1428 1.414 . S
C1427 C1430 1.499 . S
C1428 H1408 0.950 . S
C1428 C1427 1.414 . S
C1428 C1429 1.374 . S
C1429 H1409 0.950 . S
C1429 C1425 1.385 . S
C1429 C1428 1.374 . S
C1430 C1427 1.499 . S
C1430 C1431 1.373 . S
C1430 C1432 1.389 . S
C1431 H1410 0.950 . S
C1431 C1430 1.373 . S
C1431 C1447 1.377 . S
C1432 C1430 1.389 . S
C1432 C1433 1.524 . S
C1432 C1446 1.377 . S
C1433 C1432 1.524 . S
C1433 C1434 1.397 . S
C1433 C1438 1.363 . S
C1434 H1411 0.950 . S
C1434 C1433 1.397 . S
C1434 C1435 1.334 . S
C1435 H1412 0.950 . S
C1435 C1434 1.334 . S
C1435 C1436 1.287 . S
C1436 C1435 1.287 . S
C1436 C1437 1.524 . S
C1436 H1455 0.913 . S
C1437 H1413 0.950 . S
C1437 C1436 1.524 . S
C1437 C1438 1.415 . S
C1438 H1414 0.950 . S
C1438 C1433 1.363 . S
C1438 C1437 1.415 . S
C1439 H1415 0.951 . S
C1439 C1440 1.366 . S
C1439 C1441 1.388 . S
C1440 C1439 1.366 . S
C1440 C1444 1.385 . S
C1441 H1416 0.951 . S
C1441 C1439 1.388 . S
C1441 C1442 1.366 . S
C1442 C1441 1.366 . S
C1442 C1443 1.414 . S
C1442 C1445 1.499 . S
C1443 H1417 0.950 . S
C1443 C1442 1.414 . S
C1443 C1444 1.374 . S
C1444 H1418 0.950 . S
C1444 C1440 1.385 . S
C1444 C1443 1.374 . S
C1445 C1442 1.499 . S
C1445 C1446 1.373 . S
C1445 C1447 1.389 . S
C1446 H1419 0.950 . S
C1446 C1432 1.377 . S
C1446 C1445 1.373 . S
C1447 C1431 1.377 . S
C1447 C1445 1.389 . S
C1447 C1448 1.524 . S
C1448 C1447 1.524 . S
C1448 C1449 1.397 . S
C1448 C1453 1.363 . S
C1449 H1420 0.950 . S
C1449 C1448 1.397 . S
C1449 C1450 1.334 . S
C1450 H1421 0.950 . S
C1450 C1449 1.334 . S
C1450 C1451 1.287 . S
C1451 C1450 1.287 . S
C1451 C1452 1.524 . S
C1451 H1454 0.999 . S
C1452 H1422 0.950 . S
C1452 C1451 1.524 . S
C1452 C1453 1.415 . S
C1453 H1423 0.950 . S
C1453 C1448 1.363 . S
C1453 C1452 1.415 . S
H1454 C1451 0.999 . S
H1455 C1436 0.913 . S
H1456 C1474 0.951 . S
H1457 C1476 0.951 . S
H1458 C1478 0.950 . S
H1459 C1479 0.950 . S
H1460 C1481 0.950 . S
H1461 C1484 0.950 . S
H1462 C1485 0.950 . S
H1463 C1487 0.950 . S
H1464 C1488 0.950 . S
H1465 C1489 0.951 . S
H1466 C1491 0.951 . S
H1467 C1493 0.950 . S
H1468 C1494 0.950 . S
H1469 C1496 0.950 . S
H1470 C1499 0.950 . S
H1471 C1500 0.950 1_554 S
H1472 C1502 0.950 . S
H1473 C1503 0.950 . S
C1474 H1456 0.951 . S
C1474 C1475 1.366 . S
C1474 C1476 1.388 . S
C1475 C1474 1.366 . S
C1475 C1479 1.385 . S
C1476 H1457 0.951 . S
C1476 C1474 1.388 . S
C1476 C1477 1.366 . S
C1477 C1476 1.366 . S
C1477 C1478 1.414 . S
C1477 C1480 1.499 . S
C1478 H1458 0.950 . S
C1478 C1477 1.414 . S
C1478 C1479 1.374 . S
C1479 H1459 0.950 . S
C1479 C1475 1.385 . S
C1479 C1478 1.374 . S
C1480 C1477 1.499 . S
C1480 C1481 1.373 . S
C1480 C1482 1.389 . S
C1481 H1460 0.950 . S
C1481 C1480 1.373 . S
C1481 C1497 1.377 . S
C1482 C1480 1.389 . S
C1482 C1483 1.524 . S
C1482 C1496 1.377 . S
C1483 C1482 1.524 . S
C1483 C1484 1.397 . S
C1483 C1488 1.363 . S
C1484 H1461 0.950 . S
C1484 C1483 1.397 . S
C1484 C1485 1.334 . S
C1485 H1462 0.950 . S
C1485 C1484 1.334 . S
C1485 C1486 1.287 . S
C1486 C1485 1.287 . S
C1486 C1487 1.524 . S
C1486 H1505 0.913 . S
C1487 H1463 0.950 . S
C1487 C1486 1.524 . S
C1487 C1488 1.415 . S
C1488 H1464 0.950 . S
C1488 C1483 1.363 . S
C1488 C1487 1.415 . S
C1489 H1465 0.951 . S
C1489 C1490 1.366 . S
C1489 C1491 1.388 . S
C1490 C1489 1.366 . S
C1490 C1494 1.385 . S
C1491 H1466 0.951 . S
C1491 C1489 1.388 . S
C1491 C1492 1.366 . S
C1492 C1491 1.366 . S
C1492 C1493 1.414 . S
C1492 C1495 1.499 . S
C1493 H1467 0.950 . S
C1493 C1492 1.414 . S
C1493 C1494 1.374 . S
C1494 H1468 0.950 . S
C1494 C1490 1.385 . S
C1494 C1493 1.374 . S
C1495 C1492 1.499 . S
C1495 C1496 1.373 . S
C1495 C1497 1.389 . S
C1496 H1469 0.950 . S
C1496 C1482 1.377 . S
C1496 C1495 1.373 . S
C1497 C1481 1.377 . S
C1497 C1495 1.389 . S
C1497 C1498 1.524 . S
C1498 C1497 1.524 . S
C1498 C1499 1.397 . S
C1498 C1503 1.363 . S
C1499 H1470 0.950 . S
C1499 C1498 1.397 . S
C1499 C1500 1.334 . S
C1500 H1471 0.950 1_556 S
C1500 C1499 1.334 . S
C1500 C1501 1.287 . S
C1501 C1500 1.287 . S
C1501 C1502 1.524 . S
C1501 H1504 0.999 . S
C1502 H1472 0.950 . S
C1502 C1501 1.524 . S
C1502 C1503 1.415 . S
C1503 H1473 0.950 . S
C1503 C1498 1.363 . S
C1503 C1502 1.415 . S
H1504 C1501 0.999 . S
H1505 C1486 0.913 . S
H1506 C1524 0.951 . S
H1507 C1526 0.951 . S
H1508 C1528 0.950 . S
H1509 C1529 0.950 . S
H1510 C1531 0.950 . S
H1511 C1534 0.950 . S
H1512 C1535 0.950 . S
H1513 C1537 0.950 . S
H1514 C1538 0.950 . S
H1515 C1539 0.951 . S
H1516 C1541 0.951 . S
H1517 C1543 0.950 . S
H1518 C1544 0.950 . S
H1519 C1546 0.950 . S
H1520 C1549 0.950 . S
H1521 C1550 0.950 . S
H1522 C1552 0.950 . S
H1523 C1553 0.950 . S
C1524 H1506 0.951 . S
C1524 C1525 1.366 . S
C1524 C1526 1.388 . S
C1525 C1524 1.366 . S
C1525 C1529 1.385 . S
C1526 H1507 0.951 . S
C1526 C1524 1.388 . S
C1526 C1527 1.366 . S
C1527 C1526 1.366 . S
C1527 C1528 1.414 . S
C1527 C1530 1.499 . S
C1528 H1508 0.950 . S
C1528 C1527 1.414 . S
C1528 C1529 1.374 . S
C1529 H1509 0.950 . S
C1529 C1525 1.385 . S
C1529 C1528 1.374 . S
C1530 C1527 1.499 . S
C1530 C1531 1.373 . S
C1530 C1532 1.389 . S
C1531 H1510 0.950 . S
C1531 C1530 1.373 . S
C1531 C1547 1.377 . S
C1532 C1530 1.389 . S
C1532 C1533 1.524 . S
C1532 C1546 1.377 . S
C1533 C1532 1.524 . S
C1533 C1534 1.397 . S
C1533 C1538 1.363 . S
C1534 H1511 0.950 . S
C1534 C1533 1.397 . S
C1534 C1535 1.334 . S
C1535 H1512 0.950 . S
C1535 C1534 1.334 . S
C1535 C1536 1.287 . S
C1536 C1535 1.287 . S
C1536 C1537 1.524 . S
C1536 H1555 0.913 . S
C1537 H1513 0.950 . S
C1537 C1536 1.524 . S
C1537 C1538 1.415 . S
C1538 H1514 0.950 . S
C1538 C1533 1.363 . S
C1538 C1537 1.415 . S
C1539 H1515 0.951 . S
C1539 C1540 1.366 . S
C1539 C1541 1.388 . S
C1540 C1539 1.366 . S
C1540 C1544 1.385 . S
C1541 H1516 0.951 . S
C1541 C1539 1.388 . S
C1541 C1542 1.366 . S
C1542 C1541 1.366 . S
C1542 C1543 1.414 . S
C1542 C1545 1.499 . S
C1543 H1517 0.950 . S
C1543 C1542 1.414 . S
C1543 C1544 1.374 . S
C1544 H1518 0.950 . S
C1544 C1540 1.385 . S
C1544 C1543 1.374 . S
C1545 C1542 1.499 . S
C1545 C1546 1.373 . S
C1545 C1547 1.389 . S
C1546 H1519 0.950 . S
C1546 C1532 1.377 . S
C1546 C1545 1.373 . S
C1547 C1531 1.377 . S
C1547 C1545 1.389 . S
C1547 C1548 1.524 . S
C1548 C1547 1.524 . S
C1548 C1549 1.397 . S
C1548 C1553 1.363 . S
C1549 H1520 0.950 . S
C1549 C1548 1.397 . S
C1549 C1550 1.334 . S
C1550 H1521 0.950 . S
C1550 C1549 1.334 . S
C1550 C1551 1.287 . S
C1551 C1550 1.287 . S
C1551 C1552 1.524 . S
C1551 H1554 0.999 . S
C1552 H1522 0.950 . S
C1552 C1551 1.524 . S
C1552 C1553 1.415 . S
C1553 H1523 0.950 . S
C1553 C1548 1.363 . S
C1553 C1552 1.415 . S
H1554 C1551 0.999 . S
H1555 C1536 0.913 . S
H1556 C1574 0.951 . S
H1557 C1576 0.951 . S
H1558 C1578 0.950 . S
H1559 C1579 0.950 . S
H1560 C1581 0.950 . S
H1561 C1584 0.950 . S
H1562 C1585 0.950 . S
H1563 C1587 0.950 . S
H1564 C1588 0.950 . S
H1565 C1589 0.951 . S
H1566 C1591 0.951 . S
H1567 C1593 0.950 . S
H1568 C1594 0.950 . S
H1569 C1596 0.950 . S
H1570 C1599 0.950 . S
H1571 C1600 0.950 . S
H1572 C1602 0.950 . S
H1573 C1603 0.950 . S
C1574 H1556 0.951 . S
C1574 C1575 1.366 . S
C1574 C1576 1.388 . S
C1575 C1574 1.366 . S
C1575 C1579 1.385 . S
C1576 H1557 0.951 . S
C1576 C1574 1.388 . S
C1576 C1577 1.366 . S
C1577 C1576 1.366 . S
C1577 C1578 1.414 . S
C1577 C1580 1.499 . S
C1578 H1558 0.950 . S
C1578 C1577 1.414 . S
C1578 C1579 1.374 . S
C1579 H1559 0.950 . S
C1579 C1575 1.385 . S
C1579 C1578 1.374 . S
C1580 C1577 1.499 . S
C1580 C1581 1.373 . S
C1580 C1582 1.389 . S
C1581 H1560 0.950 . S
C1581 C1580 1.373 . S
C1581 C1597 1.377 . S
C1582 C1580 1.389 . S
C1582 C1583 1.524 . S
C1582 C1596 1.377 . S
C1583 C1582 1.524 . S
C1583 C1584 1.397 . S
C1583 C1588 1.363 . S
C1584 H1561 0.950 . S
C1584 C1583 1.397 . S
C1584 C1585 1.334 . S
C1585 H1562 0.950 . S
C1585 C1584 1.334 . S
C1585 C1586 1.287 . S
C1586 C1585 1.287 . S
C1586 C1587 1.524 . S
C1586 H1605 0.913 . S
C1587 H1563 0.950 . S
C1587 C1586 1.524 . S
C1587 C1588 1.415 . S
C1588 H1564 0.950 . S
C1588 C1583 1.363 . S
C1588 C1587 1.415 . S
C1589 H1565 0.951 . S
C1589 C1590 1.366 . S
C1589 C1591 1.388 . S
C1590 C1589 1.366 . S
C1590 C1594 1.385 . S
C1591 H1566 0.951 . S
C1591 C1589 1.388 . S
C1591 C1592 1.366 . S
C1592 C1591 1.366 . S
C1592 C1593 1.414 . S
C1592 C1595 1.499 . S
C1593 H1567 0.950 . S
C1593 C1592 1.414 . S
C1593 C1594 1.374 . S
C1594 H1568 0.950 . S
C1594 C1590 1.385 . S
C1594 C1593 1.374 . S
C1595 C1592 1.499 . S
C1595 C1596 1.373 . S
C1595 C1597 1.389 . S
C1596 H1569 0.950 . S
C1596 C1582 1.377 . S
C1596 C1595 1.373 . S
C1597 C1581 1.377 . S
C1597 C1595 1.389 . S
C1597 C1598 1.524 . S
C1598 C1597 1.524 . S
C1598 C1599 1.397 . S
C1598 C1603 1.363 . S
C1599 H1570 0.950 . S
C1599 C1598 1.397 . S
C1599 C1600 1.334 . S
C1600 H1571 0.950 . S
C1600 C1599 1.334 . S
C1600 C1601 1.287 . S
C1601 C1600 1.287 . S
C1601 C1602 1.524 . S
C1601 H1604 0.999 . S
C1602 H1572 0.950 . S
C1602 C1601 1.524 . S
C1602 C1603 1.415 . S
C1603 H1573 0.950 . S
C1603 C1598 1.363 . S
C1603 C1602 1.415 . S
H1604 C1601 0.999 . S
H1605 C1586 0.913 . S
H1606 C1624 0.951 . S
H1607 C1626 0.951 . S
H1608 C1628 0.950 . S
H1609 C1629 0.950 . S
H1610 C1631 0.950 . S
H1611 C1634 0.950 . S
H1612 C1635 0.950 . S
H1613 C1637 0.950 . S
H1614 C1638 0.950 . S
H1615 C1639 0.951 . S
H1616 C1641 0.951 . S
H1617 C1643 0.950 . S
H1618 C1644 0.950 . S
H1619 C1646 0.950 . S
H1620 C1649 0.950 . S
H1621 C1650 0.950 . S
H1622 C1652 0.950 . S
H1623 C1653 0.950 . S
C1624 H1606 0.951 . S
C1624 C1625 1.366 . S
C1624 C1626 1.388 . S
C1625 C1624 1.366 . S
C1625 C1629 1.385 . S
C1626 H1607 0.951 . S
C1626 C1624 1.388 . S
C1626 C1627 1.366 . S
C1627 C1626 1.366 . S
C1627 C1628 1.414 . S
C1627 C1630 1.499 . S
C1628 H1608 0.950 . S
C1628 C1627 1.414 . S
C1628 C1629 1.374 . S
C1629 H1609 0.950 . S
C1629 C1625 1.385 . S
C1629 C1628 1.374 . S
C1630 C1627 1.499 . S
C1630 C1631 1.373 . S
C1630 C1632 1.389 . S
C1631 H1610 0.950 . S
C1631 C1630 1.373 . S
C1631 C1647 1.377 . S
C1632 C1630 1.389 . S
C1632 C1633 1.524 . S
C1632 C1646 1.377 . S
C1633 C1632 1.524 . S
C1633 C1634 1.397 . S
C1633 C1638 1.363 . S
C1634 H1611 0.950 . S
C1634 C1633 1.397 . S
C1634 C1635 1.334 . S
C1635 H1612 0.950 . S
C1635 C1634 1.334 . S
C1635 C1636 1.287 . S
C1636 C1635 1.287 . S
C1636 C1637 1.524 . S
C1636 H1655 0.913 . S
C1637 H1613 0.950 . S
C1637 C1636 1.524 . S
C1637 C1638 1.415 . S
C1638 H1614 0.950 . S
C1638 C1633 1.363 . S
C1638 C1637 1.415 . S
C1639 H1615 0.951 . S
C1639 C1640 1.366 . S
C1639 C1641 1.388 . S
C1640 C1639 1.366 . S
C1640 C1644 1.385 . S
C1641 H1616 0.951 . S
C1641 C1639 1.388 . S
C1641 C1642 1.366 . S
C1642 C1641 1.366 . S
C1642 C1643 1.414 . S
C1642 C1645 1.499 . S
C1643 H1617 0.950 . S
C1643 C1642 1.414 . S
C1643 C1644 1.374 . S
C1644 H1618 0.950 . S
C1644 C1640 1.385 . S
C1644 C1643 1.374 . S
C1645 C1642 1.499 . S
C1645 C1646 1.373 . S
C1645 C1647 1.389 . S
C1646 H1619 0.950 . S
C1646 C1632 1.377 . S
C1646 C1645 1.373 . S
C1647 C1631 1.377 . S
C1647 C1645 1.389 . S
C1647 C1648 1.524 . S
C1648 C1647 1.524 . S
C1648 C1649 1.397 . S
C1648 C1653 1.363 . S
C1649 H1620 0.950 . S
C1649 C1648 1.397 . S
C1649 C1650 1.334 . S
C1650 H1621 0.950 . S
C1650 C1649 1.334 . S
C1650 C1651 1.287 . S
C1651 C1650 1.287 . S
C1651 C1652 1.524 . S
C1651 H1654 0.999 . S
C1652 H1622 0.950 . S
C1652 C1651 1.524 . S
C1652 C1653 1.415 . S
C1653 H1623 0.950 . S
C1653 C1648 1.363 . S
C1653 C1652 1.415 . S
H1654 C1651 0.999 . S
H1655 C1636 0.913 . S
H1656 C1674 0.951 . S
H1657 C1676 0.951 . S
H1658 C1678 0.950 . S
H1659 C1679 0.950 . S
H1660 C1681 0.950 . S
H1661 C1684 0.950 . S
H1662 C1685 0.950 . S
H1663 C1687 0.950 . S
H1664 C1688 0.950 . S
H1665 C1689 0.951 . S
H1666 C1691 0.951 . S
H1667 C1693 0.950 . S
H1668 C1694 0.950 . S
H1669 C1696 0.950 . S
H1670 C1699 0.950 . S
H1671 C1700 0.950 . S
H1672 C1702 0.950 . S
H1673 C1703 0.950 . S
C1674 H1656 0.951 . S
C1674 C1675 1.366 . S
C1674 C1676 1.388 . S
C1675 C1674 1.366 . S
C1675 C1679 1.385 . S
C1676 H1657 0.951 . S
C1676 C1674 1.388 . S
C1676 C1677 1.366 . S
C1677 C1676 1.366 . S
C1677 C1678 1.414 . S
C1677 C1680 1.499 . S
C1678 H1658 0.950 . S
C1678 C1677 1.414 . S
C1678 C1679 1.374 . S
C1679 H1659 0.950 . S
C1679 C1675 1.385 . S
C1679 C1678 1.374 . S
C1680 C1677 1.499 . S
C1680 C1681 1.373 . S
C1680 C1682 1.389 . S
C1681 H1660 0.950 . S
C1681 C1680 1.373 . S
C1681 C1697 1.377 . S
C1682 C1680 1.389 . S
C1682 C1683 1.524 . S
C1682 C1696 1.377 . S
C1683 C1682 1.524 . S
C1683 C1684 1.397 . S
C1683 C1688 1.363 . S
C1684 H1661 0.950 . S
C1684 C1683 1.397 . S
C1684 C1685 1.334 . S
C1685 H1662 0.950 . S
C1685 C1684 1.334 . S
C1685 C1686 1.287 . S
C1686 C1685 1.287 . S
C1686 C1687 1.524 . S
C1686 H1705 0.913 . S
C1687 H1663 0.950 . S
C1687 C1686 1.524 . S
C1687 C1688 1.415 . S
C1688 H1664 0.950 . S
C1688 C1683 1.363 . S
C1688 C1687 1.415 . S
C1689 H1665 0.951 . S
C1689 C1690 1.366 . S
C1689 C1691 1.388 . S
C1690 C1689 1.366 . S
C1690 C1694 1.385 . S
C1691 H1666 0.951 . S
C1691 C1689 1.388 . S
C1691 C1692 1.366 . S
C1692 C1691 1.366 . S
C1692 C1693 1.414 . S
C1692 C1695 1.499 . S
C1693 H1667 0.950 . S
C1693 C1692 1.414 . S
C1693 C1694 1.374 . S
C1694 H1668 0.950 . S
C1694 C1690 1.385 . S
C1694 C1693 1.374 . S
C1695 C1692 1.499 . S
C1695 C1696 1.373 . S
C1695 C1697 1.389 . S
C1696 H1669 0.950 . S
C1696 C1682 1.377 . S
C1696 C1695 1.373 . S
C1697 C1681 1.377 . S
C1697 C1695 1.389 . S
C1697 C1698 1.524 . S
C1698 C1697 1.524 . S
C1698 C1699 1.397 . S
C1698 C1703 1.363 . S
C1699 H1670 0.950 . S
C1699 C1698 1.397 . S
C1699 C1700 1.334 . S
C1700 H1671 0.950 . S
C1700 C1699 1.334 . S
C1700 C1701 1.287 . S
C1701 C1700 1.287 . S
C1701 C1702 1.524 . S
C1701 H1704 0.999 . S
C1702 H1672 0.950 . S
C1702 C1701 1.524 . S
C1702 C1703 1.415 . S
C1703 H1673 0.950 . S
C1703 C1698 1.363 . S
C1703 C1702 1.415 . S
H1704 C1701 0.999 . S
H1705 C1686 0.913 . S
H1706 C1724 0.951 . S
H1707 C1726 0.951 . S
H1708 C1728 0.950 . S
H1709 C1729 0.950 . S
H1710 C1731 0.950 . S
H1711 C1734 0.950 . S
H1712 C1735 0.950 . S
H1713 C1737 0.950 . S
H1714 C1738 0.950 . S
H1715 C1739 0.951 . S
H1716 C1741 0.951 . S
H1717 C1743 0.950 . S
H1718 C1744 0.950 . S
H1719 C1746 0.950 . S
H1720 C1749 0.950 . S
H1721 C1750 0.950 . S
H1722 C1752 0.950 . S
H1723 C1753 0.950 . S
C1724 H1706 0.951 . S
C1724 C1725 1.366 . S
C1724 C1726 1.388 . S
C1725 C1724 1.366 . S
C1725 C1729 1.385 . S
C1726 H1707 0.951 . S
C1726 C1724 1.388 . S
C1726 C1727 1.366 . S
C1727 C1726 1.366 . S
C1727 C1728 1.414 . S
C1727 C1730 1.499 . S
C1728 H1708 0.950 . S
C1728 C1727 1.414 . S
C1728 C1729 1.374 . S
C1729 H1709 0.950 . S
C1729 C1725 1.385 . S
C1729 C1728 1.374 . S
C1730 C1727 1.499 . S
C1730 C1731 1.373 . S
C1730 C1732 1.389 . S
C1731 H1710 0.950 . S
C1731 C1730 1.373 . S
C1731 C1747 1.377 . S
C1732 C1730 1.389 . S
C1732 C1733 1.524 . S
C1732 C1746 1.377 . S
C1733 C1732 1.524 . S
C1733 C1734 1.397 . S
C1733 C1738 1.363 . S
C1734 H1711 0.950 . S
C1734 C1733 1.397 . S
C1734 C1735 1.334 . S
C1735 H1712 0.950 . S
C1735 C1734 1.334 . S
C1735 C1736 1.287 . S
C1736 C1735 1.287 . S
C1736 C1737 1.524 . S
C1736 H1755 0.913 . S
C1737 H1713 0.950 . S
C1737 C1736 1.524 . S
C1737 C1738 1.415 . S
C1738 H1714 0.950 . S
C1738 C1733 1.363 . S
C1738 C1737 1.415 . S
C1739 H1715 0.951 . S
C1739 C1740 1.366 . S
C1739 C1741 1.388 . S
C1740 C1739 1.366 . S
C1740 C1744 1.385 . S
C1741 H1716 0.951 . S
C1741 C1739 1.388 . S
C1741 C1742 1.366 . S
C1742 C1741 1.366 . S
C1742 C1743 1.414 . S
C1742 C1745 1.499 . S
C1743 H1717 0.950 . S
C1743 C1742 1.414 . S
C1743 C1744 1.374 . S
C1744 H1718 0.950 . S
C1744 C1740 1.385 . S
C1744 C1743 1.374 . S
C1745 C1742 1.499 . S
C1745 C1746 1.373 . S
C1745 C1747 1.389 . S
C1746 H1719 0.950 . S
C1746 C1732 1.377 . S
C1746 C1745 1.373 . S
C1747 C1731 1.377 . S
C1747 C1745 1.389 . S
C1747 C1748 1.524 . S
C1748 C1747 1.524 . S
C1748 C1749 1.397 . S
C1748 C1753 1.363 . S
C1749 H1720 0.950 . S
C1749 C1748 1.397 . S
C1749 C1750 1.334 . S
C1750 H1721 0.950 . S
C1750 C1749 1.334 . S
C1750 C1751 1.287 . S
C1751 C1750 1.287 . S
C1751 C1752 1.524 . S
C1751 H1754 0.999 . S
C1752 H1722 0.950 . S
C1752 C1751 1.524 . S
C1752 C1753 1.415 . S
C1753 H1723 0.950 . S
C1753 C1748 1.363 . S
C1753 C1752 1.415 . S
H1754 C1751 0.999 . S
H1755 C1736 0.913 . S
H1756 C1774 0.951 . S
H1757 C1776 0.951 . S
H1758 C1778 0.950 . S
H1759 C1779 0.950 . S
H1760 C1781 0.950 . S
H1761 C1784 0.950 . S
H1762 C1785 0.950 . S
H1763 C1787 0.950 . S
H1764 C1788 0.950 . S
H1765 C1789 0.951 . S
H1766 C1791 0.951 . S
H1767 C1793 0.950 . S
H1768 C1794 0.950 . S
H1769 C1796 0.950 . S
H1770 C1799 0.950 . S
H1771 C1800 0.950 . S
H1772 C1802 0.950 . S
H1773 C1803 0.950 . S
C1774 H1756 0.951 . S
C1774 C1775 1.366 . S
C1774 C1776 1.388 . S
C1775 C1774 1.366 . S
C1775 C1779 1.385 . S
C1776 H1757 0.951 . S
C1776 C1774 1.388 . S
C1776 C1777 1.366 . S
C1777 C1776 1.366 . S
C1777 C1778 1.414 . S
C1777 C1780 1.499 . S
C1778 H1758 0.950 . S
C1778 C1777 1.414 . S
C1778 C1779 1.374 . S
C1779 H1759 0.950 . S
C1779 C1775 1.385 . S
C1779 C1778 1.374 . S
C1780 C1777 1.499 . S
C1780 C1781 1.373 . S
C1780 C1782 1.389 . S
C1781 H1760 0.950 . S
C1781 C1780 1.373 . S
C1781 C1797 1.377 . S
C1782 C1780 1.389 . S
C1782 C1783 1.524 . S
C1782 C1796 1.377 . S
C1783 C1782 1.524 . S
C1783 C1784 1.397 . S
C1783 C1788 1.363 . S
C1784 H1761 0.950 . S
C1784 C1783 1.397 . S
C1784 C1785 1.334 . S
C1785 H1762 0.950 . S
C1785 C1784 1.334 . S
C1785 C1786 1.287 . S
C1786 C1785 1.287 . S
C1786 C1787 1.524 . S
C1786 H1805 0.913 . S
C1787 H1763 0.950 . S
C1787 C1786 1.524 . S
C1787 C1788 1.415 . S
C1788 H1764 0.950 . S
C1788 C1783 1.363 . S
C1788 C1787 1.415 . S
C1789 H1765 0.951 . S
C1789 C1790 1.366 . S
C1789 C1791 1.388 . S
C1790 C1789 1.366 . S
C1790 C1794 1.385 . S
C1791 H1766 0.951 . S
C1791 C1789 1.388 . S
C1791 C1792 1.366 . S
C1792 C1791 1.366 . S
C1792 C1793 1.414 . S
C1792 C1795 1.499 . S
C1793 H1767 0.950 . S
C1793 C1792 1.414 . S
C1793 C1794 1.374 . S
C1794 H1768 0.950 . S
C1794 C1790 1.385 . S
C1794 C1793 1.374 . S
C1795 C1792 1.499 . S
C1795 C1796 1.373 . S
C1795 C1797 1.389 . S
C1796 H1769 0.950 . S
C1796 C1782 1.377 . S
C1796 C1795 1.373 . S
C1797 C1781 1.377 . S
C1797 C1795 1.389 . S
C1797 C1798 1.524 . S
C1798 C1797 1.524 . S
C1798 C1799 1.397 . S
C1798 C1803 1.363 . S
C1799 H1770 0.950 . S
C1799 C1798 1.397 . S
C1799 C1800 1.334 . S
C1800 H1771 0.950 . S
C1800 C1799 1.334 . S
C1800 C1801 1.287 . S
C1801 C1800 1.287 . S
C1801 C1802 1.524 . S
C1801 H1804 0.999 . S
C1802 H1772 0.950 . S
C1802 C1801 1.524 . S
C1802 C1803 1.415 . S
C1803 H1773 0.950 . S
C1803 C1798 1.363 . S
C1803 C1802 1.415 . S
H1804 C1801 0.999 . S
H1805 C1786 0.913 . S
H1806 C1824 0.951 . S
H1807 C1826 0.951 . S
H1808 C1828 0.950 . S
H1809 C1829 0.950 . S
H1810 C1831 0.950 . S
H1811 C1834 0.950 . S
H1812 C1835 0.950 . S
H1813 C1837 0.950 . S
H1814 C1838 0.950 . S
H1815 C1839 0.951 . S
H1816 C1841 0.951 . S
H1817 C1843 0.950 . S
H1818 C1844 0.950 . S
H1819 C1846 0.950 . S
H1820 C1849 0.950 . S
H1821 C1850 0.950 . S
H1822 C1852 0.950 . S
H1823 C1853 0.950 . S
C1824 H1806 0.951 . S
C1824 C1825 1.366 . S
C1824 C1826 1.388 . S
C1825 C1824 1.366 . S
C1825 C1829 1.385 . S
C1826 H1807 0.951 . S
C1826 C1824 1.388 . S
C1826 C1827 1.366 . S
C1827 C1826 1.366 . S
C1827 C1828 1.414 . S
C1827 C1830 1.499 . S
C1828 H1808 0.950 . S
C1828 C1827 1.414 . S
C1828 C1829 1.374 . S
C1829 H1809 0.950 . S
C1829 C1825 1.385 . S
C1829 C1828 1.374 . S
C1830 C1827 1.499 . S
C1830 C1831 1.373 . S
C1830 C1832 1.389 . S
C1831 H1810 0.950 . S
C1831 C1830 1.373 . S
C1831 C1847 1.377 . S
C1832 C1830 1.389 . S
C1832 C1833 1.524 . S
C1832 C1846 1.377 . S
C1833 C1832 1.524 . S
C1833 C1834 1.397 . S
C1833 C1838 1.363 . S
C1834 H1811 0.950 . S
C1834 C1833 1.397 . S
C1834 C1835 1.334 . S
C1835 H1812 0.950 . S
C1835 C1834 1.334 . S
C1835 C1836 1.287 . S
C1836 C1835 1.287 . S
C1836 C1837 1.524 . S
C1836 H1855 0.913 . S
C1837 H1813 0.950 . S
C1837 C1836 1.524 . S
C1837 C1838 1.415 . S
C1838 H1814 0.950 . S
C1838 C1833 1.363 . S
C1838 C1837 1.415 . S
C1839 H1815 0.951 . S
C1839 C1840 1.366 . S
C1839 C1841 1.388 . S
C1840 C1839 1.366 . S
C1840 C1844 1.385 . S
C1841 H1816 0.951 . S
C1841 C1839 1.388 . S
C1841 C1842 1.366 . S
C1842 C1841 1.366 . S
C1842 C1843 1.414 . S
C1842 C1845 1.499 . S
C1843 H1817 0.950 . S
C1843 C1842 1.414 . S
C1843 C1844 1.374 . S
C1844 H1818 0.950 . S
C1844 C1840 1.385 . S
C1844 C1843 1.374 . S
C1845 C1842 1.499 . S
C1845 C1846 1.373 . S
C1845 C1847 1.389 . S
C1846 H1819 0.950 . S
C1846 C1832 1.377 . S
C1846 C1845 1.373 . S
C1847 C1831 1.377 . S
C1847 C1845 1.389 . S
C1847 C1848 1.524 . S
C1848 C1847 1.524 . S
C1848 C1849 1.397 . S
C1848 C1853 1.363 . S
C1849 H1820 0.950 . S
C1849 C1848 1.397 . S
C1849 C1850 1.334 . S
C1850 H1821 0.950 . S
C1850 C1849 1.334 . S
C1850 C1851 1.287 . S
C1851 C1850 1.287 . S
C1851 C1852 1.524 . S
C1851 H1854 0.999 . S
C1852 H1822 0.950 . S
C1852 C1851 1.524 . S
C1852 C1853 1.415 . S
C1853 H1823 0.950 . S
C1853 C1848 1.363 . S
C1853 C1852 1.415 . S
H1854 C1851 0.999 . S
H1855 C1836 0.913 . S
H1856 C1874 0.951 . S
H1857 C1876 0.951 . S
H1858 C1878 0.950 . S
H1859 C1879 0.950 . S
H1860 C1881 0.950 . S
H1861 C1884 0.950 . S
H1862 C1885 0.950 . S
H1863 C1887 0.950 . S
H1864 C1888 0.950 . S
H1865 C1889 0.951 . S
H1866 C1891 0.951 . S
H1867 C1893 0.950 . S
H1868 C1894 0.950 . S
H1869 C1896 0.950 . S
H1870 C1899 0.950 . S
H1871 C1900 0.950 . S
H1872 C1902 0.950 . S
H1873 C1903 0.950 . S
C1874 H1856 0.951 . S
C1874 C1875 1.366 . S
C1874 C1876 1.388 . S
C1875 C1874 1.366 . S
C1875 C1879 1.385 . S
C1876 H1857 0.951 . S
C1876 C1874 1.388 . S
C1876 C1877 1.366 . S
C1877 C1876 1.366 . S
C1877 C1878 1.414 . S
C1877 C1880 1.499 . S
C1878 H1858 0.950 . S
C1878 C1877 1.414 . S
C1878 C1879 1.374 . S
C1879 H1859 0.950 . S
C1879 C1875 1.385 . S
C1879 C1878 1.374 . S
C1880 C1877 1.499 . S
C1880 C1881 1.373 . S
C1880 C1882 1.389 . S
C1881 H1860 0.950 . S
C1881 C1880 1.373 . S
C1881 C1897 1.377 . S
C1882 C1880 1.389 . S
C1882 C1883 1.524 . S
C1882 C1896 1.377 . S
C1883 C1882 1.524 . S
C1883 C1884 1.397 . S
C1883 C1888 1.363 . S
C1884 H1861 0.950 . S
C1884 C1883 1.397 . S
C1884 C1885 1.334 . S
C1885 H1862 0.950 . S
C1885 C1884 1.334 . S
C1885 C1886 1.287 . S
C1886 C1885 1.287 . S
C1886 C1887 1.524 . S
C1886 H1905 0.913 . S
C1887 H1863 0.950 . S
C1887 C1886 1.524 . S
C1887 C1888 1.415 . S
C1888 H1864 0.950 . S
C1888 C1883 1.363 . S
C1888 C1887 1.415 . S
C1889 H1865 0.951 . S
C1889 C1890 1.366 . S
C1889 C1891 1.388 . S
C1890 C1889 1.366 . S
C1890 C1894 1.385 . S
C1891 H1866 0.951 . S
C1891 C1889 1.388 . S
C1891 C1892 1.366 . S
C1892 C1891 1.366 . S
C1892 C1893 1.414 . S
C1892 C1895 1.499 . S
C1893 H1867 0.950 . S
C1893 C1892 1.414 . S
C1893 C1894 1.374 . S
C1894 H1868 0.950 . S
C1894 C1890 1.385 . S
C1894 C1893 1.374 . S
C1895 C1892 1.499 . S
C1895 C1896 1.373 . S
C1895 C1897 1.389 . S
C1896 H1869 0.950 . S
C1896 C1882 1.377 . S
C1896 C1895 1.373 . S
C1897 C1881 1.377 . S
C1897 C1895 1.389 . S
C1897 C1898 1.524 . S
C1898 C1897 1.524 . S
C1898 C1899 1.397 . S
C1898 C1903 1.363 . S
C1899 H1870 0.950 . S
C1899 C1898 1.397 . S
C1899 C1900 1.334 . S
C1900 H1871 0.950 . S
C1900 C1899 1.334 . S
C1900 C1901 1.287 . S
C1901 C1900 1.287 . S
C1901 C1902 1.524 . S
C1901 H1904 0.999 . S
C1902 H1872 0.950 . S
C1902 C1901 1.524 . S
C1902 C1903 1.415 . S
C1903 H1873 0.950 . S
C1903 C1898 1.363 . S
C1903 C1902 1.415 . S
H1904 C1901 0.999 . S
H1905 C1886 0.913 . S
H1906 C1924 0.951 . S
H1907 C1926 0.951 . S
H1908 C1928 0.950 . S
H1909 C1929 0.950 . S
H1910 C1931 0.950 . S
H1911 C1934 0.950 . S
H1912 C1935 0.950 . S
H1913 C1937 0.950 . S
H1914 C1938 0.950 . S
H1915 C1939 0.951 . S
H1916 C1941 0.951 . S
H1917 C1943 0.950 . S
H1918 C1944 0.950 . S
H1919 C1946 0.950 . S
H1920 C1949 0.950 . S
H1921 C1950 0.950 . S
H1922 C1952 0.950 . S
H1923 C1953 0.950 . S
C1924 H1906 0.951 . S
C1924 C1925 1.366 . S
C1924 C1926 1.388 . S
C1925 C1924 1.366 . S
C1925 C1929 1.385 . S
C1926 H1907 0.951 . S
C1926 C1924 1.388 . S
C1926 C1927 1.366 . S
C1927 C1926 1.366 . S
C1927 C1928 1.414 . S
C1927 C1930 1.499 . S
C1928 H1908 0.950 . S
C1928 C1927 1.414 . S
C1928 C1929 1.374 . S
C1929 H1909 0.950 . S
C1929 C1925 1.385 . S
C1929 C1928 1.374 . S
C1930 C1927 1.499 . S
C1930 C1931 1.373 . S
C1930 C1932 1.389 . S
C1931 H1910 0.950 . S
C1931 C1930 1.373 . S
C1931 C1947 1.377 . S
C1932 C1930 1.389 . S
C1932 C1933 1.524 . S
C1932 C1946 1.377 . S
C1933 C1932 1.524 . S
C1933 C1934 1.397 . S
C1933 C1938 1.363 . S
C1934 H1911 0.950 . S
C1934 C1933 1.397 . S
C1934 C1935 1.334 . S
C1935 H1912 0.950 . S
C1935 C1934 1.334 . S
C1935 C1936 1.287 . S
C1936 C1935 1.287 . S
C1936 C1937 1.524 . S
C1936 H1955 0.913 . S
C1937 H1913 0.950 . S
C1937 C1936 1.524 . S
C1937 C1938 1.415 . S
C1938 H1914 0.950 . S
C1938 C1933 1.363 . S
C1938 C1937 1.415 . S
C1939 H1915 0.951 . S
C1939 C1940 1.366 . S
C1939 C1941 1.388 . S
C1940 C1939 1.366 . S
C1940 C1944 1.385 . S
C1941 H1916 0.951 . S
C1941 C1939 1.388 . S
C1941 C1942 1.366 . S
C1942 C1941 1.366 . S
C1942 C1943 1.414 . S
C1942 C1945 1.499 . S
C1943 H1917 0.950 . S
C1943 C1942 1.414 . S
C1943 C1944 1.374 . S
C1944 H1918 0.950 . S
C1944 C1940 1.385 . S
C1944 C1943 1.374 . S
C1945 C1942 1.499 . S
C1945 C1946 1.373 . S
C1945 C1947 1.389 . S
C1946 H1919 0.950 . S
C1946 C1932 1.377 . S
C1946 C1945 1.373 . S
C1947 C1931 1.377 . S
C1947 C1945 1.389 . S
C1947 C1948 1.524 . S
C1948 C1947 1.524 . S
C1948 C1949 1.397 . S
C1948 C1953 1.363 . S
C1949 H1920 0.950 . S
C1949 C1948 1.397 . S
C1949 C1950 1.334 . S
C1950 H1921 0.950 . S
C1950 C1949 1.334 . S
C1950 C1951 1.287 . S
C1951 C1950 1.287 . S
C1951 C1952 1.524 . S
C1951 H1954 0.999 . S
C1952 H1922 0.950 . S
C1952 C1951 1.524 . S
C1952 C1953 1.415 . S
C1953 H1923 0.950 . S
C1953 C1948 1.363 . S
C1953 C1952 1.415 . S
H1954 C1951 0.999 . S
H1955 C1936 0.913 . S
H1956 C1974 0.951 . S
H1957 C1976 0.951 . S
H1958 C1978 0.950 . S
H1959 C1979 0.950 . S
H1960 C1981 0.950 . S
H1961 C1984 0.950 . S
H1962 C1985 0.950 . S
H1963 C1987 0.950 . S
H1964 C1988 0.950 . S
H1965 C1989 0.951 . S
H1966 C1991 0.951 . S
H1967 C1993 0.950 . S
H1968 C1994 0.950 . S
H1969 C1996 0.950 . S
H1970 C1999 0.950 . S
H1971 C2000 0.950 . S
H1972 C2002 0.950 . S
H1973 C2003 0.950 . S
C1974 H1956 0.951 . S
C1974 C1975 1.366 . S
C1974 C1976 1.388 . S
C1975 C1974 1.366 . S
C1975 C1979 1.385 . S
C1976 H1957 0.951 . S
C1976 C1974 1.388 . S
C1976 C1977 1.366 . S
C1977 C1976 1.366 . S
C1977 C1978 1.414 . S
C1977 C1980 1.499 . S
C1978 H1958 0.950 . S
C1978 C1977 1.414 . S
C1978 C1979 1.374 . S
C1979 H1959 0.950 . S
C1979 C1975 1.385 . S
C1979 C1978 1.374 . S
C1980 C1977 1.499 . S
C1980 C1981 1.373 . S
C1980 C1982 1.389 . S
C1981 H1960 0.950 . S
C1981 C1980 1.373 . S
C1981 C1997 1.377 . S
C1982 C1980 1.389 . S
C1982 C1983 1.524 . S
C1982 C1996 1.377 . S
C1983 C1982 1.524 . S
C1983 C1984 1.397 . S
C1983 C1988 1.363 . S
C1984 H1961 0.950 . S
C1984 C1983 1.397 . S
C1984 C1985 1.334 . S
C1985 H1962 0.950 . S
C1985 C1984 1.334 . S
C1985 C1986 1.287 . S
C1986 C1985 1.287 . S
C1986 C1987 1.524 . S
C1986 H2005 0.913 . S
C1987 H1963 0.950 . S
C1987 C1986 1.524 . S
C1987 C1988 1.415 . S
C1988 H1964 0.950 . S
C1988 C1983 1.363 . S
C1988 C1987 1.415 . S
C1989 H1965 0.951 . S
C1989 C1990 1.366 . S
C1989 C1991 1.388 . S
C1990 C1989 1.366 . S
C1990 C1994 1.385 . S
C1991 H1966 0.951 . S
C1991 C1989 1.388 . S
C1991 C1992 1.366 . S
C1992 C1991 1.366 . S
C1992 C1993 1.414 . S
C1992 C1995 1.499 . S
C1993 H1967 0.950 . S
C1993 C1992 1.414 . S
C1993 C1994 1.374 . S
C1994 H1968 0.950 . S
C1994 C1990 1.385 . S
C1994 C1993 1.374 . S
C1995 C1992 1.499 . S
C1995 C1996 1.373 . S
C1995 C1997 1.389 . S
C1996 H1969 0.950 . S
C1996 C1982 1.377 . S
C1996 C1995 1.373 . S
C1997 C1981 1.377 . S
C1997 C1995 1.389 . S
C1997 C1998 1.524 . S
C1998 C1997 1.524 . S
C1998 C1999 1.397 . S
C1998 C2003 1.363 . S
C1999 H1970 0.950 . S
C1999 C1998 1.397 . S
C1999 C2000 1.334 . S
C2000 H1971 0.950 . S
C2000 C1999 1.334 . S
C2000 C2001 1.287 . S
C2001 C2000 1.287 . S
C2001 C2002 1.524 . S
C2001 H2004 0.999 . S
C2002 H1972 0.950 . S
C2002 C2001 1.524 . S
C2002 C2003 1.415 . S
C2003 H1973 0.950 . S
C2003 C1998 1.363 . S
C2003 C2002 1.415 . S
H2004 C2001 0.999 . S
H2005 C1986 0.913 . S
H2006 C2024 0.951 . S
H2007 C2026 0.951 . S
H2008 C2028 0.950 . S
H2009 C2029 0.950 . S
H2010 C2031 0.950 . S
H2011 C2034 0.950 . S
H2012 C2035 0.950 . S
H2013 C2037 0.950 . S
H2014 C2038 0.950 . S
H2015 C2039 0.951 . S
H2016 C2041 0.951 . S
H2017 C2043 0.950 . S
H2018 C2044 0.950 . S
H2019 C2046 0.950 . S
H2020 C2049 0.950 . S
H2021 C2050 0.950 . S
H2022 C2052 0.950 . S
H2023 C2053 0.950 . S
C2024 H2006 0.951 . S
C2024 C2025 1.366 . S
C2024 C2026 1.388 . S
C2025 C2024 1.366 . S
C2025 C2029 1.385 . S
C2026 H2007 0.951 . S
C2026 C2024 1.388 . S
C2026 C2027 1.366 . S
C2027 C2026 1.366 . S
C2027 C2028 1.414 . S
C2027 C2030 1.499 . S
C2028 H2008 0.950 . S
C2028 C2027 1.414 . S
C2028 C2029 1.374 . S
C2029 H2009 0.950 . S
C2029 C2025 1.385 . S
C2029 C2028 1.374 . S
C2030 C2027 1.499 . S
C2030 C2031 1.373 . S
C2030 C2032 1.389 . S
C2031 H2010 0.950 . S
C2031 C2030 1.373 . S
C2031 C2047 1.377 . S
C2032 C2030 1.389 . S
C2032 C2033 1.524 . S
C2032 C2046 1.377 . S
C2033 C2032 1.524 . S
C2033 C2034 1.397 . S
C2033 C2038 1.363 . S
C2034 H2011 0.950 . S
C2034 C2033 1.397 . S
C2034 C2035 1.334 . S
C2035 H2012 0.950 . S
C2035 C2034 1.334 . S
C2035 C2036 1.287 . S
C2036 C2035 1.287 . S
C2036 C2037 1.524 . S
C2036 H2055 0.913 . S
C2037 H2013 0.950 . S
C2037 C2036 1.524 . S
C2037 C2038 1.415 . S
C2038 H2014 0.950 . S
C2038 C2033 1.363 . S
C2038 C2037 1.415 . S
C2039 H2015 0.951 . S
C2039 C2040 1.366 . S
C2039 C2041 1.388 . S
C2040 C2039 1.366 . S
C2040 C2044 1.385 . S
C2041 H2016 0.951 . S
C2041 C2039 1.388 . S
C2041 C2042 1.366 . S
C2042 C2041 1.366 . S
C2042 C2043 1.414 . S
C2042 C2045 1.499 . S
C2043 H2017 0.950 . S
C2043 C2042 1.414 . S
C2043 C2044 1.374 . S
C2044 H2018 0.950 . S
C2044 C2040 1.385 . S
C2044 C2043 1.374 . S
C2045 C2042 1.499 . S
C2045 C2046 1.373 . S
C2045 C2047 1.389 . S
C2046 H2019 0.950 . S
C2046 C2032 1.377 . S
C2046 C2045 1.373 . S
C2047 C2031 1.377 . S
C2047 C2045 1.389 . S
C2047 C2048 1.524 . S
C2048 C2047 1.524 . S
C2048 C2049 1.397 . S
C2048 C2053 1.363 . S
C2049 H2020 0.950 . S
C2049 C2048 1.397 . S
C2049 C2050 1.334 . S
C2050 H2021 0.950 . S
C2050 C2049 1.334 . S
C2050 C2051 1.287 . S
C2051 C2050 1.287 . S
C2051 C2052 1.524 . S
C2051 H2054 0.999 . S
C2052 H2022 0.950 . S
C2052 C2051 1.524 . S
C2052 C2053 1.415 . S
C2053 H2023 0.950 . S
C2053 C2048 1.363 . S
C2053 C2052 1.415 . S
H2054 C2051 0.999 . S
H2055 C2036 0.913 . S
H2056 C2074 0.951 . S
H2057 C2076 0.951 . S
H2058 C2078 0.950 . S
H2059 C2079 0.950 . S
H2060 C2081 0.950 . S
H2061 C2084 0.950 . S
H2062 C2085 0.950 . S
H2063 C2087 0.950 . S
H2064 C2088 0.950 . S
H2065 C2089 0.951 . S
H2066 C2091 0.951 . S
H2067 C2093 0.950 . S
H2068 C2094 0.950 . S
H2069 C2096 0.950 . S
H2070 C2099 0.950 . S
H2071 C2100 0.950 . S
H2072 C2102 0.950 . S
H2073 C2103 0.950 . S
C2074 H2056 0.951 . S
C2074 C2075 1.366 . S
C2074 C2076 1.388 . S
C2075 C2074 1.366 . S
C2075 C2079 1.385 . S
C2076 H2057 0.951 . S
C2076 C2074 1.388 . S
C2076 C2077 1.366 . S
C2077 C2076 1.366 . S
C2077 C2078 1.414 . S
C2077 C2080 1.499 . S
C2078 H2058 0.950 . S
C2078 C2077 1.414 . S
C2078 C2079 1.374 . S
C2079 H2059 0.950 . S
C2079 C2075 1.385 . S
C2079 C2078 1.374 . S
C2080 C2077 1.499 . S
C2080 C2081 1.373 . S
C2080 C2082 1.389 . S
C2081 H2060 0.950 . S
C2081 C2080 1.373 . S
C2081 C2097 1.377 . S
C2082 C2080 1.389 . S
C2082 C2083 1.524 . S
C2082 C2096 1.377 . S
C2083 C2082 1.524 . S
C2083 C2084 1.397 . S
C2083 C2088 1.363 . S
C2084 H2061 0.950 . S
C2084 C2083 1.397 . S
C2084 C2085 1.334 . S
C2085 H2062 0.950 . S
C2085 C2084 1.334 . S
C2085 C2086 1.287 . S
C2086 C2085 1.287 . S
C2086 C2087 1.524 . S
C2086 H2105 0.913 . S
C2087 H2063 0.950 . S
C2087 C2086 1.524 . S
C2087 C2088 1.415 . S
C2088 H2064 0.950 . S
C2088 C2083 1.363 . S
C2088 C2087 1.415 . S
C2089 H2065 0.951 . S
C2089 C2090 1.366 . S
C2089 C2091 1.388 . S
C2090 C2089 1.366 . S
C2090 C2094 1.385 . S
C2091 H2066 0.951 . S
C2091 C2089 1.388 . S
C2091 C2092 1.366 . S
C2092 C2091 1.366 . S
C2092 C2093 1.414 . S
C2092 C2095 1.499 . S
C2093 H2067 0.950 . S
C2093 C2092 1.414 . S
C2093 C2094 1.374 . S
C2094 H2068 0.950 . S
C2094 C2090 1.385 . S
C2094 C2093 1.374 . S
C2095 C2092 1.499 . S
C2095 C2096 1.373 . S
C2095 C2097 1.389 . S
C2096 H2069 0.950 . S
C2096 C2082 1.377 . S
C2096 C2095 1.373 . S
C2097 C2081 1.377 . S
C2097 C2095 1.389 . S
C2097 C2098 1.524 . S
C2098 C2097 1.524 . S
C2098 C2099 1.397 . S
C2098 C2103 1.363 . S
C2099 H2070 0.950 . S
C2099 C2098 1.397 . S
C2099 C2100 1.334 . S
C2100 H2071 0.950 . S
C2100 C2099 1.334 . S
C2100 C2101 1.287 . S
C2101 C2100 1.287 . S
C2101 C2102 1.524 . S
C2101 H2104 0.999 . S
C2102 H2072 0.950 . S
C2102 C2101 1.524 . S
C2102 C2103 1.415 . S
C2103 H2073 0.950 . S
C2103 C2098 1.363 . S
C2103 C2102 1.415 . S
H2104 C2101 0.999 . S
H2105 C2086 0.913 . S
H2106 C2124 0.951 . S
H2107 C2126 0.951 . S
H2108 C2128 0.950 . S
H2109 C2129 0.950 . S
H2110 C2131 0.950 . S
H2111 C2134 0.950 . S
H2112 C2135 0.950 . S
H2113 C2137 0.950 . S
H2114 C2138 0.950 . S
H2115 C2139 0.951 . S
H2116 C2141 0.951 . S
H2117 C2143 0.950 . S
H2118 C2144 0.950 . S
H2119 C2146 0.950 . S
H2120 C2149 0.950 . S
H2121 C2150 0.950 . S
H2122 C2152 0.950 . S
H2123 C2153 0.950 . S
C2124 H2106 0.951 . S
C2124 C2125 1.366 . S
C2124 C2126 1.388 . S
C2125 C2124 1.366 . S
C2125 C2129 1.385 . S
C2126 H2107 0.951 . S
C2126 C2124 1.388 . S
C2126 C2127 1.366 . S
C2127 C2126 1.366 . S
C2127 C2128 1.414 . S
C2127 C2130 1.499 . S
C2128 H2108 0.950 . S
C2128 C2127 1.414 . S
C2128 C2129 1.374 . S
C2129 H2109 0.950 . S
C2129 C2125 1.385 . S
C2129 C2128 1.374 . S
C2130 C2127 1.499 . S
C2130 C2131 1.373 . S
C2130 C2132 1.389 . S
C2131 H2110 0.950 . S
C2131 C2130 1.373 . S
C2131 C2147 1.377 . S
C2132 C2130 1.389 . S
C2132 C2133 1.524 . S
C2132 C2146 1.377 . S
C2133 C2132 1.524 . S
C2133 C2134 1.397 . S
C2133 C2138 1.363 . S
C2134 H2111 0.950 . S
C2134 C2133 1.397 . S
C2134 C2135 1.334 . S
C2135 H2112 0.950 . S
C2135 C2134 1.334 . S
C2135 C2136 1.287 . S
C2136 C2135 1.287 . S
C2136 C2137 1.524 . S
C2136 H2155 0.913 . S
C2137 H2113 0.950 . S
C2137 C2136 1.524 . S
C2137 C2138 1.415 . S
C2138 H2114 0.950 . S
C2138 C2133 1.363 . S
C2138 C2137 1.415 . S
C2139 H2115 0.951 . S
C2139 C2140 1.366 . S
C2139 C2141 1.388 . S
C2140 C2139 1.366 . S
C2140 C2144 1.385 . S
C2141 H2116 0.951 . S
C2141 C2139 1.388 . S
C2141 C2142 1.366 . S
C2142 C2141 1.366 . S
C2142 C2143 1.414 . S
C2142 C2145 1.499 . S
C2143 H2117 0.950 . S
C2143 C2142 1.414 . S
C2143 C2144 1.374 . S
C2144 H2118 0.950 . S
C2144 C2140 1.385 . S
C2144 C2143 1.374 . S
C2145 C2142 1.499 . S
C2145 C2146 1.373 . S
C2145 C2147 1.389 . S
C2146 H2119 0.950 . S
C2146 C2132 1.377 . S
C2146 C2145 1.373 . S
C2147 C2131 1.377 . S
C2147 C2145 1.389 . S
C2147 C2148 1.524 . S
C2148 C2147 1.524 . S
C2148 C2149 1.397 . S
C2148 C2153 1.363 . S
C2149 H2120 0.950 . S
C2149 C2148 1.397 . S
C2149 C2150 1.334 . S
C2150 H2121 0.950 . S
C2150 C2149 1.334 . S
C2150 C2151 1.287 . S
C2151 C2150 1.287 . S
C2151 C2152 1.524 . S
C2151 H2154 0.999 . S
C2152 H2122 0.950 . S
C2152 C2151 1.524 . S
C2152 C2153 1.415 . S
C2153 H2123 0.950 . S
C2153 C2148 1.363 . S
C2153 C2152 1.415 . S
H2154 C2151 0.999 . S
H2155 C2136 0.913 . S
H2156 C2174 0.951 . S
H2157 C2176 0.951 . S
H2158 C2178 0.950 . S
H2159 C2179 0.950 . S
H2160 C2181 0.950 . S
H2161 C2184 0.950 . S
H2162 C2185 0.950 . S
H2163 C2187 0.950 . S
H2164 C2188 0.950 . S
H2165 C2189 0.951 1_545 S
H2166 C2191 0.951 . S
H2167 C2193 0.950 . S
H2168 C2194 0.950 . S
H2169 C2196 0.950 . S
H2170 C2199 0.950 . S
H2171 C2200 0.950 . S
H2172 C2202 0.950 . S
H2173 C2203 0.950 . S
C2174 H2156 0.951 . S
C2174 C2175 1.366 . S
C2174 C2176 1.388 . S
C2175 C2174 1.366 . S
C2175 C2179 1.385 . S
C2176 H2157 0.951 . S
C2176 C2174 1.388 . S
C2176 C2177 1.366 . S
C2177 C2176 1.366 . S
C2177 C2178 1.414 . S
C2177 C2180 1.499 . S
C2178 H2158 0.950 . S
C2178 C2177 1.414 . S
C2178 C2179 1.374 . S
C2179 H2159 0.950 . S
C2179 C2175 1.385 . S
C2179 C2178 1.374 . S
C2180 C2177 1.499 . S
C2180 C2181 1.373 . S
C2180 C2182 1.389 . S
C2181 H2160 0.950 . S
C2181 C2180 1.373 . S
C2181 C2197 1.377 . S
C2182 C2180 1.389 . S
C2182 C2183 1.524 . S
C2182 C2196 1.377 . S
C2183 C2182 1.524 . S
C2183 C2184 1.397 . S
C2183 C2188 1.363 . S
C2184 H2161 0.950 . S
C2184 C2183 1.397 . S
C2184 C2185 1.334 . S
C2185 H2162 0.950 . S
C2185 C2184 1.334 . S
C2185 C2186 1.287 . S
C2186 C2185 1.287 . S
C2186 C2187 1.524 . S
C2186 H2205 0.913 . S
C2187 H2163 0.950 . S
C2187 C2186 1.524 . S
C2187 C2188 1.415 . S
C2188 H2164 0.950 . S
C2188 C2183 1.363 . S
C2188 C2187 1.415 . S
C2189 H2165 0.951 1_565 S
C2189 C2190 1.366 . S
C2189 C2191 1.388 . S
C2190 C2189 1.366 . S
C2190 C2194 1.385 . S
C2191 H2166 0.951 . S
C2191 C2189 1.388 . S
C2191 C2192 1.366 . S
C2192 C2191 1.366 . S
C2192 C2193 1.414 . S
C2192 C2195 1.499 . S
C2193 H2167 0.950 . S
C2193 C2192 1.414 . S
C2193 C2194 1.374 . S
C2194 H2168 0.950 . S
C2194 C2190 1.385 . S
C2194 C2193 1.374 . S
C2195 C2192 1.499 . S
C2195 C2196 1.373 . S
C2195 C2197 1.389 . S
C2196 H2169 0.950 . S
C2196 C2182 1.377 . S
C2196 C2195 1.373 . S
C2197 C2181 1.377 . S
C2197 C2195 1.389 . S
C2197 C2198 1.524 . S
C2198 C2197 1.524 . S
C2198 C2199 1.397 . S
C2198 C2203 1.363 . S
C2199 H2170 0.950 . S
C2199 C2198 1.397 . S
C2199 C2200 1.334 . S
C2200 H2171 0.950 . S
C2200 C2199 1.334 . S
C2200 C2201 1.287 1_565 S
C2201 C2200 1.287 1_545 S
C2201 C2202 1.524 . S
C2201 H2204 0.999 . S
C2202 H2172 0.950 . S
C2202 C2201 1.524 . S
C2202 C2203 1.415 1_545 S
C2203 H2173 0.950 . S
C2203 C2198 1.363 . S
C2203 C2202 1.415 1_565 S
H2204 C2201 0.999 . S
H2205 C2186 0.913 . S
H2206 C2224 0.951 . S
H2207 C2226 0.951 . S
H2208 C2228 0.950 . S
H2209 C2229 0.950 . S
H2210 C2231 0.950 . S
H2211 C2234 0.950 . S
H2212 C2235 0.950 . S
H2213 C2237 0.950 . S
H2214 C2238 0.950 . S
H2215 C2239 0.951 . S
H2216 C2241 0.951 . S
H2217 C2243 0.950 . S
H2218 C2244 0.950 . S
H2219 C2246 0.950 . S
H2220 C2249 0.950 . S
H2221 C2250 0.950 . S
H2222 C2252 0.950 . S
H2223 C2253 0.950 . S
C2224 H2206 0.951 . S
C2224 C2225 1.366 . S
C2224 C2226 1.388 . S
C2225 C2224 1.366 . S
C2225 C2229 1.385 . S
C2226 H2207 0.951 . S
C2226 C2224 1.388 . S
C2226 C2227 1.366 . S
C2227 C2226 1.366 . S
C2227 C2228 1.414 . S
C2227 C2230 1.499 . S
C2228 H2208 0.950 . S
C2228 C2227 1.414 . S
C2228 C2229 1.374 . S
C2229 H2209 0.950 . S
C2229 C2225 1.385 . S
C2229 C2228 1.374 . S
C2230 C2227 1.499 . S
C2230 C2231 1.373 . S
C2230 C2232 1.389 . S
C2231 H2210 0.950 . S
C2231 C2230 1.373 . S
C2231 C2247 1.377 . S
C2232 C2230 1.389 . S
C2232 C2233 1.524 . S
C2232 C2246 1.377 . S
C2233 C2232 1.524 . S
C2233 C2234 1.397 . S
C2233 C2238 1.363 . S
C2234 H2211 0.950 . S
C2234 C2233 1.397 . S
C2234 C2235 1.334 . S
C2235 H2212 0.950 . S
C2235 C2234 1.334 . S
C2235 C2236 1.287 . S
C2236 C2235 1.287 . S
C2236 C2237 1.524 . S
C2236 H2255 0.913 . S
C2237 H2213 0.950 . S
C2237 C2236 1.524 . S
C2237 C2238 1.415 . S
C2238 H2214 0.950 . S
C2238 C2233 1.363 . S
C2238 C2237 1.415 . S
C2239 H2215 0.951 . S
C2239 C2240 1.366 . S
C2239 C2241 1.388 . S
C2240 C2239 1.366 . S
C2240 C2244 1.385 . S
C2241 H2216 0.951 . S
C2241 C2239 1.388 . S
C2241 C2242 1.366 . S
C2242 C2241 1.366 . S
C2242 C2243 1.414 . S
C2242 C2245 1.499 . S
C2243 H2217 0.950 . S
C2243 C2242 1.414 . S
C2243 C2244 1.374 . S
C2244 H2218 0.950 . S
C2244 C2240 1.385 . S
C2244 C2243 1.374 . S
C2245 C2242 1.499 . S
C2245 C2246 1.373 . S
C2245 C2247 1.389 . S
C2246 H2219 0.950 . S
C2246 C2232 1.377 . S
C2246 C2245 1.373 . S
C2247 C2231 1.377 . S
C2247 C2245 1.389 . S
C2247 C2248 1.524 . S
C2248 C2247 1.524 . S
C2248 C2249 1.397 . S
C2248 C2253 1.363 . S
C2249 H2220 0.950 . S
C2249 C2248 1.397 . S
C2249 C2250 1.334 . S
C2250 H2221 0.950 . S
C2250 C2249 1.334 . S
C2250 C2251 1.287 . S
C2251 C2250 1.287 . S
C2251 C2252 1.524 . S
C2251 H2254 0.999 . S
C2252 H2222 0.950 . S
C2252 C2251 1.524 . S
C2252 C2253 1.415 . S
C2253 H2223 0.950 . S
C2253 C2248 1.363 . S
C2253 C2252 1.415 . S
H2254 C2251 0.999 . S
H2255 C2236 0.913 . S
H2256 C2274 0.951 . S
H2257 C2276 0.951 . S
H2258 C2278 0.950 . S
H2259 C2279 0.950 . S
H2260 C2281 0.950 . S
H2261 C2284 0.950 . S
H2262 C2285 0.950 . S
H2263 C2287 0.950 . S
H2264 C2288 0.950 . S
H2265 C2289 0.951 . S
H2266 C2291 0.951 . S
H2267 C2293 0.950 . S
H2268 C2294 0.950 . S
H2269 C2296 0.950 . S
H2270 C2299 0.950 . S
H2271 C2300 0.950 . S
H2272 C2302 0.950 . S
H2273 C2303 0.950 . S
C2274 H2256 0.951 . S
C2274 C2275 1.366 . S
C2274 C2276 1.388 . S
C2275 C2274 1.366 . S
C2275 C2279 1.385 . S
C2276 H2257 0.951 . S
C2276 C2274 1.388 . S
C2276 C2277 1.366 . S
C2277 C2276 1.366 . S
C2277 C2278 1.414 . S
C2277 C2280 1.499 . S
C2278 H2258 0.950 . S
C2278 C2277 1.414 . S
C2278 C2279 1.374 . S
C2279 H2259 0.950 . S
C2279 C2275 1.385 . S
C2279 C2278 1.374 . S
C2280 C2277 1.499 . S
C2280 C2281 1.373 . S
C2280 C2282 1.389 . S
C2281 H2260 0.950 . S
C2281 C2280 1.373 . S
C2281 C2297 1.377 . S
C2282 C2280 1.389 . S
C2282 C2283 1.524 . S
C2282 C2296 1.377 . S
C2283 C2282 1.524 . S
C2283 C2284 1.397 . S
C2283 C2288 1.363 . S
C2284 H2261 0.950 . S
C2284 C2283 1.397 . S
C2284 C2285 1.334 . S
C2285 H2262 0.950 . S
C2285 C2284 1.334 . S
C2285 C2286 1.287 . S
C2286 C2285 1.287 . S
C2286 C2287 1.524 . S
C2286 H2305 0.913 . S
C2287 H2263 0.950 . S
C2287 C2286 1.524 . S
C2287 C2288 1.415 . S
C2288 H2264 0.950 . S
C2288 C2283 1.363 . S
C2288 C2287 1.415 . S
C2289 H2265 0.951 . S
C2289 C2290 1.366 . S
C2289 C2291 1.388 . S
C2290 C2289 1.366 . S
C2290 C2294 1.385 . S
C2291 H2266 0.951 . S
C2291 C2289 1.388 . S
C2291 C2292 1.366 . S
C2292 C2291 1.366 . S
C2292 C2293 1.414 . S
C2292 C2295 1.499 . S
C2293 H2267 0.950 . S
C2293 C2292 1.414 . S
C2293 C2294 1.374 . S
C2294 H2268 0.950 . S
C2294 C2290 1.385 . S
C2294 C2293 1.374 . S
C2295 C2292 1.499 . S
C2295 C2296 1.373 . S
C2295 C2297 1.389 . S
C2296 H2269 0.950 . S
C2296 C2282 1.377 . S
C2296 C2295 1.373 . S
C2297 C2281 1.377 . S
C2297 C2295 1.389 . S
C2297 C2298 1.524 . S
C2298 C2297 1.524 . S
C2298 C2299 1.397 . S
C2298 C2303 1.363 . S
C2299 H2270 0.950 . S
C2299 C2298 1.397 . S
C2299 C2300 1.334 . S
C2300 H2271 0.950 . S
C2300 C2299 1.334 . S
C2300 C2301 1.287 . S
C2301 C2300 1.287 . S
C2301 C2302 1.524 . S
C2301 H2304 0.999 . S
C2302 H2272 0.950 . S
C2302 C2301 1.524 . S
C2302 C2303 1.415 . S
C2303 H2273 0.950 . S
C2303 C2298 1.363 . S
C2303 C2302 1.415 . S
H2304 C2301 0.999 . S
H2305 C2286 0.913 . S
H2306 C2324 0.951 . S
H2307 C2326 0.951 . S
H2308 C2328 0.950 . S
H2309 C2329 0.950 . S
H2310 C2331 0.950 . S
H2311 C2334 0.950 . S
H2312 C2335 0.950 . S
H2313 C2337 0.950 . S
H2314 C2338 0.950 . S
H2315 C2339 0.951 . S
H2316 C2341 0.951 . S
H2317 C2343 0.950 . S
H2318 C2344 0.950 . S
H2319 C2346 0.950 . S
H2320 C2349 0.950 . S
H2321 C2350 0.950 . S
H2322 C2352 0.950 . S
H2323 C2353 0.950 . S
C2324 H2306 0.951 . S
C2324 C2325 1.366 . S
C2324 C2326 1.388 . S
C2325 C2324 1.366 . S
C2325 C2329 1.385 . S
C2326 H2307 0.951 . S
C2326 C2324 1.388 . S
C2326 C2327 1.366 . S
C2327 C2326 1.366 . S
C2327 C2328 1.414 . S
C2327 C2330 1.499 . S
C2328 H2308 0.950 . S
C2328 C2327 1.414 . S
C2328 C2329 1.374 . S
C2329 H2309 0.950 . S
C2329 C2325 1.385 . S
C2329 C2328 1.374 . S
C2330 C2327 1.499 . S
C2330 C2331 1.373 . S
C2330 C2332 1.389 . S
C2331 H2310 0.950 . S
C2331 C2330 1.373 . S
C2331 C2347 1.377 . S
C2332 C2330 1.389 . S
C2332 C2333 1.524 . S
C2332 C2346 1.377 . S
C2333 C2332 1.524 . S
C2333 C2334 1.397 . S
C2333 C2338 1.363 . S
C2334 H2311 0.950 . S
C2334 C2333 1.397 . S
C2334 C2335 1.334 . S
C2335 H2312 0.950 . S
C2335 C2334 1.334 . S
C2335 C2336 1.287 . S
C2336 C2335 1.287 . S
C2336 C2337 1.524 . S
C2336 H2355 0.913 . S
C2337 H2313 0.950 . S
C2337 C2336 1.524 . S
C2337 C2338 1.415 . S
C2338 H2314 0.950 . S
C2338 C2333 1.363 . S
C2338 C2337 1.415 . S
C2339 H2315 0.951 . S
C2339 C2340 1.366 . S
C2339 C2341 1.388 . S
C2340 C2339 1.366 . S
C2340 C2344 1.385 . S
C2341 H2316 0.951 . S
C2341 C2339 1.388 . S
C2341 C2342 1.366 . S
C2342 C2341 1.366 . S
C2342 C2343 1.414 . S
C2342 C2345 1.499 . S
C2343 H2317 0.950 . S
C2343 C2342 1.414 . S
C2343 C2344 1.374 . S
C2344 H2318 0.950 . S
C2344 C2340 1.385 . S
C2344 C2343 1.374 . S
C2345 C2342 1.499 . S
C2345 C2346 1.373 . S
C2345 C2347 1.389 . S
C2346 H2319 0.950 . S
C2346 C2332 1.377 . S
C2346 C2345 1.373 . S
C2347 C2331 1.377 . S
C2347 C2345 1.389 . S
C2347 C2348 1.524 . S
C2348 C2347 1.524 . S
C2348 C2349 1.397 . S
C2348 C2353 1.363 . S
C2349 H2320 0.950 . S
C2349 C2348 1.397 . S
C2349 C2350 1.334 . S
C2350 H2321 0.950 . S
C2350 C2349 1.334 . S
C2350 C2351 1.287 . S
C2351 C2350 1.287 . S
C2351 C2352 1.524 . S
C2351 H2354 0.999 . S
C2352 H2322 0.950 . S
C2352 C2351 1.524 . S
C2352 C2353 1.415 . S
C2353 H2323 0.950 . S
C2353 C2348 1.363 . S
C2353 C2352 1.415 . S
H2354 C2351 0.999 . S
H2355 C2336 0.913 . S
H2356 C2374 0.951 . S
H2357 C2376 0.951 . S
H2358 C2378 0.950 . S
H2359 C2379 0.950 . S
H2360 C2381 0.950 . S
H2361 C2384 0.950 . S
H2362 C2385 0.950 . S
H2363 C2387 0.950 . S
H2364 C2388 0.950 . S
H2365 C2389 0.951 . S
H2366 C2391 0.951 . S
H2367 C2393 0.950 . S
H2368 C2394 0.950 . S
H2369 C2396 0.950 . S
H2370 C2399 0.950 . S
H2371 C2400 0.950 . S
H2372 C2402 0.950 . S
H2373 C2403 0.950 . S
C2374 H2356 0.951 . S
C2374 C2375 1.366 . S
C2374 C2376 1.388 . S
C2375 C2374 1.366 . S
C2375 C2379 1.385 . S
C2376 H2357 0.951 . S
C2376 C2374 1.388 . S
C2376 C2377 1.366 . S
C2377 C2376 1.366 . S
C2377 C2378 1.414 . S
C2377 C2380 1.499 . S
C2378 H2358 0.950 . S
C2378 C2377 1.414 . S
C2378 C2379 1.374 . S
C2379 H2359 0.950 . S
C2379 C2375 1.385 . S
C2379 C2378 1.374 . S
C2380 C2377 1.499 . S
C2380 C2381 1.373 . S
C2380 C2382 1.389 . S
C2381 H2360 0.950 . S
C2381 C2380 1.373 . S
C2381 C2397 1.377 . S
C2382 C2380 1.389 . S
C2382 C2383 1.524 . S
C2382 C2396 1.377 . S
C2383 C2382 1.524 . S
C2383 C2384 1.397 . S
C2383 C2388 1.363 . S
C2384 H2361 0.950 . S
C2384 C2383 1.397 . S
C2384 C2385 1.334 . S
C2385 H2362 0.950 . S
C2385 C2384 1.334 . S
C2385 C2386 1.287 . S
C2386 C2385 1.287 . S
C2386 C2387 1.524 . S
C2386 H2405 0.913 . S
C2387 H2363 0.950 . S
C2387 C2386 1.524 . S
C2387 C2388 1.415 . S
C2388 H2364 0.950 . S
C2388 C2383 1.363 . S
C2388 C2387 1.415 . S
C2389 H2365 0.951 . S
C2389 C2390 1.366 . S
C2389 C2391 1.388 . S
C2390 C2389 1.366 . S
C2390 C2394 1.385 . S
C2391 H2366 0.951 . S
C2391 C2389 1.388 . S
C2391 C2392 1.366 . S
C2392 C2391 1.366 . S
C2392 C2393 1.414 . S
C2392 C2395 1.499 . S
C2393 H2367 0.950 . S
C2393 C2392 1.414 . S
C2393 C2394 1.374 . S
C2394 H2368 0.950 . S
C2394 C2390 1.385 . S
C2394 C2393 1.374 . S
C2395 C2392 1.499 . S
C2395 C2396 1.373 . S
C2395 C2397 1.389 . S
C2396 H2369 0.950 . S
C2396 C2382 1.377 . S
C2396 C2395 1.373 . S
C2397 C2381 1.377 . S
C2397 C2395 1.389 . S
C2397 C2398 1.524 . S
C2398 C2397 1.524 . S
C2398 C2399 1.397 . S
C2398 C2403 1.363 . S
C2399 H2370 0.950 . S
C2399 C2398 1.397 . S
C2399 C2400 1.334 . S
C2400 H2371 0.950 . S
C2400 C2399 1.334 . S
C2400 C2401 1.287 . S
C2401 C2400 1.287 . S
C2401 C2402 1.524 . S
C2401 H2404 0.999 . S
C2402 H2372 0.950 . S
C2402 C2401 1.524 . S
C2402 C2403 1.415 . S
C2403 H2373 0.950 . S
C2403 C2398 1.363 . S
C2403 C2402 1.415 . S
H2404 C2401 0.999 . S
H2405 C2386 0.913 . S
H2406 C2424 0.951 . S
H2407 C2426 0.951 . S
H2408 C2428 0.950 . S
H2409 C2429 0.950 . S
H2410 C2431 0.950 . S
H2411 C2434 0.950 . S
H2412 C2435 0.950 . S
H2413 C2437 0.950 . S
H2414 C2438 0.950 . S
H2415 C2439 0.951 . S
H2416 C2441 0.951 . S
H2417 C2443 0.950 . S
H2418 C2444 0.950 . S
H2419 C2446 0.950 . S
H2420 C2449 0.950 . S
H2421 C2450 0.950 . S
H2422 C2452 0.950 . S
H2423 C2453 0.950 . S
C2424 H2406 0.951 . S
C2424 C2425 1.366 . S
C2424 C2426 1.388 . S
C2425 C2424 1.366 . S
C2425 C2429 1.385 . S
C2426 H2407 0.951 . S
C2426 C2424 1.388 . S
C2426 C2427 1.366 . S
C2427 C2426 1.366 . S
C2427 C2428 1.414 . S
C2427 C2430 1.499 . S
C2428 H2408 0.950 . S
C2428 C2427 1.414 . S
C2428 C2429 1.374 . S
C2429 H2409 0.950 . S
C2429 C2425 1.385 . S
C2429 C2428 1.374 . S
C2430 C2427 1.499 . S
C2430 C2431 1.373 . S
C2430 C2432 1.389 . S
C2431 H2410 0.950 . S
C2431 C2430 1.373 . S
C2431 C2447 1.377 . S
C2432 C2430 1.389 . S
C2432 C2433 1.524 . S
C2432 C2446 1.377 . S
C2433 C2432 1.524 . S
C2433 C2434 1.397 . S
C2433 C2438 1.363 . S
C2434 H2411 0.950 . S
C2434 C2433 1.397 . S
C2434 C2435 1.334 . S
C2435 H2412 0.950 . S
C2435 C2434 1.334 . S
C2435 C2436 1.287 . S
C2436 C2435 1.287 . S
C2436 C2437 1.524 . S
C2436 H2455 0.913 . S
C2437 H2413 0.950 . S
C2437 C2436 1.524 . S
C2437 C2438 1.415 . S
C2438 H2414 0.950 . S
C2438 C2433 1.363 . S
C2438 C2437 1.415 . S
C2439 H2415 0.951 . S
C2439 C2440 1.366 . S
C2439 C2441 1.388 . S
C2440 C2439 1.366 . S
C2440 C2444 1.385 . S
C2441 H2416 0.951 . S
C2441 C2439 1.388 . S
C2441 C2442 1.366 . S
C2442 C2441 1.366 . S
C2442 C2443 1.414 . S
C2442 C2445 1.499 . S
C2443 H2417 0.950 . S
C2443 C2442 1.414 . S
C2443 C2444 1.374 . S
C2444 H2418 0.950 . S
C2444 C2440 1.385 . S
C2444 C2443 1.374 . S
C2445 C2442 1.499 . S
C2445 C2446 1.373 . S
C2445 C2447 1.389 . S
C2446 H2419 0.950 . S
C2446 C2432 1.377 . S
C2446 C2445 1.373 . S
C2447 C2431 1.377 . S
C2447 C2445 1.389 . S
C2447 C2448 1.524 . S
C2448 C2447 1.524 . S
C2448 C2449 1.397 . S
C2448 C2453 1.363 . S
C2449 H2420 0.950 . S
C2449 C2448 1.397 . S
C2449 C2450 1.334 . S
C2450 H2421 0.950 . S
C2450 C2449 1.334 . S
C2450 C2451 1.287 . S
C2451 C2450 1.287 . S
C2451 C2452 1.524 . S
C2451 H2454 0.999 . S
C2452 H2422 0.950 . S
C2452 C2451 1.524 . S
C2452 C2453 1.415 . S
C2453 H2423 0.950 . S
C2453 C2448 1.363 . S
C2453 C2452 1.415 . S
H2454 C2451 0.999 . S
H2455 C2436 0.913 . S
H2456 C2474 0.951 . S
H2457 C2476 0.951 . S
H2458 C2478 0.950 . S
H2459 C2479 0.950 . S
H2460 C2481 0.950 . S
H2461 C2484 0.950 . S
H2462 C2485 0.950 . S
H2463 C2487 0.950 . S
H2464 C2488 0.950 . S
H2465 C2489 0.951 . S
H2466 C2491 0.951 . S
H2467 C2493 0.950 . S
H2468 C2494 0.950 . S
H2469 C2496 0.950 . S
H2470 C2499 0.950 . S
H2471 C2500 0.950 . S
H2472 C2502 0.950 . S
H2473 C2503 0.950 . S
C2474 H2456 0.951 . S
C2474 C2475 1.366 . S
C2474 C2476 1.388 . S
C2475 C2474 1.366 . S
C2475 C2479 1.385 . S
C2476 H2457 0.951 . S
C2476 C2474 1.388 . S
C2476 C2477 1.366 . S
C2477 C2476 1.366 . S
C2477 C2478 1.414 . S
C2477 C2480 1.499 . S
C2478 H2458 0.950 . S
C2478 C2477 1.414 . S
C2478 C2479 1.374 . S
C2479 H2459 0.950 . S
C2479 C2475 1.385 . S
C2479 C2478 1.374 . S
C2480 C2477 1.499 . S
C2480 C2481 1.373 . S
C2480 C2482 1.389 . S
C2481 H2460 0.950 . S
C2481 C2480 1.373 . S
C2481 C2497 1.377 . S
C2482 C2480 1.389 . S
C2482 C2483 1.524 . S
C2482 C2496 1.377 . S
C2483 C2482 1.524 . S
C2483 C2484 1.397 . S
C2483 C2488 1.363 . S
C2484 H2461 0.950 . S
C2484 C2483 1.397 . S
C2484 C2485 1.334 . S
C2485 H2462 0.950 . S
C2485 C2484 1.334 . S
C2485 C2486 1.287 . S
C2486 C2485 1.287 . S
C2486 C2487 1.524 . S
C2486 H2505 0.913 . S
C2487 H2463 0.950 . S
C2487 C2486 1.524 . S
C2487 C2488 1.415 . S
C2488 H2464 0.950 . S
C2488 C2483 1.363 . S
C2488 C2487 1.415 . S
C2489 H2465 0.951 . S
C2489 C2490 1.366 . S
C2489 C2491 1.388 . S
C2490 C2489 1.366 . S
C2490 C2494 1.385 . S
C2491 H2466 0.951 . S
C2491 C2489 1.388 . S
C2491 C2492 1.366 . S
C2492 C2491 1.366 . S
C2492 C2493 1.414 . S
C2492 C2495 1.499 . S
C2493 H2467 0.950 . S
C2493 C2492 1.414 . S
C2493 C2494 1.374 . S
C2494 H2468 0.950 . S
C2494 C2490 1.385 . S
C2494 C2493 1.374 . S
C2495 C2492 1.499 . S
C2495 C2496 1.373 . S
C2495 C2497 1.389 . S
C2496 H2469 0.950 . S
C2496 C2482 1.377 . S
C2496 C2495 1.373 . S
C2497 C2481 1.377 . S
C2497 C2495 1.389 . S
C2497 C2498 1.524 . S
C2498 C2497 1.524 . S
C2498 C2499 1.397 . S
C2498 C2503 1.363 . S
C2499 H2470 0.950 . S
C2499 C2498 1.397 . S
C2499 C2500 1.334 . S
C2500 H2471 0.950 . S
C2500 C2499 1.334 . S
C2500 C2501 1.287 . S
C2501 C2500 1.287 . S
C2501 C2502 1.524 . S
C2501 H2504 0.999 . S
C2502 H2472 0.950 . S
C2502 C2501 1.524 . S
C2502 C2503 1.415 . S
C2503 H2473 0.950 . S
C2503 C2498 1.363 . S
C2503 C2502 1.415 . S
H2504 C2501 0.999 . S
H2505 C2486 0.913 . S
H2506 C2524 0.951 . S
H2507 C2526 0.951 . S
H2508 C2528 0.950 . S
H2509 C2529 0.950 . S
H2510 C2531 0.950 . S
H2511 C2534 0.950 . S
H2512 C2535 0.950 . S
H2513 C2537 0.950 . S
H2514 C2538 0.950 . S
H2515 C2539 0.951 . S
H2516 C2541 0.951 . S
H2517 C2543 0.950 . S
H2518 C2544 0.950 . S
H2519 C2546 0.950 . S
H2520 C2549 0.950 . S
H2521 C2550 0.950 . S
H2522 C2552 0.950 . S
H2523 C2553 0.950 . S
C2524 H2506 0.951 . S
C2524 C2525 1.366 . S
C2524 C2526 1.388 . S
C2525 C2524 1.366 . S
C2525 C2529 1.385 . S
C2526 H2507 0.951 . S
C2526 C2524 1.388 . S
C2526 C2527 1.366 . S
C2527 C2526 1.366 . S
C2527 C2528 1.414 . S
C2527 C2530 1.499 . S
C2528 H2508 0.950 . S
C2528 C2527 1.414 . S
C2528 C2529 1.374 . S
C2529 H2509 0.950 . S
C2529 C2525 1.385 . S
C2529 C2528 1.374 . S
C2530 C2527 1.499 . S
C2530 C2531 1.373 . S
C2530 C2532 1.389 . S
C2531 H2510 0.950 . S
C2531 C2530 1.373 . S
C2531 C2547 1.377 . S
C2532 C2530 1.389 . S
C2532 C2533 1.524 . S
C2532 C2546 1.377 . S
C2533 C2532 1.524 . S
C2533 C2534 1.397 . S
C2533 C2538 1.363 . S
C2534 H2511 0.950 . S
C2534 C2533 1.397 . S
C2534 C2535 1.334 . S
C2535 H2512 0.950 . S
C2535 C2534 1.334 . S
C2535 C2536 1.287 . S
C2536 C2535 1.287 . S
C2536 C2537 1.524 . S
C2536 H2555 0.913 . S
C2537 H2513 0.950 . S
C2537 C2536 1.524 . S
C2537 C2538 1.415 . S
C2538 H2514 0.950 . S
C2538 C2533 1.363 . S
C2538 C2537 1.415 . S
C2539 H2515 0.951 . S
C2539 C2540 1.366 . S
C2539 C2541 1.388 . S
C2540 C2539 1.366 . S
C2540 C2544 1.385 . S
C2541 H2516 0.951 . S
C2541 C2539 1.388 . S
C2541 C2542 1.366 . S
C2542 C2541 1.366 . S
C2542 C2543 1.414 . S
C2542 C2545 1.499 . S
C2543 H2517 0.950 . S
C2543 C2542 1.414 . S
C2543 C2544 1.374 . S
C2544 H2518 0.950 . S
C2544 C2540 1.385 . S
C2544 C2543 1.374 . S
C2545 C2542 1.499 . S
C2545 C2546 1.373 . S
C2545 C2547 1.389 . S
C2546 H2519 0.950 . S
C2546 C2532 1.377 . S
C2546 C2545 1.373 . S
C2547 C2531 1.377 . S
C2547 C2545 1.389 . S
C2547 C2548 1.524 . S
C2548 C2547 1.524 . S
C2548 C2549 1.397 . S
C2548 C2553 1.363 . S
C2549 H2520 0.950 . S
C2549 C2548 1.397 . S
C2549 C2550 1.334 . S
C2550 H2521 0.950 . S
C2550 C2549 1.334 . S
C2550 C2551 1.287 . S
C2551 C2550 1.287 . S
C2551 C2552 1.524 . S
C2551 H2554 0.999 . S
C2552 H2522 0.950 . S
C2552 C2551 1.524 . S
C2552 C2553 1.415 . S
C2553 H2523 0.950 . S
C2553 C2548 1.363 . S
C2553 C2552 1.415 . S
H2554 C2551 0.999 . S
H2555 C2536 0.913 . S
H2556 C2574 0.951 . S
H2557 C2576 0.951 . S
H2558 C2578 0.950 . S
H2559 C2579 0.950 . S
H2560 C2581 0.950 . S
H2561 C2584 0.950 . S
H2562 C2585 0.950 . S
H2563 C2587 0.950 . S
H2564 C2588 0.950 . S
H2565 C2589 0.951 1_565 S
H2566 C2591 0.951 . S
H2567 C2593 0.950 . S
H2568 C2594 0.950 . S
H2569 C2596 0.950 . S
H2570 C2599 0.950 . S
H2571 C2600 0.950 . S
H2572 C2602 0.950 . S
H2573 C2603 0.950 . S
C2574 H2556 0.951 . S
C2574 C2575 1.366 . S
C2574 C2576 1.388 . S
C2575 C2574 1.366 . S
C2575 C2579 1.385 . S
C2576 H2557 0.951 . S
C2576 C2574 1.388 . S
C2576 C2577 1.366 . S
C2577 C2576 1.366 . S
C2577 C2578 1.414 . S
C2577 C2580 1.499 . S
C2578 H2558 0.950 . S
C2578 C2577 1.414 . S
C2578 C2579 1.374 . S
C2579 H2559 0.950 . S
C2579 C2575 1.385 . S
C2579 C2578 1.374 . S
C2580 C2577 1.499 . S
C2580 C2581 1.373 . S
C2580 C2582 1.389 . S
C2581 H2560 0.950 . S
C2581 C2580 1.373 . S
C2581 C2597 1.377 . S
C2582 C2580 1.389 . S
C2582 C2583 1.524 . S
C2582 C2596 1.377 . S
C2583 C2582 1.524 . S
C2583 C2584 1.397 . S
C2583 C2588 1.363 . S
C2584 H2561 0.950 . S
C2584 C2583 1.397 . S
C2584 C2585 1.334 . S
C2585 H2562 0.950 . S
C2585 C2584 1.334 . S
C2585 C2586 1.287 . S
C2586 C2585 1.287 . S
C2586 C2587 1.524 . S
C2586 H2605 0.913 . S
C2587 H2563 0.950 . S
C2587 C2586 1.524 . S
C2587 C2588 1.415 . S
C2588 H2564 0.950 . S
C2588 C2583 1.363 . S
C2588 C2587 1.415 . S
C2589 H2565 0.951 1_545 S
C2589 C2590 1.366 . S
C2589 C2591 1.388 . S
C2590 C2589 1.366 . S
C2590 C2594 1.385 . S
C2591 H2566 0.951 . S
C2591 C2589 1.388 . S
C2591 C2592 1.366 . S
C2592 C2591 1.366 . S
C2592 C2593 1.414 . S
C2592 C2595 1.499 . S
C2593 H2567 0.950 . S
C2593 C2592 1.414 . S
C2593 C2594 1.374 . S
C2594 H2568 0.950 . S
C2594 C2590 1.385 . S
C2594 C2593 1.374 . S
C2595 C2592 1.499 . S
C2595 C2596 1.373 . S
C2595 C2597 1.389 . S
C2596 H2569 0.950 . S
C2596 C2582 1.377 . S
C2596 C2595 1.373 . S
C2597 C2581 1.377 . S
C2597 C2595 1.389 . S
C2597 C2598 1.524 . S
C2598 C2597 1.524 . S
C2598 C2599 1.397 . S
C2598 C2603 1.363 . S
C2599 H2570 0.950 . S
C2599 C2598 1.397 . S
C2599 C2600 1.334 . S
C2600 H2571 0.950 . S
C2600 C2599 1.334 . S
C2600 C2601 1.287 . S
C2601 C2600 1.287 . S
C2601 C2602 1.524 . S
C2601 H2604 0.999 . S
C2602 H2572 0.950 . S
C2602 C2601 1.524 . S
C2602 C2603 1.415 . S
C2603 H2573 0.950 . S
C2603 C2598 1.363 . S
C2603 C2602 1.415 . S
H2604 C2601 0.999 . S
H2605 C2586 0.913 . S
H2606 C2624 0.951 . S
H2607 C2626 0.951 . S
H2608 C2628 0.950 . S
H2609 C2629 0.950 . S
H2610 C2631 0.950 . S
H2611 C2634 0.950 . S
H2612 C2635 0.950 . S
H2613 C2637 0.950 . S
H2614 C2638 0.950 . S
H2615 C2639 0.951 . S
H2616 C2641 0.951 . S
H2617 C2643 0.950 . S
H2618 C2644 0.950 1_455 S
H2619 C2646 0.950 . S
H2620 C2649 0.950 . S
H2621 C2650 0.950 . S
H2622 C2652 0.950 . S
H2623 C2653 0.950 . S
C2624 H2606 0.951 . S
C2624 C2625 1.366 . S
C2624 C2626 1.388 . S
C2625 C2624 1.366 . S
C2625 C2629 1.385 . S
C2626 H2607 0.951 . S
C2626 C2624 1.388 . S
C2626 C2627 1.366 . S
C2627 C2626 1.366 . S
C2627 C2628 1.414 . S
C2627 C2630 1.499 . S
C2628 H2608 0.950 . S
C2628 C2627 1.414 . S
C2628 C2629 1.374 . S
C2629 H2609 0.950 . S
C2629 C2625 1.385 . S
C2629 C2628 1.374 . S
C2630 C2627 1.499 . S
C2630 C2631 1.373 . S
C2630 C2632 1.389 . S
C2631 H2610 0.950 . S
C2631 C2630 1.373 . S
C2631 C2647 1.377 . S
C2632 C2630 1.389 . S
C2632 C2633 1.524 . S
C2632 C2646 1.377 . S
C2633 C2632 1.524 . S
C2633 C2634 1.397 . S
C2633 C2638 1.363 . S
C2634 H2611 0.950 . S
C2634 C2633 1.397 . S
C2634 C2635 1.334 . S
C2635 H2612 0.950 . S
C2635 C2634 1.334 . S
C2635 C2636 1.287 . S
C2636 C2635 1.287 . S
C2636 C2637 1.524 . S
C2636 H2655 0.913 . S
C2637 H2613 0.950 . S
C2637 C2636 1.524 . S
C2637 C2638 1.415 . S
C2638 H2614 0.950 . S
C2638 C2633 1.363 . S
C2638 C2637 1.415 . S
C2639 H2615 0.951 . S
C2639 C2640 1.366 . S
C2639 C2641 1.388 . S
C2640 C2639 1.366 . S
C2640 C2644 1.385 . S
C2641 H2616 0.951 . S
C2641 C2639 1.388 . S
C2641 C2642 1.366 . S
C2642 C2641 1.366 . S
C2642 C2643 1.414 . S
C2642 C2645 1.499 . S
C2643 H2617 0.950 . S
C2643 C2642 1.414 . S
C2643 C2644 1.374 . S
C2644 H2618 0.950 1_655 S
C2644 C2640 1.385 . S
C2644 C2643 1.374 . S
C2645 C2642 1.499 . S
C2645 C2646 1.373 . S
C2645 C2647 1.389 . S
C2646 H2619 0.950 . S
C2646 C2632 1.377 . S
C2646 C2645 1.373 . S
C2647 C2631 1.377 . S
C2647 C2645 1.389 . S
C2647 C2648 1.524 . S
C2648 C2647 1.524 . S
C2648 C2649 1.397 . S
C2648 C2653 1.363 . S
C2649 H2620 0.950 . S
C2649 C2648 1.397 . S
C2649 C2650 1.334 . S
C2650 H2621 0.950 . S
C2650 C2649 1.334 . S
C2650 C2651 1.287 . S
C2651 C2650 1.287 . S
C2651 C2652 1.524 . S
C2651 H2654 0.999 . S
C2652 H2622 0.950 . S
C2652 C2651 1.524 . S
C2652 C2653 1.415 . S
C2653 H2623 0.950 . S
C2653 C2648 1.363 . S
C2653 C2652 1.415 . S
H2654 C2651 0.999 . S
H2655 C2636 0.913 . S
H2656 C2674 0.951 . S
H2657 C2676 0.951 . S
H2658 C2678 0.950 . S
H2659 C2679 0.950 . S
H2660 C2681 0.950 . S
H2661 C2684 0.950 . S
H2662 C2685 0.950 . S
H2663 C2687 0.950 . S
H2664 C2688 0.950 . S
H2665 C2689 0.951 . S
H2666 C2691 0.951 . S
H2667 C2693 0.950 . S
H2668 C2694 0.950 . S
H2669 C2696 0.950 . S
H2670 C2699 0.950 . S
H2671 C2700 0.950 . S
H2672 C2702 0.950 . S
H2673 C2703 0.950 . S
C2674 H2656 0.951 . S
C2674 C2675 1.366 . S
C2674 C2676 1.388 . S
C2675 C2674 1.366 . S
C2675 C2679 1.385 . S
C2676 H2657 0.951 . S
C2676 C2674 1.388 . S
C2676 C2677 1.366 . S
C2677 C2676 1.366 . S
C2677 C2678 1.414 . S
C2677 C2680 1.499 . S
C2678 H2658 0.950 . S
C2678 C2677 1.414 . S
C2678 C2679 1.374 . S
C2679 H2659 0.950 . S
C2679 C2675 1.385 . S
C2679 C2678 1.374 . S
C2680 C2677 1.499 . S
C2680 C2681 1.373 . S
C2680 C2682 1.389 . S
C2681 H2660 0.950 . S
C2681 C2680 1.373 . S
C2681 C2697 1.377 . S
C2682 C2680 1.389 . S
C2682 C2683 1.524 . S
C2682 C2696 1.377 . S
C2683 C2682 1.524 . S
C2683 C2684 1.397 . S
C2683 C2688 1.363 . S
C2684 H2661 0.950 . S
C2684 C2683 1.397 . S
C2684 C2685 1.334 . S
C2685 H2662 0.950 . S
C2685 C2684 1.334 . S
C2685 C2686 1.287 . S
C2686 C2685 1.287 . S
C2686 C2687 1.524 . S
C2686 H2705 0.913 . S
C2687 H2663 0.950 . S
C2687 C2686 1.524 . S
C2687 C2688 1.415 . S
C2688 H2664 0.950 . S
C2688 C2683 1.363 . S
C2688 C2687 1.415 . S
C2689 H2665 0.951 . S
C2689 C2690 1.366 . S
C2689 C2691 1.388 . S
C2690 C2689 1.366 . S
C2690 C2694 1.385 . S
C2691 H2666 0.951 . S
C2691 C2689 1.388 . S
C2691 C2692 1.366 . S
C2692 C2691 1.366 . S
C2692 C2693 1.414 . S
C2692 C2695 1.499 . S
C2693 H2667 0.950 . S
C2693 C2692 1.414 . S
C2693 C2694 1.374 . S
C2694 H2668 0.950 . S
C2694 C2690 1.385 . S
C2694 C2693 1.374 . S
C2695 C2692 1.499 . S
C2695 C2696 1.373 . S
C2695 C2697 1.389 . S
C2696 H2669 0.950 . S
C2696 C2682 1.377 . S
C2696 C2695 1.373 . S
C2697 C2681 1.377 . S
C2697 C2695 1.389 . S
C2697 C2698 1.524 . S
C2698 C2697 1.524 . S
C2698 C2699 1.397 . S
C2698 C2703 1.363 . S
C2699 H2670 0.950 . S
C2699 C2698 1.397 . S
C2699 C2700 1.334 . S
C2700 H2671 0.950 . S
C2700 C2699 1.334 . S
C2700 C2701 1.287 . S
C2701 C2700 1.287 . S
C2701 C2702 1.524 . S
C2701 H2704 0.999 1_565 S
C2702 H2672 0.950 . S
C2702 C2701 1.524 . S
C2702 C2703 1.415 . S
C2703 H2673 0.950 . S
C2703 C2698 1.363 . S
C2703 C2702 1.415 . S
H2704 C2701 0.999 1_545 S
H2705 C2686 0.913 . S
H2706 C2724 0.951 . S
H2707 C2726 0.951 . S
H2708 C2728 0.950 . S
H2709 C2729 0.950 . S
H2710 C2731 0.950 . S
H2711 C2734 0.950 . S
H2712 C2735 0.950 . S
H2713 C2737 0.950 . S
H2714 C2738 0.950 . S
H2715 C2739 0.951 . S
H2716 C2741 0.951 . S
H2717 C2743 0.950 . S
H2718 C2744 0.950 . S
H2719 C2746 0.950 . S
H2720 C2749 0.950 . S
H2721 C2750 0.950 . S
H2722 C2752 0.950 . S
H2723 C2753 0.950 . S
C2724 H2706 0.951 . S
C2724 C2725 1.366 . S
C2724 C2726 1.388 . S
C2725 C2724 1.366 . S
C2725 C2729 1.385 . S
C2726 H2707 0.951 . S
C2726 C2724 1.388 . S
C2726 C2727 1.366 . S
C2727 C2726 1.366 . S
C2727 C2728 1.414 . S
C2727 C2730 1.499 . S
C2728 H2708 0.950 . S
C2728 C2727 1.414 . S
C2728 C2729 1.374 . S
C2729 H2709 0.950 . S
C2729 C2725 1.385 . S
C2729 C2728 1.374 . S
C2730 C2727 1.499 . S
C2730 C2731 1.373 . S
C2730 C2732 1.389 . S
C2731 H2710 0.950 . S
C2731 C2730 1.373 . S
C2731 C2747 1.377 . S
C2732 C2730 1.389 . S
C2732 C2733 1.524 . S
C2732 C2746 1.377 . S
C2733 C2732 1.524 . S
C2733 C2734 1.397 . S
C2733 C2738 1.363 . S
C2734 H2711 0.950 . S
C2734 C2733 1.397 . S
C2734 C2735 1.334 . S
C2735 H2712 0.950 . S
C2735 C2734 1.334 . S
C2735 C2736 1.287 . S
C2736 C2735 1.287 . S
C2736 C2737 1.524 . S
C2736 H2755 0.913 . S
C2737 H2713 0.950 . S
C2737 C2736 1.524 . S
C2737 C2738 1.415 . S
C2738 H2714 0.950 . S
C2738 C2733 1.363 . S
C2738 C2737 1.415 . S
C2739 H2715 0.951 . S
C2739 C2740 1.366 . S
C2739 C2741 1.388 . S
C2740 C2739 1.366 . S
C2740 C2744 1.385 . S
C2741 H2716 0.951 . S
C2741 C2739 1.388 . S
C2741 C2742 1.366 . S
C2742 C2741 1.366 . S
C2742 C2743 1.414 . S
C2742 C2745 1.499 . S
C2743 H2717 0.950 . S
C2743 C2742 1.414 . S
C2743 C2744 1.374 . S
C2744 H2718 0.950 . S
C2744 C2740 1.385 . S
C2744 C2743 1.374 . S
C2745 C2742 1.499 . S
C2745 C2746 1.373 . S
C2745 C2747 1.389 . S
C2746 H2719 0.950 . S
C2746 C2732 1.377 . S
C2746 C2745 1.373 . S
C2747 C2731 1.377 . S
C2747 C2745 1.389 . S
C2747 C2748 1.524 . S
C2748 C2747 1.524 . S
C2748 C2749 1.397 . S
C2748 C2753 1.363 . S
C2749 H2720 0.950 . S
C2749 C2748 1.397 . S
C2749 C2750 1.334 . S
C2750 H2721 0.950 . S
C2750 C2749 1.334 . S
C2750 C2751 1.287 . S
C2751 C2750 1.287 . S
C2751 C2752 1.524 . S
C2751 H2754 0.999 . S
C2752 H2722 0.950 . S
C2752 C2751 1.524 . S
C2752 C2753 1.415 . S
C2753 H2723 0.950 . S
C2753 C2748 1.363 . S
C2753 C2752 1.415 . S
H2754 C2751 0.999 . S
H2755 C2736 0.913 . S
H2756 C2774 0.951 . S
H2757 C2776 0.951 . S
H2758 C2778 0.950 . S
H2759 C2779 0.950 . S
H2760 C2781 0.950 . S
H2761 C2784 0.950 . S
H2762 C2785 0.950 . S
H2763 C2787 0.950 . S
H2764 C2788 0.950 . S
H2765 C2789 0.951 . S
H2766 C2791 0.951 . S
H2767 C2793 0.950 . S
H2768 C2794 0.950 . S
H2769 C2796 0.950 . S
H2770 C2799 0.950 . S
H2771 C2800 0.950 . S
H2772 C2802 0.950 . S
H2773 C2803 0.950 . S
C2774 H2756 0.951 . S
C2774 C2775 1.366 . S
C2774 C2776 1.388 . S
C2775 C2774 1.366 . S
C2775 C2779 1.385 . S
C2776 H2757 0.951 . S
C2776 C2774 1.388 . S
C2776 C2777 1.366 . S
C2777 C2776 1.366 . S
C2777 C2778 1.414 . S
C2777 C2780 1.499 . S
C2778 H2758 0.950 . S
C2778 C2777 1.414 . S
C2778 C2779 1.374 . S
C2779 H2759 0.950 . S
C2779 C2775 1.385 . S
C2779 C2778 1.374 . S
C2780 C2777 1.499 . S
C2780 C2781 1.373 . S
C2780 C2782 1.389 . S
C2781 H2760 0.950 . S
C2781 C2780 1.373 . S
C2781 C2797 1.377 . S
C2782 C2780 1.389 . S
C2782 C2783 1.524 . S
C2782 C2796 1.377 . S
C2783 C2782 1.524 . S
C2783 C2784 1.397 . S
C2783 C2788 1.363 . S
C2784 H2761 0.950 . S
C2784 C2783 1.397 . S
C2784 C2785 1.334 . S
C2785 H2762 0.950 . S
C2785 C2784 1.334 . S
C2785 C2786 1.287 . S
C2786 C2785 1.287 . S
C2786 C2787 1.524 . S
C2786 H2805 0.913 . S
C2787 H2763 0.950 . S
C2787 C2786 1.524 . S
C2787 C2788 1.415 . S
C2788 H2764 0.950 . S
C2788 C2783 1.363 . S
C2788 C2787 1.415 . S
C2789 H2765 0.951 . S
C2789 C2790 1.366 . S
C2789 C2791 1.388 . S
C2790 C2789 1.366 . S
C2790 C2794 1.385 . S
C2791 H2766 0.951 . S
C2791 C2789 1.388 . S
C2791 C2792 1.366 . S
C2792 C2791 1.366 . S
C2792 C2793 1.414 . S
C2792 C2795 1.499 . S
C2793 H2767 0.950 . S
C2793 C2792 1.414 . S
C2793 C2794 1.374 . S
C2794 H2768 0.950 . S
C2794 C2790 1.385 . S
C2794 C2793 1.374 . S
C2795 C2792 1.499 . S
C2795 C2796 1.373 . S
C2795 C2797 1.389 . S
C2796 H2769 0.950 . S
C2796 C2782 1.377 . S
C2796 C2795 1.373 . S
C2797 C2781 1.377 . S
C2797 C2795 1.389 . S
C2797 C2798 1.524 . S
C2798 C2797 1.524 . S
C2798 C2799 1.397 . S
C2798 C2803 1.363 . S
C2799 H2770 0.950 . S
C2799 C2798 1.397 . S
C2799 C2800 1.334 . S
C2800 H2771 0.950 . S
C2800 C2799 1.334 . S
C2800 C2801 1.287 . S
C2801 C2800 1.287 . S
C2801 C2802 1.524 . S
C2801 H2804 0.999 1_545 S
C2802 H2772 0.950 . S
C2802 C2801 1.524 . S
C2802 C2803 1.415 . S
C2803 H2773 0.950 . S
C2803 C2798 1.363 . S
C2803 C2802 1.415 . S
H2804 C2801 0.999 1_565 S
H2805 C2786 0.913 . S
H2806 C2824 0.951 . S
H2807 C2826 0.951 . S
H2808 C2828 0.950 . S
H2809 C2829 0.950 . S
H2810 C2831 0.950 . S
H2811 C2834 0.950 . S
H2812 C2835 0.950 . S
H2813 C2837 0.950 . S
H2814 C2838 0.950 . S
H2815 C2839 0.951 . S
H2816 C2841 0.951 . S
H2817 C2843 0.950 . S
H2818 C2844 0.950 . S
H2819 C2846 0.950 . S
H2820 C2849 0.950 . S
H2821 C2850 0.950 1_455 S
H2822 C2852 0.950 1_455 S
H2823 C2853 0.950 . S
C2824 H2806 0.951 . S
C2824 C2825 1.366 . S
C2824 C2826 1.388 . S
C2825 C2824 1.366 . S
C2825 C2829 1.385 . S
C2826 H2807 0.951 . S
C2826 C2824 1.388 . S
C2826 C2827 1.366 . S
C2827 C2826 1.366 . S
C2827 C2828 1.414 . S
C2827 C2830 1.499 . S
C2828 H2808 0.950 . S
C2828 C2827 1.414 . S
C2828 C2829 1.374 . S
C2829 H2809 0.950 . S
C2829 C2825 1.385 . S
C2829 C2828 1.374 . S
C2830 C2827 1.499 . S
C2830 C2831 1.373 . S
C2830 C2832 1.389 . S
C2831 H2810 0.950 . S
C2831 C2830 1.373 . S
C2831 C2847 1.377 . S
C2832 C2830 1.389 . S
C2832 C2833 1.524 . S
C2832 C2846 1.377 . S
C2833 C2832 1.524 . S
C2833 C2834 1.397 . S
C2833 C2838 1.363 . S
C2834 H2811 0.950 . S
C2834 C2833 1.397 . S
C2834 C2835 1.334 . S
C2835 H2812 0.950 . S
C2835 C2834 1.334 . S
C2835 C2836 1.287 . S
C2836 C2835 1.287 . S
C2836 C2837 1.524 . S
C2836 H2855 0.913 . S
C2837 H2813 0.950 . S
C2837 C2836 1.524 . S
C2837 C2838 1.415 . S
C2838 H2814 0.950 . S
C2838 C2833 1.363 . S
C2838 C2837 1.415 . S
C2839 H2815 0.951 . S
C2839 C2840 1.366 . S
C2839 C2841 1.388 . S
C2840 C2839 1.366 . S
C2840 C2844 1.385 . S
C2841 H2816 0.951 . S
C2841 C2839 1.388 . S
C2841 C2842 1.366 . S
C2842 C2841 1.366 . S
C2842 C2843 1.414 . S
C2842 C2845 1.499 . S
C2843 H2817 0.950 . S
C2843 C2842 1.414 . S
C2843 C2844 1.374 . S
C2844 H2818 0.950 . S
C2844 C2840 1.385 . S
C2844 C2843 1.374 . S
C2845 C2842 1.499 . S
C2845 C2846 1.373 . S
C2845 C2847 1.389 . S
C2846 H2819 0.950 . S
C2846 C2832 1.377 . S
C2846 C2845 1.373 . S
C2847 C2831 1.377 . S
C2847 C2845 1.389 . S
C2847 C2848 1.524 . S
C2848 C2847 1.524 . S
C2848 C2849 1.397 . S
C2848 C2853 1.363 . S
C2849 H2820 0.950 . S
C2849 C2848 1.397 . S
C2849 C2850 1.334 . S
C2850 H2821 0.950 1_655 S
C2850 C2849 1.334 . S
C2850 C2851 1.287 1_655 S
C2851 C2850 1.287 1_455 S
C2851 C2852 1.524 1_455 S
C2851 H2854 0.999 . S
C2852 H2822 0.950 1_655 S
C2852 C2851 1.524 1_655 S
C2852 C2853 1.415 . S
C2853 H2823 0.950 . S
C2853 C2848 1.363 . S
C2853 C2852 1.415 . S
H2854 C2851 0.999 . S
H2855 C2836 0.913 . S
H2856 C2874 0.951 . S
H2857 C2876 0.951 . S
H2858 C2878 0.950 . S
H2859 C2879 0.950 . S
H2860 C2881 0.950 . S
H2861 C2884 0.950 . S
H2862 C2885 0.950 . S
H2863 C2887 0.950 . S
H2864 C2888 0.950 . S
H2865 C2889 0.951 . S
H2866 C2891 0.951 . S
H2867 C2893 0.950 . S
H2868 C2894 0.950 . S
H2869 C2896 0.950 . S
H2870 C2899 0.950 . S
H2871 C2900 0.950 . S
H2872 C2902 0.950 . S
H2873 C2903 0.950 . S
C2874 H2856 0.951 . S
C2874 C2875 1.366 . S
C2874 C2876 1.388 . S
C2875 C2874 1.366 . S
C2875 C2879 1.385 . S
C2876 H2857 0.951 . S
C2876 C2874 1.388 . S
C2876 C2877 1.366 . S
C2877 C2876 1.366 . S
C2877 C2878 1.414 . S
C2877 C2880 1.499 . S
C2878 H2858 0.950 . S
C2878 C2877 1.414 . S
C2878 C2879 1.374 . S
C2879 H2859 0.950 . S
C2879 C2875 1.385 . S
C2879 C2878 1.374 . S
C2880 C2877 1.499 . S
C2880 C2881 1.373 . S
C2880 C2882 1.389 . S
C2881 H2860 0.950 . S
C2881 C2880 1.373 . S
C2881 C2897 1.377 . S
C2882 C2880 1.389 . S
C2882 C2883 1.524 . S
C2882 C2896 1.377 . S
C2883 C2882 1.524 . S
C2883 C2884 1.397 . S
C2883 C2888 1.363 . S
C2884 H2861 0.950 . S
C2884 C2883 1.397 . S
C2884 C2885 1.334 . S
C2885 H2862 0.950 . S
C2885 C2884 1.334 . S
C2885 C2886 1.287 . S
C2886 C2885 1.287 . S
C2886 C2887 1.524 . S
C2886 H2905 0.913 . S
C2887 H2863 0.950 . S
C2887 C2886 1.524 . S
C2887 C2888 1.415 . S
C2888 H2864 0.950 . S
C2888 C2883 1.363 . S
C2888 C2887 1.415 . S
C2889 H2865 0.951 . S
C2889 C2890 1.366 . S
C2889 C2891 1.388 . S
C2890 C2889 1.366 . S
C2890 C2894 1.385 . S
C2891 H2866 0.951 . S
C2891 C2889 1.388 . S
C2891 C2892 1.366 . S
C2892 C2891 1.366 . S
C2892 C2893 1.414 . S
C2892 C2895 1.499 . S
C2893 H2867 0.950 . S
C2893 C2892 1.414 . S
C2893 C2894 1.374 . S
C2894 H2868 0.950 . S
C2894 C2890 1.385 . S
C2894 C2893 1.374 . S
C2895 C2892 1.499 . S
C2895 C2896 1.373 . S
C2895 C2897 1.389 . S
C2896 H2869 0.950 . S
C2896 C2882 1.377 . S
C2896 C2895 1.373 . S
C2897 C2881 1.377 . S
C2897 C2895 1.389 . S
C2897 C2898 1.524 . S
C2898 C2897 1.524 . S
C2898 C2899 1.397 . S
C2898 C2903 1.363 . S
C2899 H2870 0.950 . S
C2899 C2898 1.397 . S
C2899 C2900 1.334 . S
C2900 H2871 0.950 . S
C2900 C2899 1.334 . S
C2900 C2901 1.287 . S
C2901 C2900 1.287 . S
C2901 C2902 1.524 . S
C2901 H2904 0.999 . S
C2902 H2872 0.950 . S
C2902 C2901 1.524 . S
C2902 C2903 1.415 . S
C2903 H2873 0.950 . S
C2903 C2898 1.363 . S
C2903 C2902 1.415 . S
H2904 C2901 0.999 . S
H2905 C2886 0.913 . S
C540 C331 2.625 . S
C525 C24 2.626 . S
C590 C321 3.277 . S
C575 C53 3.283 . S
C640 C322 0.748 . S
C625 C82 0.747 . S
C675 C137 0.261 . S
C690 C344 0.457 . S
C725 C184 3.085 . S
C740 C347 3.062 . S
C790 C330 0.770 . S
C775 C202 0.771 . S
C825 C266 0.354 . S
C840 C320 0.395 . S
C875 C293 2.639 . S
C890 C338 2.628 . S
C940 C351 2.879 . S
C925 C2 2.888 . S
C975 C57 0.644 . S
C990 C400 0.822 . S
C1040 C378 0.926 . S
C1025 C106 0.932 . S
C1090 C392 0.462 . S
C1075 C143 0.405 . S
C1125 C162 0.467 . S
C1140 C353 0.504 . S
C1190 C406 0.882 1_556 S
C1175 C226 0.884 . S
C1225 C264 2.421 . S
C1240 C362 2.356 . S
C1275 C297 0.343 . S
C1290 C383 0.401 1_556 S
C1325 C26 0.672 . S
C1340 C409 0.685 . S
C1375 C186 0.170 . S
C1390 C393 0.466 . S
C1440 C352 2.503 . S
C1425 C224 2.515 . S
C1490 C384 1.165 . S
C1475 C242 1.212 . S
C1525 C303 3.276 . S
C1540 C375 3.221 . S
C1575 C104 2.187 . S
C1590 C382 2.168 . S
C1640 C369 2.806 1_565 S
C1625 C133 2.838 . S
C1675 C63 1.121 . S
C1690 C361 1.130 . S
C1725 C304 2.638 . S
C1740 C424 2.628 . S
C1775 C173 3.085 . S
C1790 C414 3.062 . S
C1840 C415 0.770 . S
C1825 C223 0.771 . S
C1890 C437 0.395 . S
C1875 C257 0.357 . S
C1925 C64 3.284 . S
C1940 C440 3.276 . S
C1990 C423 0.746 . S
C1975 C103 0.746 . S
C2025 C146 0.261 . S
C2040 C413 0.453 . S
C2075 C13 2.626 . S
C2090 C431 2.625 . S
C2125 C282 3.276 . S
C2140 C444 3.221 . S
C2190 C493 0.467 . S
C2175 C177 0.171 . S
C2225 C213 2.516 . S
C2240 C471 2.503 . S
C2275 C263 1.212 . S
C2290 C485 1.165 . S
C2340 C446 1.129 . S
C2325 C42 1.122 . S
C2375 C93 2.187 . S
C2390 C499 2.168 . S
C2440 C455 2.806 . S
C2425 C144 2.838 . S
C2490 C476 0.687 . S
C2475 C17 0.674 . S
C2540 C502 0.400 . S
C2525 C306 0.342 . S
C2575 C66 0.643 . S
C2590 C486 0.820 . S
C2625 C97 0.932 . S
C2640 C445 0.927 . S
C2690 C477 0.462 . S
C2675 C122 0.404 . S
C2725 C23 2.888 . S
C2740 C468 2.879 . S
C2775 C217 0.885 . S
C2790 C475 0.877 . S
C2840 C462 2.356 . S
C2825 C253 2.420 . S
C2890 C454 0.503 . S
C2875 C183 0.467 . S
