# Generated by pormake.
# Topology pto, (3,4)-cn, num edge types: 1
# Building blocks:
#     Node 0, Type 0, BuildingBlock: OLANEW_clean_sbu_2, # of connection points: 3
#     Node 1, Type 0, BuildingBlock: OLANEW_clean_sbu_2, # of connection points: 3
#     Node 2, Type 0, BuildingBlock: OLANEW_clean_sbu_2, # of connection points: 3
#     Node 3, Type 0, BuildingBlock: OLANEW_clean_sbu_2, # of connection points: 3
#     Node 4, Type 0, BuildingBlock: OLANEW_clean_sbu_2, # of connection points: 3
#     Node 5, Type 0, BuildingBlock: OLANEW_clean_sbu_2, # of connection points: 3
#     Node 6, Type 0, BuildingBlock: OLANEW_clean_sbu_2, # of connection points: 3
#     Node 7, Type 0, BuildingBlock: OLANEW_clean_sbu_2, # of connection points: 3
#     Node 8, Type 1, BuildingBlock: KOZSID_clean_sbu_0, # of connection points: 4
#     Node 9, Type 1, BuildingBlock: KOZSID_clean_sbu_0, # of connection points: 4
#     Node 10, Type 1, BuildingBlock: KOZSID_clean_sbu_0, # of connection points: 4
#     Node 11, Type 1, BuildingBlock: KOZSID_clean_sbu_0, # of connection points: 4
#     Node 12, Type 1, BuildingBlock: KOZSID_clean_sbu_0, # of connection points: 4
#     Node 13, Type 1, BuildingBlock: KOZSID_clean_sbu_0, # of connection points: 4
#     Edge 14, Type (0, 1), BuildingBlock: XUDNAN_clean_linker_2, # of connection points: 2
#     Edge 15, Type (0, 1), BuildingBlock: XUDNAN_clean_linker_2, # of connection points: 2
#     Edge 16, Type (0, 1), BuildingBlock: XUDNAN_clean_linker_2, # of connection points: 2
#     Edge 17, Type (0, 1), BuildingBlock: XUDNAN_clean_linker_2, # of connection points: 2
#     Edge 18, Type (0, 1), BuildingBlock: XUDNAN_clean_linker_2, # of connection points: 2
#     Edge 19, Type (0, 1), BuildingBlock: XUDNAN_clean_linker_2, # of connection points: 2
#     Edge 20, Type (0, 1), BuildingBlock: XUDNAN_clean_linker_2, # of connection points: 2
#     Edge 21, Type (0, 1), BuildingBlock: XUDNAN_clean_linker_2, # of connection points: 2
#     Edge 22, Type (0, 1), BuildingBlock: XUDNAN_clean_linker_2, # of connection points: 2
#     Edge 23, Type (0, 1), BuildingBlock: XUDNAN_clean_linker_2, # of connection points: 2
#     Edge 24, Type (0, 1), BuildingBlock: XUDNAN_clean_linker_2, # of connection points: 2
#     Edge 25, Type (0, 1), BuildingBlock: XUDNAN_clean_linker_2, # of connection points: 2
#     Edge 26, Type (0, 1), BuildingBlock: XUDNAN_clean_linker_2, # of connection points: 2
#     Edge 27, Type (0, 1), BuildingBlock: XUDNAN_clean_linker_2, # of connection points: 2
#     Edge 28, Type (0, 1), BuildingBlock: XUDNAN_clean_linker_2, # of connection points: 2
#     Edge 29, Type (0, 1), BuildingBlock: XUDNAN_clean_linker_2, # of connection points: 2
#     Edge 30, Type (0, 1), BuildingBlock: XUDNAN_clean_linker_2, # of connection points: 2
#     Edge 31, Type (0, 1), BuildingBlock: XUDNAN_clean_linker_2, # of connection points: 2
#     Edge 32, Type (0, 1), BuildingBlock: XUDNAN_clean_linker_2, # of connection points: 2
#     Edge 33, Type (0, 1), BuildingBlock: XUDNAN_clean_linker_2, # of connection points: 2
#     Edge 34, Type (0, 1), BuildingBlock: XUDNAN_clean_linker_2, # of connection points: 2
#     Edge 35, Type (0, 1), BuildingBlock: XUDNAN_clean_linker_2, # of connection points: 2
#     Edge 36, Type (0, 1), BuildingBlock: XUDNAN_clean_linker_2, # of connection points: 2
#     Edge 37, Type (0, 1), BuildingBlock: XUDNAN_clean_linker_2, # of connection points: 2
# Relax obj value: 0.009
# Max RMSD: 0.121
# Mean RMSD: 0.052
data_MOF--net-pto--node1-OLANEW_clean_sbu_2--node2-KOZSID_clean_sbu_0--edge1-XUDNAN_clean_linker_2
_symmetry_space_group_name_H-M    P1
_symmetry_Int_Tables_number       1
_symmetry_cell_setting            triclinic
loop_
_symmetry_equiv_pos_as_xyz
'x, y, z'
_cell_length_a     39.724026
_cell_length_b     55.266592
_cell_length_c     47.336817
_cell_angle_alpha  91.040151
_cell_angle_beta   87.372094
_cell_angle_gamma 107.38997
loop_
_atom_site_label
_atom_site_type_symbol
_atom_site_fract_x
_atom_site_fract_y
_atom_site_fract_z
_atom_type_partial_charge
O0 O 0.35434 0.34258 0.30155 0.0
Cd1 Cd 0.32693 0.33706 0.34934 0.0
O2 O 0.33006 0.37241 0.29243 0.0
Cd3 Cd 0.30323 0.37449 0.33329 0.0
O4 O 0.26469 0.38975 0.35572 0.0
C5 C 0.23268 0.3762 0.3585 0.0
O6 O 0.22413 0.35246 0.34995 0.0
C7 C 0.349 0.35842 0.28446 0.0
C8 C 0.34368 0.3004 0.38107 0.0
O9 O 0.31895 0.29416 0.36344 0.0
O10 O 0.36083 0.32395 0.38348 0.0
O11 O 0.30139 0.88692 0.79595 0.0
Cd12 Cd 0.25584 0.89646 0.76899 0.0
O13 O 0.29484 0.85085 0.77304 0.0
Cd14 Cd 0.24978 0.84868 0.74738 0.0
O15 O 0.21523 0.81514 0.727 0.0
C16 C 0.23165 0.80045 0.7162 0.0
O17 O 0.2663 0.80765 0.71651 0.0
C18 C 0.31047 0.86696 0.7913 0.0
C19 C 0.28073 0.94173 0.73861 0.0
O20 O 0.26836 0.94153 0.76413 0.0
O21 O 0.28164 0.92057 0.72757 0.0
O22 O 0.80201 0.79288 0.34067 0.0
Cd23 Cd 0.76902 0.75241 0.31981 0.0
O24 O 0.83141 0.80955 0.30163 0.0
Cd25 Cd 0.80171 0.7805 0.27289 0.0
O26 O 0.77735 0.77649 0.23194 0.0
C27 C 0.7449 0.7748 0.23011 0.0
O28 O 0.72506 0.77315 0.25341 0.0
C29 C 0.82513 0.81092 0.32808 0.0
C30 C 0.80801 0.71804 0.31322 0.0
O31 O 0.79418 0.72144 0.33738 0.0
O32 O 0.80375 0.73102 0.29225 0.0
O33 O 0.78719 0.33042 0.66102 0.0
Cd34 Cd 0.7502 0.28731 0.65096 0.0
O35 O 0.75325 0.32543 0.6994 0.0
Cd36 Cd 0.73457 0.33409 0.74144 0.0
O37 O 0.71155 0.32897 0.78452 0.0
C38 C 0.6858 0.33704 0.79237 0.0
O39 O 0.6733 0.34963 0.77433 0.0
C40 C 0.77848 0.33945 0.68413 0.0
C41 C 0.78577 0.25225 0.63556 0.0
O42 O 0.77447 0.26394 0.61674 0.0
O43 O 0.78103 0.25761 0.66162 0.0
O44 O 0.80994 0.83589 0.68091 0.0
Cd45 Cd 0.7863 0.79707 0.70895 0.0
O46 O 0.83205 0.85822 0.71829 0.0
Cd47 Cd 0.81342 0.82753 0.74891 0.0
O48 O 0.78758 0.81246 0.78929 0.0
C49 C 0.755 0.81064 0.79268 0.0
O50 O 0.73858 0.81614 0.77135 0.0
C51 C 0.82663 0.85698 0.69196 0.0
C52 C 0.81446 0.75747 0.69507 0.0
O53 O 0.78816 0.76019 0.68216 0.0
O54 O 0.82796 0.7738 0.71415 0.0
O55 O 0.82925 0.29676 0.32653 0.0
Cd56 Cd 0.80209 0.25352 0.30921 0.0
O57 O 0.77706 0.30289 0.3316 0.0
Cd58 Cd 0.74875 0.26968 0.30739 0.0
O59 O 0.71801 0.26118 0.26942 0.0
C60 C 0.70469 0.27852 0.2631 0.0
O61 O 0.70955 0.29836 0.27991 0.0
C62 C 0.81022 0.31067 0.33462 0.0
C63 C 0.82518 0.21613 0.3341 0.0
O64 O 0.83961 0.22671 0.31089 0.0
O65 O 0.80024 0.22354 0.34586 0.0
O66 O 0.29759 0.38231 0.78979 0.0
Cd67 Cd 0.2796 0.38225 0.74091 0.0
O68 O 0.34972 0.37864 0.77652 0.0
Cd69 Cd 0.33848 0.36721 0.73266 0.0
O70 O 0.35016 0.33863 0.70451 0.0
C71 C 0.33028 0.32507 0.68627 0.0
O72 O 0.29969 0.32862 0.68188 0.0
C73 C 0.32831 0.382 0.79591 0.0
C74 C 0.24634 0.41957 0.73304 0.0
O75 O 0.22814 0.39651 0.73786 0.0
O76 O 0.28006 0.42489 0.73176 0.0
O77 O 0.36391 0.85327 0.26185 0.0
Cd78 Cd 0.31919 0.84595 0.30069 0.0
O79 O 0.32479 0.83566 0.23034 0.0
Cd80 Cd 0.28127 0.82083 0.26124 0.0
O81 O 0.23903 0.7909 0.28212 0.0
C82 C 0.2448 0.76971 0.28527 0.0
O83 O 0.27575 0.76745 0.27697 0.0
C84 C 0.35644 0.84731 0.23632 0.0
C85 C 0.33379 0.8851 0.34071 0.0
O86 O 0.34596 0.8662 0.34265 0.0
O87 O 0.31476 0.8856 0.3197 0.0
C88 C 0.07203 0.59326 0.36482 0.0
C89 C 0.08183 0.60793 0.38888 0.0
C90 C 0.06055 0.59529 0.41069 0.0
C91 C 0.03911 0.57375 0.39868 0.0
N92 N 0.04602 0.57149 0.3707 0.0
Co93 Co 0.01897 0.54457 0.34442 0.0
N94 N 0.98553 0.52704 0.37592 0.0
C95 C 0.98719 0.53352 0.40363 0.0
C96 C 0.96291 0.51666 0.42076 0.0
C97 C 0.94504 0.49799 0.40303 0.0
C98 C 0.95928 0.50472 0.37592 0.0
N99 N 0.99073 0.51858 0.31776 0.0
C100 C 0.96259 0.49794 0.32299 0.0
C101 C 0.95016 0.48528 0.29818 0.0
C102 C 0.97184 0.49802 0.27661 0.0
C103 C 0.99594 0.51779 0.28937 0.0
N104 N 0.05368 0.56119 0.31326 0.0
C105 C 0.05467 0.55299 0.28623 0.0
C106 C 0.08105 0.56869 0.26956 0.0
C107 C 0.09752 0.58827 0.28685 0.0
C108 C 0.08015 0.58336 0.31321 0.0
N109 N 0.0488 0.52247 0.35217 0.0
C110 C 0.0834 0.48659 0.36435 0.0
C111 C 0.07166 0.48811 0.3374 0.0
C112 C 0.05504 0.50629 0.33168 0.0
C113 C 0.07919 0.50395 0.38489 0.0
C114 C 0.06174 0.52161 0.37842 0.0
N115 N 0.98889 0.56645 0.33658 0.0
C116 C 0.96696 0.59039 0.30355 0.0
C117 C 0.94596 0.59736 0.3248 0.0
C118 C 0.94735 0.58876 0.35226 0.0
C119 C 0.96909 0.57371 0.35769 0.0
C120 C 0.98754 0.57485 0.30973 0.0
H121 H 0.96937 0.56812 0.37913 0.0
H122 H 0.0022 0.56999 0.2923 0.0
H123 H 0.04688 0.50648 0.31061 0.0
H124 H 0.05841 0.53397 0.39515 0.0
C125 C 0.01197 0.5555 0.41291 0.0
C126 C 0.08703 0.60138 0.33668 0.0
C127 C 0.94811 0.48884 0.35104 0.0
C128 C 0.02657 0.5335 0.27601 0.0
H129 H 0.10178 0.62615 0.39033 0.0
H130 H 0.06018 0.60136 0.43254 0.0
H131 H 0.95917 0.51756 0.4435 0.0
H132 H 0.92439 0.48109 0.40954 0.0
H133 H 0.92839 0.46814 0.296 0.0
H134 H 0.97111 0.4928 0.25445 0.0
H135 H 0.08611 0.56703 0.24706 0.0
H136 H 0.11868 0.60486 0.28031 0.0
H137 H 0.07507 0.47516 0.32081 0.0
H138 H 0.08835 0.50341 0.40601 0.0
H139 H 0.96793 0.59699 0.28205 0.0
H140 H 0.93148 0.59329 0.36958 0.0
C141 C 0.05567 0.61954 0.72175 0.0
C142 C 0.06537 0.63296 0.7467 0.0
C143 C 0.04465 0.61903 0.76796 0.0
C144 C 0.02368 0.59794 0.75493 0.0
N145 N 0.02998 0.59734 0.72662 0.0
Co146 Co 0.00466 0.57032 0.69952 0.0
N147 N 0.9741 0.54991 0.7309 0.0
C148 C 0.97644 0.5551 0.7589 0.0
C149 C 0.95386 0.53682 0.77562 0.0
C150 C 0.93606 0.51873 0.75726 0.0
C151 C 0.94857 0.52721 0.7302 0.0
N152 N 0.97816 0.54397 0.67226 0.0
C153 C 0.95062 0.52274 0.67685 0.0
C154 C 0.93849 0.51076 0.6516 0.0
C155 C 0.95964 0.52449 0.63042 0.0
C156 C 0.98305 0.54418 0.64379 0.0
N157 N 0.03618 0.59017 0.66827 0.0
C158 C 0.03644 0.58359 0.64062 0.0
C159 C 0.06079 0.60097 0.62406 0.0
C160 C 0.07718 0.61981 0.64218 0.0
C161 C 0.06194 0.61273 0.66894 0.0
N162 N 0.03943 0.5513 0.70442 0.0
C163 C 0.09119 0.52654 0.7108 0.0
C164 C 0.07416 0.52493 0.68542 0.0
C165 C 0.04879 0.53759 0.68258 0.0
C166 C 0.08144 0.54016 0.73311 0.0
C167 C 0.05538 0.55197 0.72964 0.0
N168 N 0.97031 0.58951 0.69464 0.0
C169 C 0.9423 0.61202 0.66455 0.0
C170 C 0.92696 0.621 0.68803 0.0
C171 C 0.93266 0.61317 0.71483 0.0
C172 C 0.95402 0.5974 0.71762 0.0
C173 C 0.96368 0.59643 0.6683 0.0
H174 H 0.9574 0.59214 0.73861 0.0
H175 H 0.97509 0.59062 0.64958 0.0
H176 H 0.0375 0.53621 0.66242 0.0
H177 H 0.04889 0.56166 0.7477 0.0
C178 C 0.99927 0.57769 0.76882 0.0
C179 C 0.07208 0.62846 0.69411 0.0
C180 C 0.93562 0.51291 0.7046 0.0
C181 C 0.01098 0.56245 0.63037 0.0
H182 H 0.08555 0.65089 0.7494 0.0
H183 H 0.04514 0.62357 0.79031 0.0
H184 H 0.95073 0.53665 0.79846 0.0
H185 H 0.91623 0.50123 0.76322 0.0
H186 H 0.91677 0.49373 0.64869 0.0
H187 H 0.95833 0.52046 0.60796 0.0
H188 H 0.06523 0.60044 0.60135 0.0
H189 H 0.09752 0.63705 0.63619 0.0
H190 H 0.08111 0.51455 0.66757 0.0
H191 H 0.09381 0.5416 0.75326 0.0
H192 H 0.93875 0.6176 0.64334 0.0
H193 H 0.92071 0.6192 0.73363 0.0
C194 C 0.37301 0.081 0.57752 0.0
C195 C 0.40366 0.07688 0.58644 0.0
C196 C 0.42849 0.08413 0.56463 0.0
C197 C 0.41177 0.09233 0.54369 0.0
N198 N 0.37812 0.09094 0.55119 0.0
Co199 Co 0.34444 0.10007 0.527 0.0
N200 N 0.38313 0.12051 0.50185 0.0
C201 C 0.41608 0.11863 0.499 0.0
C202 C 0.43702 0.13598 0.48017 0.0
C203 C 0.41576 0.1495 0.47078 0.0
C204 C 0.38306 0.13962 0.48454 0.0
N205 N 0.31104 0.10924 0.50263 0.0
C206 C 0.31694 0.12951 0.48547 0.0
C207 C 0.28584 0.12999 0.47355 0.0
C208 C 0.25993 0.10897 0.4834 0.0
C209 C 0.27643 0.09699 0.50094 0.0
N210 N 0.30548 0.07949 0.55196 0.0
C211 C 0.27143 0.07019 0.54523 0.0
C212 C 0.2505 0.05606 0.56656 0.0
C213 C 0.27289 0.05631 0.58785 0.0
C214 C 0.3064 0.07065 0.57828 0.0
N215 N 0.34723 0.12998 0.55044 0.0
C216 C 0.35201 0.17372 0.58293 0.0
C217 C 0.31906 0.15728 0.57583 0.0
C218 C 0.31726 0.13562 0.55951 0.0
C219 C 0.38244 0.16768 0.57324 0.0
C220 C 0.37947 0.14572 0.55733 0.0
N221 N 0.34193 0.07011 0.50353 0.0
C222 C 0.34569 0.05103 0.4578 0.0
C223 C 0.3448 0.02813 0.47055 0.0
C224 C 0.34096 0.02645 0.50006 0.0
C225 C 0.33953 0.04754 0.51608 0.0
C226 C 0.34422 0.07179 0.47466 0.0
H227 H 0.33724 0.04564 0.53874 0.0
H228 H 0.34582 0.0894 0.46439 0.0
H229 H 0.29162 0.12341 0.5542 0.0
H230 H 0.40338 0.14158 0.55038 0.0
C231 C 0.42791 0.10463 0.51866 0.0
C232 C 0.3388 0.07304 0.59332 0.0
C233 C 0.35194 0.14785 0.48006 0.0
C234 C 0.25943 0.07831 0.52077 0.0
H235 H 0.40751 0.06906 0.60641 0.0
H236 H 0.4557 0.08402 0.56439 0.0
H237 H 0.46489 0.13939 0.47508 0.0
H238 H 0.42342 0.16494 0.45578 0.0
H239 H 0.2818 0.14411 0.45973 0.0
H240 H 0.23199 0.10403 0.4797 0.0
H241 H 0.22222 0.04722 0.56694 0.0
H242 H 0.26548 0.04663 0.60789 0.0
H243 H 0.29474 0.16086 0.58309 0.0
H244 H 0.40855 0.17993 0.57761 0.0
H245 H 0.34867 0.05318 0.43504 0.0
H246 H 0.33934 0.00898 0.51081 0.0
C247 C 0.52326 0.8643 0.04807 0.0
C248 C 0.52739 0.88957 0.05467 0.0
C249 C 0.54908 0.90362 0.03363 0.0
C250 C 0.55683 0.88619 0.01542 0.0
N251 N 0.54138 0.86215 0.02378 0.0
Co252 Co 0.5451 0.8312 0.00398 0.0
N253 N 0.58884 0.85046 0.98289 0.0
C254 C 0.5998 0.87574 0.97889 0.0
C255 C 0.63081 0.88369 0.96296 0.0
C256 C 0.63965 0.86205 0.9563 0.0
C257 C 0.61338 0.84198 0.96858 0.0
N258 N 0.54865 0.80015 0.98411 0.0
C259 C 0.57643 0.79584 0.96955 0.0
C260 C 0.56729 0.77137 0.95853 0.0
C261 C 0.53242 0.76025 0.96617 0.0
C262 C 0.52223 0.77841 0.98144 0.0
N263 N 0.50119 0.81214 0.025 0.0
C264 C 0.47961 0.78921 0.01805 0.0
C265 C 0.45204 0.78045 0.03746 0.0
C266 C 0.45658 0.79908 0.05774 0.0
C267 C 0.48662 0.81839 0.04937 0.0
N268 N 0.51712 0.83745 0.97353 0.0
C269 C 0.47538 0.84281 0.92937 0.0
C270 C 0.46552 0.84659 0.95755 0.0
C271 C 0.4868 0.84386 0.97933 0.0
C272 C 0.50725 0.83733 0.92382 0.0
C273 C 0.52753 0.83464 0.94606 0.0
N274 N 0.57318 0.82481 0.03414 0.0
C275 C 0.58663 0.79567 0.0657 0.0
C276 C 0.61676 0.81454 0.07396 0.0
C277 C 0.62404 0.83886 0.06263 0.0
C278 C 0.60167 0.84369 0.04302 0.0
C279 C 0.56536 0.80113 0.04558 0.0
H280 H 0.60785 0.86257 0.03459 0.0
H281 H 0.54303 0.78602 0.03881 0.0
H282 H 0.47836 0.84639 0.00088 0.0
H283 H 0.55141 0.82982 0.9409 0.0
C284 C 0.58323 0.89149 0.99379 0.0
C285 C 0.50021 0.84279 0.06408 0.0
C286 C 0.61038 0.81513 0.96335 0.0
C287 C 0.49022 0.77459 0.99699 0.0
H288 H 0.5159 0.89701 0.07272 0.0
H289 H 0.55921 0.92408 0.03248 0.0
H290 H 0.64572 0.90295 0.95744 0.0
H291 H 0.66242 0.8611 0.94337 0.0
H292 H 0.58392 0.76262 0.9459 0.0
H293 H 0.51672 0.74099 0.96178 0.0
H294 H 0.43221 0.76209 0.03777 0.0
H295 H 0.43987 0.79822 0.07661 0.0
H296 H 0.44105 0.8508 0.96283 0.0
H297 H 0.5164 0.83482 0.90237 0.0
H298 H 0.58027 0.7766 0.07398 0.0
H299 H 0.64696 0.854 0.0688 0.0
C300 C 0.89083 0.01222 0.54575 0.0
C301 C 0.92311 0.01207 0.55578 0.0
C302 C 0.94857 0.02934 0.54023 0.0
C303 C 0.93058 0.03881 0.52146 0.0
N304 N 0.89507 0.02883 0.52417 0.0
Co305 Co 0.8593 0.03553 0.49924 0.0
N306 N 0.89694 0.06077 0.47616 0.0
C307 C 0.93202 0.06827 0.48037 0.0
C308 C 0.95109 0.08739 0.46285 0.0
C309 C 0.92674 0.09274 0.44668 0.0
C310 C 0.89406 0.07629 0.4551 0.0
N311 N 0.82363 0.0415 0.47369 0.0
C312 C 0.82787 0.05788 0.4519 0.0
C313 C 0.79614 0.05547 0.43928 0.0
C314 C 0.77081 0.03741 0.45409 0.0
C315 C 0.78846 0.02967 0.47463 0.0
N316 N 0.82149 0.01104 0.52294 0.0
C317 C 0.78621 0.00487 0.51993 0.0
C318 C 0.76673 0.98812 0.53979 0.0
C319 C 0.79097 0.98316 0.55645 0.0
C320 C 0.82403 0.99706 0.54557 0.0
N321 N 0.85475 0.06369 0.52428 0.0
C322 C 0.84907 0.10592 0.55613 0.0
C323 C 0.81956 0.08929 0.54403 0.0
C324 C 0.82288 0.06833 0.52857 0.0
C325 C 0.88129 0.10069 0.55279 0.0
C326 C 0.88357 0.07968 0.53679 0.0
N327 N 0.86386 0.00738 0.47412 0.0
C328 C 0.83726 0.96754 0.45046 0.0
C329 C 0.87024 0.96644 0.44004 0.0
C330 C 0.89997 0.98636 0.44672 0.0
C331 C 0.89621 0.00649 0.46359 0.0
C332 C 0.8347 0.98796 0.46728 0.0
H333 H 0.91989 0.02101 0.46794 0.0
H334 H 0.8088 0.98751 0.4745 0.0
H335 H 0.79932 0.05632 0.52005 0.0
H336 H 0.90902 0.077 0.53449 0.0
C337 C 0.94622 0.05728 0.50126 0.0
C338 C 0.85699 0.99595 0.55714 0.0
C339 C 0.86095 0.07675 0.44321 0.0
C340 C 0.77235 0.01348 0.49689 0.0
H341 H 0.9279 1.00052 0.57244 0.0
H342 H 0.97686 0.03424 0.5422 0.0
H343 H 0.97927 0.09669 0.46231 0.0
H344 H 0.93248 0.10747 0.43088 0.0
H345 H 0.79161 0.06611 0.42163 0.0
H346 H 0.74271 0.0313 0.45088 0.0
H347 H 0.73832 0.98003 0.54155 0.0
H348 H 0.78494 0.97046 0.57435 0.0
H349 H 0.79389 0.09236 0.54657 0.0
H350 H 0.90486 0.11311 0.56185 0.0
H351 H 0.8133 0.95287 0.44541 0.0
H352 H 0.92615 0.98633 0.4393 0.0
C353 C 0.48921 0.36741 0.08491 0.0
C354 C 0.49979 0.39151 0.09688 0.0
C355 C 0.52779 0.40549 0.08061 0.0
C356 C 0.53282 0.38924 0.0598 0.0
N357 N 0.50975 0.36565 0.06176 0.0
Co358 Co 0.50785 0.33618 0.03586 0.0
N359 N 0.55119 0.3562 0.01364 0.0
C360 C 0.57127 0.38018 0.01893 0.0
C361 C 0.6 0.38867 0.00066 0.0
C362 C 0.59824 0.36893 0.98253 0.0
C363 C 0.5682 0.34954 0.99073 0.0
N364 N 0.50512 0.30705 0.00921 0.0
C365 C 0.5257 0.30538 0.98602 0.0
C366 C 0.51341 0.28208 0.97254 0.0
C367 C 0.48406 0.26852 0.98774 0.0
C368 C 0.47998 0.28428 0.00945 0.0
N369 N 0.46553 0.31577 0.05896 0.0
C370 C 0.4467 0.29128 0.05469 0.0
C371 C 0.41984 0.2821 0.07449 0.0
C372 C 0.42182 0.30181 0.09274 0.0
C373 C 0.44993 0.32196 0.08296 0.0
N374 N 0.47721 0.34804 0.01072 0.0
C375 C 0.43549 0.36332 0.97226 0.0
C376 C 0.4231 0.33992 0.98574 0.0
C377 C 0.44428 0.33263 0.00455 0.0
C378 C 0.46866 0.37929 0.97884 0.0
C379 C 0.48872 0.3715 -0.00168 0.0
N380 N 0.53828 0.32425 0.06089 0.0
C381 C 0.55145 0.29011 0.08491 0.0
C382 C 0.57851 0.30729 0.09924 0.0
C383 C 0.58572 0.33309 0.0934 0.0
C384 C 0.5655 0.34109 0.07429 0.0
C385 C 0.53192 0.29891 0.06595 0.0
H386 H 0.57217 0.361 0.07091 0.0
H387 H 0.51145 0.28484 0.05597 0.0
H388 H 0.43352 0.31426 0.01341 0.0
H389 H 0.51358 0.38472 0.00274 0.0
C390 C 0.56108 0.39482 0.03999 0.0
C391 C 0.4603 0.34669 0.09689 0.0
C392 C 0.55665 0.32541 0.97573 0.0
C393 C 0.45393 0.2778 0.03114 0.0
H394 H 0.48893 0.39819 0.11577 0.0
H395 H 0.54336 0.42496 0.08409 0.0
H396 H 0.61955 0.40715 0.00026 0.0
H397 H 0.61677 0.36894 0.96504 0.0
H398 H 0.52449 0.27558 0.95361 0.0
H399 H 0.46773 0.24939 0.98356 0.0
H400 H 0.40091 0.26338 0.07542 0.0
H401 H 0.40436 0.30141 0.11108 0.0
H402 H 0.39758 0.32687 0.98106 0.0
H403 H 0.47909 0.39774 0.96902 0.0
H404 H 0.54461 0.26993 0.08882 0.0
H405 H 0.60689 0.34714 0.10353 0.0
H406 H 0.24046 0.42645 0.36977 0.0
H407 H 0.16167 0.35272 0.36544 0.0
H408 H 0.11449 0.37306 0.37265 0.0
H409 H 0.19061 0.45542 0.42276 0.0
H410 H 0.20568 0.48579 0.40548 0.0
H411 H 0.23332 0.46515 0.40452 0.0
H412 H 0.23732 0.46721 0.34979 0.0
H413 H 0.20958 0.48765 0.35054 0.0
H414 H 0.19726 0.45848 0.33056 0.0
H415 H 0.07617 0.40152 0.37277 0.0
H416 H 0.04946 0.43629 0.36785 0.0
H417 H 0.15252 0.49154 0.37333 0.0
C418 C 0.21332 0.41449 0.37115 0.0
C419 C 0.20479 0.38795 0.36711 0.0
C420 C 0.1689 0.37305 0.36857 0.0
C421 C 0.14189 0.38444 0.37272 0.0
C422 C 0.15117 0.41071 0.37568 0.0
C423 C 0.18604 0.42555 0.3753 0.0
C424 C 0.18888 0.45352 0.37651 0.0
C425 C 0.20561 0.46568 0.40396 0.0
C426 C 0.20946 0.46752 0.35029 0.0
C427 C 0.15022 0.45212 0.37647 0.0
C428 C 0.12889 0.42722 0.37629 0.0
C429 C 0.09249 0.42106 0.37362 0.0
C430 C 0.07756 0.44084 0.37079 0.0
C431 C 0.099 0.46637 0.37079 0.0
C432 C 0.13563 0.47211 0.37408 0.0
H433 H 0.15979 0.77689 0.71789 0.0
H434 H 0.26043 0.76516 0.69316 0.0
H435 H 0.22993 0.72056 0.68177 0.0
H436 H 0.12269 0.71857 0.75165 0.0
H437 H 0.07856 0.71355 0.73997 0.0
H438 H 0.10763 0.7453 0.7437 0.0
H439 H 0.09898 0.7547 0.69152 0.0
H440 H 0.06965 0.72299 0.68772 0.0
H441 H 0.10766 0.73423 0.66387 0.0
H442 H 0.18983 0.67633 0.67812 0.0
H443 H 0.14157 0.63574 0.67974 0.0
H444 H 0.06659 0.67603 0.70463 0.0
C445 C 0.17534 0.76508 0.70954 0.0
C446 C 0.21254 0.77457 0.70642 0.0
C447 C 0.23193 0.75838 0.69573 0.0
C448 C 0.21484 0.73299 0.68916 0.0
C449 C 0.1783 0.72407 0.69312 0.0
C450 C 0.15866 0.73964 0.70274 0.0
C451 C 0.11984 0.72493 0.70631 0.0
C452 C 0.10641 0.72564 0.73724 0.0
C453 C 0.09773 0.7348 0.68615 0.0
C454 C 0.12093 0.6986 0.69784 0.0
C455 C 0.15492 0.69854 0.69026 0.0
C456 C 0.16299 0.67619 0.68346 0.0
C457 C 0.13556 0.65329 0.68443 0.0
C458 C 0.10058 0.653 0.69191 0.0
C459 C 0.09316 0.67594 0.69847 0.0
H460 H 0.84443 0.70168 0.35284 0.0
H461 H 0.81569 0.69203 0.26512 0.0
H462 H 0.84641 0.65931 0.25899 0.0
H463 H 0.93217 0.69577 0.33978 0.0
H464 H 0.9318 0.67946 0.37248 0.0
H465 H 0.90652 0.70146 0.37019 0.0
H466 H 0.85 0.66635 0.38686 0.0
H467 H 0.87508 0.6442 0.389 0.0
H468 H 0.83683 0.63676 0.36767 0.0
H469 H 0.87734 0.6262 0.26318 0.0
H470 H 0.91218 0.59822 0.27541 0.0
H471 H 0.92659 0.63266 0.35909 0.0
C472 C 0.84458 0.69261 0.33238 0.0
C473 C 0.82749 0.69918 0.30948 0.0
C474 C 0.82866 0.68725 0.2829 0.0
C475 C 0.84589 0.66858 0.27926 0.0
C476 C 0.86232 0.66243 0.30229 0.0
C477 C 0.86236 0.67436 0.3282 0.0
C478 C 0.88344 0.66502 0.3491 0.0
C479 C 0.91538 0.68672 0.35843 0.0
C480 C 0.85992 0.65233 0.37467 0.0
C481 C 0.89492 0.64578 0.33095 0.0
C482 C 0.88208 0.6444 0.30416 0.0
C483 C 0.88813 0.62745 0.28393 0.0
C484 C 0.90832 0.61175 0.29108 0.0
C485 C 0.923 0.61338 0.31811 0.0
C486 C 0.91581 0.63063 0.3383 0.0
H487 H 0.84806 0.36551 0.67385 0.0
H488 H 0.75052 0.37292 0.71253 0.0
H489 H 0.78072 0.41773 0.72411 0.0
H490 H 0.90676 0.40614 0.72455 0.0
H491 H 0.94093 0.41936 0.69793 0.0
H492 H 0.91192 0.38759 0.69385 0.0
H493 H 0.89482 0.39952 0.64495 0.0
H494 H 0.92364 0.43133 0.64895 0.0
H495 H 0.8777 0.42612 0.6423 0.0
H496 H 0.8203 0.46277 0.72743 0.0
H497 H 0.86768 0.50388 0.72542 0.0
H498 H 0.94027 0.46642 0.68759 0.0
C499 C 0.83321 0.37653 0.68503 0.0
C500 C 0.7971 0.36571 0.69266 0.0
C501 C 0.77842 0.38068 0.70714 0.0
C502 C 0.79528 0.4062 0.71358 0.0
C503 C 0.83091 0.41634 0.70567 0.0
C504 C 0.84979 0.4019 0.69202 0.0
C505 C 0.88773 0.41742 0.6856 0.0
C506 C 0.91334 0.407 0.70143 0.0
C507 C 0.89646 0.41867 0.65355 0.0
C508 C 0.88708 0.44296 0.69727 0.0
C509 C 0.85402 0.44201 0.70862 0.0
C510 C 0.84645 0.46365 0.71907 0.0
C511 C 0.87341 0.48684 0.71788 0.0
C512 C 0.90751 0.48809 0.70668 0.0
C513 C 0.91443 0.46582 0.69651 0.0
H514 H 0.32443 0.24901 0.37234 0.0
H515 H 0.38018 0.30802 0.42972 0.0
H516 H 0.39008 0.27545 0.46067 0.0
H517 H 0.28072 0.20361 0.42386 0.0
H518 H 0.28551 0.17667 0.40388 0.0
H519 H 0.28382 0.20462 0.38575 0.0
H520 H 0.34375 0.20778 0.35958 0.0
H521 H 0.3455 0.17972 0.37749 0.0
H522 H 0.38148 0.20862 0.37978 0.0
H523 H 0.3902 0.23608 0.48701 0.0
H524 H 0.38327 0.19297 0.50519 0.0
H525 H 0.33168 0.1602 0.42883 0.0
C526 C 0.33891 0.25509 0.39132 0.0
C527 C 0.35142 0.28103 0.3987 0.0
C528 C 0.37045 0.28825 0.42363 0.0
C529 C 0.37614 0.26989 0.44136 0.0
C530 C 0.36313 0.24445 0.43362 0.0
C531 C 0.34532 0.23707 0.409 0.0
C532 C 0.33405 0.20852 0.40548 0.0
C533 C 0.29363 0.19773 0.4047 0.0
C534 C 0.35229 0.20071 0.37901 0.0
C535 C 0.3476 0.20094 0.43227 0.0
C536 C 0.3642 0.22191 0.44829 0.0
C537 C 0.3775 0.21955 0.47452 0.0
C538 C 0.37346 0.19509 0.48468 0.0
C539 C 0.35631 0.17345 0.46863 0.0
C540 C 0.34401 0.17647 0.44184 0.0
H541 H 0.34136 0.891 0.83955 0.0
H542 H 0.34182 0.83001 0.78041 0.0
H543 H 0.38443 0.81808 0.80897 0.0
H544 H 0.43517 0.90786 0.85511 0.0
H545 H 0.42757 0.91413 0.89198 0.0
H546 H 0.39829 0.91896 0.86614 0.0
H547 H 0.34503 0.88893 0.89414 0.0
H548 H 0.37416 0.88385 0.91992 0.0
H549 H 0.34527 0.85717 0.90192 0.0
H550 H 0.42409 0.81105 0.84443 0.0
H551 H 0.46104 0.81028 0.88448 0.0
H552 H 0.43659 0.87601 0.92112 0.0
C553 C 0.3508 0.87537 0.83243 0.0
C554 C 0.3382 0.86146 0.80769 0.0
C555 C 0.35096 0.84095 0.79927 0.0
C556 C 0.37521 0.83399 0.81535 0.0
C557 C 0.38659 0.84773 0.83981 0.0
C558 C 0.37507 0.86807 0.84833 0.0
C559 C 0.39103 0.87911 0.876 0.0
C560 C 0.41441 0.90665 0.87206 0.0
C561 C 0.36214 0.87714 0.89937 0.0
C562 C 0.41296 0.8616 0.88172 0.0
C563 C 0.40996 0.84371 0.86047 0.0
C564 C 0.42705 0.82514 0.86106 0.0
C565 C 0.44813 0.82496 0.88385 0.0
C566 C 0.45215 0.84328 0.9058 0.0
C567 C 0.43403 0.86173 0.90473 0.0
H568 H 0.80754 0.82504 0.38123 0.0
H569 H 0.88094 0.85071 0.30947 0.0
H570 H 0.90465 0.89231 0.33268 0.0
H571 H 0.78557 0.8806 0.3909 0.0
H572 H 0.78219 0.87953 0.42898 0.0
H573 H 0.77448 0.85059 0.40891 0.0
H574 H 0.82264 0.83871 0.4358 0.0
H575 H 0.83028 0.86755 0.45621 0.0
H576 H 0.86644 0.86075 0.43666 0.0
H577 H 0.9157 0.93248 0.36109 0.0
H578 H 0.91352 0.96802 0.39275 0.0
H579 H 0.83329 0.91603 0.44614 0.0
C580 C 0.82925 0.83915 0.37071 0.0
C581 C 0.8425 0.83455 0.34358 0.0
C582 C 0.87043 0.85375 0.3303 0.0
C583 C 0.88414 0.87744 0.34334 0.0
C584 C 0.86976 0.88159 0.36972 0.0
C585 C 0.84311 0.86292 0.38336 0.0
C586 C 0.83028 0.87286 0.4105 0.0
C587 C 0.7908 0.87077 0.40975 0.0
C588 C 0.83788 0.85915 0.43632 0.0
C589 C 0.85309 0.90022 0.40951 0.0
C590 C 0.87601 0.90482 0.38603 0.0
C591 C 0.89831 0.92902 0.37982 0.0
C592 C 0.89696 0.94908 0.39798 0.0
C593 C 0.87331 0.94485 0.42199 0.0
C594 C 0.85151 0.91996 0.42789 0.0
H595 H 0.63372 0.35446 0.81751 0.0
H596 H 0.70073 0.30704 0.83242 0.0
H597 H 0.67285 0.29721 0.88018 0.0
H598 H 0.63655 0.38076 0.88732 0.0
H599 H 0.59132 0.38118 0.88838 0.0
H600 H 0.61582 0.38384 0.85504 0.0
H601 H 0.56744 0.34517 0.83582 0.0
H602 H 0.54292 0.34234 0.86919 0.0
H603 H 0.55532 0.31564 0.85484 0.0
H604 H 0.63838 0.29303 0.92666 0.0
H605 H 0.60123 0.29647 0.96926 0.0
H606 H 0.55716 0.34657 0.92414 0.0
C607 C 0.64248 0.34194 0.83076 0.0
C608 C 0.66938 0.33148 0.82117 0.0
C609 C 0.6802 0.31531 0.83928 0.0
C610 C 0.66444 0.30954 0.86642 0.0
C611 C 0.63794 0.3201 0.87517 0.0
C612 C 0.62714 0.33605 0.85795 0.0
C613 C 0.59884 0.34551 0.87277 0.0
C614 C 0.6114 0.37454 0.87607 0.0
C615 C 0.56407 0.33662 0.85722 0.0
C616 C 0.59556 0.33248 0.90104 0.0
C617 C 0.61819 0.31778 0.90197 0.0
C618 C 0.62043 0.30437 0.92614 0.0
C619 C 0.59929 0.30633 0.95012 0.0
C620 C 0.57644 0.32158 0.9496 0.0
C621 C 0.57431 0.33461 0.92474 0.0
H622 H 0.30576 0.94774 0.68341 0.0
H623 H 0.28217 0.98955 0.75635 0.0
H624 H 0.29912 0.0288 0.72804 0.0
H625 H 0.38149 0.99831 0.65485 0.0
H626 H 0.37011 0.99041 0.6187 0.0
H627 H 0.35865 0.96603 0.64529 0.0
H628 H 0.29301 0.9542 0.63218 0.0
H629 H 0.30431 0.97846 0.60556 0.0
H630 H 0.27105 0.97844 0.63277 0.0
H631 H 0.3144 0.06292 0.69059 0.0
H632 H 0.32689 0.08883 0.64682 0.0
H633 H 0.34095 0.02478 0.59905 0.0
C634 C 0.30457 0.9652 0.69357 0.0
C635 C 0.29271 0.96556 0.72214 0.0
C636 C 0.29125 0.98879 0.73452 0.0
C637 C 0.30089 0.01121 0.71863 0.0
C638 C 0.31211 0.01013 0.69043 0.0
C639 C 0.3141 0.98771 0.67805 0.0
C640 C 0.32537 0.99132 0.64704 0.0
C641 C 0.36103 0.98622 0.64114 0.0
C642 C 0.29672 0.97462 0.62829 0.0
C643 C 0.32878 0.01914 0.64375 0.0
C644 C 0.32126 0.02975 0.66904 0.0
C645 C 0.32088 0.05492 0.67079 0.0
C646 C 0.32805 0.06949 0.64599 0.0
C647 C 0.33555 0.0588 0.62003 0.0
C648 C 0.33614 0.03342 0.61895 0.0
H649 H 0.67611 0.76951 0.21779 0.0
H650 H 0.78246 0.78869 0.18005 0.0
H651 H 0.76069 0.7995 0.13549 0.0
H652 H 0.63084 0.74181 0.15317 0.0
H653 H 0.59425 0.75414 0.16106 0.0
H654 H 0.6178 0.74625 0.18941 0.0
H655 H 0.62952 0.79179 0.20956 0.0
H656 H 0.60634 0.79989 0.18115 0.0
H657 H 0.65114 0.8185 0.18722 0.0
H658 H 0.72878 0.81244 0.09684 0.0
H659 H 0.68737 0.82264 0.0649 0.0
H660 H 0.60132 0.79327 0.12662 0.0
C661 C 0.69473 0.77559 0.20002 0.0
C662 C 0.73102 0.77829 0.20246 0.0
C663 C 0.75453 0.78638 0.1787 0.0
C664 C 0.74244 0.79264 0.15329 0.0
C665 C 0.7067 0.79038 0.15183 0.0
C666 C 0.68305 0.78166 0.17437 0.0
C667 C 0.6461 0.78146 0.16739 0.0
C668 C 0.62076 0.7543 0.16778 0.0
C669 C 0.6325 0.79896 0.18753 0.0
C670 C 0.65287 0.79197 0.13764 0.0
C671 C 0.68804 0.79707 0.12912 0.0
C672 C 0.70109 0.80819 0.1031 0.0
C673 C 0.6775 0.81407 0.08521 0.0
C674 C 0.6413 0.8086 0.09334 0.0
C675 C 0.62885 0.79732 0.11983 0.0
H676 H 0.78168 0.22654 0.58528 0.0
H677 H 0.826 0.23227 0.66811 0.0
H678 H 0.85018 0.1969 0.65577 0.0
H679 H 0.75352 0.1598 0.58236 0.0
H680 H 0.76321 0.15773 0.54498 0.0
H681 H 0.75247 0.18507 0.55918 0.0
H682 H 0.81119 0.21446 0.53738 0.0
H683 H 0.82202 0.18718 0.52297 0.0
H684 H 0.85233 0.20914 0.54542 0.0
H685 H 0.86764 0.15983 0.63494 0.0
H686 H 0.87467 0.1227 0.60797 0.0
H687 H 0.81675 0.14032 0.53973 0.0
C688 C 0.79702 0.22066 0.60063 0.0
C689 C 0.80228 0.23229 0.62756 0.0
C690 C 0.8218 0.22367 0.64732 0.0
C691 C 0.8357 0.20365 0.64048 0.0
C692 C 0.82961 0.19236 0.61388 0.0
C693 C 0.81064 0.20051 0.5943 0.0
C694 C 0.80578 0.1841 0.56794 0.0
C695 C 0.76641 0.17089 0.56336 0.0
C696 C 0.82392 0.19965 0.54189 0.0
C697 C 0.82463 0.16528 0.57588 0.0
C698 C 0.8386 0.17054 0.60229 0.0
C699 C 0.85692 0.15558 0.61419 0.0
C700 C 0.86086 0.13461 0.59874 0.0
C701 C 0.84613 0.12865 0.57189 0.0
C702 C 0.82799 0.14432 0.56034 0.0
H703 H 0.39485 0.33436 0.25982 0.0
H704 H 0.33564 0.38653 0.24197 0.0
H705 H 0.3574 0.38883 0.19232 0.0
H706 H 0.47116 0.3646 0.2142 0.0
H707 H 0.47833 0.33514 0.20292 0.0
H708 H 0.45824 0.33753 0.23734 0.0
H709 H 0.4046 0.29921 0.22532 0.0
H710 H 0.42447 0.2968 0.19082 0.0
H711 H 0.38071 0.30018 0.19409 0.0
H712 H 0.38376 0.38475 0.14439 0.0
H713 H 0.41611 0.37592 0.10134 0.0
H714 H 0.45963 0.32755 0.1499 0.0
C715 C 0.38655 0.34632 0.2455 0.0
C716 C 0.36346 0.36023 0.25488 0.0
C717 C 0.35332 0.37571 0.23541 0.0
C718 C 0.36548 0.37712 0.20709 0.0
C719 C 0.38794 0.36308 0.1985 0.0
C720 C 0.39864 0.3481 0.21708 0.0
C721 C 0.42322 0.33511 0.20227 0.0
C722 C 0.45991 0.34361 0.21494 0.0
C723 C 0.40729 0.3061 0.20318 0.0
C724 C 0.42445 0.34505 0.17249 0.0
C725 C 0.40376 0.36108 0.17079 0.0
C726 C 0.40021 0.37236 0.14545 0.0
C727 C 0.41855 0.36726 0.12119 0.0
C728 C 0.44024 0.35123 0.1226 0.0
C729 C 0.44315 0.33992 0.1485 0.0
H730 H 0.86501 0.7436 0.72282 0.0
H731 H 0.79438 0.72179 0.65325 0.0
H732 H 0.81546 0.68455 0.64376 0.0
H733 H 0.93743 0.72472 0.69011 0.0
H734 H 0.94881 0.71326 0.72265 0.0
H735 H 0.92878 0.73853 0.72342 0.0
H736 H 0.87899 0.71243 0.75776 0.0
H737 H 0.89876 0.68704 0.75697 0.0
H738 H 0.85341 0.68088 0.74781 0.0
H739 H 0.84388 0.64937 0.64217 0.0
H740 H 0.87753 0.61893 0.64867 0.0
H741 H 0.92917 0.66363 0.71945 0.0
C742 C 0.85413 0.7311 0.70545 0.0
C743 C 0.8281 0.73567 0.68871 0.0
C744 C 0.81437 0.71872 0.66634 0.0
C745 C 0.82617 0.6975 0.66078 0.0
C746 C 0.85163 0.69345 0.67784 0.0
C747 C 0.86547 0.70978 0.6997 0.0
C748 C 0.89219 0.70092 0.71515 0.0
C749 C 0.92898 0.72053 0.71267 0.0
C750 C 0.8801 0.69496 0.74626 0.0
C751 C 0.89115 0.67702 0.69861 0.0
C752 C 0.86768 0.67308 0.67712 0.0
C753 C 0.86238 0.6523 0.6589 0.0
C754 C 0.8817 0.63517 0.66269 0.0
C755 C 0.90593 0.63886 0.68459 0.0
C756 C 0.9105 0.66008 0.70276 0.0
H757 H 0.8804 0.33875 0.33155 0.0
H758 H 0.77637 0.34227 0.35972 0.0
H759 H 0.80136 0.38777 0.37023 0.0
H760 H 0.93109 0.38587 0.3832 0.0
H761 H 0.96659 0.39902 0.35759 0.0
H762 H 0.94143 0.36601 0.35558 0.0
H763 H 0.92718 0.37239 0.30385 0.0
H764 H 0.95192 0.40543 0.30582 0.0
H765 H 0.90644 0.3963 0.29621 0.0
H766 H 0.83566 0.4336 0.3721 0.0
H767 H 0.87856 0.47655 0.36811 0.0
H768 H 0.96052 0.44356 0.33994 0.0
C769 C 0.86306 0.34892 0.34067 0.0
C770 C 0.82642 0.33688 0.34489 0.0
C771 C 0.80452 0.35103 0.35633 0.0
C772 C 0.81846 0.37691 0.3624 0.0
C773 C 0.85441 0.38839 0.35711 0.0
C774 C 0.87656 0.37484 0.34683 0.0
C775 C 0.91381 0.39214 0.34133 0.0
C776 C 0.93976 0.38535 0.36058 0.0
C777 C 0.9255 0.39152 0.30994 0.0
C778 C 0.90885 0.41753 0.34944 0.0
C779 C 0.87441 0.41493 0.3586 0.0
C780 C 0.86287 0.43585 0.36553 0.0
C781 C 0.88726 0.46009 0.36319 0.0
C782 C 0.92268 0.46309 0.3542 0.0
C783 C 0.93359 0.44157 0.34728 0.0
H784 H 0.17758 0.41364 0.72003 0.0
H785 H 0.27611 0.47071 0.73819 0.0
H786 H 0.24725 0.50425 0.73384 0.0
H787 H 0.15107 0.45063 0.6674 0.0
H788 H 0.10484 0.43901 0.67775 0.0
H789 H 0.13316 0.41942 0.68241 0.0
H790 H 0.11439 0.41485 0.73568 0.0
H791 H 0.08605 0.43443 0.73118 0.0
H792 H 0.11953 0.44294 0.75709 0.0
H793 H 0.20701 0.53134 0.73021 0.0
H794 H 0.15889 0.55049 0.72402 0.0
H795 H 0.08749 0.47636 0.7051 0.0
C796 C 0.19307 0.4332 0.72306 0.0
C797 C 0.22907 0.43958 0.72958 0.0
C798 C 0.24853 0.4654 0.73313 0.0
C799 C 0.23235 0.48458 0.73077 0.0
C800 C 0.19682 0.47766 0.72443 0.0
C801 C 0.17748 0.45264 0.72029 0.0
C802 C 0.13981 0.4504 0.71321 0.0
C803 C 0.13176 0.43921 0.68342 0.0
C804 C 0.11339 0.43473 0.73563 0.0
C805 C 0.1409 0.47805 0.71437 0.0
C806 C 0.17398 0.49342 0.72109 0.0
C807 C 0.18111 0.51954 0.72463 0.0
C808 C 0.1537 0.53023 0.72116 0.0
C809 C 0.1198 0.51488 0.71388 0.0
C810 C 0.1134 0.48849 0.71028 0.0
H811 H 0.24904 0.7218 0.29361 0.0
H812 H 0.17653 0.76703 0.30146 0.0
H813 H 0.12866 0.72906 0.31709 0.0
H814 H 0.1888 0.66674 0.26583 0.0
H815 H 0.20524 0.64482 0.2846 0.0
H816 H 0.23426 0.67577 0.27556 0.0
H817 H 0.24904 0.68459 0.32825 0.0
H818 H 0.22019 0.65359 0.33744 0.0
H819 H 0.21368 0.68135 0.35454 0.0
H820 H 0.08797 0.68564 0.32942 0.0
H821 H 0.05797 0.64005 0.33854 0.0
H822 H 0.15725 0.62359 0.32341 0.0
C823 C 0.2232 0.72383 0.29887 0.0
C824 C 0.21655 0.74742 0.29632 0.0
C825 C 0.18229 0.74918 0.30331 0.0
C826 C 0.15493 0.72772 0.3122 0.0
C827 C 0.16231 0.7047 0.31411 0.0
C828 C 0.19566 0.70266 0.3078 0.0
C829 C 0.19651 0.67562 0.31089 0.0
C830 C 0.20681 0.66513 0.28253 0.0
C831 C 0.22132 0.67368 0.33417 0.0
C832 C 0.15831 0.66268 0.31959 0.0
C833 C 0.139 0.67978 0.32138 0.0
C834 C 0.10288 0.67213 0.32826 0.0
C835 C 0.08608 0.64632 0.33336 0.0
C836 C 0.10544 0.6286 0.33147 0.0
C837 C 0.14201 0.63691 0.32481 0.0
H838 H 0.8178 0.86254 0.63514 0.0
H839 H 0.85918 0.90505 0.71052 0.0
H840 H 0.87219 0.9449 0.684 0.0
H841 H 0.88181 0.90339 0.58481 0.0
H842 H 0.84974 0.90034 0.5582 0.0
H843 H 0.84511 0.87489 0.58275 0.0
H844 H 0.7821 0.87634 0.59752 0.0
H845 H 0.78669 0.90193 0.57323 0.0
H846 H 0.77582 0.90574 0.61009 0.0
H847 H 0.87683 0.98037 0.65063 0.0
H848 H 0.87685 0.00903 0.61098 0.0
H849 H 0.83479 0.944 0.55673 0.0
C850 C 0.83004 0.88019 0.64598 0.0
C851 C 0.83744 0.88058 0.67497 0.0
C852 C 0.85328 0.90416 0.68835 0.0
C853 C 0.86074 0.92696 0.67348 0.0
C854 C 0.85249 0.92595 0.64515 0.0
C855 C 0.83787 0.90321 0.63139 0.0
C856 C 0.83115 0.90754 0.60088 0.0
C857 C 0.85328 0.89585 0.58046 0.0
C858 C 0.79159 0.89728 0.59511 0.0
C859 C 0.84389 0.93626 0.59981 0.0
C860 C 0.85596 0.94648 0.62563 0.0
C861 C 0.86787 0.9726 0.63021 0.0
C862 C 0.86776 0.9887 0.60769 0.0
C863 C 0.85615 0.9786 0.58097 0.0
C864 C 0.84399 0.95207 0.57701 0.0
H865 H 0.67209 0.31229 0.24546 0.0
H866 H 0.69425 0.24231 0.22106 0.0
H867 H 0.6643 0.24184 0.17624 0.0
H868 H 0.58567 0.29675 0.21654 0.0
H869 H 0.59133 0.32876 0.20532 0.0
H870 H 0.61387 0.32309 0.23551 0.0
H871 H 0.67371 0.34916 0.21212 0.0
H872 H 0.65139 0.35477 0.18178 0.0
H873 H 0.68656 0.34047 0.17728 0.0
H874 H 0.633 0.24989 0.13344 0.0
H875 H 0.60179 0.2651 0.09688 0.0
H876 H 0.5997 0.32932 0.15037 0.0
C877 C 0.67056 0.29676 0.2308 0.0
C878 C 0.68554 0.27732 0.23677 0.0
C879 C 0.68291 0.25738 0.21696 0.0
C880 C 0.666 0.25698 0.19144 0.0
C881 C 0.65183 0.27661 0.18615 0.0
C882 C 0.6538 0.29605 0.20537 0.0
C883 C 0.63667 0.31498 0.1947 0.0
C884 C 0.605 0.31594 0.21418 0.0
C885 C 0.66371 0.3414 0.19126 0.0
C886 C 0.62488 0.30327 0.16635 0.0
C887 C 0.63381 0.28115 0.16175 0.0
C888 C 0.62572 0.26711 0.1369 0.0
C889 C 0.60786 0.27585 0.11631 0.0
C890 C 0.59828 0.29843 0.12071 0.0
C891 C 0.60706 0.31222 0.14612 0.0
H892 H 0.29699 0.29371 0.6434 0.0
H893 H 0.38666 0.3086 0.69728 0.0
H894 H 0.40212 0.27207 0.67624 0.0
H895 H 0.27242 0.22645 0.64632 0.0
H896 H 0.26089 0.22147 0.60983 0.0
H897 H 0.25722 0.24942 0.62826 0.0
H898 H 0.29798 0.27783 0.5898 0.0
H899 H 0.30156 0.24994 0.57113 0.0
H900 H 0.34086 0.27407 0.58132 0.0
H901 H 0.40589 0.23258 0.65187 0.0
H902 H 0.40005 0.19402 0.62335 0.0
H903 H 0.31003 0.20568 0.58303 0.0
C904 C 0.32003 0.28941 0.65061 0.0
C905 C 0.34055 0.30405 0.67206 0.0
C906 C 0.37053 0.29776 0.68086 0.0
C907 C 0.37953 0.27698 0.66908 0.0
C908 C 0.35853 0.26277 0.6483 0.0
C909 C 0.32964 0.26881 0.63887 0.0
C910 C 0.31152 0.25027 0.61628 0.0
C911 C 0.27325 0.23606 0.62575 0.0
C912 C 0.31309 0.26384 0.58795 0.0
C913 C 0.33445 0.23269 0.61487 0.0
C914 C 0.36134 0.24026 0.63357 0.0
C915 C 0.38527 0.22667 0.63681 0.0
C916 C 0.38184 0.20483 0.62032 0.0
C917 C 0.35484 0.19681 0.60057 0.0
C918 C 0.33084 0.21106 0.59798 0.0
H919 H 0.3485 0.84391 0.17912 0.0
H920 H 0.4281 0.86109 0.2424 0.0
H921 H 0.47446 0.86442 0.20473 0.0
H922 H 0.38428 0.80513 0.13638 0.0
H923 H 0.37358 0.81604 0.10328 0.0
H924 H 0.34708 0.81733 0.13481 0.0
H925 H 0.3581 0.86554 0.12774 0.0
H926 H 0.38436 0.86434 0.09597 0.0
H927 H 0.40277 0.88619 0.12394 0.0
H928 H 0.51129 0.86147 0.16042 0.0
H929 H 0.53565 0.85472 0.11268 0.0
H930 H 0.43232 0.84165 0.07867 0.0
C931 C 0.37573 0.84878 0.18507 0.0
C932 C 0.38467 0.85221 0.21373 0.0
C933 C 0.42063 0.85851 0.22058 0.0
C934 C 0.44714 0.8604 0.19934 0.0
C935 C 0.43728 0.85631 0.17135 0.0
C936 C 0.40247 0.85099 0.16417 0.0
C937 C 0.39858 0.84653 0.13269 0.0
C938 C 0.37446 0.81966 0.12644 0.0
C939 C 0.38517 0.86687 0.1193 0.0
C940 C 0.43647 0.84942 0.12335 0.0
C941 C 0.45849 0.85511 0.1459 0.0
C942 C 0.49435 0.85728 0.14259 0.0
C943 C 0.50793 0.85336 0.11555 0.0
C944 C 0.48561 0.84724 0.0924 0.0
C945 C 0.4497 0.84587 0.09626 0.0
H946 H 0.80765 0.19513 0.38695 0.0
H947 H 0.86739 0.19009 0.30909 0.0
H948 H 0.8835 0.15413 0.32863 0.0
H949 H 0.86854 0.18054 0.43414 0.0
H950 H 0.8339 0.16253 0.4581 0.0
H951 H 0.82744 0.18809 0.43809 0.0
H952 H 0.77083 0.15725 0.41791 0.0
H953 H 0.77727 0.1316 0.43775 0.0
H954 H 0.77332 0.12874 0.39997 0.0
H955 H 0.89037 0.11717 0.35561 0.0
H956 H 0.89083 0.08371 0.38966 0.0
H957 H 0.82937 0.11416 0.45066 0.0
C958 C 0.82426 0.18654 0.37406 0.0
C959 C 0.8362 0.19539 0.34645 0.0
C960 C 0.858 0.18369 0.33031 0.0
C961 C 0.86722 0.16321 0.3412 0.0
C962 C 0.85476 0.15481 0.36837 0.0
C963 C 0.83406 0.16626 0.38472 0.0
C964 C 0.82428 0.15364 0.41334 0.0
C965 C 0.83946 0.17231 0.43733 0.0
C966 C 0.78404 0.14213 0.41747 0.0
C967 C 0.84246 0.13318 0.41043 0.0
C968 C 0.85972 0.13407 0.38426 0.0
C969 C 0.87734 0.11649 0.37629 0.0
C970 C 0.87752 0.09762 0.39567 0.0
C971 C 0.86062 0.09676 0.42274 0.0
C972 C 0.8428 0.1147 0.43013 0.0
H973 H 0.39448 0.38893 0.81515 0.0
H974 H 0.28578 0.37842 0.84406 0.0
H975 H 0.30255 0.37642 0.89343 0.0
H976 H 0.41194 0.34627 0.86074 0.0
H977 H 0.4568 0.36473 0.86682 0.0
H978 H 0.43707 0.3682 0.83429 0.0
H979 H 0.45107 0.41652 0.84343 0.0
H980 H 0.47102 0.4132 0.87601 0.0
H981 H 0.43587 0.42763 0.87621 0.0
H982 H 0.32981 0.37003 0.93878 0.0
H983 H 0.36619 0.36232 0.97675 0.0
H984 H 0.45726 0.37869 0.9183 0.0
C985 C 0.37426 0.38668 0.83188 0.0
C986 C 0.33878 0.38381 0.82572 0.0
C987 C 0.31316 0.3808 0.84825 0.0
C988 C 0.32244 0.37962 0.87637 0.0
C989 C 0.35752 0.38189 0.8816 0.0
C990 C 0.38312 0.3857 0.85999 0.0
C991 C 0.41856 0.38628 0.87098 0.0
C992 C 0.43185 0.36511 0.8574 0.0
C993 C 0.44573 0.41247 0.86639 0.0
C994 C 0.4087 0.38135 0.90205 0.0
C995 C 0.37341 0.37897 0.90781 0.0
C996 C 0.35761 0.37237 0.93463 0.0
C997 C 0.37837 0.36793 0.956 0.0
C998 C 0.41453 0.37028 0.95045 0.0
C999 C 0.42989 0.37742 0.92324 0.0
H1000 H 0.30826 0.92623 0.34449 0.0
H1001 H 0.37585 0.89012 0.38591 0.0
H1002 H 0.3873 0.92351 0.42261 0.0
H1003 H 0.35997 0.99127 0.35848 0.0
H1004 H 0.32177 0.00216 0.36463 0.0
H1005 H 0.3197 0.97589 0.34098 0.0
H1006 H 0.26567 0.948 0.37013 0.0
H1007 H 0.26756 0.97418 0.39384 0.0
H1008 H 0.26901 0.94431 0.40757 0.0
H1009 H 0.39037 0.95999 0.45536 0.0
H1010 H 0.38466 0.99724 0.48235 0.0
H1011 H 0.3145 0.00961 0.42021 0.0
C1012 C 0.32565 0.92543 0.36118 0.0
C1013 C 0.34121 0.90556 0.36229 0.0
C1014 C 0.36364 0.90514 0.38458 0.0
C1015 C 0.37035 0.92404 0.40552 0.0
C1016 C 0.35447 0.94326 0.40388 0.0
C1017 C 0.33261 0.94413 0.3823 0.0
C1018 C 0.31823 0.96658 0.3859 0.0
C1019 C 0.33067 0.98507 0.36101 0.0
C1020 C 0.27771 0.95773 0.38958 0.0
C1021 C 0.33523 0.97805 0.41299 0.0
C1022 C 0.35611 0.96431 0.42292 0.0
C1023 C 0.37408 0.97089 0.44781 0.0
C1024 C 0.37048 0.99199 0.46308 0.0
C1025 C 0.34896 0.00627 0.45351 0.0
C1026 C 0.33137 0.99924 0.42795 0.0
H1027 H 0.68676 0.80853 0.80706 0.0
H1028 H 0.78262 0.80211 0.84242 0.0
H1029 H 0.75411 0.79868 0.89032 0.0
H1030 H 0.66766 0.84778 0.85933 0.0
H1031 H 0.62044 0.83379 0.85955 0.0
H1032 H 0.64679 0.83259 0.82794 0.0
H1033 H 0.62093 0.7836 0.82658 0.0
H1034 H 0.59432 0.78468 0.85818 0.0
H1035 H 0.62376 0.76537 0.8571 0.0
H1036 H 0.71708 0.80075 0.9349 0.0
H1037 H 0.67376 0.80688 0.97186 0.0
H1038 H 0.60286 0.81157 0.90685 0.0
C1039 C 0.70159 0.80587 0.82477 0.0
C1040 C 0.73691 0.80553 0.82096 0.0
C1041 C 0.75546 0.80231 0.84479 0.0
C1042 C 0.73948 0.80033 0.87209 0.0
C1043 C 0.70488 0.8014 0.87515 0.0
C1044 C 0.68608 0.80387 0.85206 0.0
C1045 C 0.65013 0.80619 0.86102 0.0
C1046 C 0.64605 0.8316 0.85139 0.0
C1047 C 0.62054 0.78361 0.85007 0.0
C1048 C 0.65195 0.80531 0.89278 0.0
C1049 C 0.68358 0.80235 0.90063 0.0
C1050 C 0.69197 0.80261 0.92899 0.0
C1051 C 0.6674 0.80609 0.94978 0.0
C1052 C 0.63511 0.80922 0.94192 0.0
C1053 C 0.62723 0.80866 0.91317 0.0
loop_
_geom_bond_atom_site_label_1
_geom_bond_atom_site_label_2
_geom_bond_distance
_geom_bond_site_symmetry_2
_ccdc_geom_bond_type
O0 Cd1 2.300 . S
O0 C7 1.275 . S
Cd1 O0 2.300 . S
Cd1 O9 2.381 . S
Cd1 O10 2.378 . S
O2 Cd3 2.385 . S
O2 C7 1.255 . S
Cd3 O2 2.385 . S
Cd3 O4 2.317 . S
O4 Cd3 2.317 . S
O4 C5 1.232 . S
C5 O4 1.232 . S
C5 O6 1.218 . S
O6 C5 1.218 . S
C7 O0 1.275 . S
C7 O2 1.255 . S
C8 O9 1.258 . S
C8 O10 1.256 . S
O9 Cd1 2.381 . S
O9 C8 1.258 . S
O10 Cd1 2.378 . S
O10 C8 1.256 . S
O11 Cd12 2.300 . S
O11 C18 1.275 . S
Cd12 O11 2.300 . S
Cd12 O20 2.381 . S
Cd12 O21 2.378 . S
O13 Cd14 2.385 . S
O13 C18 1.255 . S
Cd14 O13 2.385 . S
Cd14 O15 2.317 . S
O15 Cd14 2.317 . S
O15 C16 1.232 . S
C16 O15 1.232 . S
C16 O17 1.218 . S
O17 C16 1.218 . S
C18 O11 1.275 . S
C18 O13 1.255 . S
C19 O20 1.258 . S
C19 O21 1.256 . S
O20 Cd12 2.381 . S
O20 C19 1.258 . S
O21 Cd12 2.378 . S
O21 C19 1.256 . S
O22 Cd23 2.300 . S
O22 C29 1.275 . S
Cd23 O22 2.300 . S
Cd23 O31 2.381 . S
Cd23 O32 2.378 . S
O24 Cd25 2.385 . S
O24 C29 1.255 . S
Cd25 O24 2.385 . S
Cd25 O26 2.317 . S
O26 Cd25 2.317 . S
O26 C27 1.232 . S
C27 O26 1.232 . S
C27 O28 1.218 . S
O28 C27 1.218 . S
C29 O22 1.275 . S
C29 O24 1.255 . S
C30 O31 1.258 . S
C30 O32 1.256 . S
O31 Cd23 2.381 . S
O31 C30 1.258 . S
O32 Cd23 2.378 . S
O32 C30 1.256 . S
O33 Cd34 2.300 . S
O33 C40 1.275 . S
Cd34 O33 2.300 . S
Cd34 O42 2.381 . S
Cd34 O43 2.378 . S
O35 Cd36 2.385 . S
O35 C40 1.255 . S
Cd36 O35 2.385 . S
Cd36 O37 2.317 . S
O37 Cd36 2.317 . S
O37 C38 1.232 . S
C38 O37 1.232 . S
C38 O39 1.218 . S
O39 C38 1.218 . S
C40 O33 1.275 . S
C40 O35 1.255 . S
C41 O42 1.258 . S
C41 O43 1.256 . S
O42 Cd34 2.381 . S
O42 C41 1.258 . S
O43 Cd34 2.378 . S
O43 C41 1.256 . S
O44 Cd45 2.300 . S
O44 C51 1.275 . S
Cd45 O44 2.300 . S
Cd45 O53 2.381 . S
Cd45 O54 2.378 . S
O46 Cd47 2.385 . S
O46 C51 1.255 . S
Cd47 O46 2.385 . S
Cd47 O48 2.317 . S
O48 Cd47 2.317 . S
O48 C49 1.232 . S
C49 O48 1.232 . S
C49 O50 1.218 . S
O50 C49 1.218 . S
C51 O44 1.275 . S
C51 O46 1.255 . S
C52 O53 1.258 . S
C52 O54 1.256 . S
O53 Cd45 2.381 . S
O53 C52 1.258 . S
O54 Cd45 2.378 . S
O54 C52 1.256 . S
O55 Cd56 2.300 . S
O55 C62 1.275 . S
Cd56 O55 2.300 . S
Cd56 O64 2.381 . S
Cd56 O65 2.378 . S
O57 Cd58 2.385 . S
O57 C62 1.255 . S
Cd58 O57 2.385 . S
Cd58 O59 2.317 . S
O59 Cd58 2.317 . S
O59 C60 1.232 . S
C60 O59 1.232 . S
C60 O61 1.218 . S
O61 C60 1.218 . S
C62 O55 1.275 . S
C62 O57 1.255 . S
C63 O64 1.258 . S
C63 O65 1.256 . S
O64 Cd56 2.381 . S
O64 C63 1.258 . S
O65 Cd56 2.378 . S
O65 C63 1.256 . S
O66 Cd67 2.300 . S
O66 C73 1.275 . S
Cd67 O66 2.300 . S
Cd67 O75 2.381 . S
Cd67 O76 2.378 . S
O68 Cd69 2.385 . S
O68 C73 1.255 . S
Cd69 O68 2.385 . S
Cd69 O70 2.317 . S
O70 Cd69 2.317 . S
O70 C71 1.232 . S
C71 O70 1.232 . S
C71 O72 1.218 . S
O72 C71 1.218 . S
C73 O66 1.275 . S
C73 O68 1.255 . S
C74 O75 1.258 . S
C74 O76 1.256 . S
O75 Cd67 2.381 . S
O75 C74 1.258 . S
O76 Cd67 2.378 . S
O76 C74 1.256 . S
O77 Cd78 2.300 . S
O77 C84 1.275 . S
Cd78 O77 2.300 . S
Cd78 O86 2.381 . S
Cd78 O87 2.378 . S
O79 Cd80 2.385 . S
O79 C84 1.255 . S
Cd80 O79 2.385 . S
Cd80 O81 2.317 . S
O81 Cd80 2.317 . S
O81 C82 1.232 . S
C82 O81 1.232 . S
C82 O83 1.218 . S
O83 C82 1.218 . S
C84 O77 1.275 . S
C84 O79 1.255 . S
C85 O86 1.258 . S
C85 O87 1.256 . S
O86 Cd78 2.381 . S
O86 C85 1.258 . S
O87 Cd78 2.378 . S
O87 C85 1.256 . S
C88 C89 1.443 . S
C88 N92 1.376 . S
C88 C126 1.389 . S
C89 C88 1.443 . S
C89 C90 1.340 . S
C89 H129 0.951 . S
C90 C89 1.340 . S
C90 C91 1.439 . S
C90 H130 0.950 . S
C91 C90 1.439 . S
C91 N92 1.374 . S
C91 C125 1.395 . S
N92 C88 1.376 . S
N92 C91 1.374 . S
N92 Co93 2.008 . S
Co93 N92 2.008 . S
Co93 N94 1.995 . S
Co93 N99 2.008 . S
Co93 N104 1.995 . S
Co93 N109 2.282 . S
Co93 N115 2.282 . S
N94 Co93 1.995 . S
N94 C95 1.376 . S
N94 C98 1.383 . S
C95 N94 1.376 . S
C95 C96 1.446 . S
C95 C125 1.391 . S
C96 C95 1.446 . S
C96 C97 1.339 1_455 S
C96 H131 0.949 1_455 S
C97 C96 1.339 1_655 S
C97 C98 1.439 1_655 S
C97 H132 0.950 . S
C98 N94 1.383 . S
C98 C97 1.439 1_455 S
C98 C127 1.392 . S
N99 Co93 2.008 . S
N99 C100 1.376 . S
N99 C103 1.374 . S
C100 N99 1.376 . S
C100 C101 1.443 . S
C100 C127 1.389 . S
C101 C100 1.443 . S
C101 C102 1.340 . S
C101 H133 0.946 1_455 S
C102 C101 1.340 . S
C102 C103 1.439 . S
C102 H134 0.950 . S
C103 N99 1.374 . S
C103 C102 1.439 . S
C103 C128 1.395 . S
N104 Co93 1.995 . S
N104 C105 1.376 . S
N104 C108 1.383 . S
C105 N104 1.376 . S
C105 C106 1.446 . S
C105 C128 1.391 . S
C106 C105 1.446 . S
C106 C107 1.339 . S
C106 H135 0.949 . S
C107 C106 1.339 . S
C107 C108 1.439 . S
C107 H136 0.950 . S
C108 N104 1.383 . S
C108 C107 1.439 . S
C108 C126 1.392 . S
N109 Co93 2.282 . S
N109 C112 1.332 . S
N109 C114 1.332 . S
C110 C111 1.386 . S
C110 C113 1.388 . S
C111 C110 1.386 . S
C111 C112 1.382 . S
C111 H137 0.950 . S
C112 N109 1.332 . S
C112 C111 1.382 . S
C112 H123 0.952 . S
C113 C110 1.388 . S
C113 C114 1.382 . S
C113 H138 0.950 . S
C114 N109 1.332 . S
C114 C113 1.382 . S
C114 H124 0.948 . S
N115 Co93 2.282 . S
N115 C119 1.344 . S
N115 C120 1.332 . S
C116 C117 1.387 1_455 S
C116 C120 1.384 . S
C116 H139 0.954 . S
C117 C116 1.387 1_655 S
C117 C118 1.386 . S
C118 C117 1.386 . S
C118 C119 1.365 1_655 S
C118 H140 0.950 . S
C119 N115 1.344 . S
C119 C118 1.365 1_455 S
C119 H121 0.952 . S
C120 N115 1.332 . S
C120 C116 1.384 . S
C120 H122 0.948 . S
H121 C119 0.952 . S
H122 C120 0.948 . S
H123 C112 0.952 . S
H124 C114 0.948 . S
C125 C91 1.395 . S
C125 C95 1.391 . S
C126 C88 1.389 . S
C126 C108 1.392 . S
C127 C98 1.392 . S
C127 C100 1.389 . S
C128 C103 1.395 . S
C128 C105 1.391 . S
H129 C89 0.951 . S
H130 C90 0.950 . S
H131 C96 0.949 1_655 S
H132 C97 0.950 . S
H133 C101 0.946 1_655 S
H134 C102 0.950 . S
H135 C106 0.949 . S
H136 C107 0.950 . S
H137 C111 0.950 . S
H138 C113 0.950 . S
H139 C116 0.954 . S
H140 C118 0.950 . S
C141 C142 1.443 . S
C141 N145 1.376 . S
C141 C179 1.389 . S
C142 C141 1.443 . S
C142 C143 1.340 . S
C142 H182 0.951 . S
C143 C142 1.340 . S
C143 C144 1.439 . S
C143 H183 0.950 . S
C144 C143 1.439 . S
C144 N145 1.374 . S
C144 C178 1.395 1_455 S
N145 C141 1.376 . S
N145 C144 1.374 . S
N145 Co146 2.008 . S
Co146 N145 2.008 . S
Co146 N147 1.995 1_455 S
Co146 N152 2.008 1_455 S
Co146 N157 1.995 . S
Co146 N162 2.282 . S
Co146 N168 2.282 1_455 S
N147 Co146 1.995 1_655 S
N147 C148 1.376 . S
N147 C151 1.383 . S
C148 N147 1.376 . S
C148 C149 1.446 . S
C148 C178 1.391 . S
C149 C148 1.446 . S
C149 C150 1.339 . S
C149 H184 0.949 . S
C150 C149 1.339 . S
C150 C151 1.439 . S
C150 H185 0.950 . S
C151 N147 1.383 . S
C151 C150 1.439 . S
C151 C180 1.392 . S
N152 Co146 2.008 1_655 S
N152 C153 1.376 . S
N152 C156 1.374 . S
C153 N152 1.376 . S
C153 C154 1.443 . S
C153 C180 1.389 . S
C154 C153 1.443 . S
C154 C155 1.340 . S
C154 H186 0.951 . S
C155 C154 1.340 . S
C155 C156 1.439 . S
C155 H187 0.950 . S
C156 N152 1.374 . S
C156 C155 1.439 . S
C156 C181 1.395 1_655 S
N157 Co146 1.995 . S
N157 C158 1.376 . S
N157 C161 1.383 . S
C158 N157 1.376 . S
C158 C159 1.446 . S
C158 C181 1.391 . S
C159 C158 1.446 . S
C159 C160 1.339 . S
C159 H188 0.949 . S
C160 C159 1.339 . S
C160 C161 1.439 . S
C160 H189 0.950 . S
C161 N157 1.383 . S
C161 C160 1.439 . S
C161 C179 1.392 . S
N162 Co146 2.282 . S
N162 C165 1.332 . S
N162 C167 1.332 . S
C163 C164 1.386 . S
C163 C166 1.388 . S
C164 C163 1.386 . S
C164 C165 1.382 . S
C164 H190 0.950 . S
C165 N162 1.332 . S
C165 C164 1.382 . S
C165 H176 0.952 . S
C166 C163 1.388 . S
C166 C167 1.382 . S
C166 H191 0.950 . S
C167 N162 1.332 . S
C167 C166 1.382 . S
C167 H177 0.948 . S
N168 Co146 2.282 1_655 S
N168 C172 1.332 . S
N168 C173 1.332 . S
C169 C170 1.388 . S
C169 C173 1.382 . S
C169 H192 0.950 . S
C170 C169 1.388 . S
C170 C171 1.386 . S
C171 C170 1.386 . S
C171 C172 1.382 . S
C171 H193 0.950 . S
C172 N168 1.332 . S
C172 C171 1.382 . S
C172 H174 0.952 . S
C173 N168 1.332 . S
C173 C169 1.382 . S
C173 H175 0.948 . S
H174 C172 0.952 . S
H175 C173 0.948 . S
H176 C165 0.952 . S
H177 C167 0.948 . S
C178 C144 1.395 1_655 S
C178 C148 1.391 . S
C179 C141 1.389 . S
C179 C161 1.392 . S
C180 C151 1.392 . S
C180 C153 1.389 . S
C181 C156 1.395 1_455 S
C181 C158 1.391 . S
H182 C142 0.951 . S
H183 C143 0.950 . S
H184 C149 0.949 . S
H185 C150 0.950 . S
H186 C154 0.951 . S
H187 C155 0.950 . S
H188 C159 0.949 . S
H189 C160 0.950 . S
H190 C164 0.950 . S
H191 C166 0.950 . S
H192 C169 0.950 . S
H193 C171 0.950 . S
C194 C195 1.443 . S
C194 N198 1.376 . S
C194 C232 1.389 . S
C195 C194 1.443 . S
C195 C196 1.340 . S
C195 H235 0.951 . S
C196 C195 1.340 . S
C196 C197 1.439 . S
C196 H236 0.950 . S
C197 C196 1.439 . S
C197 N198 1.374 . S
C197 C231 1.395 . S
N198 C194 1.376 . S
N198 C197 1.374 . S
N198 Co199 2.008 . S
Co199 N198 2.008 . S
Co199 N200 1.995 . S
Co199 N205 2.008 . S
Co199 N210 1.995 . S
Co199 N215 2.282 . S
Co199 N221 2.282 . S
N200 Co199 1.995 . S
N200 C201 1.376 . S
N200 C204 1.383 . S
C201 N200 1.376 . S
C201 C202 1.446 . S
C201 C231 1.391 . S
C202 C201 1.446 . S
C202 C203 1.339 . S
C202 H237 0.949 . S
C203 C202 1.339 . S
C203 C204 1.439 . S
C203 H238 0.950 . S
C204 N200 1.383 . S
C204 C203 1.439 . S
C204 C233 1.392 . S
N205 Co199 2.008 . S
N205 C206 1.376 . S
N205 C209 1.374 . S
C206 N205 1.376 . S
C206 C207 1.443 . S
C206 C233 1.389 . S
C207 C206 1.443 . S
C207 C208 1.340 . S
C207 H239 0.951 . S
C208 C207 1.340 . S
C208 C209 1.439 . S
C208 H240 0.950 . S
C209 N205 1.374 . S
C209 C208 1.439 . S
C209 C234 1.395 . S
N210 Co199 1.995 . S
N210 C211 1.376 . S
N210 C214 1.383 . S
C211 N210 1.376 . S
C211 C212 1.446 . S
C211 C234 1.391 . S
C212 C211 1.446 . S
C212 C213 1.339 . S
C212 H241 0.949 . S
C213 C212 1.339 . S
C213 C214 1.439 . S
C213 H242 0.950 . S
C214 N210 1.383 . S
C214 C213 1.439 . S
C214 C232 1.392 . S
N215 Co199 2.282 . S
N215 C218 1.332 . S
N215 C220 1.332 . S
C216 C217 1.386 . S
C216 C219 1.388 . S
C217 C216 1.386 . S
C217 C218 1.382 . S
C217 H243 0.950 . S
C218 N215 1.332 . S
C218 C217 1.382 . S
C218 H229 0.952 . S
C219 C216 1.388 . S
C219 C220 1.382 . S
C219 H244 0.950 . S
C220 N215 1.332 . S
C220 C219 1.382 . S
C220 H230 0.948 . S
N221 Co199 2.282 . S
N221 C225 1.332 . S
N221 C226 1.332 . S
C222 C223 1.388 . S
C222 C226 1.382 . S
C222 H245 0.950 . S
C223 C222 1.388 . S
C223 C224 1.386 . S
C224 C223 1.386 . S
C224 C225 1.382 . S
C224 H246 0.950 . S
C225 N221 1.332 . S
C225 C224 1.382 . S
C225 H227 0.952 . S
C226 N221 1.332 . S
C226 C222 1.382 . S
C226 H228 0.948 . S
H227 C225 0.952 . S
H228 C226 0.948 . S
H229 C218 0.952 . S
H230 C220 0.948 . S
C231 C197 1.395 . S
C231 C201 1.391 . S
C232 C194 1.389 . S
C232 C214 1.392 . S
C233 C204 1.392 . S
C233 C206 1.389 . S
C234 C209 1.395 . S
C234 C211 1.391 . S
H235 C195 0.951 . S
H236 C196 0.950 . S
H237 C202 0.949 . S
H238 C203 0.950 . S
H239 C207 0.951 . S
H240 C208 0.950 . S
H241 C212 0.949 . S
H242 C213 0.950 . S
H243 C217 0.950 . S
H244 C219 0.950 . S
H245 C222 0.950 . S
H246 C224 0.950 . S
C247 C248 1.443 . S
C247 N251 1.376 . S
C247 C285 1.389 . S
C248 C247 1.443 . S
C248 C249 1.340 . S
C248 H288 0.951 . S
C249 C248 1.340 . S
C249 C250 1.439 . S
C249 H289 0.950 . S
C250 C249 1.439 . S
C250 N251 1.374 . S
C250 C284 1.395 . S
N251 C247 1.376 . S
N251 C250 1.374 . S
N251 Co252 2.008 . S
Co252 N251 2.008 . S
Co252 N253 1.995 1_554 S
Co252 N258 2.008 1_554 S
Co252 N263 1.995 . S
Co252 N268 2.282 1_554 S
Co252 N274 2.282 . S
N253 Co252 1.995 1_556 S
N253 C254 1.372 1_556 S
N253 C257 1.383 . S
C254 N253 1.372 1_554 S
C254 C255 1.425 1_554 S
C254 C284 1.413 . S
C255 C254 1.425 1_556 S
C255 C256 1.339 . S
C255 H290 0.949 . S
C256 C255 1.339 . S
C256 C257 1.439 . S
C256 H291 0.950 . S
C257 N253 1.383 . S
C257 C256 1.439 . S
C257 C286 1.392 . S
N258 Co252 2.008 1_556 S
N258 C259 1.376 . S
N258 C262 1.374 . S
C259 N258 1.376 . S
C259 C260 1.443 . S
C259 C286 1.389 . S
C260 C259 1.443 . S
C260 C261 1.340 . S
C260 H292 0.951 . S
C261 C260 1.340 . S
C261 C262 1.439 . S
C261 H293 0.950 . S
C262 N258 1.374 . S
C262 C261 1.439 . S
C262 C287 1.395 1_556 S
N263 Co252 1.995 . S
N263 C264 1.376 . S
N263 C267 1.383 . S
C264 N263 1.376 . S
C264 C265 1.446 . S
C264 C287 1.391 . S
C265 C264 1.446 . S
C265 C266 1.339 . S
C265 H294 0.949 . S
C266 C265 1.339 . S
C266 C267 1.439 . S
C266 H295 0.950 . S
C267 N263 1.383 . S
C267 C266 1.439 . S
C267 C285 1.392 . S
N268 Co252 2.282 1_556 S
N268 C271 1.332 . S
N268 C273 1.332 . S
C269 C270 1.386 . S
C269 C272 1.388 . S
C270 C269 1.386 . S
C270 C271 1.382 . S
C270 H296 0.950 . S
C271 N268 1.332 . S
C271 C270 1.382 . S
C271 H282 0.952 . S
C272 C269 1.388 . S
C272 C273 1.382 . S
C272 H297 0.950 . S
C273 N268 1.332 . S
C273 C272 1.382 . S
C273 H283 0.948 . S
N274 Co252 2.282 . S
N274 C278 1.332 . S
N274 C279 1.332 . S
C275 C276 1.388 . S
C275 C279 1.382 . S
C275 H298 0.950 . S
C276 C275 1.388 . S
C276 C277 1.386 . S
C277 C276 1.386 . S
C277 C278 1.382 . S
C277 H299 0.950 . S
C278 N274 1.332 . S
C278 C277 1.382 . S
C278 H280 0.952 . S
C279 N274 1.332 . S
C279 C275 1.382 . S
C279 H281 0.948 . S
H280 C278 0.952 . S
H281 C279 0.948 . S
H282 C271 0.952 . S
H283 C273 0.948 . S
C284 C250 1.395 . S
C284 C254 1.413 . S
C285 C247 1.389 . S
C285 C267 1.392 . S
C286 C257 1.392 . S
C286 C259 1.389 . S
C287 C262 1.395 1_554 S
C287 C264 1.391 . S
H288 C248 0.951 . S
H289 C249 0.950 . S
H290 C255 0.949 . S
H291 C256 0.950 . S
H292 C260 0.951 . S
H293 C261 0.950 . S
H294 C265 0.949 . S
H295 C266 0.950 . S
H296 C270 0.950 . S
H297 C272 0.950 . S
H298 C275 0.950 . S
H299 C277 0.950 . S
C300 C301 1.443 . S
C300 N304 1.376 1_565 S
C300 C338 1.389 . S
C301 C300 1.443 . S
C301 C302 1.356 . S
C301 H341 0.951 . S
C302 C301 1.356 . S
C302 C303 1.415 1_565 S
C302 H342 0.971 1_565 S
C303 C302 1.415 1_545 S
C303 N304 1.374 . S
C303 C337 1.395 . S
N304 C300 1.376 1_545 S
N304 C303 1.374 . S
N304 Co305 2.008 . S
Co305 N304 2.008 . S
Co305 N306 1.995 . S
Co305 N311 2.008 . S
Co305 N316 1.995 1_545 S
Co305 N321 2.282 . S
Co305 N327 2.282 1_545 S
N306 Co305 1.995 . S
N306 C307 1.376 . S
N306 C310 1.383 . S
C307 N306 1.376 . S
C307 C308 1.446 . S
C307 C337 1.391 . S
C308 C307 1.446 . S
C308 C309 1.339 . S
C308 H343 0.949 . S
C309 C308 1.339 . S
C309 C310 1.439 . S
C309 H344 0.950 . S
C310 N306 1.383 . S
C310 C309 1.439 . S
C310 C339 1.392 . S
N311 Co305 2.008 . S
N311 C312 1.376 . S
N311 C315 1.374 . S
C312 N311 1.376 . S
C312 C313 1.443 . S
C312 C339 1.389 . S
C313 C312 1.443 . S
C313 C314 1.340 . S
C313 H345 0.951 . S
C314 C313 1.340 . S
C314 C315 1.439 . S
C314 H346 0.950 . S
C315 N311 1.374 . S
C315 C314 1.439 . S
C315 C340 1.395 . S
N316 Co305 1.995 1_565 S
N316 C317 1.376 . S
N316 C320 1.383 . S
C317 N316 1.376 . S
C317 C318 1.446 . S
C317 C340 1.391 1_565 S
C318 C317 1.446 . S
C318 C319 1.339 . S
C318 H347 0.949 . S
C319 C318 1.339 . S
C319 C320 1.439 . S
C319 H348 0.950 . S
C320 N316 1.383 . S
C320 C319 1.439 . S
C320 C338 1.392 . S
N321 Co305 2.282 . S
N321 C324 1.332 . S
N321 C326 1.332 . S
C322 C323 1.386 . S
C322 C325 1.388 . S
C323 C322 1.386 . S
C323 C324 1.382 . S
C323 H349 0.950 . S
C324 N321 1.332 . S
C324 C323 1.382 . S
C324 H335 0.952 . S
C325 C322 1.388 . S
C325 C326 1.382 . S
C325 H350 0.950 . S
C326 N321 1.332 . S
C326 C325 1.382 . S
C326 H336 0.948 . S
N327 Co305 2.282 1_565 S
N327 C331 1.332 . S
N327 C332 1.332 . S
C328 C329 1.388 . S
C328 C332 1.382 . S
C328 H351 0.950 . S
C329 C328 1.388 . S
C329 C330 1.386 . S
C330 C329 1.386 . S
C330 C331 1.382 . S
C330 H352 0.950 . S
C331 N327 1.332 . S
C331 C330 1.382 . S
C331 H333 0.952 1_565 S
C332 N327 1.332 . S
C332 C328 1.382 . S
C332 H334 0.948 . S
H333 C331 0.952 1_545 S
H334 C332 0.948 . S
H335 C324 0.952 . S
H336 C326 0.948 . S
C337 C303 1.395 . S
C337 C307 1.391 . S
C338 C300 1.389 . S
C338 C320 1.392 . S
C339 C310 1.392 . S
C339 C312 1.389 . S
C340 C315 1.395 . S
C340 C317 1.391 1_545 S
H341 C301 0.951 . S
H342 C302 0.971 1_545 S
H343 C308 0.949 . S
H344 C309 0.950 . S
H345 C313 0.951 . S
H346 C314 0.950 . S
H347 C318 0.949 . S
H348 C319 0.950 . S
H349 C323 0.950 . S
H350 C325 0.950 . S
H351 C328 0.950 . S
H352 C330 0.950 . S
C353 C354 1.443 . S
C353 N357 1.376 . S
C353 C391 1.389 . S
C354 C353 1.443 . S
C354 C355 1.340 . S
C354 H394 0.951 . S
C355 C354 1.340 . S
C355 C356 1.439 . S
C355 H395 0.950 . S
C356 C355 1.439 . S
C356 N357 1.374 . S
C356 C390 1.395 . S
N357 C353 1.376 . S
N357 C356 1.374 . S
N357 Co358 2.008 . S
Co358 N357 2.008 . S
Co358 N359 1.995 . S
Co358 N364 2.008 . S
Co358 N369 1.995 . S
Co358 N374 2.282 1_554 S
Co358 N380 2.282 . S
N359 Co358 1.995 . S
N359 C360 1.376 . S
N359 C363 1.383 1_554 S
C360 N359 1.376 . S
C360 C361 1.446 1_554 S
C360 C390 1.391 . S
C361 C360 1.446 1_556 S
C361 C362 1.339 . S
C361 H396 0.949 . S
C362 C361 1.339 . S
C362 C363 1.439 . S
C362 H397 0.950 . S
C363 N359 1.383 1_556 S
C363 C362 1.439 . S
C363 C392 1.392 . S
N364 Co358 2.008 . S
N364 C365 1.376 1_554 S
N364 C368 1.374 . S
C365 N364 1.376 1_556 S
C365 C366 1.443 . S
C365 C392 1.389 . S
C366 C365 1.443 . S
C366 C367 1.340 . S
C366 H398 0.951 . S
C367 C366 1.340 . S
C367 C368 1.439 1_556 S
C367 H399 0.950 . S
C368 N364 1.374 . S
C368 C367 1.439 1_554 S
C368 C393 1.395 . S
N369 Co358 1.995 . S
N369 C370 1.376 . S
N369 C373 1.383 . S
C370 N369 1.376 . S
C370 C371 1.446 . S
C370 C393 1.391 . S
C371 C370 1.446 . S
C371 C372 1.339 . S
C371 H400 0.949 . S
C372 C371 1.339 . S
C372 C373 1.439 . S
C372 H401 0.950 . S
C373 N369 1.383 . S
C373 C372 1.439 . S
C373 C391 1.392 . S
N374 Co358 2.282 1_556 S
N374 C377 1.332 . S
N374 C379 1.332 . S
C375 C376 1.386 . S
C375 C378 1.388 . S
C376 C375 1.386 . S
C376 C377 1.382 . S
C376 H402 0.950 . S
C377 N374 1.332 . S
C377 C376 1.382 . S
C377 H388 0.952 1_556 S
C378 C375 1.388 . S
C378 C379 1.382 . S
C378 H403 0.950 . S
C379 N374 1.332 . S
C379 C378 1.382 . S
C379 H389 0.948 . S
N380 Co358 2.282 . S
N380 C384 1.332 . S
N380 C385 1.332 . S
C381 C382 1.388 . S
C381 C385 1.382 . S
C381 H404 0.950 . S
C382 C381 1.388 . S
C382 C383 1.386 . S
C383 C382 1.386 . S
C383 C384 1.382 . S
C383 H405 0.950 . S
C384 N380 1.332 . S
C384 C383 1.382 . S
C384 H386 0.952 . S
C385 N380 1.332 . S
C385 C381 1.382 . S
C385 H387 0.948 . S
H386 C384 0.952 . S
H387 C385 0.948 . S
H388 C377 0.952 1_554 S
H389 C379 0.948 . S
C390 C356 1.395 . S
C390 C360 1.391 . S
C391 C353 1.389 . S
C391 C373 1.392 . S
C392 C363 1.392 . S
C392 C365 1.389 . S
C393 C368 1.395 . S
C393 C370 1.391 . S
H394 C354 0.951 . S
H395 C355 0.950 . S
H396 C361 0.949 . S
H397 C362 0.950 . S
H398 C366 0.951 . S
H399 C367 0.950 . S
H400 C371 0.949 . S
H401 C372 0.950 . S
H402 C376 0.950 . S
H403 C378 0.950 . S
H404 C381 0.950 . S
H405 C383 0.950 . S
H406 C418 0.930 . S
H407 C420 0.930 . S
H408 C421 0.930 . S
H409 C425 0.959 . S
H410 C425 0.959 . S
H411 C425 0.961 . S
H412 C426 0.960 . S
H413 C426 0.961 . S
H414 C426 0.959 . S
H415 C429 0.929 . S
H416 C430 0.931 . S
H417 C432 0.930 . S
C418 H406 0.930 . S
C418 C419 1.399 . S
C418 C423 1.399 . S
C419 C418 1.399 . S
C419 C420 1.376 . S
C420 H407 0.930 . S
C420 C419 1.376 . S
C420 C421 1.388 . S
C421 H408 0.930 . S
C421 C420 1.388 . S
C421 C422 1.390 . S
C422 C421 1.390 . S
C422 C423 1.394 . S
C422 C428 1.465 . S
C423 C418 1.399 . S
C423 C422 1.394 . S
C423 C424 1.516 . S
C424 C423 1.516 . S
C424 C425 1.502 . S
C424 C426 1.561 . S
C424 C427 1.526 . S
C425 H409 0.959 . S
C425 H410 0.959 . S
C425 H411 0.961 . S
C425 C424 1.502 . S
C426 H412 0.960 . S
C426 H413 0.961 . S
C426 H414 0.959 . S
C426 C424 1.561 . S
C427 C424 1.526 . S
C427 C428 1.396 . S
C427 C432 1.390 . S
C428 C422 1.465 . S
C428 C427 1.396 . S
C428 C429 1.399 . S
C429 H415 0.929 . S
C429 C428 1.399 . S
C429 C430 1.385 . S
C430 H416 0.931 . S
C430 C429 1.385 . S
C430 C431 1.389 . S
C431 C430 1.389 . S
C431 C432 1.387 . S
C432 H417 0.930 . S
C432 C427 1.390 . S
C432 C431 1.387 . S
H433 C445 0.930 . S
H434 C447 0.930 . S
H435 C448 0.930 . S
H436 C452 0.959 . S
H437 C452 0.959 . S
H438 C452 0.961 . S
H439 C453 0.960 . S
H440 C453 0.961 . S
H441 C453 0.959 . S
H442 C456 0.929 . S
H443 C457 0.931 . S
H444 C459 0.930 . S
C445 H433 0.930 . S
C445 C446 1.399 . S
C445 C450 1.399 . S
C446 C445 1.399 . S
C446 C447 1.376 . S
C447 H434 0.930 . S
C447 C446 1.376 . S
C447 C448 1.388 . S
C448 H435 0.930 . S
C448 C447 1.388 . S
C448 C449 1.390 . S
C449 C448 1.390 . S
C449 C450 1.394 . S
C449 C455 1.465 . S
C450 C445 1.399 . S
C450 C449 1.394 . S
C450 C451 1.516 . S
C451 C450 1.516 . S
C451 C452 1.502 . S
C451 C453 1.561 . S
C451 C454 1.526 . S
C452 H436 0.959 . S
C452 H437 0.959 . S
C452 H438 0.961 . S
C452 C451 1.502 . S
C453 H439 0.960 . S
C453 H440 0.961 . S
C453 H441 0.959 . S
C453 C451 1.561 . S
C454 C451 1.526 . S
C454 C455 1.396 . S
C454 C459 1.390 . S
C455 C449 1.465 . S
C455 C454 1.396 . S
C455 C456 1.399 . S
C456 H442 0.929 . S
C456 C455 1.399 . S
C456 C457 1.385 . S
C457 H443 0.931 . S
C457 C456 1.385 . S
C457 C458 1.389 . S
C458 C457 1.389 . S
C458 C459 1.387 . S
C459 H444 0.930 . S
C459 C454 1.390 . S
C459 C458 1.387 . S
H460 C472 0.930 . S
H461 C474 0.930 . S
H462 C475 0.930 . S
H463 C479 0.959 . S
H464 C479 0.959 . S
H465 C479 0.961 . S
H466 C480 0.960 . S
H467 C480 0.961 . S
H468 C480 0.959 . S
H469 C483 0.929 . S
H470 C484 0.931 . S
H471 C486 0.930 . S
C472 H460 0.930 . S
C472 C473 1.399 . S
C472 C477 1.399 . S
C473 C472 1.399 . S
C473 C474 1.376 . S
C474 H461 0.930 . S
C474 C473 1.376 . S
C474 C475 1.388 . S
C475 H462 0.930 . S
C475 C474 1.388 . S
C475 C476 1.390 . S
C476 C475 1.390 . S
C476 C477 1.394 . S
C476 C482 1.465 . S
C477 C472 1.399 . S
C477 C476 1.394 . S
C477 C478 1.516 . S
C478 C477 1.516 . S
C478 C479 1.502 . S
C478 C480 1.561 . S
C478 C481 1.526 . S
C479 H463 0.959 . S
C479 H464 0.959 . S
C479 H465 0.961 . S
C479 C478 1.502 . S
C480 H466 0.960 . S
C480 H467 0.961 . S
C480 H468 0.959 . S
C480 C478 1.561 . S
C481 C478 1.526 . S
C481 C482 1.396 . S
C481 C486 1.390 . S
C482 C476 1.465 . S
C482 C481 1.396 . S
C482 C483 1.399 . S
C483 H469 0.929 . S
C483 C482 1.399 . S
C483 C484 1.385 . S
C484 H470 0.931 . S
C484 C483 1.385 . S
C484 C485 1.389 . S
C485 C484 1.389 . S
C485 C486 1.387 . S
C486 H471 0.930 . S
C486 C481 1.390 . S
C486 C485 1.387 . S
H487 C499 0.930 . S
H488 C501 0.930 . S
H489 C502 0.930 . S
H490 C506 0.959 . S
H491 C506 0.959 . S
H492 C506 0.961 . S
H493 C507 0.960 . S
H494 C507 0.961 . S
H495 C507 0.959 . S
H496 C510 0.929 . S
H497 C511 0.931 . S
H498 C513 0.930 . S
C499 H487 0.930 . S
C499 C500 1.399 . S
C499 C504 1.399 . S
C500 C499 1.399 . S
C500 C501 1.376 . S
C501 H488 0.930 . S
C501 C500 1.376 . S
C501 C502 1.388 . S
C502 H489 0.930 . S
C502 C501 1.388 . S
C502 C503 1.390 . S
C503 C502 1.390 . S
C503 C504 1.394 . S
C503 C509 1.465 . S
C504 C499 1.399 . S
C504 C503 1.394 . S
C504 C505 1.516 . S
C505 C504 1.516 . S
C505 C506 1.502 . S
C505 C507 1.561 . S
C505 C508 1.526 . S
C506 H490 0.959 . S
C506 H491 0.959 . S
C506 H492 0.961 . S
C506 C505 1.502 . S
C507 H493 0.960 . S
C507 H494 0.961 . S
C507 H495 0.959 . S
C507 C505 1.561 . S
C508 C505 1.526 . S
C508 C509 1.396 . S
C508 C513 1.390 . S
C509 C503 1.465 . S
C509 C508 1.396 . S
C509 C510 1.399 . S
C510 H496 0.929 . S
C510 C509 1.399 . S
C510 C511 1.385 . S
C511 H497 0.931 . S
C511 C510 1.385 . S
C511 C512 1.389 . S
C512 C511 1.389 . S
C512 C513 1.387 . S
C513 H498 0.930 . S
C513 C508 1.390 . S
C513 C512 1.387 . S
H514 C526 0.930 . S
H515 C528 0.930 . S
H516 C529 0.930 . S
H517 C533 0.959 . S
H518 C533 0.959 . S
H519 C533 0.961 . S
H520 C534 0.960 . S
H521 C534 0.961 . S
H522 C534 0.959 . S
H523 C537 0.929 . S
H524 C538 0.931 . S
H525 C540 0.930 . S
C526 H514 0.930 . S
C526 C527 1.399 . S
C526 C531 1.399 . S
C527 C526 1.399 . S
C527 C528 1.376 . S
C528 H515 0.930 . S
C528 C527 1.376 . S
C528 C529 1.388 . S
C529 H516 0.930 . S
C529 C528 1.388 . S
C529 C530 1.390 . S
C530 C529 1.390 . S
C530 C531 1.394 . S
C530 C536 1.465 . S
C531 C526 1.399 . S
C531 C530 1.394 . S
C531 C532 1.516 . S
C532 C531 1.516 . S
C532 C533 1.502 . S
C532 C534 1.561 . S
C532 C535 1.526 . S
C533 H517 0.959 . S
C533 H518 0.959 . S
C533 H519 0.961 . S
C533 C532 1.502 . S
C534 H520 0.960 . S
C534 H521 0.961 . S
C534 H522 0.959 . S
C534 C532 1.561 . S
C535 C532 1.526 . S
C535 C536 1.396 . S
C535 C540 1.390 . S
C536 C530 1.465 . S
C536 C535 1.396 . S
C536 C537 1.399 . S
C537 H523 0.929 . S
C537 C536 1.399 . S
C537 C538 1.385 . S
C538 H524 0.931 . S
C538 C537 1.385 . S
C538 C539 1.389 . S
C539 C538 1.389 . S
C539 C540 1.387 . S
C540 H525 0.930 . S
C540 C535 1.390 . S
C540 C539 1.387 . S
H541 C553 0.930 . S
H542 C555 0.930 . S
H543 C556 0.930 . S
H544 C560 0.959 . S
H545 C560 0.959 . S
H546 C560 0.961 . S
H547 C561 0.960 . S
H548 C561 0.961 . S
H549 C561 0.959 . S
H550 C564 0.929 . S
H551 C565 0.931 . S
H552 C567 0.930 . S
C553 H541 0.930 . S
C553 C554 1.399 . S
C553 C558 1.399 . S
C554 C553 1.399 . S
C554 C555 1.376 . S
C555 H542 0.930 . S
C555 C554 1.376 . S
C555 C556 1.388 . S
C556 H543 0.930 . S
C556 C555 1.388 . S
C556 C557 1.390 . S
C557 C556 1.390 . S
C557 C558 1.394 . S
C557 C563 1.465 . S
C558 C553 1.399 . S
C558 C557 1.394 . S
C558 C559 1.516 . S
C559 C558 1.516 . S
C559 C560 1.502 . S
C559 C561 1.561 . S
C559 C562 1.526 . S
C560 H544 0.959 . S
C560 H545 0.959 . S
C560 H546 0.961 . S
C560 C559 1.502 . S
C561 H547 0.960 . S
C561 H548 0.961 . S
C561 H549 0.959 . S
C561 C559 1.561 . S
C562 C559 1.526 . S
C562 C563 1.396 . S
C562 C567 1.390 . S
C563 C557 1.465 . S
C563 C562 1.396 . S
C563 C564 1.399 . S
C564 H550 0.929 . S
C564 C563 1.399 . S
C564 C565 1.385 . S
C565 H551 0.931 . S
C565 C564 1.385 . S
C565 C566 1.389 . S
C566 C565 1.389 . S
C566 C567 1.387 . S
C567 H552 0.930 . S
C567 C562 1.390 . S
C567 C566 1.387 . S
H568 C580 0.930 . S
H569 C582 0.930 . S
H570 C583 0.930 . S
H571 C587 0.959 . S
H572 C587 0.959 . S
H573 C587 0.961 . S
H574 C588 0.960 . S
H575 C588 0.961 . S
H576 C588 0.959 . S
H577 C591 0.929 . S
H578 C592 0.931 . S
H579 C594 0.930 . S
C580 H568 0.930 . S
C580 C581 1.399 . S
C580 C585 1.399 . S
C581 C580 1.399 . S
C581 C582 1.376 . S
C582 H569 0.930 . S
C582 C581 1.376 . S
C582 C583 1.388 . S
C583 H570 0.930 . S
C583 C582 1.388 . S
C583 C584 1.390 . S
C584 C583 1.390 . S
C584 C585 1.394 . S
C584 C590 1.465 . S
C585 C580 1.399 . S
C585 C584 1.394 . S
C585 C586 1.516 . S
C586 C585 1.516 . S
C586 C587 1.502 . S
C586 C588 1.561 . S
C586 C589 1.526 . S
C587 H571 0.959 . S
C587 H572 0.959 . S
C587 H573 0.961 . S
C587 C586 1.502 . S
C588 H574 0.960 . S
C588 H575 0.961 . S
C588 H576 0.959 . S
C588 C586 1.561 . S
C589 C586 1.526 . S
C589 C590 1.396 . S
C589 C594 1.390 . S
C590 C584 1.465 . S
C590 C589 1.396 . S
C590 C591 1.399 . S
C591 H577 0.929 . S
C591 C590 1.399 . S
C591 C592 1.385 . S
C592 H578 0.931 . S
C592 C591 1.385 . S
C592 C593 1.389 . S
C593 C592 1.389 . S
C593 C594 1.387 . S
C594 H579 0.930 . S
C594 C589 1.390 . S
C594 C593 1.387 . S
H595 C607 0.930 . S
H596 C609 0.930 . S
H597 C610 0.930 . S
H598 C614 0.959 . S
H599 C614 0.959 . S
H600 C614 0.961 . S
H601 C615 0.960 . S
H602 C615 0.961 . S
H603 C615 0.959 . S
H604 C618 0.929 . S
H605 C619 0.931 . S
H606 C621 0.930 . S
C607 H595 0.930 . S
C607 C608 1.399 . S
C607 C612 1.399 . S
C608 C607 1.399 . S
C608 C609 1.376 . S
C609 H596 0.930 . S
C609 C608 1.376 . S
C609 C610 1.388 . S
C610 H597 0.930 . S
C610 C609 1.388 . S
C610 C611 1.390 . S
C611 C610 1.390 . S
C611 C612 1.394 . S
C611 C617 1.465 . S
C612 C607 1.399 . S
C612 C611 1.394 . S
C612 C613 1.516 . S
C613 C612 1.516 . S
C613 C614 1.502 . S
C613 C615 1.561 . S
C613 C616 1.526 . S
C614 H598 0.959 . S
C614 H599 0.959 . S
C614 H600 0.961 . S
C614 C613 1.502 . S
C615 H601 0.960 . S
C615 H602 0.961 . S
C615 H603 0.959 . S
C615 C613 1.561 . S
C616 C613 1.526 . S
C616 C617 1.396 . S
C616 C621 1.390 . S
C617 C611 1.465 . S
C617 C616 1.396 . S
C617 C618 1.399 . S
C618 H604 0.929 . S
C618 C617 1.399 . S
C618 C619 1.385 . S
C619 H605 0.931 . S
C619 C618 1.385 . S
C619 C620 1.389 . S
C620 C619 1.389 . S
C620 C621 1.387 . S
C621 H606 0.930 . S
C621 C616 1.390 . S
C621 C620 1.387 . S
H622 C634 0.930 . S
H623 C636 0.930 . S
H624 C637 0.930 1_545 S
H625 C641 0.959 . S
H626 C641 0.959 . S
H627 C641 0.961 . S
H628 C642 0.960 . S
H629 C642 0.961 . S
H630 C642 0.959 . S
H631 C645 0.929 . S
H632 C646 0.931 . S
H633 C648 0.930 . S
C634 H622 0.930 . S
C634 C635 1.399 . S
C634 C639 1.399 . S
C635 C634 1.399 . S
C635 C636 1.376 . S
C636 H623 0.930 . S
C636 C635 1.376 . S
C636 C637 1.388 . S
C637 H624 0.930 1_565 S
C637 C636 1.388 . S
C637 C638 1.390 . S
C638 C637 1.390 . S
C638 C639 1.394 . S
C638 C644 1.465 1_565 S
C639 C634 1.399 . S
C639 C638 1.394 . S
C639 C640 1.516 . S
C640 C639 1.516 . S
C640 C641 1.502 . S
C640 C642 1.561 . S
C640 C643 1.526 1_565 S
C641 H625 0.959 . S
C641 H626 0.959 . S
C641 H627 0.961 . S
C641 C640 1.502 . S
C642 H628 0.960 . S
C642 H629 0.961 . S
C642 H630 0.959 . S
C642 C640 1.561 . S
C643 C640 1.526 1_545 S
C643 C644 1.396 . S
C643 C648 1.390 . S
C644 C638 1.465 1_545 S
C644 C643 1.396 . S
C644 C645 1.399 . S
C645 H631 0.929 . S
C645 C644 1.399 . S
C645 C646 1.385 . S
C646 H632 0.931 . S
C646 C645 1.385 . S
C646 C647 1.389 . S
C647 C646 1.389 . S
C647 C648 1.387 . S
C648 H633 0.930 . S
C648 C643 1.390 . S
C648 C647 1.387 . S
H649 C661 0.930 . S
H650 C663 0.930 . S
H651 C664 0.930 . S
H652 C668 0.959 . S
H653 C668 0.959 . S
H654 C668 0.961 . S
H655 C669 0.960 . S
H656 C669 0.961 . S
H657 C669 0.959 . S
H658 C672 0.929 . S
H659 C673 0.931 . S
H660 C675 0.930 . S
C661 H649 0.930 . S
C661 C662 1.399 . S
C661 C666 1.399 . S
C662 C661 1.399 . S
C662 C663 1.376 . S
C663 H650 0.930 . S
C663 C662 1.376 . S
C663 C664 1.388 . S
C664 H651 0.930 . S
C664 C663 1.388 . S
C664 C665 1.390 . S
C665 C664 1.390 . S
C665 C666 1.394 . S
C665 C671 1.465 . S
C666 C661 1.399 . S
C666 C665 1.394 . S
C666 C667 1.516 . S
C667 C666 1.516 . S
C667 C668 1.502 . S
C667 C669 1.561 . S
C667 C670 1.526 . S
C668 H652 0.959 . S
C668 H653 0.959 . S
C668 H654 0.961 . S
C668 C667 1.502 . S
C669 H655 0.960 . S
C669 H656 0.961 . S
C669 H657 0.959 . S
C669 C667 1.561 . S
C670 C667 1.526 . S
C670 C671 1.396 . S
C670 C675 1.390 . S
C671 C665 1.465 . S
C671 C670 1.396 . S
C671 C672 1.399 . S
C672 H658 0.929 . S
C672 C671 1.399 . S
C672 C673 1.385 . S
C673 H659 0.931 . S
C673 C672 1.385 . S
C673 C674 1.389 . S
C674 C673 1.389 . S
C674 C675 1.387 . S
C675 H660 0.930 . S
C675 C670 1.390 . S
C675 C674 1.387 . S
H676 C688 0.930 . S
H677 C690 0.930 . S
H678 C691 0.930 . S
H679 C695 0.959 . S
H680 C695 0.959 . S
H681 C695 0.961 . S
H682 C696 0.960 . S
H683 C696 0.961 . S
H684 C696 0.959 . S
H685 C699 0.929 . S
H686 C700 0.931 . S
H687 C702 0.930 . S
C688 H676 0.930 . S
C688 C689 1.399 . S
C688 C693 1.399 . S
C689 C688 1.399 . S
C689 C690 1.376 . S
C690 H677 0.930 . S
C690 C689 1.376 . S
C690 C691 1.388 . S
C691 H678 0.930 . S
C691 C690 1.388 . S
C691 C692 1.390 . S
C692 C691 1.390 . S
C692 C693 1.394 . S
C692 C698 1.465 . S
C693 C688 1.399 . S
C693 C692 1.394 . S
C693 C694 1.516 . S
C694 C693 1.516 . S
C694 C695 1.502 . S
C694 C696 1.561 . S
C694 C697 1.526 . S
C695 H679 0.959 . S
C695 H680 0.959 . S
C695 H681 0.961 . S
C695 C694 1.502 . S
C696 H682 0.960 . S
C696 H683 0.961 . S
C696 H684 0.959 . S
C696 C694 1.561 . S
C697 C694 1.526 . S
C697 C698 1.396 . S
C697 C702 1.390 . S
C698 C692 1.465 . S
C698 C697 1.396 . S
C698 C699 1.399 . S
C699 H685 0.929 . S
C699 C698 1.399 . S
C699 C700 1.385 . S
C700 H686 0.931 . S
C700 C699 1.385 . S
C700 C701 1.389 . S
C701 C700 1.389 . S
C701 C702 1.387 . S
C702 H687 0.930 . S
C702 C697 1.390 . S
C702 C701 1.387 . S
H703 C715 0.930 . S
H704 C717 0.930 . S
H705 C718 0.930 . S
H706 C722 0.959 . S
H707 C722 0.959 . S
H708 C722 0.961 . S
H709 C723 0.960 . S
H710 C723 0.961 . S
H711 C723 0.959 . S
H712 C726 0.929 . S
H713 C727 0.931 . S
H714 C729 0.930 . S
C715 H703 0.930 . S
C715 C716 1.399 . S
C715 C720 1.399 . S
C716 C715 1.399 . S
C716 C717 1.376 . S
C717 H704 0.930 . S
C717 C716 1.376 . S
C717 C718 1.388 . S
C718 H705 0.930 . S
C718 C717 1.388 . S
C718 C719 1.390 . S
C719 C718 1.390 . S
C719 C720 1.394 . S
C719 C725 1.465 . S
C720 C715 1.399 . S
C720 C719 1.394 . S
C720 C721 1.516 . S
C721 C720 1.516 . S
C721 C722 1.502 . S
C721 C723 1.561 . S
C721 C724 1.526 . S
C722 H706 0.959 . S
C722 H707 0.959 . S
C722 H708 0.961 . S
C722 C721 1.502 . S
C723 H709 0.960 . S
C723 H710 0.961 . S
C723 H711 0.959 . S
C723 C721 1.561 . S
C724 C721 1.526 . S
C724 C725 1.396 . S
C724 C729 1.390 . S
C725 C719 1.465 . S
C725 C724 1.396 . S
C725 C726 1.399 . S
C726 H712 0.929 . S
C726 C725 1.399 . S
C726 C727 1.385 . S
C727 H713 0.931 . S
C727 C726 1.385 . S
C727 C728 1.389 . S
C728 C727 1.389 . S
C728 C729 1.387 . S
C729 H714 0.930 . S
C729 C724 1.390 . S
C729 C728 1.387 . S
H730 C742 0.930 . S
H731 C744 0.930 . S
H732 C745 0.930 . S
H733 C749 0.959 . S
H734 C749 0.959 . S
H735 C749 0.961 . S
H736 C750 0.960 . S
H737 C750 0.961 . S
H738 C750 0.959 . S
H739 C753 0.929 . S
H740 C754 0.931 . S
H741 C756 0.930 . S
C742 H730 0.930 . S
C742 C743 1.399 . S
C742 C747 1.399 . S
C743 C742 1.399 . S
C743 C744 1.376 . S
C744 H731 0.930 . S
C744 C743 1.376 . S
C744 C745 1.388 . S
C745 H732 0.930 . S
C745 C744 1.388 . S
C745 C746 1.390 . S
C746 C745 1.390 . S
C746 C747 1.394 . S
C746 C752 1.465 . S
C747 C742 1.399 . S
C747 C746 1.394 . S
C747 C748 1.516 . S
C748 C747 1.516 . S
C748 C749 1.502 . S
C748 C750 1.561 . S
C748 C751 1.526 . S
C749 H733 0.959 . S
C749 H734 0.959 . S
C749 H735 0.961 . S
C749 C748 1.502 . S
C750 H736 0.960 . S
C750 H737 0.961 . S
C750 H738 0.959 . S
C750 C748 1.561 . S
C751 C748 1.526 . S
C751 C752 1.396 . S
C751 C756 1.390 . S
C752 C746 1.465 . S
C752 C751 1.396 . S
C752 C753 1.399 . S
C753 H739 0.929 . S
C753 C752 1.399 . S
C753 C754 1.385 . S
C754 H740 0.931 . S
C754 C753 1.385 . S
C754 C755 1.389 . S
C755 C754 1.389 . S
C755 C756 1.387 . S
C756 H741 0.930 . S
C756 C751 1.390 . S
C756 C755 1.387 . S
H757 C769 0.930 . S
H758 C771 0.930 . S
H759 C772 0.930 . S
H760 C776 0.959 . S
H761 C776 0.959 . S
H762 C776 0.961 . S
H763 C777 0.960 . S
H764 C777 0.961 . S
H765 C777 0.959 . S
H766 C780 0.929 . S
H767 C781 0.931 . S
H768 C783 0.930 . S
C769 H757 0.930 . S
C769 C770 1.399 . S
C769 C774 1.399 . S
C770 C769 1.399 . S
C770 C771 1.376 . S
C771 H758 0.930 . S
C771 C770 1.376 . S
C771 C772 1.388 . S
C772 H759 0.930 . S
C772 C771 1.388 . S
C772 C773 1.390 . S
C773 C772 1.390 . S
C773 C774 1.394 . S
C773 C779 1.465 . S
C774 C769 1.399 . S
C774 C773 1.394 . S
C774 C775 1.516 . S
C775 C774 1.516 . S
C775 C776 1.502 . S
C775 C777 1.561 . S
C775 C778 1.526 . S
C776 H760 0.959 . S
C776 H761 0.959 . S
C776 H762 0.961 . S
C776 C775 1.502 . S
C777 H763 0.960 . S
C777 H764 0.961 . S
C777 H765 0.959 . S
C777 C775 1.561 . S
C778 C775 1.526 . S
C778 C779 1.396 . S
C778 C783 1.390 . S
C779 C773 1.465 . S
C779 C778 1.396 . S
C779 C780 1.399 . S
C780 H766 0.929 . S
C780 C779 1.399 . S
C780 C781 1.385 . S
C781 H767 0.931 . S
C781 C780 1.385 . S
C781 C782 1.389 . S
C782 C781 1.389 . S
C782 C783 1.387 . S
C783 H768 0.930 . S
C783 C778 1.390 . S
C783 C782 1.387 . S
H784 C796 0.930 . S
H785 C798 0.930 . S
H786 C799 0.930 . S
H787 C803 0.959 . S
H788 C803 0.959 . S
H789 C803 0.961 . S
H790 C804 0.960 . S
H791 C804 0.961 . S
H792 C804 0.959 . S
H793 C807 0.929 . S
H794 C808 0.931 . S
H795 C810 0.930 . S
C796 H784 0.930 . S
C796 C797 1.399 . S
C796 C801 1.399 . S
C797 C796 1.399 . S
C797 C798 1.376 . S
C798 H785 0.930 . S
C798 C797 1.376 . S
C798 C799 1.388 . S
C799 H786 0.930 . S
C799 C798 1.388 . S
C799 C800 1.390 . S
C800 C799 1.390 . S
C800 C801 1.394 . S
C800 C806 1.465 . S
C801 C796 1.399 . S
C801 C800 1.394 . S
C801 C802 1.516 . S
C802 C801 1.516 . S
C802 C803 1.502 . S
C802 C804 1.561 . S
C802 C805 1.526 . S
C803 H787 0.959 . S
C803 H788 0.959 . S
C803 H789 0.961 . S
C803 C802 1.502 . S
C804 H790 0.960 . S
C804 H791 0.961 . S
C804 H792 0.959 . S
C804 C802 1.561 . S
C805 C802 1.526 . S
C805 C806 1.396 . S
C805 C810 1.390 . S
C806 C800 1.465 . S
C806 C805 1.396 . S
C806 C807 1.399 . S
C807 H793 0.929 . S
C807 C806 1.399 . S
C807 C808 1.385 . S
C808 H794 0.931 . S
C808 C807 1.385 . S
C808 C809 1.389 . S
C809 C808 1.389 . S
C809 C810 1.387 . S
C810 H795 0.930 . S
C810 C805 1.390 . S
C810 C809 1.387 . S
H811 C823 0.930 . S
H812 C825 0.930 . S
H813 C826 0.930 . S
H814 C830 0.959 . S
H815 C830 0.959 . S
H816 C830 0.961 . S
H817 C831 0.960 . S
H818 C831 0.961 . S
H819 C831 0.959 . S
H820 C834 0.929 . S
H821 C835 0.931 . S
H822 C837 0.930 . S
C823 H811 0.930 . S
C823 C824 1.399 . S
C823 C828 1.399 . S
C824 C823 1.399 . S
C824 C825 1.376 . S
C825 H812 0.930 . S
C825 C824 1.376 . S
C825 C826 1.388 . S
C826 H813 0.930 . S
C826 C825 1.388 . S
C826 C827 1.390 . S
C827 C826 1.390 . S
C827 C828 1.394 . S
C827 C833 1.465 . S
C828 C823 1.399 . S
C828 C827 1.394 . S
C828 C829 1.516 . S
C829 C828 1.516 . S
C829 C830 1.502 . S
C829 C831 1.561 . S
C829 C832 1.526 . S
C830 H814 0.959 . S
C830 H815 0.959 . S
C830 H816 0.961 . S
C830 C829 1.502 . S
C831 H817 0.960 . S
C831 H818 0.961 . S
C831 H819 0.959 . S
C831 C829 1.561 . S
C832 C829 1.526 . S
C832 C833 1.396 . S
C832 C837 1.390 . S
C833 C827 1.465 . S
C833 C832 1.396 . S
C833 C834 1.399 . S
C834 H820 0.929 . S
C834 C833 1.399 . S
C834 C835 1.385 . S
C835 H821 0.931 . S
C835 C834 1.385 . S
C835 C836 1.389 . S
C836 C835 1.389 . S
C836 C837 1.387 . S
C837 H822 0.930 . S
C837 C832 1.390 . S
C837 C836 1.387 . S
H838 C850 0.930 . S
H839 C852 0.930 . S
H840 C853 0.930 . S
H841 C857 0.959 . S
H842 C857 0.959 . S
H843 C857 0.961 . S
H844 C858 0.960 . S
H845 C858 0.961 . S
H846 C858 0.959 . S
H847 C861 0.929 . S
H848 C862 0.931 . S
H849 C864 0.930 . S
C850 H838 0.930 . S
C850 C851 1.399 . S
C850 C855 1.399 . S
C851 C850 1.399 . S
C851 C852 1.376 . S
C852 H839 0.930 . S
C852 C851 1.376 . S
C852 C853 1.388 . S
C853 H840 0.930 . S
C853 C852 1.388 . S
C853 C854 1.390 . S
C854 C853 1.390 . S
C854 C855 1.394 . S
C854 C860 1.465 . S
C855 C850 1.399 . S
C855 C854 1.394 . S
C855 C856 1.516 . S
C856 C855 1.516 . S
C856 C857 1.502 . S
C856 C858 1.561 . S
C856 C859 1.526 . S
C857 H841 0.959 . S
C857 H842 0.959 . S
C857 H843 0.961 . S
C857 C856 1.502 . S
C858 H844 0.960 . S
C858 H845 0.961 . S
C858 H846 0.959 . S
C858 C856 1.561 . S
C859 C856 1.526 . S
C859 C860 1.396 . S
C859 C864 1.390 . S
C860 C854 1.465 . S
C860 C859 1.396 . S
C860 C861 1.399 . S
C861 H847 0.929 . S
C861 C860 1.399 . S
C861 C862 1.385 . S
C862 H848 0.931 . S
C862 C861 1.385 . S
C862 C863 1.389 . S
C863 C862 1.389 . S
C863 C864 1.387 . S
C864 H849 0.930 . S
C864 C859 1.390 . S
C864 C863 1.387 . S
H865 C877 0.930 . S
H866 C879 0.930 . S
H867 C880 0.930 . S
H868 C884 0.959 . S
H869 C884 0.959 . S
H870 C884 0.961 . S
H871 C885 0.960 . S
H872 C885 0.961 . S
H873 C885 0.959 . S
H874 C888 0.929 . S
H875 C889 0.931 . S
H876 C891 0.930 . S
C877 H865 0.930 . S
C877 C878 1.399 . S
C877 C882 1.399 . S
C878 C877 1.399 . S
C878 C879 1.376 . S
C879 H866 0.930 . S
C879 C878 1.376 . S
C879 C880 1.388 . S
C880 H867 0.930 . S
C880 C879 1.388 . S
C880 C881 1.390 . S
C881 C880 1.390 . S
C881 C882 1.394 . S
C881 C887 1.465 . S
C882 C877 1.399 . S
C882 C881 1.394 . S
C882 C883 1.516 . S
C883 C882 1.516 . S
C883 C884 1.502 . S
C883 C885 1.561 . S
C883 C886 1.526 . S
C884 H868 0.959 . S
C884 H869 0.959 . S
C884 H870 0.961 . S
C884 C883 1.502 . S
C885 H871 0.960 . S
C885 H872 0.961 . S
C885 H873 0.959 . S
C885 C883 1.561 . S
C886 C883 1.526 . S
C886 C887 1.396 . S
C886 C891 1.390 . S
C887 C881 1.465 . S
C887 C886 1.396 . S
C887 C888 1.399 . S
C888 H874 0.929 . S
C888 C887 1.399 . S
C888 C889 1.385 . S
C889 H875 0.931 . S
C889 C888 1.385 . S
C889 C890 1.389 . S
C890 C889 1.389 . S
C890 C891 1.387 . S
C891 H876 0.930 . S
C891 C886 1.390 . S
C891 C890 1.387 . S
H892 C904 0.930 . S
H893 C906 0.930 . S
H894 C907 0.930 . S
H895 C911 0.959 . S
H896 C911 0.959 . S
H897 C911 0.961 . S
H898 C912 0.960 . S
H899 C912 0.961 . S
H900 C912 0.959 . S
H901 C915 0.929 . S
H902 C916 0.931 . S
H903 C918 0.930 . S
C904 H892 0.930 . S
C904 C905 1.399 . S
C904 C909 1.399 . S
C905 C904 1.399 . S
C905 C906 1.376 . S
C906 H893 0.930 . S
C906 C905 1.376 . S
C906 C907 1.388 . S
C907 H894 0.930 . S
C907 C906 1.388 . S
C907 C908 1.390 . S
C908 C907 1.390 . S
C908 C909 1.394 . S
C908 C914 1.465 . S
C909 C904 1.399 . S
C909 C908 1.394 . S
C909 C910 1.516 . S
C910 C909 1.516 . S
C910 C911 1.502 . S
C910 C912 1.561 . S
C910 C913 1.526 . S
C911 H895 0.959 . S
C911 H896 0.959 . S
C911 H897 0.961 . S
C911 C910 1.502 . S
C912 H898 0.960 . S
C912 H899 0.961 . S
C912 H900 0.959 . S
C912 C910 1.561 . S
C913 C910 1.526 . S
C913 C914 1.396 . S
C913 C918 1.390 . S
C914 C908 1.465 . S
C914 C913 1.396 . S
C914 C915 1.399 . S
C915 H901 0.929 . S
C915 C914 1.399 . S
C915 C916 1.385 . S
C916 H902 0.931 . S
C916 C915 1.385 . S
C916 C917 1.389 . S
C917 C916 1.389 . S
C917 C918 1.387 . S
C918 H903 0.930 . S
C918 C913 1.390 . S
C918 C917 1.387 . S
H919 C931 0.930 . S
H920 C933 0.930 . S
H921 C934 0.930 . S
H922 C938 0.959 . S
H923 C938 0.959 . S
H924 C938 0.961 . S
H925 C939 0.960 . S
H926 C939 0.961 . S
H927 C939 0.959 . S
H928 C942 0.929 . S
H929 C943 0.931 . S
H930 C945 0.930 . S
C931 H919 0.930 . S
C931 C932 1.399 . S
C931 C936 1.399 . S
C932 C931 1.399 . S
C932 C933 1.376 . S
C933 H920 0.930 . S
C933 C932 1.376 . S
C933 C934 1.388 . S
C934 H921 0.930 . S
C934 C933 1.388 . S
C934 C935 1.390 . S
C935 C934 1.390 . S
C935 C936 1.394 . S
C935 C941 1.465 . S
C936 C931 1.399 . S
C936 C935 1.394 . S
C936 C937 1.516 . S
C937 C936 1.516 . S
C937 C938 1.502 . S
C937 C939 1.561 . S
C937 C940 1.526 . S
C938 H922 0.959 . S
C938 H923 0.959 . S
C938 H924 0.961 . S
C938 C937 1.502 . S
C939 H925 0.960 . S
C939 H926 0.961 . S
C939 H927 0.959 . S
C939 C937 1.561 . S
C940 C937 1.526 . S
C940 C941 1.396 . S
C940 C945 1.390 . S
C941 C935 1.465 . S
C941 C940 1.396 . S
C941 C942 1.399 . S
C942 H928 0.929 . S
C942 C941 1.399 . S
C942 C943 1.385 . S
C943 H929 0.931 . S
C943 C942 1.385 . S
C943 C944 1.389 . S
C944 C943 1.389 . S
C944 C945 1.387 . S
C945 H930 0.930 . S
C945 C940 1.390 . S
C945 C944 1.387 . S
H946 C958 0.930 . S
H947 C960 0.930 . S
H948 C961 0.930 . S
H949 C965 0.959 . S
H950 C965 0.959 . S
H951 C965 0.961 . S
H952 C966 0.960 . S
H953 C966 0.961 . S
H954 C966 0.959 . S
H955 C969 0.929 . S
H956 C970 0.931 . S
H957 C972 0.930 . S
C958 H946 0.930 . S
C958 C959 1.399 . S
C958 C963 1.399 . S
C959 C958 1.399 . S
C959 C960 1.376 . S
C960 H947 0.930 . S
C960 C959 1.376 . S
C960 C961 1.388 . S
C961 H948 0.930 . S
C961 C960 1.388 . S
C961 C962 1.390 . S
C962 C961 1.390 . S
C962 C963 1.394 . S
C962 C968 1.465 . S
C963 C958 1.399 . S
C963 C962 1.394 . S
C963 C964 1.516 . S
C964 C963 1.516 . S
C964 C965 1.502 . S
C964 C966 1.561 . S
C964 C967 1.526 . S
C965 H949 0.959 . S
C965 H950 0.959 . S
C965 H951 0.961 . S
C965 C964 1.502 . S
C966 H952 0.960 . S
C966 H953 0.961 . S
C966 H954 0.959 . S
C966 C964 1.561 . S
C967 C964 1.526 . S
C967 C968 1.396 . S
C967 C972 1.390 . S
C968 C962 1.465 . S
C968 C967 1.396 . S
C968 C969 1.399 . S
C969 H955 0.929 . S
C969 C968 1.399 . S
C969 C970 1.385 . S
C970 H956 0.931 . S
C970 C969 1.385 . S
C970 C971 1.389 . S
C971 C970 1.389 . S
C971 C972 1.387 . S
C972 H957 0.930 . S
C972 C967 1.390 . S
C972 C971 1.387 . S
H973 C985 0.930 . S
H974 C987 0.930 . S
H975 C988 0.930 . S
H976 C992 0.959 . S
H977 C992 0.959 . S
H978 C992 0.961 . S
H979 C993 0.960 . S
H980 C993 0.961 . S
H981 C993 0.959 . S
H982 C996 0.929 . S
H983 C997 0.931 . S
H984 C999 0.930 . S
C985 H973 0.930 . S
C985 C986 1.399 . S
C985 C990 1.399 . S
C986 C985 1.399 . S
C986 C987 1.376 . S
C987 H974 0.930 . S
C987 C986 1.376 . S
C987 C988 1.388 . S
C988 H975 0.930 . S
C988 C987 1.388 . S
C988 C989 1.390 . S
C989 C988 1.390 . S
C989 C990 1.394 . S
C989 C995 1.465 . S
C990 C985 1.399 . S
C990 C989 1.394 . S
C990 C991 1.516 . S
C991 C990 1.516 . S
C991 C992 1.502 . S
C991 C993 1.561 . S
C991 C994 1.526 . S
C992 H976 0.959 . S
C992 H977 0.959 . S
C992 H978 0.961 . S
C992 C991 1.502 . S
C993 H979 0.960 . S
C993 H980 0.961 . S
C993 H981 0.959 . S
C993 C991 1.561 . S
C994 C991 1.526 . S
C994 C995 1.396 . S
C994 C999 1.390 . S
C995 C989 1.465 . S
C995 C994 1.396 . S
C995 C996 1.399 . S
C996 H982 0.929 . S
C996 C995 1.399 . S
C996 C997 1.385 . S
C997 H983 0.931 . S
C997 C996 1.385 . S
C997 C998 1.389 . S
C998 C997 1.389 . S
C998 C999 1.387 . S
C999 H984 0.930 . S
C999 C994 1.390 . S
C999 C998 1.387 . S
H1000 C1012 0.930 . S
H1001 C1014 0.930 . S
H1002 C1015 0.930 . S
H1003 C1019 0.959 . S
H1004 C1019 0.959 . S
H1005 C1019 0.961 . S
H1006 C1020 0.960 . S
H1007 C1020 0.961 . S
H1008 C1020 0.959 . S
H1009 C1023 0.929 . S
H1010 C1024 0.931 . S
H1011 C1026 0.935 1_565 S
C1012 H1000 0.930 . S
C1012 C1013 1.399 . S
C1012 C1017 1.399 . S
C1013 C1012 1.399 . S
C1013 C1014 1.376 . S
C1014 H1001 0.930 . S
C1014 C1013 1.376 . S
C1014 C1015 1.388 . S
C1015 H1002 0.930 . S
C1015 C1014 1.388 . S
C1015 C1016 1.390 . S
C1016 C1015 1.390 . S
C1016 C1017 1.394 . S
C1016 C1022 1.465 . S
C1017 C1012 1.399 . S
C1017 C1016 1.394 . S
C1017 C1018 1.516 . S
C1018 C1017 1.516 . S
C1018 C1019 1.502 . S
C1018 C1020 1.561 . S
C1018 C1021 1.526 . S
C1019 H1003 0.959 . S
C1019 H1004 0.959 . S
C1019 H1005 0.961 . S
C1019 C1018 1.502 . S
C1020 H1006 0.960 . S
C1020 H1007 0.961 . S
C1020 H1008 0.959 . S
C1020 C1018 1.561 . S
C1021 C1018 1.526 . S
C1021 C1022 1.396 . S
C1021 C1026 1.390 1_565 S
C1022 C1016 1.465 . S
C1022 C1021 1.396 . S
C1022 C1023 1.399 1_565 S
C1023 H1009 0.929 . S
C1023 C1022 1.399 1_545 S
C1023 C1024 1.385 . S
C1024 H1010 0.931 . S
C1024 C1023 1.385 . S
C1024 C1025 1.389 . S
C1025 C1024 1.389 . S
C1025 C1026 1.387 . S
C1026 H1011 0.935 1_545 S
C1026 C1021 1.390 1_545 S
C1026 C1025 1.387 . S
H1027 C1039 0.930 . S
H1028 C1041 0.930 . S
H1029 C1042 0.930 . S
H1030 C1046 0.959 . S
H1031 C1046 0.959 . S
H1032 C1046 0.961 . S
H1033 C1047 0.960 . S
H1034 C1047 0.961 . S
H1035 C1047 0.959 . S
H1036 C1050 0.929 . S
H1037 C1051 0.931 . S
H1038 C1053 0.930 . S
C1039 H1027 0.930 . S
C1039 C1040 1.399 . S
C1039 C1044 1.399 . S
C1040 C1039 1.399 . S
C1040 C1041 1.376 . S
C1041 H1028 0.930 . S
C1041 C1040 1.376 . S
C1041 C1042 1.388 . S
C1042 H1029 0.930 . S
C1042 C1041 1.388 . S
C1042 C1043 1.390 . S
C1043 C1042 1.390 . S
C1043 C1044 1.394 . S
C1043 C1049 1.465 . S
C1044 C1039 1.399 . S
C1044 C1043 1.394 . S
C1044 C1045 1.516 . S
C1045 C1044 1.516 . S
C1045 C1046 1.502 . S
C1045 C1047 1.561 . S
C1045 C1048 1.526 . S
C1046 H1030 0.959 . S
C1046 H1031 0.959 . S
C1046 H1032 0.961 . S
C1046 C1045 1.502 . S
C1047 H1033 0.960 . S
C1047 H1034 0.961 . S
C1047 H1035 0.959 . S
C1047 C1045 1.561 . S
C1048 C1045 1.526 . S
C1048 C1049 1.396 . S
C1048 C1053 1.390 . S
C1049 C1043 1.465 . S
C1049 C1048 1.396 . S
C1049 C1050 1.399 . S
C1050 H1036 0.929 . S
C1050 C1049 1.399 . S
C1050 C1051 1.385 . S
C1051 H1037 0.931 . S
C1051 C1050 1.385 . S
C1051 C1052 1.389 . S
C1052 C1051 1.389 . S
C1052 C1053 1.387 . S
C1053 H1038 0.930 . S
C1053 C1048 1.390 . S
C1053 C1052 1.387 . S
C431 C110 1.534 . S
C419 C5 1.340 . S
C458 C179 1.462 . S
C446 C16 1.228 . S
C485 C117 1.692 . S
C473 C30 1.687 . S
C512 C180 1.601 . S
C500 C40 1.582 . S
C539 C233 1.473 . S
C527 C8 1.431 . S
C566 C269 1.472 . S
C554 C18 1.462 . S
C581 C29 1.730 . S
C593 C329 1.741 . S
C620 C392 1.526 . S
C608 C38 1.294 . S
C647 C232 1.408 . S
C635 C19 1.424 . S
C662 C27 1.518 . S
C674 C276 1.633 . S
C701 C322 1.601 . S
C689 C41 1.547 . S
C728 C391 1.539 . S
C716 C7 1.519 . S
C743 C52 1.561 . S
C755 C170 1.561 . S
C782 C127 1.595 1_655 S
C770 C62 1.534 . S
C797 C74 1.398 . S
C809 C163 1.373 . S
C824 C82 1.153 . S
C836 C126 1.401 . S
C863 C338 1.787 . S
C851 C51 1.738 . S
C890 C382 1.571 . S
C878 C60 1.415 . S
C917 C216 1.528 . S
C905 C71 1.181 . S
C932 C84 1.460 . S
C944 C285 1.470 . S
C971 C339 1.664 . S
C959 C63 1.673 . S
C998 C375 1.479 . S
C986 C73 1.464 . S
C1025 C223 1.542 . S
C1013 C85 1.537 . S
C1040 C49 1.434 . S
C1052 C286 1.642 . S
