# Generated by pormake.
# Topology bcu-b, (8,8)-cn, num edge types: 1
# Building blocks:
#     Node 0, Type 0, BuildingBlock: TAGTUT_clean_sbu_3, # of connection points: 8
#     Node 1, Type 1, BuildingBlock: TAGTUT_clean_sbu_3, # of connection points: 8
#     Edge 2, Type (0, 1), BuildingBlock: MIFKUJ_clean_linker_0, # of connection points: 2
#     Edge 3, Type (0, 1), BuildingBlock: MIFKUJ_clean_linker_0, # of connection points: 2
#     Edge 4, Type (0, 1), BuildingBlock: MIFKUJ_clean_linker_0, # of connection points: 2
#     Edge 5, Type (0, 1), BuildingBlock: MIFKUJ_clean_linker_0, # of connection points: 2
#     Edge 6, Type (0, 1), BuildingBlock: MIFKUJ_clean_linker_0, # of connection points: 2
#     Edge 7, Type (0, 1), BuildingBlock: MIFKUJ_clean_linker_0, # of connection points: 2
#     Edge 8, Type (0, 1), BuildingBlock: MIFKUJ_clean_linker_0, # of connection points: 2
#     Edge 9, Type (0, 1), BuildingBlock: MIFKUJ_clean_linker_0, # of connection points: 2
# Relax obj value: 0.016
# Max RMSD: 0.069
# Mean RMSD: 0.069
data_MOF--net-bcu-b--node1-TAGTUT_clean_sbu_3--node2-TAGTUT_clean_sbu_3--edge1-MIFKUJ_clean_linker_0
_symmetry_space_group_name_H-M    P1
_symmetry_Int_Tables_number       1
_symmetry_cell_setting            triclinic
loop_
_symmetry_equiv_pos_as_xyz
'x, y, z'
_cell_length_a     24.500297
_cell_length_b     24.558326
_cell_length_c     26.990696
_cell_angle_alpha  92.026219
_cell_angle_beta   88.224684
_cell_angle_gamma 104.44962
loop_
_atom_site_label
_atom_site_type_symbol
_atom_site_fract_x
_atom_site_fract_y
_atom_site_fract_z
_atom_type_partial_charge
C0 C 0.09482 0.08566 0.03848 0.0
C1 C 0.15065 0.89392 0.05492 0.0
C2 C 0.08891 0.86131 0.90512 0.0
Mg3 Mg 0.9943 0.11491 0.97881 0.0
Mg4 Mg 0.87991 0.01788 0.953 0.0
O5 O 0.95864 0.03967 0.94725 0.0
Mg6 Mg 0.00425 -0.0072 0.97714 0.0
O7 O 0.05456 0.95088 0.00692 0.0
Mg8 Mg 0.12761 0.98489 0.97118 0.0
Mg9 Mg 0.03326 0.87226 0.00537 0.0
C10 C 0.90666 0.90193 0.91857 0.0
O11 O 0.93507 0.95183 0.03341 0.0
O12 O 0.94186 0.15131 0.92273 0.0
O13 O 0.94796 0.8637 0.03331 0.0
O14 O 0.92352 0.1107 0.03834 0.0
O15 O 0.8666 0.08046 0.9041 0.0
O16 O 0.85179 0.0361 0.02617 0.0
O17 O 0.07579 0.02832 0.92163 0.0
O18 O 0.06505 0.11647 0.92253 0.0
C19 C 0.09121 0.07947 0.908 0.0
C20 C 0.89643 0.13091 0.89844 0.0
O21 O 0.95981 0.91938 0.92611 0.0
O22 O 0.1692 0.93765 0.02834 0.0
O23 O 0.87088 0.931 0.92976 0.0
O24 O 0.12053 0.90997 0.91542 0.0
O25 O 0.09993 0.8635 0.05196 0.0
O26 O 0.0468 0.83927 0.93286 0.0
O27 O 0.04275 0.06785 0.02772 0.0
O28 O 0.13186 0.05951 0.02394 0.0
C29 C 0.87567 0.07961 0.05169 0.0
C30 C 0.91907 0.89965 0.04445 0.0
C31 C 0.59792 0.57576 0.54556 0.0
C32 C 0.65233 0.3829 0.52509 0.0
C33 C 0.58223 0.37655 0.37969 0.0
Mg34 Mg 0.49614 0.61778 0.49877 0.0
Mg35 Mg 0.37914 0.52836 0.4656 0.0
O36 O 0.45772 0.54904 0.45913 0.0
Mg37 Mg 0.50343 0.49621 0.47736 0.0
O38 O 0.55432 0.4485 0.49558 0.0
Mg39 Mg 0.62557 0.48815 0.46 0.0
Mg40 Mg 0.53229 0.37075 0.48372 0.0
C41 C 0.40232 0.41874 0.41197 0.0
O42 O 0.43669 0.44543 0.53139 0.0
O43 O 0.44373 0.66522 0.45233 0.0
O44 O 0.44895 0.35778 0.51709 0.0
O45 O 0.42698 0.60414 0.5609 0.0
O46 O 0.36593 0.60018 0.42861 0.0
O47 O 0.35386 0.53328 0.54167 0.0
O48 O 0.57233 0.54068 0.42282 0.0
O49 O 0.56426 0.62843 0.43906 0.0
C50 C 0.58839 0.59381 0.41645 0.0
C51 C 0.39723 0.6506 0.4286 0.0
O52 O 0.4557 0.43338 0.41911 0.0
O53 O 0.66913 0.43119 0.50487 0.0
O54 O 0.36773 0.44652 0.42955 0.0
O55 O 0.61495 0.42304 0.39446 0.0
O56 O 0.6015 0.35288 0.52173 0.0
O57 O 0.54114 0.35065 0.40677 0.0
O58 O 0.5452 0.56107 0.53627 0.0
O59 O 0.63349 0.55245 0.52331 0.0
C60 C 0.37904 0.57152 0.57197 0.0
C61 C 0.42109 0.39173 0.53583 0.0
H62 H 0.18793 0.16943 0.02554 0.0
H63 H 0.2383 0.23 0.09171 0.0
H64 H 0.09753 0.17007 0.19247 0.0
H65 H 0.04636 0.10993 0.1257 0.0
H66 H 0.15844 0.28328 0.21149 0.0
H67 H 0.19262 0.09896 0.18315 0.0
H68 H 0.2176 0.02287 0.13231 0.0
H69 H 0.37941 0.13184 0.09704 0.0
H70 H 0.35506 0.20885 0.14705 0.0
H71 H 0.30523 0.34046 0.4278 0.0
H72 H 0.25162 0.27714 0.36487 0.0
H73 H 0.39088 0.32618 0.2604 0.0
H74 H 0.44548 0.38857 0.32405 0.0
H75 H 0.32909 0.21655 0.24454 0.0
H76 H 0.29589 0.40097 0.26864 0.0
H77 H 0.2735 0.47901 0.3185 0.0
H78 H 0.11233 0.37261 0.35972 0.0
H79 H 0.13421 0.29361 0.31074 0.0
C80 C 0.16687 0.17113 0.06127 0.0
C81 C 0.11393 0.13485 0.07118 0.0
C82 C 0.1957 0.20536 0.09897 0.0
C83 C 0.17213 0.20282 0.14702 0.0
C84 C 0.11638 0.17189 0.15552 0.0
C85 C 0.08713 0.13793 0.11747 0.0
C86 C 0.20844 0.22567 0.18903 0.0
C87 C 0.19531 0.26829 0.2192 0.0
C88 C 0.25701 0.20638 0.19823 0.0
C89 C 0.27179 0.15986 0.16846 0.0
C90 C 0.23335 0.10683 0.16424 0.0
C91 C 0.24744 0.06351 0.13564 0.0
C92 C 0.30005 0.07258 0.11143 0.0
C93 C 0.3387 0.12491 0.11583 0.0
C94 C 0.32479 0.16839 0.1443 0.0
C95 C 0.325 0.33614 0.39188 0.0
C96 C 0.37864 0.36993 0.37997 0.0
C97 C 0.29443 0.30018 0.35608 0.0
C98 C 0.31677 0.29874 0.30779 0.0
C99 C 0.37289 0.32745 0.29748 0.0
C100 C 0.40398 0.3629 0.3337 0.0
C101 C 0.27916 0.27423 0.26697 0.0
C102 C 0.29206 0.23133 0.237 0.0
C103 C 0.2306 0.29351 0.25772 0.0
C104 C 0.21691 0.34125 0.28643 0.0
C105 C 0.25582 0.39413 0.28858 0.0
C106 C 0.24322 0.43853 0.31667 0.0
C107 C 0.19158 0.43073 0.34236 0.0
C108 C 0.15235 0.37856 0.33986 0.0
C109 C 0.16482 0.33396 0.31194 0.0
H110 H 0.18191 0.46515 0.3641 0.0
H111 H 0.31097 0.03908 0.08931 0.0
H112 H 0.90787 0.17692 0.107 0.0
H113 H 0.84979 0.21764 0.16444 0.0
H114 H 0.7135 0.06839 0.14921 0.0
H115 H 0.77118 0.02764 0.09012 0.0
H116 H 0.67465 0.1571 0.13896 0.0
H117 H 0.78511 0.10297 0.25925 0.0
H118 H 0.87044 0.09127 0.29918 0.0
H119 H 0.93261 0.27061 0.31349 0.0
H120 H 0.84803 0.28347 0.27297 0.0
H121 H 0.52948 0.27253 0.34092 0.0
H122 H 0.57149 0.21442 0.28348 0.0
H123 H 0.71619 0.35386 0.26189 0.0
H124 H 0.67485 0.41227 0.31911 0.0
H125 H 0.7421 0.25746 0.29669 0.0
H126 H 0.62858 0.30659 0.1689 0.0
H127 H 0.53865 0.3125 0.13361 0.0
H128 H 0.47637 0.13323 0.14075 0.0
H129 H 0.56574 0.12633 0.17665 0.0
C130 C 0.86597 0.15209 0.11645 0.0
C131 C 0.84413 0.09911 0.09358 0.0
C132 C 0.83274 0.17546 0.14957 0.0
C133 C 0.77724 0.14604 0.16141 0.0
C134 C 0.75612 0.09197 0.1405 0.0
C135 C 0.7893 0.06861 0.10695 0.0
C136 C 0.74062 0.17393 0.19273 0.0
C137 C 0.68893 0.17811 0.17395 0.0
C138 C 0.75917 0.20157 0.23832 0.0
C139 C 0.8103 0.19417 0.26271 0.0
C140 C 0.81715 0.13995 0.27055 0.0
C141 C 0.86537 0.1331 0.29336 0.0
C142 C 0.90696 0.18017 0.30878 0.0
C143 C 0.90036 0.23419 0.30151 0.0
C144 C 0.85224 0.24128 0.27868 0.0
C145 C 0.56951 0.29141 0.32289 0.0
C146 C 0.59924 0.34685 0.33535 0.0
C147 C 0.59346 0.25803 0.29009 0.0
C148 C 0.64726 0.27967 0.26907 0.0
C149 C 0.67484 0.33627 0.27821 0.0
C150 C 0.65092 0.3697 0.31076 0.0
C151 C 0.67759 0.24228 0.24191 0.0
C152 C 0.72782 0.23602 0.26185 0.0
C153 C 0.65706 0.21187 0.19809 0.0
C154 C 0.60365 0.21601 0.17591 0.0
C155 C 0.59556 0.26847 0.16329 0.0
C156 C 0.54472 0.272 0.1431 0.0
C157 C 0.50177 0.2233 0.13506 0.0
C158 C 0.50965 0.17093 0.14703 0.0
C159 C 0.56042 0.16718 0.16724 0.0
H160 H 0.46247 0.22614 0.11942 0.0
H161 H 0.94426 0.17478 0.32644 0.0
H162 H 0.84237 0.80073 0.03164 0.0
H163 H 0.77374 0.75407 0.09359 0.0
H164 H 0.81309 0.9041 0.18731 0.0
H165 H 0.88118 0.95175 0.12433 0.0
H166 H 0.84157 0.80879 0.22467 0.0
H167 H 0.68275 0.85661 0.15822 0.0
H168 H 0.61632 0.86739 0.09473 0.0
H169 H 0.57283 0.68901 0.06542 0.0
H170 H 0.63954 0.67714 0.12832 0.0
H171 H 0.66509 0.69303 0.42516 0.0
H172 H 0.72025 0.74546 0.35807 0.0
H173 H 0.66648 0.60189 0.25835 0.0
H174 H 0.60999 0.54906 0.32601 0.0
H175 H 0.64307 0.69621 0.22408 0.0
H176 H 0.8041 0.6486 0.28821 0.0
H177 H 0.87008 0.63748 0.35199 0.0
H178 H 0.91048 0.81527 0.38438 0.0
H179 H 0.84411 0.8274 0.32129 0.0
C180 C 0.8345 0.82452 0.0645 0.0
C181 C 0.86725 0.87933 0.07384 0.0
C182 C 0.7952 0.79793 0.09974 0.0
C183 C 0.78889 0.8256 0.145 0.0
C184 C 0.81756 0.8823 0.15239 0.0
C185 C 0.85622 0.90942 0.11652 0.0
C186 C 0.76241 0.79167 0.18722 0.0
C187 C 0.79778 0.78509 0.22525 0.0
C188 C 0.70615 0.75906 0.1863 0.0
C189 C 0.66659 0.76604 0.14778 0.0
C190 C 0.65951 0.81971 0.13788 0.0
C191 C 0.62165 0.82601 0.10209 0.0
C192 C 0.59045 0.77893 0.07599 0.0
C193 C 0.59704 0.72544 0.08565 0.0
C194 C 0.63482 0.7189 0.12144 0.0
C195 C 0.66641 0.67206 0.38929 0.0
C196 C 0.63313 0.61737 0.38036 0.0
C197 C 0.69802 0.702 0.35103 0.0
C198 C 0.69719 0.67759 0.30328 0.0
C199 C 0.66737 0.62135 0.29506 0.0
C200 C 0.63573 0.59109 0.33367 0.0
C201 C 0.7223 0.71329 0.26152 0.0
C202 C 0.6868 0.72004 0.22355 0.0
C203 C 0.77863 0.74595 0.26226 0.0
C204 C 0.81873 0.73883 0.30024 0.0
C205 C 0.82669 0.68528 0.3092 0.0
C206 C 0.86425 0.67881 0.34519 0.0
C207 C 0.89437 0.72562 0.37229 0.0
C208 C 0.88709 0.77904 0.36338 0.0
C209 C 0.84956 0.78574 0.32746 0.0
H210 H 0.92343 0.72052 0.40013 0.0
H211 H 0.56109 0.78389 0.04836 0.0
H212 H 0.26425 0.93928 0.07062 0.0
H213 H 0.32114 0.91626 0.13671 0.0
H214 H 0.17609 0.79187 0.18987 0.0
H215 H 0.11957 0.8145 0.12519 0.0
H216 H 0.22904 0.86131 0.26471 0.0
H217 H 0.27918 0.75595 0.12142 0.0
H218 H 0.32026 0.74494 0.03825 0.0
H219 H 0.48081 0.84576 0.08527 0.0
H220 H 0.44035 0.8583 0.16852 0.0
H221 H 0.29217 0.6468 0.39621 0.0
H222 H 0.26548 0.70754 0.33689 0.0
H223 H 0.43724 0.80725 0.32831 0.0
H224 H 0.4645 0.74636 0.38835 0.0
H225 H 0.39027 0.77503 0.23501 0.0
H226 H 0.3445 0.86658 0.38182 0.0
H227 H 0.30477 0.87477 0.46598 0.0
H228 H 0.13828 0.80054 0.41345 0.0
H229 H 0.17707 0.79109 0.32908 0.0
C230 C 0.24464 0.90704 0.09642 0.0
C231 C 0.18721 0.87903 0.09257 0.0
C232 C 0.27721 0.89382 0.13404 0.0
C233 C 0.25276 0.85244 0.16836 0.0
C234 C 0.19579 0.8242 0.16408 0.0
C235 C 0.16354 0.83709 0.1267 0.0
C236 C 0.28507 0.83796 0.20953 0.0
C237 C 0.26438 0.84253 0.25821 0.0
C238 C 0.33262 0.81551 0.20132 0.0
C239 C 0.35647 0.80891 0.15094 0.0
C240 C 0.32302 0.77648 0.11383 0.0
C241 C 0.34624 0.76981 0.06671 0.0
C242 C 0.40303 0.79487 0.0564 0.0
C243 C 0.43675 0.82659 0.09323 0.0
C244 C 0.41368 0.83355 0.14036 0.0
C245 C 0.32426 0.68206 0.38231 0.0
C246 C 0.38046 0.69176 0.39713 0.0
C247 C 0.30887 0.71689 0.34845 0.0
C248 C 0.34929 0.76213 0.32833 0.0
C249 C 0.40537 0.77266 0.34351 0.0
C250 C 0.42075 0.73808 0.37805 0.0
C251 C 0.33242 0.79605 0.28974 0.0
C252 C 0.35599 0.79525 0.24169 0.0
C253 C 0.28755 0.82215 0.29843 0.0
C254 C 0.2638 0.82789 0.3491 0.0
C255 C 0.29945 0.85163 0.38825 0.0
C256 C 0.27709 0.85655 0.436 0.0
C257 C 0.21905 0.83813 0.44507 0.0
C258 C 0.18324 0.81482 0.40637 0.0
C259 C 0.20539 0.80975 0.35854 0.0
H260 H 0.20181 0.84197 0.48206 0.0
H261 H 0.42096 0.78951 0.01994 0.0
H262 H 0.18437 0.88907 0.84701 0.0
H263 H 0.22402 0.8259 0.79365 0.0
H264 H 0.0757 0.69146 0.81882 0.0
H265 H 0.03542 0.75438 0.87295 0.0
H266 H 0.24389 0.72441 0.83166 0.0
H267 H 0.06767 0.60573 0.7074 0.0
H268 H 0.97978 0.61721 0.67181 0.0
H269 H 0.04856 0.79592 0.66811 0.0
H270 H 0.13703 0.7854 0.70319 0.0
H271 H 0.27464 0.5146 0.60694 0.0
H272 H 0.21653 0.54839 0.67029 0.0
H273 H 0.35398 0.69304 0.70014 0.0
H274 H 0.41247 0.6593 0.63815 0.0
H275 H 0.17883 0.63675 0.66861 0.0
H276 H 0.34968 0.74843 0.81175 0.0
H277 H 0.43222 0.72964 0.85136 0.0
H278 H 0.3673 0.55234 0.82363 0.0
H279 H 0.28395 0.5699 0.78453 0.0
C280 C 0.15948 0.84644 0.84059 0.0
C281 C 0.10696 0.82664 0.86485 0.0
C282 C 0.18243 0.81032 0.81026 0.0
C283 C 0.15307 0.75398 0.80292 0.0
C284 C 0.09901 0.73485 0.82423 0.0
C285 C 0.07608 0.77092 0.85504 0.0
C286 C 0.18123 0.71491 0.77571 0.0
C287 C 0.23005 0.70543 0.79582 0.0
C288 C 0.16109 0.68777 0.73049 0.0
C289 C 0.10866 0.69477 0.70844 0.0
C290 C 0.06406 0.64744 0.69884 0.0
C291 C 0.01414 0.65379 0.67878 0.0
C292 C 0.00851 0.70729 0.66784 0.0
C293 C 0.05288 0.75453 0.67679 0.0
C294 C 0.10288 0.7484 0.69686 0.0
C295 C 0.29303 0.55282 0.62798 0.0
C296 C 0.34817 0.58449 0.61712 0.0
C297 C 0.2596 0.57212 0.66408 0.0
C298 C 0.28077 0.62307 0.69025 0.0
C299 C 0.33682 0.65304 0.68128 0.0
C300 C 0.37031 0.63371 0.64551 0.0
C301 C 0.24341 0.64809 0.72342 0.0
C302 C 0.19254 0.65475 0.70477 0.0
C303 C 0.26089 0.67152 0.77072 0.0
C304 C 0.31065 0.66059 0.79489 0.0
C305 C 0.35279 0.70539 0.81438 0.0
C306 C 0.39979 0.69496 0.83668 0.0
C307 C 0.40506 0.63985 0.83991 0.0
C308 C 0.36326 0.59503 0.82097 0.0
C309 C 0.31616 0.60521 0.79867 0.0
H310 H 0.44151 0.63187 0.85714 0.0
H311 H 0.96985 0.71212 0.65231 0.0
H312 H 0.10849 0.0324 0.81804 0.0
H313 H 0.16633 0.08326 0.7503 0.0
H314 H 0.23567 0.22083 0.85224 0.0
H315 H 0.17732 0.17067 0.91934 0.0
H316 H 0.18197 0.25318 0.7766 0.0
H317 H 0.31879 0.14485 0.79663 0.0
H318 H 0.35011 0.0574 0.80246 0.0
H319 H 0.29131 0.00601 0.65577 0.0
H320 H 0.25892 0.09286 0.64931 0.0
H321 H 0.39049 0.43075 0.62536 0.0
H322 H 0.32714 0.37427 0.68652 0.0
H323 H 0.27777 0.23974 0.57696 0.0
H324 H 0.34268 0.2953 0.51656 0.0
H325 H 0.31638 0.20236 0.65333 0.0
H326 H 0.18229 0.31016 0.63069 0.0
H327 H 0.14604 0.39468 0.6244 0.0
H328 H 0.19533 0.44518 0.77368 0.0
H329 H 0.23243 0.36122 0.78075 0.0
C330 C 0.13808 0.0723 0.82617 0.0
C331 C 0.13868 0.09804 0.8734 0.0
C332 C 0.17073 0.10148 0.78755 0.0
C333 C 0.20452 0.1561 0.79632 0.0
C334 C 0.20935 0.179 0.84474 0.0
C335 C 0.17651 0.15021 0.88302 0.0
C336 C 0.22886 0.19238 0.75469 0.0
C337 C 0.21201 0.24257 0.74993 0.0
C338 C 0.26602 0.17712 0.71899 0.0
C339 C 0.28592 0.12511 0.72269 0.0
C340 C 0.31213 0.1147 0.76576 0.0
C341 C 0.33015 0.06528 0.76916 0.0
C342 C 0.32255 0.02609 0.72957 0.0
C343 C 0.29709 0.03636 0.68643 0.0
C344 C 0.27895 0.08571 0.68286 0.0
C345 C 0.36453 0.38995 0.61403 0.0
C346 C 0.37173 0.36675 0.56682 0.0
C347 C 0.32836 0.35766 0.64891 0.0
C348 C 0.29819 0.3025 0.63637 0.0
C349 C 0.3012 0.28187 0.58754 0.0
C350 C 0.33798 0.31365 0.55307 0.0
C351 C 0.2701 0.26382 0.67541 0.0
C352 C 0.28612 0.21304 0.67972 0.0
C353 C 0.23181 0.27837 0.71052 0.0
C354 C 0.21043 0.32948 0.70614 0.0
C355 C 0.18587 0.33952 0.66204 0.0
C356 C 0.16504 0.38726 0.65838 0.0
C357 C 0.16826 0.42516 0.69866 0.0
C358 C 0.19271 0.41566 0.74257 0.0
C359 C 0.21356 0.36795 0.74645 0.0
H360 H 0.15152 0.46173 0.69593 0.0
H361 H 0.33651 0.98784 0.73228 0.0
H362 H 0.94539 0.24081 0.87397 0.0
H363 H 0.91874 0.29359 0.80706 0.0
H364 H 0.78247 0.15078 0.76945 0.0
H365 H 0.80835 0.09806 0.83558 0.0
H366 H 0.84549 0.1939 0.68776 0.0
H367 H 0.75708 0.26229 0.83221 0.0
H368 H 0.75624 0.30808 0.91493 0.0
H369 H 0.86821 0.4589 0.86081 0.0
H370 H 0.87032 0.41366 0.77787 0.0
H371 H 0.63794 0.27724 0.55998 0.0
H372 H 0.69616 0.24511 0.61827 0.0
H373 H 0.81286 0.40875 0.62054 0.0
H374 H 0.75453 0.44149 0.56135 0.0
H375 H 0.78027 0.36851 0.71526 0.0
H376 H 0.8559 0.30445 0.56709 0.0
H377 H 0.85442 0.25888 0.48412 0.0
H378 H 0.76677 0.10056 0.54434 0.0
H379 H 0.76694 0.14532 0.6276 0.0
C380 C 0.90952 0.2208 0.85167 0.0
C381 C 0.8791 0.16509 0.8603 0.0
C382 C 0.89437 0.25104 0.81345 0.0
C383 C 0.84871 0.22602 0.78319 0.0
C384 C 0.81808 0.17079 0.79211 0.0
C385 C 0.83286 0.14079 0.83026 0.0
C386 C 0.8324 0.2564 0.7417 0.0
C387 C 0.83112 0.23203 0.69377 0.0
C388 C 0.81561 0.30726 0.74922 0.0
C389 C 0.81452 0.33433 0.79907 0.0
C390 C 0.78199 0.30501 0.83809 0.0
C391 C 0.78118 0.3309 0.88498 0.0
C392 C 0.81234 0.38629 0.89318 0.0
C393 C 0.84423 0.41594 0.85445 0.0
C394 C 0.84525 0.39021 0.8075 0.0
C395 C 0.67629 0.30642 0.57229 0.0
C396 C 0.69139 0.36216 0.55618 0.0
C397 C 0.70968 0.28785 0.60556 0.0
C398 C 0.75896 0.32447 0.62362 0.0
C399 C 0.77497 0.37985 0.60699 0.0
C400 C 0.74176 0.39838 0.57309 0.0
C401 C 0.7915 0.30482 0.66172 0.0
C402 C 0.79588 0.33114 0.70897 0.0
C403 C 0.81122 0.25571 0.65362 0.0
C404 C 0.81118 0.22838 0.60362 0.0
C405 C 0.83594 0.26 0.56262 0.0
C406 C 0.8354 0.23429 0.51552 0.0
C407 C 0.81045 0.17688 0.50895 0.0
C408 C 0.78609 0.14504 0.54949 0.0
C409 C 0.78648 0.17054 0.59667 0.0
H410 H 0.81007 0.15706 0.47246 0.0
H411 H 0.81162 0.40628 0.92949 0.0
H412 H 0.947 0.86255 0.83351 0.0
H413 H 0.89073 0.79103 0.77759 0.0
H414 H 0.76056 0.74807 0.89128 0.0
H415 H 0.81532 0.82152 0.94601 0.0
H416 H 0.83349 0.68307 0.76748 0.0
H417 H 0.63609 0.74812 0.84245 0.0
H418 H 0.61158 0.82534 0.89219 0.0
H419 H 0.76397 0.93995 0.84149 0.0
H420 H 0.78889 0.86363 0.79095 0.0
H421 H 0.54898 0.5854 0.63655 0.0
H422 H 0.59908 0.63182 0.71017 0.0
H423 H 0.74562 0.70131 0.61841 0.0
H424 H 0.69639 0.65451 0.54545 0.0
H425 H 0.65691 0.74108 0.73905 0.0
H426 H 0.86053 0.68095 0.67211 0.0
H427 H 0.89015 0.60924 0.61896 0.0
H428 H 0.73086 0.4921 0.64688 0.0
H429 H 0.70043 0.563 0.70043 0.0
C430 C 0.90739 0.83623 0.84702 0.0
C431 C 0.88459 0.84777 0.89327 0.0
C432 C 0.87527 0.79548 0.81518 0.0
C433 C 0.82075 0.76583 0.82994 0.0
C434 C 0.80193 0.77166 0.87893 0.0
C435 C 0.83328 0.81325 0.91019 0.0
C436 C 0.7806 0.73712 0.79209 0.0
C437 C 0.79488 0.69562 0.76122 0.0
C438 C 0.72998 0.75344 0.78437 0.0
C439 C 0.7146 0.80003 0.81345 0.0
C440 C 0.66418 0.78987 0.84178 0.0
C441 C 0.65025 0.83346 0.87011 0.0
C442 C 0.68629 0.88746 0.87013 0.0
C443 C 0.73616 0.89808 0.84156 0.0
C444 C 0.7502 0.85468 0.81306 0.0
C445 C 0.59117 0.61219 0.63211 0.0
C446 C 0.61935 0.61609 0.58583 0.0
C447 C 0.61982 0.63817 0.67405 0.0
C448 C 0.67651 0.66818 0.66962 0.0
C449 C 0.70239 0.67689 0.62258 0.0
C450 C 0.67414 0.65067 0.58099 0.0
C451 C 0.71027 0.68762 0.71396 0.0
C452 C 0.69483 0.72754 0.74597 0.0
C453 C 0.76036 0.6706 0.7221 0.0
C454 C 0.77811 0.62743 0.69005 0.0
C455 C 0.83192 0.63982 0.66705 0.0
C456 C 0.84883 0.59935 0.63682 0.0
C457 C 0.81244 0.54618 0.62953 0.0
C458 C 0.75898 0.53336 0.65241 0.0
C459 C 0.74181 0.57374 0.68263 0.0
H460 H 0.82581 0.51499 0.60618 0.0
H461 H 0.67551 0.9211 0.8922 0.0
loop_
_geom_bond_atom_site_label_1
_geom_bond_atom_site_label_2
_geom_bond_distance
_geom_bond_site_symmetry_2
_ccdc_geom_bond_type
C0 O27 1.312 . S
C0 O28 1.208 . S
C1 O22 1.331 . S
C1 O25 1.244 . S
C2 O24 1.264 . S
C2 O26 1.273 . S
Mg3 O5 1.936 . S
Mg3 O12 2.081 . S
Mg3 O14 2.023 1_556 S
Mg3 O18 2.031 1_655 S
Mg3 O27 2.291 1_656 S
Mg4 O5 1.963 . S
Mg4 O15 1.942 . S
Mg4 O16 1.955 1_556 S
Mg4 O23 1.986 1_545 S
O5 Mg3 1.936 . S
O5 Mg4 1.963 . S
O5 Mg6 1.915 1_546 S
Mg6 O5 1.915 1_564 S
Mg6 O7 1.915 1_655 S
Mg6 O11 2.013 . S
Mg6 O17 2.114 1_664 S
Mg6 O21 2.013 1_554 S
Mg6 O27 2.114 1_665 S
O7 Mg6 1.915 1_455 S
O7 Mg8 1.936 . S
O7 Mg9 1.963 . S
Mg8 O7 1.936 . S
Mg8 O17 2.291 1_564 S
Mg8 O22 2.081 . S
Mg8 O24 2.023 1_554 S
Mg8 O28 2.031 1_565 S
Mg9 O7 1.963 . S
Mg9 O13 1.986 1_455 S
Mg9 O25 1.942 . S
Mg9 O26 1.955 1_554 S
C10 O21 1.191 . S
C10 O23 1.307 . S
O11 Mg6 2.013 . S
O11 C30 1.191 . S
O12 Mg3 2.081 . S
O12 C20 1.331 . S
O13 Mg9 1.986 1_655 S
O13 C30 1.307 . S
O14 Mg3 2.023 1_554 S
O14 C29 1.264 . S
O15 Mg4 1.942 . S
O15 C20 1.244 . S
O16 Mg4 1.955 1_554 S
O16 C29 1.273 . S
O17 Mg6 2.114 1_446 S
O17 Mg8 2.291 1_546 S
O17 C19 1.312 . S
O18 Mg3 2.031 1_455 S
O18 C19 1.208 . S
C19 O17 1.312 . S
C19 O18 1.208 . S
C20 O12 1.331 . S
C20 O15 1.244 . S
O21 Mg6 2.013 1_556 S
O21 C10 1.191 . S
O22 C1 1.331 . S
O22 Mg8 2.081 . S
O23 Mg4 1.986 1_565 S
O23 C10 1.307 . S
O24 C2 1.264 . S
O24 Mg8 2.023 1_556 S
O25 C1 1.244 . S
O25 Mg9 1.942 . S
O26 C2 1.273 . S
O26 Mg9 1.955 1_556 S
O27 C0 1.312 . S
O27 Mg3 2.291 1_454 S
O27 Mg6 2.114 1_445 S
O28 C0 1.208 . S
O28 Mg8 2.031 1_545 S
C29 O14 1.264 . S
C29 O16 1.273 . S
C30 O11 1.191 . S
C30 O13 1.307 . S
C31 O58 1.312 . S
C31 O59 1.208 . S
C32 O53 1.331 . S
C32 O56 1.244 . S
C33 O55 1.264 . S
C33 O57 1.273 . S
Mg34 O36 1.936 . S
Mg34 O43 2.081 . S
Mg34 O45 2.023 . S
Mg34 O49 2.031 . S
Mg34 O58 2.291 . S
Mg35 O36 1.963 . S
Mg35 O46 1.942 . S
Mg35 O47 1.955 . S
Mg35 O54 1.986 . S
O36 Mg34 1.936 . S
O36 Mg35 1.963 . S
O36 Mg37 1.915 . S
Mg37 O36 1.915 . S
Mg37 O38 1.915 . S
Mg37 O42 2.013 . S
Mg37 O48 2.114 . S
Mg37 O52 2.013 . S
Mg37 O58 2.114 . S
O38 Mg37 1.915 . S
O38 Mg39 1.936 . S
O38 Mg40 1.963 . S
Mg39 O38 1.936 . S
Mg39 O48 2.291 . S
Mg39 O53 2.081 . S
Mg39 O55 2.023 . S
Mg39 O59 2.031 . S
Mg40 O38 1.963 . S
Mg40 O44 1.986 . S
Mg40 O56 1.942 . S
Mg40 O57 1.955 . S
C41 O52 1.191 . S
C41 O54 1.307 . S
O42 Mg37 2.013 . S
O42 C61 1.191 . S
O43 Mg34 2.081 . S
O43 C51 1.331 . S
O44 Mg40 1.986 . S
O44 C61 1.307 . S
O45 Mg34 2.023 . S
O45 C60 1.264 . S
O46 Mg35 1.942 . S
O46 C51 1.244 . S
O47 Mg35 1.955 . S
O47 C60 1.273 . S
O48 Mg37 2.114 . S
O48 Mg39 2.291 . S
O48 C50 1.312 . S
O49 Mg34 2.031 . S
O49 C50 1.208 . S
C50 O48 1.312 . S
C50 O49 1.208 . S
C51 O43 1.331 . S
C51 O46 1.244 . S
O52 Mg37 2.013 . S
O52 C41 1.191 . S
O53 C32 1.331 . S
O53 Mg39 2.081 . S
O54 Mg35 1.986 . S
O54 C41 1.307 . S
O55 C33 1.264 . S
O55 Mg39 2.023 . S
O56 C32 1.244 . S
O56 Mg40 1.942 . S
O57 C33 1.273 . S
O57 Mg40 1.955 . S
O58 C31 1.312 . S
O58 Mg34 2.291 . S
O58 Mg37 2.114 . S
O59 C31 1.208 . S
O59 Mg39 2.031 . S
C60 O45 1.264 . S
C60 O47 1.273 . S
C61 O42 1.191 . S
C61 O44 1.307 . S
H62 C80 0.951 . S
H63 C82 0.951 . S
H64 C84 0.950 . S
H65 C85 0.950 . S
H66 C87 0.950 . S
H67 C90 0.950 . S
H68 C91 0.950 . S
H69 C93 0.950 . S
H70 C94 0.950 . S
H71 C95 0.951 . S
H72 C97 0.951 . S
H73 C99 0.950 . S
H74 C100 0.950 . S
H75 C102 0.950 . S
H76 C105 0.950 . S
H77 C106 0.950 . S
H78 C108 0.950 . S
H79 C109 0.950 . S
C80 H62 0.951 . S
C80 C81 1.366 . S
C80 C82 1.388 . S
C81 C80 1.366 . S
C81 C85 1.385 . S
C82 H63 0.951 . S
C82 C80 1.388 . S
C82 C83 1.366 . S
C83 C82 1.366 . S
C83 C84 1.414 . S
C83 C86 1.499 . S
C84 H64 0.950 . S
C84 C83 1.414 . S
C84 C85 1.374 . S
C85 H65 0.950 . S
C85 C81 1.385 . S
C85 C84 1.374 . S
C86 C83 1.499 . S
C86 C87 1.373 . S
C86 C88 1.389 . S
C87 H66 0.950 . S
C87 C86 1.373 . S
C87 C103 1.377 . S
C88 C86 1.389 . S
C88 C89 1.524 . S
C88 C102 1.377 . S
C89 C88 1.524 . S
C89 C90 1.397 . S
C89 C94 1.363 . S
C90 H67 0.950 . S
C90 C89 1.397 . S
C90 C91 1.334 . S
C91 H68 0.950 . S
C91 C90 1.334 . S
C91 C92 1.287 . S
C92 C91 1.287 . S
C92 C93 1.524 . S
C92 H111 0.913 1_545 S
C93 H69 0.950 . S
C93 C92 1.524 . S
C93 C94 1.415 . S
C94 H70 0.950 . S
C94 C89 1.363 . S
C94 C93 1.415 . S
C95 H71 0.951 . S
C95 C96 1.366 . S
C95 C97 1.388 . S
C96 C95 1.366 . S
C96 C100 1.385 . S
C97 H72 0.951 . S
C97 C95 1.388 . S
C97 C98 1.366 . S
C98 C97 1.366 . S
C98 C99 1.414 . S
C98 C101 1.499 . S
C99 H73 0.950 . S
C99 C98 1.414 . S
C99 C100 1.374 . S
C100 H74 0.950 . S
C100 C96 1.385 . S
C100 C99 1.374 . S
C101 C98 1.499 . S
C101 C102 1.373 . S
C101 C103 1.389 . S
C102 H75 0.950 . S
C102 C88 1.377 . S
C102 C101 1.373 . S
C103 C87 1.377 . S
C103 C101 1.389 . S
C103 C104 1.524 . S
C104 C103 1.524 . S
C104 C105 1.397 . S
C104 C109 1.363 . S
C105 H76 0.950 . S
C105 C104 1.397 . S
C105 C106 1.334 . S
C106 H77 0.950 . S
C106 C105 1.334 . S
C106 C107 1.287 . S
C107 C106 1.287 . S
C107 C108 1.524 . S
C107 H110 0.999 . S
C108 H78 0.950 . S
C108 C107 1.524 . S
C108 C109 1.415 . S
C109 H79 0.950 . S
C109 C104 1.363 . S
C109 C108 1.415 . S
H110 C107 0.999 . S
H111 C92 0.913 1_565 S
H112 C130 0.951 . S
H113 C132 0.951 . S
H114 C134 0.950 . S
H115 C135 0.950 . S
H116 C137 0.950 . S
H117 C140 0.950 . S
H118 C141 0.950 . S
H119 C143 0.950 . S
H120 C144 0.950 . S
H121 C145 0.951 . S
H122 C147 0.951 . S
H123 C149 0.950 . S
H124 C150 0.950 . S
H125 C152 0.950 . S
H126 C155 0.950 . S
H127 C156 0.950 . S
H128 C158 0.950 . S
H129 C159 0.950 . S
C130 H112 0.951 . S
C130 C131 1.366 . S
C130 C132 1.388 . S
C131 C130 1.366 . S
C131 C135 1.385 . S
C132 H113 0.951 . S
C132 C130 1.388 . S
C132 C133 1.366 . S
C133 C132 1.366 . S
C133 C134 1.414 . S
C133 C136 1.499 . S
C134 H114 0.950 . S
C134 C133 1.414 . S
C134 C135 1.374 . S
C135 H115 0.950 . S
C135 C131 1.385 . S
C135 C134 1.374 . S
C136 C133 1.499 . S
C136 C137 1.373 . S
C136 C138 1.389 . S
C137 H116 0.950 . S
C137 C136 1.373 . S
C137 C153 1.377 . S
C138 C136 1.389 . S
C138 C139 1.524 . S
C138 C152 1.377 . S
C139 C138 1.524 . S
C139 C140 1.397 . S
C139 C144 1.363 . S
C140 H117 0.950 . S
C140 C139 1.397 . S
C140 C141 1.334 . S
C141 H118 0.950 . S
C141 C140 1.334 . S
C141 C142 1.287 . S
C142 C141 1.287 . S
C142 C143 1.524 . S
C142 H161 0.913 . S
C143 H119 0.950 . S
C143 C142 1.524 . S
C143 C144 1.415 . S
C144 H120 0.950 . S
C144 C139 1.363 . S
C144 C143 1.415 . S
C145 H121 0.951 . S
C145 C146 1.366 . S
C145 C147 1.388 . S
C146 C145 1.366 . S
C146 C150 1.385 . S
C147 H122 0.951 . S
C147 C145 1.388 . S
C147 C148 1.366 . S
C148 C147 1.366 . S
C148 C149 1.414 . S
C148 C151 1.499 . S
C149 H123 0.950 . S
C149 C148 1.414 . S
C149 C150 1.374 . S
C150 H124 0.950 . S
C150 C146 1.385 . S
C150 C149 1.374 . S
C151 C148 1.499 . S
C151 C152 1.373 . S
C151 C153 1.389 . S
C152 H125 0.950 . S
C152 C138 1.377 . S
C152 C151 1.373 . S
C153 C137 1.377 . S
C153 C151 1.389 . S
C153 C154 1.524 . S
C154 C153 1.524 . S
C154 C155 1.397 . S
C154 C159 1.363 . S
C155 H126 0.950 . S
C155 C154 1.397 . S
C155 C156 1.334 . S
C156 H127 0.950 . S
C156 C155 1.334 . S
C156 C157 1.287 . S
C157 C156 1.287 . S
C157 C158 1.524 . S
C157 H160 0.999 . S
C158 H128 0.950 . S
C158 C157 1.524 . S
C158 C159 1.415 . S
C159 H129 0.950 . S
C159 C154 1.363 . S
C159 C158 1.415 . S
H160 C157 0.999 . S
H161 C142 0.913 . S
H162 C180 0.951 . S
H163 C182 0.951 . S
H164 C184 0.950 . S
H165 C185 0.950 . S
H166 C187 0.950 . S
H167 C190 0.950 . S
H168 C191 0.950 . S
H169 C193 0.950 . S
H170 C194 0.950 . S
H171 C195 0.951 . S
H172 C197 0.951 . S
H173 C199 0.950 . S
H174 C200 0.950 . S
H175 C202 0.950 . S
H176 C205 0.950 . S
H177 C206 0.950 . S
H178 C208 0.950 . S
H179 C209 0.950 . S
C180 H162 0.951 . S
C180 C181 1.366 . S
C180 C182 1.388 . S
C181 C180 1.366 . S
C181 C185 1.385 . S
C182 H163 0.951 . S
C182 C180 1.388 . S
C182 C183 1.366 . S
C183 C182 1.366 . S
C183 C184 1.414 . S
C183 C186 1.499 . S
C184 H164 0.950 . S
C184 C183 1.414 . S
C184 C185 1.374 . S
C185 H165 0.950 . S
C185 C181 1.385 . S
C185 C184 1.374 . S
C186 C183 1.499 . S
C186 C187 1.373 . S
C186 C188 1.389 . S
C187 H166 0.950 . S
C187 C186 1.373 . S
C187 C203 1.377 . S
C188 C186 1.389 . S
C188 C189 1.524 . S
C188 C202 1.377 . S
C189 C188 1.524 . S
C189 C190 1.397 . S
C189 C194 1.363 . S
C190 H167 0.950 . S
C190 C189 1.397 . S
C190 C191 1.334 . S
C191 H168 0.950 . S
C191 C190 1.334 . S
C191 C192 1.287 . S
C192 C191 1.287 . S
C192 C193 1.524 . S
C192 H211 0.913 . S
C193 H169 0.950 . S
C193 C192 1.524 . S
C193 C194 1.415 . S
C194 H170 0.950 . S
C194 C189 1.363 . S
C194 C193 1.415 . S
C195 H171 0.951 . S
C195 C196 1.366 . S
C195 C197 1.388 . S
C196 C195 1.366 . S
C196 C200 1.385 . S
C197 H172 0.951 . S
C197 C195 1.388 . S
C197 C198 1.366 . S
C198 C197 1.366 . S
C198 C199 1.414 . S
C198 C201 1.499 . S
C199 H173 0.950 . S
C199 C198 1.414 . S
C199 C200 1.374 . S
C200 H174 0.950 . S
C200 C196 1.385 . S
C200 C199 1.374 . S
C201 C198 1.499 . S
C201 C202 1.373 . S
C201 C203 1.389 . S
C202 H175 0.950 . S
C202 C188 1.377 . S
C202 C201 1.373 . S
C203 C187 1.377 . S
C203 C201 1.389 . S
C203 C204 1.524 . S
C204 C203 1.524 . S
C204 C205 1.397 . S
C204 C209 1.363 . S
C205 H176 0.950 . S
C205 C204 1.397 . S
C205 C206 1.334 . S
C206 H177 0.950 . S
C206 C205 1.334 . S
C206 C207 1.287 . S
C207 C206 1.287 . S
C207 C208 1.524 . S
C207 H210 0.999 . S
C208 H178 0.950 . S
C208 C207 1.524 . S
C208 C209 1.415 . S
C209 H179 0.950 . S
C209 C204 1.363 . S
C209 C208 1.415 . S
H210 C207 0.999 . S
H211 C192 0.913 . S
H212 C230 0.951 . S
H213 C232 0.951 . S
H214 C234 0.950 . S
H215 C235 0.950 . S
H216 C237 0.950 . S
H217 C240 0.950 . S
H218 C241 0.950 . S
H219 C243 0.950 . S
H220 C244 0.950 . S
H221 C245 0.951 . S
H222 C247 0.951 . S
H223 C249 0.950 . S
H224 C250 0.950 . S
H225 C252 0.950 . S
H226 C255 0.950 . S
H227 C256 0.950 . S
H228 C258 0.950 . S
H229 C259 0.950 . S
C230 H212 0.951 . S
C230 C231 1.366 . S
C230 C232 1.388 . S
C231 C230 1.366 . S
C231 C235 1.385 . S
C232 H213 0.951 . S
C232 C230 1.388 . S
C232 C233 1.366 . S
C233 C232 1.366 . S
C233 C234 1.414 . S
C233 C236 1.499 . S
C234 H214 0.950 . S
C234 C233 1.414 . S
C234 C235 1.374 . S
C235 H215 0.950 . S
C235 C231 1.385 . S
C235 C234 1.374 . S
C236 C233 1.499 . S
C236 C237 1.373 . S
C236 C238 1.389 . S
C237 H216 0.950 . S
C237 C236 1.373 . S
C237 C253 1.377 . S
C238 C236 1.389 . S
C238 C239 1.524 . S
C238 C252 1.377 . S
C239 C238 1.524 . S
C239 C240 1.397 . S
C239 C244 1.363 . S
C240 H217 0.950 . S
C240 C239 1.397 . S
C240 C241 1.334 . S
C241 H218 0.950 . S
C241 C240 1.334 . S
C241 C242 1.287 . S
C242 C241 1.287 . S
C242 C243 1.524 . S
C242 H261 0.913 . S
C243 H219 0.950 . S
C243 C242 1.524 . S
C243 C244 1.415 . S
C244 H220 0.950 . S
C244 C239 1.363 . S
C244 C243 1.415 . S
C245 H221 0.951 . S
C245 C246 1.366 . S
C245 C247 1.388 . S
C246 C245 1.366 . S
C246 C250 1.385 . S
C247 H222 0.951 . S
C247 C245 1.388 . S
C247 C248 1.366 . S
C248 C247 1.366 . S
C248 C249 1.414 . S
C248 C251 1.499 . S
C249 H223 0.950 . S
C249 C248 1.414 . S
C249 C250 1.374 . S
C250 H224 0.950 . S
C250 C246 1.385 . S
C250 C249 1.374 . S
C251 C248 1.499 . S
C251 C252 1.373 . S
C251 C253 1.389 . S
C252 H225 0.950 . S
C252 C238 1.377 . S
C252 C251 1.373 . S
C253 C237 1.377 . S
C253 C251 1.389 . S
C253 C254 1.524 . S
C254 C253 1.524 . S
C254 C255 1.397 . S
C254 C259 1.363 . S
C255 H226 0.950 . S
C255 C254 1.397 . S
C255 C256 1.334 . S
C256 H227 0.950 . S
C256 C255 1.334 . S
C256 C257 1.287 . S
C257 C256 1.287 . S
C257 C258 1.524 . S
C257 H260 0.999 . S
C258 H228 0.950 . S
C258 C257 1.524 . S
C258 C259 1.415 . S
C259 H229 0.950 . S
C259 C254 1.363 . S
C259 C258 1.415 . S
H260 C257 0.999 . S
H261 C242 0.913 . S
H262 C280 0.951 . S
H263 C282 0.951 . S
H264 C284 0.950 . S
H265 C285 0.950 . S
H266 C287 0.950 . S
H267 C290 0.950 . S
H268 C291 0.951 1_655 S
H269 C293 0.950 . S
H270 C294 0.950 . S
H271 C295 0.951 . S
H272 C297 0.951 . S
H273 C299 0.950 . S
H274 C300 0.950 . S
H275 C302 0.950 . S
H276 C305 0.950 . S
H277 C306 0.950 . S
H278 C308 0.950 . S
H279 C309 0.950 . S
C280 H262 0.951 . S
C280 C281 1.366 . S
C280 C282 1.388 . S
C281 C280 1.366 . S
C281 C285 1.385 . S
C282 H263 0.951 . S
C282 C280 1.388 . S
C282 C283 1.366 . S
C283 C282 1.366 . S
C283 C284 1.414 . S
C283 C286 1.499 . S
C284 H264 0.950 . S
C284 C283 1.414 . S
C284 C285 1.374 . S
C285 H265 0.950 . S
C285 C281 1.385 . S
C285 C284 1.374 . S
C286 C283 1.499 . S
C286 C287 1.373 . S
C286 C288 1.389 . S
C287 H266 0.950 . S
C287 C286 1.373 . S
C287 C303 1.377 . S
C288 C286 1.389 . S
C288 C289 1.524 . S
C288 C302 1.377 . S
C289 C288 1.524 . S
C289 C290 1.397 . S
C289 C294 1.363 . S
C290 H267 0.950 . S
C290 C289 1.397 . S
C290 C291 1.334 . S
C291 H268 0.951 1_455 S
C291 C290 1.334 . S
C291 C292 1.287 . S
C292 C291 1.287 . S
C292 C293 1.524 . S
C292 H311 0.913 1_455 S
C293 H269 0.950 . S
C293 C292 1.524 . S
C293 C294 1.415 . S
C294 H270 0.950 . S
C294 C289 1.363 . S
C294 C293 1.415 . S
C295 H271 0.951 . S
C295 C296 1.366 . S
C295 C297 1.388 . S
C296 C295 1.366 . S
C296 C300 1.385 . S
C297 H272 0.951 . S
C297 C295 1.388 . S
C297 C298 1.366 . S
C298 C297 1.366 . S
C298 C299 1.414 . S
C298 C301 1.499 . S
C299 H273 0.950 . S
C299 C298 1.414 . S
C299 C300 1.374 . S
C300 H274 0.950 . S
C300 C296 1.385 . S
C300 C299 1.374 . S
C301 C298 1.499 . S
C301 C302 1.373 . S
C301 C303 1.389 . S
C302 H275 0.950 . S
C302 C288 1.377 . S
C302 C301 1.373 . S
C303 C287 1.377 . S
C303 C301 1.389 . S
C303 C304 1.524 . S
C304 C303 1.524 . S
C304 C305 1.397 . S
C304 C309 1.363 . S
C305 H276 0.950 . S
C305 C304 1.397 . S
C305 C306 1.334 . S
C306 H277 0.950 . S
C306 C305 1.334 . S
C306 C307 1.287 . S
C307 C306 1.287 . S
C307 C308 1.524 . S
C307 H310 0.999 . S
C308 H278 0.950 . S
C308 C307 1.524 . S
C308 C309 1.415 . S
C309 H279 0.950 . S
C309 C304 1.363 . S
C309 C308 1.415 . S
H310 C307 0.999 . S
H311 C292 0.913 1_655 S
H312 C330 0.951 . S
H313 C332 0.951 . S
H314 C334 0.950 . S
H315 C335 0.950 . S
H316 C337 0.950 . S
H317 C340 0.950 . S
H318 C341 0.950 . S
H319 C343 0.950 . S
H320 C344 0.950 . S
H321 C345 0.951 . S
H322 C347 0.951 . S
H323 C349 0.950 . S
H324 C350 0.950 . S
H325 C352 0.950 . S
H326 C355 0.950 . S
H327 C356 0.950 . S
H328 C358 0.950 . S
H329 C359 0.950 . S
C330 H312 0.951 . S
C330 C331 1.366 . S
C330 C332 1.388 . S
C331 C330 1.366 . S
C331 C335 1.385 . S
C332 H313 0.951 . S
C332 C330 1.388 . S
C332 C333 1.366 . S
C333 C332 1.366 . S
C333 C334 1.414 . S
C333 C336 1.499 . S
C334 H314 0.950 . S
C334 C333 1.414 . S
C334 C335 1.374 . S
C335 H315 0.950 . S
C335 C331 1.385 . S
C335 C334 1.374 . S
C336 C333 1.499 . S
C336 C337 1.373 . S
C336 C338 1.389 . S
C337 H316 0.950 . S
C337 C336 1.373 . S
C337 C353 1.377 . S
C338 C336 1.389 . S
C338 C339 1.524 . S
C338 C352 1.377 . S
C339 C338 1.524 . S
C339 C340 1.397 . S
C339 C344 1.363 . S
C340 H317 0.950 . S
C340 C339 1.397 . S
C340 C341 1.334 . S
C341 H318 0.950 . S
C341 C340 1.334 . S
C341 C342 1.287 . S
C342 C341 1.287 . S
C342 C343 1.524 . S
C342 H361 0.913 . S
C343 H319 0.950 . S
C343 C342 1.524 . S
C343 C344 1.415 . S
C344 H320 0.950 . S
C344 C339 1.363 . S
C344 C343 1.415 . S
C345 H321 0.951 . S
C345 C346 1.366 . S
C345 C347 1.388 . S
C346 C345 1.366 . S
C346 C350 1.385 . S
C347 H322 0.951 . S
C347 C345 1.388 . S
C347 C348 1.366 . S
C348 C347 1.366 . S
C348 C349 1.414 . S
C348 C351 1.499 . S
C349 H323 0.950 . S
C349 C348 1.414 . S
C349 C350 1.374 . S
C350 H324 0.950 . S
C350 C346 1.385 . S
C350 C349 1.374 . S
C351 C348 1.499 . S
C351 C352 1.373 . S
C351 C353 1.389 . S
C352 H325 0.950 . S
C352 C338 1.377 . S
C352 C351 1.373 . S
C353 C337 1.377 . S
C353 C351 1.389 . S
C353 C354 1.524 . S
C354 C353 1.524 . S
C354 C355 1.397 . S
C354 C359 1.363 . S
C355 H326 0.950 . S
C355 C354 1.397 . S
C355 C356 1.334 . S
C356 H327 0.950 . S
C356 C355 1.334 . S
C356 C357 1.287 . S
C357 C356 1.287 . S
C357 C358 1.524 . S
C357 H360 0.999 . S
C358 H328 0.950 . S
C358 C357 1.524 . S
C358 C359 1.415 . S
C359 H329 0.950 . S
C359 C354 1.363 . S
C359 C358 1.415 . S
H360 C357 0.999 . S
H361 C342 0.913 . S
H362 C380 0.951 . S
H363 C382 0.951 . S
H364 C384 0.950 . S
H365 C385 0.950 . S
H366 C387 0.950 . S
H367 C390 0.950 . S
H368 C391 0.950 . S
H369 C393 0.950 . S
H370 C394 0.950 . S
H371 C395 0.951 . S
H372 C397 0.951 . S
H373 C399 0.950 . S
H374 C400 0.950 . S
H375 C402 0.950 . S
H376 C405 0.950 . S
H377 C406 0.950 . S
H378 C408 0.950 . S
H379 C409 0.950 . S
C380 H362 0.951 . S
C380 C381 1.366 . S
C380 C382 1.388 . S
C381 C380 1.366 . S
C381 C385 1.385 . S
C382 H363 0.951 . S
C382 C380 1.388 . S
C382 C383 1.366 . S
C383 C382 1.366 . S
C383 C384 1.414 . S
C383 C386 1.499 . S
C384 H364 0.950 . S
C384 C383 1.414 . S
C384 C385 1.374 . S
C385 H365 0.950 . S
C385 C381 1.385 . S
C385 C384 1.374 . S
C386 C383 1.499 . S
C386 C387 1.373 . S
C386 C388 1.389 . S
C387 H366 0.950 . S
C387 C386 1.373 . S
C387 C403 1.377 . S
C388 C386 1.389 . S
C388 C389 1.524 . S
C388 C402 1.377 . S
C389 C388 1.524 . S
C389 C390 1.397 . S
C389 C394 1.363 . S
C390 H367 0.950 . S
C390 C389 1.397 . S
C390 C391 1.334 . S
C391 H368 0.950 . S
C391 C390 1.334 . S
C391 C392 1.287 . S
C392 C391 1.287 . S
C392 C393 1.524 . S
C392 H411 0.913 . S
C393 H369 0.950 . S
C393 C392 1.524 . S
C393 C394 1.415 . S
C394 H370 0.950 . S
C394 C389 1.363 . S
C394 C393 1.415 . S
C395 H371 0.951 . S
C395 C396 1.366 . S
C395 C397 1.388 . S
C396 C395 1.366 . S
C396 C400 1.385 . S
C397 H372 0.951 . S
C397 C395 1.388 . S
C397 C398 1.366 . S
C398 C397 1.366 . S
C398 C399 1.414 . S
C398 C401 1.499 . S
C399 H373 0.950 . S
C399 C398 1.414 . S
C399 C400 1.374 . S
C400 H374 0.950 . S
C400 C396 1.385 . S
C400 C399 1.374 . S
C401 C398 1.499 . S
C401 C402 1.373 . S
C401 C403 1.389 . S
C402 H375 0.950 . S
C402 C388 1.377 . S
C402 C401 1.373 . S
C403 C387 1.377 . S
C403 C401 1.389 . S
C403 C404 1.524 . S
C404 C403 1.524 . S
C404 C405 1.397 . S
C404 C409 1.363 . S
C405 H376 0.950 . S
C405 C404 1.397 . S
C405 C406 1.334 . S
C406 H377 0.950 . S
C406 C405 1.334 . S
C406 C407 1.287 . S
C407 C406 1.287 . S
C407 C408 1.524 . S
C407 H410 0.999 . S
C408 H378 0.950 . S
C408 C407 1.524 . S
C408 C409 1.415 . S
C409 H379 0.950 . S
C409 C404 1.363 . S
C409 C408 1.415 . S
H410 C407 0.999 . S
H411 C392 0.913 . S
H412 C430 0.951 . S
H413 C432 0.951 . S
H414 C434 0.950 . S
H415 C435 0.950 . S
H416 C437 0.950 . S
H417 C440 0.950 . S
H418 C441 0.950 . S
H419 C443 0.950 . S
H420 C444 0.950 . S
H421 C445 0.951 . S
H422 C447 0.951 . S
H423 C449 0.950 . S
H424 C450 0.950 . S
H425 C452 0.950 . S
H426 C455 0.950 . S
H427 C456 0.950 . S
H428 C458 0.950 . S
H429 C459 0.950 . S
C430 H412 0.951 . S
C430 C431 1.366 . S
C430 C432 1.388 . S
C431 C430 1.366 . S
C431 C435 1.385 . S
C432 H413 0.951 . S
C432 C430 1.388 . S
C432 C433 1.366 . S
C433 C432 1.366 . S
C433 C434 1.414 . S
C433 C436 1.499 . S
C434 H414 0.950 . S
C434 C433 1.414 . S
C434 C435 1.374 . S
C435 H415 0.950 . S
C435 C431 1.385 . S
C435 C434 1.374 . S
C436 C433 1.499 . S
C436 C437 1.373 . S
C436 C438 1.389 . S
C437 H416 0.950 . S
C437 C436 1.373 . S
C437 C453 1.377 . S
C438 C436 1.389 . S
C438 C439 1.524 . S
C438 C452 1.377 . S
C439 C438 1.524 . S
C439 C440 1.397 . S
C439 C444 1.363 . S
C440 H417 0.950 . S
C440 C439 1.397 . S
C440 C441 1.334 . S
C441 H418 0.950 . S
C441 C440 1.334 . S
C441 C442 1.287 . S
C442 C441 1.287 . S
C442 C443 1.524 . S
C442 H461 0.913 . S
C443 H419 0.950 . S
C443 C442 1.524 . S
C443 C444 1.415 . S
C444 H420 0.950 . S
C444 C439 1.363 . S
C444 C443 1.415 . S
C445 H421 0.951 . S
C445 C446 1.366 . S
C445 C447 1.388 . S
C446 C445 1.366 . S
C446 C450 1.385 . S
C447 H422 0.951 . S
C447 C445 1.388 . S
C447 C448 1.366 . S
C448 C447 1.366 . S
C448 C449 1.414 . S
C448 C451 1.499 . S
C449 H423 0.950 . S
C449 C448 1.414 . S
C449 C450 1.374 . S
C450 H424 0.950 . S
C450 C446 1.385 . S
C450 C449 1.374 . S
C451 C448 1.499 . S
C451 C452 1.373 . S
C451 C453 1.389 . S
C452 H425 0.950 . S
C452 C438 1.377 . S
C452 C451 1.373 . S
C453 C437 1.377 . S
C453 C451 1.389 . S
C453 C454 1.524 . S
C454 C453 1.524 . S
C454 C455 1.397 . S
C454 C459 1.363 . S
C455 H426 0.950 . S
C455 C454 1.397 . S
C455 C456 1.334 . S
C456 H427 0.950 . S
C456 C455 1.334 . S
C456 C457 1.287 . S
C457 C456 1.287 . S
C457 C458 1.524 . S
C457 H460 0.999 . S
C458 H428 0.950 . S
C458 C457 1.524 . S
C458 C459 1.415 . S
C459 H429 0.950 . S
C459 C454 1.363 . S
C459 C458 1.415 . S
H460 C457 0.999 . S
H461 C442 0.913 . S
C81 C0 1.119 . S
C96 C41 1.131 . S
C131 C29 1.802 . S
C146 C33 1.800 . S
C181 C30 1.135 . S
C196 C50 1.118 . S
C231 C1 1.661 . S
C246 C51 1.659 . S
C281 C2 1.802 . S
C296 C60 1.804 . S
C346 C61 1.134 . S
C331 C19 1.119 . S
C381 C20 1.661 . S
C396 C32 1.662 . S
C446 C31 1.119 . S
C431 C10 1.139 . S
