# Generated by pormake.
# Topology zzz, (3,6)-cn, num edge types: 1
# Building blocks:
#     Node 0, Type 0, BuildingBlock: OLANEW_clean_sbu_2, # of connection points: 3
#     Node 1, Type 0, BuildingBlock: OLANEW_clean_sbu_2, # of connection points: 3
#     Node 2, Type 0, BuildingBlock: OLANEW_clean_sbu_2, # of connection points: 3
#     Node 3, Type 0, BuildingBlock: OLANEW_clean_sbu_2, # of connection points: 3
#     Node 4, Type 0, BuildingBlock: OLANEW_clean_sbu_2, # of connection points: 3
#     Node 5, Type 0, BuildingBlock: OLANEW_clean_sbu_2, # of connection points: 3
#     Node 6, Type 0, BuildingBlock: OLANEW_clean_sbu_2, # of connection points: 3
#     Node 7, Type 0, BuildingBlock: OLANEW_clean_sbu_2, # of connection points: 3
#     Node 8, Type 1, BuildingBlock: JUFBIX_clean_sbu_0, # of connection points: 6
#     Node 9, Type 1, BuildingBlock: JUFBIX_clean_sbu_0, # of connection points: 6
#     Node 10, Type 1, BuildingBlock: JUFBIX_clean_sbu_0, # of connection points: 6
#     Node 11, Type 1, BuildingBlock: JUFBIX_clean_sbu_0, # of connection points: 6
#     Edge 12, Type (0, 1), BuildingBlock: EZIPEK_clean_linker_0, # of connection points: 2
#     Edge 13, Type (0, 1), BuildingBlock: EZIPEK_clean_linker_0, # of connection points: 2
#     Edge 14, Type (0, 1), BuildingBlock: EZIPEK_clean_linker_0, # of connection points: 2
#     Edge 15, Type (0, 1), BuildingBlock: EZIPEK_clean_linker_0, # of connection points: 2
#     Edge 16, Type (0, 1), BuildingBlock: EZIPEK_clean_linker_0, # of connection points: 2
#     Edge 17, Type (0, 1), BuildingBlock: EZIPEK_clean_linker_0, # of connection points: 2
#     Edge 18, Type (0, 1), BuildingBlock: EZIPEK_clean_linker_0, # of connection points: 2
#     Edge 19, Type (0, 1), BuildingBlock: EZIPEK_clean_linker_0, # of connection points: 2
#     Edge 20, Type (0, 1), BuildingBlock: EZIPEK_clean_linker_0, # of connection points: 2
#     Edge 21, Type (0, 1), BuildingBlock: EZIPEK_clean_linker_0, # of connection points: 2
#     Edge 22, Type (0, 1), BuildingBlock: EZIPEK_clean_linker_0, # of connection points: 2
#     Edge 23, Type (0, 1), BuildingBlock: EZIPEK_clean_linker_0, # of connection points: 2
#     Edge 24, Type (0, 1), BuildingBlock: EZIPEK_clean_linker_0, # of connection points: 2
#     Edge 25, Type (0, 1), BuildingBlock: EZIPEK_clean_linker_0, # of connection points: 2
#     Edge 26, Type (0, 1), BuildingBlock: EZIPEK_clean_linker_0, # of connection points: 2
#     Edge 27, Type (0, 1), BuildingBlock: EZIPEK_clean_linker_0, # of connection points: 2
#     Edge 28, Type (0, 1), BuildingBlock: EZIPEK_clean_linker_0, # of connection points: 2
#     Edge 29, Type (0, 1), BuildingBlock: EZIPEK_clean_linker_0, # of connection points: 2
#     Edge 30, Type (0, 1), BuildingBlock: EZIPEK_clean_linker_0, # of connection points: 2
#     Edge 31, Type (0, 1), BuildingBlock: EZIPEK_clean_linker_0, # of connection points: 2
#     Edge 32, Type (0, 1), BuildingBlock: EZIPEK_clean_linker_0, # of connection points: 2
#     Edge 33, Type (0, 1), BuildingBlock: EZIPEK_clean_linker_0, # of connection points: 2
#     Edge 34, Type (0, 1), BuildingBlock: EZIPEK_clean_linker_0, # of connection points: 2
#     Edge 35, Type (0, 1), BuildingBlock: EZIPEK_clean_linker_0, # of connection points: 2
# Relax obj value: 0.108
# Max RMSD: 0.177
# Mean RMSD: 0.087
data_MOF--net-zzz--node1-OLANEW_clean_sbu_2--node2-JUFBIX_clean_sbu_0--edge1-EZIPEK_clean_linker_0
_symmetry_space_group_name_H-M    P1
_symmetry_Int_Tables_number       1
_symmetry_cell_setting            triclinic
loop_
_symmetry_equiv_pos_as_xyz
'x, y, z'
_cell_length_a     41.781142
_cell_length_b     41.677053
_cell_length_c     14.733192
_cell_angle_alpha  79.762205
_cell_angle_beta   89.995135
_cell_angle_gamma 92.025048
loop_
_atom_site_label
_atom_site_type_symbol
_atom_site_fract_x
_atom_site_fract_y
_atom_site_fract_z
_atom_type_partial_charge
O0 O 0.85083 0.55197 0.00412 0.0
Cd1 Cd 0.80566 0.58787 0.9898 0.0
O2 O 0.84401 0.54231 0.15431 0.0
Cd3 Cd 0.85992 0.52301 0.29385 0.0
O4 O 0.8832 0.51792 0.42795 0.0
C5 C 0.91149 0.50765 0.43556 0.0
O6 O 0.92557 0.49937 0.36384 0.0
C7 C 0.85971 0.53824 0.08359 0.0
C8 C 0.749 0.55602 0.95289 0.0
O9 O 0.7666 0.57138 0.88685 0.0
O10 O 0.75821 0.55561 0.03604 0.0
O11 O 0.90551 0.80206 0.95085 0.0
Cd12 Cd 0.87841 0.74964 0.00025 0.0
O13 O 0.92534 0.7966 0.09075 0.0
Cd14 Cd 0.95357 0.81811 0.19144 0.0
O15 O 0.97341 0.85123 0.27857 0.0
C16 C 0.95434 0.86734 0.31882 0.0
O17 O 0.9233 0.86314 0.30932 0.0
C18 C 0.92383 0.81243 0.00884 0.0
C19 C 0.92285 0.7041 0.97641 0.0
O20 O 0.90196 0.71307 0.9142 0.0
O21 O 0.92205 0.71588 0.05097 0.0
O22 O 0.72839 0.00783 0.04235 0.0
Cd23 Cd 0.78059 0.9948 0.11444 0.0
O24 O 0.72732 0.05935 0.056 0.0
Cd25 Cd 0.75683 0.04724 0.17851 0.0
O26 O 0.7254 0.03038 0.29807 0.0
C27 C 0.70581 0.05114 0.31586 0.0
O28 O 0.70898 0.08148 0.27255 0.0
C29 C 0.71493 0.03514 0.02558 0.0
C30 C 0.83657 0.00437 0.00384 0.0
O31 O 0.81378 0.98463 0.98903 0.0
O32 O 0.83218 0.02109 0.06753 0.0
O33 O 0.58768 0.70439 0.8752 0.0
Cd34 Cd 0.62077 0.75271 0.8922 0.0
O35 O 0.57768 0.69361 0.02403 0.0
Cd36 Cd 0.55888 0.66199 0.14863 0.0
O37 O 0.5472 0.63304 0.28415 0.0
C38 C 0.54394 0.60214 0.29568 0.0
O39 O 0.54677 0.58737 0.22469 0.0
C40 C 0.57536 0.68562 0.94488 0.0
C41 C 0.59204 0.81279 0.87421 0.0
O42 O 0.60254 0.8026 0.80308 0.0
O43 O 0.59392 0.79419 0.95314 0.0
O44 O 0.18641 0.52194 0.49678 0.0
Cd45 Cd 0.23311 0.52904 0.39473 0.0
O46 O 0.19233 0.46906 0.54057 0.0
Cd47 Cd 0.22118 0.4689 0.41789 0.0
O48 O 0.1951 0.47766 0.28859 0.0
C49 C 0.1695 0.46018 0.29013 0.0
O50 O 0.16331 0.43705 0.36148 0.0
C51 C 0.17858 0.49511 0.54888 0.0
C52 C 0.28757 0.52939 0.50305 0.0
O53 O 0.27377 0.55598 0.47113 0.0
O54 O 0.27621 0.50273 0.48201 0.0
O55 O 0.13036 0.18274 0.77143 0.0
Cd56 Cd 0.15942 0.23483 0.73352 0.0
O57 O 0.12648 0.17993 0.62413 0.0
Cd58 Cd 0.10882 0.15249 0.51982 0.0
O59 O 0.08911 0.11999 0.43113 0.0
C60 C 0.10661 0.09973 0.40132 0.0
O61 O 0.13708 0.09859 0.42321 0.0
C62 C 0.12009 0.16817 0.70799 0.0
C63 C 0.11938 0.28096 0.78009 0.0
O64 O 0.11854 0.27357 0.69932 0.0
O65 O 0.13984 0.26735 0.83797 0.0
O66 O 0.31957 0.96939 0.70951 0.0
Cd67 Cd 0.26922 0.95562 0.63588 0.0
O68 O 0.34763 0.95442 0.59779 0.0
Cd69 Cd 0.31138 0.94376 0.50063 0.0
O70 O 0.34545 0.94609 0.38702 0.0
C71 C 0.36166 0.97277 0.36533 0.0
O72 O 0.3543 0.99787 0.40306 0.0
C73 C 0.34637 0.96475 0.6736 0.0
C74 C 0.21115 0.95936 0.7284 0.0
O75 O 0.22706 0.9332 0.74287 0.0
O76 O 0.22324 0.98421 0.67369 0.0
O77 O 0.45608 0.29812 0.78083 0.0
Cd78 Cd 0.43204 0.24903 0.73486 0.0
O79 O 0.44777 0.3205 0.63716 0.0
Cd80 Cd 0.44922 0.3617 0.52297 0.0
O81 O 0.45752 0.39184 0.38788 0.0
C82 C 0.47072 0.4202 0.37686 0.0
O83 O 0.47903 0.43295 0.44912 0.0
C84 C 0.45716 0.3232 0.7175 0.0
C85 C 0.46403 0.19075 0.77616 0.0
O86 O 0.46965 0.21055 0.70031 0.0
O87 O 0.44445 0.19908 0.83412 0.0
Co88 Co 0.0274 0.99127 0.92649 0.0
C89 C 0.96527 0.00694 0.85881 0.0
Co90 Co 0.01897 0.98786 0.78017 0.0
C91 C 0.05385 0.01564 0.08283 0.0
C92 C 0.0124 0.9844 0.12014 0.0
N93 N 0.03207 0.99639 0.04838 0.0
N94 N 0.04814 0.01651 0.17233 0.0
C95 C 0.02222 0.99681 0.19652 0.0
H96 H 0.07266 0.02999 0.04227 0.0
H97 H 0.99153 0.96866 0.11646 0.0
C98 C 0.08092 0.97188 0.84713 0.0
N99 N 0.01466 0.98256 0.65801 0.0
C100 C 0.99575 0.96054 0.62426 0.0
C101 C 0.0333 0.99669 0.58585 0.0
N102 N 0.00228 0.9601 0.53497 0.0
C103 C 0.02571 0.98287 0.51007 0.0
C104 C 0.04497 0.04759 0.80167 0.0
O105 O 0.0704 0.97749 0.92358 0.0
O106 O 0.06201 0.97353 0.77883 0.0
O107 O 0.03452 0.03157 0.74148 0.0
O108 O 0.04277 0.03494 0.88648 0.0
O109 O 0.97626 0.00203 0.78217 0.0
H110 H 0.05233 0.01468 0.58909 0.0
H111 H 0.9787 0.94383 0.66516 0.0
O112 O 0.98389 0.00505 0.92798 0.0
O113 O 0.01232 0.9474 0.96557 0.0
O114 O 0.00299 0.9443 0.82105 0.0
C115 C 1.00108 0.93157 0.90592 0.0
H116 H 0.01065 0.99277 0.26349 0.0
H117 H 0.03736 0.98799 0.44327 0.0
Co118 Co 0.52461 0.99771 0.90826 0.0
C119 C 0.54806 0.94447 0.84331 0.0
Co120 Co 0.53936 0.00859 0.7616 0.0
C121 C 0.48202 0.99424 0.06238 0.0
C122 C 0.5244 0.96765 0.0997 0.0
N123 N 0.51063 0.98748 0.0292 0.0
N124 N 0.4771 0.9788 0.14987 0.0
C125 C 0.5037 0.96213 0.17407 0.0
H126 H 0.46431 0.00865 0.02162 0.0
H127 H 0.54729 0.95661 0.09568 0.0
C128 C 0.51544 0.06164 0.82683 0.0
N129 N 0.55382 0.01846 0.6406 0.0
C130 C 0.58371 0.01394 0.61151 0.0
C131 C 0.53919 0.03494 0.56576 0.0
N132 N 0.58852 0.02749 0.52248 0.0
C133 C 0.56061 0.04064 0.49278 0.0
C134 C 0.47593 0.98905 0.78395 0.0
O135 O 0.51358 0.0418 0.90301 0.0
O136 O 0.52624 0.05225 0.75555 0.0
O137 O 0.49772 0.99668 0.72277 0.0
O138 O 0.48284 0.9879 0.8683 0.0
O139 O 0.55226 0.96481 0.76877 0.0
H140 H 0.51509 0.04363 0.56553 0.0
H141 H 0.60226 0.00252 0.65584 0.0
O142 O 0.53562 0.95361 0.91263 0.0
O143 O 0.56649 0.00775 0.94732 0.0
O144 O 0.5806 0.02067 0.80168 0.0
C145 C 0.58778 0.01778 0.88629 0.0
H146 H 0.50729 0.94622 0.23953 0.0
H147 H 0.55657 0.05462 0.42476 0.0
Co148 Co 0.53513 0.49901 0.84014 0.0
C149 C 0.49867 0.48232 0.0009 0.0
Co150 Co 0.48481 0.5135 0.82576 0.0
C151 C 0.60346 0.50774 0.84709 0.0
C152 C 0.588 0.4584 0.8996 0.0
N153 N 0.5773 0.48749 0.85769 0.0
N154 N 0.62978 0.49265 0.8828 0.0
C155 C 0.62035 0.46157 0.91552 0.0
H156 H 0.6029 0.53364 0.82031 0.0
H157 H 0.57289 0.4369 0.9229 0.0
C158 C 0.52155 0.53076 0.66561 0.0
N159 N 0.44274 0.52507 0.80925 0.0
C160 C 0.42356 0.52044 0.73873 0.0
C161 C 0.42456 0.54009 0.86362 0.0
N162 N 0.39425 0.53204 0.74695 0.0
C163 C 0.3946 0.54445 0.82525 0.0
C164 C 0.52463 0.56126 0.87611 0.0
O165 O 0.54362 0.51623 0.71425 0.0
O166 O 0.49399 0.5322 0.70081 0.0
O167 O 0.49548 0.5544 0.86097 0.0
O168 O 0.54557 0.54039 0.87043 0.0
O169 O 0.47605 0.49489 0.95065 0.0
H170 H 0.43261 0.54739 0.92696 0.0
H171 H 0.43091 0.50887 0.68224 0.0
O172 O 0.5265 0.4821 0.96644 0.0
O173 O 0.5242 0.45766 0.8096 0.0
O174 O 0.47436 0.47242 0.79123 0.0
C175 C 0.49534 0.45114 0.79033 0.0
H176 H 0.63533 0.44319 0.95338 0.0
H177 H 0.37462 0.5557 0.85246 0.0
Co178 Co 0.02711 0.51787 0.89877 0.0
C179 C 0.06448 0.48226 0.03421 0.0
Co180 Co 0.02124 0.46465 0.90905 0.0
C181 C 0.00501 0.58134 0.90172 0.0
C182 C 0.05625 0.58145 0.9046 0.0
N183 N 0.03004 0.56212 0.89802 0.0
N184 N 0.01445 0.61166 0.91164 0.0
C185 C 0.04665 0.61211 0.91348 0.0
H186 H 0.98019 0.57288 0.9019 0.0
H187 H 0.08061 0.57337 0.90705 0.0
C188 C 0.98601 0.50028 0.76843 0.0
N189 N 0.01804 0.42037 0.90958 0.0
C190 C 0.04277 0.40085 0.90482 0.0
C191 C 0.99168 0.40215 0.89618 0.0
N192 N 0.03303 0.3716 0.88647 0.0
C193 C 1.00091 0.37205 0.88135 0.0
C194 C 0.97707 0.48758 0.01542 0.0
O195 O 0.99745 0.52471 0.79985 0.0
O196 O 0.99319 0.47172 0.80661 0.0
O197 O 0.98569 0.46156 0.99061 0.0
O198 O 0.99276 0.51401 0.98544 0.0
O199 O 0.04988 0.45782 0.0103 0.0
H200 H 0.96761 0.41102 0.89041 0.0
H201 H 0.06766 0.40878 0.90664 0.0
O202 O 0.05742 0.51086 0.99576 0.0
O203 O 0.06102 0.52141 0.81279 0.0
O204 O 0.05669 0.46812 0.82702 0.0
C205 C 0.07067 0.49503 0.79249 0.0
H206 H 0.06189 0.63261 0.92435 0.0
H207 H 0.98556 0.35291 0.86213 0.0
C208 C 0.1541 0.93787 0.75262 0.0
C209 C 0.17874 0.96039 0.76956 0.0
C210 C 0.1397 0.98947 0.84657 0.0
C211 C 0.11544 0.96589 0.83344 0.0
N212 N 0.10219 0.91278 0.79911 0.0
N213 N 0.19661 0.00279 0.85164 0.0
C214 C 0.12354 0.93856 0.79424 0.0
C215 C 0.17202 0.98472 0.82249 0.0
N216 N 0.15915 0.91699 0.69263 0.0
N217 N 0.13186 0.01732 0.87705 0.0
H218 H 0.22056 -0.00034 0.83633 0.0
H219 H 0.19357 0.01852 0.89832 0.0
H220 H 0.10872 0.02208 0.89565 0.0
H221 H 0.14787 0.03709 0.87644 0.0
H222 H 0.14088 0.90267 0.67025 0.0
H223 H 0.18078 0.9162 0.65801 0.0
H224 H 0.10759 0.89088 0.77878 0.0
H225 H 0.08048 0.91205 0.83423 0.0
C226 C 0.51129 0.1543 0.79438 0.0
C227 C 0.47761 0.15782 0.79288 0.0
C228 C 0.46924 0.09833 0.82674 0.0
C229 C 0.50277 0.09475 0.81919 0.0
N230 N 0.55584 0.11886 0.78788 0.0
N231 N 0.42446 0.13336 0.78882 0.0
C232 C 0.52385 0.12264 0.80033 0.0
C233 C 0.45653 0.12989 0.80469 0.0
N234 N 0.53121 0.18108 0.79394 0.0
N235 N 0.44934 0.07161 0.85439 0.0
H236 H 0.41407 0.15593 0.76977 0.0
H237 H 0.40851 0.11385 0.78539 0.0
H238 H 0.45702 0.04776 0.86556 0.0
H239 H 0.42542 0.0732 0.87244 0.0
H240 H 0.5558 0.17983 0.80448 0.0
H241 H 0.5228 0.20451 0.79084 0.0
H242 H 0.57189 0.13812 0.76332 0.0
H243 H 0.56619 0.09611 0.79704 0.0
C244 C 0.34348 0.54858 0.53415 0.0
C245 C 0.31549 0.5294 0.56498 0.0
C246 C 0.34139 0.50929 0.7124 0.0
C247 C 0.36782 0.53095 0.68509 0.0
N248 N 0.39286 0.57441 0.57666 0.0
N249 N 0.28558 0.49562 0.68907 0.0
C250 C 0.36857 0.55148 0.59763 0.0
C251 C 0.31384 0.51072 0.65562 0.0
N252 N 0.34661 0.56293 0.4435 0.0
N253 N 0.34312 0.48674 0.7916 0.0
H254 H 0.26461 0.49653 0.65051 0.0
H255 H 0.28212 0.48462 0.75773 0.0
H256 H 0.36319 0.48508 0.83407 0.0
H257 H 0.32602 0.46796 0.81078 0.0
H258 H 0.36774 0.57442 0.41501 0.0
H259 H 0.32899 0.56081 0.39454 0.0
H260 H 0.39321 0.59243 0.51779 0.0
H261 H 0.41148 0.57707 0.62224 0.0
C262 C 0.09512 0.33599 0.75382 0.0
C263 C 0.09662 0.30411 0.80666 0.0
C264 C 0.0565 0.31737 0.91432 0.0
C265 C 0.05332 0.34816 0.85759 0.0
N266 N 0.06397 0.38436 0.71366 0.0
N267 N 0.07396 0.26203 0.92597 0.0
C268 C 0.07099 0.35675 0.77429 0.0
C269 C 0.076 0.29406 0.88403 0.0
N270 N 0.11755 0.34698 0.68691 0.0
N271 N 0.04155 0.31086 0.99832 0.0
H272 H 0.0871 0.24395 0.90416 0.0
H273 H 0.05704 0.25281 0.97671 0.0
H274 H 0.02697 0.32756 0.02168 0.0
H275 H 0.04559 0.29016 0.04742 0.0
H276 H 0.11954 0.37113 0.65296 0.0
H277 H 0.13617 0.33281 0.67129 0.0
H278 H 0.07398 0.39045 0.64783 0.0
H279 H 0.04571 0.39955 0.72567 0.0
C280 C 0.8851 0.03695 0.92894 0.0
C281 C 0.86782 0.00651 0.95254 0.0
C282 C 0.91004 0.98089 0.87721 0.0
C283 C 0.93015 0.00926 0.87338 0.0
N284 N 0.93691 0.06479 0.89626 0.0
N285 N 0.86842 0.94763 0.96458 0.0
C286 C 0.91768 0.03746 0.89961 0.0
C287 C 0.88123 0.97798 0.92967 0.0
N288 N 0.87008 0.06545 0.9303 0.0
N289 N 0.91874 0.95614 0.83381 0.0
H290 H 0.84996 0.94338 0.01308 0.0
H291 H 0.87893 0.92615 0.95516 0.0
H292 H 0.93979 0.95679 0.7958 0.0
H293 H 0.90339 0.93635 0.82794 0.0
H294 H 0.88081 0.08835 0.90666 0.0
H295 H 0.84571 0.06624 0.9446 0.0
H296 H 0.93052 0.08476 0.9251 0.0
H297 H 0.95987 0.0667 0.86775 0.0
C298 C 0.59781 0.86927 0.9096 0.0
C299 C 0.58036 0.84635 0.86644 0.0
C300 C 0.54298 0.88855 0.80196 0.0
C301 C 0.55902 0.91069 0.85111 0.0
N302 N 0.59918 0.92133 0.96107 0.0
N303 N 0.53413 0.83229 0.782 0.0
C304 C 0.58558 0.90074 0.90811 0.0
C305 C 0.5524 0.85552 0.81497 0.0
N306 N 0.62705 0.86159 0.9477 0.0
N307 N 0.51874 0.89912 0.74297 0.0
H308 H 0.54023 0.80789 0.79073 0.0
H309 H 0.5117 0.83647 0.75244 0.0
H310 H 0.50992 0.92253 0.73567 0.0
H311 H 0.50855 0.88543 0.69714 0.0
H312 H 0.64267 0.87846 0.97042 0.0
H313 H 0.6372 0.839 0.94918 0.0
H314 H 0.61576 0.91402 0.01269 0.0
H315 H 0.59248 0.94533 0.958 0.0
C316 C 0.6896 0.54797 0.97448 0.0
C317 C 0.7183 0.53971 0.93386 0.0
C318 C 0.68767 0.50221 0.85314 0.0
C319 C 0.65976 0.50821 0.90068 0.0
N320 N 0.63506 0.53127 0.02068 0.0
N321 N 0.74566 0.50472 0.84722 0.0
C322 C 0.66098 0.52953 0.96548 0.0
C323 C 0.71766 0.51571 0.87628 0.0
N324 N 0.6893 0.57431 0.01807 0.0
N325 N 0.68524 0.4842 0.78442 0.0
H326 H 0.76815 0.51333 0.86473 0.0
H327 H 0.74668 0.485 0.81283 0.0
H328 H 0.66347 0.47397 0.76673 0.0
H329 H 0.70412 0.48165 0.74039 0.0
H330 H 0.66836 0.58335 0.04051 0.0
H331 H 0.70953 0.58921 0.02363 0.0
H332 H 0.63561 0.5439 0.07569 0.0
H333 H 0.61397 0.5174 0.01742 0.0
C334 C 0.95222 0.65261 0.02869 0.0
C335 C 0.94773 0.6811 0.96174 0.0
C336 C 0.98813 0.66374 0.86173 0.0
C337 C 0.99378 0.63644 0.93077 0.0
N338 N 0.98694 0.60823 0.08678 0.0
N339 N 0.96683 0.71772 0.82494 0.0
C340 C 0.9776 0.63198 0.01661 0.0
C341 C 0.96721 0.68783 0.88097 0.0
N342 N 0.9313 0.64432 0.10109 0.0
N343 N 0.00205 0.66602 0.77688 0.0
H344 H 0.95278 0.73654 0.83848 0.0
H345 H 0.98277 0.725 0.77018 0.0
H346 H 0.01776 0.64879 0.76157 0.0
H347 H 0.99618 0.68349 0.72017 0.0
H348 H 0.93195 0.62252 0.14789 0.0
H349 H 0.91137 0.6578 0.11013 0.0
H350 H 0.97855 0.60596 0.15424 0.0
H351 H 0.00552 0.59278 0.0794 0.0
C352 C 0.11274 0.10824 0.71098 0.0
C353 C 0.10072 0.13747 0.73161 0.0
C354 C 0.0528 0.10763 0.80253 0.0
C355 C 0.06328 0.07894 0.77382 0.0
N356 N 0.10218 0.05237 0.69308 0.0
N357 N 0.05739 0.16659 0.78342 0.0
C358 C 0.0928 0.07945 0.72501 0.0
C359 C 0.07025 0.13762 0.77396 0.0
N360 N 0.14385 0.10763 0.68236 0.0
N361 N 0.02639 0.10624 0.85802 0.0
H362 H 0.06933 0.18912 0.76297 0.0
H363 H 0.03383 0.16863 0.80414 0.0
H364 H 0.01207 0.08518 0.87713 0.0
H365 H 0.01994 0.12532 0.89054 0.0
H366 H 0.15544 0.08634 0.67708 0.0
H367 H 0.15927 0.1282 0.67181 0.0
H368 H 0.12162 0.05237 0.64901 0.0
H369 H 0.08991 0.02992 0.70692 0.0
C370 C 0.39172 0.95087 0.78251 0.0
C371 C 0.37711 0.97375 0.71386 0.0
C372 C 0.4262 0.00845 0.69828 0.0
C373 C 0.44212 0.98354 0.75815 0.0
N374 N 0.44127 0.92928 0.84924 0.0
N375 N 0.38023 0.02349 0.60175 0.0
C376 C 0.42512 0.95437 0.79899 0.0
C377 C 0.39429 0.00238 0.67072 0.0
N378 N 0.37359 0.92575 0.8316 0.0
N379 N 0.44098 0.03843 0.67094 0.0
H380 H 0.35617 0.02114 0.58418 0.0
H381 H 0.39278 0.04224 0.55858 0.0
H382 H 0.4642 0.0442 0.68981 0.0
H383 H 0.42929 0.05864 0.63636 0.0
H384 H 0.38196 0.91007 0.889 0.0
H385 H 0.34917 0.92242 0.81993 0.0
H386 H 0.43093 0.90623 0.87298 0.0
H387 H 0.4659 0.93042 0.86035 0.0
C388 C 0.4938 0.37323 0.68824 0.0
C389 C 0.46768 0.35556 0.73769 0.0
C390 C 0.46203 0.39918 0.82771 0.0
C391 C 0.48587 0.41832 0.77178 0.0
N392 N 0.52083 0.4259 0.63872 0.0
N393 N 0.42273 0.35456 0.84146 0.0
C394 C 0.50085 0.40597 0.69928 0.0
C395 C 0.45066 0.36927 0.80403 0.0
N396 N 0.51248 0.35838 0.63295 0.0
N397 N 0.45106 0.40886 0.90569 0.0
H398 H 0.41308 0.33293 0.82497 0.0
H399 H 0.4075 0.36545 0.88205 0.0
H400 H 0.45886 0.4304 0.92658 0.0
H401 H 0.43653 0.39399 0.95453 0.0
H402 H 0.53377 0.36883 0.60257 0.0
H403 H 0.50826 0.33433 0.624 0.0
H404 H 0.52993 0.4193 0.57912 0.0
H405 H 0.52606 0.45021 0.64327 0.0
C406 C 0.1205 0.48407 0.58556 0.0
C407 C 0.15134 0.49382 0.61324 0.0
C408 C 0.1291 0.50583 0.7569 0.0
C409 C 0.09834 0.49519 0.73026 0.0
N410 N 0.0647 0.47104 0.62514 0.0
N411 N 0.18653 0.51001 0.72751 0.0
C412 C 0.09405 0.48327 0.64643 0.0
C413 C 0.15607 0.50372 0.69951 0.0
N414 N 0.11636 0.47678 0.49933 0.0
N415 N 0.13251 0.51775 0.83727 0.0
H416 H 0.20668 0.50898 0.68645 0.0
H417 H 0.19233 0.51414 0.79319 0.0
H418 H 0.11404 0.51722 0.88506 0.0
H419 H 0.15327 0.52945 0.85571 0.0
H420 H 0.09415 0.47368 0.46951 0.0
H421 H 0.13538 0.47567 0.45458 0.0
H422 H 0.06091 0.45793 0.57201 0.0
H423 H 0.04398 0.47248 0.66332 0.0
C424 C 0.96833 0.84427 0.91598 0.0
C425 C 0.94324 0.84298 0.98166 0.0
C426 C 0.95542 0.89979 0.99624 0.0
C427 C 0.98196 0.90059 0.93475 0.0
N428 N 0.01542 0.87304 0.84177 0.0
N429 N 0.91273 0.86818 0.08675 0.0
C430 C 0.9887 0.87273 0.89556 0.0
C431 C 0.93693 0.87032 0.02299 0.0
N432 N 0.9726 0.81821 0.8728 0.0
N433 N 0.94651 0.92777 0.02431 0.0
H434 H 0.89686 0.84808 0.1022 0.0
H435 H 0.90883 0.88558 0.12765 0.0
H436 H 0.95812 0.95028 0.00388 0.0
H437 H 0.92571 0.9299 0.06099 0.0
H438 H 0.98736 0.81896 0.81555 0.0
H439 H 0.96004 0.79593 0.89089 0.0
H440 H 0.02409 0.85257 0.81993 0.0
H441 H 0.03048 0.89353 0.8233 0.0
C442 C 0.65634 0.05019 0.01663 0.0
C443 C 0.68329 0.03701 0.97843 0.0
C444 C 0.64737 0.01136 0.87861 0.0
C445 C 0.62082 0.02587 0.9134 0.0
N446 N 0.60159 0.06696 0.9941 0.0
N447 N 0.70467 0.0142 0.8528 0.0
C448 C 0.62581 0.04783 0.9755 0.0
C449 C 0.67882 0.0206 0.90263 0.0
N450 N 0.65897 0.06298 0.09556 0.0
N451 N 0.64271 0.98729 0.82741 0.0
H452 H 0.72797 0.02176 0.86663 0.0
H453 H 0.70255 0.00484 0.79192 0.0
H454 H 0.62011 0.97847 0.81185 0.0
H455 H 0.66128 0.97371 0.80863 0.0
H456 H 0.63919 0.06886 0.13165 0.0
H457 H 0.68027 0.06499 0.1305 0.0
H458 H 0.60497 0.08581 0.03147 0.0
H459 H 0.57903 0.06637 0.96403 0.0
C460 C 0.53513 0.65308 0.86886 0.0
C461 C 0.56009 0.65385 0.93376 0.0
C462 C 0.55636 0.59416 0.97355 0.0
C463 C 0.53475 0.59329 0.89955 0.0
N464 N 0.50877 0.62234 0.76412 0.0
N465 N 0.59883 0.6246 0.03572 0.0
C466 C 0.52529 0.62284 0.84399 0.0
C467 C 0.57188 0.62423 0.9832 0.0
N468 N 0.52038 0.68114 0.83212 0.0
N469 N 0.56159 0.56634 0.03571 0.0
H470 H 0.61155 0.64595 0.04294 0.0
H471 H 0.61038 0.60356 0.06511 0.0
H472 H 0.54907 0.54431 0.03463 0.0
H473 H 0.57593 0.56574 0.09368 0.0
H474 H 0.49993 0.68144 0.79151 0.0
H475 H 0.52657 0.70369 0.8499 0.0
H476 H 0.50437 0.64335 0.71651 0.0
H477 H 0.50236 0.60097 0.74015 0.0
C478 C 0.91654 0.52866 0.13551 0.0
C479 C 0.88856 0.51823 0.09232 0.0
C480 C 0.91813 0.47428 0.04351 0.0
C481 C 0.94695 0.48925 0.06856 0.0
N482 N 0.97292 0.52006 0.17134 0.0
N483 N 0.86131 0.47947 0.01285 0.0
C484 C 0.94576 0.51298 0.12609 0.0
C485 C 0.88886 0.4902 0.04972 0.0
N486 N 0.91563 0.55481 0.17972 0.0
N487 N 0.91856 0.44439 0.01785 0.0
H488 H 0.83901 0.48892 0.02238 0.0
H489 H 0.86065 0.46217 0.9698 0.0
H490 H 0.93896 0.43057 0.0233 0.0
H491 H 0.89811 0.43128 0.00339 0.0
H492 H 0.93541 0.56468 0.20902 0.0
H493 H 0.89501 0.56765 0.18538 0.0
H494 H 0.97435 0.536 0.21815 0.0
H495 H 0.9937 0.50718 0.1676 0.0
C496 C 0.09471 0.04373 0.36484 0.0
C497 C 0.09279 0.07818 0.34024 0.0
C498 C 0.05965 0.07147 0.20719 0.0
C499 C 0.06381 0.03741 0.22766 0.0
N500 N 0.08944 0.99135 0.31488 0.0
N501 N 0.07944 0.12506 0.2268 0.0
C502 C 0.08264 0.02362 0.30328 0.0
C503 C 0.07693 0.09216 0.25816 0.0
N504 N 0.10661 0.03011 0.44871 0.0
N505 N 0.03823 0.08389 0.14127 0.0
H506 H 0.09273 0.14099 0.26054 0.0
H507 H 0.07107 0.13614 0.16265 0.0
H508 H 0.02473 0.06927 0.10392 0.0
H509 H 0.0317 0.10816 0.1296 0.0
H510 H 0.10532 0.00515 0.47448 0.0
H511 H 0.11528 0.04392 0.49632 0.0
H512 H 0.10564 0.98034 0.36338 0.0
H513 H 0.08078 0.97617 0.27053 0.0
C514 C 0.39027 0.96548 0.22029 0.0
C515 C 0.39131 0.97422 0.3091 0.0
C516 C 0.44842 0.98924 0.2873 0.0
C517 C 0.44804 0.97745 0.2031 0.0
N518 N 0.42037 0.94797 0.09833 0.0
N519 N 0.42327 0.9868 0.43615 0.0
C520 C 0.41942 0.96379 0.17187 0.0
C521 C 0.42091 0.98408 0.34524 0.0
N522 N 0.36149 0.95988 0.18082 0.0
N523 N 0.47485 0.00612 0.3107 0.0
H524 H 0.40423 0.98128 0.48264 0.0
H525 H 0.44493 0.991 0.4678 0.0
H526 H 0.49515 0.01078 0.26855 0.0
H527 H 0.47543 0.01809 0.36707 0.0
H528 H 0.35925 0.95671 0.11251 0.0
H529 H 0.33959 0.96142 0.21348 0.0
H530 H 0.40082 0.9349 0.07758 0.0
H531 H 0.44156 0.94511 0.06372 0.0
C532 C 0.46782 0.46869 0.24836 0.0
C533 C 0.47932 0.43725 0.28265 0.0
C534 C 0.5015 0.43453 0.13056 0.0
C535 C 0.49251 0.4671 0.0983 0.0
N536 N 0.47363 0.51775 0.13273 0.0
N537 N 0.5142 0.39396 0.26305 0.0
C538 C 0.47752 0.48498 0.15899 0.0
C539 C 0.49828 0.42125 0.22571 0.0
N540 N 0.44657 0.48245 0.29925 0.0
N541 N 0.51168 0.4156 0.07007 0.0
H542 H 0.51338 0.38402 0.33322 0.0
H543 H 0.53092 0.3833 0.2263 0.0
H544 H 0.51354 0.4238 0.99917 0.0
H545 H 0.51515 0.39068 0.08909 0.0
H546 H 0.43473 0.50369 0.27334 0.0
H547 H 0.43857 0.47115 0.36457 0.0
H548 H 0.46558 0.53253 0.17739 0.0
H549 H 0.48145 0.53082 0.06912 0.0
C550 C 0.12349 0.49331 0.2248 0.0
C551 C 0.14483 0.46805 0.21878 0.0
C552 C 0.11658 0.45609 0.08291 0.0
C553 C 0.09213 0.47753 0.09809 0.0
N554 N 0.07042 0.51356 0.19235 0.0
N555 N 0.16003 0.42279 0.14865 0.0
C556 C 0.09514 0.49553 0.17116 0.0
C557 C 0.14078 0.44854 0.15005 0.0
N558 N 0.13042 0.5154 0.28096 0.0
N559 N 0.11811 0.44468 0.00167 0.0
H560 H 0.17911 0.4175 0.19391 0.0
H561 H 0.15565 0.40548 0.10665 0.0
H562 H 0.10256 0.45172 0.94722 0.0
H563 H 0.13714 0.43151 0.9838 0.0
H564 H 0.11732 0.53619 0.28125 0.0
H565 H 0.15107 0.51468 0.32092 0.0
H566 H 0.06995 0.52419 0.25119 0.0
H567 H 0.04899 0.5154 0.15611 0.0
C568 C 0.95976 0.92474 0.34878 0.0
C569 C 0.96692 0.89127 0.37445 0.0
C570 C 0.99986 0.9041 0.50182 0.0
C571 C 0.99023 0.93681 0.48115 0.0
N572 N 0.9579 0.97777 0.39474 0.0
N573 N 0.98935 0.848 0.48428 0.0
C574 C 0.96927 0.94698 0.40725 0.0
C575 C 0.98585 0.88061 0.45339 0.0
N576 N 0.94506 0.9355 0.26672 0.0
N577 N 0.02321 0.89584 0.56576 0.0
H578 H 0.97914 0.82999 0.45134 0.0
H579 H 0.99996 0.83867 0.54693 0.0
H580 H 0.0342 0.91266 0.60146 0.0
H581 H 0.03365 0.87316 0.57758 0.0
H582 H 0.94225 0.96005 0.23958 0.0
H583 H 0.93814 0.91998 0.22159 0.0
H584 H 0.94 0.98585 0.34792 0.0
H585 H 0.96471 0.99452 0.43667 0.0
C586 C 0.67251 0.05743 0.45217 0.0
C587 C 0.6775 0.04124 0.37668 0.0
C588 C 0.6251 0.01258 0.40671 0.0
C589 C 0.61876 0.03171 0.47432 0.0
N590 N 0.63424 0.07487 0.55567 0.0
N591 N 0.65721 0.00553 0.27532 0.0
C592 C 0.64197 0.05472 0.49592 0.0
C593 C 0.65359 0.01906 0.35256 0.0
N594 N 0.6973 0.07473 0.48339 0.0
N595 N 0.60393 0.98787 0.39562 0.0
H596 H 0.6777 0.00911 0.23403 0.0
H597 H 0.63896 0.99255 0.24806 0.0
H598 H 0.58272 0.98307 0.4338 0.0
H599 H 0.60848 0.97065 0.3544 0.0
H600 H 0.69617 0.08448 0.54361 0.0
H601 H 0.72013 0.07668 0.45375 0.0
H602 H 0.64882 0.09448 0.56736 0.0
H603 H 0.61192 0.07366 0.58806 0.0
C604 C 0.51231 0.56027 0.40798 0.0
C605 C 0.5388 0.58282 0.38954 0.0
C606 C 0.55281 0.57252 0.55329 0.0
C607 C 0.52825 0.54774 0.57017 0.0
N608 N 0.48868 0.5135 0.51054 0.0
N609 N 0.58876 0.60433 0.44076 0.0
C610 C 0.50915 0.54027 0.49657 0.0
C611 C 0.56038 0.5872 0.46107 0.0
N612 N 0.48932 0.55901 0.34258 0.0
N613 N 0.56792 0.58326 0.6252 0.0
H614 H 0.59584 0.61456 0.37367 0.0
H615 H 0.60674 0.60539 0.48927 0.0
H616 H 0.56263 0.57392 0.69413 0.0
H617 H 0.58344 0.60372 0.61648 0.0
H618 H 0.46778 0.54565 0.35593 0.0
H619 H 0.49029 0.57376 0.27753 0.0
H620 H 0.47662 0.50498 0.45721 0.0
H621 H 0.48611 0.49794 0.5741 0.0
C622 C 0.95857 0.52611 0.52055 0.0
C623 C 0.92945 0.50743 0.52233 0.0
C624 C 0.93468 0.48969 0.68934 0.0
C625 C 0.96575 0.50477 0.68504 0.0
N626 N 0.00947 0.5334 0.59358 0.0
N627 N 0.89153 0.46793 0.60584 0.0
C628 C 0.97828 0.52209 0.59996 0.0
C629 C 0.91782 0.48839 0.60617 0.0
N630 N 0.9669 0.54859 0.44403 0.0
N631 N 0.92095 0.47744 0.77313 0.0
H632 H 0.87872 0.46594 0.54624 0.0
H633 H 0.88406 0.45087 0.66303 0.0
H634 H 0.93245 0.47857 0.83538 0.0
H635 H 0.89715 0.4691 0.78129 0.0
H636 H 0.98615 0.56527 0.44235 0.0
H637 H 0.95275 0.55288 0.38511 0.0
H638 H 0.02089 0.54255 0.531 0.0
H639 H 0.02493 0.53109 0.64963 0.0
loop_
_geom_bond_atom_site_label_1
_geom_bond_atom_site_label_2
_geom_bond_distance
_geom_bond_site_symmetry_2
_ccdc_geom_bond_type
O0 Cd1 2.300 . S
O0 C7 1.275 . S
Cd1 O0 2.300 . S
Cd1 O9 2.381 . S
Cd1 O10 2.378 . S
O2 Cd3 2.385 . S
O2 C7 1.255 . S
Cd3 O2 2.385 . S
Cd3 O4 2.317 . S
O4 Cd3 2.317 . S
O4 C5 1.232 . S
C5 O4 1.232 . S
C5 O6 1.218 . S
O6 C5 1.218 . S
C7 O0 1.275 . S
C7 O2 1.255 . S
C8 O9 1.258 . S
C8 O10 1.256 . S
O9 Cd1 2.381 . S
O9 C8 1.258 . S
O10 Cd1 2.378 . S
O10 C8 1.256 . S
O11 Cd12 2.300 1_556 S
O11 C18 1.275 1_556 S
Cd12 O11 2.300 1_554 S
Cd12 O20 2.381 . S
Cd12 O21 2.378 . S
O13 Cd14 2.385 1_655 S
O13 C18 1.255 . S
Cd14 O13 2.385 1_455 S
Cd14 O15 2.317 1_455 S
O15 Cd14 2.317 1_655 S
O15 C16 1.232 . S
C16 O15 1.232 . S
C16 O17 1.218 . S
O17 C16 1.218 . S
C18 O11 1.275 1_554 S
C18 O13 1.255 . S
C19 O20 1.258 . S
C19 O21 1.256 . S
O20 Cd12 2.381 . S
O20 C19 1.258 . S
O21 Cd12 2.378 . S
O21 C19 1.256 . S
O22 Cd23 2.300 1_566 S
O22 C29 1.275 1_565 S
Cd23 O22 2.300 1_544 S
Cd23 O31 2.381 1_544 S
Cd23 O32 2.378 . S
O24 Cd25 2.385 . S
O24 C29 1.255 1_554 S
Cd25 O24 2.385 . S
Cd25 O26 2.317 . S
O26 Cd25 2.317 . S
O26 C27 1.232 . S
C27 O26 1.232 . S
C27 O28 1.218 . S
O28 C27 1.218 . S
C29 O22 1.275 1_545 S
C29 O24 1.255 1_556 S
C30 O31 1.258 1_545 S
C30 O32 1.256 1_556 S
O31 Cd23 2.381 1_566 S
O31 C30 1.258 1_565 S
O32 Cd23 2.378 . S
O32 C30 1.256 1_554 S
O33 Cd34 2.300 . S
O33 C40 1.275 . S
Cd34 O33 2.300 . S
Cd34 O42 2.381 . S
Cd34 O43 2.378 . S
O35 Cd36 2.385 . S
O35 C40 1.255 . S
Cd36 O35 2.385 . S
Cd36 O37 2.317 . S
O37 Cd36 2.317 . S
O37 C38 1.232 . S
C38 O37 1.232 . S
C38 O39 1.218 . S
O39 C38 1.218 . S
C40 O33 1.275 . S
C40 O35 1.255 . S
C41 O42 1.258 . S
C41 O43 1.256 . S
O42 Cd34 2.381 . S
O42 C41 1.258 . S
O43 Cd34 2.378 . S
O43 C41 1.256 . S
O44 Cd45 2.300 . S
O44 C51 1.275 . S
Cd45 O44 2.300 . S
Cd45 O53 2.381 . S
Cd45 O54 2.378 . S
O46 Cd47 2.385 . S
O46 C51 1.255 . S
Cd47 O46 2.385 . S
Cd47 O48 2.317 . S
O48 Cd47 2.317 . S
O48 C49 1.232 . S
C49 O48 1.232 . S
C49 O50 1.218 . S
O50 C49 1.218 . S
C51 O44 1.275 . S
C51 O46 1.255 . S
C52 O53 1.258 . S
C52 O54 1.256 . S
O53 Cd45 2.381 . S
O53 C52 1.258 . S
O54 Cd45 2.378 . S
O54 C52 1.256 . S
O55 Cd56 2.300 . S
O55 C62 1.275 . S
Cd56 O55 2.300 . S
Cd56 O64 2.381 . S
Cd56 O65 2.378 . S
O57 Cd58 2.385 . S
O57 C62 1.255 . S
Cd58 O57 2.385 . S
Cd58 O59 2.317 . S
O59 Cd58 2.317 . S
O59 C60 1.232 . S
C60 O59 1.232 . S
C60 O61 1.218 . S
O61 C60 1.218 . S
C62 O55 1.275 . S
C62 O57 1.255 . S
C63 O64 1.258 . S
C63 O65 1.256 . S
O64 Cd56 2.381 . S
O64 C63 1.258 . S
O65 Cd56 2.378 . S
O65 C63 1.256 . S
O66 Cd67 2.300 1_565 S
O66 C73 1.275 1_565 S
Cd67 O66 2.300 1_545 S
Cd67 O75 2.381 1_545 S
Cd67 O76 2.378 . S
O68 Cd69 2.385 . S
O68 C73 1.255 . S
Cd69 O68 2.385 . S
Cd69 O70 2.317 . S
O70 Cd69 2.317 . S
O70 C71 1.232 . S
C71 O70 1.232 . S
C71 O72 1.218 . S
O72 C71 1.218 . S
C73 O66 1.275 1_545 S
C73 O68 1.255 . S
C74 O75 1.258 1_545 S
C74 O76 1.256 . S
O75 Cd67 2.381 1_565 S
O75 C74 1.258 1_565 S
O76 Cd67 2.378 . S
O76 C74 1.256 . S
O77 Cd78 2.300 . S
O77 C84 1.275 . S
Cd78 O77 2.300 . S
Cd78 O86 2.381 . S
Cd78 O87 2.378 . S
O79 Cd80 2.385 . S
O79 C84 1.255 . S
Cd80 O79 2.385 . S
Cd80 O81 2.317 . S
O81 Cd80 2.317 . S
O81 C82 1.232 . S
C82 O81 1.232 . S
C82 O83 1.218 . S
O83 C82 1.218 . S
C84 O77 1.275 . S
C84 O79 1.255 . S
C85 O86 1.258 . S
C85 O87 1.256 . S
O86 Cd78 2.381 . S
O86 C85 1.258 . S
O87 Cd78 2.378 . S
O87 C85 1.256 . S
Co88 N93 2.057 1_556 S
Co88 O105 2.021 . S
Co88 O108 2.062 . S
Co88 O112 2.117 1_455 S
Co88 O113 2.020 1_545 S
C89 O109 1.259 1_545 S
C89 O112 1.258 . S
Co90 N99 2.057 . S
Co90 O106 2.117 . S
Co90 O107 2.020 1_565 S
Co90 O109 2.021 1_455 S
Co90 O114 2.062 . S
C91 N93 1.316 . S
C91 N94 1.347 . S
C91 H96 0.931 . S
C92 N93 1.375 . S
C92 C95 1.350 . S
C92 H97 0.930 1_455 S
N93 Co88 2.057 1_554 S
N93 C91 1.316 . S
N93 C92 1.375 . S
N94 C91 1.347 . S
N94 C95 1.373 . S
C95 C92 1.350 . S
C95 N94 1.373 . S
C95 H116 0.931 . S
H96 C91 0.931 . S
H97 C92 0.930 1_655 S
C98 O105 1.259 1_565 S
C98 O106 1.258 . S
N99 Co90 2.057 . S
N99 C100 1.316 1_455 S
N99 C101 1.375 . S
C100 N99 1.316 1_655 S
C100 N102 1.347 . S
C100 H111 0.931 . S
C101 N99 1.375 . S
C101 C103 1.350 . S
C101 H110 0.930 . S
N102 C100 1.347 . S
N102 C103 1.373 1_655 S
C103 C101 1.350 . S
C103 N102 1.373 1_455 S
C103 H117 0.931 . S
C104 O107 1.256 . S
C104 O108 1.255 . S
O105 Co88 2.021 . S
O105 C98 1.259 1_545 S
O106 Co90 2.117 . S
O106 C98 1.258 . S
O107 Co90 2.020 1_545 S
O107 C104 1.256 . S
O108 Co88 2.062 . S
O108 C104 1.255 . S
O109 C89 1.259 1_565 S
O109 Co90 2.021 1_655 S
H110 C101 0.930 . S
H111 C100 0.931 . S
O112 Co88 2.117 1_655 S
O112 C89 1.258 . S
O113 Co88 2.020 1_565 S
O113 C115 1.256 . S
O114 Co90 2.062 . S
O114 C115 1.255 . S
C115 O113 1.256 . S
C115 O114 1.255 . S
H116 C95 0.931 . S
H117 C103 0.931 . S
Co118 N123 2.057 1_546 S
Co118 O135 2.021 . S
Co118 O138 2.067 . S
Co118 O142 2.117 1_545 S
Co118 O143 2.020 . S
C119 O139 1.259 . S
C119 O142 1.258 . S
Co120 N129 2.057 1_565 S
Co120 O136 2.117 1_565 S
Co120 O137 2.020 . S
Co120 O139 2.021 . S
Co120 O144 2.066 . S
C121 N123 1.316 1_545 S
C121 N124 1.347 . S
C121 H126 0.931 . S
C122 N123 1.375 . S
C122 C125 1.350 . S
C122 H127 0.930 . S
N123 Co118 2.057 1_564 S
N123 C121 1.316 1_565 S
N123 C122 1.375 . S
N124 C121 1.347 . S
N124 C125 1.373 1_545 S
C125 C122 1.350 . S
C125 N124 1.373 1_565 S
C125 H146 0.931 . S
H126 C121 0.931 . S
H127 C122 0.930 . S
C128 O135 1.259 . S
C128 O136 1.258 . S
N129 Co120 2.057 1_545 S
N129 C130 1.316 1_545 S
N129 C131 1.375 . S
C130 N129 1.316 1_565 S
C130 N132 1.347 . S
C130 H141 0.931 . S
C131 N129 1.375 . S
C131 C133 1.350 . S
C131 H140 0.930 . S
N132 C130 1.347 . S
N132 C133 1.373 1_565 S
C133 C131 1.350 . S
C133 N132 1.373 1_545 S
C133 H147 0.931 . S
C134 O137 1.256 . S
C134 O138 1.244 1_565 S
O135 Co118 2.021 . S
O135 C128 1.259 . S
O136 Co120 2.117 1_545 S
O136 C128 1.258 . S
O137 Co120 2.020 . S
O137 C134 1.256 . S
O138 Co118 2.067 . S
O138 C134 1.244 1_545 S
O139 C119 1.259 . S
O139 Co120 2.021 . S
H140 C131 0.930 . S
H141 C130 0.931 . S
O142 Co118 2.117 1_565 S
O142 C119 1.258 . S
O143 Co118 2.020 . S
O143 C145 1.256 . S
O144 Co120 2.066 . S
O144 C145 1.246 1_565 S
C145 O143 1.256 . S
C145 O144 1.246 1_545 S
H146 C125 0.931 . S
H147 C133 0.931 . S
Co148 N153 2.057 . S
Co148 O165 2.021 . S
Co148 O168 2.062 . S
Co148 O172 2.117 . S
Co148 O173 2.020 . S
C149 O169 1.264 . S
C149 O172 1.261 . S
Co150 N159 2.057 . S
Co150 O166 2.117 . S
Co150 O167 2.020 . S
Co150 O169 2.021 . S
Co150 O174 2.062 . S
C151 N153 1.316 . S
C151 N154 1.347 . S
C151 H156 0.931 . S
C152 N153 1.375 . S
C152 C155 1.350 1_556 S
C152 H157 0.930 1_556 S
N153 Co148 2.057 . S
N153 C151 1.316 . S
N153 C152 1.375 . S
N154 C151 1.347 . S
N154 C155 1.373 1_556 S
C155 C152 1.350 1_554 S
C155 N154 1.373 1_554 S
C155 H176 0.931 . S
H156 C151 0.931 . S
H157 C152 0.930 1_554 S
C158 O165 1.259 . S
C158 O166 1.258 . S
N159 Co150 2.057 . S
N159 C160 1.316 . S
N159 C161 1.375 . S
C160 N159 1.316 . S
C160 N162 1.347 . S
C160 H171 0.931 . S
C161 N159 1.375 . S
C161 C163 1.350 . S
C161 H170 0.930 . S
N162 C160 1.347 . S
N162 C163 1.373 . S
C163 C161 1.350 . S
C163 N162 1.373 . S
C163 H177 0.931 . S
C164 O167 1.256 . S
C164 O168 1.255 . S
O165 Co148 2.021 . S
O165 C158 1.259 . S
O166 Co150 2.117 . S
O166 C158 1.258 . S
O167 Co150 2.020 . S
O167 C164 1.256 . S
O168 Co148 2.062 . S
O168 C164 1.255 . S
O169 C149 1.264 . S
O169 Co150 2.021 . S
H170 C161 0.930 . S
H171 C160 0.931 . S
O172 Co148 2.117 . S
O172 C149 1.261 . S
O173 Co148 2.020 . S
O173 C175 1.256 . S
O174 Co150 2.062 . S
O174 C175 1.255 . S
C175 O173 1.256 . S
C175 O174 1.255 . S
H176 C155 0.931 . S
H177 C163 0.931 . S
Co178 N183 2.057 . S
Co178 O195 2.021 1_455 S
Co178 O198 2.062 1_455 S
Co178 O202 2.117 . S
Co178 O203 2.020 . S
C179 O199 1.259 . S
C179 O202 1.258 . S
Co180 N189 2.057 . S
Co180 O196 2.117 1_455 S
Co180 O197 2.020 1_455 S
Co180 O199 2.021 . S
Co180 O204 2.062 . S
C181 N183 1.316 . S
C181 N184 1.347 . S
C181 H186 0.931 1_455 S
C182 N183 1.375 . S
C182 C185 1.350 . S
C182 H187 0.930 . S
N183 Co178 2.057 . S
N183 C181 1.316 . S
N183 C182 1.375 . S
N184 C181 1.347 . S
N184 C185 1.373 . S
C185 C182 1.350 . S
C185 N184 1.373 . S
C185 H206 0.931 . S
H186 C181 0.931 1_655 S
H187 C182 0.930 . S
C188 O195 1.259 . S
C188 O196 1.258 . S
N189 Co180 2.057 . S
N189 C190 1.316 . S
N189 C191 1.375 1_455 S
C190 N189 1.316 . S
C190 N192 1.347 . S
C190 H201 0.931 . S
C191 N189 1.375 1_655 S
C191 C193 1.350 1_655 S
C191 H200 0.930 . S
N192 C190 1.347 . S
N192 C193 1.373 . S
C193 C191 1.350 1_455 S
C193 N192 1.373 . S
C193 H207 0.931 1_455 S
C194 O197 1.256 . S
C194 O198 1.255 . S
O195 Co178 2.021 1_655 S
O195 C188 1.259 . S
O196 Co180 2.117 1_655 S
O196 C188 1.258 . S
O197 Co180 2.020 1_655 S
O197 C194 1.256 . S
O198 Co178 2.062 1_655 S
O198 C194 1.255 . S
O199 C179 1.259 . S
O199 Co180 2.021 . S
H200 C191 0.930 . S
H201 C190 0.931 . S
O202 Co178 2.117 . S
O202 C179 1.258 . S
O203 Co178 2.020 . S
O203 C205 1.256 . S
O204 Co180 2.062 . S
O204 C205 1.255 . S
C205 O203 1.256 . S
C205 O204 1.255 . S
H206 C185 0.931 . S
H207 C193 0.931 1_655 S
C208 C209 1.363 . S
C208 C214 1.379 . S
C208 N216 1.356 . S
C209 C208 1.363 . S
C209 C215 1.363 1_565 S
C210 C211 1.363 1_545 S
C210 C215 1.379 . S
C210 N217 1.356 . S
C211 C210 1.363 1_565 S
C211 C214 1.363 . S
N212 C214 1.356 . S
N212 H224 0.984 . S
N212 H225 0.985 . S
N213 C215 1.356 . S
N213 H218 0.984 . S
N213 H219 0.985 . S
C214 C208 1.379 . S
C214 C211 1.363 . S
C214 N212 1.356 . S
C215 C209 1.363 1_545 S
C215 C210 1.379 . S
C215 N213 1.356 . S
N216 C208 1.356 . S
N216 H222 0.984 . S
N216 H223 0.984 . S
N217 C210 1.356 . S
N217 H220 0.984 . S
N217 H221 0.985 . S
H218 N213 0.984 . S
H219 N213 0.985 . S
H220 N217 0.984 . S
H221 N217 0.985 . S
H222 N216 0.984 . S
H223 N216 0.984 . S
H224 N212 0.984 . S
H225 N212 0.985 . S
C226 C227 1.363 . S
C226 C232 1.379 . S
C226 N234 1.356 . S
C227 C226 1.363 . S
C227 C233 1.363 . S
C228 C229 1.363 . S
C228 C233 1.379 . S
C228 N235 1.356 . S
C229 C228 1.363 . S
C229 C232 1.363 . S
N230 C232 1.356 . S
N230 H242 0.984 . S
N230 H243 0.985 . S
N231 C233 1.356 . S
N231 H236 0.984 . S
N231 H237 0.985 . S
C232 C226 1.379 . S
C232 C229 1.363 . S
C232 N230 1.356 . S
C233 C227 1.363 . S
C233 C228 1.379 . S
C233 N231 1.356 . S
N234 C226 1.356 . S
N234 H240 0.984 . S
N234 H241 0.984 . S
N235 C228 1.356 . S
N235 H238 0.984 . S
N235 H239 0.985 . S
H236 N231 0.984 . S
H237 N231 0.985 . S
H238 N235 0.984 . S
H239 N235 0.985 . S
H240 N234 0.984 . S
H241 N234 0.984 . S
H242 N230 0.984 . S
H243 N230 0.985 . S
C244 C245 1.363 . S
C244 C250 1.379 . S
C244 N252 1.356 . S
C245 C244 1.363 . S
C245 C251 1.363 . S
C246 C247 1.363 . S
C246 C251 1.379 . S
C246 N253 1.356 . S
C247 C246 1.363 . S
C247 C250 1.363 . S
N248 C250 1.356 . S
N248 H260 0.984 . S
N248 H261 0.985 . S
N249 C251 1.356 . S
N249 H254 0.984 . S
N249 H255 0.985 . S
C250 C244 1.379 . S
C250 C247 1.363 . S
C250 N248 1.356 . S
C251 C245 1.363 . S
C251 C246 1.379 . S
C251 N249 1.356 . S
N252 C244 1.356 . S
N252 H258 0.984 . S
N252 H259 0.984 . S
N253 C246 1.356 . S
N253 H256 0.984 . S
N253 H257 0.985 . S
H254 N249 0.984 . S
H255 N249 0.985 . S
H256 N253 0.984 . S
H257 N253 0.985 . S
H258 N252 0.984 . S
H259 N252 0.984 . S
H260 N248 0.984 . S
H261 N248 0.985 . S
C262 C263 1.363 . S
C262 C268 1.379 . S
C262 N270 1.356 . S
C263 C262 1.363 . S
C263 C269 1.363 . S
C264 C265 1.363 . S
C264 C269 1.379 . S
C264 N271 1.356 . S
C265 C264 1.363 . S
C265 C268 1.363 . S
N266 C268 1.356 . S
N266 H278 0.984 . S
N266 H279 0.985 . S
N267 C269 1.356 . S
N267 H272 0.984 . S
N267 H273 0.985 . S
C268 C262 1.379 . S
C268 C265 1.363 . S
C268 N266 1.356 . S
C269 C263 1.363 . S
C269 C264 1.379 . S
C269 N267 1.356 . S
N270 C262 1.356 . S
N270 H276 0.984 . S
N270 H277 0.984 . S
N271 C264 1.356 . S
N271 H274 0.984 . S
N271 H275 0.985 . S
H272 N267 0.984 . S
H273 N267 0.985 . S
H274 N271 0.984 . S
H275 N271 0.985 . S
H276 N270 0.984 . S
H277 N270 0.984 . S
H278 N266 0.984 . S
H279 N266 0.985 . S
C280 C281 1.363 . S
C280 C286 1.379 . S
C280 N288 1.356 . S
C281 C280 1.363 . S
C281 C287 1.363 1_545 S
C282 C283 1.363 1_565 S
C282 C287 1.379 . S
C282 N289 1.356 . S
C283 C282 1.363 1_545 S
C283 C286 1.363 . S
N284 C286 1.356 . S
N284 H296 0.984 . S
N284 H297 0.985 . S
N285 C287 1.356 1_554 S
N285 H290 0.984 . S
N285 H291 0.985 . S
C286 C280 1.379 . S
C286 C283 1.363 . S
C286 N284 1.356 . S
C287 C281 1.363 1_565 S
C287 C282 1.379 . S
C287 N285 1.356 1_556 S
N288 C280 1.356 . S
N288 H294 0.984 . S
N288 H295 0.984 . S
N289 C282 1.356 . S
N289 H292 0.984 . S
N289 H293 0.985 1_556 S
H290 N285 0.984 . S
H291 N285 0.985 . S
H292 N289 0.984 . S
H293 N289 0.985 1_554 S
H294 N288 0.984 . S
H295 N288 0.984 . S
H296 N284 0.984 . S
H297 N284 0.985 . S
C298 C299 1.363 . S
C298 C304 1.379 1_554 S
C298 N306 1.356 . S
C299 C298 1.363 . S
C299 C305 1.363 1_554 S
C300 C301 1.363 . S
C300 C305 1.379 . S
C300 N307 1.356 . S
C301 C300 1.363 . S
C301 C304 1.363 . S
N302 C304 1.356 . S
N302 H314 0.984 1_556 S
N302 H315 0.985 . S
N303 C305 1.356 . S
N303 H308 0.984 . S
N303 H309 0.985 . S
C304 C298 1.379 1_556 S
C304 C301 1.363 . S
C304 N302 1.356 . S
C305 C299 1.363 1_556 S
C305 C300 1.379 . S
C305 N303 1.356 . S
N306 C298 1.356 . S
N306 H312 0.984 . S
N306 H313 0.984 . S
N307 C300 1.356 . S
N307 H310 0.984 . S
N307 H311 0.985 . S
H308 N303 0.984 . S
H309 N303 0.985 . S
H310 N307 0.984 . S
H311 N307 0.985 . S
H312 N306 0.984 . S
H313 N306 0.984 . S
H314 N302 0.984 1_554 S
H315 N302 0.985 . S
C316 C317 1.363 . S
C316 C322 1.379 . S
C316 N324 1.356 . S
C317 C316 1.363 . S
C317 C323 1.363 . S
C318 C319 1.363 . S
C318 C323 1.379 1_556 S
C318 N325 1.356 . S
C319 C318 1.363 . S
C319 C322 1.363 1_556 S
N320 C322 1.356 . S
N320 H332 0.984 . S
N320 H333 0.985 1_554 S
N321 C323 1.356 . S
N321 H326 0.984 . S
N321 H327 0.985 1_554 S
C322 C316 1.379 . S
C322 C319 1.363 1_554 S
C322 N320 1.356 . S
C323 C317 1.363 . S
C323 C318 1.379 1_554 S
C323 N321 1.356 . S
N324 C316 1.356 . S
N324 H330 0.984 . S
N324 H331 0.984 . S
N325 C318 1.356 . S
N325 H328 0.984 . S
N325 H329 0.985 . S
H326 N321 0.984 . S
H327 N321 0.985 1_556 S
H328 N325 0.984 . S
H329 N325 0.985 . S
H330 N324 0.984 . S
H331 N324 0.984 . S
H332 N320 0.984 . S
H333 N320 0.985 1_556 S
C334 C335 1.363 . S
C334 C340 1.379 1_554 S
C334 N342 1.356 . S
C335 C334 1.363 . S
C335 C341 1.363 1_554 S
C336 C337 1.363 . S
C336 C341 1.379 . S
C336 N343 1.356 1_655 S
C337 C336 1.363 . S
C337 C340 1.363 . S
N338 C340 1.356 1_554 S
N338 H350 0.984 . S
N338 H351 0.985 1_654 S
N339 C341 1.356 . S
N339 H344 0.984 . S
N339 H345 0.985 . S
C340 C334 1.379 1_556 S
C340 C337 1.363 . S
C340 N338 1.356 1_556 S
C341 C335 1.363 1_556 S
C341 C336 1.379 . S
C341 N339 1.356 . S
N342 C334 1.356 . S
N342 H348 0.984 . S
N342 H349 0.984 . S
N343 C336 1.356 1_455 S
N343 H346 0.984 . S
N343 H347 0.985 . S
H344 N339 0.984 . S
H345 N339 0.985 . S
H346 N343 0.984 . S
H347 N343 0.985 . S
H348 N342 0.984 . S
H349 N342 0.984 . S
H350 N338 0.984 . S
H351 N338 0.985 1_456 S
C352 C353 1.363 . S
C352 C358 1.379 . S
C352 N360 1.356 . S
C353 C352 1.363 . S
C353 C359 1.363 . S
C354 C355 1.363 . S
C354 C359 1.379 . S
C354 N361 1.356 . S
C355 C354 1.363 . S
C355 C358 1.363 . S
N356 C358 1.356 . S
N356 H368 0.984 . S
N356 H369 0.985 . S
N357 C359 1.356 . S
N357 H362 0.984 . S
N357 H363 0.985 . S
C358 C352 1.379 . S
C358 C355 1.363 . S
C358 N356 1.356 . S
C359 C353 1.363 . S
C359 C354 1.379 . S
C359 N357 1.356 . S
N360 C352 1.356 . S
N360 H366 0.984 . S
N360 H367 0.984 . S
N361 C354 1.356 . S
N361 H364 0.984 1_455 S
N361 H365 0.985 1_455 S
H362 N357 0.984 . S
H363 N357 0.985 . S
H364 N361 0.984 1_655 S
H365 N361 0.985 1_655 S
H366 N360 0.984 . S
H367 N360 0.984 . S
H368 N356 0.984 . S
H369 N356 0.985 . S
C370 C371 1.370 . S
C370 C376 1.379 . S
C370 N378 1.356 . S
C371 C370 1.370 . S
C371 C377 1.360 1_565 S
C372 C373 1.363 1_545 S
C372 C377 1.379 . S
C372 N379 1.356 . S
C373 C372 1.363 1_565 S
C373 C376 1.363 . S
N374 C376 1.356 . S
N374 H386 0.984 . S
N374 H387 0.985 . S
N375 C377 1.356 . S
N375 H380 0.984 . S
N375 H381 0.985 . S
C376 C370 1.379 . S
C376 C373 1.363 . S
C376 N374 1.356 . S
C377 C371 1.360 1_545 S
C377 C372 1.379 . S
C377 N375 1.356 . S
N378 C370 1.356 . S
N378 H384 0.984 . S
N378 H385 0.984 . S
N379 C372 1.356 . S
N379 H382 0.984 . S
N379 H383 0.985 . S
H380 N375 0.984 . S
H381 N375 0.985 . S
H382 N379 0.984 . S
H383 N379 0.985 . S
H384 N378 0.984 . S
H385 N378 0.984 . S
H386 N374 0.984 . S
H387 N374 0.985 . S
C388 C389 1.363 . S
C388 C394 1.379 . S
C388 N396 1.356 . S
C389 C388 1.363 . S
C389 C395 1.363 . S
C390 C391 1.363 . S
C390 C395 1.379 . S
C390 N397 1.356 . S
C391 C390 1.363 . S
C391 C394 1.363 . S
N392 C394 1.356 . S
N392 H404 0.984 . S
N392 H405 0.985 . S
N393 C395 1.356 . S
N393 H398 0.984 . S
N393 H399 0.985 . S
C394 C388 1.379 . S
C394 C391 1.363 . S
C394 N392 1.356 . S
C395 C389 1.363 . S
C395 C390 1.379 . S
C395 N393 1.356 . S
N396 C388 1.356 . S
N396 H402 0.984 . S
N396 H403 0.984 . S
N397 C390 1.356 . S
N397 H400 0.984 . S
N397 H401 0.985 . S
H398 N393 0.984 . S
H399 N393 0.985 . S
H400 N397 0.984 . S
H401 N397 0.985 . S
H402 N396 0.984 . S
H403 N396 0.984 . S
H404 N392 0.984 . S
H405 N392 0.985 . S
C406 C407 1.363 . S
C406 C412 1.379 . S
C406 N414 1.356 . S
C407 C406 1.363 . S
C407 C413 1.363 . S
C408 C409 1.363 . S
C408 C413 1.379 . S
C408 N415 1.356 . S
C409 C408 1.363 . S
C409 C412 1.363 . S
N410 C412 1.356 . S
N410 H422 0.984 . S
N410 H423 0.985 . S
N411 C413 1.356 . S
N411 H416 0.984 . S
N411 H417 0.985 . S
C412 C406 1.379 . S
C412 C409 1.363 . S
C412 N410 1.356 . S
C413 C407 1.363 . S
C413 C408 1.379 . S
C413 N411 1.356 . S
N414 C406 1.356 . S
N414 H420 0.984 . S
N414 H421 0.984 . S
N415 C408 1.356 . S
N415 H418 0.984 . S
N415 H419 0.985 . S
H416 N411 0.984 . S
H417 N411 0.985 . S
H418 N415 0.984 . S
H419 N415 0.985 . S
H420 N414 0.984 . S
H421 N414 0.984 . S
H422 N410 0.984 . S
H423 N410 0.985 . S
C424 C425 1.363 . S
C424 C430 1.379 1_655 S
C424 N432 1.356 . S
C425 C424 1.363 . S
C425 C431 1.363 1_556 S
C426 C427 1.363 1_654 S
C426 C431 1.379 . S
C426 N433 1.356 . S
C427 C426 1.363 1_456 S
C427 C430 1.363 . S
N428 C430 1.356 . S
N428 H440 0.984 . S
N428 H441 0.985 . S
N429 C431 1.356 . S
N429 H434 0.984 . S
N429 H435 0.985 . S
C430 C424 1.379 1_455 S
C430 C427 1.363 . S
C430 N428 1.356 . S
C431 C425 1.363 1_554 S
C431 C426 1.379 . S
C431 N429 1.356 . S
N432 C424 1.356 . S
N432 H438 0.984 . S
N432 H439 0.984 . S
N433 C426 1.356 . S
N433 H436 0.984 1_655 S
N433 H437 0.985 . S
H434 N429 0.984 . S
H435 N429 0.985 . S
H436 N433 0.984 1_455 S
H437 N433 0.985 . S
H438 N432 0.984 . S
H439 N432 0.984 . S
H440 N428 0.984 . S
H441 N428 0.985 . S
C442 C443 1.382 1_554 S
C442 C448 1.379 . S
C442 N450 1.356 . S
C443 C442 1.382 1_556 S
C443 C449 1.348 1_545 S
C444 C445 1.363 1_565 S
C444 C449 1.379 . S
C444 N451 1.356 . S
C445 C444 1.363 1_545 S
C445 C448 1.363 1_556 S
N446 C448 1.356 . S
N446 H458 0.984 . S
N446 H459 0.985 . S
N447 C449 1.356 . S
N447 H452 0.984 . S
N447 H453 0.985 . S
C448 C442 1.379 . S
C448 C445 1.363 1_554 S
C448 N446 1.356 . S
C449 C443 1.348 1_565 S
C449 C444 1.379 . S
C449 N447 1.356 . S
N450 C442 1.356 . S
N450 H456 0.984 . S
N450 H457 0.984 . S
N451 C444 1.356 . S
N451 H454 0.984 . S
N451 H455 0.985 . S
H452 N447 0.984 . S
H453 N447 0.985 . S
H454 N451 0.984 . S
H455 N451 0.985 . S
H456 N450 0.984 . S
H457 N450 0.984 . S
H458 N446 0.984 . S
H459 N446 0.985 . S
C460 C461 1.363 1_556 S
C460 C466 1.379 . S
C460 N468 1.356 . S
C461 C460 1.363 1_554 S
C461 C467 1.363 . S
C462 C463 1.363 1_554 S
C462 C467 1.379 . S
C462 N469 1.356 . S
C463 C462 1.363 1_556 S
C463 C466 1.363 . S
N464 C466 1.356 . S
N464 H476 0.984 . S
N464 H477 0.985 . S
N465 C467 1.356 . S
N465 H470 0.984 . S
N465 H471 0.985 . S
C466 C460 1.379 . S
C466 C463 1.363 . S
C466 N464 1.356 . S
C467 C461 1.363 . S
C467 C462 1.379 . S
C467 N465 1.356 . S
N468 C460 1.356 . S
N468 H474 0.984 . S
N468 H475 0.984 . S
N469 C462 1.356 . S
N469 H472 0.984 . S
N469 H473 0.985 . S
H470 N465 0.984 . S
H471 N465 0.985 . S
H472 N469 0.984 . S
H473 N469 0.985 . S
H474 N468 0.984 . S
H475 N468 0.984 . S
H476 N464 0.984 . S
H477 N464 0.985 . S
C478 C479 1.363 . S
C478 C484 1.379 . S
C478 N486 1.356 . S
C479 C478 1.363 . S
C479 C485 1.363 1_554 S
C480 C481 1.363 . S
C480 C485 1.379 . S
C480 N487 1.356 . S
C481 C480 1.363 . S
C481 C484 1.363 1_556 S
N482 C484 1.356 . S
N482 H494 0.984 . S
N482 H495 0.974 1_655 S
N483 C485 1.356 . S
N483 H488 0.984 1_556 S
N483 H489 0.985 . S
C484 C478 1.379 . S
C484 C481 1.363 1_554 S
C484 N482 1.356 . S
C485 C479 1.363 1_556 S
C485 C480 1.379 . S
C485 N483 1.356 . S
N486 C478 1.356 . S
N486 H492 0.984 . S
N486 H493 0.984 . S
N487 C480 1.356 . S
N487 H490 0.984 . S
N487 H491 0.985 . S
H488 N483 0.984 1_554 S
H489 N483 0.985 . S
H490 N487 0.984 . S
H491 N487 0.985 . S
H492 N486 0.984 . S
H493 N486 0.984 . S
H494 N482 0.984 . S
H495 N482 0.974 1_455 S
C496 C497 1.363 . S
C496 C502 1.379 . S
C496 N504 1.356 . S
C497 C496 1.363 . S
C497 C503 1.363 . S
C498 C499 1.363 . S
C498 C503 1.379 . S
C498 N505 1.356 . S
C499 C498 1.363 . S
C499 C502 1.363 . S
N500 C502 1.356 . S
N500 H512 0.984 . S
N500 H513 0.985 . S
N501 C503 1.356 . S
N501 H506 0.984 . S
N501 H507 0.985 . S
C502 C496 1.379 . S
C502 C499 1.363 . S
C502 N500 1.356 . S
C503 C497 1.363 . S
C503 C498 1.379 . S
C503 N501 1.356 . S
N504 C496 1.356 . S
N504 H510 0.984 . S
N504 H511 0.984 . S
N505 C498 1.356 . S
N505 H508 0.984 . S
N505 H509 0.985 . S
H506 N501 0.984 . S
H507 N501 0.985 . S
H508 N505 0.984 . S
H509 N505 0.985 . S
H510 N504 0.984 . S
H511 N504 0.984 . S
H512 N500 0.984 . S
H513 N500 0.985 . S
C514 C515 1.363 . S
C514 C520 1.379 . S
C514 N522 1.356 . S
C515 C514 1.363 . S
C515 C521 1.363 1_545 S
C516 C517 1.363 1_565 S
C516 C521 1.379 . S
C516 N523 1.356 . S
C517 C516 1.363 1_545 S
C517 C520 1.363 . S
N518 C520 1.356 . S
N518 H530 0.984 . S
N518 H531 0.985 . S
N519 C521 1.356 . S
N519 H524 0.984 . S
N519 H525 0.985 . S
C520 C514 1.379 . S
C520 C517 1.363 . S
C520 N518 1.356 . S
C521 C515 1.363 1_565 S
C521 C516 1.379 . S
C521 N519 1.356 . S
N522 C514 1.356 . S
N522 H528 0.984 . S
N522 H529 0.984 . S
N523 C516 1.356 . S
N523 H526 0.984 . S
N523 H527 0.985 . S
H524 N519 0.984 . S
H525 N519 0.985 . S
H526 N523 0.984 . S
H527 N523 0.985 . S
H528 N522 0.984 . S
H529 N522 0.984 . S
H530 N518 0.984 . S
H531 N518 0.985 . S
C532 C533 1.363 . S
C532 C538 1.379 . S
C532 N540 1.356 . S
C533 C532 1.363 . S
C533 C539 1.363 . S
C534 C535 1.363 . S
C534 C539 1.379 . S
C534 N541 1.356 . S
C535 C534 1.363 . S
C535 C538 1.363 . S
N536 C538 1.356 . S
N536 H548 0.984 . S
N536 H549 0.985 . S
N537 C539 1.356 . S
N537 H542 0.984 . S
N537 H543 0.985 . S
C538 C532 1.379 . S
C538 C535 1.363 . S
C538 N536 1.356 . S
C539 C533 1.363 . S
C539 C534 1.379 . S
C539 N537 1.356 . S
N540 C532 1.356 . S
N540 H546 0.984 . S
N540 H547 0.984 . S
N541 C534 1.356 . S
N541 H544 0.984 1_554 S
N541 H545 0.985 . S
H542 N537 0.984 . S
H543 N537 0.985 . S
H544 N541 0.984 1_556 S
H545 N541 0.985 . S
H546 N540 0.984 . S
H547 N540 0.984 . S
H548 N536 0.984 . S
H549 N536 0.985 . S
C550 C551 1.363 . S
C550 C556 1.379 . S
C550 N558 1.356 . S
C551 C550 1.363 . S
C551 C557 1.363 . S
C552 C553 1.363 . S
C552 C557 1.379 . S
C552 N559 1.356 . S
C553 C552 1.363 . S
C553 C556 1.363 . S
N554 C556 1.356 . S
N554 H566 0.984 . S
N554 H567 0.985 . S
N555 C557 1.356 . S
N555 H560 0.984 . S
N555 H561 0.985 . S
C556 C550 1.379 . S
C556 C553 1.363 . S
C556 N554 1.356 . S
C557 C551 1.363 . S
C557 C552 1.379 . S
C557 N555 1.356 . S
N558 C550 1.356 . S
N558 H564 0.984 . S
N558 H565 0.984 . S
N559 C552 1.356 . S
N559 H562 0.984 1_554 S
N559 H563 0.985 . S
H560 N555 0.984 . S
H561 N555 0.985 . S
H562 N559 0.984 1_556 S
H563 N559 0.985 . S
H564 N558 0.984 . S
H565 N558 0.984 . S
H566 N554 0.984 . S
H567 N554 0.985 . S
C568 C569 1.363 . S
C568 C574 1.379 . S
C568 N576 1.359 . S
C569 C568 1.363 . S
C569 C575 1.363 . S
C570 C571 1.363 . S
C570 C575 1.379 . S
C570 N577 1.356 . S
C571 C570 1.363 . S
C571 C574 1.363 . S
N572 C574 1.356 1_455 S
N572 H584 0.984 . S
N572 H585 0.985 . S
N573 C575 1.356 . S
N573 H578 0.984 . S
N573 H579 0.985 . S
C574 C568 1.379 . S
C574 C571 1.363 . S
C574 N572 1.356 1_655 S
C575 C569 1.363 . S
C575 C570 1.379 . S
C575 N573 1.356 . S
N576 C568 1.359 . S
N576 H582 0.978 1_655 S
N576 H583 0.988 . S
N577 C570 1.356 . S
N577 H580 0.984 . S
N577 H581 0.985 . S
H578 N573 0.984 . S
H579 N573 0.985 . S
H580 N577 0.984 . S
H581 N577 0.985 . S
H582 N576 0.978 1_455 S
H583 N576 0.988 . S
H584 N572 0.984 . S
H585 N572 0.985 . S
C586 C587 1.363 1_545 S
C586 C592 1.379 . S
C586 N594 1.356 . S
C587 C586 1.363 1_565 S
C587 C593 1.363 . S
C588 C589 1.363 . S
C588 C593 1.379 . S
C588 N595 1.356 . S
C589 C588 1.363 . S
C589 C592 1.363 1_565 S
N590 C592 1.356 . S
N590 H602 0.984 . S
N590 H603 0.985 . S
N591 C593 1.356 . S
N591 H596 0.984 . S
N591 H597 0.985 . S
C592 C586 1.379 . S
C592 C589 1.363 1_545 S
C592 N590 1.356 . S
C593 C587 1.363 . S
C593 C588 1.379 . S
C593 N591 1.356 . S
N594 C586 1.356 . S
N594 H600 0.984 . S
N594 H601 0.984 . S
N595 C588 1.356 . S
N595 H598 0.984 . S
N595 H599 0.985 . S
H596 N591 0.984 . S
H597 N591 0.985 . S
H598 N595 0.984 . S
H599 N595 0.985 . S
H600 N594 0.984 . S
H601 N594 0.984 . S
H602 N590 0.984 . S
H603 N590 0.985 . S
C604 C605 1.363 . S
C604 C610 1.379 . S
C604 N612 1.356 . S
C605 C604 1.363 . S
C605 C611 1.363 . S
C606 C607 1.363 . S
C606 C611 1.379 . S
C606 N613 1.356 . S
C607 C606 1.363 . S
C607 C610 1.363 . S
N608 C610 1.356 . S
N608 H620 0.984 . S
N608 H621 0.985 . S
N609 C611 1.356 . S
N609 H614 0.984 . S
N609 H615 0.985 . S
C610 C604 1.379 . S
C610 C607 1.363 . S
C610 N608 1.356 . S
C611 C605 1.363 . S
C611 C606 1.379 . S
C611 N609 1.356 . S
N612 C604 1.356 . S
N612 H618 0.984 . S
N612 H619 0.984 . S
N613 C606 1.356 . S
N613 H616 0.984 . S
N613 H617 0.985 . S
H614 N609 0.984 . S
H615 N609 0.985 . S
H616 N613 0.984 . S
H617 N613 0.985 . S
H618 N612 0.984 . S
H619 N612 0.984 . S
H620 N608 0.984 . S
H621 N608 0.985 . S
C622 C623 1.363 . S
C622 C628 1.379 . S
C622 N630 1.356 . S
C623 C622 1.363 . S
C623 C629 1.363 . S
C624 C625 1.363 . S
C624 C629 1.379 . S
C624 N631 1.356 . S
C625 C624 1.363 . S
C625 C628 1.363 . S
N626 C628 1.356 . S
N626 H638 0.984 . S
N626 H639 0.985 . S
N627 C629 1.356 . S
N627 H632 0.984 . S
N627 H633 0.985 . S
C628 C622 1.379 . S
C628 C625 1.363 . S
C628 N626 1.356 . S
C629 C623 1.363 . S
C629 C624 1.379 . S
C629 N627 1.356 . S
N630 C622 1.356 . S
N630 H636 0.984 . S
N630 H637 0.984 . S
N631 C624 1.356 . S
N631 H634 0.984 . S
N631 H635 0.985 . S
H632 N627 0.984 . S
H633 N627 0.985 . S
H634 N631 0.984 . S
H635 N631 0.985 . S
H636 N630 0.984 . S
H637 N630 0.984 . S
H638 N626 0.984 . S
H639 N626 0.985 . S
C209 C74 1.696 1_565 S
C211 C98 1.691 . S
C229 C128 1.784 . S
C227 C85 1.787 . S
C247 N162 1.359 . S
C245 C52 1.401 . S
C265 N192 1.515 . S
C263 C63 1.546 . S
C283 C89 1.691 . S
C281 C30 1.679 . S
C299 C41 1.746 . S
C301 C119 1.788 . S
C317 C8 1.381 . S
C319 N154 1.358 . S
C335 C19 1.465 . S
C337 N184 1.515 1_655 S
C355 C104 0.801 . S
C353 C62 0.807 . S
C373 C134 1.138 . S
C371 C73 1.137 1_565 S
C391 C175 1.400 . S
C389 C84 1.421 . S
C407 C51 0.860 . S
C409 C205 0.854 . S
C425 C18 0.778 1_556 S
C427 C115 0.804 . S
C445 C145 1.139 . S
C443 C29 1.134 . S
C463 C164 1.399 . S
C461 C40 1.344 . S
C479 C7 0.837 . S
C481 C194 0.854 . S
C497 C60 1.345 . S
C499 N94 1.490 . S
C515 C71 1.176 . S
C517 N124 1.418 . S
C535 C149 1.652 1_554 S
C533 C82 1.462 . S
C553 C179 1.584 1_554 S
C551 C49 1.358 . S
C569 C16 1.163 . S
C571 N102 1.496 . S
C589 N132 1.419 . S
C587 C27 1.250 1_565 S
C607 C158 1.659 . S
C605 C38 1.350 . S
C623 C5 1.326 . S
C625 C188 1.584 . S
