# Generated by pormake.
# Topology gar, (4,6)-cn, num edge types: 1
# Building blocks:
#     Node 0, Type 0, BuildingBlock: QUQFOY_clean_sbu_1, # of connection points: 4
#     Node 1, Type 0, BuildingBlock: QUQFOY_clean_sbu_1, # of connection points: 4
#     Node 2, Type 0, BuildingBlock: QUQFOY_clean_sbu_1, # of connection points: 4
#     Node 3, Type 0, BuildingBlock: QUQFOY_clean_sbu_1, # of connection points: 4
#     Node 4, Type 0, BuildingBlock: QUQFOY_clean_sbu_1, # of connection points: 4
#     Node 5, Type 0, BuildingBlock: QUQFOY_clean_sbu_1, # of connection points: 4
#     Node 6, Type 0, BuildingBlock: QUQFOY_clean_sbu_1, # of connection points: 4
#     Node 7, Type 0, BuildingBlock: QUQFOY_clean_sbu_1, # of connection points: 4
#     Node 8, Type 0, BuildingBlock: QUQFOY_clean_sbu_1, # of connection points: 4
#     Node 9, Type 0, BuildingBlock: QUQFOY_clean_sbu_1, # of connection points: 4
#     Node 10, Type 0, BuildingBlock: QUQFOY_clean_sbu_1, # of connection points: 4
#     Node 11, Type 0, BuildingBlock: QUQFOY_clean_sbu_1, # of connection points: 4
#     Node 12, Type 0, BuildingBlock: QUQFOY_clean_sbu_1, # of connection points: 4
#     Node 13, Type 0, BuildingBlock: QUQFOY_clean_sbu_1, # of connection points: 4
#     Node 14, Type 0, BuildingBlock: QUQFOY_clean_sbu_1, # of connection points: 4
#     Node 15, Type 0, BuildingBlock: QUQFOY_clean_sbu_1, # of connection points: 4
#     Node 16, Type 0, BuildingBlock: QUQFOY_clean_sbu_1, # of connection points: 4
#     Node 17, Type 0, BuildingBlock: QUQFOY_clean_sbu_1, # of connection points: 4
#     Node 18, Type 0, BuildingBlock: QUQFOY_clean_sbu_1, # of connection points: 4
#     Node 19, Type 0, BuildingBlock: QUQFOY_clean_sbu_1, # of connection points: 4
#     Node 20, Type 0, BuildingBlock: QUQFOY_clean_sbu_1, # of connection points: 4
#     Node 21, Type 0, BuildingBlock: QUQFOY_clean_sbu_1, # of connection points: 4
#     Node 22, Type 0, BuildingBlock: QUQFOY_clean_sbu_1, # of connection points: 4
#     Node 23, Type 0, BuildingBlock: QUQFOY_clean_sbu_1, # of connection points: 4
#     Node 24, Type 1, BuildingBlock: MIFKUJ_clean_sbu_0, # of connection points: 6
#     Node 25, Type 1, BuildingBlock: MIFKUJ_clean_sbu_0, # of connection points: 6
#     Node 26, Type 1, BuildingBlock: MIFKUJ_clean_sbu_0, # of connection points: 6
#     Node 27, Type 1, BuildingBlock: MIFKUJ_clean_sbu_0, # of connection points: 6
#     Node 28, Type 1, BuildingBlock: MIFKUJ_clean_sbu_0, # of connection points: 6
#     Node 29, Type 1, BuildingBlock: MIFKUJ_clean_sbu_0, # of connection points: 6
#     Node 30, Type 1, BuildingBlock: MIFKUJ_clean_sbu_0, # of connection points: 6
#     Node 31, Type 1, BuildingBlock: MIFKUJ_clean_sbu_0, # of connection points: 6
#     Node 32, Type 1, BuildingBlock: MIFKUJ_clean_sbu_0, # of connection points: 6
#     Node 33, Type 1, BuildingBlock: MIFKUJ_clean_sbu_0, # of connection points: 6
#     Node 34, Type 1, BuildingBlock: MIFKUJ_clean_sbu_0, # of connection points: 6
#     Node 35, Type 1, BuildingBlock: MIFKUJ_clean_sbu_0, # of connection points: 6
#     Node 36, Type 1, BuildingBlock: MIFKUJ_clean_sbu_0, # of connection points: 6
#     Node 37, Type 1, BuildingBlock: MIFKUJ_clean_sbu_0, # of connection points: 6
#     Node 38, Type 1, BuildingBlock: MIFKUJ_clean_sbu_0, # of connection points: 6
#     Node 39, Type 1, BuildingBlock: MIFKUJ_clean_sbu_0, # of connection points: 6
#     Edge 40, Type (0, 1), BuildingBlock: AJUNOK_clean_linker_0, # of connection points: 2
#     Edge 41, Type (0, 1), BuildingBlock: AJUNOK_clean_linker_0, # of connection points: 2
#     Edge 42, Type (0, 1), BuildingBlock: AJUNOK_clean_linker_0, # of connection points: 2
#     Edge 43, Type (0, 1), BuildingBlock: AJUNOK_clean_linker_0, # of connection points: 2
#     Edge 44, Type (0, 1), BuildingBlock: AJUNOK_clean_linker_0, # of connection points: 2
#     Edge 45, Type (0, 1), BuildingBlock: AJUNOK_clean_linker_0, # of connection points: 2
#     Edge 46, Type (0, 1), BuildingBlock: AJUNOK_clean_linker_0, # of connection points: 2
#     Edge 47, Type (0, 1), BuildingBlock: AJUNOK_clean_linker_0, # of connection points: 2
#     Edge 48, Type (0, 1), BuildingBlock: AJUNOK_clean_linker_0, # of connection points: 2
#     Edge 49, Type (0, 1), BuildingBlock: AJUNOK_clean_linker_0, # of connection points: 2
#     Edge 50, Type (0, 1), BuildingBlock: AJUNOK_clean_linker_0, # of connection points: 2
#     Edge 51, Type (0, 1), BuildingBlock: AJUNOK_clean_linker_0, # of connection points: 2
#     Edge 52, Type (0, 1), BuildingBlock: AJUNOK_clean_linker_0, # of connection points: 2
#     Edge 53, Type (0, 1), BuildingBlock: AJUNOK_clean_linker_0, # of connection points: 2
#     Edge 54, Type (0, 1), BuildingBlock: AJUNOK_clean_linker_0, # of connection points: 2
#     Edge 55, Type (0, 1), BuildingBlock: AJUNOK_clean_linker_0, # of connection points: 2
#     Edge 56, Type (0, 1), BuildingBlock: AJUNOK_clean_linker_0, # of connection points: 2
#     Edge 57, Type (0, 1), BuildingBlock: AJUNOK_clean_linker_0, # of connection points: 2
#     Edge 58, Type (0, 1), BuildingBlock: AJUNOK_clean_linker_0, # of connection points: 2
#     Edge 59, Type (0, 1), BuildingBlock: AJUNOK_clean_linker_0, # of connection points: 2
#     Edge 60, Type (0, 1), BuildingBlock: AJUNOK_clean_linker_0, # of connection points: 2
#     Edge 61, Type (0, 1), BuildingBlock: AJUNOK_clean_linker_0, # of connection points: 2
#     Edge 62, Type (0, 1), BuildingBlock: AJUNOK_clean_linker_0, # of connection points: 2
#     Edge 63, Type (0, 1), BuildingBlock: AJUNOK_clean_linker_0, # of connection points: 2
#     Edge 64, Type (0, 1), BuildingBlock: AJUNOK_clean_linker_0, # of connection points: 2
#     Edge 65, Type (0, 1), BuildingBlock: AJUNOK_clean_linker_0, # of connection points: 2
#     Edge 66, Type (0, 1), BuildingBlock: AJUNOK_clean_linker_0, # of connection points: 2
#     Edge 67, Type (0, 1), BuildingBlock: AJUNOK_clean_linker_0, # of connection points: 2
#     Edge 68, Type (0, 1), BuildingBlock: AJUNOK_clean_linker_0, # of connection points: 2
#     Edge 69, Type (0, 1), BuildingBlock: AJUNOK_clean_linker_0, # of connection points: 2
#     Edge 70, Type (0, 1), BuildingBlock: AJUNOK_clean_linker_0, # of connection points: 2
#     Edge 71, Type (0, 1), BuildingBlock: AJUNOK_clean_linker_0, # of connection points: 2
#     Edge 72, Type (0, 1), BuildingBlock: AJUNOK_clean_linker_0, # of connection points: 2
#     Edge 73, Type (0, 1), BuildingBlock: AJUNOK_clean_linker_0, # of connection points: 2
#     Edge 74, Type (0, 1), BuildingBlock: AJUNOK_clean_linker_0, # of connection points: 2
#     Edge 75, Type (0, 1), BuildingBlock: AJUNOK_clean_linker_0, # of connection points: 2
#     Edge 76, Type (0, 1), BuildingBlock: AJUNOK_clean_linker_0, # of connection points: 2
#     Edge 77, Type (0, 1), BuildingBlock: AJUNOK_clean_linker_0, # of connection points: 2
#     Edge 78, Type (0, 1), BuildingBlock: AJUNOK_clean_linker_0, # of connection points: 2
#     Edge 79, Type (0, 1), BuildingBlock: AJUNOK_clean_linker_0, # of connection points: 2
#     Edge 80, Type (0, 1), BuildingBlock: AJUNOK_clean_linker_0, # of connection points: 2
#     Edge 81, Type (0, 1), BuildingBlock: AJUNOK_clean_linker_0, # of connection points: 2
#     Edge 82, Type (0, 1), BuildingBlock: AJUNOK_clean_linker_0, # of connection points: 2
#     Edge 83, Type (0, 1), BuildingBlock: AJUNOK_clean_linker_0, # of connection points: 2
#     Edge 84, Type (0, 1), BuildingBlock: AJUNOK_clean_linker_0, # of connection points: 2
#     Edge 85, Type (0, 1), BuildingBlock: AJUNOK_clean_linker_0, # of connection points: 2
#     Edge 86, Type (0, 1), BuildingBlock: AJUNOK_clean_linker_0, # of connection points: 2
#     Edge 87, Type (0, 1), BuildingBlock: AJUNOK_clean_linker_0, # of connection points: 2
#     Edge 88, Type (0, 1), BuildingBlock: AJUNOK_clean_linker_0, # of connection points: 2
#     Edge 89, Type (0, 1), BuildingBlock: AJUNOK_clean_linker_0, # of connection points: 2
#     Edge 90, Type (0, 1), BuildingBlock: AJUNOK_clean_linker_0, # of connection points: 2
#     Edge 91, Type (0, 1), BuildingBlock: AJUNOK_clean_linker_0, # of connection points: 2
#     Edge 92, Type (0, 1), BuildingBlock: AJUNOK_clean_linker_0, # of connection points: 2
#     Edge 93, Type (0, 1), BuildingBlock: AJUNOK_clean_linker_0, # of connection points: 2
#     Edge 94, Type (0, 1), BuildingBlock: AJUNOK_clean_linker_0, # of connection points: 2
#     Edge 95, Type (0, 1), BuildingBlock: AJUNOK_clean_linker_0, # of connection points: 2
#     Edge 96, Type (0, 1), BuildingBlock: AJUNOK_clean_linker_0, # of connection points: 2
#     Edge 97, Type (0, 1), BuildingBlock: AJUNOK_clean_linker_0, # of connection points: 2
#     Edge 98, Type (0, 1), BuildingBlock: AJUNOK_clean_linker_0, # of connection points: 2
#     Edge 99, Type (0, 1), BuildingBlock: AJUNOK_clean_linker_0, # of connection points: 2
#     Edge 100, Type (0, 1), BuildingBlock: AJUNOK_clean_linker_0, # of connection points: 2
#     Edge 101, Type (0, 1), BuildingBlock: AJUNOK_clean_linker_0, # of connection points: 2
#     Edge 102, Type (0, 1), BuildingBlock: AJUNOK_clean_linker_0, # of connection points: 2
#     Edge 103, Type (0, 1), BuildingBlock: AJUNOK_clean_linker_0, # of connection points: 2
#     Edge 104, Type (0, 1), BuildingBlock: AJUNOK_clean_linker_0, # of connection points: 2
#     Edge 105, Type (0, 1), BuildingBlock: AJUNOK_clean_linker_0, # of connection points: 2
#     Edge 106, Type (0, 1), BuildingBlock: AJUNOK_clean_linker_0, # of connection points: 2
#     Edge 107, Type (0, 1), BuildingBlock: AJUNOK_clean_linker_0, # of connection points: 2
#     Edge 108, Type (0, 1), BuildingBlock: AJUNOK_clean_linker_0, # of connection points: 2
#     Edge 109, Type (0, 1), BuildingBlock: AJUNOK_clean_linker_0, # of connection points: 2
#     Edge 110, Type (0, 1), BuildingBlock: AJUNOK_clean_linker_0, # of connection points: 2
#     Edge 111, Type (0, 1), BuildingBlock: AJUNOK_clean_linker_0, # of connection points: 2
#     Edge 112, Type (0, 1), BuildingBlock: AJUNOK_clean_linker_0, # of connection points: 2
#     Edge 113, Type (0, 1), BuildingBlock: AJUNOK_clean_linker_0, # of connection points: 2
#     Edge 114, Type (0, 1), BuildingBlock: AJUNOK_clean_linker_0, # of connection points: 2
#     Edge 115, Type (0, 1), BuildingBlock: AJUNOK_clean_linker_0, # of connection points: 2
#     Edge 116, Type (0, 1), BuildingBlock: AJUNOK_clean_linker_0, # of connection points: 2
#     Edge 117, Type (0, 1), BuildingBlock: AJUNOK_clean_linker_0, # of connection points: 2
#     Edge 118, Type (0, 1), BuildingBlock: AJUNOK_clean_linker_0, # of connection points: 2
#     Edge 119, Type (0, 1), BuildingBlock: AJUNOK_clean_linker_0, # of connection points: 2
#     Edge 120, Type (0, 1), BuildingBlock: AJUNOK_clean_linker_0, # of connection points: 2
#     Edge 121, Type (0, 1), BuildingBlock: AJUNOK_clean_linker_0, # of connection points: 2
#     Edge 122, Type (0, 1), BuildingBlock: AJUNOK_clean_linker_0, # of connection points: 2
#     Edge 123, Type (0, 1), BuildingBlock: AJUNOK_clean_linker_0, # of connection points: 2
#     Edge 124, Type (0, 1), BuildingBlock: AJUNOK_clean_linker_0, # of connection points: 2
#     Edge 125, Type (0, 1), BuildingBlock: AJUNOK_clean_linker_0, # of connection points: 2
#     Edge 126, Type (0, 1), BuildingBlock: AJUNOK_clean_linker_0, # of connection points: 2
#     Edge 127, Type (0, 1), BuildingBlock: AJUNOK_clean_linker_0, # of connection points: 2
#     Edge 128, Type (0, 1), BuildingBlock: AJUNOK_clean_linker_0, # of connection points: 2
#     Edge 129, Type (0, 1), BuildingBlock: AJUNOK_clean_linker_0, # of connection points: 2
#     Edge 130, Type (0, 1), BuildingBlock: AJUNOK_clean_linker_0, # of connection points: 2
#     Edge 131, Type (0, 1), BuildingBlock: AJUNOK_clean_linker_0, # of connection points: 2
#     Edge 132, Type (0, 1), BuildingBlock: AJUNOK_clean_linker_0, # of connection points: 2
#     Edge 133, Type (0, 1), BuildingBlock: AJUNOK_clean_linker_0, # of connection points: 2
#     Edge 134, Type (0, 1), BuildingBlock: AJUNOK_clean_linker_0, # of connection points: 2
#     Edge 135, Type (0, 1), BuildingBlock: AJUNOK_clean_linker_0, # of connection points: 2
# Relax obj value: 0.125
# Max RMSD: 0.319
# Mean RMSD: 0.170
data_MOF--net-gar--node1-QUQFOY_clean_sbu_1--node2-MIFKUJ_clean_sbu_0--edge1-AJUNOK_clean_linker_0
_symmetry_space_group_name_H-M    P1
_symmetry_Int_Tables_number       1
_symmetry_cell_setting            triclinic
loop_
_symmetry_equiv_pos_as_xyz
'x, y, z'
_cell_length_a     43.618477
_cell_length_b     43.658656
_cell_length_c     41.52777
_cell_angle_alpha  95.359225
_cell_angle_beta   95.271507
_cell_angle_gamma 102.58218
loop_
_atom_site_label
_atom_site_type_symbol
_atom_site_fract_x
_atom_site_fract_y
_atom_site_fract_z
_atom_type_partial_charge
O0 O 0.01899 0.22121 0.40675 0.0
Cd1 Cd 0.02669 0.26065 0.38262 0.0
Cd2 Cd 0.01642 0.28487 0.44092 0.0
O3 O 0.02696 0.24493 0.45695 0.0
O4 O 0.04539 0.24758 0.34301 0.0
O5 O 0.07111 0.28469 0.38212 0.0
C6 C 0.07112 0.26763 0.35495 0.0
C7 C 0.03532 0.3357 0.46648 0.0
C8 C 0.02227 0.21987 0.43725 0.0
C9 C 0.96653 0.27873 0.38467 0.0
O10 O 0.97253 0.27914 0.41525 0.0
O11 O 0.98758 0.27592 0.36619 0.0
O12 O 0.01619 0.31509 0.47978 0.0
O13 O 0.04596 0.32659 0.44003 0.0
O14 O 0.99218 0.68595 0.6258 0.0
Cd15 Cd 1.00139 0.72422 0.66172 0.0
Cd16 Cd 0.02103 0.75551 0.61267 0.0
O17 O 0.00541 0.71291 0.58487 0.0
O18 O 0.97268 0.71595 0.69637 0.0
O19 O 0.97181 0.75338 0.66405 0.0
C20 C 0.96056 0.73879 0.68761 0.0
C21 C 0.01298 0.80124 0.5921 0.0
C22 C 0.99597 0.68674 0.59581 0.0
C23 C 0.06994 0.75249 0.66784 0.0
O24 O 0.0636 0.76088 0.64003 0.0
O25 O 0.04784 0.73838 0.68277 0.0
O26 O 0.03226 0.78578 0.58049 0.0
O27 O 0.99722 0.78997 0.61485 0.0
O28 O 0.58516 0.77308 0.90712 0.0
Cd29 Cd 0.54697 0.77235 0.93295 0.0
Cd30 Cd 0.52557 0.79369 0.87993 0.0
O31 O 0.56191 0.77912 0.85957 0.0
O32 O 0.55064 0.74384 0.96692 0.0
O33 O 0.5132 0.73259 0.92486 0.0
C34 C 0.5265 0.72429 0.95068 0.0
C35 C 0.47325 0.77711 0.85749 0.0
C36 C 0.58547 0.77381 0.8766 0.0
C37 C 0.53887 0.83769 0.94171 0.0
O38 O 0.53568 0.83508 0.91077 0.0
O39 O 0.54102 0.8139 0.95637 0.0
O40 O 0.49289 0.79789 0.84484 0.0
O41 O 0.48392 0.76475 0.88201 0.0
O42 O 0.49628 0.18478 0.13163 0.0
Cd43 Cd 0.50538 0.22839 0.15909 0.0
Cd44 Cd 0.52468 0.24645 0.1039 0.0
O45 O 0.50352 0.20132 0.0838 0.0
O46 O 0.47955 0.22503 0.19651 0.0
O47 O 0.47309 0.25445 0.15694 0.0
C48 C 0.46457 0.24416 0.18365 0.0
C49 C 0.5146 0.2913 0.08377 0.0
C50 C 0.49607 0.17887 0.10101 0.0
C51 C 0.57429 0.25372 0.16016 0.0
O52 O 0.56845 0.2528 0.12953 0.0
O53 O 0.55174 0.24725 0.17751 0.0
O54 O 0.5308 0.27431 0.06869 0.0
O55 O 0.50263 0.28158 0.10931 0.0
O56 O 0.02815 0.71694 0.16525 0.0
Cd57 Cd 0.03417 0.75903 0.19424 0.0
Cd58 Cd 0.05765 0.78178 0.14249 0.0
O59 O 0.04536 0.73569 0.12115 0.0
O60 O 0.00411 0.74988 0.227 0.0
O61 O 1.00024 0.78317 0.1906 0.0
C62 C 0.98878 0.76868 0.21412 0.0
C63 C 0.04443 0.82114 0.11359 0.0
C64 C 0.03403 0.71243 0.13602 0.0
C65 C 0.10188 0.79008 0.20497 0.0
O66 O 0.09809 0.7938 0.175 0.0
O67 O 0.07836 0.77751 0.2189 0.0
O68 O 0.06742 0.80838 0.10684 0.0
O69 O 0.02835 0.81109 0.13664 0.0
O70 O 0.57014 0.76107 0.38546 0.0
Cd71 Cd 0.53656 0.75363 0.41704 0.0
Cd72 Cd 0.49874 0.76384 0.36287 0.0
O73 O 0.53749 0.75739 0.34048 0.0
O74 O 0.55047 0.72763 0.44996 0.0
O75 O 0.50749 0.7115 0.41428 0.0
C76 C 0.5261 0.70569 0.43791 0.0
C77 C 0.44863 0.74676 0.33318 0.0
C78 C 0.56505 0.75978 0.35474 0.0
C79 C 0.51262 0.81112 0.42486 0.0
O80 O 0.50289 0.80442 0.39465 0.0
O81 O 0.52537 0.79231 0.43998 0.0
O82 O 0.46917 0.77018 0.32573 0.0
O83 O 0.457 0.73196 0.35681 0.0
O84 O 0.53077 0.22571 0.66518 0.0
Cd85 Cd 0.53972 0.26797 0.69419 0.0
Cd86 Cd 0.56075 0.28975 0.64093 0.0
O87 O 0.54159 0.24445 0.61907 0.0
O88 O 0.51141 0.25894 0.72857 0.0
O89 O 0.50593 0.29218 0.69249 0.0
C90 C 0.49519 0.27718 0.71598 0.0
C91 C 0.5468 0.33212 0.61748 0.0
C92 C 0.53199 0.22127 0.63475 0.0
C93 C 0.60836 0.29225 0.69969 0.0
O94 O 0.60345 0.29548 0.66962 0.0
O95 O 0.58525 0.28439 0.71604 0.0
O96 O 0.56662 0.31757 0.60532 0.0
O97 O 0.53518 0.32274 0.64334 0.0
O98 O 0.01069 0.19863 0.89105 0.0
Cd99 Cd 0.01297 0.23316 0.86028 0.0
Cd100 Cd 0.99131 0.26078 0.91066 0.0
O101 O 0.007 0.22807 0.93595 0.0
O102 O 0.03773 0.2185 0.82707 0.0
O103 O 0.05449 0.26367 0.85939 0.0
C104 C 0.05967 0.2434 0.83703 0.0
C105 C 0.00841 0.31348 0.93122 0.0
C106 C 0.01128 0.20267 0.92176 0.0
C107 C 0.94839 0.24222 0.84852 0.0
O108 O 0.94984 0.24803 0.87924 0.0
O109 O 0.97254 0.23884 0.83509 0.0
O110 O 0.98642 0.29491 0.94345 0.0
O111 O 0.02079 0.30186 0.90714 0.0
O112 O 0.39926 0.02167 0.22639 0.0
Cd113 Cd 0.37339 0.02171 0.26501 0.0
Cd114 Cd 0.43257 0.01776 0.29465 0.0
O115 O 0.44768 0.02955 0.25138 0.0
O116 O 0.33714 0.03891 0.24802 0.0
O117 O 0.37216 0.06283 0.28975 0.0
C118 C 0.34797 0.06316 0.2694 0.0
C119 C 0.46952 0.03012 0.34139 0.0
C120 C 0.42891 0.02652 0.22549 0.0
C121 C 0.37569 0.96086 0.28631 0.0
O122 O 0.40517 0.97284 0.29185 0.0
O123 O 0.35638 0.97773 0.2788 0.0
O124 O 0.47213 0.01053 0.31732 0.0
O125 O 0.44642 0.04414 0.33841 0.0
O126 O 0.27641 0.13765 0.55636 0.0
Cd127 Cd 0.27195 0.10911 0.513 0.0
Cd128 Cd 0.25264 0.16287 0.49244 0.0
O129 O 0.26813 0.1824 0.54064 0.0
O130 O 0.29505 0.0759 0.52518 0.0
O131 O 0.31022 0.10812 0.48902 0.0
C132 C 0.31538 0.08583 0.50571 0.0
C133 C 0.26467 0.1927 0.44822 0.0
C134 C 0.27431 0.16606 0.56324 0.0
C135 C 0.20342 0.09974 0.49054 0.0
O136 O 0.20992 0.12925 0.48773 0.0
O137 O 0.22556 0.08574 0.49725 0.0
O138 O 0.24489 0.19881 0.46775 0.0
O139 O 0.27805 0.16977 0.45387 0.0
O140 O 0.14652 0.01414 0.73576 0.0
Cd141 Cd 0.17622 0.01587 0.77784 0.0
Cd142 Cd 0.12319 0.03645 0.80163 0.0
O143 O 0.10209 0.02116 0.75382 0.0
O144 O 0.20848 0.99217 0.76322 0.0
O145 O 0.17635 0.97593 0.79914 0.0
C146 C 0.1982 0.97096 0.78165 0.0
C147 C 0.0935 0.02649 0.84684 0.0
C148 C 0.11792 0.01626 0.7303 0.0
C149 C 0.18709 0.08425 0.8009 0.0
O150 O 0.15758 0.07858 0.80402 0.0
O151 O 0.20076 0.06171 0.79484 0.0
O152 O 0.08834 0.04637 0.82709 0.0
O153 O 0.11561 0.01197 0.8411 0.0
O154 O 0.26796 0.88462 0.06493 0.0
Cd155 Cd 0.26166 0.9092 0.02602 0.0
Cd156 Cd 0.26474 0.85144 0.99434 0.0
O157 O 0.25999 0.83652 0.03921 0.0
O158 O 0.2441 0.94512 0.04316 0.0
O159 O 0.21934 0.90836 0.00305 0.0
C160 C 0.21982 0.9338 0.02193 0.0
C161 C 0.24558 0.81496 0.94835 0.0
C162 C 0.26561 0.85517 0.06542 0.0
C163 C 0.31829 0.90977 0.99369 0.0
O164 O 0.30787 0.88 0.98912 0.0
O165 O 0.3018 0.92734 0.00618 0.0
O166 O 0.26814 0.81166 0.96892 0.0
O167 O 0.2325 0.83832 0.95475 0.0
O168 O 0.27357 0.37839 0.10777 0.0
Cd169 Cd 0.27661 0.41038 0.07271 0.0
Cd170 Cd 0.29382 0.35923 0.03958 0.0
O171 O 0.27945 0.33542 0.0788 0.0
O172 O 0.25369 0.44299 0.08893 0.0
O173 O 0.23807 0.41263 0.04223 0.0
C174 C 0.23367 0.43467 0.06311 0.0
C175 C 0.27761 0.3387 0.98488 0.0
C176 C 0.27429 0.34919 0.10549 0.0
C177 C 0.34287 0.42153 0.05408 0.0
O178 O 0.33686 0.3918 0.046 0.0
O179 O 0.3214 0.4345 0.06389 0.0
O180 O 0.29757 0.32768 0.00262 0.0
O181 O 0.26532 0.36012 0.99888 0.0
O182 O 0.79608 0.15949 0.10171 0.0
Cd183 Cd 0.78394 0.12933 0.05879 0.0
Cd184 Cd 0.7681 0.18074 0.04185 0.0
O185 O 0.79141 0.20458 0.08465 0.0
O186 O 0.80452 0.09458 0.06863 0.0
O187 O 0.81629 0.12351 0.02853 0.0
C188 C 0.82147 0.10136 0.04538 0.0
C189 C 0.77585 0.20133 0.99346 0.0
C190 C 0.79845 0.18909 0.10741 0.0
C191 C 0.71578 0.12392 0.04502 0.0
O192 O 0.7238 0.15349 0.04388 0.0
O193 O 0.73673 0.10791 0.04775 0.0
O194 O 0.75993 0.21302 0.0141 0.0
O195 O 0.78858 0.17846 0.00104 0.0
O196 O 0.12871 0.48571 0.19679 0.0
Cd197 Cd 0.15816 0.49834 0.24021 0.0
Cd198 Cd 0.10672 0.51021 0.25774 0.0
O199 O 0.08315 0.48584 0.21541 0.0
O200 O 0.19437 0.47831 0.23553 0.0
O201 O 0.16216 0.46821 0.27328 0.0
C202 C 0.1865 0.46328 0.25991 0.0
C203 C 0.08772 0.50198 0.30682 0.0
C204 C 0.09879 0.48164 0.19186 0.0
C205 C 0.15981 0.56557 0.25284 0.0
O206 O 0.13051 0.55569 0.25462 0.0
O207 O 0.17737 0.54601 0.25027 0.0
O208 O 0.07398 0.51607 0.28586 0.0
O209 O 0.11174 0.49122 0.2991 0.0
O210 O 0.77533 0.87336 0.60745 0.0
Cd211 Cd 0.77906 0.90593 0.57336 0.0
Cd212 Cd 0.79674 0.8564 0.53921 0.0
O213 O 0.78402 0.83184 0.57838 0.0
O214 O 0.75391 0.93693 0.58827 0.0
O215 O 0.74158 0.90667 0.54111 0.0
C216 C 0.73532 0.92808 0.56147 0.0
C217 C 0.77817 0.83648 0.48483 0.0
C218 C 0.77727 0.84451 0.60487 0.0
C219 C 0.84512 0.91912 0.55434 0.0
O220 O 0.83924 0.88969 0.54456 0.0
O221 O 0.82377 0.93115 0.56589 0.0
O222 O 0.79918 0.82554 0.50114 0.0
O223 O 0.76636 0.85758 0.50008 0.0
O224 O 0.90501 0.01291 0.18272 0.0
Cd225 Cd 0.87451 0.0111 0.21924 0.0
Cd226 Cd 0.92432 0.99415 0.25276 0.0
O227 O 0.94769 0.00806 0.21304 0.0
O228 O 0.84332 0.03858 0.2119 0.0
O229 O 0.88141 0.04908 0.25295 0.0
C230 C 0.85755 0.05678 0.2377 0.0
C231 C 0.94306 0.01079 0.30778 0.0
C232 C 0.9343 0.01235 0.18575 0.0
C233 C 0.86231 0.9454 0.2391 0.0
O234 O 0.89207 0.95116 0.24691 0.0
O235 O 0.84966 0.96693 0.229 0.0
O236 O 0.95554 0.99154 0.29069 0.0
O237 O 0.92187 0.02263 0.29283 0.0
O238 O 0.30096 0.65641 0.59861 0.0
Cd239 Cd 0.28761 0.62326 0.55742 0.0
Cd240 Cd 0.27122 0.67148 0.53501 0.0
O241 O 0.2986 0.69853 0.57417 0.0
O242 O 0.31155 0.58918 0.55878 0.0
O243 O 0.31722 0.6244 0.52326 0.0
C244 C 0.32496 0.6002 0.53451 0.0
C245 C 0.27313 0.6858 0.48306 0.0
C246 C 0.30513 0.68636 0.59972 0.0
C247 C 0.21922 0.61797 0.54534 0.0
O248 O 0.22745 0.64727 0.54293 0.0
O249 O 0.24001 0.60171 0.54764 0.0
O250 O 0.26154 0.70148 0.50483 0.0
O251 O 0.28529 0.66291 0.4915 0.0
O252 O 0.40349 0.51432 0.68487 0.0
Cd253 Cd 0.37339 0.51059 0.72159 0.0
Cd254 Cd 0.42483 0.49511 0.7515 0.0
O255 O 0.44809 0.51184 0.71305 0.0
O256 O 0.34091 0.53644 0.71324 0.0
O257 O 0.37852 0.54868 0.75473 0.0
C258 C 0.35455 0.55549 0.73868 0.0
C259 C 0.44168 0.50947 0.80683 0.0
C260 C 0.43316 0.51568 0.68648 0.0
C261 C 0.36492 0.44414 0.7379 0.0
O262 O 0.39491 0.45106 0.74329 0.0
O263 O 0.35041 0.46549 0.73106 0.0
O264 O 0.45595 0.49238 0.78916 0.0
O265 O 0.41979 0.52076 0.79236 0.0
O266 O 0.63152 0.99125 0.69426 0.0
Cd267 Cd 0.66348 5e-05 0.73636 0.0
Cd268 Cd 0.6145 0.0159 0.75979 0.0
O269 O 0.58867 0.99526 0.71681 0.0
O270 O 0.69512 0.9747 0.72793 0.0
O271 O 0.66459 0.96757 0.76768 0.0
C272 C 0.68626 0.95942 0.75185 0.0
C273 C 0.59264 0.01084 0.80815 0.0
C274 C 0.60181 0.98931 0.69174 0.0
C275 C 0.67266 0.0675 0.75742 0.0
O276 O 0.64333 0.05973 0.7601 0.0
O277 O 0.68751 0.04635 0.75001 0.0
O278 O 0.58264 0.02697 0.78678 0.0
O279 O 0.61397 0.99571 0.80107 0.0
O280 O 0.77621 0.64269 0.06074 0.0
Cd281 Cd 0.7737 0.61282 0.01874 0.0
Cd282 Cd 0.74857 0.66289 0.99491 0.0
O283 O 0.76108 0.68397 0.04311 0.0
O284 O 0.79982 0.58213 0.03197 0.0
O285 O 0.81241 0.61433 0.99507 0.0
C286 C 0.81946 0.59308 0.01222 0.0
C287 C 0.76096 0.69282 0.9507 0.0
C288 C 0.77028 0.66982 0.06641 0.0
C289 C 0.70455 0.59676 0.99403 0.0
O290 O 0.70816 0.6257 0.98902 0.0
O291 O 0.72843 0.58611 0.00339 0.0
O292 O 0.73784 0.69568 0.96713 0.0
O293 O 0.7774 0.67303 0.95937 0.0
O294 O 0.89985 0.5204 0.7292 0.0
Cd295 Cd 0.87431 0.52392 0.7676 0.0
Cd296 Cd 0.93004 0.51722 0.79901 0.0
O297 O 0.94706 0.52541 0.75559 0.0
O298 O 0.8394 0.54225 0.74967 0.0
O299 O 0.87476 0.56593 0.79128 0.0
C300 C 0.85063 0.56648 0.77095 0.0
C301 C 0.96464 0.53488 0.84657 0.0
C302 C 0.92928 0.52253 0.72906 0.0
C303 C 0.87076 0.46377 0.79363 0.0
O304 O 0.90061 0.47343 0.79972 0.0
O305 O 0.85411 0.48197 0.78309 0.0
O306 O 0.96912 0.51336 0.8254 0.0
O307 O 0.94081 0.54735 0.84039 0.0
O308 O 0.76529 0.39012 0.57492 0.0
Cd309 Cd 0.76106 0.41609 0.53701 0.0
Cd310 Cd 0.76667 0.35959 0.50283 0.0
O311 O 0.7601 0.34353 0.54688 0.0
O312 O 0.71866 0.41378 0.51342 0.0
O313 O 0.74161 0.45073 0.55386 0.0
C314 C 0.7174 0.43834 0.53283 0.0
C315 C 0.75071 0.32145 0.45731 0.0
C316 C 0.76333 0.36063 0.57392 0.0
C317 C 0.81997 0.41925 0.50772 0.0
O318 O 0.80972 0.38961 0.50048 0.0
O319 O 0.80266 0.43584 0.52036 0.0
O320 O 0.77353 0.32052 0.47875 0.0
O321 O 0.7361 0.34392 0.46197 0.0
O322 O 0.64798 0.50492 0.23894 0.0
Cd323 Cd 0.67894 0.51462 0.28122 0.0
Cd324 Cd 0.6247 0.53603 0.30169 0.0
O325 O 0.60467 0.51719 0.25462 0.0
O326 O 0.71299 0.49262 0.26887 0.0
O327 O 0.68329 0.47864 0.30747 0.0
C328 C 0.70496 0.47336 0.28989 0.0
C329 C 0.59519 0.5242 0.34614 0.0
C330 C 0.61941 0.50677 0.23252 0.0
C331 C 0.68737 0.58455 0.30031 0.0
O332 O 0.65796 0.57881 0.30388 0.0
O333 O 0.70102 0.56203 0.29397 0.0
O334 O 0.58851 0.54342 0.32624 0.0
O335 O 0.61892 0.51179 0.34112 0.0
Zn336 Zn 0.04941 0.98933 0.0343 0.0
Zn337 Zn 0.98633 0.0426 0.00656 0.0
C338 C 0.01777 0.92785 0.0519 0.0
O339 O 0.99873 0.94276 0.06627 0.0
C340 C 0.02734 0.10175 0.99666 0.0
O341 O 0.04754 0.08477 0.98894 0.0
O342 O 0.09681 0.99527 0.04061 0.0
O343 O 0.03905 0.0029 0.98848 0.0
O344 O 0.00276 0.02535 0.96625 0.0
C345 C 0.10467 0.97827 0.01759 0.0
O346 O 0.08242 0.962 0.99517 0.0
O347 O 0.03637 0.94203 0.03343 0.0
C348 C 0.93422 0.05561 0.02869 0.0
O349 O 0.95788 0.06792 0.05137 0.0
O350 O 0.93954 0.03994 0.00321 0.0
O351 O 0.99949 0.02722 0.04806 0.0
O352 O 0.03217 0.00542 0.07551 0.0
O353 O 0.00295 0.08915 0.00918 0.0
C354 C 0.02658 0.01317 0.96378 0.0
C355 C 0.00813 0.01735 0.07432 0.0
Zn356 Zn 0.2613 0.75228 0.2997 0.0
Zn357 Zn 0.28355 0.77194 0.23966 0.0
C358 C 0.21335 0.70006 0.27176 0.0
O359 O 0.1969 0.71696 0.28772 0.0
C360 C 0.33063 0.82475 0.2646 0.0
O361 O 0.34541 0.80772 0.24653 0.0
O362 O 0.25408 0.74219 0.34458 0.0
O363 O 0.30856 0.76089 0.3025 0.0
O364 O 0.3092 0.74056 0.2523 0.0
C365 C 0.26081 0.7162 0.3504 0.0
O366 O 0.2691 0.69874 0.32676 0.0
O367 O 0.24263 0.71141 0.27109 0.0
C368 C 0.28693 0.80942 0.18897 0.0
O369 O 0.28174 0.82869 0.21297 0.0
O370 O 0.2896 0.78178 0.19396 0.0
O371 O 0.23642 0.76324 0.23775 0.0
O372 O 0.23709 0.78478 0.28769 0.0
O373 O 0.30216 0.81284 0.2685 0.0
C374 C 0.32155 0.74632 0.28179 0.0
C375 C 0.22457 0.77921 0.25832 0.0
Zn376 Zn 0.4947 0.03614 0.53338 0.0
Zn377 Zn 0.56735 0.99697 0.51575 0.0
C378 C 0.49876 0.0907 0.5761 0.0
O379 O 0.47704 0.07049 0.58807 0.0
C380 C 0.5415 0.93974 0.48055 0.0
O381 O 0.55956 0.95534 0.46112 0.0
O382 O 0.44683 0.03184 0.52423 0.0
O383 O 0.51537 0.031 0.49186 0.0
O384 O 0.55686 0.01557 0.47467 0.0
C385 C 0.43838 0.05306 0.50867 0.0
O386 O 0.46034 0.07385 0.49779 0.0
O387 O 0.51131 0.08103 0.55193 0.0
C388 C 0.61848 0.97055 0.53989 0.0
O389 O 0.59502 0.95367 0.5528 0.0
O390 O 0.61325 0.99221 0.52296 0.0
O391 O 0.55395 0.02306 0.5515 0.0
O392 O 0.50759 0.0103 0.56833 0.0
O393 O 0.5404 0.95271 0.50895 0.0
C394 C 0.53216 0.02628 0.46913 0.0
C395 C 0.53656 0.00912 0.571 0.0
Zn396 Zn 0.30552 0.25394 0.76 0.0
Zn397 Zn 0.24391 0.27488 0.77995 0.0
C398 C 0.28838 0.21395 0.70113 0.0
O399 O 0.29892 0.19618 0.72138 0.0
C400 C 0.25637 0.30867 0.84311 0.0
O401 O 0.24171 0.32656 0.82657 0.0
O402 O 0.3509 0.25144 0.7594 0.0
O403 O 0.31081 0.30048 0.77496 0.0
O404 O 0.26594 0.30914 0.7542 0.0
C405 C 0.36415 0.26706 0.73806 0.0
O406 O 0.34699 0.2807 0.71881 0.0
O407 O 0.28706 0.2418 0.71213 0.0
C408 C 0.18608 0.25688 0.80045 0.0
O409 O 0.20339 0.23928 0.81384 0.0
O410 O 0.19866 0.27724 0.78271 0.0
O411 O 0.23903 0.22842 0.76314 0.0
O412 O 0.28319 0.22114 0.78712 0.0
O413 O 0.26271 0.28458 0.82771 0.0
C414 C 0.29572 0.31846 0.76132 0.0
C415 C 0.25384 0.21081 0.7779 0.0
Zn416 Zn 0.03232 0.98412 0.53364 0.0
Zn417 Zn 0.01035 0.04378 0.51037 0.0
C418 C 0.07116 0.00589 0.593 0.0
O419 O 0.09092 0.9978 0.57356 0.0
C420 C 0.97173 0.02774 0.44977 0.0
O421 O 0.95433 0.04133 0.4681 0.0
O422 O 0.03451 0.93928 0.53762 0.0
O423 O 0.98616 0.9782 0.5165 0.0
O424 O 0.97867 0.02273 0.53916 0.0
C425 C 0.01537 0.92709 0.55679 0.0
O426 O 0.99876 0.94481 0.57131 0.0
O427 O 0.04275 0.0041 0.58115 0.0
C428 C 0.01948 0.099 0.48339 0.0
O429 O 0.03398 0.08134 0.46575 0.0
O430 O 0.00586 0.08816 0.50706 0.0
O431 O 0.0576 0.05106 0.52323 0.0
O432 O 0.06616 0.00482 0.50658 0.0
O433 O 0.99749 0.02296 0.46321 0.0
C434 C 0.96864 0.99321 0.53107 0.0
C435 C 0.07545 0.03477 0.51107 0.0
Zn436 Zn 0.25841 0.79426 0.75829 0.0
Zn437 Zn 0.28227 0.72373 0.77537 0.0
C438 C 0.20354 0.77616 0.7148 0.0
O439 O 0.22305 0.79339 0.69768 0.0
C440 C 0.33793 0.74562 0.81646 0.0
O441 O 0.32007 0.72667 0.83357 0.0
O442 O 0.25599 0.84128 0.76019 0.0
O443 O 0.26795 0.78595 0.80481 0.0
O444 O 0.25539 0.73443 0.80955 0.0
C445 C 0.23193 0.84774 0.77235 0.0
O446 O 0.21146 0.82455 0.78184 0.0
O447 O 0.21411 0.77053 0.74256 0.0
C448 C 0.31545 0.67396 0.76435 0.0
O449 O 0.33658 0.69855 0.75841 0.0
O450 O 0.28851 0.67775 0.77152 0.0
O451 O 0.26452 0.73293 0.73265 0.0
O452 O 0.28739 0.7814 0.72615 0.0
O453 O 0.32581 0.751 0.78914 0.0
C454 C 0.2556 0.76296 0.8198 0.0
C455 C 0.2831 0.75182 0.71795 0.0
Zn456 Zn 0.52786 0.02114 0.99338 0.0
Zn457 Zn 0.50632 0.99569 0.05123 0.0
C458 C 0.58269 0.06552 0.01897 0.0
O459 O 0.56534 0.08307 0.00552 0.0
C460 C 0.45165 0.95559 0.01574 0.0
O461 O 0.46449 0.93495 0.02981 0.0
O462 O 0.53524 0.02879 0.948 0.0
O463 O 0.51499 0.974 0.98874 0.0
O464 O 0.53409 0.96671 0.03739 0.0
C465 C 0.55595 0.01456 0.93859 0.0
O466 O 0.56969 0.99923 0.95917 0.0
O467 O 0.57126 0.03608 0.01813 0.0
C468 C 0.46952 0.0035 0.0987 0.0
O469 O 0.45884 0.01669 0.07423 0.0
O470 O 0.49167 0.98919 0.09488 0.0
O471 O 0.52413 0.0423 0.05753 0.0
O472 O 0.49945 0.04803 0.01117 0.0
O473 O 0.46597 0.98452 0.02012 0.0
C474 C 0.52772 0.95749 0.0071 0.0
C475 C 0.50842 0.05787 0.04102 0.0
Zn476 Zn 0.29106 0.23612 0.25708 0.0
Zn477 Zn 0.25497 0.30208 0.29539 0.0
C478 C 0.34458 0.25403 0.22549 0.0
O479 O 0.32206 0.24369 0.20122 0.0
C480 C 0.18375 0.27523 0.28816 0.0
O481 O 0.18119 0.27324 0.25623 0.0
O482 O 0.29049 0.18963 0.24763 0.0
O483 O 0.28127 0.23913 0.30451 0.0
O484 O 0.28108 0.28599 0.32995 0.0
C485 C 0.30971 0.18229 0.269 0.0
O486 O 0.32555 0.20444 0.29179 0.0
O487 O 0.33718 0.25549 0.25444 0.0
C488 C 0.23806 0.35637 0.2821 0.0
O489 O 0.22351 0.33505 0.25803 0.0
O490 O 0.25624 0.34874 0.30422 0.0
O491 O 0.26147 0.29595 0.24785 0.0
O492 O 0.26728 0.25257 0.21992 0.0
O493 O 0.21081 0.28411 0.30448 0.0
C494 C 0.2803 0.25671 0.3305 0.0
C495 C 0.2646 0.28106 0.22107 0.0
Zn496 Zn 0.53295 0.47833 0.03539 0.0
Zn497 Zn 0.50958 0.54053 0.00754 0.0
C498 C 0.571 0.48761 0.0945 0.0
O499 O 0.58653 0.47459 0.07351 0.0
C500 C 0.46853 0.52206 0.94841 0.0
O501 O 0.45066 0.53486 0.96686 0.0
O502 O 0.534 0.43247 0.03501 0.0
O503 O 0.48648 0.47375 0.02054 0.0
O504 O 0.47937 0.52024 0.03821 0.0
C505 C 0.51739 0.41939 0.05577 0.0
O506 O 0.50293 0.43656 0.07408 0.0
O507 O 0.54568 0.49513 0.08364 0.0
C508 C 0.51347 0.59651 0.97969 0.0
O509 O 0.52638 0.57986 0.95913 0.0
O510 O 0.50372 0.5847 0.00476 0.0
O511 O 0.55742 0.54772 0.01608 0.0
O512 O 0.56702 0.49999 0.00937 0.0
O513 O 0.49511 0.51892 0.96139 0.0
C514 C 0.46921 0.49046 0.03301 0.0
C515 C 0.57602 0.5298 0.00966 0.0
Zn516 Zn 0.75731 0.29516 0.26674 0.0
Zn517 Zn 0.78305 0.22128 0.28743 0.0
C518 C 0.70602 0.28479 0.21572 0.0
O519 O 0.7276 0.30025 0.1994 0.0
C520 C 0.83665 0.24583 0.32879 0.0
O521 O 0.81934 0.2249 0.3444 0.0
O522 O 0.76172 0.34316 0.27339 0.0
O523 O 0.75385 0.27649 0.30968 0.0
O524 O 0.75948 0.23037 0.32501 0.0
C525 C 0.73899 0.35125 0.28667 0.0
O526 O 0.7171 0.32901 0.29566 0.0
O527 O 0.714 0.27895 0.24418 0.0
C528 C 0.81743 0.17361 0.2715 0.0
O529 O 0.8371 0.19929 0.26562 0.0
O530 O 0.79069 0.17592 0.28052 0.0
O531 O 0.76204 0.23388 0.24795 0.0
O532 O 0.78607 0.27988 0.23624 0.0
O533 O 0.82579 0.25008 0.30053 0.0
C534 C 0.753 0.25728 0.3311 0.0
C535 C 0.78073 0.24994 0.231 0.0
Zn536 Zn 0.0282 0.52289 0.49307 0.0
Zn537 Zn 0.01337 0.50741 0.5551 0.0
C538 C 0.08613 0.56389 0.51503 0.0
O539 O 0.0724 0.58063 0.49611 0.0
C540 C 0.95475 0.46502 0.53039 0.0
O541 O 0.96839 0.44567 0.5458 0.0
O542 O 0.03619 0.5255 0.44705 0.0
O543 O 0.01196 0.47654 0.49252 0.0
O544 O 0.03998 0.47734 0.53903 0.0
C545 C 0.05618 0.50975 0.43904 0.0
O546 O 0.07021 0.49654 0.46147 0.0
O547 O 0.07141 0.53625 0.51871 0.0
C548 C 0.98144 0.51256 0.60684 0.0
O549 O 0.96768 0.52499 0.58373 0.0
O550 O 0.00544 0.50169 0.60139 0.0
O551 O 0.02544 0.55503 0.55588 0.0
O552 O 0.00179 0.55361 0.50657 0.0
O553 O 0.9701 0.49305 0.52929 0.0
C554 C 0.02853 0.46326 0.51089 0.0
C555 C 0.01027 0.56761 0.53523 0.0
Zn556 Zn 0.80198 0.75853 0.26255 0.0
Zn557 Zn 0.73911 0.77528 0.27929 0.0
C558 C 0.78559 0.71966 0.2035 0.0
O559 O 0.79667 0.70209 0.22361 0.0
C560 C 0.75173 0.80843 0.3432 0.0
O561 O 0.73795 0.82742 0.3274 0.0
O562 O 0.84712 0.75567 0.2619 0.0
O563 O 0.80653 0.8045 0.27846 0.0
O564 O 0.76174 0.8097 0.25394 0.0
C565 C 0.86199 0.77342 0.2431 0.0
O566 O 0.84685 0.79099 0.22665 0.0
O567 O 0.78396 0.74738 0.21459 0.0
C568 C 0.67798 0.75822 0.2954 0.0
O569 O 0.69059 0.73565 0.30549 0.0
O570 O 0.69447 0.77972 0.2815 0.0
O571 O 0.73456 0.72859 0.26376 0.0
O572 O 0.77985 0.72495 0.2887 0.0
O573 O 0.75721 0.78427 0.3271 0.0
C574 C 0.79087 0.82117 0.26344 0.0
C575 C 0.7509 0.71258 0.27909 0.0
Zn576 Zn 0.77209 0.25963 0.80514 0.0
Zn577 Zn 0.78551 0.27 0.7422 0.0
C578 C 0.73042 0.20076 0.79148 0.0
O579 O 0.71347 0.21758 0.80683 0.0
C580 C 0.82377 0.32996 0.76504 0.0
O581 O 0.84134 0.31853 0.74517 0.0
O582 O 0.76806 0.25791 0.85232 0.0
O583 O 0.81932 0.2728 0.80345 0.0
O584 O 0.81706 0.24497 0.75602 0.0
C585 C 0.78446 0.24023 0.8646 0.0
O586 O 0.80196 0.22699 0.84612 0.0
O587 O 0.75819 0.21405 0.78652 0.0
C588 C 0.77517 0.30333 0.6924 0.0
O589 O 0.76087 0.3144 0.71577 0.0
O590 O 0.78884 0.28089 0.69676 0.0
O591 O 0.73967 0.25092 0.74153 0.0
O592 O 0.74012 0.28276 0.78529 0.0
O593 O 0.79727 0.31293 0.76928 0.0
C594 C 0.832 0.25689 0.7836 0.0
C595 C 0.72623 0.26911 0.75774 0.0
Zn596 Zn 0.78781 0.73598 0.76205 0.0
Zn597 Zn 0.7563 0.79929 0.79473 0.0
C598 C 0.84247 0.75343 0.73182 0.0
O599 O 0.82035 0.74338 0.70718 0.0
C600 C 0.7056 0.78345 0.82658 0.0
O601 O 0.72794 0.80249 0.84706 0.0
O602 O 0.78851 0.69011 0.75213 0.0
O603 O 0.77487 0.73668 0.80838 0.0
O604 O 0.78309 0.78603 0.83163 0.0
C605 C 0.80679 0.68272 0.77435 0.0
O606 O 0.82029 0.70429 0.79868 0.0
O607 O 0.83448 0.75536 0.76057 0.0
C608 C 0.72976 0.84681 0.77804 0.0
O609 O 0.7161 0.8214 0.75802 0.0
O610 O 0.75046 0.84457 0.80101 0.0
O611 O 0.76928 0.79906 0.74923 0.0
O612 O 0.76344 0.751 0.72437 0.0
O613 O 0.71184 0.77517 0.79815 0.0
C614 C 0.77956 0.75654 0.83377 0.0
C615 C 0.76674 0.78054 0.7232 0.0
Zn616 Zn 0.54608 0.50034 0.53597 0.0
Zn617 Zn 0.48326 0.52395 0.49945 0.0
C618 C 0.52942 0.44874 0.57095 0.0
O619 O 0.53923 0.47242 0.59413 0.0
C620 C 0.50005 0.5783 0.47393 0.0
O621 O 0.48031 0.55786 0.45219 0.0
O622 O 0.59237 0.50065 0.54774 0.0
O623 O 0.54586 0.50811 0.48792 0.0
O624 O 0.49812 0.50098 0.46137 0.0
C625 C 0.59901 0.47958 0.52786 0.0
O626 O 0.57667 0.46375 0.50527 0.0
O627 O 0.5268 0.45465 0.54149 0.0
C628 C 0.43441 0.5531 0.5096 0.0
O629 O 0.45801 0.56824 0.53121 0.0
O630 O 0.43803 0.52962 0.49084 0.0
O631 O 0.48188 0.50508 0.5421 0.0
O632 O 0.52793 0.52743 0.56919 0.0
O633 O 0.50903 0.56903 0.5007 0.0
C634 C 0.5279 0.50468 0.46124 0.0
C635 C 0.49799 0.51903 0.56845 0.0
Zn636 Zn 0.99286 0.52894 0.03374 0.0
Zn637 Zn 0.06681 0.5045 0.01622 0.0
C638 C 0.00728 0.58213 0.07688 0.0
O639 O 0.98726 0.56128 0.09009 0.0
C640 C 0.05071 0.44715 0.9781 0.0
O641 O 0.07068 0.46482 0.96177 0.0
O642 O 0.94598 0.53194 0.02843 0.0
O643 O 0.00523 0.51332 0.99009 0.0
O644 O 0.05465 0.5279 0.97947 0.0
C645 C 0.94138 0.55672 0.01644 0.0
O646 O 0.96593 0.57641 0.00823 0.0
O647 O 0.01635 0.57348 0.04997 0.0
C648 C 0.11914 0.48237 0.04396 0.0
O649 O 0.09578 0.46732 0.05839 0.0
O650 O 0.11357 0.50186 0.02431 0.0
O651 O 0.0507 0.52425 0.0542 0.0
O652 O 0.0051 0.50273 0.06885 0.0
O653 O 0.04333 0.45961 0.00429 0.0
C654 C 0.02543 0.52794 0.9732 0.0
C655 C 0.03506 0.50692 0.07259 0.0
C656 C 0.03896 0.18263 0.9677 0.0
C657 C 0.0156 0.17706 0.94077 0.0
C658 C 0.04345 0.15798 0.98572 0.0
C659 C 0.02409 0.12756 0.97758 0.0
H660 H 0.05404 0.206 0.97455 0.0
H661 H 0.0617 0.16277 0.00625 0.0
S662 S 0.95853 0.10165 0.91057 0.0
N663 N 0.97271 0.13938 0.90733 0.0
N664 N 0.98028 0.09335 0.94182 0.0
C665 C 1.00043 0.12195 0.95103 0.0
C666 C 0.99638 0.1467 0.9324 0.0
C667 C 0.13927 0.78563 0.25311 0.0
C668 C 0.13442 0.79507 0.2218 0.0
C669 C 0.16924 0.7827 0.26613 0.0
C670 C 0.1951 0.78865 0.24803 0.0
H671 H 0.11951 0.77864 0.2669 0.0
H672 H 0.17164 0.77369 0.28945 0.0
S673 S 0.19667 0.81971 0.16798 0.0
N674 N 0.15961 0.81534 0.17562 0.0
N675 N 0.21516 0.80822 0.1995 0.0
C676 C 0.19117 0.80044 0.21803 0.0
C677 C 0.16103 0.80418 0.2051 0.0
C678 C 0.5269 0.85147 0.474 0.0
C679 C 0.51271 0.84267 0.44156 0.0
C680 C 0.53348 0.88299 0.48806 0.0
C681 C 0.52623 0.90658 0.47001 0.0
H682 H 0.53477 0.83434 0.48802 0.0
H683 H 0.54654 0.88926 0.51213 0.0
S684 S 0.48346 0.89556 0.38705 0.0
N685 N 0.48705 0.8598 0.39396 0.0
N686 N 0.5004 0.91907 0.42033 0.0
C687 C 0.50959 0.89786 0.43886 0.0
C688 C 0.50248 0.86582 0.42465 0.0
C689 C 0.44325 0.29159 0.70586 0.0
C690 C 0.4633 0.27766 0.7252 0.0
C691 C 0.41143 0.28825 0.71058 0.0
C692 C 0.39829 0.27092 0.73492 0.0
H693 H 0.45181 0.3043 0.68607 0.0
H694 H 0.39695 0.29896 0.6945 0.0
S695 S 0.4415 0.2324 0.79436 0.0
N696 N 0.46835 0.24772 0.77126 0.0
N697 N 0.40844 0.24154 0.78019 0.0
C698 C 0.41837 0.25798 0.7554 0.0
C699 C 0.45088 0.26136 0.75056 0.0
C700 C 0.034 0.84687 0.56232 0.0
C701 C 0.01103 0.83206 0.58108 0.0
C702 C 0.03479 0.87729 0.55393 0.0
C703 C 0.01261 0.8941 0.56392 0.0
H704 H 0.05216 0.83528 0.55476 0.0
H705 H 0.05343 0.88795 0.54019 0.0
S706 S 0.94542 0.86456 0.61036 0.0
N707 N 0.96412 0.83555 0.60735 0.0
N708 N 0.96533 0.89267 0.59137 0.0
C709 C 0.98867 0.87908 0.58156 0.0
C710 C 0.98795 0.84809 0.5902 0.0
C711 C 0.41736 0.75524 0.8662 0.0
C712 C 0.43906 0.76922 0.84585 0.0
C713 C 0.38477 0.74872 0.8568 0.0
C714 C 0.37245 0.75567 0.82652 0.0
H715 H 0.42552 0.74954 0.88986 0.0
H716 H 0.36916 0.73783 0.87343 0.0
S717 S 0.41935 0.79162 0.76371 0.0
N718 N 0.44608 0.78952 0.79376 0.0
N719 N 0.38471 0.77701 0.77588 0.0
C720 C 0.39389 0.7697 0.80583 0.0
C721 C 0.4272 0.77649 0.81552 0.0
C722 C 0.48989 0.13894 0.05209 0.0
C723 C 0.49309 0.14598 0.08622 0.0
C724 C 0.49367 0.1099 0.03753 0.0
C725 C 0.50143 0.0871 0.05657 0.0
H726 H 0.48558 0.15645 0.03646 0.0
H727 H 0.49188 0.10589 0.01121 0.0
S728 S 0.50924 0.09247 0.14696 0.0
N729 N 0.50132 0.1263 0.13857 0.0
N730 N 0.50989 0.07257 0.11136 0.0
C731 C 0.50323 0.09324 0.09069 0.0
C732 C 0.49858 0.12241 0.10547 0.0
C733 C 0.09779 0.25883 0.30513 0.0
C734 C 0.10003 0.26992 0.33841 0.0
C735 C 0.12492 0.26018 0.28908 0.0
C736 C 0.15533 0.27219 0.30584 0.0
H737 H 0.07487 0.24932 0.29123 0.0
H738 H 0.12198 0.25183 0.26334 0.0
S739 S 0.17395 0.30292 0.3938 0.0
N740 N 0.135 0.29254 0.38781 0.0
N741 N 0.18593 0.29476 0.35813 0.0
C742 C 0.15783 0.28284 0.33938 0.0
C743 C 0.13022 0.28183 0.35552 0.0
C744 C 0.986 0.02463 0.1613 0.0
C745 C 0.95266 0.01504 0.15695 0.0
C746 C 0.00386 0.02576 0.1346 0.0
C747 C 0.98913 0.01762 0.1024 0.0
H748 H 0.99847 0.0312 0.18559 0.0
H749 H 0.02939 0.03308 0.1392 0.0
S750 S 0.90316 0.98658 0.07766 0.0
N751 N 0.90609 0.99456 0.11763 0.0
N752 N 0.93955 0.99674 0.06789 0.0
C753 C 0.95596 0.00745 0.0977 0.0
C754 C 0.93778 0.00618 0.1248 0.0
C755 C 0.26443 0.7221 0.44215 0.0
C756 C 0.27084 0.69306 0.44911 0.0
C757 C 0.2606 0.72916 0.41011 0.0
C758 C 0.26289 0.70737 0.38382 0.0
H759 H 0.26246 0.73965 0.46162 0.0
H760 H 0.25617 0.75204 0.40603 0.0
S761 S 0.27736 0.62708 0.3889 0.0
N762 N 0.27812 0.64182 0.4271 0.0
N763 N 0.27069 0.65493 0.36676 0.0
C764 C 0.26881 0.67799 0.39039 0.0
C765 C 0.27291 0.67089 0.42307 0.0
C766 C 0.60047 0.99665 0.63311 0.0
C767 C 0.58389 0.98686 0.65916 0.0
C768 C 0.58468 0.00252 0.60434 0.0
C769 C 0.55153 0.99782 0.59979 0.0
H770 H 0.62608 0.00217 0.63571 0.0
H771 H 0.59894 0.01239 0.58619 0.0
S772 S 0.49662 0.96801 0.65889 0.0
N773 N 0.53217 0.96995 0.67769 0.0
N774 N 0.50233 0.97975 0.62281 0.0
C775 C 0.53439 0.98573 0.6247 0.0
C776 C 0.55059 0.98042 0.65449 0.0
C777 C 0.25703 0.34785 0.92913 0.0
C778 C 0.27113 0.32918 0.94905 0.0
C779 C 0.25288 0.34118 0.8951 0.0
C780 C 0.26242 0.31537 0.87932 0.0
H781 H 0.24962 0.36826 0.93981 0.0
H782 H 0.24202 0.35655 0.88111 0.0
S783 S 0.29937 0.25812 0.92029 0.0
N784 N 0.29397 0.28311 0.95046 0.0
N785 N 0.2859 0.27044 0.88654 0.0
C786 C 0.27618 0.29617 0.89893 0.0
C787 C 0.28057 0.30308 0.93371 0.0
C788 C 0.9784 0.01011 0.35907 0.0
C789 C 0.95066 0.01659 0.34386 0.0
C790 C 0.98486 0.01326 0.39322 0.0
C791 C 0.96364 0.02263 0.41362 0.0
H792 H 0.99535 0.00255 0.34449 0.0
H793 H 0.00677 0.00845 0.40364 0.0
S794 S 0.88666 0.04075 0.38589 0.0
N795 N 0.90138 0.03202 0.35192 0.0
N796 N 0.91305 0.03741 0.41568 0.0
C797 C 0.93559 0.02881 0.39862 0.0
C798 C 0.92926 0.02598 0.36392 0.0
C799 C 0.30466 0.69061 0.65965 0.0
C800 C 0.30952 0.70597 0.63169 0.0
C801 C 0.29787 0.7064 0.68793 0.0
C802 C 0.29672 0.73847 0.69002 0.0
H803 H 0.30322 0.66547 0.65897 0.0
H804 H 0.29146 0.69265 0.70761 0.0
S805 S 0.31427 0.79136 0.62606 0.0
N806 N 0.31733 0.75647 0.60933 0.0
N807 N 0.30545 0.78631 0.66333 0.0
C808 C 0.30501 0.75512 0.66362 0.0
C809 C 0.31134 0.73885 0.63431 0.0
C810 C 0.58702 0.98887 0.86105 0.0
C811 C 0.58141 0.01136 0.84056 0.0
C812 C 0.57839 0.99004 0.89263 0.0
C813 C 0.5639 0.01379 0.90491 0.0
H814 H 0.59832 0.97028 0.85273 0.0
H815 H 0.58315 0.97212 0.90751 0.0
S816 S 0.54525 0.07915 0.86163 0.0
N817 N 0.56111 0.05864 0.83505 0.0
N818 N 0.5449 0.0607 0.89456 0.0
C819 C 0.558 0.03637 0.88471 0.0
C820 C 0.56677 0.0352 0.85249 0.0
C821 C 0.25863 0.29892 0.13212 0.0
C822 C 0.2712 0.33184 0.1349 0.0
C823 C 0.25634 0.28243 0.15986 0.0
C824 C 0.26652 0.29823 0.19148 0.0
H825 H 0.25034 0.2858 0.10833 0.0
H826 H 0.24635 0.25721 0.15653 0.0
S827 S 0.30649 0.38315 0.21149 0.0
N828 N 0.29709 0.37875 0.17167 0.0
N829 N 0.29301 0.34815 0.22331 0.0
C830 C 0.28002 0.33095 0.19438 0.0
C831 C 0.28228 0.34763 0.16629 0.0
C832 C 0.1837 0.96292 0.04845 0.0
C833 C 0.19281 0.94901 0.01997 0.0
C834 C 0.15598 0.97437 0.04746 0.0
C835 C 0.13677 0.97245 0.0179 0.0
H836 H 0.19722 0.96357 0.07183 0.0
H837 H 0.14874 0.98315 0.07013 0.0
S838 S 0.15387 0.94391 0.93591 0.0
N839 N 0.1829 0.93778 0.96111 0.0
N840 N 0.13125 0.9598 0.95903 0.0
C841 C 0.14704 0.96081 0.98904 0.0
C842 C 0.17495 0.94889 0.99012 0.0
C843 C 0.6454 0.58977 0.98609 0.0
C844 C 0.67177 0.57684 0.99362 0.0
C845 C 0.61467 0.57406 0.99069 0.0
C846 C 0.60865 0.54445 0.00268 0.0
H847 H 0.64854 0.61286 0.97762 0.0
H848 H 0.59547 0.58555 0.98522 0.0
S849 S 0.66869 0.49913 0.02477 0.0
N850 N 0.68924 0.5316 0.01267 0.0
N851 N 0.6315 0.50215 0.02085 0.0
C852 C 0.63445 0.5305 0.00902 0.0
C853 C 0.66591 0.54662 0.00459 0.0
C854 C 0.70621 0.42233 0.31262 0.0
C855 C 0.71791 0.44449 0.29164 0.0
C856 C 0.71442 0.39296 0.3117 0.0
C857 C 0.73489 0.38437 0.28992 0.0
H858 H 0.6896 0.42716 0.32918 0.0
H859 H 0.70387 0.37646 0.32771 0.0
S860 S 0.77413 0.4346 0.23144 0.0
N861 N 0.75275 0.45641 0.24961 0.0
N862 N 0.76817 0.40121 0.24809 0.0
C863 C 0.74809 0.40683 0.26992 0.0
C864 C 0.73959 0.43682 0.27071 0.0
C865 C 0.87448 0.41249 0.50203 0.0
C866 C 0.854 0.43302 0.50672 0.0
C867 C 0.90725 0.42342 0.50821 0.0
C868 C 0.92086 0.45538 0.51851 0.0
H869 H 0.86523 0.38734 0.49548 0.0
H870 H 0.92201 0.40648 0.50604 0.0
S871 S 0.87833 0.51979 0.53019 0.0
N872 N 0.85005 0.48755 0.51943 0.0
N873 N 0.9119 0.50819 0.53005 0.0
C874 C 0.90098 0.47671 0.52072 0.0
C875 C 0.86746 0.4655 0.51505 0.0
C876 C 0.33985 0.11328 0.29738 0.0
C877 C 0.33453 0.0915 0.26926 0.0
C878 C 0.3305 0.14192 0.29713 0.0
C879 C 0.31565 0.15014 0.26868 0.0
H880 H 0.35187 0.10844 0.3197 0.0
H881 H 0.33561 0.15805 0.31941 0.0
S882 S 0.29614 0.10126 0.1884 0.0
N883 N 0.31296 0.07976 0.21211 0.0
N884 N 0.29557 0.1339 0.21167 0.0
C885 C 0.30932 0.12823 0.24054 0.0
C886 C 0.31876 0.09885 0.24082 0.0
C887 C 0.3667 0.08527 0.48299 0.0
C888 C 0.34482 0.07375 0.50434 0.0
C889 C 0.3962 0.07723 0.4837 0.0
C890 C 0.40523 0.05723 0.50573 0.0
H891 H 0.36145 0.10141 0.46611 0.0
H892 H 0.41241 0.08751 0.46728 0.0
S893 S 0.35607 0.01917 0.56575 0.0
N894 N 0.33381 0.03994 0.54733 0.0
N895 N 0.38919 0.02493 0.54854 0.0
C896 C 0.38312 0.04443 0.52633 0.0
C897 C 0.353 0.05268 0.52568 0.0
C898 C 0.68738 0.63865 0.28534 0.0
C899 C 0.70437 0.61771 0.29811 0.0
C900 C 0.7027 0.66883 0.27896 0.0
C901 C 0.73572 0.68002 0.28593 0.0
H902 H 0.66201 0.63126 0.27896 0.0
H903 H 0.68833 0.68337 0.26816 0.0
S904 S 0.79123 0.63489 0.32077 0.0
N905 N 0.75618 0.61032 0.3178 0.0
N906 N 0.78492 0.66757 0.3071 0.0
C907 C 0.75302 0.65955 0.29939 0.0
C908 C 0.73741 0.62837 0.30519 0.0
C909 C 0.87682 0.40881 0.79705 0.0
C910 C 0.85657 0.42969 0.7935 0.0
C911 C 0.86555 0.37624 0.78948 0.0
C912 C 0.83352 0.3632 0.77902 0.0
H913 H 0.90203 0.41767 0.80368 0.0
H914 H 0.88231 0.36129 0.79061 0.0
S915 S 0.76964 0.40655 0.7702 0.0
N916 N 0.80208 0.43441 0.78175 0.0
N917 N 0.78089 0.37275 0.76872 0.0
C918 C 0.81241 0.38328 0.77812 0.0
C919 C 0.82395 0.41667 0.78511 0.0
C920 C 0.00689 0.85301 0.09341 0.0
C921 C 0.03745 0.84718 0.09599 0.0
C922 C 1.00027 0.8784 0.0778 0.0
C923 C 0.02397 0.89878 0.06421 0.0
H924 H 0.988 0.83799 0.10371 0.0
H925 H 0.97657 0.88243 0.07686 0.0
S926 S 0.10852 0.89511 0.06691 0.0
N927 N 0.09194 0.86466 0.08501 0.0
N928 N 0.07966 0.9122 0.05581 0.0
C929 C 0.05464 0.89308 0.06658 0.0
C930 C 0.06134 0.86733 0.08246 0.0
C931 C 0.8919 0.22038 0.82702 0.0
C932 C 0.91977 0.24387 0.82822 0.0
C933 C 0.86372 0.22356 0.80993 0.0
C934 C 0.86269 0.25062 0.79438 0.0
H935 H 0.89176 0.19988 0.83988 0.0
H936 H 0.84234 0.2055 0.81016 0.0
S937 S 0.92977 0.31812 0.79007 0.0
N938 N 0.94524 0.29407 0.81155 0.0
N939 N 0.89199 0.30067 0.78054 0.0
C940 C 0.89064 0.27374 0.79477 0.0
C941 C 0.91936 0.27019 0.81149 0.0
C942 C 0.50227 0.16537 0.63187 0.0
C943 C 0.52299 0.18867 0.61817 0.0
C944 C 0.49456 0.13387 0.61798 0.0
C945 C 0.50751 0.1243 0.58999 0.0
H946 H 0.49187 0.1715 0.6536 0.0
H947 H 0.47847 0.11689 0.62952 0.0
S948 S 0.5635 0.17619 0.54496 0.0
N949 N 0.5565 0.20018 0.57514 0.0
N950 N 0.54227 0.14081 0.54901 0.0
C951 C 0.52826 0.1474 0.57593 0.0
C952 C 0.53588 0.17962 0.58998 0.0
C953 C 0.59491 0.73388 0.31689 0.0
C954 C 0.5917 0.76118 0.33564 0.0
C955 C 0.62255 0.73357 0.3023 0.0
C956 C 0.64719 0.76081 0.3053 0.0
H957 H 0.5767 0.71228 0.31492 0.0
H958 H 0.62511 0.71164 0.28947 0.0
S959 S 0.64914 0.83854 0.35065 0.0
N960 N 0.61461 0.81616 0.35593 0.0
N961 N 0.66612 0.816 0.3273 0.0
C962 C 0.64346 0.78867 0.32262 0.0
C963 C 0.61575 0.78873 0.33819 0.0
C964 C 0.03107 0.18692 0.48197 0.0
C965 C 0.01952 0.18883 0.44956 0.0
C966 C 0.02966 0.15756 0.49361 0.0
C967 C 0.01671 0.12943 0.47312 0.0
H968 H 0.04198 0.20816 0.4982 0.0
H969 H 0.03983 0.15684 0.51825 0.0
S970 S 0.97971 0.12106 0.38798 0.0
N971 N 0.99192 0.15957 0.3983 0.0
N972 N 0.98999 0.1047 0.42032 0.0
C973 C 0.00403 0.13088 0.44127 0.0
C974 C 0.00524 0.16055 0.42942 0.0
C975 C 0.6322 0.26938 0.15557 0.0
C976 C 0.60759 0.26163 0.17522 0.0
C977 C 0.66394 0.27661 0.16881 0.0
C978 C 0.67237 0.27618 0.20218 0.0
H979 H 0.62701 0.26994 0.12965 0.0
H980 H 0.68197 0.28248 0.15268 0.0
S981 S 0.61722 0.25776 0.26447 0.0
N982 N 0.59401 0.25421 0.23001 0.0
N983 N 0.65364 0.26766 0.25485 0.0
C984 C 0.64809 0.26838 0.22219 0.0
C985 C 0.61573 0.26119 0.20874 0.0
C986 C 0.53618 0.89401 0.94274 0.0
C987 C 0.53856 0.86836 0.96012 0.0
C988 C 0.53333 0.92266 0.95848 0.0
C989 C 0.53307 0.92723 0.99242 0.0
H990 H 0.53587 0.89192 0.9165 0.0
H991 H 0.53088 0.94127 0.9436 0.0
S992 S 0.53964 0.86814 0.04971 0.0
N993 N 0.54125 0.8496 0.01358 0.0
N994 N 0.53616 0.90405 0.04326 0.0
C995 C 0.53633 0.90223 0.01044 0.0
C996 C 0.53902 0.87268 0.99428 0.0
C997 C 0.91405 0.76371 0.68607 0.0
C998 C 0.93321 0.74672 0.70263 0.0
C999 C 0.88562 0.76775 0.69713 0.0
C1000 C 0.87563 0.7557 0.7256 0.0
H1001 H 0.92013 0.77254 0.66341 0.0
H1002 H 0.87065 0.77926 0.6825 0.0
S1003 S 0.91841 0.71207 0.77971 0.0
N1004 N 0.94108 0.71959 0.75033 0.0
N1005 N 0.8879 0.72786 0.77132 0.0
C1006 C 0.89546 0.74049 0.7436 0.0
C1007 C 0.92417 0.7358 0.73204 0.0
C1008 C 0.08693 0.00827 0.90248 0.0
C1009 C 0.07505 0.02117 0.87543 0.0
C1010 C 0.07085 0.00505 0.9304 0.0
C1011 C 0.04174 0.01389 0.9325 0.0
H1012 H 0.10939 0.0015 0.90257 0.0
H1013 H 0.08194 0.9964 0.95083 0.0
S1014 S 0.99925 0.04693 0.86714 0.0
N1015 N 0.03167 0.04176 0.85202 0.0
N1016 N 1.00119 0.03493 0.90364 0.0
C1017 C 0.02916 0.02592 0.90505 0.0
C1018 C 0.0458 0.0297 0.87686 0.0
C1019 C 0.76159 0.31323 0.60367 0.0
C1020 C 0.76712 0.34637 0.60444 0.0
C1021 C 0.76577 0.29915 0.63217 0.0
C1022 C 0.77535 0.31781 0.6622 0.0
H1023 H 0.75364 0.298 0.58097 0.0
H1024 H 0.76038 0.2736 0.63089 0.0
S1025 S 0.79618 0.40517 0.67754 0.0
N1026 N 0.78519 0.39731 0.63797 0.0
N1027 N 0.79247 0.37049 0.69138 0.0
C1028 C 0.78186 0.35076 0.66336 0.0
C1029 C 0.77785 0.36517 0.6345 0.0
C1030 C 0.48439 0.0518 0.40001 0.0
C1031 C 0.4902 0.0335 0.37254 0.0
C1032 C 0.49965 0.05083 0.43095 0.0
C1033 C 0.52132 0.03158 0.43567 0.0
H1034 H 0.46687 0.06591 0.39795 0.0
H1035 H 0.49361 0.0645 0.45149 0.0
S1036 S 0.54783 0.98204 0.37115 0.0
N1037 N 0.52161 0.99788 0.35162 0.0
N1038 N 0.55008 0.99611 0.40978 0.0
C1039 C 0.52907 0.01494 0.40811 0.0
C1040 C 0.51352 0.01585 0.37656 0.0
C1041 C 0.77942 0.71594 0.11077 0.0
C1042 C 0.77164 0.68313 0.10099 0.0
C1043 C 0.78253 0.72798 0.14397 0.0
C1044 C 0.77781 0.70759 0.16837 0.0
H1045 H 0.78414 0.73233 0.09283 0.0
H1046 H 0.78988 0.7533 0.15063 0.0
S1047 S 0.75154 0.62017 0.155 0.0
N1048 N 0.75545 0.63081 0.11824 0.0
N1049 N 0.76125 0.65332 0.17997 0.0
C1050 C 0.76823 0.67493 0.15862 0.0
C1051 C 0.76515 0.66274 0.12513 0.0
C1052 C 0.07261 0.00343 0.68474 0.0
C1053 C 0.10475 0.0163 0.69593 0.0
C1054 C 0.06118 0.00166 0.65152 0.0
C1055 C 0.0815 0.01286 0.62853 0.0
H1056 H 0.05652 0.99363 0.70147 0.0
H1057 H 0.03668 0.99015 0.64357 0.0
S1058 S 0.16608 0.05409 0.64649 0.0
N1059 N 0.15553 0.04428 0.68197 0.0
N1060 N 0.13417 0.04076 0.62009 0.0
C1061 C 0.11309 0.02753 0.63987 0.0
C1062 C 0.12467 0.02931 0.67341 0.0
C1063 C 0.72981 0.30868 0.39858 0.0
C1064 C 0.74459 0.2999 0.42661 0.0
C1065 C 0.73049 0.29297 0.36781 0.0
C1066 C 0.74581 0.26783 0.3639 0.0
H1067 H 0.7195 0.32914 0.40008 0.0
H1068 H 0.72024 0.30164 0.34682 0.0
S1069 S 0.78229 0.23159 0.43032 0.0
N1070 N 0.77065 0.26135 0.44912 0.0
N1071 N 0.77183 0.23184 0.39115 0.0
C1072 C 0.75779 0.25675 0.392 0.0
C1073 C 0.75726 0.27285 0.4234 0.0
C1074 C 0.46717 0.0108 0.18999 0.0
C1075 C 0.44081 0.02396 0.19361 0.0
C1076 C 0.47597 0.00354 0.15911 0.0
C1077 C 0.45887 0.00949 0.13091 0.0
H1078 H 0.48045 0.00503 0.21103 0.0
H1079 H 0.49636 0.99332 0.15741 0.0
S1080 S 0.38906 0.0456 0.12778 0.0
N1081 N 0.39856 0.04396 0.16686 0.0
N1082 N 0.41491 0.03045 0.10881 0.0
C1083 C 0.43287 0.02337 0.13437 0.0
C1084 C 0.42392 0.03062 0.16574 0.0
C1085 C 0.7428 0.72191 0.9058 0.0
C1086 C 0.76732 0.7109 0.92216 0.0
C1087 C 0.74734 0.73758 0.87791 0.0
C1088 C 0.77678 0.74392 0.8657 0.0
H1089 H 0.71948 0.7174 0.91387 0.0
H1090 H 0.72725 0.74367 0.86513 0.0
S1091 S 0.84904 0.72101 0.89946 0.0
N1092 N 0.82247 0.70783 0.92382 0.0
N1093 N 0.8309 0.73798 0.87192 0.0
C1094 C 0.80163 0.73351 0.88192 0.0
C1095 C 0.79697 0.71699 0.91005 0.0
C1096 C 0.85726 0.08053 0.0094 0.0
C1097 C 0.84807 0.08628 0.04059 0.0
C1098 C 0.88418 0.06846 0.00527 0.0
C1099 C 0.90317 0.06282 0.03234 0.0
H1100 H 0.84382 0.08577 0.98818 0.0
H1101 H 0.89105 0.0651 0.981 0.0
S1102 S 0.8891 0.07399 0.119 0.0
N1103 N 0.8594 0.0844 0.09872 0.0
N1104 N 0.91071 0.06355 0.09117 0.0
C1105 C 0.89388 0.06808 0.0635 0.0
C1106 C 0.86611 0.07935 0.06758 0.0
C1107 C 0.39981 0.42519 0.04675 0.0
C1108 C 0.37508 0.4407 0.05088 0.0
C1109 C 0.42989 0.44162 0.04136 0.0
C1110 C 0.43702 0.47452 0.04011 0.0
H1111 H 0.39591 0.39988 0.04729 0.0
H1112 H 0.44764 0.42813 0.03783 0.0
S1113 S 0.38068 0.52661 0.04855 0.0
N1114 N 0.35971 0.49114 0.05281 0.0
N1115 N 0.41652 0.5221 0.04302 0.0
C1116 C 0.41271 0.49057 0.04457 0.0
C1117 C 0.38178 0.4737 0.0499 0.0
C1118 C 0.31287 0.5875 0.73753 0.0
C1119 C 0.34375 0.58485 0.74828 0.0
C1120 C 0.30293 0.61582 0.74443 0.0
C1121 C 0.32375 0.64269 0.76174 0.0
H1122 H 0.29636 0.56768 0.72325 0.0
H1123 H 0.27935 0.61711 0.73487 0.0
S1124 S 0.40648 0.64815 0.7965 0.0
N1125 N 0.39448 0.61154 0.7785 0.0
N1126 N 0.37608 0.66462 0.79062 0.0
C1127 C 0.35433 0.64014 0.77328 0.0
C1128 C 0.36426 0.61128 0.76681 0.0
C1129 C 0.17395 0.5706 0.53216 0.0
C1130 C 0.18516 0.60296 0.54323 0.0
C1131 C 0.1414 0.55733 0.52503 0.0
C1132 C 0.11928 0.57612 0.52862 0.0
H1133 H 0.19037 0.55581 0.52734 0.0
H1134 H 0.13365 0.53278 0.51483 0.0
S1135 S 0.13596 0.66023 0.56284 0.0
N1136 N 0.17114 0.65211 0.56211 0.0
N1137 N 0.1102 0.62717 0.54798 0.0
C1138 C 0.13 0.60777 0.54187 0.0
C1139 C 0.16294 0.6212 0.54941 0.0
C1140 C 0.70649 0.92582 0.79114 0.0
C1141 C 0.69899 0.93179 0.75894 0.0
C1142 C 0.71808 0.89901 0.79754 0.0
C1143 C 0.72149 0.877 0.7719 0.0
H1144 H 0.70345 0.94196 0.81141 0.0
H1145 H 0.72326 0.8949 0.82257 0.0
S1146 S 0.70443 0.88181 0.68341 0.0
N1147 N 0.6961 0.91384 0.70139 0.0
N1148 N 0.71638 0.86314 0.7132 0.0
C1149 C 0.71403 0.88292 0.7397 0.0
C1150 C 0.70315 0.9104 0.73326 0.0
C1151 C 0.69022 0.94824 0.58139 0.0
C1152 C 0.70687 0.9411 0.55528 0.0
C1153 C 0.66206 0.9586 0.57621 0.0
C1154 C 0.65008 0.96335 0.54491 0.0
H1155 H 0.69837 0.9447 0.60591 0.0
H1156 H 0.64934 0.9626 0.59685 0.0
S1157 S 0.68549 0.94976 0.46859 0.0
N1158 N 0.70963 0.94018 0.49701 0.0
N1159 N 0.6574 0.96102 0.48757 0.0
C1160 C 0.66707 0.95747 0.51876 0.0
C1161 C 0.69527 0.94596 0.52386 0.0
C1162 C 0.31392 0.40335 0.73901 0.0
C1163 C 0.34727 0.41149 0.74186 0.0
C1164 C 0.2973 0.37326 0.74498 0.0
C1165 C 0.31333 0.35019 0.75444 0.0
H1166 H 0.30049 0.42046 0.73252 0.0
H1167 H 0.27171 0.36826 0.74264 0.0
S1168 S 0.40063 0.35896 0.76402 0.0
N1169 N 0.39555 0.39304 0.75321 0.0
N1170 N 0.36475 0.33769 0.76563 0.0
C1171 C 0.34668 0.358 0.75701 0.0
C1172 C 0.36349 0.38825 0.75039 0.0
C1173 C 0.20621 0.61185 0.25961 0.0
C1174 C 0.17328 0.59989 0.25397 0.0
C1175 C 0.21924 0.64444 0.26328 0.0
C1176 C 0.19977 0.66619 0.26162 0.0
H1177 H 0.22204 0.59605 0.26233 0.0
H1178 H 0.24462 0.65262 0.26908 0.0
S1179 S 0.11263 0.64707 0.24188 0.0
N1180 N 0.12181 0.61241 0.2428 0.0
N1181 N 0.14644 0.67361 0.25022 0.0
C1182 C 0.16704 0.65456 0.25405 0.0
C1183 C 0.15375 0.62142 0.25011 0.0
C1184 C 0.49091 0.65294 0.43933 0.0
C1185 C 0.51984 0.67436 0.45005 0.0
C1186 C 0.48478 0.62234 0.44811 0.0
C1187 C 0.50723 0.61177 0.46808 0.0
H1188 H 0.47287 0.65962 0.42356 0.0
H1189 H 0.46218 0.60669 0.43882 0.0
S1190 S 0.58633 0.65868 0.50379 0.0
N1191 N 0.57106 0.68316 0.48269 0.0
N1192 N 0.55914 0.62521 0.49931 0.0
C1193 C 0.53587 0.63309 0.48001 0.0
C1194 C 0.54229 0.66448 0.47092 0.0
C1195 C 0.6492 0.2967 0.7477 0.0
C1196 C 0.64037 0.29084 0.71382 0.0
C1197 C 0.67737 0.29032 0.7618 0.0
C1198 C 0.69713 0.2769 0.74261 0.0
H1199 H 0.63392 0.30569 0.76348 0.0
H1200 H 0.68317 0.295 0.78798 0.0
S1201 S 0.68474 0.25746 0.65251 0.0
N1202 N 0.65426 0.27197 0.66136 0.0
N1203 N 0.70604 0.2586 0.68771 0.0
C1204 C 0.68868 0.27133 0.70862 0.0
C1205 C 0.66065 0.27872 0.69427 0.0
C1206 C 0.03531 0.36877 0.92494 0.0
C1207 C 0.0187 0.34733 0.94395 0.0
C1208 C 0.04504 0.401 0.93606 0.0
C1209 C 0.03871 0.4131 0.96674 0.0
H1210 H 0.04069 0.36069 0.90109 0.0
H1211 H 0.05774 0.41651 0.92039 0.0
S1212 S 0.99692 0.3666 0.0266 0.0
N1213 N 0.99682 0.34026 0.99534 0.0
N1214 N 0.01526 0.4009 0.01634 0.0
C1215 C 0.02214 0.39191 0.98611 0.0
C1216 C 0.01212 0.35902 0.97471 0.0
C1217 C 0.94031 0.79025 0.20793 0.0
C1218 C 0.95783 0.77176 0.22436 0.0
C1219 C 0.90967 0.79111 0.21475 0.0
C1220 C 0.89521 0.77347 0.23822 0.0
H1221 H 0.94998 0.80364 0.18905 0.0
H1222 H 0.89704 0.80528 0.20091 0.0
S1223 S 0.93182 0.72308 0.28992 0.0
N1224 N 0.95911 0.73674 0.26658 0.0
N1225 N 0.90148 0.73835 0.27929 0.0
C1226 C 0.91283 0.7557 0.25565 0.0
C1227 C 0.94413 0.75487 0.24876 0.0
C1228 C 0.50374 0.34446 0.09652 0.0
C1229 C 0.51256 0.32261 0.07421 0.0
C1230 C 0.50508 0.37551 0.09 0.0
C1231 C 0.51529 0.38601 0.06093 0.0
H1232 H 0.49666 0.3379 0.11972 0.0
H1233 H 0.49873 0.39157 0.10837 0.0
S1234 S 0.53779 0.33724 0.99297 0.0
N1235 N 0.52966 0.31293 0.02079 0.0
N1236 N 0.53216 0.37151 0.00855 0.0
C1237 C 0.52316 0.36418 0.03788 0.0
C1238 C 0.52175 0.33243 0.04451 0.0
C1239 C 0.90906 0.26923 0.39001 0.0
C1240 C 0.93373 0.27682 0.37051 0.0
C1241 C 0.87754 0.26111 0.37637 0.0
C1242 C 0.86938 0.2606 0.34277 0.0
H1243 H 0.91406 0.26774 0.41578 0.0
H1244 H 0.85948 0.2539 0.39216 0.0
S1245 S 0.92458 0.28385 0.2819 0.0
N1246 N 0.94768 0.2872 0.31646 0.0
N1247 N 0.88806 0.27212 0.29083 0.0
C1248 C 0.89351 0.27075 0.32335 0.0
C1249 C 0.9258 0.27877 0.33723 0.0
C1250 C 0.97726 0.62829 0.58313 0.0
C1251 C 0.99475 0.65695 0.57506 0.0
C1252 C 0.98088 0.59934 0.56838 0.0
C1253 C 0.00226 0.59793 0.54524 0.0
H1254 H 0.96159 0.62817 0.60193 0.0
H1255 H 0.96742 0.57809 0.57598 0.0
S1256 S 0.05171 0.66599 0.51339 0.0
N1257 N 0.03267 0.68209 0.54046 0.0
N1258 N 0.03919 0.62742 0.51291 0.0
C1259 C 0.01832 0.62626 0.53533 0.0
C1260 C 0.01462 0.65586 0.55021 0.0
C1261 C 0.64192 0.77056 0.88217 0.0
C1262 C 0.61449 0.771 0.86173 0.0
C1263 C 0.67095 0.77264 0.86997 0.0
C1264 C 0.67372 0.77459 0.83676 0.0
H1265 H 0.64145 0.77016 0.90816 0.0
H1266 H 0.69167 0.77404 0.88706 0.0
S1267 S 0.60877 0.77319 0.77217 0.0
N1268 N 0.59154 0.77105 0.80594 0.0
N1269 N 0.64646 0.77451 0.78305 0.0
C1270 C 0.64629 0.77289 0.81555 0.0
C1271 C 0.61658 0.77122 0.82805 0.0
C1272 C 0.48306 0.52461 0.65829 0.0
C1273 C 0.44977 0.51925 0.65653 0.0
C1274 C 0.49874 0.52556 0.62999 0.0
C1275 C 0.48178 0.52071 0.59867 0.0
H1276 H 0.49717 0.5277 0.68172 0.0
H1277 H 0.52426 0.52926 0.63269 0.0
S1278 S 0.39436 0.50665 0.58058 0.0
N1279 N 0.40065 0.51014 0.62061 0.0
N1280 N 0.42964 0.51117 0.56795 0.0
C1281 C 0.44854 0.51591 0.59671 0.0
C1282 C 0.43271 0.51539 0.6254 0.0
C1283 C 0.80315 0.20826 0.94372 0.0
C1284 C 0.77842 0.21308 0.9615 0.0
C1285 C 0.80529 0.21794 0.91271 0.0
C1286 C 0.78266 0.23262 0.89829 0.0
H1287 H 0.82094 0.19682 0.95375 0.0
H1288 H 0.82471 0.21356 0.89985 0.0
S1289 S 0.71244 0.24936 0.93427 0.0
N1290 N 0.73039 0.23285 0.96232 0.0
N1291 N 0.73437 0.25093 0.90386 0.0
C1292 C 0.75789 0.23776 0.91589 0.0
C1293 C 0.75576 0.22799 0.94755 0.0
C1294 C 0.0532 0.46722 0.14764 0.0
C1295 C 0.08429 0.48383 0.15905 0.0
C1296 C 0.03739 0.47414 0.1191 0.0
C1297 C 0.0521 0.49819 0.10153 0.0
H1298 H 0.04081 0.44942 0.1613 0.0
H1299 H 0.01338 0.46105 0.11111 0.0
S1300 S 0.13225 0.55075 0.12372 0.0
N1301 N 0.12832 0.52659 0.15203 0.0
N1302 N 0.09914 0.53961 0.09883 0.0
C1303 C 0.08322 0.51497 0.11299 0.0
C1304 C 0.09917 0.50779 0.14167 0.0
C1305 C 0.75459 0.84589 0.43033 0.0
C1306 C 0.76993 0.82722 0.4491 0.0
C1307 C 0.74909 0.83965 0.39629 0.0
C1308 C 0.75848 0.81432 0.37938 0.0
H1309 H 0.74734 0.86601 0.44192 0.0
H1310 H 0.73738 0.855 0.38317 0.0
S1311 S 0.79775 0.75692 0.41718 0.0
N1312 N 0.79329 0.7814 0.44827 0.0
N1313 N 0.78275 0.76957 0.38436 0.0
C1314 C 0.7732 0.79497 0.39788 0.0
C1315 C 0.77895 0.80143 0.43265 0.0
C1316 C 0.47738 0.50988 0.85793 0.0
C1317 C 0.44831 0.51345 0.84288 0.0
C1318 C 0.48345 0.51183 0.89197 0.0
C1319 C 0.46053 0.51706 0.91236 0.0
H1320 H 0.49574 0.50579 0.8433 0.0
H1321 H 0.50649 0.50968 0.90234 0.0
S1322 S 0.37932 0.52474 0.8848 0.0
N1323 N 0.39567 0.52053 0.85086 0.0
N1324 N 0.40674 0.52372 0.91458 0.0
C1325 C 0.43102 0.51978 0.8975 0.0
C1326 C 0.42501 0.51815 0.86288 0.0
C1327 C 0.81138 0.23659 0.1493 0.0
C1328 C 0.8012 0.20364 0.1414 0.0
C1329 C 0.80663 0.25141 0.17935 0.0
C1330 C 0.79083 0.23383 0.20212 0.0
H1331 H 0.82174 0.25114 0.13156 0.0
H1332 H 0.8138 0.27693 0.18392 0.0
S1333 S 0.75994 0.14665 0.19286 0.0
N1334 N 0.77619 0.15376 0.15929 0.0
N1335 N 0.76582 0.18137 0.21465 0.0
C1336 C 0.78185 0.20066 0.19492 0.0
C1337 C 0.78745 0.18563 0.16485 0.0
C1338 C 0.05911 0.52156 0.3504 0.0
C1339 C 0.07782 0.50102 0.33972 0.0
C1340 C 0.05193 0.52391 0.38246 0.0
C1341 C 0.06316 0.50578 0.40505 0.0
H1342 H 0.05065 0.53674 0.33417 0.0
H1343 H 0.03801 0.54059 0.38967 0.0
S1344 S 0.11001 0.44561 0.38827 0.0
N1345 N 0.10537 0.46033 0.35342 0.0
N1346 N 0.09178 0.46456 0.41388 0.0
C1347 C 0.08087 0.48416 0.39439 0.0
C1348 C 0.08823 0.48182 0.36166 0.0
C1349 C 0.77289 0.84309 0.66446 0.0
C1350 C 0.77321 0.82654 0.63381 0.0
C1351 C 0.77066 0.82779 0.6926 0.0
C1352 C 0.76804 0.79493 0.69177 0.0
H1353 H 0.77502 0.86841 0.66706 0.0
H1354 H 0.77135 0.84225 0.71542 0.0
S1355 S 0.76715 0.74011 0.61752 0.0
N1356 N 0.77061 0.77505 0.60419 0.0
N1357 N 0.76555 0.74613 0.65714 0.0
C1358 C 0.76788 0.77781 0.66121 0.0
C1359 C 0.77064 0.7936 0.63234 0.0
C1360 C 0.66309 0.43727 0.50776 0.0
C1361 C 0.68847 0.45101 0.53167 0.0
C1362 C 0.63473 0.44718 0.50678 0.0
C1363 C 0.6303 0.4713 0.52969 0.0
H1364 H 0.66487 0.41834 0.48971 0.0
H1365 H 0.61598 0.43536 0.48788 0.0
S1366 S 0.68972 0.51575 0.597 0.0
N1367 N 0.70774 0.49065 0.57865 0.0
N1368 N 0.65408 0.50925 0.57673 0.0
C1369 C 0.65562 0.48571 0.55353 0.0
C1370 C 0.68475 0.47559 0.55453 0.0
C1371 C 0.16157 0.04986 0.49248 0.0
C1372 C 0.16975 0.08282 0.49129 0.0
C1373 C 0.13095 0.0343 0.49806 0.0
C1374 C 0.10736 0.05112 0.50333 0.0
H1375 H 0.17915 0.03599 0.48982 0.0
H1376 H 0.12607 0.00905 0.49921 0.0
S1377 S 0.11593 0.13759 0.50123 0.0
N1378 N 0.15078 0.13138 0.49413 0.0
N1379 N 0.09424 0.10265 0.50582 0.0
C1380 C 0.11506 0.08397 0.50146 0.0
C1381 C 0.14589 0.09964 0.49508 0.0
C1382 C 0.19239 0.91525 0.795 0.0
C1383 C 0.20934 0.94086 0.78096 0.0
C1384 C 0.20034 0.88573 0.79236 0.0
C1385 C 0.22581 0.88026 0.77573 0.0
H1386 H 0.17218 0.9177 0.80752 0.0
H1387 H 0.18598 0.86687 0.80329 0.0
S1388 S 0.27932 0.94003 0.73635 0.0
N1389 N 0.2539 0.95919 0.75093 0.0
N1390 N 0.26894 0.90373 0.74623 0.0
C1391 C 0.24365 0.90591 0.76238 0.0
C1392 C 0.23539 0.9361 0.7649 0.0
C1393 C 0.36531 0.95525 0.00139 0.0
C1394 C 0.35181 0.92329 0.99001 0.0
C1395 C 0.39816 0.96654 0.00681 0.0
C1396 C 0.41848 0.94615 0.00128 0.0
H1397 H 0.35057 0.97117 0.00844 0.0
H1398 H 0.40752 0.99063 0.01795 0.0
S1399 S 0.39548 0.86286 0.96377 0.0
N1400 N 0.36162 0.87323 0.96723 0.0
N1401 N 0.42337 0.89445 0.97837 0.0
C1402 C 0.40548 0.91524 0.98657 0.0
C1403 C 0.37208 0.90381 0.9806 0.0
C1404 C 0.84149 0.61549 0.8001 0.0
C1405 C 0.83692 0.59456 0.77142 0.0
C1406 C 0.83057 0.6433 0.80086 0.0
C1407 C 0.81486 0.65148 0.77288 0.0
H1408 H 0.85386 0.61051 0.82215 0.0
H1409 H 0.83501 0.65877 0.82357 0.0
S1410 S 0.79728 0.60475 0.69137 0.0
N1411 N 0.81551 0.58363 0.71422 0.0
N1412 N 0.79519 0.63627 0.7156 0.0
C1413 C 0.80959 0.63049 0.7441 0.0
C1414 C 0.82059 0.60195 0.74338 0.0
C1415 C 0.85473 0.55615 0.0257 0.0
C1416 C 0.84985 0.58275 0.01083 0.0
C1417 C 0.88396 0.54726 0.02671 0.0
C1418 C 0.90968 0.56477 0.01315 0.0
H1419 H 0.83591 0.5422 0.03704 0.0
H1420 H 0.88658 0.52691 0.03884 0.0
S1421 S 0.90918 0.63626 0.97089 0.0
N1422 N 0.87327 0.6262 0.98181 0.0
N1423 N 0.92782 0.60978 0.9836 0.0
C1424 C 0.90488 0.59113 0.9977 0.0
C1425 C 0.87513 0.60003 0.99655 0.0
C1426 C 0.23556 0.12957 0.80938 0.0
C1427 C 0.20368 0.1171 0.79698 0.0
C1428 C 0.25164 0.15985 0.80329 0.0
C1429 C 0.23668 0.17854 0.78392 0.0
H1430 H 0.24813 0.11586 0.82393 0.0
H1431 H 0.27603 0.16858 0.81374 0.0
S1432 S 0.15453 0.15438 0.74197 0.0
N1433 N 0.15852 0.12464 0.76248 0.0
N1434 N 0.18851 0.18065 0.75032 0.0
C1435 C 0.20498 0.16574 0.77069 0.0
C1436 C 0.18858 0.13532 0.77738 0.0
C1437 C 0.33636 0.91132 0.29323 0.0
C1438 C 0.36514 0.92619 0.28309 0.0
C1439 C 0.32604 0.87825 0.28867 0.0
C1440 C 0.34394 0.85908 0.27332 0.0
H1441 H 0.32172 0.92529 0.30459 0.0
H1442 H 0.30345 0.86775 0.29641 0.0
S1443 S 0.42027 0.88731 0.24055 0.0
N1444 N 0.41088 0.91972 0.25612 0.0
N1445 N 0.39171 0.85794 0.2475 0.0
C1446 C 0.3729 0.87391 0.26325 0.0
C1447 C 0.38339 0.90739 0.26807 0.0
C1448 C 0.52538 0.38085 0.62174 0.0
C1449 C 0.53864 0.35959 0.60306 0.0
C1450 C 0.52067 0.40884 0.61022 0.0
C1451 C 0.52836 0.41635 0.57931 0.0
H1452 H 0.51988 0.37661 0.64608 0.0
H1453 H 0.51191 0.42527 0.62613 0.0
S1454 S 0.56107 0.36735 0.51953 0.0
N1455 N 0.55753 0.34705 0.55114 0.0
N1456 N 0.54807 0.39939 0.52936 0.0
C1457 C 0.53989 0.39447 0.55957 0.0
C1458 C 0.54523 0.36618 0.57151 0.0
C1459 C 0.40913 0.74933 0.28641 0.0
C1460 C 0.41565 0.73992 0.3174 0.0
C1461 C 0.37808 0.7489 0.2736 0.0
C1462 C 0.35269 0.73995 0.29182 0.0
H1463 H 0.42829 0.75828 0.2725 0.0
H1464 H 0.37425 0.75758 0.25031 0.0
S1465 S 0.35652 0.71014 0.37252 0.0
N1466 N 0.39357 0.71825 0.36434 0.0
N1467 N 0.33562 0.71894 0.34096 0.0
C1468 C 0.35867 0.72888 0.32194 0.0
C1469 C 0.39007 0.72843 0.33456 0.0
C1470 C 0.00597 0.65595 0.13157 0.0
C1471 C 0.0278 0.67973 0.11981 0.0
C1472 C 0.99999 0.62456 0.1177 0.0
C1473 C 0.01565 0.61552 0.0915 0.0
H1474 H 0.99312 0.66161 0.1516 0.0
H1475 H 0.98262 0.60734 0.12757 0.0
S1476 S 0.07641 0.66852 0.05275 0.0
N1477 N 0.06603 0.69212 0.0811 0.0
N1478 N 0.05484 0.63282 0.05495 0.0
C1479 C 0.03785 0.63898 0.07962 0.0
C1480 C 0.04386 0.67115 0.09374 0.0
C1481 C 0.1087 0.2762 0.8199 0.0
C1482 C 0.09092 0.24662 0.82548 0.0
C1483 C 0.13916 0.27929 0.81027 0.0
C1484 C 0.15297 0.25306 0.80705 0.0
H1485 H 0.09904 0.297 0.82305 0.0
H1486 H 0.15239 0.30248 0.80651 0.0
S1487 S 0.1162 0.1707 0.81976 0.0
N1488 N 0.08903 0.19071 0.82688 0.0
N1489 N 0.14657 0.19671 0.81029 0.0
C1490 C 0.13531 0.22343 0.8126 0.0
C1491 C 0.10416 0.22015 0.82145 0.0
C1492 C 0.51022 0.6666 0.93406 0.0
C1493 C 0.5172 0.69187 0.95908 0.0
C1494 C 0.50778 0.63554 0.94117 0.0
C1495 C 0.51144 0.62869 0.97353 0.0
H1496 H 0.50864 0.67099 0.90877 0.0
H1497 H 0.50393 0.61685 0.92113 0.0
S1498 S 0.52567 0.68627 0.04779 0.0
N1499 N 0.52506 0.70805 0.01737 0.0
N1500 N 0.51932 0.64932 0.03087 0.0
C1501 C 0.51607 0.65351 0.99883 0.0
C1502 C 0.51931 0.68526 0.99154 0.0
C1503 C 0.12699 0.76474 0.65999 0.0
C1504 C 0.10359 0.75747 0.68108 0.0
C1505 C 0.15908 0.76962 0.67099 0.0
C1506 C 0.16927 0.76747 0.70358 0.0
H1507 H 0.12059 0.76671 0.63457 0.0
H1508 H 0.17604 0.77549 0.65376 0.0
S1509 S 0.11777 0.74899 0.76894 0.0
N1510 N 0.09287 0.74808 0.73622 0.0
N1511 N 0.15346 0.75735 0.75706 0.0
C1512 C 0.14622 0.75968 0.72498 0.0
C1513 C 0.11334 0.7547 0.7137 0.0
C1514 C 0.04451 0.38094 0.51066 0.0
C1515 C 0.0391 0.3695 0.47736 0.0
C1516 C 0.04241 0.41185 0.5214 0.0
C1517 C 0.03359 0.43179 0.49924 0.0
H1518 H 0.04969 0.36566 0.52853 0.0
H1519 H 0.04638 0.41966 0.54728 0.0
S1520 S 0.01578 0.41203 0.40937 0.0
N1521 N 0.0249 0.38021 0.42236 0.0
N1522 N 0.01925 0.43739 0.44226 0.0
C1523 C 0.02833 0.42045 0.46579 0.0
C1524 C 0.03153 0.38953 0.45491 0.0
C1525 C 0.41437 0.26245 0.17729 0.0
C1526 C 0.43672 0.25195 0.19742 0.0
C1527 C 0.38534 0.26516 0.18761 0.0
C1528 C 0.37775 0.25798 0.21863 0.0
H1529 H 0.41849 0.26695 0.15265 0.0
H1530 H 0.36815 0.27161 0.17057 0.0
S1531 S 0.42993 0.23396 0.28246 0.0
N1532 N 0.45071 0.23754 0.25115 0.0
N1533 N 0.39614 0.24305 0.27069 0.0
C1534 C 0.40081 0.24986 0.24 0.0
C1535 C 0.4303 0.24666 0.22932 0.0
C1536 C 0.59056 0.50764 0.40229 0.0
C1537 C 0.57661 0.51722 0.37418 0.0
C1538 C 0.57428 0.50287 0.42979 0.0
C1539 C 0.543 0.50675 0.43027 0.0
H1540 H 0.61465 0.5047 0.40349 0.0
H1541 H 0.58663 0.49646 0.45105 0.0
S1542 S 0.49481 0.52927 0.36182 0.0
N1543 N 0.5291 0.52915 0.34799 0.0
N1544 N 0.49824 0.51914 0.39907 0.0
C1545 C 0.52833 0.51509 0.40179 0.0
C1546 C 0.54518 0.52063 0.374 0.0
C1547 C 0.25942 0.81143 0.10077 0.0
C1548 C 0.27258 0.84302 0.09651 0.0
C1549 C 0.2658 0.79972 0.13036 0.0
C1550 C 0.28557 0.81928 0.15631 0.0
H1551 H 0.24345 0.79597 0.0815 0.0
H1552 H 0.25401 0.77581 0.13347 0.0
S1553 S 0.32981 0.90182 0.1559 0.0
N1554 N 0.3092 0.89235 0.11957 0.0
N1555 N 0.32075 0.87022 0.17513 0.0
C1556 C 0.30009 0.85024 0.15182 0.0
C1557 C 0.29368 0.86218 0.12189 0.0
C1558 C 0.9677 0.54355 0.90661 0.0
C1559 C 0.98331 0.54093 0.87881 0.0
C1560 C 0.98226 0.5407 0.93723 0.0
C1561 C 0.0133 0.53611 0.94142 0.0
H1562 H 0.94319 0.54525 0.90442 0.0
H1563 H 0.96837 0.54038 0.95747 0.0
S1564 S 0.06587 0.53245 0.87654 0.0
N1565 N 0.03234 0.53646 0.85735 0.0
N1566 N 0.06033 0.53248 0.91534 0.0
C1567 C 0.03012 0.53615 0.91412 0.0
C1568 C 0.01495 0.53823 0.8827 0.0
C1569 C 0.28454 0.21138 0.6086 0.0
C1570 C 0.27635 0.17866 0.59822 0.0
C1571 C 0.28712 0.22296 0.64187 0.0
C1572 C 0.28148 0.20223 0.66585 0.0
H1573 H 0.28972 0.22809 0.59105 0.0
H1574 H 0.29464 0.24821 0.64892 0.0
S1575 S 0.25442 0.11492 0.65106 0.0
N1576 N 0.2592 0.12605 0.61462 0.0
N1577 N 0.2641 0.14777 0.67649 0.0
C1578 C 0.2718 0.16967 0.65558 0.0
C1579 C 0.26923 0.15791 0.62197 0.0
C1580 C 0.58094 0.51387 0.18613 0.0
C1581 C 0.60455 0.499 0.19814 0.0
C1582 C 0.56983 0.5099 0.15269 0.0
C1583 C 0.58192 0.49094 0.13003 0.0
H1584 H 0.57176 0.52958 0.20247 0.0
H1585 H 0.55218 0.52236 0.14449 0.0
S1586 S 0.64093 0.44346 0.14977 0.0
N1587 N 0.63736 0.4622 0.18511 0.0
N1588 N 0.61678 0.45475 0.12278 0.0
C1589 C 0.60452 0.47485 0.14207 0.0
C1590 C 0.61571 0.47886 0.17594 0.0
C1591 C 0.23075 0.81059 0.88883 0.0
C1592 C 0.23954 0.79629 0.91602 0.0
C1593 C 0.23427 0.79829 0.85748 0.0
C1594 C 0.24597 0.7709 0.85206 0.0
H1595 H 0.2237 0.83291 0.89188 0.0
H1596 H 0.22941 0.81138 0.83753 0.0
S1597 S 0.2665 0.72123 0.91459 0.0
N1598 N 0.25639 0.75094 0.93534 0.0
N1599 N 0.26218 0.72738 0.87597 0.0
C1600 C 0.25169 0.75451 0.87864 0.0
C1601 C 0.24865 0.76735 0.91077 0.0
C1602 C 0.97528 0.52311 0.697 0.0
C1603 C 0.94238 0.51917 0.6977 0.0
C1604 C 0.98806 0.51934 0.66752 0.0
C1605 C 0.96829 0.51168 0.63796 0.0
H1606 H 0.99133 0.52949 0.7193 0.0
H1607 H 0.0135 0.52357 0.66776 0.0
S1608 S 0.88075 0.49563 0.62627 0.0
N1609 N 0.89034 0.50489 0.6659 0.0
N1610 N 0.91458 0.49797 0.61085 0.0
C1611 C 0.93547 0.50665 0.63831 0.0
C1612 C 0.92244 0.5104 0.6681 0.0
C1613 C 0.28106 0.19657 0.39188 0.0
C1614 C 0.2707 0.21056 0.41952 0.0
C1615 C 0.28461 0.21188 0.36363 0.0
C1616 C 0.27858 0.24222 0.36185 0.0
H1617 H 0.28557 0.17311 0.39162 0.0
H1618 H 0.29179 0.19949 0.34286 0.0
S1619 S 0.2529 0.29014 0.42851 0.0
N1620 N 0.25564 0.25715 0.44384 0.0
N1621 N 0.26284 0.28611 0.39119 0.0
C1622 C 0.26916 0.25691 0.38977 0.0
C1623 C 0.26507 0.24107 0.41839 0.0
C1624 C 0.3797 0.6081 0.51987 0.0
C1625 C 0.35071 0.58736 0.52216 0.0
C1626 C 0.40633 0.59653 0.5137 0.0
C1627 C 0.40464 0.56386 0.50859 0.0
H1628 H 0.38232 0.63341 0.52491 0.0
H1629 H 0.42876 0.6133 0.51417 0.0
S1630 S 0.33284 0.49994 0.50688 0.0
N1631 N 0.3209 0.53281 0.51596 0.0
N1632 N 0.37078 0.51103 0.50237 0.0
C1633 C 0.37516 0.54292 0.50802 0.0
C1634 C 0.34821 0.5547 0.51544 0.0
C1635 C 0.9 0.92465 0.53874 0.0
C1636 C 0.87676 0.93919 0.55052 0.0
C1637 C 0.92929 0.94238 0.53268 0.0
C1638 C 0.93711 0.97563 0.53833 0.0
H1639 H 0.89554 0.89918 0.5337 0.0
H1640 H 0.94593 0.92965 0.52334 0.0
S1641 S 0.88515 0.02573 0.56967 0.0
N1642 N 0.86385 0.98925 0.568 0.0
N1643 N 0.91919 0.02254 0.55687 0.0
C1644 C 0.9144 0.99065 0.55061 0.0
C1645 C 0.88427 0.97249 0.55667 0.0
C1646 C 0.81513 0.08734 0.24318 0.0
C1647 C 0.84713 0.08589 0.24897 0.0
C1648 C 0.80506 0.11512 0.25245 0.0
C1649 C 0.82686 0.14288 0.26659 0.0
H1650 H 0.7977 0.06683 0.23136 0.0
H1651 H 0.78029 0.11515 0.24746 0.0
S1652 S 0.91284 0.15103 0.28919 0.0
N1653 N 0.90005 0.11414 0.27219 0.0
N1654 N 0.8815 0.16651 0.28804 0.0
C1655 C 0.85871 0.14143 0.27335 0.0
C1656 C 0.86876 0.11296 0.26489 0.0
C1657 C 0.67139 0.07585 0.03183 0.0
C1658 C 0.68184 0.10835 0.04249 0.0
C1659 C 0.63903 0.06155 0.02602 0.0
C1660 C 0.61618 0.07934 0.0306 0.0
H1661 H 0.68823 0.06163 0.02665 0.0
H1662 H 0.6319 0.03682 0.0163 0.0
S1663 S 0.63117 0.16363 0.06408 0.0
N1664 N 0.6667 0.15678 0.06171 0.0
N1665 N 0.60599 0.12988 0.05039 0.0
C1666 C 0.62629 0.11125 0.04329 0.0
C1667 C 0.65912 0.12578 0.04934 0.0
C1668 C 0.22533 0.43032 0.25028 0.0
C1669 C 0.2038 0.43954 0.2703 0.0
C1670 C 0.23853 0.4047 0.25611 0.0
C1671 C 0.23167 0.38796 0.28271 0.0
H1672 H 0.23062 0.44167 0.2287 0.0
H1673 H 0.25271 0.39676 0.23851 0.0
S1674 S 0.17908 0.40372 0.34422 0.0
N1675 N 0.17771 0.43083 0.31921 0.0
N1676 N 0.20345 0.38285 0.3303 0.0
C1677 C 0.21187 0.39794 0.30419 0.0
C1678 C 0.19777 0.42377 0.29798 0.0
C1679 C 0.19287 0.45288 0.02708 0.0
C1680 C 0.20588 0.44916 0.05844 0.0
C1681 C 0.1659 0.46563 0.02253 0.0
C1682 C 0.15044 0.47418 0.04912 0.0
H1683 H 0.20353 0.44578 0.00589 0.0
H1684 H 0.15626 0.46744 0.99798 0.0
S1685 S 0.17479 0.46898 0.13606 0.0
N1686 N 0.20154 0.45594 0.11647 0.0
N1687 N 0.1502 0.47798 0.10774 0.0
C1688 C 0.16333 0.47066 0.08049 0.0
C1689 C 0.19121 0.45869 0.0852 0.0
C1690 C 0.85794 0.89126 0.25608 0.0
C1691 C 0.84277 0.91373 0.2436 0.0
C1692 C 0.84086 0.86182 0.26239 0.0
C1693 C 0.80762 0.85304 0.25632 0.0
H1694 H 0.88344 0.89643 0.26144 0.0
H1695 H 0.85409 0.84579 0.27214 0.0
S1696 S 0.75596 0.90281 0.22349 0.0
N1697 N 0.79212 0.92497 0.2253 0.0
N1698 N 0.76 0.86931 0.2369 0.0
C1699 C 0.79195 0.87502 0.24354 0.0
C1700 C 0.80946 0.90534 0.23724 0.0
C1701 C 0.67026 0.12392 0.76745 0.0
C1702 C 0.68881 0.10141 0.76373 0.0
C1703 C 0.68407 0.15597 0.77575 0.0
C1704 C 0.71703 0.16701 0.78046 0.0
H1705 H 0.64468 0.11679 0.7644 0.0
H1706 H 0.66868 0.1722 0.77872 0.0
S1707 S 0.77657 0.11845 0.77292 0.0
N1708 N 0.74217 0.09271 0.76479 0.0
N1709 N 0.76819 0.15338 0.78017 0.0
C1710 C 0.73606 0.14512 0.77594 0.0
C1711 C 0.72194 0.11222 0.76764 0.0
loop_
_geom_bond_atom_site_label_1
_geom_bond_atom_site_label_2
_geom_bond_distance
_geom_bond_site_symmetry_2
_ccdc_geom_bond_type
O0 Cd1 2.223 . S
O0 C8 1.315 . S
Cd1 O0 2.223 . S
Cd1 O4 2.297 . S
Cd1 O5 2.439 . S
Cd1 O11 2.240 1_455 S
Cd2 O3 2.240 . S
Cd2 O10 2.223 1_455 S
Cd2 O12 2.297 . S
Cd2 O13 2.439 . S
O3 Cd2 2.240 . S
O3 C8 1.279 . S
O4 Cd1 2.297 . S
O4 C6 1.247 . S
O5 Cd1 2.439 . S
O5 C6 1.208 . S
C6 O4 1.247 . S
C6 O5 1.208 . S
C7 O12 1.247 . S
C7 O13 1.208 . S
C8 O0 1.315 . S
C8 O3 1.279 . S
C9 O10 1.315 . S
C9 O11 1.279 . S
O10 Cd2 2.223 1_655 S
O10 C9 1.315 . S
O11 Cd1 2.240 1_655 S
O11 C9 1.279 . S
O12 Cd2 2.297 . S
O12 C7 1.247 . S
O13 Cd2 2.439 . S
O13 C7 1.208 . S
O14 Cd15 2.223 1_455 S
O14 C22 1.315 1_455 S
Cd15 O14 2.223 1_655 S
Cd15 O18 2.297 . S
Cd15 O19 2.439 . S
Cd15 O25 2.240 1_655 S
Cd16 O17 2.240 1_455 S
Cd16 O24 2.223 . S
Cd16 O26 2.297 . S
Cd16 O27 2.439 . S
O17 Cd16 2.240 1_655 S
O17 C22 1.279 . S
O18 Cd15 2.297 . S
O18 C20 1.247 . S
O19 Cd15 2.439 . S
O19 C20 1.208 . S
C20 O18 1.247 . S
C20 O19 1.208 . S
C21 O26 1.247 . S
C21 O27 1.208 . S
C22 O14 1.315 1_655 S
C22 O17 1.279 . S
C23 O24 1.315 . S
C23 O25 1.279 . S
O24 Cd16 2.223 . S
O24 C23 1.315 . S
O25 Cd15 2.240 1_455 S
O25 C23 1.279 . S
O26 Cd16 2.297 . S
O26 C21 1.247 . S
O27 Cd16 2.439 . S
O27 C21 1.208 . S
O28 Cd29 2.223 . S
O28 C36 1.315 . S
Cd29 O28 2.223 . S
Cd29 O32 2.297 . S
Cd29 O33 2.439 . S
Cd29 O39 2.240 . S
Cd30 O31 2.240 . S
Cd30 O38 2.223 . S
Cd30 O40 2.297 . S
Cd30 O41 2.439 . S
O31 Cd30 2.240 . S
O31 C36 1.279 . S
O32 Cd29 2.297 . S
O32 C34 1.247 . S
O33 Cd29 2.439 . S
O33 C34 1.208 . S
C34 O32 1.247 . S
C34 O33 1.208 . S
C35 O40 1.247 . S
C35 O41 1.208 . S
C36 O28 1.315 . S
C36 O31 1.279 . S
C37 O38 1.315 . S
C37 O39 1.279 . S
O38 Cd30 2.223 . S
O38 C37 1.315 . S
O39 Cd29 2.240 . S
O39 C37 1.279 . S
O40 Cd30 2.297 . S
O40 C35 1.247 . S
O41 Cd30 2.439 . S
O41 C35 1.208 . S
O42 Cd43 2.223 . S
O42 C50 1.315 . S
Cd43 O42 2.223 . S
Cd43 O46 2.297 . S
Cd43 O47 2.439 . S
Cd43 O53 2.240 . S
Cd44 O45 2.240 . S
Cd44 O52 2.223 . S
Cd44 O54 2.297 . S
Cd44 O55 2.439 . S
O45 Cd44 2.240 . S
O45 C50 1.279 . S
O46 Cd43 2.297 . S
O46 C48 1.247 . S
O47 Cd43 2.439 . S
O47 C48 1.208 . S
C48 O46 1.247 . S
C48 O47 1.208 . S
C49 O54 1.247 . S
C49 O55 1.208 . S
C50 O42 1.315 . S
C50 O45 1.279 . S
C51 O52 1.315 . S
C51 O53 1.279 . S
O52 Cd44 2.223 . S
O52 C51 1.315 . S
O53 Cd43 2.240 . S
O53 C51 1.279 . S
O54 Cd44 2.297 . S
O54 C49 1.247 . S
O55 Cd44 2.439 . S
O55 C49 1.208 . S
O56 Cd57 2.223 . S
O56 C64 1.315 . S
Cd57 O56 2.223 . S
Cd57 O60 2.297 1_455 S
Cd57 O61 2.439 1_455 S
Cd57 O67 2.240 . S
Cd58 O59 2.240 . S
Cd58 O66 2.223 . S
Cd58 O68 2.297 . S
Cd58 O69 2.439 . S
O59 Cd58 2.240 . S
O59 C64 1.279 . S
O60 Cd57 2.297 1_655 S
O60 C62 1.247 . S
O61 Cd57 2.439 1_655 S
O61 C62 1.208 . S
C62 O60 1.247 . S
C62 O61 1.208 . S
C63 O68 1.247 . S
C63 O69 1.208 . S
C64 O56 1.315 . S
C64 O59 1.279 . S
C65 O66 1.315 . S
C65 O67 1.279 . S
O66 Cd58 2.223 . S
O66 C65 1.315 . S
O67 Cd57 2.240 . S
O67 C65 1.279 . S
O68 Cd58 2.297 . S
O68 C63 1.247 . S
O69 Cd58 2.439 . S
O69 C63 1.208 . S
O70 Cd71 2.223 . S
O70 C78 1.315 . S
Cd71 O70 2.223 . S
Cd71 O74 2.297 . S
Cd71 O75 2.439 . S
Cd71 O81 2.240 . S
Cd72 O73 2.240 . S
Cd72 O80 2.223 . S
Cd72 O82 2.297 . S
Cd72 O83 2.439 . S
O73 Cd72 2.240 . S
O73 C78 1.279 . S
O74 Cd71 2.297 . S
O74 C76 1.247 . S
O75 Cd71 2.439 . S
O75 C76 1.208 . S
C76 O74 1.247 . S
C76 O75 1.208 . S
C77 O82 1.247 . S
C77 O83 1.208 . S
C78 O70 1.315 . S
C78 O73 1.279 . S
C79 O80 1.315 . S
C79 O81 1.279 . S
O80 Cd72 2.223 . S
O80 C79 1.315 . S
O81 Cd71 2.240 . S
O81 C79 1.279 . S
O82 Cd72 2.297 . S
O82 C77 1.247 . S
O83 Cd72 2.439 . S
O83 C77 1.208 . S
O84 Cd85 2.223 . S
O84 C92 1.315 . S
Cd85 O84 2.223 . S
Cd85 O88 2.297 . S
Cd85 O89 2.439 . S
Cd85 O95 2.240 . S
Cd86 O87 2.240 . S
Cd86 O94 2.223 . S
Cd86 O96 2.297 . S
Cd86 O97 2.439 . S
O87 Cd86 2.240 . S
O87 C92 1.279 . S
O88 Cd85 2.297 . S
O88 C90 1.247 . S
O89 Cd85 2.439 . S
O89 C90 1.208 . S
C90 O88 1.247 . S
C90 O89 1.208 . S
C91 O96 1.247 . S
C91 O97 1.208 . S
C92 O84 1.315 . S
C92 O87 1.279 . S
C93 O94 1.315 . S
C93 O95 1.279 . S
O94 Cd86 2.223 . S
O94 C93 1.315 . S
O95 Cd85 2.240 . S
O95 C93 1.279 . S
O96 Cd86 2.297 . S
O96 C91 1.247 . S
O97 Cd86 2.439 . S
O97 C91 1.208 . S
O98 Cd99 2.223 1_655 S
O98 C106 1.315 . S
Cd99 O98 2.223 1_455 S
Cd99 O102 2.297 . S
Cd99 O103 2.439 . S
Cd99 O109 2.240 1_455 S
Cd100 O101 2.240 1_655 S
Cd100 O108 2.223 . S
Cd100 O110 2.297 . S
Cd100 O111 2.439 1_655 S
O101 Cd100 2.240 1_455 S
O101 C106 1.279 1_455 S
O102 Cd99 2.297 . S
O102 C104 1.247 . S
O103 Cd99 2.439 . S
O103 C104 1.208 . S
C104 O102 1.247 . S
C104 O103 1.208 . S
C105 O110 1.247 . S
C105 O111 1.208 1_655 S
C106 O98 1.315 . S
C106 O101 1.279 1_655 S
C107 O108 1.315 . S
C107 O109 1.279 . S
O108 Cd100 2.223 . S
O108 C107 1.315 . S
O109 Cd99 2.240 1_655 S
O109 C107 1.279 . S
O110 Cd100 2.297 . S
O110 C105 1.247 . S
O111 Cd100 2.439 1_455 S
O111 C105 1.208 1_455 S
O112 Cd113 2.223 . S
O112 C120 1.315 . S
Cd113 O112 2.223 . S
Cd113 O116 2.297 . S
Cd113 O117 2.439 . S
Cd113 O123 2.240 1_545 S
Cd114 O115 2.240 . S
Cd114 O122 2.223 1_545 S
Cd114 O124 2.297 . S
Cd114 O125 2.439 . S
O115 Cd114 2.240 . S
O115 C120 1.279 . S
O116 Cd113 2.297 . S
O116 C118 1.247 . S
O117 Cd113 2.439 . S
O117 C118 1.208 . S
C118 O116 1.247 . S
C118 O117 1.208 . S
C119 O124 1.247 . S
C119 O125 1.208 . S
C120 O112 1.315 . S
C120 O115 1.279 . S
C121 O122 1.315 . S
C121 O123 1.279 . S
O122 Cd114 2.223 1_565 S
O122 C121 1.315 . S
O123 Cd113 2.240 1_565 S
O123 C121 1.279 . S
O124 Cd114 2.297 . S
O124 C119 1.247 . S
O125 Cd114 2.439 . S
O125 C119 1.208 . S
O126 Cd127 2.223 . S
O126 C134 1.315 . S
Cd127 O126 2.223 . S
Cd127 O130 2.297 . S
Cd127 O131 2.439 . S
Cd127 O137 2.240 . S
Cd128 O129 2.240 . S
Cd128 O136 2.223 . S
Cd128 O138 2.297 . S
Cd128 O139 2.439 . S
O129 Cd128 2.240 . S
O129 C134 1.279 . S
O130 Cd127 2.297 . S
O130 C132 1.247 . S
O131 Cd127 2.439 . S
O131 C132 1.208 . S
C132 O130 1.247 . S
C132 O131 1.208 . S
C133 O138 1.247 . S
C133 O139 1.208 . S
C134 O126 1.315 . S
C134 O129 1.279 . S
C135 O136 1.315 . S
C135 O137 1.279 . S
O136 Cd128 2.223 . S
O136 C135 1.315 . S
O137 Cd127 2.240 . S
O137 C135 1.279 . S
O138 Cd128 2.297 . S
O138 C133 1.247 . S
O139 Cd128 2.439 . S
O139 C133 1.208 . S
O140 Cd141 2.223 . S
O140 C148 1.315 . S
Cd141 O140 2.223 . S
Cd141 O144 2.297 1_545 S
Cd141 O145 2.439 1_545 S
Cd141 O151 2.240 . S
Cd142 O143 2.240 . S
Cd142 O150 2.223 . S
Cd142 O152 2.297 . S
Cd142 O153 2.439 . S
O143 Cd142 2.240 . S
O143 C148 1.279 . S
O144 Cd141 2.297 1_565 S
O144 C146 1.247 . S
O145 Cd141 2.439 1_565 S
O145 C146 1.208 . S
C146 O144 1.247 . S
C146 O145 1.208 . S
C147 O152 1.247 . S
C147 O153 1.208 . S
C148 O140 1.315 . S
C148 O143 1.279 . S
C149 O150 1.315 . S
C149 O151 1.279 . S
O150 Cd142 2.223 . S
O150 C149 1.315 . S
O151 Cd141 2.240 . S
O151 C149 1.279 . S
O152 Cd142 2.297 . S
O152 C147 1.247 . S
O153 Cd142 2.439 . S
O153 C147 1.208 . S
O154 Cd155 2.223 . S
O154 C162 1.315 . S
Cd155 O154 2.223 . S
Cd155 O158 2.297 . S
Cd155 O159 2.439 1_554 S
Cd155 O165 2.240 1_554 S
Cd156 O157 2.240 1_556 S
Cd156 O164 2.223 1_556 S
Cd156 O166 2.297 . S
Cd156 O167 2.439 . S
O157 Cd156 2.240 1_554 S
O157 C162 1.279 . S
O158 Cd155 2.297 . S
O158 C160 1.247 . S
O159 Cd155 2.439 1_556 S
O159 C160 1.208 1_556 S
C160 O158 1.247 . S
C160 O159 1.208 1_554 S
C161 O166 1.247 . S
C161 O167 1.208 . S
C162 O154 1.315 . S
C162 O157 1.279 . S
C163 O164 1.315 . S
C163 O165 1.279 1_554 S
O164 Cd156 2.223 1_554 S
O164 C163 1.315 . S
O165 Cd155 2.240 1_556 S
O165 C163 1.279 1_556 S
O166 Cd156 2.297 . S
O166 C161 1.247 . S
O167 Cd156 2.439 . S
O167 C161 1.208 . S
O168 Cd169 2.223 . S
O168 C176 1.315 . S
Cd169 O168 2.223 . S
Cd169 O172 2.297 . S
Cd169 O173 2.439 . S
Cd169 O179 2.240 . S
Cd170 O171 2.240 . S
Cd170 O178 2.223 . S
Cd170 O180 2.297 1_554 S
Cd170 O181 2.439 1_554 S
O171 Cd170 2.240 . S
O171 C176 1.279 . S
O172 Cd169 2.297 . S
O172 C174 1.247 . S
O173 Cd169 2.439 . S
O173 C174 1.208 . S
C174 O172 1.247 . S
C174 O173 1.208 . S
C175 O180 1.247 . S
C175 O181 1.208 . S
C176 O168 1.315 . S
C176 O171 1.279 . S
C177 O178 1.315 . S
C177 O179 1.279 . S
O178 Cd170 2.223 . S
O178 C177 1.315 . S
O179 Cd169 2.240 . S
O179 C177 1.279 . S
O180 Cd170 2.297 1_556 S
O180 C175 1.247 . S
O181 Cd170 2.439 1_556 S
O181 C175 1.208 . S
O182 Cd183 2.223 . S
O182 C190 1.315 . S
Cd183 O182 2.223 . S
Cd183 O186 2.297 . S
Cd183 O187 2.439 . S
Cd183 O193 2.240 . S
Cd184 O185 2.240 . S
Cd184 O192 2.223 . S
Cd184 O194 2.297 1_554 S
Cd184 O195 2.439 1_554 S
O185 Cd184 2.240 . S
O185 C190 1.279 . S
O186 Cd183 2.297 . S
O186 C188 1.247 . S
O187 Cd183 2.439 . S
O187 C188 1.208 . S
C188 O186 1.247 . S
C188 O187 1.208 . S
C189 O194 1.247 . S
C189 O195 1.208 . S
C190 O182 1.315 . S
C190 O185 1.279 . S
C191 O192 1.315 . S
C191 O193 1.279 . S
O192 Cd184 2.223 . S
O192 C191 1.315 . S
O193 Cd183 2.240 . S
O193 C191 1.279 . S
O194 Cd184 2.297 1_556 S
O194 C189 1.247 . S
O195 Cd184 2.439 1_556 S
O195 C189 1.208 . S
O196 Cd197 2.223 . S
O196 C204 1.315 . S
Cd197 O196 2.223 . S
Cd197 O200 2.297 . S
Cd197 O201 2.439 . S
Cd197 O207 2.240 . S
Cd198 O199 2.240 . S
Cd198 O206 2.223 . S
Cd198 O208 2.297 . S
Cd198 O209 2.439 . S
O199 Cd198 2.240 . S
O199 C204 1.279 . S
O200 Cd197 2.297 . S
O200 C202 1.247 . S
O201 Cd197 2.439 . S
O201 C202 1.208 . S
C202 O200 1.247 . S
C202 O201 1.208 . S
C203 O208 1.247 . S
C203 O209 1.208 . S
C204 O196 1.315 . S
C204 O199 1.279 . S
C205 O206 1.315 . S
C205 O207 1.279 . S
O206 Cd198 2.223 . S
O206 C205 1.315 . S
O207 Cd197 2.240 . S
O207 C205 1.279 . S
O208 Cd198 2.297 . S
O208 C203 1.247 . S
O209 Cd198 2.439 . S
O209 C203 1.208 . S
O210 Cd211 2.223 . S
O210 C218 1.315 . S
Cd211 O210 2.223 . S
Cd211 O214 2.297 . S
Cd211 O215 2.439 . S
Cd211 O221 2.240 . S
Cd212 O213 2.240 . S
Cd212 O220 2.223 . S
Cd212 O222 2.297 . S
Cd212 O223 2.439 . S
O213 Cd212 2.240 . S
O213 C218 1.279 . S
O214 Cd211 2.297 . S
O214 C216 1.247 . S
O215 Cd211 2.439 . S
O215 C216 1.208 . S
C216 O214 1.247 . S
C216 O215 1.208 . S
C217 O222 1.247 . S
C217 O223 1.208 . S
C218 O210 1.315 . S
C218 O213 1.279 . S
C219 O220 1.315 . S
C219 O221 1.279 . S
O220 Cd212 2.223 . S
O220 C219 1.315 . S
O221 Cd211 2.240 . S
O221 C219 1.279 . S
O222 Cd212 2.297 . S
O222 C217 1.247 . S
O223 Cd212 2.439 . S
O223 C217 1.208 . S
O224 Cd225 2.223 1_565 S
O224 C232 1.315 . S
Cd225 O224 2.223 1_545 S
Cd225 O228 2.297 . S
Cd225 O229 2.439 . S
Cd225 O235 2.240 1_545 S
Cd226 O227 2.240 1_565 S
Cd226 O234 2.223 . S
Cd226 O236 2.297 . S
Cd226 O237 2.439 1_565 S
O227 Cd226 2.240 1_545 S
O227 C232 1.279 1_545 S
O228 Cd225 2.297 . S
O228 C230 1.247 . S
O229 Cd225 2.439 . S
O229 C230 1.208 . S
C230 O228 1.247 . S
C230 O229 1.208 . S
C231 O236 1.221 1_545 S
C231 O237 1.234 . S
C232 O224 1.315 . S
C232 O227 1.279 1_565 S
C233 O234 1.315 . S
C233 O235 1.279 . S
O234 Cd226 2.223 . S
O234 C233 1.315 . S
O235 Cd225 2.240 1_565 S
O235 C233 1.279 . S
O236 Cd226 2.297 . S
O236 C231 1.221 1_565 S
O237 Cd226 2.439 1_545 S
O237 C231 1.234 . S
O238 Cd239 2.223 . S
O238 C246 1.315 . S
Cd239 O238 2.223 . S
Cd239 O242 2.297 . S
Cd239 O243 2.439 . S
Cd239 O249 2.240 . S
Cd240 O241 2.240 . S
Cd240 O248 2.223 . S
Cd240 O250 2.297 . S
Cd240 O251 2.439 . S
O241 Cd240 2.240 . S
O241 C246 1.279 . S
O242 Cd239 2.297 . S
O242 C244 1.247 . S
O243 Cd239 2.439 . S
O243 C244 1.208 . S
C244 O242 1.247 . S
C244 O243 1.208 . S
C245 O250 1.247 . S
C245 O251 1.208 . S
C246 O238 1.315 . S
C246 O241 1.279 . S
C247 O248 1.315 . S
C247 O249 1.279 . S
O248 Cd240 2.223 . S
O248 C247 1.315 . S
O249 Cd239 2.240 . S
O249 C247 1.279 . S
O250 Cd240 2.297 . S
O250 C245 1.247 . S
O251 Cd240 2.439 . S
O251 C245 1.208 . S
O252 Cd253 2.223 . S
O252 C260 1.315 . S
Cd253 O252 2.223 . S
Cd253 O256 2.297 . S
Cd253 O257 2.439 . S
Cd253 O263 2.240 . S
Cd254 O255 2.240 . S
Cd254 O262 2.223 . S
Cd254 O264 2.297 . S
Cd254 O265 2.439 . S
O255 Cd254 2.240 . S
O255 C260 1.279 . S
O256 Cd253 2.297 . S
O256 C258 1.247 . S
O257 Cd253 2.439 . S
O257 C258 1.208 . S
C258 O256 1.247 . S
C258 O257 1.208 . S
C259 O264 1.247 . S
C259 O265 1.208 . S
C260 O252 1.315 . S
C260 O255 1.279 . S
C261 O262 1.315 . S
C261 O263 1.279 . S
O262 Cd254 2.223 . S
O262 C261 1.315 . S
O263 Cd253 2.240 . S
O263 C261 1.279 . S
O264 Cd254 2.297 . S
O264 C259 1.247 . S
O265 Cd254 2.439 . S
O265 C259 1.208 . S
O266 Cd267 2.224 1_545 S
O266 C274 1.315 . S
Cd267 O266 2.224 1_565 S
Cd267 O270 2.294 . S
Cd267 O271 2.436 . S
Cd267 O277 2.243 1_565 S
Cd268 O269 2.240 1_545 S
Cd268 O276 2.223 . S
Cd268 O278 2.297 . S
Cd268 O279 2.439 1_545 S
O269 Cd268 2.240 1_565 S
O269 C274 1.279 1_565 S
O270 Cd267 2.294 . S
O270 C272 1.247 . S
O271 Cd267 2.436 . S
O271 C272 1.208 . S
C272 O270 1.247 . S
C272 O271 1.208 . S
C273 O278 1.247 . S
C273 O279 1.208 1_545 S
C274 O266 1.315 . S
C274 O269 1.279 1_545 S
C275 O276 1.315 . S
C275 O277 1.279 . S
O276 Cd268 2.223 . S
O276 C275 1.315 . S
O277 Cd267 2.243 1_545 S
O277 C275 1.279 . S
O278 Cd268 2.297 . S
O278 C273 1.247 . S
O279 Cd268 2.439 1_565 S
O279 C273 1.208 1_565 S
O280 Cd281 2.223 . S
O280 C288 1.315 . S
Cd281 O280 2.223 . S
Cd281 O284 2.297 . S
Cd281 O285 2.439 1_554 S
Cd281 O291 2.240 1_554 S
Cd282 O283 2.240 1_556 S
Cd282 O290 2.223 1_556 S
Cd282 O292 2.297 . S
Cd282 O293 2.439 . S
O283 Cd282 2.240 1_554 S
O283 C288 1.279 . S
O284 Cd281 2.297 . S
O284 C286 1.247 . S
O285 Cd281 2.439 1_556 S
O285 C286 1.208 1_556 S
C286 O284 1.247 . S
C286 O285 1.208 1_554 S
C287 O292 1.247 . S
C287 O293 1.208 . S
C288 O280 1.315 . S
C288 O283 1.279 . S
C289 O290 1.315 1_556 S
C289 O291 1.279 . S
O290 Cd282 2.223 1_554 S
O290 C289 1.315 1_554 S
O291 Cd281 2.240 1_556 S
O291 C289 1.279 . S
O292 Cd282 2.297 . S
O292 C287 1.247 . S
O293 Cd282 2.439 . S
O293 C287 1.208 . S
O294 Cd295 2.223 . S
O294 C302 1.315 . S
Cd295 O294 2.223 . S
Cd295 O298 2.297 . S
Cd295 O299 2.439 . S
Cd295 O305 2.240 . S
Cd296 O297 2.240 . S
Cd296 O304 2.223 . S
Cd296 O306 2.297 . S
Cd296 O307 2.439 . S
O297 Cd296 2.240 . S
O297 C302 1.279 . S
O298 Cd295 2.297 . S
O298 C300 1.247 . S
O299 Cd295 2.439 . S
O299 C300 1.208 . S
C300 O298 1.247 . S
C300 O299 1.208 . S
C301 O306 1.247 . S
C301 O307 1.208 . S
C302 O294 1.315 . S
C302 O297 1.279 . S
C303 O304 1.315 . S
C303 O305 1.279 . S
O304 Cd296 2.223 . S
O304 C303 1.315 . S
O305 Cd295 2.240 . S
O305 C303 1.279 . S
O306 Cd296 2.297 . S
O306 C301 1.247 . S
O307 Cd296 2.439 . S
O307 C301 1.208 . S
O308 Cd309 2.223 . S
O308 C316 1.315 . S
Cd309 O308 2.223 . S
Cd309 O312 2.297 . S
Cd309 O313 2.439 . S
Cd309 O319 2.240 . S
Cd310 O311 2.240 . S
Cd310 O318 2.223 . S
Cd310 O320 2.297 . S
Cd310 O321 2.439 . S
O311 Cd310 2.240 . S
O311 C316 1.279 . S
O312 Cd309 2.297 . S
O312 C314 1.247 . S
O313 Cd309 2.439 . S
O313 C314 1.208 . S
C314 O312 1.247 . S
C314 O313 1.208 . S
C315 O320 1.247 . S
C315 O321 1.208 . S
C316 O308 1.315 . S
C316 O311 1.279 . S
C317 O318 1.315 . S
C317 O319 1.279 . S
O318 Cd310 2.223 . S
O318 C317 1.315 . S
O319 Cd309 2.240 . S
O319 C317 1.279 . S
O320 Cd310 2.297 . S
O320 C315 1.247 . S
O321 Cd310 2.439 . S
O321 C315 1.208 . S
O322 Cd323 2.223 . S
O322 C330 1.315 . S
Cd323 O322 2.223 . S
Cd323 O326 2.297 . S
Cd323 O327 2.439 . S
Cd323 O333 2.240 . S
Cd324 O325 2.240 . S
Cd324 O332 2.223 . S
Cd324 O334 2.297 . S
Cd324 O335 2.439 . S
O325 Cd324 2.240 . S
O325 C330 1.279 . S
O326 Cd323 2.297 . S
O326 C328 1.247 . S
O327 Cd323 2.439 . S
O327 C328 1.208 . S
C328 O326 1.247 . S
C328 O327 1.208 . S
C329 O334 1.247 . S
C329 O335 1.208 . S
C330 O322 1.315 . S
C330 O325 1.279 . S
C331 O332 1.315 . S
C331 O333 1.279 . S
O332 Cd324 2.223 . S
O332 C331 1.315 . S
O333 Cd323 2.240 . S
O333 C331 1.279 . S
O334 Cd324 2.297 . S
O334 C329 1.247 . S
O335 Cd324 2.439 . S
O335 C329 1.208 . S
Zn336 O342 1.969 1_565 S
Zn336 O343 1.965 1_565 S
Zn336 O347 2.024 . S
Zn336 O352 1.969 1_565 S
Zn337 O344 1.969 1_654 S
Zn337 O350 1.969 1_554 S
Zn337 O351 1.965 . S
Zn337 O353 2.024 1_655 S
C338 O339 1.229 . S
C338 O347 1.058 . S
O339 C338 1.229 . S
C340 O341 1.229 1_554 S
C340 O353 1.058 . S
O341 C340 1.229 1_556 S
O342 Zn336 1.969 1_545 S
O342 C345 1.267 1_545 S
O343 Zn336 1.965 1_545 S
O343 C354 1.260 1_554 S
O344 Zn337 1.969 1_456 S
O344 C354 1.258 . S
C345 O342 1.267 1_565 S
C345 O346 1.228 . S
O346 C345 1.228 . S
O347 Zn336 2.024 . S
O347 C338 1.058 . S
C348 O349 1.228 . S
C348 O350 1.267 1_554 S
O349 C348 1.228 . S
O350 Zn337 1.969 1_556 S
O350 C348 1.267 1_556 S
O351 Zn337 1.965 . S
O351 C355 1.260 1_655 S
O352 Zn336 1.969 1_545 S
O352 C355 1.258 . S
O353 Zn337 2.024 1_455 S
O353 C340 1.058 . S
C354 O343 1.260 1_556 S
C354 O344 1.258 . S
C355 O351 1.260 1_455 S
C355 O352 1.258 . S
Zn356 O362 1.969 . S
Zn356 O363 1.965 . S
Zn356 O367 2.024 . S
Zn356 O372 1.969 . S
Zn357 O364 1.969 . S
Zn357 O370 1.969 . S
Zn357 O371 1.965 . S
Zn357 O373 2.024 . S
C358 O359 1.229 . S
C358 O367 1.058 . S
O359 C358 1.229 . S
C360 O361 1.229 . S
C360 O373 1.058 . S
O361 C360 1.229 . S
O362 Zn356 1.969 . S
O362 C365 1.267 . S
O363 Zn356 1.965 . S
O363 C374 1.260 . S
O364 Zn357 1.969 . S
O364 C374 1.258 . S
C365 O362 1.267 . S
C365 O366 1.228 . S
O366 C365 1.228 . S
O367 Zn356 2.024 . S
O367 C358 1.058 . S
C368 O369 1.228 . S
C368 O370 1.267 . S
O369 C368 1.228 . S
O370 Zn357 1.969 . S
O370 C368 1.267 . S
O371 Zn357 1.965 . S
O371 C375 1.260 . S
O372 Zn356 1.969 . S
O372 C375 1.258 . S
O373 Zn357 2.024 . S
O373 C360 1.058 . S
C374 O363 1.260 . S
C374 O364 1.258 . S
C375 O371 1.260 . S
C375 O372 1.258 . S
Zn376 O382 1.969 . S
Zn376 O383 1.965 . S
Zn376 O387 2.024 . S
Zn376 O392 1.969 . S
Zn377 O384 1.969 . S
Zn377 O390 1.969 . S
Zn377 O391 1.965 1_565 S
Zn377 O393 2.024 . S
C378 O379 1.229 . S
C378 O387 1.058 . S
O379 C378 1.229 . S
C380 O381 1.229 . S
C380 O393 1.058 . S
O381 C380 1.229 . S
O382 Zn376 1.969 . S
O382 C385 1.267 . S
O383 Zn376 1.965 . S
O383 C394 1.260 . S
O384 Zn377 1.969 . S
O384 C394 1.258 1_565 S
C385 O382 1.267 . S
C385 O386 1.228 . S
O386 C385 1.228 . S
O387 Zn376 2.024 . S
O387 C378 1.058 . S
C388 O389 1.228 . S
C388 O390 1.267 . S
O389 C388 1.228 . S
O390 Zn377 1.969 . S
O390 C388 1.267 . S
O391 Zn377 1.965 1_545 S
O391 C395 1.260 . S
O392 Zn376 1.969 . S
O392 C395 1.258 . S
O393 Zn377 2.024 . S
O393 C380 1.058 . S
C394 O383 1.260 . S
C394 O384 1.258 1_545 S
C395 O391 1.260 . S
C395 O392 1.258 . S
Zn396 O402 1.969 . S
Zn396 O403 1.965 . S
Zn396 O407 2.024 . S
Zn396 O412 1.969 . S
Zn397 O404 1.969 . S
Zn397 O410 1.969 . S
Zn397 O411 1.965 . S
Zn397 O413 2.024 . S
C398 O399 1.229 . S
C398 O407 1.058 . S
O399 C398 1.229 . S
C400 O401 1.229 . S
C400 O413 1.058 . S
O401 C400 1.229 . S
O402 Zn396 1.969 . S
O402 C405 1.267 . S
O403 Zn396 1.965 . S
O403 C414 1.260 . S
O404 Zn397 1.969 . S
O404 C414 1.258 . S
C405 O402 1.267 . S
C405 O406 1.228 . S
O406 C405 1.228 . S
O407 Zn396 2.024 . S
O407 C398 1.058 . S
C408 O409 1.228 . S
C408 O410 1.267 . S
O409 C408 1.228 . S
O410 Zn397 1.969 . S
O410 C408 1.267 . S
O411 Zn397 1.965 . S
O411 C415 1.260 . S
O412 Zn396 1.969 . S
O412 C415 1.258 . S
O413 Zn397 2.024 . S
O413 C400 1.058 . S
C414 O403 1.260 . S
C414 O404 1.258 . S
C415 O411 1.260 . S
C415 O412 1.258 . S
Zn416 O422 1.969 . S
Zn416 O423 1.965 . S
Zn416 O427 2.024 1_565 S
Zn416 O432 1.969 1_565 S
Zn417 O424 1.969 1_455 S
Zn417 O430 1.969 . S
Zn417 O431 1.965 . S
Zn417 O433 2.024 . S
C418 O419 1.229 1_545 S
C418 O427 1.058 . S
O419 C418 1.229 1_565 S
C420 O421 1.229 . S
C420 O433 1.058 1_655 S
O421 C420 1.229 . S
O422 Zn416 1.969 . S
O422 C425 1.267 . S
O423 Zn416 1.965 . S
O423 C434 1.260 1_455 S
O424 Zn417 1.969 1_655 S
O424 C434 1.258 1_545 S
C425 O422 1.267 . S
C425 O426 1.228 . S
O426 C425 1.228 . S
O427 Zn416 2.024 1_545 S
O427 C418 1.058 . S
C428 O429 1.228 . S
C428 O430 1.267 . S
O429 C428 1.228 . S
O430 Zn417 1.969 . S
O430 C428 1.267 . S
O431 Zn417 1.965 . S
O431 C435 1.260 . S
O432 Zn416 1.969 1_545 S
O432 C435 1.258 . S
O433 Zn417 2.024 . S
O433 C420 1.058 1_455 S
C434 O423 1.260 1_655 S
C434 O424 1.258 1_565 S
C435 O431 1.260 . S
C435 O432 1.258 . S
Zn436 O442 1.969 . S
Zn436 O443 1.965 . S
Zn436 O447 2.024 . S
Zn436 O452 1.969 . S
Zn437 O444 1.969 . S
Zn437 O450 1.969 . S
Zn437 O451 1.965 . S
Zn437 O453 2.024 . S
C438 O439 1.229 . S
C438 O447 1.058 . S
O439 C438 1.229 . S
C440 O441 1.229 . S
C440 O453 1.058 . S
O441 C440 1.229 . S
O442 Zn436 1.969 . S
O442 C445 1.267 . S
O443 Zn436 1.965 . S
O443 C454 1.260 . S
O444 Zn437 1.969 . S
O444 C454 1.258 . S
C445 O442 1.267 . S
C445 O446 1.228 . S
O446 C445 1.228 . S
O447 Zn436 2.024 . S
O447 C438 1.058 . S
C448 O449 1.228 . S
C448 O450 1.267 . S
O449 C448 1.228 . S
O450 Zn437 1.969 . S
O450 C448 1.267 . S
O451 Zn437 1.965 . S
O451 C455 1.260 . S
O452 Zn436 1.969 . S
O452 C455 1.258 . S
O453 Zn437 2.024 . S
O453 C440 1.058 . S
C454 O443 1.260 . S
C454 O444 1.258 . S
C455 O451 1.260 . S
C455 O452 1.258 . S
Zn456 O462 1.969 1_554 S
Zn456 O463 1.967 1_544 S
Zn456 O467 2.024 . S
Zn456 O472 1.969 . S
Zn457 O464 1.969 . S
Zn457 O470 1.969 . S
Zn457 O471 1.965 1_565 S
Zn457 O473 2.024 . S
C458 O459 1.229 . S
C458 O467 1.058 . S
O459 C458 1.229 . S
C460 O461 1.229 . S
C460 O473 1.058 . S
O461 C460 1.229 . S
O462 Zn456 1.969 1_556 S
O462 C465 1.267 . S
O463 Zn456 1.967 1_566 S
O463 C474 1.252 1_556 S
O464 Zn457 1.969 . S
O464 C474 1.258 . S
C465 O462 1.267 . S
C465 O466 1.228 . S
O466 C465 1.228 . S
O467 Zn456 2.024 . S
O467 C458 1.058 . S
C468 O469 1.228 1_565 S
C468 O470 1.267 . S
O469 C468 1.228 1_545 S
O470 Zn457 1.969 . S
O470 C468 1.267 . S
O471 Zn457 1.965 1_545 S
O471 C475 1.260 . S
O472 Zn456 1.969 . S
O472 C475 1.258 . S
O473 Zn457 2.024 . S
O473 C460 1.058 . S
C474 O463 1.252 1_554 S
C474 O464 1.258 . S
C475 O471 1.260 . S
C475 O472 1.258 . S
Zn476 O482 1.969 . S
Zn476 O483 1.965 . S
Zn476 O487 2.024 . S
Zn476 O492 1.969 . S
Zn477 O484 1.969 . S
Zn477 O490 1.969 . S
Zn477 O491 1.965 . S
Zn477 O493 2.024 . S
C478 O479 1.229 . S
C478 O487 1.058 . S
O479 C478 1.229 . S
C480 O481 1.229 . S
C480 O493 1.058 . S
O481 C480 1.229 . S
O482 Zn476 1.969 . S
O482 C485 1.267 . S
O483 Zn476 1.965 . S
O483 C494 1.260 . S
O484 Zn477 1.969 . S
O484 C494 1.258 . S
C485 O482 1.267 . S
C485 O486 1.228 . S
O486 C485 1.228 . S
O487 Zn476 2.024 . S
O487 C478 1.058 . S
C488 O489 1.228 . S
C488 O490 1.267 . S
O489 C488 1.228 . S
O490 Zn477 1.969 . S
O490 C488 1.267 . S
O491 Zn477 1.965 . S
O491 C495 1.260 . S
O492 Zn476 1.969 . S
O492 C495 1.258 . S
O493 Zn477 2.024 . S
O493 C480 1.058 . S
C494 O483 1.260 . S
C494 O484 1.258 . S
C495 O491 1.260 . S
C495 O492 1.258 . S
Zn496 O502 1.969 . S
Zn496 O503 1.965 . S
Zn496 O507 2.024 . S
Zn496 O512 1.969 . S
Zn497 O504 1.969 1_556 S
Zn497 O510 1.969 1_556 S
Zn497 O511 1.965 1_556 S
Zn497 O513 2.024 . S
C498 O499 1.229 . S
C498 O507 1.058 . S
O499 C498 1.229 . S
C500 O501 1.229 . S
C500 O513 1.058 . S
O501 C500 1.229 . S
O502 Zn496 1.969 . S
O502 C505 1.267 . S
O503 Zn496 1.965 . S
O503 C514 1.260 . S
O504 Zn497 1.969 1_554 S
O504 C514 1.258 . S
C505 O502 1.267 . S
C505 O506 1.228 . S
O506 C505 1.228 . S
O507 Zn496 2.024 . S
O507 C498 1.058 . S
C508 O509 1.228 . S
C508 O510 1.267 1_556 S
O509 C508 1.228 . S
O510 Zn497 1.969 1_554 S
O510 C508 1.267 1_554 S
O511 Zn497 1.965 1_554 S
O511 C515 1.260 . S
O512 Zn496 1.969 . S
O512 C515 1.258 . S
O513 Zn497 2.024 . S
O513 C500 1.058 . S
C514 O503 1.260 . S
C514 O504 1.258 . S
C515 O511 1.260 . S
C515 O512 1.258 . S
Zn516 O522 1.969 . S
Zn516 O523 1.965 . S
Zn516 O527 2.024 . S
Zn516 O532 1.969 . S
Zn517 O524 1.969 . S
Zn517 O530 1.969 . S
Zn517 O531 1.965 . S
Zn517 O533 2.024 . S
C518 O519 1.229 . S
C518 O527 1.058 . S
O519 C518 1.229 . S
C520 O521 1.229 . S
C520 O533 1.058 . S
O521 C520 1.229 . S
O522 Zn516 1.969 . S
O522 C525 1.267 . S
O523 Zn516 1.965 . S
O523 C534 1.260 . S
O524 Zn517 1.969 . S
O524 C534 1.258 . S
C525 O522 1.267 . S
C525 O526 1.228 . S
O526 C525 1.228 . S
O527 Zn516 2.024 . S
O527 C518 1.058 . S
C528 O529 1.228 . S
C528 O530 1.267 . S
O529 C528 1.228 . S
O530 Zn517 1.969 . S
O530 C528 1.267 . S
O531 Zn517 1.965 . S
O531 C535 1.260 . S
O532 Zn516 1.969 . S
O532 C535 1.258 . S
O533 Zn517 2.024 . S
O533 C520 1.058 . S
C534 O523 1.260 . S
C534 O524 1.258 . S
C535 O531 1.260 . S
C535 O532 1.258 . S
Zn536 O542 1.969 . S
Zn536 O543 1.965 . S
Zn536 O547 2.024 . S
Zn536 O552 1.969 . S
Zn537 O544 1.969 . S
Zn537 O550 1.969 . S
Zn537 O551 1.965 1_655 S
Zn537 O553 2.024 . S
C538 O539 1.229 . S
C538 O547 1.058 . S
O539 C538 1.229 . S
C540 O541 1.229 . S
C540 O553 1.058 . S
O541 C540 1.229 . S
O542 Zn536 1.969 . S
O542 C545 1.267 . S
O543 Zn536 1.965 . S
O543 C554 1.260 . S
O544 Zn537 1.969 . S
O544 C554 1.258 1_655 S
C545 O542 1.267 . S
C545 O546 1.228 . S
O546 C545 1.228 . S
O547 Zn536 2.024 . S
O547 C538 1.058 . S
C548 O549 1.228 . S
C548 O550 1.267 . S
O549 C548 1.228 . S
O550 Zn537 1.969 . S
O550 C548 1.267 . S
O551 Zn537 1.965 1_455 S
O551 C555 1.260 . S
O552 Zn536 1.969 . S
O552 C555 1.258 . S
O553 Zn537 2.024 . S
O553 C540 1.058 . S
C554 O543 1.260 . S
C554 O544 1.258 1_455 S
C555 O551 1.260 . S
C555 O552 1.258 . S
Zn556 O562 1.969 . S
Zn556 O563 1.965 . S
Zn556 O567 2.024 . S
Zn556 O572 1.969 . S
Zn557 O564 1.969 . S
Zn557 O570 1.969 . S
Zn557 O571 1.965 . S
Zn557 O573 2.024 . S
C558 O559 1.229 . S
C558 O567 1.058 . S
O559 C558 1.229 . S
C560 O561 1.229 . S
C560 O573 1.058 . S
O561 C560 1.229 . S
O562 Zn556 1.969 . S
O562 C565 1.267 . S
O563 Zn556 1.965 . S
O563 C574 1.260 . S
O564 Zn557 1.969 . S
O564 C574 1.258 . S
C565 O562 1.267 . S
C565 O566 1.228 . S
O566 C565 1.228 . S
O567 Zn556 2.024 . S
O567 C558 1.058 . S
C568 O569 1.228 . S
C568 O570 1.267 . S
O569 C568 1.228 . S
O570 Zn557 1.969 . S
O570 C568 1.267 . S
O571 Zn557 1.965 . S
O571 C575 1.260 . S
O572 Zn556 1.969 . S
O572 C575 1.258 . S
O573 Zn557 2.024 . S
O573 C560 1.058 . S
C574 O563 1.260 . S
C574 O564 1.258 . S
C575 O571 1.260 . S
C575 O572 1.258 . S
Zn576 O582 1.969 . S
Zn576 O583 1.965 . S
Zn576 O587 2.024 . S
Zn576 O592 1.969 . S
Zn577 O584 1.969 . S
Zn577 O590 1.969 . S
Zn577 O591 1.965 . S
Zn577 O593 2.024 . S
C578 O579 1.229 . S
C578 O587 1.058 . S
O579 C578 1.229 . S
C580 O581 1.229 . S
C580 O593 1.058 . S
O581 C580 1.229 . S
O582 Zn576 1.969 . S
O582 C585 1.267 . S
O583 Zn576 1.965 . S
O583 C594 1.260 . S
O584 Zn577 1.969 . S
O584 C594 1.258 . S
C585 O582 1.267 . S
C585 O586 1.228 . S
O586 C585 1.228 . S
O587 Zn576 2.024 . S
O587 C578 1.058 . S
C588 O589 1.228 . S
C588 O590 1.267 . S
O589 C588 1.228 . S
O590 Zn577 1.969 . S
O590 C588 1.267 . S
O591 Zn577 1.965 . S
O591 C595 1.260 . S
O592 Zn576 1.969 . S
O592 C595 1.258 . S
O593 Zn577 2.024 . S
O593 C580 1.058 . S
C594 O583 1.260 . S
C594 O584 1.258 . S
C595 O591 1.260 . S
C595 O592 1.258 . S
Zn596 O602 1.969 . S
Zn596 O603 1.965 . S
Zn596 O607 2.024 . S
Zn596 O612 1.969 . S
Zn597 O604 1.969 . S
Zn597 O610 1.969 . S
Zn597 O611 1.965 . S
Zn597 O613 2.024 . S
C598 O599 1.229 . S
C598 O607 1.058 . S
O599 C598 1.229 . S
C600 O601 1.229 . S
C600 O613 1.058 . S
O601 C600 1.229 . S
O602 Zn596 1.969 . S
O602 C605 1.267 . S
O603 Zn596 1.965 . S
O603 C614 1.260 . S
O604 Zn597 1.969 . S
O604 C614 1.258 . S
C605 O602 1.267 . S
C605 O606 1.228 . S
O606 C605 1.228 . S
O607 Zn596 2.024 . S
O607 C598 1.058 . S
C608 O609 1.228 . S
C608 O610 1.267 . S
O609 C608 1.228 . S
O610 Zn597 1.969 . S
O610 C608 1.267 . S
O611 Zn597 1.965 . S
O611 C615 1.260 . S
O612 Zn596 1.969 . S
O612 C615 1.258 . S
O613 Zn597 2.024 . S
O613 C600 1.058 . S
C614 O603 1.260 . S
C614 O604 1.258 . S
C615 O611 1.260 . S
C615 O612 1.258 . S
Zn616 O622 1.969 . S
Zn616 O623 1.965 . S
Zn616 O627 2.024 . S
Zn616 O632 1.969 . S
Zn617 O624 1.969 . S
Zn617 O630 1.969 . S
Zn617 O631 1.965 . S
Zn617 O633 2.024 . S
C618 O619 1.229 . S
C618 O627 1.058 . S
O619 C618 1.229 . S
C620 O621 1.229 . S
C620 O633 1.058 . S
O621 C620 1.229 . S
O622 Zn616 1.969 . S
O622 C625 1.267 . S
O623 Zn616 1.965 . S
O623 C634 1.260 . S
O624 Zn617 1.969 . S
O624 C634 1.258 . S
C625 O622 1.267 . S
C625 O626 1.228 . S
O626 C625 1.228 . S
O627 Zn616 2.024 . S
O627 C618 1.058 . S
C628 O629 1.228 . S
C628 O630 1.267 . S
O629 C628 1.228 . S
O630 Zn617 1.969 . S
O630 C628 1.267 . S
O631 Zn617 1.965 . S
O631 C635 1.260 . S
O632 Zn616 1.969 . S
O632 C635 1.258 . S
O633 Zn617 2.024 . S
O633 C620 1.058 . S
C634 O623 1.260 . S
C634 O624 1.258 . S
C635 O631 1.260 . S
C635 O632 1.258 . S
Zn636 O642 1.969 . S
Zn636 O643 1.965 . S
Zn636 O647 2.024 1_655 S
Zn636 O652 1.969 1_655 S
Zn637 O644 1.969 1_554 S
Zn637 O650 1.969 . S
Zn637 O651 1.965 . S
Zn637 O653 2.024 . S
C638 O639 1.229 . S
C638 O647 1.058 . S
O639 C638 1.229 . S
C640 O641 1.229 1_554 S
C640 O653 1.058 . S
O641 C640 1.229 1_556 S
O642 Zn636 1.969 . S
O642 C645 1.267 . S
O643 Zn636 1.965 . S
O643 C654 1.260 1_654 S
O644 Zn637 1.969 1_556 S
O644 C654 1.258 . S
C645 O642 1.267 . S
C645 O646 1.228 . S
O646 C645 1.228 . S
O647 Zn636 2.024 1_455 S
O647 C638 1.058 . S
C648 O649 1.228 . S
C648 O650 1.267 . S
O649 C648 1.228 . S
O650 Zn637 1.969 . S
O650 C648 1.267 . S
O651 Zn637 1.965 . S
O651 C655 1.260 . S
O652 Zn636 1.969 1_455 S
O652 C655 1.258 . S
O653 Zn637 2.024 . S
O653 C640 1.058 . S
C654 O643 1.260 1_456 S
C654 O644 1.258 . S
C655 O651 1.260 . S
C655 O652 1.258 . S
C656 C657 1.369 1_455 S
C656 C658 1.419 . S
C656 H660 0.930 . S
C657 C656 1.369 1_655 S
C657 C666 1.429 . S
C658 C656 1.419 . S
C658 C659 1.363 . S
C658 H661 0.929 . S
C659 C658 1.363 . S
C659 C665 1.428 1_455 S
H660 C656 0.930 . S
H661 C658 0.929 . S
S662 N663 1.613 . S
S662 N664 1.610 . S
N663 S662 1.613 . S
N663 C666 1.350 . S
N664 S662 1.610 . S
N664 C665 1.351 . S
C665 C659 1.428 1_655 S
C665 N664 1.351 . S
C665 C666 1.434 . S
C666 C657 1.429 . S
C666 N663 1.350 . S
C666 C665 1.434 . S
C667 C668 1.369 . S
C667 C669 1.419 . S
C667 H671 0.930 . S
C668 C667 1.369 . S
C668 C677 1.429 . S
C669 C667 1.419 . S
C669 C670 1.363 . S
C669 H672 0.929 . S
C670 C669 1.363 . S
C670 C676 1.428 . S
H671 C667 0.930 . S
H672 C669 0.929 . S
S673 N674 1.613 . S
S673 N675 1.610 . S
N674 S673 1.613 . S
N674 C677 1.350 . S
N675 S673 1.610 . S
N675 C676 1.351 . S
C676 C670 1.428 . S
C676 N675 1.351 . S
C676 C677 1.434 . S
C677 C668 1.429 . S
C677 N674 1.350 . S
C677 C676 1.434 . S
C678 C679 1.369 . S
C678 C680 1.419 . S
C678 H682 0.930 . S
C679 C678 1.369 . S
C679 C688 1.429 . S
C680 C678 1.419 . S
C680 C681 1.363 . S
C680 H683 0.929 . S
C681 C680 1.363 . S
C681 C687 1.428 . S
H682 C678 0.930 . S
H683 C680 0.929 . S
S684 N685 1.613 . S
S684 N686 1.610 . S
N685 S684 1.613 . S
N685 C688 1.350 . S
N686 S684 1.610 . S
N686 C687 1.351 . S
C687 C681 1.428 . S
C687 N686 1.351 . S
C687 C688 1.434 . S
C688 C679 1.429 . S
C688 N685 1.350 . S
C688 C687 1.434 . S
C689 C690 1.369 . S
C689 C691 1.419 . S
C689 H693 0.930 . S
C690 C689 1.369 . S
C690 C699 1.429 . S
C691 C689 1.419 . S
C691 C692 1.363 . S
C691 H694 0.929 . S
C692 C691 1.363 . S
C692 C698 1.428 . S
H693 C689 0.930 . S
H694 C691 0.929 . S
S695 N696 1.613 . S
S695 N697 1.610 . S
N696 S695 1.613 . S
N696 C699 1.350 . S
N697 S695 1.610 . S
N697 C698 1.351 . S
C698 C692 1.428 . S
C698 N697 1.351 . S
C698 C699 1.434 . S
C699 C690 1.429 . S
C699 N696 1.350 . S
C699 C698 1.434 . S
C700 C701 1.369 . S
C700 C702 1.419 . S
C700 H704 0.930 . S
C701 C700 1.369 . S
C701 C710 1.432 . S
C702 C700 1.419 . S
C702 C703 1.363 . S
C702 H705 0.929 . S
C703 C702 1.363 . S
C703 C709 1.428 . S
H704 C700 0.930 . S
H705 C702 0.929 . S
S706 N707 1.613 . S
S706 N708 1.610 . S
N707 S706 1.613 . S
N707 C710 1.346 1_655 S
N708 S706 1.610 . S
N708 C709 1.351 1_655 S
C709 C703 1.428 . S
C709 N708 1.351 1_455 S
C709 C710 1.434 . S
C710 C701 1.432 . S
C710 N707 1.346 1_455 S
C710 C709 1.434 . S
C711 C712 1.369 . S
C711 C713 1.419 . S
C711 H715 0.930 . S
C712 C711 1.369 . S
C712 C721 1.429 . S
C713 C711 1.419 . S
C713 C714 1.363 . S
C713 H716 0.929 . S
C714 C713 1.363 . S
C714 C720 1.428 . S
H715 C711 0.930 . S
H716 C713 0.929 . S
S717 N718 1.613 . S
S717 N719 1.610 . S
N718 S717 1.613 . S
N718 C721 1.350 . S
N719 S717 1.610 . S
N719 C720 1.351 . S
C720 C714 1.428 . S
C720 N719 1.351 . S
C720 C721 1.434 . S
C721 C712 1.429 . S
C721 N718 1.350 . S
C721 C720 1.434 . S
C722 C723 1.369 . S
C722 C724 1.419 . S
C722 H726 0.930 . S
C723 C722 1.369 . S
C723 C732 1.429 . S
C724 C722 1.419 . S
C724 C725 1.363 . S
C724 H727 0.929 . S
C725 C724 1.363 . S
C725 C731 1.428 . S
H726 C722 0.930 . S
H727 C724 0.929 . S
S728 N729 1.613 . S
S728 N730 1.610 . S
N729 S728 1.613 . S
N729 C732 1.350 . S
N730 S728 1.610 . S
N730 C731 1.351 . S
C731 C725 1.428 . S
C731 N730 1.351 . S
C731 C732 1.434 . S
C732 C723 1.429 . S
C732 N729 1.350 . S
C732 C731 1.434 . S
C733 C734 1.369 . S
C733 C735 1.419 . S
C733 H737 0.930 . S
C734 C733 1.369 . S
C734 C743 1.429 . S
C735 C733 1.419 . S
C735 C736 1.363 . S
C735 H738 0.929 . S
C736 C735 1.363 . S
C736 C742 1.428 . S
H737 C733 0.930 . S
H738 C735 0.929 . S
S739 N740 1.613 . S
S739 N741 1.610 . S
N740 S739 1.613 . S
N740 C743 1.350 . S
N741 S739 1.610 . S
N741 C742 1.351 . S
C742 C736 1.428 . S
C742 N741 1.351 . S
C742 C743 1.434 . S
C743 C734 1.429 . S
C743 N740 1.350 . S
C743 C742 1.434 . S
C744 C745 1.369 . S
C744 C746 1.419 . S
C744 H748 0.930 . S
C745 C744 1.369 . S
C745 C754 1.429 1_545 S
C746 C744 1.419 . S
C746 C747 1.363 . S
C746 H749 0.929 1_655 S
C747 C746 1.363 . S
C747 C753 1.428 . S
H748 C744 0.930 . S
H749 C746 0.929 1_455 S
S750 N751 1.613 . S
S750 N752 1.610 . S
N751 S750 1.613 . S
N751 C754 1.350 . S
N752 S750 1.610 . S
N752 C753 1.351 1_565 S
C753 C747 1.428 . S
C753 N752 1.351 1_545 S
C753 C754 1.434 1_545 S
C754 C745 1.429 1_565 S
C754 N751 1.350 . S
C754 C753 1.434 1_565 S
C755 C756 1.369 . S
C755 C757 1.419 . S
C755 H759 0.930 . S
C756 C755 1.369 . S
C756 C765 1.429 . S
C757 C755 1.419 . S
C757 C758 1.363 . S
C757 H760 0.929 . S
C758 C757 1.363 . S
C758 C764 1.428 . S
H759 C755 0.930 . S
H760 C757 0.929 . S
S761 N762 1.613 . S
S761 N763 1.610 . S
N762 S761 1.613 . S
N762 C765 1.350 . S
N763 S761 1.610 . S
N763 C764 1.351 . S
C764 C758 1.428 . S
C764 N763 1.351 . S
C764 C765 1.434 . S
C765 C756 1.429 . S
C765 N762 1.350 . S
C765 C764 1.434 . S
C766 C767 1.369 1_565 S
C766 C768 1.419 . S
C766 H770 0.930 . S
C767 C766 1.369 1_545 S
C767 C776 1.429 . S
C768 C766 1.419 . S
C768 C769 1.363 1_565 S
C768 H771 0.929 . S
C769 C768 1.363 1_545 S
C769 C775 1.428 . S
H770 C766 0.930 . S
H771 C768 0.929 . S
S772 N773 1.613 . S
S772 N774 1.610 . S
N773 S772 1.613 . S
N773 C776 1.350 . S
N774 S772 1.610 . S
N774 C775 1.351 . S
C775 C769 1.428 . S
C775 N774 1.351 . S
C775 C776 1.434 . S
C776 C767 1.429 . S
C776 N773 1.350 . S
C776 C775 1.434 . S
C777 C778 1.369 . S
C777 C779 1.419 . S
C777 H781 0.930 . S
C778 C777 1.369 . S
C778 C787 1.429 . S
C779 C777 1.419 . S
C779 C780 1.363 . S
C779 H782 0.929 . S
C780 C779 1.363 . S
C780 C786 1.428 . S
H781 C777 0.930 . S
H782 C779 0.929 . S
S783 N784 1.613 . S
S783 N785 1.610 . S
N784 S783 1.613 . S
N784 C787 1.350 . S
N785 S783 1.610 . S
N785 C786 1.351 . S
C786 C780 1.428 . S
C786 N785 1.351 . S
C786 C787 1.434 . S
C787 C778 1.429 . S
C787 N784 1.350 . S
C787 C786 1.434 . S
C788 C789 1.369 . S
C788 C790 1.419 . S
C788 H792 0.930 . S
C789 C788 1.369 . S
C789 C798 1.429 1_545 S
C790 C788 1.419 . S
C790 C791 1.363 . S
C790 H793 0.929 1_655 S
C791 C790 1.363 . S
C791 C797 1.428 1_545 S
H792 C788 0.930 . S
H793 C790 0.929 1_455 S
S794 N795 1.613 . S
S794 N796 1.610 . S
N795 S794 1.613 . S
N795 C798 1.350 . S
N796 S794 1.610 . S
N796 C797 1.351 . S
C797 C791 1.428 1_565 S
C797 N796 1.351 . S
C797 C798 1.434 . S
C798 C789 1.429 1_565 S
C798 N795 1.350 . S
C798 C797 1.434 . S
C799 C800 1.369 . S
C799 C801 1.419 . S
C799 H803 0.930 . S
C800 C799 1.369 . S
C800 C809 1.429 . S
C801 C799 1.419 . S
C801 C802 1.363 . S
C801 H804 0.929 . S
C802 C801 1.363 . S
C802 C808 1.428 . S
H803 C799 0.930 . S
H804 C801 0.929 . S
S805 N806 1.613 . S
S805 N807 1.610 . S
N806 S805 1.613 . S
N806 C809 1.350 . S
N807 S805 1.610 . S
N807 C808 1.351 . S
C808 C802 1.428 . S
C808 N807 1.351 . S
C808 C809 1.434 . S
C809 C800 1.429 . S
C809 N806 1.350 . S
C809 C808 1.434 . S
C810 C811 1.369 1_565 S
C810 C812 1.419 . S
C810 H814 0.930 . S
C811 C810 1.369 1_545 S
C811 C820 1.429 . S
C812 C810 1.419 . S
C812 C813 1.363 1_565 S
C812 H815 0.929 . S
C813 C812 1.363 1_545 S
C813 C819 1.428 . S
H814 C810 0.930 . S
H815 C812 0.929 . S
S816 N817 1.613 . S
S816 N818 1.610 . S
N817 S816 1.613 . S
N817 C820 1.350 . S
N818 S816 1.610 . S
N818 C819 1.351 . S
C819 C813 1.428 . S
C819 N818 1.351 . S
C819 C820 1.434 . S
C820 C811 1.429 . S
C820 N817 1.350 . S
C820 C819 1.434 . S
C821 C822 1.369 . S
C821 C823 1.419 . S
C821 H825 0.930 . S
C822 C821 1.369 . S
C822 C831 1.429 . S
C823 C821 1.419 . S
C823 C824 1.363 . S
C823 H826 0.929 . S
C824 C823 1.363 . S
C824 C830 1.428 . S
H825 C821 0.930 . S
H826 C823 0.929 . S
S827 N828 1.613 . S
S827 N829 1.610 . S
N828 S827 1.613 . S
N828 C831 1.350 . S
N829 S827 1.610 . S
N829 C830 1.351 . S
C830 C824 1.428 . S
C830 N829 1.351 . S
C830 C831 1.434 . S
C831 C822 1.429 . S
C831 N828 1.350 . S
C831 C830 1.434 . S
C832 C833 1.369 . S
C832 C834 1.419 . S
C832 H836 0.930 . S
C833 C832 1.369 . S
C833 C842 1.429 . S
C834 C832 1.419 . S
C834 C835 1.363 . S
C834 H837 0.929 . S
C835 C834 1.363 . S
C835 C841 1.428 . S
H836 C832 0.930 . S
H837 C834 0.929 . S
S838 N839 1.615 1_545 S
S838 N840 1.610 1_556 S
N839 S838 1.615 1_565 S
N839 C842 1.350 1_556 S
N840 S838 1.610 1_554 S
N840 C841 1.351 1_545 S
C841 C835 1.428 . S
C841 N840 1.351 1_565 S
C841 C842 1.434 . S
C842 C833 1.429 . S
C842 N839 1.350 1_554 S
C842 C841 1.434 . S
C843 C844 1.369 1_556 S
C843 C845 1.419 . S
C843 H847 0.930 . S
C844 C843 1.369 1_554 S
C844 C853 1.429 . S
C845 C843 1.419 . S
C845 C846 1.363 1_556 S
C845 H848 0.929 . S
C846 C845 1.363 1_554 S
C846 C852 1.428 . S
H847 C843 0.930 . S
H848 C845 0.929 . S
S849 N850 1.613 . S
S849 N851 1.610 . S
N850 S849 1.613 . S
N850 C853 1.350 . S
N851 S849 1.610 . S
N851 C852 1.351 . S
C852 C846 1.428 . S
C852 N851 1.351 . S
C852 C853 1.434 . S
C853 C844 1.429 . S
C853 N850 1.350 . S
C853 C852 1.434 . S
C854 C855 1.369 . S
C854 C856 1.419 . S
C854 H858 0.930 . S
C855 C854 1.369 . S
C855 C864 1.429 . S
C856 C854 1.419 . S
C856 C857 1.363 . S
C856 H859 0.929 . S
C857 C856 1.363 . S
C857 C863 1.428 . S
H858 C854 0.930 . S
H859 C856 0.929 . S
S860 N861 1.613 . S
S860 N862 1.610 . S
N861 S860 1.613 . S
N861 C864 1.350 . S
N862 S860 1.610 . S
N862 C863 1.351 . S
C863 C857 1.428 . S
C863 N862 1.351 . S
C863 C864 1.434 . S
C864 C855 1.429 . S
C864 N861 1.350 . S
C864 C863 1.434 . S
C865 C866 1.369 . S
C865 C867 1.419 . S
C865 H869 0.930 . S
C866 C865 1.369 . S
C866 C875 1.429 . S
C867 C865 1.419 . S
C867 C868 1.363 . S
C867 H870 0.929 . S
C868 C867 1.363 . S
C868 C874 1.428 . S
H869 C865 0.930 . S
H870 C867 0.929 . S
S871 N872 1.613 . S
S871 N873 1.610 . S
N872 S871 1.613 . S
N872 C875 1.350 . S
N873 S871 1.610 . S
N873 C874 1.351 . S
C874 C868 1.428 . S
C874 N873 1.351 . S
C874 C875 1.434 . S
C875 C866 1.429 . S
C875 N872 1.350 . S
C875 C874 1.434 . S
C876 C877 1.369 . S
C876 C878 1.419 . S
C876 H880 0.930 . S
C877 C876 1.369 . S
C877 C886 1.429 . S
C878 C876 1.419 . S
C878 C879 1.363 . S
C878 H881 0.929 . S
C879 C878 1.363 . S
C879 C885 1.428 . S
H880 C876 0.930 . S
H881 C878 0.929 . S
S882 N883 1.613 . S
S882 N884 1.610 . S
N883 S882 1.613 . S
N883 C886 1.350 . S
N884 S882 1.610 . S
N884 C885 1.351 . S
C885 C879 1.428 . S
C885 N884 1.351 . S
C885 C886 1.434 . S
C886 C877 1.429 . S
C886 N883 1.350 . S
C886 C885 1.434 . S
C887 C888 1.369 . S
C887 C889 1.419 . S
C887 H891 0.930 . S
C888 C887 1.369 . S
C888 C897 1.429 . S
C889 C887 1.419 . S
C889 C890 1.363 . S
C889 H892 0.929 . S
C890 C889 1.363 . S
C890 C896 1.428 . S
H891 C887 0.930 . S
H892 C889 0.929 . S
S893 N894 1.613 . S
S893 N895 1.610 . S
N894 S893 1.613 . S
N894 C897 1.350 . S
N895 S893 1.610 . S
N895 C896 1.351 . S
C896 C890 1.428 . S
C896 N895 1.351 . S
C896 C897 1.434 . S
C897 C888 1.429 . S
C897 N894 1.350 . S
C897 C896 1.434 . S
C898 C899 1.369 . S
C898 C900 1.419 . S
C898 H902 0.930 . S
C899 C898 1.369 . S
C899 C908 1.429 . S
C900 C898 1.419 . S
C900 C901 1.363 . S
C900 H903 0.929 . S
C901 C900 1.363 . S
C901 C907 1.428 . S
H902 C898 0.930 . S
H903 C900 0.929 . S
S904 N905 1.613 . S
S904 N906 1.610 . S
N905 S904 1.613 . S
N905 C908 1.350 . S
N906 S904 1.610 . S
N906 C907 1.351 . S
C907 C901 1.428 . S
C907 N906 1.351 . S
C907 C908 1.434 . S
C908 C899 1.429 . S
C908 N905 1.350 . S
C908 C907 1.434 . S
C909 C910 1.369 . S
C909 C911 1.419 . S
C909 H913 0.930 . S
C910 C909 1.369 . S
C910 C919 1.429 . S
C911 C909 1.419 . S
C911 C912 1.363 . S
C911 H914 0.929 . S
C912 C911 1.363 . S
C912 C918 1.428 . S
H913 C909 0.930 . S
H914 C911 0.929 . S
S915 N916 1.613 . S
S915 N917 1.610 . S
N916 S915 1.613 . S
N916 C919 1.350 . S
N917 S915 1.610 . S
N917 C918 1.351 . S
C918 C912 1.428 . S
C918 N917 1.351 . S
C918 C919 1.434 . S
C919 C910 1.429 . S
C919 N916 1.350 . S
C919 C918 1.434 . S
C920 C921 1.369 . S
C920 C922 1.419 . S
C920 H924 0.930 . S
C921 C920 1.369 . S
C921 C930 1.429 . S
C922 C920 1.419 . S
C922 C923 1.363 . S
C922 H925 0.929 1_455 S
C923 C922 1.363 . S
C923 C929 1.428 . S
H924 C920 0.930 . S
H925 C922 0.929 1_655 S
S926 N927 1.613 . S
S926 N928 1.610 . S
N927 S926 1.613 . S
N927 C930 1.350 . S
N928 S926 1.610 . S
N928 C929 1.351 . S
C929 C923 1.428 . S
C929 N928 1.351 . S
C929 C930 1.434 . S
C930 C921 1.429 . S
C930 N927 1.350 . S
C930 C929 1.434 . S
C931 C932 1.369 . S
C931 C933 1.419 . S
C931 H935 0.930 . S
C932 C931 1.369 . S
C932 C941 1.429 . S
C933 C931 1.419 . S
C933 C934 1.363 . S
C933 H936 0.929 . S
C934 C933 1.363 . S
C934 C940 1.428 . S
H935 C931 0.930 . S
H936 C933 0.929 . S
S937 N938 1.613 . S
S937 N939 1.610 . S
N938 S937 1.613 . S
N938 C941 1.350 . S
N939 S937 1.610 . S
N939 C940 1.351 . S
C940 C934 1.428 . S
C940 N939 1.351 . S
C940 C941 1.434 . S
C941 C932 1.429 . S
C941 N938 1.350 . S
C941 C940 1.434 . S
C942 C943 1.369 . S
C942 C944 1.419 . S
C942 H946 0.930 . S
C943 C942 1.369 . S
C943 C952 1.429 . S
C944 C942 1.419 . S
C944 C945 1.363 . S
C944 H947 0.929 . S
C945 C944 1.363 . S
C945 C951 1.428 . S
H946 C942 0.930 . S
H947 C944 0.929 . S
S948 N949 1.613 . S
S948 N950 1.610 . S
N949 S948 1.613 . S
N949 C952 1.350 . S
N950 S948 1.610 . S
N950 C951 1.351 . S
C951 C945 1.428 . S
C951 N950 1.351 . S
C951 C952 1.434 . S
C952 C943 1.429 . S
C952 N949 1.350 . S
C952 C951 1.434 . S
C953 C954 1.369 . S
C953 C955 1.419 . S
C953 H957 0.930 . S
C954 C953 1.369 . S
C954 C963 1.429 . S
C955 C953 1.419 . S
C955 C956 1.363 . S
C955 H958 0.929 . S
C956 C955 1.363 . S
C956 C962 1.428 . S
H957 C953 0.930 . S
H958 C955 0.929 . S
S959 N960 1.613 . S
S959 N961 1.610 . S
N960 S959 1.613 . S
N960 C963 1.350 . S
N961 S959 1.610 . S
N961 C962 1.351 . S
C962 C956 1.428 . S
C962 N961 1.351 . S
C962 C963 1.434 . S
C963 C954 1.429 . S
C963 N960 1.350 . S
C963 C962 1.434 . S
C964 C965 1.369 . S
C964 C966 1.419 . S
C964 H968 0.930 . S
C965 C964 1.369 . S
C965 C974 1.429 1_455 S
C966 C964 1.419 . S
C966 C967 1.363 . S
C966 H969 0.929 . S
C967 C966 1.363 . S
C967 C973 1.428 1_455 S
H968 C964 0.930 . S
H969 C966 0.929 . S
S970 N971 1.613 . S
S970 N972 1.610 . S
N971 S970 1.613 . S
N971 C974 1.350 . S
N972 S970 1.610 . S
N972 C973 1.351 . S
C973 C967 1.428 1_655 S
C973 N972 1.351 . S
C973 C974 1.434 . S
C974 C965 1.429 1_655 S
C974 N971 1.350 . S
C974 C973 1.434 . S
C975 C976 1.369 . S
C975 C977 1.419 . S
C975 H979 0.930 . S
C976 C975 1.369 . S
C976 C985 1.429 . S
C977 C975 1.419 . S
C977 C978 1.363 . S
C977 H980 0.929 . S
C978 C977 1.363 . S
C978 C984 1.428 . S
H979 C975 0.930 . S
H980 C977 0.929 . S
S981 N982 1.613 . S
S981 N983 1.610 . S
N982 S981 1.613 . S
N982 C985 1.350 . S
N983 S981 1.610 . S
N983 C984 1.351 . S
C984 C978 1.428 . S
C984 N983 1.351 . S
C984 C985 1.434 . S
C985 C976 1.429 . S
C985 N982 1.350 . S
C985 C984 1.434 . S
C986 C987 1.369 . S
C986 C988 1.419 . S
C986 H990 0.930 . S
C987 C986 1.369 . S
C987 C996 1.429 . S
C988 C986 1.419 . S
C988 C989 1.363 . S
C988 H991 0.929 . S
C989 C988 1.363 . S
C989 C995 1.428 . S
H990 C986 0.930 . S
H991 C988 0.929 . S
S992 N993 1.613 1_554 S
S992 N994 1.610 . S
N993 S992 1.613 1_556 S
N993 C996 1.350 . S
N994 S992 1.610 . S
N994 C995 1.351 1_554 S
C995 C989 1.428 . S
C995 N994 1.351 1_556 S
C995 C996 1.434 . S
C996 C987 1.429 . S
C996 N993 1.350 . S
C996 C995 1.434 . S
C997 C998 1.369 . S
C997 C999 1.419 . S
C997 H1001 0.930 . S
C998 C997 1.369 . S
C998 C1007 1.429 . S
C999 C997 1.419 . S
C999 C1000 1.363 . S
C999 H1002 0.929 . S
C1000 C999 1.363 . S
C1000 C1006 1.428 . S
H1001 C997 0.930 . S
H1002 C999 0.929 . S
S1003 N1004 1.613 . S
S1003 N1005 1.610 . S
N1004 S1003 1.613 . S
N1004 C1007 1.350 . S
N1005 S1003 1.610 . S
N1005 C1006 1.351 . S
C1006 C1000 1.428 . S
C1006 N1005 1.351 . S
C1006 C1007 1.434 . S
C1007 C998 1.429 . S
C1007 N1004 1.350 . S
C1007 C1006 1.434 . S
C1008 C1009 1.369 . S
C1008 C1010 1.419 . S
C1008 H1012 0.930 . S
C1009 C1008 1.369 . S
C1009 C1018 1.429 . S
C1010 C1008 1.419 . S
C1010 C1011 1.363 . S
C1010 H1013 0.929 . S
C1011 C1010 1.363 . S
C1011 C1017 1.428 . S
H1012 C1008 0.930 . S
H1013 C1010 0.929 . S
S1014 N1015 1.613 . S
S1014 N1016 1.610 . S
N1015 S1014 1.613 . S
N1015 C1018 1.350 . S
N1016 S1014 1.610 . S
N1016 C1017 1.351 . S
C1017 C1011 1.428 . S
C1017 N1016 1.351 . S
C1017 C1018 1.434 . S
C1018 C1009 1.429 . S
C1018 N1015 1.350 . S
C1018 C1017 1.434 . S
C1019 C1020 1.369 . S
C1019 C1021 1.419 . S
C1019 H1023 0.930 . S
C1020 C1019 1.369 . S
C1020 C1029 1.429 . S
C1021 C1019 1.419 . S
C1021 C1022 1.363 . S
C1021 H1024 0.929 . S
C1022 C1021 1.363 . S
C1022 C1028 1.428 . S
H1023 C1019 0.930 . S
H1024 C1021 0.929 . S
S1025 N1026 1.613 . S
S1025 N1027 1.610 . S
N1026 S1025 1.613 . S
N1026 C1029 1.350 . S
N1027 S1025 1.610 . S
N1027 C1028 1.351 . S
C1028 C1022 1.428 . S
C1028 N1027 1.351 . S
C1028 C1029 1.434 . S
C1029 C1020 1.429 . S
C1029 N1026 1.350 . S
C1029 C1028 1.434 . S
C1030 C1031 1.369 . S
C1030 C1032 1.419 . S
C1030 H1034 0.930 . S
C1031 C1030 1.369 . S
C1031 C1040 1.429 . S
C1032 C1030 1.419 . S
C1032 C1033 1.363 . S
C1032 H1035 0.929 . S
C1033 C1032 1.363 . S
C1033 C1039 1.428 . S
H1034 C1030 0.930 . S
H1035 C1032 0.929 . S
S1036 N1037 1.613 . S
S1036 N1038 1.610 . S
N1037 S1036 1.613 . S
N1037 C1040 1.350 1_565 S
N1038 S1036 1.610 . S
N1038 C1039 1.351 1_565 S
C1039 C1033 1.428 . S
C1039 N1038 1.351 1_545 S
C1039 C1040 1.434 . S
C1040 C1031 1.429 . S
C1040 N1037 1.350 1_545 S
C1040 C1039 1.434 . S
C1041 C1042 1.369 . S
C1041 C1043 1.419 . S
C1041 H1045 0.930 . S
C1042 C1041 1.369 . S
C1042 C1051 1.429 . S
C1043 C1041 1.419 . S
C1043 C1044 1.363 . S
C1043 H1046 0.929 . S
C1044 C1043 1.363 . S
C1044 C1050 1.428 . S
H1045 C1041 0.930 . S
H1046 C1043 0.929 . S
S1047 N1048 1.613 . S
S1047 N1049 1.610 . S
N1048 S1047 1.613 . S
N1048 C1051 1.350 . S
N1049 S1047 1.610 . S
N1049 C1050 1.351 . S
C1050 C1044 1.428 . S
C1050 N1049 1.351 . S
C1050 C1051 1.434 . S
C1051 C1042 1.429 . S
C1051 N1048 1.350 . S
C1051 C1050 1.434 . S
C1052 C1053 1.369 1_565 S
C1052 C1054 1.419 . S
C1052 H1056 0.930 . S
C1053 C1052 1.369 1_545 S
C1053 C1062 1.429 . S
C1054 C1052 1.419 . S
C1054 C1055 1.363 1_565 S
C1054 H1057 0.929 . S
C1055 C1054 1.363 1_545 S
C1055 C1061 1.428 . S
H1056 C1052 0.930 . S
H1057 C1054 0.929 . S
S1058 N1059 1.613 . S
S1058 N1060 1.610 . S
N1059 S1058 1.613 . S
N1059 C1062 1.350 . S
N1060 S1058 1.610 . S
N1060 C1061 1.351 . S
C1061 C1055 1.428 . S
C1061 N1060 1.351 . S
C1061 C1062 1.434 . S
C1062 C1053 1.429 . S
C1062 N1059 1.350 . S
C1062 C1061 1.434 . S
C1063 C1064 1.369 . S
C1063 C1065 1.419 . S
C1063 H1067 0.930 . S
C1064 C1063 1.369 . S
C1064 C1073 1.429 . S
C1065 C1063 1.419 . S
C1065 C1066 1.363 . S
C1065 H1068 0.929 . S
C1066 C1065 1.363 . S
C1066 C1072 1.428 . S
H1067 C1063 0.930 . S
H1068 C1065 0.929 . S
S1069 N1070 1.613 . S
S1069 N1071 1.610 . S
N1070 S1069 1.613 . S
N1070 C1073 1.350 . S
N1071 S1069 1.610 . S
N1071 C1072 1.351 . S
C1072 C1066 1.428 . S
C1072 N1071 1.351 . S
C1072 C1073 1.434 . S
C1073 C1064 1.429 . S
C1073 N1070 1.350 . S
C1073 C1072 1.434 . S
C1074 C1075 1.377 . S
C1074 C1076 1.415 1_545 S
C1074 H1078 0.926 1_545 S
C1075 C1074 1.377 . S
C1075 C1084 1.429 . S
C1076 C1074 1.415 1_565 S
C1076 C1077 1.369 . S
C1076 H1079 0.929 . S
C1077 C1076 1.369 . S
C1077 C1083 1.417 1_565 S
H1078 C1074 0.926 1_565 S
H1079 C1076 0.929 . S
S1080 N1081 1.613 . S
S1080 N1082 1.610 . S
N1081 S1080 1.613 . S
N1081 C1084 1.350 . S
N1082 S1080 1.610 . S
N1082 C1083 1.351 . S
C1083 C1077 1.417 1_545 S
C1083 N1082 1.351 . S
C1083 C1084 1.434 . S
C1084 C1075 1.429 . S
C1084 N1081 1.350 . S
C1084 C1083 1.434 . S
C1085 C1086 1.369 . S
C1085 C1087 1.419 . S
C1085 H1089 0.930 . S
C1086 C1085 1.369 . S
C1086 C1095 1.429 . S
C1087 C1085 1.419 . S
C1087 C1088 1.363 . S
C1087 H1090 0.929 . S
C1088 C1087 1.363 . S
C1088 C1094 1.428 . S
H1089 C1085 0.930 . S
H1090 C1087 0.929 . S
S1091 N1092 1.613 . S
S1091 N1093 1.610 . S
N1092 S1091 1.613 . S
N1092 C1095 1.350 . S
N1093 S1091 1.610 . S
N1093 C1094 1.351 . S
C1094 C1088 1.428 . S
C1094 N1093 1.351 . S
C1094 C1095 1.434 . S
C1095 C1086 1.429 . S
C1095 N1092 1.350 . S
C1095 C1094 1.434 . S
C1096 C1097 1.369 . S
C1096 C1098 1.419 1_554 S
C1096 H1100 0.930 1_554 S
C1097 C1096 1.369 . S
C1097 C1106 1.429 . S
C1098 C1096 1.419 1_556 S
C1098 C1099 1.363 1_556 S
C1098 H1101 0.929 . S
C1099 C1098 1.363 1_554 S
C1099 C1105 1.428 . S
H1100 C1096 0.930 1_556 S
H1101 C1098 0.929 . S
S1102 N1103 1.613 . S
S1102 N1104 1.610 . S
N1103 S1102 1.613 . S
N1103 C1106 1.350 . S
N1104 S1102 1.610 . S
N1104 C1105 1.351 . S
C1105 C1099 1.428 . S
C1105 N1104 1.351 . S
C1105 C1106 1.434 . S
C1106 C1097 1.429 . S
C1106 N1103 1.350 . S
C1106 C1105 1.434 . S
C1107 C1108 1.369 . S
C1107 C1109 1.419 . S
C1107 H1111 0.930 . S
C1108 C1107 1.369 . S
C1108 C1117 1.429 . S
C1109 C1107 1.419 . S
C1109 C1110 1.363 . S
C1109 H1112 0.929 . S
C1110 C1109 1.363 . S
C1110 C1116 1.428 . S
H1111 C1107 0.930 . S
H1112 C1109 0.929 . S
S1113 N1114 1.613 1_556 S
S1113 N1115 1.614 . S
N1114 S1113 1.613 1_554 S
N1114 C1117 1.350 . S
N1115 S1113 1.614 . S
N1115 C1116 1.338 1_556 S
C1116 C1110 1.428 . S
C1116 N1115 1.338 1_554 S
C1116 C1117 1.434 . S
C1117 C1108 1.429 . S
C1117 N1114 1.350 . S
C1117 C1116 1.434 . S
C1118 C1119 1.369 . S
C1118 C1120 1.419 . S
C1118 H1122 0.930 . S
C1119 C1118 1.369 . S
C1119 C1128 1.429 . S
C1120 C1118 1.419 . S
C1120 C1121 1.363 . S
C1120 H1123 0.929 . S
C1121 C1120 1.363 . S
C1121 C1127 1.428 . S
H1122 C1118 0.930 . S
H1123 C1120 0.929 . S
S1124 N1125 1.613 . S
S1124 N1126 1.610 . S
N1125 S1124 1.613 . S
N1125 C1128 1.350 . S
N1126 S1124 1.610 . S
N1126 C1127 1.351 . S
C1127 C1121 1.428 . S
C1127 N1126 1.351 . S
C1127 C1128 1.434 . S
C1128 C1119 1.429 . S
C1128 N1125 1.350 . S
C1128 C1127 1.434 . S
C1129 C1130 1.369 . S
C1129 C1131 1.419 . S
C1129 H1133 0.930 . S
C1130 C1129 1.369 . S
C1130 C1139 1.429 . S
C1131 C1129 1.419 . S
C1131 C1132 1.363 . S
C1131 H1134 0.929 . S
C1132 C1131 1.363 . S
C1132 C1138 1.428 . S
H1133 C1129 0.930 . S
H1134 C1131 0.929 . S
S1135 N1136 1.613 . S
S1135 N1137 1.610 . S
N1136 S1135 1.613 . S
N1136 C1139 1.350 . S
N1137 S1135 1.610 . S
N1137 C1138 1.351 . S
C1138 C1132 1.428 . S
C1138 N1137 1.351 . S
C1138 C1139 1.434 . S
C1139 C1130 1.429 . S
C1139 N1136 1.350 . S
C1139 C1138 1.434 . S
C1140 C1141 1.369 . S
C1140 C1142 1.419 . S
C1140 H1144 0.930 . S
C1141 C1140 1.369 . S
C1141 C1150 1.429 . S
C1142 C1140 1.419 . S
C1142 C1143 1.363 . S
C1142 H1145 0.929 . S
C1143 C1142 1.363 . S
C1143 C1149 1.428 . S
H1144 C1140 0.930 . S
H1145 C1142 0.929 . S
S1146 N1147 1.613 . S
S1146 N1148 1.610 . S
N1147 S1146 1.613 . S
N1147 C1150 1.350 . S
N1148 S1146 1.610 . S
N1148 C1149 1.351 . S
C1149 C1143 1.428 . S
C1149 N1148 1.351 . S
C1149 C1150 1.434 . S
C1150 C1141 1.429 . S
C1150 N1147 1.350 . S
C1150 C1149 1.434 . S
C1151 C1152 1.369 . S
C1151 C1153 1.419 . S
C1151 H1155 0.930 . S
C1152 C1151 1.369 . S
C1152 C1161 1.429 . S
C1153 C1151 1.419 . S
C1153 C1154 1.363 . S
C1153 H1156 0.929 . S
C1154 C1153 1.363 . S
C1154 C1160 1.428 . S
H1155 C1151 0.930 . S
H1156 C1153 0.929 . S
S1157 N1158 1.613 . S
S1157 N1159 1.610 . S
N1158 S1157 1.613 . S
N1158 C1161 1.350 . S
N1159 S1157 1.610 . S
N1159 C1160 1.351 . S
C1160 C1154 1.428 . S
C1160 N1159 1.351 . S
C1160 C1161 1.434 . S
C1161 C1152 1.429 . S
C1161 N1158 1.350 . S
C1161 C1160 1.434 . S
C1162 C1163 1.369 . S
C1162 C1164 1.419 . S
C1162 H1166 0.930 . S
C1163 C1162 1.369 . S
C1163 C1172 1.429 . S
C1164 C1162 1.419 . S
C1164 C1165 1.363 . S
C1164 H1167 0.929 . S
C1165 C1164 1.363 . S
C1165 C1171 1.428 . S
H1166 C1162 0.930 . S
H1167 C1164 0.929 . S
S1168 N1169 1.613 . S
S1168 N1170 1.610 . S
N1169 S1168 1.613 . S
N1169 C1172 1.350 . S
N1170 S1168 1.610 . S
N1170 C1171 1.351 . S
C1171 C1165 1.428 . S
C1171 N1170 1.351 . S
C1171 C1172 1.434 . S
C1172 C1163 1.429 . S
C1172 N1169 1.350 . S
C1172 C1171 1.434 . S
C1173 C1174 1.369 . S
C1173 C1175 1.419 . S
C1173 H1177 0.930 . S
C1174 C1173 1.369 . S
C1174 C1183 1.429 . S
C1175 C1173 1.419 . S
C1175 C1176 1.363 . S
C1175 H1178 0.929 . S
C1176 C1175 1.363 . S
C1176 C1182 1.428 . S
H1177 C1173 0.930 . S
H1178 C1175 0.929 . S
S1179 N1180 1.613 . S
S1179 N1181 1.610 . S
N1180 S1179 1.613 . S
N1180 C1183 1.350 . S
N1181 S1179 1.610 . S
N1181 C1182 1.351 . S
C1182 C1176 1.428 . S
C1182 N1181 1.351 . S
C1182 C1183 1.434 . S
C1183 C1174 1.429 . S
C1183 N1180 1.350 . S
C1183 C1182 1.434 . S
C1184 C1185 1.369 . S
C1184 C1186 1.419 . S
C1184 H1188 0.930 . S
C1185 C1184 1.369 . S
C1185 C1194 1.429 . S
C1186 C1184 1.419 . S
C1186 C1187 1.363 . S
C1186 H1189 0.929 . S
C1187 C1186 1.363 . S
C1187 C1193 1.428 . S
H1188 C1184 0.930 . S
H1189 C1186 0.929 . S
S1190 N1191 1.613 . S
S1190 N1192 1.610 . S
N1191 S1190 1.613 . S
N1191 C1194 1.350 . S
N1192 S1190 1.610 . S
N1192 C1193 1.351 . S
C1193 C1187 1.428 . S
C1193 N1192 1.351 . S
C1193 C1194 1.434 . S
C1194 C1185 1.429 . S
C1194 N1191 1.350 . S
C1194 C1193 1.434 . S
C1195 C1196 1.369 . S
C1195 C1197 1.419 . S
C1195 H1199 0.930 . S
C1196 C1195 1.369 . S
C1196 C1205 1.429 . S
C1197 C1195 1.419 . S
C1197 C1198 1.363 . S
C1197 H1200 0.929 . S
C1198 C1197 1.363 . S
C1198 C1204 1.428 . S
H1199 C1195 0.930 . S
H1200 C1197 0.929 . S
S1201 N1202 1.613 . S
S1201 N1203 1.610 . S
N1202 S1201 1.613 . S
N1202 C1205 1.350 . S
N1203 S1201 1.610 . S
N1203 C1204 1.351 . S
C1204 C1198 1.428 . S
C1204 N1203 1.351 . S
C1204 C1205 1.434 . S
C1205 C1196 1.429 . S
C1205 N1202 1.350 . S
C1205 C1204 1.434 . S
C1206 C1207 1.369 1_655 S
C1206 C1208 1.419 . S
C1206 H1210 0.930 . S
C1207 C1206 1.369 1_455 S
C1207 C1216 1.429 . S
C1208 C1206 1.419 . S
C1208 C1209 1.363 1_655 S
C1208 H1211 0.929 . S
C1209 C1208 1.363 1_455 S
C1209 C1215 1.428 1_556 S
H1210 C1206 0.930 . S
H1211 C1208 0.929 . S
S1212 N1213 1.613 1_554 S
S1212 N1214 1.610 . S
N1213 S1212 1.613 1_556 S
N1213 C1216 1.350 . S
N1214 S1212 1.610 . S
N1214 C1215 1.351 . S
C1215 C1209 1.428 1_554 S
C1215 N1214 1.351 . S
C1215 C1216 1.434 1_554 S
C1216 C1207 1.429 . S
C1216 N1213 1.350 . S
C1216 C1215 1.434 1_556 S
C1217 C1218 1.369 . S
C1217 C1219 1.419 . S
C1217 H1221 0.930 . S
C1218 C1217 1.369 . S
C1218 C1227 1.429 . S
C1219 C1217 1.419 . S
C1219 C1220 1.363 . S
C1219 H1222 0.929 . S
C1220 C1219 1.363 . S
C1220 C1226 1.428 . S
H1221 C1217 0.930 . S
H1222 C1219 0.929 . S
S1223 N1224 1.613 . S
S1223 N1225 1.610 . S
N1224 S1223 1.613 . S
N1224 C1227 1.350 . S
N1225 S1223 1.610 . S
N1225 C1226 1.351 . S
C1226 C1220 1.428 . S
C1226 N1225 1.351 . S
C1226 C1227 1.434 . S
C1227 C1218 1.429 . S
C1227 N1224 1.350 . S
C1227 C1226 1.434 . S
C1228 C1229 1.369 . S
C1228 C1230 1.419 . S
C1228 H1232 0.930 . S
C1229 C1228 1.369 . S
C1229 C1238 1.429 . S
C1230 C1228 1.419 . S
C1230 C1231 1.363 . S
C1230 H1233 0.929 . S
C1231 C1230 1.363 . S
C1231 C1237 1.428 . S
H1232 C1228 0.930 . S
H1233 C1230 0.929 . S
S1234 N1235 1.613 . S
S1234 N1236 1.610 . S
N1235 S1234 1.613 . S
N1235 C1238 1.350 . S
N1236 S1234 1.610 . S
N1236 C1237 1.351 . S
C1237 C1231 1.428 . S
C1237 N1236 1.351 . S
C1237 C1238 1.434 . S
C1238 C1229 1.429 . S
C1238 N1235 1.350 . S
C1238 C1237 1.434 . S
C1239 C1240 1.369 . S
C1239 C1241 1.419 . S
C1239 H1243 0.930 . S
C1240 C1239 1.369 . S
C1240 C1249 1.429 . S
C1241 C1239 1.419 . S
C1241 C1242 1.363 . S
C1241 H1244 0.929 . S
C1242 C1241 1.363 . S
C1242 C1248 1.428 . S
H1243 C1239 0.930 . S
H1244 C1241 0.929 . S
S1245 N1246 1.613 . S
S1245 N1247 1.610 . S
N1246 S1245 1.613 . S
N1246 C1249 1.350 . S
N1247 S1245 1.610 . S
N1247 C1248 1.351 . S
C1248 C1242 1.428 . S
C1248 N1247 1.351 . S
C1248 C1249 1.434 . S
C1249 C1240 1.429 . S
C1249 N1246 1.350 . S
C1249 C1248 1.434 . S
C1250 C1251 1.356 1_655 S
C1250 C1252 1.419 . S
C1250 H1254 0.930 . S
C1251 C1250 1.356 1_455 S
C1251 C1260 1.453 . S
C1252 C1250 1.419 . S
C1252 C1253 1.363 1_655 S
C1252 H1255 0.929 . S
C1253 C1252 1.363 1_455 S
C1253 C1259 1.428 . S
H1254 C1250 0.930 . S
H1255 C1252 0.929 . S
S1256 N1257 1.613 . S
S1256 N1258 1.610 . S
N1257 S1256 1.613 . S
N1257 C1260 1.350 . S
N1258 S1256 1.610 . S
N1258 C1259 1.351 . S
C1259 C1253 1.428 . S
C1259 N1258 1.351 . S
C1259 C1260 1.434 . S
C1260 C1251 1.453 . S
C1260 N1257 1.350 . S
C1260 C1259 1.434 . S
C1261 C1262 1.369 . S
C1261 C1263 1.419 . S
C1261 H1265 0.930 . S
C1262 C1261 1.369 . S
C1262 C1271 1.429 . S
C1263 C1261 1.419 . S
C1263 C1264 1.363 . S
C1263 H1266 0.929 . S
C1264 C1263 1.363 . S
C1264 C1270 1.428 . S
H1265 C1261 0.930 . S
H1266 C1263 0.929 . S
S1267 N1268 1.613 . S
S1267 N1269 1.610 . S
N1268 S1267 1.613 . S
N1268 C1271 1.350 . S
N1269 S1267 1.610 . S
N1269 C1270 1.351 . S
C1270 C1264 1.428 . S
C1270 N1269 1.351 . S
C1270 C1271 1.434 . S
C1271 C1262 1.429 . S
C1271 N1268 1.350 . S
C1271 C1270 1.434 . S
C1272 C1273 1.369 . S
C1272 C1274 1.419 . S
C1272 H1276 0.930 . S
C1273 C1272 1.369 . S
C1273 C1282 1.429 . S
C1274 C1272 1.419 . S
C1274 C1275 1.363 . S
C1274 H1277 0.929 . S
C1275 C1274 1.363 . S
C1275 C1281 1.428 . S
H1276 C1272 0.930 . S
H1277 C1274 0.929 . S
S1278 N1279 1.613 . S
S1278 N1280 1.610 . S
N1279 S1278 1.613 . S
N1279 C1282 1.350 . S
N1280 S1278 1.610 . S
N1280 C1281 1.351 . S
C1281 C1275 1.428 . S
C1281 N1280 1.351 . S
C1281 C1282 1.434 . S
C1282 C1273 1.429 . S
C1282 N1279 1.350 . S
C1282 C1281 1.434 . S
C1283 C1284 1.369 . S
C1283 C1285 1.419 . S
C1283 H1287 0.930 . S
C1284 C1283 1.369 . S
C1284 C1293 1.429 . S
C1285 C1283 1.419 . S
C1285 C1286 1.363 . S
C1285 H1288 0.929 . S
C1286 C1285 1.363 . S
C1286 C1292 1.428 . S
H1287 C1283 0.930 . S
H1288 C1285 0.929 . S
S1289 N1290 1.613 . S
S1289 N1291 1.610 . S
N1290 S1289 1.613 . S
N1290 C1293 1.350 . S
N1291 S1289 1.610 . S
N1291 C1292 1.351 . S
C1292 C1286 1.428 . S
C1292 N1291 1.351 . S
C1292 C1293 1.434 . S
C1293 C1284 1.429 . S
C1293 N1290 1.350 . S
C1293 C1292 1.434 . S
C1294 C1295 1.369 . S
C1294 C1296 1.419 . S
C1294 H1298 0.930 . S
C1295 C1294 1.369 . S
C1295 C1304 1.429 . S
C1296 C1294 1.419 . S
C1296 C1297 1.363 . S
C1296 H1299 0.929 . S
C1297 C1296 1.363 . S
C1297 C1303 1.428 . S
H1298 C1294 0.930 . S
H1299 C1296 0.929 . S
S1300 N1301 1.613 . S
S1300 N1302 1.610 . S
N1301 S1300 1.613 . S
N1301 C1304 1.350 . S
N1302 S1300 1.610 . S
N1302 C1303 1.351 . S
C1303 C1297 1.428 . S
C1303 N1302 1.351 . S
C1303 C1304 1.434 . S
C1304 C1295 1.429 . S
C1304 N1301 1.350 . S
C1304 C1303 1.434 . S
C1305 C1306 1.369 . S
C1305 C1307 1.419 . S
C1305 H1309 0.930 . S
C1306 C1305 1.369 . S
C1306 C1315 1.429 . S
C1307 C1305 1.419 . S
C1307 C1308 1.363 . S
C1307 H1310 0.929 . S
C1308 C1307 1.363 . S
C1308 C1314 1.428 . S
H1309 C1305 0.930 . S
H1310 C1307 0.929 . S
S1311 N1312 1.613 . S
S1311 N1313 1.610 . S
N1312 S1311 1.613 . S
N1312 C1315 1.350 . S
N1313 S1311 1.610 . S
N1313 C1314 1.351 . S
C1314 C1308 1.428 . S
C1314 N1313 1.351 . S
C1314 C1315 1.434 . S
C1315 C1306 1.429 . S
C1315 N1312 1.350 . S
C1315 C1314 1.434 . S
C1316 C1317 1.369 . S
C1316 C1318 1.419 . S
C1316 H1320 0.930 . S
C1317 C1316 1.369 . S
C1317 C1326 1.429 . S
C1318 C1316 1.419 . S
C1318 C1319 1.363 . S
C1318 H1321 0.929 . S
C1319 C1318 1.363 . S
C1319 C1325 1.428 . S
H1320 C1316 0.930 . S
H1321 C1318 0.929 . S
S1322 N1323 1.613 . S
S1322 N1324 1.610 . S
N1323 S1322 1.613 . S
N1323 C1326 1.350 . S
N1324 S1322 1.610 . S
N1324 C1325 1.351 . S
C1325 C1319 1.428 . S
C1325 N1324 1.351 . S
C1325 C1326 1.434 . S
C1326 C1317 1.429 . S
C1326 N1323 1.350 . S
C1326 C1325 1.434 . S
C1327 C1328 1.369 . S
C1327 C1329 1.419 . S
C1327 H1331 0.930 . S
C1328 C1327 1.369 . S
C1328 C1337 1.429 . S
C1329 C1327 1.419 . S
C1329 C1330 1.363 . S
C1329 H1332 0.929 . S
C1330 C1329 1.363 . S
C1330 C1336 1.428 . S
H1331 C1327 0.930 . S
H1332 C1329 0.929 . S
S1333 N1334 1.613 . S
S1333 N1335 1.610 . S
N1334 S1333 1.613 . S
N1334 C1337 1.350 . S
N1335 S1333 1.610 . S
N1335 C1336 1.351 . S
C1336 C1330 1.428 . S
C1336 N1335 1.351 . S
C1336 C1337 1.434 . S
C1337 C1328 1.429 . S
C1337 N1334 1.350 . S
C1337 C1336 1.434 . S
C1338 C1339 1.369 . S
C1338 C1340 1.419 . S
C1338 H1342 0.930 . S
C1339 C1338 1.369 . S
C1339 C1348 1.429 . S
C1340 C1338 1.419 . S
C1340 C1341 1.363 . S
C1340 H1343 0.929 . S
C1341 C1340 1.363 . S
C1341 C1347 1.428 . S
H1342 C1338 0.930 . S
H1343 C1340 0.929 . S
S1344 N1345 1.613 . S
S1344 N1346 1.610 . S
N1345 S1344 1.613 . S
N1345 C1348 1.350 . S
N1346 S1344 1.610 . S
N1346 C1347 1.351 . S
C1347 C1341 1.428 . S
C1347 N1346 1.351 . S
C1347 C1348 1.434 . S
C1348 C1339 1.429 . S
C1348 N1345 1.350 . S
C1348 C1347 1.434 . S
C1349 C1350 1.369 . S
C1349 C1351 1.419 . S
C1349 H1353 0.930 . S
C1350 C1349 1.369 . S
C1350 C1359 1.429 . S
C1351 C1349 1.419 . S
C1351 C1352 1.363 . S
C1351 H1354 0.929 . S
C1352 C1351 1.363 . S
C1352 C1358 1.428 . S
H1353 C1349 0.930 . S
H1354 C1351 0.929 . S
S1355 N1356 1.613 . S
S1355 N1357 1.610 . S
N1356 S1355 1.613 . S
N1356 C1359 1.350 . S
N1357 S1355 1.610 . S
N1357 C1358 1.351 . S
C1358 C1352 1.428 . S
C1358 N1357 1.351 . S
C1358 C1359 1.434 . S
C1359 C1350 1.429 . S
C1359 N1356 1.350 . S
C1359 C1358 1.434 . S
C1360 C1361 1.369 . S
C1360 C1362 1.419 . S
C1360 H1364 0.930 . S
C1361 C1360 1.369 . S
C1361 C1370 1.429 . S
C1362 C1360 1.419 . S
C1362 C1363 1.363 . S
C1362 H1365 0.929 . S
C1363 C1362 1.363 . S
C1363 C1369 1.428 . S
H1364 C1360 0.930 . S
H1365 C1362 0.929 . S
S1366 N1367 1.613 . S
S1366 N1368 1.610 . S
N1367 S1366 1.613 . S
N1367 C1370 1.350 . S
N1368 S1366 1.610 . S
N1368 C1369 1.351 . S
C1369 C1363 1.428 . S
C1369 N1368 1.351 . S
C1369 C1370 1.434 . S
C1370 C1361 1.429 . S
C1370 N1367 1.350 . S
C1370 C1369 1.434 . S
C1371 C1372 1.369 . S
C1371 C1373 1.419 . S
C1371 H1375 0.930 . S
C1372 C1371 1.369 . S
C1372 C1381 1.429 . S
C1373 C1371 1.419 . S
C1373 C1374 1.363 . S
C1373 H1376 0.929 . S
C1374 C1373 1.363 . S
C1374 C1380 1.428 . S
H1375 C1371 0.930 . S
H1376 C1373 0.929 . S
S1377 N1378 1.613 . S
S1377 N1379 1.610 . S
N1378 S1377 1.613 . S
N1378 C1381 1.350 . S
N1379 S1377 1.610 . S
N1379 C1380 1.351 . S
C1380 C1374 1.428 . S
C1380 N1379 1.351 . S
C1380 C1381 1.434 . S
C1381 C1372 1.429 . S
C1381 N1378 1.350 . S
C1381 C1380 1.434 . S
C1382 C1383 1.369 . S
C1382 C1384 1.419 . S
C1382 H1386 0.930 . S
C1383 C1382 1.369 . S
C1383 C1392 1.429 . S
C1384 C1382 1.419 . S
C1384 C1385 1.363 . S
C1384 H1387 0.929 . S
C1385 C1384 1.363 . S
C1385 C1391 1.428 . S
H1386 C1382 0.930 . S
H1387 C1384 0.929 . S
S1388 N1389 1.613 . S
S1388 N1390 1.610 . S
N1389 S1388 1.613 . S
N1389 C1392 1.350 . S
N1390 S1388 1.610 . S
N1390 C1391 1.351 . S
C1391 C1385 1.428 . S
C1391 N1390 1.351 . S
C1391 C1392 1.434 . S
C1392 C1383 1.429 . S
C1392 N1389 1.350 . S
C1392 C1391 1.434 . S
C1393 C1394 1.369 . S
C1393 C1395 1.419 . S
C1393 H1397 0.930 . S
C1394 C1393 1.369 . S
C1394 C1403 1.429 . S
C1395 C1393 1.419 . S
C1395 C1396 1.363 . S
C1395 H1398 0.929 . S
C1396 C1395 1.363 . S
C1396 C1402 1.428 . S
H1397 C1393 0.930 . S
H1398 C1395 0.929 . S
S1399 N1400 1.613 . S
S1399 N1401 1.610 1_556 S
N1400 S1399 1.613 . S
N1400 C1403 1.350 1_556 S
N1401 S1399 1.610 1_554 S
N1401 C1402 1.351 . S
C1402 C1396 1.428 . S
C1402 N1401 1.351 . S
C1402 C1403 1.434 . S
C1403 C1394 1.429 . S
C1403 N1400 1.350 1_554 S
C1403 C1402 1.434 . S
C1404 C1405 1.369 . S
C1404 C1406 1.419 . S
C1404 H1408 0.930 . S
C1405 C1404 1.369 . S
C1405 C1414 1.429 . S
C1406 C1404 1.419 . S
C1406 C1407 1.363 . S
C1406 H1409 0.929 . S
C1407 C1406 1.363 . S
C1407 C1413 1.428 . S
H1408 C1404 0.930 . S
H1409 C1406 0.929 . S
S1410 N1411 1.613 . S
S1410 N1412 1.610 . S
N1411 S1410 1.613 . S
N1411 C1414 1.350 . S
N1412 S1410 1.610 . S
N1412 C1413 1.351 . S
C1413 C1407 1.428 . S
C1413 N1412 1.351 . S
C1413 C1414 1.434 . S
C1414 C1405 1.429 . S
C1414 N1411 1.350 . S
C1414 C1413 1.434 . S
C1415 C1416 1.369 . S
C1415 C1417 1.419 . S
C1415 H1419 0.930 . S
C1416 C1415 1.369 . S
C1416 C1425 1.429 . S
C1417 C1415 1.419 . S
C1417 C1418 1.363 . S
C1417 H1420 0.929 . S
C1418 C1417 1.363 . S
C1418 C1424 1.428 . S
H1419 C1415 0.930 . S
H1420 C1417 0.929 . S
S1421 N1422 1.613 . S
S1421 N1423 1.610 . S
N1422 S1421 1.613 . S
N1422 C1425 1.350 . S
N1423 S1421 1.610 . S
N1423 C1424 1.351 . S
C1424 C1418 1.428 . S
C1424 N1423 1.351 . S
C1424 C1425 1.434 . S
C1425 C1416 1.429 . S
C1425 N1422 1.350 . S
C1425 C1424 1.434 . S
C1426 C1427 1.369 . S
C1426 C1428 1.419 . S
C1426 H1430 0.930 . S
C1427 C1426 1.369 . S
C1427 C1436 1.429 . S
C1428 C1426 1.419 . S
C1428 C1429 1.363 . S
C1428 H1431 0.929 . S
C1429 C1428 1.363 . S
C1429 C1435 1.428 . S
H1430 C1426 0.930 . S
H1431 C1428 0.929 . S
S1432 N1433 1.613 . S
S1432 N1434 1.610 . S
N1433 S1432 1.613 . S
N1433 C1436 1.350 . S
N1434 S1432 1.610 . S
N1434 C1435 1.351 . S
C1435 C1429 1.428 . S
C1435 N1434 1.351 . S
C1435 C1436 1.434 . S
C1436 C1427 1.429 . S
C1436 N1433 1.350 . S
C1436 C1435 1.434 . S
C1437 C1438 1.369 . S
C1437 C1439 1.419 . S
C1437 H1441 0.930 . S
C1438 C1437 1.369 . S
C1438 C1447 1.429 . S
C1439 C1437 1.419 . S
C1439 C1440 1.363 . S
C1439 H1442 0.929 . S
C1440 C1439 1.363 . S
C1440 C1446 1.428 . S
H1441 C1437 0.930 . S
H1442 C1439 0.929 . S
S1443 N1444 1.613 . S
S1443 N1445 1.610 . S
N1444 S1443 1.613 . S
N1444 C1447 1.350 . S
N1445 S1443 1.610 . S
N1445 C1446 1.351 . S
C1446 C1440 1.428 . S
C1446 N1445 1.351 . S
C1446 C1447 1.434 . S
C1447 C1438 1.429 . S
C1447 N1444 1.350 . S
C1447 C1446 1.434 . S
C1448 C1449 1.369 . S
C1448 C1450 1.419 . S
C1448 H1452 0.930 . S
C1449 C1448 1.369 . S
C1449 C1458 1.429 . S
C1450 C1448 1.419 . S
C1450 C1451 1.363 . S
C1450 H1453 0.929 . S
C1451 C1450 1.363 . S
C1451 C1457 1.428 . S
H1452 C1448 0.930 . S
H1453 C1450 0.929 . S
S1454 N1455 1.613 . S
S1454 N1456 1.610 . S
N1455 S1454 1.613 . S
N1455 C1458 1.350 . S
N1456 S1454 1.610 . S
N1456 C1457 1.351 . S
C1457 C1451 1.428 . S
C1457 N1456 1.351 . S
C1457 C1458 1.434 . S
C1458 C1449 1.429 . S
C1458 N1455 1.350 . S
C1458 C1457 1.434 . S
C1459 C1460 1.369 . S
C1459 C1461 1.419 . S
C1459 H1463 0.930 . S
C1460 C1459 1.369 . S
C1460 C1469 1.429 . S
C1461 C1459 1.419 . S
C1461 C1462 1.363 . S
C1461 H1464 0.929 . S
C1462 C1461 1.363 . S
C1462 C1468 1.428 . S
H1463 C1459 0.930 . S
H1464 C1461 0.929 . S
S1465 N1466 1.613 . S
S1465 N1467 1.610 . S
N1466 S1465 1.613 . S
N1466 C1469 1.350 . S
N1467 S1465 1.610 . S
N1467 C1468 1.351 . S
C1468 C1462 1.428 . S
C1468 N1467 1.351 . S
C1468 C1469 1.434 . S
C1469 C1460 1.429 . S
C1469 N1466 1.350 . S
C1469 C1468 1.434 . S
C1470 C1471 1.369 . S
C1470 C1472 1.419 . S
C1470 H1474 0.930 1_455 S
C1471 C1470 1.369 . S
C1471 C1480 1.429 . S
C1472 C1470 1.419 . S
C1472 C1473 1.363 . S
C1472 H1475 0.929 1_455 S
C1473 C1472 1.363 . S
C1473 C1479 1.428 . S
H1474 C1470 0.930 1_655 S
H1475 C1472 0.929 1_655 S
S1476 N1477 1.613 . S
S1476 N1478 1.610 . S
N1477 S1476 1.613 . S
N1477 C1480 1.350 . S
N1478 S1476 1.610 . S
N1478 C1479 1.351 . S
C1479 C1473 1.428 . S
C1479 N1478 1.351 . S
C1479 C1480 1.434 . S
C1480 C1471 1.429 . S
C1480 N1477 1.350 . S
C1480 C1479 1.434 . S
C1481 C1482 1.369 . S
C1481 C1483 1.419 . S
C1481 H1485 0.930 . S
C1482 C1481 1.369 . S
C1482 C1491 1.429 . S
C1483 C1481 1.419 . S
C1483 C1484 1.363 . S
C1483 H1486 0.929 . S
C1484 C1483 1.363 . S
C1484 C1490 1.428 . S
H1485 C1481 0.930 . S
H1486 C1483 0.929 . S
S1487 N1488 1.613 . S
S1487 N1489 1.610 . S
N1488 S1487 1.613 . S
N1488 C1491 1.350 . S
N1489 S1487 1.610 . S
N1489 C1490 1.351 . S
C1490 C1484 1.428 . S
C1490 N1489 1.351 . S
C1490 C1491 1.434 . S
C1491 C1482 1.429 . S
C1491 N1488 1.350 . S
C1491 C1490 1.434 . S
C1492 C1493 1.369 . S
C1492 C1494 1.419 . S
C1492 H1496 0.930 . S
C1493 C1492 1.369 . S
C1493 C1502 1.429 . S
C1494 C1492 1.419 . S
C1494 C1495 1.363 . S
C1494 H1497 0.929 . S
C1495 C1494 1.363 . S
C1495 C1501 1.428 . S
H1496 C1492 0.930 . S
H1497 C1494 0.929 . S
S1498 N1499 1.613 1_554 S
S1498 N1500 1.610 . S
N1499 S1498 1.613 1_556 S
N1499 C1502 1.350 . S
N1500 S1498 1.610 . S
N1500 C1501 1.351 1_554 S
C1501 C1495 1.428 . S
C1501 N1500 1.351 1_556 S
C1501 C1502 1.434 . S
C1502 C1493 1.429 . S
C1502 N1499 1.350 . S
C1502 C1501 1.434 . S
C1503 C1504 1.369 . S
C1503 C1505 1.419 . S
C1503 H1507 0.930 . S
C1504 C1503 1.369 . S
C1504 C1513 1.429 . S
C1505 C1503 1.419 . S
C1505 C1506 1.363 . S
C1505 H1508 0.929 . S
C1506 C1505 1.363 . S
C1506 C1512 1.428 . S
H1507 C1503 0.930 . S
H1508 C1505 0.929 . S
S1509 N1510 1.613 . S
S1509 N1511 1.610 . S
N1510 S1509 1.613 . S
N1510 C1513 1.350 . S
N1511 S1509 1.610 . S
N1511 C1512 1.351 . S
C1512 C1506 1.428 . S
C1512 N1511 1.351 . S
C1512 C1513 1.434 . S
C1513 C1504 1.429 . S
C1513 N1510 1.350 . S
C1513 C1512 1.434 . S
C1514 C1515 1.369 . S
C1514 C1516 1.419 . S
C1514 H1518 0.930 . S
C1515 C1514 1.369 . S
C1515 C1524 1.429 . S
C1516 C1514 1.419 . S
C1516 C1517 1.363 . S
C1516 H1519 0.929 . S
C1517 C1516 1.363 . S
C1517 C1523 1.444 . S
H1518 C1514 0.930 . S
H1519 C1516 0.929 . S
S1520 N1521 1.613 . S
S1520 N1522 1.610 . S
N1521 S1520 1.613 . S
N1521 C1524 1.350 1_655 S
N1522 S1520 1.610 . S
N1522 C1523 1.326 1_655 S
C1523 C1517 1.444 . S
C1523 N1522 1.326 1_455 S
C1523 C1524 1.444 . S
C1524 C1515 1.429 . S
C1524 N1521 1.350 1_455 S
C1524 C1523 1.444 . S
C1525 C1526 1.369 . S
C1525 C1527 1.419 . S
C1525 H1529 0.930 . S
C1526 C1525 1.369 . S
C1526 C1535 1.429 . S
C1527 C1525 1.419 . S
C1527 C1528 1.363 . S
C1527 H1530 0.929 . S
C1528 C1527 1.363 . S
C1528 C1534 1.428 . S
H1529 C1525 0.930 . S
H1530 C1527 0.929 . S
S1531 N1532 1.613 . S
S1531 N1533 1.610 . S
N1532 S1531 1.613 . S
N1532 C1535 1.350 . S
N1533 S1531 1.610 . S
N1533 C1534 1.351 . S
C1534 C1528 1.428 . S
C1534 N1533 1.351 . S
C1534 C1535 1.434 . S
C1535 C1526 1.429 . S
C1535 N1532 1.350 . S
C1535 C1534 1.434 . S
C1536 C1537 1.369 . S
C1536 C1538 1.419 . S
C1536 H1540 0.930 . S
C1537 C1536 1.369 . S
C1537 C1546 1.429 . S
C1538 C1536 1.419 . S
C1538 C1539 1.363 . S
C1538 H1541 0.929 . S
C1539 C1538 1.363 . S
C1539 C1545 1.428 . S
H1540 C1536 0.930 . S
H1541 C1538 0.929 . S
S1542 N1543 1.613 . S
S1542 N1544 1.610 . S
N1543 S1542 1.613 . S
N1543 C1546 1.350 . S
N1544 S1542 1.610 . S
N1544 C1545 1.351 . S
C1545 C1539 1.428 . S
C1545 N1544 1.351 . S
C1545 C1546 1.434 . S
C1546 C1537 1.429 . S
C1546 N1543 1.350 . S
C1546 C1545 1.434 . S
C1547 C1548 1.369 . S
C1547 C1549 1.419 . S
C1547 H1551 0.930 . S
C1548 C1547 1.369 . S
C1548 C1557 1.429 . S
C1549 C1547 1.419 . S
C1549 C1550 1.363 . S
C1549 H1552 0.929 . S
C1550 C1549 1.363 . S
C1550 C1556 1.428 . S
H1551 C1547 0.930 . S
H1552 C1549 0.929 . S
S1553 N1554 1.613 . S
S1553 N1555 1.610 . S
N1554 S1553 1.613 . S
N1554 C1557 1.350 . S
N1555 S1553 1.610 . S
N1555 C1556 1.351 . S
C1556 C1550 1.428 . S
C1556 N1555 1.351 . S
C1556 C1557 1.434 . S
C1557 C1548 1.429 . S
C1557 N1554 1.350 . S
C1557 C1556 1.434 . S
C1558 C1559 1.369 . S
C1558 C1560 1.419 . S
C1558 H1562 0.930 . S
C1559 C1558 1.369 . S
C1559 C1568 1.429 . S
C1560 C1558 1.419 . S
C1560 C1561 1.363 . S
C1560 H1563 0.929 . S
C1561 C1560 1.363 . S
C1561 C1567 1.428 1_655 S
H1562 C1558 0.930 . S
H1563 C1560 0.929 . S
S1564 N1565 1.613 . S
S1564 N1566 1.610 . S
N1565 S1564 1.613 . S
N1565 C1568 1.350 1_455 S
N1566 S1564 1.610 . S
N1566 C1567 1.351 . S
C1567 C1561 1.428 1_455 S
C1567 N1566 1.351 . S
C1567 C1568 1.434 1_455 S
C1568 C1559 1.429 . S
C1568 N1565 1.350 1_655 S
C1568 C1567 1.434 1_655 S
C1569 C1570 1.369 . S
C1569 C1571 1.419 . S
C1569 H1573 0.930 . S
C1570 C1569 1.369 . S
C1570 C1579 1.429 . S
C1571 C1569 1.419 . S
C1571 C1572 1.363 . S
C1571 H1574 0.929 . S
C1572 C1571 1.363 . S
C1572 C1578 1.428 . S
H1573 C1569 0.930 . S
H1574 C1571 0.929 . S
S1575 N1576 1.613 . S
S1575 N1577 1.610 . S
N1576 S1575 1.613 . S
N1576 C1579 1.350 . S
N1577 S1575 1.610 . S
N1577 C1578 1.351 . S
C1578 C1572 1.428 . S
C1578 N1577 1.351 . S
C1578 C1579 1.434 . S
C1579 C1570 1.429 . S
C1579 N1576 1.350 . S
C1579 C1578 1.434 . S
C1580 C1581 1.369 . S
C1580 C1582 1.419 . S
C1580 H1584 0.930 . S
C1581 C1580 1.369 . S
C1581 C1590 1.429 . S
C1582 C1580 1.419 . S
C1582 C1583 1.363 . S
C1582 H1585 0.929 . S
C1583 C1582 1.363 . S
C1583 C1589 1.428 . S
H1584 C1580 0.930 . S
H1585 C1582 0.929 . S
S1586 N1587 1.613 . S
S1586 N1588 1.610 . S
N1587 S1586 1.613 . S
N1587 C1590 1.350 . S
N1588 S1586 1.610 . S
N1588 C1589 1.351 . S
C1589 C1583 1.428 . S
C1589 N1588 1.351 . S
C1589 C1590 1.434 . S
C1590 C1581 1.429 . S
C1590 N1587 1.350 . S
C1590 C1589 1.434 . S
C1591 C1592 1.369 . S
C1591 C1593 1.419 . S
C1591 H1595 0.930 . S
C1592 C1591 1.369 . S
C1592 C1601 1.429 . S
C1593 C1591 1.419 . S
C1593 C1594 1.363 . S
C1593 H1596 0.929 . S
C1594 C1593 1.363 . S
C1594 C1600 1.428 . S
H1595 C1591 0.930 . S
H1596 C1593 0.929 . S
S1597 N1598 1.613 . S
S1597 N1599 1.610 . S
N1598 S1597 1.613 . S
N1598 C1601 1.350 . S
N1599 S1597 1.610 . S
N1599 C1600 1.351 . S
C1600 C1594 1.428 . S
C1600 N1599 1.351 . S
C1600 C1601 1.434 . S
C1601 C1592 1.429 . S
C1601 N1598 1.350 . S
C1601 C1600 1.434 . S
C1602 C1603 1.369 . S
C1602 C1604 1.419 . S
C1602 H1606 0.930 . S
C1603 C1602 1.369 . S
C1603 C1612 1.429 . S
C1604 C1602 1.419 . S
C1604 C1605 1.363 . S
C1604 H1607 0.929 1_655 S
C1605 C1604 1.363 . S
C1605 C1611 1.428 . S
H1606 C1602 0.930 . S
H1607 C1604 0.929 1_455 S
S1608 N1609 1.613 . S
S1608 N1610 1.610 . S
N1609 S1608 1.613 . S
N1609 C1612 1.350 . S
N1610 S1608 1.610 . S
N1610 C1611 1.351 . S
C1611 C1605 1.428 . S
C1611 N1610 1.351 . S
C1611 C1612 1.434 . S
C1612 C1603 1.429 . S
C1612 N1609 1.350 . S
C1612 C1611 1.434 . S
C1613 C1614 1.369 . S
C1613 C1615 1.419 . S
C1613 H1617 0.930 . S
C1614 C1613 1.369 . S
C1614 C1623 1.429 . S
C1615 C1613 1.419 . S
C1615 C1616 1.363 . S
C1615 H1618 0.929 . S
C1616 C1615 1.363 . S
C1616 C1622 1.428 . S
H1617 C1613 0.930 . S
H1618 C1615 0.929 . S
S1619 N1620 1.613 . S
S1619 N1621 1.610 . S
N1620 S1619 1.613 . S
N1620 C1623 1.350 . S
N1621 S1619 1.610 . S
N1621 C1622 1.351 . S
C1622 C1616 1.428 . S
C1622 N1621 1.351 . S
C1622 C1623 1.434 . S
C1623 C1614 1.429 . S
C1623 N1620 1.350 . S
C1623 C1622 1.434 . S
C1624 C1625 1.369 . S
C1624 C1626 1.419 . S
C1624 H1628 0.930 . S
C1625 C1624 1.369 . S
C1625 C1634 1.429 . S
C1626 C1624 1.419 . S
C1626 C1627 1.363 . S
C1626 H1629 0.929 . S
C1627 C1626 1.363 . S
C1627 C1633 1.428 . S
H1628 C1624 0.930 . S
H1629 C1626 0.929 . S
S1630 N1631 1.613 . S
S1630 N1632 1.610 . S
N1631 S1630 1.613 . S
N1631 C1634 1.350 . S
N1632 S1630 1.610 . S
N1632 C1633 1.351 . S
C1633 C1627 1.428 . S
C1633 N1632 1.351 . S
C1633 C1634 1.434 . S
C1634 C1625 1.429 . S
C1634 N1631 1.350 . S
C1634 C1633 1.434 . S
C1635 C1636 1.369 . S
C1635 C1637 1.419 . S
C1635 H1639 0.930 . S
C1636 C1635 1.369 . S
C1636 C1645 1.429 . S
C1637 C1635 1.419 . S
C1637 C1638 1.363 . S
C1637 H1640 0.929 . S
C1638 C1637 1.363 . S
C1638 C1644 1.428 . S
H1639 C1635 0.930 . S
H1640 C1637 0.929 . S
S1641 N1642 1.613 1_545 S
S1641 N1643 1.610 . S
N1642 S1641 1.613 1_565 S
N1642 C1645 1.350 . S
N1643 S1641 1.610 . S
N1643 C1644 1.351 1_545 S
C1644 C1638 1.428 . S
C1644 N1643 1.351 1_565 S
C1644 C1645 1.434 . S
C1645 C1636 1.429 . S
C1645 N1642 1.350 . S
C1645 C1644 1.434 . S
C1646 C1647 1.369 . S
C1646 C1648 1.419 . S
C1646 H1650 0.930 . S
C1647 C1646 1.369 . S
C1647 C1656 1.429 . S
C1648 C1646 1.419 . S
C1648 C1649 1.363 . S
C1648 H1651 0.929 . S
C1649 C1648 1.363 . S
C1649 C1655 1.428 . S
H1650 C1646 0.930 . S
H1651 C1648 0.929 . S
S1652 N1653 1.613 . S
S1652 N1654 1.610 . S
N1653 S1652 1.613 . S
N1653 C1656 1.350 . S
N1654 S1652 1.610 . S
N1654 C1655 1.351 . S
C1655 C1649 1.428 . S
C1655 N1654 1.351 . S
C1655 C1656 1.434 . S
C1656 C1647 1.429 . S
C1656 N1653 1.350 . S
C1656 C1655 1.434 . S
C1657 C1658 1.369 . S
C1657 C1659 1.419 . S
C1657 H1661 0.930 1_554 S
C1658 C1657 1.369 . S
C1658 C1667 1.429 . S
C1659 C1657 1.419 . S
C1659 C1660 1.363 . S
C1659 H1662 0.929 1_554 S
C1660 C1659 1.363 . S
C1660 C1666 1.428 . S
H1661 C1657 0.930 1_556 S
H1662 C1659 0.929 1_556 S
S1663 N1664 1.613 . S
S1663 N1665 1.610 . S
N1664 S1663 1.613 . S
N1664 C1667 1.350 . S
N1665 S1663 1.610 . S
N1665 C1666 1.351 . S
C1666 C1660 1.428 . S
C1666 N1665 1.351 . S
C1666 C1667 1.434 . S
C1667 C1658 1.429 . S
C1667 N1664 1.350 . S
C1667 C1666 1.434 . S
C1668 C1669 1.369 . S
C1668 C1670 1.419 . S
C1668 H1672 0.930 . S
C1669 C1668 1.369 . S
C1669 C1678 1.429 . S
C1670 C1668 1.419 . S
C1670 C1671 1.363 . S
C1670 H1673 0.929 . S
C1671 C1670 1.363 . S
C1671 C1677 1.428 . S
H1672 C1668 0.930 . S
H1673 C1670 0.929 . S
S1674 N1675 1.613 . S
S1674 N1676 1.610 . S
N1675 S1674 1.613 . S
N1675 C1678 1.350 . S
N1676 S1674 1.610 . S
N1676 C1677 1.351 . S
C1677 C1671 1.428 . S
C1677 N1676 1.351 . S
C1677 C1678 1.434 . S
C1678 C1669 1.429 . S
C1678 N1675 1.350 . S
C1678 C1677 1.434 . S
C1679 C1680 1.369 . S
C1679 C1681 1.419 . S
C1679 H1683 0.930 . S
C1680 C1679 1.369 . S
C1680 C1689 1.429 . S
C1681 C1679 1.419 . S
C1681 C1682 1.363 . S
C1681 H1684 0.903 1_554 S
C1682 C1681 1.363 . S
C1682 C1688 1.428 . S
H1683 C1679 0.930 . S
H1684 C1681 0.903 1_556 S
S1685 N1686 1.613 . S
S1685 N1687 1.610 . S
N1686 S1685 1.613 . S
N1686 C1689 1.350 . S
N1687 S1685 1.610 . S
N1687 C1688 1.351 . S
C1688 C1682 1.428 . S
C1688 N1687 1.351 . S
C1688 C1689 1.434 . S
C1689 C1680 1.429 . S
C1689 N1686 1.350 . S
C1689 C1688 1.434 . S
C1690 C1691 1.369 . S
C1690 C1692 1.419 . S
C1690 H1694 0.930 . S
C1691 C1690 1.369 . S
C1691 C1700 1.429 . S
C1692 C1690 1.419 . S
C1692 C1693 1.363 . S
C1692 H1695 0.929 . S
C1693 C1692 1.363 . S
C1693 C1699 1.428 . S
H1694 C1690 0.930 . S
H1695 C1692 0.929 . S
S1696 N1697 1.613 . S
S1696 N1698 1.610 . S
N1697 S1696 1.613 . S
N1697 C1700 1.350 . S
N1698 S1696 1.610 . S
N1698 C1699 1.351 . S
C1699 C1693 1.428 . S
C1699 N1698 1.351 . S
C1699 C1700 1.434 . S
C1700 C1691 1.429 . S
C1700 N1697 1.350 . S
C1700 C1699 1.434 . S
C1701 C1702 1.369 . S
C1701 C1703 1.419 . S
C1701 H1705 0.930 . S
C1702 C1701 1.369 . S
C1702 C1711 1.429 . S
C1703 C1701 1.419 . S
C1703 C1704 1.363 . S
C1703 H1706 0.929 . S
C1704 C1703 1.363 . S
C1704 C1710 1.428 . S
H1705 C1701 0.930 . S
H1706 C1703 0.929 . S
S1707 N1708 1.613 . S
S1707 N1709 1.610 . S
N1708 S1707 1.613 . S
N1708 C1711 1.350 . S
N1709 S1707 1.610 . S
N1709 C1710 1.351 . S
C1710 C1704 1.428 . S
C1710 N1709 1.351 . S
C1710 C1711 1.434 . S
C1711 C1702 1.429 . S
C1711 N1708 1.350 . S
C1711 C1710 1.434 . S
C657 C106 1.964 . S
C659 C340 1.612 1_556 S
C668 C65 1.547 . S
C670 C375 1.508 . S
C679 C79 1.596 . S
C681 C380 1.401 . S
C692 C405 1.213 . S
C690 C90 1.248 . S
C701 C21 1.281 . S
C703 C425 1.232 . S
C714 C440 1.152 . S
C712 C35 1.217 . S
C725 C475 1.564 . S
C723 C50 1.613 . S
C734 C6 1.552 . S
C736 C480 1.344 . S
C747 C355 1.867 1_655 S
C745 C232 2.026 1_545 S
C756 C245 1.117 . S
C758 C365 1.064 . S
C769 C395 1.463 . S
C767 C274 1.523 . S
C780 C400 1.218 . S
C778 C175 1.272 . S
C789 C231 1.157 . S
C791 C420 1.102 . S
C802 C455 1.410 . S
C800 C246 1.468 . S
C813 C465 0.965 . S
C811 C273 0.998 . S
C824 C495 1.817 . S
C822 C176 1.977 . S
C835 C345 1.420 . S
C833 C160 1.565 . S
C844 C289 1.775 1_554 S
C846 C515 1.730 . S
C857 C525 1.482 . S
C855 C328 1.547 . S
C868 C540 1.235 . S
C866 C317 1.360 . S
C877 C118 1.563 . S
C879 C485 1.395 . S
C888 C132 1.548 . S
C890 C385 1.481 . S
C899 C331 1.838 . S
C901 C575 1.805 . S
C912 C580 1.257 . S
C910 C303 1.372 . S
C923 C338 1.248 . S
C921 C63 1.493 . S
C934 C594 1.883 . S
C932 C107 1.870 . S
C943 C92 1.339 . S
C945 C378 1.211 . S
C954 C78 1.707 . S
C956 C568 1.622 . S
C967 C428 1.622 . S
C965 C8 1.707 . S
C976 C51 1.338 . S
C978 C518 1.206 . S
C989 C474 1.884 1_556 S
C987 C37 1.867 . S
C1000 C598 1.257 . S
C998 C20 1.484 . S
C1011 C354 1.621 . S
C1009 C147 1.647 . S
C1022 C588 1.200 . S
C1020 C316 1.314 . S
C1031 C119 1.397 . S
C1033 C394 1.412 . S
C1042 C288 1.407 . S
C1044 C558 1.273 . S
C1053 C148 1.409 . S
C1055 C418 1.282 . S
C1066 C534 1.413 . S
C1064 C315 1.396 . S
C1075 C120 1.315 . S
C1077 C468 1.194 . S
C1086 C287 1.650 . S
C1088 C614 1.630 . S
C1097 C188 1.472 . S
C1099 C348 1.320 . S
C1108 C177 2.005 . S
C1110 C514 2.039 . S
C1119 C258 1.662 . S
C1121 C448 1.552 . S
C1130 C247 1.345 . S
C1132 C538 1.202 . S
C1143 C608 1.317 . S
C1141 C272 1.476 . S
C1152 C216 1.526 . S
C1154 C388 1.432 . S
C1165 C414 2.041 . S
C1163 C261 2.010 . S
C1176 C358 1.200 . S
C1174 C205 1.345 . S
C1185 C76 1.544 . S
C1187 C620 1.355 . S
C1198 C595 1.562 . S
C1196 C93 1.614 . S
C1207 C105 1.216 1_455 S
C1209 C640 1.152 1_556 S
C1218 C62 1.277 . S
C1220 C565 1.238 . S
C1229 C49 1.249 . S
C1231 C505 1.211 . S
C1242 C520 1.405 . S
C1240 C9 1.594 . S
C1253 C555 1.509 . S
C1251 C22 1.539 1_455 S
C1264 C600 1.620 . S
C1262 C36 1.959 . S
C1275 C635 1.817 . S
C1273 C260 1.977 . S
C1284 C189 0.999 . S
C1286 C585 0.965 . S
C1297 C655 1.404 . S
C1295 C204 1.468 . S
C1308 C560 1.109 . S
C1306 C217 1.146 . S
C1319 C500 1.211 . S
C1317 C259 1.283 . S
C1328 C190 1.523 . S
C1330 C535 1.459 . S
C1341 C545 1.066 . S
C1339 C203 1.114 . S
C1350 C218 2.024 . S
C1352 C615 1.871 . S
C1363 C625 1.405 . S
C1361 C314 1.552 . S
C1372 C135 1.837 . S
C1374 C435 1.801 . S
C1385 C445 1.444 . S
C1383 C146 1.508 . S
C1396 C460 1.251 . S
C1394 C163 1.373 . S
C1407 C605 1.413 . S
C1405 C300 1.573 . S
C1416 C286 1.518 . S
C1418 C645 1.433 . S
C1429 C415 1.731 . S
C1427 C149 1.775 . S
C1440 C360 1.225 . S
C1438 C121 1.364 . S
C1449 C91 1.445 . S
C1451 C618 1.232 . S
C1462 C374 1.501 . S
C1460 C77 1.482 . S
C1471 C64 1.298 . S
C1473 C638 1.186 . S
C1482 C104 1.426 . S
C1484 C408 1.352 . S
C1493 C34 1.421 . S
C1495 C508 1.364 . S
C1506 C438 1.174 . S
C1504 C23 1.296 . S
C1515 C7 1.481 . S
C1517 C554 1.496 . S
C1526 C48 1.443 . S
C1528 C478 1.237 . S
C1539 C634 1.596 . S
C1537 C329 1.621 . S
C1548 C162 1.302 . S
C1550 C368 1.205 . S
C1561 C654 1.412 1_655 S
C1559 C301 1.396 . S
C1570 C134 1.404 . S
C1572 C398 1.286 . S
C1581 C330 1.403 . S
C1583 C498 1.280 . S
C1594 C454 1.410 . S
C1592 C161 1.397 . S
C1603 C302 1.302 . S
C1605 C548 1.200 . S
C1616 C494 1.599 . S
C1614 C133 1.620 . S
C1627 C628 1.445 . S
C1625 C244 1.573 . S
C1638 C434 2.032 . S
C1636 C219 1.987 . S
C1647 C230 1.533 . S
C1649 C528 1.425 . S
C1660 C458 1.209 . S
C1658 C191 1.357 . S
C1669 C202 1.577 . S
C1671 C488 1.442 . S
C1680 C174 1.659 . S
C1682 C648 1.554 . S
C1693 C574 2.033 . S
C1691 C233 1.988 . S
C1704 C578 1.204 . S
C1702 C275 1.355 . S
