# Generated by pormake.
# Topology ocu, (6,8)-cn, num edge types: 1
# Building blocks:
#     Node 0, Type 0, BuildingBlock: KUMJIN_clean_sbu_0, # of connection points: 6
#     Node 1, Type 0, BuildingBlock: KUMJIN_clean_sbu_0, # of connection points: 6
#     Node 2, Type 0, BuildingBlock: KUMJIN_clean_sbu_0, # of connection points: 6
#     Node 3, Type 0, BuildingBlock: KUMJIN_clean_sbu_0, # of connection points: 6
#     Node 4, Type 0, BuildingBlock: KUMJIN_clean_sbu_0, # of connection points: 6
#     Node 5, Type 0, BuildingBlock: KUMJIN_clean_sbu_0, # of connection points: 6
#     Node 6, Type 0, BuildingBlock: KUMJIN_clean_sbu_0, # of connection points: 6
#     Node 7, Type 0, BuildingBlock: KUMJIN_clean_sbu_0, # of connection points: 6
#     Node 8, Type 1, BuildingBlock: AJUNOK_clean_sbu_0, # of connection points: 8
#     Node 9, Type 1, BuildingBlock: AJUNOK_clean_sbu_0, # of connection points: 8
#     Node 10, Type 1, BuildingBlock: AJUNOK_clean_sbu_0, # of connection points: 8
#     Node 11, Type 1, BuildingBlock: AJUNOK_clean_sbu_0, # of connection points: 8
#     Node 12, Type 1, BuildingBlock: AJUNOK_clean_sbu_0, # of connection points: 8
#     Node 13, Type 1, BuildingBlock: AJUNOK_clean_sbu_0, # of connection points: 8
#     Edge 14, Type (0, 1), BuildingBlock: UVAHIK_clean_linker_0, # of connection points: 2
#     Edge 15, Type (0, 1), BuildingBlock: UVAHIK_clean_linker_0, # of connection points: 2
#     Edge 16, Type (0, 1), BuildingBlock: UVAHIK_clean_linker_0, # of connection points: 2
#     Edge 17, Type (0, 1), BuildingBlock: UVAHIK_clean_linker_0, # of connection points: 2
#     Edge 18, Type (0, 1), BuildingBlock: UVAHIK_clean_linker_0, # of connection points: 2
#     Edge 19, Type (0, 1), BuildingBlock: UVAHIK_clean_linker_0, # of connection points: 2
#     Edge 20, Type (0, 1), BuildingBlock: UVAHIK_clean_linker_0, # of connection points: 2
#     Edge 21, Type (0, 1), BuildingBlock: UVAHIK_clean_linker_0, # of connection points: 2
#     Edge 22, Type (0, 1), BuildingBlock: UVAHIK_clean_linker_0, # of connection points: 2
#     Edge 23, Type (0, 1), BuildingBlock: UVAHIK_clean_linker_0, # of connection points: 2
#     Edge 24, Type (0, 1), BuildingBlock: UVAHIK_clean_linker_0, # of connection points: 2
#     Edge 25, Type (0, 1), BuildingBlock: UVAHIK_clean_linker_0, # of connection points: 2
#     Edge 26, Type (0, 1), BuildingBlock: UVAHIK_clean_linker_0, # of connection points: 2
#     Edge 27, Type (0, 1), BuildingBlock: UVAHIK_clean_linker_0, # of connection points: 2
#     Edge 28, Type (0, 1), BuildingBlock: UVAHIK_clean_linker_0, # of connection points: 2
#     Edge 29, Type (0, 1), BuildingBlock: UVAHIK_clean_linker_0, # of connection points: 2
#     Edge 30, Type (0, 1), BuildingBlock: UVAHIK_clean_linker_0, # of connection points: 2
#     Edge 31, Type (0, 1), BuildingBlock: UVAHIK_clean_linker_0, # of connection points: 2
#     Edge 32, Type (0, 1), BuildingBlock: UVAHIK_clean_linker_0, # of connection points: 2
#     Edge 33, Type (0, 1), BuildingBlock: UVAHIK_clean_linker_0, # of connection points: 2
#     Edge 34, Type (0, 1), BuildingBlock: UVAHIK_clean_linker_0, # of connection points: 2
#     Edge 35, Type (0, 1), BuildingBlock: UVAHIK_clean_linker_0, # of connection points: 2
#     Edge 36, Type (0, 1), BuildingBlock: UVAHIK_clean_linker_0, # of connection points: 2
#     Edge 37, Type (0, 1), BuildingBlock: UVAHIK_clean_linker_0, # of connection points: 2
#     Edge 38, Type (0, 1), BuildingBlock: UVAHIK_clean_linker_0, # of connection points: 2
#     Edge 39, Type (0, 1), BuildingBlock: UVAHIK_clean_linker_0, # of connection points: 2
#     Edge 40, Type (0, 1), BuildingBlock: UVAHIK_clean_linker_0, # of connection points: 2
#     Edge 41, Type (0, 1), BuildingBlock: UVAHIK_clean_linker_0, # of connection points: 2
#     Edge 42, Type (0, 1), BuildingBlock: UVAHIK_clean_linker_0, # of connection points: 2
#     Edge 43, Type (0, 1), BuildingBlock: UVAHIK_clean_linker_0, # of connection points: 2
#     Edge 44, Type (0, 1), BuildingBlock: UVAHIK_clean_linker_0, # of connection points: 2
#     Edge 45, Type (0, 1), BuildingBlock: UVAHIK_clean_linker_0, # of connection points: 2
#     Edge 46, Type (0, 1), BuildingBlock: UVAHIK_clean_linker_0, # of connection points: 2
#     Edge 47, Type (0, 1), BuildingBlock: UVAHIK_clean_linker_0, # of connection points: 2
#     Edge 48, Type (0, 1), BuildingBlock: UVAHIK_clean_linker_0, # of connection points: 2
#     Edge 49, Type (0, 1), BuildingBlock: UVAHIK_clean_linker_0, # of connection points: 2
#     Edge 50, Type (0, 1), BuildingBlock: UVAHIK_clean_linker_0, # of connection points: 2
#     Edge 51, Type (0, 1), BuildingBlock: UVAHIK_clean_linker_0, # of connection points: 2
#     Edge 52, Type (0, 1), BuildingBlock: UVAHIK_clean_linker_0, # of connection points: 2
#     Edge 53, Type (0, 1), BuildingBlock: UVAHIK_clean_linker_0, # of connection points: 2
#     Edge 54, Type (0, 1), BuildingBlock: UVAHIK_clean_linker_0, # of connection points: 2
#     Edge 55, Type (0, 1), BuildingBlock: UVAHIK_clean_linker_0, # of connection points: 2
#     Edge 56, Type (0, 1), BuildingBlock: UVAHIK_clean_linker_0, # of connection points: 2
#     Edge 57, Type (0, 1), BuildingBlock: UVAHIK_clean_linker_0, # of connection points: 2
#     Edge 58, Type (0, 1), BuildingBlock: UVAHIK_clean_linker_0, # of connection points: 2
#     Edge 59, Type (0, 1), BuildingBlock: UVAHIK_clean_linker_0, # of connection points: 2
#     Edge 60, Type (0, 1), BuildingBlock: UVAHIK_clean_linker_0, # of connection points: 2
#     Edge 61, Type (0, 1), BuildingBlock: UVAHIK_clean_linker_0, # of connection points: 2
# Relax obj value: 0.158
# Max RMSD: 0.259
# Mean RMSD: 0.210
data_MOF--net-ocu--node1-KUMJIN_clean_sbu_0--node2-AJUNOK_clean_sbu_0--edge1-UVAHIK_clean_linker_0
_symmetry_space_group_name_H-M    P1
_symmetry_Int_Tables_number       1
_symmetry_cell_setting            triclinic
loop_
_symmetry_equiv_pos_as_xyz
'x, y, z'
_cell_length_a     54.347118
_cell_length_b     53.696002
_cell_length_c     48.940245
_cell_angle_alpha  87.488304
_cell_angle_beta   103.16361
_cell_angle_gamma 111.26117
loop_
_atom_site_label
_atom_site_type_symbol
_atom_site_fract_x
_atom_site_fract_y
_atom_site_fract_z
_atom_type_partial_charge
Eu0 Eu 0.24925 0.22342 0.20944 0.0
C1 C 0.32323 0.29106 0.31828 0.0
C2 C 0.32383 0.25719 0.35245 0.0
C3 C 0.36243 0.29903 0.35719 0.0
C4 C 0.31087 0.266 0.32769 0.0
C5 C 0.34879 0.3082 0.33336 0.0
C6 C 0.34998 0.27353 0.36669 0.0
C7 C 0.3441 0.34308 0.30201 0.0
N8 N 0.30936 0.29938 0.29541 0.0
C9 C 0.3188 0.3253 0.28778 0.0
C10 C 0.35938 0.33436 0.32463 0.0
Eu11 Eu 0.2672 0.26814 0.27166 0.0
N12 N 0.28539 0.25103 0.31376 0.0
C13 C 0.27085 0.22805 0.32477 0.0
C14 C 0.30969 0.2327 0.36272 0.0
C15 C 0.28291 0.2183 0.34908 0.0
H16 H 0.3071 0.33206 0.27021 0.0
H17 H 0.27155 0.19966 0.35723 0.0
H18 H 0.36037 0.26699 0.38557 0.0
H19 H 0.35181 0.36344 0.29548 0.0
H20 H 0.25016 0.21665 0.31447 0.0
H21 H 0.24567 0.29236 0.12426 0.0
H22 H 0.31895 0.22517 0.3816 0.0
H23 H 0.20915 0.15957 0.2107 0.0
H24 H 0.26668 0.27517 0.16715 0.0
H25 H 0.16478 0.12813 0.18473 0.0
H26 H 0.38222 0.31179 0.36889 0.0
H27 H 0.19844 0.26686 0.09937 0.0
H28 H 0.15701 0.22497 0.09486 0.0
H29 H 0.37894 0.34819 0.33568 0.0
H30 H 0.13502 0.18002 0.11116 0.0
N31 N 0.23138 0.24075 0.16738 0.0
C32 C 0.24606 0.26381 0.1566 0.0
C33 C 0.20752 0.25926 0.1183 0.0
C34 C 0.19328 0.23469 0.12834 0.0
C35 C 0.23421 0.27365 0.13223 0.0
C36 C 0.20601 0.22579 0.15317 0.0
H37 H 0.13805 0.14347 0.14424 0.0
N38 N 0.20721 0.19228 0.18538 0.0
C39 C 0.17256 0.14853 0.17832 0.0
C40 C 0.19356 0.20066 0.1624 0.0
C41 C 0.19767 0.16634 0.19294 0.0
C42 C 0.15749 0.15729 0.15555 0.0
C43 C 0.16814 0.18352 0.14701 0.0
O44 O 0.26081 0.18935 0.20302 0.0
O45 O 0.27299 0.23317 0.25408 0.0
O46 O 0.306 0.27758 0.25709 0.0
O47 O 0.28746 0.25996 0.21095 0.0
O48 O 0.25139 0.19329 0.24304 0.0
O49 O 0.27545 0.22539 0.18086 0.0
O50 O 0.25467 0.30173 0.27727 0.0
O51 O 0.24333 0.25833 0.227 0.0
O52 O 0.21052 0.21413 0.22423 0.0
O53 O 0.22956 0.23113 0.27043 0.0
O54 O 0.26525 0.29817 0.23795 0.0
O55 O 0.24178 0.26651 0.30101 0.0
C56 C 0.26837 0.20973 0.26303 0.0
C57 C 0.27079 0.18481 0.15924 0.0
C58 C 0.28712 0.15937 0.13186 0.0
C59 C 0.2903 0.17397 0.15659 0.0
C60 C 0.2639 0.15548 0.11018 0.0
C61 C 0.24787 0.18056 0.1373 0.0
C62 C 0.24444 0.16591 0.11297 0.0
C63 C 0.30802 0.27401 0.23126 0.0
C64 C 0.2748 0.20098 0.18463 0.0
C65 C 0.15471 0.19277 0.12309 0.0
C66 C 0.16724 0.21836 0.11381 0.0
C67 C 0.24811 0.28178 0.21799 0.0
C68 C 0.24601 0.30749 0.32136 0.0
C69 C 0.22578 0.31694 0.32494 0.0
C70 C 0.22976 0.33275 0.34908 0.0
C71 C 0.2545 0.33922 0.36915 0.0
C72 C 0.27033 0.31417 0.34181 0.0
C73 C 0.27455 0.33002 0.36549 0.0
C74 C 0.20875 0.21721 0.25029 0.0
C75 C 0.24154 0.29052 0.29643 0.0
H76 H 0.30815 0.17738 0.17345 0.0
H77 H 0.26063 0.14411 0.09108 0.0
H78 H 0.23271 0.18872 0.1389 0.0
H79 H 0.22666 0.1627 0.09613 0.0
H80 H 0.20685 0.31158 0.30926 0.0
H81 H 0.25853 0.35168 0.38766 0.0
H82 H 0.28603 0.30707 0.33951 0.0
H83 H 0.29345 0.33518 0.38112 0.0
Eu84 Eu 0.78093 0.22548 0.23112 0.0
C85 C 0.72498 0.26135 0.31534 0.0
C86 C 0.67909 0.2295 0.30961 0.0
C87 C 0.70269 0.25376 0.3544 0.0
C88 C 0.7023 0.24259 0.29882 0.0
C89 C 0.72534 0.26746 0.3432 0.0
C90 C 0.67957 0.23488 0.3376 0.0
C91 C 0.7695 0.30179 0.3461 0.0
N92 N 0.7463 0.27452 0.30376 0.0
C93 C 0.76804 0.29521 0.3183 0.0
C94 C 0.74817 0.28766 0.35873 0.0
Eu95 Eu 0.74306 0.26203 0.25688 0.0
N96 N 0.70251 0.23793 0.27184 0.0
C97 C 0.67954 0.22146 0.25413 0.0
C98 C 0.65589 0.21181 0.29179 0.0
C99 C 0.65606 0.20798 0.26386 0.0
H100 H 0.78465 0.30611 0.30865 0.0
H101 H 0.63813 0.19457 0.24979 0.0
H102 H 0.662 0.22487 0.3463 0.0
H103 H 0.78707 0.31773 0.35775 0.0
H104 H 0.67918 0.21818 0.23254 0.0
H105 H 0.88254 0.29965 0.23635 0.0
H106 H 0.63767 0.20133 0.29928 0.0
H107 H 0.74192 0.17936 0.18016 0.0
H108 H 0.84323 0.27197 0.2548 0.0
H109 H 0.73937 0.16908 0.13055 0.0
H110 H 0.70262 0.25805 0.37581 0.0
H111 H 0.88189 0.29546 0.18603 0.0
H112 H 0.85787 0.27186 0.13892 0.0
H113 H 0.74926 0.29289 0.38022 0.0
H114 H 0.81881 0.23648 0.11003 0.0
N115 N 0.82002 0.25251 0.21532 0.0
C116 C 0.84257 0.26976 0.23286 0.0
C117 C 0.86453 0.28316 0.19405 0.0
C118 C 0.84196 0.26442 0.1765 0.0
C119 C 0.865 0.28554 0.22246 0.0
C120 C 0.81982 0.24904 0.18797 0.0
H121 H 0.77468 0.19783 0.10681 0.0
N122 N 0.77786 0.21385 0.18402 0.0
C123 C 0.75594 0.18607 0.14187 0.0
C124 C 0.798 0.22912 0.17178 0.0
C125 C 0.75749 0.19187 0.16993 0.0
C126 C 0.77586 0.2024 0.12852 0.0
C127 C 0.79749 0.22397 0.14361 0.0
O128 O 0.78014 0.18467 0.23215 0.0
O129 O 0.75067 0.22445 0.25492 0.0
O130 O 0.77015 0.25123 0.2939 0.0
O131 O 0.80386 0.24844 0.27333 0.0
O132 O 0.74244 0.18957 0.23256 0.0
O133 O 0.81343 0.21575 0.25906 0.0
O134 O 0.74532 0.30332 0.25639 0.0
O135 O 0.77318 0.263 0.23283 0.0
O136 O 0.75181 0.23366 0.19406 0.0
O137 O 0.71919 0.238 0.21551 0.0
O138 O 0.78263 0.29696 0.25694 0.0
O139 O 0.71374 0.27395 0.22614 0.0
C140 C 0.73428 0.20088 0.24947 0.0
C141 C 0.79791 0.17225 0.27726 0.0
C142 C 0.81374 0.16291 0.32633 0.0
C143 C 0.815 0.18067 0.30409 0.0
C144 C 0.79405 0.13682 0.32133 0.0
C145 C 0.77847 0.14617 0.27309 0.0
C146 C 0.7764 0.12875 0.29509 0.0
C147 C 0.795 0.25181 0.29556 0.0
C148 C 0.80108 0.19006 0.25332 0.0
C149 C 0.81892 0.23996 0.1317 0.0
C150 C 0.84116 0.2601 0.14815 0.0
C151 C 0.79009 0.28629 0.23881 0.0
C152 C 0.7354 0.31681 0.20973 0.0
C153 C 0.71807 0.31209 0.18286 0.0
C154 C 0.72538 0.32867 0.16066 0.0
C155 C 0.75102 0.34944 0.16561 0.0
C156 C 0.76075 0.33787 0.21409 0.0
C157 C 0.76858 0.35376 0.19204 0.0
C158 C 0.72722 0.23357 0.19307 0.0
C159 C 0.72714 0.29937 0.23281 0.0
H160 H 0.8295 0.20098 0.30737 0.0
H161 H 0.79269 0.12208 0.33725 0.0
H162 H 0.76503 0.13905 0.25271 0.0
H163 H 0.76152 0.10861 0.29157 0.0
H164 H 0.69879 0.29555 0.17943 0.0
H165 H 0.75729 0.36309 0.14944 0.0
H166 H 0.77467 0.3421 0.23449 0.0
H167 H 0.78816 0.36987 0.19561 0.0
Eu168 Eu 0.73791 0.73791 0.26674 0.0
C169 C 0.79767 0.80724 0.17879 0.0
C170 C 0.76083 0.80293 0.13849 0.0
C171 C 0.80124 0.84331 0.14631 0.0
C172 C 0.77213 0.79267 0.1632 0.0
C173 C 0.81283 0.83244 0.17017 0.0
C174 C 0.77524 0.82858 0.13052 0.0
C175 C 0.85058 0.83316 0.20789 0.0
N176 N 0.80831 0.79608 0.20154 0.0
C177 C 0.83472 0.80809 0.21553 0.0
C178 C 0.83947 0.84558 0.18533 0.0
Eu179 Eu 0.78011 0.75437 0.2144 0.0
N180 N 0.759 0.76782 0.17131 0.0
C181 C 0.73538 0.75138 0.15443 0.0
C182 C 0.73579 0.78677 0.1221 0.0
C183 C 0.72322 0.76073 0.12989 0.0
H184 H 0.84328 0.7986 0.23311 0.0
H185 H 0.70413 0.74784 0.11704 0.0
H186 H 0.76678 0.8369 0.11177 0.0
H187 H 0.87132 0.8429 0.21943 0.0
H188 H 0.72528 0.73122 0.16005 0.0
H189 H 0.81105 0.74139 0.36517 0.0
H190 H 0.72637 0.79393 0.10304 0.0
H191 H 0.67533 0.69311 0.24326 0.0
H192 H 0.79173 0.75906 0.32163 0.0
H193 H 0.64628 0.64856 0.25523 0.0
H194 H 0.81245 0.86276 0.1395 0.0
H195 H 0.78699 0.6954 0.37826 0.0
H196 H 0.7459 0.65305 0.36796 0.0
H197 H 0.85181 0.86496 0.17938 0.0
H198 H 0.70101 0.6279 0.33823 0.0
N199 N 0.75743 0.72318 0.3096 0.0
C200 C 0.78098 0.73897 0.32703 0.0
C201 C 0.77842 0.70303 0.35906 0.0
C202 C 0.75355 0.68748 0.34186 0.0
C203 C 0.79203 0.72902 0.35177 0.0
C204 C 0.74337 0.69831 0.317 0.0
H205 H 0.66355 0.6262 0.2964 0.0
N206 N 0.70871 0.69559 0.27704 0.0
C207 C 0.66651 0.65829 0.268 0.0
C208 C 0.71819 0.68411 0.30026 0.0
C209 C 0.68296 0.68351 0.26132 0.0
C210 C 0.67635 0.64572 0.29123 0.0
C211 C 0.70237 0.65874 0.30788 0.0
O212 O 0.70227 0.74687 0.26942 0.0
O213 O 0.74503 0.75947 0.22727 0.0
O214 O 0.7885 0.79327 0.23707 0.0
O215 O 0.77375 0.77711 0.27802 0.0
O216 O 0.70536 0.7374 0.22794 0.0
O217 O 0.73994 0.76493 0.30005 0.0
O218 O 0.81583 0.74574 0.21086 0.0
O219 O 0.77354 0.73376 0.25434 0.0
O220 O 0.73256 0.69895 0.24591 0.0
O221 O 0.74306 0.71616 0.20397 0.0
O222 O 0.81302 0.75534 0.25308 0.0
O223 O 0.77713 0.72493 0.18324 0.0
C224 C 0.72078 0.75384 0.21347 0.0
C225 C 0.69933 0.75915 0.31415 0.0
C226 C 0.67494 0.77613 0.3407 0.0
C227 C 0.68919 0.77888 0.31921 0.0
C228 C 0.67084 0.75309 0.35666 0.0
C229 C 0.695 0.73654 0.33048 0.0
C230 C 0.68079 0.73355 0.35156 0.0
C231 C 0.78626 0.79663 0.26288 0.0
C232 C 0.71452 0.76242 0.29197 0.0
C233 C 0.71277 0.64746 0.33213 0.0
C234 C 0.73833 0.66179 0.34905 0.0
C235 C 0.79778 0.73949 0.26812 0.0
C236 C 0.816 0.73016 0.1663 0.0
C237 C 0.82667 0.71062 0.16198 0.0
C238 C 0.83785 0.71129 0.13844 0.0
C239 C 0.83854 0.73203 0.11968 0.0
C240 C 0.81709 0.75064 0.14733 0.0
C241 C 0.82838 0.75157 0.12422 0.0
C242 C 0.73354 0.69578 0.21962 0.0
C243 C 0.80279 0.7284 0.1899 0.0
H244 H 0.69279 0.7965 0.30675 0.0
H245 H 0.65961 0.74997 0.37296 0.0
H246 H 0.70262 0.72122 0.32695 0.0
H247 H 0.67742 0.71596 0.36401 0.0
H248 H 0.82567 0.69463 0.17649 0.0
H249 H 0.8472 0.73327 0.10157 0.0
H250 H 0.80899 0.76576 0.15026 0.0
H251 H 0.82912 0.76744 0.10964 0.0
Eu252 Eu 0.27855 0.72659 0.25412 0.0
C253 C 0.22602 0.80208 0.18097 0.0
C254 C 0.26369 0.84403 0.18319 0.0
C255 C 0.22596 0.83209 0.14231 0.0
C256 C 0.25097 0.81961 0.19498 0.0
C257 C 0.21276 0.80849 0.15491 0.0
C258 C 0.25144 0.8498 0.15641 0.0
C259 C 0.17325 0.76954 0.15744 0.0
N260 N 0.21373 0.77972 0.19394 0.0
C261 C 0.18732 0.764 0.18323 0.0
C262 C 0.18621 0.7916 0.14294 0.0
Eu263 Eu 0.23854 0.77138 0.23739 0.0
N264 N 0.26188 0.81364 0.22104 0.0
C265 C 0.28425 0.83221 0.23745 0.0
C266 C 0.28777 0.86235 0.19915 0.0
C267 C 0.29783 0.8566 0.22659 0.0
H268 H 0.17732 0.7468 0.19426 0.0
H269 H 0.31604 0.87091 0.23939 0.0
H270 H 0.26104 0.86833 0.14686 0.0
H271 H 0.15251 0.75671 0.1487 0.0
H272 H 0.29225 0.82796 0.25866 0.0
H273 H 0.20225 0.62556 0.24506 0.0
H274 H 0.29823 0.8813 0.19084 0.0
H275 H 0.33663 0.75238 0.30221 0.0
H276 H 0.22592 0.67005 0.22885 0.0
H277 H 0.35902 0.74152 0.34865 0.0
H278 H 0.21626 0.83723 0.12213 0.0
H279 H 0.21845 0.61305 0.29318 0.0
H280 H 0.25343 0.62489 0.3388 0.0
H281 H 0.17528 0.79587 0.12299 0.0
H282 H 0.29616 0.65644 0.36702 0.0
N283 N 0.25488 0.68313 0.26767 0.0
C284 C 0.2333 0.66494 0.24988 0.0
C285 C 0.22895 0.63268 0.28619 0.0
C286 C 0.25205 0.65082 0.30372 0.0
C287 C 0.21978 0.63964 0.259 0.0
C288 C 0.26486 0.67616 0.29363 0.0
H289 H 0.33593 0.69977 0.37067 0.0
N290 N 0.30109 0.71749 0.29853 0.0
C291 C 0.33918 0.72802 0.33797 0.0
C292 C 0.2887 0.69393 0.3096 0.0
C293 C 0.32649 0.7341 0.31171 0.0
C294 C 0.32604 0.70448 0.35036 0.0
C295 C 0.30068 0.68686 0.33598 0.0
O296 O 0.31726 0.72929 0.24579 0.0
O297 O 0.27486 0.76306 0.23336 0.0
O298 O 0.23424 0.75069 0.19619 0.0
O299 O 0.24708 0.71445 0.21255 0.0
O300 O 0.31327 0.76603 0.25478 0.0
O301 O 0.27994 0.69919 0.22345 0.0
O302 O 0.20151 0.76971 0.24915 0.0
O303 O 0.24225 0.73481 0.25739 0.0
O304 O 0.28032 0.74601 0.29484 0.0
O305 O 0.27138 0.78401 0.27816 0.0
O306 O 0.20348 0.73218 0.2383 0.0
O307 O 0.23976 0.80063 0.26778 0.0
C308 C 0.29932 0.77842 0.23912 0.0
C309 C 0.31911 0.68841 0.23218 0.0
C310 C 0.33433 0.65757 0.21177 0.0
C311 C 0.32366 0.67804 0.20876 0.0
C312 C 0.3407 0.64783 0.23856 0.0
C313 C 0.32571 0.67855 0.25878 0.0
C314 C 0.33652 0.6584 0.26192 0.0
C315 C 0.23661 0.72743 0.19225 0.0
C316 C 0.30632 0.70854 0.22826 0.0
C317 C 0.28743 0.66213 0.34667 0.0
C318 C 0.26312 0.64416 0.33059 0.0
C319 C 0.21785 0.71949 0.25263 0.0
C320 C 0.20053 0.8112 0.2619 0.0
C321 C 0.19345 0.81936 0.28495 0.0
C322 C 0.18189 0.83921 0.28215 0.0
C323 C 0.17722 0.85049 0.25588 0.0
C324 C 0.19574 0.82273 0.23592 0.0
C325 C 0.18405 0.84221 0.23294 0.0
C326 C 0.28023 0.77021 0.29873 0.0
C327 C 0.21362 0.79127 0.26545 0.0
H328 H 0.31829 0.68543 0.18813 0.0
H329 H 0.34911 0.63218 0.24145 0.0
H330 H 0.3224 0.68628 0.27707 0.0
H331 H 0.34155 0.65084 0.28249 0.0
H332 H 0.19744 0.81066 0.30513 0.0
H333 H 0.16804 0.86555 0.253 0.0
H334 H 0.2011 0.8168 0.21799 0.0
H335 H 0.18034 0.85098 0.2128 0.0
Eu336 Eu 0.28213 0.72131 0.73178 0.0
C337 C 0.22478 0.76738 0.80495 0.0
C338 C 0.17938 0.73487 0.80074 0.0
C339 C 0.20222 0.76282 0.84347 0.0
C340 C 0.20254 0.74719 0.78969 0.0
C341 C 0.22476 0.77576 0.83185 0.0
C342 C 0.17954 0.74242 0.82793 0.0
C343 C 0.26849 0.81025 0.83292 0.0
N344 N 0.24608 0.77954 0.79302 0.0
C345 C 0.26745 0.80132 0.80611 0.0
C346 C 0.24718 0.79724 0.84599 0.0
Eu347 Eu 0.244 0.76219 0.74853 0.0
N348 N 0.20314 0.74033 0.76356 0.0
C349 C 0.18047 0.72266 0.74658 0.0
C350 C 0.15655 0.71574 0.78391 0.0
C351 C 0.157 0.70989 0.75657 0.0
H352 H 0.28412 0.81125 0.79623 0.0
H353 H 0.13932 0.69543 0.74321 0.0
H354 H 0.16205 0.73296 0.83689 0.0
H355 H 0.28578 0.82707 0.84353 0.0
H356 H 0.18048 0.71781 0.72548 0.0
H357 H 0.3882 0.78812 0.74494 0.0
H358 H 0.13838 0.70576 0.79163 0.0
H359 H 0.24471 0.67473 0.68073 0.0
H360 H 0.34575 0.76427 0.75965 0.0
H361 H 0.2455 0.66228 0.63293 0.0
H362 H 0.20189 0.7688 0.86421 0.0
H363 H 0.39151 0.7815 0.69641 0.0
H364 H 0.36968 0.75789 0.64905 0.0
H365 H 0.248 0.80422 0.86674 0.0
H366 H 0.33078 0.72374 0.61845 0.0
N367 N 0.3245 0.74444 0.71983 0.0
C368 C 0.34664 0.76101 0.73846 0.0
C369 C 0.37271 0.77086 0.7028 0.0
C370 C 0.35041 0.75294 0.68416 0.0
C371 C 0.37093 0.77461 0.73019 0.0
C372 C 0.3264 0.73961 0.69355 0.0
H373 H 0.28455 0.68771 0.61239 0.0
N374 N 0.28253 0.70717 0.68672 0.0
C375 C 0.26225 0.67874 0.64488 0.0
C376 C 0.30464 0.72047 0.67639 0.0
C377 C 0.26191 0.68575 0.67194 0.0
C378 C 0.28427 0.6932 0.63333 0.0
C379 C 0.30607 0.71406 0.64929 0.0
O380 O 0.2788 0.67974 0.73529 0.0
O381 O 0.25041 0.72358 0.7519 0.0
O382 O 0.2691 0.75392 0.78889 0.0
O383 O 0.30352 0.74696 0.77277 0.0
O384 O 0.24171 0.68755 0.73153 0.0
O385 O 0.30938 0.70981 0.76557 0.0
O386 O 0.24649 0.8032 0.74027 0.0
O387 O 0.2757 0.75969 0.72882 0.0
O388 O 0.25592 0.72899 0.69178 0.0
O389 O 0.22171 0.7353 0.70875 0.0
O390 O 0.28401 0.79625 0.74759 0.0
O391 O 0.21474 0.77006 0.7143 0.0
C392 C 0.23332 0.70023 0.74684 0.0
C393 C 0.28575 0.66811 0.7829 0.0
C394 C 0.29261 0.65855 0.83285 0.0
C395 C 0.30129 0.6742 0.81056 0.0
C396 C 0.26724 0.63735 0.82701 0.0
C397 C 0.26057 0.64679 0.77771 0.0
C398 C 0.2513 0.6318 0.79973 0.0
C399 C 0.29371 0.75306 0.79305 0.0
C400 C 0.29575 0.6843 0.75975 0.0
C401 C 0.32941 0.72816 0.63932 0.0
C402 C 0.35156 0.74757 0.65675 0.0
C403 C 0.29277 0.78303 0.73333 0.0
C404 C 0.20545 0.80894 0.7181 0.0
C405 C 0.19338 0.81503 0.69157 0.0
C406 C 0.17309 0.82589 0.68847 0.0
C407 C 0.16526 0.83105 0.71245 0.0
C408 C 0.1976 0.81414 0.74197 0.0
C409 C 0.17765 0.82537 0.73909 0.0
C410 C 0.23116 0.72931 0.68817 0.0
C411 C 0.22501 0.79584 0.71961 0.0
H412 H 0.32034 0.69105 0.81453 0.0
H413 H 0.25996 0.62429 0.84321 0.0
H414 H 0.24796 0.64159 0.75668 0.0
H415 H 0.23193 0.61538 0.79552 0.0
H416 H 0.19913 0.81039 0.67315 0.0
H417 H 0.14959 0.83942 0.71056 0.0
H418 H 0.20662 0.80928 0.76262 0.0
H419 H 0.17153 0.82936 0.75747 0.0
Eu420 Eu 0.24038 0.23956 0.76781 0.0
C421 C 0.3016 0.3088 0.68069 0.0
C422 C 0.26553 0.30576 0.63994 0.0
C423 C 0.30672 0.34537 0.64874 0.0
C424 C 0.27604 0.29486 0.66458 0.0
C425 C 0.31749 0.33395 0.67264 0.0
C426 C 0.28076 0.33133 0.63245 0.0
C427 C 0.35423 0.33367 0.71116 0.0
N428 N 0.31146 0.29715 0.70355 0.0
C429 C 0.33768 0.30868 0.71827 0.0
C430 C 0.34399 0.34652 0.68845 0.0
Eu431 Eu 0.2821 0.25539 0.71489 0.0
N432 N 0.26204 0.27007 0.6722 0.0
C433 C 0.23826 0.25435 0.65503 0.0
C434 C 0.24037 0.29033 0.62315 0.0
C435 C 0.22687 0.26436 0.63053 0.0
H436 H 0.34562 0.29885 0.73593 0.0
H437 H 0.20765 0.25206 0.6174 0.0
H438 H 0.27292 0.34012 0.61373 0.0
H439 H 0.37483 0.343 0.72322 0.0
H440 H 0.22751 0.23428 0.66046 0.0
H441 H 0.31779 0.2452 0.86363 0.0
H442 H 0.23154 0.29801 0.60412 0.0
H443 H 0.1763 0.19711 0.75188 0.0
H444 H 0.29603 0.26212 0.82114 0.0
H445 H 0.14804 0.15312 0.76608 0.0
H446 H 0.31852 0.36479 0.64235 0.0
H447 H 0.29562 0.19909 0.87764 0.0
H448 H 0.25481 0.15641 0.86951 0.0
H449 H 0.35686 0.36585 0.68293 0.0
H450 H 0.2084 0.13127 0.84298 0.0
N451 N 0.26212 0.22565 0.81024 0.0
C452 C 0.286 0.24196 0.82684 0.0
C453 C 0.28595 0.20638 0.85883 0.0
C454 C 0.26059 0.19043 0.84286 0.0
C455 C 0.29848 0.23244 0.85104 0.0
C456 C 0.24898 0.20087 0.81847 0.0
H457 H 0.16818 0.1301 0.80468 0.0
N458 N 0.21207 0.19821 0.78133 0.0
C459 C 0.16918 0.16222 0.77666 0.0
C460 C 0.22307 0.18667 0.80351 0.0
C461 C 0.18518 0.18707 0.76867 0.0
C462 C 0.18064 0.14927 0.7984 0.0
C463 C 0.20777 0.16172 0.81252 0.0
O464 O 0.20575 0.25027 0.77075 0.0
O465 O 0.24708 0.26035 0.72795 0.0
O466 O 0.2896 0.29484 0.7363 0.0
O467 O 0.27703 0.27816 0.77784 0.0
O468 O 0.20741 0.23941 0.72969 0.0
O469 O 0.24358 0.26716 0.80115 0.0
O470 O 0.31704 0.24479 0.71315 0.0
O471 O 0.27479 0.2336 0.75425 0.0
O472 O 0.22862 0.20077 0.7433 0.0
O473 O 0.24575 0.21669 0.70347 0.0
O474 O 0.3145 0.25608 0.75368 0.0
O475 O 0.28017 0.22882 0.68108 0.0
C476 C 0.22273 0.25494 0.7145 0.0
C477 C 0.20357 0.26255 0.81575 0.0
C478 C 0.17974 0.2799 0.84265 0.0
C479 C 0.1937 0.28245 0.82094 0.0
C480 C 0.17566 0.25691 0.85869 0.0
C481 C 0.19934 0.24002 0.83221 0.0
C482 C 0.1854 0.23723 0.85349 0.0
C483 C 0.28763 0.29813 0.76221 0.0
C484 C 0.21845 0.26555 0.79334 0.0
C485 C 0.21971 0.15056 0.83591 0.0
C486 C 0.24612 0.16488 0.85102 0.0
C487 C 0.2991 0.23934 0.76797 0.0
C488 C 0.32142 0.23345 0.66879 0.0
C489 C 0.33206 0.21383 0.66462 0.0
C490 C 0.34875 0.21757 0.64529 0.0
C491 C 0.35415 0.24102 0.63 0.0
C492 C 0.32709 0.25653 0.65316 0.0
C493 C 0.34331 0.26021 0.63385 0.0
C494 C 0.23096 0.19764 0.71746 0.0
C495 C 0.30513 0.23008 0.69002 0.0
H496 H 0.19728 0.30002 0.80841 0.0
H497 H 0.16461 0.25391 0.87513 0.0
H498 H 0.20683 0.22462 0.82862 0.0
H499 H 0.18208 0.2197 0.86602 0.0
H500 H 0.32785 0.19604 0.67682 0.0
H501 H 0.3666 0.24442 0.61479 0.0
H502 H 0.31909 0.27174 0.65598 0.0
H503 H 0.3476 0.2781 0.62185 0.0
Eu504 Eu 0.78124 0.22356 0.75182 0.0
C505 C 0.72995 0.30076 0.67889 0.0
C506 C 0.76731 0.34325 0.68358 0.0
C507 C 0.73074 0.33236 0.64166 0.0
C508 C 0.75439 0.31816 0.69408 0.0
C509 C 0.71738 0.30798 0.6529 0.0
C510 C 0.75572 0.34995 0.65695 0.0
C511 C 0.67813 0.26793 0.65266 0.0
N512 N 0.71752 0.27756 0.6905 0.0
C513 C 0.69152 0.26163 0.67843 0.0
C514 C 0.69131 0.29097 0.63957 0.0
Eu515 Eu 0.74101 0.26794 0.7341 0.0
N516 N 0.76473 0.3112 0.7199 0.0
C517 C 0.78677 0.32932 0.73724 0.0
C518 C 0.79097 0.36119 0.70056 0.0
C519 C 0.80048 0.35435 0.72769 0.0
H520 H 0.68132 0.24371 0.68839 0.0
H521 H 0.8184 0.36831 0.74125 0.0
H522 H 0.76548 0.36901 0.64841 0.0
H523 H 0.65773 0.25495 0.64286 0.0
H524 H 0.79446 0.32432 0.75822 0.0
H525 H 0.70549 0.12265 0.74629 0.0
H526 H 0.80157 0.38062 0.69324 0.0
H527 H 0.83992 0.25085 0.79884 0.0
H528 H 0.72884 0.16654 0.72844 0.0
H529 H 0.86315 0.24129 0.84547 0.0
H530 H 0.72157 0.33814 0.62157 0.0
H531 H 0.72248 0.11161 0.79483 0.0
H532 H 0.75824 0.12465 0.83987 0.0
H533 H 0.68091 0.29583 0.61963 0.0
H534 H 0.80131 0.15683 0.86679 0.0
N535 N 0.75817 0.18064 0.7668 0.0
C536 C 0.73647 0.16199 0.74965 0.0
C537 C 0.73277 0.13095 0.78712 0.0
C538 C 0.7561 0.14951 0.80395 0.0
C539 C 0.72316 0.13708 0.7597 0.0
C540 C 0.76862 0.17444 0.79295 0.0
H541 H 0.84084 0.20015 0.86884 0.0
N542 N 0.80474 0.21577 0.79629 0.0
C543 C 0.84329 0.22748 0.83527 0.0
C544 C 0.79272 0.19255 0.80815 0.0
C545 C 0.83012 0.23282 0.80889 0.0
C546 C 0.83059 0.20426 0.84842 0.0
C547 C 0.80516 0.18626 0.8347 0.0
O548 O 0.81945 0.22692 0.74198 0.0
O549 O 0.77737 0.25971 0.7309 0.0
O550 O 0.73781 0.24752 0.69318 0.0
O551 O 0.75004 0.21104 0.71001 0.0
O552 O 0.81603 0.26308 0.75162 0.0
O553 O 0.7824 0.19444 0.7229 0.0
O554 O 0.70301 0.26449 0.74464 0.0
O555 O 0.74438 0.23127 0.75442 0.0
O556 O 0.7824 0.24269 0.79248 0.0
O557 O 0.77324 0.28043 0.77529 0.0
O558 O 0.70616 0.22838 0.73262 0.0
O559 O 0.7404 0.29575 0.76494 0.0
C560 C 0.80172 0.27522 0.73611 0.0
C561 C 0.82328 0.18664 0.72982 0.0
C562 C 0.84211 0.15924 0.70897 0.0
C563 C 0.82769 0.17666 0.70613 0.0
C564 C 0.85191 0.15188 0.73607 0.0
C565 C 0.83299 0.17895 0.75662 0.0
C566 C 0.84727 0.16163 0.75967 0.0
C567 C 0.74004 0.22414 0.68944 0.0
C568 C 0.80862 0.20515 0.72593 0.0
C569 C 0.79221 0.16193 0.84629 0.0
C570 C 0.76769 0.14361 0.83096 0.0
C571 C 0.72001 0.21576 0.74802 0.0
C572 C 0.70025 0.30475 0.75847 0.0
C573 C 0.695 0.31356 0.78231 0.0
C574 C 0.68168 0.33191 0.78004 0.0
C575 C 0.67375 0.34133 0.75343 0.0
C576 C 0.69239 0.31449 0.73217 0.0
C577 C 0.67916 0.33268 0.72971 0.0
C578 C 0.78197 0.26679 0.79611 0.0
C579 C 0.71415 0.28559 0.76164 0.0
H580 H 0.81963 0.18233 0.68546 0.0
H581 H 0.86347 0.13887 0.73911 0.0
H582 H 0.82969 0.1864 0.77512 0.0
H583 H 0.85491 0.15587 0.7804 0.0
H584 H 0.7016 0.30631 0.80264 0.0
H585 H 0.66306 0.35513 0.75085 0.0
H586 H 0.69638 0.30803 0.71359 0.0
H587 H 0.67297 0.34003 0.70934 0.0
Eu588 Eu 0.74985 0.72273 0.7109 0.0
C589 C 0.82377 0.78969 0.81987 0.0
C590 C 0.82309 0.7561 0.85461 0.0
C591 C 0.86266 0.79706 0.85903 0.0
C592 C 0.81065 0.76501 0.82961 0.0
C593 C 0.84965 0.80631 0.83481 0.0
C594 C 0.84941 0.77196 0.86889 0.0
C595 C 0.8468 0.84081 0.80218 0.0
N596 N 0.81054 0.79809 0.79658 0.0
C597 C 0.82111 0.82361 0.78817 0.0
C598 C 0.8613 0.832 0.8254 0.0
Eu599 Eu 0.76781 0.76758 0.77304 0.0
N600 N 0.78509 0.75041 0.81553 0.0
C601 C 0.77007 0.72764 0.82649 0.0
C602 C 0.80837 0.73191 0.86497 0.0
C603 C 0.78159 0.71784 0.85107 0.0
H604 H 0.81 0.83045 0.77016 0.0
H605 H 0.76982 0.69939 0.85922 0.0
H606 H 0.85939 0.76534 0.88798 0.0
H607 H 0.85538 0.86083 0.79507 0.0
H608 H 0.74939 0.71648 0.81598 0.0
H609 H 0.74589 0.79019 0.62446 0.0
H610 H 0.81722 0.72431 0.88405 0.0
H611 H 0.70891 0.6594 0.71446 0.0
H612 H 0.76697 0.7738 0.66793 0.0
H613 H 0.66428 0.62787 0.68929 0.0
H614 H 0.88266 0.80941 0.87065 0.0
H615 H 0.69881 0.76414 0.5996 0.0
H616 H 0.65747 0.72223 0.59571 0.0
H617 H 0.88115 0.84539 0.8363 0.0
H618 H 0.63533 0.67788 0.61317 0.0
N619 N 0.73185 0.73929 0.66843 0.0
C620 C 0.7464 0.76222 0.65737 0.0
C621 C 0.70792 0.75689 0.61877 0.0
C622 C 0.69375 0.73251 0.62922 0.0
C623 C 0.73453 0.7716 0.63269 0.0
C624 C 0.70652 0.72407 0.65435 0.0
H625 H 0.63795 0.64229 0.64771 0.0
N626 N 0.70757 0.69133 0.68762 0.0
C627 C 0.67234 0.64793 0.68208 0.0
C628 C 0.69402 0.69923 0.66419 0.0
C629 C 0.69761 0.6658 0.69626 0.0
C630 C 0.65751 0.65617 0.65867 0.0
C631 C 0.66846 0.68198 0.64919 0.0
O632 O 0.76137 0.68865 0.70449 0.0
O633 O 0.77304 0.73226 0.7557 0.0
O634 O 0.80669 0.77525 0.75913 0.0
O635 O 0.78787 0.75938 0.71251 0.0
O636 O 0.75167 0.69247 0.74454 0.0
O637 O 0.77645 0.72485 0.68269 0.0
O638 O 0.75706 0.80216 0.77936 0.0
O639 O 0.74442 0.75804 0.72822 0.0
O640 O 0.71107 0.71503 0.72487 0.0
O641 O 0.72977 0.73076 0.77145 0.0
O642 O 0.76634 0.79778 0.73933 0.0
O643 O 0.74124 0.76614 0.8011 0.0
C644 C 0.76834 0.70887 0.76472 0.0
C645 C 0.77202 0.68437 0.66102 0.0
C646 C 0.78901 0.65956 0.63362 0.0
C647 C 0.79201 0.67421 0.65826 0.0
C648 C 0.7655 0.65499 0.61212 0.0
C649 C 0.74886 0.67947 0.63924 0.0
C650 C 0.74563 0.6648 0.615 0.0
C651 C 0.8087 0.77193 0.73326 0.0
C652 C 0.77569 0.70041 0.6864 0.0
C653 C 0.6551 0.69074 0.62484 0.0
C654 C 0.66771 0.71599 0.6149 0.0
C655 C 0.74937 0.78149 0.71921 0.0
C656 C 0.74689 0.80698 0.82289 0.0
C657 C 0.72687 0.81672 0.82653 0.0
C658 C 0.73066 0.83182 0.85113 0.0
C659 C 0.755 0.83727 0.87165 0.0
C660 C 0.77082 0.81266 0.84376 0.0
C661 C 0.77484 0.82779 0.86793 0.0
C662 C 0.709 0.71742 0.75094 0.0
C663 C 0.74261 0.79076 0.79745 0.0
H664 H 0.81003 0.67815 0.675 0.0
H665 H 0.7623 0.64353 0.59312 0.0
H666 H 0.73334 0.68708 0.64094 0.0
H667 H 0.72765 0.66106 0.5983 0.0
H668 H 0.70825 0.81214 0.81049 0.0
H669 H 0.75887 0.84915 0.89055 0.0
H670 H 0.78636 0.80536 0.8414 0.0
H671 H 0.79344 0.83218 0.88391 0.0
Cd672 Cd 0.96903 0.96364 0.51452 0.0
Cd673 Cd 0.03301 0.02676 0.46706 0.0
C674 C 0.99062 0.91801 0.52371 0.0
N675 N 0.98237 0.93081 0.50101 0.0
C676 C 0.99473 0.90574 0.47089 0.0
C677 C 1.00423 0.89293 0.4943 0.0
C678 C 1.00156 0.89888 0.52083 0.0
C679 C 0.98346 0.92469 0.47473 0.0
H680 H 0.98939 0.92334 0.54429 0.0
H681 H 0.97631 0.93495 0.45698 0.0
C682 C 0.96939 0.99205 0.44586 0.0
C683 C 0.03332 0.08563 0.47156 0.0
C684 C 0.0239 0.10559 0.47637 0.0
C685 C 0.00821 0.10213 0.4964 0.0
C686 C 1.00445 0.07952 0.51287 0.0
C687 C 0.01431 0.06 0.50736 0.0
N688 N 0.0277 0.06304 0.48638 0.0
H689 H 0.04321 0.08728 0.4544 0.0
H690 H 0.00962 0.0417 0.51852 0.0
C691 C 0.03644 0.97221 0.45342 0.0
N692 N 0.053 -0.00501 0.46864 0.0
C693 C 0.09148 0.98251 0.47136 0.0
C694 C 0.07498 0.95934 0.45436 0.0
C695 C 0.04695 0.95392 0.44632 0.0
C696 C 0.07999 0.00028 0.47819 0.0
H697 H 0.0153 0.96915 0.44523 0.0
H698 H 0.09286 0.01905 0.48945 0.0
C699 C 0.03015 -0.00222 0.53287 0.0
C700 C 0.93312 0.92956 0.54409 0.0
N701 N 0.95377 -0.00164 0.51751 0.0
C702 C 0.96378 0.01241 0.5425 0.0
C703 C 0.95385 0.03165 0.54826 0.0
C704 C 0.93348 0.03669 0.528 0.0
C705 C 0.92397 0.0223 0.50201 0.0
C706 C 0.9343 0.00291 0.49728 0.0
C707 C 0.06249 0.05319 0.42834 0.0
O708 O 0.97536 0.98574 0.47103 0.0
O709 O 0.98798 0.00896 0.43589 0.0
O710 O 0.02113 0.00092 0.50724 0.0
O711 O 0.01362 0.98186 0.54594 0.0
O712 O 0.92774 0.92627 0.51742 0.0
O713 O 0.95418 0.94897 0.55575 0.0
O714 O 0.07312 0.05846 0.45454 0.0
O715 O 0.03861 0.03587 0.42108 0.0
H716 H 0.97893 0.008 0.55834 0.0
H717 H 0.9262 0.99098 0.47785 0.0
H718 H 0.99644 0.90146 0.45014 0.0
H719 H 0.00905 0.88972 0.53945 0.0
H720 H 0.02687 0.12239 0.46278 0.0
H721 H 0.99266 0.07627 0.52865 0.0
H722 H 0.11323 0.98782 0.47775 0.0
H723 H 0.0333 0.93626 0.43357 0.0
H724 H 0.96141 0.04175 0.5688 0.0
H725 H 0.90836 0.02558 0.48576 0.0
Cd726 Cd 0.50512 0.96844 0.03561 0.0
Cd727 Cd 0.5098 0.02026 0.94562 0.0
C728 C 0.56007 0.95878 0.07274 0.0
N729 N 0.54018 0.94935 0.04897 0.0
C730 C 0.55428 0.91207 0.04571 0.0
C731 C 0.57457 0.92083 0.07069 0.0
C732 C 0.57753 0.94495 0.08384 0.0
C733 C 0.53731 0.92654 0.0353 0.0
H734 H 0.56169 0.97649 0.08384 0.0
H735 H 0.52114 0.91894 0.01679 0.0
C736 C 0.47291 0.96111 0.96104 0.0
C737 C 0.46116 0.0348 0.90354 0.0
C738 C 0.44411 0.04875 0.8917 0.0
C739 C 0.44138 0.0683 0.90782 0.0
C740 C 0.45558 0.07237 0.93623 0.0
C741 C 0.47262 0.05805 0.94723 0.0
N742 N 0.47537 0.03981 0.93077 0.0
H743 H 0.46381 0.02056 0.8906 0.0
H744 H 0.48443 0.06228 0.96864 0.0
C745 C 0.52 0.97768 0.90698 0.0
N746 N 0.52852 0.99 0.93296 0.0
C747 C 0.56382 0.97193 0.94489 0.0
C748 C 0.5559 0.95931 0.91801 0.0
C749 C 0.53339 0.96216 0.89907 0.0
C750 C 0.54986 0.98722 0.9519 0.0
H751 H 0.50314 0.98035 0.89215 0.0
H752 H 0.55654 -0.00247 0.97227 0.0
C753 C 0.5389 0.03035 0.022 0.0
C754 C 0.46918 0.92999 0.06278 0.0
N755 N 0.48482 -0.00346 0.05021 0.0
C756 C 0.49456 0.01044 0.07541 0.0
C757 C 0.48075 0.02535 0.08372 0.0
C758 C 0.45637 0.02554 0.06622 0.0
C759 C 0.44694 0.01105 0.0403 0.0
C760 C 0.46154 -0.00326 0.03268 0.0
C761 C 0.5459 0.05747 0.91743 0.0
O762 O 0.48949 0.97056 0.98431 0.0
O763 O 0.47427 0.97591 0.93996 0.0
O764 O 0.52603 0.02078 -0.00265 0.0
O765 O 0.53709 0.01481 0.04249 0.0
O766 O 0.46362 0.93028 0.03604 0.0
O767 O 0.49161 0.94686 0.07596 0.0
O768 O 0.5506 0.05875 0.94415 0.0
O769 O 0.52417 0.03949 0.90447 0.0
H770 H 0.51289 0.00972 0.08924 0.0
H771 H 0.45403 0.98535 0.01288 0.0
H772 H 0.55121 0.89392 0.03439 0.0
H773 H 0.59244 0.95256 0.10328 0.0
H774 H 0.43343 0.04446 0.86988 0.0
H775 H 0.45449 0.08732 0.94957 0.0
H776 H 0.58122 0.97079 0.96014 0.0
H777 H 0.52623 0.95261 0.87827 0.0
H778 H 0.48868 0.036 0.10399 0.0
H779 H 0.42841 0.01078 0.02601 0.0
Cd780 Cd 1.00326 0.46823 0.03503 0.0
Cd781 Cd 0.01024 0.51967 0.94367 0.0
C782 C 0.06057 0.45912 0.06628 0.0
N783 N 0.03641 0.44667 0.0479 0.0
C784 C 0.04575 0.40589 0.05022 0.0
C785 C 0.07064 0.41798 0.06972 0.0
C786 C 0.07799 0.44523 0.0773 0.0
C787 C 0.02898 0.42053 0.03967 0.0
H788 H 0.06598 0.47965 0.07325 0.0
H789 H 0.00952 0.4107 0.0255 0.0
C790 C 0.97001 0.46369 0.96194 0.0
C791 C 0.96052 0.5345 0.90376 0.0
C792 C 0.94348 0.54869 0.8927 0.0
C793 C 0.94288 0.5696 0.90869 0.0
C794 C 0.95929 0.57481 0.93622 0.0
C795 C 0.97614 0.56013 0.94646 0.0
N796 N 0.97671 0.54051 0.93012 0.0
H797 H 0.96143 0.51913 0.89087 0.0
H798 H 0.98946 0.56508 0.96716 0.0
C799 C 0.01461 0.47184 0.90715 0.0
N800 N 0.02668 0.48751 0.93115 0.0
C801 C 0.06236 0.4699 0.94068 0.0
C802 C 0.05064 0.45366 0.91582 0.0
C803 C 0.02623 0.45469 0.89911 0.0
C804 C 0.05004 0.4867 0.94792 0.0
H805 H 0.99617 0.47299 0.89398 0.0
H806 H 0.05949 0.49963 0.96667 0.0
C807 C 0.04308 0.52806 0.02005 0.0
C808 C 0.96546 0.43178 0.06237 0.0
N809 N 0.98914 0.50115 0.05095 0.0
C810 C 0.99098 0.5053 0.07873 0.0
C811 C 0.97978 0.52257 0.08733 0.0
C812 C 0.96689 0.53611 0.06725 0.0
C813 C 0.96607 0.53208 0.0388 0.0
C814 C 0.97712 0.5143 0.03109 0.0
C815 C 0.0448 0.55559 0.9127 0.0
O816 O 0.98878 0.47214 0.98396 0.0
O817 O 0.97149 0.4777 0.94028 0.0
O818 O 0.02875 0.52045 -0.00469 0.0
O819 O 0.03901 0.51221 0.04013 0.0
O820 O 0.95942 0.43324 0.03576 0.0
O821 O 0.98912 0.44642 0.07533 0.0
O822 O 0.04936 0.55908 0.93923 0.0
O823 O 0.02398 0.53587 0.90107 0.0
H824 H 1.00068 0.49481 0.09428 0.0
H825 H 0.97562 0.51058 0.00912 0.0
H826 H 0.03908 0.38515 0.04327 0.0
H827 H 0.0966 0.45558 0.0925 0.0
H828 H 0.93104 0.5434 0.87161 0.0
H829 H 0.95994 0.59078 0.94944 0.0
H830 H 0.08133 0.47026 0.95408 0.0
H831 H 0.01618 0.44239 0.87997 0.0
H832 H 0.98117 0.52528 0.1095 0.0
H833 H 0.9562 0.54191 0.02256 0.0
Cd834 Cd 0.48361 0.48124 0.02249 0.0
Cd835 Cd 0.52882 0.50988 0.95074 0.0
C836 C 0.53391 0.46125 0.04253 0.0
N837 N 0.50911 0.45414 0.02461 0.0
C838 C 0.51399 0.41517 0.00843 0.0
C839 C 0.54037 0.4232 0.0253 0.0
C840 C 0.55017 0.44631 0.04278 0.0
C841 C 0.49867 0.43124 0.00821 0.0
H842 H 0.54126 0.47855 0.05667 0.0
H843 H 0.47859 0.42568 -0.0053 0.0
C844 C 0.47312 0.46862 0.95069 0.0
C845 C 0.47919 0.53076 0.93581 0.0
C846 C 0.46281 0.54502 0.93794 0.0
C847 C 0.47248 0.56644 0.95771 0.0
C848 C 0.49892 0.57371 0.97426 0.0
C849 C 0.51451 0.55858 0.97171 0.0
N850 N 0.50406 0.53696 0.95339 0.0
H851 H 0.47186 0.51455 0.92025 0.0
H852 H 0.53486 0.564 0.98453 0.0
C853 C 0.53711 0.45345 0.95748 0.0
N854 N 0.55145 0.48017 0.96041 0.0
C855 C 0.59254 0.47308 0.96139 0.0
C856 C 0.57799 0.44544 0.95647 0.0
C857 C 0.55009 0.43561 0.95585 0.0
C858 C 0.57876 0.49017 0.96332 0.0
H859 H 0.51535 0.44604 0.95476 0.0
H860 H 0.58954 0.51159 0.96506 0.0
C861 C 0.54383 0.52496 0.0276 0.0
C862 C 0.45486 0.44699 0.05826 0.0
N863 N 0.45919 0.50945 0.01549 0.0
C864 C 0.4717 0.53498 0.0263 0.0
C865 C 0.45638 0.54977 0.03075 0.0
C866 C 0.4279 0.53804 0.02418 0.0
C867 C 0.41566 0.51235 0.01092 0.0
C868 C 0.43179 0.49827 0.00694 0.0
C869 C 0.55473 0.54014 0.91023 0.0
O870 O 0.48558 0.47919 0.9748 0.0
O871 O 0.48577 0.47466 0.93121 0.0
O872 O 0.53845 0.51967 0.00139 0.0
O873 O 0.52568 0.51592 0.04165 0.0
O874 O 0.4477 0.442 0.03181 0.0
O875 O 0.47465 0.46847 0.0675 0.0
O876 O 0.56433 0.54672 0.9362 0.0
O877 O 0.53382 0.51909 0.90365 0.0
H878 H 0.49351 0.54319 0.03349 0.0
H879 H 0.42241 0.47771 -0.00105 0.0
H880 H 0.50576 0.39728 -0.00514 0.0
H881 H 0.57017 0.45263 0.05668 0.0
H882 H 0.44276 0.53937 0.92423 0.0
H883 H 0.50711 0.59037 0.9895 0.0
H884 H 0.61397 0.48172 0.96174 0.0
H885 H 0.53813 0.41444 0.95287 0.0
H886 H 0.46683 0.56935 0.0412 0.0
H887 H 0.39382 0.50271 0.00487 0.0
Cd888 Cd 1.00661 0.46915 0.53598 0.0
Cd889 Cd 0.0087 0.52018 0.4453 0.0
C890 C 0.06107 0.45866 0.57281 0.0
N891 N 0.04061 0.44881 0.54957 0.0
C892 C 0.05411 0.41108 0.54672 0.0
C893 C 0.07501 0.4203 0.57117 0.0
C894 C 0.07853 0.44483 0.58385 0.0
C895 C 0.03715 0.42556 0.53636 0.0
H896 H 0.06326 0.47682 0.58348 0.0
H897 H 0.02061 0.41771 0.51821 0.0
C898 C 0.97255 0.46053 0.46139 0.0
C899 C 0.96086 0.53569 0.40288 0.0
C900 C 0.94382 0.54967 0.39109 0.0
C901 C 0.94067 0.56881 0.40744 0.0
C902 C 0.95452 0.57247 0.43596 0.0
C903 C 0.97157 0.55814 0.4469 0.0
N904 N 0.97467 0.54027 0.43026 0.0
H905 H 0.96377 0.52172 0.38981 0.0
H906 H 0.98305 0.56201 0.46845 0.0
C907 C 0.01781 0.47673 0.40587 0.0
N908 N 0.02703 0.49009 0.43136 0.0
C909 C 0.06403 0.47435 0.44233 0.0
C910 C 0.05553 0.46088 0.41589 0.0
C911 C 0.03173 0.46182 0.39774 0.0
C912 C 0.0495 0.48887 0.44961 0.0
H913 H 1.00012 0.47828 0.3915 0.0
H914 H 0.05662 0.49985 0.46963 0.0
C915 C 0.04297 0.52793 0.51925 0.0
C916 C 0.97002 0.43236 0.56358 0.0
N917 N 0.98788 0.49889 0.55014 0.0
C918 C 0.99957 0.5155 0.57352 0.0
C919 C 0.98598 0.53058 0.58198 0.0
C920 C 0.95993 0.52825 0.56653 0.0
C921 C 0.94865 0.5112 0.5423 0.0
C922 C 0.963 0.49674 0.53447 0.0
C923 C 0.04687 0.55685 0.4191 0.0
O924 O 0.98898 0.47008 0.48471 0.0
O925 O 0.97352 0.47543 0.44036 0.0
O926 O 0.02545 0.51848 0.49653 0.0
O927 O 0.04229 0.51335 0.5405 0.0
O928 O 0.96554 0.43113 0.53685 0.0
O929 O 0.992 0.44987 0.57682 0.0
O930 O 0.05053 0.55783 0.44575 0.0
O931 O 0.02498 0.53969 0.40524 0.0
H932 H 0.01916 0.51661 0.58597 0.0
H933 H 0.954 0.48322 0.51614 0.0
H934 H 0.05059 0.3926 0.53576 0.0
H935 H 0.09394 0.45281 0.60288 0.0
H936 H 0.93341 0.54568 0.36918 0.0
H937 H 0.95313 0.5871 0.44948 0.0
H938 H 0.08196 0.47393 0.45723 0.0
H939 H 0.02448 0.45197 0.37708 0.0
H940 H 0.9954 0.54326 0.60094 0.0
H941 H 0.92882 0.50895 0.52951 0.0
Cd942 Cd 0.50844 0.97139 0.5364 0.0
Cd943 Cd 0.50919 0.01922 0.44263 0.0
C944 C 0.56637 0.96269 0.56752 0.0
N945 N 0.54217 0.9505 0.54908 0.0
C946 C 0.55094 0.90943 0.55121 0.0
C947 C 0.5758 0.92119 0.57084 0.0
C948 C 0.58352 0.94848 0.57849 0.0
C949 C 0.53448 0.92437 0.5407 0.0
H950 H 0.57197 0.98321 0.57465 0.0
H951 H 0.51499 0.91474 0.52651 0.0
C952 C 0.47082 0.96402 0.46423 0.0
C953 C 0.45851 0.03325 0.40311 0.0
C954 C 0.44158 0.04753 0.39188 0.0
C955 C 0.44233 0.06966 0.40699 0.0
C956 C 0.45999 0.07607 0.43384 0.0
C957 C 0.47669 0.06129 0.44426 0.0
N958 N 0.47589 0.04038 0.42879 0.0
H959 H 0.45836 0.01689 0.39085 0.0
H960 H 0.49099 0.06714 0.46434 0.0
C961 C 0.51193 0.97034 0.40569 0.0
N962 N 0.52482 0.98676 0.42907 0.0
C963 C 0.561 0.96987 0.43741 0.0
C964 C 0.5485 0.95295 0.41311 0.0
C965 C 0.52339 0.95313 0.39737 0.0
C966 C 0.54881 0.98663 0.44498 0.0
H967 H 0.49303 0.971 0.39314 0.0
H968 H 0.55878 -1e-05 0.46337 0.0
C969 C 0.54535 0.03008 0.51729 0.0
C970 C 0.47392 0.9335 0.5652 0.0
N971 N 0.4916 0.00211 0.55204 0.0
C972 C 0.50484 0.01842 0.57547 0.0
C973 C 0.49368 0.03567 0.58426 0.0
C974 C 0.46845 0.03598 0.56904 0.0
C975 C 0.45532 0.01885 0.54496 0.0
C976 C 0.4673 0.00211 0.53681 0.0
C977 C 0.544 0.05473 0.41222 0.0
O978 O 0.49037 0.97312 0.4855 0.0
O979 O 0.47111 0.97735 0.44206 0.0
O980 O 0.52931 0.02065 0.49374 0.0
O981 O 0.54365 0.01564 0.53866 0.0
O982 O 0.46856 0.9324 0.53843 0.0
O983 O 0.49523 0.95217 0.5779 0.0
O984 O 0.54875 0.05783 0.43884 0.0
O985 O 0.52279 0.03553 0.40027 0.0
H986 H 0.52402 0.01795 0.58745 0.0
H987 H 0.45708 0.98892 0.51833 0.0
H988 H 0.54401 0.88868 0.54417 0.0
H989 H 0.60217 0.95858 0.59376 0.0
H990 H 0.42817 0.04135 0.37134 0.0
H991 H 0.46173 0.09303 0.44633 0.0
H992 H 0.58011 0.97023 0.45049 0.0
H993 H 0.51307 0.94069 0.37835 0.0
H994 H 0.50447 0.04825 0.60311 0.0
H995 H 0.43606 0.01855 0.53232 0.0
C996 C 0.17958 0.21044 0.28422 0.0
C997 C 0.18322 0.20261 0.25889 0.0
C998 C 0.15864 0.19408 0.29593 0.0
C999 C 0.12436 0.12352 0.29999 0.0
H1000 H 0.09214 0.14749 0.35164 0.0
C1001 C 0.06791 0.05666 0.37927 0.0
C1002 C 0.07599 0.06789 0.40673 0.0
C1003 C 0.07748 0.07186 0.35754 0.0
C1004 C 0.10102 0.14059 0.33725 0.0
H1005 H 0.16546 0.17347 0.224 0.0
H1006 H 0.12898 0.14421 0.24489 0.0
H1007 H 0.11013 0.17734 0.316 0.0
H1008 H 0.10111 0.10318 0.43347 0.0
H1009 H 0.11783 0.12999 0.39521 0.0
H1010 H 0.11582 0.087 0.32182 0.0
C1011 C 0.14278 0.16288 0.25585 0.0
C1012 C 0.11109 0.15751 0.31679 0.0
C1013 C 0.16372 0.17953 0.24395 0.0
C1014 C 0.0947 0.09413 0.41245 0.0
C1015 C 0.10397 0.10948 0.3906 0.0
C1016 C 0.11403 0.10649 0.3203 0.0
C1017 C 0.14086 0.16951 0.28254 0.0
C1018 C 0.12383 0.14953 0.29872 0.0
C1019 C 0.09494 0.09858 0.36294 0.0
C1020 C 0.10322 0.11532 0.33968 0.0
H1021 H 0.19377 0.22853 0.29592 0.0
H1022 H 0.1578 0.19978 0.31656 0.0
H1023 H 0.13442 0.11696 0.28663 0.0
H1024 H 0.05358 0.03636 0.37445 0.0
H1025 H 0.07039 0.06307 0.33637 0.0
C1026 C 0.86075 0.18899 0.35496 0.0
C1027 C 0.83432 0.17049 0.35372 0.0
C1028 C 0.88123 0.1925 0.37921 0.0
C1029 C 0.89602 0.16721 0.45231 0.0
H1030 H 0.96184 0.1722 0.43054 0.0
C1031 C 0.96429 0.10765 0.49533 0.0
C1032 C 0.99218 0.11944 0.49622 0.0
C1033 C 0.94743 0.12239 0.48766 0.0
C1034 C 0.94391 0.17139 0.43729 0.0
H1035 H 0.80838 0.144 0.37904 0.0
H1036 H 0.84438 0.14774 0.41973 0.0
H1037 H 0.92739 0.18296 0.39747 0.0
H1038 H 0.02471 0.15666 0.49267 0.0
H1039 H 0.99509 0.18227 0.47841 0.0
H1040 H 0.91214 0.15285 0.49142 0.0
C1041 C 0.84938 0.16011 0.40227 0.0
C1042 C 0.92397 0.17772 0.41824 0.0
C1043 C 0.82864 0.15741 0.3784 0.0
C1044 C 1.00324 0.14694 0.49181 0.0
C1045 C 0.98633 0.16162 0.48377 0.0
C1046 C 0.91585 0.16024 0.47122 0.0
C1047 C 0.87628 0.1768 0.40257 0.0
C1048 C 0.89931 0.17496 0.42505 0.0
C1049 C 0.95812 0.14911 0.48026 0.0
C1050 C 0.93966 0.16162 0.46353 0.0
H1051 H 0.86638 0.19976 0.3368 0.0
H1052 H 0.90133 0.20654 0.37893 0.0
H1053 H 0.87772 0.16547 0.45876 0.0
H1054 H 0.95504 0.08642 0.49795 0.0
H1055 H 0.92574 0.11213 0.48488 0.0
C1056 C 0.78279 0.83215 0.2906 0.0
C1057 C 0.79779 0.82363 0.2758 0.0
C1058 C 0.79435 0.85688 0.30517 0.0
C1059 C 0.85612 0.91925 0.31829 0.0
H1060 H 0.84484 0.91364 0.3941 0.0
C1061 C 0.93347 0.9923 0.40417 0.0
C1062 C 0.94202 0.97965 0.42819 0.0
C1063 C 0.90903 0.97904 0.38524 0.0
C1064 C 0.84817 0.9156 0.37299 0.0
H1065 H 0.83603 0.83417 0.26371 0.0
H1066 H 0.85681 0.87686 0.28997 0.0
H1067 H 0.81515 0.87919 0.35867 0.0
H1068 H 0.93115 0.94422 0.4525 0.0
H1069 H 0.88926 0.92041 0.41885 0.0
H1070 H 0.89081 0.95411 0.33326 0.0
C1071 C 0.83582 0.86507 0.28968 0.0
C1072 C 0.83087 0.89602 0.35249 0.0
C1073 C 0.82405 0.84053 0.27472 0.0
C1074 C 0.92503 0.95428 0.43398 0.0
C1075 C 0.90084 0.9408 0.41479 0.0
C1076 C 0.87371 0.93855 0.33891 0.0
C1077 C 0.82132 0.87325 0.30564 0.0
C1078 C 0.83545 0.89699 0.32524 0.0
C1079 C 0.89302 0.95268 0.3897 0.0
C1080 C 0.87068 0.93624 0.36681 0.0
H1081 H 0.76223 0.81952 0.29121 0.0
H1082 H 0.78243 0.86279 0.31674 0.0
H1083 H 0.85973 0.92096 0.2973 0.0
H1084 H 0.94606 0.01214 0.39959 0.0
H1085 H 0.90328 0.98902 0.36652 0.0
C1086 C 0.16019 0.82987 0.32361 0.0
C1087 C 0.17471 0.84836 0.30644 0.0
C1088 C 0.15169 0.83863 0.34509 0.0
C1089 C 0.11935 0.86309 0.37174 0.0
H1090 H 0.16398 0.92771 0.41758 0.0
C1091 C 0.07559 0.93098 0.41522 0.0
C1092 C 0.08693 0.94225 0.44275 0.0
C1093 C 0.08706 0.91592 0.40349 0.0
C1094 C 0.15139 0.9094 0.40529 0.0
H1095 H 0.19287 0.89054 0.29918 0.0
H1096 H 0.17806 0.90581 0.33654 0.0
H1097 H 0.18413 0.90831 0.38846 0.0
H1098 H 0.11919 0.94584 0.47961 0.0
H1099 H 0.13983 0.9201 0.45853 0.0
H1100 H 0.08639 0.86474 0.38776 0.0
C1101 C 0.17322 0.88456 0.33348 0.0
C1102 C 0.16285 0.89844 0.38842 0.0
C1103 C 0.18145 0.8758 0.31188 0.0
C1104 C 0.11009 0.93782 0.45826 0.0
C1105 C 0.12184 0.92295 0.44628 0.0
C1106 C 0.10784 0.87419 0.38839 0.0
C1107 C 0.15787 0.86608 0.35005 0.0
C1108 C 0.1468 0.87554 0.37093 0.0
C1109 C 0.11045 0.91195 0.41871 0.0
C1110 C 0.12358 0.89785 0.40477 0.0
H1111 H 0.15463 0.80859 0.31983 0.0
H1112 H 0.14 0.82393 0.35761 0.0
H1113 H 0.10639 0.84554 0.35841 0.0
H1114 H 0.05828 0.93448 0.40219 0.0
H1115 H 0.07815 0.9082 0.38199 0.0
C1116 C 0.17424 0.84321 0.64021 0.0
C1117 C 0.15921 0.83012 0.65995 0.0
C1118 C 0.16105 0.84565 0.61271 0.0
C1119 C 0.09654 0.81642 0.56076 0.0
H1120 H 0.1095 0.88856 0.53567 0.0
C1121 C 0.04446 0.88647 0.48428 0.0
C1122 C 0.01978 0.87572 0.49266 0.0
C1123 C 0.06428 0.87512 0.49292 0.0
C1124 C 0.10607 0.86811 0.54161 0.0
H1125 H 0.11881 0.80902 0.66647 0.0
H1126 H 0.09573 0.81328 0.61845 0.0
H1127 H 0.14042 0.8807 0.57643 0.0
H1128 H 0.99469 0.84272 0.51278 0.0
H1129 H 0.02891 0.82304 0.52807 0.0
H1130 H 0.06155 0.80391 0.5267 0.0
C1131 C 0.11768 0.82153 0.62419 0.0
C1132 C 0.12377 0.86369 0.56518 0.0
C1133 C 0.13082 0.81946 0.65174 0.0
C1134 C 0.0137 0.85142 0.50624 0.0
C1135 C 0.03342 0.84011 0.5149 0.0
C1136 C 0.07903 0.82077 0.53696 0.0
C1137 C 0.13266 0.83458 0.60442 0.0
C1138 C 0.11824 0.83806 0.57586 0.0
C1139 C 0.05961 0.85294 0.51013 0.0
C1140 C 0.0826 0.84691 0.52819 0.0
H1141 H 0.19619 0.8516 0.64609 0.0
H1142 H 0.173 0.85597 0.59789 0.0
H1143 H 0.09224 0.79635 0.5683 0.0
H1144 H 0.04953 0.90517 0.47377 0.0
H1145 H 0.08403 0.88511 0.4883 0.0
C1146 C 0.22588 0.16204 0.68367 0.0
C1147 C 0.21483 0.17207 0.70196 0.0
C1148 C 0.2095 0.14008 0.66547 0.0
C1149 C 0.14216 0.1137 0.62467 0.0
H1150 H 0.15164 0.04637 0.61662 0.0
C1151 C 0.06815 0.00729 0.5751 0.0
C1152 C 0.05776 0.014 0.54799 0.0
C1153 C 0.09222 0.02486 0.59155 0.0
C1154 C 0.14907 0.06526 0.61852 0.0
H1155 H 0.17841 0.16692 0.71607 0.0
H1156 H 0.14962 0.12867 0.68402 0.0
H1157 H 0.18387 0.08004 0.65292 0.0
H1158 H 0.06555 0.04307 0.51585 0.0
H1159 H 0.10724 0.0743 0.54507 0.0
H1160 H 0.10746 0.09918 0.59057 0.0
C1161 C 0.17102 0.13757 0.68415 0.0
C1162 C 0.16733 0.08434 0.6392 0.0
C1163 C 0.18749 0.15922 0.70265 0.0
C1164 C 0.07287 0.0376 0.53681 0.0
C1165 C 0.09673 0.0554 0.55344 0.0
C1166 C 0.12431 0.09495 0.60374 0.0
C1167 C 0.1818 0.12831 0.66502 0.0
C1168 C 0.16357 0.1084 0.64271 0.0
C1169 C 0.10604 0.04951 0.58123 0.0
C1170 C 0.12737 0.07043 0.60078 0.0
H1171 H 0.24698 0.17172 0.68283 0.0
H1172 H 0.2181 0.13326 0.65073 0.0
H1173 H 0.13916 0.13232 0.62692 0.0
H1174 H 0.05706 0.98902 0.5841 0.0
H1175 H 0.09898 0.01999 0.61299 0.0
C1176 C 0.85314 0.16544 0.66128 0.0
C1177 C 0.84698 0.14889 0.68379 0.0
C1178 C 0.85828 0.15579 0.63792 0.0
C1179 C 0.85146 0.09272 0.60268 0.0
H1180 H 0.91291 0.1386 0.57415 0.0
C1181 C 0.89281 0.04885 0.52724 0.0
C1182 C 0.92103 0.05535 0.53511 0.0
C1183 C 0.88068 0.06395 0.53804 0.0
C1184 C 0.89566 0.12553 0.58183 0.0
H1185 H 0.84069 0.10897 0.69891 0.0
H1186 H 0.8507 0.09253 0.65891 0.0
H1187 H 0.89721 0.15669 0.60867 0.0
H1188 H 0.95884 0.08449 0.55808 0.0
H1189 H 0.93778 0.11006 0.57774 0.0
H1190 H 0.85107 0.06109 0.57752 0.0
C1191 C 0.85105 0.11282 0.65895 0.0
C1192 C 0.88644 0.13599 0.60141 0.0
C1193 C 0.84575 0.12239 0.68218 0.0
C1194 C 0.93697 0.07849 0.55221 0.0
C1195 C 0.92487 0.09346 0.56314 0.0
C1196 C 0.86083 0.08221 0.58335 0.0
C1197 C 0.85752 0.12942 0.63657 0.0
C1198 C 0.86478 0.11947 0.61277 0.0
C1199 C 0.89649 0.08576 0.55708 0.0
C1200 C 0.8836 0.09826 0.57334 0.0
H1201 H 0.85452 0.18604 0.66191 0.0
H1202 H 0.86297 0.16906 0.62098 0.0
H1203 H 0.83431 0.07958 0.61046 0.0
H1204 H 0.87987 0.03118 0.51408 0.0
H1205 H 0.8588 0.05781 0.53241 0.0
C1206 C 0.84899 0.81157 0.72935 0.0
C1207 C 0.83485 0.78395 0.72573 0.0
C1208 C 0.86833 0.82409 0.71377 0.0
C1209 C 0.87097 0.81378 0.64337 0.0
H1210 H 0.9322 0.88083 0.65801 0.0
C1211 C 0.90995 0.8826 0.55559 0.0
C1212 C 0.91826 0.91005 0.56186 0.0
C1213 C 0.90304 0.86425 0.57626 0.0
C1214 C 0.91504 0.86212 0.65363 0.0
H1215 H 0.83199 0.74709 0.70664 0.0
H1216 H 0.86587 0.76893 0.67945 0.0
H1217 H 0.91946 0.85322 0.69719 0.0
H1218 H 0.92382 0.93999 0.59326 0.0
H1219 H 0.91045 0.908 0.62881 0.0
H1220 H 0.86537 0.82337 0.60012 0.0
C1221 C 0.86188 0.78099 0.69384 0.0
C1222 C 0.908 0.84627 0.676 0.0
C1223 C 0.84254 0.76855 0.70931 0.0
C1224 C 0.91753 0.91884 0.58809 0.0
C1225 C 0.91036 0.90059 0.60854 0.0
C1226 C 0.87787 0.82972 0.62106 0.0
C1227 C 0.8735 0.80898 0.69449 0.0
C1228 C 0.88534 0.82243 0.67112 0.0
C1229 C 0.90417 0.87325 0.60324 0.0
C1230 C 0.8993 0.85452 0.62612 0.0
H1231 H 0.84311 0.82377 0.74167 0.0
H1232 H 0.87693 0.84574 0.71456 0.0
H1233 H 0.85311 0.79565 0.63903 0.0
H1234 H 0.91079 0.8755 0.53556 0.0
H1235 H 0.8982 0.84325 0.57157 0.0
C1236 C 0.31805 0.13355 0.1492 0.0
C1237 C 0.30774 0.14819 0.12815 0.0
C1238 C 0.3357 0.12128 0.14451 0.0
C1239 C 0.38293 0.1229 0.09964 0.0
H1240 H 0.36837 0.0489 0.11888 0.0
C1241 C 0.45344 0.06615 0.08756 0.0
C1242 C 0.4405 0.04016 0.07509 0.0
C1243 C 0.43837 0.0799 0.09545 0.0
C1244 C 0.37271 0.06957 0.11335 0.0
H1245 H 0.30882 0.16227 0.0861 0.0
H1246 H 0.33967 0.14122 0.07807 0.0
H1247 H 0.34067 0.07232 0.13038 0.0
H1248 H 0.40152 0.00813 0.06179 0.0
H1249 H 0.37533 0.03199 0.07567 0.0
H1250 H 0.4148 0.12008 0.08238 0.0
C1251 C 0.33406 0.13904 0.09815 0.0
C1252 C 0.35698 0.08308 0.12019 0.0
C1253 C 0.3162 0.15096 0.10269 0.0
C1254 C 0.41214 0.0282 0.07107 0.0
C1255 C 0.39714 0.04179 0.07929 0.0
C1256 C 0.39888 0.1095 0.09312 0.0
C1257 C 0.34381 0.12374 0.11883 0.0
C1258 C 0.36167 0.10985 0.11315 0.0
C1259 C 0.41001 0.06789 0.09148 0.0
C1260 C 0.3938 0.08255 0.0996 0.0
H1261 H 0.31185 0.1309 0.16898 0.0
H1262 H 0.34297 0.10983 0.16099 0.0
H1263 H 0.38726 0.14356 0.09408 0.0
H1264 H 0.47521 0.07603 0.09083 0.0
H1265 H 0.44898 0.09989 0.10493 0.0
C1266 C 0.79556 0.2972 0.19015 0.0
C1267 C 0.80549 0.30261 0.21918 0.0
C1268 C 0.8101 0.31246 0.17135 0.0
C1269 C 0.86701 0.37554 0.16586 0.0
H1270 H 0.87202 0.33629 0.10389 0.0
C1271 C 0.95249 0.41728 0.10765 0.0
C1272 C 0.94552 0.41544 0.07815 0.0
C1273 C 0.93334 0.40391 0.12305 0.0
C1274 C 0.87052 0.34755 0.12087 0.0
H1275 H 0.83697 0.32934 0.25146 0.0
H1276 H 0.86328 0.35557 0.21872 0.0
H1277 H 0.84188 0.31314 0.13438 0.0
H1278 H 0.91319 0.39755 0.0416 0.0
H1279 H 0.87955 0.37366 0.06881 0.0
H1280 H 0.89627 0.40983 0.15263 0.0
C1281 C 0.84416 0.33965 0.21033 0.0
C1282 C 0.85327 0.33433 0.13838 0.0
C1283 C 0.82933 0.32453 0.22913 0.0
C1284 C 0.91912 0.3993 0.06433 0.0
C1285 C 0.89992 0.38566 0.07985 0.0
C1286 C 0.88438 0.38871 0.14846 0.0
C1287 C 0.83492 0.33347 0.18122 0.0
C1288 C 0.85165 0.34806 0.16138 0.0
C1289 C 0.90681 0.38824 0.10934 0.0
C1290 C 0.88662 0.37473 0.12611 0.0
H1291 H 0.77649 0.28124 0.18187 0.0
H1292 H 0.80192 0.30768 0.14908 0.0
H1293 H 0.86578 0.38688 0.18292 0.0
H1294 H 0.97267 0.42952 0.11896 0.0
H1295 H 0.93931 0.40582 0.14578 0.0
C1296 C 0.72434 0.79946 0.19374 0.0
C1297 C 0.70994 0.77177 0.19407 0.0
C1298 C 0.71183 0.81636 0.17854 0.0
C1299 C 0.65069 0.81569 0.12285 0.0
H1300 H 0.66369 0.884 0.15783 0.0
C1301 C 0.5806 0.87627 0.0818 0.0
C1302 C 0.59165 0.90448 0.08345 0.0
C1303 C 0.59617 0.86096 0.09414 0.0
C1304 C 0.65997 0.86519 0.14741 0.0
H1305 H 0.6712 0.74031 0.17829 0.0
H1306 H 0.64958 0.76933 0.15194 0.0
H1307 H 0.68918 0.85644 0.18012 0.0
H1308 H 0.62853 0.93833 0.09946 0.0
H1309 H 0.65556 0.91183 0.12069 0.0
H1310 H 0.62147 0.82428 0.0902 0.0
C1311 C 0.6706 0.77822 0.16302 0.0
C1312 C 0.67473 0.84927 0.1603 0.0
C1313 C 0.68302 0.76146 0.17827 0.0
C1314 C 0.61897 0.91675 0.09791 0.0
C1315 C 0.63458 0.90142 0.11022 0.0
C1316 C 0.636 0.8316 0.10994 0.0
C1317 C 0.68455 0.80607 0.16321 0.0
C1318 C 0.67017 0.82407 0.14843 0.0
C1319 C 0.6235 0.87318 0.10863 0.0
C1320 C 0.6401 0.85657 0.12208 0.0
H1321 H 0.74496 0.80821 0.20596 0.0
H1322 H 0.72348 0.83758 0.17905 0.0
H1323 H 0.64678 0.79673 0.1126 0.0
H1324 H 0.55959 0.86583 0.07147 0.0
H1325 H 0.58646 0.83939 0.09277 0.0
C1326 C 0.23425 0.69371 0.15719 0.0
C1327 C 0.22574 0.71397 0.16397 0.0
C1328 C 0.22141 0.67819 0.1323 0.0
C1329 C 0.17534 0.63403 0.09782 0.0
H1330 H 0.13144 0.65285 0.03199 0.0
C1331 C 0.06932 0.56732 0.05236 0.0
C1332 C 0.0647 0.5545 0.02634 0.0
C1333 C 0.09233 0.58994 0.06139 0.0
C1334 C 0.14406 0.64743 0.04992 0.0
H1335 H 0.19932 0.73581 0.14819 0.0
H1336 H 0.1754 0.70764 0.10599 0.0
H1337 H 0.1696 0.68821 0.06166 0.0
H1338 H 0.07967 0.55569 0.98873 0.0
H1339 H 0.12048 0.59599 0.00473 0.0
H1340 H 0.14913 0.59349 0.08676 0.0
C1341 C 0.19233 0.70389 0.11954 0.0
C1342 C 0.16566 0.66758 0.0671 0.0
C1343 C 0.20574 0.71987 0.14412 0.0
C1344 C 0.08265 0.56561 0.00865 0.0
C1345 C 0.10595 0.58843 0.0178 0.0
C1346 C 0.154 0.61407 0.08067 0.0
C1347 C 0.19921 0.68206 0.11393 0.0
C1348 C 0.18079 0.66116 0.09197 0.0
C1349 C 0.11122 0.60013 0.04463 0.0
C1350 C 0.13754 0.62069 0.05735 0.0
H1351 H 0.25032 0.6892 0.17148 0.0
H1352 H 0.22801 0.66225 0.12821 0.0
H1353 H 0.18608 0.6281 0.11687 0.0
H1354 H 0.05565 0.5592 0.06627 0.0
H1355 H 0.09607 0.5988 0.08212 0.0
C1356 C 0.34 0.77432 0.82409 0.0
C1357 C 0.31182 0.7625 0.82103 0.0
C1358 C 0.35651 0.78816 0.84912 0.0
C1359 C 0.35038 0.82636 0.90573 0.0
H1360 H 0.42772 0.84177 0.92896 0.0
C1361 C 0.42676 0.93034 0.93855 0.0
C1362 C 0.45132 0.93445 0.95805 0.0
C1363 C 0.40784 0.90461 0.93138 0.0
C1364 C 0.40606 0.83733 0.92332 0.0
H1365 H 0.27918 0.75323 0.8428 0.0
H1366 H 0.30801 0.77693 0.88662 0.0
H1367 H 0.3988 0.80232 0.89869 0.0
H1368 H 0.47499 0.91512 0.98638 0.0
H1369 H 0.44173 0.8696 0.97358 0.0
H1370 H 0.35774 0.86176 0.92965 0.0
C1371 C 0.31732 0.77629 0.86944 0.0
C1372 C 0.38952 0.81491 0.90564 0.0
C1373 C 0.30081 0.76264 0.84435 0.0
C1374 C 0.45605 0.91242 0.97145 0.0
C1375 C 0.43715 0.88644 0.96397 0.0
C1376 C 0.36687 0.84864 0.92348 0.0
C1377 C 0.34522 0.79025 0.87172 0.0
C1378 C 0.36168 0.80988 0.89555 0.0
C1379 C 0.41314 0.88227 0.94331 0.0
C1380 C 0.39506 0.85513 0.93131 0.0
H1381 H 0.34915 0.77454 0.80661 0.0
H1382 H 0.37783 0.7988 0.84991 0.0
H1383 H 0.3291 0.82332 0.89838 0.0
H1384 H 0.42262 0.94701 0.92791 0.0
H1385 H 0.3898 0.90219 0.91511 0.0
C1386 C 0.1566 0.3132 0.82712 0.0
C1387 C 0.16924 0.30079 0.84883 0.0
C1388 C 0.14503 0.33126 0.83322 0.0
C1389 C 0.14418 0.37337 0.89179 0.0
H1390 H 0.07464 0.36943 0.8455 0.0
C1391 C 0.07791 0.42354 0.92737 0.0
C1392 C 0.06415 0.43634 0.90719 0.0
C1393 C 0.09124 0.40801 0.91943 0.0
C1394 C 0.09421 0.37105 0.85849 0.0
H1395 H 0.18059 0.29881 0.89411 0.0
H1396 H 0.16012 0.32958 0.90463 0.0
H1397 H 0.09752 0.34149 0.83297 0.0
H1398 H 0.05399 0.44269 0.86258 0.0
H1399 H 0.07696 0.41544 0.84877 0.0
H1400 H 0.1407 0.40266 0.91751 0.0
C1401 C 0.15918 0.32558 0.88285 0.0
C1402 C 0.10741 0.35502 0.85125 0.0
C1403 C 0.17068 0.30759 0.87677 0.0
C1404 C 0.06393 0.43286 0.87875 0.0
C1405 C 0.0772 0.41723 0.87079 0.0
C1406 C 0.13095 0.38931 0.89907 0.0
C1407 C 0.1459 0.33751 0.86119 0.0
C1408 C 0.1325 0.35574 0.86794 0.0
C1409 C 0.09118 0.40469 0.89103 0.0
C1410 C 0.10565 0.38823 0.88268 0.0
H1411 H 0.15497 0.30842 0.80536 0.0
H1412 H 0.13533 0.34027 0.81595 0.0
H1413 H 0.1637 0.37497 0.90489 0.0
H1414 H 0.07818 0.42527 0.94941 0.0
H1415 H 0.10133 0.39829 0.9356 0.0
C1416 C 0.68131 0.17568 0.75407 0.0
C1417 C 0.70699 0.19456 0.76561 0.0
C1418 C 0.6661 0.15877 0.77143 0.0
C1419 C 0.6668 0.13395 0.84301 0.0
H1420 H 0.59377 0.13472 0.82584 0.0
C1421 C 0.59149 0.09152 0.91576 0.0
C1422 C 0.56528 0.07501 0.90181 0.0
C1423 C 0.61025 0.1065 0.90036 0.0
C1424 C 0.61403 0.13416 0.8308 0.0
H1425 H 0.73746 0.21016 0.80408 0.0
H1426 H 0.71082 0.18056 0.83454 0.0
H1427 H 0.62443 0.15746 0.79587 0.0
H1428 H 0.538 0.06151 0.86099 0.0
H1429 H 0.57055 0.08752 0.83434 0.0
H1430 H 0.65613 0.11052 0.87809 0.0
C1431 C 0.70262 0.17852 0.81205 0.0
C1432 C 0.63153 0.14704 0.81356 0.0
C1433 C 0.71788 0.19544 0.79463 0.0
C1434 C 0.55801 0.07411 0.87235 0.0
C1435 C 0.57663 0.08909 0.85706 0.0
C1436 C 0.64917 0.12095 0.86033 0.0
C1437 C 0.67617 0.1608 0.80068 0.0
C1438 C 0.65795 0.14678 0.81925 0.0
C1439 C 0.60295 0.10532 0.87086 0.0
C1440 C 0.62251 0.12068 0.85412 0.0
H1441 H 0.67258 0.17476 0.73173 0.0
H1442 H 0.64593 0.14492 0.76209 0.0
H1443 H 0.68712 0.13355 0.84787 0.0
H1444 H 0.59763 0.09249 0.93847 0.0
H1445 H 0.63039 0.11904 0.91147 0.0
C1446 C 0.7778 0.67376 0.79608 0.0
C1447 C 0.7875 0.69961 0.78593 0.0
C1448 C 0.79557 0.66239 0.81231 0.0
C1449 C 0.86727 0.66637 0.82613 0.0
H1450 H 0.84615 0.61689 0.88407 0.0
C1451 C 0.92267 0.59252 0.8678 0.0
C1452 C 0.92599 0.58621 0.89638 0.0
C1453 C 0.90703 0.60796 0.85618 0.0
C1454 C 0.85263 0.63079 0.86814 0.0
H1455 H 0.82388 0.7339 0.78531 0.0
H1456 H 0.85507 0.71423 0.81393 0.0
H1457 H 0.81756 0.64172 0.86236 0.0
H1458 H 0.91488 0.59166 0.93492 0.0
H1459 H 0.88797 0.61867 0.91484 0.0
H1460 H 0.90239 0.6555 0.83198 0.0
C1461 C 0.83354 0.70262 0.80923 0.0
C1462 C 0.83597 0.64493 0.85539 0.0
C1463 C 0.81562 0.71411 0.79308 0.0
C1464 C 0.91311 0.59609 0.91292 0.0
C1465 C 0.89734 0.61145 0.90125 0.0
C1466 C 0.88387 0.65213 0.83879 0.0
C1467 C 0.82384 0.67633 0.81873 0.0
C1468 C 0.84281 0.66279 0.83393 0.0
C1469 C 0.89399 0.61769 0.87263 0.0
C1470 C 0.87675 0.63385 0.85986 0.0
H1471 H 0.75631 0.66191 0.79072 0.0
H1472 H 0.7871 0.64209 0.81876 0.0
H1473 H 0.8733 0.67967 0.8096 0.0
H1474 H 0.93245 0.58579 0.85428 0.0
H1475 H 0.90486 0.61191 0.83405 0.0
C1476 C 0.20074 0.27702 0.18966 0.0
C1477 C 0.2289 0.29141 0.1972 0.0
C1478 C 0.18296 0.28893 0.17387 0.0
C1479 C 0.18055 0.35718 0.15709 0.0
H1480 H 0.11484 0.31929 0.10197 0.0
C1481 C 0.11685 0.41435 0.08965 0.0
C1482 C 0.08832 0.40224 0.08264 0.0
C1483 C 0.13326 0.39997 0.10241 0.0
C1484 C 0.13295 0.33023 0.11751 0.0
H1485 H 0.26029 0.32918 0.19303 0.0
H1486 H 0.22986 0.34951 0.16539 0.0
H1487 H 0.1441 0.29553 0.12553 0.0
H1488 H 0.05514 0.36484 0.0841 0.0
H1489 H 0.08357 0.33998 0.10619 0.0
H1490 H 0.16952 0.39175 0.14945 0.0
C1491 C 0.22115 0.32931 0.17201 0.0
C1492 C 0.14984 0.31649 0.13109 0.0
C1493 C 0.23875 0.3175 0.18768 0.0
C1494 C 0.07693 0.37501 0.08864 0.0
C1495 C 0.09337 0.36061 0.10143 0.0
C1496 C 0.16374 0.37085 0.14359 0.0
C1497 C 0.19284 0.31562 0.16543 0.0
C1498 C 0.17411 0.32979 0.151 0.0
C1499 C 0.12189 0.37286 0.10877 0.0
C1500 C 0.13967 0.35776 0.12338 0.0
H1501 H 0.19236 0.25702 0.19691 0.0
H1502 H 0.16137 0.27758 0.16936 0.0
H1503 H 0.19855 0.36819 0.17274 0.0
H1504 H 0.12667 0.43502 0.08502 0.0
H1505 H 0.15505 0.4102 0.10702 0.0
C1506 C 0.19025 0.66475 0.75208 0.0
C1507 C 0.21374 0.68643 0.76382 0.0
C1508 C 0.17197 0.65113 0.76848 0.0
C1509 C 0.15195 0.65852 0.83413 0.0
H1510 H 0.11703 0.58138 0.82524 0.0
C1511 C 0.08746 0.59349 0.90888 0.0
C1512 C 0.06343 0.57276 0.89599 0.0
C1513 C 0.10581 0.60834 0.89299 0.0
C1514 C 0.12643 0.60296 0.82776 0.0
H1515 H 0.2379 0.70947 0.80225 0.0
H1516 H 0.20615 0.6858 0.83091 0.0
H1517 H 0.14932 0.60492 0.79701 0.0
H1518 H 0.0394 0.55185 0.85628 0.0
H1519 H 0.07127 0.57778 0.82871 0.0
H1520 H 0.12912 0.65641 0.86511 0.0
C1521 C 0.20121 0.6799 0.80886 0.0
C1522 C 0.14488 0.61644 0.81156 0.0
C1523 C 0.21936 0.69356 0.79243 0.0
C1524 C 0.05781 0.5676 0.86688 0.0
C1525 C 0.07613 0.58233 0.85109 0.0
C1526 C 0.13353 0.64499 0.85043 0.0
C1527 C 0.17719 0.65868 0.79702 0.0
C1528 C 0.15775 0.64438 0.81445 0.0
C1529 C 0.10048 0.6026 0.86401 0.0
C1530 C 0.12046 0.61709 0.84726 0.0
H1531 H 0.18584 0.65867 0.73014 0.0
H1532 H 0.15356 0.63496 0.75869 0.0
H1533 H 0.16133 0.68009 0.83665 0.0
H1534 H 0.09234 0.59789 0.93129 0.0
H1535 H 0.12452 0.62377 0.90352 0.0
C1536 C 0.33752 0.23142 0.80157 0.0
C1537 C 0.31019 0.22129 0.7869 0.0
C1538 C 0.3501 0.21458 0.81623 0.0
C1539 C 0.33865 0.14732 0.84664 0.0
H1540 H 0.41117 0.16075 0.83695 0.0
C1541 C 0.40907 0.09264 0.90939 0.0
C1542 C 0.42491 0.08501 0.89468 0.0
C1543 C 0.39399 0.10843 0.89694 0.0
C1544 C 0.39089 0.1565 0.83985 0.0
H1545 H 0.27456 0.18515 0.77663 0.0
H1546 H 0.2964 0.15561 0.80279 0.0
H1547 H 0.38669 0.18905 0.81472 0.0
H1548 H 0.43726 0.08878 0.8551 0.0
H1549 H 0.41119 0.11596 0.8336 0.0
H1550 H 0.343 0.11459 0.87177 0.0
C1551 C 0.30811 0.1768 0.80301 0.0
C1552 C 0.37687 0.17302 0.82727 0.0
C1553 C 0.2955 0.19375 0.78805 0.0
C1554 C 0.42516 0.09382 0.86714 0.0
C1555 C 0.41035 0.10977 0.85483 0.0
C1556 C 0.35286 0.13089 0.85953 0.0
C1557 C 0.33586 0.18687 0.81675 0.0
C1558 C 0.3505 0.16878 0.8304 0.0
C1559 C 0.39452 0.11744 0.86948 0.0
C1560 C 0.37921 0.13514 0.85624 0.0
H1561 H 0.34949 0.25249 0.80114 0.0
H1562 H 0.37127 0.22332 0.82692 0.0
H1563 H 0.3185 0.14342 0.84972 0.0
H1564 H 0.40811 0.08622 0.93053 0.0
H1565 H 0.38228 0.114 0.90907 0.0
C1566 C 0.79604 0.30674 0.82848 0.0
C1567 C 0.79384 0.28022 0.82437 0.0
C1568 C 0.8095 0.32041 0.85431 0.0
C1569 C 0.86621 0.32477 0.91051 0.0
H1570 H 0.84577 0.37796 0.94093 0.0
C1571 C 0.94783 0.41615 0.97374 0.0
C1572 C 0.94577 0.43961 0.96141 0.0
C1573 C 0.92549 0.39204 0.96827 0.0
C1574 C 0.85171 0.36301 0.93295 0.0
H1575 H 0.80188 0.2465 0.84515 0.0
H1576 H 0.82675 0.27098 0.88995 0.0
H1577 H 0.81161 0.34248 0.90841 0.0
H1578 H 0.91868 0.45698 0.93551 0.0
H1579 H 0.88001 0.41535 0.92584 0.0
H1580 H 0.90672 0.34653 0.93294 0.0
C1581 C 0.81802 0.28107 0.87302 0.0
C1582 C 0.83215 0.34272 0.9144 0.0
C1583 C 0.80406 0.2672 0.84726 0.0
C1584 C 0.92073 0.43909 0.94522 0.0
C1585 C 0.89848 0.41521 0.93995 0.0
C1586 C 0.88584 0.34523 0.92887 0.0
C1587 C 0.82127 0.30796 0.87659 0.0
C1588 C 0.83956 0.32429 0.90188 0.0
C1589 C 0.90082 0.3912 0.95051 0.0
C1590 C 0.87908 0.36544 0.93899 0.0
H1591 H 0.78814 0.31736 0.81151 0.0
H1592 H 0.81195 0.34123 0.85635 0.0
H1593 H 0.87249 0.31085 0.9011 0.0
H1594 H 0.96708 0.41611 0.9861 0.0
H1595 H 0.92787 0.37388 0.9768 0.0
C1596 C 0.70383 0.84088 0.88262 0.0
C1597 C 0.70963 0.84199 0.8559 0.0
C1598 C 0.68589 0.85223 0.88811 0.0
C1599 C 0.6317 0.87838 0.85424 0.0
H1600 H 0.65104 0.91496 0.92694 0.0
C1601 C 0.57603 0.94512 0.8823 0.0
C1602 C 0.57157 0.94407 0.90966 0.0
C1603 C 0.59175 0.93186 0.87491 0.0
C1604 C 0.64508 0.90457 0.90665 0.0
H1605 H 0.70032 0.85543 0.81374 0.0
H1606 H 0.66908 0.87548 0.82333 0.0
H1607 H 0.68007 0.89354 0.9154 0.0
H1608 H 0.57961 0.92719 0.95033 0.0
H1609 H 0.60703 0.90435 0.93754 0.0
H1610 H 0.59678 0.88978 0.8455 0.0
C1611 C 0.67828 0.86556 0.84005 0.0
C1612 C 0.66179 0.8922 0.9 0.0
C1613 C 0.69623 0.85405 0.83451 0.0
C1614 C 0.58296 0.92898 0.92924 0.0
C1615 C 0.59874 0.91582 0.92188 0.0
C1616 C 0.61499 0.89087 0.86089 0.0
C1617 C 0.67318 0.8652 0.8671 0.0
C1618 C 0.65531 0.87874 0.87376 0.0
C1619 C 0.60358 0.91724 0.89468 0.0
C1620 C 0.62137 0.90402 0.88727 0.0
H1621 H 0.71331 0.83127 0.89947 0.0
H1622 H 0.68201 0.85083 0.90897 0.0
H1623 H 0.62581 0.86802 0.83395 0.0
H1624 H 0.568 0.95681 0.8667 0.0
H1625 H 0.59525 0.93371 0.85387 0.0
C1626 C 0.84146 0.67845 0.10589 0.0
C1627 C 0.84869 0.69055 0.13289 0.0
C1628 C 0.85316 0.66065 0.09971 0.0
C1629 C 0.89532 0.62028 0.13264 0.0
H1630 H 0.90759 0.62099 0.05762 0.0
C1631 C 0.93738 0.54547 0.09539 0.0
C1632 C 0.95378 0.55376 0.07578 0.0
C1633 C 0.92437 0.56164 0.10275 0.0
C1634 C 0.90472 0.62066 0.07882 0.0
H1635 H 0.8736 0.69299 0.17476 0.0
H1636 H 0.89473 0.66258 0.16393 0.0
H1637 H 0.88605 0.64983 0.07005 0.0
H1638 H 0.96987 0.58595 0.04908 0.0
H1639 H 0.94813 0.61451 0.0625 0.0
H1640 H 0.91524 0.59202 0.14175 0.0
C1641 C 0.87952 0.66631 0.14752 0.0
C1642 C 0.89178 0.63698 0.08587 0.0
C1643 C 0.86746 0.68386 0.1538 0.0
C1644 C 0.95712 0.5788 0.064 0.0
C1645 C 0.94445 0.59514 0.07164 0.0
C1646 C 0.90858 0.60416 0.12568 0.0
C1647 C 0.87285 0.65467 0.12023 0.0
C1648 C 0.88673 0.63704 0.11287 0.0
C1649 C 0.92765 0.58678 0.09099 0.0
C1650 C 0.9135 0.60405 0.09861 0.0
H1651 H 0.82675 0.68287 0.08939 0.0
H1652 H 0.84672 0.65164 0.07869 0.0
H1653 H 0.89163 0.61936 0.15355 0.0
H1654 H 0.93405 0.52614 0.10459 0.0
H1655 H 0.91129 0.55408 0.11728 0.0
C1656 C 0.3 0.79709 0.19159 0.0
C1657 C 0.31201 0.79859 0.2204 0.0
C1658 C 0.31463 0.81298 0.17309 0.0
C1659 C 0.38461 0.84107 0.16775 0.0
H1660 H 0.36039 0.8796 0.10493 0.0
C1661 C 0.45797 0.91185 0.10773 0.0
C1662 C 0.44993 0.91221 0.0784 0.0
C1663 C 0.43953 0.89709 0.12328 0.0
C1664 C 0.36719 0.86855 0.12216 0.0
H1665 H 0.34781 0.81851 0.25282 0.0
H1666 H 0.37342 0.84644 0.22051 0.0
H1667 H 0.33029 0.85795 0.13649 0.0
H1668 H 0.41636 0.89708 0.04221 0.0
H1669 H 0.38389 0.87078 0.06966 0.0
H1670 H 0.42127 0.8513 0.15363 0.0
C1671 C 0.35282 0.83293 0.21221 0.0
C1672 C 0.35009 0.85637 0.14025 0.0
C1673 C 0.33822 0.8171 0.23066 0.0
C1674 C 0.42311 0.89704 0.06481 0.0
C1675 C 0.40452 0.88223 0.08049 0.0
C1676 C 0.40153 0.85305 0.14971 0.0
C1677 C 0.34154 0.83023 0.18317 0.0
C1678 C 0.35893 0.84297 0.16349 0.0
C1679 C 0.4126 0.88226 0.10989 0.0
C1680 C 0.39324 0.86733 0.12705 0.0
H1681 H 0.27994 0.78266 0.18315 0.0
H1682 H 0.30553 0.81049 0.15078 0.0
H1683 H 0.3916 0.83018 0.18504 0.0
H1684 H 0.47846 0.92342 0.11885 0.0
H1685 H 0.44625 0.89784 0.14594 0.0
C1686 C 0.71544 0.22445 0.14103 0.0
C1687 C 0.70701 0.22492 0.16607 0.0
C1688 C 0.69667 0.21153 0.11661 0.0
C1689 C 0.65778 0.16236 0.08076 0.0
H1690 H 0.5822 0.15514 0.06316 0.0
C1691 C 0.55178 0.07218 0.04992 0.0
C1692 C 0.55506 0.05896 0.02772 0.0
C1693 C 0.56895 0.09836 0.05824 0.0
C1694 C 0.6033 0.15713 0.06759 0.0
H1695 H 0.67189 0.21474 0.18416 0.0
H1696 H 0.63931 0.19212 0.14196 0.0
H1697 H 0.61586 0.19244 0.09383 0.0
H1698 H 0.57843 0.06251 -0.00355 0.0
H1699 H 0.60902 0.10867 0.01123 0.0
H1700 H 0.64503 0.12633 0.05568 0.0
C1701 C 0.6604 0.20161 0.14104 0.0
C1702 C 0.62256 0.17842 0.08521 0.0
C1703 C 0.67917 0.21448 0.16543 0.0
C1704 C 0.57526 0.0726 0.01326 0.0
C1705 C 0.59283 0.09883 0.02188 0.0
C1706 C 0.63854 0.14113 0.06305 0.0
C1707 C 0.66904 0.19905 0.11666 0.0
C1708 C 0.64983 0.18058 0.09301 0.0
C1709 C 0.59011 0.11178 0.04482 0.0
C1710 C 0.61094 0.13763 0.05733 0.0
H1711 H 0.7367 0.23309 0.14057 0.0
H1712 H 0.70394 0.21043 0.09801 0.0
H1713 H 0.67855 0.16323 0.08647 0.0
H1714 H 0.53633 0.06196 0.06138 0.0
H1715 H 0.56658 0.10754 0.07626 0.0
C1716 C 0.6805 0.70589 0.78608 0.0
C1717 C 0.68303 0.70267 0.75866 0.0
C1718 C 0.65769 0.68957 0.79505 0.0
C1719 C 0.61294 0.62178 0.78517 0.0
H1720 H 0.58428 0.64336 0.84193 0.0
C1721 C 0.55586 0.54848 0.86001 0.0
C1722 C 0.56579 0.55726 0.88841 0.0
C1723 C 0.5641 0.56573 0.839 0.0
C1724 C 0.59196 0.63706 0.82595 0.0
H1725 H 0.66212 0.68197 0.71816 0.0
H1726 H 0.62256 0.65223 0.73444 0.0
H1727 H 0.60689 0.67665 0.81131 0.0
H1728 H 0.59266 0.59053 0.91724 0.0
H1729 H 0.60724 0.62062 0.88048 0.0
H1730 H 0.59941 0.58249 0.80094 0.0
C1731 C 0.63847 0.66743 0.74887 0.0
C1732 C 0.60466 0.65599 0.80836 0.0
C1733 C 0.66123 0.68421 0.7397 0.0
C1734 C 0.58467 0.58327 0.89552 0.0
C1735 C 0.59274 0.60056 0.87451 0.0
C1736 C 0.60014 0.6028 0.80274 0.0
C1737 C 0.63696 0.66953 0.77688 0.0
C1738 C 0.61645 0.64875 0.78881 0.0
C1739 C 0.58219 0.59205 0.84609 0.0
C1740 C 0.59076 0.61063 0.82412 0.0
H1741 H 0.69662 0.72026 0.80115 0.0
H1742 H 0.65719 0.69148 0.81685 0.0
H1743 H 0.62211 0.61575 0.77043 0.0
H1744 H 0.54131 0.52846 0.85398 0.0
H1745 H 0.55587 0.55872 0.81722 0.0
C1746 C 0.30067 0.6542 0.88547 0.0
C1747 C 0.31107 0.66231 0.86131 0.0
C1748 C 0.31752 0.65124 0.91062 0.0
C1749 C 0.38713 0.66046 0.94835 0.0
H1750 H 0.3631 0.58336 0.94097 0.0
C1751 C 0.46338 0.60862 0.96027 0.0
C1752 C 0.45467 0.58071 0.96106 0.0
C1753 C 0.44528 0.62159 0.96041 0.0
C1754 C 0.37025 0.60477 0.94463 0.0
H1755 H 0.3484 0.67699 0.84624 0.0
H1756 H 0.37745 0.67315 0.89012 0.0
H1757 H 0.33201 0.60517 0.9217 0.0
H1758 H 0.4211 0.54456 0.96442 0.0
H1759 H 0.39063 0.56699 0.96826 0.0
H1760 H 0.42546 0.66025 0.97126 0.0
C1761 C 0.3562 0.6687 0.88943 0.0
C1762 C 0.3521 0.61732 0.93337 0.0
C1763 C 0.33932 0.67085 0.8641 0.0
C1764 C 0.42823 0.56615 0.96379 0.0
C1765 C 0.41058 0.57913 0.9654 0.0
C1766 C 0.40514 0.64783 0.96066 0.0
C1767 C 0.34519 0.65733 0.91229 0.0
C1768 C 0.36087 0.64525 0.93354 0.0
C1769 C 0.4183 0.60696 0.96235 0.0
C1770 C 0.39754 0.61988 0.95716 0.0
H1771 H 0.27924 0.64847 0.88459 0.0
H1772 H 0.30865 0.64239 0.92807 0.0
H1773 H 0.39424 0.6821 0.94876 0.0
H1774 H 0.48369 0.62025 0.95793 0.0
H1775 H 0.45228 0.64288 0.95745 0.0
C1776 C 0.32429 0.34252 0.77689 0.0
C1777 C 0.29763 0.32497 0.77534 0.0
C1778 C 0.33557 0.36459 0.7959 0.0
C1779 C 0.3318 0.37526 0.8653 0.0
H1780 H 0.38502 0.44576 0.8609 0.0
C1781 C 0.42547 0.46473 0.93903 0.0
C1782 C 0.44446 0.45206 0.9442 0.0
C1783 C 0.39949 0.45153 0.92268 0.0
C1784 C 0.36967 0.4264 0.8624 0.0
H1785 H 0.26062 0.31829 0.78904 0.0
H1786 H 0.28046 0.35641 0.82262 0.0
H1787 H 0.3545 0.42132 0.81772 0.0
H1788 H 0.45117 0.41542 0.93919 0.0
H1789 H 0.40516 0.39167 0.91183 0.0
H1790 H 0.34891 0.3792 0.90963 0.0
C1791 C 0.29271 0.35311 0.80954 0.0
C1792 C 0.35244 0.41244 0.83778 0.0
C1793 C 0.28149 0.33126 0.79054 0.0
C1794 C 0.43652 0.42523 0.93574 0.0
C1795 C 0.41033 0.41178 0.9201 0.0
C1796 C 0.34941 0.38897 0.88981 0.0
C1797 C 0.3202 0.36909 0.81342 0.0
C1798 C 0.33402 0.38643 0.83902 0.0
C1799 C 0.39225 0.42538 0.91214 0.0
C1800 C 0.369 0.41423 0.88837 0.0
H1801 H 0.33706 0.33795 0.76542 0.0
H1802 H 0.35692 0.37661 0.79872 0.0
H1803 H 0.31795 0.35505 0.86672 0.0
H1804 H 0.43149 0.4856 0.94518 0.0
H1805 H 0.38583 0.46234 0.91652 0.0
C1806 C 0.67864 0.36787 0.8087 0.0
C1807 C 0.67592 0.34109 0.8053 0.0
C1808 C 0.67216 0.37632 0.83179 0.0
C1809 C 0.66749 0.3927 0.888 0.0
H1810 H 0.60015 0.34697 0.90642 0.0
C1811 C 0.61862 0.43207 0.96015 0.0
C1812 C 0.59107 0.42757 0.94873 0.0
C1813 C 0.63161 0.41764 0.94966 0.0
C1814 C 0.61908 0.35993 0.90165 0.0
H1815 H 0.66471 0.30226 0.82389 0.0
H1816 H 0.65401 0.31718 0.86455 0.0
H1817 H 0.61884 0.33034 0.87367 0.0
H1818 H 0.55552 0.4036 0.91774 0.0
H1819 H 0.57796 0.37879 0.89964 0.0
H1820 H 0.66673 0.42292 0.91444 0.0
C1821 C 0.66084 0.33158 0.84914 0.0
C1822 C 0.62997 0.3503 0.88308 0.0
C1823 C 0.66723 0.32309 0.82595 0.0
C1824 C 0.57657 0.40736 0.92757 0.0
C1825 C 0.58951 0.39303 0.9171 0.0
C1826 C 0.65652 0.40238 0.90644 0.0
C1827 C 0.66293 0.35823 0.85216 0.0
C1828 C 0.65381 0.36691 0.87528 0.0
C1829 C 0.61735 0.39849 0.92744 0.0
C1830 C 0.63168 0.38642 0.91269 0.0
H1831 H 0.68566 0.38235 0.79343 0.0
H1832 H 0.67364 0.39691 0.83317 0.0
H1833 H 0.68621 0.40581 0.88292 0.0
H1834 H 0.63035 0.44717 0.97677 0.0
H1835 H 0.653 0.42203 0.95839 0.0
C1836 C 0.67762 0.31845 0.13278 0.0
C1837 C 0.70544 0.32616 0.13339 0.0
C1838 C 0.65956 0.32121 0.10866 0.0
C1839 C 0.66057 0.37137 0.06265 0.0
H1840 H 0.58703 0.32675 0.02694 0.0
C1841 C 0.58425 0.42115 0.02076 0.0
C1842 C 0.55798 0.40792 0.02477 0.0
C1843 C 0.60197 0.40749 0.02266 0.0
C1844 C 0.60742 0.3396 0.03688 0.0
H1845 H 0.73519 0.33963 0.1076 0.0
H1846 H 0.7038 0.3465 0.06622 0.0
H1847 H 0.61878 0.30605 0.05121 0.0
H1848 H 0.52923 0.37008 0.03341 0.0
H1849 H 0.56068 0.34658 0.0392 0.0
H1850 H 0.64913 0.40489 0.0521 0.0
C1851 C 0.69617 0.33791 0.08444 0.0
C1852 C 0.62568 0.32763 0.0503 0.0
C1853 C 0.71416 0.33442 0.10835 0.0
C1854 C 0.5494 0.38061 0.03003 0.0
C1855 C 0.56749 0.36711 0.03302 0.0
C1856 C 0.64221 0.38333 0.05013 0.0
C1857 C 0.66898 0.33226 0.08486 0.0
C1858 C 0.6521 0.34352 0.06405 0.0
C1859 C 0.59432 0.38054 0.03002 0.0
C1860 C 0.615 0.36767 0.038 0.0
H1861 H 0.66991 0.31229 0.15148 0.0
H1862 H 0.63872 0.31712 0.10956 0.0
H1863 H 0.68076 0.38403 0.07355 0.0
H1864 H 0.59124 0.44225 0.01657 0.0
H1865 H 0.622 0.41849 0.0193 0.0
C1866 C 0.70937 0.64608 0.22006 0.0
C1867 C 0.72266 0.66876 0.20626 0.0
C1868 C 0.69683 0.62113 0.20567 0.0
C1869 C 0.68535 0.5872 0.13601 0.0
H1870 H 0.60991 0.56769 0.13822 0.0
C1871 C 0.5913 0.52959 0.04666 0.0
C1872 C 0.5711 0.54071 0.04258 0.0
C1873 C 0.61415 0.53945 0.0687 0.0
C1874 C 0.63094 0.57277 0.13747 0.0
H1875 H 0.73546 0.6825 0.1675 0.0
H1876 H 0.71385 0.63988 0.14286 0.0
H1877 H 0.64486 0.59202 0.17808 0.0
H1878 H 0.5594 0.5719 0.05564 0.0
H1879 H 0.59997 0.59017 0.09318 0.0
H1880 H 0.67094 0.57009 0.09399 0.0
C1881 C 0.71305 0.64088 0.16468 0.0
C1882 C 0.65101 0.58623 0.16056 0.0
C1883 C 0.72518 0.66564 0.17881 0.0
C1884 C 0.57496 0.56325 0.05861 0.0
C1885 C 0.59785 0.57329 0.08027 0.0
C1886 C 0.66516 0.57389 0.1127 0.0
C1887 C 0.69774 0.61857 0.17746 0.0
C1888 C 0.67837 0.59531 0.15923 0.0
C1889 C 0.61676 0.56047 0.08653 0.0
C1890 C 0.6379 0.56828 0.1127 0.0
H1891 H 0.70769 0.64773 0.24147 0.0
H1892 H 0.68525 0.60418 0.21608 0.0
H1893 H 0.70637 0.59347 0.13474 0.0
H1894 H 0.58823 0.51185 0.03455 0.0
H1895 H 0.62866 0.52948 0.073 0.0
C1896 C 0.32883 0.61816 0.18251 0.0
C1897 C 0.33854 0.646 0.18709 0.0
C1898 C 0.3343 0.60695 0.16048 0.0
C1899 C 0.36052 0.62214 0.09512 0.0
H1900 H 0.37929 0.55952 0.1148 0.0
C1901 C 0.41939 0.57915 0.03594 0.0
C1902 C 0.41144 0.55109 0.03425 0.0
C1903 C 0.40659 0.59122 0.05 0.0
C1904 C 0.37371 0.57675 0.10875 0.0
H1905 H 0.36081 0.68406 0.17177 0.0
H1906 H 0.37121 0.66448 0.13364 0.0
H1907 H 0.36482 0.57966 0.14842 0.0
H1908 H 0.38257 0.51386 0.04475 0.0
H1909 H 0.36018 0.53485 0.06859 0.0
H1910 H 0.37059 0.61946 0.0556 0.0
C1911 C 0.35889 0.65127 0.14672 0.0
C1912 C 0.36532 0.58831 0.12805 0.0
C1913 C 0.35307 0.6625 0.16861 0.0
C1914 C 0.3892 0.53547 0.0453 0.0
C1915 C 0.3765 0.5475 0.05932 0.0
C1916 C 0.3692 0.61061 0.07578 0.0
C1917 C 0.35002 0.62331 0.14275 0.0
C1918 C 0.35848 0.61107 0.12152 0.0
C1919 C 0.38574 0.57545 0.0628 0.0
C1920 C 0.37574 0.5877 0.08241 0.0
H1921 H 0.31714 0.60501 0.19615 0.0
H1922 H 0.32648 0.58538 0.1576 0.0
H1923 H 0.35525 0.63956 0.08932 0.0
H1924 H 0.43613 0.59183 0.02728 0.0
H1925 H 0.41409 0.61283 0.05228 0.0
C1926 C 0.3407 0.27498 0.20315 0.0
C1927 C 0.33387 0.28761 0.22322 0.0
C1928 C 0.36095 0.28963 0.18959 0.0
C1929 C 0.41408 0.35451 0.18454 0.0
H1930 H 0.37481 0.34729 0.10664 0.0
C1931 C 0.44578 0.43585 0.10572 0.0
C1932 C 0.44227 0.42773 0.07779 0.0
C1933 C 0.43579 0.41715 0.12493 0.0
C1934 C 0.38642 0.34925 0.1281 0.0
H1935 H 0.34476 0.32442 0.24722 0.0
H1936 H 0.38019 0.35027 0.22334 0.0
H1937 H 0.35534 0.31608 0.14001 0.0
H1938 H 0.42591 0.39391 0.04791 0.0
H1939 H 0.4091 0.36108 0.08155 0.0
H1940 H 0.44516 0.38791 0.17254 0.0
C1941 C 0.36996 0.32903 0.21823 0.0
C1942 C 0.37525 0.33133 0.14724 0.0
C1943 C 0.34965 0.31428 0.23188 0.0
C1944 C 0.42851 0.4007 0.06926 0.0
C1945 C 0.41892 0.38193 0.08856 0.0
C1946 C 0.42553 0.3723 0.16522 0.0
C1947 C 0.37456 0.31711 0.19587 0.0
C1948 C 0.38877 0.33402 0.17564 0.0
C1949 C 0.42247 0.38994 0.11662 0.0
C1950 C 0.41155 0.3701 0.13689 0.0
H1951 H 0.32919 0.2542 0.19663 0.0
H1952 H 0.36451 0.27998 0.17267 0.0
H1953 H 0.42476 0.35694 0.20641 0.0
H1954 H 0.45631 0.45664 0.11276 0.0
H1955 H 0.43831 0.42407 0.1462 0.0
C1956 C 0.81775 0.65113 0.60397 0.0
C1957 C 0.81005 0.64897 0.62983 0.0
C1958 C 0.83592 0.63962 0.59939 0.0
C1959 C 0.86186 0.58576 0.62347 0.0
H1960 H 0.916 0.62156 0.58085 0.0
C1961 C 0.91631 0.52994 0.57468 0.0
C1962 C 0.94421 0.54284 0.57588 0.0
C1963 C 0.90138 0.54348 0.58314 0.0
C1964 C 0.90115 0.61132 0.59297 0.0
H1965 H 0.81597 0.63325 0.67133 0.0
H1966 H 0.84775 0.61306 0.66335 0.0
H1967 H 0.88827 0.64467 0.59272 0.0
H1968 H 0.97814 0.58032 0.587 0.0
H1969 H 0.95206 0.60401 0.60167 0.0
H1970 H 0.87461 0.55233 0.62352 0.0
C1971 C 0.83955 0.62363 0.64654 0.0
C1972 C 0.88505 0.62451 0.59958 0.0
C1973 C 0.82154 0.63543 0.65123 0.0
C1974 C 0.95676 0.56969 0.58591 0.0
C1975 C 0.94173 0.58335 0.59411 0.0
C1976 C 0.87779 0.57248 0.61663 0.0
C1977 C 0.84684 0.6254 0.62046 0.0
C1978 C 0.86504 0.61187 0.61476 0.0
C1979 C 0.91381 0.57043 0.59284 0.0
C1980 C 0.89756 0.585 0.60112 0.0
H1981 H 0.80952 0.66162 0.58709 0.0
H1982 H 0.84082 0.64125 0.57899 0.0
H1983 H 0.84655 0.57528 0.63497 0.0
H1984 H 0.90599 0.50919 0.56739 0.0
H1985 H 0.8799 0.53291 0.5816 0.0
C1986 C 0.33606 0.8173 0.72688 0.0
C1987 C 0.3119 0.7961 0.71577 0.0
C1988 C 0.35391 0.83005 0.70976 0.0
C1989 C 0.35616 0.8438 0.63644 0.0
H1990 H 0.43303 0.85779 0.66269 0.0
C1991 C 0.43222 0.89391 0.56745 0.0
C1992 C 0.45597 0.91444 0.58118 0.0
C1993 C 0.41482 0.87675 0.58295 0.0
C1994 C 0.41163 0.85413 0.65514 0.0
H1995 H 0.28614 0.77303 0.67785 0.0
H1996 H 0.31733 0.79497 0.64808 0.0
H1997 H 0.40194 0.83406 0.69222 0.0
H1998 H 0.48044 0.93288 0.62181 0.0
H1999 H 0.45 0.9034 0.64864 0.0
H2000 H 0.36582 0.86449 0.59974 0.0
C2001 C 0.32279 0.80146 0.67001 0.0
C2002 C 0.3939 0.8406 0.67204 0.0
C2003 C 0.30514 0.78864 0.68714 0.0
C2004 C 0.46229 0.9172 0.61061 0.0
C2005 C 0.44495 0.90016 0.62604 0.0
C2006 C 0.3739 0.85749 0.61961 0.0
C2007 C 0.34741 0.82213 0.6812 0.0
C2008 C 0.36607 0.83561 0.66296 0.0
C2009 C 0.42094 0.87989 0.6124 0.0
C2010 C 0.40186 0.86311 0.62897 0.0
H2011 H 0.34127 0.82368 0.74882 0.0
H2012 H 0.37261 0.84628 0.71874 0.0
H2013 H 0.33477 0.84035 0.62907 0.0
H2014 H 0.42692 0.89128 0.54476 0.0
H2015 H 0.39655 0.86112 0.57191 0.0
C2016 C 0.22581 0.30031 0.69424 0.0
C2017 C 0.21186 0.27253 0.69464 0.0
C2018 C 0.21277 0.31688 0.67918 0.0
C2019 C 0.1424 0.31689 0.65045 0.0
H2020 H 0.1781 0.38098 0.61394 0.0
C2021 C 0.08082 0.3758 0.58306 0.0
C2022 C 0.09211 0.404 0.58394 0.0
C2023 C 0.09631 0.36052 0.59565 0.0
C2024 C 0.16779 0.36329 0.62425 0.0
H2025 H 0.17366 0.24047 0.6786 0.0
H2026 H 0.15136 0.2688 0.652 0.0
H2027 H 0.20366 0.3534 0.63655 0.0
H2028 H 0.12938 0.43783 0.59872 0.0
H2029 H 0.15615 0.41131 0.6209 0.0
H2030 H 0.10665 0.32665 0.63842 0.0
C2031 C 0.1721 0.27816 0.66372 0.0
C2032 C 0.18255 0.34738 0.63729 0.0
C2033 C 0.18503 0.26175 0.67876 0.0
C2034 C 0.11967 0.41627 0.5977 0.0
C2035 C 0.13522 0.40094 0.61023 0.0
C2036 C 0.12771 0.3327 0.63744 0.0
C2037 C 0.18536 0.30615 0.66428 0.0
C2038 C 0.17005 0.32373 0.65047 0.0
C2039 C 0.12377 0.37275 0.60965 0.0
C2040 C 0.14 0.35613 0.62391 0.0
H2041 H 0.24635 0.3094 0.70657 0.0
H2042 H 0.22383 0.33825 0.6803 0.0
H2043 H 0.132 0.29937 0.66094 0.0
H2044 H 0.0597 0.36537 0.5731 0.0
H2045 H 0.08664 0.33895 0.59423 0.0
C2046 C 0.73587 0.18889 0.65506 0.0
C2047 C 0.72923 0.21068 0.66115 0.0
C2048 C 0.72299 0.17382 0.62988 0.0
C2049 C 0.6766 0.13224 0.59247 0.0
H2050 H 0.63661 0.15533 0.52665 0.0
C2051 C 0.56928 0.07329 0.54357 0.0
C2052 C 0.56634 0.05688 0.52066 0.0
C2053 C 0.5925 0.09597 0.55161 0.0
C2054 C 0.64816 0.14871 0.54456 0.0
H2055 H 0.70642 0.23564 0.64385 0.0
H2056 H 0.68209 0.20822 0.60136 0.0
H2057 H 0.67542 0.18857 0.55791 0.0
H2058 H 0.58435 0.05165 0.48719 0.0
H2059 H 0.6258 0.0916 0.50184 0.0
H2060 H 0.64881 0.09259 0.57948 0.0
C2061 C 0.6976 0.20284 0.6156 0.0
C2062 C 0.67012 0.16766 0.56271 0.0
C2063 C 0.71117 0.21839 0.64043 0.0
C2064 C 0.58611 0.0644 0.50464 0.0
C2065 C 0.60971 0.08708 0.51299 0.0
C2066 C 0.65506 0.11344 0.57419 0.0
C2067 C 0.70251 0.17965 0.61051 0.0
C2068 C 0.6838 0.15976 0.58765 0.0
C2069 C 0.61331 0.1024 0.5371 0.0
C2070 C 0.64004 0.12162 0.55083 0.0
H2071 H 0.75049 0.18291 0.67006 0.0
H2072 H 0.72827 0.15684 0.62625 0.0
H2073 H 0.68608 0.12513 0.61148 0.0
H2074 H 0.55428 0.0677 0.55624 0.0
H2075 H 0.59511 0.10746 0.57042 0.0
C2076 C 0.80478 0.25829 0.34766 0.0
C2077 C 0.81438 0.26033 0.32299 0.0
C2078 C 0.822 0.27182 0.37252 0.0
C2079 C 0.89379 0.31392 0.40561 0.0
H2080 H 0.86006 0.35759 0.43227 0.0
C2081 C 0.9575 0.41188 0.47181 0.0
C2082 C 0.95176 0.43342 0.45831 0.0
C2083 C 0.93946 0.38557 0.46443 0.0
C2084 C 0.86972 0.34531 0.42542 0.0
H2085 H 0.85018 0.27562 0.3058 0.0
H2086 H 0.88015 0.2995 0.34891 0.0
H2087 H 0.83205 0.31847 0.40158 0.0
H2088 H 0.92213 0.44473 0.42813 0.0
H2089 H 0.89062 0.39922 0.41565 0.0
H2090 H 0.93172 0.3422 0.42783 0.0
C2091 C 0.85936 0.28744 0.34924 0.0
C2092 C 0.85365 0.3227 0.40798 0.0
C2093 C 0.84213 0.27382 0.32439 0.0
C2094 C 0.92703 0.42845 0.43882 0.0
C2095 C 0.90889 0.40236 0.43183 0.0
C2096 C 0.90989 0.33659 0.42311 0.0
C2097 C 0.84919 0.28764 0.37321 0.0
C2098 C 0.86561 0.30742 0.39684 0.0
C2099 C 0.91526 0.38058 0.44386 0.0
C2100 C 0.89808 0.35318 0.43208 0.0
H2101 H 0.78356 0.24752 0.34737 0.0
H2102 H 0.81365 0.27108 0.39076 0.0
H2103 H 0.90357 0.30232 0.39774 0.0
H2104 H 0.97658 0.41527 0.48673 0.0
H2105 H 0.94483 0.36913 0.47404 0.0
C2106 C 0.65148 0.80914 0.32498 0.0
C2107 C 0.66423 0.7969 0.34677 0.0
C2108 C 0.63986 0.8272 0.33097 0.0
C2109 C 0.63985 0.87027 0.389 0.0
H2110 H 0.57035 0.86669 0.3429 0.0
C2111 C 0.5902 0.94546 0.40678 0.0
C2112 C 0.56192 0.93577 0.40407 0.0
C2113 C 0.60296 0.92942 0.39871 0.0
C2114 C 0.58968 0.86788 0.35614 0.0
H2115 H 0.67563 0.7951 0.39205 0.0
H2116 H 0.6552 0.82601 0.40241 0.0
H2117 H 0.59232 0.83756 0.33108 0.0
H2118 H 0.52501 0.90128 0.3906 0.0
H2119 H 0.5472 0.87326 0.37673 0.0
H2120 H 0.63692 0.89999 0.41452 0.0
C2121 C 0.65417 0.82183 0.38065 0.0
C2122 C 0.60249 0.85136 0.34912 0.0
C2123 C 0.66567 0.80379 0.37467 0.0
C2124 C 0.54676 0.90959 0.39274 0.0
C2125 C 0.55954 0.89349 0.38472 0.0
C2126 C 0.62706 0.88676 0.396 0.0
C2127 C 0.64086 0.83366 0.35892 0.0
C2128 C 0.6277 0.85216 0.36556 0.0
C2129 C 0.58787 0.90311 0.3877 0.0
C2130 C 0.6017 0.88575 0.37978 0.0
H2131 H 0.64983 0.80425 0.30325 0.0
H2132 H 0.63011 0.83611 0.31365 0.0
H2133 H 0.65937 0.87177 0.40202 0.0
H2134 H 0.60256 0.96567 0.41485 0.0
H2135 H 0.6247 0.93782 0.40084 0.0
C2136 C 0.219 0.69943 0.2995 0.0
C2137 C 0.20633 0.69821 0.27094 0.0
C2138 C 0.20637 0.68111 0.31765 0.0
C2139 C 0.15003 0.61764 0.3208 0.0
H2140 H 0.14501 0.65207 0.38634 0.0
C2141 C 0.06252 0.57174 0.37518 0.0
C2142 C 0.06784 0.57335 0.40463 0.0
C2143 C 0.08281 0.58533 0.36119 0.0
C2144 C 0.14663 0.64203 0.36848 0.0
H2145 H 0.17069 0.67727 0.2388 0.0
H2146 H 0.14826 0.64522 0.27064 0.0
H2147 H 0.17555 0.67773 0.35723 0.0
H2148 H 0.09844 0.5907 0.44259 0.0
H2149 H 0.13412 0.61466 0.41794 0.0
H2150 H 0.1205 0.58213 0.33162 0.0
C2151 C 0.1683 0.65987 0.27885 0.0
C2152 C 0.16413 0.6567 0.35182 0.0
C2153 C 0.18095 0.67825 0.2607 0.0
C2154 C 0.09375 0.58925 0.41984 0.0
C2155 C 0.11415 0.60288 0.40577 0.0
C2156 C 0.13259 0.60295 0.33751 0.0
C2157 C 0.18066 0.66153 0.30761 0.0
C2158 C 0.16541 0.64483 0.3274 0.0
C2159 C 0.1089 0.60078 0.37631 0.0
C2160 C 0.13012 0.61523 0.36101 0.0
H2161 H 0.2382 0.71504 0.3081 0.0
H2162 H 0.21637 0.68275 0.3397 0.0
H2163 H 0.15098 0.60795 0.30231 0.0
H2164 H 0.04271 0.55972 0.36286 0.0
H2165 H 0.07797 0.58386 0.33844 0.0
C2166 C 0.27798 0.17464 0.29432 0.0
C2167 C 0.28769 0.20038 0.28392 0.0
C2168 C 0.29576 0.16321 0.31042 0.0
C2169 C 0.33655 0.14625 0.35369 0.0
H2170 H 0.40136 0.15416 0.32822 0.0
C2171 C 0.41387 0.09757 0.41115 0.0
C2172 C 0.4255 0.08627 0.39445 0.0
C2173 C 0.3982 0.11297 0.39932 0.0
C2174 C 0.3833 0.15157 0.33563 0.0
H2175 H 0.32412 0.2344 0.28264 0.0
H2176 H 0.35537 0.2145 0.31087 0.0
H2177 H 0.37249 0.17863 0.30588 0.0
H2178 H 0.4298 0.08332 0.35184 0.0
H2179 H 0.40245 0.10967 0.33136 0.0
H2180 H 0.34699 0.11879 0.38303 0.0
C2181 C 0.3338 0.20309 0.30655 0.0
C2182 C 0.36684 0.16597 0.32297 0.0
C2183 C 0.31587 0.21469 0.29061 0.0
C2184 C 0.42102 0.09121 0.36552 0.0
C2185 C 0.40552 0.10674 0.35373 0.0
C2186 C 0.3531 0.13203 0.36648 0.0
C2187 C 0.32405 0.17694 0.31638 0.0
C2188 C 0.34295 0.16331 0.33151 0.0
C2189 C 0.39373 0.11788 0.37036 0.0
C2190 C 0.37663 0.13414 0.35748 0.0
H2191 H 0.25645 0.16294 0.28933 0.0
H2192 H 0.28727 0.14303 0.31718 0.0
H2193 H 0.31855 0.14376 0.36117 0.0
H2194 H 0.41656 0.09422 0.43344 0.0
H2195 H 0.38979 0.12129 0.41302 0.0
C2196 C 0.7023 0.77677 0.69019 0.0
C2197 C 0.73042 0.79117 0.69808 0.0
C2198 C 0.68467 0.78858 0.67392 0.0
C2199 C 0.68401 0.84786 0.6292 0.0
H2200 H 0.61525 0.83509 0.64838 0.0
C2201 C 0.62154 0.91639 0.59065 0.0
C2202 C 0.59296 0.90496 0.58379 0.0
C2203 C 0.63742 0.90133 0.60298 0.0
C2204 C 0.6342 0.83875 0.64239 0.0
H2205 H 0.76188 0.82909 0.69454 0.0
H2206 H 0.73168 0.84947 0.66658 0.0
H2207 H 0.64367 0.81041 0.67121 0.0
H2208 H 0.55909 0.86817 0.58534 0.0
H2209 H 0.58657 0.84205 0.60626 0.0
H2210 H 0.67473 0.87636 0.60061 0.0
C2211 C 0.72293 0.82899 0.67239 0.0
C2212 C 0.65061 0.82444 0.65555 0.0
C2213 C 0.74039 0.81728 0.68863 0.0
C2214 C 0.58094 0.87784 0.58982 0.0
C2215 C 0.59682 0.86281 0.60227 0.0
C2216 C 0.66766 0.86218 0.6161 0.0
C2217 C 0.69466 0.81512 0.66509 0.0
C2218 C 0.676 0.82892 0.64946 0.0
C2219 C 0.6254 0.87423 0.6091 0.0
C2220 C 0.64254 0.85814 0.62261 0.0
H2221 H 0.6938 0.75676 0.69737 0.0
H2222 H 0.66315 0.77696 0.66854 0.0
H2223 H 0.70303 0.85168 0.6233 0.0
H2224 H 0.63179 0.93703 0.58625 0.0
H2225 H 0.65926 0.91117 0.60811 0.0
C2226 C 0.69078 0.1654 0.25339 0.0
C2227 C 0.71489 0.18592 0.26611 0.0
C2228 C 0.67241 0.15108 0.26943 0.0
C2229 C 0.65444 0.15599 0.33693 0.0
H2230 H 0.6137 0.0801 0.32221 0.0
C2231 C 0.58793 0.09077 0.40916 0.0
C2232 C 0.5629 0.07169 0.39578 0.0
C2233 C 0.60657 0.10525 0.39346 0.0
C2234 C 0.62472 0.10137 0.32633 0.0
H2235 H 0.74023 0.20589 0.30567 0.0
H2236 H 0.7085 0.18091 0.33372 0.0
H2237 H 0.64653 0.10358 0.2945 0.0
H2238 H 0.53732 0.05338 0.35551 0.0
H2239 H 0.56966 0.07885 0.3282 0.0
H2240 H 0.63264 0.15374 0.36882 0.0
C2241 C 0.70304 0.17656 0.31127 0.0
C2242 C 0.6435 0.11482 0.31046 0.0
C2243 C 0.7212 0.19097 0.29521 0.0
C2244 C 0.55653 0.06785 0.36643 0.0
C2245 C 0.57511 0.08229 0.3508 0.0
C2246 C 0.63565 0.14256 0.35278 0.0
C2247 C 0.67826 0.15673 0.29852 0.0
C2248 C 0.65849 0.14231 0.31551 0.0
C2249 C 0.60044 0.10085 0.36417 0.0
C2250 C 0.62054 0.11514 0.34757 0.0
H2251 H 0.68585 0.16095 0.23098 0.0
H2252 H 0.65341 0.13604 0.25893 0.0
H2253 H 0.66551 0.17719 0.34124 0.0
H2254 H 0.5934 0.09407 0.43177 0.0
H2255 H 0.62604 0.11933 0.40433 0.0
C2256 C 0.79409 0.69414 0.28894 0.0
C2257 C 0.80872 0.72169 0.28766 0.0
C2258 C 0.80675 0.67725 0.30395 0.0
C2259 C 0.87565 0.6737 0.32805 0.0
H2260 H 0.84178 0.6146 0.37183 0.0
C2261 C 0.92443 0.59464 0.36703 0.0
C2262 C 0.92406 0.58546 0.39444 0.0
C2263 C 0.9095 0.61055 0.35489 0.0
C2264 C 0.85165 0.6311 0.35979 0.0
H2265 H 0.84796 0.75296 0.30188 0.0
H2266 H 0.86981 0.7239 0.32783 0.0
H2267 H 0.81719 0.64349 0.35018 0.0
H2268 H 0.90688 0.58595 0.43019 0.0
H2269 H 0.88088 0.61366 0.40903 0.0
H2270 H 0.91003 0.66155 0.33752 0.0
C2271 C 0.84865 0.71511 0.31716 0.0
C2272 C 0.83739 0.64757 0.34713 0.0
C2273 C 0.83601 0.7319 0.30243 0.0
C2274 C 0.90796 0.59267 0.40917 0.0
C2275 C 0.89277 0.60842 0.39687 0.0
C2276 C 0.88972 0.65715 0.3404 0.0
C2277 C 0.8345 0.68737 0.31766 0.0
C2278 C 0.84923 0.66928 0.33115 0.0
C2279 C 0.89344 0.61782 0.36956 0.0
C2280 C 0.87805 0.63553 0.35653 0.0
H2281 H 0.77321 0.6854 0.27744 0.0
H2282 H 0.79509 0.65605 0.3037 0.0
H2283 H 0.88547 0.6899 0.31568 0.0
H2284 H 0.93672 0.58994 0.35498 0.0
H2285 H 0.91046 0.61702 0.33376 0.0
C2286 C 0.30219 0.76972 0.34971 0.0
C2287 C 0.29263 0.7834 0.32705 0.0
C2288 C 0.31676 0.78319 0.37551 0.0
C2289 C 0.36666 0.82647 0.41218 0.0
H2290 H 0.34701 0.87791 0.44688 0.0
C2291 C 0.42131 0.93977 0.45118 0.0
C2292 C 0.44695 0.94 0.46509 0.0
C2293 C 0.39909 0.91587 0.44611 0.0
C2294 C 0.35278 0.86348 0.43766 0.0
H2295 H 0.28871 0.82137 0.31464 0.0
H2296 H 0.31345 0.84455 0.35979 0.0
H2297 H 0.31235 0.84355 0.41347 0.0
H2298 H 0.46948 0.91599 0.48617 0.0
H2299 H 0.43029 0.87377 0.47755 0.0
H2300 H 0.40747 0.84779 0.43399 0.0
C2301 C 0.31006 0.82352 0.3574 0.0
C2302 C 0.33291 0.84381 0.41864 0.0
C2303 C 0.29605 0.81025 0.33146 0.0
C2304 C 0.44974 0.91624 0.47568 0.0
C2305 C 0.42739 0.89212 0.4705 0.0
C2306 C 0.38663 0.8464 0.43087 0.0
C2307 C 0.32119 0.81032 0.37938 0.0
C2308 C 0.33998 0.82599 0.40474 0.0
C2309 C 0.40205 0.89156 0.45464 0.0
C2310 C 0.38015 0.86605 0.44259 0.0
H2311 H 0.299 0.74877 0.3474 0.0
H2312 H 0.32502 0.77258 0.39224 0.0
H2313 H 0.37262 0.81298 0.40164 0.0
H2314 H 0.41874 0.95792 0.44282 0.0
H2315 H 0.38011 0.91632 0.4335 0.0
C2316 C 0.19427 0.35368 0.33214 0.0
C2317 C 0.20853 0.34264 0.35382 0.0
C2318 C 0.17624 0.36512 0.33761 0.0
C2319 C 0.16163 0.39422 0.3971 0.0
H2320 H 0.09536 0.39006 0.34377 0.0
C2321 C 0.10056 0.45835 0.41399 0.0
C2322 C 0.07205 0.44688 0.40714 0.0
C2323 C 0.11628 0.44529 0.40641 0.0
C2324 C 0.11369 0.39127 0.35903 0.0
H2325 H 0.21357 0.33356 0.39789 0.0
H2326 H 0.18217 0.35304 0.4073 0.0
H2327 H 0.12351 0.367 0.33268 0.0
H2328 H 0.03785 0.41252 0.38654 0.0
H2329 H 0.06528 0.38956 0.37351 0.0
H2330 H 0.1517 0.41793 0.42371 0.0
C2331 C 0.18543 0.35368 0.38622 0.0
C2332 C 0.13004 0.37827 0.35251 0.0
C2333 C 0.20344 0.34239 0.38079 0.0
C2334 C 0.05972 0.42207 0.39202 0.0
C2335 C 0.0755 0.40891 0.3845 0.0
C2336 C 0.14535 0.40716 0.4036 0.0
C2337 C 0.17193 0.36572 0.36488 0.0
C2338 C 0.15425 0.37951 0.37149 0.0
C2339 C 0.10405 0.42024 0.39178 0.0
C2340 C 0.12115 0.40599 0.38467 0.0
H2341 H 0.19779 0.35437 0.31116 0.0
H2342 H 0.16639 0.3743 0.32063 0.0
H2343 H 0.18027 0.39605 0.41215 0.0
H2344 H 0.11083 0.47769 0.42502 0.0
H2345 H 0.13813 0.45504 0.41185 0.0
C2346 C 0.38843 0.20616 0.63987 0.0
C2347 C 0.36095 0.19757 0.6409 0.0
C2348 C 0.39969 0.18807 0.63347 0.0
C2349 C 0.38757 0.11495 0.62659 0.0
H2350 H 0.44224 0.14094 0.58266 0.0
C2351 C 0.42779 0.04487 0.57673 0.0
C2352 C 0.45587 0.05393 0.57817 0.0
C2353 C 0.41597 0.06174 0.58504 0.0
C2354 C 0.4272 0.13337 0.59517 0.0
H2355 H 0.3239 0.16292 0.6365 0.0
H2356 H 0.34331 0.13129 0.62468 0.0
H2357 H 0.42202 0.17092 0.59581 0.0
H2358 H 0.49338 0.08816 0.58945 0.0
H2359 H 0.47284 0.1175 0.60392 0.0
H2360 H 0.39253 0.07714 0.62529 0.0
C2361 C 0.35639 0.15203 0.62931 0.0
C2362 C 0.41558 0.15065 0.60286 0.0
C2363 C 0.34518 0.17018 0.63607 0.0
C2364 C 0.47176 0.08036 0.58822 0.0
C2365 C 0.45991 0.09731 0.59628 0.0
C2366 C 0.39905 0.09756 0.61865 0.0
C2367 C 0.38379 0.16077 0.62751 0.0
C2368 C 0.39572 0.14186 0.61892 0.0
C2369 C 0.43183 0.08827 0.59478 0.0
C2370 C 0.41919 0.10658 0.60299 0.0
H2371 H 0.40129 0.22705 0.64393 0.0
H2372 H 0.421 0.19564 0.63318 0.0
H2373 H 0.37264 0.10735 0.6392 0.0
H2374 H 0.41491 0.02458 0.56939 0.0
H2375 H 0.39429 0.05411 0.58338 0.0
C2376 C 0.8393 0.31526 0.7269 0.0
C2377 C 0.81353 0.29573 0.71723 0.0
C2378 C 0.852 0.33293 0.70826 0.0
C2379 C 0.85482 0.33444 0.63494 0.0
H2380 H 0.89994 0.4089 0.65363 0.0
C2381 C 0.92351 0.39999 0.56431 0.0
C2382 C 0.94974 0.41586 0.5788 0.0
C2383 C 0.90366 0.38664 0.57912 0.0
C2384 C 0.88743 0.3881 0.64818 0.0
H2385 H 0.78088 0.27903 0.68063 0.0
H2386 H 0.80285 0.31006 0.64816 0.0
H2387 H 0.86994 0.38427 0.68389 0.0
H2388 H 0.97606 0.42956 0.62005 0.0
H2389 H 0.94172 0.4059 0.64575 0.0
H2390 H 0.87299 0.33793 0.59983 0.0
C2391 C 0.81315 0.31187 0.67012 0.0
C2392 C 0.87028 0.37409 0.66543 0.0
C2393 C 0.80049 0.29426 0.68875 0.0
C2394 C 0.95598 0.41758 0.60828 0.0
C2395 C 0.93623 0.40427 0.62301 0.0
C2396 C 0.87203 0.34843 0.61772 0.0
C2397 C 0.83925 0.33098 0.67959 0.0
C2398 C 0.85434 0.34695 0.65934 0.0
C2399 C 0.90979 0.38899 0.6086 0.0
C2400 C 0.88904 0.37518 0.62464 0.0
H2401 H 0.84981 0.31647 0.74874 0.0
H2402 H 0.87231 0.34724 0.71604 0.0
H2403 H 0.84295 0.31343 0.62992 0.0
H2404 H 0.91813 0.39845 0.54156 0.0
H2405 H 0.88341 0.37497 0.56751 0.0
C2406 C 0.18441 0.70789 0.65839 0.0
C2407 C 0.21246 0.71964 0.66057 0.0
C2408 C 0.16714 0.69481 0.63334 0.0
C2409 C 0.17006 0.65892 0.57283 0.0
H2410 H 0.09305 0.64583 0.55372 0.0
C2411 C 0.06051 0.57664 0.50941 0.0
C2412 C 0.0652 0.55401 0.52118 0.0
C2413 C 0.0804 0.60219 0.51661 0.0
C2414 C 0.11458 0.64966 0.55815 0.0
H2415 H 0.24419 0.72925 0.63752 0.0
H2416 H 0.21402 0.70682 0.59362 0.0
H2417 H 0.12383 0.68365 0.58522 0.0
H2418 H 0.09468 0.53982 0.54777 0.0
H2419 H 0.12916 0.58389 0.56014 0.0
H2420 H 0.16072 0.62456 0.54633 0.0
C2421 C 0.20538 0.70698 0.61146 0.0
C2422 C 0.13221 0.67113 0.57658 0.0
C2423 C 0.22267 0.71987 0.6366 0.0
C2424 C 0.09059 0.55702 0.53846 0.0
C2425 C 0.11045 0.58232 0.54535 0.0
C2426 C 0.15249 0.63763 0.55426 0.0
C2427 C 0.17752 0.69345 0.6098 0.0
C2428 C 0.15995 0.67516 0.58527 0.0
C2429 C 0.10529 0.6053 0.53536 0.0
C2430 C 0.12439 0.6319 0.54793 0.0
H2431 H 0.17591 0.70735 0.67646 0.0
H2432 H 0.1459 0.68436 0.63309 0.0
H2433 H 0.19124 0.66127 0.57899 0.0
H2434 H 0.04093 0.57474 0.49621 0.0
H2435 H 0.0759 0.61953 0.50848 0.0
loop_
_geom_bond_atom_site_label_1
_geom_bond_atom_site_label_2
_geom_bond_distance
_geom_bond_site_symmetry_2
_ccdc_geom_bond_type
Eu0 N31 2.657 . S
Eu0 N38 2.609 . S
Eu0 O44 2.558 . S
Eu0 O45 2.612 . S
Eu0 O47 2.339 . S
Eu0 O48 2.563 . S
Eu0 O49 2.419 . S
Eu0 O51 2.380 . S
Eu0 O52 2.432 . S
Eu0 C64 2.848 . S
C1 C4 1.429 . S
C1 C5 1.411 . S
C1 N8 1.377 . S
C2 C4 1.420 . S
C2 C6 1.423 . S
C2 C14 1.392 . S
C3 C5 1.420 . S
C3 C6 1.351 . S
C3 H26 0.931 . S
C4 C1 1.429 . S
C4 C2 1.420 . S
C4 N12 1.362 . S
C5 C1 1.411 . S
C5 C3 1.420 . S
C5 C10 1.395 . S
C6 C2 1.423 . S
C6 C3 1.351 . S
C6 H18 0.930 . S
C7 C9 1.400 . S
C7 C10 1.386 . S
C7 H19 0.930 . S
N8 C1 1.377 . S
N8 C9 1.321 . S
N8 Eu11 2.609 . S
C9 C7 1.400 . S
C9 N8 1.321 . S
C9 H16 0.930 . S
C10 C5 1.395 . S
C10 C7 1.386 . S
C10 H29 0.930 . S
Eu11 N8 2.609 . S
Eu11 N12 2.657 . S
Eu11 O45 2.380 . S
Eu11 O46 2.432 . S
Eu11 O50 2.558 . S
Eu11 O51 2.612 . S
Eu11 O53 2.339 . S
Eu11 O54 2.563 . S
Eu11 O55 2.419 . S
Eu11 C75 2.848 . S
N12 C4 1.362 . S
N12 Eu11 2.657 . S
N12 C13 1.334 . S
C13 N12 1.334 . S
C13 C15 1.413 . S
C13 H20 0.929 . S
C14 C2 1.392 . S
C14 C15 1.367 . S
C14 H22 0.930 . S
C15 C13 1.413 . S
C15 C14 1.367 . S
C15 H17 0.930 . S
H16 C9 0.930 . S
H17 C15 0.930 . S
H18 C6 0.930 . S
H19 C7 0.930 . S
H20 C13 0.929 . S
H21 C35 0.930 . S
H22 C14 0.930 . S
H23 C41 0.930 . S
H24 C32 0.929 . S
H25 C39 0.930 . S
H26 C3 0.931 . S
H27 C33 0.930 . S
H28 C66 0.930 . S
H29 C10 0.930 . S
H30 C65 0.931 . S
N31 Eu0 2.657 . S
N31 C32 1.334 . S
N31 C36 1.362 . S
C32 H24 0.929 . S
C32 N31 1.334 . S
C32 C35 1.413 . S
C33 H27 0.930 . S
C33 C34 1.392 . S
C33 C35 1.367 . S
C34 C33 1.392 . S
C34 C36 1.420 . S
C34 C66 1.423 . S
C35 H21 0.930 . S
C35 C32 1.413 . S
C35 C33 1.367 . S
C36 N31 1.362 . S
C36 C34 1.420 . S
C36 C40 1.429 . S
H37 C42 0.930 . S
N38 Eu0 2.609 . S
N38 C40 1.377 . S
N38 C41 1.321 . S
C39 H25 0.930 . S
C39 C41 1.400 . S
C39 C42 1.386 . S
C40 C36 1.429 . S
C40 N38 1.377 . S
C40 C43 1.411 . S
C41 H23 0.930 . S
C41 N38 1.321 . S
C41 C39 1.400 . S
C42 H37 0.930 . S
C42 C39 1.386 . S
C42 C43 1.395 . S
C43 C40 1.411 . S
C43 C42 1.395 . S
C43 C65 1.420 . S
O44 Eu0 2.558 . S
O44 C64 1.257 . S
O45 Eu0 2.612 . S
O45 Eu11 2.380 . S
O45 C56 1.276 . S
O46 Eu11 2.432 . S
O46 C63 1.264 . S
O47 Eu0 2.339 . S
O47 C63 1.254 . S
O48 Eu0 2.563 . S
O48 C56 1.235 . S
O49 Eu0 2.419 . S
O49 C64 1.249 . S
O50 Eu11 2.558 . S
O50 C75 1.257 . S
O51 Eu0 2.380 . S
O51 Eu11 2.612 . S
O51 C67 1.276 . S
O52 Eu0 2.432 . S
O52 C74 1.264 . S
O53 Eu11 2.339 . S
O53 C74 1.254 . S
O54 Eu11 2.563 . S
O54 C67 1.235 . S
O55 Eu11 2.419 . S
O55 C75 1.249 . S
C56 O45 1.276 . S
C56 O48 1.235 . S
C57 C59 1.393 . S
C57 C61 1.395 . S
C57 C64 1.492 . S
C58 C59 1.392 . S
C58 C60 1.386 . S
C59 C57 1.393 . S
C59 C58 1.392 . S
C59 H76 0.930 . S
C60 C58 1.386 . S
C60 C62 1.395 . S
C60 H77 0.930 . S
C61 C57 1.395 . S
C61 C62 1.379 . S
C61 H78 0.930 . S
C62 C60 1.395 . S
C62 C61 1.379 . S
C62 H79 0.930 . S
C63 O46 1.264 . S
C63 O47 1.254 . S
C64 Eu0 2.848 . S
C64 O44 1.257 . S
C64 O49 1.249 . S
C64 C57 1.492 . S
C65 H30 0.931 . S
C65 C43 1.420 . S
C65 C66 1.351 . S
C66 H28 0.930 . S
C66 C34 1.423 . S
C66 C65 1.351 . S
C67 O51 1.276 . S
C67 O54 1.235 . S
C68 C69 1.393 . S
C68 C72 1.395 . S
C68 C75 1.492 . S
C69 C68 1.393 . S
C69 C70 1.392 . S
C69 H80 0.930 . S
C70 C69 1.392 . S
C70 C71 1.386 . S
C71 C70 1.386 . S
C71 C73 1.395 . S
C71 H81 0.930 . S
C72 C68 1.395 . S
C72 C73 1.379 . S
C72 H82 0.930 . S
C73 C71 1.395 . S
C73 C72 1.379 . S
C73 H83 0.930 . S
C74 O52 1.264 . S
C74 O53 1.254 . S
C75 Eu11 2.848 . S
C75 O50 1.257 . S
C75 O55 1.249 . S
C75 C68 1.492 . S
H76 C59 0.930 . S
H77 C60 0.930 . S
H78 C61 0.930 . S
H79 C62 0.930 . S
H80 C69 0.930 . S
H81 C71 0.930 . S
H82 C72 0.930 . S
H83 C73 0.930 . S
Eu84 N115 2.657 . S
Eu84 N122 2.609 . S
Eu84 O128 2.558 . S
Eu84 O129 2.612 . S
Eu84 O131 2.339 . S
Eu84 O132 2.563 . S
Eu84 O133 2.419 . S
Eu84 O135 2.380 . S
Eu84 O136 2.432 . S
Eu84 C148 2.848 . S
C85 C88 1.429 . S
C85 C89 1.411 . S
C85 N92 1.377 . S
C86 C88 1.420 . S
C86 C90 1.423 . S
C86 C98 1.392 . S
C87 C89 1.420 . S
C87 C90 1.351 . S
C87 H110 0.931 . S
C88 C85 1.429 . S
C88 C86 1.420 . S
C88 N96 1.362 . S
C89 C85 1.411 . S
C89 C87 1.420 . S
C89 C94 1.395 . S
C90 C86 1.423 . S
C90 C87 1.351 . S
C90 H102 0.930 . S
C91 C93 1.400 . S
C91 C94 1.386 . S
C91 H103 0.930 . S
N92 C85 1.377 . S
N92 C93 1.321 . S
N92 Eu95 2.609 . S
C93 C91 1.400 . S
C93 N92 1.321 . S
C93 H100 0.930 . S
C94 C89 1.395 . S
C94 C91 1.386 . S
C94 H113 0.930 . S
Eu95 N92 2.609 . S
Eu95 N96 2.657 . S
Eu95 O129 2.380 . S
Eu95 O130 2.432 . S
Eu95 O134 2.558 . S
Eu95 O135 2.612 . S
Eu95 O137 2.339 . S
Eu95 O138 2.563 . S
Eu95 O139 2.419 . S
Eu95 C159 2.848 . S
N96 C88 1.362 . S
N96 Eu95 2.657 . S
N96 C97 1.334 . S
C97 N96 1.334 . S
C97 C99 1.413 . S
C97 H104 0.929 . S
C98 C86 1.392 . S
C98 C99 1.367 . S
C98 H106 0.930 . S
C99 C97 1.413 . S
C99 C98 1.367 . S
C99 H101 0.930 . S
H100 C93 0.930 . S
H101 C99 0.930 . S
H102 C90 0.930 . S
H103 C91 0.930 . S
H104 C97 0.929 . S
H105 C119 0.930 . S
H106 C98 0.930 . S
H107 C125 0.930 . S
H108 C116 0.929 . S
H109 C123 0.930 . S
H110 C87 0.931 . S
H111 C117 0.930 . S
H112 C150 0.930 . S
H113 C94 0.930 . S
H114 C149 0.931 . S
N115 Eu84 2.657 . S
N115 C116 1.334 . S
N115 C120 1.362 . S
C116 H108 0.929 . S
C116 N115 1.334 . S
C116 C119 1.413 . S
C117 H111 0.930 . S
C117 C118 1.392 . S
C117 C119 1.367 . S
C118 C117 1.392 . S
C118 C120 1.420 . S
C118 C150 1.423 . S
C119 H105 0.930 . S
C119 C116 1.413 . S
C119 C117 1.367 . S
C120 N115 1.362 . S
C120 C118 1.420 . S
C120 C124 1.429 . S
H121 C126 0.930 . S
N122 Eu84 2.609 . S
N122 C124 1.377 . S
N122 C125 1.321 . S
C123 H109 0.930 . S
C123 C125 1.400 . S
C123 C126 1.386 . S
C124 C120 1.429 . S
C124 N122 1.377 . S
C124 C127 1.411 . S
C125 H107 0.930 . S
C125 N122 1.321 . S
C125 C123 1.400 . S
C126 H121 0.930 . S
C126 C123 1.386 . S
C126 C127 1.395 . S
C127 C124 1.411 . S
C127 C126 1.395 . S
C127 C149 1.420 . S
O128 Eu84 2.558 . S
O128 C148 1.257 . S
O129 Eu84 2.612 . S
O129 Eu95 2.380 . S
O129 C140 1.276 . S
O130 Eu95 2.432 . S
O130 C147 1.264 . S
O131 Eu84 2.339 . S
O131 C147 1.254 . S
O132 Eu84 2.563 . S
O132 C140 1.235 . S
O133 Eu84 2.419 . S
O133 C148 1.249 . S
O134 Eu95 2.558 . S
O134 C159 1.257 . S
O135 Eu84 2.380 . S
O135 Eu95 2.612 . S
O135 C151 1.276 . S
O136 Eu84 2.432 . S
O136 C158 1.264 . S
O137 Eu95 2.339 . S
O137 C158 1.254 . S
O138 Eu95 2.563 . S
O138 C151 1.235 . S
O139 Eu95 2.419 . S
O139 C159 1.249 . S
C140 O129 1.276 . S
C140 O132 1.235 . S
C141 C143 1.393 . S
C141 C145 1.395 . S
C141 C148 1.492 . S
C142 C143 1.392 . S
C142 C144 1.386 . S
C143 C141 1.393 . S
C143 C142 1.392 . S
C143 H160 0.930 . S
C144 C142 1.386 . S
C144 C146 1.395 . S
C144 H161 0.930 . S
C145 C141 1.395 . S
C145 C146 1.379 . S
C145 H162 0.930 . S
C146 C144 1.395 . S
C146 C145 1.379 . S
C146 H163 0.930 . S
C147 O130 1.264 . S
C147 O131 1.254 . S
C148 Eu84 2.848 . S
C148 O128 1.257 . S
C148 O133 1.249 . S
C148 C141 1.492 . S
C149 H114 0.931 . S
C149 C127 1.420 . S
C149 C150 1.351 . S
C150 H112 0.930 . S
C150 C118 1.423 . S
C150 C149 1.351 . S
C151 O135 1.276 . S
C151 O138 1.235 . S
C152 C153 1.393 . S
C152 C156 1.395 . S
C152 C159 1.492 . S
C153 C152 1.393 . S
C153 C154 1.392 . S
C153 H164 0.930 . S
C154 C153 1.392 . S
C154 C155 1.386 . S
C155 C154 1.386 . S
C155 C157 1.395 . S
C155 H165 0.930 . S
C156 C152 1.395 . S
C156 C157 1.379 . S
C156 H166 0.930 . S
C157 C155 1.395 . S
C157 C156 1.379 . S
C157 H167 0.930 . S
C158 O136 1.264 . S
C158 O137 1.254 . S
C159 Eu95 2.848 . S
C159 O134 1.257 . S
C159 O139 1.249 . S
C159 C152 1.492 . S
H160 C143 0.930 . S
H161 C144 0.930 . S
H162 C145 0.930 . S
H163 C146 0.930 . S
H164 C153 0.930 . S
H165 C155 0.930 . S
H166 C156 0.930 . S
H167 C157 0.930 . S
Eu168 N199 2.657 . S
Eu168 N206 2.609 . S
Eu168 O212 2.558 . S
Eu168 O213 2.612 . S
Eu168 O215 2.339 . S
Eu168 O216 2.563 . S
Eu168 O217 2.419 . S
Eu168 O219 2.380 . S
Eu168 O220 2.432 . S
Eu168 C232 2.848 . S
C169 C172 1.429 . S
C169 C173 1.411 . S
C169 N176 1.377 . S
C170 C172 1.420 . S
C170 C174 1.423 . S
C170 C182 1.392 . S
C171 C173 1.420 . S
C171 C174 1.351 . S
C171 H194 0.931 . S
C172 C169 1.429 . S
C172 C170 1.420 . S
C172 N180 1.362 . S
C173 C169 1.411 . S
C173 C171 1.420 . S
C173 C178 1.395 . S
C174 C170 1.423 . S
C174 C171 1.351 . S
C174 H186 0.930 . S
C175 C177 1.400 . S
C175 C178 1.386 . S
C175 H187 0.930 . S
N176 C169 1.377 . S
N176 C177 1.321 . S
N176 Eu179 2.609 . S
C177 C175 1.400 . S
C177 N176 1.321 . S
C177 H184 0.930 . S
C178 C173 1.395 . S
C178 C175 1.386 . S
C178 H197 0.930 . S
Eu179 N176 2.609 . S
Eu179 N180 2.657 . S
Eu179 O213 2.380 . S
Eu179 O214 2.432 . S
Eu179 O218 2.558 . S
Eu179 O219 2.612 . S
Eu179 O221 2.339 . S
Eu179 O222 2.563 . S
Eu179 O223 2.419 . S
Eu179 C243 2.848 . S
N180 C172 1.362 . S
N180 Eu179 2.657 . S
N180 C181 1.334 . S
C181 N180 1.334 . S
C181 C183 1.413 . S
C181 H188 0.929 . S
C182 C170 1.392 . S
C182 C183 1.367 . S
C182 H190 0.930 . S
C183 C181 1.413 . S
C183 C182 1.367 . S
C183 H185 0.930 . S
H184 C177 0.930 . S
H185 C183 0.930 . S
H186 C174 0.930 . S
H187 C175 0.930 . S
H188 C181 0.929 . S
H189 C203 0.930 . S
H190 C182 0.930 . S
H191 C209 0.930 . S
H192 C200 0.929 . S
H193 C207 0.930 . S
H194 C171 0.931 . S
H195 C201 0.930 . S
H196 C234 0.930 . S
H197 C178 0.930 . S
H198 C233 0.931 . S
N199 Eu168 2.657 . S
N199 C200 1.334 . S
N199 C204 1.362 . S
C200 H192 0.929 . S
C200 N199 1.334 . S
C200 C203 1.413 . S
C201 H195 0.930 . S
C201 C202 1.392 . S
C201 C203 1.367 . S
C202 C201 1.392 . S
C202 C204 1.420 . S
C202 C234 1.423 . S
C203 H189 0.930 . S
C203 C200 1.413 . S
C203 C201 1.367 . S
C204 N199 1.362 . S
C204 C202 1.420 . S
C204 C208 1.429 . S
H205 C210 0.930 . S
N206 Eu168 2.609 . S
N206 C208 1.377 . S
N206 C209 1.321 . S
C207 H193 0.930 . S
C207 C209 1.400 . S
C207 C210 1.386 . S
C208 C204 1.429 . S
C208 N206 1.377 . S
C208 C211 1.411 . S
C209 H191 0.930 . S
C209 N206 1.321 . S
C209 C207 1.400 . S
C210 H205 0.930 . S
C210 C207 1.386 . S
C210 C211 1.395 . S
C211 C208 1.411 . S
C211 C210 1.395 . S
C211 C233 1.420 . S
O212 Eu168 2.558 . S
O212 C232 1.257 . S
O213 Eu168 2.612 . S
O213 Eu179 2.380 . S
O213 C224 1.276 . S
O214 Eu179 2.432 . S
O214 C231 1.264 . S
O215 Eu168 2.339 . S
O215 C231 1.254 . S
O216 Eu168 2.563 . S
O216 C224 1.235 . S
O217 Eu168 2.419 . S
O217 C232 1.249 . S
O218 Eu179 2.558 . S
O218 C243 1.257 . S
O219 Eu168 2.380 . S
O219 Eu179 2.612 . S
O219 C235 1.276 . S
O220 Eu168 2.432 . S
O220 C242 1.264 . S
O221 Eu179 2.339 . S
O221 C242 1.254 . S
O222 Eu179 2.563 . S
O222 C235 1.235 . S
O223 Eu179 2.419 . S
O223 C243 1.249 . S
C224 O213 1.276 . S
C224 O216 1.235 . S
C225 C227 1.393 . S
C225 C229 1.395 . S
C225 C232 1.492 . S
C226 C227 1.392 . S
C226 C228 1.386 . S
C227 C225 1.393 . S
C227 C226 1.392 . S
C227 H244 0.930 . S
C228 C226 1.386 . S
C228 C230 1.395 . S
C228 H245 0.930 . S
C229 C225 1.395 . S
C229 C230 1.379 . S
C229 H246 0.930 . S
C230 C228 1.395 . S
C230 C229 1.379 . S
C230 H247 0.930 . S
C231 O214 1.264 . S
C231 O215 1.254 . S
C232 Eu168 2.848 . S
C232 O212 1.257 . S
C232 O217 1.249 . S
C232 C225 1.492 . S
C233 H198 0.931 . S
C233 C211 1.420 . S
C233 C234 1.351 . S
C234 H196 0.930 . S
C234 C202 1.423 . S
C234 C233 1.351 . S
C235 O219 1.276 . S
C235 O222 1.235 . S
C236 C237 1.393 . S
C236 C240 1.395 . S
C236 C243 1.492 . S
C237 C236 1.393 . S
C237 C238 1.392 . S
C237 H248 0.930 . S
C238 C237 1.392 . S
C238 C239 1.386 . S
C239 C238 1.386 . S
C239 C241 1.395 . S
C239 H249 0.930 . S
C240 C236 1.395 . S
C240 C241 1.379 . S
C240 H250 0.930 . S
C241 C239 1.395 . S
C241 C240 1.379 . S
C241 H251 0.930 . S
C242 O220 1.264 . S
C242 O221 1.254 . S
C243 Eu179 2.848 . S
C243 O218 1.257 . S
C243 O223 1.249 . S
C243 C236 1.492 . S
H244 C227 0.930 . S
H245 C228 0.930 . S
H246 C229 0.930 . S
H247 C230 0.930 . S
H248 C237 0.930 . S
H249 C239 0.930 . S
H250 C240 0.930 . S
H251 C241 0.930 . S
Eu252 N283 2.657 . S
Eu252 N290 2.609 . S
Eu252 O296 2.558 . S
Eu252 O297 2.612 . S
Eu252 O299 2.339 . S
Eu252 O300 2.563 . S
Eu252 O301 2.419 . S
Eu252 O303 2.380 . S
Eu252 O304 2.432 . S
Eu252 C316 2.848 . S
C253 C256 1.429 . S
C253 C257 1.411 . S
C253 N260 1.377 . S
C254 C256 1.420 . S
C254 C258 1.423 . S
C254 C266 1.392 . S
C255 C257 1.420 . S
C255 C258 1.351 . S
C255 H278 0.931 . S
C256 C253 1.429 . S
C256 C254 1.420 . S
C256 N264 1.362 . S
C257 C253 1.411 . S
C257 C255 1.420 . S
C257 C262 1.395 . S
C258 C254 1.423 . S
C258 C255 1.351 . S
C258 H270 0.930 . S
C259 C261 1.400 . S
C259 C262 1.386 . S
C259 H271 0.930 . S
N260 C253 1.377 . S
N260 C261 1.321 . S
N260 Eu263 2.609 . S
C261 C259 1.400 . S
C261 N260 1.321 . S
C261 H268 0.930 . S
C262 C257 1.395 . S
C262 C259 1.386 . S
C262 H281 0.930 . S
Eu263 N260 2.609 . S
Eu263 N264 2.657 . S
Eu263 O297 2.380 . S
Eu263 O298 2.432 . S
Eu263 O302 2.558 . S
Eu263 O303 2.612 . S
Eu263 O305 2.339 . S
Eu263 O306 2.563 . S
Eu263 O307 2.419 . S
Eu263 C327 2.848 . S
N264 C256 1.362 . S
N264 Eu263 2.657 . S
N264 C265 1.334 . S
C265 N264 1.334 . S
C265 C267 1.413 . S
C265 H272 0.929 . S
C266 C254 1.392 . S
C266 C267 1.367 . S
C266 H274 0.930 . S
C267 C265 1.413 . S
C267 C266 1.367 . S
C267 H269 0.930 . S
H268 C261 0.930 . S
H269 C267 0.930 . S
H270 C258 0.930 . S
H271 C259 0.930 . S
H272 C265 0.929 . S
H273 C287 0.930 . S
H274 C266 0.930 . S
H275 C293 0.930 . S
H276 C284 0.929 . S
H277 C291 0.930 . S
H278 C255 0.931 . S
H279 C285 0.930 . S
H280 C318 0.930 . S
H281 C262 0.930 . S
H282 C317 0.931 . S
N283 Eu252 2.657 . S
N283 C284 1.334 . S
N283 C288 1.362 . S
C284 H276 0.929 . S
C284 N283 1.334 . S
C284 C287 1.413 . S
C285 H279 0.930 . S
C285 C286 1.392 . S
C285 C287 1.367 . S
C286 C285 1.392 . S
C286 C288 1.420 . S
C286 C318 1.423 . S
C287 H273 0.930 . S
C287 C284 1.413 . S
C287 C285 1.367 . S
C288 N283 1.362 . S
C288 C286 1.420 . S
C288 C292 1.429 . S
H289 C294 0.930 . S
N290 Eu252 2.609 . S
N290 C292 1.377 . S
N290 C293 1.321 . S
C291 H277 0.930 . S
C291 C293 1.400 . S
C291 C294 1.386 . S
C292 C288 1.429 . S
C292 N290 1.377 . S
C292 C295 1.411 . S
C293 H275 0.930 . S
C293 N290 1.321 . S
C293 C291 1.400 . S
C294 H289 0.930 . S
C294 C291 1.386 . S
C294 C295 1.395 . S
C295 C292 1.411 . S
C295 C294 1.395 . S
C295 C317 1.420 . S
O296 Eu252 2.558 . S
O296 C316 1.257 . S
O297 Eu252 2.612 . S
O297 Eu263 2.380 . S
O297 C308 1.276 . S
O298 Eu263 2.432 . S
O298 C315 1.264 . S
O299 Eu252 2.339 . S
O299 C315 1.254 . S
O300 Eu252 2.563 . S
O300 C308 1.235 . S
O301 Eu252 2.419 . S
O301 C316 1.249 . S
O302 Eu263 2.558 . S
O302 C327 1.257 . S
O303 Eu252 2.380 . S
O303 Eu263 2.612 . S
O303 C319 1.276 . S
O304 Eu252 2.432 . S
O304 C326 1.264 . S
O305 Eu263 2.339 . S
O305 C326 1.254 . S
O306 Eu263 2.563 . S
O306 C319 1.235 . S
O307 Eu263 2.419 . S
O307 C327 1.249 . S
C308 O297 1.276 . S
C308 O300 1.235 . S
C309 C311 1.393 . S
C309 C313 1.395 . S
C309 C316 1.492 . S
C310 C311 1.392 . S
C310 C312 1.386 . S
C311 C309 1.393 . S
C311 C310 1.392 . S
C311 H328 0.930 . S
C312 C310 1.386 . S
C312 C314 1.395 . S
C312 H329 0.930 . S
C313 C309 1.395 . S
C313 C314 1.379 . S
C313 H330 0.930 . S
C314 C312 1.395 . S
C314 C313 1.379 . S
C314 H331 0.930 . S
C315 O298 1.264 . S
C315 O299 1.254 . S
C316 Eu252 2.848 . S
C316 O296 1.257 . S
C316 O301 1.249 . S
C316 C309 1.492 . S
C317 H282 0.931 . S
C317 C295 1.420 . S
C317 C318 1.351 . S
C318 H280 0.930 . S
C318 C286 1.423 . S
C318 C317 1.351 . S
C319 O303 1.276 . S
C319 O306 1.235 . S
C320 C321 1.393 . S
C320 C324 1.395 . S
C320 C327 1.492 . S
C321 C320 1.393 . S
C321 C322 1.392 . S
C321 H332 0.930 . S
C322 C321 1.392 . S
C322 C323 1.386 . S
C323 C322 1.386 . S
C323 C325 1.395 . S
C323 H333 0.930 . S
C324 C320 1.395 . S
C324 C325 1.379 . S
C324 H334 0.930 . S
C325 C323 1.395 . S
C325 C324 1.379 . S
C325 H335 0.930 . S
C326 O304 1.264 . S
C326 O305 1.254 . S
C327 Eu263 2.848 . S
C327 O302 1.257 . S
C327 O307 1.249 . S
C327 C320 1.492 . S
H328 C311 0.930 . S
H329 C312 0.930 . S
H330 C313 0.930 . S
H331 C314 0.930 . S
H332 C321 0.930 . S
H333 C323 0.930 . S
H334 C324 0.930 . S
H335 C325 0.930 . S
Eu336 N367 2.657 . S
Eu336 N374 2.609 . S
Eu336 O380 2.558 . S
Eu336 O381 2.612 . S
Eu336 O383 2.339 . S
Eu336 O384 2.563 . S
Eu336 O385 2.419 . S
Eu336 O387 2.380 . S
Eu336 O388 2.432 . S
Eu336 C400 2.848 . S
C337 C340 1.429 . S
C337 C341 1.411 . S
C337 N344 1.377 . S
C338 C340 1.420 . S
C338 C342 1.423 . S
C338 C350 1.392 . S
C339 C341 1.420 . S
C339 C342 1.351 . S
C339 H362 0.931 . S
C340 C337 1.429 . S
C340 C338 1.420 . S
C340 N348 1.362 . S
C341 C337 1.411 . S
C341 C339 1.420 . S
C341 C346 1.395 . S
C342 C338 1.423 . S
C342 C339 1.351 . S
C342 H354 0.930 . S
C343 C345 1.400 . S
C343 C346 1.386 . S
C343 H355 0.930 . S
N344 C337 1.377 . S
N344 C345 1.321 . S
N344 Eu347 2.609 . S
C345 C343 1.400 . S
C345 N344 1.321 . S
C345 H352 0.930 . S
C346 C341 1.395 . S
C346 C343 1.386 . S
C346 H365 0.930 . S
Eu347 N344 2.609 . S
Eu347 N348 2.657 . S
Eu347 O381 2.380 . S
Eu347 O382 2.432 . S
Eu347 O386 2.558 . S
Eu347 O387 2.612 . S
Eu347 O389 2.339 . S
Eu347 O390 2.563 . S
Eu347 O391 2.419 . S
Eu347 C411 2.848 . S
N348 C340 1.362 . S
N348 Eu347 2.657 . S
N348 C349 1.334 . S
C349 N348 1.334 . S
C349 C351 1.413 . S
C349 H356 0.929 . S
C350 C338 1.392 . S
C350 C351 1.367 . S
C350 H358 0.930 . S
C351 C349 1.413 . S
C351 C350 1.367 . S
C351 H353 0.930 . S
H352 C345 0.930 . S
H353 C351 0.930 . S
H354 C342 0.930 . S
H355 C343 0.930 . S
H356 C349 0.929 . S
H357 C371 0.930 . S
H358 C350 0.930 . S
H359 C377 0.930 . S
H360 C368 0.929 . S
H361 C375 0.930 . S
H362 C339 0.931 . S
H363 C369 0.930 . S
H364 C402 0.930 . S
H365 C346 0.930 . S
H366 C401 0.931 . S
N367 Eu336 2.657 . S
N367 C368 1.334 . S
N367 C372 1.362 . S
C368 H360 0.929 . S
C368 N367 1.334 . S
C368 C371 1.413 . S
C369 H363 0.930 . S
C369 C370 1.392 . S
C369 C371 1.367 . S
C370 C369 1.392 . S
C370 C372 1.420 . S
C370 C402 1.423 . S
C371 H357 0.930 . S
C371 C368 1.413 . S
C371 C369 1.367 . S
C372 N367 1.362 . S
C372 C370 1.420 . S
C372 C376 1.429 . S
H373 C378 0.930 . S
N374 Eu336 2.609 . S
N374 C376 1.377 . S
N374 C377 1.321 . S
C375 H361 0.930 . S
C375 C377 1.400 . S
C375 C378 1.386 . S
C376 C372 1.429 . S
C376 N374 1.377 . S
C376 C379 1.411 . S
C377 H359 0.930 . S
C377 N374 1.321 . S
C377 C375 1.400 . S
C378 H373 0.930 . S
C378 C375 1.386 . S
C378 C379 1.395 . S
C379 C376 1.411 . S
C379 C378 1.395 . S
C379 C401 1.420 . S
O380 Eu336 2.558 . S
O380 C400 1.257 . S
O381 Eu336 2.612 . S
O381 Eu347 2.380 . S
O381 C392 1.276 . S
O382 Eu347 2.432 . S
O382 C399 1.264 . S
O383 Eu336 2.339 . S
O383 C399 1.254 . S
O384 Eu336 2.563 . S
O384 C392 1.235 . S
O385 Eu336 2.419 . S
O385 C400 1.249 . S
O386 Eu347 2.558 . S
O386 C411 1.257 . S
O387 Eu336 2.380 . S
O387 Eu347 2.612 . S
O387 C403 1.276 . S
O388 Eu336 2.432 . S
O388 C410 1.264 . S
O389 Eu347 2.339 . S
O389 C410 1.254 . S
O390 Eu347 2.563 . S
O390 C403 1.235 . S
O391 Eu347 2.419 . S
O391 C411 1.249 . S
C392 O381 1.276 . S
C392 O384 1.235 . S
C393 C395 1.393 . S
C393 C397 1.395 . S
C393 C400 1.492 . S
C394 C395 1.392 . S
C394 C396 1.386 . S
C395 C393 1.393 . S
C395 C394 1.392 . S
C395 H412 0.930 . S
C396 C394 1.386 . S
C396 C398 1.395 . S
C396 H413 0.930 . S
C397 C393 1.395 . S
C397 C398 1.379 . S
C397 H414 0.930 . S
C398 C396 1.395 . S
C398 C397 1.379 . S
C398 H415 0.930 . S
C399 O382 1.264 . S
C399 O383 1.254 . S
C400 Eu336 2.848 . S
C400 O380 1.257 . S
C400 O385 1.249 . S
C400 C393 1.492 . S
C401 H366 0.931 . S
C401 C379 1.420 . S
C401 C402 1.351 . S
C402 H364 0.930 . S
C402 C370 1.423 . S
C402 C401 1.351 . S
C403 O387 1.276 . S
C403 O390 1.235 . S
C404 C405 1.393 . S
C404 C408 1.395 . S
C404 C411 1.492 . S
C405 C404 1.393 . S
C405 C406 1.392 . S
C405 H416 0.930 . S
C406 C405 1.392 . S
C406 C407 1.386 . S
C407 C406 1.386 . S
C407 C409 1.395 . S
C407 H417 0.930 . S
C408 C404 1.395 . S
C408 C409 1.379 . S
C408 H418 0.930 . S
C409 C407 1.395 . S
C409 C408 1.379 . S
C409 H419 0.930 . S
C410 O388 1.264 . S
C410 O389 1.254 . S
C411 Eu347 2.848 . S
C411 O386 1.257 . S
C411 O391 1.249 . S
C411 C404 1.492 . S
H412 C395 0.930 . S
H413 C396 0.930 . S
H414 C397 0.930 . S
H415 C398 0.930 . S
H416 C405 0.930 . S
H417 C407 0.930 . S
H418 C408 0.930 . S
H419 C409 0.930 . S
Eu420 N451 2.657 . S
Eu420 N458 2.609 . S
Eu420 O464 2.558 . S
Eu420 O465 2.612 . S
Eu420 O467 2.339 . S
Eu420 O468 2.563 . S
Eu420 O469 2.419 . S
Eu420 O471 2.380 . S
Eu420 O472 2.432 . S
Eu420 C484 2.848 . S
C421 C424 1.429 . S
C421 C425 1.411 . S
C421 N428 1.377 . S
C422 C424 1.420 . S
C422 C426 1.423 . S
C422 C434 1.392 . S
C423 C425 1.420 . S
C423 C426 1.351 . S
C423 H446 0.931 . S
C424 C421 1.429 . S
C424 C422 1.420 . S
C424 N432 1.362 . S
C425 C421 1.411 . S
C425 C423 1.420 . S
C425 C430 1.395 . S
C426 C422 1.423 . S
C426 C423 1.351 . S
C426 H438 0.930 . S
C427 C429 1.400 . S
C427 C430 1.386 . S
C427 H439 0.930 . S
N428 C421 1.377 . S
N428 C429 1.321 . S
N428 Eu431 2.609 . S
C429 C427 1.400 . S
C429 N428 1.321 . S
C429 H436 0.930 . S
C430 C425 1.395 . S
C430 C427 1.386 . S
C430 H449 0.930 . S
Eu431 N428 2.609 . S
Eu431 N432 2.657 . S
Eu431 O465 2.380 . S
Eu431 O466 2.432 . S
Eu431 O470 2.558 . S
Eu431 O471 2.612 . S
Eu431 O473 2.339 . S
Eu431 O474 2.563 . S
Eu431 O475 2.419 . S
Eu431 C495 2.848 . S
N432 C424 1.362 . S
N432 Eu431 2.657 . S
N432 C433 1.334 . S
C433 N432 1.334 . S
C433 C435 1.413 . S
C433 H440 0.929 . S
C434 C422 1.392 . S
C434 C435 1.367 . S
C434 H442 0.930 . S
C435 C433 1.413 . S
C435 C434 1.367 . S
C435 H437 0.930 . S
H436 C429 0.930 . S
H437 C435 0.930 . S
H438 C426 0.930 . S
H439 C427 0.930 . S
H440 C433 0.929 . S
H441 C455 0.930 . S
H442 C434 0.930 . S
H443 C461 0.930 . S
H444 C452 0.929 . S
H445 C459 0.930 . S
H446 C423 0.931 . S
H447 C453 0.930 . S
H448 C486 0.930 . S
H449 C430 0.930 . S
H450 C485 0.931 . S
N451 Eu420 2.657 . S
N451 C452 1.334 . S
N451 C456 1.362 . S
C452 H444 0.929 . S
C452 N451 1.334 . S
C452 C455 1.413 . S
C453 H447 0.930 . S
C453 C454 1.392 . S
C453 C455 1.367 . S
C454 C453 1.392 . S
C454 C456 1.420 . S
C454 C486 1.423 . S
C455 H441 0.930 . S
C455 C452 1.413 . S
C455 C453 1.367 . S
C456 N451 1.362 . S
C456 C454 1.420 . S
C456 C460 1.429 . S
H457 C462 0.930 . S
N458 Eu420 2.609 . S
N458 C460 1.377 . S
N458 C461 1.321 . S
C459 H445 0.930 . S
C459 C461 1.400 . S
C459 C462 1.386 . S
C460 C456 1.429 . S
C460 N458 1.377 . S
C460 C463 1.411 . S
C461 H443 0.930 . S
C461 N458 1.321 . S
C461 C459 1.400 . S
C462 H457 0.930 . S
C462 C459 1.386 . S
C462 C463 1.395 . S
C463 C460 1.411 . S
C463 C462 1.395 . S
C463 C485 1.420 . S
O464 Eu420 2.558 . S
O464 C484 1.257 . S
O465 Eu420 2.612 . S
O465 Eu431 2.380 . S
O465 C476 1.276 . S
O466 Eu431 2.432 . S
O466 C483 1.264 . S
O467 Eu420 2.339 . S
O467 C483 1.254 . S
O468 Eu420 2.563 . S
O468 C476 1.235 . S
O469 Eu420 2.419 . S
O469 C484 1.249 . S
O470 Eu431 2.558 . S
O470 C495 1.257 . S
O471 Eu420 2.380 . S
O471 Eu431 2.612 . S
O471 C487 1.276 . S
O472 Eu420 2.432 . S
O472 C494 1.264 . S
O473 Eu431 2.339 . S
O473 C494 1.254 . S
O474 Eu431 2.563 . S
O474 C487 1.235 . S
O475 Eu431 2.419 . S
O475 C495 1.249 . S
C476 O465 1.276 . S
C476 O468 1.235 . S
C477 C479 1.393 . S
C477 C481 1.395 . S
C477 C484 1.492 . S
C478 C479 1.392 . S
C478 C480 1.386 . S
C479 C477 1.393 . S
C479 C478 1.392 . S
C479 H496 0.930 . S
C480 C478 1.386 . S
C480 C482 1.395 . S
C480 H497 0.930 . S
C481 C477 1.395 . S
C481 C482 1.379 . S
C481 H498 0.930 . S
C482 C480 1.395 . S
C482 C481 1.379 . S
C482 H499 0.930 . S
C483 O466 1.264 . S
C483 O467 1.254 . S
C484 Eu420 2.848 . S
C484 O464 1.257 . S
C484 O469 1.249 . S
C484 C477 1.492 . S
C485 H450 0.931 . S
C485 C463 1.420 . S
C485 C486 1.351 . S
C486 H448 0.930 . S
C486 C454 1.423 . S
C486 C485 1.351 . S
C487 O471 1.276 . S
C487 O474 1.235 . S
C488 C489 1.393 . S
C488 C492 1.395 . S
C488 C495 1.492 . S
C489 C488 1.393 . S
C489 C490 1.392 . S
C489 H500 0.930 . S
C490 C489 1.392 . S
C490 C491 1.386 . S
C491 C490 1.386 . S
C491 C493 1.395 . S
C491 H501 0.930 . S
C492 C488 1.395 . S
C492 C493 1.379 . S
C492 H502 0.930 . S
C493 C491 1.395 . S
C493 C492 1.379 . S
C493 H503 0.930 . S
C494 O472 1.264 . S
C494 O473 1.254 . S
C495 Eu431 2.848 . S
C495 O470 1.257 . S
C495 O475 1.249 . S
C495 C488 1.492 . S
H496 C479 0.930 . S
H497 C480 0.930 . S
H498 C481 0.930 . S
H499 C482 0.930 . S
H500 C489 0.930 . S
H501 C491 0.930 . S
H502 C492 0.930 . S
H503 C493 0.930 . S
Eu504 N535 2.657 . S
Eu504 N542 2.609 . S
Eu504 O548 2.558 . S
Eu504 O549 2.612 . S
Eu504 O551 2.339 . S
Eu504 O552 2.563 . S
Eu504 O553 2.419 . S
Eu504 O555 2.380 . S
Eu504 O556 2.432 . S
Eu504 C568 2.848 . S
C505 C508 1.429 . S
C505 C509 1.411 . S
C505 N512 1.377 . S
C506 C508 1.420 . S
C506 C510 1.423 . S
C506 C518 1.392 . S
C507 C509 1.420 . S
C507 C510 1.351 . S
C507 H530 0.931 . S
C508 C505 1.429 . S
C508 C506 1.420 . S
C508 N516 1.362 . S
C509 C505 1.411 . S
C509 C507 1.420 . S
C509 C514 1.395 . S
C510 C506 1.423 . S
C510 C507 1.351 . S
C510 H522 0.930 . S
C511 C513 1.400 . S
C511 C514 1.386 . S
C511 H523 0.930 . S
N512 C505 1.377 . S
N512 C513 1.321 . S
N512 Eu515 2.609 . S
C513 C511 1.400 . S
C513 N512 1.321 . S
C513 H520 0.930 . S
C514 C509 1.395 . S
C514 C511 1.386 . S
C514 H533 0.930 . S
Eu515 N512 2.609 . S
Eu515 N516 2.657 . S
Eu515 O549 2.380 . S
Eu515 O550 2.432 . S
Eu515 O554 2.558 . S
Eu515 O555 2.612 . S
Eu515 O557 2.339 . S
Eu515 O558 2.563 . S
Eu515 O559 2.419 . S
Eu515 C579 2.848 . S
N516 C508 1.362 . S
N516 Eu515 2.657 . S
N516 C517 1.334 . S
C517 N516 1.334 . S
C517 C519 1.413 . S
C517 H524 0.929 . S
C518 C506 1.392 . S
C518 C519 1.367 . S
C518 H526 0.930 . S
C519 C517 1.413 . S
C519 C518 1.367 . S
C519 H521 0.930 . S
H520 C513 0.930 . S
H521 C519 0.930 . S
H522 C510 0.930 . S
H523 C511 0.930 . S
H524 C517 0.929 . S
H525 C539 0.930 . S
H526 C518 0.930 . S
H527 C545 0.930 . S
H528 C536 0.929 . S
H529 C543 0.930 . S
H530 C507 0.931 . S
H531 C537 0.930 . S
H532 C570 0.930 . S
H533 C514 0.930 . S
H534 C569 0.931 . S
N535 Eu504 2.657 . S
N535 C536 1.334 . S
N535 C540 1.362 . S
C536 H528 0.929 . S
C536 N535 1.334 . S
C536 C539 1.413 . S
C537 H531 0.930 . S
C537 C538 1.392 . S
C537 C539 1.367 . S
C538 C537 1.392 . S
C538 C540 1.420 . S
C538 C570 1.423 . S
C539 H525 0.930 . S
C539 C536 1.413 . S
C539 C537 1.367 . S
C540 N535 1.362 . S
C540 C538 1.420 . S
C540 C544 1.429 . S
H541 C546 0.930 . S
N542 Eu504 2.609 . S
N542 C544 1.377 . S
N542 C545 1.321 . S
C543 H529 0.930 . S
C543 C545 1.400 . S
C543 C546 1.386 . S
C544 C540 1.429 . S
C544 N542 1.377 . S
C544 C547 1.411 . S
C545 H527 0.930 . S
C545 N542 1.321 . S
C545 C543 1.400 . S
C546 H541 0.930 . S
C546 C543 1.386 . S
C546 C547 1.395 . S
C547 C544 1.411 . S
C547 C546 1.395 . S
C547 C569 1.420 . S
O548 Eu504 2.558 . S
O548 C568 1.257 . S
O549 Eu504 2.612 . S
O549 Eu515 2.380 . S
O549 C560 1.276 . S
O550 Eu515 2.432 . S
O550 C567 1.264 . S
O551 Eu504 2.339 . S
O551 C567 1.254 . S
O552 Eu504 2.563 . S
O552 C560 1.235 . S
O553 Eu504 2.419 . S
O553 C568 1.249 . S
O554 Eu515 2.558 . S
O554 C579 1.257 . S
O555 Eu504 2.380 . S
O555 Eu515 2.612 . S
O555 C571 1.276 . S
O556 Eu504 2.432 . S
O556 C578 1.264 . S
O557 Eu515 2.339 . S
O557 C578 1.254 . S
O558 Eu515 2.563 . S
O558 C571 1.235 . S
O559 Eu515 2.419 . S
O559 C579 1.249 . S
C560 O549 1.276 . S
C560 O552 1.235 . S
C561 C563 1.393 . S
C561 C565 1.395 . S
C561 C568 1.492 . S
C562 C563 1.392 . S
C562 C564 1.386 . S
C563 C561 1.393 . S
C563 C562 1.392 . S
C563 H580 0.930 . S
C564 C562 1.386 . S
C564 C566 1.395 . S
C564 H581 0.930 . S
C565 C561 1.395 . S
C565 C566 1.379 . S
C565 H582 0.930 . S
C566 C564 1.395 . S
C566 C565 1.379 . S
C566 H583 0.930 . S
C567 O550 1.264 . S
C567 O551 1.254 . S
C568 Eu504 2.848 . S
C568 O548 1.257 . S
C568 O553 1.249 . S
C568 C561 1.492 . S
C569 H534 0.931 . S
C569 C547 1.420 . S
C569 C570 1.351 . S
C570 H532 0.930 . S
C570 C538 1.423 . S
C570 C569 1.351 . S
C571 O555 1.276 . S
C571 O558 1.235 . S
C572 C573 1.393 . S
C572 C576 1.395 . S
C572 C579 1.492 . S
C573 C572 1.393 . S
C573 C574 1.392 . S
C573 H584 0.930 . S
C574 C573 1.392 . S
C574 C575 1.386 . S
C575 C574 1.386 . S
C575 C577 1.395 . S
C575 H585 0.930 . S
C576 C572 1.395 . S
C576 C577 1.379 . S
C576 H586 0.930 . S
C577 C575 1.395 . S
C577 C576 1.379 . S
C577 H587 0.930 . S
C578 O556 1.264 . S
C578 O557 1.254 . S
C579 Eu515 2.848 . S
C579 O554 1.257 . S
C579 O559 1.249 . S
C579 C572 1.492 . S
H580 C563 0.930 . S
H581 C564 0.930 . S
H582 C565 0.930 . S
H583 C566 0.930 . S
H584 C573 0.930 . S
H585 C575 0.930 . S
H586 C576 0.930 . S
H587 C577 0.930 . S
Eu588 N619 2.657 . S
Eu588 N626 2.609 . S
Eu588 O632 2.558 . S
Eu588 O633 2.612 . S
Eu588 O635 2.339 . S
Eu588 O636 2.563 . S
Eu588 O637 2.419 . S
Eu588 O639 2.380 . S
Eu588 O640 2.432 . S
Eu588 C652 2.848 . S
C589 C592 1.429 . S
C589 C593 1.411 . S
C589 N596 1.377 . S
C590 C592 1.420 . S
C590 C594 1.423 . S
C590 C602 1.392 . S
C591 C593 1.420 . S
C591 C594 1.351 . S
C591 H614 0.931 . S
C592 C589 1.429 . S
C592 C590 1.420 . S
C592 N600 1.362 . S
C593 C589 1.411 . S
C593 C591 1.420 . S
C593 C598 1.395 . S
C594 C590 1.423 . S
C594 C591 1.351 . S
C594 H606 0.930 . S
C595 C597 1.400 . S
C595 C598 1.386 . S
C595 H607 0.930 . S
N596 C589 1.377 . S
N596 C597 1.321 . S
N596 Eu599 2.609 . S
C597 C595 1.400 . S
C597 N596 1.321 . S
C597 H604 0.930 . S
C598 C593 1.395 . S
C598 C595 1.386 . S
C598 H617 0.930 . S
Eu599 N596 2.609 . S
Eu599 N600 2.657 . S
Eu599 O633 2.380 . S
Eu599 O634 2.432 . S
Eu599 O638 2.558 . S
Eu599 O639 2.612 . S
Eu599 O641 2.339 . S
Eu599 O642 2.563 . S
Eu599 O643 2.419 . S
Eu599 C663 2.848 . S
N600 C592 1.362 . S
N600 Eu599 2.657 . S
N600 C601 1.334 . S
C601 N600 1.334 . S
C601 C603 1.413 . S
C601 H608 0.929 . S
C602 C590 1.392 . S
C602 C603 1.367 . S
C602 H610 0.930 . S
C603 C601 1.413 . S
C603 C602 1.367 . S
C603 H605 0.930 . S
H604 C597 0.930 . S
H605 C603 0.930 . S
H606 C594 0.930 . S
H607 C595 0.930 . S
H608 C601 0.929 . S
H609 C623 0.930 . S
H610 C602 0.930 . S
H611 C629 0.930 . S
H612 C620 0.929 . S
H613 C627 0.930 . S
H614 C591 0.931 . S
H615 C621 0.930 . S
H616 C654 0.930 . S
H617 C598 0.930 . S
H618 C653 0.931 . S
N619 Eu588 2.657 . S
N619 C620 1.334 . S
N619 C624 1.362 . S
C620 H612 0.929 . S
C620 N619 1.334 . S
C620 C623 1.413 . S
C621 H615 0.930 . S
C621 C622 1.392 . S
C621 C623 1.367 . S
C622 C621 1.392 . S
C622 C624 1.420 . S
C622 C654 1.423 . S
C623 H609 0.930 . S
C623 C620 1.413 . S
C623 C621 1.367 . S
C624 N619 1.362 . S
C624 C622 1.420 . S
C624 C628 1.429 . S
H625 C630 0.930 . S
N626 Eu588 2.609 . S
N626 C628 1.377 . S
N626 C629 1.321 . S
C627 H613 0.930 . S
C627 C629 1.400 . S
C627 C630 1.386 . S
C628 C624 1.429 . S
C628 N626 1.377 . S
C628 C631 1.411 . S
C629 H611 0.930 . S
C629 N626 1.321 . S
C629 C627 1.400 . S
C630 H625 0.930 . S
C630 C627 1.386 . S
C630 C631 1.395 . S
C631 C628 1.411 . S
C631 C630 1.395 . S
C631 C653 1.420 . S
O632 Eu588 2.558 . S
O632 C652 1.257 . S
O633 Eu588 2.612 . S
O633 Eu599 2.380 . S
O633 C644 1.276 . S
O634 Eu599 2.432 . S
O634 C651 1.264 . S
O635 Eu588 2.339 . S
O635 C651 1.254 . S
O636 Eu588 2.563 . S
O636 C644 1.235 . S
O637 Eu588 2.419 . S
O637 C652 1.249 . S
O638 Eu599 2.558 . S
O638 C663 1.257 . S
O639 Eu588 2.380 . S
O639 Eu599 2.612 . S
O639 C655 1.276 . S
O640 Eu588 2.432 . S
O640 C662 1.264 . S
O641 Eu599 2.339 . S
O641 C662 1.254 . S
O642 Eu599 2.563 . S
O642 C655 1.235 . S
O643 Eu599 2.419 . S
O643 C663 1.249 . S
C644 O633 1.276 . S
C644 O636 1.235 . S
C645 C647 1.393 . S
C645 C649 1.395 . S
C645 C652 1.492 . S
C646 C647 1.392 . S
C646 C648 1.386 . S
C647 C645 1.393 . S
C647 C646 1.392 . S
C647 H664 0.930 . S
C648 C646 1.386 . S
C648 C650 1.395 . S
C648 H665 0.930 . S
C649 C645 1.395 . S
C649 C650 1.379 . S
C649 H666 0.930 . S
C650 C648 1.395 . S
C650 C649 1.379 . S
C650 H667 0.930 . S
C651 O634 1.264 . S
C651 O635 1.254 . S
C652 Eu588 2.848 . S
C652 O632 1.257 . S
C652 O637 1.249 . S
C652 C645 1.492 . S
C653 H618 0.931 . S
C653 C631 1.420 . S
C653 C654 1.351 . S
C654 H616 0.930 . S
C654 C622 1.423 . S
C654 C653 1.351 . S
C655 O639 1.276 . S
C655 O642 1.235 . S
C656 C657 1.393 . S
C656 C660 1.395 . S
C656 C663 1.492 . S
C657 C656 1.393 . S
C657 C658 1.392 . S
C657 H668 0.930 . S
C658 C657 1.392 . S
C658 C659 1.386 . S
C659 C658 1.386 . S
C659 C661 1.395 . S
C659 H669 0.930 . S
C660 C656 1.395 . S
C660 C661 1.379 . S
C660 H670 0.930 . S
C661 C659 1.395 . S
C661 C660 1.379 . S
C661 H671 0.930 . S
C662 O640 1.264 . S
C662 O641 1.254 . S
C663 Eu599 2.848 . S
C663 O638 1.257 . S
C663 O643 1.249 . S
C663 C656 1.492 . S
H664 C647 0.930 . S
H665 C648 0.930 . S
H666 C649 0.930 . S
H667 C650 0.930 . S
H668 C657 0.930 . S
H669 C659 0.930 . S
H670 C660 0.930 . S
H671 C661 0.930 . S
Cd672 N675 2.334 1_655 S
Cd672 N701 2.304 1_565 S
Cd672 O708 2.268 . S
Cd672 O711 2.273 1_665 S
Cd672 O712 2.417 . S
Cd672 O713 2.330 . S
Cd673 N688 2.304 1_455 S
Cd673 N692 2.334 1_545 S
Cd673 O709 2.273 1_445 S
Cd673 O710 2.268 . S
Cd673 O714 2.417 . S
Cd673 O715 2.330 . S
C674 N675 1.332 . S
C674 C678 1.381 . S
C674 H680 0.931 . S
N675 Cd672 2.334 1_455 S
N675 C674 1.332 . S
N675 C679 1.328 . S
C676 C677 1.396 . S
C676 C679 1.378 . S
C676 H718 0.931 . S
C677 C676 1.396 . S
C677 C678 1.382 . S
C678 C674 1.381 . S
C678 C677 1.382 . S
C678 H719 0.930 . S
C679 N675 1.328 . S
C679 C676 1.378 . S
C679 H681 0.930 1_455 S
H680 C674 0.931 . S
H681 C679 0.930 1_655 S
C682 O708 1.238 . S
C682 O709 1.253 . S
C683 C684 1.379 . S
C683 N688 1.337 . S
C683 H689 0.929 . S
C684 C683 1.379 . S
C684 C685 1.380 . S
C684 H720 0.929 . S
C685 C684 1.380 . S
C685 C686 1.399 . S
C686 C685 1.399 . S
C686 C687 1.376 . S
C686 H721 0.931 . S
C687 C686 1.376 . S
C687 N688 1.338 . S
C687 H690 0.930 1_655 S
N688 Cd673 2.304 1_655 S
N688 C683 1.337 . S
N688 C687 1.338 . S
H689 C683 0.929 . S
H690 C687 0.930 1_455 S
C691 N692 1.332 . S
C691 C695 1.381 . S
C691 H697 0.931 . S
N692 Cd673 2.334 1_565 S
N692 C691 1.332 . S
N692 C696 1.328 . S
C693 C694 1.396 . S
C693 C696 1.378 . S
C693 H722 0.931 . S
C694 C693 1.396 . S
C694 C695 1.382 . S
C695 C691 1.381 . S
C695 C694 1.382 . S
C695 H723 0.930 . S
C696 N692 1.328 . S
C696 C693 1.378 . S
C696 H698 0.930 1_565 S
H697 C691 0.931 . S
H698 C696 0.930 1_545 S
C699 O710 1.238 . S
C699 O711 1.253 . S
C700 O712 1.239 . S
C700 O713 1.230 . S
N701 Cd672 2.304 1_545 S
N701 C702 1.337 . S
N701 C706 1.338 . S
C702 N701 1.337 . S
C702 C703 1.379 . S
C702 H716 0.929 . S
C703 C702 1.379 . S
C703 C704 1.380 . S
C703 H724 0.929 . S
C704 C703 1.380 . S
C704 C705 1.399 . S
C705 C704 1.399 . S
C705 C706 1.376 . S
C705 H725 0.931 . S
C706 N701 1.338 . S
C706 C705 1.376 . S
C706 H717 0.930 1_545 S
C707 O714 1.239 . S
C707 O715 1.230 . S
O708 Cd672 2.268 . S
O708 C682 1.238 . S
O709 Cd673 2.273 1_665 S
O709 C682 1.253 . S
O710 Cd673 2.268 . S
O710 C699 1.238 . S
O711 Cd672 2.273 1_445 S
O711 C699 1.253 . S
O712 Cd672 2.417 . S
O712 C700 1.239 . S
O713 Cd672 2.330 . S
O713 C700 1.230 . S
O714 Cd673 2.417 . S
O714 C707 1.239 . S
O715 Cd673 2.330 . S
O715 C707 1.230 . S
H716 C702 0.929 . S
H717 C706 0.930 1_565 S
H718 C676 0.931 . S
H719 C678 0.930 . S
H720 C684 0.929 . S
H721 C686 0.931 . S
H722 C693 0.931 . S
H723 C695 0.930 . S
H724 C703 0.929 . S
H725 C705 0.931 . S
Cd726 N729 2.334 . S
Cd726 N755 2.304 1_565 S
Cd726 O762 2.268 1_554 S
Cd726 O765 2.273 1_565 S
Cd726 O766 2.417 . S
Cd726 O767 2.330 . S
Cd727 N742 2.304 . S
Cd727 N746 2.334 1_545 S
Cd727 O763 2.273 1_545 S
Cd727 O764 2.268 1_556 S
Cd727 O768 2.417 . S
Cd727 O769 2.330 . S
C728 N729 1.332 . S
C728 C732 1.381 . S
C728 H734 0.931 . S
N729 Cd726 2.334 . S
N729 C728 1.332 . S
N729 C733 1.328 . S
C730 C731 1.396 . S
C730 C733 1.378 . S
C730 H772 0.931 . S
C731 C730 1.396 . S
C731 C732 1.382 . S
C732 C728 1.381 . S
C732 C731 1.382 . S
C732 H773 0.930 . S
C733 N729 1.328 . S
C733 C730 1.378 . S
C733 H735 0.930 . S
H734 C728 0.931 . S
H735 C733 0.930 . S
C736 O762 1.238 . S
C736 O763 1.253 . S
C737 C738 1.379 . S
C737 N742 1.337 . S
C737 H743 0.929 . S
C738 C737 1.379 . S
C738 C739 1.380 . S
C738 H774 0.929 . S
C739 C738 1.380 . S
C739 C740 1.399 . S
C740 C739 1.399 . S
C740 C741 1.376 . S
C740 H775 0.945 . S
C741 C740 1.376 . S
C741 N742 1.338 . S
C741 H744 0.930 1_556 S
N742 Cd727 2.304 . S
N742 C737 1.337 . S
N742 C741 1.338 . S
H743 C737 0.929 . S
H744 C741 0.930 1_554 S
C745 N746 1.332 . S
C745 C749 1.381 . S
C745 H751 0.931 . S
N746 Cd727 2.334 1_565 S
N746 C745 1.332 . S
N746 C750 1.328 . S
C747 C748 1.396 . S
C747 C750 1.378 . S
C747 H776 0.931 1_556 S
C748 C747 1.396 . S
C748 C749 1.382 . S
C749 C745 1.381 . S
C749 C748 1.382 . S
C749 H777 0.930 . S
C750 N746 1.328 . S
C750 C747 1.378 . S
C750 H752 0.930 1_566 S
H751 C745 0.931 . S
H752 C750 0.930 1_544 S
C753 O764 1.238 . S
C753 O765 1.253 . S
C754 O766 1.239 . S
C754 O767 1.230 . S
N755 Cd726 2.304 1_545 S
N755 C756 1.337 . S
N755 C760 1.338 . S
C756 N755 1.337 . S
C756 C757 1.379 . S
C756 H770 0.929 . S
C757 C756 1.379 . S
C757 C758 1.380 . S
C757 H778 0.929 . S
C758 C757 1.380 . S
C758 C759 1.399 . S
C759 C758 1.399 . S
C759 C760 1.376 . S
C759 H779 0.931 1_554 S
C760 N755 1.338 . S
C760 C759 1.376 . S
C760 H771 0.930 1_544 S
C761 O768 1.239 . S
C761 O769 1.230 . S
O762 Cd726 2.268 1_556 S
O762 C736 1.238 . S
O763 Cd727 2.273 1_565 S
O763 C736 1.253 . S
O764 Cd727 2.268 1_554 S
O764 C753 1.238 . S
O765 Cd726 2.273 1_545 S
O765 C753 1.253 . S
O766 Cd726 2.417 . S
O766 C754 1.239 . S
O767 Cd726 2.330 . S
O767 C754 1.230 . S
O768 Cd727 2.417 . S
O768 C761 1.239 . S
O769 Cd727 2.330 . S
O769 C761 1.230 . S
H770 C756 0.929 . S
H771 C760 0.930 1_566 S
H772 C730 0.931 . S
H773 C732 0.930 . S
H774 C738 0.929 . S
H775 C740 0.945 . S
H776 C747 0.931 1_554 S
H777 C749 0.930 . S
H778 C757 0.929 . S
H779 C759 0.931 1_556 S
Cd780 N783 2.334 1_655 S
Cd780 N809 2.304 . S
Cd780 O816 2.268 1_554 S
Cd780 O819 2.273 1_655 S
Cd780 O820 2.417 . S
Cd780 O821 2.330 . S
Cd781 N796 2.304 1_455 S
Cd781 N800 2.334 . S
Cd781 O817 2.273 1_455 S
Cd781 O818 2.268 1_556 S
Cd781 O822 2.417 . S
Cd781 O823 2.330 . S
C782 N783 1.332 . S
C782 C786 1.381 . S
C782 H788 0.931 . S
N783 Cd780 2.334 1_455 S
N783 C782 1.332 . S
N783 C787 1.328 . S
C784 C785 1.396 . S
C784 C787 1.378 . S
C784 H826 0.931 . S
C785 C784 1.396 . S
C785 C786 1.382 . S
C786 C782 1.381 . S
C786 C785 1.382 . S
C786 H827 0.930 . S
C787 N783 1.328 . S
C787 C784 1.378 . S
C787 H789 0.930 1_455 S
H788 C782 0.931 . S
H789 C787 0.930 1_655 S
C790 O816 1.238 . S
C790 O817 1.253 . S
C791 C792 1.379 . S
C791 N796 1.337 . S
C791 H797 0.929 . S
C792 C791 1.379 . S
C792 C793 1.380 . S
C792 H828 0.929 . S
C793 C792 1.380 . S
C793 C794 1.399 . S
C794 C793 1.399 . S
C794 C795 1.376 . S
C794 H829 0.945 . S
C795 C794 1.376 . S
C795 N796 1.338 . S
C795 H798 0.930 1_656 S
N796 Cd781 2.304 1_655 S
N796 C791 1.337 . S
N796 C795 1.338 . S
H797 C791 0.929 . S
H798 C795 0.930 1_454 S
C799 N800 1.332 . S
C799 C803 1.381 . S
C799 H805 0.931 . S
N800 Cd781 2.334 . S
N800 C799 1.332 . S
N800 C804 1.328 . S
C801 C802 1.396 . S
C801 C804 1.378 . S
C801 H830 0.931 1_556 S
C802 C801 1.396 . S
C802 C803 1.382 . S
C803 C799 1.381 . S
C803 C802 1.382 . S
C803 H831 0.930 . S
C804 N800 1.328 . S
C804 C801 1.378 . S
C804 H806 0.930 1_556 S
H805 C799 0.931 . S
H806 C804 0.930 1_554 S
C807 O818 1.238 . S
C807 O819 1.253 . S
C808 O820 1.239 . S
C808 O821 1.230 . S
N809 Cd780 2.304 . S
N809 C810 1.337 . S
N809 C814 1.338 . S
C810 N809 1.337 . S
C810 C811 1.379 . S
C810 H824 0.929 . S
C811 C810 1.379 . S
C811 C812 1.380 . S
C811 H832 0.929 . S
C812 C811 1.380 . S
C812 C813 1.399 . S
C813 C812 1.399 . S
C813 C814 1.376 . S
C813 H833 0.931 1_554 S
C814 N809 1.338 . S
C814 C813 1.376 . S
C814 H825 0.930 1_554 S
C815 O822 1.239 . S
C815 O823 1.230 . S
O816 Cd780 2.268 1_556 S
O816 C790 1.238 . S
O817 Cd781 2.273 1_655 S
O817 C790 1.253 . S
O818 Cd781 2.268 1_554 S
O818 C807 1.238 . S
O819 Cd780 2.273 1_455 S
O819 C807 1.253 . S
O820 Cd780 2.417 . S
O820 C808 1.239 . S
O821 Cd780 2.330 . S
O821 C808 1.230 . S
O822 Cd781 2.417 . S
O822 C815 1.239 . S
O823 Cd781 2.330 . S
O823 C815 1.230 . S
H824 C810 0.929 . S
H825 C814 0.930 1_556 S
H826 C784 0.931 . S
H827 C786 0.930 . S
H828 C792 0.929 . S
H829 C794 0.945 . S
H830 C801 0.931 1_554 S
H831 C803 0.930 . S
H832 C811 0.929 . S
H833 C813 0.931 1_556 S
Cd834 N837 2.334 . S
Cd834 N863 2.304 . S
Cd834 O870 2.268 1_554 S
Cd834 O873 2.273 . S
Cd834 O874 2.417 . S
Cd834 O875 2.330 . S
Cd835 N850 2.304 . S
Cd835 N854 2.334 . S
Cd835 O871 2.273 . S
Cd835 O872 2.268 1_556 S
Cd835 O876 2.417 . S
Cd835 O877 2.330 . S
C836 N837 1.332 . S
C836 C840 1.381 . S
C836 H842 0.931 . S
N837 Cd834 2.334 . S
N837 C836 1.332 . S
N837 C841 1.328 . S
C838 C839 1.396 . S
C838 C841 1.378 . S
C838 H880 0.931 . S
C839 C838 1.396 . S
C839 C840 1.382 . S
C840 C836 1.381 . S
C840 C839 1.382 . S
C840 H881 0.930 . S
C841 N837 1.328 . S
C841 C838 1.378 . S
C841 H843 0.929 . S
H842 C836 0.931 . S
H843 C841 0.929 . S
C844 O870 1.238 . S
C844 O871 1.253 . S
C845 C846 1.379 . S
C845 N850 1.337 . S
C845 H851 0.929 . S
C846 C845 1.379 . S
C846 C847 1.380 . S
C846 H882 0.929 . S
C847 C846 1.380 . S
C847 C848 1.399 . S
C848 C847 1.399 . S
C848 C849 1.376 . S
C848 H883 0.946 . S
C849 C848 1.376 . S
C849 N850 1.338 . S
C849 H852 0.930 1_556 S
N850 Cd835 2.304 . S
N850 C845 1.337 . S
N850 C849 1.338 . S
H851 C845 0.929 . S
H852 C849 0.930 1_554 S
C853 N854 1.332 . S
C853 C857 1.381 . S
C853 H859 0.931 . S
N854 Cd835 2.334 . S
N854 C853 1.332 . S
N854 C858 1.328 . S
C855 C856 1.396 . S
C855 C858 1.378 . S
C855 H884 0.931 1_556 S
C856 C855 1.396 . S
C856 C857 1.382 . S
C857 C853 1.381 . S
C857 C856 1.382 . S
C857 H885 0.930 . S
C858 N854 1.328 . S
C858 C855 1.378 . S
C858 H860 0.930 1_556 S
H859 C853 0.931 . S
H860 C858 0.930 1_554 S
C861 O872 1.238 . S
C861 O873 1.253 . S
C862 O874 1.239 . S
C862 O875 1.230 . S
N863 Cd834 2.304 . S
N863 C864 1.337 . S
N863 C868 1.338 . S
C864 N863 1.337 . S
C864 C865 1.379 . S
C864 H878 0.929 . S
C865 C864 1.379 . S
C865 C866 1.380 . S
C865 H886 0.929 . S
C866 C865 1.380 . S
C866 C867 1.399 . S
C867 C866 1.399 . S
C867 C868 1.376 . S
C867 H887 0.931 1_554 S
C868 N863 1.338 . S
C868 C867 1.376 . S
C868 H879 0.930 1_554 S
C869 O876 1.239 . S
C869 O877 1.230 . S
O870 Cd834 2.268 1_556 S
O870 C844 1.238 . S
O871 Cd835 2.273 . S
O871 C844 1.253 . S
O872 Cd835 2.268 1_554 S
O872 C861 1.238 . S
O873 Cd834 2.273 . S
O873 C861 1.253 . S
O874 Cd834 2.417 . S
O874 C862 1.239 . S
O875 Cd834 2.330 . S
O875 C862 1.230 . S
O876 Cd835 2.417 . S
O876 C869 1.239 . S
O877 Cd835 2.330 . S
O877 C869 1.230 . S
H878 C864 0.929 . S
H879 C868 0.930 1_556 S
H880 C838 0.931 . S
H881 C840 0.930 . S
H882 C846 0.929 . S
H883 C848 0.946 . S
H884 C855 0.931 1_554 S
H885 C857 0.930 . S
H886 C865 0.929 . S
H887 C867 0.931 1_556 S
Cd888 N891 2.334 1_655 S
Cd888 N917 2.304 . S
Cd888 O924 2.268 . S
Cd888 O927 2.273 1_655 S
Cd888 O928 2.417 . S
Cd888 O929 2.330 . S
Cd889 N904 2.304 1_455 S
Cd889 N908 2.334 . S
Cd889 O925 2.273 1_455 S
Cd889 O926 2.268 . S
Cd889 O930 2.417 . S
Cd889 O931 2.330 . S
C890 N891 1.332 . S
C890 C894 1.381 . S
C890 H896 0.931 . S
N891 Cd888 2.334 1_455 S
N891 C890 1.332 . S
N891 C895 1.328 . S
C892 C893 1.396 . S
C892 C895 1.378 . S
C892 H934 0.931 . S
C893 C892 1.396 . S
C893 C894 1.382 . S
C894 C890 1.381 . S
C894 C893 1.382 . S
C894 H935 0.930 . S
C895 N891 1.328 . S
C895 C892 1.378 . S
C895 H897 0.930 1_455 S
H896 C890 0.931 . S
H897 C895 0.930 1_655 S
C898 O924 1.238 . S
C898 O925 1.253 . S
C899 C900 1.379 . S
C899 N904 1.337 . S
C899 H905 0.929 . S
C900 C899 1.379 . S
C900 C901 1.380 . S
C900 H936 0.929 . S
C901 C900 1.380 . S
C901 C902 1.399 . S
C902 C901 1.399 . S
C902 C903 1.376 . S
C902 H937 0.931 . S
C903 C902 1.376 . S
C903 N904 1.338 . S
C903 H906 0.930 1_655 S
N904 Cd889 2.304 1_655 S
N904 C899 1.337 . S
N904 C903 1.338 . S
H905 C899 0.929 . S
H906 C903 0.930 1_455 S
C907 N908 1.332 . S
C907 C911 1.381 . S
C907 H913 0.931 . S
N908 Cd889 2.334 . S
N908 C907 1.332 . S
N908 C912 1.328 . S
C909 C910 1.396 . S
C909 C912 1.378 . S
C909 H938 0.931 . S
C910 C909 1.396 . S
C910 C911 1.382 . S
C911 C907 1.381 . S
C911 C910 1.382 . S
C911 H939 0.930 . S
C912 N908 1.328 . S
C912 C909 1.378 . S
C912 H914 0.930 . S
H913 C907 0.931 . S
H914 C912 0.930 . S
C915 O926 1.238 . S
C915 O927 1.253 . S
C916 O928 1.239 . S
C916 O929 1.230 . S
N917 Cd888 2.304 . S
N917 C918 1.337 . S
N917 C922 1.338 . S
C918 N917 1.337 . S
C918 C919 1.379 . S
C918 H932 0.929 . S
C919 C918 1.379 . S
C919 C920 1.380 . S
C919 H940 0.929 . S
C920 C919 1.380 . S
C920 C921 1.399 . S
C921 C920 1.399 . S
C921 C922 1.376 . S
C921 H941 0.931 . S
C922 N917 1.338 . S
C922 C921 1.376 . S
C922 H933 0.930 . S
C923 O930 1.239 . S
C923 O931 1.230 . S
O924 Cd888 2.268 . S
O924 C898 1.238 . S
O925 Cd889 2.273 1_655 S
O925 C898 1.253 . S
O926 Cd889 2.268 . S
O926 C915 1.238 . S
O927 Cd888 2.273 1_455 S
O927 C915 1.253 . S
O928 Cd888 2.417 . S
O928 C916 1.239 . S
O929 Cd888 2.330 . S
O929 C916 1.230 . S
O930 Cd889 2.417 . S
O930 C923 1.239 . S
O931 Cd889 2.330 . S
O931 C923 1.230 . S
H932 C918 0.929 . S
H933 C922 0.930 . S
H934 C892 0.931 . S
H935 C894 0.930 . S
H936 C900 0.929 . S
H937 C902 0.931 . S
H938 C909 0.931 . S
H939 C911 0.930 . S
H940 C919 0.929 . S
H941 C921 0.931 . S
Cd942 N945 2.334 . S
Cd942 N971 2.304 1_565 S
Cd942 O978 2.268 . S
Cd942 O981 2.273 1_565 S
Cd942 O982 2.417 . S
Cd942 O983 2.330 . S
Cd943 N958 2.304 . S
Cd943 N962 2.334 1_545 S
Cd943 O979 2.273 1_545 S
Cd943 O980 2.268 . S
Cd943 O984 2.417 . S
Cd943 O985 2.330 . S
C944 N945 1.332 . S
C944 C948 1.381 . S
C944 H950 0.931 . S
N945 Cd942 2.334 . S
N945 C944 1.332 . S
N945 C949 1.328 . S
C946 C947 1.396 . S
C946 C949 1.378 . S
C946 H988 0.931 . S
C947 C946 1.396 . S
C947 C948 1.382 . S
C948 C944 1.381 . S
C948 C947 1.382 . S
C948 H989 0.930 . S
C949 N945 1.328 . S
C949 C946 1.378 . S
C949 H951 0.930 . S
H950 C944 0.931 . S
H951 C949 0.930 . S
C952 O978 1.238 . S
C952 O979 1.253 . S
C953 C954 1.379 . S
C953 N958 1.337 . S
C953 H959 0.929 . S
C954 C953 1.379 . S
C954 C955 1.380 . S
C954 H990 0.929 . S
C955 C954 1.380 . S
C955 C956 1.399 . S
C956 C955 1.399 . S
C956 C957 1.376 . S
C956 H991 0.931 . S
C957 C956 1.376 . S
C957 N958 1.338 . S
C957 H960 0.930 . S
N958 Cd943 2.304 . S
N958 C953 1.337 . S
N958 C957 1.338 . S
H959 C953 0.929 . S
H960 C957 0.930 . S
C961 N962 1.332 . S
C961 C965 1.381 . S
C961 H967 0.931 . S
N962 Cd943 2.334 1_565 S
N962 C961 1.332 . S
N962 C966 1.328 . S
C963 C964 1.396 . S
C963 C966 1.378 . S
C963 H992 0.931 . S
C964 C963 1.396 . S
C964 C965 1.382 . S
C965 C961 1.381 . S
C965 C964 1.382 . S
C965 H993 0.930 . S
C966 N962 1.328 . S
C966 C963 1.378 . S
C966 H968 0.930 1_565 S
H967 C961 0.931 . S
H968 C966 0.930 1_545 S
C969 O980 1.238 . S
C969 O981 1.253 . S
C970 O982 1.239 . S
C970 O983 1.230 . S
N971 Cd942 2.304 1_545 S
N971 C972 1.337 . S
N971 C976 1.338 . S
C972 N971 1.337 . S
C972 C973 1.379 . S
C972 H986 0.929 . S
C973 C972 1.379 . S
C973 C974 1.380 . S
C973 H994 0.929 . S
C974 C973 1.380 . S
C974 C975 1.399 . S
C975 C974 1.399 . S
C975 C976 1.376 . S
C975 H995 0.931 . S
C976 N971 1.338 . S
C976 C975 1.376 . S
C976 H987 0.930 1_545 S
C977 O984 1.239 . S
C977 O985 1.230 . S
O978 Cd942 2.268 . S
O978 C952 1.238 . S
O979 Cd943 2.273 1_565 S
O979 C952 1.253 . S
O980 Cd943 2.268 . S
O980 C969 1.238 . S
O981 Cd942 2.273 1_545 S
O981 C969 1.253 . S
O982 Cd942 2.417 . S
O982 C970 1.239 . S
O983 Cd942 2.330 . S
O983 C970 1.230 . S
O984 Cd943 2.417 . S
O984 C977 1.239 . S
O985 Cd943 2.330 . S
O985 C977 1.230 . S
H986 C972 0.929 . S
H987 C976 0.930 1_565 S
H988 C946 0.931 . S
H989 C948 0.930 . S
H990 C954 0.929 . S
H991 C956 0.931 . S
H992 C963 0.931 . S
H993 C965 0.930 . S
H994 C973 0.929 . S
H995 C975 0.931 . S
C996 C997 1.349 . S
C996 C998 1.327 . S
C996 H1021 0.950 . S
C997 C996 1.349 . S
C997 C1013 1.349 . S
C998 C996 1.327 . S
C998 C1017 1.429 . S
C998 H1022 0.950 . S
C999 C1016 1.574 . S
C999 C1018 1.368 . S
C999 H1023 0.949 . S
H1000 C1004 0.949 . S
C1001 C1002 1.349 . S
C1001 C1003 1.327 . S
C1001 H1024 0.950 . S
C1002 C1001 1.349 . S
C1002 C1014 1.349 . S
C1003 C1001 1.327 . S
C1003 C1019 1.429 . S
C1003 H1025 0.950 . S
C1004 H1000 0.949 . S
C1004 C1012 1.574 . S
C1004 C1020 1.368 . S
H1005 C1013 0.950 . S
H1006 C1011 0.950 . S
H1007 C1012 0.949 . S
H1008 C1014 0.950 . S
H1009 C1015 0.950 . S
H1010 C1016 0.949 . S
C1011 H1006 0.950 . S
C1011 C1013 1.327 . S
C1011 C1017 1.429 . S
C1012 C1004 1.574 . S
C1012 H1007 0.949 . S
C1012 C1018 1.368 . S
C1013 C997 1.349 . S
C1013 H1005 0.950 . S
C1013 C1011 1.327 . S
C1014 C1002 1.349 . S
C1014 H1008 0.950 . S
C1014 C1015 1.327 . S
C1015 H1009 0.950 . S
C1015 C1014 1.327 . S
C1015 C1019 1.429 . S
C1016 C999 1.574 . S
C1016 H1010 0.949 . S
C1016 C1020 1.368 . S
C1017 C998 1.429 . S
C1017 C1011 1.429 . S
C1017 C1018 1.523 . S
C1018 C999 1.368 . S
C1018 C1012 1.368 . S
C1018 C1017 1.523 . S
C1019 C1003 1.429 . S
C1019 C1015 1.429 . S
C1019 C1020 1.523 . S
C1020 C1004 1.368 . S
C1020 C1016 1.368 . S
C1020 C1019 1.523 . S
H1021 C996 0.950 . S
H1022 C998 0.950 . S
H1023 C999 0.949 . S
H1024 C1001 0.950 . S
H1025 C1003 0.950 . S
C1026 C1027 1.349 . S
C1026 C1028 1.327 . S
C1026 H1051 0.950 . S
C1027 C1026 1.349 . S
C1027 C1043 1.349 . S
C1028 C1026 1.327 . S
C1028 C1047 1.429 . S
C1028 H1052 0.950 . S
C1029 C1046 1.574 . S
C1029 C1048 1.368 . S
C1029 H1053 0.949 . S
H1030 C1034 0.949 . S
C1031 C1032 1.349 . S
C1031 C1033 1.327 . S
C1031 H1054 0.950 . S
C1032 C1031 1.349 . S
C1032 C1044 1.349 . S
C1033 C1031 1.327 . S
C1033 C1049 1.429 . S
C1033 H1055 0.950 . S
C1034 H1030 0.949 . S
C1034 C1042 1.574 . S
C1034 C1050 1.368 . S
H1035 C1043 0.950 . S
H1036 C1041 0.950 . S
H1037 C1042 0.949 . S
H1038 C1044 0.950 . S
H1039 C1045 0.950 . S
H1040 C1046 0.949 . S
C1041 H1036 0.950 . S
C1041 C1043 1.327 . S
C1041 C1047 1.429 . S
C1042 C1034 1.574 . S
C1042 H1037 0.949 . S
C1042 C1048 1.368 . S
C1043 C1027 1.349 . S
C1043 H1035 0.950 . S
C1043 C1041 1.327 . S
C1044 C1032 1.349 . S
C1044 H1038 0.950 . S
C1044 C1045 1.327 . S
C1045 H1039 0.950 . S
C1045 C1044 1.327 . S
C1045 C1049 1.429 . S
C1046 C1029 1.574 . S
C1046 H1040 0.949 . S
C1046 C1050 1.368 . S
C1047 C1028 1.429 . S
C1047 C1041 1.429 . S
C1047 C1048 1.523 . S
C1048 C1029 1.368 . S
C1048 C1042 1.368 . S
C1048 C1047 1.523 . S
C1049 C1033 1.429 . S
C1049 C1045 1.429 . S
C1049 C1050 1.523 . S
C1050 C1034 1.368 . S
C1050 C1046 1.368 . S
C1050 C1049 1.523 . S
H1051 C1026 0.950 . S
H1052 C1028 0.950 . S
H1053 C1029 0.949 . S
H1054 C1031 0.950 . S
H1055 C1033 0.950 . S
C1056 C1057 1.349 . S
C1056 C1058 1.327 . S
C1056 H1081 0.950 . S
C1057 C1056 1.349 . S
C1057 C1073 1.349 . S
C1058 C1056 1.327 . S
C1058 C1077 1.429 . S
C1058 H1082 0.950 . S
C1059 C1076 1.574 . S
C1059 C1078 1.368 . S
C1059 H1083 0.949 . S
H1060 C1064 0.949 . S
C1061 C1062 1.349 . S
C1061 C1063 1.327 . S
C1061 H1084 0.950 . S
C1062 C1061 1.349 . S
C1062 C1074 1.349 . S
C1063 C1061 1.327 . S
C1063 C1079 1.429 . S
C1063 H1085 0.950 . S
C1064 H1060 0.949 . S
C1064 C1072 1.574 . S
C1064 C1080 1.368 . S
H1065 C1073 0.950 . S
H1066 C1071 0.950 . S
H1067 C1072 0.949 . S
H1068 C1074 0.950 . S
H1069 C1075 0.950 . S
H1070 C1076 0.949 . S
C1071 H1066 0.950 . S
C1071 C1073 1.327 . S
C1071 C1077 1.429 . S
C1072 C1064 1.574 . S
C1072 H1067 0.949 . S
C1072 C1078 1.368 . S
C1073 C1057 1.349 . S
C1073 H1065 0.950 . S
C1073 C1071 1.327 . S
C1074 C1062 1.349 . S
C1074 H1068 0.950 . S
C1074 C1075 1.327 . S
C1075 H1069 0.950 . S
C1075 C1074 1.327 . S
C1075 C1079 1.429 . S
C1076 C1059 1.574 . S
C1076 H1070 0.949 . S
C1076 C1080 1.368 . S
C1077 C1058 1.429 . S
C1077 C1071 1.429 . S
C1077 C1078 1.523 . S
C1078 C1059 1.368 . S
C1078 C1072 1.368 . S
C1078 C1077 1.523 . S
C1079 C1063 1.429 . S
C1079 C1075 1.429 . S
C1079 C1080 1.523 . S
C1080 C1064 1.368 . S
C1080 C1076 1.368 . S
C1080 C1079 1.523 . S
H1081 C1056 0.950 . S
H1082 C1058 0.950 . S
H1083 C1059 0.949 . S
H1084 C1061 0.950 . S
H1085 C1063 0.950 . S
C1086 C1087 1.349 . S
C1086 C1088 1.327 . S
C1086 H1111 0.950 . S
C1087 C1086 1.349 . S
C1087 C1103 1.349 . S
C1088 C1086 1.327 . S
C1088 C1107 1.429 . S
C1088 H1112 0.950 . S
C1089 C1106 1.574 . S
C1089 C1108 1.368 . S
C1089 H1113 0.949 . S
H1090 C1094 0.949 . S
C1091 C1092 1.349 . S
C1091 C1093 1.327 . S
C1091 H1114 0.950 . S
C1092 C1091 1.349 . S
C1092 C1104 1.349 . S
C1093 C1091 1.327 . S
C1093 C1109 1.429 . S
C1093 H1115 0.950 . S
C1094 H1090 0.949 . S
C1094 C1102 1.574 . S
C1094 C1110 1.368 . S
H1095 C1103 0.950 . S
H1096 C1101 0.950 . S
H1097 C1102 0.949 . S
H1098 C1104 0.950 . S
H1099 C1105 0.950 . S
H1100 C1106 0.949 . S
C1101 H1096 0.950 . S
C1101 C1103 1.327 . S
C1101 C1107 1.429 . S
C1102 C1094 1.574 . S
C1102 H1097 0.949 . S
C1102 C1108 1.368 . S
C1103 C1087 1.349 . S
C1103 H1095 0.950 . S
C1103 C1101 1.327 . S
C1104 C1092 1.349 . S
C1104 H1098 0.950 . S
C1104 C1105 1.327 . S
C1105 H1099 0.950 . S
C1105 C1104 1.327 . S
C1105 C1109 1.429 . S
C1106 C1089 1.574 . S
C1106 H1100 0.949 . S
C1106 C1110 1.368 . S
C1107 C1088 1.429 . S
C1107 C1101 1.429 . S
C1107 C1108 1.523 . S
C1108 C1089 1.368 . S
C1108 C1102 1.368 . S
C1108 C1107 1.523 . S
C1109 C1093 1.429 . S
C1109 C1105 1.429 . S
C1109 C1110 1.523 . S
C1110 C1094 1.368 . S
C1110 C1106 1.368 . S
C1110 C1109 1.523 . S
H1111 C1086 0.950 . S
H1112 C1088 0.950 . S
H1113 C1089 0.949 . S
H1114 C1091 0.950 . S
H1115 C1093 0.950 . S
C1116 C1117 1.349 . S
C1116 C1118 1.327 . S
C1116 H1141 0.950 . S
C1117 C1116 1.349 . S
C1117 C1133 1.349 . S
C1118 C1116 1.327 . S
C1118 C1137 1.429 . S
C1118 H1142 0.950 . S
C1119 C1136 1.574 . S
C1119 C1138 1.368 . S
C1119 H1143 0.949 . S
H1120 C1124 0.949 . S
C1121 C1122 1.349 . S
C1121 C1123 1.327 . S
C1121 H1144 0.950 . S
C1122 C1121 1.349 . S
C1122 C1134 1.349 . S
C1123 C1121 1.327 . S
C1123 C1139 1.429 . S
C1123 H1145 0.950 . S
C1124 H1120 0.949 . S
C1124 C1132 1.574 . S
C1124 C1140 1.368 . S
H1125 C1133 0.950 . S
H1126 C1131 0.950 . S
H1127 C1132 0.949 . S
H1128 C1134 0.950 . S
H1129 C1135 0.950 . S
H1130 C1136 0.949 . S
C1131 H1126 0.950 . S
C1131 C1133 1.327 . S
C1131 C1137 1.429 . S
C1132 C1124 1.574 . S
C1132 H1127 0.949 . S
C1132 C1138 1.368 . S
C1133 C1117 1.349 . S
C1133 H1125 0.950 . S
C1133 C1131 1.327 . S
C1134 C1122 1.349 . S
C1134 H1128 0.950 . S
C1134 C1135 1.327 . S
C1135 H1129 0.950 . S
C1135 C1134 1.327 . S
C1135 C1139 1.429 . S
C1136 C1119 1.574 . S
C1136 H1130 0.949 . S
C1136 C1140 1.368 . S
C1137 C1118 1.429 . S
C1137 C1131 1.429 . S
C1137 C1138 1.523 . S
C1138 C1119 1.368 . S
C1138 C1132 1.368 . S
C1138 C1137 1.523 . S
C1139 C1123 1.429 . S
C1139 C1135 1.429 . S
C1139 C1140 1.523 . S
C1140 C1124 1.368 . S
C1140 C1136 1.368 . S
C1140 C1139 1.523 . S
H1141 C1116 0.950 . S
H1142 C1118 0.950 . S
H1143 C1119 0.949 . S
H1144 C1121 0.950 . S
H1145 C1123 0.950 . S
C1146 C1147 1.349 . S
C1146 C1148 1.327 . S
C1146 H1171 0.950 . S
C1147 C1146 1.349 . S
C1147 C1163 1.349 . S
C1148 C1146 1.327 . S
C1148 C1167 1.429 . S
C1148 H1172 0.950 . S
C1149 C1166 1.574 . S
C1149 C1168 1.368 . S
C1149 H1173 0.949 . S
H1150 C1154 0.949 . S
C1151 C1152 1.349 . S
C1151 C1153 1.327 . S
C1151 H1174 0.950 . S
C1152 C1151 1.349 . S
C1152 C1164 1.349 . S
C1153 C1151 1.327 . S
C1153 C1169 1.429 . S
C1153 H1175 0.950 . S
C1154 H1150 0.949 . S
C1154 C1162 1.574 . S
C1154 C1170 1.368 . S
H1155 C1163 0.950 . S
H1156 C1161 0.950 . S
H1157 C1162 0.949 . S
H1158 C1164 0.950 . S
H1159 C1165 0.950 . S
H1160 C1166 0.949 . S
C1161 H1156 0.950 . S
C1161 C1163 1.327 . S
C1161 C1167 1.429 . S
C1162 C1154 1.574 . S
C1162 H1157 0.949 . S
C1162 C1168 1.368 . S
C1163 C1147 1.349 . S
C1163 H1155 0.950 . S
C1163 C1161 1.327 . S
C1164 C1152 1.349 . S
C1164 H1158 0.950 . S
C1164 C1165 1.327 . S
C1165 H1159 0.950 . S
C1165 C1164 1.327 . S
C1165 C1169 1.429 . S
C1166 C1149 1.574 . S
C1166 H1160 0.949 . S
C1166 C1170 1.368 . S
C1167 C1148 1.429 . S
C1167 C1161 1.429 . S
C1167 C1168 1.523 . S
C1168 C1149 1.368 . S
C1168 C1162 1.368 . S
C1168 C1167 1.523 . S
C1169 C1153 1.429 . S
C1169 C1165 1.429 . S
C1169 C1170 1.523 . S
C1170 C1154 1.368 . S
C1170 C1166 1.368 . S
C1170 C1169 1.523 . S
H1171 C1146 0.950 . S
H1172 C1148 0.950 . S
H1173 C1149 0.949 . S
H1174 C1151 0.950 . S
H1175 C1153 0.950 . S
C1176 C1177 1.349 . S
C1176 C1178 1.327 . S
C1176 H1201 0.950 . S
C1177 C1176 1.349 . S
C1177 C1193 1.349 . S
C1178 C1176 1.327 . S
C1178 C1197 1.429 . S
C1178 H1202 0.950 . S
C1179 C1196 1.574 . S
C1179 C1198 1.368 . S
C1179 H1203 0.949 . S
H1180 C1184 0.949 . S
C1181 C1182 1.349 . S
C1181 C1183 1.327 . S
C1181 H1204 0.950 . S
C1182 C1181 1.349 . S
C1182 C1194 1.349 . S
C1183 C1181 1.327 . S
C1183 C1199 1.429 . S
C1183 H1205 0.950 . S
C1184 H1180 0.949 . S
C1184 C1192 1.574 . S
C1184 C1200 1.368 . S
H1185 C1193 0.950 . S
H1186 C1191 0.950 . S
H1187 C1192 0.949 . S
H1188 C1194 0.950 . S
H1189 C1195 0.950 . S
H1190 C1196 0.949 . S
C1191 H1186 0.950 . S
C1191 C1193 1.327 . S
C1191 C1197 1.429 . S
C1192 C1184 1.574 . S
C1192 H1187 0.949 . S
C1192 C1198 1.368 . S
C1193 C1177 1.349 . S
C1193 H1185 0.950 . S
C1193 C1191 1.327 . S
C1194 C1182 1.349 . S
C1194 H1188 0.950 . S
C1194 C1195 1.327 . S
C1195 H1189 0.950 . S
C1195 C1194 1.327 . S
C1195 C1199 1.429 . S
C1196 C1179 1.574 . S
C1196 H1190 0.949 . S
C1196 C1200 1.368 . S
C1197 C1178 1.429 . S
C1197 C1191 1.429 . S
C1197 C1198 1.523 . S
C1198 C1179 1.368 . S
C1198 C1192 1.368 . S
C1198 C1197 1.523 . S
C1199 C1183 1.429 . S
C1199 C1195 1.429 . S
C1199 C1200 1.523 . S
C1200 C1184 1.368 . S
C1200 C1196 1.368 . S
C1200 C1199 1.523 . S
H1201 C1176 0.950 . S
H1202 C1178 0.950 . S
H1203 C1179 0.949 . S
H1204 C1181 0.950 . S
H1205 C1183 0.950 . S
C1206 C1207 1.349 . S
C1206 C1208 1.327 . S
C1206 H1231 0.950 . S
C1207 C1206 1.349 . S
C1207 C1223 1.349 . S
C1208 C1206 1.327 . S
C1208 C1227 1.429 . S
C1208 H1232 0.950 . S
C1209 C1226 1.574 . S
C1209 C1228 1.368 . S
C1209 H1233 0.949 . S
H1210 C1214 0.949 . S
C1211 C1212 1.349 . S
C1211 C1213 1.327 . S
C1211 H1234 0.950 . S
C1212 C1211 1.349 . S
C1212 C1224 1.349 . S
C1213 C1211 1.327 . S
C1213 C1229 1.429 . S
C1213 H1235 0.950 . S
C1214 H1210 0.949 . S
C1214 C1222 1.574 . S
C1214 C1230 1.368 . S
H1215 C1223 0.950 . S
H1216 C1221 0.950 . S
H1217 C1222 0.949 . S
H1218 C1224 0.950 . S
H1219 C1225 0.950 . S
H1220 C1226 0.949 . S
C1221 H1216 0.950 . S
C1221 C1223 1.327 . S
C1221 C1227 1.429 . S
C1222 C1214 1.574 . S
C1222 H1217 0.949 . S
C1222 C1228 1.368 . S
C1223 C1207 1.349 . S
C1223 H1215 0.950 . S
C1223 C1221 1.327 . S
C1224 C1212 1.349 . S
C1224 H1218 0.950 . S
C1224 C1225 1.327 . S
C1225 H1219 0.950 . S
C1225 C1224 1.327 . S
C1225 C1229 1.429 . S
C1226 C1209 1.574 . S
C1226 H1220 0.949 . S
C1226 C1230 1.368 . S
C1227 C1208 1.429 . S
C1227 C1221 1.429 . S
C1227 C1228 1.523 . S
C1228 C1209 1.368 . S
C1228 C1222 1.368 . S
C1228 C1227 1.523 . S
C1229 C1213 1.429 . S
C1229 C1225 1.429 . S
C1229 C1230 1.523 . S
C1230 C1214 1.368 . S
C1230 C1226 1.368 . S
C1230 C1229 1.523 . S
H1231 C1206 0.950 . S
H1232 C1208 0.950 . S
H1233 C1209 0.949 . S
H1234 C1211 0.950 . S
H1235 C1213 0.950 . S
C1236 C1237 1.349 . S
C1236 C1238 1.327 . S
C1236 H1261 0.950 . S
C1237 C1236 1.349 . S
C1237 C1253 1.349 . S
C1238 C1236 1.327 . S
C1238 C1257 1.429 . S
C1238 H1262 0.950 . S
C1239 C1256 1.574 . S
C1239 C1258 1.368 . S
C1239 H1263 0.949 . S
H1240 C1244 0.949 . S
C1241 C1242 1.349 . S
C1241 C1243 1.327 . S
C1241 H1264 0.950 . S
C1242 C1241 1.349 . S
C1242 C1254 1.349 . S
C1243 C1241 1.327 . S
C1243 C1259 1.429 . S
C1243 H1265 0.950 . S
C1244 H1240 0.949 . S
C1244 C1252 1.574 . S
C1244 C1260 1.368 . S
H1245 C1253 0.950 . S
H1246 C1251 0.950 . S
H1247 C1252 0.949 . S
H1248 C1254 0.950 . S
H1249 C1255 0.950 . S
H1250 C1256 0.949 . S
C1251 H1246 0.950 . S
C1251 C1253 1.327 . S
C1251 C1257 1.429 . S
C1252 C1244 1.574 . S
C1252 H1247 0.949 . S
C1252 C1258 1.368 . S
C1253 C1237 1.349 . S
C1253 H1245 0.950 . S
C1253 C1251 1.327 . S
C1254 C1242 1.349 . S
C1254 H1248 0.950 . S
C1254 C1255 1.327 . S
C1255 H1249 0.950 . S
C1255 C1254 1.327 . S
C1255 C1259 1.429 . S
C1256 C1239 1.574 . S
C1256 H1250 0.949 . S
C1256 C1260 1.368 . S
C1257 C1238 1.429 . S
C1257 C1251 1.429 . S
C1257 C1258 1.523 . S
C1258 C1239 1.368 . S
C1258 C1252 1.368 . S
C1258 C1257 1.523 . S
C1259 C1243 1.429 . S
C1259 C1255 1.429 . S
C1259 C1260 1.523 . S
C1260 C1244 1.368 . S
C1260 C1256 1.368 . S
C1260 C1259 1.523 . S
H1261 C1236 0.950 . S
H1262 C1238 0.950 . S
H1263 C1239 0.949 . S
H1264 C1241 0.950 . S
H1265 C1243 0.950 . S
C1266 C1267 1.349 . S
C1266 C1268 1.327 . S
C1266 H1291 0.950 . S
C1267 C1266 1.349 . S
C1267 C1283 1.349 . S
C1268 C1266 1.327 . S
C1268 C1287 1.429 . S
C1268 H1292 0.950 . S
C1269 C1286 1.574 . S
C1269 C1288 1.368 . S
C1269 H1293 0.949 . S
H1270 C1274 0.949 . S
C1271 C1272 1.349 . S
C1271 C1273 1.327 . S
C1271 H1294 0.950 . S
C1272 C1271 1.349 . S
C1272 C1284 1.349 . S
C1273 C1271 1.327 . S
C1273 C1289 1.429 . S
C1273 H1295 0.950 . S
C1274 H1270 0.949 . S
C1274 C1282 1.574 . S
C1274 C1290 1.368 . S
H1275 C1283 0.950 . S
H1276 C1281 0.950 . S
H1277 C1282 0.949 . S
H1278 C1284 0.950 . S
H1279 C1285 0.950 . S
H1280 C1286 0.949 . S
C1281 H1276 0.950 . S
C1281 C1283 1.327 . S
C1281 C1287 1.429 . S
C1282 C1274 1.574 . S
C1282 H1277 0.949 . S
C1282 C1288 1.368 . S
C1283 C1267 1.349 . S
C1283 H1275 0.950 . S
C1283 C1281 1.327 . S
C1284 C1272 1.349 . S
C1284 H1278 0.950 . S
C1284 C1285 1.327 . S
C1285 H1279 0.950 . S
C1285 C1284 1.327 . S
C1285 C1289 1.429 . S
C1286 C1269 1.574 . S
C1286 H1280 0.949 . S
C1286 C1290 1.368 . S
C1287 C1268 1.429 . S
C1287 C1281 1.429 . S
C1287 C1288 1.523 . S
C1288 C1269 1.368 . S
C1288 C1282 1.368 . S
C1288 C1287 1.523 . S
C1289 C1273 1.429 . S
C1289 C1285 1.429 . S
C1289 C1290 1.523 . S
C1290 C1274 1.368 . S
C1290 C1286 1.368 . S
C1290 C1289 1.523 . S
H1291 C1266 0.950 . S
H1292 C1268 0.950 . S
H1293 C1269 0.949 . S
H1294 C1271 0.950 . S
H1295 C1273 0.950 . S
C1296 C1297 1.349 . S
C1296 C1298 1.327 . S
C1296 H1321 0.950 . S
C1297 C1296 1.349 . S
C1297 C1313 1.349 . S
C1298 C1296 1.327 . S
C1298 C1317 1.429 . S
C1298 H1322 0.950 . S
C1299 C1316 1.574 . S
C1299 C1318 1.368 . S
C1299 H1323 0.949 . S
H1300 C1304 0.949 . S
C1301 C1302 1.349 . S
C1301 C1303 1.327 . S
C1301 H1324 0.950 . S
C1302 C1301 1.349 . S
C1302 C1314 1.349 . S
C1303 C1301 1.327 . S
C1303 C1319 1.429 . S
C1303 H1325 0.950 . S
C1304 H1300 0.949 . S
C1304 C1312 1.574 . S
C1304 C1320 1.368 . S
H1305 C1313 0.950 . S
H1306 C1311 0.950 . S
H1307 C1312 0.949 . S
H1308 C1314 0.950 . S
H1309 C1315 0.950 . S
H1310 C1316 0.949 . S
C1311 H1306 0.950 . S
C1311 C1313 1.327 . S
C1311 C1317 1.429 . S
C1312 C1304 1.574 . S
C1312 H1307 0.949 . S
C1312 C1318 1.368 . S
C1313 C1297 1.349 . S
C1313 H1305 0.950 . S
C1313 C1311 1.327 . S
C1314 C1302 1.349 . S
C1314 H1308 0.950 . S
C1314 C1315 1.327 . S
C1315 H1309 0.950 . S
C1315 C1314 1.327 . S
C1315 C1319 1.429 . S
C1316 C1299 1.574 . S
C1316 H1310 0.949 . S
C1316 C1320 1.368 . S
C1317 C1298 1.429 . S
C1317 C1311 1.429 . S
C1317 C1318 1.523 . S
C1318 C1299 1.368 . S
C1318 C1312 1.368 . S
C1318 C1317 1.523 . S
C1319 C1303 1.429 . S
C1319 C1315 1.429 . S
C1319 C1320 1.523 . S
C1320 C1304 1.368 . S
C1320 C1316 1.368 . S
C1320 C1319 1.523 . S
H1321 C1296 0.950 . S
H1322 C1298 0.950 . S
H1323 C1299 0.949 . S
H1324 C1301 0.950 . S
H1325 C1303 0.950 . S
C1326 C1327 1.349 . S
C1326 C1328 1.327 . S
C1326 H1351 0.950 . S
C1327 C1326 1.349 . S
C1327 C1343 1.349 . S
C1328 C1326 1.327 . S
C1328 C1347 1.429 . S
C1328 H1352 0.950 . S
C1329 C1346 1.574 . S
C1329 C1348 1.368 . S
C1329 H1353 0.949 . S
H1330 C1334 0.949 . S
C1331 C1332 1.349 . S
C1331 C1333 1.327 . S
C1331 H1354 0.950 . S
C1332 C1331 1.349 . S
C1332 C1344 1.349 . S
C1333 C1331 1.327 . S
C1333 C1349 1.429 . S
C1333 H1355 0.950 . S
C1334 H1330 0.949 . S
C1334 C1342 1.574 . S
C1334 C1350 1.368 . S
H1335 C1343 0.950 . S
H1336 C1341 0.950 . S
H1337 C1342 0.949 . S
H1338 C1344 0.950 . S
H1339 C1345 0.950 . S
H1340 C1346 0.949 . S
C1341 H1336 0.950 . S
C1341 C1343 1.327 . S
C1341 C1347 1.429 . S
C1342 C1334 1.574 . S
C1342 H1337 0.949 . S
C1342 C1348 1.368 . S
C1343 C1327 1.349 . S
C1343 H1335 0.950 . S
C1343 C1341 1.327 . S
C1344 C1332 1.349 . S
C1344 H1338 0.950 . S
C1344 C1345 1.327 . S
C1345 H1339 0.950 . S
C1345 C1344 1.327 . S
C1345 C1349 1.429 . S
C1346 C1329 1.574 . S
C1346 H1340 0.949 . S
C1346 C1350 1.368 . S
C1347 C1328 1.429 . S
C1347 C1341 1.429 . S
C1347 C1348 1.523 . S
C1348 C1329 1.368 . S
C1348 C1342 1.368 . S
C1348 C1347 1.523 . S
C1349 C1333 1.429 . S
C1349 C1345 1.429 . S
C1349 C1350 1.523 . S
C1350 C1334 1.368 . S
C1350 C1346 1.368 . S
C1350 C1349 1.523 . S
H1351 C1326 0.950 . S
H1352 C1328 0.950 . S
H1353 C1329 0.949 . S
H1354 C1331 0.950 . S
H1355 C1333 0.950 . S
C1356 C1357 1.349 . S
C1356 C1358 1.327 . S
C1356 H1381 0.950 . S
C1357 C1356 1.349 . S
C1357 C1373 1.349 . S
C1358 C1356 1.327 . S
C1358 C1377 1.429 . S
C1358 H1382 0.950 . S
C1359 C1376 1.574 . S
C1359 C1378 1.368 . S
C1359 H1383 0.949 . S
H1360 C1364 0.949 . S
C1361 C1362 1.349 . S
C1361 C1363 1.327 . S
C1361 H1384 0.950 . S
C1362 C1361 1.349 . S
C1362 C1374 1.349 . S
C1363 C1361 1.327 . S
C1363 C1379 1.429 . S
C1363 H1385 0.950 . S
C1364 H1360 0.949 . S
C1364 C1372 1.574 . S
C1364 C1380 1.368 . S
H1365 C1373 0.950 . S
H1366 C1371 0.950 . S
H1367 C1372 0.949 . S
H1368 C1374 0.950 . S
H1369 C1375 0.950 . S
H1370 C1376 0.949 . S
C1371 H1366 0.950 . S
C1371 C1373 1.327 . S
C1371 C1377 1.429 . S
C1372 C1364 1.574 . S
C1372 H1367 0.949 . S
C1372 C1378 1.368 . S
C1373 C1357 1.349 . S
C1373 H1365 0.950 . S
C1373 C1371 1.327 . S
C1374 C1362 1.349 . S
C1374 H1368 0.950 . S
C1374 C1375 1.327 . S
C1375 H1369 0.950 . S
C1375 C1374 1.327 . S
C1375 C1379 1.429 . S
C1376 C1359 1.574 . S
C1376 H1370 0.949 . S
C1376 C1380 1.368 . S
C1377 C1358 1.429 . S
C1377 C1371 1.429 . S
C1377 C1378 1.523 . S
C1378 C1359 1.368 . S
C1378 C1372 1.368 . S
C1378 C1377 1.523 . S
C1379 C1363 1.429 . S
C1379 C1375 1.429 . S
C1379 C1380 1.523 . S
C1380 C1364 1.368 . S
C1380 C1376 1.368 . S
C1380 C1379 1.523 . S
H1381 C1356 0.950 . S
H1382 C1358 0.950 . S
H1383 C1359 0.949 . S
H1384 C1361 0.950 . S
H1385 C1363 0.950 . S
C1386 C1387 1.349 . S
C1386 C1388 1.327 . S
C1386 H1411 0.950 . S
C1387 C1386 1.349 . S
C1387 C1403 1.349 . S
C1388 C1386 1.327 . S
C1388 C1407 1.429 . S
C1388 H1412 0.950 . S
C1389 C1406 1.574 . S
C1389 C1408 1.368 . S
C1389 H1413 0.949 . S
H1390 C1394 0.949 . S
C1391 C1392 1.349 . S
C1391 C1393 1.327 . S
C1391 H1414 0.939 1_556 S
C1392 C1391 1.349 . S
C1392 C1404 1.349 . S
C1393 C1391 1.327 . S
C1393 C1409 1.429 . S
C1393 H1415 0.950 . S
C1394 H1390 0.949 . S
C1394 C1402 1.574 . S
C1394 C1410 1.368 . S
H1395 C1403 0.950 . S
H1396 C1401 0.950 . S
H1397 C1402 0.949 . S
H1398 C1404 0.950 . S
H1399 C1405 0.950 . S
H1400 C1406 0.949 . S
C1401 H1396 0.950 . S
C1401 C1403 1.327 . S
C1401 C1407 1.429 . S
C1402 C1394 1.574 . S
C1402 H1397 0.949 . S
C1402 C1408 1.368 . S
C1403 C1387 1.349 . S
C1403 H1395 0.950 . S
C1403 C1401 1.327 . S
C1404 C1392 1.349 . S
C1404 H1398 0.950 . S
C1404 C1405 1.327 . S
C1405 H1399 0.950 . S
C1405 C1404 1.327 . S
C1405 C1409 1.429 . S
C1406 C1389 1.574 . S
C1406 H1400 0.949 . S
C1406 C1410 1.368 . S
C1407 C1388 1.429 . S
C1407 C1401 1.429 . S
C1407 C1408 1.523 . S
C1408 C1389 1.368 . S
C1408 C1402 1.368 . S
C1408 C1407 1.523 . S
C1409 C1393 1.429 . S
C1409 C1405 1.429 . S
C1409 C1410 1.523 . S
C1410 C1394 1.368 . S
C1410 C1406 1.368 . S
C1410 C1409 1.523 . S
H1411 C1386 0.950 . S
H1412 C1388 0.950 . S
H1413 C1389 0.949 . S
H1414 C1391 0.939 1_554 S
H1415 C1393 0.950 . S
C1416 C1417 1.349 . S
C1416 C1418 1.327 . S
C1416 H1441 0.950 . S
C1417 C1416 1.349 . S
C1417 C1433 1.349 . S
C1418 C1416 1.327 . S
C1418 C1437 1.429 . S
C1418 H1442 0.950 . S
C1419 C1436 1.574 . S
C1419 C1438 1.368 . S
C1419 H1443 0.949 . S
H1420 C1424 0.949 . S
C1421 C1422 1.349 . S
C1421 C1423 1.327 . S
C1421 H1444 0.950 . S
C1422 C1421 1.349 . S
C1422 C1434 1.349 . S
C1423 C1421 1.327 . S
C1423 C1439 1.429 . S
C1423 H1445 0.950 . S
C1424 H1420 0.949 . S
C1424 C1432 1.574 . S
C1424 C1440 1.368 . S
H1425 C1433 0.950 . S
H1426 C1431 0.950 . S
H1427 C1432 0.949 . S
H1428 C1434 0.950 . S
H1429 C1435 0.950 . S
H1430 C1436 0.949 . S
C1431 H1426 0.950 . S
C1431 C1433 1.327 . S
C1431 C1437 1.429 . S
C1432 C1424 1.574 . S
C1432 H1427 0.949 . S
C1432 C1438 1.368 . S
C1433 C1417 1.349 . S
C1433 H1425 0.950 . S
C1433 C1431 1.327 . S
C1434 C1422 1.349 . S
C1434 H1428 0.950 . S
C1434 C1435 1.327 . S
C1435 H1429 0.950 . S
C1435 C1434 1.327 . S
C1435 C1439 1.429 . S
C1436 C1419 1.574 . S
C1436 H1430 0.949 . S
C1436 C1440 1.368 . S
C1437 C1418 1.429 . S
C1437 C1431 1.429 . S
C1437 C1438 1.523 . S
C1438 C1419 1.368 . S
C1438 C1432 1.368 . S
C1438 C1437 1.523 . S
C1439 C1423 1.429 . S
C1439 C1435 1.429 . S
C1439 C1440 1.523 . S
C1440 C1424 1.368 . S
C1440 C1436 1.368 . S
C1440 C1439 1.523 . S
H1441 C1416 0.950 . S
H1442 C1418 0.950 . S
H1443 C1419 0.949 . S
H1444 C1421 0.950 . S
H1445 C1423 0.950 . S
C1446 C1447 1.349 . S
C1446 C1448 1.327 . S
C1446 H1471 0.950 . S
C1447 C1446 1.349 . S
C1447 C1463 1.349 . S
C1448 C1446 1.327 . S
C1448 C1467 1.429 . S
C1448 H1472 0.950 . S
C1449 C1466 1.574 . S
C1449 C1468 1.368 . S
C1449 H1473 0.949 . S
H1450 C1454 0.949 . S
C1451 C1452 1.349 . S
C1451 C1453 1.327 . S
C1451 H1474 0.950 . S
C1452 C1451 1.349 . S
C1452 C1464 1.349 . S
C1453 C1451 1.327 . S
C1453 C1469 1.429 . S
C1453 H1475 0.950 . S
C1454 H1450 0.949 . S
C1454 C1462 1.574 . S
C1454 C1470 1.368 . S
H1455 C1463 0.950 . S
H1456 C1461 0.950 . S
H1457 C1462 0.949 . S
H1458 C1464 0.950 . S
H1459 C1465 0.950 . S
H1460 C1466 0.949 . S
C1461 H1456 0.950 . S
C1461 C1463 1.327 . S
C1461 C1467 1.429 . S
C1462 C1454 1.574 . S
C1462 H1457 0.949 . S
C1462 C1468 1.368 . S
C1463 C1447 1.349 . S
C1463 H1455 0.950 . S
C1463 C1461 1.327 . S
C1464 C1452 1.349 . S
C1464 H1458 0.950 . S
C1464 C1465 1.327 . S
C1465 H1459 0.950 . S
C1465 C1464 1.327 . S
C1465 C1469 1.429 . S
C1466 C1449 1.574 . S
C1466 H1460 0.949 . S
C1466 C1470 1.368 . S
C1467 C1448 1.429 . S
C1467 C1461 1.429 . S
C1467 C1468 1.523 . S
C1468 C1449 1.368 . S
C1468 C1462 1.368 . S
C1468 C1467 1.523 . S
C1469 C1453 1.429 . S
C1469 C1465 1.429 . S
C1469 C1470 1.523 . S
C1470 C1454 1.368 . S
C1470 C1466 1.368 . S
C1470 C1469 1.523 . S
H1471 C1446 0.950 . S
H1472 C1448 0.950 . S
H1473 C1449 0.949 . S
H1474 C1451 0.950 . S
H1475 C1453 0.950 . S
C1476 C1477 1.349 . S
C1476 C1478 1.327 . S
C1476 H1501 0.950 . S
C1477 C1476 1.349 . S
C1477 C1493 1.349 . S
C1478 C1476 1.327 . S
C1478 C1497 1.429 . S
C1478 H1502 0.950 . S
C1479 C1496 1.574 . S
C1479 C1498 1.368 . S
C1479 H1503 0.949 . S
H1480 C1484 0.949 . S
C1481 C1482 1.349 . S
C1481 C1483 1.327 . S
C1481 H1504 0.950 . S
C1482 C1481 1.349 . S
C1482 C1494 1.349 . S
C1483 C1481 1.327 . S
C1483 C1499 1.429 . S
C1483 H1505 0.950 . S
C1484 H1480 0.949 . S
C1484 C1492 1.574 . S
C1484 C1500 1.368 . S
H1485 C1493 0.950 . S
H1486 C1491 0.950 . S
H1487 C1492 0.949 . S
H1488 C1494 0.950 . S
H1489 C1495 0.950 . S
H1490 C1496 0.949 . S
C1491 H1486 0.950 . S
C1491 C1493 1.327 . S
C1491 C1497 1.429 . S
C1492 C1484 1.574 . S
C1492 H1487 0.949 . S
C1492 C1498 1.368 . S
C1493 C1477 1.349 . S
C1493 H1485 0.950 . S
C1493 C1491 1.327 . S
C1494 C1482 1.349 . S
C1494 H1488 0.950 . S
C1494 C1495 1.327 . S
C1495 H1489 0.950 . S
C1495 C1494 1.327 . S
C1495 C1499 1.429 . S
C1496 C1479 1.574 . S
C1496 H1490 0.949 . S
C1496 C1500 1.368 . S
C1497 C1478 1.429 . S
C1497 C1491 1.429 . S
C1497 C1498 1.523 . S
C1498 C1479 1.368 . S
C1498 C1492 1.368 . S
C1498 C1497 1.523 . S
C1499 C1483 1.429 . S
C1499 C1495 1.429 . S
C1499 C1500 1.523 . S
C1500 C1484 1.368 . S
C1500 C1496 1.368 . S
C1500 C1499 1.523 . S
H1501 C1476 0.950 . S
H1502 C1478 0.950 . S
H1503 C1479 0.949 . S
H1504 C1481 0.950 . S
H1505 C1483 0.950 . S
C1506 C1507 1.349 . S
C1506 C1508 1.327 . S
C1506 H1531 0.950 . S
C1507 C1506 1.349 . S
C1507 C1523 1.349 . S
C1508 C1506 1.327 . S
C1508 C1527 1.429 . S
C1508 H1532 0.950 . S
C1509 C1526 1.574 . S
C1509 C1528 1.368 . S
C1509 H1533 0.949 . S
H1510 C1514 0.949 . S
C1511 C1512 1.349 . S
C1511 C1513 1.327 . S
C1511 H1534 0.950 . S
C1512 C1511 1.349 . S
C1512 C1524 1.349 . S
C1513 C1511 1.327 . S
C1513 C1529 1.429 . S
C1513 H1535 0.950 . S
C1514 H1510 0.949 . S
C1514 C1522 1.574 . S
C1514 C1530 1.368 . S
H1515 C1523 0.950 . S
H1516 C1521 0.950 . S
H1517 C1522 0.949 . S
H1518 C1524 0.950 . S
H1519 C1525 0.950 . S
H1520 C1526 0.949 . S
C1521 H1516 0.950 . S
C1521 C1523 1.327 . S
C1521 C1527 1.429 . S
C1522 C1514 1.574 . S
C1522 H1517 0.949 . S
C1522 C1528 1.368 . S
C1523 C1507 1.349 . S
C1523 H1515 0.950 . S
C1523 C1521 1.327 . S
C1524 C1512 1.349 . S
C1524 H1518 0.950 . S
C1524 C1525 1.327 . S
C1525 H1519 0.950 . S
C1525 C1524 1.327 . S
C1525 C1529 1.429 . S
C1526 C1509 1.574 . S
C1526 H1520 0.949 . S
C1526 C1530 1.368 . S
C1527 C1508 1.429 . S
C1527 C1521 1.429 . S
C1527 C1528 1.523 . S
C1528 C1509 1.368 . S
C1528 C1522 1.368 . S
C1528 C1527 1.523 . S
C1529 C1513 1.429 . S
C1529 C1525 1.429 . S
C1529 C1530 1.523 . S
C1530 C1514 1.368 . S
C1530 C1526 1.368 . S
C1530 C1529 1.523 . S
H1531 C1506 0.950 . S
H1532 C1508 0.950 . S
H1533 C1509 0.949 . S
H1534 C1511 0.950 . S
H1535 C1513 0.950 . S
C1536 C1537 1.349 . S
C1536 C1538 1.327 . S
C1536 H1561 0.950 . S
C1537 C1536 1.349 . S
C1537 C1553 1.349 . S
C1538 C1536 1.327 . S
C1538 C1557 1.429 . S
C1538 H1562 0.950 . S
C1539 C1556 1.574 . S
C1539 C1558 1.368 . S
C1539 H1563 0.949 . S
H1540 C1544 0.949 . S
C1541 C1542 1.349 . S
C1541 C1543 1.327 . S
C1541 H1564 0.950 . S
C1542 C1541 1.349 . S
C1542 C1554 1.349 . S
C1543 C1541 1.327 . S
C1543 C1559 1.429 . S
C1543 H1565 0.950 . S
C1544 H1540 0.949 . S
C1544 C1552 1.574 . S
C1544 C1560 1.368 . S
H1545 C1553 0.950 . S
H1546 C1551 0.950 . S
H1547 C1552 0.949 . S
H1548 C1554 0.950 . S
H1549 C1555 0.950 . S
H1550 C1556 0.949 . S
C1551 H1546 0.950 . S
C1551 C1553 1.327 . S
C1551 C1557 1.429 . S
C1552 C1544 1.574 . S
C1552 H1547 0.949 . S
C1552 C1558 1.368 . S
C1553 C1537 1.349 . S
C1553 H1545 0.950 . S
C1553 C1551 1.327 . S
C1554 C1542 1.349 . S
C1554 H1548 0.950 . S
C1554 C1555 1.327 . S
C1555 H1549 0.950 . S
C1555 C1554 1.327 . S
C1555 C1559 1.429 . S
C1556 C1539 1.574 . S
C1556 H1550 0.949 . S
C1556 C1560 1.368 . S
C1557 C1538 1.429 . S
C1557 C1551 1.429 . S
C1557 C1558 1.523 . S
C1558 C1539 1.368 . S
C1558 C1552 1.368 . S
C1558 C1557 1.523 . S
C1559 C1543 1.429 . S
C1559 C1555 1.429 . S
C1559 C1560 1.523 . S
C1560 C1544 1.368 . S
C1560 C1556 1.368 . S
C1560 C1559 1.523 . S
H1561 C1536 0.950 . S
H1562 C1538 0.950 . S
H1563 C1539 0.949 . S
H1564 C1541 0.950 . S
H1565 C1543 0.950 . S
C1566 C1567 1.349 . S
C1566 C1568 1.327 . S
C1566 H1591 0.950 . S
C1567 C1566 1.349 . S
C1567 C1583 1.349 . S
C1568 C1566 1.327 . S
C1568 C1587 1.429 . S
C1568 H1592 0.950 . S
C1569 C1586 1.574 . S
C1569 C1588 1.368 . S
C1569 H1593 0.949 . S
H1570 C1574 0.949 . S
C1571 C1572 1.349 . S
C1571 C1573 1.327 . S
C1571 H1594 0.950 . S
C1572 C1571 1.349 . S
C1572 C1584 1.349 . S
C1573 C1571 1.327 . S
C1573 C1589 1.429 . S
C1573 H1595 0.950 . S
C1574 H1570 0.949 . S
C1574 C1582 1.574 . S
C1574 C1590 1.368 . S
H1575 C1583 0.950 . S
H1576 C1581 0.950 . S
H1577 C1582 0.949 . S
H1578 C1584 0.950 . S
H1579 C1585 0.950 . S
H1580 C1586 0.949 . S
C1581 H1576 0.950 . S
C1581 C1583 1.327 . S
C1581 C1587 1.429 . S
C1582 C1574 1.574 . S
C1582 H1577 0.949 . S
C1582 C1588 1.368 . S
C1583 C1567 1.349 . S
C1583 H1575 0.950 . S
C1583 C1581 1.327 . S
C1584 C1572 1.349 . S
C1584 H1578 0.950 . S
C1584 C1585 1.327 . S
C1585 H1579 0.950 . S
C1585 C1584 1.327 . S
C1585 C1589 1.429 . S
C1586 C1569 1.574 . S
C1586 H1580 0.949 . S
C1586 C1590 1.368 . S
C1587 C1568 1.429 . S
C1587 C1581 1.429 . S
C1587 C1588 1.523 . S
C1588 C1569 1.368 . S
C1588 C1582 1.368 . S
C1588 C1587 1.523 . S
C1589 C1573 1.429 . S
C1589 C1585 1.429 . S
C1589 C1590 1.523 . S
C1590 C1574 1.368 . S
C1590 C1586 1.368 . S
C1590 C1589 1.523 . S
H1591 C1566 0.950 . S
H1592 C1568 0.950 . S
H1593 C1569 0.949 . S
H1594 C1571 0.950 . S
H1595 C1573 0.950 . S
C1596 C1597 1.349 . S
C1596 C1598 1.327 . S
C1596 H1621 0.950 . S
C1597 C1596 1.349 . S
C1597 C1613 1.349 . S
C1598 C1596 1.327 . S
C1598 C1617 1.429 . S
C1598 H1622 0.950 . S
C1599 C1616 1.574 . S
C1599 C1618 1.368 . S
C1599 H1623 0.949 . S
H1600 C1604 0.949 . S
C1601 C1602 1.349 . S
C1601 C1603 1.327 . S
C1601 H1624 0.950 . S
C1602 C1601 1.349 . S
C1602 C1614 1.349 . S
C1603 C1601 1.327 . S
C1603 C1619 1.429 . S
C1603 H1625 0.950 . S
C1604 H1600 0.949 . S
C1604 C1612 1.574 . S
C1604 C1620 1.368 . S
H1605 C1613 0.950 . S
H1606 C1611 0.950 . S
H1607 C1612 0.949 . S
H1608 C1614 0.950 1_554 S
H1609 C1615 0.950 . S
H1610 C1616 0.949 . S
C1611 H1606 0.950 . S
C1611 C1613 1.327 . S
C1611 C1617 1.429 . S
C1612 C1604 1.574 . S
C1612 H1607 0.949 . S
C1612 C1618 1.368 . S
C1613 C1597 1.349 . S
C1613 H1605 0.950 . S
C1613 C1611 1.327 . S
C1614 C1602 1.349 . S
C1614 H1608 0.950 1_556 S
C1614 C1615 1.327 . S
C1615 H1609 0.950 . S
C1615 C1614 1.327 . S
C1615 C1619 1.429 . S
C1616 C1599 1.574 . S
C1616 H1610 0.949 . S
C1616 C1620 1.368 . S
C1617 C1598 1.429 . S
C1617 C1611 1.429 . S
C1617 C1618 1.523 . S
C1618 C1599 1.368 . S
C1618 C1612 1.368 . S
C1618 C1617 1.523 . S
C1619 C1603 1.429 . S
C1619 C1615 1.429 . S
C1619 C1620 1.523 . S
C1620 C1604 1.368 . S
C1620 C1616 1.368 . S
C1620 C1619 1.523 . S
H1621 C1596 0.950 . S
H1622 C1598 0.950 . S
H1623 C1599 0.949 . S
H1624 C1601 0.950 . S
H1625 C1603 0.950 . S
C1626 C1627 1.349 . S
C1626 C1628 1.327 . S
C1626 H1651 0.950 . S
C1627 C1626 1.349 . S
C1627 C1643 1.349 . S
C1628 C1626 1.327 . S
C1628 C1647 1.429 . S
C1628 H1652 0.950 . S
C1629 C1646 1.574 . S
C1629 C1648 1.368 . S
C1629 H1653 0.949 . S
H1630 C1634 0.949 . S
C1631 C1632 1.349 . S
C1631 C1633 1.327 . S
C1631 H1654 0.950 . S
C1632 C1631 1.349 . S
C1632 C1644 1.349 . S
C1633 C1631 1.327 . S
C1633 C1649 1.429 . S
C1633 H1655 0.950 . S
C1634 H1630 0.949 . S
C1634 C1642 1.574 . S
C1634 C1650 1.368 . S
H1635 C1643 0.950 . S
H1636 C1641 0.950 . S
H1637 C1642 0.949 . S
H1638 C1644 0.950 . S
H1639 C1645 0.950 . S
H1640 C1646 0.949 . S
C1641 H1636 0.950 . S
C1641 C1643 1.327 . S
C1641 C1647 1.429 . S
C1642 C1634 1.574 . S
C1642 H1637 0.949 . S
C1642 C1648 1.368 . S
C1643 C1627 1.349 . S
C1643 H1635 0.950 . S
C1643 C1641 1.327 . S
C1644 C1632 1.349 . S
C1644 H1638 0.950 . S
C1644 C1645 1.327 . S
C1645 H1639 0.950 . S
C1645 C1644 1.327 . S
C1645 C1649 1.429 . S
C1646 C1629 1.574 . S
C1646 H1640 0.949 . S
C1646 C1650 1.368 . S
C1647 C1628 1.429 . S
C1647 C1641 1.429 . S
C1647 C1648 1.523 . S
C1648 C1629 1.368 . S
C1648 C1642 1.368 . S
C1648 C1647 1.523 . S
C1649 C1633 1.429 . S
C1649 C1645 1.429 . S
C1649 C1650 1.523 . S
C1650 C1634 1.368 . S
C1650 C1646 1.368 . S
C1650 C1649 1.523 . S
H1651 C1626 0.950 . S
H1652 C1628 0.950 . S
H1653 C1629 0.949 . S
H1654 C1631 0.950 . S
H1655 C1633 0.950 . S
C1656 C1657 1.349 . S
C1656 C1658 1.327 . S
C1656 H1681 0.950 . S
C1657 C1656 1.349 . S
C1657 C1673 1.349 . S
C1658 C1656 1.327 . S
C1658 C1677 1.429 . S
C1658 H1682 0.950 . S
C1659 C1676 1.574 . S
C1659 C1678 1.368 . S
C1659 H1683 0.949 . S
H1660 C1664 0.949 . S
C1661 C1662 1.349 . S
C1661 C1663 1.327 . S
C1661 H1684 0.950 . S
C1662 C1661 1.349 . S
C1662 C1674 1.349 . S
C1663 C1661 1.327 . S
C1663 C1679 1.429 . S
C1663 H1685 0.950 . S
C1664 H1660 0.949 . S
C1664 C1672 1.574 . S
C1664 C1680 1.368 . S
H1665 C1673 0.950 . S
H1666 C1671 0.950 . S
H1667 C1672 0.949 . S
H1668 C1674 0.950 . S
H1669 C1675 0.950 . S
H1670 C1676 0.949 . S
C1671 H1666 0.950 . S
C1671 C1673 1.327 . S
C1671 C1677 1.429 . S
C1672 C1664 1.574 . S
C1672 H1667 0.949 . S
C1672 C1678 1.368 . S
C1673 C1657 1.349 . S
C1673 H1665 0.950 . S
C1673 C1671 1.327 . S
C1674 C1662 1.349 . S
C1674 H1668 0.950 . S
C1674 C1675 1.327 . S
C1675 H1669 0.950 . S
C1675 C1674 1.327 . S
C1675 C1679 1.429 . S
C1676 C1659 1.574 . S
C1676 H1670 0.949 . S
C1676 C1680 1.368 . S
C1677 C1658 1.429 . S
C1677 C1671 1.429 . S
C1677 C1678 1.523 . S
C1678 C1659 1.368 . S
C1678 C1672 1.368 . S
C1678 C1677 1.523 . S
C1679 C1663 1.429 . S
C1679 C1675 1.429 . S
C1679 C1680 1.523 . S
C1680 C1664 1.368 . S
C1680 C1676 1.368 . S
C1680 C1679 1.523 . S
H1681 C1656 0.950 . S
H1682 C1658 0.950 . S
H1683 C1659 0.949 . S
H1684 C1661 0.950 . S
H1685 C1663 0.950 . S
C1686 C1687 1.349 . S
C1686 C1688 1.327 . S
C1686 H1711 0.950 . S
C1687 C1686 1.349 . S
C1687 C1703 1.349 . S
C1688 C1686 1.327 . S
C1688 C1707 1.429 . S
C1688 H1712 0.950 . S
C1689 C1706 1.574 . S
C1689 C1708 1.368 . S
C1689 H1713 0.949 . S
H1690 C1694 0.949 . S
C1691 C1692 1.349 . S
C1691 C1693 1.327 . S
C1691 H1714 0.950 . S
C1692 C1691 1.349 . S
C1692 C1704 1.349 . S
C1693 C1691 1.327 . S
C1693 C1709 1.429 . S
C1693 H1715 0.950 . S
C1694 H1690 0.949 . S
C1694 C1702 1.574 . S
C1694 C1710 1.368 . S
H1695 C1703 0.950 . S
H1696 C1701 0.950 . S
H1697 C1702 0.949 . S
H1698 C1704 0.950 . S
H1699 C1705 0.950 . S
H1700 C1706 0.949 . S
C1701 H1696 0.950 . S
C1701 C1703 1.327 . S
C1701 C1707 1.429 . S
C1702 C1694 1.574 . S
C1702 H1697 0.949 . S
C1702 C1708 1.368 . S
C1703 C1687 1.349 . S
C1703 H1695 0.950 . S
C1703 C1701 1.327 . S
C1704 C1692 1.349 . S
C1704 H1698 0.950 . S
C1704 C1705 1.327 . S
C1705 H1699 0.950 . S
C1705 C1704 1.327 . S
C1705 C1709 1.429 . S
C1706 C1689 1.574 . S
C1706 H1700 0.949 . S
C1706 C1710 1.368 . S
C1707 C1688 1.429 . S
C1707 C1701 1.429 . S
C1707 C1708 1.523 . S
C1708 C1689 1.368 . S
C1708 C1702 1.368 . S
C1708 C1707 1.523 . S
C1709 C1693 1.429 . S
C1709 C1705 1.429 . S
C1709 C1710 1.523 . S
C1710 C1694 1.368 . S
C1710 C1706 1.368 . S
C1710 C1709 1.523 . S
H1711 C1686 0.950 . S
H1712 C1688 0.950 . S
H1713 C1689 0.949 . S
H1714 C1691 0.950 . S
H1715 C1693 0.950 . S
C1716 C1717 1.349 . S
C1716 C1718 1.327 . S
C1716 H1741 0.950 . S
C1717 C1716 1.349 . S
C1717 C1733 1.349 . S
C1718 C1716 1.327 . S
C1718 C1737 1.429 . S
C1718 H1742 0.950 . S
C1719 C1736 1.574 . S
C1719 C1738 1.368 . S
C1719 H1743 0.949 . S
H1720 C1724 0.949 . S
C1721 C1722 1.349 . S
C1721 C1723 1.327 . S
C1721 H1744 0.950 . S
C1722 C1721 1.349 . S
C1722 C1734 1.349 . S
C1723 C1721 1.327 . S
C1723 C1739 1.429 . S
C1723 H1745 0.950 . S
C1724 H1720 0.949 . S
C1724 C1732 1.574 . S
C1724 C1740 1.368 . S
H1725 C1733 0.950 . S
H1726 C1731 0.950 . S
H1727 C1732 0.949 . S
H1728 C1734 0.950 . S
H1729 C1735 0.950 . S
H1730 C1736 0.949 . S
C1731 H1726 0.950 . S
C1731 C1733 1.327 . S
C1731 C1737 1.429 . S
C1732 C1724 1.574 . S
C1732 H1727 0.949 . S
C1732 C1738 1.368 . S
C1733 C1717 1.349 . S
C1733 H1725 0.950 . S
C1733 C1731 1.327 . S
C1734 C1722 1.349 . S
C1734 H1728 0.950 . S
C1734 C1735 1.327 . S
C1735 H1729 0.950 . S
C1735 C1734 1.327 . S
C1735 C1739 1.429 . S
C1736 C1719 1.574 . S
C1736 H1730 0.949 . S
C1736 C1740 1.368 . S
C1737 C1718 1.429 . S
C1737 C1731 1.429 . S
C1737 C1738 1.523 . S
C1738 C1719 1.368 . S
C1738 C1732 1.368 . S
C1738 C1737 1.523 . S
C1739 C1723 1.429 . S
C1739 C1735 1.429 . S
C1739 C1740 1.523 . S
C1740 C1724 1.368 . S
C1740 C1736 1.368 . S
C1740 C1739 1.523 . S
H1741 C1716 0.950 . S
H1742 C1718 0.950 . S
H1743 C1719 0.949 . S
H1744 C1721 0.950 . S
H1745 C1723 0.950 . S
C1746 C1747 1.349 . S
C1746 C1748 1.327 . S
C1746 H1771 0.950 . S
C1747 C1746 1.349 . S
C1747 C1763 1.349 . S
C1748 C1746 1.327 . S
C1748 C1767 1.429 . S
C1748 H1772 0.950 . S
C1749 C1766 1.574 . S
C1749 C1768 1.368 . S
C1749 H1773 0.949 . S
H1750 C1754 0.949 . S
C1751 C1752 1.349 . S
C1751 C1753 1.327 . S
C1751 H1774 0.950 . S
C1752 C1751 1.349 . S
C1752 C1764 1.349 . S
C1753 C1751 1.327 . S
C1753 C1769 1.429 . S
C1753 H1775 0.950 . S
C1754 H1750 0.949 . S
C1754 C1762 1.574 . S
C1754 C1770 1.368 . S
H1755 C1763 0.950 . S
H1756 C1761 0.950 . S
H1757 C1762 0.949 . S
H1758 C1764 0.950 . S
H1759 C1765 0.950 . S
H1760 C1766 0.949 . S
C1761 H1756 0.950 . S
C1761 C1763 1.327 . S
C1761 C1767 1.429 . S
C1762 C1754 1.574 . S
C1762 H1757 0.949 . S
C1762 C1768 1.368 . S
C1763 C1747 1.349 . S
C1763 H1755 0.950 . S
C1763 C1761 1.327 . S
C1764 C1752 1.349 . S
C1764 H1758 0.950 . S
C1764 C1765 1.327 . S
C1765 H1759 0.950 . S
C1765 C1764 1.327 . S
C1765 C1769 1.429 . S
C1766 C1749 1.574 . S
C1766 H1760 0.949 . S
C1766 C1770 1.368 . S
C1767 C1748 1.429 . S
C1767 C1761 1.429 . S
C1767 C1768 1.523 . S
C1768 C1749 1.368 . S
C1768 C1762 1.368 . S
C1768 C1767 1.523 . S
C1769 C1753 1.429 . S
C1769 C1765 1.429 . S
C1769 C1770 1.523 . S
C1770 C1754 1.368 . S
C1770 C1766 1.368 . S
C1770 C1769 1.523 . S
H1771 C1746 0.950 . S
H1772 C1748 0.950 . S
H1773 C1749 0.949 . S
H1774 C1751 0.950 . S
H1775 C1753 0.950 . S
C1776 C1777 1.349 . S
C1776 C1778 1.327 . S
C1776 H1801 0.950 . S
C1777 C1776 1.349 . S
C1777 C1793 1.349 . S
C1778 C1776 1.327 . S
C1778 C1797 1.429 . S
C1778 H1802 0.950 . S
C1779 C1796 1.574 . S
C1779 C1798 1.368 . S
C1779 H1803 0.949 . S
H1780 C1784 0.949 . S
C1781 C1782 1.349 . S
C1781 C1783 1.327 . S
C1781 H1804 0.950 . S
C1782 C1781 1.349 . S
C1782 C1794 1.349 . S
C1783 C1781 1.327 . S
C1783 C1799 1.429 . S
C1783 H1805 0.950 . S
C1784 H1780 0.949 . S
C1784 C1792 1.574 . S
C1784 C1800 1.368 . S
H1785 C1793 0.950 . S
H1786 C1791 0.950 . S
H1787 C1792 0.949 . S
H1788 C1794 0.950 . S
H1789 C1795 0.950 . S
H1790 C1796 0.949 . S
C1791 H1786 0.950 . S
C1791 C1793 1.327 . S
C1791 C1797 1.429 . S
C1792 C1784 1.574 . S
C1792 H1787 0.949 . S
C1792 C1798 1.368 . S
C1793 C1777 1.349 . S
C1793 H1785 0.950 . S
C1793 C1791 1.327 . S
C1794 C1782 1.349 . S
C1794 H1788 0.950 . S
C1794 C1795 1.327 . S
C1795 H1789 0.950 . S
C1795 C1794 1.327 . S
C1795 C1799 1.429 . S
C1796 C1779 1.574 . S
C1796 H1790 0.949 . S
C1796 C1800 1.368 . S
C1797 C1778 1.429 . S
C1797 C1791 1.429 . S
C1797 C1798 1.523 . S
C1798 C1779 1.368 . S
C1798 C1792 1.368 . S
C1798 C1797 1.523 . S
C1799 C1783 1.429 . S
C1799 C1795 1.429 . S
C1799 C1800 1.523 . S
C1800 C1784 1.368 . S
C1800 C1796 1.368 . S
C1800 C1799 1.523 . S
H1801 C1776 0.950 . S
H1802 C1778 0.950 . S
H1803 C1779 0.949 . S
H1804 C1781 0.950 . S
H1805 C1783 0.950 . S
C1806 C1807 1.349 . S
C1806 C1808 1.327 . S
C1806 H1831 0.950 . S
C1807 C1806 1.349 . S
C1807 C1823 1.349 . S
C1808 C1806 1.327 . S
C1808 C1827 1.429 . S
C1808 H1832 0.950 . S
C1809 C1826 1.574 . S
C1809 C1828 1.368 . S
C1809 H1833 0.949 . S
H1810 C1814 0.949 . S
C1811 C1812 1.349 . S
C1811 C1813 1.327 . S
C1811 H1834 0.970 . S
C1812 C1811 1.349 . S
C1812 C1824 1.349 . S
C1813 C1811 1.327 . S
C1813 C1829 1.429 . S
C1813 H1835 0.950 . S
C1814 H1810 0.949 . S
C1814 C1822 1.574 . S
C1814 C1830 1.368 . S
H1815 C1823 0.950 . S
H1816 C1821 0.950 . S
H1817 C1822 0.949 . S
H1818 C1824 0.950 . S
H1819 C1825 0.950 . S
H1820 C1826 0.949 . S
C1821 H1816 0.950 . S
C1821 C1823 1.327 . S
C1821 C1827 1.429 . S
C1822 C1814 1.574 . S
C1822 H1817 0.949 . S
C1822 C1828 1.368 . S
C1823 C1807 1.349 . S
C1823 H1815 0.950 . S
C1823 C1821 1.327 . S
C1824 C1812 1.349 . S
C1824 H1818 0.950 . S
C1824 C1825 1.327 . S
C1825 H1819 0.950 . S
C1825 C1824 1.327 . S
C1825 C1829 1.429 . S
C1826 C1809 1.574 . S
C1826 H1820 0.949 . S
C1826 C1830 1.368 . S
C1827 C1808 1.429 . S
C1827 C1821 1.429 . S
C1827 C1828 1.523 . S
C1828 C1809 1.368 . S
C1828 C1822 1.368 . S
C1828 C1827 1.523 . S
C1829 C1813 1.429 . S
C1829 C1825 1.429 . S
C1829 C1830 1.523 . S
C1830 C1814 1.368 . S
C1830 C1826 1.368 . S
C1830 C1829 1.523 . S
H1831 C1806 0.950 . S
H1832 C1808 0.950 . S
H1833 C1809 0.949 . S
H1834 C1811 0.970 . S
H1835 C1813 0.950 . S
C1836 C1837 1.349 . S
C1836 C1838 1.327 . S
C1836 H1861 0.950 . S
C1837 C1836 1.349 . S
C1837 C1853 1.349 . S
C1838 C1836 1.327 . S
C1838 C1857 1.429 . S
C1838 H1862 0.950 . S
C1839 C1856 1.574 . S
C1839 C1858 1.368 . S
C1839 H1863 0.949 . S
H1840 C1844 0.949 . S
C1841 C1842 1.349 . S
C1841 C1843 1.327 . S
C1841 H1864 0.950 . S
C1842 C1841 1.349 . S
C1842 C1854 1.349 . S
C1843 C1841 1.327 . S
C1843 C1859 1.429 . S
C1843 H1865 0.950 . S
C1844 H1840 0.949 . S
C1844 C1852 1.574 . S
C1844 C1860 1.368 . S
H1845 C1853 0.950 . S
H1846 C1851 0.950 . S
H1847 C1852 0.949 . S
H1848 C1854 0.950 . S
H1849 C1855 0.950 . S
H1850 C1856 0.949 . S
C1851 H1846 0.950 . S
C1851 C1853 1.327 . S
C1851 C1857 1.429 . S
C1852 C1844 1.574 . S
C1852 H1847 0.949 . S
C1852 C1858 1.368 . S
C1853 C1837 1.349 . S
C1853 H1845 0.950 . S
C1853 C1851 1.327 . S
C1854 C1842 1.349 . S
C1854 H1848 0.950 . S
C1854 C1855 1.327 . S
C1855 H1849 0.950 . S
C1855 C1854 1.327 . S
C1855 C1859 1.429 . S
C1856 C1839 1.574 . S
C1856 H1850 0.949 . S
C1856 C1860 1.368 . S
C1857 C1838 1.429 . S
C1857 C1851 1.429 . S
C1857 C1858 1.523 . S
C1858 C1839 1.368 . S
C1858 C1852 1.368 . S
C1858 C1857 1.523 . S
C1859 C1843 1.429 . S
C1859 C1855 1.429 . S
C1859 C1860 1.523 . S
C1860 C1844 1.368 . S
C1860 C1856 1.368 . S
C1860 C1859 1.523 . S
H1861 C1836 0.950 . S
H1862 C1838 0.950 . S
H1863 C1839 0.949 . S
H1864 C1841 0.950 . S
H1865 C1843 0.950 . S
C1866 C1867 1.349 . S
C1866 C1868 1.327 . S
C1866 H1891 0.950 . S
C1867 C1866 1.349 . S
C1867 C1883 1.349 . S
C1868 C1866 1.327 . S
C1868 C1887 1.429 . S
C1868 H1892 0.950 . S
C1869 C1886 1.574 . S
C1869 C1888 1.368 . S
C1869 H1893 0.949 . S
H1870 C1874 0.949 . S
C1871 C1872 1.349 . S
C1871 C1873 1.327 . S
C1871 H1894 0.950 . S
C1872 C1871 1.349 . S
C1872 C1884 1.349 . S
C1873 C1871 1.327 . S
C1873 C1889 1.429 . S
C1873 H1895 0.950 . S
C1874 H1870 0.949 . S
C1874 C1882 1.574 . S
C1874 C1890 1.368 . S
H1875 C1883 0.950 . S
H1876 C1881 0.950 . S
H1877 C1882 0.949 . S
H1878 C1884 0.950 . S
H1879 C1885 0.950 . S
H1880 C1886 0.949 . S
C1881 H1876 0.950 . S
C1881 C1883 1.327 . S
C1881 C1887 1.429 . S
C1882 C1874 1.574 . S
C1882 H1877 0.949 . S
C1882 C1888 1.368 . S
C1883 C1867 1.349 . S
C1883 H1875 0.950 . S
C1883 C1881 1.327 . S
C1884 C1872 1.349 . S
C1884 H1878 0.950 . S
C1884 C1885 1.327 . S
C1885 H1879 0.950 . S
C1885 C1884 1.327 . S
C1885 C1889 1.429 . S
C1886 C1869 1.574 . S
C1886 H1880 0.949 . S
C1886 C1890 1.368 . S
C1887 C1868 1.429 . S
C1887 C1881 1.429 . S
C1887 C1888 1.523 . S
C1888 C1869 1.368 . S
C1888 C1882 1.368 . S
C1888 C1887 1.523 . S
C1889 C1873 1.429 . S
C1889 C1885 1.429 . S
C1889 C1890 1.523 . S
C1890 C1874 1.368 . S
C1890 C1886 1.368 . S
C1890 C1889 1.523 . S
H1891 C1866 0.950 . S
H1892 C1868 0.950 . S
H1893 C1869 0.949 . S
H1894 C1871 0.950 . S
H1895 C1873 0.950 . S
C1896 C1897 1.349 . S
C1896 C1898 1.327 . S
C1896 H1921 0.950 . S
C1897 C1896 1.349 . S
C1897 C1913 1.349 . S
C1898 C1896 1.327 . S
C1898 C1917 1.429 . S
C1898 H1922 0.950 . S
C1899 C1916 1.574 . S
C1899 C1918 1.368 . S
C1899 H1923 0.949 . S
H1900 C1904 0.949 . S
C1901 C1902 1.349 . S
C1901 C1903 1.327 . S
C1901 H1924 0.950 . S
C1902 C1901 1.349 . S
C1902 C1914 1.349 . S
C1903 C1901 1.327 . S
C1903 C1919 1.429 . S
C1903 H1925 0.950 . S
C1904 H1900 0.949 . S
C1904 C1912 1.574 . S
C1904 C1920 1.368 . S
H1905 C1913 0.950 . S
H1906 C1911 0.950 . S
H1907 C1912 0.949 . S
H1908 C1914 0.950 . S
H1909 C1915 0.950 . S
H1910 C1916 0.949 . S
C1911 H1906 0.950 . S
C1911 C1913 1.327 . S
C1911 C1917 1.429 . S
C1912 C1904 1.574 . S
C1912 H1907 0.949 . S
C1912 C1918 1.368 . S
C1913 C1897 1.349 . S
C1913 H1905 0.950 . S
C1913 C1911 1.327 . S
C1914 C1902 1.349 . S
C1914 H1908 0.950 . S
C1914 C1915 1.327 . S
C1915 H1909 0.950 . S
C1915 C1914 1.327 . S
C1915 C1919 1.429 . S
C1916 C1899 1.574 . S
C1916 H1910 0.949 . S
C1916 C1920 1.368 . S
C1917 C1898 1.429 . S
C1917 C1911 1.429 . S
C1917 C1918 1.523 . S
C1918 C1899 1.368 . S
C1918 C1912 1.368 . S
C1918 C1917 1.523 . S
C1919 C1903 1.429 . S
C1919 C1915 1.429 . S
C1919 C1920 1.523 . S
C1920 C1904 1.368 . S
C1920 C1916 1.368 . S
C1920 C1919 1.523 . S
H1921 C1896 0.950 . S
H1922 C1898 0.950 . S
H1923 C1899 0.949 . S
H1924 C1901 0.950 . S
H1925 C1903 0.950 . S
C1926 C1927 1.349 . S
C1926 C1928 1.327 . S
C1926 H1951 0.950 . S
C1927 C1926 1.349 . S
C1927 C1943 1.349 . S
C1928 C1926 1.327 . S
C1928 C1947 1.429 . S
C1928 H1952 0.950 . S
C1929 C1946 1.574 . S
C1929 C1948 1.368 . S
C1929 H1953 0.949 . S
H1930 C1934 0.949 . S
C1931 C1932 1.349 . S
C1931 C1933 1.327 . S
C1931 H1954 0.950 . S
C1932 C1931 1.349 . S
C1932 C1944 1.349 . S
C1933 C1931 1.327 . S
C1933 C1949 1.429 . S
C1933 H1955 0.950 . S
C1934 H1930 0.949 . S
C1934 C1942 1.574 . S
C1934 C1950 1.368 . S
H1935 C1943 0.950 . S
H1936 C1941 0.950 . S
H1937 C1942 0.949 . S
H1938 C1944 0.950 . S
H1939 C1945 0.950 . S
H1940 C1946 0.949 . S
C1941 H1936 0.950 . S
C1941 C1943 1.327 . S
C1941 C1947 1.429 . S
C1942 C1934 1.574 . S
C1942 H1937 0.949 . S
C1942 C1948 1.368 . S
C1943 C1927 1.349 . S
C1943 H1935 0.950 . S
C1943 C1941 1.327 . S
C1944 C1932 1.349 . S
C1944 H1938 0.950 . S
C1944 C1945 1.327 . S
C1945 H1939 0.950 . S
C1945 C1944 1.327 . S
C1945 C1949 1.429 . S
C1946 C1929 1.574 . S
C1946 H1940 0.949 . S
C1946 C1950 1.368 . S
C1947 C1928 1.429 . S
C1947 C1941 1.429 . S
C1947 C1948 1.523 . S
C1948 C1929 1.368 . S
C1948 C1942 1.368 . S
C1948 C1947 1.523 . S
C1949 C1933 1.429 . S
C1949 C1945 1.429 . S
C1949 C1950 1.523 . S
C1950 C1934 1.368 . S
C1950 C1946 1.368 . S
C1950 C1949 1.523 . S
H1951 C1926 0.950 . S
H1952 C1928 0.950 . S
H1953 C1929 0.949 . S
H1954 C1931 0.950 . S
H1955 C1933 0.950 . S
C1956 C1957 1.349 . S
C1956 C1958 1.327 . S
C1956 H1981 0.950 . S
C1957 C1956 1.349 . S
C1957 C1973 1.349 . S
C1958 C1956 1.327 . S
C1958 C1977 1.429 . S
C1958 H1982 0.950 . S
C1959 C1976 1.574 . S
C1959 C1978 1.368 . S
C1959 H1983 0.949 . S
H1960 C1964 0.949 . S
C1961 C1962 1.349 . S
C1961 C1963 1.327 . S
C1961 H1984 0.950 . S
C1962 C1961 1.349 . S
C1962 C1974 1.349 . S
C1963 C1961 1.327 . S
C1963 C1979 1.429 . S
C1963 H1985 0.950 . S
C1964 H1960 0.949 . S
C1964 C1972 1.574 . S
C1964 C1980 1.368 . S
H1965 C1973 0.950 . S
H1966 C1971 0.950 . S
H1967 C1972 0.949 . S
H1968 C1974 0.950 . S
H1969 C1975 0.950 . S
H1970 C1976 0.949 . S
C1971 H1966 0.950 . S
C1971 C1973 1.327 . S
C1971 C1977 1.429 . S
C1972 C1964 1.574 . S
C1972 H1967 0.949 . S
C1972 C1978 1.368 . S
C1973 C1957 1.349 . S
C1973 H1965 0.950 . S
C1973 C1971 1.327 . S
C1974 C1962 1.349 . S
C1974 H1968 0.950 . S
C1974 C1975 1.327 . S
C1975 H1969 0.950 . S
C1975 C1974 1.327 . S
C1975 C1979 1.429 . S
C1976 C1959 1.574 . S
C1976 H1970 0.949 . S
C1976 C1980 1.368 . S
C1977 C1958 1.429 . S
C1977 C1971 1.429 . S
C1977 C1978 1.523 . S
C1978 C1959 1.368 . S
C1978 C1972 1.368 . S
C1978 C1977 1.523 . S
C1979 C1963 1.429 . S
C1979 C1975 1.429 . S
C1979 C1980 1.523 . S
C1980 C1964 1.368 . S
C1980 C1976 1.368 . S
C1980 C1979 1.523 . S
H1981 C1956 0.950 . S
H1982 C1958 0.950 . S
H1983 C1959 0.949 . S
H1984 C1961 0.950 . S
H1985 C1963 0.950 . S
C1986 C1987 1.349 . S
C1986 C1988 1.327 . S
C1986 H2011 0.950 . S
C1987 C1986 1.349 . S
C1987 C2003 1.349 . S
C1988 C1986 1.327 . S
C1988 C2007 1.429 . S
C1988 H2012 0.950 . S
C1989 C2006 1.574 . S
C1989 C2008 1.368 . S
C1989 H2013 0.949 . S
H1990 C1994 0.949 . S
C1991 C1992 1.349 . S
C1991 C1993 1.327 . S
C1991 H2014 0.950 . S
C1992 C1991 1.349 . S
C1992 C2004 1.349 . S
C1993 C1991 1.327 . S
C1993 C2009 1.429 . S
C1993 H2015 0.950 . S
C1994 H1990 0.949 . S
C1994 C2002 1.574 . S
C1994 C2010 1.368 . S
H1995 C2003 0.950 . S
H1996 C2001 0.950 . S
H1997 C2002 0.949 . S
H1998 C2004 0.950 . S
H1999 C2005 0.950 . S
H2000 C2006 0.949 . S
C2001 H1996 0.950 . S
C2001 C2003 1.327 . S
C2001 C2007 1.429 . S
C2002 C1994 1.574 . S
C2002 H1997 0.949 . S
C2002 C2008 1.368 . S
C2003 C1987 1.349 . S
C2003 H1995 0.950 . S
C2003 C2001 1.327 . S
C2004 C1992 1.349 . S
C2004 H1998 0.950 . S
C2004 C2005 1.327 . S
C2005 H1999 0.950 . S
C2005 C2004 1.327 . S
C2005 C2009 1.429 . S
C2006 C1989 1.574 . S
C2006 H2000 0.949 . S
C2006 C2010 1.368 . S
C2007 C1988 1.429 . S
C2007 C2001 1.429 . S
C2007 C2008 1.523 . S
C2008 C1989 1.368 . S
C2008 C2002 1.368 . S
C2008 C2007 1.523 . S
C2009 C1993 1.429 . S
C2009 C2005 1.429 . S
C2009 C2010 1.523 . S
C2010 C1994 1.368 . S
C2010 C2006 1.368 . S
C2010 C2009 1.523 . S
H2011 C1986 0.950 . S
H2012 C1988 0.950 . S
H2013 C1989 0.949 . S
H2014 C1991 0.950 . S
H2015 C1993 0.950 . S
C2016 C2017 1.349 . S
C2016 C2018 1.327 . S
C2016 H2041 0.950 . S
C2017 C2016 1.349 . S
C2017 C2033 1.349 . S
C2018 C2016 1.327 . S
C2018 C2037 1.429 . S
C2018 H2042 0.950 . S
C2019 C2036 1.574 . S
C2019 C2038 1.368 . S
C2019 H2043 0.949 . S
H2020 C2024 0.949 . S
C2021 C2022 1.349 . S
C2021 C2023 1.327 . S
C2021 H2044 0.950 . S
C2022 C2021 1.349 . S
C2022 C2034 1.349 . S
C2023 C2021 1.327 . S
C2023 C2039 1.429 . S
C2023 H2045 0.950 . S
C2024 H2020 0.949 . S
C2024 C2032 1.574 . S
C2024 C2040 1.368 . S
H2025 C2033 0.950 . S
H2026 C2031 0.950 . S
H2027 C2032 0.949 . S
H2028 C2034 0.950 . S
H2029 C2035 0.950 . S
H2030 C2036 0.949 . S
C2031 H2026 0.950 . S
C2031 C2033 1.327 . S
C2031 C2037 1.429 . S
C2032 C2024 1.574 . S
C2032 H2027 0.949 . S
C2032 C2038 1.368 . S
C2033 C2017 1.349 . S
C2033 H2025 0.950 . S
C2033 C2031 1.327 . S
C2034 C2022 1.349 . S
C2034 H2028 0.950 . S
C2034 C2035 1.327 . S
C2035 H2029 0.950 . S
C2035 C2034 1.327 . S
C2035 C2039 1.429 . S
C2036 C2019 1.574 . S
C2036 H2030 0.949 . S
C2036 C2040 1.368 . S
C2037 C2018 1.429 . S
C2037 C2031 1.429 . S
C2037 C2038 1.523 . S
C2038 C2019 1.368 . S
C2038 C2032 1.368 . S
C2038 C2037 1.523 . S
C2039 C2023 1.429 . S
C2039 C2035 1.429 . S
C2039 C2040 1.523 . S
C2040 C2024 1.368 . S
C2040 C2036 1.368 . S
C2040 C2039 1.523 . S
H2041 C2016 0.950 . S
H2042 C2018 0.950 . S
H2043 C2019 0.949 . S
H2044 C2021 0.950 . S
H2045 C2023 0.950 . S
C2046 C2047 1.349 . S
C2046 C2048 1.327 . S
C2046 H2071 0.950 . S
C2047 C2046 1.349 . S
C2047 C2063 1.349 . S
C2048 C2046 1.327 . S
C2048 C2067 1.429 . S
C2048 H2072 0.950 . S
C2049 C2066 1.574 . S
C2049 C2068 1.368 . S
C2049 H2073 0.949 . S
H2050 C2054 0.949 . S
C2051 C2052 1.349 . S
C2051 C2053 1.327 . S
C2051 H2074 0.950 . S
C2052 C2051 1.349 . S
C2052 C2064 1.349 . S
C2053 C2051 1.327 . S
C2053 C2069 1.429 . S
C2053 H2075 0.950 . S
C2054 H2050 0.949 . S
C2054 C2062 1.574 . S
C2054 C2070 1.368 . S
H2055 C2063 0.950 . S
H2056 C2061 0.950 . S
H2057 C2062 0.949 . S
H2058 C2064 0.950 . S
H2059 C2065 0.950 . S
H2060 C2066 0.949 . S
C2061 H2056 0.950 . S
C2061 C2063 1.327 . S
C2061 C2067 1.429 . S
C2062 C2054 1.574 . S
C2062 H2057 0.949 . S
C2062 C2068 1.368 . S
C2063 C2047 1.349 . S
C2063 H2055 0.950 . S
C2063 C2061 1.327 . S
C2064 C2052 1.349 . S
C2064 H2058 0.950 . S
C2064 C2065 1.327 . S
C2065 H2059 0.950 . S
C2065 C2064 1.327 . S
C2065 C2069 1.429 . S
C2066 C2049 1.574 . S
C2066 H2060 0.949 . S
C2066 C2070 1.368 . S
C2067 C2048 1.429 . S
C2067 C2061 1.429 . S
C2067 C2068 1.523 . S
C2068 C2049 1.368 . S
C2068 C2062 1.368 . S
C2068 C2067 1.523 . S
C2069 C2053 1.429 . S
C2069 C2065 1.429 . S
C2069 C2070 1.523 . S
C2070 C2054 1.368 . S
C2070 C2066 1.368 . S
C2070 C2069 1.523 . S
H2071 C2046 0.950 . S
H2072 C2048 0.950 . S
H2073 C2049 0.949 . S
H2074 C2051 0.950 . S
H2075 C2053 0.950 . S
C2076 C2077 1.349 . S
C2076 C2078 1.327 . S
C2076 H2101 0.950 . S
C2077 C2076 1.349 . S
C2077 C2093 1.349 . S
C2078 C2076 1.327 . S
C2078 C2097 1.429 . S
C2078 H2102 0.950 . S
C2079 C2096 1.574 . S
C2079 C2098 1.368 . S
C2079 H2103 0.949 . S
H2080 C2084 0.949 . S
C2081 C2082 1.349 . S
C2081 C2083 1.327 . S
C2081 H2104 0.950 . S
C2082 C2081 1.349 . S
C2082 C2094 1.349 . S
C2083 C2081 1.327 . S
C2083 C2099 1.429 . S
C2083 H2105 0.950 . S
C2084 H2080 0.949 . S
C2084 C2092 1.574 . S
C2084 C2100 1.368 . S
H2085 C2093 0.950 . S
H2086 C2091 0.950 . S
H2087 C2092 0.949 . S
H2088 C2094 0.950 . S
H2089 C2095 0.950 . S
H2090 C2096 0.949 . S
C2091 H2086 0.950 . S
C2091 C2093 1.327 . S
C2091 C2097 1.429 . S
C2092 C2084 1.574 . S
C2092 H2087 0.949 . S
C2092 C2098 1.368 . S
C2093 C2077 1.349 . S
C2093 H2085 0.950 . S
C2093 C2091 1.327 . S
C2094 C2082 1.349 . S
C2094 H2088 0.950 . S
C2094 C2095 1.327 . S
C2095 H2089 0.950 . S
C2095 C2094 1.327 . S
C2095 C2099 1.429 . S
C2096 C2079 1.574 . S
C2096 H2090 0.949 . S
C2096 C2100 1.368 . S
C2097 C2078 1.429 . S
C2097 C2091 1.429 . S
C2097 C2098 1.523 . S
C2098 C2079 1.368 . S
C2098 C2092 1.368 . S
C2098 C2097 1.523 . S
C2099 C2083 1.429 . S
C2099 C2095 1.429 . S
C2099 C2100 1.523 . S
C2100 C2084 1.368 . S
C2100 C2096 1.368 . S
C2100 C2099 1.523 . S
H2101 C2076 0.950 . S
H2102 C2078 0.950 . S
H2103 C2079 0.949 . S
H2104 C2081 0.950 . S
H2105 C2083 0.950 . S
C2106 C2107 1.349 . S
C2106 C2108 1.327 . S
C2106 H2131 0.950 . S
C2107 C2106 1.349 . S
C2107 C2123 1.349 . S
C2108 C2106 1.327 . S
C2108 C2127 1.429 . S
C2108 H2132 0.950 . S
C2109 C2126 1.574 . S
C2109 C2128 1.368 . S
C2109 H2133 0.949 . S
H2110 C2114 0.949 . S
C2111 C2112 1.349 . S
C2111 C2113 1.327 . S
C2111 H2134 0.950 . S
C2112 C2111 1.349 . S
C2112 C2124 1.349 . S
C2113 C2111 1.327 . S
C2113 C2129 1.429 . S
C2113 H2135 0.950 . S
C2114 H2110 0.949 . S
C2114 C2122 1.574 . S
C2114 C2130 1.368 . S
H2115 C2123 0.950 . S
H2116 C2121 0.950 . S
H2117 C2122 0.949 . S
H2118 C2124 0.950 . S
H2119 C2125 0.950 . S
H2120 C2126 0.949 . S
C2121 H2116 0.950 . S
C2121 C2123 1.327 . S
C2121 C2127 1.429 . S
C2122 C2114 1.574 . S
C2122 H2117 0.949 . S
C2122 C2128 1.368 . S
C2123 C2107 1.349 . S
C2123 H2115 0.950 . S
C2123 C2121 1.327 . S
C2124 C2112 1.349 . S
C2124 H2118 0.950 . S
C2124 C2125 1.327 . S
C2125 H2119 0.950 . S
C2125 C2124 1.327 . S
C2125 C2129 1.429 . S
C2126 C2109 1.574 . S
C2126 H2120 0.949 . S
C2126 C2130 1.368 . S
C2127 C2108 1.429 . S
C2127 C2121 1.429 . S
C2127 C2128 1.523 . S
C2128 C2109 1.368 . S
C2128 C2122 1.368 . S
C2128 C2127 1.523 . S
C2129 C2113 1.429 . S
C2129 C2125 1.429 . S
C2129 C2130 1.523 . S
C2130 C2114 1.368 . S
C2130 C2126 1.368 . S
C2130 C2129 1.523 . S
H2131 C2106 0.950 . S
H2132 C2108 0.950 . S
H2133 C2109 0.949 . S
H2134 C2111 0.950 . S
H2135 C2113 0.950 . S
C2136 C2137 1.349 . S
C2136 C2138 1.327 . S
C2136 H2161 0.950 . S
C2137 C2136 1.349 . S
C2137 C2153 1.349 . S
C2138 C2136 1.327 . S
C2138 C2157 1.429 . S
C2138 H2162 0.950 . S
C2139 C2156 1.574 . S
C2139 C2158 1.368 . S
C2139 H2163 0.949 . S
H2140 C2144 0.949 . S
C2141 C2142 1.349 . S
C2141 C2143 1.327 . S
C2141 H2164 0.950 . S
C2142 C2141 1.349 . S
C2142 C2154 1.349 . S
C2143 C2141 1.327 . S
C2143 C2159 1.429 . S
C2143 H2165 0.950 . S
C2144 H2140 0.949 . S
C2144 C2152 1.574 . S
C2144 C2160 1.368 . S
H2145 C2153 0.950 . S
H2146 C2151 0.950 . S
H2147 C2152 0.949 . S
H2148 C2154 0.950 . S
H2149 C2155 0.950 . S
H2150 C2156 0.949 . S
C2151 H2146 0.950 . S
C2151 C2153 1.327 . S
C2151 C2157 1.429 . S
C2152 C2144 1.574 . S
C2152 H2147 0.949 . S
C2152 C2158 1.368 . S
C2153 C2137 1.349 . S
C2153 H2145 0.950 . S
C2153 C2151 1.327 . S
C2154 C2142 1.349 . S
C2154 H2148 0.950 . S
C2154 C2155 1.327 . S
C2155 H2149 0.950 . S
C2155 C2154 1.327 . S
C2155 C2159 1.429 . S
C2156 C2139 1.574 . S
C2156 H2150 0.949 . S
C2156 C2160 1.368 . S
C2157 C2138 1.429 . S
C2157 C2151 1.429 . S
C2157 C2158 1.523 . S
C2158 C2139 1.368 . S
C2158 C2152 1.368 . S
C2158 C2157 1.523 . S
C2159 C2143 1.429 . S
C2159 C2155 1.429 . S
C2159 C2160 1.523 . S
C2160 C2144 1.368 . S
C2160 C2156 1.368 . S
C2160 C2159 1.523 . S
H2161 C2136 0.950 . S
H2162 C2138 0.950 . S
H2163 C2139 0.949 . S
H2164 C2141 0.950 . S
H2165 C2143 0.950 . S
C2166 C2167 1.349 . S
C2166 C2168 1.327 . S
C2166 H2191 0.950 . S
C2167 C2166 1.349 . S
C2167 C2183 1.349 . S
C2168 C2166 1.327 . S
C2168 C2187 1.429 . S
C2168 H2192 0.950 . S
C2169 C2186 1.574 . S
C2169 C2188 1.368 . S
C2169 H2193 0.949 . S
H2170 C2174 0.949 . S
C2171 C2172 1.349 . S
C2171 C2173 1.327 . S
C2171 H2194 0.950 . S
C2172 C2171 1.349 . S
C2172 C2184 1.349 . S
C2173 C2171 1.327 . S
C2173 C2189 1.429 . S
C2173 H2195 0.950 . S
C2174 H2170 0.949 . S
C2174 C2182 1.574 . S
C2174 C2190 1.368 . S
H2175 C2183 0.950 . S
H2176 C2181 0.950 . S
H2177 C2182 0.949 . S
H2178 C2184 0.950 . S
H2179 C2185 0.950 . S
H2180 C2186 0.949 . S
C2181 H2176 0.950 . S
C2181 C2183 1.327 . S
C2181 C2187 1.429 . S
C2182 C2174 1.574 . S
C2182 H2177 0.949 . S
C2182 C2188 1.368 . S
C2183 C2167 1.349 . S
C2183 H2175 0.950 . S
C2183 C2181 1.327 . S
C2184 C2172 1.349 . S
C2184 H2178 0.950 . S
C2184 C2185 1.327 . S
C2185 H2179 0.950 . S
C2185 C2184 1.327 . S
C2185 C2189 1.429 . S
C2186 C2169 1.574 . S
C2186 H2180 0.949 . S
C2186 C2190 1.368 . S
C2187 C2168 1.429 . S
C2187 C2181 1.429 . S
C2187 C2188 1.523 . S
C2188 C2169 1.368 . S
C2188 C2182 1.368 . S
C2188 C2187 1.523 . S
C2189 C2173 1.429 . S
C2189 C2185 1.429 . S
C2189 C2190 1.523 . S
C2190 C2174 1.368 . S
C2190 C2186 1.368 . S
C2190 C2189 1.523 . S
H2191 C2166 0.950 . S
H2192 C2168 0.950 . S
H2193 C2169 0.949 . S
H2194 C2171 0.950 . S
H2195 C2173 0.950 . S
C2196 C2197 1.349 . S
C2196 C2198 1.327 . S
C2196 H2221 0.950 . S
C2197 C2196 1.349 . S
C2197 C2213 1.349 . S
C2198 C2196 1.327 . S
C2198 C2217 1.429 . S
C2198 H2222 0.950 . S
C2199 C2216 1.574 . S
C2199 C2218 1.368 . S
C2199 H2223 0.949 . S
H2200 C2204 0.949 . S
C2201 C2202 1.349 . S
C2201 C2203 1.327 . S
C2201 H2224 0.950 . S
C2202 C2201 1.349 . S
C2202 C2214 1.349 . S
C2203 C2201 1.327 . S
C2203 C2219 1.429 . S
C2203 H2225 0.950 . S
C2204 H2200 0.949 . S
C2204 C2212 1.574 . S
C2204 C2220 1.368 . S
H2205 C2213 0.950 . S
H2206 C2211 0.950 . S
H2207 C2212 0.949 . S
H2208 C2214 0.950 . S
H2209 C2215 0.950 . S
H2210 C2216 0.949 . S
C2211 H2206 0.950 . S
C2211 C2213 1.327 . S
C2211 C2217 1.429 . S
C2212 C2204 1.574 . S
C2212 H2207 0.949 . S
C2212 C2218 1.368 . S
C2213 C2197 1.349 . S
C2213 H2205 0.950 . S
C2213 C2211 1.327 . S
C2214 C2202 1.349 . S
C2214 H2208 0.950 . S
C2214 C2215 1.327 . S
C2215 H2209 0.950 . S
C2215 C2214 1.327 . S
C2215 C2219 1.429 . S
C2216 C2199 1.574 . S
C2216 H2210 0.949 . S
C2216 C2220 1.368 . S
C2217 C2198 1.429 . S
C2217 C2211 1.429 . S
C2217 C2218 1.523 . S
C2218 C2199 1.368 . S
C2218 C2212 1.368 . S
C2218 C2217 1.523 . S
C2219 C2203 1.429 . S
C2219 C2215 1.429 . S
C2219 C2220 1.523 . S
C2220 C2204 1.368 . S
C2220 C2216 1.368 . S
C2220 C2219 1.523 . S
H2221 C2196 0.950 . S
H2222 C2198 0.950 . S
H2223 C2199 0.949 . S
H2224 C2201 0.950 . S
H2225 C2203 0.950 . S
C2226 C2227 1.349 . S
C2226 C2228 1.327 . S
C2226 H2251 0.950 . S
C2227 C2226 1.349 . S
C2227 C2243 1.349 . S
C2228 C2226 1.327 . S
C2228 C2247 1.429 . S
C2228 H2252 0.950 . S
C2229 C2246 1.574 . S
C2229 C2248 1.368 . S
C2229 H2253 0.949 . S
H2230 C2234 0.949 . S
C2231 C2232 1.349 . S
C2231 C2233 1.327 . S
C2231 H2254 0.950 . S
C2232 C2231 1.349 . S
C2232 C2244 1.349 . S
C2233 C2231 1.327 . S
C2233 C2249 1.429 . S
C2233 H2255 0.950 . S
C2234 H2230 0.949 . S
C2234 C2242 1.574 . S
C2234 C2250 1.368 . S
H2235 C2243 0.950 . S
H2236 C2241 0.950 . S
H2237 C2242 0.949 . S
H2238 C2244 0.950 . S
H2239 C2245 0.950 . S
H2240 C2246 0.949 . S
C2241 H2236 0.950 . S
C2241 C2243 1.327 . S
C2241 C2247 1.429 . S
C2242 C2234 1.574 . S
C2242 H2237 0.949 . S
C2242 C2248 1.368 . S
C2243 C2227 1.349 . S
C2243 H2235 0.950 . S
C2243 C2241 1.327 . S
C2244 C2232 1.349 . S
C2244 H2238 0.950 . S
C2244 C2245 1.327 . S
C2245 H2239 0.950 . S
C2245 C2244 1.327 . S
C2245 C2249 1.429 . S
C2246 C2229 1.574 . S
C2246 H2240 0.949 . S
C2246 C2250 1.368 . S
C2247 C2228 1.429 . S
C2247 C2241 1.429 . S
C2247 C2248 1.523 . S
C2248 C2229 1.368 . S
C2248 C2242 1.368 . S
C2248 C2247 1.523 . S
C2249 C2233 1.429 . S
C2249 C2245 1.429 . S
C2249 C2250 1.523 . S
C2250 C2234 1.368 . S
C2250 C2246 1.368 . S
C2250 C2249 1.523 . S
H2251 C2226 0.950 . S
H2252 C2228 0.950 . S
H2253 C2229 0.949 . S
H2254 C2231 0.950 . S
H2255 C2233 0.950 . S
C2256 C2257 1.349 . S
C2256 C2258 1.327 . S
C2256 H2281 0.950 . S
C2257 C2256 1.349 . S
C2257 C2273 1.349 . S
C2258 C2256 1.327 . S
C2258 C2277 1.429 . S
C2258 H2282 0.950 . S
C2259 C2276 1.574 . S
C2259 C2278 1.368 . S
C2259 H2283 0.949 . S
H2260 C2264 0.949 . S
C2261 C2262 1.349 . S
C2261 C2263 1.327 . S
C2261 H2284 0.950 . S
C2262 C2261 1.349 . S
C2262 C2274 1.349 . S
C2263 C2261 1.327 . S
C2263 C2279 1.429 . S
C2263 H2285 0.950 . S
C2264 H2260 0.949 . S
C2264 C2272 1.574 . S
C2264 C2280 1.368 . S
H2265 C2273 0.950 . S
H2266 C2271 0.950 . S
H2267 C2272 0.949 . S
H2268 C2274 0.950 . S
H2269 C2275 0.950 . S
H2270 C2276 0.949 . S
C2271 H2266 0.950 . S
C2271 C2273 1.327 . S
C2271 C2277 1.429 . S
C2272 C2264 1.574 . S
C2272 H2267 0.949 . S
C2272 C2278 1.368 . S
C2273 C2257 1.349 . S
C2273 H2265 0.950 . S
C2273 C2271 1.327 . S
C2274 C2262 1.349 . S
C2274 H2268 0.950 . S
C2274 C2275 1.327 . S
C2275 H2269 0.950 . S
C2275 C2274 1.327 . S
C2275 C2279 1.429 . S
C2276 C2259 1.574 . S
C2276 H2270 0.949 . S
C2276 C2280 1.368 . S
C2277 C2258 1.429 . S
C2277 C2271 1.429 . S
C2277 C2278 1.523 . S
C2278 C2259 1.368 . S
C2278 C2272 1.368 . S
C2278 C2277 1.523 . S
C2279 C2263 1.429 . S
C2279 C2275 1.429 . S
C2279 C2280 1.523 . S
C2280 C2264 1.368 . S
C2280 C2276 1.368 . S
C2280 C2279 1.523 . S
H2281 C2256 0.950 . S
H2282 C2258 0.950 . S
H2283 C2259 0.949 . S
H2284 C2261 0.950 . S
H2285 C2263 0.950 . S
C2286 C2287 1.349 . S
C2286 C2288 1.327 . S
C2286 H2311 0.950 . S
C2287 C2286 1.349 . S
C2287 C2303 1.349 . S
C2288 C2286 1.327 . S
C2288 C2307 1.429 . S
C2288 H2312 0.950 . S
C2289 C2306 1.574 . S
C2289 C2308 1.368 . S
C2289 H2313 0.949 . S
H2290 C2294 0.949 . S
C2291 C2292 1.349 . S
C2291 C2293 1.327 . S
C2291 H2314 0.950 . S
C2292 C2291 1.349 . S
C2292 C2304 1.349 . S
C2293 C2291 1.327 . S
C2293 C2309 1.429 . S
C2293 H2315 0.950 . S
C2294 H2290 0.949 . S
C2294 C2302 1.574 . S
C2294 C2310 1.368 . S
H2295 C2303 0.950 . S
H2296 C2301 0.950 . S
H2297 C2302 0.949 . S
H2298 C2304 0.950 . S
H2299 C2305 0.950 . S
H2300 C2306 0.949 . S
C2301 H2296 0.950 . S
C2301 C2303 1.327 . S
C2301 C2307 1.429 . S
C2302 C2294 1.574 . S
C2302 H2297 0.949 . S
C2302 C2308 1.368 . S
C2303 C2287 1.349 . S
C2303 H2295 0.950 . S
C2303 C2301 1.327 . S
C2304 C2292 1.349 . S
C2304 H2298 0.950 . S
C2304 C2305 1.327 . S
C2305 H2299 0.950 . S
C2305 C2304 1.327 . S
C2305 C2309 1.429 . S
C2306 C2289 1.574 . S
C2306 H2300 0.949 . S
C2306 C2310 1.368 . S
C2307 C2288 1.429 . S
C2307 C2301 1.429 . S
C2307 C2308 1.523 . S
C2308 C2289 1.368 . S
C2308 C2302 1.368 . S
C2308 C2307 1.523 . S
C2309 C2293 1.429 . S
C2309 C2305 1.429 . S
C2309 C2310 1.523 . S
C2310 C2294 1.368 . S
C2310 C2306 1.368 . S
C2310 C2309 1.523 . S
H2311 C2286 0.950 . S
H2312 C2288 0.950 . S
H2313 C2289 0.949 . S
H2314 C2291 0.950 . S
H2315 C2293 0.950 . S
C2316 C2317 1.349 . S
C2316 C2318 1.327 . S
C2316 H2341 0.950 . S
C2317 C2316 1.349 . S
C2317 C2333 1.349 . S
C2318 C2316 1.327 . S
C2318 C2337 1.429 . S
C2318 H2342 0.950 . S
C2319 C2336 1.574 . S
C2319 C2338 1.368 . S
C2319 H2343 0.949 . S
H2320 C2324 0.949 . S
C2321 C2322 1.349 . S
C2321 C2323 1.327 . S
C2321 H2344 0.950 . S
C2322 C2321 1.349 . S
C2322 C2334 1.349 . S
C2323 C2321 1.327 . S
C2323 C2339 1.429 . S
C2323 H2345 0.950 . S
C2324 H2320 0.949 . S
C2324 C2332 1.574 . S
C2324 C2340 1.368 . S
H2325 C2333 0.950 . S
H2326 C2331 0.950 . S
H2327 C2332 0.949 . S
H2328 C2334 0.950 . S
H2329 C2335 0.950 . S
H2330 C2336 0.949 . S
C2331 H2326 0.950 . S
C2331 C2333 1.327 . S
C2331 C2337 1.429 . S
C2332 C2324 1.574 . S
C2332 H2327 0.949 . S
C2332 C2338 1.368 . S
C2333 C2317 1.349 . S
C2333 H2325 0.950 . S
C2333 C2331 1.327 . S
C2334 C2322 1.349 . S
C2334 H2328 0.950 . S
C2334 C2335 1.327 . S
C2335 H2329 0.950 . S
C2335 C2334 1.327 . S
C2335 C2339 1.429 . S
C2336 C2319 1.574 . S
C2336 H2330 0.949 . S
C2336 C2340 1.368 . S
C2337 C2318 1.429 . S
C2337 C2331 1.429 . S
C2337 C2338 1.523 . S
C2338 C2319 1.368 . S
C2338 C2332 1.368 . S
C2338 C2337 1.523 . S
C2339 C2323 1.429 . S
C2339 C2335 1.429 . S
C2339 C2340 1.523 . S
C2340 C2324 1.368 . S
C2340 C2336 1.368 . S
C2340 C2339 1.523 . S
H2341 C2316 0.950 . S
H2342 C2318 0.950 . S
H2343 C2319 0.949 . S
H2344 C2321 0.950 . S
H2345 C2323 0.950 . S
C2346 C2347 1.349 . S
C2346 C2348 1.327 . S
C2346 H2371 0.950 . S
C2347 C2346 1.349 . S
C2347 C2363 1.349 . S
C2348 C2346 1.327 . S
C2348 C2367 1.429 . S
C2348 H2372 0.950 . S
C2349 C2366 1.574 . S
C2349 C2368 1.368 . S
C2349 H2373 0.949 . S
H2350 C2354 0.949 . S
C2351 C2352 1.349 . S
C2351 C2353 1.327 . S
C2351 H2374 0.950 . S
C2352 C2351 1.349 . S
C2352 C2364 1.349 . S
C2353 C2351 1.327 . S
C2353 C2369 1.429 . S
C2353 H2375 0.950 . S
C2354 H2350 0.949 . S
C2354 C2362 1.574 . S
C2354 C2370 1.368 . S
H2355 C2363 0.950 . S
H2356 C2361 0.950 . S
H2357 C2362 0.949 . S
H2358 C2364 0.950 . S
H2359 C2365 0.950 . S
H2360 C2366 0.949 . S
C2361 H2356 0.950 . S
C2361 C2363 1.327 . S
C2361 C2367 1.429 . S
C2362 C2354 1.574 . S
C2362 H2357 0.949 . S
C2362 C2368 1.368 . S
C2363 C2347 1.349 . S
C2363 H2355 0.950 . S
C2363 C2361 1.327 . S
C2364 C2352 1.349 . S
C2364 H2358 0.950 . S
C2364 C2365 1.327 . S
C2365 H2359 0.950 . S
C2365 C2364 1.327 . S
C2365 C2369 1.429 . S
C2366 C2349 1.574 . S
C2366 H2360 0.949 . S
C2366 C2370 1.368 . S
C2367 C2348 1.429 . S
C2367 C2361 1.429 . S
C2367 C2368 1.523 . S
C2368 C2349 1.368 . S
C2368 C2362 1.368 . S
C2368 C2367 1.523 . S
C2369 C2353 1.429 . S
C2369 C2365 1.429 . S
C2369 C2370 1.523 . S
C2370 C2354 1.368 . S
C2370 C2366 1.368 . S
C2370 C2369 1.523 . S
H2371 C2346 0.950 . S
H2372 C2348 0.950 . S
H2373 C2349 0.949 . S
H2374 C2351 0.950 . S
H2375 C2353 0.950 . S
C2376 C2377 1.349 . S
C2376 C2378 1.327 . S
C2376 H2401 0.950 . S
C2377 C2376 1.349 . S
C2377 C2393 1.349 . S
C2378 C2376 1.327 . S
C2378 C2397 1.429 . S
C2378 H2402 0.950 . S
C2379 C2396 1.574 . S
C2379 C2398 1.368 . S
C2379 H2403 0.949 . S
H2380 C2384 0.949 . S
C2381 C2382 1.349 . S
C2381 C2383 1.327 . S
C2381 H2404 0.950 . S
C2382 C2381 1.349 . S
C2382 C2394 1.349 . S
C2383 C2381 1.327 . S
C2383 C2399 1.429 . S
C2383 H2405 0.950 . S
C2384 H2380 0.949 . S
C2384 C2392 1.574 . S
C2384 C2400 1.368 . S
H2385 C2393 0.950 . S
H2386 C2391 0.950 . S
H2387 C2392 0.949 . S
H2388 C2394 0.950 . S
H2389 C2395 0.950 . S
H2390 C2396 0.949 . S
C2391 H2386 0.950 . S
C2391 C2393 1.327 . S
C2391 C2397 1.429 . S
C2392 C2384 1.574 . S
C2392 H2387 0.949 . S
C2392 C2398 1.368 . S
C2393 C2377 1.349 . S
C2393 H2385 0.950 . S
C2393 C2391 1.327 . S
C2394 C2382 1.349 . S
C2394 H2388 0.950 . S
C2394 C2395 1.327 . S
C2395 H2389 0.950 . S
C2395 C2394 1.327 . S
C2395 C2399 1.429 . S
C2396 C2379 1.574 . S
C2396 H2390 0.949 . S
C2396 C2400 1.368 . S
C2397 C2378 1.429 . S
C2397 C2391 1.429 . S
C2397 C2398 1.523 . S
C2398 C2379 1.368 . S
C2398 C2392 1.368 . S
C2398 C2397 1.523 . S
C2399 C2383 1.429 . S
C2399 C2395 1.429 . S
C2399 C2400 1.523 . S
C2400 C2384 1.368 . S
C2400 C2396 1.368 . S
C2400 C2399 1.523 . S
H2401 C2376 0.950 . S
H2402 C2378 0.950 . S
H2403 C2379 0.949 . S
H2404 C2381 0.950 . S
H2405 C2383 0.950 . S
C2406 C2407 1.349 . S
C2406 C2408 1.327 . S
C2406 H2431 0.950 . S
C2407 C2406 1.349 . S
C2407 C2423 1.349 . S
C2408 C2406 1.327 . S
C2408 C2427 1.429 . S
C2408 H2432 0.950 . S
C2409 C2426 1.574 . S
C2409 C2428 1.368 . S
C2409 H2433 0.949 . S
H2410 C2414 0.949 . S
C2411 C2412 1.349 . S
C2411 C2413 1.327 . S
C2411 H2434 0.950 . S
C2412 C2411 1.349 . S
C2412 C2424 1.349 . S
C2413 C2411 1.327 . S
C2413 C2429 1.429 . S
C2413 H2435 0.950 . S
C2414 H2410 0.949 . S
C2414 C2422 1.574 . S
C2414 C2430 1.368 . S
H2415 C2423 0.950 . S
H2416 C2421 0.950 . S
H2417 C2422 0.949 . S
H2418 C2424 0.950 . S
H2419 C2425 0.950 . S
H2420 C2426 0.949 . S
C2421 H2416 0.950 . S
C2421 C2423 1.327 . S
C2421 C2427 1.429 . S
C2422 C2414 1.574 . S
C2422 H2417 0.949 . S
C2422 C2428 1.368 . S
C2423 C2407 1.349 . S
C2423 H2415 0.950 . S
C2423 C2421 1.327 . S
C2424 C2412 1.349 . S
C2424 H2418 0.950 . S
C2424 C2425 1.327 . S
C2425 H2419 0.950 . S
C2425 C2424 1.327 . S
C2425 C2429 1.429 . S
C2426 C2409 1.574 . S
C2426 H2420 0.949 . S
C2426 C2430 1.368 . S
C2427 C2408 1.429 . S
C2427 C2421 1.429 . S
C2427 C2428 1.523 . S
C2428 C2409 1.368 . S
C2428 C2422 1.368 . S
C2428 C2427 1.523 . S
C2429 C2413 1.429 . S
C2429 C2425 1.429 . S
C2429 C2430 1.523 . S
C2430 C2414 1.368 . S
C2430 C2426 1.368 . S
C2430 C2429 1.523 . S
H2431 C2406 0.950 . S
H2432 C2408 0.950 . S
H2433 C2409 0.949 . S
H2434 C2411 0.950 . S
H2435 C2413 0.950 . S
C1002 C707 1.109 . S
C997 C74 1.052 . S
C1032 C685 0.330 . S
C1027 C142 0.699 . S
C1062 C682 0.531 . S
C1057 C231 0.588 . S
C1087 C322 1.705 . S
C1092 C694 1.786 . S
C1117 C406 0.700 . S
C1122 C677 0.336 . S
C1152 C699 0.530 . S
C1147 C494 0.587 . S
C1177 C562 1.709 . S
C1182 C704 1.793 . S
C1207 C651 1.053 . S
C1212 C700 1.111 . S
C1242 C758 1.816 . S
C1237 C58 1.730 . S
C1267 C151 1.176 . S
C1272 C808 1.228 . S
C1302 C731 2.826 . S
C1297 C224 2.731 . S
C1332 C807 0.515 . S
C1327 C315 0.586 . S
C1357 C399 0.601 . S
C1362 C736 0.530 . S
C1392 C802 1.804 . S
C1387 C478 1.720 . S
C1417 C571 1.140 . S
C1422 C761 1.213 . S
C1447 C644 2.738 . S
C1452 C793 2.825 . S
C1477 C67 2.742 . S
C1482 C785 2.828 . S
C1507 C392 1.182 . S
C1512 C815 1.234 . S
C1542 C739 2.845 . S
C1537 C487 2.744 . S
C1572 C790 0.531 . S
C1567 C578 0.596 . S
C1597 C658 1.735 . S
C1602 C748 1.818 . S
C1627 C238 1.734 . S
C1632 C812 1.822 . S
C1662 C754 1.225 . S
C1657 C308 1.150 . S
C1687 C158 0.609 . S
C1692 C753 0.544 . S
C1717 C662 1.052 . S
C1722 C869 1.109 . S
C1747 C394 0.699 . S
C1752 C847 0.330 . S
C1782 C844 0.531 . S
C1777 C483 0.588 . S
C1812 C856 1.786 . S
C1807 C574 1.705 . S
C1837 C154 0.701 . S
C1842 C839 0.336 . S
C1872 C861 0.530 . S
C1867 C242 0.587 . S
C1897 C310 1.709 . S
C1902 C866 1.793 . S
C1927 C63 1.053 . S
C1932 C862 1.111 . S
C1957 C646 1.730 . S
C1962 C920 1.816 . S
C1992 C970 1.228 . S
C1987 C403 1.176 . S
C2017 C476 2.731 . S
C2022 C893 2.826 . S
C2047 C567 0.586 . S
C2052 C969 0.515 . S
C2082 C898 0.531 . S
C2077 C147 0.601 . S
C2107 C226 1.720 . S
C2112 C964 1.804 . S
C2142 C923 1.213 . S
C2137 C319 1.140 . S
C2172 C955 2.825 . S
C2167 C56 2.738 . S
C2202 C947 2.827 . S
C2197 C655 2.741 . S
C2227 C140 1.182 . S
C2232 C977 1.234 . S
C2257 C235 2.744 . S
C2262 C901 2.845 . S
C2292 C952 0.532 . S
C2287 C326 0.596 . S
C2317 C70 1.735 . S
C2322 C910 1.818 . S
C2347 C490 1.734 . S
C2352 C974 1.822 . S
C2382 C916 1.225 . S
C2377 C560 1.150 . S
C2412 C915 0.544 . S
C2407 C410 0.609 . S
