# Generated by pormake.
# Topology gar, (4,6)-cn, num edge types: 1
# Building blocks:
#     Node 0, Type 0, BuildingBlock: AZAVOO_clean_sbu_0, # of connection points: 4
#     Node 1, Type 0, BuildingBlock: AZAVOO_clean_sbu_0, # of connection points: 4
#     Node 2, Type 0, BuildingBlock: AZAVOO_clean_sbu_0, # of connection points: 4
#     Node 3, Type 0, BuildingBlock: AZAVOO_clean_sbu_0, # of connection points: 4
#     Node 4, Type 0, BuildingBlock: AZAVOO_clean_sbu_0, # of connection points: 4
#     Node 5, Type 0, BuildingBlock: AZAVOO_clean_sbu_0, # of connection points: 4
#     Node 6, Type 0, BuildingBlock: AZAVOO_clean_sbu_0, # of connection points: 4
#     Node 7, Type 0, BuildingBlock: AZAVOO_clean_sbu_0, # of connection points: 4
#     Node 8, Type 0, BuildingBlock: AZAVOO_clean_sbu_0, # of connection points: 4
#     Node 9, Type 0, BuildingBlock: AZAVOO_clean_sbu_0, # of connection points: 4
#     Node 10, Type 0, BuildingBlock: AZAVOO_clean_sbu_0, # of connection points: 4
#     Node 11, Type 0, BuildingBlock: AZAVOO_clean_sbu_0, # of connection points: 4
#     Node 12, Type 0, BuildingBlock: AZAVOO_clean_sbu_0, # of connection points: 4
#     Node 13, Type 0, BuildingBlock: AZAVOO_clean_sbu_0, # of connection points: 4
#     Node 14, Type 0, BuildingBlock: AZAVOO_clean_sbu_0, # of connection points: 4
#     Node 15, Type 0, BuildingBlock: AZAVOO_clean_sbu_0, # of connection points: 4
#     Node 16, Type 0, BuildingBlock: AZAVOO_clean_sbu_0, # of connection points: 4
#     Node 17, Type 0, BuildingBlock: AZAVOO_clean_sbu_0, # of connection points: 4
#     Node 18, Type 0, BuildingBlock: AZAVOO_clean_sbu_0, # of connection points: 4
#     Node 19, Type 0, BuildingBlock: AZAVOO_clean_sbu_0, # of connection points: 4
#     Node 20, Type 0, BuildingBlock: AZAVOO_clean_sbu_0, # of connection points: 4
#     Node 21, Type 0, BuildingBlock: AZAVOO_clean_sbu_0, # of connection points: 4
#     Node 22, Type 0, BuildingBlock: AZAVOO_clean_sbu_0, # of connection points: 4
#     Node 23, Type 0, BuildingBlock: AZAVOO_clean_sbu_0, # of connection points: 4
#     Node 24, Type 1, BuildingBlock: BETDIP_clean_sbu_0, # of connection points: 6
#     Node 25, Type 1, BuildingBlock: BETDIP_clean_sbu_0, # of connection points: 6
#     Node 26, Type 1, BuildingBlock: BETDIP_clean_sbu_0, # of connection points: 6
#     Node 27, Type 1, BuildingBlock: BETDIP_clean_sbu_0, # of connection points: 6
#     Node 28, Type 1, BuildingBlock: BETDIP_clean_sbu_0, # of connection points: 6
#     Node 29, Type 1, BuildingBlock: BETDIP_clean_sbu_0, # of connection points: 6
#     Node 30, Type 1, BuildingBlock: BETDIP_clean_sbu_0, # of connection points: 6
#     Node 31, Type 1, BuildingBlock: BETDIP_clean_sbu_0, # of connection points: 6
#     Node 32, Type 1, BuildingBlock: BETDIP_clean_sbu_0, # of connection points: 6
#     Node 33, Type 1, BuildingBlock: BETDIP_clean_sbu_0, # of connection points: 6
#     Node 34, Type 1, BuildingBlock: BETDIP_clean_sbu_0, # of connection points: 6
#     Node 35, Type 1, BuildingBlock: BETDIP_clean_sbu_0, # of connection points: 6
#     Node 36, Type 1, BuildingBlock: BETDIP_clean_sbu_0, # of connection points: 6
#     Node 37, Type 1, BuildingBlock: BETDIP_clean_sbu_0, # of connection points: 6
#     Node 38, Type 1, BuildingBlock: BETDIP_clean_sbu_0, # of connection points: 6
#     Node 39, Type 1, BuildingBlock: BETDIP_clean_sbu_0, # of connection points: 6
#     Edge 40, Type (0, 1), BuildingBlock: MIFKUJ_clean_linker_0, # of connection points: 2
#     Edge 41, Type (0, 1), BuildingBlock: MIFKUJ_clean_linker_0, # of connection points: 2
#     Edge 42, Type (0, 1), BuildingBlock: MIFKUJ_clean_linker_0, # of connection points: 2
#     Edge 43, Type (0, 1), BuildingBlock: MIFKUJ_clean_linker_0, # of connection points: 2
#     Edge 44, Type (0, 1), BuildingBlock: MIFKUJ_clean_linker_0, # of connection points: 2
#     Edge 45, Type (0, 1), BuildingBlock: MIFKUJ_clean_linker_0, # of connection points: 2
#     Edge 46, Type (0, 1), BuildingBlock: MIFKUJ_clean_linker_0, # of connection points: 2
#     Edge 47, Type (0, 1), BuildingBlock: MIFKUJ_clean_linker_0, # of connection points: 2
#     Edge 48, Type (0, 1), BuildingBlock: MIFKUJ_clean_linker_0, # of connection points: 2
#     Edge 49, Type (0, 1), BuildingBlock: MIFKUJ_clean_linker_0, # of connection points: 2
#     Edge 50, Type (0, 1), BuildingBlock: MIFKUJ_clean_linker_0, # of connection points: 2
#     Edge 51, Type (0, 1), BuildingBlock: MIFKUJ_clean_linker_0, # of connection points: 2
#     Edge 52, Type (0, 1), BuildingBlock: MIFKUJ_clean_linker_0, # of connection points: 2
#     Edge 53, Type (0, 1), BuildingBlock: MIFKUJ_clean_linker_0, # of connection points: 2
#     Edge 54, Type (0, 1), BuildingBlock: MIFKUJ_clean_linker_0, # of connection points: 2
#     Edge 55, Type (0, 1), BuildingBlock: MIFKUJ_clean_linker_0, # of connection points: 2
#     Edge 56, Type (0, 1), BuildingBlock: MIFKUJ_clean_linker_0, # of connection points: 2
#     Edge 57, Type (0, 1), BuildingBlock: MIFKUJ_clean_linker_0, # of connection points: 2
#     Edge 58, Type (0, 1), BuildingBlock: MIFKUJ_clean_linker_0, # of connection points: 2
#     Edge 59, Type (0, 1), BuildingBlock: MIFKUJ_clean_linker_0, # of connection points: 2
#     Edge 60, Type (0, 1), BuildingBlock: MIFKUJ_clean_linker_0, # of connection points: 2
#     Edge 61, Type (0, 1), BuildingBlock: MIFKUJ_clean_linker_0, # of connection points: 2
#     Edge 62, Type (0, 1), BuildingBlock: MIFKUJ_clean_linker_0, # of connection points: 2
#     Edge 63, Type (0, 1), BuildingBlock: MIFKUJ_clean_linker_0, # of connection points: 2
#     Edge 64, Type (0, 1), BuildingBlock: MIFKUJ_clean_linker_0, # of connection points: 2
#     Edge 65, Type (0, 1), BuildingBlock: MIFKUJ_clean_linker_0, # of connection points: 2
#     Edge 66, Type (0, 1), BuildingBlock: MIFKUJ_clean_linker_0, # of connection points: 2
#     Edge 67, Type (0, 1), BuildingBlock: MIFKUJ_clean_linker_0, # of connection points: 2
#     Edge 68, Type (0, 1), BuildingBlock: MIFKUJ_clean_linker_0, # of connection points: 2
#     Edge 69, Type (0, 1), BuildingBlock: MIFKUJ_clean_linker_0, # of connection points: 2
#     Edge 70, Type (0, 1), BuildingBlock: MIFKUJ_clean_linker_0, # of connection points: 2
#     Edge 71, Type (0, 1), BuildingBlock: MIFKUJ_clean_linker_0, # of connection points: 2
#     Edge 72, Type (0, 1), BuildingBlock: MIFKUJ_clean_linker_0, # of connection points: 2
#     Edge 73, Type (0, 1), BuildingBlock: MIFKUJ_clean_linker_0, # of connection points: 2
#     Edge 74, Type (0, 1), BuildingBlock: MIFKUJ_clean_linker_0, # of connection points: 2
#     Edge 75, Type (0, 1), BuildingBlock: MIFKUJ_clean_linker_0, # of connection points: 2
#     Edge 76, Type (0, 1), BuildingBlock: MIFKUJ_clean_linker_0, # of connection points: 2
#     Edge 77, Type (0, 1), BuildingBlock: MIFKUJ_clean_linker_0, # of connection points: 2
#     Edge 78, Type (0, 1), BuildingBlock: MIFKUJ_clean_linker_0, # of connection points: 2
#     Edge 79, Type (0, 1), BuildingBlock: MIFKUJ_clean_linker_0, # of connection points: 2
#     Edge 80, Type (0, 1), BuildingBlock: MIFKUJ_clean_linker_0, # of connection points: 2
#     Edge 81, Type (0, 1), BuildingBlock: MIFKUJ_clean_linker_0, # of connection points: 2
#     Edge 82, Type (0, 1), BuildingBlock: MIFKUJ_clean_linker_0, # of connection points: 2
#     Edge 83, Type (0, 1), BuildingBlock: MIFKUJ_clean_linker_0, # of connection points: 2
#     Edge 84, Type (0, 1), BuildingBlock: MIFKUJ_clean_linker_0, # of connection points: 2
#     Edge 85, Type (0, 1), BuildingBlock: MIFKUJ_clean_linker_0, # of connection points: 2
#     Edge 86, Type (0, 1), BuildingBlock: MIFKUJ_clean_linker_0, # of connection points: 2
#     Edge 87, Type (0, 1), BuildingBlock: MIFKUJ_clean_linker_0, # of connection points: 2
#     Edge 88, Type (0, 1), BuildingBlock: MIFKUJ_clean_linker_0, # of connection points: 2
#     Edge 89, Type (0, 1), BuildingBlock: MIFKUJ_clean_linker_0, # of connection points: 2
#     Edge 90, Type (0, 1), BuildingBlock: MIFKUJ_clean_linker_0, # of connection points: 2
#     Edge 91, Type (0, 1), BuildingBlock: MIFKUJ_clean_linker_0, # of connection points: 2
#     Edge 92, Type (0, 1), BuildingBlock: MIFKUJ_clean_linker_0, # of connection points: 2
#     Edge 93, Type (0, 1), BuildingBlock: MIFKUJ_clean_linker_0, # of connection points: 2
#     Edge 94, Type (0, 1), BuildingBlock: MIFKUJ_clean_linker_0, # of connection points: 2
#     Edge 95, Type (0, 1), BuildingBlock: MIFKUJ_clean_linker_0, # of connection points: 2
#     Edge 96, Type (0, 1), BuildingBlock: MIFKUJ_clean_linker_0, # of connection points: 2
#     Edge 97, Type (0, 1), BuildingBlock: MIFKUJ_clean_linker_0, # of connection points: 2
#     Edge 98, Type (0, 1), BuildingBlock: MIFKUJ_clean_linker_0, # of connection points: 2
#     Edge 99, Type (0, 1), BuildingBlock: MIFKUJ_clean_linker_0, # of connection points: 2
#     Edge 100, Type (0, 1), BuildingBlock: MIFKUJ_clean_linker_0, # of connection points: 2
#     Edge 101, Type (0, 1), BuildingBlock: MIFKUJ_clean_linker_0, # of connection points: 2
#     Edge 102, Type (0, 1), BuildingBlock: MIFKUJ_clean_linker_0, # of connection points: 2
#     Edge 103, Type (0, 1), BuildingBlock: MIFKUJ_clean_linker_0, # of connection points: 2
#     Edge 104, Type (0, 1), BuildingBlock: MIFKUJ_clean_linker_0, # of connection points: 2
#     Edge 105, Type (0, 1), BuildingBlock: MIFKUJ_clean_linker_0, # of connection points: 2
#     Edge 106, Type (0, 1), BuildingBlock: MIFKUJ_clean_linker_0, # of connection points: 2
#     Edge 107, Type (0, 1), BuildingBlock: MIFKUJ_clean_linker_0, # of connection points: 2
#     Edge 108, Type (0, 1), BuildingBlock: MIFKUJ_clean_linker_0, # of connection points: 2
#     Edge 109, Type (0, 1), BuildingBlock: MIFKUJ_clean_linker_0, # of connection points: 2
#     Edge 110, Type (0, 1), BuildingBlock: MIFKUJ_clean_linker_0, # of connection points: 2
#     Edge 111, Type (0, 1), BuildingBlock: MIFKUJ_clean_linker_0, # of connection points: 2
#     Edge 112, Type (0, 1), BuildingBlock: MIFKUJ_clean_linker_0, # of connection points: 2
#     Edge 113, Type (0, 1), BuildingBlock: MIFKUJ_clean_linker_0, # of connection points: 2
#     Edge 114, Type (0, 1), BuildingBlock: MIFKUJ_clean_linker_0, # of connection points: 2
#     Edge 115, Type (0, 1), BuildingBlock: MIFKUJ_clean_linker_0, # of connection points: 2
#     Edge 116, Type (0, 1), BuildingBlock: MIFKUJ_clean_linker_0, # of connection points: 2
#     Edge 117, Type (0, 1), BuildingBlock: MIFKUJ_clean_linker_0, # of connection points: 2
#     Edge 118, Type (0, 1), BuildingBlock: MIFKUJ_clean_linker_0, # of connection points: 2
#     Edge 119, Type (0, 1), BuildingBlock: MIFKUJ_clean_linker_0, # of connection points: 2
#     Edge 120, Type (0, 1), BuildingBlock: MIFKUJ_clean_linker_0, # of connection points: 2
#     Edge 121, Type (0, 1), BuildingBlock: MIFKUJ_clean_linker_0, # of connection points: 2
#     Edge 122, Type (0, 1), BuildingBlock: MIFKUJ_clean_linker_0, # of connection points: 2
#     Edge 123, Type (0, 1), BuildingBlock: MIFKUJ_clean_linker_0, # of connection points: 2
#     Edge 124, Type (0, 1), BuildingBlock: MIFKUJ_clean_linker_0, # of connection points: 2
#     Edge 125, Type (0, 1), BuildingBlock: MIFKUJ_clean_linker_0, # of connection points: 2
#     Edge 126, Type (0, 1), BuildingBlock: MIFKUJ_clean_linker_0, # of connection points: 2
#     Edge 127, Type (0, 1), BuildingBlock: MIFKUJ_clean_linker_0, # of connection points: 2
#     Edge 128, Type (0, 1), BuildingBlock: MIFKUJ_clean_linker_0, # of connection points: 2
#     Edge 129, Type (0, 1), BuildingBlock: MIFKUJ_clean_linker_0, # of connection points: 2
#     Edge 130, Type (0, 1), BuildingBlock: MIFKUJ_clean_linker_0, # of connection points: 2
#     Edge 131, Type (0, 1), BuildingBlock: MIFKUJ_clean_linker_0, # of connection points: 2
#     Edge 132, Type (0, 1), BuildingBlock: MIFKUJ_clean_linker_0, # of connection points: 2
#     Edge 133, Type (0, 1), BuildingBlock: MIFKUJ_clean_linker_0, # of connection points: 2
#     Edge 134, Type (0, 1), BuildingBlock: MIFKUJ_clean_linker_0, # of connection points: 2
#     Edge 135, Type (0, 1), BuildingBlock: MIFKUJ_clean_linker_0, # of connection points: 2
# Relax obj value: 0.179
# Max RMSD: 0.276
# Mean RMSD: 0.179
data_MOF--net-gar--node1-AZAVOO_clean_sbu_0--node2-BETDIP_clean_sbu_0--edge1-MIFKUJ_clean_linker_0
_symmetry_space_group_name_H-M    P1
_symmetry_Int_Tables_number       1
_symmetry_cell_setting            triclinic
loop_
_symmetry_equiv_pos_as_xyz
'x, y, z'
_cell_length_a     80.839096
_cell_length_b     72.366413
_cell_length_c     71.16197
_cell_angle_alpha  99.324695
_cell_angle_beta   97.947151
_cell_angle_gamma 101.3445
loop_
_atom_site_label
_atom_site_type_symbol
_atom_site_fract_x
_atom_site_fract_y
_atom_site_fract_z
_atom_type_partial_charge
Mg0 Mg 0.01102 0.27554 0.3547 0.0
O1 O 0.00806 0.30065 0.37713 0.0
O2 O 0.98046 0.29481 0.38066 0.0
Mg3 Mg 0.96627 0.26641 0.36107 0.0
C4 C 0.99566 0.30514 0.38481 0.0
C5 C 0.04263 0.28023 0.34257 0.0
O6 O 0.02969 0.27046 0.32907 0.0
O7 O 0.01062 0.25694 0.37735 0.0
O8 O 0.98276 0.25154 0.37947 0.0
O9 O 0.00376 0.29098 0.33155 0.0
O10 O 0.98566 0.26993 0.34275 0.0
C11 C 0.99789 0.24921 0.38442 0.0
C12 C 0.98824 0.28222 0.33171 0.0
O13 O 0.03981 0.28516 0.3596 0.0
Mg14 Mg 0.04066 0.75979 0.68394 0.0
O15 O 0.03661 0.73184 0.66233 0.0
O16 O 0.01126 0.72791 0.64329 0.0
Mg17 Mg 0.9982 0.75146 0.65533 0.0
C18 C 0.0252 0.72266 0.64791 0.0
C19 C 0.07678 0.77389 0.70445 0.0
O20 O 0.06854 0.78504 0.71411 0.0
O21 O 0.04454 0.77646 0.6605 0.0
O22 O 0.01785 0.77302 0.64477 0.0
O23 O 0.02955 0.74444 0.70525 0.0
O24 O 0.01511 0.75701 0.68361 0.0
C25 C 0.03396 0.78022 0.64748 0.0
C26 C 0.01522 0.74786 0.69767 0.0
O27 O 0.06853 0.76093 0.69026 0.0
Mg28 Mg 0.51203 0.7788 0.85425 0.0
O29 O 0.50839 0.80383 0.8764 0.0
O30 O 0.48145 0.79623 0.88188 0.0
Mg31 Mg 0.46807 0.76707 0.86347 0.0
C32 C 0.49618 0.80759 0.88492 0.0
C33 C 0.54359 0.78787 0.8408 0.0
O34 O 0.53084 0.77908 0.82667 0.0
O35 O 0.51422 0.76119 0.87771 0.0
O36 O 0.48683 0.75482 0.88192 0.0
O37 O 0.50212 0.7925 0.83071 0.0
O38 O 0.48624 0.77104 0.84371 0.0
C39 C 0.5024 0.7536 0.88612 0.0
C40 C 0.48723 0.78271 0.83189 0.0
O41 O 0.54061 0.79054 0.85798 0.0
Mg42 Mg 0.54112 0.25914 0.1837 0.0
O43 O 0.53775 0.23276 0.16037 0.0
O44 O 0.51337 0.22926 0.13981 0.0
Mg45 Mg 0.50103 0.2537 0.15093 0.0
C46 C 0.52701 0.2238 0.1453 0.0
C47 C 0.57406 0.26157 0.21002 0.0
O48 O 0.56456 0.26756 0.22223 0.0
O49 O 0.5482 0.27818 0.16296 0.0
O50 O 0.52314 0.27526 0.14368 0.0
O51 O 0.52775 0.24173 0.20175 0.0
O52 O 0.51511 0.25626 0.18051 0.0
C53 C 0.53921 0.28247 0.14888 0.0
C54 C 0.51386 0.24521 0.19303 0.0
O55 O 0.56812 0.25752 0.19208 0.0
Mg56 Mg 0.05375 0.79391 0.14708 0.0
O57 O 0.05003 0.76526 0.1254 0.0
O58 O 0.02344 0.75862 0.10832 0.0
Mg59 Mg 0.00976 0.78241 0.11814 0.0
C60 C 0.03798 0.75449 0.11238 0.0
C61 C 0.08709 0.78263 0.16552 0.0
O62 O 0.07451 0.77055 0.16996 0.0
O63 O 0.0564 0.81279 0.12306 0.0
O64 O 0.02866 0.80603 0.1097 0.0
O65 O 0.0411 0.77863 0.16902 0.0
O66 O 0.02667 0.78915 0.14631 0.0
C67 C 0.04396 0.81577 0.11144 0.0
C68 C 0.02646 0.78046 0.16062 0.0
O69 O 0.08321 0.79467 0.1553 0.0
Mg70 Mg 0.50317 0.74431 0.4003 0.0
O71 O 0.50593 0.7722 0.42307 0.0
O72 O 0.48225 0.76804 0.43627 0.0
Mg73 Mg 0.46439 0.73885 0.42264 0.0
C74 C 0.49663 0.77829 0.43481 0.0
C75 C 0.53579 0.76016 0.38316 0.0
O76 O 0.52337 0.76399 0.37153 0.0
O77 O 0.50842 0.72602 0.42359 0.0
O78 O 0.4836 0.72201 0.43452 0.0
O79 O 0.48885 0.7569 0.37764 0.0
O80 O 0.47612 0.74003 0.39676 0.0
C81 C 0.49845 0.71848 0.43418 0.0
C82 C 0.4749 0.75006 0.38351 0.0
O83 O 0.53202 0.75237 0.39733 0.0
Mg84 Mg 0.55235 0.29456 0.64725 0.0
O85 O 0.5482 0.26586 0.6256 0.0
O86 O 0.52227 0.2604 0.60747 0.0
Mg87 Mg 0.50916 0.28473 0.61745 0.0
C88 C 0.53639 0.25548 0.61206 0.0
C89 C 0.58562 0.28506 0.66841 0.0
O90 O 0.57334 0.27603 0.67612 0.0
O91 O 0.556 0.31329 0.62345 0.0
O92 O 0.52884 0.30712 0.60807 0.0
O93 O 0.53873 0.27906 0.66831 0.0
O94 O 0.52553 0.29131 0.64605 0.0
C95 C 0.54447 0.31618 0.61058 0.0
C96 C 0.52455 0.28215 0.65998 0.0
O97 O 0.58151 0.29438 0.65537 0.0
Mg98 Mg 1.00311 0.24386 0.89918 0.0
O99 O 0.00619 0.27202 0.92162 0.0
O100 O 0.98252 0.26813 0.93485 0.0
Mg101 Mg 0.96485 0.2386 0.9222 0.0
C102 C 0.99684 0.27833 0.93316 0.0
C103 C 0.03805 0.26593 0.88877 0.0
O104 O 0.02833 0.27776 0.8845 0.0
O105 O 0.00912 0.22631 0.92281 0.0
O106 O 0.98431 0.22201 0.93372 0.0
O107 O 0.9883 0.25621 0.87665 0.0
O108 O 0.97605 0.23923 0.89592 0.0
C109 C 0.99921 0.21865 0.93338 0.0
C110 C 0.97443 0.24913 0.88261 0.0
O111 O 0.03171 0.25147 0.89568 0.0
Mg112 Mg 0.4137 0.04481 0.2638 0.0
O113 O 0.39331 0.01436 0.26059 0.0
O114 O 0.3804 0.01818 0.28636 0.0
Mg115 Mg 0.39246 0.04748 0.30719 0.0
C116 C 0.38235 0.00773 0.27084 0.0
C117 C 0.43582 0.03804 0.22771 0.0
O118 O 0.44732 0.04013 0.24333 0.0
O119 O 0.39304 0.06599 0.259 0.0
O120 O 0.38413 0.06801 0.28741 0.0
O121 O 0.43448 0.03377 0.28256 0.0
O122 O 0.4165 0.04787 0.29567 0.0
C123 C 0.38464 0.07369 0.27132 0.0
C124 C 0.4291 0.03959 0.29824 0.0
O125 O 0.4204 0.03885 0.23031 0.0
Mg126 Mg 0.26506 0.14414 0.49639 0.0
O127 O 0.26828 0.16514 0.52559 0.0
O128 O 0.29385 0.18535 0.53036 0.0
Mg129 Mg 0.30788 0.17674 0.50557 0.0
C130 C 0.27963 0.17944 0.53572 0.0
C131 C 0.23082 0.12335 0.50804 0.0
O132 O 0.24268 0.11806 0.51917 0.0
O133 O 0.2619 0.16741 0.47779 0.0
O134 O 0.28875 0.18514 0.48325 0.0
O135 O 0.27787 0.12371 0.51112 0.0
O136 O 0.29212 0.14712 0.49963 0.0
C137 C 0.27318 0.18117 0.47459 0.0
C138 C 0.29247 0.13299 0.50842 0.0
O139 O 0.23559 0.13453 0.49668 0.0
Mg140 Mg 0.12875 0.03482 0.80106 0.0
O141 O 0.14856 0.06285 0.80273 0.0
O142 O 0.16813 0.06709 0.82929 0.0
Mg143 Mg 0.16005 0.04247 0.84515 0.0
C144 C 0.16238 0.07237 0.81388 0.0
C145 C 0.11436 0.02009 0.75733 0.0
O146 O 0.11657 1.00392 0.76231 0.0
O147 O 0.14771 0.0172 0.79245 0.0
O148 O 0.16561 0.02084 0.82045 0.0
O149 O 0.11236 0.04938 0.81815 0.0
O150 O 0.13292 0.03672 0.83091 0.0
C151 C 0.16047 0.01334 0.8025 0.0
C152 C 0.12056 0.04522 0.83331 0.0
O153 O 0.11856 0.03549 0.77 0.0
Mg154 Mg 0.25488 0.86708 0.02979 0.0
O155 O 0.25527 0.85641 0.998 0.0
O156 O 0.27912 0.84552 0.99574 0.0
Mg157 Mg 0.29263 0.84679 0.02611 0.0
C158 C 0.26531 0.8494 0.98808 0.0
C159 C 0.22347 0.8771 0.00776 0.0
O160 O 0.23488 0.88204 0.99696 0.0
O161 O 0.24556 0.83661 0.0327 0.0
O162 O 0.26929 0.82556 0.03095 0.0
O163 O 0.27041 0.89559 0.02882 0.0
O164 O 0.28139 0.8712 0.03563 0.0
C165 C 0.25352 0.82311 0.0327 0.0
C166 C 0.28369 0.88832 0.03202 0.0
O167 O 0.22774 0.8699 0.02231 0.0
Mg168 Mg 0.30073 0.39575 0.05101 0.0
O169 O 0.29688 0.37281 0.0228 0.0
O170 O 0.31938 0.35912 0.02605 0.0
Mg171 Mg 0.33815 0.37359 0.05414 0.0
C172 C 0.30532 0.36062 0.0164 0.0
C173 C 0.2655 0.40283 0.02924 0.0
O174 O 0.2742 0.403 0.01496 0.0
O175 O 0.2944 0.37271 0.07015 0.0
O176 O 0.31904 0.363 0.07323 0.0
O177 O 0.31593 0.41826 0.03736 0.0
O178 O 0.32771 0.39922 0.05326 0.0
C179 C 0.3043 0.36304 0.07778 0.0
C180 C 0.32957 0.41252 0.04326 0.0
O181 O 0.27242 0.3994 0.04517 0.0
Mg182 Mg 0.80578 0.17827 0.02684 0.0
O183 O 0.79431 0.17574 0.05412 0.0
O184 O 0.82181 0.18531 0.065 0.0
Mg185 Mg 0.8488 0.19166 0.05912 0.0
C186 C 0.80664 0.18176 0.06836 0.0
C187 C 0.76558 0.17549 0.00364 0.0
O188 O 0.75713 0.18196 0.98993 0.0
O189 O 0.81413 0.21019 0.03969 0.0
O190 O 0.84213 0.21348 0.04083 0.0
O191 O 0.80758 0.14754 0.01941 0.0
O192 O 0.82742 0.17018 0.03941 0.0
C193 C 0.82838 0.21934 0.03684 0.0
C194 C 0.82265 0.1528 0.03013 0.0
O195 O 0.78176 0.18163 0.0078 0.0
Mg196 Mg 0.15147 0.49632 0.28427 0.0
O197 O 0.17103 0.52652 0.28699 0.0
O198 O 0.19009 0.53122 0.31397 0.0
Mg199 Mg 0.18174 0.50621 0.33034 0.0
C200 C 0.18437 0.53686 0.29871 0.0
C201 C 0.12552 0.49153 0.24167 0.0
O202 O 0.1144 0.48319 0.25125 0.0
O203 O 0.17134 0.47459 0.27969 0.0
O204 O 0.18787 0.48106 0.30891 0.0
O205 O 0.13335 0.51019 0.30201 0.0
O206 O 0.15396 0.49953 0.31631 0.0
C207 C 0.18332 0.47093 0.29175 0.0
C208 C 0.14108 0.50737 0.31807 0.0
O209 O 0.14127 0.4974 0.2503 0.0
Mg210 Mg 0.79979 0.89501 0.55045 0.0
O211 O 0.79559 0.87252 0.52181 0.0
O212 O 0.81858 0.85952 0.52359 0.0
Mg213 Mg 0.83607 0.87105 0.55298 0.0
C214 C 0.80439 0.86124 0.51447 0.0
C215 C 0.76638 0.90601 0.52941 0.0
O216 O 0.77677 0.90976 0.51717 0.0
O217 O 0.79246 0.87175 0.56877 0.0
O218 O 0.81558 0.85907 0.57016 0.0
O219 O 0.81609 0.91705 0.53724 0.0
O220 O 0.82679 0.89768 0.55369 0.0
C221 C 0.80106 0.86014 0.57489 0.0
C222 C 0.82937 0.91091 0.54366 0.0
O223 O 0.77169 0.89919 0.54398 0.0
Mg224 Mg 0.93624 0.00696 0.25502 0.0
O225 O 0.91637 0.97865 0.25498 0.0
O226 O 0.90737 0.98426 0.28334 0.0
Mg227 Mg 0.91931 0.01418 0.30049 0.0
C228 C 0.9073 0.97325 0.26738 0.0
C229 C 0.9531 0.99996 0.21973 0.0
O230 O 0.96552 1.00314 0.23466 0.0
O231 O 0.91492 0.02265 0.24847 0.0
O232 O 0.90619 0.02682 0.27707 0.0
O233 O 0.95757 0.99661 0.27113 0.0
O234 O 0.94072 0.01289 0.28507 0.0
C235 C 0.90531 0.02897 0.25957 0.0
C236 C 0.953 1.00408 0.28684 0.0
O237 O 0.93787 0.99924 0.22283 0.0
Mg238 Mg 0.31933 0.68444 0.53433 0.0
O239 O 0.32383 0.68577 0.56639 0.0
O240 O 0.34772 0.70929 0.57379 0.0
Mg241 Mg 0.36319 0.70806 0.54874 0.0
C242 C 0.33464 0.69913 0.57852 0.0
C243 C 0.28222 0.6827 0.54488 0.0
O244 O 0.29045 0.69236 0.56195 0.0
O245 O 0.32294 0.71644 0.54255 0.0
O246 O 0.34634 0.72314 0.53042 0.0
O247 O 0.32333 0.65512 0.52702 0.0
O248 O 0.34418 0.68133 0.53559 0.0
C249 C 0.33116 0.72511 0.53149 0.0
C250 C 0.33954 0.66297 0.53014 0.0
O251 O 0.29057 0.67905 0.53144 0.0
Mg252 Mg 0.43812 0.50797 0.75583 0.0
O253 O 0.41871 0.47951 0.75583 0.0
O254 O 0.4133 0.4819 0.78609 0.0
Mg255 Mg 0.42686 0.51117 0.80442 0.0
C256 C 0.41136 0.47258 0.7688 0.0
C257 C 0.44725 0.49352 0.71591 0.0
O258 O 0.45676 0.48556 0.72723 0.0
O259 O 0.41659 0.5241 0.75446 0.0
O260 O 0.41131 0.52597 0.78474 0.0
O261 O 0.46052 0.4964 0.76798 0.0
O262 O 0.44563 0.51274 0.78534 0.0
C263 C 0.40854 0.52967 0.76778 0.0
C264 C 0.45784 0.50394 0.78473 0.0
O265 O 0.43661 0.50221 0.72296 0.0
Mg266 Mg 0.65176 0.99622 0.78534 0.0
O267 O 0.6718 0.02612 0.78777 0.0
O268 O 0.69006 0.03101 0.81536 0.0
Mg269 Mg 0.68192 0.00542 0.8311 0.0
C270 C 0.6848 0.03662 0.79991 0.0
C271 C 0.62613 0.99934 0.74578 0.0
O272 O 0.61625 1.00071 0.75889 0.0
O273 O 0.67118 0.97398 0.78041 0.0
O274 O 0.68807 0.98047 0.80941 0.0
O275 O 0.63454 0.01129 0.80379 0.0
O276 O 0.65406 0.99855 0.81727 0.0
C277 C 0.6833 0.97031 0.79227 0.0
C278 C 0.6418 0.00727 0.81949 0.0
O279 O 0.64136 0.99707 0.75134 0.0
Mg280 Mg 0.76326 0.6433 0.99605 0.0
O281 O 0.7673 0.66523 0.02485 0.0
O282 O 0.79337 0.68425 0.02887 0.0
Mg283 Mg 0.80644 0.67508 0.00347 0.0
C284 C 0.77921 0.67917 0.03468 0.0
C285 C 0.72922 0.62102 0.00712 0.0
O286 O 0.74117 0.61406 0.01618 0.0
O287 O 0.75995 0.6661 0.97677 0.0
O288 O 0.78692 0.68346 0.98166 0.0
O289 O 0.77655 0.62341 0.01135 0.0
O290 O 0.79019 0.64588 0.99827 0.0
C291 C 0.77128 0.67966 0.97329 0.0
C292 C 0.79091 0.63227 0.00769 0.0
O293 O 0.73385 0.63389 0.99735 0.0
Mg294 Mg 0.91358 0.54327 0.76348 0.0
O295 O 0.89245 0.51323 0.76012 0.0
O296 O 0.88066 0.51744 0.78666 0.0
Mg297 Mg 0.89187 0.54744 0.80635 0.0
C298 C 0.8821 0.50672 0.77106 0.0
C299 C 0.93593 0.53853 0.72724 0.0
O300 O 0.94788 0.54376 0.74279 0.0
O301 O 0.89362 0.56479 0.75823 0.0
O302 O 0.88262 0.56695 0.78545 0.0
O303 O 0.93348 0.53153 0.78267 0.0
O304 O 0.9163 0.5472 0.7955 0.0
C305 C 0.88406 0.57214 0.76928 0.0
C306 C 0.92835 0.53812 0.79828 0.0
O307 O 0.92021 0.53671 0.72995 0.0
Mg308 Mg 0.75066 0.37413 0.52703 0.0
O309 O 0.75255 0.35731 0.4978 0.0
O310 O 0.77695 0.34708 0.50086 0.0
Mg311 Mg 0.78949 0.35509 0.5323 0.0
C312 C 0.76318 0.34857 0.49069 0.0
C313 C 0.71023 0.36451 0.50893 0.0
O314 O 0.70901 0.34637 0.51005 0.0
O315 O 0.74106 0.34617 0.53647 0.0
O316 O 0.76566 0.3363 0.53857 0.0
O317 O 0.76657 0.39992 0.52051 0.0
O318 O 0.77696 0.37915 0.53571 0.0
C319 C 0.74972 0.33369 0.5395 0.0
C320 C 0.77965 0.3939 0.52769 0.0
O321 O 0.7244 0.37659 0.51481 0.0
Mg322 Mg 0.62928 0.53228 0.29805 0.0
O323 O 0.64866 0.56097 0.30082 0.0
O324 O 0.66843 0.56351 0.32691 0.0
Mg325 Mg 0.66047 0.53857 0.34218 0.0
C326 C 0.66264 0.56976 0.31214 0.0
C327 C 0.60324 0.52805 0.26094 0.0
O328 O 0.59296 0.52339 0.27303 0.0
O329 O 0.64869 0.51563 0.28887 0.0
O330 O 0.66645 0.51847 0.31681 0.0
O331 O 0.6126 0.54593 0.31576 0.0
O332 O 0.6337 0.5335 0.32753 0.0
C333 C 0.66158 0.51179 0.29869 0.0
C334 C 0.62134 0.54175 0.33056 0.0
O335 O 0.6193 0.53299 0.26702 0.0
Tb336 Tb 0.01121 0.00842 0.01077 0.0
Tb337 Tb 0.04853 0.02561 0.02674 0.0
C338 C 0.97933 1.00217 0.00369 0.0
C339 C 0.96795 0.01571 0.00436 0.0
C340 C 0.95814 0.01706 0.01909 0.0
C341 C 0.94876 0.03125 0.02117 0.0
C342 C 0.94903 0.04425 0.00849 0.0
C343 C 0.95854 0.04266 0.9935 0.0
C344 C 0.96794 0.02852 0.99144 0.0
C345 C 0.03266 1.00186 0.98695 0.0
C346 C 0.02607 0.05318 0.01228 0.0
C347 C 0.08023 0.03752 0.031 0.0
C348 C 0.09324 0.02647 0.03483 0.0
C349 C 0.08879 0.00646 0.02851 0.0
C350 C 0.10052 0.99539 0.03226 0.0
C351 C 0.11712 1.00414 0.04205 0.0
C352 C 0.12184 0.0242 0.04825 0.0
C353 C 0.10981 0.03535 0.04486 0.0
C354 C 0.02905 0.02121 0.05297 0.0
C355 C 0.03349 0.98206 0.02677 0.0
O356 O 0.9879 1.00133 0.02047 0.0
O357 O 0.98883 1.00255 0.99021 0.0
O358 O 0.03347 0.01691 0.99888 0.0
O359 O 0.01837 0.98999 0.98691 0.0
O360 O 0.01273 0.03829 0.00734 0.0
O361 O 0.04119 0.05179 0.02103 0.0
O362 O 0.0703 0.03134 0.01407 0.0
O363 O 0.07156 0.04092 0.04493 0.0
O364 O 0.02505 0.02644 0.03721 0.0
O365 O 0.0448 0.01943 0.05494 0.0
O366 O 0.0469 0.99462 0.02418 0.0
O367 O 0.01801 0.98567 0.02473 0.0
H368 H 0.95799 0.00738 0.02924 0.0
H369 H 0.94124 0.03201 0.03263 0.0
H370 H 0.95898 0.0526 0.98362 0.0
H371 H 0.97549 0.02799 0.98001 0.0
H372 H 0.07635 0.9993 0.02021 0.0
H373 H 0.09679 0.98001 0.02682 0.0
H374 H 0.13476 0.03114 0.05558 0.0
H375 H 0.11345 0.05079 0.04981 0.0
Tb376 Tb 0.28688 0.76111 0.25568 0.0
Tb377 Tb 0.27949 0.77759 0.29424 0.0
C378 C 0.29207 0.75475 0.22184 0.0
C379 C 0.30115 0.76776 0.21095 0.0
C380 C 0.29501 0.78372 0.20682 0.0
C381 C 0.30329 0.7955 0.19583 0.0
C382 C 0.31799 0.79168 0.18878 0.0
C383 C 0.32506 0.77682 0.19463 0.0
C384 C 0.31657 0.7648 0.20542 0.0
C385 C 0.30911 0.75937 0.2857 0.0
C386 C 0.29786 0.80739 0.27143 0.0
C387 C 0.28147 0.785 0.32993 0.0
C388 C 0.27163 0.77461 0.34238 0.0
C389 C 0.27333 0.75601 0.34425 0.0
C390 C 0.26426 0.74626 0.35621 0.0
C391 C 0.25313 0.75476 0.3665 0.0
C392 C 0.25077 0.77298 0.36387 0.0
C393 C 0.26002 0.78286 0.35196 0.0
C394 C 0.25173 0.7738 0.26762 0.0
C395 C 0.26583 0.73232 0.27676 0.0
O396 O 0.27752 0.75804 0.22617 0.0
O397 O 0.30181 0.75104 0.23633 0.0
O398 O 0.30232 0.77344 0.28359 0.0
O399 O 0.3031 0.74565 0.27078 0.0
O400 O 0.29716 0.79243 0.25744 0.0
O401 O 0.29186 0.80499 0.28751 0.0
O402 O 0.29176 0.77589 0.32142 0.0
O403 O 0.27289 0.79352 0.31832 0.0
O404 O 0.26585 0.76974 0.26536 0.0
O405 O 0.25273 0.77985 0.28594 0.0
O406 O 0.27112 0.74608 0.29253 0.0
O407 O 0.26852 0.73581 0.25956 0.0
H408 H 0.28344 0.78676 0.21143 0.0
H409 H 0.2972 0.80661 0.19163 0.0
H410 H 0.33653 0.7737 0.18984 0.0
H411 H 0.32182 0.75289 0.20903 0.0
H412 H 0.28198 0.74905 0.33686 0.0
H413 H 0.2668 0.73249 0.35818 0.0
H414 H 0.24224 0.77986 0.37154 0.0
H415 H 0.2583 0.79706 0.35047 0.0
Tb416 Tb 0.54664 0.02239 0.51618 0.0
Tb417 Tb 0.5127 0.01862 0.52658 0.0
C418 C 0.57681 0.01937 0.51258 0.0
C419 C 0.58826 0.00553 0.51328 0.0
C420 C 0.5973 1.00354 0.53095 0.0
C421 C 0.60975 0.99246 0.5313 0.0
C422 C 0.61358 0.98312 0.514 0.0
C423 C 0.60411 0.98465 0.49636 0.0
C424 C 0.5917 0.99574 0.49602 0.0
C425 C 0.52325 0.02808 0.48813 0.0
C426 C 0.52278 0.98085 0.51115 0.0
C427 C 0.48261 0.02063 0.53151 0.0
C428 C 0.4699 0.03284 0.53175 0.0
C429 C 0.4709 0.04875 0.52259 0.0
C430 C 0.45782 0.05908 0.52237 0.0
C431 C 0.44348 0.05357 0.53119 0.0
C432 C 0.44294 0.03796 0.54075 0.0
C433 C 0.45594 0.02776 0.54099 0.0
C434 C 0.53623 0.01262 0.55435 0.0
C435 C 0.5363 0.06007 0.53079 0.0
O436 O 0.57255 0.02668 0.52875 0.0
O437 O 0.56401 0.01554 0.49811 0.0
O438 O 0.52092 0.01571 0.49892 0.0
O439 O 0.53926 0.03697 0.49261 0.0
O440 O 0.53853 0.99146 0.51449 0.0
O441 O 0.50956 0.98869 0.51315 0.0
O442 O 0.48656 0.01416 0.51486 0.0
O443 O 0.49593 0.02552 0.54541 0.0
O444 O 0.5384 0.02521 0.54381 0.0
O445 O 0.52029 1.00363 0.54974 0.0
O446 O 0.52054 0.04942 0.52702 0.0
O447 O 0.54963 0.05223 0.52977 0.0
H448 H 0.59518 0.01102 0.54456 0.0
H449 H 0.61685 0.99188 0.54518 0.0
H450 H 0.60642 0.97745 0.48273 0.0
H451 H 0.58511 0.99706 0.48214 0.0
H452 H 0.4816 0.05298 0.51538 0.0
H453 H 0.45869 0.07099 0.51483 0.0
H454 H 0.43238 0.03352 0.54808 0.0
H455 H 0.45494 0.01563 0.54824 0.0
Tb456 Tb 0.26373 0.27393 0.77176 0.0
Tb457 Tb 0.29962 0.26558 0.7753 0.0
C458 C 0.23329 0.27528 0.77476 0.0
C459 C 0.22139 0.27513 0.78897 0.0
C460 C 0.20935 0.25824 0.78897 0.0
C461 C 0.19646 0.25857 0.80024 0.0
C462 C 0.19523 0.27579 0.81182 0.0
C463 C 0.20767 0.29257 0.81233 0.0
C464 C 0.22053 0.29226 0.80101 0.0
C465 C 0.28775 0.30031 0.76364 0.0
C466 C 0.28679 0.28137 0.81366 0.0
C467 C 0.33154 0.26824 0.7783 0.0
C468 C 0.34447 0.26562 0.76563 0.0
C469 C 0.35388 0.28175 0.76008 0.0
C470 C 0.36687 0.28007 0.74925 0.0
C471 C 0.37096 0.2622 0.74364 0.0
C472 C 0.36151 0.24598 0.7491 0.0
C473 C 0.34844 0.24767 0.75998 0.0
C474 C 0.27383 0.23578 0.77214 0.0
C475 C 0.27661 0.2577 0.73445 0.0
O476 O 0.23805 0.25928 0.76889 0.0
O477 O 0.24578 0.29051 0.77713 0.0
O478 O 0.28932 0.29054 0.77659 0.0
O479 O 0.27187 0.29605 0.75504 0.0
O480 O 0.27232 0.28233 0.80294 0.0
O481 O 0.2991 0.2746 0.80616 0.0
O482 O 0.32396 0.28234 0.77625 0.0
O483 O 0.32089 0.25307 0.78093 0.0
O484 O 0.2754 0.25253 0.78137 0.0
O485 O 0.2876 0.23486 0.76489 0.0
O486 O 0.29241 0.26401 0.74433 0.0
O487 O 0.26299 0.25722 0.74297 0.0
H488 H 0.20952 0.24485 0.77972 0.0
H489 H 0.18702 0.24546 0.79925 0.0
H490 H 0.20735 0.30606 0.82129 0.0
H491 H 0.2295 0.30561 0.80132 0.0
H492 H 0.35142 0.29588 0.76442 0.0
H493 H 0.37403 0.29298 0.74576 0.0
H494 H 0.3642 0.23195 0.74495 0.0
H495 H 0.34158 0.23497 0.76414 0.0
Tb496 Tb 0.02599 0.03742 0.52866 0.0
Tb497 Tb 0.03264 0.99994 0.5194 0.0
C498 C 0.02747 0.07248 0.53908 0.0
C499 C 0.02597 0.08687 0.52716 0.0
C500 C 0.0315 0.08496 0.50923 0.0
C501 C 0.02823 0.09721 0.49674 0.0
C502 C 0.01937 0.11154 0.50197 0.0
C503 C 0.01407 0.1136 0.52005 0.0
C504 C 0.01732 0.10127 0.53256 0.0
C505 C 0.99798 0.00974 0.52276 0.0
C506 C 0.02065 0.01992 0.4853 0.0
C507 C 0.03213 0.96513 0.50939 0.0
C508 C 0.0351 0.95146 0.52176 0.0
C509 C 0.02953 0.95289 0.53968 0.0
C510 C 0.03439 0.94173 0.55268 0.0
C511 C 0.04489 0.92901 0.54797 0.0
C512 C 0.05035 0.92749 0.53 0.0
C513 C 0.04549 0.93871 0.51696 0.0
C514 C 0.0605 0.02793 0.52521 0.0
C515 C 0.03824 0.01712 0.56271 0.0
O516 O 0.04107 0.06527 0.5386 0.0
O517 O 0.01347 0.05928 0.53729 0.0
O518 O 0.01251 0.00957 0.53192 0.0
O519 O 0.99886 0.02599 0.51718 0.0
O520 O 0.02344 0.03618 0.49781 0.0
O521 O 0.02218 1.00374 0.49077 0.0
O522 O 0.01822 0.97167 0.51043 0.0
O523 O 0.04557 0.97875 0.51007 0.0
O524 O 0.04594 0.02775 0.51595 0.0
O525 O 0.05971 0.01192 0.53127 0.0
O526 O 0.03494 1.00092 0.55006 0.0
O527 O 0.03678 0.03338 0.55726 0.0
H528 H 0.038 0.07373 0.50466 0.0
H529 H 0.03225 0.09514 0.48278 0.0
H530 H 0.00737 0.1247 0.52448 0.0
H531 H 0.01277 0.1027 0.54623 0.0
H532 H 0.02175 0.96292 0.54385 0.0
H533 H 0.03013 0.94324 0.56653 0.0
H534 H 0.05827 0.91756 0.52597 0.0
H535 H 0.05014 0.93774 0.50334 0.0
Tb536 Tb 0.27871 0.74657 0.77321 0.0
Tb537 Tb 0.27939 0.7889 0.78625 0.0
C538 C 0.28383 0.71523 0.75731 0.0
C539 C 0.29724 0.70456 0.76053 0.0
C540 C 0.30127 0.69332 0.74463 0.0
C541 C 0.31348 0.68239 0.7474 0.0
C542 C 0.3218 0.68255 0.76614 0.0
C543 C 0.3181 0.69429 0.78203 0.0
C544 C 0.30597 0.70535 0.77923 0.0
C545 C 0.27642 0.7574 0.80964 0.0
C546 C 0.31415 0.77737 0.78892 0.0
C547 C 0.27434 0.82074 0.80116 0.0
C548 C 0.26319 0.83354 0.7954 0.0
C549 C 0.24624 0.83095 0.79883 0.0
C550 C 0.23615 0.84369 0.79399 0.0
C551 C 0.24284 0.85929 0.78571 0.0
C552 C 0.25965 0.8616 0.78193 0.0
C553 C 0.26973 0.84895 0.78682 0.0
C554 C 0.28059 0.77812 0.74938 0.0
C555 C 0.24412 0.75776 0.772 0.0
O556 O 0.28851 0.73133 0.75137 0.0
O557 O 0.27435 0.71678 0.77074 0.0
O558 O 0.28547 0.76657 0.79986 0.0
O559 O 0.26902 0.74058 0.79941 0.0
O560 O 0.30597 0.76056 0.77801 0.0
O561 O 0.30588 0.78964 0.79703 0.0
O562 O 0.26694 0.8044 0.80516 0.0
O563 O 0.28642 0.81886 0.791 0.0
O564 O 0.27227 0.76879 0.75961 0.0
O565 O 0.28754 0.79513 0.75929 0.0
O566 O 0.25241 0.77437 0.78321 0.0
O567 O 0.25222 0.74592 0.76289 0.0
H568 H 0.29474 0.69272 0.73011 0.0
H569 H 0.31596 0.67329 0.73492 0.0
H570 H 0.32446 0.69477 0.79659 0.0
H571 H 0.30321 0.71425 0.79167 0.0
H572 H 0.24085 0.81927 0.80552 0.0
H573 H 0.2233 0.84167 0.79729 0.0
H574 H 0.26509 0.87331 0.77533 0.0
H575 H 0.28274 0.85139 0.78403 0.0
Tb576 Tb 0.52215 0.02314 0.00831 0.0
Tb577 Tb 0.55222 0.01861 0.03509 0.0
C578 C 0.49304 0.01638 0.98792 0.0
C579 C 0.47618 0.00609 0.99029 0.0
C580 C 0.47445 0.98913 0.99778 0.0
C581 C 0.45842 0.97958 1.00024 0.0
C582 C 0.44393 0.98697 0.99548 0.0
C583 C 0.44569 1.00399 0.98811 0.0
C584 C 0.46173 0.01346 0.98547 0.0
C585 C 0.5436 0.05568 0.02501 0.0
C586 C 0.51861 0.01945 0.05295 0.0
C587 C 0.58139 0.02303 0.05493 0.0
C588 C 0.59881 0.03135 0.05236 0.0
C589 C 0.60225 0.04839 0.04515 0.0
C590 C 0.61886 0.0564 0.0431 0.0
C591 C 0.63234 0.04737 0.04788 0.0
C592 C 0.62881 0.03016 0.05483 0.0
C593 C 0.61215 0.02223 0.05708 0.0
C594 C 0.53043 0.98652 0.01746 0.0
C595 C 0.55591 0.02357 0.99072 0.0
O596 O 0.50418 0.00573 0.98522 0.0
O597 O 0.49968 0.03253 1.00025 0.0
O598 O 0.53937 0.04124 0.03252 0.0
O599 O 0.53474 0.05239 0.00765 0.0
O600 O 0.51082 0.01813 0.03477 0.0
O601 O 0.53541 0.02086 0.05679 0.0
O602 O 0.57144 0.03511 0.05752 0.0
O603 O 0.57351 0.00707 0.04291 0.0
O604 O 0.53537 1.00115 0.0107 0.0
O605 O 0.53866 0.98912 0.03503 0.0
O606 O 0.56358 0.02394 0.00874 0.0
O607 O 0.53919 0.02251 0.98684 0.0
H608 H 0.48549 0.9833 1.00186 0.0
H609 H 0.45741 0.96662 0.00621 0.0
H610 H 0.43464 0.00988 0.98428 0.0
H611 H 0.46288 0.02657 0.97978 0.0
H612 H 0.59214 0.05565 0.04127 0.0
H613 H 0.62117 0.06987 0.03808 0.0
H614 H 0.63889 0.02277 0.05844 0.0
H615 H 0.60968 0.00899 0.06251 0.0
Tb616 Tb 0.26455 0.25605 0.26988 0.0
Tb617 Tb 0.29912 0.28508 0.28304 0.0
C618 C 0.23695 0.23632 0.27414 0.0
C619 C 0.21998 0.24051 0.27275 0.0
C620 C 0.20989 0.23495 0.28621 0.0
C621 C 0.19636 0.24357 0.2895 0.0
C622 C 0.19276 0.25772 0.27925 0.0
C623 C 0.202 0.26228 0.26474 0.0
C624 C 0.21572 0.25382 0.26161 0.0
C625 C 0.27341 0.27136 0.24025 0.0
C626 C 0.26558 0.30227 0.27983 0.0
C627 C 0.32899 0.30352 0.28476 0.0
C628 C 0.34354 0.29678 0.27842 0.0
C629 C 0.34067 0.28117 0.26293 0.0
C630 C 0.35423 0.27345 0.25792 0.0
C631 C 0.37091 0.28137 0.26816 0.0
C632 C 0.37379 0.29705 0.28365 0.0
C633 C 0.36012 0.30467 0.2888 0.0
C634 C 0.28417 0.27239 0.31057 0.0
C635 C 0.29821 0.23892 0.26984 0.0
O636 O 0.24798 0.24797 0.28846 0.0
O637 O 0.24312 0.23359 0.258 0.0
O638 O 0.28149 0.27423 0.25729 0.0
O639 O 0.25942 0.25859 0.23927 0.0
O640 O 0.25648 0.28412 0.27695 0.0
O641 O 0.2826 0.30597 0.28163 0.0
O642 O 0.31633 0.30311 0.27091 0.0
O643 O 0.32374 0.29646 0.29926 0.0
O644 O 0.28468 0.26306 0.29419 0.0
O645 O 0.29286 0.2899 0.31228 0.0
O646 O 0.30728 0.25717 0.27486 0.0
O647 O 0.28113 0.23505 0.26728 0.0
H648 H 0.21327 0.22502 0.29517 0.0
H649 H 0.18917 0.23982 0.30064 0.0
H650 H 0.19931 0.27321 0.25676 0.0
H651 H 0.22367 0.25864 0.2515 0.0
H652 H 0.32791 0.27473 0.25483 0.0
H653 H 0.35163 0.26119 0.24611 0.0
H654 H 0.3866 0.30353 0.29161 0.0
H655 H 0.36245 0.31657 0.30094 0.0
Tb656 Tb 0.52682 0.54135 0.02762 0.0
Tb657 Tb 0.52862 0.49679 0.01897 0.0
C658 C 0.53417 0.57696 0.03152 0.0
C659 C 0.52643 0.58996 0.02148 0.0
C660 C 0.53716 0.60604 0.01764 0.0
C661 C 0.53065 0.61664 0.00497 0.0
C662 C 0.51335 0.61124 0.9961 0.0
C663 C 0.50238 0.59571 1.00062 0.0
C664 C 0.50896 0.58493 0.01314 0.0
C665 C 0.49656 0.51758 0.02618 0.0
C666 C 0.51561 0.51668 0.98496 0.0
C667 C 0.52135 0.46147 0.01718 0.0
C668 C 0.53001 0.44888 0.02726 0.0
C669 C 0.5239 0.44288 0.04332 0.0
C670 C 0.53301 0.43297 0.05457 0.0
C671 C 0.54821 0.42858 0.04973 0.0
C672 C 0.55404 0.43382 0.03328 0.0
C673 C 0.54506 0.44407 0.02216 0.0
C674 C 0.55872 0.52058 0.01951 0.0
C675 C 0.53987 0.52123 0.06155 0.0
O676 O 0.54113 0.56555 0.02043 0.0
O677 O 0.525 0.56806 0.04259 0.0
O678 O 0.51082 0.51388 0.02407 0.0
O679 O 0.49913 0.53618 0.02926 0.0
O680 O 0.52044 0.53409 0.99616 0.0
O681 O 0.51607 0.50052 0.99135 0.0
O682 O 0.51518 0.4736 0.02851 0.0
O683 O 0.52907 0.46938 0.00437 0.0
O684 O 0.54454 0.52425 0.02209 0.0
O685 O 0.55624 0.50197 0.01664 0.0
O686 O 0.536 0.50408 0.05011 0.0
O687 O 0.53842 0.53741 0.05571 0.0
H688 H 0.5507 0.60986 0.02375 0.0
H689 H 0.53921 0.62877 1.0017 0.0
H690 H 0.48901 0.59144 0.99382 0.0
H691 H 0.50059 0.57226 0.01567 0.0
H692 H 0.51228 0.44627 0.04749 0.0
H693 H 0.52813 0.42861 0.067 0.0
H694 H 0.56566 0.43029 0.02929 0.0
H695 H 0.55008 0.4485 0.00986 0.0
Tb696 Tb 0.78146 0.24908 0.2723 0.0
Tb697 Tb 0.78337 0.29136 0.28491 0.0
C698 C 0.7865 0.21727 0.25782 0.0
C699 C 0.79963 0.20646 0.26242 0.0
C700 C 0.80956 0.20153 0.24856 0.0
C701 C 0.82147 0.19044 0.25226 0.0
C702 C 0.82354 0.18402 0.26986 0.0
C703 C 0.81399 0.18945 0.28398 0.0
C704 C 0.80217 0.20066 0.28035 0.0
C705 C 0.77632 0.25968 0.30757 0.0
C706 C 0.81711 0.27839 0.29133 0.0
C707 C 0.77936 0.32406 0.29862 0.0
C708 C 0.76877 0.33731 0.2928 0.0
C709 C 0.75163 0.33497 0.29547 0.0
C710 C 0.74213 0.34825 0.29069 0.0
C711 C 0.74957 0.364 0.28306 0.0
C712 C 0.76661 0.36618 0.2802 0.0
C713 C 0.77613 0.35303 0.2851 0.0
C714 C 0.78762 0.28023 0.24921 0.0
C715 C 0.74757 0.26157 0.26738 0.0
O716 O 0.79163 0.23302 0.25137 0.0
O717 O 0.77623 0.21937 0.27032 0.0
O718 O 0.787 0.26861 0.29924 0.0
O719 O 0.76851 0.24344 0.29654 0.0
O720 O 0.80909 0.262 0.27952 0.0
O721 O 0.80859 0.2907 0.29877 0.0
O722 O 0.77164 0.30825 0.3034 0.0
O723 O 0.79094 0.32114 0.28803 0.0
O724 O 0.77732 0.2717 0.25811 0.0
O725 O 0.79559 0.29659 0.25983 0.0
O726 O 0.75574 0.27815 0.27885 0.0
O727 O 0.75588 0.2493 0.25943 0.0
H728 H 0.80784 0.20591 0.23469 0.0
H729 H 0.82853 0.1862 0.24102 0.0
H730 H 0.81544 0.18472 0.29768 0.0
H731 H 0.79484 0.20445 0.29144 0.0
H732 H 0.74561 0.32309 0.3015 0.0
H733 H 0.72911 0.34645 0.29339 0.0
H734 H 0.77263 0.37812 0.27423 0.0
H735 H 0.78935 0.35527 0.283 0.0
Tb736 Tb 0.0211 0.52122 0.50743 0.0
Tb737 Tb 0.0515 0.51845 0.5343 0.0
C738 C 0.99156 0.51428 0.48824 0.0
C739 C 0.97508 0.50642 0.49341 0.0
C740 C 0.97325 0.49065 0.50275 0.0
C741 C 0.95775 0.48353 0.50816 0.0
C742 C 0.94386 0.49224 0.50466 0.0
C743 C 0.94585 0.50832 0.49572 0.0
C744 C 0.96136 0.51531 0.49006 0.0
C745 C 0.04107 0.55445 0.52487 0.0
C746 C 0.01782 0.51778 0.55221 0.0
C747 C 0.08103 0.52497 0.55385 0.0
C748 C 0.0981 0.53127 0.5493 0.0
C749 C 0.10038 0.5424 0.53504 0.0
C750 C 0.11669 0.5491 0.5313 0.0
C751 C 0.13102 0.54504 0.54196 0.0
C752 C 0.1287 0.53353 0.55593 0.0
C753 C 0.11228 0.52658 0.55949 0.0
C754 C 0.03138 0.48533 0.51648 0.0
C755 C 0.05469 0.5227 0.4896 0.0
O756 O 1.00186 0.50246 0.48651 0.0
O757 O 0.99944 0.5314 0.498 0.0
O758 O 0.03719 0.53976 0.53206 0.0
O759 O 0.03298 0.55091 0.50714 0.0
O760 O 0.00997 0.51554 0.53388 0.0
O761 O 0.03477 0.52047 0.55615 0.0
O762 O 0.07151 0.53766 0.55391 0.0
O763 O 0.07257 0.50779 0.54485 0.0
O764 O 0.03553 0.50012 0.5096 0.0
O765 O 0.0394 0.48849 0.53422 0.0
O766 O 0.06248 0.52417 0.5078 0.0
O767 O 0.03778 0.52013 0.4856 0.0
H768 H 0.98377 0.48372 0.50582 0.0
H769 H 0.95657 0.47093 0.51469 0.0
H770 H 0.93544 0.5155 0.49309 0.0
H771 H 0.96268 0.52771 0.4832 0.0
H772 H 0.08965 0.54649 0.52725 0.0
H773 H 0.11817 0.5583 0.52076 0.0
H774 H 0.13962 0.53029 0.56435 0.0
H775 H 0.11071 0.51797 0.57051 0.0
Tb776 Tb 0.76353 0.77093 0.27095 0.0
Tb777 Tb 0.80033 0.76625 0.27657 0.0
C778 C 0.73266 0.77153 0.2729 0.0
C779 C 0.72086 0.77337 0.28704 0.0
C780 C 0.7155 0.75862 0.29704 0.0
C781 C 0.70264 0.75971 0.30831 0.0
C782 C 0.69479 0.77552 0.30981 0.0
C783 C 0.70069 0.79055 0.30039 0.0
C784 C 0.71348 0.78945 0.28912 0.0
C785 C 0.78698 0.79991 0.26652 0.0
C786 C 0.78579 0.77904 0.31339 0.0
C787 C 0.83183 0.76924 0.27548 0.0
C788 C 0.84431 0.7653 0.26273 0.0
C789 C 0.84534 0.77293 0.24584 0.0
C790 C 0.85883 0.77113 0.23566 0.0
C791 C 0.8716 0.76175 0.24219 0.0
C792 C 0.87008 0.75351 0.25865 0.0
C793 C 0.85665 0.75532 0.26879 0.0
C794 C 0.77735 0.73644 0.28046 0.0
C795 C 0.77744 0.75672 0.23387 0.0
O796 O 0.73838 0.75578 0.27009 0.0
O797 O 0.74444 0.78678 0.27291 0.0
O798 O 0.7883 0.7898 0.27919 0.0
O799 O 0.77181 0.79446 0.25605 0.0
O800 O 0.7704 0.7731 0.30237 0.0
O801 O 0.79995 0.78036 0.30586 0.0
O802 O 0.82356 0.78267 0.27259 0.0
O803 O 0.82217 0.75453 0.28015 0.0
O804 O 0.77551 0.74718 0.26842 0.0
O805 O 0.79296 0.74137 0.28988 0.0
O806 O 0.79287 0.76102 0.24491 0.0
O807 O 0.76333 0.75734 0.24128 0.0
H808 H 0.72083 0.74596 0.2957 0.0
H809 H 0.69837 0.74777 0.31519 0.0
H810 H 0.69522 0.80311 0.30144 0.0
H811 H 0.71727 0.801 0.28154 0.0
H812 H 0.83606 0.78079 0.24082 0.0
H813 H 0.85961 0.77776 0.22312 0.0
H814 H 0.87943 0.74586 0.26392 0.0
H815 H 0.8562 0.74936 0.28178 0.0
Tb816 Tb 0.7865 0.26143 0.75404 0.0
Tb817 Tb 0.77763 0.27545 0.78873 0.0
C818 C 0.79117 0.24587 0.72172 0.0
C819 C 0.80291 0.25365 0.70967 0.0
C820 C 0.80051 0.2454 0.69009 0.0
C821 C 0.80887 0.25539 0.67767 0.0
C822 C 0.8195 0.27384 0.68476 0.0
C823 C 0.8233 0.28106 0.70473 0.0
C824 C 0.81499 0.27102 0.71712 0.0
C825 C 0.8126 0.26932 0.78322 0.0
C826 C 0.79656 0.30613 0.7662 0.0
C827 C 0.77465 0.28954 0.82215 0.0
C828 C 0.76973 0.27936 0.83735 0.0
C829 C 0.77664 0.26364 0.84074 0.0
C830 C 0.77143 0.25345 0.85462 0.0
C831 C 0.75905 0.25864 0.86521 0.0
C832 C 0.75149 0.27376 0.86104 0.0
C833 C 0.75686 0.28411 0.84723 0.0
C834 C 0.75141 0.26797 0.7597 0.0
C835 C 0.76776 0.23119 0.77662 0.0
O836 O 0.77882 0.25487 0.72393 0.0
O837 O 0.7985 0.24276 0.73804 0.0
O838 O 0.79743 0.26075 0.78341 0.0
O839 O 0.81326 0.27399 0.76659 0.0
O840 O 0.79356 0.29173 0.75123 0.0
O841 O 0.79245 0.3026 0.78287 0.0
O842 O 0.78943 0.28817 0.81722 0.0
O843 O 0.76256 0.28688 0.80721 0.0
O844 O 0.76666 0.27626 0.75936 0.0
O845 O 0.75077 0.26344 0.77642 0.0
O846 O 0.773 0.24526 0.7919 0.0
O847 O 0.76949 0.23523 0.75938 0.0
H848 H 0.7912 0.23202 0.68418 0.0
H849 H 0.80548 0.2496 0.66228 0.0
H850 H 0.83132 0.29528 0.71048 0.0
H851 H 0.81703 0.27759 0.73226 0.0
H852 H 0.78627 0.25932 0.83289 0.0
H853 H 0.77779 0.24214 0.85766 0.0
H854 H 0.7418 0.27794 0.86885 0.0
H855 H 0.75103 0.29584 0.8443 0.0
Tb856 Tb 0.76613 0.75616 0.76687 0.0
Tb857 Tb 0.79851 0.78363 0.78148 0.0
C858 C 0.73621 0.73765 0.76506 0.0
C859 C 0.7205 0.74418 0.76766 0.0
C860 C 0.71162 0.73808 0.78192 0.0
C861 C 0.69872 0.74681 0.78747 0.0
C862 C 0.69442 0.76163 0.77868 0.0
C863 C 0.70264 0.76708 0.76369 0.0
C864 C 0.71575 0.75853 0.75832 0.0
C865 C 0.78054 0.76955 0.73933 0.0
C866 C 0.7661 0.80205 0.77958 0.0
C867 C 0.82848 0.80222 0.78361 0.0
C868 C 0.84395 0.79557 0.78006 0.0
C869 C 0.84289 0.77988 0.76511 0.0
C870 C 0.85734 0.77284 0.76237 0.0
C871 C 0.87312 0.78135 0.77452 0.0
C872 C 0.87423 0.79716 0.78938 0.0
C873 C 0.85968 0.80419 0.79217 0.0
C874 C 0.78363 0.77032 0.80876 0.0
C875 C 0.79859 0.73778 0.76881 0.0
O876 O 0.74784 0.74197 0.78076 0.0
O877 O 0.74268 0.74091 0.74972 0.0
O878 O 0.78008 0.77889 0.75577 0.0
O879 O 0.77218 0.75193 0.73772 0.0
O880 O 0.75723 0.78375 0.77486 0.0
O881 O 0.78309 0.80569 0.78219 0.0
O882 O 0.81653 0.79936 0.76836 0.0
O883 O 0.82236 0.79752 0.79869 0.0
O884 O 0.78451 0.76099 0.7925 0.0
O885 O 0.79195 0.78799 0.8105 0.0
O886 O 0.80739 0.75608 0.77338 0.0
O887 O 0.7816 0.73409 0.76631 0.0
H888 H 0.71522 0.72717 0.7894 0.0
H889 H 0.69229 0.74221 0.79887 0.0
H890 H 0.69944 0.7785 0.75675 0.0
H891 H 0.72259 0.76373 0.74748 0.0
H892 H 0.83089 0.77299 0.75552 0.0
H893 H 0.85621 0.76087 0.75059 0.0
H894 H 0.88627 0.8039 0.79897 0.0
H895 H 0.86066 0.8162 0.80385 0.0
Tb896 Tb 0.51346 0.50631 0.50972 0.0
Tb897 Tb 0.54761 0.52882 0.53152 0.0
C898 C 0.48187 0.49534 0.49838 0.0
C899 C 0.46875 0.50682 0.49777 0.0
C900 C 0.46251 0.51279 0.5147 0.0
C901 C 0.45296 0.5268 0.51538 0.0
C902 C 0.4493 0.53489 0.49912 0.0
C903 C 0.45445 0.52805 0.48179 0.0
C904 C 0.46413 0.51409 0.48111 0.0
C905 C 0.53873 0.50635 0.48999 0.0
C906 C 0.52432 0.55211 0.51233 0.0
C907 C 0.57918 0.53899 0.54312 0.0
C908 C 0.59122 0.52634 0.54188 0.0
C909 C 0.58764 0.51067 0.52632 0.0
C910 C 0.59699 0.49656 0.5263 0.0
C911 C 0.61014 0.49787 0.54181 0.0
C912 C 0.6143 0.51391 0.55703 0.0
C913 C 0.60472 0.52805 0.55716 0.0
C914 C 0.5223 0.52843 0.55112 0.0
C915 C 0.53706 0.48276 0.5278 0.0
O916 O 0.48944 0.49477 0.51573 0.0
O917 O 0.49279 0.49812 0.48656 0.0
O918 O 0.53642 0.52007 0.50183 0.0
O919 O 0.52566 0.49206 0.48777 0.0
O920 O 0.51168 0.53664 0.51013 0.0
O921 O 0.54029 0.55199 0.51923 0.0
O922 O 0.57176 0.54147 0.52644 0.0
O923 O 0.56825 0.5352 0.55469 0.0
O924 O 0.52479 0.51479 0.53933 0.0
O925 O 0.53502 0.54313 0.55315 0.0
O926 O 0.54942 0.49854 0.53065 0.0
O927 O 0.52105 0.48267 0.52088 0.0
H928 H 0.46567 0.50735 0.52774 0.0
H929 H 0.44876 0.53164 0.52876 0.0
H930 H 0.45163 0.53409 0.46906 0.0
H931 H 0.46868 0.50967 0.46784 0.0
H932 H 0.57717 0.50892 0.51446 0.0
H933 H 0.59378 0.48445 0.51426 0.0
H934 H 0.62451 0.51511 0.56907 0.0
H935 H 0.60747 0.53991 0.56939 0.0
Tb936 Tb 0.04757 0.52208 0.01753 0.0
Tb937 Tb 0.01073 0.51705 0.02669 0.0
C938 C 0.07895 0.52117 0.02251 0.0
C939 C 0.09046 0.50772 0.01879 0.0
C940 C 0.08934 0.49113 0.02696 0.0
C941 C 0.10186 0.48024 0.02586 0.0
C942 C 0.1158 0.48555 0.01648 0.0
C943 C 0.1165 0.50168 0.00764 0.0
C944 C 0.10404 0.51266 0.00887 0.0
C945 C 0.02494 0.52203 0.98545 0.0
C946 C 0.0226 0.48054 0.00871 0.0
C947 C 0.98025 0.51889 0.02942 0.0
C948 C 0.96818 0.53199 0.02978 0.0
C949 C 0.9642 0.5412 0.01433 0.0
C950 C 0.95127 0.55166 0.0143 0.0
C951 C 0.94197 0.55308 0.02965 0.0
C952 C 0.94641 0.54432 0.04532 0.0
C953 C 0.9593 0.53391 0.04534 0.0
C954 C 0.03445 0.51112 0.05397 0.0
C955 C 0.03489 0.55923 0.03186 0.0
O956 O 0.06887 0.51772 0.03502 0.0
O957 O 0.07138 0.52711 0.00785 0.0
O958 O 0.02235 0.52038 0.00234 0.0
O959 O 0.04134 0.52348 0.98636 0.0
O960 O 0.03847 0.49102 0.01238 0.0
O961 O 0.00917 0.48806 0.0111 0.0
O962 O 0.98521 0.51334 0.01305 0.0
O963 O 0.99262 0.52213 0.04433 0.0
O964 O 0.03634 0.5238 0.04347 0.0
O965 O 0.01857 0.5017 0.04946 0.0
O966 O 0.01943 0.54827 0.03085 0.0
O967 O 0.04827 0.55217 0.02812 0.0
H968 H 0.07907 0.48683 0.03473 0.0
H969 H 0.10073 0.46775 0.03258 0.0
H970 H 0.12709 0.50632 1.00043 0.0
H971 H 0.10536 0.52545 0.00261 0.0
H972 H 0.97074 0.53995 1.00205 0.0
H973 H 0.94817 0.55807 1.00191 0.0
H974 H 0.93981 0.54535 0.05756 0.0
H975 H 0.96204 0.52693 0.05741 0.0
H976 H 0.03105 0.21027 0.94231 0.0
H977 H 0.03774 0.18427 0.95815 0.0
H978 H 0.9845 0.1665 0.96278 0.0
H979 H 0.97804 0.19286 0.94822 0.0
H980 H 1.00095 0.16231 0.993 0.0
H981 H 0.0062 0.14361 0.92654 0.0
H982 H 0.01736 0.14658 0.89635 0.0
H983 H 0.06824 0.14926 0.92547 0.0
H984 H 0.05739 0.14658 0.95589 0.0
H985 H 0.99653 0.06417 0.99968 0.0
H986 H 0.99386 0.09379 0.98835 0.0
H987 H 0.04885 0.11355 1.00022 0.0
H988 H 0.05164 0.08405 0.01171 0.0
H989 H 0.03398 0.11782 0.96373 0.0
H990 H 0.02615 0.13347 0.02988 0.0
H991 H 0.01283 0.12762 0.05815 0.0
H992 H 0.96347 0.12713 0.02641 0.0
H993 H 0.9765 0.1328 0.99788 0.0
C994 C 0.02084 0.20094 0.94693 0.0
C995 C 0.00402 0.20378 0.944 0.0
C996 C 0.02463 0.18591 0.95583 0.0
C997 C 0.01159 0.17303 0.96143 0.0
C998 C 0.99489 0.17613 0.95874 0.0
C999 C 0.99119 0.19131 0.95032 0.0
C1000 C 0.015 0.1562 0.96993 0.0
C1001 C 0.00802 0.15252 0.98636 0.0
C1002 C 0.02449 0.14341 0.96171 0.0
C1003 C 0.03103 0.14518 0.94352 0.0
C1004 C 0.01979 0.14501 0.92652 0.0
C1005 C 0.02605 0.14661 0.90937 0.0
C1006 C 0.04351 0.14819 0.90901 0.0
C1007 C 0.05473 0.14811 0.92578 0.0
C1008 C 0.04854 0.14655 0.94298 0.0
C1009 C 0.00806 0.07486 1.00004 0.0
C1010 C 0.02429 0.07172 0.00672 0.0
C1011 C 0.00651 0.09182 0.99357 0.0
C1012 C 0.02116 0.10596 0.99353 0.0
C1013 C 0.03738 0.10288 1.00018 0.0
C1014 C 0.03892 0.08604 0.00688 0.0
C1015 C 0.01956 0.12384 0.98631 0.0
C1016 C 0.02693 0.1277 0.97025 0.0
C1017 C 0.01007 0.13651 0.99452 0.0
C1018 C 1.00227 0.13343 0.01174 0.0
C1019 C 0.01244 0.13202 0.02891 0.0
C1020 C 0.00495 0.12876 0.04498 0.0
C1021 C 0.98731 0.12698 0.04407 0.0
C1022 C 0.97714 0.12853 0.0271 0.0
C1023 C 0.98457 0.1318 0.01099 0.0
H1024 H 0.98154 0.12443 0.05652 0.0
H1025 H 0.04833 0.14941 0.89571 0.0
H1026 H 0.09785 0.76139 0.19108 0.0
H1027 H 0.12693 0.76076 0.20491 0.0
H1028 H 0.14707 0.80198 0.17174 0.0
H1029 H 0.11761 0.80284 0.15771 0.0
H1030 H 0.1647 0.76994 0.17293 0.0
H1031 H 0.14844 0.81834 0.21673 0.0
H1032 H 0.12933 0.83125 0.23696 0.0
H1033 H 0.13143 0.7872 0.27048 0.0
H1034 H 0.15035 0.77386 0.25025 0.0
H1035 H 0.24912 0.78371 0.23158 0.0
H1036 H 0.22273 0.78616 0.21121 0.0
H1037 H 0.19284 0.76139 0.25049 0.0
H1038 H 0.2191 0.76031 0.27126 0.0
H1039 H 0.18145 0.78917 0.24422 0.0
H1040 H 0.19526 0.73866 0.20005 0.0
H1041 H 0.21317 0.72376 0.1795 0.0
H1042 H 0.21478 0.76874 0.14668 0.0
H1043 H 0.19708 0.78404 0.16723 0.0
C1044 C 0.10837 0.77034 0.18656 0.0
C1045 C 0.10523 0.78225 0.17326 0.0
C1046 C 0.12508 0.76993 0.19455 0.0
C1047 C 0.13929 0.78137 0.18951 0.0
C1048 C 0.13634 0.79299 0.17587 0.0
C1049 C 0.11948 0.79354 0.16792 0.0
C1050 C 0.15702 0.78153 0.19928 0.0
C1051 C 0.16851 0.77442 0.1885 0.0
C1052 C 0.16196 0.78695 0.21962 0.0
C1053 C 0.1507 0.79504 0.23189 0.0
C1054 C 0.14472 0.81133 0.22833 0.0
C1055 C 0.13394 0.81874 0.23981 0.0
C1056 C 0.12914 0.81003 0.25498 0.0
C1057 C 0.13515 0.79392 0.25872 0.0
C1058 C 0.14591 0.78645 0.24727 0.0
C1059 C 0.23685 0.77844 0.23555 0.0
C1060 C 0.23615 0.77173 0.25296 0.0
C1061 C 0.22169 0.77982 0.22389 0.0
C1062 C 0.2055 0.77395 0.22911 0.0
C1063 C 0.20498 0.7663 0.24605 0.0
C1064 C 0.22004 0.76548 0.2579 0.0
C1065 C 0.18915 0.77679 0.21806 0.0
C1066 C 0.17784 0.78466 0.22864 0.0
C1067 C 0.18436 0.77174 0.19759 0.0
C1068 C 0.19504 0.7626 0.18531 0.0
C1069 C 0.19956 0.74545 0.18856 0.0
C1070 C 0.20965 0.73692 0.17689 0.0
C1071 C 0.21516 0.74533 0.16183 0.0
C1072 C 0.21055 0.76227 0.15838 0.0
C1073 C 0.20049 0.77087 0.17003 0.0
H1074 H 0.22295 0.7387 0.1528 0.0
H1075 H 0.12079 0.81578 0.26385 0.0
H1076 H 0.52455 0.80676 0.43361 0.0
H1077 H 0.53008 0.84095 0.44834 0.0
H1078 H 0.48514 0.83002 0.47474 0.0
H1079 H 0.4795 0.79606 0.46019 0.0
H1080 H 0.48535 0.8593 0.45532 0.0
H1081 H 0.52548 0.84061 0.50166 0.0
H1082 H 0.55009 0.82701 0.51217 0.0
H1083 H 0.58306 0.8678 0.4884 0.0
H1084 H 0.55861 0.88148 0.47755 0.0
H1085 H 0.49492 0.95234 0.51181 0.0
H1086 H 0.49125 0.91769 0.50068 0.0
H1087 H 0.54088 0.92756 0.48337 0.0
H1088 H 0.54494 0.96186 0.49536 0.0
H1089 H 0.53841 0.89846 0.49832 0.0
H1090 H 0.50046 0.91659 0.45053 0.0
H1091 H 0.47693 0.93075 0.43779 0.0
H1092 H 0.4412 0.89183 0.46047 0.0
H1093 H 0.46458 0.87762 0.47359 0.0
C1094 C 0.51601 0.81156 0.44282 0.0
C1095 C 0.50155 0.79856 0.44563 0.0
C1096 C 0.51919 0.83113 0.45124 0.0
C1097 C 0.50802 0.83806 0.46266 0.0
C1098 C 0.49391 0.82503 0.46595 0.0
C1099 C 0.49076 0.80555 0.45763 0.0
C1100 C 0.51029 0.85897 0.47029 0.0
C1101 C 0.49687 0.86783 0.46494 0.0
C1102 C 0.52554 0.87027 0.48225 0.0
C1103 C 0.54018 0.86191 0.48861 0.0
C1104 C 0.53794 0.84655 0.49851 0.0
C1105 C 0.55188 0.83886 0.50458 0.0
C1106 C 0.56812 0.84651 0.50092 0.0
C1107 C 0.57048 0.86188 0.49122 0.0
C1108 C 0.55659 0.8696 0.48512 0.0
C1109 C 0.50504 0.94707 0.50567 0.0
C1110 C 0.52021 0.95984 0.50449 0.0
C1111 C 0.5029 0.92725 0.49917 0.0
C1112 C 0.51567 0.9199 0.49084 0.0
C1113 C 0.53083 0.93273 0.48975 0.0
C1114 C 0.53312 0.95242 0.49659 0.0
C1115 C 0.51345 0.8989 0.48335 0.0
C1116 C 0.52687 0.89 0.4887 0.0
C1117 C 0.49835 0.88763 0.47099 0.0
C1118 C 0.48429 0.89621 0.46322 0.0
C1119 C 0.48761 0.91117 0.45294 0.0
C1120 C 0.47429 0.91918 0.44563 0.0
C1121 C 0.45759 0.91223 0.44837 0.0
C1122 C 0.45415 0.89723 0.4584 0.0
C1123 C 0.46742 0.88918 0.46576 0.0
H1124 H 0.4473 0.91845 0.44269 0.0
H1125 H 0.5789 0.84055 0.50565 0.0
H1126 H 0.49431 0.29174 0.64822 0.0
H1127 H 0.46776 0.28522 0.66108 0.0
H1128 H 0.49021 0.25311 0.69964 0.0
H1129 H 0.51708 0.25972 0.68687 0.0
H1130 H 0.45442 0.23598 0.68119 0.0
H1131 H 0.48968 0.29601 0.71811 0.0
H1132 H 0.50758 0.32866 0.72213 0.0
H1133 H 0.46526 0.34674 0.69278 0.0
H1134 H 0.44719 0.31408 0.68831 0.0
H1135 H 0.39502 0.24017 0.74754 0.0
H1136 H 0.41991 0.24026 0.73147 0.0
H1137 H 0.40477 0.2815 0.69911 0.0
H1138 H 0.37979 0.28128 0.71483 0.0
H1139 H 0.43737 0.29309 0.7147 0.0
H1140 H 0.40183 0.23473 0.67744 0.0
H1141 H 0.38329 0.20217 0.67087 0.0
H1142 H 0.42456 0.18089 0.69803 0.0
H1143 H 0.44328 0.21341 0.70503 0.0
C1144 C 0.49361 0.28303 0.65923 0.0
C1145 C 0.50791 0.27628 0.66652 0.0
C1146 C 0.47838 0.27937 0.66661 0.0
C1147 C 0.47701 0.26878 0.68142 0.0
C1148 C 0.49097 0.26129 0.6882 0.0
C1149 C 0.50634 0.26513 0.68092 0.0
C1150 C 0.46137 0.2667 0.69053 0.0
C1151 C 0.4508 0.24841 0.6888 0.0
C1152 C 0.45635 0.28294 0.69995 0.0
C1153 C 0.46715 0.30259 0.70273 0.0
C1154 C 0.48424 0.30692 0.71238 0.0
C1155 C 0.49441 0.32542 0.71476 0.0
C1156 C 0.48758 0.33975 0.70767 0.0
C1157 C 0.47055 0.33562 0.69824 0.0
C1158 C 0.46034 0.31712 0.69579 0.0
C1159 C 0.39677 0.24898 0.73673 0.0
C1160 C 0.38538 0.26084 0.73266 0.0
C1161 C 0.41108 0.24904 0.72755 0.0
C1162 C 0.4143 0.2609 0.71403 0.0
C1163 C 0.4027 0.27233 0.70958 0.0
C1164 C 0.38841 0.27224 0.71868 0.0
C1165 C 0.43023 0.26232 0.70536 0.0
C1166 C 0.44092 0.28057 0.70718 0.0
C1167 C 0.43518 0.24603 0.69584 0.0
C1168 C 0.42389 0.22655 0.69198 0.0
C1169 C 0.40689 0.22315 0.68222 0.0
C1170 C 0.39636 0.2047 0.67837 0.0
C1171 C 0.40272 0.18948 0.68409 0.0
C1172 C 0.41963 0.1927 0.69365 0.0
C1173 C 0.43021 0.21113 0.69756 0.0
H1174 H 0.39456 0.17519 0.68106 0.0
H1175 H 0.49547 0.35408 0.70954 0.0
H1176 H 0.0155 0.79238 0.61883 0.0
H1177 H 0.0255 0.81825 0.60244 0.0
H1178 H 0.07691 0.82613 0.63364 0.0
H1179 H 0.06695 0.80037 0.65055 0.0
H1180 H 0.06701 0.85958 0.6354 0.0
H1181 H 0.06867 0.80843 0.58544 0.0
H1182 H 0.05866 0.77704 0.5632 0.0
H1183 H 0.01536 0.79571 0.53693 0.0
H1184 H 0.02496 0.82711 0.5592 0.0
H1185 H 0.07626 0.92136 0.55858 0.0
H1186 H 0.08268 0.89778 0.57815 0.0
H1187 H 0.03019 0.88543 0.58681 0.0
H1188 H 0.02362 0.90868 0.56731 0.0
H1189 H 0.05083 0.85488 0.56465 0.0
H1190 H 0.04619 0.90184 0.62239 0.0
H1191 H 0.05655 0.9332 0.64466 0.0
H1192 H 0.10689 0.92199 0.65544 0.0
H1193 H 0.09684 0.89068 0.63293 0.0
C1194 C 0.02898 0.79939 0.62206 0.0
C1195 C 0.04041 0.79436 0.63602 0.0
C1196 C 0.0347 0.8141 0.61258 0.0
C1197 C 0.05198 0.82384 0.61669 0.0
C1198 C 0.06355 0.81862 0.63026 0.0
C1199 C 0.05782 0.8039 0.63983 0.0
C1200 C 0.05739 0.84044 0.60774 0.0
C1201 C 0.06393 0.85851 0.61988 0.0
C1202 C 0.05342 0.83898 0.58752 0.0
C1203 C 0.04756 0.82013 0.57401 0.0
C1204 C 0.05697 0.8058 0.57499 0.0
C1205 C 0.05137 0.78801 0.56237 0.0
C1206 C 0.03639 0.78439 0.54865 0.0
C1207 C 0.02698 0.79855 0.54753 0.0
C1208 C 0.03252 0.81637 0.56013 0.0
C1209 C 0.0662 0.91378 0.56493 0.0
C1210 C 0.04944 0.91668 0.56143 0.0
C1211 C 0.06993 0.90057 0.5762 0.0
C1212 C 0.05693 0.89029 0.584 0.0
C1213 C 0.04039 0.89365 0.58112 0.0
C1214 C 0.03667 0.90686 0.56999 0.0
C1215 C 0.05951 0.87378 0.5924 0.0
C1216 C 0.05452 0.85578 0.58009 0.0
C1217 C 0.06489 0.87531 0.61237 0.0
C1218 C 0.07086 0.89414 0.62572 0.0
C1219 C 0.05952 0.9062 0.62927 0.0
C1220 C 0.06532 0.92393 0.642 0.0
C1221 C 0.08239 0.92964 0.65138 0.0
C1222 C 0.09369 0.9176 0.6481 0.0
C1223 C 0.08795 0.89987 0.63536 0.0
H1224 H 0.08685 0.94336 0.66125 0.0
H1225 H 0.03208 0.7706 0.53889 0.0
H1226 H 0.48069 0.81705 0.82648 0.0
H1227 H 0.45248 0.82287 0.81463 0.0
H1228 H 0.43078 0.76184 0.80308 0.0
H1229 H 0.45865 0.75607 0.81544 0.0
H1230 H 0.41837 0.78292 0.77435 0.0
H1231 H 0.42787 0.7813 0.84318 0.0
H1232 H 0.44461 0.79198 0.87623 0.0
H1233 H 0.44006 0.84995 0.87514 0.0
H1234 H 0.42344 0.83959 0.84191 0.0
H1235 H 0.3348 0.75223 0.78495 0.0
H1236 H 0.36594 0.75976 0.78945 0.0
H1237 H 0.36699 0.82017 0.8056 0.0
H1238 H 0.33563 0.81268 0.80166 0.0
H1239 H 0.39151 0.8082 0.82882 0.0
H1240 H 0.37236 0.80268 0.76058 0.0
H1241 H 0.3534 0.78612 0.72976 0.0
H1242 H 0.37502 0.73659 0.7309 0.0
H1243 H 0.39386 0.75266 0.76189 0.0
C1244 C 0.46994 0.80493 0.82088 0.0
C1245 C 0.47158 0.78616 0.82179 0.0
C1246 C 0.45396 0.80825 0.81417 0.0
C1247 C 0.43977 0.79274 0.80798 0.0
C1248 C 0.44173 0.7739 0.80764 0.0
C1249 C 0.45753 0.77064 0.81478 0.0
C1250 C 0.42239 0.79593 0.8045 0.0
C1251 C 0.41248 0.78875 0.78609 0.0
C1252 C 0.41494 0.80351 0.81997 0.0
C1253 C 0.42468 0.80975 0.84 0.0
C1254 C 0.43058 0.79635 0.84993 0.0
C1255 C 0.44002 0.80234 0.86869 0.0
C1256 C 0.4435 0.82166 0.87774 0.0
C1257 C 0.43743 0.835 0.86808 0.0
C1258 C 0.42799 0.82909 0.84928 0.0
C1259 C 0.34164 0.76712 0.78951 0.0
C1260 C 0.33288 0.78192 0.79277 0.0
C1261 C 0.35939 0.7714 0.792 0.0
C1262 C 0.36861 0.79055 0.79732 0.0
C1263 C 0.35998 0.80534 0.80126 0.0
C1264 C 0.34215 0.80104 0.79903 0.0
C1265 C 0.3873 0.79484 0.79867 0.0
C1266 C 0.39747 0.80331 0.81676 0.0
C1267 C 0.3949 0.78801 0.78295 0.0
C1268 C 0.38452 0.77889 0.76359 0.0
C1269 C 0.37311 0.78828 0.75423 0.0
C1270 C 0.36235 0.77895 0.73677 0.0
C1271 C 0.36297 0.7603 0.72847 0.0
C1272 C 0.37455 0.75103 0.7374 0.0
C1273 C 0.3853 0.76026 0.75488 0.0
H1274 H 0.35442 0.75295 0.71519 0.0
H1275 H 0.45085 0.82627 0.89226 0.0
H1276 H 0.55214 0.20496 0.15501 0.0
H1277 H 0.55845 0.17695 0.13575 0.0
H1278 H 0.51706 0.17636 0.09014 0.0
H1279 H 0.51033 0.20406 0.10949 0.0
H1280 H 0.51647 0.1414 0.0968 0.0
H1281 H 0.56 0.19426 0.08802 0.0
H1282 H 0.58406 0.22254 0.09922 0.0
H1283 H 0.61401 0.18836 0.1268 0.0
H1284 H 0.59003 0.15993 0.11596 0.0
H1285 H 0.53641 0.08839 0.0153 0.0
H1286 H 0.53784 0.11822 0.03776 0.0
H1287 H 0.56364 0.09688 0.084 0.0
H1288 H 0.56152 0.06656 0.06183 0.0
H1289 H 0.57389 0.14166 0.07932 0.0
H1290 H 0.53102 0.08939 0.08907 0.0
H1291 H 0.50712 0.06105 0.07951 0.0
H1292 H 0.47617 0.09377 0.05108 0.0
H1293 H 0.50006 0.12244 0.06054 0.0
C1294 C 0.54436 0.19888 0.14088 0.0
C1295 C 0.53073 0.20675 0.13375 0.0
C1296 C 0.54806 0.18293 0.12987 0.0
C1297 C 0.53838 0.17479 0.11143 0.0
C1298 C 0.5247 0.1825 0.10434 0.0
C1299 C 0.52088 0.19832 0.11541 0.0
C1300 C 0.54224 0.15799 0.09957 0.0
C1301 C 0.52898 0.14156 0.09285 0.0
C1302 C 0.55874 0.15799 0.09497 0.0
C1303 C 0.57318 0.17503 0.10134 0.0
C1304 C 0.57168 0.19282 0.09659 0.0
C1305 C 0.58531 0.20886 0.10285 0.0
C1306 C 0.60054 0.20726 0.11376 0.0
C1307 C 0.60219 0.18959 0.11837 0.0
C1308 C 0.5886 0.1735 0.11216 0.0
C1309 C 0.54286 0.09024 0.0301 0.0
C1310 C 0.54877 0.07512 0.03689 0.0
C1311 C 0.54364 0.10726 0.04287 0.0
C1312 C 0.55071 0.10951 0.06243 0.0
C1313 C 0.55817 0.09527 0.06888 0.0
C1314 C 0.55699 0.07801 0.05621 0.0
C1315 C 0.54804 0.12546 0.07638 0.0
C1316 C 0.56145 0.1416 0.08343 0.0
C1317 C 0.53172 0.12522 0.08143 0.0
C1318 C 0.51743 0.10797 0.07527 0.0
C1319 C 0.51922 0.09049 0.08055 0.0
C1320 C 0.50563 0.07436 0.07521 0.0
C1321 C 0.49014 0.07551 0.06454 0.0
C1322 C 0.4882 0.09286 0.05928 0.0
C1323 C 0.50176 0.10908 0.06468 0.0
H1324 H 0.47962 0.06299 0.06043 0.0
H1325 H 0.61107 0.2197 0.1186 0.0
H1326 H 0.07379 0.29559 0.36665 0.0
H1327 H 0.10214 0.30038 0.35681 0.0
H1328 H 0.07786 0.28101 0.29703 0.0
H1329 H 0.04988 0.27631 0.30647 0.0
H1330 H 0.10105 0.25902 0.31406 0.0
H1331 H 0.09524 0.32249 0.30624 0.0
H1332 H 0.09201 0.35556 0.31665 0.0
H1333 H 0.13901 0.368 0.35749 0.0
H1334 H 0.14236 0.33486 0.34754 0.0
H1335 H 0.16318 0.25937 0.25709 0.0
H1336 H 0.13962 0.27204 0.26869 0.0
H1337 H 0.17062 0.29273 0.32549 0.0
H1338 H 0.19408 0.2799 0.31398 0.0
H1339 H 0.14585 0.31634 0.3126 0.0
H1340 H 0.15067 0.2524 0.32158 0.0
H1341 H 0.15456 0.21976 0.3102 0.0
H1342 H 0.10916 0.20847 0.26707 0.0
H1343 H 0.10525 0.24125 0.27795 0.0
C1344 C 0.07456 0.29271 0.35142 0.0
C1345 C 0.05969 0.28523 0.33736 0.0
C1346 C 0.09068 0.29558 0.34585 0.0
C1347 C 0.0919 0.29107 0.32624 0.0
C1348 C 0.07705 0.28462 0.31222 0.0
C1349 C 0.0611 0.28178 0.3177 0.0
C1350 C 0.10835 0.28996 0.32022 0.0
C1351 C 0.11081 0.27157 0.31369 0.0
C1352 C 0.12109 0.30636 0.32012 0.0
C1353 C 0.11886 0.32609 0.32643 0.0
C1354 C 0.10473 0.33217 0.31768 0.0
C1355 C 0.10292 0.35096 0.32343 0.0
C1356 C 0.11525 0.36385 0.3378 0.0
C1357 C 0.12942 0.35797 0.34643 0.0
C1358 C 0.13128 0.33919 0.34074 0.0
C1359 C 0.16506 0.26717 0.27184 0.0
C1360 C 0.18012 0.2685 0.28482 0.0
C1361 C 0.15173 0.27446 0.2784 0.0
C1362 C 0.15351 0.28317 0.29791 0.0
C1363 C 0.16917 0.28614 0.31038 0.0
C1364 C 0.1824 0.27866 0.30388 0.0
C1365 C 0.13821 0.28546 0.30609 0.0
C1366 C 0.13607 0.30389 0.31315 0.0
C1367 C 0.12566 0.26911 0.30675 0.0
C1368 C 0.1278 0.24931 0.30041 0.0
C1369 C 0.14162 0.24301 0.30955 0.0
C1370 C 0.14382 0.22449 0.30321 0.0
C1371 C 0.13214 0.21206 0.28788 0.0
C1372 C 0.11822 0.21813 0.27891 0.0
C1373 C 0.11601 0.23668 0.28515 0.0
H1374 H 0.13385 0.19771 0.283 0.0
H1375 H 0.11385 0.37841 0.34219 0.0
H1376 H 0.98286 0.99488 0.2084 0.0
H1377 H 0.99194 0.99866 0.17777 0.0
H1378 H 0.94272 0.00889 0.15603 0.0
H1379 H 0.93333 0.00472 0.18681 0.0
H1380 H 0.95492 0.98746 0.12773 0.0
H1381 H 0.97584 0.04655 0.17274 0.0
H1382 H 0.99 0.06796 0.20376 0.0
H1383 H 0.03731 0.05118 0.19738 0.0
H1384 H 0.02337 0.02945 0.16645 0.0
H1385 H 0.99655 0.02752 0.05353 0.0
H1386 H 0.97972 0.02397 0.0796 0.0
H1387 H 0.02108 0.00665 0.11232 0.0
H1388 H 0.03763 0.00976 0.08645 0.0
H1389 H 0.00926 0.03564 0.13349 0.0
H1390 H 0.98679 0.9739 0.09 0.0
H1391 H 0.9727 0.95356 0.0584 0.0
H1392 H 0.9281 0.97709 0.06136 0.0
H1393 H 0.94207 0.99778 0.09288 0.0
C1394 C 0.97384 0.99769 0.19706 0.0
C1395 C 0.95742 0.99967 0.20012 0.0
C1396 C 0.97908 0.99992 0.17956 0.0
C1397 C 0.96815 1.00451 0.16477 0.0
C1398 C 0.9514 0.00549 0.16731 0.0
C1399 C 0.94605 1.00309 0.18488 0.0
C1400 C 0.97476 0.00913 0.14722 0.0
C1401 C 0.96661 0.99825 0.12893 0.0
C1402 C 0.99004 0.02321 0.14874 0.0
C1403 C 0.99851 0.03627 0.16734 0.0
C1404 C 0.98923 0.04732 0.17802 0.0
C1405 C 0.99722 0.05953 0.19558 0.0
C1406 C 0.01454 0.06091 0.20255 0.0
C1407 C 0.0239 0.0501 0.19197 0.0
C1408 C 0.01596 0.03784 0.17441 0.0
C1409 C 1.00189 0.02273 0.0662 0.0
C1410 C 0.01835 0.01884 0.06797 0.0
C1411 C 0.99232 0.02076 0.08106 0.0
C1412 C 0.9992 0.01507 0.09787 0.0
C1413 C 0.01558 0.01114 0.09951 0.0
C1414 C 0.025 0.01291 0.08469 0.0
C1415 C 0.98978 0.01352 0.11419 0.0
C1416 C 0.9974 0.02508 0.13226 0.0
C1417 C 0.97402 1.0002 0.11239 0.0
C1418 C 0.96553 0.98752 0.09367 0.0
C1419 C 0.97403 0.97483 0.08384 0.0
C1420 C 0.96606 0.96322 0.06596 0.0
C1421 C 0.94953 0.96407 0.05785 0.0
C1422 C 0.94091 0.97647 0.06765 0.0
C1423 C 0.94884 0.98813 0.08552 0.0
H1424 H 0.94338 0.95509 0.044 0.0
H1425 H 0.0207 0.07037 0.21615 0.0
H1426 H 0.32252 0.69818 0.49931 0.0
H1427 H 0.30087 0.69652 0.47121 0.0
H1428 H 0.29411 0.75265 0.49565 0.0
H1429 H 0.31511 0.75366 0.52455 0.0
H1430 H 0.26421 0.72966 0.48094 0.0
H1431 H 0.3182 0.74463 0.45826 0.0
H1432 H 0.34646 0.73947 0.45233 0.0
H1433 H 0.32259 0.68395 0.41736 0.0
H1434 H 0.29421 0.6887 0.42328 0.0
H1435 H 0.25144 0.77339 0.4024 0.0
H1436 H 0.25373 0.75967 0.43115 0.0
H1437 H 0.24452 0.70295 0.39604 0.0
H1438 H 0.24132 0.71655 0.36686 0.0
H1439 H 0.27801 0.71767 0.4149 0.0
H1440 H 0.22315 0.70775 0.43171 0.0
H1441 H 0.19539 0.7151 0.43665 0.0
H1442 H 0.22112 0.7635 0.48145 0.0
H1443 H 0.24907 0.75665 0.47658 0.0
C1444 C 0.31664 0.71032 0.49841 0.0
C1445 C 0.32072 0.72636 0.51358 0.0
C1446 C 0.30424 0.70932 0.48246 0.0
C1447 C 0.29611 0.7246 0.48119 0.0
C1448 C 0.3003 0.74073 0.49636 0.0
C1449 C 0.31242 0.7415 0.51264 0.0
C1450 C 0.28337 0.72379 0.46395 0.0
C1451 C 0.26722 0.72716 0.46648 0.0
C1452 C 0.28708 0.7197 0.44507 0.0
C1453 C 0.30413 0.71693 0.44138 0.0
C1454 C 0.31901 0.73128 0.4494 0.0
C1455 C 0.33504 0.72843 0.44603 0.0
C1456 C 0.33633 0.71137 0.43452 0.0
C1457 C 0.32158 0.69714 0.4263 0.0
C1458 C 0.30552 0.69991 0.42965 0.0
C1459 C 0.24874 0.75788 0.40062 0.0
C1460 C 0.24687 0.7461 0.38236 0.0
C1461 C 0.25007 0.75002 0.41719 0.0
C1462 C 0.24966 0.73037 0.41565 0.0
C1463 C 0.24499 0.71819 0.39744 0.0
C1464 C 0.24334 0.72602 0.38082 0.0
C1465 C 0.25905 0.72426 0.43189 0.0
C1466 C 0.27473 0.71962 0.42927 0.0
C1467 C 0.25499 0.72751 0.45061 0.0
C1468 C 0.23823 0.73167 0.45377 0.0
C1469 C 0.2229 0.72003 0.44255 0.0
C1470 C 0.20713 0.7241 0.44534 0.0
C1471 C 0.20649 0.73975 0.45936 0.0
C1472 C 0.22163 0.75136 0.47062 0.0
C1473 C 0.23745 0.74736 0.46788 0.0
H1474 H 0.19426 0.74288 0.46151 0.0
H1475 H 0.34875 0.7092 0.43193 0.0
H1476 H 0.59292 0.99873 0.73071 0.0
H1477 H 0.58028 1.0015 0.69852 0.0
H1478 H 0.62948 0.00601 0.68079 0.0
H1479 H 0.64245 1.00323 0.71353 0.0
H1480 H 0.61136 0.03223 0.66629 0.0
H1481 H 0.59807 0.96413 0.666 0.0
H1482 H 0.58681 0.9354 0.67882 0.0
H1483 H 0.53723 0.94905 0.67434 0.0
H1484 H 0.54827 0.978 0.66175 0.0
H1485 H 0.57181 0.02463 0.56655 0.0
H1486 H 0.58887 0.02236 0.59713 0.0
H1487 H 0.54238 0.99936 0.61687 0.0
H1488 H 0.52571 1.00025 0.58596 0.0
H1489 H 0.5616 0.98171 0.62977 0.0
H1490 H 0.57281 0.04981 0.6336 0.0
H1491 H 0.58229 0.08051 0.62325 0.0
H1492 H 0.6328 0.06999 0.62372 0.0
H1493 H 0.62354 0.03909 0.63383 0.0
C1494 C 0.60124 1.00024 0.7201 0.0
C1495 C 0.61888 1.00059 0.72512 0.0
C1496 C 0.59385 1.0018 0.70143 0.0
C1497 C 0.60368 1.00379 0.68672 0.0
C1498 C 0.6214 1.00444 0.69163 0.0
C1499 C 0.62886 1.00272 0.71045 0.0
C1500 C 0.59518 0.0049 0.66644 0.0
C1501 C 0.60065 0.021 0.65819 0.0
C1502 C 0.58071 0.99078 0.65576 0.0
C1503 C 0.57403 0.97327 0.66307 0.0
C1504 C 0.58479 0.96105 0.66785 0.0
C1505 C 0.57845 0.94473 0.67507 0.0
C1506 C 0.56132 0.94042 0.67743 0.0
C1507 C 0.55049 0.9524 0.67252 0.0
C1508 C 0.55678 0.96876 0.66533 0.0
C1509 C 0.56524 0.01911 0.57742 0.0
C1510 C 0.54724 0.01264 0.57351 0.0
C1511 C 0.57506 0.01797 0.59522 0.0
C1512 C 0.56723 0.01092 0.6101 0.0
C1513 C 0.54918 0.00473 0.60608 0.0
C1514 C 0.53949 0.00537 0.5882 0.0
C1515 C 0.57742 0.00934 0.62951 0.0
C1516 C 0.57229 0.99306 0.63768 0.0
C1517 C 0.59186 0.02359 0.64033 0.0
C1518 C 0.59743 0.04206 0.63421 0.0
C1519 C 0.5859 0.05399 0.63135 0.0
C1520 C 0.59124 0.07143 0.62555 0.0
C1521 C 0.60812 0.07717 0.62276 0.0
C1522 C 0.61972 0.0655 0.62583 0.0
C1523 C 0.61444 0.04803 0.6316 0.0
H1524 H 0.61223 0.09068 0.61827 0.0
H1525 H 0.55644 0.92779 0.68303 0.0
H1526 H 0.2841 0.36771 0.98598 0.0
H1527 H 0.27947 0.35195 0.95194 0.0
H1528 H 0.30978 0.31202 0.96732 0.0
H1529 H 0.31485 0.32803 1.00116 0.0
H1530 H 0.3204 0.32585 0.93895 0.0
H1531 H 0.26452 0.29909 0.95113 0.0
H1532 H 0.2367 0.29952 0.96149 0.0
H1533 H 0.22447 0.33316 0.91923 0.0
H1534 H 0.25232 0.33316 0.90881 0.0
H1535 H 0.30577 0.27009 0.84313 0.0
H1536 H 0.30748 0.28076 0.87802 0.0
H1537 H 0.27484 0.31969 0.86649 0.0
H1538 H 0.27235 0.30831 0.8319 0.0
H1539 H 0.26506 0.30439 0.89341 0.0
H1540 H 0.3214 0.33344 0.88283 0.0
H1541 H 0.34919 0.33344 0.87223 0.0
H1542 H 0.36054 0.29637 0.91129 0.0
H1543 H 0.33272 0.29598 0.92195 0.0
C1544 C 0.28947 0.35532 0.98217 0.0
C1545 C 0.29989 0.34919 0.99634 0.0
C1546 C 0.2868 0.34627 0.96265 0.0
C1547 C 0.29423 0.33069 0.95695 0.0
C1548 C 0.30398 0.32405 0.97125 0.0
C1549 C 0.30681 0.33319 0.99065 0.0
C1550 C 0.29301 0.32219 0.93609 0.0
C1551 C 0.30824 0.32089 0.92907 0.0
C1552 C 0.27725 0.31613 0.92297 0.0
C1553 C 0.26058 0.31629 0.92934 0.0
C1554 C 0.25596 0.30673 0.94418 0.0
C1555 C 0.24017 0.30687 0.95003 0.0
C1556 C 0.22884 0.31641 0.94106 0.0
C1557 C 0.23327 0.32581 0.92619 0.0
C1558 C 0.24905 0.32573 0.9203 0.0
C1559 C 0.29905 0.28098 0.84811 0.0
C1560 C 0.28893 0.28835 0.83479 0.0
C1561 C 0.30008 0.28716 0.86807 0.0
C1562 C 0.29147 0.30129 0.87505 0.0
C1563 C 0.28154 0.30874 0.86163 0.0
C1564 C 0.28019 0.30226 0.84179 0.0
C1565 C 0.29248 0.30829 0.89622 0.0
C1566 C 0.27721 0.3093 0.9033 0.0
C1567 C 0.30822 0.31423 0.90939 0.0
C1568 C 0.32493 0.31453 0.90303 0.0
C1569 C 0.32979 0.3252 0.88906 0.0
C1570 C 0.34554 0.32528 0.88306 0.0
C1571 C 0.35661 0.31487 0.89104 0.0
C1572 C 0.35195 0.3044 0.90509 0.0
C1573 C 0.3362 0.30425 0.91113 0.0
H1574 H 0.3688 0.31495 0.88637 0.0
H1575 H 0.21662 0.31649 0.94561 0.0
H1576 H 0.94027 0.00698 0.32049 0.0
H1577 H 0.95569 0.01048 0.35294 0.0
H1578 H 1.00099 1.00219 0.33018 0.0
H1579 H 0.9855 0.99907 0.2971 0.0
H1580 H 0.99138 0.98117 0.36114 0.0
H1581 H 1.00174 0.04551 0.34773 0.0
H1582 H 0.99314 0.0734 0.33672 0.0
H1583 H 0.96072 0.07685 0.37956 0.0
H1584 H 0.96897 0.04885 0.39065 0.0
H1585 H 0.03648 0.00537 0.45729 0.0
H1586 H 0.02891 1.00373 0.42248 0.0
H1587 H 0.9869 0.03081 0.43235 0.0
H1588 H 0.99555 0.03397 0.46728 0.0
H1589 H 0.99912 0.04363 0.40589 0.0
H1590 H 0.98326 0.97895 0.41664 0.0
H1591 H 0.98803 0.94968 0.42804 0.0
H1592 H 0.02536 0.94458 0.39114 0.0
H1593 H 0.02094 0.97397 0.37972 0.0
C1594 C 0.95347 0.006 0.32217 0.0
C1595 C 0.96173 1.00317 0.30617 0.0
C1596 C 0.96228 0.00792 0.34082 0.0
C1597 C 0.97953 0.00702 0.34387 0.0
C1598 C 0.98768 1.00311 0.32798 0.0
C1599 C 0.97881 1.00124 0.30917 0.0
C1600 C 0.98882 0.01044 0.36386 0.0
C1601 C 0.99347 0.99491 0.37092 0.0
C1602 C 0.99086 0.02819 0.37659 0.0
C1603 C 0.98589 0.04502 0.36992 0.0
C1604 C 0.99268 0.05213 0.35469 0.0
C1605 C 0.98789 0.06798 0.34847 0.0
C1606 C 0.97637 0.07687 0.35741 0.0
C1607 C 0.96963 0.06994 0.37262 0.0
C1608 C 0.97438 0.05411 0.37891 0.0
C1609 C 0.02576 0.01113 0.4519 0.0
C1610 C 0.0165 0.01974 0.46467 0.0
C1611 C 0.02133 0.01003 0.43206 0.0
C1612 C 0.00703 0.01665 0.42469 0.0
C1613 C 0.99797 0.02558 0.43763 0.0
C1614 C 1.00284 0.02735 0.45753 0.0
C1615 C 1.0013 0.01415 0.40355 0.0
C1616 C 0.99733 0.0299 0.39621 0.0
C1617 C 0.9993 0.99638 0.39069 0.0
C1618 C 1.00192 0.97873 0.39751 0.0
C1619 C 0.99256 0.97164 0.41107 0.0
C1620 C 0.99519 0.95503 0.41752 0.0
C1621 C 0.00703 0.94531 0.41036 0.0
C1622 C 0.01622 0.95214 0.3967 0.0
C1623 C 0.01366 0.96876 0.39023 0.0
H1624 H 0.00905 0.93245 0.41538 0.0
H1625 H 0.97269 0.08915 0.35258 0.0
H1626 H 0.34826 0.73263 0.60423 0.0
H1627 H 0.33849 0.744 0.63382 0.0
H1628 H 0.30226 0.68976 0.62647 0.0
H1629 H 0.3115 0.67849 0.59621 0.0
H1630 H 0.28711 0.71795 0.63386 0.0
H1631 H 0.33874 0.70359 0.66446 0.0
H1632 H 0.36962 0.70396 0.67025 0.0
H1633 H 0.38164 0.76566 0.68354 0.0
H1634 H 0.35083 0.76564 0.67763 0.0
H1635 H 0.26539 0.74321 0.727 0.0
H1636 H 0.27406 0.72803 0.69786 0.0
H1637 H 0.31164 0.7801 0.69977 0.0
H1638 H 0.30365 0.79491 0.72955 0.0
H1639 H 0.32555 0.75055 0.69578 0.0
H1640 H 0.27353 0.76467 0.66558 0.0
H1641 H 0.2426 0.76397 0.66045 0.0
H1642 H 0.23105 0.70231 0.64637 0.0
H1643 H 0.26192 0.70263 0.65169 0.0
C1644 C 0.33846 0.72293 0.60907 0.0
C1645 C 0.33066 0.70465 0.59792 0.0
C1646 C 0.33293 0.72944 0.62607 0.0
C1647 C 0.31983 0.71761 0.63248 0.0
C1648 C 0.31243 0.69907 0.62176 0.0
C1649 C 0.31777 0.69264 0.60455 0.0
C1650 C 0.31305 0.72524 0.64958 0.0
C1651 C 0.29545 0.72475 0.64755 0.0
C1652 C 0.32401 0.73452 0.66721 0.0
C1653 C 0.34252 0.7346 0.67057 0.0
C1654 C 0.34799 0.71723 0.66851 0.0
C1655 C 0.36547 0.71738 0.67183 0.0
C1656 C 0.37759 0.73483 0.67725 0.0
C1657 C 0.37225 0.75216 0.67931 0.0
C1658 C 0.35479 0.75209 0.67598 0.0
C1659 C 0.27543 0.75141 0.72109 0.0
C1660 C 0.28409 0.77006 0.73055 0.0
C1661 C 0.28025 0.7428 0.70438 0.0
C1662 C 0.29341 0.753 0.69663 0.0
C1663 C 0.30148 0.772 0.7056 0.0
C1664 C 0.29687 0.78047 0.7225 0.0
C1665 C 0.29967 0.74351 0.68 0.0
C1666 C 0.31718 0.74362 0.68215 0.0
C1667 C 0.2886 0.73386 0.66253 0.0
C1668 C 0.27003 0.73368 0.65922 0.0
C1669 C 0.26439 0.75096 0.66153 0.0
C1670 C 0.24687 0.75063 0.65857 0.0
C1671 C 0.23486 0.7331 0.65314 0.0
C1672 C 0.24036 0.71587 0.6506 0.0
C1673 C 0.25787 0.71612 0.65357 0.0
H1674 H 0.2213 0.73288 0.65085 0.0
H1675 H 0.39111 0.73491 0.67986 0.0
H1676 H 0.62121 0.03199 0.83091 0.0
H1677 H 0.60815 0.03549 0.86012 0.0
H1678 H 0.63216 0.99249 0.88009 0.0
H1679 H 0.6457 0.98937 0.85113 0.0
H1680 H 0.59713 0.98644 0.88474 0.0
H1681 H 0.64669 0.03823 0.90212 0.0
H1682 H 0.6667 0.06737 0.89851 0.0
H1683 H 0.62631 0.09806 0.89804 0.0
H1684 H 0.60598 0.06899 0.90134 0.0
H1685 H 0.58638 0.01181 0.98732 0.0
H1686 H 0.60124 0.00953 0.95929 0.0
H1687 H 0.5636 0.03311 0.92808 0.0
H1688 H 0.54833 0.03466 0.95565 0.0
H1689 H 0.60594 0.04887 0.92981 0.0
H1690 H 0.55585 0.99701 0.90828 0.0
H1691 H 0.53523 0.96852 0.91221 0.0
H1692 H 0.57589 0.93874 0.9203 0.0
H1693 H 0.59683 0.96728 0.91675 0.0
C1694 C 0.62396 0.02341 0.84159 0.0
C1695 C 0.63483 0.01052 0.83842 0.0
C1696 C 0.61637 0.02541 0.85844 0.0
C1697 C 0.61896 0.01429 0.87274 0.0
C1698 C 0.62974 1.00132 0.86956 0.0
C1699 C 0.63767 0.99965 0.8529 0.0
C1700 C 0.61044 0.01619 0.89076 0.0
C1701 C 0.59932 1.00012 0.89461 0.0
C1702 C 0.61267 0.03396 0.90389 0.0
C1703 C 0.62478 0.05138 0.90174 0.0
C1704 C 0.64204 0.05114 0.90103 0.0
C1705 C 0.65345 0.06765 0.89909 0.0
C1706 C 0.64777 0.08454 0.89798 0.0
C1707 C 0.63068 0.08495 0.89886 0.0
C1708 C 0.61921 0.06847 0.90077 0.0
C1709 C 0.58126 0.01664 0.97457 0.0
C1710 C 0.56602 0.02349 0.97407 0.0
C1711 C 0.58981 0.01527 0.95839 0.0
C1712 C 0.58371 0.02112 0.94123 0.0
C1713 C 0.56876 0.02844 0.94092 0.0
C1714 C 0.55997 0.02933 0.95685 0.0
C1715 C 0.59263 0.0192 0.9236 0.0
C1716 C 0.60382 0.03523 0.91989 0.0
C1717 C 0.59032 1.0015 0.91048 0.0
C1718 C 0.57791 0.98433 0.91257 0.0
C1719 C 0.56042 0.98447 0.91115 0.0
C1720 C 0.54867 0.96831 0.91324 0.0
C1721 C 0.55425 0.95186 0.91656 0.0
C1722 C 0.5716 0.95152 0.91776 0.0
C1723 C 0.58342 0.96768 0.91572 0.0
H1724 H 0.54509 0.93937 0.9181 0.0
H1725 H 0.65663 0.09732 0.8965 0.0
H1726 H 0.27276 0.35342 0.08939 0.0
H1727 H 0.2665 0.33766 0.11651 0.0
H1728 H 0.31966 0.33529 0.1301 0.0
H1729 H 0.32568 0.34982 0.10274 0.0
H1730 H 0.303 0.30444 0.13498 0.0
H1731 H 0.29847 0.36981 0.15602 0.0
H1732 H 0.28713 0.39883 0.15414 0.0
H1733 H 0.23647 0.367 0.15477 0.0
H1734 H 0.2475 0.33773 0.15639 0.0
H1735 H 0.3046 0.28973 0.2329 0.0
H1736 H 0.30942 0.3057 0.20539 0.0
H1737 H 0.25488 0.29315 0.18508 0.0
H1738 H 0.25009 0.27708 0.21213 0.0
H1739 H 0.27127 0.331 0.1838 0.0
H1740 H 0.27659 0.26602 0.1636 0.0
H1741 H 0.28844 0.23751 0.16648 0.0
H1742 H 0.33879 0.26991 0.16549 0.0
H1743 H 0.32725 0.29871 0.16291 0.0
C1744 C 0.28305 0.34938 0.09808 0.0
C1745 C 0.29971 0.35289 0.09371 0.0
C1746 C 0.27951 0.34051 0.11376 0.0
C1747 C 0.29265 0.33546 0.12576 0.0
C1748 C 0.3092 0.33886 0.12121 0.0
C1749 C 0.31264 0.34729 0.10543 0.0
C1750 C 0.28951 0.32661 0.14303 0.0
C1751 C 0.29626 0.31053 0.14573 0.0
C1752 C 0.28039 0.33404 0.15708 0.0
C1753 C 0.27377 0.35157 0.15609 0.0
C1754 C 0.2849 0.36899 0.15561 0.0
C1755 C 0.27853 0.38548 0.15461 0.0
C1756 C 0.26108 0.38475 0.15427 0.0
C1757 C 0.24997 0.36754 0.15499 0.0
C1758 C 0.25628 0.351 0.15595 0.0
C1759 C 0.29369 0.29063 0.22269 0.0
C1760 C 0.27698 0.28221 0.22469 0.0
C1761 C 0.29643 0.29964 0.20692 0.0
C1762 C 0.28249 0.30061 0.19311 0.0
C1763 C 0.26583 0.29266 0.1955 0.0
C1764 C 0.26312 0.2834 0.21096 0.0
C1765 C 0.2851 0.30929 0.17577 0.0
C1766 C 0.27812 0.32514 0.17304 0.0
C1767 C 0.29416 0.30182 0.16181 0.0
C1768 C 0.3011 0.28455 0.1633 0.0
C1769 C 0.29021 0.2671 0.16418 0.0
C1770 C 0.29687 0.25089 0.16572 0.0
C1771 C 0.31437 0.25191 0.16623 0.0
C1772 C 0.32525 0.26915 0.16514 0.0
C1773 C 0.31866 0.28542 0.16363 0.0
H1774 H 0.3195 0.23934 0.16742 0.0
H1775 H 0.25617 0.39753 0.1535 0.0
H1776 H 0.19683 0.86859 0.02694 0.0
H1777 H 0.17492 0.88711 0.031 0.0
H1778 H 0.19243 0.9199 0.98923 0.0
H1779 H 0.21427 0.90144 0.98491 0.0
H1780 H 0.19693 0.93979 0.02954 0.0
H1781 H 0.15445 0.89656 0.97853 0.0
H1782 H 0.13642 0.86489 0.96226 0.0
H1783 H 0.1128 0.86089 0.01235 0.0
H1784 H 0.13089 0.89242 0.02906 0.0
H1785 H 0.14663 0.00806 0.02794 0.0
H1786 H 0.16315 0.98349 0.02249 0.0
H1787 H 0.13164 0.94802 0.05328 0.0
H1788 H 0.11468 0.97241 0.0581 0.0
H1789 H 0.13353 0.92775 0.02043 0.0
H1790 H 0.17425 0.96888 0.07199 0.0
H1791 H 0.19257 0.99934 0.091 0.0
H1792 H 0.22012 0.00567 0.04413 0.0
H1793 H 0.20179 0.97538 0.02472 0.0
C1794 C 0.19562 0.87929 0.01811 0.0
C1795 C 0.2075 0.88395 0.00598 0.0
C1796 C 0.18306 0.88975 0.02038 0.0
C1797 C 0.18231 0.90487 0.01053 0.0
C1798 C 0.19295 0.90821 0.99692 0.0
C1799 C 0.20541 0.89767 0.99451 0.0
C1800 C 0.17311 0.91949 0.01722 0.0
C1801 C 0.18306 0.93733 0.02731 0.0
C1802 C 0.15511 0.91566 0.01521 0.0
C1803 C 0.14416 0.89676 0.00512 0.0
C1804 C 0.14553 0.88885 0.98615 0.0
C1805 C 0.13527 0.87094 0.97683 0.0
C1806 C 0.12351 0.86086 0.98629 0.0
C1807 C 0.12194 0.8687 0.00506 0.0
C1808 C 0.13218 0.8866 0.01445 0.0
C1809 C 0.14368 0.99533 0.03413 0.0
C1810 C 0.12962 0.99209 0.04359 0.0
C1811 C 0.15303 0.98127 0.03095 0.0
C1812 C 0.14865 0.964 0.0376 0.0
C1813 C 0.13517 0.96124 0.04803 0.0
C1814 C 0.12567 0.9752 0.05097 0.0
C1815 C 0.15737 0.94837 0.03234 0.0
C1816 C 0.1474 0.93027 0.02272 0.0
C1817 C 0.17543 0.95175 0.03521 0.0
C1818 C 0.18657 0.96992 0.04686 0.0
C1819 C 0.18414 0.97684 0.06569 0.0
C1820 C 0.19453 0.99406 0.07654 0.0
C1821 C 0.20748 1.00445 0.06876 0.0
C1822 C 0.21008 0.99761 0.05013 0.0
C1823 C 0.19971 0.9804 0.03921 0.0
H1824 H 0.21551 0.01779 0.07719 0.0
H1825 H 0.11558 0.84699 0.97904 0.0
H1826 H 0.71645 0.5913 0.02394 0.0
H1827 H 0.68678 0.57738 0.02523 0.0
H1828 H 0.67004 0.61864 0.99408 0.0
H1829 H 0.70009 0.63283 0.99266 0.0
H1830 H 0.65212 0.61227 0.02553 0.0
H1831 H 0.66495 0.57502 0.96994 0.0
H1832 H 0.68199 0.55636 0.95163 0.0
H1833 H 0.67709 0.51542 0.98912 0.0
H1834 H 0.66024 0.53402 0.00785 0.0
H1835 H 0.56471 0.55521 0.00699 0.0
H1836 H 0.59246 0.57517 0.00496 0.0
H1837 H 0.6181 0.53475 0.02824 0.0
H1838 H 0.59044 0.51511 0.03052 0.0
H1839 H 0.63034 0.5428 0.99783 0.0
H1840 H 0.61896 0.58089 0.0546 0.0
H1841 H 0.6021 0.59953 0.07323 0.0
H1842 H 0.60407 0.6387 0.03383 0.0
H1843 H 0.62076 0.62011 0.0148 0.0
C1844 C 0.70656 0.59757 0.01736 0.0
C1845 C 0.71081 0.6132 0.00807 0.0
C1846 C 0.6895 0.58951 0.01811 0.0
C1847 C 0.67605 0.59678 0.00962 0.0
C1848 C 0.68015 0.61273 1.00074 0.0
C1849 C 0.69735 0.62078 0.99985 0.0
C1850 C 0.65783 0.58707 0.00961 0.0
C1851 C 0.64724 0.59716 0.01917 0.0
C1852 C 0.65143 0.56726 1.00164 0.0
C1853 C 0.66146 0.55599 0.99037 0.0
C1854 C 0.66762 0.56212 0.97436 0.0
C1855 C 0.67723 0.55154 0.9639 0.0
C1856 C 0.68065 0.53474 0.96923 0.0
C1857 C 0.67444 0.52845 0.98502 0.0
C1858 C 0.66485 0.53899 0.99555 0.0
C1859 C 0.57626 0.55106 0.01245 0.0
C1860 C 0.57534 0.53391 0.01957 0.0
C1861 C 0.5922 0.56234 0.01103 0.0
C1862 C 0.60757 0.55668 0.01663 0.0
C1863 C 0.60656 0.53957 0.02382 0.0
C1864 C 0.59069 0.52835 0.0252 0.0
C1865 C 0.62466 0.56781 0.01419 0.0
C1866 C 0.63509 0.55795 0.00409 0.0
C1867 C 0.63085 0.58778 0.0217 0.0
C1868 C 0.62092 0.599 0.03317 0.0
C1869 C 0.61568 0.59339 0.04983 0.0
C1870 C 0.60618 0.60396 0.06047 0.0
C1871 C 0.60197 0.62026 0.05468 0.0
C1872 C 0.60731 0.62605 0.03827 0.0
C1873 C 0.61679 0.61552 0.02756 0.0
H1874 H 0.59461 0.62842 0.06294 0.0
H1875 H 0.68809 0.52657 0.9611 0.0
H1876 H 0.69508 0.51055 0.30729 0.0
H1877 H 0.70833 0.4843 0.29557 0.0
H1878 H 0.66061 0.45442 0.2584 0.0
H1879 H 0.64735 0.48094 0.26966 0.0
H1880 H 0.67556 0.43438 0.28696 0.0
H1881 H 0.68886 0.46526 0.23561 0.0
H1882 H 0.69932 0.49208 0.21982 0.0
H1883 H 0.74998 0.49981 0.2521 0.0
H1884 H 0.73975 0.47323 0.26837 0.0
H1885 H 0.71646 0.35801 0.26446 0.0
H1886 H 0.69999 0.38203 0.25904 0.0
H1887 H 0.74405 0.42704 0.28698 0.0
H1888 H 0.76067 0.40297 0.29213 0.0
H1889 H 0.72723 0.43682 0.2562 0.0
H1890 H 0.71244 0.41014 0.31158 0.0
H1891 H 0.70216 0.38363 0.3279 0.0
H1892 H 0.65418 0.36853 0.28845 0.0
H1893 H 0.66431 0.3948 0.27172 0.0
C1894 C 0.68756 0.49861 0.29626 0.0
C1895 C 0.67023 0.4977 0.28937 0.0
C1896 C 0.69513 0.4837 0.28955 0.0
C1897 C 0.6854 0.46756 0.27613 0.0
C1898 C 0.66828 0.4669 0.26867 0.0
C1899 C 0.66079 0.48204 0.27505 0.0
C1900 C 0.69271 0.4506 0.27187 0.0
C1901 C 0.68658 0.43464 0.27978 0.0
C1902 C 0.70726 0.45127 0.26288 0.0
C1903 C 0.7135 0.46736 0.25333 0.0
C1904 C 0.70219 0.47281 0.2395 0.0
C1905 C 0.70809 0.48794 0.23044 0.0
C1906 C 0.72529 0.49767 0.23499 0.0
C1907 C 0.73665 0.49227 0.24861 0.0
C1908 C 0.73081 0.47716 0.25775 0.0
C1909 C 0.72266 0.37296 0.26936 0.0
C1910 C 0.73981 0.37856 0.27882 0.0
C1911 C 0.71326 0.3867 0.26621 0.0
C1912 C 0.72076 0.40628 0.27283 0.0
C1913 C 0.73805 0.41197 0.2817 0.0
C1914 C 0.74751 0.39822 0.28467 0.0
C1915 C 0.71036 0.42082 0.27176 0.0
C1916 C 0.71596 0.43634 0.26296 0.0
C1917 C 0.69535 0.41983 0.28006 0.0
C1918 C 0.68919 0.40426 0.29028 0.0
C1919 C 0.69974 0.40108 0.30633 0.0
C1920 C 0.69394 0.38611 0.31565 0.0
C1921 C 0.67754 0.37436 0.30918 0.0
C1922 C 0.66689 0.37761 0.29342 0.0
C1923 C 0.67265 0.39254 0.28401 0.0
H1924 H 0.67307 0.36277 0.31641 0.0
H1925 H 0.72984 0.50937 0.22792 0.0
H1926 H 0.80971 0.38922 0.54656 0.0
H1927 H 0.83866 0.40372 0.54256 0.0
H1928 H 0.81767 0.43161 0.49871 0.0
H1929 H 0.78863 0.41712 0.50254 0.0
H1930 H 0.84645 0.41437 0.49059 0.0
H1931 H 0.82881 0.45663 0.54137 0.0
H1932 H 0.81768 0.46196 0.5719 0.0
H1933 H 0.86028 0.44454 0.60152 0.0
H1934 H 0.8715 0.43883 0.57105 0.0
H1935 H 0.91223 0.48843 0.48329 0.0
H1936 H 0.88494 0.47101 0.48877 0.0
H1937 H 0.91035 0.45782 0.54075 0.0
H1938 H 0.9376 0.4766 0.53626 0.0
H1939 H 0.88066 0.46441 0.5459 0.0
H1940 H 0.90073 0.4254 0.4982 0.0
H1941 H 0.91246 0.41729 0.46853 0.0
H1942 H 0.86705 0.42454 0.43411 0.0
H1943 H 0.85517 0.43307 0.46362 0.0
C1944 C 0.81126 0.39829 0.53594 0.0
C1945 C 0.79699 0.40226 0.52499 0.0
C1946 C 0.82775 0.40649 0.53367 0.0
C1947 C 0.83013 0.4187 0.52042 0.0
C1948 C 0.81594 0.42215 0.50897 0.0
C1949 C 0.79943 0.41406 0.51133 0.0
C1950 C 0.84739 0.42919 0.5196 0.0
C1951 C 0.85394 0.42543 0.50255 0.0
C1952 C 0.85726 0.44299 0.53557 0.0
C1953 C 0.8509 0.44717 0.55397 0.0
C1954 C 0.83575 0.45388 0.5544 0.0
C1955 C 0.82943 0.45696 0.57167 0.0
C1956 C 0.83825 0.45355 0.58863 0.0
C1957 C 0.85346 0.44716 0.58837 0.0
C1958 C 0.85981 0.44402 0.57111 0.0
C1959 C 0.91198 0.48234 0.4962 0.0
C1960 C 0.92711 0.48368 0.50921 0.0
C1961 C 0.89641 0.47213 0.49914 0.0
C1962 C 0.89579 0.46268 0.51483 0.0
C1963 C 0.91066 0.46485 0.52843 0.0
C1964 C 0.92622 0.4754 0.52572 0.0
C1965 C 0.87966 0.45005 0.5166 0.0
C1966 C 0.87333 0.4533 0.53389 0.0
C1967 C 0.87018 0.43545 0.50097 0.0
C1968 C 0.87713 0.43003 0.48314 0.0
C1969 C 0.89329 0.42539 0.48431 0.0
C1970 C 0.89997 0.42072 0.46752 0.0
C1971 C 0.89052 0.42044 0.44945 0.0
C1972 C 0.87436 0.42479 0.44813 0.0
C1973 C 0.86764 0.42953 0.46488 0.0
H1974 H 0.89572 0.41683 0.43646 0.0
H1975 H 0.83331 0.4559 0.60199 0.0
H1976 H 0.37935 0.10112 0.29981 0.0
H1977 H 0.36626 0.12831 0.29822 0.0
H1978 H 0.35683 0.1137 0.236 0.0
H1979 H 0.37118 0.0866 0.23761 0.0
H1980 H 0.36152 0.15026 0.24335 0.0
H1981 H 0.32396 0.10566 0.27056 0.0
H1982 H 0.31599 0.08467 0.29348 0.0
H1983 H 0.33309 0.1329 0.34083 0.0
H1984 H 0.34133 0.1541 0.31821 0.0
H1985 H 0.28444 0.19941 0.26197 0.0
H1986 H 0.299 0.17262 0.26065 0.0
H1987 H 0.34787 0.21272 0.27326 0.0
H1988 H 0.33337 0.23959 0.27444 0.0
H1989 H 0.3218 0.16267 0.28868 0.0
H1990 H 0.37031 0.20067 0.25592 0.0
H1991 H 0.37473 0.22031 0.23091 0.0
H1992 H 0.33157 0.18225 0.19214 0.0
H1993 H 0.32673 0.16272 0.21715 0.0
C1994 C 0.3745 0.10341 0.28561 0.0
C1995 C 0.37638 0.09093 0.26886 0.0
C1996 C 0.36667 0.11921 0.28472 0.0
C1997 C 0.35956 0.12332 0.267 0.0
C1998 C 0.3618 0.11122 0.25008 0.0
C1999 C 0.37008 0.09547 0.25097 0.0
C2000 C 0.35007 0.14006 0.26647 0.0
C2001 C 0.35294 0.15276 0.25344 0.0
C2002 C 0.33839 0.14409 0.27919 0.0
C2003 C 0.33339 0.13139 0.29273 0.0
C2004 C 0.32609 0.11174 0.28587 0.0
C2005 C 0.32152 0.09981 0.2988 0.0
C2006 C 0.32408 0.10743 0.3186 0.0
C2007 C 0.33114 0.127 0.3255 0.0
C2008 C 0.33575 0.13898 0.31264 0.0
C2009 C 0.29831 0.2027 0.26427 0.0
C2010 C 0.30748 0.22213 0.26814 0.0
C2011 C 0.30674 0.18713 0.26354 0.0
C2012 C 0.32481 0.19007 0.26642 0.0
C2013 C 0.33401 0.20948 0.27032 0.0
C2014 C 0.32558 0.22509 0.27115 0.0
C2015 C 0.3338 0.17303 0.26618 0.0
C2016 C 0.33063 0.1602 0.27887 0.0
C2017 C 0.3451 0.16885 0.25323 0.0
C2018 C 0.34811 0.18043 0.23833 0.0
C2019 C 0.36177 0.19659 0.24206 0.0
C2020 C 0.36431 0.20771 0.22793 0.0
C2021 C 0.35342 0.20255 0.20996 0.0
C2022 C 0.33995 0.18628 0.20609 0.0
C2023 C 0.33725 0.17525 0.22025 0.0
H2024 H 0.35543 0.21113 0.19901 0.0
H2025 H 0.32054 0.09817 0.32859 0.0
H2026 H 0.29618 0.09791 0.51544 0.0
H2027 H 0.32257 0.08657 0.52114 0.0
H2028 H 0.35216 0.14294 0.52043 0.0
H2029 H 0.32566 0.15393 0.51345 0.0
H2030 H 0.36609 0.11988 0.50238 0.0
H2031 H 0.34916 0.12189 0.56378 0.0
H2032 H 0.32991 0.11582 0.58721 0.0
H2033 H 0.32446 0.055 0.56944 0.0
H2034 H 0.34349 0.0607 0.54571 0.0
H2035 H 0.44447 0.09233 0.53437 0.0
H2036 H 0.4203 0.10821 0.53337 0.0
H2037 H 0.38514 0.05311 0.52432 0.0
H2038 H 0.40912 0.03728 0.52547 0.0
H2039 H 0.37586 0.0784 0.54995 0.0
H2040 H 0.39303 0.07894 0.48686 0.0
H2041 H 0.4143 0.08739 0.46612 0.0
H2042 H 0.42149 0.14719 0.49105 0.0
H2043 H 0.40045 0.13904 0.51213 0.0
C2044 C 0.30831 0.10797 0.51673 0.0
C2045 C 0.30873 0.12689 0.51409 0.0
C2046 C 0.3235 0.10149 0.52012 0.0
C2047 C 0.33962 0.11391 0.52163 0.0
C2048 C 0.34003 0.13295 0.51934 0.0
C2049 C 0.3248 0.1393 0.51547 0.0
C2050 C 0.3559 0.10683 0.52477 0.0
C2051 C 0.36826 0.11109 0.51305 0.0
C2052 C 0.35901 0.09523 0.53858 0.0
C2053 C 0.34764 0.09172 0.55288 0.0
C2054 C 0.34377 0.10722 0.5648 0.0
C2055 C 0.3329 0.10384 0.57813 0.0
C2056 C 0.32594 0.08503 0.57979 0.0
C2057 C 0.32985 0.06956 0.56814 0.0
C2058 C 0.34069 0.07285 0.55476 0.0
C2059 C 0.43159 0.0836 0.53207 0.0
C2060 C 0.42885 0.0635 0.5301 0.0
C2061 C 0.41774 0.09271 0.5315 0.0
C2062 C 0.40076 0.0819 0.52862 0.0
C2063 C 0.39804 0.06185 0.52668 0.0
C2064 C 0.41184 0.0528 0.52737 0.0
C2065 C 0.38573 0.09118 0.52734 0.0
C2066 C 0.37364 0.08733 0.53941 0.0
C2067 C 0.38306 0.10351 0.5142 0.0
C2068 C 0.39528 0.10838 0.50112 0.0
C2069 C 0.3992 0.09388 0.48793 0.0
C2070 C 0.41122 0.09861 0.47614 0.0
C2071 C 0.41927 0.11781 0.47729 0.0
C2072 C 0.41526 0.13233 0.49018 0.0
C2073 C 0.40328 0.12766 0.50204 0.0
H2074 H 0.42859 0.12145 0.46817 0.0
H2075 H 0.31752 0.08245 0.59012 0.0
H2076 H 0.65193 0.59481 0.2905 0.0
H2077 H 0.66949 0.62381 0.28362 0.0
H2078 H 0.71448 0.61225 0.31563 0.0
H2079 H 0.69694 0.58404 0.32334 0.0
H2080 H 0.71489 0.64782 0.32533 0.0
H2081 H 0.70287 0.60377 0.26254 0.0
H2082 H 0.68326 0.58279 0.23407 0.0
H2083 H 0.66154 0.63019 0.22235 0.0
H2084 H 0.68092 0.65141 0.25085 0.0
H2085 H 0.7826 0.70908 0.30104 0.0
H2086 H 0.76203 0.68058 0.30374 0.0
H2087 H 0.72273 0.69654 0.26623 0.0
H2088 H 0.74405 0.72363 0.26142 0.0
H2089 H 0.71661 0.66083 0.25924 0.0
H2090 H 0.72835 0.7053 0.31972 0.0
H2091 H 0.74673 0.7273 0.34843 0.0
H2092 H 0.76681 0.68055 0.36522 0.0
H2093 H 0.74873 0.65833 0.33648 0.0
C2094 C 0.66557 0.59852 0.29607 0.0
C2095 C 0.67303 0.58722 0.30759 0.0
C2096 C 0.67563 0.61502 0.292 0.0
C2097 C 0.69341 0.62016 0.29888 0.0
C2098 C 0.70081 0.6087 0.3102 0.0
C2099 C 0.69075 0.59254 0.31462 0.0
C2100 C 0.70445 0.63771 0.29503 0.0
C2101 C 0.71537 0.65052 0.31083 0.0
C2102 C 0.70459 0.64181 0.27624 0.0
C2103 C 0.69325 0.62912 0.25889 0.0
C2104 C 0.69387 0.60969 0.25392 0.0
C2105 C 0.6828 0.59776 0.23778 0.0
C2106 C 0.67113 0.60514 0.22643 0.0
C2107 C 0.67057 0.62449 0.23115 0.0
C2108 C 0.68161 0.63648 0.24727 0.0
C2109 C 0.76959 0.70646 0.29329 0.0
C2110 C 0.76474 0.71907 0.28166 0.0
C2111 C 0.75774 0.69024 0.29501 0.0
C2112 C 0.74051 0.68678 0.28597 0.0
C2113 C 0.73581 0.69901 0.27372 0.0
C2114 C 0.74791 0.71478 0.27129 0.0
C2115 C 0.72751 0.67058 0.28952 0.0
C2116 C 0.71611 0.65816 0.27374 0.0
C2117 C 0.72669 0.66694 0.30839 0.0
C2118 C 0.73723 0.68018 0.32593 0.0
C2119 C 0.7367 0.69973 0.32953 0.0
C2120 C 0.74708 0.71223 0.34578 0.0
C2121 C 0.75791 0.7053 0.35861 0.0
C2122 C 0.75839 0.68587 0.35526 0.0
C2123 C 0.74807 0.67331 0.33902 0.0
H2124 H 0.7659 0.71499 0.37116 0.0
H2125 H 0.66255 0.59588 0.21397 0.0
H2126 H 0.87335 0.47824 0.73691 0.0
H2127 H 0.85866 0.44408 0.73303 0.0
H2128 H 0.85592 0.45284 0.79369 0.0
H2129 H 0.86985 0.48659 0.79753 0.0
H2130 H 0.86891 0.41902 0.77927 0.0
H2131 H 0.82113 0.44893 0.76389 0.0
H2132 H 0.80479 0.46707 0.7448 0.0
H2133 H 0.80137 0.4253 0.6933 0.0
H2134 H 0.81794 0.40707 0.71205 0.0
H2135 H 0.81206 0.33708 0.79563 0.0
H2136 H 0.82655 0.36956 0.79349 0.0
H2137 H 0.81521 0.35421 0.7313 0.0
H2138 H 0.80097 0.32143 0.73337 0.0
H2139 H 0.81017 0.39027 0.74273 0.0
H2140 H 0.85489 0.35969 0.75352 0.0
H2141 H 0.87389 0.34076 0.76737 0.0
H2142 H 0.88646 0.38174 0.82093 0.0
H2143 H 0.86713 0.40071 0.80756 0.0
C2144 C 0.8695 0.47296 0.74939 0.0
C2145 C 0.87281 0.48562 0.76752 0.0
C2146 C 0.86105 0.45331 0.74716 0.0
C2147 C 0.85602 0.44556 0.76307 0.0
C2148 C 0.85952 0.45814 0.7811 0.0
C2149 C 0.86752 0.47769 0.78323 0.0
C2150 C 0.84742 0.4245 0.76143 0.0
C2151 C 0.85597 0.41288 0.77147 0.0
C2152 C 0.83082 0.41581 0.75053 0.0
C2153 C 0.82097 0.42681 0.73931 0.0
C2154 C 0.81707 0.44374 0.74846 0.0
C2155 C 0.80772 0.45401 0.73771 0.0
C2156 C 0.8021 0.44739 0.71783 0.0
C2157 C 0.80577 0.43045 0.70868 0.0
C2158 C 0.81513 0.42015 0.71936 0.0
C2159 C 0.81257 0.34052 0.78144 0.0
C2160 C 0.80518 0.32635 0.76469 0.0
C2161 C 0.821 0.35924 0.78022 0.0
C2162 C 0.82219 0.36472 0.76221 0.0
C2163 C 0.81457 0.35068 0.74543 0.0
C2164 C 0.80641 0.33178 0.74664 0.0
C2165 C 0.83149 0.38493 0.76111 0.0
C2166 C 0.8231 0.39637 0.75058 0.0
C2167 C 0.8485 0.3933 0.77102 0.0
C2168 C 0.85936 0.38148 0.77963 0.0
C2169 C 0.86144 0.36449 0.76838 0.0
C2170 C 0.87231 0.35378 0.77612 0.0
C2171 C 0.88134 0.36002 0.79502 0.0
C2172 C 0.8794 0.3769 0.80631 0.0
C2173 C 0.86846 0.38762 0.79867 0.0
H2174 H 0.88994 0.35184 0.80082 0.0
H2175 H 0.79486 0.45535 0.70954 0.0
H2176 H 0.07256 0.83505 0.09864 0.0
H2177 H 0.07385 0.86236 0.08169 0.0
H2178 H 0.0213 0.86257 0.08687 0.0
H2179 H 0.01975 0.83529 0.10254 0.0
H2180 H 0.02409 0.86632 0.05322 0.0
H2181 H 0.06034 0.89685 0.11582 0.0
H2182 H 0.08565 0.90165 0.14134 0.0
H2183 H 0.11889 0.91248 0.10031 0.0
H2184 H 0.09378 0.90753 0.07452 0.0
H2185 H 0.01081 0.95693 0.04093 0.0
H2186 H 0.01536 0.92852 0.05333 0.0
H2187 H 0.06641 0.93782 0.03985 0.0
H2188 H 0.06213 0.96678 0.028 0.0
H2189 H 0.0676 0.92772 0.07321 0.0
H2190 H 0.03144 0.90114 0.01179 0.0
H2191 H 0.0063 0.89674 0.98619 0.0
H2192 H 0.97285 0.8783 0.02475 0.0
H2193 H 0.99778 0.88281 0.05065 0.0
C2194 C 0.06133 0.84096 0.09606 0.0
C2195 C 0.046 0.83269 0.1017 0.0
C2196 C 0.06208 0.85667 0.08647 0.0
C2197 C 0.04764 0.86472 0.0829 0.0
C2198 C 0.03258 0.85665 0.08905 0.0
C2199 C 0.03173 0.8409 0.09811 0.0
C2200 C 0.04755 0.88124 0.07257 0.0
C2201 C 0.03358 0.87978 0.05779 0.0
C2202 C 0.06019 0.89867 0.07774 0.0
C2203 C 0.07521 0.90159 0.09323 0.0
C2204 C 0.07306 0.90011 0.11224 0.0
C2205 C 0.08736 0.90288 0.12674 0.0
C2206 C 0.10387 0.9073 0.12243 0.0
C2207 C 0.10611 0.90901 0.10362 0.0
C2208 C 0.09185 0.90623 0.08906 0.0
C2209 C 0.02297 0.95288 0.0404 0.0
C2210 C 0.03604 0.9641 0.03325 0.0
C2211 C 0.02555 0.93652 0.04747 0.0
C2212 C 0.04112 0.93065 0.04721 0.0
C2213 C 0.05424 0.9419 0.04016 0.0
C2214 C 0.05174 0.95844 0.03329 0.0
C2215 C 0.04372 0.913 0.0546 0.0
C2216 C 0.05818 0.9142 0.06862 0.0
C2217 C 0.0315 0.89528 0.04878 0.0
C2218 C 0.01648 0.89242 0.03318 0.0
C2219 C 0.01872 0.89624 0.01483 0.0
C2220 C 0.00451 0.89372 1.00027 0.0
C2221 C 0.98799 0.88727 0.00385 0.0
C2222 C 0.98565 0.88329 0.02199 0.0
C2223 C 0.99982 0.8858 0.03661 0.0
H2224 H 0.977 0.88533 0.99256 0.0
H2225 H 0.11492 0.90944 0.13369 0.0
H2226 H 0.94337 0.23706 0.89343 0.0
H2227 H 0.91539 0.24152 0.87975 0.0
H2228 H 0.93851 0.27209 0.83928 0.0
H2229 H 0.96672 0.26833 0.85349 0.0
H2230 H 0.91578 0.28949 0.8527 0.0
H2231 H 0.91512 0.22293 0.82724 0.0
H2232 H 0.91757 0.19005 0.83025 0.0
H2233 H 0.87671 0.18545 0.86312 0.0
H2234 H 0.87418 0.2184 0.8605 0.0
H2235 H 0.84546 0.28386 0.78038 0.0
H2236 H 0.87168 0.28118 0.80001 0.0
H2237 H 0.84196 0.25077 0.83599 0.0
H2238 H 0.81536 0.25303 0.81581 0.0
H2239 H 0.86679 0.23355 0.82825 0.0
H2240 H 0.86494 0.29796 0.8512 0.0
H2241 H 0.86281 0.33139 0.85074 0.0
H2242 H 0.9084 0.34103 0.82574 0.0
H2243 H 0.91044 0.30747 0.82532 0.0
C2244 C 0.9426 0.24492 0.88177 0.0
C2245 C 0.9574 0.25239 0.87464 0.0
C2246 C 0.92647 0.24728 0.87378 0.0
C2247 C 0.92466 0.25683 0.85817 0.0
C2248 C 0.93948 0.26459 0.85125 0.0
C2249 C 0.95564 0.26241 0.85938 0.0
C2250 C 0.90741 0.25885 0.84907 0.0
C2251 C 0.90515 0.27721 0.8471 0.0
C2252 C 0.8932 0.243 0.84252 0.0
C2253 C 0.89458 0.22315 0.84383 0.0
C2254 C 0.90673 0.21492 0.83519 0.0
C2255 C 0.90812 0.19628 0.83682 0.0
C2256 C 0.89733 0.18569 0.84692 0.0
C2257 C 0.88508 0.19368 0.85533 0.0
C2258 C 0.88365 0.21233 0.85377 0.0
C2259 C 0.84443 0.2767 0.79255 0.0
C2260 C 0.82829 0.26867 0.79653 0.0
C2261 C 0.85952 0.27527 0.80388 0.0
C2262 C 0.85896 0.26601 0.81974 0.0
C2263 C 0.84281 0.25805 0.82389 0.0
C2264 C 0.8276 0.25942 0.81242 0.0
C2265 C 0.87529 0.26418 0.83137 0.0
C2266 C 0.87738 0.24587 0.83387 0.0
C2267 C 0.88932 0.28013 0.83857 0.0
C2268 C 0.88775 0.30012 0.83807 0.0
C2269 C 0.87436 0.30711 0.8453 0.0
C2270 C 0.87316 0.32609 0.8452 0.0
C2271 C 0.88542 0.33831 0.83816 0.0
C2272 C 0.89885 0.33153 0.8311 0.0
C2273 C 0.9 0.31251 0.83097 0.0
H2274 H 0.88456 0.35305 0.83828 0.0
H2275 H 0.89844 0.17126 0.84818 0.0
H2276 H 0.56244 0.23713 0.62069 0.0
H2277 H 0.56441 0.20481 0.60604 0.0
H2278 H 0.51735 0.19864 0.56634 0.0
H2279 H 0.51508 0.23066 0.58111 0.0
H2280 H 0.51628 0.16799 0.58171 0.0
H2281 H 0.55786 0.20558 0.55222 0.0
H2282 H 0.5836 0.23047 0.55245 0.0
H2283 H 0.61462 0.20133 0.58586 0.0
H2284 H 0.58901 0.17636 0.58599 0.0
H2285 H 0.5145 0.08212 0.52003 0.0
H2286 H 0.51684 0.11622 0.53212 0.0
H2287 H 0.56533 0.11942 0.56807 0.0
H2288 H 0.56348 0.0854 0.555 0.0
H2289 H 0.56667 0.15151 0.55606 0.0
H2290 H 0.52543 0.11344 0.58495 0.0
H2291 H 0.49984 0.0882 0.58441 0.0
H2292 H 0.46825 0.11849 0.5533 0.0
H2293 H 0.49368 0.14365 0.55324 0.0
C2294 C 0.55259 0.22899 0.60871 0.0
C2295 C 0.53857 0.23657 0.60214 0.0
C2296 C 0.55377 0.21049 0.60029 0.0
C2297 C 0.54108 0.19926 0.58498 0.0
C2298 C 0.52729 0.20696 0.57816 0.0
C2299 C 0.52604 0.22536 0.58661 0.0
C2300 C 0.54162 0.17917 0.57656 0.0
C2301 C 0.52723 0.16445 0.57588 0.0
C2302 C 0.55609 0.17436 0.56952 0.0
C2303 C 0.57151 0.18922 0.56926 0.0
C2304 C 0.57016 0.20455 0.55971 0.0
C2305 C 0.58472 0.21865 0.55975 0.0
C2306 C 0.60073 0.21751 0.5692 0.0
C2307 C 0.60221 0.20221 0.57856 0.0
C2308 C 0.58768 0.18806 0.57856 0.0
C2309 C 0.52577 0.09016 0.53032 0.0
C2310 C 0.53874 0.0811 0.53671 0.0
C2311 C 0.52706 0.10965 0.53735 0.0
C2312 C 0.541 0.12034 0.55153 0.0
C2313 C 0.55437 0.11149 0.55728 0.0
C2314 C 0.5533 0.09206 0.54982 0.0
C2315 C 0.54119 0.14039 0.5609 0.0
C2316 C 0.55572 0.15506 0.56189 0.0
C2317 C 0.52687 0.14518 0.56838 0.0
C2318 C 0.51148 0.13035 0.56896 0.0
C2319 C 0.51303 0.11467 0.57792 0.0
C2320 C 0.49855 0.10035 0.57768 0.0
C2321 C 0.48243 0.10167 0.56873 0.0
C2322 C 0.48074 0.1174 0.56013 0.0
C2323 C 0.49518 0.1317 0.56024 0.0
H2324 H 0.47124 0.09055 0.56851 0.0
H2325 H 0.61199 0.22845 0.56924 0.0
H2326 H 0.56534 0.75329 0.40288 0.0
H2327 H 0.59381 0.75754 0.39349 0.0
H2328 H 0.57473 0.77944 0.34394 0.0
H2329 H 0.54653 0.77524 0.35309 0.0
H2330 H 0.59125 0.75243 0.33338 0.0
H2331 H 0.60202 0.80872 0.38276 0.0
H2332 H 0.60383 0.82772 0.41532 0.0
H2333 H 0.64043 0.79804 0.43873 0.0
H2334 H 0.63862 0.77862 0.40634 0.0
H2335 H 0.66579 0.78822 0.29897 0.0
H2336 H 0.64073 0.78737 0.31458 0.0
H2337 H 0.66417 0.76207 0.35913 0.0
H2338 H 0.6897 0.76341 0.34386 0.0
H2339 H 0.64642 0.78957 0.37375 0.0
H2340 H 0.63542 0.73365 0.32314 0.0
H2341 H 0.63424 0.71665 0.28985 0.0
H2342 H 0.59799 0.74769 0.26833 0.0
H2343 H 0.59916 0.7651 0.30147 0.0
C2344 C 0.56727 0.75917 0.39009 0.0
C2345 C 0.55354 0.76381 0.37871 0.0
C2346 C 0.58358 0.76167 0.38477 0.0
C2347 C 0.58648 0.76883 0.36796 0.0
C2348 C 0.57287 0.77382 0.3569 0.0
C2349 C 0.55669 0.77142 0.36222 0.0
C2350 C 0.60327 0.77017 0.36108 0.0
C2351 C 0.60325 0.76072 0.34222 0.0
C2352 C 0.61909 0.78061 0.37265 0.0
C2353 C 0.61998 0.792 0.39218 0.0
C2354 C 0.61028 0.80606 0.39489 0.0
C2355 C 0.61135 0.81695 0.41331 0.0
C2356 C 0.62218 0.81403 0.4291 0.0
C2357 C 0.632 0.80024 0.4265 0.0
C2358 C 0.63096 0.78928 0.40812 0.0
C2359 C 0.66585 0.7828 0.31229 0.0
C2360 C 0.67985 0.77584 0.32008 0.0
C2361 C 0.65139 0.78219 0.32114 0.0
C2362 C 0.65043 0.77444 0.33792 0.0
C2363 C 0.66457 0.76806 0.34616 0.0
C2364 C 0.6791 0.76866 0.33729 0.0
C2365 C 0.63424 0.77202 0.34605 0.0
C2366 C 0.63439 0.78119 0.36506 0.0
C2367 C 0.61844 0.76145 0.33462 0.0
C2368 C 0.61747 0.75076 0.31474 0.0
C2369 C 0.62727 0.73692 0.31128 0.0
C2370 C 0.6266 0.72721 0.29245 0.0
C2371 C 0.61607 0.73112 0.27698 0.0
C2372 C 0.60615 0.7447 0.28032 0.0
C2373 C 0.60679 0.75447 0.29913 0.0
H2374 H 0.61558 0.72359 0.2624 0.0
H2375 H 0.62302 0.82251 0.44334 0.0
H2376 H 0.97433 0.23278 0.40416 0.0
H2377 H 0.97719 0.20914 0.42434 0.0
H2378 H 0.0296 0.213 0.41627 0.0
H2379 H 0.02682 0.23655 0.39561 0.0
H2380 H 0.0105 0.17603 0.40853 0.0
H2381 H 0.02029 0.23245 0.45951 0.0
H2382 H 0.01317 0.26119 0.47735 0.0
H2383 H 0.96635 0.22658 0.48625 0.0
H2384 H 0.9731 0.19769 0.46826 0.0
H2385 H 0.04085 0.12867 0.48045 0.0
H2386 H 0.03495 0.15034 0.45877 0.0
H2387 H 0.98373 0.14481 0.47155 0.0
H2388 H 0.98947 0.12285 0.49314 0.0
H2389 H 0.99994 0.18143 0.47603 0.0
H2390 H 0.9888 0.12558 0.42757 0.0
H2391 H 0.99292 0.09572 0.40857 0.0
H2392 H 0.03827 0.12709 0.39317 0.0
H2393 H 0.0346 0.15712 0.4124 0.0
C2394 C 0.98655 0.22877 0.40677 0.0
C2395 C 1.00033 0.23642 0.39816 0.0
C2396 C 0.98816 0.21535 0.41841 0.0
C2397 C 0.00362 0.2095 0.42182 0.0
C2398 C 0.01757 0.21745 0.41374 0.0
C2399 C 0.01598 0.2309 0.40202 0.0
C2400 C 0.00482 0.19417 0.4328 0.0
C2401 C 0.0085 0.17728 0.42341 0.0
C2402 C 1.00124 0.19555 0.45178 0.0
C2403 C 0.99713 0.21297 0.46239 0.0
C2404 C 0.00841 0.23101 0.46512 0.0
C2405 C 0.00445 0.24732 0.47529 0.0
C2406 C 0.9893 0.24572 0.48289 0.0
C2407 C 0.97807 0.22781 0.48035 0.0
C2408 C 0.98196 0.21147 0.47018 0.0
C2409 C 0.02824 0.13182 0.47839 0.0
C2410 C 0.01563 0.1242 0.4885 0.0
C2411 C 0.02488 0.14413 0.46598 0.0
C2412 C 0.00887 0.14893 0.46349 0.0
C2413 C 0.99615 0.14115 0.47333 0.0
C2414 C 0.99949 0.1288 0.48573 0.0
C2415 C 0.00602 0.16342 0.45192 0.0
C2416 C 1.00195 0.18013 0.46114 0.0
C2417 C 0.00889 0.1617 0.43265 0.0
C2418 C 0.01151 0.14359 0.42159 0.0
C2419 C 0.99978 0.12609 0.42034 0.0
C2420 C 1.00199 0.10913 0.40947 0.0
C2421 C 0.01584 0.1095 0.39966 0.0
C2422 C 0.02755 0.12682 0.40078 0.0
C2423 C 0.0254 0.14382 0.41166 0.0
H2424 H 0.01749 0.09636 0.39118 0.0
H2425 H 0.98628 0.25836 0.49078 0.0
H2426 H 0.59299 0.24136 0.18968 0.0
H2427 H 0.62154 0.23678 0.20102 0.0
H2428 H 0.62206 0.2704 0.25709 0.0
H2429 H 0.59336 0.27496 0.24596 0.0
H2430 H 0.65079 0.28189 0.23735 0.0
H2431 H 0.6172 0.22523 0.25437 0.0
H2432 H 0.59498 0.1951 0.24647 0.0
H2433 H 0.62193 0.17136 0.204 0.0
H2434 H 0.64418 0.20147 0.21145 0.0
H2435 H 0.7262 0.27597 0.28879 0.0
H2436 H 0.69505 0.26978 0.28069 0.0
H2437 H 0.69573 0.23064 0.22828 0.0
H2438 H 0.72696 0.23622 0.23664 0.0
H2439 H 0.66612 0.21994 0.24491 0.0
H2440 H 0.69599 0.27273 0.22194 0.0
H2441 H 0.72001 0.30078 0.22607 0.0
H2442 H 0.70075 0.32992 0.273 0.0
H2443 H 0.67673 0.30197 0.26919 0.0
C2444 C 0.59915 0.24773 0.20445 0.0
C2445 C 0.59107 0.25863 0.21696 0.0
C2446 C 0.61534 0.24496 0.21089 0.0
C2447 C 0.62364 0.25315 0.22985 0.0
C2448 C 0.61563 0.26393 0.24242 0.0
C2449 C 0.59934 0.26653 0.23606 0.0
C2450 C 0.64124 0.25165 0.23612 0.0
C2451 C 0.65409 0.26842 0.23933 0.0
C2452 C 0.64549 0.23384 0.23758 0.0
C2453 C 0.63228 0.21564 0.23337 0.0
C2454 C 0.61833 0.21363 0.24326 0.0
C2455 C 0.60574 0.19655 0.23887 0.0
C2456 C 0.60703 0.18133 0.22472 0.0
C2457 C 0.62094 0.18315 0.21495 0.0
C2458 C 0.63356 0.20021 0.21927 0.0
C2459 C 0.71969 0.26585 0.27568 0.0
C2460 C 0.72888 0.2569 0.26308 0.0
C2461 C 0.70195 0.26216 0.27121 0.0
C2462 C 0.69328 0.24993 0.25383 0.0
C2463 C 0.7023 0.24003 0.2418 0.0
C2464 C 0.72008 0.24344 0.24646 0.0
C2465 C 0.67546 0.2503 0.24681 0.0
C2466 C 0.66269 0.23339 0.24313 0.0
C2467 C 0.67122 0.2678 0.24409 0.0
C2468 C 0.68465 0.28532 0.24532 0.0
C2469 C 0.69686 0.2852 0.23305 0.0
C2470 C 0.7105 0.30104 0.23536 0.0
C2471 C 0.71197 0.31711 0.2498 0.0
C2472 C 0.69965 0.31749 0.26179 0.0
C2473 C 0.68597 0.30168 0.25953 0.0
H2474 H 0.72272 0.32918 0.25164 0.0
H2475 H 0.59726 0.16812 0.22134 0.0
H2476 H 0.51399 0.84293 0.88258 0.0
H2477 H 0.51812 0.87292 0.90596 0.0
H2478 H 0.4901 0.84217 0.94316 0.0
H2479 H 0.48481 0.81254 0.91905 0.0
H2480 H 0.48133 0.87334 0.94465 0.0
H2481 H 0.53658 0.85809 0.95095 0.0
H2482 H 0.56225 0.84965 0.93995 0.0
H2483 H 0.573 0.90232 0.9189 0.0
H2484 H 0.54731 0.91095 0.92964 0.0
H2485 H 0.52128 0.95169 0.02801 0.0
H2486 H 0.51358 0.91995 0.0063 0.0
H2487 H 0.51751 0.94732 0.95709 0.0
H2488 H 0.52467 0.97877 0.97836 0.0
H2489 H 0.53878 0.91738 0.96425 0.0
H2490 H 0.48164 0.93081 0.95816 0.0
H2491 H 0.45722 0.93904 0.97229 0.0
H2492 H 0.45175 0.88828 0.99699 0.0
H2493 H 0.47638 0.87995 0.98327 0.0
C2494 C 0.50876 0.84267 0.89578 0.0
C2495 C 0.49919 0.82553 0.89916 0.0
C2496 C 0.51121 0.85974 0.9092 0.0
C2497 C 0.5048 0.85977 0.92661 0.0
C2498 C 0.4952 0.84256 0.9299 0.0
C2499 C 0.49224 0.82564 0.91618 0.0
C2500 C 0.50792 0.87773 0.94128 0.0
C2501 C 0.49398 0.88275 0.94911 0.0
C2502 C 0.52438 0.89018 0.94717 0.0
C2503 C 0.53994 0.88509 0.94092 0.0
C2504 C 0.54437 0.86782 0.94389 0.0
C2505 C 0.55894 0.863 0.93772 0.0
C2506 C 0.56923 0.87542 0.92869 0.0
C2507 C 0.56502 0.89271 0.92588 0.0
C2508 C 0.55048 0.89758 0.93203 0.0
C2509 C 0.52014 0.95085 0.01253 0.0
C2510 C 0.52357 0.96759 0.00485 0.0
C2511 C 0.51582 0.93283 1.00023 0.0
C2512 C 0.51511 0.9315 0.98023 0.0
C2513 C 0.51804 0.94819 0.97252 0.0
C2514 C 0.52203 0.96611 0.9847 0.0
C2515 C 0.51226 0.91276 0.96725 0.0
C2516 C 0.52624 0.90771 0.95981 0.0
C2517 C 0.496 0.90013 0.9621 0.0
C2518 C 0.48096 0.90488 0.9699 0.0
C2519 C 0.47533 0.9215 0.96675 0.0
C2520 C 0.46144 0.92617 0.97466 0.0
C2521 C 0.45297 0.91422 0.98559 0.0
C2522 C 0.45834 0.89753 0.98855 0.0
C2523 C 0.47225 0.89283 0.98071 0.0
H2524 H 0.44224 0.91787 0.99173 0.0
H2525 H 0.58048 0.87165 0.9239 0.0
H2526 H 0.99676 0.71584 0.70732 0.0
H2527 H 0.97252 0.71492 0.72515 0.0
H2528 H 0.9787 0.77622 0.72994 0.0
H2529 H 1.0021 0.77701 0.7116 0.0
H2530 H 0.97478 0.76046 0.76563 0.0
H2531 H 0.95112 0.75459 0.69739 0.0
H2532 H 0.94606 0.73866 0.6631 0.0
H2533 H 0.92052 0.68613 0.67722 0.0
H2534 H 0.92578 0.70171 0.71172 0.0
H2535 H 0.90489 0.80219 0.77404 0.0
H2536 H 0.92952 0.78998 0.76571 0.0
H2537 H 0.90039 0.73175 0.75866 0.0
H2538 H 0.87562 0.74392 0.76704 0.0
H2539 H 0.9157 0.73742 0.72804 0.0
H2540 H 0.93298 0.74956 0.79653 0.0
H2541 H 0.93812 0.76845 0.82971 0.0
H2542 H 0.97576 0.81173 0.8147 0.0
H2543 H 0.97064 0.79327 0.78134 0.0
C2544 C 0.99278 0.72898 0.71221 0.0
C2545 C 1.00088 0.74643 0.70802 0.0
C2546 C 0.97915 0.72849 0.7224 0.0
C2547 C 0.97409 0.74555 0.72887 0.0
C2548 C 0.9826 0.76299 0.72512 0.0
C2549 C 0.99575 0.76338 0.71452 0.0
C2550 C 0.95916 0.74552 0.7384 0.0
C2551 C 0.9618 0.75522 0.75761 0.0
C2552 C 0.94239 0.73849 0.72779 0.0
C2553 C 0.93911 0.72918 0.70712 0.0
C2554 C 0.94462 0.73957 0.6932 0.0
C2555 C 0.94168 0.73063 0.67374 0.0
C2556 C 0.93304 0.71136 0.66799 0.0
C2557 C 0.92727 0.70103 0.68171 0.0
C2558 C 0.93024 0.7099 0.70122 0.0
C2559 C 0.90386 0.7868 0.77114 0.0
C2560 C 0.88841 0.77398 0.77119 0.0
C2561 C 0.91791 0.77984 0.7664 0.0
C2562 C 0.91678 0.75997 0.76186 0.0
C2563 C 0.90147 0.74712 0.76223 0.0
C2564 C 0.88738 0.75408 0.76693 0.0
C2565 C 0.93124 0.75282 0.75529 0.0
C2566 C 0.92854 0.74191 0.73651 0.0
C2567 C 0.948 0.75902 0.76625 0.0
C2568 C 0.95139 0.77002 0.78641 0.0
C2569 C 0.9423 0.76315 0.80028 0.0
C2570 C 0.94521 0.77379 0.81912 0.0
C2571 C 0.95726 0.79128 0.82431 0.0
C2572 C 0.96645 0.79816 0.81067 0.0
C2573 C 0.96357 0.7876 0.7918 0.0
H2574 H 0.95948 0.79951 0.8389 0.0
H2575 H 0.93077 0.70446 0.65291 0.0
H2576 H 0.13535 0.03955 0.86832 0.0
H2577 H 0.12097 0.03351 0.89549 0.0
H2578 H 0.07473 0.04444 0.86561 0.0
H2579 H 0.08926 0.0514 0.83892 0.0
H2580 H 0.07654 0.05636 0.90187 0.0
H2581 H 0.08227 0.99768 0.86399 0.0
H2582 H 0.0975 0.97506 0.8479 0.0
H2583 H 0.12702 0.9745 0.90275 0.0
H2584 H 0.11212 0.99735 0.91913 0.0
H2585 H 0.0184 1.00425 0.95095 0.0
H2586 H 0.03371 0.01216 0.92477 0.0
H2587 H 0.08134 0.01028 0.95945 0.0
H2588 H 0.06597 1.00207 0.98543 0.0
H2589 H 0.0785 0.99371 0.92093 0.0
H2590 H 0.07062 0.05238 0.95831 0.0
H2591 H 0.05318 0.07315 0.97297 0.0
H2592 H 0.02503 0.07171 0.91678 0.0
H2593 H 0.04217 0.05066 0.90178 0.0
C2594 C 0.12227 0.0412 0.86779 0.0
C2595 C 0.11343 0.04585 0.85141 0.0
C2596 C 0.11399 0.03751 0.88324 0.0
C2597 C 0.09658 0.03792 0.88236 0.0
C2598 C 0.08811 0.04388 0.86661 0.0
C2599 C 0.09648 0.04791 0.85134 0.0
C2600 C 0.08689 0.03105 0.89717 0.0
C2601 C 0.07687 0.04257 0.90587 0.0
C2602 C 0.08728 0.01309 0.90254 0.0
C2603 C 0.09623 0.99936 0.89274 0.0
C2604 C 0.0921 0.99283 0.87259 0.0
C2605 C 0.10066 0.97996 0.86342 0.0
C2606 C 0.11325 0.97339 0.87429 0.0
C2607 C 0.11729 0.97964 0.89435 0.0
C2608 C 0.10879 0.99254 0.90358 0.0
C2609 C 0.03206 0.00499 0.95267 0.0
C2610 C 0.04109 1.00249 0.97004 0.0
C2611 C 0.0408 0.00973 0.93786 0.0
C2612 C 0.05869 0.0121 0.94032 0.0
C2613 C 0.06755 0.0086 0.95731 0.0
C2614 C 0.05881 1.00395 0.97213 0.0
C2615 C 0.06831 0.01904 0.9256 0.0
C2616 C 0.07826 0.0075 0.91691 0.0
C2617 C 0.06759 0.03681 0.92 0.0
C2618 C 0.05755 0.0498 0.92895 0.0
C2619 C 0.06064 0.0564 0.94909 0.0
C2620 C 0.05081 0.06822 0.95747 0.0
C2621 C 0.03794 0.07367 0.94584 0.0
C2622 C 0.03497 0.06743 0.92578 0.0
C2623 C 0.04475 0.05556 0.91733 0.0
H2624 H 0.03026 0.08272 0.95237 0.0
H2625 H 0.11986 0.96342 0.86716 0.0
H2626 H 0.75354 0.29715 0.53161 0.0
H2627 H 0.76306 0.28303 0.5585 0.0
H2628 H 0.7409 0.32052 0.5962 0.0
H2629 H 0.73207 0.33531 0.56923 0.0
H2630 H 0.77434 0.33173 0.60269 0.0
H2631 H 0.7359 0.2704 0.5959 0.0
H2632 H 0.71852 0.23865 0.57888 0.0
H2633 H 0.76371 0.22172 0.56369 0.0
H2634 H 0.78134 0.25345 0.58036 0.0
H2635 H 0.81124 0.3084 0.68796 0.0
H2636 H 0.79964 0.32022 0.66042 0.0
H2637 H 0.8205 0.2812 0.62279 0.0
H2638 H 0.83149 0.26853 0.65058 0.0
H2639 H 0.78772 0.27085 0.61633 0.0
H2640 H 0.82632 0.33146 0.62265 0.0
H2641 H 0.84423 0.36319 0.63893 0.0
H2642 H 0.79967 0.38168 0.65409 0.0
H2643 H 0.7815 0.34999 0.63815 0.0
C2644 C 0.74956 0.30136 0.5453 0.0
C2645 C 0.74297 0.3179 0.54875 0.0
C2646 C 0.75509 0.2933 0.56081 0.0
C2647 C 0.75331 0.30131 0.57954 0.0
C2648 C 0.74275 0.3145 0.58188 0.0
C2649 C 0.73747 0.32278 0.56637 0.0
C2650 C 0.76642 0.30074 0.59596 0.0
C2651 C 0.777 0.31839 0.60605 0.0
C2652 C 0.77055 0.28342 0.59945 0.0
C2653 C 0.75993 0.26435 0.58933 0.0
C2654 C 0.74212 0.25996 0.5888 0.0
C2655 C 0.73222 0.24195 0.57924 0.0
C2656 C 0.74 0.22818 0.5702 0.0
C2657 C 0.7577 0.23239 0.5707 0.0
C2658 C 0.76765 0.25037 0.58024 0.0
C2659 C 0.81434 0.30314 0.67403 0.0
C2660 C 0.82175 0.28711 0.67122 0.0
C2661 C 0.80765 0.30997 0.65816 0.0
C2662 C 0.80879 0.3012 0.63946 0.0
C2663 C 0.81921 0.28788 0.63713 0.0
C2664 C 0.8256 0.28073 0.65299 0.0
C2665 C 0.79563 0.30183 0.62313 0.0
C2666 C 0.78506 0.2842 0.61303 0.0
C2667 C 0.7916 0.31919 0.61953 0.0
C2668 C 0.80255 0.33827 0.62925 0.0
C2669 C 0.82034 0.34223 0.62958 0.0
C2670 C 0.83054 0.36023 0.63873 0.0
C2671 C 0.82309 0.37444 0.64755 0.0
C2672 C 0.80542 0.37067 0.64724 0.0
C2673 C 0.79517 0.3527 0.63812 0.0
H2674 H 0.83101 0.38837 0.65461 0.0
H2675 H 0.73232 0.21424 0.56283 0.0
H2676 H 0.46063 0.03157 0.30859 0.0
H2677 H 0.4751 0.02925 0.34025 0.0
H2678 H 0.43103 0.03895 0.36495 0.0
H2679 H 0.417 0.04263 0.33331 0.0
H2680 H 0.45496 0.05463 0.39138 0.0
H2681 H 0.44534 0.99173 0.35471 0.0
H2682 H 0.44544 0.96591 0.3275 0.0
H2683 H 0.50045 0.98089 0.33712 0.0
H2684 H 0.50067 0.00699 0.36423 0.0
H2685 H 0.48767 0.01626 0.47633 0.0
H2686 H 0.47043 0.01738 0.44516 0.0
H2687 H 0.51657 0.03986 0.42482 0.0
H2688 H 0.53364 0.03955 0.45596 0.0
H2689 H 0.48987 0.00604 0.39741 0.0
H2690 H 0.49668 0.0701 0.43581 0.0
H2691 H 0.49364 0.09216 0.46476 0.0
H2692 H 0.43922 0.06952 0.45315 0.0
H2693 H 0.442 0.04706 0.42431 0.0
C2694 C 0.45389 0.03311 0.32069 0.0
C2695 C 0.43742 0.03712 0.31799 0.0
C2696 C 0.46221 0.03158 0.33903 0.0
C2697 C 0.45425 0.03329 0.35555 0.0
C2698 C 0.43776 0.03741 0.35286 0.0
C2699 C 0.42958 0.03942 0.33452 0.0
C2700 C 0.46321 0.03115 0.37538 0.0
C2701 C 0.46233 0.04374 0.39246 0.0
C2702 C 0.47305 0.01703 0.37767 0.0
C2703 C 0.47301 1.00142 0.36137 0.0
C2704 C 0.45745 0.9896 0.35093 0.0
C2705 C 0.45745 0.97491 0.33554 0.0
C2706 C 0.47294 0.97179 0.33055 0.0
C2707 C 0.48847 0.98334 0.34098 0.0
C2708 C 0.48854 0.99808 0.35637 0.0
C2709 C 0.49416 0.02145 0.46524 0.0
C2710 C 0.51218 0.02782 0.46893 0.0
C2711 C 0.48425 0.0221 0.44732 0.0
C2712 C 0.49205 0.02868 0.43229 0.0
C2713 C 0.51005 0.03467 0.4359 0.0
C2714 C 0.51986 0.03451 0.45389 0.0
C2715 C 0.48171 0.02961 0.41296 0.0
C2716 C 0.48238 0.0168 0.39609 0.0
C2717 C 0.47125 0.04305 0.41097 0.0
C2718 C 0.46957 0.05677 0.42805 0.0
C2719 C 0.48409 0.06971 0.43953 0.0
C2720 C 0.48241 0.0823 0.4559 0.0
C2721 C 0.46625 0.0822 0.46083 0.0
C2722 C 0.45173 0.06955 0.44934 0.0
C2723 C 0.45335 0.0569 0.43298 0.0
H2724 H 0.46497 0.09195 0.47351 0.0
H2725 H 0.47292 0.9604 0.31864 0.0
H2726 H 0.80271 0.70754 0.0606 0.0
H2727 H 0.80058 0.72162 0.09344 0.0
H2728 H 0.74928 0.68723 0.08602 0.0
H2729 H 0.75123 0.67296 0.05292 0.0
H2730 H 0.75308 0.7255 0.10587 0.0
H2731 H 0.78101 0.67276 0.10923 0.0
H2732 H 0.80285 0.65428 0.10262 0.0
H2733 H 0.84275 0.70282 0.13222 0.0
H2734 H 0.82114 0.72169 0.13873 0.0
H2735 H 0.74886 0.73791 0.20691 0.0
H2736 H 0.74756 0.72581 0.17243 0.0
H2737 H 0.8018 0.74957 0.17853 0.0
H2738 H 0.80327 0.76104 0.21297 0.0
H2739 H 0.79535 0.71574 0.15879 0.0
H2740 H 0.76932 0.76915 0.15527 0.0
H2741 H 0.74876 0.78953 0.16129 0.0
H2742 H 0.70703 0.74284 0.13189 0.0
H2743 H 0.72734 0.72208 0.12596 0.0
C2744 C 0.79087 0.70303 0.06578 0.0
C2745 C 0.77718 0.68895 0.05405 0.0
C2746 C 0.78971 0.7111 0.08464 0.0
C2747 C 0.77487 0.7053 0.09229 0.0
C2748 C 0.76088 0.69187 0.08043 0.0
C2749 C 0.76205 0.6837 0.06152 0.0
C2750 C 0.77437 0.71263 0.11293 0.0
C2751 C 0.76215 0.72316 0.1175 0.0
C2752 C 0.7865 0.71004 0.12807 0.0
C2753 C 0.79948 0.69867 0.1243 0.0
C2754 C 0.79445 0.67953 0.1142 0.0
C2755 C 0.80678 0.66899 0.11048 0.0
C2756 C 0.82418 0.67739 0.11695 0.0
C2757 C 0.82927 0.69634 0.12719 0.0
C2758 C 0.81699 0.70696 0.1309 0.0
C2759 C 0.76047 0.74067 0.20086 0.0
C2760 C 0.77618 0.75037 0.21273 0.0
C2761 C 0.75971 0.73382 0.18109 0.0
C2762 C 0.77456 0.73688 0.17273 0.0
C2763 C 0.79015 0.74691 0.18456 0.0
C2764 C 0.79097 0.7535 0.2043 0.0
C2765 C 0.77417 0.72893 0.15192 0.0
C2766 C 0.78622 0.71816 0.14727 0.0
C2767 C 0.76206 0.73161 0.13675 0.0
C2768 C 0.74982 0.74401 0.14038 0.0
C2769 C 0.75574 0.76318 0.15025 0.0
C2770 C 0.74414 0.7748 0.15362 0.0
C2771 C 0.72659 0.76747 0.14703 0.0
C2772 C 0.72062 0.74849 0.13702 0.0
C2773 C 0.73217 0.73679 0.13365 0.0
H2774 H 0.71763 0.7765 0.14964 0.0
H2775 H 0.83371 0.6692 0.11407 0.0
H2776 H 0.10829 0.99134 0.72555 0.0
H2777 H 0.09463 0.99155 0.69272 0.0
H2778 H 0.08862 0.04925 0.71135 0.0
H2779 H 0.10231 0.04922 0.74422 0.0
H2780 H 0.05903 0.02481 0.68851 0.0
H2781 H 0.11863 0.04422 0.68679 0.0
H2782 H 0.14897 0.04223 0.69175 0.0
H2783 H 0.13603 0.98764 0.65267 0.0
H2784 H 0.10554 0.98916 0.64773 0.0
H2785 H 0.04204 0.04628 0.59376 0.0
H2786 H 0.05395 0.04681 0.62744 0.0
H2787 H 0.06023 0.98882 0.61151 0.0
H2788 H 0.04829 0.98808 0.5779 0.0
H2789 H 0.08968 0.01444 0.63325 0.0
H2790 H 0.02965 0.99586 0.63477 0.0
H2791 H 0.99965 0.99892 0.62974 0.0
H2792 H 0.01363 0.05321 0.66929 0.0
H2793 H 0.04387 0.05069 0.67425 0.0
C2794 C 0.10408 1.00408 0.72266 0.0
C2795 C 0.10642 0.02028 0.73743 0.0
C2796 C 0.09631 1.00418 0.70393 0.0
C2797 C 0.09071 0.02045 0.69969 0.0
C2798 C 0.09286 0.03657 0.71441 0.0
C2799 C 0.10077 0.03655 0.73312 0.0
C2800 C 0.08272 0.02062 0.6798 0.0
C2801 C 0.06578 0.02281 0.67644 0.0
C2802 C 0.0915 0.01772 0.66412 0.0
C2803 C 0.1098 0.01672 0.66704 0.0
C2804 C 0.12224 0.03171 0.6794 0.0
C2805 C 0.13946 0.03068 0.68218 0.0
C2806 C 0.14442 0.0148 0.67257 0.0
C2807 C 0.13216 0.99992 0.66013 0.0
C2808 C 0.11491 1.00086 0.65732 0.0
C2809 C 0.04582 0.03359 0.59746 0.0
C2810 C 0.04425 0.01714 0.58321 0.0
C2811 C 0.05258 0.03391 0.61668 0.0
C2812 C 0.05792 0.01784 0.62186 0.0
C2813 C 0.05618 1.00135 0.60772 0.0
C2814 C 0.04928 1.00094 0.58856 0.0
C2815 C 0.06593 0.01844 0.64192 0.0
C2816 C 0.08292 0.01645 0.64532 0.0
C2817 C 0.05721 0.02166 0.65762 0.0
C2818 C 0.03905 0.02319 0.65471 0.0
C2819 C 0.02637 0.00855 0.64225 0.0
C2820 C 0.00931 0.01017 0.63943 0.0
C2821 C 0.00471 0.02625 0.64915 0.0
C2822 C 0.0172 0.04076 0.66174 0.0
C2823 C 0.03431 0.03926 0.66456 0.0
H2824 H 0.99148 0.02745 0.64695 0.0
H2825 H 0.15777 0.01403 0.67473 0.0
H2826 H 0.78398 0.33154 0.47018 0.0
H2827 H 0.7788 0.3185 0.43569 0.0
H2828 H 0.7293 0.33289 0.42944 0.0
H2829 H 0.73431 0.34618 0.46426 0.0
H2830 H 0.73333 0.29244 0.40987 0.0
H2831 H 0.75358 0.36075 0.41413 0.0
H2832 H 0.77288 0.39196 0.42964 0.0
H2833 H 0.81644 0.36948 0.41746 0.0
H2834 H 0.79742 0.33806 0.40215 0.0
H2835 H 0.74349 0.2586 0.31265 0.0
H2836 H 0.73426 0.27702 0.3398 0.0
H2837 H 0.78729 0.29892 0.36728 0.0
H2838 H 0.79636 0.28204 0.33941 0.0
H2839 H 0.77256 0.32595 0.37206 0.0
H2840 H 0.75696 0.25849 0.37865 0.0
H2841 H 0.74126 0.22472 0.36719 0.0
H2842 H 0.69343 0.24247 0.36239 0.0
H2843 H 0.70889 0.27635 0.37365 0.0
C2844 C 0.77193 0.3319 0.46159 0.0
C2845 C 0.75961 0.34004 0.46993 0.0
C2846 C 0.76901 0.32443 0.44191 0.0
C2847 C 0.75376 0.32495 0.43024 0.0
C2848 C 0.74114 0.33247 0.43842 0.0
C2849 C 0.74409 0.3401 0.45821 0.0
C2850 C 0.75171 0.31818 0.40935 0.0
C2851 C 0.74148 0.2999 0.40128 0.0
C2852 C 0.76264 0.32794 0.39856 0.0
C2853 C 0.77405 0.34707 0.40696 0.0
C2854 C 0.76727 0.36247 0.41477 0.0
C2855 C 0.77816 0.38019 0.42355 0.0
C2856 C 0.79587 0.38271 0.42453 0.0
C2857 C 0.80272 0.36753 0.41666 0.0
C2858 C 0.79188 0.34978 0.40788 0.0
C2859 C 0.75304 0.26733 0.32463 0.0
C2860 C 0.77055 0.26883 0.32438 0.0
C2861 C 0.74781 0.27781 0.34007 0.0
C2862 C 0.76007 0.28916 0.35571 0.0
C2863 C 0.77758 0.2904 0.35534 0.0
C2864 C 0.78278 0.28059 0.33961 0.0
C2865 C 0.75505 0.29952 0.37287 0.0
C2866 C 0.76386 0.31863 0.38021 0.0
C2867 C 0.7433 0.29022 0.38326 0.0
C2868 C 0.73405 0.26989 0.37676 0.0
C2869 C 0.7431 0.25516 0.37507 0.0
C2870 C 0.73425 0.23602 0.36862 0.0
C2871 C 0.71636 0.23146 0.36401 0.0
C2872 C 0.70728 0.24602 0.36592 0.0
C2873 C 0.71607 0.26519 0.37234 0.0
H2874 H 0.70953 0.21663 0.359 0.0
H2875 H 0.80429 0.39642 0.43138 0.0
H2876 H 0.41835 0.03518 0.18929 0.0
H2877 H 0.43005 0.03169 0.15891 0.0
H2878 H 0.47894 0.03046 0.19099 0.0
H2879 H 0.46761 0.03425 0.22082 0.0
H2880 H 0.48636 0.0507 0.16712 0.0
H2881 H 0.44758 0.98938 0.15795 0.0
H2882 H 0.41983 0.96656 0.15454 0.0
H2883 H 0.39969 0.9884 0.10573 0.0
H2884 H 0.42726 0.01156 0.10904 0.0
H2885 H 0.5301 0.0205 0.09172 0.0
H2886 H 0.51486 0.0228 0.11895 0.0
H2887 H 0.46886 0.02338 0.08066 0.0
H2888 H 0.48404 0.02024 0.05302 0.0
H2889 H 0.45856 0.00482 0.10631 0.0
H2890 H 0.49722 0.06731 0.11703 0.0
H2891 H 0.52498 0.09049 0.12149 0.0
H2892 H 0.5455 0.0652 0.1674 0.0
H2893 H 0.51775 0.04221 0.1636 0.0
C2894 C 0.43157 0.0341 0.1899 0.0
C2895 C 0.44183 0.0351 0.20802 0.0
C2896 C 0.43835 0.03197 0.17231 0.0
C2897 C 0.45565 0.03065 0.17206 0.0
C2898 C 0.46569 0.03153 0.19017 0.0
C2899 C 0.45901 0.03366 0.20754 0.0
C2900 C 0.46377 0.02895 0.15357 0.0
C2901 C 0.48018 0.04041 0.15399 0.0
C2902 C 0.45603 0.01605 0.13575 0.0
C2903 C 0.43939 1.00239 0.13392 0.0
C2904 C 0.43717 0.98946 0.14662 0.0
C2905 C 0.42149 0.97643 0.14468 0.0
C2906 C 0.40798 0.97608 0.12998 0.0
C2907 C 0.41014 0.98873 0.11715 0.0
C2908 C 0.42579 1.00182 0.11906 0.0
C2909 C 0.51671 0.02104 0.08889 0.0
C2910 C 0.50855 0.02019 0.06976 0.0
C2911 C 0.50791 0.02264 0.10478 0.0
C2912 C 0.49051 0.02389 0.10254 0.0
C2913 C 0.48219 0.0226 0.08333 0.0
C2914 C 0.49099 0.02079 0.06732 0.0
C2915 C 0.48121 0.02639 0.12007 0.0
C2916 C 0.46464 0.01512 0.11945 0.0
C2917 C 0.48879 0.03941 0.13782 0.0
C2918 C 0.50551 0.05296 0.13989 0.0
C2919 C 0.5077 0.06664 0.12799 0.0
C2920 C 0.52341 0.07975 0.13041 0.0
C2921 C 0.53705 0.07916 0.14452 0.0
C2922 C 0.53495 0.0656 0.15642 0.0
C2923 C 0.51921 0.05261 0.15423 0.0
H2924 H 0.5492 0.08929 0.14632 0.0
H2925 H 0.39586 0.96597 0.12848 0.0
H2926 H 0.78259 0.71754 0.97274 0.0
H2927 H 0.78157 0.73292 0.94446 0.0
H2928 H 0.75184 0.67974 0.90867 0.0
H2929 H 0.75234 0.66441 0.93713 0.0
H2930 H 0.78512 0.69925 0.89704 0.0
H2931 H 0.73144 0.71073 0.91339 0.0
H2932 H 0.71315 0.72251 0.93544 0.0
H2933 H 0.74454 0.77957 0.94496 0.0
H2934 H 0.76318 0.76804 0.9232 0.0
H2935 H 0.77266 0.73209 0.80889 0.0
H2936 H 0.76805 0.71698 0.83668 0.0
H2937 H 0.78175 0.77277 0.87428 0.0
H2938 H 0.78602 0.78797 0.8464 0.0
H2939 H 0.75601 0.75163 0.88518 0.0
H2940 H 0.81 0.74294 0.87187 0.0
H2941 H 0.83109 0.73375 0.85237 0.0
H2942 H 0.80335 0.67488 0.84034 0.0
H2943 H 0.78192 0.68378 0.85954 0.0
C2944 C 0.77536 0.70929 0.95896 0.0
C2945 C 0.7673 0.68984 0.95725 0.0
C2946 C 0.77489 0.71807 0.94278 0.0
C2947 C 0.7667 0.70748 0.92442 0.0
C2948 C 0.75822 0.68819 0.92271 0.0
C2949 C 0.75832 0.67952 0.93902 0.0
C2950 C 0.76791 0.71631 0.90697 0.0
C2951 C 0.77848 0.71043 0.8942 0.0
C2952 C 0.75995 0.73154 0.90378 0.0
C2953 C 0.74879 0.73848 0.91684 0.0
C2954 C 0.73454 0.72574 0.92035 0.0
C2955 C 0.72409 0.73238 0.93276 0.0
C2956 C 0.7277 0.75177 0.94164 0.0
C2957 C 0.74176 0.76456 0.9381 0.0
C2958 C 0.75227 0.75798 0.92572 0.0
C2959 C 0.77452 0.74116 0.82305 0.0
C2960 C 0.77972 0.76125 0.82543 0.0
C2961 C 0.77201 0.73248 0.83898 0.0
C2962 C 0.77479 0.74366 0.85773 0.0
C2963 C 0.77953 0.76378 0.86003 0.0
C2964 C 0.78201 0.77247 0.84408 0.0
C2965 C 0.77301 0.73436 0.87491 0.0
C2966 C 0.76251 0.74029 0.88779 0.0
C2967 C 0.78142 0.7195 0.87851 0.0
C2968 C 0.79424 0.71406 0.86694 0.0
C2969 C 0.80831 0.72806 0.86491 0.0
C2970 C 0.82034 0.7229 0.85394 0.0
C2971 C 0.81853 0.70375 0.84506 0.0
C2972 C 0.80471 0.68971 0.84719 0.0
C2973 C 0.79262 0.6948 0.85812 0.0
H2974 H 0.82786 0.69978 0.83657 0.0
H2975 H 0.71959 0.75688 0.95123 0.0
H2976 H 0.84936 0.15394 0.05831 0.0
H2977 H 0.87266 0.13724 0.05523 0.0
H2978 H 0.84775 0.1093 0.99701 0.0
H2979 H 0.82402 0.12498 1.00056 0.0
H2980 H 0.85945 0.08537 0.01278 0.0
H2981 H 0.88324 0.15057 0.0092 0.0
H2982 H 0.89173 0.18578 0.01988 0.0
H2983 H 0.92468 0.1794 0.07004 0.0
H2984 H 0.91618 0.14413 0.05982 0.0
H2985 H 0.92825 0.05383 0.98 0.0
H2986 H 0.90891 0.07566 0.98396 0.0
H2987 H 0.92751 0.08951 0.04552 0.0
H2988 H 0.94722 0.06798 0.04163 0.0
H2989 H 0.92021 0.12124 0.02846 0.0
H2990 H 0.89438 0.05475 0.03014 0.0
H2991 H 0.88635 0.01997 0.01659 0.0
H2992 H 0.85721 0.0304 0.96572 0.0
H2993 H 0.86532 0.06528 0.97886 0.0
C2994 C 0.84876 0.14388 0.04505 0.0
C2995 C 0.83495 0.14054 0.02969 0.0
C2996 C 0.86217 0.13462 0.04319 0.0
C2997 C 0.86215 0.12244 0.02571 0.0
C2998 C 0.84804 0.11868 0.01062 0.0
C2999 C 0.83444 0.1275 0.01268 0.0
C3000 C 0.87658 0.11319 0.02311 0.0
C3001 C 0.87269 0.09336 0.01595 0.0
C3002 C 0.89392 0.12352 0.02758 0.0
C3003 C 0.8989 0.14471 0.03386 0.0
C3004 C 0.89216 0.15667 0.0226 0.0
C3005 C 0.89701 0.17664 0.02856 0.0
C3006 C 0.90869 0.18482 0.04566 0.0
C3007 C 0.9156 0.17304 0.05683 0.0
C3008 C 0.91077 0.15307 0.05096 0.0
C3009 C 0.92853 0.0619 0.9943 0.0
C3010 C 0.93897 0.05907 0.01057 0.0
C3011 C 0.9175 0.0743 0.99653 0.0
C3012 C 0.91675 0.08387 0.01504 0.0
C3013 C 0.92798 0.08212 0.03115 0.0
C3014 C 0.93902 0.06971 0.02894 0.0
C3015 C 0.90285 0.09374 0.01785 0.0
C3016 C 0.90689 0.11351 0.0252 0.0
C3017 C 0.88558 0.08353 0.01314 0.0
C3018 C 0.8806 0.06258 0.00538 0.0
C3019 C 0.88637 0.04962 0.01601 0.0
C3020 C 0.88179 0.0299 0.00841 0.0
C3021 C 0.87131 0.02298 0.99028 0.0
C3022 C 0.86535 0.03577 0.97974 0.0
C3023 C 0.86993 0.05551 0.98725 0.0
H3024 H 0.86778 0.0077 0.98443 0.0
H3025 H 0.91244 0.20028 0.05024 0.0
H3026 H 0.34089 0.44905 0.03816 0.0
H3027 H 0.36935 0.46431 0.03357 0.0
H3028 H 0.3852 0.41067 0.03322 0.0
H3029 H 0.35701 0.3958 0.03921 0.0
H3030 H 0.41036 0.43567 0.05082 0.0
H3031 H 0.37594 0.43186 0.99029 0.0
H3032 H 0.35156 0.43531 0.96719 0.0
H3033 H 0.36562 0.4966 0.98623 0.0
H3034 H 0.38996 0.4935 0.00964 0.0
H3035 H 0.48676 0.47776 0.01496 0.0
H3036 H 0.45896 0.45703 0.01598 0.0
H3037 H 0.44026 0.50718 0.03604 0.0
H3038 H 0.46804 0.52769 0.03587 0.0
H3039 H 0.41742 0.48051 0.0052 0.0
H3040 H 0.45224 0.48092 0.06741 0.0
H3041 H 0.47754 0.47471 0.08692 0.0
H3042 H 0.4632 0.41522 0.05908 0.0
H3043 H 0.43794 0.42115 0.03923 0.0
C3044 C 0.3504 0.44047 0.03697 0.0
C3045 C 0.34661 0.42118 0.03899 0.0
C3046 C 0.36674 0.44919 0.03419 0.0
C3047 C 0.37957 0.43865 0.03253 0.0
C3048 C 0.3757 0.41927 0.03441 0.0
C3049 C 0.35949 0.4107 0.03778 0.0
C3050 C 0.39704 0.44803 0.02933 0.0
C3051 C 0.41178 0.44518 0.04055 0.0
C3052 C 0.39928 0.46047 0.0159 0.0
C3053 C 0.3847 0.46243 1.0018 0.0
C3054 C 0.37377 0.44607 0.98962 0.0
C3055 C 0.35997 0.44796 0.97647 0.0
C3056 C 0.35703 0.46616 0.97526 0.0
C3057 C 0.36791 0.48251 0.98718 0.0
C3058 C 0.38173 0.4807 1.00038 0.0
C3059 C 0.4769 0.48429 0.02006 0.0
C3060 C 0.47984 0.50435 0.02586 0.0
C3061 C 0.46091 0.47245 0.02041 0.0
C3062 C 0.4475 0.48053 0.02622 0.0
C3063 C 0.45035 0.50057 0.03152 0.0
C3064 C 0.4663 0.51229 0.03144 0.0
C3065 C 0.43043 0.46841 0.02694 0.0
C3066 C 0.41583 0.47078 0.01525 0.0
C3067 C 0.42837 0.45509 0.03943 0.0
C3068 C 0.4433 0.45151 0.05173 0.0
C3069 C 0.45454 0.46654 0.06539 0.0
C3070 C 0.46886 0.46307 0.07651 0.0
C3071 C 0.47199 0.44459 0.0742 0.0
C3072 C 0.46076 0.42953 0.06083 0.0
C3073 C 0.44644 0.43293 0.04966 0.0
H3074 H 0.4831 0.44193 0.08277 0.0
H3075 H 0.34633 0.46759 0.96506 0.0
H3076 H 0.41023 0.555 0.74317 0.0
H3077 H 0.39565 0.58166 0.74344 0.0
H3078 H 0.3676 0.56168 0.78635 0.0
H3079 H 0.38211 0.53509 0.78622 0.0
H3080 H 0.34765 0.57418 0.75896 0.0
H3081 H 0.40129 0.59587 0.80136 0.0
H3082 H 0.43255 0.60158 0.81168 0.0
H3083 H 0.44062 0.63725 0.7696 0.0
H3084 H 0.40937 0.63148 0.75879 0.0
H3085 H 0.32193 0.65906 0.79237 0.0
H3086 H 0.33795 0.63383 0.79399 0.0
H3087 H 0.36308 0.65056 0.74772 0.0
H3088 H 0.34726 0.67604 0.74619 0.0
H3089 H 0.3847 0.64001 0.77794 0.0
H3090 H 0.32902 0.61647 0.73598 0.0
H3091 H 0.29755 0.61166 0.72928 0.0
H3092 H 0.29344 0.57981 0.77502 0.0
H3093 H 0.32492 0.58472 0.78219 0.0
C3094 C 0.40061 0.556 0.75226 0.0
C3095 C 0.39732 0.54304 0.76472 0.0
C3096 C 0.39245 0.57132 0.75255 0.0
C3097 C 0.3808 0.57373 0.76516 0.0
C3098 C 0.37663 0.56007 0.77661 0.0
C3099 C 0.38491 0.54491 0.77649 0.0
C3100 C 0.37358 0.59098 0.76714 0.0
C3101 C 0.35574 0.58856 0.76325 0.0
C3102 C 0.38419 0.60969 0.77282 0.0
C3103 C 0.40299 0.61301 0.77907 0.0
C3104 C 0.40973 0.60474 0.79414 0.0
C3105 C 0.42745 0.60803 0.80012 0.0
C3106 C 0.43857 0.61972 0.79126 0.0
C3107 C 0.43199 0.62816 0.77642 0.0
C3108 C 0.41427 0.62488 0.77035 0.0
C3109 C 0.33121 0.65769 0.7829 0.0
C3110 C 0.33329 0.66935 0.76904 0.0
C3111 C 0.34026 0.64324 0.78378 0.0
C3112 C 0.35148 0.64028 0.7708 0.0
C3113 C 0.35442 0.65267 0.7578 0.0
C3114 C 0.34531 0.66707 0.75685 0.0
C3115 C 0.35884 0.62316 0.76948 0.0
C3116 C 0.37667 0.62561 0.77356 0.0
C3117 C 0.34823 0.60444 0.76433 0.0
C3118 C 0.32931 0.6011 0.75971 0.0
C3119 C 0.3214 0.60854 0.74467 0.0
C3120 C 0.30357 0.60579 0.74079 0.0
C3121 C 0.2935 0.59547 0.75175 0.0
C3122 C 0.30125 0.58782 0.76656 0.0
C3123 C 0.31908 0.59057 0.77053 0.0
H3124 H 0.2797 0.59337 0.74873 0.0
H3125 H 0.45228 0.62228 0.79593 0.0
H3126 H 0.26315 0.67665 0.57307 0.0
H3127 H 0.23661 0.65241 0.56949 0.0
H3128 H 0.23462 0.63963 0.50777 0.0
H3129 H 0.26104 0.66396 0.51113 0.0
H3130 H 0.20233 0.63691 0.51779 0.0
H3131 H 0.253 0.61372 0.53332 0.0
H3132 H 0.28126 0.61426 0.55189 0.0
H3133 H 0.259 0.60993 0.60286 0.0
H3134 H 0.23065 0.60972 0.58467 0.0
H3135 H 0.14401 0.54793 0.50881 0.0
H3136 H 0.17059 0.56959 0.50598 0.0
H3137 H 0.18277 0.58688 0.56819 0.0
H3138 H 0.15659 0.565 0.57106 0.0
H3139 H 0.21087 0.58529 0.55388 0.0
H3140 H 0.16053 0.61161 0.53844 0.0
H3141 H 0.13233 0.61054 0.51936 0.0
H3142 H 0.15406 0.60816 0.46749 0.0
H3143 H 0.18235 0.60895 0.48625 0.0
C3144 C 0.2568 0.66912 0.55867 0.0
C3145 C 0.26432 0.67197 0.54242 0.0
C3146 C 0.2417 0.65521 0.55667 0.0
C3147 C 0.23396 0.644 0.53842 0.0
C3148 C 0.24052 0.64806 0.52197 0.0
C3149 C 0.25563 0.66193 0.52395 0.0
C3150 C 0.22018 0.62682 0.53678 0.0
C3151 C 0.2042 0.62551 0.52549 0.0
C3152 C 0.22275 0.61193 0.54673 0.0
C3153 C 0.23975 0.61188 0.55768 0.0
C3154 C 0.25416 0.61303 0.54853 0.0
C3155 C 0.27019 0.61327 0.55898 0.0
C3156 C 0.27193 0.61217 0.57856 0.0
C3157 C 0.25764 0.61081 0.58771 0.0
C3158 C 0.24159 0.61062 0.57733 0.0
C3159 C 0.15261 0.55607 0.52184 0.0
C3160 C 0.1483 0.55494 0.54014 0.0
C3161 C 0.1677 0.56846 0.52022 0.0
C3162 C 0.17841 0.58013 0.53687 0.0
C3163 C 0.17465 0.57802 0.55517 0.0
C3164 C 0.15973 0.56548 0.5568 0.0
C3165 C 0.19278 0.59568 0.53548 0.0
C3166 C 0.20897 0.59663 0.54608 0.0
C3167 C 0.19039 0.61018 0.52486 0.0
C3168 C 0.17349 0.61019 0.5137 0.0
C3169 C 0.15927 0.6108 0.52295 0.0
C3170 C 0.14328 0.61023 0.5122 0.0
C3171 C 0.1414 0.60925 0.49222 0.0
C3172 C 0.15553 0.6089 0.48296 0.0
C3173 C 0.17154 0.60942 0.49365 0.0
H3174 H 0.129 0.60879 0.48391 0.0
H3175 H 0.28435 0.61235 0.58663 0.0
H3176 H 0.66799 0.9322 0.77389 0.0
H3177 H 0.68075 0.90374 0.77149 0.0
H3178 H 0.72997 0.9399 0.79826 0.0
H3179 H 0.71715 0.96809 0.80139 0.0
H3180 H 0.73282 0.91176 0.76649 0.0
H3181 H 0.70789 0.91329 0.82353 0.0
H3182 H 0.68521 0.91324 0.84337 0.0
H3183 H 0.6576 0.85823 0.81003 0.0
H3184 H 0.67995 0.85816 0.78965 0.0
H3185 H 0.78016 0.84138 0.78711 0.0
H3186 H 0.76604 0.86836 0.7884 0.0
H3187 H 0.71673 0.82892 0.77574 0.0
H3188 H 0.73097 0.80179 0.77492 0.0
H3189 H 0.71289 0.8582 0.79924 0.0
H3190 H 0.73632 0.85624 0.74157 0.0
H3191 H 0.75842 0.8554 0.72099 0.0
H3192 H 0.78759 0.90999 0.75382 0.0
H3193 H 0.76577 0.911 0.77481 0.0
C3194 C 0.6816 0.93424 0.77895 0.0
C3195 C 0.69143 0.95293 0.78751 0.0
C3196 C 0.68896 0.91774 0.77777 0.0
C3197 C 0.70657 0.91916 0.78469 0.0
C3198 C 0.71645 0.93791 0.79267 0.0
C3199 C 0.70903 0.95425 0.79437 0.0
C3200 C 0.71471 0.90144 0.78392 0.0
C3201 C 0.72848 0.90021 0.77388 0.0
C3202 C 0.70913 0.88567 0.79298 0.0
C3203 C 0.69545 0.88588 0.80484 0.0
C3204 C 0.69685 0.90133 0.82021 0.0
C3205 C 0.68408 0.90129 0.83159 0.0
C3206 C 0.66993 0.88579 0.82789 0.0
C3207 C 0.66853 0.87027 0.81281 0.0
C3208 C 0.68123 0.87028 0.80132 0.0
C3209 C 0.76629 0.83825 0.78462 0.0
C3210 C 0.75694 0.81892 0.78083 0.0
C3211 C 0.75807 0.85396 0.78518 0.0
C3212 C 0.73998 0.8513 0.78178 0.0
C3213 C 0.7306 0.83197 0.77838 0.0
C3214 C 0.73886 0.8162 0.77784 0.0
C3215 C 0.73107 0.86848 0.78178 0.0
C3216 C 0.71719 0.86965 0.79173 0.0
C3217 C 0.73637 0.88411 0.7724 0.0
C3218 C 0.74951 0.8836 0.75987 0.0
C3219 C 0.74751 0.86799 0.74449 0.0
C3220 C 0.75998 0.8675 0.73274 0.0
C3221 C 0.77442 0.88261 0.73613 0.0
C3222 C 0.77641 0.89828 0.75125 0.0
C3223 C 0.764 0.89882 0.76307 0.0
H3224 H 0.78405 0.88221 0.72701 0.0
H3225 H 0.66008 0.88578 0.83676 0.0
H3226 H 0.75138 0.91954 0.49916 0.0
H3227 H 0.72441 0.93001 0.49557 0.0
H3228 H 0.71536 0.91489 0.55 0.0
H3229 H 0.74238 0.90405 0.55361 0.0
H3230 H 0.68557 0.90505 0.52286 0.0
H3231 H 0.73138 0.96175 0.5468 0.0
H3232 H 0.75869 0.98368 0.54595 0.0
H3233 H 0.73814 0.99237 0.48992 0.0
H3234 H 0.71079 0.97029 0.49034 0.0
H3235 H 0.62333 0.96084 0.53974 0.0
H3236 H 0.64784 0.94566 0.54122 0.0
H3237 H 0.66065 0.96596 0.49018 0.0
H3238 H 0.63668 0.98185 0.48909 0.0
H3239 H 0.68831 0.97246 0.51525 0.0
H3240 H 0.64302 0.91764 0.49006 0.0
H3241 H 0.61568 0.89455 0.48802 0.0
H3242 H 0.63438 0.88089 0.54238 0.0
H3243 H 0.66175 0.90414 0.5449 0.0
C3244 C 0.74366 0.91828 0.51037 0.0
C3245 C 0.74922 0.91106 0.52678 0.0
C3246 C 0.72819 0.92436 0.5083 0.0
C3247 C 0.71789 0.92359 0.52265 0.0
C3248 C 0.72307 0.91573 0.53874 0.0
C3249 C 0.73857 0.90957 0.54081 0.0
C3250 C 0.70216 0.93168 0.52117 0.0
C3251 C 0.68619 0.91987 0.52149 0.0
C3252 C 0.70276 0.95083 0.51868 0.0
C3253 C 0.71911 0.96427 0.51855 0.0
C3254 C 0.73273 0.96827 0.53426 0.0
C3255 C 0.74821 0.98073 0.53386 0.0
C3256 C 0.75016 0.98939 0.51788 0.0
C3257 C 0.73662 0.98565 0.50228 0.0
C3258 C 0.72113 0.97318 0.50261 0.0
C3259 C 0.63138 0.96216 0.52884 0.0
C3260 C 0.62791 0.97267 0.5143 0.0
C3261 C 0.64532 0.95323 0.52958 0.0
C3262 C 0.65613 0.95444 0.51571 0.0
C3263 C 0.65257 0.96472 0.50106 0.0
C3264 C 0.63868 0.97368 0.50035 0.0
C3265 C 0.67161 0.94587 0.51698 0.0
C3266 C 0.68758 0.95762 0.51664 0.0
C3267 C 0.67091 0.92658 0.51909 0.0
C3268 C 0.65438 0.9128 0.51777 0.0
C3269 C 0.64124 0.90987 0.50168 0.0
C3270 C 0.62575 0.89672 0.50042 0.0
C3271 C 0.62328 0.8863 0.51509 0.0
C3272 C 0.6363 0.889 0.53105 0.0
C3273 C 0.65181 0.90216 0.5324 0.0
H3274 H 0.61129 0.87609 0.51408 0.0
H3275 H 0.76215 0.99903 0.51759 0.0
H3276 H 0.41066 0.44515 0.79053 0.0
H3277 H 0.39007 0.41425 0.78518 0.0
H3278 H 0.36525 0.42573 0.73205 0.0
H3279 H 0.38637 0.4565 0.73698 0.0
H3280 H 0.34434 0.41586 0.76492 0.0
H3281 H 0.38098 0.39402 0.72272 0.0
H3282 H 0.40854 0.38968 0.71376 0.0
H3283 H 0.41628 0.35835 0.75936 0.0
H3284 H 0.38889 0.36284 0.76884 0.0
H3285 H 0.28567 0.32347 0.73713 0.0
H3286 H 0.30704 0.35194 0.73492 0.0
H3287 H 0.34081 0.34294 0.78336 0.0
H3288 H 0.31912 0.31537 0.78645 0.0
H3289 H 0.35676 0.35111 0.74973 0.0
H3290 H 0.32319 0.37486 0.79422 0.0
H3291 H 0.29672 0.37966 0.80584 0.0
H3292 H 0.28433 0.40782 0.75881 0.0
H3293 H 0.31063 0.40286 0.74671 0.0
C3294 C 0.40101 0.44091 0.77752 0.0
C3295 C 0.40012 0.45312 0.76411 0.0
C3296 C 0.38928 0.4233 0.77449 0.0
C3297 C 0.37618 0.41776 0.75824 0.0
C3298 C 0.37535 0.42977 0.74464 0.0
C3299 C 0.38743 0.44723 0.7474 0.0
C3300 C 0.36284 0.39998 0.75633 0.0
C3301 C 0.34688 0.40167 0.76113 0.0
C3302 C 0.36646 0.38156 0.75214 0.0
C3303 C 0.38299 0.37899 0.74664 0.0
C3304 C 0.38867 0.38643 0.731 0.0
C3305 C 0.40423 0.3839 0.72579 0.0
C3306 C 0.41419 0.3738 0.73602 0.0
C3307 C 0.40857 0.36621 0.75147 0.0
C3308 C 0.39303 0.36874 0.75677 0.0
C3309 C 0.29768 0.32753 0.74724 0.0
C3310 C 0.3009 0.3169 0.76166 0.0
C3311 C 0.30987 0.34374 0.74594 0.0
C3312 C 0.32555 0.34939 0.75886 0.0
C3313 C 0.32888 0.33864 0.77308 0.0
C3314 C 0.31654 0.32275 0.77469 0.0
C3315 C 0.3382 0.36699 0.7581 0.0
C3316 C 0.35408 0.36527 0.75309 0.0
C3317 C 0.33462 0.38542 0.76235 0.0
C3318 C 0.31871 0.38821 0.76938 0.0
C3319 C 0.3147 0.38183 0.7862 0.0
C3320 C 0.29976 0.38464 0.79292 0.0
C3321 C 0.28881 0.39397 0.78302 0.0
C3322 C 0.2928 0.40054 0.76642 0.0
C3323 C 0.30771 0.39773 0.75962 0.0
H3324 H 0.27727 0.39617 0.78827 0.0
H3325 H 0.42622 0.37182 0.73194 0.0
H3326 H 0.21606 0.55981 0.31636 0.0
H3327 H 0.22961 0.59179 0.31216 0.0
H3328 H 0.18576 0.59148 0.26999 0.0
H3329 H 0.1725 0.55896 0.27351 0.0
H3330 H 0.21145 0.60841 0.25803 0.0
H3331 H 0.19708 0.61858 0.32208 0.0
H3332 H 0.19754 0.61383 0.35569 0.0
H3333 H 0.25245 0.63179 0.36731 0.0
H3334 H 0.25232 0.6364 0.3337 0.0
H3335 H 0.23655 0.70818 0.25442 0.0
H3336 H 0.22208 0.67629 0.25807 0.0
H3337 H 0.26198 0.67831 0.30593 0.0
H3338 H 0.27523 0.7111 0.30352 0.0
H3339 H 0.23766 0.66019 0.31495 0.0
H3340 H 0.25299 0.64877 0.25134 0.0
H3341 H 0.25336 0.65321 0.21772 0.0
H3342 H 0.19836 0.63707 0.20511 0.0
H3343 H 0.19769 0.63273 0.2387 0.0
C3344 C 0.20924 0.56643 0.3061 0.0
C3345 C 0.19302 0.55646 0.29534 0.0
C3346 C 0.21701 0.58505 0.30384 0.0
C3347 C 0.20872 0.59482 0.29111 0.0
C3348 C 0.19264 0.5847 0.28005 0.0
C3349 C 0.18497 0.56591 0.28208 0.0
C3350 C 0.21679 0.61527 0.28911 0.0
C3351 C 0.21699 0.61972 0.27057 0.0
C3352 C 0.22464 0.63039 0.30519 0.0
C3353 C 0.22469 0.62764 0.32536 0.0
C3354 C 0.20924 0.62139 0.33178 0.0
C3355 C 0.20945 0.61874 0.35083 0.0
C3356 C 0.22501 0.62245 0.36361 0.0
C3357 C 0.24041 0.62888 0.35739 0.0
C3358 C 0.24027 0.63153 0.33835 0.0
C3359 C 0.24222 0.7018 0.26574 0.0
C3360 C 0.25717 0.71233 0.2786 0.0
C3361 C 0.23402 0.68321 0.26769 0.0
C3362 C 0.24098 0.67387 0.28189 0.0
C3363 C 0.256 0.68459 0.29475 0.0
C3364 C 0.26375 0.70351 0.29332 0.0
C3365 C 0.23262 0.6534 0.28378 0.0
C3366 C 0.23228 0.64892 0.30234 0.0
C3367 C 0.22486 0.63818 0.2677 0.0
C3368 C 0.2253 0.64061 0.24753 0.0
C3369 C 0.24099 0.64625 0.24139 0.0
C3370 C 0.24125 0.64875 0.22236 0.0
C3371 C 0.2259 0.64548 0.20931 0.0
C3372 C 0.21025 0.63963 0.21524 0.0
C3373 C 0.20992 0.63713 0.23426 0.0
H3374 H 0.22612 0.64744 0.19458 0.0
H3375 H 0.22514 0.62039 0.37835 0.0
H3376 H 0.48239 0.70321 0.4614 0.0
H3377 H 0.48707 0.67589 0.47567 0.0
H3378 H 0.52941 0.67193 0.44557 0.0
H3379 H 0.52458 0.69926 0.43084 0.0
H3380 H 0.50912 0.63728 0.44158 0.0
H3381 H 0.53553 0.68808 0.4954 0.0
H3382 H 0.53779 0.71734 0.51969 0.0
H3383 H 0.49497 0.68883 0.54175 0.0
H3384 H 0.49232 0.65947 0.51741 0.0
H3385 H 0.54686 0.57876 0.50013 0.0
H3386 H 0.54173 0.60712 0.48782 0.0
H3387 H 0.48939 0.59386 0.49664 0.0
H3388 H 0.49423 0.56485 0.5085 0.0
H3389 H 0.51423 0.63667 0.51177 0.0
H3390 H 0.48808 0.58566 0.45727 0.0
H3391 H 0.48712 0.55637 0.43365 0.0
H3392 H 0.53042 0.58575 0.41302 0.0
H3393 H 0.53195 0.61511 0.43694 0.0
C3394 C 0.49288 0.69676 0.45795 0.0
C3395 C 0.50312 0.70358 0.44493 0.0
C3396 C 0.49558 0.68109 0.46623 0.0
C3397 C 0.50868 0.67181 0.46187 0.0
C3398 C 0.51921 0.67881 0.44921 0.0
C3399 C 0.51653 0.69457 0.44091 0.0
C3400 C 0.51079 0.65433 0.46985 0.0
C3401 C 0.51045 0.63729 0.45696 0.0
C3402 C 0.51212 0.65402 0.48989 0.0
C3403 C 0.51363 0.67165 0.50447 0.0
C3404 C 0.52651 0.68811 0.50532 0.0
C3405 C 0.52788 0.7047 0.51912 0.0
C3406 C 0.51651 0.70496 0.53222 0.0
C3407 C 0.50376 0.68862 0.53158 0.0
C3408 C 0.50232 0.67199 0.5178 0.0
C3409 C 0.53425 0.58186 0.49959 0.0
C3410 C 0.52097 0.56959 0.50546 0.0
C3411 C 0.53135 0.59806 0.49246 0.0
C3412 C 0.51522 0.6026 0.49131 0.0
C3413 C 0.50195 0.59061 0.49744 0.0
C3414 C 0.50472 0.57405 0.50417 0.0
C3415 C 0.51242 0.61981 0.48347 0.0
C3416 C 0.51278 0.63675 0.4964 0.0
C3417 C 0.51117 0.62007 0.4635 0.0
C3418 C 0.51033 0.60247 0.44915 0.0
C3419 C 0.49759 0.58579 0.44793 0.0
C3420 C 0.49691 0.56919 0.43445 0.0
C3421 C 0.50878 0.56916 0.42192 0.0
C3422 C 0.5213 0.58577 0.4228 0.0
C3423 C 0.52209 0.60238 0.43634 0.0
H3424 H 0.50822 0.55631 0.41146 0.0
H3425 H 0.5176 0.71782 0.54291 0.0
H3426 H 0.61517 0.29919 0.65462 0.0
H3427 H 0.64477 0.2979 0.6673 0.0
H3428 H 0.62664 0.26822 0.71093 0.0
H3429 H 0.59739 0.26946 0.69853 0.0
H3430 H 0.65393 0.29633 0.72674 0.0
H3431 H 0.63863 0.24491 0.67105 0.0
H3432 H 0.62911 0.23039 0.63644 0.0
H3433 H 0.67253 0.26696 0.62258 0.0
H3434 H 0.68215 0.28193 0.6571 0.0
H3435 H 0.71851 0.25353 0.76249 0.0
H3436 H 0.69232 0.25829 0.74442 0.0
H3437 H 0.72198 0.29079 0.70993 0.0
H3438 H 0.74858 0.28604 0.72823 0.0
H3439 H 0.69116 0.26542 0.68798 0.0
H3440 H 0.70756 0.31473 0.74485 0.0
H3441 H 0.71685 0.328 0.77974 0.0
H3442 H 0.67083 0.29436 0.79155 0.0
H3443 H 0.66139 0.28063 0.75675 0.0
C3444 C 0.61751 0.29238 0.66689 0.0
C3445 C 0.60379 0.28445 0.67551 0.0
C3446 C 0.63446 0.29158 0.6741 0.0
C3447 C 0.63804 0.28291 0.69011 0.0
C3448 C 0.62433 0.27505 0.69865 0.0
C3449 C 0.60751 0.27574 0.69144 0.0
C3450 C 0.65594 0.28212 0.69841 0.0
C3451 C 0.66199 0.28948 0.71822 0.0
C3452 C 0.66678 0.27364 0.68733 0.0
C3453 C 0.66098 0.26472 0.66661 0.0
C3454 C 0.64605 0.25 0.66059 0.0
C3455 C 0.64065 0.24166 0.641 0.0
C3456 C 0.65017 0.24779 0.62731 0.0
C3457 C 0.66514 0.26225 0.63319 0.0
C3458 C 0.67057 0.27067 0.65277 0.0
C3459 C 0.71954 0.26159 0.75097 0.0
C3460 C 0.73569 0.26954 0.74694 0.0
C3461 C 0.7045 0.26433 0.74065 0.0
C3462 C 0.7051 0.27515 0.72596 0.0
C3463 C 0.72116 0.28245 0.72124 0.0
C3464 C 0.73635 0.27975 0.7317 0.0
C3465 C 0.6889 0.27928 0.71634 0.0
C3466 C 0.68317 0.27254 0.69638 0.0
C3467 C 0.67825 0.28825 0.72727 0.0
C3468 C 0.68383 0.29656 0.7482 0.0
C3469 C 0.69948 0.31006 0.7549 0.0
C3470 C 0.70476 0.31767 0.77466 0.0
C3471 C 0.69445 0.31201 0.78786 0.0
C3472 C 0.67881 0.29873 0.78131 0.0
C3473 C 0.67348 0.29104 0.76157 0.0
H3474 H 0.69856 0.31793 0.80315 0.0
H3475 H 0.64598 0.24131 0.61215 0.0
H3476 H 0.97583 0.29938 0.9487 0.0
H3477 H 0.98227 0.33367 0.96228 0.0
H3478 H 0.03471 0.33842 0.95436 0.0
H3479 H 0.02828 0.3039 0.94005 0.0
H3480 H 0.02348 0.35796 0.99495 0.0
H3481 H 0.02205 0.35581 0.92645 0.0
H3482 H 0.00996 0.34337 0.89192 0.0
H3483 H 0.96268 0.35913 0.9007 0.0
H3484 H 0.97443 0.37134 0.93541 0.0
H3485 H 0.04728 0.45972 0.00899 0.0
H3486 H 0.04389 0.42544 0.99736 0.0
H3487 H 0.98933 0.41911 0.98149 0.0
H3488 H 0.9926 0.45371 0.99308 0.0
H3489 H 1.00295 0.40017 0.95283 0.0
H3490 H 0.00521 0.40429 0.02107 0.0
H3491 H 0.01729 0.41669 0.05561 0.0
H3492 H 0.06328 0.39745 0.04768 0.0
H3493 H 0.05156 0.38519 0.01299 0.0
C3494 C 0.98883 0.30756 0.95002 0.0
C3495 C 1.00156 0.2988 0.94328 0.0
C3496 C 0.99244 0.32721 0.95776 0.0
C3497 C 0.00892 0.33852 0.95928 0.0
C3498 C 0.0219 0.32984 0.9533 0.0
C3499 C 0.0182 0.31016 0.94513 0.0
C3500 C 0.01208 0.35955 0.96628 0.0
C3501 C 0.01932 0.3673 0.9857 0.0
C3502 C 0.00617 0.37155 0.95432 0.0
C3503 C 0.99901 0.3642 0.93354 0.0
C3504 C 0.009 0.35637 0.92106 0.0
C3505 C 1.00223 0.34942 0.90145 0.0
C3506 C 0.98553 0.35038 0.89413 0.0
C3507 C 0.97559 0.35834 0.9064 0.0
C3508 C 0.9823 0.36528 0.92604 0.0
C3509 C 0.0345 0.45112 0.00304 0.0
C3510 C 0.02018 0.45952 1.00195 0.0
C3511 C 0.0326 0.43144 0.99648 0.0
C3512 C 0.01635 0.41966 0.9887 0.0
C3513 C 1.002 0.42795 0.98749 0.0
C3514 C 0.00387 0.4477 0.99418 0.0
C3515 C 0.01448 0.39875 0.98157 0.0
C3516 C 0.0073 0.39094 0.96212 0.0
C3517 C 0.02055 0.38676 0.99353 0.0
C3518 C 0.02757 0.39397 0.0144 0.0
C3519 C 0.01795 0.40283 0.02666 0.0
C3520 C 0.02472 0.40981 0.04627 0.0
C3521 C 0.04105 0.40789 0.05383 0.0
C3522 C 0.05063 0.39894 0.0418 0.0
C3523 C 0.04393 0.39196 0.02216 0.0
H3524 H 0.04627 0.4133 0.06902 0.0
H3525 H 0.98032 0.34502 0.87893 0.0
H3526 H 0.99383 0.76859 0.13958 0.0
H3527 H 0.96697 0.76198 0.15165 0.0
H3528 H 0.99504 0.7716 0.2098 0.0
H3529 H 0.02212 0.77755 0.19755 0.0
H3530 H 0.96811 0.74363 0.20557 0.0
H3531 H 0.97624 0.80718 0.1893 0.0
H3532 H 0.98076 0.82988 0.16712 0.0
H3533 H 0.93431 0.79869 0.12888 0.0
H3534 H 0.92965 0.77567 0.15073 0.0
H3535 H 0.90508 0.76631 0.25925 0.0
H3536 H 0.93012 0.76603 0.24379 0.0
H3537 H 0.89816 0.75615 0.18773 0.0
H3538 H 0.87291 0.75645 0.20318 0.0
H3539 H 0.92574 0.78211 0.1888 0.0
H3540 H 0.9158 0.72017 0.20446 0.0
H3541 H 0.91047 0.69583 0.22477 0.0
H3542 H 0.95889 0.72158 0.26188 0.0
H3543 H 0.96439 0.74627 0.24196 0.0
C3544 C 0.99436 0.76924 0.15491 0.0
C3545 C 0.01019 0.77389 0.16761 0.0
C3546 C 0.9789 0.76551 0.16185 0.0
C3547 C 0.97884 0.76688 0.18177 0.0
C3548 C 0.99465 0.7706 0.19439 0.0
C3549 C 0.01016 0.77397 0.18737 0.0
C3550 C 0.96239 0.76503 0.1895 0.0
C3551 C 0.95897 0.75225 0.20209 0.0
C3552 C 0.95 0.77565 0.18445 0.0
C3553 C 0.95269 0.78965 0.17153 0.0
C3554 C 0.96704 0.80514 0.17611 0.0
C3555 C 0.96963 0.81805 0.16361 0.0
C3556 C 0.95785 0.8157 0.14658 0.0
C3557 C 0.94343 0.80048 0.14206 0.0
C3558 C 0.94081 0.78751 0.1545 0.0
C3559 C 0.90327 0.76377 0.24361 0.0
C3560 C 0.88686 0.76124 0.2325 0.0
C3561 C 0.91767 0.76362 0.23476 0.0
C3562 C 0.9161 0.76075 0.21452 0.0
C3563 C 0.89977 0.75834 0.20336 0.0
C3564 C 0.88532 0.75857 0.21223 0.0
C3565 C 0.93161 0.76098 0.20518 0.0
C3566 C 0.93484 0.77345 0.19227 0.0
C3567 C 0.9437 0.74989 0.20975 0.0
C3568 C 0.94043 0.73516 0.22183 0.0
C3569 C 0.92524 0.72074 0.21705 0.0
C3570 C 0.9222 0.70686 0.22848 0.0
C3571 C 0.93431 0.70718 0.24463 0.0
C3572 C 0.94951 0.72136 0.24938 0.0
C3573 C 0.9526 0.7353 0.23802 0.0
H3574 H 0.93194 0.69641 0.25345 0.0
H3575 H 0.95989 0.82571 0.13691 0.0
H3576 H 0.52958 0.28747 0.11221 0.0
H3577 H 0.54074 0.3151 0.09819 0.0
H3578 H 0.57736 0.33967 0.15066 0.0
H3579 H 0.56678 0.31177 0.16454 0.0
H3580 H 0.54268 0.35628 0.1266 0.0
H3581 H 0.60103 0.3441 0.13253 0.0
H3582 H 0.62105 0.32276 0.12782 0.0
H3583 H 0.60066 0.30783 0.06696 0.0
H3584 H 0.5803 0.32885 0.07143 0.0
H3585 H 0.56034 0.43809 0.08826 0.0
H3586 H 0.56897 0.41642 0.10888 0.0
H3587 H 0.56393 0.37251 0.05818 0.0
H3588 H 0.55588 0.39439 0.03756 0.0
H3589 H 0.58788 0.36873 0.08664 0.0
H3590 H 0.5294 0.37695 0.07882 0.0
H3591 H 0.50706 0.39571 0.08039 0.0
H3592 H 0.52463 0.41529 0.1415 0.0
H3593 H 0.54724 0.39682 0.14022 0.0
C3594 C 0.54031 0.29852 0.12054 0.0
C3595 C 0.54732 0.29755 0.13942 0.0
C3596 C 0.54671 0.31417 0.11251 0.0
C3597 C 0.56001 0.3291 0.12336 0.0
C3598 C 0.5674 0.32795 0.14197 0.0
C3599 C 0.56127 0.31209 0.14986 0.0
C3600 C 0.56407 0.34704 0.11622 0.0
C3601 C 0.55287 0.35939 0.11833 0.0
C3602 C 0.57703 0.35056 0.10506 0.0
C3603 C 0.58899 0.33774 0.10237 0.0
C3604 C 0.60064 0.33601 0.11821 0.0
C3605 C 0.61209 0.32405 0.11557 0.0
C3606 C 0.61207 0.31387 0.09712 0.0
C3607 C 0.60062 0.31567 0.08126 0.0
C3608 C 0.58912 0.32759 0.08384 0.0
C3609 C 0.56169 0.42403 0.0816 0.0
C3610 C 0.55729 0.41764 0.0615 0.0
C3611 C 0.56663 0.41173 0.09331 0.0
C3612 C 0.5667 0.3928 0.08501 0.0
C3613 C 0.56393 0.38709 0.06481 0.0
C3614 C 0.55928 0.39951 0.05307 0.0
C3615 C 0.56649 0.37809 0.09704 0.0
C3616 C 0.57815 0.36614 0.09558 0.0
C3617 C 0.5537 0.37469 0.10858 0.0
C3618 C 0.54009 0.3857 0.10939 0.0
C3619 C 0.52856 0.38536 0.09256 0.0
C3620 C 0.51585 0.39591 0.0934 0.0
C3621 C 0.51444 0.40667 0.11103 0.0
C3622 C 0.52575 0.40694 0.12786 0.0
C3623 C 0.53851 0.39644 0.12709 0.0
H3624 H 0.50451 0.41471 0.11167 0.0
H3625 H 0.62098 0.30465 0.09509 0.0
H3626 H 0.98339 0.31833 0.33297 0.0
H3627 H 0.95592 0.32672 0.3228 0.0
H3628 H 0.93309 0.26689 0.299 0.0
H3629 H 0.96022 0.25849 0.3096 0.0
H3630 H 0.92186 0.29453 0.27689 0.0
H3631 H 0.92722 0.27737 0.34241 0.0
H3632 H 0.94285 0.28168 0.37576 0.0
H3633 H 0.94536 0.34234 0.38417 0.0
H3634 H 0.92944 0.33828 0.35093 0.0
H3635 H 0.83861 0.25508 0.28235 0.0
H3636 H 0.8698 0.26396 0.28754 0.0
H3637 H 0.86911 0.3212 0.31579 0.0
H3638 H 0.83783 0.31238 0.311 0.0
H3639 H 0.89405 0.30593 0.33443 0.0
H3640 H 0.87542 0.31512 0.27065 0.0
H3641 H 0.85746 0.30565 0.23819 0.0
H3642 H 0.87994 0.257 0.22569 0.0
H3643 H 0.89779 0.26596 0.2582 0.0
C3644 C 0.97261 0.30718 0.32491 0.0
C3645 C 0.97366 0.28785 0.32185 0.0
C3646 C 0.95704 0.31194 0.31919 0.0
C3647 C 0.94269 0.29738 0.31013 0.0
C3648 C 0.94418 0.27827 0.30578 0.0
C3649 C 0.95956 0.27348 0.31186 0.0
C3650 C 0.92549 0.30116 0.30797 0.0
C3651 C 0.91577 0.29743 0.28937 0.0
C3652 C 0.91778 0.30503 0.32438 0.0
C3653 C 0.92731 0.30756 0.34426 0.0
C3654 C 0.93115 0.29162 0.3514 0.0
C3655 C 0.94002 0.294 0.37025 0.0
C3656 C 0.94521 0.31229 0.38202 0.0
C3657 C 0.94138 0.3282 0.37501 0.0
C3658 C 0.93237 0.32586 0.35621 0.0
C3659 C 0.84508 0.2695 0.28981 0.0
C3660 C 0.83583 0.28309 0.29613 0.0
C3661 C 0.86285 0.27458 0.29266 0.0
C3662 C 0.87157 0.29335 0.3016 0.0
C3663 C 0.86247 0.30672 0.30869 0.0
C3664 C 0.84466 0.30162 0.30595 0.0
C3665 C 0.89024 0.29884 0.30329 0.0
C3666 C 0.90021 0.30414 0.32184 0.0
C3667 C 0.89811 0.29623 0.28679 0.0
C3668 C 0.88796 0.29124 0.26688 0.0
C3669 C 0.87652 0.3024 0.26098 0.0
C3670 C 0.86634 0.2971 0.24259 0.0
C3671 C 0.86757 0.28075 0.22988 0.0
C3672 C 0.87903 0.26969 0.23553 0.0
C3673 C 0.88921 0.27489 0.25394 0.0
H3674 H 0.85963 0.27664 0.21566 0.0
H3675 H 0.95216 0.31412 0.39658 0.0
H3676 H 0.01571 0.7116 0.609 0.0
H3677 H 0.02227 0.68476 0.58813 0.0
H3678 H 0.0487 0.66905 0.63808 0.0
H3679 H 0.04315 0.69682 0.65888 0.0
H3680 H 0.06532 0.66337 0.61075 0.0
H3681 H 0.00636 0.64498 0.61482 0.0
H3682 H 0.97649 0.64837 0.6136 0.0
H3683 H 0.97242 0.65098 0.55332 0.0
H3684 H 1.00236 0.64786 0.55425 0.0
H3685 H 0.05279 0.56424 0.56364 0.0
H3686 H 0.05407 0.59493 0.58467 0.0
H3687 H 0.03968 0.61874 0.53469 0.0
H3688 H 0.03856 0.58813 0.51351 0.0
H3689 H 0.01773 0.61992 0.56235 0.0
H3690 H 0.07844 0.63538 0.56037 0.0
H3691 H 0.10732 0.62862 0.56408 0.0
H3692 H 0.10659 0.62711 0.62404 0.0
H3693 H 0.07758 0.63355 0.62061 0.0
C3694 C 0.02286 0.70236 0.61551 0.0
C3695 C 0.0287 0.70603 0.63554 0.0
C3696 C 0.02658 0.687 0.6036 0.0
C3697 C 0.03558 0.67454 0.61157 0.0
C3698 C 0.04167 0.6784 0.63159 0.0
C3699 C 0.0384 0.69415 0.64347 0.0
C3700 C 0.03832 0.65735 0.599 0.0
C3701 C 0.05487 0.65377 0.60032 0.0
C3702 C 0.02471 0.64476 0.58536 0.0
C3703 C 0.00664 0.64636 0.58465 0.0
C3704 C 0.99912 0.64638 0.60133 0.0
C3705 C 0.98218 0.64825 0.60069 0.0
C3706 C 0.97258 0.64994 0.58341 0.0
C3707 C 0.97988 0.64969 0.5667 0.0
C3708 C 0.99683 0.64785 0.56727 0.0
C3709 C 0.05046 0.5762 0.5571 0.0
C3710 C 0.04554 0.57384 0.53696 0.0
C3711 C 0.05117 0.59369 0.56913 0.0
C3712 C 0.04695 0.60901 0.56117 0.0
C3713 C 0.043 0.60703 0.54102 0.0
C3714 C 0.04243 0.58959 0.52897 0.0
C3715 C 0.04471 0.62624 0.57389 0.0
C3716 C 0.02818 0.62967 0.57269 0.0
C3717 C 0.0582 0.63822 0.58802 0.0
C3718 C 0.07579 0.63482 0.59019 0.0
C3719 C 0.0844 0.63349 0.57431 0.0
C3720 C 0.10079 0.62973 0.57637 0.0
C3721 C 0.10877 0.6274 0.59427 0.0
C3722 C 0.10039 0.62891 0.61018 0.0
C3723 C 0.08398 0.63264 0.60819 0.0
H3724 H 0.12146 0.62446 0.59583 0.0
H3725 H 0.95947 0.65141 0.58295 0.0
H3726 H 0.57458 0.79861 0.86574 0.0
H3727 H 0.6031 0.80234 0.85644 0.0
H3728 H 0.57974 0.79287 0.79641 0.0
H3729 H 0.55155 0.78932 0.80539 0.0
H3730 H 0.59888 0.76542 0.80806 0.0
H3731 H 0.60195 0.83274 0.81195 0.0
H3732 H 0.60219 0.8659 0.8272 0.0
H3733 H 0.64663 0.86701 0.86851 0.0
H3734 H 0.64644 0.83368 0.85373 0.0
H3735 H 0.66626 0.76754 0.75701 0.0
H3736 H 0.64273 0.77982 0.76904 0.0
H3737 H 0.67018 0.79009 0.82757 0.0
H3738 H 0.69371 0.77777 0.81562 0.0
H3739 H 0.65024 0.81883 0.81824 0.0
H3740 H 0.64576 0.75076 0.81557 0.0
H3741 H 0.64607 0.71799 0.79956 0.0
H3742 H 0.6041 0.7187 0.75571 0.0
H3743 H 0.60378 0.75167 0.77128 0.0
C3744 C 0.57562 0.79782 0.85063 0.0
C3745 C 0.56088 0.79331 0.83626 0.0
C3746 C 0.59185 0.80004 0.84538 0.0
C3747 C 0.59335 0.79784 0.82577 0.0
C3748 C 0.57874 0.79464 0.8116 0.0
C3749 C 0.56265 0.79248 0.81679 0.0
C3750 C 0.60953 0.79552 0.81958 0.0
C3751 C 0.61005 0.77715 0.81015 0.0
C3752 C 0.62412 0.81077 0.82274 0.0
C3753 C 0.62397 0.83058 0.83196 0.0
C3754 C 0.61159 0.83992 0.8245 0.0
C3755 C 0.61177 0.85878 0.833 0.0
C3756 C 0.62436 0.86852 0.84889 0.0
C3757 C 0.63682 0.85941 0.85628 0.0
C3758 C 0.63668 0.84054 0.84784 0.0
C3759 C 0.6674 0.77288 0.77237 0.0
C3760 C 0.68153 0.7715 0.78548 0.0
C3761 C 0.65406 0.7799 0.77919 0.0
C3762 C 0.65483 0.78571 0.79914 0.0
C3763 C 0.6695 0.78571 0.81213 0.0
C3764 C 0.68276 0.7785 0.80534 0.0
C3765 C 0.63936 0.78886 0.80654 0.0
C3766 C 0.63902 0.80719 0.81626 0.0
C3767 C 0.62484 0.77359 0.80372 0.0
C3768 C 0.62489 0.75373 0.79444 0.0
C3769 C 0.63671 0.74399 0.8024 0.0
C3770 C 0.63687 0.72538 0.79343 0.0
C3771 C 0.62514 0.71629 0.77659 0.0
C3772 C 0.6132 0.72578 0.76873 0.0
C3773 C 0.61303 0.74443 0.77762 0.0
H3774 H 0.62528 0.70187 0.76967 0.0
H3775 H 0.62451 0.88315 0.85541 0.0
H3776 H 0.46683 0.47413 0.69552 0.0
H3777 H 0.4772 0.48061 0.66611 0.0
H3778 H 0.44814 0.52443 0.66349 0.0
H3779 H 0.43731 0.51765 0.69271 0.0
H3780 H 0.44738 0.50594 0.62813 0.0
H3781 H 0.4912 0.53614 0.68228 0.0
H3782 H 0.51125 0.53908 0.7126 0.0
H3783 H 0.53582 0.49784 0.68413 0.0
H3784 H 0.51573 0.49443 0.65369 0.0
H3785 H 0.51316 0.55557 0.57649 0.0
H3786 H 0.49756 0.55012 0.6032 0.0
H3787 H 0.49315 0.48912 0.58667 0.0
H3788 H 0.508 0.49431 0.55966 0.0
H3789 H 0.51049 0.51945 0.63166 0.0
H3790 H 0.46128 0.48695 0.57829 0.0
H3791 H 0.44252 0.48818 0.54828 0.0
H3792 H 0.42967 0.53909 0.57682 0.0
H3793 H 0.4487 0.53837 0.60689 0.0
C3794 C 0.46241 0.48494 0.68853 0.0
C3795 C 0.45133 0.49545 0.69654 0.0
C3796 C 0.46846 0.48873 0.67179 0.0
C3797 C 0.4638 0.50334 0.66286 0.0
C3798 C 0.452 0.51317 0.6702 0.0
C3799 C 0.4458 0.50925 0.6869 0.0
C3800 C 0.47177 0.50875 0.64635 0.0
C3801 C 0.46118 0.50901 0.62902 0.0
C3802 C 0.48982 0.51302 0.64744 0.0
C3803 C 0.50183 0.51488 0.66576 0.0
C3804 C 0.50077 0.52756 0.68253 0.0
C3805 C 0.51216 0.52933 0.69973 0.0
C3806 C 0.52477 0.51861 0.70031 0.0
C3807 C 0.52602 0.50611 0.68367 0.0
C3808 C 0.51464 0.50426 0.66644 0.0
C3809 C 0.50855 0.54101 0.5784 0.0
C3810 C 0.51166 0.52537 0.56602 0.0
C3811 C 0.4997 0.53793 0.59359 0.0
C3812 C 0.4941 0.51922 0.59666 0.0
C3813 C 0.49714 0.50361 0.58426 0.0
C3814 C 0.50562 0.50663 0.56887 0.0
C3815 C 0.48606 0.51593 0.61355 0.0
C3816 C 0.4967 0.5163 0.63093 0.0
C3817 C 0.46816 0.51253 0.61261 0.0
C3818 C 0.45656 0.51276 0.5947 0.0
C3819 C 0.45461 0.49853 0.57808 0.0
C3820 C 0.44391 0.4991 0.56109 0.0
C3821 C 0.43493 0.51372 0.56064 0.0
C3822 C 0.43665 0.52779 0.57719 0.0
C3823 C 0.4474 0.52731 0.59419 0.0
H3824 H 0.42662 0.51412 0.54748 0.0
H3825 H 0.53359 0.52002 0.71363 0.0
H3826 H 0.81818 0.25285 0.03565 0.0
H3827 H 0.8053 0.2614 0.00589 0.0
H3828 H 0.81924 0.21331 0.97226 0.0
H3829 H 0.83366 0.20637 1.00157 0.0
H3830 H 0.81799 0.23668 0.95161 0.0
H3831 H 0.78126 0.21417 0.99477 0.0
H3832 H 0.76826 0.21497 0.02427 0.0
H3833 H 0.75043 0.26512 0.01398 0.0
H3834 H 0.76371 0.2649 0.9848 0.0
H3835 H 0.75712 0.22142 0.86994 0.0
H3836 H 0.76537 0.21239 0.90094 0.0
H3837 H 0.76387 0.26871 0.93082 0.0
H3838 H 0.75617 0.27802 0.90022 0.0
H3839 H 0.7574 0.24004 0.95274 0.0
H3840 H 0.79847 0.2641 0.91234 0.0
H3841 H 0.81034 0.26187 0.88211 0.0
H3842 H 0.81827 0.20575 0.88699 0.0
H3843 H 0.80623 0.20757 0.91711 0.0
C3844 C 0.81936 0.245 0.02176 0.0
C3845 C 0.82697 0.22917 0.02066 0.0
C3846 C 0.8117 0.24956 0.00483 0.0
C3847 C 0.81062 0.23746 0.98692 0.0
C3848 C 0.81976 0.22282 0.98586 0.0
C3849 C 0.82813 0.21892 0.00262 0.0
C3850 C 0.79871 0.23843 0.96958 0.0
C3851 C 0.80471 0.23718 0.95196 0.0
C3852 C 0.78131 0.23923 0.96992 0.0
C3853 C 0.77359 0.23955 0.98769 0.0
C3854 C 0.77462 0.22539 0.99889 0.0
C3855 C 0.76724 0.22576 0.01555 0.0
C3856 C 0.7585 0.24005 0.02096 0.0
C3857 C 0.75721 0.25406 0.00978 0.0
C3858 C 0.76472 0.25385 0.99322 0.0
C3859 C 0.75789 0.2316 0.88316 0.0
C3860 C 0.7566 0.25063 0.88266 0.0
C3861 C 0.76251 0.22639 0.90081 0.0
C3862 C 0.76569 0.24014 0.91794 0.0
C3863 C 0.76159 0.258 0.91763 0.0
C3864 C 0.75711 0.26328 0.90005 0.0
C3865 C 0.77675 0.23797 0.93519 0.0
C3866 C 0.77065 0.23923 0.95266 0.0
C3867 C 0.79396 0.23687 0.93478 0.0
C3868 C 0.80127 0.23587 0.91678 0.0
C3869 C 0.80264 0.25124 0.90687 0.0
C3870 C 0.80942 0.25006 0.88978 0.0
C3871 C 0.815 0.23365 0.8826 0.0
C3872 C 0.81389 0.21842 0.89253 0.0
C3873 C 0.80709 0.21952 0.90959 0.0
H3874 H 0.82024 0.23276 0.86936 0.0
H3875 H 0.75273 0.24027 0.03382 0.0
H3876 H 0.09626 0.47116 0.21695 0.0
H3877 H 0.08374 0.47589 0.18535 0.0
H3878 H 0.12631 0.5231 0.18806 0.0
H3879 H 0.13919 0.5182 0.21997 0.0
H3880 H 0.09386 0.53148 0.17437 0.0
H3881 H 0.12329 0.48158 0.1578 0.0
H3882 H 0.13143 0.45068 0.15925 0.0
H3883 H 0.07889 0.42066 0.13977 0.0
H3884 H 0.0704 0.45142 0.13852 0.0
H3885 H 0.06448 0.53701 0.07449 0.0
H3886 H 0.08191 0.53525 0.10521 0.0
H3887 H 0.0483 0.48127 0.10589 0.0
H3888 H 0.0311 0.48298 0.07542 0.0
H3889 H 0.07884 0.47784 0.11758 0.0
H3890 H 0.04845 0.52582 0.13593 0.0
H3891 H 0.03838 0.55588 0.13649 0.0
H3892 H 0.09024 0.58869 0.1539 0.0
H3893 H 0.10065 0.55877 0.15308 0.0
C3894 C 0.10317 0.48251 0.21089 0.0
C3895 C 0.11896 0.49415 0.22131 0.0
C3896 C 0.0959 0.48521 0.19261 0.0
C3897 C 0.10391 0.49985 0.18386 0.0
C3898 C 0.11968 0.51165 0.19421 0.0
C3899 C 0.12717 0.50872 0.21251 0.0
C3900 C 0.09568 0.50248 0.16406 0.0
C3901 C 0.09094 0.51985 0.16187 0.0
C3902 C 0.09115 0.48729 0.14758 0.0
C3903 C 0.0962 0.4688 0.14823 0.0
C3904 C 0.11346 0.46839 0.15397 0.0
C3905 C 0.11814 0.45091 0.15474 0.0
C3906 C 0.10568 0.43372 0.14964 0.0
C3907 C 0.08852 0.43398 0.14373 0.0
C3908 C 0.08377 0.45144 0.14298 0.0
C3909 C 0.06087 0.5247 0.08111 0.0
C3910 C 0.04625 0.51013 0.07222 0.0
C3911 C 0.07082 0.52374 0.09891 0.0
C3912 C 0.06656 0.50817 0.10844 0.0
C3913 C 0.05215 0.4935 0.09923 0.0
C3914 C 0.0422 0.49452 0.08164 0.0
C3915 C 0.07687 0.50686 0.12778 0.0
C3916 C 0.08193 0.48963 0.12994 0.0
C3917 C 0.08146 0.52211 0.14427 0.0
C3918 C 0.07534 0.54007 0.14418 0.0
C3919 C 0.05772 0.53944 0.13962 0.0
C3920 C 0.05195 0.55645 0.14003 0.0
C3921 C 0.06366 0.57418 0.1452 0.0
C3922 C 0.08119 0.57494 0.14987 0.0
C3923 C 0.08703 0.55796 0.14941 0.0
H3924 H 0.05913 0.58732 0.14568 0.0
H3925 H 0.10933 0.42019 0.15024 0.0
H3926 H 0.82387 0.86604 0.4872 0.0
H3927 H 0.81734 0.85079 0.45293 0.0
H3928 H 0.7682 0.81998 0.46076 0.0
H3929 H 0.7745 0.83593 0.49523 0.0
H3930 H 0.79069 0.79723 0.43996 0.0
H3931 H 0.76405 0.84986 0.43749 0.0
H3932 H 0.76146 0.88354 0.44468 0.0
H3933 H 0.80402 0.90059 0.41644 0.0
H3934 H 0.80707 0.86703 0.4094 0.0
H3935 H 0.7622 0.76794 0.33575 0.0
H3936 H 0.76332 0.78012 0.37025 0.0
H3937 H 0.81266 0.81731 0.37296 0.0
H3938 H 0.81186 0.80485 0.33861 0.0
H3939 H 0.78633 0.8355 0.3883 0.0
H3940 H 0.81386 0.78287 0.39287 0.0
H3941 H 0.81676 0.74925 0.38667 0.0
H3942 H 0.77182 0.73202 0.4111 0.0
H3943 H 0.76846 0.76552 0.4171 0.0
C3944 C 0.81163 0.85608 0.48158 0.0
C3945 C 0.79968 0.85211 0.49377 0.0
C3946 C 0.80792 0.84741 0.46203 0.0
C3947 C 0.79231 0.83425 0.45432 0.0
C3948 C 0.78032 0.83011 0.46647 0.0
C3949 C 0.78387 0.83924 0.48606 0.0
C3950 C 0.78892 0.82491 0.43356 0.0
C3951 C 0.78932 0.80546 0.42861 0.0
C3952 C 0.78754 0.83576 0.41882 0.0
C3953 C 0.7859 0.85598 0.42312 0.0
C3954 C 0.77299 0.86083 0.43302 0.0
C3955 C 0.77141 0.87989 0.43702 0.0
C3956 C 0.7826 0.89421 0.43106 0.0
C3957 C 0.79538 0.88949 0.42107 0.0
C3958 C 0.79704 0.87045 0.41707 0.0
C3959 C 0.77336 0.77859 0.34375 0.0
C3960 C 0.78695 0.78545 0.33448 0.0
C3961 C 0.77398 0.7855 0.36344 0.0
C3962 C 0.78804 0.79964 0.37412 0.0
C3963 C 0.80168 0.80641 0.36495 0.0
C3964 C 0.80124 0.79921 0.34536 0.0
C3965 C 0.78831 0.80788 0.3947 0.0
C3966 C 0.7874 0.82717 0.39961 0.0
C3967 C 0.78911 0.79684 0.40935 0.0
C3968 C 0.79078 0.77664 0.40519 0.0
C3969 C 0.80445 0.77187 0.39665 0.0
C3970 C 0.80622 0.75285 0.39325 0.0
C3971 C 0.79449 0.73852 0.3985 0.0
C3972 C 0.78091 0.74315 0.40707 0.0
C3973 C 0.77905 0.76214 0.41044 0.0
H3974 H 0.79591 0.7238 0.39591 0.0
H3975 H 0.78134 0.90896 0.43415 0.0
H3976 H 0.46191 0.47249 0.79997 0.0
H3977 H 0.47417 0.47307 0.8338 0.0
H3978 H 0.48857 0.53502 0.84415 0.0
H3979 H 0.47626 0.53441 0.81066 0.0
H3980 H 0.51281 0.51981 0.86347 0.0
H3981 H 0.45208 0.51528 0.85398 0.0
H3982 H 0.42198 0.50111 0.8387 0.0
H3983 H 0.42538 0.44837 0.85764 0.0
H3984 H 0.45561 0.46217 0.87285 0.0
H3985 H 0.51579 0.54565 0.96445 0.0
H3986 H 0.50723 0.54232 0.92952 0.0
H3987 H 0.49337 0.48068 0.9234 0.0
H3988 H 0.50163 0.48379 0.95818 0.0
H3989 H 0.46966 0.49442 0.90166 0.0
H3990 H 0.53119 0.50173 0.9136 0.0
H3991 H 0.56066 0.51824 0.92956 0.0
H3992 H 0.55497 0.56844 0.90664 0.0
H3993 H 0.52537 0.55232 0.89077 0.0
C3994 C 0.46826 0.48609 0.80937 0.0
C3995 C 0.46841 0.50339 0.80291 0.0
C3996 C 0.47511 0.48646 0.82863 0.0
C3997 C 0.48216 0.50412 0.84142 0.0
C3998 C 0.48327 0.52128 0.83449 0.0
C3999 C 0.47627 0.52091 0.81542 0.0
C4000 C 0.48671 0.50507 0.86241 0.0
C4001 C 0.5034 0.51428 0.87184 0.0
C4002 C 0.47436 0.49794 0.87327 0.0
C4003 C 0.45616 0.48966 0.86432 0.0
C4004 C 0.44645 0.5006 0.85474 0.0
C4005 C 0.42937 0.49265 0.84611 0.0
C4006 C 0.4218 0.47382 0.8471 0.0
C4007 C 0.43128 0.46294 0.85682 0.0
C4008 C 0.44839 0.47082 0.86546 0.0
C4009 C 0.5108 0.5314 0.9557 0.0
C4010 C 0.50953 0.51499 0.96409 0.0
C4011 C 0.50599 0.52952 0.93576 0.0
C4012 C 0.4999 0.51123 0.92393 0.0
C4013 C 0.4981 0.4949 0.93232 0.0
C4014 C 0.50291 0.49674 0.95221 0.0
C4015 C 0.49581 0.509 0.90271 0.0
C4016 C 0.47916 0.49968 0.89326 0.0
C4017 C 0.50814 0.5163 0.89189 0.0
C4018 C 0.52604 0.52586 0.90111 0.0
C4019 C 0.5362 0.51632 0.91204 0.0
C4020 C 0.55292 0.52561 0.92107 0.0
C4021 C 0.55967 0.54438 0.91914 0.0
C4022 C 0.54972 0.5539 0.90813 0.0
C4023 C 0.53298 0.54469 0.8991 0.0
H4024 H 0.57262 0.55155 0.92615 0.0
H4025 H 0.40858 0.46768 0.84039 0.0
H4026 H 0.83129 0.19318 0.10012 0.0
H4027 H 0.82866 0.20918 0.13171 0.0
H4028 H 0.77377 0.1983 0.11404 0.0
H4029 H 0.77641 0.18291 0.08154 0.0
H4030 H 0.78682 0.23495 0.12904 0.0
H4031 H 0.79295 0.17581 0.14782 0.0
H4032 H 0.80611 0.14813 0.15023 0.0
H4033 H 0.85285 0.18604 0.18188 0.0
H4034 H 0.84006 0.21401 0.17937 0.0
H4035 H 0.76539 0.25325 0.22223 0.0
H4036 H 0.77079 0.23689 0.19167 0.0
H4037 H 0.82276 0.27059 0.20402 0.0
H4038 H 0.81725 0.28755 0.23469 0.0
H4039 H 0.81328 0.22424 0.19243 0.0
H4040 H 0.80639 0.2834 0.17309 0.0
H4041 H 0.79218 0.31039 0.17125 0.0
H4042 H 0.74564 0.27102 0.14108 0.0
H4043 H 0.75952 0.24375 0.14307 0.0
C4044 C 0.81856 0.1938 0.10296 0.0
C4045 C 0.80403 0.18698 0.08831 0.0
C4046 C 0.8171 0.20287 0.12113 0.0
C4047 C 0.80103 0.2048 0.12521 0.0
C4048 C 0.7863 0.19691 0.11104 0.0
C4049 C 0.78778 0.18802 0.09261 0.0
C4050 C 0.80001 0.21669 0.14363 0.0
C4051 C 0.79238 0.23241 0.1429 0.0
C4052 C 0.8079 0.21379 0.16162 0.0
C4053 C 0.81558 0.197 0.16329 0.0
C4054 C 0.80608 0.17826 0.15518 0.0
C4055 C 0.81346 0.16252 0.15657 0.0
C4056 C 0.83031 0.16533 0.16618 0.0
C4057 C 0.8398 0.18389 0.17444 0.0
C4058 C 0.83248 0.19969 0.17305 0.0
C4059 C 0.7779 0.25733 0.21831 0.0
C4060 C 0.79089 0.27169 0.23051 0.0
C4061 C 0.78095 0.24799 0.20096 0.0
C4062 C 0.79709 0.25271 0.19579 0.0
C4063 C 0.8102 0.26698 0.20795 0.0
C4064 C 0.80703 0.27667 0.22523 0.0
C4065 C 0.79997 0.24217 0.17767 0.0
C4066 C 0.80789 0.22674 0.17848 0.0
C4067 C 0.79228 0.24522 0.15977 0.0
C4068 C 0.78393 0.26155 0.15842 0.0
C4069 C 0.79307 0.28049 0.16625 0.0
C4070 C 0.78509 0.29584 0.16514 0.0
C4071 C 0.768 0.29242 0.1561 0.0
C4072 C 0.75887 0.27364 0.1481 0.0
C4073 C 0.76679 0.25824 0.14921 0.0
H4074 H 0.76184 0.30432 0.15525 0.0
H4075 H 0.836 0.15311 0.16727 0.0
H4076 H 0.10778 0.50715 0.322 0.0
H4077 H 0.09491 0.51028 0.35092 0.0
H4078 H 0.14472 0.51954 0.38635 0.0
H4079 H 0.15738 0.51441 0.35693 0.0
H4080 H 0.12689 0.50481 0.40622 0.0
H4081 H 0.11643 0.5569 0.37865 0.0
H4082 H 0.10733 0.57516 0.35424 0.0
H4083 H 0.05541 0.54317 0.34718 0.0
H4084 H 0.06425 0.52453 0.37138 0.0
H4085 H 0.09005 0.53359 0.49092 0.0
H4086 H 0.10608 0.53374 0.46408 0.0
H4087 H 0.05881 0.51162 0.42342 0.0
H4088 H 0.04278 0.51242 0.45014 0.0
H4089 H 0.0775 0.53572 0.40818 0.0
H4090 H 0.09305 0.48604 0.44154 0.0
H4091 H 0.10589 0.47542 0.47046 0.0
H4092 H 0.15398 0.51365 0.4713 0.0
H4093 H 0.14133 0.52459 0.44268 0.0
C4094 C 0.11612 0.50998 0.33592 0.0
C4095 C 0.13381 0.51075 0.33677 0.0
C4096 C 0.10867 0.51207 0.35279 0.0
C4097 C 0.11859 0.516 0.37159 0.0
C4098 C 0.13637 0.51668 0.37245 0.0
C4099 C 0.14377 0.51387 0.35543 0.0
C4100 C 0.11036 0.51887 0.38996 0.0
C4101 C 0.11625 0.51185 0.40649 0.0
C4102 C 0.09644 0.52822 0.39133 0.0
C4103 C 0.09104 0.53918 0.37665 0.0
C4104 C 0.10309 0.55366 0.37177 0.0
C4105 C 0.09798 0.56409 0.358 0.0
C4106 C 0.08081 0.56029 0.34912 0.0
C4107 C 0.06871 0.54607 0.35404 0.0
C4108 C 0.07376 0.53557 0.36779 0.0
C4109 C 0.083 0.52879 0.47629 0.0
C4110 C 0.06492 0.52298 0.47306 0.0
C4111 C 0.09229 0.5287 0.46072 0.0
C4112 C 0.08398 0.52222 0.44119 0.0
C4113 C 0.06589 0.51665 0.43803 0.0
C4114 C 0.05661 0.51707 0.45354 0.0
C4115 C 0.09373 0.52122 0.42402 0.0
C4116 C 0.08812 0.52864 0.40774 0.0
C4117 C 0.10849 0.51322 0.42336 0.0
C4118 C 0.11622 0.50606 0.44003 0.0
C4119 C 0.10637 0.49201 0.44789 0.0
C4120 C 0.11359 0.48602 0.46423 0.0
C4121 C 0.13074 0.49381 0.47265 0.0
C4122 C 0.14071 0.50759 0.46474 0.0
C4123 C 0.13351 0.51369 0.44847 0.0
H4124 H 0.13629 0.4892 0.48533 0.0
H4125 H 0.07687 0.56839 0.33846 0.0
H4126 H 0.80992 0.82739 0.58297 0.0
H4127 H 0.80474 0.81209 0.61046 0.0
H4128 H 0.77548 0.85323 0.62902 0.0
H4129 H 0.78022 0.86837 0.60117 0.0
H4130 H 0.8151 0.83264 0.6506 0.0
H4131 H 0.75031 0.83611 0.6401 0.0
H4132 H 0.72364 0.83075 0.61637 0.0
H4133 H 0.73158 0.77604 0.59043 0.0
H4134 H 0.75849 0.78135 0.6138 0.0
H4135 H 0.79332 0.8075 0.73906 0.0
H4136 H 0.79558 0.82274 0.71085 0.0
H4137 H 0.77498 0.76766 0.67296 0.0
H4138 H 0.77286 0.75235 0.70108 0.0
H4139 H 0.75974 0.79554 0.66099 0.0
H4140 H 0.81675 0.78714 0.67953 0.0
H4141 H 0.84365 0.79022 0.70206 0.0
H4142 H 0.85215 0.85172 0.71101 0.0
H4143 H 0.82512 0.84899 0.68876 0.0
C4144 C 0.80203 0.83295 0.59263 0.0
C4145 C 0.79538 0.84906 0.58971 0.0
C4146 C 0.79914 0.8242 0.60841 0.0
C4147 C 0.78957 0.83133 0.62175 0.0
C4148 C 0.78252 0.84712 0.61868 0.0
C4149 C 0.78526 0.85579 0.60272 0.0
C4150 C 0.78806 0.82298 0.63946 0.0
C4151 C 0.80296 0.82477 0.65303 0.0
C4152 C 0.77237 0.81233 0.64251 0.0
C4153 C 0.75643 0.80925 0.62841 0.0
C4154 C 0.74641 0.82305 0.62919 0.0
C4155 C 0.73127 0.82002 0.61583 0.0
C4156 C 0.72595 0.8031 0.60184 0.0
C4157 C 0.73576 0.78918 0.60119 0.0
C4158 C 0.75098 0.79223 0.61443 0.0
C4159 C 0.78947 0.7986 0.72472 0.0
C4160 C 0.78305 0.77867 0.72233 0.0
C4161 C 0.79071 0.80734 0.70859 0.0
C4162 C 0.78547 0.79636 0.68971 0.0
C4163 C 0.77905 0.77647 0.68733 0.0
C4164 C 0.77796 0.7677 0.70344 0.0
C4165 C 0.78675 0.80556 0.67246 0.0
C4166 C 0.77187 0.80371 0.65884 0.0
C4167 C 0.80252 0.81617 0.6694 0.0
C4168 C 0.81883 0.81786 0.68264 0.0
C4169 C 0.82429 0.80132 0.68642 0.0
C4170 C 0.83956 0.803 0.69912 0.0
C4171 C 0.84958 0.82116 0.708 0.0
C4172 C 0.84436 0.83767 0.70415 0.0
C4173 C 0.82907 0.83606 0.69149 0.0
H4174 H 0.86141 0.82243 0.71783 0.0
H4175 H 0.71419 0.80074 0.59156 0.0
H4176 H 0.70927 0.39693 0.49515 0.0
H4177 H 0.6874 0.41551 0.49799 0.0
H4178 H 0.65507 0.36868 0.51528 0.0
H4179 H 0.67718 0.34992 0.51282 0.0
H4180 H 0.64143 0.40037 0.48853 0.0
H4181 H 0.67174 0.38952 0.55052 0.0
H4182 H 0.6986 0.38705 0.5701 0.0
H4183 H 0.72289 0.44351 0.56372 0.0
H4184 H 0.69625 0.44609 0.54372 0.0
H4185 H 0.59603 0.45995 0.53723 0.0
H4186 H 0.61041 0.43345 0.5308 0.0
H4187 H 0.65888 0.47417 0.53895 0.0
H4188 H 0.64452 0.50075 0.54567 0.0
H4189 H 0.66272 0.44307 0.55304 0.0
H4190 H 0.63645 0.45711 0.49471 0.0
H4191 H 0.61307 0.46286 0.47182 0.0
H4192 H 0.58473 0.40508 0.46743 0.0
H4193 H 0.60783 0.3991 0.49061 0.0
C4194 C 0.69725 0.39027 0.49887 0.0
C4195 C 0.69501 0.37221 0.50424 0.0
C4196 C 0.68477 0.40087 0.50036 0.0
C4197 C 0.66989 0.39345 0.50708 0.0
C4198 C 0.66659 0.37448 0.51006 0.0
C4199 C 0.67919 0.36383 0.50865 0.0
C4200 C 0.65999 0.4069 0.51476 0.0
C4201 C 0.64569 0.40937 0.50282 0.0
C4202 C 0.66629 0.41921 0.53298 0.0
C4203 C 0.6821 0.41788 0.54547 0.0
C4204 C 0.68286 0.40132 0.55316 0.0
C4205 C 0.69804 0.39991 0.56433 0.0
C4206 C 0.71247 0.41509 0.5681 0.0
C4207 C 0.71172 0.43174 0.56076 0.0
C4208 C 0.6966 0.43318 0.5495 0.0
C4209 C 0.60981 0.46315 0.53801 0.0
C4210 C 0.61925 0.48224 0.54169 0.0
C4211 C 0.61796 0.44808 0.53429 0.0
C4212 C 0.63558 0.45196 0.53399 0.0
C4213 C 0.64523 0.47098 0.53904 0.0
C4214 C 0.63708 0.48609 0.54291 0.0
C4215 C 0.64371 0.4363 0.52706 0.0
C4216 C 0.65797 0.43368 0.53901 0.0
C4217 C 0.63763 0.42425 0.50861 0.0
C4218 C 0.62375 0.42774 0.49459 0.0
C4219 C 0.62516 0.44569 0.489 0.0
C4220 C 0.61197 0.44898 0.47596 0.0
C4221 C 0.59739 0.43437 0.46823 0.0
C4222 C 0.59601 0.4164 0.47348 0.0
C4223 C 0.60914 0.41305 0.48658 0.0
H4224 H 0.5872 0.43694 0.45812 0.0
H4225 H 0.72421 0.41396 0.57675 0.0
H4226 H 0.21767 0.09596 0.52743 0.0
H4227 H 0.18782 0.08251 0.52842 0.0
H4228 H 0.17172 0.11959 0.49137 0.0
H4229 H 0.20192 0.13326 0.4902 0.0
H4230 H 0.1531 0.11683 0.52292 0.0
H4231 H 0.16703 0.07486 0.47162 0.0
H4232 H 0.18441 0.05468 0.45586 0.0
H4233 H 0.17885 0.01828 0.49769 0.0
H4234 H 0.16165 0.03844 0.51388 0.0
H4235 H 0.06583 0.05914 0.50722 0.0
H4236 H 0.09349 0.07781 0.50277 0.0
H4237 H 0.11997 0.04329 0.53476 0.0
H4238 H 0.09261 0.0248 0.53921 0.0
H4239 H 0.13189 0.04629 0.50176 0.0
H4240 H 0.11975 0.08952 0.55436 0.0
H4241 H 0.10236 0.10957 0.57028 0.0
H4242 H 0.10421 0.14336 0.52594 0.0
H4243 H 0.12142 0.1233 0.50959 0.0
C4244 C 0.20787 0.10139 0.51948 0.0
C4245 C 0.21233 0.11569 0.50864 0.0
C4246 C 0.19072 0.09361 0.52006 0.0
C4247 C 0.17742 0.09988 0.50987 0.0
C4248 C 0.18173 0.11449 0.49936 0.0
C4249 C 0.19901 0.12223 0.49863 0.0
C4250 C 0.15915 0.09054 0.50993 0.0
C4251 C 0.14835 0.10146 0.51794 0.0
C4252 C 0.15291 0.07044 0.50374 0.0
C4253 C 0.16318 0.05824 0.49404 0.0
C4254 C 0.16963 0.06264 0.47754 0.0
C4255 C 0.17943 0.05119 0.46852 0.0
C4256 C 0.18277 0.03523 0.47579 0.0
C4257 C 0.17627 0.03066 0.49208 0.0
C4258 C 0.16649 0.04208 0.50118 0.0
C4259 C 0.07759 0.0557 0.51344 0.0
C4260 C 0.077 0.04044 0.52352 0.0
C4261 C 0.0934 0.06638 0.51091 0.0
C4262 C 0.10892 0.06199 0.5184 0.0
C4263 C 0.10826 0.04695 0.52872 0.0
C4264 C 0.09255 0.03641 0.53133 0.0
C4265 C 0.12591 0.07245 0.51516 0.0
C4266 C 0.13652 0.0617 0.50653 0.0
C4267 C 0.1319 0.09266 0.52078 0.0
C4268 C 0.12169 0.10479 0.53064 0.0
C4269 C 0.11633 0.10113 0.54792 0.0
C4270 C 0.10652 0.11251 0.55704 0.0
C4271 C 0.10213 0.1277 0.5491 0.0
C4272 C 0.10759 0.13157 0.53206 0.0
C4273 C 0.11737 0.12021 0.52286 0.0
H4274 H 0.09454 0.13649 0.55618 0.0
H4275 H 0.19036 0.02638 0.46878 0.0
H4276 H 0.19327 0.00936 0.81193 0.0
H4277 H 0.20483 0.98145 0.80087 0.0
H4278 H 0.15655 0.95419 0.76357 0.0
H4279 H 0.14504 0.98233 0.77404 0.0
H4280 H 0.17144 0.93371 0.79412 0.0
H4281 H 0.18235 0.96115 0.73977 0.0
H4282 H 0.19257 0.9866 0.72222 0.0
H4283 H 0.24412 0.99284 0.75139 0.0
H4284 H 0.23414 0.96765 0.76942 0.0
H4285 H 0.20868 0.85322 0.77024 0.0
H4286 H 0.19216 0.87764 0.76566 0.0
H4287 H 0.23773 0.92231 0.78853 0.0
H4288 H 0.25423 0.89817 0.79307 0.0
H4289 H 0.21977 0.93113 0.75845 0.0
H4290 H 0.20777 0.90745 0.81638 0.0
H4291 H 0.19751 0.88244 0.83448 0.0
H4292 H 0.1477 0.86956 0.79882 0.0
H4293 H 0.15781 0.89422 0.78024 0.0
C4294 C 0.18526 0.99762 0.80104 0.0
C4295 C 0.16829 0.998 0.79382 0.0
C4296 C 0.19187 0.98173 0.79473 0.0
C4297 C 0.1815 0.96588 0.78143 0.0
C4298 C 0.16471 0.9664 0.77377 0.0
C4299 C 0.15823 0.98249 0.7797 0.0
C4300 C 0.18783 0.94817 0.7771 0.0
C4301 C 0.18172 0.93287 0.78592 0.0
C4302 C 0.20137 0.94736 0.76667 0.0
C4303 C 0.20746 0.96267 0.7561 0.0
C4304 C 0.19583 0.96812 0.74263 0.0
C4305 C 0.20159 0.98246 0.73255 0.0
C4306 C 0.21898 0.99137 0.73572 0.0
C4307 C 0.23065 0.98595 0.74897 0.0
C4308 C 0.22495 0.97163 0.75912 0.0
C4309 C 0.21515 0.86825 0.77424 0.0
C4310 C 0.23276 0.87377 0.78202 0.0
C4311 C 0.20572 0.88217 0.77156 0.0
C4312 C 0.21371 0.90178 0.77687 0.0
C4313 C 0.23134 0.90726 0.78419 0.0
C4314 C 0.24076 0.89342 0.78677 0.0
C4315 C 0.20373 0.91682 0.77597 0.0
C4316 C 0.20921 0.93169 0.76626 0.0
C4317 C 0.18962 0.91728 0.78566 0.0
C4318 C 0.18359 0.90248 0.79681 0.0
C4319 C 0.19468 0.89916 0.81231 0.0
C4320 C 0.18889 0.88506 0.82265 0.0
C4321 C 0.17197 0.87439 0.81778 0.0
C4322 C 0.1608 0.87784 0.80258 0.0
C4323 C 0.16656 0.89183 0.79211 0.0
H4324 H 0.16751 0.86348 0.8258 0.0
H4325 H 0.22342 1.00246 0.72788 0.0
H4326 H 0.2966 0.92681 0.04088 0.0
H4327 H 0.32436 0.94421 0.03594 0.0
H4328 H 0.33594 0.89048 0.01184 0.0
H4329 H 0.30861 0.87319 0.01725 0.0
H4330 H 0.36322 0.9125 0.03401 0.0
H4331 H 0.32126 0.92034 0.983 0.0
H4332 H 0.29484 0.92907 0.96918 0.0
H4333 H 0.31445 0.98743 0.99936 0.0
H4334 H 0.34091 0.97896 0.01357 0.0
H4335 H 0.42919 0.94875 0.98525 0.0
H4336 H 0.40179 0.93226 0.99187 0.0
H4337 H 0.39359 0.98647 0.01979 0.0
H4338 H 0.42088 1.00306 0.01296 0.0
H4339 H 0.36493 0.96469 0.99636 0.0
H4340 H 0.40795 0.95542 0.04645 0.0
H4341 H 0.43441 0.94541 0.05793 0.0
H4342 H 0.41252 0.88789 0.02654 0.0
H4343 H 0.38601 0.89762 0.0147 0.0
C4344 C 0.30518 0.91877 0.03468 0.0
C4345 C 0.30057 0.89865 0.02966 0.0
C4346 C 0.32096 0.92868 0.03179 0.0
C4347 C 0.33211 0.91862 0.02332 0.0
C4348 C 0.32758 0.89851 0.01853 0.0
C4349 C 0.31196 0.88861 0.02172 0.0
C4350 C 0.34831 0.92899 0.01893 0.0
C4351 C 0.36356 0.92379 0.02563 0.0
C4352 C 0.34877 0.94383 0.00815 0.0
C4353 C 0.33298 0.94899 0.99946 0.0
C4354 C 0.31989 0.93501 0.98677 0.0
C4355 C 0.30491 0.93991 0.97886 0.0
C4356 C 0.30295 0.95879 0.98343 0.0
C4357 C 0.31598 0.97281 0.99586 0.0
C4358 C 0.33097 0.96797 0.00383 0.0
C4359 C 0.42151 0.9571 0.99281 0.0
C4360 C 0.4271 0.97712 0.99869 0.0
C4361 C 0.40592 0.9477 0.99658 0.0
C4362 C 0.39585 0.95816 0.00657 0.0
C4363 C 0.40123 0.9782 0.01208 0.0
C4364 C 0.41675 0.98763 0.00815 0.0
C4365 C 0.37976 0.9482 0.01146 0.0
C4366 C 0.36455 0.95346 0.00483 0.0
C4367 C 0.37931 0.93322 0.02204 0.0
C4368 C 0.39505 0.92727 0.02962 0.0
C4369 C 0.40881 0.94065 0.04196 0.0
C4370 C 0.42381 0.93503 0.04853 0.0
C4371 C 0.42516 0.91603 0.04294 0.0
C4372 C 0.41147 0.90259 0.03085 0.0
C4373 C 0.39644 0.90814 0.02424 0.0
H4374 H 0.4368 0.91171 0.04801 0.0
H4375 H 0.29134 0.96256 0.9773 0.0
H4376 H 0.89911 0.61088 0.77435 0.0
H4377 H 0.88545 0.63835 0.77362 0.0
H4378 H 0.83603 0.59945 0.75569 0.0
H4379 H 0.84973 0.57198 0.75687 0.0
H4380 H 0.83656 0.62928 0.73633 0.0
H4381 H 0.84993 0.62573 0.80279 0.0
H4382 H 0.86807 0.62458 0.83323 0.0
H4383 H 0.89948 0.6797 0.83274 0.0
H4384 H 0.88166 0.68104 0.8021 0.0
H4385 H 0.78501 0.69844 0.75669 0.0
H4386 H 0.79935 0.67156 0.75557 0.0
H4387 H 0.84797 0.71124 0.7773 0.0
H4388 H 0.83358 0.73828 0.77843 0.0
H4389 H 0.84822 0.68124 0.79434 0.0
H4390 H 0.83504 0.68512 0.72814 0.0
H4391 H 0.81707 0.68652 0.69768 0.0
H4392 H 0.7857 0.63117 0.69744 0.0
H4393 H 0.80335 0.62958 0.72808 0.0
C4394 C 0.88536 0.60805 0.76978 0.0
C4395 C 0.87577 0.5888 0.76506 0.0
C4396 C 0.8774 0.62398 0.76962 0.0
C4397 C 0.8594 0.62155 0.76469 0.0
C4398 C 0.84985 0.60226 0.7595 0.0
C4399 C 0.85779 0.58634 0.76002 0.0
C4400 C 0.85063 0.63887 0.76537 0.0
C4401 C 0.83904 0.64042 0.7492 0.0
C4402 C 0.85377 0.65416 0.78177 0.0
C4403 C 0.8646 0.65336 0.80004 0.0
C4404 C 0.86081 0.63752 0.80907 0.0
C4405 C 0.87101 0.63685 0.82638 0.0
C4406 C 0.88495 0.65203 0.83488 0.0
C4407 C 0.8887 0.66793 0.8261 0.0
C4408 C 0.87856 0.66865 0.80877 0.0
C4409 C 0.79878 0.70164 0.76115 0.0
C4410 C 0.8079 0.72101 0.76754 0.0
C4411 C 0.80713 0.686 0.76043 0.0
C4412 C 0.82509 0.68877 0.76612 0.0
C4413 C 0.83421 0.70814 0.77272 0.0
C4414 C 0.82587 0.72384 0.77327 0.0
C4415 C 0.83414 0.67167 0.76529 0.0
C4416 C 0.84577 0.67013 0.78144 0.0
C4417 C 0.83109 0.65643 0.74884 0.0
C4418 C 0.82039 0.65733 0.73051 0.0
C4419 C 0.82422 0.67332 0.72168 0.0
C4420 C 0.8141 0.67414 0.70437 0.0
C4421 C 0.80022 0.65897 0.69566 0.0
C4422 C 0.79644 0.64293 0.70423 0.0
C4423 C 0.80649 0.64206 0.72156 0.0
H4424 H 0.79241 0.65962 0.68225 0.0
H4425 H 0.89283 0.65149 0.84829 0.0
H4426 H 0.82303 0.64923 0.00259 0.0
H4427 H 0.84954 0.63824 0.0088 0.0
H4428 H 0.82282 0.59072 0.0305 0.0
H4429 H 0.79626 0.60208 0.0249 0.0
H4430 H 0.85419 0.60468 0.05177 0.0
H4431 H 0.83166 0.58613 0.98301 0.0
H4432 H 0.82129 0.59239 0.95089 0.0
H4433 H 0.86951 0.63101 0.95295 0.0
H4434 H 0.88006 0.62516 0.98519 0.0
H4435 H 0.9111 0.54209 0.04124 0.0
H4436 H 0.88698 0.55773 0.03986 0.0
H4437 H 0.91513 0.6021 0.01527 0.0
H4438 H 0.93938 0.58643 0.01656 0.0
H4439 H 0.88405 0.59162 0.99632 0.0
H4440 H 0.90773 0.60995 0.06322 0.0
H4441 H 0.91894 0.60593 0.09597 0.0
H4442 H 0.87028 0.5706 0.09856 0.0
H4443 H 0.85885 0.57416 0.06569 0.0
C4444 C 0.82278 0.63662 0.00897 0.0
C4445 C 0.80741 0.62656 0.01322 0.0
C4446 C 0.83799 0.63022 0.01236 0.0
C4447 C 0.83821 0.61337 0.01975 0.0
C4448 C 0.82304 0.6037 0.0247 0.0
C4449 C 0.80782 0.61021 0.02147 0.0
C4450 C 0.85404 0.60548 0.02166 0.0
C4451 C 0.86059 0.60159 0.03957 0.0
C4452 C 0.86285 0.60203 0.00599 0.0
C4453 C 0.85658 0.60533 0.98654 0.0
C4454 C 0.84 0.59603 0.97664 0.0
C4455 C 0.8341 0.5995 0.95842 0.0
C4456 C 0.84472 0.61212 0.9499 0.0
C4457 C 0.86129 0.62126 0.95957 0.0
C4458 C 0.86724 0.61786 0.9778 0.0
C4459 C 0.91232 0.55533 0.03579 0.0
C4460 C 0.92733 0.563 0.0291 0.0
C4461 C 0.89845 0.56431 0.03502 0.0
C4462 C 0.8992 0.58132 0.02772 0.0
C4463 C 0.91415 0.58901 0.02099 0.0
C4464 C 0.92803 0.57998 0.02168 0.0
C4465 C 0.88417 0.59061 0.02641 0.0
C4466 C 0.87774 0.59474 0.00858 0.0
C4467 C 0.87562 0.59451 0.04224 0.0
C4468 C 0.88249 0.59217 0.06192 0.0
C4469 C 0.89947 0.60117 0.0707 0.0
C4470 C 0.90585 0.599 0.0893 0.0
C4471 C 0.89534 0.58798 0.09932 0.0
C4472 C 0.87842 0.57911 0.09077 0.0
C4473 C 0.87197 0.58121 0.07216 0.0
H4474 H 0.90031 0.58634 0.11373 0.0
H4475 H 0.84013 0.6148 0.9358 0.0
H4476 H 0.15876 0.08365 0.77878 0.0
H4477 H 0.17653 0.111 0.76934 0.0
H4478 H 0.20637 0.12741 0.82689 0.0
H4479 H 0.18899 0.09998 0.83639 0.0
H4480 H 0.18347 0.15204 0.78767 0.0
H4481 H 0.23715 0.13002 0.82335 0.0
H4482 H 0.24903 0.10153 0.82676 0.0
H4483 H 0.23437 0.08008 0.76552 0.0
H4484 H 0.2221 0.10828 0.76192 0.0
H4485 H 0.24928 0.23518 0.79484 0.0
H4486 H 0.22884 0.20723 0.79935 0.0
H4487 H 0.24754 0.17078 0.75682 0.0
H4488 H 0.26846 0.19873 0.75284 0.0
H4489 H 0.2448 0.15407 0.78504 0.0
H4490 H 0.20737 0.18365 0.74927 0.0
H4491 H 0.19234 0.20816 0.73992 0.0
H4492 H 0.17136 0.21131 0.79228 0.0
H4493 H 0.18681 0.18744 0.80234 0.0
C4494 C 0.16907 0.0931 0.78947 0.0
C4495 C 0.17248 0.08953 0.80835 0.0
C4496 C 0.17923 0.10869 0.78402 0.0
C4497 C 0.19295 0.12099 0.79732 0.0
C4498 C 0.19611 0.11779 0.81627 0.0
C4499 C 0.18608 0.10216 0.82171 0.0
C4500 C 0.20393 0.13733 0.79153 0.0
C4501 C 0.19694 0.1527 0.78725 0.0
C4502 C 0.22122 0.13774 0.7902 0.0
C4503 C 0.22864 0.12102 0.79242 0.0
C4504 C 0.23642 0.11914 0.81068 0.0
C4505 C 0.24318 0.10306 0.81264 0.0
C4506 C 0.24242 0.08898 0.79637 0.0
C4507 C 0.23489 0.09095 0.77812 0.0
C4508 C 0.22798 0.10691 0.77612 0.0
C4509 C 0.24891 0.22122 0.78631 0.0
C4510 C 0.26048 0.21909 0.77351 0.0
C4511 C 0.23714 0.20524 0.78882 0.0
C4512 C 0.23645 0.18681 0.77831 0.0
C4513 C 0.24779 0.18479 0.76517 0.0
C4514 C 0.25971 0.20076 0.76283 0.0
C4515 C 0.22463 0.16957 0.7818 0.0
C4516 C 0.23141 0.15381 0.78555 0.0
C4517 C 0.20698 0.16874 0.7822 0.0
C4518 C 0.19841 0.18388 0.77665 0.0
C4519 C 0.1998 0.18982 0.75896 0.0
C4520 C 0.19118 0.20359 0.75352 0.0
C4521 C 0.18092 0.21131 0.7655 0.0
C4522 C 0.17935 0.20538 0.78303 0.0
C4523 C 0.18811 0.1918 0.78865 0.0
H4524 H 0.1742 0.22193 0.76123 0.0
H4525 H 0.2477 0.07656 0.79791 0.0
H4526 H 0.3913 0.97501 0.2521 0.0
H4527 H 0.37765 0.94116 0.25047 0.0
H4528 H 0.3377 0.95881 0.27838 0.0
H4529 H 0.35169 0.99238 0.2808 0.0
H4530 H 0.34489 0.93274 0.29412 0.0
H4531 H 0.33441 0.9342 0.22567 0.0
H4532 H 0.34266 0.93921 0.19444 0.0
H4533 H 0.37431 0.89819 0.1974 0.0
H4534 H 0.3664 0.89312 0.22874 0.0
H4535 H 0.28958 0.8415 0.28546 0.0
H4536 H 0.30261 0.87406 0.28251 0.0
H4537 H 0.33889 0.85216 0.25108 0.0
H4538 H 0.32464 0.81928 0.25248 0.0
H4539 H 0.33494 0.88 0.23715 0.0
H4540 H 0.34642 0.87859 0.30508 0.0
H4541 H 0.33895 0.87314 0.33651 0.0
H4542 H 0.30699 0.91399 0.33521 0.0
H4543 H 0.31414 0.91952 0.30369 0.0
C4544 C 0.3794 0.9717 0.25752 0.0
C4545 C 0.37265 0.98678 0.26644 0.0
C4546 C 0.37149 0.95212 0.25658 0.0
C4547 C 0.35629 0.94682 0.26413 0.0
C4548 C 0.34935 0.96198 0.27248 0.0
C4549 C 0.35738 0.98142 0.27371 0.0
C4550 C 0.34794 0.92591 0.2644 0.0
C4551 C 0.34255 0.92137 0.28145 0.0
C4552 C 0.34522 0.91037 0.24838 0.0
C4553 C 0.34996 0.91345 0.2296 0.0
C4554 C 0.34322 0.92636 0.2197 0.0
C4555 C 0.34782 0.92919 0.20198 0.0
C4556 C 0.35904 0.91907 0.19397 0.0
C4557 C 0.36565 0.90605 0.20363 0.0
C4558 C 0.36111 0.90318 0.22136 0.0
C4559 C 0.30031 0.84356 0.27786 0.0
C4560 C 0.30604 0.82754 0.26937 0.0
C4561 C 0.30805 0.86245 0.27639 0.0
C4562 C 0.32247 0.8663 0.26724 0.0
C4563 C 0.32799 0.85014 0.25842 0.0
C4564 C 0.31982 0.83114 0.25928 0.0
C4565 C 0.33165 0.88692 0.26681 0.0
C4566 C 0.33726 0.89138 0.2498 0.0
C4567 C 0.33477 0.90242 0.28295 0.0
C4568 C 0.33071 0.89935 0.30201 0.0
C4569 C 0.33777 0.88636 0.3115 0.0
C4570 C 0.33359 0.88326 0.32931 0.0
C4571 C 0.32247 0.89318 0.33783 0.0
C4572 C 0.31558 0.9063 0.32859 0.0
C4573 C 0.31971 0.90944 0.31077 0.0
H4574 H 0.31923 0.89073 0.35161 0.0
H4575 H 0.36259 0.92128 0.18025 0.0
H4576 H 0.5251 0.32067 0.5779 0.0
H4577 H 0.52755 0.34868 0.56296 0.0
H4578 H 0.57443 0.37603 0.60287 0.0
H4579 H 0.57169 0.34793 0.61856 0.0
H4580 H 0.55409 0.40055 0.60057 0.0
H4581 H 0.57333 0.35901 0.55284 0.0
H4582 H 0.57207 0.32896 0.53012 0.0
H4583 H 0.5242 0.33347 0.49864 0.0
H4584 H 0.52505 0.36341 0.52133 0.0
H4585 H 0.56625 0.47889 0.55026 0.0
H4586 H 0.57105 0.45045 0.5629 0.0
H4587 H 0.52145 0.41829 0.53187 0.0
H4588 H 0.51647 0.44658 0.51932 0.0
H4589 H 0.54652 0.39711 0.5296 0.0
H4590 H 0.52508 0.43536 0.57773 0.0
H4591 H 0.52448 0.46498 0.60005 0.0
H4592 H 0.57456 0.46607 0.63035 0.0
H4593 H 0.57557 0.43661 0.60795 0.0
C4594 C 0.53614 0.33245 0.58339 0.0
C4595 C 0.54824 0.3319 0.59947 0.0
C4596 C 0.53757 0.34853 0.57469 0.0
C4597 C 0.5513 0.36452 0.58152 0.0
C4598 C 0.56374 0.36387 0.59722 0.0
C4599 C 0.56227 0.3477 0.60607 0.0
C4600 C 0.5519 0.38215 0.57289 0.0
C4601 C 0.55288 0.39983 0.58508 0.0
C4602 C 0.54972 0.38129 0.5526 0.0
C4603 C 0.54922 0.36338 0.53885 0.0
C4604 C 0.56249 0.35353 0.54114 0.0
C4605 C 0.56185 0.33652 0.52826 0.0
C4606 C 0.54805 0.32929 0.51296 0.0
C4607 C 0.53488 0.33908 0.51049 0.0
C4608 C 0.53545 0.35608 0.52334 0.0
C4609 C 0.55644 0.46571 0.54593 0.0
C4610 C 0.54093 0.46509 0.53382 0.0
C4611 C 0.55918 0.44948 0.55326 0.0
C4612 C 0.54654 0.43225 0.54848 0.0
C4613 C 0.53138 0.43139 0.53577 0.0
C4614 C 0.52854 0.44764 0.52864 0.0
C4615 C 0.54874 0.41533 0.55728 0.0
C4616 C 0.54812 0.39783 0.54511 0.0
C4617 C 0.55107 0.41629 0.57753 0.0
C4618 C 0.5505 0.43394 0.59104 0.0
C4619 C 0.53604 0.44202 0.58904 0.0
C4620 C 0.53561 0.45876 0.60172 0.0
C4621 C 0.5495 0.46743 0.61658 0.0
C4622 C 0.56383 0.45936 0.6188 0.0
C4623 C 0.56434 0.44264 0.60612 0.0
H4624 H 0.54913 0.48038 0.6264 0.0
H4625 H 0.54758 0.31612 0.50301 0.0
H4626 H 0.45511 0.77199 0.40068 0.0
H4627 H 0.4275 0.77735 0.38616 0.0
H4628 H 0.42904 0.73931 0.33326 0.0
H4629 H 0.45719 0.73539 0.34733 0.0
H4630 H 0.41697 0.76518 0.32291 0.0
H4631 H 0.40276 0.72811 0.37128 0.0
H4632 H 0.40426 0.7209 0.4041 0.0
H4633 H 0.38855 0.77292 0.42403 0.0
H4634 H 0.38719 0.78056 0.39136 0.0
H4635 H 0.32864 0.73289 0.28385 0.0
H4636 H 0.35686 0.73499 0.30244 0.0
H4637 H 0.35555 0.79003 0.33533 0.0
H4638 H 0.32718 0.78829 0.3162 0.0
H4639 H 0.36736 0.76002 0.35722 0.0
H4640 H 0.37882 0.79373 0.30563 0.0
H4641 H 0.37575 0.7975 0.27159 0.0
H4642 H 0.3953 0.74705 0.25653 0.0
H4643 H 0.39818 0.74278 0.29044 0.0
C4644 C 0.4495 0.76492 0.38592 0.0
C4645 C 0.4582 0.75331 0.37506 0.0
C4646 C 0.43361 0.76779 0.37764 0.0
C4647 C 0.42576 0.75845 0.35861 0.0
C4648 C 0.43463 0.74681 0.34789 0.0
C4649 C 0.45072 0.74446 0.35594 0.0
C4650 C 0.40849 0.76076 0.34962 0.0
C4651 C 0.40618 0.76384 0.3305 0.0
C4652 C 0.39422 0.75957 0.35938 0.0
C4653 C 0.39506 0.755 0.37897 0.0
C4654 C 0.39974 0.73807 0.38271 0.0
C4655 C 0.40056 0.7339 0.40127 0.0
C4656 C 0.39655 0.74647 0.41616 0.0
C4657 C 0.39169 0.76322 0.4125 0.0
C4658 C 0.39089 0.76747 0.39397 0.0
C4659 C 0.33424 0.74545 0.2951 0.0
C4660 C 0.32562 0.76046 0.29851 0.0
C4661 C 0.35043 0.74661 0.30571 0.0
C4662 C 0.35838 0.76268 0.32021 0.0
C4663 C 0.34964 0.77748 0.32419 0.0
C4664 C 0.33344 0.77647 0.31328 0.0
C4665 C 0.37602 0.76394 0.33063 0.0
C4666 C 0.37832 0.76152 0.34989 0.0
C4667 C 0.39019 0.76525 0.32088 0.0
C4668 C 0.38857 0.76785 0.30053 0.0
C4669 C 0.38231 0.78334 0.29503 0.0
C4670 C 0.38063 0.78558 0.27576 0.0
C4671 C 0.38529 0.7725 0.2619 0.0
C4672 C 0.39167 0.75716 0.26728 0.0
C4673 C 0.39334 0.75483 0.28652 0.0
H4674 H 0.38399 0.77426 0.24699 0.0
H4675 H 0.39718 0.74321 0.43052 0.0
H4676 H 0.0582 0.74583 0.08585 0.0
H4677 H 0.06024 0.71347 0.07034 0.0
H4678 H 0.02449 0.68821 0.10381 0.0
H4679 H 0.02207 0.72035 0.11878 0.0
H4680 H 0.05457 0.67276 0.10357 0.0
H4681 H 0.00976 0.68725 0.06013 0.0
H4682 H 0.99722 0.70623 0.03853 0.0
H4683 H 0.03481 0.69965 1.0023 0.0
H4684 H 0.04776 0.68089 0.02391 0.0
H4685 H 0.01546 0.57741 0.05349 0.0
H4686 H 0.01953 0.61182 0.0657 0.0
H4687 H 0.06331 0.62321 0.03754 0.0
H4688 H 0.05966 0.5885 0.02564 0.0
H4689 H 0.03294 0.64671 0.03363 0.0
H4690 H 0.07728 0.63129 0.0763 0.0
H4691 H 0.08968 0.61213 0.09778 0.0
H4692 H 0.05323 0.62047 0.13511 0.0
H4693 H 0.0404 0.63942 0.1136 0.0
C4694 C 0.05085 0.7333 0.08984 0.0
C4695 C 0.03999 0.73542 0.10343 0.0
C4696 C 0.05198 0.7149 0.08099 0.0
C4697 C 0.0425 0.69846 0.08593 0.0
C4698 C 0.03192 0.70069 0.09981 0.0
C4699 C 0.03052 0.71899 0.10831 0.0
C4700 C 0.04338 0.67885 0.07665 0.0
C4701 C 0.04984 0.66709 0.08828 0.0
C4702 C 0.03753 0.67155 0.05663 0.0
C4703 C 0.02988 0.68296 0.04378 0.0
C4704 C 0.01548 0.69007 0.04769 0.0
C4705 C 0.00827 0.70074 0.03542 0.0
C4706 C 0.01526 0.70422 0.0191 0.0
C4707 C 0.02945 0.697 0.01499 0.0
C4708 C 0.03673 0.68636 0.02724 0.0
C4709 C 0.02593 0.58718 0.04978 0.0
C4710 C 0.03723 0.58022 0.03856 0.0
C4711 C 0.02824 0.60684 0.05681 0.0
C4712 C 0.0417 0.61999 0.05251 0.0
C4713 C 0.05284 0.61322 0.04098 0.0
C4714 C 0.05077 0.59344 0.03427 0.0
C4715 C 0.0441 0.64072 0.06058 0.0
C4716 C 0.03805 0.65258 0.04881 0.0
C4717 C 0.05039 0.64818 0.08045 0.0
C4718 C 0.05777 0.63654 0.09323 0.0
C4719 C 0.07175 0.6288 0.08894 0.0
C4720 C 0.07889 0.61804 0.10114 0.0
C4721 C 0.07223 0.61507 0.11777 0.0
C4722 C 0.05836 0.62278 0.1222 0.0
C4723 C 0.05115 0.63353 0.11001 0.0
H4724 H 0.07791 0.6069 0.12727 0.0
H4725 H 0.00964 0.71246 0.0096 0.0
H4726 H 0.06056 0.24201 0.89137 0.0
H4727 H 0.08843 0.24542 0.88092 0.0
H4728 H 0.08343 0.29936 0.86503 0.0
H4729 H 0.05548 0.29585 0.87504 0.0
H4730 H 0.09334 0.27918 0.83728 0.0
H4731 H 0.11247 0.29642 0.90525 0.0
H4732 H 0.11464 0.29341 0.93947 0.0
H4733 H 0.13302 0.24177 0.92691 0.0
H4734 H 0.13071 0.24431 0.89253 0.0
H4735 H 0.1774 0.30434 0.81734 0.0
H4736 H 0.15249 0.30451 0.83314 0.0
H4737 H 0.15408 0.24843 0.84546 0.0
H4738 H 0.17952 0.24849 0.83044 0.0
H4739 H 0.14652 0.27099 0.87575 0.0
H4740 H 0.12607 0.25465 0.80655 0.0
H4741 H 0.125 0.26016 0.77313 0.0
H4742 H 0.11007 0.31344 0.78953 0.0
H4743 H 0.11128 0.30835 0.82311 0.0
C4744 C 0.06546 0.2547 0.88584 0.0
C4745 C 0.05569 0.26862 0.88403 0.0
C4746 C 0.08148 0.25669 0.87993 0.0
C4747 C 0.0882 0.27273 0.87226 0.0
C4748 C 0.07859 0.28681 0.87082 0.0
C4749 C 0.06258 0.2848 0.87664 0.0
C4750 C 0.10475 0.2744 0.86477 0.0
C4751 C 0.105 0.27766 0.84587 0.0
C4752 C 0.12003 0.27217 0.87571 0.0
C4753 C 0.12121 0.27043 0.89629 0.0
C4754 C 0.1168 0.28431 0.90975 0.0
C4755 C 0.11809 0.28271 0.92918 0.0
C4756 C 0.12391 0.26737 0.93535 0.0
C4757 C 0.12848 0.25362 0.9221 0.0
C4758 C 0.12718 0.25513 0.90264 0.0
C4759 C 0.17271 0.29217 0.82371 0.0
C4760 C 0.18054 0.27635 0.82247 0.0
C4761 C 0.15828 0.2922 0.83258 0.0
C4762 C 0.15116 0.27633 0.84022 0.0
C4763 C 0.15924 0.2608 0.83958 0.0
C4764 C 0.17372 0.26078 0.8308 0.0
C4765 C 0.13499 0.27564 0.84831 0.0
C4766 C 0.13483 0.27253 0.86726 0.0
C4767 C 0.11983 0.27828 0.83754 0.0
C4768 C 0.11891 0.2812 0.81733 0.0
C4769 C 0.12265 0.26758 0.80303 0.0
C4770 C 0.12202 0.27063 0.78407 0.0
C4771 C 0.11751 0.28716 0.77922 0.0
C4772 C 0.11358 0.30065 0.79331 0.0
C4773 C 0.11423 0.29769 0.8123 0.0
H4774 H 0.11703 0.28949 0.76453 0.0
H4775 H 0.12493 0.26618 0.95041 0.0
H4776 H 0.52477 0.72994 0.88593 0.0
H4777 H 0.5256 0.7049 0.90531 0.0
H4778 H 0.48896 0.72552 0.93711 0.0
H4779 H 0.48797 0.75038 0.91779 0.0
H4780 H 0.51451 0.71329 0.95993 0.0
H4781 H 0.47358 0.69198 0.90071 0.0
H4782 H 0.46414 0.68673 0.86543 0.0
H4783 H 0.49943 0.65023 0.85647 0.0
H4784 H 0.50931 0.65556 0.89173 0.0
H4785 H 0.48815 0.63106 0.99688 0.0
H4786 H 0.48271 0.654 0.97611 0.0
H4787 H 0.51975 0.63746 0.94233 0.0
H4788 H 0.52514 0.61462 0.96298 0.0
H4789 H 0.49194 0.64748 0.92056 0.0
H4790 H 0.53428 0.67095 0.97964 0.0
H4791 H 0.54292 0.67504 0.01494 0.0
H4792 H 0.50427 0.707 0.02407 0.0
H4793 H 0.4952 0.70276 0.98876 0.0
C4794 C 0.51733 0.72945 0.89746 0.0
C4795 C 0.50617 0.74182 0.90032 0.0
C4796 C 0.51773 0.71515 0.90839 0.0
C4797 C 0.50711 0.71333 0.92231 0.0
C4798 C 0.49715 0.72675 0.92633 0.0
C4799 C 0.49658 0.74084 0.91528 0.0
C4800 C 0.50495 0.69634 0.93127 0.0
C4801 C 0.50943 0.69893 0.95138 0.0
C4802 C 0.4983 0.67769 0.91999 0.0
C4803 C 0.49233 0.67436 0.89882 0.0
C4804 C 0.47945 0.68299 0.8912 0.0
C4805 C 0.474 0.67997 0.87122 0.0
C4806 C 0.48122 0.6682 0.85871 0.0
C4807 C 0.49388 0.65938 0.86618 0.0
C4808 C 0.49941 0.66239 0.88616 0.0
C4809 C 0.49463 0.63195 0.9846 0.0
C4810 C 0.50722 0.62154 0.98153 0.0
C4811 C 0.49154 0.64494 0.97281 0.0
C4812 C 0.50104 0.64746 0.95798 0.0
C4813 C 0.51234 0.63562 0.95375 0.0
C4814 C 0.5155 0.62277 0.96558 0.0
C4815 C 0.50163 0.66445 0.94914 0.0
C4816 C 0.4969 0.66188 0.92909 0.0
C4817 C 0.50805 0.68312 0.96045 0.0
C4818 C 0.51397 0.6864 0.98161 0.0
C4819 C 0.5276 0.6788 0.98919 0.0
C4820 C 0.53256 0.68112 0.00919 0.0
C4821 C 0.52413 0.69124 0.02174 0.0
C4822 C 0.51077 0.69914 0.01432 0.0
C4823 C 0.50572 0.69679 0.99432 0.0
H4824 H 0.52796 0.693 0.03723 0.0
H4825 H 0.47698 0.66587 0.84324 0.0
H4826 H 0.0958 0.79073 0.73994 0.0
H4827 H 0.12484 0.7881 0.75215 0.0
H4828 H 0.12783 0.75731 0.69587 0.0
H4829 H 0.09866 0.75938 0.68375 0.0
H4830 H 0.13495 0.73788 0.72258 0.0
H4831 H 0.15123 0.80313 0.71517 0.0
H4832 H 0.15208 0.83781 0.71943 0.0
H4833 H 0.16835 0.84436 0.78065 0.0
H4834 H 0.16698 0.80967 0.77688 0.0
H4835 H 0.22378 0.73845 0.73824 0.0
H4836 H 0.19387 0.73915 0.72812 0.0
H4837 H 0.19278 0.76949 0.78531 0.0
H4838 H 0.22295 0.76953 0.79523 0.0
H4839 H 0.18445 0.78882 0.759 0.0
H4840 H 0.16797 0.72299 0.76589 0.0
H4841 H 0.16909 0.68876 0.76066 0.0
H4842 H 0.15513 0.68399 0.69932 0.0
H4843 H 0.15415 0.71825 0.70417 0.0
C4844 C 0.10279 0.78373 0.7301 0.0
C4845 C 0.09499 0.77502 0.71101 0.0
C4846 C 0.11938 0.78231 0.73706 0.0
C4847 C 0.12839 0.7725 0.72487 0.0
C4848 C 0.12097 0.76483 0.70548 0.0
C4849 C 0.10435 0.76601 0.69861 0.0
C4850 C 0.14474 0.76837 0.73278 0.0
C4851 C 0.14587 0.74905 0.73036 0.0
C4852 C 0.1587 0.78292 0.74341 0.0
C4853 C 0.15872 0.80369 0.74576 0.0
C4854 C 0.15465 0.81189 0.72959 0.0
C4855 C 0.15525 0.83158 0.73192 0.0
C4856 C 0.16012 0.84328 0.75032 0.0
C4857 C 0.1644 0.8353 0.76643 0.0
C4858 C 0.16367 0.81561 0.76421 0.0
C4859 C 0.21697 0.74474 0.74878 0.0
C4860 C 0.22553 0.75417 0.76738 0.0
C4861 C 0.1999 0.74506 0.74303 0.0
C4862 C 0.19119 0.75436 0.75601 0.0
C4863 C 0.19938 0.76232 0.77511 0.0
C4864 C 0.21653 0.76235 0.78074 0.0
C4865 C 0.17458 0.75838 0.74893 0.0
C4866 C 0.17343 0.77767 0.75142 0.0
C4867 C 0.16065 0.74384 0.7383 0.0
C4868 C 0.1611 0.72321 0.7354 0.0
C4869 C 0.16525 0.71467 0.75129 0.0
C4870 C 0.16584 0.69526 0.74839 0.0
C4871 C 0.16221 0.68422 0.72967 0.0
C4872 C 0.15794 0.69256 0.71381 0.0
C4873 C 0.15734 0.71196 0.71663 0.0
H4874 H 0.16269 0.66919 0.72746 0.0
H4875 H 0.16065 0.85853 0.75209 0.0
H4876 H 1.00155 0.3097 0.42379 0.0
H4877 H 0.00632 0.33988 0.44737 0.0
H4878 H 1.0009 0.37068 0.40053 0.0
H4879 H 0.99655 0.34054 0.37704 0.0
H4880 H 0.02829 0.38825 0.42768 0.0
H4881 H 0.96884 0.36066 0.42671 0.0
H4882 H 0.9449 0.33476 0.42931 0.0
H4883 H 0.96748 0.33662 0.48808 0.0
H4884 H 0.9917 0.36235 0.48572 0.0
H4885 H 0.02147 0.47701 0.47751 0.0
H4886 H 0.01429 0.44553 0.45627 0.0
H4887 H 0.02058 0.41864 0.50586 0.0
H4888 H 0.02757 0.45034 0.52737 0.0
H4889 H 0.99305 0.39827 0.47867 0.0
H4890 H 0.05222 0.42454 0.48014 0.0
H4891 H 0.07886 0.44627 0.47695 0.0
H4892 H 0.05837 0.44486 0.41763 0.0
H4893 H 0.0315 0.42333 0.42052 0.0
C4894 C 1.00145 0.323 0.41867 0.0
C4895 C 0.99887 0.3231 0.39882 0.0
C4896 C 0.00403 0.34013 0.43206 0.0
C4897 C 0.00375 0.35746 0.42567 0.0
C4898 C 1.00115 0.35746 0.40574 0.0
C4899 C 0.99871 0.34035 0.39238 0.0
C4900 C 0.00679 0.37575 0.43972 0.0
C4901 C 0.02039 0.39058 0.43861 0.0
C4902 C 0.99689 0.37843 0.45443 0.0
C4903 C 0.98212 0.36334 0.456 0.0
C4904 C 0.96873 0.35549 0.44016 0.0
C4905 C 0.95512 0.34083 0.44159 0.0
C4906 C 0.95468 0.33403 0.45884 0.0
C4907 C 0.96783 0.34191 0.47472 0.0
C4908 C 0.9815 0.35654 0.47336 0.0
C4909 C 0.02103 0.4644 0.48396 0.0
C4910 C 0.02507 0.4661 0.5041 0.0
C4911 C 0.01707 0.44642 0.47178 0.0
C4912 C 0.01719 0.4298 0.47948 0.0
C4913 C 0.02049 0.43134 0.49965 0.0
C4914 C 0.02447 0.4494 0.5119 0.0
C4915 C 0.01437 0.41096 0.46633 0.0
C4916 C 1.00087 0.396 0.46765 0.0
C4917 C 0.02442 0.40806 0.45181 0.0
C4918 C 0.03982 0.42245 0.45059 0.0
C4919 C 0.05327 0.42916 0.46653 0.0
C4920 C 0.06843 0.44136 0.46475 0.0
C4921 C 0.07029 0.44682 0.44707 0.0
C4922 C 0.05688 0.44054 0.43128 0.0
C4923 C 0.0417 0.42837 0.43298 0.0
H4924 H 0.0822 0.45565 0.44551 0.0
H4925 H 0.94414 0.32266 0.45991 0.0
H4926 H 0.50924 0.23534 0.22742 0.0
H4927 H 0.48357 0.2353 0.24178 0.0
H4928 H 0.45602 0.24178 0.18767 0.0
H4929 H 0.48182 0.24255 0.17344 0.0
H4930 H 0.45807 0.27126 0.21648 0.0
H4931 H 0.44487 0.20166 0.20841 0.0
H4932 H 0.45164 0.17068 0.21274 0.0
H4933 H 0.46062 0.18938 0.27444 0.0
H4934 H 0.45414 0.22058 0.27046 0.0
H4935 H 0.37613 0.27135 0.23143 0.0
H4936 H 0.40032 0.25976 0.22105 0.0
H4937 H 0.42265 0.26298 0.2805 0.0
H4938 H 0.39803 0.27413 0.29113 0.0
H4939 H 0.42516 0.22931 0.25358 0.0
H4940 H 0.43858 0.29747 0.26313 0.0
H4941 H 0.43354 0.3296 0.26085 0.0
H4942 H 0.42665 0.31515 0.19889 0.0
H4943 H 0.43136 0.28279 0.20079 0.0
C4944 C 0.49754 0.23606 0.21838 0.0
C4945 C 0.49753 0.23933 0.19944 0.0
C4946 C 0.48287 0.23596 0.2266 0.0
C4947 C 0.46801 0.23869 0.21579 0.0
C4948 C 0.46748 0.2398 0.19623 0.0
C4949 C 0.4822 0.24025 0.18812 0.0
C4950 C 0.45424 0.24392 0.22554 0.0
C4951 C 0.45069 0.26191 0.22429 0.0
C4952 C 0.44546 0.23228 0.23679 0.0
C4953 C 0.44916 0.21347 0.23913 0.0
C4954 C 0.44841 0.1992 0.22289 0.0
C4955 C 0.45217 0.1816 0.22528 0.0
C4956 C 0.45659 0.17807 0.24385 0.0
C4957 C 0.45721 0.19213 0.26007 0.0
C4958 C 0.45347 0.20976 0.25776 0.0
C4959 C 0.386 0.26924 0.24231 0.0
C4960 C 0.38529 0.27368 0.26208 0.0
C4961 C 0.3998 0.26271 0.23636 0.0
C4962 C 0.41318 0.26071 0.25008 0.0
C4963 C 0.41234 0.26448 0.26981 0.0
C4964 C 0.39844 0.27103 0.27581 0.0
C4965 C 0.42853 0.25609 0.24354 0.0
C4966 C 0.43257 0.23852 0.24568 0.0
C4967 C 0.43806 0.26824 0.23334 0.0
C4968 C 0.43518 0.28766 0.2321 0.0
C4969 C 0.43583 0.30108 0.24901 0.0
C4970 C 0.43306 0.31934 0.24779 0.0
C4971 C 0.42974 0.3244 0.22974 0.0
C4972 C 0.42921 0.31121 0.21286 0.0
C4973 C 0.43194 0.29291 0.214 0.0
H4974 H 0.42762 0.33856 0.22882 0.0
H4975 H 0.45951 0.16444 0.24567 0.0
H4976 H 0.6356 0.53111 0.36302 0.0
H4977 H 0.62273 0.52707 0.39157 0.0
H4978 H 0.58081 0.55064 0.36916 0.0
H4979 H 0.59366 0.5549 0.34054 0.0
H4980 H 0.59118 0.56252 0.40877 0.0
H4981 H 0.57634 0.50321 0.36168 0.0
H4982 H 0.58246 0.47629 0.33975 0.0
H4983 H 0.61135 0.46093 0.38785 0.0
H4984 H 0.60561 0.48796 0.41001 0.0
H4985 H 0.53027 0.5269 0.46337 0.0
H4986 H 0.54514 0.5342 0.43687 0.0
H4987 H 0.58233 0.50215 0.45476 0.0
H4988 H 0.56662 0.49376 0.4805 0.0
H4989 H 0.57528 0.49516 0.41789 0.0
H4990 H 0.58876 0.55293 0.46564 0.0
H4991 H 0.58311 0.57994 0.48783 0.0
H4992 H 0.55857 0.59927 0.43965 0.0
H4993 H 0.56326 0.57184 0.41719 0.0
C4994 C 0.62386 0.53589 0.36435 0.0
C4995 C 0.61559 0.54324 0.34945 0.0
C4996 C 0.61647 0.53343 0.38062 0.0
C4997 C 0.60067 0.53821 0.38225 0.0
C4998 C 0.59298 0.54678 0.36809 0.0
C4999 C 0.60036 0.54924 0.35178 0.0
C5000 C 0.59165 0.53314 0.39805 0.0
C5001 C 0.58753 0.5478 0.41071 0.0
C5002 C 0.58728 0.51396 0.40076 0.0
C5003 C 0.59071 0.49772 0.38745 0.0
C5004 C 0.58412 0.49419 0.36754 0.0
C5005 C 0.5875 0.4789 0.35508 0.0
C5006 C 0.59733 0.46694 0.36239 0.0
C5007 C 0.60377 0.47023 0.38219 0.0
C5008 C 0.60045 0.48552 0.39471 0.0
C5009 C 0.54156 0.52133 0.46146 0.0
C5010 C 0.5475 0.50995 0.47388 0.0
C5011 C 0.55013 0.52564 0.44648 0.0
C5012 C 0.56514 0.51917 0.44412 0.0
C5013 C 0.57085 0.50742 0.45638 0.0
C5014 C 0.56199 0.50271 0.4711 0.0
C5015 C 0.5748 0.52458 0.42883 0.0
C5016 C 0.57899 0.50995 0.41615 0.0
C5017 C 0.57933 0.54384 0.42622 0.0
C5018 C 0.57623 0.56019 0.43973 0.0
C5019 C 0.58192 0.56277 0.45978 0.0
C5020 C 0.57882 0.57812 0.47241 0.0
C5021 C 0.57036 0.59123 0.46515 0.0
C5022 C 0.56492 0.58897 0.44525 0.0
C5023 C 0.56775 0.57349 0.43257 0.0
H5024 H 0.56815 0.60322 0.47493 0.0
H5025 H 0.59993 0.4551 0.35272 0.0
H5026 H 0.26038 0.78736 0.02641 0.0
H5027 H 0.26661 0.77289 0.0543 0.0
H5028 H 0.23796 0.80736 0.08589 0.0
H5029 H 0.23111 0.82136 0.0579 0.0
H5030 H 0.27727 0.82175 0.08466 0.0
H5031 H 0.23506 0.77447 0.101 0.0
H5032 H 0.21375 0.74402 0.0969 0.0
H5033 H 0.25283 0.71235 0.08933 0.0
H5034 H 0.27437 0.74265 0.09314 0.0
H5035 H 0.31752 0.82768 0.18084 0.0
H5036 H 0.30528 0.83022 0.14859 0.0
H5037 H 0.31855 0.77733 0.12513 0.0
H5038 H 0.32891 0.77354 0.15739 0.0
H5039 H 0.28554 0.77175 0.1227 0.0
H5040 H 0.3283 0.82081 0.10748 0.0
H5041 H 0.34888 0.85207 0.11345 0.0
H5042 H 0.30812 0.88141 0.11995 0.0
H5043 H 0.28732 0.85034 0.11433 0.0
C5044 C 0.25418 0.79066 0.03872 0.0
C5045 C 0.24635 0.80639 0.04064 0.0
C5046 C 0.25773 0.78232 0.05469 0.0
C5047 C 0.25349 0.78993 0.07232 0.0
C5048 C 0.24162 0.80167 0.07243 0.0
C5049 C 0.23778 0.80974 0.05632 0.0
C5050 C 0.26686 0.79342 0.08947 0.0
C5051 C 0.27902 0.81097 0.09328 0.0
C5052 C 0.26924 0.77909 0.10001 0.0
C5053 C 0.25628 0.76082 0.09711 0.0
C5054 C 0.23907 0.76101 0.09818 0.0
C5055 C 0.22696 0.74378 0.096 0.0
C5056 C 0.23192 0.72625 0.09279 0.0
C5057 C 0.249 0.72594 0.09178 0.0
C5058 C 0.26117 0.74313 0.09397 0.0
C5059 C 0.31844 0.81694 0.16875 0.0
C5060 C 0.32268 0.79959 0.17179 0.0
C5061 C 0.31157 0.81853 0.15018 0.0
C5062 C 0.31025 0.8034 0.13457 0.0
C5063 C 0.3189 0.78878 0.13717 0.0
C5064 C 0.32506 0.78678 0.15579 0.0
C5065 C 0.29634 0.80003 0.11779 0.0
C5066 C 0.28401 0.78253 0.11404 0.0
C5067 C 0.29376 0.8145 0.10734 0.0
C5068 C 0.30626 0.83321 0.11056 0.0
C5069 C 0.32374 0.83392 0.11031 0.0
C5070 C 0.33544 0.85161 0.11362 0.0
C5071 C 0.32982 0.86871 0.1171 0.0
C5072 C 0.31246 0.86815 0.11725 0.0
C5073 C 0.30071 0.8505 0.11397 0.0
H5074 H 0.3389 0.88239 0.11965 0.0
H5075 H 0.22253 0.71293 0.09115 0.0
H5076 H 0.91973 0.54897 0.83456 0.0
H5077 H 0.93354 0.54556 0.8664 0.0
H5078 H 0.96975 0.51877 0.83951 0.0
H5079 H 0.95559 0.52153 0.80775 0.0
H5080 H 0.964 0.50124 0.86627 0.0
H5081 H 0.97813 0.56913 0.86825 0.0
H5082 H 0.97249 0.6011 0.86627 0.0
H5083 H 0.94329 0.59783 0.91214 0.0
H5084 H 0.94858 0.56572 0.91422 0.0
H5085 H 0.0303 0.51575 0.94825 0.0
H5086 H 0.01235 0.51769 0.9184 0.0
H5087 H 0.97377 0.53192 0.95067 0.0
H5088 H 0.99187 0.52969 0.98091 0.0
H5089 H 0.97886 0.55526 0.92267 0.0
H5090 H 0.96706 0.48793 0.92185 0.0
H5091 H 0.97397 0.45655 0.92398 0.0
H5092 H 1.00018 0.4595 0.87564 0.0
H5093 H 0.99367 0.49106 0.87343 0.0
C5094 C 0.93058 0.54225 0.83535 0.0
C5095 C 0.93636 0.53555 0.8182 0.0
C5096 C 0.93871 0.54046 0.85381 0.0
C5097 C 0.95319 0.53218 0.85601 0.0
C5098 C 0.95875 0.52524 0.83878 0.0
C5099 C 0.95056 0.52688 0.82037 0.0
C5100 C 0.9625 0.53054 0.8759 0.0
C5101 C 0.96736 0.51327 0.8784 0.0
C5102 C 0.9668 0.54576 0.89247 0.0
C5103 C 0.96357 0.56497 0.89122 0.0
C5104 C 0.9704 0.57518 0.87781 0.0
C5105 C 0.96728 0.59333 0.87668 0.0
C5106 C 0.95749 0.60146 0.88903 0.0
C5107 C 0.95083 0.59149 0.90256 0.0
C5108 C 0.95389 0.57333 0.90372 0.0
C5109 C 0.01793 0.51913 0.94913 0.0
C5110 C 0.01264 0.52235 0.96727 0.0
C5111 C 0.00755 0.52023 0.93184 0.0
C5112 C 0.99141 0.52486 0.93179 0.0
C5113 C 0.98606 0.52828 0.94995 0.0
C5114 C 0.99641 0.52685 0.96736 0.0
C5115 C 0.98046 0.52611 0.9128 0.0
C5116 C 0.97538 0.54327 0.91049 0.0
C5117 C 0.97609 0.51087 0.89634 0.0
C5118 C 0.98001 0.49192 0.89759 0.0
C5119 C 0.97442 0.48195 0.91178 0.0
C5120 C 0.97825 0.46413 0.91298 0.0
C5121 C 0.98755 0.45606 0.89998 0.0
C5122 C 0.993 0.46578 0.88572 0.0
C5123 C 0.98924 0.48363 0.88447 0.0
H5124 H 0.99049 0.44224 0.90093 0.0
H5125 H 0.9551 0.61552 0.88814 0.0
H5126 H 0.29675 0.21444 0.55748 0.0
H5127 H 0.29406 0.22853 0.59016 0.0
H5128 H 0.25414 0.17941 0.59065 0.0
H5129 H 0.25633 0.16552 0.55758 0.0
H5130 H 0.24666 0.2108 0.60834 0.0
H5131 H 0.29738 0.18482 0.61262 0.0
H5132 H 0.32551 0.18101 0.60494 0.0
H5133 H 0.34647 0.24127 0.62647 0.0
H5134 H 0.31841 0.24548 0.63401 0.0
H5135 H 0.25221 0.22802 0.71132 0.0
H5136 H 0.25085 0.21498 0.677 0.0
H5137 H 0.29445 0.25982 0.67558 0.0
H5138 H 0.29646 0.27193 0.71006 0.0
H5139 H 0.29947 0.22961 0.65807 0.0
H5140 H 0.24932 0.25638 0.65367 0.0
H5141 H 0.22131 0.26096 0.66107 0.0
H5142 H 0.1994 0.20086 0.63973 0.0
H5143 H 0.22735 0.19589 0.63244 0.0
C5144 C 0.28728 0.20668 0.56445 0.0
C5145 C 0.27686 0.18874 0.55492 0.0
C5146 C 0.28582 0.21472 0.58322 0.0
C5147 C 0.27421 0.20483 0.59314 0.0
C5148 C 0.26329 0.18729 0.58339 0.0
C5149 C 0.26457 0.17935 0.56446 0.0
C5150 C 0.27383 0.21251 0.61382 0.0
C5151 C 0.25818 0.21474 0.61927 0.0
C5152 C 0.28888 0.21806 0.6281 0.0
C5153 C 0.30577 0.21548 0.62371 0.0
C5154 C 0.30797 0.19727 0.6156 0.0
C5155 C 0.3239 0.19504 0.61129 0.0
C5156 C 0.33776 0.21089 0.61517 0.0
C5157 C 0.33573 0.229 0.62344 0.0
C5158 C 0.31982 0.23132 0.62775 0.0
C5159 C 0.26135 0.23516 0.70356 0.0
C5160 C 0.27444 0.25096 0.71331 0.0
C5161 C 0.26053 0.22778 0.68388 0.0
C5162 C 0.27241 0.2365 0.67342 0.0
C5163 C 0.28516 0.25268 0.68318 0.0
C5164 C 0.28627 0.25968 0.70291 0.0
C5165 C 0.27233 0.22834 0.65268 0.0
C5166 C 0.28792 0.22585 0.6472 0.0
C5167 C 0.25725 0.22275 0.63839 0.0
C5168 C 0.24045 0.22574 0.6427 0.0
C5169 C 0.23855 0.24413 0.65068 0.0
C5170 C 0.22269 0.24679 0.65484 0.0
C5171 C 0.2086 0.2312 0.65093 0.0
C5172 C 0.21033 0.21292 0.64279 0.0
C5173 C 0.22617 0.21017 0.63863 0.0
H5174 H 0.19632 0.23329 0.65416 0.0
H5175 H 0.35008 0.20913 0.61182 0.0
H5176 H 0.62114 0.53104 0.23137 0.0
H5177 H 0.60973 0.52917 0.19739 0.0
H5178 H 0.5584 0.52119 0.21006 0.0
H5179 H 0.56969 0.52247 0.24408 0.0
H5180 H 0.55881 0.49785 0.17728 0.0
H5181 H 0.57986 0.56499 0.20402 0.0
H5182 H 0.60124 0.5937 0.22224 0.0
H5183 H 0.63512 0.58469 0.18191 0.0
H5184 H 0.61402 0.55576 0.16357 0.0
H5185 H 0.53241 0.54317 0.09264 0.0
H5186 H 0.54266 0.54364 0.12693 0.0
H5187 H 0.57303 0.50296 0.1104 0.0
H5188 H 0.5622 0.50168 0.07621 0.0
H5189 H 0.58157 0.55093 0.14499 0.0
H5190 H 0.56066 0.47712 0.12511 0.0
H5191 H 0.53726 0.45025 0.10689 0.0
H5192 H 0.50082 0.47489 0.13515 0.0
H5193 H 0.524 0.50216 0.15315 0.0
C5194 C 0.60742 0.52889 0.22695 0.0
C5195 C 0.59631 0.52705 0.24042 0.0
C5196 C 0.60093 0.52785 0.20753 0.0
C5197 C 0.58325 0.52532 0.20128 0.0
C5198 C 0.57209 0.52317 0.21462 0.0
C5199 C 0.57857 0.524 0.23404 0.0
C5200 C 0.57648 0.52528 0.18088 0.0
C5201 C 0.56381 0.50948 0.17029 0.0
C5202 C 0.58284 0.54053 0.17175 0.0
C5203 C 0.59541 0.55814 0.18251 0.0
C5204 C 0.5919 0.56908 0.19909 0.0
C5205 C 0.60397 0.5854 0.20943 0.0
C5206 C 0.61955 0.59099 0.20326 0.0
C5207 C 0.62306 0.58033 0.18668 0.0
C5208 C 0.61104 0.56399 0.17629 0.0
C5209 C 0.54125 0.53432 0.09642 0.0
C5210 C 0.54648 0.52228 0.08198 0.0
C5211 C 0.54701 0.53456 0.11588 0.0
C5212 C 0.55826 0.52301 0.12101 0.0
C5213 C 0.56393 0.51148 0.10661 0.0
C5214 C 0.55785 0.51087 0.08718 0.0
C5215 C 0.56441 0.52334 0.14149 0.0
C5216 C 0.5768 0.53928 0.15208 0.0
C5217 C 0.55774 0.50834 0.15064 0.0
C5218 C 0.54396 0.49179 0.14018 0.0
C5219 C 0.54763 0.4769 0.12725 0.0
C5220 C 0.53442 0.46161 0.11698 0.0
C5221 C 0.51756 0.46095 0.11977 0.0
C5222 C 0.51388 0.4755 0.13292 0.0
C5223 C 0.52703 0.49089 0.14311 0.0
H5224 H 0.50734 0.44916 0.11179 0.0
H5225 H 0.62888 0.60361 0.21131 0.0
H5226 H 0.28683 0.85155 0.96225 0.0
H5227 H 0.27953 0.83946 0.9274 0.0
H5228 H 0.226 0.8242 0.93159 0.0
H5229 H 0.23321 0.8368 0.96662 0.0
H5230 H 0.24208 0.79343 0.91666 0.0
H5231 H 0.23376 0.85383 0.90463 0.0
H5232 H 0.24049 0.88913 0.90877 0.0
H5233 H 0.28767 0.88777 0.88785 0.0
H5234 H 0.28138 0.85249 0.8839 0.0
H5235 H 0.24551 0.74749 0.82078 0.0
H5236 H 0.23502 0.76563 0.84706 0.0
H5237 H 0.28376 0.80663 0.86179 0.0
H5238 H 0.29393 0.78897 0.83522 0.0
H5239 H 0.25885 0.82476 0.86296 0.0
H5240 H 0.27348 0.76976 0.88676 0.0
H5241 H 0.27134 0.73517 0.88603 0.0
H5242 H 0.21761 0.72727 0.88817 0.0
H5243 H 0.21944 0.76183 0.88868 0.0
C5244 C 0.27348 0.84603 0.95566 0.0
C5245 C 0.26058 0.84486 0.96699 0.0
C5246 C 0.26931 0.83932 0.9358 0.0
C5247 C 0.25224 0.83111 0.92708 0.0
C5248 C 0.23921 0.83071 0.93819 0.0
C5249 C 0.24334 0.83784 0.95808 0.0
C5250 C 0.2488 0.82027 0.90715 0.0
C5251 C 0.2451 0.8002 0.90463 0.0
C5252 C 0.25326 0.82927 0.89184 0.0
C5253 C 0.25707 0.85049 0.89396 0.0
C5254 C 0.24561 0.86106 0.90101 0.0
C5255 C 0.24935 0.88107 0.90331 0.0
C5256 C 0.2645 0.89069 0.89857 0.0
C5257 C 0.27593 0.8803 0.89149 0.0
C5258 C 0.27226 0.86029 0.88917 0.0
C5259 C 0.25396 0.76026 0.82984 0.0
C5260 C 0.27056 0.7668 0.82635 0.0
C5261 C 0.24795 0.77065 0.84467 0.0
C5262 C 0.25864 0.78742 0.85633 0.0
C5263 C 0.27526 0.79382 0.85283 0.0
C5264 C 0.28114 0.78363 0.83787 0.0
C5265 C 0.25308 0.798 0.87289 0.0
C5266 C 0.25506 0.81794 0.87468 0.0
C5267 C 0.24765 0.78896 0.88785 0.0
C5268 C 0.24653 0.76824 0.88747 0.0
C5269 C 0.26119 0.76059 0.88691 0.0
C5270 C 0.26004 0.74102 0.88656 0.0
C5271 C 0.24433 0.72901 0.88697 0.0
C5272 C 0.22975 0.73658 0.88779 0.0
C5273 C 0.23083 0.75615 0.8881 0.0
H5274 H 0.24346 0.71386 0.88672 0.0
H5275 H 0.26737 0.90619 0.90037 0.0
H5276 H 0.9688 0.54212 0.72028 0.0
H5277 H 0.97977 0.53775 0.69026 0.0
H5278 H 0.92834 0.52316 0.65798 0.0
H5279 H 0.91701 0.52729 0.68866 0.0
H5280 H 0.94669 0.5011 0.63921 0.0
H5281 H 0.95709 0.56818 0.6609 0.0
H5282 H 0.96667 0.59934 0.68356 0.0
H5283 H 0.01843 0.5919 0.69088 0.0
H5284 H 0.0091 0.56052 0.66847 0.0
H5285 H 0.98231 0.51094 0.55132 0.0
H5286 H 0.96657 0.51359 0.57849 0.0
H5287 H 0.01433 0.52929 0.61868 0.0
H5288 H 0.03002 0.52682 0.59169 0.0
H5289 H 0.99523 0.55145 0.63158 0.0
H5290 H 0.98297 0.4827 0.60893 0.0
H5291 H 0.97201 0.45276 0.58459 0.0
H5292 H 0.92193 0.46505 0.57695 0.0
H5293 H 0.93267 0.49523 0.60099 0.0
C5294 C 0.95957 0.538 0.70694 0.0
C5295 C 0.94179 0.53528 0.70746 0.0
C5296 C 0.96603 0.53557 0.68945 0.0
C5297 C 0.95518 0.53045 0.67124 0.0
C5298 C 0.9373 0.52723 0.67153 0.0
C5299 C 0.93073 0.52969 0.68926 0.0
C5300 C 0.96282 0.52881 0.65244 0.0
C5301 C 0.95713 0.51232 0.63754 0.0
C5302 C 0.97665 0.54313 0.64964 0.0
C5303 C 0.98236 0.56192 0.66316 0.0
C5304 C 0.97049 0.57312 0.66746 0.0
C5305 C 0.97588 0.59083 0.68024 0.0
C5306 C 0.99314 0.59757 0.68869 0.0
C5307 C 0.00506 0.58664 0.68435 0.0
C5308 C 0.99973 0.56889 0.6716 0.0
C5309 C 0.98954 0.51483 0.56593 0.0
C5310 C 0.00766 0.51851 0.56893 0.0
C5311 C 0.98041 0.51628 0.58167 0.0
C5312 C 0.98897 0.52149 0.60119 0.0
C5313 C 0.00707 0.52523 0.6041 0.0
C5314 C 0.01616 0.52369 0.58842 0.0
C5315 C 0.97944 0.52355 0.61853 0.0
C5316 C 0.9848 0.54019 0.63322 0.0
C5317 C 0.96515 0.50952 0.62089 0.0
C5318 C 0.95866 0.49131 0.6066 0.0
C5319 C 0.96965 0.47908 0.60195 0.0
C5320 C 0.96348 0.46207 0.58821 0.0
C5321 C 0.9463 0.45705 0.57915 0.0
C5322 C 0.93524 0.46899 0.5839 0.0
C5323 C 0.94137 0.48605 0.59759 0.0
H5324 H 0.94154 0.44388 0.56851 0.0
H5325 H 0.99729 0.6113 0.69858 0.0
H5326 H 0.2851 0.21892 0.47378 0.0
H5327 H 0.28353 0.23433 0.44551 0.0
H5328 H 0.25246 0.18154 0.41034 0.0
H5329 H 0.25345 0.16619 0.43878 0.0
H5330 H 0.28904 0.20425 0.40067 0.0
H5331 H 0.2311 0.20656 0.4102 0.0
H5332 H 0.20952 0.2145 0.42957 0.0
H5333 H 0.23554 0.27403 0.44213 0.0
H5334 H 0.25746 0.26634 0.42309 0.0
H5335 H 0.27492 0.23406 0.31091 0.0
H5336 H 0.2705 0.21887 0.33869 0.0
H5337 H 0.28013 0.27472 0.37562 0.0
H5338 H 0.28453 0.29002 0.34776 0.0
H5339 H 0.25367 0.25021 0.38456 0.0
H5340 H 0.31085 0.24982 0.37597 0.0
H5341 H 0.3341 0.24391 0.35837 0.0
H5342 H 0.31208 0.18328 0.34621 0.0
H5343 H 0.28853 0.18887 0.3635 0.0
C5344 C 0.27748 0.21076 0.46015 0.0
C5345 C 0.26919 0.19141 0.45859 0.0
C5346 C 0.27668 0.21956 0.444 0.0
C5347 C 0.2679 0.20909 0.42582 0.0
C5348 C 0.25923 0.18991 0.42426 0.0
C5349 C 0.25966 0.18122 0.44056 0.0
C5350 C 0.2689 0.21787 0.40835 0.0
C5351 C 0.28108 0.214 0.3969 0.0
C5352 C 0.25905 0.23121 0.40392 0.0
C5353 C 0.24603 0.23583 0.41548 0.0
C5354 C 0.23235 0.22129 0.41732 0.0
C5355 C 0.22002 0.22576 0.42818 0.0
C5356 C 0.22119 0.24475 0.43714 0.0
C5357 C 0.23467 0.25932 0.43523 0.0
C5358 C 0.24705 0.25492 0.42441 0.0
C5359 C 0.27592 0.24313 0.3249 0.0
C5360 C 0.28008 0.26327 0.32714 0.0
C5361 C 0.27349 0.23441 0.34082 0.0
C5362 C 0.27516 0.24561 0.35936 0.0
C5363 C 0.27878 0.26574 0.3615 0.0
C5364 C 0.28132 0.27448 0.34558 0.0
C5365 C 0.27359 0.2363 0.37652 0.0
C5366 C 0.2615 0.24026 0.3881 0.0
C5367 C 0.28372 0.22323 0.38125 0.0
C5368 C 0.29782 0.21978 0.37082 0.0
C5369 C 0.31087 0.23524 0.36938 0.0
C5370 C 0.32412 0.23195 0.35949 0.0
C5371 C 0.32453 0.21324 0.35112 0.0
C5372 C 0.31172 0.19777 0.35267 0.0
C5373 C 0.29842 0.20099 0.36251 0.0
H5374 H 0.33481 0.21071 0.34348 0.0
H5375 H 0.21162 0.24819 0.44551 0.0
H5376 H 0.3723 0.66986 0.54957 0.0
H5377 H 0.39287 0.64948 0.54494 0.0
H5378 H 0.35542 0.61005 0.49943 0.0
H5379 H 0.33462 0.6296 0.505 0.0
H5380 H 0.36989 0.59084 0.52034 0.0
H5381 H 0.39071 0.64522 0.49165 0.0
H5382 H 0.4009 0.67973 0.49195 0.0
H5383 H 0.44305 0.68287 0.53718 0.0
H5384 H 0.43295 0.64843 0.53734 0.0
H5385 H 0.42169 0.53828 0.47448 0.0
H5386 H 0.40503 0.563 0.47918 0.0
H5387 H 0.44031 0.59159 0.53175 0.0
H5388 H 0.45714 0.5671 0.52699 0.0
H5389 H 0.4284 0.61682 0.50883 0.0
H5390 H 0.40721 0.562 0.53659 0.0
H5391 H 0.39701 0.52734 0.53544 0.0
H5392 H 0.35505 0.52513 0.4903 0.0
H5393 H 0.36521 0.55974 0.49097 0.0
C5394 C 0.36856 0.65678 0.53867 0.0
C5395 C 0.35201 0.65115 0.52763 0.0
C5396 C 0.38029 0.64526 0.53593 0.0
C5397 C 0.37574 0.62845 0.52161 0.0
C5398 C 0.35917 0.62294 0.5106 0.0
C5399 C 0.34732 0.63409 0.51375 0.0
C5400 C 0.38801 0.61627 0.51808 0.0
C5401 C 0.38258 0.59654 0.51757 0.0
C5402 C 0.40474 0.62377 0.51499 0.0
C5403 C 0.41099 0.64434 0.51462 0.0
C5404 C 0.40211 0.65331 0.50172 0.0
C5405 C 0.40786 0.67285 0.50181 0.0
C5406 C 0.42259 0.6835 0.51462 0.0
C5407 C 0.43163 0.67461 0.5273 0.0
C5408 C 0.42591 0.65509 0.52729 0.0
C5409 C 0.42604 0.55008 0.48678 0.0
C5410 C 0.44044 0.55075 0.50056 0.0
C5411 C 0.41657 0.5641 0.48945 0.0
C5412 C 0.42145 0.57884 0.5059 0.0
C5413 C 0.43644 0.58023 0.519 0.0
C5414 C 0.44587 0.5662 0.51638 0.0
C5415 C 0.40996 0.59154 0.51053 0.0
C5416 C 0.41563 0.61127 0.51148 0.0
C5417 C 0.39336 0.58408 0.51384 0.0
C5418 C 0.38706 0.56338 0.5137 0.0
C5419 C 0.39588 0.55408 0.52633 0.0
C5420 C 0.3901 0.53446 0.52577 0.0
C5421 C 0.37541 0.52403 0.51277 0.0
C5422 C 0.36644 0.53322 0.50035 0.0
C5423 C 0.3722 0.55284 0.50081 0.0
H5424 H 0.37096 0.50883 0.51235 0.0
H5425 H 0.42701 0.69863 0.51468 0.0
H5426 H 0.83919 0.94052 0.52499 0.0
H5427 H 0.86803 0.95464 0.52034 0.0
H5428 H 0.88795 0.91299 0.54833 0.0
H5429 H 0.85929 0.89941 0.55376 0.0
H5430 H 0.90864 0.94554 0.56113 0.0
H5431 H 0.88313 0.91161 0.49737 0.0
H5432 H 0.86124 0.90172 0.4677 0.0
H5433 H 0.87002 0.95988 0.45877 0.0
H5434 H 0.89179 0.97018 0.48856 0.0
H5435 H 0.99211 0.97641 0.53755 0.0
H5436 H 0.96422 0.95655 0.53962 0.0
H5437 H 0.93851 0.99501 0.51274 0.0
H5438 H 0.96607 0.0142 0.50996 0.0
H5439 H 0.92139 0.96085 0.49852 0.0
H5440 H 0.94589 0.99434 0.56471 0.0
H5441 H 0.96725 1.00291 0.59488 0.0
H5442 H 0.96039 0.94334 0.59868 0.0
H5443 H 0.93916 0.93442 0.56844 0.0
C5444 C 0.84967 0.93426 0.53003 0.0
C5445 C 0.84678 0.91869 0.53963 0.0
C5446 C 0.86623 0.9423 0.52727 0.0
C5447 C 0.88032 0.93478 0.5337 0.0
C5448 C 0.87741 0.91913 0.54317 0.0
C5449 C 0.8609 0.91124 0.54614 0.0
C5450 C 0.89813 0.94361 0.53119 0.0
C5451 C 0.91143 0.94859 0.54733 0.0
C5452 C 0.90197 0.94786 0.5133 0.0
C5453 C 0.88901 0.94169 0.49527 0.0
C5454 C 0.88032 0.92231 0.48914 0.0
C5455 C 0.86794 0.91663 0.4723 0.0
C5456 C 0.86422 0.93017 0.46137 0.0
C5457 C 0.87291 0.94941 0.46725 0.0
C5458 C 0.88528 0.95518 0.4841 0.0
C5459 C 0.98047 0.9805 0.53199 0.0
C5460 C 0.98134 0.99695 0.52367 0.0
C5461 C 0.9645 0.96923 0.5333 0.0
C5462 C 0.94907 0.97435 0.52663 0.0
C5463 C 0.95007 0.9906 0.51802 0.0
C5464 C 0.96592 1.00167 0.5165 0.0
C5465 C 0.93184 0.96315 0.52857 0.0
C5466 C 0.91862 0.95769 0.51229 0.0
C5467 C 0.92811 0.95828 0.54629 0.0
C5468 C 0.94107 0.96371 0.56426 0.0
C5469 C 0.94905 0.98307 0.57191 0.0
C5470 C 0.96111 0.98799 0.58903 0.0
C5471 C 0.96517 0.97367 0.59866 0.0
C5472 C 0.95723 0.95441 0.59119 0.0
C5473 C 0.9452 0.94942 0.57408 0.0
H5474 H 0.97439 0.97746 0.61196 0.0
H5475 H 0.85463 0.92574 0.44834 0.0
H5476 H 0.91548 0.06014 0.2441 0.0
H5477 H 0.90177 0.08757 0.24503 0.0
H5478 H 0.85855 0.05531 0.26403 0.0
H5479 H 0.87246 0.02812 0.26374 0.0
H5480 H 0.85064 0.07983 0.23643 0.0
H5481 H 0.88502 0.07997 0.29708 0.0
H5482 H 0.91111 0.07847 0.31869 0.0
H5483 H 0.93866 0.12936 0.30344 0.0
H5484 H 0.91279 0.13092 0.28138 0.0
H5485 H 0.81491 0.1506 0.28247 0.0
H5486 H 0.83042 0.1248 0.28134 0.0
H5487 H 0.87159 0.15984 0.26162 0.0
H5488 H 0.85613 0.18587 0.26277 0.0
H5489 H 0.8812 0.13461 0.28929 0.0
H5490 H 0.84545 0.13382 0.22833 0.0
H5491 H 0.81818 0.1356 0.20913 0.0
H5492 H 0.79224 0.08558 0.22729 0.0
H5493 H 0.81935 0.08374 0.24689 0.0
C5494 C 0.90273 0.05865 0.24764 0.0
C5495 C 0.89487 0.04208 0.25368 0.0
C5496 C 0.89503 0.07434 0.24838 0.0
C5497 C 0.87931 0.07338 0.2548 0.0
C5498 C 0.8707 0.0562 0.25904 0.0
C5499 C 0.87857 0.0407 0.25875 0.0
C5500 C 0.87268 0.09082 0.25907 0.0
C5501 C 0.85728 0.09177 0.248 0.0
C5502 C 0.88144 0.10633 0.2742 0.0
C5503 C 0.89706 0.10535 0.2873 0.0
C5504 C 0.89671 0.09067 0.2981 0.0
C5505 C 0.91144 0.08984 0.31048 0.0
C5506 C 0.92656 0.10375 0.31237 0.0
C5507 C 0.92696 0.11855 0.3019 0.0
C5508 C 0.91227 0.1194 0.28944 0.0
C5509 C 0.82751 0.15305 0.27849 0.0
C5510 C 0.83431 0.17011 0.27255 0.0
C5511 C 0.8363 0.13831 0.27782 0.0
C5512 C 0.852 0.1405 0.27125 0.0
C5513 C 0.85947 0.15803 0.26674 0.0
C5514 C 0.8506 0.17275 0.26725 0.0
C5515 C 0.85929 0.12363 0.26652 0.0
C5516 C 0.87473 0.12275 0.27756 0.0
C5517 C 0.85053 0.1081 0.25148 0.0
C5518 C 0.83437 0.10873 0.23917 0.0
C5519 C 0.83391 0.12326 0.2283 0.0
C5520 C 0.81849 0.12429 0.21735 0.0
C5521 C 0.80347 0.11073 0.21702 0.0
C5522 C 0.80387 0.09607 0.22757 0.0
C5523 C 0.81926 0.09502 0.23859 0.0
H5524 H 0.79154 0.11156 0.20856 0.0
H5525 H 0.93795 0.10311 0.32199 0.0
H5526 H 0.77741 0.15034 0.02457 0.0
H5527 H 0.76038 0.12694 0.03981 0.0
H5528 H 0.71474 0.14493 0.01814 0.0
H5529 H 0.73171 0.16883 0.00421 0.0
H5530 H 0.71362 0.14018 0.05286 0.0
H5531 H 0.72799 0.10345 0.99527 0.0
H5532 H 0.74839 0.0917 0.97614 0.0
H5533 H 0.76825 0.06728 0.02318 0.0
H5534 H 0.74805 0.07906 0.04261 0.0
H5535 H 0.64236 0.06518 0.01901 0.0
H5536 H 0.67066 0.08428 0.01849 0.0
H5537 H 0.69092 0.06846 0.07135 0.0
H5538 H 0.66234 0.04994 0.07258 0.0
H5539 H 0.71049 0.07065 0.03128 0.0
H5540 H 0.68998 0.10424 0.08601 0.0
H5541 H 0.66668 0.1148 0.10076 0.0
H5542 H 0.65636 0.14501 0.05482 0.0
H5543 H 0.67937 0.13427 0.0396 0.0
C5544 C 0.76385 0.14958 0.02357 0.0
C5545 C 0.75597 0.16157 0.01343 0.0
C5546 C 0.75409 0.13605 0.03204 0.0
C5547 C 0.73626 0.13413 0.03008 0.0
C5548 C 0.72848 0.14623 0.02004 0.0
C5549 C 0.73821 0.15981 0.0119 0.0
C5550 C 0.72518 0.11924 0.03762 0.0
C5551 C 0.71316 0.125 0.0484 0.0
C5552 C 0.7247 0.09941 0.03214 0.0
C5553 C 0.73671 0.09231 0.02043 0.0
C5554 C 0.73679 0.09567 1.00154 0.0
C5555 C 0.7483 0.089 0.99065 0.0
C5556 C 0.75966 0.07881 0.99847 0.0
C5557 C 0.75948 0.07521 0.01716 0.0
C5558 C 0.74801 0.08188 0.02811 0.0
C5559 C 0.6528 0.06569 0.03053 0.0
C5560 C 0.65002 0.05635 0.04604 0.0
C5561 C 0.66898 0.0764 0.03007 0.0
C5562 C 0.68271 0.07774 0.04493 0.0
C5563 C 0.68038 0.06745 0.05976 0.0
C5564 C 0.66408 0.05687 0.06039 0.0
C5565 C 0.69876 0.09176 0.04576 0.0
C5566 C 0.71155 0.08585 0.03651 0.0
C5567 C 0.69982 0.1115 0.05229 0.0
C5568 C 0.68628 0.11833 0.06163 0.0
C5569 C 0.68263 0.113 0.07899 0.0
C5570 C 0.6695 0.11903 0.08744 0.0
C5571 C 0.66002 0.13054 0.07871 0.0
C5572 C 0.66369 0.13609 0.06155 0.0
C5573 C 0.67678 0.13004 0.05302 0.0
H5574 H 0.64985 0.13519 0.08528 0.0
H5575 H 0.76856 0.07366 0.99002 0.0
H5576 H 0.16862 0.4333 0.27128 0.0
H5577 H 0.18134 0.40482 0.26879 0.0
H5578 H 0.22955 0.44013 0.29998 0.0
H5579 H 0.21677 0.46832 0.30312 0.0
H5580 H 0.23445 0.41361 0.26843 0.0
H5581 H 0.20476 0.41156 0.3219 0.0
H5582 H 0.18017 0.41017 0.33899 0.0
H5583 H 0.15443 0.35655 0.30149 0.0
H5584 H 0.17873 0.35785 0.28384 0.0
H5585 H 0.27984 0.34156 0.28849 0.0
H5586 H 0.26594 0.36867 0.28971 0.0
H5587 H 0.21649 0.32948 0.27388 0.0
H5588 H 0.23048 0.30219 0.27339 0.0
H5589 H 0.21127 0.35761 0.2964 0.0
H5590 H 0.23915 0.35926 0.24188 0.0
H5591 H 0.26293 0.3599 0.22351 0.0
H5592 H 0.29065 0.41296 0.26068 0.0
H5593 H 0.26712 0.4125 0.27943 0.0
C5594 C 0.18203 0.43516 0.27733 0.0
C5595 C 0.19157 0.45361 0.28713 0.0
C5596 C 0.18934 0.41864 0.27608 0.0
C5597 C 0.20665 0.41982 0.28421 0.0
C5598 C 0.21628 0.43834 0.29345 0.0
C5599 C 0.20887 0.45468 0.29517 0.0
C5600 C 0.21473 0.40205 0.2834 0.0
C5601 C 0.22938 0.4015 0.27476 0.0
C5602 C 0.20822 0.38559 0.29107 0.0
C5603 C 0.19345 0.38497 0.30134 0.0
C5604 C 0.19375 0.39962 0.31709 0.0
C5605 C 0.17988 0.39882 0.32692 0.0
C5606 C 0.16571 0.38334 0.32126 0.0
C5607 C 0.16538 0.36859 0.30578 0.0
C5608 C 0.17919 0.36936 0.29585 0.0
C5609 C 0.26598 0.33852 0.28524 0.0
C5610 C 0.25653 0.31921 0.28076 0.0
C5611 C 0.25789 0.35432 0.28575 0.0
C5612 C 0.23984 0.35179 0.28141 0.0
C5613 C 0.23034 0.33245 0.27724 0.0
C5614 C 0.23846 0.3166 0.27691 0.0
C5615 C 0.23106 0.36907 0.28136 0.0
C5616 C 0.2163 0.3696 0.28991 0.0
C5617 C 0.23728 0.38541 0.27332 0.0
C5618 C 0.25146 0.38574 0.26216 0.0
C5619 C 0.25038 0.37099 0.24621 0.0
C5620 C 0.26379 0.37133 0.23572 0.0
C5621 C 0.2783 0.38644 0.24096 0.0
C5622 C 0.27941 0.40126 0.25667 0.0
C5623 C 0.26603 0.40097 0.26722 0.0
H5624 H 0.28868 0.38669 0.23281 0.0
H5625 H 0.155 0.38275 0.3289 0.0
H5626 H 0.24619 0.40743 0.99626 0.0
H5627 H 0.21961 0.41876 0.99296 0.0
H5628 H 0.21971 0.42254 0.05407 0.0
H5629 H 0.24619 0.41069 0.0574 0.0
H5630 H 0.1875 0.40911 0.03393 0.0
H5631 H 0.23421 0.46283 0.03381 0.0
H5632 H 0.25929 0.47883 0.02164 0.0
H5633 H 0.2287 0.47033 0.96526 0.0
H5634 H 0.20351 0.45406 0.97705 0.0
H5635 H 0.13106 0.47197 0.04668 0.0
H5636 H 0.1549 0.45585 0.04761 0.0
H5637 H 0.15653 0.45865 0.98778 0.0
H5638 H 0.13285 0.47519 0.98692 0.0
H5639 H 0.18727 0.46753 0.00589 0.0
H5640 H 0.14079 0.41543 0.00391 0.0
H5641 H 0.11494 0.39772 0.01338 0.0
H5642 H 0.14341 0.40054 0.06978 0.0
H5643 H 0.16938 0.41854 0.06074 0.0
C5644 C 0.24053 0.41052 0.00902 0.0
C5645 C 0.2485 0.40826 0.02715 0.0
C5646 C 0.22531 0.41711 0.00711 0.0
C5647 C 0.21773 0.42196 0.02332 0.0
C5648 C 0.22528 0.41903 0.04132 0.0
C5649 C 0.24048 0.41226 0.04322 0.0
C5650 C 0.20231 0.43063 0.0216 0.0
C5651 C 0.18754 0.42203 0.02803 0.0
C5652 C 0.20197 0.44709 0.01323 0.0
C5653 C 0.21704 0.45713 0.00627 0.0
C5654 C 0.23287 0.46431 0.0188 0.0
C5655 C 0.2471 0.47342 0.01197 0.0
C5656 C 0.2456 0.47556 0.99268 0.0
C5657 C 0.22985 0.46865 0.98019 0.0
C5658 C 0.2156 0.4595 0.98694 0.0
C5659 C 0.13631 0.46894 0.03362 0.0
C5660 C 0.12991 0.47485 0.01669 0.0
C5661 C 0.15 0.45965 0.03416 0.0
C5662 C 0.1575 0.45567 0.01769 0.0
C5663 C 0.15107 0.46149 1.00073 0.0
C5664 C 0.13749 0.47099 1.00025 0.0
C5665 C 0.17242 0.44613 0.01838 0.0
C5666 C 0.18714 0.45458 0.01176 0.0
C5667 C 0.17255 0.42931 0.0262 0.0
C5668 C 0.15699 0.41848 0.0317 0.0
C5669 C 0.1415 0.4124 0.01838 0.0
C5670 C 0.12684 0.4023 0.02367 0.0
C5671 C 0.12753 0.39804 0.04218 0.0
C5672 C 0.1429 0.40386 0.05545 0.0
C5673 C 0.1576 0.41401 0.05025 0.0
H5674 H 0.11616 0.39021 0.04624 0.0
H5675 H 0.25663 0.48261 0.98742 0.0
H5676 H 0.89707 0.95381 0.29472 0.0
H5677 H 0.8784 0.92217 0.29031 0.0
H5678 H 0.87443 0.9158 0.22844 0.0
H5679 H 0.89344 0.9479 0.23276 0.0
H5680 H 0.8422 0.9072 0.24259 0.0
H5681 H 0.89703 0.89019 0.24943 0.0
H5682 H 0.92695 0.89383 0.26519 0.0
H5683 H 0.90994 0.88261 0.31763 0.0
H5684 H 0.87993 0.87919 0.30228 0.0
H5685 H 0.79079 0.81399 0.23384 0.0
H5686 H 0.81304 0.8407 0.22997 0.0
H5687 H 0.83545 0.84867 0.29027 0.0
H5688 H 0.81391 0.82108 0.29369 0.0
H5689 H 0.85973 0.85502 0.27235 0.0
H5690 H 0.80747 0.87732 0.27037 0.0
H5691 H 0.7772 0.87688 0.2586 0.0
H5692 H 0.78852 0.88149 0.20211 0.0
H5693 H 0.81883 0.88172 0.2135 0.0
C5694 C 0.89232 0.94574 0.28012 0.0
C5695 C 0.89669 0.95344 0.26406 0.0
C5696 C 0.88171 0.92757 0.27765 0.0
C5697 C 0.87513 0.91661 0.25908 0.0
C5698 C 0.87946 0.92408 0.24291 0.0
C5699 C 0.89035 0.94233 0.24539 0.0
C5700 C 0.86325 0.89767 0.25694 0.0
C5701 C 0.84606 0.89555 0.24864 0.0
C5702 C 0.86822 0.88287 0.26557 0.0
C5703 C 0.88623 0.88449 0.2747 0.0
C5704 C 0.89967 0.88858 0.26435 0.0
C5705 C 0.91665 0.8906 0.27321 0.0
C5706 C 0.92034 0.88846 0.2924 0.0
C5707 C 0.90706 0.88425 0.30276 0.0
C5708 C 0.89006 0.88223 0.29397 0.0
C5709 C 0.80055 0.82144 0.24619 0.0
C5710 C 0.80059 0.81569 0.2641 0.0
C5711 C 0.81321 0.83678 0.24403 0.0
C5712 C 0.82575 0.84713 0.25994 0.0
C5713 C 0.82595 0.84103 0.27775 0.0
C5714 C 0.81359 0.82533 0.27975 0.0
C5715 C 0.83844 0.86452 0.25824 0.0
C5716 C 0.85581 0.86643 0.26592 0.0
C5717 C 0.83354 0.87941 0.24957 0.0
C5718 C 0.81535 0.87933 0.24272 0.0
C5719 C 0.80347 0.87812 0.25541 0.0
C5720 C 0.78632 0.87792 0.24881 0.0
C5721 C 0.78093 0.8791 0.22961 0.0
C5722 C 0.7927 0.88054 0.21697 0.0
C5723 C 0.80987 0.88072 0.22348 0.0
H5724 H 0.76765 0.87895 0.22453 0.0
H5725 H 0.93349 0.89006 0.29924 0.0
H5726 H 0.67961 0.0539 0.76787 0.0
H5727 H 0.69326 0.08611 0.76376 0.0
H5728 H 0.72342 0.09691 0.82086 0.0
H5729 H 0.70985 0.06485 0.82505 0.0
H5730 H 0.71268 0.12849 0.81606 0.0
H5731 H 0.74061 0.08739 0.77804 0.0
H5732 H 0.74209 0.06041 0.75275 0.0
H5733 H 0.71647 0.08509 0.70946 0.0
H5734 H 0.71463 0.11211 0.73456 0.0
H5735 H 0.76959 0.21527 0.80939 0.0
H5736 H 0.75659 0.18289 0.81305 0.0
H5737 H 0.73312 0.16902 0.75279 0.0
H5738 H 0.74721 0.20106 0.74886 0.0
H5739 H 0.74002 0.13876 0.75928 0.0
H5740 H 0.71144 0.17969 0.79695 0.0
H5741 H 0.70994 0.20686 0.82205 0.0
H5742 H 0.73595 0.18283 0.86562 0.0
H5743 H 0.73775 0.1556 0.84074 0.0
C5744 C 0.68921 0.06302 0.77956 0.0
C5745 C 0.69355 0.05633 0.79678 0.0
C5746 C 0.69713 0.08161 0.77717 0.0
C5747 C 0.70968 0.09434 0.7919 0.0
C5748 C 0.71388 0.08771 0.80914 0.0
C5749 C 0.70609 0.06912 0.81148 0.0
C5750 C 0.71838 0.1144 0.7895 0.0
C5751 C 0.71879 0.13061 0.80369 0.0
C5752 C 0.72619 0.11777 0.77328 0.0
C5753 C 0.72733 0.10164 0.75818 0.0
C5754 C 0.73518 0.08698 0.76314 0.0
C5755 C 0.7361 0.0717 0.74884 0.0
C5756 C 0.72934 0.07101 0.72951 0.0
C5757 C 0.72168 0.08563 0.72444 0.0
C5758 C 0.7207 0.10094 0.73869 0.0
C5759 C 0.76168 0.20535 0.79686 0.0
C5760 C 0.75952 0.21108 0.77881 0.0
C5761 C 0.75397 0.18667 0.79902 0.0
C5762 C 0.74318 0.17309 0.78339 0.0
C5763 C 0.74119 0.17883 0.76528 0.0
C5764 C 0.74927 0.19736 0.76301 0.0
C5765 C 0.73422 0.15303 0.78577 0.0
C5766 C 0.73382 0.13676 0.7716 0.0
C5767 C 0.72627 0.14963 0.80195 0.0
C5768 C 0.72483 0.1657 0.81698 0.0
C5769 C 0.71686 0.18023 0.81189 0.0
C5770 C 0.71596 0.19564 0.82607 0.0
C5771 C 0.72285 0.19658 0.84541 0.0
C5772 C 0.7306 0.18207 0.85063 0.0
C5773 C 0.73154 0.16663 0.8365 0.0
H5774 H 0.72218 0.20854 0.85636 0.0
H5775 H 0.73007 0.05917 0.71846 0.0
loop_
_geom_bond_atom_site_label_1
_geom_bond_atom_site_label_2
_geom_bond_distance
_geom_bond_site_symmetry_2
_ccdc_geom_bond_type
Mg0 O1 2.027 1_655 S
Mg0 O7 1.981 1_655 S
Mg0 O9 2.127 . S
Mg0 O10 2.274 . S
Mg0 O13 1.989 1_655 S
O1 Mg0 2.027 1_455 S
O1 C4 1.250 . S
O2 Mg3 2.028 . S
O2 C4 1.248 1_655 S
Mg3 O2 2.028 . S
Mg3 O8 2.032 . S
Mg3 O10 2.079 . S
C4 O1 1.250 . S
C4 O2 1.248 1_455 S
C5 O6 1.264 . S
C5 O13 1.249 . S
O6 C5 1.264 . S
O7 Mg0 1.981 1_455 S
O7 C11 1.246 1_455 S
O8 Mg3 2.032 . S
O8 C11 1.259 . S
O9 Mg0 2.127 . S
O9 C12 1.252 . S
O10 Mg0 2.274 . S
O10 Mg3 2.079 . S
O10 C12 1.273 . S
C11 O7 1.246 1_655 S
C11 O8 1.259 . S
C12 O9 1.252 . S
C12 O10 1.273 . S
O13 Mg0 1.989 1_455 S
O13 C5 1.249 . S
Mg14 O15 2.028 . S
Mg14 O21 1.986 . S
Mg14 O23 2.114 . S
Mg14 O24 2.251 . S
Mg14 O27 2.010 . S
O15 Mg14 2.028 . S
O15 C18 1.250 . S
O16 Mg17 2.028 . S
O16 C18 1.248 . S
Mg17 O16 2.028 . S
Mg17 O22 2.032 . S
Mg17 O24 2.079 . S
C18 O15 1.250 . S
C18 O16 1.248 . S
C19 O20 1.264 . S
C19 O27 1.249 . S
O20 C19 1.264 . S
O21 Mg14 1.986 . S
O21 C25 1.246 . S
O22 Mg17 2.032 . S
O22 C25 1.259 . S
O23 Mg14 2.114 . S
O23 C26 1.252 . S
O24 Mg14 2.251 . S
O24 Mg17 2.079 . S
O24 C26 1.273 . S
C25 O21 1.246 . S
C25 O22 1.259 . S
C26 O23 1.252 . S
C26 O24 1.273 . S
O27 Mg14 2.010 . S
O27 C19 1.249 . S
Mg28 O29 2.028 . S
Mg28 O35 1.986 . S
Mg28 O37 2.114 . S
Mg28 O38 2.251 . S
Mg28 O41 2.010 . S
O29 Mg28 2.028 . S
O29 C32 1.250 . S
O30 Mg31 2.028 . S
O30 C32 1.248 . S
Mg31 O30 2.028 . S
Mg31 O36 2.032 . S
Mg31 O38 2.079 . S
C32 O29 1.250 . S
C32 O30 1.248 . S
C33 O34 1.264 . S
C33 O41 1.249 . S
O34 C33 1.264 . S
O35 Mg28 1.986 . S
O35 C39 1.246 . S
O36 Mg31 2.032 . S
O36 C39 1.259 . S
O37 Mg28 2.114 . S
O37 C40 1.252 . S
O38 Mg28 2.251 . S
O38 Mg31 2.079 . S
O38 C40 1.273 . S
C39 O35 1.246 . S
C39 O36 1.259 . S
C40 O37 1.252 . S
C40 O38 1.273 . S
O41 Mg28 2.010 . S
O41 C33 1.249 . S
Mg42 O43 2.028 . S
Mg42 O49 1.986 . S
Mg42 O51 2.114 . S
Mg42 O52 2.251 . S
Mg42 O55 2.010 . S
O43 Mg42 2.028 . S
O43 C46 1.250 . S
O44 Mg45 2.028 . S
O44 C46 1.248 . S
Mg45 O44 2.028 . S
Mg45 O50 2.032 . S
Mg45 O52 2.079 . S
C46 O43 1.250 . S
C46 O44 1.248 . S
C47 O48 1.264 . S
C47 O55 1.249 . S
O48 C47 1.264 . S
O49 Mg42 1.986 . S
O49 C53 1.246 . S
O50 Mg45 2.032 . S
O50 C53 1.259 . S
O51 Mg42 2.114 . S
O51 C54 1.252 . S
O52 Mg42 2.251 . S
O52 Mg45 2.079 . S
O52 C54 1.273 . S
C53 O49 1.246 . S
C53 O50 1.259 . S
C54 O51 1.252 . S
C54 O52 1.273 . S
O55 Mg42 2.010 . S
O55 C47 1.249 . S
Mg56 O57 2.028 . S
Mg56 O63 1.986 . S
Mg56 O65 2.114 . S
Mg56 O66 2.251 . S
Mg56 O69 2.010 . S
O57 Mg56 2.028 . S
O57 C60 1.250 . S
O58 Mg59 2.028 . S
O58 C60 1.248 . S
Mg59 O58 2.028 . S
Mg59 O64 2.032 . S
Mg59 O66 2.079 . S
C60 O57 1.250 . S
C60 O58 1.248 . S
C61 O62 1.264 . S
C61 O69 1.249 . S
O62 C61 1.264 . S
O63 Mg56 1.986 . S
O63 C67 1.246 . S
O64 Mg59 2.032 . S
O64 C67 1.259 . S
O65 Mg56 2.114 . S
O65 C68 1.252 . S
O66 Mg56 2.251 . S
O66 Mg59 2.079 . S
O66 C68 1.273 . S
C67 O63 1.246 . S
C67 O64 1.259 . S
C68 O65 1.252 . S
C68 O66 1.273 . S
O69 Mg56 2.010 . S
O69 C61 1.249 . S
Mg70 O71 2.028 . S
Mg70 O77 1.986 . S
Mg70 O79 2.114 . S
Mg70 O80 2.251 . S
Mg70 O83 2.010 . S
O71 Mg70 2.028 . S
O71 C74 1.250 . S
O72 Mg73 2.028 . S
O72 C74 1.248 . S
Mg73 O72 2.028 . S
Mg73 O78 2.032 . S
Mg73 O80 2.079 . S
C74 O71 1.250 . S
C74 O72 1.248 . S
C75 O76 1.264 . S
C75 O83 1.249 . S
O76 C75 1.264 . S
O77 Mg70 1.986 . S
O77 C81 1.246 . S
O78 Mg73 2.032 . S
O78 C81 1.259 . S
O79 Mg70 2.114 . S
O79 C82 1.252 . S
O80 Mg70 2.251 . S
O80 Mg73 2.079 . S
O80 C82 1.273 . S
C81 O77 1.246 . S
C81 O78 1.259 . S
C82 O79 1.252 . S
C82 O80 1.273 . S
O83 Mg70 2.010 . S
O83 C75 1.249 . S
Mg84 O85 2.028 . S
Mg84 O91 1.986 . S
Mg84 O93 2.114 . S
Mg84 O94 2.251 . S
Mg84 O97 2.010 . S
O85 Mg84 2.028 . S
O85 C88 1.250 . S
O86 Mg87 2.028 . S
O86 C88 1.248 . S
Mg87 O86 2.028 . S
Mg87 O92 2.032 . S
Mg87 O94 2.079 . S
C88 O85 1.250 . S
C88 O86 1.248 . S
C89 O90 1.264 . S
C89 O97 1.249 . S
O90 C89 1.264 . S
O91 Mg84 1.986 . S
O91 C95 1.246 . S
O92 Mg87 2.032 . S
O92 C95 1.259 . S
O93 Mg84 2.114 . S
O93 C96 1.252 . S
O94 Mg84 2.251 . S
O94 Mg87 2.079 . S
O94 C96 1.273 . S
C95 O91 1.246 . S
C95 O92 1.259 . S
C96 O93 1.252 . S
C96 O94 1.273 . S
O97 Mg84 2.010 . S
O97 C89 1.249 . S
Mg98 O99 2.028 . S
Mg98 O105 1.986 . S
Mg98 O107 2.114 1_455 S
Mg98 O108 2.251 1_455 S
Mg98 O111 2.010 . S
O99 Mg98 2.028 . S
O99 C102 1.250 . S
O100 Mg101 2.050 . S
O100 C102 1.213 1_655 S
Mg101 O100 2.050 . S
Mg101 O106 2.032 . S
Mg101 O108 2.079 . S
C102 O99 1.250 . S
C102 O100 1.213 1_455 S
C103 O104 1.264 . S
C103 O111 1.249 . S
O104 C103 1.264 . S
O105 Mg98 1.986 . S
O105 C109 1.246 . S
O106 Mg101 2.032 . S
O106 C109 1.259 1_655 S
O107 Mg98 2.114 1_655 S
O107 C110 1.252 . S
O108 Mg98 2.251 1_655 S
O108 Mg101 2.079 . S
O108 C110 1.273 . S
C109 O105 1.246 . S
C109 O106 1.259 1_455 S
C110 O107 1.252 . S
C110 O108 1.273 . S
O111 Mg98 2.010 . S
O111 C103 1.249 . S
Mg112 O113 2.006 1_545 S
Mg112 O119 1.986 . S
Mg112 O121 2.114 . S
Mg112 O122 2.251 . S
Mg112 O125 2.010 . S
O113 Mg112 2.006 1_565 S
O113 C116 1.265 . S
O114 Mg115 2.028 1_565 S
O114 C116 1.248 . S
Mg115 O114 2.028 1_545 S
Mg115 O120 2.032 . S
Mg115 O122 2.079 . S
C116 O113 1.265 . S
C116 O114 1.248 . S
C117 O118 1.264 . S
C117 O125 1.249 . S
O118 C117 1.264 . S
O119 Mg112 1.986 . S
O119 C123 1.246 . S
O120 Mg115 2.032 . S
O120 C123 1.259 . S
O121 Mg112 2.114 . S
O121 C124 1.252 . S
O122 Mg112 2.251 . S
O122 Mg115 2.079 . S
O122 C124 1.273 . S
C123 O119 1.246 . S
C123 O120 1.259 . S
C124 O121 1.252 . S
C124 O122 1.273 . S
O125 Mg112 2.010 . S
O125 C117 1.249 . S
Mg126 O127 2.028 . S
Mg126 O133 1.986 . S
Mg126 O135 2.114 . S
Mg126 O136 2.251 . S
Mg126 O139 2.010 . S
O127 Mg126 2.028 . S
O127 C130 1.250 . S
O128 Mg129 2.028 . S
O128 C130 1.248 . S
Mg129 O128 2.028 . S
Mg129 O134 2.032 . S
Mg129 O136 2.079 . S
C130 O127 1.250 . S
C130 O128 1.248 . S
C131 O132 1.264 . S
C131 O139 1.249 . S
O132 C131 1.264 . S
O133 Mg126 1.986 . S
O133 C137 1.246 . S
O134 Mg129 2.032 . S
O134 C137 1.259 . S
O135 Mg126 2.114 . S
O135 C138 1.252 . S
O136 Mg126 2.251 . S
O136 Mg129 2.079 . S
O136 C138 1.273 . S
C137 O133 1.246 . S
C137 O134 1.259 . S
C138 O135 1.252 . S
C138 O136 1.273 . S
O139 Mg126 2.010 . S
O139 C131 1.249 . S
Mg140 O141 2.028 . S
Mg140 O147 1.975 1_545 S
Mg140 O149 2.114 . S
Mg140 O150 2.251 . S
Mg140 O153 2.010 . S
O141 Mg140 2.028 . S
O141 C144 1.250 . S
O142 Mg143 2.028 . S
O142 C144 1.248 . S
Mg143 O142 2.028 . S
Mg143 O148 2.032 . S
Mg143 O150 2.079 . S
C144 O141 1.250 . S
C144 O142 1.248 . S
C145 O146 1.264 1_545 S
C145 O153 1.249 . S
O146 C145 1.264 1_565 S
O147 Mg140 1.975 1_565 S
O147 C151 1.253 . S
O148 Mg143 2.032 . S
O148 C151 1.259 1_545 S
O149 Mg140 2.114 . S
O149 C152 1.252 . S
O150 Mg140 2.251 . S
O150 Mg143 2.079 . S
O150 C152 1.273 . S
C151 O147 1.253 . S
C151 O148 1.259 1_565 S
C152 O149 1.252 . S
C152 O150 1.273 . S
O153 Mg140 2.010 . S
O153 C145 1.249 . S
Mg154 O155 2.028 1_554 S
Mg154 O161 1.986 . S
Mg154 O163 2.114 1_554 S
Mg154 O164 2.251 . S
Mg154 O167 2.010 . S
O155 Mg154 2.028 1_556 S
O155 C158 1.250 . S
O156 Mg157 2.028 1_556 S
O156 C158 1.248 . S
Mg157 O156 2.028 1_554 S
Mg157 O162 2.032 . S
Mg157 O164 2.079 . S
C158 O155 1.250 . S
C158 O156 1.248 . S
C159 O160 1.264 . S
C159 O167 1.249 . S
O160 C159 1.264 . S
O161 Mg154 1.986 . S
O161 C165 1.246 . S
O162 Mg157 2.032 . S
O162 C165 1.259 . S
O163 Mg154 2.114 1_556 S
O163 C166 1.252 1_556 S
O164 Mg154 2.251 . S
O164 Mg157 2.079 . S
O164 C166 1.273 . S
C165 O161 1.246 . S
C165 O162 1.259 . S
C166 O163 1.252 1_554 S
C166 O164 1.273 . S
O167 Mg154 2.010 . S
O167 C159 1.249 . S
Mg168 O169 2.028 . S
Mg168 O175 1.986 . S
Mg168 O177 2.114 . S
Mg168 O178 2.251 . S
Mg168 O181 2.010 . S
O169 Mg168 2.028 . S
O169 C172 1.250 1_554 S
O170 Mg171 2.040 . S
O170 C172 1.244 1_554 S
Mg171 O170 2.040 . S
Mg171 O176 2.032 . S
Mg171 O178 2.079 . S
C172 O169 1.250 1_556 S
C172 O170 1.244 1_556 S
C173 O174 1.264 . S
C173 O181 1.249 . S
O174 C173 1.264 . S
O175 Mg168 1.986 . S
O175 C179 1.246 . S
O176 Mg171 2.032 . S
O176 C179 1.259 . S
O177 Mg168 2.114 . S
O177 C180 1.252 . S
O178 Mg168 2.251 . S
O178 Mg171 2.079 . S
O178 C180 1.273 . S
C179 O175 1.246 . S
C179 O176 1.259 . S
C180 O177 1.252 . S
C180 O178 1.273 . S
O181 Mg168 2.010 . S
O181 C173 1.249 . S
Mg182 O183 2.028 . S
Mg182 O189 1.986 . S
Mg182 O191 2.114 . S
Mg182 O192 2.251 . S
Mg182 O195 2.010 . S
O183 Mg182 2.028 . S
O183 C186 1.250 . S
O184 Mg185 2.028 . S
O184 C186 1.248 . S
Mg185 O184 2.028 . S
Mg185 O190 2.032 . S
Mg185 O192 2.079 . S
C186 O183 1.250 . S
C186 O184 1.248 . S
C187 O188 1.264 . S
C187 O195 1.249 . S
O188 C187 1.264 . S
O189 Mg182 1.986 . S
O189 C193 1.246 . S
O190 Mg185 2.032 . S
O190 C193 1.259 . S
O191 Mg182 2.114 . S
O191 C194 1.252 . S
O192 Mg182 2.251 . S
O192 Mg185 2.079 . S
O192 C194 1.273 . S
C193 O189 1.246 . S
C193 O190 1.259 . S
C194 O191 1.252 . S
C194 O192 1.273 . S
O195 Mg182 2.010 . S
O195 C187 1.249 . S
Mg196 O197 2.028 . S
Mg196 O203 1.986 . S
Mg196 O205 2.114 . S
Mg196 O206 2.251 . S
Mg196 O209 2.010 . S
O197 Mg196 2.028 . S
O197 C200 1.250 . S
O198 Mg199 2.028 . S
O198 C200 1.248 . S
Mg199 O198 2.028 . S
Mg199 O204 2.032 . S
Mg199 O206 2.079 . S
C200 O197 1.250 . S
C200 O198 1.248 . S
C201 O202 1.264 . S
C201 O209 1.249 . S
O202 C201 1.264 . S
O203 Mg196 1.986 . S
O203 C207 1.246 . S
O204 Mg199 2.032 . S
O204 C207 1.259 . S
O205 Mg196 2.114 . S
O205 C208 1.252 . S
O206 Mg196 2.251 . S
O206 Mg199 2.079 . S
O206 C208 1.273 . S
C207 O203 1.246 . S
C207 O204 1.259 . S
C208 O205 1.252 . S
C208 O206 1.273 . S
O209 Mg196 2.010 . S
O209 C201 1.249 . S
Mg210 O211 2.028 . S
Mg210 O217 1.986 . S
Mg210 O219 2.114 . S
Mg210 O220 2.251 . S
Mg210 O223 2.010 . S
O211 Mg210 2.028 . S
O211 C214 1.250 . S
O212 Mg213 2.028 . S
O212 C214 1.248 . S
Mg213 O212 2.028 . S
Mg213 O218 2.032 . S
Mg213 O220 2.079 . S
C214 O211 1.250 . S
C214 O212 1.248 . S
C215 O216 1.264 . S
C215 O223 1.249 . S
O216 C215 1.264 . S
O217 Mg210 1.986 . S
O217 C221 1.246 . S
O218 Mg213 2.032 . S
O218 C221 1.259 . S
O219 Mg210 2.114 . S
O219 C222 1.252 . S
O220 Mg210 2.251 . S
O220 Mg213 2.079 . S
O220 C222 1.273 . S
C221 O217 1.246 . S
C221 O218 1.259 . S
C222 O219 1.252 . S
C222 O220 1.273 . S
O223 Mg210 2.010 . S
O223 C215 1.249 . S
Mg224 O225 2.028 1_545 S
Mg224 O231 1.986 . S
Mg224 O233 2.114 . S
Mg224 O234 2.251 . S
Mg224 O237 2.010 . S
O225 Mg224 2.028 1_565 S
O225 C228 1.250 . S
O226 Mg227 2.028 1_565 S
O226 C228 1.248 . S
Mg227 O226 2.028 1_545 S
Mg227 O232 2.032 . S
Mg227 O234 2.079 . S
C228 O225 1.250 . S
C228 O226 1.248 . S
C229 O230 1.264 . S
C229 O237 1.249 . S
O230 C229 1.264 . S
O231 Mg224 1.986 . S
O231 C235 1.246 . S
O232 Mg227 2.032 . S
O232 C235 1.259 . S
O233 Mg224 2.114 . S
O233 C236 1.252 . S
O234 Mg224 2.251 . S
O234 Mg227 2.079 . S
O234 C236 1.273 . S
C235 O231 1.246 . S
C235 O232 1.259 . S
C236 O233 1.252 . S
C236 O234 1.273 . S
O237 Mg224 2.010 . S
O237 C229 1.249 . S
Mg238 O239 2.028 . S
Mg238 O245 1.986 . S
Mg238 O247 2.114 . S
Mg238 O248 2.251 . S
Mg238 O251 2.010 . S
O239 Mg238 2.028 . S
O239 C242 1.250 . S
O240 Mg241 2.028 . S
O240 C242 1.248 . S
Mg241 O240 2.028 . S
Mg241 O246 2.032 . S
Mg241 O248 2.079 . S
C242 O239 1.250 . S
C242 O240 1.248 . S
C243 O244 1.264 . S
C243 O251 1.249 . S
O244 C243 1.264 . S
O245 Mg238 1.986 . S
O245 C249 1.246 . S
O246 Mg241 2.032 . S
O246 C249 1.259 . S
O247 Mg238 2.114 . S
O247 C250 1.252 . S
O248 Mg238 2.251 . S
O248 Mg241 2.079 . S
O248 C250 1.273 . S
C249 O245 1.246 . S
C249 O246 1.259 . S
C250 O247 1.252 . S
C250 O248 1.273 . S
O251 Mg238 2.010 . S
O251 C243 1.249 . S
Mg252 O253 2.028 . S
Mg252 O259 1.986 . S
Mg252 O261 2.114 . S
Mg252 O262 2.251 . S
Mg252 O265 2.010 . S
O253 Mg252 2.028 . S
O253 C256 1.250 . S
O254 Mg255 2.028 . S
O254 C256 1.248 . S
Mg255 O254 2.028 . S
Mg255 O260 2.032 . S
Mg255 O262 2.079 . S
C256 O253 1.250 . S
C256 O254 1.248 . S
C257 O258 1.264 . S
C257 O265 1.249 . S
O258 C257 1.264 . S
O259 Mg252 1.986 . S
O259 C263 1.246 . S
O260 Mg255 2.032 . S
O260 C263 1.259 . S
O261 Mg252 2.114 . S
O261 C264 1.252 . S
O262 Mg252 2.251 . S
O262 Mg255 2.079 . S
O262 C264 1.273 . S
C263 O259 1.246 . S
C263 O260 1.259 . S
C264 O261 1.252 . S
C264 O262 1.273 . S
O265 Mg252 2.010 . S
O265 C257 1.249 . S
Mg266 O267 2.028 . S
Mg266 O273 1.986 1_545 S
Mg266 O275 2.114 . S
Mg266 O276 2.251 . S
Mg266 O279 2.012 1_545 S
O267 Mg266 2.028 . S
O267 C270 1.250 . S
O268 Mg269 2.028 . S
O268 C270 1.248 . S
Mg269 O268 2.028 . S
Mg269 O274 2.032 1_545 S
Mg269 O276 2.079 . S
C270 O267 1.250 . S
C270 O268 1.248 . S
C271 O272 1.247 1_545 S
C271 O279 1.233 1_545 S
O272 C271 1.247 1_565 S
O273 Mg266 1.986 1_565 S
O273 C277 1.246 . S
O274 Mg269 2.032 1_565 S
O274 C277 1.259 . S
O275 Mg266 2.114 . S
O275 C278 1.252 . S
O276 Mg266 2.251 . S
O276 Mg269 2.079 . S
O276 C278 1.273 . S
C277 O273 1.246 . S
C277 O274 1.259 . S
C278 O275 1.252 . S
C278 O276 1.273 . S
O279 Mg266 2.012 1_565 S
O279 C271 1.233 1_565 S
Mg280 O281 2.028 . S
Mg280 O287 1.986 1_554 S
Mg280 O289 2.114 . S
Mg280 O290 2.251 . S
Mg280 O293 2.010 . S
O281 Mg280 2.028 . S
O281 C284 1.250 . S
O282 Mg283 2.028 . S
O282 C284 1.248 . S
Mg283 O282 2.028 . S
Mg283 O288 2.075 . S
Mg283 O290 2.079 . S
C284 O281 1.250 . S
C284 O282 1.248 . S
C285 O286 1.264 1_554 S
C285 O293 1.249 . S
O286 C285 1.264 1_556 S
O287 Mg280 1.986 1_556 S
O287 C291 1.246 . S
O288 Mg283 2.075 . S
O288 C291 1.238 1_554 S
O289 Mg280 2.114 . S
O289 C292 1.252 . S
O290 Mg280 2.251 . S
O290 Mg283 2.079 . S
O290 C292 1.273 . S
C291 O287 1.246 . S
C291 O288 1.238 1_556 S
C292 O289 1.252 . S
C292 O290 1.273 . S
O293 Mg280 2.010 . S
O293 C285 1.249 . S
Mg294 O295 2.028 . S
Mg294 O301 1.986 . S
Mg294 O303 2.114 . S
Mg294 O304 2.251 . S
Mg294 O307 2.010 . S
O295 Mg294 2.028 . S
O295 C298 1.250 . S
O296 Mg297 2.028 . S
O296 C298 1.248 . S
Mg297 O296 2.028 . S
Mg297 O302 2.032 . S
Mg297 O304 2.079 . S
C298 O295 1.250 . S
C298 O296 1.248 . S
C299 O300 1.264 . S
C299 O307 1.249 . S
O300 C299 1.264 . S
O301 Mg294 1.986 . S
O301 C305 1.246 . S
O302 Mg297 2.032 . S
O302 C305 1.259 . S
O303 Mg294 2.114 . S
O303 C306 1.252 . S
O304 Mg294 2.251 . S
O304 Mg297 2.079 . S
O304 C306 1.273 . S
C305 O301 1.246 . S
C305 O302 1.259 . S
C306 O303 1.252 . S
C306 O304 1.273 . S
O307 Mg294 2.010 . S
O307 C299 1.249 . S
Mg308 O309 2.028 . S
Mg308 O315 1.986 . S
Mg308 O317 2.114 . S
Mg308 O318 2.251 . S
Mg308 O321 2.010 . S
O309 Mg308 2.028 . S
O309 C312 1.250 . S
O310 Mg311 2.028 . S
O310 C312 1.248 . S
Mg311 O310 2.028 . S
Mg311 O316 2.032 . S
Mg311 O318 2.079 . S
C312 O309 1.250 . S
C312 O310 1.248 . S
C313 O314 1.264 . S
C313 O321 1.249 . S
O314 C313 1.264 . S
O315 Mg308 1.986 . S
O315 C319 1.246 . S
O316 Mg311 2.032 . S
O316 C319 1.259 . S
O317 Mg308 2.114 . S
O317 C320 1.252 . S
O318 Mg308 2.251 . S
O318 Mg311 2.079 . S
O318 C320 1.273 . S
C319 O315 1.246 . S
C319 O316 1.259 . S
C320 O317 1.252 . S
C320 O318 1.273 . S
O321 Mg308 2.010 . S
O321 C313 1.249 . S
Mg322 O323 2.028 . S
Mg322 O329 1.986 . S
Mg322 O331 2.114 . S
Mg322 O332 2.251 . S
Mg322 O335 2.010 . S
O323 Mg322 2.028 . S
O323 C326 1.250 . S
O324 Mg325 2.028 . S
O324 C326 1.248 . S
Mg325 O324 2.028 . S
Mg325 O330 2.032 . S
Mg325 O332 2.079 . S
C326 O323 1.250 . S
C326 O324 1.248 . S
C327 O328 1.264 . S
C327 O335 1.249 . S
O328 C327 1.264 . S
O329 Mg322 1.986 . S
O329 C333 1.246 . S
O330 Mg325 2.032 . S
O330 C333 1.259 . S
O331 Mg322 2.114 . S
O331 C334 1.252 . S
O332 Mg322 2.251 . S
O332 Mg325 2.079 . S
O332 C334 1.273 . S
C333 O329 1.246 . S
C333 O330 1.259 . S
C334 O331 1.252 . S
C334 O332 1.273 . S
O335 Mg322 2.010 . S
O335 C327 1.249 . S
Tb336 C338 2.807 1_554 S
Tb336 O356 2.484 . S
Tb336 O357 2.440 1_554 S
Tb336 O358 2.658 1_654 S
Tb336 O359 2.409 1_654 S
Tb336 O360 2.378 1_655 S
Tb336 O364 2.325 1_655 S
Tb336 O367 2.341 1_645 S
Tb337 C347 2.809 1_545 S
Tb337 O358 2.325 1_554 S
Tb337 O361 2.341 . S
Tb337 O362 2.484 1_545 S
Tb337 O363 2.440 . S
Tb337 O364 2.658 . S
Tb337 O365 2.409 . S
Tb337 O366 2.378 1_545 S
C338 Tb336 2.807 1_556 S
C338 C339 1.516 . S
C338 O356 1.234 1_556 S
C338 O357 1.278 . S
C339 C338 1.516 . S
C339 C340 1.359 1_556 S
C339 C344 1.348 . S
C340 C339 1.359 1_554 S
C340 C341 1.380 . S
C340 H368 0.929 . S
C341 C340 1.380 . S
C341 C342 1.347 1_554 S
C341 H369 0.931 . S
C342 C341 1.347 1_556 S
C342 C343 1.369 . S
C343 C342 1.369 . S
C343 C344 1.408 . S
C343 H370 0.930 . S
C344 C339 1.348 . S
C344 C343 1.408 . S
C344 H371 0.930 . S
C345 O358 1.281 . S
C345 O359 1.254 . S
C346 O360 1.236 . S
C346 O361 1.266 . S
C347 Tb337 2.809 1_565 S
C347 C348 1.514 . S
C347 O362 1.248 . S
C347 O363 1.266 1_565 S
C348 C347 1.514 . S
C348 C349 1.359 . S
C348 C353 1.348 . S
C349 C348 1.359 . S
C349 C350 1.380 . S
C349 H372 0.929 . S
C350 C349 1.380 . S
C350 C351 1.347 . S
C350 H373 0.931 . S
C351 C350 1.347 . S
C351 C352 1.369 . S
C352 C351 1.369 . S
C352 C353 1.408 . S
C352 H374 0.930 . S
C353 C348 1.348 . S
C353 C352 1.408 . S
C353 H375 0.930 . S
C354 O364 1.281 . S
C354 O365 1.254 . S
C355 O366 1.236 . S
C355 O367 1.266 . S
O356 Tb336 2.484 . S
O356 C338 1.234 1_554 S
O357 Tb336 2.440 1_556 S
O357 C338 1.278 . S
O358 Tb336 2.658 1_456 S
O358 Tb337 2.325 1_556 S
O358 C345 1.281 . S
O359 Tb336 2.409 1_456 S
O359 C345 1.254 . S
O360 Tb336 2.378 1_455 S
O360 C346 1.236 . S
O361 Tb337 2.341 . S
O361 C346 1.266 . S
O362 Tb337 2.484 1_565 S
O362 C347 1.248 . S
O363 Tb337 2.440 . S
O363 C347 1.266 1_545 S
O364 Tb336 2.325 1_455 S
O364 Tb337 2.658 . S
O364 C354 1.281 . S
O365 Tb337 2.409 . S
O365 C354 1.254 . S
O366 Tb337 2.378 1_565 S
O366 C355 1.236 . S
O367 Tb336 2.341 1_465 S
O367 C355 1.266 . S
H368 C340 0.929 . S
H369 C341 0.931 . S
H370 C343 0.930 . S
H371 C344 0.930 . S
H372 C349 0.929 . S
H373 C350 0.931 . S
H374 C352 0.930 . S
H375 C353 0.930 . S
Tb376 C378 2.809 . S
Tb376 O396 2.484 . S
Tb376 O397 2.440 . S
Tb376 O398 2.658 . S
Tb376 O399 2.409 . S
Tb376 O400 2.378 . S
Tb376 O404 2.325 . S
Tb376 O407 2.341 . S
Tb377 C387 2.809 . S
Tb377 O398 2.325 . S
Tb377 O401 2.341 . S
Tb377 O402 2.484 . S
Tb377 O403 2.440 . S
Tb377 O404 2.658 . S
Tb377 O405 2.409 . S
Tb377 O406 2.378 . S
C378 Tb376 2.809 . S
C378 C379 1.514 . S
C378 O396 1.248 . S
C378 O397 1.266 . S
C379 C378 1.514 . S
C379 C380 1.359 . S
C379 C384 1.348 . S
C380 C379 1.359 . S
C380 C381 1.380 . S
C380 H408 0.929 . S
C381 C380 1.380 . S
C381 C382 1.347 . S
C381 H409 0.931 . S
C382 C381 1.347 . S
C382 C383 1.369 . S
C383 C382 1.369 . S
C383 C384 1.408 . S
C383 H410 0.930 . S
C384 C379 1.348 . S
C384 C383 1.408 . S
C384 H411 0.930 . S
C385 O398 1.281 . S
C385 O399 1.254 . S
C386 O400 1.236 . S
C386 O401 1.266 . S
C387 Tb377 2.809 . S
C387 C388 1.514 . S
C387 O402 1.248 . S
C387 O403 1.266 . S
C388 C387 1.514 . S
C388 C389 1.359 . S
C388 C393 1.348 . S
C389 C388 1.359 . S
C389 C390 1.380 . S
C389 H412 0.929 . S
C390 C389 1.380 . S
C390 C391 1.347 . S
C390 H413 0.931 . S
C391 C390 1.347 . S
C391 C392 1.369 . S
C392 C391 1.369 . S
C392 C393 1.408 . S
C392 H414 0.930 . S
C393 C388 1.348 . S
C393 C392 1.408 . S
C393 H415 0.930 . S
C394 O404 1.281 . S
C394 O405 1.254 . S
C395 O406 1.236 . S
C395 O407 1.266 . S
O396 Tb376 2.484 . S
O396 C378 1.248 . S
O397 Tb376 2.440 . S
O397 C378 1.266 . S
O398 Tb376 2.658 . S
O398 Tb377 2.325 . S
O398 C385 1.281 . S
O399 Tb376 2.409 . S
O399 C385 1.254 . S
O400 Tb376 2.378 . S
O400 C386 1.236 . S
O401 Tb377 2.341 . S
O401 C386 1.266 . S
O402 Tb377 2.484 . S
O402 C387 1.248 . S
O403 Tb377 2.440 . S
O403 C387 1.266 . S
O404 Tb376 2.325 . S
O404 Tb377 2.658 . S
O404 C394 1.281 . S
O405 Tb377 2.409 . S
O405 C394 1.254 . S
O406 Tb377 2.378 . S
O406 C395 1.236 . S
O407 Tb376 2.341 . S
O407 C395 1.266 . S
H408 C380 0.929 . S
H409 C381 0.931 . S
H410 C383 0.930 . S
H411 C384 0.930 . S
H412 C389 0.929 . S
H413 C390 0.931 . S
H414 C392 0.930 . S
H415 C393 0.930 . S
Tb416 C418 2.809 1_545 S
Tb416 O436 2.439 1_545 S
Tb416 O437 2.440 . S
Tb416 O438 2.658 . S
Tb416 O439 2.409 . S
Tb416 O440 2.378 1_545 S
Tb416 O444 2.325 . S
Tb416 O447 2.341 . S
Tb417 C427 2.809 . S
Tb417 O438 2.325 . S
Tb417 O441 2.341 1_545 S
Tb417 O442 2.484 . S
Tb417 O443 2.440 . S
Tb417 O444 2.658 . S
Tb417 O445 2.409 . S
Tb417 O446 2.378 . S
C418 Tb416 2.809 1_565 S
C418 C419 1.514 . S
C418 O436 1.248 . S
C418 O437 1.266 1_565 S
C419 C418 1.514 . S
C419 C420 1.359 . S
C419 C424 1.348 . S
C420 C419 1.359 . S
C420 C421 1.380 . S
C420 H448 0.929 . S
C421 C420 1.380 . S
C421 C422 1.347 . S
C421 H449 0.931 . S
C422 C421 1.347 . S
C422 C423 1.369 . S
C423 C422 1.369 . S
C423 C424 1.408 . S
C423 H450 0.930 . S
C424 C419 1.348 . S
C424 C423 1.408 . S
C424 H451 0.930 . S
C425 O438 1.281 . S
C425 O439 1.254 . S
C426 O440 1.236 . S
C426 O441 1.266 . S
C427 Tb417 2.809 . S
C427 C428 1.514 . S
C427 O442 1.248 . S
C427 O443 1.266 . S
C428 C427 1.514 . S
C428 C429 1.359 . S
C428 C433 1.348 . S
C429 C428 1.359 . S
C429 C430 1.380 . S
C429 H452 0.929 . S
C430 C429 1.380 . S
C430 C431 1.347 . S
C430 H453 0.931 . S
C431 C430 1.347 . S
C431 C432 1.369 . S
C432 C431 1.369 . S
C432 C433 1.408 . S
C432 H454 0.930 . S
C433 C428 1.348 . S
C433 C432 1.408 . S
C433 H455 0.930 . S
C434 O444 1.281 . S
C434 O445 1.254 . S
C435 O446 1.236 . S
C435 O447 1.266 . S
O436 Tb416 2.439 1_565 S
O436 C418 1.248 . S
O437 Tb416 2.440 . S
O437 C418 1.266 1_545 S
O438 Tb416 2.658 . S
O438 Tb417 2.325 . S
O438 C425 1.281 . S
O439 Tb416 2.409 . S
O439 C425 1.254 . S
O440 Tb416 2.378 1_565 S
O440 C426 1.236 . S
O441 Tb417 2.341 1_565 S
O441 C426 1.266 . S
O442 Tb417 2.484 . S
O442 C427 1.248 . S
O443 Tb417 2.440 . S
O443 C427 1.266 . S
O444 Tb416 2.325 . S
O444 Tb417 2.658 . S
O444 C434 1.281 . S
O445 Tb417 2.409 . S
O445 C434 1.254 . S
O446 Tb417 2.378 . S
O446 C435 1.236 . S
O447 Tb416 2.341 . S
O447 C435 1.266 . S
H448 C420 0.929 . S
H449 C421 0.931 . S
H450 C423 0.930 . S
H451 C424 0.930 . S
H452 C429 0.929 . S
H453 C430 0.931 . S
H454 C432 0.930 . S
H455 C433 0.930 . S
Tb456 C458 2.809 . S
Tb456 O476 2.484 . S
Tb456 O477 2.440 . S
Tb456 O478 2.658 . S
Tb456 O479 2.409 . S
Tb456 O480 2.378 . S
Tb456 O484 2.325 . S
Tb456 O487 2.341 . S
Tb457 C467 2.809 . S
Tb457 O478 2.325 . S
Tb457 O481 2.341 . S
Tb457 O482 2.484 . S
Tb457 O483 2.440 . S
Tb457 O484 2.658 . S
Tb457 O485 2.409 . S
Tb457 O486 2.378 . S
C458 Tb456 2.809 . S
C458 C459 1.514 . S
C458 O476 1.248 . S
C458 O477 1.266 . S
C459 C458 1.514 . S
C459 C460 1.359 . S
C459 C464 1.348 . S
C460 C459 1.359 . S
C460 C461 1.380 . S
C460 H488 0.929 . S
C461 C460 1.380 . S
C461 C462 1.347 . S
C461 H489 0.931 . S
C462 C461 1.347 . S
C462 C463 1.369 . S
C463 C462 1.369 . S
C463 C464 1.408 . S
C463 H490 0.930 . S
C464 C459 1.348 . S
C464 C463 1.408 . S
C464 H491 0.930 . S
C465 O478 1.281 . S
C465 O479 1.254 . S
C466 O480 1.236 . S
C466 O481 1.266 . S
C467 Tb457 2.809 . S
C467 C468 1.514 . S
C467 O482 1.248 . S
C467 O483 1.266 . S
C468 C467 1.514 . S
C468 C469 1.359 . S
C468 C473 1.348 . S
C469 C468 1.359 . S
C469 C470 1.380 . S
C469 H492 0.929 . S
C470 C469 1.380 . S
C470 C471 1.347 . S
C470 H493 0.931 . S
C471 C470 1.347 . S
C471 C472 1.369 . S
C472 C471 1.369 . S
C472 C473 1.408 . S
C472 H494 0.930 . S
C473 C468 1.348 . S
C473 C472 1.408 . S
C473 H495 0.930 . S
C474 O484 1.281 . S
C474 O485 1.254 . S
C475 O486 1.236 . S
C475 O487 1.266 . S
O476 Tb456 2.484 . S
O476 C458 1.248 . S
O477 Tb456 2.440 . S
O477 C458 1.266 . S
O478 Tb456 2.658 . S
O478 Tb457 2.325 . S
O478 C465 1.281 . S
O479 Tb456 2.409 . S
O479 C465 1.254 . S
O480 Tb456 2.378 . S
O480 C466 1.236 . S
O481 Tb457 2.341 . S
O481 C466 1.266 . S
O482 Tb457 2.484 . S
O482 C467 1.248 . S
O483 Tb457 2.440 . S
O483 C467 1.266 . S
O484 Tb456 2.325 . S
O484 Tb457 2.658 . S
O484 C474 1.281 . S
O485 Tb457 2.409 . S
O485 C474 1.254 . S
O486 Tb457 2.378 . S
O486 C475 1.236 . S
O487 Tb456 2.341 . S
O487 C475 1.266 . S
H488 C460 0.929 . S
H489 C461 0.931 . S
H490 C463 0.930 . S
H491 C464 0.930 . S
H492 C469 0.929 . S
H493 C470 0.931 . S
H494 C472 0.930 . S
H495 C473 0.930 . S
Tb496 C498 2.809 . S
Tb496 O516 2.484 . S
Tb496 O517 2.440 1_455 S
Tb496 O518 2.658 . S
Tb496 O519 2.409 1_455 S
Tb496 O520 2.378 . S
Tb496 O524 2.325 . S
Tb496 O527 2.341 . S
Tb497 C507 2.809 . S
Tb497 O518 2.325 1_565 S
Tb497 O521 2.341 . S
Tb497 O522 2.484 . S
Tb497 O523 2.440 . S
Tb497 O524 2.658 1_565 S
Tb497 O525 2.409 1_565 S
Tb497 O526 2.378 1_565 S
C498 Tb496 2.809 . S
C498 C499 1.514 . S
C498 O516 1.248 . S
C498 O517 1.266 1_455 S
C499 C498 1.514 . S
C499 C500 1.359 . S
C499 C504 1.348 1_455 S
C500 C499 1.359 . S
C500 C501 1.380 . S
C500 H528 0.929 . S
C501 C500 1.380 . S
C501 C502 1.347 1_455 S
C501 H529 0.931 . S
C502 C501 1.347 1_655 S
C502 C503 1.369 . S
C503 C502 1.369 . S
C503 C504 1.408 . S
C503 H530 0.930 . S
C504 C499 1.348 1_655 S
C504 C503 1.408 . S
C504 H531 0.930 . S
C505 O518 1.281 1_655 S
C505 O519 1.254 . S
C506 O520 1.236 . S
C506 O521 1.266 1_545 S
C507 Tb497 2.809 . S
C507 C508 1.514 . S
C507 O522 1.248 . S
C507 O523 1.266 . S
C508 C507 1.514 . S
C508 C509 1.359 . S
C508 C513 1.348 . S
C509 C508 1.359 . S
C509 C510 1.380 . S
C509 H532 0.929 . S
C510 C509 1.380 . S
C510 C511 1.347 . S
C510 H533 0.931 . S
C511 C510 1.347 . S
C511 C512 1.369 . S
C512 C511 1.369 . S
C512 C513 1.408 . S
C512 H534 0.930 . S
C513 C508 1.348 . S
C513 C512 1.408 . S
C513 H535 0.930 . S
C514 O524 1.281 . S
C514 O525 1.254 . S
C515 O526 1.236 . S
C515 O527 1.266 . S
O516 Tb496 2.484 . S
O516 C498 1.248 . S
O517 Tb496 2.440 1_655 S
O517 C498 1.266 1_655 S
O518 Tb496 2.658 . S
O518 Tb497 2.325 1_545 S
O518 C505 1.281 1_455 S
O519 Tb496 2.409 1_655 S
O519 C505 1.254 . S
O520 Tb496 2.378 . S
O520 C506 1.236 . S
O521 Tb497 2.341 . S
O521 C506 1.266 1_565 S
O522 Tb497 2.484 . S
O522 C507 1.248 . S
O523 Tb497 2.440 . S
O523 C507 1.266 . S
O524 Tb496 2.325 . S
O524 Tb497 2.658 1_545 S
O524 C514 1.281 . S
O525 Tb497 2.409 1_545 S
O525 C514 1.254 . S
O526 Tb497 2.378 1_545 S
O526 C515 1.236 . S
O527 Tb496 2.341 . S
O527 C515 1.266 . S
H528 C500 0.929 . S
H529 C501 0.931 . S
H530 C503 0.930 . S
H531 C504 0.930 . S
H532 C509 0.929 . S
H533 C510 0.931 . S
H534 C512 0.930 . S
H535 C513 0.930 . S
Tb536 C538 2.809 . S
Tb536 O556 2.484 . S
Tb536 O557 2.440 . S
Tb536 O558 2.658 . S
Tb536 O559 2.409 . S
Tb536 O560 2.378 . S
Tb536 O564 2.325 . S
Tb536 O567 2.341 . S
Tb537 C547 2.809 . S
Tb537 O558 2.325 . S
Tb537 O561 2.341 . S
Tb537 O562 2.484 . S
Tb537 O563 2.440 . S
Tb537 O564 2.658 . S
Tb537 O565 2.409 . S
Tb537 O566 2.378 . S
C538 Tb536 2.809 . S
C538 C539 1.514 . S
C538 O556 1.248 . S
C538 O557 1.266 . S
C539 C538 1.514 . S
C539 C540 1.359 . S
C539 C544 1.348 . S
C540 C539 1.359 . S
C540 C541 1.380 . S
C540 H568 0.929 . S
C541 C540 1.380 . S
C541 C542 1.347 . S
C541 H569 0.931 . S
C542 C541 1.347 . S
C542 C543 1.369 . S
C543 C542 1.369 . S
C543 C544 1.408 . S
C543 H570 0.930 . S
C544 C539 1.348 . S
C544 C543 1.408 . S
C544 H571 0.930 . S
C545 O558 1.281 . S
C545 O559 1.254 . S
C546 O560 1.236 . S
C546 O561 1.266 . S
C547 Tb537 2.809 . S
C547 C548 1.514 . S
C547 O562 1.248 . S
C547 O563 1.266 . S
C548 C547 1.514 . S
C548 C549 1.359 . S
C548 C553 1.348 . S
C549 C548 1.359 . S
C549 C550 1.380 . S
C549 H572 0.929 . S
C550 C549 1.380 . S
C550 C551 1.347 . S
C550 H573 0.931 . S
C551 C550 1.347 . S
C551 C552 1.369 . S
C552 C551 1.369 . S
C552 C553 1.408 . S
C552 H574 0.930 . S
C553 C548 1.348 . S
C553 C552 1.408 . S
C553 H575 0.930 . S
C554 O564 1.281 . S
C554 O565 1.254 . S
C555 O566 1.236 . S
C555 O567 1.266 . S
O556 Tb536 2.484 . S
O556 C538 1.248 . S
O557 Tb536 2.440 . S
O557 C538 1.266 . S
O558 Tb536 2.658 . S
O558 Tb537 2.325 . S
O558 C545 1.281 . S
O559 Tb536 2.409 . S
O559 C545 1.254 . S
O560 Tb536 2.378 . S
O560 C546 1.236 . S
O561 Tb537 2.341 . S
O561 C546 1.266 . S
O562 Tb537 2.484 . S
O562 C547 1.248 . S
O563 Tb537 2.440 . S
O563 C547 1.266 . S
O564 Tb536 2.325 . S
O564 Tb537 2.658 . S
O564 C554 1.281 . S
O565 Tb537 2.409 . S
O565 C554 1.254 . S
O566 Tb537 2.378 . S
O566 C555 1.236 . S
O567 Tb536 2.341 . S
O567 C555 1.266 . S
H568 C540 0.929 . S
H569 C541 0.931 . S
H570 C543 0.930 . S
H571 C544 0.930 . S
H572 C549 0.929 . S
H573 C550 0.931 . S
H574 C552 0.930 . S
H575 C553 0.930 . S
Tb576 C578 2.809 1_545 S
Tb576 O596 2.484 1_545 S
Tb576 O597 2.440 . S
Tb576 O598 2.658 . S
Tb576 O599 2.409 . S
Tb576 O600 2.378 . S
Tb576 O604 2.325 1_545 S
Tb576 O607 2.341 1_554 S
Tb577 C587 2.809 . S
Tb577 O598 2.325 . S
Tb577 O601 2.341 . S
Tb577 O602 2.484 . S
Tb577 O603 2.440 . S
Tb577 O604 2.658 1_545 S
Tb577 O605 2.409 1_545 S
Tb577 O606 2.378 . S
C578 Tb576 2.809 1_565 S
C578 C579 1.514 . S
C578 O596 1.248 . S
C578 O597 1.266 1_565 S
C579 C578 1.514 . S
C579 C580 1.359 . S
C579 C584 1.348 1_565 S
C580 C579 1.359 . S
C580 C581 1.380 . S
C580 H608 0.929 . S
C581 C580 1.380 . S
C581 C582 1.347 . S
C581 H609 0.931 . S
C582 C581 1.347 . S
C582 C583 1.369 . S
C583 C582 1.369 . S
C583 C584 1.408 1_565 S
C583 H610 0.930 1_565 S
C584 C579 1.348 1_545 S
C584 C583 1.408 1_545 S
C584 H611 0.930 . S
C585 O598 1.281 . S
C585 O599 1.254 . S
C586 O600 1.236 . S
C586 O601 1.266 . S
C587 Tb577 2.809 . S
C587 C588 1.514 . S
C587 O602 1.248 . S
C587 O603 1.266 . S
C588 C587 1.514 . S
C588 C589 1.359 . S
C588 C593 1.348 . S
C589 C588 1.359 . S
C589 C590 1.380 . S
C589 H612 0.929 . S
C590 C589 1.380 . S
C590 C591 1.347 . S
C590 H613 0.931 . S
C591 C590 1.347 . S
C591 C592 1.369 . S
C592 C591 1.369 . S
C592 C593 1.408 . S
C592 H614 0.930 . S
C593 C588 1.348 . S
C593 C592 1.408 . S
C593 H615 0.930 . S
C594 O604 1.281 . S
C594 O605 1.254 . S
C595 O606 1.236 1_556 S
C595 O607 1.266 . S
O596 Tb576 2.484 1_565 S
O596 C578 1.248 . S
O597 Tb576 2.440 . S
O597 C578 1.266 1_545 S
O598 Tb576 2.658 . S
O598 Tb577 2.325 . S
O598 C585 1.281 . S
O599 Tb576 2.409 . S
O599 C585 1.254 . S
O600 Tb576 2.378 . S
O600 C586 1.236 . S
O601 Tb577 2.341 . S
O601 C586 1.266 . S
O602 Tb577 2.484 . S
O602 C587 1.248 . S
O603 Tb577 2.440 . S
O603 C587 1.266 . S
O604 Tb576 2.325 1_565 S
O604 Tb577 2.658 1_565 S
O604 C594 1.281 . S
O605 Tb577 2.409 1_565 S
O605 C594 1.254 . S
O606 Tb577 2.378 . S
O606 C595 1.236 1_554 S
O607 Tb576 2.341 1_556 S
O607 C595 1.266 . S
H608 C580 0.929 . S
H609 C581 0.931 . S
H610 C583 0.930 1_545 S
H611 C584 0.930 . S
H612 C589 0.929 . S
H613 C590 0.931 . S
H614 C592 0.930 . S
H615 C593 0.930 . S
Tb616 C618 2.809 . S
Tb616 O636 2.484 . S
Tb616 O637 2.440 . S
Tb616 O638 2.658 . S
Tb616 O639 2.409 . S
Tb616 O640 2.378 . S
Tb616 O644 2.325 . S
Tb616 O647 2.341 . S
Tb617 C627 2.809 . S
Tb617 O638 2.325 . S
Tb617 O641 2.341 . S
Tb617 O642 2.484 . S
Tb617 O643 2.440 . S
Tb617 O644 2.658 . S
Tb617 O645 2.409 . S
Tb617 O646 2.378 . S
C618 Tb616 2.809 . S
C618 C619 1.514 . S
C618 O636 1.248 . S
C618 O637 1.266 . S
C619 C618 1.514 . S
C619 C620 1.359 . S
C619 C624 1.348 . S
C620 C619 1.359 . S
C620 C621 1.380 . S
C620 H648 0.929 . S
C621 C620 1.380 . S
C621 C622 1.347 . S
C621 H649 0.931 . S
C622 C621 1.347 . S
C622 C623 1.369 . S
C623 C622 1.369 . S
C623 C624 1.408 . S
C623 H650 0.930 . S
C624 C619 1.348 . S
C624 C623 1.408 . S
C624 H651 0.930 . S
C625 O638 1.281 . S
C625 O639 1.254 . S
C626 O640 1.236 . S
C626 O641 1.266 . S
C627 Tb617 2.809 . S
C627 C628 1.514 . S
C627 O642 1.248 . S
C627 O643 1.266 . S
C628 C627 1.514 . S
C628 C629 1.359 . S
C628 C633 1.348 . S
C629 C628 1.359 . S
C629 C630 1.380 . S
C629 H652 0.929 . S
C630 C629 1.380 . S
C630 C631 1.347 . S
C630 H653 0.931 . S
C631 C630 1.347 . S
C631 C632 1.369 . S
C632 C631 1.369 . S
C632 C633 1.408 . S
C632 H654 0.930 . S
C633 C628 1.348 . S
C633 C632 1.408 . S
C633 H655 0.930 . S
C634 O644 1.281 . S
C634 O645 1.254 . S
C635 O646 1.236 . S
C635 O647 1.266 . S
O636 Tb616 2.484 . S
O636 C618 1.248 . S
O637 Tb616 2.440 . S
O637 C618 1.266 . S
O638 Tb616 2.658 . S
O638 Tb617 2.325 . S
O638 C625 1.281 . S
O639 Tb616 2.409 . S
O639 C625 1.254 . S
O640 Tb616 2.378 . S
O640 C626 1.236 . S
O641 Tb617 2.341 . S
O641 C626 1.266 . S
O642 Tb617 2.484 . S
O642 C627 1.248 . S
O643 Tb617 2.440 . S
O643 C627 1.266 . S
O644 Tb616 2.325 . S
O644 Tb617 2.658 . S
O644 C634 1.281 . S
O645 Tb617 2.409 . S
O645 C634 1.254 . S
O646 Tb617 2.378 . S
O646 C635 1.236 . S
O647 Tb616 2.341 . S
O647 C635 1.266 . S
H648 C620 0.929 . S
H649 C621 0.931 . S
H650 C623 0.930 . S
H651 C624 0.930 . S
H652 C629 0.929 . S
H653 C630 0.931 . S
H654 C632 0.930 . S
H655 C633 0.930 . S
Tb656 C658 2.809 . S
Tb656 O676 2.484 . S
Tb656 O677 2.440 . S
Tb656 O678 2.658 . S
Tb656 O679 2.409 . S
Tb656 O680 2.378 1_554 S
Tb656 O684 2.325 . S
Tb656 O687 2.341 . S
Tb657 C667 2.809 . S
Tb657 O678 2.325 . S
Tb657 O681 2.341 1_554 S
Tb657 O682 2.484 . S
Tb657 O683 2.440 . S
Tb657 O684 2.658 . S
Tb657 O685 2.409 . S
Tb657 O686 2.378 . S
C658 Tb656 2.809 . S
C658 C659 1.514 1_554 S
C658 O676 1.248 . S
C658 O677 1.266 . S
C659 C658 1.514 1_556 S
C659 C660 1.359 . S
C659 C664 1.348 . S
C660 C659 1.359 . S
C660 C661 1.380 . S
C660 H688 0.929 . S
C661 C660 1.380 . S
C661 C662 1.347 . S
C661 H689 0.931 . S
C662 C661 1.347 . S
C662 C663 1.369 . S
C663 C662 1.369 . S
C663 C664 1.408 . S
C663 H690 0.930 . S
C664 C659 1.348 . S
C664 C663 1.408 . S
C664 H691 0.930 . S
C665 O678 1.281 . S
C665 O679 1.254 . S
C666 O680 1.236 . S
C666 O681 1.266 . S
C667 Tb657 2.809 . S
C667 C668 1.514 . S
C667 O682 1.248 . S
C667 O683 1.266 . S
C668 C667 1.514 . S
C668 C669 1.359 . S
C668 C673 1.348 . S
C669 C668 1.359 . S
C669 C670 1.380 . S
C669 H692 0.929 . S
C670 C669 1.380 . S
C670 C671 1.347 . S
C670 H693 0.931 . S
C671 C670 1.347 . S
C671 C672 1.369 . S
C672 C671 1.369 . S
C672 C673 1.408 . S
C672 H694 0.930 . S
C673 C668 1.348 . S
C673 C672 1.408 . S
C673 H695 0.930 . S
C674 O684 1.281 . S
C674 O685 1.254 . S
C675 O686 1.236 . S
C675 O687 1.266 . S
O676 Tb656 2.484 . S
O676 C658 1.248 . S
O677 Tb656 2.440 . S
O677 C658 1.266 . S
O678 Tb656 2.658 . S
O678 Tb657 2.325 . S
O678 C665 1.281 . S
O679 Tb656 2.409 . S
O679 C665 1.254 . S
O680 Tb656 2.378 1_556 S
O680 C666 1.236 . S
O681 Tb657 2.341 1_556 S
O681 C666 1.266 . S
O682 Tb657 2.484 . S
O682 C667 1.248 . S
O683 Tb657 2.440 . S
O683 C667 1.266 . S
O684 Tb656 2.325 . S
O684 Tb657 2.658 . S
O684 C674 1.281 . S
O685 Tb657 2.409 . S
O685 C674 1.254 . S
O686 Tb657 2.378 . S
O686 C675 1.236 . S
O687 Tb656 2.341 . S
O687 C675 1.266 . S
H688 C660 0.929 . S
H689 C661 0.931 . S
H690 C663 0.930 . S
H691 C664 0.930 . S
H692 C669 0.929 . S
H693 C670 0.931 . S
H694 C672 0.930 . S
H695 C673 0.930 . S
Tb696 C698 2.809 . S
Tb696 O716 2.484 . S
Tb696 O717 2.440 . S
Tb696 O718 2.658 . S
Tb696 O719 2.409 . S
Tb696 O720 2.378 . S
Tb696 O724 2.325 . S
Tb696 O727 2.341 . S
Tb697 C707 2.809 . S
Tb697 O718 2.325 . S
Tb697 O721 2.341 . S
Tb697 O722 2.484 . S
Tb697 O723 2.440 . S
Tb697 O724 2.658 . S
Tb697 O725 2.409 . S
Tb697 O726 2.378 . S
C698 Tb696 2.809 . S
C698 C699 1.514 . S
C698 O716 1.248 . S
C698 O717 1.266 . S
C699 C698 1.514 . S
C699 C700 1.359 . S
C699 C704 1.348 . S
C700 C699 1.359 . S
C700 C701 1.380 . S
C700 H728 0.929 . S
C701 C700 1.380 . S
C701 C702 1.347 . S
C701 H729 0.931 . S
C702 C701 1.347 . S
C702 C703 1.369 . S
C703 C702 1.369 . S
C703 C704 1.408 . S
C703 H730 0.930 . S
C704 C699 1.348 . S
C704 C703 1.408 . S
C704 H731 0.930 . S
C705 O718 1.281 . S
C705 O719 1.254 . S
C706 O720 1.236 . S
C706 O721 1.266 . S
C707 Tb697 2.809 . S
C707 C708 1.514 . S
C707 O722 1.248 . S
C707 O723 1.266 . S
C708 C707 1.514 . S
C708 C709 1.359 . S
C708 C713 1.348 . S
C709 C708 1.359 . S
C709 C710 1.380 . S
C709 H732 0.929 . S
C710 C709 1.380 . S
C710 C711 1.347 . S
C710 H733 0.931 . S
C711 C710 1.347 . S
C711 C712 1.369 . S
C712 C711 1.369 . S
C712 C713 1.408 . S
C712 H734 0.930 . S
C713 C708 1.348 . S
C713 C712 1.408 . S
C713 H735 0.930 . S
C714 O724 1.281 . S
C714 O725 1.254 . S
C715 O726 1.236 . S
C715 O727 1.266 . S
O716 Tb696 2.484 . S
O716 C698 1.248 . S
O717 Tb696 2.440 . S
O717 C698 1.266 . S
O718 Tb696 2.658 . S
O718 Tb697 2.325 . S
O718 C705 1.281 . S
O719 Tb696 2.409 . S
O719 C705 1.254 . S
O720 Tb696 2.378 . S
O720 C706 1.236 . S
O721 Tb697 2.341 . S
O721 C706 1.266 . S
O722 Tb697 2.484 . S
O722 C707 1.248 . S
O723 Tb697 2.440 . S
O723 C707 1.266 . S
O724 Tb696 2.325 . S
O724 Tb697 2.658 . S
O724 C714 1.281 . S
O725 Tb697 2.409 . S
O725 C714 1.254 . S
O726 Tb697 2.378 . S
O726 C715 1.236 . S
O727 Tb696 2.341 . S
O727 C715 1.266 . S
H728 C700 0.929 . S
H729 C701 0.931 . S
H730 C703 0.930 . S
H731 C704 0.930 . S
H732 C709 0.929 . S
H733 C710 0.931 . S
H734 C712 0.930 . S
H735 C713 0.930 . S
Tb736 C738 2.809 1_455 S
Tb736 O756 2.484 1_455 S
Tb736 O757 2.440 1_455 S
Tb736 O758 2.658 . S
Tb736 O759 2.409 . S
Tb736 O760 2.378 . S
Tb736 O764 2.325 . S
Tb736 O767 2.341 . S
Tb737 C747 2.809 . S
Tb737 O758 2.325 . S
Tb737 O761 2.341 . S
Tb737 O762 2.484 . S
Tb737 O763 2.440 . S
Tb737 O764 2.658 . S
Tb737 O765 2.409 . S
Tb737 O766 2.378 . S
C738 Tb736 2.809 1_655 S
C738 C739 1.514 . S
C738 O756 1.248 . S
C738 O757 1.266 . S
C739 C738 1.514 . S
C739 C740 1.359 . S
C739 C744 1.348 . S
C740 C739 1.359 . S
C740 C741 1.380 . S
C740 H768 0.929 . S
C741 C740 1.380 . S
C741 C742 1.347 . S
C741 H769 0.931 . S
C742 C741 1.347 . S
C742 C743 1.369 . S
C743 C742 1.369 . S
C743 C744 1.408 . S
C743 H770 0.930 . S
C744 C739 1.348 . S
C744 C743 1.408 . S
C744 H771 0.930 . S
C745 O758 1.281 . S
C745 O759 1.254 . S
C746 O760 1.236 . S
C746 O761 1.266 . S
C747 Tb737 2.809 . S
C747 C748 1.514 . S
C747 O762 1.248 . S
C747 O763 1.266 . S
C748 C747 1.514 . S
C748 C749 1.359 . S
C748 C753 1.348 . S
C749 C748 1.359 . S
C749 C750 1.380 . S
C749 H772 0.929 . S
C750 C749 1.380 . S
C750 C751 1.347 . S
C750 H773 0.931 . S
C751 C750 1.347 . S
C751 C752 1.369 . S
C752 C751 1.369 . S
C752 C753 1.408 . S
C752 H774 0.930 . S
C753 C748 1.348 . S
C753 C752 1.408 . S
C753 H775 0.930 . S
C754 O764 1.281 . S
C754 O765 1.254 . S
C755 O766 1.236 . S
C755 O767 1.266 . S
O756 Tb736 2.484 1_655 S
O756 C738 1.248 . S
O757 Tb736 2.440 1_655 S
O757 C738 1.266 . S
O758 Tb736 2.658 . S
O758 Tb737 2.325 . S
O758 C745 1.281 . S
O759 Tb736 2.409 . S
O759 C745 1.254 . S
O760 Tb736 2.378 . S
O760 C746 1.236 . S
O761 Tb737 2.341 . S
O761 C746 1.266 . S
O762 Tb737 2.484 . S
O762 C747 1.248 . S
O763 Tb737 2.440 . S
O763 C747 1.266 . S
O764 Tb736 2.325 . S
O764 Tb737 2.658 . S
O764 C754 1.281 . S
O765 Tb737 2.409 . S
O765 C754 1.254 . S
O766 Tb737 2.378 . S
O766 C755 1.236 . S
O767 Tb736 2.341 . S
O767 C755 1.266 . S
H768 C740 0.929 . S
H769 C741 0.931 . S
H770 C743 0.930 . S
H771 C744 0.930 . S
H772 C749 0.929 . S
H773 C750 0.931 . S
H774 C752 0.930 . S
H775 C753 0.930 . S
Tb776 C778 2.809 . S
Tb776 O796 2.484 . S
Tb776 O797 2.440 . S
Tb776 O798 2.658 . S
Tb776 O799 2.409 . S
Tb776 O800 2.378 . S
Tb776 O804 2.325 . S
Tb776 O807 2.341 . S
Tb777 C787 2.809 . S
Tb777 O798 2.325 . S
Tb777 O801 2.341 . S
Tb777 O802 2.484 . S
Tb777 O803 2.440 . S
Tb777 O804 2.658 . S
Tb777 O805 2.409 . S
Tb777 O806 2.378 . S
C778 Tb776 2.809 . S
C778 C779 1.514 . S
C778 O796 1.248 . S
C778 O797 1.266 . S
C779 C778 1.514 . S
C779 C780 1.359 . S
C779 C784 1.348 . S
C780 C779 1.359 . S
C780 C781 1.380 . S
C780 H808 0.929 . S
C781 C780 1.380 . S
C781 C782 1.347 . S
C781 H809 0.931 . S
C782 C781 1.347 . S
C782 C783 1.369 . S
C783 C782 1.369 . S
C783 C784 1.408 . S
C783 H810 0.930 . S
C784 C779 1.348 . S
C784 C783 1.408 . S
C784 H811 0.930 . S
C785 O798 1.281 . S
C785 O799 1.254 . S
C786 O800 1.236 . S
C786 O801 1.266 . S
C787 Tb777 2.809 . S
C787 C788 1.514 . S
C787 O802 1.248 . S
C787 O803 1.266 . S
C788 C787 1.514 . S
C788 C789 1.359 . S
C788 C793 1.348 . S
C789 C788 1.359 . S
C789 C790 1.380 . S
C789 H812 0.929 . S
C790 C789 1.380 . S
C790 C791 1.347 . S
C790 H813 0.931 . S
C791 C790 1.347 . S
C791 C792 1.369 . S
C792 C791 1.369 . S
C792 C793 1.408 . S
C792 H814 0.930 . S
C793 C788 1.348 . S
C793 C792 1.408 . S
C793 H815 0.930 . S
C794 O804 1.281 . S
C794 O805 1.254 . S
C795 O806 1.236 . S
C795 O807 1.266 . S
O796 Tb776 2.484 . S
O796 C778 1.248 . S
O797 Tb776 2.440 . S
O797 C778 1.266 . S
O798 Tb776 2.658 . S
O798 Tb777 2.325 . S
O798 C785 1.281 . S
O799 Tb776 2.409 . S
O799 C785 1.254 . S
O800 Tb776 2.378 . S
O800 C786 1.236 . S
O801 Tb777 2.341 . S
O801 C786 1.266 . S
O802 Tb777 2.484 . S
O802 C787 1.248 . S
O803 Tb777 2.440 . S
O803 C787 1.266 . S
O804 Tb776 2.325 . S
O804 Tb777 2.658 . S
O804 C794 1.281 . S
O805 Tb777 2.409 . S
O805 C794 1.254 . S
O806 Tb777 2.378 . S
O806 C795 1.236 . S
O807 Tb776 2.341 . S
O807 C795 1.266 . S
H808 C780 0.929 . S
H809 C781 0.931 . S
H810 C783 0.930 . S
H811 C784 0.930 . S
H812 C789 0.929 . S
H813 C790 0.931 . S
H814 C792 0.930 . S
H815 C793 0.930 . S
Tb816 C818 2.809 . S
Tb816 O836 2.484 . S
Tb816 O837 2.440 . S
Tb816 O838 2.658 . S
Tb816 O839 2.409 . S
Tb816 O840 2.378 . S
Tb816 O844 2.325 . S
Tb816 O847 2.341 . S
Tb817 C827 2.809 . S
Tb817 O838 2.325 . S
Tb817 O841 2.341 . S
Tb817 O842 2.484 . S
Tb817 O843 2.440 . S
Tb817 O844 2.658 . S
Tb817 O845 2.409 . S
Tb817 O846 2.378 . S
C818 Tb816 2.809 . S
C818 C819 1.514 . S
C818 O836 1.248 . S
C818 O837 1.266 . S
C819 C818 1.514 . S
C819 C820 1.359 . S
C819 C824 1.348 . S
C820 C819 1.359 . S
C820 C821 1.380 . S
C820 H848 0.929 . S
C821 C820 1.380 . S
C821 C822 1.347 . S
C821 H849 0.931 . S
C822 C821 1.347 . S
C822 C823 1.369 . S
C823 C822 1.369 . S
C823 C824 1.408 . S
C823 H850 0.930 . S
C824 C819 1.348 . S
C824 C823 1.408 . S
C824 H851 0.930 . S
C825 O838 1.281 . S
C825 O839 1.254 . S
C826 O840 1.236 . S
C826 O841 1.266 . S
C827 Tb817 2.809 . S
C827 C828 1.514 . S
C827 O842 1.248 . S
C827 O843 1.266 . S
C828 C827 1.514 . S
C828 C829 1.359 . S
C828 C833 1.348 . S
C829 C828 1.359 . S
C829 C830 1.380 . S
C829 H852 0.929 . S
C830 C829 1.380 . S
C830 C831 1.347 . S
C830 H853 0.931 . S
C831 C830 1.347 . S
C831 C832 1.369 . S
C832 C831 1.369 . S
C832 C833 1.408 . S
C832 H854 0.930 . S
C833 C828 1.348 . S
C833 C832 1.408 . S
C833 H855 0.930 . S
C834 O844 1.281 . S
C834 O845 1.254 . S
C835 O846 1.236 . S
C835 O847 1.266 . S
O836 Tb816 2.484 . S
O836 C818 1.248 . S
O837 Tb816 2.440 . S
O837 C818 1.266 . S
O838 Tb816 2.658 . S
O838 Tb817 2.325 . S
O838 C825 1.281 . S
O839 Tb816 2.409 . S
O839 C825 1.254 . S
O840 Tb816 2.378 . S
O840 C826 1.236 . S
O841 Tb817 2.341 . S
O841 C826 1.266 . S
O842 Tb817 2.484 . S
O842 C827 1.248 . S
O843 Tb817 2.440 . S
O843 C827 1.266 . S
O844 Tb816 2.325 . S
O844 Tb817 2.658 . S
O844 C834 1.281 . S
O845 Tb817 2.409 . S
O845 C834 1.254 . S
O846 Tb817 2.378 . S
O846 C835 1.236 . S
O847 Tb816 2.341 . S
O847 C835 1.266 . S
H848 C820 0.929 . S
H849 C821 0.931 . S
H850 C823 0.930 . S
H851 C824 0.930 . S
H852 C829 0.929 . S
H853 C830 0.931 . S
H854 C832 0.930 . S
H855 C833 0.930 . S
Tb856 C858 2.809 . S
Tb856 O876 2.484 . S
Tb856 O877 2.440 . S
Tb856 O878 2.658 . S
Tb856 O879 2.409 . S
Tb856 O880 2.378 . S
Tb856 O884 2.325 . S
Tb856 O887 2.341 . S
Tb857 C867 2.809 . S
Tb857 O878 2.325 . S
Tb857 O881 2.341 . S
Tb857 O882 2.484 . S
Tb857 O883 2.440 . S
Tb857 O884 2.658 . S
Tb857 O885 2.409 . S
Tb857 O886 2.378 . S
C858 Tb856 2.809 . S
C858 C859 1.514 . S
C858 O876 1.248 . S
C858 O877 1.266 . S
C859 C858 1.514 . S
C859 C860 1.359 . S
C859 C864 1.348 . S
C860 C859 1.359 . S
C860 C861 1.380 . S
C860 H888 0.929 . S
C861 C860 1.380 . S
C861 C862 1.347 . S
C861 H889 0.931 . S
C862 C861 1.347 . S
C862 C863 1.369 . S
C863 C862 1.369 . S
C863 C864 1.408 . S
C863 H890 0.930 . S
C864 C859 1.348 . S
C864 C863 1.408 . S
C864 H891 0.930 . S
C865 O878 1.281 . S
C865 O879 1.254 . S
C866 O880 1.236 . S
C866 O881 1.266 . S
C867 Tb857 2.809 . S
C867 C868 1.514 . S
C867 O882 1.248 . S
C867 O883 1.266 . S
C868 C867 1.514 . S
C868 C869 1.359 . S
C868 C873 1.348 . S
C869 C868 1.359 . S
C869 C870 1.380 . S
C869 H892 0.929 . S
C870 C869 1.380 . S
C870 C871 1.347 . S
C870 H893 0.931 . S
C871 C870 1.347 . S
C871 C872 1.369 . S
C872 C871 1.369 . S
C872 C873 1.408 . S
C872 H894 0.930 . S
C873 C868 1.348 . S
C873 C872 1.408 . S
C873 H895 0.930 . S
C874 O884 1.281 . S
C874 O885 1.254 . S
C875 O886 1.236 . S
C875 O887 1.266 . S
O876 Tb856 2.484 . S
O876 C858 1.248 . S
O877 Tb856 2.440 . S
O877 C858 1.266 . S
O878 Tb856 2.658 . S
O878 Tb857 2.325 . S
O878 C865 1.281 . S
O879 Tb856 2.409 . S
O879 C865 1.254 . S
O880 Tb856 2.378 . S
O880 C866 1.236 . S
O881 Tb857 2.341 . S
O881 C866 1.266 . S
O882 Tb857 2.484 . S
O882 C867 1.248 . S
O883 Tb857 2.440 . S
O883 C867 1.266 . S
O884 Tb856 2.325 . S
O884 Tb857 2.658 . S
O884 C874 1.281 . S
O885 Tb857 2.409 . S
O885 C874 1.254 . S
O886 Tb857 2.378 . S
O886 C875 1.236 . S
O887 Tb856 2.341 . S
O887 C875 1.266 . S
H888 C860 0.929 . S
H889 C861 0.931 . S
H890 C863 0.930 . S
H891 C864 0.930 . S
H892 C869 0.929 . S
H893 C870 0.931 . S
H894 C872 0.930 . S
H895 C873 0.930 . S
Tb896 C898 2.809 . S
Tb896 O916 2.484 . S
Tb896 O917 2.440 . S
Tb896 O918 2.658 . S
Tb896 O919 2.409 . S
Tb896 O920 2.378 . S
Tb896 O924 2.325 . S
Tb896 O927 2.341 . S
Tb897 C907 2.809 . S
Tb897 O918 2.325 . S
Tb897 O921 2.341 . S
Tb897 O922 2.484 . S
Tb897 O923 2.440 . S
Tb897 O924 2.658 . S
Tb897 O925 2.409 . S
Tb897 O926 2.378 . S
C898 Tb896 2.809 . S
C898 C899 1.514 . S
C898 O916 1.248 . S
C898 O917 1.266 . S
C899 C898 1.514 . S
C899 C900 1.359 . S
C899 C904 1.348 . S
C900 C899 1.359 . S
C900 C901 1.380 . S
C900 H928 0.929 . S
C901 C900 1.380 . S
C901 C902 1.347 . S
C901 H929 0.931 . S
C902 C901 1.347 . S
C902 C903 1.369 . S
C903 C902 1.369 . S
C903 C904 1.408 . S
C903 H930 0.930 . S
C904 C899 1.348 . S
C904 C903 1.408 . S
C904 H931 0.930 . S
C905 O918 1.281 . S
C905 O919 1.254 . S
C906 O920 1.236 . S
C906 O921 1.266 . S
C907 Tb897 2.809 . S
C907 C908 1.514 . S
C907 O922 1.248 . S
C907 O923 1.266 . S
C908 C907 1.514 . S
C908 C909 1.359 . S
C908 C913 1.348 . S
C909 C908 1.359 . S
C909 C910 1.380 . S
C909 H932 0.929 . S
C910 C909 1.380 . S
C910 C911 1.347 . S
C910 H933 0.931 . S
C911 C910 1.347 . S
C911 C912 1.369 . S
C912 C911 1.369 . S
C912 C913 1.408 . S
C912 H934 0.930 . S
C913 C908 1.348 . S
C913 C912 1.408 . S
C913 H935 0.930 . S
C914 O924 1.281 . S
C914 O925 1.254 . S
C915 O926 1.236 . S
C915 O927 1.266 . S
O916 Tb896 2.484 . S
O916 C898 1.248 . S
O917 Tb896 2.440 . S
O917 C898 1.266 . S
O918 Tb896 2.658 . S
O918 Tb897 2.325 . S
O918 C905 1.281 . S
O919 Tb896 2.409 . S
O919 C905 1.254 . S
O920 Tb896 2.378 . S
O920 C906 1.236 . S
O921 Tb897 2.341 . S
O921 C906 1.266 . S
O922 Tb897 2.484 . S
O922 C907 1.248 . S
O923 Tb897 2.440 . S
O923 C907 1.266 . S
O924 Tb896 2.325 . S
O924 Tb897 2.658 . S
O924 C914 1.281 . S
O925 Tb897 2.409 . S
O925 C914 1.254 . S
O926 Tb897 2.378 . S
O926 C915 1.236 . S
O927 Tb896 2.341 . S
O927 C915 1.266 . S
H928 C900 0.929 . S
H929 C901 0.931 . S
H930 C903 0.930 . S
H931 C904 0.930 . S
H932 C909 0.929 . S
H933 C910 0.931 . S
H934 C912 0.930 . S
H935 C913 0.930 . S
Tb936 C938 2.809 . S
Tb936 O956 2.484 . S
Tb936 O957 2.440 1_554 S
Tb936 O958 2.658 . S
Tb936 O959 2.409 1_554 S
Tb936 O960 2.378 . S
Tb936 O964 2.325 . S
Tb936 O967 2.341 . S
Tb937 C947 2.809 1_455 S
Tb937 O958 2.325 . S
Tb937 O961 2.341 . S
Tb937 O962 2.484 1_455 S
Tb937 O963 2.440 1_455 S
Tb937 O964 2.658 . S
Tb937 O965 2.409 . S
Tb937 O966 2.378 . S
C938 Tb936 2.809 . S
C938 C939 1.514 . S
C938 O956 1.248 . S
C938 O957 1.266 1_554 S
C939 C938 1.514 . S
C939 C940 1.359 . S
C939 C944 1.348 1_554 S
C940 C939 1.359 . S
C940 C941 1.380 . S
C940 H968 0.929 . S
C941 C940 1.380 . S
C941 C942 1.347 1_554 S
C941 H969 0.931 . S
C942 C941 1.347 1_556 S
C942 C943 1.369 . S
C943 C942 1.369 . S
C943 C944 1.408 . S
C943 H970 0.930 . S
C944 C939 1.348 1_556 S
C944 C943 1.408 . S
C944 H971 0.930 . S
C945 O958 1.281 1_556 S
C945 O959 1.254 . S
C946 O960 1.236 . S
C946 O961 1.266 . S
C947 Tb937 2.809 1_655 S
C947 C948 1.514 . S
C947 O962 1.248 . S
C947 O963 1.266 . S
C948 C947 1.514 . S
C948 C949 1.359 . S
C948 C953 1.348 . S
C949 C948 1.359 . S
C949 C950 1.380 . S
C949 H972 0.929 . S
C950 C949 1.380 . S
C950 C951 1.347 . S
C950 H973 0.931 . S
C951 C950 1.347 . S
C951 C952 1.369 . S
C952 C951 1.369 . S
C952 C953 1.408 . S
C952 H974 0.930 . S
C953 C948 1.348 . S
C953 C952 1.408 . S
C953 H975 0.930 . S
C954 O964 1.281 . S
C954 O965 1.254 . S
C955 O966 1.236 . S
C955 O967 1.266 . S
O956 Tb936 2.484 . S
O956 C938 1.248 . S
O957 Tb936 2.440 1_556 S
O957 C938 1.266 1_556 S
O958 Tb936 2.658 . S
O958 Tb937 2.325 . S
O958 C945 1.281 1_554 S
O959 Tb936 2.409 1_556 S
O959 C945 1.254 . S
O960 Tb936 2.378 . S
O960 C946 1.236 . S
O961 Tb937 2.341 . S
O961 C946 1.266 . S
O962 Tb937 2.484 1_655 S
O962 C947 1.248 . S
O963 Tb937 2.440 1_655 S
O963 C947 1.266 . S
O964 Tb936 2.325 . S
O964 Tb937 2.658 . S
O964 C954 1.281 . S
O965 Tb937 2.409 . S
O965 C954 1.254 . S
O966 Tb937 2.378 . S
O966 C955 1.236 . S
O967 Tb936 2.341 . S
O967 C955 1.266 . S
H968 C940 0.929 . S
H969 C941 0.931 . S
H970 C943 0.930 . S
H971 C944 0.930 . S
H972 C949 0.929 . S
H973 C950 0.931 . S
H974 C952 0.930 . S
H975 C953 0.930 . S
H976 C994 0.951 . S
H977 C996 0.951 . S
H978 C998 0.950 . S
H979 C999 0.950 . S
H980 C1001 0.983 . S
H981 C1004 0.950 . S
H982 C1005 0.950 . S
H983 C1007 0.950 . S
H984 C1008 0.950 . S
H985 C1009 0.951 1_655 S
H986 C1011 0.951 1_655 S
H987 C1013 0.974 . S
H988 C1014 0.950 . S
H989 C1016 0.950 . S
H990 C1019 0.950 . S
H991 C1020 0.950 . S
H992 C1022 0.950 . S
H993 C1023 0.950 . S
C994 H976 0.951 . S
C994 C995 1.366 . S
C994 C996 1.388 . S
C995 C994 1.366 . S
C995 C999 1.385 1_455 S
C996 H977 0.951 . S
C996 C994 1.388 . S
C996 C997 1.366 . S
C997 C996 1.366 . S
C997 C998 1.414 1_455 S
C997 C1000 1.499 . S
C998 H978 0.950 . S
C998 C997 1.414 1_655 S
C998 C999 1.374 . S
C999 H979 0.950 . S
C999 C995 1.385 1_655 S
C999 C998 1.374 . S
C1000 C997 1.499 . S
C1000 C1001 1.373 . S
C1000 C1002 1.389 . S
C1001 H980 0.983 . S
C1001 C1000 1.373 . S
C1001 C1017 1.377 . S
C1002 C1000 1.389 . S
C1002 C1003 1.524 . S
C1002 C1016 1.377 . S
C1003 C1002 1.524 . S
C1003 C1004 1.397 . S
C1003 C1008 1.363 . S
C1004 H981 0.950 . S
C1004 C1003 1.397 . S
C1004 C1005 1.334 . S
C1005 H982 0.950 . S
C1005 C1004 1.334 . S
C1005 C1006 1.287 . S
C1006 C1005 1.287 . S
C1006 C1007 1.524 . S
C1006 H1025 0.913 . S
C1007 H983 0.950 . S
C1007 C1006 1.524 . S
C1007 C1008 1.415 . S
C1008 H984 0.950 . S
C1008 C1003 1.363 . S
C1008 C1007 1.415 . S
C1009 H985 0.951 1_455 S
C1009 C1010 1.366 . S
C1009 C1011 1.388 1_554 S
C1010 C1009 1.366 . S
C1010 C1014 1.385 . S
C1011 H986 0.951 1_455 S
C1011 C1009 1.388 1_556 S
C1011 C1012 1.366 . S
C1012 C1011 1.366 . S
C1012 C1013 1.420 . S
C1012 C1015 1.499 . S
C1013 H987 0.974 . S
C1013 C1012 1.420 . S
C1013 C1014 1.348 1_556 S
C1014 H988 0.950 . S
C1014 C1010 1.385 . S
C1014 C1013 1.348 1_554 S
C1015 C1012 1.499 . S
C1015 C1016 1.373 . S
C1015 C1017 1.389 . S
C1016 H989 0.950 . S
C1016 C1002 1.377 . S
C1016 C1015 1.373 . S
C1017 C1001 1.377 . S
C1017 C1015 1.389 . S
C1017 C1018 1.524 1_556 S
C1018 C1017 1.524 1_554 S
C1018 C1019 1.397 . S
C1018 C1023 1.363 1_455 S
C1019 H990 0.950 . S
C1019 C1018 1.397 . S
C1019 C1020 1.334 . S
C1020 H991 0.950 . S
C1020 C1019 1.334 . S
C1020 C1021 1.287 1_455 S
C1021 C1020 1.287 1_655 S
C1021 C1022 1.524 . S
C1021 H1024 0.999 . S
C1022 H992 0.950 . S
C1022 C1021 1.524 . S
C1022 C1023 1.415 . S
C1023 H993 0.950 . S
C1023 C1018 1.363 1_655 S
C1023 C1022 1.415 . S
H1024 C1021 0.999 . S
H1025 C1006 0.913 . S
H1026 C1044 0.951 . S
H1027 C1046 0.951 . S
H1028 C1048 0.950 . S
H1029 C1049 0.950 . S
H1030 C1051 0.950 . S
H1031 C1054 0.950 . S
H1032 C1055 0.950 . S
H1033 C1057 0.950 . S
H1034 C1058 0.950 . S
H1035 C1059 0.951 . S
H1036 C1061 0.951 . S
H1037 C1063 0.950 . S
H1038 C1064 0.950 . S
H1039 C1066 0.950 . S
H1040 C1069 0.950 . S
H1041 C1070 0.950 . S
H1042 C1072 0.950 . S
H1043 C1073 0.950 . S
C1044 H1026 0.951 . S
C1044 C1045 1.366 . S
C1044 C1046 1.388 . S
C1045 C1044 1.366 . S
C1045 C1049 1.385 . S
C1046 H1027 0.951 . S
C1046 C1044 1.388 . S
C1046 C1047 1.366 . S
C1047 C1046 1.366 . S
C1047 C1048 1.414 . S
C1047 C1050 1.499 . S
C1048 H1028 0.950 . S
C1048 C1047 1.414 . S
C1048 C1049 1.374 . S
C1049 H1029 0.950 . S
C1049 C1045 1.385 . S
C1049 C1048 1.374 . S
C1050 C1047 1.499 . S
C1050 C1051 1.373 . S
C1050 C1052 1.389 . S
C1051 H1030 0.950 . S
C1051 C1050 1.373 . S
C1051 C1067 1.377 . S
C1052 C1050 1.389 . S
C1052 C1053 1.524 . S
C1052 C1066 1.377 . S
C1053 C1052 1.524 . S
C1053 C1054 1.397 . S
C1053 C1058 1.363 . S
C1054 H1031 0.950 . S
C1054 C1053 1.397 . S
C1054 C1055 1.334 . S
C1055 H1032 0.950 . S
C1055 C1054 1.334 . S
C1055 C1056 1.287 . S
C1056 C1055 1.287 . S
C1056 C1057 1.524 . S
C1056 H1075 0.913 . S
C1057 H1033 0.950 . S
C1057 C1056 1.524 . S
C1057 C1058 1.415 . S
C1058 H1034 0.950 . S
C1058 C1053 1.363 . S
C1058 C1057 1.415 . S
C1059 H1035 0.951 . S
C1059 C1060 1.366 . S
C1059 C1061 1.388 . S
C1060 C1059 1.366 . S
C1060 C1064 1.385 . S
C1061 H1036 0.951 . S
C1061 C1059 1.388 . S
C1061 C1062 1.366 . S
C1062 C1061 1.366 . S
C1062 C1063 1.414 . S
C1062 C1065 1.499 . S
C1063 H1037 0.950 . S
C1063 C1062 1.414 . S
C1063 C1064 1.374 . S
C1064 H1038 0.950 . S
C1064 C1060 1.385 . S
C1064 C1063 1.374 . S
C1065 C1062 1.499 . S
C1065 C1066 1.373 . S
C1065 C1067 1.389 . S
C1066 H1039 0.950 . S
C1066 C1052 1.377 . S
C1066 C1065 1.373 . S
C1067 C1051 1.377 . S
C1067 C1065 1.389 . S
C1067 C1068 1.524 . S
C1068 C1067 1.524 . S
C1068 C1069 1.397 . S
C1068 C1073 1.363 . S
C1069 H1040 0.950 . S
C1069 C1068 1.397 . S
C1069 C1070 1.334 . S
C1070 H1041 0.950 . S
C1070 C1069 1.334 . S
C1070 C1071 1.287 . S
C1071 C1070 1.287 . S
C1071 C1072 1.524 . S
C1071 H1074 0.999 . S
C1072 H1042 0.950 . S
C1072 C1071 1.524 . S
C1072 C1073 1.415 . S
C1073 H1043 0.950 . S
C1073 C1068 1.363 . S
C1073 C1072 1.415 . S
H1074 C1071 0.999 . S
H1075 C1056 0.913 . S
H1076 C1094 0.951 . S
H1077 C1096 0.951 . S
H1078 C1098 0.950 . S
H1079 C1099 0.950 . S
H1080 C1101 0.950 . S
H1081 C1104 0.950 . S
H1082 C1105 0.950 . S
H1083 C1107 0.950 . S
H1084 C1108 0.950 . S
H1085 C1109 0.951 . S
H1086 C1111 0.951 . S
H1087 C1113 0.950 . S
H1088 C1114 0.950 . S
H1089 C1116 0.950 . S
H1090 C1119 0.950 . S
H1091 C1120 0.950 . S
H1092 C1122 0.950 . S
H1093 C1123 0.950 . S
C1094 H1076 0.951 . S
C1094 C1095 1.366 . S
C1094 C1096 1.388 . S
C1095 C1094 1.366 . S
C1095 C1099 1.385 . S
C1096 H1077 0.951 . S
C1096 C1094 1.388 . S
C1096 C1097 1.366 . S
C1097 C1096 1.366 . S
C1097 C1098 1.414 . S
C1097 C1100 1.499 . S
C1098 H1078 0.950 . S
C1098 C1097 1.414 . S
C1098 C1099 1.374 . S
C1099 H1079 0.950 . S
C1099 C1095 1.385 . S
C1099 C1098 1.374 . S
C1100 C1097 1.499 . S
C1100 C1101 1.373 . S
C1100 C1102 1.389 . S
C1101 H1080 0.950 . S
C1101 C1100 1.373 . S
C1101 C1117 1.377 . S
C1102 C1100 1.389 . S
C1102 C1103 1.524 . S
C1102 C1116 1.377 . S
C1103 C1102 1.524 . S
C1103 C1104 1.397 . S
C1103 C1108 1.363 . S
C1104 H1081 0.950 . S
C1104 C1103 1.397 . S
C1104 C1105 1.334 . S
C1105 H1082 0.950 . S
C1105 C1104 1.334 . S
C1105 C1106 1.287 . S
C1106 C1105 1.287 . S
C1106 C1107 1.524 . S
C1106 H1125 0.913 . S
C1107 H1083 0.950 . S
C1107 C1106 1.524 . S
C1107 C1108 1.415 . S
C1108 H1084 0.950 . S
C1108 C1103 1.363 . S
C1108 C1107 1.415 . S
C1109 H1085 0.951 . S
C1109 C1110 1.366 . S
C1109 C1111 1.388 . S
C1110 C1109 1.366 . S
C1110 C1114 1.385 . S
C1111 H1086 0.951 . S
C1111 C1109 1.388 . S
C1111 C1112 1.366 . S
C1112 C1111 1.366 . S
C1112 C1113 1.414 . S
C1112 C1115 1.499 . S
C1113 H1087 0.950 . S
C1113 C1112 1.414 . S
C1113 C1114 1.374 . S
C1114 H1088 0.950 . S
C1114 C1110 1.385 . S
C1114 C1113 1.374 . S
C1115 C1112 1.499 . S
C1115 C1116 1.373 . S
C1115 C1117 1.389 . S
C1116 H1089 0.950 . S
C1116 C1102 1.377 . S
C1116 C1115 1.373 . S
C1117 C1101 1.377 . S
C1117 C1115 1.389 . S
C1117 C1118 1.524 . S
C1118 C1117 1.524 . S
C1118 C1119 1.397 . S
C1118 C1123 1.363 . S
C1119 H1090 0.950 . S
C1119 C1118 1.397 . S
C1119 C1120 1.334 . S
C1120 H1091 0.950 . S
C1120 C1119 1.334 . S
C1120 C1121 1.287 . S
C1121 C1120 1.287 . S
C1121 C1122 1.524 . S
C1121 H1124 0.999 . S
C1122 H1092 0.950 . S
C1122 C1121 1.524 . S
C1122 C1123 1.415 . S
C1123 H1093 0.950 . S
C1123 C1118 1.363 . S
C1123 C1122 1.415 . S
H1124 C1121 0.999 . S
H1125 C1106 0.913 . S
H1126 C1144 0.951 . S
H1127 C1146 0.951 . S
H1128 C1148 0.950 . S
H1129 C1149 0.950 . S
H1130 C1151 0.950 . S
H1131 C1154 0.950 . S
H1132 C1155 0.950 . S
H1133 C1157 0.950 . S
H1134 C1158 0.950 . S
H1135 C1159 0.951 . S
H1136 C1161 0.951 . S
H1137 C1163 0.950 . S
H1138 C1164 0.950 . S
H1139 C1166 0.950 . S
H1140 C1169 0.950 . S
H1141 C1170 0.950 . S
H1142 C1172 0.950 . S
H1143 C1173 0.950 . S
C1144 H1126 0.951 . S
C1144 C1145 1.366 . S
C1144 C1146 1.388 . S
C1145 C1144 1.366 . S
C1145 C1149 1.385 . S
C1146 H1127 0.951 . S
C1146 C1144 1.388 . S
C1146 C1147 1.366 . S
C1147 C1146 1.366 . S
C1147 C1148 1.414 . S
C1147 C1150 1.499 . S
C1148 H1128 0.950 . S
C1148 C1147 1.414 . S
C1148 C1149 1.374 . S
C1149 H1129 0.950 . S
C1149 C1145 1.385 . S
C1149 C1148 1.374 . S
C1150 C1147 1.499 . S
C1150 C1151 1.373 . S
C1150 C1152 1.389 . S
C1151 H1130 0.950 . S
C1151 C1150 1.373 . S
C1151 C1167 1.377 . S
C1152 C1150 1.389 . S
C1152 C1153 1.524 . S
C1152 C1166 1.377 . S
C1153 C1152 1.524 . S
C1153 C1154 1.397 . S
C1153 C1158 1.363 . S
C1154 H1131 0.950 . S
C1154 C1153 1.397 . S
C1154 C1155 1.334 . S
C1155 H1132 0.950 . S
C1155 C1154 1.334 . S
C1155 C1156 1.287 . S
C1156 C1155 1.287 . S
C1156 C1157 1.524 . S
C1156 H1175 0.913 . S
C1157 H1133 0.950 . S
C1157 C1156 1.524 . S
C1157 C1158 1.415 . S
C1158 H1134 0.950 . S
C1158 C1153 1.363 . S
C1158 C1157 1.415 . S
C1159 H1135 0.951 . S
C1159 C1160 1.366 . S
C1159 C1161 1.388 . S
C1160 C1159 1.366 . S
C1160 C1164 1.385 . S
C1161 H1136 0.951 . S
C1161 C1159 1.388 . S
C1161 C1162 1.366 . S
C1162 C1161 1.366 . S
C1162 C1163 1.414 . S
C1162 C1165 1.499 . S
C1163 H1137 0.950 . S
C1163 C1162 1.414 . S
C1163 C1164 1.374 . S
C1164 H1138 0.950 . S
C1164 C1160 1.385 . S
C1164 C1163 1.374 . S
C1165 C1162 1.499 . S
C1165 C1166 1.373 . S
C1165 C1167 1.389 . S
C1166 H1139 0.950 . S
C1166 C1152 1.377 . S
C1166 C1165 1.373 . S
C1167 C1151 1.377 . S
C1167 C1165 1.389 . S
C1167 C1168 1.524 . S
C1168 C1167 1.524 . S
C1168 C1169 1.397 . S
C1168 C1173 1.363 . S
C1169 H1140 0.950 . S
C1169 C1168 1.397 . S
C1169 C1170 1.334 . S
C1170 H1141 0.950 . S
C1170 C1169 1.334 . S
C1170 C1171 1.287 . S
C1171 C1170 1.287 . S
C1171 C1172 1.524 . S
C1171 H1174 0.999 . S
C1172 H1142 0.950 . S
C1172 C1171 1.524 . S
C1172 C1173 1.415 . S
C1173 H1143 0.950 . S
C1173 C1168 1.363 . S
C1173 C1172 1.415 . S
H1174 C1171 0.999 . S
H1175 C1156 0.913 . S
H1176 C1194 0.951 . S
H1177 C1196 0.951 . S
H1178 C1198 0.950 . S
H1179 C1199 0.950 . S
H1180 C1201 0.950 . S
H1181 C1204 0.950 . S
H1182 C1205 0.950 . S
H1183 C1207 0.950 . S
H1184 C1208 0.950 . S
H1185 C1209 0.951 . S
H1186 C1211 0.951 . S
H1187 C1213 0.950 . S
H1188 C1214 0.950 . S
H1189 C1216 0.950 . S
H1190 C1219 0.950 . S
H1191 C1220 0.950 . S
H1192 C1222 0.950 . S
H1193 C1223 0.950 . S
C1194 H1176 0.951 . S
C1194 C1195 1.366 . S
C1194 C1196 1.388 . S
C1195 C1194 1.366 . S
C1195 C1199 1.385 . S
C1196 H1177 0.951 . S
C1196 C1194 1.388 . S
C1196 C1197 1.366 . S
C1197 C1196 1.366 . S
C1197 C1198 1.414 . S
C1197 C1200 1.499 . S
C1198 H1178 0.950 . S
C1198 C1197 1.414 . S
C1198 C1199 1.374 . S
C1199 H1179 0.950 . S
C1199 C1195 1.385 . S
C1199 C1198 1.374 . S
C1200 C1197 1.499 . S
C1200 C1201 1.373 . S
C1200 C1202 1.389 . S
C1201 H1180 0.950 . S
C1201 C1200 1.373 . S
C1201 C1217 1.377 . S
C1202 C1200 1.389 . S
C1202 C1203 1.524 . S
C1202 C1216 1.377 . S
C1203 C1202 1.524 . S
C1203 C1204 1.397 . S
C1203 C1208 1.363 . S
C1204 H1181 0.950 . S
C1204 C1203 1.397 . S
C1204 C1205 1.334 . S
C1205 H1182 0.950 . S
C1205 C1204 1.334 . S
C1205 C1206 1.287 . S
C1206 C1205 1.287 . S
C1206 C1207 1.524 . S
C1206 H1225 0.913 . S
C1207 H1183 0.950 . S
C1207 C1206 1.524 . S
C1207 C1208 1.415 . S
C1208 H1184 0.950 . S
C1208 C1203 1.363 . S
C1208 C1207 1.415 . S
C1209 H1185 0.951 . S
C1209 C1210 1.366 . S
C1209 C1211 1.388 . S
C1210 C1209 1.366 . S
C1210 C1214 1.385 . S
C1211 H1186 0.951 . S
C1211 C1209 1.388 . S
C1211 C1212 1.366 . S
C1212 C1211 1.366 . S
C1212 C1213 1.414 . S
C1212 C1215 1.499 . S
C1213 H1187 0.950 . S
C1213 C1212 1.414 . S
C1213 C1214 1.374 . S
C1214 H1188 0.950 . S
C1214 C1210 1.385 . S
C1214 C1213 1.374 . S
C1215 C1212 1.499 . S
C1215 C1216 1.373 . S
C1215 C1217 1.389 . S
C1216 H1189 0.950 . S
C1216 C1202 1.377 . S
C1216 C1215 1.373 . S
C1217 C1201 1.377 . S
C1217 C1215 1.389 . S
C1217 C1218 1.524 . S
C1218 C1217 1.524 . S
C1218 C1219 1.397 . S
C1218 C1223 1.363 . S
C1219 H1190 0.950 . S
C1219 C1218 1.397 . S
C1219 C1220 1.334 . S
C1220 H1191 0.950 . S
C1220 C1219 1.334 . S
C1220 C1221 1.287 . S
C1221 C1220 1.287 . S
C1221 C1222 1.524 . S
C1221 H1224 0.999 . S
C1222 H1192 0.950 . S
C1222 C1221 1.524 . S
C1222 C1223 1.415 . S
C1223 H1193 0.950 . S
C1223 C1218 1.363 . S
C1223 C1222 1.415 . S
H1224 C1221 0.999 . S
H1225 C1206 0.913 . S
H1226 C1244 0.951 . S
H1227 C1246 0.951 . S
H1228 C1248 0.950 . S
H1229 C1249 0.950 . S
H1230 C1251 0.950 . S
H1231 C1254 0.950 . S
H1232 C1255 0.950 . S
H1233 C1257 0.950 . S
H1234 C1258 0.950 . S
H1235 C1259 0.951 . S
H1236 C1261 0.951 . S
H1237 C1263 0.950 . S
H1238 C1264 0.950 . S
H1239 C1266 0.950 . S
H1240 C1269 0.950 . S
H1241 C1270 0.950 . S
H1242 C1272 0.950 . S
H1243 C1273 0.950 . S
C1244 H1226 0.951 . S
C1244 C1245 1.366 . S
C1244 C1246 1.388 . S
C1245 C1244 1.366 . S
C1245 C1249 1.385 . S
C1246 H1227 0.951 . S
C1246 C1244 1.388 . S
C1246 C1247 1.366 . S
C1247 C1246 1.366 . S
C1247 C1248 1.414 . S
C1247 C1250 1.499 . S
C1248 H1228 0.950 . S
C1248 C1247 1.414 . S
C1248 C1249 1.374 . S
C1249 H1229 0.950 . S
C1249 C1245 1.385 . S
C1249 C1248 1.374 . S
C1250 C1247 1.499 . S
C1250 C1251 1.373 . S
C1250 C1252 1.389 . S
C1251 H1230 0.950 . S
C1251 C1250 1.373 . S
C1251 C1267 1.377 . S
C1252 C1250 1.389 . S
C1252 C1253 1.524 . S
C1252 C1266 1.377 . S
C1253 C1252 1.524 . S
C1253 C1254 1.397 . S
C1253 C1258 1.363 . S
C1254 H1231 0.950 . S
C1254 C1253 1.397 . S
C1254 C1255 1.334 . S
C1255 H1232 0.950 . S
C1255 C1254 1.334 . S
C1255 C1256 1.287 . S
C1256 C1255 1.287 . S
C1256 C1257 1.524 . S
C1256 H1275 0.913 . S
C1257 H1233 0.950 . S
C1257 C1256 1.524 . S
C1257 C1258 1.415 . S
C1258 H1234 0.950 . S
C1258 C1253 1.363 . S
C1258 C1257 1.415 . S
C1259 H1235 0.951 . S
C1259 C1260 1.366 . S
C1259 C1261 1.388 . S
C1260 C1259 1.366 . S
C1260 C1264 1.385 . S
C1261 H1236 0.951 . S
C1261 C1259 1.388 . S
C1261 C1262 1.366 . S
C1262 C1261 1.366 . S
C1262 C1263 1.414 . S
C1262 C1265 1.499 . S
C1263 H1237 0.950 . S
C1263 C1262 1.414 . S
C1263 C1264 1.374 . S
C1264 H1238 0.950 . S
C1264 C1260 1.385 . S
C1264 C1263 1.374 . S
C1265 C1262 1.499 . S
C1265 C1266 1.373 . S
C1265 C1267 1.389 . S
C1266 H1239 0.950 . S
C1266 C1252 1.377 . S
C1266 C1265 1.373 . S
C1267 C1251 1.377 . S
C1267 C1265 1.389 . S
C1267 C1268 1.524 . S
C1268 C1267 1.524 . S
C1268 C1269 1.397 . S
C1268 C1273 1.363 . S
C1269 H1240 0.950 . S
C1269 C1268 1.397 . S
C1269 C1270 1.334 . S
C1270 H1241 0.950 . S
C1270 C1269 1.334 . S
C1270 C1271 1.287 . S
C1271 C1270 1.287 . S
C1271 C1272 1.524 . S
C1271 H1274 0.999 . S
C1272 H1242 0.950 . S
C1272 C1271 1.524 . S
C1272 C1273 1.415 . S
C1273 H1243 0.950 . S
C1273 C1268 1.363 . S
C1273 C1272 1.415 . S
H1274 C1271 0.999 . S
H1275 C1256 0.913 . S
H1276 C1294 0.951 . S
H1277 C1296 0.951 . S
H1278 C1298 0.950 . S
H1279 C1299 0.950 . S
H1280 C1301 0.950 . S
H1281 C1304 0.950 . S
H1282 C1305 0.950 . S
H1283 C1307 0.950 . S
H1284 C1308 0.950 . S
H1285 C1309 0.951 . S
H1286 C1311 0.951 . S
H1287 C1313 0.950 . S
H1288 C1314 0.950 . S
H1289 C1316 0.950 . S
H1290 C1319 0.950 . S
H1291 C1320 0.950 . S
H1292 C1322 0.950 . S
H1293 C1323 0.950 . S
C1294 H1276 0.951 . S
C1294 C1295 1.366 . S
C1294 C1296 1.388 . S
C1295 C1294 1.366 . S
C1295 C1299 1.385 . S
C1296 H1277 0.951 . S
C1296 C1294 1.388 . S
C1296 C1297 1.366 . S
C1297 C1296 1.366 . S
C1297 C1298 1.414 . S
C1297 C1300 1.499 . S
C1298 H1278 0.950 . S
C1298 C1297 1.414 . S
C1298 C1299 1.374 . S
C1299 H1279 0.950 . S
C1299 C1295 1.385 . S
C1299 C1298 1.374 . S
C1300 C1297 1.499 . S
C1300 C1301 1.373 . S
C1300 C1302 1.389 . S
C1301 H1280 0.950 . S
C1301 C1300 1.373 . S
C1301 C1317 1.377 . S
C1302 C1300 1.389 . S
C1302 C1303 1.524 . S
C1302 C1316 1.377 . S
C1303 C1302 1.524 . S
C1303 C1304 1.397 . S
C1303 C1308 1.363 . S
C1304 H1281 0.950 . S
C1304 C1303 1.397 . S
C1304 C1305 1.334 . S
C1305 H1282 0.950 . S
C1305 C1304 1.334 . S
C1305 C1306 1.287 . S
C1306 C1305 1.287 . S
C1306 C1307 1.524 . S
C1306 H1325 0.913 . S
C1307 H1283 0.950 . S
C1307 C1306 1.524 . S
C1307 C1308 1.415 . S
C1308 H1284 0.950 . S
C1308 C1303 1.363 . S
C1308 C1307 1.415 . S
C1309 H1285 0.951 . S
C1309 C1310 1.366 . S
C1309 C1311 1.388 . S
C1310 C1309 1.366 . S
C1310 C1314 1.385 . S
C1311 H1286 0.951 . S
C1311 C1309 1.388 . S
C1311 C1312 1.366 . S
C1312 C1311 1.366 . S
C1312 C1313 1.414 . S
C1312 C1315 1.499 . S
C1313 H1287 0.950 . S
C1313 C1312 1.414 . S
C1313 C1314 1.374 . S
C1314 H1288 0.950 . S
C1314 C1310 1.385 . S
C1314 C1313 1.374 . S
C1315 C1312 1.499 . S
C1315 C1316 1.373 . S
C1315 C1317 1.389 . S
C1316 H1289 0.950 . S
C1316 C1302 1.377 . S
C1316 C1315 1.373 . S
C1317 C1301 1.377 . S
C1317 C1315 1.389 . S
C1317 C1318 1.524 . S
C1318 C1317 1.524 . S
C1318 C1319 1.397 . S
C1318 C1323 1.363 . S
C1319 H1290 0.950 . S
C1319 C1318 1.397 . S
C1319 C1320 1.334 . S
C1320 H1291 0.950 . S
C1320 C1319 1.334 . S
C1320 C1321 1.287 . S
C1321 C1320 1.287 . S
C1321 C1322 1.524 . S
C1321 H1324 0.999 . S
C1322 H1292 0.950 . S
C1322 C1321 1.524 . S
C1322 C1323 1.415 . S
C1323 H1293 0.950 . S
C1323 C1318 1.363 . S
C1323 C1322 1.415 . S
H1324 C1321 0.999 . S
H1325 C1306 0.913 . S
H1326 C1344 0.951 . S
H1327 C1346 0.951 . S
H1328 C1348 0.950 . S
H1329 C1349 0.950 . S
H1330 C1351 0.950 . S
H1331 C1354 0.950 . S
H1332 C1355 0.950 . S
H1333 C1357 0.950 . S
H1334 C1358 0.950 . S
H1335 C1359 0.951 . S
H1336 C1361 0.951 . S
H1337 C1363 0.950 . S
H1338 C1364 0.950 . S
H1339 C1366 0.950 . S
H1340 C1369 0.950 . S
H1341 C1370 0.950 . S
H1342 C1372 0.950 . S
H1343 C1373 0.950 . S
C1344 H1326 0.951 . S
C1344 C1345 1.366 . S
C1344 C1346 1.388 . S
C1345 C1344 1.366 . S
C1345 C1349 1.385 . S
C1346 H1327 0.951 . S
C1346 C1344 1.388 . S
C1346 C1347 1.366 . S
C1347 C1346 1.366 . S
C1347 C1348 1.414 . S
C1347 C1350 1.499 . S
C1348 H1328 0.950 . S
C1348 C1347 1.414 . S
C1348 C1349 1.374 . S
C1349 H1329 0.950 . S
C1349 C1345 1.385 . S
C1349 C1348 1.374 . S
C1350 C1347 1.499 . S
C1350 C1351 1.373 . S
C1350 C1352 1.389 . S
C1351 H1330 0.950 . S
C1351 C1350 1.373 . S
C1351 C1367 1.377 . S
C1352 C1350 1.389 . S
C1352 C1353 1.524 . S
C1352 C1366 1.377 . S
C1353 C1352 1.524 . S
C1353 C1354 1.397 . S
C1353 C1358 1.363 . S
C1354 H1331 0.950 . S
C1354 C1353 1.397 . S
C1354 C1355 1.334 . S
C1355 H1332 0.950 . S
C1355 C1354 1.334 . S
C1355 C1356 1.287 . S
C1356 C1355 1.287 . S
C1356 C1357 1.524 . S
C1356 H1375 0.913 . S
C1357 H1333 0.950 . S
C1357 C1356 1.524 . S
C1357 C1358 1.415 . S
C1358 H1334 0.950 . S
C1358 C1353 1.363 . S
C1358 C1357 1.415 . S
C1359 H1335 0.951 . S
C1359 C1360 1.366 . S
C1359 C1361 1.388 . S
C1360 C1359 1.366 . S
C1360 C1364 1.385 . S
C1361 H1336 0.951 . S
C1361 C1359 1.388 . S
C1361 C1362 1.366 . S
C1362 C1361 1.366 . S
C1362 C1363 1.414 . S
C1362 C1365 1.499 . S
C1363 H1337 0.950 . S
C1363 C1362 1.414 . S
C1363 C1364 1.374 . S
C1364 H1338 0.950 . S
C1364 C1360 1.385 . S
C1364 C1363 1.374 . S
C1365 C1362 1.499 . S
C1365 C1366 1.373 . S
C1365 C1367 1.389 . S
C1366 H1339 0.950 . S
C1366 C1352 1.377 . S
C1366 C1365 1.373 . S
C1367 C1351 1.377 . S
C1367 C1365 1.389 . S
C1367 C1368 1.524 . S
C1368 C1367 1.524 . S
C1368 C1369 1.397 . S
C1368 C1373 1.363 . S
C1369 H1340 0.950 . S
C1369 C1368 1.397 . S
C1369 C1370 1.334 . S
C1370 H1341 0.950 . S
C1370 C1369 1.334 . S
C1370 C1371 1.287 . S
C1371 C1370 1.287 . S
C1371 C1372 1.524 . S
C1371 H1374 0.999 . S
C1372 H1342 0.950 . S
C1372 C1371 1.524 . S
C1372 C1373 1.415 . S
C1373 H1343 0.950 . S
C1373 C1368 1.363 . S
C1373 C1372 1.415 . S
H1374 C1371 0.999 . S
H1375 C1356 0.913 . S
H1376 C1394 0.923 1_565 S
H1377 C1396 0.951 . S
H1378 C1398 0.950 . S
H1379 C1399 0.950 . S
H1380 C1401 0.968 . S
H1381 C1404 0.950 . S
H1382 C1405 0.934 1_655 S
H1383 C1407 0.950 . S
H1384 C1408 0.950 . S
H1385 C1409 0.951 . S
H1386 C1411 0.951 . S
H1387 C1413 0.950 . S
H1388 C1414 0.950 . S
H1389 C1416 0.952 . S
H1390 C1419 0.950 . S
H1391 C1420 0.950 . S
H1392 C1422 0.950 . S
H1393 C1423 0.950 . S
C1394 H1376 0.923 1_545 S
C1394 C1395 1.384 . S
C1394 C1396 1.400 . S
C1395 C1394 1.384 . S
C1395 C1399 1.385 . S
C1396 H1377 0.951 . S
C1396 C1394 1.400 . S
C1396 C1397 1.366 . S
C1397 C1396 1.366 . S
C1397 C1398 1.414 . S
C1397 C1400 1.499 . S
C1398 H1378 0.950 . S
C1398 C1397 1.414 . S
C1398 C1399 1.374 . S
C1399 H1379 0.950 . S
C1399 C1395 1.385 . S
C1399 C1398 1.374 . S
C1400 C1397 1.499 . S
C1400 C1401 1.361 1_545 S
C1400 C1402 1.389 . S
C1401 H1380 0.968 . S
C1401 C1400 1.361 1_565 S
C1401 C1417 1.374 . S
C1402 C1400 1.389 . S
C1402 C1403 1.524 1_655 S
C1402 C1416 1.375 1_655 S
C1403 C1402 1.524 1_455 S
C1403 C1404 1.397 1_455 S
C1403 C1408 1.363 . S
C1404 H1381 0.950 . S
C1404 C1403 1.397 1_655 S
C1404 C1405 1.334 1_655 S
C1405 H1382 0.934 1_455 S
C1405 C1404 1.334 1_455 S
C1405 C1406 1.287 . S
C1406 C1405 1.287 . S
C1406 C1407 1.524 . S
C1406 H1425 0.913 . S
C1407 H1383 0.950 . S
C1407 C1406 1.524 . S
C1407 C1408 1.415 . S
C1408 H1384 0.950 . S
C1408 C1403 1.363 . S
C1408 C1407 1.415 . S
C1409 H1385 0.951 . S
C1409 C1410 1.366 1_655 S
C1409 C1411 1.388 . S
C1410 C1409 1.366 1_455 S
C1410 C1414 1.385 . S
C1411 H1386 0.951 . S
C1411 C1409 1.388 . S
C1411 C1412 1.366 . S
C1412 C1411 1.366 . S
C1412 C1413 1.414 1_655 S
C1412 C1415 1.499 . S
C1413 H1387 0.950 . S
C1413 C1412 1.414 1_455 S
C1413 C1414 1.374 . S
C1414 H1388 0.950 . S
C1414 C1410 1.385 . S
C1414 C1413 1.374 . S
C1415 C1412 1.499 . S
C1415 C1416 1.373 1_655 S
C1415 C1417 1.387 1_545 S
C1416 H1389 0.952 . S
C1416 C1402 1.375 1_455 S
C1416 C1415 1.373 1_455 S
C1417 C1401 1.374 . S
C1417 C1415 1.387 1_565 S
C1417 C1418 1.527 . S
C1418 C1417 1.527 . S
C1418 C1419 1.397 . S
C1418 C1423 1.363 . S
C1419 H1390 0.950 . S
C1419 C1418 1.397 . S
C1419 C1420 1.334 . S
C1420 H1391 0.950 . S
C1420 C1419 1.334 . S
C1420 C1421 1.287 . S
C1421 C1420 1.287 . S
C1421 C1422 1.524 . S
C1421 H1424 0.999 . S
C1422 H1392 0.950 . S
C1422 C1421 1.524 . S
C1422 C1423 1.415 . S
C1423 H1393 0.950 . S
C1423 C1418 1.363 . S
C1423 C1422 1.415 . S
H1424 C1421 0.999 . S
H1425 C1406 0.913 . S
H1426 C1444 0.951 . S
H1427 C1446 0.951 . S
H1428 C1448 0.950 . S
H1429 C1449 0.950 . S
H1430 C1451 0.950 . S
H1431 C1454 0.950 . S
H1432 C1455 0.950 . S
H1433 C1457 0.950 . S
H1434 C1458 0.950 . S
H1435 C1459 0.951 . S
H1436 C1461 0.951 . S
H1437 C1463 0.950 . S
H1438 C1464 0.950 . S
H1439 C1466 0.950 . S
H1440 C1469 0.950 . S
H1441 C1470 0.950 . S
H1442 C1472 0.950 . S
H1443 C1473 0.950 . S
C1444 H1426 0.951 . S
C1444 C1445 1.366 . S
C1444 C1446 1.388 . S
C1445 C1444 1.366 . S
C1445 C1449 1.385 . S
C1446 H1427 0.951 . S
C1446 C1444 1.388 . S
C1446 C1447 1.366 . S
C1447 C1446 1.366 . S
C1447 C1448 1.414 . S
C1447 C1450 1.499 . S
C1448 H1428 0.950 . S
C1448 C1447 1.414 . S
C1448 C1449 1.374 . S
C1449 H1429 0.950 . S
C1449 C1445 1.385 . S
C1449 C1448 1.374 . S
C1450 C1447 1.499 . S
C1450 C1451 1.373 . S
C1450 C1452 1.389 . S
C1451 H1430 0.950 . S
C1451 C1450 1.373 . S
C1451 C1467 1.377 . S
C1452 C1450 1.389 . S
C1452 C1453 1.524 . S
C1452 C1466 1.377 . S
C1453 C1452 1.524 . S
C1453 C1454 1.397 . S
C1453 C1458 1.363 . S
C1454 H1431 0.950 . S
C1454 C1453 1.397 . S
C1454 C1455 1.334 . S
C1455 H1432 0.950 . S
C1455 C1454 1.334 . S
C1455 C1456 1.287 . S
C1456 C1455 1.287 . S
C1456 C1457 1.524 . S
C1456 H1475 0.913 . S
C1457 H1433 0.950 . S
C1457 C1456 1.524 . S
C1457 C1458 1.415 . S
C1458 H1434 0.950 . S
C1458 C1453 1.363 . S
C1458 C1457 1.415 . S
C1459 H1435 0.951 . S
C1459 C1460 1.366 . S
C1459 C1461 1.388 . S
C1460 C1459 1.366 . S
C1460 C1464 1.385 . S
C1461 H1436 0.951 . S
C1461 C1459 1.388 . S
C1461 C1462 1.366 . S
C1462 C1461 1.366 . S
C1462 C1463 1.414 . S
C1462 C1465 1.499 . S
C1463 H1437 0.950 . S
C1463 C1462 1.414 . S
C1463 C1464 1.374 . S
C1464 H1438 0.950 . S
C1464 C1460 1.385 . S
C1464 C1463 1.374 . S
C1465 C1462 1.499 . S
C1465 C1466 1.373 . S
C1465 C1467 1.389 . S
C1466 H1439 0.950 . S
C1466 C1452 1.377 . S
C1466 C1465 1.373 . S
C1467 C1451 1.377 . S
C1467 C1465 1.389 . S
C1467 C1468 1.524 . S
C1468 C1467 1.524 . S
C1468 C1469 1.397 . S
C1468 C1473 1.363 . S
C1469 H1440 0.950 . S
C1469 C1468 1.397 . S
C1469 C1470 1.334 . S
C1470 H1441 0.950 . S
C1470 C1469 1.334 . S
C1470 C1471 1.287 . S
C1471 C1470 1.287 . S
C1471 C1472 1.524 . S
C1471 H1474 0.999 . S
C1472 H1442 0.950 . S
C1472 C1471 1.524 . S
C1472 C1473 1.415 . S
C1473 H1443 0.950 . S
C1473 C1468 1.363 . S
C1473 C1472 1.415 . S
H1474 C1471 0.999 . S
H1475 C1456 0.913 . S
H1476 C1494 0.951 . S
H1477 C1496 0.951 . S
H1478 C1498 0.950 . S
H1479 C1499 0.950 . S
H1480 C1501 0.950 . S
H1481 C1504 0.950 . S
H1482 C1505 0.950 . S
H1483 C1507 0.950 . S
H1484 C1508 0.950 . S
H1485 C1509 0.951 . S
H1486 C1511 0.951 . S
H1487 C1513 0.950 . S
H1488 C1514 0.950 . S
H1489 C1516 0.950 . S
H1490 C1519 0.950 . S
H1491 C1520 0.950 . S
H1492 C1522 0.950 . S
H1493 C1523 0.950 . S
C1494 H1476 0.951 . S
C1494 C1495 1.366 . S
C1494 C1496 1.388 . S
C1495 C1494 1.366 . S
C1495 C1499 1.385 . S
C1496 H1477 0.951 . S
C1496 C1494 1.388 . S
C1496 C1497 1.366 . S
C1497 C1496 1.366 . S
C1497 C1498 1.414 . S
C1497 C1500 1.499 . S
C1498 H1478 0.950 . S
C1498 C1497 1.414 . S
C1498 C1499 1.374 . S
C1499 H1479 0.950 . S
C1499 C1495 1.385 . S
C1499 C1498 1.374 . S
C1500 C1497 1.499 . S
C1500 C1501 1.373 . S
C1500 C1502 1.389 1_545 S
C1501 H1480 0.950 . S
C1501 C1500 1.373 . S
C1501 C1517 1.377 . S
C1502 C1500 1.389 1_565 S
C1502 C1503 1.524 . S
C1502 C1516 1.377 . S
C1503 C1502 1.524 . S
C1503 C1504 1.397 . S
C1503 C1508 1.363 . S
C1504 H1481 0.950 . S
C1504 C1503 1.397 . S
C1504 C1505 1.334 . S
C1505 H1482 0.950 . S
C1505 C1504 1.334 . S
C1505 C1506 1.287 . S
C1506 C1505 1.287 . S
C1506 C1507 1.524 . S
C1506 H1525 0.913 . S
C1507 H1483 0.950 . S
C1507 C1506 1.524 . S
C1507 C1508 1.415 . S
C1508 H1484 0.950 . S
C1508 C1503 1.363 . S
C1508 C1507 1.415 . S
C1509 H1485 0.951 . S
C1509 C1510 1.366 . S
C1509 C1511 1.388 . S
C1510 C1509 1.366 . S
C1510 C1514 1.385 . S
C1511 H1486 0.951 . S
C1511 C1509 1.388 . S
C1511 C1512 1.366 . S
C1512 C1511 1.366 . S
C1512 C1513 1.414 . S
C1512 C1515 1.499 . S
C1513 H1487 0.950 . S
C1513 C1512 1.414 . S
C1513 C1514 1.374 . S
C1514 H1488 0.950 . S
C1514 C1510 1.385 . S
C1514 C1513 1.374 . S
C1515 C1512 1.499 . S
C1515 C1516 1.373 1_545 S
C1515 C1517 1.389 . S
C1516 H1489 0.950 . S
C1516 C1502 1.377 . S
C1516 C1515 1.373 1_565 S
C1517 C1501 1.377 . S
C1517 C1515 1.389 . S
C1517 C1518 1.524 . S
C1518 C1517 1.524 . S
C1518 C1519 1.397 . S
C1518 C1523 1.363 . S
C1519 H1490 0.950 . S
C1519 C1518 1.397 . S
C1519 C1520 1.334 . S
C1520 H1491 0.950 . S
C1520 C1519 1.334 . S
C1520 C1521 1.287 . S
C1521 C1520 1.287 . S
C1521 C1522 1.524 . S
C1521 H1524 0.999 . S
C1522 H1492 0.950 . S
C1522 C1521 1.524 . S
C1522 C1523 1.415 . S
C1523 H1493 0.950 . S
C1523 C1518 1.363 . S
C1523 C1522 1.415 . S
H1524 C1521 0.999 . S
H1525 C1506 0.913 . S
H1526 C1544 0.951 . S
H1527 C1546 0.951 . S
H1528 C1548 0.950 . S
H1529 C1549 0.950 . S
H1530 C1551 0.950 . S
H1531 C1554 0.950 . S
H1532 C1555 0.950 . S
H1533 C1557 0.950 . S
H1534 C1558 0.950 . S
H1535 C1559 0.951 . S
H1536 C1561 0.951 . S
H1537 C1563 0.950 . S
H1538 C1564 0.950 . S
H1539 C1566 0.950 . S
H1540 C1569 0.950 . S
H1541 C1570 0.950 . S
H1542 C1572 0.950 . S
H1543 C1573 0.950 . S
C1544 H1526 0.951 . S
C1544 C1545 1.366 . S
C1544 C1546 1.388 . S
C1545 C1544 1.366 . S
C1545 C1549 1.385 . S
C1546 H1527 0.951 . S
C1546 C1544 1.388 . S
C1546 C1547 1.366 . S
C1547 C1546 1.366 . S
C1547 C1548 1.414 . S
C1547 C1550 1.499 . S
C1548 H1528 0.950 . S
C1548 C1547 1.414 . S
C1548 C1549 1.374 . S
C1549 H1529 0.950 . S
C1549 C1545 1.385 . S
C1549 C1548 1.374 . S
C1550 C1547 1.499 . S
C1550 C1551 1.373 . S
C1550 C1552 1.389 . S
C1551 H1530 0.950 . S
C1551 C1550 1.373 . S
C1551 C1567 1.377 . S
C1552 C1550 1.389 . S
C1552 C1553 1.524 . S
C1552 C1566 1.377 . S
C1553 C1552 1.524 . S
C1553 C1554 1.397 . S
C1553 C1558 1.363 . S
C1554 H1531 0.950 . S
C1554 C1553 1.397 . S
C1554 C1555 1.334 . S
C1555 H1532 0.950 . S
C1555 C1554 1.334 . S
C1555 C1556 1.287 . S
C1556 C1555 1.287 . S
C1556 C1557 1.524 . S
C1556 H1575 0.913 . S
C1557 H1533 0.950 . S
C1557 C1556 1.524 . S
C1557 C1558 1.415 . S
C1558 H1534 0.950 . S
C1558 C1553 1.363 . S
C1558 C1557 1.415 . S
C1559 H1535 0.951 . S
C1559 C1560 1.366 . S
C1559 C1561 1.388 . S
C1560 C1559 1.366 . S
C1560 C1564 1.385 . S
C1561 H1536 0.951 . S
C1561 C1559 1.388 . S
C1561 C1562 1.366 . S
C1562 C1561 1.366 . S
C1562 C1563 1.414 . S
C1562 C1565 1.499 . S
C1563 H1537 0.950 . S
C1563 C1562 1.414 . S
C1563 C1564 1.374 . S
C1564 H1538 0.950 . S
C1564 C1560 1.385 . S
C1564 C1563 1.374 . S
C1565 C1562 1.499 . S
C1565 C1566 1.373 . S
C1565 C1567 1.389 . S
C1566 H1539 0.950 . S
C1566 C1552 1.377 . S
C1566 C1565 1.373 . S
C1567 C1551 1.377 . S
C1567 C1565 1.389 . S
C1567 C1568 1.524 . S
C1568 C1567 1.524 . S
C1568 C1569 1.397 . S
C1568 C1573 1.363 . S
C1569 H1540 0.950 . S
C1569 C1568 1.397 . S
C1569 C1570 1.334 . S
C1570 H1541 0.950 . S
C1570 C1569 1.334 . S
C1570 C1571 1.287 . S
C1571 C1570 1.287 . S
C1571 C1572 1.524 . S
C1571 H1574 0.999 . S
C1572 H1542 0.950 . S
C1572 C1571 1.524 . S
C1572 C1573 1.415 . S
C1573 H1543 0.950 . S
C1573 C1568 1.363 . S
C1573 C1572 1.415 . S
H1574 C1571 0.999 . S
H1575 C1556 0.913 . S
H1576 C1594 0.951 . S
H1577 C1596 0.951 . S
H1578 C1598 0.950 . S
H1579 C1599 0.950 . S
H1580 C1601 0.950 . S
H1581 C1604 0.950 . S
H1582 C1605 0.950 . S
H1583 C1607 0.950 . S
H1584 C1608 0.950 . S
H1585 C1609 0.951 . S
H1586 C1611 0.951 . S
H1587 C1613 0.950 . S
H1588 C1614 0.950 . S
H1589 C1616 0.950 . S
H1590 C1619 0.950 . S
H1591 C1620 0.950 . S
H1592 C1622 0.950 . S
H1593 C1623 0.950 . S
C1594 H1576 0.951 . S
C1594 C1595 1.366 . S
C1594 C1596 1.388 . S
C1595 C1594 1.366 . S
C1595 C1599 1.385 . S
C1596 H1577 0.951 . S
C1596 C1594 1.388 . S
C1596 C1597 1.366 . S
C1597 C1596 1.366 . S
C1597 C1598 1.414 . S
C1597 C1600 1.499 . S
C1598 H1578 0.950 . S
C1598 C1597 1.414 . S
C1598 C1599 1.374 . S
C1599 H1579 0.950 . S
C1599 C1595 1.385 . S
C1599 C1598 1.374 . S
C1600 C1597 1.499 . S
C1600 C1601 1.373 1_545 S
C1600 C1602 1.389 . S
C1601 H1580 0.950 . S
C1601 C1600 1.373 1_565 S
C1601 C1617 1.377 . S
C1602 C1600 1.389 . S
C1602 C1603 1.524 . S
C1602 C1616 1.377 . S
C1603 C1602 1.524 . S
C1603 C1604 1.397 . S
C1603 C1608 1.363 . S
C1604 H1581 0.950 . S
C1604 C1603 1.397 . S
C1604 C1605 1.334 . S
C1605 H1582 0.950 . S
C1605 C1604 1.334 . S
C1605 C1606 1.287 . S
C1606 C1605 1.287 . S
C1606 C1607 1.524 . S
C1606 H1625 0.913 . S
C1607 H1583 0.950 . S
C1607 C1606 1.524 . S
C1607 C1608 1.415 . S
C1608 H1584 0.950 . S
C1608 C1603 1.363 . S
C1608 C1607 1.415 . S
C1609 H1585 0.951 . S
C1609 C1610 1.366 . S
C1609 C1611 1.388 . S
C1610 C1609 1.366 . S
C1610 C1614 1.385 1_455 S
C1611 H1586 0.951 . S
C1611 C1609 1.388 . S
C1611 C1612 1.366 1_455 S
C1612 C1611 1.366 1_655 S
C1612 C1613 1.414 . S
C1612 C1615 1.499 . S
C1613 H1587 0.950 . S
C1613 C1612 1.414 . S
C1613 C1614 1.374 . S
C1614 H1588 0.950 . S
C1614 C1610 1.385 1_655 S
C1614 C1613 1.374 . S
C1615 C1612 1.499 . S
C1615 C1616 1.373 . S
C1615 C1617 1.389 1_545 S
C1616 H1589 0.950 . S
C1616 C1602 1.377 . S
C1616 C1615 1.373 . S
C1617 C1601 1.377 . S
C1617 C1615 1.389 1_565 S
C1617 C1618 1.524 . S
C1618 C1617 1.524 . S
C1618 C1619 1.397 . S
C1618 C1623 1.363 1_655 S
C1619 H1590 0.950 . S
C1619 C1618 1.397 . S
C1619 C1620 1.334 . S
C1620 H1591 0.950 . S
C1620 C1619 1.334 . S
C1620 C1621 1.331 . S
C1621 C1620 1.331 . S
C1621 C1622 1.495 1_655 S
C1621 H1624 0.977 1_655 S
C1622 H1592 0.950 . S
C1622 C1621 1.495 1_455 S
C1622 C1623 1.415 . S
C1623 H1593 0.950 . S
C1623 C1618 1.363 1_455 S
C1623 C1622 1.415 . S
H1624 C1621 0.977 1_455 S
H1625 C1606 0.913 . S
H1626 C1644 0.951 . S
H1627 C1646 0.951 . S
H1628 C1648 0.950 . S
H1629 C1649 0.950 . S
H1630 C1651 0.950 . S
H1631 C1654 0.950 . S
H1632 C1655 0.950 . S
H1633 C1657 0.950 . S
H1634 C1658 0.950 . S
H1635 C1659 0.951 . S
H1636 C1661 0.951 . S
H1637 C1663 0.950 . S
H1638 C1664 0.950 . S
H1639 C1666 0.950 . S
H1640 C1669 0.950 . S
H1641 C1670 0.950 . S
H1642 C1672 0.950 . S
H1643 C1673 0.950 . S
C1644 H1626 0.951 . S
C1644 C1645 1.366 . S
C1644 C1646 1.388 . S
C1645 C1644 1.366 . S
C1645 C1649 1.385 . S
C1646 H1627 0.951 . S
C1646 C1644 1.388 . S
C1646 C1647 1.366 . S
C1647 C1646 1.366 . S
C1647 C1648 1.414 . S
C1647 C1650 1.499 . S
C1648 H1628 0.950 . S
C1648 C1647 1.414 . S
C1648 C1649 1.374 . S
C1649 H1629 0.950 . S
C1649 C1645 1.385 . S
C1649 C1648 1.374 . S
C1650 C1647 1.499 . S
C1650 C1651 1.373 . S
C1650 C1652 1.389 . S
C1651 H1630 0.950 . S
C1651 C1650 1.373 . S
C1651 C1667 1.377 . S
C1652 C1650 1.389 . S
C1652 C1653 1.524 . S
C1652 C1666 1.377 . S
C1653 C1652 1.524 . S
C1653 C1654 1.397 . S
C1653 C1658 1.363 . S
C1654 H1631 0.950 . S
C1654 C1653 1.397 . S
C1654 C1655 1.334 . S
C1655 H1632 0.950 . S
C1655 C1654 1.334 . S
C1655 C1656 1.287 . S
C1656 C1655 1.287 . S
C1656 C1657 1.524 . S
C1656 H1675 0.913 . S
C1657 H1633 0.950 . S
C1657 C1656 1.524 . S
C1657 C1658 1.415 . S
C1658 H1634 0.950 . S
C1658 C1653 1.363 . S
C1658 C1657 1.415 . S
C1659 H1635 0.951 . S
C1659 C1660 1.366 . S
C1659 C1661 1.388 . S
C1660 C1659 1.366 . S
C1660 C1664 1.385 . S
C1661 H1636 0.951 . S
C1661 C1659 1.388 . S
C1661 C1662 1.366 . S
C1662 C1661 1.366 . S
C1662 C1663 1.414 . S
C1662 C1665 1.499 . S
C1663 H1637 0.950 . S
C1663 C1662 1.414 . S
C1663 C1664 1.374 . S
C1664 H1638 0.950 . S
C1664 C1660 1.385 . S
C1664 C1663 1.374 . S
C1665 C1662 1.499 . S
C1665 C1666 1.373 . S
C1665 C1667 1.389 . S
C1666 H1639 0.950 . S
C1666 C1652 1.377 . S
C1666 C1665 1.373 . S
C1667 C1651 1.377 . S
C1667 C1665 1.389 . S
C1667 C1668 1.524 . S
C1668 C1667 1.524 . S
C1668 C1669 1.397 . S
C1668 C1673 1.363 . S
C1669 H1640 0.950 . S
C1669 C1668 1.397 . S
C1669 C1670 1.334 . S
C1670 H1641 0.950 . S
C1670 C1669 1.334 . S
C1670 C1671 1.287 . S
C1671 C1670 1.287 . S
C1671 C1672 1.524 . S
C1671 H1674 0.999 . S
C1672 H1642 0.950 . S
C1672 C1671 1.524 . S
C1672 C1673 1.415 . S
C1673 H1643 0.950 . S
C1673 C1668 1.363 . S
C1673 C1672 1.415 . S
H1674 C1671 0.999 . S
H1675 C1656 0.913 . S
H1676 C1694 0.951 . S
H1677 C1696 0.951 . S
H1678 C1698 0.950 1_565 S
H1679 C1699 0.950 1_565 S
H1680 C1701 0.950 1_565 S
H1681 C1704 0.950 . S
H1682 C1705 0.950 . S
H1683 C1707 0.950 . S
H1684 C1708 0.950 . S
H1685 C1709 0.974 . S
H1686 C1711 0.951 1_565 S
H1687 C1713 0.950 . S
H1688 C1714 0.950 . S
H1689 C1716 0.950 . S
H1690 C1719 0.950 1_545 S
H1691 C1720 0.950 . S
H1692 C1722 0.950 . S
H1693 C1723 0.950 . S
C1694 H1676 0.951 . S
C1694 C1695 1.366 . S
C1694 C1696 1.388 . S
C1695 C1694 1.366 . S
C1695 C1699 1.385 . S
C1696 H1677 0.951 . S
C1696 C1694 1.388 . S
C1696 C1697 1.366 . S
C1697 C1696 1.366 . S
C1697 C1698 1.414 . S
C1697 C1700 1.499 . S
C1698 H1678 0.950 1_545 S
C1698 C1697 1.414 . S
C1698 C1699 1.374 . S
C1699 H1679 0.950 1_545 S
C1699 C1695 1.385 . S
C1699 C1698 1.374 . S
C1700 C1697 1.499 . S
C1700 C1701 1.373 . S
C1700 C1702 1.389 . S
C1701 H1680 0.950 1_545 S
C1701 C1700 1.373 . S
C1701 C1717 1.377 . S
C1702 C1700 1.389 . S
C1702 C1703 1.524 . S
C1702 C1716 1.377 . S
C1703 C1702 1.524 . S
C1703 C1704 1.397 . S
C1703 C1708 1.363 . S
C1704 H1681 0.950 . S
C1704 C1703 1.397 . S
C1704 C1705 1.334 . S
C1705 H1682 0.950 . S
C1705 C1704 1.334 . S
C1705 C1706 1.287 . S
C1706 C1705 1.287 . S
C1706 C1707 1.524 . S
C1706 H1725 0.913 . S
C1707 H1683 0.950 . S
C1707 C1706 1.524 . S
C1707 C1708 1.415 . S
C1708 H1684 0.950 . S
C1708 C1703 1.363 . S
C1708 C1707 1.415 . S
C1709 H1685 0.974 . S
C1709 C1710 1.366 . S
C1709 C1711 1.388 . S
C1710 C1709 1.366 . S
C1710 C1714 1.385 . S
C1711 H1686 0.951 1_545 S
C1711 C1709 1.388 . S
C1711 C1712 1.366 . S
C1712 C1711 1.366 . S
C1712 C1713 1.414 . S
C1712 C1715 1.499 . S
C1713 H1687 0.950 . S
C1713 C1712 1.414 . S
C1713 C1714 1.374 . S
C1714 H1688 0.950 . S
C1714 C1710 1.385 . S
C1714 C1713 1.374 . S
C1715 C1712 1.499 . S
C1715 C1716 1.373 . S
C1715 C1717 1.389 . S
C1716 H1689 0.950 . S
C1716 C1702 1.377 . S
C1716 C1715 1.373 . S
C1717 C1701 1.377 . S
C1717 C1715 1.389 . S
C1717 C1718 1.524 1_545 S
C1718 C1717 1.524 1_565 S
C1718 C1719 1.397 . S
C1718 C1723 1.363 . S
C1719 H1690 0.950 1_565 S
C1719 C1718 1.397 . S
C1719 C1720 1.334 . S
C1720 H1691 0.950 . S
C1720 C1719 1.334 . S
C1720 C1721 1.287 . S
C1721 C1720 1.287 . S
C1721 C1722 1.524 . S
C1721 H1724 0.999 . S
C1722 H1692 0.950 . S
C1722 C1721 1.524 . S
C1722 C1723 1.415 . S
C1723 H1693 0.950 . S
C1723 C1718 1.363 . S
C1723 C1722 1.415 . S
H1724 C1721 0.999 . S
H1725 C1706 0.913 . S
H1726 C1744 0.951 . S
H1727 C1746 0.951 . S
H1728 C1748 0.950 . S
H1729 C1749 0.950 . S
H1730 C1751 0.950 . S
H1731 C1754 0.950 . S
H1732 C1755 0.950 . S
H1733 C1757 0.950 . S
H1734 C1758 0.950 . S
H1735 C1759 0.951 . S
H1736 C1761 0.951 . S
H1737 C1763 0.950 . S
H1738 C1764 0.950 . S
H1739 C1766 0.950 . S
H1740 C1769 0.950 . S
H1741 C1770 0.950 . S
H1742 C1772 0.950 . S
H1743 C1773 0.950 . S
C1744 H1726 0.951 . S
C1744 C1745 1.366 . S
C1744 C1746 1.388 . S
C1745 C1744 1.366 . S
C1745 C1749 1.385 . S
C1746 H1727 0.951 . S
C1746 C1744 1.388 . S
C1746 C1747 1.366 . S
C1747 C1746 1.366 . S
C1747 C1748 1.414 . S
C1747 C1750 1.499 . S
C1748 H1728 0.950 . S
C1748 C1747 1.414 . S
C1748 C1749 1.374 . S
C1749 H1729 0.950 . S
C1749 C1745 1.385 . S
C1749 C1748 1.374 . S
C1750 C1747 1.499 . S
C1750 C1751 1.373 . S
C1750 C1752 1.389 . S
C1751 H1730 0.950 . S
C1751 C1750 1.373 . S
C1751 C1767 1.377 . S
C1752 C1750 1.389 . S
C1752 C1753 1.524 . S
C1752 C1766 1.377 . S
C1753 C1752 1.524 . S
C1753 C1754 1.397 . S
C1753 C1758 1.363 . S
C1754 H1731 0.950 . S
C1754 C1753 1.397 . S
C1754 C1755 1.334 . S
C1755 H1732 0.950 . S
C1755 C1754 1.334 . S
C1755 C1756 1.287 . S
C1756 C1755 1.287 . S
C1756 C1757 1.524 . S
C1756 H1775 0.913 . S
C1757 H1733 0.950 . S
C1757 C1756 1.524 . S
C1757 C1758 1.415 . S
C1758 H1734 0.950 . S
C1758 C1753 1.363 . S
C1758 C1757 1.415 . S
C1759 H1735 0.951 . S
C1759 C1760 1.366 . S
C1759 C1761 1.388 . S
C1760 C1759 1.366 . S
C1760 C1764 1.385 . S
C1761 H1736 0.951 . S
C1761 C1759 1.388 . S
C1761 C1762 1.366 . S
C1762 C1761 1.366 . S
C1762 C1763 1.414 . S
C1762 C1765 1.499 . S
C1763 H1737 0.950 . S
C1763 C1762 1.414 . S
C1763 C1764 1.374 . S
C1764 H1738 0.950 . S
C1764 C1760 1.385 . S
C1764 C1763 1.374 . S
C1765 C1762 1.499 . S
C1765 C1766 1.373 . S
C1765 C1767 1.389 . S
C1766 H1739 0.950 . S
C1766 C1752 1.377 . S
C1766 C1765 1.373 . S
C1767 C1751 1.377 . S
C1767 C1765 1.389 . S
C1767 C1768 1.524 . S
C1768 C1767 1.524 . S
C1768 C1769 1.397 . S
C1768 C1773 1.363 . S
C1769 H1740 0.950 . S
C1769 C1768 1.397 . S
C1769 C1770 1.334 . S
C1770 H1741 0.950 . S
C1770 C1769 1.334 . S
C1770 C1771 1.287 . S
C1771 C1770 1.287 . S
C1771 C1772 1.524 . S
C1771 H1774 0.999 . S
C1772 H1742 0.950 . S
C1772 C1771 1.524 . S
C1772 C1773 1.415 . S
C1773 H1743 0.950 . S
C1773 C1768 1.363 . S
C1773 C1772 1.415 . S
H1774 C1771 0.999 . S
H1775 C1756 0.913 . S
H1776 C1794 0.951 . S
H1777 C1796 0.951 . S
H1778 C1798 0.950 . S
H1779 C1799 0.950 . S
H1780 C1801 0.950 . S
H1781 C1804 0.950 . S
H1782 C1805 0.950 . S
H1783 C1807 0.950 . S
H1784 C1808 0.950 . S
H1785 C1809 0.951 . S
H1786 C1811 0.951 . S
H1787 C1813 0.950 . S
H1788 C1814 0.950 . S
H1789 C1816 0.950 . S
H1790 C1819 0.950 . S
H1791 C1820 0.950 . S
H1792 C1822 0.950 . S
H1793 C1823 0.950 . S
C1794 H1776 0.951 . S
C1794 C1795 1.366 1_554 S
C1794 C1796 1.388 . S
C1795 C1794 1.366 1_556 S
C1795 C1799 1.385 . S
C1796 H1777 0.951 . S
C1796 C1794 1.388 . S
C1796 C1797 1.366 . S
C1797 C1796 1.366 . S
C1797 C1798 1.414 1_554 S
C1797 C1800 1.499 . S
C1798 H1778 0.950 . S
C1798 C1797 1.414 1_556 S
C1798 C1799 1.374 . S
C1799 H1779 0.950 . S
C1799 C1795 1.385 . S
C1799 C1798 1.374 . S
C1800 C1797 1.499 . S
C1800 C1801 1.373 . S
C1800 C1802 1.389 . S
C1801 H1780 0.950 . S
C1801 C1800 1.373 . S
C1801 C1817 1.377 . S
C1802 C1800 1.389 . S
C1802 C1803 1.524 . S
C1802 C1816 1.377 . S
C1803 C1802 1.524 . S
C1803 C1804 1.397 1_554 S
C1803 C1808 1.363 . S
C1804 H1781 0.950 . S
C1804 C1803 1.397 1_556 S
C1804 C1805 1.334 . S
C1805 H1782 0.950 . S
C1805 C1804 1.334 . S
C1805 C1806 1.287 . S
C1806 C1805 1.287 . S
C1806 C1807 1.524 1_556 S
C1806 H1825 0.913 . S
C1807 H1783 0.950 . S
C1807 C1806 1.524 1_554 S
C1807 C1808 1.415 . S
C1808 H1784 0.950 . S
C1808 C1803 1.363 . S
C1808 C1807 1.415 . S
C1809 H1785 0.951 . S
C1809 C1810 1.366 . S
C1809 C1811 1.388 . S
C1810 C1809 1.366 . S
C1810 C1814 1.385 . S
C1811 H1786 0.951 . S
C1811 C1809 1.388 . S
C1811 C1812 1.366 . S
C1812 C1811 1.366 . S
C1812 C1813 1.414 . S
C1812 C1815 1.499 . S
C1813 H1787 0.950 . S
C1813 C1812 1.414 . S
C1813 C1814 1.374 . S
C1814 H1788 0.950 . S
C1814 C1810 1.385 . S
C1814 C1813 1.374 . S
C1815 C1812 1.499 . S
C1815 C1816 1.373 . S
C1815 C1817 1.389 . S
C1816 H1789 0.950 . S
C1816 C1802 1.377 . S
C1816 C1815 1.373 . S
C1817 C1801 1.377 . S
C1817 C1815 1.389 . S
C1817 C1818 1.524 . S
C1818 C1817 1.524 . S
C1818 C1819 1.397 . S
C1818 C1823 1.363 . S
C1819 H1790 0.950 . S
C1819 C1818 1.397 . S
C1819 C1820 1.334 . S
C1820 H1791 0.950 . S
C1820 C1819 1.334 . S
C1820 C1821 1.287 . S
C1821 C1820 1.287 . S
C1821 C1822 1.524 . S
C1821 H1824 0.999 1_565 S
C1822 H1792 0.950 . S
C1822 C1821 1.524 . S
C1822 C1823 1.415 . S
C1823 H1793 0.950 . S
C1823 C1818 1.363 . S
C1823 C1822 1.415 . S
H1824 C1821 0.999 1_545 S
H1825 C1806 0.913 . S
H1826 C1844 0.951 . S
H1827 C1846 0.951 . S
H1828 C1848 0.950 . S
H1829 C1849 0.950 . S
H1830 C1851 0.950 . S
H1831 C1854 0.950 . S
H1832 C1855 0.950 . S
H1833 C1857 0.950 . S
H1834 C1858 0.896 1_554 S
H1835 C1859 0.951 . S
H1836 C1861 0.951 . S
H1837 C1863 0.950 . S
H1838 C1864 0.950 . S
H1839 C1866 0.950 . S
H1840 C1869 0.950 . S
H1841 C1870 0.950 . S
H1842 C1872 0.950 . S
H1843 C1873 0.950 . S
C1844 H1826 0.951 . S
C1844 C1845 1.366 . S
C1844 C1846 1.388 . S
C1845 C1844 1.366 . S
C1845 C1849 1.385 . S
C1846 H1827 0.951 . S
C1846 C1844 1.388 . S
C1846 C1847 1.366 . S
C1847 C1846 1.366 . S
C1847 C1848 1.414 . S
C1847 C1850 1.499 . S
C1848 H1828 0.950 . S
C1848 C1847 1.414 . S
C1848 C1849 1.374 . S
C1849 H1829 0.950 . S
C1849 C1845 1.385 . S
C1849 C1848 1.374 . S
C1850 C1847 1.499 . S
C1850 C1851 1.373 . S
C1850 C1852 1.389 . S
C1851 H1830 0.950 . S
C1851 C1850 1.373 . S
C1851 C1867 1.377 . S
C1852 C1850 1.389 . S
C1852 C1853 1.524 1_554 S
C1852 C1866 1.377 . S
C1853 C1852 1.524 1_556 S
C1853 C1854 1.397 . S
C1853 C1858 1.384 . S
C1854 H1831 0.950 . S
C1854 C1853 1.397 . S
C1854 C1855 1.334 . S
C1855 H1832 0.950 . S
C1855 C1854 1.334 . S
C1855 C1856 1.287 . S
C1856 C1855 1.287 . S
C1856 C1857 1.524 . S
C1856 H1875 0.913 . S
C1857 H1833 0.950 . S
C1857 C1856 1.524 . S
C1857 C1858 1.449 . S
C1858 H1834 0.896 1_556 S
C1858 C1853 1.384 . S
C1858 C1857 1.449 . S
C1859 H1835 0.951 . S
C1859 C1860 1.366 . S
C1859 C1861 1.388 . S
C1860 C1859 1.366 . S
C1860 C1864 1.385 . S
C1861 H1836 0.951 . S
C1861 C1859 1.388 . S
C1861 C1862 1.366 . S
C1862 C1861 1.366 . S
C1862 C1863 1.414 . S
C1862 C1865 1.499 . S
C1863 H1837 0.950 . S
C1863 C1862 1.414 . S
C1863 C1864 1.374 . S
C1864 H1838 0.950 . S
C1864 C1860 1.385 . S
C1864 C1863 1.374 . S
C1865 C1862 1.499 . S
C1865 C1866 1.373 . S
C1865 C1867 1.389 . S
C1866 H1839 0.950 . S
C1866 C1852 1.377 . S
C1866 C1865 1.373 . S
C1867 C1851 1.377 . S
C1867 C1865 1.389 . S
C1867 C1868 1.524 . S
C1868 C1867 1.524 . S
C1868 C1869 1.397 . S
C1868 C1873 1.363 . S
C1869 H1840 0.950 . S
C1869 C1868 1.397 . S
C1869 C1870 1.334 . S
C1870 H1841 0.950 . S
C1870 C1869 1.334 . S
C1870 C1871 1.287 . S
C1871 C1870 1.287 . S
C1871 C1872 1.524 . S
C1871 H1874 0.999 . S
C1872 H1842 0.950 . S
C1872 C1871 1.524 . S
C1872 C1873 1.415 . S
C1873 H1843 0.950 . S
C1873 C1868 1.363 . S
C1873 C1872 1.415 . S
H1874 C1871 0.999 . S
H1875 C1856 0.913 . S
H1876 C1894 0.951 . S
H1877 C1896 0.951 . S
H1878 C1898 0.950 . S
H1879 C1899 0.950 . S
H1880 C1901 0.950 . S
H1881 C1904 0.950 . S
H1882 C1905 0.950 . S
H1883 C1907 0.950 . S
H1884 C1908 0.950 . S
H1885 C1909 0.951 . S
H1886 C1911 0.951 . S
H1887 C1913 0.950 . S
H1888 C1914 0.950 . S
H1889 C1916 0.950 . S
H1890 C1919 0.950 . S
H1891 C1920 0.950 . S
H1892 C1922 0.950 . S
H1893 C1923 0.950 . S
C1894 H1876 0.951 . S
C1894 C1895 1.366 . S
C1894 C1896 1.388 . S
C1895 C1894 1.366 . S
C1895 C1899 1.385 . S
C1896 H1877 0.951 . S
C1896 C1894 1.388 . S
C1896 C1897 1.366 . S
C1897 C1896 1.366 . S
C1897 C1898 1.414 . S
C1897 C1900 1.499 . S
C1898 H1878 0.950 . S
C1898 C1897 1.414 . S
C1898 C1899 1.374 . S
C1899 H1879 0.950 . S
C1899 C1895 1.385 . S
C1899 C1898 1.374 . S
C1900 C1897 1.499 . S
C1900 C1901 1.373 . S
C1900 C1902 1.389 . S
C1901 H1880 0.950 . S
C1901 C1900 1.373 . S
C1901 C1917 1.377 . S
C1902 C1900 1.389 . S
C1902 C1903 1.524 . S
C1902 C1916 1.377 . S
C1903 C1902 1.524 . S
C1903 C1904 1.397 . S
C1903 C1908 1.363 . S
C1904 H1881 0.950 . S
C1904 C1903 1.397 . S
C1904 C1905 1.334 . S
C1905 H1882 0.950 . S
C1905 C1904 1.334 . S
C1905 C1906 1.287 . S
C1906 C1905 1.287 . S
C1906 C1907 1.524 . S
C1906 H1925 0.913 . S
C1907 H1883 0.950 . S
C1907 C1906 1.524 . S
C1907 C1908 1.415 . S
C1908 H1884 0.950 . S
C1908 C1903 1.363 . S
C1908 C1907 1.415 . S
C1909 H1885 0.951 . S
C1909 C1910 1.366 . S
C1909 C1911 1.388 . S
C1910 C1909 1.366 . S
C1910 C1914 1.385 . S
C1911 H1886 0.951 . S
C1911 C1909 1.388 . S
C1911 C1912 1.366 . S
C1912 C1911 1.366 . S
C1912 C1913 1.414 . S
C1912 C1915 1.499 . S
C1913 H1887 0.950 . S
C1913 C1912 1.414 . S
C1913 C1914 1.374 . S
C1914 H1888 0.950 . S
C1914 C1910 1.385 . S
C1914 C1913 1.374 . S
C1915 C1912 1.499 . S
C1915 C1916 1.373 . S
C1915 C1917 1.389 . S
C1916 H1889 0.950 . S
C1916 C1902 1.377 . S
C1916 C1915 1.373 . S
C1917 C1901 1.377 . S
C1917 C1915 1.389 . S
C1917 C1918 1.524 . S
C1918 C1917 1.524 . S
C1918 C1919 1.397 . S
C1918 C1923 1.363 . S
C1919 H1890 0.950 . S
C1919 C1918 1.397 . S
C1919 C1920 1.334 . S
C1920 H1891 0.950 . S
C1920 C1919 1.334 . S
C1920 C1921 1.287 . S
C1921 C1920 1.287 . S
C1921 C1922 1.524 . S
C1921 H1924 0.999 . S
C1922 H1892 0.950 . S
C1922 C1921 1.524 . S
C1922 C1923 1.415 . S
C1923 H1893 0.950 . S
C1923 C1918 1.363 . S
C1923 C1922 1.415 . S
H1924 C1921 0.999 . S
H1925 C1906 0.913 . S
H1926 C1944 0.951 . S
H1927 C1946 0.951 . S
H1928 C1948 0.950 . S
H1929 C1949 0.950 . S
H1930 C1951 0.950 . S
H1931 C1954 0.950 . S
H1932 C1955 0.950 . S
H1933 C1957 0.950 . S
H1934 C1958 0.950 . S
H1935 C1959 0.951 . S
H1936 C1961 0.951 . S
H1937 C1963 0.950 . S
H1938 C1964 0.950 . S
H1939 C1966 0.950 . S
H1940 C1969 0.950 . S
H1941 C1970 0.950 . S
H1942 C1972 0.950 . S
H1943 C1973 0.950 . S
C1944 H1926 0.951 . S
C1944 C1945 1.366 . S
C1944 C1946 1.388 . S
C1945 C1944 1.366 . S
C1945 C1949 1.385 . S
C1946 H1927 0.951 . S
C1946 C1944 1.388 . S
C1946 C1947 1.366 . S
C1947 C1946 1.366 . S
C1947 C1948 1.414 . S
C1947 C1950 1.499 . S
C1948 H1928 0.950 . S
C1948 C1947 1.414 . S
C1948 C1949 1.374 . S
C1949 H1929 0.950 . S
C1949 C1945 1.385 . S
C1949 C1948 1.374 . S
C1950 C1947 1.499 . S
C1950 C1951 1.373 . S
C1950 C1952 1.389 . S
C1951 H1930 0.950 . S
C1951 C1950 1.373 . S
C1951 C1967 1.377 . S
C1952 C1950 1.389 . S
C1952 C1953 1.524 . S
C1952 C1966 1.377 . S
C1953 C1952 1.524 . S
C1953 C1954 1.397 . S
C1953 C1958 1.363 . S
C1954 H1931 0.950 . S
C1954 C1953 1.397 . S
C1954 C1955 1.334 . S
C1955 H1932 0.950 . S
C1955 C1954 1.334 . S
C1955 C1956 1.287 . S
C1956 C1955 1.287 . S
C1956 C1957 1.524 . S
C1956 H1975 0.913 . S
C1957 H1933 0.950 . S
C1957 C1956 1.524 . S
C1957 C1958 1.415 . S
C1958 H1934 0.950 . S
C1958 C1953 1.363 . S
C1958 C1957 1.415 . S
C1959 H1935 0.951 . S
C1959 C1960 1.366 . S
C1959 C1961 1.388 . S
C1960 C1959 1.366 . S
C1960 C1964 1.385 . S
C1961 H1936 0.951 . S
C1961 C1959 1.388 . S
C1961 C1962 1.366 . S
C1962 C1961 1.366 . S
C1962 C1963 1.414 . S
C1962 C1965 1.499 . S
C1963 H1937 0.950 . S
C1963 C1962 1.414 . S
C1963 C1964 1.374 . S
C1964 H1938 0.950 . S
C1964 C1960 1.385 . S
C1964 C1963 1.374 . S
C1965 C1962 1.499 . S
C1965 C1966 1.373 . S
C1965 C1967 1.389 . S
C1966 H1939 0.950 . S
C1966 C1952 1.377 . S
C1966 C1965 1.373 . S
C1967 C1951 1.377 . S
C1967 C1965 1.389 . S
C1967 C1968 1.524 . S
C1968 C1967 1.524 . S
C1968 C1969 1.397 . S
C1968 C1973 1.363 . S
C1969 H1940 0.950 . S
C1969 C1968 1.397 . S
C1969 C1970 1.334 . S
C1970 H1941 0.950 . S
C1970 C1969 1.334 . S
C1970 C1971 1.287 . S
C1971 C1970 1.287 . S
C1971 C1972 1.524 . S
C1971 H1974 0.999 . S
C1972 H1942 0.950 . S
C1972 C1971 1.524 . S
C1972 C1973 1.415 . S
C1973 H1943 0.950 . S
C1973 C1968 1.363 . S
C1973 C1972 1.415 . S
H1974 C1971 0.999 . S
H1975 C1956 0.913 . S
H1976 C1994 0.951 . S
H1977 C1996 0.951 . S
H1978 C1998 0.950 . S
H1979 C1999 0.950 . S
H1980 C2001 0.950 . S
H1981 C2004 0.950 . S
H1982 C2005 0.950 . S
H1983 C2007 0.950 . S
H1984 C2008 0.950 . S
H1985 C2009 0.951 . S
H1986 C2011 0.951 . S
H1987 C2013 0.950 . S
H1988 C2014 0.950 . S
H1989 C2016 0.950 . S
H1990 C2019 0.950 . S
H1991 C2020 0.950 . S
H1992 C2022 0.950 . S
H1993 C2023 0.950 . S
C1994 H1976 0.951 . S
C1994 C1995 1.366 . S
C1994 C1996 1.388 . S
C1995 C1994 1.366 . S
C1995 C1999 1.385 . S
C1996 H1977 0.951 . S
C1996 C1994 1.388 . S
C1996 C1997 1.366 . S
C1997 C1996 1.366 . S
C1997 C1998 1.414 . S
C1997 C2000 1.499 . S
C1998 H1978 0.950 . S
C1998 C1997 1.414 . S
C1998 C1999 1.374 . S
C1999 H1979 0.950 . S
C1999 C1995 1.385 . S
C1999 C1998 1.374 . S
C2000 C1997 1.499 . S
C2000 C2001 1.373 . S
C2000 C2002 1.389 . S
C2001 H1980 0.950 . S
C2001 C2000 1.373 . S
C2001 C2017 1.377 . S
C2002 C2000 1.389 . S
C2002 C2003 1.524 . S
C2002 C2016 1.377 . S
C2003 C2002 1.524 . S
C2003 C2004 1.397 . S
C2003 C2008 1.363 . S
C2004 H1981 0.950 . S
C2004 C2003 1.397 . S
C2004 C2005 1.334 . S
C2005 H1982 0.950 . S
C2005 C2004 1.334 . S
C2005 C2006 1.287 . S
C2006 C2005 1.287 . S
C2006 C2007 1.524 . S
C2006 H2025 0.913 . S
C2007 H1983 0.950 . S
C2007 C2006 1.524 . S
C2007 C2008 1.415 . S
C2008 H1984 0.950 . S
C2008 C2003 1.363 . S
C2008 C2007 1.415 . S
C2009 H1985 0.951 . S
C2009 C2010 1.366 . S
C2009 C2011 1.388 . S
C2010 C2009 1.366 . S
C2010 C2014 1.385 . S
C2011 H1986 0.951 . S
C2011 C2009 1.388 . S
C2011 C2012 1.366 . S
C2012 C2011 1.366 . S
C2012 C2013 1.414 . S
C2012 C2015 1.499 . S
C2013 H1987 0.950 . S
C2013 C2012 1.414 . S
C2013 C2014 1.374 . S
C2014 H1988 0.950 . S
C2014 C2010 1.385 . S
C2014 C2013 1.374 . S
C2015 C2012 1.499 . S
C2015 C2016 1.373 . S
C2015 C2017 1.389 . S
C2016 H1989 0.950 . S
C2016 C2002 1.377 . S
C2016 C2015 1.373 . S
C2017 C2001 1.377 . S
C2017 C2015 1.389 . S
C2017 C2018 1.524 . S
C2018 C2017 1.524 . S
C2018 C2019 1.397 . S
C2018 C2023 1.363 . S
C2019 H1990 0.950 . S
C2019 C2018 1.397 . S
C2019 C2020 1.334 . S
C2020 H1991 0.950 . S
C2020 C2019 1.334 . S
C2020 C2021 1.287 . S
C2021 C2020 1.287 . S
C2021 C2022 1.524 . S
C2021 H2024 0.999 . S
C2022 H1992 0.950 . S
C2022 C2021 1.524 . S
C2022 C2023 1.415 . S
C2023 H1993 0.950 . S
C2023 C2018 1.363 . S
C2023 C2022 1.415 . S
H2024 C2021 0.999 . S
H2025 C2006 0.913 . S
H2026 C2044 0.951 . S
H2027 C2046 0.951 . S
H2028 C2048 0.950 . S
H2029 C2049 0.950 . S
H2030 C2051 0.950 . S
H2031 C2054 0.950 . S
H2032 C2055 0.950 . S
H2033 C2057 0.950 . S
H2034 C2058 0.950 . S
H2035 C2059 0.951 . S
H2036 C2061 0.951 . S
H2037 C2063 0.950 . S
H2038 C2064 0.950 . S
H2039 C2066 0.950 . S
H2040 C2069 0.950 . S
H2041 C2070 0.950 . S
H2042 C2072 0.950 . S
H2043 C2073 0.950 . S
C2044 H2026 0.951 . S
C2044 C2045 1.366 . S
C2044 C2046 1.388 . S
C2045 C2044 1.366 . S
C2045 C2049 1.385 . S
C2046 H2027 0.951 . S
C2046 C2044 1.388 . S
C2046 C2047 1.366 . S
C2047 C2046 1.366 . S
C2047 C2048 1.414 . S
C2047 C2050 1.499 . S
C2048 H2028 0.950 . S
C2048 C2047 1.414 . S
C2048 C2049 1.374 . S
C2049 H2029 0.950 . S
C2049 C2045 1.385 . S
C2049 C2048 1.374 . S
C2050 C2047 1.499 . S
C2050 C2051 1.373 . S
C2050 C2052 1.389 . S
C2051 H2030 0.950 . S
C2051 C2050 1.373 . S
C2051 C2067 1.377 . S
C2052 C2050 1.389 . S
C2052 C2053 1.524 . S
C2052 C2066 1.377 . S
C2053 C2052 1.524 . S
C2053 C2054 1.397 . S
C2053 C2058 1.363 . S
C2054 H2031 0.950 . S
C2054 C2053 1.397 . S
C2054 C2055 1.334 . S
C2055 H2032 0.950 . S
C2055 C2054 1.334 . S
C2055 C2056 1.287 . S
C2056 C2055 1.287 . S
C2056 C2057 1.524 . S
C2056 H2075 0.913 . S
C2057 H2033 0.950 . S
C2057 C2056 1.524 . S
C2057 C2058 1.415 . S
C2058 H2034 0.950 . S
C2058 C2053 1.363 . S
C2058 C2057 1.415 . S
C2059 H2035 0.951 . S
C2059 C2060 1.366 . S
C2059 C2061 1.388 . S
C2060 C2059 1.366 . S
C2060 C2064 1.385 . S
C2061 H2036 0.951 . S
C2061 C2059 1.388 . S
C2061 C2062 1.366 . S
C2062 C2061 1.366 . S
C2062 C2063 1.414 . S
C2062 C2065 1.499 . S
C2063 H2037 0.950 . S
C2063 C2062 1.414 . S
C2063 C2064 1.374 . S
C2064 H2038 0.950 . S
C2064 C2060 1.385 . S
C2064 C2063 1.374 . S
C2065 C2062 1.499 . S
C2065 C2066 1.373 . S
C2065 C2067 1.389 . S
C2066 H2039 0.950 . S
C2066 C2052 1.377 . S
C2066 C2065 1.373 . S
C2067 C2051 1.377 . S
C2067 C2065 1.389 . S
C2067 C2068 1.524 . S
C2068 C2067 1.524 . S
C2068 C2069 1.397 . S
C2068 C2073 1.363 . S
C2069 H2040 0.950 . S
C2069 C2068 1.397 . S
C2069 C2070 1.334 . S
C2070 H2041 0.950 . S
C2070 C2069 1.334 . S
C2070 C2071 1.287 . S
C2071 C2070 1.287 . S
C2071 C2072 1.524 . S
C2071 H2074 0.999 . S
C2072 H2042 0.950 . S
C2072 C2071 1.524 . S
C2072 C2073 1.415 . S
C2073 H2043 0.950 . S
C2073 C2068 1.363 . S
C2073 C2072 1.415 . S
H2074 C2071 0.999 . S
H2075 C2056 0.913 . S
H2076 C2094 0.951 . S
H2077 C2096 0.951 . S
H2078 C2098 0.950 . S
H2079 C2099 0.950 . S
H2080 C2101 0.950 . S
H2081 C2104 0.950 . S
H2082 C2105 0.950 . S
H2083 C2107 0.950 . S
H2084 C2108 0.950 . S
H2085 C2109 0.951 . S
H2086 C2111 0.951 . S
H2087 C2113 0.950 . S
H2088 C2114 0.950 . S
H2089 C2116 0.950 . S
H2090 C2119 0.950 . S
H2091 C2120 0.950 . S
H2092 C2122 0.950 . S
H2093 C2123 0.950 . S
C2094 H2076 0.951 . S
C2094 C2095 1.366 . S
C2094 C2096 1.388 . S
C2095 C2094 1.366 . S
C2095 C2099 1.385 . S
C2096 H2077 0.951 . S
C2096 C2094 1.388 . S
C2096 C2097 1.366 . S
C2097 C2096 1.366 . S
C2097 C2098 1.414 . S
C2097 C2100 1.499 . S
C2098 H2078 0.950 . S
C2098 C2097 1.414 . S
C2098 C2099 1.374 . S
C2099 H2079 0.950 . S
C2099 C2095 1.385 . S
C2099 C2098 1.374 . S
C2100 C2097 1.499 . S
C2100 C2101 1.373 . S
C2100 C2102 1.389 . S
C2101 H2080 0.950 . S
C2101 C2100 1.373 . S
C2101 C2117 1.377 . S
C2102 C2100 1.389 . S
C2102 C2103 1.524 . S
C2102 C2116 1.377 . S
C2103 C2102 1.524 . S
C2103 C2104 1.397 . S
C2103 C2108 1.363 . S
C2104 H2081 0.950 . S
C2104 C2103 1.397 . S
C2104 C2105 1.334 . S
C2105 H2082 0.950 . S
C2105 C2104 1.334 . S
C2105 C2106 1.287 . S
C2106 C2105 1.287 . S
C2106 C2107 1.524 . S
C2106 H2125 0.913 . S
C2107 H2083 0.950 . S
C2107 C2106 1.524 . S
C2107 C2108 1.415 . S
C2108 H2084 0.950 . S
C2108 C2103 1.363 . S
C2108 C2107 1.415 . S
C2109 H2085 0.951 . S
C2109 C2110 1.366 . S
C2109 C2111 1.388 . S
C2110 C2109 1.366 . S
C2110 C2114 1.385 . S
C2111 H2086 0.951 . S
C2111 C2109 1.388 . S
C2111 C2112 1.366 . S
C2112 C2111 1.366 . S
C2112 C2113 1.414 . S
C2112 C2115 1.499 . S
C2113 H2087 0.950 . S
C2113 C2112 1.414 . S
C2113 C2114 1.374 . S
C2114 H2088 0.950 . S
C2114 C2110 1.385 . S
C2114 C2113 1.374 . S
C2115 C2112 1.499 . S
C2115 C2116 1.373 . S
C2115 C2117 1.389 . S
C2116 H2089 0.950 . S
C2116 C2102 1.377 . S
C2116 C2115 1.373 . S
C2117 C2101 1.377 . S
C2117 C2115 1.389 . S
C2117 C2118 1.524 . S
C2118 C2117 1.524 . S
C2118 C2119 1.397 . S
C2118 C2123 1.363 . S
C2119 H2090 0.950 . S
C2119 C2118 1.397 . S
C2119 C2120 1.334 . S
C2120 H2091 0.950 . S
C2120 C2119 1.334 . S
C2120 C2121 1.287 . S
C2121 C2120 1.287 . S
C2121 C2122 1.524 . S
C2121 H2124 0.999 . S
C2122 H2092 0.950 . S
C2122 C2121 1.524 . S
C2122 C2123 1.415 . S
C2123 H2093 0.950 . S
C2123 C2118 1.363 . S
C2123 C2122 1.415 . S
H2124 C2121 0.999 . S
H2125 C2106 0.913 . S
H2126 C2144 0.951 . S
H2127 C2146 0.951 . S
H2128 C2148 0.950 . S
H2129 C2149 0.950 . S
H2130 C2151 0.950 . S
H2131 C2154 0.950 . S
H2132 C2155 0.950 . S
H2133 C2157 0.950 . S
H2134 C2158 0.950 . S
H2135 C2159 0.951 . S
H2136 C2161 0.951 . S
H2137 C2163 0.950 . S
H2138 C2164 0.950 . S
H2139 C2166 0.950 . S
H2140 C2169 0.950 . S
H2141 C2170 0.950 . S
H2142 C2172 0.950 . S
H2143 C2173 0.950 . S
C2144 H2126 0.951 . S
C2144 C2145 1.366 . S
C2144 C2146 1.388 . S
C2145 C2144 1.366 . S
C2145 C2149 1.385 . S
C2146 H2127 0.951 . S
C2146 C2144 1.388 . S
C2146 C2147 1.366 . S
C2147 C2146 1.366 . S
C2147 C2148 1.414 . S
C2147 C2150 1.499 . S
C2148 H2128 0.950 . S
C2148 C2147 1.414 . S
C2148 C2149 1.374 . S
C2149 H2129 0.950 . S
C2149 C2145 1.385 . S
C2149 C2148 1.374 . S
C2150 C2147 1.499 . S
C2150 C2151 1.373 . S
C2150 C2152 1.389 . S
C2151 H2130 0.950 . S
C2151 C2150 1.373 . S
C2151 C2167 1.377 . S
C2152 C2150 1.389 . S
C2152 C2153 1.524 . S
C2152 C2166 1.377 . S
C2153 C2152 1.524 . S
C2153 C2154 1.397 . S
C2153 C2158 1.363 . S
C2154 H2131 0.950 . S
C2154 C2153 1.397 . S
C2154 C2155 1.334 . S
C2155 H2132 0.950 . S
C2155 C2154 1.334 . S
C2155 C2156 1.287 . S
C2156 C2155 1.287 . S
C2156 C2157 1.524 . S
C2156 H2175 0.913 . S
C2157 H2133 0.950 . S
C2157 C2156 1.524 . S
C2157 C2158 1.415 . S
C2158 H2134 0.950 . S
C2158 C2153 1.363 . S
C2158 C2157 1.415 . S
C2159 H2135 0.951 . S
C2159 C2160 1.366 . S
C2159 C2161 1.388 . S
C2160 C2159 1.366 . S
C2160 C2164 1.385 . S
C2161 H2136 0.951 . S
C2161 C2159 1.388 . S
C2161 C2162 1.366 . S
C2162 C2161 1.366 . S
C2162 C2163 1.414 . S
C2162 C2165 1.499 . S
C2163 H2137 0.950 . S
C2163 C2162 1.414 . S
C2163 C2164 1.374 . S
C2164 H2138 0.950 . S
C2164 C2160 1.385 . S
C2164 C2163 1.374 . S
C2165 C2162 1.499 . S
C2165 C2166 1.373 . S
C2165 C2167 1.389 . S
C2166 H2139 0.950 . S
C2166 C2152 1.377 . S
C2166 C2165 1.373 . S
C2167 C2151 1.377 . S
C2167 C2165 1.389 . S
C2167 C2168 1.524 . S
C2168 C2167 1.524 . S
C2168 C2169 1.397 . S
C2168 C2173 1.363 . S
C2169 H2140 0.950 . S
C2169 C2168 1.397 . S
C2169 C2170 1.334 . S
C2170 H2141 0.950 . S
C2170 C2169 1.334 . S
C2170 C2171 1.287 . S
C2171 C2170 1.287 . S
C2171 C2172 1.524 . S
C2171 H2174 0.999 . S
C2172 H2142 0.950 . S
C2172 C2171 1.524 . S
C2172 C2173 1.415 . S
C2173 H2143 0.950 . S
C2173 C2168 1.363 . S
C2173 C2172 1.415 . S
H2174 C2171 0.999 . S
H2175 C2156 0.913 . S
H2176 C2194 0.951 . S
H2177 C2196 0.951 . S
H2178 C2198 0.950 . S
H2179 C2199 0.950 . S
H2180 C2201 0.950 . S
H2181 C2204 0.950 . S
H2182 C2205 0.950 . S
H2183 C2207 0.950 . S
H2184 C2208 0.950 . S
H2185 C2209 0.951 . S
H2186 C2211 0.951 . S
H2187 C2213 0.950 . S
H2188 C2214 0.950 . S
H2189 C2216 0.950 . S
H2190 C2219 0.950 . S
H2191 C2220 0.950 . S
H2192 C2222 0.950 . S
H2193 C2223 0.950 . S
C2194 H2176 0.951 . S
C2194 C2195 1.366 . S
C2194 C2196 1.388 . S
C2195 C2194 1.366 . S
C2195 C2199 1.385 . S
C2196 H2177 0.951 . S
C2196 C2194 1.388 . S
C2196 C2197 1.366 . S
C2197 C2196 1.366 . S
C2197 C2198 1.414 . S
C2197 C2200 1.499 . S
C2198 H2178 0.950 . S
C2198 C2197 1.414 . S
C2198 C2199 1.374 . S
C2199 H2179 0.950 . S
C2199 C2195 1.385 . S
C2199 C2198 1.374 . S
C2200 C2197 1.499 . S
C2200 C2201 1.373 . S
C2200 C2202 1.389 . S
C2201 H2180 0.950 . S
C2201 C2200 1.373 . S
C2201 C2217 1.377 . S
C2202 C2200 1.389 . S
C2202 C2203 1.524 . S
C2202 C2216 1.377 . S
C2203 C2202 1.524 . S
C2203 C2204 1.397 . S
C2203 C2208 1.363 . S
C2204 H2181 0.950 . S
C2204 C2203 1.397 . S
C2204 C2205 1.334 . S
C2205 H2182 0.950 . S
C2205 C2204 1.334 . S
C2205 C2206 1.287 . S
C2206 C2205 1.287 . S
C2206 C2207 1.524 . S
C2206 H2225 0.913 . S
C2207 H2183 0.950 . S
C2207 C2206 1.524 . S
C2207 C2208 1.415 . S
C2208 H2184 0.950 . S
C2208 C2203 1.363 . S
C2208 C2207 1.415 . S
C2209 H2185 0.951 . S
C2209 C2210 1.366 . S
C2209 C2211 1.388 . S
C2210 C2209 1.366 . S
C2210 C2214 1.385 . S
C2211 H2186 0.951 . S
C2211 C2209 1.388 . S
C2211 C2212 1.366 . S
C2212 C2211 1.366 . S
C2212 C2213 1.414 . S
C2212 C2215 1.499 . S
C2213 H2187 0.950 . S
C2213 C2212 1.414 . S
C2213 C2214 1.374 . S
C2214 H2188 0.950 . S
C2214 C2210 1.385 . S
C2214 C2213 1.374 . S
C2215 C2212 1.499 . S
C2215 C2216 1.373 . S
C2215 C2217 1.389 . S
C2216 H2189 0.950 . S
C2216 C2202 1.377 . S
C2216 C2215 1.373 . S
C2217 C2201 1.377 . S
C2217 C2215 1.389 . S
C2217 C2218 1.524 . S
C2218 C2217 1.524 . S
C2218 C2219 1.397 . S
C2218 C2223 1.363 1_455 S
C2219 H2190 0.950 . S
C2219 C2218 1.397 . S
C2219 C2220 1.334 1_454 S
C2220 H2191 0.950 . S
C2220 C2219 1.334 1_656 S
C2220 C2221 1.287 1_556 S
C2221 C2220 1.287 1_554 S
C2221 C2222 1.524 . S
C2221 H2224 0.999 1_554 S
C2222 H2192 0.950 . S
C2222 C2221 1.524 . S
C2222 C2223 1.415 . S
C2223 H2193 0.950 . S
C2223 C2218 1.363 1_655 S
C2223 C2222 1.415 . S
H2224 C2221 0.999 1_556 S
H2225 C2206 0.913 . S
H2226 C2244 0.951 . S
H2227 C2246 0.951 . S
H2228 C2248 0.950 . S
H2229 C2249 0.950 . S
H2230 C2251 0.950 . S
H2231 C2254 0.950 . S
H2232 C2255 0.950 . S
H2233 C2257 0.950 . S
H2234 C2258 0.950 . S
H2235 C2259 0.951 . S
H2236 C2261 0.951 . S
H2237 C2263 0.950 . S
H2238 C2264 0.950 . S
H2239 C2266 0.950 . S
H2240 C2269 0.950 . S
H2241 C2270 0.950 . S
H2242 C2272 0.950 . S
H2243 C2273 0.950 . S
C2244 H2226 0.951 . S
C2244 C2245 1.366 . S
C2244 C2246 1.388 . S
C2245 C2244 1.366 . S
C2245 C2249 1.385 . S
C2246 H2227 0.951 . S
C2246 C2244 1.388 . S
C2246 C2247 1.366 . S
C2247 C2246 1.366 . S
C2247 C2248 1.414 . S
C2247 C2250 1.499 . S
C2248 H2228 0.950 . S
C2248 C2247 1.414 . S
C2248 C2249 1.374 . S
C2249 H2229 0.950 . S
C2249 C2245 1.385 . S
C2249 C2248 1.374 . S
C2250 C2247 1.499 . S
C2250 C2251 1.373 . S
C2250 C2252 1.389 . S
C2251 H2230 0.950 . S
C2251 C2250 1.373 . S
C2251 C2267 1.377 . S
C2252 C2250 1.389 . S
C2252 C2253 1.524 . S
C2252 C2266 1.377 . S
C2253 C2252 1.524 . S
C2253 C2254 1.397 . S
C2253 C2258 1.363 . S
C2254 H2231 0.950 . S
C2254 C2253 1.397 . S
C2254 C2255 1.334 . S
C2255 H2232 0.950 . S
C2255 C2254 1.334 . S
C2255 C2256 1.287 . S
C2256 C2255 1.287 . S
C2256 C2257 1.524 . S
C2256 H2275 0.913 . S
C2257 H2233 0.950 . S
C2257 C2256 1.524 . S
C2257 C2258 1.415 . S
C2258 H2234 0.950 . S
C2258 C2253 1.363 . S
C2258 C2257 1.415 . S
C2259 H2235 0.951 . S
C2259 C2260 1.366 . S
C2259 C2261 1.388 . S
C2260 C2259 1.366 . S
C2260 C2264 1.385 . S
C2261 H2236 0.951 . S
C2261 C2259 1.388 . S
C2261 C2262 1.366 . S
C2262 C2261 1.366 . S
C2262 C2263 1.414 . S
C2262 C2265 1.499 . S
C2263 H2237 0.950 . S
C2263 C2262 1.414 . S
C2263 C2264 1.374 . S
C2264 H2238 0.950 . S
C2264 C2260 1.385 . S
C2264 C2263 1.374 . S
C2265 C2262 1.499 . S
C2265 C2266 1.373 . S
C2265 C2267 1.389 . S
C2266 H2239 0.950 . S
C2266 C2252 1.377 . S
C2266 C2265 1.373 . S
C2267 C2251 1.377 . S
C2267 C2265 1.389 . S
C2267 C2268 1.524 . S
C2268 C2267 1.524 . S
C2268 C2269 1.397 . S
C2268 C2273 1.363 . S
C2269 H2240 0.950 . S
C2269 C2268 1.397 . S
C2269 C2270 1.334 . S
C2270 H2241 0.950 . S
C2270 C2269 1.334 . S
C2270 C2271 1.287 . S
C2271 C2270 1.287 . S
C2271 C2272 1.524 . S
C2271 H2274 0.999 . S
C2272 H2242 0.950 . S
C2272 C2271 1.524 . S
C2272 C2273 1.415 . S
C2273 H2243 0.950 . S
C2273 C2268 1.363 . S
C2273 C2272 1.415 . S
H2274 C2271 0.999 . S
H2275 C2256 0.913 . S
H2276 C2294 0.951 . S
H2277 C2296 0.951 . S
H2278 C2298 0.950 . S
H2279 C2299 0.950 . S
H2280 C2301 0.950 . S
H2281 C2304 0.950 . S
H2282 C2305 0.950 . S
H2283 C2307 0.950 . S
H2284 C2308 0.950 . S
H2285 C2309 0.951 . S
H2286 C2311 0.951 . S
H2287 C2313 0.950 . S
H2288 C2314 0.950 . S
H2289 C2316 0.950 . S
H2290 C2319 0.950 . S
H2291 C2320 0.950 . S
H2292 C2322 0.950 . S
H2293 C2323 0.950 . S
C2294 H2276 0.951 . S
C2294 C2295 1.366 . S
C2294 C2296 1.388 . S
C2295 C2294 1.366 . S
C2295 C2299 1.385 . S
C2296 H2277 0.951 . S
C2296 C2294 1.388 . S
C2296 C2297 1.366 . S
C2297 C2296 1.366 . S
C2297 C2298 1.414 . S
C2297 C2300 1.499 . S
C2298 H2278 0.950 . S
C2298 C2297 1.414 . S
C2298 C2299 1.374 . S
C2299 H2279 0.950 . S
C2299 C2295 1.385 . S
C2299 C2298 1.374 . S
C2300 C2297 1.499 . S
C2300 C2301 1.373 . S
C2300 C2302 1.389 . S
C2301 H2280 0.950 . S
C2301 C2300 1.373 . S
C2301 C2317 1.377 . S
C2302 C2300 1.389 . S
C2302 C2303 1.524 . S
C2302 C2316 1.377 . S
C2303 C2302 1.524 . S
C2303 C2304 1.397 . S
C2303 C2308 1.363 . S
C2304 H2281 0.950 . S
C2304 C2303 1.397 . S
C2304 C2305 1.334 . S
C2305 H2282 0.950 . S
C2305 C2304 1.334 . S
C2305 C2306 1.287 . S
C2306 C2305 1.287 . S
C2306 C2307 1.524 . S
C2306 H2325 0.913 . S
C2307 H2283 0.950 . S
C2307 C2306 1.524 . S
C2307 C2308 1.415 . S
C2308 H2284 0.950 . S
C2308 C2303 1.363 . S
C2308 C2307 1.415 . S
C2309 H2285 0.951 . S
C2309 C2310 1.366 . S
C2309 C2311 1.388 . S
C2310 C2309 1.366 . S
C2310 C2314 1.385 . S
C2311 H2286 0.951 . S
C2311 C2309 1.388 . S
C2311 C2312 1.366 . S
C2312 C2311 1.366 . S
C2312 C2313 1.414 . S
C2312 C2315 1.499 . S
C2313 H2287 0.950 . S
C2313 C2312 1.414 . S
C2313 C2314 1.374 . S
C2314 H2288 0.950 . S
C2314 C2310 1.385 . S
C2314 C2313 1.374 . S
C2315 C2312 1.499 . S
C2315 C2316 1.373 . S
C2315 C2317 1.389 . S
C2316 H2289 0.950 . S
C2316 C2302 1.377 . S
C2316 C2315 1.373 . S
C2317 C2301 1.377 . S
C2317 C2315 1.389 . S
C2317 C2318 1.524 . S
C2318 C2317 1.524 . S
C2318 C2319 1.397 . S
C2318 C2323 1.363 . S
C2319 H2290 0.950 . S
C2319 C2318 1.397 . S
C2319 C2320 1.334 . S
C2320 H2291 0.950 . S
C2320 C2319 1.334 . S
C2320 C2321 1.287 . S
C2321 C2320 1.287 . S
C2321 C2322 1.524 . S
C2321 H2324 0.999 . S
C2322 H2292 0.950 . S
C2322 C2321 1.524 . S
C2322 C2323 1.415 . S
C2323 H2293 0.950 . S
C2323 C2318 1.363 . S
C2323 C2322 1.415 . S
H2324 C2321 0.999 . S
H2325 C2306 0.913 . S
H2326 C2344 0.951 . S
H2327 C2346 0.951 . S
H2328 C2348 0.950 . S
H2329 C2349 0.950 . S
H2330 C2351 0.950 . S
H2331 C2354 0.950 . S
H2332 C2355 0.950 . S
H2333 C2357 0.950 . S
H2334 C2358 0.950 . S
H2335 C2359 0.951 . S
H2336 C2361 0.951 . S
H2337 C2363 0.950 . S
H2338 C2364 0.950 . S
H2339 C2366 0.950 . S
H2340 C2369 0.950 . S
H2341 C2370 0.950 . S
H2342 C2372 0.950 . S
H2343 C2373 0.950 . S
C2344 H2326 0.951 . S
C2344 C2345 1.366 . S
C2344 C2346 1.388 . S
C2345 C2344 1.366 . S
C2345 C2349 1.385 . S
C2346 H2327 0.951 . S
C2346 C2344 1.388 . S
C2346 C2347 1.366 . S
C2347 C2346 1.366 . S
C2347 C2348 1.414 . S
C2347 C2350 1.499 . S
C2348 H2328 0.950 . S
C2348 C2347 1.414 . S
C2348 C2349 1.374 . S
C2349 H2329 0.950 . S
C2349 C2345 1.385 . S
C2349 C2348 1.374 . S
C2350 C2347 1.499 . S
C2350 C2351 1.373 . S
C2350 C2352 1.389 . S
C2351 H2330 0.950 . S
C2351 C2350 1.373 . S
C2351 C2367 1.377 . S
C2352 C2350 1.389 . S
C2352 C2353 1.524 . S
C2352 C2366 1.377 . S
C2353 C2352 1.524 . S
C2353 C2354 1.397 . S
C2353 C2358 1.363 . S
C2354 H2331 0.950 . S
C2354 C2353 1.397 . S
C2354 C2355 1.334 . S
C2355 H2332 0.950 . S
C2355 C2354 1.334 . S
C2355 C2356 1.287 . S
C2356 C2355 1.287 . S
C2356 C2357 1.524 . S
C2356 H2375 0.913 . S
C2357 H2333 0.950 . S
C2357 C2356 1.524 . S
C2357 C2358 1.415 . S
C2358 H2334 0.950 . S
C2358 C2353 1.363 . S
C2358 C2357 1.415 . S
C2359 H2335 0.951 . S
C2359 C2360 1.366 . S
C2359 C2361 1.388 . S
C2360 C2359 1.366 . S
C2360 C2364 1.385 . S
C2361 H2336 0.951 . S
C2361 C2359 1.388 . S
C2361 C2362 1.366 . S
C2362 C2361 1.366 . S
C2362 C2363 1.414 . S
C2362 C2365 1.499 . S
C2363 H2337 0.950 . S
C2363 C2362 1.414 . S
C2363 C2364 1.374 . S
C2364 H2338 0.950 . S
C2364 C2360 1.385 . S
C2364 C2363 1.374 . S
C2365 C2362 1.499 . S
C2365 C2366 1.373 . S
C2365 C2367 1.389 . S
C2366 H2339 0.950 . S
C2366 C2352 1.377 . S
C2366 C2365 1.373 . S
C2367 C2351 1.377 . S
C2367 C2365 1.389 . S
C2367 C2368 1.524 . S
C2368 C2367 1.524 . S
C2368 C2369 1.397 . S
C2368 C2373 1.363 . S
C2369 H2340 0.950 . S
C2369 C2368 1.397 . S
C2369 C2370 1.334 . S
C2370 H2341 0.950 . S
C2370 C2369 1.334 . S
C2370 C2371 1.287 . S
C2371 C2370 1.287 . S
C2371 C2372 1.524 . S
C2371 H2374 0.999 . S
C2372 H2342 0.950 . S
C2372 C2371 1.524 . S
C2372 C2373 1.415 . S
C2373 H2343 0.950 . S
C2373 C2368 1.363 . S
C2373 C2372 1.415 . S
H2374 C2371 0.999 . S
H2375 C2356 0.913 . S
H2376 C2394 0.951 . S
H2377 C2396 0.951 . S
H2378 C2398 0.950 . S
H2379 C2399 0.950 . S
H2380 C2401 0.950 . S
H2381 C2404 0.950 1_455 S
H2382 C2405 0.950 1_455 S
H2383 C2407 0.950 . S
H2384 C2408 0.950 . S
H2385 C2409 0.951 . S
H2386 C2411 0.951 . S
H2387 C2413 0.950 . S
H2388 C2414 0.950 . S
H2389 C2416 0.950 . S
H2390 C2419 0.950 . S
H2391 C2420 0.954 1_655 S
H2392 C2422 0.950 . S
H2393 C2423 0.950 . S
C2394 H2376 0.951 . S
C2394 C2395 1.366 . S
C2394 C2396 1.388 . S
C2395 C2394 1.366 . S
C2395 C2399 1.385 1_655 S
C2396 H2377 0.951 . S
C2396 C2394 1.388 . S
C2396 C2397 1.366 . S
C2397 C2396 1.366 . S
C2397 C2398 1.414 1_655 S
C2397 C2400 1.499 . S
C2398 H2378 0.950 . S
C2398 C2397 1.414 1_455 S
C2398 C2399 1.374 . S
C2399 H2379 0.950 . S
C2399 C2395 1.385 1_455 S
C2399 C2398 1.374 . S
C2400 C2397 1.499 . S
C2400 C2401 1.373 1_655 S
C2400 C2402 1.389 . S
C2401 H2380 0.950 . S
C2401 C2400 1.373 1_455 S
C2401 C2417 1.377 . S
C2402 C2400 1.389 . S
C2402 C2403 1.524 . S
C2402 C2416 1.377 . S
C2403 C2402 1.524 . S
C2403 C2404 1.397 . S
C2403 C2408 1.363 . S
C2404 H2381 0.950 1_655 S
C2404 C2403 1.397 . S
C2404 C2405 1.334 . S
C2405 H2382 0.950 1_655 S
C2405 C2404 1.334 . S
C2405 C2406 1.287 . S
C2406 C2405 1.287 . S
C2406 C2407 1.524 . S
C2406 H2425 0.913 . S
C2407 H2383 0.950 . S
C2407 C2406 1.524 . S
C2407 C2408 1.415 . S
C2408 H2384 0.950 . S
C2408 C2403 1.363 . S
C2408 C2407 1.415 . S
C2409 H2385 0.951 . S
C2409 C2410 1.366 1_455 S
C2409 C2411 1.388 . S
C2410 C2409 1.366 1_655 S
C2410 C2414 1.385 . S
C2411 H2386 0.951 . S
C2411 C2409 1.388 . S
C2411 C2412 1.366 1_455 S
C2412 C2411 1.366 1_655 S
C2412 C2413 1.414 . S
C2412 C2415 1.499 . S
C2413 H2387 0.950 . S
C2413 C2412 1.414 . S
C2413 C2414 1.374 . S
C2414 H2388 0.950 . S
C2414 C2410 1.385 . S
C2414 C2413 1.374 . S
C2415 C2412 1.499 . S
C2415 C2416 1.373 . S
C2415 C2417 1.389 1_655 S
C2416 H2389 0.950 . S
C2416 C2402 1.377 . S
C2416 C2415 1.373 . S
C2417 C2401 1.377 . S
C2417 C2415 1.389 1_455 S
C2417 C2418 1.524 . S
C2418 C2417 1.524 . S
C2418 C2419 1.397 1_455 S
C2418 C2423 1.363 . S
C2419 H2390 0.950 . S
C2419 C2418 1.397 1_655 S
C2419 C2420 1.337 1_655 S
C2420 H2391 0.954 1_455 S
C2420 C2419 1.337 1_455 S
C2420 C2421 1.280 . S
C2421 C2420 1.280 . S
C2421 C2422 1.524 . S
C2421 H2424 0.999 . S
C2422 H2392 0.950 . S
C2422 C2421 1.524 . S
C2422 C2423 1.415 . S
C2423 H2393 0.950 . S
C2423 C2418 1.363 . S
C2423 C2422 1.415 . S
H2424 C2421 0.999 . S
H2425 C2406 0.913 . S
H2426 C2444 0.951 . S
H2427 C2446 0.951 . S
H2428 C2448 0.950 . S
H2429 C2449 0.950 . S
H2430 C2451 0.950 . S
H2431 C2454 0.950 . S
H2432 C2455 0.950 . S
H2433 C2457 0.950 . S
H2434 C2458 0.950 . S
H2435 C2459 0.951 . S
H2436 C2461 0.951 . S
H2437 C2463 0.950 . S
H2438 C2464 0.950 . S
H2439 C2466 0.950 . S
H2440 C2469 0.950 . S
H2441 C2470 0.950 . S
H2442 C2472 0.950 . S
H2443 C2473 0.950 . S
C2444 H2426 0.951 . S
C2444 C2445 1.366 . S
C2444 C2446 1.388 . S
C2445 C2444 1.366 . S
C2445 C2449 1.385 . S
C2446 H2427 0.951 . S
C2446 C2444 1.388 . S
C2446 C2447 1.366 . S
C2447 C2446 1.366 . S
C2447 C2448 1.414 . S
C2447 C2450 1.499 . S
C2448 H2428 0.950 . S
C2448 C2447 1.414 . S
C2448 C2449 1.374 . S
C2449 H2429 0.950 . S
C2449 C2445 1.385 . S
C2449 C2448 1.374 . S
C2450 C2447 1.499 . S
C2450 C2451 1.373 . S
C2450 C2452 1.389 . S
C2451 H2430 0.950 . S
C2451 C2450 1.373 . S
C2451 C2467 1.377 . S
C2452 C2450 1.389 . S
C2452 C2453 1.524 . S
C2452 C2466 1.377 . S
C2453 C2452 1.524 . S
C2453 C2454 1.397 . S
C2453 C2458 1.363 . S
C2454 H2431 0.950 . S
C2454 C2453 1.397 . S
C2454 C2455 1.334 . S
C2455 H2432 0.950 . S
C2455 C2454 1.334 . S
C2455 C2456 1.287 . S
C2456 C2455 1.287 . S
C2456 C2457 1.524 . S
C2456 H2475 0.913 . S
C2457 H2433 0.950 . S
C2457 C2456 1.524 . S
C2457 C2458 1.415 . S
C2458 H2434 0.950 . S
C2458 C2453 1.363 . S
C2458 C2457 1.415 . S
C2459 H2435 0.951 . S
C2459 C2460 1.366 . S
C2459 C2461 1.388 . S
C2460 C2459 1.366 . S
C2460 C2464 1.385 . S
C2461 H2436 0.951 . S
C2461 C2459 1.388 . S
C2461 C2462 1.366 . S
C2462 C2461 1.366 . S
C2462 C2463 1.414 . S
C2462 C2465 1.499 . S
C2463 H2437 0.950 . S
C2463 C2462 1.414 . S
C2463 C2464 1.374 . S
C2464 H2438 0.950 . S
C2464 C2460 1.385 . S
C2464 C2463 1.374 . S
C2465 C2462 1.499 . S
C2465 C2466 1.373 . S
C2465 C2467 1.389 . S
C2466 H2439 0.950 . S
C2466 C2452 1.377 . S
C2466 C2465 1.373 . S
C2467 C2451 1.377 . S
C2467 C2465 1.389 . S
C2467 C2468 1.524 . S
C2468 C2467 1.524 . S
C2468 C2469 1.397 . S
C2468 C2473 1.363 . S
C2469 H2440 0.950 . S
C2469 C2468 1.397 . S
C2469 C2470 1.334 . S
C2470 H2441 0.950 . S
C2470 C2469 1.334 . S
C2470 C2471 1.287 . S
C2471 C2470 1.287 . S
C2471 C2472 1.524 . S
C2471 H2474 0.999 . S
C2472 H2442 0.950 . S
C2472 C2471 1.524 . S
C2472 C2473 1.415 . S
C2473 H2443 0.950 . S
C2473 C2468 1.363 . S
C2473 C2472 1.415 . S
H2474 C2471 0.999 . S
H2475 C2456 0.913 . S
H2476 C2494 0.951 . S
H2477 C2496 0.951 . S
H2478 C2498 0.950 . S
H2479 C2499 0.950 . S
H2480 C2501 0.950 . S
H2481 C2504 0.950 . S
H2482 C2505 0.950 . S
H2483 C2507 0.950 . S
H2484 C2508 0.950 . S
H2485 C2509 0.951 . S
H2486 C2511 0.951 . S
H2487 C2513 0.950 . S
H2488 C2514 0.950 . S
H2489 C2516 0.950 . S
H2490 C2519 0.950 . S
H2491 C2520 0.950 . S
H2492 C2522 0.950 . S
H2493 C2523 0.950 . S
C2494 H2476 0.951 . S
C2494 C2495 1.366 . S
C2494 C2496 1.388 . S
C2495 C2494 1.366 . S
C2495 C2499 1.385 . S
C2496 H2477 0.951 . S
C2496 C2494 1.388 . S
C2496 C2497 1.366 . S
C2497 C2496 1.366 . S
C2497 C2498 1.414 . S
C2497 C2500 1.499 . S
C2498 H2478 0.950 . S
C2498 C2497 1.414 . S
C2498 C2499 1.374 . S
C2499 H2479 0.950 . S
C2499 C2495 1.385 . S
C2499 C2498 1.374 . S
C2500 C2497 1.499 . S
C2500 C2501 1.373 . S
C2500 C2502 1.389 . S
C2501 H2480 0.950 . S
C2501 C2500 1.373 . S
C2501 C2517 1.377 . S
C2502 C2500 1.389 . S
C2502 C2503 1.524 . S
C2502 C2516 1.377 . S
C2503 C2502 1.524 . S
C2503 C2504 1.397 . S
C2503 C2508 1.363 . S
C2504 H2481 0.950 . S
C2504 C2503 1.397 . S
C2504 C2505 1.334 . S
C2505 H2482 0.950 . S
C2505 C2504 1.334 . S
C2505 C2506 1.287 . S
C2506 C2505 1.287 . S
C2506 C2507 1.524 . S
C2506 H2525 0.913 . S
C2507 H2483 0.950 . S
C2507 C2506 1.524 . S
C2507 C2508 1.415 . S
C2508 H2484 0.950 . S
C2508 C2503 1.363 . S
C2508 C2507 1.415 . S
C2509 H2485 0.951 . S
C2509 C2510 1.366 . S
C2509 C2511 1.388 1_554 S
C2510 C2509 1.366 . S
C2510 C2514 1.385 1_554 S
C2511 H2486 0.951 . S
C2511 C2509 1.388 1_556 S
C2511 C2512 1.366 . S
C2512 C2511 1.366 . S
C2512 C2513 1.414 . S
C2512 C2515 1.499 . S
C2513 H2487 0.950 . S
C2513 C2512 1.414 . S
C2513 C2514 1.374 . S
C2514 H2488 0.950 . S
C2514 C2510 1.385 1_556 S
C2514 C2513 1.374 . S
C2515 C2512 1.499 . S
C2515 C2516 1.373 . S
C2515 C2517 1.389 . S
C2516 H2489 0.950 . S
C2516 C2502 1.377 . S
C2516 C2515 1.373 . S
C2517 C2501 1.377 . S
C2517 C2515 1.389 . S
C2517 C2518 1.524 . S
C2518 C2517 1.524 . S
C2518 C2519 1.397 . S
C2518 C2523 1.363 . S
C2519 H2490 0.950 . S
C2519 C2518 1.397 . S
C2519 C2520 1.334 . S
C2520 H2491 0.950 . S
C2520 C2519 1.334 . S
C2520 C2521 1.287 . S
C2521 C2520 1.287 . S
C2521 C2522 1.524 . S
C2521 H2524 0.999 . S
C2522 H2492 0.950 . S
C2522 C2521 1.524 . S
C2522 C2523 1.415 . S
C2523 H2493 0.950 . S
C2523 C2518 1.363 . S
C2523 C2522 1.415 . S
H2524 C2521 0.999 . S
H2525 C2506 0.913 . S
H2526 C2544 0.951 . S
H2527 C2546 0.951 . S
H2528 C2548 0.952 . S
H2529 C2549 0.950 . S
H2530 C2551 0.950 . S
H2531 C2554 0.950 . S
H2532 C2555 0.950 . S
H2533 C2557 0.950 . S
H2534 C2558 0.950 . S
H2535 C2559 0.951 . S
H2536 C2561 0.951 . S
H2537 C2563 0.950 . S
H2538 C2564 0.950 . S
H2539 C2566 0.950 . S
H2540 C2569 0.950 . S
H2541 C2570 0.950 . S
H2542 C2572 0.950 . S
H2543 C2573 0.950 . S
C2544 H2526 0.951 . S
C2544 C2545 1.366 . S
C2544 C2546 1.388 1_455 S
C2545 C2544 1.366 . S
C2545 C2549 1.385 . S
C2546 H2527 0.951 . S
C2546 C2544 1.388 1_655 S
C2546 C2547 1.366 . S
C2547 C2546 1.366 . S
C2547 C2548 1.414 1_655 S
C2547 C2550 1.499 . S
C2548 H2528 0.952 . S
C2548 C2547 1.414 1_455 S
C2548 C2549 1.374 . S
C2549 H2529 0.950 . S
C2549 C2545 1.385 . S
C2549 C2548 1.374 . S
C2550 C2547 1.499 . S
C2550 C2551 1.373 . S
C2550 C2552 1.389 . S
C2551 H2530 0.950 . S
C2551 C2550 1.373 . S
C2551 C2567 1.377 . S
C2552 C2550 1.389 . S
C2552 C2553 1.524 . S
C2552 C2566 1.377 . S
C2553 C2552 1.524 . S
C2553 C2554 1.397 . S
C2553 C2558 1.363 . S
C2554 H2531 0.950 . S
C2554 C2553 1.397 . S
C2554 C2555 1.334 . S
C2555 H2532 0.950 . S
C2555 C2554 1.334 . S
C2555 C2556 1.287 . S
C2556 C2555 1.287 . S
C2556 C2557 1.524 . S
C2556 H2575 0.913 . S
C2557 H2533 0.950 . S
C2557 C2556 1.524 . S
C2557 C2558 1.415 . S
C2558 H2534 0.950 . S
C2558 C2553 1.363 . S
C2558 C2557 1.415 . S
C2559 H2535 0.951 . S
C2559 C2560 1.366 . S
C2559 C2561 1.388 . S
C2560 C2559 1.366 . S
C2560 C2564 1.385 . S
C2561 H2536 0.951 . S
C2561 C2559 1.388 . S
C2561 C2562 1.366 . S
C2562 C2561 1.366 . S
C2562 C2563 1.414 . S
C2562 C2565 1.499 . S
C2563 H2537 0.950 . S
C2563 C2562 1.414 . S
C2563 C2564 1.374 . S
C2564 H2538 0.950 . S
C2564 C2560 1.385 . S
C2564 C2563 1.374 . S
C2565 C2562 1.499 . S
C2565 C2566 1.373 . S
C2565 C2567 1.389 . S
C2566 H2539 0.950 . S
C2566 C2552 1.377 . S
C2566 C2565 1.373 . S
C2567 C2551 1.377 . S
C2567 C2565 1.389 . S
C2567 C2568 1.524 . S
C2568 C2567 1.524 . S
C2568 C2569 1.397 . S
C2568 C2573 1.363 . S
C2569 H2540 0.950 . S
C2569 C2568 1.397 . S
C2569 C2570 1.334 . S
C2570 H2541 0.950 . S
C2570 C2569 1.334 . S
C2570 C2571 1.287 . S
C2571 C2570 1.287 . S
C2571 C2572 1.524 . S
C2571 H2574 0.999 . S
C2572 H2542 0.950 . S
C2572 C2571 1.524 . S
C2572 C2573 1.415 . S
C2573 H2543 0.950 . S
C2573 C2568 1.363 . S
C2573 C2572 1.415 . S
H2574 C2571 0.999 . S
H2575 C2556 0.913 . S
H2576 C2594 0.951 . S
H2577 C2596 0.951 . S
H2578 C2598 0.950 . S
H2579 C2599 0.950 . S
H2580 C2601 0.950 . S
H2581 C2604 0.950 . S
H2582 C2605 0.950 . S
H2583 C2607 0.950 . S
H2584 C2608 0.950 . S
H2585 C2609 0.951 . S
H2586 C2611 0.951 . S
H2587 C2613 0.950 . S
H2588 C2614 0.950 . S
H2589 C2616 0.950 1_565 S
H2590 C2619 0.950 . S
H2591 C2620 0.950 . S
H2592 C2622 0.950 . S
H2593 C2623 0.950 . S
C2594 H2576 0.951 . S
C2594 C2595 1.366 . S
C2594 C2596 1.388 . S
C2595 C2594 1.366 . S
C2595 C2599 1.385 . S
C2596 H2577 0.951 . S
C2596 C2594 1.388 . S
C2596 C2597 1.366 . S
C2597 C2596 1.366 . S
C2597 C2598 1.414 . S
C2597 C2600 1.499 . S
C2598 H2578 0.950 . S
C2598 C2597 1.414 . S
C2598 C2599 1.374 . S
C2599 H2579 0.950 . S
C2599 C2595 1.385 . S
C2599 C2598 1.374 . S
C2600 C2597 1.499 . S
C2600 C2601 1.373 . S
C2600 C2602 1.389 . S
C2601 H2580 0.950 . S
C2601 C2600 1.373 . S
C2601 C2617 1.377 . S
C2602 C2600 1.389 . S
C2602 C2603 1.524 1_545 S
C2602 C2616 1.377 . S
C2603 C2602 1.524 1_565 S
C2603 C2604 1.397 . S
C2603 C2608 1.363 . S
C2604 H2581 0.950 . S
C2604 C2603 1.397 . S
C2604 C2605 1.334 . S
C2605 H2582 0.950 . S
C2605 C2604 1.334 . S
C2605 C2606 1.287 . S
C2606 C2605 1.287 . S
C2606 C2607 1.524 . S
C2606 H2625 0.913 . S
C2607 H2583 0.950 . S
C2607 C2606 1.524 . S
C2607 C2608 1.415 . S
C2608 H2584 0.950 . S
C2608 C2603 1.363 . S
C2608 C2607 1.415 . S
C2609 H2585 0.951 . S
C2609 C2610 1.366 . S
C2609 C2611 1.388 . S
C2610 C2609 1.366 . S
C2610 C2614 1.385 . S
C2611 H2586 0.951 . S
C2611 C2609 1.388 . S
C2611 C2612 1.366 . S
C2612 C2611 1.366 . S
C2612 C2613 1.414 . S
C2612 C2615 1.499 . S
C2613 H2587 0.950 . S
C2613 C2612 1.414 . S
C2613 C2614 1.374 . S
C2614 H2588 0.950 . S
C2614 C2610 1.385 . S
C2614 C2613 1.374 . S
C2615 C2612 1.499 . S
C2615 C2616 1.373 . S
C2615 C2617 1.389 . S
C2616 H2589 0.950 1_545 S
C2616 C2602 1.377 . S
C2616 C2615 1.373 . S
C2617 C2601 1.377 . S
C2617 C2615 1.389 . S
C2617 C2618 1.524 . S
C2618 C2617 1.524 . S
C2618 C2619 1.397 . S
C2618 C2623 1.363 . S
C2619 H2590 0.950 . S
C2619 C2618 1.397 . S
C2619 C2620 1.334 . S
C2620 H2591 0.950 . S
C2620 C2619 1.334 . S
C2620 C2621 1.287 . S
C2621 C2620 1.287 . S
C2621 C2622 1.524 . S
C2621 H2624 0.999 . S
C2622 H2592 0.950 . S
C2622 C2621 1.524 . S
C2622 C2623 1.415 . S
C2623 H2593 0.950 . S
C2623 C2618 1.363 . S
C2623 C2622 1.415 . S
H2624 C2621 0.999 . S
H2625 C2606 0.913 . S
H2626 C2644 0.951 . S
H2627 C2646 0.951 . S
H2628 C2648 0.950 . S
H2629 C2649 0.950 . S
H2630 C2651 0.950 . S
H2631 C2654 0.950 . S
H2632 C2655 0.950 . S
H2633 C2657 0.950 . S
H2634 C2658 0.950 . S
H2635 C2659 0.951 . S
H2636 C2661 0.951 . S
H2637 C2663 0.950 . S
H2638 C2664 0.950 . S
H2639 C2666 0.950 . S
H2640 C2669 0.950 . S
H2641 C2670 0.950 . S
H2642 C2672 0.950 . S
H2643 C2673 0.950 . S
C2644 H2626 0.951 . S
C2644 C2645 1.366 . S
C2644 C2646 1.388 . S
C2645 C2644 1.366 . S
C2645 C2649 1.385 . S
C2646 H2627 0.951 . S
C2646 C2644 1.388 . S
C2646 C2647 1.366 . S
C2647 C2646 1.366 . S
C2647 C2648 1.414 . S
C2647 C2650 1.499 . S
C2648 H2628 0.950 . S
C2648 C2647 1.414 . S
C2648 C2649 1.374 . S
C2649 H2629 0.950 . S
C2649 C2645 1.385 . S
C2649 C2648 1.374 . S
C2650 C2647 1.499 . S
C2650 C2651 1.373 . S
C2650 C2652 1.389 . S
C2651 H2630 0.950 . S
C2651 C2650 1.373 . S
C2651 C2667 1.377 . S
C2652 C2650 1.389 . S
C2652 C2653 1.524 . S
C2652 C2666 1.377 . S
C2653 C2652 1.524 . S
C2653 C2654 1.397 . S
C2653 C2658 1.363 . S
C2654 H2631 0.950 . S
C2654 C2653 1.397 . S
C2654 C2655 1.334 . S
C2655 H2632 0.950 . S
C2655 C2654 1.334 . S
C2655 C2656 1.287 . S
C2656 C2655 1.287 . S
C2656 C2657 1.524 . S
C2656 H2675 0.913 . S
C2657 H2633 0.950 . S
C2657 C2656 1.524 . S
C2657 C2658 1.415 . S
C2658 H2634 0.950 . S
C2658 C2653 1.363 . S
C2658 C2657 1.415 . S
C2659 H2635 0.951 . S
C2659 C2660 1.366 . S
C2659 C2661 1.388 . S
C2660 C2659 1.366 . S
C2660 C2664 1.385 . S
C2661 H2636 0.951 . S
C2661 C2659 1.388 . S
C2661 C2662 1.366 . S
C2662 C2661 1.366 . S
C2662 C2663 1.414 . S
C2662 C2665 1.499 . S
C2663 H2637 0.950 . S
C2663 C2662 1.414 . S
C2663 C2664 1.374 . S
C2664 H2638 0.950 . S
C2664 C2660 1.385 . S
C2664 C2663 1.374 . S
C2665 C2662 1.499 . S
C2665 C2666 1.373 . S
C2665 C2667 1.389 . S
C2666 H2639 0.950 . S
C2666 C2652 1.377 . S
C2666 C2665 1.373 . S
C2667 C2651 1.377 . S
C2667 C2665 1.389 . S
C2667 C2668 1.524 . S
C2668 C2667 1.524 . S
C2668 C2669 1.397 . S
C2668 C2673 1.363 . S
C2669 H2640 0.950 . S
C2669 C2668 1.397 . S
C2669 C2670 1.334 . S
C2670 H2641 0.950 . S
C2670 C2669 1.334 . S
C2670 C2671 1.287 . S
C2671 C2670 1.287 . S
C2671 C2672 1.524 . S
C2671 H2674 0.999 . S
C2672 H2642 0.950 . S
C2672 C2671 1.524 . S
C2672 C2673 1.415 . S
C2673 H2643 0.950 . S
C2673 C2668 1.363 . S
C2673 C2672 1.415 . S
H2674 C2671 0.999 . S
H2675 C2656 0.913 . S
H2676 C2694 0.951 . S
H2677 C2696 0.951 . S
H2678 C2698 0.950 . S
H2679 C2699 0.950 . S
H2680 C2701 0.950 . S
H2681 C2704 0.950 . S
H2682 C2705 0.950 . S
H2683 C2707 0.950 . S
H2684 C2708 0.950 . S
H2685 C2709 0.951 . S
H2686 C2711 0.951 . S
H2687 C2713 0.950 . S
H2688 C2714 0.950 . S
H2689 C2716 0.912 1_565 S
H2690 C2719 0.950 . S
H2691 C2720 0.950 . S
H2692 C2722 0.950 . S
H2693 C2723 0.950 . S
C2694 H2676 0.951 . S
C2694 C2695 1.366 . S
C2694 C2696 1.388 . S
C2695 C2694 1.366 . S
C2695 C2699 1.385 . S
C2696 H2677 0.951 . S
C2696 C2694 1.388 . S
C2696 C2697 1.366 . S
C2697 C2696 1.366 . S
C2697 C2698 1.414 . S
C2697 C2700 1.499 . S
C2698 H2678 0.950 . S
C2698 C2697 1.414 . S
C2698 C2699 1.374 . S
C2699 H2679 0.950 . S
C2699 C2695 1.385 . S
C2699 C2698 1.374 . S
C2700 C2697 1.499 . S
C2700 C2701 1.373 . S
C2700 C2702 1.389 . S
C2701 H2680 0.950 . S
C2701 C2700 1.373 . S
C2701 C2717 1.377 . S
C2702 C2700 1.389 . S
C2702 C2703 1.524 1_545 S
C2702 C2716 1.377 . S
C2703 C2702 1.524 1_565 S
C2703 C2704 1.397 . S
C2703 C2708 1.363 . S
C2704 H2681 0.950 . S
C2704 C2703 1.397 . S
C2704 C2705 1.334 . S
C2705 H2682 0.950 . S
C2705 C2704 1.334 . S
C2705 C2706 1.287 . S
C2706 C2705 1.287 . S
C2706 C2707 1.524 . S
C2706 H2725 0.913 . S
C2707 H2683 0.950 . S
C2707 C2706 1.524 . S
C2707 C2708 1.415 . S
C2708 H2684 0.950 . S
C2708 C2703 1.363 . S
C2708 C2707 1.415 . S
C2709 H2685 0.951 . S
C2709 C2710 1.366 . S
C2709 C2711 1.388 . S
C2710 C2709 1.366 . S
C2710 C2714 1.385 . S
C2711 H2686 0.951 . S
C2711 C2709 1.388 . S
C2711 C2712 1.366 . S
C2712 C2711 1.366 . S
C2712 C2713 1.414 . S
C2712 C2715 1.499 . S
C2713 H2687 0.950 . S
C2713 C2712 1.414 . S
C2713 C2714 1.374 . S
C2714 H2688 0.950 . S
C2714 C2710 1.385 . S
C2714 C2713 1.374 . S
C2715 C2712 1.499 . S
C2715 C2716 1.373 . S
C2715 C2717 1.389 . S
C2716 H2689 0.912 1_545 S
C2716 C2702 1.377 . S
C2716 C2715 1.373 . S
C2717 C2701 1.377 . S
C2717 C2715 1.389 . S
C2717 C2718 1.524 . S
C2718 C2717 1.524 . S
C2718 C2719 1.397 . S
C2718 C2723 1.363 . S
C2719 H2690 0.950 . S
C2719 C2718 1.397 . S
C2719 C2720 1.334 . S
C2720 H2691 0.950 . S
C2720 C2719 1.334 . S
C2720 C2721 1.287 . S
C2721 C2720 1.287 . S
C2721 C2722 1.524 . S
C2721 H2724 0.999 . S
C2722 H2692 0.950 . S
C2722 C2721 1.524 . S
C2722 C2723 1.415 . S
C2723 H2693 0.950 . S
C2723 C2718 1.363 . S
C2723 C2722 1.415 . S
H2724 C2721 0.999 . S
H2725 C2706 0.913 . S
H2726 C2744 0.951 . S
H2727 C2746 0.951 . S
H2728 C2748 0.950 . S
H2729 C2749 0.950 . S
H2730 C2751 0.950 . S
H2731 C2754 0.950 . S
H2732 C2755 0.950 . S
H2733 C2757 0.950 . S
H2734 C2758 0.950 . S
H2735 C2759 0.951 . S
H2736 C2761 0.951 . S
H2737 C2763 0.950 . S
H2738 C2764 0.950 . S
H2739 C2766 0.950 . S
H2740 C2769 0.950 . S
H2741 C2770 0.950 . S
H2742 C2772 0.950 . S
H2743 C2773 0.950 . S
C2744 H2726 0.951 . S
C2744 C2745 1.366 . S
C2744 C2746 1.388 . S
C2745 C2744 1.366 . S
C2745 C2749 1.385 . S
C2746 H2727 0.951 . S
C2746 C2744 1.388 . S
C2746 C2747 1.366 . S
C2747 C2746 1.366 . S
C2747 C2748 1.414 . S
C2747 C2750 1.499 . S
C2748 H2728 0.950 . S
C2748 C2747 1.414 . S
C2748 C2749 1.374 . S
C2749 H2729 0.950 . S
C2749 C2745 1.385 . S
C2749 C2748 1.374 . S
C2750 C2747 1.499 . S
C2750 C2751 1.373 . S
C2750 C2752 1.389 . S
C2751 H2730 0.950 . S
C2751 C2750 1.373 . S
C2751 C2767 1.377 . S
C2752 C2750 1.389 . S
C2752 C2753 1.524 . S
C2752 C2766 1.377 . S
C2753 C2752 1.524 . S
C2753 C2754 1.397 . S
C2753 C2758 1.363 . S
C2754 H2731 0.950 . S
C2754 C2753 1.397 . S
C2754 C2755 1.334 . S
C2755 H2732 0.950 . S
C2755 C2754 1.334 . S
C2755 C2756 1.287 . S
C2756 C2755 1.287 . S
C2756 C2757 1.524 . S
C2756 H2775 0.913 . S
C2757 H2733 0.950 . S
C2757 C2756 1.524 . S
C2757 C2758 1.415 . S
C2758 H2734 0.950 . S
C2758 C2753 1.363 . S
C2758 C2757 1.415 . S
C2759 H2735 0.951 . S
C2759 C2760 1.366 . S
C2759 C2761 1.388 . S
C2760 C2759 1.366 . S
C2760 C2764 1.385 . S
C2761 H2736 0.951 . S
C2761 C2759 1.388 . S
C2761 C2762 1.366 . S
C2762 C2761 1.366 . S
C2762 C2763 1.414 . S
C2762 C2765 1.499 . S
C2763 H2737 0.950 . S
C2763 C2762 1.414 . S
C2763 C2764 1.374 . S
C2764 H2738 0.950 . S
C2764 C2760 1.385 . S
C2764 C2763 1.374 . S
C2765 C2762 1.499 . S
C2765 C2766 1.373 . S
C2765 C2767 1.389 . S
C2766 H2739 0.950 . S
C2766 C2752 1.377 . S
C2766 C2765 1.373 . S
C2767 C2751 1.377 . S
C2767 C2765 1.389 . S
C2767 C2768 1.524 . S
C2768 C2767 1.524 . S
C2768 C2769 1.397 . S
C2768 C2773 1.363 . S
C2769 H2740 0.950 . S
C2769 C2768 1.397 . S
C2769 C2770 1.334 . S
C2770 H2741 0.950 . S
C2770 C2769 1.334 . S
C2770 C2771 1.287 . S
C2771 C2770 1.287 . S
C2771 C2772 1.524 . S
C2771 H2774 0.999 . S
C2772 H2742 0.950 . S
C2772 C2771 1.524 . S
C2772 C2773 1.415 . S
C2773 H2743 0.950 . S
C2773 C2768 1.363 . S
C2773 C2772 1.415 . S
H2774 C2771 0.999 . S
H2775 C2756 0.913 . S
H2776 C2794 0.951 1_565 S
H2777 C2796 0.951 1_565 S
H2778 C2798 0.950 . S
H2779 C2799 0.950 . S
H2780 C2801 0.950 . S
H2781 C2804 0.950 . S
H2782 C2805 0.950 . S
H2783 C2807 0.950 1_565 S
H2784 C2808 0.950 1_565 S
H2785 C2809 0.951 . S
H2786 C2811 0.951 . S
H2787 C2813 0.950 1_565 S
H2788 C2814 0.950 1_565 S
H2789 C2816 0.950 . S
H2790 C2819 0.950 1_565 S
H2791 C2820 0.934 1_665 S
H2792 C2822 0.950 . S
H2793 C2823 0.950 . S
C2794 H2776 0.951 1_545 S
C2794 C2795 1.366 . S
C2794 C2796 1.388 . S
C2795 C2794 1.366 . S
C2795 C2799 1.385 . S
C2796 H2777 0.951 1_545 S
C2796 C2794 1.388 . S
C2796 C2797 1.366 . S
C2797 C2796 1.366 . S
C2797 C2798 1.414 . S
C2797 C2800 1.499 . S
C2798 H2778 0.950 . S
C2798 C2797 1.414 . S
C2798 C2799 1.374 . S
C2799 H2779 0.950 . S
C2799 C2795 1.385 . S
C2799 C2798 1.374 . S
C2800 C2797 1.499 . S
C2800 C2801 1.373 . S
C2800 C2802 1.389 . S
C2801 H2780 0.950 . S
C2801 C2800 1.373 . S
C2801 C2817 1.377 . S
C2802 C2800 1.389 . S
C2802 C2803 1.524 . S
C2802 C2816 1.377 . S
C2803 C2802 1.524 . S
C2803 C2804 1.397 . S
C2803 C2808 1.363 . S
C2804 H2781 0.950 . S
C2804 C2803 1.397 . S
C2804 C2805 1.334 . S
C2805 H2782 0.950 . S
C2805 C2804 1.334 . S
C2805 C2806 1.287 . S
C2806 C2805 1.287 . S
C2806 C2807 1.524 . S
C2806 H2825 0.913 . S
C2807 H2783 0.950 1_545 S
C2807 C2806 1.524 . S
C2807 C2808 1.415 . S
C2808 H2784 0.950 1_545 S
C2808 C2803 1.363 . S
C2808 C2807 1.415 . S
C2809 H2785 0.951 . S
C2809 C2810 1.366 . S
C2809 C2811 1.388 . S
C2810 C2809 1.366 . S
C2810 C2814 1.385 . S
C2811 H2786 0.951 . S
C2811 C2809 1.388 . S
C2811 C2812 1.366 . S
C2812 C2811 1.366 . S
C2812 C2813 1.414 . S
C2812 C2815 1.499 . S
C2813 H2787 0.950 1_545 S
C2813 C2812 1.414 . S
C2813 C2814 1.374 . S
C2814 H2788 0.950 1_545 S
C2814 C2810 1.385 . S
C2814 C2813 1.374 . S
C2815 C2812 1.499 . S
C2815 C2816 1.373 . S
C2815 C2817 1.389 . S
C2816 H2789 0.950 . S
C2816 C2802 1.377 . S
C2816 C2815 1.373 . S
C2817 C2801 1.377 . S
C2817 C2815 1.389 . S
C2817 C2818 1.524 . S
C2818 C2817 1.524 . S
C2818 C2819 1.397 . S
C2818 C2823 1.363 . S
C2819 H2790 0.950 1_545 S
C2819 C2818 1.397 . S
C2819 C2820 1.331 . S
C2820 H2791 0.934 1_445 S
C2820 C2819 1.331 . S
C2820 C2821 1.308 1_455 S
C2821 C2820 1.308 1_655 S
C2821 C2822 1.524 1_655 S
C2821 H2824 0.999 . S
C2822 H2792 0.950 . S
C2822 C2821 1.524 1_455 S
C2822 C2823 1.415 . S
C2823 H2793 0.950 . S
C2823 C2818 1.363 . S
C2823 C2822 1.415 . S
H2824 C2821 0.999 . S
H2825 C2806 0.913 . S
H2826 C2844 0.951 . S
H2827 C2846 0.951 . S
H2828 C2848 0.950 . S
H2829 C2849 0.950 . S
H2830 C2851 0.950 . S
H2831 C2854 0.950 . S
H2832 C2855 0.950 . S
H2833 C2857 0.950 . S
H2834 C2858 0.950 . S
H2835 C2859 0.951 . S
H2836 C2861 0.951 . S
H2837 C2863 0.950 . S
H2838 C2864 0.950 . S
H2839 C2866 0.950 . S
H2840 C2869 0.950 . S
H2841 C2870 0.950 . S
H2842 C2872 0.950 . S
H2843 C2873 0.950 . S
C2844 H2826 0.951 . S
C2844 C2845 1.366 . S
C2844 C2846 1.388 . S
C2845 C2844 1.366 . S
C2845 C2849 1.385 . S
C2846 H2827 0.951 . S
C2846 C2844 1.388 . S
C2846 C2847 1.366 . S
C2847 C2846 1.366 . S
C2847 C2848 1.414 . S
C2847 C2850 1.499 . S
C2848 H2828 0.950 . S
C2848 C2847 1.414 . S
C2848 C2849 1.374 . S
C2849 H2829 0.950 . S
C2849 C2845 1.385 . S
C2849 C2848 1.374 . S
C2850 C2847 1.499 . S
C2850 C2851 1.373 . S
C2850 C2852 1.389 . S
C2851 H2830 0.950 . S
C2851 C2850 1.373 . S
C2851 C2867 1.377 . S
C2852 C2850 1.389 . S
C2852 C2853 1.524 . S
C2852 C2866 1.377 . S
C2853 C2852 1.524 . S
C2853 C2854 1.397 . S
C2853 C2858 1.363 . S
C2854 H2831 0.950 . S
C2854 C2853 1.397 . S
C2854 C2855 1.334 . S
C2855 H2832 0.950 . S
C2855 C2854 1.334 . S
C2855 C2856 1.287 . S
C2856 C2855 1.287 . S
C2856 C2857 1.524 . S
C2856 H2875 0.913 . S
C2857 H2833 0.950 . S
C2857 C2856 1.524 . S
C2857 C2858 1.415 . S
C2858 H2834 0.950 . S
C2858 C2853 1.363 . S
C2858 C2857 1.415 . S
C2859 H2835 0.951 . S
C2859 C2860 1.366 . S
C2859 C2861 1.388 . S
C2860 C2859 1.366 . S
C2860 C2864 1.385 . S
C2861 H2836 0.951 . S
C2861 C2859 1.388 . S
C2861 C2862 1.366 . S
C2862 C2861 1.366 . S
C2862 C2863 1.414 . S
C2862 C2865 1.499 . S
C2863 H2837 0.950 . S
C2863 C2862 1.414 . S
C2863 C2864 1.374 . S
C2864 H2838 0.950 . S
C2864 C2860 1.385 . S
C2864 C2863 1.374 . S
C2865 C2862 1.499 . S
C2865 C2866 1.373 . S
C2865 C2867 1.389 . S
C2866 H2839 0.950 . S
C2866 C2852 1.377 . S
C2866 C2865 1.373 . S
C2867 C2851 1.377 . S
C2867 C2865 1.389 . S
C2867 C2868 1.524 . S
C2868 C2867 1.524 . S
C2868 C2869 1.397 . S
C2868 C2873 1.363 . S
C2869 H2840 0.950 . S
C2869 C2868 1.397 . S
C2869 C2870 1.334 . S
C2870 H2841 0.950 . S
C2870 C2869 1.334 . S
C2870 C2871 1.287 . S
C2871 C2870 1.287 . S
C2871 C2872 1.524 . S
C2871 H2874 0.999 . S
C2872 H2842 0.950 . S
C2872 C2871 1.524 . S
C2872 C2873 1.415 . S
C2873 H2843 0.950 . S
C2873 C2868 1.363 . S
C2873 C2872 1.415 . S
H2874 C2871 0.999 . S
H2875 C2856 0.913 . S
H2876 C2894 0.951 . S
H2877 C2896 0.951 . S
H2878 C2898 0.950 . S
H2879 C2899 0.950 . S
H2880 C2901 0.950 . S
H2881 C2904 0.950 . S
H2882 C2905 0.950 . S
H2883 C2907 0.950 . S
H2884 C2908 0.950 . S
H2885 C2909 0.959 . S
H2886 C2911 0.951 . S
H2887 C2913 0.950 . S
H2888 C2914 0.950 . S
H2889 C2916 0.950 . S
H2890 C2919 0.950 . S
H2891 C2920 0.950 . S
H2892 C2922 0.950 . S
H2893 C2923 0.950 . S
C2894 H2876 0.951 . S
C2894 C2895 1.366 . S
C2894 C2896 1.388 . S
C2895 C2894 1.366 . S
C2895 C2899 1.385 . S
C2896 H2877 0.951 . S
C2896 C2894 1.388 . S
C2896 C2897 1.366 . S
C2897 C2896 1.366 . S
C2897 C2898 1.414 . S
C2897 C2900 1.499 . S
C2898 H2878 0.950 . S
C2898 C2897 1.414 . S
C2898 C2899 1.374 . S
C2899 H2879 0.950 . S
C2899 C2895 1.385 . S
C2899 C2898 1.374 . S
C2900 C2897 1.499 . S
C2900 C2901 1.373 . S
C2900 C2902 1.389 1_545 S
C2901 H2880 0.950 . S
C2901 C2900 1.373 . S
C2901 C2917 1.377 . S
C2902 C2900 1.389 1_565 S
C2902 C2903 1.524 . S
C2902 C2916 1.377 . S
C2903 C2902 1.524 . S
C2903 C2904 1.397 . S
C2903 C2908 1.363 . S
C2904 H2881 0.950 . S
C2904 C2903 1.397 . S
C2904 C2905 1.334 . S
C2905 H2882 0.950 . S
C2905 C2904 1.334 . S
C2905 C2906 1.287 . S
C2906 C2905 1.287 . S
C2906 C2907 1.524 . S
C2906 H2925 0.913 . S
C2907 H2883 0.950 . S
C2907 C2906 1.524 . S
C2907 C2908 1.415 . S
C2908 H2884 0.950 . S
C2908 C2903 1.363 . S
C2908 C2907 1.415 . S
C2909 H2885 0.959 . S
C2909 C2910 1.355 . S
C2909 C2911 1.388 . S
C2910 C2909 1.355 . S
C2910 C2914 1.400 . S
C2911 H2886 0.951 . S
C2911 C2909 1.388 . S
C2911 C2912 1.366 . S
C2912 C2911 1.366 . S
C2912 C2913 1.414 . S
C2912 C2915 1.499 . S
C2913 H2887 0.950 . S
C2913 C2912 1.414 . S
C2913 C2914 1.374 . S
C2914 H2888 0.950 . S
C2914 C2910 1.400 . S
C2914 C2913 1.374 . S
C2915 C2912 1.499 . S
C2915 C2916 1.373 1_545 S
C2915 C2917 1.389 . S
C2916 H2889 0.950 . S
C2916 C2902 1.377 . S
C2916 C2915 1.373 1_565 S
C2917 C2901 1.377 . S
C2917 C2915 1.389 . S
C2917 C2918 1.524 . S
C2918 C2917 1.524 . S
C2918 C2919 1.397 . S
C2918 C2923 1.363 . S
C2919 H2890 0.950 . S
C2919 C2918 1.397 . S
C2919 C2920 1.334 . S
C2920 H2891 0.950 . S
C2920 C2919 1.334 . S
C2920 C2921 1.287 . S
C2921 C2920 1.287 . S
C2921 C2922 1.524 . S
C2921 H2924 0.999 . S
C2922 H2892 0.950 . S
C2922 C2921 1.524 . S
C2922 C2923 1.415 . S
C2923 H2893 0.950 . S
C2923 C2918 1.363 . S
C2923 C2922 1.415 . S
H2924 C2921 0.999 . S
H2925 C2906 0.913 . S
H2926 C2944 0.951 . S
H2927 C2946 0.951 . S
H2928 C2948 0.950 . S
H2929 C2949 0.950 . S
H2930 C2951 0.950 . S
H2931 C2954 0.950 . S
H2932 C2955 0.950 . S
H2933 C2957 0.950 . S
H2934 C2958 0.950 . S
H2935 C2959 0.951 . S
H2936 C2961 0.951 . S
H2937 C2963 0.950 . S
H2938 C2964 0.950 . S
H2939 C2966 0.950 . S
H2940 C2969 0.950 . S
H2941 C2970 0.950 . S
H2942 C2972 0.950 . S
H2943 C2973 0.950 . S
C2944 H2926 0.951 . S
C2944 C2945 1.366 . S
C2944 C2946 1.388 . S
C2945 C2944 1.366 . S
C2945 C2949 1.385 . S
C2946 H2927 0.951 . S
C2946 C2944 1.388 . S
C2946 C2947 1.366 . S
C2947 C2946 1.366 . S
C2947 C2948 1.414 . S
C2947 C2950 1.499 . S
C2948 H2928 0.950 . S
C2948 C2947 1.414 . S
C2948 C2949 1.374 . S
C2949 H2929 0.950 . S
C2949 C2945 1.385 . S
C2949 C2948 1.374 . S
C2950 C2947 1.499 . S
C2950 C2951 1.373 . S
C2950 C2952 1.389 . S
C2951 H2930 0.950 . S
C2951 C2950 1.373 . S
C2951 C2967 1.377 . S
C2952 C2950 1.389 . S
C2952 C2953 1.524 . S
C2952 C2966 1.377 . S
C2953 C2952 1.524 . S
C2953 C2954 1.397 . S
C2953 C2958 1.363 . S
C2954 H2931 0.950 . S
C2954 C2953 1.397 . S
C2954 C2955 1.334 . S
C2955 H2932 0.950 . S
C2955 C2954 1.334 . S
C2955 C2956 1.287 . S
C2956 C2955 1.287 . S
C2956 C2957 1.524 . S
C2956 H2975 0.913 . S
C2957 H2933 0.950 . S
C2957 C2956 1.524 . S
C2957 C2958 1.415 . S
C2958 H2934 0.950 . S
C2958 C2953 1.363 . S
C2958 C2957 1.415 . S
C2959 H2935 0.951 . S
C2959 C2960 1.366 . S
C2959 C2961 1.388 . S
C2960 C2959 1.366 . S
C2960 C2964 1.385 . S
C2961 H2936 0.951 . S
C2961 C2959 1.388 . S
C2961 C2962 1.366 . S
C2962 C2961 1.366 . S
C2962 C2963 1.414 . S
C2962 C2965 1.499 . S
C2963 H2937 0.950 . S
C2963 C2962 1.414 . S
C2963 C2964 1.374 . S
C2964 H2938 0.950 . S
C2964 C2960 1.385 . S
C2964 C2963 1.374 . S
C2965 C2962 1.499 . S
C2965 C2966 1.373 . S
C2965 C2967 1.389 . S
C2966 H2939 0.950 . S
C2966 C2952 1.377 . S
C2966 C2965 1.373 . S
C2967 C2951 1.377 . S
C2967 C2965 1.389 . S
C2967 C2968 1.524 . S
C2968 C2967 1.524 . S
C2968 C2969 1.397 . S
C2968 C2973 1.363 . S
C2969 H2940 0.950 . S
C2969 C2968 1.397 . S
C2969 C2970 1.334 . S
C2970 H2941 0.950 . S
C2970 C2969 1.334 . S
C2970 C2971 1.287 . S
C2971 C2970 1.287 . S
C2971 C2972 1.524 . S
C2971 H2974 0.999 . S
C2972 H2942 0.950 . S
C2972 C2971 1.524 . S
C2972 C2973 1.415 . S
C2973 H2943 0.950 . S
C2973 C2968 1.363 . S
C2973 C2972 1.415 . S
H2974 C2971 0.999 . S
H2975 C2956 0.913 . S
H2976 C2994 0.951 . S
H2977 C2996 0.951 . S
H2978 C2998 0.950 . S
H2979 C2999 0.950 . S
H2980 C3001 0.950 . S
H2981 C3004 0.950 . S
H2982 C3005 0.950 . S
H2983 C3007 0.950 . S
H2984 C3008 0.950 . S
H2985 C3009 0.951 . S
H2986 C3011 0.951 . S
H2987 C3013 0.950 . S
H2988 C3014 0.950 . S
H2989 C3016 0.950 . S
H2990 C3019 0.950 . S
H2991 C3020 0.950 1_554 S
H2992 C3022 0.950 . S
H2993 C3023 0.950 . S
C2994 H2976 0.951 . S
C2994 C2995 1.366 . S
C2994 C2996 1.388 . S
C2995 C2994 1.366 . S
C2995 C2999 1.385 . S
C2996 H2977 0.951 . S
C2996 C2994 1.388 . S
C2996 C2997 1.366 . S
C2997 C2996 1.366 . S
C2997 C2998 1.414 . S
C2997 C3000 1.499 . S
C2998 H2978 0.950 . S
C2998 C2997 1.414 . S
C2998 C2999 1.374 . S
C2999 H2979 0.950 . S
C2999 C2995 1.385 . S
C2999 C2998 1.374 . S
C3000 C2997 1.499 . S
C3000 C3001 1.373 . S
C3000 C3002 1.389 . S
C3001 H2980 0.950 . S
C3001 C3000 1.373 . S
C3001 C3017 1.377 . S
C3002 C3000 1.389 . S
C3002 C3003 1.524 . S
C3002 C3016 1.377 . S
C3003 C3002 1.524 . S
C3003 C3004 1.397 . S
C3003 C3008 1.363 . S
C3004 H2981 0.950 . S
C3004 C3003 1.397 . S
C3004 C3005 1.334 . S
C3005 H2982 0.950 . S
C3005 C3004 1.334 . S
C3005 C3006 1.287 . S
C3006 C3005 1.287 . S
C3006 C3007 1.524 . S
C3006 H3025 0.913 . S
C3007 H2983 0.950 . S
C3007 C3006 1.524 . S
C3007 C3008 1.415 . S
C3008 H2984 0.950 . S
C3008 C3003 1.363 . S
C3008 C3007 1.415 . S
C3009 H2985 0.951 . S
C3009 C3010 1.366 . S
C3009 C3011 1.388 . S
C3010 C3009 1.366 . S
C3010 C3014 1.385 1_556 S
C3011 H2986 0.951 . S
C3011 C3009 1.388 . S
C3011 C3012 1.366 1_556 S
C3012 C3011 1.366 1_554 S
C3012 C3013 1.414 . S
C3012 C3015 1.499 . S
C3013 H2987 0.950 . S
C3013 C3012 1.414 . S
C3013 C3014 1.374 . S
C3014 H2988 0.950 . S
C3014 C3010 1.385 1_554 S
C3014 C3013 1.374 . S
C3015 C3012 1.499 . S
C3015 C3016 1.373 . S
C3015 C3017 1.389 . S
C3016 H2989 0.950 . S
C3016 C3002 1.377 . S
C3016 C3015 1.373 . S
C3017 C3001 1.377 . S
C3017 C3015 1.389 . S
C3017 C3018 1.524 1_554 S
C3018 C3017 1.524 1_556 S
C3018 C3019 1.397 1_556 S
C3018 C3023 1.363 . S
C3019 H2990 0.950 . S
C3019 C3018 1.397 1_554 S
C3019 C3020 1.334 1_554 S
C3020 H2991 0.950 1_556 S
C3020 C3019 1.334 1_556 S
C3020 C3021 1.287 . S
C3021 C3020 1.287 . S
C3021 C3022 1.524 . S
C3021 H3024 0.999 . S
C3022 H2992 0.950 . S
C3022 C3021 1.524 . S
C3022 C3023 1.415 . S
C3023 H2993 0.950 . S
C3023 C3018 1.363 . S
C3023 C3022 1.415 . S
H3024 C3021 0.999 . S
H3025 C3006 0.913 . S
H3026 C3044 0.951 . S
H3027 C3046 0.951 . S
H3028 C3048 0.950 . S
H3029 C3049 0.950 . S
H3030 C3051 0.950 . S
H3031 C3054 0.950 . S
H3032 C3055 0.950 . S
H3033 C3057 0.950 . S
H3034 C3058 0.950 . S
H3035 C3059 0.951 . S
H3036 C3061 0.951 . S
H3037 C3063 0.950 . S
H3038 C3064 0.950 . S
H3039 C3066 0.950 . S
H3040 C3069 0.950 . S
H3041 C3070 0.950 . S
H3042 C3072 0.950 . S
H3043 C3073 0.950 . S
C3044 H3026 0.951 . S
C3044 C3045 1.366 . S
C3044 C3046 1.388 . S
C3045 C3044 1.366 . S
C3045 C3049 1.385 . S
C3046 H3027 0.951 . S
C3046 C3044 1.388 . S
C3046 C3047 1.366 . S
C3047 C3046 1.366 . S
C3047 C3048 1.414 . S
C3047 C3050 1.499 . S
C3048 H3028 0.950 . S
C3048 C3047 1.414 . S
C3048 C3049 1.374 . S
C3049 H3029 0.950 . S
C3049 C3045 1.385 . S
C3049 C3048 1.374 . S
C3050 C3047 1.499 . S
C3050 C3051 1.373 . S
C3050 C3052 1.389 . S
C3051 H3030 0.950 . S
C3051 C3050 1.373 . S
C3051 C3067 1.377 . S
C3052 C3050 1.389 . S
C3052 C3053 1.524 . S
C3052 C3066 1.377 . S
C3053 C3052 1.524 . S
C3053 C3054 1.397 1_554 S
C3053 C3058 1.363 . S
C3054 H3031 0.950 . S
C3054 C3053 1.397 1_556 S
C3054 C3055 1.334 . S
C3055 H3032 0.950 . S
C3055 C3054 1.334 . S
C3055 C3056 1.287 . S
C3056 C3055 1.287 . S
C3056 C3057 1.524 . S
C3056 H3075 0.913 . S
C3057 H3033 0.950 . S
C3057 C3056 1.524 . S
C3057 C3058 1.415 1_556 S
C3058 H3034 0.950 . S
C3058 C3053 1.363 . S
C3058 C3057 1.415 1_554 S
C3059 H3035 0.951 . S
C3059 C3060 1.366 . S
C3059 C3061 1.388 . S
C3060 C3059 1.366 . S
C3060 C3064 1.385 . S
C3061 H3036 0.951 . S
C3061 C3059 1.388 . S
C3061 C3062 1.366 . S
C3062 C3061 1.366 . S
C3062 C3063 1.414 . S
C3062 C3065 1.499 . S
C3063 H3037 0.950 . S
C3063 C3062 1.414 . S
C3063 C3064 1.374 . S
C3064 H3038 0.950 . S
C3064 C3060 1.385 . S
C3064 C3063 1.374 . S
C3065 C3062 1.499 . S
C3065 C3066 1.373 . S
C3065 C3067 1.389 . S
C3066 H3039 0.950 . S
C3066 C3052 1.377 . S
C3066 C3065 1.373 . S
C3067 C3051 1.377 . S
C3067 C3065 1.389 . S
C3067 C3068 1.524 . S
C3068 C3067 1.524 . S
C3068 C3069 1.397 . S
C3068 C3073 1.363 . S
C3069 H3040 0.950 . S
C3069 C3068 1.397 . S
C3069 C3070 1.334 . S
C3070 H3041 0.950 . S
C3070 C3069 1.334 . S
C3070 C3071 1.287 . S
C3071 C3070 1.287 . S
C3071 C3072 1.524 . S
C3071 H3074 0.999 . S
C3072 H3042 0.950 . S
C3072 C3071 1.524 . S
C3072 C3073 1.415 . S
C3073 H3043 0.950 . S
C3073 C3068 1.363 . S
C3073 C3072 1.415 . S
H3074 C3071 0.999 . S
H3075 C3056 0.913 . S
H3076 C3094 0.951 . S
H3077 C3096 0.951 . S
H3078 C3098 0.950 . S
H3079 C3099 0.950 . S
H3080 C3101 0.950 . S
H3081 C3104 0.950 . S
H3082 C3105 0.950 . S
H3083 C3107 0.950 . S
H3084 C3108 0.950 . S
H3085 C3109 0.951 . S
H3086 C3111 0.951 . S
H3087 C3113 0.950 . S
H3088 C3114 0.950 . S
H3089 C3116 0.950 . S
H3090 C3119 0.950 . S
H3091 C3120 0.950 . S
H3092 C3122 0.950 . S
H3093 C3123 0.950 . S
C3094 H3076 0.951 . S
C3094 C3095 1.366 . S
C3094 C3096 1.388 . S
C3095 C3094 1.366 . S
C3095 C3099 1.385 . S
C3096 H3077 0.951 . S
C3096 C3094 1.388 . S
C3096 C3097 1.366 . S
C3097 C3096 1.366 . S
C3097 C3098 1.414 . S
C3097 C3100 1.499 . S
C3098 H3078 0.950 . S
C3098 C3097 1.414 . S
C3098 C3099 1.374 . S
C3099 H3079 0.950 . S
C3099 C3095 1.385 . S
C3099 C3098 1.374 . S
C3100 C3097 1.499 . S
C3100 C3101 1.373 . S
C3100 C3102 1.389 . S
C3101 H3080 0.950 . S
C3101 C3100 1.373 . S
C3101 C3117 1.377 . S
C3102 C3100 1.389 . S
C3102 C3103 1.524 . S
C3102 C3116 1.377 . S
C3103 C3102 1.524 . S
C3103 C3104 1.397 . S
C3103 C3108 1.363 . S
C3104 H3081 0.950 . S
C3104 C3103 1.397 . S
C3104 C3105 1.334 . S
C3105 H3082 0.950 . S
C3105 C3104 1.334 . S
C3105 C3106 1.287 . S
C3106 C3105 1.287 . S
C3106 C3107 1.524 . S
C3106 H3125 0.913 . S
C3107 H3083 0.950 . S
C3107 C3106 1.524 . S
C3107 C3108 1.415 . S
C3108 H3084 0.950 . S
C3108 C3103 1.363 . S
C3108 C3107 1.415 . S
C3109 H3085 0.951 . S
C3109 C3110 1.366 . S
C3109 C3111 1.388 . S
C3110 C3109 1.366 . S
C3110 C3114 1.385 . S
C3111 H3086 0.951 . S
C3111 C3109 1.388 . S
C3111 C3112 1.366 . S
C3112 C3111 1.366 . S
C3112 C3113 1.414 . S
C3112 C3115 1.499 . S
C3113 H3087 0.950 . S
C3113 C3112 1.414 . S
C3113 C3114 1.374 . S
C3114 H3088 0.950 . S
C3114 C3110 1.385 . S
C3114 C3113 1.374 . S
C3115 C3112 1.499 . S
C3115 C3116 1.373 . S
C3115 C3117 1.389 . S
C3116 H3089 0.950 . S
C3116 C3102 1.377 . S
C3116 C3115 1.373 . S
C3117 C3101 1.377 . S
C3117 C3115 1.389 . S
C3117 C3118 1.524 . S
C3118 C3117 1.524 . S
C3118 C3119 1.397 . S
C3118 C3123 1.363 . S
C3119 H3090 0.950 . S
C3119 C3118 1.397 . S
C3119 C3120 1.334 . S
C3120 H3091 0.950 . S
C3120 C3119 1.334 . S
C3120 C3121 1.287 . S
C3121 C3120 1.287 . S
C3121 C3122 1.524 . S
C3121 H3124 0.999 . S
C3122 H3092 0.950 . S
C3122 C3121 1.524 . S
C3122 C3123 1.415 . S
C3123 H3093 0.950 . S
C3123 C3118 1.363 . S
C3123 C3122 1.415 . S
H3124 C3121 0.999 . S
H3125 C3106 0.913 . S
H3126 C3144 0.951 . S
H3127 C3146 0.951 . S
H3128 C3148 0.950 . S
H3129 C3149 0.950 . S
H3130 C3151 0.950 . S
H3131 C3154 0.950 . S
H3132 C3155 0.950 . S
H3133 C3157 0.950 . S
H3134 C3158 0.950 . S
H3135 C3159 0.951 . S
H3136 C3161 0.951 . S
H3137 C3163 0.950 . S
H3138 C3164 0.950 . S
H3139 C3166 0.950 . S
H3140 C3169 0.950 . S
H3141 C3170 0.950 . S
H3142 C3172 0.950 . S
H3143 C3173 0.950 . S
C3144 H3126 0.951 . S
C3144 C3145 1.366 . S
C3144 C3146 1.388 . S
C3145 C3144 1.366 . S
C3145 C3149 1.385 . S
C3146 H3127 0.951 . S
C3146 C3144 1.388 . S
C3146 C3147 1.366 . S
C3147 C3146 1.366 . S
C3147 C3148 1.414 . S
C3147 C3150 1.499 . S
C3148 H3128 0.950 . S
C3148 C3147 1.414 . S
C3148 C3149 1.374 . S
C3149 H3129 0.950 . S
C3149 C3145 1.385 . S
C3149 C3148 1.374 . S
C3150 C3147 1.499 . S
C3150 C3151 1.373 . S
C3150 C3152 1.389 . S
C3151 H3130 0.950 . S
C3151 C3150 1.373 . S
C3151 C3167 1.377 . S
C3152 C3150 1.389 . S
C3152 C3153 1.524 . S
C3152 C3166 1.377 . S
C3153 C3152 1.524 . S
C3153 C3154 1.397 . S
C3153 C3158 1.363 . S
C3154 H3131 0.950 . S
C3154 C3153 1.397 . S
C3154 C3155 1.334 . S
C3155 H3132 0.950 . S
C3155 C3154 1.334 . S
C3155 C3156 1.287 . S
C3156 C3155 1.287 . S
C3156 C3157 1.524 . S
C3156 H3175 0.913 . S
C3157 H3133 0.950 . S
C3157 C3156 1.524 . S
C3157 C3158 1.415 . S
C3158 H3134 0.950 . S
C3158 C3153 1.363 . S
C3158 C3157 1.415 . S
C3159 H3135 0.951 . S
C3159 C3160 1.366 . S
C3159 C3161 1.388 . S
C3160 C3159 1.366 . S
C3160 C3164 1.385 . S
C3161 H3136 0.951 . S
C3161 C3159 1.388 . S
C3161 C3162 1.366 . S
C3162 C3161 1.366 . S
C3162 C3163 1.414 . S
C3162 C3165 1.499 . S
C3163 H3137 0.950 . S
C3163 C3162 1.414 . S
C3163 C3164 1.374 . S
C3164 H3138 0.950 . S
C3164 C3160 1.385 . S
C3164 C3163 1.374 . S
C3165 C3162 1.499 . S
C3165 C3166 1.373 . S
C3165 C3167 1.389 . S
C3166 H3139 0.950 . S
C3166 C3152 1.377 . S
C3166 C3165 1.373 . S
C3167 C3151 1.377 . S
C3167 C3165 1.389 . S
C3167 C3168 1.524 . S
C3168 C3167 1.524 . S
C3168 C3169 1.397 . S
C3168 C3173 1.363 . S
C3169 H3140 0.950 . S
C3169 C3168 1.397 . S
C3169 C3170 1.334 . S
C3170 H3141 0.950 . S
C3170 C3169 1.334 . S
C3170 C3171 1.287 . S
C3171 C3170 1.287 . S
C3171 C3172 1.524 . S
C3171 H3174 0.999 . S
C3172 H3142 0.950 . S
C3172 C3171 1.524 . S
C3172 C3173 1.415 . S
C3173 H3143 0.950 . S
C3173 C3168 1.363 . S
C3173 C3172 1.415 . S
H3174 C3171 0.999 . S
H3175 C3156 0.913 . S
H3176 C3194 0.951 . S
H3177 C3196 0.951 . S
H3178 C3198 0.950 . S
H3179 C3199 0.950 . S
H3180 C3201 0.950 . S
H3181 C3204 0.950 . S
H3182 C3205 0.950 . S
H3183 C3207 0.950 . S
H3184 C3208 0.950 . S
H3185 C3209 0.951 . S
H3186 C3211 0.951 . S
H3187 C3213 0.950 . S
H3188 C3214 0.950 . S
H3189 C3216 0.950 . S
H3190 C3219 0.950 . S
H3191 C3220 0.950 . S
H3192 C3222 0.950 . S
H3193 C3223 0.950 . S
C3194 H3176 0.951 . S
C3194 C3195 1.366 . S
C3194 C3196 1.388 . S
C3195 C3194 1.366 . S
C3195 C3199 1.385 . S
C3196 H3177 0.951 . S
C3196 C3194 1.388 . S
C3196 C3197 1.366 . S
C3197 C3196 1.366 . S
C3197 C3198 1.414 . S
C3197 C3200 1.499 . S
C3198 H3178 0.950 . S
C3198 C3197 1.414 . S
C3198 C3199 1.374 . S
C3199 H3179 0.950 . S
C3199 C3195 1.385 . S
C3199 C3198 1.374 . S
C3200 C3197 1.499 . S
C3200 C3201 1.373 . S
C3200 C3202 1.389 . S
C3201 H3180 0.950 . S
C3201 C3200 1.373 . S
C3201 C3217 1.377 . S
C3202 C3200 1.389 . S
C3202 C3203 1.524 . S
C3202 C3216 1.377 . S
C3203 C3202 1.524 . S
C3203 C3204 1.397 . S
C3203 C3208 1.363 . S
C3204 H3181 0.950 . S
C3204 C3203 1.397 . S
C3204 C3205 1.334 . S
C3205 H3182 0.950 . S
C3205 C3204 1.334 . S
C3205 C3206 1.287 . S
C3206 C3205 1.287 . S
C3206 C3207 1.524 . S
C3206 H3225 0.913 . S
C3207 H3183 0.950 . S
C3207 C3206 1.524 . S
C3207 C3208 1.415 . S
C3208 H3184 0.950 . S
C3208 C3203 1.363 . S
C3208 C3207 1.415 . S
C3209 H3185 0.951 . S
C3209 C3210 1.366 . S
C3209 C3211 1.388 . S
C3210 C3209 1.366 . S
C3210 C3214 1.385 . S
C3211 H3186 0.951 . S
C3211 C3209 1.388 . S
C3211 C3212 1.366 . S
C3212 C3211 1.366 . S
C3212 C3213 1.414 . S
C3212 C3215 1.499 . S
C3213 H3187 0.950 . S
C3213 C3212 1.414 . S
C3213 C3214 1.374 . S
C3214 H3188 0.950 . S
C3214 C3210 1.385 . S
C3214 C3213 1.374 . S
C3215 C3212 1.499 . S
C3215 C3216 1.373 . S
C3215 C3217 1.389 . S
C3216 H3189 0.950 . S
C3216 C3202 1.377 . S
C3216 C3215 1.373 . S
C3217 C3201 1.377 . S
C3217 C3215 1.389 . S
C3217 C3218 1.524 . S
C3218 C3217 1.524 . S
C3218 C3219 1.397 . S
C3218 C3223 1.363 . S
C3219 H3190 0.950 . S
C3219 C3218 1.397 . S
C3219 C3220 1.334 . S
C3220 H3191 0.950 . S
C3220 C3219 1.334 . S
C3220 C3221 1.287 . S
C3221 C3220 1.287 . S
C3221 C3222 1.524 . S
C3221 H3224 0.999 . S
C3222 H3192 0.950 . S
C3222 C3221 1.524 . S
C3222 C3223 1.415 . S
C3223 H3193 0.950 . S
C3223 C3218 1.363 . S
C3223 C3222 1.415 . S
H3224 C3221 0.999 . S
H3225 C3206 0.913 . S
H3226 C3244 0.951 . S
H3227 C3246 0.951 . S
H3228 C3248 0.950 . S
H3229 C3249 0.950 . S
H3230 C3251 0.950 . S
H3231 C3254 0.950 . S
H3232 C3255 0.950 . S
H3233 C3257 0.950 . S
H3234 C3258 0.950 . S
H3235 C3259 0.951 . S
H3236 C3261 0.951 . S
H3237 C3263 0.950 . S
H3238 C3264 0.950 . S
H3239 C3266 0.950 . S
H3240 C3269 0.950 . S
H3241 C3270 0.950 . S
H3242 C3272 0.950 . S
H3243 C3273 0.950 . S
C3244 H3226 0.951 . S
C3244 C3245 1.366 . S
C3244 C3246 1.388 . S
C3245 C3244 1.366 . S
C3245 C3249 1.385 . S
C3246 H3227 0.951 . S
C3246 C3244 1.388 . S
C3246 C3247 1.366 . S
C3247 C3246 1.366 . S
C3247 C3248 1.414 . S
C3247 C3250 1.499 . S
C3248 H3228 0.950 . S
C3248 C3247 1.414 . S
C3248 C3249 1.374 . S
C3249 H3229 0.950 . S
C3249 C3245 1.385 . S
C3249 C3248 1.374 . S
C3250 C3247 1.499 . S
C3250 C3251 1.373 . S
C3250 C3252 1.389 . S
C3251 H3230 0.950 . S
C3251 C3250 1.373 . S
C3251 C3267 1.377 . S
C3252 C3250 1.389 . S
C3252 C3253 1.524 . S
C3252 C3266 1.377 . S
C3253 C3252 1.524 . S
C3253 C3254 1.397 . S
C3253 C3258 1.363 . S
C3254 H3231 0.950 . S
C3254 C3253 1.397 . S
C3254 C3255 1.334 . S
C3255 H3232 0.950 . S
C3255 C3254 1.334 . S
C3255 C3256 1.287 . S
C3256 C3255 1.287 . S
C3256 C3257 1.524 . S
C3256 H3275 0.913 . S
C3257 H3233 0.950 . S
C3257 C3256 1.524 . S
C3257 C3258 1.415 . S
C3258 H3234 0.950 . S
C3258 C3253 1.363 . S
C3258 C3257 1.415 . S
C3259 H3235 0.951 . S
C3259 C3260 1.366 . S
C3259 C3261 1.388 . S
C3260 C3259 1.366 . S
C3260 C3264 1.385 . S
C3261 H3236 0.951 . S
C3261 C3259 1.388 . S
C3261 C3262 1.366 . S
C3262 C3261 1.366 . S
C3262 C3263 1.414 . S
C3262 C3265 1.499 . S
C3263 H3237 0.950 . S
C3263 C3262 1.414 . S
C3263 C3264 1.374 . S
C3264 H3238 0.950 . S
C3264 C3260 1.385 . S
C3264 C3263 1.374 . S
C3265 C3262 1.499 . S
C3265 C3266 1.373 . S
C3265 C3267 1.389 . S
C3266 H3239 0.950 . S
C3266 C3252 1.377 . S
C3266 C3265 1.373 . S
C3267 C3251 1.377 . S
C3267 C3265 1.389 . S
C3267 C3268 1.524 . S
C3268 C3267 1.524 . S
C3268 C3269 1.397 . S
C3268 C3273 1.363 . S
C3269 H3240 0.950 . S
C3269 C3268 1.397 . S
C3269 C3270 1.334 . S
C3270 H3241 0.950 . S
C3270 C3269 1.334 . S
C3270 C3271 1.287 . S
C3271 C3270 1.287 . S
C3271 C3272 1.524 . S
C3271 H3274 0.999 . S
C3272 H3242 0.950 . S
C3272 C3271 1.524 . S
C3272 C3273 1.415 . S
C3273 H3243 0.950 . S
C3273 C3268 1.363 . S
C3273 C3272 1.415 . S
H3274 C3271 0.999 . S
H3275 C3256 0.913 . S
H3276 C3294 0.951 . S
H3277 C3296 0.951 . S
H3278 C3298 0.950 . S
H3279 C3299 0.950 . S
H3280 C3301 0.950 . S
H3281 C3304 0.950 . S
H3282 C3305 0.950 . S
H3283 C3307 0.950 . S
H3284 C3308 0.950 . S
H3285 C3309 0.951 . S
H3286 C3311 0.951 . S
H3287 C3313 0.950 . S
H3288 C3314 0.950 . S
H3289 C3316 0.950 . S
H3290 C3319 0.950 . S
H3291 C3320 0.950 . S
H3292 C3322 0.950 . S
H3293 C3323 0.950 . S
C3294 H3276 0.951 . S
C3294 C3295 1.366 . S
C3294 C3296 1.388 . S
C3295 C3294 1.366 . S
C3295 C3299 1.385 . S
C3296 H3277 0.951 . S
C3296 C3294 1.388 . S
C3296 C3297 1.366 . S
C3297 C3296 1.366 . S
C3297 C3298 1.414 . S
C3297 C3300 1.499 . S
C3298 H3278 0.950 . S
C3298 C3297 1.414 . S
C3298 C3299 1.374 . S
C3299 H3279 0.950 . S
C3299 C3295 1.385 . S
C3299 C3298 1.374 . S
C3300 C3297 1.499 . S
C3300 C3301 1.373 . S
C3300 C3302 1.389 . S
C3301 H3280 0.950 . S
C3301 C3300 1.373 . S
C3301 C3317 1.377 . S
C3302 C3300 1.389 . S
C3302 C3303 1.524 . S
C3302 C3316 1.377 . S
C3303 C3302 1.524 . S
C3303 C3304 1.397 . S
C3303 C3308 1.363 . S
C3304 H3281 0.950 . S
C3304 C3303 1.397 . S
C3304 C3305 1.334 . S
C3305 H3282 0.950 . S
C3305 C3304 1.334 . S
C3305 C3306 1.287 . S
C3306 C3305 1.287 . S
C3306 C3307 1.524 . S
C3306 H3325 0.913 . S
C3307 H3283 0.950 . S
C3307 C3306 1.524 . S
C3307 C3308 1.415 . S
C3308 H3284 0.950 . S
C3308 C3303 1.363 . S
C3308 C3307 1.415 . S
C3309 H3285 0.951 . S
C3309 C3310 1.366 . S
C3309 C3311 1.388 . S
C3310 C3309 1.366 . S
C3310 C3314 1.385 . S
C3311 H3286 0.951 . S
C3311 C3309 1.388 . S
C3311 C3312 1.366 . S
C3312 C3311 1.366 . S
C3312 C3313 1.414 . S
C3312 C3315 1.499 . S
C3313 H3287 0.950 . S
C3313 C3312 1.414 . S
C3313 C3314 1.374 . S
C3314 H3288 0.950 . S
C3314 C3310 1.385 . S
C3314 C3313 1.374 . S
C3315 C3312 1.499 . S
C3315 C3316 1.373 . S
C3315 C3317 1.389 . S
C3316 H3289 0.950 . S
C3316 C3302 1.377 . S
C3316 C3315 1.373 . S
C3317 C3301 1.377 . S
C3317 C3315 1.389 . S
C3317 C3318 1.524 . S
C3318 C3317 1.524 . S
C3318 C3319 1.397 . S
C3318 C3323 1.363 . S
C3319 H3290 0.950 . S
C3319 C3318 1.397 . S
C3319 C3320 1.334 . S
C3320 H3291 0.950 . S
C3320 C3319 1.334 . S
C3320 C3321 1.287 . S
C3321 C3320 1.287 . S
C3321 C3322 1.524 . S
C3321 H3324 0.999 . S
C3322 H3292 0.950 . S
C3322 C3321 1.524 . S
C3322 C3323 1.415 . S
C3323 H3293 0.950 . S
C3323 C3318 1.363 . S
C3323 C3322 1.415 . S
H3324 C3321 0.999 . S
H3325 C3306 0.913 . S
H3326 C3344 0.951 . S
H3327 C3346 0.951 . S
H3328 C3348 0.950 . S
H3329 C3349 0.950 . S
H3330 C3351 0.950 . S
H3331 C3354 0.950 . S
H3332 C3355 0.950 . S
H3333 C3357 0.950 . S
H3334 C3358 0.950 . S
H3335 C3359 0.951 . S
H3336 C3361 0.951 . S
H3337 C3363 0.950 . S
H3338 C3364 0.950 . S
H3339 C3366 0.950 . S
H3340 C3369 0.950 . S
H3341 C3370 0.950 . S
H3342 C3372 0.950 . S
H3343 C3373 0.950 . S
C3344 H3326 0.951 . S
C3344 C3345 1.366 . S
C3344 C3346 1.388 . S
C3345 C3344 1.366 . S
C3345 C3349 1.385 . S
C3346 H3327 0.951 . S
C3346 C3344 1.388 . S
C3346 C3347 1.366 . S
C3347 C3346 1.366 . S
C3347 C3348 1.414 . S
C3347 C3350 1.499 . S
C3348 H3328 0.950 . S
C3348 C3347 1.414 . S
C3348 C3349 1.374 . S
C3349 H3329 0.950 . S
C3349 C3345 1.385 . S
C3349 C3348 1.374 . S
C3350 C3347 1.499 . S
C3350 C3351 1.373 . S
C3350 C3352 1.389 . S
C3351 H3330 0.950 . S
C3351 C3350 1.373 . S
C3351 C3367 1.377 . S
C3352 C3350 1.389 . S
C3352 C3353 1.524 . S
C3352 C3366 1.377 . S
C3353 C3352 1.524 . S
C3353 C3354 1.397 . S
C3353 C3358 1.363 . S
C3354 H3331 0.950 . S
C3354 C3353 1.397 . S
C3354 C3355 1.334 . S
C3355 H3332 0.950 . S
C3355 C3354 1.334 . S
C3355 C3356 1.287 . S
C3356 C3355 1.287 . S
C3356 C3357 1.524 . S
C3356 H3375 0.913 . S
C3357 H3333 0.950 . S
C3357 C3356 1.524 . S
C3357 C3358 1.415 . S
C3358 H3334 0.950 . S
C3358 C3353 1.363 . S
C3358 C3357 1.415 . S
C3359 H3335 0.951 . S
C3359 C3360 1.366 . S
C3359 C3361 1.388 . S
C3360 C3359 1.366 . S
C3360 C3364 1.385 . S
C3361 H3336 0.951 . S
C3361 C3359 1.388 . S
C3361 C3362 1.366 . S
C3362 C3361 1.366 . S
C3362 C3363 1.414 . S
C3362 C3365 1.499 . S
C3363 H3337 0.950 . S
C3363 C3362 1.414 . S
C3363 C3364 1.374 . S
C3364 H3338 0.950 . S
C3364 C3360 1.385 . S
C3364 C3363 1.374 . S
C3365 C3362 1.499 . S
C3365 C3366 1.373 . S
C3365 C3367 1.389 . S
C3366 H3339 0.950 . S
C3366 C3352 1.377 . S
C3366 C3365 1.373 . S
C3367 C3351 1.377 . S
C3367 C3365 1.389 . S
C3367 C3368 1.524 . S
C3368 C3367 1.524 . S
C3368 C3369 1.397 . S
C3368 C3373 1.363 . S
C3369 H3340 0.950 . S
C3369 C3368 1.397 . S
C3369 C3370 1.334 . S
C3370 H3341 0.950 . S
C3370 C3369 1.334 . S
C3370 C3371 1.287 . S
C3371 C3370 1.287 . S
C3371 C3372 1.524 . S
C3371 H3374 0.999 . S
C3372 H3342 0.950 . S
C3372 C3371 1.524 . S
C3372 C3373 1.415 . S
C3373 H3343 0.950 . S
C3373 C3368 1.363 . S
C3373 C3372 1.415 . S
H3374 C3371 0.999 . S
H3375 C3356 0.913 . S
H3376 C3394 0.951 . S
H3377 C3396 0.951 . S
H3378 C3398 0.950 . S
H3379 C3399 0.950 . S
H3380 C3401 0.950 . S
H3381 C3404 0.950 . S
H3382 C3405 0.950 . S
H3383 C3407 0.950 . S
H3384 C3408 0.950 . S
H3385 C3409 0.951 . S
H3386 C3411 0.951 . S
H3387 C3413 0.950 . S
H3388 C3414 0.950 . S
H3389 C3416 0.950 . S
H3390 C3419 0.950 . S
H3391 C3420 0.950 . S
H3392 C3422 0.950 . S
H3393 C3423 0.950 . S
C3394 H3376 0.951 . S
C3394 C3395 1.366 . S
C3394 C3396 1.388 . S
C3395 C3394 1.366 . S
C3395 C3399 1.385 . S
C3396 H3377 0.951 . S
C3396 C3394 1.388 . S
C3396 C3397 1.366 . S
C3397 C3396 1.366 . S
C3397 C3398 1.414 . S
C3397 C3400 1.499 . S
C3398 H3378 0.950 . S
C3398 C3397 1.414 . S
C3398 C3399 1.374 . S
C3399 H3379 0.950 . S
C3399 C3395 1.385 . S
C3399 C3398 1.374 . S
C3400 C3397 1.499 . S
C3400 C3401 1.373 . S
C3400 C3402 1.389 . S
C3401 H3380 0.950 . S
C3401 C3400 1.373 . S
C3401 C3417 1.377 . S
C3402 C3400 1.389 . S
C3402 C3403 1.524 . S
C3402 C3416 1.377 . S
C3403 C3402 1.524 . S
C3403 C3404 1.397 . S
C3403 C3408 1.363 . S
C3404 H3381 0.950 . S
C3404 C3403 1.397 . S
C3404 C3405 1.334 . S
C3405 H3382 0.950 . S
C3405 C3404 1.334 . S
C3405 C3406 1.287 . S
C3406 C3405 1.287 . S
C3406 C3407 1.524 . S
C3406 H3425 0.913 . S
C3407 H3383 0.950 . S
C3407 C3406 1.524 . S
C3407 C3408 1.415 . S
C3408 H3384 0.950 . S
C3408 C3403 1.363 . S
C3408 C3407 1.415 . S
C3409 H3385 0.951 . S
C3409 C3410 1.366 . S
C3409 C3411 1.388 . S
C3410 C3409 1.366 . S
C3410 C3414 1.385 . S
C3411 H3386 0.951 . S
C3411 C3409 1.388 . S
C3411 C3412 1.366 . S
C3412 C3411 1.366 . S
C3412 C3413 1.414 . S
C3412 C3415 1.499 . S
C3413 H3387 0.950 . S
C3413 C3412 1.414 . S
C3413 C3414 1.374 . S
C3414 H3388 0.950 . S
C3414 C3410 1.385 . S
C3414 C3413 1.374 . S
C3415 C3412 1.499 . S
C3415 C3416 1.373 . S
C3415 C3417 1.389 . S
C3416 H3389 0.950 . S
C3416 C3402 1.377 . S
C3416 C3415 1.373 . S
C3417 C3401 1.377 . S
C3417 C3415 1.389 . S
C3417 C3418 1.524 . S
C3418 C3417 1.524 . S
C3418 C3419 1.397 . S
C3418 C3423 1.363 . S
C3419 H3390 0.950 . S
C3419 C3418 1.397 . S
C3419 C3420 1.334 . S
C3420 H3391 0.950 . S
C3420 C3419 1.334 . S
C3420 C3421 1.287 . S
C3421 C3420 1.287 . S
C3421 C3422 1.524 . S
C3421 H3424 0.999 . S
C3422 H3392 0.950 . S
C3422 C3421 1.524 . S
C3422 C3423 1.415 . S
C3423 H3393 0.950 . S
C3423 C3418 1.363 . S
C3423 C3422 1.415 . S
H3424 C3421 0.999 . S
H3425 C3406 0.913 . S
H3426 C3444 0.951 . S
H3427 C3446 0.951 . S
H3428 C3448 0.950 . S
H3429 C3449 0.950 . S
H3430 C3451 0.950 . S
H3431 C3454 0.950 . S
H3432 C3455 0.950 . S
H3433 C3457 0.950 . S
H3434 C3458 0.950 . S
H3435 C3459 0.951 . S
H3436 C3461 0.951 . S
H3437 C3463 0.950 . S
H3438 C3464 0.950 . S
H3439 C3466 0.950 . S
H3440 C3469 0.950 . S
H3441 C3470 0.950 . S
H3442 C3472 0.950 . S
H3443 C3473 0.950 . S
C3444 H3426 0.951 . S
C3444 C3445 1.366 . S
C3444 C3446 1.388 . S
C3445 C3444 1.366 . S
C3445 C3449 1.385 . S
C3446 H3427 0.951 . S
C3446 C3444 1.388 . S
C3446 C3447 1.366 . S
C3447 C3446 1.366 . S
C3447 C3448 1.414 . S
C3447 C3450 1.499 . S
C3448 H3428 0.950 . S
C3448 C3447 1.414 . S
C3448 C3449 1.374 . S
C3449 H3429 0.950 . S
C3449 C3445 1.385 . S
C3449 C3448 1.374 . S
C3450 C3447 1.499 . S
C3450 C3451 1.373 . S
C3450 C3452 1.389 . S
C3451 H3430 0.950 . S
C3451 C3450 1.373 . S
C3451 C3467 1.377 . S
C3452 C3450 1.389 . S
C3452 C3453 1.524 . S
C3452 C3466 1.377 . S
C3453 C3452 1.524 . S
C3453 C3454 1.397 . S
C3453 C3458 1.363 . S
C3454 H3431 0.950 . S
C3454 C3453 1.397 . S
C3454 C3455 1.334 . S
C3455 H3432 0.950 . S
C3455 C3454 1.334 . S
C3455 C3456 1.287 . S
C3456 C3455 1.287 . S
C3456 C3457 1.524 . S
C3456 H3475 0.913 . S
C3457 H3433 0.950 . S
C3457 C3456 1.524 . S
C3457 C3458 1.415 . S
C3458 H3434 0.950 . S
C3458 C3453 1.363 . S
C3458 C3457 1.415 . S
C3459 H3435 0.951 . S
C3459 C3460 1.366 . S
C3459 C3461 1.388 . S
C3460 C3459 1.366 . S
C3460 C3464 1.385 . S
C3461 H3436 0.951 . S
C3461 C3459 1.388 . S
C3461 C3462 1.366 . S
C3462 C3461 1.366 . S
C3462 C3463 1.414 . S
C3462 C3465 1.499 . S
C3463 H3437 0.950 . S
C3463 C3462 1.414 . S
C3463 C3464 1.374 . S
C3464 H3438 0.950 . S
C3464 C3460 1.385 . S
C3464 C3463 1.374 . S
C3465 C3462 1.499 . S
C3465 C3466 1.373 . S
C3465 C3467 1.389 . S
C3466 H3439 0.950 . S
C3466 C3452 1.377 . S
C3466 C3465 1.373 . S
C3467 C3451 1.377 . S
C3467 C3465 1.389 . S
C3467 C3468 1.524 . S
C3468 C3467 1.524 . S
C3468 C3469 1.397 . S
C3468 C3473 1.363 . S
C3469 H3440 0.950 . S
C3469 C3468 1.397 . S
C3469 C3470 1.334 . S
C3470 H3441 0.950 . S
C3470 C3469 1.334 . S
C3470 C3471 1.287 . S
C3471 C3470 1.287 . S
C3471 C3472 1.524 . S
C3471 H3474 0.999 . S
C3472 H3442 0.950 . S
C3472 C3471 1.524 . S
C3472 C3473 1.415 . S
C3473 H3443 0.950 . S
C3473 C3468 1.363 . S
C3473 C3472 1.415 . S
H3474 C3471 0.999 . S
H3475 C3456 0.913 . S
H3476 C3494 0.951 1_655 S
H3477 C3496 0.951 1_655 S
H3478 C3498 0.950 . S
H3479 C3499 0.950 . S
H3480 C3501 0.950 . S
H3481 C3504 0.950 . S
H3482 C3505 0.950 . S
H3483 C3507 0.950 . S
H3484 C3508 0.950 . S
H3485 C3509 0.951 . S
H3486 C3511 0.951 . S
H3487 C3513 0.950 1_655 S
H3488 C3514 0.950 1_655 S
H3489 C3516 0.950 . S
H3490 C3519 0.950 . S
H3491 C3520 0.950 . S
H3492 C3522 0.950 . S
H3493 C3523 0.950 . S
C3494 H3476 0.951 1_455 S
C3494 C3495 1.366 . S
C3494 C3496 1.388 . S
C3495 C3494 1.366 . S
C3495 C3499 1.385 . S
C3496 H3477 0.951 1_455 S
C3496 C3494 1.388 . S
C3496 C3497 1.366 . S
C3497 C3496 1.366 . S
C3497 C3498 1.414 . S
C3497 C3500 1.499 . S
C3498 H3478 0.950 . S
C3498 C3497 1.414 . S
C3498 C3499 1.374 . S
C3499 H3479 0.950 . S
C3499 C3495 1.385 . S
C3499 C3498 1.374 . S
C3500 C3497 1.499 . S
C3500 C3501 1.373 . S
C3500 C3502 1.389 . S
C3501 H3480 0.950 . S
C3501 C3500 1.373 . S
C3501 C3517 1.377 . S
C3502 C3500 1.389 . S
C3502 C3503 1.524 . S
C3502 C3516 1.377 . S
C3503 C3502 1.524 . S
C3503 C3504 1.397 . S
C3503 C3508 1.363 1_455 S
C3504 H3481 0.950 . S
C3504 C3503 1.397 . S
C3504 C3505 1.334 . S
C3505 H3482 0.950 . S
C3505 C3504 1.334 . S
C3505 C3506 1.287 . S
C3506 C3505 1.287 . S
C3506 C3507 1.524 1_455 S
C3506 H3525 0.913 1_455 S
C3507 H3483 0.950 . S
C3507 C3506 1.524 1_655 S
C3507 C3508 1.415 . S
C3508 H3484 0.950 . S
C3508 C3503 1.363 1_655 S
C3508 C3507 1.415 . S
C3509 H3485 0.951 . S
C3509 C3510 1.366 . S
C3509 C3511 1.388 . S
C3510 C3509 1.366 . S
C3510 C3514 1.385 1_554 S
C3511 H3486 0.951 . S
C3511 C3509 1.388 . S
C3511 C3512 1.366 1_554 S
C3512 C3511 1.366 1_556 S
C3512 C3513 1.414 . S
C3512 C3515 1.499 . S
C3513 H3487 0.950 1_455 S
C3513 C3512 1.414 . S
C3513 C3514 1.374 . S
C3514 H3488 0.950 1_455 S
C3514 C3510 1.385 1_556 S
C3514 C3513 1.374 . S
C3515 C3512 1.499 . S
C3515 C3516 1.373 . S
C3515 C3517 1.389 . S
C3516 H3489 0.950 . S
C3516 C3502 1.377 . S
C3516 C3515 1.373 . S
C3517 C3501 1.377 . S
C3517 C3515 1.389 . S
C3517 C3518 1.524 1_556 S
C3518 C3517 1.524 1_554 S
C3518 C3519 1.397 . S
C3518 C3523 1.363 . S
C3519 H3490 0.950 . S
C3519 C3518 1.397 . S
C3519 C3520 1.334 . S
C3520 H3491 0.950 . S
C3520 C3519 1.334 . S
C3520 C3521 1.287 . S
C3521 C3520 1.287 . S
C3521 C3522 1.524 . S
C3521 H3524 0.999 . S
C3522 H3492 0.950 . S
C3522 C3521 1.524 . S
C3522 C3523 1.415 . S
C3523 H3493 0.950 . S
C3523 C3518 1.363 . S
C3523 C3522 1.415 . S
H3524 C3521 0.999 . S
H3525 C3506 0.913 1_655 S
H3526 C3544 0.951 . S
H3527 C3546 0.951 . S
H3528 C3548 0.950 . S
H3529 C3549 0.950 . S
H3530 C3551 0.950 . S
H3531 C3554 0.950 . S
H3532 C3555 0.950 . S
H3533 C3557 0.950 . S
H3534 C3558 0.950 . S
H3535 C3559 0.951 . S
H3536 C3561 0.951 . S
H3537 C3563 0.950 . S
H3538 C3564 0.950 . S
H3539 C3566 0.950 . S
H3540 C3569 0.950 . S
H3541 C3570 0.950 . S
H3542 C3572 0.950 . S
H3543 C3573 0.950 . S
C3544 H3526 0.951 . S
C3544 C3545 1.366 1_655 S
C3544 C3546 1.388 . S
C3545 C3544 1.366 1_455 S
C3545 C3549 1.385 . S
C3546 H3527 0.951 . S
C3546 C3544 1.388 . S
C3546 C3547 1.366 . S
C3547 C3546 1.366 . S
C3547 C3548 1.414 . S
C3547 C3550 1.499 . S
C3548 H3528 0.950 . S
C3548 C3547 1.414 . S
C3548 C3549 1.374 1_655 S
C3549 H3529 0.950 . S
C3549 C3545 1.385 . S
C3549 C3548 1.374 1_455 S
C3550 C3547 1.499 . S
C3550 C3551 1.373 . S
C3550 C3552 1.389 . S
C3551 H3530 0.950 . S
C3551 C3550 1.373 . S
C3551 C3567 1.377 . S
C3552 C3550 1.389 . S
C3552 C3553 1.524 . S
C3552 C3566 1.377 . S
C3553 C3552 1.524 . S
C3553 C3554 1.397 . S
C3553 C3558 1.363 . S
C3554 H3531 0.950 . S
C3554 C3553 1.397 . S
C3554 C3555 1.334 . S
C3555 H3532 0.950 . S
C3555 C3554 1.334 . S
C3555 C3556 1.287 . S
C3556 C3555 1.287 . S
C3556 C3557 1.524 . S
C3556 H3575 0.913 . S
C3557 H3533 0.950 . S
C3557 C3556 1.524 . S
C3557 C3558 1.415 . S
C3558 H3534 0.950 . S
C3558 C3553 1.363 . S
C3558 C3557 1.415 . S
C3559 H3535 0.951 . S
C3559 C3560 1.366 . S
C3559 C3561 1.388 . S
C3560 C3559 1.366 . S
C3560 C3564 1.385 . S
C3561 H3536 0.951 . S
C3561 C3559 1.388 . S
C3561 C3562 1.366 . S
C3562 C3561 1.366 . S
C3562 C3563 1.414 . S
C3562 C3565 1.499 . S
C3563 H3537 0.950 . S
C3563 C3562 1.414 . S
C3563 C3564 1.374 . S
C3564 H3538 0.950 . S
C3564 C3560 1.385 . S
C3564 C3563 1.374 . S
C3565 C3562 1.499 . S
C3565 C3566 1.373 . S
C3565 C3567 1.389 . S
C3566 H3539 0.950 . S
C3566 C3552 1.377 . S
C3566 C3565 1.373 . S
C3567 C3551 1.377 . S
C3567 C3565 1.389 . S
C3567 C3568 1.524 . S
C3568 C3567 1.524 . S
C3568 C3569 1.397 . S
C3568 C3573 1.363 . S
C3569 H3540 0.950 . S
C3569 C3568 1.397 . S
C3569 C3570 1.334 . S
C3570 H3541 0.950 . S
C3570 C3569 1.334 . S
C3570 C3571 1.287 . S
C3571 C3570 1.287 . S
C3571 C3572 1.524 . S
C3571 H3574 0.999 . S
C3572 H3542 0.950 . S
C3572 C3571 1.524 . S
C3572 C3573 1.415 . S
C3573 H3543 0.950 . S
C3573 C3568 1.363 . S
C3573 C3572 1.415 . S
H3574 C3571 0.999 . S
H3575 C3556 0.913 . S
H3576 C3594 0.951 . S
H3577 C3596 0.951 . S
H3578 C3598 0.950 . S
H3579 C3599 0.950 . S
H3580 C3601 0.950 . S
H3581 C3604 0.950 . S
H3582 C3605 0.950 . S
H3583 C3607 0.950 . S
H3584 C3608 0.950 . S
H3585 C3609 0.951 . S
H3586 C3611 0.951 . S
H3587 C3613 0.950 . S
H3588 C3614 0.950 . S
H3589 C3616 0.950 . S
H3590 C3619 0.950 . S
H3591 C3620 0.950 . S
H3592 C3622 0.950 . S
H3593 C3623 0.950 . S
C3594 H3576 0.951 . S
C3594 C3595 1.366 . S
C3594 C3596 1.388 . S
C3595 C3594 1.366 . S
C3595 C3599 1.385 . S
C3596 H3577 0.951 . S
C3596 C3594 1.388 . S
C3596 C3597 1.366 . S
C3597 C3596 1.366 . S
C3597 C3598 1.414 . S
C3597 C3600 1.499 . S
C3598 H3578 0.950 . S
C3598 C3597 1.414 . S
C3598 C3599 1.374 . S
C3599 H3579 0.950 . S
C3599 C3595 1.385 . S
C3599 C3598 1.374 . S
C3600 C3597 1.499 . S
C3600 C3601 1.373 . S
C3600 C3602 1.389 . S
C3601 H3580 0.950 . S
C3601 C3600 1.373 . S
C3601 C3617 1.377 . S
C3602 C3600 1.389 . S
C3602 C3603 1.524 . S
C3602 C3616 1.377 . S
C3603 C3602 1.524 . S
C3603 C3604 1.397 . S
C3603 C3608 1.363 . S
C3604 H3581 0.950 . S
C3604 C3603 1.397 . S
C3604 C3605 1.334 . S
C3605 H3582 0.950 . S
C3605 C3604 1.334 . S
C3605 C3606 1.287 . S
C3606 C3605 1.287 . S
C3606 C3607 1.524 . S
C3606 H3625 0.913 . S
C3607 H3583 0.950 . S
C3607 C3606 1.524 . S
C3607 C3608 1.415 . S
C3608 H3584 0.950 . S
C3608 C3603 1.363 . S
C3608 C3607 1.415 . S
C3609 H3585 0.951 . S
C3609 C3610 1.366 . S
C3609 C3611 1.388 . S
C3610 C3609 1.366 . S
C3610 C3614 1.385 . S
C3611 H3586 0.951 . S
C3611 C3609 1.388 . S
C3611 C3612 1.366 . S
C3612 C3611 1.366 . S
C3612 C3613 1.414 . S
C3612 C3615 1.499 . S
C3613 H3587 0.950 . S
C3613 C3612 1.414 . S
C3613 C3614 1.374 . S
C3614 H3588 0.950 . S
C3614 C3610 1.385 . S
C3614 C3613 1.374 . S
C3615 C3612 1.499 . S
C3615 C3616 1.373 . S
C3615 C3617 1.389 . S
C3616 H3589 0.950 . S
C3616 C3602 1.377 . S
C3616 C3615 1.373 . S
C3617 C3601 1.377 . S
C3617 C3615 1.389 . S
C3617 C3618 1.524 . S
C3618 C3617 1.524 . S
C3618 C3619 1.397 . S
C3618 C3623 1.363 . S
C3619 H3590 0.950 . S
C3619 C3618 1.397 . S
C3619 C3620 1.334 . S
C3620 H3591 0.950 . S
C3620 C3619 1.334 . S
C3620 C3621 1.287 . S
C3621 C3620 1.287 . S
C3621 C3622 1.524 . S
C3621 H3624 0.999 . S
C3622 H3592 0.950 . S
C3622 C3621 1.524 . S
C3622 C3623 1.415 . S
C3623 H3593 0.950 . S
C3623 C3618 1.363 . S
C3623 C3622 1.415 . S
H3624 C3621 0.999 . S
H3625 C3606 0.913 . S
H3626 C3644 0.951 . S
H3627 C3646 0.951 . S
H3628 C3648 0.950 . S
H3629 C3649 0.950 . S
H3630 C3651 0.950 . S
H3631 C3654 0.950 . S
H3632 C3655 0.950 . S
H3633 C3657 0.950 . S
H3634 C3658 0.950 . S
H3635 C3659 0.951 . S
H3636 C3661 0.951 . S
H3637 C3663 0.950 . S
H3638 C3664 0.950 . S
H3639 C3666 0.950 . S
H3640 C3669 0.950 . S
H3641 C3670 0.950 . S
H3642 C3672 0.950 . S
H3643 C3673 0.950 . S
C3644 H3626 0.951 . S
C3644 C3645 1.366 . S
C3644 C3646 1.388 . S
C3645 C3644 1.366 . S
C3645 C3649 1.385 . S
C3646 H3627 0.951 . S
C3646 C3644 1.388 . S
C3646 C3647 1.366 . S
C3647 C3646 1.366 . S
C3647 C3648 1.414 . S
C3647 C3650 1.499 . S
C3648 H3628 0.950 . S
C3648 C3647 1.414 . S
C3648 C3649 1.374 . S
C3649 H3629 0.950 . S
C3649 C3645 1.385 . S
C3649 C3648 1.374 . S
C3650 C3647 1.499 . S
C3650 C3651 1.373 . S
C3650 C3652 1.389 . S
C3651 H3630 0.950 . S
C3651 C3650 1.373 . S
C3651 C3667 1.377 . S
C3652 C3650 1.389 . S
C3652 C3653 1.524 . S
C3652 C3666 1.377 . S
C3653 C3652 1.524 . S
C3653 C3654 1.397 . S
C3653 C3658 1.363 . S
C3654 H3631 0.950 . S
C3654 C3653 1.397 . S
C3654 C3655 1.334 . S
C3655 H3632 0.950 . S
C3655 C3654 1.334 . S
C3655 C3656 1.287 . S
C3656 C3655 1.287 . S
C3656 C3657 1.524 . S
C3656 H3675 0.913 . S
C3657 H3633 0.950 . S
C3657 C3656 1.524 . S
C3657 C3658 1.415 . S
C3658 H3634 0.950 . S
C3658 C3653 1.363 . S
C3658 C3657 1.415 . S
C3659 H3635 0.951 . S
C3659 C3660 1.366 . S
C3659 C3661 1.388 . S
C3660 C3659 1.366 . S
C3660 C3664 1.385 . S
C3661 H3636 0.951 . S
C3661 C3659 1.388 . S
C3661 C3662 1.366 . S
C3662 C3661 1.366 . S
C3662 C3663 1.414 . S
C3662 C3665 1.499 . S
C3663 H3637 0.950 . S
C3663 C3662 1.414 . S
C3663 C3664 1.374 . S
C3664 H3638 0.950 . S
C3664 C3660 1.385 . S
C3664 C3663 1.374 . S
C3665 C3662 1.499 . S
C3665 C3666 1.373 . S
C3665 C3667 1.389 . S
C3666 H3639 0.950 . S
C3666 C3652 1.377 . S
C3666 C3665 1.373 . S
C3667 C3651 1.377 . S
C3667 C3665 1.389 . S
C3667 C3668 1.524 . S
C3668 C3667 1.524 . S
C3668 C3669 1.397 . S
C3668 C3673 1.363 . S
C3669 H3640 0.950 . S
C3669 C3668 1.397 . S
C3669 C3670 1.334 . S
C3670 H3641 0.950 . S
C3670 C3669 1.334 . S
C3670 C3671 1.287 . S
C3671 C3670 1.287 . S
C3671 C3672 1.524 . S
C3671 H3674 0.999 . S
C3672 H3642 0.950 . S
C3672 C3671 1.524 . S
C3672 C3673 1.415 . S
C3673 H3643 0.950 . S
C3673 C3668 1.363 . S
C3673 C3672 1.415 . S
H3674 C3671 0.999 . S
H3675 C3656 0.913 . S
H3676 C3694 0.951 . S
H3677 C3696 0.951 . S
H3678 C3698 0.950 . S
H3679 C3699 0.950 . S
H3680 C3701 0.950 . S
H3681 C3704 0.950 . S
H3682 C3705 0.950 . S
H3683 C3707 0.950 . S
H3684 C3708 0.979 . S
H3685 C3709 0.951 . S
H3686 C3711 0.951 . S
H3687 C3713 0.950 . S
H3688 C3714 0.950 . S
H3689 C3716 0.950 . S
H3690 C3719 0.950 . S
H3691 C3720 0.950 . S
H3692 C3722 0.950 . S
H3693 C3723 0.950 . S
C3694 H3676 0.951 . S
C3694 C3695 1.366 . S
C3694 C3696 1.388 . S
C3695 C3694 1.366 . S
C3695 C3699 1.385 . S
C3696 H3677 0.951 . S
C3696 C3694 1.388 . S
C3696 C3697 1.366 . S
C3697 C3696 1.366 . S
C3697 C3698 1.414 . S
C3697 C3700 1.499 . S
C3698 H3678 0.950 . S
C3698 C3697 1.414 . S
C3698 C3699 1.374 . S
C3699 H3679 0.950 . S
C3699 C3695 1.385 . S
C3699 C3698 1.374 . S
C3700 C3697 1.499 . S
C3700 C3701 1.373 . S
C3700 C3702 1.389 . S
C3701 H3680 0.950 . S
C3701 C3700 1.373 . S
C3701 C3717 1.377 . S
C3702 C3700 1.389 . S
C3702 C3703 1.524 . S
C3702 C3716 1.377 . S
C3703 C3702 1.524 . S
C3703 C3704 1.397 . S
C3703 C3708 1.387 . S
C3704 H3681 0.950 . S
C3704 C3703 1.397 . S
C3704 C3705 1.334 1_455 S
C3705 H3682 0.950 . S
C3705 C3704 1.334 1_655 S
C3705 C3706 1.287 . S
C3706 C3705 1.287 . S
C3706 C3707 1.524 . S
C3706 H3725 0.913 . S
C3707 H3683 0.950 . S
C3707 C3706 1.524 . S
C3707 C3708 1.365 1_655 S
C3708 H3684 0.979 . S
C3708 C3703 1.387 . S
C3708 C3707 1.365 1_455 S
C3709 H3685 0.951 . S
C3709 C3710 1.366 . S
C3709 C3711 1.388 . S
C3710 C3709 1.366 . S
C3710 C3714 1.385 . S
C3711 H3686 0.951 . S
C3711 C3709 1.388 . S
C3711 C3712 1.366 . S
C3712 C3711 1.366 . S
C3712 C3713 1.414 . S
C3712 C3715 1.499 . S
C3713 H3687 0.950 . S
C3713 C3712 1.414 . S
C3713 C3714 1.374 . S
C3714 H3688 0.950 . S
C3714 C3710 1.385 . S
C3714 C3713 1.374 . S
C3715 C3712 1.499 . S
C3715 C3716 1.373 . S
C3715 C3717 1.389 . S
C3716 H3689 0.950 . S
C3716 C3702 1.377 . S
C3716 C3715 1.373 . S
C3717 C3701 1.377 . S
C3717 C3715 1.389 . S
C3717 C3718 1.524 . S
C3718 C3717 1.524 . S
C3718 C3719 1.397 . S
C3718 C3723 1.363 . S
C3719 H3690 0.950 . S
C3719 C3718 1.397 . S
C3719 C3720 1.334 . S
C3720 H3691 0.950 . S
C3720 C3719 1.334 . S
C3720 C3721 1.287 . S
C3721 C3720 1.287 . S
C3721 C3722 1.524 . S
C3721 H3724 0.999 . S
C3722 H3692 0.950 . S
C3722 C3721 1.524 . S
C3722 C3723 1.415 . S
C3723 H3693 0.950 . S
C3723 C3718 1.363 . S
C3723 C3722 1.415 . S
H3724 C3721 0.999 . S
H3725 C3706 0.913 . S
H3726 C3744 0.951 . S
H3727 C3746 0.951 . S
H3728 C3748 0.950 . S
H3729 C3749 0.950 . S
H3730 C3751 0.950 . S
H3731 C3754 0.950 . S
H3732 C3755 0.950 . S
H3733 C3757 0.950 . S
H3734 C3758 0.950 . S
H3735 C3759 0.951 . S
H3736 C3761 0.951 . S
H3737 C3763 0.950 . S
H3738 C3764 0.950 . S
H3739 C3766 0.950 . S
H3740 C3769 0.950 . S
H3741 C3770 0.950 . S
H3742 C3772 0.950 . S
H3743 C3773 0.950 . S
C3744 H3726 0.951 . S
C3744 C3745 1.366 . S
C3744 C3746 1.388 . S
C3745 C3744 1.366 . S
C3745 C3749 1.385 . S
C3746 H3727 0.951 . S
C3746 C3744 1.388 . S
C3746 C3747 1.366 . S
C3747 C3746 1.366 . S
C3747 C3748 1.414 . S
C3747 C3750 1.499 . S
C3748 H3728 0.950 . S
C3748 C3747 1.414 . S
C3748 C3749 1.374 . S
C3749 H3729 0.950 . S
C3749 C3745 1.385 . S
C3749 C3748 1.374 . S
C3750 C3747 1.499 . S
C3750 C3751 1.373 . S
C3750 C3752 1.389 . S
C3751 H3730 0.950 . S
C3751 C3750 1.373 . S
C3751 C3767 1.377 . S
C3752 C3750 1.389 . S
C3752 C3753 1.524 . S
C3752 C3766 1.377 . S
C3753 C3752 1.524 . S
C3753 C3754 1.397 . S
C3753 C3758 1.363 . S
C3754 H3731 0.950 . S
C3754 C3753 1.397 . S
C3754 C3755 1.334 . S
C3755 H3732 0.950 . S
C3755 C3754 1.334 . S
C3755 C3756 1.287 . S
C3756 C3755 1.287 . S
C3756 C3757 1.524 . S
C3756 H3775 0.913 . S
C3757 H3733 0.950 . S
C3757 C3756 1.524 . S
C3757 C3758 1.415 . S
C3758 H3734 0.950 . S
C3758 C3753 1.363 . S
C3758 C3757 1.415 . S
C3759 H3735 0.951 . S
C3759 C3760 1.366 . S
C3759 C3761 1.388 . S
C3760 C3759 1.366 . S
C3760 C3764 1.385 . S
C3761 H3736 0.951 . S
C3761 C3759 1.388 . S
C3761 C3762 1.366 . S
C3762 C3761 1.366 . S
C3762 C3763 1.414 . S
C3762 C3765 1.499 . S
C3763 H3737 0.950 . S
C3763 C3762 1.414 . S
C3763 C3764 1.374 . S
C3764 H3738 0.950 . S
C3764 C3760 1.385 . S
C3764 C3763 1.374 . S
C3765 C3762 1.499 . S
C3765 C3766 1.373 . S
C3765 C3767 1.389 . S
C3766 H3739 0.950 . S
C3766 C3752 1.377 . S
C3766 C3765 1.373 . S
C3767 C3751 1.377 . S
C3767 C3765 1.389 . S
C3767 C3768 1.524 . S
C3768 C3767 1.524 . S
C3768 C3769 1.397 . S
C3768 C3773 1.363 . S
C3769 H3740 0.950 . S
C3769 C3768 1.397 . S
C3769 C3770 1.334 . S
C3770 H3741 0.950 . S
C3770 C3769 1.334 . S
C3770 C3771 1.287 . S
C3771 C3770 1.287 . S
C3771 C3772 1.524 . S
C3771 H3774 0.999 . S
C3772 H3742 0.950 . S
C3772 C3771 1.524 . S
C3772 C3773 1.415 . S
C3773 H3743 0.950 . S
C3773 C3768 1.363 . S
C3773 C3772 1.415 . S
H3774 C3771 0.999 . S
H3775 C3756 0.913 . S
H3776 C3794 0.951 . S
H3777 C3796 0.951 . S
H3778 C3798 0.950 . S
H3779 C3799 0.950 . S
H3780 C3801 0.950 . S
H3781 C3804 0.950 . S
H3782 C3805 0.950 . S
H3783 C3807 0.950 . S
H3784 C3808 0.950 . S
H3785 C3809 0.951 . S
H3786 C3811 0.951 . S
H3787 C3813 0.950 . S
H3788 C3814 0.950 . S
H3789 C3816 0.950 . S
H3790 C3819 0.950 . S
H3791 C3820 0.950 . S
H3792 C3822 0.950 . S
H3793 C3823 0.950 . S
C3794 H3776 0.951 . S
C3794 C3795 1.366 . S
C3794 C3796 1.388 . S
C3795 C3794 1.366 . S
C3795 C3799 1.385 . S
C3796 H3777 0.951 . S
C3796 C3794 1.388 . S
C3796 C3797 1.366 . S
C3797 C3796 1.366 . S
C3797 C3798 1.414 . S
C3797 C3800 1.499 . S
C3798 H3778 0.950 . S
C3798 C3797 1.414 . S
C3798 C3799 1.374 . S
C3799 H3779 0.950 . S
C3799 C3795 1.385 . S
C3799 C3798 1.374 . S
C3800 C3797 1.499 . S
C3800 C3801 1.373 . S
C3800 C3802 1.389 . S
C3801 H3780 0.950 . S
C3801 C3800 1.373 . S
C3801 C3817 1.377 . S
C3802 C3800 1.389 . S
C3802 C3803 1.524 . S
C3802 C3816 1.377 . S
C3803 C3802 1.524 . S
C3803 C3804 1.397 . S
C3803 C3808 1.363 . S
C3804 H3781 0.950 . S
C3804 C3803 1.397 . S
C3804 C3805 1.334 . S
C3805 H3782 0.950 . S
C3805 C3804 1.334 . S
C3805 C3806 1.287 . S
C3806 C3805 1.287 . S
C3806 C3807 1.524 . S
C3806 H3825 0.913 . S
C3807 H3783 0.950 . S
C3807 C3806 1.524 . S
C3807 C3808 1.415 . S
C3808 H3784 0.950 . S
C3808 C3803 1.363 . S
C3808 C3807 1.415 . S
C3809 H3785 0.951 . S
C3809 C3810 1.366 . S
C3809 C3811 1.388 . S
C3810 C3809 1.366 . S
C3810 C3814 1.385 . S
C3811 H3786 0.951 . S
C3811 C3809 1.388 . S
C3811 C3812 1.366 . S
C3812 C3811 1.366 . S
C3812 C3813 1.414 . S
C3812 C3815 1.499 . S
C3813 H3787 0.950 . S
C3813 C3812 1.414 . S
C3813 C3814 1.374 . S
C3814 H3788 0.950 . S
C3814 C3810 1.385 . S
C3814 C3813 1.374 . S
C3815 C3812 1.499 . S
C3815 C3816 1.373 . S
C3815 C3817 1.389 . S
C3816 H3789 0.950 . S
C3816 C3802 1.377 . S
C3816 C3815 1.373 . S
C3817 C3801 1.377 . S
C3817 C3815 1.389 . S
C3817 C3818 1.524 . S
C3818 C3817 1.524 . S
C3818 C3819 1.397 . S
C3818 C3823 1.363 . S
C3819 H3790 0.950 . S
C3819 C3818 1.397 . S
C3819 C3820 1.334 . S
C3820 H3791 0.950 . S
C3820 C3819 1.334 . S
C3820 C3821 1.287 . S
C3821 C3820 1.287 . S
C3821 C3822 1.524 . S
C3821 H3824 0.999 . S
C3822 H3792 0.950 . S
C3822 C3821 1.524 . S
C3822 C3823 1.415 . S
C3823 H3793 0.950 . S
C3823 C3818 1.363 . S
C3823 C3822 1.415 . S
H3824 C3821 0.999 . S
H3825 C3806 0.913 . S
H3826 C3844 0.951 . S
H3827 C3846 0.963 . S
H3828 C3848 0.950 . S
H3829 C3849 0.950 . S
H3830 C3851 0.950 . S
H3831 C3854 0.950 . S
H3832 C3855 0.950 . S
H3833 C3857 0.950 . S
H3834 C3858 0.950 . S
H3835 C3859 0.951 . S
H3836 C3861 0.951 . S
H3837 C3863 0.950 . S
H3838 C3864 0.950 . S
H3839 C3866 0.950 . S
H3840 C3869 0.950 . S
H3841 C3870 0.950 . S
H3842 C3872 0.950 . S
H3843 C3873 0.950 . S
C3844 H3826 0.951 . S
C3844 C3845 1.366 . S
C3844 C3846 1.388 . S
C3845 C3844 1.366 . S
C3845 C3849 1.385 . S
C3846 H3827 0.963 . S
C3846 C3844 1.388 . S
C3846 C3847 1.366 1_554 S
C3847 C3846 1.366 1_556 S
C3847 C3848 1.414 . S
C3847 C3850 1.499 . S
C3848 H3828 0.950 . S
C3848 C3847 1.414 . S
C3848 C3849 1.374 1_556 S
C3849 H3829 0.950 . S
C3849 C3845 1.385 . S
C3849 C3848 1.374 1_554 S
C3850 C3847 1.499 . S
C3850 C3851 1.373 . S
C3850 C3852 1.389 . S
C3851 H3830 0.950 . S
C3851 C3850 1.373 . S
C3851 C3867 1.377 . S
C3852 C3850 1.389 . S
C3852 C3853 1.524 . S
C3852 C3866 1.377 . S
C3853 C3852 1.524 . S
C3853 C3854 1.397 . S
C3853 C3858 1.363 . S
C3854 H3831 0.950 . S
C3854 C3853 1.397 . S
C3854 C3855 1.334 . S
C3855 H3832 0.950 . S
C3855 C3854 1.334 . S
C3855 C3856 1.287 . S
C3856 C3855 1.287 . S
C3856 C3857 1.524 . S
C3856 H3875 0.913 1_556 S
C3857 H3833 0.950 . S
C3857 C3856 1.524 . S
C3857 C3858 1.415 . S
C3858 H3834 0.950 . S
C3858 C3853 1.363 . S
C3858 C3857 1.415 . S
C3859 H3835 0.951 . S
C3859 C3860 1.366 . S
C3859 C3861 1.388 . S
C3860 C3859 1.366 . S
C3860 C3864 1.385 . S
C3861 H3836 0.951 . S
C3861 C3859 1.388 . S
C3861 C3862 1.366 . S
C3862 C3861 1.366 . S
C3862 C3863 1.414 . S
C3862 C3865 1.499 . S
C3863 H3837 0.950 . S
C3863 C3862 1.414 . S
C3863 C3864 1.374 . S
C3864 H3838 0.950 . S
C3864 C3860 1.385 . S
C3864 C3863 1.374 . S
C3865 C3862 1.499 . S
C3865 C3866 1.373 . S
C3865 C3867 1.389 . S
C3866 H3839 0.950 . S
C3866 C3852 1.377 . S
C3866 C3865 1.373 . S
C3867 C3851 1.377 . S
C3867 C3865 1.389 . S
C3867 C3868 1.524 . S
C3868 C3867 1.524 . S
C3868 C3869 1.397 . S
C3868 C3873 1.363 . S
C3869 H3840 0.950 . S
C3869 C3868 1.397 . S
C3869 C3870 1.334 . S
C3870 H3841 0.950 . S
C3870 C3869 1.334 . S
C3870 C3871 1.287 . S
C3871 C3870 1.287 . S
C3871 C3872 1.524 . S
C3871 H3874 0.999 . S
C3872 H3842 0.950 . S
C3872 C3871 1.524 . S
C3872 C3873 1.415 . S
C3873 H3843 0.950 . S
C3873 C3868 1.363 . S
C3873 C3872 1.415 . S
H3874 C3871 0.999 . S
H3875 C3856 0.913 1_554 S
H3876 C3894 0.951 . S
H3877 C3896 0.951 . S
H3878 C3898 0.950 . S
H3879 C3899 0.950 . S
H3880 C3901 0.950 . S
H3881 C3904 0.950 . S
H3882 C3905 0.950 . S
H3883 C3907 0.950 . S
H3884 C3908 0.950 . S
H3885 C3909 0.951 . S
H3886 C3911 0.951 . S
H3887 C3913 0.950 . S
H3888 C3914 0.950 . S
H3889 C3916 0.950 . S
H3890 C3919 0.950 . S
H3891 C3920 0.950 . S
H3892 C3922 0.950 . S
H3893 C3923 0.950 . S
C3894 H3876 0.951 . S
C3894 C3895 1.366 . S
C3894 C3896 1.388 . S
C3895 C3894 1.366 . S
C3895 C3899 1.385 . S
C3896 H3877 0.951 . S
C3896 C3894 1.388 . S
C3896 C3897 1.366 . S
C3897 C3896 1.366 . S
C3897 C3898 1.414 . S
C3897 C3900 1.499 . S
C3898 H3878 0.950 . S
C3898 C3897 1.414 . S
C3898 C3899 1.374 . S
C3899 H3879 0.950 . S
C3899 C3895 1.385 . S
C3899 C3898 1.374 . S
C3900 C3897 1.499 . S
C3900 C3901 1.373 . S
C3900 C3902 1.389 . S
C3901 H3880 0.950 . S
C3901 C3900 1.373 . S
C3901 C3917 1.377 . S
C3902 C3900 1.389 . S
C3902 C3903 1.524 . S
C3902 C3916 1.377 . S
C3903 C3902 1.524 . S
C3903 C3904 1.397 . S
C3903 C3908 1.363 . S
C3904 H3881 0.950 . S
C3904 C3903 1.397 . S
C3904 C3905 1.334 . S
C3905 H3882 0.950 . S
C3905 C3904 1.334 . S
C3905 C3906 1.287 . S
C3906 C3905 1.287 . S
C3906 C3907 1.524 . S
C3906 H3925 0.913 . S
C3907 H3883 0.950 . S
C3907 C3906 1.524 . S
C3907 C3908 1.415 . S
C3908 H3884 0.950 . S
C3908 C3903 1.363 . S
C3908 C3907 1.415 . S
C3909 H3885 0.951 . S
C3909 C3910 1.366 . S
C3909 C3911 1.388 . S
C3910 C3909 1.366 . S
C3910 C3914 1.385 . S
C3911 H3886 0.951 . S
C3911 C3909 1.388 . S
C3911 C3912 1.366 . S
C3912 C3911 1.366 . S
C3912 C3913 1.414 . S
C3912 C3915 1.499 . S
C3913 H3887 0.950 . S
C3913 C3912 1.414 . S
C3913 C3914 1.374 . S
C3914 H3888 0.950 . S
C3914 C3910 1.385 . S
C3914 C3913 1.374 . S
C3915 C3912 1.499 . S
C3915 C3916 1.373 . S
C3915 C3917 1.389 . S
C3916 H3889 0.950 . S
C3916 C3902 1.377 . S
C3916 C3915 1.373 . S
C3917 C3901 1.377 . S
C3917 C3915 1.389 . S
C3917 C3918 1.524 . S
C3918 C3917 1.524 . S
C3918 C3919 1.397 . S
C3918 C3923 1.363 . S
C3919 H3890 0.950 . S
C3919 C3918 1.397 . S
C3919 C3920 1.334 . S
C3920 H3891 0.950 . S
C3920 C3919 1.334 . S
C3920 C3921 1.287 . S
C3921 C3920 1.287 . S
C3921 C3922 1.524 . S
C3921 H3924 0.999 . S
C3922 H3892 0.950 . S
C3922 C3921 1.524 . S
C3922 C3923 1.415 . S
C3923 H3893 0.950 . S
C3923 C3918 1.363 . S
C3923 C3922 1.415 . S
H3924 C3921 0.999 . S
H3925 C3906 0.913 . S
H3926 C3944 0.951 . S
H3927 C3946 0.951 . S
H3928 C3948 0.950 . S
H3929 C3949 0.950 . S
H3930 C3951 0.950 . S
H3931 C3954 0.950 . S
H3932 C3955 0.950 . S
H3933 C3957 0.950 . S
H3934 C3958 0.950 . S
H3935 C3959 0.951 . S
H3936 C3961 0.951 . S
H3937 C3963 0.950 . S
H3938 C3964 0.950 . S
H3939 C3966 0.950 . S
H3940 C3969 0.950 . S
H3941 C3970 0.950 . S
H3942 C3972 0.950 . S
H3943 C3973 0.950 . S
C3944 H3926 0.951 . S
C3944 C3945 1.366 . S
C3944 C3946 1.388 . S
C3945 C3944 1.366 . S
C3945 C3949 1.385 . S
C3946 H3927 0.951 . S
C3946 C3944 1.388 . S
C3946 C3947 1.366 . S
C3947 C3946 1.366 . S
C3947 C3948 1.414 . S
C3947 C3950 1.499 . S
C3948 H3928 0.950 . S
C3948 C3947 1.414 . S
C3948 C3949 1.374 . S
C3949 H3929 0.950 . S
C3949 C3945 1.385 . S
C3949 C3948 1.374 . S
C3950 C3947 1.499 . S
C3950 C3951 1.373 . S
C3950 C3952 1.389 . S
C3951 H3930 0.950 . S
C3951 C3950 1.373 . S
C3951 C3967 1.377 . S
C3952 C3950 1.389 . S
C3952 C3953 1.524 . S
C3952 C3966 1.377 . S
C3953 C3952 1.524 . S
C3953 C3954 1.397 . S
C3953 C3958 1.363 . S
C3954 H3931 0.950 . S
C3954 C3953 1.397 . S
C3954 C3955 1.334 . S
C3955 H3932 0.950 . S
C3955 C3954 1.334 . S
C3955 C3956 1.287 . S
C3956 C3955 1.287 . S
C3956 C3957 1.524 . S
C3956 H3975 0.913 . S
C3957 H3933 0.950 . S
C3957 C3956 1.524 . S
C3957 C3958 1.415 . S
C3958 H3934 0.950 . S
C3958 C3953 1.363 . S
C3958 C3957 1.415 . S
C3959 H3935 0.951 . S
C3959 C3960 1.366 . S
C3959 C3961 1.388 . S
C3960 C3959 1.366 . S
C3960 C3964 1.385 . S
C3961 H3936 0.951 . S
C3961 C3959 1.388 . S
C3961 C3962 1.366 . S
C3962 C3961 1.366 . S
C3962 C3963 1.414 . S
C3962 C3965 1.499 . S
C3963 H3937 0.950 . S
C3963 C3962 1.414 . S
C3963 C3964 1.374 . S
C3964 H3938 0.950 . S
C3964 C3960 1.385 . S
C3964 C3963 1.374 . S
C3965 C3962 1.499 . S
C3965 C3966 1.373 . S
C3965 C3967 1.389 . S
C3966 H3939 0.950 . S
C3966 C3952 1.377 . S
C3966 C3965 1.373 . S
C3967 C3951 1.377 . S
C3967 C3965 1.389 . S
C3967 C3968 1.524 . S
C3968 C3967 1.524 . S
C3968 C3969 1.397 . S
C3968 C3973 1.363 . S
C3969 H3940 0.950 . S
C3969 C3968 1.397 . S
C3969 C3970 1.334 . S
C3970 H3941 0.950 . S
C3970 C3969 1.334 . S
C3970 C3971 1.287 . S
C3971 C3970 1.287 . S
C3971 C3972 1.524 . S
C3971 H3974 0.999 . S
C3972 H3942 0.950 . S
C3972 C3971 1.524 . S
C3972 C3973 1.415 . S
C3973 H3943 0.950 . S
C3973 C3968 1.363 . S
C3973 C3972 1.415 . S
H3974 C3971 0.999 . S
H3975 C3956 0.913 . S
H3976 C3994 0.951 . S
H3977 C3996 0.951 . S
H3978 C3998 0.950 . S
H3979 C3999 0.950 . S
H3980 C4001 0.950 . S
H3981 C4004 0.950 . S
H3982 C4005 0.950 . S
H3983 C4007 0.950 . S
H3984 C4008 0.950 . S
H3985 C4009 0.951 . S
H3986 C4011 0.951 . S
H3987 C4013 0.950 . S
H3988 C4014 0.950 . S
H3989 C4016 0.950 . S
H3990 C4019 0.950 . S
H3991 C4020 0.950 . S
H3992 C4022 0.950 . S
H3993 C4023 0.950 . S
C3994 H3976 0.951 . S
C3994 C3995 1.366 . S
C3994 C3996 1.388 . S
C3995 C3994 1.366 . S
C3995 C3999 1.385 . S
C3996 H3977 0.951 . S
C3996 C3994 1.388 . S
C3996 C3997 1.366 . S
C3997 C3996 1.366 . S
C3997 C3998 1.414 . S
C3997 C4000 1.499 . S
C3998 H3978 0.950 . S
C3998 C3997 1.414 . S
C3998 C3999 1.374 . S
C3999 H3979 0.950 . S
C3999 C3995 1.385 . S
C3999 C3998 1.374 . S
C4000 C3997 1.499 . S
C4000 C4001 1.373 . S
C4000 C4002 1.389 . S
C4001 H3980 0.950 . S
C4001 C4000 1.373 . S
C4001 C4017 1.377 . S
C4002 C4000 1.389 . S
C4002 C4003 1.524 . S
C4002 C4016 1.377 . S
C4003 C4002 1.524 . S
C4003 C4004 1.397 . S
C4003 C4008 1.363 . S
C4004 H3981 0.950 . S
C4004 C4003 1.397 . S
C4004 C4005 1.334 . S
C4005 H3982 0.950 . S
C4005 C4004 1.334 . S
C4005 C4006 1.287 . S
C4006 C4005 1.287 . S
C4006 C4007 1.524 . S
C4006 H4025 0.913 . S
C4007 H3983 0.950 . S
C4007 C4006 1.524 . S
C4007 C4008 1.415 . S
C4008 H3984 0.950 . S
C4008 C4003 1.363 . S
C4008 C4007 1.415 . S
C4009 H3985 0.951 . S
C4009 C4010 1.366 . S
C4009 C4011 1.388 . S
C4010 C4009 1.366 . S
C4010 C4014 1.385 . S
C4011 H3986 0.951 . S
C4011 C4009 1.388 . S
C4011 C4012 1.366 . S
C4012 C4011 1.366 . S
C4012 C4013 1.414 . S
C4012 C4015 1.499 . S
C4013 H3987 0.950 . S
C4013 C4012 1.414 . S
C4013 C4014 1.374 . S
C4014 H3988 0.950 . S
C4014 C4010 1.385 . S
C4014 C4013 1.374 . S
C4015 C4012 1.499 . S
C4015 C4016 1.373 . S
C4015 C4017 1.389 . S
C4016 H3989 0.950 . S
C4016 C4002 1.377 . S
C4016 C4015 1.373 . S
C4017 C4001 1.377 . S
C4017 C4015 1.389 . S
C4017 C4018 1.524 . S
C4018 C4017 1.524 . S
C4018 C4019 1.397 . S
C4018 C4023 1.363 . S
C4019 H3990 0.950 . S
C4019 C4018 1.397 . S
C4019 C4020 1.334 . S
C4020 H3991 0.950 . S
C4020 C4019 1.334 . S
C4020 C4021 1.287 . S
C4021 C4020 1.287 . S
C4021 C4022 1.524 . S
C4021 H4024 0.999 . S
C4022 H3992 0.950 . S
C4022 C4021 1.524 . S
C4022 C4023 1.415 . S
C4023 H3993 0.950 . S
C4023 C4018 1.363 . S
C4023 C4022 1.415 . S
H4024 C4021 0.999 . S
H4025 C4006 0.913 . S
H4026 C4044 0.951 . S
H4027 C4046 0.951 . S
H4028 C4048 0.950 . S
H4029 C4049 0.950 . S
H4030 C4051 0.950 . S
H4031 C4054 0.950 . S
H4032 C4055 0.950 . S
H4033 C4057 0.950 . S
H4034 C4058 0.950 . S
H4035 C4059 0.951 . S
H4036 C4061 0.951 . S
H4037 C4063 0.950 . S
H4038 C4064 0.950 . S
H4039 C4066 0.950 . S
H4040 C4069 0.950 . S
H4041 C4070 0.950 . S
H4042 C4072 0.950 . S
H4043 C4073 0.950 . S
C4044 H4026 0.951 . S
C4044 C4045 1.366 . S
C4044 C4046 1.388 . S
C4045 C4044 1.366 . S
C4045 C4049 1.385 . S
C4046 H4027 0.951 . S
C4046 C4044 1.388 . S
C4046 C4047 1.366 . S
C4047 C4046 1.366 . S
C4047 C4048 1.414 . S
C4047 C4050 1.499 . S
C4048 H4028 0.950 . S
C4048 C4047 1.414 . S
C4048 C4049 1.374 . S
C4049 H4029 0.950 . S
C4049 C4045 1.385 . S
C4049 C4048 1.374 . S
C4050 C4047 1.499 . S
C4050 C4051 1.373 . S
C4050 C4052 1.389 . S
C4051 H4030 0.950 . S
C4051 C4050 1.373 . S
C4051 C4067 1.377 . S
C4052 C4050 1.389 . S
C4052 C4053 1.524 . S
C4052 C4066 1.377 . S
C4053 C4052 1.524 . S
C4053 C4054 1.397 . S
C4053 C4058 1.363 . S
C4054 H4031 0.950 . S
C4054 C4053 1.397 . S
C4054 C4055 1.334 . S
C4055 H4032 0.950 . S
C4055 C4054 1.334 . S
C4055 C4056 1.287 . S
C4056 C4055 1.287 . S
C4056 C4057 1.524 . S
C4056 H4075 0.913 . S
C4057 H4033 0.950 . S
C4057 C4056 1.524 . S
C4057 C4058 1.415 . S
C4058 H4034 0.950 . S
C4058 C4053 1.363 . S
C4058 C4057 1.415 . S
C4059 H4035 0.951 . S
C4059 C4060 1.366 . S
C4059 C4061 1.388 . S
C4060 C4059 1.366 . S
C4060 C4064 1.385 . S
C4061 H4036 0.951 . S
C4061 C4059 1.388 . S
C4061 C4062 1.366 . S
C4062 C4061 1.366 . S
C4062 C4063 1.414 . S
C4062 C4065 1.499 . S
C4063 H4037 0.950 . S
C4063 C4062 1.414 . S
C4063 C4064 1.374 . S
C4064 H4038 0.950 . S
C4064 C4060 1.385 . S
C4064 C4063 1.374 . S
C4065 C4062 1.499 . S
C4065 C4066 1.373 . S
C4065 C4067 1.389 . S
C4066 H4039 0.950 . S
C4066 C4052 1.377 . S
C4066 C4065 1.373 . S
C4067 C4051 1.377 . S
C4067 C4065 1.389 . S
C4067 C4068 1.524 . S
C4068 C4067 1.524 . S
C4068 C4069 1.397 . S
C4068 C4073 1.363 . S
C4069 H4040 0.950 . S
C4069 C4068 1.397 . S
C4069 C4070 1.334 . S
C4070 H4041 0.950 . S
C4070 C4069 1.334 . S
C4070 C4071 1.287 . S
C4071 C4070 1.287 . S
C4071 C4072 1.524 . S
C4071 H4074 0.999 . S
C4072 H4042 0.950 . S
C4072 C4071 1.524 . S
C4072 C4073 1.415 . S
C4073 H4043 0.950 . S
C4073 C4068 1.363 . S
C4073 C4072 1.415 . S
H4074 C4071 0.999 . S
H4075 C4056 0.913 . S
H4076 C4094 0.951 . S
H4077 C4096 0.951 . S
H4078 C4098 0.950 . S
H4079 C4099 0.950 . S
H4080 C4101 0.950 . S
H4081 C4104 0.950 . S
H4082 C4105 0.950 . S
H4083 C4107 0.950 . S
H4084 C4108 0.950 . S
H4085 C4109 0.951 . S
H4086 C4111 0.951 . S
H4087 C4113 0.950 . S
H4088 C4114 0.950 . S
H4089 C4116 0.950 . S
H4090 C4119 0.950 . S
H4091 C4120 0.950 . S
H4092 C4122 0.950 . S
H4093 C4123 0.950 . S
C4094 H4076 0.951 . S
C4094 C4095 1.366 . S
C4094 C4096 1.388 . S
C4095 C4094 1.366 . S
C4095 C4099 1.385 . S
C4096 H4077 0.951 . S
C4096 C4094 1.388 . S
C4096 C4097 1.366 . S
C4097 C4096 1.366 . S
C4097 C4098 1.414 . S
C4097 C4100 1.499 . S
C4098 H4078 0.950 . S
C4098 C4097 1.414 . S
C4098 C4099 1.374 . S
C4099 H4079 0.950 . S
C4099 C4095 1.385 . S
C4099 C4098 1.374 . S
C4100 C4097 1.499 . S
C4100 C4101 1.373 . S
C4100 C4102 1.389 . S
C4101 H4080 0.950 . S
C4101 C4100 1.373 . S
C4101 C4117 1.377 . S
C4102 C4100 1.389 . S
C4102 C4103 1.524 . S
C4102 C4116 1.377 . S
C4103 C4102 1.524 . S
C4103 C4104 1.397 . S
C4103 C4108 1.363 . S
C4104 H4081 0.950 . S
C4104 C4103 1.397 . S
C4104 C4105 1.334 . S
C4105 H4082 0.950 . S
C4105 C4104 1.334 . S
C4105 C4106 1.287 . S
C4106 C4105 1.287 . S
C4106 C4107 1.524 . S
C4106 H4125 0.913 . S
C4107 H4083 0.950 . S
C4107 C4106 1.524 . S
C4107 C4108 1.415 . S
C4108 H4084 0.950 . S
C4108 C4103 1.363 . S
C4108 C4107 1.415 . S
C4109 H4085 0.951 . S
C4109 C4110 1.366 . S
C4109 C4111 1.388 . S
C4110 C4109 1.366 . S
C4110 C4114 1.385 . S
C4111 H4086 0.951 . S
C4111 C4109 1.388 . S
C4111 C4112 1.366 . S
C4112 C4111 1.366 . S
C4112 C4113 1.414 . S
C4112 C4115 1.499 . S
C4113 H4087 0.950 . S
C4113 C4112 1.414 . S
C4113 C4114 1.374 . S
C4114 H4088 0.950 . S
C4114 C4110 1.385 . S
C4114 C4113 1.374 . S
C4115 C4112 1.499 . S
C4115 C4116 1.373 . S
C4115 C4117 1.389 . S
C4116 H4089 0.950 . S
C4116 C4102 1.377 . S
C4116 C4115 1.373 . S
C4117 C4101 1.377 . S
C4117 C4115 1.389 . S
C4117 C4118 1.524 . S
C4118 C4117 1.524 . S
C4118 C4119 1.397 . S
C4118 C4123 1.363 . S
C4119 H4090 0.950 . S
C4119 C4118 1.397 . S
C4119 C4120 1.334 . S
C4120 H4091 0.950 . S
C4120 C4119 1.334 . S
C4120 C4121 1.287 . S
C4121 C4120 1.287 . S
C4121 C4122 1.524 . S
C4121 H4124 0.999 . S
C4122 H4092 0.950 . S
C4122 C4121 1.524 . S
C4122 C4123 1.415 . S
C4123 H4093 0.950 . S
C4123 C4118 1.363 . S
C4123 C4122 1.415 . S
H4124 C4121 0.999 . S
H4125 C4106 0.913 . S
H4126 C4144 0.951 . S
H4127 C4146 0.951 . S
H4128 C4148 0.950 . S
H4129 C4149 0.950 . S
H4130 C4151 0.950 . S
H4131 C4154 0.950 . S
H4132 C4155 0.950 . S
H4133 C4157 0.950 . S
H4134 C4158 0.950 . S
H4135 C4159 0.951 . S
H4136 C4161 0.951 . S
H4137 C4163 0.950 . S
H4138 C4164 0.950 . S
H4139 C4166 0.950 . S
H4140 C4169 0.950 . S
H4141 C4170 0.950 . S
H4142 C4172 0.950 . S
H4143 C4173 0.950 . S
C4144 H4126 0.951 . S
C4144 C4145 1.366 . S
C4144 C4146 1.388 . S
C4145 C4144 1.366 . S
C4145 C4149 1.385 . S
C4146 H4127 0.951 . S
C4146 C4144 1.388 . S
C4146 C4147 1.366 . S
C4147 C4146 1.366 . S
C4147 C4148 1.414 . S
C4147 C4150 1.499 . S
C4148 H4128 0.950 . S
C4148 C4147 1.414 . S
C4148 C4149 1.374 . S
C4149 H4129 0.950 . S
C4149 C4145 1.385 . S
C4149 C4148 1.374 . S
C4150 C4147 1.499 . S
C4150 C4151 1.373 . S
C4150 C4152 1.389 . S
C4151 H4130 0.950 . S
C4151 C4150 1.373 . S
C4151 C4167 1.377 . S
C4152 C4150 1.389 . S
C4152 C4153 1.524 . S
C4152 C4166 1.377 . S
C4153 C4152 1.524 . S
C4153 C4154 1.397 . S
C4153 C4158 1.363 . S
C4154 H4131 0.950 . S
C4154 C4153 1.397 . S
C4154 C4155 1.334 . S
C4155 H4132 0.950 . S
C4155 C4154 1.334 . S
C4155 C4156 1.287 . S
C4156 C4155 1.287 . S
C4156 C4157 1.524 . S
C4156 H4175 0.913 . S
C4157 H4133 0.950 . S
C4157 C4156 1.524 . S
C4157 C4158 1.415 . S
C4158 H4134 0.950 . S
C4158 C4153 1.363 . S
C4158 C4157 1.415 . S
C4159 H4135 0.951 . S
C4159 C4160 1.366 . S
C4159 C4161 1.388 . S
C4160 C4159 1.366 . S
C4160 C4164 1.385 . S
C4161 H4136 0.951 . S
C4161 C4159 1.388 . S
C4161 C4162 1.366 . S
C4162 C4161 1.366 . S
C4162 C4163 1.414 . S
C4162 C4165 1.499 . S
C4163 H4137 0.950 . S
C4163 C4162 1.414 . S
C4163 C4164 1.374 . S
C4164 H4138 0.950 . S
C4164 C4160 1.385 . S
C4164 C4163 1.374 . S
C4165 C4162 1.499 . S
C4165 C4166 1.373 . S
C4165 C4167 1.389 . S
C4166 H4139 0.950 . S
C4166 C4152 1.377 . S
C4166 C4165 1.373 . S
C4167 C4151 1.377 . S
C4167 C4165 1.389 . S
C4167 C4168 1.524 . S
C4168 C4167 1.524 . S
C4168 C4169 1.397 . S
C4168 C4173 1.363 . S
C4169 H4140 0.950 . S
C4169 C4168 1.397 . S
C4169 C4170 1.334 . S
C4170 H4141 0.950 . S
C4170 C4169 1.334 . S
C4170 C4171 1.287 . S
C4171 C4170 1.287 . S
C4171 C4172 1.524 . S
C4171 H4174 0.999 . S
C4172 H4142 0.950 . S
C4172 C4171 1.524 . S
C4172 C4173 1.415 . S
C4173 H4143 0.950 . S
C4173 C4168 1.363 . S
C4173 C4172 1.415 . S
H4174 C4171 0.999 . S
H4175 C4156 0.913 . S
H4176 C4194 0.951 . S
H4177 C4196 0.951 . S
H4178 C4198 0.950 . S
H4179 C4199 0.950 . S
H4180 C4201 0.950 . S
H4181 C4204 0.950 . S
H4182 C4205 0.950 . S
H4183 C4207 0.950 . S
H4184 C4208 0.950 . S
H4185 C4209 0.951 . S
H4186 C4211 0.951 . S
H4187 C4213 0.950 . S
H4188 C4214 0.950 . S
H4189 C4216 0.950 . S
H4190 C4219 0.950 . S
H4191 C4220 0.950 . S
H4192 C4222 0.950 . S
H4193 C4223 0.950 . S
C4194 H4176 0.951 . S
C4194 C4195 1.366 . S
C4194 C4196 1.388 . S
C4195 C4194 1.366 . S
C4195 C4199 1.385 . S
C4196 H4177 0.951 . S
C4196 C4194 1.388 . S
C4196 C4197 1.366 . S
C4197 C4196 1.366 . S
C4197 C4198 1.414 . S
C4197 C4200 1.499 . S
C4198 H4178 0.950 . S
C4198 C4197 1.414 . S
C4198 C4199 1.374 . S
C4199 H4179 0.950 . S
C4199 C4195 1.385 . S
C4199 C4198 1.374 . S
C4200 C4197 1.499 . S
C4200 C4201 1.373 . S
C4200 C4202 1.389 . S
C4201 H4180 0.950 . S
C4201 C4200 1.373 . S
C4201 C4217 1.377 . S
C4202 C4200 1.389 . S
C4202 C4203 1.524 . S
C4202 C4216 1.377 . S
C4203 C4202 1.524 . S
C4203 C4204 1.397 . S
C4203 C4208 1.363 . S
C4204 H4181 0.950 . S
C4204 C4203 1.397 . S
C4204 C4205 1.334 . S
C4205 H4182 0.950 . S
C4205 C4204 1.334 . S
C4205 C4206 1.287 . S
C4206 C4205 1.287 . S
C4206 C4207 1.524 . S
C4206 H4225 0.913 . S
C4207 H4183 0.950 . S
C4207 C4206 1.524 . S
C4207 C4208 1.415 . S
C4208 H4184 0.950 . S
C4208 C4203 1.363 . S
C4208 C4207 1.415 . S
C4209 H4185 0.951 . S
C4209 C4210 1.366 . S
C4209 C4211 1.388 . S
C4210 C4209 1.366 . S
C4210 C4214 1.385 . S
C4211 H4186 0.951 . S
C4211 C4209 1.388 . S
C4211 C4212 1.366 . S
C4212 C4211 1.366 . S
C4212 C4213 1.414 . S
C4212 C4215 1.499 . S
C4213 H4187 0.950 . S
C4213 C4212 1.414 . S
C4213 C4214 1.374 . S
C4214 H4188 0.950 . S
C4214 C4210 1.385 . S
C4214 C4213 1.374 . S
C4215 C4212 1.499 . S
C4215 C4216 1.373 . S
C4215 C4217 1.389 . S
C4216 H4189 0.950 . S
C4216 C4202 1.377 . S
C4216 C4215 1.373 . S
C4217 C4201 1.377 . S
C4217 C4215 1.389 . S
C4217 C4218 1.524 . S
C4218 C4217 1.524 . S
C4218 C4219 1.397 . S
C4218 C4223 1.363 . S
C4219 H4190 0.950 . S
C4219 C4218 1.397 . S
C4219 C4220 1.334 . S
C4220 H4191 0.950 . S
C4220 C4219 1.334 . S
C4220 C4221 1.287 . S
C4221 C4220 1.287 . S
C4221 C4222 1.524 . S
C4221 H4224 0.999 . S
C4222 H4192 0.950 . S
C4222 C4221 1.524 . S
C4222 C4223 1.415 . S
C4223 H4193 0.950 . S
C4223 C4218 1.363 . S
C4223 C4222 1.415 . S
H4224 C4221 0.999 . S
H4225 C4206 0.913 . S
H4226 C4244 0.951 . S
H4227 C4246 0.951 . S
H4228 C4248 0.950 . S
H4229 C4249 0.950 . S
H4230 C4251 0.950 . S
H4231 C4254 0.950 . S
H4232 C4255 0.950 . S
H4233 C4257 0.950 . S
H4234 C4258 0.950 . S
H4235 C4259 0.951 . S
H4236 C4261 0.951 . S
H4237 C4263 0.950 . S
H4238 C4264 0.950 . S
H4239 C4266 0.950 . S
H4240 C4269 0.950 . S
H4241 C4270 0.950 . S
H4242 C4272 0.950 . S
H4243 C4273 0.950 . S
C4244 H4226 0.951 . S
C4244 C4245 1.366 . S
C4244 C4246 1.388 . S
C4245 C4244 1.366 . S
C4245 C4249 1.385 . S
C4246 H4227 0.951 . S
C4246 C4244 1.388 . S
C4246 C4247 1.366 . S
C4247 C4246 1.366 . S
C4247 C4248 1.414 . S
C4247 C4250 1.499 . S
C4248 H4228 0.950 . S
C4248 C4247 1.414 . S
C4248 C4249 1.374 . S
C4249 H4229 0.950 . S
C4249 C4245 1.385 . S
C4249 C4248 1.374 . S
C4250 C4247 1.499 . S
C4250 C4251 1.373 . S
C4250 C4252 1.389 . S
C4251 H4230 0.950 . S
C4251 C4250 1.373 . S
C4251 C4267 1.377 . S
C4252 C4250 1.389 . S
C4252 C4253 1.524 . S
C4252 C4266 1.377 . S
C4253 C4252 1.524 . S
C4253 C4254 1.397 . S
C4253 C4258 1.363 . S
C4254 H4231 0.950 . S
C4254 C4253 1.397 . S
C4254 C4255 1.334 . S
C4255 H4232 0.950 . S
C4255 C4254 1.334 . S
C4255 C4256 1.287 . S
C4256 C4255 1.287 . S
C4256 C4257 1.524 . S
C4256 H4275 0.913 . S
C4257 H4233 0.950 . S
C4257 C4256 1.524 . S
C4257 C4258 1.415 . S
C4258 H4234 0.950 . S
C4258 C4253 1.363 . S
C4258 C4257 1.415 . S
C4259 H4235 0.951 . S
C4259 C4260 1.366 . S
C4259 C4261 1.388 . S
C4260 C4259 1.366 . S
C4260 C4264 1.385 . S
C4261 H4236 0.951 . S
C4261 C4259 1.388 . S
C4261 C4262 1.366 . S
C4262 C4261 1.366 . S
C4262 C4263 1.414 . S
C4262 C4265 1.499 . S
C4263 H4237 0.950 . S
C4263 C4262 1.414 . S
C4263 C4264 1.374 . S
C4264 H4238 0.950 . S
C4264 C4260 1.385 . S
C4264 C4263 1.374 . S
C4265 C4262 1.499 . S
C4265 C4266 1.373 . S
C4265 C4267 1.389 . S
C4266 H4239 0.950 . S
C4266 C4252 1.377 . S
C4266 C4265 1.373 . S
C4267 C4251 1.377 . S
C4267 C4265 1.389 . S
C4267 C4268 1.524 . S
C4268 C4267 1.524 . S
C4268 C4269 1.397 . S
C4268 C4273 1.363 . S
C4269 H4240 0.950 . S
C4269 C4268 1.397 . S
C4269 C4270 1.334 . S
C4270 H4241 0.950 . S
C4270 C4269 1.334 . S
C4270 C4271 1.287 . S
C4271 C4270 1.287 . S
C4271 C4272 1.524 . S
C4271 H4274 0.999 . S
C4272 H4242 0.950 . S
C4272 C4271 1.524 . S
C4272 C4273 1.415 . S
C4273 H4243 0.950 . S
C4273 C4268 1.363 . S
C4273 C4272 1.415 . S
H4274 C4271 0.999 . S
H4275 C4256 0.913 . S
H4276 C4294 0.951 1_545 S
H4277 C4296 0.951 . S
H4278 C4298 0.950 . S
H4279 C4299 0.950 . S
H4280 C4301 0.950 . S
H4281 C4304 0.950 . S
H4282 C4305 0.950 . S
H4283 C4307 0.950 . S
H4284 C4308 0.950 . S
H4285 C4309 0.951 . S
H4286 C4311 0.951 . S
H4287 C4313 0.950 . S
H4288 C4314 0.950 . S
H4289 C4316 0.950 . S
H4290 C4319 0.950 . S
H4291 C4320 0.950 . S
H4292 C4322 0.950 . S
H4293 C4323 0.950 . S
C4294 H4276 0.951 1_565 S
C4294 C4295 1.366 . S
C4294 C4296 1.388 . S
C4295 C4294 1.366 . S
C4295 C4299 1.385 . S
C4296 H4277 0.951 . S
C4296 C4294 1.388 . S
C4296 C4297 1.366 . S
C4297 C4296 1.366 . S
C4297 C4298 1.414 . S
C4297 C4300 1.499 . S
C4298 H4278 0.950 . S
C4298 C4297 1.414 . S
C4298 C4299 1.374 . S
C4299 H4279 0.950 . S
C4299 C4295 1.385 . S
C4299 C4298 1.374 . S
C4300 C4297 1.499 . S
C4300 C4301 1.373 . S
C4300 C4302 1.389 . S
C4301 H4280 0.950 . S
C4301 C4300 1.373 . S
C4301 C4317 1.377 . S
C4302 C4300 1.389 . S
C4302 C4303 1.524 . S
C4302 C4316 1.377 . S
C4303 C4302 1.524 . S
C4303 C4304 1.397 . S
C4303 C4308 1.363 . S
C4304 H4281 0.950 . S
C4304 C4303 1.397 . S
C4304 C4305 1.334 . S
C4305 H4282 0.950 . S
C4305 C4304 1.334 . S
C4305 C4306 1.287 . S
C4306 C4305 1.287 . S
C4306 C4307 1.524 . S
C4306 H4325 0.913 . S
C4307 H4283 0.950 . S
C4307 C4306 1.524 . S
C4307 C4308 1.415 . S
C4308 H4284 0.950 . S
C4308 C4303 1.363 . S
C4308 C4307 1.415 . S
C4309 H4285 0.951 . S
C4309 C4310 1.366 . S
C4309 C4311 1.388 . S
C4310 C4309 1.366 . S
C4310 C4314 1.385 . S
C4311 H4286 0.951 . S
C4311 C4309 1.388 . S
C4311 C4312 1.366 . S
C4312 C4311 1.366 . S
C4312 C4313 1.414 . S
C4312 C4315 1.499 . S
C4313 H4287 0.950 . S
C4313 C4312 1.414 . S
C4313 C4314 1.374 . S
C4314 H4288 0.950 . S
C4314 C4310 1.385 . S
C4314 C4313 1.374 . S
C4315 C4312 1.499 . S
C4315 C4316 1.373 . S
C4315 C4317 1.389 . S
C4316 H4289 0.950 . S
C4316 C4302 1.377 . S
C4316 C4315 1.373 . S
C4317 C4301 1.377 . S
C4317 C4315 1.389 . S
C4317 C4318 1.524 . S
C4318 C4317 1.524 . S
C4318 C4319 1.397 . S
C4318 C4323 1.363 . S
C4319 H4290 0.950 . S
C4319 C4318 1.397 . S
C4319 C4320 1.334 . S
C4320 H4291 0.950 . S
C4320 C4319 1.334 . S
C4320 C4321 1.287 . S
C4321 C4320 1.287 . S
C4321 C4322 1.524 . S
C4321 H4324 0.999 . S
C4322 H4292 0.950 . S
C4322 C4321 1.524 . S
C4322 C4323 1.415 . S
C4323 H4293 0.950 . S
C4323 C4318 1.363 . S
C4323 C4322 1.415 . S
H4324 C4321 0.999 . S
H4325 C4306 0.913 . S
H4326 C4344 0.951 . S
H4327 C4346 0.951 . S
H4328 C4348 0.950 . S
H4329 C4349 0.950 . S
H4330 C4351 0.950 . S
H4331 C4354 0.950 . S
H4332 C4355 0.950 . S
H4333 C4357 0.950 . S
H4334 C4358 0.950 . S
H4335 C4359 0.951 1_556 S
H4336 C4361 0.951 1_556 S
H4337 C4363 0.950 . S
H4338 C4364 0.950 . S
H4339 C4366 0.950 . S
H4340 C4369 0.950 . S
H4341 C4370 0.950 . S
H4342 C4372 0.950 . S
H4343 C4373 0.950 1_556 S
C4344 H4326 0.951 . S
C4344 C4345 1.366 . S
C4344 C4346 1.388 . S
C4345 C4344 1.366 . S
C4345 C4349 1.385 1_554 S
C4346 H4327 0.951 . S
C4346 C4344 1.388 . S
C4346 C4347 1.366 . S
C4347 C4346 1.366 . S
C4347 C4348 1.414 1_554 S
C4347 C4350 1.499 . S
C4348 H4328 0.950 . S
C4348 C4347 1.414 1_556 S
C4348 C4349 1.374 . S
C4349 H4329 0.950 . S
C4349 C4345 1.385 1_556 S
C4349 C4348 1.374 . S
C4350 C4347 1.499 . S
C4350 C4351 1.373 . S
C4350 C4352 1.389 . S
C4351 H4330 0.950 . S
C4351 C4350 1.373 . S
C4351 C4367 1.377 . S
C4352 C4350 1.389 . S
C4352 C4353 1.524 1_554 S
C4352 C4366 1.377 . S
C4353 C4352 1.524 1_556 S
C4353 C4354 1.397 . S
C4353 C4358 1.363 1_556 S
C4354 H4331 0.950 . S
C4354 C4353 1.397 . S
C4354 C4355 1.334 . S
C4355 H4332 0.950 . S
C4355 C4354 1.334 . S
C4355 C4356 1.287 . S
C4356 C4355 1.287 . S
C4356 C4357 1.524 1_556 S
C4356 H4375 0.913 . S
C4357 H4333 0.950 . S
C4357 C4356 1.524 1_554 S
C4357 C4358 1.415 . S
C4358 H4334 0.950 . S
C4358 C4353 1.363 1_554 S
C4358 C4357 1.415 . S
C4359 H4335 0.951 1_554 S
C4359 C4360 1.366 . S
C4359 C4361 1.388 . S
C4360 C4359 1.366 . S
C4360 C4364 1.385 . S
C4361 H4336 0.951 1_554 S
C4361 C4359 1.388 . S
C4361 C4362 1.366 . S
C4362 C4361 1.366 . S
C4362 C4363 1.414 . S
C4362 C4365 1.499 . S
C4363 H4337 0.950 . S
C4363 C4362 1.414 . S
C4363 C4364 1.374 . S
C4364 H4338 0.950 . S
C4364 C4360 1.385 . S
C4364 C4363 1.374 . S
C4365 C4362 1.499 . S
C4365 C4366 1.373 . S
C4365 C4367 1.389 . S
C4366 H4339 0.950 . S
C4366 C4352 1.377 . S
C4366 C4365 1.373 . S
C4367 C4351 1.377 . S
C4367 C4365 1.389 . S
C4367 C4368 1.524 . S
C4368 C4367 1.524 . S
C4368 C4369 1.397 . S
C4368 C4373 1.363 . S
C4369 H4340 0.950 . S
C4369 C4368 1.397 . S
C4369 C4370 1.334 . S
C4370 H4341 0.950 . S
C4370 C4369 1.334 . S
C4370 C4371 1.287 . S
C4371 C4370 1.287 . S
C4371 C4372 1.524 . S
C4371 H4374 0.999 . S
C4372 H4342 0.950 . S
C4372 C4371 1.524 . S
C4372 C4373 1.415 . S
C4373 H4343 0.950 1_554 S
C4373 C4368 1.363 . S
C4373 C4372 1.415 . S
H4374 C4371 0.999 . S
H4375 C4356 0.913 . S
H4376 C4394 0.951 . S
H4377 C4396 0.951 . S
H4378 C4398 0.950 . S
H4379 C4399 0.950 . S
H4380 C4401 0.950 . S
H4381 C4404 0.950 . S
H4382 C4405 0.950 . S
H4383 C4407 0.950 . S
H4384 C4408 0.950 . S
H4385 C4409 0.951 . S
H4386 C4411 0.951 . S
H4387 C4413 0.950 . S
H4388 C4414 0.950 . S
H4389 C4416 0.950 . S
H4390 C4419 0.950 . S
H4391 C4420 0.950 . S
H4392 C4422 0.950 . S
H4393 C4423 0.950 . S
C4394 H4376 0.951 . S
C4394 C4395 1.366 . S
C4394 C4396 1.388 . S
C4395 C4394 1.366 . S
C4395 C4399 1.385 . S
C4396 H4377 0.951 . S
C4396 C4394 1.388 . S
C4396 C4397 1.366 . S
C4397 C4396 1.366 . S
C4397 C4398 1.414 . S
C4397 C4400 1.499 . S
C4398 H4378 0.950 . S
C4398 C4397 1.414 . S
C4398 C4399 1.374 . S
C4399 H4379 0.950 . S
C4399 C4395 1.385 . S
C4399 C4398 1.374 . S
C4400 C4397 1.499 . S
C4400 C4401 1.373 . S
C4400 C4402 1.389 . S
C4401 H4380 0.950 . S
C4401 C4400 1.373 . S
C4401 C4417 1.377 . S
C4402 C4400 1.389 . S
C4402 C4403 1.524 . S
C4402 C4416 1.377 . S
C4403 C4402 1.524 . S
C4403 C4404 1.397 . S
C4403 C4408 1.363 . S
C4404 H4381 0.950 . S
C4404 C4403 1.397 . S
C4404 C4405 1.334 . S
C4405 H4382 0.950 . S
C4405 C4404 1.334 . S
C4405 C4406 1.287 . S
C4406 C4405 1.287 . S
C4406 C4407 1.524 . S
C4406 H4425 0.913 . S
C4407 H4383 0.950 . S
C4407 C4406 1.524 . S
C4407 C4408 1.415 . S
C4408 H4384 0.950 . S
C4408 C4403 1.363 . S
C4408 C4407 1.415 . S
C4409 H4385 0.951 . S
C4409 C4410 1.366 . S
C4409 C4411 1.388 . S
C4410 C4409 1.366 . S
C4410 C4414 1.385 . S
C4411 H4386 0.951 . S
C4411 C4409 1.388 . S
C4411 C4412 1.366 . S
C4412 C4411 1.366 . S
C4412 C4413 1.414 . S
C4412 C4415 1.499 . S
C4413 H4387 0.950 . S
C4413 C4412 1.414 . S
C4413 C4414 1.374 . S
C4414 H4388 0.950 . S
C4414 C4410 1.385 . S
C4414 C4413 1.374 . S
C4415 C4412 1.499 . S
C4415 C4416 1.373 . S
C4415 C4417 1.389 . S
C4416 H4389 0.950 . S
C4416 C4402 1.377 . S
C4416 C4415 1.373 . S
C4417 C4401 1.377 . S
C4417 C4415 1.389 . S
C4417 C4418 1.524 . S
C4418 C4417 1.524 . S
C4418 C4419 1.397 . S
C4418 C4423 1.363 . S
C4419 H4390 0.950 . S
C4419 C4418 1.397 . S
C4419 C4420 1.334 . S
C4420 H4391 0.950 . S
C4420 C4419 1.334 . S
C4420 C4421 1.287 . S
C4421 C4420 1.287 . S
C4421 C4422 1.524 . S
C4421 H4424 0.999 . S
C4422 H4392 0.950 . S
C4422 C4421 1.524 . S
C4422 C4423 1.415 . S
C4423 H4393 0.950 . S
C4423 C4418 1.363 . S
C4423 C4422 1.415 . S
H4424 C4421 0.999 . S
H4425 C4406 0.913 . S
H4426 C4444 0.951 . S
H4427 C4446 0.951 . S
H4428 C4448 0.950 . S
H4429 C4449 0.950 . S
H4430 C4451 0.950 . S
H4431 C4454 0.950 . S
H4432 C4455 0.950 . S
H4433 C4457 0.950 . S
H4434 C4458 0.950 . S
H4435 C4459 0.951 . S
H4436 C4461 0.951 . S
H4437 C4463 0.950 . S
H4438 C4464 0.950 . S
H4439 C4466 0.950 . S
H4440 C4469 0.950 . S
H4441 C4470 0.950 . S
H4442 C4472 0.950 . S
H4443 C4473 0.950 . S
C4444 H4426 0.951 . S
C4444 C4445 1.366 . S
C4444 C4446 1.388 . S
C4445 C4444 1.366 . S
C4445 C4449 1.385 . S
C4446 H4427 0.951 . S
C4446 C4444 1.388 . S
C4446 C4447 1.366 . S
C4447 C4446 1.366 . S
C4447 C4448 1.414 . S
C4447 C4450 1.499 . S
C4448 H4428 0.950 . S
C4448 C4447 1.414 . S
C4448 C4449 1.374 . S
C4449 H4429 0.950 . S
C4449 C4445 1.385 . S
C4449 C4448 1.374 . S
C4450 C4447 1.499 . S
C4450 C4451 1.373 . S
C4450 C4452 1.389 . S
C4451 H4430 0.950 . S
C4451 C4450 1.373 . S
C4451 C4467 1.377 . S
C4452 C4450 1.389 . S
C4452 C4453 1.524 1_554 S
C4452 C4466 1.377 . S
C4453 C4452 1.524 1_556 S
C4453 C4454 1.397 . S
C4453 C4458 1.363 . S
C4454 H4431 0.950 . S
C4454 C4453 1.397 . S
C4454 C4455 1.334 . S
C4455 H4432 0.950 . S
C4455 C4454 1.334 . S
C4455 C4456 1.287 . S
C4456 C4455 1.287 . S
C4456 C4457 1.524 . S
C4456 H4475 0.913 . S
C4457 H4433 0.950 . S
C4457 C4456 1.524 . S
C4457 C4458 1.415 . S
C4458 H4434 0.950 . S
C4458 C4453 1.363 . S
C4458 C4457 1.415 . S
C4459 H4435 0.951 . S
C4459 C4460 1.366 . S
C4459 C4461 1.388 . S
C4460 C4459 1.366 . S
C4460 C4464 1.385 . S
C4461 H4436 0.951 . S
C4461 C4459 1.388 . S
C4461 C4462 1.366 . S
C4462 C4461 1.366 . S
C4462 C4463 1.414 . S
C4462 C4465 1.499 . S
C4463 H4437 0.950 . S
C4463 C4462 1.414 . S
C4463 C4464 1.374 . S
C4464 H4438 0.950 . S
C4464 C4460 1.385 . S
C4464 C4463 1.374 . S
C4465 C4462 1.499 . S
C4465 C4466 1.373 . S
C4465 C4467 1.389 . S
C4466 H4439 0.950 . S
C4466 C4452 1.377 . S
C4466 C4465 1.373 . S
C4467 C4451 1.377 . S
C4467 C4465 1.389 . S
C4467 C4468 1.524 . S
C4468 C4467 1.524 . S
C4468 C4469 1.397 . S
C4468 C4473 1.363 . S
C4469 H4440 0.950 . S
C4469 C4468 1.397 . S
C4469 C4470 1.334 . S
C4470 H4441 0.950 . S
C4470 C4469 1.334 . S
C4470 C4471 1.287 . S
C4471 C4470 1.287 . S
C4471 C4472 1.524 . S
C4471 H4474 0.999 . S
C4472 H4442 0.950 . S
C4472 C4471 1.524 . S
C4472 C4473 1.415 . S
C4473 H4443 0.950 . S
C4473 C4468 1.363 . S
C4473 C4472 1.415 . S
H4474 C4471 0.999 . S
H4475 C4456 0.913 . S
H4476 C4494 0.951 . S
H4477 C4496 0.951 . S
H4478 C4498 0.950 . S
H4479 C4499 0.950 . S
H4480 C4501 0.950 . S
H4481 C4504 0.950 . S
H4482 C4505 0.950 . S
H4483 C4507 0.950 . S
H4484 C4508 0.950 . S
H4485 C4509 0.951 . S
H4486 C4511 0.951 . S
H4487 C4513 0.950 . S
H4488 C4514 0.950 . S
H4489 C4516 0.950 . S
H4490 C4519 0.950 . S
H4491 C4520 0.950 . S
H4492 C4522 0.950 . S
H4493 C4523 0.950 . S
C4494 H4476 0.951 . S
C4494 C4495 1.366 . S
C4494 C4496 1.388 . S
C4495 C4494 1.366 . S
C4495 C4499 1.385 . S
C4496 H4477 0.951 . S
C4496 C4494 1.388 . S
C4496 C4497 1.366 . S
C4497 C4496 1.366 . S
C4497 C4498 1.414 . S
C4497 C4500 1.499 . S
C4498 H4478 0.950 . S
C4498 C4497 1.414 . S
C4498 C4499 1.374 . S
C4499 H4479 0.950 . S
C4499 C4495 1.385 . S
C4499 C4498 1.374 . S
C4500 C4497 1.499 . S
C4500 C4501 1.373 . S
C4500 C4502 1.389 . S
C4501 H4480 0.950 . S
C4501 C4500 1.373 . S
C4501 C4517 1.377 . S
C4502 C4500 1.389 . S
C4502 C4503 1.524 . S
C4502 C4516 1.377 . S
C4503 C4502 1.524 . S
C4503 C4504 1.397 . S
C4503 C4508 1.363 . S
C4504 H4481 0.950 . S
C4504 C4503 1.397 . S
C4504 C4505 1.334 . S
C4505 H4482 0.950 . S
C4505 C4504 1.334 . S
C4505 C4506 1.287 . S
C4506 C4505 1.287 . S
C4506 C4507 1.524 . S
C4506 H4525 0.913 . S
C4507 H4483 0.950 . S
C4507 C4506 1.524 . S
C4507 C4508 1.415 . S
C4508 H4484 0.950 . S
C4508 C4503 1.363 . S
C4508 C4507 1.415 . S
C4509 H4485 0.951 . S
C4509 C4510 1.366 . S
C4509 C4511 1.388 . S
C4510 C4509 1.366 . S
C4510 C4514 1.385 . S
C4511 H4486 0.951 . S
C4511 C4509 1.388 . S
C4511 C4512 1.366 . S
C4512 C4511 1.366 . S
C4512 C4513 1.414 . S
C4512 C4515 1.499 . S
C4513 H4487 0.950 . S
C4513 C4512 1.414 . S
C4513 C4514 1.374 . S
C4514 H4488 0.950 . S
C4514 C4510 1.385 . S
C4514 C4513 1.374 . S
C4515 C4512 1.499 . S
C4515 C4516 1.373 . S
C4515 C4517 1.389 . S
C4516 H4489 0.950 . S
C4516 C4502 1.377 . S
C4516 C4515 1.373 . S
C4517 C4501 1.377 . S
C4517 C4515 1.389 . S
C4517 C4518 1.524 . S
C4518 C4517 1.524 . S
C4518 C4519 1.397 . S
C4518 C4523 1.363 . S
C4519 H4490 0.950 . S
C4519 C4518 1.397 . S
C4519 C4520 1.334 . S
C4520 H4491 0.950 . S
C4520 C4519 1.334 . S
C4520 C4521 1.287 . S
C4521 C4520 1.287 . S
C4521 C4522 1.524 . S
C4521 H4524 0.999 . S
C4522 H4492 0.950 . S
C4522 C4521 1.524 . S
C4522 C4523 1.415 . S
C4523 H4493 0.950 . S
C4523 C4518 1.363 . S
C4523 C4522 1.415 . S
H4524 C4521 0.999 . S
H4525 C4506 0.913 . S
H4526 C4544 0.951 . S
H4527 C4546 0.951 . S
H4528 C4548 0.950 . S
H4529 C4549 0.950 . S
H4530 C4551 0.950 . S
H4531 C4554 0.950 . S
H4532 C4555 0.950 . S
H4533 C4557 0.950 . S
H4534 C4558 0.950 . S
H4535 C4559 0.951 . S
H4536 C4561 0.951 . S
H4537 C4563 0.950 . S
H4538 C4564 0.950 . S
H4539 C4566 0.950 . S
H4540 C4569 0.950 . S
H4541 C4570 0.950 . S
H4542 C4572 0.950 . S
H4543 C4573 0.950 . S
C4544 H4526 0.951 . S
C4544 C4545 1.366 . S
C4544 C4546 1.388 . S
C4545 C4544 1.366 . S
C4545 C4549 1.385 . S
C4546 H4527 0.951 . S
C4546 C4544 1.388 . S
C4546 C4547 1.366 . S
C4547 C4546 1.366 . S
C4547 C4548 1.414 . S
C4547 C4550 1.499 . S
C4548 H4528 0.950 . S
C4548 C4547 1.414 . S
C4548 C4549 1.374 . S
C4549 H4529 0.950 . S
C4549 C4545 1.385 . S
C4549 C4548 1.374 . S
C4550 C4547 1.499 . S
C4550 C4551 1.373 . S
C4550 C4552 1.389 . S
C4551 H4530 0.950 . S
C4551 C4550 1.373 . S
C4551 C4567 1.377 . S
C4552 C4550 1.389 . S
C4552 C4553 1.524 . S
C4552 C4566 1.377 . S
C4553 C4552 1.524 . S
C4553 C4554 1.397 . S
C4553 C4558 1.363 . S
C4554 H4531 0.950 . S
C4554 C4553 1.397 . S
C4554 C4555 1.334 . S
C4555 H4532 0.950 . S
C4555 C4554 1.334 . S
C4555 C4556 1.287 . S
C4556 C4555 1.287 . S
C4556 C4557 1.524 . S
C4556 H4575 0.913 . S
C4557 H4533 0.950 . S
C4557 C4556 1.524 . S
C4557 C4558 1.415 . S
C4558 H4534 0.950 . S
C4558 C4553 1.363 . S
C4558 C4557 1.415 . S
C4559 H4535 0.951 . S
C4559 C4560 1.366 . S
C4559 C4561 1.388 . S
C4560 C4559 1.366 . S
C4560 C4564 1.385 . S
C4561 H4536 0.951 . S
C4561 C4559 1.388 . S
C4561 C4562 1.366 . S
C4562 C4561 1.366 . S
C4562 C4563 1.414 . S
C4562 C4565 1.499 . S
C4563 H4537 0.950 . S
C4563 C4562 1.414 . S
C4563 C4564 1.374 . S
C4564 H4538 0.950 . S
C4564 C4560 1.385 . S
C4564 C4563 1.374 . S
C4565 C4562 1.499 . S
C4565 C4566 1.373 . S
C4565 C4567 1.389 . S
C4566 H4539 0.950 . S
C4566 C4552 1.377 . S
C4566 C4565 1.373 . S
C4567 C4551 1.377 . S
C4567 C4565 1.389 . S
C4567 C4568 1.524 . S
C4568 C4567 1.524 . S
C4568 C4569 1.397 . S
C4568 C4573 1.363 . S
C4569 H4540 0.950 . S
C4569 C4568 1.397 . S
C4569 C4570 1.334 . S
C4570 H4541 0.950 . S
C4570 C4569 1.334 . S
C4570 C4571 1.287 . S
C4571 C4570 1.287 . S
C4571 C4572 1.524 . S
C4571 H4574 0.999 . S
C4572 H4542 0.950 . S
C4572 C4571 1.524 . S
C4572 C4573 1.415 . S
C4573 H4543 0.950 . S
C4573 C4568 1.363 . S
C4573 C4572 1.415 . S
H4574 C4571 0.999 . S
H4575 C4556 0.913 . S
H4576 C4594 0.951 . S
H4577 C4596 0.951 . S
H4578 C4598 0.950 . S
H4579 C4599 0.950 . S
H4580 C4601 0.950 . S
H4581 C4604 0.950 . S
H4582 C4605 0.950 . S
H4583 C4607 0.950 . S
H4584 C4608 0.950 . S
H4585 C4609 0.951 . S
H4586 C4611 0.951 . S
H4587 C4613 0.950 . S
H4588 C4614 0.950 . S
H4589 C4616 0.950 . S
H4590 C4619 0.950 . S
H4591 C4620 0.950 . S
H4592 C4622 0.950 . S
H4593 C4623 0.950 . S
C4594 H4576 0.951 . S
C4594 C4595 1.366 . S
C4594 C4596 1.388 . S
C4595 C4594 1.366 . S
C4595 C4599 1.385 . S
C4596 H4577 0.951 . S
C4596 C4594 1.388 . S
C4596 C4597 1.366 . S
C4597 C4596 1.366 . S
C4597 C4598 1.414 . S
C4597 C4600 1.499 . S
C4598 H4578 0.950 . S
C4598 C4597 1.414 . S
C4598 C4599 1.374 . S
C4599 H4579 0.950 . S
C4599 C4595 1.385 . S
C4599 C4598 1.374 . S
C4600 C4597 1.499 . S
C4600 C4601 1.373 . S
C4600 C4602 1.389 . S
C4601 H4580 0.950 . S
C4601 C4600 1.373 . S
C4601 C4617 1.377 . S
C4602 C4600 1.389 . S
C4602 C4603 1.524 . S
C4602 C4616 1.377 . S
C4603 C4602 1.524 . S
C4603 C4604 1.397 . S
C4603 C4608 1.363 . S
C4604 H4581 0.950 . S
C4604 C4603 1.397 . S
C4604 C4605 1.334 . S
C4605 H4582 0.950 . S
C4605 C4604 1.334 . S
C4605 C4606 1.287 . S
C4606 C4605 1.287 . S
C4606 C4607 1.524 . S
C4606 H4625 0.913 . S
C4607 H4583 0.950 . S
C4607 C4606 1.524 . S
C4607 C4608 1.415 . S
C4608 H4584 0.950 . S
C4608 C4603 1.363 . S
C4608 C4607 1.415 . S
C4609 H4585 0.951 . S
C4609 C4610 1.366 . S
C4609 C4611 1.388 . S
C4610 C4609 1.366 . S
C4610 C4614 1.385 . S
C4611 H4586 0.951 . S
C4611 C4609 1.388 . S
C4611 C4612 1.366 . S
C4612 C4611 1.366 . S
C4612 C4613 1.414 . S
C4612 C4615 1.499 . S
C4613 H4587 0.950 . S
C4613 C4612 1.414 . S
C4613 C4614 1.374 . S
C4614 H4588 0.950 . S
C4614 C4610 1.385 . S
C4614 C4613 1.374 . S
C4615 C4612 1.499 . S
C4615 C4616 1.373 . S
C4615 C4617 1.389 . S
C4616 H4589 0.950 . S
C4616 C4602 1.377 . S
C4616 C4615 1.373 . S
C4617 C4601 1.377 . S
C4617 C4615 1.389 . S
C4617 C4618 1.524 . S
C4618 C4617 1.524 . S
C4618 C4619 1.397 . S
C4618 C4623 1.363 . S
C4619 H4590 0.950 . S
C4619 C4618 1.397 . S
C4619 C4620 1.334 . S
C4620 H4591 0.950 . S
C4620 C4619 1.334 . S
C4620 C4621 1.287 . S
C4621 C4620 1.287 . S
C4621 C4622 1.524 . S
C4621 H4624 0.999 . S
C4622 H4592 0.950 . S
C4622 C4621 1.524 . S
C4622 C4623 1.415 . S
C4623 H4593 0.950 . S
C4623 C4618 1.363 . S
C4623 C4622 1.415 . S
H4624 C4621 0.999 . S
H4625 C4606 0.913 . S
H4626 C4644 0.951 . S
H4627 C4646 0.951 . S
H4628 C4648 0.950 . S
H4629 C4649 0.950 . S
H4630 C4651 0.950 . S
H4631 C4654 0.950 . S
H4632 C4655 0.950 . S
H4633 C4657 0.950 . S
H4634 C4658 0.950 . S
H4635 C4659 0.951 . S
H4636 C4661 0.951 . S
H4637 C4663 0.950 . S
H4638 C4664 0.950 . S
H4639 C4666 0.950 . S
H4640 C4669 0.950 . S
H4641 C4670 0.950 . S
H4642 C4672 0.950 . S
H4643 C4673 0.950 . S
C4644 H4626 0.951 . S
C4644 C4645 1.366 . S
C4644 C4646 1.388 . S
C4645 C4644 1.366 . S
C4645 C4649 1.385 . S
C4646 H4627 0.951 . S
C4646 C4644 1.388 . S
C4646 C4647 1.366 . S
C4647 C4646 1.366 . S
C4647 C4648 1.414 . S
C4647 C4650 1.499 . S
C4648 H4628 0.950 . S
C4648 C4647 1.414 . S
C4648 C4649 1.374 . S
C4649 H4629 0.950 . S
C4649 C4645 1.385 . S
C4649 C4648 1.374 . S
C4650 C4647 1.499 . S
C4650 C4651 1.373 . S
C4650 C4652 1.389 . S
C4651 H4630 0.950 . S
C4651 C4650 1.373 . S
C4651 C4667 1.377 . S
C4652 C4650 1.389 . S
C4652 C4653 1.524 . S
C4652 C4666 1.377 . S
C4653 C4652 1.524 . S
C4653 C4654 1.397 . S
C4653 C4658 1.363 . S
C4654 H4631 0.950 . S
C4654 C4653 1.397 . S
C4654 C4655 1.334 . S
C4655 H4632 0.950 . S
C4655 C4654 1.334 . S
C4655 C4656 1.287 . S
C4656 C4655 1.287 . S
C4656 C4657 1.524 . S
C4656 H4675 0.913 . S
C4657 H4633 0.950 . S
C4657 C4656 1.524 . S
C4657 C4658 1.415 . S
C4658 H4634 0.950 . S
C4658 C4653 1.363 . S
C4658 C4657 1.415 . S
C4659 H4635 0.951 . S
C4659 C4660 1.366 . S
C4659 C4661 1.388 . S
C4660 C4659 1.366 . S
C4660 C4664 1.385 . S
C4661 H4636 0.951 . S
C4661 C4659 1.388 . S
C4661 C4662 1.366 . S
C4662 C4661 1.366 . S
C4662 C4663 1.414 . S
C4662 C4665 1.499 . S
C4663 H4637 0.950 . S
C4663 C4662 1.414 . S
C4663 C4664 1.374 . S
C4664 H4638 0.950 . S
C4664 C4660 1.385 . S
C4664 C4663 1.374 . S
C4665 C4662 1.499 . S
C4665 C4666 1.373 . S
C4665 C4667 1.389 . S
C4666 H4639 0.950 . S
C4666 C4652 1.377 . S
C4666 C4665 1.373 . S
C4667 C4651 1.377 . S
C4667 C4665 1.389 . S
C4667 C4668 1.524 . S
C4668 C4667 1.524 . S
C4668 C4669 1.397 . S
C4668 C4673 1.363 . S
C4669 H4640 0.950 . S
C4669 C4668 1.397 . S
C4669 C4670 1.334 . S
C4670 H4641 0.950 . S
C4670 C4669 1.334 . S
C4670 C4671 1.287 . S
C4671 C4670 1.287 . S
C4671 C4672 1.524 . S
C4671 H4674 0.999 . S
C4672 H4642 0.950 . S
C4672 C4671 1.524 . S
C4672 C4673 1.415 . S
C4673 H4643 0.950 . S
C4673 C4668 1.363 . S
C4673 C4672 1.415 . S
H4674 C4671 0.999 . S
H4675 C4656 0.913 . S
H4676 C4694 0.951 . S
H4677 C4696 0.951 . S
H4678 C4698 0.950 . S
H4679 C4699 0.950 . S
H4680 C4701 0.950 . S
H4681 C4704 0.950 . S
H4682 C4705 0.950 . S
H4683 C4707 0.950 1_556 S
H4684 C4708 0.950 . S
H4685 C4709 0.951 . S
H4686 C4711 0.951 . S
H4687 C4713 0.950 . S
H4688 C4714 0.950 . S
H4689 C4716 0.950 . S
H4690 C4719 0.950 . S
H4691 C4720 0.950 . S
H4692 C4722 0.950 . S
H4693 C4723 0.950 . S
C4694 H4676 0.951 . S
C4694 C4695 1.366 . S
C4694 C4696 1.388 . S
C4695 C4694 1.366 . S
C4695 C4699 1.385 . S
C4696 H4677 0.951 . S
C4696 C4694 1.388 . S
C4696 C4697 1.366 . S
C4697 C4696 1.366 . S
C4697 C4698 1.414 . S
C4697 C4700 1.499 . S
C4698 H4678 0.950 . S
C4698 C4697 1.414 . S
C4698 C4699 1.374 . S
C4699 H4679 0.950 . S
C4699 C4695 1.385 . S
C4699 C4698 1.374 . S
C4700 C4697 1.499 . S
C4700 C4701 1.373 . S
C4700 C4702 1.389 . S
C4701 H4680 0.950 . S
C4701 C4700 1.373 . S
C4701 C4717 1.377 . S
C4702 C4700 1.389 . S
C4702 C4703 1.524 . S
C4702 C4716 1.377 . S
C4703 C4702 1.524 . S
C4703 C4704 1.397 . S
C4703 C4708 1.363 . S
C4704 H4681 0.950 . S
C4704 C4703 1.397 . S
C4704 C4705 1.334 1_455 S
C4705 H4682 0.950 . S
C4705 C4704 1.334 1_655 S
C4705 C4706 1.287 1_655 S
C4706 C4705 1.287 1_455 S
C4706 C4707 1.524 . S
C4706 H4725 0.913 1_455 S
C4707 H4683 0.950 1_554 S
C4707 C4706 1.524 . S
C4707 C4708 1.415 . S
C4708 H4684 0.950 . S
C4708 C4703 1.363 . S
C4708 C4707 1.415 . S
C4709 H4685 0.951 . S
C4709 C4710 1.366 . S
C4709 C4711 1.388 . S
C4710 C4709 1.366 . S
C4710 C4714 1.385 . S
C4711 H4686 0.951 . S
C4711 C4709 1.388 . S
C4711 C4712 1.366 . S
C4712 C4711 1.366 . S
C4712 C4713 1.414 . S
C4712 C4715 1.499 . S
C4713 H4687 0.950 . S
C4713 C4712 1.414 . S
C4713 C4714 1.374 . S
C4714 H4688 0.950 . S
C4714 C4710 1.385 . S
C4714 C4713 1.374 . S
C4715 C4712 1.499 . S
C4715 C4716 1.373 . S
C4715 C4717 1.389 . S
C4716 H4689 0.950 . S
C4716 C4702 1.377 . S
C4716 C4715 1.373 . S
C4717 C4701 1.377 . S
C4717 C4715 1.389 . S
C4717 C4718 1.524 . S
C4718 C4717 1.524 . S
C4718 C4719 1.397 . S
C4718 C4723 1.363 . S
C4719 H4690 0.950 . S
C4719 C4718 1.397 . S
C4719 C4720 1.334 . S
C4720 H4691 0.950 . S
C4720 C4719 1.334 . S
C4720 C4721 1.287 . S
C4721 C4720 1.287 . S
C4721 C4722 1.524 . S
C4721 H4724 0.999 . S
C4722 H4692 0.950 . S
C4722 C4721 1.524 . S
C4722 C4723 1.415 . S
C4723 H4693 0.950 . S
C4723 C4718 1.363 . S
C4723 C4722 1.415 . S
H4724 C4721 0.999 . S
H4725 C4706 0.913 1_655 S
H4726 C4744 0.951 . S
H4727 C4746 0.951 . S
H4728 C4748 0.950 . S
H4729 C4749 0.950 . S
H4730 C4751 0.950 . S
H4731 C4754 0.950 . S
H4732 C4755 0.950 . S
H4733 C4757 0.950 . S
H4734 C4758 0.950 . S
H4735 C4759 0.951 . S
H4736 C4761 0.951 . S
H4737 C4763 0.950 . S
H4738 C4764 0.950 . S
H4739 C4766 0.950 . S
H4740 C4769 0.950 . S
H4741 C4770 0.950 . S
H4742 C4772 0.950 . S
H4743 C4773 0.950 . S
C4744 H4726 0.951 . S
C4744 C4745 1.366 . S
C4744 C4746 1.388 . S
C4745 C4744 1.366 . S
C4745 C4749 1.385 . S
C4746 H4727 0.951 . S
C4746 C4744 1.388 . S
C4746 C4747 1.366 . S
C4747 C4746 1.366 . S
C4747 C4748 1.414 . S
C4747 C4750 1.499 . S
C4748 H4728 0.950 . S
C4748 C4747 1.414 . S
C4748 C4749 1.374 . S
C4749 H4729 0.950 . S
C4749 C4745 1.385 . S
C4749 C4748 1.374 . S
C4750 C4747 1.499 . S
C4750 C4751 1.373 . S
C4750 C4752 1.389 . S
C4751 H4730 0.950 . S
C4751 C4750 1.373 . S
C4751 C4767 1.377 . S
C4752 C4750 1.389 . S
C4752 C4753 1.524 . S
C4752 C4766 1.377 . S
C4753 C4752 1.524 . S
C4753 C4754 1.397 . S
C4753 C4758 1.363 . S
C4754 H4731 0.950 . S
C4754 C4753 1.397 . S
C4754 C4755 1.334 . S
C4755 H4732 0.950 . S
C4755 C4754 1.334 . S
C4755 C4756 1.287 . S
C4756 C4755 1.287 . S
C4756 C4757 1.524 . S
C4756 H4775 0.913 . S
C4757 H4733 0.950 . S
C4757 C4756 1.524 . S
C4757 C4758 1.415 . S
C4758 H4734 0.950 . S
C4758 C4753 1.363 . S
C4758 C4757 1.415 . S
C4759 H4735 0.951 . S
C4759 C4760 1.366 . S
C4759 C4761 1.388 . S
C4760 C4759 1.366 . S
C4760 C4764 1.385 . S
C4761 H4736 0.951 . S
C4761 C4759 1.388 . S
C4761 C4762 1.366 . S
C4762 C4761 1.366 . S
C4762 C4763 1.414 . S
C4762 C4765 1.499 . S
C4763 H4737 0.950 . S
C4763 C4762 1.414 . S
C4763 C4764 1.374 . S
C4764 H4738 0.950 . S
C4764 C4760 1.385 . S
C4764 C4763 1.374 . S
C4765 C4762 1.499 . S
C4765 C4766 1.373 . S
C4765 C4767 1.389 . S
C4766 H4739 0.950 . S
C4766 C4752 1.377 . S
C4766 C4765 1.373 . S
C4767 C4751 1.377 . S
C4767 C4765 1.389 . S
C4767 C4768 1.524 . S
C4768 C4767 1.524 . S
C4768 C4769 1.397 . S
C4768 C4773 1.363 . S
C4769 H4740 0.950 . S
C4769 C4768 1.397 . S
C4769 C4770 1.334 . S
C4770 H4741 0.950 . S
C4770 C4769 1.334 . S
C4770 C4771 1.287 . S
C4771 C4770 1.287 . S
C4771 C4772 1.524 . S
C4771 H4774 0.999 . S
C4772 H4742 0.950 . S
C4772 C4771 1.524 . S
C4772 C4773 1.415 . S
C4773 H4743 0.950 . S
C4773 C4768 1.363 . S
C4773 C4772 1.415 . S
H4774 C4771 0.999 . S
H4775 C4756 0.913 . S
H4776 C4794 0.951 . S
H4777 C4796 0.951 . S
H4778 C4798 0.950 . S
H4779 C4799 0.950 . S
H4780 C4801 0.950 . S
H4781 C4804 0.950 . S
H4782 C4805 0.950 . S
H4783 C4807 0.950 . S
H4784 C4808 0.950 . S
H4785 C4809 0.951 . S
H4786 C4811 0.951 . S
H4787 C4813 0.950 . S
H4788 C4814 0.950 . S
H4789 C4816 0.950 . S
H4790 C4819 0.950 . S
H4791 C4820 0.952 1_554 S
H4792 C4822 0.950 . S
H4793 C4823 0.950 . S
C4794 H4776 0.951 . S
C4794 C4795 1.366 . S
C4794 C4796 1.388 . S
C4795 C4794 1.366 . S
C4795 C4799 1.385 . S
C4796 H4777 0.951 . S
C4796 C4794 1.388 . S
C4796 C4797 1.366 . S
C4797 C4796 1.366 . S
C4797 C4798 1.414 . S
C4797 C4800 1.499 . S
C4798 H4778 0.950 . S
C4798 C4797 1.414 . S
C4798 C4799 1.374 . S
C4799 H4779 0.950 . S
C4799 C4795 1.385 . S
C4799 C4798 1.374 . S
C4800 C4797 1.499 . S
C4800 C4801 1.373 . S
C4800 C4802 1.389 . S
C4801 H4780 0.950 . S
C4801 C4800 1.373 . S
C4801 C4817 1.377 . S
C4802 C4800 1.389 . S
C4802 C4803 1.524 . S
C4802 C4816 1.377 . S
C4803 C4802 1.524 . S
C4803 C4804 1.397 . S
C4803 C4808 1.363 . S
C4804 H4781 0.950 . S
C4804 C4803 1.397 . S
C4804 C4805 1.334 . S
C4805 H4782 0.950 . S
C4805 C4804 1.334 . S
C4805 C4806 1.287 . S
C4806 C4805 1.287 . S
C4806 C4807 1.524 . S
C4806 H4825 0.913 . S
C4807 H4783 0.950 . S
C4807 C4806 1.524 . S
C4807 C4808 1.415 . S
C4808 H4784 0.950 . S
C4808 C4803 1.363 . S
C4808 C4807 1.415 . S
C4809 H4785 0.951 . S
C4809 C4810 1.366 . S
C4809 C4811 1.388 . S
C4810 C4809 1.366 . S
C4810 C4814 1.385 . S
C4811 H4786 0.951 . S
C4811 C4809 1.388 . S
C4811 C4812 1.366 . S
C4812 C4811 1.366 . S
C4812 C4813 1.414 . S
C4812 C4815 1.499 . S
C4813 H4787 0.950 . S
C4813 C4812 1.414 . S
C4813 C4814 1.374 . S
C4814 H4788 0.950 . S
C4814 C4810 1.385 . S
C4814 C4813 1.374 . S
C4815 C4812 1.499 . S
C4815 C4816 1.373 . S
C4815 C4817 1.389 . S
C4816 H4789 0.950 . S
C4816 C4802 1.377 . S
C4816 C4815 1.373 . S
C4817 C4801 1.377 . S
C4817 C4815 1.389 . S
C4817 C4818 1.524 . S
C4818 C4817 1.524 . S
C4818 C4819 1.397 . S
C4818 C4823 1.363 . S
C4819 H4790 0.950 . S
C4819 C4818 1.397 . S
C4819 C4820 1.331 . S
C4820 H4791 0.952 1_556 S
C4820 C4819 1.331 . S
C4820 C4821 1.289 1_556 S
C4821 C4820 1.289 1_554 S
C4821 C4822 1.524 . S
C4821 H4824 0.999 . S
C4822 H4792 0.950 . S
C4822 C4821 1.524 . S
C4822 C4823 1.415 1_554 S
C4823 H4793 0.950 . S
C4823 C4818 1.363 . S
C4823 C4822 1.415 1_556 S
H4824 C4821 0.999 . S
H4825 C4806 0.913 . S
H4826 C4844 0.951 . S
H4827 C4846 0.951 . S
H4828 C4848 0.950 . S
H4829 C4849 0.950 . S
H4830 C4851 0.950 . S
H4831 C4854 0.950 . S
H4832 C4855 0.950 . S
H4833 C4857 0.950 . S
H4834 C4858 0.950 . S
H4835 C4859 0.951 . S
H4836 C4861 0.951 . S
H4837 C4863 0.950 . S
H4838 C4864 0.950 . S
H4839 C4866 0.950 . S
H4840 C4869 0.950 . S
H4841 C4870 0.950 . S
H4842 C4872 0.950 . S
H4843 C4873 0.950 . S
C4844 H4826 0.951 . S
C4844 C4845 1.366 . S
C4844 C4846 1.388 . S
C4845 C4844 1.366 . S
C4845 C4849 1.385 . S
C4846 H4827 0.951 . S
C4846 C4844 1.388 . S
C4846 C4847 1.366 . S
C4847 C4846 1.366 . S
C4847 C4848 1.414 . S
C4847 C4850 1.499 . S
C4848 H4828 0.950 . S
C4848 C4847 1.414 . S
C4848 C4849 1.374 . S
C4849 H4829 0.950 . S
C4849 C4845 1.385 . S
C4849 C4848 1.374 . S
C4850 C4847 1.499 . S
C4850 C4851 1.373 . S
C4850 C4852 1.389 . S
C4851 H4830 0.950 . S
C4851 C4850 1.373 . S
C4851 C4867 1.377 . S
C4852 C4850 1.389 . S
C4852 C4853 1.524 . S
C4852 C4866 1.377 . S
C4853 C4852 1.524 . S
C4853 C4854 1.397 . S
C4853 C4858 1.363 . S
C4854 H4831 0.950 . S
C4854 C4853 1.397 . S
C4854 C4855 1.334 . S
C4855 H4832 0.950 . S
C4855 C4854 1.334 . S
C4855 C4856 1.287 . S
C4856 C4855 1.287 . S
C4856 C4857 1.524 . S
C4856 H4875 0.913 . S
C4857 H4833 0.950 . S
C4857 C4856 1.524 . S
C4857 C4858 1.415 . S
C4858 H4834 0.950 . S
C4858 C4853 1.363 . S
C4858 C4857 1.415 . S
C4859 H4835 0.951 . S
C4859 C4860 1.366 . S
C4859 C4861 1.388 . S
C4860 C4859 1.366 . S
C4860 C4864 1.385 . S
C4861 H4836 0.951 . S
C4861 C4859 1.388 . S
C4861 C4862 1.366 . S
C4862 C4861 1.366 . S
C4862 C4863 1.414 . S
C4862 C4865 1.499 . S
C4863 H4837 0.950 . S
C4863 C4862 1.414 . S
C4863 C4864 1.374 . S
C4864 H4838 0.950 . S
C4864 C4860 1.385 . S
C4864 C4863 1.374 . S
C4865 C4862 1.499 . S
C4865 C4866 1.373 . S
C4865 C4867 1.389 . S
C4866 H4839 0.950 . S
C4866 C4852 1.377 . S
C4866 C4865 1.373 . S
C4867 C4851 1.377 . S
C4867 C4865 1.389 . S
C4867 C4868 1.524 . S
C4868 C4867 1.524 . S
C4868 C4869 1.397 . S
C4868 C4873 1.363 . S
C4869 H4840 0.950 . S
C4869 C4868 1.397 . S
C4869 C4870 1.334 . S
C4870 H4841 0.950 . S
C4870 C4869 1.334 . S
C4870 C4871 1.287 . S
C4871 C4870 1.287 . S
C4871 C4872 1.524 . S
C4871 H4874 0.999 . S
C4872 H4842 0.950 . S
C4872 C4871 1.524 . S
C4872 C4873 1.415 . S
C4873 H4843 0.950 . S
C4873 C4868 1.363 . S
C4873 C4872 1.415 . S
H4874 C4871 0.999 . S
H4875 C4856 0.913 . S
H4876 C4894 0.951 . S
H4877 C4896 0.951 . S
H4878 C4898 0.950 . S
H4879 C4899 0.950 . S
H4880 C4901 0.950 . S
H4881 C4904 0.950 . S
H4882 C4905 0.950 . S
H4883 C4907 0.950 . S
H4884 C4908 0.950 . S
H4885 C4909 0.951 . S
H4886 C4911 0.951 . S
H4887 C4913 0.950 . S
H4888 C4914 0.950 . S
H4889 C4916 0.950 . S
H4890 C4919 0.950 . S
H4891 C4920 0.950 . S
H4892 C4922 0.950 . S
H4893 C4923 0.950 . S
C4894 H4876 0.951 . S
C4894 C4895 1.366 . S
C4894 C4896 1.388 . S
C4895 C4894 1.366 . S
C4895 C4899 1.385 . S
C4896 H4877 0.951 . S
C4896 C4894 1.388 . S
C4896 C4897 1.366 . S
C4897 C4896 1.366 . S
C4897 C4898 1.414 . S
C4897 C4900 1.499 . S
C4898 H4878 0.950 . S
C4898 C4897 1.414 . S
C4898 C4899 1.374 . S
C4899 H4879 0.950 . S
C4899 C4895 1.385 . S
C4899 C4898 1.374 . S
C4900 C4897 1.499 . S
C4900 C4901 1.373 . S
C4900 C4902 1.389 . S
C4901 H4880 0.950 . S
C4901 C4900 1.373 . S
C4901 C4917 1.377 . S
C4902 C4900 1.389 . S
C4902 C4903 1.524 1_455 S
C4902 C4916 1.377 . S
C4903 C4902 1.524 1_655 S
C4903 C4904 1.397 . S
C4903 C4908 1.363 . S
C4904 H4881 0.950 . S
C4904 C4903 1.397 . S
C4904 C4905 1.334 . S
C4905 H4882 0.950 . S
C4905 C4904 1.334 . S
C4905 C4906 1.287 . S
C4906 C4905 1.287 . S
C4906 C4907 1.524 . S
C4906 H4925 0.913 . S
C4907 H4883 0.950 . S
C4907 C4906 1.524 . S
C4907 C4908 1.415 . S
C4908 H4884 0.950 . S
C4908 C4903 1.363 . S
C4908 C4907 1.415 . S
C4909 H4885 0.951 . S
C4909 C4910 1.366 . S
C4909 C4911 1.388 . S
C4910 C4909 1.366 . S
C4910 C4914 1.385 . S
C4911 H4886 0.951 . S
C4911 C4909 1.388 . S
C4911 C4912 1.366 . S
C4912 C4911 1.366 . S
C4912 C4913 1.414 . S
C4912 C4915 1.499 . S
C4913 H4887 0.950 . S
C4913 C4912 1.414 . S
C4913 C4914 1.374 . S
C4914 H4888 0.950 . S
C4914 C4910 1.385 . S
C4914 C4913 1.374 . S
C4915 C4912 1.499 . S
C4915 C4916 1.373 . S
C4915 C4917 1.389 . S
C4916 H4889 0.950 . S
C4916 C4902 1.377 . S
C4916 C4915 1.373 . S
C4917 C4901 1.377 . S
C4917 C4915 1.389 . S
C4917 C4918 1.524 . S
C4918 C4917 1.524 . S
C4918 C4919 1.397 . S
C4918 C4923 1.363 . S
C4919 H4890 0.950 . S
C4919 C4918 1.397 . S
C4919 C4920 1.334 . S
C4920 H4891 0.950 . S
C4920 C4919 1.334 . S
C4920 C4921 1.287 . S
C4921 C4920 1.287 . S
C4921 C4922 1.524 . S
C4921 H4924 0.999 . S
C4922 H4892 0.950 . S
C4922 C4921 1.524 . S
C4922 C4923 1.415 . S
C4923 H4893 0.950 . S
C4923 C4918 1.363 . S
C4923 C4922 1.415 . S
H4924 C4921 0.999 . S
H4925 C4906 0.913 . S
H4926 C4944 0.951 . S
H4927 C4946 0.951 . S
H4928 C4948 0.950 . S
H4929 C4949 0.950 . S
H4930 C4951 0.950 . S
H4931 C4954 0.950 . S
H4932 C4955 0.950 . S
H4933 C4957 0.950 . S
H4934 C4958 0.950 . S
H4935 C4959 0.951 . S
H4936 C4961 0.951 . S
H4937 C4963 0.950 . S
H4938 C4964 0.950 . S
H4939 C4966 0.950 . S
H4940 C4969 0.950 . S
H4941 C4970 0.950 . S
H4942 C4972 0.950 . S
H4943 C4973 0.950 . S
C4944 H4926 0.951 . S
C4944 C4945 1.366 . S
C4944 C4946 1.388 . S
C4945 C4944 1.366 . S
C4945 C4949 1.385 . S
C4946 H4927 0.951 . S
C4946 C4944 1.388 . S
C4946 C4947 1.366 . S
C4947 C4946 1.366 . S
C4947 C4948 1.414 . S
C4947 C4950 1.499 . S
C4948 H4928 0.950 . S
C4948 C4947 1.414 . S
C4948 C4949 1.374 . S
C4949 H4929 0.950 . S
C4949 C4945 1.385 . S
C4949 C4948 1.374 . S
C4950 C4947 1.499 . S
C4950 C4951 1.373 . S
C4950 C4952 1.389 . S
C4951 H4930 0.950 . S
C4951 C4950 1.373 . S
C4951 C4967 1.377 . S
C4952 C4950 1.389 . S
C4952 C4953 1.524 . S
C4952 C4966 1.377 . S
C4953 C4952 1.524 . S
C4953 C4954 1.397 . S
C4953 C4958 1.363 . S
C4954 H4931 0.950 . S
C4954 C4953 1.397 . S
C4954 C4955 1.334 . S
C4955 H4932 0.950 . S
C4955 C4954 1.334 . S
C4955 C4956 1.287 . S
C4956 C4955 1.287 . S
C4956 C4957 1.524 . S
C4956 H4975 0.913 . S
C4957 H4933 0.950 . S
C4957 C4956 1.524 . S
C4957 C4958 1.415 . S
C4958 H4934 0.950 . S
C4958 C4953 1.363 . S
C4958 C4957 1.415 . S
C4959 H4935 0.951 . S
C4959 C4960 1.366 . S
C4959 C4961 1.388 . S
C4960 C4959 1.366 . S
C4960 C4964 1.385 . S
C4961 H4936 0.951 . S
C4961 C4959 1.388 . S
C4961 C4962 1.366 . S
C4962 C4961 1.366 . S
C4962 C4963 1.414 . S
C4962 C4965 1.499 . S
C4963 H4937 0.950 . S
C4963 C4962 1.414 . S
C4963 C4964 1.374 . S
C4964 H4938 0.950 . S
C4964 C4960 1.385 . S
C4964 C4963 1.374 . S
C4965 C4962 1.499 . S
C4965 C4966 1.373 . S
C4965 C4967 1.389 . S
C4966 H4939 0.950 . S
C4966 C4952 1.377 . S
C4966 C4965 1.373 . S
C4967 C4951 1.377 . S
C4967 C4965 1.389 . S
C4967 C4968 1.524 . S
C4968 C4967 1.524 . S
C4968 C4969 1.397 . S
C4968 C4973 1.363 . S
C4969 H4940 0.950 . S
C4969 C4968 1.397 . S
C4969 C4970 1.334 . S
C4970 H4941 0.950 . S
C4970 C4969 1.334 . S
C4970 C4971 1.287 . S
C4971 C4970 1.287 . S
C4971 C4972 1.524 . S
C4971 H4974 0.999 . S
C4972 H4942 0.950 . S
C4972 C4971 1.524 . S
C4972 C4973 1.415 . S
C4973 H4943 0.950 . S
C4973 C4968 1.363 . S
C4973 C4972 1.415 . S
H4974 C4971 0.999 . S
H4975 C4956 0.913 . S
H4976 C4994 0.951 . S
H4977 C4996 0.951 . S
H4978 C4998 0.950 . S
H4979 C4999 0.950 . S
H4980 C5001 0.950 . S
H4981 C5004 0.950 . S
H4982 C5005 0.950 . S
H4983 C5007 0.950 . S
H4984 C5008 0.950 . S
H4985 C5009 0.951 . S
H4986 C5011 0.951 . S
H4987 C5013 0.950 . S
H4988 C5014 0.950 . S
H4989 C5016 0.950 . S
H4990 C5019 0.950 . S
H4991 C5020 0.950 . S
H4992 C5022 0.950 . S
H4993 C5023 0.950 . S
C4994 H4976 0.951 . S
C4994 C4995 1.366 . S
C4994 C4996 1.388 . S
C4995 C4994 1.366 . S
C4995 C4999 1.385 . S
C4996 H4977 0.951 . S
C4996 C4994 1.388 . S
C4996 C4997 1.366 . S
C4997 C4996 1.366 . S
C4997 C4998 1.414 . S
C4997 C5000 1.499 . S
C4998 H4978 0.950 . S
C4998 C4997 1.414 . S
C4998 C4999 1.374 . S
C4999 H4979 0.950 . S
C4999 C4995 1.385 . S
C4999 C4998 1.374 . S
C5000 C4997 1.499 . S
C5000 C5001 1.373 . S
C5000 C5002 1.389 . S
C5001 H4980 0.950 . S
C5001 C5000 1.373 . S
C5001 C5017 1.377 . S
C5002 C5000 1.389 . S
C5002 C5003 1.524 . S
C5002 C5016 1.377 . S
C5003 C5002 1.524 . S
C5003 C5004 1.397 . S
C5003 C5008 1.363 . S
C5004 H4981 0.950 . S
C5004 C5003 1.397 . S
C5004 C5005 1.334 . S
C5005 H4982 0.950 . S
C5005 C5004 1.334 . S
C5005 C5006 1.287 . S
C5006 C5005 1.287 . S
C5006 C5007 1.524 . S
C5006 H5025 0.913 . S
C5007 H4983 0.950 . S
C5007 C5006 1.524 . S
C5007 C5008 1.415 . S
C5008 H4984 0.950 . S
C5008 C5003 1.363 . S
C5008 C5007 1.415 . S
C5009 H4985 0.951 . S
C5009 C5010 1.366 . S
C5009 C5011 1.388 . S
C5010 C5009 1.366 . S
C5010 C5014 1.385 . S
C5011 H4986 0.951 . S
C5011 C5009 1.388 . S
C5011 C5012 1.366 . S
C5012 C5011 1.366 . S
C5012 C5013 1.414 . S
C5012 C5015 1.499 . S
C5013 H4987 0.950 . S
C5013 C5012 1.414 . S
C5013 C5014 1.374 . S
C5014 H4988 0.950 . S
C5014 C5010 1.385 . S
C5014 C5013 1.374 . S
C5015 C5012 1.499 . S
C5015 C5016 1.373 . S
C5015 C5017 1.389 . S
C5016 H4989 0.950 . S
C5016 C5002 1.377 . S
C5016 C5015 1.373 . S
C5017 C5001 1.377 . S
C5017 C5015 1.389 . S
C5017 C5018 1.524 . S
C5018 C5017 1.524 . S
C5018 C5019 1.397 . S
C5018 C5023 1.363 . S
C5019 H4990 0.950 . S
C5019 C5018 1.397 . S
C5019 C5020 1.334 . S
C5020 H4991 0.950 . S
C5020 C5019 1.334 . S
C5020 C5021 1.287 . S
C5021 C5020 1.287 . S
C5021 C5022 1.524 . S
C5021 H5024 0.999 . S
C5022 H4992 0.950 . S
C5022 C5021 1.524 . S
C5022 C5023 1.415 . S
C5023 H4993 0.950 . S
C5023 C5018 1.363 . S
C5023 C5022 1.415 . S
H5024 C5021 0.999 . S
H5025 C5006 0.913 . S
H5026 C5044 0.951 . S
H5027 C5046 0.951 . S
H5028 C5048 0.950 . S
H5029 C5049 0.950 . S
H5030 C5051 0.950 . S
H5031 C5054 0.950 . S
H5032 C5055 0.950 . S
H5033 C5057 0.950 . S
H5034 C5058 0.950 . S
H5035 C5059 0.951 . S
H5036 C5061 0.951 . S
H5037 C5063 0.950 . S
H5038 C5064 0.950 . S
H5039 C5066 0.950 . S
H5040 C5069 0.950 . S
H5041 C5070 0.950 . S
H5042 C5072 0.950 . S
H5043 C5073 0.950 . S
C5044 H5026 0.951 . S
C5044 C5045 1.366 . S
C5044 C5046 1.388 . S
C5045 C5044 1.366 . S
C5045 C5049 1.385 . S
C5046 H5027 0.951 . S
C5046 C5044 1.388 . S
C5046 C5047 1.366 . S
C5047 C5046 1.366 . S
C5047 C5048 1.414 . S
C5047 C5050 1.499 . S
C5048 H5028 0.950 . S
C5048 C5047 1.414 . S
C5048 C5049 1.374 . S
C5049 H5029 0.950 . S
C5049 C5045 1.385 . S
C5049 C5048 1.374 . S
C5050 C5047 1.499 . S
C5050 C5051 1.373 . S
C5050 C5052 1.389 . S
C5051 H5030 0.950 . S
C5051 C5050 1.373 . S
C5051 C5067 1.377 . S
C5052 C5050 1.389 . S
C5052 C5053 1.524 . S
C5052 C5066 1.377 . S
C5053 C5052 1.524 . S
C5053 C5054 1.397 . S
C5053 C5058 1.363 . S
C5054 H5031 0.950 . S
C5054 C5053 1.397 . S
C5054 C5055 1.334 . S
C5055 H5032 0.950 . S
C5055 C5054 1.334 . S
C5055 C5056 1.287 . S
C5056 C5055 1.287 . S
C5056 C5057 1.524 . S
C5056 H5075 0.913 . S
C5057 H5033 0.950 . S
C5057 C5056 1.524 . S
C5057 C5058 1.415 . S
C5058 H5034 0.950 . S
C5058 C5053 1.363 . S
C5058 C5057 1.415 . S
C5059 H5035 0.951 . S
C5059 C5060 1.366 . S
C5059 C5061 1.388 . S
C5060 C5059 1.366 . S
C5060 C5064 1.385 . S
C5061 H5036 0.951 . S
C5061 C5059 1.388 . S
C5061 C5062 1.366 . S
C5062 C5061 1.366 . S
C5062 C5063 1.414 . S
C5062 C5065 1.499 . S
C5063 H5037 0.950 . S
C5063 C5062 1.414 . S
C5063 C5064 1.374 . S
C5064 H5038 0.950 . S
C5064 C5060 1.385 . S
C5064 C5063 1.374 . S
C5065 C5062 1.499 . S
C5065 C5066 1.373 . S
C5065 C5067 1.389 . S
C5066 H5039 0.950 . S
C5066 C5052 1.377 . S
C5066 C5065 1.373 . S
C5067 C5051 1.377 . S
C5067 C5065 1.389 . S
C5067 C5068 1.524 . S
C5068 C5067 1.524 . S
C5068 C5069 1.397 . S
C5068 C5073 1.363 . S
C5069 H5040 0.950 . S
C5069 C5068 1.397 . S
C5069 C5070 1.334 . S
C5070 H5041 0.950 . S
C5070 C5069 1.334 . S
C5070 C5071 1.287 . S
C5071 C5070 1.287 . S
C5071 C5072 1.524 . S
C5071 H5074 0.999 . S
C5072 H5042 0.950 . S
C5072 C5071 1.524 . S
C5072 C5073 1.415 . S
C5073 H5043 0.950 . S
C5073 C5068 1.363 . S
C5073 C5072 1.415 . S
H5074 C5071 0.999 . S
H5075 C5056 0.913 . S
H5076 C5094 0.951 . S
H5077 C5096 0.951 . S
H5078 C5098 0.950 . S
H5079 C5099 0.950 . S
H5080 C5101 0.950 . S
H5081 C5104 0.950 . S
H5082 C5105 0.950 . S
H5083 C5107 0.950 . S
H5084 C5108 0.950 . S
H5085 C5109 0.951 . S
H5086 C5111 0.961 . S
H5087 C5113 0.950 . S
H5088 C5114 0.950 . S
H5089 C5116 0.950 . S
H5090 C5119 0.950 . S
H5091 C5120 0.950 . S
H5092 C5122 0.950 . S
H5093 C5123 0.950 . S
C5094 H5076 0.951 . S
C5094 C5095 1.366 . S
C5094 C5096 1.388 . S
C5095 C5094 1.366 . S
C5095 C5099 1.385 . S
C5096 H5077 0.951 . S
C5096 C5094 1.388 . S
C5096 C5097 1.366 . S
C5097 C5096 1.366 . S
C5097 C5098 1.414 . S
C5097 C5100 1.499 . S
C5098 H5078 0.950 . S
C5098 C5097 1.414 . S
C5098 C5099 1.374 . S
C5099 H5079 0.950 . S
C5099 C5095 1.385 . S
C5099 C5098 1.374 . S
C5100 C5097 1.499 . S
C5100 C5101 1.373 . S
C5100 C5102 1.389 . S
C5101 H5080 0.950 . S
C5101 C5100 1.373 . S
C5101 C5117 1.377 . S
C5102 C5100 1.389 . S
C5102 C5103 1.524 . S
C5102 C5116 1.377 . S
C5103 C5102 1.524 . S
C5103 C5104 1.397 . S
C5103 C5108 1.363 . S
C5104 H5081 0.950 . S
C5104 C5103 1.397 . S
C5104 C5105 1.334 . S
C5105 H5082 0.950 . S
C5105 C5104 1.334 . S
C5105 C5106 1.287 . S
C5106 C5105 1.287 . S
C5106 C5107 1.524 . S
C5106 H5125 0.913 . S
C5107 H5083 0.950 . S
C5107 C5106 1.524 . S
C5107 C5108 1.415 . S
C5108 H5084 0.950 . S
C5108 C5103 1.363 . S
C5108 C5107 1.415 . S
C5109 H5085 0.951 . S
C5109 C5110 1.366 . S
C5109 C5111 1.394 . S
C5110 C5109 1.366 . S
C5110 C5114 1.385 1_455 S
C5111 H5086 0.961 . S
C5111 C5109 1.394 . S
C5111 C5112 1.350 1_455 S
C5112 C5111 1.350 1_655 S
C5112 C5113 1.414 . S
C5112 C5115 1.499 . S
C5113 H5087 0.950 . S
C5113 C5112 1.414 . S
C5113 C5114 1.374 . S
C5114 H5088 0.950 . S
C5114 C5110 1.385 1_655 S
C5114 C5113 1.374 . S
C5115 C5112 1.499 . S
C5115 C5116 1.373 . S
C5115 C5117 1.389 . S
C5116 H5089 0.950 . S
C5116 C5102 1.377 . S
C5116 C5115 1.373 . S
C5117 C5101 1.377 . S
C5117 C5115 1.389 . S
C5117 C5118 1.524 . S
C5118 C5117 1.524 . S
C5118 C5119 1.397 . S
C5118 C5123 1.363 . S
C5119 H5090 0.950 . S
C5119 C5118 1.397 . S
C5119 C5120 1.334 . S
C5120 H5091 0.950 . S
C5120 C5119 1.334 . S
C5120 C5121 1.287 . S
C5121 C5120 1.287 . S
C5121 C5122 1.524 . S
C5121 H5124 0.999 . S
C5122 H5092 0.950 . S
C5122 C5121 1.524 . S
C5122 C5123 1.415 . S
C5123 H5093 0.950 . S
C5123 C5118 1.363 . S
C5123 C5122 1.415 . S
H5124 C5121 0.999 . S
H5125 C5106 0.913 . S
H5126 C5144 0.951 . S
H5127 C5146 0.951 . S
H5128 C5148 0.950 . S
H5129 C5149 0.950 . S
H5130 C5151 0.950 . S
H5131 C5154 0.950 . S
H5132 C5155 0.950 . S
H5133 C5157 0.950 . S
H5134 C5158 0.950 . S
H5135 C5159 0.951 . S
H5136 C5161 0.951 . S
H5137 C5163 0.950 . S
H5138 C5164 0.950 . S
H5139 C5166 0.950 . S
H5140 C5169 0.950 . S
H5141 C5170 0.950 . S
H5142 C5172 0.950 . S
H5143 C5173 0.950 . S
C5144 H5126 0.951 . S
C5144 C5145 1.366 . S
C5144 C5146 1.388 . S
C5145 C5144 1.366 . S
C5145 C5149 1.385 . S
C5146 H5127 0.951 . S
C5146 C5144 1.388 . S
C5146 C5147 1.366 . S
C5147 C5146 1.366 . S
C5147 C5148 1.414 . S
C5147 C5150 1.499 . S
C5148 H5128 0.950 . S
C5148 C5147 1.414 . S
C5148 C5149 1.374 . S
C5149 H5129 0.950 . S
C5149 C5145 1.385 . S
C5149 C5148 1.374 . S
C5150 C5147 1.499 . S
C5150 C5151 1.373 . S
C5150 C5152 1.389 . S
C5151 H5130 0.950 . S
C5151 C5150 1.373 . S
C5151 C5167 1.377 . S
C5152 C5150 1.389 . S
C5152 C5153 1.524 . S
C5152 C5166 1.377 . S
C5153 C5152 1.524 . S
C5153 C5154 1.397 . S
C5153 C5158 1.363 . S
C5154 H5131 0.950 . S
C5154 C5153 1.397 . S
C5154 C5155 1.334 . S
C5155 H5132 0.950 . S
C5155 C5154 1.334 . S
C5155 C5156 1.287 . S
C5156 C5155 1.287 . S
C5156 C5157 1.524 . S
C5156 H5175 0.913 . S
C5157 H5133 0.950 . S
C5157 C5156 1.524 . S
C5157 C5158 1.415 . S
C5158 H5134 0.950 . S
C5158 C5153 1.363 . S
C5158 C5157 1.415 . S
C5159 H5135 0.951 . S
C5159 C5160 1.366 . S
C5159 C5161 1.388 . S
C5160 C5159 1.366 . S
C5160 C5164 1.385 . S
C5161 H5136 0.951 . S
C5161 C5159 1.388 . S
C5161 C5162 1.366 . S
C5162 C5161 1.366 . S
C5162 C5163 1.414 . S
C5162 C5165 1.499 . S
C5163 H5137 0.950 . S
C5163 C5162 1.414 . S
C5163 C5164 1.374 . S
C5164 H5138 0.950 . S
C5164 C5160 1.385 . S
C5164 C5163 1.374 . S
C5165 C5162 1.499 . S
C5165 C5166 1.373 . S
C5165 C5167 1.389 . S
C5166 H5139 0.950 . S
C5166 C5152 1.377 . S
C5166 C5165 1.373 . S
C5167 C5151 1.377 . S
C5167 C5165 1.389 . S
C5167 C5168 1.524 . S
C5168 C5167 1.524 . S
C5168 C5169 1.397 . S
C5168 C5173 1.363 . S
C5169 H5140 0.950 . S
C5169 C5168 1.397 . S
C5169 C5170 1.334 . S
C5170 H5141 0.950 . S
C5170 C5169 1.334 . S
C5170 C5171 1.287 . S
C5171 C5170 1.287 . S
C5171 C5172 1.524 . S
C5171 H5174 0.999 . S
C5172 H5142 0.950 . S
C5172 C5171 1.524 . S
C5172 C5173 1.415 . S
C5173 H5143 0.950 . S
C5173 C5168 1.363 . S
C5173 C5172 1.415 . S
H5174 C5171 0.999 . S
H5175 C5156 0.913 . S
H5176 C5194 0.951 . S
H5177 C5196 0.951 . S
H5178 C5198 0.950 . S
H5179 C5199 0.950 . S
H5180 C5201 0.950 . S
H5181 C5204 0.950 . S
H5182 C5205 0.950 . S
H5183 C5207 0.950 . S
H5184 C5208 0.950 . S
H5185 C5209 0.951 . S
H5186 C5211 0.951 . S
H5187 C5213 0.950 . S
H5188 C5214 0.950 . S
H5189 C5216 0.950 . S
H5190 C5219 0.950 . S
H5191 C5220 0.950 . S
H5192 C5222 0.950 . S
H5193 C5223 0.950 . S
C5194 H5176 0.951 . S
C5194 C5195 1.366 . S
C5194 C5196 1.388 . S
C5195 C5194 1.366 . S
C5195 C5199 1.385 . S
C5196 H5177 0.951 . S
C5196 C5194 1.388 . S
C5196 C5197 1.366 . S
C5197 C5196 1.366 . S
C5197 C5198 1.414 . S
C5197 C5200 1.499 . S
C5198 H5178 0.950 . S
C5198 C5197 1.414 . S
C5198 C5199 1.374 . S
C5199 H5179 0.950 . S
C5199 C5195 1.385 . S
C5199 C5198 1.374 . S
C5200 C5197 1.499 . S
C5200 C5201 1.373 . S
C5200 C5202 1.389 . S
C5201 H5180 0.950 . S
C5201 C5200 1.373 . S
C5201 C5217 1.377 . S
C5202 C5200 1.389 . S
C5202 C5203 1.524 . S
C5202 C5216 1.377 . S
C5203 C5202 1.524 . S
C5203 C5204 1.397 . S
C5203 C5208 1.363 . S
C5204 H5181 0.950 . S
C5204 C5203 1.397 . S
C5204 C5205 1.334 . S
C5205 H5182 0.950 . S
C5205 C5204 1.334 . S
C5205 C5206 1.287 . S
C5206 C5205 1.287 . S
C5206 C5207 1.524 . S
C5206 H5225 0.913 . S
C5207 H5183 0.950 . S
C5207 C5206 1.524 . S
C5207 C5208 1.415 . S
C5208 H5184 0.950 . S
C5208 C5203 1.363 . S
C5208 C5207 1.415 . S
C5209 H5185 0.951 . S
C5209 C5210 1.366 . S
C5209 C5211 1.388 . S
C5210 C5209 1.366 . S
C5210 C5214 1.385 . S
C5211 H5186 0.951 . S
C5211 C5209 1.388 . S
C5211 C5212 1.366 . S
C5212 C5211 1.366 . S
C5212 C5213 1.414 . S
C5212 C5215 1.499 . S
C5213 H5187 0.950 . S
C5213 C5212 1.414 . S
C5213 C5214 1.374 . S
C5214 H5188 0.950 . S
C5214 C5210 1.385 . S
C5214 C5213 1.374 . S
C5215 C5212 1.499 . S
C5215 C5216 1.373 . S
C5215 C5217 1.389 . S
C5216 H5189 0.950 . S
C5216 C5202 1.377 . S
C5216 C5215 1.373 . S
C5217 C5201 1.377 . S
C5217 C5215 1.389 . S
C5217 C5218 1.524 . S
C5218 C5217 1.524 . S
C5218 C5219 1.397 . S
C5218 C5223 1.363 . S
C5219 H5190 0.950 . S
C5219 C5218 1.397 . S
C5219 C5220 1.334 . S
C5220 H5191 0.950 . S
C5220 C5219 1.334 . S
C5220 C5221 1.287 . S
C5221 C5220 1.287 . S
C5221 C5222 1.524 . S
C5221 H5224 0.999 . S
C5222 H5192 0.950 . S
C5222 C5221 1.524 . S
C5222 C5223 1.415 . S
C5223 H5193 0.950 . S
C5223 C5218 1.363 . S
C5223 C5222 1.415 . S
H5224 C5221 0.999 . S
H5225 C5206 0.913 . S
H5226 C5244 0.951 . S
H5227 C5246 0.951 . S
H5228 C5248 0.950 . S
H5229 C5249 0.950 . S
H5230 C5251 0.950 . S
H5231 C5254 0.950 . S
H5232 C5255 0.950 . S
H5233 C5257 0.950 . S
H5234 C5258 0.950 . S
H5235 C5259 0.951 . S
H5236 C5261 0.951 . S
H5237 C5263 0.950 . S
H5238 C5264 0.950 . S
H5239 C5266 0.950 . S
H5240 C5269 0.950 . S
H5241 C5270 0.950 . S
H5242 C5272 0.950 . S
H5243 C5273 0.950 . S
C5244 H5226 0.951 . S
C5244 C5245 1.366 . S
C5244 C5246 1.388 . S
C5245 C5244 1.366 . S
C5245 C5249 1.385 . S
C5246 H5227 0.951 . S
C5246 C5244 1.388 . S
C5246 C5247 1.366 . S
C5247 C5246 1.366 . S
C5247 C5248 1.414 . S
C5247 C5250 1.499 . S
C5248 H5228 0.950 . S
C5248 C5247 1.414 . S
C5248 C5249 1.374 . S
C5249 H5229 0.950 . S
C5249 C5245 1.385 . S
C5249 C5248 1.374 . S
C5250 C5247 1.499 . S
C5250 C5251 1.373 . S
C5250 C5252 1.389 . S
C5251 H5230 0.950 . S
C5251 C5250 1.373 . S
C5251 C5267 1.377 . S
C5252 C5250 1.389 . S
C5252 C5253 1.524 . S
C5252 C5266 1.377 . S
C5253 C5252 1.524 . S
C5253 C5254 1.397 . S
C5253 C5258 1.363 . S
C5254 H5231 0.950 . S
C5254 C5253 1.397 . S
C5254 C5255 1.334 . S
C5255 H5232 0.950 . S
C5255 C5254 1.334 . S
C5255 C5256 1.287 . S
C5256 C5255 1.287 . S
C5256 C5257 1.524 . S
C5256 H5275 0.913 . S
C5257 H5233 0.950 . S
C5257 C5256 1.524 . S
C5257 C5258 1.415 . S
C5258 H5234 0.950 . S
C5258 C5253 1.363 . S
C5258 C5257 1.415 . S
C5259 H5235 0.951 . S
C5259 C5260 1.366 . S
C5259 C5261 1.388 . S
C5260 C5259 1.366 . S
C5260 C5264 1.385 . S
C5261 H5236 0.951 . S
C5261 C5259 1.388 . S
C5261 C5262 1.366 . S
C5262 C5261 1.366 . S
C5262 C5263 1.414 . S
C5262 C5265 1.499 . S
C5263 H5237 0.950 . S
C5263 C5262 1.414 . S
C5263 C5264 1.374 . S
C5264 H5238 0.950 . S
C5264 C5260 1.385 . S
C5264 C5263 1.374 . S
C5265 C5262 1.499 . S
C5265 C5266 1.373 . S
C5265 C5267 1.389 . S
C5266 H5239 0.950 . S
C5266 C5252 1.377 . S
C5266 C5265 1.373 . S
C5267 C5251 1.377 . S
C5267 C5265 1.389 . S
C5267 C5268 1.524 . S
C5268 C5267 1.524 . S
C5268 C5269 1.397 . S
C5268 C5273 1.363 . S
C5269 H5240 0.950 . S
C5269 C5268 1.397 . S
C5269 C5270 1.334 . S
C5270 H5241 0.950 . S
C5270 C5269 1.334 . S
C5270 C5271 1.287 . S
C5271 C5270 1.287 . S
C5271 C5272 1.524 . S
C5271 H5274 0.999 . S
C5272 H5242 0.950 . S
C5272 C5271 1.524 . S
C5272 C5273 1.415 . S
C5273 H5243 0.950 . S
C5273 C5268 1.363 . S
C5273 C5272 1.415 . S
H5274 C5271 0.999 . S
H5275 C5256 0.913 . S
H5276 C5294 0.951 . S
H5277 C5296 0.951 . S
H5278 C5298 0.950 . S
H5279 C5299 0.950 . S
H5280 C5301 0.950 . S
H5281 C5304 0.950 . S
H5282 C5305 0.950 . S
H5283 C5307 0.950 1_455 S
H5284 C5308 0.950 . S
H5285 C5309 0.951 . S
H5286 C5311 0.951 . S
H5287 C5313 0.950 . S
H5288 C5314 0.950 . S
H5289 C5316 0.950 . S
H5290 C5319 0.950 . S
H5291 C5320 0.950 . S
H5292 C5322 0.950 . S
H5293 C5323 0.950 . S
C5294 H5276 0.951 . S
C5294 C5295 1.366 . S
C5294 C5296 1.388 . S
C5295 C5294 1.366 . S
C5295 C5299 1.385 . S
C5296 H5277 0.951 . S
C5296 C5294 1.388 . S
C5296 C5297 1.366 . S
C5297 C5296 1.366 . S
C5297 C5298 1.414 . S
C5297 C5300 1.499 . S
C5298 H5278 0.950 . S
C5298 C5297 1.414 . S
C5298 C5299 1.374 . S
C5299 H5279 0.950 . S
C5299 C5295 1.385 . S
C5299 C5298 1.374 . S
C5300 C5297 1.499 . S
C5300 C5301 1.373 . S
C5300 C5302 1.389 . S
C5301 H5280 0.950 . S
C5301 C5300 1.373 . S
C5301 C5317 1.377 . S
C5302 C5300 1.389 . S
C5302 C5303 1.524 . S
C5302 C5316 1.377 . S
C5303 C5302 1.524 . S
C5303 C5304 1.397 . S
C5303 C5308 1.363 . S
C5304 H5281 0.950 . S
C5304 C5303 1.397 . S
C5304 C5305 1.334 . S
C5305 H5282 0.950 . S
C5305 C5304 1.334 . S
C5305 C5306 1.287 . S
C5306 C5305 1.287 . S
C5306 C5307 1.524 . S
C5306 H5325 0.913 . S
C5307 H5283 0.950 1_655 S
C5307 C5306 1.524 . S
C5307 C5308 1.415 . S
C5308 H5284 0.950 . S
C5308 C5303 1.363 . S
C5308 C5307 1.415 . S
C5309 H5285 0.951 . S
C5309 C5310 1.366 1_655 S
C5309 C5311 1.388 . S
C5310 C5309 1.366 1_455 S
C5310 C5314 1.385 . S
C5311 H5286 0.951 . S
C5311 C5309 1.388 . S
C5311 C5312 1.366 . S
C5312 C5311 1.366 . S
C5312 C5313 1.414 1_655 S
C5312 C5315 1.499 . S
C5313 H5287 0.950 . S
C5313 C5312 1.414 1_455 S
C5313 C5314 1.374 . S
C5314 H5288 0.950 . S
C5314 C5310 1.385 . S
C5314 C5313 1.374 . S
C5315 C5312 1.499 . S
C5315 C5316 1.373 . S
C5315 C5317 1.389 . S
C5316 H5289 0.950 . S
C5316 C5302 1.377 . S
C5316 C5315 1.373 . S
C5317 C5301 1.377 . S
C5317 C5315 1.389 . S
C5317 C5318 1.524 . S
C5318 C5317 1.524 . S
C5318 C5319 1.397 . S
C5318 C5323 1.363 . S
C5319 H5290 0.950 . S
C5319 C5318 1.397 . S
C5319 C5320 1.334 . S
C5320 H5291 0.950 . S
C5320 C5319 1.334 . S
C5320 C5321 1.287 . S
C5321 C5320 1.287 . S
C5321 C5322 1.524 . S
C5321 H5324 0.999 . S
C5322 H5292 0.950 . S
C5322 C5321 1.524 . S
C5322 C5323 1.415 . S
C5323 H5293 0.950 . S
C5323 C5318 1.363 . S
C5323 C5322 1.415 . S
H5324 C5321 0.999 . S
H5325 C5306 0.913 . S
H5326 C5344 0.951 . S
H5327 C5346 0.951 . S
H5328 C5348 0.950 . S
H5329 C5349 0.950 . S
H5330 C5351 0.950 . S
H5331 C5354 0.950 . S
H5332 C5355 0.950 . S
H5333 C5357 0.950 . S
H5334 C5358 0.950 . S
H5335 C5359 0.951 . S
H5336 C5361 0.951 . S
H5337 C5363 0.950 . S
H5338 C5364 0.950 . S
H5339 C5366 0.950 . S
H5340 C5369 0.950 . S
H5341 C5370 0.950 . S
H5342 C5372 0.950 . S
H5343 C5373 0.950 . S
C5344 H5326 0.951 . S
C5344 C5345 1.366 . S
C5344 C5346 1.388 . S
C5345 C5344 1.366 . S
C5345 C5349 1.385 . S
C5346 H5327 0.951 . S
C5346 C5344 1.388 . S
C5346 C5347 1.366 . S
C5347 C5346 1.366 . S
C5347 C5348 1.414 . S
C5347 C5350 1.499 . S
C5348 H5328 0.950 . S
C5348 C5347 1.414 . S
C5348 C5349 1.374 . S
C5349 H5329 0.950 . S
C5349 C5345 1.385 . S
C5349 C5348 1.374 . S
C5350 C5347 1.499 . S
C5350 C5351 1.373 . S
C5350 C5352 1.389 . S
C5351 H5330 0.950 . S
C5351 C5350 1.373 . S
C5351 C5367 1.377 . S
C5352 C5350 1.389 . S
C5352 C5353 1.524 . S
C5352 C5366 1.377 . S
C5353 C5352 1.524 . S
C5353 C5354 1.397 . S
C5353 C5358 1.363 . S
C5354 H5331 0.950 . S
C5354 C5353 1.397 . S
C5354 C5355 1.334 . S
C5355 H5332 0.950 . S
C5355 C5354 1.334 . S
C5355 C5356 1.287 . S
C5356 C5355 1.287 . S
C5356 C5357 1.524 . S
C5356 H5375 0.913 . S
C5357 H5333 0.950 . S
C5357 C5356 1.524 . S
C5357 C5358 1.415 . S
C5358 H5334 0.950 . S
C5358 C5353 1.363 . S
C5358 C5357 1.415 . S
C5359 H5335 0.951 . S
C5359 C5360 1.366 . S
C5359 C5361 1.388 . S
C5360 C5359 1.366 . S
C5360 C5364 1.385 . S
C5361 H5336 0.951 . S
C5361 C5359 1.388 . S
C5361 C5362 1.366 . S
C5362 C5361 1.366 . S
C5362 C5363 1.414 . S
C5362 C5365 1.499 . S
C5363 H5337 0.950 . S
C5363 C5362 1.414 . S
C5363 C5364 1.374 . S
C5364 H5338 0.950 . S
C5364 C5360 1.385 . S
C5364 C5363 1.374 . S
C5365 C5362 1.499 . S
C5365 C5366 1.373 . S
C5365 C5367 1.389 . S
C5366 H5339 0.950 . S
C5366 C5352 1.377 . S
C5366 C5365 1.373 . S
C5367 C5351 1.377 . S
C5367 C5365 1.389 . S
C5367 C5368 1.524 . S
C5368 C5367 1.524 . S
C5368 C5369 1.397 . S
C5368 C5373 1.363 . S
C5369 H5340 0.950 . S
C5369 C5368 1.397 . S
C5369 C5370 1.334 . S
C5370 H5341 0.950 . S
C5370 C5369 1.334 . S
C5370 C5371 1.287 . S
C5371 C5370 1.287 . S
C5371 C5372 1.524 . S
C5371 H5374 0.999 . S
C5372 H5342 0.950 . S
C5372 C5371 1.524 . S
C5372 C5373 1.415 . S
C5373 H5343 0.950 . S
C5373 C5368 1.363 . S
C5373 C5372 1.415 . S
H5374 C5371 0.999 . S
H5375 C5356 0.913 . S
H5376 C5394 0.951 . S
H5377 C5396 0.951 . S
H5378 C5398 0.950 . S
H5379 C5399 0.950 . S
H5380 C5401 0.950 . S
H5381 C5404 0.950 . S
H5382 C5405 0.950 . S
H5383 C5407 0.950 . S
H5384 C5408 0.950 . S
H5385 C5409 0.951 . S
H5386 C5411 0.951 . S
H5387 C5413 0.950 . S
H5388 C5414 0.950 . S
H5389 C5416 0.950 . S
H5390 C5419 0.950 . S
H5391 C5420 0.950 . S
H5392 C5422 0.950 . S
H5393 C5423 0.950 . S
C5394 H5376 0.951 . S
C5394 C5395 1.366 . S
C5394 C5396 1.388 . S
C5395 C5394 1.366 . S
C5395 C5399 1.385 . S
C5396 H5377 0.951 . S
C5396 C5394 1.388 . S
C5396 C5397 1.366 . S
C5397 C5396 1.366 . S
C5397 C5398 1.414 . S
C5397 C5400 1.499 . S
C5398 H5378 0.950 . S
C5398 C5397 1.414 . S
C5398 C5399 1.374 . S
C5399 H5379 0.950 . S
C5399 C5395 1.385 . S
C5399 C5398 1.374 . S
C5400 C5397 1.499 . S
C5400 C5401 1.373 . S
C5400 C5402 1.389 . S
C5401 H5380 0.950 . S
C5401 C5400 1.373 . S
C5401 C5417 1.377 . S
C5402 C5400 1.389 . S
C5402 C5403 1.524 . S
C5402 C5416 1.377 . S
C5403 C5402 1.524 . S
C5403 C5404 1.397 . S
C5403 C5408 1.363 . S
C5404 H5381 0.950 . S
C5404 C5403 1.397 . S
C5404 C5405 1.334 . S
C5405 H5382 0.950 . S
C5405 C5404 1.334 . S
C5405 C5406 1.287 . S
C5406 C5405 1.287 . S
C5406 C5407 1.524 . S
C5406 H5425 0.913 . S
C5407 H5383 0.950 . S
C5407 C5406 1.524 . S
C5407 C5408 1.415 . S
C5408 H5384 0.950 . S
C5408 C5403 1.363 . S
C5408 C5407 1.415 . S
C5409 H5385 0.951 . S
C5409 C5410 1.366 . S
C5409 C5411 1.388 . S
C5410 C5409 1.366 . S
C5410 C5414 1.385 . S
C5411 H5386 0.951 . S
C5411 C5409 1.388 . S
C5411 C5412 1.366 . S
C5412 C5411 1.366 . S
C5412 C5413 1.414 . S
C5412 C5415 1.499 . S
C5413 H5387 0.950 . S
C5413 C5412 1.414 . S
C5413 C5414 1.374 . S
C5414 H5388 0.950 . S
C5414 C5410 1.385 . S
C5414 C5413 1.374 . S
C5415 C5412 1.499 . S
C5415 C5416 1.373 . S
C5415 C5417 1.389 . S
C5416 H5389 0.950 . S
C5416 C5402 1.377 . S
C5416 C5415 1.373 . S
C5417 C5401 1.377 . S
C5417 C5415 1.389 . S
C5417 C5418 1.524 . S
C5418 C5417 1.524 . S
C5418 C5419 1.397 . S
C5418 C5423 1.363 . S
C5419 H5390 0.950 . S
C5419 C5418 1.397 . S
C5419 C5420 1.334 . S
C5420 H5391 0.950 . S
C5420 C5419 1.334 . S
C5420 C5421 1.287 . S
C5421 C5420 1.287 . S
C5421 C5422 1.524 . S
C5421 H5424 0.999 . S
C5422 H5392 0.950 . S
C5422 C5421 1.524 . S
C5422 C5423 1.415 . S
C5423 H5393 0.950 . S
C5423 C5418 1.363 . S
C5423 C5422 1.415 . S
H5424 C5421 0.999 . S
H5425 C5406 0.913 . S
H5426 C5444 0.951 . S
H5427 C5446 0.951 . S
H5428 C5448 0.950 . S
H5429 C5449 0.950 . S
H5430 C5451 0.950 . S
H5431 C5454 0.950 . S
H5432 C5455 0.950 . S
H5433 C5457 0.950 . S
H5434 C5458 0.950 . S
H5435 C5459 0.951 . S
H5436 C5461 0.951 . S
H5437 C5463 0.950 . S
H5438 C5464 0.950 1_545 S
H5439 C5466 0.950 . S
H5440 C5469 0.950 . S
H5441 C5470 0.950 . S
H5442 C5472 0.950 . S
H5443 C5473 0.950 . S
C5444 H5426 0.951 . S
C5444 C5445 1.366 . S
C5444 C5446 1.388 . S
C5445 C5444 1.366 . S
C5445 C5449 1.385 . S
C5446 H5427 0.951 . S
C5446 C5444 1.388 . S
C5446 C5447 1.366 . S
C5447 C5446 1.366 . S
C5447 C5448 1.414 . S
C5447 C5450 1.499 . S
C5448 H5428 0.950 . S
C5448 C5447 1.414 . S
C5448 C5449 1.374 . S
C5449 H5429 0.950 . S
C5449 C5445 1.385 . S
C5449 C5448 1.374 . S
C5450 C5447 1.499 . S
C5450 C5451 1.373 . S
C5450 C5452 1.389 . S
C5451 H5430 0.950 . S
C5451 C5450 1.373 . S
C5451 C5467 1.377 . S
C5452 C5450 1.389 . S
C5452 C5453 1.524 . S
C5452 C5466 1.377 . S
C5453 C5452 1.524 . S
C5453 C5454 1.397 . S
C5453 C5458 1.363 . S
C5454 H5431 0.950 . S
C5454 C5453 1.397 . S
C5454 C5455 1.334 . S
C5455 H5432 0.950 . S
C5455 C5454 1.334 . S
C5455 C5456 1.287 . S
C5456 C5455 1.287 . S
C5456 C5457 1.524 . S
C5456 H5475 0.913 . S
C5457 H5433 0.950 . S
C5457 C5456 1.524 . S
C5457 C5458 1.415 . S
C5458 H5434 0.950 . S
C5458 C5453 1.363 . S
C5458 C5457 1.415 . S
C5459 H5435 0.951 . S
C5459 C5460 1.366 . S
C5459 C5461 1.388 . S
C5460 C5459 1.366 . S
C5460 C5464 1.385 . S
C5461 H5436 0.951 . S
C5461 C5459 1.388 . S
C5461 C5462 1.366 . S
C5462 C5461 1.366 . S
C5462 C5463 1.414 . S
C5462 C5465 1.499 . S
C5463 H5437 0.950 . S
C5463 C5462 1.414 . S
C5463 C5464 1.374 . S
C5464 H5438 0.950 1_565 S
C5464 C5460 1.385 . S
C5464 C5463 1.374 . S
C5465 C5462 1.499 . S
C5465 C5466 1.373 . S
C5465 C5467 1.389 . S
C5466 H5439 0.950 . S
C5466 C5452 1.377 . S
C5466 C5465 1.373 . S
C5467 C5451 1.377 . S
C5467 C5465 1.389 . S
C5467 C5468 1.524 . S
C5468 C5467 1.524 . S
C5468 C5469 1.397 . S
C5468 C5473 1.363 . S
C5469 H5440 0.950 . S
C5469 C5468 1.397 . S
C5469 C5470 1.334 . S
C5470 H5441 0.950 . S
C5470 C5469 1.334 . S
C5470 C5471 1.287 . S
C5471 C5470 1.287 . S
C5471 C5472 1.524 . S
C5471 H5474 0.999 . S
C5472 H5442 0.950 . S
C5472 C5471 1.524 . S
C5472 C5473 1.415 . S
C5473 H5443 0.950 . S
C5473 C5468 1.363 . S
C5473 C5472 1.415 . S
H5474 C5471 0.999 . S
H5475 C5456 0.913 . S
H5476 C5494 0.951 . S
H5477 C5496 0.951 . S
H5478 C5498 0.950 . S
H5479 C5499 0.950 . S
H5480 C5501 0.950 . S
H5481 C5504 0.950 . S
H5482 C5505 0.950 . S
H5483 C5507 0.950 . S
H5484 C5508 0.950 . S
H5485 C5509 0.951 . S
H5486 C5511 0.951 . S
H5487 C5513 0.950 . S
H5488 C5514 0.950 . S
H5489 C5516 0.950 . S
H5490 C5519 0.950 . S
H5491 C5520 0.950 . S
H5492 C5522 0.950 . S
H5493 C5523 0.950 . S
C5494 H5476 0.951 . S
C5494 C5495 1.366 . S
C5494 C5496 1.388 . S
C5495 C5494 1.366 . S
C5495 C5499 1.385 . S
C5496 H5477 0.951 . S
C5496 C5494 1.388 . S
C5496 C5497 1.366 . S
C5497 C5496 1.366 . S
C5497 C5498 1.414 . S
C5497 C5500 1.499 . S
C5498 H5478 0.950 . S
C5498 C5497 1.414 . S
C5498 C5499 1.374 . S
C5499 H5479 0.950 . S
C5499 C5495 1.385 . S
C5499 C5498 1.374 . S
C5500 C5497 1.499 . S
C5500 C5501 1.373 . S
C5500 C5502 1.389 . S
C5501 H5480 0.950 . S
C5501 C5500 1.373 . S
C5501 C5517 1.377 . S
C5502 C5500 1.389 . S
C5502 C5503 1.524 . S
C5502 C5516 1.377 . S
C5503 C5502 1.524 . S
C5503 C5504 1.397 . S
C5503 C5508 1.363 . S
C5504 H5481 0.950 . S
C5504 C5503 1.397 . S
C5504 C5505 1.334 . S
C5505 H5482 0.950 . S
C5505 C5504 1.334 . S
C5505 C5506 1.287 . S
C5506 C5505 1.287 . S
C5506 C5507 1.524 . S
C5506 H5525 0.913 . S
C5507 H5483 0.950 . S
C5507 C5506 1.524 . S
C5507 C5508 1.415 . S
C5508 H5484 0.950 . S
C5508 C5503 1.363 . S
C5508 C5507 1.415 . S
C5509 H5485 0.951 . S
C5509 C5510 1.366 . S
C5509 C5511 1.388 . S
C5510 C5509 1.366 . S
C5510 C5514 1.385 . S
C5511 H5486 0.951 . S
C5511 C5509 1.388 . S
C5511 C5512 1.366 . S
C5512 C5511 1.366 . S
C5512 C5513 1.414 . S
C5512 C5515 1.499 . S
C5513 H5487 0.950 . S
C5513 C5512 1.414 . S
C5513 C5514 1.374 . S
C5514 H5488 0.950 . S
C5514 C5510 1.385 . S
C5514 C5513 1.374 . S
C5515 C5512 1.499 . S
C5515 C5516 1.373 . S
C5515 C5517 1.389 . S
C5516 H5489 0.950 . S
C5516 C5502 1.377 . S
C5516 C5515 1.373 . S
C5517 C5501 1.377 . S
C5517 C5515 1.389 . S
C5517 C5518 1.524 . S
C5518 C5517 1.524 . S
C5518 C5519 1.397 . S
C5518 C5523 1.363 . S
C5519 H5490 0.950 . S
C5519 C5518 1.397 . S
C5519 C5520 1.334 . S
C5520 H5491 0.950 . S
C5520 C5519 1.334 . S
C5520 C5521 1.287 . S
C5521 C5520 1.287 . S
C5521 C5522 1.524 . S
C5521 H5524 0.999 . S
C5522 H5492 0.950 . S
C5522 C5521 1.524 . S
C5522 C5523 1.415 . S
C5523 H5493 0.950 . S
C5523 C5518 1.363 . S
C5523 C5522 1.415 . S
H5524 C5521 0.999 . S
H5525 C5506 0.913 . S
H5526 C5544 0.951 . S
H5527 C5546 0.951 . S
H5528 C5548 0.950 . S
H5529 C5549 0.950 . S
H5530 C5551 0.950 . S
H5531 C5554 0.950 . S
H5532 C5555 0.950 1_556 S
H5533 C5557 0.950 . S
H5534 C5558 0.950 . S
H5535 C5559 0.951 . S
H5536 C5561 0.951 . S
H5537 C5563 0.950 . S
H5538 C5564 0.950 . S
H5539 C5566 0.950 . S
H5540 C5569 0.950 . S
H5541 C5570 0.950 . S
H5542 C5572 0.950 . S
H5543 C5573 0.950 . S
C5544 H5526 0.951 . S
C5544 C5545 1.366 . S
C5544 C5546 1.388 . S
C5545 C5544 1.366 . S
C5545 C5549 1.385 . S
C5546 H5527 0.951 . S
C5546 C5544 1.388 . S
C5546 C5547 1.366 . S
C5547 C5546 1.366 . S
C5547 C5548 1.414 . S
C5547 C5550 1.499 . S
C5548 H5528 0.950 . S
C5548 C5547 1.414 . S
C5548 C5549 1.374 . S
C5549 H5529 0.950 . S
C5549 C5545 1.385 . S
C5549 C5548 1.374 . S
C5550 C5547 1.499 . S
C5550 C5551 1.373 . S
C5550 C5552 1.389 . S
C5551 H5530 0.950 . S
C5551 C5550 1.373 . S
C5551 C5567 1.377 . S
C5552 C5550 1.389 . S
C5552 C5553 1.524 . S
C5552 C5566 1.377 . S
C5553 C5552 1.524 . S
C5553 C5554 1.397 . S
C5553 C5558 1.363 . S
C5554 H5531 0.950 . S
C5554 C5553 1.397 . S
C5554 C5555 1.334 . S
C5555 H5532 0.950 1_554 S
C5555 C5554 1.334 . S
C5555 C5556 1.287 . S
C5556 C5555 1.287 . S
C5556 C5557 1.524 . S
C5556 H5575 0.913 . S
C5557 H5533 0.950 . S
C5557 C5556 1.524 . S
C5557 C5558 1.415 . S
C5558 H5534 0.950 . S
C5558 C5553 1.363 . S
C5558 C5557 1.415 . S
C5559 H5535 0.951 . S
C5559 C5560 1.366 . S
C5559 C5561 1.388 . S
C5560 C5559 1.366 . S
C5560 C5564 1.385 . S
C5561 H5536 0.951 . S
C5561 C5559 1.388 . S
C5561 C5562 1.366 . S
C5562 C5561 1.366 . S
C5562 C5563 1.414 . S
C5562 C5565 1.499 . S
C5563 H5537 0.950 . S
C5563 C5562 1.414 . S
C5563 C5564 1.374 . S
C5564 H5538 0.950 . S
C5564 C5560 1.385 . S
C5564 C5563 1.374 . S
C5565 C5562 1.499 . S
C5565 C5566 1.373 . S
C5565 C5567 1.389 . S
C5566 H5539 0.950 . S
C5566 C5552 1.377 . S
C5566 C5565 1.373 . S
C5567 C5551 1.377 . S
C5567 C5565 1.389 . S
C5567 C5568 1.524 . S
C5568 C5567 1.524 . S
C5568 C5569 1.397 . S
C5568 C5573 1.363 . S
C5569 H5540 0.950 . S
C5569 C5568 1.397 . S
C5569 C5570 1.334 . S
C5570 H5541 0.950 . S
C5570 C5569 1.334 . S
C5570 C5571 1.287 . S
C5571 C5570 1.287 . S
C5571 C5572 1.524 . S
C5571 H5574 0.999 . S
C5572 H5542 0.950 . S
C5572 C5571 1.524 . S
C5572 C5573 1.415 . S
C5573 H5543 0.950 . S
C5573 C5568 1.363 . S
C5573 C5572 1.415 . S
H5574 C5571 0.999 . S
H5575 C5556 0.913 . S
H5576 C5594 0.951 . S
H5577 C5596 0.951 . S
H5578 C5598 0.950 . S
H5579 C5599 0.950 . S
H5580 C5601 0.950 . S
H5581 C5604 0.950 . S
H5582 C5605 0.950 . S
H5583 C5607 0.950 . S
H5584 C5608 0.950 . S
H5585 C5609 0.951 . S
H5586 C5611 0.951 . S
H5587 C5613 0.950 . S
H5588 C5614 0.950 . S
H5589 C5616 0.950 . S
H5590 C5619 0.950 . S
H5591 C5620 0.950 . S
H5592 C5622 0.950 . S
H5593 C5623 0.950 . S
C5594 H5576 0.951 . S
C5594 C5595 1.366 . S
C5594 C5596 1.388 . S
C5595 C5594 1.366 . S
C5595 C5599 1.385 . S
C5596 H5577 0.951 . S
C5596 C5594 1.388 . S
C5596 C5597 1.366 . S
C5597 C5596 1.366 . S
C5597 C5598 1.414 . S
C5597 C5600 1.499 . S
C5598 H5578 0.950 . S
C5598 C5597 1.414 . S
C5598 C5599 1.374 . S
C5599 H5579 0.950 . S
C5599 C5595 1.385 . S
C5599 C5598 1.374 . S
C5600 C5597 1.499 . S
C5600 C5601 1.373 . S
C5600 C5602 1.389 . S
C5601 H5580 0.950 . S
C5601 C5600 1.373 . S
C5601 C5617 1.377 . S
C5602 C5600 1.389 . S
C5602 C5603 1.524 . S
C5602 C5616 1.377 . S
C5603 C5602 1.524 . S
C5603 C5604 1.397 . S
C5603 C5608 1.363 . S
C5604 H5581 0.950 . S
C5604 C5603 1.397 . S
C5604 C5605 1.334 . S
C5605 H5582 0.950 . S
C5605 C5604 1.334 . S
C5605 C5606 1.287 . S
C5606 C5605 1.287 . S
C5606 C5607 1.524 . S
C5606 H5625 0.913 . S
C5607 H5583 0.950 . S
C5607 C5606 1.524 . S
C5607 C5608 1.415 . S
C5608 H5584 0.950 . S
C5608 C5603 1.363 . S
C5608 C5607 1.415 . S
C5609 H5585 0.951 . S
C5609 C5610 1.366 . S
C5609 C5611 1.388 . S
C5610 C5609 1.366 . S
C5610 C5614 1.385 . S
C5611 H5586 0.951 . S
C5611 C5609 1.388 . S
C5611 C5612 1.366 . S
C5612 C5611 1.366 . S
C5612 C5613 1.414 . S
C5612 C5615 1.499 . S
C5613 H5587 0.950 . S
C5613 C5612 1.414 . S
C5613 C5614 1.374 . S
C5614 H5588 0.950 . S
C5614 C5610 1.385 . S
C5614 C5613 1.374 . S
C5615 C5612 1.499 . S
C5615 C5616 1.373 . S
C5615 C5617 1.389 . S
C5616 H5589 0.950 . S
C5616 C5602 1.377 . S
C5616 C5615 1.373 . S
C5617 C5601 1.377 . S
C5617 C5615 1.389 . S
C5617 C5618 1.524 . S
C5618 C5617 1.524 . S
C5618 C5619 1.397 . S
C5618 C5623 1.363 . S
C5619 H5590 0.950 . S
C5619 C5618 1.397 . S
C5619 C5620 1.334 . S
C5620 H5591 0.950 . S
C5620 C5619 1.334 . S
C5620 C5621 1.287 . S
C5621 C5620 1.287 . S
C5621 C5622 1.524 . S
C5621 H5624 0.999 . S
C5622 H5592 0.950 . S
C5622 C5621 1.524 . S
C5622 C5623 1.415 . S
C5623 H5593 0.950 . S
C5623 C5618 1.363 . S
C5623 C5622 1.415 . S
H5624 C5621 0.999 . S
H5625 C5606 0.913 . S
H5626 C5644 1.004 . S
H5627 C5646 0.951 . S
H5628 C5648 0.950 . S
H5629 C5649 0.950 . S
H5630 C5651 0.950 . S
H5631 C5654 0.950 . S
H5632 C5655 0.942 1_554 S
H5633 C5657 0.950 . S
H5634 C5658 0.950 . S
H5635 C5659 0.951 . S
H5636 C5661 0.951 . S
H5637 C5663 0.950 . S
H5638 C5664 0.950 . S
H5639 C5666 0.950 . S
H5640 C5669 0.950 1_556 S
H5641 C5670 0.950 . S
H5642 C5672 0.950 . S
H5643 C5673 0.950 . S
C5644 H5626 1.004 . S
C5644 C5645 1.309 1_556 S
C5644 C5646 1.395 . S
C5645 C5644 1.309 1_554 S
C5645 C5649 1.385 . S
C5646 H5627 0.951 . S
C5646 C5644 1.395 . S
C5646 C5647 1.366 1_556 S
C5647 C5646 1.366 1_554 S
C5647 C5648 1.414 . S
C5647 C5650 1.499 . S
C5648 H5628 0.950 . S
C5648 C5647 1.414 . S
C5648 C5649 1.374 . S
C5649 H5629 0.950 . S
C5649 C5645 1.385 . S
C5649 C5648 1.374 . S
C5650 C5647 1.499 . S
C5650 C5651 1.373 . S
C5650 C5652 1.389 1_554 S
C5651 H5630 0.950 . S
C5651 C5650 1.373 . S
C5651 C5667 1.377 . S
C5652 C5650 1.389 1_556 S
C5652 C5653 1.524 . S
C5652 C5666 1.377 . S
C5653 C5652 1.524 . S
C5653 C5654 1.397 1_556 S
C5653 C5658 1.363 . S
C5654 H5631 0.950 . S
C5654 C5653 1.397 1_554 S
C5654 C5655 1.326 1_554 S
C5655 H5632 0.942 1_556 S
C5655 C5654 1.326 1_556 S
C5655 C5656 1.303 . S
C5656 C5655 1.303 . S
C5656 C5657 1.524 . S
C5656 H5675 0.913 . S
C5657 H5633 0.950 . S
C5657 C5656 1.524 . S
C5657 C5658 1.415 . S
C5658 H5634 0.950 . S
C5658 C5653 1.363 . S
C5658 C5657 1.415 . S
C5659 H5635 0.951 . S
C5659 C5660 1.366 1_554 S
C5659 C5661 1.388 . S
C5660 C5659 1.366 1_556 S
C5660 C5664 1.385 . S
C5661 H5636 0.951 . S
C5661 C5659 1.388 . S
C5661 C5662 1.400 . S
C5662 C5661 1.400 . S
C5662 C5663 1.376 1_554 S
C5662 C5665 1.502 . S
C5663 H5637 0.950 . S
C5663 C5662 1.376 1_556 S
C5663 C5664 1.374 . S
C5664 H5638 0.950 . S
C5664 C5660 1.385 . S
C5664 C5663 1.374 . S
C5665 C5662 1.502 . S
C5665 C5666 1.373 1_554 S
C5665 C5667 1.389 . S
C5666 H5639 0.950 . S
C5666 C5652 1.377 . S
C5666 C5665 1.373 1_556 S
C5667 C5651 1.377 . S
C5667 C5665 1.389 . S
C5667 C5668 1.524 . S
C5668 C5667 1.524 . S
C5668 C5669 1.397 . S
C5668 C5673 1.363 . S
C5669 H5640 0.950 1_554 S
C5669 C5668 1.397 . S
C5669 C5670 1.334 . S
C5670 H5641 0.950 . S
C5670 C5669 1.334 . S
C5670 C5671 1.287 . S
C5671 C5670 1.287 . S
C5671 C5672 1.524 . S
C5671 H5674 0.999 . S
C5672 H5642 0.950 . S
C5672 C5671 1.524 . S
C5672 C5673 1.415 . S
C5673 H5643 0.950 . S
C5673 C5668 1.363 . S
C5673 C5672 1.415 . S
H5674 C5671 0.999 . S
H5675 C5656 0.913 . S
H5676 C5694 0.951 . S
H5677 C5696 0.951 . S
H5678 C5698 0.950 . S
H5679 C5699 0.950 . S
H5680 C5701 0.950 . S
H5681 C5704 0.950 . S
H5682 C5705 0.950 . S
H5683 C5707 0.950 . S
H5684 C5708 0.950 . S
H5685 C5709 0.951 . S
H5686 C5711 0.951 . S
H5687 C5713 0.950 . S
H5688 C5714 0.950 . S
H5689 C5716 0.950 . S
H5690 C5719 0.950 . S
H5691 C5720 0.950 . S
H5692 C5722 0.950 . S
H5693 C5723 0.950 . S
C5694 H5676 0.951 . S
C5694 C5695 1.366 . S
C5694 C5696 1.388 . S
C5695 C5694 1.366 . S
C5695 C5699 1.385 . S
C5696 H5677 0.951 . S
C5696 C5694 1.388 . S
C5696 C5697 1.366 . S
C5697 C5696 1.366 . S
C5697 C5698 1.414 . S
C5697 C5700 1.499 . S
C5698 H5678 0.950 . S
C5698 C5697 1.414 . S
C5698 C5699 1.374 . S
C5699 H5679 0.950 . S
C5699 C5695 1.385 . S
C5699 C5698 1.374 . S
C5700 C5697 1.499 . S
C5700 C5701 1.373 . S
C5700 C5702 1.389 . S
C5701 H5680 0.950 . S
C5701 C5700 1.373 . S
C5701 C5717 1.377 . S
C5702 C5700 1.389 . S
C5702 C5703 1.524 . S
C5702 C5716 1.377 . S
C5703 C5702 1.524 . S
C5703 C5704 1.397 . S
C5703 C5708 1.363 . S
C5704 H5681 0.950 . S
C5704 C5703 1.397 . S
C5704 C5705 1.334 . S
C5705 H5682 0.950 . S
C5705 C5704 1.334 . S
C5705 C5706 1.287 . S
C5706 C5705 1.287 . S
C5706 C5707 1.524 . S
C5706 H5725 0.913 . S
C5707 H5683 0.950 . S
C5707 C5706 1.524 . S
C5707 C5708 1.415 . S
C5708 H5684 0.950 . S
C5708 C5703 1.363 . S
C5708 C5707 1.415 . S
C5709 H5685 0.951 . S
C5709 C5710 1.366 . S
C5709 C5711 1.388 . S
C5710 C5709 1.366 . S
C5710 C5714 1.385 . S
C5711 H5686 0.951 . S
C5711 C5709 1.388 . S
C5711 C5712 1.366 . S
C5712 C5711 1.366 . S
C5712 C5713 1.414 . S
C5712 C5715 1.499 . S
C5713 H5687 0.950 . S
C5713 C5712 1.414 . S
C5713 C5714 1.374 . S
C5714 H5688 0.950 . S
C5714 C5710 1.385 . S
C5714 C5713 1.374 . S
C5715 C5712 1.499 . S
C5715 C5716 1.373 . S
C5715 C5717 1.389 . S
C5716 H5689 0.950 . S
C5716 C5702 1.377 . S
C5716 C5715 1.373 . S
C5717 C5701 1.377 . S
C5717 C5715 1.389 . S
C5717 C5718 1.524 . S
C5718 C5717 1.524 . S
C5718 C5719 1.397 . S
C5718 C5723 1.363 . S
C5719 H5690 0.950 . S
C5719 C5718 1.397 . S
C5719 C5720 1.334 . S
C5720 H5691 0.950 . S
C5720 C5719 1.334 . S
C5720 C5721 1.287 . S
C5721 C5720 1.287 . S
C5721 C5722 1.524 . S
C5721 H5724 0.999 . S
C5722 H5692 0.950 . S
C5722 C5721 1.524 . S
C5722 C5723 1.415 . S
C5723 H5693 0.950 . S
C5723 C5718 1.363 . S
C5723 C5722 1.415 . S
H5724 C5721 0.999 . S
H5725 C5706 0.913 . S
H5726 C5744 0.951 . S
H5727 C5746 0.951 . S
H5728 C5748 0.950 . S
H5729 C5749 0.950 . S
H5730 C5751 0.950 . S
H5731 C5754 0.950 . S
H5732 C5755 0.950 . S
H5733 C5757 0.950 . S
H5734 C5758 0.950 . S
H5735 C5759 0.951 . S
H5736 C5761 0.951 . S
H5737 C5763 0.950 . S
H5738 C5764 0.950 . S
H5739 C5766 0.950 . S
H5740 C5769 0.950 . S
H5741 C5770 0.950 . S
H5742 C5772 0.950 . S
H5743 C5773 0.950 . S
C5744 H5726 0.951 . S
C5744 C5745 1.366 . S
C5744 C5746 1.388 . S
C5745 C5744 1.366 . S
C5745 C5749 1.385 . S
C5746 H5727 0.951 . S
C5746 C5744 1.388 . S
C5746 C5747 1.366 . S
C5747 C5746 1.366 . S
C5747 C5748 1.414 . S
C5747 C5750 1.499 . S
C5748 H5728 0.950 . S
C5748 C5747 1.414 . S
C5748 C5749 1.374 . S
C5749 H5729 0.950 . S
C5749 C5745 1.385 . S
C5749 C5748 1.374 . S
C5750 C5747 1.499 . S
C5750 C5751 1.373 . S
C5750 C5752 1.389 . S
C5751 H5730 0.950 . S
C5751 C5750 1.373 . S
C5751 C5767 1.377 . S
C5752 C5750 1.389 . S
C5752 C5753 1.524 . S
C5752 C5766 1.377 . S
C5753 C5752 1.524 . S
C5753 C5754 1.397 . S
C5753 C5758 1.363 . S
C5754 H5731 0.950 . S
C5754 C5753 1.397 . S
C5754 C5755 1.334 . S
C5755 H5732 0.950 . S
C5755 C5754 1.334 . S
C5755 C5756 1.287 . S
C5756 C5755 1.287 . S
C5756 C5757 1.524 . S
C5756 H5775 0.913 . S
C5757 H5733 0.950 . S
C5757 C5756 1.524 . S
C5757 C5758 1.415 . S
C5758 H5734 0.950 . S
C5758 C5753 1.363 . S
C5758 C5757 1.415 . S
C5759 H5735 0.951 . S
C5759 C5760 1.366 . S
C5759 C5761 1.388 . S
C5760 C5759 1.366 . S
C5760 C5764 1.385 . S
C5761 H5736 0.951 . S
C5761 C5759 1.388 . S
C5761 C5762 1.366 . S
C5762 C5761 1.366 . S
C5762 C5763 1.414 . S
C5762 C5765 1.499 . S
C5763 H5737 0.950 . S
C5763 C5762 1.414 . S
C5763 C5764 1.374 . S
C5764 H5738 0.950 . S
C5764 C5760 1.385 . S
C5764 C5763 1.374 . S
C5765 C5762 1.499 . S
C5765 C5766 1.373 . S
C5765 C5767 1.389 . S
C5766 H5739 0.950 . S
C5766 C5752 1.377 . S
C5766 C5765 1.373 . S
C5767 C5751 1.377 . S
C5767 C5765 1.389 . S
C5767 C5768 1.524 . S
C5768 C5767 1.524 . S
C5768 C5769 1.397 . S
C5768 C5773 1.363 . S
C5769 H5740 0.950 . S
C5769 C5768 1.397 . S
C5769 C5770 1.334 . S
C5770 H5741 0.950 . S
C5770 C5769 1.334 . S
C5770 C5771 1.287 . S
C5771 C5770 1.287 . S
C5771 C5772 1.524 . S
C5771 H5774 0.999 . S
C5772 H5742 0.950 . S
C5772 C5771 1.524 . S
C5772 C5773 1.415 . S
C5773 H5743 0.950 . S
C5773 C5768 1.363 . S
C5773 C5772 1.415 . S
H5774 C5771 0.999 . S
H5775 C5756 0.913 . S
C995 C109 2.123 . S
C1010 C346 2.071 . S
C1045 C61 1.762 . S
C1060 C394 1.974 . S
C1095 C74 1.068 . S
C1110 C426 1.089 . S
C1160 C471 1.573 . S
C1145 C96 1.601 . S
C1195 C25 0.796 . S
C1210 C511 0.798 . S
C1260 C546 0.717 . S
C1245 C40 0.719 . S
C1310 C585 1.191 . S
C1295 C46 1.182 . S
C1345 C5 0.935 . S
C1360 C622 1.111 . S
C1410 C354 1.826 . S
C1395 C229 1.522 . S
C1445 C249 0.329 . S
C1460 C391 0.523 . S
C1510 C434 2.309 . S
C1495 C271 2.118 . S
C1560 C466 1.041 . S
C1545 C172 1.018 . S
C1595 C236 1.047 . S
C1610 C506 1.045 . S
C1660 C554 0.675 . S
C1645 C242 0.667 . S
C1710 C595 1.759 . S
C1695 C278 1.825 . S
C1760 C625 1.925 . S
C1745 C179 1.945 . S
C1810 C351 0.999 . S
C1795 C159 0.825 1_556 S
C1845 C285 1.877 . S
C1860 C674 2.077 . S
C1910 C711 0.998 . S
C1895 C333 0.997 . S
C1960 C742 0.272 . S
C1945 C320 0.150 . S
C1995 C123 2.700 . S
C2010 C635 2.669 . S
C2045 C138 1.428 . S
C2060 C431 1.412 . S
C2095 C326 1.836 . S
C2110 C794 1.839 . S
C2160 C826 1.745 . S
C2145 C298 1.673 . S
C2210 C355 2.060 . S
C2195 C67 2.082 . S
C2260 C825 1.874 . S
C2245 C110 1.889 . S
C2295 C88 1.079 . S
C2310 C435 1.080 . S
C2345 C75 1.294 . S
C2360 C782 1.469 . S
C2410 C502 0.738 . S
C2395 C11 0.738 . S
C2445 C47 0.726 . S
C2460 C715 0.710 . S
C2510 C594 1.110 . S
C2495 C32 1.097 . S
C2560 C871 1.144 . S
C2545 C26 1.145 . S
C2610 C345 1.939 . S
C2595 C152 1.948 . S
C2660 C822 0.540 . S
C2645 C319 0.607 . S
C2695 C124 2.318 . S
C2710 C425 2.290 . S
C2745 C284 1.058 . S
C2760 C795 1.056 . S
C2795 C145 0.888 . S
C2810 C515 0.959 . S
C2860 C705 0.524 . S
C2845 C312 0.570 . S
C2895 C117 1.343 . S
C2910 C586 1.548 . S
C2945 C291 1.865 . S
C2960 C874 1.870 . S
C2995 C194 1.129 . S
C3010 C342 1.114 . S
C3045 C180 2.033 . S
C3060 C665 2.000 . S
C3095 C263 0.912 . S
C3110 C542 0.919 . S
C3145 C243 0.819 . S
C3160 C751 0.272 . S
C3210 C866 2.677 . S
C3195 C277 2.715 . S
C3245 C215 1.187 . S
C3260 C422 1.357 . S
C3310 C465 1.713 . S
C3295 C256 1.648 . S
C3360 C395 1.798 . S
C3345 C200 1.826 . S
C3395 C81 2.123 . S
C3410 C906 2.072 . S
C3460 C834 1.975 . S
C3445 C89 1.760 . S
C3495 C102 1.069 . S
C3510 C946 1.088 . S
C3545 C68 1.601 . S
C3560 C791 1.573 . S
C3595 C53 0.795 . S
C3610 C671 0.799 . S
C3660 C706 0.717 . S
C3645 C12 0.719 . S
C3710 C745 1.190 . S
C3695 C18 1.183 . S
C3760 C862 1.112 . S
C3745 C33 0.935 . S
C3810 C914 1.826 . S
C3795 C257 1.522 . S
C3845 C193 0.330 . S
C3860 C831 0.526 . S
C3910 C954 2.310 . S
C3895 C201 2.099 . S
C3960 C786 1.041 . S
C3945 C214 1.018 . S
C4010 C666 1.044 . S
C3995 C264 1.047 . S
C4045 C186 0.667 . S
C4060 C714 0.676 . S
C4110 C755 1.759 . S
C4095 C208 1.825 . S
C4145 C221 1.945 . S
C4160 C865 1.924 . S
C4210 C911 1.000 . S
C4195 C313 0.824 . S
C4245 C131 1.877 . S
C4260 C514 2.077 . S
C4310 C551 0.998 . S
C4295 C151 0.997 . S
C4360 C582 0.272 . S
C4345 C166 0.151 . S
C4410 C875 2.669 . S
C4395 C305 2.700 . S
C4445 C292 1.428 . S
C4460 C951 1.412 . S
C4510 C474 1.839 . S
C4495 C144 1.836 . S
C4560 C386 1.745 . S
C4545 C116 1.672 . S
C4595 C95 2.082 . S
C4610 C915 2.061 . S
C4660 C385 1.874 . S
C4645 C82 1.889 . S
C4695 C60 1.080 . S
C4710 C955 1.081 . S
C4745 C103 1.294 . S
C4760 C462 1.469 . S
C4795 C39 0.738 . S
C4810 C662 0.738 . S
C4860 C555 0.710 . S
C4845 C19 0.729 . S
C4895 C4 1.098 . S
C4910 C754 1.111 . S
C4945 C54 1.145 . S
C4960 C631 1.145 . S
C5010 C905 1.939 . S
C4995 C334 1.949 . S
C5045 C165 0.606 . S
C5060 C382 0.542 . S
C5110 C945 2.289 . S
C5095 C306 2.318 . S
C5145 C130 1.058 . S
C5160 C475 1.056 . S
C5195 C327 0.888 . S
C5210 C675 0.959 . S
C5260 C545 0.524 . S
C5245 C158 0.574 . S
C5295 C299 1.345 . S
C5310 C746 1.535 . S
C5360 C634 1.870 . S
C5345 C137 1.865 . S
C5410 C902 1.114 . S
C5395 C250 1.129 . S
C5460 C505 2.000 1_565 S
C5445 C222 2.033 . S
C5495 C235 0.912 . S
C5510 C702 0.919 . S
C5560 C591 0.272 . S
C5545 C187 0.821 . S
C5595 C207 2.714 . S
C5610 C626 2.676 . S
C5645 C173 1.187 . S
C5660 C942 1.357 . S
C5710 C785 1.712 . S
C5695 C228 1.648 . S
C5760 C835 1.798 . S
C5745 C270 1.826 . S
