# Generated by pormake.
# Topology nia, (6,6)-cn, num edge types: 1
# Building blocks:
#     Node 0, Type 0, BuildingBlock: KUMBOL_clean_sbu_0, # of connection points: 6
#     Node 1, Type 0, BuildingBlock: KUMBOL_clean_sbu_0, # of connection points: 6
#     Node 2, Type 1, BuildingBlock: MIDCAF_clean_sbu_0, # of connection points: 6
#     Node 3, Type 1, BuildingBlock: MIDCAF_clean_sbu_0, # of connection points: 6
#     Edge 4, Type (0, 1), BuildingBlock: EZIPEK_clean_linker_0, # of connection points: 2
#     Edge 5, Type (0, 1), BuildingBlock: EZIPEK_clean_linker_0, # of connection points: 2
#     Edge 6, Type (0, 1), BuildingBlock: EZIPEK_clean_linker_0, # of connection points: 2
#     Edge 7, Type (0, 1), BuildingBlock: EZIPEK_clean_linker_0, # of connection points: 2
#     Edge 8, Type (0, 1), BuildingBlock: EZIPEK_clean_linker_0, # of connection points: 2
#     Edge 9, Type (0, 1), BuildingBlock: EZIPEK_clean_linker_0, # of connection points: 2
#     Edge 10, Type (0, 1), BuildingBlock: EZIPEK_clean_linker_0, # of connection points: 2
#     Edge 11, Type (0, 1), BuildingBlock: EZIPEK_clean_linker_0, # of connection points: 2
#     Edge 12, Type (0, 1), BuildingBlock: EZIPEK_clean_linker_0, # of connection points: 2
#     Edge 13, Type (0, 1), BuildingBlock: EZIPEK_clean_linker_0, # of connection points: 2
#     Edge 14, Type (0, 1), BuildingBlock: EZIPEK_clean_linker_0, # of connection points: 2
#     Edge 15, Type (0, 1), BuildingBlock: EZIPEK_clean_linker_0, # of connection points: 2
# Relax obj value: 0.176
# Max RMSD: 0.299
# Mean RMSD: 0.210
data_MOF--net-nia--node1-KUMBOL_clean_sbu_0--node2-MIDCAF_clean_sbu_0--edge1-EZIPEK_clean_linker_0
_symmetry_space_group_name_H-M    P1
_symmetry_Int_Tables_number       1
_symmetry_cell_setting            triclinic
loop_
_symmetry_equiv_pos_as_xyz
'x, y, z'
_cell_length_a     22.213546
_cell_length_b     22.136732
_cell_length_c     24.725345
_cell_angle_alpha  90.305349
_cell_angle_beta   89.737552
_cell_angle_gamma 141.33652
loop_
_atom_site_label
_atom_site_type_symbol
_atom_site_fract_x
_atom_site_fract_y
_atom_site_fract_z
_atom_type_partial_charge
Gd0 Gd -0.01257 0.03984 0.9525 0.0
Gd1 Gd 0.03452 0.97079 0.06678 0.0
C2 C 0.85201 0.75414 0.21314 0.0
C3 C 0.82366 0.8705 0.29176 0.0
C4 C 0.90194 0.91912 0.16779 0.0
C5 C 0.88657 0.82911 0.16238 0.0
C6 C 0.86842 0.94351 0.23621 0.0
C7 C 0.82336 0.75529 0.27752 0.0
C8 C 0.84572 0.68875 0.20003 0.0
C9 C 0.87213 0.68984 0.14881 0.0
N10 N 0.92171 0.82852 0.11765 0.0
C11 C 0.91158 0.75953 0.11017 0.0
H12 H 0.93921 0.76 0.0742 0.0
C13 C 0.0765 -0.00456 0.20344 0.0
N14 N -0.00329 0.95412 0.16068 0.0
C15 C 0.08067 0.02516 0.26964 0.0
C16 C 0.94745 0.00079 0.2899 0.0
H17 H 0.13253 0.00922 0.19096 0.0
H18 H 0.80115 0.70104 0.30411 0.0
H19 H 0.21137 0.25801 0.99377 0.0
H20 H 0.82016 0.63646 0.22942 0.0
H21 H 0.8672 0.63823 0.13949 0.0
H22 H 0.78924 0.87072 0.32381 0.0
H23 H 0.84506 0.83863 0.85862 0.0
H24 H 0.41628 0.42891 0.86719 0.0
H25 H 0.36739 0.40581 0.96106 0.0
H26 H 0.26453 0.25424 0.68084 0.0
H27 H 0.14021 0.05467 0.29417 0.0
H28 H 0.9437 0.03126 0.32266 0.0
H29 H 0.39091 0.37575 0.76462 0.0
H30 H 0.84385 0.78901 0.75926 0.0
N31 N 0.14517 0.18766 0.91807 0.0
C32 C 0.34183 0.36337 0.8785 0.0
C33 C 0.31323 0.34985 0.93191 0.0
C34 C 0.27512 0.29466 0.83989 0.0
C35 C 0.15617 0.20017 0.86379 0.0
C36 C 0.22015 0.26323 0.95084 0.0
N37 N 0.97423 0.00812 0.85623 0.0
C38 C 0.0526 0.11042 0.82714 0.0
C39 C 0.89329 0.86434 0.76779 0.0
C40 C 0.96311 0.9485 0.71566 0.0
C41 C 0.90205 0.89934 0.83352 0.0
C42 C 0.06667 0.1126 0.74711 0.0
H43 H 0.96709 0.92477 0.67894 0.0
O44 O 0.8866 0.01972 0.90965 0.0
O45 O 0.94182 0.97523 0.03535 0.0
O46 O 0.9291 0.83881 0.01329 0.0
O47 O 0.92575 0.89669 0.9361 0.0
O48 O 0.83426 0.90919 0.97949 0.0
O49 O -0.00675 0.14085 0.96434 0.0
O50 O 0.17921 0.07407 0.09418 0.0
O51 O 0.0661 0.02106 0.97981 0.0
O52 O 0.05684 0.14372 0.02569 0.0
O53 O 0.07276 0.09049 0.09921 0.0
O54 O 0.1804 0.08758 0.02713 0.0
O55 O 0.10029 0.93184 0.0681 0.0
C56 C 0.85044 0.90612 0.02891 0.0
C57 C 0.2334 0.24102 0.71948 0.0
C58 C 0.31446 0.31528 0.7732 0.0
C59 C 0.92561 0.09949 0.92934 0.0
C60 C 0.94743 0.16621 0.89168 0.0
C61 C 0.04054 0.24557 0.87044 0.0
C62 C 0.87902 0.15804 0.88173 0.0
C63 C 0.90214 0.22488 0.84752 0.0
C64 C 0.06226 0.30908 0.83488 0.0
C65 C -0.00744 0.29693 0.82188 0.0
C66 C 0.90256 0.82836 0.96295 0.0
C67 C 0.15631 0.0834 0.97901 0.0
C68 C 0.18164 0.01755 0.08667 0.0
C69 C 0.24216 0.03069 0.12488 0.0
C70 C 0.31056 0.11525 0.15688 0.0
C71 C 0.2405 0.96599 0.12558 0.0
C72 C 0.30531 0.98499 0.15857 0.0
C73 C 0.37497 0.13416 0.18925 0.0
C74 C 0.37318 0.07002 0.18969 0.0
C75 C 0.08226 0.15112 0.07654 0.0
H76 H 0.09781 0.26122 0.88308 0.0
H77 H 0.80989 0.1027 0.90214 0.0
H78 H 0.13468 0.37062 0.8194 0.0
H79 H 0.01203 0.34919 0.79552 0.0
H80 H 0.31561 0.16804 0.15638 0.0
H81 H 0.19046 0.90213 0.10005 0.0
H82 H 0.42775 0.19975 0.21318 0.0
H83 H 0.42648 0.08793 0.21333 0.0
Gd84 Gd 0.01269 0.97491 0.45326 0.0
Gd85 Gd 0.95772 0.03597 0.56672 0.0
C86 C 0.14056 0.25801 0.71241 0.0
C87 C 0.17699 0.14851 0.78956 0.0
C88 C 0.09673 0.09723 0.66613 0.0
C89 C 0.10715 0.18336 0.66149 0.0
C90 C 0.1328 0.07514 0.73388 0.0
C91 C 0.17157 0.25926 0.7764 0.0
C92 C 0.13891 0.31751 0.70049 0.0
C93 C 0.10077 0.30693 0.65174 0.0
N94 N 0.06405 0.17665 0.61882 0.0
C95 C 0.06038 0.23526 0.61413 0.0
H96 H 0.02037 0.22351 0.58148 0.0
C97 C 0.92052 0.0174 0.70303 0.0
N98 N 0.00136 0.06147 0.65991 0.0
C99 C 0.91719 0.98751 0.76851 0.0
C100 C 0.05321 0.01567 0.78758 0.0
H101 H 0.86454 0.00393 0.69148 0.0
H102 H 0.19226 0.31274 0.80318 0.0
H103 H 0.78025 0.77081 0.49545 0.0
H104 H 0.16429 0.37033 0.72953 0.0
H105 H 0.09616 0.35138 0.64424 0.0
H106 H 0.21189 0.14946 0.82155 0.0
H107 H 0.15513 0.17586 0.36122 0.0
H108 H 0.57833 0.59625 0.36918 0.0
H109 H 0.62352 0.62547 0.46403 0.0
H110 H 0.73382 0.76493 0.18348 0.0
H111 H 0.85754 0.95732 0.79353 0.0
H112 H 0.05988 0.98737 0.82059 0.0
H113 H 0.6066 0.6458 0.26672 0.0
H114 H 0.15811 0.22651 0.26254 0.0
N115 N 0.85229 0.83015 0.41946 0.0
C116 C 0.65335 0.65921 0.38036 0.0
C117 C 0.67982 0.67622 0.4343 0.0
C118 C 0.72194 0.72371 0.34146 0.0
C119 C 0.84101 0.8157 0.36526 0.0
C120 C 0.77403 0.76082 0.45261 0.0
N121 N 0.02482 0.00619 0.35776 0.0
C122 C 0.94503 0.90372 0.32836 0.0
C123 C 0.10836 0.15103 0.27048 0.0
C124 C 0.03765 0.06746 0.21811 0.0
C125 C 0.09871 0.11531 0.33573 0.0
C126 C 0.93096 0.90203 0.24816 0.0
H127 H 0.03206 0.09124 0.18356 0.0
O128 O 0.10329 -0.00907 0.39952 0.0
O129 O 0.05038 0.03099 0.53841 0.0
O130 O 0.07985 0.17742 0.52125 0.0
O131 O 0.08382 0.12321 0.44149 0.0
O132 O 0.16322 0.10359 0.48599 0.0
O133 O 0.03443 0.89705 0.46786 0.0
O134 O 0.81157 0.91496 0.59906 0.0
O135 O 0.90948 0.96229 0.48501 0.0
O136 O 0.93347 0.85743 0.51684 0.0
O137 O 0.91124 0.9047 0.59099 0.0
O138 O 0.91162 0.05683 0.49658 0.0
O139 O 0.86464 0.04168 0.5698 0.0
C140 C 0.14197 0.09987 0.53542 0.0
C141 C 0.76411 0.77668 0.22147 0.0
C142 C 0.68307 0.704 0.27508 0.0
C143 C 0.08541 0.92686 0.42498 0.0
C144 C 0.05554 0.85096 0.3919 0.0
C145 C 0.96104 0.77306 0.37236 0.0
C146 C 0.11962 0.8532 0.38149 0.0
C147 C 0.09107 0.78204 0.34805 0.0
C148 C 0.93374 0.70501 0.33768 0.0
C149 C -0.0008 0.71116 0.32411 0.0
C150 C 0.10799 0.19076 0.47046 0.0
C151 C 0.88967 -0.00268 0.46292 0.0
C152 C 0.79218 0.95665 0.59097 0.0
C153 C 0.73179 0.94301 0.63041 0.0
C154 C 0.66854 0.86206 0.66459 0.0
C155 C 0.73207 0.00709 0.63172 0.0
C156 C 0.67142 -0.0085 0.66755 0.0
C157 C 0.60775 0.84587 0.69977 0.0
C158 C 0.60863 0.90958 0.70108 0.0
C159 C 0.90335 0.84473 0.56705 0.0
H160 H 0.90772 0.7635 0.38487 0.0
H161 H 0.19046 0.9088 0.39992 0.0
H162 H 0.86075 0.64564 0.32252 0.0
H163 H 0.9758 0.65631 0.2979 0.0
H164 H 0.6655 0.81078 0.66384 0.0
H165 H 0.77875 0.06874 0.60478 0.0
H166 H 0.55878 0.78291 0.72568 0.0
H167 H 0.55861 0.89363 0.72753 0.0
Zn168 Zn 0.35076 0.64796 0.155 0.0
Zn169 Zn 0.4027 0.71147 0.34756 0.0
Zn170 Zn 0.39191 0.67703 0.2527 0.0
C171 C 0.58653 0.83479 0.31869 0.0
C172 C 0.3072 0.52695 0.3438 0.0
O173 O 0.35053 0.73631 0.2209 0.0
O174 O 0.33278 0.717 0.13187 0.0
C175 C 0.53867 0.74775 0.16474 0.0
O176 O 0.54255 0.7763 0.27799 0.0
O177 O 0.54167 0.83513 0.34961 0.0
O178 O 0.35305 0.59584 0.37654 0.0
O179 O 0.30372 0.53797 0.29324 0.0
O180 O 0.47055 0.70276 0.13199 0.0
O181 O 0.5297 0.75603 0.21497 0.0
O182 O 0.29141 0.52313 0.23459 0.0
O183 O 0.24124 0.50796 0.15257 0.0
C184 C 0.24011 0.47169 0.19227 0.0
O185 O 0.33394 0.72466 0.27593 0.0
O186 O 0.32376 0.719 0.36519 0.0
C187 C 0.33441 0.74908 0.17473 0.0
C188 C 0.30844 0.73159 0.32035 0.0
Zn189 Zn 0.59366 0.29988 0.84813 0.0
Zn190 Zn 0.63637 0.34068 0.65084 0.0
Zn191 Zn 0.60602 0.32868 0.75188 0.0
C192 C 0.75096 0.52649 0.68537 0.0
C193 C 0.44892 0.24356 0.66613 0.0
O194 O 0.65757 0.277 0.77842 0.0
O195 O 0.66863 0.28855 0.86767 0.0
C196 C 0.69995 0.48873 0.83876 0.0
O197 O 0.71003 0.48248 0.73085 0.0
O198 O 0.73874 0.48233 0.64515 0.0
O199 O 0.50872 0.27333 0.63074 0.0
O200 O 0.46778 0.25185 0.71686 0.0
O201 O 0.64983 0.42129 0.87288 0.0
O202 O 0.70209 0.4728 0.78897 0.0
O203 O 0.45895 0.23907 0.77856 0.0
O204 O 0.45393 0.17921 0.85176 0.0
C205 C 0.41333 0.18407 0.82049 0.0
O206 O 0.63909 0.25842 0.72345 0.0
O207 O 0.66151 0.27409 0.63479 0.0
C208 C 0.68209 0.27162 0.82374 0.0
C209 C 0.65593 0.242 0.67904 0.0
C210 C 0.2291 0.82488 0.18062 0.0
C211 C 0.3073 0.91958 0.15872 0.0
C212 C 0.40424 0.90361 0.15187 0.0
C213 C 0.32478 0.80751 0.17095 0.0
N214 N 0.15705 0.6698 0.19535 0.0
N215 N 0.45821 0.03846 0.11019 0.0
C216 C 0.2355 0.7658 0.18268 0.0
C217 C 0.39171 0.95584 0.1404 0.0
N218 N 0.1509 0.79315 0.20161 0.0
N219 N 0.49248 0.94593 0.14602 0.0
H220 H 0.44971 0.07695 0.09926 0.0
H221 H 0.51645 0.06318 0.09123 0.0
H222 H 0.50464 0.90981 0.15384 0.0
H223 H 0.55535 0.01926 0.13802 0.0
H224 H 0.09558 0.7283 0.22237 0.0
H225 H 0.14451 0.83505 0.20232 0.0
H226 H 0.08746 0.63235 0.19889 0.0
H227 H 0.1605 0.62561 0.19904 0.0
C228 C 0.29713 0.23675 0.58681 0.0
C229 C 0.2115 0.13557 0.5791 0.0
C230 C 0.27299 0.10813 0.64398 0.0
C231 C 0.36239 0.20824 0.64585 0.0
N232 N 0.46356 0.36964 0.61668 0.0
N233 N 0.13022 0.97658 0.5922 0.0
C234 C 0.37545 0.273 0.61655 0.0
C235 C 0.2019 0.0715 0.60627 0.0
N236 N 0.30168 0.29827 0.56844 0.0
N237 N 0.25766 0.04714 0.67617 0.0
H238 H 0.0826 0.94901 0.56159 0.0
H239 H 0.12569 0.92871 0.60584 0.0
H240 H 0.31152 0.0711 0.70044 0.0
H241 H 0.18996 0.97475 0.68185 0.0
H242 H 0.35778 0.37185 0.57736 0.0
H243 H 0.24392 0.27374 0.54938 0.0
H244 H 0.48204 0.41918 0.59075 0.0
H245 H 0.52022 0.39964 0.64108 0.0
C246 C 0.21849 0.30413 0.12948 0.0
C247 C 0.12075 0.22959 0.11267 0.0
C248 C 0.09437 0.29884 0.16888 0.0
C249 C 0.19269 0.37595 0.18298 0.0
N250 N 0.33772 0.43172 0.19453 0.0
N251 N 0.96126 0.13267 0.14142 0.0
C252 C 0.25141 0.37187 0.16918 0.0
C253 C 0.05687 0.22016 0.13913 0.0
N254 N 0.28008 0.31107 0.10718 0.0
N255 N 0.03684 0.30105 0.18373 0.0
H256 H 0.93513 0.07106 0.12743 0.0
H257 H 0.91351 0.11947 0.16575 0.0
H258 H 0.06134 0.35502 0.20892 0.0
H259 H 0.96677 0.25146 0.16929 0.0
H260 H 0.35435 0.37017 0.11314 0.0
H261 H 0.25754 0.26014 0.08005 0.0
H262 H 0.38 0.42628 0.19001 0.0
H263 H 0.36227 0.48047 0.22441 0.0
C264 C 0.58381 0.02179 0.65609 0.0
C265 C 0.67026 0.05837 0.66898 0.0
C266 C 0.75034 0.21884 0.68624 0.0
C267 C 0.66106 0.1789 0.67867 0.0
N268 N 0.48929 0.03924 0.66536 0.0
N269 N 0.83355 0.18932 0.70267 0.0
C270 C 0.57676 0.07937 0.66636 0.0
C271 C 0.75336 0.15664 0.68542 0.0
N272 N 0.50991 0.9337 0.63132 0.0
N273 N 0.83211 0.31623 0.69413 0.0
H274 H 0.83752 0.14549 0.70481 0.0
H275 H 0.89347 0.2575 0.71934 0.0
H276 H 0.83129 0.36259 0.69756 0.0
H277 H 0.9012 0.3521 0.69416 0.0
H278 H 0.4491 0.90748 0.61592 0.0
H279 H 0.51369 0.89101 0.62089 0.0
H280 H 0.42404 0.96504 0.66269 0.0
H281 H 0.48119 0.0792 0.67205 0.0
C282 C 0.70383 0.77006 0.08653 0.0
C283 C 0.77772 0.86842 0.07063 0.0
C284 C 0.70117 0.88915 0.12512 0.0
C285 C 0.62774 0.79152 0.14094 0.0
N286 N 0.54651 0.63273 0.12781 0.0
N287 N 0.8174 0.00457 0.05671 0.0
C288 C 0.62476 0.72988 0.11834 0.0
C289 C 0.76789 0.92306 0.08471 0.0
N290 N 0.71046 0.71555 0.07288 0.0
N291 N 0.70478 0.94885 0.14689 0.0
H292 H 0.87207 0.03614 0.03027 0.0
H293 H 0.80222 0.03874 0.05876 0.0
H294 H 0.65612 0.92604 0.17605 0.0
H295 H 0.75957 0.02253 0.13875 0.0
H296 H 0.66528 0.64684 0.0882 0.0
H297 H 0.76648 0.74229 0.04948 0.0
H298 H 0.53346 0.58194 0.10761 0.0
H299 H 0.49191 0.60255 0.15448 0.0
C300 C 0.77999 0.70792 0.63436 0.0
C301 C 0.86071 0.76039 0.59985 0.0
C302 C 0.88968 0.68795 0.64728 0.0
C303 C 0.80143 0.62399 0.6747 0.0
N304 N 0.65921 0.57108 0.69448 0.0
N305 N 0.95736 0.75625 0.55988 0.0
C306 C 0.74673 0.63512 0.66952 0.0
C307 C 0.90768 0.74011 0.6028 0.0
N308 N 0.73018 0.72179 0.63034 0.0
N309 N 0.95178 0.69128 0.66041 0.0
H310 H 0.94472 0.76192 0.52115 0.0
H311 H -0.0088 0.74071 0.56039 0.0
H312 H 0.93753 0.65075 0.6924 0.0
H313 H 0.02024 0.74118 0.64324 0.0
H314 H 0.68167 0.69907 0.65949 0.0
H315 H 0.73682 0.75507 0.5969 0.0
H316 H 0.61019 0.56736 0.68766 0.0
H317 H 0.63301 0.51758 0.72041 0.0
C318 C 0.11016 0.68472 0.35475 0.0
C319 C 0.15144 0.77382 0.3415 0.0
C320 C 0.30023 0.83842 0.3132 0.0
C321 C 0.25315 0.74527 0.32033 0.0
N322 N 0.10724 0.57508 0.33675 0.0
N323 N 0.28354 0.93409 0.30382 0.0
C324 C 0.15607 0.66697 0.33745 0.0
C325 C 0.24637 0.85082 0.31979 0.0
N326 N 0.02999 0.61913 0.38683 0.0
N327 N 0.39602 0.91438 0.30027 0.0
H328 H 0.2437 0.94275 0.30339 0.0
H329 H 0.35203 -0.00716 0.28777 0.0
H330 H 0.43544 0.90599 0.29266 0.0
H331 H 0.43794 0.98616 0.29956 0.0
H332 H 0.00231 0.55704 0.40171 0.0
H333 H -0.00196 0.6323 0.404 0.0
H334 H 0.03337 0.51407 0.34381 0.0
H335 H 0.13854 0.55922 0.32362 0.0
C336 C 0.18416 0.03831 0.89561 0.0
C337 C 0.21733 0.11008 0.9321 0.0
C338 C 0.37093 0.23262 0.88327 0.0
C339 C 0.33788 0.16161 0.84703 0.0
N340 N 0.21283 -0.00205 0.81576 0.0
N341 N 0.3597 0.26609 0.97284 0.0
C342 C 0.2439 0.06461 0.85218 0.0
C343 C 0.31583 0.20454 0.92959 0.0
N344 N 0.10176 0.94368 0.90731 0.0
N345 N 0.45608 0.32799 0.87326 0.0
H346 H 0.32349 0.25213 1.00738 0.0
H347 H 0.43415 0.32953 0.97581 0.0
H348 H 0.49391 0.35096 0.83739 0.0
H349 H 0.48326 0.3842 0.89716 0.0
H350 H 0.072 0.88614 0.8838 0.0
H351 H 0.07172 0.92402 0.94532 0.0
H352 H 0.14197 0.92765 0.81232 0.0
H353 H 0.25811 0.01565 0.78609 0.0
C354 C 0.25259 0.33709 0.41483 0.0
C355 C 0.1646 0.28355 0.44148 0.0
C356 C 0.16318 0.3797 0.39323 0.0
C357 C 0.2504 0.43272 0.3675 0.0
N358 N 0.37412 0.4576 0.34724 0.0
N359 N 0.05203 0.27502 0.46579 0.0
C360 C 0.29414 0.41026 0.37656 0.0
C361 C 0.12504 0.31155 0.43383 0.0
N362 N 0.29913 0.32149 0.42859 0.0
N363 N 0.11469 0.39239 0.37722 0.0
H364 H 0.01836 0.22257 0.49446 0.0
H365 H 0.02981 0.30254 0.46698 0.0
H366 H 0.14053 0.4412 0.34705 0.0
H367 H 0.04469 0.34784 0.38936 0.0
H368 H 0.36725 0.36267 0.41485 0.0
H369 H 0.27243 0.27114 0.45753 0.0
H370 H 0.40507 0.43909 0.3469 0.0
H371 H 0.40568 0.51172 0.31954 0.0
C372 C 0.74399 0.15244 0.82373 0.0
C373 C 0.83977 0.23061 0.84393 0.0
C374 C 0.83393 0.33627 0.84187 0.0
C375 C 0.73665 0.25738 0.82521 0.0
N376 N 0.59293 0.08715 0.80754 0.0
N377 N 0.96116 0.3852 0.88979 0.0
C378 C 0.68946 0.16406 0.8185 0.0
C379 C 0.88048 0.31922 0.85815 0.0
N380 N 0.7065 0.06881 0.80789 0.0
N381 N 0.88253 0.42809 0.84144 0.0
H382 H -0.00618 0.37248 0.90596 0.0
H383 H -0.01144 0.44702 0.9053 0.0
H384 H 0.851 0.44378 0.82895 0.0
H385 H 0.95648 0.48927 0.84819 0.0
H386 H 0.63834 0.01058 0.7913 0.0
H387 H 0.74592 0.05963 0.80779 0.0
H388 H 0.55146 0.01551 0.8075 0.0
H389 H 0.55258 0.09465 0.80132 0.0
C390 C 0.83495 0.01099 0.37908 0.0
C391 C 0.81545 0.95199 0.42017 0.0
C392 C 0.64978 0.81384 0.3865 0.0
C393 C 0.67041 0.87127 0.34444 0.0
N394 N 0.78179 0.02214 0.29786 0.0
N395 N 0.68913 0.81267 0.47661 0.0
C396 C 0.76261 0.96981 0.3404 0.0
C397 C 0.71855 0.8574 0.42776 0.0
N398 N 0.92304 0.10698 0.37735 0.0
N399 N 0.56331 0.71665 0.38693 0.0
H400 H 0.73628 0.84113 0.5082 0.0
H401 H 0.61698 0.75051 0.4871 0.0
H402 H 0.51611 0.68152 0.35428 0.0
H403 H 0.5432 0.6697 0.41621 0.0
H404 H 0.93953 0.15782 0.35448 0.0
H405 H 0.98084 0.1346 0.39841 0.0
H406 H 0.8497 0.0923 0.28865 0.0
H407 H 0.72966 -0.00815 0.269 0.0
C408 C 0.88765 0.70918 0.92506 0.0
C409 C 0.84834 0.73751 0.93271 0.0
C410 C 0.71754 0.60952 0.86915 0.0
C411 C 0.76019 0.58585 0.85981 0.0
N412 N 0.89508 0.62485 0.86891 0.0
N413 N 0.70944 0.6933 0.9249 0.0
C414 C 0.84813 0.6395 0.88476 0.0
C415 C 0.75874 0.68185 0.90801 0.0
N416 N 0.958 0.7428 0.9584 0.0
N417 N 0.63875 0.56413 0.8396 0.0
H418 H 0.73497 0.74159 0.95535 0.0
H419 H 0.63954 0.64893 0.91294 0.0
H420 H 0.60799 0.5113 0.81094 0.0
H421 H 0.60927 0.58425 0.83974 0.0
H422 H 0.97965 0.71473 0.95886 0.0
H423 H -0.0106 0.79234 0.9892 0.0
H424 H 0.96507 0.66915 0.88077 0.0
H425 H 0.8678 0.57456 0.83915 0.0
loop_
_geom_bond_atom_site_label_1
_geom_bond_atom_site_label_2
_geom_bond_distance
_geom_bond_site_symmetry_2
_ccdc_geom_bond_type
Gd0 N31 2.661 1_655 S
Gd0 N37 2.601 . S
Gd0 O44 2.545 1_545 S
Gd0 O45 2.606 1_546 S
Gd0 O47 2.429 1_545 S
Gd0 O48 2.545 1_545 S
Gd0 O49 2.412 . S
Gd0 O51 2.362 1_655 S
Gd0 O52 2.324 1_656 S
Gd0 C59 2.828 . S
Gd1 N10 2.661 1_455 S
Gd1 N14 2.601 . S
Gd1 O45 2.362 1_455 S
Gd1 O46 2.324 1_454 S
Gd1 O50 2.545 1_565 S
Gd1 O51 2.606 1_564 S
Gd1 O53 2.429 1_565 S
Gd1 O54 2.545 1_565 S
Gd1 O55 2.412 . S
Gd1 C68 2.828 . S
C2 C5 1.417 . S
C2 C7 1.431 . S
C2 C8 1.412 . S
C3 C6 1.437 . S
C3 C7 1.317 . S
C3 H22 0.929 . S
C4 C5 1.426 . S
C4 C6 1.413 . S
C4 N14 1.359 1_655 S
C5 C2 1.417 . S
C5 C4 1.426 . S
C5 N10 1.350 . S
C6 C3 1.437 . S
C6 C4 1.413 . S
C6 C16 1.391 1_655 S
C7 C2 1.431 . S
C7 C3 1.317 . S
C7 H18 0.930 . S
C8 C2 1.412 . S
C8 C9 1.355 . S
C8 H20 0.930 . S
C9 C8 1.355 . S
C9 C11 1.402 . S
C9 H21 0.930 . S
N10 Gd1 2.661 1_655 S
N10 C5 1.350 . S
N10 C11 1.307 . S
C11 C9 1.402 . S
C11 N10 1.307 . S
C11 H12 0.930 . S
H12 C11 0.930 . S
C13 N14 1.334 1_545 S
C13 C15 1.394 . S
C13 H17 0.930 . S
N14 Gd1 2.601 . S
N14 C4 1.359 1_455 S
N14 C13 1.334 1_565 S
C15 C13 1.394 . S
C15 C16 1.359 1_545 S
C15 H27 0.930 . S
C16 C6 1.391 1_455 S
C16 C15 1.359 1_565 S
C16 H28 0.929 . S
H17 C13 0.930 . S
H18 C7 0.930 . S
H19 C36 0.930 . S
H20 C8 0.930 . S
H21 C9 0.930 . S
H22 C3 0.929 . S
H23 C41 0.930 . S
H24 C32 0.930 . S
H25 C33 0.930 . S
H26 C57 0.929 . S
H27 C15 0.930 . S
H28 C16 0.929 . S
H29 C58 0.930 . S
H30 C39 0.930 . S
N31 Gd0 2.661 1_455 S
N31 C35 1.350 . S
N31 C36 1.307 . S
C32 H24 0.930 . S
C32 C33 1.355 . S
C32 C34 1.412 . S
C33 H25 0.930 . S
C33 C32 1.355 . S
C33 C36 1.402 . S
C34 C32 1.412 . S
C34 C35 1.417 . S
C34 C58 1.431 . S
C35 N31 1.350 . S
C35 C34 1.417 . S
C35 C38 1.426 . S
C36 H19 0.930 . S
C36 N31 1.307 . S
C36 C33 1.402 . S
N37 Gd0 2.601 . S
N37 C38 1.359 1_655 S
N37 C41 1.334 1_545 S
C38 C35 1.426 . S
C38 N37 1.359 1_455 S
C38 C42 1.413 . S
C39 H30 0.930 . S
C39 C40 1.359 1_565 S
C39 C41 1.394 . S
C40 C39 1.359 1_545 S
C40 C42 1.391 1_655 S
C40 H43 0.929 . S
C41 H23 0.930 . S
C41 N37 1.334 1_565 S
C41 C39 1.394 . S
C42 C38 1.413 . S
C42 C40 1.391 1_455 S
C42 C57 1.437 . S
H43 C40 0.929 . S
O44 Gd0 2.545 1_565 S
O44 C59 1.258 1_565 S
O45 Gd0 2.606 1_564 S
O45 Gd1 2.362 1_655 S
O45 C56 1.284 . S
O46 Gd1 2.324 1_656 S
O46 C66 1.254 . S
O47 Gd0 2.429 1_565 S
O47 C66 1.268 . S
O48 Gd0 2.545 1_565 S
O48 C56 1.250 1_556 S
O49 Gd0 2.412 . S
O49 C59 1.252 . S
O50 Gd1 2.545 1_545 S
O50 C68 1.258 1_545 S
O51 Gd0 2.362 1_455 S
O51 Gd1 2.606 1_546 S
O51 C67 1.284 . S
O52 Gd0 2.324 1_454 S
O52 C75 1.254 . S
O53 Gd1 2.429 1_545 S
O53 C75 1.268 . S
O54 Gd1 2.545 1_545 S
O54 C67 1.250 1_554 S
O55 Gd1 2.412 . S
O55 C68 1.252 . S
C56 O45 1.284 . S
C56 O48 1.250 1_554 S
C57 H26 0.929 . S
C57 C42 1.437 . S
C57 C58 1.317 . S
C58 H29 0.930 . S
C58 C34 1.431 . S
C58 C57 1.317 . S
C59 Gd0 2.828 . S
C59 O44 1.258 1_545 S
C59 O49 1.252 . S
C59 C60 1.497 . S
C60 C59 1.497 . S
C60 C61 1.395 . S
C60 C62 1.380 . S
C61 C60 1.395 . S
C61 C64 1.398 . S
C61 H76 0.930 . S
C62 C60 1.380 . S
C62 C63 1.391 . S
C62 H77 0.930 . S
C63 C62 1.391 . S
C63 C65 1.387 . S
C64 C61 1.398 . S
C64 C65 1.380 . S
C64 H78 0.930 . S
C65 C63 1.387 . S
C65 C64 1.380 . S
C65 H79 0.930 . S
C66 O46 1.254 . S
C66 O47 1.268 . S
C67 O51 1.284 . S
C67 O54 1.250 1_556 S
C68 Gd1 2.828 . S
C68 O50 1.258 1_565 S
C68 O55 1.252 . S
C68 C69 1.497 . S
C69 C68 1.497 . S
C69 C70 1.395 . S
C69 C71 1.380 . S
C70 C69 1.395 . S
C70 C73 1.398 . S
C70 H80 0.930 . S
C71 C69 1.380 . S
C71 C72 1.391 . S
C71 H81 0.930 . S
C72 C71 1.391 . S
C72 C74 1.387 . S
C73 C70 1.398 . S
C73 C74 1.380 . S
C73 H82 0.930 . S
C74 C72 1.387 . S
C74 C73 1.380 . S
C74 H83 0.930 . S
C75 O52 1.254 . S
C75 O53 1.268 . S
H76 C61 0.930 . S
H77 C62 0.930 . S
H78 C64 0.930 . S
H79 C65 0.930 . S
H80 C70 0.930 . S
H81 C71 0.930 . S
H82 C73 0.930 . S
H83 C74 0.930 . S
Gd84 N115 2.661 1_455 S
Gd84 N121 2.601 1_565 S
Gd84 O128 2.545 1_565 S
Gd84 O129 2.606 1_565 S
Gd84 O131 2.429 1_565 S
Gd84 O132 2.545 1_565 S
Gd84 O133 2.412 . S
Gd84 O135 2.362 1_455 S
Gd84 O136 2.324 1_455 S
Gd84 C143 2.828 . S
Gd85 N94 2.661 1_655 S
Gd85 N98 2.601 1_655 S
Gd85 O129 2.362 1_655 S
Gd85 O130 2.324 1_655 S
Gd85 O134 2.545 . S
Gd85 O135 2.606 1_545 S
Gd85 O137 2.429 1_545 S
Gd85 O138 2.545 1_545 S
Gd85 O139 2.412 . S
Gd85 C152 2.828 . S
C86 C89 1.417 . S
C86 C91 1.431 . S
C86 C92 1.412 . S
C87 C90 1.437 . S
C87 C91 1.317 . S
C87 H106 0.929 . S
C88 C89 1.426 . S
C88 C90 1.413 . S
C88 N98 1.359 . S
C89 C86 1.417 . S
C89 C88 1.426 . S
C89 N94 1.350 . S
C90 C87 1.437 . S
C90 C88 1.413 . S
C90 C100 1.391 . S
C91 C86 1.431 . S
C91 C87 1.317 . S
C91 H102 0.930 . S
C92 C86 1.412 . S
C92 C93 1.355 . S
C92 H104 0.930 . S
C93 C92 1.355 . S
C93 C95 1.402 . S
C93 H105 0.930 . S
N94 Gd85 2.661 1_455 S
N94 C89 1.350 . S
N94 C95 1.307 . S
C95 C93 1.402 . S
C95 N94 1.307 . S
C95 H96 0.930 . S
H96 C95 0.930 . S
C97 N98 1.334 1_665 S
C97 C99 1.394 . S
C97 H101 0.930 . S
N98 Gd85 2.601 1_455 S
N98 C88 1.359 . S
N98 C97 1.334 1_445 S
C99 C97 1.394 . S
C99 C100 1.359 1_665 S
C99 H111 0.930 . S
C100 C90 1.391 . S
C100 C99 1.359 1_445 S
C100 H112 0.929 . S
H101 C97 0.930 . S
H102 C91 0.930 . S
H103 C120 0.930 . S
H104 C92 0.930 . S
H105 C93 0.930 . S
H106 C87 0.929 . S
H107 C125 0.930 . S
H108 C116 0.930 . S
H109 C117 0.930 . S
H110 C141 0.929 . S
H111 C99 0.930 . S
H112 C100 0.929 . S
H113 C142 0.930 . S
H114 C123 0.930 . S
N115 Gd84 2.661 1_655 S
N115 C119 1.350 . S
N115 C120 1.307 . S
C116 H108 0.930 . S
C116 C117 1.355 . S
C116 C118 1.412 . S
C117 H109 0.930 . S
C117 C116 1.355 . S
C117 C120 1.402 . S
C118 C116 1.412 . S
C118 C119 1.417 . S
C118 C142 1.431 . S
C119 N115 1.350 . S
C119 C118 1.417 . S
C119 C122 1.426 . S
C120 H103 0.930 . S
C120 N115 1.307 . S
C120 C117 1.402 . S
N121 Gd84 2.601 1_545 S
N121 C122 1.359 1_445 S
N121 C125 1.334 . S
C122 C119 1.426 . S
C122 N121 1.359 1_665 S
C122 C126 1.413 . S
C123 H114 0.930 . S
C123 C124 1.359 . S
C123 C125 1.394 . S
C124 C123 1.359 . S
C124 C126 1.391 1_445 S
C124 H127 0.929 . S
C125 H107 0.930 . S
C125 N121 1.334 . S
C125 C123 1.394 . S
C126 C122 1.413 . S
C126 C124 1.391 1_665 S
C126 C141 1.437 . S
H127 C124 0.929 . S
O128 Gd84 2.545 1_545 S
O128 C143 1.258 1_545 S
O129 Gd84 2.606 1_545 S
O129 Gd85 2.362 1_455 S
O129 C140 1.284 . S
O130 Gd85 2.324 1_455 S
O130 C150 1.254 . S
O131 Gd84 2.429 1_545 S
O131 C150 1.268 . S
O132 Gd84 2.545 1_545 S
O132 C140 1.250 . S
O133 Gd84 2.412 . S
O133 C143 1.252 . S
O134 Gd85 2.545 . S
O134 C152 1.258 . S
O135 Gd84 2.362 1_655 S
O135 Gd85 2.606 1_565 S
O135 C151 1.284 . S
O136 Gd84 2.324 1_655 S
O136 C159 1.254 . S
O137 Gd85 2.429 1_565 S
O137 C159 1.268 . S
O138 Gd85 2.545 1_565 S
O138 C151 1.250 . S
O139 Gd85 2.412 . S
O139 C152 1.252 . S
C140 O129 1.284 . S
C140 O132 1.250 . S
C141 H110 0.929 . S
C141 C126 1.437 . S
C141 C142 1.317 . S
C142 H113 0.930 . S
C142 C118 1.431 . S
C142 C141 1.317 . S
C143 Gd84 2.828 . S
C143 O128 1.258 1_565 S
C143 O133 1.252 . S
C143 C144 1.497 . S
C144 C143 1.497 . S
C144 C145 1.395 . S
C144 C146 1.380 . S
C145 C144 1.395 . S
C145 C148 1.398 . S
C145 H160 0.930 1_565 S
C146 C144 1.380 . S
C146 C147 1.391 . S
C146 H161 0.930 . S
C147 C146 1.391 . S
C147 C149 1.387 . S
C148 C145 1.398 . S
C148 C149 1.380 . S
C148 H162 0.930 . S
C149 C147 1.387 . S
C149 C148 1.380 . S
C149 H163 0.930 . S
C150 O130 1.254 . S
C150 O131 1.268 . S
C151 O135 1.284 . S
C151 O138 1.250 . S
C152 Gd85 2.828 . S
C152 O134 1.258 . S
C152 O139 1.252 . S
C152 C153 1.497 . S
C153 C152 1.497 . S
C153 C154 1.395 . S
C153 C155 1.380 . S
C154 C153 1.395 . S
C154 C157 1.398 . S
C154 H164 0.930 . S
C155 C153 1.380 . S
C155 C156 1.391 . S
C155 H165 0.930 . S
C156 C155 1.391 . S
C156 C158 1.387 . S
C157 C154 1.398 . S
C157 C158 1.380 . S
C157 H166 0.930 . S
C158 C156 1.387 . S
C158 C157 1.380 . S
C158 H167 0.930 . S
C159 O136 1.254 . S
C159 O137 1.268 . S
H160 C145 0.930 1_545 S
H161 C146 0.930 . S
H162 C148 0.930 . S
H163 C149 0.930 . S
H164 C154 0.930 . S
H165 C155 0.930 . S
H166 C157 0.930 . S
H167 C158 0.930 . S
Zn168 O174 1.920 . S
Zn168 O180 1.898 . S
Zn168 O183 1.905 . S
Zn169 O177 1.905 . S
Zn169 O178 1.898 . S
Zn169 O186 1.920 . S
Zn170 O173 2.080 . S
Zn170 O176 2.114 . S
Zn170 O179 2.120 . S
Zn170 O181 2.120 . S
Zn170 O182 2.114 . S
Zn170 O185 2.080 . S
C171 O176 1.166 . S
C171 O177 1.182 . S
C172 O178 1.167 . S
C172 O179 1.299 . S
O173 Zn170 2.080 . S
O173 C187 1.305 . S
O174 Zn168 1.920 . S
O174 C187 1.234 . S
C175 O180 1.167 . S
C175 O181 1.299 . S
O176 Zn170 2.114 . S
O176 C171 1.166 . S
O177 Zn169 1.905 . S
O177 C171 1.182 . S
O178 Zn169 1.898 . S
O178 C172 1.167 . S
O179 Zn170 2.120 . S
O179 C172 1.299 . S
O180 Zn168 1.898 . S
O180 C175 1.167 . S
O181 Zn170 2.120 . S
O181 C175 1.299 . S
O182 Zn170 2.114 . S
O182 C184 1.166 . S
O183 Zn168 1.905 . S
O183 C184 1.182 . S
C184 O182 1.166 . S
C184 O183 1.182 . S
O185 Zn170 2.080 . S
O185 C188 1.305 . S
O186 Zn169 1.920 . S
O186 C188 1.234 . S
C187 O173 1.305 . S
C187 O174 1.234 . S
C188 O185 1.305 . S
C188 O186 1.234 . S
Zn189 O195 1.920 . S
Zn189 O201 1.898 . S
Zn189 O204 1.905 . S
Zn190 O198 1.905 . S
Zn190 O199 1.898 . S
Zn190 O207 1.920 . S
Zn191 O194 2.080 . S
Zn191 O197 2.114 . S
Zn191 O200 2.120 . S
Zn191 O202 2.120 . S
Zn191 O203 2.114 . S
Zn191 O206 2.080 . S
C192 O197 1.166 . S
C192 O198 1.182 . S
C193 O199 1.167 . S
C193 O200 1.299 . S
O194 Zn191 2.080 . S
O194 C208 1.305 . S
O195 Zn189 1.920 . S
O195 C208 1.234 . S
C196 O201 1.167 . S
C196 O202 1.299 . S
O197 Zn191 2.114 . S
O197 C192 1.166 . S
O198 Zn190 1.905 . S
O198 C192 1.182 . S
O199 Zn190 1.898 . S
O199 C193 1.167 . S
O200 Zn191 2.120 . S
O200 C193 1.299 . S
O201 Zn189 1.898 . S
O201 C196 1.167 . S
O202 Zn191 2.120 . S
O202 C196 1.299 . S
O203 Zn191 2.114 . S
O203 C205 1.166 . S
O204 Zn189 1.905 . S
O204 C205 1.182 . S
C205 O203 1.166 . S
C205 O204 1.182 . S
O206 Zn191 2.080 . S
O206 C209 1.305 . S
O207 Zn190 1.920 . S
O207 C209 1.234 . S
C208 O194 1.305 . S
C208 O195 1.234 . S
C209 O206 1.305 . S
C209 O207 1.234 . S
C210 C211 1.363 . S
C210 C216 1.379 . S
C210 N218 1.356 . S
C211 C210 1.363 . S
C211 C217 1.363 . S
C212 C213 1.363 . S
C212 C217 1.379 . S
C212 N219 1.356 . S
C213 C212 1.363 . S
C213 C216 1.363 . S
N214 C216 1.356 . S
N214 H226 0.984 . S
N214 H227 0.985 . S
N215 C217 1.356 . S
N215 H220 0.984 . S
N215 H221 0.985 . S
C216 C210 1.379 . S
C216 C213 1.363 . S
C216 N214 1.356 . S
C217 C211 1.363 . S
C217 C212 1.379 . S
C217 N215 1.356 . S
N218 C210 1.356 . S
N218 H224 0.984 . S
N218 H225 0.984 . S
N219 C212 1.356 . S
N219 H222 0.984 . S
N219 H223 0.985 . S
H220 N215 0.984 . S
H221 N215 0.985 . S
H222 N219 0.984 . S
H223 N219 0.985 . S
H224 N218 0.984 . S
H225 N218 0.984 . S
H226 N214 0.984 . S
H227 N214 0.985 . S
C228 C229 1.363 . S
C228 C234 1.379 . S
C228 N236 1.356 . S
C229 C228 1.363 . S
C229 C235 1.363 . S
C230 C231 1.363 . S
C230 C235 1.379 . S
C230 N237 1.356 . S
C231 C230 1.363 . S
C231 C234 1.363 . S
N232 C234 1.356 . S
N232 H244 0.984 . S
N232 H245 0.985 . S
N233 C235 1.356 . S
N233 H238 0.984 . S
N233 H239 0.985 1_545 S
C234 C228 1.379 . S
C234 C231 1.363 . S
C234 N232 1.356 . S
C235 C229 1.363 . S
C235 C230 1.379 . S
C235 N233 1.356 . S
N236 C228 1.356 . S
N236 H242 0.984 . S
N236 H243 0.984 . S
N237 C230 1.356 . S
N237 H240 0.984 . S
N237 H241 0.985 . S
H238 N233 0.984 . S
H239 N233 0.985 1_565 S
H240 N237 0.984 . S
H241 N237 0.985 . S
H242 N236 0.984 . S
H243 N236 0.984 . S
H244 N232 0.984 . S
H245 N232 0.985 . S
C246 C247 1.363 . S
C246 C252 1.379 . S
C246 N254 1.356 . S
C247 C246 1.363 . S
C247 C253 1.363 . S
C248 C249 1.363 . S
C248 C253 1.379 . S
C248 N255 1.356 . S
C249 C248 1.363 . S
C249 C252 1.363 . S
N250 C252 1.356 . S
N250 H262 0.984 . S
N250 H263 0.985 . S
N251 C253 1.356 . S
N251 H256 0.984 . S
N251 H257 0.985 . S
C252 C246 1.379 . S
C252 C249 1.363 . S
C252 N250 1.356 . S
C253 C247 1.363 . S
C253 C248 1.379 . S
C253 N251 1.356 . S
N254 C246 1.356 . S
N254 H260 0.984 1_554 S
N254 H261 0.984 . S
N255 C248 1.356 . S
N255 H258 0.984 . S
N255 H259 0.985 . S
H256 N251 0.984 . S
H257 N251 0.985 . S
H258 N255 0.984 . S
H259 N255 0.985 . S
H260 N254 0.984 1_556 S
H261 N254 0.984 . S
H262 N250 0.984 . S
H263 N250 0.985 . S
C264 C265 1.363 . S
C264 C270 1.379 . S
C264 N272 1.356 . S
C265 C264 1.363 . S
C265 C271 1.363 . S
C266 C267 1.363 . S
C266 C271 1.379 . S
C266 N273 1.356 . S
C267 C266 1.363 . S
C267 C270 1.363 . S
N268 C270 1.356 . S
N268 H280 0.984 . S
N268 H281 0.985 . S
N269 C271 1.356 . S
N269 H274 0.984 . S
N269 H275 0.985 1_655 S
C270 C264 1.379 . S
C270 C267 1.363 . S
C270 N268 1.356 . S
C271 C265 1.363 . S
C271 C266 1.379 . S
C271 N269 1.356 . S
N272 C264 1.356 . S
N272 H278 0.984 . S
N272 H279 0.984 . S
N273 C266 1.356 . S
N273 H276 0.984 . S
N273 H277 0.985 . S
H274 N269 0.984 . S
H275 N269 0.985 1_455 S
H276 N273 0.984 . S
H277 N273 0.985 . S
H278 N272 0.984 . S
H279 N272 0.984 . S
H280 N268 0.984 . S
H281 N268 0.985 . S
C282 C283 1.363 . S
C282 C288 1.379 . S
C282 N290 1.356 . S
C283 C282 1.363 . S
C283 C289 1.363 . S
C284 C285 1.363 . S
C284 C289 1.379 . S
C284 N291 1.356 . S
C285 C284 1.363 . S
C285 C288 1.363 . S
N286 C288 1.356 . S
N286 H298 0.984 . S
N286 H299 0.985 . S
N287 C289 1.356 1_545 S
N287 H292 0.984 . S
N287 H293 0.985 . S
C288 C282 1.379 . S
C288 C285 1.363 . S
C288 N286 1.356 . S
C289 C283 1.363 . S
C289 C284 1.379 . S
C289 N287 1.356 1_565 S
N290 C282 1.356 . S
N290 H296 0.984 . S
N290 H297 0.984 . S
N291 C284 1.356 . S
N291 H294 0.984 . S
N291 H295 0.985 1_565 S
H292 N287 0.984 . S
H293 N287 0.985 . S
H294 N291 0.984 . S
H295 N291 0.985 1_545 S
H296 N290 0.984 . S
H297 N290 0.984 . S
H298 N286 0.984 . S
H299 N286 0.985 . S
C300 C301 1.363 . S
C300 C306 1.379 . S
C300 N308 1.356 . S
C301 C300 1.363 . S
C301 C307 1.363 . S
C302 C303 1.363 . S
C302 C307 1.379 . S
C302 N309 1.356 . S
C303 C302 1.363 . S
C303 C306 1.363 . S
N304 C306 1.356 . S
N304 H316 0.984 . S
N304 H317 0.985 . S
N305 C307 1.356 1_455 S
N305 H310 0.984 . S
N305 H311 0.985 . S
C306 C300 1.379 . S
C306 C303 1.363 . S
C306 N304 1.356 . S
C307 C301 1.363 . S
C307 C302 1.379 . S
C307 N305 1.356 1_655 S
N308 C300 1.356 . S
N308 H314 0.984 . S
N308 H315 0.984 . S
N309 C302 1.356 . S
N309 H312 0.984 . S
N309 H313 0.985 . S
H310 N305 0.984 . S
H311 N305 0.985 . S
H312 N309 0.984 . S
H313 N309 0.985 . S
H314 N308 0.984 . S
H315 N308 0.984 . S
H316 N304 0.984 . S
H317 N304 0.985 . S
C318 C319 1.363 . S
C318 C324 1.379 . S
C318 N326 1.356 . S
C319 C318 1.363 . S
C319 C325 1.363 . S
C320 C321 1.363 . S
C320 C325 1.379 . S
C320 N327 1.356 . S
C321 C320 1.363 . S
C321 C324 1.363 . S
N322 C324 1.356 . S
N322 H334 0.984 . S
N322 H335 0.985 . S
N323 C325 1.356 . S
N323 H328 0.984 . S
N323 H329 0.985 . S
C324 C318 1.379 . S
C324 C321 1.363 . S
C324 N322 1.356 . S
C325 C319 1.363 . S
C325 C320 1.379 . S
C325 N323 1.356 . S
N326 C318 1.356 . S
N326 H332 0.984 . S
N326 H333 0.984 . S
N327 C320 1.356 . S
N327 H330 0.984 . S
N327 H331 0.985 . S
H328 N323 0.984 . S
H329 N323 0.985 . S
H330 N327 0.984 . S
H331 N327 0.985 . S
H332 N326 0.984 . S
H333 N326 0.984 . S
H334 N322 0.984 . S
H335 N322 0.985 . S
C336 C337 1.363 . S
C336 C342 1.379 . S
C336 N344 1.356 1_545 S
C337 C336 1.363 . S
C337 C343 1.363 . S
C338 C339 1.363 . S
C338 C343 1.379 . S
C338 N345 1.356 . S
C339 C338 1.363 . S
C339 C342 1.363 . S
N340 C342 1.356 . S
N340 H352 0.984 . S
N340 H353 0.985 . S
N341 C343 1.356 . S
N341 H346 0.984 . S
N341 H347 0.985 . S
C342 C336 1.379 . S
C342 C339 1.363 . S
C342 N340 1.356 . S
C343 C337 1.363 . S
C343 C338 1.379 . S
C343 N341 1.356 . S
N344 C336 1.356 1_565 S
N344 H350 0.984 . S
N344 H351 0.984 . S
N345 C338 1.356 . S
N345 H348 0.984 . S
N345 H349 0.985 . S
H346 N341 0.984 . S
H347 N341 0.985 . S
H348 N345 0.984 . S
H349 N345 0.985 . S
H350 N344 0.984 . S
H351 N344 0.984 . S
H352 N340 0.984 . S
H353 N340 0.985 . S
C354 C355 1.363 . S
C354 C360 1.379 . S
C354 N362 1.356 . S
C355 C354 1.363 . S
C355 C361 1.363 . S
C356 C357 1.363 . S
C356 C361 1.379 . S
C356 N363 1.356 . S
C357 C356 1.363 . S
C357 C360 1.363 . S
N358 C360 1.356 . S
N358 H370 0.984 . S
N358 H371 0.985 . S
N359 C361 1.356 . S
N359 H364 0.984 . S
N359 H365 0.985 . S
C360 C354 1.379 . S
C360 C357 1.363 . S
C360 N358 1.356 . S
C361 C355 1.363 . S
C361 C356 1.379 . S
C361 N359 1.356 . S
N362 C354 1.356 . S
N362 H368 0.984 . S
N362 H369 0.984 . S
N363 C356 1.356 . S
N363 H366 0.984 . S
N363 H367 0.985 . S
H364 N359 0.984 . S
H365 N359 0.985 . S
H366 N363 0.984 . S
H367 N363 0.985 . S
H368 N362 0.984 . S
H369 N362 0.984 . S
H370 N358 0.984 . S
H371 N358 0.985 . S
C372 C373 1.363 . S
C372 C378 1.379 . S
C372 N380 1.356 . S
C373 C372 1.363 . S
C373 C379 1.363 . S
C374 C375 1.363 . S
C374 C379 1.379 . S
C374 N381 1.356 . S
C375 C374 1.363 . S
C375 C378 1.363 . S
N376 C378 1.356 . S
N376 H388 0.984 . S
N376 H389 0.985 . S
N377 C379 1.356 . S
N377 H382 0.984 . S
N377 H383 0.985 . S
C378 C372 1.379 . S
C378 C375 1.363 . S
C378 N376 1.356 . S
C379 C373 1.363 . S
C379 C374 1.379 . S
C379 N377 1.356 . S
N380 C372 1.356 . S
N380 H386 0.984 . S
N380 H387 0.984 . S
N381 C374 1.356 . S
N381 H384 0.984 . S
N381 H385 0.985 . S
H382 N377 0.984 . S
H383 N377 0.985 . S
H384 N381 0.984 . S
H385 N381 0.985 . S
H386 N380 0.984 . S
H387 N380 0.984 . S
H388 N376 0.984 . S
H389 N376 0.985 . S
C390 C391 1.363 . S
C390 C396 1.379 . S
C390 N398 1.356 1_565 S
C391 C390 1.363 . S
C391 C397 1.363 . S
C392 C393 1.363 . S
C392 C397 1.379 . S
C392 N399 1.356 . S
C393 C392 1.363 . S
C393 C396 1.363 . S
N394 C396 1.356 . S
N394 H406 0.984 . S
N394 H407 0.985 . S
N395 C397 1.356 . S
N395 H400 0.984 . S
N395 H401 0.985 . S
C396 C390 1.379 . S
C396 C393 1.363 . S
C396 N394 1.356 . S
C397 C391 1.363 . S
C397 C392 1.379 . S
C397 N395 1.356 . S
N398 C390 1.356 1_545 S
N398 H404 0.984 . S
N398 H405 0.984 . S
N399 C392 1.356 . S
N399 H402 0.984 . S
N399 H403 0.985 . S
H400 N395 0.984 . S
H401 N395 0.985 . S
H402 N399 0.984 . S
H403 N399 0.985 . S
H404 N398 0.984 . S
H405 N398 0.984 . S
H406 N394 0.984 . S
H407 N394 0.985 . S
C408 C409 1.363 . S
C408 C414 1.379 . S
C408 N416 1.356 . S
C409 C408 1.363 . S
C409 C415 1.363 . S
C410 C411 1.363 . S
C410 C415 1.379 . S
C410 N417 1.356 . S
C411 C410 1.363 . S
C411 C414 1.363 . S
N412 C414 1.356 . S
N412 H424 0.984 . S
N412 H425 0.985 . S
N413 C415 1.356 . S
N413 H418 0.984 . S
N413 H419 0.985 . S
C414 C408 1.379 . S
C414 C411 1.363 . S
C414 N412 1.356 . S
C415 C409 1.363 . S
C415 C410 1.379 . S
C415 N413 1.356 . S
N416 C408 1.356 . S
N416 H422 0.984 1_655 S
N416 H423 0.993 1_655 S
N417 C410 1.356 . S
N417 H420 0.984 . S
N417 H421 0.985 . S
H418 N413 0.984 . S
H419 N413 0.985 . S
H420 N417 0.984 . S
H421 N417 0.985 . S
H422 N416 0.984 1_455 S
H423 N416 0.993 1_455 S
H424 N412 0.984 . S
H425 N412 0.985 . S
C211 C72 1.188 . S
C213 C187 1.292 . S
C229 C140 1.614 . S
C231 C193 1.460 . S
C247 C75 1.576 . S
C249 C184 1.488 . S
C265 C156 1.188 . S
C267 C209 1.292 . S
C283 C56 1.614 . S
C285 C175 1.460 . S
C303 C192 1.488 . S
C301 C159 1.576 . S
C319 C147 1.148 . S
C321 C188 1.297 . S
C339 C205 1.500 . S
C337 C67 1.633 . S
C357 C172 1.433 . S
C355 C150 1.626 . S
C375 C208 1.297 . S
C373 C63 1.148 . S
C393 C171 1.500 . S
C391 C151 1.633 . S
C411 C196 1.433 . S
C409 C66 1.626 . S
