# Generated by pormake.
# Topology ssa, (4,4)-cn, num edge types: 1
# Building blocks:
#     Node 0, Type 0, BuildingBlock: KOZSID_clean_sbu_0, # of connection points: 4
#     Node 1, Type 0, BuildingBlock: KOZSID_clean_sbu_0, # of connection points: 4
#     Node 2, Type 0, BuildingBlock: KOZSID_clean_sbu_0, # of connection points: 4
#     Node 3, Type 0, BuildingBlock: KOZSID_clean_sbu_0, # of connection points: 4
#     Node 4, Type 0, BuildingBlock: KOZSID_clean_sbu_0, # of connection points: 4
#     Node 5, Type 0, BuildingBlock: KOZSID_clean_sbu_0, # of connection points: 4
#     Node 6, Type 1, BuildingBlock: MUDLON_clean_sbu_0, # of connection points: 4
#     Node 7, Type 1, BuildingBlock: MUDLON_clean_sbu_0, # of connection points: 4
#     Node 8, Type 1, BuildingBlock: MUDLON_clean_sbu_0, # of connection points: 4
#     Node 9, Type 1, BuildingBlock: MUDLON_clean_sbu_0, # of connection points: 4
#     Node 10, Type 1, BuildingBlock: MUDLON_clean_sbu_0, # of connection points: 4
#     Node 11, Type 1, BuildingBlock: MUDLON_clean_sbu_0, # of connection points: 4
#     Edge 12, Type (0, 1), BuildingBlock: UVAHIK_clean_linker_0, # of connection points: 2
#     Edge 13, Type (0, 1), BuildingBlock: UVAHIK_clean_linker_0, # of connection points: 2
#     Edge 14, Type (0, 1), BuildingBlock: UVAHIK_clean_linker_0, # of connection points: 2
#     Edge 15, Type (0, 1), BuildingBlock: UVAHIK_clean_linker_0, # of connection points: 2
#     Edge 16, Type (0, 1), BuildingBlock: UVAHIK_clean_linker_0, # of connection points: 2
#     Edge 17, Type (0, 1), BuildingBlock: UVAHIK_clean_linker_0, # of connection points: 2
#     Edge 18, Type (0, 1), BuildingBlock: UVAHIK_clean_linker_0, # of connection points: 2
#     Edge 19, Type (0, 1), BuildingBlock: UVAHIK_clean_linker_0, # of connection points: 2
#     Edge 20, Type (0, 1), BuildingBlock: UVAHIK_clean_linker_0, # of connection points: 2
#     Edge 21, Type (0, 1), BuildingBlock: UVAHIK_clean_linker_0, # of connection points: 2
#     Edge 22, Type (0, 1), BuildingBlock: UVAHIK_clean_linker_0, # of connection points: 2
#     Edge 23, Type (0, 1), BuildingBlock: UVAHIK_clean_linker_0, # of connection points: 2
#     Edge 24, Type (0, 1), BuildingBlock: UVAHIK_clean_linker_0, # of connection points: 2
#     Edge 25, Type (0, 1), BuildingBlock: UVAHIK_clean_linker_0, # of connection points: 2
#     Edge 26, Type (0, 1), BuildingBlock: UVAHIK_clean_linker_0, # of connection points: 2
#     Edge 27, Type (0, 1), BuildingBlock: UVAHIK_clean_linker_0, # of connection points: 2
#     Edge 28, Type (0, 1), BuildingBlock: UVAHIK_clean_linker_0, # of connection points: 2
#     Edge 29, Type (0, 1), BuildingBlock: UVAHIK_clean_linker_0, # of connection points: 2
#     Edge 30, Type (0, 1), BuildingBlock: UVAHIK_clean_linker_0, # of connection points: 2
#     Edge 31, Type (0, 1), BuildingBlock: UVAHIK_clean_linker_0, # of connection points: 2
#     Edge 32, Type (0, 1), BuildingBlock: UVAHIK_clean_linker_0, # of connection points: 2
#     Edge 33, Type (0, 1), BuildingBlock: UVAHIK_clean_linker_0, # of connection points: 2
#     Edge 34, Type (0, 1), BuildingBlock: UVAHIK_clean_linker_0, # of connection points: 2
#     Edge 35, Type (0, 1), BuildingBlock: UVAHIK_clean_linker_0, # of connection points: 2
# Relax obj value: 0.014
# Max RMSD: 0.033
# Mean RMSD: 0.021
data_MOF--net-ssa--node1-KOZSID_clean_sbu_0--node2-MUDLON_clean_sbu_0--edge1-UVAHIK_clean_linker_0
_symmetry_space_group_name_H-M    P1
_symmetry_Int_Tables_number       1
_symmetry_cell_setting            triclinic
loop_
_symmetry_equiv_pos_as_xyz
'x, y, z'
_cell_length_a     60.022047
_cell_length_b     61.359364
_cell_length_c     57.164703
_cell_angle_alpha  87.85761
_cell_angle_beta   89.975376
_cell_angle_gamma 122.33483
loop_
_atom_site_label
_atom_site_type_symbol
_atom_site_fract_x
_atom_site_fract_y
_atom_site_fract_z
_atom_type_partial_charge
C0 C 0.95867 0.50493 0.01121 0.0
C1 C 0.93319 0.49023 0.02054 0.0
C2 C 0.93371 0.47535 0.03862 0.0
C3 C 0.95931 0.48164 0.03916 0.0
N4 N 0.9754 0.50028 0.02305 0.0
Co5 Co 0.01299 0.51239 0.01516 0.0
N6 N 0.01273 0.48756 0.03907 0.0
C7 C 0.99258 0.47081 0.05376 0.0
C8 C 0.999 0.45769 0.06946 0.0
C9 C 0.02506 0.46724 0.06502 0.0
C10 C 0.03298 0.48569 0.04683 0.0
N11 N 0.05013 0.52372 0.00645 0.0
C12 C 0.06657 0.5178 0.017 0.0
C13 C 0.09126 0.53072 0.00599 0.0
C14 C 0.0905 0.54568 0.98811 0.0
C15 C 0.06553 0.54113 0.98922 0.0
N16 N 0.01364 0.538 0.99201 0.0
C17 C 0.03447 0.55633 0.97885 0.0
C18 C 0.02842 0.57047 0.96405 0.0
C19 C 0.00201 0.56004 0.96757 0.0
C20 C 0.99352 0.54002 0.98427 0.0
N21 N 0.02622 0.53869 0.03962 0.0
C22 C 0.04808 0.57385 0.07614 0.0
C23 C 0.06073 0.57961 0.05416 0.0
C24 C 0.04949 0.56207 0.03632 0.0
C25 C 0.02372 0.55048 0.07911 0.0
C26 C 0.01327 0.53338 0.06084 0.0
N27 N 0.99976 0.4861 0.99074 0.0
C28 C 0.99579 0.47556 0.94988 0.0
C29 C 0.97657 0.4496 0.95537 0.0
C30 C 0.97003 0.44221 0.9791 0.0
C31 C 0.9816 0.46056 0.99626 0.0
C32 C 0.00722 0.4932 0.96765 0.0
H33 H 0.97519 0.45362 0.01386 0.0
H34 H 0.02163 0.51265 0.96218 0.0
H35 H 0.06038 0.56768 0.02016 0.0
H36 H 0.99489 0.5158 0.06447 0.0
C37 C 0.96826 0.46872 0.053 0.0
C38 C 0.96581 0.52127 0.98985 0.0
C39 C 0.06036 0.50243 0.03886 0.0
C40 C 0.0577 0.5563 0.97752 0.0
H41 H 0.91575 0.48943 0.01439 0.0
H42 H 0.91709 0.46067 0.04923 0.0
H43 H 0.98649 0.44358 0.08306 0.0
H44 H 0.03718 0.46199 0.07462 0.0
H45 H 0.10849 0.53048 0.01103 0.0
H46 H 0.1068 0.55962 0.97677 0.0
H47 H 0.04119 0.58522 0.95098 0.0
H48 H 0.98999 0.56537 0.9579 0.0
H49 H 0.0797 0.59728 0.05081 0.0
H50 H 0.01266 0.54522 0.09552 0.0
H51 H 0.00161 0.4826 0.93189 0.0
H52 H 0.9559 0.42231 0.98457 0.0
C53 C 0.55099 0.0141 0.55476 0.0
C54 C 0.55107 1.00023 0.57446 0.0
C55 C 0.52639 0.97848 0.57671 0.0
C56 C 0.51276 0.98022 0.55825 0.0
N57 N 0.52746 0.00145 0.54399 0.0
Co58 Co 0.51523 0.01232 0.51583 0.0
N59 N 0.47783 0.98262 0.52123 0.0
C60 C 0.4684 0.96493 0.53936 0.0
C61 C 0.44241 0.94572 0.53736 0.0
C62 C 0.43498 0.95104 0.51643 0.0
C63 C 0.45694 0.97335 0.50684 0.0
N64 N 0.50305 0.02287 0.48739 0.0
C65 C 0.47979 0.00965 0.47626 0.0
C66 C 0.47988 0.02283 0.45598 0.0
C67 C 0.50443 0.04475 0.45373 0.0
C68 C 0.51781 0.0437 0.47273 0.0
N69 N 0.55254 0.04229 0.51065 0.0
C70 C 0.56168 0.06063 0.49306 0.0
C71 C 0.58746 0.08018 0.49533 0.0
C72 C 0.59509 0.07442 0.5159 0.0
C73 C 0.57348 0.05144 0.525 0.0
N74 N 0.52187 0.99053 0.49586 0.0
C75 C 0.52185 0.95717 0.46338 0.0
C76 C 0.53477 0.98369 0.45815 0.0
C77 C 0.53472 0.99991 0.47459 0.0
C78 C 0.5107 0.94797 0.4858 0.0
C79 C 0.51115 0.9649 0.50171 0.0
N80 N 0.50857 0.03416 0.53579 0.0
C81 C 0.51631 0.0761 0.54351 0.0
C82 C 0.50792 0.06841 0.56681 0.0
C83 C 0.4983 0.0428 0.57393 0.0
C84 C 0.49855 0.02606 0.55818 0.0
C85 C 0.51632 0.05878 0.52841 0.0
H86 H 0.4912 0.00687 0.56473 0.0
H87 H 0.5235 0.06607 0.51107 0.0
H88 H 0.54445 0.01983 0.46939 0.0
H89 H 0.50179 0.95659 0.5183 0.0
C90 C 0.48547 0.96436 0.55568 0.0
C91 C 0.57291 0.04015 0.54818 0.0
C92 C 0.45802 0.98365 0.48312 0.0
C93 C 0.54483 0.06044 0.47606 0.0
H94 H 0.56697 0.00588 0.58652 0.0
H95 H 0.51885 0.96391 0.59087 0.0
H96 H 0.4308 0.92882 0.54891 0.0
H97 H 0.41597 0.93904 0.50864 0.0
H98 H 0.46417 0.01662 0.44359 0.0
H99 H 0.51203 0.05902 0.43932 0.0
H100 H 0.59889 0.09733 0.48403 0.0
H101 H 0.61408 0.08648 0.52368 0.0
H102 H 0.54451 0.99188 0.44128 0.0
H103 H 0.50064 0.92761 0.49081 0.0
H104 H 0.52383 0.09573 0.5371 0.0
H105 H 0.49085 0.03572 0.59165 0.0
C106 C 0.54523 0.54527 0.97332 0.0
C107 C 0.54484 0.55606 0.95167 0.0
C108 C 0.51985 0.5508 0.9491 0.0
C109 C 0.50641 0.53702 0.96916 0.0
N110 N 0.5215 0.53383 0.98474 0.0
Co111 Co 0.50916 0.51194 0.01463 0.0
N112 N 0.47143 0.50047 0.00911 0.0
C113 C 0.46223 0.5078 0.99081 0.0
C114 C 0.43598 0.499 0.99288 0.0
C115 C 0.42801 0.48583 0.01405 0.0
C116 C 0.44994 0.48717 0.02367 0.0
N117 N 0.49688 0.48948 0.04409 0.0
C118 C 0.47275 0.47638 0.05483 0.0
C119 C 0.47268 0.46351 0.07533 0.0
C120 C 0.4979 0.46941 0.07806 0.0
C121 C 0.51184 0.48534 0.05905 0.0
N122 N 0.54688 0.52396 0.02054 0.0
C123 C 0.55648 0.51831 0.03963 0.0
C124 C 0.58312 0.5285 0.03808 0.0
C125 C 0.59083 0.54079 0.01646 0.0
C126 C 0.56832 0.53722 0.00603 0.0
N127 N 0.51305 0.54098 0.03231 0.0
C128 C 0.50991 0.57595 0.06044 0.0
C129 C 0.52007 0.56153 0.06915 0.0
C130 C 0.52168 0.5445 0.05484 0.0
C131 C 0.50306 0.57394 0.03693 0.0
C132 C 0.50488 0.55652 0.02325 0.0
N133 N 0.50526 0.48292 0.99698 0.0
C134 C 0.51897 0.45317 0.98975 0.0
C135 C 0.50622 0.4471 0.9684 0.0
C136 C 0.49189 0.45825 0.96211 0.0
C137 C 0.49165 0.47596 0.97656 0.0
C138 C 0.51798 0.47076 0.0038 0.0
H139 H 0.48093 0.48429 0.97053 0.0
H140 H 0.5282 0.47466 0.01982 0.0
H141 H 0.52926 0.53386 0.06267 0.0
H142 H 0.49878 0.55542 0.00563 0.0
C143 C 0.47919 0.5246 0.97283 0.0
C144 C 0.56769 0.54421 0.9815 0.0
C145 C 0.45007 0.47744 0.0474 0.0
C146 C 0.53938 0.4997 0.0566 0.0
H147 H 0.56056 0.56575 0.9386 0.0
H148 H 0.51204 0.55524 0.93386 0.0
H149 H 0.4243 0.50275 0.98093 0.0
H150 H 0.40848 0.47718 0.0218 0.0
H151 H 0.45633 0.45203 0.08757 0.0
H152 H 0.50547 0.46397 0.09282 0.0
H153 H 0.59515 0.52576 0.05046 0.0
H154 H 0.61044 0.55004 0.00867 0.0
H155 H 0.52643 0.56309 0.08707 0.0
H156 H 0.49535 0.58496 0.02935 0.0
H157 H 0.52979 0.44449 0.99557 0.0
H158 H 0.48161 0.45403 0.94571 0.0
C159 C 0.94979 0.45999 0.51561 0.0
C160 C 0.92531 0.44908 0.50537 0.0
C161 C 0.92849 0.46463 0.48632 0.0
C162 C 0.95454 0.48416 0.48608 0.0
N163 N 0.96841 0.48172 0.5035 0.0
Co164 Co 0.00608 0.50726 0.51127 0.0
N165 N 0.00982 0.53191 0.48514 0.0
C166 C 0.99101 0.52868 0.47006 0.0
C167 C 0.99993 0.54773 0.45276 0.0
C168 C 0.02618 0.56379 0.45662 0.0
C169 C 0.03176 0.55364 0.47626 0.0
N170 N 0.04357 0.53286 0.51926 0.0
C171 C 0.06214 0.55468 0.5073 0.0
C172 C 0.08619 0.56652 0.51835 0.0
C173 C 0.08292 0.55118 0.53762 0.0
C174 C 0.05713 0.531 0.53729 0.0
N175 N 0.00255 0.48253 0.53714 0.0
C176 C 0.02153 0.48543 0.55185 0.0
C177 C 0.01293 0.46549 0.56823 0.0
C178 C 0.98675 0.44919 0.56411 0.0
C179 C 0.98088 0.46031 0.54549 0.0
N180 N 0.01855 0.49134 0.48925 0.0
C181 C 0.04091 0.47465 0.45618 0.0
C182 C 0.04891 0.47828 0.47948 0.0
C183 C 0.03775 0.48671 0.49547 0.0
C184 C 0.02056 0.47843 0.45016 0.0
C185 C 0.00953 0.48631 0.46686 0.0
N186 N 0.99357 0.52319 0.53332 0.0
C187 C 0.98913 0.53374 0.57282 0.0
C188 C 0.97043 0.53955 0.56592 0.0
C189 C 0.96463 0.53823 0.5421 0.0
C190 C 0.97616 0.52999 0.52634 0.0
C191 C 1.00057 0.526 0.55636 0.0
H192 H 0.97023 0.5288 0.50867 0.0
H193 H 0.01454 0.52179 0.56286 0.0
H194 H 0.04538 0.48984 0.51266 0.0
H195 H 0.99417 0.48883 0.46106 0.0
C196 C 0.96584 0.50624 0.47123 0.0
C197 C 0.95406 0.45032 0.53779 0.0
C198 C 0.05842 0.56384 0.48465 0.0
C199 C 0.04625 0.50847 0.55157 0.0
H200 H 0.90679 0.43225 0.51145 0.0
H201 H 0.9133 0.46265 0.47473 0.0
H202 H 0.98896 0.54905 0.43835 0.0
H203 H 0.03974 0.58041 0.44553 0.0
H204 H 0.10445 0.58389 0.5125 0.0
H205 H 0.09794 0.55369 0.54969 0.0
H206 H 0.02404 0.46368 0.58225 0.0
H207 H 0.97321 0.4317 0.57431 0.0
H208 H 0.06394 0.47489 0.4855 0.0
H209 H 0.01352 0.47612 0.43244 0.0
H210 H 0.99446 0.53433 0.59097 0.0
H211 H 0.951 0.54331 0.53551 0.0
C212 C 0.46647 0.98773 0.05555 0.0
C213 C 0.46049 0.99544 0.07588 0.0
C214 C 0.47852 0.02128 0.07704 0.0
C215 C 0.49438 0.02778 0.05744 0.0
N216 N 0.48711 0.00783 0.04346 0.0
Co217 Co 0.50634 0.00783 0.01477 0.0
N218 N 0.53464 0.04516 0.01775 0.0
C219 C 0.53581 0.06111 0.0341 0.0
C220 C 0.5562 0.08625 0.03044 0.0
C221 C 0.56842 0.08656 0.01019 0.0
C222 C 0.55478 0.06144 0.00273 0.0
N223 N 0.52618 0.00745 0.98677 0.0
C224 C 0.5477 0.02714 0.97524 0.0
C225 C 0.55506 0.0187 0.95629 0.0
C226 C 0.53706 0.9928 0.95544 0.0
C227 C 0.51991 0.98692 0.97393 0.0
N228 N 0.47743 0.9709 0.01114 0.0
C229 C 0.47497 0.95564 0.99358 0.0
C230 C 0.4535 0.93089 0.99636 0.0
C231 C 0.44187 0.93017 0.01716 0.0
C232 C 0.45702 0.95463 0.02588 0.0
N233 N 0.48703 0.01904 0.99436 0.0
C234 C 0.46562 0.04002 0.96355 0.0
C235 C 0.47065 0.02151 0.95623 0.0
C236 C 0.481 0.01119 0.97182 0.0
C237 C 0.47025 0.04674 0.98696 0.0
C238 C 0.48089 0.0362 0.00187 0.0
N239 N 0.52558 0.99663 0.03524 0.0
C240 C 0.53375 0.96355 0.04827 0.0
C241 C 0.54607 0.97683 0.06839 0.0
C242 C 0.54929 0.00097 0.07078 0.0
C243 C 0.53897 0.01038 0.05422 0.0
C244 C 0.52404 0.97385 0.03195 0.0
H245 H 0.54154 0.02856 0.05748 0.0
H246 H 0.51466 0.96262 0.01715 0.0
H247 H 0.48456 0.99736 0.96504 0.0
H248 H 0.48443 0.04267 0.01928 0.0
C249 C 0.51689 0.05206 0.05219 0.0
C250 C 0.45304 0.96089 0.0492 0.0
C251 C 0.56043 0.05427 0.98049 0.0
C252 C 0.49559 0.96368 0.9773 0.0
H253 H 0.44519 0.98342 0.08886 0.0
H254 H 0.48042 0.03366 0.09091 0.0
H255 H 0.56107 0.10256 0.04083 0.0
H256 H 0.58497 0.10353 1.00154 0.0
H257 H 0.57111 0.0303 0.9438 0.0
H258 H 0.53572 0.9801 0.9421 0.0
H259 H 0.44801 0.91481 0.98542 0.0
H260 H 0.42498 0.91325 0.02552 0.0
H261 H 0.46748 0.01553 0.93832 0.0
H262 H 0.46597 0.06036 0.99383 0.0
H263 H 0.53066 0.94479 0.0454 0.0
H264 H 0.55944 0.01255 0.08556 0.0
C265 C 0.54555 0.57222 0.50417 0.0
C266 C 0.55036 0.59503 0.51306 0.0
C267 C 0.53721 0.58858 0.53418 0.0
C268 C 0.52512 0.56229 0.53691 0.0
N269 N 0.53048 0.55169 0.51915 0.0
Co270 Co 0.51476 0.514 0.51438 0.0
N271 N 0.49124 0.50389 0.54291 0.0
C272 C 0.48932 0.51986 0.5573 0.0
C273 C 0.473 0.5073 0.57645 0.0
C274 C 0.46456 0.4819 0.57452 0.0
C275 C 0.47623 0.48046 0.5542 0.0
N276 N 0.49905 0.47637 0.5095 0.0
C277 C 0.4831 0.45568 0.52398 0.0
C278 C 0.47795 0.43284 0.51485 0.0
C279 C 0.49185 0.43943 0.49413 0.0
C280 C 0.50459 0.46581 0.49181 0.0
N281 N 0.53825 0.52409 0.48589 0.0
C282 C 0.54063 0.50824 0.47171 0.0
C283 C 0.55681 0.52086 0.45247 0.0
C284 C 0.56454 0.54612 0.4541 0.0
C285 C 0.55257 0.54736 0.47429 0.0
N286 N 0.54199 0.51406 0.53422 0.0
C287 C 0.57281 0.50597 0.56626 0.0
C288 C 0.56883 0.49654 0.54379 0.0
C289 C 0.55363 0.50094 0.52811 0.0
C290 C 0.5627 0.52107 0.57178 0.0
C291 C 0.54765 0.52498 0.5556 0.0
N292 N 0.4875 0.51385 0.49463 0.0
C293 C 0.46486 0.50503 0.45793 0.0
C294 C 0.45349 0.51888 0.46407 0.0
C295 C 0.45867 0.52932 0.48617 0.0
C296 C 0.47542 0.52643 0.5011 0.0
C297 C 0.48162 0.50276 0.47332 0.0
H298 H 0.47873 0.53504 0.51759 0.0
H299 H 0.48994 0.49233 0.46741 0.0
H300 H 0.55085 0.49278 0.51145 0.0
H301 H 0.54015 0.53625 0.56111 0.0
C302 C 0.50566 0.54671 0.55395 0.0
C303 C 0.55291 0.57035 0.48038 0.0
C304 C 0.47479 0.45706 0.54752 0.0
C305 C 0.5243 0.48139 0.47497 0.0
H306 H 0.56106 0.61412 0.50462 0.0
H307 H 0.53521 0.60129 0.5454 0.0
H308 H 0.46895 0.51579 0.59082 0.0
H309 H 0.45222 0.4664 0.58718 0.0
H310 H 0.4664 0.41361 0.52297 0.0
H311 H 0.49367 0.42669 0.48281 0.0
H312 H 0.561 0.51244 0.43814 0.0
H313 H 0.57641 0.56163 0.44129 0.0
H314 H 0.57648 0.48493 0.53857 0.0
H315 H 0.56603 0.52958 0.5887 0.0
H316 H 0.46089 0.49592 0.44127 0.0
H317 H 0.45037 0.54023 0.49181 0.0
Mg318 Mg 0.24021 0.47544 0.24867 0.0
C319 C 0.23947 0.50357 0.20403 0.0
O320 O 0.25749 0.49904 0.19728 0.0
C321 C 0.27197 0.48235 0.28797 0.0
O322 O 0.2568 0.45746 0.28483 0.0
C323 C 0.18425 0.44977 0.26888 0.0
O324 O 0.18077 0.45923 0.24921 0.0
O325 O 0.20591 0.45099 0.27177 0.0
O326 O 0.23046 0.4975 0.22497 0.0
O327 O 0.25808 0.4585 0.22891 0.0
C328 C 0.25041 0.44656 0.20998 0.0
O329 O 0.22738 0.44033 0.20174 0.0
O330 O 0.2701 0.49781 0.27387 0.0
Mg331 Mg 0.76891 0.24442 0.75603 0.0
C332 C 0.76104 0.20805 0.7159 0.0
O333 O 0.78338 0.22778 0.70725 0.0
C334 C 0.82569 0.27992 0.77214 0.0
O335 O 0.82806 0.29233 0.75215 0.0
C336 C 0.74116 0.22469 0.80143 0.0
O337 O 0.76216 0.2233 0.80345 0.0
O338 O 0.73801 0.234 0.78234 0.0
O339 O 0.75285 0.20948 0.736 0.0
O340 O 0.7777 0.27617 0.73146 0.0
C341 C 0.76719 0.27244 0.71151 0.0
O342 O 0.74758 0.24919 0.70683 0.0
O343 O 0.8045 0.2582 0.77672 0.0
Mg344 Mg 0.54642 0.77374 0.26768 0.0
C345 C 0.57846 0.83053 0.25153 0.0
O346 O 0.57344 0.83348 0.27315 0.0
C347 C 0.54482 0.73325 0.29685 0.0
O348 O 0.52087 0.72376 0.28907 0.0
C349 C 0.51438 0.79559 0.28543 0.0
O350 O 0.51454 0.802 0.26321 0.0
O351 O 0.5248 0.7829 0.29137 0.0
O352 O 0.57262 0.80828 0.24571 0.0
O353 O 0.52094 0.74454 0.24364 0.0
C354 C 0.51953 0.75048 0.22238 0.0
O355 O 0.53164 0.77496 0.21555 0.0
O356 O 0.56271 0.75618 0.29011 0.0
Mg357 Mg 0.77202 0.52861 0.77944 0.0
C358 C 0.71793 0.49918 0.75753 0.0
O359 O 0.71181 0.50809 0.77531 0.0
C360 C 0.80396 0.50726 0.80014 0.0
O361 O 0.81638 0.51503 0.77969 0.0
C362 C 0.74226 0.52992 0.81907 0.0
O363 O 0.73945 0.50715 0.82032 0.0
O364 O 0.75649 0.54573 0.80236 0.0
O365 O 0.74094 0.50307 0.75607 0.0
O366 O 0.80654 0.55348 0.75651 0.0
C367 C 0.803 0.55421 0.7346 0.0
O368 O 0.77881 0.54402 0.72724 0.0
O369 O 0.78404 0.50892 0.8037 0.0
Mg370 Mg 0.25492 0.77303 0.27617 0.0
C371 C 0.1976 0.73783 0.26316 0.0
O372 O 0.19768 0.72525 0.28223 0.0
C373 C 0.29591 0.818 0.30163 0.0
O374 O 0.30924 0.81162 0.28841 0.0
C375 C 0.2541 0.74032 0.31789 0.0
O376 O 0.26979 0.76313 0.32642 0.0
O377 O 0.24759 0.739 0.29657 0.0
O378 O 0.21776 0.76023 0.25824 0.0
O379 O 0.28162 0.78525 0.24593 0.0
C380 C 0.30259 0.78551 0.24188 0.0
O381 O 0.31172 0.77663 0.25798 0.0
O382 O 0.27088 0.80543 0.29997 0.0
Mg383 Mg 0.46156 0.24265 0.75835 0.0
C384 C 0.48299 0.2311 0.71783 0.0
O385 O 0.46224 0.23047 0.70959 0.0
C386 C 0.50142 0.28723 0.7907 0.0
O387 O 0.52093 0.28623 0.78158 0.0
C388 C 0.45092 0.20716 0.79721 0.0
O389 O 0.47486 0.2274 0.79933 0.0
O390 O 0.4376 0.20682 0.7797 0.0
O391 O 0.4891 0.23691 0.73899 0.0
O392 O 0.44531 0.25779 0.73287 0.0
C393 C 0.46437 0.27934 0.72438 0.0
O394 O 0.4881 0.28785 0.73228 0.0
O395 O 0.47808 0.27237 0.78376 0.0
C396 C 0.08416 0.51861 0.07617 0.0
C397 C 0.08165 0.50684 0.05493 0.0
C398 C 0.10331 0.52183 0.09201 0.0
C399 C 0.16622 0.52568 0.09699 0.0
H400 H 0.14334 0.5016 0.16136 0.0
C401 C 0.22891 0.50843 0.16258 0.0
C402 C 0.22635 0.51112 0.18656 0.0
C403 C 0.2134 0.51162 0.14631 0.0
C404 C 0.15031 0.50897 0.14361 0.0
H405 H 0.09668 0.48898 0.03347 0.0
H406 H 0.13075 0.49511 0.06101 0.0
H407 H 0.1121 0.50002 0.1333 0.0
H408 H 0.20682 0.52098 0.21212 0.0
H409 H 0.18054 0.52761 0.18368 0.0
H410 H 0.20449 0.53489 0.10724 0.0
C411 C 0.11805 0.50201 0.06533 0.0
C412 C 0.1323 0.5079 0.1275 0.0
C413 C 0.09864 0.49848 0.04962 0.0
C414 C 0.20907 0.51855 0.19377 0.0
C415 C 0.19382 0.52211 0.17746 0.0
C416 C 0.18437 0.52708 0.11318 0.0
C417 C 0.12041 0.51352 0.08676 0.0
C418 C 0.13999 0.51595 0.10399 0.0
C419 C 0.19519 0.51793 0.1536 0.0
C420 C 0.17657 0.51844 0.13666 0.0
H421 H 0.07113 0.52511 0.08057 0.0
H422 H 0.10479 0.53086 0.10834 0.0
H423 H 0.17271 0.53228 0.079 0.0
H424 H 0.24194 0.50257 0.15646 0.0
H425 H 0.21485 0.50793 0.12818 0.0
C426 C 0.61941 0.06425 0.563 0.0
C427 C 0.59274 0.05588 0.56601 0.0
C428 C 0.63787 0.07937 0.5797 0.0
C429 C 0.64627 0.11985 0.63054 0.0
H430 H 0.70788 0.11602 0.64147 0.0
C431 C 0.71597 0.17059 0.70681 0.0
C432 C 0.7429 0.18683 0.70058 0.0
C433 C 0.69802 0.15316 0.69102 0.0
C434 C 0.6908 0.11734 0.63853 0.0
H435 H 0.56413 0.0556 0.58922 0.0
H436 H 0.59586 0.08085 0.6189 0.0
H437 H 0.67556 0.08826 0.61311 0.0
H438 H 0.77216 0.19642 0.67321 0.0
H439 H 0.74079 0.16541 0.64586 0.0
H440 H 0.6613 0.14845 0.65647 0.0
C441 C 0.603 0.07684 0.60327 0.0
C442 C 0.67228 0.10153 0.62214 0.0
C443 C 0.58468 0.06212 0.58638 0.0
C444 C 0.75159 0.18423 0.67859 0.0
C445 C 0.73364 0.16645 0.66292 0.0
C446 C 0.66453 0.13528 0.64716 0.0
C447 C 0.62999 0.086 0.60009 0.0
C448 C 0.64973 0.10259 0.61782 0.0
C449 C 0.70655 0.15119 0.66876 0.0
C450 C 0.68704 0.13427 0.65132 0.0
H451 H 0.62601 0.0593 0.5476 0.0
H452 H 0.65838 0.08617 0.57634 0.0
H453 H 0.62966 0.12186 0.62744 0.0
H454 H 0.7085 0.17205 0.72354 0.0
H455 H 0.67732 0.14145 0.69612 0.0
C456 C 0.51255 0.61721 0.06873 0.0
C457 C 0.50572 0.59223 0.0761 0.0
C458 C 0.50925 0.63265 0.08396 0.0
C459 C 0.50472 0.64034 0.14693 0.0
H460 H 0.48179 0.68611 0.12644 0.0
C461 C 0.49667 0.70415 0.21219 0.0
C462 C 0.50898 0.73029 0.20491 0.0
C463 C 0.49107 0.68552 0.19596 0.0
C464 C 0.48829 0.67347 0.13239 0.0
H465 H 0.48878 0.56332 0.10468 0.0
H466 H 0.48299 0.59017 0.13119 0.0
H467 H 0.48263 0.65705 0.09879 0.0
H468 H 0.52326 0.75712 0.17466 0.0
H469 H 0.51386 0.72467 0.14642 0.0
H470 H 0.51099 0.65699 0.18027 0.0
C471 C 0.49146 0.59809 0.11387 0.0
C472 C 0.48882 0.65688 0.11656 0.0
C473 C 0.49482 0.58273 0.09871 0.0
C474 C 0.51385 0.73715 0.18086 0.0
C475 C 0.50835 0.71851 0.16463 0.0
C476 C 0.5042 0.65686 0.16269 0.0
C477 C 0.49897 0.62335 0.10681 0.0
C478 C 0.49722 0.64026 0.12364 0.0
C479 C 0.49776 0.69264 0.17212 0.0
C480 C 0.49615 0.67375 0.1556 0.0
H481 H 0.52109 0.62507 0.05143 0.0
H482 H 0.5155 0.65213 0.07808 0.0
H483 H 0.51178 0.62815 0.15284 0.0
H484 H 0.49237 0.69818 0.23056 0.0
H485 H 0.48233 0.66564 0.20221 0.0
C486 C 0.93004 0.53852 0.58016 0.0
C487 C 0.95647 0.54608 0.58338 0.0
C488 C 0.91668 0.54409 0.59656 0.0
C489 C 0.91441 0.5554 0.65844 0.0
H490 H 0.87188 0.58245 0.638 0.0
C491 C 0.85014 0.56888 0.72472 0.0
C492 C 0.82472 0.56137 0.71739 0.0
C493 C 0.86923 0.57171 0.70857 0.0
C494 C 0.88342 0.57465 0.64406 0.0
H495 H 0.98947 0.56588 0.60669 0.0
H496 H 0.96569 0.57469 0.63569 0.0
H497 H 0.8989 0.57749 0.60949 0.0
H498 H 0.79993 0.55207 0.68709 0.0
H499 H 0.83262 0.55633 0.65932 0.0
H500 H 0.89809 0.55133 0.69278 0.0
C501 C 0.9555 0.56453 0.62027 0.0
C502 C 0.89901 0.57193 0.62768 0.0
C503 C 0.96905 0.55932 0.60366 0.0
C504 C 0.81928 0.55793 0.69342 0.0
C505 C 0.83822 0.56054 0.67737 0.0
C506 C 0.89851 0.55777 0.6748 0.0
C507 C 0.92917 0.55701 0.61687 0.0
C508 C 0.91437 0.56191 0.63462 0.0
C509 C 0.86333 0.56696 0.68473 0.0
C510 C 0.88241 0.56702 0.66779 0.0
H511 H 0.91932 0.52774 0.56519 0.0
H512 H 0.89626 0.53767 0.59363 0.0
H513 H 0.9259 0.54744 0.66428 0.0
H514 H 0.85504 0.57175 0.74304 0.0
H515 H 0.88848 0.57717 0.71489 0.0
C516 C 0.40985 0.9267 0.06773 0.0
C517 C 0.43744 0.94007 0.06724 0.0
C518 C 0.39529 0.90798 0.0855 0.0
C519 C 0.39902 0.86568 0.13121 0.0
H520 H 0.34121 0.8669 0.15993 0.0
C521 C 0.34496 0.80849 0.218 0.0
C522 C 0.31781 0.79864 0.21994 0.0
C523 C 0.35968 0.82388 0.1983 0.0
C524 C 0.35702 0.86598 0.1519 0.0
H525 H 0.4717 0.94468 0.08443 0.0
H526 H 0.44629 0.91195 0.11573 0.0
H527 H 0.36644 0.89722 0.12758 0.0
H528 H 0.28447 0.79567 0.20205 0.0
H529 H 0.30984 0.82179 0.16769 0.0
H530 H 0.38955 0.83441 0.15573 0.0
C531 C 0.43582 0.9156 0.1023 0.0
C532 C 0.37151 0.88342 0.13334 0.0
C533 C 0.45035 0.93437 0.08454 0.0
C534 C 0.30544 0.80328 0.20127 0.0
C535 C 0.32003 0.81842 0.18161 0.0
C536 C 0.38442 0.84812 0.14981 0.0
C537 C 0.40811 0.90236 0.10312 0.0
C538 C 0.39265 0.88347 0.12272 0.0
C539 C 0.34745 0.82954 0.18014 0.0
C540 C 0.36316 0.848 0.16032 0.0
H541 H 0.39963 0.93097 0.0545 0.0
H542 H 0.37398 0.89792 0.08548 0.0
H543 H 0.41508 0.86511 0.12327 0.0
H544 H 0.35505 0.80529 0.23213 0.0
H545 H 0.38078 0.83221 0.19778 0.0
C546 C 0.49199 0.43639 0.57388 0.0
C547 C 0.47039 0.4371 0.56566 0.0
C548 C 0.48822 0.4171 0.59017 0.0
C549 C 0.44134 0.369 0.6348 0.0
H550 H 0.48453 0.34009 0.62718 0.0
C551 C 0.43622 0.28868 0.69802 0.0
C552 C 0.46113 0.29441 0.70527 0.0
C553 C 0.4342 0.30374 0.67999 0.0
C554 C 0.47232 0.34798 0.62958 0.0
H555 H 0.42802 0.41859 0.56778 0.0
H556 H 0.42122 0.38454 0.59643 0.0
H557 H 0.48716 0.37119 0.59781 0.0
H558 H 0.50335 0.32036 0.69912 0.0
H559 H 0.49977 0.3461 0.66805 0.0
H560 H 0.42684 0.34586 0.66688 0.0
C561 C 0.4411 0.39902 0.59048 0.0
C562 C 0.47391 0.3659 0.61279 0.0
C563 C 0.44492 0.41839 0.57409 0.0
C564 C 0.4838 0.3153 0.69406 0.0
C565 C 0.48179 0.33003 0.67606 0.0
C566 C 0.43971 0.35095 0.65166 0.0
C567 C 0.46271 0.39801 0.59854 0.0
C568 C 0.45896 0.37716 0.61546 0.0
C569 C 0.45704 0.32446 0.66872 0.0
C570 C 0.45571 0.34076 0.6495 0.0
H571 H 0.5118 0.45074 0.56758 0.0
H572 H 0.50536 0.41725 0.59632 0.0
H573 H 0.42959 0.37734 0.63742 0.0
H574 H 0.41839 0.27276 0.70635 0.0
H575 H 0.41484 0.299 0.67466 0.0
C576 C 0.52118 0.91788 0.45126 0.0
C577 C 0.51912 0.93915 0.44533 0.0
C578 C 0.5178 0.90056 0.43435 0.0
C579 C 0.49015 0.87849 0.3757 0.0
H580 H 0.53685 0.85292 0.37568 0.0
C581 C 0.5032 0.82737 0.29823 0.0
C582 C 0.50718 0.80722 0.30384 0.0
C583 C 0.50103 0.8413 0.31596 0.0
C584 C 0.52338 0.85958 0.37564 0.0
H585 H 0.51141 0.95864 0.41702 0.0
H586 H 0.50639 0.92892 0.38738 0.0
H587 H 0.54113 0.88203 0.40554 0.0
H588 H 0.50997 0.78459 0.33247 0.0
H589 H 0.50594 0.80868 0.36327 0.0
H590 H 0.47284 0.85635 0.34536 0.0
C591 C 0.51027 0.92541 0.40517 0.0
C592 C 0.52583 0.87628 0.39278 0.0
C593 C 0.51357 0.94269 0.42209 0.0
C594 C 0.50723 0.8002 0.32753 0.0
C595 C 0.50507 0.81409 0.3452 0.0
C596 C 0.48778 0.86184 0.35844 0.0
C597 C 0.51235 0.90413 0.41109 0.0
C598 C 0.50929 0.88599 0.39301 0.0
C599 C 0.5028 0.8353 0.3396 0.0
C600 C 0.50439 0.85222 0.35825 0.0
H601 H 0.52558 0.91467 0.46896 0.0
H602 H 0.51923 0.88421 0.43959 0.0
H603 H 0.47684 0.88534 0.37557 0.0
H604 H 0.5031 0.83327 0.28015 0.0
H605 H 0.49937 0.85759 0.31111 0.0
C606 C 0.58834 0.52383 0.96096 0.0
C607 C 0.58746 0.54586 0.96457 0.0
C608 C 0.60717 0.52509 0.94563 0.0
C609 C 0.65037 0.56111 0.89472 0.0
H610 H 0.68755 0.52827 0.91503 0.0
C611 C 0.72873 0.55914 0.83546 0.0
C612 C 0.72747 0.53556 0.83612 0.0
C613 C 0.71384 0.56336 0.85159 0.0
C614 C 0.6772 0.53735 0.90894 0.0
H615 H 0.60573 0.58654 0.95544 0.0
H616 H 0.63849 0.58869 0.92803 0.0
H617 H 0.6568 0.52944 0.94191 0.0
H618 H 0.7094 0.49795 0.85426 0.0
H619 H 0.6835 0.50503 0.88161 0.0
H620 H 0.67017 0.56827 0.86143 0.0
C621 C 0.62448 0.57043 0.93698 0.0
C622 C 0.65961 0.53805 0.92441 0.0
C623 C 0.60579 0.56922 0.9526 0.0
C624 C 0.7111 0.51645 0.85323 0.0
C625 C 0.6963 0.52059 0.86915 0.0
C626 C 0.66785 0.56018 0.87908 0.0
C627 C 0.62549 0.5484 0.93346 0.0
C628 C 0.64562 0.54951 0.91738 0.0
C629 C 0.69746 0.54409 0.86869 0.0
C630 C 0.68108 0.54779 0.88585 0.0
H631 H 0.57439 0.50562 0.97005 0.0
H632 H 0.60725 0.50772 0.94311 0.0
H633 H 0.63982 0.57004 0.8888 0.0
H634 H 0.7411 0.57425 0.82248 0.0
H635 H 0.71533 0.58175 0.85078 0.0
C636 C 0.09693 0.57256 0.45981 0.0
C637 C 0.08166 0.58138 0.46918 0.0
C638 C 0.11784 0.58838 0.44405 0.0
C639 C 0.16968 0.63375 0.42062 0.0
H640 H 0.15234 0.66377 0.36834 0.0
C641 C 0.24512 0.71895 0.35801 0.0
C642 C 0.239 0.7174 0.33414 0.0
C643 C 0.22771 0.69954 0.37427 0.0
C644 C 0.15742 0.65534 0.38272 0.0
H645 H 0.07689 0.61383 0.47067 0.0
H646 H 0.11302 0.64135 0.44254 0.0
H647 H 0.1186 0.63657 0.39815 0.0
H648 H 0.21077 0.69315 0.30842 0.0
H649 H 0.18031 0.65958 0.33686 0.0
H650 H 0.20879 0.6532 0.40538 0.0
C651 C 0.10876 0.62219 0.44725 0.0
C652 C 0.1382 0.64001 0.39989 0.0
C653 C 0.08817 0.60654 0.46329 0.0
C654 C 0.21605 0.69511 0.32668 0.0
C655 C 0.1985 0.67591 0.34296 0.0
C656 C 0.18911 0.64953 0.40361 0.0
C657 C 0.12357 0.61314 0.43726 0.0
C658 C 0.14414 0.62914 0.41905 0.0
C659 C 0.20375 0.67836 0.36699 0.0
C660 C 0.18313 0.66046 0.38449 0.0
H661 H 0.09227 0.55321 0.46428 0.0
H662 H 0.12893 0.58095 0.43656 0.0
H663 H 0.17473 0.62561 0.43526 0.0
H664 H 0.26269 0.73579 0.36434 0.0
H665 H 0.23223 0.70193 0.3927 0.0
C666 C 0.43971 0.03968 0.92843 0.0
C667 C 0.45673 0.05301 0.94679 0.0
C668 C 0.43228 0.05238 0.91236 0.0
C669 C 0.4283 0.11039 0.9047 0.0
H670 H 0.43611 0.1048 0.83825 0.0
C671 C 0.4509 0.19105 0.8376 0.0
C672 C 0.44112 0.18553 0.81485 0.0
C673 C 0.44575 0.17129 0.85381 0.0
C674 C 0.43321 0.10615 0.85671 0.0
H675 H 0.47956 0.09048 0.96217 0.0
H676 H 0.46622 0.11225 0.93464 0.0
H677 H 0.44096 0.07676 0.86651 0.0
H678 H 0.41737 0.15485 0.79145 0.0
H679 H 0.40836 0.11984 0.82001 0.0
H680 H 0.42133 0.14023 0.89506 0.0
C681 C 0.45831 0.09188 0.93284 0.0
C682 C 0.43608 0.09014 0.87292 0.0
C683 C 0.46591 0.07931 0.94871 0.0
C684 C 0.42499 0.15961 0.80893 0.0
C685 C 0.42006 0.13965 0.8252 0.0
C686 C 0.42533 0.12627 0.88856 0.0
C687 C 0.44149 0.07863 0.91442 0.0
C688 C 0.43454 0.09271 0.89712 0.0
C689 C 0.43081 0.14535 0.84771 0.0
C690 C 0.42868 0.12501 0.86439 0.0
H691 H 0.43194 0.01936 0.92651 0.0
H692 H 0.41918 0.04162 0.89843 0.0
H693 H 0.42642 0.11245 0.92321 0.0
H694 H 0.46338 0.21085 0.84269 0.0
H695 H 0.45466 0.1765 0.87081 0.0
C696 C 0.44216 0.52603 0.42338 0.0
C697 C 0.43626 0.52219 0.44756 0.0
C698 C 0.4251 0.5274 0.40766 0.0
C699 C 0.3551 0.50569 0.40317 0.0
H700 H 0.37878 0.54441 0.34359 0.0
C701 C 0.29029 0.47316 0.32329 0.0
C702 C 0.29049 0.49144 0.30759 0.0
C703 C 0.30774 0.48096 0.34169 0.0
C704 C 0.37182 0.53381 0.3603 0.0
H705 H 0.40826 0.51788 0.47421 0.0
H706 H 0.37897 0.52112 0.44688 0.0
H707 H 0.41088 0.55231 0.37365 0.0
H708 H 0.30912 0.53237 0.29902 0.0
H709 H 0.33992 0.54613 0.33151 0.0
H710 H 0.31612 0.48716 0.38989 0.0
C711 C 0.39651 0.52249 0.44001 0.0
C712 C 0.39024 0.53808 0.37743 0.0
C713 C 0.41348 0.52091 0.45572 0.0
C714 C 0.30851 0.51784 0.31084 0.0
C715 C 0.32617 0.5257 0.32936 0.0
C716 C 0.33674 0.50154 0.38616 0.0
C717 C 0.40181 0.52519 0.41574 0.0
C718 C 0.38217 0.52352 0.39881 0.0
C719 C 0.3259 0.50727 0.34499 0.0
C720 C 0.34496 0.51491 0.36425 0.0
H721 H 0.45985 0.52766 0.41653 0.0
H722 H 0.42975 0.52924 0.38911 0.0
H723 H 0.3481 0.49395 0.41931 0.0
H724 H 0.27673 0.45266 0.32132 0.0
H725 H 0.30736 0.46623 0.35307 0.0
C726 C 0.93656 0.41004 0.93954 0.0
C727 C 0.96309 0.43057 0.9366 0.0
C728 C 0.92379 0.39248 0.92193 0.0
C729 C 0.92397 0.38656 0.85867 0.0
H730 H 0.88301 0.31275 0.87288 0.0
C731 C 0.86984 0.31555 0.78539 0.0
C732 C 0.84482 0.29358 0.7909 0.0
C733 C 0.88636 0.33081 0.80311 0.0
C734 C 0.89403 0.33329 0.86856 0.0
H735 H 0.99688 0.44806 0.91249 0.0
H736 H 0.97417 0.41801 0.88151 0.0
H737 H 0.90702 0.34234 0.90386 0.0
H738 H 0.81787 0.27 0.8195 0.0
H739 H 0.84604 0.2969 0.85022 0.0
H740 H 0.91021 0.37793 0.82376 0.0
C741 C 0.96341 0.4156 0.89762 0.0
C742 C 0.90792 0.35024 0.88637 0.0
C743 C 0.97636 0.43293 0.91539 0.0
C744 C 0.83713 0.28666 0.81461 0.0
C745 C 0.85343 0.30217 0.83231 0.0
C746 C 0.90973 0.36968 0.84095 0.0
C747 C 0.93698 0.39516 0.90069 0.0
C748 C 0.92297 0.37706 0.88164 0.0
C749 C 0.87811 0.32482 0.82684 0.0
C750 C 0.89441 0.34273 0.8456 0.0
H751 H 0.92534 0.40775 0.95527 0.0
H752 H 0.9033 0.37713 0.92469 0.0
H753 H 0.93515 0.40716 0.85455 0.0
H754 H 0.87644 0.32133 0.76731 0.0
H755 H 0.90545 0.3476 0.79807 0.0
C756 C 0.94799 0.50667 0.95017 0.0
C757 C 0.94598 0.51576 0.97172 0.0
C758 C 0.93035 0.50262 0.93243 0.0
C759 C 0.88306 0.52102 0.91368 0.0
H760 H 0.86225 0.46703 0.86971 0.0
C761 C 0.80682 0.50022 0.84315 0.0
C762 C 0.81576 0.50123 0.82014 0.0
C763 C 0.82043 0.49866 0.86228 0.0
C764 C 0.86795 0.48218 0.88188 0.0
H765 H 0.92437 0.52807 0.99173 0.0
H766 H 0.89256 0.51977 0.96126 0.0
H767 H 0.88999 0.47068 0.90249 0.0
H768 H 0.84502 0.4997 0.79922 0.0
H769 H 0.86852 0.49646 0.8328 0.0
H770 H 0.8606 0.53216 0.8932 0.0
C771 C 0.90803 0.51621 0.95774 0.0
C772 C 0.88396 0.48441 0.9006 0.0
C773 C 0.92597 0.52063 0.97535 0.0
C774 C 0.83768 0.49905 0.81672 0.0
C775 C 0.8511 0.49712 0.83591 0.0
C776 C 0.86673 0.5185 0.89522 0.0
C777 C 0.91013 0.50739 0.93592 0.0
C778 C 0.89196 0.50405 0.91664 0.0
C779 C 0.84303 0.49768 0.85884 0.0
C780 C 0.8592 0.49921 0.87903 0.0
H781 H 0.9635 0.50305 0.94697 0.0
H782 H 0.93303 0.49635 0.91579 0.0
H783 H 0.8892 0.53673 0.92526 0.0
H784 H 0.78998 0.50181 0.84645 0.0
H785 H 0.81365 0.49884 0.8798 0.0
C786 C 0.4126 0.95906 0.46601 0.0
C787 C 0.4393 0.96696 0.46506 0.0
C788 C 0.39547 0.94402 0.44848 0.0
C789 C 0.39546 0.92822 0.38681 0.0
H790 H 0.32683 0.86703 0.40212 0.0
C791 C 0.33795 0.85158 0.31936 0.0
C792 C 0.31022 0.83779 0.31937 0.0
C793 C 0.35207 0.86875 0.3368 0.0
C794 C 0.34571 0.88431 0.39747 0.0
H795 H 0.46919 0.96575 0.44507 0.0
H796 H 0.43946 0.93973 0.4143 0.0
H797 H 0.35458 0.89395 0.43343 0.0
H798 H 0.27563 0.83177 0.3377 0.0
H799 H 0.30046 0.86229 0.36821 0.0
H800 H 0.3868 0.91887 0.35097 0.0
C801 C 0.43165 0.94504 0.42855 0.0
C802 C 0.36167 0.89969 0.41546 0.0
C803 C 0.44865 0.95981 0.44618 0.0
C804 C 0.29697 0.84212 0.33712 0.0
C805 C 0.31121 0.85945 0.35472 0.0
C806 C 0.37948 0.91303 0.36887 0.0
C807 C 0.40484 0.93699 0.42943 0.0
C808 C 0.38697 0.92154 0.41036 0.0
C809 C 0.339 0.87288 0.35485 0.0
C810 C 0.35461 0.89052 0.37393 0.0
H811 H 0.40508 0.96473 0.48022 0.0
H812 H 0.37503 0.93836 0.44955 0.0
H813 H 0.41458 0.94523 0.38223 0.0
H814 H 0.34892 0.84877 0.30604 0.0
H815 H 0.37333 0.87824 0.33644 0.0
C816 C 0.48584 0.41037 0.94145 0.0
C817 C 0.50827 0.42968 0.95254 0.0
C818 C 0.48787 0.39445 0.92596 0.0
C819 C 0.5344 0.39185 0.88655 0.0
H820 H 0.47986 0.31899 0.88717 0.0
C821 C 0.53068 0.32041 0.8195 0.0
C822 C 0.50564 0.30433 0.81005 0.0
C823 C 0.53376 0.33563 0.83843 0.0
C824 C 0.49523 0.33932 0.88676 0.0
H825 H 0.55048 0.44763 0.95604 0.0
H826 H 0.55403 0.41963 0.92891 0.0
H827 H 0.47992 0.34554 0.91783 0.0
H828 H 0.46436 0.29207 0.81281 0.0
H829 H 0.46981 0.31844 0.84536 0.0
H830 H 0.54926 0.38562 0.85502 0.0
C831 C 0.53489 0.41685 0.93225 0.0
C832 C 0.49524 0.3545 0.90429 0.0
C833 C 0.53281 0.43269 0.94791 0.0
C834 C 0.48393 0.30405 0.81969 0.0
C835 C 0.48699 0.31905 0.83852 0.0
C836 C 0.53437 0.3766 0.86892 0.0
C837 C 0.51242 0.39757 0.92112 0.0
C838 C 0.5144 0.38105 0.90404 0.0
C839 C 0.51183 0.3348 0.84828 0.0
C840 C 0.51433 0.35034 0.86851 0.0
H841 H 0.46667 0.40754 0.94479 0.0
H842 H 0.47026 0.37998 0.91741 0.0
H843 H 0.54936 0.41229 0.88587 0.0
H844 H 0.54778 0.32107 0.81244 0.0
H845 H 0.55316 0.34765 0.84563 0.0
C846 C 0.04056 0.45339 0.41886 0.0
C847 C 0.05425 0.46788 0.43824 0.0
C848 C 0.05351 0.44836 0.40149 0.0
C849 C 0.12152 0.47109 0.37886 0.0
H850 H 0.08424 0.40984 0.3425 0.0
C851 C 0.17533 0.44568 0.3122 0.0
C852 C 0.16619 0.4438 0.28924 0.0
C853 C 0.16039 0.44521 0.33125 0.0
C854 C 0.09486 0.427 0.35257 0.0
H855 H 0.09267 0.48807 0.45428 0.0
H856 H 0.11448 0.47778 0.42522 0.0
H857 H 0.06113 0.41571 0.37446 0.0
H858 H 0.13339 0.43813 0.26852 0.0
H859 H 0.10693 0.43644 0.30199 0.0
H860 H 0.15539 0.48189 0.35726 0.0
C861 C 0.09392 0.47103 0.42287 0.0
C862 C 0.0816 0.43054 0.3708 0.0
C863 C 0.08114 0.47652 0.43996 0.0
C864 C 0.14099 0.43964 0.28597 0.0
C865 C 0.12582 0.43865 0.30511 0.0
C866 C 0.13485 0.46725 0.36101 0.0
C867 C 0.08046 0.45723 0.40313 0.0
C868 C 0.09468 0.45278 0.38413 0.0
C869 C 0.13577 0.44229 0.32783 0.0
C870 C 0.12164 0.44529 0.34757 0.0
H871 H 0.01977 0.4459 0.41695 0.0
H872 H 0.04237 0.43793 0.38653 0.0
H873 H 0.13228 0.48879 0.38812 0.0
H874 H 0.19468 0.44902 0.31537 0.0
H875 H 0.16843 0.44787 0.34862 0.0
C876 C 0.60477 0.08938 0.96461 0.0
C877 C 0.57734 0.07448 0.96237 0.0
C878 C 0.62062 0.10835 0.94744 0.0
C879 C 0.62146 0.12735 0.8853 0.0
H880 H 0.6828 0.19203 0.90324 0.0
C881 C 0.69443 0.20475 0.81638 0.0
C882 C 0.72092 0.21334 0.82051 0.0
C883 C 0.67505 0.19078 0.83398 0.0
C884 C 0.66574 0.17407 0.89794 0.0
H885 H 0.54472 0.06722 0.94072 0.0
H886 H 0.57239 0.10054 0.91056 0.0
H887 H 0.65242 0.16116 0.93341 0.0
H888 H 0.74808 0.21534 0.84663 0.0
H889 H 0.71459 0.19128 0.87711 0.0
H890 H 0.63517 0.14004 0.84983 0.0
C891 C 0.58175 0.09757 0.92546 0.0
C892 C 0.64839 0.15633 0.91523 0.0
C893 C 0.56591 0.07862 0.94269 0.0
C894 C 0.72782 0.20888 0.84286 0.0
C895 C 0.70861 0.19522 0.86042 0.0
C896 C 0.63883 0.14512 0.86798 0.0
C897 C 0.60931 0.11269 0.92765 0.0
C898 C 0.62637 0.13251 0.90916 0.0
C899 C 0.68193 0.18551 0.85608 0.0
C900 C 0.6615 0.16842 0.87414 0.0
H901 H 0.61389 0.08623 0.97962 0.0
H902 H 0.6418 0.1193 0.94946 0.0
H903 H 0.60481 0.1091 0.88001 0.0
H904 H 0.68853 0.20786 0.7993 0.0
H905 H 0.65465 0.1837 0.83019 0.0
C906 C 0.57688 0.61343 0.4583 0.0
C907 C 0.55452 0.58839 0.46143 0.0
C908 C 0.57783 0.63029 0.44051 0.0
C909 C 0.5339 0.64066 0.40278 0.0
H910 H 0.59696 0.68486 0.36445 0.0
C911 C 0.52974 0.69159 0.31877 0.0
C912 C 0.54956 0.71768 0.31425 0.0
C913 C 0.53233 0.67697 0.33655 0.0
C914 C 0.57931 0.67285 0.37519 0.0
H915 H 0.51596 0.56091 0.44841 0.0
H916 H 0.51755 0.59007 0.41723 0.0
H917 H 0.59755 0.65704 0.396 0.0
H918 H 0.58825 0.7486 0.32439 0.0
H919 H 0.59279 0.72288 0.35579 0.0
H920 H 0.51556 0.65621 0.38206 0.0
C921 C 0.53422 0.59703 0.42864 0.0
C922 C 0.57963 0.65691 0.39327 0.0
C923 C 0.53332 0.58025 0.44635 0.0
C924 C 0.57262 0.72855 0.32744 0.0
C925 C 0.57522 0.71382 0.34539 0.0
C926 C 0.53358 0.65651 0.38479 0.0
C927 C 0.55639 0.62235 0.42558 0.0
C928 C 0.55678 0.64034 0.40706 0.0
C929 C 0.5548 0.68799 0.35045 0.0
C930 C 0.55612 0.6725 0.37051 0.0
H931 H 0.59349 0.61996 0.46972 0.0
H932 H 0.59512 0.64968 0.43875 0.0
H933 H 0.51615 0.62866 0.4134 0.0
H934 H 0.51185 0.68242 0.30879 0.0
H935 H 0.51652 0.65698 0.33955 0.0
C936 C 0.51909 0.08758 0.60637 0.0
C937 C 0.50997 0.08721 0.58364 0.0
C938 C 0.52199 0.10595 0.62192 0.0
C939 C 0.52835 0.16929 0.62357 0.0
H940 H 0.50117 0.14721 0.68731 0.0
C941 C 0.49323 0.22129 0.67898 0.0
C942 C 0.49632 0.2218 0.70333 0.0
C943 C 0.50163 0.2086 0.66527 0.0
C944 C 0.50942 0.15385 0.66974 0.0
H945 H 0.49625 0.1055 0.55959 0.0
H946 H 0.50118 0.13742 0.58669 0.0
H947 H 0.50181 0.11673 0.66157 0.0
H948 H 0.51199 0.21072 0.73235 0.0
H949 H 0.52667 0.18826 0.70825 0.0
H950 H 0.53511 0.20615 0.63151 0.0
C951 C 0.5066 0.12385 0.59236 0.0
C952 C 0.5097 0.13635 0.65496 0.0
C953 C 0.50368 0.1055 0.57685 0.0
C954 C 0.5094 0.21065 0.71359 0.0
C955 C 0.51761 0.19765 0.69985 0.0
C956 C 0.52807 0.18676 0.63833 0.0
C957 C 0.5159 0.12437 0.61504 0.0
C958 C 0.51848 0.14368 0.63152 0.0
C959 C 0.51318 0.19595 0.67562 0.0
C960 C 0.51791 0.17902 0.66137 0.0
H961 H 0.52452 0.07401 0.612 0.0
H962 H 0.5294 0.10598 0.6392 0.0
H963 H 0.5358 0.17568 0.60575 0.0
H964 H 0.48333 0.22984 0.67058 0.0
H965 H 0.49768 0.20745 0.64673 0.0
C966 C 0.40294 0.45111 0.06249 0.0
C967 C 0.42901 0.4718 0.06492 0.0
C968 C 0.38321 0.44657 0.0787 0.0
C969 C 0.36969 0.47913 0.12575 0.0
H970 H 0.30992 0.40995 0.14057 0.0
C971 C 0.29634 0.45757 0.20123 0.0
C972 C 0.26958 0.44447 0.19527 0.0
C973 C 0.31524 0.45889 0.18593 0.0
C974 C 0.32647 0.42937 0.1365 0.0
H975 H 0.45535 0.50317 0.08667 0.0
H976 H 0.42143 0.49467 0.11558 0.0
H977 H 0.34438 0.4163 0.11314 0.0
H978 H 0.24163 0.4213 0.16898 0.0
H979 H 0.27476 0.42314 0.14245 0.0
H980 H 0.35205 0.49201 0.14964 0.0
C981 C 0.4157 0.4825 0.10071 0.0
C982 C 0.3462 0.43309 0.12067 0.0
C983 C 0.43527 0.48727 0.0843 0.0
C984 C 0.26205 0.43157 0.17412 0.0
C985 C 0.28099 0.43258 0.15894 0.0
C986 C 0.35024 0.47534 0.14182 0.0
C987 C 0.38925 0.46231 0.09801 0.0
C988 C 0.36814 0.45806 0.11503 0.0
C989 C 0.30787 0.44683 0.16444 0.0
C990 C 0.32842 0.45045 0.14738 0.0
H991 H 0.39776 0.43867 0.04785 0.0
H992 H 0.36316 0.43101 0.07576 0.0
H993 H 0.38577 0.49871 0.12151 0.0
H994 H 0.30293 0.46772 0.21735 0.0
H995 H 0.33576 0.46975 0.19076 0.0
C996 C 0.9289 0.44113 0.57551 0.0
C997 C 0.93151 0.43258 0.55387 0.0
C998 C 0.90858 0.42432 0.59134 0.0
C999 C 0.86116 0.35422 0.60492 0.0
H1000 H 0.82998 0.37949 0.64692 0.0
C1001 C 0.77564 0.28579 0.6689 0.0
C1002 C 0.78055 0.29254 0.69242 0.0
C1003 C 0.7914 0.30353 0.65087 0.0
C1004 C 0.83853 0.37221 0.63528 0.0
H1005 H 0.9153 0.39995 0.53168 0.0
H1006 H 0.87893 0.37075 0.55873 0.0
H1007 H 0.86247 0.4089 0.61712 0.0
H1008 H 0.80478 0.32371 0.71535 0.0
H1009 H 0.83193 0.35485 0.68376 0.0
H1010 H 0.8369 0.31746 0.62298 0.0
C1011 C 0.89281 0.39025 0.56385 0.0
C1012 C 0.85729 0.38906 0.61828 0.0
C1013 C 0.91341 0.407 0.54819 0.0
C1014 C 0.80051 0.31791 0.69741 0.0
C1015 C 0.81602 0.33576 0.67934 0.0
C1016 C 0.84215 0.33733 0.62166 0.0
C1017 C 0.89024 0.39859 0.58577 0.0
C1018 C 0.86913 0.38038 0.60304 0.0
C1019 C 0.81211 0.3285 0.65595 0.0
C1020 C 0.83085 0.3462 0.63717 0.0
H1021 H 0.94287 0.46078 0.5803 0.0
H1022 H 0.90769 0.4314 0.60815 0.0
H1023 H 0.87013 0.34684 0.59392 0.0
H1024 H 0.76048 0.26641 0.66442 0.0
H1025 H 0.78781 0.29752 0.63296 0.0
C1026 C 0.55221 0.96927 0.1109 0.0
C1027 C 0.55438 0.96515 0.08717 0.0
C1028 C 0.55871 0.95744 0.12863 0.0
C1029 C 0.5926 0.92177 0.14 0.0
H1030 H 0.54861 0.89791 0.19644 0.0
C1031 C 0.58673 0.84667 0.20936 0.0
C1032 C 0.58424 0.85069 0.23306 0.0
C1033 C 0.58714 0.86329 0.19163 0.0
C1034 C 0.56133 0.90475 0.18093 0.0
H1035 H 0.56592 0.94566 0.06372 0.0
H1036 H 0.57606 0.92414 0.09461 0.0
H1037 H 0.54076 0.921 0.16545 0.0
H1038 H 0.58192 0.87636 0.25664 0.0
H1039 H 0.58262 0.9052 0.22575 0.0
H1040 H 0.61248 0.90447 0.15544 0.0
C1041 C 0.56981 0.93697 0.09952 0.0
C1042 C 0.55688 0.9181 0.16311 0.0
C1043 C 0.56359 0.94906 0.08174 0.0
C1044 C 0.58377 0.87258 0.23861 0.0
C1045 C 0.58396 0.88903 0.2209 0.0
C1046 C 0.59686 0.90811 0.15779 0.0
C1047 C 0.56721 0.94079 0.12326 0.0
C1048 C 0.57245 0.92686 0.14236 0.0
C1049 C 0.58487 0.88416 0.19719 0.0
C1050 C 0.58129 0.8995 0.17848 0.0
H1051 H 0.54487 0.98118 0.11594 0.0
H1052 H 0.55689 0.9613 0.14663 0.0
H1053 H 0.60526 0.92848 0.12447 0.0
H1054 H 0.58714 0.83001 0.20443 0.0
H1055 H 0.5878 0.85897 0.17353 0.0
C1056 C 0.57695 0.49327 0.60742 0.0
C1057 C 0.58659 0.49949 0.58414 0.0
C1058 C 0.59 0.48769 0.6245 0.0
C1059 C 0.65539 0.49938 0.63776 0.0
H1060 H 0.61685 0.44946 0.68897 0.0
C1061 C 0.70967 0.4878 0.7154 0.0
C1062 C 0.70023 0.48954 0.73733 0.0
C1063 C 0.69461 0.4834 0.69542 0.0
C1064 C 0.62788 0.46344 0.67477 0.0
H1065 H 0.61723 0.50417 0.56047 0.0
H1066 H 0.63988 0.49403 0.5903 0.0
H1067 H 0.5929 0.4527 0.6559 0.0
H1068 H 0.66684 0.48612 0.75576 0.0
H1069 H 0.64062 0.47839 0.72101 0.0
H1070 H 0.6903 0.51053 0.65687 0.0
C1071 C 0.62237 0.4938 0.59536 0.0
C1072 C 0.61418 0.46536 0.65586 0.0
C1073 C 0.60928 0.49941 0.57823 0.0
C1074 C 0.67473 0.48501 0.73912 0.0
C1075 C 0.65962 0.48044 0.71919 0.0
C1076 C 0.66909 0.49738 0.65662 0.0
C1077 C 0.61299 0.48808 0.61875 0.0
C1078 C 0.62771 0.48381 0.63741 0.0
C1079 C 0.66974 0.48041 0.69702 0.0
C1080 C 0.65544 0.47981 0.6756 0.0
H1081 H 0.55924 0.49269 0.61248 0.0
H1082 H 0.58239 0.48369 0.64236 0.0
H1083 H 0.66644 0.514 0.62401 0.0
H1084 H 0.72923 0.49114 0.71342 0.0
H1085 H 0.70277 0.48314 0.67861 0.0
C1086 C 0.05781 0.5817 0.11906 0.0
C1087 C 0.06057 0.59162 0.09591 0.0
C1088 C 0.07034 0.59817 0.13746 0.0
C1089 C 0.10453 0.66728 0.15366 0.0
H1090 H 0.13308 0.64424 0.20247 0.0
C1091 C 0.18 0.73427 0.22243 0.0
C1092 C 0.17728 0.72364 0.2453 0.0
C1093 C 0.16352 0.71902 0.20462 0.0
C1094 C 0.12495 0.65088 0.18916 0.0
H1095 H 0.07834 0.62711 0.07434 0.0
H1096 H 0.10093 0.65567 0.10619 0.0
H1097 H 0.10938 0.61615 0.17073 0.0
H1098 H 0.15384 0.68904 0.26757 0.0
H1099 H 0.12522 0.66271 0.2367 0.0
H1100 H 0.12093 0.70241 0.17201 0.0
C1101 C 0.0887 0.6351 0.11022 0.0
C1102 C 0.11124 0.63469 0.1709 0.0
C1103 C 0.076 0.61861 0.09181 0.0
C1104 C 0.1567 0.69788 0.25017 0.0
C1105 C 0.14037 0.68267 0.2324 0.0
C1106 C 0.11849 0.6836 0.17188 0.0
C1107 C 0.08625 0.62512 0.13331 0.0
C1108 C 0.10073 0.64256 0.15288 0.0
C1109 C 0.14405 0.69279 0.20925 0.0
C1110 C 0.12878 0.67555 0.18992 0.0
H1111 H 0.04642 0.56108 0.123 0.0
H1112 H 0.06752 0.58967 0.155 0.0
H1113 H 0.09648 0.67396 0.14033 0.0
H1114 H 0.19564 0.75401 0.218 0.0
H1115 H 0.16692 0.72744 0.18698 0.0
loop_
_geom_bond_atom_site_label_1
_geom_bond_atom_site_label_2
_geom_bond_distance
_geom_bond_site_symmetry_2
_ccdc_geom_bond_type
C0 C1 1.443 . S
C0 N4 1.376 1_556 S
C0 C38 1.389 . S
C1 C0 1.443 . S
C1 C2 1.340 1_556 S
C1 H41 0.951 . S
C2 C1 1.340 1_554 S
C2 C3 1.439 . S
C2 H42 0.950 . S
C3 C2 1.439 . S
C3 N4 1.374 . S
C3 C37 1.395 . S
N4 C0 1.376 1_554 S
N4 C3 1.374 . S
N4 Co5 2.008 1_655 S
Co5 N4 2.008 1_455 S
Co5 N6 1.995 . S
Co5 N11 2.008 . S
Co5 N16 1.995 1_554 S
Co5 N21 2.282 . S
Co5 N27 2.282 1_454 S
N6 Co5 1.995 . S
N6 C7 1.376 1_455 S
N6 C10 1.383 . S
C7 N6 1.376 1_655 S
C7 C8 1.446 . S
C7 C37 1.391 . S
C8 C7 1.446 . S
C8 C9 1.339 1_655 S
C8 H43 0.949 . S
C9 C8 1.339 1_455 S
C9 C10 1.439 . S
C9 H44 0.950 . S
C10 N6 1.383 . S
C10 C9 1.439 . S
C10 C39 1.392 . S
N11 Co5 2.008 . S
N11 C12 1.376 . S
N11 C15 1.374 1_554 S
C12 N11 1.376 . S
C12 C13 1.443 . S
C12 C39 1.389 . S
C13 C12 1.443 . S
C13 C14 1.340 . S
C13 H45 0.951 . S
C14 C13 1.340 . S
C14 C15 1.439 1_554 S
C14 H46 0.932 1_554 S
C15 N11 1.374 1_556 S
C15 C14 1.439 1_556 S
C15 C40 1.395 . S
N16 Co5 1.995 1_556 S
N16 C17 1.376 . S
N16 C20 1.383 . S
C17 N16 1.376 . S
C17 C18 1.446 . S
C17 C40 1.391 . S
C18 C17 1.446 . S
C18 C19 1.339 . S
C18 H47 0.949 . S
C19 C18 1.339 . S
C19 C20 1.439 . S
C19 H48 0.950 . S
C20 N16 1.383 . S
C20 C19 1.439 . S
C20 C38 1.392 1_455 S
N21 Co5 2.282 . S
N21 C24 1.332 . S
N21 C26 1.332 . S
C22 C23 1.386 . S
C22 C25 1.388 . S
C23 C22 1.386 . S
C23 C24 1.382 . S
C23 H49 0.950 . S
C24 N21 1.332 . S
C24 C23 1.382 . S
C24 H35 0.952 . S
C25 C22 1.388 . S
C25 C26 1.382 . S
C25 H50 0.950 . S
C26 N21 1.332 . S
C26 C25 1.382 . S
C26 H36 0.948 . S
N27 Co5 2.282 1_656 S
N27 C31 1.332 . S
N27 C32 1.332 1_655 S
C28 C29 1.388 . S
C28 C32 1.382 1_655 S
C28 H51 0.962 . S
C29 C28 1.388 . S
C29 C30 1.386 . S
C30 C29 1.386 . S
C30 C31 1.382 . S
C30 H52 0.950 . S
C31 N27 1.332 . S
C31 C30 1.382 . S
C31 H33 0.952 1_556 S
C32 N27 1.332 1_455 S
C32 C28 1.382 1_455 S
C32 H34 0.948 . S
H33 C31 0.952 1_554 S
H34 C32 0.948 . S
H35 C24 0.952 . S
H36 C26 0.948 . S
C37 C3 1.395 . S
C37 C7 1.391 . S
C38 C0 1.389 . S
C38 C20 1.392 1_655 S
C39 C10 1.392 . S
C39 C12 1.389 . S
C40 C15 1.395 . S
C40 C17 1.391 . S
H41 C1 0.951 . S
H42 C2 0.950 . S
H43 C8 0.949 . S
H44 C9 0.950 . S
H45 C13 0.951 . S
H46 C14 0.932 1_556 S
H47 C18 0.949 . S
H48 C19 0.950 . S
H49 C23 0.950 . S
H50 C25 0.950 . S
H51 C28 0.962 . S
H52 C30 0.950 . S
C53 C54 1.443 . S
C53 N57 1.376 . S
C53 C91 1.389 . S
C54 C53 1.443 . S
C54 C55 1.340 1_545 S
C54 H94 0.951 . S
C55 C54 1.340 1_565 S
C55 C56 1.439 . S
C55 H95 0.950 . S
C56 C55 1.439 . S
C56 N57 1.374 1_565 S
C56 C90 1.395 . S
N57 C53 1.376 . S
N57 C56 1.374 1_545 S
N57 Co58 2.008 . S
Co58 N57 2.008 . S
Co58 N59 1.995 1_545 S
Co58 N64 2.008 . S
Co58 N69 1.995 . S
Co58 N74 2.282 1_545 S
Co58 N80 2.282 . S
N59 Co58 1.995 1_565 S
N59 C60 1.376 . S
N59 C63 1.383 . S
C60 N59 1.376 . S
C60 C61 1.446 . S
C60 C90 1.391 . S
C61 C60 1.446 . S
C61 C62 1.339 . S
C61 H96 0.949 . S
C62 C61 1.339 . S
C62 C63 1.439 . S
C62 H97 0.950 . S
C63 N59 1.383 . S
C63 C62 1.439 . S
C63 C92 1.392 . S
N64 Co58 2.008 . S
N64 C65 1.376 . S
N64 C68 1.374 . S
C65 N64 1.376 . S
C65 C66 1.443 . S
C65 C92 1.389 1_545 S
C66 C65 1.443 . S
C66 C67 1.340 . S
C66 H98 0.951 . S
C67 C66 1.340 . S
C67 C68 1.439 . S
C67 H99 0.950 . S
C68 N64 1.374 . S
C68 C67 1.439 . S
C68 C93 1.395 . S
N69 Co58 1.995 . S
N69 C70 1.376 . S
N69 C73 1.383 . S
C70 N69 1.376 . S
C70 C71 1.446 . S
C70 C93 1.391 . S
C71 C70 1.446 . S
C71 C72 1.339 . S
C71 H100 0.949 . S
C72 C71 1.339 . S
C72 C73 1.439 . S
C72 H101 0.950 . S
C73 N69 1.383 . S
C73 C72 1.439 . S
C73 C91 1.392 . S
N74 Co58 2.282 1_565 S
N74 C77 1.332 1_565 S
N74 C79 1.332 . S
C75 C76 1.386 . S
C75 C78 1.388 . S
C76 C75 1.386 . S
C76 C77 1.382 1_565 S
C76 H102 0.950 1_565 S
C77 N74 1.332 1_545 S
C77 C76 1.382 1_545 S
C77 H88 0.952 . S
C78 C75 1.388 . S
C78 C79 1.382 . S
C78 H103 0.950 . S
C79 N74 1.332 . S
C79 C78 1.382 . S
C79 H89 0.948 . S
N80 Co58 2.282 . S
N80 C84 1.332 . S
N80 C85 1.332 . S
C81 C82 1.388 . S
C81 C85 1.382 . S
C81 H104 0.950 . S
C82 C81 1.388 . S
C82 C83 1.386 . S
C83 C82 1.386 . S
C83 C84 1.382 . S
C83 H105 0.950 . S
C84 N80 1.332 . S
C84 C83 1.382 . S
C84 H86 0.952 . S
C85 N80 1.332 . S
C85 C81 1.382 . S
C85 H87 0.948 . S
H86 C84 0.952 . S
H87 C85 0.948 . S
H88 C77 0.952 . S
H89 C79 0.948 . S
C90 C56 1.395 . S
C90 C60 1.391 . S
C91 C53 1.389 . S
C91 C73 1.392 . S
C92 C63 1.392 . S
C92 C65 1.389 1_565 S
C93 C68 1.395 . S
C93 C70 1.391 . S
H94 C54 0.951 . S
H95 C55 0.950 . S
H96 C61 0.949 . S
H97 C62 0.950 . S
H98 C66 0.951 . S
H99 C67 0.950 . S
H100 C71 0.949 . S
H101 C72 0.950 . S
H102 C76 0.950 1_545 S
H103 C78 0.950 . S
H104 C81 0.950 . S
H105 C83 0.950 . S
C106 C107 1.443 . S
C106 N110 1.376 . S
C106 C144 1.389 . S
C107 C106 1.443 . S
C107 C108 1.340 . S
C107 H147 0.951 . S
C108 C107 1.340 . S
C108 C109 1.439 . S
C108 H148 0.950 . S
C109 C108 1.439 . S
C109 N110 1.374 . S
C109 C143 1.395 . S
N110 C106 1.376 . S
N110 C109 1.374 . S
N110 Co111 2.008 1_556 S
Co111 N110 2.008 1_554 S
Co111 N112 1.995 . S
Co111 N117 2.008 . S
Co111 N122 1.995 . S
Co111 N127 2.282 . S
Co111 N133 2.282 1_554 S
N112 Co111 1.995 . S
N112 C113 1.376 1_554 S
N112 C116 1.383 . S
C113 N112 1.376 1_556 S
C113 C114 1.456 . S
C113 C143 1.391 . S
C114 C113 1.456 . S
C114 C115 1.307 1_556 S
C114 H149 0.968 . S
C115 C114 1.307 1_554 S
C115 C116 1.439 . S
C115 H150 0.950 . S
C116 N112 1.383 . S
C116 C115 1.439 . S
C116 C145 1.392 . S
N117 Co111 2.008 . S
N117 C118 1.376 . S
N117 C121 1.374 . S
C118 N117 1.376 . S
C118 C119 1.443 . S
C118 C145 1.389 . S
C119 C118 1.443 . S
C119 C120 1.340 . S
C119 H151 0.951 . S
C120 C119 1.340 . S
C120 C121 1.439 . S
C120 H152 0.950 . S
C121 N117 1.374 . S
C121 C120 1.439 . S
C121 C146 1.395 . S
N122 Co111 1.995 . S
N122 C123 1.376 . S
N122 C126 1.383 1_554 S
C123 N122 1.376 . S
C123 C124 1.446 . S
C123 C146 1.391 . S
C124 C123 1.446 . S
C124 C125 1.369 . S
C124 H153 0.949 . S
C125 C124 1.369 . S
C125 C126 1.431 1_554 S
C125 H154 0.932 1_554 S
C126 N122 1.383 1_556 S
C126 C125 1.431 1_556 S
C126 C144 1.392 . S
N127 Co111 2.282 . S
N127 C130 1.332 . S
N127 C132 1.332 . S
C128 C129 1.386 . S
C128 C131 1.388 . S
C129 C128 1.386 . S
C129 C130 1.382 . S
C129 H155 0.950 . S
C130 N127 1.332 . S
C130 C129 1.382 . S
C130 H141 0.952 . S
C131 C128 1.388 . S
C131 C132 1.382 . S
C131 H156 0.950 . S
C132 N127 1.332 . S
C132 C131 1.382 . S
C132 H142 0.948 . S
N133 Co111 2.282 1_556 S
N133 C137 1.332 . S
N133 C138 1.332 . S
C134 C135 1.388 . S
C134 C138 1.382 . S
C134 H157 0.950 . S
C135 C134 1.388 . S
C135 C136 1.386 . S
C136 C135 1.386 . S
C136 C137 1.382 . S
C136 H158 0.950 . S
C137 N133 1.332 . S
C137 C136 1.382 . S
C137 H139 0.952 . S
C138 N133 1.332 . S
C138 C134 1.382 . S
C138 H140 0.927 1_556 S
H139 C137 0.952 . S
H140 C138 0.927 1_554 S
H141 C130 0.952 . S
H142 C132 0.948 . S
C143 C109 1.395 . S
C143 C113 1.391 . S
C144 C106 1.389 . S
C144 C126 1.392 . S
C145 C116 1.392 . S
C145 C118 1.389 . S
C146 C121 1.395 . S
C146 C123 1.391 . S
H147 C107 0.951 . S
H148 C108 0.950 . S
H149 C114 0.968 . S
H150 C115 0.950 . S
H151 C119 0.951 . S
H152 C120 0.950 . S
H153 C124 0.949 . S
H154 C125 0.932 1_556 S
H155 C129 0.950 . S
H156 C131 0.950 . S
H157 C134 0.950 . S
H158 C136 0.950 . S
C159 C160 1.443 . S
C159 N163 1.376 . S
C159 C197 1.389 . S
C160 C159 1.443 . S
C160 C161 1.340 . S
C160 H200 0.951 . S
C161 C160 1.340 . S
C161 C162 1.439 . S
C161 H201 0.950 . S
C162 C161 1.439 . S
C162 N163 1.374 . S
C162 C196 1.395 . S
N163 C159 1.376 . S
N163 C162 1.374 . S
N163 Co164 2.008 1_655 S
Co164 N163 2.008 1_455 S
Co164 N165 1.995 1_455 S
Co164 N170 2.008 . S
Co164 N175 1.995 . S
Co164 N180 2.282 . S
Co164 N186 2.282 1_455 S
N165 Co164 1.995 1_655 S
N165 C166 1.376 . S
N165 C169 1.383 1_655 S
C166 N165 1.376 . S
C166 C167 1.446 . S
C166 C196 1.391 . S
C167 C166 1.446 . S
C167 C168 1.339 . S
C167 H202 0.949 . S
C168 C167 1.339 . S
C168 C169 1.439 1_655 S
C168 H203 0.950 1_655 S
C169 N165 1.383 1_455 S
C169 C168 1.439 1_455 S
C169 C198 1.392 . S
N170 Co164 2.008 . S
N170 C171 1.376 . S
N170 C174 1.374 . S
C171 N170 1.376 . S
C171 C172 1.443 . S
C171 C198 1.389 . S
C172 C171 1.443 . S
C172 C173 1.340 . S
C172 H204 0.951 . S
C173 C172 1.340 . S
C173 C174 1.439 . S
C173 H205 0.950 . S
C174 N170 1.374 . S
C174 C173 1.439 . S
C174 C199 1.395 . S
N175 Co164 1.995 . S
N175 C176 1.376 . S
N175 C179 1.383 1_455 S
C176 N175 1.376 . S
C176 C177 1.446 . S
C176 C199 1.391 . S
C177 C176 1.446 . S
C177 C178 1.339 . S
C177 H206 0.949 . S
C178 C177 1.339 . S
C178 C179 1.439 1_455 S
C178 H207 0.950 . S
C179 N175 1.383 1_655 S
C179 C178 1.439 1_655 S
C179 C197 1.392 . S
N180 Co164 2.282 . S
N180 C183 1.332 . S
N180 C185 1.332 . S
C181 C182 1.386 . S
C181 C184 1.388 . S
C182 C181 1.386 . S
C182 C183 1.382 . S
C182 H208 0.950 . S
C183 N180 1.332 . S
C183 C182 1.382 . S
C183 H194 0.952 . S
C184 C181 1.388 . S
C184 C185 1.382 . S
C184 H209 0.950 . S
C185 N180 1.332 . S
C185 C184 1.382 . S
C185 H195 0.948 1_455 S
N186 Co164 2.282 1_655 S
N186 C190 1.332 . S
N186 C191 1.332 . S
C187 C188 1.388 . S
C187 C191 1.382 . S
C187 H210 0.950 . S
C188 C187 1.388 . S
C188 C189 1.386 . S
C189 C188 1.386 . S
C189 C190 1.382 . S
C189 H211 0.950 . S
C190 N186 1.332 . S
C190 C189 1.382 . S
C190 H192 0.952 . S
C191 N186 1.332 . S
C191 C187 1.382 . S
C191 H193 0.948 1_655 S
H192 C190 0.952 . S
H193 C191 0.948 1_455 S
H194 C183 0.952 . S
H195 C185 0.948 1_655 S
C196 C162 1.395 . S
C196 C166 1.391 . S
C197 C159 1.389 . S
C197 C179 1.392 . S
C198 C169 1.392 . S
C198 C171 1.389 . S
C199 C174 1.395 . S
C199 C176 1.391 . S
H200 C160 0.951 . S
H201 C161 0.950 . S
H202 C167 0.949 . S
H203 C168 0.950 1_455 S
H204 C172 0.951 . S
H205 C173 0.950 . S
H206 C177 0.949 . S
H207 C178 0.950 . S
H208 C182 0.950 . S
H209 C184 0.950 . S
H210 C187 0.950 . S
H211 C189 0.950 . S
C212 C213 1.443 1_565 S
C212 N216 1.376 1_565 S
C212 C250 1.389 . S
C213 C212 1.443 1_545 S
C213 C214 1.340 . S
C213 H253 0.951 1_545 S
C214 C213 1.340 . S
C214 C215 1.439 . S
C214 H254 0.950 . S
C215 C214 1.439 . S
C215 N216 1.374 . S
C215 C249 1.395 . S
N216 C212 1.376 1_545 S
N216 C215 1.374 . S
N216 Co217 2.008 . S
Co217 N216 2.008 . S
Co217 N218 1.995 . S
Co217 N223 2.008 1_544 S
Co217 N228 1.995 1_545 S
Co217 N233 2.282 1_554 S
Co217 N239 2.282 1_545 S
N218 Co217 1.995 . S
N218 C219 1.376 . S
N218 C222 1.383 1_554 S
C219 N218 1.376 . S
C219 C220 1.446 . S
C219 C249 1.391 . S
C220 C219 1.446 . S
C220 C221 1.339 1_554 S
C220 H255 0.949 . S
C221 C220 1.339 1_556 S
C221 C222 1.439 . S
C221 H256 0.950 . S
C222 N218 1.383 1_556 S
C222 C221 1.439 . S
C222 C251 1.392 . S
N223 Co217 2.008 1_566 S
N223 C224 1.376 1_565 S
N223 C227 1.374 . S
C224 N223 1.376 1_545 S
C224 C225 1.443 1_545 S
C224 C251 1.389 . S
C225 C224 1.443 1_565 S
C225 C226 1.340 . S
C225 H257 0.951 1_565 S
C226 C225 1.340 . S
C226 C227 1.439 . S
C226 H258 0.950 . S
C227 N223 1.374 . S
C227 C226 1.439 . S
C227 C252 1.395 . S
N228 Co217 1.995 1_565 S
N228 C229 1.376 1_554 S
N228 C232 1.383 . S
C229 N228 1.376 1_556 S
C229 C230 1.446 1_556 S
C229 C252 1.391 . S
C230 C229 1.446 1_554 S
C230 C231 1.339 . S
C230 H259 0.949 1_554 S
C231 C230 1.339 . S
C231 C232 1.439 . S
C231 H260 0.950 . S
C232 N228 1.383 . S
C232 C231 1.439 . S
C232 C250 1.392 . S
N233 Co217 2.282 1_556 S
N233 C236 1.332 . S
N233 C238 1.332 . S
C234 C235 1.386 . S
C234 C237 1.388 . S
C235 C234 1.386 . S
C235 C236 1.382 . S
C235 H261 0.950 . S
C236 N233 1.332 . S
C236 C235 1.382 . S
C236 H247 0.952 1_545 S
C237 C234 1.388 . S
C237 C238 1.382 . S
C237 H262 0.950 . S
C238 N233 1.332 . S
C238 C237 1.382 . S
C238 H248 0.948 . S
N239 Co217 2.282 1_565 S
N239 C243 1.332 . S
N239 C244 1.332 . S
C240 C241 1.388 . S
C240 C244 1.382 . S
C240 H263 0.950 . S
C241 C240 1.388 . S
C241 C242 1.386 . S
C242 C241 1.386 . S
C242 C243 1.382 . S
C242 H264 0.950 . S
C243 N239 1.332 . S
C243 C242 1.382 . S
C243 H245 0.952 1_565 S
C244 N239 1.332 . S
C244 C240 1.382 . S
C244 H246 0.948 . S
H245 C243 0.952 1_545 S
H246 C244 0.948 . S
H247 C236 0.952 1_565 S
H248 C238 0.948 . S
C249 C215 1.395 . S
C249 C219 1.391 . S
C250 C212 1.389 . S
C250 C232 1.392 . S
C251 C222 1.392 . S
C251 C224 1.389 . S
C252 C227 1.395 . S
C252 C229 1.391 . S
H253 C213 0.951 1_565 S
H254 C214 0.950 . S
H255 C220 0.949 . S
H256 C221 0.950 . S
H257 C225 0.951 1_545 S
H258 C226 0.950 . S
H259 C230 0.949 1_556 S
H260 C231 0.950 . S
H261 C235 0.950 . S
H262 C237 0.950 . S
H263 C240 0.950 . S
H264 C242 0.950 . S
C265 C266 1.443 . S
C265 N269 1.376 . S
C265 C303 1.389 . S
C266 C265 1.443 . S
C266 C267 1.340 . S
C266 H306 0.951 . S
C267 C266 1.340 . S
C267 C268 1.439 . S
C267 H307 0.950 . S
C268 C267 1.439 . S
C268 N269 1.374 . S
C268 C302 1.395 . S
N269 C265 1.376 . S
N269 C268 1.374 . S
N269 Co270 2.008 . S
Co270 N269 2.008 . S
Co270 N271 1.995 . S
Co270 N276 2.008 . S
Co270 N281 1.995 . S
Co270 N286 2.282 . S
Co270 N292 2.282 . S
N271 Co270 1.995 . S
N271 C272 1.376 . S
N271 C275 1.383 . S
C272 N271 1.376 . S
C272 C273 1.446 . S
C272 C302 1.391 . S
C273 C272 1.446 . S
C273 C274 1.339 . S
C273 H308 0.949 . S
C274 C273 1.339 . S
C274 C275 1.439 . S
C274 H309 0.950 . S
C275 N271 1.383 . S
C275 C274 1.439 . S
C275 C304 1.392 . S
N276 Co270 2.008 . S
N276 C277 1.376 . S
N276 C280 1.374 . S
C277 N276 1.376 . S
C277 C278 1.443 . S
C277 C304 1.389 . S
C278 C277 1.443 . S
C278 C279 1.340 . S
C278 H310 0.951 . S
C279 C278 1.340 . S
C279 C280 1.439 . S
C279 H311 0.950 . S
C280 N276 1.374 . S
C280 C279 1.439 . S
C280 C305 1.395 . S
N281 Co270 1.995 . S
N281 C282 1.376 . S
N281 C285 1.383 . S
C282 N281 1.376 . S
C282 C283 1.446 . S
C282 C305 1.391 . S
C283 C282 1.446 . S
C283 C284 1.339 . S
C283 H312 0.949 . S
C284 C283 1.339 . S
C284 C285 1.439 . S
C284 H313 0.950 . S
C285 N281 1.383 . S
C285 C284 1.439 . S
C285 C303 1.392 . S
N286 Co270 2.282 . S
N286 C289 1.332 . S
N286 C291 1.332 . S
C287 C288 1.386 . S
C287 C290 1.388 . S
C288 C287 1.386 . S
C288 C289 1.382 . S
C288 H314 0.950 . S
C289 N286 1.332 . S
C289 C288 1.382 . S
C289 H300 0.952 . S
C290 C287 1.388 . S
C290 C291 1.382 . S
C290 H315 0.950 . S
C291 N286 1.332 . S
C291 C290 1.382 . S
C291 H301 0.948 . S
N292 Co270 2.282 . S
N292 C296 1.332 . S
N292 C297 1.332 . S
C293 C294 1.388 . S
C293 C297 1.382 . S
C293 H316 0.950 . S
C294 C293 1.388 . S
C294 C295 1.386 . S
C295 C294 1.386 . S
C295 C296 1.382 . S
C295 H317 0.950 . S
C296 N292 1.332 . S
C296 C295 1.382 . S
C296 H298 0.952 . S
C297 N292 1.332 . S
C297 C293 1.382 . S
C297 H299 0.948 . S
H298 C296 0.952 . S
H299 C297 0.948 . S
H300 C289 0.952 . S
H301 C291 0.948 . S
C302 C268 1.395 . S
C302 C272 1.391 . S
C303 C265 1.389 . S
C303 C285 1.392 . S
C304 C275 1.392 . S
C304 C277 1.389 . S
C305 C280 1.395 . S
C305 C282 1.391 . S
H306 C266 0.951 . S
H307 C267 0.950 . S
H308 C273 0.949 . S
H309 C274 0.950 . S
H310 C278 0.951 . S
H311 C279 0.950 . S
H312 C283 0.949 . S
H313 C284 0.950 . S
H314 C288 0.950 . S
H315 C290 0.950 . S
H316 C293 0.950 . S
H317 C295 0.950 . S
Mg318 O325 2.141 . S
Mg318 O326 2.048 . S
Mg318 O327 2.048 . S
Mg318 O330 2.141 . S
C319 O320 1.313 . S
C319 O326 1.195 . S
O320 C319 1.313 . S
C321 O322 1.245 . S
C321 O330 1.289 . S
O322 C321 1.245 . S
C323 O324 1.245 . S
C323 O325 1.289 . S
O324 C323 1.245 . S
O325 Mg318 2.141 . S
O325 C323 1.289 . S
O326 Mg318 2.048 . S
O326 C319 1.195 . S
O327 Mg318 2.048 . S
O327 C328 1.195 . S
C328 O327 1.195 . S
C328 O329 1.313 . S
O329 C328 1.313 . S
O330 Mg318 2.141 . S
O330 C321 1.289 . S
Mg331 O338 2.141 . S
Mg331 O339 2.048 . S
Mg331 O340 2.048 . S
Mg331 O343 2.141 . S
C332 O333 1.313 . S
C332 O339 1.195 . S
O333 C332 1.313 . S
C334 O335 1.245 . S
C334 O343 1.289 . S
O335 C334 1.245 . S
C336 O337 1.245 . S
C336 O338 1.289 . S
O337 C336 1.245 . S
O338 Mg331 2.141 . S
O338 C336 1.289 . S
O339 Mg331 2.048 . S
O339 C332 1.195 . S
O340 Mg331 2.048 . S
O340 C341 1.195 . S
C341 O340 1.195 . S
C341 O342 1.313 . S
O342 C341 1.313 . S
O343 Mg331 2.141 . S
O343 C334 1.289 . S
Mg344 O351 2.141 . S
Mg344 O352 2.048 . S
Mg344 O353 2.048 . S
Mg344 O356 2.141 . S
C345 O346 1.313 . S
C345 O352 1.195 . S
O346 C345 1.313 . S
C347 O348 1.245 . S
C347 O356 1.289 . S
O348 C347 1.245 . S
C349 O350 1.245 . S
C349 O351 1.289 . S
O350 C349 1.245 . S
O351 Mg344 2.141 . S
O351 C349 1.289 . S
O352 Mg344 2.048 . S
O352 C345 1.195 . S
O353 Mg344 2.048 . S
O353 C354 1.195 . S
C354 O353 1.195 . S
C354 O355 1.313 . S
O355 C354 1.313 . S
O356 Mg344 2.141 . S
O356 C347 1.289 . S
Mg357 O364 2.141 . S
Mg357 O365 2.048 . S
Mg357 O366 2.048 . S
Mg357 O369 2.141 . S
C358 O359 1.313 . S
C358 O365 1.195 . S
O359 C358 1.313 . S
C360 O361 1.245 . S
C360 O369 1.289 . S
O361 C360 1.245 . S
C362 O363 1.245 . S
C362 O364 1.289 . S
O363 C362 1.245 . S
O364 Mg357 2.141 . S
O364 C362 1.289 . S
O365 Mg357 2.048 . S
O365 C358 1.195 . S
O366 Mg357 2.048 . S
O366 C367 1.195 . S
C367 O366 1.195 . S
C367 O368 1.313 . S
O368 C367 1.313 . S
O369 Mg357 2.141 . S
O369 C360 1.289 . S
Mg370 O377 2.141 . S
Mg370 O378 2.048 . S
Mg370 O379 2.048 . S
Mg370 O382 2.141 . S
C371 O372 1.313 . S
C371 O378 1.195 . S
O372 C371 1.313 . S
C373 O374 1.245 . S
C373 O382 1.289 . S
O374 C373 1.245 . S
C375 O376 1.245 . S
C375 O377 1.289 . S
O376 C375 1.245 . S
O377 Mg370 2.141 . S
O377 C375 1.289 . S
O378 Mg370 2.048 . S
O378 C371 1.195 . S
O379 Mg370 2.048 . S
O379 C380 1.195 . S
C380 O379 1.195 . S
C380 O381 1.313 . S
O381 C380 1.313 . S
O382 Mg370 2.141 . S
O382 C373 1.289 . S
Mg383 O390 2.141 . S
Mg383 O391 2.048 . S
Mg383 O392 2.048 . S
Mg383 O395 2.141 . S
C384 O385 1.313 . S
C384 O391 1.195 . S
O385 C384 1.313 . S
C386 O387 1.245 . S
C386 O395 1.289 . S
O387 C386 1.245 . S
C388 O389 1.245 . S
C388 O390 1.289 . S
O389 C388 1.245 . S
O390 Mg383 2.141 . S
O390 C388 1.289 . S
O391 Mg383 2.048 . S
O391 C384 1.195 . S
O392 Mg383 2.048 . S
O392 C393 1.195 . S
C393 O392 1.195 . S
C393 O394 1.313 . S
O394 C393 1.313 . S
O395 Mg383 2.141 . S
O395 C386 1.289 . S
C396 C397 1.349 . S
C396 C398 1.327 . S
C396 H421 0.950 . S
C397 C396 1.349 . S
C397 C413 1.349 . S
C398 C396 1.327 . S
C398 C417 1.429 . S
C398 H422 0.950 . S
C399 C416 1.574 . S
C399 C418 1.368 . S
C399 H423 0.949 . S
H400 C404 0.949 . S
C401 C402 1.349 . S
C401 C403 1.327 . S
C401 H424 0.950 . S
C402 C401 1.349 . S
C402 C414 1.349 . S
C403 C401 1.327 . S
C403 C419 1.429 . S
C403 H425 0.950 . S
C404 H400 0.949 . S
C404 C412 1.574 . S
C404 C420 1.368 . S
H405 C413 0.950 . S
H406 C411 0.950 . S
H407 C412 0.949 . S
H408 C414 0.950 . S
H409 C415 0.950 . S
H410 C416 0.949 . S
C411 H406 0.950 . S
C411 C413 1.327 . S
C411 C417 1.429 . S
C412 C404 1.574 . S
C412 H407 0.949 . S
C412 C418 1.368 . S
C413 C397 1.349 . S
C413 H405 0.950 . S
C413 C411 1.327 . S
C414 C402 1.349 . S
C414 H408 0.950 . S
C414 C415 1.327 . S
C415 H409 0.950 . S
C415 C414 1.327 . S
C415 C419 1.429 . S
C416 C399 1.574 . S
C416 H410 0.949 . S
C416 C420 1.368 . S
C417 C398 1.429 . S
C417 C411 1.429 . S
C417 C418 1.523 . S
C418 C399 1.368 . S
C418 C412 1.368 . S
C418 C417 1.523 . S
C419 C403 1.429 . S
C419 C415 1.429 . S
C419 C420 1.523 . S
C420 C404 1.368 . S
C420 C416 1.368 . S
C420 C419 1.523 . S
H421 C396 0.950 . S
H422 C398 0.950 . S
H423 C399 0.949 . S
H424 C401 0.950 . S
H425 C403 0.950 . S
C426 C427 1.349 . S
C426 C428 1.327 . S
C426 H451 0.950 . S
C427 C426 1.349 . S
C427 C443 1.349 . S
C428 C426 1.327 . S
C428 C447 1.429 . S
C428 H452 0.950 . S
C429 C446 1.574 . S
C429 C448 1.368 . S
C429 H453 0.949 . S
H430 C434 0.949 . S
C431 C432 1.349 . S
C431 C433 1.327 . S
C431 H454 0.950 . S
C432 C431 1.349 . S
C432 C444 1.349 . S
C433 C431 1.327 . S
C433 C449 1.429 . S
C433 H455 0.950 . S
C434 H430 0.949 . S
C434 C442 1.574 . S
C434 C450 1.368 . S
H435 C443 0.950 . S
H436 C441 0.950 . S
H437 C442 0.949 . S
H438 C444 0.950 . S
H439 C445 0.950 . S
H440 C446 0.949 . S
C441 H436 0.950 . S
C441 C443 1.327 . S
C441 C447 1.429 . S
C442 C434 1.574 . S
C442 H437 0.949 . S
C442 C448 1.368 . S
C443 C427 1.349 . S
C443 H435 0.950 . S
C443 C441 1.327 . S
C444 C432 1.349 . S
C444 H438 0.950 . S
C444 C445 1.327 . S
C445 H439 0.950 . S
C445 C444 1.327 . S
C445 C449 1.429 . S
C446 C429 1.574 . S
C446 H440 0.949 . S
C446 C450 1.368 . S
C447 C428 1.429 . S
C447 C441 1.429 . S
C447 C448 1.523 . S
C448 C429 1.368 . S
C448 C442 1.368 . S
C448 C447 1.523 . S
C449 C433 1.429 . S
C449 C445 1.429 . S
C449 C450 1.523 . S
C450 C434 1.368 . S
C450 C446 1.368 . S
C450 C449 1.523 . S
H451 C426 0.950 . S
H452 C428 0.950 . S
H453 C429 0.949 . S
H454 C431 0.950 . S
H455 C433 0.950 . S
C456 C457 1.349 . S
C456 C458 1.327 . S
C456 H481 0.950 . S
C457 C456 1.349 . S
C457 C473 1.349 . S
C458 C456 1.327 . S
C458 C477 1.429 . S
C458 H482 0.950 . S
C459 C476 1.574 . S
C459 C478 1.368 . S
C459 H483 0.949 . S
H460 C464 0.949 . S
C461 C462 1.349 . S
C461 C463 1.327 . S
C461 H484 0.950 . S
C462 C461 1.349 . S
C462 C474 1.349 . S
C463 C461 1.327 . S
C463 C479 1.429 . S
C463 H485 0.950 . S
C464 H460 0.949 . S
C464 C472 1.574 . S
C464 C480 1.368 . S
H465 C473 0.950 . S
H466 C471 0.950 . S
H467 C472 0.949 . S
H468 C474 0.950 . S
H469 C475 0.950 . S
H470 C476 0.949 . S
C471 H466 0.950 . S
C471 C473 1.327 . S
C471 C477 1.429 . S
C472 C464 1.574 . S
C472 H467 0.949 . S
C472 C478 1.368 . S
C473 C457 1.349 . S
C473 H465 0.950 . S
C473 C471 1.327 . S
C474 C462 1.349 . S
C474 H468 0.950 . S
C474 C475 1.327 . S
C475 H469 0.950 . S
C475 C474 1.327 . S
C475 C479 1.429 . S
C476 C459 1.574 . S
C476 H470 0.949 . S
C476 C480 1.368 . S
C477 C458 1.429 . S
C477 C471 1.429 . S
C477 C478 1.523 . S
C478 C459 1.368 . S
C478 C472 1.368 . S
C478 C477 1.523 . S
C479 C463 1.429 . S
C479 C475 1.429 . S
C479 C480 1.523 . S
C480 C464 1.368 . S
C480 C476 1.368 . S
C480 C479 1.523 . S
H481 C456 0.950 . S
H482 C458 0.950 . S
H483 C459 0.949 . S
H484 C461 0.950 . S
H485 C463 0.950 . S
C486 C487 1.349 . S
C486 C488 1.327 . S
C486 H511 0.950 . S
C487 C486 1.349 . S
C487 C503 1.349 . S
C488 C486 1.327 . S
C488 C507 1.429 . S
C488 H512 0.950 . S
C489 C506 1.574 . S
C489 C508 1.368 . S
C489 H513 0.949 . S
H490 C494 0.949 . S
C491 C492 1.349 . S
C491 C493 1.327 . S
C491 H514 0.950 . S
C492 C491 1.349 . S
C492 C504 1.349 . S
C493 C491 1.327 . S
C493 C509 1.429 . S
C493 H515 0.950 . S
C494 H490 0.949 . S
C494 C502 1.574 . S
C494 C510 1.368 . S
H495 C503 0.950 . S
H496 C501 0.950 . S
H497 C502 0.949 . S
H498 C504 0.950 . S
H499 C505 0.950 . S
H500 C506 0.949 . S
C501 H496 0.950 . S
C501 C503 1.327 . S
C501 C507 1.429 . S
C502 C494 1.574 . S
C502 H497 0.949 . S
C502 C508 1.368 . S
C503 C487 1.349 . S
C503 H495 0.950 . S
C503 C501 1.327 . S
C504 C492 1.349 . S
C504 H498 0.950 . S
C504 C505 1.327 . S
C505 H499 0.950 . S
C505 C504 1.327 . S
C505 C509 1.429 . S
C506 C489 1.574 . S
C506 H500 0.949 . S
C506 C510 1.368 . S
C507 C488 1.429 . S
C507 C501 1.429 . S
C507 C508 1.523 . S
C508 C489 1.368 . S
C508 C502 1.368 . S
C508 C507 1.523 . S
C509 C493 1.429 . S
C509 C505 1.429 . S
C509 C510 1.523 . S
C510 C494 1.368 . S
C510 C506 1.368 . S
C510 C509 1.523 . S
H511 C486 0.950 . S
H512 C488 0.950 . S
H513 C489 0.949 . S
H514 C491 0.950 . S
H515 C493 0.950 . S
C516 C517 1.349 . S
C516 C518 1.327 . S
C516 H541 0.950 . S
C517 C516 1.349 . S
C517 C533 1.349 . S
C518 C516 1.327 . S
C518 C537 1.429 . S
C518 H542 0.950 . S
C519 C536 1.574 . S
C519 C538 1.368 . S
C519 H543 0.949 . S
H520 C524 0.949 . S
C521 C522 1.349 . S
C521 C523 1.327 . S
C521 H544 0.950 . S
C522 C521 1.349 . S
C522 C534 1.349 . S
C523 C521 1.327 . S
C523 C539 1.429 . S
C523 H545 0.950 . S
C524 H520 0.949 . S
C524 C532 1.574 . S
C524 C540 1.368 . S
H525 C533 0.950 . S
H526 C531 0.950 . S
H527 C532 0.949 . S
H528 C534 0.950 . S
H529 C535 0.950 . S
H530 C536 0.949 . S
C531 H526 0.950 . S
C531 C533 1.327 . S
C531 C537 1.429 . S
C532 C524 1.574 . S
C532 H527 0.949 . S
C532 C538 1.368 . S
C533 C517 1.349 . S
C533 H525 0.950 . S
C533 C531 1.327 . S
C534 C522 1.349 . S
C534 H528 0.950 . S
C534 C535 1.327 . S
C535 H529 0.950 . S
C535 C534 1.327 . S
C535 C539 1.429 . S
C536 C519 1.574 . S
C536 H530 0.949 . S
C536 C540 1.368 . S
C537 C518 1.429 . S
C537 C531 1.429 . S
C537 C538 1.523 . S
C538 C519 1.368 . S
C538 C532 1.368 . S
C538 C537 1.523 . S
C539 C523 1.429 . S
C539 C535 1.429 . S
C539 C540 1.523 . S
C540 C524 1.368 . S
C540 C536 1.368 . S
C540 C539 1.523 . S
H541 C516 0.950 . S
H542 C518 0.950 . S
H543 C519 0.949 . S
H544 C521 0.950 . S
H545 C523 0.950 . S
C546 C547 1.349 . S
C546 C548 1.327 . S
C546 H571 0.950 . S
C547 C546 1.349 . S
C547 C563 1.349 . S
C548 C546 1.327 . S
C548 C567 1.429 . S
C548 H572 0.950 . S
C549 C566 1.574 . S
C549 C568 1.368 . S
C549 H573 0.949 . S
H550 C554 0.949 . S
C551 C552 1.349 . S
C551 C553 1.327 . S
C551 H574 0.950 . S
C552 C551 1.349 . S
C552 C564 1.349 . S
C553 C551 1.327 . S
C553 C569 1.429 . S
C553 H575 0.950 . S
C554 H550 0.949 . S
C554 C562 1.574 . S
C554 C570 1.368 . S
H555 C563 0.950 . S
H556 C561 0.950 . S
H557 C562 0.949 . S
H558 C564 0.950 . S
H559 C565 0.950 . S
H560 C566 0.949 . S
C561 H556 0.950 . S
C561 C563 1.327 . S
C561 C567 1.429 . S
C562 C554 1.574 . S
C562 H557 0.949 . S
C562 C568 1.368 . S
C563 C547 1.349 . S
C563 H555 0.950 . S
C563 C561 1.327 . S
C564 C552 1.349 . S
C564 H558 0.950 . S
C564 C565 1.327 . S
C565 H559 0.950 . S
C565 C564 1.327 . S
C565 C569 1.429 . S
C566 C549 1.574 . S
C566 H560 0.949 . S
C566 C570 1.368 . S
C567 C548 1.429 . S
C567 C561 1.429 . S
C567 C568 1.523 . S
C568 C549 1.368 . S
C568 C562 1.368 . S
C568 C567 1.523 . S
C569 C553 1.429 . S
C569 C565 1.429 . S
C569 C570 1.523 . S
C570 C554 1.368 . S
C570 C566 1.368 . S
C570 C569 1.523 . S
H571 C546 0.950 . S
H572 C548 0.950 . S
H573 C549 0.949 . S
H574 C551 0.950 . S
H575 C553 0.950 . S
C576 C577 1.349 . S
C576 C578 1.327 . S
C576 H601 0.950 . S
C577 C576 1.349 . S
C577 C593 1.349 . S
C578 C576 1.327 . S
C578 C597 1.429 . S
C578 H602 0.950 . S
C579 C596 1.574 . S
C579 C598 1.368 . S
C579 H603 0.949 . S
H580 C584 0.949 . S
C581 C582 1.349 . S
C581 C583 1.327 . S
C581 H604 0.950 . S
C582 C581 1.349 . S
C582 C594 1.349 . S
C583 C581 1.327 . S
C583 C599 1.429 . S
C583 H605 0.950 . S
C584 H580 0.949 . S
C584 C592 1.574 . S
C584 C600 1.368 . S
H585 C593 0.950 . S
H586 C591 0.950 . S
H587 C592 0.949 . S
H588 C594 0.950 . S
H589 C595 0.950 . S
H590 C596 0.949 . S
C591 H586 0.950 . S
C591 C593 1.327 . S
C591 C597 1.429 . S
C592 C584 1.574 . S
C592 H587 0.949 . S
C592 C598 1.368 . S
C593 C577 1.349 . S
C593 H585 0.950 . S
C593 C591 1.327 . S
C594 C582 1.349 . S
C594 H588 0.950 . S
C594 C595 1.327 . S
C595 H589 0.950 . S
C595 C594 1.327 . S
C595 C599 1.429 . S
C596 C579 1.574 . S
C596 H590 0.949 . S
C596 C600 1.368 . S
C597 C578 1.429 . S
C597 C591 1.429 . S
C597 C598 1.523 . S
C598 C579 1.368 . S
C598 C592 1.368 . S
C598 C597 1.523 . S
C599 C583 1.429 . S
C599 C595 1.429 . S
C599 C600 1.523 . S
C600 C584 1.368 . S
C600 C596 1.368 . S
C600 C599 1.523 . S
H601 C576 0.950 . S
H602 C578 0.950 . S
H603 C579 0.949 . S
H604 C581 0.950 . S
H605 C583 0.950 . S
C606 C607 1.349 . S
C606 C608 1.327 . S
C606 H631 0.950 . S
C607 C606 1.349 . S
C607 C623 1.349 . S
C608 C606 1.327 . S
C608 C627 1.429 . S
C608 H632 0.950 . S
C609 C626 1.574 . S
C609 C628 1.368 . S
C609 H633 0.949 . S
H610 C614 0.949 . S
C611 C612 1.349 . S
C611 C613 1.327 . S
C611 H634 0.950 . S
C612 C611 1.349 . S
C612 C624 1.349 . S
C613 C611 1.327 . S
C613 C629 1.429 . S
C613 H635 0.950 . S
C614 H610 0.949 . S
C614 C622 1.574 . S
C614 C630 1.368 . S
H615 C623 0.950 . S
H616 C621 0.950 . S
H617 C622 0.949 . S
H618 C624 0.950 . S
H619 C625 0.950 . S
H620 C626 0.949 . S
C621 H616 0.950 . S
C621 C623 1.327 . S
C621 C627 1.429 . S
C622 C614 1.574 . S
C622 H617 0.949 . S
C622 C628 1.368 . S
C623 C607 1.349 . S
C623 H615 0.950 . S
C623 C621 1.327 . S
C624 C612 1.349 . S
C624 H618 0.950 . S
C624 C625 1.327 . S
C625 H619 0.950 . S
C625 C624 1.327 . S
C625 C629 1.429 . S
C626 C609 1.574 . S
C626 H620 0.949 . S
C626 C630 1.368 . S
C627 C608 1.429 . S
C627 C621 1.429 . S
C627 C628 1.523 . S
C628 C609 1.368 . S
C628 C622 1.368 . S
C628 C627 1.523 . S
C629 C613 1.429 . S
C629 C625 1.429 . S
C629 C630 1.523 . S
C630 C614 1.368 . S
C630 C626 1.368 . S
C630 C629 1.523 . S
H631 C606 0.950 . S
H632 C608 0.950 . S
H633 C609 0.949 . S
H634 C611 0.950 . S
H635 C613 0.950 . S
C636 C637 1.349 . S
C636 C638 1.327 . S
C636 H661 0.950 . S
C637 C636 1.349 . S
C637 C653 1.349 . S
C638 C636 1.327 . S
C638 C657 1.429 . S
C638 H662 0.950 . S
C639 C656 1.574 . S
C639 C658 1.368 . S
C639 H663 0.949 . S
H640 C644 0.949 . S
C641 C642 1.349 . S
C641 C643 1.327 . S
C641 H664 0.950 . S
C642 C641 1.349 . S
C642 C654 1.349 . S
C643 C641 1.327 . S
C643 C659 1.429 . S
C643 H665 0.950 . S
C644 H640 0.949 . S
C644 C652 1.574 . S
C644 C660 1.368 . S
H645 C653 0.950 . S
H646 C651 0.950 . S
H647 C652 0.949 . S
H648 C654 0.950 . S
H649 C655 0.950 . S
H650 C656 0.949 . S
C651 H646 0.950 . S
C651 C653 1.327 . S
C651 C657 1.429 . S
C652 C644 1.574 . S
C652 H647 0.949 . S
C652 C658 1.368 . S
C653 C637 1.349 . S
C653 H645 0.950 . S
C653 C651 1.327 . S
C654 C642 1.349 . S
C654 H648 0.950 . S
C654 C655 1.327 . S
C655 H649 0.950 . S
C655 C654 1.327 . S
C655 C659 1.429 . S
C656 C639 1.574 . S
C656 H650 0.949 . S
C656 C660 1.368 . S
C657 C638 1.429 . S
C657 C651 1.429 . S
C657 C658 1.523 . S
C658 C639 1.368 . S
C658 C652 1.368 . S
C658 C657 1.523 . S
C659 C643 1.429 . S
C659 C655 1.429 . S
C659 C660 1.523 . S
C660 C644 1.368 . S
C660 C656 1.368 . S
C660 C659 1.523 . S
H661 C636 0.950 . S
H662 C638 0.950 . S
H663 C639 0.949 . S
H664 C641 0.950 . S
H665 C643 0.950 . S
C666 C667 1.349 . S
C666 C668 1.327 . S
C666 H691 0.950 . S
C667 C666 1.349 . S
C667 C683 1.349 . S
C668 C666 1.327 . S
C668 C687 1.429 . S
C668 H692 0.950 . S
C669 C686 1.574 . S
C669 C688 1.368 . S
C669 H693 0.949 . S
H670 C674 0.949 . S
C671 C672 1.349 . S
C671 C673 1.327 . S
C671 H694 0.950 . S
C672 C671 1.349 . S
C672 C684 1.349 . S
C673 C671 1.327 . S
C673 C689 1.429 . S
C673 H695 0.950 . S
C674 H670 0.949 . S
C674 C682 1.574 . S
C674 C690 1.368 . S
H675 C683 0.950 . S
H676 C681 0.950 . S
H677 C682 0.949 . S
H678 C684 0.950 . S
H679 C685 0.950 . S
H680 C686 0.949 . S
C681 H676 0.950 . S
C681 C683 1.327 . S
C681 C687 1.429 . S
C682 C674 1.574 . S
C682 H677 0.949 . S
C682 C688 1.368 . S
C683 C667 1.349 . S
C683 H675 0.950 . S
C683 C681 1.327 . S
C684 C672 1.349 . S
C684 H678 0.950 . S
C684 C685 1.327 . S
C685 H679 0.950 . S
C685 C684 1.327 . S
C685 C689 1.429 . S
C686 C669 1.574 . S
C686 H680 0.949 . S
C686 C690 1.368 . S
C687 C668 1.429 . S
C687 C681 1.429 . S
C687 C688 1.523 . S
C688 C669 1.368 . S
C688 C682 1.368 . S
C688 C687 1.523 . S
C689 C673 1.429 . S
C689 C685 1.429 . S
C689 C690 1.523 . S
C690 C674 1.368 . S
C690 C686 1.368 . S
C690 C689 1.523 . S
H691 C666 0.950 . S
H692 C668 0.950 . S
H693 C669 0.949 . S
H694 C671 0.950 . S
H695 C673 0.950 . S
C696 C697 1.349 . S
C696 C698 1.327 . S
C696 H721 0.950 . S
C697 C696 1.349 . S
C697 C713 1.349 . S
C698 C696 1.327 . S
C698 C717 1.429 . S
C698 H722 0.950 . S
C699 C716 1.574 . S
C699 C718 1.368 . S
C699 H723 0.949 . S
H700 C704 0.949 . S
C701 C702 1.349 . S
C701 C703 1.327 . S
C701 H724 0.950 . S
C702 C701 1.349 . S
C702 C714 1.349 . S
C703 C701 1.327 . S
C703 C719 1.429 . S
C703 H725 0.950 . S
C704 H700 0.949 . S
C704 C712 1.574 . S
C704 C720 1.368 . S
H705 C713 0.950 . S
H706 C711 0.950 . S
H707 C712 0.949 . S
H708 C714 0.950 . S
H709 C715 0.950 . S
H710 C716 0.949 . S
C711 H706 0.950 . S
C711 C713 1.327 . S
C711 C717 1.429 . S
C712 C704 1.574 . S
C712 H707 0.949 . S
C712 C718 1.368 . S
C713 C697 1.349 . S
C713 H705 0.950 . S
C713 C711 1.327 . S
C714 C702 1.349 . S
C714 H708 0.950 . S
C714 C715 1.327 . S
C715 H709 0.950 . S
C715 C714 1.327 . S
C715 C719 1.429 . S
C716 C699 1.574 . S
C716 H710 0.949 . S
C716 C720 1.368 . S
C717 C698 1.429 . S
C717 C711 1.429 . S
C717 C718 1.523 . S
C718 C699 1.368 . S
C718 C712 1.368 . S
C718 C717 1.523 . S
C719 C703 1.429 . S
C719 C715 1.429 . S
C719 C720 1.523 . S
C720 C704 1.368 . S
C720 C716 1.368 . S
C720 C719 1.523 . S
H721 C696 0.950 . S
H722 C698 0.950 . S
H723 C699 0.949 . S
H724 C701 0.950 . S
H725 C703 0.950 . S
C726 C727 1.349 . S
C726 C728 1.327 . S
C726 H751 0.950 . S
C727 C726 1.349 . S
C727 C743 1.349 . S
C728 C726 1.327 . S
C728 C747 1.429 . S
C728 H752 0.950 . S
C729 C746 1.574 . S
C729 C748 1.368 . S
C729 H753 0.949 . S
H730 C734 0.949 . S
C731 C732 1.349 . S
C731 C733 1.327 . S
C731 H754 0.950 . S
C732 C731 1.349 . S
C732 C744 1.349 . S
C733 C731 1.327 . S
C733 C749 1.429 . S
C733 H755 0.950 . S
C734 H730 0.949 . S
C734 C742 1.574 . S
C734 C750 1.368 . S
H735 C743 0.950 . S
H736 C741 0.950 . S
H737 C742 0.949 . S
H738 C744 0.950 . S
H739 C745 0.950 . S
H740 C746 0.949 . S
C741 H736 0.950 . S
C741 C743 1.327 . S
C741 C747 1.429 . S
C742 C734 1.574 . S
C742 H737 0.949 . S
C742 C748 1.368 . S
C743 C727 1.349 . S
C743 H735 0.950 . S
C743 C741 1.327 . S
C744 C732 1.349 . S
C744 H738 0.950 . S
C744 C745 1.327 . S
C745 H739 0.950 . S
C745 C744 1.327 . S
C745 C749 1.429 . S
C746 C729 1.574 . S
C746 H740 0.949 . S
C746 C750 1.368 . S
C747 C728 1.429 . S
C747 C741 1.429 . S
C747 C748 1.523 . S
C748 C729 1.368 . S
C748 C742 1.368 . S
C748 C747 1.523 . S
C749 C733 1.429 . S
C749 C745 1.429 . S
C749 C750 1.523 . S
C750 C734 1.368 . S
C750 C746 1.368 . S
C750 C749 1.523 . S
H751 C726 0.950 . S
H752 C728 0.950 . S
H753 C729 0.949 . S
H754 C731 0.950 . S
H755 C733 0.950 . S
C756 C757 1.349 . S
C756 C758 1.327 . S
C756 H781 0.950 . S
C757 C756 1.349 . S
C757 C773 1.349 . S
C758 C756 1.327 . S
C758 C777 1.429 . S
C758 H782 0.950 . S
C759 C776 1.574 . S
C759 C778 1.368 . S
C759 H783 0.949 . S
H760 C764 0.949 . S
C761 C762 1.349 . S
C761 C763 1.327 . S
C761 H784 0.950 . S
C762 C761 1.349 . S
C762 C774 1.349 . S
C763 C761 1.327 . S
C763 C779 1.429 . S
C763 H785 0.950 . S
C764 H760 0.949 . S
C764 C772 1.574 . S
C764 C780 1.368 . S
H765 C773 0.950 . S
H766 C771 0.950 . S
H767 C772 0.949 . S
H768 C774 0.950 . S
H769 C775 0.950 . S
H770 C776 0.949 . S
C771 H766 0.950 . S
C771 C773 1.327 . S
C771 C777 1.429 . S
C772 C764 1.574 . S
C772 H767 0.949 . S
C772 C778 1.368 . S
C773 C757 1.349 . S
C773 H765 0.950 . S
C773 C771 1.327 . S
C774 C762 1.349 . S
C774 H768 0.950 . S
C774 C775 1.327 . S
C775 H769 0.950 . S
C775 C774 1.327 . S
C775 C779 1.429 . S
C776 C759 1.574 . S
C776 H770 0.949 . S
C776 C780 1.368 . S
C777 C758 1.429 . S
C777 C771 1.429 . S
C777 C778 1.523 . S
C778 C759 1.368 . S
C778 C772 1.368 . S
C778 C777 1.523 . S
C779 C763 1.429 . S
C779 C775 1.429 . S
C779 C780 1.523 . S
C780 C764 1.368 . S
C780 C776 1.368 . S
C780 C779 1.523 . S
H781 C756 0.950 . S
H782 C758 0.950 . S
H783 C759 0.949 . S
H784 C761 0.950 . S
H785 C763 0.950 . S
C786 C787 1.349 . S
C786 C788 1.327 . S
C786 H811 0.950 . S
C787 C786 1.349 . S
C787 C803 1.349 . S
C788 C786 1.327 . S
C788 C807 1.429 . S
C788 H812 0.950 . S
C789 C806 1.574 . S
C789 C808 1.368 . S
C789 H813 0.949 . S
H790 C794 0.949 . S
C791 C792 1.349 . S
C791 C793 1.327 . S
C791 H814 0.950 . S
C792 C791 1.349 . S
C792 C804 1.349 . S
C793 C791 1.327 . S
C793 C809 1.429 . S
C793 H815 0.950 . S
C794 H790 0.949 . S
C794 C802 1.574 . S
C794 C810 1.368 . S
H795 C803 0.950 . S
H796 C801 0.950 . S
H797 C802 0.949 . S
H798 C804 0.950 . S
H799 C805 0.950 . S
H800 C806 0.949 . S
C801 H796 0.950 . S
C801 C803 1.327 . S
C801 C807 1.429 . S
C802 C794 1.574 . S
C802 H797 0.949 . S
C802 C808 1.368 . S
C803 C787 1.349 . S
C803 H795 0.950 . S
C803 C801 1.327 . S
C804 C792 1.349 . S
C804 H798 0.950 . S
C804 C805 1.327 . S
C805 H799 0.950 . S
C805 C804 1.327 . S
C805 C809 1.429 . S
C806 C789 1.574 . S
C806 H800 0.949 . S
C806 C810 1.368 . S
C807 C788 1.429 . S
C807 C801 1.429 . S
C807 C808 1.523 . S
C808 C789 1.368 . S
C808 C802 1.368 . S
C808 C807 1.523 . S
C809 C793 1.429 . S
C809 C805 1.429 . S
C809 C810 1.523 . S
C810 C794 1.368 . S
C810 C806 1.368 . S
C810 C809 1.523 . S
H811 C786 0.950 . S
H812 C788 0.950 . S
H813 C789 0.949 . S
H814 C791 0.950 . S
H815 C793 0.950 . S
C816 C817 1.349 . S
C816 C818 1.327 . S
C816 H841 0.950 . S
C817 C816 1.349 . S
C817 C833 1.349 . S
C818 C816 1.327 . S
C818 C837 1.429 . S
C818 H842 0.950 . S
C819 C836 1.574 . S
C819 C838 1.368 . S
C819 H843 0.949 . S
H820 C824 0.949 . S
C821 C822 1.349 . S
C821 C823 1.327 . S
C821 H844 0.950 . S
C822 C821 1.349 . S
C822 C834 1.349 . S
C823 C821 1.327 . S
C823 C839 1.429 . S
C823 H845 0.950 . S
C824 H820 0.949 . S
C824 C832 1.574 . S
C824 C840 1.368 . S
H825 C833 0.950 . S
H826 C831 0.950 . S
H827 C832 0.949 . S
H828 C834 0.950 . S
H829 C835 0.950 . S
H830 C836 0.949 . S
C831 H826 0.950 . S
C831 C833 1.327 . S
C831 C837 1.429 . S
C832 C824 1.574 . S
C832 H827 0.949 . S
C832 C838 1.368 . S
C833 C817 1.349 . S
C833 H825 0.950 . S
C833 C831 1.327 . S
C834 C822 1.349 . S
C834 H828 0.950 . S
C834 C835 1.327 . S
C835 H829 0.950 . S
C835 C834 1.327 . S
C835 C839 1.429 . S
C836 C819 1.574 . S
C836 H830 0.949 . S
C836 C840 1.368 . S
C837 C818 1.429 . S
C837 C831 1.429 . S
C837 C838 1.523 . S
C838 C819 1.368 . S
C838 C832 1.368 . S
C838 C837 1.523 . S
C839 C823 1.429 . S
C839 C835 1.429 . S
C839 C840 1.523 . S
C840 C824 1.368 . S
C840 C836 1.368 . S
C840 C839 1.523 . S
H841 C816 0.950 . S
H842 C818 0.950 . S
H843 C819 0.949 . S
H844 C821 0.950 . S
H845 C823 0.950 . S
C846 C847 1.349 . S
C846 C848 1.327 . S
C846 H871 0.950 . S
C847 C846 1.349 . S
C847 C863 1.349 . S
C848 C846 1.327 . S
C848 C867 1.429 . S
C848 H872 0.950 . S
C849 C866 1.574 . S
C849 C868 1.368 . S
C849 H873 0.949 . S
H850 C854 0.949 . S
C851 C852 1.349 . S
C851 C853 1.327 . S
C851 H874 0.950 . S
C852 C851 1.349 . S
C852 C864 1.349 . S
C853 C851 1.327 . S
C853 C869 1.429 . S
C853 H875 0.950 . S
C854 H850 0.949 . S
C854 C862 1.574 . S
C854 C870 1.368 . S
H855 C863 0.950 . S
H856 C861 0.950 . S
H857 C862 0.949 . S
H858 C864 0.950 . S
H859 C865 0.950 . S
H860 C866 0.949 . S
C861 H856 0.950 . S
C861 C863 1.327 . S
C861 C867 1.429 . S
C862 C854 1.574 . S
C862 H857 0.949 . S
C862 C868 1.368 . S
C863 C847 1.349 . S
C863 H855 0.950 . S
C863 C861 1.327 . S
C864 C852 1.349 . S
C864 H858 0.950 . S
C864 C865 1.327 . S
C865 H859 0.950 . S
C865 C864 1.327 . S
C865 C869 1.429 . S
C866 C849 1.574 . S
C866 H860 0.949 . S
C866 C870 1.368 . S
C867 C848 1.429 . S
C867 C861 1.429 . S
C867 C868 1.523 . S
C868 C849 1.368 . S
C868 C862 1.368 . S
C868 C867 1.523 . S
C869 C853 1.429 . S
C869 C865 1.429 . S
C869 C870 1.523 . S
C870 C854 1.368 . S
C870 C866 1.368 . S
C870 C869 1.523 . S
H871 C846 0.950 . S
H872 C848 0.950 . S
H873 C849 0.949 . S
H874 C851 0.950 . S
H875 C853 0.950 . S
C876 C877 1.349 . S
C876 C878 1.327 . S
C876 H901 0.950 . S
C877 C876 1.349 . S
C877 C893 1.349 . S
C878 C876 1.327 . S
C878 C897 1.429 . S
C878 H902 0.950 . S
C879 C896 1.574 . S
C879 C898 1.368 . S
C879 H903 0.949 . S
H880 C884 0.949 . S
C881 C882 1.349 . S
C881 C883 1.327 . S
C881 H904 0.950 . S
C882 C881 1.349 . S
C882 C894 1.349 . S
C883 C881 1.327 . S
C883 C899 1.429 . S
C883 H905 0.950 . S
C884 H880 0.949 . S
C884 C892 1.574 . S
C884 C900 1.368 . S
H885 C893 0.950 . S
H886 C891 0.950 . S
H887 C892 0.949 . S
H888 C894 0.950 . S
H889 C895 0.950 . S
H890 C896 0.949 . S
C891 H886 0.950 . S
C891 C893 1.327 . S
C891 C897 1.429 . S
C892 C884 1.574 . S
C892 H887 0.949 . S
C892 C898 1.368 . S
C893 C877 1.349 . S
C893 H885 0.950 . S
C893 C891 1.327 . S
C894 C882 1.349 . S
C894 H888 0.950 . S
C894 C895 1.327 . S
C895 H889 0.950 . S
C895 C894 1.327 . S
C895 C899 1.429 . S
C896 C879 1.574 . S
C896 H890 0.949 . S
C896 C900 1.368 . S
C897 C878 1.429 . S
C897 C891 1.429 . S
C897 C898 1.523 . S
C898 C879 1.368 . S
C898 C892 1.368 . S
C898 C897 1.523 . S
C899 C883 1.429 . S
C899 C895 1.429 . S
C899 C900 1.523 . S
C900 C884 1.368 . S
C900 C896 1.368 . S
C900 C899 1.523 . S
H901 C876 0.950 . S
H902 C878 0.950 . S
H903 C879 0.949 . S
H904 C881 0.950 . S
H905 C883 0.950 . S
C906 C907 1.349 . S
C906 C908 1.327 . S
C906 H931 0.950 . S
C907 C906 1.349 . S
C907 C923 1.349 . S
C908 C906 1.327 . S
C908 C927 1.429 . S
C908 H932 0.950 . S
C909 C926 1.574 . S
C909 C928 1.368 . S
C909 H933 0.949 . S
H910 C914 0.949 . S
C911 C912 1.349 . S
C911 C913 1.327 . S
C911 H934 0.950 . S
C912 C911 1.349 . S
C912 C924 1.349 . S
C913 C911 1.327 . S
C913 C929 1.429 . S
C913 H935 0.950 . S
C914 H910 0.949 . S
C914 C922 1.574 . S
C914 C930 1.368 . S
H915 C923 0.950 . S
H916 C921 0.950 . S
H917 C922 0.949 . S
H918 C924 0.950 . S
H919 C925 0.950 . S
H920 C926 0.949 . S
C921 H916 0.950 . S
C921 C923 1.327 . S
C921 C927 1.429 . S
C922 C914 1.574 . S
C922 H917 0.949 . S
C922 C928 1.368 . S
C923 C907 1.349 . S
C923 H915 0.950 . S
C923 C921 1.327 . S
C924 C912 1.349 . S
C924 H918 0.950 . S
C924 C925 1.327 . S
C925 H919 0.950 . S
C925 C924 1.327 . S
C925 C929 1.429 . S
C926 C909 1.574 . S
C926 H920 0.949 . S
C926 C930 1.368 . S
C927 C908 1.429 . S
C927 C921 1.429 . S
C927 C928 1.523 . S
C928 C909 1.368 . S
C928 C922 1.368 . S
C928 C927 1.523 . S
C929 C913 1.429 . S
C929 C925 1.429 . S
C929 C930 1.523 . S
C930 C914 1.368 . S
C930 C926 1.368 . S
C930 C929 1.523 . S
H931 C906 0.950 . S
H932 C908 0.950 . S
H933 C909 0.949 . S
H934 C911 0.950 . S
H935 C913 0.950 . S
C936 C937 1.349 . S
C936 C938 1.327 . S
C936 H961 0.950 . S
C937 C936 1.349 . S
C937 C953 1.349 . S
C938 C936 1.327 . S
C938 C957 1.429 . S
C938 H962 0.950 . S
C939 C956 1.574 . S
C939 C958 1.368 . S
C939 H963 0.949 . S
H940 C944 0.949 . S
C941 C942 1.349 . S
C941 C943 1.327 . S
C941 H964 0.950 . S
C942 C941 1.349 . S
C942 C954 1.349 . S
C943 C941 1.327 . S
C943 C959 1.429 . S
C943 H965 0.950 . S
C944 H940 0.949 . S
C944 C952 1.574 . S
C944 C960 1.368 . S
H945 C953 0.950 . S
H946 C951 0.950 . S
H947 C952 0.949 . S
H948 C954 0.950 . S
H949 C955 0.950 . S
H950 C956 0.949 . S
C951 H946 0.950 . S
C951 C953 1.327 . S
C951 C957 1.429 . S
C952 C944 1.574 . S
C952 H947 0.949 . S
C952 C958 1.368 . S
C953 C937 1.349 . S
C953 H945 0.950 . S
C953 C951 1.327 . S
C954 C942 1.349 . S
C954 H948 0.950 . S
C954 C955 1.327 . S
C955 H949 0.950 . S
C955 C954 1.327 . S
C955 C959 1.429 . S
C956 C939 1.574 . S
C956 H950 0.949 . S
C956 C960 1.368 . S
C957 C938 1.429 . S
C957 C951 1.429 . S
C957 C958 1.523 . S
C958 C939 1.368 . S
C958 C952 1.368 . S
C958 C957 1.523 . S
C959 C943 1.429 . S
C959 C955 1.429 . S
C959 C960 1.523 . S
C960 C944 1.368 . S
C960 C956 1.368 . S
C960 C959 1.523 . S
H961 C936 0.950 . S
H962 C938 0.950 . S
H963 C939 0.949 . S
H964 C941 0.950 . S
H965 C943 0.950 . S
C966 C967 1.349 . S
C966 C968 1.327 . S
C966 H991 0.950 . S
C967 C966 1.349 . S
C967 C983 1.349 . S
C968 C966 1.327 . S
C968 C987 1.429 . S
C968 H992 0.950 . S
C969 C986 1.574 . S
C969 C988 1.368 . S
C969 H993 0.949 . S
H970 C974 0.949 . S
C971 C972 1.349 . S
C971 C973 1.327 . S
C971 H994 0.950 . S
C972 C971 1.349 . S
C972 C984 1.349 . S
C973 C971 1.327 . S
C973 C989 1.429 . S
C973 H995 0.950 . S
C974 H970 0.949 . S
C974 C982 1.574 . S
C974 C990 1.368 . S
H975 C983 0.950 . S
H976 C981 0.950 . S
H977 C982 0.949 . S
H978 C984 0.950 . S
H979 C985 0.950 . S
H980 C986 0.949 . S
C981 H976 0.950 . S
C981 C983 1.327 . S
C981 C987 1.429 . S
C982 C974 1.574 . S
C982 H977 0.949 . S
C982 C988 1.368 . S
C983 C967 1.349 . S
C983 H975 0.950 . S
C983 C981 1.327 . S
C984 C972 1.349 . S
C984 H978 0.950 . S
C984 C985 1.327 . S
C985 H979 0.950 . S
C985 C984 1.327 . S
C985 C989 1.429 . S
C986 C969 1.574 . S
C986 H980 0.949 . S
C986 C990 1.368 . S
C987 C968 1.429 . S
C987 C981 1.429 . S
C987 C988 1.523 . S
C988 C969 1.368 . S
C988 C982 1.368 . S
C988 C987 1.523 . S
C989 C973 1.429 . S
C989 C985 1.429 . S
C989 C990 1.523 . S
C990 C974 1.368 . S
C990 C986 1.368 . S
C990 C989 1.523 . S
H991 C966 0.950 . S
H992 C968 0.950 . S
H993 C969 0.949 . S
H994 C971 0.950 . S
H995 C973 0.950 . S
C996 C997 1.349 . S
C996 C998 1.327 . S
C996 H1021 0.950 . S
C997 C996 1.349 . S
C997 C1013 1.349 . S
C998 C996 1.327 . S
C998 C1017 1.429 . S
C998 H1022 0.950 . S
C999 C1016 1.574 . S
C999 C1018 1.368 . S
C999 H1023 0.949 . S
H1000 C1004 0.949 . S
C1001 C1002 1.349 . S
C1001 C1003 1.327 . S
C1001 H1024 0.950 . S
C1002 C1001 1.349 . S
C1002 C1014 1.349 . S
C1003 C1001 1.327 . S
C1003 C1019 1.429 . S
C1003 H1025 0.950 . S
C1004 H1000 0.949 . S
C1004 C1012 1.574 . S
C1004 C1020 1.368 . S
H1005 C1013 0.950 . S
H1006 C1011 0.950 . S
H1007 C1012 0.949 . S
H1008 C1014 0.950 . S
H1009 C1015 0.950 . S
H1010 C1016 0.949 . S
C1011 H1006 0.950 . S
C1011 C1013 1.327 . S
C1011 C1017 1.429 . S
C1012 C1004 1.574 . S
C1012 H1007 0.949 . S
C1012 C1018 1.368 . S
C1013 C997 1.349 . S
C1013 H1005 0.950 . S
C1013 C1011 1.327 . S
C1014 C1002 1.349 . S
C1014 H1008 0.950 . S
C1014 C1015 1.327 . S
C1015 H1009 0.950 . S
C1015 C1014 1.327 . S
C1015 C1019 1.429 . S
C1016 C999 1.574 . S
C1016 H1010 0.949 . S
C1016 C1020 1.368 . S
C1017 C998 1.429 . S
C1017 C1011 1.429 . S
C1017 C1018 1.523 . S
C1018 C999 1.368 . S
C1018 C1012 1.368 . S
C1018 C1017 1.523 . S
C1019 C1003 1.429 . S
C1019 C1015 1.429 . S
C1019 C1020 1.523 . S
C1020 C1004 1.368 . S
C1020 C1016 1.368 . S
C1020 C1019 1.523 . S
H1021 C996 0.950 . S
H1022 C998 0.950 . S
H1023 C999 0.949 . S
H1024 C1001 0.950 . S
H1025 C1003 0.950 . S
C1026 C1027 1.349 . S
C1026 C1028 1.327 . S
C1026 H1051 0.950 . S
C1027 C1026 1.349 . S
C1027 C1043 1.349 . S
C1028 C1026 1.327 . S
C1028 C1047 1.429 . S
C1028 H1052 0.950 . S
C1029 C1046 1.574 . S
C1029 C1048 1.368 . S
C1029 H1053 0.949 . S
H1030 C1034 0.949 . S
C1031 C1032 1.349 . S
C1031 C1033 1.327 . S
C1031 H1054 0.950 . S
C1032 C1031 1.349 . S
C1032 C1044 1.349 . S
C1033 C1031 1.327 . S
C1033 C1049 1.429 . S
C1033 H1055 0.950 . S
C1034 H1030 0.949 . S
C1034 C1042 1.574 . S
C1034 C1050 1.368 . S
H1035 C1043 0.950 . S
H1036 C1041 0.950 . S
H1037 C1042 0.949 . S
H1038 C1044 0.950 . S
H1039 C1045 0.950 . S
H1040 C1046 0.949 . S
C1041 H1036 0.950 . S
C1041 C1043 1.327 . S
C1041 C1047 1.429 . S
C1042 C1034 1.574 . S
C1042 H1037 0.949 . S
C1042 C1048 1.368 . S
C1043 C1027 1.349 . S
C1043 H1035 0.950 . S
C1043 C1041 1.327 . S
C1044 C1032 1.349 . S
C1044 H1038 0.950 . S
C1044 C1045 1.327 . S
C1045 H1039 0.950 . S
C1045 C1044 1.327 . S
C1045 C1049 1.429 . S
C1046 C1029 1.574 . S
C1046 H1040 0.949 . S
C1046 C1050 1.368 . S
C1047 C1028 1.429 . S
C1047 C1041 1.429 . S
C1047 C1048 1.523 . S
C1048 C1029 1.368 . S
C1048 C1042 1.368 . S
C1048 C1047 1.523 . S
C1049 C1033 1.429 . S
C1049 C1045 1.429 . S
C1049 C1050 1.523 . S
C1050 C1034 1.368 . S
C1050 C1046 1.368 . S
C1050 C1049 1.523 . S
H1051 C1026 0.950 . S
H1052 C1028 0.950 . S
H1053 C1029 0.949 . S
H1054 C1031 0.950 . S
H1055 C1033 0.950 . S
C1056 C1057 1.349 . S
C1056 C1058 1.327 . S
C1056 H1081 0.950 . S
C1057 C1056 1.349 . S
C1057 C1073 1.349 . S
C1058 C1056 1.327 . S
C1058 C1077 1.429 . S
C1058 H1082 0.950 . S
C1059 C1076 1.574 . S
C1059 C1078 1.368 . S
C1059 H1083 0.949 . S
H1060 C1064 0.949 . S
C1061 C1062 1.349 . S
C1061 C1063 1.327 . S
C1061 H1084 0.950 . S
C1062 C1061 1.349 . S
C1062 C1074 1.349 . S
C1063 C1061 1.327 . S
C1063 C1079 1.429 . S
C1063 H1085 0.950 . S
C1064 H1060 0.949 . S
C1064 C1072 1.574 . S
C1064 C1080 1.368 . S
H1065 C1073 0.950 . S
H1066 C1071 0.950 . S
H1067 C1072 0.949 . S
H1068 C1074 0.950 . S
H1069 C1075 0.950 . S
H1070 C1076 0.949 . S
C1071 H1066 0.950 . S
C1071 C1073 1.327 . S
C1071 C1077 1.429 . S
C1072 C1064 1.574 . S
C1072 H1067 0.949 . S
C1072 C1078 1.368 . S
C1073 C1057 1.349 . S
C1073 H1065 0.950 . S
C1073 C1071 1.327 . S
C1074 C1062 1.349 . S
C1074 H1068 0.950 . S
C1074 C1075 1.327 . S
C1075 H1069 0.950 . S
C1075 C1074 1.327 . S
C1075 C1079 1.429 . S
C1076 C1059 1.574 . S
C1076 H1070 0.949 . S
C1076 C1080 1.368 . S
C1077 C1058 1.429 . S
C1077 C1071 1.429 . S
C1077 C1078 1.523 . S
C1078 C1059 1.368 . S
C1078 C1072 1.368 . S
C1078 C1077 1.523 . S
C1079 C1063 1.429 . S
C1079 C1075 1.429 . S
C1079 C1080 1.523 . S
C1080 C1064 1.368 . S
C1080 C1076 1.368 . S
C1080 C1079 1.523 . S
H1081 C1056 0.950 . S
H1082 C1058 0.950 . S
H1083 C1059 0.949 . S
H1084 C1061 0.950 . S
H1085 C1063 0.950 . S
C1086 C1087 1.349 . S
C1086 C1088 1.327 . S
C1086 H1111 0.950 . S
C1087 C1086 1.349 . S
C1087 C1103 1.349 . S
C1088 C1086 1.327 . S
C1088 C1107 1.429 . S
C1088 H1112 0.950 . S
C1089 C1106 1.574 . S
C1089 C1108 1.368 . S
C1089 H1113 0.949 . S
H1090 C1094 0.949 . S
C1091 C1092 1.349 . S
C1091 C1093 1.327 . S
C1091 H1114 0.950 . S
C1092 C1091 1.349 . S
C1092 C1104 1.349 . S
C1093 C1091 1.327 . S
C1093 C1109 1.429 . S
C1093 H1115 0.950 . S
C1094 H1090 0.949 . S
C1094 C1102 1.574 . S
C1094 C1110 1.368 . S
H1095 C1103 0.950 . S
H1096 C1101 0.950 . S
H1097 C1102 0.949 . S
H1098 C1104 0.950 . S
H1099 C1105 0.950 . S
H1100 C1106 0.949 . S
C1101 H1096 0.950 . S
C1101 C1103 1.327 . S
C1101 C1107 1.429 . S
C1102 C1094 1.574 . S
C1102 H1097 0.949 . S
C1102 C1108 1.368 . S
C1103 C1087 1.349 . S
C1103 H1095 0.950 . S
C1103 C1101 1.327 . S
C1104 C1092 1.349 . S
C1104 H1098 0.950 . S
C1104 C1105 1.327 . S
C1105 H1099 0.950 . S
C1105 C1104 1.327 . S
C1105 C1109 1.429 . S
C1106 C1089 1.574 . S
C1106 H1100 0.949 . S
C1106 C1110 1.368 . S
C1107 C1088 1.429 . S
C1107 C1101 1.429 . S
C1107 C1108 1.523 . S
C1108 C1089 1.368 . S
C1108 C1102 1.368 . S
C1108 C1107 1.523 . S
C1109 C1093 1.429 . S
C1109 C1105 1.429 . S
C1109 C1110 1.523 . S
C1110 C1094 1.368 . S
C1110 C1106 1.368 . S
C1110 C1109 1.523 . S
H1111 C1086 0.950 . S
H1112 C1088 0.950 . S
H1113 C1089 0.949 . S
H1114 C1091 0.950 . S
H1115 C1093 0.950 . S
C397 C39 1.732 . S
C402 C319 1.728 . S
C427 C91 1.754 . S
C432 C332 1.751 . S
C462 C354 1.541 . S
C457 C128 1.592 . S
C492 C367 1.514 . S
C487 C188 1.561 . S
C522 C380 1.637 . S
C517 C250 1.688 . S
C552 C393 1.638 . S
C547 C304 1.697 . S
C577 C75 1.590 . S
C582 C349 1.529 . S
C607 C144 1.716 . S
C612 C362 1.651 . S
C642 C375 1.621 . S
C637 C198 1.682 . S
C672 C388 1.463 . S
C667 C234 1.523 . S
C697 C294 1.548 . S
C702 C321 1.547 . S
C732 C334 1.582 . S
C727 C29 1.582 . S
C762 C360 1.659 . S
C757 C38 1.725 . S
C787 C92 1.752 . S
C792 C373 1.689 . S
C822 C386 1.527 . S
C817 C135 1.589 . S
C847 C181 1.558 . S
C852 C323 1.558 . S
C877 C251 1.684 . S
C882 C336 1.683 . S
C907 C303 1.688 . S
C912 C347 1.618 . S
C937 C82 1.595 . S
C942 C384 1.545 . S
C972 C328 1.720 . S
C967 C145 1.723 . S
C997 C197 1.689 . S
C1002 C341 1.686 . S
C1027 C241 1.530 . S
C1032 C345 1.480 . S
C1057 C287 1.551 . S
C1062 C358 1.504 . S
C1087 C22 1.583 . S
C1092 C371 1.539 . S
