# Generated by pormake.
# Topology ana-f, (3,3)-cn, num edge types: 1
# Building blocks:
#     Node 0, Type 0, BuildingBlock: OLANEW_clean_sbu_2, # of connection points: 3
#     Node 1, Type 0, BuildingBlock: OLANEW_clean_sbu_2, # of connection points: 3
#     Node 2, Type 0, BuildingBlock: OLANEW_clean_sbu_2, # of connection points: 3
#     Node 3, Type 0, BuildingBlock: OLANEW_clean_sbu_2, # of connection points: 3
#     Node 4, Type 0, BuildingBlock: OLANEW_clean_sbu_2, # of connection points: 3
#     Node 5, Type 0, BuildingBlock: OLANEW_clean_sbu_2, # of connection points: 3
#     Node 6, Type 0, BuildingBlock: OLANEW_clean_sbu_2, # of connection points: 3
#     Node 7, Type 0, BuildingBlock: OLANEW_clean_sbu_2, # of connection points: 3
#     Node 8, Type 0, BuildingBlock: OLANEW_clean_sbu_2, # of connection points: 3
#     Node 9, Type 0, BuildingBlock: OLANEW_clean_sbu_2, # of connection points: 3
#     Node 10, Type 0, BuildingBlock: OLANEW_clean_sbu_2, # of connection points: 3
#     Node 11, Type 0, BuildingBlock: OLANEW_clean_sbu_2, # of connection points: 3
#     Node 12, Type 0, BuildingBlock: OLANEW_clean_sbu_2, # of connection points: 3
#     Node 13, Type 0, BuildingBlock: OLANEW_clean_sbu_2, # of connection points: 3
#     Node 14, Type 0, BuildingBlock: OLANEW_clean_sbu_2, # of connection points: 3
#     Node 15, Type 0, BuildingBlock: OLANEW_clean_sbu_2, # of connection points: 3
#     Node 16, Type 0, BuildingBlock: OLANEW_clean_sbu_2, # of connection points: 3
#     Node 17, Type 0, BuildingBlock: OLANEW_clean_sbu_2, # of connection points: 3
#     Node 18, Type 0, BuildingBlock: OLANEW_clean_sbu_2, # of connection points: 3
#     Node 19, Type 0, BuildingBlock: OLANEW_clean_sbu_2, # of connection points: 3
#     Node 20, Type 0, BuildingBlock: OLANEW_clean_sbu_2, # of connection points: 3
#     Node 21, Type 0, BuildingBlock: OLANEW_clean_sbu_2, # of connection points: 3
#     Node 22, Type 0, BuildingBlock: OLANEW_clean_sbu_2, # of connection points: 3
#     Node 23, Type 0, BuildingBlock: OLANEW_clean_sbu_2, # of connection points: 3
#     Node 24, Type 0, BuildingBlock: OLANEW_clean_sbu_2, # of connection points: 3
#     Node 25, Type 0, BuildingBlock: OLANEW_clean_sbu_2, # of connection points: 3
#     Node 26, Type 0, BuildingBlock: OLANEW_clean_sbu_2, # of connection points: 3
#     Node 27, Type 0, BuildingBlock: OLANEW_clean_sbu_2, # of connection points: 3
#     Node 28, Type 0, BuildingBlock: OLANEW_clean_sbu_2, # of connection points: 3
#     Node 29, Type 0, BuildingBlock: OLANEW_clean_sbu_2, # of connection points: 3
#     Node 30, Type 0, BuildingBlock: OLANEW_clean_sbu_2, # of connection points: 3
#     Node 31, Type 0, BuildingBlock: OLANEW_clean_sbu_2, # of connection points: 3
#     Node 32, Type 0, BuildingBlock: OLANEW_clean_sbu_2, # of connection points: 3
#     Node 33, Type 0, BuildingBlock: OLANEW_clean_sbu_2, # of connection points: 3
#     Node 34, Type 0, BuildingBlock: OLANEW_clean_sbu_2, # of connection points: 3
#     Node 35, Type 0, BuildingBlock: OLANEW_clean_sbu_2, # of connection points: 3
#     Node 36, Type 0, BuildingBlock: OLANEW_clean_sbu_2, # of connection points: 3
#     Node 37, Type 0, BuildingBlock: OLANEW_clean_sbu_2, # of connection points: 3
#     Node 38, Type 0, BuildingBlock: OLANEW_clean_sbu_2, # of connection points: 3
#     Node 39, Type 0, BuildingBlock: OLANEW_clean_sbu_2, # of connection points: 3
#     Node 40, Type 0, BuildingBlock: OLANEW_clean_sbu_2, # of connection points: 3
#     Node 41, Type 0, BuildingBlock: OLANEW_clean_sbu_2, # of connection points: 3
#     Node 42, Type 0, BuildingBlock: OLANEW_clean_sbu_2, # of connection points: 3
#     Node 43, Type 0, BuildingBlock: OLANEW_clean_sbu_2, # of connection points: 3
#     Node 44, Type 0, BuildingBlock: OLANEW_clean_sbu_2, # of connection points: 3
#     Node 45, Type 0, BuildingBlock: OLANEW_clean_sbu_2, # of connection points: 3
#     Node 46, Type 0, BuildingBlock: OLANEW_clean_sbu_2, # of connection points: 3
#     Node 47, Type 0, BuildingBlock: OLANEW_clean_sbu_2, # of connection points: 3
#     Node 48, Type 0, BuildingBlock: OLANEW_clean_sbu_2, # of connection points: 3
#     Node 49, Type 0, BuildingBlock: OLANEW_clean_sbu_2, # of connection points: 3
#     Node 50, Type 0, BuildingBlock: OLANEW_clean_sbu_2, # of connection points: 3
#     Node 51, Type 0, BuildingBlock: OLANEW_clean_sbu_2, # of connection points: 3
#     Node 52, Type 0, BuildingBlock: OLANEW_clean_sbu_2, # of connection points: 3
#     Node 53, Type 0, BuildingBlock: OLANEW_clean_sbu_2, # of connection points: 3
#     Node 54, Type 0, BuildingBlock: OLANEW_clean_sbu_2, # of connection points: 3
#     Node 55, Type 0, BuildingBlock: OLANEW_clean_sbu_2, # of connection points: 3
#     Node 56, Type 0, BuildingBlock: OLANEW_clean_sbu_2, # of connection points: 3
#     Node 57, Type 0, BuildingBlock: OLANEW_clean_sbu_2, # of connection points: 3
#     Node 58, Type 0, BuildingBlock: OLANEW_clean_sbu_2, # of connection points: 3
#     Node 59, Type 0, BuildingBlock: OLANEW_clean_sbu_2, # of connection points: 3
#     Node 60, Type 0, BuildingBlock: OLANEW_clean_sbu_2, # of connection points: 3
#     Node 61, Type 0, BuildingBlock: OLANEW_clean_sbu_2, # of connection points: 3
#     Node 62, Type 0, BuildingBlock: OLANEW_clean_sbu_2, # of connection points: 3
#     Node 63, Type 0, BuildingBlock: OLANEW_clean_sbu_2, # of connection points: 3
#     Node 64, Type 0, BuildingBlock: OLANEW_clean_sbu_2, # of connection points: 3
#     Node 65, Type 0, BuildingBlock: OLANEW_clean_sbu_2, # of connection points: 3
#     Node 66, Type 0, BuildingBlock: OLANEW_clean_sbu_2, # of connection points: 3
#     Node 67, Type 0, BuildingBlock: OLANEW_clean_sbu_2, # of connection points: 3
#     Node 68, Type 0, BuildingBlock: OLANEW_clean_sbu_2, # of connection points: 3
#     Node 69, Type 0, BuildingBlock: OLANEW_clean_sbu_2, # of connection points: 3
#     Node 70, Type 0, BuildingBlock: OLANEW_clean_sbu_2, # of connection points: 3
#     Node 71, Type 0, BuildingBlock: OLANEW_clean_sbu_2, # of connection points: 3
#     Node 72, Type 0, BuildingBlock: OLANEW_clean_sbu_2, # of connection points: 3
#     Node 73, Type 0, BuildingBlock: OLANEW_clean_sbu_2, # of connection points: 3
#     Node 74, Type 0, BuildingBlock: OLANEW_clean_sbu_2, # of connection points: 3
#     Node 75, Type 0, BuildingBlock: OLANEW_clean_sbu_2, # of connection points: 3
#     Node 76, Type 0, BuildingBlock: OLANEW_clean_sbu_2, # of connection points: 3
#     Node 77, Type 0, BuildingBlock: OLANEW_clean_sbu_2, # of connection points: 3
#     Node 78, Type 0, BuildingBlock: OLANEW_clean_sbu_2, # of connection points: 3
#     Node 79, Type 0, BuildingBlock: OLANEW_clean_sbu_2, # of connection points: 3
#     Node 80, Type 0, BuildingBlock: OLANEW_clean_sbu_2, # of connection points: 3
#     Node 81, Type 0, BuildingBlock: OLANEW_clean_sbu_2, # of connection points: 3
#     Node 82, Type 0, BuildingBlock: OLANEW_clean_sbu_2, # of connection points: 3
#     Node 83, Type 0, BuildingBlock: OLANEW_clean_sbu_2, # of connection points: 3
#     Node 84, Type 0, BuildingBlock: OLANEW_clean_sbu_2, # of connection points: 3
#     Node 85, Type 0, BuildingBlock: OLANEW_clean_sbu_2, # of connection points: 3
#     Node 86, Type 0, BuildingBlock: OLANEW_clean_sbu_2, # of connection points: 3
#     Node 87, Type 0, BuildingBlock: OLANEW_clean_sbu_2, # of connection points: 3
#     Node 88, Type 0, BuildingBlock: OLANEW_clean_sbu_2, # of connection points: 3
#     Node 89, Type 0, BuildingBlock: OLANEW_clean_sbu_2, # of connection points: 3
#     Node 90, Type 0, BuildingBlock: OLANEW_clean_sbu_2, # of connection points: 3
#     Node 91, Type 0, BuildingBlock: OLANEW_clean_sbu_2, # of connection points: 3
#     Node 92, Type 0, BuildingBlock: OLANEW_clean_sbu_2, # of connection points: 3
#     Node 93, Type 0, BuildingBlock: OLANEW_clean_sbu_2, # of connection points: 3
#     Node 94, Type 0, BuildingBlock: OLANEW_clean_sbu_2, # of connection points: 3
#     Node 95, Type 0, BuildingBlock: OLANEW_clean_sbu_2, # of connection points: 3
#     Node 96, Type 1, BuildingBlock: WUSLED_clean_sbu_0, # of connection points: 3
#     Node 97, Type 1, BuildingBlock: WUSLED_clean_sbu_0, # of connection points: 3
#     Node 98, Type 1, BuildingBlock: WUSLED_clean_sbu_0, # of connection points: 3
#     Node 99, Type 1, BuildingBlock: WUSLED_clean_sbu_0, # of connection points: 3
#     Node 100, Type 1, BuildingBlock: WUSLED_clean_sbu_0, # of connection points: 3
#     Node 101, Type 1, BuildingBlock: WUSLED_clean_sbu_0, # of connection points: 3
#     Node 102, Type 1, BuildingBlock: WUSLED_clean_sbu_0, # of connection points: 3
#     Node 103, Type 1, BuildingBlock: WUSLED_clean_sbu_0, # of connection points: 3
#     Node 104, Type 1, BuildingBlock: WUSLED_clean_sbu_0, # of connection points: 3
#     Node 105, Type 1, BuildingBlock: WUSLED_clean_sbu_0, # of connection points: 3
#     Node 106, Type 1, BuildingBlock: WUSLED_clean_sbu_0, # of connection points: 3
#     Node 107, Type 1, BuildingBlock: WUSLED_clean_sbu_0, # of connection points: 3
#     Node 108, Type 1, BuildingBlock: WUSLED_clean_sbu_0, # of connection points: 3
#     Node 109, Type 1, BuildingBlock: WUSLED_clean_sbu_0, # of connection points: 3
#     Node 110, Type 1, BuildingBlock: WUSLED_clean_sbu_0, # of connection points: 3
#     Node 111, Type 1, BuildingBlock: WUSLED_clean_sbu_0, # of connection points: 3
#     Node 112, Type 1, BuildingBlock: WUSLED_clean_sbu_0, # of connection points: 3
#     Node 113, Type 1, BuildingBlock: WUSLED_clean_sbu_0, # of connection points: 3
#     Node 114, Type 1, BuildingBlock: WUSLED_clean_sbu_0, # of connection points: 3
#     Node 115, Type 1, BuildingBlock: WUSLED_clean_sbu_0, # of connection points: 3
#     Node 116, Type 1, BuildingBlock: WUSLED_clean_sbu_0, # of connection points: 3
#     Node 117, Type 1, BuildingBlock: WUSLED_clean_sbu_0, # of connection points: 3
#     Node 118, Type 1, BuildingBlock: WUSLED_clean_sbu_0, # of connection points: 3
#     Node 119, Type 1, BuildingBlock: WUSLED_clean_sbu_0, # of connection points: 3
#     Node 120, Type 1, BuildingBlock: WUSLED_clean_sbu_0, # of connection points: 3
#     Node 121, Type 1, BuildingBlock: WUSLED_clean_sbu_0, # of connection points: 3
#     Node 122, Type 1, BuildingBlock: WUSLED_clean_sbu_0, # of connection points: 3
#     Node 123, Type 1, BuildingBlock: WUSLED_clean_sbu_0, # of connection points: 3
#     Node 124, Type 1, BuildingBlock: WUSLED_clean_sbu_0, # of connection points: 3
#     Node 125, Type 1, BuildingBlock: WUSLED_clean_sbu_0, # of connection points: 3
#     Node 126, Type 1, BuildingBlock: WUSLED_clean_sbu_0, # of connection points: 3
#     Node 127, Type 1, BuildingBlock: WUSLED_clean_sbu_0, # of connection points: 3
#     Node 128, Type 1, BuildingBlock: WUSLED_clean_sbu_0, # of connection points: 3
#     Node 129, Type 1, BuildingBlock: WUSLED_clean_sbu_0, # of connection points: 3
#     Node 130, Type 1, BuildingBlock: WUSLED_clean_sbu_0, # of connection points: 3
#     Node 131, Type 1, BuildingBlock: WUSLED_clean_sbu_0, # of connection points: 3
#     Node 132, Type 1, BuildingBlock: WUSLED_clean_sbu_0, # of connection points: 3
#     Node 133, Type 1, BuildingBlock: WUSLED_clean_sbu_0, # of connection points: 3
#     Node 134, Type 1, BuildingBlock: WUSLED_clean_sbu_0, # of connection points: 3
#     Node 135, Type 1, BuildingBlock: WUSLED_clean_sbu_0, # of connection points: 3
#     Node 136, Type 1, BuildingBlock: WUSLED_clean_sbu_0, # of connection points: 3
#     Node 137, Type 1, BuildingBlock: WUSLED_clean_sbu_0, # of connection points: 3
#     Node 138, Type 1, BuildingBlock: WUSLED_clean_sbu_0, # of connection points: 3
#     Node 139, Type 1, BuildingBlock: WUSLED_clean_sbu_0, # of connection points: 3
#     Node 140, Type 1, BuildingBlock: WUSLED_clean_sbu_0, # of connection points: 3
#     Node 141, Type 1, BuildingBlock: WUSLED_clean_sbu_0, # of connection points: 3
#     Node 142, Type 1, BuildingBlock: WUSLED_clean_sbu_0, # of connection points: 3
#     Node 143, Type 1, BuildingBlock: WUSLED_clean_sbu_0, # of connection points: 3
#     Node 144, Type 1, BuildingBlock: WUSLED_clean_sbu_0, # of connection points: 3
#     Node 145, Type 1, BuildingBlock: WUSLED_clean_sbu_0, # of connection points: 3
#     Node 146, Type 1, BuildingBlock: WUSLED_clean_sbu_0, # of connection points: 3
#     Node 147, Type 1, BuildingBlock: WUSLED_clean_sbu_0, # of connection points: 3
#     Node 148, Type 1, BuildingBlock: WUSLED_clean_sbu_0, # of connection points: 3
#     Node 149, Type 1, BuildingBlock: WUSLED_clean_sbu_0, # of connection points: 3
#     Node 150, Type 1, BuildingBlock: WUSLED_clean_sbu_0, # of connection points: 3
#     Node 151, Type 1, BuildingBlock: WUSLED_clean_sbu_0, # of connection points: 3
#     Node 152, Type 1, BuildingBlock: WUSLED_clean_sbu_0, # of connection points: 3
#     Node 153, Type 1, BuildingBlock: WUSLED_clean_sbu_0, # of connection points: 3
#     Node 154, Type 1, BuildingBlock: WUSLED_clean_sbu_0, # of connection points: 3
#     Node 155, Type 1, BuildingBlock: WUSLED_clean_sbu_0, # of connection points: 3
#     Node 156, Type 1, BuildingBlock: WUSLED_clean_sbu_0, # of connection points: 3
#     Node 157, Type 1, BuildingBlock: WUSLED_clean_sbu_0, # of connection points: 3
#     Node 158, Type 1, BuildingBlock: WUSLED_clean_sbu_0, # of connection points: 3
#     Node 159, Type 1, BuildingBlock: WUSLED_clean_sbu_0, # of connection points: 3
#     Node 160, Type 1, BuildingBlock: WUSLED_clean_sbu_0, # of connection points: 3
#     Node 161, Type 1, BuildingBlock: WUSLED_clean_sbu_0, # of connection points: 3
#     Node 162, Type 1, BuildingBlock: WUSLED_clean_sbu_0, # of connection points: 3
#     Node 163, Type 1, BuildingBlock: WUSLED_clean_sbu_0, # of connection points: 3
#     Node 164, Type 1, BuildingBlock: WUSLED_clean_sbu_0, # of connection points: 3
#     Node 165, Type 1, BuildingBlock: WUSLED_clean_sbu_0, # of connection points: 3
#     Node 166, Type 1, BuildingBlock: WUSLED_clean_sbu_0, # of connection points: 3
#     Node 167, Type 1, BuildingBlock: WUSLED_clean_sbu_0, # of connection points: 3
#     Node 168, Type 1, BuildingBlock: WUSLED_clean_sbu_0, # of connection points: 3
#     Node 169, Type 1, BuildingBlock: WUSLED_clean_sbu_0, # of connection points: 3
#     Node 170, Type 1, BuildingBlock: WUSLED_clean_sbu_0, # of connection points: 3
#     Node 171, Type 1, BuildingBlock: WUSLED_clean_sbu_0, # of connection points: 3
#     Node 172, Type 1, BuildingBlock: WUSLED_clean_sbu_0, # of connection points: 3
#     Node 173, Type 1, BuildingBlock: WUSLED_clean_sbu_0, # of connection points: 3
#     Node 174, Type 1, BuildingBlock: WUSLED_clean_sbu_0, # of connection points: 3
#     Node 175, Type 1, BuildingBlock: WUSLED_clean_sbu_0, # of connection points: 3
#     Node 176, Type 1, BuildingBlock: WUSLED_clean_sbu_0, # of connection points: 3
#     Node 177, Type 1, BuildingBlock: WUSLED_clean_sbu_0, # of connection points: 3
#     Node 178, Type 1, BuildingBlock: WUSLED_clean_sbu_0, # of connection points: 3
#     Node 179, Type 1, BuildingBlock: WUSLED_clean_sbu_0, # of connection points: 3
#     Node 180, Type 1, BuildingBlock: WUSLED_clean_sbu_0, # of connection points: 3
#     Node 181, Type 1, BuildingBlock: WUSLED_clean_sbu_0, # of connection points: 3
#     Node 182, Type 1, BuildingBlock: WUSLED_clean_sbu_0, # of connection points: 3
#     Node 183, Type 1, BuildingBlock: WUSLED_clean_sbu_0, # of connection points: 3
#     Node 184, Type 1, BuildingBlock: WUSLED_clean_sbu_0, # of connection points: 3
#     Node 185, Type 1, BuildingBlock: WUSLED_clean_sbu_0, # of connection points: 3
#     Node 186, Type 1, BuildingBlock: WUSLED_clean_sbu_0, # of connection points: 3
#     Node 187, Type 1, BuildingBlock: WUSLED_clean_sbu_0, # of connection points: 3
#     Node 188, Type 1, BuildingBlock: WUSLED_clean_sbu_0, # of connection points: 3
#     Node 189, Type 1, BuildingBlock: WUSLED_clean_sbu_0, # of connection points: 3
#     Node 190, Type 1, BuildingBlock: WUSLED_clean_sbu_0, # of connection points: 3
#     Node 191, Type 1, BuildingBlock: WUSLED_clean_sbu_0, # of connection points: 3
#     Edge 192, Type (0, 1), BuildingBlock: KIFKEQ_clean_linker_1, # of connection points: 2
#     Edge 193, Type (0, 1), BuildingBlock: KIFKEQ_clean_linker_1, # of connection points: 2
#     Edge 194, Type (0, 1), BuildingBlock: KIFKEQ_clean_linker_1, # of connection points: 2
#     Edge 195, Type (0, 1), BuildingBlock: KIFKEQ_clean_linker_1, # of connection points: 2
#     Edge 196, Type (0, 1), BuildingBlock: KIFKEQ_clean_linker_1, # of connection points: 2
#     Edge 197, Type (0, 1), BuildingBlock: KIFKEQ_clean_linker_1, # of connection points: 2
#     Edge 198, Type (0, 1), BuildingBlock: KIFKEQ_clean_linker_1, # of connection points: 2
#     Edge 199, Type (0, 1), BuildingBlock: KIFKEQ_clean_linker_1, # of connection points: 2
#     Edge 200, Type (0, 1), BuildingBlock: KIFKEQ_clean_linker_1, # of connection points: 2
#     Edge 201, Type (0, 1), BuildingBlock: KIFKEQ_clean_linker_1, # of connection points: 2
#     Edge 202, Type (0, 1), BuildingBlock: KIFKEQ_clean_linker_1, # of connection points: 2
#     Edge 203, Type (0, 1), BuildingBlock: KIFKEQ_clean_linker_1, # of connection points: 2
#     Edge 204, Type (0, 1), BuildingBlock: KIFKEQ_clean_linker_1, # of connection points: 2
#     Edge 205, Type (0, 1), BuildingBlock: KIFKEQ_clean_linker_1, # of connection points: 2
#     Edge 206, Type (0, 1), BuildingBlock: KIFKEQ_clean_linker_1, # of connection points: 2
#     Edge 207, Type (0, 1), BuildingBlock: KIFKEQ_clean_linker_1, # of connection points: 2
#     Edge 208, Type (0, 1), BuildingBlock: KIFKEQ_clean_linker_1, # of connection points: 2
#     Edge 209, Type (0, 1), BuildingBlock: KIFKEQ_clean_linker_1, # of connection points: 2
#     Edge 210, Type (0, 1), BuildingBlock: KIFKEQ_clean_linker_1, # of connection points: 2
#     Edge 211, Type (0, 1), BuildingBlock: KIFKEQ_clean_linker_1, # of connection points: 2
#     Edge 212, Type (0, 1), BuildingBlock: KIFKEQ_clean_linker_1, # of connection points: 2
#     Edge 213, Type (0, 1), BuildingBlock: KIFKEQ_clean_linker_1, # of connection points: 2
#     Edge 214, Type (0, 1), BuildingBlock: KIFKEQ_clean_linker_1, # of connection points: 2
#     Edge 215, Type (0, 1), BuildingBlock: KIFKEQ_clean_linker_1, # of connection points: 2
#     Edge 216, Type (0, 1), BuildingBlock: KIFKEQ_clean_linker_1, # of connection points: 2
#     Edge 217, Type (0, 1), BuildingBlock: KIFKEQ_clean_linker_1, # of connection points: 2
#     Edge 218, Type (0, 1), BuildingBlock: KIFKEQ_clean_linker_1, # of connection points: 2
#     Edge 219, Type (0, 1), BuildingBlock: KIFKEQ_clean_linker_1, # of connection points: 2
#     Edge 220, Type (0, 1), BuildingBlock: KIFKEQ_clean_linker_1, # of connection points: 2
#     Edge 221, Type (0, 1), BuildingBlock: KIFKEQ_clean_linker_1, # of connection points: 2
#     Edge 222, Type (0, 1), BuildingBlock: KIFKEQ_clean_linker_1, # of connection points: 2
#     Edge 223, Type (0, 1), BuildingBlock: KIFKEQ_clean_linker_1, # of connection points: 2
#     Edge 224, Type (0, 1), BuildingBlock: KIFKEQ_clean_linker_1, # of connection points: 2
#     Edge 225, Type (0, 1), BuildingBlock: KIFKEQ_clean_linker_1, # of connection points: 2
#     Edge 226, Type (0, 1), BuildingBlock: KIFKEQ_clean_linker_1, # of connection points: 2
#     Edge 227, Type (0, 1), BuildingBlock: KIFKEQ_clean_linker_1, # of connection points: 2
#     Edge 228, Type (0, 1), BuildingBlock: KIFKEQ_clean_linker_1, # of connection points: 2
#     Edge 229, Type (0, 1), BuildingBlock: KIFKEQ_clean_linker_1, # of connection points: 2
#     Edge 230, Type (0, 1), BuildingBlock: KIFKEQ_clean_linker_1, # of connection points: 2
#     Edge 231, Type (0, 1), BuildingBlock: KIFKEQ_clean_linker_1, # of connection points: 2
#     Edge 232, Type (0, 1), BuildingBlock: KIFKEQ_clean_linker_1, # of connection points: 2
#     Edge 233, Type (0, 1), BuildingBlock: KIFKEQ_clean_linker_1, # of connection points: 2
#     Edge 234, Type (0, 1), BuildingBlock: KIFKEQ_clean_linker_1, # of connection points: 2
#     Edge 235, Type (0, 1), BuildingBlock: KIFKEQ_clean_linker_1, # of connection points: 2
#     Edge 236, Type (0, 1), BuildingBlock: KIFKEQ_clean_linker_1, # of connection points: 2
#     Edge 237, Type (0, 1), BuildingBlock: KIFKEQ_clean_linker_1, # of connection points: 2
#     Edge 238, Type (0, 1), BuildingBlock: KIFKEQ_clean_linker_1, # of connection points: 2
#     Edge 239, Type (0, 1), BuildingBlock: KIFKEQ_clean_linker_1, # of connection points: 2
#     Edge 240, Type (0, 1), BuildingBlock: KIFKEQ_clean_linker_1, # of connection points: 2
#     Edge 241, Type (0, 1), BuildingBlock: KIFKEQ_clean_linker_1, # of connection points: 2
#     Edge 242, Type (0, 1), BuildingBlock: KIFKEQ_clean_linker_1, # of connection points: 2
#     Edge 243, Type (0, 1), BuildingBlock: KIFKEQ_clean_linker_1, # of connection points: 2
#     Edge 244, Type (0, 1), BuildingBlock: KIFKEQ_clean_linker_1, # of connection points: 2
#     Edge 245, Type (0, 1), BuildingBlock: KIFKEQ_clean_linker_1, # of connection points: 2
#     Edge 246, Type (0, 1), BuildingBlock: KIFKEQ_clean_linker_1, # of connection points: 2
#     Edge 247, Type (0, 1), BuildingBlock: KIFKEQ_clean_linker_1, # of connection points: 2
#     Edge 248, Type (0, 1), BuildingBlock: KIFKEQ_clean_linker_1, # of connection points: 2
#     Edge 249, Type (0, 1), BuildingBlock: KIFKEQ_clean_linker_1, # of connection points: 2
#     Edge 250, Type (0, 1), BuildingBlock: KIFKEQ_clean_linker_1, # of connection points: 2
#     Edge 251, Type (0, 1), BuildingBlock: KIFKEQ_clean_linker_1, # of connection points: 2
#     Edge 252, Type (0, 1), BuildingBlock: KIFKEQ_clean_linker_1, # of connection points: 2
#     Edge 253, Type (0, 1), BuildingBlock: KIFKEQ_clean_linker_1, # of connection points: 2
#     Edge 254, Type (0, 1), BuildingBlock: KIFKEQ_clean_linker_1, # of connection points: 2
#     Edge 255, Type (0, 1), BuildingBlock: KIFKEQ_clean_linker_1, # of connection points: 2
#     Edge 256, Type (0, 1), BuildingBlock: KIFKEQ_clean_linker_1, # of connection points: 2
#     Edge 257, Type (0, 1), BuildingBlock: KIFKEQ_clean_linker_1, # of connection points: 2
#     Edge 258, Type (0, 1), BuildingBlock: KIFKEQ_clean_linker_1, # of connection points: 2
#     Edge 259, Type (0, 1), BuildingBlock: KIFKEQ_clean_linker_1, # of connection points: 2
#     Edge 260, Type (0, 1), BuildingBlock: KIFKEQ_clean_linker_1, # of connection points: 2
#     Edge 261, Type (0, 1), BuildingBlock: KIFKEQ_clean_linker_1, # of connection points: 2
#     Edge 262, Type (0, 1), BuildingBlock: KIFKEQ_clean_linker_1, # of connection points: 2
#     Edge 263, Type (0, 1), BuildingBlock: KIFKEQ_clean_linker_1, # of connection points: 2
#     Edge 264, Type (0, 1), BuildingBlock: KIFKEQ_clean_linker_1, # of connection points: 2
#     Edge 265, Type (0, 1), BuildingBlock: KIFKEQ_clean_linker_1, # of connection points: 2
#     Edge 266, Type (0, 1), BuildingBlock: KIFKEQ_clean_linker_1, # of connection points: 2
#     Edge 267, Type (0, 1), BuildingBlock: KIFKEQ_clean_linker_1, # of connection points: 2
#     Edge 268, Type (0, 1), BuildingBlock: KIFKEQ_clean_linker_1, # of connection points: 2
#     Edge 269, Type (0, 1), BuildingBlock: KIFKEQ_clean_linker_1, # of connection points: 2
#     Edge 270, Type (0, 1), BuildingBlock: KIFKEQ_clean_linker_1, # of connection points: 2
#     Edge 271, Type (0, 1), BuildingBlock: KIFKEQ_clean_linker_1, # of connection points: 2
#     Edge 272, Type (0, 1), BuildingBlock: KIFKEQ_clean_linker_1, # of connection points: 2
#     Edge 273, Type (0, 1), BuildingBlock: KIFKEQ_clean_linker_1, # of connection points: 2
#     Edge 274, Type (0, 1), BuildingBlock: KIFKEQ_clean_linker_1, # of connection points: 2
#     Edge 275, Type (0, 1), BuildingBlock: KIFKEQ_clean_linker_1, # of connection points: 2
#     Edge 276, Type (0, 1), BuildingBlock: KIFKEQ_clean_linker_1, # of connection points: 2
#     Edge 277, Type (0, 1), BuildingBlock: KIFKEQ_clean_linker_1, # of connection points: 2
#     Edge 278, Type (0, 1), BuildingBlock: KIFKEQ_clean_linker_1, # of connection points: 2
#     Edge 279, Type (0, 1), BuildingBlock: KIFKEQ_clean_linker_1, # of connection points: 2
#     Edge 280, Type (0, 1), BuildingBlock: KIFKEQ_clean_linker_1, # of connection points: 2
#     Edge 281, Type (0, 1), BuildingBlock: KIFKEQ_clean_linker_1, # of connection points: 2
#     Edge 282, Type (0, 1), BuildingBlock: KIFKEQ_clean_linker_1, # of connection points: 2
#     Edge 283, Type (0, 1), BuildingBlock: KIFKEQ_clean_linker_1, # of connection points: 2
#     Edge 284, Type (0, 1), BuildingBlock: KIFKEQ_clean_linker_1, # of connection points: 2
#     Edge 285, Type (0, 1), BuildingBlock: KIFKEQ_clean_linker_1, # of connection points: 2
#     Edge 286, Type (0, 1), BuildingBlock: KIFKEQ_clean_linker_1, # of connection points: 2
#     Edge 287, Type (0, 1), BuildingBlock: KIFKEQ_clean_linker_1, # of connection points: 2
#     Edge 288, Type (0, 1), BuildingBlock: KIFKEQ_clean_linker_1, # of connection points: 2
#     Edge 289, Type (0, 1), BuildingBlock: KIFKEQ_clean_linker_1, # of connection points: 2
#     Edge 290, Type (0, 1), BuildingBlock: KIFKEQ_clean_linker_1, # of connection points: 2
#     Edge 291, Type (0, 1), BuildingBlock: KIFKEQ_clean_linker_1, # of connection points: 2
#     Edge 292, Type (0, 1), BuildingBlock: KIFKEQ_clean_linker_1, # of connection points: 2
#     Edge 293, Type (0, 1), BuildingBlock: KIFKEQ_clean_linker_1, # of connection points: 2
#     Edge 294, Type (0, 1), BuildingBlock: KIFKEQ_clean_linker_1, # of connection points: 2
#     Edge 295, Type (0, 1), BuildingBlock: KIFKEQ_clean_linker_1, # of connection points: 2
#     Edge 296, Type (0, 1), BuildingBlock: KIFKEQ_clean_linker_1, # of connection points: 2
#     Edge 297, Type (0, 1), BuildingBlock: KIFKEQ_clean_linker_1, # of connection points: 2
#     Edge 298, Type (0, 1), BuildingBlock: KIFKEQ_clean_linker_1, # of connection points: 2
#     Edge 299, Type (0, 1), BuildingBlock: KIFKEQ_clean_linker_1, # of connection points: 2
#     Edge 300, Type (0, 1), BuildingBlock: KIFKEQ_clean_linker_1, # of connection points: 2
#     Edge 301, Type (0, 1), BuildingBlock: KIFKEQ_clean_linker_1, # of connection points: 2
#     Edge 302, Type (0, 1), BuildingBlock: KIFKEQ_clean_linker_1, # of connection points: 2
#     Edge 303, Type (0, 1), BuildingBlock: KIFKEQ_clean_linker_1, # of connection points: 2
#     Edge 304, Type (0, 1), BuildingBlock: KIFKEQ_clean_linker_1, # of connection points: 2
#     Edge 305, Type (0, 1), BuildingBlock: KIFKEQ_clean_linker_1, # of connection points: 2
#     Edge 306, Type (0, 1), BuildingBlock: KIFKEQ_clean_linker_1, # of connection points: 2
#     Edge 307, Type (0, 1), BuildingBlock: KIFKEQ_clean_linker_1, # of connection points: 2
#     Edge 308, Type (0, 1), BuildingBlock: KIFKEQ_clean_linker_1, # of connection points: 2
#     Edge 309, Type (0, 1), BuildingBlock: KIFKEQ_clean_linker_1, # of connection points: 2
#     Edge 310, Type (0, 1), BuildingBlock: KIFKEQ_clean_linker_1, # of connection points: 2
#     Edge 311, Type (0, 1), BuildingBlock: KIFKEQ_clean_linker_1, # of connection points: 2
#     Edge 312, Type (0, 1), BuildingBlock: KIFKEQ_clean_linker_1, # of connection points: 2
#     Edge 313, Type (0, 1), BuildingBlock: KIFKEQ_clean_linker_1, # of connection points: 2
#     Edge 314, Type (0, 1), BuildingBlock: KIFKEQ_clean_linker_1, # of connection points: 2
#     Edge 315, Type (0, 1), BuildingBlock: KIFKEQ_clean_linker_1, # of connection points: 2
#     Edge 316, Type (0, 1), BuildingBlock: KIFKEQ_clean_linker_1, # of connection points: 2
#     Edge 317, Type (0, 1), BuildingBlock: KIFKEQ_clean_linker_1, # of connection points: 2
#     Edge 318, Type (0, 1), BuildingBlock: KIFKEQ_clean_linker_1, # of connection points: 2
#     Edge 319, Type (0, 1), BuildingBlock: KIFKEQ_clean_linker_1, # of connection points: 2
#     Edge 320, Type (0, 1), BuildingBlock: KIFKEQ_clean_linker_1, # of connection points: 2
#     Edge 321, Type (0, 1), BuildingBlock: KIFKEQ_clean_linker_1, # of connection points: 2
#     Edge 322, Type (0, 1), BuildingBlock: KIFKEQ_clean_linker_1, # of connection points: 2
#     Edge 323, Type (0, 1), BuildingBlock: KIFKEQ_clean_linker_1, # of connection points: 2
#     Edge 324, Type (0, 1), BuildingBlock: KIFKEQ_clean_linker_1, # of connection points: 2
#     Edge 325, Type (0, 1), BuildingBlock: KIFKEQ_clean_linker_1, # of connection points: 2
#     Edge 326, Type (0, 1), BuildingBlock: KIFKEQ_clean_linker_1, # of connection points: 2
#     Edge 327, Type (0, 1), BuildingBlock: KIFKEQ_clean_linker_1, # of connection points: 2
#     Edge 328, Type (0, 1), BuildingBlock: KIFKEQ_clean_linker_1, # of connection points: 2
#     Edge 329, Type (0, 1), BuildingBlock: KIFKEQ_clean_linker_1, # of connection points: 2
#     Edge 330, Type (0, 1), BuildingBlock: KIFKEQ_clean_linker_1, # of connection points: 2
#     Edge 331, Type (0, 1), BuildingBlock: KIFKEQ_clean_linker_1, # of connection points: 2
#     Edge 332, Type (0, 1), BuildingBlock: KIFKEQ_clean_linker_1, # of connection points: 2
#     Edge 333, Type (0, 1), BuildingBlock: KIFKEQ_clean_linker_1, # of connection points: 2
#     Edge 334, Type (0, 1), BuildingBlock: KIFKEQ_clean_linker_1, # of connection points: 2
#     Edge 335, Type (0, 1), BuildingBlock: KIFKEQ_clean_linker_1, # of connection points: 2
#     Edge 336, Type (0, 1), BuildingBlock: KIFKEQ_clean_linker_1, # of connection points: 2
#     Edge 337, Type (0, 1), BuildingBlock: KIFKEQ_clean_linker_1, # of connection points: 2
#     Edge 338, Type (0, 1), BuildingBlock: KIFKEQ_clean_linker_1, # of connection points: 2
#     Edge 339, Type (0, 1), BuildingBlock: KIFKEQ_clean_linker_1, # of connection points: 2
#     Edge 340, Type (0, 1), BuildingBlock: KIFKEQ_clean_linker_1, # of connection points: 2
#     Edge 341, Type (0, 1), BuildingBlock: KIFKEQ_clean_linker_1, # of connection points: 2
#     Edge 342, Type (0, 1), BuildingBlock: KIFKEQ_clean_linker_1, # of connection points: 2
#     Edge 343, Type (0, 1), BuildingBlock: KIFKEQ_clean_linker_1, # of connection points: 2
#     Edge 344, Type (0, 1), BuildingBlock: KIFKEQ_clean_linker_1, # of connection points: 2
#     Edge 345, Type (0, 1), BuildingBlock: KIFKEQ_clean_linker_1, # of connection points: 2
#     Edge 346, Type (0, 1), BuildingBlock: KIFKEQ_clean_linker_1, # of connection points: 2
#     Edge 347, Type (0, 1), BuildingBlock: KIFKEQ_clean_linker_1, # of connection points: 2
#     Edge 348, Type (0, 1), BuildingBlock: KIFKEQ_clean_linker_1, # of connection points: 2
#     Edge 349, Type (0, 1), BuildingBlock: KIFKEQ_clean_linker_1, # of connection points: 2
#     Edge 350, Type (0, 1), BuildingBlock: KIFKEQ_clean_linker_1, # of connection points: 2
#     Edge 351, Type (0, 1), BuildingBlock: KIFKEQ_clean_linker_1, # of connection points: 2
#     Edge 352, Type (0, 1), BuildingBlock: KIFKEQ_clean_linker_1, # of connection points: 2
#     Edge 353, Type (0, 1), BuildingBlock: KIFKEQ_clean_linker_1, # of connection points: 2
#     Edge 354, Type (0, 1), BuildingBlock: KIFKEQ_clean_linker_1, # of connection points: 2
#     Edge 355, Type (0, 1), BuildingBlock: KIFKEQ_clean_linker_1, # of connection points: 2
#     Edge 356, Type (0, 1), BuildingBlock: KIFKEQ_clean_linker_1, # of connection points: 2
#     Edge 357, Type (0, 1), BuildingBlock: KIFKEQ_clean_linker_1, # of connection points: 2
#     Edge 358, Type (0, 1), BuildingBlock: KIFKEQ_clean_linker_1, # of connection points: 2
#     Edge 359, Type (0, 1), BuildingBlock: KIFKEQ_clean_linker_1, # of connection points: 2
#     Edge 360, Type (0, 1), BuildingBlock: KIFKEQ_clean_linker_1, # of connection points: 2
#     Edge 361, Type (0, 1), BuildingBlock: KIFKEQ_clean_linker_1, # of connection points: 2
#     Edge 362, Type (0, 1), BuildingBlock: KIFKEQ_clean_linker_1, # of connection points: 2
#     Edge 363, Type (0, 1), BuildingBlock: KIFKEQ_clean_linker_1, # of connection points: 2
#     Edge 364, Type (0, 1), BuildingBlock: KIFKEQ_clean_linker_1, # of connection points: 2
#     Edge 365, Type (0, 1), BuildingBlock: KIFKEQ_clean_linker_1, # of connection points: 2
#     Edge 366, Type (0, 1), BuildingBlock: KIFKEQ_clean_linker_1, # of connection points: 2
#     Edge 367, Type (0, 1), BuildingBlock: KIFKEQ_clean_linker_1, # of connection points: 2
#     Edge 368, Type (0, 1), BuildingBlock: KIFKEQ_clean_linker_1, # of connection points: 2
#     Edge 369, Type (0, 1), BuildingBlock: KIFKEQ_clean_linker_1, # of connection points: 2
#     Edge 370, Type (0, 1), BuildingBlock: KIFKEQ_clean_linker_1, # of connection points: 2
#     Edge 371, Type (0, 1), BuildingBlock: KIFKEQ_clean_linker_1, # of connection points: 2
#     Edge 372, Type (0, 1), BuildingBlock: KIFKEQ_clean_linker_1, # of connection points: 2
#     Edge 373, Type (0, 1), BuildingBlock: KIFKEQ_clean_linker_1, # of connection points: 2
#     Edge 374, Type (0, 1), BuildingBlock: KIFKEQ_clean_linker_1, # of connection points: 2
#     Edge 375, Type (0, 1), BuildingBlock: KIFKEQ_clean_linker_1, # of connection points: 2
#     Edge 376, Type (0, 1), BuildingBlock: KIFKEQ_clean_linker_1, # of connection points: 2
#     Edge 377, Type (0, 1), BuildingBlock: KIFKEQ_clean_linker_1, # of connection points: 2
#     Edge 378, Type (0, 1), BuildingBlock: KIFKEQ_clean_linker_1, # of connection points: 2
#     Edge 379, Type (0, 1), BuildingBlock: KIFKEQ_clean_linker_1, # of connection points: 2
#     Edge 380, Type (0, 1), BuildingBlock: KIFKEQ_clean_linker_1, # of connection points: 2
#     Edge 381, Type (0, 1), BuildingBlock: KIFKEQ_clean_linker_1, # of connection points: 2
#     Edge 382, Type (0, 1), BuildingBlock: KIFKEQ_clean_linker_1, # of connection points: 2
#     Edge 383, Type (0, 1), BuildingBlock: KIFKEQ_clean_linker_1, # of connection points: 2
#     Edge 384, Type (0, 1), BuildingBlock: KIFKEQ_clean_linker_1, # of connection points: 2
#     Edge 385, Type (0, 1), BuildingBlock: KIFKEQ_clean_linker_1, # of connection points: 2
#     Edge 386, Type (0, 1), BuildingBlock: KIFKEQ_clean_linker_1, # of connection points: 2
#     Edge 387, Type (0, 1), BuildingBlock: KIFKEQ_clean_linker_1, # of connection points: 2
#     Edge 388, Type (0, 1), BuildingBlock: KIFKEQ_clean_linker_1, # of connection points: 2
#     Edge 389, Type (0, 1), BuildingBlock: KIFKEQ_clean_linker_1, # of connection points: 2
#     Edge 390, Type (0, 1), BuildingBlock: KIFKEQ_clean_linker_1, # of connection points: 2
#     Edge 391, Type (0, 1), BuildingBlock: KIFKEQ_clean_linker_1, # of connection points: 2
#     Edge 392, Type (0, 1), BuildingBlock: KIFKEQ_clean_linker_1, # of connection points: 2
#     Edge 393, Type (0, 1), BuildingBlock: KIFKEQ_clean_linker_1, # of connection points: 2
#     Edge 394, Type (0, 1), BuildingBlock: KIFKEQ_clean_linker_1, # of connection points: 2
#     Edge 395, Type (0, 1), BuildingBlock: KIFKEQ_clean_linker_1, # of connection points: 2
#     Edge 396, Type (0, 1), BuildingBlock: KIFKEQ_clean_linker_1, # of connection points: 2
#     Edge 397, Type (0, 1), BuildingBlock: KIFKEQ_clean_linker_1, # of connection points: 2
#     Edge 398, Type (0, 1), BuildingBlock: KIFKEQ_clean_linker_1, # of connection points: 2
#     Edge 399, Type (0, 1), BuildingBlock: KIFKEQ_clean_linker_1, # of connection points: 2
#     Edge 400, Type (0, 1), BuildingBlock: KIFKEQ_clean_linker_1, # of connection points: 2
#     Edge 401, Type (0, 1), BuildingBlock: KIFKEQ_clean_linker_1, # of connection points: 2
#     Edge 402, Type (0, 1), BuildingBlock: KIFKEQ_clean_linker_1, # of connection points: 2
#     Edge 403, Type (0, 1), BuildingBlock: KIFKEQ_clean_linker_1, # of connection points: 2
#     Edge 404, Type (0, 1), BuildingBlock: KIFKEQ_clean_linker_1, # of connection points: 2
#     Edge 405, Type (0, 1), BuildingBlock: KIFKEQ_clean_linker_1, # of connection points: 2
#     Edge 406, Type (0, 1), BuildingBlock: KIFKEQ_clean_linker_1, # of connection points: 2
#     Edge 407, Type (0, 1), BuildingBlock: KIFKEQ_clean_linker_1, # of connection points: 2
#     Edge 408, Type (0, 1), BuildingBlock: KIFKEQ_clean_linker_1, # of connection points: 2
#     Edge 409, Type (0, 1), BuildingBlock: KIFKEQ_clean_linker_1, # of connection points: 2
#     Edge 410, Type (0, 1), BuildingBlock: KIFKEQ_clean_linker_1, # of connection points: 2
#     Edge 411, Type (0, 1), BuildingBlock: KIFKEQ_clean_linker_1, # of connection points: 2
#     Edge 412, Type (0, 1), BuildingBlock: KIFKEQ_clean_linker_1, # of connection points: 2
#     Edge 413, Type (0, 1), BuildingBlock: KIFKEQ_clean_linker_1, # of connection points: 2
#     Edge 414, Type (0, 1), BuildingBlock: KIFKEQ_clean_linker_1, # of connection points: 2
#     Edge 415, Type (0, 1), BuildingBlock: KIFKEQ_clean_linker_1, # of connection points: 2
#     Edge 416, Type (0, 1), BuildingBlock: KIFKEQ_clean_linker_1, # of connection points: 2
#     Edge 417, Type (0, 1), BuildingBlock: KIFKEQ_clean_linker_1, # of connection points: 2
#     Edge 418, Type (0, 1), BuildingBlock: KIFKEQ_clean_linker_1, # of connection points: 2
#     Edge 419, Type (0, 1), BuildingBlock: KIFKEQ_clean_linker_1, # of connection points: 2
#     Edge 420, Type (0, 1), BuildingBlock: KIFKEQ_clean_linker_1, # of connection points: 2
#     Edge 421, Type (0, 1), BuildingBlock: KIFKEQ_clean_linker_1, # of connection points: 2
#     Edge 422, Type (0, 1), BuildingBlock: KIFKEQ_clean_linker_1, # of connection points: 2
#     Edge 423, Type (0, 1), BuildingBlock: KIFKEQ_clean_linker_1, # of connection points: 2
#     Edge 424, Type (0, 1), BuildingBlock: KIFKEQ_clean_linker_1, # of connection points: 2
#     Edge 425, Type (0, 1), BuildingBlock: KIFKEQ_clean_linker_1, # of connection points: 2
#     Edge 426, Type (0, 1), BuildingBlock: KIFKEQ_clean_linker_1, # of connection points: 2
#     Edge 427, Type (0, 1), BuildingBlock: KIFKEQ_clean_linker_1, # of connection points: 2
#     Edge 428, Type (0, 1), BuildingBlock: KIFKEQ_clean_linker_1, # of connection points: 2
#     Edge 429, Type (0, 1), BuildingBlock: KIFKEQ_clean_linker_1, # of connection points: 2
#     Edge 430, Type (0, 1), BuildingBlock: KIFKEQ_clean_linker_1, # of connection points: 2
#     Edge 431, Type (0, 1), BuildingBlock: KIFKEQ_clean_linker_1, # of connection points: 2
#     Edge 432, Type (0, 1), BuildingBlock: KIFKEQ_clean_linker_1, # of connection points: 2
#     Edge 433, Type (0, 1), BuildingBlock: KIFKEQ_clean_linker_1, # of connection points: 2
#     Edge 434, Type (0, 1), BuildingBlock: KIFKEQ_clean_linker_1, # of connection points: 2
#     Edge 435, Type (0, 1), BuildingBlock: KIFKEQ_clean_linker_1, # of connection points: 2
#     Edge 436, Type (0, 1), BuildingBlock: KIFKEQ_clean_linker_1, # of connection points: 2
#     Edge 437, Type (0, 1), BuildingBlock: KIFKEQ_clean_linker_1, # of connection points: 2
#     Edge 438, Type (0, 1), BuildingBlock: KIFKEQ_clean_linker_1, # of connection points: 2
#     Edge 439, Type (0, 1), BuildingBlock: KIFKEQ_clean_linker_1, # of connection points: 2
#     Edge 440, Type (0, 1), BuildingBlock: KIFKEQ_clean_linker_1, # of connection points: 2
#     Edge 441, Type (0, 1), BuildingBlock: KIFKEQ_clean_linker_1, # of connection points: 2
#     Edge 442, Type (0, 1), BuildingBlock: KIFKEQ_clean_linker_1, # of connection points: 2
#     Edge 443, Type (0, 1), BuildingBlock: KIFKEQ_clean_linker_1, # of connection points: 2
#     Edge 444, Type (0, 1), BuildingBlock: KIFKEQ_clean_linker_1, # of connection points: 2
#     Edge 445, Type (0, 1), BuildingBlock: KIFKEQ_clean_linker_1, # of connection points: 2
#     Edge 446, Type (0, 1), BuildingBlock: KIFKEQ_clean_linker_1, # of connection points: 2
#     Edge 447, Type (0, 1), BuildingBlock: KIFKEQ_clean_linker_1, # of connection points: 2
#     Edge 448, Type (0, 1), BuildingBlock: KIFKEQ_clean_linker_1, # of connection points: 2
#     Edge 449, Type (0, 1), BuildingBlock: KIFKEQ_clean_linker_1, # of connection points: 2
#     Edge 450, Type (0, 1), BuildingBlock: KIFKEQ_clean_linker_1, # of connection points: 2
#     Edge 451, Type (0, 1), BuildingBlock: KIFKEQ_clean_linker_1, # of connection points: 2
#     Edge 452, Type (0, 1), BuildingBlock: KIFKEQ_clean_linker_1, # of connection points: 2
#     Edge 453, Type (0, 1), BuildingBlock: KIFKEQ_clean_linker_1, # of connection points: 2
#     Edge 454, Type (0, 1), BuildingBlock: KIFKEQ_clean_linker_1, # of connection points: 2
#     Edge 455, Type (0, 1), BuildingBlock: KIFKEQ_clean_linker_1, # of connection points: 2
#     Edge 456, Type (0, 1), BuildingBlock: KIFKEQ_clean_linker_1, # of connection points: 2
#     Edge 457, Type (0, 1), BuildingBlock: KIFKEQ_clean_linker_1, # of connection points: 2
#     Edge 458, Type (0, 1), BuildingBlock: KIFKEQ_clean_linker_1, # of connection points: 2
#     Edge 459, Type (0, 1), BuildingBlock: KIFKEQ_clean_linker_1, # of connection points: 2
#     Edge 460, Type (0, 1), BuildingBlock: KIFKEQ_clean_linker_1, # of connection points: 2
#     Edge 461, Type (0, 1), BuildingBlock: KIFKEQ_clean_linker_1, # of connection points: 2
#     Edge 462, Type (0, 1), BuildingBlock: KIFKEQ_clean_linker_1, # of connection points: 2
#     Edge 463, Type (0, 1), BuildingBlock: KIFKEQ_clean_linker_1, # of connection points: 2
#     Edge 464, Type (0, 1), BuildingBlock: KIFKEQ_clean_linker_1, # of connection points: 2
#     Edge 465, Type (0, 1), BuildingBlock: KIFKEQ_clean_linker_1, # of connection points: 2
#     Edge 466, Type (0, 1), BuildingBlock: KIFKEQ_clean_linker_1, # of connection points: 2
#     Edge 467, Type (0, 1), BuildingBlock: KIFKEQ_clean_linker_1, # of connection points: 2
#     Edge 468, Type (0, 1), BuildingBlock: KIFKEQ_clean_linker_1, # of connection points: 2
#     Edge 469, Type (0, 1), BuildingBlock: KIFKEQ_clean_linker_1, # of connection points: 2
#     Edge 470, Type (0, 1), BuildingBlock: KIFKEQ_clean_linker_1, # of connection points: 2
#     Edge 471, Type (0, 1), BuildingBlock: KIFKEQ_clean_linker_1, # of connection points: 2
#     Edge 472, Type (0, 1), BuildingBlock: KIFKEQ_clean_linker_1, # of connection points: 2
#     Edge 473, Type (0, 1), BuildingBlock: KIFKEQ_clean_linker_1, # of connection points: 2
#     Edge 474, Type (0, 1), BuildingBlock: KIFKEQ_clean_linker_1, # of connection points: 2
#     Edge 475, Type (0, 1), BuildingBlock: KIFKEQ_clean_linker_1, # of connection points: 2
#     Edge 476, Type (0, 1), BuildingBlock: KIFKEQ_clean_linker_1, # of connection points: 2
#     Edge 477, Type (0, 1), BuildingBlock: KIFKEQ_clean_linker_1, # of connection points: 2
#     Edge 478, Type (0, 1), BuildingBlock: KIFKEQ_clean_linker_1, # of connection points: 2
#     Edge 479, Type (0, 1), BuildingBlock: KIFKEQ_clean_linker_1, # of connection points: 2
# Relax obj value: 0.043
# Max RMSD: 0.068
# Mean RMSD: 0.056
data_MOF--net-ana-f--node1-OLANEW_clean_sbu_2--node2-WUSLED_clean_sbu_0--edge1-KIFKEQ_clean_linker_1
_symmetry_space_group_name_H-M    P1
_symmetry_Int_Tables_number       1
_symmetry_cell_setting            triclinic
loop_
_symmetry_equiv_pos_as_xyz
'x, y, z'
_cell_length_a     198.12785
_cell_length_b     198.13383
_cell_length_c     198.03771
_cell_angle_alpha  90.003619
_cell_angle_beta   89.976508
_cell_angle_gamma 90.00659
loop_
_atom_site_label
_atom_site_type_symbol
_atom_site_fract_x
_atom_site_fract_y
_atom_site_fract_z
_atom_type_partial_charge
O0 O 0.05083 0.16731 0.41148 0.0
Cd1 Cd 0.04375 0.16262 0.42042 0.0
O2 O 0.0577 0.15907 0.41392 0.0
Cd3 Cd 0.06691 0.15305 0.41465 0.0
O4 O 0.07486 0.14683 0.41904 0.0
C5 C 0.07655 0.14827 0.42505 0.0
O6 O 0.07356 0.15336 0.42808 0.0
C7 C 0.05642 0.16434 0.41047 0.0
C8 C 0.03053 0.16027 0.41635 0.0
O9 O 0.03232 0.16601 0.41874 0.0
O10 O 0.03502 0.15564 0.41584 0.0
O11 O 0.09004 0.79995 0.66079 0.0
Cd12 Cd 0.09508 0.79301 0.66966 0.0
O13 O 0.09814 0.80696 0.66328 0.0
Cd14 Cd 0.10396 0.81628 0.66409 0.0
O15 O 0.1101 0.82429 0.6685 0.0
C16 C 0.10837 0.8263 0.67434 0.0
O17 O 0.10302 0.82361 0.67719 0.0
C18 C 0.09288 0.80561 0.65984 0.0
C19 C 0.09736 0.77969 0.66588 0.0
O20 O 0.09173 0.7815 0.6685 0.0
O21 O 0.1019 0.78422 0.66498 0.0
O22 O 0.45693 0.83992 0.9112 0.0
Cd23 Cd 0.46367 0.8455 0.9199 0.0
O24 O 0.44998 0.84816 0.9133 0.0
Cd25 Cd 0.44073 0.85414 0.91385 0.0
O26 O 0.43282 0.86038 0.91828 0.0
C27 C 0.42864 0.85748 0.92218 0.0
O28 O 0.42911 0.85092 0.92305 0.0
C29 C 0.45131 0.84277 0.91007 0.0
C30 C 0.47683 0.84833 0.91592 0.0
O31 O 0.47541 0.84286 0.91907 0.0
O32 O 0.47201 0.85243 0.9146 0.0
O33 O 0.41671 0.20651 0.16137 0.0
Cd34 Cd 0.41114 0.21324 0.17008 0.0
O35 O 0.40879 0.19935 0.16395 0.0
Cd36 Cd 0.40303 0.18999 0.16492 0.0
O37 O 0.39684 0.18208 0.16943 0.0
C38 C 0.39845 0.18021 0.17535 0.0
O39 O 0.40374 0.18299 0.17824 0.0
C40 C 0.414 0.20077 0.16047 0.0
C41 C 0.40845 0.22643 0.16615 0.0
O42 O 0.41388 0.22496 0.16934 0.0
O43 O 0.40432 0.22164 0.16477 0.0
O44 O 0.05035 0.83934 0.09635 0.0
Cd45 Cd 0.04334 0.84416 0.08742 0.0
O46 O 0.05733 0.84742 0.09373 0.0
Cd47 Cd 0.0666 0.85332 0.09283 0.0
O48 O 0.07461 0.85951 0.08852 0.0
C49 C 0.07733 0.85736 0.08312 0.0
O50 O 0.07535 0.85154 0.08064 0.0
C51 C 0.056 0.84222 0.09726 0.0
C52 C 0.03015 0.84672 0.09143 0.0
O53 O 0.03185 0.84096 0.08902 0.0
O54 O 0.03472 0.85127 0.092 0.0
O55 O 0.41781 0.80043 0.34712 0.0
Cd56 Cd 0.41302 0.79347 0.33812 0.0
O57 O 0.41075 0.80804 0.3435 0.0
Cd58 Cd 0.40592 0.81785 0.34198 0.0
O59 O 0.40001 0.82621 0.3379 0.0
C60 C 0.3959 0.82488 0.33316 0.0
O61 O 0.39537 0.81862 0.33104 0.0
C62 C 0.41544 0.80637 0.34755 0.0
C63 C 0.41065 0.78012 0.34181 0.0
O64 O 0.41635 0.78194 0.33936 0.0
O65 O 0.40609 0.78464 0.3426 0.0
O66 O 0.4565 0.16577 0.59712 0.0
Cd67 Cd 0.46318 0.1597 0.58868 0.0
O68 O 0.44925 0.15802 0.59428 0.0
Cd69 Cd 0.43966 0.15268 0.59321 0.0
O70 O 0.43166 0.14646 0.58891 0.0
C71 C 0.42945 0.14807 0.58311 0.0
O72 O 0.4319 0.15347 0.58014 0.0
C73 C 0.45067 0.1632 0.5978 0.0
C74 C 0.47671 0.15787 0.59194 0.0
O75 O 0.47483 0.16285 0.58825 0.0
O76 O 0.47218 0.15383 0.59418 0.0
O77 O 0.08869 0.20616 0.84632 0.0
Cd78 Cd 0.09346 0.2128 0.83708 0.0
O79 O 0.09662 0.19901 0.8437 0.0
Cd80 Cd 0.10247 0.18969 0.8429 0.0
O81 O 0.10911 0.18193 0.83878 0.0
C82 C 0.10848 0.18063 0.83253 0.0
O83 O 0.10386 0.18386 0.82903 0.0
C84 C 0.09151 0.20049 0.84731 0.0
C85 C 0.09652 0.22607 0.84052 0.0
O86 O 0.09067 0.22446 0.83829 0.0
O87 O 0.10092 0.22136 0.84121 0.0
O88 O 0.4119 0.05115 0.1672 0.0
Cd89 Cd 0.42046 0.04476 0.16102 0.0
O90 O 0.41253 0.05758 0.15828 0.0
Cd91 Cd 0.41151 0.06678 0.1523 0.0
O92 O 0.41555 0.07507 0.1463 0.0
C93 C 0.42127 0.07728 0.14818 0.0
O94 O 0.42409 0.07464 0.15357 0.0
C95 C 0.41002 0.05642 0.16408 0.0
C96 C 0.4172 0.03127 0.15897 0.0
O97 O 0.42089 0.03307 0.16398 0.0
O98 O 0.415 0.03586 0.15498 0.0
O99 O 0.20662 0.16017 0.41667 0.0
Cd100 Cd 0.21331 0.16864 0.41064 0.0
O101 O 0.19912 0.16344 0.40933 0.0
Cd102 Cd 0.18925 0.1647 0.40455 0.0
O103 O 0.18084 0.16881 0.39876 0.0
C104 C 0.18203 0.17404 0.39524 0.0
O105 O 0.18816 0.17657 0.39525 0.0
C106 C 0.20069 0.15969 0.4143 0.0
C107 C 0.22683 0.16539 0.40874 0.0
O108 O 0.22496 0.16905 0.41375 0.0
O109 O 0.22229 0.16317 0.40471 0.0
O110 O 0.0962 0.95643 0.66795 0.0
Cd111 Cd 0.08716 0.96332 0.66314 0.0
O112 O 0.09269 0.94884 0.6608 0.0
Cd113 Cd 0.09131 0.93903 0.65592 0.0
O114 O 0.08742 0.93064 0.64994 0.0
C115 C 0.08264 0.93192 0.64585 0.0
O116 O 0.08039 0.93814 0.64541 0.0
C117 C 0.09669 0.95051 0.66553 0.0
C118 C 0.09084 0.97664 0.66064 0.0
O119 O 0.08839 0.97487 0.66636 0.0
O120 O 0.09162 0.97208 0.65611 0.0
O121 O 0.30073 0.84649 0.91826 0.0
Cd122 Cd 0.29358 0.83732 0.91412 0.0
O123 O 0.3075 0.84342 0.91013 0.0
Cd124 Cd 0.3167 0.84232 0.90414 0.0
O125 O 0.32463 0.83821 0.89769 0.0
C126 C 0.3265 0.83219 0.89887 0.0
O127 O 0.32372 0.82891 0.90392 0.0
C128 C 0.30631 0.84722 0.91518 0.0
C129 C 0.28034 0.84105 0.91129 0.0
O130 O 0.28206 0.83907 0.91721 0.0
O131 O 0.28493 0.84136 0.90673 0.0
O132 O 0.41028 0.95709 0.33942 0.0
Cd133 Cd 0.41924 0.96425 0.34397 0.0
O134 O 0.4129 0.9505 0.34783 0.0
Cd135 Cd 0.41371 0.94137 0.35396 0.0
O136 O 0.41798 0.93329 0.3601 0.0
C137 C 0.42328 0.93048 0.35784 0.0
O138 O 0.42569 0.93244 0.35198 0.0
C139 C 0.40938 0.95158 0.34257 0.0
C140 C 0.41532 0.97749 0.34649 0.0
O141 O 0.41769 0.97575 0.34072 0.0
O142 O 0.41473 0.97294 0.35105 0.0
O143 O 0.30105 0.16075 0.58972 0.0
Cd144 Cd 0.29351 0.16922 0.59462 0.0
O145 O 0.30805 0.16443 0.59738 0.0
Cd146 Cd 0.31726 0.16559 0.60337 0.0
O147 O 0.32563 0.16947 0.6094 0.0
C148 C 0.32444 0.17439 0.61335 0.0
O149 O 0.31826 0.17677 0.61372 0.0
C150 C 0.30689 0.1606 0.59235 0.0
C151 C 0.28021 0.16511 0.59652 0.0
O152 O 0.28212 0.16776 0.59093 0.0
O153 O 0.28463 0.16428 0.60117 0.0
O154 O 0.09622 0.05066 0.83905 0.0
Cd155 Cd 0.08705 0.04354 0.84324 0.0
O156 O 0.09321 0.05741 0.84721 0.0
Cd157 Cd 0.0922 0.0666 0.85325 0.0
O158 O 0.08811 0.07447 0.85978 0.0
C159 C 0.08194 0.07601 0.85892 0.0
O160 O 0.07851 0.07294 0.85415 0.0
C161 C 0.09699 0.05622 0.84215 0.0
C162 C 0.09086 0.03043 0.84653 0.0
O163 O 0.08891 0.03194 0.84055 0.0
O164 O 0.09112 0.03516 0.85094 0.0
O165 O 0.20633 0.84614 0.0888 0.0
Cd166 Cd 0.21325 0.8369 0.09319 0.0
O167 O 0.19903 0.84272 0.09631 0.0
Cd168 Cd 0.18936 0.84157 0.10152 0.0
O169 O 0.18099 0.83766 0.10753 0.0
C170 C 0.18226 0.8328 0.11152 0.0
O171 O 0.18847 0.8305 0.11188 0.0
C172 C 0.20055 0.84672 0.09152 0.0
C173 C 0.22647 0.84048 0.09635 0.0
O174 O 0.22489 0.83843 0.09042 0.0
O175 O 0.22176 0.84094 0.10077 0.0
O176 O 0.16774 0.41052 0.05123 0.0
Cd177 Cd 0.16371 0.4197 0.04404 0.0
O178 O 0.16023 0.41454 0.05821 0.0
Cd179 Cd 0.15431 0.4155 0.06746 0.0
O180 O 0.14772 0.41953 0.0753 0.0
C181 C 0.14876 0.42559 0.07713 0.0
O182 O 0.15376 0.42895 0.07436 0.0
C183 C 0.16495 0.41037 0.057 0.0
C184 C 0.16077 0.416 0.03083 0.0
O185 O 0.16672 0.41791 0.03251 0.0
O186 O 0.15623 0.41572 0.03544 0.0
O187 O 0.66574 0.09709 0.95646 0.0
Cd188 Cd 0.65941 0.08855 0.96276 0.0
O189 O 0.65827 0.09443 0.94885 0.0
Cd190 Cd 0.65312 0.09347 0.93915 0.0
O191 O 0.64681 0.08906 0.93128 0.0
C192 C 0.64801 0.08298 0.92963 0.0
O193 O 0.65305 0.07981 0.93255 0.0
C194 C 0.6634 0.09791 0.95055 0.0
C195 C 0.65771 0.09132 0.97642 0.0
O196 O 0.66258 0.08757 0.97436 0.0
O197 O 0.65372 0.09384 0.97199 0.0
O198 O 0.16067 0.41773 0.20691 0.0
Cd199 Cd 0.16966 0.41332 0.21412 0.0
O200 O 0.16341 0.40941 0.20024 0.0
Cd201 Cd 0.16428 0.40333 0.19107 0.0
O202 O 0.16851 0.39712 0.18302 0.0
C203 C 0.17405 0.3991 0.18047 0.0
O204 O 0.17674 0.40475 0.18268 0.0
C205 C 0.15981 0.41461 0.20137 0.0
C206 C 0.16567 0.41094 0.22737 0.0
O207 O 0.16796 0.41671 0.22556 0.0
O208 O 0.1652 0.4063 0.22288 0.0
O209 O 0.84184 0.91004 0.45688 0.0
Cd210 Cd 0.84819 0.91847 0.4633 0.0
O211 O 0.84971 0.91224 0.44952 0.0
Cd212 Cd 0.85517 0.91291 0.43996 0.0
O213 O 0.86115 0.91752 0.43195 0.0
C214 C 0.85815 0.92152 0.42795 0.0
O215 O 0.8516 0.92239 0.4286 0.0
C216 C 0.84436 0.90903 0.45107 0.0
C217 C 0.84978 0.91551 0.47693 0.0
O218 O 0.84494 0.91929 0.4749 0.0
O219 O 0.8538 0.91305 0.47249 0.0
O220 O 0.84685 0.09012 0.2066 0.0
Cd221 Cd 0.83808 0.09465 0.214 0.0
O222 O 0.84286 0.09758 0.19956 0.0
Cd223 Cd 0.84182 0.10332 0.19021 0.0
O224 O 0.83778 0.1097 0.1822 0.0
C225 C 0.83213 0.10801 0.17969 0.0
O226 O 0.82918 0.10248 0.18187 0.0
C227 C 0.84692 0.09275 0.20076 0.0
C228 C 0.84206 0.0967 0.22731 0.0
O229 O 0.83962 0.09102 0.22539 0.0
O230 O 0.84271 0.10139 0.22289 0.0
O231 O 0.33859 0.59572 0.55045 0.0
Cd232 Cd 0.34289 0.58687 0.54301 0.0
O233 O 0.34684 0.59295 0.55719 0.0
Cd234 Cd 0.35286 0.59215 0.56641 0.0
O235 O 0.35937 0.58822 0.57438 0.0
C236 C 0.3586 0.58204 0.57594 0.0
O237 O 0.35393 0.57852 0.57281 0.0
C238 C 0.34166 0.59656 0.55602 0.0
C239 C 0.34589 0.59143 0.53007 0.0
O240 O 0.33993 0.58945 0.53163 0.0
O241 O 0.35044 0.5913 0.53466 0.0
O242 O 0.159 0.59249 0.30047 0.0
Cd243 Cd 0.16698 0.59932 0.29398 0.0
O244 O 0.16274 0.59927 0.30827 0.0
Cd245 Cd 0.16386 0.60402 0.31814 0.0
O246 O 0.16824 0.60995 0.32629 0.0
C247 C 0.17387 0.60799 0.32864 0.0
O248 O 0.17659 0.60243 0.32625 0.0
C249 C 0.15901 0.59432 0.30661 0.0
C250 C 0.16411 0.60064 0.28031 0.0
O251 O 0.16814 0.59604 0.28242 0.0
O252 O 0.16135 0.60453 0.28469 0.0
O253 O 0.34554 0.41793 0.80042 0.0
Cd254 Cd 0.33666 0.41271 0.79363 0.0
O255 O 0.3432 0.40963 0.80725 0.0
Cd256 Cd 0.34274 0.40365 0.81651 0.0
O257 O 0.33874 0.39719 0.82447 0.0
C258 C 0.33289 0.39862 0.82669 0.0
O259 O 0.32976 0.40392 0.82423 0.0
C260 C 0.34662 0.41492 0.80597 0.0
C261 C 0.34063 0.40961 0.78053 0.0
O262 O 0.33766 0.41519 0.78187 0.0
O263 O 0.34179 0.40551 0.7854 0.0
O264 O 0.95156 0.84747 0.59863 0.0
Cd265 Cd 0.95764 0.85543 0.59137 0.0
O266 O 0.94573 0.84315 0.59022 0.0
Cd267 Cd 0.94814 0.85121 0.58311 0.0
O268 O 0.94185 0.85878 0.57814 0.0
C269 C 0.93646 0.86005 0.58139 0.0
O270 O 0.9355 0.85706 0.58723 0.0
C271 C 0.94737 0.84313 0.59643 0.0
C272 C 0.97149 0.85551 0.59407 0.0
O273 O 0.96741 0.85927 0.59739 0.0
O274 O 0.96903 0.85169 0.58946 0.0
O275 O 0.91506 0.20239 0.34666 0.0
Cd276 Cd 0.91015 0.20933 0.33768 0.0
O277 O 0.90935 0.19355 0.34309 0.0
Cd278 Cd 0.9041 0.19761 0.33432 0.0
O279 O 0.89732 0.19216 0.32756 0.0
C280 C 0.89259 0.18901 0.33053 0.0
O281 O 0.89187 0.18981 0.33708 0.0
C282 C 0.91346 0.1962 0.34724 0.0
C283 C 0.90814 0.22277 0.34147 0.0
O284 O 0.90352 0.21833 0.34237 0.0
O285 O 0.91372 0.22084 0.33882 0.0
O286 O 0.55465 0.16334 0.09686 0.0
Cd287 Cd 0.5482 0.15723 0.08824 0.0
O288 O 0.56138 0.1546 0.09817 0.0
Cd289 Cd 0.55837 0.14879 0.08931 0.0
O290 O 0.56494 0.14358 0.08212 0.0
C291 C 0.57111 0.14509 0.08304 0.0
O292 O 0.57261 0.14946 0.08781 0.0
C293 C 0.5595 0.16048 0.09994 0.0
C294 C 0.53455 0.15593 0.09158 0.0
O295 O 0.53895 0.15172 0.09377 0.0
O296 O 0.53661 0.16078 0.08782 0.0
O297 O 0.59833 0.80618 0.8491 0.0
Cd298 Cd 0.60603 0.8004 0.84135 0.0
O299 O 0.59267 0.81113 0.84093 0.0
Cd300 Cd 0.60036 0.80902 0.83334 0.0
O301 O 0.608 0.81507 0.82818 0.0
C302 C 0.60914 0.82067 0.83112 0.0
O303 O 0.60591 0.822 0.83676 0.0
C304 C 0.59342 0.80984 0.84718 0.0
C305 C 0.60625 0.7865 0.84371 0.0
O306 O 0.61018 0.79051 0.84692 0.0
O307 O 0.60221 0.78906 0.83935 0.0
O308 O 0.95101 0.15906 0.90824 0.0
Cd309 Cd 0.95683 0.15121 0.91581 0.0
O310 O 0.94588 0.16441 0.91651 0.0
Cd311 Cd 0.94811 0.15663 0.92397 0.0
O312 O 0.94221 0.14892 0.92922 0.0
C313 C 0.93682 0.14733 0.92613 0.0
O314 O 0.93559 0.15015 0.92025 0.0
C315 C 0.94723 0.16385 0.91026 0.0
C316 C 0.97072 0.15092 0.91341 0.0
O317 O 0.96667 0.14713 0.91008 0.0
O318 O 0.96821 0.15486 0.91789 0.0
O319 O 0.59786 0.20124 0.65822 0.0
Cd320 Cd 0.60555 0.20701 0.666 0.0
O321 O 0.59256 0.19587 0.66636 0.0
Cd322 Cd 0.60012 0.1981 0.67404 0.0
O323 O 0.60724 0.19245 0.68028 0.0
C324 C 0.61205 0.18943 0.67729 0.0
O325 O 0.61285 0.19035 0.67077 0.0
C326 C 0.59312 0.19736 0.66015 0.0
C327 C 0.60607 0.22089 0.66352 0.0
O328 O 0.60994 0.21678 0.66037 0.0
O329 O 0.60194 0.21844 0.66787 0.0
O330 O 0.55483 0.84127 0.41157 0.0
Cd331 Cd 0.54809 0.84557 0.42101 0.0
O332 O 0.56206 0.84968 0.41223 0.0
Cd333 Cd 0.55862 0.85476 0.42138 0.0
O334 O 0.5651 0.86087 0.42792 0.0
C335 C 0.57084 0.86186 0.42522 0.0
O336 O 0.57197 0.85933 0.41918 0.0
C337 C 0.56002 0.84432 0.40936 0.0
C338 C 0.53466 0.84789 0.41739 0.0
O339 O 0.53906 0.85263 0.41709 0.0
O340 O 0.53661 0.84206 0.4194 0.0
O341 O 0.91354 0.80512 0.16013 0.0
Cd342 Cd 0.90838 0.79851 0.16923 0.0
O343 O 0.90488 0.81205 0.15958 0.0
Cd344 Cd 0.89928 0.8087 0.16844 0.0
O345 O 0.89331 0.81433 0.17581 0.0
C346 C 0.89646 0.81883 0.17913 0.0
O347 O 0.90303 0.81931 0.17838 0.0
C348 C 0.91059 0.8101 0.15738 0.0
C349 C 0.90684 0.78491 0.16579 0.0
O350 O 0.90212 0.78919 0.16467 0.0
O351 O 0.91229 0.78706 0.16852 0.0
O352 O 0.59873 0.95127 0.84796 0.0
Cd353 Cd 0.59132 0.95718 0.85589 0.0
O354 O 0.59039 0.9458 0.8431 0.0
Cd355 Cd 0.58315 0.94809 0.85107 0.0
O356 O 0.57809 0.94217 0.85888 0.0
C357 C 0.58121 0.93677 0.86039 0.0
O358 O 0.58703 0.93555 0.85744 0.0
C359 C 0.59662 0.9473 0.84337 0.0
C360 C 0.59376 0.97108 0.85598 0.0
O361 O 0.59712 0.96706 0.85978 0.0
O362 O 0.58923 0.96853 0.85213 0.0
O363 O 0.80576 0.84789 0.59784 0.0
Cd364 Cd 0.79971 0.83967 0.60482 0.0
O365 O 0.81141 0.83993 0.59255 0.0
Cd366 Cd 0.80933 0.83226 0.60016 0.0
O367 O 0.81539 0.82725 0.60791 0.0
C368 C 0.82099 0.8302 0.60899 0.0
O369 O 0.82233 0.83577 0.60563 0.0
C370 C 0.80981 0.84611 0.59318 0.0
C371 C 0.78591 0.84252 0.60537 0.0
O372 O 0.78996 0.84477 0.60988 0.0
O373 O 0.78838 0.8389 0.60061 0.0
O374 O 0.90905 0.05509 0.34773 0.0
Cd375 Cd 0.9165 0.04875 0.35529 0.0
O376 O 0.91717 0.06169 0.34398 0.0
Cd377 Cd 0.92442 0.05909 0.35185 0.0
O378 O 0.92962 0.06506 0.35955 0.0
C379 C 0.92617 0.07004 0.36168 0.0
O380 O 0.91997 0.07079 0.35943 0.0
C381 C 0.91106 0.05971 0.34376 0.0
C382 C 0.91368 0.03491 0.355 0.0
O383 O 0.91043 0.03892 0.35889 0.0
O384 O 0.9183 0.03743 0.35123 0.0
O385 O 0.70141 0.1585 0.09813 0.0
Cd386 Cd 0.70716 0.16596 0.10614 0.0
O387 O 0.69583 0.16676 0.09327 0.0
Cd388 Cd 0.69791 0.17404 0.10127 0.0
O389 O 0.69184 0.17917 0.10893 0.0
C390 C 0.68619 0.17631 0.10999 0.0
O391 O 0.68481 0.17071 0.1067 0.0
C392 C 0.69745 0.16056 0.09352 0.0
C393 C 0.72105 0.16353 0.10635 0.0
O394 O 0.717 0.16017 0.11012 0.0
O395 O 0.71853 0.16807 0.10249 0.0
O396 O 0.59876 0.05573 0.65963 0.0
Cd397 Cd 0.59129 0.04999 0.65164 0.0
O398 O 0.59047 0.06118 0.66461 0.0
Cd399 Cd 0.58318 0.05908 0.65663 0.0
O400 O 0.57809 0.06511 0.64892 0.0
C401 C 0.58105 0.07067 0.64771 0.0
O402 O 0.58672 0.07199 0.65089 0.0
C403 C 0.59669 0.05963 0.66429 0.0
C404 C 0.5937 0.0361 0.65129 0.0
O405 O 0.59704 0.04018 0.64753 0.0
O406 O 0.5892 0.03859 0.65521 0.0
O407 O 0.70122 0.84899 0.40948 0.0
Cd408 Cd 0.70737 0.8419 0.40143 0.0
O409 O 0.69623 0.8403 0.41425 0.0
Cd410 Cd 0.69883 0.8332 0.40624 0.0
O411 O 0.69256 0.82806 0.39876 0.0
C412 C 0.68707 0.83117 0.3976 0.0
O413 O 0.68603 0.83698 0.40063 0.0
C414 C 0.69739 0.84661 0.41405 0.0
C415 C 0.72126 0.84438 0.40148 0.0
O416 O 0.71724 0.84786 0.39779 0.0
O417 O 0.7187 0.83973 0.40518 0.0
O418 O 0.90835 0.9511 0.15927 0.0
Cd419 Cd 0.91575 0.95697 0.15129 0.0
O420 O 0.91668 0.94603 0.16457 0.0
Cd421 Cd 0.92407 0.94833 0.15674 0.0
O422 O 0.92924 0.94227 0.14911 0.0
C423 C 0.92581 0.93721 0.14716 0.0
O424 O 0.91967 0.93643 0.14955 0.0
C425 C 0.91042 0.94734 0.16405 0.0
C426 C 0.91309 0.97082 0.15104 0.0
O427 O 0.9097 0.96668 0.1474 0.0
O428 O 0.91778 0.96842 0.15479 0.0
O429 O 0.80609 0.15926 0.91079 0.0
Cd430 Cd 0.79976 0.168 0.90474 0.0
O431 O 0.81199 0.16697 0.91618 0.0
Cd432 Cd 0.80968 0.17496 0.90898 0.0
O433 O 0.81546 0.18008 0.9011 0.0
C434 C 0.82077 0.17688 0.89942 0.0
O435 O 0.82199 0.17104 0.9023 0.0
C436 C 0.81036 0.16082 0.91533 0.0
C437 C 0.78601 0.16503 0.90374 0.0
O438 O 0.78843 0.16782 0.90905 0.0
O439 O 0.79009 0.16362 0.89891 0.0
O440 O 0.84803 0.5985 0.95192 0.0
Cd441 Cd 0.85608 0.59105 0.95761 0.0
O442 O 0.8427 0.59014 0.94691 0.0
Cd443 Cd 0.85063 0.58279 0.949 0.0
O444 O 0.85813 0.57769 0.94272 0.0
C445 C 0.85954 0.58093 0.93737 0.0
O446 O 0.85671 0.58685 0.93641 0.0
C447 C 0.8432 0.5964 0.94824 0.0
C448 C 0.85625 0.59319 0.97155 0.0
O449 O 0.85995 0.5967 0.96758 0.0
O450 O 0.85246 0.58864 0.96894 0.0
O451 O 0.34297 0.9112 0.05436 0.0
Cd452 Cd 0.34912 0.91976 0.04786 0.0
O453 O 0.35067 0.91182 0.06235 0.0
Cd454 Cd 0.35657 0.92048 0.05898 0.0
O455 O 0.36267 0.92713 0.06535 0.0
C456 C 0.36368 0.92452 0.07113 0.0
O457 O 0.36124 0.91847 0.07233 0.0
C458 C 0.34535 0.90914 0.05995 0.0
C459 C 0.35037 0.91652 0.03418 0.0
O460 O 0.35454 0.9142 0.03855 0.0
O461 O 0.34559 0.92034 0.03627 0.0
O462 O 0.84552 0.59128 0.80617 0.0
Cd463 Cd 0.836 0.59621 0.80003 0.0
O464 O 0.84588 0.5999 0.81318 0.0
Cd465 Cd 0.83664 0.60501 0.81012 0.0
O466 O 0.82908 0.61086 0.81561 0.0
C467 C 0.83125 0.61608 0.81864 0.0
O468 O 0.83757 0.61787 0.81775 0.0
C469 C 0.84829 0.59433 0.8111 0.0
C470 C 0.83908 0.59866 0.78648 0.0
O471 O 0.84013 0.60316 0.791 0.0
O472 O 0.83657 0.593 0.78837 0.0
O473 O 0.15878 0.09888 0.55632 0.0
Cd474 Cd 0.15047 0.09205 0.55022 0.0
O475 O 0.16383 0.09009 0.56083 0.0
Cd476 Cd 0.15567 0.08314 0.55834 0.0
O477 O 0.14811 0.07821 0.56469 0.0
C478 C 0.14723 0.08125 0.57028 0.0
O479 O 0.15058 0.08688 0.57138 0.0
C480 C 0.16353 0.09643 0.55987 0.0
C481 C 0.15073 0.09454 0.53633 0.0
O482 O 0.14729 0.09827 0.54035 0.0
O483 O 0.15406 0.08962 0.53887 0.0
O484 O 0.16101 0.91452 0.80483 0.0
Cd485 Cd 0.16965 0.90848 0.79835 0.0
O486 O 0.16136 0.90657 0.81257 0.0
Cd487 Cd 0.17009 0.90077 0.80919 0.0
O488 O 0.17675 0.89458 0.81544 0.0
C489 C 0.175 0.89481 0.82161 0.0
O490 O 0.16979 0.89855 0.82328 0.0
C491 C 0.15878 0.91198 0.81029 0.0
C492 C 0.16633 0.90698 0.78471 0.0
O493 O 0.16415 0.90281 0.78916 0.0
O494 O 0.17005 0.91188 0.78672 0.0
O495 O 0.66572 0.41228 0.45227 0.0
Cd496 Cd 0.65987 0.42096 0.45886 0.0
O497 O 0.65749 0.41254 0.44482 0.0
Cd498 Cd 0.65172 0.42122 0.44836 0.0
O499 O 0.64533 0.42754 0.44196 0.0
C500 C 0.6442 0.4247 0.43631 0.0
O501 O 0.64671 0.41865 0.43526 0.0
C502 C 0.66299 0.41001 0.44692 0.0
C503 C 0.65769 0.41704 0.47223 0.0
O504 O 0.65359 0.4153 0.46753 0.0
O505 O 0.66283 0.42061 0.4706 0.0
O506 O 0.84909 0.4092 0.70137 0.0
Cd507 Cd 0.84157 0.40107 0.70686 0.0
O508 O 0.84108 0.41343 0.69495 0.0
Cd509 Cd 0.83378 0.40541 0.69686 0.0
O510 O 0.8283 0.39795 0.69084 0.0
C511 C 0.83098 0.39686 0.6851 0.0
O512 O 0.83662 0.40002 0.6836 0.0
C513 C 0.84714 0.41353 0.69705 0.0
C514 C 0.84355 0.40075 0.72083 0.0
O515 O 0.8471 0.39708 0.71686 0.0
O516 O 0.83903 0.40457 0.71821 0.0
O517 O 0.65843 0.59683 0.20176 0.0
Cd518 Cd 0.66606 0.60447 0.20778 0.0
O519 O 0.66642 0.59311 0.19499 0.0
Cd520 Cd 0.67368 0.60102 0.19742 0.0
O521 O 0.67889 0.60889 0.1917 0.0
C522 C 0.67577 0.61066 0.18637 0.0
O523 O 0.66987 0.60792 0.18511 0.0
C524 C 0.66036 0.59284 0.19711 0.0
C525 C 0.66359 0.60459 0.22168 0.0
O526 O 0.66033 0.60847 0.21766 0.0
O527 O 0.66803 0.60063 0.21913 0.0
O528 O 0.55042 0.66692 0.90999 0.0
Cd529 Cd 0.54331 0.66202 0.91883 0.0
O530 O 0.55819 0.66107 0.91516 0.0
Cd531 Cd 0.5682 0.65685 0.91702 0.0
O532 O 0.57662 0.65099 0.92101 0.0
C533 C 0.57526 0.6466 0.92548 0.0
O534 O 0.56896 0.64582 0.92739 0.0
C535 C 0.55657 0.66522 0.91054 0.0
C536 C 0.53001 0.65942 0.91516 0.0
O537 O 0.53175 0.66518 0.91753 0.0
O538 O 0.5346 0.65492 0.9144 0.0
O539 O 0.58889 0.30101 0.16161 0.0
Cd540 Cd 0.59306 0.29358 0.17052 0.0
O541 O 0.59748 0.30736 0.1642 0.0
Cd542 Cd 0.60467 0.31574 0.16457 0.0
O543 O 0.61102 0.32362 0.16892 0.0
C544 C 0.60914 0.32586 0.17463 0.0
O545 O 0.6036 0.32342 0.17735 0.0
C546 C 0.59217 0.30644 0.1607 0.0
C547 C 0.59581 0.28053 0.1661 0.0
O548 O 0.58991 0.28218 0.16821 0.0
O549 O 0.60041 0.28508 0.16603 0.0
O550 O 0.95629 0.3394 0.41097 0.0
Cd551 Cd 0.96348 0.34381 0.41999 0.0
O552 O 0.95 0.3481 0.4133 0.0
Cd553 Cd 0.94173 0.35541 0.41357 0.0
O554 O 0.9339 0.36175 0.41804 0.0
C555 C 0.92935 0.35872 0.42139 0.0
O556 O 0.92947 0.35209 0.42166 0.0
C557 C 0.95091 0.34271 0.40992 0.0
C558 C 0.97673 0.34637 0.41611 0.0
O559 O 0.97499 0.34059 0.41843 0.0
O560 O 0.97217 0.35092 0.41553 0.0
O561 O 0.91603 0.70593 0.65937 0.0
Cd562 Cd 0.91012 0.71275 0.66782 0.0
O563 O 0.90799 0.69896 0.66209 0.0
Cd564 Cd 0.90231 0.68958 0.66325 0.0
O565 O 0.89623 0.68173 0.66801 0.0
C566 C 0.89925 0.67727 0.67149 0.0
O567 O 0.90588 0.67739 0.67178 0.0
C568 C 0.91329 0.70018 0.65866 0.0
C569 C 0.90837 0.72633 0.66469 0.0
O570 O 0.9134 0.72437 0.66826 0.0
O571 O 0.90426 0.72185 0.66248 0.0
O572 O 0.55172 0.33922 0.5977 0.0
Cd573 Cd 0.54442 0.34379 0.58884 0.0
O574 O 0.55919 0.34553 0.59264 0.0
Cd575 Cd 0.56898 0.35027 0.59077 0.0
O576 O 0.57718 0.35643 0.58676 0.0
C577 C 0.57572 0.36062 0.58213 0.0
O578 O 0.56943 0.36104 0.58006 0.0
C579 C 0.55778 0.34124 0.5972 0.0
C580 C 0.53118 0.34664 0.59256 0.0
O581 O 0.53285 0.34078 0.5904 0.0
O582 O 0.53582 0.35112 0.59312 0.0
O583 O 0.91675 0.30017 0.84689 0.0
Cd584 Cd 0.91191 0.29314 0.83798 0.0
O585 O 0.90868 0.30709 0.84413 0.0
Cd586 Cd 0.90262 0.31623 0.84295 0.0
O587 O 0.89631 0.32398 0.83834 0.0
C588 C 0.8992 0.32899 0.83559 0.0
O589 O 0.90581 0.32945 0.83591 0.0
C590 C 0.91387 0.30584 0.8477 0.0
C591 C 0.90972 0.2798 0.84176 0.0
O592 O 0.91537 0.28166 0.83921 0.0
O593 O 0.90513 0.28428 0.8426 0.0
O594 O 0.95685 0.66718 0.09682 0.0
Cd595 Cd 0.96437 0.66317 0.08789 0.0
O596 O 0.95027 0.6591 0.09325 0.0
Cd597 Cd 0.94142 0.65258 0.09244 0.0
O598 O 0.93359 0.64619 0.0881 0.0
C599 C 0.92833 0.64903 0.08578 0.0
O600 O 0.92771 0.65561 0.0864 0.0
C601 C 0.95124 0.6641 0.09716 0.0
C602 C 0.97759 0.66086 0.09203 0.0
O603 O 0.97572 0.66668 0.08991 0.0
O604 O 0.97316 0.65615 0.09228 0.0
O605 O 0.58826 0.70733 0.34554 0.0
Cd606 Cd 0.59267 0.71457 0.33659 0.0
O607 O 0.59619 0.70042 0.34236 0.0
Cd608 Cd 0.60225 0.69132 0.34093 0.0
O609 O 0.60903 0.68384 0.33656 0.0
C610 C 0.60746 0.67763 0.33652 0.0
O611 O 0.60176 0.67573 0.33934 0.0
C612 C 0.59118 0.70166 0.34618 0.0
C613 C 0.59552 0.72763 0.34087 0.0
O614 O 0.58964 0.72603 0.33869 0.0
O615 O 0.60005 0.72302 0.34108 0.0
O616 O 0.90859 0.55477 0.66069 0.0
Cd617 Cd 0.91677 0.54846 0.65391 0.0
O618 O 0.91392 0.56417 0.65813 0.0
Cd619 Cd 0.92138 0.56055 0.6509 0.0
O620 O 0.92805 0.56633 0.64431 0.0
C621 C 0.9309 0.57126 0.64727 0.0
O622 O 0.93 0.57197 0.65381 0.0
C623 C 0.90925 0.56112 0.6613 0.0
C624 C 0.91396 0.53469 0.65304 0.0
O625 O 0.9174 0.53708 0.65797 0.0
O626 O 0.9118 0.53882 0.64855 0.0
O627 O 0.70649 0.65999 0.91604 0.0
Cd628 Cd 0.71292 0.66846 0.90977 0.0
O629 O 0.69895 0.66281 0.90857 0.0
Cd630 Cd 0.68934 0.66399 0.90329 0.0
O631 O 0.6815 0.66831 0.89689 0.0
C632 C 0.68002 0.67448 0.89782 0.0
O633 O 0.68312 0.67781 0.90265 0.0
C634 C 0.70057 0.65927 0.91368 0.0
C635 C 0.72654 0.66551 0.90811 0.0
O636 O 0.72453 0.66927 0.91298 0.0
O637 O 0.72209 0.66306 0.9041 0.0
O638 O 0.59663 0.45669 0.16762 0.0
Cd639 Cd 0.58754 0.46345 0.16275 0.0
O640 O 0.59389 0.44954 0.15973 0.0
Cd641 Cd 0.59292 0.44015 0.15403 0.0
O642 O 0.58854 0.43212 0.1479 0.0
C643 C 0.58305 0.42954 0.15001 0.0
O644 O 0.58052 0.43168 0.15576 0.0
C645 C 0.59751 0.45098 0.16484 0.0
C646 C 0.59116 0.47667 0.15972 0.0
O647 O 0.58882 0.4751 0.16555 0.0
O648 O 0.59188 0.47196 0.15534 0.0
O649 O 0.80031 0.34654 0.41848 0.0
Cd650 Cd 0.79329 0.33727 0.41436 0.0
O651 O 0.80688 0.34372 0.41012 0.0
Cd652 Cd 0.81595 0.34277 0.40391 0.0
O653 O 0.82398 0.33842 0.39777 0.0
C654 C 0.82663 0.33301 0.39995 0.0
O655 O 0.82453 0.33054 0.40574 0.0
C656 C 0.80579 0.34741 0.41527 0.0
C657 C 0.78015 0.34091 0.41104 0.0
O658 O 0.78168 0.33902 0.41704 0.0
O659 O 0.78488 0.34117 0.40663 0.0
O660 O 0.91042 0.4563 0.83963 0.0
Cd661 Cd 0.91941 0.46308 0.84467 0.0
O662 O 0.91311 0.44906 0.84745 0.0
Cd663 Cd 0.91407 0.43968 0.85319 0.0
O664 O 0.91829 0.43193 0.85976 0.0
C665 C 0.92451 0.43056 0.859 0.0
O666 O 0.92792 0.43373 0.85427 0.0
C667 C 0.90953 0.45056 0.84233 0.0
C668 C 0.91581 0.47643 0.84711 0.0
O669 O 0.9184 0.47465 0.84145 0.0
O670 O 0.91486 0.47186 0.8516 0.0
O671 O 0.8005 0.66103 0.08996 0.0
Cd672 Cd 0.79364 0.66991 0.09508 0.0
O673 O 0.80763 0.66334 0.09801 0.0
Cd674 Cd 0.81703 0.66388 0.10374 0.0
O675 O 0.82507 0.66791 0.11011 0.0
C676 C 0.82688 0.67394 0.10892 0.0
O677 O 0.824 0.67722 0.10393 0.0
C678 C 0.80617 0.65996 0.09274 0.0
C679 C 0.78029 0.66616 0.09727 0.0
O680 O 0.78213 0.66883 0.09167 0.0
O681 O 0.78478 0.66521 0.10182 0.0
O682 O 0.59549 0.55071 0.33916 0.0
Cd683 Cd 0.58648 0.54351 0.34351 0.0
O684 O 0.59293 0.55729 0.3476 0.0
Cd685 Cd 0.59221 0.56635 0.35384 0.0
O686 O 0.588 0.57436 0.3601 0.0
C687 C 0.58243 0.57688 0.35814 0.0
O688 O 0.57973 0.57466 0.35251 0.0
C689 C 0.59646 0.55619 0.34235 0.0
C690 C 0.59071 0.53037 0.34604 0.0
O691 O 0.58852 0.53212 0.3402 0.0
O692 O 0.59094 0.53487 0.35068 0.0
O693 O 0.70215 0.35 0.59932 0.0
Cd694 Cd 0.70799 0.34347 0.60803 0.0
O695 O 0.69478 0.34185 0.59766 0.0
Cd696 Cd 0.69737 0.3355 0.60628 0.0
O697 O 0.6912 0.32963 0.61331 0.0
C698 C 0.68631 0.32657 0.61048 0.0
O699 O 0.68579 0.32688 0.60387 0.0
C700 C 0.69714 0.34761 0.59609 0.0
C701 C 0.72195 0.34549 0.60785 0.0
O702 O 0.71926 0.34065 0.6045 0.0
O703 O 0.71804 0.34937 0.61124 0.0
O704 O 0.66807 0.91113 0.55162 0.0
Cd705 Cd 0.6638 0.91987 0.54402 0.0
O706 O 0.65945 0.91389 0.55788 0.0
Cd707 Cd 0.65228 0.91449 0.56627 0.0
O708 O 0.64575 0.9187 0.5741 0.0
C709 C 0.64741 0.92448 0.57634 0.0
O710 O 0.65286 0.92739 0.57394 0.0
C711 C 0.66479 0.9104 0.55708 0.0
C712 C 0.66139 0.91553 0.53088 0.0
O713 O 0.6672 0.91775 0.53265 0.0
O714 O 0.65673 0.91526 0.53537 0.0
O715 O 0.16717 0.59667 0.45687 0.0
Cd716 Cd 0.16295 0.58796 0.46452 0.0
O717 O 0.15965 0.59265 0.44989 0.0
Cd718 Cd 0.15383 0.59165 0.44058 0.0
O719 O 0.14742 0.58776 0.43251 0.0
C720 C 0.14844 0.58171 0.43066 0.0
O721 O 0.15332 0.57827 0.43355 0.0
C722 C 0.16446 0.59673 0.45106 0.0
C723 C 0.16057 0.59241 0.47762 0.0
O724 O 0.1664 0.59023 0.47584 0.0
O725 O 0.15588 0.59256 0.47317 0.0
O726 O 0.66004 0.91622 0.70679 0.0
Cd727 Cd 0.66848 0.91006 0.71338 0.0
O728 O 0.66264 0.90833 0.6996 0.0
Cd729 Cd 0.66355 0.90291 0.69004 0.0
O730 O 0.6679 0.89673 0.68203 0.0
C731 C 0.67379 0.89829 0.68003 0.0
O732 O 0.67678 0.90358 0.68268 0.0
C733 C 0.65924 0.91359 0.70099 0.0
C734 C 0.66529 0.90809 0.72692 0.0
O735 O 0.66897 0.91308 0.72506 0.0
O736 O 0.66302 0.9041 0.72235 0.0
O737 O 0.33818 0.41113 0.95783 0.0
Cd738 Cd 0.34232 0.42037 0.96488 0.0
O739 O 0.3461 0.4145 0.951 0.0
Cd740 Cd 0.35216 0.41604 0.94192 0.0
O741 O 0.35884 0.42033 0.93431 0.0
C742 C 0.35718 0.42032 0.92811 0.0
O743 O 0.35146 0.41749 0.92632 0.0
C744 C 0.34118 0.41054 0.9522 0.0
C745 C 0.34586 0.41659 0.97793 0.0
O746 O 0.33983 0.41847 0.97651 0.0
O747 O 0.3502 0.4164 0.97313 0.0
O748 O 0.34814 0.59209 0.70697 0.0
Cd749 Cd 0.34044 0.59925 0.71347 0.0
O750 O 0.34421 0.59873 0.69914 0.0
Cd751 Cd 0.34294 0.60329 0.6892 0.0
O752 O 0.33868 0.60944 0.68115 0.0
C753 C 0.33239 0.60883 0.68004 0.0
O754 O 0.32892 0.60445 0.68361 0.0
C755 C 0.34795 0.59379 0.70079 0.0
C756 C 0.34311 0.60035 0.72719 0.0
O757 O 0.33891 0.59596 0.72498 0.0
O758 O 0.34616 0.60411 0.72289 0.0
O759 O 0.83991 0.09618 0.05065 0.0
Cd760 Cd 0.84494 0.08745 0.04352 0.0
O761 O 0.84769 0.09336 0.05789 0.0
Cd762 Cd 0.85325 0.09236 0.06738 0.0
O763 O 0.85971 0.08837 0.07536 0.0
C764 C 0.85906 0.08215 0.07679 0.0
O765 O 0.8545 0.07858 0.07355 0.0
C766 C 0.84257 0.09695 0.05643 0.0
C767 C 0.84721 0.09151 0.03026 0.0
O768 O 0.84156 0.0889 0.03203 0.0
O769 O 0.85176 0.09228 0.03479 0.0
O770 O 0.66042 0.08882 0.80059 0.0
Cd771 Cd 0.66935 0.09301 0.79316 0.0
O772 O 0.6632 0.09753 0.80671 0.0
Cd773 Cd 0.66378 0.10472 0.81508 0.0
O774 O 0.66814 0.11088 0.82309 0.0
C775 C 0.67358 0.10866 0.82566 0.0
O776 O 0.67604 0.10292 0.82343 0.0
C777 C 0.65971 0.09218 0.80601 0.0
C778 C 0.66536 0.09628 0.78009 0.0
O779 O 0.66732 0.0903 0.78159 0.0
O780 O 0.66515 0.10069 0.78482 0.0
O781 O 0.84643 0.91752 0.30108 0.0
Cd782 Cd 0.83744 0.91328 0.29376 0.0
O783 O 0.8437 0.90898 0.30745 0.0
Cd784 Cd 0.84323 0.90188 0.31589 0.0
O785 O 0.83883 0.89567 0.32386 0.0
C786 C 0.83326 0.89775 0.32624 0.0
O787 O 0.83069 0.9034 0.32388 0.0
C788 C 0.84726 0.91425 0.30653 0.0
C789 C 0.84138 0.91092 0.28048 0.0
O790 O 0.83912 0.9167 0.28232 0.0
O791 O 0.84188 0.90628 0.28496 0.0
O792 O 0.45168 0.34786 0.09917 0.0
Cd793 Cd 0.45751 0.35574 0.09164 0.0
O794 O 0.44642 0.34268 0.09088 0.0
Cd795 Cd 0.44863 0.35054 0.08349 0.0
O796 O 0.44241 0.35814 0.07849 0.0
C797 C 0.43718 0.35972 0.08188 0.0
O798 O 0.43634 0.35699 0.08786 0.0
C799 C 0.44784 0.34314 0.09712 0.0
C800 C 0.47141 0.35594 0.09401 0.0
O801 O 0.46739 0.35974 0.09735 0.0
O802 O 0.46887 0.35203 0.08952 0.0
O803 O 0.40903 0.70164 0.84899 0.0
Cd804 Cd 0.40126 0.70749 0.84137 0.0
O805 O 0.41421 0.69627 0.84077 0.0
Cd806 Cd 0.40643 0.69843 0.83329 0.0
O807 O 0.39905 0.69207 0.8281 0.0
C808 C 0.39822 0.68642 0.83103 0.0
O809 O 0.40155 0.68525 0.83665 0.0
C810 C 0.41373 0.69775 0.847 0.0
C811 C 0.40101 0.72137 0.84388 0.0
O812 O 0.39712 0.71732 0.8471 0.0
O813 O 0.40501 0.71887 0.83945 0.0
O814 O 0.05554 0.65925 0.59928 0.0
Cd815 Cd 0.04955 0.65145 0.5918 0.0
O816 O 0.06123 0.66397 0.59099 0.0
Cd817 Cd 0.05889 0.65608 0.58367 0.0
O818 O 0.06475 0.64833 0.57844 0.0
C819 C 0.0702 0.6468 0.58147 0.0
O820 O 0.07151 0.64971 0.58729 0.0
C821 C 0.05964 0.66374 0.59721 0.0
C822 C 0.03569 0.65122 0.59445 0.0
O823 O 0.03978 0.64738 0.59767 0.0
O824 O 0.03814 0.65518 0.58996 0.0
O825 O 0.09838 0.30555 0.35075 0.0
Cd826 Cd 0.10676 0.29942 0.34403 0.0
O827 O 0.09516 0.31191 0.34224 0.0
Cd828 Cd 0.10349 0.30921 0.33556 0.0
O829 O 0.11096 0.31496 0.32981 0.0
C830 C 0.10848 0.31966 0.32622 0.0
O831 O 0.10188 0.32025 0.32589 0.0
C832 C 0.09449 0.31004 0.34834 0.0
C833 C 0.10622 0.28553 0.34642 0.0
O834 O 0.10966 0.28946 0.35024 0.0
O835 O 0.10303 0.28815 0.34144 0.0
O836 O 0.4513 0.65827 0.40647 0.0
Cd837 Cd 0.4573 0.6498 0.41318 0.0
O838 O 0.44637 0.66264 0.41541 0.0
Cd839 Cd 0.44878 0.65421 0.42207 0.0
O840 O 0.44273 0.64682 0.42759 0.0
C841 C 0.43783 0.64935 0.43086 0.0
O842 O 0.43719 0.65595 0.43102 0.0
C843 C 0.44756 0.66277 0.4091 0.0
C844 C 0.47125 0.65019 0.41114 0.0
O845 O 0.4674 0.64666 0.40732 0.0
O846 O 0.4685 0.65356 0.41594 0.0
O847 O 0.09787 0.7011 0.15833 0.0
Cd848 Cd 0.10585 0.70729 0.16547 0.0
O849 O 0.09282 0.69635 0.167 0.0
Cd850 Cd 0.10087 0.69879 0.17409 0.0
O851 O 0.10852 0.69259 0.17905 0.0
C852 C 0.10925 0.68685 0.17627 0.0
O853 O 0.10565 0.68548 0.17086 0.0
C854 C 0.09317 0.69742 0.16068 0.0
C855 C 0.10583 0.72114 0.1628 0.0
O856 O 0.10961 0.71709 0.15946 0.0
O857 O 0.10203 0.71864 0.16741 0.0
O858 O 0.05411 0.34251 0.91129 0.0
Cd859 Cd 0.0476 0.34854 0.91992 0.0
O860 O 0.06182 0.35051 0.91148 0.0
Cd861 Cd 0.05854 0.35632 0.92025 0.0
O862 O 0.0649 0.3624 0.92691 0.0
C863 C 0.07099 0.36248 0.92488 0.0
O864 O 0.07253 0.35909 0.91938 0.0
C865 C 0.05953 0.34507 0.90898 0.0
C866 C 0.034 0.34994 0.91645 0.0
O867 O 0.03843 0.35416 0.91435 0.0
O868 O 0.036 0.34504 0.92017 0.0
O869 O 0.40827 0.30572 0.65702 0.0
Cd870 Cd 0.40002 0.2999 0.66416 0.0
O871 O 0.41262 0.31147 0.66546 0.0
Cd872 Cd 0.40447 0.30915 0.6725 0.0
O873 O 0.39711 0.31505 0.6782 0.0
C874 C 0.39961 0.32009 0.68129 0.0
O875 O 0.40619 0.32092 0.68118 0.0
C876 C 0.41268 0.30981 0.65926 0.0
C877 C 0.40015 0.286 0.66181 0.0
O878 O 0.39659 0.28999 0.65816 0.0
O879 O 0.40363 0.28858 0.66661 0.0
O880 O 0.09831 0.4506 0.34788 0.0
Cd881 Cd 0.08996 0.45657 0.35477 0.0
O882 O 0.09047 0.4454 0.34201 0.0
Cd883 Cd 0.08255 0.44755 0.34935 0.0
O884 O 0.07729 0.44179 0.35715 0.0
C885 C 0.0805 0.43656 0.35903 0.0
O886 O 0.08648 0.4354 0.35639 0.0
C887 C 0.09666 0.44678 0.343 0.0
C888 C 0.09267 0.47039 0.35548 0.0
O889 O 0.09491 0.46631 0.35998 0.0
O890 O 0.08914 0.46794 0.35065 0.0
O891 O 0.306 0.34792 0.09731 0.0
Cd892 Cd 0.29994 0.33997 0.10458 0.0
O893 O 0.31224 0.33986 0.09292 0.0
Cd894 Cd 0.30994 0.3325 0.10079 0.0
O895 O 0.31582 0.32759 0.10873 0.0
C896 C 0.32131 0.33065 0.11004 0.0
O897 O 0.32265 0.33628 0.1068 0.0
C898 C 0.31038 0.346 0.09303 0.0
C899 C 0.28608 0.34258 0.10491 0.0
O900 O 0.29006 0.34516 0.1093 0.0
O901 O 0.28864 0.33876 0.10036 0.0
O902 O 0.40774 0.55607 0.84859 0.0
Cd903 Cd 0.41532 0.54995 0.85619 0.0
O904 O 0.41633 0.56114 0.84371 0.0
Cd905 Cd 0.42346 0.5588 0.85176 0.0
O906 O 0.42887 0.56475 0.85932 0.0
C907 C 0.43242 0.56953 0.85694 0.0
O908 O 0.43297 0.57011 0.85035 0.0
C909 C 0.41004 0.5599 0.84397 0.0
C910 C 0.41272 0.53611 0.85645 0.0
O911 O 0.41001 0.5401 0.86076 0.0
O912 O 0.41665 0.53866 0.852 0.0
O913 O 0.20059 0.65882 0.59737 0.0
Cd914 Cd 0.20708 0.66676 0.6043 0.0
O915 O 0.19548 0.66717 0.59214 0.0
Cd916 Cd 0.19811 0.67468 0.59973 0.0
O917 O 0.19226 0.67973 0.6076 0.0
C918 C 0.18695 0.67651 0.60925 0.0
O919 O 0.1858 0.67064 0.60638 0.0
C920 C 0.19665 0.66088 0.59274 0.0
C921 C 0.22085 0.66375 0.60462 0.0
O922 O 0.21684 0.66152 0.60918 0.0
O923 O 0.21835 0.66738 0.59988 0.0
O924 O 0.10002 0.55549 0.15825 0.0
Cd925 Cd 0.09298 0.54955 0.15001 0.0
O926 O 0.09151 0.56115 0.16257 0.0
Cd927 Cd 0.08455 0.55879 0.15438 0.0
O928 O 0.07892 0.56473 0.14698 0.0
C929 C 0.07579 0.56975 0.14947 0.0
O930 O 0.07583 0.57056 0.15606 0.0
C931 C 0.09772 0.55955 0.16265 0.0
C932 C 0.0954 0.53567 0.15031 0.0
O933 O 0.09904 0.53963 0.14672 0.0
O934 O 0.09057 0.53826 0.15375 0.0
O935 O 0.20325 0.3462 0.91454 0.0
Cd936 Cd 0.21011 0.33805 0.90825 0.0
O937 O 0.19449 0.34323 0.90839 0.0
Cd938 Cd 0.19845 0.335 0.90226 0.0
O939 O 0.19207 0.32887 0.89567 0.0
C940 C 0.18647 0.33179 0.89448 0.0
O941 O 0.18548 0.33785 0.897 0.0
C942 C 0.19707 0.34691 0.91297 0.0
C943 C 0.22357 0.34201 0.90683 0.0
O944 O 0.21902 0.34416 0.90277 0.0
O945 O 0.22176 0.33801 0.91159 0.0
O946 O 0.41117 0.45238 0.66559 0.0
Cd947 Cd 0.42049 0.4589 0.66072 0.0
O948 O 0.41097 0.44552 0.65685 0.0
Cd949 Cd 0.42009 0.4488 0.65164 0.0
O950 O 0.42684 0.44236 0.64574 0.0
C951 C 0.42519 0.43617 0.64627 0.0
O952 O 0.42006 0.43459 0.65016 0.0
C953 C 0.40853 0.44743 0.66248 0.0
C954 C 0.41701 0.47238 0.65845 0.0
O955 O 0.41615 0.4679 0.65386 0.0
O956 O 0.4195 0.47048 0.66411 0.0
O957 O 0.30618 0.65798 0.40923 0.0
Cd958 Cd 0.30048 0.66565 0.40139 0.0
O959 O 0.31123 0.66619 0.41475 0.0
Cd960 Cd 0.30909 0.67373 0.40702 0.0
O961 O 0.31526 0.6789 0.39947 0.0
C962 C 0.32061 0.67568 0.398 0.0
O963 O 0.32162 0.66976 0.40083 0.0
C964 C 0.30989 0.65995 0.4141 0.0
C965 C 0.28655 0.66349 0.40116 0.0
O966 O 0.29053 0.6601 0.39734 0.0
O967 O 0.28916 0.66792 0.40509 0.0
O968 O 0.34774 0.09878 0.45098 0.0
Cd969 Cd 0.35591 0.09177 0.45707 0.0
O970 O 0.34264 0.09001 0.44646 0.0
Cd971 Cd 0.35076 0.08301 0.44895 0.0
O972 O 0.35854 0.07792 0.44301 0.0
C973 C 0.36017 0.08111 0.43768 0.0
O974 O 0.35737 0.08701 0.43654 0.0
C975 C 0.34297 0.09635 0.44743 0.0
C976 C 0.35582 0.09417 0.47097 0.0
O977 O 0.35948 0.09771 0.46698 0.0
O978 O 0.35216 0.0895 0.46839 0.0
O979 O 0.84327 0.41017 0.55466 0.0
Cd980 Cd 0.84957 0.41857 0.54811 0.0
O981 O 0.85029 0.41159 0.56316 0.0
Cd982 Cd 0.85633 0.42015 0.55977 0.0
O983 O 0.86219 0.42683 0.56632 0.0
C984 C 0.8618 0.42499 0.57246 0.0
O985 O 0.85815 0.41964 0.57392 0.0
C986 C 0.84527 0.40856 0.56055 0.0
C987 C 0.85066 0.4154 0.53439 0.0
O988 O 0.85482 0.41298 0.53872 0.0
O989 O 0.84595 0.41928 0.53655 0.0
O990 O 0.34877 0.09818 0.30614 0.0
Cd991 Cd 0.34136 0.10605 0.30014 0.0
O992 O 0.34045 0.09315 0.3115 0.0
Cd993 Cd 0.33312 0.10104 0.30922 0.0
O994 O 0.32797 0.10871 0.31526 0.0
C995 C 0.33078 0.10971 0.32095 0.0
O996 O 0.33632 0.10634 0.32237 0.0
C997 C 0.34669 0.09353 0.31005 0.0
C998 C 0.34405 0.10612 0.28629 0.0
O999 O 0.34739 0.10987 0.29037 0.0
O1000 O 0.33941 0.10235 0.28875 0.0
O1001 O 0.65908 0.59884 0.05622 0.0
Cd1002 Cd 0.65121 0.59129 0.0504 0.0
O1003 O 0.66459 0.59055 0.06112 0.0
Cd1004 Cd 0.65681 0.58309 0.05891 0.0
O1005 O 0.64921 0.578 0.06508 0.0
C1006 C 0.64743 0.58141 0.07021 0.0
O1007 O 0.64997 0.58749 0.07101 0.0
C1008 C 0.66395 0.59681 0.05988 0.0
C1009 C 0.65094 0.59374 0.03651 0.0
O1010 O 0.64714 0.59705 0.04057 0.0
O1011 O 0.65486 0.58925 0.03901 0.0
O1012 O 0.65795 0.40887 0.30567 0.0
Cd1013 Cd 0.66531 0.40086 0.29981 0.0
O1014 O 0.66624 0.41392 0.31105 0.0
Cd1015 Cd 0.67358 0.40603 0.30882 0.0
O1016 O 0.67879 0.39849 0.31496 0.0
C1017 C 0.67606 0.39765 0.32071 0.0
O1018 O 0.67057 0.4011 0.32214 0.0
C1019 C 0.66001 0.41354 0.30956 0.0
C1020 C 0.66274 0.40074 0.28594 0.0
O1021 O 0.65927 0.39713 0.29003 0.0
O1022 O 0.66748 0.4044 0.28839 0.0
O1023 O 0.15977 0.90931 0.95099 0.0
Cd1024 Cd 0.15255 0.91715 0.95726 0.0
O1025 O 0.16524 0.91769 0.94619 0.0
Cd1026 Cd 0.15753 0.92518 0.94858 0.0
O1027 O 0.14984 0.9302 0.94247 0.0
C1028 C 0.14793 0.92671 0.93743 0.0
O1029 O 0.1504 0.92059 0.9367 0.0
C1030 C 0.16457 0.9114 0.94726 0.0
C1031 C 0.15206 0.91423 0.97106 0.0
O1032 O 0.14762 0.91188 0.96698 0.0
O1033 O 0.15675 0.91796 0.96861 0.0
O1034 O 0.34634 0.91488 0.20259 0.0
Cd1035 Cd 0.33734 0.90989 0.20945 0.0
O1036 O 0.34407 0.90808 0.1941 0.0
Cd1037 Cd 0.33512 0.90288 0.19782 0.0
O1038 O 0.32773 0.89682 0.19232 0.0
C1039 C 0.33011 0.89177 0.18915 0.0
O1040 O 0.33653 0.89027 0.18992 0.0
C1041 C 0.34764 0.91274 0.19668 0.0
C1042 C 0.34102 0.90837 0.223 0.0
O1043 O 0.34212 0.90366 0.21869 0.0
O1044 O 0.3382 0.9138 0.22089 0.0
O1045 O 0.15657 0.09828 0.7019 0.0
Cd1046 Cd 0.1632 0.10678 0.70794 0.0
O1047 O 0.16483 0.09571 0.69493 0.0
Cd1048 Cd 0.17141 0.10414 0.69758 0.0
O1049 O 0.17716 0.11168 0.69192 0.0
C1050 C 0.18114 0.10926 0.68751 0.0
O1051 O 0.18185 0.10267 0.68714 0.0
C1052 C 0.15889 0.09468 0.69712 0.0
C1053 C 0.161 0.10617 0.72187 0.0
O1054 O 0.15703 0.10948 0.71799 0.0
O1055 O 0.16605 0.10314 0.71918 0.0
C1056 C 0.13237 0.20503 0.36696 0.0
C1057 C 0.13169 0.1986 0.36983 0.0
C1058 C 0.14384 0.19794 0.3715 0.0
C1059 C 0.13736 0.19508 0.37207 0.0
C1060 C 0.1445 0.20434 0.36847 0.0
C1061 C 0.13881 0.20786 0.36623 0.0
U1062 U 0.11351 0.20645 0.36729 0.0
O1063 O 0.10685 0.21482 0.37022 0.0
O1064 O 0.10613 0.2105 0.36004 0.0
C1065 C 0.10419 0.21533 0.36416 0.0
C1066 C 0.12633 0.20894 0.36521 0.0
C1067 C 0.10412 0.22219 0.36136 0.0
C1068 C 0.10985 0.23166 0.35607 0.0
C1069 C 0.10987 0.22494 0.35827 0.0
C1070 C 0.09832 0.23288 0.35996 0.0
C1071 C 0.1041 0.23572 0.35699 0.0
C1072 C 0.09833 0.22617 0.36212 0.0
C1073 C 0.10401 0.19185 0.37567 0.0
C1074 C 0.09261 0.19268 0.3801 0.0
C1075 C 0.09836 0.18189 0.38003 0.0
C1076 C 0.104 0.18492 0.37705 0.0
C1077 C 0.09265 0.18576 0.3817 0.0
C1078 C 0.09824 0.1957 0.37709 0.0
C1079 C 0.1102 0.19504 0.37315 0.0
O1080 O 0.1224 0.2062 0.36061 0.0
O1081 O 0.12299 0.21125 0.37045 0.0
O1082 O 0.11213 0.20044 0.37648 0.0
O1083 O 0.1107 0.19571 0.36657 0.0
H1084 H 0.12674 0.19637 0.37049 0.0
H1085 H 0.13665 0.19022 0.37447 0.0
H1086 H 0.14942 0.20665 0.36789 0.0
H1087 H 0.13941 0.21284 0.36405 0.0
H1088 H 0.1144 0.23373 0.35386 0.0
H1089 H 0.11441 0.22195 0.3577 0.0
H1090 H 0.09379 0.23587 0.36067 0.0
H1091 H 0.09385 0.22411 0.3645 0.0
H1092 H 0.08825 0.19578 0.38125 0.0
H1093 H 0.09858 0.17656 0.38125 0.0
H1094 H 0.10842 0.18188 0.376 0.0
H1095 H 0.09815 0.20106 0.37602 0.0
C1096 C 0.05196 0.88218 0.61742 0.0
C1097 C 0.05816 0.88142 0.62075 0.0
C1098 C 0.05915 0.89361 0.62191 0.0
C1099 C 0.06172 0.88708 0.62297 0.0
C1100 C 0.05299 0.89434 0.61843 0.0
C1101 C 0.04942 0.88866 0.61621 0.0
U1102 U 0.0502 0.86332 0.61768 0.0
O1103 O 0.0416 0.85683 0.62036 0.0
O1104 O 0.04618 0.85606 0.6103 0.0
C1105 C 0.04119 0.85423 0.61427 0.0
C1106 C 0.04799 0.87619 0.61562 0.0
C1107 C 0.03441 0.85441 0.61126 0.0
C1108 C 0.02542 0.86043 0.6055 0.0
C1109 C 0.03201 0.86023 0.60802 0.0
C1110 C 0.02358 0.84899 0.60942 0.0
C1111 C 0.02109 0.85483 0.60622 0.0
C1112 C 0.03018 0.84879 0.61191 0.0
C1113 C 0.06463 0.85354 0.62615 0.0
C1114 C 0.0638 0.84211 0.6305 0.0
C1115 C 0.07463 0.8478 0.63027 0.0
C1116 C 0.07159 0.85348 0.62741 0.0
C1117 C 0.07076 0.84209 0.63195 0.0
C1118 C 0.06077 0.84779 0.6276 0.0
C1119 C 0.06147 0.85977 0.62368 0.0
O1120 O 0.05074 0.87223 0.61106 0.0
O1121 O 0.04556 0.87288 0.62082 0.0
O1122 O 0.05603 0.86169 0.62696 0.0
O1123 O 0.06091 0.86036 0.61709 0.0
H1124 H 0.06017 0.87644 0.62177 0.0
H1125 H 0.06639 0.88632 0.62572 0.0
H1126 H 0.05091 0.8993 0.61746 0.0
H1127 H 0.04463 0.88932 0.61366 0.0
H1128 H 0.02371 0.86498 0.60299 0.0
H1129 H 0.03521 0.86464 0.60751 0.0
H1130 H 0.02038 0.84463 0.61017 0.0
H1131 H 0.03194 0.84428 0.61444 0.0
H1132 H 0.0607 0.83776 0.63166 0.0
H1133 H 0.07998 0.84797 0.63139 0.0
H1134 H 0.07464 0.85788 0.62633 0.0
H1135 H 0.05538 0.84774 0.62663 0.0
C1136 C 0.37476 0.80187 0.86779 0.0
C1137 C 0.37558 0.80771 0.8717 0.0
C1138 C 0.3634 0.80906 0.87247 0.0
C1139 C 0.36997 0.81126 0.87403 0.0
C1140 C 0.3626 0.80329 0.86838 0.0
C1141 C 0.36825 0.79972 0.86607 0.0
U1142 U 0.39359 0.79996 0.8679 0.0
O1143 O 0.40004 0.79132 0.87047 0.0
O1144 O 0.4008 0.79599 0.86045 0.0
C1145 C 0.40261 0.79094 0.86437 0.0
C1146 C 0.38069 0.79787 0.86587 0.0
C1147 C 0.4024 0.78419 0.8613 0.0
C1148 C 0.39646 0.77539 0.85517 0.0
C1149 C 0.3967 0.78196 0.85775 0.0
C1150 C 0.40762 0.77323 0.85968 0.0
C1151 C 0.4019 0.77092 0.85615 0.0
C1152 C 0.40786 0.77981 0.86222 0.0
C1153 C 0.40346 0.81427 0.87649 0.0
C1154 C 0.41489 0.8134 0.88081 0.0
C1155 C 0.40926 0.82425 0.88059 0.0
C1156 C 0.40356 0.82123 0.87775 0.0
C1157 C 0.41496 0.82035 0.88225 0.0
C1158 C 0.40919 0.81038 0.87793 0.0
C1159 C 0.39721 0.81115 0.87401 0.0
O1160 O 0.38465 0.80066 0.86132 0.0
O1161 O 0.38401 0.79532 0.871 0.0
O1162 O 0.39528 0.80568 0.87724 0.0
O1163 O 0.39659 0.81067 0.86742 0.0
H1164 H 0.38059 0.80942 0.8731 0.0
H1165 H 0.37078 0.81559 0.87726 0.0
H1166 H 0.35762 0.80151 0.86701 0.0
H1167 H 0.36753 0.79522 0.86304 0.0
H1168 H 0.39201 0.77381 0.85241 0.0
H1169 H 0.39241 0.78528 0.85702 0.0
H1170 H 0.41185 0.76991 0.86064 0.0
H1171 H 0.41228 0.78143 0.86501 0.0
H1172 H 0.41923 0.81028 0.88196 0.0
H1173 H 0.40912 0.8296 0.8817 0.0
H1174 H 0.39916 0.8243 0.87668 0.0
H1175 H 0.40921 0.805 0.87696 0.0
C1176 C 0.45474 0.1244 0.11841 0.0
C1177 C 0.44867 0.1255 0.12189 0.0
C1178 C 0.44701 0.11339 0.12307 0.0
C1179 C 0.44485 0.12005 0.1242 0.0
C1180 C 0.45304 0.11231 0.11944 0.0
C1181 C 0.45688 0.11778 0.11714 0.0
U1182 U 0.45692 0.14311 0.11845 0.0
O1183 O 0.46556 0.14957 0.12104 0.0
O1184 O 0.46088 0.15034 0.11101 0.0
C1185 C 0.46587 0.15222 0.11496 0.0
C1186 C 0.45893 0.13019 0.11648 0.0
C1187 C 0.47263 0.15233 0.11189 0.0
C1188 C 0.48155 0.1471 0.10528 0.0
C1189 C 0.47504 0.14689 0.10804 0.0
C1190 C 0.48328 0.15814 0.11024 0.0
C1191 C 0.48576 0.15273 0.10636 0.0
C1192 C 0.47678 0.15794 0.11296 0.0
C1193 C 0.4425 0.15295 0.1269 0.0
C1194 C 0.44324 0.16456 0.13076 0.0
C1195 C 0.43256 0.15861 0.1313 0.0
C1196 C 0.43562 0.1529 0.12851 0.0
C1197 C 0.43636 0.16447 0.13255 0.0
C1198 C 0.44629 0.15884 0.12795 0.0
C1199 C 0.44568 0.14671 0.12448 0.0
O1200 O 0.45629 0.13417 0.11187 0.0
O1201 O 0.46149 0.13352 0.12162 0.0
O1202 O 0.45114 0.14484 0.12775 0.0
O1203 O 0.44621 0.14606 0.1179 0.0
H1204 H 0.44696 0.13059 0.12295 0.0
H1205 H 0.44031 0.12109 0.12707 0.0
H1206 H 0.45481 0.10724 0.11842 0.0
H1207 H 0.46156 0.11686 0.11447 0.0
H1208 H 0.48326 0.14287 0.10227 0.0
H1209 H 0.47191 0.14249 0.10719 0.0
H1210 H 0.48641 0.1625 0.1113 0.0
H1211 H 0.47501 0.16216 0.11596 0.0
H1212 H 0.44628 0.16902 0.1316 0.0
H1213 H 0.42728 0.15835 0.13268 0.0
H1214 H 0.43263 0.14838 0.12775 0.0
H1215 H 0.45161 0.15897 0.1267 0.0
C1216 C 0.13261 0.80171 0.13973 0.0
C1217 C 0.13182 0.80793 0.13646 0.0
C1218 C 0.144 0.80895 0.13523 0.0
C1219 C 0.13746 0.81152 0.13423 0.0
C1220 C 0.14476 0.80276 0.13866 0.0
C1221 C 0.1391 0.79917 0.14088 0.0
U1222 U 0.11375 0.79995 0.13958 0.0
O1223 O 0.10723 0.79139 0.13688 0.0
O1224 O 0.10652 0.79591 0.14698 0.0
C1225 C 0.10466 0.79094 0.14298 0.0
C1226 C 0.12664 0.79772 0.14156 0.0
C1227 C 0.10481 0.78415 0.14595 0.0
C1228 C 0.11072 0.77517 0.15187 0.0
C1229 C 0.11054 0.78177 0.14937 0.0
C1230 C 0.09943 0.77326 0.14757 0.0
C1231 C 0.10518 0.77081 0.15095 0.0
C1232 C 0.09925 0.77987 0.1451 0.0
C1233 C 0.10396 0.81444 0.13124 0.0
C1234 C 0.09245 0.81362 0.12712 0.0
C1235 C 0.09826 0.82439 0.12695 0.0
C1236 C 0.10395 0.82136 0.1298 0.0
C1237 C 0.09248 0.82053 0.12547 0.0
C1238 C 0.09814 0.8106 0.13 0.0
C1239 C 0.1102 0.81126 0.13367 0.0
O1240 O 0.1227 0.80044 0.14616 0.0
O1241 O 0.12329 0.79532 0.13636 0.0
O1242 O 0.1121 0.80584 0.13035 0.0
O1243 O 0.11082 0.81067 0.14025 0.0
H1244 H 0.12683 0.80994 0.13549 0.0
H1245 H 0.13668 0.81621 0.13152 0.0
H1246 H 0.14973 0.80068 0.13958 0.0
H1247 H 0.13979 0.79436 0.14339 0.0
H1248 H 0.11519 0.77348 0.15451 0.0
H1249 H 0.1149 0.78501 0.15004 0.0
H1250 H 0.09512 0.77003 0.14666 0.0
H1251 H 0.09481 0.78161 0.14243 0.0
H1252 H 0.08805 0.81054 0.12612 0.0
H1253 H 0.09847 0.8297 0.12567 0.0
H1254 H 0.10841 0.82438 0.13071 0.0
H1255 H 0.09806 0.80525 0.13112 0.0
C1256 C 0.4549 0.88306 0.38917 0.0
C1257 C 0.44882 0.88176 0.38578 0.0
C1258 C 0.44741 0.89374 0.38354 0.0
C1259 C 0.44511 0.88705 0.38299 0.0
C1260 C 0.45337 0.89505 0.38717 0.0
C1261 C 0.45711 0.88973 0.38995 0.0
U1262 U 0.45717 0.86437 0.39001 0.0
O1263 O 0.46576 0.85786 0.38748 0.0
O1264 O 0.46142 0.85752 0.39768 0.0
C1265 C 0.46639 0.85561 0.3937 0.0
C1266 C 0.4591 0.87738 0.39138 0.0
C1267 C 0.4733 0.85573 0.39659 0.0
C1268 C 0.48549 0.85585 0.395 0.0
C1269 C 0.47897 0.85616 0.39234 0.0
C1270 C 0.48085 0.85468 0.40625 0.0
C1271 C 0.48652 0.85506 0.40198 0.0
C1272 C 0.47432 0.85499 0.40358 0.0
C1273 C 0.44277 0.85409 0.38201 0.0
C1274 C 0.44364 0.84243 0.37836 0.0
C1275 C 0.43295 0.84832 0.37752 0.0
C1276 C 0.43592 0.85409 0.38028 0.0
C1277 C 0.4368 0.84246 0.37642 0.0
C1278 C 0.4466 0.8482 0.38115 0.0
C1279 C 0.4459 0.86042 0.38426 0.0
O1280 O 0.45648 0.8736 0.39618 0.0
O1281 O 0.46166 0.87383 0.3864 0.0
O1282 O 0.45129 0.86227 0.38087 0.0
O1283 O 0.44651 0.86124 0.39082 0.0
H1284 H 0.44703 0.87663 0.38514 0.0
H1285 H 0.44049 0.8859 0.38029 0.0
H1286 H 0.45527 0.90015 0.38764 0.0
H1287 H 0.46181 0.8908 0.39252 0.0
H1288 H 0.48973 0.85603 0.39155 0.0
H1289 H 0.47839 0.85662 0.38692 0.0
H1290 H 0.48146 0.85413 0.41165 0.0
H1291 H 0.47006 0.85456 0.40699 0.0
H1292 H 0.44671 0.83797 0.37765 0.0
H1293 H 0.4277 0.84854 0.37601 0.0
H1294 H 0.4329 0.85861 0.3809 0.0
H1295 H 0.4519 0.84812 0.38248 0.0
C1296 C 0.37479 0.20563 0.6401 0.0
C1297 C 0.37549 0.19941 0.6368 0.0
C1298 C 0.36328 0.1984 0.63589 0.0
C1299 C 0.36979 0.19583 0.63472 0.0
C1300 C 0.36261 0.2046 0.63932 0.0
C1301 C 0.36833 0.20819 0.6414 0.0
U1302 U 0.39366 0.20718 0.63977 0.0
O1303 O 0.40029 0.21562 0.63697 0.0
O1304 O 0.40099 0.21117 0.6471 0.0
C1305 C 0.40289 0.21608 0.64305 0.0
C1306 C 0.38082 0.20957 0.64184 0.0
C1307 C 0.40285 0.22291 0.64595 0.0
C1308 C 0.39705 0.23209 0.65165 0.0
C1309 C 0.39716 0.22541 0.64936 0.0
C1310 C 0.40832 0.2338 0.64719 0.0
C1311 C 0.40259 0.23638 0.6505 0.0
C1312 C 0.40844 0.22711 0.64495 0.0
C1313 C 0.40311 0.19243 0.63135 0.0
C1314 C 0.41435 0.19283 0.62645 0.0
C1315 C 0.40852 0.18213 0.62752 0.0
C1316 C 0.40303 0.18542 0.63048 0.0
C1317 C 0.41419 0.18581 0.62534 0.0
C1318 C 0.40885 0.19612 0.62943 0.0
C1319 C 0.39699 0.1958 0.63386 0.0
O1320 O 0.38476 0.20684 0.64643 0.0
O1321 O 0.38415 0.21191 0.6366 0.0
O1322 O 0.39516 0.20124 0.63054 0.0
O1323 O 0.39646 0.19642 0.64044 0.0
H1324 H 0.38045 0.19739 0.63572 0.0
H1325 H 0.3705 0.19113 0.632 0.0
H1326 H 0.35767 0.20668 0.64038 0.0
H1327 H 0.36771 0.21299 0.64394 0.0
H1328 H 0.39255 0.23396 0.65413 0.0
H1329 H 0.39277 0.22224 0.65012 0.0
H1330 H 0.41268 0.23697 0.64629 0.0
H1331 H 0.41287 0.22526 0.64231 0.0
H1332 H 0.41861 0.19583 0.62479 0.0
H1333 H 0.40828 0.17671 0.62687 0.0
H1334 H 0.39865 0.18249 0.63195 0.0
H1335 H 0.409 0.20155 0.63007 0.0
C1336 C 0.05152 0.12413 0.89012 0.0
C1337 C 0.05714 0.12501 0.88591 0.0
C1338 C 0.0588 0.11285 0.88539 0.0
C1339 C 0.06073 0.11943 0.88355 0.0
C1340 C 0.05325 0.11201 0.88978 0.0
C1341 C 0.04963 0.11761 0.89211 0.0
U1342 U 0.04959 0.14294 0.89029 0.0
O1343 O 0.04098 0.14945 0.88774 0.0
O1344 O 0.04558 0.15006 0.89781 0.0
C1345 C 0.04058 0.15195 0.89387 0.0
C1346 C 0.04749 0.13001 0.89214 0.0
C1347 C 0.0338 0.15176 0.89688 0.0
C1348 C 0.0248 0.14575 0.90266 0.0
C1349 C 0.03141 0.14595 0.90016 0.0
C1350 C 0.02295 0.15715 0.89865 0.0
C1351 C 0.02046 0.15133 0.90188 0.0
C1352 C 0.02955 0.15736 0.89618 0.0
C1353 C 0.06395 0.15288 0.88186 0.0
C1354 C 0.06307 0.16443 0.87785 0.0
C1355 C 0.07384 0.15864 0.8775 0.0
C1356 C 0.07085 0.15292 0.88033 0.0
C1357 C 0.06997 0.16443 0.87612 0.0
C1358 C 0.06009 0.15871 0.88071 0.0
C1359 C 0.06081 0.14661 0.88426 0.0
O1360 O 0.05026 0.13391 0.89675 0.0
O1361 O 0.04494 0.13342 0.88705 0.0
O1362 O 0.05536 0.14473 0.881 0.0
O1363 O 0.0603 0.14593 0.89085 0.0
H1364 H 0.05865 0.13001 0.88431 0.0
H1365 H 0.06488 0.12028 0.8801 0.0
H1366 H 0.05168 0.10702 0.89137 0.0
H1367 H 0.04531 0.11686 0.89538 0.0
H1368 H 0.02309 0.14122 0.90519 0.0
H1369 H 0.03462 0.14156 0.90071 0.0
H1370 H 0.01973 0.1615 0.89784 0.0
H1371 H 0.03131 0.16186 0.89361 0.0
H1372 H 0.05997 0.16884 0.87693 0.0
H1373 H 0.07914 0.15845 0.87616 0.0
H1374 H 0.07389 0.14845 0.88117 0.0
H1375 H 0.05475 0.15877 0.8819 0.0
C1376 C 0.36756 0.132 0.20609 0.0
C1377 C 0.37157 0.13096 0.20035 0.0
C1378 C 0.37306 0.14306 0.19907 0.0
C1379 C 0.37431 0.13643 0.19688 0.0
C1380 C 0.36879 0.14411 0.20466 0.0
C1381 C 0.36609 0.1386 0.20818 0.0
U1382 U 0.3676 0.1133 0.20788 0.0
O1383 O 0.37014 0.10668 0.2164 0.0
O1384 O 0.36017 0.10592 0.21161 0.0
C1385 C 0.36407 0.10403 0.21665 0.0
C1386 C 0.3654 0.12615 0.21009 0.0
C1387 C 0.361 0.104 0.2234 0.0
C1388 C 0.3548 0.10961 0.23239 0.0
C1389 C 0.35717 0.10949 0.22573 0.0
C1390 C 0.36002 0.09873 0.23442 0.0
C1391 C 0.3563 0.10427 0.23683 0.0
C1392 C 0.36233 0.0986 0.22776 0.0
C1393 C 0.37705 0.10418 0.19345 0.0
C1394 C 0.37718 0.09218 0.1909 0.0
C1395 C 0.38566 0.09956 0.18607 0.0
C1396 C 0.38276 0.10506 0.18937 0.0
C1397 C 0.3829 0.09305 0.18676 0.0
C1398 C 0.37428 0.09771 0.19423 0.0
C1399 C 0.3742 0.11013 0.19683 0.0
O1400 O 0.36096 0.12219 0.20714 0.0
O1401 O 0.37041 0.1228 0.21285 0.0
O1402 O 0.37719 0.11192 0.20246 0.0
O1403 O 0.36757 0.11053 0.19712 0.0
H1404 H 0.37275 0.12589 0.19866 0.0
H1405 H 0.37751 0.13548 0.19255 0.0
H1406 H 0.36778 0.14917 0.20646 0.0
H1407 H 0.36301 0.13947 0.21261 0.0
H1408 H 0.352 0.11397 0.23413 0.0
H1409 H 0.35616 0.11375 0.22245 0.0
H1410 H 0.36119 0.09452 0.23771 0.0
H1411 H 0.3653 0.09433 0.22605 0.0
H1412 H 0.37489 0.08726 0.1915 0.0
H1413 H 0.39015 0.1004 0.18306 0.0
H1414 H 0.38499 0.11001 0.18875 0.0
H1415 H 0.36989 0.09694 0.19739 0.0
C1416 C 0.12489 0.11759 0.45584 0.0
C1417 C 0.12597 0.12198 0.45039 0.0
C1418 C 0.11387 0.12316 0.4488 0.0
C1419 C 0.12052 0.12476 0.44692 0.0
C1420 C 0.11279 0.11854 0.45409 0.0
C1421 C 0.11828 0.1158 0.45762 0.0
U1422 U 0.14362 0.11687 0.45756 0.0
O1423 O 0.15037 0.11919 0.46603 0.0
O1424 O 0.15064 0.10914 0.46136 0.0
C1425 C 0.15277 0.11302 0.46632 0.0
C1426 C 0.13069 0.11524 0.45981 0.0
C1427 C 0.15274 0.11001 0.4731 0.0
C1428 C 0.14684 0.1047 0.48245 0.0
C1429 C 0.14691 0.10699 0.47576 0.0
C1430 C 0.15843 0.10837 0.48382 0.0
C1431 C 0.15257 0.10548 0.48658 0.0
C1432 C 0.15851 0.11061 0.47713 0.0
C1433 C 0.15328 0.1256 0.4431 0.0
C1434 C 0.16452 0.13049 0.44361 0.0
C1435 C 0.15873 0.12958 0.43287 0.0
C1436 C 0.15323 0.12657 0.4361 0.0
C1437 C 0.16438 0.13171 0.4366 0.0
C1438 C 0.15901 0.12745 0.44683 0.0
C1439 C 0.14713 0.12311 0.44641 0.0
O1440 O 0.13444 0.11061 0.45688 0.0
O1441 O 0.13426 0.12014 0.46251 0.0
O1442 O 0.1454 0.12626 0.45199 0.0
O1443 O 0.14643 0.11652 0.44678 0.0
H1444 H 0.13105 0.12339 0.44892 0.0
H1445 H 0.1215 0.12823 0.44281 0.0
H1446 H 0.10771 0.11724 0.45565 0.0
H1447 H 0.11736 0.11241 0.46182 0.0
H1448 H 0.14224 0.10254 0.48447 0.0
H1449 H 0.14239 0.10655 0.47273 0.0
H1450 H 0.16293 0.10898 0.48686 0.0
H1451 H 0.16304 0.11295 0.47516 0.0
H1452 H 0.16878 0.1321 0.44664 0.0
H1453 H 0.15851 0.13032 0.42746 0.0
H1454 H 0.14885 0.12515 0.43314 0.0
H1455 H 0.15915 0.12673 0.45225 0.0
C1456 C 0.13931 0.87435 0.70535 0.0
C1457 C 0.13528 0.87548 0.69964 0.0
C1458 C 0.13371 0.86341 0.69823 0.0
C1459 C 0.13249 0.87006 0.69613 0.0
C1460 C 0.13798 0.86227 0.7038 0.0
C1461 C 0.14074 0.86772 0.70736 0.0
U1462 U 0.13988 0.89306 0.70715 0.0
O1463 O 0.13751 0.89975 0.71568 0.0
O1464 O 0.14751 0.90019 0.71091 0.0
C1465 C 0.14363 0.90228 0.71589 0.0
C1466 C 0.14159 0.88014 0.70937 0.0
C1467 C 0.14672 0.90249 0.72263 0.0
C1468 C 0.15313 0.89731 0.73172 0.0
C1469 C 0.15043 0.89702 0.72519 0.0
C1470 C 0.14838 0.90848 0.73318 0.0
C1471 C 0.15212 0.90304 0.73581 0.0
C1472 C 0.14573 0.9082 0.72666 0.0
C1473 C 0.13127 0.90286 0.69284 0.0
C1474 C 0.12754 0.9145 0.69368 0.0
C1475 C 0.12664 0.90854 0.68303 0.0
C1476 C 0.12947 0.90281 0.68601 0.0
C1477 C 0.12555 0.91442 0.68686 0.0
C1478 C 0.1304 0.90877 0.69664 0.0
C1479 C 0.13368 0.8966 0.69599 0.0
O1480 O 0.14622 0.88394 0.70649 0.0
O1481 O 0.13665 0.88366 0.71205 0.0
O1482 O 0.1305 0.89482 0.70154 0.0
O1483 O 0.14026 0.89587 0.69639 0.0
H1484 H 0.13415 0.88058 0.698 0.0
H1485 H 0.12929 0.87108 0.69181 0.0
H1486 H 0.13897 0.85718 0.70554 0.0
H1487 H 0.14383 0.86677 0.71177 0.0
H1488 H 0.15604 0.89305 0.73354 0.0
H1489 H 0.15122 0.89254 0.72215 0.0
H1490 H 0.14737 0.91291 0.73621 0.0
H1491 H 0.14282 0.91244 0.72478 0.0
H1492 H 0.12684 0.91898 0.69673 0.0
H1493 H 0.12509 0.90828 0.67779 0.0
H1494 H 0.13009 0.89827 0.68301 0.0
H1495 H 0.1318 0.9089 0.70193 0.0
C1496 C 0.38297 0.8875 0.95728 0.0
C1497 C 0.38415 0.88051 0.95704 0.0
C1498 C 0.39432 0.88226 0.95039 0.0
C1499 C 0.38975 0.87793 0.95364 0.0
C1500 C 0.39323 0.88927 0.95072 0.0
C1501 C 0.38762 0.89187 0.95416 0.0
U1502 U 0.364 0.88928 0.95734 0.0
O1503 O 0.35653 0.88768 0.96538 0.0
O1504 O 0.35717 0.89752 0.96031 0.0
C1505 C 0.3545 0.894 0.96527 0.0
C1506 C 0.37679 0.89022 0.9605 0.0
C1507 C 0.35423 0.89729 0.97192 0.0
C1508 C 0.35952 0.90359 0.98103 0.0
C1509 C 0.35979 0.90083 0.97452 0.0
C1510 C 0.34816 0.89928 0.98238 0.0
C1511 C 0.35372 0.9028 0.98506 0.0
C1512 C 0.34842 0.89657 0.97587 0.0
C1513 C 0.35474 0.88061 0.94264 0.0
C1514 C 0.34321 0.87646 0.94274 0.0
C1515 C 0.34946 0.87687 0.93223 0.0
C1516 C 0.35502 0.87955 0.93565 0.0
C1517 C 0.34353 0.87516 0.93576 0.0
C1518 C 0.34876 0.87918 0.94615 0.0
C1519 C 0.36087 0.88282 0.9462 0.0
O1520 O 0.37358 0.89495 0.95712 0.0
O1521 O 0.37271 0.88572 0.96316 0.0
O1522 O 0.36207 0.87979 0.95198 0.0
O1523 O 0.36198 0.88935 0.94638 0.0
H1524 H 0.38068 0.87697 0.95936 0.0
H1525 H 0.39039 0.8725 0.95341 0.0
H1526 H 0.3967 0.89273 0.9483 0.0
H1527 H 0.38686 0.89728 0.95429 0.0
H1528 H 0.36387 0.90633 0.98289 0.0
H1529 H 0.36435 0.90139 0.97155 0.0
H1530 H 0.34366 0.89844 0.98536 0.0
H1531 H 0.34411 0.89379 0.97397 0.0
H1532 H 0.33875 0.87516 0.94563 0.0
H1533 H 0.34985 0.87605 0.92684 0.0
H1534 H 0.35959 0.88066 0.93286 0.0
H1535 H 0.34845 0.87998 0.95155 0.0
C1536 C 0.36804 0.8745 0.30174 0.0
C1537 C 0.37145 0.87527 0.3079 0.0
C1538 C 0.37247 0.86308 0.30899 0.0
C1539 C 0.37365 0.86962 0.31149 0.0
C1540 C 0.36894 0.86233 0.30286 0.0
C1541 C 0.36675 0.86801 0.29926 0.0
U1542 U 0.36794 0.89335 0.3003 0.0
O1543 O 0.37039 0.90015 0.2919 0.0
O1544 O 0.36033 0.90055 0.29655 0.0
C1545 C 0.36424 0.90264 0.29161 0.0
C1546 C 0.36613 0.88049 0.29783 0.0
C1547 C 0.36116 0.9028 0.28486 0.0
C1548 C 0.35906 0.8977 0.27389 0.0
C1549 C 0.36167 0.89728 0.28045 0.0
C1550 C 0.35522 0.90908 0.27618 0.0
C1551 C 0.35588 0.90365 0.27165 0.0
C1552 C 0.35785 0.90866 0.28271 0.0
C1553 C 0.37622 0.90291 0.31503 0.0
C1554 C 0.38087 0.91425 0.31463 0.0
C1555 C 0.37968 0.90851 0.32537 0.0
C1556 C 0.37694 0.90292 0.32207 0.0
C1557 C 0.3818 0.9142 0.32168 0.0
C1558 C 0.37809 0.90865 0.31134 0.0
C1559 C 0.37388 0.89673 0.31165 0.0
O1560 O 0.36148 0.88432 0.30063 0.0
O1561 O 0.37126 0.88395 0.29544 0.0
O1562 O 0.37719 0.89505 0.30615 0.0
O1563 O 0.36732 0.89599 0.3111 0.0
H1564 H 0.37252 0.88026 0.30987 0.0
H1565 H 0.37644 0.8704 0.31612 0.0
H1566 H 0.36789 0.85737 0.30083 0.0
H1567 H 0.36413 0.86733 0.29451 0.0
H1568 H 0.35971 0.89344 0.27053 0.0
H1569 H 0.36419 0.89269 0.28203 0.0
H1570 H 0.35269 0.91369 0.27467 0.0
H1571 H 0.35737 0.91296 0.28607 0.0
H1572 H 0.3825 0.91851 0.31162 0.0
H1573 H 0.38021 0.90835 0.33081 0.0
H1574 H 0.37549 0.89853 0.325 0.0
H1575 H 0.37756 0.90875 0.30589 0.0
C1576 C 0.38245 0.11617 0.55165 0.0
C1577 C 0.38152 0.1196 0.55777 0.0
C1578 C 0.39365 0.12113 0.55889 0.0
C1579 C 0.38705 0.12206 0.56135 0.0
C1580 C 0.39457 0.11753 0.55282 0.0
C1581 C 0.389 0.11508 0.54922 0.0
U1582 U 0.36374 0.11686 0.54968 0.0
O1583 O 0.35732 0.11948 0.54103 0.0
O1584 O 0.35618 0.10961 0.54595 0.0
C1585 C 0.3545 0.11348 0.54082 0.0
C1586 C 0.37653 0.11425 0.54762 0.0
C1587 C 0.3546 0.11026 0.53414 0.0
C1588 C 0.36059 0.1044 0.52518 0.0
C1589 C 0.3604 0.10698 0.53175 0.0
C1590 C 0.34915 0.10831 0.52334 0.0
C1591 C 0.35499 0.10512 0.52085 0.0
C1592 C 0.34896 0.11085 0.52992 0.0
C1593 C 0.35476 0.12668 0.56395 0.0
C1594 C 0.34266 0.12797 0.56551 0.0
C1595 C 0.35043 0.13523 0.57157 0.0
C1596 C 0.35587 0.13192 0.56856 0.0
C1597 C 0.34377 0.13334 0.57003 0.0
C1598 C 0.34813 0.12468 0.56245 0.0
C1599 C 0.36064 0.12359 0.56067 0.0
O1600 O 0.3724 0.10995 0.55052 0.0
O1601 O 0.37339 0.11939 0.54485 0.0
O1602 O 0.36259 0.1265 0.55504 0.0
O1603 O 0.3608 0.11696 0.5604 0.0
H1604 H 0.37648 0.12055 0.55968 0.0
H1605 H 0.38613 0.1249 0.56593 0.0
H1606 H 0.39958 0.11667 0.55082 0.0
H1607 H 0.38979 0.11247 0.54448 0.0
H1608 H 0.36514 0.1019 0.52347 0.0
H1609 H 0.36482 0.10651 0.53494 0.0
H1610 H 0.34478 0.10905 0.52013 0.0
H1611 H 0.34446 0.11342 0.53166 0.0
H1612 H 0.33757 0.12644 0.56421 0.0
H1613 H 0.35144 0.13927 0.5751 0.0
H1614 H 0.36096 0.13351 0.56978 0.0
H1615 H 0.34719 0.12066 0.55887 0.0
C1616 C 0.13982 0.13258 0.80221 0.0
C1617 C 0.13553 0.13177 0.80779 0.0
C1618 C 0.1351 0.14395 0.80938 0.0
C1619 C 0.13318 0.13739 0.81132 0.0
C1620 C 0.13954 0.14472 0.80387 0.0
C1621 C 0.14187 0.13907 0.8003 0.0
U1622 U 0.14009 0.11377 0.80082 0.0
O1623 O 0.13754 0.10693 0.79249 0.0
O1624 O 0.14764 0.10656 0.79702 0.0
C1625 C 0.14367 0.10443 0.79215 0.0
C1626 C 0.14189 0.12663 0.79831 0.0
C1627 C 0.1466 0.10432 0.78534 0.0
C1628 C 0.15153 0.11011 0.7757 0.0
C1629 C 0.14928 0.11019 0.78241 0.0
C1630 C 0.14851 0.09828 0.77485 0.0
C1631 C 0.15105 0.10418 0.77182 0.0
C1632 C 0.14632 0.09836 0.78155 0.0
C1633 C 0.1316 0.10436 0.81553 0.0
C1634 C 0.12701 0.093 0.81509 0.0
C1635 C 0.12762 0.09894 0.82577 0.0
C1636 C 0.13052 0.10448 0.82252 0.0
C1637 C 0.12571 0.09318 0.82208 0.0
C1638 C 0.12995 0.09855 0.81184 0.0
C1639 C 0.13405 0.1105 0.81216 0.0
O1640 O 0.14652 0.12284 0.80118 0.0
O1641 O 0.13684 0.12312 0.79583 0.0
O1642 O 0.1308 0.11221 0.80664 0.0
O1643 O 0.14063 0.11114 0.81163 0.0
H1644 H 0.13389 0.12679 0.80933 0.0
H1645 H 0.12968 0.13659 0.81544 0.0
H1646 H 0.14119 0.14969 0.80229 0.0
H1647 H 0.14519 0.13978 0.79601 0.0
H1648 H 0.1534 0.11474 0.77348 0.0
H1649 H 0.14949 0.11485 0.78525 0.0
H1650 H 0.14815 0.09362 0.77201 0.0
H1651 H 0.14425 0.09379 0.78374 0.0
H1652 H 0.12555 0.08868 0.81208 0.0
H1653 H 0.12681 0.0992 0.83117 0.0
H1654 H 0.1318 0.10893 0.82544 0.0
H1655 H 0.13075 0.09837 0.80643 0.0
C1656 C 0.1246 0.88932 0.05188 0.0
C1657 C 0.12584 0.88591 0.05796 0.0
C1658 C 0.11388 0.88354 0.0592 0.0
C1659 C 0.12054 0.88304 0.06158 0.0
C1660 C 0.1126 0.88719 0.05324 0.0
C1661 C 0.11795 0.89004 0.04958 0.0
U1662 U 0.1433 0.89033 0.04988 0.0
O1663 O 0.14997 0.88803 0.04134 0.0
O1664 O 0.15006 0.89818 0.0458 0.0
C1665 C 0.15213 0.89429 0.04083 0.0
C1666 C 0.13031 0.89163 0.04778 0.0
C1667 C 0.15166 0.8972 0.03402 0.0
C1668 C 0.1454 0.89908 0.02365 0.0
C1669 C 0.14565 0.89674 0.0303 0.0
C1670 C 0.15708 0.90262 0.02445 0.0
C1671 C 0.15113 0.90198 0.02062 0.0
C1672 C 0.15734 0.90023 0.0311 0.0
C1673 C 0.15329 0.88212 0.06446 0.0
C1674 C 0.16459 0.87738 0.064 0.0
C1675 C 0.15875 0.87824 0.07472 0.0
C1676 C 0.15323 0.88117 0.07147 0.0
C1677 C 0.16444 0.87616 0.071 0.0
C1678 C 0.15906 0.88034 0.06075 0.0
C1679 C 0.14709 0.88444 0.06112 0.0
O1680 O 0.13401 0.89641 0.05052 0.0
O1681 O 0.13393 0.88671 0.04519 0.0
O1682 O 0.14538 0.88112 0.05564 0.0
O1683 O 0.14627 0.891 0.06059 0.0
H1684 H 0.13096 0.88531 0.05981 0.0
H1685 H 0.12165 0.88033 0.0662 0.0
H1686 H 0.10752 0.88762 0.05128 0.0
H1687 H 0.11691 0.89264 0.04488 0.0
H1688 H 0.14072 0.89859 0.02085 0.0
H1689 H 0.14119 0.89445 0.0325 0.0
H1690 H 0.16159 0.90478 0.02225 0.0
H1691 H 0.16201 0.90063 0.0339 0.0
H1692 H 0.16887 0.8758 0.06098 0.0
H1693 H 0.15852 0.87749 0.08013 0.0
H1694 H 0.14882 0.88254 0.07441 0.0
H1695 H 0.15919 0.88103 0.05533 0.0
C1696 C 0.20483 0.36728 0.13278 0.0
C1697 C 0.19899 0.37106 0.13151 0.0
C1698 C 0.19754 0.37306 0.14353 0.0
C1699 C 0.19538 0.37394 0.13683 0.0
C1700 C 0.20325 0.36904 0.14481 0.0
C1701 C 0.2069 0.36619 0.13946 0.0
U1702 U 0.20725 0.36655 0.11408 0.0
O1703 O 0.21599 0.36882 0.10767 0.0
O1704 O 0.21134 0.35876 0.10725 0.0
C1705 C 0.21641 0.36261 0.10536 0.0
C1706 C 0.20898 0.36495 0.1271 0.0
C1707 C 0.22316 0.35954 0.1057 0.0
C1708 C 0.2339 0.35797 0.11139 0.0
C1709 C 0.2273 0.36046 0.11137 0.0
C1710 C 0.2322 0.35337 0.10019 0.0
C1711 C 0.23647 0.35446 0.10576 0.0
C1712 C 0.22561 0.35591 0.10016 0.0
C1713 C 0.19335 0.37528 0.10363 0.0
C1714 C 0.19411 0.38211 0.09346 0.0
C1715 C 0.18332 0.37749 0.09691 0.0
C1716 C 0.18641 0.37444 0.10248 0.0
C1717 C 0.18711 0.38149 0.09245 0.0
C1718 C 0.19721 0.379 0.09899 0.0
C1719 C 0.1963 0.37277 0.10999 0.0
O1720 O 0.20618 0.36032 0.12324 0.0
O1721 O 0.21178 0.36986 0.12363 0.0
O1722 O 0.20173 0.37592 0.11211 0.0
O1723 O 0.19662 0.36618 0.11073 0.0
H1724 H 0.19733 0.37195 0.12637 0.0
H1725 H 0.19096 0.37694 0.13569 0.0
H1726 H 0.20504 0.36832 0.14993 0.0
H1727 H 0.21141 0.3633 0.14053 0.0
H1728 H 0.23706 0.35897 0.11574 0.0
H1729 H 0.22549 0.36325 0.11572 0.0
H1730 H 0.23395 0.35059 0.09582 0.0
H1731 H 0.22247 0.35512 0.09575 0.0
H1732 H 0.19716 0.3851 0.09005 0.0
H1733 H 0.17791 0.37696 0.09627 0.0
H1734 H 0.18334 0.37161 0.10601 0.0
H1735 H 0.20258 0.37969 0.09973 0.0
C1736 C 0.70512 0.13827 0.87427 0.0
C1737 C 0.69927 0.13447 0.87547 0.0
C1738 C 0.69768 0.13294 0.8634 0.0
C1739 C 0.69559 0.13182 0.87009 0.0
C1740 C 0.70341 0.13697 0.8622 0.0
C1741 C 0.70712 0.1396 0.86762 0.0
U1742 U 0.70736 0.13928 0.89303 0.0
O1743 O 0.71594 0.13674 0.89955 0.0
O1744 O 0.7118 0.14701 0.89971 0.0
C1745 C 0.71673 0.14299 0.90163 0.0
C1746 C 0.70929 0.14047 0.87999 0.0
C1747 C 0.72368 0.14575 0.90125 0.0
C1748 C 0.7358 0.14399 0.90015 0.0
C1749 C 0.72923 0.14143 0.90024 0.0
C1750 C 0.73147 0.15524 0.90211 0.0
C1751 C 0.73701 0.15092 0.90109 0.0
C1752 C 0.72488 0.15267 0.90222 0.0
C1753 C 0.69288 0.13157 0.90348 0.0
C1754 C 0.69368 0.12751 0.91503 0.0
C1755 C 0.68286 0.12766 0.90933 0.0
C1756 C 0.68592 0.13036 0.90359 0.0
C1757 C 0.68672 0.12609 0.91508 0.0
C1758 C 0.69674 0.13025 0.90927 0.0
C1759 C 0.69605 0.13372 0.89713 0.0
O1760 O 0.70669 0.14532 0.88371 0.0
O1761 O 0.71177 0.13549 0.8836 0.0
O1762 O 0.70139 0.13024 0.89528 0.0
O1763 O 0.69674 0.14026 0.89623 0.0
H1764 H 0.69764 0.13342 0.88059 0.0
H1765 H 0.69115 0.12881 0.87115 0.0
H1766 H 0.70516 0.13788 0.8571 0.0
H1767 H 0.71164 0.14251 0.86662 0.0
H1768 H 0.73994 0.14048 0.8995 0.0
H1769 H 0.72853 0.13605 0.89959 0.0
H1770 H 0.7322 0.16061 0.90279 0.0
H1771 H 0.72073 0.15612 0.90309 0.0
H1772 H 0.69678 0.12644 0.9194 0.0
H1773 H 0.67751 0.12655 0.90917 0.0
H1774 H 0.68287 0.13132 0.89914 0.0
H1775 H 0.70213 0.13117 0.90928 0.0
C1776 C 0.11706 0.45536 0.12525 0.0
C1777 C 0.12095 0.4495 0.12601 0.0
C1778 C 0.12175 0.44831 0.11381 0.0
C1779 C 0.12329 0.44602 0.12036 0.0
C1780 C 0.11767 0.45409 0.11308 0.0
C1781 C 0.11536 0.4576 0.11877 0.0
U1782 U 0.11707 0.45678 0.14409 0.0
O1783 O 0.11988 0.46514 0.15082 0.0
O1784 O 0.1097 0.46078 0.15139 0.0
C1785 C 0.11377 0.46564 0.15336 0.0
C1786 C 0.11515 0.45928 0.13124 0.0
C1787 C 0.11095 0.4725 0.15331 0.0
C1788 C 0.10528 0.4817 0.14751 0.0
C1789 C 0.10749 0.47499 0.14766 0.0
C1790 C 0.10994 0.48346 0.15869 0.0
C1791 C 0.10657 0.48603 0.15299 0.0
C1792 C 0.1121 0.47675 0.15885 0.0
C1793 C 0.12538 0.44196 0.15348 0.0
C1794 C 0.13021 0.44234 0.16475 0.0
C1795 C 0.12913 0.43164 0.15891 0.0
C1796 C 0.12623 0.43494 0.1534 0.0
C1797 C 0.13128 0.43531 0.16461 0.0
C1798 C 0.12728 0.44563 0.15924 0.0
C1799 C 0.12293 0.44536 0.14737 0.0
O1800 O 0.11052 0.45649 0.13511 0.0
O1801 O 0.1203 0.46165 0.13467 0.0
O1802 O 0.12627 0.45081 0.14559 0.0
O1803 O 0.11635 0.44601 0.14681 0.0
H1804 H 0.12234 0.44772 0.131 0.0
H1805 H 0.12651 0.44168 0.12113 0.0
H1806 H 0.11632 0.45594 0.10812 0.0
H1807 H 0.11235 0.46211 0.1181 0.0
H1808 H 0.10276 0.48356 0.14303 0.0
H1809 H 0.10662 0.47179 0.1433 0.0
H1810 H 0.11095 0.48666 0.16301 0.0
H1811 H 0.11478 0.4749 0.16324 0.0
H1812 H 0.13185 0.44533 0.16902 0.0
H1813 H 0.12977 0.42622 0.15868 0.0
H1814 H 0.12477 0.43203 0.149 0.0
H1815 H 0.12666 0.45106 0.15939 0.0
C1816 C 0.80208 0.86801 0.37503 0.0
C1817 C 0.80786 0.87195 0.37613 0.0
C1818 C 0.80929 0.87339 0.36402 0.0
C1819 C 0.81142 0.87463 0.37068 0.0
C1820 C 0.80364 0.86923 0.36293 0.0
C1821 C 0.80004 0.86658 0.36841 0.0
U1822 U 0.8001 0.86743 0.3938 0.0
O1823 O 0.79148 0.86975 0.40038 0.0
O1824 O 0.7962 0.85973 0.40078 0.0
C1825 C 0.79116 0.86357 0.40277 0.0
C1826 C 0.79803 0.86579 0.38083 0.0
C1827 C 0.78441 0.8605 0.40257 0.0
C1828 C 0.77538 0.85488 0.39646 0.0
C1829 C 0.78198 0.8574 0.39668 0.0
C1830 C 0.77362 0.85852 0.40801 0.0
C1831 C 0.77109 0.85547 0.40211 0.0
C1832 C 0.78022 0.86099 0.40823 0.0
C1833 C 0.81442 0.87594 0.4038 0.0
C1834 C 0.81367 0.88029 0.41524 0.0
C1835 C 0.8245 0.87981 0.40957 0.0
C1836 C 0.8214 0.87704 0.40388 0.0
C1837 C 0.82066 0.88157 0.41528 0.0
C1838 C 0.81058 0.87747 0.40955 0.0
C1839 C 0.81123 0.87357 0.39753 0.0
O1840 O 0.80085 0.86115 0.38464 0.0
O1841 O 0.79538 0.87076 0.38433 0.0
O1842 O 0.80572 0.87678 0.39573 0.0
O1843 O 0.81082 0.86699 0.39675 0.0
H1844 H 0.80952 0.87309 0.38122 0.0
H1845 H 0.81581 0.87774 0.37167 0.0
H1846 H 0.80187 0.86823 0.35785 0.0
H1847 H 0.79558 0.86356 0.36749 0.0
H1848 H 0.77364 0.8525 0.39186 0.0
H1849 H 0.78515 0.857 0.39224 0.0
H1850 H 0.77044 0.85917 0.41241 0.0
H1851 H 0.782 0.86343 0.4128 0.0
H1852 H 0.8106 0.88151 0.41959 0.0
H1853 H 0.82988 0.8808 0.4094 0.0
H1854 H 0.82444 0.8759 0.39947 0.0
H1855 H 0.80517 0.87663 0.40959 0.0
C1856 C 0.89048 0.05202 0.12493 0.0
C1857 C 0.88617 0.05756 0.12582 0.0
C1858 C 0.88579 0.05936 0.11367 0.0
C1859 C 0.88383 0.06118 0.12026 0.0
C1860 C 0.89029 0.05392 0.11282 0.0
C1861 C 0.8926 0.05026 0.11842 0.0
U1862 U 0.89016 0.04972 0.1437 0.0
O1863 O 0.88738 0.04101 0.14997 0.0
O1864 O 0.89746 0.04552 0.15095 0.0
C1865 C 0.89341 0.04055 0.15268 0.0
C1866 C 0.89241 0.0479 0.13079 0.0
C1867 C 0.89634 0.03373 0.1526 0.0
C1868 C 0.90217 0.02461 0.14682 0.0
C1869 C 0.89985 0.03129 0.14694 0.0
C1870 C 0.89752 0.02281 0.158 0.0
C1871 C 0.90093 0.02028 0.15231 0.0
C1872 C 0.89525 0.02948 0.15814 0.0
C1873 C 0.88123 0.06375 0.15375 0.0
C1874 C 0.87405 0.06308 0.16369 0.0
C1875 C 0.87921 0.07373 0.16061 0.0
C1876 C 0.8823 0.07063 0.15507 0.0
C1877 C 0.87493 0.07001 0.16488 0.0
C1878 C 0.87719 0.05996 0.15819 0.0
C1879 C 0.88394 0.06079 0.14749 0.0
O1880 O 0.89687 0.05065 0.13486 0.0
O1881 O 0.88727 0.04521 0.134 0.0
O1882 O 0.8808 0.05541 0.1452 0.0
O1883 O 0.89055 0.06035 0.14703 0.0
H1884 H 0.88447 0.05897 0.13083 0.0
H1885 H 0.88028 0.06525 0.12112 0.0
H1886 H 0.89197 0.05244 0.10784 0.0
H1887 H 0.89594 0.046 0.11765 0.0
H1888 H 0.90474 0.02278 0.14235 0.0
H1889 H 0.90067 0.0345 0.14259 0.0
H1890 H 0.89656 0.0196 0.16233 0.0
H1891 H 0.89254 0.03128 0.16253 0.0
H1892 H 0.87085 0.06008 0.16695 0.0
H1893 H 0.87994 0.07909 0.16139 0.0
H1894 H 0.88538 0.07364 0.1517 0.0
H1895 H 0.87633 0.05463 0.15733 0.0
C1896 C 0.30122 0.63934 0.63202 0.0
C1897 C 0.30666 0.6349 0.63114 0.0
C1898 C 0.30862 0.63471 0.64326 0.0
C1899 C 0.3103 0.63259 0.6367 0.0
C1900 C 0.30324 0.63929 0.64411 0.0
C1901 C 0.29956 0.64157 0.63852 0.0
U1902 U 0.29948 0.63977 0.61322 0.0
O1903 O 0.29102 0.63732 0.60651 0.0
O1904 O 0.29549 0.64745 0.60623 0.0
C1905 C 0.29052 0.64353 0.60423 0.0
C1906 C 0.29722 0.64142 0.62615 0.0
C1907 C 0.28372 0.64646 0.60466 0.0
C1908 C 0.27341 0.64856 0.61096 0.0
C1909 C 0.28005 0.64619 0.61071 0.0
C1910 C 0.27413 0.65175 0.59916 0.0
C1911 C 0.27035 0.65129 0.60516 0.0
C1912 C 0.28076 0.64933 0.59891 0.0
C1913 C 0.31417 0.63143 0.60352 0.0
C1914 C 0.3138 0.62649 0.5923 0.0
C1915 C 0.3245 0.62772 0.59808 0.0
C1916 C 0.32119 0.63065 0.60358 0.0
C1917 C 0.32083 0.62548 0.59243 0.0
C1918 C 0.31049 0.62945 0.5978 0.0
C1919 C 0.31078 0.63383 0.60966 0.0
O1920 O 0.30001 0.6461 0.62235 0.0
O1921 O 0.2947 0.63639 0.62264 0.0
O1922 O 0.30529 0.63053 0.6114 0.0
O1923 O 0.31022 0.64041 0.61036 0.0
H1924 H 0.30801 0.63312 0.62614 0.0
H1925 H 0.31432 0.62898 0.63585 0.0
H1926 H 0.30186 0.64109 0.64908 0.0
H1927 H 0.29538 0.64502 0.63928 0.0
H1928 H 0.27066 0.64823 0.61567 0.0
H1929 H 0.28228 0.64404 0.61522 0.0
H1930 H 0.27189 0.65378 0.59461 0.0
H1931 H 0.28353 0.64958 0.5942 0.0
H1932 H 0.31081 0.62478 0.58805 0.0
H1933 H 0.32993 0.62713 0.5983 0.0
H1934 H 0.32411 0.63217 0.60795 0.0
H1935 H 0.30505 0.63001 0.59766 0.0
C1936 C 0.11704 0.55177 0.38239 0.0
C1937 C 0.12121 0.55742 0.38147 0.0
C1938 C 0.12179 0.55908 0.39364 0.0
C1939 C 0.12357 0.56103 0.38704 0.0
C1940 C 0.11743 0.55353 0.39451 0.0
C1941 C 0.11509 0.54989 0.38892 0.0
U1942 U 0.1171 0.54923 0.36356 0.0
O1943 O 0.1196 0.54038 0.3574 0.0
O1944 O 0.10953 0.54493 0.35663 0.0
C1945 C 0.11345 0.53984 0.35498 0.0
C1946 C 0.11508 0.54765 0.37655 0.0
C1947 C 0.11042 0.53309 0.35558 0.0
C1948 C 0.10845 0.52281 0.36197 0.0
C1949 C 0.11092 0.52941 0.36161 0.0
C1950 C 0.10471 0.52359 0.35035 0.0
C1951 C 0.10539 0.5198 0.35631 0.0
C1952 C 0.10722 0.53018 0.34998 0.0
C1953 C 0.12587 0.56306 0.35303 0.0
C1954 C 0.13291 0.5623 0.343 0.0
C1955 C 0.12773 0.57296 0.34602 0.0
C1956 C 0.12474 0.5699 0.35164 0.0
C1957 C 0.13197 0.56922 0.34173 0.0
C1958 C 0.12986 0.55924 0.34858 0.0
C1959 C 0.12329 0.56017 0.3594 0.0
O1960 O 0.11058 0.55037 0.37251 0.0
O1961 O 0.12019 0.54493 0.3733 0.0
O1962 O 0.12646 0.55481 0.36168 0.0
O1963 O 0.11669 0.55979 0.36003 0.0
H1964 H 0.12278 0.55892 0.37645 0.0
H1965 H 0.127 0.5652 0.38617 0.0
H1966 H 0.11588 0.55195 0.39951 0.0
H1967 H 0.11186 0.54555 0.3897 0.0
H1968 H 0.10897 0.52005 0.36666 0.0
H1969 H 0.11332 0.5316 0.36601 0.0
H1970 H 0.10242 0.52139 0.34589 0.0
H1971 H 0.10679 0.53295 0.34528 0.0
H1972 H 0.13608 0.55928 0.33972 0.0
H1973 H 0.12695 0.5783 0.3452 0.0
H1974 H 0.12169 0.57294 0.35502 0.0
H1975 H 0.13078 0.55393 0.3495 0.0
C1976 C 0.3878 0.45471 0.88234 0.0
C1977 C 0.38283 0.44984 0.88104 0.0
C1978 C 0.38279 0.44654 0.89287 0.0
C1979 C 0.38032 0.44583 0.88625 0.0
C1980 C 0.38784 0.45138 0.89414 0.0
C1981 C 0.39033 0.45544 0.88891 0.0
U1982 U 0.38945 0.45705 0.86372 0.0
O1983 O 0.38746 0.46566 0.85706 0.0
O1984 O 0.39758 0.46113 0.8573 0.0
C1985 C 0.3938 0.46615 0.85515 0.0
C1986 C 0.39033 0.45892 0.87678 0.0
C1987 C 0.39673 0.47293 0.85581 0.0
C1988 C 0.3982 0.48331 0.86217 0.0
C1989 C 0.39591 0.47665 0.86178 0.0
C1990 C 0.40244 0.48251 0.85071 0.0
C1991 C 0.4014 0.48634 0.8566 0.0
C1992 C 0.4001 0.47586 0.85031 0.0
C1993 C 0.38145 0.44261 0.8533 0.0
C1994 C 0.37644 0.44311 0.84211 0.0
C1995 C 0.37819 0.4323 0.84756 0.0
C1996 C 0.38101 0.43556 0.85313 0.0
C1997 C 0.37571 0.43604 0.84205 0.0
C1998 C 0.37929 0.44637 0.84769 0.0
C1999 C 0.3836 0.4459 0.85959 0.0
O2000 O 0.39522 0.45621 0.8732 0.0
O2001 O 0.38558 0.46165 0.87304 0.0
O2002 O 0.38027 0.45139 0.86127 0.0
O2003 O 0.39014 0.44636 0.86064 0.0
H2004 H 0.38084 0.44918 0.87599 0.0
H2005 H 0.37635 0.44226 0.88509 0.0
H2006 H 0.3899 0.45201 0.89917 0.0
H2007 H 0.39421 0.45914 0.88998 0.0
H2008 H 0.39741 0.48611 0.8668 0.0
H2009 H 0.39336 0.47445 0.8661 0.0
H2010 H 0.40485 0.48473 0.84633 0.0
H2011 H 0.40077 0.47306 0.84567 0.0
H2012 H 0.37455 0.44615 0.83798 0.0
H2013 H 0.37783 0.42684 0.84762 0.0
H2014 H 0.38267 0.43258 0.85741 0.0
H2015 H 0.3796 0.45183 0.84772 0.0
C2016 C 0.8712 0.80392 0.64043 0.0
C2017 C 0.87133 0.81032 0.63742 0.0
C2018 C 0.85917 0.80985 0.63569 0.0
C2019 C 0.86537 0.81327 0.63508 0.0
C2020 C 0.85905 0.80349 0.63885 0.0
C2021 C 0.86503 0.80055 0.6412 0.0
U2022 U 0.89027 0.80329 0.64 0.0
O2023 O 0.89775 0.8 0.64751 0.0
O2024 O 0.89714 0.79492 0.63767 0.0
C2025 C 0.89991 0.79501 0.6437 0.0
C2026 C 0.87752 0.80054 0.64231 0.0
C2027 C 0.90055 0.7884 0.64696 0.0
C2028 C 0.89602 0.77921 0.6537 0.0
C2029 C 0.89534 0.78567 0.65091 0.0
C2030 C 0.90708 0.77818 0.64858 0.0
C2031 C 0.90189 0.77537 0.65253 0.0
C2032 C 0.90642 0.78463 0.64584 0.0
C2033 C 0.90011 0.81682 0.63089 0.0
C2034 C 0.91191 0.815 0.62806 0.0
C2035 C 0.90662 0.82576 0.62564 0.0
C2036 C 0.90055 0.82341 0.62837 0.0
C2037 C 0.91234 0.82155 0.62537 0.0
C2038 C 0.90585 0.81266 0.63082 0.0
C2039 C 0.89362 0.81422 0.63334 0.0
O2040 O 0.88091 0.79804 0.63719 0.0
O2041 O 0.88136 0.80381 0.64664 0.0
O2042 O 0.89288 0.81411 0.63994 0.0
O2043 O 0.8916 0.80864 0.63039 0.0
H2044 H 0.87607 0.81296 0.63672 0.0
H2045 H 0.86565 0.81813 0.63259 0.0
H2046 H 0.85436 0.80076 0.63945 0.0
H2047 H 0.86485 0.79559 0.64349 0.0
H2048 H 0.89195 0.77723 0.65677 0.0
H2049 H 0.89075 0.78851 0.6518 0.0
H2050 H 0.91161 0.77534 0.64744 0.0
H2051 H 0.91046 0.78665 0.64274 0.0
H2052 H 0.91624 0.81167 0.62799 0.0
H2053 H 0.90678 0.83081 0.62354 0.0
H2054 H 0.89617 0.82667 0.62838 0.0
H2055 H 0.9056 0.80756 0.63279 0.0
C2056 C 0.95393 0.12121 0.3907 0.0
C2057 C 0.94704 0.12124 0.38909 0.0
C2058 C 0.94765 0.10941 0.3858 0.0
C2059 C 0.94393 0.11539 0.3867 0.0
C2060 C 0.95453 0.10937 0.38759 0.0
C2061 C 0.95764 0.11523 0.39002 0.0
U2062 U 0.95404 0.14023 0.39095 0.0
O2063 O 0.9575 0.14757 0.39855 0.0
O2064 O 0.96197 0.14752 0.38839 0.0
C2065 C 0.96217 0.15004 0.39453 0.0
C2066 C 0.95735 0.12752 0.39259 0.0
C2067 C 0.96894 0.15068 0.39744 0.0
C2068 C 0.97994 0.14597 0.40011 0.0
C2069 C 0.97333 0.14513 0.39777 0.0
C2070 C 0.97773 0.15786 0.40199 0.0
C2071 C 0.98224 0.15238 0.40215 0.0
C2072 C 0.97115 0.15702 0.39964 0.0
C2073 C 0.93936 0.14961 0.38307 0.0
C2074 C 0.93988 0.16174 0.38139 0.0
C2075 C 0.93022 0.1554 0.37737 0.0
C2076 C 0.93307 0.14945 0.37987 0.0
C2077 C 0.93362 0.1616 0.37804 0.0
C2078 C 0.94272 0.15579 0.3839 0.0
C2079 C 0.94254 0.14326 0.38515 0.0
O2080 O 0.9594 0.13116 0.38744 0.0
O2081 O 0.95435 0.13112 0.3973 0.0
O2082 O 0.94315 0.14234 0.3917 0.0
O2083 O 0.94803 0.14169 0.38177 0.0
H2084 H 0.9441 0.12583 0.38955 0.0
H2085 H 0.9386 0.11558 0.38548 0.0
H2086 H 0.95757 0.10488 0.3869 0.0
H2087 H 0.96299 0.11514 0.39118 0.0
H2088 H 0.98329 0.14166 0.40013 0.0
H2089 H 0.97169 0.14019 0.39608 0.0
H2090 H 0.97931 0.16283 0.40364 0.0
H2091 H 0.96781 0.16134 0.39944 0.0
H2092 H 0.9426 0.16644 0.38203 0.0
H2093 H 0.92545 0.15509 0.37472 0.0
H2094 H 0.93044 0.14471 0.37915 0.0
H2095 H 0.9476 0.15597 0.38636 0.0
C2096 C 0.63566 0.20395 0.13973 0.0
C2097 C 0.63554 0.19745 0.13695 0.0
C2098 C 0.64772 0.19783 0.13532 0.0
C2099 C 0.64152 0.1944 0.13477 0.0
C2100 C 0.64782 0.2043 0.13823 0.0
C2101 C 0.64183 0.20734 0.14042 0.0
U2102 U 0.61657 0.20429 0.13979 0.0
O2103 O 0.60929 0.20785 0.14741 0.0
O2104 O 0.60947 0.2124 0.1373 0.0
C2105 C 0.60692 0.21259 0.14342 0.0
C2106 C 0.62933 0.20736 0.14155 0.0
C2107 C 0.60632 0.21934 0.14639 0.0
C2108 C 0.61105 0.2303 0.14919 0.0
C2109 C 0.61189 0.22369 0.14682 0.0
C2110 C 0.59912 0.22814 0.15089 0.0
C2111 C 0.60462 0.23262 0.15115 0.0
C2112 C 0.59996 0.22157 0.14852 0.0
C2113 C 0.60671 0.18995 0.13193 0.0
C2114 C 0.59494 0.19125 0.12872 0.0
C2115 C 0.60016 0.18019 0.12851 0.0
C2116 C 0.60623 0.183 0.13074 0.0
C2117 C 0.59447 0.18429 0.12739 0.0
C2118 C 0.601 0.19405 0.13101 0.0
C2119 C 0.6132 0.19291 0.13395 0.0
O2120 O 0.62576 0.20947 0.13638 0.0
O2121 O 0.62567 0.20432 0.14618 0.0
O2122 O 0.6142 0.19344 0.14049 0.0
O2123 O 0.61498 0.19834 0.13058 0.0
H2124 H 0.6308 0.19479 0.13632 0.0
H2125 H 0.64125 0.18946 0.13246 0.0
H2126 H 0.65252 0.20704 0.13879 0.0
H2127 H 0.642 0.21237 0.14255 0.0
H2128 H 0.61538 0.23363 0.14929 0.0
H2129 H 0.61683 0.22203 0.14518 0.0
H2130 H 0.59414 0.22974 0.15248 0.0
H2131 H 0.59562 0.21825 0.14824 0.0
H2132 H 0.59062 0.19452 0.12797 0.0
H2133 H 0.59998 0.17482 0.12746 0.0
H2134 H 0.61059 0.17977 0.13143 0.0
H2135 H 0.60126 0.19943 0.13196 0.0
C2136 C 0.55396 0.88607 0.89015 0.0
C2137 C 0.56063 0.88609 0.88777 0.0
C2138 C 0.55998 0.89821 0.88579 0.0
C2139 C 0.56362 0.89211 0.88563 0.0
C2140 C 0.55335 0.89817 0.88833 0.0
C2141 C 0.55037 0.89215 0.89049 0.0
U2142 U 0.55351 0.86694 0.8898 0.0
O2143 O 0.54961 0.85951 0.89707 0.0
O2144 O 0.5453 0.86009 0.88687 0.0
C2145 C 0.54483 0.85746 0.89294 0.0
C2146 C 0.55056 0.8797 0.89178 0.0
C2147 C 0.53795 0.85708 0.89569 0.0
C2148 C 0.52924 0.86064 0.90357 0.0
C2149 C 0.53586 0.8611 0.90115 0.0
C2150 C 0.52672 0.85223 0.89505 0.0
C2151 C 0.5246 0.85623 0.90051 0.0
C2152 C 0.53334 0.85264 0.89268 0.0
C2153 C 0.56766 0.85696 0.8819 0.0
C2154 C 0.56611 0.84497 0.87982 0.0
C2155 C 0.5765 0.85049 0.87644 0.0
C2156 C 0.57409 0.85661 0.87899 0.0
C2157 C 0.5725 0.84462 0.87673 0.0
C2158 C 0.56372 0.85109 0.8824 0.0
C2159 C 0.56492 0.86349 0.88406 0.0
O2160 O 0.54852 0.87626 0.88649 0.0
O2161 O 0.55352 0.87591 0.89637 0.0
O2162 O 0.56428 0.86431 0.89062 0.0
O2163 O 0.5596 0.86549 0.88066 0.0
H2164 H 0.56345 0.88142 0.8874 0.0
H2165 H 0.56871 0.89194 0.88361 0.0
H2166 H 0.55044 0.90279 0.88858 0.0
H2167 H 0.5452 0.89221 0.89229 0.0
H2168 H 0.52771 0.86381 0.90776 0.0
H2169 H 0.53932 0.86461 0.90352 0.0
H2170 H 0.52327 0.84873 0.89265 0.0
H2171 H 0.53486 0.84949 0.88847 0.0
H2172 H 0.56294 0.84053 0.88019 0.0
H2173 H 0.5814 0.85041 0.87401 0.0
H2174 H 0.57717 0.8611 0.87855 0.0
H2175 H 0.55873 0.85128 0.88465 0.0
C2176 C 0.87072 0.20314 0.86755 0.0
C2177 C 0.87072 0.19658 0.87019 0.0
C2178 C 0.85866 0.19737 0.87243 0.0
C2179 C 0.86474 0.19371 0.8726 0.0
C2180 C 0.85867 0.20391 0.86966 0.0
C2181 C 0.86466 0.20677 0.86723 0.0
U2182 U 0.88982 0.20334 0.86739 0.0
O2183 O 0.89708 0.20655 0.85958 0.0
O2184 O 0.89697 0.21152 0.86949 0.0
C2185 C 0.89946 0.21147 0.86334 0.0
C2186 C 0.87707 0.20638 0.86553 0.0
C2187 C 0.9 0.21809 0.86009 0.0
C2188 C 0.89551 0.22925 0.85772 0.0
C2189 C 0.89465 0.22272 0.86028 0.0
C2190 C 0.90699 0.22646 0.85453 0.0
C2191 C 0.90174 0.23123 0.85493 0.0
C2192 C 0.90613 0.21996 0.8571 0.0
C2193 C 0.89974 0.1896 0.87603 0.0
C2194 C 0.91172 0.19118 0.87808 0.0
C2195 C 0.90623 0.1808 0.88153 0.0
C2196 C 0.9001 0.18319 0.87898 0.0
C2197 C 0.91209 0.18481 0.8812 0.0
C2198 C 0.9056 0.19354 0.8755 0.0
C2199 C 0.8932 0.19231 0.87384 0.0
O2200 O 0.88067 0.20874 0.87057 0.0
O2201 O 0.8807 0.20308 0.86105 0.0
O2202 O 0.89222 0.19249 0.86728 0.0
O2203 O 0.89139 0.1979 0.87691 0.0
H2204 H 0.87538 0.19373 0.87054 0.0
H2205 H 0.86493 0.1887 0.87479 0.0
H2206 H 0.85406 0.20684 0.86941 0.0
H2207 H 0.86458 0.21185 0.86522 0.0
H2208 H 0.89138 0.2328 0.85816 0.0
H2209 H 0.88987 0.22135 0.86256 0.0
H2210 H 0.91181 0.22779 0.8523 0.0
H2211 H 0.9103 0.21643 0.85689 0.0
H2212 H 0.91616 0.19435 0.87769 0.0
H2213 H 0.90632 0.17592 0.88398 0.0
H2214 H 0.89561 0.1801 0.87945 0.0
H2215 H 0.9054 0.19851 0.87322 0.0
C2216 C 0.55402 0.12104 0.61709 0.0
C2217 C 0.56055 0.12113 0.61982 0.0
C2218 C 0.55998 0.10902 0.62181 0.0
C2219 C 0.56351 0.11517 0.62215 0.0
C2220 C 0.55348 0.10894 0.61894 0.0
C2221 C 0.55053 0.11491 0.6166 0.0
U2222 U 0.55362 0.14013 0.61711 0.0
O2223 O 0.55028 0.14748 0.60949 0.0
O2224 O 0.54535 0.14715 0.61942 0.0
C2225 C 0.54537 0.14976 0.61333 0.0
C2226 C 0.55068 0.12737 0.61516 0.0
C2227 C 0.53871 0.15033 0.61014 0.0
C2228 C 0.52941 0.14559 0.60372 0.0
C2229 C 0.53589 0.14498 0.60645 0.0
C2230 C 0.52854 0.15688 0.60837 0.0
C2231 C 0.52563 0.15154 0.60468 0.0
C2232 C 0.53501 0.15627 0.61105 0.0
C2233 C 0.56742 0.15006 0.62567 0.0
C2234 C 0.56586 0.16205 0.62769 0.0
C2235 C 0.57621 0.15655 0.63118 0.0
C2236 C 0.57382 0.15041 0.62864 0.0
C2237 C 0.57222 0.16241 0.63082 0.0
C2238 C 0.56349 0.15593 0.62512 0.0
C2239 C 0.56472 0.14353 0.62346 0.0
O2240 O 0.54835 0.1309 0.62027 0.0
O2241 O 0.55389 0.13108 0.61067 0.0
O2242 O 0.56446 0.1426 0.61689 0.0
O2243 O 0.55917 0.14166 0.62658 0.0
H2244 H 0.56329 0.12585 0.6203 0.0
H2245 H 0.56848 0.11542 0.62441 0.0
H2246 H 0.55066 0.10427 0.61855 0.0
H2247 H 0.54548 0.11477 0.61452 0.0
H2248 H 0.52736 0.14142 0.60085 0.0
H2249 H 0.53868 0.14033 0.60573 0.0
H2250 H 0.52574 0.16147 0.60933 0.0
H2251 H 0.5371 0.16042 0.61395 0.0
H2252 H 0.5627 0.1665 0.62727 0.0
H2253 H 0.58109 0.15664 0.63364 0.0
H2254 H 0.5769 0.14592 0.62912 0.0
H2255 H 0.55853 0.15573 0.62281 0.0
C2256 C 0.63605 0.80382 0.36779 0.0
C2257 C 0.63577 0.81039 0.37038 0.0
C2258 C 0.64773 0.80991 0.37315 0.0
C2259 C 0.64156 0.81342 0.37302 0.0
C2260 C 0.64802 0.80338 0.37036 0.0
C2261 C 0.64221 0.80035 0.36771 0.0
U2262 U 0.61707 0.80368 0.36696 0.0
O2263 O 0.60995 0.80029 0.35911 0.0
O2264 O 0.60972 0.79571 0.36921 0.0
C2265 C 0.60736 0.7956 0.36302 0.0
C2266 C 0.62982 0.80043 0.36562 0.0
C2267 C 0.6067 0.78886 0.36002 0.0
C2268 C 0.61126 0.7778 0.3574 0.0
C2269 C 0.61218 0.7844 0.35975 0.0
C2270 C 0.59943 0.78018 0.35539 0.0
C2271 C 0.60484 0.77559 0.35531 0.0
C2272 C 0.60036 0.78676 0.35774 0.0
C2273 C 0.60731 0.81812 0.37478 0.0
C2274 C 0.59531 0.81704 0.37705 0.0
C2275 C 0.60106 0.82757 0.3794 0.0
C2276 C 0.60711 0.8248 0.37707 0.0
C2277 C 0.59511 0.82369 0.37952 0.0
C2278 C 0.60135 0.81428 0.37468 0.0
C2279 C 0.61378 0.81507 0.37284 0.0
O2280 O 0.62602 0.79827 0.37062 0.0
O2281 O 0.62637 0.80353 0.36088 0.0
O2282 O 0.61489 0.81457 0.36632 0.0
O2283 O 0.61535 0.80957 0.37619 0.0
H2284 H 0.63104 0.81314 0.3705 0.0
H2285 H 0.64118 0.81849 0.37502 0.0
H2286 H 0.65268 0.80052 0.37044 0.0
H2287 H 0.64249 0.79525 0.36577 0.0
H2288 H 0.61552 0.77437 0.35744 0.0
H2289 H 0.61712 0.78596 0.36151 0.0
H2290 H 0.59446 0.77868 0.3537 0.0
H2291 H 0.59608 0.79016 0.3579 0.0
H2292 H 0.59079 0.81395 0.37702 0.0
H2293 H 0.6011 0.83268 0.38135 0.0
H2294 H 0.61167 0.82781 0.37719 0.0
H2295 H 0.60142 0.80911 0.3729 0.0
C2296 C 0.95345 0.88618 0.11772 0.0
C2297 C 0.94662 0.88606 0.11956 0.0
C2298 C 0.94717 0.8979 0.1228 0.0
C2299 C 0.9435 0.89187 0.12205 0.0
C2300 C 0.95399 0.89804 0.12079 0.0
C2301 C 0.9571 0.89221 0.11828 0.0
U2302 U 0.95369 0.86716 0.11709 0.0
O2303 O 0.9572 0.86002 0.10932 0.0
O2304 O 0.96169 0.85989 0.11946 0.0
C2305 C 0.96189 0.8575 0.11327 0.0
C2306 C 0.95688 0.87992 0.11571 0.0
C2307 C 0.96865 0.8569 0.11032 0.0
C2308 C 0.97971 0.86154 0.10785 0.0
C2309 C 0.97311 0.86239 0.11021 0.0
C2310 C 0.97734 0.84977 0.1055 0.0
C2311 C 0.98193 0.85519 0.10556 0.0
C2312 C 0.97076 0.85063 0.10787 0.0
C2313 C 0.9392 0.85732 0.1247 0.0
C2314 C 0.94036 0.84542 0.12744 0.0
C2315 C 0.92948 0.85091 0.12848 0.0
C2316 C 0.93232 0.85698 0.12628 0.0
C2317 C 0.93349 0.84509 0.12918 0.0
C2318 C 0.94319 0.85148 0.12519 0.0
C2319 C 0.94224 0.86381 0.12281 0.0
O2320 O 0.95896 0.87619 0.12078 0.0
O2321 O 0.95389 0.87641 0.11094 0.0
O2322 O 0.94282 0.86493 0.1163 0.0
O2323 O 0.94768 0.86543 0.12624 0.0
H2324 H 0.94373 0.88143 0.1192 0.0
H2325 H 0.93822 0.89161 0.12344 0.0
H2326 H 0.95698 0.90257 0.12137 0.0
H2327 H 0.9624 0.89237 0.11693 0.0
H2328 H 0.98314 0.8658 0.108 0.0
H2329 H 0.97154 0.86728 0.11209 0.0
H2330 H 0.97884 0.84485 0.10365 0.0
H2331 H 0.96736 0.84634 0.10789 0.0
H2332 H 0.94355 0.841 0.12787 0.0
H2333 H 0.92418 0.85084 0.12985 0.0
H2334 H 0.92918 0.86144 0.12593 0.0
H2335 H 0.94851 0.85164 0.12394 0.0
C2336 C 0.64 0.87097 0.80419 0.0
C2337 C 0.63714 0.87109 0.81067 0.0
C2338 C 0.63524 0.85895 0.81016 0.0
C2339 C 0.6348 0.86513 0.81363 0.0
C2340 C 0.63823 0.85885 0.80371 0.0
C2341 C 0.64059 0.86482 0.80075 0.0
U2342 U 0.63978 0.89004 0.80367 0.0
O2343 O 0.64739 0.89745 0.80041 0.0
O2344 O 0.63755 0.89699 0.79532 0.0
C2345 C 0.64361 0.89967 0.79543 0.0
C2346 C 0.64193 0.87729 0.80083 0.0
C2347 C 0.64689 0.90025 0.78882 0.0
C2348 C 0.65342 0.89553 0.77958 0.0
C2349 C 0.65061 0.89491 0.78603 0.0
C2350 C 0.64882 0.90683 0.77868 0.0
C2351 C 0.65252 0.90149 0.77581 0.0
C2352 C 0.64605 0.90621 0.78513 0.0
C2353 C 0.63087 0.89994 0.81727 0.0
C2354 C 0.62847 0.91184 0.81556 0.0
C2355 C 0.62549 0.90645 0.82613 0.0
C2356 C 0.62811 0.90034 0.82377 0.0
C2357 C 0.62555 0.91224 0.82202 0.0
C2358 C 0.63113 0.90574 0.81321 0.0
C2359 C 0.6332 0.89342 0.81464 0.0
O2360 O 0.63683 0.88075 0.79838 0.0
O2361 O 0.64631 0.88106 0.80409 0.0
O2362 O 0.63978 0.89257 0.8145 0.0
O2363 O 0.63021 0.89148 0.80905 0.0
H2364 H 0.63657 0.87582 0.81336 0.0
H2365 H 0.63244 0.86541 0.81856 0.0
H2366 H 0.6387 0.85417 0.80093 0.0
H2367 H 0.64276 0.86465 0.79573 0.0
H2368 H 0.6563 0.89135 0.77755 0.0
H2369 H 0.65127 0.89025 0.78882 0.0
H2370 H 0.6479 0.91144 0.77589 0.0
H2371 H 0.64314 0.91036 0.78719 0.0
H2372 H 0.62866 0.91623 0.8123 0.0
H2373 H 0.6232 0.90657 0.8311 0.0
H2374 H 0.62787 0.8959 0.82695 0.0
H2375 H 0.63328 0.90551 0.80818 0.0
C2376 C 0.88536 0.89021 0.55458 0.0
C2377 C 0.88507 0.8876 0.56116 0.0
C2378 C 0.89704 0.88483 0.56068 0.0
C2379 C 0.89086 0.88496 0.56419 0.0
C2380 C 0.89733 0.88763 0.55415 0.0
C2381 C 0.89153 0.89028 0.55112 0.0
U2382 U 0.86634 0.89053 0.55402 0.0
O2383 O 0.85909 0.89827 0.55076 0.0
O2384 O 0.85931 0.8884 0.54572 0.0
C2385 C 0.85677 0.89452 0.54579 0.0
C2386 C 0.87914 0.89234 0.55116 0.0
C2387 C 0.85627 0.89778 0.53916 0.0
C2388 C 0.86113 0.90423 0.52994 0.0
C2389 C 0.86166 0.90146 0.53642 0.0
C2390 C 0.84984 0.89964 0.52893 0.0
C2391 C 0.85522 0.9033 0.52609 0.0
C2392 C 0.85036 0.89692 0.5354 0.0
C2393 C 0.8564 0.88181 0.56776 0.0
C2394 C 0.84443 0.87964 0.56625 0.0
C2395 C 0.85003 0.87617 0.57657 0.0
C2396 C 0.85611 0.87881 0.57416 0.0
C2397 C 0.84414 0.87647 0.5726 0.0
C2398 C 0.85051 0.88231 0.56386 0.0
C2399 C 0.86291 0.88405 0.56503 0.0
O2400 O 0.87554 0.88735 0.54869 0.0
O2401 O 0.87548 0.89685 0.55438 0.0
O2402 O 0.86385 0.89062 0.56486 0.0
O2403 O 0.86474 0.88101 0.55943 0.0
H2404 H 0.88033 0.88747 0.56389 0.0
H2405 H 0.89048 0.88296 0.56926 0.0
H2406 H 0.90199 0.88755 0.55129 0.0
H2407 H 0.89181 0.89223 0.54602 0.0
H2408 H 0.86535 0.90708 0.52795 0.0
H2409 H 0.86628 0.90214 0.53927 0.0
H2410 H 0.84527 0.8987 0.52608 0.0
H2411 H 0.84617 0.89404 0.53743 0.0
H2412 H 0.83997 0.88001 0.56311 0.0
H2413 H 0.85 0.87368 0.58143 0.0
H2414 H 0.86063 0.87837 0.57721 0.0
H2415 H 0.85066 0.88463 0.55891 0.0
C2416 C 0.8673 0.13543 0.3039 0.0
C2417 C 0.87218 0.1355 0.30903 0.0
C2418 C 0.87155 0.14777 0.3096 0.0
C2419 C 0.8743 0.14161 0.31183 0.0
C2420 C 0.86658 0.14765 0.30451 0.0
C2421 C 0.86448 0.14153 0.30169 0.0
U2422 U 0.86718 0.11632 0.30391 0.0
O2423 O 0.85938 0.10904 0.30077 0.0
O2424 O 0.8693 0.10909 0.29582 0.0
C2425 C 0.86315 0.10661 0.29588 0.0
C2426 C 0.86528 0.12904 0.30075 0.0
C2427 C 0.85992 0.10606 0.28924 0.0
C2428 C 0.85743 0.11066 0.27815 0.0
C2429 C 0.85992 0.1115 0.28471 0.0
C2430 C 0.85468 0.09902 0.28072 0.0
C2431 C 0.8549 0.10437 0.27604 0.0
C2432 C 0.85718 0.09986 0.28725 0.0
C2433 C 0.8759 0.1066 0.31777 0.0
C2434 C 0.87841 0.0947 0.31622 0.0
C2435 C 0.88128 0.10025 0.32675 0.0
C2436 C 0.87861 0.1063 0.32429 0.0
C2437 C 0.88132 0.09441 0.32269 0.0
C2438 C 0.8757 0.10074 0.31379 0.0
C2439 C 0.87365 0.11309 0.31499 0.0
O2440 O 0.8703 0.1254 0.29838 0.0
O2441 O 0.86083 0.12545 0.30414 0.0
O2442 O 0.86708 0.11401 0.3148 0.0
O2443 O 0.8767 0.11487 0.30937 0.0
H2444 H 0.87442 0.13083 0.31079 0.0
H2445 H 0.8782 0.14151 0.31566 0.0
H2446 H 0.86429 0.15228 0.30274 0.0
H2447 H 0.86069 0.14155 0.29775 0.0
H2448 H 0.85773 0.11486 0.27467 0.0
H2449 H 0.86202 0.11633 0.28617 0.0
H2450 H 0.85264 0.09415 0.27929 0.0
H2451 H 0.85712 0.09562 0.2907 0.0
H2452 H 0.8783 0.09028 0.31302 0.0
H2453 H 0.88355 0.1002 0.33173 0.0
H2454 H 0.87881 0.11079 0.32742 0.0
H2455 H 0.8736 0.10089 0.30875 0.0
C2456 C 0.62212 0.11723 0.05371 0.0
C2457 C 0.62259 0.12169 0.05918 0.0
C2458 C 0.61036 0.12283 0.05942 0.0
C2459 C 0.61676 0.12448 0.062 0.0
C2460 C 0.6099 0.11817 0.05407 0.0
C2461 C 0.61575 0.11542 0.05121 0.0
U2462 U 0.6411 0.11655 0.05325 0.0
O2463 O 0.64825 0.10858 0.05028 0.0
O2464 O 0.64823 0.1183 0.04495 0.0
C2465 C 0.65067 0.11214 0.04523 0.0
C2466 C 0.62829 0.11479 0.0504 0.0
C2467 C 0.65118 0.1087 0.03869 0.0
C2468 C 0.64623 0.10226 0.02951 0.0
C2469 C 0.64572 0.10511 0.03596 0.0
C2470 C 0.65763 0.10658 0.02852 0.0
C2471 C 0.65217 0.10303 0.02568 0.0
C2472 C 0.65714 0.10937 0.03496 0.0
C2473 C 0.65105 0.12572 0.06671 0.0
C2474 C 0.66295 0.12821 0.0651 0.0
C2475 C 0.65746 0.13105 0.07567 0.0
C2476 C 0.65139 0.12841 0.07324 0.0
C2477 C 0.66328 0.13107 0.0716 0.0
C2478 C 0.65688 0.12553 0.06269 0.0
C2479 C 0.64454 0.12342 0.06401 0.0
O2480 O 0.632 0.11958 0.0477 0.0
O2481 O 0.63185 0.11039 0.05387 0.0
O2482 O 0.64355 0.11686 0.0641 0.0
O2483 O 0.64277 0.12626 0.05829 0.0
H2484 H 0.62747 0.12313 0.06118 0.0
H2485 H 0.61727 0.12796 0.06618 0.0
H2486 H 0.60504 0.11683 0.05196 0.0
H2487 H 0.61532 0.11198 0.04697 0.0
H2488 H 0.64195 0.0995 0.02752 0.0
H2489 H 0.64106 0.10458 0.03878 0.0
H2490 H 0.66223 0.1074 0.02568 0.0
H2491 H 0.66137 0.11219 0.03698 0.0
H2492 H 0.66736 0.12809 0.06188 0.0
H2493 H 0.65753 0.13328 0.08066 0.0
H2494 H 0.64692 0.1286 0.0764 0.0
H2495 H 0.6567 0.12344 0.05764 0.0
C2496 C 0.63894 0.13633 0.7033 0.0
C2497 C 0.63338 0.13625 0.69891 0.0
C2498 C 0.63404 0.14846 0.69771 0.0
C2499 C 0.63093 0.14226 0.69616 0.0
C2500 C 0.63974 0.14849 0.70194 0.0
C2501 C 0.64215 0.14247 0.70473 0.0
U2502 U 0.63961 0.11721 0.70392 0.0
O2503 O 0.64772 0.11027 0.70705 0.0
O2504 O 0.63798 0.11022 0.71234 0.0
C2505 C 0.6442 0.10792 0.71216 0.0
C2506 C 0.64126 0.13008 0.70655 0.0
C2507 C 0.64765 0.10772 0.71871 0.0
C2508 C 0.65045 0.11287 0.72948 0.0
C2509 C 0.64775 0.11338 0.72297 0.0
C2510 C 0.6532 0.10113 0.72739 0.0
C2511 C 0.65311 0.1067 0.73179 0.0
C2512 C 0.65048 0.10164 0.72091 0.0
C2513 C 0.6307 0.10683 0.69059 0.0
C2514 C 0.62851 0.09489 0.69236 0.0
C2515 C 0.62552 0.10017 0.68173 0.0
C2516 C 0.62801 0.10634 0.68408 0.0
C2517 C 0.62566 0.0944 0.68587 0.0
C2518 C 0.63103 0.10106 0.69469 0.0
C2519 C 0.63286 0.11343 0.69319 0.0
O2520 O 0.63645 0.12639 0.70925 0.0
O2521 O 0.64568 0.12651 0.70311 0.0
O2522 O 0.6394 0.11454 0.69312 0.0
O2523 O 0.62995 0.11526 0.69887 0.0
H2524 H 0.63087 0.13154 0.69769 0.0
H2525 H 0.6266 0.14207 0.69284 0.0
H2526 H 0.64221 0.15319 0.70324 0.0
H2527 H 0.64646 0.14262 0.7081 0.0
H2528 H 0.65038 0.11727 0.73272 0.0
H2529 H 0.6456 0.11813 0.72132 0.0
H2530 H 0.65513 0.09629 0.72905 0.0
H2531 H 0.65041 0.09722 0.71769 0.0
H2532 H 0.62875 0.09053 0.69564 0.0
H2533 H 0.62328 0.09998 0.67675 0.0
H2534 H 0.6277 0.11075 0.68087 0.0
H2535 H 0.63313 0.10136 0.69973 0.0
C2536 C 0.62173 0.89048 0.45412 0.0
C2537 C 0.62196 0.88793 0.44752 0.0
C2538 C 0.61002 0.88508 0.4481 0.0
C2539 C 0.61616 0.88528 0.44453 0.0
C2540 C 0.60977 0.88785 0.45464 0.0
C2541 C 0.61559 0.89051 0.45764 0.0
U2542 U 0.6407 0.89064 0.45431 0.0
O2543 O 0.64812 0.89824 0.45763 0.0
O2544 O 0.64792 0.8882 0.46233 0.0
C2545 C 0.65051 0.89431 0.46241 0.0
C2546 C 0.628 0.89254 0.4575 0.0
C2547 C 0.65115 0.89735 0.46913 0.0
C2548 C 0.64654 0.89994 0.48019 0.0
C2549 C 0.64565 0.89761 0.47359 0.0
C2550 C 0.65838 0.902 0.47784 0.0
C2551 C 0.65295 0.90205 0.48243 0.0
C2552 C 0.65748 0.89965 0.47126 0.0
C2553 C 0.64994 0.88184 0.44 0.0
C2554 C 0.66187 0.87913 0.44089 0.0
C2555 C 0.65544 0.87541 0.43117 0.0
C2556 C 0.64968 0.87853 0.43377 0.0
C2557 C 0.66156 0.87553 0.43478 0.0
C2558 C 0.65609 0.88225 0.4435 0.0
C2559 C 0.64367 0.88432 0.44307 0.0
O2560 O 0.6316 0.88749 0.45982 0.0
O2561 O 0.63164 0.89708 0.45429 0.0
O2562 O 0.64299 0.89091 0.44342 0.0
O2563 O 0.64194 0.88121 0.44866 0.0
H2564 H 0.62667 0.88784 0.44474 0.0
H2565 H 0.61651 0.8833 0.43944 0.0
H2566 H 0.60514 0.88773 0.45754 0.0
H2567 H 0.61535 0.89241 0.46276 0.0
H2568 H 0.64228 0.89988 0.48361 0.0
H2569 H 0.64072 0.89584 0.47201 0.0
H2570 H 0.66334 0.9037 0.47937 0.0
H2571 H 0.66177 0.89951 0.46786 0.0
H2572 H 0.66649 0.87928 0.44381 0.0
H2573 H 0.65508 0.87277 0.42639 0.0
H2574 H 0.64497 0.87818 0.43101 0.0
H2575 H 0.65635 0.88478 0.44834 0.0
C2576 C 0.86725 0.87136 0.20406 0.0
C2577 C 0.87014 0.87132 0.1976 0.0
C2578 C 0.87252 0.85931 0.19863 0.0
C2579 C 0.87273 0.86535 0.19489 0.0
C2580 C 0.86945 0.85934 0.20504 0.0
C2581 C 0.86684 0.86533 0.20773 0.0
U2582 U 0.86697 0.89047 0.20408 0.0
O2583 O 0.85911 0.89771 0.20721 0.0
O2584 O 0.869 0.89768 0.21222 0.0
C2585 C 0.86284 0.90014 0.21213 0.0
C2586 C 0.86513 0.87773 0.2072 0.0
C2587 C 0.85958 0.9007 0.21875 0.0
C2588 C 0.85717 0.89622 0.22991 0.0
C2589 C 0.85968 0.89533 0.22337 0.0
C2590 C 0.85418 0.90777 0.22717 0.0
C2591 C 0.85451 0.9025 0.23192 0.0
C2592 C 0.85671 0.90687 0.22065 0.0
C2593 C 0.87578 0.90029 0.19033 0.0
C2594 C 0.87814 0.91223 0.19187 0.0
C2595 C 0.88122 0.90668 0.18141 0.0
C2596 C 0.87859 0.9006 0.18385 0.0
C2597 C 0.88112 0.91253 0.18543 0.0
C2598 C 0.87547 0.90615 0.19429 0.0
C2599 C 0.87353 0.89379 0.19308 0.0
O2600 O 0.87012 0.88139 0.2096 0.0
O2601 O 0.86069 0.8813 0.20378 0.0
O2602 O 0.86697 0.89283 0.1932 0.0
O2603 O 0.87653 0.892 0.19871 0.0
H2604 H 0.87051 0.87595 0.1947 0.0
H2605 H 0.87497 0.86548 0.18991 0.0
H2606 H 0.86927 0.8548 0.20808 0.0
H2607 H 0.86467 0.86529 0.21276 0.0
H2608 H 0.85754 0.89208 0.23346 0.0
H2609 H 0.86189 0.89052 0.22197 0.0
H2610 H 0.85205 0.91262 0.22851 0.0
H2611 H 0.85657 0.91106 0.21713 0.0
H2612 H 0.87792 0.91666 0.19506 0.0
H2613 H 0.88356 0.90673 0.17646 0.0
H2614 H 0.87888 0.89611 0.18074 0.0
H2615 H 0.87329 0.906 0.19931 0.0
C2616 C 0.88641 0.11706 0.9535 0.0
C2617 C 0.88644 0.11941 0.94682 0.0
C2618 C 0.89849 0.12174 0.94759 0.0
C2619 C 0.89243 0.12171 0.94388 0.0
C2620 C 0.89844 0.11927 0.95426 0.0
C2621 C 0.89244 0.11695 0.95718 0.0
U2622 U 0.8673 0.11677 0.95357 0.0
O2623 O 0.86007 0.10906 0.95702 0.0
O2624 O 0.86009 0.11915 0.96162 0.0
C2625 C 0.85763 0.11299 0.96178 0.0
C2626 C 0.88004 0.11513 0.95677 0.0
C2627 C 0.85704 0.10998 0.96852 0.0
C2628 C 0.86158 0.10773 0.97968 0.0
C2629 C 0.86245 0.11012 0.97309 0.0
C2630 C 0.84998 0.10484 0.9771 0.0
C2631 C 0.8553 0.10517 0.98179 0.0
C2632 C 0.85085 0.10724 0.97053 0.0
C2633 C 0.85747 0.1248 0.93938 0.0
C2634 C 0.84541 0.12653 0.9407 0.0
C2635 C 0.85112 0.13058 0.93066 0.0
C2636 C 0.85723 0.12803 0.9331 0.0
C2637 C 0.84516 0.12997 0.93449 0.0
C2638 C 0.85151 0.12396 0.94312 0.0
C2639 C 0.86399 0.12274 0.94223 0.0
O2640 O 0.87639 0.12024 0.9589 0.0
O2641 O 0.87647 0.1105 0.95363 0.0
O2642 O 0.86499 0.1162 0.9427 0.0
O2643 O 0.86572 0.12604 0.94772 0.0
H2644 H 0.8818 0.1196 0.94392 0.0
H2645 H 0.89227 0.12367 0.93878 0.0
H2646 H 0.90303 0.11917 0.95722 0.0
H2647 H 0.89249 0.11517 0.96235 0.0
H2648 H 0.86577 0.1081 0.98318 0.0
H2649 H 0.86728 0.11222 0.97161 0.0
H2650 H 0.84512 0.10278 0.97852 0.0
H2651 H 0.84663 0.10708 0.96704 0.0
H2652 H 0.8409 0.12592 0.94373 0.0
H2653 H 0.85112 0.13328 0.92591 0.0
H2654 H 0.86179 0.12874 0.93017 0.0
H2655 H 0.85162 0.12147 0.94799 0.0
C2656 C 0.80306 0.63959 0.87219 0.0
C2657 C 0.8078 0.63433 0.87204 0.0
C2658 C 0.80845 0.63514 0.85979 0.0
C2659 C 0.81045 0.63211 0.86589 0.0
C2660 C 0.80381 0.64052 0.85998 0.0
C2661 C 0.80112 0.64271 0.86614 0.0
U2662 U 0.80302 0.63962 0.89133 0.0
O2663 O 0.80016 0.64747 0.89866 0.0
O2664 O 0.79476 0.63778 0.8985 0.0
C2665 C 0.79509 0.6439 0.90103 0.0
C2666 C 0.79999 0.6417 0.8786 0.0
C2667 C 0.78859 0.64739 0.90157 0.0
C2668 C 0.77945 0.6539 0.89663 0.0
C2669 C 0.78587 0.65099 0.89611 0.0
C2670 C 0.77846 0.64963 0.90805 0.0
C2671 C 0.77564 0.65319 0.90259 0.0
C2672 C 0.78487 0.64677 0.90754 0.0
C2673 C 0.81652 0.63041 0.90109 0.0
C2674 C 0.81499 0.62819 0.91306 0.0
C2675 C 0.82542 0.625 0.90751 0.0
C2676 C 0.82298 0.62757 0.90141 0.0
C2677 C 0.82142 0.6252 0.91339 0.0
C2678 C 0.81257 0.63079 0.90697 0.0
C2679 C 0.81381 0.63272 0.89459 0.0
O2680 O 0.79742 0.63676 0.88221 0.0
O2681 O 0.80354 0.64599 0.88222 0.0
O2682 O 0.81389 0.63929 0.89364 0.0
O2683 O 0.80809 0.62989 0.89282 0.0
H2684 H 0.80939 0.6319 0.87667 0.0
H2685 H 0.81409 0.62803 0.86591 0.0
H2686 H 0.80215 0.64292 0.85536 0.0
H2687 H 0.79747 0.64678 0.86617 0.0
H2688 H 0.77747 0.65667 0.89235 0.0
H2689 H 0.78867 0.65148 0.89143 0.0
H2690 H 0.77563 0.64885 0.91267 0.0
H2691 H 0.78688 0.64395 0.91178 0.0
H2692 H 0.81182 0.62848 0.91751 0.0
H2693 H 0.83036 0.62265 0.90757 0.0
H2694 H 0.82608 0.62723 0.89692 0.0
H2695 H 0.80757 0.63301 0.90681 0.0
C2696 C 0.30228 0.86783 0.13558 0.0
C2697 C 0.30683 0.87326 0.13569 0.0
C2698 C 0.30769 0.87239 0.14793 0.0
C2699 C 0.30949 0.87553 0.14182 0.0
C2700 C 0.30323 0.86687 0.14777 0.0
C2701 C 0.30053 0.86462 0.14164 0.0
U2702 U 0.30233 0.8671 0.1164 0.0
O2703 O 0.2994 0.8589 0.10947 0.0
O2704 O 0.29414 0.86866 0.10912 0.0
C2705 C 0.29435 0.86239 0.10696 0.0
C2706 C 0.29924 0.86559 0.12919 0.0
C2707 C 0.2878 0.85894 0.10678 0.0
C2708 C 0.27713 0.85601 0.11206 0.0
C2709 C 0.28361 0.85879 0.11249 0.0
C2710 C 0.27911 0.85327 0.10029 0.0
C2711 C 0.27478 0.85331 0.10593 0.0
C2712 C 0.28556 0.85608 0.10072 0.0
C2713 C 0.3163 0.87573 0.10648 0.0
C2714 C 0.31527 0.87836 0.09453 0.0
C2715 C 0.32596 0.87997 0.10026 0.0
C2716 C 0.3231 0.87765 0.10628 0.0
C2717 C 0.32206 0.88042 0.09433 0.0
C2718 C 0.31242 0.876 0.10056 0.0
C2719 C 0.31328 0.87367 0.11294 0.0
O2720 O 0.29678 0.87044 0.12539 0.0
O2721 O 0.30272 0.8611 0.12577 0.0
O2722 O 0.31323 0.86715 0.11415 0.0
O2723 O 0.30756 0.87667 0.11445 0.0
H2724 H 0.30829 0.87577 0.13105 0.0
H2725 H 0.31299 0.87973 0.14177 0.0
H2726 H 0.30172 0.86437 0.15239 0.0
H2727 H 0.29703 0.86042 0.14163 0.0
H2728 H 0.27394 0.85603 0.1165 0.0
H2729 H 0.28528 0.86096 0.11722 0.0
H2730 H 0.27742 0.8513 0.09548 0.0
H2731 H 0.28874 0.85617 0.09627 0.0
H2732 H 0.31216 0.87859 0.09004 0.0
H2733 H 0.33117 0.8816 0.10029 0.0
H2734 H 0.32616 0.87748 0.1108 0.0
H2735 H 0.30716 0.87448 0.10062 0.0
C2736 C 0.88975 0.55344 0.88661 0.0
C2737 C 0.88731 0.56007 0.88629 0.0
C2738 C 0.8843 0.55965 0.8982 0.0
C2739 C 0.88464 0.56316 0.89203 0.0
C2740 C 0.8869 0.55305 0.89853 0.0
C2741 C 0.8896 0.54997 0.89277 0.0
U2742 U 0.89076 0.55305 0.86762 0.0
O2743 O 0.89876 0.5497 0.86064 0.0
O2744 O 0.88874 0.54496 0.86035 0.0
C2745 C 0.89497 0.5449 0.85808 0.0
C2746 C 0.892 0.55 0.88044 0.0
C2747 C 0.8981 0.53821 0.85754 0.0
C2748 C 0.90007 0.52693 0.86192 0.0
C2749 C 0.89762 0.53349 0.86281 0.0
C2750 C 0.90374 0.52985 0.85061 0.0
C2751 C 0.90305 0.52501 0.85575 0.0
C2752 C 0.90127 0.53639 0.8515 0.0
C2753 C 0.88285 0.56723 0.85757 0.0
C2754 C 0.88019 0.5659 0.84567 0.0
C2755 C 0.87876 0.57678 0.85109 0.0
C2756 C 0.88105 0.57405 0.85718 0.0
C2757 C 0.8782 0.5727 0.84529 0.0
C2758 C 0.88252 0.5632 0.85176 0.0
C2759 C 0.88475 0.5643 0.86411 0.0
O2760 O 0.88708 0.54772 0.87663 0.0
O2761 O 0.89674 0.55312 0.87698 0.0
O2762 O 0.89127 0.56392 0.8653 0.0
O2763 O 0.88147 0.55877 0.86573 0.0
H2764 H 0.88737 0.56282 0.88155 0.0
H2765 H 0.88278 0.56828 0.89162 0.0
H2766 H 0.88666 0.55018 0.90318 0.0
H2767 H 0.89141 0.54482 0.89309 0.0
H2768 H 0.89942 0.52331 0.86596 0.0
H2769 H 0.89518 0.53483 0.86752 0.0
H2770 H 0.90612 0.52857 0.84586 0.0
H2771 H 0.90171 0.53999 0.8474 0.0
H2772 H 0.87987 0.56266 0.84128 0.0
H2773 H 0.8772 0.58202 0.85098 0.0
H2774 H 0.88126 0.57723 0.86163 0.0
H2775 H 0.88394 0.55792 0.85196 0.0
C2776 C 0.20308 0.14152 0.63554 0.0
C2777 C 0.19681 0.13823 0.63546 0.0
C2778 C 0.19766 0.13611 0.64754 0.0
C2779 C 0.19412 0.13557 0.64141 0.0
C2780 C 0.20382 0.13966 0.64763 0.0
C2781 C 0.20651 0.14232 0.64167 0.0
U2782 U 0.20328 0.14117 0.61649 0.0
O2783 O 0.20647 0.1487 0.60894 0.0
O2784 O 0.21142 0.13879 0.60939 0.0
C2785 C 0.2114 0.14486 0.6067 0.0
C2786 C 0.2063 0.14353 0.62917 0.0
C2787 C 0.21806 0.14805 0.60611 0.0
C2788 C 0.22923 0.15034 0.6106 0.0
C2789 C 0.22266 0.14793 0.6115 0.0
C2790 C 0.22657 0.15327 0.59902 0.0
C2791 C 0.2313 0.15291 0.60431 0.0
C2792 C 0.22001 0.15085 0.59992 0.0
C2793 C 0.18942 0.13164 0.60733 0.0
C2794 C 0.19044 0.12898 0.59539 0.0
C2795 C 0.18098 0.12467 0.60186 0.0
C2796 C 0.18342 0.12793 0.60761 0.0
C2797 C 0.18454 0.12504 0.59571 0.0
C2798 C 0.19287 0.13224 0.60116 0.0
C2799 C 0.19231 0.13437 0.61357 0.0
O2800 O 0.20883 0.13847 0.6257 0.0
O2801 O 0.20289 0.14781 0.62541 0.0
O2802 O 0.19242 0.14098 0.61409 0.0
O2803 O 0.19799 0.13151 0.61544 0.0
H2804 H 0.1941 0.13755 0.63075 0.0
H2805 H 0.18932 0.13295 0.64118 0.0
H2806 H 0.2067 0.14011 0.65226 0.0
H2807 H 0.21138 0.14481 0.6418 0.0
H2808 H 0.23276 0.14994 0.61476 0.0
H2809 H 0.22122 0.14579 0.61632 0.0
H2810 H 0.22796 0.15535 0.59416 0.0
H2811 H 0.21651 0.151 0.59572 0.0
H2812 H 0.19331 0.12933 0.59075 0.0
H2813 H 0.17637 0.12176 0.60224 0.0
H2814 H 0.1807 0.12742 0.61233 0.0
H2815 H 0.19755 0.13507 0.60087 0.0
C2816 C 0.11793 0.95378 0.88641 0.0
C2817 C 0.11997 0.947 0.88621 0.0
C2818 C 0.12319 0.94753 0.89808 0.0
C2819 C 0.12254 0.9439 0.892 0.0
C2820 C 0.121 0.95429 0.89827 0.0
C2821 C 0.1184 0.95739 0.89247 0.0
U2822 U 0.11716 0.95438 0.86735 0.0
O2823 O 0.10912 0.95766 0.8604 0.0
O2824 O 0.11901 0.96268 0.86026 0.0
C2825 C 0.11278 0.96264 0.85798 0.0
C2826 C 0.11574 0.95721 0.88021 0.0
C2827 C 0.10947 0.96926 0.85772 0.0
C2828 C 0.10663 0.98002 0.86286 0.0
C2829 C 0.10935 0.97352 0.86337 0.0
C2830 C 0.10394 0.97793 0.8511 0.0
C2831 C 0.10397 0.98232 0.85668 0.0
C2832 C 0.10667 0.97146 0.85162 0.0
C2833 C 0.12541 0.94037 0.8572 0.0
C2834 C 0.12809 0.94161 0.84528 0.0
C2835 C 0.12954 0.93078 0.8508 0.0
C2836 C 0.12724 0.93355 0.85686 0.0
C2837 C 0.13006 0.9348 0.84495 0.0
C2838 C 0.12574 0.94436 0.85135 0.0
C2839 C 0.12341 0.9433 0.86371 0.0
O2840 O 0.12069 0.9596 0.87649 0.0
O2841 O 0.1111 0.95406 0.87666 0.0
O2842 O 0.11688 0.94353 0.86489 0.0
O2843 O 0.12657 0.9489 0.86535 0.0
H2844 H 0.11967 0.94414 0.88156 0.0
H2845 H 0.12407 0.93866 0.8917 0.0
H2846 H 0.1215 0.95726 0.90283 0.0
H2847 H 0.1169 0.96264 0.89269 0.0
H2848 H 0.10666 0.98326 0.86726 0.0
H2849 H 0.11148 0.97188 0.86814 0.0
H2850 H 0.102 0.97958 0.84626 0.0
H2851 H 0.10674 0.96823 0.8472 0.0
H2852 H 0.12838 0.9448 0.84085 0.0
H2853 H 0.13111 0.92555 0.85073 0.0
H2854 H 0.12702 0.93041 0.86133 0.0
H2855 H 0.12431 0.94964 0.85151 0.0
C2856 C 0.70367 0.36733 0.371 0.0
C2857 C 0.6973 0.3704 0.37125 0.0
C2858 C 0.69756 0.3721 0.35907 0.0
C2859 C 0.69426 0.37276 0.36534 0.0
C2860 C 0.70391 0.36893 0.35885 0.0
C2861 C 0.70694 0.36656 0.36478 0.0
U2862 U 0.70418 0.36696 0.39008 0.0
O2863 O 0.70735 0.35902 0.39719 0.0
O2864 O 0.71247 0.36885 0.39716 0.0
C2865 C 0.71237 0.36266 0.39954 0.0
C2866 C 0.70704 0.36523 0.37726 0.0
C2867 C 0.71895 0.35929 0.39982 0.0
C2868 C 0.72966 0.35629 0.39467 0.0
C2869 C 0.72318 0.35904 0.39414 0.0
C2870 C 0.72763 0.35382 0.40649 0.0
C2871 C 0.73199 0.35373 0.40088 0.0
C2872 C 0.72117 0.35659 0.40596 0.0
C2873 C 0.69029 0.37557 0.40005 0.0
C2874 C 0.69157 0.37819 0.41197 0.0
C2875 C 0.68087 0.38017 0.40638 0.0
C2876 C 0.68357 0.37774 0.40033 0.0
C2877 C 0.68487 0.3805 0.41225 0.0
C2878 C 0.69425 0.37571 0.40593 0.0
C2879 C 0.69317 0.37342 0.39357 0.0
O2880 O 0.70947 0.37022 0.38089 0.0
O2881 O 0.70379 0.36072 0.38089 0.0
O2882 O 0.69333 0.36687 0.39252 0.0
O2883 O 0.69881 0.37647 0.39187 0.0
H2884 H 0.69473 0.37109 0.37603 0.0
H2885 H 0.68942 0.37527 0.3657 0.0
H2886 H 0.70655 0.3683 0.3541 0.0
H2887 H 0.71187 0.3642 0.36451 0.0
H2888 H 0.73287 0.35623 0.39025 0.0
H2889 H 0.72152 0.36109 0.38935 0.0
H2890 H 0.7293 0.35197 0.41136 0.0
H2891 H 0.71797 0.35676 0.41039 0.0
H2892 H 0.69474 0.37833 0.41642 0.0
H2893 H 0.67572 0.382 0.4064 0.0
H2894 H 0.68045 0.37767 0.39584 0.0
H2895 H 0.69945 0.37402 0.4058 0.0
C2896 C 0.89008 0.45491 0.62299 0.0
C2897 C 0.88644 0.44888 0.62361 0.0
C2898 C 0.88458 0.44865 0.61146 0.0
C2899 C 0.88372 0.44577 0.6179 0.0
C2900 C 0.88842 0.4546 0.61084 0.0
C2901 C 0.89113 0.45772 0.61658 0.0
U2902 U 0.89118 0.45598 0.642 0.0
O2903 O 0.89923 0.45975 0.6487 0.0
O2904 O 0.88917 0.46441 0.6489 0.0
C2905 C 0.89547 0.46474 0.65096 0.0
C2906 C 0.8924 0.45848 0.62905 0.0
C2907 C 0.89849 0.47149 0.65062 0.0
C2908 C 0.90048 0.48194 0.64453 0.0
C2909 C 0.89818 0.47527 0.64463 0.0
C2910 C 0.90371 0.481 0.6563 0.0
C2911 C 0.90318 0.48491 0.65039 0.0
C2912 C 0.90136 0.47435 0.65641 0.0
C2913 C 0.88295 0.44208 0.65246 0.0
C2914 C 0.87998 0.44354 0.66428 0.0
C2915 C 0.87809 0.43278 0.65877 0.0
C2916 C 0.88075 0.43538 0.65277 0.0
C2917 C 0.87756 0.43687 0.66456 0.0
C2918 C 0.88267 0.44612 0.65828 0.0
C2919 C 0.88507 0.44492 0.64595 0.0
O2920 O 0.88752 0.46096 0.6328 0.0
O2921 O 0.89709 0.45539 0.63259 0.0
O2922 O 0.89161 0.44524 0.64488 0.0
O2923 O 0.88185 0.45043 0.64414 0.0
H2924 H 0.88559 0.44665 0.62854 0.0
H2925 H 0.88088 0.44114 0.61853 0.0
H2926 H 0.88914 0.45696 0.60596 0.0
H2927 H 0.89391 0.46239 0.61602 0.0
H2928 H 0.90009 0.48479 0.63988 0.0
H2929 H 0.896 0.47312 0.6401 0.0
H2930 H 0.90571 0.48317 0.6609 0.0
H2931 H 0.90162 0.47149 0.66107 0.0
H2932 H 0.8797 0.44679 0.66867 0.0
H2933 H 0.8762 0.42765 0.65879 0.0
H2934 H 0.88091 0.4322 0.64832 0.0
H2935 H 0.88437 0.45132 0.65813 0.0
C2936 C 0.61727 0.55414 0.12108 0.0
C2937 C 0.61939 0.56089 0.12132 0.0
C2938 C 0.62261 0.5604 0.10945 0.0
C2939 C 0.622 0.564 0.11555 0.0
C2940 C 0.62033 0.55368 0.10921 0.0
C2941 C 0.61769 0.55057 0.11498 0.0
U2942 U 0.6166 0.55334 0.14014 0.0
O2943 O 0.60865 0.54986 0.14711 0.0
O2944 O 0.6186 0.54496 0.14709 0.0
C2945 C 0.61238 0.54488 0.1494 0.0
C2946 C 0.6151 0.55067 0.12726 0.0
C2947 C 0.60915 0.53822 0.14954 0.0
C2948 C 0.60672 0.5274 0.14432 0.0
C2949 C 0.60934 0.53394 0.1439 0.0
C2950 C 0.60349 0.52946 0.15595 0.0
C2951 C 0.60384 0.52506 0.15038 0.0
C2952 C 0.60613 0.53598 0.15553 0.0
C2953 C 0.625 0.567 0.15051 0.0
C2954 C 0.62755 0.56519 0.16237 0.0
C2955 C 0.63011 0.57595 0.15712 0.0
C2956 C 0.62751 0.57359 0.151 0.0
C2957 C 0.63028 0.57173 0.16284 0.0
C2958 C 0.62491 0.56286 0.15626 0.0
C2959 C 0.62288 0.56435 0.14392 0.0
O2960 O 0.62006 0.54823 0.13092 0.0
O2961 O 0.61049 0.5538 0.13087 0.0
O2962 O 0.61634 0.56413 0.14286 0.0
O2963 O 0.62602 0.55882 0.14205 0.0
H2964 H 0.61913 0.56371 0.126 0.0
H2965 H 0.6236 0.56922 0.11589 0.0
H2966 H 0.6208 0.55073 0.10463 0.0
H2967 H 0.61614 0.54534 0.11473 0.0
H2968 H 0.607 0.52415 0.13993 0.0
H2969 H 0.61163 0.53561 0.13922 0.0
H2970 H 0.60138 0.52779 0.16071 0.0
H2971 H 0.60596 0.53922 0.15993 0.0
H2972 H 0.62755 0.56186 0.16671 0.0
H2973 H 0.63224 0.58098 0.1573 0.0
H2974 H 0.62762 0.57684 0.14661 0.0
H2975 H 0.62296 0.55775 0.15596 0.0
C2976 C 0.63232 0.70546 0.86665 0.0
C2977 C 0.63144 0.69967 0.87062 0.0
C2978 C 0.64361 0.69814 0.87129 0.0
C2979 C 0.63702 0.69606 0.87293 0.0
C2980 C 0.64446 0.70386 0.86714 0.0
C2981 C 0.63885 0.7075 0.86485 0.0
U2982 U 0.61354 0.70764 0.86697 0.0
O2983 O 0.60725 0.71636 0.86971 0.0
O2984 O 0.60628 0.71177 0.85966 0.0
C2985 C 0.60458 0.7168 0.86365 0.0
C2986 C 0.62644 0.70955 0.86478 0.0
C2987 C 0.60479 0.72357 0.86064 0.0
C2988 C 0.61067 0.73237 0.85443 0.0
C2989 C 0.61043 0.72578 0.85697 0.0
C2990 C 0.59964 0.73459 0.85922 0.0
C2991 C 0.60529 0.73688 0.85557 0.0
C2992 C 0.59939 0.728 0.86172 0.0
C2993 C 0.60347 0.69356 0.87569 0.0
C2994 C 0.5927 0.69469 0.88144 0.0
C2995 C 0.5971 0.68357 0.87886 0.0
C2996 C 0.60276 0.68652 0.87585 0.0
C2997 C 0.59208 0.68763 0.88182 0.0
C2998 C 0.59833 0.69763 0.87837 0.0
C2999 C 0.60977 0.69651 0.8731 0.0
O3000 O 0.62239 0.70682 0.86028 0.0
O3001 O 0.6232 0.71215 0.86995 0.0
O3002 O 0.61195 0.7019 0.8763 0.0
O3003 O 0.6103 0.69699 0.8665 0.0
H3004 H 0.62642 0.69805 0.87208 0.0
H3005 H 0.63616 0.69177 0.8762 0.0
H3006 H 0.64945 0.70556 0.86571 0.0
H3007 H 0.63961 0.71197 0.86178 0.0
H3008 H 0.61506 0.73393 0.85158 0.0
H3009 H 0.61467 0.72243 0.85612 0.0
H3010 H 0.59546 0.73794 0.86031 0.0
H3011 H 0.59503 0.72639 0.8646 0.0
H3012 H 0.58887 0.69793 0.88361 0.0
H3013 H 0.59679 0.67812 0.87912 0.0
H3014 H 0.60668 0.6833 0.8738 0.0
H3015 H 0.59875 0.70308 0.87825 0.0
C3016 C 0.55181 0.38219 0.1182 0.0
C3017 C 0.55783 0.38099 0.12173 0.0
C3018 C 0.55901 0.39298 0.12398 0.0
C3019 C 0.56139 0.38633 0.1246 0.0
C3020 C 0.55312 0.39421 0.12021 0.0
C3021 C 0.54952 0.38883 0.11736 0.0
U3022 U 0.54998 0.3635 0.11758 0.0
O3023 O 0.54144 0.35681 0.11989 0.0
O3024 O 0.54623 0.35641 0.1099 0.0
C3025 C 0.54117 0.35441 0.11372 0.0
C3026 C 0.54776 0.37643 0.11591 0.0
C3027 C 0.53444 0.35459 0.11061 0.0
C3028 C 0.52552 0.36064 0.10474 0.0
C3029 C 0.53211 0.3604 0.10729 0.0
C3030 C 0.52356 0.34927 0.1088 0.0
C3031 C 0.52114 0.35509 0.10553 0.0
C3032 C 0.53015 0.34902 0.1113 0.0
C3033 C 0.56464 0.3541 0.12637 0.0
C3034 C 0.56549 0.34196 0.12787 0.0
C3035 C 0.57365 0.34938 0.13316 0.0
C3036 C 0.57039 0.35496 0.13037 0.0
C3037 C 0.57123 0.34281 0.13198 0.0
C3038 C 0.5622 0.34757 0.12509 0.0
C3039 C 0.56116 0.36012 0.12384 0.0
O3040 O 0.55061 0.37263 0.11126 0.0
O3041 O 0.54509 0.3729 0.12085 0.0
O3042 O 0.55555 0.3617 0.127 0.0
O3043 O 0.56074 0.36076 0.11725 0.0
H3044 H 0.55967 0.37589 0.12242 0.0
H3045 H 0.56596 0.38525 0.1274 0.0
H3046 H 0.55117 0.39929 0.11969 0.0
H3047 H 0.54486 0.38983 0.11467 0.0
H3048 H 0.52387 0.36517 0.10219 0.0
H3049 H 0.53535 0.36477 0.10674 0.0
H3050 H 0.52031 0.34495 0.10961 0.0
H3051 H 0.53185 0.34453 0.11391 0.0
H3052 H 0.56352 0.33697 0.12681 0.0
H3053 H 0.57797 0.35025 0.1364 0.0
H3054 H 0.5723 0.35997 0.13144 0.0
H3055 H 0.55774 0.34684 0.12201 0.0
C3056 C 0.87457 0.30187 0.36889 0.0
C3057 C 0.87573 0.30787 0.37247 0.0
C3058 C 0.86371 0.30908 0.37454 0.0
C3059 C 0.87036 0.31143 0.37528 0.0
C3060 C 0.86253 0.3032 0.37073 0.0
C3061 C 0.86794 0.2996 0.36794 0.0
U3062 U 0.89329 0.30019 0.36795 0.0
O3063 O 0.90011 0.29175 0.37011 0.0
O3064 O 0.9002 0.29645 0.36007 0.0
C3065 C 0.90237 0.29146 0.36388 0.0
C3066 C 0.88035 0.29787 0.36655 0.0
C3067 C 0.90224 0.28472 0.36077 0.0
C3068 C 0.89657 0.27407 0.35856 0.0
C3069 C 0.89646 0.28065 0.36114 0.0
C3070 C 0.90818 0.27567 0.35504 0.0
C3071 C 0.90246 0.27149 0.35554 0.0
C3072 C 0.90807 0.28223 0.35765 0.0
C3073 C 0.90287 0.31492 0.37636 0.0
C3074 C 0.91502 0.31554 0.37787 0.0
C3075 C 0.90781 0.32416 0.38269 0.0
C3076 C 0.90216 0.32091 0.38005 0.0
C3077 C 0.91432 0.32151 0.38168 0.0
C3078 C 0.90934 0.31226 0.37524 0.0
C3079 C 0.89677 0.31144 0.37404 0.0
O3080 O 0.88403 0.30071 0.36182 0.0
O3081 O 0.88398 0.29528 0.37146 0.0
O3082 O 0.89528 0.30585 0.37728 0.0
O3083 O 0.89595 0.31097 0.36747 0.0
H3084 H 0.88083 0.3097 0.37323 0.0
H3085 H 0.87141 0.31599 0.37811 0.0
H3086 H 0.85745 0.30126 0.37012 0.0
H3087 H 0.86697 0.29497 0.3652 0.0
H3088 H 0.89206 0.27101 0.35894 0.0
H3089 H 0.89189 0.28252 0.36351 0.0
H3090 H 0.91281 0.27381 0.35281 0.0
H3091 H 0.91258 0.2853 0.35734 0.0
H3092 H 0.91996 0.31339 0.37694 0.0
H3093 H 0.90705 0.32866 0.3857 0.0
H3094 H 0.89719 0.323 0.381 0.0
H3095 H 0.90996 0.30763 0.3724 0.0
C3096 C 0.95682 0.62315 0.61791 0.0
C3097 C 0.95003 0.62319 0.6199 0.0
C3098 C 0.95069 0.61123 0.62268 0.0
C3099 C 0.94698 0.61727 0.62224 0.0
C3100 C 0.95744 0.61118 0.62046 0.0
C3101 C 0.96048 0.61711 0.61811 0.0
U3102 U 0.95738 0.64224 0.61826 0.0
O3103 O 0.9657 0.6491 0.62086 0.0
O3104 O 0.96103 0.64964 0.61082 0.0
C3105 C 0.966 0.65166 0.61475 0.0
C3106 C 0.96026 0.62949 0.61618 0.0
C3107 C 0.97276 0.65163 0.61169 0.0
C3108 C 0.98177 0.64585 0.6057 0.0
C3109 C 0.97518 0.64594 0.60825 0.0
C3110 C 0.98357 0.65715 0.61001 0.0
C3111 C 0.98608 0.65143 0.60661 0.0
C3112 C 0.97697 0.65725 0.61252 0.0
C3113 C 0.94259 0.65147 0.62676 0.0
C3114 C 0.94293 0.66285 0.63135 0.0
C3115 C 0.93227 0.65692 0.63048 0.0
C3116 C 0.93559 0.65137 0.62767 0.0
C3117 C 0.93591 0.66269 0.63246 0.0
C3118 C 0.94624 0.65729 0.62851 0.0
C3119 C 0.94601 0.64535 0.62432 0.0
O3120 O 0.95724 0.63329 0.61166 0.0
O3121 O 0.96247 0.63291 0.62141 0.0
O3122 O 0.95154 0.64367 0.62756 0.0
O3123 O 0.94654 0.64472 0.61773 0.0
H3124 H 0.94714 0.62783 0.61982 0.0
H3125 H 0.94175 0.61746 0.62381 0.0
H3126 H 0.96046 0.60664 0.62081 0.0
H3127 H 0.96574 0.61701 0.61664 0.0
H3128 H 0.98349 0.6414 0.60304 0.0
H3129 H 0.972 0.64154 0.60759 0.0
H3130 H 0.98676 0.6615 0.61091 0.0
H3131 H 0.9752 0.66166 0.61522 0.0
H3132 H 0.9459 0.66718 0.63286 0.0
H3133 H 0.92685 0.65667 0.63114 0.0
H3134 H 0.93269 0.64693 0.62632 0.0
H3135 H 0.95167 0.65747 0.62783 0.0
C3136 C 0.63467 0.30084 0.64055 0.0
C3137 C 0.63438 0.3075 0.63817 0.0
C3138 C 0.64643 0.30723 0.63568 0.0
C3139 C 0.64021 0.31068 0.63578 0.0
C3140 C 0.64672 0.30063 0.63828 0.0
C3141 C 0.64088 0.29746 0.64069 0.0
U3142 U 0.61561 0.29954 0.64007 0.0
O3143 O 0.60913 0.29096 0.63736 0.0
O3144 O 0.60827 0.29558 0.6474 0.0
C3145 C 0.60644 0.29059 0.64342 0.0
C3146 C 0.62845 0.29719 0.64229 0.0
C3147 C 0.60647 0.28381 0.64644 0.0
C3148 C 0.61209 0.27485 0.65263 0.0
C3149 C 0.61206 0.28143 0.65007 0.0
C3150 C 0.60096 0.27298 0.64794 0.0
C3151 C 0.60656 0.27051 0.65155 0.0
C3152 C 0.60092 0.27956 0.64542 0.0
C3153 C 0.60565 0.3136 0.63135 0.0
C3154 C 0.59495 0.31239 0.62546 0.0
C3155 C 0.59903 0.32352 0.62847 0.0
C3156 C 0.60475 0.32062 0.63143 0.0
C3157 C 0.59415 0.31944 0.62533 0.0
C3158 C 0.60063 0.30949 0.62848 0.0
C3159 C 0.61199 0.31069 0.63391 0.0
O3160 O 0.62449 0.30014 0.64674 0.0
O3161 O 0.62516 0.29479 0.63707 0.0
O3162 O 0.61416 0.30529 0.63073 0.0
O3163 O 0.61256 0.31025 0.64051 0.0
H3164 H 0.62962 0.31018 0.638 0.0
H3165 H 0.63983 0.3158 0.6339 0.0
H3166 H 0.65139 0.2978 0.6382 0.0
H3167 H 0.64117 0.29229 0.64245 0.0
H3168 H 0.61646 0.27315 0.65545 0.0
H3169 H 0.61641 0.28464 0.65088 0.0
H3170 H 0.59666 0.26976 0.64689 0.0
H3171 H 0.59658 0.28131 0.64257 0.0
H3172 H 0.59122 0.30913 0.62315 0.0
H3173 H 0.59857 0.32897 0.62841 0.0
H3174 H 0.60856 0.32387 0.63362 0.0
H3175 H 0.60118 0.30405 0.62842 0.0
C3176 C 0.95514 0.3824 0.88972 0.0
C3177 C 0.94943 0.38164 0.88562 0.0
C3178 C 0.94792 0.39382 0.88525 0.0
C3179 C 0.94587 0.38728 0.88338 0.0
C3180 C 0.95357 0.39455 0.88952 0.0
C3181 C 0.95716 0.38887 0.89173 0.0
U3182 U 0.9567 0.3636 0.88946 0.0
O3183 O 0.96518 0.35693 0.88683 0.0
O3184 O 0.96045 0.35619 0.89683 0.0
C3185 C 0.96542 0.35423 0.89288 0.0
C3186 C 0.95909 0.37642 0.89162 0.0
C3187 C 0.97216 0.35401 0.89596 0.0
C3188 C 0.98114 0.35911 0.90259 0.0
C3189 C 0.97463 0.35939 0.89986 0.0
C3190 C 0.98278 0.3481 0.89751 0.0
C3191 C 0.98531 0.35346 0.90144 0.0
C3192 C 0.97627 0.34838 0.89482 0.0
C3193 C 0.94214 0.35418 0.88084 0.0
C3194 C 0.94269 0.34253 0.87707 0.0
C3195 C 0.93218 0.34873 0.87625 0.0
C3196 C 0.9353 0.35439 0.87907 0.0
C3197 C 0.93586 0.34276 0.87514 0.0
C3198 C 0.94581 0.3482 0.87992 0.0
C3199 C 0.94541 0.36034 0.88333 0.0
O3200 O 0.95625 0.37248 0.89614 0.0
O3201 O 0.96159 0.37308 0.88646 0.0
O3202 O 0.95094 0.36213 0.88012 0.0
O3203 O 0.94592 0.36091 0.88992 0.0
H3204 H 0.94781 0.37666 0.884 0.0
H3205 H 0.94164 0.38652 0.88001 0.0
H3206 H 0.95523 0.3995 0.89112 0.0
H3207 H 0.96155 0.38953 0.89491 0.0
H3208 H 0.98289 0.36329 0.90564 0.0
H3209 H 0.97153 0.36381 0.90076 0.0
H3210 H 0.98587 0.34374 0.8964 0.0
H3211 H 0.97446 0.34421 0.89178 0.0
H3212 H 0.94564 0.33799 0.87635 0.0
H3213 H 0.92693 0.34909 0.87475 0.0
H3214 H 0.9324 0.35898 0.87973 0.0
H3215 H 0.95109 0.34795 0.88129 0.0
C3216 C 0.87484 0.70504 0.13965 0.0
C3217 C 0.87575 0.69922 0.13573 0.0
C3218 C 0.86358 0.69765 0.13506 0.0
C3219 C 0.87017 0.69557 0.13344 0.0
C3220 C 0.86271 0.7034 0.13916 0.0
C3221 C 0.86831 0.70708 0.14142 0.0
U3222 U 0.89364 0.70709 0.13956 0.0
O3223 O 0.90011 0.71574 0.13708 0.0
O3224 O 0.90079 0.71107 0.14711 0.0
C3225 C 0.90265 0.7161 0.1432 0.0
C3226 C 0.88073 0.7091 0.14158 0.0
C3227 C 0.9025 0.72284 0.14631 0.0
C3228 C 0.89665 0.73331 0.14888 0.0
C3229 C 0.89659 0.72675 0.14627 0.0
C3230 C 0.90846 0.73204 0.15178 0.0
C3231 C 0.90261 0.73605 0.15161 0.0
C3232 C 0.9084 0.72549 0.14914 0.0
C3233 C 0.90357 0.69269 0.13097 0.0
C3234 C 0.91382 0.69288 0.12421 0.0
C3235 C 0.91007 0.68242 0.1293 0.0
C3236 C 0.90454 0.68578 0.13213 0.0
C3237 C 0.91471 0.6859 0.1252 0.0
C3238 C 0.90832 0.69625 0.12708 0.0
C3239 C 0.89735 0.69594 0.13345 0.0
O3240 O 0.8847 0.70635 0.14613 0.0
O3241 O 0.88405 0.71169 0.13645 0.0
O3242 O 0.89538 0.70139 0.13023 0.0
O3243 O 0.89668 0.69639 0.14004 0.0
H3244 H 0.88077 0.69759 0.13429 0.0
H3245 H 0.87104 0.69124 0.13021 0.0
H3246 H 0.85771 0.7051 0.14057 0.0
H3247 H 0.86754 0.71156 0.14446 0.0
H3248 H 0.89204 0.73625 0.14875 0.0
H3249 H 0.89196 0.72476 0.14414 0.0
H3250 H 0.91315 0.73402 0.15378 0.0
H3251 H 0.91301 0.72254 0.1492 0.0
H3252 H 0.91725 0.69572 0.12103 0.0
H3253 H 0.91066 0.67708 0.13028 0.0
H3254 H 0.90095 0.68295 0.13512 0.0
H3255 H 0.9077 0.7016 0.12611 0.0
C3256 C 0.55245 0.62518 0.38972 0.0
C3257 C 0.55837 0.62626 0.38599 0.0
C3258 C 0.55947 0.61421 0.38404 0.0
C3259 C 0.56184 0.62083 0.38317 0.0
C3260 C 0.55368 0.6131 0.38802 0.0
C3261 C 0.55017 0.61857 0.39081 0.0
U3262 U 0.55057 0.64393 0.39021 0.0
O3263 O 0.54199 0.6505 0.38776 0.0
O3264 O 0.5466 0.65098 0.39783 0.0
C3265 C 0.54159 0.65292 0.39393 0.0
C3266 C 0.54844 0.63099 0.39194 0.0
C3267 C 0.53481 0.65263 0.39693 0.0
C3268 C 0.52573 0.64632 0.40223 0.0
C3269 C 0.53238 0.64667 0.39987 0.0
C3270 C 0.52392 0.65792 0.39879 0.0
C3271 C 0.52139 0.65192 0.40164 0.0
C3272 C 0.53057 0.65826 0.39646 0.0
C3273 C 0.56488 0.65378 0.38155 0.0
C3274 C 0.56404 0.66532 0.37753 0.0
C3275 C 0.57467 0.65932 0.37669 0.0
C3276 C 0.57171 0.65367 0.3797 0.0
C3277 C 0.57084 0.66517 0.37546 0.0
C3278 C 0.56109 0.65967 0.38057 0.0
C3279 C 0.56173 0.64756 0.38405 0.0
O3280 O 0.55128 0.63482 0.39656 0.0
O3281 O 0.54579 0.63447 0.38695 0.0
O3282 O 0.55622 0.6457 0.38086 0.0
O3283 O 0.56129 0.64691 0.39064 0.0
H3284 H 0.5602 0.63134 0.3851 0.0
H3285 H 0.56633 0.62182 0.38021 0.0
H3286 H 0.55173 0.60805 0.38873 0.0
H3287 H 0.54559 0.61765 0.39365 0.0
H3288 H 0.52398 0.64166 0.40447 0.0
H3289 H 0.53558 0.64225 0.40023 0.0
H3290 H 0.52071 0.66229 0.39815 0.0
H3291 H 0.53236 0.66289 0.39415 0.0
H3292 H 0.56099 0.66978 0.37673 0.0
H3293 H 0.57989 0.65901 0.37509 0.0
H3294 H 0.5747 0.64915 0.38041 0.0
H3295 H 0.55581 0.65984 0.38199 0.0
C3296 C 0.86903 0.63283 0.70823 0.0
C3297 C 0.87603 0.63313 0.70707 0.0
C3298 C 0.87472 0.64359 0.7008 0.0
C3299 C 0.87883 0.63845 0.70342 0.0
C3300 C 0.86773 0.64333 0.70197 0.0
C3301 C 0.86491 0.63802 0.70569 0.0
U3302 U 0.86611 0.61405 0.7094 0.0
O3303 O 0.86723 0.60691 0.71779 0.0
O3304 O 0.85741 0.60798 0.71276 0.0
C3305 C 0.8608 0.60529 0.7178 0.0
C3306 C 0.86599 0.62704 0.71184 0.0
C3307 C 0.85751 0.60553 0.72444 0.0
C3308 C 0.85543 0.61114 0.73515 0.0
C3309 C 0.85806 0.61124 0.72859 0.0
C3310 C 0.85147 0.5997 0.73337 0.0
C3311 C 0.85218 0.60534 0.73764 0.0
C3312 C 0.85413 0.5998 0.72683 0.0
C3313 C 0.87402 0.60344 0.69508 0.0
C3314 C 0.88043 0.59297 0.69471 0.0
C3315 C 0.8747 0.59697 0.68468 0.0
C3316 C 0.87228 0.60253 0.68828 0.0
C3317 C 0.87899 0.59224 0.68779 0.0
C3318 C 0.87796 0.59851 0.69832 0.0
C3319 C 0.87224 0.60985 0.69844 0.0
O3320 O 0.86104 0.62394 0.70867 0.0
O3321 O 0.87027 0.62284 0.7147 0.0
O3322 O 0.87541 0.61122 0.70411 0.0
O3323 O 0.8658 0.61146 0.69857 0.0
H3324 H 0.87936 0.6292 0.7089 0.0
H3325 H 0.88423 0.63845 0.70251 0.0
H3326 H 0.86444 0.64725 0.70003 0.0
H3327 H 0.8595 0.63791 0.70651 0.0
H3328 H 0.85598 0.61559 0.73828 0.0
H3329 H 0.86065 0.61572 0.72681 0.0
H3330 H 0.84907 0.59513 0.73515 0.0
H3331 H 0.85369 0.59534 0.7237 0.0
H3332 H 0.88376 0.58947 0.69726 0.0
H3333 H 0.87339 0.5965 0.67939 0.0
H3334 H 0.86924 0.60625 0.68567 0.0
H3335 H 0.87937 0.59906 0.70358 0.0
C3336 C 0.62465 0.61765 0.95618 0.0
C3337 C 0.62548 0.62124 0.95013 0.0
C3338 C 0.6133 0.62225 0.94894 0.0
C3339 C 0.61986 0.62352 0.94655 0.0
C3340 C 0.6125 0.61851 0.95494 0.0
C3341 C 0.61814 0.61624 0.95854 0.0
U3342 U 0.64349 0.61764 0.95792 0.0
O3343 O 0.65006 0.62013 0.96651 0.0
O3344 O 0.65067 0.61011 0.96182 0.0
C3345 C 0.65255 0.614 0.96686 0.0
C3346 C 0.6306 0.61573 0.96015 0.0
C3347 C 0.65232 0.61092 0.97361 0.0
C3348 C 0.64624 0.60503 0.98248 0.0
C3349 C 0.6465 0.60761 0.97591 0.0
C3350 C 0.65762 0.60903 0.98449 0.0
C3351 C 0.65177 0.60576 0.98688 0.0
C3352 C 0.65788 0.61158 0.97792 0.0
C3353 C 0.65324 0.62608 0.94341 0.0
C3354 C 0.66491 0.6298 0.94396 0.0
C3355 C 0.65876 0.6305 0.9334 0.0
C3356 C 0.65308 0.62776 0.93654 0.0
C3357 C 0.66472 0.63164 0.9371 0.0
C3358 C 0.65922 0.62702 0.94709 0.0
C3359 C 0.64704 0.62368 0.94667 0.0
O3360 O 0.6345 0.61113 0.95737 0.0
O3361 O 0.63399 0.62086 0.96263 0.0
O3362 O 0.64526 0.62694 0.95217 0.0
O3363 O 0.64635 0.6171 0.94718 0.0
H3364 H 0.63049 0.6224 0.94826 0.0
H3365 H 0.62067 0.62646 0.94201 0.0
H3366 H 0.60751 0.61737 0.95688 0.0
H3367 H 0.61742 0.61348 0.9632 0.0
H3368 H 0.64169 0.60247 0.98412 0.0
H3369 H 0.64214 0.60709 0.97266 0.0
H3370 H 0.66193 0.6098 0.98776 0.0
H3371 H 0.66239 0.61417 0.97623 0.0
H3372 H 0.66945 0.63055 0.94692 0.0
H3373 H 0.65842 0.63194 0.92814 0.0
H3374 H 0.6485 0.62708 0.93363 0.0
H3375 H 0.65943 0.62573 0.9524 0.0
C3376 C 0.63942 0.37457 0.20531 0.0
C3377 C 0.6354 0.37563 0.19958 0.0
C3378 C 0.63397 0.36353 0.19822 0.0
C3379 C 0.63269 0.37016 0.19607 0.0
C3380 C 0.63822 0.36246 0.20381 0.0
C3381 C 0.64091 0.36796 0.20736 0.0
U3382 U 0.64007 0.39333 0.20709 0.0
O3383 O 0.63756 0.40001 0.21558 0.0
O3384 O 0.6477 0.40035 0.2111 0.0
C3385 C 0.64373 0.40242 0.216 0.0
C3386 C 0.64164 0.38039 0.20932 0.0
C3387 C 0.64661 0.40236 0.22284 0.0
C3388 C 0.65216 0.39654 0.2321 0.0
C3389 C 0.64989 0.39664 0.22541 0.0
C3390 C 0.64792 0.40791 0.23368 0.0
C3391 C 0.6511 0.40215 0.23634 0.0
C3392 C 0.64571 0.40802 0.22699 0.0
C3393 C 0.63171 0.40323 0.19267 0.0
C3394 C 0.62762 0.41476 0.19349 0.0
C3395 C 0.6274 0.40894 0.18272 0.0
C3396 C 0.63025 0.40324 0.18575 0.0
C3397 C 0.62595 0.41472 0.18658 0.0
C3398 C 0.63049 0.40906 0.19651 0.0
C3399 C 0.63408 0.39697 0.19584 0.0
O3400 O 0.64633 0.38416 0.2065 0.0
O3401 O 0.63667 0.38394 0.2119 0.0
O3402 O 0.6308 0.39515 0.20132 0.0
O3403 O 0.64065 0.39623 0.19636 0.0
H3404 H 0.63422 0.38071 0.19791 0.0
H3405 H 0.62951 0.37113 0.19173 0.0
H3406 H 0.63926 0.3574 0.20558 0.0
H3407 H 0.64399 0.36707 0.21178 0.0
H3408 H 0.65454 0.39202 0.23403 0.0
H3409 H 0.65058 0.3922 0.22228 0.0
H3410 H 0.6471 0.41232 0.23681 0.0
H3411 H 0.64317 0.41247 0.22509 0.0
H3412 H 0.62664 0.41916 0.19657 0.0
H3413 H 0.62611 0.40873 0.17741 0.0
H3414 H 0.63114 0.39878 0.18272 0.0
H3415 H 0.63162 0.40914 0.20186 0.0
C3416 C 0.88294 0.3874 0.45671 0.0
C3417 C 0.88377 0.38042 0.4557 0.0
C3418 C 0.89433 0.38235 0.44976 0.0
C3419 C 0.88939 0.37794 0.45228 0.0
C3420 C 0.89355 0.38933 0.45078 0.0
C3421 C 0.88792 0.39183 0.45427 0.0
U3422 U 0.86398 0.38909 0.45708 0.0
O3423 O 0.85663 0.38736 0.46521 0.0
O3424 O 0.85716 0.39727 0.46026 0.0
C3425 C 0.85456 0.39366 0.4652 0.0
C3426 C 0.87682 0.39007 0.46007 0.0
C3427 C 0.85431 0.39687 0.47189 0.0
C3428 C 0.85958 0.40313 0.48103 0.0
C3429 C 0.85984 0.40044 0.47449 0.0
C3430 C 0.84828 0.39866 0.48241 0.0
C3431 C 0.85381 0.40223 0.4851 0.0
C3432 C 0.84853 0.39603 0.47587 0.0
C3433 C 0.85455 0.38056 0.44242 0.0
C3434 C 0.84303 0.37636 0.44263 0.0
C3435 C 0.84912 0.37699 0.43203 0.0
C3436 C 0.85472 0.37963 0.43541 0.0
C3437 C 0.84325 0.3752 0.43561 0.0
C3438 C 0.84863 0.37904 0.446 0.0
C3439 C 0.86072 0.38274 0.44592 0.0
O3440 O 0.87354 0.39481 0.45677 0.0
O3441 O 0.87279 0.38552 0.46275 0.0
O3442 O 0.86202 0.37965 0.45164 0.0
O3443 O 0.86181 0.38928 0.44616 0.0
H3444 H 0.88002 0.37685 0.45745 0.0
H3445 H 0.88979 0.37254 0.45148 0.0
H3446 H 0.89729 0.39285 0.44891 0.0
H3447 H 0.8874 0.39723 0.45498 0.0
H3448 H 0.8639 0.4059 0.4829 0.0
H3449 H 0.86437 0.4011 0.4715 0.0
H3450 H 0.84381 0.39774 0.48541 0.0
H3451 H 0.84424 0.39322 0.47396 0.0
H3452 H 0.83863 0.37498 0.44556 0.0
H3453 H 0.84942 0.37628 0.42662 0.0
H3454 H 0.85924 0.38081 0.43256 0.0
H3455 H 0.8484 0.37974 0.45142 0.0
C3456 C 0.86922 0.37444 0.80014 0.0
C3457 C 0.87599 0.37453 0.80226 0.0
C3458 C 0.87473 0.36338 0.80721 0.0
C3459 C 0.87872 0.36904 0.80572 0.0
C3460 C 0.86793 0.36331 0.80517 0.0
C3461 C 0.86521 0.36879 0.80163 0.0
U3462 U 0.86709 0.39326 0.79919 0.0
O3463 O 0.8686 0.4004 0.79084 0.0
O3464 O 0.85875 0.39981 0.79588 0.0
C3465 C 0.86225 0.4023 0.79081 0.0
C3466 C 0.86631 0.38033 0.79661 0.0
C3467 C 0.85902 0.40209 0.78414 0.0
C3468 C 0.85342 0.3959 0.77515 0.0
C3469 C 0.85595 0.39617 0.78173 0.0
C3470 C 0.85694 0.40747 0.77333 0.0
C3471 C 0.85396 0.40153 0.77082 0.0
C3472 C 0.85943 0.40774 0.77992 0.0
C3473 C 0.87572 0.40316 0.81352 0.0
C3474 C 0.87944 0.41483 0.81301 0.0
C3475 C 0.87999 0.40869 0.82359 0.0
C3476 C 0.87727 0.40301 0.82042 0.0
C3477 C 0.88122 0.41462 0.81989 0.0
C3478 C 0.87669 0.40914 0.80985 0.0
C3479 C 0.87353 0.39691 0.81018 0.0
O3480 O 0.86157 0.3836 0.7999 0.0
O3481 O 0.87073 0.38435 0.79371 0.0
O3482 O 0.87657 0.39552 0.80444 0.0
O3483 O 0.867 0.39577 0.81004 0.0
H3484 H 0.87919 0.37886 0.80131 0.0
H3485 H 0.88393 0.36929 0.80733 0.0
H3486 H 0.86475 0.359 0.80627 0.0
H3487 H 0.85996 0.36864 0.80008 0.0
H3488 H 0.85108 0.39127 0.77343 0.0
H3489 H 0.85564 0.39173 0.78491 0.0
H3490 H 0.85756 0.41186 0.77013 0.0
H3491 H 0.86185 0.41233 0.78168 0.0
H3492 H 0.88026 0.41935 0.81006 0.0
H3493 H 0.88137 0.40834 0.82887 0.0
H3494 H 0.87657 0.39842 0.82331 0.0
H3495 H 0.87549 0.40936 0.80452 0.0
C3496 C 0.88232 0.61916 0.05091 0.0
C3497 C 0.88205 0.62579 0.05341 0.0
C3498 C 0.89337 0.62469 0.05797 0.0
C3499 C 0.88753 0.62853 0.05686 0.0
C3500 C 0.89362 0.61801 0.05558 0.0
C3501 C 0.88814 0.61527 0.05204 0.0
U3502 U 0.86352 0.61724 0.04976 0.0
O3503 O 0.85649 0.61874 0.04133 0.0
O3504 O 0.8569 0.60894 0.04649 0.0
C3505 C 0.8545 0.61242 0.04136 0.0
C3506 C 0.87647 0.61627 0.04732 0.0
C3507 C 0.85472 0.6091 0.03473 0.0
C3508 C 0.86092 0.60341 0.0258 0.0
C3509 C 0.86064 0.60602 0.03236 0.0
C3510 C 0.84935 0.6069 0.02394 0.0
C3511 C 0.8553 0.60391 0.02147 0.0
C3512 C 0.84906 0.60946 0.0305 0.0
C3513 C 0.85355 0.62613 0.06387 0.0
C3514 C 0.84206 0.63035 0.06316 0.0
C3515 C 0.84783 0.6301 0.07395 0.0
C3516 C 0.85351 0.62732 0.07084 0.0
C3517 C 0.84209 0.63177 0.07013 0.0
C3518 C 0.84775 0.62753 0.06006 0.0
C3519 C 0.85983 0.62385 0.06063 0.0
O3520 O 0.8731 0.6116 0.05063 0.0
O3521 O 0.87254 0.6207 0.04434 0.0
O3522 O 0.86133 0.6268 0.05489 0.0
O3523 O 0.8609 0.6173 0.06059 0.0
H3524 H 0.87758 0.62886 0.05274 0.0
H3525 H 0.88714 0.63364 0.05876 0.0
H3526 H 0.89808 0.61494 0.05639 0.0
H3527 H 0.88843 0.61013 0.0502 0.0
H3528 H 0.86556 0.60107 0.0241 0.0
H3529 H 0.86508 0.60574 0.03554 0.0
H3530 H 0.84496 0.60748 0.02073 0.0
H3531 H 0.84448 0.61189 0.03223 0.0
H3532 H 0.83768 0.6315 0.0601 0.0
H3533 H 0.84803 0.63119 0.07931 0.0
H3534 H 0.85796 0.62628 0.07385 0.0
H3535 H 0.84767 0.6266 0.05467 0.0
C3536 C 0.63827 0.63211 0.30203 0.0
C3537 C 0.6333 0.63087 0.30693 0.0
C3538 C 0.63332 0.64272 0.31014 0.0
C3539 C 0.63083 0.63611 0.31091 0.0
C3540 C 0.63833 0.64394 0.30525 0.0
C3541 C 0.64079 0.63867 0.30122 0.0
U3542 U 0.63947 0.61351 0.30009 0.0
O3543 O 0.63747 0.60668 0.29158 0.0
O3544 O 0.64742 0.60664 0.29647 0.0
C3545 C 0.6437 0.60442 0.29143 0.0
C3546 C 0.64077 0.62647 0.29791 0.0
C3547 C 0.64688 0.60448 0.28472 0.0
C3548 C 0.65286 0.6103 0.27573 0.0
C3549 C 0.65022 0.61023 0.28229 0.0
C3550 C 0.64886 0.59887 0.27401 0.0
C3551 C 0.65214 0.60464 0.27147 0.0
C3552 C 0.64627 0.5988 0.28057 0.0
C3553 C 0.63096 0.60379 0.3147 0.0
C3554 C 0.62621 0.59249 0.31446 0.0
C3555 C 0.62733 0.59842 0.3251 0.0
C3556 C 0.63017 0.60391 0.32173 0.0
C3557 C 0.62519 0.59269 0.3215 0.0
C3558 C 0.62908 0.59799 0.31109 0.0
C3559 C 0.63328 0.60992 0.31125 0.0
O3560 O 0.64552 0.62282 0.30076 0.0
O3561 O 0.63599 0.62279 0.29514 0.0
O3562 O 0.63011 0.61146 0.30563 0.0
O3563 O 0.63984 0.61082 0.31089 0.0
H3564 H 0.6313 0.62584 0.30765 0.0
H3565 H 0.62688 0.63499 0.31452 0.0
H3566 H 0.6404 0.64896 0.30457 0.0
H3567 H 0.64466 0.6397 0.29749 0.0
H3568 H 0.65542 0.6148 0.27398 0.0
H3569 H 0.65072 0.61468 0.28542 0.0
H3570 H 0.6481 0.59447 0.27086 0.0
H3571 H 0.64366 0.59434 0.28236 0.0
H3572 H 0.62456 0.58819 0.31152 0.0
H3573 H 0.62674 0.59869 0.33053 0.0
H3574 H 0.63161 0.60834 0.3246 0.0
H3575 H 0.62965 0.5978 0.30565 0.0
C3576 C 0.62449 0.39065 0.55144 0.0
C3577 C 0.62532 0.38737 0.55766 0.0
C3578 C 0.61316 0.38596 0.55869 0.0
C3579 C 0.61972 0.38504 0.56125 0.0
C3580 C 0.61235 0.38943 0.55253 0.0
C3581 C 0.61797 0.39174 0.54893 0.0
U3582 U 0.64332 0.39058 0.54971 0.0
O3583 O 0.64987 0.3876 0.54126 0.0
O3584 O 0.65059 0.39783 0.54549 0.0
C3585 C 0.65247 0.39367 0.54066 0.0
C3586 C 0.63043 0.39246 0.54741 0.0
C3587 C 0.65253 0.39641 0.53375 0.0
C3588 C 0.64783 0.40352 0.52492 0.0
C3589 C 0.64769 0.4011 0.53157 0.0
C3590 C 0.65755 0.39648 0.52257 0.0
C3591 C 0.65274 0.40119 0.52035 0.0
C3592 C 0.65746 0.39413 0.52922 0.0
C3593 C 0.65302 0.38253 0.56445 0.0
C3594 C 0.66437 0.37793 0.56382 0.0
C3595 C 0.65844 0.3782 0.57452 0.0
C3596 C 0.65292 0.38126 0.57139 0.0
C3597 C 0.66416 0.37634 0.57074 0.0
C3598 C 0.65883 0.38101 0.56069 0.0
C3599 C 0.64683 0.38495 0.56117 0.0
O3600 O 0.63434 0.39714 0.55004 0.0
O3601 O 0.63381 0.38725 0.54509 0.0
O3602 O 0.64492 0.3815 0.55583 0.0
O3603 O 0.64626 0.39151 0.56041 0.0
H3604 H 0.63033 0.38644 0.55965 0.0
H3605 H 0.62055 0.38231 0.56591 0.0
H3606 H 0.60736 0.3903 0.55046 0.0
H3607 H 0.61725 0.39426 0.54413 0.0
H3608 H 0.64403 0.40711 0.52333 0.0
H3609 H 0.6438 0.40288 0.53498 0.0
H3610 H 0.66143 0.39465 0.51918 0.0
H3611 H 0.66122 0.39049 0.53081 0.0
H3612 H 0.66869 0.37653 0.56077 0.0
H3613 H 0.65817 0.37714 0.57988 0.0
H3614 H 0.64848 0.38244 0.57437 0.0
H3615 H 0.65899 0.38197 0.5553 0.0
C3616 C 0.70577 0.86721 0.6328 0.0
C3617 C 0.69972 0.87076 0.63184 0.0
C3618 C 0.69842 0.87203 0.64399 0.0
C3619 C 0.69609 0.87315 0.63738 0.0
C3620 C 0.70441 0.86832 0.64493 0.0
C3621 C 0.70807 0.86594 0.63936 0.0
U3622 U 0.70752 0.86718 0.61402 0.0
O3623 O 0.71598 0.86979 0.60736 0.0
O3624 O 0.71149 0.85967 0.60683 0.0
C3625 C 0.71648 0.86362 0.60495 0.0
C3626 C 0.70979 0.86523 0.6269 0.0
C3627 C 0.72327 0.86066 0.60536 0.0
C3628 C 0.73363 0.85863 0.6116 0.0
C3629 C 0.72701 0.86107 0.61136 0.0
C3630 C 0.73275 0.85511 0.59991 0.0
C3631 C 0.7366 0.85569 0.60585 0.0
C3632 C 0.72614 0.8576 0.59966 0.0
C3633 C 0.69268 0.87605 0.60489 0.0
C3634 C 0.69184 0.8783 0.59286 0.0
C3635 C 0.68372 0.88318 0.6006 0.0
C3636 C 0.68693 0.88001 0.60599 0.0
C3637 C 0.68619 0.88245 0.59399 0.0
C3638 C 0.6951 0.87514 0.5983 0.0
C3639 C 0.69623 0.87332 0.61079 0.0
O3640 O 0.707 0.86064 0.623 0.0
O3641 O 0.71232 0.87033 0.62351 0.0
O3642 O 0.70178 0.87653 0.61249 0.0
O3643 O 0.69678 0.86672 0.61117 0.0
H3644 H 0.6979 0.87182 0.6268 0.0
H3645 H 0.69157 0.87609 0.63645 0.0
H3646 H 0.70631 0.8673 0.64995 0.0
H3647 H 0.71274 0.86321 0.64017 0.0
H3648 H 0.73644 0.85907 0.61627 0.0
H3649 H 0.72486 0.86337 0.61583 0.0
H3650 H 0.73492 0.85291 0.5954 0.0
H3651 H 0.72332 0.85724 0.59499 0.0
H3652 H 0.69387 0.87768 0.58782 0.0
H3653 H 0.67932 0.88628 0.60161 0.0
H3654 H 0.68501 0.88075 0.61106 0.0
H3655 H 0.69957 0.87212 0.59738 0.0
C3656 C 0.20515 0.64023 0.37565 0.0
C3657 C 0.19925 0.63654 0.37695 0.0
C3658 C 0.19788 0.63437 0.36495 0.0
C3659 C 0.19565 0.63363 0.37165 0.0
C3660 C 0.20363 0.63832 0.36364 0.0
C3661 C 0.20727 0.64121 0.36897 0.0
U3662 U 0.20762 0.64048 0.39431 0.0
O3663 O 0.21643 0.63804 0.40059 0.0
O3664 O 0.21166 0.64801 0.40141 0.0
C3665 C 0.21677 0.64415 0.40315 0.0
C3666 C 0.20933 0.64247 0.38134 0.0
C3667 C 0.22348 0.64727 0.40286 0.0
C3668 C 0.23232 0.65315 0.39671 0.0
C3669 C 0.22574 0.65059 0.39702 0.0
C3670 C 0.23441 0.64912 0.40807 0.0
C3671 C 0.23676 0.65239 0.40221 0.0
C3672 C 0.22783 0.6466 0.40839 0.0
C3673 C 0.1937 0.63135 0.40444 0.0
C3674 C 0.19422 0.62403 0.41428 0.0
C3675 C 0.18365 0.62935 0.41121 0.0
C3676 C 0.18683 0.63249 0.40574 0.0
C3677 C 0.18729 0.62497 0.41544 0.0
C3678 C 0.19741 0.62722 0.40885 0.0
C3679 C 0.19671 0.63406 0.39819 0.0
O3680 O 0.20653 0.64697 0.38534 0.0
O3681 O 0.21219 0.63749 0.38466 0.0
O3682 O 0.20218 0.631 0.39601 0.0
O3683 O 0.19699 0.64067 0.39763 0.0
H3684 H 0.19755 0.63573 0.38208 0.0
H3685 H 0.19119 0.63068 0.37279 0.0
H3686 H 0.20547 0.63894 0.35852 0.0
H3687 H 0.21184 0.64401 0.3679 0.0
H3688 H 0.23392 0.6557 0.39215 0.0
H3689 H 0.22245 0.65112 0.39269 0.0
H3690 H 0.23771 0.64833 0.41235 0.0
H3691 H 0.22619 0.644 0.41291 0.0
H3692 H 0.19716 0.62075 0.41751 0.0
H3693 H 0.17829 0.63013 0.41196 0.0
H3694 H 0.18387 0.63564 0.40239 0.0
H3695 H 0.20273 0.62629 0.408 0.0
C3696 C 0.61731 0.95569 0.62471 0.0
C3697 C 0.62092 0.94965 0.62551 0.0
C3698 C 0.62184 0.94844 0.61332 0.0
C3699 C 0.62317 0.94607 0.61988 0.0
C3700 C 0.61807 0.95442 0.61254 0.0
C3701 C 0.61583 0.95802 0.6182 0.0
U3702 U 0.61757 0.95754 0.64355 0.0
O3703 O 0.62014 0.96617 0.65004 0.0
O3704 O 0.61014 0.96146 0.65082 0.0
C3705 C 0.61405 0.96652 0.65263 0.0
C3706 C 0.61546 0.95969 0.63066 0.0
C3707 C 0.61095 0.97325 0.65243 0.0
C3708 C 0.60496 0.9821 0.64642 0.0
C3709 C 0.60756 0.97554 0.64665 0.0
C3710 C 0.6091 0.98413 0.65775 0.0
C3711 C 0.60575 0.98651 0.65195 0.0
C3712 C 0.61167 0.97757 0.65798 0.0
C3713 C 0.62622 0.94301 0.65318 0.0
C3714 C 0.63121 0.94347 0.66438 0.0
C3715 C 0.62989 0.93272 0.65871 0.0
C3716 C 0.62696 0.93598 0.65319 0.0
C3717 C 0.63217 0.93643 0.66432 0.0
C3718 C 0.62825 0.94674 0.65886 0.0
C3719 C 0.62369 0.94633 0.64705 0.0
O3720 O 0.61093 0.95691 0.63465 0.0
O3721 O 0.62063 0.9622 0.63396 0.0
O3722 O 0.62691 0.95183 0.64519 0.0
O3723 O 0.6171 0.94681 0.64647 0.0
H3724 H 0.62214 0.9478 0.63052 0.0
H3725 H 0.62615 0.94156 0.62068 0.0
H3726 H 0.61689 0.95634 0.60756 0.0
H3727 H 0.61305 0.96267 0.61749 0.0
H3728 H 0.60234 0.98373 0.6419 0.0
H3729 H 0.60699 0.97228 0.64229 0.0
H3730 H 0.60991 0.9874 0.66205 0.0
H3731 H 0.61432 0.97589 0.66246 0.0
H3732 H 0.63295 0.94649 0.66859 0.0
H3733 H 0.63043 0.92728 0.65854 0.0
H3734 H 0.62539 0.93302 0.64886 0.0
H3735 H 0.62771 0.95218 0.65894 0.0
C3736 C 0.30281 0.36722 0.87486 0.0
C3737 C 0.30892 0.37072 0.87558 0.0
C3738 C 0.30983 0.37187 0.86338 0.0
C3739 C 0.31239 0.37303 0.8699 0.0
C3740 C 0.3038 0.36818 0.86268 0.0
C3741 C 0.3003 0.36588 0.86838 0.0
U3742 U 0.3013 0.36762 0.8937 0.0
O3743 O 0.29289 0.3706 0.9003 0.0
O3744 O 0.29724 0.36043 0.90114 0.0
C3745 C 0.2924 0.36457 0.90302 0.0
C3746 C 0.29887 0.36545 0.88088 0.0
C3747 C 0.28553 0.36176 0.90319 0.0
C3748 C 0.27648 0.35513 0.8982 0.0
C3749 C 0.28314 0.35752 0.89804 0.0
C3750 C 0.27456 0.36126 0.90862 0.0
C3751 C 0.27211 0.35704 0.90347 0.0
C3752 C 0.28121 0.36358 0.90849 0.0
C3753 C 0.31581 0.37602 0.90326 0.0
C3754 C 0.31489 0.37972 0.91491 0.0
C3755 C 0.32549 0.38096 0.90891 0.0
C3756 C 0.32258 0.37804 0.90318 0.0
C3757 C 0.32164 0.38194 0.9148 0.0
C3758 C 0.312 0.37677 0.90918 0.0
C3759 C 0.31269 0.37351 0.89702 0.0
O3760 O 0.30163 0.36089 0.88484 0.0
O3761 O 0.29651 0.37068 0.88419 0.0
O3762 O 0.30729 0.37683 0.89506 0.0
O3763 O 0.31204 0.36693 0.89653 0.0
H3764 H 0.3109 0.37184 0.88056 0.0
H3765 H 0.31695 0.37595 0.87066 0.0
H3766 H 0.30173 0.36713 0.85773 0.0
H3767 H 0.29558 0.3632 0.86774 0.0
H3768 H 0.27471 0.35193 0.89414 0.0
H3769 H 0.28638 0.35611 0.89386 0.0
H3770 H 0.27133 0.36275 0.91278 0.0
H3771 H 0.28298 0.36686 0.91249 0.0
H3772 H 0.31183 0.38033 0.91939 0.0
H3773 H 0.33067 0.38268 0.90865 0.0
H3774 H 0.32558 0.37751 0.89864 0.0
H3775 H 0.30676 0.37521 0.90932 0.0
C3776 C 0.38976 0.55197 0.6243 0.0
C3777 C 0.38538 0.55746 0.62518 0.0
C3778 C 0.38503 0.55928 0.61303 0.0
C3779 C 0.38303 0.56107 0.61961 0.0
C3780 C 0.38958 0.55387 0.61219 0.0
C3781 C 0.39191 0.55024 0.61779 0.0
U3782 U 0.38953 0.54953 0.64309 0.0
O3783 O 0.38732 0.54066 0.64933 0.0
O3784 O 0.39714 0.54571 0.65025 0.0
C3785 C 0.3934 0.54051 0.65198 0.0
C3786 C 0.39179 0.5479 0.63015 0.0
C3787 C 0.39677 0.5339 0.65186 0.0
C3788 C 0.39957 0.52339 0.64619 0.0
C3789 C 0.39677 0.52988 0.64603 0.0
C3790 C 0.40258 0.52499 0.65794 0.0
C3791 C 0.40244 0.52085 0.65217 0.0
C3792 C 0.39975 0.53145 0.65778 0.0
C3793 C 0.38025 0.56312 0.65341 0.0
C3794 C 0.3735 0.56212 0.66362 0.0
C3795 C 0.37821 0.57296 0.66046 0.0
C3796 C 0.38116 0.57001 0.65476 0.0
C3797 C 0.37425 0.56907 0.66488 0.0
C3798 C 0.3765 0.55917 0.65795 0.0
C3799 C 0.38291 0.56029 0.64705 0.0
O3800 O 0.39615 0.55079 0.63424 0.0
O3801 O 0.38674 0.54502 0.63336 0.0
O3802 O 0.37994 0.55479 0.64483 0.0
O3803 O 0.38951 0.56016 0.64641 0.0
H3804 H 0.38365 0.55885 0.63019 0.0
H3805 H 0.37945 0.56511 0.62046 0.0
H3806 H 0.3913 0.55242 0.60721 0.0
H3807 H 0.3953 0.54602 0.61702 0.0
H3808 H 0.39946 0.52036 0.64164 0.0
H3809 H 0.39452 0.53171 0.64139 0.0
H3810 H 0.40468 0.52316 0.66264 0.0
H3811 H 0.39978 0.53449 0.66233 0.0
H3812 H 0.37053 0.55899 0.66698 0.0
H3813 H 0.37883 0.57833 0.66127 0.0
H3814 H 0.38402 0.57316 0.65131 0.0
H3815 H 0.37577 0.55382 0.65706 0.0
C3816 C 0.80152 0.14011 0.13231 0.0
C3817 C 0.80769 0.13676 0.13144 0.0
C3818 C 0.80865 0.13519 0.14359 0.0
C3819 C 0.81122 0.13431 0.13702 0.0
C3820 C 0.80255 0.13874 0.14444 0.0
C3821 C 0.799 0.14117 0.13883 0.0
U3822 U 0.7997 0.13997 0.11349 0.0
O3823 O 0.79109 0.13736 0.10699 0.0
O3824 O 0.79575 0.14739 0.10623 0.0
C3825 C 0.79071 0.14346 0.10441 0.0
C3826 C 0.79753 0.14203 0.12637 0.0
C3827 C 0.78396 0.14652 0.10465 0.0
C3828 C 0.77507 0.15236 0.11076 0.0
C3829 C 0.78166 0.14982 0.11048 0.0
C3830 C 0.77306 0.14834 0.09938 0.0
C3831 C 0.77067 0.1516 0.10523 0.0
C3832 C 0.77965 0.14583 0.0991 0.0
C3833 C 0.81411 0.13132 0.10378 0.0
C3834 C 0.81337 0.12699 0.09233 0.0
C3835 C 0.8241 0.12696 0.09819 0.0
C3836 C 0.82103 0.12989 0.10382 0.0
C3837 C 0.82029 0.12537 0.09242 0.0
C3838 C 0.8103 0.12995 0.09797 0.0
C3839 C 0.81092 0.13385 0.10998 0.0
O3840 O 0.80032 0.14657 0.12241 0.0
O3841 O 0.795 0.13688 0.12304 0.0
O3842 O 0.80543 0.13063 0.11187 0.0
O3843 O 0.81042 0.14044 0.11054 0.0
H3844 H 0.80967 0.13585 0.12642 0.0
H3845 H 0.81583 0.13151 0.13616 0.0
H3846 H 0.80047 0.13956 0.14943 0.0
H3847 H 0.79423 0.14374 0.13958 0.0
H3848 H 0.77344 0.15491 0.11531 0.0
H3849 H 0.78492 0.15036 0.11484 0.0
H3850 H 0.76979 0.14755 0.09507 0.0
H3851 H 0.78133 0.14324 0.09458 0.0
H3852 H 0.81031 0.1259 0.08793 0.0
H3853 H 0.82942 0.12571 0.09845 0.0
H3854 H 0.82404 0.1309 0.10828 0.0
H3855 H 0.80495 0.13105 0.09784 0.0
C3856 C 0.61676 0.05137 0.88235 0.0
C3857 C 0.62051 0.05731 0.88145 0.0
C3858 C 0.62148 0.05866 0.89362 0.0
C3859 C 0.62286 0.06091 0.88702 0.0
C3860 C 0.61758 0.05278 0.89449 0.0
C3861 C 0.61524 0.04916 0.88889 0.0
U3862 U 0.61716 0.0496 0.86359 0.0
O3863 O 0.61976 0.04104 0.85704 0.0
O3864 O 0.60982 0.04585 0.85614 0.0
C3865 C 0.61371 0.04077 0.85435 0.0
C3866 C 0.61483 0.04737 0.87642 0.0
C3867 C 0.61056 0.03406 0.85449 0.0
C3868 C 0.60463 0.02516 0.86051 0.0
C3869 C 0.60719 0.03173 0.86028 0.0
C3870 C 0.60873 0.02319 0.84915 0.0
C3871 C 0.60543 0.02077 0.85497 0.0
C3872 C 0.61126 0.02977 0.84892 0.0
C3873 C 0.62644 0.06423 0.85459 0.0
C3874 C 0.62825 0.06529 0.8425 0.0
C3875 C 0.63392 0.07288 0.85024 0.0
C3876 C 0.63079 0.06968 0.85568 0.0
C3877 C 0.63275 0.07067 0.8436 0.0
C3878 C 0.62513 0.06206 0.84797 0.0
C3879 C 0.62359 0.06077 0.86049 0.0
O3880 O 0.61039 0.05024 0.8724 0.0
O3881 O 0.61996 0.04474 0.87315 0.0
O3882 O 0.62666 0.05516 0.86225 0.0
O3883 O 0.61697 0.06036 0.8608 0.0
H3884 H 0.62176 0.05906 0.87642 0.0
H3885 H 0.62595 0.06533 0.88614 0.0
H3886 H 0.61637 0.05096 0.8995 0.0
H3887 H 0.61236 0.04458 0.88966 0.0
H3888 H 0.60204 0.02351 0.86503 0.0
H3889 H 0.60664 0.03498 0.86465 0.0
H3890 H 0.60954 0.01993 0.84483 0.0
H3891 H 0.6139 0.03146 0.84444 0.0
H3892 H 0.62729 0.06346 0.83744 0.0
H3893 H 0.63729 0.07707 0.85124 0.0
H3894 H 0.63185 0.07142 0.86076 0.0
H3895 H 0.6218 0.05782 0.84706 0.0
C3896 C 0.88746 0.95741 0.38239 0.0
C3897 C 0.88047 0.95722 0.38368 0.0
C3898 C 0.88233 0.95042 0.39373 0.0
C3899 C 0.87795 0.95377 0.38927 0.0
C3900 C 0.88932 0.95073 0.39255 0.0
C3901 C 0.89186 0.95422 0.38694 0.0
U3902 U 0.88921 0.95728 0.3634 0.0
O3903 O 0.88741 0.96518 0.35583 0.0
O3904 O 0.89738 0.96038 0.35652 0.0
C3905 C 0.89374 0.96525 0.35384 0.0
C3906 C 0.8901 0.96063 0.37617 0.0
C3907 C 0.89683 0.972 0.35361 0.0
C3908 C 0.90305 0.98115 0.35893 0.0
C3909 C 0.90067 0.97449 0.35902 0.0
C3910 C 0.89781 0.98285 0.348 0.0
C3911 C 0.90154 0.98543 0.35346 0.0
C3912 C 0.89549 0.97619 0.34807 0.0
C3913 C 0.88066 0.94225 0.35455 0.0
C3914 C 0.87962 0.94101 0.34239 0.0
C3915 C 0.87395 0.93315 0.34985 0.0
C3916 C 0.87657 0.93656 0.35544 0.0
C3917 C 0.87539 0.93535 0.34326 0.0
C3918 C 0.88223 0.94444 0.348 0.0
C3919 C 0.88289 0.94599 0.36053 0.0
O3920 O 0.8949 0.95731 0.37298 0.0
O3921 O 0.88554 0.96314 0.37206 0.0
O3922 O 0.87978 0.95176 0.36157 0.0
O3923 O 0.88944 0.94633 0.36153 0.0
H3924 H 0.87691 0.95961 0.38029 0.0
H3925 H 0.87253 0.95356 0.38998 0.0
H3926 H 0.89282 0.94825 0.39594 0.0
H3927 H 0.89726 0.95432 0.3861 0.0
H3928 H 0.90585 0.98302 0.36323 0.0
H3929 H 0.90168 0.97136 0.36339 0.0
H3930 H 0.89662 0.98601 0.3437 0.0
H3931 H 0.89251 0.97436 0.34387 0.0
H3932 H 0.8809 0.9428 0.33738 0.0
H3933 H 0.87062 0.9289 0.35073 0.0
H3934 H 0.87527 0.93484 0.36047 0.0
H3935 H 0.88537 0.94885 0.34724 0.0
C3936 C 0.37161 0.30397 0.14076 0.0
C3937 C 0.37168 0.31049 0.13801 0.0
C3938 C 0.3595 0.31002 0.13641 0.0
C3939 C 0.36567 0.3135 0.13588 0.0
C3940 C 0.35945 0.30355 0.13934 0.0
C3941 C 0.36547 0.30055 0.14149 0.0
U3942 U 0.39072 0.30327 0.14011 0.0
O3943 O 0.39822 0.29933 0.14729 0.0
O3944 O 0.39742 0.29495 0.13713 0.0
C3945 C 0.40015 0.29451 0.14315 0.0
C3946 C 0.37796 0.3005 0.14234 0.0
C3947 C 0.40049 0.28764 0.14594 0.0
C3948 C 0.3967 0.27893 0.15371 0.0
C3949 C 0.39631 0.28555 0.15128 0.0
C3950 C 0.40536 0.27642 0.14544 0.0
C3951 C 0.4012 0.27429 0.15077 0.0
C3952 C 0.40502 0.28303 0.14306 0.0
C3953 C 0.40074 0.31722 0.1319 0.0
C3954 C 0.41262 0.31548 0.1294 0.0
C3955 C 0.40725 0.32609 0.12654 0.0
C3956 C 0.40115 0.32373 0.12919 0.0
C3957 C 0.41303 0.32195 0.12653 0.0
C3958 C 0.40652 0.31313 0.13208 0.0
C3959 C 0.39421 0.31458 0.1342 0.0
O3960 O 0.38129 0.29835 0.13702 0.0
O3961 O 0.38186 0.30347 0.14683 0.0
O3962 O 0.39351 0.31401 0.14078 0.0
O3963 O 0.39209 0.30924 0.13088 0.0
H3964 H 0.3764 0.31317 0.13735 0.0
H3965 H 0.36589 0.31845 0.13356 0.0
H3966 H 0.35477 0.30077 0.13988 0.0
H3967 H 0.36534 0.29549 0.14358 0.0
H3968 H 0.3934 0.2774 0.1578 0.0
H3969 H 0.39273 0.28901 0.15354 0.0
H3970 H 0.40893 0.27297 0.14314 0.0
H3971 H 0.40828 0.28456 0.13894 0.0
H3972 H 0.41699 0.3122 0.12953 0.0
H3973 H 0.40738 0.33107 0.12429 0.0
H3974 H 0.39673 0.32693 0.12899 0.0
H3975 H 0.40628 0.30809 0.13417 0.0
C3976 C 0.45265 0.62151 0.89033 0.0
C3977 C 0.44644 0.62164 0.88693 0.0
C3978 C 0.44736 0.6096 0.8846 0.0
C3979 C 0.44381 0.61574 0.8841 0.0
C3980 C 0.45346 0.60946 0.88824 0.0
C3981 C 0.45608 0.61538 0.89107 0.0
U3982 U 0.453 0.64063 0.8909 0.0
O3983 O 0.45625 0.64765 0.8989 0.0
O3984 O 0.46133 0.64767 0.88904 0.0
C3985 C 0.46129 0.64998 0.89526 0.0
C3986 C 0.45582 0.6278 0.8926 0.0
C3987 C 0.46791 0.65011 0.89857 0.0
C3988 C 0.47861 0.64475 0.90121 0.0
C3989 C 0.47203 0.64436 0.89867 0.0
C3990 C 0.47687 0.65658 0.90382 0.0
C3991 C 0.48113 0.6509 0.90371 0.0
C3992 C 0.47032 0.65618 0.90125 0.0
C3993 C 0.43953 0.65081 0.88198 0.0
C3994 C 0.44125 0.66272 0.87961 0.0
C3995 C 0.4307 0.65732 0.87657 0.0
C3996 C 0.43305 0.65122 0.8792 0.0
C3997 C 0.43481 0.66312 0.87665 0.0
C3998 C 0.44358 0.65662 0.88227 0.0
C3999 C 0.44217 0.64426 0.88423 0.0
O4000 O 0.45838 0.63148 0.88771 0.0
O4001 O 0.45238 0.63137 0.89702 0.0
O4002 O 0.44219 0.64325 0.89079 0.0
O4003 O 0.44782 0.64241 0.88128 0.0
H4004 H 0.44373 0.62635 0.8863 0.0
H4005 H 0.43906 0.616 0.88142 0.0
H4006 H 0.45636 0.60485 0.88866 0.0
H4007 H 0.4609 0.6152 0.89364 0.0
H4008 H 0.48174 0.64027 0.90113 0.0
H4009 H 0.47023 0.63961 0.89663 0.0
H4010 H 0.47869 0.6614 0.90565 0.0
H4011 H 0.4672 0.66068 0.90119 0.0
H4012 H 0.4445 0.66711 0.87981 0.0
H4013 H 0.42575 0.65744 0.87425 0.0
H4014 H 0.42987 0.64677 0.87893 0.0
H4015 H 0.4486 0.65639 0.88443 0.0
C4016 C 0.13632 0.70304 0.63985 0.0
C4017 C 0.13637 0.69642 0.63735 0.0
C4018 C 0.14844 0.69725 0.63515 0.0
C4019 C 0.14238 0.69353 0.63505 0.0
C4020 C 0.14837 0.70385 0.63776 0.0
C4021 C 0.14235 0.70672 0.64009 0.0
U4022 U 0.11719 0.70328 0.63991 0.0
O4023 O 0.10993 0.70653 0.64768 0.0
O4024 O 0.11009 0.71149 0.63776 0.0
C4025 C 0.10758 0.71146 0.6439 0.0
C4026 C 0.12995 0.70628 0.6418 0.0
C4027 C 0.10706 0.71809 0.64715 0.0
C4028 C 0.11159 0.72923 0.64952 0.0
C4029 C 0.11243 0.72271 0.64696 0.0
C4030 C 0.10011 0.72647 0.65273 0.0
C4031 C 0.10537 0.73122 0.65233 0.0
C4032 C 0.10095 0.71997 0.65014 0.0
C4033 C 0.10721 0.68955 0.63131 0.0
C4034 C 0.09526 0.69123 0.62914 0.0
C4035 C 0.10065 0.68071 0.62597 0.0
C4036 C 0.10679 0.68308 0.62851 0.0
C4037 C 0.09484 0.6848 0.62616 0.0
C4038 C 0.1014 0.69358 0.63171 0.0
C4039 C 0.11377 0.69223 0.6335 0.0
O4040 O 0.12638 0.70862 0.63672 0.0
O4041 O 0.12629 0.703 0.64628 0.0
O4042 O 0.11474 0.69243 0.64006 0.0
O4043 O 0.11562 0.6978 0.63041 0.0
H4044 H 0.13173 0.69353 0.63706 0.0
H4045 H 0.14224 0.68847 0.63298 0.0
H4046 H 0.15296 0.70681 0.63796 0.0
H4047 H 0.14239 0.71185 0.64198 0.0
H4048 H 0.11573 0.73278 0.64909 0.0
H4049 H 0.1172 0.72132 0.64466 0.0
H4050 H 0.0953 0.72781 0.65497 0.0
H4051 H 0.09676 0.71645 0.65036 0.0
H4052 H 0.09087 0.69447 0.62942 0.0
H4053 H 0.10051 0.67577 0.62364 0.0
H4054 H 0.11124 0.67992 0.62815 0.0
H4055 H 0.10164 0.69859 0.63389 0.0
C4056 C 0.05335 0.38655 0.39008 0.0
C4057 C 0.06003 0.38656 0.38773 0.0
C4058 C 0.05924 0.39859 0.38529 0.0
C4059 C 0.06296 0.39254 0.38538 0.0
C4060 C 0.05258 0.39856 0.38776 0.0
C4061 C 0.04966 0.39259 0.39015 0.0
U4062 U 0.05294 0.36744 0.39004 0.0
O4063 O 0.04973 0.36015 0.39782 0.0
O4064 O 0.04466 0.3604 0.38796 0.0
C4065 C 0.04476 0.35785 0.39408 0.0
C4066 C 0.05006 0.3802 0.39205 0.0
C4067 C 0.03816 0.35728 0.3974 0.0
C4068 C 0.02693 0.36161 0.39973 0.0
C4069 C 0.03343 0.36254 0.39713 0.0
C4070 C 0.02995 0.35026 0.40316 0.0
C4071 C 0.02508 0.35541 0.40266 0.0
C4072 C 0.03642 0.35119 0.40054 0.0
C4073 C 0.06656 0.35748 0.38119 0.0
C4074 C 0.06479 0.3457 0.37827 0.0
C4075 C 0.07573 0.35086 0.37649 0.0
C4076 C 0.07328 0.35696 0.37906 0.0
C4077 C 0.07148 0.34519 0.37598 0.0
C4078 C 0.06235 0.35179 0.38088 0.0
C4079 C 0.06389 0.36401 0.38347 0.0
O4080 O 0.04762 0.37668 0.38699 0.0
O4081 O 0.05335 0.37649 0.39647 0.0
O4082 O 0.06377 0.36493 0.39004 0.0
O4083 O 0.05829 0.36591 0.38047 0.0
H4084 H 0.06292 0.38192 0.38757 0.0
H4085 H 0.06806 0.39237 0.38342 0.0
H4086 H 0.04961 0.40315 0.38781 0.0
H4087 H 0.04449 0.39265 0.39192 0.0
H4088 H 0.02329 0.36566 0.39923 0.0
H4089 H 0.0347 0.36729 0.39473 0.0
H4090 H 0.02872 0.34547 0.4055 0.0
H4091 H 0.04003 0.34709 0.40082 0.0
H4092 H 0.06142 0.3414 0.378 0.0
H4093 H 0.0809 0.35065 0.3747 0.0
H4094 H 0.07659 0.36131 0.37926 0.0
H4095 H 0.05715 0.35209 0.38255 0.0
C4096 C 0.37095 0.70302 0.36701 0.0
C4097 C 0.37127 0.69639 0.36948 0.0
C4098 C 0.35937 0.69683 0.37253 0.0
C4099 C 0.36554 0.69332 0.37218 0.0
C4100 C 0.35903 0.70341 0.36987 0.0
C4101 C 0.36478 0.70648 0.36714 0.0
U4102 U 0.3899 0.7036 0.36681 0.0
O4103 O 0.39725 0.70679 0.35907 0.0
O4104 O 0.39701 0.7118 0.36897 0.0
C4105 C 0.39958 0.71172 0.36285 0.0
C4106 C 0.37714 0.70648 0.36486 0.0
C4107 C 0.40018 0.71835 0.35959 0.0
C4108 C 0.39577 0.72953 0.3572 0.0
C4109 C 0.39484 0.72299 0.35971 0.0
C4110 C 0.40729 0.72671 0.35419 0.0
C4111 C 0.40206 0.7315 0.35453 0.0
C4112 C 0.40636 0.7202 0.35671 0.0
C4113 C 0.3994 0.6897 0.37596 0.0
C4114 C 0.41143 0.69065 0.37811 0.0
C4115 C 0.40508 0.68128 0.38277 0.0
C4116 C 0.39922 0.68373 0.37973 0.0
C4117 C 0.41123 0.68479 0.38212 0.0
C4118 C 0.40555 0.6931 0.37507 0.0
C4119 C 0.39307 0.6926 0.37345 0.0
O4120 O 0.38071 0.70901 0.36984 0.0
O4121 O 0.38084 0.70324 0.36039 0.0
O4122 O 0.39233 0.69275 0.36685 0.0
O4123 O 0.39129 0.69826 0.37641 0.0
H4124 H 0.37601 0.69365 0.36945 0.0
H4125 H 0.36596 0.68821 0.37408 0.0
H4126 H 0.35438 0.70628 0.37012 0.0
H4127 H 0.36446 0.71163 0.36531 0.0
H4128 H 0.39165 0.7331 0.35758 0.0
H4129 H 0.39002 0.72163 0.36191 0.0
H4130 H 0.41215 0.72803 0.35205 0.0
H4131 H 0.41052 0.71666 0.35656 0.0
H4132 H 0.41608 0.69348 0.37754 0.0
H4133 H 0.40478 0.6767 0.38573 0.0
H4134 H 0.3945 0.68105 0.38046 0.0
H4135 H 0.40576 0.69774 0.37219 0.0
C4136 C 0.05417 0.62119 0.11617 0.0
C4137 C 0.06073 0.62116 0.11883 0.0
C4138 C 0.05958 0.60926 0.12172 0.0
C4139 C 0.06342 0.61524 0.12155 0.0
C4140 C 0.05311 0.60927 0.11881 0.0
C4141 C 0.05042 0.6152 0.11607 0.0
U4142 U 0.05418 0.64023 0.1164 0.0
O4143 O 0.051 0.64778 0.10887 0.0
O4144 O 0.04614 0.64741 0.11884 0.0
C4145 C 0.04615 0.6501 0.11277 0.0
C4146 C 0.05099 0.62758 0.11417 0.0
C4147 C 0.03947 0.65076 0.10964 0.0
C4148 C 0.02843 0.64618 0.10697 0.0
C4149 C 0.03502 0.64527 0.10932 0.0
C4150 C 0.03079 0.65802 0.105 0.0
C4151 C 0.0262 0.6526 0.10491 0.0
C4152 C 0.03736 0.65711 0.10736 0.0
C4153 C 0.06815 0.64939 0.12569 0.0
C4154 C 0.0672 0.66141 0.12795 0.0
C4155 C 0.07639 0.65496 0.13281 0.0
C4156 C 0.074 0.64914 0.12963 0.0
C4157 C 0.07293 0.66113 0.13213 0.0
C4158 C 0.06481 0.65557 0.12477 0.0
C4159 C 0.06525 0.64311 0.12306 0.0
O4160 O 0.04857 0.6311 0.11924 0.0
O4161 O 0.05439 0.63127 0.10981 0.0
O4162 O 0.06507 0.64252 0.11645 0.0
O4163 O 0.05959 0.64129 0.126 0.0
H4164 H 0.06368 0.62576 0.11899 0.0
H4165 H 0.06846 0.61538 0.12367 0.0
H4166 H 0.04999 0.60478 0.11892 0.0
H4167 H 0.04532 0.61516 0.11409 0.0
H4168 H 0.02501 0.64192 0.10701 0.0
H4169 H 0.03658 0.64033 0.11108 0.0
H4170 H 0.02928 0.663 0.10333 0.0
H4171 H 0.04076 0.66139 0.10756 0.0
H4172 H 0.0644 0.66607 0.12737 0.0
H4173 H 0.08088 0.65461 0.13591 0.0
H4174 H 0.07663 0.64441 0.13039 0.0
H4175 H 0.06025 0.65583 0.12177 0.0
C4176 C 0.13489 0.30282 0.86724 0.0
C4177 C 0.13463 0.3094 0.86982 0.0
C4178 C 0.14664 0.30897 0.87238 0.0
C4179 C 0.14046 0.31246 0.87235 0.0
C4180 C 0.1469 0.30241 0.86965 0.0
C4181 C 0.14106 0.29936 0.8671 0.0
U4182 U 0.11585 0.30235 0.86658 0.0
O4183 O 0.10885 0.29913 0.85856 0.0
O4184 O 0.10872 0.29408 0.86844 0.0
C4185 C 0.10647 0.29412 0.8622 0.0
C4186 C 0.12868 0.29943 0.86506 0.0
C4187 C 0.10634 0.28751 0.85887 0.0
C4188 C 0.1117 0.27685 0.85609 0.0
C4189 C 0.11207 0.28335 0.85882 0.0
C4190 C 0.09995 0.27873 0.85323 0.0
C4191 C 0.10561 0.27444 0.85334 0.0
C4192 C 0.10032 0.2852 0.85598 0.0
C4193 C 0.10587 0.31638 0.87502 0.0
C4194 C 0.09401 0.31521 0.87792 0.0
C4195 C 0.09959 0.32602 0.8792 0.0
C4196 C 0.1056 0.32321 0.87681 0.0
C4197 C 0.09375 0.32204 0.87987 0.0
C4198 C 0.10002 0.31242 0.87549 0.0
C4199 C 0.11233 0.31341 0.87293 0.0
O4200 O 0.12497 0.29704 0.87001 0.0
O4201 O 0.12512 0.30265 0.86046 0.0
O4202 O 0.11345 0.31321 0.86639 0.0
O4203 O 0.11396 0.30778 0.87604 0.0
H4204 H 0.1299 0.31214 0.86998 0.0
H4205 H 0.1401 0.31755 0.87431 0.0
H4206 H 0.15156 0.29957 0.86966 0.0
H4207 H 0.14133 0.29426 0.86516 0.0
H4208 H 0.11616 0.27369 0.85618 0.0
H4209 H 0.11677 0.28508 0.861 0.0
H4210 H 0.09517 0.27699 0.85122 0.0
H4211 H 0.09585 0.28836 0.856 0.0
H4212 H 0.08957 0.31204 0.87832 0.0
H4213 H 0.09958 0.33127 0.88074 0.0
H4214 H 0.11008 0.32634 0.87649 0.0
H4215 H 0.10013 0.30713 0.87408 0.0
C4216 C 0.4537 0.38558 0.61711 0.0
C4217 C 0.4476 0.38526 0.62067 0.0
C4218 C 0.44756 0.39749 0.62189 0.0
C4219 C 0.44456 0.39116 0.62304 0.0
C4220 C 0.45364 0.39778 0.61822 0.0
C4221 C 0.45669 0.39187 0.61585 0.0
U4222 U 0.45432 0.36652 0.61675 0.0
O4223 O 0.45763 0.35942 0.60884 0.0
O4224 O 0.46265 0.35951 0.61873 0.0
C4225 C 0.46264 0.35712 0.61254 0.0
C4226 C 0.45711 0.37935 0.61499 0.0
C4227 C 0.46927 0.35691 0.60925 0.0
C4228 C 0.48 0.36216 0.60653 0.0
C4229 C 0.47345 0.36263 0.6091 0.0
C4230 C 0.47814 0.35033 0.60399 0.0
C4231 C 0.48245 0.35598 0.60404 0.0
C4232 C 0.47161 0.3508 0.60659 0.0
C4233 C 0.4406 0.35644 0.62544 0.0
C4234 C 0.44217 0.34456 0.62808 0.0
C4235 C 0.43146 0.34999 0.63042 0.0
C4236 C 0.43397 0.35606 0.62784 0.0
C4237 C 0.43557 0.34419 0.63065 0.0
C4238 C 0.44466 0.35063 0.62547 0.0
C4239 C 0.44335 0.36295 0.62323 0.0
O4240 O 0.45957 0.37574 0.61998 0.0
O4241 O 0.45385 0.3757 0.6105 0.0
O4242 O 0.4435 0.36394 0.61666 0.0
O4243 O 0.44895 0.36478 0.62628 0.0
H4244 H 0.44526 0.38043 0.62173 0.0
H4245 H 0.43994 0.39073 0.62594 0.0
H4246 H 0.45605 0.40258 0.61719 0.0
H4247 H 0.46141 0.39219 0.61311 0.0
H4248 H 0.48318 0.36661 0.60656 0.0
H4249 H 0.47169 0.3674 0.61112 0.0
H4250 H 0.4799 0.34549 0.60218 0.0
H4251 H 0.46844 0.34634 0.60669 0.0
H4252 H 0.44543 0.34017 0.62813 0.0
H4253 H 0.42638 0.34989 0.63243 0.0
H4254 H 0.43078 0.3605 0.62787 0.0
H4255 H 0.4498 0.35083 0.6236 0.0
C4256 C 0.1411 0.37135 0.3042 0.0
C4257 C 0.13818 0.37139 0.31065 0.0
C4258 C 0.13565 0.3594 0.30967 0.0
C4259 C 0.1355 0.36547 0.31338 0.0
C4260 C 0.13882 0.35935 0.30331 0.0
C4261 C 0.1415 0.36529 0.30059 0.0
U4262 U 0.14128 0.39043 0.30417 0.0
O4263 O 0.14895 0.39776 0.30081 0.0
O4264 O 0.1389 0.39763 0.29611 0.0
C4265 C 0.14503 0.40016 0.29602 0.0
C4266 C 0.14314 0.37771 0.30099 0.0
C4267 C 0.14807 0.40078 0.2893 0.0
C4268 C 0.15044 0.39621 0.27817 0.0
C4269 C 0.14813 0.39532 0.28478 0.0
C4270 C 0.15287 0.40795 0.28062 0.0
C4271 C 0.15272 0.40257 0.27598 0.0
C4272 C 0.15055 0.40705 0.28721 0.0
C4273 C 0.13275 0.40012 0.31817 0.0
C4274 C 0.13073 0.41213 0.31679 0.0
C4275 C 0.12688 0.40638 0.32689 0.0
C4276 C 0.12955 0.40032 0.32446 0.0
C4277 C 0.12734 0.41234 0.32303 0.0
C4278 C 0.13343 0.40607 0.31439 0.0
C4279 C 0.13499 0.39364 0.31536 0.0
O4280 O 0.13808 0.38134 0.29869 0.0
O4281 O 0.14764 0.38131 0.30428 0.0
O4282 O 0.14156 0.39276 0.31504 0.0
O4283 O 0.13185 0.39184 0.30981 0.0
H4284 H 0.13781 0.37605 0.3135 0.0
H4285 H 0.13319 0.36566 0.31833 0.0
H4286 H 0.13895 0.35479 0.3003 0.0
H4287 H 0.14369 0.36519 0.29558 0.0
H4288 H 0.15022 0.39198 0.27471 0.0
H4289 H 0.14622 0.39043 0.28633 0.0
H4290 H 0.15471 0.41288 0.27913 0.0
H4291 H 0.15055 0.41131 0.29065 0.0
H4292 H 0.13123 0.41664 0.31374 0.0
H4293 H 0.12422 0.40635 0.33167 0.0
H4294 H 0.12896 0.39576 0.32742 0.0
H4295 H 0.1359 0.40599 0.3095 0.0
C4296 C 0.38632 0.38998 0.0548 0.0
C4297 C 0.38602 0.38767 0.06149 0.0
C4298 C 0.39794 0.38465 0.06107 0.0
C4299 C 0.39178 0.38506 0.0646 0.0
C4300 C 0.39824 0.38714 0.05442 0.0
C4301 C 0.39247 0.38977 0.05131 0.0
U4302 U 0.36729 0.39033 0.05387 0.0
O4303 O 0.36018 0.39822 0.05058 0.0
O4304 O 0.36042 0.38841 0.04541 0.0
C4305 C 0.35796 0.39457 0.0455 0.0
C4306 C 0.38015 0.39214 0.05131 0.0
C4307 C 0.3577 0.39797 0.03893 0.0
C4308 C 0.36281 0.40089 0.02817 0.0
C4309 C 0.36334 0.39812 0.03465 0.0
C4310 C 0.35106 0.40356 0.03031 0.0
C4311 C 0.35663 0.40356 0.02591 0.0
C4312 C 0.3516 0.40078 0.03677 0.0
C4313 C 0.35702 0.38147 0.06732 0.0
C4314 C 0.34518 0.37885 0.06547 0.0
C4315 C 0.35042 0.37624 0.07622 0.0
C4316 C 0.35653 0.3789 0.07389 0.0
C4317 C 0.34471 0.37609 0.072 0.0
C4318 C 0.35128 0.38153 0.06316 0.0
C4319 C 0.36358 0.38373 0.06472 0.0
O4320 O 0.3766 0.38717 0.04872 0.0
O4321 O 0.37643 0.39661 0.05452 0.0
O4322 O 0.36455 0.39029 0.06466 0.0
O4323 O 0.36551 0.38075 0.05912 0.0
H4324 H 0.3813 0.38776 0.06425 0.0
H4325 H 0.39139 0.38329 0.06977 0.0
H4326 H 0.40287 0.38683 0.05153 0.0
H4327 H 0.39277 0.39149 0.04612 0.0
H4328 H 0.3672 0.40088 0.02492 0.0
H4329 H 0.36811 0.39599 0.03627 0.0
H4330 H 0.34621 0.4055 0.0287 0.0
H4331 H 0.34719 0.40068 0.04001 0.0
H4332 H 0.34085 0.37886 0.06213 0.0
H4333 H 0.35024 0.37408 0.08124 0.0
H4334 H 0.36091 0.3788 0.07715 0.0
H4335 H 0.35157 0.38353 0.05807 0.0
C4336 C 0.36642 0.63598 0.80477 0.0
C4337 C 0.36954 0.63562 0.81111 0.0
C4338 C 0.37234 0.64757 0.81053 0.0
C4339 C 0.37245 0.64136 0.81397 0.0
C4340 C 0.36901 0.64795 0.80426 0.0
C4341 C 0.36609 0.64218 0.80139 0.0
U4342 U 0.3659 0.61704 0.80454 0.0
O4343 O 0.35808 0.60972 0.80158 0.0
O4344 O 0.36788 0.60979 0.79639 0.0
C4345 C 0.36174 0.60729 0.79661 0.0
C4346 C 0.36406 0.62977 0.80147 0.0
C4347 C 0.35841 0.60672 0.79003 0.0
C4348 C 0.35246 0.61172 0.78055 0.0
C4349 C 0.35512 0.61225 0.78707 0.0
C4350 C 0.35629 0.60012 0.77995 0.0
C4351 C 0.3531 0.60567 0.77687 0.0
C4352 C 0.35891 0.60064 0.78646 0.0
C4353 C 0.37525 0.60767 0.81839 0.0
C4354 C 0.37748 0.59564 0.81748 0.0
C4355 C 0.38217 0.60207 0.82678 0.0
C4356 C 0.37906 0.6079 0.82433 0.0
C4357 C 0.38154 0.59591 0.8233 0.0
C4358 C 0.37437 0.60149 0.81503 0.0
C4359 C 0.37273 0.61398 0.81545 0.0
O4360 O 0.36893 0.62608 0.79888 0.0
O4361 O 0.35962 0.62621 0.80489 0.0
O4362 O 0.36614 0.61475 0.81543 0.0
O4363 O 0.37558 0.61565 0.80971 0.0
H4364 H 0.36986 0.63085 0.81378 0.0
H4365 H 0.37487 0.64091 0.81886 0.0
H4366 H 0.36888 0.65264 0.80145 0.0
H4367 H 0.36375 0.64253 0.79646 0.0
H4368 H 0.34996 0.61607 0.77837 0.0
H4369 H 0.35473 0.617 0.78976 0.0
H4370 H 0.35699 0.59542 0.77724 0.0
H4371 H 0.36149 0.59635 0.78866 0.0
H4372 H 0.37694 0.59098 0.81467 0.0
H4373 H 0.38518 0.60241 0.83133 0.0
H4374 H 0.37979 0.61263 0.82698 0.0
H4375 H 0.37146 0.60125 0.8104 0.0
C4376 C 0.12046 0.61634 0.55416 0.0
C4377 C 0.12039 0.61866 0.56085 0.0
C4378 C 0.10833 0.6209 0.56004 0.0
C4379 C 0.11437 0.6209 0.56377 0.0
C4380 C 0.10842 0.61845 0.55337 0.0
C4381 C 0.11444 0.61618 0.55046 0.0
U4382 U 0.13951 0.61663 0.55429 0.0
O4383 O 0.1471 0.60926 0.55083 0.0
O4384 O 0.14675 0.61942 0.54639 0.0
C4385 C 0.14945 0.61336 0.54617 0.0
C4386 C 0.12688 0.61458 0.55089 0.0
C4387 C 0.1502 0.6105 0.53939 0.0
C4388 C 0.14562 0.60777 0.52835 0.0
C4389 C 0.14468 0.61 0.53499 0.0
C4390 C 0.15757 0.60635 0.53054 0.0
C4391 C 0.1521 0.60602 0.52603 0.0
C4392 C 0.15663 0.60858 0.53716 0.0
C4393 C 0.1486 0.62506 0.56882 0.0
C4394 C 0.16063 0.62735 0.56802 0.0
C4395 C 0.15414 0.6318 0.5774 0.0
C4396 C 0.14833 0.62871 0.57486 0.0
C4397 C 0.16032 0.63129 0.57392 0.0
C4398 C 0.1548 0.62428 0.56547 0.0
C4399 C 0.14233 0.62264 0.56574 0.0
O4400 O 0.1304 0.6198 0.54882 0.0
O4401 O 0.13057 0.61003 0.55403 0.0
O4402 O 0.1417 0.61605 0.56518 0.0
O4403 O 0.14056 0.6259 0.56024 0.0
H4404 H 0.12501 0.61889 0.56376 0.0
H4405 H 0.1145 0.62285 0.56888 0.0
H4406 H 0.10384 0.61833 0.55038 0.0
H4407 H 0.11443 0.61444 0.54527 0.0
H4408 H 0.14131 0.60762 0.52499 0.0
H4409 H 0.13968 0.61147 0.53665 0.0
H4410 H 0.1626 0.60492 0.52895 0.0
H4411 H 0.16094 0.60893 0.54051 0.0
H4412 H 0.16529 0.62691 0.5652 0.0
H4413 H 0.15377 0.63471 0.58201 0.0
H4414 H 0.14358 0.62937 0.5775 0.0
H4415 H 0.15508 0.62149 0.56077 0.0
C4416 C 0.13994 0.63614 0.20264 0.0
C4417 C 0.13677 0.63599 0.19631 0.0
C4418 C 0.13517 0.64817 0.19673 0.0
C4419 C 0.13442 0.64195 0.19338 0.0
C4420 C 0.13846 0.6483 0.20303 0.0
C4421 C 0.14082 0.64232 0.20596 0.0
U4422 U 0.13986 0.61706 0.20313 0.0
O4423 O 0.14756 0.60971 0.2063 0.0
O4424 O 0.13775 0.61007 0.21147 0.0
C4425 C 0.14384 0.60745 0.21132 0.0
C4426 C 0.14194 0.62983 0.20597 0.0
C4427 C 0.14718 0.60693 0.2179 0.0
C4428 C 0.15355 0.61186 0.22714 0.0
C4429 C 0.15076 0.61237 0.22066 0.0
C4430 C 0.14919 0.60046 0.22808 0.0
C4431 C 0.15273 0.60591 0.23095 0.0
C4432 C 0.14645 0.60097 0.22162 0.0
C4433 C 0.13092 0.6071 0.18961 0.0
C4434 C 0.12846 0.59521 0.19139 0.0
C4435 C 0.12582 0.60048 0.18066 0.0
C4436 C 0.12837 0.60662 0.18304 0.0
C4437 C 0.12576 0.59473 0.18485 0.0
C4438 C 0.13105 0.60134 0.19375 0.0
C4439 C 0.13321 0.61364 0.19222 0.0
O4440 O 0.13689 0.62632 0.20846 0.0
O4441 O 0.14632 0.62609 0.20266 0.0
O4442 O 0.13979 0.61455 0.19229 0.0
O4443 O 0.13025 0.61555 0.19784 0.0
H4444 H 0.13599 0.63124 0.19372 0.0
H4445 H 0.13182 0.64166 0.18857 0.0
H4446 H 0.13917 0.65301 0.20571 0.0
H4447 H 0.14324 0.64251 0.21086 0.0
H4448 H 0.15631 0.61612 0.22916 0.0
H4449 H 0.15134 0.61703 0.21786 0.0
H4450 H 0.14834 0.59586 0.23091 0.0
H4451 H 0.14364 0.59675 0.21957 0.0
H4452 H 0.12855 0.59086 0.1947 0.0
H4453 H 0.1237 0.60029 0.17563 0.0
H4454 H 0.12823 0.61102 0.17979 0.0
H4455 H 0.13304 0.60163 0.19883 0.0
C4456 C 0.1218 0.39012 0.9544 0.0
C4457 C 0.12198 0.3871 0.948 0.0
C4458 C 0.10978 0.38565 0.94825 0.0
C4459 C 0.11603 0.3849 0.94495 0.0
C4460 C 0.10963 0.38873 0.95465 0.0
C4461 C 0.1156 0.39095 0.9577 0.0
U4462 U 0.14085 0.39036 0.95462 0.0
O4463 O 0.14806 0.39825 0.95771 0.0
O4464 O 0.14807 0.38839 0.96278 0.0
C4465 C 0.15045 0.39458 0.96269 0.0
C4466 C 0.1281 0.39214 0.95772 0.0
C4467 C 0.15073 0.39791 0.9693 0.0
C4468 C 0.14544 0.40101 0.97991 0.0
C4469 C 0.14497 0.3983 0.97341 0.0
C4470 C 0.15736 0.40315 0.97813 0.0
C4471 C 0.15167 0.40338 0.98237 0.0
C4472 C 0.15689 0.40042 0.97165 0.0
C4473 C 0.15043 0.38173 0.94043 0.0
C4474 C 0.16253 0.3798 0.94112 0.0
C4475 C 0.15629 0.3762 0.93122 0.0
C4476 C 0.15034 0.37872 0.93405 0.0
C4477 C 0.16245 0.37666 0.93474 0.0
C4478 C 0.15656 0.38233 0.94393 0.0
C4479 C 0.14406 0.38393 0.94351 0.0
O4480 O 0.13174 0.38711 0.96005 0.0
O4481 O 0.13171 0.39666 0.95446 0.0
O4482 O 0.14308 0.39049 0.94373 0.0
O4483 O 0.1425 0.38086 0.94918 0.0
H4484 H 0.12674 0.38637 0.94541 0.0
H4485 H 0.11634 0.38245 0.94007 0.0
H4486 H 0.10489 0.38943 0.9573 0.0
H4487 H 0.11539 0.39326 0.96266 0.0
H4488 H 0.14096 0.40119 0.98303 0.0
H4489 H 0.14016 0.3964 0.97164 0.0
H4490 H 0.16224 0.40486 0.97991 0.0
H4491 H 0.16138 0.40013 0.96853 0.0
H4492 H 0.16719 0.38027 0.94393 0.0
H4493 H 0.15602 0.37372 0.92636 0.0
H4494 H 0.14564 0.37818 0.9313 0.0
H4495 H 0.15671 0.38466 0.94888 0.0
C4496 C 0.36665 0.37139 0.70365 0.0
C4497 C 0.36908 0.3714 0.697 0.0
C4498 C 0.37199 0.3595 0.69795 0.0
C4499 C 0.3717 0.3655 0.69416 0.0
C4500 C 0.36928 0.35946 0.70452 0.0
C4501 C 0.36665 0.36537 0.70735 0.0
U4502 U 0.36647 0.3905 0.70386 0.0
O4503 O 0.35907 0.39781 0.70774 0.0
O4504 O 0.36932 0.39752 0.71196 0.0
C4505 C 0.36319 0.4 0.71246 0.0
C4506 C 0.3648 0.37774 0.70698 0.0
C4507 C 0.3605 0.40036 0.71938 0.0
C4508 C 0.35281 0.39664 0.7282 0.0
C4509 C 0.35516 0.39622 0.72154 0.0
C4510 C 0.36118 0.40523 0.7306 0.0
C4511 C 0.35583 0.40113 0.73279 0.0
C4512 C 0.36347 0.40487 0.72395 0.0
C4513 C 0.37416 0.40035 0.68941 0.0
C4514 C 0.37697 0.41222 0.6907 0.0
C4515 C 0.37845 0.40672 0.67987 0.0
C4516 C 0.37605 0.40067 0.68261 0.0
C4517 C 0.37903 0.41253 0.68391 0.0
C4518 C 0.37453 0.40619 0.69342 0.0
C4519 C 0.3721 0.39388 0.69237 0.0
O4520 O 0.36997 0.38134 0.70901 0.0
O4521 O 0.36012 0.38137 0.70396 0.0
O4522 O 0.36556 0.39298 0.69305 0.0
O4523 O 0.37556 0.39204 0.69772 0.0
H4524 H 0.36915 0.37603 0.69408 0.0
H4525 H 0.37365 0.36568 0.68905 0.0
H4526 H 0.36949 0.35494 0.7076 0.0
H4527 H 0.36485 0.36529 0.71251 0.0
H4528 H 0.34871 0.39339 0.72978 0.0
H4529 H 0.35283 0.39266 0.71812 0.0
H4530 H 0.36354 0.40879 0.73402 0.0
H4531 H 0.3676 0.4081 0.72238 0.0
H4532 H 0.37729 0.41663 0.69391 0.0
H4533 H 0.38007 0.40677 0.67465 0.0
H4534 H 0.37581 0.39621 0.67945 0.0
H4535 H 0.37305 0.40603 0.69869 0.0
C4536 C 0.38609 0.61692 0.45316 0.0
C4537 C 0.38597 0.61971 0.44665 0.0
C4538 C 0.39797 0.62226 0.44742 0.0
C4539 C 0.39186 0.62233 0.4438 0.0
C4540 C 0.39811 0.61922 0.45385 0.0
C4541 C 0.3922 0.61658 0.45669 0.0
U4542 U 0.36701 0.61683 0.45356 0.0
O4543 O 0.3597 0.60929 0.45722 0.0
O4544 O 0.36 0.61941 0.46173 0.0
C4545 C 0.35738 0.61332 0.46196 0.0
C4546 C 0.37977 0.61498 0.45652 0.0
C4547 C 0.35677 0.61043 0.46874 0.0
C4548 C 0.36164 0.60728 0.47954 0.0
C4549 C 0.36245 0.60947 0.47286 0.0
C4550 C 0.34952 0.60683 0.4779 0.0
C4551 C 0.35515 0.60605 0.48216 0.0
C4552 C 0.35033 0.60901 0.47126 0.0
C4553 C 0.35701 0.62509 0.43964 0.0
C4554 C 0.34507 0.62733 0.44134 0.0
C4555 C 0.35048 0.63052 0.43083 0.0
C4556 C 0.35661 0.62792 0.43318 0.0
C4557 C 0.34467 0.63034 0.43492 0.0
C4558 C 0.35119 0.62471 0.44367 0.0
C4559 C 0.36356 0.6229 0.44232 0.0
O4560 O 0.37622 0.62009 0.45879 0.0
O4561 O 0.37609 0.61043 0.45337 0.0
O4562 O 0.36444 0.61634 0.44274 0.0
O4563 O 0.36551 0.62615 0.44777 0.0
H4564 H 0.38128 0.62003 0.44386 0.0
H4565 H 0.39161 0.62455 0.43881 0.0
H4566 H 0.4027 0.61914 0.4568 0.0
H4567 H 0.39236 0.6145 0.46175 0.0
H4568 H 0.36607 0.60676 0.4827 0.0
H4569 H 0.36746 0.61058 0.47098 0.0
H4570 H 0.34447 0.6058 0.47973 0.0
H4571 H 0.34591 0.60972 0.46812 0.0
H4572 H 0.34068 0.62705 0.44458 0.0
H4573 H 0.35036 0.63288 0.4259 0.0
H4574 H 0.36106 0.62828 0.43003 0.0
H4575 H 0.35143 0.62252 0.44868 0.0
C4576 C 0.30387 0.1408 0.37112 0.0
C4577 C 0.31033 0.13789 0.37124 0.0
C4578 C 0.30982 0.13604 0.35909 0.0
C4579 C 0.31328 0.13555 0.36527 0.0
C4580 C 0.30339 0.13908 0.35899 0.0
C4581 C 0.30045 0.14144 0.36497 0.0
U4582 U 0.30347 0.14025 0.39014 0.0
O4583 O 0.30035 0.14769 0.39779 0.0
O4584 O 0.29521 0.13789 0.39715 0.0
C4585 C 0.29536 0.14388 0.39997 0.0
C4586 C 0.30053 0.14269 0.37747 0.0
C4587 C 0.28877 0.14718 0.40066 0.0
C4588 C 0.27945 0.15366 0.39603 0.0
C4589 C 0.28591 0.15087 0.39533 0.0
C4590 C 0.27871 0.14908 0.40735 0.0
C4591 C 0.27575 0.15275 0.40203 0.0
C4592 C 0.28516 0.14635 0.40667 0.0
C4593 C 0.31728 0.13077 0.39937 0.0
C4594 C 0.31633 0.12851 0.4114 0.0
C4595 C 0.32554 0.12368 0.40495 0.0
C4596 C 0.32315 0.12685 0.39913 0.0
C4597 C 0.32209 0.12437 0.41113 0.0
C4598 C 0.31393 0.13168 0.40555 0.0
C4599 C 0.31443 0.13345 0.39309 0.0
O4600 O 0.29803 0.13757 0.38086 0.0
O4601 O 0.30385 0.14698 0.3813 0.0
O4602 O 0.31432 0.14006 0.39254 0.0
O4603 O 0.30876 0.13058 0.39122 0.0
H4604 H 0.31301 0.13729 0.37596 0.0
H4605 H 0.31818 0.13315 0.36555 0.0
H4606 H 0.30062 0.13958 0.3543 0.0
H4607 H 0.29545 0.14364 0.3648 0.0
H4608 H 0.27736 0.15651 0.39186 0.0
H4609 H 0.28864 0.15154 0.39064 0.0
H4610 H 0.27597 0.14815 0.412 0.0
H4611 H 0.28728 0.14346 0.4108 0.0
H4612 H 0.31353 0.1291 0.41606 0.0
H4613 H 0.33005 0.12061 0.40461 0.0
H4614 H 0.32579 0.12611 0.39439 0.0
H4615 H 0.30936 0.13467 0.40581 0.0
C4616 C 0.8017 0.36714 0.63536 0.0
C4617 C 0.80824 0.36983 0.63504 0.0
C4618 C 0.80811 0.37179 0.64719 0.0
C4619 C 0.81143 0.37212 0.64091 0.0
C4620 C 0.80159 0.36899 0.64748 0.0
C4621 C 0.79841 0.36668 0.64161 0.0
U4622 U 0.80091 0.36664 0.61627 0.0
O4623 O 0.79722 0.35885 0.60926 0.0
O4624 O 0.79255 0.36889 0.60934 0.0
C4625 C 0.79228 0.36268 0.60704 0.0
C4626 C 0.79816 0.36516 0.62915 0.0
C4627 C 0.78552 0.35964 0.60712 0.0
C4628 C 0.77631 0.3542 0.61311 0.0
C4629 C 0.78294 0.35662 0.61298 0.0
C4630 C 0.77481 0.35773 0.60149 0.0
C4631 C 0.77212 0.35482 0.60739 0.0
C4632 C 0.78144 0.36011 0.60136 0.0
C4633 C 0.81536 0.37467 0.60632 0.0
C4634 C 0.81469 0.37721 0.59433 0.0
C4635 C 0.82507 0.37927 0.60046 0.0
C4636 C 0.82207 0.37687 0.60637 0.0
C4637 C 0.8214 0.37954 0.59439 0.0
C4638 C 0.81169 0.37477 0.60025 0.0
C4639 C 0.81219 0.37258 0.61269 0.0
O4640 O 0.79592 0.37023 0.62551 0.0
O4641 O 0.80115 0.36047 0.62551 0.0
O4642 O 0.81171 0.36604 0.6137 0.0
O4643 O 0.80668 0.37589 0.61432 0.0
H4644 H 0.81083 0.37027 0.63024 0.0
H4645 H 0.81641 0.37433 0.64049 0.0
H4646 H 0.79893 0.36861 0.65224 0.0
H4647 H 0.79335 0.36464 0.64193 0.0
H4648 H 0.77444 0.35191 0.61771 0.0
H4649 H 0.78602 0.35624 0.61749 0.0
H4650 H 0.77171 0.35839 0.59703 0.0
H4651 H 0.78335 0.36248 0.59681 0.0
H4652 H 0.81175 0.37731 0.58972 0.0
H4653 H 0.83021 0.38112 0.60071 0.0
H4654 H 0.82495 0.37685 0.61102 0.0
H4655 H 0.8065 0.37307 0.60013 0.0
C4656 C 0.38943 0.05391 0.38656 0.0
C4657 C 0.38715 0.06061 0.38665 0.0
C4658 C 0.38492 0.05977 0.39872 0.0
C4659 C 0.38494 0.06352 0.39269 0.0
C4660 C 0.3873 0.05308 0.3986 0.0
C4661 C 0.38954 0.05018 0.39256 0.0
U4662 U 0.38938 0.0537 0.36742 0.0
O4663 O 0.3971 0.05046 0.36009 0.0
O4664 O 0.38718 0.04552 0.3603 0.0
C4665 C 0.3933 0.04556 0.35775 0.0
C4666 C 0.39132 0.05066 0.38016 0.0
C4667 C 0.39653 0.03892 0.35714 0.0
C4668 C 0.39894 0.02775 0.36155 0.0
C4669 C 0.39639 0.03426 0.36248 0.0
C4670 C 0.40202 0.0306 0.35005 0.0
C4671 C 0.40167 0.0258 0.35528 0.0
C4672 C 0.39945 0.03709 0.35098 0.0
C4673 C 0.38081 0.06751 0.35753 0.0
C4674 C 0.37865 0.06592 0.34556 0.0
C4675 C 0.37542 0.07637 0.35103 0.0
C4676 C 0.37797 0.07397 0.35716 0.0
C4677 C 0.37564 0.07233 0.34519 0.0
C4678 C 0.38123 0.06353 0.35168 0.0
C4679 C 0.383 0.0648 0.36407 0.0
O4680 O 0.38621 0.04836 0.37662 0.0
O4681 O 0.3958 0.05391 0.37648 0.0
O4682 O 0.38957 0.06456 0.36502 0.0
O4683 O 0.3799 0.05923 0.3659 0.0
H4684 H 0.38696 0.06354 0.38204 0.0
H4685 H 0.38305 0.06865 0.39259 0.0
H4686 H 0.38741 0.05008 0.40317 0.0
H4687 H 0.39127 0.04499 0.39257 0.0
H4688 H 0.39855 0.02416 0.36566 0.0
H4689 H 0.39415 0.03561 0.36728 0.0
H4690 H 0.4042 0.0293 0.34521 0.0
H4691 H 0.39963 0.04065 0.34682 0.0
H4692 H 0.37896 0.06272 0.34113 0.0
H4693 H 0.37306 0.0813 0.35093 0.0
H4694 H 0.37759 0.07709 0.36164 0.0
H4695 H 0.38344 0.05853 0.35188 0.0
C4696 C 0.7035 0.64045 0.13597 0.0
C4697 C 0.69681 0.63816 0.13602 0.0
C4698 C 0.69753 0.63604 0.14811 0.0
C4699 C 0.69384 0.63599 0.14205 0.0
C4700 C 0.70422 0.63845 0.14804 0.0
C4701 C 0.70717 0.64064 0.14201 0.0
U4702 U 0.70386 0.64012 0.11684 0.0
O4703 O 0.70714 0.64774 0.10943 0.0
O4704 O 0.71209 0.63782 0.10981 0.0
C4705 C 0.71208 0.64391 0.10718 0.0
C4706 C 0.70681 0.64226 0.12958 0.0
C4707 C 0.71872 0.64714 0.10663 0.0
C4708 C 0.72982 0.64961 0.11119 0.0
C4709 C 0.72331 0.64702 0.11203 0.0
C4710 C 0.7271 0.65269 0.09966 0.0
C4711 C 0.73183 0.65238 0.10495 0.0
C4712 C 0.72061 0.65008 0.1005 0.0
C4713 C 0.69006 0.63139 0.10705 0.0
C4714 C 0.6916 0.6291 0.09509 0.0
C4715 C 0.6812 0.62586 0.10067 0.0
C4716 C 0.68362 0.6285 0.10675 0.0
C4717 C 0.6852 0.62605 0.09479 0.0
C4718 C 0.694 0.63176 0.10117 0.0
C4719 C 0.69278 0.63369 0.11355 0.0
O4720 O 0.70914 0.6371 0.12612 0.0
O4721 O 0.70359 0.64668 0.12581 0.0
O4722 O 0.69301 0.64027 0.11439 0.0
O4723 O 0.69834 0.63062 0.11543 0.0
H4724 H 0.69392 0.6379 0.13138 0.0
H4725 H 0.68872 0.63408 0.14191 0.0
H4726 H 0.70717 0.6386 0.15264 0.0
H4727 H 0.71236 0.64238 0.14204 0.0
H4728 H 0.73335 0.64924 0.11535 0.0
H4729 H 0.72191 0.64478 0.11682 0.0
H4730 H 0.72844 0.6549 0.09484 0.0
H4731 H 0.71711 0.65024 0.0963 0.0
H4732 H 0.69477 0.62938 0.09064 0.0
H4733 H 0.67628 0.62347 0.10062 0.0
H4734 H 0.68053 0.62815 0.11125 0.0
H4735 H 0.69899 0.634 0.10132 0.0
C4736 C 0.61638 0.45353 0.38498 0.0
C4737 C 0.61878 0.44688 0.38478 0.0
C4738 C 0.62147 0.44741 0.39677 0.0
C4739 C 0.62128 0.44384 0.39063 0.0
C4740 C 0.61886 0.45402 0.39698 0.0
C4741 C 0.61635 0.45706 0.39111 0.0
U4742 U 0.61645 0.45394 0.36596 0.0
O4743 O 0.60891 0.45738 0.35855 0.0
O4744 O 0.61895 0.46207 0.35889 0.0
C4745 C 0.61287 0.46219 0.35625 0.0
C4746 C 0.61446 0.45696 0.37869 0.0
C4747 C 0.60984 0.46891 0.35569 0.0
C4748 C 0.60693 0.47978 0.36054 0.0
C4749 C 0.60929 0.47317 0.36132 0.0
C4750 C 0.60546 0.47781 0.34855 0.0
C4751 C 0.6051 0.4822 0.35412 0.0
C4752 C 0.60782 0.47122 0.34933 0.0
C4753 C 0.62497 0.43997 0.35623 0.0
C4754 C 0.6275 0.44152 0.34433 0.0
C4755 C 0.63039 0.43101 0.34989 0.0
C4756 C 0.6277 0.43346 0.35594 0.0
C4757 C 0.63042 0.43506 0.34404 0.0
C4758 C 0.62479 0.44395 0.35037 0.0
C4759 C 0.62268 0.44273 0.36271 0.0
O4760 O 0.61959 0.45926 0.37517 0.0
O4761 O 0.60994 0.45382 0.37497 0.0
O4762 O 0.6161 0.44309 0.36352 0.0
O4763 O 0.62585 0.44824 0.3646 0.0
H4764 H 0.61887 0.4441 0.38007 0.0
H4765 H 0.62314 0.43871 0.39031 0.0
H4766 H 0.61899 0.45692 0.40161 0.0
H4767 H 0.61456 0.46222 0.39133 0.0
H4768 H 0.60676 0.48305 0.36492 0.0
H4769 H 0.61084 0.47144 0.36627 0.0
H4770 H 0.60396 0.47948 0.34356 0.0
H4771 H 0.60819 0.46798 0.34494 0.0
H4772 H 0.62738 0.44472 0.3399 0.0
H4773 H 0.63267 0.42604 0.34985 0.0
H4774 H 0.6279 0.43034 0.36042 0.0
H4775 H 0.62267 0.44899 0.35051 0.0
C4776 C 0.2037 0.86567 0.87199 0.0
C4777 C 0.19741 0.86891 0.87217 0.0
C4778 C 0.19764 0.87025 0.85995 0.0
C4779 C 0.1944 0.87117 0.86622 0.0
C4780 C 0.20391 0.86692 0.85979 0.0
C4781 C 0.20692 0.86465 0.86577 0.0
U4782 U 0.20396 0.86598 0.891 0.0
O4783 O 0.20711 0.85841 0.89851 0.0
O4784 O 0.21211 0.8683 0.89812 0.0
C4785 C 0.21208 0.86221 0.90074 0.0
C4786 C 0.20704 0.86374 0.87831 0.0
C4787 C 0.21871 0.85894 0.90113 0.0
C4788 C 0.22939 0.85584 0.89598 0.0
C4789 C 0.22286 0.85846 0.89541 0.0
C4790 C 0.22756 0.85395 0.90794 0.0
C4791 C 0.23184 0.85364 0.90228 0.0
C4792 C 0.22105 0.85659 0.90737 0.0
C4793 C 0.18984 0.87526 0.90011 0.0
C4794 C 0.19051 0.87769 0.91212 0.0
C4795 C 0.18137 0.88231 0.90543 0.0
C4796 C 0.18392 0.87909 0.8997 0.0
C4797 C 0.18472 0.88177 0.91167 0.0
C4798 C 0.19306 0.87447 0.90637 0.0
C4799 C 0.19288 0.87262 0.8939 0.0
O4800 O 0.20945 0.86885 0.88179 0.0
O4801 O 0.20374 0.85937 0.88206 0.0
O4802 O 0.19308 0.86601 0.89332 0.0
O4803 O 0.19855 0.87557 0.89215 0.0
H4804 H 0.19489 0.8698 0.87695 0.0
H4805 H 0.18963 0.87382 0.86655 0.0
H4806 H 0.2065 0.86609 0.85505 0.0
H4807 H 0.21179 0.86218 0.86556 0.0
H4808 H 0.23254 0.85559 0.89152 0.0
H4809 H 0.2211 0.86024 0.89055 0.0
H4810 H 0.22932 0.85236 0.91287 0.0
H4811 H 0.2179 0.85695 0.91183 0.0
H4812 H 0.19322 0.87722 0.91685 0.0
H4813 H 0.17685 0.88534 0.90494 0.0
H4814 H 0.18137 0.87975 0.8949 0.0
H4815 H 0.19767 0.87155 0.90676 0.0
C4816 C 0.39063 0.95474 0.12217 0.0
C4817 C 0.3882 0.9481 0.1224 0.0
C4818 C 0.38542 0.94861 0.11043 0.0
C4819 C 0.38564 0.94505 0.11658 0.0
C4820 C 0.38802 0.95521 0.1102 0.0
C4821 C 0.39059 0.95826 0.11604 0.0
U4822 U 0.39108 0.95482 0.14115 0.0
O4823 O 0.39881 0.95798 0.14846 0.0
O4824 O 0.38885 0.96284 0.14848 0.0
C4825 C 0.395 0.96282 0.15094 0.0
C4826 C 0.39271 0.95811 0.12843 0.0
C4827 C 0.39816 0.96949 0.15151 0.0
C4828 C 0.40461 0.97877 0.14678 0.0
C4829 C 0.40187 0.9723 0.14617 0.0
C4830 C 0.39993 0.97968 0.15805 0.0
C4831 C 0.40365 0.98256 0.15272 0.0
C4832 C 0.39724 0.9732 0.15745 0.0
C4833 C 0.38282 0.94028 0.15051 0.0
C4834 C 0.38071 0.94085 0.16258 0.0
C4835 C 0.37765 0.93082 0.15628 0.0
C4836 C 0.38011 0.93377 0.15037 0.0
C4837 C 0.37785 0.93436 0.16245 0.0
C4838 C 0.3832 0.94379 0.15666 0.0
C4839 C 0.38494 0.94349 0.14418 0.0
O4840 O 0.38768 0.96032 0.13214 0.0
O4841 O 0.39736 0.95495 0.13198 0.0
O4842 O 0.39149 0.9439 0.1432 0.0
O4843 O 0.38172 0.9491 0.14269 0.0
H4844 H 0.38816 0.94531 0.12711 0.0
H4845 H 0.38378 0.93992 0.11691 0.0
H4846 H 0.38788 0.9581 0.10556 0.0
H4847 H 0.39241 0.96341 0.1158 0.0
H4848 H 0.4075 0.9808 0.1426 0.0
H4849 H 0.4026 0.9695 0.14152 0.0
H4850 H 0.39896 0.98248 0.16264 0.0
H4851 H 0.39433 0.97112 0.1616 0.0
H4852 H 0.38099 0.94368 0.16726 0.0
H4853 H 0.37539 0.92585 0.15599 0.0
H4854 H 0.37976 0.93101 0.14565 0.0
H4855 H 0.3853 0.94884 0.15684 0.0
C4856 C 0.1168 0.05414 0.62111 0.0
C4857 C 0.11978 0.06055 0.62157 0.0
C4858 C 0.12225 0.06039 0.60952 0.0
C4859 C 0.12245 0.06365 0.61583 0.0
C4860 C 0.11908 0.05404 0.60905 0.0
C4861 C 0.11639 0.05094 0.61481 0.0
U4862 U 0.11649 0.05317 0.6401 0.0
O4863 O 0.10863 0.04988 0.64728 0.0
O4864 O 0.11847 0.04475 0.64701 0.0
C4865 C 0.11234 0.04486 0.64954 0.0
C4866 C 0.11461 0.05062 0.62725 0.0
C4867 C 0.10899 0.03827 0.65004 0.0
C4868 C 0.10664 0.02709 0.64561 0.0
C4869 C 0.10921 0.0336 0.64471 0.0
C4870 C 0.10337 0.02996 0.65705 0.0
C4871 C 0.10383 0.02515 0.65184 0.0
C4872 C 0.10595 0.03645 0.65616 0.0
C4873 C 0.12546 0.06658 0.65031 0.0
C4874 C 0.12872 0.06464 0.66198 0.0
C4875 C 0.12998 0.07576 0.65704 0.0
C4876 C 0.12736 0.07336 0.65094 0.0
C4877 C 0.13079 0.0714 0.66259 0.0
C4878 C 0.12605 0.06226 0.6559 0.0
C4879 C 0.12314 0.064 0.64376 0.0
O4880 O 0.11956 0.04798 0.63079 0.0
O4881 O 0.11017 0.05385 0.63098 0.0
O4882 O 0.11657 0.06395 0.64283 0.0
O4883 O 0.1261 0.0584 0.64178 0.0
H4884 H 0.12016 0.06308 0.62641 0.0
H4885 H 0.12476 0.06858 0.61636 0.0
H4886 H 0.11889 0.05137 0.60429 0.0
H4887 H 0.11415 0.04597 0.61438 0.0
H4888 H 0.1071 0.02349 0.64151 0.0
H4889 H 0.11154 0.03494 0.63995 0.0
H4890 H 0.10112 0.02866 0.66186 0.0
H4891 H 0.10572 0.04 0.66031 0.0
H4892 H 0.12922 0.06118 0.66619 0.0
H4893 H 0.1316 0.08097 0.65733 0.0
H4894 H 0.12693 0.07676 0.64668 0.0
H4895 H 0.12456 0.05701 0.65551 0.0
H4896 H 0.02012 0.16929 0.41609 0.0
H4897 H 0.02496 0.14842 0.41196 0.0
H4898 H 0.00847 0.16725 0.41274 0.0
H4899 H 0.01329 0.14641 0.40853 0.0
H4900 H 0.99008 0.14418 0.41009 0.0
H4901 H 1.0018 0.14598 0.41352 0.0
H4902 H 1.00218 0.16469 0.40233 0.0
H4903 H 0.99054 0.16288 0.39888 0.0
C4904 C 0.0187 0.16427 0.41445 0.0
C4905 C 0.02347 0.15902 0.41428 0.0
C4906 C 0.01203 0.16311 0.4125 0.0
C4907 C 0.00997 0.15667 0.41036 0.0
C4908 C 0.01472 0.15141 0.41022 0.0
C4909 C 0.02141 0.15258 0.41214 0.0
C4910 C 0.99269 0.14865 0.40833 0.0
C4911 C 0.98936 0.15341 0.40425 0.0
C4912 C 0.99939 0.14968 0.41029 0.0
C4913 C 1.00289 0.15549 0.40822 0.0
C4914 C 0.99958 0.16022 0.40411 0.0
C4915 C 0.9929 0.15919 0.40214 0.0
H4916 H 0.08867 0.76906 0.66698 0.0
H4917 H 0.10888 0.77422 0.66058 0.0
H4918 H 0.09071 0.75732 0.66396 0.0
H4919 H 0.11088 0.76247 0.65746 0.0
H4920 H 0.11405 0.7395 0.65926 0.0
H4921 H 0.1122 0.75122 0.66265 0.0
H4922 H 0.09233 0.75064 0.65369 0.0
H4923 H 0.09419 0.73899 0.65028 0.0
C4924 C 0.09354 0.76769 0.66491 0.0
C4925 C 0.09861 0.77257 0.664 0.0
C4926 C 0.0947 0.76097 0.66315 0.0
C4927 C 0.10095 0.75897 0.66046 0.0
C4928 C 0.10604 0.76384 0.65959 0.0
C4929 C 0.10487 0.77058 0.66134 0.0
C4930 C 0.10931 0.74189 0.65799 0.0
C4931 C 0.10426 0.7383 0.65454 0.0
C4932 C 0.10825 0.7486 0.65993 0.0
C4933 C 0.10211 0.75184 0.65846 0.0
C4934 C 0.09707 0.74825 0.65501 0.0
C4935 C 0.09813 0.74156 0.65306 0.0
H4936 H 0.48117 0.85838 0.90753 0.0
H4937 H 0.48834 0.8418 0.91975 0.0
H4938 H 0.49274 0.86082 0.90405 0.0
H4939 H 0.49991 0.84425 0.91627 0.0
H4940 H 0.52029 0.85496 0.91355 0.0
H4941 H 0.50868 0.85348 0.91754 0.0
H4942 H 0.50149 0.85481 0.897 0.0
H4943 H 0.51306 0.85634 0.89303 0.0
C4944 C 0.48521 0.85527 0.90949 0.0
C4945 C 0.48384 0.84988 0.91389 0.0
C4946 C 0.49183 0.85666 0.90748 0.0
C4947 C 0.49721 0.85273 0.9099 0.0
C4948 C 0.49586 0.84741 0.91438 0.0
C4949 C 0.48923 0.84597 0.91633 0.0
C4950 C 0.51621 0.85502 0.90991 0.0
C4951 C 0.51756 0.85574 0.90299 0.0
C4952 C 0.50959 0.85412 0.91218 0.0
C4953 C 0.5042 0.85401 0.90757 0.0
C4954 C 0.50554 0.85492 0.90066 0.0
C4955 C 0.51216 0.85574 0.89839 0.0
H4956 H 0.41497 0.23789 0.17018 0.0
H4957 H 0.39861 0.23086 0.15757 0.0
H4958 H 0.41266 0.24948 0.1667 0.0
H4959 H 0.39632 0.24246 0.1541 0.0
H4960 H 0.40124 0.26279 0.14325 0.0
H4961 H 0.4026 0.25119 0.1472 0.0
H4962 H 0.40341 0.2583 0.1678 0.0
H4963 H 0.40209 0.26993 0.16383 0.0
C4964 C 0.41087 0.23882 0.16668 0.0
C4965 C 0.40699 0.23346 0.16413 0.0
C4966 C 0.40952 0.24546 0.16473 0.0
C4967 C 0.40431 0.24686 0.16014 0.0
C4968 C 0.4004 0.24151 0.15761 0.0
C4969 C 0.4017 0.23488 0.15962 0.0
C4970 C 0.40169 0.26186 0.14862 0.0
C4971 C 0.40159 0.26725 0.15323 0.0
C4972 C 0.40241 0.25523 0.15088 0.0
C4973 C 0.40312 0.25386 0.1578 0.0
C4974 C 0.40292 0.25923 0.16243 0.0
C4975 C 0.40212 0.26587 0.16017 0.0
H4976 H 0.01954 0.83793 0.0914 0.0
H4977 H 0.02479 0.8586 0.09603 0.0
H4978 H 0.00791 0.84015 0.09471 0.0
H4979 H 0.01315 0.86078 0.09943 0.0
H4980 H 0.98997 0.86351 0.09794 0.0
H4981 H 1.00167 0.86159 0.0945 0.0
H4982 H 1.00165 0.84255 0.10513 0.0
H4983 H 0.99002 0.84447 0.10858 0.0
C4984 C 0.01822 0.84295 0.09314 0.0
C4985 C 0.0231 0.84809 0.09347 0.0
C4986 C 0.01156 0.8442 0.09507 0.0
C4987 C 0.00962 0.85063 0.09735 0.0
C4988 C 0.01448 0.85579 0.09763 0.0
C4989 C 0.02116 0.85453 0.09573 0.0
C4990 C 0.99249 0.85894 0.09958 0.0
C4991 C 0.98905 0.85411 0.10348 0.0
C4992 C 0.99918 0.85784 0.09761 0.0
C4993 C 1.00256 0.8519 0.09951 0.0
C4994 C 0.99914 0.84712 0.10347 0.0
C4995 C 0.99247 0.84822 0.10544 0.0
H4996 H 0.39899 0.77462 0.34677 0.0
H4997 H 0.41934 0.76947 0.34085 0.0
H4998 H 0.39686 0.76285 0.34969 0.0
H4999 H 0.41718 0.7577 0.34366 0.0
H5000 H 0.41326 0.73916 0.35691 0.0
H5001 H 0.41527 0.75084 0.35373 0.0
H5002 H 0.3956 0.75169 0.34436 0.0
H5003 H 0.39359 0.73994 0.34753 0.0
C5004 C 0.403 0.77098 0.34608 0.0
C5005 C 0.40934 0.77299 0.3436 0.0
C5006 C 0.40177 0.76423 0.34771 0.0
C5007 C 0.40685 0.75934 0.34691 0.0
C5008 C 0.41318 0.76135 0.34441 0.0
C5009 C 0.41441 0.7681 0.34277 0.0
C5010 C 0.4094 0.7418 0.35409 0.0
C5011 C 0.40328 0.7386 0.35244 0.0
C5012 C 0.41055 0.7485 0.35227 0.0
C5013 C 0.4056 0.75219 0.34878 0.0
C5014 C 0.39948 0.74901 0.34712 0.0
C5015 C 0.39833 0.74228 0.34893 0.0
H5016 H 0.48761 0.16338 0.58557 0.0
H5017 H 0.4821 0.14981 0.60172 0.0
H5018 H 0.4995 0.16143 0.58798 0.0
H5019 H 0.49398 0.14809 0.60435 0.0
H5020 H 0.51578 0.14182 0.60428 0.0
H5021 H 0.50412 0.14306 0.60063 0.0
H5022 H 0.50783 0.16405 0.59598 0.0
H5023 H 0.51958 0.16268 0.59917 0.0
C5024 C 0.48895 0.16003 0.58968 0.0
C5025 C 0.48392 0.15676 0.59347 0.0
C5026 C 0.49577 0.15893 0.59108 0.0
C5027 C 0.49773 0.15461 0.59637 0.0
C5028 C 0.49268 0.15135 0.60016 0.0
C5029 C 0.48586 0.15237 0.5987 0.0
C5030 C 0.51415 0.14666 0.60234 0.0
C5031 C 0.51862 0.15216 0.60206 0.0
C5032 C 0.50742 0.1474 0.60034 0.0
C5033 C 0.50499 0.15368 0.59807 0.0
C5034 C 0.50952 0.15913 0.59764 0.0
C5035 C 0.51625 0.15837 0.59957 0.0
H5036 H 0.10857 0.23114 0.84497 0.0
H5037 H 0.08822 0.23703 0.83979 0.0
H5038 H 0.1113 0.24286 0.84758 0.0
H5039 H 0.0909 0.2487 0.84254 0.0
H5040 H 0.09934 0.26987 0.84192 0.0
H5041 H 0.09752 0.25817 0.83852 0.0
H5042 H 0.10863 0.25136 0.85601 0.0
H5043 H 0.11048 0.26305 0.85938 0.0
C5044 C 0.10468 0.23493 0.84441 0.0
C5045 C 0.09818 0.23315 0.84218 0.0
C5046 C 0.10623 0.24164 0.84593 0.0
C5047 C 0.10132 0.24672 0.84525 0.0
C5048 C 0.09483 0.24493 0.84301 0.0
C5049 C 0.09328 0.23823 0.84148 0.0
C5050 C 0.10141 0.26587 0.84503 0.0
C5051 C 0.10502 0.26737 0.85094 0.0
C5052 C 0.10036 0.25917 0.84308 0.0
C5053 C 0.10288 0.25383 0.84702 0.0
C5054 C 0.10668 0.25535 0.85282 0.0
C5055 C 0.10774 0.26205 0.85475 0.0
H5056 H 0.42341 0.02026 0.16442 0.0
H5057 H 0.40735 0.02606 0.15088 0.0
H5058 H 0.42078 0.00841 0.16249 0.0
H5059 H 0.40449 0.01423 0.14918 0.0
H5060 H 0.40415 0.99239 0.14297 0.0
H5061 H 0.408 0.00399 0.14417 0.0
H5062 H 0.41256 1.00028 0.16519 0.0
H5063 H 0.40917 0.98859 0.16387 0.0
C5064 C 0.41928 0.019 0.16107 0.0
C5065 C 0.41558 0.02408 0.15781 0.0
C5066 C 0.41774 0.0122 0.15998 0.0
C5067 C 0.4124 0.01034 0.15569 0.0
C5068 C 0.40871 0.01545 0.15242 0.0
C5069 C 0.41032 0.02225 0.15343 0.0
C5070 C 0.40611 0.99401 0.14781 0.0
C5071 C 0.40631 0.98955 0.15333 0.0
C5072 C 0.40822 1.0007 0.14853 0.0
C5073 C 0.41054 1.00311 0.15479 0.0
C5074 C 0.41088 0.99861 0.16027 0.0
C5075 C 0.40883 0.99191 0.15954 0.0
H5076 H 0.23775 0.17177 0.41419 0.0
H5077 H 0.23219 0.1556 0.40066 0.0
H5078 H 0.24964 0.16939 0.41216 0.0
H5079 H 0.24406 0.15299 0.39887 0.0
H5080 H 0.2658 0.1531 0.3924 0.0
H5081 H 0.25415 0.15672 0.39375 0.0
H5082 H 0.25804 0.16144 0.4147 0.0
H5083 H 0.26979 0.15829 0.41322 0.0
C5084 C 0.23908 0.16766 0.41083 0.0
C5085 C 0.23404 0.16386 0.4076 0.0
C5086 C 0.2459 0.16627 0.40968 0.0
C5087 C 0.24784 0.16098 0.40535 0.0
C5088 C 0.24278 0.15718 0.40213 0.0
C5089 C 0.23596 0.15864 0.4032 0.0
C5090 C 0.26421 0.15505 0.39726 0.0
C5091 C 0.26874 0.15536 0.40271 0.0
C5092 C 0.25749 0.15703 0.39806 0.0
C5093 C 0.25511 0.15931 0.40435 0.0
C5094 C 0.25968 0.15978 0.40976 0.0
C5095 C 0.26642 0.15787 0.40894 0.0
H5096 H 0.08982 0.98738 0.66922 0.0
H5097 H 0.0959 0.98202 0.64896 0.0
H5098 H 0.09269 0.99912 0.66698 0.0
H5099 H 0.09889 0.99377 0.64676 0.0
H5100 H 0.09694 0.01668 0.6433 0.0
H5101 H 0.09368 0.00495 0.64534 0.0
H5102 H 0.10279 0.00589 0.66514 0.0
H5103 H 0.10604 0.01755 0.66311 0.0
C5104 C 0.09179 0.9887 0.66429 0.0
C5105 C 0.09264 0.98376 0.65927 0.0
C5106 C 0.09346 0.99542 0.66302 0.0
C5107 C 0.09603 0.99737 0.65669 0.0
C5108 C 0.09685 0.99244 0.65165 0.0
C5109 C 0.09518 0.9857 0.65293 0.0
C5110 C 0.09826 0.01436 0.64807 0.0
C5111 C 0.10171 0.01806 0.65306 0.0
C5112 C 0.09641 0.00765 0.64924 0.0
C5113 C 0.09796 0.0045 0.65542 0.0
C5114 C 0.10141 0.0082 0.66038 0.0
C5115 C 0.10326 0.01489 0.65922 0.0
H5116 H 0.27501 0.84486 0.89913 0.0
H5117 H 0.26962 0.84116 0.91995 0.0
H5118 H 0.26326 0.84749 0.89656 0.0
H5119 H 0.25792 0.84393 0.91742 0.0
H5120 H 0.23653 0.84282 0.90946 0.0
H5121 H 0.24825 0.83956 0.91136 0.0
H5122 H 0.25488 0.85612 0.8988 0.0
H5123 H 0.24317 0.85933 0.89686 0.0
C5124 C 0.27133 0.84464 0.90316 0.0
C5125 C 0.27325 0.8428 0.90974 0.0
C5126 C 0.2646 0.84617 0.9017 0.0
C5127 C 0.25965 0.8459 0.90678 0.0
C5128 C 0.26159 0.84407 0.91336 0.0
C5129 C 0.26831 0.84254 0.91482 0.0
C5130 C 0.24049 0.84575 0.9071 0.0
C5131 C 0.23893 0.85134 0.90303 0.0
C5132 C 0.24721 0.8439 0.9082 0.0
C5133 C 0.2525 0.84761 0.90528 0.0
C5134 C 0.25092 0.8531 0.90107 0.0
C5135 C 0.24421 0.85494 0.89995 0.0
H5136 H 0.41027 0.9828 0.3582 0.0
H5137 H 0.41608 0.98822 0.33788 0.0
H5138 H 0.40709 0.99449 0.36041 0.0
H5139 H 0.41302 0.99991 0.34012 0.0
H5140 H 0.39942 0.01813 0.34407 0.0
H5141 H 0.40282 0.00651 0.34204 0.0
H5142 H 0.41214 0.00577 0.36175 0.0
H5143 H 0.40874 0.01745 0.36378 0.0
C5144 C 0.41089 0.98649 0.35421 0.0
C5145 C 0.4134 0.98458 0.34785 0.0
C5146 C 0.40911 0.99319 0.35549 0.0
C5147 C 0.4098 0.99813 0.35044 0.0
C5148 C 0.41235 0.99621 0.3441 0.0
C5149 C 0.41413 0.98952 0.34282 0.0
C5150 C 0.40227 0.01552 0.34794 0.0
C5151 C 0.40385 0.01873 0.35407 0.0
C5152 C 0.40421 0.00886 0.34678 0.0
C5153 C 0.40777 0.00522 0.35172 0.0
C5154 C 0.40933 0.00841 0.35787 0.0
C5155 C 0.40739 0.0151 0.35903 0.0
H5156 H 0.26974 0.16613 0.5876 0.0
H5157 H 0.2745 0.15991 0.60797 0.0
H5158 H 0.25791 0.16337 0.58953 0.0
H5159 H 0.26266 0.15706 0.60986 0.0
H5160 H 0.23978 0.15977 0.61287 0.0
H5161 H 0.25161 0.16269 0.61101 0.0
H5162 H 0.25081 0.15341 0.59128 0.0
H5163 H 0.23903 0.15046 0.59315 0.0
C5164 C 0.26827 0.16414 0.59248 0.0
C5165 C 0.27306 0.16323 0.59763 0.0
C5166 C 0.26149 0.16254 0.59358 0.0
C5167 C 0.25935 0.16001 0.59985 0.0
C5168 C 0.26414 0.15908 0.605 0.0
C5169 C 0.27093 0.16067 0.6039 0.0
C5170 C 0.24214 0.15832 0.60815 0.0
C5171 C 0.23845 0.1549 0.60315 0.0
C5172 C 0.24892 0.15999 0.60709 0.0
C5173 C 0.25214 0.15829 0.60099 0.0
C5174 C 0.24844 0.15489 0.59599 0.0
C5175 C 0.24168 0.15321 0.59705 0.0
H5176 H 0.09504 0.02559 0.85878 0.0
H5177 H 0.09072 0.01937 0.83831 0.0
H5178 H 0.09777 0.01395 0.86173 0.0
H5179 H 0.09357 0.00778 0.84123 0.0
H5180 H 0.0927 0.98675 0.85005 0.0
H5181 H 0.08931 0.99839 0.84793 0.0
H5182 H 0.10644 0.00548 0.85941 0.0
H5183 H 0.10982 0.99384 0.86154 0.0
C5184 C 0.0947 0.02175 0.85491 0.0
C5185 C 0.09266 0.02341 0.84831 0.0
C5186 C 0.09629 0.01508 0.85659 0.0
C5187 C 0.09586 0.00994 0.85172 0.0
C5188 C 0.09384 0.01161 0.84513 0.0
C5189 C 0.09226 0.01827 0.84344 0.0
C5190 C 0.09573 0.9908 0.85213 0.0
C5191 C 0.10155 0.98937 0.85593 0.0
C5192 C 0.0938 0.99746 0.8509 0.0
C5193 C 0.09764 1.00286 0.85345 0.0
C5194 C 0.10333 1.00143 0.85744 0.0
C5195 C 0.10526 0.99476 0.85867 0.0
H5196 H 0.23147 0.84473 0.10851 0.0
H5197 H 0.23748 0.84001 0.08807 0.0
H5198 H 0.24317 0.84735 0.11134 0.0
H5199 H 0.24912 0.84275 0.09086 0.0
H5200 H 0.27025 0.84199 0.09942 0.0
H5201 H 0.25857 0.8386 0.09747 0.0
H5202 H 0.25167 0.85587 0.10887 0.0
H5203 H 0.26333 0.85922 0.11085 0.0
C5204 C 0.23528 0.84428 0.10462 0.0
C5205 C 0.23354 0.84217 0.09806 0.0
C5206 C 0.24198 0.8458 0.10623 0.0
C5207 C 0.24708 0.84524 0.10133 0.0
C5208 C 0.24533 0.84313 0.09478 0.0
C5209 C 0.23864 0.84161 0.09317 0.0
C5210 C 0.26623 0.84505 0.10152 0.0
C5211 C 0.26771 0.85089 0.10526 0.0
C5212 C 0.25955 0.84312 0.10039 0.0
C5213 C 0.25419 0.847 0.10296 0.0
C5214 C 0.25567 0.85272 0.10688 0.0
C5215 C 0.26236 0.85465 0.10802 0.0
H5216 H 0.16933 0.41598 0.02003 0.0
H5217 H 0.14858 0.41216 0.02559 0.0
H5218 H 0.16671 0.41326 0.00834 0.0
H5219 H 0.14593 0.40957 0.01384 0.0
H5220 H 0.14631 0.39765 0.99372 0.0
H5221 H 0.14822 0.40092 0.00543 0.0
H5222 H 0.16049 0.41767 0.99874 0.0
H5223 H 0.15861 0.41437 0.98702 0.0
C5224 C 0.1642 0.41458 0.01876 0.0
C5225 C 0.15917 0.41427 0.02374 0.0
C5226 C 0.16269 0.41307 0.01204 0.0
C5227 C 0.1561 0.41123 0.01015 0.0
C5228 C 0.15106 0.41091 0.01515 0.0
C5229 C 0.15258 0.41242 0.02187 0.0
C5230 C 0.14932 0.4021 0.99475 0.0
C5231 C 0.15234 0.40574 0.98945 0.0
C5232 C 0.15042 0.40397 1.00146 0.0
C5233 C 0.15455 0.40952 1.00302 0.0
C5234 C 0.15739 0.41329 0.99771 0.0
C5235 C 0.1563 0.41141 0.991 0.0
H5236 H 0.66317 0.08449 0.98706 0.0
H5237 H 0.6499 0.10108 0.98218 0.0
H5238 H 0.66138 0.08657 0.99905 0.0
H5239 H 0.64834 0.10337 0.99416 0.0
H5240 H 0.64231 0.10293 0.01597 0.0
H5241 H 0.64332 0.09947 0.00423 0.0
H5242 H 0.66425 0.09427 0.0076 0.0
H5243 H 0.66309 0.09727 0.01942 0.0
C5244 C 0.65991 0.08862 0.98856 0.0
C5245 C 0.65669 0.09263 0.98369 0.0
C5246 C 0.6589 0.08983 0.99544 0.0
C5247 C 0.65472 0.09515 0.9976 0.0
C5248 C 0.65149 0.09915 0.9927 0.0
C5249 C 0.65243 0.09788 0.98582 0.0
C5250 C 0.64708 0.1009 0.01425 0.0
C5251 C 0.65263 0.10043 0.01865 0.0
C5252 C 0.6477 0.09901 0.00748 0.0
C5253 C 0.65389 0.09666 0.00492 0.0
C5254 C 0.65938 0.096 0.00938 0.0
C5255 C 0.65874 0.09782 0.01616 0.0
H5256 H 0.16112 0.39912 0.23289 0.0
H5257 H 0.16587 0.41982 0.23791 0.0
H5258 H 0.15799 0.39701 0.24463 0.0
H5259 H 0.16285 0.41767 0.24963 0.0
H5260 H 0.14962 0.41339 0.26803 0.0
H5261 H 0.15273 0.41532 0.25631 0.0
H5262 H 0.16322 0.39621 0.25592 0.0
H5263 H 0.16012 0.39428 0.2677 0.0
C5264 C 0.1615 0.40322 0.2365 0.0
C5265 C 0.16373 0.40964 0.23447 0.0
C5266 C 0.15976 0.40199 0.24323 0.0
C5267 C 0.16017 0.40718 0.24806 0.0
C5268 C 0.16239 0.4136 0.24602 0.0
C5269 C 0.16415 0.41482 0.2393 0.0
C5270 C 0.15266 0.40963 0.26548 0.0
C5271 C 0.15467 0.4037 0.26882 0.0
C5272 C 0.15443 0.41073 0.25875 0.0
C5273 C 0.15824 0.40593 0.25519 0.0
C5274 C 0.16021 0.39997 0.25851 0.0
C5275 C 0.15844 0.39887 0.26525 0.0
H5276 H 0.85763 0.90573 0.4826 0.0
H5277 H 0.84415 0.9221 0.48764 0.0
H5278 H 0.85913 0.90327 0.49454 0.0
H5279 H 0.84586 0.91984 0.49961 0.0
H5280 H 0.84421 0.90884 0.51983 0.0
H5281 H 0.84304 0.91194 0.50803 0.0
H5282 H 0.86406 0.90715 0.50468 0.0
H5283 H 0.8651 0.9036 0.51639 0.0
C5284 C 0.85504 0.90884 0.48627 0.0
C5285 C 0.85074 0.91408 0.48418 0.0
C5286 C 0.85594 0.90747 0.49313 0.0
C5287 C 0.85263 0.91136 0.49807 0.0
C5288 C 0.8484 0.91667 0.49596 0.0
C5289 C 0.84744 0.91798 0.4891 0.0
C5290 C 0.84857 0.9084 0.51657 0.0
C5291 C 0.85473 0.90589 0.51906 0.0
C5292 C 0.84793 0.91028 0.50981 0.0
C5293 C 0.85344 0.90976 0.50537 0.0
C5294 C 0.85967 0.90749 0.50792 0.0
C5295 C 0.8603 0.90556 0.51467 0.0
H5296 H 0.84138 0.08773 0.23774 0.0
H5297 H 0.84693 0.10829 0.23302 0.0
H5298 H 0.84426 0.08966 0.24954 0.0
H5299 H 0.84992 0.11018 0.24482 0.0
H5300 H 0.8477 0.11288 0.26782 0.0
H5301 H 0.84455 0.11108 0.25603 0.0
H5302 H 0.85433 0.0916 0.2564 0.0
H5303 H 0.8575 0.0934 0.26813 0.0
C5304 C 0.84324 0.09265 0.23922 0.0
C5305 C 0.84394 0.09785 0.23444 0.0
C5306 C 0.84492 0.09375 0.24598 0.0
C5307 C 0.84732 0.10007 0.24812 0.0
C5308 C 0.848 0.10528 0.24334 0.0
C5309 C 0.84634 0.10418 0.23657 0.0
C5310 C 0.8492 0.10823 0.26537 0.0
C5311 C 0.85282 0.10327 0.26892 0.0
C5312 C 0.84741 0.1072 0.25862 0.0
C5313 C 0.84918 0.10119 0.25529 0.0
C5314 C 0.85279 0.09623 0.25885 0.0
C5315 C 0.85459 0.09726 0.26558 0.0
H5316 H 0.35826 0.59451 0.52474 0.0
H5317 H 0.33706 0.59353 0.51972 0.0
H5318 H 0.3608 0.59823 0.51324 0.0
H5319 H 0.3396 0.59718 0.50826 0.0
H5320 H 0.34563 0.61083 0.49087 0.0
H5321 H 0.34362 0.60746 0.50251 0.0
H5322 H 0.36051 0.59371 0.50145 0.0
H5323 H 0.36251 0.59707 0.48973 0.0
C5324 C 0.35415 0.59509 0.52119 0.0
C5325 C 0.34746 0.59374 0.52314 0.0
C5326 C 0.3556 0.59718 0.5146 0.0
C5327 C 0.35039 0.59801 0.50986 0.0
C5328 C 0.34371 0.59667 0.51183 0.0
C5329 C 0.34226 0.59454 0.51839 0.0
C5330 C 0.34889 0.60705 0.49309 0.0
C5331 C 0.35418 0.60416 0.48935 0.0
C5332 C 0.34774 0.60513 0.49977 0.0
C5333 C 0.35187 0.60028 0.50287 0.0
C5334 C 0.35728 0.5975 0.4992 0.0
C5335 C 0.35842 0.59942 0.4925 0.0
H5336 H 0.15417 0.60814 0.27443 0.0
H5337 H 0.17108 0.5952 0.26974 0.0
H5338 H 0.15195 0.60959 0.26244 0.0
H5339 H 0.16904 0.59687 0.25772 0.0
H5340 H 0.15846 0.59501 0.23724 0.0
H5341 H 0.16138 0.59385 0.2491 0.0
H5342 H 0.15602 0.61474 0.25245 0.0
H5343 H 0.15268 0.61576 0.24068 0.0
C5344 C 0.15745 0.60565 0.27083 0.0
C5345 C 0.16278 0.60153 0.27303 0.0
C5346 C 0.15621 0.60653 0.26395 0.0
C5347 C 0.16033 0.60337 0.25909 0.0
C5348 C 0.16571 0.5993 0.26131 0.0
C5349 C 0.16689 0.59836 0.2682 0.0
C5350 C 0.15787 0.59935 0.24051 0.0
C5351 C 0.15526 0.60545 0.23801 0.0
C5352 C 0.15963 0.59871 0.24731 0.0
C5353 C 0.15889 0.60419 0.25176 0.0
C5354 C 0.15654 0.61038 0.2492 0.0
C5355 C 0.15472 0.61099 0.24241 0.0
H5356 H 0.3368 0.41593 0.76891 0.0
H5357 H 0.34901 0.39947 0.77636 0.0
H5358 H 0.34023 0.41326 0.75738 0.0
H5359 H 0.35246 0.39683 0.7648 0.0
H5360 H 0.36339 0.40118 0.74428 0.0
H5361 H 0.35949 0.40279 0.75588 0.0
H5362 H 0.33889 0.40378 0.74882 0.0
H5363 H 0.34281 0.40221 0.73719 0.0
C5364 C 0.34021 0.41174 0.76809 0.0
C5365 C 0.34265 0.40793 0.77354 0.0
C5366 C 0.34213 0.41018 0.76148 0.0
C5367 C 0.3466 0.40483 0.76021 0.0
C5368 C 0.34904 0.401 0.76565 0.0
C5369 C 0.34704 0.40251 0.77226 0.0
C5370 C 0.35803 0.40172 0.74522 0.0
C5371 C 0.3534 0.40161 0.73985 0.0
C5372 C 0.3558 0.40258 0.75185 0.0
C5373 C 0.3489 0.40343 0.75323 0.0
C5374 C 0.34425 0.40319 0.74788 0.0
C5375 C 0.34648 0.40224 0.74124 0.0
H5376 H 0.97793 0.86169 0.60457 0.0
H5377 H 0.98163 0.84942 0.58693 0.0
H5378 H 0.98993 0.86161 0.60717 0.0
H5379 H 0.9937 0.84952 0.58939 0.0
H5380 H 0.01364 0.84482 0.60019 0.0
H5381 H 1.00174 0.84507 0.59715 0.0
H5382 H 1.00055 0.86589 0.60355 0.0
H5383 H 0.01233 0.86552 0.60696 0.0
C5384 C 0.98132 0.85902 0.60121 0.0
C5385 C 0.97882 0.85555 0.59555 0.0
C5386 C 0.98822 0.85901 0.60267 0.0
C5387 C 0.99281 0.85558 0.59848 0.0
C5388 C 0.99031 0.85214 0.59279 0.0
C5389 C 0.98339 0.85211 0.59135 0.0
C5390 C 0.01083 0.84944 0.601 0.0
C5391 C 0.01395 0.85513 0.60387 0.0
C5392 C 0.00402 0.84961 0.59917 0.0
C5393 C 1.00015 0.85549 0.60013 0.0
C5394 C 1.00332 0.86123 0.60284 0.0
C5395 C 0.01013 0.86105 0.6047 0.0
H5396 H 0.91704 0.23324 0.34033 0.0
H5397 H 0.8968 0.22849 0.34692 0.0
H5398 H 0.91533 0.24499 0.34352 0.0
H5399 H 0.89503 0.24029 0.34998 0.0
H5400 H 0.89756 0.26022 0.36183 0.0
H5401 H 0.89868 0.24849 0.35828 0.0
H5402 H 0.90913 0.25496 0.34025 0.0
H5403 H 0.90805 0.26668 0.34384 0.0
C5404 C 0.91221 0.23471 0.34243 0.0
C5405 C 0.90707 0.22992 0.34338 0.0
C5406 C 0.91121 0.24146 0.34422 0.0
C5407 C 0.90503 0.24359 0.34699 0.0
C5408 C 0.89988 0.2388 0.34793 0.0
C5409 C 0.90088 0.23204 0.34615 0.0
C5410 C 0.90001 0.25914 0.35706 0.0
C5411 C 0.90274 0.26438 0.35313 0.0
C5412 C 0.90066 0.25241 0.35502 0.0
C5413 C 0.90404 0.25077 0.34899 0.0
C5414 C 0.90662 0.25603 0.34499 0.0
C5415 C 0.90599 0.26275 0.34704 0.0
H5416 H 0.529 0.14791 0.10133 0.0
H5417 H 0.52376 0.16235 0.08587 0.0
H5418 H 0.51717 0.147 0.10452 0.0
H5419 H 0.51188 0.16124 0.08884 0.0
H5420 H 0.49248 0.16361 0.10106 0.0
H5421 H 0.50415 0.16422 0.09737 0.0
H5422 H 0.50648 0.14287 0.10123 0.0
H5423 H 0.49491 0.14237 0.10535 0.0
C5424 C 0.52531 0.15084 0.09856 0.0
C5425 C 0.52733 0.15523 0.09337 0.0
C5426 C 0.51851 0.15028 0.10035 0.0
C5427 C 0.51353 0.15404 0.09694 0.0
C5428 C 0.51556 0.15835 0.09167 0.0
C5429 C 0.52238 0.15897 0.08993 0.0
C5430 C 0.49549 0.15905 0.10118 0.0
C5431 C 0.49275 0.15295 0.10358 0.0
C5432 C 0.50218 0.15938 0.09896 0.0
C5433 C 0.5063 0.1536 0.09901 0.0
C5434 C 0.5035 0.14745 0.10123 0.0
C5435 C 0.49682 0.14714 0.1035 0.0
H5436 H 0.61314 0.77981 0.85359 0.0
H5437 H 0.59952 0.77655 0.83687 0.0
H5438 H 0.61302 0.76778 0.85605 0.0
H5439 H 0.59957 0.76446 0.83919 0.0
H5440 H 0.59509 0.74463 0.85032 0.0
H5441 H 0.59546 0.75652 0.84727 0.0
H5442 H 0.61674 0.75708 0.85204 0.0
H5443 H 0.61628 0.74529 0.85546 0.0
C5444 C 0.61017 0.77651 0.8504 0.0
C5445 C 0.60632 0.77915 0.84505 0.0
C5446 C 0.61013 0.7696 0.85178 0.0
C5447 C 0.6063 0.76513 0.84781 0.0
C5448 C 0.60251 0.76776 0.84241 0.0
C5449 C 0.60251 0.77469 0.84106 0.0
C5450 C 0.59984 0.7473 0.85076 0.0
C5451 C 0.60564 0.744 0.85319 0.0
C5452 C 0.60008 0.75411 0.84892 0.0
C5453 C 0.60613 0.75778 0.84943 0.0
C5454 C 0.61197 0.75444 0.85168 0.0
C5455 C 0.61173 0.74764 0.85355 0.0
H5456 H 0.97731 0.1445 0.90314 0.0
H5457 H 0.98078 0.15703 0.92065 0.0
H5458 H 0.98935 0.14449 0.90074 0.0
H5459 H 0.99288 0.15682 0.91839 0.0
H5460 H 0.01295 0.16138 0.90778 0.0
H5461 H 1.00103 0.16115 0.9107 0.0
H5462 H 0.99991 0.14026 0.90452 0.0
H5463 H 0.01173 0.14061 0.90121 0.0
C5464 C 0.98065 0.1472 0.90651 0.0
C5465 C 0.97808 0.15078 0.91207 0.0
C5466 C 0.98758 0.14715 0.90517 0.0
C5467 C 0.99211 0.15064 0.90938 0.0
C5468 C 0.98953 0.15416 0.91498 0.0
C5469 C 0.9826 0.15426 0.9163 0.0
C5470 C 0.01016 0.15675 0.90699 0.0
C5471 C 0.01331 0.15103 0.9042 0.0
C5472 C 1.00333 0.15659 0.90876 0.0
C5473 C 0.99948 0.1507 0.90783 0.0
C5474 C 1.00268 0.14493 0.90521 0.0
C5475 C 0.0095 0.14509 0.9034 0.0
H5476 H 0.6131 0.22735 0.65359 0.0
H5477 H 0.59961 0.23104 0.67033 0.0
H5478 H 0.61333 0.23938 0.6511 0.0
H5479 H 0.60001 0.24312 0.66798 0.0
H5480 H 0.59615 0.26309 0.65688 0.0
H5481 H 0.59615 0.2512 0.65994 0.0
H5482 H 0.61738 0.24996 0.65505 0.0
H5483 H 0.61727 0.26175 0.65162 0.0
C5484 C 0.61023 0.23074 0.65678 0.0
C5485 C 0.60633 0.22823 0.66214 0.0
C5486 C 0.6104 0.23765 0.65538 0.0
C5487 C 0.6067 0.24224 0.65934 0.0
C5488 C 0.60284 0.23973 0.66476 0.0
C5489 C 0.60264 0.23281 0.66613 0.0
C5490 C 0.60081 0.26027 0.65641 0.0
C5491 C 0.6067 0.26339 0.65395 0.0
C5492 C 0.60083 0.25346 0.65826 0.0
C5493 C 0.60676 0.24959 0.65772 0.0
C5494 C 0.61269 0.25275 0.65543 0.0
C5495 C 0.61266 0.25955 0.65355 0.0
H5496 H 0.5286 0.85997 0.41457 0.0
H5497 H 0.5246 0.83857 0.41586 0.0
H5498 H 0.5169 0.86197 0.41136 0.0
H5499 H 0.51296 0.84053 0.41243 0.0
H5500 H 0.49097 0.84657 0.41196 0.0
H5501 H 0.50245 0.84514 0.41611 0.0
H5502 H 0.50939 0.86035 0.40209 0.0
H5503 H 0.49787 0.86203 0.39821 0.0
C5504 C 0.52523 0.85569 0.41414 0.0
C5505 C 0.52754 0.84911 0.41547 0.0
C5506 C 0.51852 0.85683 0.41226 0.0
C5507 C 0.51397 0.85141 0.41162 0.0
C5508 C 0.51629 0.84484 0.41298 0.0
C5509 C 0.52298 0.84371 0.4149 0.0
C5510 C 0.49492 0.8497 0.40985 0.0
C5511 C 0.49348 0.8544 0.40474 0.0
C5512 C 0.50153 0.84881 0.41216 0.0
C5513 C 0.50688 0.85259 0.4094 0.0
C5514 C 0.50541 0.85739 0.40438 0.0
C5515 C 0.4988 0.8583 0.40209 0.0
H5516 H 0.89561 0.77868 0.16071 0.0
H5517 H 0.9162 0.77482 0.16675 0.0
H5518 H 0.89428 0.76683 0.15767 0.0
H5519 H 0.91494 0.76302 0.16354 0.0
H5520 H 0.90863 0.74097 0.16305 0.0
H5521 H 0.90942 0.75269 0.16673 0.0
H5522 H 0.89795 0.75892 0.14925 0.0
H5523 H 0.8971 0.7472 0.14563 0.0
C5524 C 0.89986 0.77531 0.16137 0.0
C5525 C 0.90602 0.7777 0.16397 0.0
C5526 C 0.89911 0.76852 0.15959 0.0
C5527 C 0.9045 0.76396 0.16035 0.0
C5528 C 0.91064 0.76636 0.16298 0.0
C5529 C 0.91139 0.77314 0.16478 0.0
C5530 C 0.90628 0.74485 0.15999 0.0
C5531 C 0.90281 0.74315 0.15404 0.0
C5532 C 0.90674 0.75157 0.16209 0.0
C5533 C 0.90377 0.75677 0.15827 0.0
C5534 C 0.90021 0.75505 0.15237 0.0
C5535 C 0.89973 0.74832 0.15029 0.0
H5536 H 0.60406 0.97771 0.86229 0.0
H5537 H 0.58656 0.98107 0.84973 0.0
H5538 H 0.6065 0.98974 0.86214 0.0
H5539 H 0.58886 0.99317 0.84977 0.0
H5540 H 0.59958 0.01316 0.84497 0.0
H5541 H 0.59662 1.00124 0.84532 0.0
H5542 H 0.6027 1.00036 0.86626 0.0
H5543 H 0.60603 0.01216 0.86579 0.0
C5544 C 0.6007 0.98103 0.85955 0.0
C5545 C 0.59513 0.97843 0.85601 0.0
C5546 C 0.60207 0.98795 0.8595 0.0
C5547 C 0.59787 0.99245 0.85596 0.0
C5548 C 0.59226 0.98985 0.85247 0.0
C5549 C 0.59092 0.98291 0.85248 0.0
C5550 C 0.60033 0.01041 0.84963 0.0
C5551 C 0.6031 0.01363 0.85533 0.0
C5552 C 0.59854 0.00359 0.84986 0.0
C5553 C 0.59944 0.99981 0.85581 0.0
C5554 C 0.60204 1.00307 0.86156 0.0
C5555 C 0.60386 0.00989 0.86132 0.0
H5556 H 0.77636 0.83998 0.59573 0.0
H5557 H 0.77895 0.84867 0.61556 0.0
H5558 H 0.76443 0.84298 0.59597 0.0
H5559 H 0.76699 0.85147 0.61591 0.0
H5560 H 0.74738 0.86249 0.61104 0.0
H5561 H 0.75919 0.85911 0.61101 0.0
H5562 H 0.75381 0.84046 0.60104 0.0
H5563 H 0.74199 0.84395 0.60094 0.0
C5564 C 0.77437 0.84247 0.60017 0.0
C5565 C 0.77861 0.84412 0.60561 0.0
C5566 C 0.76751 0.84416 0.60033 0.0
C5567 C 0.76473 0.84749 0.60595 0.0
C5568 C 0.76897 0.84902 0.61144 0.0
C5569 C 0.77583 0.84738 0.61126 0.0
C5570 C 0.74872 0.85764 0.6089 0.0
C5571 C 0.74376 0.85348 0.606 0.0
C5572 C 0.75549 0.85569 0.60889 0.0
C5573 C 0.75748 0.84949 0.60604 0.0
C5574 C 0.75249 0.8453 0.60319 0.0
C5575 C 0.74572 0.84729 0.60315 0.0
H5576 H 0.92101 0.02475 0.34913 0.0
H5577 H 0.90277 0.02855 0.36048 0.0
H5578 H 0.91826 0.01271 0.34878 0.0
H5579 H 0.90002 0.01655 0.36008 0.0
H5580 H 0.89369 0.99632 0.35055 0.0
H5581 H 0.8968 0.00823 0.3509 0.0
H5582 H 0.91697 1.0028 0.35709 0.0
H5583 H 0.91385 0.99083 0.35672 0.0
C5584 C 0.91642 0.02302 0.35155 0.0
C5585 C 0.9121 0.02761 0.35482 0.0
C5586 C 0.91487 0.01613 0.35138 0.0
C5587 C 0.90892 0.01371 0.35439 0.0
C5588 C 0.90461 0.01829 0.35766 0.0
C5589 C 0.9062 0.02516 0.35792 0.0
C5590 C 0.8988 0.99766 0.35193 0.0
C5591 C 0.90353 0.99265 0.35359 0.0
C5592 C 0.90057 0.00448 0.35219 0.0
C5593 C 0.90712 0.00644 0.35404 0.0
C5594 C 0.91189 1.00143 0.35562 0.0
C5595 C 0.9101 0.99459 0.35545 0.0
H5596 H 0.7311 0.17073 0.10018 0.0
H5597 H 0.72761 0.15318 0.11265 0.0
H5598 H 0.74317 0.16836 0.10021 0.0
H5599 H 0.73963 0.15067 0.11249 0.0
H5600 H 0.76207 0.15095 0.11607 0.0
H5601 H 0.75029 0.15436 0.11659 0.0
H5602 H 0.75117 0.16058 0.09569 0.0
H5603 H 0.76307 0.15754 0.09529 0.0
C5604 C 0.73291 0.16635 0.10291 0.0
C5605 C 0.72839 0.16214 0.10641 0.0
C5606 C 0.73983 0.16497 0.10289 0.0
C5607 C 0.7424 0.15932 0.10635 0.0
C5608 C 0.73787 0.15513 0.10987 0.0
C5609 C 0.73096 0.15654 0.10992 0.0
C5610 C 0.7598 0.15317 0.11162 0.0
C5611 C 0.76354 0.15395 0.10563 0.0
C5612 C 0.753 0.15503 0.11189 0.0
C5613 C 0.74974 0.15769 0.10617 0.0
C5614 C 0.75351 0.1586 0.10022 0.0
C5615 C 0.76033 0.15677 0.09996 0.0
H5616 H 0.58657 0.02601 0.65748 0.0
H5617 H 0.60395 0.02956 0.64478 0.0
H5618 H 0.58893 0.01393 0.65732 0.0
H5619 H 0.60644 0.01754 0.64481 0.0
H5620 H 0.60617 0.99513 0.64112 0.0
H5621 H 0.6027 0.0069 0.64069 0.0
H5622 H 0.59678 0.00592 0.66168 0.0
H5623 H 0.59987 0.99404 0.66199 0.0
C5624 C 0.59091 0.02422 0.65467 0.0
C5625 C 0.59507 0.02875 0.65114 0.0
C5626 C 0.59228 0.01729 0.65461 0.0
C5627 C 0.59788 0.01474 0.65105 0.0
C5628 C 0.60202 0.01929 0.6475 0.0
C5629 C 0.60062 0.0262 0.64753 0.0
C5630 C 0.604 0.99738 0.64561 0.0
C5631 C 0.60333 0.99362 0.6516 0.0
C5632 C 0.6021 0.00417 0.64539 0.0
C5633 C 0.59951 0.0074 0.65117 0.0
C5634 C 0.5987 0.0036 0.65711 0.0
C5635 C 0.60056 0.99679 0.65732 0.0
H5636 H 0.73125 0.83688 0.40737 0.0
H5637 H 0.72791 0.85487 0.39552 0.0
H5638 H 0.74337 0.83904 0.40723 0.0
H5639 H 0.73997 0.85716 0.39557 0.0
H5640 H 0.7623 0.85655 0.39147 0.0
H5641 H 0.75045 0.85338 0.39111 0.0
H5642 H 0.75165 0.84649 0.41178 0.0
H5643 H 0.76361 0.84929 0.412 0.0
C5644 C 0.7331 0.84132 0.40477 0.0
C5645 C 0.72862 0.8457 0.40145 0.0
C5646 C 0.74005 0.84258 0.40471 0.0
C5647 C 0.74267 0.84828 0.40138 0.0
C5648 C 0.73816 0.85266 0.39808 0.0
C5649 C 0.73123 0.85137 0.39809 0.0
C5650 C 0.76008 0.85424 0.3959 0.0
C5651 C 0.76393 0.8532 0.40178 0.0
C5652 C 0.75324 0.85251 0.39573 0.0
C5653 C 0.75005 0.84974 0.40144 0.0
C5654 C 0.75394 0.84856 0.40726 0.0
C5655 C 0.76079 0.85025 0.40742 0.0
H5656 H 0.90195 0.97701 0.14582 0.0
H5657 H 0.92072 0.98116 0.15612 0.0
H5658 H 0.89921 0.98901 0.14599 0.0
H5659 H 0.91797 0.9932 0.15624 0.0
H5660 H 0.91303 0.0149 0.14828 0.0
H5661 H 0.91618 1.00294 0.1478 0.0
H5662 H 0.89643 0.99747 0.15521 0.0
H5663 H 0.89328 0.00937 0.15566 0.0
C5664 C 0.90551 0.98048 0.14809 0.0
C5665 C 0.91154 0.97813 0.15098 0.0
C5666 C 0.90392 0.98735 0.14821 0.0
C5667 C 0.90837 0.99203 0.15114 0.0
C5668 C 0.91447 0.98971 0.15391 0.0
C5669 C 0.91602 0.98281 0.15387 0.0
C5670 C 0.90937 0.01113 0.14978 0.0
C5671 C 0.90292 0.01306 0.15202 0.0
C5672 C 0.91118 0.0043 0.14955 0.0
C5673 C 0.90654 0.99928 0.15145 0.0
C5674 C 0.90009 1.00122 0.15366 0.0
C5675 C 0.89831 0.00803 0.15397 0.0
H5676 H 0.77675 0.16427 0.91394 0.0
H5677 H 0.77882 0.16221 0.89233 0.0
H5678 H 0.76487 0.16122 0.91311 0.0
H5679 H 0.76687 0.15947 0.89144 0.0
H5680 H 0.74759 0.14707 0.89305 0.0
H5681 H 0.75928 0.15069 0.89369 0.0
H5682 H 0.75405 0.1647 0.9096 0.0
H5683 H 0.74243 0.16073 0.90925 0.0
C5684 C 0.77464 0.16324 0.909 0.0
C5685 C 0.77873 0.16343 0.90321 0.0
C5686 C 0.76781 0.16154 0.90851 0.0
C5687 C 0.76487 0.16007 0.9022 0.0
C5688 C 0.76896 0.16042 0.8964 0.0
C5689 C 0.77581 0.16203 0.8969 0.0
C5690 C 0.74894 0.15088 0.89673 0.0
C5691 C 0.74406 0.15356 0.90114 0.0
C5692 C 0.75564 0.15304 0.89703 0.0
C5693 C 0.75765 0.158 0.90171 0.0
C5694 C 0.75273 0.1608 0.906 0.0
C5695 C 0.74603 0.15859 0.90574 0.0
H5696 H 0.85039 0.58554 0.98146 0.0
H5697 H 0.86225 0.60356 0.97834 0.0
H5698 H 0.85049 0.58756 0.9936 0.0
H5699 H 0.86216 0.60573 0.99043 0.0
H5700 H 0.86601 0.60506 0.01277 0.0
H5701 H 0.86651 0.60193 1.00091 0.0
H5702 H 0.84588 0.5949 1.00192 0.0
H5703 H 0.84553 0.59764 0.01389 0.0
C5704 C 0.85299 0.58995 0.98336 0.0
C5705 C 0.85631 0.59439 0.97893 0.0
C5706 C 0.85302 0.59113 0.99033 0.0
C5707 C 0.85634 0.59681 0.99302 0.0
C5708 C 0.85966 0.60124 0.98857 0.0
C5709 C 0.85968 0.60002 0.98162 0.0
C5710 C 0.86163 0.60271 0.01051 0.0
C5711 C 0.85572 0.60163 0.01431 0.0
C5712 C 0.86187 0.60101 1.00367 0.0
C5713 C 0.85621 0.59822 1.00042 0.0
C5714 C 0.85036 0.59698 0.00425 0.0
C5715 C 0.85013 0.59865 0.01111 0.0
H5716 H 0.34431 0.92271 0.02344 0.0
H5717 H 0.35803 0.90656 0.02851 0.0
H5718 H 0.34548 0.91998 0.01151 0.0
H5719 H 0.35898 0.9036 0.01662 0.0
H5720 H 0.36393 0.90307 0.99444 0.0
H5721 H 0.36339 0.90691 0.00609 0.0
H5722 H 0.34231 0.91188 1.00347 0.0
H5723 H 0.34298 0.9085 0.99171 0.0
C5724 C 0.34754 0.91854 0.02201 0.0
C5725 C 0.35107 0.91485 0.02692 0.0
C5726 C 0.34819 0.91695 0.01516 0.0
C5727 C 0.35231 0.91155 0.01306 0.0
C5728 C 0.35585 0.90787 0.018 0.0
C5729 C 0.35527 0.90953 0.02484 0.0
C5730 C 0.35921 0.90511 0.9963 0.0
C5731 C 0.35349 0.90544 0.99211 0.0
C5732 C 0.35888 0.90722 1.00304 0.0
C5733 C 0.35279 0.90966 0.00578 0.0
C5734 C 0.34711 0.9101 1.00155 0.0
C5735 C 0.34746 0.90806 0.9948 0.0
H5736 H 0.83747 0.59009 0.77578 0.0
H5737 H 0.84439 0.61013 0.7809 0.0
H5738 H 0.84035 0.5921 0.76399 0.0
H5739 H 0.84715 0.61219 0.76907 0.0
H5740 H 0.85872 0.60985 0.74893 0.0
H5741 H 0.8553 0.60853 0.76067 0.0
H5742 H 0.83695 0.59867 0.75423 0.0
H5743 H 0.84039 0.59997 0.74247 0.0
C5744 C 0.83957 0.59494 0.77439 0.0
C5745 C 0.84071 0.59994 0.77929 0.0
C5746 C 0.84118 0.59611 0.76761 0.0
C5747 C 0.84397 0.60231 0.76558 0.0
C5748 C 0.84508 0.60733 0.77048 0.0
C5749 C 0.84346 0.60616 0.77726 0.0
C5750 C 0.8539 0.6075 0.75001 0.0
C5751 C 0.84983 0.60499 0.74476 0.0
C5752 C 0.85194 0.60674 0.75675 0.0
C5753 C 0.84586 0.60346 0.7584 0.0
C5754 C 0.84172 0.60111 0.75314 0.0
C5755 C 0.84368 0.60186 0.7464 0.0
H5756 H 0.15521 0.08629 0.52619 0.0
H5757 H 0.14659 0.10598 0.52989 0.0
H5758 H 0.15557 0.08874 0.51407 0.0
H5759 H 0.147 0.10842 0.51781 0.0
H5760 H 0.15689 0.11298 0.49725 0.0
H5761 H 0.15641 0.11014 0.50923 0.0
H5762 H 0.14716 0.09102 0.50435 0.0
H5763 H 0.14767 0.09386 0.4923 0.0
C5764 C 0.15339 0.09113 0.52442 0.0
C5765 C 0.15088 0.09595 0.52899 0.0
C5766 C 0.15356 0.09251 0.51749 0.0
C5767 C 0.15133 0.09877 0.51502 0.0
C5768 C 0.14881 0.10357 0.51959 0.0
C5769 C 0.14855 0.10216 0.5265 0.0
C5770 C 0.15481 0.10815 0.49873 0.0
C5771 C 0.15234 0.10364 0.49384 0.0
C5772 C 0.15448 0.10655 0.50558 0.0
C5773 C 0.15173 0.10037 0.50771 0.0
C5774 C 0.14933 0.09581 0.50284 0.0
C5775 C 0.14958 0.09745 0.49596 0.0
H5776 H 0.17224 0.9131 0.77386 0.0
H5777 H 0.15653 0.89898 0.77924 0.0
H5778 H 0.1694 0.91177 0.76197 0.0
H5779 H 0.15346 0.89787 0.76738 0.0
H5780 H 0.1528 0.89284 0.74518 0.0
H5781 H 0.15676 0.8935 0.75679 0.0
H5782 H 0.16105 0.91472 0.75409 0.0
H5783 H 0.15754 0.91394 0.74238 0.0
C5784 C 0.16814 0.90974 0.7725 0.0
C5785 C 0.1646 0.90616 0.77749 0.0
C5786 C 0.16648 0.909 0.76568 0.0
C5787 C 0.16117 0.90473 0.76368 0.0
C5788 C 0.15765 0.90112 0.76869 0.0
C5789 C 0.15938 0.90179 0.77551 0.0
C5790 C 0.15472 0.89761 0.74702 0.0
C5791 C 0.15481 0.90334 0.74283 0.0
C5792 C 0.1569 0.89802 0.75373 0.0
C5793 C 0.15918 0.90418 0.75644 0.0
C5794 C 0.1594 0.90987 0.7522 0.0
C5795 C 0.15728 0.90945 0.74548 0.0
H5796 H 0.66368 0.42203 0.4836 0.0
H5797 H 0.64911 0.40728 0.47685 0.0
H5798 H 0.66196 0.41837 0.49526 0.0
H5799 H 0.64745 0.40359 0.48851 0.0
H5800 H 0.654 0.39368 0.50888 0.0
H5801 H 0.65481 0.3977 0.49725 0.0
H5802 H 0.6526 0.41824 0.50419 0.0
H5803 H 0.65181 0.41421 0.51586 0.0
C5804 C 0.6601 0.41802 0.48461 0.0
C5805 C 0.65655 0.41493 0.4793 0.0
C5806 C 0.65909 0.41596 0.49128 0.0
C5807 C 0.65457 0.4107 0.49278 0.0
C5808 C 0.65099 0.40763 0.48749 0.0
C5809 C 0.65193 0.40976 0.48082 0.0
C5810 C 0.65368 0.39905 0.50792 0.0
C5811 C 0.65287 0.40363 0.51327 0.0
C5812 C 0.65409 0.40134 0.50126 0.0
C5813 C 0.65378 0.40828 0.49982 0.0
C5814 C 0.6529 0.41287 0.50517 0.0
C5815 C 0.6524 0.41056 0.51183 0.0
H5816 H 0.83586 0.40659 0.73072 0.0
H5817 H 0.85383 0.39464 0.72767 0.0
H5818 H 0.8378 0.40644 0.74288 0.0
H5819 H 0.85592 0.39468 0.73977 0.0
H5820 H 0.85513 0.39082 0.76212 0.0
H5821 H 0.85207 0.39035 0.75024 0.0
H5822 H 0.84511 0.411 0.75123 0.0
H5823 H 0.84779 0.41133 0.76321 0.0
C5824 C 0.84024 0.40395 0.73264 0.0
C5825 C 0.84469 0.40063 0.72823 0.0
C5826 C 0.84138 0.40389 0.73961 0.0
C5827 C 0.84703 0.40055 0.74233 0.0
C5828 C 0.85146 0.39721 0.73789 0.0
C5829 C 0.85029 0.39722 0.73093 0.0
C5830 C 0.85282 0.39522 0.75985 0.0
C5831 C 0.85173 0.40112 0.76365 0.0
C5832 C 0.85115 0.39498 0.753 0.0
C5833 C 0.8484 0.40066 0.74973 0.0
C5834 C 0.84717 0.40651 0.75357 0.0
C5835 C 0.84879 0.40673 0.76043 0.0
H5836 H 0.65335 0.61101 0.22828 0.0
H5837 H 0.67077 0.59837 0.23173 0.0
H5838 H 0.65099 0.61108 0.24033 0.0
H5839 H 0.66855 0.59863 0.24385 0.0
H5840 H 0.65802 0.59446 0.26411 0.0
H5841 H 0.66092 0.5945 0.25217 0.0
H5842 H 0.65488 0.61541 0.25078 0.0
H5843 H 0.65159 0.61525 0.2626 0.0
C5844 C 0.65671 0.60829 0.23162 0.0
C5845 C 0.66224 0.60468 0.22904 0.0
C5846 C 0.65539 0.60837 0.23855 0.0
C5847 C 0.6596 0.6049 0.24309 0.0
C5848 C 0.66515 0.6013 0.2405 0.0
C5849 C 0.66644 0.60118 0.23355 0.0
C5850 C 0.65726 0.59906 0.26125 0.0
C5851 C 0.65451 0.60484 0.26433 0.0
C5852 C 0.65902 0.5991 0.25441 0.0
C5853 C 0.6581 0.60494 0.25047 0.0
C5854 C 0.65555 0.61078 0.25361 0.0
C5855 C 0.65375 0.61072 0.26043 0.0
H5856 H 0.51926 0.66802 0.91587 0.0
H5857 H 0.5246 0.64749 0.91079 0.0
H5858 H 0.50749 0.66558 0.91336 0.0
H5859 H 0.51278 0.64501 0.90843 0.0
H5860 H 0.49226 0.64582 0.89737 0.0
H5861 H 0.50407 0.64765 0.90027 0.0
H5862 H 0.49799 0.65925 0.91772 0.0
H5863 H 0.48617 0.65747 0.91477 0.0
C5864 C 0.51792 0.66298 0.91424 0.0
C5865 C 0.52287 0.65795 0.91352 0.0
C5866 C 0.51116 0.66157 0.91285 0.0
C5867 C 0.50918 0.65509 0.91073 0.0
C5868 C 0.51414 0.65007 0.90999 0.0
C5869 C 0.52091 0.65148 0.91136 0.0
C5870 C 0.49345 0.64867 0.90189 0.0
C5871 C 0.48829 0.65152 0.90583 0.0
C5872 C 0.50022 0.64972 0.90354 0.0
C5873 C 0.50198 0.65363 0.9092 0.0
C5874 C 0.49681 0.65632 0.91325 0.0
C5875 C 0.49004 0.65529 0.91158 0.0
H5876 H 0.58697 0.27002 0.16516 0.0
H5877 H 0.60792 0.27526 0.16203 0.0
H5878 H 0.58931 0.2585 0.16157 0.0
H5879 H 0.61024 0.26372 0.15835 0.0
H5880 H 0.61263 0.24042 0.15934 0.0
H5881 H 0.61067 0.25208 0.1629 0.0
H5882 H 0.59231 0.25255 0.15116 0.0
H5883 H 0.59427 0.24096 0.14759 0.0
C5884 C 0.59207 0.26872 0.16368 0.0
C5885 C 0.59725 0.27356 0.16387 0.0
C5886 C 0.59341 0.26213 0.16159 0.0
C5887 C 0.59996 0.26021 0.15965 0.0
C5888 C 0.60515 0.26503 0.15987 0.0
C5889 C 0.60381 0.27165 0.16194 0.0
C5890 C 0.60821 0.24304 0.15748 0.0
C5891 C 0.60358 0.23975 0.15324 0.0
C5892 C 0.60709 0.24971 0.15952 0.0
C5893 C 0.60131 0.25321 0.15735 0.0
C5894 C 0.59674 0.24994 0.15302 0.0
C5895 C 0.59786 0.2433 0.15099 0.0
H5896 H 0.98754 0.33788 0.41713 0.0
H5897 H 0.98198 0.35803 0.41089 0.0
H5898 H 0.99924 0.34019 0.41416 0.0
H5899 H 0.99369 0.36029 0.40778 0.0
H5900 H 0.01656 0.36397 0.40946 0.0
H5901 H 0.00488 0.36187 0.41283 0.0
H5902 H 0.00596 0.34194 0.40406 0.0
H5903 H 0.01758 0.34403 0.4007 0.0
C5904 C 0.98881 0.3428 0.41509 0.0
C5905 C 0.98383 0.34777 0.41423 0.0
C5906 C 0.99551 0.34411 0.41336 0.0
C5907 C 0.99739 0.35042 0.41072 0.0
C5908 C 0.99242 0.35541 0.40988 0.0
C5909 C 0.9857 0.35409 0.41162 0.0
C5910 C 0.01429 0.35916 0.40823 0.0
C5911 C 0.01802 0.35415 0.40485 0.0
C5912 C 0.0076 0.35796 0.41016 0.0
C5913 C 0.0045 0.35173 0.40873 0.0
C5914 C 0.00824 0.34674 0.40534 0.0
C5915 C 0.0149 0.34794 0.40343 0.0
H5916 H 0.91426 0.73712 0.67091 0.0
H5917 H 0.89996 0.73189 0.65531 0.0
H5918 H 0.91229 0.74906 0.66873 0.0
H5919 H 0.89821 0.74381 0.6529 0.0
H5920 H 0.89209 0.76562 0.65342 0.0
H5921 H 0.8934 0.75394 0.65698 0.0
H5922 H 0.91461 0.75747 0.66069 0.0
H5923 H 0.9132 0.76924 0.65759 0.0
C5924 C 0.91074 0.73853 0.66697 0.0
C5925 C 0.90728 0.73357 0.66327 0.0
C5926 C 0.90963 0.74538 0.6657 0.0
C5927 C 0.90509 0.74743 0.66063 0.0
C5928 C 0.90164 0.74244 0.65693 0.0
C5929 C 0.90269 0.7356 0.65826 0.0
C5930 C 0.897 0.76395 0.65514 0.0
C5931 C 0.90255 0.76837 0.65517 0.0
C5932 C 0.89778 0.75721 0.65708 0.0
C5933 C 0.90413 0.75471 0.65905 0.0
C5934 C 0.90963 0.7592 0.65926 0.0
C5935 C 0.90884 0.76594 0.65739 0.0
H5936 H 0.52595 0.35873 0.59671 0.0
H5937 H 0.5203 0.33819 0.59204 0.0
H5938 H 0.51417 0.36144 0.59904 0.0
H5939 H 0.50856 0.34085 0.59451 0.0
H5940 H 0.48737 0.34925 0.59301 0.0
H5941 H 0.49916 0.34729 0.59004 0.0
H5942 H 0.50545 0.35903 0.60731 0.0
H5943 H 0.49368 0.36103 0.61025 0.0
C5944 C 0.52221 0.35478 0.59622 0.0
C5945 C 0.52407 0.34824 0.5942 0.0
C5946 C 0.51545 0.35633 0.59758 0.0
C5947 C 0.51042 0.35137 0.59694 0.0
C5948 C 0.5123 0.34482 0.59494 0.0
C5949 C 0.51904 0.34328 0.59358 0.0
C5950 C 0.49128 0.35142 0.59616 0.0
C5951 C 0.48959 0.35527 0.60187 0.0
C5952 C 0.49803 0.35029 0.59447 0.0
C5953 C 0.50325 0.35295 0.59847 0.0
C5954 C 0.50156 0.35696 0.60408 0.0
C5955 C 0.49481 0.35812 0.60576 0.0
H5956 H 0.91848 0.26922 0.84065 0.0
H5957 H 0.89821 0.27424 0.84698 0.0
H5958 H 0.91646 0.25744 0.84356 0.0
H5959 H 0.89624 0.26247 0.85 0.0
H5960 H 0.8931 0.23955 0.84801 0.0
H5961 H 0.89497 0.25128 0.84472 0.0
H5962 H 0.91481 0.25064 0.85372 0.0
H5963 H 0.91294 0.23896 0.85703 0.0
C5964 C 0.9136 0.26782 0.84268 0.0
C5965 C 0.90851 0.27267 0.8436 0.0
C5966 C 0.91246 0.26107 0.84438 0.0
C5967 C 0.9062 0.25903 0.84702 0.0
C5968 C 0.90109 0.26387 0.8479 0.0
C5969 C 0.90224 0.27063 0.84622 0.0
C5970 C 0.89784 0.24193 0.84931 0.0
C5971 C 0.90288 0.23831 0.85275 0.0
C5972 C 0.89891 0.24864 0.84743 0.0
C5973 C 0.90505 0.25188 0.84894 0.0
C5974 C 0.91008 0.24825 0.85237 0.0
C5975 C 0.90901 0.24155 0.85426 0.0
H5976 H 0.98322 0.64897 0.09622 0.0
H5977 H 0.98799 0.66988 0.09224 0.0
H5978 H 0.99497 0.6469 0.09933 0.0
H5979 H 0.99973 0.66778 0.09524 0.0
H5980 H 0.01814 0.66323 0.10834 0.0
H5981 H 0.00641 0.66515 0.10526 0.0
H5982 H 0.00626 0.64642 0.0941 0.0
H5983 H 0.01805 0.6445 0.09716 0.0
C5984 C 0.98677 0.65312 0.096 0.0
C5985 C 0.98467 0.6596 0.094 0.0
C5986 C 0.99351 0.65192 0.09774 0.0
C5987 C 0.99827 0.65718 0.09752 0.0
C5988 C 0.99616 0.66365 0.09553 0.0
C5989 C 0.98944 0.66485 0.09378 0.0
C5990 C 0.01564 0.65956 0.10516 0.0
C5991 C 0.01905 0.65374 0.10295 0.0
C5992 C 0.00891 0.66065 0.1034 0.0
C5993 C 0.00541 0.65595 0.09942 0.0
C5994 C 0.0088 0.6501 0.09724 0.0
C5995 C 0.01555 0.64901 0.09899 0.0
H5996 H 0.60762 0.73277 0.34512 0.0
H5997 H 0.58683 0.73829 0.34148 0.0
H5998 H 0.61004 0.74433 0.34867 0.0
H5999 H 0.58928 0.74982 0.34493 0.0
H6000 H 0.59424 0.76751 0.35873 0.0
H6001 H 0.59215 0.75591 0.35529 0.0
H6002 H 0.61077 0.75588 0.34394 0.0
H6003 H 0.61287 0.76754 0.34738 0.0
C6004 C 0.60357 0.73645 0.34507 0.0
C6005 C 0.59702 0.73461 0.34304 0.0
C6006 C 0.60497 0.74307 0.34706 0.0
C6007 C 0.59985 0.74798 0.3471 0.0
C6008 C 0.59331 0.74613 0.34505 0.0
C6009 C 0.59192 0.73953 0.34304 0.0
C6010 C 0.59786 0.76505 0.35545 0.0
C6011 C 0.60369 0.76847 0.35328 0.0
C6012 C 0.59666 0.7584 0.35349 0.0
C6013 C 0.60127 0.75499 0.34931 0.0
C6014 C 0.60716 0.75836 0.34721 0.0
C6015 C 0.60836 0.76503 0.34918 0.0
H6016 H 0.91639 0.52492 0.66248 0.0
H6017 H 0.90843 0.52789 0.6424 0.0
H6018 H 0.91396 0.51289 0.66167 0.0
H6019 H 0.90621 0.51584 0.64148 0.0
H6020 H 0.89607 0.49547 0.6452 0.0
H6021 H 0.89881 0.50743 0.64575 0.0
H6022 H 0.91735 0.50268 0.65623 0.0
H6023 H 0.9145 0.4907 0.6558 0.0
C6024 C 0.91416 0.523 0.65787 0.0
C6025 C 0.91257 0.52737 0.65251 0.0
C6026 C 0.91282 0.51609 0.65738 0.0
C6027 C 0.90989 0.51338 0.6515 0.0
C6028 C 0.90837 0.51776 0.64612 0.0
C6029 C 0.90966 0.52467 0.64663 0.0
C6030 C 0.90077 0.49698 0.64755 0.0
C6031 C 0.90508 0.49215 0.65044 0.0
C6032 C 0.90235 0.50384 0.64786 0.0
C6033 C 0.90831 0.50604 0.65104 0.0
C6034 C 0.91267 0.50119 0.65385 0.0
C6035 C 0.91105 0.49432 0.65358 0.0
H6036 H 0.73726 0.67221 0.91356 0.0
H6037 H 0.73218 0.65563 0.90034 0.0
H6038 H 0.74922 0.66997 0.91179 0.0
H6039 H 0.74411 0.65318 0.8988 0.0
H6040 H 0.76591 0.65333 0.89274 0.0
H6041 H 0.75422 0.65694 0.89377 0.0
H6042 H 0.75768 0.66218 0.91467 0.0
H6043 H 0.76946 0.65903 0.91351 0.0
C6044 C 0.73871 0.66805 0.91032 0.0
C6045 C 0.73379 0.66409 0.9071 0.0
C6046 C 0.74557 0.66674 0.90932 0.0
C6047 C 0.74766 0.66138 0.90515 0.0
C6048 C 0.74271 0.65743 0.90194 0.0
C6049 C 0.73586 0.6588 0.90287 0.0
C6050 C 0.76422 0.6554 0.89751 0.0
C6051 C 0.76863 0.65585 0.90305 0.0
C6052 C 0.75747 0.65737 0.89813 0.0
C6053 C 0.75496 0.65978 0.90433 0.0
C6054 C 0.75943 0.66041 0.90981 0.0
C6055 C 0.76618 0.65851 0.90917 0.0
H6056 H 0.59022 0.48769 0.16793 0.0
H6057 H 0.59596 0.48166 0.14776 0.0
H6058 H 0.59301 0.49935 0.16524 0.0
H6059 H 0.59862 0.49337 0.14502 0.0
H6060 H 0.61019 0.51367 0.14589 0.0
H6061 H 0.60692 0.50197 0.14785 0.0
H6062 H 0.58905 0.50871 0.15838 0.0
H6063 H 0.59234 0.52042 0.15646 0.0
C6064 C 0.59205 0.48886 0.16291 0.0
C6065 C 0.59288 0.48375 0.15807 0.0
C6066 C 0.5936 0.49555 0.16135 0.0
C6067 C 0.596 0.4973 0.1549 0.0
C6068 C 0.59684 0.49218 0.15005 0.0
C6069 C 0.59529 0.48548 0.15162 0.0
C6070 C 0.6055 0.51265 0.14853 0.0
C6071 C 0.60154 0.51797 0.15105 0.0
C6072 C 0.60363 0.50595 0.14965 0.0
C6073 C 0.59775 0.50441 0.15331 0.0
C6074 C 0.59368 0.50973 0.15565 0.0
C6075 C 0.59556 0.51643 0.15454 0.0
H6076 H 0.77526 0.34486 0.39875 0.0
H6077 H 0.76911 0.34078 0.41929 0.0
H6078 H 0.76359 0.34749 0.39579 0.0
H6079 H 0.7575 0.34353 0.41636 0.0
H6080 H 0.73643 0.34256 0.40766 0.0
H6081 H 0.74808 0.33919 0.40977 0.0
H6082 H 0.75512 0.35615 0.39801 0.0
H6083 H 0.74348 0.3595 0.39588 0.0
C6084 C 0.77142 0.34455 0.40263 0.0
C6085 C 0.77311 0.34262 0.40925 0.0
C6086 C 0.76474 0.34608 0.40094 0.0
C6087 C 0.75961 0.34569 0.40583 0.0
C6088 C 0.76131 0.34377 0.41245 0.0
C6089 C 0.76798 0.34224 0.41414 0.0
C6090 C 0.74047 0.34556 0.40552 0.0
C6091 C 0.73903 0.35132 0.40164 0.0
C6092 C 0.74714 0.34364 0.40673 0.0
C6093 C 0.75253 0.34744 0.40411 0.0
C6094 C 0.75109 0.35307 0.40004 0.0
C6095 C 0.74441 0.35499 0.39882 0.0
H6096 H 0.9104 0.4818 0.85863 0.0
H6097 H 0.91728 0.48719 0.83863 0.0
H6098 H 0.90746 0.49356 0.86079 0.0
H6099 H 0.91446 0.49895 0.84084 0.0
H6100 H 0.90117 0.51751 0.84435 0.0
H6101 H 0.90437 0.50583 0.84235 0.0
H6102 H 0.91275 0.50467 0.86245 0.0
H6103 H 0.90955 0.51641 0.86446 0.0
C6104 C 0.9113 0.48549 0.8547 0.0
C6105 C 0.91405 0.48356 0.84845 0.0
C6106 C 0.90967 0.49224 0.85596 0.0
C6107 C 0.91072 0.49719 0.85098 0.0
C6108 C 0.9135 0.49525 0.84474 0.0
C6109 C 0.91514 0.48851 0.84349 0.0
C6110 C 0.90377 0.5148 0.84832 0.0
C6111 C 0.90514 0.51791 0.85456 0.0
C6112 C 0.90561 0.5081 0.84717 0.0
C6113 C 0.90884 0.50433 0.85223 0.0
C6114 C 0.9102 0.50742 0.85848 0.0
C6115 C 0.90837 0.51414 0.85963 0.0
H6116 H 0.76972 0.66726 0.08849 0.0
H6117 H 0.77473 0.66085 0.10874 0.0
H6118 H 0.75796 0.6642 0.09044 0.0
H6119 H 0.76297 0.6577 0.11065 0.0
H6120 H 0.73999 0.65941 0.11366 0.0
H6121 H 0.75169 0.66288 0.11187 0.0
H6122 H 0.75132 0.65388 0.09201 0.0
H6123 H 0.73969 0.65038 0.0938 0.0
C6124 C 0.76832 0.66518 0.09335 0.0
C6125 C 0.77316 0.66428 0.09846 0.0
C6126 C 0.76159 0.6634 0.09446 0.0
C6127 C 0.75954 0.6607 0.10069 0.0
C6128 C 0.76438 0.65984 0.10581 0.0
C6129 C 0.77112 0.6616 0.1047 0.0
C6130 C 0.74242 0.65815 0.10893 0.0
C6131 C 0.73889 0.65465 0.10386 0.0
C6132 C 0.74912 0.66013 0.10791 0.0
C6133 C 0.75242 0.65866 0.10179 0.0
C6134 C 0.74888 0.65518 0.09673 0.0
C6135 C 0.74221 0.65319 0.09776 0.0
H6136 H 0.59157 0.52002 0.33701 0.0
H6137 H 0.59469 0.52486 0.35806 0.0
H6138 H 0.59503 0.50842 0.33916 0.0
H6139 H 0.59823 0.51324 0.36019 0.0
H6140 H 0.59683 0.48991 0.36214 0.0
H6141 H 0.59342 0.50163 0.36035 0.0
H6142 H 0.60543 0.50233 0.34215 0.0
H6143 H 0.60886 0.49068 0.34394 0.0
C6144 C 0.59301 0.51861 0.3421 0.0
C6145 C 0.59286 0.52336 0.34737 0.0
C6146 C 0.59503 0.51198 0.34332 0.0
C6147 C 0.59692 0.50993 0.34984 0.0
C6148 C 0.59674 0.51466 0.35513 0.0
C6149 C 0.59475 0.52132 0.3539 0.0
C6150 C 0.59878 0.49259 0.35779 0.0
C6151 C 0.60306 0.48935 0.35315 0.0
C6152 C 0.59683 0.4993 0.35677 0.0
C6153 C 0.59912 0.50288 0.35108 0.0
C6154 C 0.60348 0.49966 0.3465 0.0
C6155 C 0.60543 0.49298 0.34753 0.0
H6156 H 0.7317 0.33744 0.60225 0.0
H6157 H 0.72894 0.35598 0.6134 0.0
H6158 H 0.74389 0.33918 0.60238 0.0
H6159 H 0.74108 0.35783 0.61335 0.0
H6160 H 0.76325 0.35638 0.61788 0.0
H6161 H 0.75129 0.35364 0.61815 0.0
H6162 H 0.75252 0.34627 0.59765 0.0
H6163 H 0.76458 0.34866 0.59752 0.0
C6164 C 0.73369 0.3419 0.6047 0.0
C6165 C 0.72935 0.34656 0.60783 0.0
C6166 C 0.74068 0.34292 0.60474 0.0
C6167 C 0.74349 0.34863 0.60789 0.0
C6168 C 0.73912 0.3533 0.61099 0.0
C6169 C 0.73214 0.35227 0.61097 0.0
C6170 C 0.76101 0.35405 0.61348 0.0
C6171 C 0.7649 0.35277 0.60767 0.0
C6172 C 0.75412 0.35257 0.61359 0.0
C6173 C 0.75091 0.3498 0.6079 0.0
C6174 C 0.75482 0.34836 0.60215 0.0
C6175 C 0.76173 0.34981 0.60204 0.0
H6176 H 0.67033 0.91521 0.5204 0.0
H6177 H 0.64948 0.91119 0.5254 0.0
H6178 H 0.66816 0.91202 0.50872 0.0
H6179 H 0.64733 0.9079 0.51371 0.0
H6180 H 0.64481 0.90978 0.49056 0.0
H6181 H 0.64675 0.91296 0.50232 0.0
H6182 H 0.66552 0.90188 0.50221 0.0
H6183 H 0.66359 0.89868 0.49051 0.0
C6184 C 0.66529 0.91361 0.51901 0.0
C6185 C 0.66008 0.91344 0.52383 0.0
C6186 C 0.66405 0.91176 0.51233 0.0
C6187 C 0.65757 0.9097 0.51029 0.0
C6188 C 0.65236 0.90953 0.5151 0.0
C6189 C 0.6536 0.91137 0.52181 0.0
C6190 C 0.64933 0.90799 0.49307 0.0
C6191 C 0.65407 0.90402 0.48958 0.0
C6192 C 0.65043 0.90981 0.4998 0.0
C6193 C 0.6563 0.9077 0.50318 0.0
C6194 C 0.66101 0.90369 0.49971 0.0
C6195 C 0.6599 0.90187 0.493 0.0
H6196 H 0.16962 0.59325 0.48798 0.0
H6197 H 0.14857 0.59637 0.48319 0.0
H6198 H 0.16745 0.59652 0.49964 0.0
H6199 H 0.14642 0.59972 0.49486 0.0
H6200 H 0.14425 0.59785 0.51805 0.0
H6201 H 0.14621 0.59468 0.50629 0.0
H6202 H 0.16442 0.60666 0.50608 0.0
H6203 H 0.16246 0.60986 0.51778 0.0
C6204 C 0.16454 0.59466 0.48941 0.0
C6205 C 0.15927 0.59456 0.48466 0.0
C6206 C 0.1633 0.59657 0.49608 0.0
C6207 C 0.15677 0.59838 0.49817 0.0
C6208 C 0.1515 0.59828 0.49342 0.0
C6209 C 0.15274 0.5964 0.48673 0.0
C6210 C 0.14864 0.59985 0.51547 0.0
C6211 C 0.15322 0.60407 0.51887 0.0
C6212 C 0.14976 0.59803 0.50874 0.0
C6213 C 0.15548 0.6004 0.50527 0.0
C6214 C 0.16003 0.60466 0.50865 0.0
C6215 C 0.15891 0.60648 0.51536 0.0
H6216 H 0.67171 0.91348 0.73784 0.0
H6217 H 0.65553 0.89997 0.73228 0.0
H6218 H 0.66935 0.91144 0.74973 0.0
H6219 H 0.65295 0.89816 0.74416 0.0
H6220 H 0.65297 0.89179 0.76593 0.0
H6221 H 0.65666 0.89306 0.75427 0.0
H6222 H 0.66136 0.91403 0.75809 0.0
H6223 H 0.65812 0.91263 0.76982 0.0
C6224 C 0.6676 0.91012 0.73916 0.0
C6225 C 0.66379 0.90691 0.73413 0.0
C6226 C 0.66623 0.90896 0.74598 0.0
C6227 C 0.66094 0.90464 0.74793 0.0
C6228 C 0.65714 0.90142 0.74287 0.0
C6229 C 0.65858 0.9025 0.73605 0.0
C6230 C 0.65494 0.89663 0.76432 0.0
C6231 C 0.6552 0.90212 0.76882 0.0
C6232 C 0.65696 0.89739 0.7576 0.0
C6233 C 0.65924 0.90367 0.75519 0.0
C6234 C 0.65969 0.9091 0.75975 0.0
C6235 C 0.65773 0.90832 0.76647 0.0
H6236 H 0.3582 0.4125 0.98258 0.0
H6237 H 0.33781 0.41669 0.98911 0.0
H6238 H 0.36134 0.4098 0.99419 0.0
H6239 H 0.34092 0.41388 1.00066 0.0
H6240 H 0.34999 0.41485 0.02155 0.0
H6241 H 0.34775 0.41824 0.00993 0.0
H6242 H 0.35917 0.40111 1.00272 0.0
H6243 H 0.36142 0.39774 0.01435 0.0
C6244 C 0.35439 0.41282 0.98649 0.0
C6245 C 0.34776 0.41481 0.98493 0.0
C6246 C 0.35618 0.41125 0.99313 0.0
C6247 C 0.35139 0.41166 0.99835 0.0
C6248 C 0.34476 0.41363 0.99678 0.0
C6249 C 0.34296 0.41519 0.99014 0.0
C6250 C 0.35204 0.41182 0.01748 0.0
C6251 C 0.35584 0.406 0.01887 0.0
C6252 C 0.35074 0.41375 0.01083 0.0
C6253 C 0.35322 0.40991 0.0054 0.0
C6254 C 0.35724 0.40422 0.00679 0.0
C6255 C 0.35853 0.40229 0.01345 0.0
H6256 H 0.33561 0.59527 0.73759 0.0
H6257 H 0.35324 0.60737 0.73333 0.0
H6258 H 0.33735 0.59694 0.74965 0.0
H6259 H 0.35516 0.60882 0.74538 0.0
H6260 H 0.35394 0.61534 0.76701 0.0
H6261 H 0.35098 0.61429 0.75515 0.0
H6262 H 0.34456 0.59372 0.75859 0.0
H6263 H 0.34709 0.59493 0.77053 0.0
C6264 C 0.3399 0.59823 0.73923 0.0
C6265 C 0.3443 0.60118 0.73451 0.0
C6266 C 0.34092 0.59917 0.74615 0.0
C6267 C 0.3464 0.60303 0.74851 0.0
C6268 C 0.35081 0.60594 0.74376 0.0
C6269 C 0.34975 0.60506 0.73685 0.0
C6270 C 0.35175 0.61064 0.76528 0.0
C6271 C 0.35079 0.6052 0.76974 0.0
C6272 C 0.35015 0.61 0.75844 0.0
C6273 C 0.34761 0.60388 0.75587 0.0
C6274 C 0.34646 0.59852 0.76038 0.0
C6275 C 0.348 0.59918 0.76722 0.0
H6276 H 0.85881 0.09665 0.02481 0.0
H6277 H 0.83842 0.09087 0.01966 0.0
H6278 H 0.86084 0.0999 0.01309 0.0
H6279 H 0.84048 0.09403 0.00795 0.0
H6280 H 0.84426 0.10764 0.98967 0.0
H6281 H 0.84238 0.1043 1.00134 0.0
H6282 H 0.86197 0.09476 1.00179 0.0
H6283 H 0.86385 0.09807 0.99005 0.0
C6284 C 0.85477 0.09606 0.02118 0.0
C6285 C 0.84845 0.09352 0.02317 0.0
C6286 C 0.85595 0.09788 0.01446 0.0
C6287 C 0.85082 0.09722 0.0096 0.0
C6288 C 0.84451 0.09467 0.0116 0.0
C6289 C 0.84334 0.09284 0.0183 0.0
C6290 C 0.84814 0.10475 0.99222 0.0
C6291 C 0.85419 0.10308 0.98891 0.0
C6292 C 0.84706 0.10285 0.99892 0.0
C6293 C 0.85202 0.09925 1.00248 0.0
C6294 C 0.85809 0.0976 0.9992 0.0
C6295 C 0.85917 0.0995 0.99248 0.0
H6296 H 0.6612 0.10854 0.77527 0.0
H6297 H 0.66557 0.08811 0.769 0.0
H6298 H 0.65865 0.11156 0.76359 0.0
H6299 H 0.66291 0.09109 0.75738 0.0
H6300 H 0.66429 0.10005 0.73642 0.0
H6301 H 0.66742 0.09785 0.74813 0.0
H6302 H 0.65015 0.10931 0.75491 0.0
H6303 H 0.64703 0.11152 0.74322 0.0
C6304 C 0.66158 0.10468 0.77141 0.0
C6305 C 0.66359 0.09808 0.77306 0.0
C6306 C 0.6601 0.10641 0.76472 0.0
C6307 C 0.66061 0.10157 0.75955 0.0
C6308 C 0.66258 0.09497 0.76123 0.0
C6309 C 0.66405 0.09324 0.7679 0.0
C6310 C 0.66117 0.10211 0.74042 0.0
C6311 C 0.6554 0.10593 0.73889 0.0
C6312 C 0.66296 0.10084 0.74712 0.0
C6313 C 0.659 0.10335 0.75245 0.0
C6314 C 0.65335 0.10736 0.75093 0.0
C6315 C 0.65157 0.10863 0.74422 0.0
H6316 H 0.8463 0.89924 0.275 0.0
H6317 H 0.84071 0.91969 0.26987 0.0
H6318 H 0.84937 0.89714 0.26325 0.0
H6319 H 0.84366 0.91754 0.25812 0.0
H6320 H 0.85695 0.91363 0.23966 0.0
H6321 H 0.85372 0.91558 0.25135 0.0
H6322 H 0.84421 0.89597 0.25204 0.0
H6323 H 0.84744 0.89401 0.24029 0.0
C6324 C 0.84571 0.90328 0.27137 0.0
C6325 C 0.84328 0.90964 0.27337 0.0
C6326 C 0.84743 0.90206 0.26463 0.0
C6327 C 0.84676 0.90717 0.25976 0.0
C6328 C 0.84432 0.91352 0.26177 0.0
C6329 C 0.8426 0.91474 0.2685 0.0
C6330 C 0.85409 0.90976 0.24227 0.0
C6331 C 0.85241 0.90368 0.23903 0.0
C6332 C 0.85225 0.91088 0.24898 0.0
C6333 C 0.84869 0.90594 0.25262 0.0
C6334 C 0.84702 0.89984 0.24939 0.0
C6335 C 0.84886 0.89872 0.24266 0.0
H6336 H 0.47806 0.36233 0.10425 0.0
H6337 H 0.48141 0.34972 0.08678 0.0
H6338 H 0.4901 0.36224 0.10665 0.0
H6339 H 0.49351 0.34981 0.08903 0.0
H6340 H 0.51353 0.34509 0.09968 0.0
H6341 H 0.50161 0.34542 0.09675 0.0
H6342 H 0.5007 0.36635 0.10284 0.0
H6343 H 0.51251 0.3659 0.10615 0.0
C6344 C 0.48138 0.35959 0.10088 0.0
C6345 C 0.47877 0.35602 0.09534 0.0
C6346 C 0.4883 0.35958 0.10222 0.0
C6347 C 0.49281 0.35604 0.09803 0.0
C6348 C 0.49019 0.35252 0.09243 0.0
C6349 C 0.48326 0.35249 0.09112 0.0
C6350 C 0.51078 0.34976 0.10044 0.0
C6351 C 0.51399 0.35545 0.10321 0.0
C6352 C 0.50396 0.34997 0.09867 0.0
C6353 C 0.50017 0.35591 0.09958 0.0
C6354 C 0.50343 0.36166 0.10217 0.0
C6355 C 0.51024 0.36143 0.10398 0.0
H6356 H 0.40755 0.73142 0.83701 0.0
H6357 H 0.39427 0.72793 0.85396 0.0
H6358 H 0.40747 0.74349 0.83944 0.0
H6359 H 0.39437 0.73994 0.85653 0.0
H6360 H 0.39097 0.76242 0.85622 0.0
H6361 H 0.39051 0.75066 0.85272 0.0
H6362 H 0.41168 0.7514 0.84748 0.0
H6363 H 0.41204 0.76327 0.85061 0.0
C6364 C 0.40463 0.73323 0.84127 0.0
C6365 C 0.40091 0.72872 0.84529 0.0
C6366 C 0.40461 0.74015 0.84269 0.0
C6367 C 0.40092 0.74271 0.84819 0.0
C6368 C 0.39718 0.73818 0.85219 0.0
C6369 C 0.39716 0.73128 0.85074 0.0
C6370 C 0.3955 0.76012 0.8542 0.0
C6371 C 0.40155 0.76381 0.85372 0.0
C6372 C 0.39526 0.75333 0.85228 0.0
C6373 C 0.40107 0.75004 0.84986 0.0
C6374 C 0.40709 0.75377 0.84926 0.0
C6375 C 0.40731 0.76056 0.85114 0.0
H6376 H 0.02924 0.64465 0.60472 0.0
H6377 H 0.02554 0.65754 0.58752 0.0
H6378 H 0.01724 0.64463 0.60731 0.0
H6379 H 0.01348 0.65735 0.58997 0.0
H6380 H 0.99353 0.66166 0.60096 0.0
H6381 H 0.00543 0.66152 0.5979 0.0
H6382 H 0.00663 0.64049 0.60355 0.0
H6383 H 0.99485 0.64073 0.60697 0.0
C6384 C 0.02585 0.64744 0.60145 0.0
C6385 C 0.02835 0.65111 0.59592 0.0
C6386 C 0.01895 0.64739 0.60291 0.0
C6387 C 0.01436 0.65097 0.59884 0.0
C6388 C 0.01687 0.65461 0.59327 0.0
C6389 C 0.02379 0.65469 0.59184 0.0
C6390 C 0.99635 0.65702 0.6016 0.0
C6391 C 0.99322 0.65122 0.60426 0.0
C6392 C 1.00316 0.65691 0.59976 0.0
C6393 C 0.00702 0.651 0.6005 0.0
C6394 C 0.00385 0.64516 0.603 0.0
C6395 C 0.99705 0.64528 0.60488 0.0
H6396 H 0.10168 0.27552 0.33804 0.0
H6397 H 0.11008 0.27894 0.35787 0.0
H6398 H 0.10112 0.2634 0.34039 0.0
H6399 H 0.10947 0.26687 0.36022 0.0
H6400 H 0.09966 0.24632 0.36456 0.0
H6401 H 0.10009 0.25831 0.3618 0.0
H6402 H 0.10936 0.25361 0.34264 0.0
H6403 H 0.10889 0.24155 0.34538 0.0
C6404 C 0.1034 0.27369 0.34289 0.0
C6405 C 0.10591 0.27819 0.34778 0.0
C6406 C 0.10311 0.26675 0.34422 0.0
C6407 C 0.10523 0.2642 0.35049 0.0
C6408 C 0.10774 0.26871 0.35536 0.0
C6409 C 0.10812 0.27561 0.35401 0.0
C6410 C 0.10173 0.24783 0.35973 0.0
C6411 C 0.10423 0.24299 0.35518 0.0
C6412 C 0.10203 0.2547 0.35817 0.0
C6413 C 0.10478 0.25689 0.35201 0.0
C6414 C 0.10719 0.25206 0.34741 0.0
C6415 C 0.10696 0.24517 0.349 0.0
H6416 H 0.47833 0.64475 0.40064 0.0
H6417 H 0.48091 0.65597 0.41916 0.0
H6418 H 0.49045 0.64508 0.39873 0.0
H6419 H 0.49309 0.65612 0.41737 0.0
H6420 H 0.51357 0.66155 0.40784 0.0
H6421 H 0.50153 0.66107 0.41027 0.0
H6422 H 0.50085 0.6406 0.40277 0.0
H6423 H 0.51279 0.64121 0.39999 0.0
C6424 C 0.48149 0.64725 0.40433 0.0
C6425 C 0.47865 0.65034 0.41005 0.0
C6426 C 0.48846 0.64739 0.40326 0.0
C6427 C 0.49278 0.6506 0.4079 0.0
C6428 C 0.48992 0.65368 0.41364 0.0
C6429 C 0.48294 0.65356 0.41469 0.0
C6430 C 0.51085 0.65696 0.40667 0.0
C6431 C 0.51416 0.65144 0.40367 0.0
C6432 C 0.50395 0.65665 0.40815 0.0
C6433 C 0.50019 0.65081 0.40669 0.0
C6434 C 0.50355 0.64522 0.40386 0.0
C6435 C 0.51044 0.64554 0.40236 0.0
H6436 H 0.09948 0.73119 0.16985 0.0
H6437 H 0.11224 0.72769 0.1525 0.0
H6438 H 0.09957 0.74327 0.16747 0.0
H6439 H 0.11216 0.73971 0.15 0.0
H6440 H 0.11595 0.76213 0.15051 0.0
H6441 H 0.11629 0.75032 0.15386 0.0
H6442 H 0.09527 0.75133 0.1596 0.0
H6443 H 0.09504 0.76325 0.15661 0.0
C6444 C 0.10228 0.733 0.16551 0.0
C6445 C 0.10585 0.72848 0.16137 0.0
C6446 C 0.1023 0.73992 0.16412 0.0
C6447 C 0.10587 0.74249 0.15854 0.0
C6448 C 0.10945 0.73795 0.15441 0.0
C6449 C 0.10946 0.73104 0.15582 0.0
C6450 C 0.11143 0.75988 0.15261 0.0
C6451 C 0.10546 0.76366 0.15327 0.0
C6452 C 0.1116 0.75307 0.15444 0.0
C6453 C 0.10579 0.74984 0.15694 0.0
C6454 C 0.09986 0.75365 0.15774 0.0
C6455 C 0.0997 0.76048 0.15594 0.0
H6456 H 0.02313 0.34351 0.922 0.0
H6457 H 0.02858 0.35806 0.90671 0.0
H6458 H 0.01129 0.34469 0.91892 0.0
H6459 H 0.01679 0.35904 0.90342 0.0
H6460 H 0.99452 0.36376 0.90251 0.0
H6461 H 0.00608 0.36317 0.90665 0.0
H6462 H 0.00364 0.3418 0.9103 0.0
H6463 H 0.99198 0.34249 0.9066 0.0
C6464 C 0.0218 0.34693 0.91795 0.0
C6465 C 0.0268 0.35068 0.91459 0.0
C6466 C 0.01501 0.34758 0.91615 0.0
C6467 C 0.01305 0.35194 0.91089 0.0
C6468 C 0.01807 0.35572 0.90756 0.0
C6469 C 0.02485 0.35512 0.90942 0.0
C6470 C 0.99641 0.35896 0.90432 0.0
C6471 C 0.99231 0.35317 0.90419 0.0
C6472 C 1.00308 0.3586 0.9066 0.0
C6473 C 0.00584 0.35242 0.90877 0.0
C6474 C 1.00169 0.34666 0.90874 0.0
C6475 C 0.99501 0.34704 0.90652 0.0
H6476 H 0.4052 0.27593 0.66983 0.0
H6477 H 0.39548 0.27948 0.65062 0.0
H6478 H 0.4057 0.26384 0.66731 0.0
H6479 H 0.39604 0.26743 0.64811 0.0
H6480 H 0.40618 0.24722 0.64284 0.0
H6481 H 0.40552 0.25915 0.64581 0.0
H6482 H 0.39757 0.25388 0.66541 0.0
H6483 H 0.39826 0.24188 0.66245 0.0
C6484 C 0.40316 0.27413 0.66508 0.0
C6485 C 0.40032 0.27866 0.66041 0.0
C6486 C 0.40342 0.26722 0.66366 0.0
C6487 C 0.40094 0.26471 0.65751 0.0
C6488 C 0.39805 0.26924 0.65287 0.0
C6489 C 0.39771 0.27613 0.65432 0.0
C6490 C 0.40434 0.2486 0.64781 0.0
C6491 C 0.40229 0.24362 0.65242 0.0
C6492 C 0.40391 0.25543 0.64948 0.0
C6493 C 0.40147 0.25744 0.65583 0.0
C6494 C 0.39949 0.25247 0.66049 0.0
C6495 C 0.39985 0.24562 0.65878 0.0
H6496 H 0.09874 0.47729 0.36578 0.0
H6497 H 0.09003 0.48004 0.34597 0.0
H6498 H 0.10139 0.48928 0.36629 0.0
H6499 H 0.09289 0.492 0.34637 0.0
H6500 H 0.0936 0.51435 0.35157 0.0
H6501 H 0.0902 0.50251 0.35164 0.0
H6502 H 0.10896 0.49722 0.36144 0.0
H6503 H 0.11226 0.50906 0.36149 0.0
C6504 C 0.09741 0.48045 0.36152 0.0
C6505 C 0.09419 0.4777 0.35583 0.0
C6506 C 0.09897 0.48732 0.36179 0.0
C6507 C 0.09739 0.49162 0.35636 0.0
C6508 C 0.0941 0.48887 0.35069 0.0
C6509 C 0.0925 0.482 0.35044 0.0
C6510 C 0.09698 0.51065 0.35374 0.0
C6511 C 0.10319 0.51264 0.35654 0.0
C6512 C 0.09505 0.50386 0.35376 0.0
C6513 C 0.09931 0.49889 0.35654 0.0
C6514 C 0.1055 0.50091 0.35937 0.0
C6515 C 0.1074 0.5077 0.35939 0.0
H6516 H 0.27653 0.33892 0.09562 0.0
H6517 H 0.279 0.34942 0.11459 0.0
H6518 H 0.26445 0.34138 0.09585 0.0
H6519 H 0.26695 0.3519 0.11479 0.0
H6520 H 0.244 0.34913 0.11611 0.0
H6521 H 0.25592 0.346 0.11594 0.0
H6522 H 0.25708 0.35148 0.09487 0.0
H6523 H 0.24523 0.35473 0.09505 0.0
C6524 C 0.2745 0.34174 0.09984 0.0
C6525 C 0.27873 0.34398 0.10508 0.0
C6526 C 0.26759 0.34317 0.09996 0.0
C6527 C 0.26475 0.34683 0.10534 0.0
C6528 C 0.26897 0.349 0.11061 0.0
C6529 C 0.27589 0.34762 0.11047 0.0
C6530 C 0.2468 0.34971 0.11145 0.0
C6531 C 0.24364 0.3522 0.1056 0.0
C6532 C 0.25363 0.3479 0.11135 0.0
C6533 C 0.25744 0.3485 0.10539 0.0
C6534 C 0.25425 0.35087 0.09952 0.0
C6535 C 0.24745 0.35272 0.09962 0.0
H6536 H 0.41617 0.52661 0.84704 0.0
H6537 H 0.40615 0.52899 0.86627 0.0
H6538 H 0.41361 0.51458 0.84719 0.0
H6539 H 0.4038 0.51694 0.86655 0.0
H6540 H 0.3939 0.49688 0.86126 0.0
H6541 H 0.3968 0.50881 0.86128 0.0
H6542 H 0.41623 0.5041 0.85252 0.0
H6543 H 0.41322 0.49214 0.85236 0.0
C6544 C 0.41347 0.52455 0.85133 0.0
C6545 C 0.41133 0.52876 0.85662 0.0
C6546 C 0.41204 0.51764 0.85144 0.0
C6547 C 0.40848 0.51477 0.85688 0.0
C6548 C 0.40644 0.51898 0.86222 0.0
C6549 C 0.40782 0.5259 0.86208 0.0
C6550 C 0.39882 0.49839 0.8594 0.0
C6551 C 0.40334 0.49358 0.85682 0.0
C6552 C 0.4005 0.50524 0.85942 0.0
C6553 C 0.40677 0.50744 0.85692 0.0
C6554 C 0.41132 0.50261 0.85439 0.0
C6555 C 0.40961 0.49575 0.85432 0.0
H6556 H 0.22794 0.65793 0.6149 0.0
H6557 H 0.23029 0.66604 0.5948 0.0
H6558 H 0.23993 0.6553 0.61526 0.0
H6559 H 0.24226 0.66319 0.59504 0.0
H6560 H 0.26473 0.66278 0.59991 0.0
H6561 H 0.25285 0.66606 0.59996 0.0
H6562 H 0.24786 0.64767 0.61059 0.0
H6563 H 0.25973 0.6445 0.61067 0.0
C6564 C 0.23101 0.65911 0.61054 0.0
C6565 C 0.22816 0.66218 0.60482 0.0
C6566 C 0.23789 0.65757 0.61073 0.0
C6567 C 0.24208 0.659 0.60517 0.0
C6568 C 0.23922 0.66211 0.59945 0.0
C6569 C 0.23234 0.6637 0.5993 0.0
C6570 C 0.26108 0.65945 0.60225 0.0
C6571 C 0.26316 0.6534 0.60531 0.0
C6572 C 0.25426 0.66131 0.60227 0.0
C6573 C 0.24937 0.65713 0.60528 0.0
C6574 C 0.25148 0.65108 0.60834 0.0
C6575 C 0.25829 0.64925 0.60838 0.0
H6576 H 0.10658 0.52911 0.14564 0.0
H6577 H 0.08744 0.52564 0.15554 0.0
H6578 H 0.10908 0.51707 0.14627 0.0
H6579 H 0.08996 0.51356 0.15613 0.0
H6580 H 0.09461 0.49158 0.14881 0.0
H6581 H 0.09172 0.50359 0.14808 0.0
H6582 H 0.11147 0.50879 0.15568 0.0
H6583 H 0.11437 0.49684 0.15637 0.0
C6584 C 0.10289 0.52578 0.14793 0.0
C6585 C 0.09682 0.52833 0.15055 0.0
C6586 C 0.10435 0.51889 0.14832 0.0
C6587 C 0.09973 0.51439 0.15127 0.0
C6588 C 0.0936 0.51692 0.15379 0.0
C6589 C 0.09218 0.52383 0.15348 0.0
C6590 C 0.09833 0.4953 0.15031 0.0
C6591 C 0.10471 0.49328 0.15266 0.0
C6592 C 0.09666 0.50215 0.14994 0.0
C6593 C 0.10138 0.50711 0.15181 0.0
C6594 C 0.10775 0.50508 0.15415 0.0
C6595 C 0.10939 0.49824 0.15461 0.0
H6596 H 0.23472 0.33616 0.91247 0.0
H6597 H 0.22855 0.35251 0.89941 0.0
H6598 H 0.2465 0.33967 0.91126 0.0
H6599 H 0.24032 0.35603 0.89827 0.0
H6600 H 0.26089 0.36465 0.90577 0.0
H6601 H 0.24916 0.36088 0.90631 0.0
H6602 H 0.25549 0.3405 0.90193 0.0
H6603 H 0.26726 0.34427 0.90141 0.0
C6604 C 0.23588 0.3405 0.90934 0.0
C6605 C 0.23071 0.34407 0.90605 0.0
C6606 C 0.24262 0.34247 0.90862 0.0
C6607 C 0.24431 0.34812 0.90468 0.0
C6608 C 0.23915 0.35169 0.90138 0.0
C6609 C 0.23242 0.34965 0.90201 0.0
C6610 C 0.25977 0.35936 0.90493 0.0
C6611 C 0.26498 0.35475 0.90357 0.0
C6612 C 0.25306 0.35722 0.90518 0.0
C6613 C 0.25142 0.3504 0.90416 0.0
C6614 C 0.25662 0.34578 0.90277 0.0
C6615 C 0.26334 0.34794 0.90243 0.0
H6616 H 0.41777 0.4829 0.66734 0.0
H6617 H 0.41208 0.47804 0.64685 0.0
H6618 H 0.41454 0.49461 0.66547 0.0
H6619 H 0.40899 0.4898 0.64493 0.0
H6620 H 0.39665 0.50946 0.64696 0.0
H6621 H 0.40042 0.49782 0.64822 0.0
H6622 H 0.41782 0.50467 0.65944 0.0
H6623 H 0.41401 0.51631 0.65822 0.0
C6624 C 0.41587 0.48434 0.66242 0.0
C6625 C 0.41517 0.47953 0.65725 0.0
C6626 C 0.41406 0.49107 0.66133 0.0
C6627 C 0.41151 0.49316 0.65504 0.0
C6628 C 0.41086 0.48835 0.64986 0.0
C6629 C 0.41266 0.48162 0.65095 0.0
C6630 C 0.40134 0.50849 0.64961 0.0
C6631 C 0.40502 0.51381 0.65251 0.0
C6632 C 0.4035 0.50181 0.65033 0.0
C6633 C 0.40941 0.50029 0.65396 0.0
C6634 C 0.41318 0.50564 0.65672 0.0
C6635 C 0.411 0.51232 0.65601 0.0
H6636 H 0.27665 0.67087 0.40735 0.0
H6637 H 0.27977 0.65334 0.39476 0.0
H6638 H 0.26452 0.66877 0.40726 0.0
H6639 H 0.2677 0.6511 0.39485 0.0
H6640 H 0.24529 0.65175 0.39132 0.0
H6641 H 0.25712 0.655 0.39078 0.0
H6642 H 0.25636 0.66116 0.4117 0.0
H6643 H 0.24443 0.65829 0.41212 0.0
C6644 C 0.27475 0.66655 0.40459 0.0
C6645 C 0.27918 0.66227 0.40107 0.0
C6646 C 0.26779 0.66533 0.40456 0.0
C6647 C 0.26511 0.65976 0.40105 0.0
C6648 C 0.26956 0.6555 0.39751 0.0
C6649 C 0.2765 0.65676 0.39749 0.0
C6650 C 0.2476 0.65393 0.39577 0.0
C6651 C 0.24389 0.65473 0.40177 0.0
C6652 C 0.25442 0.6557 0.39549 0.0
C6653 C 0.25773 0.65829 0.40122 0.0
C6654 C 0.25398 0.65924 0.40717 0.0
C6655 C 0.24715 0.6575 0.40744 0.0
H6656 H 0.36184 0.10457 0.47771 0.0
H6657 H 0.34979 0.08668 0.48091 0.0
H6658 H 0.36173 0.10682 0.48979 0.0
H6659 H 0.34986 0.0888 0.49304 0.0
H6660 H 0.34504 0.09912 0.51329 0.0
H6661 H 0.34532 0.09633 0.50132 0.0
H6662 H 0.3661 0.10288 0.50027 0.0
H6663 H 0.3657 0.10602 0.51214 0.0
C6664 C 0.35921 0.10109 0.481 0.0
C6665 C 0.35581 0.09546 0.47834 0.0
C6666 C 0.35919 0.10234 0.48794 0.0
C6667 C 0.35581 0.09798 0.49241 0.0
C6668 C 0.35244 0.09232 0.48975 0.0
C6669 C 0.35243 0.09109 0.48279 0.0
C6670 C 0.34966 0.1 0.5105 0.0
C6671 C 0.35533 0.10285 0.51369 0.0
C6672 C 0.34985 0.09832 0.50364 0.0
C6673 C 0.35572 0.09941 0.4998 0.0
C6674 C 0.36145 0.10207 0.50304 0.0
C6675 C 0.36125 0.10379 0.50988 0.0
H6676 H 0.84448 0.42164 0.52376 0.0
H6677 H 0.85831 0.40551 0.52857 0.0
H6678 H 0.84558 0.41903 0.51179 0.0
H6679 H 0.8592 0.40269 0.51664 0.0
H6680 H 0.86407 0.40249 0.49442 0.0
H6681 H 0.86356 0.40618 0.50613 0.0
H6682 H 0.84241 0.41097 0.50368 0.0
H6683 H 0.84305 0.40773 0.49187 0.0
C6684 C 0.84772 0.4175 0.52226 0.0
C6685 C 0.8513 0.41378 0.52711 0.0
C6686 C 0.84833 0.41597 0.51539 0.0
C6687 C 0.85247 0.41063 0.51321 0.0
C6688 C 0.85606 0.40691 0.51809 0.0
C6689 C 0.85551 0.4085 0.52495 0.0
C6690 C 0.85934 0.40446 0.49633 0.0
C6691 C 0.85359 0.40478 0.49218 0.0
C6692 C 0.85902 0.40648 0.5031 0.0
C6693 C 0.85293 0.40882 0.5059 0.0
C6694 C 0.84722 0.40926 0.50171 0.0
C6695 C 0.84756 0.4073 0.49494 0.0
H6696 H 0.35497 0.11167 0.27998 0.0
H6697 H 0.33666 0.10049 0.27606 0.0
H6698 H 0.35774 0.11134 0.26797 0.0
H6699 H 0.33943 0.1002 0.26402 0.0
H6700 H 0.344 0.10777 0.24213 0.0
H6701 H 0.34084 0.10839 0.25409 0.0
H6702 H 0.36095 0.10216 0.25971 0.0
H6703 H 0.36411 0.10159 0.24781 0.0
C6704 C 0.35152 0.10916 0.27655 0.0
C6705 C 0.34561 0.10608 0.27897 0.0
C6706 C 0.35312 0.10896 0.26969 0.0
C6707 C 0.34881 0.10573 0.26507 0.0
C6708 C 0.34283 0.10276 0.26746 0.0
C6709 C 0.34126 0.10289 0.27435 0.0
C6710 C 0.34774 0.10656 0.24593 0.0
C6711 C 0.3543 0.10461 0.24405 0.0
C6712 C 0.34592 0.10686 0.25276 0.0
C6713 C 0.35065 0.10534 0.25782 0.0
C6714 C 0.35721 0.10342 0.25592 0.0
C6715 C 0.359 0.10304 0.24911 0.0
H6716 H 0.65709 0.58657 0.02642 0.0
H6717 H 0.64454 0.60404 0.02997 0.0
H6718 H 0.65697 0.58893 0.01434 0.0
H6719 H 0.64462 0.60655 0.01794 0.0
H6720 H 0.64096 0.60632 0.99552 0.0
H6721 H 0.64049 0.60287 0.00729 0.0
H6722 H 0.6614 0.59671 0.00631 0.0
H6723 H 0.66174 0.59979 0.99442 0.0
C6724 C 0.65433 0.59093 0.02462 0.0
C6725 C 0.65083 0.59512 0.02916 0.0
C6726 C 0.65429 0.59231 0.01769 0.0
C6727 C 0.65079 0.59794 0.01514 0.0
C6728 C 0.64727 0.6021 0.01969 0.0
C6729 C 0.64727 0.6007 0.02661 0.0
C6730 C 0.64542 0.60411 0.99777 0.0
C6731 C 0.6514 0.60336 0.994 0.0
C6732 C 0.64518 0.60222 0.00456 0.0
C6733 C 0.65092 0.59957 0.00779 0.0
C6734 C 0.65686 0.59868 0.00399 0.0
C6735 C 0.65708 0.60053 0.99718 0.0
H6736 H 0.65149 0.39592 0.27965 0.0
H6737 H 0.67062 0.4056 0.27567 0.0
H6738 H 0.64885 0.39618 0.26762 0.0
H6739 H 0.66799 0.4058 0.26359 0.0
H6740 H 0.663 0.39777 0.24188 0.0
H6741 H 0.66601 0.39731 0.25388 0.0
H6742 H 0.64649 0.4055 0.25908 0.0
H6743 H 0.64348 0.40594 0.24714 0.0
C6744 C 0.65515 0.39807 0.27621 0.0
C6745 C 0.66125 0.40076 0.27861 0.0
C6746 C 0.65362 0.39825 0.26932 0.0
C6747 C 0.65821 0.40103 0.26468 0.0
C6748 C 0.66438 0.4036 0.26706 0.0
C6749 C 0.66586 0.40351 0.27397 0.0
C6750 C 0.65936 0.39946 0.2456 0.0
C6751 C 0.65301 0.40191 0.24358 0.0
C6752 C 0.6611 0.39924 0.25245 0.0
C6753 C 0.65648 0.40136 0.2574 0.0
C6754 C 0.65013 0.40378 0.25537 0.0
C6755 C 0.64843 0.40409 0.24854 0.0
H6756 H 0.16165 0.91682 0.98064 0.0
H6757 H 0.14181 0.90818 0.97802 0.0
H6758 H 0.1613 0.91401 0.99261 0.0
H6759 H 0.14133 0.9056 0.99003 0.0
H6760 H 0.14591 0.89501 0.00996 0.0
H6761 H 0.14606 0.89813 0.99808 0.0
H6762 H 0.15614 0.91681 1.00311 0.0
H6763 H 0.15612 0.91359 0.01501 0.0
C6764 C 0.15719 0.91437 0.98263 0.0
C6765 C 0.15177 0.91269 0.97837 0.0
C6766 C 0.15696 0.9128 0.98951 0.0
C6767 C 0.15129 0.90957 0.99231 0.0
C6768 C 0.14583 0.90798 0.98804 0.0
C6769 C 0.14609 0.9095 0.98116 0.0
C6770 C 0.1481 0.89982 0.00853 0.0
C6771 C 0.151 0.90406 0.01342 0.0
C6772 C 0.14817 0.90162 1.00171 0.0
C6773 C 0.15111 0.90773 0.99961 0.0
C6774 C 0.15394 0.91201 0.00452 0.0
C6775 C 0.15391 0.91018 0.01135 0.0
H6776 H 0.3394 0.91746 0.23326 0.0
H6777 H 0.34703 0.89748 0.229 0.0
H6778 H 0.3427 0.91621 0.24505 0.0
H6779 H 0.35043 0.89628 0.24078 0.0
H6780 H 0.34949 0.89409 0.26388 0.0
H6781 H 0.34572 0.89515 0.25219 0.0
H6782 H 0.35305 0.91567 0.25168 0.0
H6783 H 0.35684 0.91462 0.26332 0.0
C6784 C 0.34179 0.91281 0.23483 0.0
C6785 C 0.34297 0.90758 0.23018 0.0
C6786 C 0.34371 0.9121 0.24159 0.0
C6787 C 0.34685 0.90615 0.24386 0.0
C6788 C 0.34796 0.9009 0.23922 0.0
C6789 C 0.34605 0.9016 0.23246 0.0
C6790 C 0.35033 0.89882 0.26126 0.0
C6791 C 0.35345 0.90428 0.26456 0.0
C6792 C 0.34817 0.89942 0.25456 0.0
C6793 C 0.34906 0.9055 0.25101 0.0
C6794 C 0.35217 0.91096 0.25431 0.0
C6795 C 0.35434 0.91035 0.26099 0.0
H6796 H 0.16976 0.10222 0.73181 0.0
H6797 H 0.1494 0.10933 0.72856 0.0
H6798 H 0.16759 0.10165 0.74398 0.0
H6799 H 0.14724 0.10869 0.74068 0.0
H6800 H 0.1438 0.09888 0.76141 0.0
H6801 H 0.14643 0.09924 0.74937 0.0
H6802 H 0.16488 0.11 0.75368 0.0
H6803 H 0.16226 0.10962 0.76578 0.0
C6804 C 0.16483 0.10365 0.73369 0.0
C6805 C 0.15975 0.10582 0.72923 0.0
C6806 C 0.1636 0.10335 0.74065 0.0
C6807 C 0.15724 0.10511 0.74326 0.0
C6808 C 0.15217 0.10725 0.73879 0.0
C6809 C 0.15342 0.10765 0.73186 0.0
C6810 C 0.14846 0.10126 0.7598 0.0
C6811 C 0.15283 0.10422 0.76454 0.0
C6812 C 0.14993 0.10151 0.75291 0.0
C6813 C 0.15584 0.10466 0.7506 0.0
C6814 C 0.1603 0.10751 0.75533 0.0
C6815 C 0.15878 0.10734 0.76224 0.0
H6816 H 0.08258 0.13648 0.42101 0.0
H6817 H 0.08229 0.15109 0.43723 0.0
H6818 H 0.09136 0.13013 0.42694 0.0
H6819 H 0.09103 0.14474 0.44311 0.0
H6820 H 0.11251 0.13658 0.44647 0.0
H6821 H 0.10329 0.1424 0.44078 0.0
H6822 H 0.09303 0.12338 0.43791 0.0
H6823 H 0.10234 0.11752 0.44362 0.0
C6824 C 0.08438 0.13833 0.42584 0.0
C6825 C 0.08177 0.14431 0.42863 0.0
C6826 C 0.08936 0.13466 0.42925 0.0
C6827 C 0.09188 0.13696 0.43547 0.0
C6828 C 0.08922 0.14289 0.43828 0.0
C6829 C 0.08421 0.14652 0.43492 0.0
C6830 C 0.1083 0.13364 0.44461 0.0
C6831 C 0.10815 0.1266 0.44545 0.0
C6832 C 0.103 0.13697 0.4414 0.0
C6833 C 0.09744 0.13334 0.43892 0.0
C6834 C 0.09727 0.12629 0.43975 0.0
C6835 C 0.10256 0.12296 0.44305 0.0
H6836 H 0.10507 0.83269 0.68607 0.0
H6837 H 0.12059 0.83171 0.67076 0.0
H6838 H 0.11144 0.84139 0.69198 0.0
H6839 H 0.12697 0.84046 0.67671 0.0
H6840 H 0.13909 0.85148 0.69371 0.0
H6841 H 0.13314 0.84225 0.68796 0.0
H6842 H 0.11449 0.85343 0.6894 0.0
H6843 H 0.12039 0.86257 0.69514 0.0
C6844 C 0.10985 0.83432 0.68396 0.0
C6845 C 0.11231 0.83154 0.67792 0.0
C6846 C 0.11348 0.83932 0.68734 0.0
C6847 C 0.11969 0.84161 0.68479 0.0
C6848 C 0.12222 0.83875 0.67881 0.0
C6849 C 0.11855 0.83378 0.67539 0.0
C6850 C 0.13372 0.85193 0.69281 0.0
C6851 C 0.1302 0.85774 0.69484 0.0
C6852 C 0.13033 0.84668 0.68949 0.0
C6853 C 0.12336 0.84713 0.68825 0.0
C6854 C 0.11985 0.85292 0.69034 0.0
C6855 C 0.12324 0.85818 0.69358 0.0
H6856 H 0.42716 0.87123 0.92265 0.0
H6857 H 0.41882 0.85268 0.93053 0.0
H6858 H 0.41931 0.8777 0.92963 0.0
H6859 H 0.41092 0.85912 0.93737 0.0
H6860 H 0.40274 0.87203 0.95412 0.0
H6861 H 0.41122 0.86638 0.94724 0.0
H6862 H 0.40724 0.88025 0.93089 0.0
H6863 H 0.39875 0.88594 0.93782 0.0
C6864 C 0.42362 0.86853 0.92582 0.0
C6865 C 0.42363 0.86144 0.92606 0.0
C6866 C 0.41911 0.87224 0.92981 0.0
C6867 C 0.41454 0.86893 0.93411 0.0
C6868 C 0.41448 0.86183 0.93423 0.0
C6869 C 0.41898 0.85814 0.93026 0.0
C6870 C 0.40369 0.87389 0.94907 0.0
C6871 C 0.40003 0.87938 0.94648 0.0
C6872 C 0.40854 0.87064 0.94512 0.0
C6873 C 0.40983 0.8728 0.93848 0.0
C6874 C 0.40638 0.87849 0.93599 0.0
C6875 C 0.40153 0.88175 0.93996 0.0
H6876 H 0.38628 0.17475 0.1717 0.0
H6877 H 0.40161 0.17399 0.1872 0.0
H6878 H 0.37986 0.16604 0.17766 0.0
H6879 H 0.3952 0.16531 0.19312 0.0
H6880 H 0.38639 0.144 0.19611 0.0
H6881 H 0.39229 0.15321 0.19047 0.0
H6882 H 0.37357 0.16428 0.18893 0.0
H6883 H 0.36763 0.15498 0.19459 0.0
C6884 C 0.38827 0.17274 0.17638 0.0
C6885 C 0.39447 0.17503 0.17896 0.0
C6886 C 0.38457 0.16779 0.17981 0.0
C6887 C 0.38705 0.165 0.18584 0.0
C6888 C 0.39321 0.16734 0.18844 0.0
C6889 C 0.39686 0.17232 0.18506 0.0
C6890 C 0.38353 0.14839 0.19455 0.0
C6891 C 0.37656 0.14877 0.19575 0.0
C6892 C 0.38691 0.15368 0.19137 0.0
C6893 C 0.38339 0.15945 0.18927 0.0
C6894 C 0.3764 0.15986 0.19046 0.0
C6895 C 0.37302 0.15458 0.19374 0.0
H6896 H 0.08143 0.87029 0.08586 0.0
H6897 H 0.08504 0.8535 0.0724 0.0
H6898 H 0.09011 0.87682 0.07998 0.0
H6899 H 0.09367 0.86003 0.06656 0.0
H6900 H 0.11405 0.87058 0.0637 0.0
H6901 H 0.10511 0.86445 0.06952 0.0
H6902 H 0.09227 0.88203 0.0684 0.0
H6903 H 0.1013 0.88823 0.0626 0.0
C6904 C 0.08407 0.868 0.08165 0.0
C6905 C 0.08257 0.86136 0.07961 0.0
C6906 C 0.089 0.87175 0.07827 0.0
C6907 C 0.09257 0.86892 0.07283 0.0
C6908 C 0.09105 0.86231 0.07078 0.0
C6909 C 0.08609 0.85858 0.07411 0.0
C6910 C 0.10934 0.87316 0.06474 0.0
C6911 C 0.10838 0.87989 0.06273 0.0
C6912 C 0.1042 0.86963 0.06801 0.0
C6913 C 0.098 0.87276 0.06939 0.0
C6914 C 0.09703 0.87951 0.06743 0.0
C6915 C 0.10216 0.88303 0.06408 0.0
H6916 H 0.38719 0.82373 0.32253 0.0
H6917 H 0.39566 0.83832 0.33637 0.0
H6918 H 0.38096 0.8327 0.31687 0.0
H6919 H 0.38949 0.8473 0.33064 0.0
H6920 H 0.37271 0.86085 0.32265 0.0
H6921 H 0.37794 0.85147 0.32867 0.0
H6922 H 0.38361 0.84244 0.30965 0.0
H6923 H 0.37843 0.85183 0.30363 0.0
C6924 C 0.38771 0.82885 0.32438 0.0
C6925 C 0.39194 0.83031 0.32989 0.0
C6926 C 0.38416 0.83399 0.32111 0.0
C6927 C 0.38474 0.84071 0.3233 0.0
C6928 C 0.38888 0.84216 0.32888 0.0
C6929 C 0.39244 0.83702 0.33214 0.0
C6930 C 0.37508 0.85687 0.31975 0.0
C6931 C 0.37518 0.85711 0.31265 0.0
C6932 C 0.37808 0.8515 0.3232 0.0
C6933 C 0.38122 0.84623 0.31964 0.0
C6934 C 0.38116 0.84638 0.31254 0.0
C6935 C 0.37818 0.85176 0.30909 0.0
H6936 H 0.42302 0.15071 0.57122 0.0
H6937 H 0.42446 0.13581 0.58709 0.0
H6938 H 0.41475 0.14374 0.56542 0.0
H6939 H 0.41632 0.12873 0.58117 0.0
H6940 H 0.39579 0.12201 0.57254 0.0
H6941 H 0.40456 0.12832 0.57837 0.0
H6942 H 0.41361 0.13345 0.55919 0.0
H6943 H 0.40463 0.12745 0.55334 0.0
C6944 C 0.4216 0.14593 0.57346 0.0
C6945 C 0.42439 0.14383 0.57963 0.0
C6946 C 0.41689 0.1419 0.57009 0.0
C6947 C 0.41489 0.13565 0.5728 0.0
C6948 C 0.41769 0.13354 0.57898 0.0
C6949 C 0.42238 0.1376 0.58236 0.0
C6950 C 0.39964 0.1245 0.56956 0.0
C6951 C 0.39946 0.12427 0.56246 0.0
C6952 C 0.40472 0.12806 0.57291 0.0
C6953 C 0.40977 0.13145 0.56925 0.0
C6954 C 0.40974 0.131 0.56216 0.0
C6955 C 0.40463 0.12747 0.55881 0.0
H6956 H 0.1074 0.17571 0.81972 0.0
H6957 H 0.11956 0.17422 0.83777 0.0
H6958 H 0.11446 0.1673 0.81424 0.0
H6959 H 0.12679 0.16595 0.8322 0.0
H6960 H 0.1326 0.14544 0.82292 0.0
H6961 H 0.12655 0.15454 0.82848 0.0
H6962 H 0.12529 0.16527 0.80952 0.0
H6963 H 0.13097 0.15596 0.80387 0.0
C6964 C 0.11163 0.17363 0.8225 0.0
C6965 C 0.1129 0.17561 0.82919 0.0
C6966 C 0.11572 0.16884 0.81933 0.0
C6967 C 0.12122 0.16595 0.82276 0.0
C6968 C 0.12254 0.168 0.82943 0.0
C6969 C 0.11841 0.17276 0.83262 0.0
C6970 C 0.13102 0.14972 0.81993 0.0
C6971 C 0.1322 0.14991 0.81292 0.0
C6972 C 0.12762 0.155 0.82314 0.0
C6973 C 0.12537 0.16063 0.81945 0.0
C6974 C 0.12683 0.16095 0.8125 0.0
C6975 C 0.13019 0.15565 0.80928 0.0
H6976 H 0.41754 0.08297 0.13612 0.0
H6977 H 0.43318 0.0834 0.15132 0.0
H6978 H 0.42376 0.09131 0.1295 0.0
H6979 H 0.43928 0.09182 0.14482 0.0
H6980 H 0.43327 0.11183 0.12379 0.0
H6981 H 0.42699 0.10305 0.12967 0.0
H6982 H 0.4457 0.093 0.1346 0.0
H6983 H 0.452 0.10196 0.12902 0.0
C6984 C 0.42228 0.08487 0.13807 0.0
C6985 C 0.42487 0.08251 0.14424 0.0
C6986 C 0.42583 0.08967 0.13429 0.0
C6987 C 0.43205 0.09221 0.13661 0.0
C6988 C 0.43459 0.08988 0.14281 0.0
C6989 C 0.43105 0.08508 0.14657 0.0
C6990 C 0.43605 0.10776 0.12614 0.0
C6991 C 0.44315 0.10764 0.12598 0.0
C6992 C 0.43244 0.10268 0.12945 0.0
C6993 C 0.43584 0.09735 0.13266 0.0
C6994 C 0.44293 0.0971 0.13228 0.0
C6995 C 0.44654 0.10219 0.129 0.0
H6996 H 0.16884 0.1701 0.39401 0.0
H6997 H 0.18293 0.18548 0.38761 0.0
H6998 H 0.15983 0.17582 0.38787 0.0
H6999 H 0.17395 0.19113 0.38139 0.0
H7000 H 0.15432 0.20339 0.37865 0.0
H7001 H 0.16368 0.1975 0.384 0.0
H7002 H 0.15615 0.17853 0.37632 0.0
H7003 H 0.14679 0.18444 0.37092 0.0
C7004 C 0.17002 0.17467 0.39126 0.0
C7005 C 0.1766 0.17735 0.39133 0.0
C7006 C 0.16487 0.17793 0.3877 0.0
C7007 C 0.16618 0.18393 0.38415 0.0
C7008 C 0.17277 0.18656 0.38415 0.0
C7009 C 0.17792 0.1833 0.38769 0.0
C7010 C 0.15472 0.19798 0.378 0.0
C7011 C 0.14979 0.19439 0.37436 0.0
C7012 C 0.16008 0.1946 0.38108 0.0
C7013 C 0.16065 0.18754 0.3806 0.0
C7014 C 0.1558 0.18396 0.37686 0.0
C7015 C 0.15044 0.18734 0.37377 0.0
H7016 H 0.08613 0.91855 0.64542 0.0
H7017 H 0.07198 0.93296 0.63718 0.0
H7018 H 0.08058 0.90953 0.63915 0.0
H7019 H 0.0665 0.92395 0.63084 0.0
H7020 H 0.05362 0.90465 0.6281 0.0
H7021 H 0.05949 0.91406 0.63342 0.0
H7022 H 0.07864 0.90546 0.62755 0.0
H7023 H 0.07277 0.89606 0.62217 0.0
C7024 C 0.08187 0.91981 0.64224 0.0
C7025 C 0.07948 0.92647 0.64183 0.0
C7026 C 0.07871 0.91464 0.63861 0.0
C7027 C 0.07309 0.91603 0.63451 0.0
C7028 C 0.07077 0.92271 0.63402 0.0
C7029 C 0.07393 0.92788 0.63763 0.0
C7030 C 0.05908 0.90482 0.62783 0.0
C7031 C 0.06272 0.89959 0.62472 0.0
C7032 C 0.06244 0.91021 0.63089 0.0
C7033 C 0.06953 0.91049 0.63093 0.0
C7034 C 0.07318 0.90533 0.6277 0.0
C7035 C 0.06981 0.89995 0.62462 0.0
H7036 H 0.3323 0.81986 0.90079 0.0
H7037 H 0.33233 0.83698 0.88726 0.0
H7038 H 0.34082 0.81438 0.89387 0.0
H7039 H 0.34073 0.83138 0.8802 0.0
H7040 H 0.36152 0.82266 0.87427 0.0
H7041 H 0.35241 0.82824 0.88035 0.0
H7042 H 0.34253 0.80901 0.88321 0.0
H7043 H 0.35182 0.80338 0.87747 0.0
C7044 C 0.33409 0.82244 0.8963 0.0
C7045 C 0.33165 0.82887 0.89459 0.0
C7046 C 0.33894 0.81926 0.8923 0.0
C7047 C 0.34145 0.82241 0.88645 0.0
C7048 C 0.33897 0.82884 0.88471 0.0
C7049 C 0.33413 0.83204 0.88874 0.0
C7050 C 0.35741 0.81961 0.87621 0.0
C7051 C 0.35745 0.81256 0.87544 0.0
C7052 C 0.35214 0.82283 0.87963 0.0
C7053 C 0.34676 0.81907 0.88233 0.0
C7054 C 0.34666 0.81205 0.88131 0.0
C7055 C 0.35195 0.80883 0.87792 0.0
H7056 H 0.42062 0.92628 0.37076 0.0
H7057 H 0.4339 0.92273 0.35381 0.0
H7058 H 0.42649 0.91751 0.37718 0.0
H7059 H 0.43975 0.91402 0.36022 0.0
H7060 H 0.44278 0.89362 0.37062 0.0
H7061 H 0.43687 0.90257 0.3646 0.0
H7062 H 0.43806 0.91528 0.38228 0.0
H7063 H 0.44394 0.90624 0.38836 0.0
C7064 C 0.42478 0.92364 0.36841 0.0
C7065 C 0.42678 0.92518 0.36177 0.0
C7066 C 0.42816 0.91865 0.3721 0.0
C7067 C 0.43356 0.91508 0.36919 0.0
C7068 C 0.43556 0.91664 0.36257 0.0
C7069 C 0.43222 0.92165 0.3589 0.0
C7070 C 0.44173 0.8983 0.37324 0.0
C7071 C 0.44379 0.89923 0.37997 0.0
C7072 C 0.4384 0.90345 0.36978 0.0
C7073 C 0.43702 0.90962 0.37297 0.0
C7074 C 0.43902 0.91055 0.37971 0.0
C7075 C 0.44243 0.90541 0.38317 0.0
H7076 H 0.32359 0.18521 0.62185 0.0
H7077 H 0.3378 0.17085 0.61361 0.0
H7078 H 0.33273 0.19082 0.62786 0.0
H7079 H 0.34696 0.17654 0.61955 0.0
H7080 H 0.36089 0.18477 0.63592 0.0
H7081 H 0.35137 0.17877 0.63093 0.0
H7082 H 0.34253 0.19778 0.62495 0.0
H7083 H 0.35206 0.20378 0.62989 0.0
C7084 C 0.32866 0.18324 0.62133 0.0
C7085 C 0.32996 0.17759 0.61723 0.0
C7086 C 0.3339 0.18648 0.62475 0.0
C7087 C 0.34058 0.18414 0.62417 0.0
C7088 C 0.34187 0.17842 0.62017 0.0
C7089 C 0.33662 0.17518 0.61674 0.0
C7090 C 0.35692 0.18767 0.63353 0.0
C7091 C 0.35725 0.19476 0.63329 0.0
C7092 C 0.35147 0.18423 0.63067 0.0
C7093 C 0.34621 0.18779 0.62752 0.0
C7094 C 0.34646 0.19489 0.62742 0.0
C7095 C 0.35192 0.19833 0.63026 0.0
H7096 H 0.0871 0.08237 0.87007 0.0
H7097 H 0.06927 0.08121 0.85756 0.0
H7098 H 0.08154 0.09076 0.87719 0.0
H7099 H 0.06381 0.08971 0.86452 0.0
H7100 H 0.05329 0.10091 0.88107 0.0
H7101 H 0.05896 0.09163 0.87536 0.0
H7102 H 0.07794 0.10226 0.87689 0.0
H7103 H 0.07235 0.11136 0.88297 0.0
C7104 C 0.08201 0.08393 0.86883 0.0
C7105 C 0.07863 0.08113 0.86325 0.0
C7106 C 0.07883 0.08875 0.87289 0.0
C7107 C 0.07222 0.09091 0.87145 0.0
C7108 C 0.06885 0.08808 0.86587 0.0
C7109 C 0.07201 0.08324 0.86184 0.0
C7110 C 0.0587 0.10121 0.88033 0.0
C7111 C 0.06235 0.10692 0.88244 0.0
C7112 C 0.06194 0.09592 0.87696 0.0
C7113 C 0.0689 0.09623 0.87558 0.0
C7114 C 0.07259 0.10183 0.8779 0.0
C7115 C 0.06936 0.10709 0.88131 0.0
H7116 H 0.1689 0.8363 0.11202 0.0
H7117 H 0.18331 0.82202 0.12005 0.0
H7118 H 0.15988 0.83065 0.11822 0.0
H7119 H 0.1743 0.81645 0.12631 0.0
H7120 H 0.15504 0.80352 0.12893 0.0
H7121 H 0.16442 0.80947 0.12367 0.0
H7122 H 0.15579 0.82854 0.12977 0.0
H7123 H 0.14641 0.82258 0.1351 0.0
C7124 C 0.17015 0.83199 0.11515 0.0
C7125 C 0.17682 0.82959 0.11551 0.0
C7126 C 0.16499 0.82878 0.11873 0.0
C7127 C 0.16637 0.82309 0.12275 0.0
C7128 C 0.17306 0.82076 0.12319 0.0
C7129 C 0.17822 0.82398 0.11963 0.0
C7130 C 0.15519 0.80897 0.12927 0.0
C7131 C 0.14996 0.81257 0.13243 0.0
C7132 C 0.16057 0.81239 0.12623 0.0
C7133 C 0.16083 0.81948 0.12628 0.0
C7134 C 0.15567 0.82307 0.12956 0.0
C7135 C 0.1503 0.81966 0.13261 0.0
H7136 H 0.15041 0.43796 0.08293 0.0
H7137 H 0.13713 0.42066 0.08278 0.0
H7138 H 0.14331 0.44336 0.09134 0.0
H7139 H 0.12987 0.42617 0.09107 0.0
H7140 H 0.12359 0.43473 0.1118 0.0
H7141 H 0.1298 0.42927 0.10272 0.0
H7142 H 0.1326 0.4486 0.093 0.0
H7143 H 0.12676 0.45411 0.10229 0.0
C7144 C 0.14594 0.43533 0.08465 0.0
C7145 C 0.14436 0.42887 0.0822 0.0
C7146 C 0.14183 0.43845 0.08944 0.0
C7147 C 0.13599 0.43522 0.09187 0.0
C7148 C 0.13437 0.42877 0.08937 0.0
C7149 C 0.13852 0.42562 0.0846 0.0
C7150 C 0.12555 0.43783 0.10774 0.0
C7151 C 0.12474 0.44488 0.10783 0.0
C7152 C 0.12904 0.43467 0.10248 0.0
C7153 C 0.13176 0.43849 0.09715 0.0
C7154 C 0.13068 0.44551 0.09709 0.0
C7155 C 0.12724 0.44867 0.10237 0.0
H7156 H 0.65011 0.07058 0.92403 0.0
H7157 H 0.6362 0.08737 0.92397 0.0
H7158 H 0.64315 0.06475 0.91577 0.0
H7159 H 0.62909 0.08144 0.91586 0.0
H7160 H 0.62288 0.07232 0.8954 0.0
H7161 H 0.629 0.07814 0.90429 0.0
H7162 H 0.63266 0.05908 0.91426 0.0
H7163 H 0.62688 0.05321 0.90514 0.0
C7164 C 0.64553 0.07301 0.92229 0.0
C7165 C 0.64373 0.07945 0.92463 0.0
C7166 C 0.6415 0.06964 0.91759 0.0
C7167 C 0.63553 0.0726 0.91516 0.0
C7168 C 0.63369 0.07903 0.91755 0.0
C7169 C 0.63776 0.08243 0.92222 0.0
C7170 C 0.625 0.06936 0.89948 0.0
C7171 C 0.62445 0.06228 0.8995 0.0
C7172 C 0.62845 0.07271 0.90463 0.0
C7173 C 0.63138 0.06908 0.90998 0.0
C7174 C 0.63057 0.06203 0.91016 0.0
C7175 C 0.62716 0.05867 0.90497 0.0
H7176 H 0.17078 0.38648 0.17584 0.0
H7177 H 0.18516 0.40268 0.17318 0.0
H7178 H 0.17653 0.37997 0.16705 0.0
H7179 H 0.19087 0.39617 0.16444 0.0
H7180 H 0.19374 0.38624 0.14375 0.0
H7181 H 0.18802 0.39234 0.15277 0.0
H7182 H 0.18785 0.37425 0.16494 0.0
H7183 H 0.19355 0.36809 0.15583 0.0
C7184 C 0.17516 0.38865 0.17339 0.0
C7185 C 0.1775 0.39511 0.17518 0.0
C7186 C 0.17847 0.3849 0.16839 0.0
C7187 C 0.18413 0.38758 0.16506 0.0
C7188 C 0.18648 0.39402 0.16688 0.0
C7189 C 0.18321 0.39773 0.1719 0.0
C7190 C 0.19244 0.38355 0.14833 0.0
C7191 C 0.19406 0.37669 0.14908 0.0
C7192 C 0.18922 0.38706 0.15352 0.0
C7193 C 0.18751 0.38377 0.15956 0.0
C7194 C 0.18908 0.37689 0.16031 0.0
C7195 C 0.19238 0.37339 0.15513 0.0
H7196 H 0.85313 0.93003 0.41837 0.0
H7197 H 0.87187 0.9221 0.42623 0.0
H7198 H 0.8594 0.93704 0.41048 0.0
H7199 H 0.87817 0.92925 0.41839 0.0
H7200 H 0.88608 0.93779 0.3979 0.0
H7201 H 0.88052 0.93071 0.40634 0.0
H7202 H 0.86662 0.94692 0.41075 0.0
H7203 H 0.87214 0.95396 0.40232 0.0
C7204 C 0.85859 0.92979 0.41842 0.0
C7205 C 0.862 0.92552 0.42294 0.0
C7206 C 0.86219 0.93385 0.41393 0.0
C7207 C 0.86929 0.93376 0.41386 0.0
C7208 C 0.8727 0.9294 0.4183 0.0
C7209 C 0.86909 0.92532 0.42279 0.0
C7210 C 0.88191 0.93988 0.40077 0.0
C7211 C 0.8795 0.94641 0.3994 0.0
C7212 C 0.87872 0.93582 0.40559 0.0
C7213 C 0.87306 0.93822 0.40914 0.0
C7214 C 0.87086 0.94486 0.40798 0.0
C7215 C 0.87403 0.9489 0.40316 0.0
H7216 H 0.83615 0.12039 0.17501 0.0
H7217 H 0.82051 0.10535 0.17282 0.0
H7218 H 0.83043 0.12753 0.16676 0.0
H7219 H 0.8149 0.11238 0.16447 0.0
H7220 H 0.80293 0.12873 0.15438 0.0
H7221 H 0.80861 0.12268 0.16344 0.0
H7222 H 0.82795 0.12803 0.15486 0.0
H7223 H 0.82226 0.13438 0.146 0.0
C7224 C 0.83151 0.11859 0.17274 0.0
C7225 C 0.82878 0.1123 0.17457 0.0
C7226 C 0.82824 0.12267 0.168 0.0
C7227 C 0.82218 0.12055 0.16497 0.0
C7228 C 0.81948 0.11424 0.16679 0.0
C7229 C 0.82273 0.11017 0.17154 0.0
C7230 C 0.80839 0.12875 0.15451 0.0
C7231 C 0.81213 0.13202 0.14944 0.0
C7232 C 0.81166 0.1252 0.15965 0.0
C7233 C 0.81874 0.12479 0.15983 0.0
C7234 C 0.82249 0.12826 0.1549 0.0
C7235 C 0.81922 0.13184 0.14977 0.0
H7236 H 0.35743 0.56934 0.58109 0.0
H7237 H 0.36954 0.58742 0.58248 0.0
H7238 H 0.36437 0.56401 0.58968 0.0
H7239 H 0.37664 0.582 0.59096 0.0
H7240 H 0.38228 0.57278 0.61164 0.0
H7241 H 0.37623 0.57831 0.60249 0.0
H7242 H 0.37532 0.55939 0.59167 0.0
H7243 H 0.38102 0.55379 0.60099 0.0
C7244 C 0.36161 0.57216 0.58319 0.0
C7245 C 0.36292 0.57882 0.58111 0.0
C7246 C 0.36563 0.56908 0.58808 0.0
C7247 C 0.3711 0.57255 0.591 0.0
C7248 C 0.37243 0.5792 0.58888 0.0
C7249 C 0.36838 0.5823 0.584 0.0
C7250 C 0.38077 0.56979 0.60732 0.0
C7251 C 0.38208 0.56282 0.6071 0.0
C7252 C 0.37737 0.57299 0.60202 0.0
C7253 C 0.37523 0.56929 0.59636 0.0
C7254 C 0.37679 0.56237 0.59601 0.0
C7255 C 0.38015 0.55917 0.60132 0.0
H7256 H 0.18514 0.60444 0.3357 0.0
H7257 H 0.17068 0.6206 0.33333 0.0
H7258 H 0.19107 0.611 0.34425 0.0
H7259 H 0.17664 0.62717 0.34192 0.0
H7260 H 0.19384 0.63917 0.35261 0.0
H7261 H 0.18806 0.6329 0.34363 0.0
H7262 H 0.1884 0.61495 0.356 0.0
H7263 H 0.19418 0.62117 0.3649 0.0
C7264 C 0.18322 0.60939 0.337 0.0
C7265 C 0.17742 0.61199 0.33386 0.0
C7266 C 0.18661 0.61314 0.34191 0.0
C7267 C 0.1843 0.61959 0.34375 0.0
C7268 C 0.17855 0.62223 0.34055 0.0
C7269 C 0.17512 0.61845 0.33568 0.0
C7270 C 0.19269 0.63388 0.35338 0.0
C7271 C 0.19442 0.63066 0.35945 0.0
C7272 C 0.18935 0.63031 0.34827 0.0
C7273 C 0.1878 0.62344 0.34913 0.0
C7274 C 0.18959 0.62023 0.35518 0.0
C7275 C 0.19284 0.6238 0.3603 0.0
H7276 H 0.33726 0.38652 0.83178 0.0
H7277 H 0.32099 0.40098 0.83317 0.0
H7278 H 0.33162 0.3794 0.84011 0.0
H7279 H 0.31547 0.39399 0.84161 0.0
H7280 H 0.30399 0.37772 0.8523 0.0
H7281 H 0.30956 0.38358 0.84305 0.0
H7282 H 0.32898 0.37913 0.85191 0.0
H7283 H 0.32343 0.37295 0.86096 0.0
C7284 C 0.3325 0.3882 0.83389 0.0
C7285 C 0.32957 0.39432 0.83182 0.0
C7286 C 0.32928 0.38413 0.83868 0.0
C7287 C 0.32308 0.3861 0.84152 0.0
C7288 C 0.32017 0.39224 0.83944 0.0
C7289 C 0.32337 0.39628 0.83464 0.0
C7290 C 0.30945 0.37785 0.8522 0.0
C7291 C 0.31325 0.37489 0.85741 0.0
C7292 C 0.31265 0.3813 0.84694 0.0
C7293 C 0.31972 0.38191 0.84678 0.0
C7294 C 0.32353 0.37874 0.85185 0.0
C7295 C 0.32034 0.37526 0.85709 0.0
H7296 H 0.92436 0.86323 0.58709 0.0
H7297 H 0.93632 0.86658 0.56914 0.0
H7298 H 0.91511 0.86957 0.58213 0.0
H7299 H 0.92696 0.8729 0.56412 0.0
H7300 H 0.91028 0.88898 0.56029 0.0
H7301 H 0.92009 0.8834 0.56532 0.0
H7302 H 0.90715 0.86757 0.57288 0.0
H7303 H 0.89741 0.87308 0.56785 0.0
C7304 C 0.92504 0.86535 0.58209 0.0
C7305 C 0.93107 0.86436 0.57849 0.0
C7306 C 0.91971 0.86895 0.57923 0.0
C7307 C 0.92027 0.87167 0.57271 0.0
C7308 C 0.92638 0.87089 0.56918 0.0
C7309 C 0.93173 0.86725 0.57204 0.0
C7310 C 0.90955 0.88429 0.563 0.0
C7311 C 0.90305 0.88151 0.56372 0.0
C7312 C 0.91516 0.8811 0.56587 0.0
C7313 C 0.91438 0.87508 0.56954 0.0
C7314 C 0.9079 0.87228 0.57021 0.0
C7315 C 0.90231 0.87545 0.56733 0.0
H7316 H 0.88189 0.18187 0.3354 0.0
H7317 H 0.89429 0.1843 0.31762 0.0
H7318 H 0.87615 0.17239 0.33012 0.0
H7319 H 0.88866 0.17468 0.31239 0.0
H7320 H 0.87399 0.1597 0.30299 0.0
H7321 H 0.87825 0.17023 0.30775 0.0
H7322 H 0.87911 0.16094 0.32747 0.0
H7323 H 0.87455 0.15056 0.32279 0.0
C7324 C 0.88336 0.18042 0.33034 0.0
C7325 C 0.88859 0.18381 0.32695 0.0
C7326 C 0.8801 0.17494 0.32733 0.0
C7327 C 0.88201 0.1727 0.32087 0.0
C7328 C 0.88703 0.17629 0.31736 0.0
C7329 C 0.89028 0.1818 0.32036 0.0
C7330 C 0.87498 0.15994 0.30836 0.0
C7331 C 0.87394 0.15427 0.31251 0.0
C7332 C 0.8775 0.16596 0.31107 0.0
C7333 C 0.87903 0.16644 0.31799 0.0
C7334 C 0.8779 0.16079 0.32214 0.0
C7335 C 0.87537 0.15479 0.31944 0.0
H7336 H 0.5846 0.14711 0.08442 0.0
H7337 H 0.57004 0.13581 0.07275 0.0
H7338 H 0.59373 0.14173 0.07831 0.0
H7339 H 0.57926 0.13049 0.06646 0.0
H7340 H 0.59827 0.11698 0.0628 0.0
H7341 H 0.58849 0.12242 0.06804 0.0
H7342 H 0.59887 0.1416 0.06737 0.0
H7343 H 0.60862 0.13615 0.06225 0.0
C7344 C 0.58334 0.14351 0.0805 0.0
C7345 C 0.57658 0.1419 0.07907 0.0
C7346 C 0.58859 0.14045 0.07696 0.0
C7347 C 0.58724 0.13571 0.07186 0.0
C7348 C 0.58048 0.13409 0.0704 0.0
C7349 C 0.57519 0.13716 0.07397 0.0
C7350 C 0.59841 0.12237 0.06372 0.0
C7351 C 0.60424 0.12613 0.06221 0.0
C7352 C 0.59281 0.12549 0.0667 0.0
C7353 C 0.59292 0.13244 0.06819 0.0
C7354 C 0.59867 0.13621 0.06644 0.0
C7355 C 0.60426 0.13309 0.0635 0.0
H7356 H 0.61638 0.81989 0.8193 0.0
H7357 H 0.61216 0.83309 0.83615 0.0
H7358 H 0.62345 0.82865 0.81424 0.0
H7359 H 0.61905 0.84184 0.83105 0.0
H7360 H 0.63613 0.85455 0.82323 0.0
H7361 H 0.63052 0.84484 0.8283 0.0
H7362 H 0.62201 0.83962 0.80891 0.0
H7363 H 0.62766 0.8493 0.80383 0.0
C7364 C 0.61698 0.82464 0.82194 0.0
C7365 C 0.6137 0.82579 0.82813 0.0
C7366 C 0.621 0.82967 0.81902 0.0
C7367 C 0.62182 0.83595 0.82224 0.0
C7368 C 0.61862 0.83704 0.82848 0.0
C7369 C 0.61462 0.83202 0.83139 0.0
C7370 C 0.63307 0.85132 0.82005 0.0
C7371 C 0.63231 0.85272 0.81313 0.0
C7372 C 0.62985 0.84575 0.82295 0.0
C7373 C 0.62577 0.84148 0.81902 0.0
C7374 C 0.62518 0.84276 0.81207 0.0
C7375 C 0.62842 0.84832 0.80915 0.0
H7376 H 0.92479 0.14338 0.92078 0.0
H7377 H 0.93733 0.14102 0.93847 0.0
H7378 H 0.91604 0.13661 0.92605 0.0
H7379 H 0.92858 0.13407 0.94371 0.0
H7380 H 0.90765 0.13012 0.95361 0.0
H7381 H 0.91738 0.13561 0.94845 0.0
H7382 H 0.91319 0.12536 0.92965 0.0
H7383 H 0.90342 0.11992 0.93481 0.0
C7384 C 0.92572 0.14135 0.92577 0.0
C7385 C 0.93176 0.14277 0.92921 0.0
C7386 C 0.92071 0.13741 0.92877 0.0
C7387 C 0.9216 0.13478 0.9353 0.0
C7388 C 0.9277 0.13608 0.9387 0.0
C7389 C 0.93273 0.14003 0.93569 0.0
C7390 C 0.90887 0.12896 0.94841 0.0
C7391 C 0.90474 0.12462 0.94461 0.0
C7392 C 0.91446 0.1321 0.94545 0.0
C7393 C 0.91605 0.13097 0.93862 0.0
C7394 C 0.91204 0.12645 0.93489 0.0
C7395 C 0.90644 0.12332 0.93784 0.0
H7396 H 0.62295 0.18244 0.67253 0.0
H7397 H 0.61017 0.18456 0.69009 0.0
H7398 H 0.62865 0.1729 0.67784 0.0
H7399 H 0.6159 0.17504 0.6954 0.0
H7400 H 0.62083 0.1523 0.69746 0.0
H7401 H 0.61606 0.1627 0.69296 0.0
H7402 H 0.63603 0.16958 0.68757 0.0
H7403 H 0.64082 0.15908 0.69201 0.0
C7404 C 0.62142 0.18094 0.67756 0.0
C7405 C 0.61607 0.18423 0.68087 0.0
C7406 C 0.62471 0.17549 0.68061 0.0
C7407 C 0.62268 0.17319 0.68701 0.0
C7408 C 0.61751 0.17665 0.69042 0.0
C7409 C 0.61426 0.18213 0.6874 0.0
C7410 C 0.6242 0.15602 0.69529 0.0
C7411 C 0.6312 0.15486 0.69506 0.0
C7412 C 0.62148 0.16201 0.69278 0.0
C7413 C 0.62567 0.16697 0.68994 0.0
C7414 C 0.63267 0.16583 0.68971 0.0
C7415 C 0.63541 0.15985 0.69229 0.0
H7416 H 0.57056 0.86763 0.43786 0.0
H7417 H 0.58347 0.86445 0.42056 0.0
H7418 H 0.57987 0.87333 0.4437 0.0
H7419 H 0.59264 0.87017 0.42631 0.0
H7420 H 0.6097 0.87325 0.4411 0.0
H7421 H 0.60005 0.8678 0.43585 0.0
H7422 H 0.58704 0.88371 0.44314 0.0
H7423 H 0.59678 0.88922 0.44841 0.0
C7424 C 0.57536 0.86818 0.4353 0.0
C7425 C 0.57628 0.86555 0.42876 0.0
C7426 C 0.58067 0.87146 0.43862 0.0
C7427 C 0.58701 0.87214 0.43548 0.0
C7428 C 0.58787 0.86962 0.42891 0.0
C7429 C 0.58258 0.86637 0.4256 0.0
C7430 C 0.6048 0.87563 0.44153 0.0
C7431 C 0.60403 0.88172 0.44509 0.0
C7432 C 0.59926 0.8725 0.43854 0.0
C7433 C 0.59279 0.87536 0.43902 0.0
C7434 C 0.59196 0.88136 0.44272 0.0
C7435 C 0.59753 0.88452 0.44573 0.0
H7436 H 0.88277 0.82077 0.17987 0.0
H7437 H 0.90175 0.82885 0.18695 0.0
H7438 H 0.87684 0.83034 0.18489 0.0
H7439 H 0.89582 0.8383 0.19208 0.0
H7440 H 0.88458 0.85831 0.19202 0.0
H7441 H 0.89012 0.8482 0.18783 0.0
H7442 H 0.87368 0.83602 0.19538 0.0
H7443 H 0.86798 0.84622 0.19936 0.0
C7444 C 0.88566 0.82452 0.1826 0.0
C7445 C 0.89274 0.82408 0.18295 0.0
C7446 C 0.88226 0.83 0.18549 0.0
C7447 C 0.88587 0.83514 0.18881 0.0
C7448 C 0.89291 0.83451 0.18943 0.0
C7449 C 0.8963 0.82906 0.18653 0.0
C7450 C 0.88209 0.8535 0.19272 0.0
C7451 C 0.87582 0.85309 0.196 0.0
C7452 C 0.88532 0.84768 0.1904 0.0
C7453 C 0.88237 0.84129 0.19132 0.0
C7454 C 0.87607 0.84087 0.19456 0.0
C7455 C 0.87284 0.8467 0.19689 0.0
H7456 H 0.56901 0.93727 0.86696 0.0
H7457 H 0.58661 0.92469 0.86413 0.0
H7458 H 0.56387 0.92847 0.87392 0.0
H7459 H 0.58143 0.91589 0.8709 0.0
H7460 H 0.57283 0.903 0.88749 0.0
H7461 H 0.57798 0.91283 0.88214 0.0
H7462 H 0.55906 0.91734 0.87227 0.0
H7463 H 0.55392 0.90756 0.87766 0.0
C7464 C 0.5718 0.93265 0.86785 0.0
C7465 C 0.57821 0.93168 0.86497 0.0
C7466 C 0.56884 0.92759 0.8718 0.0
C7467 C 0.57223 0.92146 0.87296 0.0
C7468 C 0.57871 0.92057 0.8702 0.0
C7469 C 0.58166 0.92562 0.86627 0.0
C7470 C 0.56977 0.90611 0.8842 0.0
C7471 C 0.56298 0.90448 0.88298 0.0
C7472 C 0.57272 0.91174 0.88112 0.0
C7473 C 0.56895 0.91586 0.87674 0.0
C7474 C 0.56209 0.91434 0.87569 0.0
C7475 C 0.55914 0.90872 0.87878 0.0
H7476 H 0.82012 0.81865 0.61661 0.0
H7477 H 0.83344 0.83524 0.61184 0.0
H7478 H 0.82884 0.81377 0.62386 0.0
H7479 H 0.84215 0.83032 0.61891 0.0
H7480 H 0.85485 0.82297 0.63618 0.0
H7481 H 0.84516 0.82793 0.63045 0.0
H7482 H 0.83976 0.80831 0.62261 0.0
H7483 H 0.84942 0.80336 0.62838 0.0
C7484 C 0.82489 0.82126 0.61712 0.0
C7485 C 0.82609 0.82733 0.61364 0.0
C7486 C 0.8299 0.81845 0.62125 0.0
C7487 C 0.8362 0.82165 0.62197 0.0
C7488 C 0.83733 0.82777 0.61856 0.0
C7489 C 0.83234 0.83057 0.61446 0.0
C7490 C 0.85158 0.81972 0.63325 0.0
C7491 C 0.85293 0.81278 0.63271 0.0
C7492 C 0.84603 0.82256 0.62996 0.0
C7493 C 0.84171 0.81853 0.62602 0.0
C7494 C 0.84293 0.81155 0.62566 0.0
C7495 C 0.84848 0.80871 0.62897 0.0
H7496 H 0.93912 0.07069 0.36661 0.0
H7497 H 0.92008 0.08133 0.36662 0.0
H7498 H 0.94428 0.08 0.37288 0.0
H7499 H 0.9252 0.09053 0.37291 0.0
H7500 H 0.93875 0.10908 0.37529 0.0
H7501 H 0.93351 0.09929 0.37009 0.0
H7502 H 0.94415 0.08619 0.38389 0.0
H7503 H 0.94937 0.09605 0.38919 0.0
C7504 C 0.93602 0.07497 0.36801 0.0
C7505 C 0.9292 0.07529 0.36606 0.0
C7506 C 0.93897 0.08028 0.37163 0.0
C7507 C 0.93516 0.08603 0.37332 0.0
C7508 C 0.9283 0.08623 0.37157 0.0
C7509 C 0.92535 0.08093 0.36799 0.0
C7510 C 0.9399 0.10413 0.3773 0.0
C7511 C 0.94444 0.10337 0.3827 0.0
C7512 C 0.9369 0.09851 0.3743 0.0
C7513 C 0.93838 0.09196 0.37661 0.0
C7514 C 0.94295 0.09117 0.38197 0.0
C7515 C 0.94594 0.09681 0.385 0.0
H7516 H 0.67367 0.17143 0.11285 0.0
H7517 H 0.68705 0.18807 0.11729 0.0
H7518 H 0.66489 0.17665 0.11962 0.0
H7519 H 0.67825 0.19325 0.12423 0.0
H7520 H 0.65765 0.20398 0.12794 0.0
H7521 H 0.66739 0.19875 0.12254 0.0
H7522 H 0.66171 0.17947 0.13103 0.0
H7523 H 0.65194 0.18471 0.1364 0.0
C7524 C 0.67477 0.17617 0.11534 0.0
C7525 C 0.68106 0.17934 0.1145 0.0
C7526 C 0.66974 0.17914 0.11927 0.0
C7527 C 0.67086 0.18537 0.12248 0.0
C7528 C 0.6772 0.18849 0.12176 0.0
C7529 C 0.68225 0.18551 0.11782 0.0
C7530 C 0.65854 0.19865 0.12875 0.0
C7531 C 0.65399 0.19475 0.13256 0.0
C7532 C 0.66414 0.19565 0.12566 0.0
C7533 C 0.66531 0.18868 0.12631 0.0
C7534 C 0.66088 0.18483 0.13032 0.0
C7535 C 0.65529 0.18783 0.1334 0.0
H7536 H 0.58618 0.08301 0.6445 0.0
H7537 H 0.56913 0.06995 0.64065 0.0
H7538 H 0.58105 0.09177 0.63765 0.0
H7539 H 0.56404 0.07873 0.63363 0.0
H7540 H 0.55373 0.09945 0.62957 0.0
H7541 H 0.55884 0.08975 0.63515 0.0
H7542 H 0.5781 0.09478 0.62623 0.0
H7543 H 0.573 0.10451 0.62069 0.0
C7544 C 0.58136 0.08197 0.64212 0.0
C7545 C 0.57806 0.07578 0.64315 0.0
C7546 C 0.57844 0.087 0.63815 0.0
C7547 C 0.57213 0.08596 0.63507 0.0
C7548 C 0.56887 0.07972 0.63599 0.0
C7549 C 0.5718 0.07467 0.63998 0.0
C7550 C 0.55903 0.09842 0.6287 0.0
C7551 C 0.56297 0.10278 0.62472 0.0
C7552 C 0.56196 0.09285 0.6319 0.0
C7553 C 0.56889 0.0915 0.63118 0.0
C7554 C 0.57278 0.09574 0.627 0.0
C7555 C 0.56985 0.10131 0.62382 0.0
H7556 H 0.68709 0.81893 0.39106 0.0
H7557 H 0.67482 0.83662 0.39459 0.0
H7558 H 0.67775 0.81373 0.38486 0.0
H7559 H 0.66559 0.83148 0.38836 0.0
H7560 H 0.64811 0.81699 0.38495 0.0
H7561 H 0.65783 0.82212 0.39041 0.0
H7562 H 0.67074 0.81477 0.37445 0.0
H7563 H 0.66096 0.80963 0.36892 0.0
C7564 C 0.68244 0.82173 0.39046 0.0
C7565 C 0.68169 0.82816 0.39337 0.0
C7566 C 0.6771 0.81877 0.38688 0.0
C7567 C 0.67091 0.82217 0.38618 0.0
C7568 C 0.67025 0.82868 0.38892 0.0
C7569 C 0.67557 0.83163 0.39246 0.0
C7570 C 0.653 0.81653 0.38255 0.0
C7571 C 0.65374 0.81296 0.37646 0.0
C7572 C 0.65858 0.81946 0.38569 0.0
C7573 C 0.66505 0.8189 0.38283 0.0
C7574 C 0.66583 0.81525 0.37679 0.0
C7575 C 0.66023 0.81231 0.37363 0.0
H7576 H 0.93863 0.93669 0.14187 0.0
H7577 H 0.91978 0.92572 0.14262 0.0
H7578 H 0.94376 0.92738 0.13558 0.0
H7579 H 0.92487 0.91651 0.13631 0.0
H7580 H 0.93863 0.89818 0.13361 0.0
H7581 H 0.93341 0.90793 0.13892 0.0
H7582 H 0.94337 0.92108 0.12466 0.0
H7583 H 0.94857 0.91126 0.11926 0.0
C7584 C 0.93556 0.93234 0.14063 0.0
C7585 C 0.92881 0.93192 0.1428 0.0
C7586 C 0.93849 0.92702 0.137 0.0
C7587 C 0.93474 0.92118 0.13551 0.0
C7588 C 0.92793 0.92088 0.13748 0.0
C7589 C 0.92501 0.92619 0.14108 0.0
C7590 C 0.93964 0.90313 0.13153 0.0
C7591 C 0.94398 0.90392 0.12597 0.0
C7592 C 0.93665 0.90873 0.13458 0.0
C7593 C 0.93794 0.91527 0.13218 0.0
C7594 C 0.94232 0.9161 0.12665 0.0
C7595 C 0.9453 0.91047 0.12357 0.0
H7596 H 0.83276 0.17143 0.8955 0.0
H7597 H 0.8201 0.18895 0.89262 0.0
H7598 H 0.84137 0.17643 0.88835 0.0
H7599 H 0.8287 0.19391 0.88528 0.0
H7600 H 0.8495 0.20373 0.88057 0.0
H7601 H 0.83986 0.19877 0.88638 0.0
H7602 H 0.84408 0.17955 0.87697 0.0
H7603 H 0.85378 0.18451 0.87121 0.0
C7604 C 0.83177 0.17632 0.89327 0.0
C7605 C 0.82575 0.17981 0.89466 0.0
C7606 C 0.8367 0.17917 0.88912 0.0
C7607 C 0.83573 0.18558 0.88623 0.0
C7608 C 0.82964 0.18901 0.88749 0.0
C7609 C 0.8247 0.18615 0.89167 0.0
C7610 C 0.8483 0.19847 0.87965 0.0
C7611 C 0.85243 0.1945 0.87546 0.0
C7612 C 0.84276 0.19563 0.88297 0.0
C7613 C 0.84121 0.18875 0.88218 0.0
C7614 C 0.84521 0.18484 0.8778 0.0
C7615 C 0.85076 0.18767 0.87449 0.0
H7616 H 0.86575 0.56853 0.93725 0.0
H7617 H 0.86301 0.58658 0.92532 0.0
H7618 H 0.87205 0.56339 0.92795 0.0
H7619 H 0.86934 0.5815 0.91612 0.0
H7620 H 0.87276 0.56717 0.89841 0.0
H7621 H 0.86725 0.57235 0.90808 0.0
H7622 H 0.88266 0.56431 0.92124 0.0
H7623 H 0.88824 0.55914 0.91151 0.0
C7624 C 0.86655 0.57142 0.93268 0.0
C7625 C 0.86383 0.57794 0.93202 0.0
C7626 C 0.87018 0.56849 0.92737 0.0
C7627 C 0.87114 0.57201 0.92128 0.0
C7628 C 0.86859 0.5786 0.9207 0.0
C7629 C 0.86499 0.58153 0.926 0.0
C7630 C 0.87504 0.56657 0.90335 0.0
C7631 C 0.88098 0.56279 0.90417 0.0
C7632 C 0.87187 0.56954 0.9089 0.0
C7633 C 0.87455 0.56878 0.91543 0.0
C7634 C 0.88045 0.56494 0.91628 0.0
C7635 C 0.88364 0.56198 0.91071 0.0
H7636 H 0.369 0.93736 0.07077 0.0
H7637 H 0.36638 0.92007 0.08382 0.0
H7638 H 0.37433 0.94352 0.08009 0.0
H7639 H 0.37172 0.92614 0.09301 0.0
H7640 H 0.37382 0.94123 0.10995 0.0
H7641 H 0.36875 0.93569 0.10024 0.0
H7642 H 0.38463 0.94345 0.08746 0.0
H7643 H 0.38975 0.94901 0.09724 0.0
C7644 C 0.3696 0.93486 0.0756 0.0
C7645 C 0.36723 0.92824 0.07656 0.0
C7646 C 0.37267 0.93837 0.08092 0.0
C7647 C 0.37338 0.93534 0.0873 0.0
C7648 C 0.37113 0.92867 0.08819 0.0
C7649 C 0.3681 0.92517 0.0829 0.0
C7650 C 0.37627 0.94172 0.10509 0.0
C7651 C 0.38224 0.94548 0.10439 0.0
C7652 C 0.37336 0.93855 0.09952 0.0
C7653 C 0.37633 0.93907 0.0931 0.0
C7654 C 0.3822 0.94299 0.09234 0.0
C7655 C 0.38513 0.94617 0.09794 0.0
H7656 H 0.83432 0.62755 0.8256 0.0
H7657 H 0.81882 0.61235 0.82345 0.0
H7658 H 0.82823 0.63243 0.83511 0.0
H7659 H 0.81268 0.6173 0.83294 0.0
H7660 H 0.80991 0.62205 0.85574 0.0
H7661 H 0.81478 0.61788 0.84523 0.0
H7662 H 0.81781 0.63838 0.83847 0.0
H7663 H 0.81306 0.64256 0.84907 0.0
C7664 C 0.82956 0.62531 0.82709 0.0
C7665 C 0.82708 0.61953 0.8238 0.0
C7666 C 0.82605 0.62813 0.83252 0.0
C7667 C 0.82 0.62522 0.8348 0.0
C7668 C 0.81738 0.6196 0.83135 0.0
C7669 C 0.82087 0.6168 0.82589 0.0
C7670 C 0.81163 0.62567 0.85202 0.0
C7671 C 0.81115 0.63264 0.85325 0.0
C7672 C 0.81434 0.62328 0.84596 0.0
C7673 C 0.81667 0.6278 0.84101 0.0
C7674 C 0.8161 0.63477 0.84221 0.0
C7675 C 0.81334 0.63717 0.84825 0.0
H7676 H 0.13996 0.06943 0.57009 0.0
H7677 H 0.14483 0.08653 0.58274 0.0
H7678 H 0.13362 0.06439 0.57943 0.0
H7679 H 0.13846 0.08156 0.59196 0.0
H7680 H 0.13442 0.06681 0.60913 0.0
H7681 H 0.14001 0.07189 0.59946 0.0
H7682 H 0.12342 0.06591 0.58665 0.0
H7683 H 0.11776 0.06082 0.59639 0.0
C7684 C 0.13963 0.07214 0.57483 0.0
C7685 C 0.14295 0.07836 0.57568 0.0
C7686 C 0.13597 0.06927 0.58016 0.0
C7687 C 0.13559 0.07255 0.58645 0.0
C7688 C 0.13876 0.07885 0.58722 0.0
C7689 C 0.14238 0.08172 0.58191 0.0
C7690 C 0.13191 0.06665 0.60428 0.0
C7691 C 0.12561 0.06346 0.60355 0.0
C7692 C 0.13512 0.06955 0.59873 0.0
C7693 C 0.13214 0.06935 0.59229 0.0
C7694 C 0.12587 0.0661 0.59153 0.0
C7695 C 0.12264 0.06319 0.59711 0.0
H7696 H 0.17171 0.89382 0.83489 0.0
H7697 H 0.18637 0.88692 0.82027 0.0
H7698 H 0.17734 0.88737 0.84364 0.0
H7699 H 0.19202 0.88037 0.82912 0.0
H7700 H 0.2039 0.87684 0.8495 0.0
H7701 H 0.1986 0.88233 0.83981 0.0
H7702 H 0.17908 0.87541 0.84661 0.0
H7703 H 0.18436 0.86989 0.85624 0.0
C7704 C 0.17613 0.89091 0.83353 0.0
C7705 C 0.17857 0.89087 0.82687 0.0
C7706 C 0.17934 0.88717 0.83855 0.0
C7707 C 0.18508 0.8833 0.83706 0.0
C7708 C 0.1876 0.88331 0.83042 0.0
C7709 C 0.18436 0.88704 0.82535 0.0
C7710 C 0.1985 0.87638 0.84886 0.0
C7711 C 0.19454 0.87299 0.85369 0.0
C7712 C 0.19546 0.87953 0.84331 0.0
C7713 C 0.18842 0.87937 0.8425 0.0
C7714 C 0.18451 0.87574 0.84717 0.0
C7715 C 0.18753 0.87259 0.8527 0.0
H7716 H 0.63859 0.43742 0.43638 0.0
H7717 H 0.64132 0.41976 0.42384 0.0
H7718 H 0.63294 0.44315 0.42698 0.0
H7719 H 0.63565 0.42542 0.41458 0.0
H7720 H 0.6331 0.44008 0.39725 0.0
H7721 H 0.63833 0.43481 0.40701 0.0
H7722 H 0.62251 0.44263 0.41981 0.0
H7723 H 0.6172 0.44791 0.40997 0.0
C7724 C 0.63795 0.43475 0.43165 0.0
C7725 C 0.64045 0.42815 0.43085 0.0
C7726 C 0.63469 0.43802 0.42629 0.0
C7727 C 0.63391 0.43475 0.42002 0.0
C7728 C 0.63628 0.42812 0.4193 0.0
C7729 C 0.6395 0.42486 0.42463 0.0
C7730 C 0.63068 0.44063 0.40212 0.0
C7731 C 0.62468 0.44434 0.40281 0.0
C7732 C 0.63369 0.43762 0.40773 0.0
C7733 C 0.6308 0.43825 0.41417 0.0
C7734 C 0.62488 0.44209 0.41491 0.0
C7735 C 0.62184 0.44511 0.40928 0.0
H7736 H 0.83554 0.39386 0.67249 0.0
H7737 H 0.819 0.38995 0.68618 0.0
H7738 H 0.82997 0.38724 0.66381 0.0
H7739 H 0.81346 0.38315 0.67748 0.0
H7740 H 0.80231 0.37949 0.65709 0.0
H7741 H 0.80784 0.38489 0.66667 0.0
H7742 H 0.82681 0.37588 0.66078 0.0
H7743 H 0.82128 0.37052 0.65118 0.0
C7744 C 0.83074 0.39152 0.67368 0.0
C7745 C 0.82771 0.39246 0.68003 0.0
C7746 C 0.82756 0.38768 0.6687 0.0
C7747 C 0.82127 0.38464 0.66994 0.0
C7748 C 0.81828 0.38548 0.67634 0.0
C7749 C 0.82147 0.38934 0.68133 0.0
C7750 C 0.80764 0.37857 0.6579 0.0
C7751 C 0.81137 0.37461 0.65334 0.0
C7752 C 0.81081 0.38167 0.6634 0.0
C7753 C 0.81778 0.38086 0.66447 0.0
C7754 C 0.82146 0.37671 0.66003 0.0
C7755 C 0.81829 0.37363 0.65453 0.0
H7756 H 0.67043 0.61487 0.17443 0.0
H7757 H 0.68816 0.61687 0.18698 0.0
H7758 H 0.67577 0.62167 0.16575 0.0
H7759 H 0.69347 0.62386 0.1783 0.0
H7760 H 0.70344 0.62769 0.15737 0.0
H7761 H 0.6982 0.62233 0.16713 0.0
H7762 H 0.67955 0.6328 0.16285 0.0
H7763 H 0.68479 0.63809 0.15304 0.0
C7764 C 0.67544 0.61684 0.17538 0.0
C7765 C 0.67888 0.61529 0.18139 0.0
C7766 C 0.67849 0.62079 0.1704 0.0
C7767 C 0.68506 0.62332 0.17131 0.0
C7768 C 0.68844 0.62192 0.1774 0.0
C7769 C 0.68538 0.61795 0.18239 0.0
C7770 C 0.69826 0.62894 0.15859 0.0
C7771 C 0.69452 0.63328 0.15441 0.0
C7772 C 0.69525 0.62587 0.16419 0.0
C7773 C 0.68844 0.6271 0.16576 0.0
C7774 C 0.68477 0.63164 0.16172 0.0
C7775 C 0.68777 0.63468 0.1561 0.0
H7776 H 0.58875 0.64664 0.92246 0.0
H7777 H 0.57404 0.63738 0.93566 0.0
H7778 H 0.5977 0.64024 0.92798 0.0
H7779 H 0.58299 0.63094 0.94111 0.0
H7780 H 0.60199 0.62797 0.95445 0.0
H7781 H 0.59265 0.63338 0.94858 0.0
H7782 H 0.60186 0.62855 0.92941 0.0
H7783 H 0.61119 0.62305 0.93528 0.0
C7784 C 0.58742 0.64321 0.9265 0.0
C7785 C 0.58068 0.64254 0.92864 0.0
C7786 C 0.59254 0.63951 0.92964 0.0
C7787 C 0.59105 0.63509 0.93499 0.0
C7788 C 0.58431 0.63436 0.93706 0.0
C7789 C 0.57918 0.63803 0.93391 0.0
C7790 C 0.60197 0.62794 0.94899 0.0
C7791 C 0.60736 0.62509 0.94534 0.0
C7792 C 0.59662 0.63106 0.94562 0.0
C7793 C 0.59654 0.63143 0.93853 0.0
C7794 C 0.60184 0.62845 0.93488 0.0
C7795 C 0.60718 0.6253 0.93825 0.0
H7796 H 0.60566 0.3325 0.18616 0.0
H7797 H 0.62147 0.33115 0.17117 0.0
H7798 H 0.61191 0.34134 0.19197 0.0
H7799 H 0.62773 0.34005 0.17703 0.0
H7800 H 0.6395 0.35158 0.19392 0.0
H7801 H 0.6337 0.34221 0.18826 0.0
H7802 H 0.61495 0.35328 0.18924 0.0
H7803 H 0.6207 0.36256 0.19491 0.0
C7804 C 0.61047 0.33408 0.18411 0.0
C7805 C 0.61304 0.33115 0.17818 0.0
C7806 C 0.61404 0.33916 0.18743 0.0
C7807 C 0.62029 0.3414 0.18493 0.0
C7808 C 0.62294 0.33838 0.17908 0.0
C7809 C 0.61934 0.33333 0.17572 0.0
C7810 C 0.63414 0.35197 0.19294 0.0
C7811 C 0.63056 0.3578 0.19482 0.0
C7812 C 0.63084 0.34665 0.18967 0.0
C7813 C 0.62388 0.34702 0.18832 0.0
C7814 C 0.62031 0.35283 0.19026 0.0
C7815 C 0.62361 0.35816 0.19345 0.0
H7816 H 0.92831 0.37245 0.42293 0.0
H7817 H 0.91889 0.35365 0.42874 0.0
H7818 H 0.92028 0.37862 0.42999 0.0
H7819 H 0.91083 0.3598 0.43565 0.0
H7820 H 0.90215 0.37151 0.45298 0.0
H7821 H 0.91082 0.36616 0.4461 0.0
H7822 H 0.90825 0.38155 0.43085 0.0
H7823 H 0.89958 0.38694 0.43781 0.0
C7824 C 0.9245 0.36964 0.42567 0.0
C7825 C 0.92426 0.36255 0.4253 0.0
C7826 C 0.91989 0.37318 0.42969 0.0
C7827 C 0.91496 0.3697 0.43344 0.0
C7828 C 0.91466 0.36263 0.43295 0.0
C7829 C 0.91925 0.3591 0.42894 0.0
C7830 C 0.90345 0.37376 0.44817 0.0
C7831 C 0.90013 0.3796 0.4459 0.0
C7832 C 0.9084 0.37069 0.44422 0.0
C7833 C 0.91014 0.37336 0.43787 0.0
C7834 C 0.90704 0.37938 0.43573 0.0
C7835 C 0.90209 0.38247 0.43971 0.0
H7836 H 0.88554 0.67652 0.6732 0.0
H7837 H 0.90421 0.66682 0.67895 0.0
H7838 H 0.87928 0.66874 0.68043 0.0
H7839 H 0.89796 0.65897 0.68602 0.0
H7840 H 0.88611 0.65079 0.7036 0.0
H7841 H 0.89176 0.65906 0.69647 0.0
H7842 H 0.87599 0.65697 0.68155 0.0
H7843 H 0.87028 0.64874 0.68876 0.0
C7844 C 0.8883 0.67269 0.67595 0.0
C7845 C 0.89538 0.67231 0.67552 0.0
C7846 C 0.88471 0.66822 0.68008 0.0
C7847 C 0.88812 0.66327 0.68385 0.0
C7848 C 0.89518 0.66281 0.6833 0.0
C7849 C 0.89877 0.66729 0.67919 0.0
C7850 C 0.88384 0.65211 0.6988 0.0
C7851 C 0.87778 0.64908 0.69671 0.0
C7852 C 0.88709 0.65683 0.6947 0.0
C7853 C 0.88438 0.65861 0.68839 0.0
C7854 C 0.87819 0.65575 0.6864 0.0
C7855 C 0.87492 0.65104 0.69053 0.0
H7856 H 0.57432 0.36948 0.57165 0.0
H7857 H 0.58912 0.36131 0.58544 0.0
H7858 H 0.58308 0.37616 0.56619 0.0
H7859 H 0.5979 0.36795 0.57991 0.0
H7860 H 0.61079 0.38548 0.57233 0.0
H7861 H 0.60158 0.37976 0.57819 0.0
H7862 H 0.593 0.37396 0.559 0.0
H7863 H 0.60222 0.3796 0.55315 0.0
C7864 C 0.57944 0.36911 0.57353 0.0
C7865 C 0.58102 0.36484 0.57897 0.0
C7866 C 0.58446 0.37293 0.57038 0.0
C7867 C 0.59119 0.37257 0.57261 0.0
C7868 C 0.59275 0.36839 0.57812 0.0
C7869 C 0.58773 0.36455 0.58126 0.0
C7870 C 0.60694 0.38298 0.56936 0.0
C7871 C 0.60726 0.38298 0.56226 0.0
C7872 C 0.60167 0.3797 0.57272 0.0
C7873 C 0.59658 0.37638 0.56906 0.0
C7874 C 0.5968 0.37654 0.56197 0.0
C7875 C 0.60208 0.37979 0.55861 0.0
H7876 H 0.88565 0.32884 0.83278 0.0
H7877 H 0.90385 0.34041 0.82949 0.0
H7878 H 0.87936 0.33673 0.82569 0.0
H7879 H 0.89756 0.34835 0.82256 0.0
H7880 H 0.8867 0.35713 0.80475 0.0
H7881 H 0.89229 0.34861 0.81161 0.0
H7882 H 0.87521 0.34832 0.8252 0.0
H7883 H 0.86956 0.3568 0.81822 0.0
C7884 C 0.88829 0.3331 0.8306 0.0
C7885 C 0.89526 0.33398 0.83167 0.0
C7886 C 0.88469 0.33763 0.82655 0.0
C7887 C 0.88797 0.34313 0.8235 0.0
C7888 C 0.8949 0.34408 0.82471 0.0
C7889 C 0.8985 0.33956 0.82873 0.0
C7890 C 0.88413 0.35522 0.80919 0.0
C7891 C 0.87773 0.35767 0.811 0.0
C7892 C 0.88734 0.35036 0.81314 0.0
C7893 C 0.88425 0.34787 0.81902 0.0
C7894 C 0.87772 0.35011 0.82068 0.0
C7895 C 0.87448 0.35496 0.81669 0.0
H7896 H 0.92864 0.63559 0.08251 0.0
H7897 H 0.91649 0.65359 0.08047 0.0
H7898 H 0.92056 0.62936 0.07558 0.0
H7899 H 0.90837 0.64735 0.07371 0.0
H7900 H 0.89914 0.63694 0.05582 0.0
H7901 H 0.90776 0.64251 0.06258 0.0
H7902 H 0.90907 0.62492 0.07542 0.0
H7903 H 0.90049 0.61929 0.06853 0.0
C7904 C 0.92421 0.6382 0.08064 0.0
C7905 C 0.92323 0.6451 0.082 0.0
C7906 C 0.91958 0.63462 0.07669 0.0
C7907 C 0.91386 0.63787 0.07402 0.0
C7908 C 0.9128 0.64472 0.07555 0.0
C7909 C 0.91743 0.64829 0.07947 0.0
C7910 C 0.9013 0.63426 0.06007 0.0
C7911 C 0.8991 0.62772 0.0617 0.0
C7912 C 0.90621 0.63745 0.06396 0.0
C7913 C 0.90902 0.63421 0.06961 0.0
C7914 C 0.90702 0.62755 0.07108 0.0
C7915 C 0.90212 0.62433 0.06715 0.0
H7916 H 0.619 0.68004 0.32929 0.0
H7917 H 0.60578 0.66396 0.33584 0.0
H7918 H 0.62593 0.67186 0.3232 0.0
H7919 H 0.61268 0.65582 0.32973 0.0
H7920 H 0.63001 0.64227 0.32355 0.0
H7921 H 0.62423 0.65086 0.33018 0.0
H7922 H 0.62459 0.66434 0.31306 0.0
H7923 H 0.63027 0.65569 0.30635 0.0
C7924 C 0.61758 0.67477 0.32946 0.0
C7925 C 0.61183 0.67265 0.33305 0.0
C7926 C 0.62154 0.67009 0.32594 0.0
C7927 C 0.61985 0.66321 0.32599 0.0
C7928 C 0.61415 0.66109 0.32966 0.0
C7929 C 0.61018 0.66576 0.33314 0.0
C7930 C 0.62885 0.64706 0.32118 0.0
C7931 C 0.63052 0.64825 0.31438 0.0
C7932 C 0.62555 0.65198 0.32499 0.0
C7933 C 0.62389 0.65824 0.32211 0.0
C7934 C 0.62584 0.65957 0.31542 0.0
C7935 C 0.62911 0.65462 0.31158 0.0
H7936 H 0.93766 0.58209 0.65231 0.0
H7937 H 0.93214 0.5725 0.63351 0.0
H7938 H 0.94255 0.59148 0.6461 0.0
H7939 H 0.93697 0.582 0.62727 0.0
H7940 H 0.95199 0.59796 0.61879 0.0
H7941 H 0.94762 0.58796 0.62457 0.0
H7942 H 0.93809 0.60076 0.63944 0.0
H7943 H 0.94264 0.61068 0.63385 0.0
C7944 C 0.93752 0.58197 0.64684 0.0
C7945 C 0.93447 0.57657 0.6434 0.0
C7946 C 0.94028 0.58738 0.64328 0.0
C7947 C 0.94006 0.58754 0.63619 0.0
C7948 C 0.93724 0.58202 0.63273 0.0
C7949 C 0.93447 0.57658 0.6363 0.0
C7950 C 0.94898 0.59863 0.62331 0.0
C7951 C 0.94768 0.60513 0.62586 0.0
C7952 C 0.94643 0.59291 0.62658 0.0
C7953 C 0.94256 0.59357 0.6325 0.0
C7954 C 0.94115 0.60007 0.63496 0.0
C7955 C 0.94368 0.60577 0.63169 0.0
H7956 H 0.67399 0.66967 0.88635 0.0
H7957 H 0.67472 0.68707 0.89948 0.0
H7958 H 0.66577 0.6754 0.8792 0.0
H7959 H 0.66635 0.6927 0.8925 0.0
H7960 H 0.65536 0.70365 0.87609 0.0
H7961 H 0.66458 0.69791 0.88182 0.0
H7962 H 0.65426 0.67886 0.87932 0.0
H7963 H 0.64525 0.68454 0.87323 0.0
C7964 C 0.67237 0.6747 0.88773 0.0
C7965 C 0.675 0.6779 0.89349 0.0
C7966 C 0.66764 0.67798 0.88365 0.0
C7967 C 0.66539 0.68452 0.88526 0.0
C7968 C 0.66805 0.68772 0.89102 0.0
C7969 C 0.67281 0.68446 0.89506 0.0
C7970 C 0.65513 0.69822 0.87661 0.0
C7971 C 0.64952 0.69457 0.87423 0.0
C7972 C 0.66037 0.69494 0.88 0.0
C7973 C 0.66013 0.68793 0.88112 0.0
C7974 C 0.65465 0.68425 0.87852 0.0
C7975 C 0.64943 0.68752 0.87509 0.0
H7976 H 0.57211 0.42212 0.15383 0.0
H7977 H 0.5859 0.42519 0.13718 0.0
H7978 H 0.5662 0.41351 0.14734 0.0
H7979 H 0.57995 0.41653 0.13069 0.0
H7980 H 0.56261 0.40546 0.11917 0.0
H7981 H 0.56841 0.41451 0.12534 0.0
H7982 H 0.56902 0.40194 0.14314 0.0
H7983 H 0.5632 0.39299 0.13704 0.0
C7984 C 0.57389 0.42096 0.14878 0.0
C7985 C 0.5795 0.42432 0.14603 0.0
C7986 C 0.57051 0.41602 0.14508 0.0
C7987 C 0.57263 0.41434 0.13852 0.0
C7988 C 0.57818 0.41776 0.13572 0.0
C7989 C 0.58161 0.42267 0.13945 0.0
C7990 C 0.56397 0.40467 0.12441 0.0
C7991 C 0.56249 0.39852 0.12762 0.0
C7992 C 0.56732 0.40981 0.12791 0.0
C7993 C 0.56915 0.40892 0.13472 0.0
C7994 C 0.56762 0.40279 0.13792 0.0
C7995 C 0.56434 0.39764 0.13441 0.0
H7996 H 0.83411 0.32217 0.40391 0.0
H7997 H 0.83108 0.3358 0.38714 0.0
H7998 H 0.84286 0.31632 0.39756 0.0
H7999 H 0.83989 0.32992 0.38079 0.0
H8000 H 0.8513 0.31262 0.36952 0.0
H8001 H 0.84213 0.3184 0.37552 0.0
H8002 H 0.85443 0.3192 0.3935 0.0
H8003 H 0.8635 0.31338 0.38757 0.0
C8004 C 0.83531 0.32393 0.39887 0.0
C8005 C 0.83192 0.32948 0.39605 0.0
C8006 C 0.84034 0.32058 0.39524 0.0
C8007 C 0.84206 0.32268 0.38869 0.0
C8008 C 0.83862 0.32816 0.38581 0.0
C8009 C 0.83362 0.33156 0.38947 0.0
C8010 C 0.85201 0.31401 0.37476 0.0
C8011 C 0.85811 0.31258 0.37807 0.0
C8012 C 0.8468 0.31736 0.37817 0.0
C8013 C 0.84758 0.31923 0.38498 0.0
C8014 C 0.85367 0.31776 0.38828 0.0
C8015 C 0.85888 0.31449 0.38486 0.0
H8016 H 0.93722 0.42548 0.85762 0.0
H8017 H 0.91949 0.42432 0.87028 0.0
H8018 H 0.94278 0.41708 0.86461 0.0
H8019 H 0.92515 0.41606 0.87744 0.0
H8020 H 0.93434 0.39546 0.88316 0.0
H8021 H 0.92871 0.40459 0.8772 0.0
H8022 H 0.94775 0.41509 0.87535 0.0
H8023 H 0.95344 0.40575 0.88092 0.0
C8024 C 0.93453 0.42348 0.86194 0.0
C8025 C 0.9279 0.42554 0.86337 0.0
C8026 C 0.93774 0.41869 0.86599 0.0
C8027 C 0.93443 0.41589 0.87162 0.0
C8028 C 0.92782 0.41803 0.8731 0.0
C8029 C 0.92458 0.42279 0.86901 0.0
C8030 C 0.93733 0.39971 0.88146 0.0
C8031 C 0.94436 0.39981 0.88244 0.0
C8032 C 0.93409 0.405 0.87812 0.0
C8033 C 0.93778 0.41057 0.87573 0.0
C8034 C 0.94476 0.41082 0.877 0.0
C8035 C 0.94802 0.4055 0.8803 0.0
H8036 H 0.83287 0.6692 0.12047 0.0
H8037 H 0.83255 0.68632 0.10695 0.0
H8038 H 0.84124 0.67491 0.12748 0.0
H8039 H 0.84103 0.69192 0.11381 0.0
H8040 H 0.85187 0.70311 0.13015 0.0
H8041 H 0.84265 0.69731 0.12448 0.0
H8042 H 0.85289 0.67826 0.12728 0.0
H8043 H 0.86193 0.68401 0.1333 0.0
C8044 C 0.83461 0.67417 0.11897 0.0
C8045 C 0.83204 0.67731 0.11315 0.0
C8046 C 0.83942 0.67743 0.12298 0.0
C8047 C 0.8418 0.68389 0.12123 0.0
C8048 C 0.83922 0.68701 0.11539 0.0
C8049 C 0.8344 0.68377 0.11142 0.0
C8050 C 0.85209 0.69766 0.1297 0.0
C8051 C 0.85767 0.69404 0.13215 0.0
C8052 C 0.84684 0.69435 0.12636 0.0
C8053 C 0.84706 0.68732 0.12534 0.0
C8054 C 0.85253 0.68366 0.128 0.0
C8055 C 0.85776 0.68698 0.13138 0.0
H8056 H 0.57135 0.5842 0.35457 0.0
H8057 H 0.58571 0.5815 0.37077 0.0
H8058 H 0.5657 0.59299 0.36105 0.0
H8059 H 0.58002 0.59034 0.37726 0.0
H8060 H 0.56315 0.60185 0.38907 0.0
H8061 H 0.56866 0.59259 0.38297 0.0
H8062 H 0.56878 0.60466 0.36481 0.0
H8063 H 0.56325 0.61383 0.37086 0.0
C8064 C 0.5733 0.58547 0.35952 0.0
C8065 C 0.579 0.58218 0.36214 0.0
C8066 C 0.57007 0.59052 0.36322 0.0
C8067 C 0.57244 0.59236 0.36965 0.0
C8068 C 0.57807 0.58899 0.37233 0.0
C8069 C 0.58135 0.58397 0.3686 0.0
C8070 C 0.56434 0.60249 0.38378 0.0
C8071 C 0.5628 0.60856 0.38045 0.0
C8072 C 0.56753 0.59722 0.3803 0.0
C8073 C 0.56914 0.59791 0.37342 0.0
C8074 C 0.56755 0.60397 0.3701 0.0
C8075 C 0.56444 0.60924 0.37358 0.0
H8076 H 0.67561 0.31938 0.60575 0.0
H8077 H 0.68478 0.32635 0.62428 0.0
H8078 H 0.66622 0.31473 0.61212 0.0
H8079 H 0.67526 0.32177 0.63068 0.0
H8080 H 0.65966 0.30674 0.63986 0.0
H8081 H 0.66958 0.31115 0.63398 0.0
H8082 H 0.6567 0.31924 0.61836 0.0
H8083 H 0.64686 0.31464 0.62406 0.0
C8084 C 0.67564 0.31991 0.61119 0.0
C8085 C 0.68093 0.32328 0.6145 0.0
C8086 C 0.67022 0.31728 0.61484 0.0
C8087 C 0.66994 0.31796 0.6219 0.0
C8088 C 0.67534 0.32114 0.62525 0.0
C8089 C 0.68078 0.32378 0.62158 0.0
C8090 C 0.65895 0.30945 0.63516 0.0
C8091 C 0.65246 0.31032 0.63243 0.0
C8092 C 0.66463 0.31202 0.63183 0.0
C8093 C 0.66394 0.31549 0.62567 0.0
C8094 C 0.65743 0.31649 0.62304 0.0
C8095 C 0.65177 0.31394 0.62636 0.0
H8096 H 0.63535 0.92036 0.58177 0.0
H8097 H 0.65006 0.93645 0.58258 0.0
H8098 H 0.62853 0.92619 0.59022 0.0
H8099 H 0.64336 0.94216 0.59112 0.0
H8100 H 0.62743 0.95401 0.60196 0.0
H8101 H 0.63299 0.94822 0.59266 0.0
H8102 H 0.62872 0.92901 0.60208 0.0
H8103 H 0.62286 0.93479 0.61121 0.0
C8104 C 0.63714 0.92513 0.58377 0.0
C8105 C 0.64325 0.92794 0.5815 0.0
C8106 C 0.63324 0.92846 0.58863 0.0
C8107 C 0.63538 0.93466 0.59134 0.0
C8108 C 0.64149 0.93746 0.58906 0.0
C8109 C 0.64537 0.93415 0.58419 0.0
C8110 C 0.62754 0.94855 0.60198 0.0
C8111 C 0.62472 0.94487 0.60736 0.0
C8112 C 0.63081 0.94523 0.59669 0.0
C8113 C 0.63138 0.93815 0.59666 0.0
C8114 C 0.62836 0.93446 0.60192 0.0
C8115 C 0.62506 0.93778 0.6072 0.0
H8116 H 0.14998 0.56925 0.42503 0.0
H8117 H 0.1372 0.58691 0.42451 0.0
H8118 H 0.14302 0.56394 0.41644 0.0
H8119 H 0.1301 0.5815 0.41602 0.0
H8120 H 0.1242 0.57263 0.39524 0.0
H8121 H 0.13035 0.57813 0.40435 0.0
H8122 H 0.13214 0.55901 0.41469 0.0
H8123 H 0.12632 0.55345 0.40542 0.0
C8124 C 0.14566 0.57199 0.42311 0.0
C8125 C 0.14416 0.57851 0.42544 0.0
C8126 C 0.14163 0.56891 0.41822 0.0
C8127 C 0.13597 0.57227 0.41556 0.0
C8128 C 0.13445 0.5788 0.41791 0.0
C8129 C 0.13851 0.58189 0.42279 0.0
C8130 C 0.12592 0.56959 0.39945 0.0
C8131 C 0.12482 0.56258 0.39955 0.0
C8132 C 0.12938 0.57277 0.40472 0.0
C8133 C 0.1318 0.56901 0.41023 0.0
C8134 C 0.13045 0.56204 0.41046 0.0
C8135 C 0.12702 0.55887 0.40519 0.0
H8136 H 0.68586 0.9009 0.67395 0.0
H8137 H 0.66976 0.88621 0.67464 0.0
H8138 H 0.69176 0.89407 0.66563 0.0
H8139 H 0.67577 0.87925 0.66645 0.0
H8140 H 0.68475 0.87301 0.6459 0.0
H8141 H 0.67881 0.87913 0.65474 0.0
H8142 H 0.69786 0.88374 0.66432 0.0
H8143 H 0.70381 0.87794 0.65527 0.0
C8144 C 0.6836 0.89619 0.67236 0.0
C8145 C 0.67733 0.89411 0.67495 0.0
C8146 C 0.68701 0.89224 0.66762 0.0
C8147 C 0.68426 0.88609 0.66539 0.0
C8148 C 0.678 0.884 0.668 0.0
C8149 C 0.67456 0.88798 0.67271 0.0
C8150 C 0.68767 0.87535 0.64988 0.0
C8151 C 0.69477 0.87504 0.64982 0.0
C8152 C 0.68426 0.87879 0.655 0.0
C8153 C 0.68786 0.88198 0.66022 0.0
C8154 C 0.69494 0.88145 0.66031 0.0
C8155 C 0.69835 0.87803 0.65517 0.0
H8156 H 0.3688 0.42746 0.93031 0.0
H8157 H 0.35528 0.42097 0.91447 0.0
H8158 H 0.37562 0.43349 0.922 0.0
H8159 H 0.36207 0.42703 0.9062 0.0
H8160 H 0.37928 0.43318 0.89237 0.0
H8161 H 0.37352 0.42657 0.90099 0.0
H8162 H 0.37419 0.44363 0.91455 0.0
H8163 H 0.37983 0.45032 0.90587 0.0
C8164 C 0.3673 0.4273 0.92506 0.0
C8165 C 0.36149 0.42374 0.92305 0.0
C8166 C 0.37119 0.43078 0.92031 0.0
C8167 C 0.36938 0.43073 0.91345 0.0
C8168 C 0.36364 0.42709 0.91144 0.0
C8169 C 0.35972 0.42365 0.91618 0.0
C8170 C 0.37818 0.43554 0.89718 0.0
C8171 C 0.37994 0.44231 0.89839 0.0
C8172 C 0.3749 0.43175 0.90212 0.0
C8173 C 0.37335 0.4346 0.90842 0.0
C8174 C 0.37536 0.44128 0.90975 0.0
C8175 C 0.37861 0.4451 0.90478 0.0
H8176 H 0.31946 0.60771 0.67548 0.0
H8177 H 0.33761 0.61957 0.67309 0.0
H8178 H 0.31385 0.61456 0.667 0.0
H8179 H 0.33191 0.6266 0.66475 0.0
H8180 H 0.32214 0.63199 0.64438 0.0
H8181 H 0.32787 0.62606 0.65346 0.0
H8182 H 0.30924 0.62543 0.66481 0.0
H8183 H 0.30341 0.63098 0.65554 0.0
C8184 C 0.32224 0.61182 0.67318 0.0
C8185 C 0.32899 0.61307 0.67493 0.0
C8186 C 0.31899 0.6158 0.66835 0.0
C8187 C 0.32241 0.62116 0.66519 0.0
C8188 C 0.32915 0.62246 0.66701 0.0
C8189 C 0.33241 0.61844 0.6718 0.0
C8190 C 0.31925 0.63056 0.6488 0.0
C8191 C 0.31228 0.63188 0.64918 0.0
C8192 C 0.32256 0.62724 0.65406 0.0
C8193 C 0.31901 0.62521 0.65986 0.0
C8194 C 0.31211 0.62681 0.66037 0.0
C8195 C 0.30878 0.63008 0.65508 0.0
H8196 H 0.86994 0.08759 0.08339 0.0
H8197 H 0.85804 0.06937 0.08181 0.0
H8198 H 0.87712 0.08215 0.09179 0.0
H8199 H 0.86506 0.06403 0.09033 0.0
H8200 H 0.88175 0.05389 0.10161 0.0
H8201 H 0.87599 0.05949 0.09234 0.0
H8202 H 0.87686 0.07838 0.10322 0.0
H8203 H 0.883 0.07286 0.1123 0.0
C8204 C 0.86884 0.08244 0.08486 0.0
C8205 C 0.86341 0.07892 0.08193 0.0
C8206 C 0.87294 0.07933 0.08969 0.0
C8207 C 0.87169 0.07264 0.09173 0.0
C8208 C 0.86626 0.06913 0.08879 0.0
C8209 C 0.86219 0.07222 0.08394 0.0
C8210 C 0.88087 0.05927 0.10197 0.0
C8211 C 0.88281 0.0629 0.10775 0.0
C8212 C 0.87746 0.06247 0.09668 0.0
C8213 C 0.87586 0.06938 0.09706 0.0
C8214 C 0.87803 0.07307 0.10273 0.0
C8215 C 0.88148 0.06988 0.10799 0.0
H8216 H 0.68464 0.10466 0.83278 0.0
H8217 H 0.6706 0.12122 0.83067 0.0
H8218 H 0.69049 0.11075 0.8417 0.0
H8219 H 0.67648 0.12731 0.83967 0.0
H8220 H 0.69367 0.13846 0.85134 0.0
H8221 H 0.68784 0.13276 0.84203 0.0
H8222 H 0.68778 0.1142 0.85347 0.0
H8223 H 0.69365 0.11984 0.86269 0.0
C8224 C 0.6828 0.1096 0.83421 0.0
C8225 C 0.67713 0.11244 0.83104 0.0
C8226 C 0.68614 0.11308 0.83935 0.0
C8227 C 0.68392 0.11949 0.8414 0.0
C8228 C 0.67832 0.1224 0.83816 0.0
C8229 C 0.67494 0.11889 0.83304 0.0
C8230 C 0.69242 0.13316 0.85184 0.0
C8231 C 0.69409 0.1296 0.85774 0.0
C8232 C 0.68904 0.12991 0.84654 0.0
C8233 C 0.68737 0.12303 0.84703 0.0
C8234 C 0.68906 0.11949 0.85293 0.0
C8235 C 0.69236 0.12274 0.85823 0.0
H8236 H 0.82196 0.90157 0.33311 0.0
H8237 H 0.8364 0.8853 0.33142 0.0
H8238 H 0.81608 0.89545 0.34199 0.0
H8239 H 0.83048 0.87917 0.34038 0.0
H8240 H 0.81341 0.86782 0.35202 0.0
H8241 H 0.81916 0.87353 0.34265 0.0
H8242 H 0.81876 0.89222 0.35386 0.0
H8243 H 0.81298 0.88658 0.36313 0.0
C8244 C 0.82388 0.89669 0.33463 0.0
C8245 C 0.82967 0.89394 0.33158 0.0
C8246 C 0.82052 0.89319 0.33974 0.0
C8247 C 0.82284 0.88685 0.3419 0.0
C8248 C 0.82856 0.88403 0.33878 0.0
C8249 C 0.83196 0.88756 0.33369 0.0
C8250 C 0.81453 0.87315 0.35245 0.0
C8251 C 0.81277 0.87675 0.35831 0.0
C8252 C 0.81787 0.8764 0.34712 0.0
C8253 C 0.8194 0.88332 0.34753 0.0
C8254 C 0.81759 0.8869 0.35338 0.0
C8255 C 0.81434 0.88366 0.35871 0.0
H8256 H 0.43684 0.36576 0.06939 0.0
H8257 H 0.4254 0.36353 0.08784 0.0
H8258 H 0.42752 0.37215 0.06441 0.0
H8259 H 0.41617 0.36995 0.08291 0.0
H8260 H 0.39816 0.3733 0.06888 0.0
H8261 H 0.40786 0.3678 0.07398 0.0
H8262 H 0.42102 0.3829 0.06538 0.0
H8263 H 0.41126 0.38849 0.0603 0.0
C8264 C 0.43238 0.36669 0.0724 0.0
C8265 C 0.43184 0.36409 0.07899 0.0
C8266 C 0.42705 0.37037 0.06957 0.0
C8267 C 0.42109 0.37149 0.07325 0.0
C8268 C 0.42065 0.36907 0.0799 0.0
C8269 C 0.42597 0.36541 0.08273 0.0
C8270 C 0.4031 0.37552 0.06815 0.0
C8271 C 0.40391 0.38137 0.06422 0.0
C8272 C 0.40867 0.37235 0.07107 0.0
C8273 C 0.41521 0.37494 0.07012 0.0
C8274 C 0.41605 0.38076 0.06616 0.0
C8275 C 0.41046 0.38396 0.06325 0.0
H8276 H 0.39089 0.68679 0.81923 0.0
H8277 H 0.39589 0.67387 0.8361 0.0
H8278 H 0.38443 0.67756 0.81414 0.0
H8279 H 0.3894 0.66476 0.83107 0.0
H8280 H 0.38474 0.64777 0.81647 0.0
H8281 H 0.39067 0.65735 0.82133 0.0
H8282 H 0.37417 0.67046 0.81574 0.0
H8283 H 0.36819 0.66081 0.81086 0.0
C8284 C 0.39057 0.68201 0.82188 0.0
C8285 C 0.39395 0.68105 0.82805 0.0
C8286 C 0.38685 0.67674 0.81897 0.0
C8287 C 0.38646 0.67041 0.82217 0.0
C8288 C 0.38971 0.66953 0.82842 0.0
C8289 C 0.3934 0.67478 0.83132 0.0
C8290 C 0.38233 0.65268 0.81634 0.0
C8291 C 0.37595 0.65351 0.81335 0.0
C8292 C 0.38574 0.65817 0.81911 0.0
C8293 C 0.38286 0.66466 0.81898 0.0
C8294 C 0.37654 0.66553 0.81588 0.0
C8295 C 0.37311 0.66001 0.81309 0.0
H8296 H 0.08226 0.64287 0.58675 0.0
H8297 H 0.06957 0.64039 0.56919 0.0
H8298 H 0.09094 0.636 0.58148 0.0
H8299 H 0.07825 0.63335 0.56394 0.0
H8300 H 0.09916 0.62925 0.55397 0.0
H8301 H 0.08946 0.63481 0.55912 0.0
H8302 H 0.09365 0.62467 0.57797 0.0
H8303 H 0.10338 0.61914 0.57282 0.0
C8304 C 0.08128 0.64079 0.58179 0.0
C8305 C 0.07522 0.6422 0.57838 0.0
C8306 C 0.08625 0.6368 0.57878 0.0
C8307 C 0.08529 0.63411 0.57229 0.0
C8308 C 0.07917 0.63541 0.56892 0.0
C8309 C 0.07419 0.63941 0.57194 0.0
C8310 C 0.09794 0.62811 0.55918 0.0
C8311 C 0.10207 0.62379 0.563 0.0
C8312 C 0.09237 0.6313 0.56213 0.0
C8313 C 0.0908 0.63022 0.56897 0.0
C8314 C 0.09479 0.62571 0.57272 0.0
C8315 C 0.10036 0.62254 0.56978 0.0
H8316 H 0.12224 0.32107 0.32725 0.0
H8317 H 0.10457 0.33014 0.31823 0.0
H8318 H 0.12911 0.33048 0.32318 0.0
H8319 H 0.11143 0.33944 0.31411 0.0
H8320 H 0.12333 0.35887 0.31577 0.0
H8321 H 0.11715 0.34896 0.31951 0.0
H8322 H 0.13348 0.33617 0.31281 0.0
H8323 H 0.1398 0.34617 0.30922 0.0
C8324 C 0.11984 0.32501 0.32433 0.0
C8325 C 0.11284 0.32488 0.32312 0.0
C8326 C 0.12378 0.33039 0.32198 0.0
C8327 C 0.12079 0.33575 0.31841 0.0
C8328 C 0.11385 0.33546 0.31698 0.0
C8329 C 0.10993 0.3301 0.31931 0.0
C8330 C 0.12566 0.35396 0.31518 0.0
C8331 C 0.13207 0.35331 0.31221 0.0
C8332 C 0.12207 0.34826 0.31725 0.0
C8333 C 0.12479 0.34177 0.31639 0.0
C8334 C 0.13126 0.34111 0.31355 0.0
C8335 C 0.13486 0.34683 0.31145 0.0
H8336 H 0.43649 0.63557 0.43 0.0
H8337 H 0.42705 0.65336 0.43839 0.0
H8338 H 0.427 0.62871 0.43395 0.0
H8339 H 0.41768 0.64652 0.4424 0.0
H8340 H 0.39843 0.63442 0.441 0.0
H8341 H 0.4083 0.64059 0.43713 0.0
H8342 H 0.42119 0.6245 0.44422 0.0
H8343 H 0.41123 0.61818 0.4479 0.0
C8344 C 0.43244 0.638 0.43276 0.0
C8345 C 0.4325 0.64502 0.43383 0.0
C8346 C 0.42702 0.63407 0.43503 0.0
C8347 C 0.42155 0.63709 0.43841 0.0
C8348 C 0.42174 0.64406 0.43968 0.0
C8349 C 0.42714 0.64798 0.43742 0.0
C8350 C 0.40335 0.63213 0.44163 0.0
C8351 C 0.40403 0.6258 0.44475 0.0
C8352 C 0.40902 0.63572 0.4395 0.0
C8353 C 0.41554 0.63307 0.44044 0.0
C8354 C 0.41624 0.62667 0.44341 0.0
C8355 C 0.41054 0.62307 0.44557 0.0
H8356 H 0.1171 0.68765 0.18768 0.0
H8357 H 0.11154 0.6742 0.17142 0.0
H8358 H 0.12411 0.67875 0.19259 0.0
H8359 H 0.11839 0.66533 0.17638 0.0
H8360 H 0.13551 0.6523 0.18355 0.0
H8361 H 0.12993 0.66207 0.17856 0.0
H8362 H 0.12257 0.66791 0.19826 0.0
H8363 H 0.12818 0.65816 0.20324 0.0
C8364 C 0.11739 0.68281 0.18514 0.0
C8365 C 0.11376 0.68163 0.17916 0.0
C8366 C 0.12138 0.67771 0.18797 0.0
C8367 C 0.12182 0.67133 0.18487 0.0
C8368 C 0.11826 0.67021 0.17884 0.0
C8369 C 0.11429 0.67529 0.17602 0.0
C8370 C 0.13271 0.65568 0.18681 0.0
C8371 C 0.13225 0.65443 0.19378 0.0
C8372 C 0.12951 0.66128 0.18396 0.0
C8373 C 0.12576 0.66575 0.188 0.0
C8374 C 0.12549 0.66462 0.19501 0.0
C8375 C 0.1287 0.65902 0.19786 0.0
H8376 H 0.08414 0.36384 0.92122 0.0
H8377 H 0.06993 0.36965 0.93674 0.0
H8378 H 0.09303 0.36992 0.92704 0.0
H8379 H 0.07891 0.37586 0.94256 0.0
H8380 H 0.0994 0.37871 0.95424 0.0
H8381 H 0.08963 0.37358 0.94875 0.0
H8382 H 0.09623 0.38157 0.92956 0.0
H8383 H 0.10597 0.3867 0.93503 0.0
C8384 C 0.0829 0.36644 0.92587 0.0
C8385 C 0.07632 0.36627 0.92851 0.0
C8386 C 0.088 0.36998 0.92918 0.0
C8387 C 0.08666 0.37343 0.93523 0.0
C8388 C 0.08009 0.37323 0.93792 0.0
C8389 C 0.07495 0.3697 0.93457 0.0
C8390 C 0.0987 0.37947 0.94887 0.0
C8391 C 0.10351 0.38305 0.94506 0.0
C8392 C 0.0931 0.37653 0.94573 0.0
C8393 C 0.0922 0.3771 0.93871 0.0
C8394 C 0.09686 0.38091 0.93496 0.0
C8395 C 0.10244 0.38385 0.93809 0.0
H8396 H 0.38577 0.32093 0.68103 0.0
H8397 H 0.40357 0.33119 0.68835 0.0
H8398 H 0.37877 0.33029 0.68503 0.0
H8399 H 0.3966 0.34043 0.69241 0.0
H8400 H 0.38383 0.35923 0.69093 0.0
H8401 H 0.39013 0.34944 0.68708 0.0
H8402 H 0.37483 0.33627 0.69534 0.0
H8403 H 0.36836 0.34614 0.69901 0.0
C8404 C 0.38818 0.32513 0.68357 0.0
C8405 C 0.39523 0.32534 0.68432 0.0
C8406 C 0.38417 0.33048 0.68587 0.0
C8407 C 0.38714 0.33614 0.68895 0.0
C8408 C 0.39417 0.33621 0.68992 0.0
C8409 C 0.39816 0.33088 0.68764 0.0
C8410 C 0.38173 0.35426 0.69183 0.0
C8411 C 0.37558 0.35347 0.69527 0.0
C8412 C 0.3854 0.34864 0.6897 0.0
C8413 C 0.38302 0.34207 0.69097 0.0
C8414 C 0.37679 0.34127 0.69427 0.0
C8415 C 0.37311 0.34691 0.69642 0.0
H8416 H 0.0681 0.43707 0.36521 0.0
H8417 H 0.08599 0.42473 0.36336 0.0
H8418 H 0.06292 0.42844 0.37235 0.0
H8419 H 0.08078 0.41609 0.37031 0.0
H8420 H 0.07197 0.40363 0.38709 0.0
H8421 H 0.07709 0.41335 0.38151 0.0
H8422 H 0.05833 0.41721 0.37107 0.0
H8423 H 0.05321 0.40755 0.37672 0.0
C8424 C 0.07094 0.43253 0.36635 0.0
C8425 C 0.07745 0.43158 0.3637 0.0
C8426 C 0.06796 0.42757 0.37041 0.0
C8427 C 0.07143 0.42155 0.3719 0.0
C8428 C 0.07799 0.42069 0.36936 0.0
C8429 C 0.08097 0.42564 0.36533 0.0
C8430 C 0.06894 0.40657 0.38362 0.0
C8431 C 0.0622 0.4048 0.38232 0.0
C8432 C 0.07187 0.41214 0.38041 0.0
C8433 C 0.06814 0.41604 0.3758 0.0
C8434 C 0.06133 0.41438 0.37466 0.0
C8435 C 0.05839 0.40883 0.37789 0.0
H8436 H 0.32046 0.31893 0.11741 0.0
H8437 H 0.3336 0.33585 0.11331 0.0
H8438 H 0.32914 0.31399 0.12466 0.0
H8439 H 0.34228 0.33087 0.12037 0.0
H8440 H 0.35504 0.32307 0.13737 0.0
H8441 H 0.34528 0.32812 0.13181 0.0
H8442 H 0.3401 0.30871 0.12331 0.0
H8443 H 0.34981 0.30367 0.12891 0.0
C8444 C 0.32518 0.32161 0.11808 0.0
C8445 C 0.32634 0.32777 0.11476 0.0
C8446 C 0.33017 0.31876 0.1222 0.0
C8447 C 0.33641 0.32203 0.1231 0.0
C8448 C 0.3375 0.32826 0.11989 0.0
C8449 C 0.33252 0.3311 0.11579 0.0
C8450 C 0.3518 0.31989 0.13434 0.0
C8451 C 0.35322 0.31298 0.13356 0.0
C8452 C 0.34621 0.32277 0.13115 0.0
C8453 C 0.34193 0.31883 0.12707 0.0
C8454 C 0.34323 0.31188 0.12648 0.0
C8455 C 0.34881 0.30899 0.12969 0.0
H8456 H 0.43058 0.57112 0.8706 0.0
H8457 H 0.44053 0.58003 0.85334 0.0
H8458 H 0.43418 0.58065 0.87757 0.0
H8459 H 0.4442 0.58944 0.86031 0.0
H8460 H 0.44209 0.60898 0.8719 0.0
H8461 H 0.43866 0.59903 0.8656 0.0
H8462 H 0.4441 0.58639 0.88251 0.0
H8463 H 0.44732 0.59642 0.88895 0.0
C8464 C 0.43361 0.57505 0.86832 0.0
C8465 C 0.43522 0.57484 0.8614 0.0
C8466 C 0.43568 0.5805 0.87232 0.0
C8467 C 0.43939 0.58585 0.86947 0.0
C8468 C 0.44122 0.58548 0.86262 0.0
C8469 C 0.43916 0.58005 0.85864 0.0
C8470 C 0.44245 0.6041 0.87433 0.0
C8471 C 0.44497 0.6035 0.88094 0.0
C8472 C 0.44058 0.59838 0.87068 0.0
C8473 C 0.44118 0.5919 0.87352 0.0
C8474 C 0.44356 0.5913 0.88018 0.0
C8475 C 0.44546 0.59704 0.88385 0.0
H8476 H 0.18737 0.68874 0.61578 0.0
H8477 H 0.17501 0.67096 0.61317 0.0
H8478 H 0.17859 0.69377 0.62284 0.0
H8479 H 0.16622 0.67603 0.62005 0.0
H8480 H 0.15341 0.68446 0.63676 0.0
H8481 H 0.16324 0.67945 0.63129 0.0
H8482 H 0.16739 0.69844 0.62139 0.0
H8483 H 0.15762 0.70345 0.62692 0.0
C8484 C 0.1828 0.68589 0.61674 0.0
C8485 C 0.18188 0.67946 0.61389 0.0
C8486 C 0.17775 0.68879 0.62075 0.0
C8487 C 0.17169 0.68531 0.62201 0.0
C8488 C 0.17086 0.67882 0.61928 0.0
C8489 C 0.17589 0.67592 0.61529 0.0
C8490 C 0.15644 0.68756 0.63343 0.0
C8491 C 0.15471 0.69434 0.63224 0.0
C8492 C 0.16207 0.68469 0.63029 0.0
C8493 C 0.16609 0.68853 0.62586 0.0
C8494 C 0.16447 0.69536 0.62483 0.0
C8495 C 0.15886 0.69823 0.628 0.0
H8496 H 0.07628 0.57069 0.13564 0.0
H8497 H 0.0686 0.58078 0.1534 0.0
H8498 H 0.07234 0.58007 0.12864 0.0
H8499 H 0.0646 0.59004 0.14642 0.0
H8500 H 0.06623 0.60894 0.13377 0.0
H8501 H 0.06995 0.59912 0.14011 0.0
H8502 H 0.06211 0.58603 0.12455 0.0
H8503 H 0.05857 0.59591 0.11804 0.0
C8504 C 0.07368 0.57486 0.13804 0.0
C8505 C 0.07281 0.57501 0.14508 0.0
C8506 C 0.07141 0.58022 0.13403 0.0
C8507 C 0.06824 0.58584 0.13699 0.0
C8508 C 0.06715 0.58585 0.144 0.0
C8509 C 0.06941 0.58051 0.148 0.0
C8510 C 0.06539 0.60398 0.13163 0.0
C8511 C 0.06212 0.60322 0.12538 0.0
C8512 C 0.06744 0.59834 0.13532 0.0
C8513 C 0.06626 0.59179 0.13287 0.0
C8514 C 0.06311 0.59101 0.12656 0.0
C8515 C 0.06104 0.59667 0.12286 0.0
H8516 H 0.18646 0.3191 0.88883 0.0
H8517 H 0.17401 0.33678 0.8917 0.0
H8518 H 0.17699 0.31339 0.88329 0.0
H8519 H 0.16465 0.33113 0.88616 0.0
H8520 H 0.14731 0.31631 0.88402 0.0
H8521 H 0.15714 0.32167 0.88904 0.0
H8522 H 0.16965 0.31395 0.87294 0.0
H8523 H 0.15975 0.3086 0.86783 0.0
C8524 C 0.18173 0.32178 0.88823 0.0
C8525 C 0.18098 0.32838 0.89074 0.0
C8526 C 0.17632 0.31852 0.88505 0.0
C8527 C 0.17006 0.32179 0.88436 0.0
C8528 C 0.16938 0.32843 0.88672 0.0
C8529 C 0.17476 0.33169 0.88987 0.0
C8530 C 0.15214 0.31581 0.88149 0.0
C8531 C 0.15273 0.31209 0.87548 0.0
C8532 C 0.15778 0.31887 0.88438 0.0
C8533 C 0.16416 0.31828 0.88135 0.0
C8534 C 0.1648 0.31445 0.87541 0.0
C8535 C 0.15914 0.31139 0.87249 0.0
H8536 H 0.43624 0.43738 0.63791 0.0
H8537 H 0.42217 0.4228 0.64601 0.0
H8538 H 0.44178 0.42839 0.63146 0.0
H8539 H 0.4277 0.4139 0.63966 0.0
H8540 H 0.43417 0.40083 0.62224 0.0
H8541 H 0.42896 0.41049 0.62778 0.0
H8542 H 0.44864 0.41793 0.63344 0.0
H8543 H 0.45388 0.40822 0.62794 0.0
C8544 C 0.43434 0.43227 0.63833 0.0
C8545 C 0.42875 0.43081 0.64245 0.0
C8546 C 0.43752 0.42713 0.63465 0.0
C8547 C 0.43513 0.42045 0.63501 0.0
C8548 C 0.42959 0.41901 0.63918 0.0
C8549 C 0.42644 0.42412 0.64286 0.0
C8550 C 0.4374 0.40452 0.62467 0.0
C8551 C 0.44444 0.40371 0.62471 0.0
C8552 C 0.43441 0.41006 0.62784 0.0
C8553 C 0.43839 0.41493 0.63111 0.0
C8554 C 0.44545 0.41428 0.63092 0.0
C8555 C 0.44845 0.40872 0.62776 0.0
H8556 H 0.33264 0.67007 0.39444 0.0
H8557 H 0.32058 0.68804 0.39169 0.0
H8558 H 0.34172 0.67514 0.38795 0.0
H8559 H 0.32978 0.69317 0.38522 0.0
H8560 H 0.34602 0.69729 0.36875 0.0
H8561 H 0.33637 0.69216 0.37452 0.0
H8562 H 0.34973 0.68436 0.38988 0.0
H8563 H 0.35931 0.68949 0.38418 0.0
C8564 C 0.33191 0.6751 0.39243 0.0
C8565 C 0.32589 0.67867 0.39363 0.0
C8566 C 0.33714 0.67802 0.38873 0.0
C8567 C 0.3365 0.68459 0.38613 0.0
C8568 C 0.33041 0.68809 0.38714 0.0
C8569 C 0.32516 0.68516 0.39086 0.0
C8570 C 0.34688 0.69451 0.37338 0.0
C8571 C 0.35345 0.69374 0.37597 0.0
C8572 C 0.34136 0.69158 0.37668 0.0
C8573 C 0.34229 0.68781 0.38262 0.0
C8574 C 0.34885 0.68711 0.38523 0.0
C8575 C 0.35435 0.69004 0.38195 0.0
H8576 H 0.3663 0.06868 0.43793 0.0
H8577 H 0.36417 0.08663 0.42574 0.0
H8578 H 0.37307 0.06347 0.42902 0.0
H8579 H 0.37075 0.0814 0.41682 0.0
H8580 H 0.38702 0.07246 0.40376 0.0
H8581 H 0.38183 0.07759 0.41368 0.0
H8582 H 0.37127 0.05895 0.41779 0.0
H8583 H 0.37652 0.05382 0.40792 0.0
C8584 C 0.36731 0.07152 0.43337 0.0
C8585 C 0.36468 0.07806 0.43254 0.0
C8586 C 0.37115 0.06853 0.42825 0.0
C8587 C 0.37244 0.07201 0.42219 0.0
C8588 C 0.36994 0.0786 0.42145 0.0
C8589 C 0.36612 0.08159 0.42656 0.0
C8590 C 0.38361 0.06946 0.40679 0.0
C8591 C 0.38216 0.06275 0.40503 0.0
C8592 C 0.38063 0.0724 0.41248 0.0
C8593 C 0.3761 0.0687 0.41652 0.0
C8594 C 0.37481 0.06192 0.41485 0.0
C8595 C 0.37781 0.05898 0.40918 0.0
H8596 H 0.86185 0.42192 0.58583 0.0
H8597 H 0.86966 0.43641 0.57151 0.0
H8598 H 0.86743 0.42786 0.59496 0.0
H8599 H 0.8752 0.44248 0.58076 0.0
H8600 H 0.88986 0.44668 0.59878 0.0
H8601 H 0.88441 0.44125 0.58911 0.0
H8602 H 0.86632 0.43841 0.60098 0.0
H8603 H 0.87176 0.44377 0.6106 0.0
C8604 C 0.86474 0.4264 0.58462 0.0
C8605 C 0.86529 0.4287 0.57793 0.0
C8606 C 0.86791 0.42983 0.58988 0.0
C8607 C 0.87171 0.43568 0.5886 0.0
C8608 C 0.87234 0.43797 0.5819 0.0
C8609 C 0.86914 0.43451 0.57661 0.0
C8610 C 0.8847 0.44494 0.59929 0.0
C8611 C 0.88127 0.44557 0.60548 0.0
C8612 C 0.88157 0.44184 0.59376 0.0
C8613 C 0.87495 0.43934 0.5943 0.0
C8614 C 0.87148 0.44015 0.60044 0.0
C8615 C 0.8746 0.44321 0.60595 0.0
H8616 H 0.33567 0.11259 0.33346 0.0
H8617 H 0.31909 0.11712 0.32003 0.0
H8618 H 0.33056 0.11954 0.34217 0.0
H8619 H 0.31402 0.12424 0.32876 0.0
H8620 H 0.30345 0.12856 0.34937 0.0
H8621 H 0.30853 0.12285 0.33972 0.0
H8622 H 0.32799 0.1311 0.34508 0.0
H8623 H 0.32291 0.13679 0.35474 0.0
C8624 C 0.33096 0.11513 0.33234 0.0
C8625 C 0.32778 0.11428 0.32605 0.0
C8626 C 0.32805 0.11916 0.33732 0.0
C8627 C 0.32189 0.12247 0.33616 0.0
C8628 C 0.31874 0.12171 0.32984 0.0
C8629 C 0.32166 0.11766 0.32483 0.0
C8630 C 0.30879 0.12926 0.34842 0.0
C8631 C 0.31279 0.13309 0.35286 0.0
C8632 C 0.3117 0.12598 0.34288 0.0
C8633 C 0.31867 0.12647 0.34165 0.0
C8634 C 0.32262 0.13051 0.34595 0.0
C8635 C 0.31972 0.13377 0.35149 0.0
H8636 H 0.6418 0.56874 0.07067 0.0
H8637 H 0.64323 0.58743 0.08184 0.0
H8638 H 0.63543 0.56371 0.07999 0.0
H8639 H 0.63684 0.58244 0.09105 0.0
H8640 H 0.6337 0.56858 0.10926 0.0
H8641 H 0.63917 0.57372 0.09955 0.0
H8642 H 0.62455 0.56442 0.08632 0.0
H8643 H 0.61899 0.55931 0.09609 0.0
C8644 C 0.6407 0.5718 0.07507 0.0
C8645 C 0.64307 0.57847 0.07553 0.0
C8646 C 0.63703 0.56893 0.08039 0.0
C8647 C 0.63569 0.57266 0.08628 0.0
C8648 C 0.63789 0.57939 0.08664 0.0
C8649 C 0.64152 0.58226 0.08133 0.0
C8650 C 0.63158 0.56771 0.1043 0.0
C8651 C 0.62587 0.56357 0.10347 0.0
C8652 C 0.63473 0.57065 0.09872 0.0
C8653 C 0.63227 0.56951 0.09217 0.0
C8654 C 0.62659 0.56534 0.09131 0.0
C8655 C 0.62342 0.56241 0.0969 0.0
H8656 H 0.68763 0.39006 0.31975 0.0
H8657 H 0.67141 0.39521 0.33341 0.0
H8658 H 0.69281 0.38314 0.32857 0.0
H8659 H 0.67663 0.38845 0.3422 0.0
H8660 H 0.68435 0.37148 0.3551 0.0
H8661 H 0.67912 0.37697 0.3454 0.0
H8662 H 0.69856 0.38478 0.33935 0.0
H8663 H 0.70379 0.37926 0.34902 0.0
C8664 C 0.68516 0.3897 0.32462 0.0
C8665 C 0.67912 0.39319 0.32588 0.0
C8666 C 0.68815 0.38577 0.32968 0.0
C8667 C 0.68513 0.38524 0.33609 0.0
C8668 C 0.67903 0.38865 0.33729 0.0
C8669 C 0.67606 0.39257 0.33225 0.0
C8670 C 0.6875 0.37436 0.35169 0.0
C8671 C 0.69447 0.37497 0.35286 0.0
C8672 C 0.68451 0.37751 0.34613 0.0
C8673 C 0.68841 0.38136 0.34162 0.0
C8674 C 0.69542 0.38179 0.34267 0.0
C8675 C 0.69842 0.37863 0.34823 0.0
H8676 H 0.14352 0.92054 0.92596 0.0
H8677 H 0.1424 0.93941 0.93685 0.0
H8678 H 0.13711 0.92546 0.91673 0.0
H8679 H 0.13601 0.94437 0.92752 0.0
H8680 H 0.11959 0.9488 0.91144 0.0
H8681 H 0.12508 0.94371 0.92125 0.0
H8682 H 0.13953 0.93404 0.9081 0.0
H8683 H 0.13414 0.93916 0.89834 0.0
C8684 C 0.14188 0.92573 0.92641 0.0
C8685 C 0.14352 0.9296 0.93213 0.0
C8686 C 0.13823 0.92856 0.92109 0.0
C8687 C 0.13611 0.93532 0.92136 0.0
C8688 C 0.13754 0.93913 0.92718 0.0
C8689 C 0.14122 0.9363 0.93251 0.0
C8690 C 0.12396 0.94562 0.91065 0.0
C8691 C 0.12639 0.94436 0.90409 0.0
C8692 C 0.1271 0.9427 0.91627 0.0
C8693 C 0.13271 0.93844 0.91544 0.0
C8694 C 0.13514 0.93719 0.90889 0.0
C8695 C 0.13203 0.94012 0.90329 0.0
H8696 H 0.31752 0.89508 0.18447 0.0
H8697 H 0.3336 0.88055 0.18197 0.0
H8698 H 0.31153 0.89004 0.17493 0.0
H8699 H 0.32765 0.87559 0.17243 0.0
H8700 H 0.31271 0.86503 0.15849 0.0
H8701 H 0.31743 0.86927 0.16908 0.0
H8702 H 0.31359 0.88972 0.16259 0.0
H8703 H 0.30877 0.88549 0.15208 0.0
C8704 C 0.31973 0.89076 0.18195 0.0
C8705 C 0.32605 0.88824 0.18396 0.0
C8706 C 0.31633 0.88791 0.17646 0.0
C8707 C 0.31914 0.88245 0.17289 0.0
C8708 C 0.32532 0.87975 0.1751 0.0
C8709 C 0.32874 0.88262 0.18055 0.0
C8710 C 0.31281 0.87043 0.15937 0.0
C8711 C 0.3104 0.87493 0.15444 0.0
C8712 C 0.31555 0.87285 0.16541 0.0
C8713 C 0.31588 0.87983 0.16668 0.0
C8714 C 0.31335 0.88432 0.1618 0.0
C8715 C 0.31066 0.8819 0.15575 0.0
H8716 H 0.18989 0.10551 0.67759 0.0
H8717 H 0.17942 0.12289 0.6856 0.0
H8718 H 0.19407 0.1123 0.66825 0.0
H8719 H 0.18356 0.12969 0.67615 0.0
H8720 H 0.19745 0.1407 0.66065 0.0
H8721 H 0.19392 0.13448 0.67075 0.0
H8722 H 0.18872 0.11735 0.65831 0.0
H8723 H 0.1924 0.12344 0.64831 0.0
C8724 C 0.18852 0.11079 0.67739 0.0
C8725 C 0.18427 0.11364 0.68231 0.0
C8726 C 0.19088 0.11468 0.67201 0.0
C8727 C 0.18906 0.12151 0.67141 0.0
C8728 C 0.18506 0.12445 0.67649 0.0
C8729 C 0.18268 0.12055 0.68189 0.0
C8730 C 0.19557 0.1356 0.66009 0.0
C8731 C 0.1952 0.13256 0.65368 0.0
C8732 C 0.1935 0.13206 0.66586 0.0
C8733 C 0.19109 0.12541 0.66533 0.0
C8734 C 0.19065 0.12243 0.65891 0.0
C8735 C 0.19267 0.12596 0.65316 0.0
H8736 H 0.05701 0.17732 0.40608 0.0
H8737 H 0.06694 0.15804 0.40391 0.0
H8738 H 0.06534 0.18245 0.39865 0.0
H8739 H 0.07551 0.16324 0.3968 0.0
H8740 H 0.08657 0.17355 0.3794 0.0
H8741 H 0.07752 0.16829 0.38592 0.0
H8742 H 0.07696 0.18568 0.39909 0.0
H8743 H 0.0859 0.19094 0.39252 0.0
C8744 C 0.061 0.17417 0.40405 0.0
C8745 C 0.06141 0.1673 0.40575 0.0
C8746 C 0.06581 0.17713 0.39984 0.0
C8747 C 0.07117 0.17329 0.3972 0.0
C8748 C 0.07146 0.16636 0.39873 0.0
C8749 C 0.06662 0.16339 0.40294 0.0
C8750 C 0.0845 0.17624 0.38368 0.0
C8751 C 0.08693 0.18267 0.38543 0.0
C8752 C 0.07933 0.17322 0.38743 0.0
C8753 C 0.0765 0.17655 0.39304 0.0
C8754 C 0.07892 0.18301 0.39473 0.0
C8755 C 0.08405 0.18603 0.39097 0.0
H8756 H 0.09895 0.81629 0.65334 0.0
H8757 H 0.07983 0.80608 0.65562 0.0
H8758 H 0.09355 0.82488 0.6464 0.0
H8759 H 0.07449 0.81445 0.64838 0.0
H8760 H 0.06575 0.83511 0.64272 0.0
H8761 H 0.07116 0.82607 0.64904 0.0
H8762 H 0.08833 0.82693 0.63561 0.0
H8763 H 0.08293 0.83605 0.62932 0.0
C8764 C 0.09359 0.81591 0.65242 0.0
C8765 C 0.08979 0.81061 0.65522 0.0
C8766 C 0.09051 0.82076 0.64832 0.0
C8767 C 0.08356 0.8204 0.64689 0.0
C8768 C 0.07982 0.81497 0.6495 0.0
C8769 C 0.0829 0.81013 0.65361 0.0
C8770 C 0.07064 0.8333 0.64106 0.0
C8771 C 0.07391 0.83629 0.63552 0.0
C8772 C 0.07374 0.82811 0.64468 0.0
C8773 C 0.08019 0.82576 0.64284 0.0
C8774 C 0.08341 0.82868 0.63723 0.0
C8775 C 0.08032 0.8339 0.63362 0.0
H8776 H 0.4407 0.84871 0.90336 0.0
H8777 H 0.45086 0.82963 0.90608 0.0
H8778 H 0.43217 0.8432 0.89645 0.0
H8779 H 0.44256 0.82418 0.89884 0.0
H8780 H 0.42194 0.81538 0.89303 0.0
H8781 H 0.43098 0.82081 0.89934 0.0
H8782 H 0.43019 0.83788 0.88577 0.0
H8783 H 0.42106 0.83246 0.87952 0.0
C8784 C 0.44108 0.84334 0.90255 0.0
C8785 C 0.44634 0.83958 0.90547 0.0
C8786 C 0.43626 0.84019 0.89846 0.0
C8787 C 0.43663 0.83322 0.89713 0.0
C8788 C 0.44203 0.82952 0.89987 0.0
C8789 C 0.44683 0.83266 0.90398 0.0
C8790 C 0.42376 0.82025 0.89133 0.0
C8791 C 0.42078 0.82349 0.88578 0.0
C8792 C 0.42895 0.82337 0.89495 0.0
C8793 C 0.43131 0.8298 0.89308 0.0
C8794 C 0.42842 0.83298 0.88743 0.0
C8795 C 0.4232 0.82987 0.88383 0.0
H8796 H 0.42693 0.20074 0.15582 0.0
H8797 H 0.40817 0.18977 0.15432 0.0
H8798 H 0.43235 0.19249 0.14849 0.0
H8799 H 0.41366 0.18129 0.14734 0.0
H8800 H 0.42394 0.17009 0.13022 0.0
H8801 H 0.41851 0.17922 0.13646 0.0
H8802 H 0.43621 0.18107 0.14908 0.0
H8803 H 0.44164 0.17203 0.14279 0.0
C8804 C 0.42397 0.19654 0.15397 0.0
C8805 C 0.41716 0.19582 0.15583 0.0
C8806 C 0.42709 0.19178 0.14981 0.0
C8807 C 0.42348 0.18616 0.14739 0.0
C8808 C 0.41661 0.18555 0.14909 0.0
C8809 C 0.41348 0.19034 0.15323 0.0
C8810 C 0.42667 0.17247 0.13432 0.0
C8811 C 0.43322 0.17033 0.13601 0.0
C8812 C 0.42355 0.17769 0.13791 0.0
C8813 C 0.42691 0.18087 0.1433 0.0
C8814 C 0.43351 0.17882 0.1449 0.0
C8815 C 0.43663 0.17362 0.14129 0.0
H8816 H 0.06675 0.84839 0.10357 0.0
H8817 H 0.05638 0.82929 0.10185 0.0
H8818 H 0.07534 0.8431 0.11059 0.0
H8819 H 0.06474 0.82409 0.10919 0.0
H8820 H 0.08532 0.8153 0.11494 0.0
H8821 H 0.07628 0.82062 0.10855 0.0
H8822 H 0.07747 0.83816 0.12148 0.0
H8823 H 0.0866 0.83284 0.12782 0.0
C8824 C 0.06633 0.84306 0.10462 0.0
C8825 C 0.061 0.83922 0.10195 0.0
C8826 C 0.07118 0.84005 0.10878 0.0
C8827 C 0.07078 0.83314 0.1104 0.0
C8828 C 0.0653 0.82938 0.10792 0.0
C8829 C 0.06047 0.83238 0.10376 0.0
C8830 C 0.08359 0.82025 0.11648 0.0
C8831 C 0.08667 0.82364 0.12189 0.0
C8832 C 0.0784 0.82331 0.11282 0.0
C8833 C 0.07614 0.82983 0.11449 0.0
C8834 C 0.07915 0.83318 0.11998 0.0
C8835 C 0.08437 0.83013 0.12363 0.0
H8836 H 0.40946 0.81748 0.35331 0.0
H8837 H 0.42805 0.80611 0.35298 0.0
H8838 H 0.41471 0.82587 0.36061 0.0
H8839 H 0.4332 0.8143 0.36057 0.0
H8840 H 0.44246 0.8348 0.36645 0.0
H8841 H 0.43724 0.82576 0.35998 0.0
H8842 H 0.41904 0.82778 0.37184 0.0
H8843 H 0.42427 0.83689 0.37829 0.0
C8844 C 0.41469 0.8168 0.35474 0.0
C8845 C 0.4184 0.81125 0.35238 0.0
C8846 C 0.41766 0.82154 0.35904 0.0
C8847 C 0.4244 0.8208 0.36113 0.0
C8848 C 0.42804 0.81511 0.35896 0.0
C8849 C 0.42507 0.81038 0.35464 0.0
C8850 C 0.43739 0.83324 0.36776 0.0
C8851 C 0.43378 0.83657 0.37288 0.0
C8852 C 0.43439 0.82805 0.36404 0.0
C8853 C 0.4277 0.82605 0.36537 0.0
C8854 C 0.42415 0.82927 0.37061 0.0
C8855 C 0.42715 0.83448 0.37431 0.0
H8856 H 0.45004 0.17637 0.60173 0.0
H8857 H 0.44007 0.15716 0.60431 0.0
H8858 H 0.44142 0.18177 0.6087 0.0
H8859 H 0.43144 0.16254 0.61122 0.0
H8860 H 0.41312 0.17598 0.61574 0.0
H8861 H 0.42213 0.17043 0.60951 0.0
H8862 H 0.43691 0.18235 0.62024 0.0
H8863 H 0.42786 0.18791 0.62652 0.0
C8864 C 0.44601 0.17329 0.6038 0.0
C8865 C 0.44562 0.16637 0.6023 0.0
C8866 C 0.44109 0.17638 0.60782 0.0
C8867 C 0.43569 0.1726 0.61045 0.0
C8868 C 0.43543 0.16563 0.60912 0.0
C8869 C 0.44035 0.16255 0.60511 0.0
C8870 C 0.41829 0.17736 0.61685 0.0
C8871 C 0.41976 0.18237 0.62166 0.0
C8872 C 0.42346 0.17418 0.61327 0.0
C8873 C 0.43024 0.17593 0.61439 0.0
C8874 C 0.43173 0.18094 0.6192 0.0
C8875 C 0.42654 0.18412 0.6228 0.0
H8876 H 0.07869 0.20041 0.85223 0.0
H8877 H 0.09765 0.18978 0.85369 0.0
H8878 H 0.07351 0.19223 0.85979 0.0
H8879 H 0.09239 0.18137 0.86094 0.0
H8880 H 0.08231 0.17027 0.87834 0.0
H8881 H 0.0876 0.17938 0.87193 0.0
H8882 H 0.06988 0.18071 0.85928 0.0
H8883 H 0.06459 0.17169 0.86573 0.0
C8884 C 0.08176 0.1963 0.85414 0.0
C8885 C 0.08855 0.19564 0.85219 0.0
C8886 C 0.07877 0.19158 0.85843 0.0
C8887 C 0.0825 0.18607 0.8609 0.0
C8888 C 0.08936 0.18554 0.85914 0.0
C8889 C 0.09236 0.1903 0.85486 0.0
C8890 C 0.07955 0.17253 0.8742 0.0
C8891 C 0.07303 0.17026 0.87255 0.0
C8892 C 0.08258 0.17774 0.87051 0.0
C8893 C 0.07918 0.18078 0.86508 0.0
C8894 C 0.07261 0.17857 0.86351 0.0
C8895 C 0.06957 0.17339 0.86721 0.0
H8896 H 0.40073 0.0646 0.15803 0.0
H8897 H 0.40877 0.05909 0.1775 0.0
H8898 H 0.39348 0.07298 0.16337 0.0
H8899 H 0.40168 0.06759 0.18287 0.0
H8900 H 0.38478 0.08015 0.19147 0.0
H8901 H 0.39055 0.07084 0.18586 0.0
H8902 H 0.39436 0.08365 0.1686 0.0
H8903 H 0.38824 0.09277 0.17402 0.0
C8904 C 0.40101 0.06525 0.16344 0.0
C8905 C 0.40541 0.0613 0.16733 0.0
C8906 C 0.39684 0.07005 0.16652 0.0
C8907 C 0.39703 0.07103 0.17356 0.0
C8908 C 0.40132 0.06693 0.17746 0.0
C8909 C 0.40543 0.06208 0.17438 0.0
C8910 C 0.38673 0.08093 0.18642 0.0
C8911 C 0.38608 0.08723 0.18322 0.0
C8912 C 0.39013 0.07562 0.18324 0.0
C8913 C 0.39298 0.07649 0.17679 0.0
C8914 C 0.39218 0.08275 0.17353 0.0
C8915 C 0.38874 0.08803 0.17669 0.0
H8916 H 0.19007 0.1533 0.40825 0.0
H8917 H 0.20021 0.15551 0.42741 0.0
H8918 H 0.18149 0.14628 0.41358 0.0
H8919 H 0.19163 0.14844 0.43277 0.0
H8920 H 0.17805 0.13052 0.43867 0.0
H8921 H 0.18708 0.13693 0.4332 0.0
H8922 H 0.17225 0.14786 0.42155 0.0
H8923 H 0.16327 0.14151 0.42699 0.0
C8924 C 0.1904 0.15239 0.41362 0.0
C8925 C 0.19569 0.15513 0.41745 0.0
C8926 C 0.18551 0.14832 0.41667 0.0
C8927 C 0.18582 0.14687 0.42362 0.0
C8928 C 0.19126 0.14943 0.4274 0.0
C8929 C 0.19615 0.1535 0.42434 0.0
C8930 C 0.17673 0.13431 0.43496 0.0
C8931 C 0.16994 0.13547 0.43324 0.0
C8932 C 0.1819 0.13798 0.43183 0.0
C8933 C 0.18039 0.14288 0.42691 0.0
C8934 C 0.1736 0.14403 0.42521 0.0
C8935 C 0.16845 0.14038 0.42833 0.0
H8936 H 0.10202 0.9507 0.67819 0.0
H8937 H 0.1026 0.93952 0.65949 0.0
H8938 H 0.10961 0.9425 0.68333 0.0
H8939 H 0.10988 0.93111 0.66472 0.0
H8940 H 0.12743 0.92 0.67433 0.0
H8941 H 0.12101 0.92913 0.66911 0.0
H8942 H 0.10907 0.93106 0.68728 0.0
H8943 H 0.11553 0.92201 0.6925 0.0
C8944 C 0.10374 0.94647 0.67518 0.0
C8945 C 0.10154 0.94565 0.66848 0.0
C8946 C 0.10805 0.94174 0.67814 0.0
C8947 C 0.11028 0.93609 0.67447 0.0
C8948 C 0.10826 0.9354 0.6677 0.0
C8949 C 0.10396 0.94015 0.66473 0.0
C8950 C 0.12344 0.92239 0.67721 0.0
C8951 C 0.12199 0.92028 0.68383 0.0
C8952 C 0.11975 0.92761 0.67422 0.0
C8953 C 0.1145 0.93082 0.67776 0.0
C8954 C 0.11315 0.92878 0.68443 0.0
C8955 C 0.11685 0.92359 0.68743 0.0
H8956 H 0.31661 0.85346 0.90826 0.0
H8957 H 0.30743 0.85204 0.92799 0.0
H8958 H 0.32544 0.86068 0.91289 0.0
H8959 H 0.31618 0.85935 0.93259 0.0
H8960 H 0.32992 0.87712 0.93752 0.0
H8961 H 0.32067 0.87094 0.93222 0.0
H8962 H 0.33505 0.85927 0.92071 0.0
H8963 H 0.34428 0.86536 0.92605 0.0
C8964 C 0.31652 0.8546 0.91359 0.0
C8965 C 0.31143 0.852 0.91779 0.0
C8966 C 0.32155 0.85879 0.91624 0.0
C8967 C 0.32155 0.86054 0.92312 0.0
C8968 C 0.31631 0.85815 0.92726 0.0
C8969 C 0.3113 0.85393 0.92462 0.0
C8970 C 0.33111 0.87322 0.93387 0.0
C8971 C 0.33785 0.87173 0.93223 0.0
C8972 C 0.3258 0.86969 0.93083 0.0
C8973 C 0.32713 0.86461 0.92605 0.0
C8974 C 0.33386 0.86323 0.9243 0.0
C8975 C 0.33915 0.86673 0.92736 0.0
H8976 H 0.4027 0.94151 0.34939 0.0
H8977 H 0.4053 0.95014 0.32953 0.0
H8978 H 0.39561 0.93265 0.34461 0.0
H8979 H 0.39816 0.94134 0.32476 0.0
H8980 H 0.3804 0.92778 0.31927 0.0
H8981 H 0.38654 0.93706 0.32457 0.0
H8982 H 0.39716 0.92281 0.3372 0.0
H8983 H 0.39109 0.91355 0.33188 0.0
C8984 C 0.40185 0.94146 0.344 0.0
C8985 C 0.40473 0.94642 0.33982 0.0
C8986 C 0.39774 0.93642 0.34126 0.0
C8987 C 0.39636 0.93625 0.3343 0.0
C8988 C 0.39906 0.94134 0.33016 0.0
C8989 C 0.40318 0.94637 0.33289 0.0
C8990 C 0.38406 0.92663 0.32316 0.0
C8991 C 0.38525 0.91991 0.32514 0.0
C8992 C 0.38757 0.93194 0.32621 0.0
C8993 C 0.39234 0.93067 0.33131 0.0
C8994 C 0.39344 0.92397 0.33336 0.0
C8995 C 0.38995 0.91866 0.33031 0.0
H8996 H 0.32056 0.16255 0.59255 0.0
H8997 H 0.30522 0.14901 0.5851 0.0
H8998 H 0.32924 0.15561 0.58743 0.0
H8999 H 0.31391 0.14223 0.57956 0.0
H9000 H 0.33228 0.12826 0.57587 0.0
H9001 H 0.32326 0.13459 0.58146 0.0
H9002 H 0.33334 0.15327 0.57641 0.0
H9003 H 0.34236 0.14695 0.57099 0.0
C9004 C 0.31904 0.158 0.58996 0.0
C9005 C 0.31221 0.15623 0.58941 0.0
C9006 C 0.32402 0.15409 0.58687 0.0
C9007 C 0.32229 0.14836 0.58304 0.0
C9008 C 0.31544 0.14656 0.58253 0.0
C9009 C 0.31045 0.15047 0.58566 0.0
C9010 C 0.33252 0.13372 0.57593 0.0
C9011 C 0.33805 0.13711 0.57306 0.0
C9012 C 0.32736 0.13735 0.57912 0.0
C9013 C 0.32761 0.14445 0.57947 0.0
C9014 C 0.33306 0.14781 0.57641 0.0
C9015 C 0.33822 0.1442 0.57328 0.0
H9016 H 0.10336 0.06638 0.84913 0.0
H9017 H 0.10177 0.05741 0.82933 0.0
H9018 H 0.11071 0.07514 0.84457 0.0
H9019 H 0.10919 0.06611 0.82478 0.0
H9020 H 0.12725 0.07956 0.82 0.0
H9021 H 0.12083 0.07038 0.82514 0.0
H9022 H 0.10953 0.08485 0.8369 0.0
H9023 H 0.11587 0.09401 0.83173 0.0
C9024 C 0.10449 0.06633 0.8438 0.0
C9025 C 0.10181 0.06131 0.83956 0.0
C9026 C 0.10875 0.07132 0.84119 0.0
C9027 C 0.11049 0.07136 0.8343 0.0
C9028 C 0.108 0.0662 0.83012 0.0
C9029 C 0.10372 0.06123 0.83272 0.0
C9030 C 0.12338 0.08078 0.82367 0.0
C9031 C 0.12208 0.08753 0.82545 0.0
C9032 C 0.11971 0.07552 0.82662 0.0
C9033 C 0.11467 0.07688 0.83143 0.0
C9034 C 0.11345 0.08362 0.83329 0.0
C9035 C 0.1171 0.08887 0.83033 0.0
H9036 H 0.19027 0.85308 0.09827 0.0
H9037 H 0.19987 0.85171 0.07874 0.0
H9038 H 0.18176 0.86063 0.09356 0.0
H9039 H 0.19138 0.85928 0.07403 0.0
H9040 H 0.1781 0.87741 0.06899 0.0
H9041 H 0.18712 0.87082 0.07422 0.0
H9042 H 0.1723 0.85975 0.08578 0.0
H9043 H 0.16332 0.8663 0.08057 0.0
C9044 C 0.1905 0.8543 0.09295 0.0
C9045 C 0.19562 0.85164 0.08883 0.0
C9046 C 0.18566 0.85867 0.09026 0.0
C9047 C 0.18585 0.8605 0.0834 0.0
C9048 C 0.19112 0.85802 0.07934 0.0
C9049 C 0.19596 0.85366 0.08204 0.0
C9050 C 0.17678 0.87356 0.07264 0.0
C9051 C 0.16999 0.8724 0.07437 0.0
C9052 C 0.18194 0.86979 0.07564 0.0
C9053 C 0.18043 0.86476 0.08043 0.0
C9054 C 0.17365 0.86366 0.0822 0.0
C9055 C 0.1685 0.86742 0.07921 0.0
H9056 H 0.16579 0.41262 0.07054 0.0
H9057 H 0.17007 0.39772 0.05522 0.0
H9058 H 0.1708 0.4053 0.07909 0.0
H9059 H 0.17515 0.39039 0.0638 0.0
H9060 H 0.17772 0.37708 0.08329 0.0
H9061 H 0.17187 0.38379 0.07468 0.0
H9062 H 0.18295 0.40146 0.08098 0.0
H9063 H 0.18877 0.39479 0.08954 0.0
C9064 C 0.16764 0.40771 0.06903 0.0
C9065 C 0.16744 0.40569 0.06224 0.0
C9066 C 0.17059 0.40356 0.07391 0.0
C9067 C 0.17337 0.39729 0.0721 0.0
C9068 C 0.173 0.39518 0.06534 0.0
C9069 C 0.17012 0.39937 0.06044 0.0
C9070 C 0.1789 0.38239 0.08281 0.0
C9071 C 0.18372 0.38541 0.08706 0.0
C9072 C 0.17558 0.38622 0.07788 0.0
C9073 C 0.17693 0.39315 0.07721 0.0
C9074 C 0.18176 0.39615 0.08144 0.0
C9075 C 0.18514 0.39232 0.08629 0.0
H9076 H 0.67646 0.1022 0.95084 0.0
H9077 H 0.65795 0.10434 0.93956 0.0
H9078 H 0.6822 0.10958 0.94282 0.0
H9079 H 0.66373 0.11143 0.93136 0.0
H9080 H 0.67447 0.12873 0.92094 0.0
H9081 H 0.66887 0.12238 0.9299 0.0
H9082 H 0.68614 0.10914 0.93127 0.0
H9083 H 0.69173 0.1155 0.92236 0.0
C9084 C 0.67362 0.10421 0.94663 0.0
C9085 C 0.66678 0.10254 0.94574 0.0
C9086 C 0.67692 0.1084 0.942 0.0
C9087 C 0.67345 0.11105 0.9364 0.0
C9088 C 0.66656 0.10951 0.93563 0.0
C9089 C 0.66327 0.10532 0.94026 0.0
C9090 C 0.67707 0.12447 0.92318 0.0
C9091 C 0.68354 0.12261 0.92093 0.0
C9092 C 0.67386 0.12083 0.9283 0.0
C9093 C 0.67703 0.11522 0.93128 0.0
C9094 C 0.68358 0.11348 0.92915 0.0
C9095 C 0.68679 0.11713 0.92404 0.0
H9096 H 0.15547 0.42757 0.20009 0.0
H9097 H 0.15322 0.40777 0.19126 0.0
H9098 H 0.14813 0.43228 0.19143 0.0
H9099 H 0.14593 0.4125 0.18252 0.0
H9100 H 0.14079 0.42535 0.16366 0.0
H9101 H 0.14713 0.42006 0.17275 0.0
H9102 H 0.13646 0.43224 0.18735 0.0
H9103 H 0.13004 0.43752 0.17824 0.0
C9104 C 0.15339 0.42421 0.19631 0.0
C9105 C 0.15508 0.41732 0.19626 0.0
C9106 C 0.14916 0.42691 0.19136 0.0
C9107 C 0.14649 0.42277 0.18625 0.0
C9108 C 0.14803 0.41584 0.18631 0.0
C9109 C 0.15225 0.41314 0.19128 0.0
C9110 C 0.1397 0.42682 0.16881 0.0
C9111 C 0.1349 0.43187 0.17021 0.0
C9112 C 0.14335 0.42379 0.17403 0.0
C9113 C 0.14231 0.42573 0.18077 0.0
C9114 C 0.13744 0.4307 0.18219 0.0
C9115 C 0.13377 0.43373 0.17697 0.0
H9116 H 0.84983 0.9023 0.44026 0.0
H9117 H 0.83112 0.90532 0.45102 0.0
H9118 H 0.84396 0.89547 0.43191 0.0
H9119 H 0.82529 0.89818 0.44287 0.0
H9120 H 0.81595 0.89243 0.42234 0.0
H9121 H 0.82164 0.89867 0.43128 0.0
H9122 H 0.83843 0.88479 0.43028 0.0
H9123 H 0.83276 0.87859 0.42128 0.0
C9124 C 0.84446 0.90157 0.44081 0.0
C9125 C 0.84092 0.90453 0.44619 0.0
C9126 C 0.8411 0.89753 0.43609 0.0
C9127 C 0.83413 0.8963 0.43668 0.0
C9128 C 0.83063 0.89912 0.44218 0.0
C9129 C 0.83399 0.90317 0.44689 0.0
C9130 C 0.82081 0.89065 0.42411 0.0
C9131 C 0.82391 0.88503 0.42109 0.0
C9132 C 0.82407 0.89423 0.42923 0.0
C9133 C 0.83051 0.89226 0.43149 0.0
C9134 C 0.83354 0.88653 0.42858 0.0
C9135 C 0.83028 0.88296 0.42344 0.0
H9136 H 0.84438 0.0918 0.18726 0.0
H9137 H 0.85941 0.08723 0.20236 0.0
H9138 H 0.85145 0.08661 0.17862 0.0
H9139 H 0.86647 0.08192 0.1937 0.0
H9140 H 0.8796 0.07905 0.17426 0.0
H9141 H 0.87305 0.08495 0.18296 0.0
H9142 H 0.85504 0.07461 0.17636 0.0
H9143 H 0.86155 0.06876 0.16769 0.0
C9144 C 0.84927 0.08984 0.18871 0.0
C9145 C 0.85141 0.09003 0.19546 0.0
C9146 C 0.85327 0.08677 0.18377 0.0
C9147 C 0.8595 0.08386 0.18549 0.0
C9148 C 0.86171 0.08418 0.19222 0.0
C9149 C 0.85767 0.08718 0.19718 0.0
C9150 C 0.87424 0.07805 0.17469 0.0
C9151 C 0.87108 0.07344 0.17032 0.0
C9152 C 0.87051 0.08139 0.17967 0.0
C9153 C 0.86353 0.08026 0.18031 0.0
C9154 C 0.86039 0.07563 0.17595 0.0
C9155 C 0.86413 0.07224 0.17103 0.0
H9156 H 0.34845 0.60323 0.56611 0.0
H9157 H 0.32869 0.60085 0.55724 0.0
H9158 H 0.34369 0.61061 0.57475 0.0
H9159 H 0.32394 0.60828 0.56582 0.0
H9160 H 0.31862 0.62651 0.57878 0.0
H9161 H 0.32393 0.61998 0.56977 0.0
H9162 H 0.33612 0.60954 0.58452 0.0
H9163 H 0.3308 0.616 0.59351 0.0
C9164 C 0.34308 0.60418 0.56607 0.0
C9165 C 0.33892 0.6013 0.5611 0.0
C9166 C 0.34036 0.60846 0.57098 0.0
C9167 C 0.33343 0.60999 0.571 0.0
C9168 C 0.32931 0.60726 0.56592 0.0
C9169 C 0.33203 0.60298 0.56102 0.0
C9170 C 0.32242 0.62281 0.5801 0.0
C9171 C 0.32428 0.62179 0.58687 0.0
C9172 C 0.32547 0.61908 0.57493 0.0
C9173 C 0.33044 0.61424 0.57643 0.0
C9174 C 0.33238 0.6133 0.58318 0.0
C9175 C 0.32933 0.61702 0.58834 0.0
H9176 H 0.14687 0.58814 0.30465 0.0
H9177 H 0.16192 0.59212 0.31989 0.0
H9178 H 0.14013 0.58192 0.31296 0.0
H9179 H 0.15517 0.58602 0.32819 0.0
H9180 H 0.1453 0.56793 0.33864 0.0
H9181 H 0.1517 0.57394 0.33 0.0
H9182 H 0.13358 0.58434 0.32379 0.0
H9183 H 0.12714 0.57826 0.33244 0.0
C9184 C 0.1487 0.58773 0.30978 0.0
C9185 C 0.15485 0.59072 0.31166 0.0
C9186 C 0.14484 0.5842 0.31454 0.0
C9187 C 0.14712 0.5835 0.32122 0.0
C9188 C 0.1533 0.58646 0.32307 0.0
C9189 C 0.15712 0.59004 0.31834 0.0
C9190 C 0.14267 0.57144 0.33538 0.0
C9191 C 0.13572 0.57262 0.33621 0.0
C9192 C 0.14634 0.57493 0.33048 0.0
C9193 C 0.14314 0.57963 0.32625 0.0
C9194 C 0.13616 0.58072 0.32696 0.0
C9195 C 0.1325 0.57728 0.33193 0.0
H9196 H 0.35056 0.42802 0.8072 0.0
H9197 H 0.35377 0.40825 0.81577 0.0
H9198 H 0.35805 0.43291 0.81566 0.0
H9199 H 0.36121 0.41313 0.82427 0.0
H9200 H 0.3666 0.42575 0.84309 0.0
H9201 H 0.3601 0.42045 0.83414 0.0
H9202 H 0.3698 0.43332 0.81944 0.0
H9203 H 0.37635 0.43863 0.82843 0.0
C9204 C 0.35288 0.42471 0.81088 0.0
C9205 C 0.35142 0.41777 0.81094 0.0
C9206 C 0.3572 0.42751 0.81571 0.0
C9207 C 0.36018 0.42342 0.82068 0.0
C9208 C 0.35887 0.41644 0.8206 0.0
C9209 C 0.35456 0.41365 0.81577 0.0
C9210 C 0.36744 0.42738 0.83794 0.0
C9211 C 0.37202 0.43261 0.83649 0.0
C9212 C 0.36371 0.42434 0.8328 0.0
C9213 C 0.36443 0.42646 0.82607 0.0
C9214 C 0.36906 0.43163 0.82459 0.0
C9215 C 0.37282 0.43467 0.82974 0.0
H9216 H 0.94779 0.84321 0.61027 0.0
H9217 H 0.93862 0.83294 0.59335 0.0
H9218 H 0.9403 0.83713 0.61796 0.0
H9219 H 0.93112 0.82697 0.601 0.0
H9220 H 0.92032 0.81456 0.61655 0.0
H9221 H 0.93002 0.81875 0.61019 0.0
H9222 H 0.92807 0.8381 0.62005 0.0
H9223 H 0.9185 0.83386 0.62652 0.0
C9224 C 0.94427 0.83956 0.60819 0.0
C9225 C 0.94375 0.83862 0.60118 0.0
C9226 C 0.93996 0.83613 0.6126 0.0
C9227 C 0.93507 0.83163 0.61009 0.0
C9228 C 0.93486 0.83036 0.60311 0.0
C9229 C 0.93914 0.83382 0.5987 0.0
C9230 C 0.92206 0.81966 0.61746 0.0
C9231 C 0.91862 0.8239 0.622 0.0
C9232 C 0.92758 0.82208 0.61378 0.0
C9233 C 0.9298 0.82877 0.61459 0.0
C9234 C 0.92653 0.83291 0.61935 0.0
C9235 C 0.921 0.8305 0.623 0.0
H9236 H 0.92395 0.19908 0.35593 0.0
H9237 H 0.90949 0.18357 0.35077 0.0
H9238 H 0.92888 0.19154 0.36445 0.0
H9239 H 0.9144 0.17614 0.35914 0.0
H9240 H 0.92049 0.16583 0.37803 0.0
H9241 H 0.91559 0.17503 0.37148 0.0
H9242 H 0.93542 0.18057 0.36433 0.0
H9243 H 0.94034 0.17134 0.37086 0.0
C9244 C 0.9218 0.1941 0.35664 0.0
C9245 C 0.91634 0.19192 0.35266 0.0
C9246 C 0.92463 0.18979 0.36149 0.0
C9247 C 0.922 0.18327 0.36249 0.0
C9248 C 0.91648 0.18117 0.35858 0.0
C9249 C 0.9137 0.18542 0.35373 0.0
C9250 C 0.92381 0.16904 0.3751 0.0
C9251 C 0.93079 0.16779 0.37488 0.0
C9252 C 0.92101 0.17431 0.37136 0.0
C9253 C 0.92511 0.17846 0.36732 0.0
C9254 C 0.93214 0.17749 0.36743 0.0
C9255 C 0.93495 0.17219 0.37117 0.0
H9256 H 0.55826 0.17368 0.10409 0.0
H9257 H 0.5697 0.15546 0.10764 0.0
H9258 H 0.56572 0.17982 0.11179 0.0
H9259 H 0.57719 0.16157 0.11511 0.0
H9260 H 0.58809 0.17265 0.13116 0.0
H9261 H 0.57853 0.1672 0.12564 0.0
H9262 H 0.57727 0.18377 0.11151 0.0
H9263 H 0.58673 0.18927 0.11713 0.0
C9264 C 0.5623 0.17097 0.10657 0.0
C9265 C 0.5634 0.16409 0.10521 0.0
C9266 C 0.56661 0.17449 0.11094 0.0
C9267 C 0.57208 0.1712 0.11406 0.0
C9268 C 0.57298 0.16426 0.1129 0.0
C9269 C 0.5687 0.16076 0.10855 0.0
C9270 C 0.58572 0.17515 0.12691 0.0
C9271 C 0.5882 0.18135 0.12453 0.0
C9272 C 0.58025 0.17203 0.12374 0.0
C9273 C 0.57717 0.175 0.11807 0.0
C9274 C 0.57946 0.18136 0.1159 0.0
C9275 C 0.5849 0.18451 0.11911 0.0
H9276 H 0.59471 0.80986 0.86096 0.0
H9277 H 0.58242 0.8178 0.84478 0.0
H9278 H 0.58887 0.81717 0.86897 0.0
H9279 H 0.57668 0.82515 0.85275 0.0
H9280 H 0.56517 0.83594 0.86889 0.0
H9281 H 0.56929 0.8262 0.86257 0.0
H9282 H 0.58928 0.82943 0.87066 0.0
H9283 H 0.58511 0.83903 0.87714 0.0
C9284 C 0.59068 0.81306 0.85912 0.0
C9285 C 0.58909 0.8133 0.85221 0.0
C9286 C 0.58737 0.81729 0.86371 0.0
C9287 C 0.58237 0.82181 0.86149 0.0
C9288 C 0.58047 0.82171 0.85465 0.0
C9289 C 0.58379 0.81751 0.85006 0.0
C9290 C 0.57041 0.83447 0.86944 0.0
C9291 C 0.57483 0.83829 0.87348 0.0
C9292 C 0.57278 0.82893 0.86577 0.0
C9293 C 0.57962 0.82706 0.86608 0.0
C9294 C 0.58397 0.83069 0.87036 0.0
C9295 C 0.5816 0.83624 0.87401 0.0
H9296 H 0.93918 0.17473 0.91289 0.0
H9297 H 0.94718 0.16278 0.89647 0.0
H9298 H 0.93172 0.18051 0.90505 0.0
H9299 H 0.93974 0.16866 0.88859 0.0
H9300 H 0.91774 0.17223 0.88069 0.0
H9301 H 0.92743 0.16809 0.88706 0.0
H9302 H 0.93056 0.18804 0.89529 0.0
H9303 H 0.92075 0.19213 0.88907 0.0
C9304 C 0.93946 0.17344 0.90758 0.0
C9305 C 0.94372 0.16823 0.90532 0.0
C9306 C 0.9352 0.17679 0.90307 0.0
C9307 C 0.93508 0.17499 0.89621 0.0
C9308 C 0.93964 0.17008 0.89387 0.0
C9309 C 0.94393 0.16675 0.89838 0.0
C9310 C 0.92053 0.17574 0.88383 0.0
C9311 C 0.91844 0.18249 0.88442 0.0
C9312 C 0.92613 0.17339 0.88741 0.0
C9313 C 0.92975 0.17774 0.8917 0.0
C9314 C 0.92783 0.18455 0.89208 0.0
C9315 C 0.92225 0.18691 0.88847 0.0
H9316 H 0.59437 0.19734 0.64636 0.0
H9317 H 0.58216 0.18938 0.6626 0.0
H9318 H 0.58852 0.18998 0.63838 0.0
H9319 H 0.57641 0.18199 0.65466 0.0
H9320 H 0.56488 0.17114 0.6386 0.0
H9321 H 0.56898 0.18094 0.64485 0.0
H9322 H 0.58898 0.17768 0.63677 0.0
H9323 H 0.58483 0.16802 0.63037 0.0
C9324 C 0.59036 0.19412 0.64821 0.0
C9325 C 0.58879 0.19388 0.65513 0.0
C9326 C 0.58704 0.18988 0.64364 0.0
C9327 C 0.58206 0.18535 0.6459 0.0
C9328 C 0.58019 0.18545 0.65274 0.0
C9329 C 0.58352 0.18966 0.65731 0.0
C9330 C 0.57012 0.17261 0.63804 0.0
C9331 C 0.57455 0.16877 0.63403 0.0
C9332 C 0.57248 0.17819 0.64166 0.0
C9333 C 0.57931 0.18006 0.64134 0.0
C9334 C 0.58367 0.17641 0.63708 0.0
C9335 C 0.58132 0.17083 0.63348 0.0
H9336 H 0.55829 0.83225 0.40271 0.0
H9337 H 0.57107 0.84991 0.40339 0.0
H9338 H 0.56582 0.82714 0.39436 0.0
H9339 H 0.57862 0.84479 0.39525 0.0
H9340 H 0.58963 0.83623 0.37774 0.0
H9341 H 0.58014 0.8412 0.38382 0.0
H9342 H 0.57712 0.82241 0.39446 0.0
H9343 H 0.58652 0.81742 0.38831 0.0
C9344 C 0.56264 0.83506 0.40103 0.0
C9345 C 0.56408 0.84146 0.40375 0.0
C9346 C 0.56699 0.83213 0.39628 0.0
C9347 C 0.57284 0.83555 0.39414 0.0
C9348 C 0.57412 0.84205 0.39669 0.0
C9349 C 0.56979 0.84496 0.40141 0.0
C9350 C 0.58689 0.83315 0.38133 0.0
C9351 C 0.58886 0.82646 0.38259 0.0
C9352 C 0.58146 0.836 0.38482 0.0
C9353 C 0.57791 0.83223 0.38969 0.0
C9354 C 0.57968 0.82543 0.3907 0.0
C9355 C 0.58509 0.82258 0.38718 0.0
H9356 H 0.92342 0.80862 0.15227 0.0
H9357 H 0.90534 0.82068 0.15034 0.0
H9358 H 0.92923 0.81609 0.14434 0.0
H9359 H 0.91116 0.82818 0.14263 0.0
H9360 H 0.92144 0.83913 0.12605 0.0
H9361 H 0.91608 0.8296 0.13173 0.0
H9362 H 0.93353 0.82752 0.14466 0.0
H9363 H 0.93891 0.83695 0.13889 0.0
C9364 C 0.92067 0.8128 0.15011 0.0
C9365 C 0.91394 0.81407 0.15198 0.0
C9366 C 0.924 0.81711 0.14559 0.0
C9367 C 0.92067 0.82276 0.14286 0.0
C9368 C 0.91386 0.82384 0.14454 0.0
C9369 C 0.91055 0.81955 0.14902 0.0
C9370 C 0.92414 0.83659 0.13007 0.0
C9371 C 0.93056 0.83883 0.13207 0.0
C9372 C 0.92108 0.83113 0.13332 0.0
C9373 C 0.92434 0.82784 0.13871 0.0
C9374 C 0.9309 0.82988 0.14049 0.0
C9375 C 0.93398 0.83531 0.13719 0.0
H9376 H 0.59375 0.93896 0.83277 0.0
H9377 H 0.61044 0.94749 0.84394 0.0
H9378 H 0.6015 0.9315 0.82686 0.0
H9379 H 0.61822 0.94005 0.83793 0.0
H9380 H 0.62639 0.91813 0.83448 0.0
H9381 H 0.62 0.92777 0.83868 0.0
H9382 H 0.61099 0.93038 0.81899 0.0
H9383 H 0.61726 0.92061 0.81484 0.0
C9384 C 0.59909 0.93935 0.83386 0.0
C9385 C 0.60146 0.94376 0.8389 0.0
C9386 C 0.60355 0.93509 0.83044 0.0
C9387 C 0.61047 0.93513 0.83199 0.0
C9388 C 0.6129 0.93984 0.83671 0.0
C9389 C 0.60844 0.94413 0.84012 0.0
C9390 C 0.62308 0.92079 0.83104 0.0
C9391 C 0.62228 0.91857 0.82435 0.0
C9392 C 0.61948 0.92637 0.83342 0.0
C9393 C 0.61497 0.92983 0.82917 0.0
C9394 C 0.61438 0.92778 0.8224 0.0
C9395 C 0.61801 0.92222 0.82001 0.0
H9396 H 0.81799 0.84397 0.58229 0.0
H9397 H 0.8096 0.85987 0.59465 0.0
H9398 H 0.82522 0.85213 0.57667 0.0
H9399 H 0.81681 0.86808 0.58893 0.0
H9400 H 0.83856 0.87669 0.58524 0.0
H9401 H 0.82909 0.87001 0.58937 0.0
H9402 H 0.82595 0.86204 0.56931 0.0
H9403 H 0.83556 0.86857 0.56522 0.0
C9404 C 0.81759 0.84923 0.58372 0.0
C9405 C 0.81328 0.85125 0.58899 0.0
C9406 C 0.82171 0.85393 0.58046 0.0
C9407 C 0.82163 0.86075 0.5824 0.0
C9408 C 0.81704 0.86284 0.5874 0.0
C9409 C 0.81288 0.85814 0.59064 0.0
C9410 C 0.83582 0.87355 0.5817 0.0
C9411 C 0.83786 0.87311 0.57492 0.0
C9412 C 0.83034 0.86978 0.58405 0.0
C9413 C 0.82678 0.86547 0.57967 0.0
C9414 C 0.82863 0.86527 0.57282 0.0
C9415 C 0.8341 0.86905 0.57047 0.0
H9416 H 0.89725 0.05915 0.34412 0.0
H9417 H 0.91386 0.06871 0.3337 0.0
H9418 H 0.88934 0.0666 0.33829 0.0
H9419 H 0.90598 0.07615 0.32793 0.0
H9420 H 0.88057 0.08848 0.33515 0.0
H9421 H 0.88723 0.07901 0.33937 0.0
H9422 H 0.89651 0.0768 0.31975 0.0
H9423 H 0.88994 0.08636 0.31558 0.0
C9424 C 0.8992 0.06274 0.34049 0.0
C9425 C 0.90619 0.06338 0.33942 0.0
C9426 C 0.89467 0.06704 0.33719 0.0
C9427 C 0.89704 0.072 0.3327 0.0
C9428 C 0.90399 0.07235 0.33132 0.0
C9429 C 0.90852 0.0681 0.33466 0.0
C9430 C 0.88399 0.08594 0.33173 0.0
C9431 C 0.88476 0.08819 0.32505 0.0
C9432 C 0.88775 0.08047 0.33412 0.0
C9433 C 0.89241 0.07717 0.32989 0.0
C9434 C 0.893 0.07927 0.32314 0.0
C9435 C 0.8892 0.08471 0.32074 0.0
H9436 H 0.69798 0.14674 0.09398 0.0
H9437 H 0.68913 0.16331 0.08288 0.0
H9438 H 0.69081 0.13883 0.08781 0.0
H9439 H 0.68194 0.15543 0.07682 0.0
H9440 H 0.67157 0.13956 0.06455 0.0
H9441 H 0.68116 0.14599 0.06884 0.0
H9442 H 0.67857 0.13673 0.08842 0.0
H9443 H 0.66911 0.13018 0.08408 0.0
C9444 C 0.6946 0.14869 0.09014 0.0
C9445 C 0.69407 0.15568 0.08898 0.0
C9446 C 0.69047 0.14416 0.08664 0.0
C9447 C 0.68576 0.14651 0.08189 0.0
C9448 C 0.68555 0.15344 0.08041 0.0
C9449 C 0.68965 0.15798 0.08392 0.0
C9450 C 0.67315 0.13879 0.06972 0.0
C9451 C 0.66955 0.1344 0.07399 0.0
C9452 C 0.67861 0.14251 0.07219 0.0
C9453 C 0.68061 0.1419 0.07898 0.0
C9454 C 0.67721 0.13727 0.08315 0.0
C9455 C 0.67173 0.13358 0.08069 0.0
H9456 H 0.61051 0.05932 0.66371 0.0
H9457 H 0.59391 0.06784 0.67503 0.0
H9458 H 0.61837 0.0666 0.66981 0.0
H9459 H 0.60173 0.07514 0.68102 0.0
H9460 H 0.61744 0.08594 0.69305 0.0
H9461 H 0.61121 0.07616 0.68887 0.0
H9462 H 0.62026 0.07884 0.6692 0.0
H9463 H 0.62663 0.08848 0.67343 0.0
C9464 C 0.60855 0.06264 0.66758 0.0
C9465 C 0.60157 0.06306 0.66881 0.0
C9466 C 0.61305 0.06684 0.67104 0.0
C9467 C 0.61067 0.0715 0.67584 0.0
C9468 C 0.60375 0.07158 0.6774 0.0
C9469 C 0.59925 0.06741 0.67392 0.0
C9470 C 0.61822 0.08434 0.68788 0.0
C9471 C 0.62248 0.08802 0.68355 0.0
C9472 C 0.61461 0.07877 0.68547 0.0
C9473 C 0.61521 0.07675 0.6787 0.0
C9474 C 0.61973 0.08022 0.67447 0.0
C9475 C 0.62332 0.0858 0.67686 0.0
H9476 H 0.689 0.84312 0.42442 0.0
H9477 H 0.69691 0.86045 0.41379 0.0
H9478 H 0.68099 0.85035 0.43027 0.0
H9479 H 0.6888 0.86768 0.4196 0.0
H9480 H 0.67494 0.87922 0.43445 0.0
H9481 H 0.68453 0.87242 0.43055 0.0
H9482 H 0.67092 0.85607 0.4258 0.0
H9483 H 0.66144 0.86274 0.4298 0.0
C9484 C 0.68912 0.84849 0.42341 0.0
C9485 C 0.69353 0.85118 0.41855 0.0
C9486 C 0.68449 0.85263 0.42674 0.0
C9487 C 0.68417 0.85956 0.42529 0.0
C9488 C 0.68892 0.86236 0.42082 0.0
C9489 C 0.69356 0.8582 0.41748 0.0
C9490 C 0.67403 0.87415 0.43261 0.0
C9491 C 0.66743 0.87153 0.43238 0.0
C9492 C 0.67951 0.87028 0.43036 0.0
C9493 C 0.67849 0.86369 0.42792 0.0
C9494 C 0.67189 0.86108 0.42775 0.0
C9495 C 0.66644 0.86495 0.42995 0.0
H9496 H 0.91312 0.93912 0.17478 0.0
H9497 H 0.8966 0.94746 0.16322 0.0
H9498 H 0.90532 0.9317 0.18066 0.0
H9499 H 0.88876 0.94006 0.16921 0.0
H9500 H 0.88047 0.91824 0.17287 0.0
H9501 H 0.88696 0.9278 0.16862 0.0
H9502 H 0.89572 0.93066 0.18839 0.0
H9503 H 0.88936 0.92098 0.1926 0.0
C9504 C 0.90782 0.93948 0.17361 0.0
C9505 C 0.90552 0.94382 0.16847 0.0
C9506 C 0.90331 0.93524 0.177 0.0
C9507 C 0.89642 0.93524 0.17534 0.0
C9508 C 0.89406 0.93988 0.17051 0.0
C9509 C 0.89856 0.94413 0.16713 0.0
C9510 C 0.88375 0.92094 0.17632 0.0
C9511 C 0.88445 0.91882 0.18305 0.0
C9512 C 0.88741 0.92647 0.17391 0.0
C9513 C 0.89187 0.92998 0.17817 0.0
C9514 C 0.89237 0.92802 0.18497 0.0
C9515 C 0.88868 0.92251 0.18739 0.0
H9516 H 0.81856 0.16248 0.92626 0.0
H9517 H 0.81049 0.14717 0.91298 0.0
H9518 H 0.82595 0.15416 0.9314 0.0
H9519 H 0.81789 0.13879 0.9182 0.0
H9520 H 0.83981 0.13034 0.92175 0.0
H9521 H 0.83027 0.13707 0.91782 0.0
H9522 H 0.82665 0.14387 0.93823 0.0
H9523 H 0.8363 0.1373 0.94212 0.0
C9524 C 0.81827 0.15731 0.92452 0.0
C9525 C 0.81398 0.15551 0.91916 0.0
C9526 C 0.82248 0.15252 0.9275 0.0
C9527 C 0.82254 0.14582 0.92517 0.0
C9528 C 0.81801 0.14393 0.92004 0.0
C9529 C 0.81375 0.14873 0.91709 0.0
C9530 C 0.83694 0.13324 0.9254 0.0
C9531 C 0.83885 0.13334 0.93223 0.0
C9532 C 0.83143 0.13703 0.92316 0.0
C9533 C 0.82772 0.14103 0.92771 0.0
C9534 C 0.82945 0.14089 0.93459 0.0
C9535 C 0.83494 0.13707 0.93683 0.0
H9536 H 0.8323 0.59363 0.94027 0.0
H9537 H 0.84399 0.61022 0.94828 0.0
H9538 H 0.8263 0.60136 0.93289 0.0
H9539 H 0.83787 0.618 0.94092 0.0
H9540 H 0.834 0.62597 0.919 0.0
H9541 H 0.83832 0.61965 0.92864 0.0
H9542 H 0.81858 0.61094 0.93181 0.0
H9543 H 0.81431 0.61712 0.92204 0.0
C9544 C 0.83348 0.59893 0.94057 0.0
C9545 C 0.83869 0.60127 0.9448 0.0
C9546 C 0.83002 0.6034 0.93636 0.0
C9547 C 0.83167 0.61029 0.93626 0.0
C9548 C 0.83657 0.6127 0.94081 0.0
C9549 C 0.84002 0.60824 0.94504 0.0
C9550 C 0.83058 0.62274 0.92178 0.0
C9551 C 0.82384 0.62199 0.91972 0.0
C9552 C 0.83303 0.61918 0.92736 0.0
C9553 C 0.8288 0.61477 0.93098 0.0
C9554 C 0.82198 0.61425 0.92908 0.0
C9555 C 0.81952 0.61783 0.92352 0.0
H9556 H 0.33285 0.90341 0.05779 0.0
H9557 H 0.34999 0.90295 0.07128 0.0
H9558 H 0.32692 0.8954 0.06515 0.0
H9559 H 0.34409 0.89515 0.07859 0.0
H9560 H 0.33443 0.87785 0.08882 0.0
H9561 H 0.33988 0.88377 0.0795 0.0
H9562 H 0.32185 0.89566 0.07651 0.0
H9563 H 0.31638 0.88968 0.0858 0.0
C9564 C 0.33537 0.90156 0.06227 0.0
C9565 C 0.34188 0.90385 0.06396 0.0
C9566 C 0.33197 0.897 0.0665 0.0
C9567 C 0.33504 0.89462 0.07245 0.0
C9568 C 0.34161 0.89677 0.074 0.0
C9569 C 0.34498 0.90131 0.06982 0.0
C9570 C 0.33162 0.88169 0.08613 0.0
C9571 C 0.32502 0.88336 0.0881 0.0
C9572 C 0.33473 0.88508 0.08079 0.0
C9573 C 0.33134 0.89026 0.07732 0.0
C9574 C 0.32459 0.89167 0.07904 0.0
C9575 C 0.32146 0.88825 0.08437 0.0
H9576 H 0.85546 0.59986 0.82143 0.0
H9577 H 0.85393 0.58175 0.80935 0.0
H9578 H 0.86366 0.59439 0.82864 0.0
H9579 H 0.86236 0.57629 0.81653 0.0
H9580 H 0.86864 0.56684 0.8373 0.0
H9581 H 0.86251 0.57196 0.82795 0.0
H9582 H 0.87478 0.58991 0.82976 0.0
H9583 H 0.88082 0.58481 0.83921 0.0
C9584 C 0.85697 0.59474 0.82023 0.0
C9585 C 0.85398 0.59122 0.81484 0.0
C9586 C 0.86174 0.59161 0.82435 0.0
C9587 C 0.86367 0.58489 0.82319 0.0
C9588 C 0.86091 0.58145 0.81761 0.0
C9589 C 0.85611 0.58459 0.81347 0.0
C9590 C 0.87012 0.57183 0.8356 0.0
C9591 C 0.87515 0.57546 0.83903 0.0
C9592 C 0.86662 0.57476 0.83023 0.0
C9593 C 0.8681 0.58138 0.82814 0.0
C9594 C 0.87341 0.58485 0.83133 0.0
C9595 C 0.87688 0.58194 0.83673 0.0
H9596 H 0.17419 0.09283 0.56786 0.0
H9597 H 0.1632 0.11024 0.56063 0.0
H9598 H 0.18024 0.09996 0.57583 0.0
H9599 H 0.1692 0.11735 0.56871 0.0
H9600 H 0.18389 0.12892 0.5824 0.0
H9601 H 0.18004 0.12218 0.57276 0.0
H9602 H 0.17619 0.10539 0.58615 0.0
H9603 H 0.18018 0.11202 0.59566 0.0
C9604 C 0.17314 0.0982 0.56788 0.0
C9605 C 0.16813 0.10095 0.56368 0.0
C9606 C 0.17658 0.10228 0.57248 0.0
C9607 C 0.1751 0.10919 0.573 0.0
C9608 C 0.17046 0.11204 0.56844 0.0
C9609 C 0.16701 0.10796 0.56382 0.0
C9610 C 0.18228 0.12377 0.58325 0.0
C9611 C 0.18228 0.12102 0.5898 0.0
C9612 C 0.18004 0.11992 0.57775 0.0
C9613 C 0.17784 0.11324 0.57868 0.0
C9614 C 0.17795 0.11048 0.58522 0.0
C9615 C 0.18014 0.11432 0.5907 0.0
H9616 H 0.15323 0.9246 0.80838 0.0
H9617 H 0.15236 0.9071 0.82138 0.0
H9618 H 0.1452 0.93042 0.81579 0.0
H9619 H 0.14455 0.9129 0.82876 0.0
H9620 H 0.12737 0.92258 0.83916 0.0
H9621 H 0.13326 0.91727 0.82974 0.0
H9622 H 0.14543 0.93519 0.82724 0.0
H9623 H 0.13946 0.94053 0.83661 0.0
C9624 C 0.15128 0.92197 0.81276 0.0
C9625 C 0.15346 0.91539 0.81429 0.0
C9626 C 0.14672 0.92532 0.81702 0.0
C9627 C 0.14422 0.92213 0.82286 0.0
C9628 C 0.14626 0.91548 0.82425 0.0
C9629 C 0.15081 0.91216 0.82003 0.0
C9630 C 0.13126 0.9254 0.83655 0.0
C9631 C 0.13301 0.93193 0.83868 0.0
C9632 C 0.13464 0.92237 0.83116 0.0
C9633 C 0.13989 0.92577 0.8278 0.0
C9634 C 0.14138 0.93245 0.82968 0.0
C9635 C 0.13797 0.9355 0.83506 0.0
H9636 H 0.65799 0.40392 0.43569 0.0
H9637 H 0.67543 0.40404 0.4488 0.0
H9638 H 0.66355 0.39596 0.42829 0.0
H9639 H 0.681 0.39586 0.44137 0.0
H9640 H 0.69097 0.38962 0.42063 0.0
H9641 H 0.68585 0.39584 0.42996 0.0
H9642 H 0.6674 0.38451 0.42734 0.0
H9643 H 0.6725 0.37837 0.41796 0.0
C9644 C 0.66299 0.40218 0.43706 0.0
C9645 C 0.66628 0.40466 0.44284 0.0
C9646 C 0.66616 0.39755 0.43282 0.0
C9647 C 0.67271 0.39523 0.43424 0.0
C9648 C 0.67596 0.39758 0.44011 0.0
C9649 C 0.67277 0.40224 0.44438 0.0
C9650 C 0.68587 0.38836 0.42214 0.0
C9651 C 0.6821 0.38358 0.4185 0.0
C9652 C 0.68294 0.39192 0.4275 0.0
C9653 C 0.67619 0.39074 0.42933 0.0
C9654 C 0.67257 0.38565 0.42595 0.0
C9655 C 0.67548 0.38213 0.42058 0.0
H9656 H 0.84448 0.42398 0.68847 0.0
H9657 H 0.86093 0.41356 0.6983 0.0
H9658 H 0.85252 0.43036 0.68175 0.0
H9659 H 0.869 0.42004 0.6916 0.0
H9660 H 0.87882 0.42443 0.67046 0.0
H9661 H 0.87195 0.4197 0.67951 0.0
H9662 H 0.86158 0.43876 0.68163 0.0
H9663 H 0.86832 0.44344 0.67243 0.0
C9664 C 0.84982 0.42314 0.6893 0.0
C9665 C 0.85205 0.4182 0.69387 0.0
C9666 C 0.85444 0.42684 0.68547 0.0
C9667 C 0.8614 0.42567 0.6861 0.0
C9668 C 0.86366 0.42099 0.69094 0.0
C9669 C 0.85903 0.41731 0.6948 0.0
C9670 C 0.87511 0.42763 0.6729 0.0
C9671 C 0.87407 0.43429 0.67068 0.0
C9672 C 0.87122 0.42494 0.67814 0.0
C9673 C 0.86619 0.42885 0.68127 0.0
C9674 C 0.86537 0.43561 0.67927 0.0
C9675 C 0.86928 0.4383 0.67404 0.0
H9676 H 0.64656 0.59304 0.19805 0.0
H9677 H 0.66304 0.5828 0.18807 0.0
H9678 H 0.63853 0.58711 0.19079 0.0
H9679 H 0.65504 0.57695 0.18082 0.0
H9680 H 0.62932 0.58402 0.16908 0.0
H9681 H 0.63606 0.58819 0.17852 0.0
H9682 H 0.6457 0.56872 0.18024 0.0
H9683 H 0.63908 0.5646 0.1707 0.0
C9684 C 0.64846 0.58943 0.1944 0.0
C9685 C 0.65545 0.58844 0.19359 0.0
C9686 C 0.64386 0.58607 0.19022 0.0
C9687 C 0.64615 0.58161 0.1852 0.0
C9688 C 0.65311 0.58032 0.18468 0.0
C9689 C 0.6577 0.5837 0.18881 0.0
C9690 C 0.63284 0.58062 0.17151 0.0
C9691 C 0.63371 0.574 0.16911 0.0
C9692 C 0.63664 0.58298 0.17697 0.0
C9693 C 0.64143 0.57879 0.1801 0.0
C9694 C 0.64209 0.57208 0.17789 0.0
C9695 C 0.63826 0.56971 0.17246 0.0
H9696 H 0.56947 0.66865 0.91374 0.0
H9697 H 0.55518 0.66877 0.89729 0.0
H9698 H 0.57787 0.67402 0.9065 0.0
H9699 H 0.56361 0.67421 0.89003 0.0
H9700 H 0.58408 0.67698 0.87809 0.0
H9701 H 0.57532 0.67142 0.88484 0.0
H9702 H 0.5788 0.68561 0.90101 0.0
H9703 H 0.58753 0.69115 0.8943 0.0
C9704 C 0.56817 0.6697 0.90853 0.0
C9705 C 0.56172 0.66818 0.90604 0.0
C9706 C 0.57295 0.67286 0.90442 0.0
C9707 C 0.57138 0.67454 0.89771 0.0
C9708 C 0.56495 0.67293 0.89517 0.0
C9709 C 0.56014 0.66985 0.89932 0.0
C9710 C 0.58294 0.67892 0.88307 0.0
C9711 C 0.58647 0.6845 0.88567 0.0
C9712 C 0.57791 0.67576 0.88691 0.0
C9713 C 0.57642 0.67807 0.89346 0.0
C9714 C 0.57989 0.6837 0.896 0.0
C9715 C 0.58484 0.6869 0.89214 0.0
H9716 H 0.5835 0.30439 0.15023 0.0
H9717 H 0.59474 0.32009 0.16036 0.0
H9718 H 0.57866 0.3128 0.14263 0.0
H9719 H 0.59009 0.32842 0.15265 0.0
H9720 H 0.58477 0.34066 0.13389 0.0
H9721 H 0.59014 0.33165 0.14033 0.0
H9722 H 0.57066 0.32259 0.14393 0.0
H9723 H 0.56525 0.33167 0.13763 0.0
C9724 C 0.58502 0.30962 0.15078 0.0
C9725 C 0.58965 0.31153 0.15583 0.0
C9726 C 0.58224 0.31443 0.14644 0.0
C9727 C 0.58403 0.32126 0.14701 0.0
C9728 C 0.58872 0.32316 0.15199 0.0
C9729 C 0.59145 0.31836 0.15638 0.0
C9730 C 0.58162 0.33676 0.13606 0.0
C9731 C 0.57456 0.33694 0.13529 0.0
C9732 C 0.58471 0.33159 0.13974 0.0
C9733 C 0.58082 0.32644 0.14267 0.0
C9734 C 0.57379 0.32646 0.14168 0.0
C9735 C 0.5707 0.33166 0.13804 0.0
H9736 H 0.95287 0.33353 0.39986 0.0
H9737 H 0.93733 0.34561 0.40924 0.0
H9738 H 0.94444 0.32859 0.39234 0.0
H9739 H 0.929 0.34086 0.40161 0.0
H9740 H 0.91686 0.33506 0.38296 0.0
H9741 H 0.92595 0.34046 0.38925 0.0
H9742 H 0.93441 0.32092 0.39385 0.0
H9743 H 0.92523 0.31548 0.3877 0.0
C9744 C 0.94768 0.33522 0.40027 0.0
C9745 C 0.94582 0.34011 0.40508 0.0
C9746 C 0.94286 0.33237 0.39596 0.0
C9747 C 0.93608 0.33438 0.39635 0.0
C9748 C 0.93423 0.33932 0.40109 0.0
C9749 C 0.93903 0.34211 0.40544 0.0
C9750 C 0.92064 0.3319 0.38532 0.0
C9751 C 0.92026 0.32482 0.38487 0.0
C9752 C 0.92586 0.33501 0.3889 0.0
C9753 C 0.93086 0.33111 0.39207 0.0
C9754 C 0.93065 0.32405 0.39141 0.0
C9755 C 0.9254 0.32094 0.38786 0.0
H9756 H 0.90719 0.68948 0.65235 0.0
H9757 H 0.92649 0.69928 0.65487 0.0
H9758 H 0.91254 0.68059 0.64576 0.0
H9759 H 0.93185 0.69041 0.6482 0.0
H9760 H 0.93805 0.67631 0.63085 0.0
H9761 H 0.93248 0.68558 0.63679 0.0
H9762 H 0.92035 0.67122 0.64783 0.0
H9763 H 0.92593 0.66198 0.64198 0.0
C9764 C 0.91259 0.68968 0.6516 0.0
C9765 C 0.91644 0.69498 0.65431 0.0
C9766 C 0.91565 0.68461 0.64777 0.0
C9767 C 0.92264 0.68474 0.64652 0.0
C9768 C 0.92646 0.69017 0.64904 0.0
C9769 C 0.92338 0.69524 0.65288 0.0
C9770 C 0.93422 0.67513 0.63457 0.0
C9771 C 0.93243 0.66839 0.63592 0.0
C9772 C 0.93102 0.68045 0.63797 0.0
C9773 C 0.92595 0.67914 0.64277 0.0
C9774 C 0.92414 0.67241 0.64408 0.0
C9775 C 0.92734 0.66711 0.64071 0.0
H9776 H 0.55654 0.33727 0.61035 0.0
H9777 H 0.57086 0.33858 0.59397 0.0
H9778 H 0.56521 0.33202 0.61748 0.0
H9779 H 0.57949 0.33342 0.60106 0.0
H9780 H 0.58983 0.31628 0.61268 0.0
H9781 H 0.58092 0.32171 0.60614 0.0
H9782 H 0.57679 0.33512 0.62281 0.0
H9783 H 0.58574 0.32966 0.6294 0.0
C9784 C 0.56156 0.3365 0.60831 0.0
C9785 C 0.56307 0.33844 0.60165 0.0
C9786 C 0.56651 0.33353 0.61238 0.0
C9787 C 0.57301 0.33232 0.60981 0.0
C9788 C 0.57451 0.33428 0.60316 0.0
C9789 C 0.5696 0.33733 0.59913 0.0
C9790 C 0.58697 0.32033 0.61498 0.0
C9791 C 0.58847 0.32254 0.62155 0.0
C9792 C 0.58192 0.32348 0.61122 0.0
C9793 C 0.5782 0.32886 0.61396 0.0
C9794 C 0.57957 0.33097 0.62059 0.0
C9795 C 0.58471 0.32788 0.62434 0.0
H9796 H 0.90785 0.31701 0.85342 0.0
H9797 H 0.92665 0.30601 0.85271 0.0
H9798 H 0.91319 0.32572 0.86024 0.0
H9799 H 0.93188 0.3145 0.85987 0.0
H9800 H 0.94119 0.33498 0.8651 0.0
H9801 H 0.93578 0.32586 0.85892 0.0
H9802 H 0.91784 0.32823 0.87113 0.0
H9803 H 0.92326 0.33744 0.87726 0.0
C9804 C 0.91313 0.31647 0.85466 0.0
C9805 C 0.91687 0.31092 0.85232 0.0
C9806 C 0.91617 0.32141 0.8587 0.0
C9807 C 0.923 0.32086 0.86055 0.0
C9808 C 0.92666 0.31517 0.85842 0.0
C9809 C 0.92363 0.31027 0.85436 0.0
C9810 C 0.93613 0.33349 0.86653 0.0
C9811 C 0.93266 0.33693 0.87167 0.0
C9812 C 0.93302 0.32825 0.86299 0.0
C9813 C 0.92636 0.32629 0.86452 0.0
C9814 C 0.92293 0.32967 0.86974 0.0
C9815 C 0.92604 0.33494 0.87326 0.0
H9816 H 0.95296 0.67045 0.10923 0.0
H9817 H 0.93755 0.66359 0.09544 0.0
H9818 H 0.94428 0.67523 0.11656 0.0
H9819 H 0.92889 0.66839 0.10269 0.0
H9820 H 0.9143 0.67334 0.11943 0.0
H9821 H 0.92322 0.66751 0.11332 0.0
H9822 H 0.93653 0.68448 0.11659 0.0
H9823 H 0.92773 0.69014 0.12303 0.0
C9824 C 0.94771 0.66991 0.1078 0.0
C9825 C 0.94593 0.66653 0.10183 0.0
C9826 C 0.94274 0.67268 0.11198 0.0
C9827 C 0.93587 0.6722 0.11023 0.0
C9828 C 0.9341 0.66874 0.10428 0.0
C9829 C 0.93908 0.66594 0.10013 0.0
C9830 C 0.91917 0.67578 0.11897 0.0
C9831 C 0.92028 0.68223 0.12173 0.0
C9832 C 0.92426 0.67247 0.11538 0.0
C9833 C 0.93059 0.67553 0.11442 0.0
C9834 C 0.93174 0.68192 0.11729 0.0
C9835 C 0.92666 0.68522 0.12091 0.0
H9836 H 0.59757 0.69061 0.35174 0.0
H9837 H 0.57862 0.70136 0.35169 0.0
H9838 H 0.59266 0.68198 0.35899 0.0
H9839 H 0.57382 0.69295 0.35923 0.0
H9840 H 0.56505 0.67248 0.36533 0.0
H9841 H 0.5701 0.68145 0.35863 0.0
H9842 H 0.58848 0.67982 0.37025 0.0
H9843 H 0.58343 0.67076 0.37693 0.0
C9844 C 0.59235 0.69111 0.35321 0.0
C9845 C 0.58844 0.69658 0.35095 0.0
C9846 C 0.58956 0.68622 0.35749 0.0
C9847 C 0.58281 0.68673 0.35965 0.0
C9848 C 0.57898 0.69232 0.35756 0.0
C9849 C 0.58176 0.69718 0.35327 0.0
C9850 C 0.57014 0.6741 0.36653 0.0
C9851 C 0.57383 0.67092 0.37168 0.0
C9852 C 0.57304 0.67925 0.36268 0.0
C9853 C 0.5797 0.68137 0.3639 0.0
C9854 C 0.58337 0.67824 0.36911 0.0
C9855 C 0.58047 0.67307 0.37295 0.0
H9856 H 0.91025 0.57444 0.66436 0.0
H9857 H 0.89767 0.55696 0.66787 0.0
H9858 H 0.90245 0.58137 0.67071 0.0
H9859 H 0.88973 0.56403 0.67424 0.0
H9860 H 0.88182 0.57904 0.69119 0.0
H9861 H 0.88887 0.57105 0.68491 0.0
H9862 H 0.89101 0.58563 0.66884 0.0
H9863 H 0.88427 0.59365 0.67516 0.0
C9864 C 0.90581 0.57206 0.66648 0.0
C9865 C 0.90456 0.56514 0.66554 0.0
C9866 C 0.90131 0.57606 0.6701 0.0
C9867 C 0.89542 0.57328 0.67288 0.0
C9868 C 0.89424 0.56631 0.67214 0.0
C9869 C 0.89877 0.56227 0.66849 0.0
C9870 C 0.88378 0.58052 0.6863 0.0
C9871 C 0.8825 0.58701 0.6837 0.0
C9872 C 0.88776 0.57592 0.68269 0.0
C9873 C 0.89056 0.57775 0.67642 0.0
C9874 C 0.88902 0.58411 0.67371 0.0
C9875 C 0.88507 0.58869 0.6773 0.0
H9876 H 0.701 0.6546 0.92662 0.0
H9877 H 0.68927 0.65331 0.9083 0.0
H9878 H 0.69287 0.64733 0.93233 0.0
H9879 H 0.68095 0.6464 0.91408 0.0
H9880 H 0.67001 0.62931 0.92453 0.0
H9881 H 0.67905 0.63548 0.91889 0.0
H9882 H 0.68156 0.64793 0.93664 0.0
H9883 H 0.67259 0.6417 0.94228 0.0
C9884 C 0.69666 0.65281 0.92382 0.0
C9885 C 0.69569 0.6547 0.91704 0.0
C9886 C 0.69197 0.64868 0.92711 0.0
C9887 C 0.6862 0.64633 0.9237 0.0
C9888 C 0.68533 0.64809 0.91687 0.0
C9889 C 0.69004 0.65219 0.91358 0.0
C9890 C 0.67251 0.63336 0.92723 0.0
C9891 C 0.67057 0.63503 0.93385 0.0
C9892 C 0.67768 0.63691 0.92399 0.0
C9893 C 0.68101 0.64224 0.92729 0.0
C9894 C 0.67918 0.6438 0.93397 0.0
C9895 C 0.67403 0.64023 0.93722 0.0
H9896 H 0.60379 0.44019 0.15873 0.0
H9897 H 0.60223 0.45077 0.17773 0.0
H9898 H 0.61089 0.43168 0.16404 0.0
H9899 H 0.60963 0.44248 0.18296 0.0
H9900 H 0.61546 0.42192 0.19186 0.0
H9901 H 0.60904 0.43093 0.18654 0.0
H9902 H 0.62184 0.42967 0.16891 0.0
H9903 H 0.62823 0.42057 0.17424 0.0
C9904 C 0.6049 0.44067 0.16405 0.0
C9905 C 0.60225 0.44604 0.16785 0.0
C9906 C 0.6091 0.43586 0.16707 0.0
C9907 C 0.61079 0.43635 0.17395 0.0
C9908 C 0.60833 0.44186 0.17769 0.0
C9909 C 0.60412 0.44665 0.17467 0.0
C9910 C 0.61697 0.42363 0.18689 0.0
C9911 C 0.62236 0.42053 0.18348 0.0
C9912 C 0.61329 0.42881 0.18383 0.0
C9913 C 0.61491 0.43103 0.17729 0.0
C9914 C 0.62038 0.42801 0.17391 0.0
C9915 C 0.62406 0.42281 0.17697 0.0
H9916 H 0.8159 0.35384 0.40824 0.0
H9917 H 0.80713 0.35205 0.42812 0.0
H9918 H 0.82478 0.36104 0.4128 0.0
H9919 H 0.81593 0.35934 0.43266 0.0
H9920 H 0.82966 0.37707 0.43765 0.0
H9921 H 0.82034 0.37095 0.4324 0.0
H9922 H 0.83456 0.35957 0.42041 0.0
H9923 H 0.84386 0.36559 0.4257 0.0
C9924 C 0.81591 0.35489 0.41359 0.0
C9925 C 0.81092 0.3522 0.41785 0.0
C9926 C 0.82097 0.35908 0.4162 0.0
C9927 C 0.8211 0.36072 0.42311 0.0
C9928 C 0.81595 0.35822 0.42731 0.0
C9929 C 0.81092 0.35402 0.42471 0.0
C9930 C 0.8308 0.37325 0.4339 0.0
C9931 C 0.83752 0.37182 0.43212 0.0
C9932 C 0.82546 0.36975 0.43089 0.0
C9933 C 0.82671 0.36477 0.42599 0.0
C9934 C 0.83341 0.36345 0.42409 0.0
C9935 C 0.83875 0.36692 0.42712 0.0
H9936 H 0.90463 0.45068 0.82951 0.0
H9937 H 0.90339 0.43955 0.84821 0.0
H9938 H 0.89721 0.4425 0.82414 0.0
H9939 H 0.89629 0.43114 0.84274 0.0
H9940 H 0.87902 0.42005 0.83244 0.0
H9941 H 0.88533 0.42909 0.83796 0.0
H9942 H 0.89784 0.43112 0.82018 0.0
H9943 H 0.89148 0.42218 0.81467 0.0
C9944 C 0.90281 0.44646 0.83247 0.0
C9945 C 0.90477 0.44567 0.83925 0.0
C9946 C 0.89859 0.44174 0.82937 0.0
C9947 C 0.89622 0.4361 0.83297 0.0
C9948 C 0.89801 0.43542 0.83981 0.0
C9949 C 0.9022 0.44018 0.84292 0.0
C9950 C 0.88311 0.42245 0.82972 0.0
C9951 C 0.88474 0.42041 0.82311 0.0
C9952 C 0.88674 0.42761 0.83288 0.0
C9953 C 0.89211 0.43083 0.82952 0.0
C9954 C 0.89366 0.42885 0.82288 0.0
C9955 C 0.89001 0.42372 0.81971 0.0
H9956 H 0.80646 0.65585 0.07964 0.0
H9957 H 0.81674 0.65319 0.09868 0.0
H9958 H 0.81466 0.6485 0.07418 0.0
H9959 H 0.82517 0.64615 0.09315 0.0
H9960 H 0.83608 0.62908 0.08231 0.0
H9961 H 0.82704 0.63541 0.08782 0.0
H9962 H 0.82623 0.64898 0.07075 0.0
H9963 H 0.83516 0.64261 0.06524 0.0
C9964 C 0.8105 0.65373 0.08266 0.0
C9965 C 0.81106 0.65527 0.08957 0.0
C9966 C 0.81523 0.64956 0.07951 0.0
C9967 C 0.82064 0.64681 0.08319 0.0
C9968 C 0.82107 0.64817 0.09015 0.0
C9969 C 0.81631 0.65233 0.09331 0.0
C9970 C 0.83395 0.6334 0.07974 0.0
C9971 C 0.83632 0.63533 0.07333 0.0
C9972 C 0.82879 0.63705 0.0829 0.0
C9973 C 0.82591 0.64272 0.07974 0.0
C9974 C 0.82824 0.64457 0.07329 0.0
C9975 C 0.83336 0.64092 0.07012 0.0
H9976 H 0.60316 0.56623 0.34921 0.0
H9977 H 0.6008 0.55745 0.32939 0.0
H9978 H 0.61053 0.5749 0.34448 0.0
H9979 H 0.60824 0.56604 0.32469 0.0
H9980 H 0.62642 0.57904 0.31941 0.0
H9981 H 0.61999 0.56999 0.32476 0.0
H9982 H 0.60935 0.58469 0.33686 0.0
H9983 H 0.61571 0.59372 0.33149 0.0
C9984 C 0.60412 0.56621 0.34384 0.0
C9985 C 0.60123 0.56127 0.33965 0.0
C9986 C 0.60839 0.57114 0.34113 0.0
C9987 C 0.60993 0.57118 0.3342 0.0
C9988 C 0.60721 0.56611 0.33006 0.0
C9989 C 0.60292 0.56121 0.33275 0.0
C9990 C 0.6227 0.58034 0.3232 0.0
C9991 C 0.62158 0.58711 0.32501 0.0
C9992 C 0.61902 0.57516 0.32628 0.0
C9993 C 0.61416 0.57663 0.33123 0.0
C9994 C 0.61314 0.58338 0.33314 0.0
C9995 C 0.6168 0.58856 0.33006 0.0
H9996 H 0.69876 0.36109 0.59321 0.0
H9997 H 0.68724 0.34346 0.58751 0.0
H9998 H 0.69129 0.36814 0.58634 0.0
H9999 H 0.67988 0.35046 0.58064 0.0
H10000 H 0.66263 0.36563 0.57916 0.0
H10001 H 0.67134 0.35877 0.58438 0.0
H10002 H 0.68673 0.37072 0.57458 0.0
H10003 H 0.67792 0.37775 0.56941 0.0
C10004 C 0.69474 0.3587 0.59038 0.0
C10005 C 0.69353 0.35173 0.591 0.0
C10006 C 0.69047 0.36273 0.58644 0.0
C10007 C 0.68493 0.35986 0.58307 0.0
C10008 C 0.68403 0.35284 0.58331 0.0
C10009 C 0.68827 0.34882 0.58723 0.0
C10010 C 0.66787 0.36685 0.57816 0.0
C10011 C 0.66959 0.37226 0.57391 0.0
C10012 C 0.67286 0.36286 0.58108 0.0
C10013 C 0.67972 0.36417 0.57983 0.0
C10014 C 0.68148 0.36961 0.57563 0.0
C10015 C 0.67645 0.3736 0.57265 0.0
H10016 H 0.67358 0.89993 0.55551 0.0
H10017 H 0.66225 0.91067 0.57072 0.0
H10018 H 0.67869 0.89297 0.56427 0.0
H10019 H 0.66694 0.90345 0.57939 0.0
H10020 H 0.68273 0.89572 0.59393 0.0
H10021 H 0.67735 0.90211 0.58496 0.0
H10022 H 0.67698 0.88424 0.57243 0.0
H10023 H 0.68257 0.87787 0.58143 0.0
C10024 C 0.67206 0.90072 0.56071 0.0
C10025 C 0.66738 0.90579 0.56238 0.0
C10026 C 0.67496 0.89669 0.56573 0.0
C10027 C 0.67324 0.89764 0.57256 0.0
C10028 C 0.66845 0.90261 0.5742 0.0
C10029 C 0.66561 0.90668 0.56919 0.0
C10030 C 0.68146 0.89315 0.58927 0.0
C10031 C 0.68302 0.88629 0.5884 0.0
C10032 C 0.67834 0.8968 0.58413 0.0
C10033 C 0.67664 0.89368 0.57798 0.0
C10034 C 0.67827 0.88682 0.57707 0.0
C10035 C 0.68146 0.88317 0.58222 0.0
H10036 H 0.16992 0.60925 0.45269 0.0
H10037 H 0.16532 0.59428 0.43753 0.0
H10038 H 0.17518 0.61635 0.44404 0.0
H10039 H 0.17046 0.6014 0.4289 0.0
H10040 H 0.18838 0.61154 0.41806 0.0
H10041 H 0.18244 0.60498 0.42663 0.0
H10042 H 0.17221 0.623 0.43339 0.0
H10043 H 0.17821 0.6296 0.4248 0.0
C10044 C 0.16994 0.60753 0.44749 0.0
C10045 C 0.1671 0.60127 0.44576 0.0
C10046 C 0.17292 0.6116 0.44255 0.0
C10047 C 0.17323 0.60942 0.43581 0.0
C10048 C 0.17031 0.60319 0.43407 0.0
C10049 C 0.16727 0.59916 0.43899 0.0
C10050 C 0.18491 0.61411 0.42141 0.0
C10051 C 0.18378 0.62108 0.42079 0.0
C10052 C 0.18145 0.61034 0.42626 0.0
C10053 C 0.17684 0.61347 0.43065 0.0
C10054 C 0.17576 0.62046 0.43008 0.0
C10055 C 0.17916 0.62423 0.42516 0.0
H10056 H 0.65254 0.90759 0.6905 0.0
H10057 H 0.65562 0.92684 0.70024 0.0
H10058 H 0.64575 0.91304 0.68182 0.0
H10059 H 0.64876 0.93231 0.69157 0.0
H10060 H 0.63109 0.93873 0.67796 0.0
H10061 H 0.63725 0.93313 0.68707 0.0
H10062 H 0.64765 0.92079 0.67241 0.0
H10063 H 0.64155 0.92637 0.66334 0.0
C10064 C 0.65187 0.913 0.69072 0.0
C10065 C 0.65479 0.91681 0.69594 0.0
C10066 C 0.64793 0.91613 0.68578 0.0
C10067 C 0.64678 0.92313 0.68596 0.0
C10068 C 0.64951 0.9269 0.69131 0.0
C10069 C 0.65346 0.92377 0.69625 0.0
C10070 C 0.63471 0.93484 0.67669 0.0
C10071 C 0.6358 0.93298 0.66992 0.0
C10072 C 0.63824 0.93163 0.6819 0.0
C10073 C 0.64292 0.92649 0.68047 0.0
C10074 C 0.64399 0.92463 0.6737 0.0
C10075 C 0.64048 0.92784 0.6685 0.0
H10076 H 0.32874 0.40478 0.95172 0.0
H10077 H 0.34784 0.40513 0.94123 0.0
H10078 H 0.32415 0.39734 0.94311 0.0
H10079 H 0.34314 0.39801 0.93239 0.0
H10080 H 0.33421 0.38046 0.92041 0.0
H10081 H 0.3391 0.38686 0.92976 0.0
H10082 H 0.32056 0.3982 0.93162 0.0
H10083 H 0.31568 0.39176 0.92238 0.0
C10084 C 0.33196 0.40331 0.94755 0.0
C10085 C 0.33861 0.40573 0.94707 0.0
C10086 C 0.3293 0.39908 0.94258 0.0
C10087 C 0.33323 0.39716 0.93698 0.0
C10088 C 0.33996 0.39939 0.93662 0.0
C10089 C 0.34263 0.4036 0.94163 0.0
C10090 C 0.33119 0.38432 0.92283 0.0
C10091 C 0.32455 0.38559 0.92067 0.0
C10092 C 0.33399 0.388 0.92817 0.0
C10093 C 0.33022 0.39305 0.93145 0.0
C10094 C 0.32356 0.39427 0.92931 0.0
C10095 C 0.32076 0.39057 0.924 0.0
H10096 H 0.34457 0.59127 0.6877 0.0
H10097 H 0.3602 0.58772 0.70246 0.0
H10098 H 0.35112 0.58515 0.67925 0.0
H10099 H 0.36674 0.58149 0.694 0.0
H10100 H 0.37914 0.57821 0.67402 0.0
H10101 H 0.37286 0.58406 0.68293 0.0
H10102 H 0.35484 0.57314 0.67738 0.0
H10103 H 0.36108 0.56734 0.66847 0.0
C10104 C 0.34945 0.58927 0.6891 0.0
C10105 C 0.35194 0.59009 0.69569 0.0
C10106 C 0.35316 0.58568 0.6843 0.0
C10107 C 0.35945 0.58285 0.68597 0.0
C10108 C 0.36194 0.58367 0.69256 0.0
C10109 C 0.35819 0.5872 0.6974 0.0
C10110 C 0.37384 0.57705 0.67473 0.0
C10111 C 0.3706 0.57232 0.67055 0.0
C10112 C 0.37026 0.58037 0.67985 0.0
C10113 C 0.36336 0.57907 0.68082 0.0
C10114 C 0.36014 0.57427 0.6767 0.0
C10115 C 0.36373 0.57091 0.67165 0.0
H10116 H 0.84849 0.10322 0.06731 0.0
H10117 H 0.82961 0.10146 0.05659 0.0
H10118 H 0.84304 0.11028 0.07578 0.0
H10119 H 0.82423 0.10881 0.06484 0.0
H10120 H 0.81514 0.11475 0.08531 0.0
H10121 H 0.82057 0.10827 0.0764 0.0
H10122 H 0.83807 0.12123 0.07763 0.0
H10123 H 0.83264 0.12768 0.08662 0.0
C10124 C 0.84317 0.10428 0.06679 0.0
C10125 C 0.83945 0.1016 0.06139 0.0
C10126 C 0.84007 0.10844 0.07158 0.0
C10127 C 0.83317 0.11007 0.07103 0.0
C10128 C 0.82951 0.10756 0.0655 0.0
C10129 C 0.83261 0.10338 0.06073 0.0
C10130 C 0.8201 0.11628 0.08361 0.0
C10131 C 0.82345 0.12173 0.08668 0.0
C10132 C 0.82323 0.11257 0.0785 0.0
C10133 C 0.82977 0.11422 0.0763 0.0
C10134 C 0.83308 0.11975 0.07928 0.0
C10135 C 0.82996 0.12346 0.08442 0.0
H10136 H 0.64898 0.08366 0.80466 0.0
H10137 H 0.66048 0.09454 0.81964 0.0
H10138 H 0.64223 0.07854 0.81361 0.0
H10139 H 0.65349 0.08983 0.8285 0.0
H10140 H 0.64612 0.07376 0.84298 0.0
H10141 H 0.65223 0.07922 0.83386 0.0
H10142 H 0.63383 0.08038 0.8222 0.0
H10143 H 0.62772 0.07475 0.83135 0.0
C10144 C 0.64998 0.08508 0.80985 0.0
C10145 C 0.6552 0.08964 0.81141 0.0
C10146 C 0.64607 0.08218 0.81498 0.0
C10147 C 0.64731 0.08376 0.82179 0.0
C10148 C 0.65243 0.08843 0.82332 0.0
C10149 C 0.65636 0.09128 0.8182 0.0
C10150 C 0.64336 0.07522 0.83849 0.0
C10151 C 0.63643 0.07388 0.8379 0.0
C10152 C 0.64686 0.07838 0.83326 0.0
C10153 C 0.64352 0.08033 0.82731 0.0
C10154 C 0.63658 0.07891 0.82668 0.0
C10155 C 0.63308 0.07569 0.83192 0.0
H10156 H 0.85796 0.92266 0.30458 0.0
H10157 H 0.84722 0.91192 0.32022 0.0
H10158 H 0.86546 0.92748 0.31309 0.0
H10159 H 0.85482 0.91656 0.32866 0.0
H10160 H 0.87325 0.9218 0.34137 0.0
H10161 H 0.86698 0.91635 0.33228 0.0
H10162 H 0.86411 0.93569 0.32265 0.0
H10163 H 0.87024 0.94118 0.3318 0.0
C10164 C 0.85725 0.92124 0.30981 0.0
C10165 C 0.85207 0.91676 0.31168 0.0
C10166 C 0.86154 0.92402 0.31468 0.0
C10167 C 0.86076 0.92236 0.32153 0.0
C10168 C 0.85564 0.91782 0.3234 0.0
C10169 C 0.85132 0.91509 0.31854 0.0
C10170 C 0.87127 0.9249 0.33733 0.0
C10171 C 0.87221 0.93194 0.33736 0.0
C10172 C 0.8677 0.92177 0.33211 0.0
C10173 C 0.86503 0.9256 0.32678 0.0
C10174 C 0.86617 0.9326 0.32666 0.0
C10175 C 0.8697 0.93574 0.33191 0.0
H10176 H 0.43953 0.33247 0.09443 0.0
H10177 H 0.44808 0.34388 0.11094 0.0
H10178 H 0.43214 0.32663 0.10229 0.0
H10179 H 0.44072 0.33793 0.11884 0.0
H10180 H 0.41894 0.33441 0.12728 0.0
H10181 H 0.42851 0.33859 0.12077 0.0
H10182 H 0.43105 0.31887 0.11181 0.0
H10183 H 0.42134 0.31475 0.11818 0.0
C10184 C 0.43994 0.33363 0.09975 0.0
C10185 C 0.44434 0.33871 0.10204 0.0
C10186 C 0.43572 0.33024 0.10427 0.0
C10187 C 0.43578 0.33187 0.11118 0.0
C10188 C 0.44048 0.33665 0.11353 0.0
C10189 C 0.44472 0.34002 0.109 0.0
C10190 C 0.42157 0.33096 0.12395 0.0
C10191 C 0.41934 0.32427 0.1232 0.0
C10192 C 0.4271 0.33333 0.12028 0.0
C10193 C 0.43053 0.32907 0.11575 0.0
C10194 C 0.42848 0.3223 0.11521 0.0
C10195 C 0.42295 0.31992 0.1189 0.0
H10196 H 0.41287 0.69804 0.86082 0.0
H10197 H 0.42443 0.68945 0.84442 0.0
H10198 H 0.41879 0.69075 0.86879 0.0
H10199 H 0.43025 0.68212 0.85236 0.0
H10200 H 0.44206 0.67147 0.86838 0.0
H10201 H 0.43795 0.68114 0.86196 0.0
H10202 H 0.41816 0.67852 0.87075 0.0
H10203 H 0.42232 0.66898 0.87731 0.0
C10204 C 0.41676 0.69469 0.85892 0.0
C10205 C 0.41812 0.69427 0.85196 0.0
C10206 C 0.42012 0.69048 0.86349 0.0
C10207 C 0.42493 0.6858 0.8612 0.0
C10208 C 0.4266 0.6857 0.8543 0.0
C10209 C 0.42323 0.68989 0.84974 0.0
C10210 C 0.43687 0.67306 0.86906 0.0
C10211 C 0.4325 0.66943 0.87332 0.0
C10212 C 0.4345 0.67856 0.86534 0.0
C10213 C 0.42772 0.68058 0.86581 0.0
C10214 C 0.42343 0.67714 0.87031 0.0
C10215 C 0.42579 0.67162 0.87401 0.0
H10216 H 0.068 0.67433 0.59441 0.0
H10217 H 0.05949 0.66304 0.61103 0.0
H10218 H 0.07549 0.68016 0.6022 0.0
H10219 H 0.06696 0.66895 0.61885 0.0
H10220 H 0.08898 0.67232 0.62692 0.0
H10221 H 0.07929 0.66818 0.62055 0.0
H10222 H 0.07658 0.68796 0.61178 0.0
H10223 H 0.08639 0.69205 0.61802 0.0
C10224 C 0.06762 0.67319 0.59975 0.0
C10225 C 0.06321 0.66815 0.60208 0.0
C10226 C 0.0719 0.67657 0.60422 0.0
C10227 C 0.07187 0.67496 0.61113 0.0
C10228 C 0.06717 0.67022 0.61353 0.0
C10229 C 0.06285 0.66687 0.60906 0.0
C10230 C 0.08628 0.67579 0.62367 0.0
C10231 C 0.08848 0.68249 0.62293 0.0
C10232 C 0.08068 0.67345 0.62008 0.0
C10233 C 0.07718 0.67774 0.61564 0.0
C10234 C 0.07921 0.68451 0.61512 0.0
C10235 C 0.08479 0.68687 0.61873 0.0
H10236 H 0.0935 0.30945 0.36214 0.0
H10237 H 0.08476 0.31907 0.34461 0.0
H10238 H 0.08702 0.31697 0.36947 0.0
H10239 H 0.07838 0.32658 0.35192 0.0
H10240 H 0.06499 0.33736 0.36666 0.0
H10241 H 0.06946 0.32765 0.36054 0.0
H10242 H 0.08812 0.32923 0.37171 0.0
H10243 H 0.08358 0.33885 0.37793 0.0
C10244 C 0.09011 0.31307 0.35985 0.0
C10245 C 0.08971 0.31371 0.35279 0.0
C10246 C 0.08643 0.3174 0.36405 0.0
C10247 C 0.08225 0.32241 0.36127 0.0
C10248 C 0.08152 0.32275 0.35422 0.0
C10249 C 0.08522 0.31846 0.35003 0.0
C10250 C 0.06999 0.33555 0.36791 0.0
C10251 C 0.07396 0.3389 0.37275 0.0
C10252 C 0.07257 0.33001 0.36436 0.0
C10253 C 0.07915 0.32769 0.36562 0.0
C10254 C 0.083 0.33086 0.37067 0.0
C10255 C 0.08044 0.33641 0.37418 0.0
H10256 H 0.44008 0.67362 0.41314 0.0
H10257 H 0.44641 0.66276 0.3953 0.0
H10258 H 0.43207 0.68004 0.40638 0.0
H10259 H 0.43828 0.66909 0.38857 0.0
H10260 H 0.42435 0.68396 0.37766 0.0
H10261 H 0.4342 0.67995 0.38399 0.0
H10262 H 0.4215 0.67638 0.40137 0.0
H10263 H 0.41179 0.68053 0.39516 0.0
C10264 C 0.43985 0.67268 0.40775 0.0
C10265 C 0.4438 0.66759 0.40478 0.0
C10266 C 0.43523 0.67633 0.40389 0.0
C10267 C 0.43443 0.67497 0.39697 0.0
C10268 C 0.43877 0.67027 0.39389 0.0
C10269 C 0.44342 0.66662 0.39775 0.0
C10270 C 0.4237 0.68239 0.38286 0.0
C10271 C 0.41728 0.6825 0.3859 0.0
C10272 C 0.42933 0.68006 0.38646 0.0
C10273 C 0.42864 0.67788 0.39319 0.0
C10274 C 0.42224 0.67812 0.39623 0.0
C10275 C 0.41664 0.68041 0.39264 0.0
H10276 H 0.09399 0.69639 0.14689 0.0
H10277 H 0.08228 0.68965 0.16403 0.0
H10278 H 0.08819 0.68822 0.13973 0.0
H10279 H 0.07642 0.68159 0.15685 0.0
H10280 H 0.07675 0.66149 0.14532 0.0
H10281 H 0.08056 0.67114 0.15185 0.0
H10282 H 0.07756 0.68409 0.13457 0.0
H10283 H 0.0739 0.67432 0.12792 0.0
C10284 C 0.09006 0.69329 0.1491 0.0
C10285 C 0.08869 0.69359 0.15606 0.0
C10286 C 0.08672 0.68862 0.14499 0.0
C10287 C 0.08194 0.68416 0.14776 0.0
C10288 C 0.08019 0.68485 0.1546 0.0
C10289 C 0.08353 0.6895 0.15871 0.0
C10290 C 0.07694 0.66638 0.14288 0.0
C10291 C 0.07509 0.66712 0.13608 0.0
C10292 C 0.07902 0.67194 0.14666 0.0
C10293 C 0.07931 0.6784 0.14375 0.0
C10294 C 0.07741 0.67918 0.13695 0.0
C10295 C 0.07528 0.67359 0.13316 0.0
H10296 H 0.05757 0.33241 0.90353 0.0
H10297 H 0.07054 0.34992 0.90238 0.0
H10298 H 0.06488 0.32654 0.89545 0.0
H10299 H 0.07782 0.34407 0.89451 0.0
H10300 H 0.08795 0.33426 0.87721 0.0
H10301 H 0.07865 0.33963 0.88323 0.0
H10302 H 0.07632 0.32178 0.89555 0.0
H10303 H 0.08557 0.31639 0.88946 0.0
C10304 C 0.06192 0.33503 0.90151 0.0
C10305 C 0.06348 0.34163 0.90363 0.0
C10306 C 0.06613 0.33166 0.89691 0.0
C10307 C 0.07193 0.33484 0.89432 0.0
C10308 C 0.07334 0.3415 0.8963 0.0
C10309 C 0.06918 0.34485 0.90088 0.0
C10310 C 0.08541 0.33147 0.88116 0.0
C10311 C 0.08755 0.32494 0.88291 0.0
C10312 C 0.08008 0.33454 0.88461 0.0
C10313 C 0.0768 0.33117 0.88994 0.0
C10314 C 0.07869 0.3245 0.89144 0.0
C10315 C 0.08401 0.32141 0.88796 0.0
H10316 H 0.4128 0.30932 0.64543 0.0
H10317 H 0.42309 0.31827 0.66247 0.0
H10318 H 0.41921 0.31657 0.63778 0.0
H10319 H 0.4294 0.32554 0.65484 0.0
H10320 H 0.44228 0.33598 0.63948 0.0
H10321 H 0.43777 0.32638 0.64575 0.0
H10322 H 0.41861 0.32881 0.63565 0.0
H10323 H 0.42317 0.33829 0.62926 0.0
C10324 C 0.41651 0.31274 0.64754 0.0
C10325 C 0.41737 0.31327 0.65457 0.0
C10326 C 0.42015 0.31692 0.64316 0.0
C10327 C 0.42475 0.32168 0.64571 0.0
C10328 C 0.42592 0.32189 0.65271 0.0
C10329 C 0.42227 0.31775 0.65708 0.0
C10330 C 0.43715 0.33437 0.63849 0.0
C10331 C 0.43306 0.33792 0.63391 0.0
C10332 C 0.43455 0.3289 0.64212 0.0
C10333 C 0.42782 0.32685 0.64123 0.0
C10334 C 0.42383 0.33021 0.63641 0.0
C10335 C 0.42642 0.3357 0.63281 0.0
H10336 H 0.09481 0.43882 0.33189 0.0
H10337 H 0.11035 0.44672 0.34502 0.0
H10338 H 0.10307 0.43154 0.32648 0.0
H10339 H 0.11865 0.43946 0.33951 0.0
H10340 H 0.12712 0.41769 0.33577 0.0
H10341 H 0.12039 0.42718 0.3398 0.0
H10342 H 0.11323 0.43073 0.31951 0.0
H10343 H 0.1198 0.42111 0.31552 0.0
C10344 C 0.10002 0.43911 0.33353 0.0
C10345 C 0.1019 0.4433 0.33895 0.0
C10346 C 0.10477 0.43496 0.3304 0.0
C10347 C 0.11151 0.43487 0.33261 0.0
C10348 C 0.11347 0.43934 0.33776 0.0
C10349 C 0.10872 0.44353 0.34088 0.0
C10350 C 0.12414 0.42053 0.33217 0.0
C10351 C 0.12394 0.41861 0.32534 0.0
C10352 C 0.12035 0.42601 0.33446 0.0
C10353 C 0.11625 0.42969 0.32998 0.0
C10354 C 0.11628 0.42795 0.3231 0.0
C10355 C 0.12009 0.42248 0.3208 0.0
H10356 H 0.30966 0.35981 0.09354 0.0
H10357 H 0.3192 0.34342 0.08276 0.0
H10358 H 0.31689 0.36787 0.08762 0.0
H10359 H 0.32645 0.35143 0.07695 0.0
H10360 H 0.33675 0.3674 0.06482 0.0
H10361 H 0.32718 0.36082 0.06893 0.0
H10362 H 0.32909 0.37027 0.0885 0.0
H10363 H 0.33854 0.37698 0.08433 0.0
C10364 C 0.31321 0.35793 0.08982 0.0
C10365 C 0.3139 0.35096 0.08868 0.0
C10366 C 0.31738 0.36255 0.08647 0.0
C10367 C 0.32229 0.36028 0.08187 0.0
C10368 C 0.32269 0.35335 0.08042 0.0
C10369 C 0.31855 0.34875 0.08379 0.0
C10370 C 0.33502 0.36819 0.06995 0.0
C10371 C 0.33843 0.37267 0.07427 0.0
C10372 C 0.32958 0.36438 0.07232 0.0
C10373 C 0.3274 0.36499 0.07905 0.0
C10374 C 0.3306 0.36972 0.08327 0.0
C10375 C 0.33606 0.37351 0.08091 0.0
H10376 H 0.41335 0.56751 0.83298 0.0
H10377 H 0.39625 0.56089 0.84479 0.0
H10378 H 0.40616 0.57546 0.827 0.0
H10379 H 0.38906 0.56896 0.83886 0.0
H10380 H 0.37731 0.58272 0.82427 0.0
H10381 H 0.38392 0.57297 0.82807 0.0
H10382 H 0.40117 0.58595 0.83116 0.0
H10383 H 0.39467 0.59558 0.82724 0.0
C10384 C 0.40803 0.56766 0.83423 0.0
C10385 C 0.4054 0.56364 0.83945 0.0
C10386 C 0.40392 0.57225 0.83082 0.0
C10387 C 0.39708 0.57294 0.83256 0.0
C10388 C 0.39431 0.56854 0.83741 0.0
C10389 C 0.39844 0.56393 0.84081 0.0
C10390 C 0.38254 0.58346 0.82571 0.0
C10391 C 0.38546 0.58992 0.82552 0.0
C10392 C 0.3863 0.57789 0.82791 0.0
C10393 C 0.39308 0.57868 0.82988 0.0
C10394 C 0.396 0.58514 0.82958 0.0
C10395 C 0.39224 0.59068 0.82743 0.0
H10396 H 0.18843 0.66367 0.58206 0.0
H10397 H 0.19582 0.64713 0.59421 0.0
H10398 H 0.18029 0.65615 0.57677 0.0
H10399 H 0.18758 0.63961 0.58895 0.0
H10400 H 0.17359 0.62728 0.57475 0.0
H10401 H 0.1833 0.6341 0.57829 0.0
H10402 H 0.17005 0.65108 0.58169 0.0
H10403 H 0.16045 0.64437 0.57805 0.0
C10404 C 0.1884 0.6584 0.58353 0.0
C10405 C 0.1927 0.65603 0.58864 0.0
C10406 C 0.1837 0.6541 0.58052 0.0
C10407 C 0.1832 0.64733 0.58255 0.0
C10408 C 0.18784 0.64481 0.58728 0.0
C10409 C 0.19256 0.64912 0.59031 0.0
C10410 C 0.17278 0.63248 0.57622 0.0
C10411 C 0.16625 0.63528 0.57617 0.0
C10412 C 0.17832 0.63637 0.57827 0.0
C10413 C 0.17744 0.64314 0.58021 0.0
C10414 C 0.17091 0.64591 0.58012 0.0
C10415 C 0.1654 0.64203 0.57813 0.0
H10416 H 0.09441 0.56801 0.17304 0.0
H10417 H 0.11155 0.55925 0.16275 0.0
H10418 H 0.10193 0.57546 0.17924 0.0
H10419 H 0.1191 0.56669 0.16905 0.0
H10420 H 0.12712 0.58868 0.17251 0.0
H10421 H 0.12092 0.57898 0.16819 0.0
H10422 H 0.11109 0.57662 0.18752 0.0
H10423 H 0.11719 0.58645 0.1918 0.0
C10424 C 0.0998 0.56756 0.1722 0.0
C10425 C 0.10237 0.5631 0.16732 0.0
C10426 C 0.10412 0.57182 0.17579 0.0
C10427 C 0.1111 0.57172 0.17457 0.0
C10428 C 0.11372 0.56695 0.17002 0.0
C10429 C 0.1094 0.56266 0.16644 0.0
C10430 C 0.12367 0.58606 0.17585 0.0
C10431 C 0.1226 0.58837 0.18247 0.0
C10432 C 0.12018 0.58045 0.1734 0.0
C10433 C 0.1155 0.57704 0.17751 0.0
C10434 C 0.11463 0.57918 0.18422 0.0
C10435 C 0.11815 0.58477 0.18668 0.0
H10436 H 0.18429 0.35041 0.90951 0.0
H10437 H 0.19993 0.35487 0.92406 0.0
H10438 H 0.17687 0.35843 0.91496 0.0
H10439 H 0.19238 0.36304 0.92956 0.0
H10440 H 0.17203 0.36908 0.94126 0.0
H10441 H 0.18125 0.36267 0.93613 0.0
H10442 H 0.17604 0.37081 0.9166 0.0
H10443 H 0.16687 0.37722 0.9217 0.0
C10444 C 0.18618 0.35313 0.91386 0.0
C10445 C 0.19273 0.35199 0.91634 0.0
C10446 C 0.18192 0.35778 0.91696 0.0
C10447 C 0.18406 0.36142 0.92264 0.0
C10448 C 0.1906 0.3603 0.92518 0.0
C10449 C 0.19492 0.35565 0.92202 0.0
C10450 C 0.17296 0.36962 0.9359 0.0
C10451 C 0.16864 0.37357 0.93186 0.0
C10452 C 0.17824 0.36595 0.93297 0.0
C10453 C 0.1793 0.36616 0.92595 0.0
C10454 C 0.17526 0.37045 0.922 0.0
C10455 C 0.17 0.37411 0.92492 0.0
H10456 H 0.40275 0.44892 0.67503 0.0
H10457 H 0.40182 0.43681 0.6569 0.0
H10458 H 0.39453 0.44145 0.68042 0.0
H10459 H 0.39381 0.42932 0.6623 0.0
H10460 H 0.37662 0.41847 0.67168 0.0
H10461 H 0.38264 0.42794 0.66661 0.0
H10462 H 0.39459 0.43002 0.68475 0.0
H10463 H 0.38849 0.42063 0.68983 0.0
C10464 C 0.40075 0.44473 0.67217 0.0
C10465 C 0.40298 0.44345 0.66555 0.0
C10466 C 0.39607 0.44042 0.67527 0.0
C10467 C 0.39352 0.43476 0.6718 0.0
C10468 C 0.39557 0.43367 0.66509 0.0
C10469 C 0.40022 0.43796 0.66202 0.0
C10470 C 0.3805 0.421 0.67459 0.0
C10471 C 0.38213 0.41876 0.68112 0.0
C10472 C 0.38395 0.42642 0.6717 0.0
C10473 C 0.38916 0.4297 0.67524 0.0
C10474 C 0.39056 0.42767 0.6819 0.0
C10475 C 0.38707 0.42227 0.68481 0.0
H10476 H 0.31804 0.66242 0.42493 0.0
H10477 H 0.3097 0.64614 0.41304 0.0
H10478 H 0.32541 0.65449 0.43069 0.0
H10479 H 0.31703 0.63816 0.41891 0.0
H10480 H 0.33885 0.6298 0.4224 0.0
H10481 H 0.32925 0.63632 0.41831 0.0
H10482 H 0.32648 0.64479 0.43822 0.0
H10483 H 0.33622 0.63842 0.44227 0.0
C10484 C 0.31766 0.65714 0.42366 0.0
C10485 C 0.31335 0.65495 0.41846 0.0
C10486 C 0.32187 0.65256 0.42698 0.0
C10487 C 0.32186 0.6457 0.4252 0.0
C10488 C 0.31723 0.64343 0.42031 0.0
C10489 C 0.31301 0.64802 0.417 0.0
C10490 C 0.33617 0.63303 0.42591 0.0
C10491 C 0.33834 0.63365 0.43264 0.0
C10492 C 0.33061 0.6367 0.42359 0.0
C10493 C 0.32712 0.6411 0.42793 0.0
C10494 C 0.32911 0.64149 0.43473 0.0
C10495 C 0.33465 0.6378 0.43706 0.0
H10496 H 0.33202 0.09281 0.43984 0.0
H10497 H 0.34364 0.11013 0.44626 0.0
H10498 H 0.32597 0.09986 0.4318 0.0
H10499 H 0.33765 0.11715 0.43811 0.0
H10500 H 0.32309 0.12868 0.42428 0.0
H10501 H 0.3269 0.12216 0.43408 0.0
H10502 H 0.32995 0.1048 0.42123 0.0
H10503 H 0.326 0.11122 0.41156 0.0
C10504 C 0.33321 0.09814 0.43962 0.0
C10505 C 0.3384 0.10088 0.44362 0.0
C10506 C 0.32977 0.10217 0.43498 0.0
C10507 C 0.33144 0.10903 0.43421 0.0
C10508 C 0.33625 0.11189 0.43858 0.0
C10509 C 0.33969 0.10785 0.44324 0.0
C10510 C 0.32451 0.12345 0.42359 0.0
C10511 C 0.3243 0.12048 0.41714 0.0
C10512 C 0.32673 0.11973 0.42918 0.0
C10513 C 0.3287 0.11295 0.42844 0.0
C10514 C 0.32837 0.10998 0.42201 0.0
C10515 C 0.3262 0.11369 0.41644 0.0
H10516 H 0.84928 0.40327 0.57254 0.0
H10517 H 0.83321 0.40213 0.55782 0.0
H10518 H 0.84329 0.39544 0.57976 0.0
H10519 H 0.8272 0.39412 0.56511 0.0
H10520 H 0.8157 0.38836 0.58538 0.0
H10521 H 0.82135 0.3945 0.57629 0.0
H10522 H 0.8398 0.38367 0.58048 0.0
H10523 H 0.83417 0.37757 0.58956 0.0
C10524 C 0.84449 0.40129 0.5708 0.0
C10525 C 0.84172 0.40335 0.5646 0.0
C10526 C 0.84108 0.39674 0.57493 0.0
C10527 C 0.83478 0.39411 0.573 0.0
C10528 C 0.83203 0.39608 0.56675 0.0
C10529 C 0.83549 0.40064 0.56256 0.0
C10530 C 0.82092 0.38718 0.58426 0.0
C10531 C 0.82452 0.38255 0.58826 0.0
C10532 C 0.82415 0.39069 0.57904 0.0
C10533 C 0.83105 0.38964 0.57773 0.0
C10534 C 0.83452 0.3847 0.58146 0.0
C10535 C 0.8313 0.38121 0.58667 0.0
H10536 H 0.34392 0.08282 0.31828 0.0
H10537 H 0.3605 0.09435 0.31001 0.0
H10538 H 0.35171 0.07697 0.32575 0.0
H10539 H 0.36832 0.08841 0.31746 0.0
H10540 H 0.37633 0.08487 0.33945 0.0
H10541 H 0.36996 0.08906 0.32978 0.0
H10542 H 0.36134 0.06925 0.32685 0.0
H10543 H 0.36757 0.0651 0.33664 0.0
C10544 C 0.34925 0.084 0.31795 0.0
C10545 C 0.35157 0.08912 0.31361 0.0
C10546 C 0.35373 0.08062 0.32221 0.0
C10547 C 0.36062 0.08228 0.32225 0.0
C10548 C 0.36301 0.08709 0.31761 0.0
C10549 C 0.35853 0.09046 0.31331 0.0
C10550 C 0.37311 0.0814 0.33671 0.0
C10551 C 0.37241 0.07468 0.33884 0.0
C10552 C 0.36952 0.08378 0.33112 0.0
C10553 C 0.36512 0.07949 0.32756 0.0
C10554 C 0.36464 0.07269 0.32953 0.0
C10555 C 0.36825 0.07031 0.3351 0.0
H10556 H 0.67484 0.59418 0.06792 0.0
H10557 H 0.66291 0.61061 0.05992 0.0
H10558 H 0.68066 0.60202 0.07535 0.0
H10559 H 0.66885 0.61848 0.06732 0.0
H10560 H 0.6726 0.62658 0.08918 0.0
H10561 H 0.66837 0.62014 0.07959 0.0
H10562 H 0.68823 0.6117 0.07647 0.0
H10563 H 0.69241 0.618 0.0862 0.0
C10564 C 0.67356 0.59949 0.06764 0.0
C10565 C 0.66834 0.60174 0.06339 0.0
C10566 C 0.67693 0.604 0.07188 0.0
C10567 C 0.67516 0.61086 0.07198 0.0
C10568 C 0.67024 0.6132 0.06743 0.0
C10569 C 0.66688 0.60869 0.06316 0.0
C10570 C 0.67607 0.62338 0.08642 0.0
C10571 C 0.68282 0.62275 0.08849 0.0
C10572 C 0.67367 0.61975 0.08087 0.0
C10573 C 0.67796 0.61539 0.07727 0.0
C10574 C 0.68478 0.61497 0.07917 0.0
C10575 C 0.68719 0.61862 0.08471 0.0
H10576 H 0.66273 0.42416 0.31793 0.0
H10577 H 0.64619 0.4129 0.30921 0.0
H10578 H 0.65486 0.43008 0.32526 0.0
H10579 H 0.6383 0.41892 0.31652 0.0
H10580 H 0.62972 0.42254 0.33826 0.0
H10581 H 0.63631 0.41826 0.32878 0.0
H10582 H 0.64534 0.43794 0.32616 0.0
H10583 H 0.63887 0.44216 0.33576 0.0
C10584 C 0.6574 0.42305 0.31747 0.0
C10585 C 0.65511 0.41799 0.31305 0.0
C10586 C 0.65287 0.42647 0.32165 0.0
C10587 C 0.64596 0.42491 0.32152 0.0
C10588 C 0.64361 0.42016 0.31681 0.0
C10589 C 0.64814 0.41675 0.3126 0.0
C10590 C 0.63308 0.42596 0.33563 0.0
C10591 C 0.63382 0.43267 0.3378 0.0
C10592 C 0.6368 0.42353 0.33015 0.0
C10593 C 0.64136 0.42776 0.32673 0.0
C10594 C 0.6419 0.43454 0.32873 0.0
C10595 C 0.63816 0.43698 0.33419 0.0
H10596 H 0.1756 0.91424 0.93951 0.0
H10597 H 0.16316 0.89765 0.94631 0.0
H10598 H 0.18128 0.90675 0.9316 0.0
H10599 H 0.16881 0.89017 0.93829 0.0
H10600 H 0.18341 0.8778 0.92491 0.0
H10601 H 0.17957 0.88465 0.93449 0.0
H10602 H 0.17696 0.9017 0.92114 0.0
H10603 H 0.1809 0.89495 0.91168 0.0
C10604 C 0.17414 0.90897 0.9394 0.0
C10605 C 0.16885 0.90657 0.94347 0.0
C10606 C 0.17738 0.90469 0.93484 0.0
C10607 C 0.1754 0.89791 0.93423 0.0
C10608 C 0.17045 0.89537 0.93864 0.0
C10609 C 0.1672 0.89967 0.94323 0.0
C10610 C 0.18206 0.88303 0.92406 0.0
C10611 C 0.18241 0.88582 0.91754 0.0
C10612 C 0.17983 0.88693 0.92952 0.0
C10613 C 0.178 0.89373 0.92858 0.0
C10614 C 0.17843 0.89651 0.92206 0.0
C10615 C 0.1806 0.89261 0.91662 0.0
H10616 H 0.35519 0.92412 0.19934 0.0
H10617 H 0.35243 0.90824 0.18463 0.0
H10618 H 0.36358 0.92943 0.19195 0.0
H10619 H 0.36064 0.91355 0.17729 0.0
H10620 H 0.37888 0.92138 0.16701 0.0
H10621 H 0.37257 0.91613 0.17619 0.0
H10622 H 0.36341 0.93534 0.18091 0.0
H10623 H 0.36975 0.9406 0.17174 0.0
C10624 C 0.35641 0.92173 0.19458 0.0
C10625 C 0.35312 0.91577 0.19257 0.0
C10626 C 0.36119 0.92478 0.19034 0.0
C10627 C 0.36279 0.9219 0.18404 0.0
C10628 C 0.35962 0.91585 0.18215 0.0
C10629 C 0.35485 0.91283 0.18635 0.0
C10630 C 0.37556 0.92449 0.17004 0.0
C10631 C 0.37474 0.93138 0.16859 0.0
C10632 C 0.37195 0.92149 0.1753 0.0
C10633 C 0.36742 0.9253 0.17922 0.0
C10634 C 0.3669 0.93228 0.17802 0.0
C10635 C 0.37052 0.93529 0.17276 0.0
H10636 H 0.14519 0.09313 0.6983 0.0
H10637 H 0.16259 0.08533 0.68769 0.0
H10638 H 0.13779 0.08652 0.69097 0.0
H10639 H 0.15521 0.0788 0.68037 0.0
H10640 H 0.14058 0.06506 0.66994 0.0
H10641 H 0.1469 0.06955 0.67953 0.0
H10642 H 0.135 0.0878 0.6788 0.0
H10643 H 0.12859 0.08325 0.66931 0.0
C10644 C 0.14745 0.08991 0.6945 0.0
C10645 C 0.15448 0.08982 0.69354 0.0
C10646 C 0.1432 0.08616 0.69028 0.0
C10647 C 0.14592 0.08219 0.68505 0.0
C10648 C 0.15296 0.08177 0.68437 0.0
C10649 C 0.15719 0.08554 0.68856 0.0
C10650 C 0.13922 0.06997 0.67192 0.0
C10651 C 0.13412 0.07383 0.66884 0.0
C10652 C 0.14287 0.07256 0.67738 0.0
C10653 C 0.14147 0.07904 0.6799 0.0
C10654 C 0.13616 0.08276 0.67702 0.0
C10655 C 0.13254 0.0802 0.67154 0.0
loop_
_geom_bond_atom_site_label_1
_geom_bond_atom_site_label_2
_geom_bond_distance
_geom_bond_site_symmetry_2
_ccdc_geom_bond_type
O0 Cd1 2.300 . S
O0 C7 1.275 . S
Cd1 O0 2.300 . S
Cd1 O9 2.381 . S
Cd1 O10 2.378 . S
O2 Cd3 2.385 . S
O2 C7 1.255 . S
Cd3 O2 2.385 . S
Cd3 O4 2.317 . S
O4 Cd3 2.317 . S
O4 C5 1.232 . S
C5 O4 1.232 . S
C5 O6 1.218 . S
O6 C5 1.218 . S
C7 O0 1.275 . S
C7 O2 1.255 . S
C8 O9 1.258 . S
C8 O10 1.256 . S
O9 Cd1 2.381 . S
O9 C8 1.258 . S
O10 Cd1 2.378 . S
O10 C8 1.256 . S
O11 Cd12 2.300 . S
O11 C18 1.275 . S
Cd12 O11 2.300 . S
Cd12 O20 2.381 . S
Cd12 O21 2.378 . S
O13 Cd14 2.385 . S
O13 C18 1.255 . S
Cd14 O13 2.385 . S
Cd14 O15 2.317 . S
O15 Cd14 2.317 . S
O15 C16 1.232 . S
C16 O15 1.232 . S
C16 O17 1.218 . S
O17 C16 1.218 . S
C18 O11 1.275 . S
C18 O13 1.255 . S
C19 O20 1.258 . S
C19 O21 1.256 . S
O20 Cd12 2.381 . S
O20 C19 1.258 . S
O21 Cd12 2.378 . S
O21 C19 1.256 . S
O22 Cd23 2.300 . S
O22 C29 1.275 . S
Cd23 O22 2.300 . S
Cd23 O31 2.381 . S
Cd23 O32 2.378 . S
O24 Cd25 2.385 . S
O24 C29 1.255 . S
Cd25 O24 2.385 . S
Cd25 O26 2.317 . S
O26 Cd25 2.317 . S
O26 C27 1.232 . S
C27 O26 1.232 . S
C27 O28 1.218 . S
O28 C27 1.218 . S
C29 O22 1.275 . S
C29 O24 1.255 . S
C30 O31 1.258 . S
C30 O32 1.256 . S
O31 Cd23 2.381 . S
O31 C30 1.258 . S
O32 Cd23 2.378 . S
O32 C30 1.256 . S
O33 Cd34 2.300 . S
O33 C40 1.275 . S
Cd34 O33 2.300 . S
Cd34 O42 2.381 . S
Cd34 O43 2.378 . S
O35 Cd36 2.385 . S
O35 C40 1.255 . S
Cd36 O35 2.385 . S
Cd36 O37 2.317 . S
O37 Cd36 2.317 . S
O37 C38 1.232 . S
C38 O37 1.232 . S
C38 O39 1.218 . S
O39 C38 1.218 . S
C40 O33 1.275 . S
C40 O35 1.255 . S
C41 O42 1.258 . S
C41 O43 1.256 . S
O42 Cd34 2.381 . S
O42 C41 1.258 . S
O43 Cd34 2.378 . S
O43 C41 1.256 . S
O44 Cd45 2.300 . S
O44 C51 1.275 . S
Cd45 O44 2.300 . S
Cd45 O53 2.381 . S
Cd45 O54 2.378 . S
O46 Cd47 2.385 . S
O46 C51 1.255 . S
Cd47 O46 2.385 . S
Cd47 O48 2.317 . S
O48 Cd47 2.317 . S
O48 C49 1.232 . S
C49 O48 1.232 . S
C49 O50 1.218 . S
O50 C49 1.218 . S
C51 O44 1.275 . S
C51 O46 1.255 . S
C52 O53 1.258 . S
C52 O54 1.256 . S
O53 Cd45 2.381 . S
O53 C52 1.258 . S
O54 Cd45 2.378 . S
O54 C52 1.256 . S
O55 Cd56 2.300 . S
O55 C62 1.275 . S
Cd56 O55 2.300 . S
Cd56 O64 2.381 . S
Cd56 O65 2.378 . S
O57 Cd58 2.385 . S
O57 C62 1.255 . S
Cd58 O57 2.385 . S
Cd58 O59 2.317 . S
O59 Cd58 2.317 . S
O59 C60 1.232 . S
C60 O59 1.232 . S
C60 O61 1.218 . S
O61 C60 1.218 . S
C62 O55 1.275 . S
C62 O57 1.255 . S
C63 O64 1.258 . S
C63 O65 1.256 . S
O64 Cd56 2.381 . S
O64 C63 1.258 . S
O65 Cd56 2.378 . S
O65 C63 1.256 . S
O66 Cd67 2.300 . S
O66 C73 1.275 . S
Cd67 O66 2.300 . S
Cd67 O75 2.381 . S
Cd67 O76 2.378 . S
O68 Cd69 2.385 . S
O68 C73 1.255 . S
Cd69 O68 2.385 . S
Cd69 O70 2.317 . S
O70 Cd69 2.317 . S
O70 C71 1.232 . S
C71 O70 1.232 . S
C71 O72 1.218 . S
O72 C71 1.218 . S
C73 O66 1.275 . S
C73 O68 1.255 . S
C74 O75 1.258 . S
C74 O76 1.256 . S
O75 Cd67 2.381 . S
O75 C74 1.258 . S
O76 Cd67 2.378 . S
O76 C74 1.256 . S
O77 Cd78 2.300 . S
O77 C84 1.275 . S
Cd78 O77 2.300 . S
Cd78 O86 2.381 . S
Cd78 O87 2.378 . S
O79 Cd80 2.385 . S
O79 C84 1.255 . S
Cd80 O79 2.385 . S
Cd80 O81 2.317 . S
O81 Cd80 2.317 . S
O81 C82 1.232 . S
C82 O81 1.232 . S
C82 O83 1.218 . S
O83 C82 1.218 . S
C84 O77 1.275 . S
C84 O79 1.255 . S
C85 O86 1.258 . S
C85 O87 1.256 . S
O86 Cd78 2.381 . S
O86 C85 1.258 . S
O87 Cd78 2.378 . S
O87 C85 1.256 . S
O88 Cd89 2.300 . S
O88 C95 1.275 . S
Cd89 O88 2.300 . S
Cd89 O97 2.381 . S
Cd89 O98 2.378 . S
O90 Cd91 2.385 . S
O90 C95 1.255 . S
Cd91 O90 2.385 . S
Cd91 O92 2.317 . S
O92 Cd91 2.317 . S
O92 C93 1.232 . S
C93 O92 1.232 . S
C93 O94 1.218 . S
O94 C93 1.218 . S
C95 O88 1.275 . S
C95 O90 1.255 . S
C96 O97 1.258 . S
C96 O98 1.256 . S
O97 Cd89 2.381 . S
O97 C96 1.258 . S
O98 Cd89 2.378 . S
O98 C96 1.256 . S
O99 Cd100 2.300 . S
O99 C106 1.275 . S
Cd100 O99 2.300 . S
Cd100 O108 2.381 . S
Cd100 O109 2.378 . S
O101 Cd102 2.385 . S
O101 C106 1.255 . S
Cd102 O101 2.385 . S
Cd102 O103 2.317 . S
O103 Cd102 2.317 . S
O103 C104 1.232 . S
C104 O103 1.232 . S
C104 O105 1.218 . S
O105 C104 1.218 . S
C106 O99 1.275 . S
C106 O101 1.255 . S
C107 O108 1.258 . S
C107 O109 1.256 . S
O108 Cd100 2.381 . S
O108 C107 1.258 . S
O109 Cd100 2.378 . S
O109 C107 1.256 . S
O110 Cd111 2.300 . S
O110 C117 1.275 . S
Cd111 O110 2.300 . S
Cd111 O119 2.381 . S
Cd111 O120 2.378 . S
O112 Cd113 2.385 . S
O112 C117 1.255 . S
Cd113 O112 2.385 . S
Cd113 O114 2.317 . S
O114 Cd113 2.317 . S
O114 C115 1.232 . S
C115 O114 1.232 . S
C115 O116 1.218 . S
O116 C115 1.218 . S
C117 O110 1.275 . S
C117 O112 1.255 . S
C118 O119 1.258 . S
C118 O120 1.256 . S
O119 Cd111 2.381 . S
O119 C118 1.258 . S
O120 Cd111 2.378 . S
O120 C118 1.256 . S
O121 Cd122 2.300 . S
O121 C128 1.275 . S
Cd122 O121 2.300 . S
Cd122 O130 2.381 . S
Cd122 O131 2.378 . S
O123 Cd124 2.385 . S
O123 C128 1.255 . S
Cd124 O123 2.385 . S
Cd124 O125 2.317 . S
O125 Cd124 2.317 . S
O125 C126 1.232 . S
C126 O125 1.232 . S
C126 O127 1.218 . S
O127 C126 1.218 . S
C128 O121 1.275 . S
C128 O123 1.255 . S
C129 O130 1.258 . S
C129 O131 1.256 . S
O130 Cd122 2.381 . S
O130 C129 1.258 . S
O131 Cd122 2.378 . S
O131 C129 1.256 . S
O132 Cd133 2.300 . S
O132 C139 1.275 . S
Cd133 O132 2.300 . S
Cd133 O141 2.381 . S
Cd133 O142 2.378 . S
O134 Cd135 2.385 . S
O134 C139 1.255 . S
Cd135 O134 2.385 . S
Cd135 O136 2.317 . S
O136 Cd135 2.317 . S
O136 C137 1.232 . S
C137 O136 1.232 . S
C137 O138 1.218 . S
O138 C137 1.218 . S
C139 O132 1.275 . S
C139 O134 1.255 . S
C140 O141 1.258 . S
C140 O142 1.256 . S
O141 Cd133 2.381 . S
O141 C140 1.258 . S
O142 Cd133 2.378 . S
O142 C140 1.256 . S
O143 Cd144 2.300 . S
O143 C150 1.275 . S
Cd144 O143 2.300 . S
Cd144 O152 2.381 . S
Cd144 O153 2.378 . S
O145 Cd146 2.385 . S
O145 C150 1.255 . S
Cd146 O145 2.385 . S
Cd146 O147 2.317 . S
O147 Cd146 2.317 . S
O147 C148 1.232 . S
C148 O147 1.232 . S
C148 O149 1.218 . S
O149 C148 1.218 . S
C150 O143 1.275 . S
C150 O145 1.255 . S
C151 O152 1.258 . S
C151 O153 1.256 . S
O152 Cd144 2.381 . S
O152 C151 1.258 . S
O153 Cd144 2.378 . S
O153 C151 1.256 . S
O154 Cd155 2.300 . S
O154 C161 1.275 . S
Cd155 O154 2.300 . S
Cd155 O163 2.381 . S
Cd155 O164 2.378 . S
O156 Cd157 2.385 . S
O156 C161 1.255 . S
Cd157 O156 2.385 . S
Cd157 O158 2.317 . S
O158 Cd157 2.317 . S
O158 C159 1.232 . S
C159 O158 1.232 . S
C159 O160 1.218 . S
O160 C159 1.218 . S
C161 O154 1.275 . S
C161 O156 1.255 . S
C162 O163 1.258 . S
C162 O164 1.256 . S
O163 Cd155 2.381 . S
O163 C162 1.258 . S
O164 Cd155 2.378 . S
O164 C162 1.256 . S
O165 Cd166 2.300 . S
O165 C172 1.275 . S
Cd166 O165 2.300 . S
Cd166 O174 2.381 . S
Cd166 O175 2.378 . S
O167 Cd168 2.385 . S
O167 C172 1.255 . S
Cd168 O167 2.385 . S
Cd168 O169 2.317 . S
O169 Cd168 2.317 . S
O169 C170 1.232 . S
C170 O169 1.232 . S
C170 O171 1.218 . S
O171 C170 1.218 . S
C172 O165 1.275 . S
C172 O167 1.255 . S
C173 O174 1.258 . S
C173 O175 1.256 . S
O174 Cd166 2.381 . S
O174 C173 1.258 . S
O175 Cd166 2.378 . S
O175 C173 1.256 . S
O176 Cd177 2.300 . S
O176 C183 1.275 . S
Cd177 O176 2.300 . S
Cd177 O185 2.381 . S
Cd177 O186 2.378 . S
O178 Cd179 2.385 . S
O178 C183 1.255 . S
Cd179 O178 2.385 . S
Cd179 O180 2.317 . S
O180 Cd179 2.317 . S
O180 C181 1.232 . S
C181 O180 1.232 . S
C181 O182 1.218 . S
O182 C181 1.218 . S
C183 O176 1.275 . S
C183 O178 1.255 . S
C184 O185 1.258 . S
C184 O186 1.256 . S
O185 Cd177 2.381 . S
O185 C184 1.258 . S
O186 Cd177 2.378 . S
O186 C184 1.256 . S
O187 Cd188 2.300 . S
O187 C194 1.275 . S
Cd188 O187 2.300 . S
Cd188 O196 2.381 . S
Cd188 O197 2.378 . S
O189 Cd190 2.385 . S
O189 C194 1.255 . S
Cd190 O189 2.385 . S
Cd190 O191 2.317 . S
O191 Cd190 2.317 . S
O191 C192 1.232 . S
C192 O191 1.232 . S
C192 O193 1.218 . S
O193 C192 1.218 . S
C194 O187 1.275 . S
C194 O189 1.255 . S
C195 O196 1.258 . S
C195 O197 1.256 . S
O196 Cd188 2.381 . S
O196 C195 1.258 . S
O197 Cd188 2.378 . S
O197 C195 1.256 . S
O198 Cd199 2.300 . S
O198 C205 1.275 . S
Cd199 O198 2.300 . S
Cd199 O207 2.381 . S
Cd199 O208 2.378 . S
O200 Cd201 2.385 . S
O200 C205 1.255 . S
Cd201 O200 2.385 . S
Cd201 O202 2.317 . S
O202 Cd201 2.317 . S
O202 C203 1.232 . S
C203 O202 1.232 . S
C203 O204 1.218 . S
O204 C203 1.218 . S
C205 O198 1.275 . S
C205 O200 1.255 . S
C206 O207 1.258 . S
C206 O208 1.256 . S
O207 Cd199 2.381 . S
O207 C206 1.258 . S
O208 Cd199 2.378 . S
O208 C206 1.256 . S
O209 Cd210 2.300 . S
O209 C216 1.275 . S
Cd210 O209 2.300 . S
Cd210 O218 2.381 . S
Cd210 O219 2.378 . S
O211 Cd212 2.385 . S
O211 C216 1.255 . S
Cd212 O211 2.385 . S
Cd212 O213 2.317 . S
O213 Cd212 2.317 . S
O213 C214 1.232 . S
C214 O213 1.232 . S
C214 O215 1.218 . S
O215 C214 1.218 . S
C216 O209 1.275 . S
C216 O211 1.255 . S
C217 O218 1.258 . S
C217 O219 1.256 . S
O218 Cd210 2.381 . S
O218 C217 1.258 . S
O219 Cd210 2.378 . S
O219 C217 1.256 . S
O220 Cd221 2.300 . S
O220 C227 1.275 . S
Cd221 O220 2.300 . S
Cd221 O229 2.381 . S
Cd221 O230 2.378 . S
O222 Cd223 2.385 . S
O222 C227 1.255 . S
Cd223 O222 2.385 . S
Cd223 O224 2.317 . S
O224 Cd223 2.317 . S
O224 C225 1.232 . S
C225 O224 1.232 . S
C225 O226 1.218 . S
O226 C225 1.218 . S
C227 O220 1.275 . S
C227 O222 1.255 . S
C228 O229 1.258 . S
C228 O230 1.256 . S
O229 Cd221 2.381 . S
O229 C228 1.258 . S
O230 Cd221 2.378 . S
O230 C228 1.256 . S
O231 Cd232 2.300 . S
O231 C238 1.275 . S
Cd232 O231 2.300 . S
Cd232 O240 2.381 . S
Cd232 O241 2.378 . S
O233 Cd234 2.385 . S
O233 C238 1.255 . S
Cd234 O233 2.385 . S
Cd234 O235 2.317 . S
O235 Cd234 2.317 . S
O235 C236 1.232 . S
C236 O235 1.232 . S
C236 O237 1.218 . S
O237 C236 1.218 . S
C238 O231 1.275 . S
C238 O233 1.255 . S
C239 O240 1.258 . S
C239 O241 1.256 . S
O240 Cd232 2.381 . S
O240 C239 1.258 . S
O241 Cd232 2.378 . S
O241 C239 1.256 . S
O242 Cd243 2.300 . S
O242 C249 1.275 . S
Cd243 O242 2.300 . S
Cd243 O251 2.381 . S
Cd243 O252 2.378 . S
O244 Cd245 2.385 . S
O244 C249 1.255 . S
Cd245 O244 2.385 . S
Cd245 O246 2.317 . S
O246 Cd245 2.317 . S
O246 C247 1.232 . S
C247 O246 1.232 . S
C247 O248 1.218 . S
O248 C247 1.218 . S
C249 O242 1.275 . S
C249 O244 1.255 . S
C250 O251 1.258 . S
C250 O252 1.256 . S
O251 Cd243 2.381 . S
O251 C250 1.258 . S
O252 Cd243 2.378 . S
O252 C250 1.256 . S
O253 Cd254 2.300 . S
O253 C260 1.275 . S
Cd254 O253 2.300 . S
Cd254 O262 2.381 . S
Cd254 O263 2.378 . S
O255 Cd256 2.385 . S
O255 C260 1.255 . S
Cd256 O255 2.385 . S
Cd256 O257 2.317 . S
O257 Cd256 2.317 . S
O257 C258 1.232 . S
C258 O257 1.232 . S
C258 O259 1.218 . S
O259 C258 1.218 . S
C260 O253 1.275 . S
C260 O255 1.255 . S
C261 O262 1.258 . S
C261 O263 1.256 . S
O262 Cd254 2.381 . S
O262 C261 1.258 . S
O263 Cd254 2.378 . S
O263 C261 1.256 . S
O264 Cd265 2.300 . S
O264 C271 1.275 . S
Cd265 O264 2.300 . S
Cd265 O273 2.381 . S
Cd265 O274 2.378 . S
O266 Cd267 2.385 . S
O266 C271 1.255 . S
Cd267 O266 2.385 . S
Cd267 O268 2.317 . S
O268 Cd267 2.317 . S
O268 C269 1.232 . S
C269 O268 1.232 . S
C269 O270 1.218 . S
O270 C269 1.218 . S
C271 O264 1.275 . S
C271 O266 1.255 . S
C272 O273 1.258 . S
C272 O274 1.256 . S
O273 Cd265 2.381 . S
O273 C272 1.258 . S
O274 Cd265 2.378 . S
O274 C272 1.256 . S
O275 Cd276 2.300 . S
O275 C282 1.275 . S
Cd276 O275 2.300 . S
Cd276 O284 2.381 . S
Cd276 O285 2.378 . S
O277 Cd278 2.385 . S
O277 C282 1.255 . S
Cd278 O277 2.385 . S
Cd278 O279 2.317 . S
O279 Cd278 2.317 . S
O279 C280 1.232 . S
C280 O279 1.232 . S
C280 O281 1.218 . S
O281 C280 1.218 . S
C282 O275 1.275 . S
C282 O277 1.255 . S
C283 O284 1.258 . S
C283 O285 1.256 . S
O284 Cd276 2.381 . S
O284 C283 1.258 . S
O285 Cd276 2.378 . S
O285 C283 1.256 . S
O286 Cd287 2.300 . S
O286 C293 1.275 . S
Cd287 O286 2.300 . S
Cd287 O295 2.381 . S
Cd287 O296 2.378 . S
O288 Cd289 2.385 . S
O288 C293 1.255 . S
Cd289 O288 2.385 . S
Cd289 O290 2.317 . S
O290 Cd289 2.317 . S
O290 C291 1.232 . S
C291 O290 1.232 . S
C291 O292 1.218 . S
O292 C291 1.218 . S
C293 O286 1.275 . S
C293 O288 1.255 . S
C294 O295 1.258 . S
C294 O296 1.256 . S
O295 Cd287 2.381 . S
O295 C294 1.258 . S
O296 Cd287 2.378 . S
O296 C294 1.256 . S
O297 Cd298 2.300 . S
O297 C304 1.275 . S
Cd298 O297 2.300 . S
Cd298 O306 2.381 . S
Cd298 O307 2.378 . S
O299 Cd300 2.385 . S
O299 C304 1.255 . S
Cd300 O299 2.385 . S
Cd300 O301 2.317 . S
O301 Cd300 2.317 . S
O301 C302 1.232 . S
C302 O301 1.232 . S
C302 O303 1.218 . S
O303 C302 1.218 . S
C304 O297 1.275 . S
C304 O299 1.255 . S
C305 O306 1.258 . S
C305 O307 1.256 . S
O306 Cd298 2.381 . S
O306 C305 1.258 . S
O307 Cd298 2.378 . S
O307 C305 1.256 . S
O308 Cd309 2.300 . S
O308 C315 1.275 . S
Cd309 O308 2.300 . S
Cd309 O317 2.381 . S
Cd309 O318 2.378 . S
O310 Cd311 2.385 . S
O310 C315 1.255 . S
Cd311 O310 2.385 . S
Cd311 O312 2.317 . S
O312 Cd311 2.317 . S
O312 C313 1.232 . S
C313 O312 1.232 . S
C313 O314 1.218 . S
O314 C313 1.218 . S
C315 O308 1.275 . S
C315 O310 1.255 . S
C316 O317 1.258 . S
C316 O318 1.256 . S
O317 Cd309 2.381 . S
O317 C316 1.258 . S
O318 Cd309 2.378 . S
O318 C316 1.256 . S
O319 Cd320 2.300 . S
O319 C326 1.275 . S
Cd320 O319 2.300 . S
Cd320 O328 2.381 . S
Cd320 O329 2.378 . S
O321 Cd322 2.385 . S
O321 C326 1.255 . S
Cd322 O321 2.385 . S
Cd322 O323 2.317 . S
O323 Cd322 2.317 . S
O323 C324 1.232 . S
C324 O323 1.232 . S
C324 O325 1.218 . S
O325 C324 1.218 . S
C326 O319 1.275 . S
C326 O321 1.255 . S
C327 O328 1.258 . S
C327 O329 1.256 . S
O328 Cd320 2.381 . S
O328 C327 1.258 . S
O329 Cd320 2.378 . S
O329 C327 1.256 . S
O330 Cd331 2.300 . S
O330 C337 1.275 . S
Cd331 O330 2.300 . S
Cd331 O339 2.381 . S
Cd331 O340 2.378 . S
O332 Cd333 2.385 . S
O332 C337 1.255 . S
Cd333 O332 2.385 . S
Cd333 O334 2.317 . S
O334 Cd333 2.317 . S
O334 C335 1.232 . S
C335 O334 1.232 . S
C335 O336 1.218 . S
O336 C335 1.218 . S
C337 O330 1.275 . S
C337 O332 1.255 . S
C338 O339 1.258 . S
C338 O340 1.256 . S
O339 Cd331 2.381 . S
O339 C338 1.258 . S
O340 Cd331 2.378 . S
O340 C338 1.256 . S
O341 Cd342 2.300 . S
O341 C348 1.275 . S
Cd342 O341 2.300 . S
Cd342 O350 2.381 . S
Cd342 O351 2.378 . S
O343 Cd344 2.385 . S
O343 C348 1.255 . S
Cd344 O343 2.385 . S
Cd344 O345 2.317 . S
O345 Cd344 2.317 . S
O345 C346 1.232 . S
C346 O345 1.232 . S
C346 O347 1.218 . S
O347 C346 1.218 . S
C348 O341 1.275 . S
C348 O343 1.255 . S
C349 O350 1.258 . S
C349 O351 1.256 . S
O350 Cd342 2.381 . S
O350 C349 1.258 . S
O351 Cd342 2.378 . S
O351 C349 1.256 . S
O352 Cd353 2.300 . S
O352 C359 1.275 . S
Cd353 O352 2.300 . S
Cd353 O361 2.381 . S
Cd353 O362 2.378 . S
O354 Cd355 2.385 . S
O354 C359 1.255 . S
Cd355 O354 2.385 . S
Cd355 O356 2.317 . S
O356 Cd355 2.317 . S
O356 C357 1.232 . S
C357 O356 1.232 . S
C357 O358 1.218 . S
O358 C357 1.218 . S
C359 O352 1.275 . S
C359 O354 1.255 . S
C360 O361 1.258 . S
C360 O362 1.256 . S
O361 Cd353 2.381 . S
O361 C360 1.258 . S
O362 Cd353 2.378 . S
O362 C360 1.256 . S
O363 Cd364 2.300 . S
O363 C370 1.275 . S
Cd364 O363 2.300 . S
Cd364 O372 2.381 . S
Cd364 O373 2.378 . S
O365 Cd366 2.385 . S
O365 C370 1.255 . S
Cd366 O365 2.385 . S
Cd366 O367 2.317 . S
O367 Cd366 2.317 . S
O367 C368 1.232 . S
C368 O367 1.232 . S
C368 O369 1.218 . S
O369 C368 1.218 . S
C370 O363 1.275 . S
C370 O365 1.255 . S
C371 O372 1.258 . S
C371 O373 1.256 . S
O372 Cd364 2.381 . S
O372 C371 1.258 . S
O373 Cd364 2.378 . S
O373 C371 1.256 . S
O374 Cd375 2.300 . S
O374 C381 1.275 . S
Cd375 O374 2.300 . S
Cd375 O383 2.381 . S
Cd375 O384 2.378 . S
O376 Cd377 2.385 . S
O376 C381 1.255 . S
Cd377 O376 2.385 . S
Cd377 O378 2.317 . S
O378 Cd377 2.317 . S
O378 C379 1.232 . S
C379 O378 1.232 . S
C379 O380 1.218 . S
O380 C379 1.218 . S
C381 O374 1.275 . S
C381 O376 1.255 . S
C382 O383 1.258 . S
C382 O384 1.256 . S
O383 Cd375 2.381 . S
O383 C382 1.258 . S
O384 Cd375 2.378 . S
O384 C382 1.256 . S
O385 Cd386 2.300 . S
O385 C392 1.275 . S
Cd386 O385 2.300 . S
Cd386 O394 2.381 . S
Cd386 O395 2.378 . S
O387 Cd388 2.385 . S
O387 C392 1.255 . S
Cd388 O387 2.385 . S
Cd388 O389 2.317 . S
O389 Cd388 2.317 . S
O389 C390 1.232 . S
C390 O389 1.232 . S
C390 O391 1.218 . S
O391 C390 1.218 . S
C392 O385 1.275 . S
C392 O387 1.255 . S
C393 O394 1.258 . S
C393 O395 1.256 . S
O394 Cd386 2.381 . S
O394 C393 1.258 . S
O395 Cd386 2.378 . S
O395 C393 1.256 . S
O396 Cd397 2.300 . S
O396 C403 1.275 . S
Cd397 O396 2.300 . S
Cd397 O405 2.381 . S
Cd397 O406 2.378 . S
O398 Cd399 2.385 . S
O398 C403 1.255 . S
Cd399 O398 2.385 . S
Cd399 O400 2.317 . S
O400 Cd399 2.317 . S
O400 C401 1.232 . S
C401 O400 1.232 . S
C401 O402 1.218 . S
O402 C401 1.218 . S
C403 O396 1.275 . S
C403 O398 1.255 . S
C404 O405 1.258 . S
C404 O406 1.256 . S
O405 Cd397 2.381 . S
O405 C404 1.258 . S
O406 Cd397 2.378 . S
O406 C404 1.256 . S
O407 Cd408 2.300 . S
O407 C414 1.275 . S
Cd408 O407 2.300 . S
Cd408 O416 2.381 . S
Cd408 O417 2.378 . S
O409 Cd410 2.385 . S
O409 C414 1.255 . S
Cd410 O409 2.385 . S
Cd410 O411 2.317 . S
O411 Cd410 2.317 . S
O411 C412 1.232 . S
C412 O411 1.232 . S
C412 O413 1.218 . S
O413 C412 1.218 . S
C414 O407 1.275 . S
C414 O409 1.255 . S
C415 O416 1.258 . S
C415 O417 1.256 . S
O416 Cd408 2.381 . S
O416 C415 1.258 . S
O417 Cd408 2.378 . S
O417 C415 1.256 . S
O418 Cd419 2.300 . S
O418 C425 1.275 . S
Cd419 O418 2.300 . S
Cd419 O427 2.381 . S
Cd419 O428 2.378 . S
O420 Cd421 2.385 . S
O420 C425 1.255 . S
Cd421 O420 2.385 . S
Cd421 O422 2.317 . S
O422 Cd421 2.317 . S
O422 C423 1.232 . S
C423 O422 1.232 . S
C423 O424 1.218 . S
O424 C423 1.218 . S
C425 O418 1.275 . S
C425 O420 1.255 . S
C426 O427 1.258 . S
C426 O428 1.256 . S
O427 Cd419 2.381 . S
O427 C426 1.258 . S
O428 Cd419 2.378 . S
O428 C426 1.256 . S
O429 Cd430 2.300 . S
O429 C436 1.275 . S
Cd430 O429 2.300 . S
Cd430 O438 2.381 . S
Cd430 O439 2.378 . S
O431 Cd432 2.385 . S
O431 C436 1.255 . S
Cd432 O431 2.385 . S
Cd432 O433 2.317 . S
O433 Cd432 2.317 . S
O433 C434 1.232 . S
C434 O433 1.232 . S
C434 O435 1.218 . S
O435 C434 1.218 . S
C436 O429 1.275 . S
C436 O431 1.255 . S
C437 O438 1.258 . S
C437 O439 1.256 . S
O438 Cd430 2.381 . S
O438 C437 1.258 . S
O439 Cd430 2.378 . S
O439 C437 1.256 . S
O440 Cd441 2.300 . S
O440 C447 1.275 . S
Cd441 O440 2.300 . S
Cd441 O449 2.381 . S
Cd441 O450 2.378 . S
O442 Cd443 2.385 . S
O442 C447 1.255 . S
Cd443 O442 2.385 . S
Cd443 O444 2.317 . S
O444 Cd443 2.317 . S
O444 C445 1.232 . S
C445 O444 1.232 . S
C445 O446 1.218 . S
O446 C445 1.218 . S
C447 O440 1.275 . S
C447 O442 1.255 . S
C448 O449 1.258 . S
C448 O450 1.256 . S
O449 Cd441 2.381 . S
O449 C448 1.258 . S
O450 Cd441 2.378 . S
O450 C448 1.256 . S
O451 Cd452 2.300 . S
O451 C458 1.275 . S
Cd452 O451 2.300 . S
Cd452 O460 2.381 . S
Cd452 O461 2.378 . S
O453 Cd454 2.385 . S
O453 C458 1.255 . S
Cd454 O453 2.385 . S
Cd454 O455 2.317 . S
O455 Cd454 2.317 . S
O455 C456 1.232 . S
C456 O455 1.232 . S
C456 O457 1.218 . S
O457 C456 1.218 . S
C458 O451 1.275 . S
C458 O453 1.255 . S
C459 O460 1.258 . S
C459 O461 1.256 . S
O460 Cd452 2.381 . S
O460 C459 1.258 . S
O461 Cd452 2.378 . S
O461 C459 1.256 . S
O462 Cd463 2.300 . S
O462 C469 1.275 . S
Cd463 O462 2.300 . S
Cd463 O471 2.381 . S
Cd463 O472 2.378 . S
O464 Cd465 2.385 . S
O464 C469 1.255 . S
Cd465 O464 2.385 . S
Cd465 O466 2.317 . S
O466 Cd465 2.317 . S
O466 C467 1.232 . S
C467 O466 1.232 . S
C467 O468 1.218 . S
O468 C467 1.218 . S
C469 O462 1.275 . S
C469 O464 1.255 . S
C470 O471 1.258 . S
C470 O472 1.256 . S
O471 Cd463 2.381 . S
O471 C470 1.258 . S
O472 Cd463 2.378 . S
O472 C470 1.256 . S
O473 Cd474 2.300 . S
O473 C480 1.275 . S
Cd474 O473 2.300 . S
Cd474 O482 2.381 . S
Cd474 O483 2.378 . S
O475 Cd476 2.385 . S
O475 C480 1.255 . S
Cd476 O475 2.385 . S
Cd476 O477 2.317 . S
O477 Cd476 2.317 . S
O477 C478 1.232 . S
C478 O477 1.232 . S
C478 O479 1.218 . S
O479 C478 1.218 . S
C480 O473 1.275 . S
C480 O475 1.255 . S
C481 O482 1.258 . S
C481 O483 1.256 . S
O482 Cd474 2.381 . S
O482 C481 1.258 . S
O483 Cd474 2.378 . S
O483 C481 1.256 . S
O484 Cd485 2.300 . S
O484 C491 1.275 . S
Cd485 O484 2.300 . S
Cd485 O493 2.381 . S
Cd485 O494 2.378 . S
O486 Cd487 2.385 . S
O486 C491 1.255 . S
Cd487 O486 2.385 . S
Cd487 O488 2.317 . S
O488 Cd487 2.317 . S
O488 C489 1.232 . S
C489 O488 1.232 . S
C489 O490 1.218 . S
O490 C489 1.218 . S
C491 O484 1.275 . S
C491 O486 1.255 . S
C492 O493 1.258 . S
C492 O494 1.256 . S
O493 Cd485 2.381 . S
O493 C492 1.258 . S
O494 Cd485 2.378 . S
O494 C492 1.256 . S
O495 Cd496 2.300 . S
O495 C502 1.275 . S
Cd496 O495 2.300 . S
Cd496 O504 2.381 . S
Cd496 O505 2.378 . S
O497 Cd498 2.385 . S
O497 C502 1.255 . S
Cd498 O497 2.385 . S
Cd498 O499 2.317 . S
O499 Cd498 2.317 . S
O499 C500 1.232 . S
C500 O499 1.232 . S
C500 O501 1.218 . S
O501 C500 1.218 . S
C502 O495 1.275 . S
C502 O497 1.255 . S
C503 O504 1.258 . S
C503 O505 1.256 . S
O504 Cd496 2.381 . S
O504 C503 1.258 . S
O505 Cd496 2.378 . S
O505 C503 1.256 . S
O506 Cd507 2.300 . S
O506 C513 1.275 . S
Cd507 O506 2.300 . S
Cd507 O515 2.381 . S
Cd507 O516 2.378 . S
O508 Cd509 2.385 . S
O508 C513 1.255 . S
Cd509 O508 2.385 . S
Cd509 O510 2.317 . S
O510 Cd509 2.317 . S
O510 C511 1.232 . S
C511 O510 1.232 . S
C511 O512 1.218 . S
O512 C511 1.218 . S
C513 O506 1.275 . S
C513 O508 1.255 . S
C514 O515 1.258 . S
C514 O516 1.256 . S
O515 Cd507 2.381 . S
O515 C514 1.258 . S
O516 Cd507 2.378 . S
O516 C514 1.256 . S
O517 Cd518 2.300 . S
O517 C524 1.275 . S
Cd518 O517 2.300 . S
Cd518 O526 2.381 . S
Cd518 O527 2.378 . S
O519 Cd520 2.385 . S
O519 C524 1.255 . S
Cd520 O519 2.385 . S
Cd520 O521 2.317 . S
O521 Cd520 2.317 . S
O521 C522 1.232 . S
C522 O521 1.232 . S
C522 O523 1.218 . S
O523 C522 1.218 . S
C524 O517 1.275 . S
C524 O519 1.255 . S
C525 O526 1.258 . S
C525 O527 1.256 . S
O526 Cd518 2.381 . S
O526 C525 1.258 . S
O527 Cd518 2.378 . S
O527 C525 1.256 . S
O528 Cd529 2.300 . S
O528 C535 1.275 . S
Cd529 O528 2.300 . S
Cd529 O537 2.381 . S
Cd529 O538 2.378 . S
O530 Cd531 2.385 . S
O530 C535 1.255 . S
Cd531 O530 2.385 . S
Cd531 O532 2.317 . S
O532 Cd531 2.317 . S
O532 C533 1.232 . S
C533 O532 1.232 . S
C533 O534 1.218 . S
O534 C533 1.218 . S
C535 O528 1.275 . S
C535 O530 1.255 . S
C536 O537 1.258 . S
C536 O538 1.256 . S
O537 Cd529 2.381 . S
O537 C536 1.258 . S
O538 Cd529 2.378 . S
O538 C536 1.256 . S
O539 Cd540 2.300 . S
O539 C546 1.275 . S
Cd540 O539 2.300 . S
Cd540 O548 2.381 . S
Cd540 O549 2.378 . S
O541 Cd542 2.385 . S
O541 C546 1.255 . S
Cd542 O541 2.385 . S
Cd542 O543 2.317 . S
O543 Cd542 2.317 . S
O543 C544 1.232 . S
C544 O543 1.232 . S
C544 O545 1.218 . S
O545 C544 1.218 . S
C546 O539 1.275 . S
C546 O541 1.255 . S
C547 O548 1.258 . S
C547 O549 1.256 . S
O548 Cd540 2.381 . S
O548 C547 1.258 . S
O549 Cd540 2.378 . S
O549 C547 1.256 . S
O550 Cd551 2.300 . S
O550 C557 1.275 . S
Cd551 O550 2.300 . S
Cd551 O559 2.381 . S
Cd551 O560 2.378 . S
O552 Cd553 2.385 . S
O552 C557 1.255 . S
Cd553 O552 2.385 . S
Cd553 O554 2.317 . S
O554 Cd553 2.317 . S
O554 C555 1.232 . S
C555 O554 1.232 . S
C555 O556 1.218 . S
O556 C555 1.218 . S
C557 O550 1.275 . S
C557 O552 1.255 . S
C558 O559 1.258 . S
C558 O560 1.256 . S
O559 Cd551 2.381 . S
O559 C558 1.258 . S
O560 Cd551 2.378 . S
O560 C558 1.256 . S
O561 Cd562 2.300 . S
O561 C568 1.275 . S
Cd562 O561 2.300 . S
Cd562 O570 2.381 . S
Cd562 O571 2.378 . S
O563 Cd564 2.385 . S
O563 C568 1.255 . S
Cd564 O563 2.385 . S
Cd564 O565 2.317 . S
O565 Cd564 2.317 . S
O565 C566 1.232 . S
C566 O565 1.232 . S
C566 O567 1.218 . S
O567 C566 1.218 . S
C568 O561 1.275 . S
C568 O563 1.255 . S
C569 O570 1.258 . S
C569 O571 1.256 . S
O570 Cd562 2.381 . S
O570 C569 1.258 . S
O571 Cd562 2.378 . S
O571 C569 1.256 . S
O572 Cd573 2.300 . S
O572 C579 1.275 . S
Cd573 O572 2.300 . S
Cd573 O581 2.381 . S
Cd573 O582 2.378 . S
O574 Cd575 2.385 . S
O574 C579 1.255 . S
Cd575 O574 2.385 . S
Cd575 O576 2.317 . S
O576 Cd575 2.317 . S
O576 C577 1.232 . S
C577 O576 1.232 . S
C577 O578 1.218 . S
O578 C577 1.218 . S
C579 O572 1.275 . S
C579 O574 1.255 . S
C580 O581 1.258 . S
C580 O582 1.256 . S
O581 Cd573 2.381 . S
O581 C580 1.258 . S
O582 Cd573 2.378 . S
O582 C580 1.256 . S
O583 Cd584 2.300 . S
O583 C590 1.275 . S
Cd584 O583 2.300 . S
Cd584 O592 2.381 . S
Cd584 O593 2.378 . S
O585 Cd586 2.385 . S
O585 C590 1.255 . S
Cd586 O585 2.385 . S
Cd586 O587 2.317 . S
O587 Cd586 2.317 . S
O587 C588 1.232 . S
C588 O587 1.232 . S
C588 O589 1.218 . S
O589 C588 1.218 . S
C590 O583 1.275 . S
C590 O585 1.255 . S
C591 O592 1.258 . S
C591 O593 1.256 . S
O592 Cd584 2.381 . S
O592 C591 1.258 . S
O593 Cd584 2.378 . S
O593 C591 1.256 . S
O594 Cd595 2.300 . S
O594 C601 1.275 . S
Cd595 O594 2.300 . S
Cd595 O603 2.381 . S
Cd595 O604 2.378 . S
O596 Cd597 2.385 . S
O596 C601 1.255 . S
Cd597 O596 2.385 . S
Cd597 O598 2.317 . S
O598 Cd597 2.317 . S
O598 C599 1.232 . S
C599 O598 1.232 . S
C599 O600 1.218 . S
O600 C599 1.218 . S
C601 O594 1.275 . S
C601 O596 1.255 . S
C602 O603 1.258 . S
C602 O604 1.256 . S
O603 Cd595 2.381 . S
O603 C602 1.258 . S
O604 Cd595 2.378 . S
O604 C602 1.256 . S
O605 Cd606 2.300 . S
O605 C612 1.275 . S
Cd606 O605 2.300 . S
Cd606 O614 2.381 . S
Cd606 O615 2.378 . S
O607 Cd608 2.385 . S
O607 C612 1.255 . S
Cd608 O607 2.385 . S
Cd608 O609 2.317 . S
O609 Cd608 2.317 . S
O609 C610 1.232 . S
C610 O609 1.232 . S
C610 O611 1.218 . S
O611 C610 1.218 . S
C612 O605 1.275 . S
C612 O607 1.255 . S
C613 O614 1.258 . S
C613 O615 1.256 . S
O614 Cd606 2.381 . S
O614 C613 1.258 . S
O615 Cd606 2.378 . S
O615 C613 1.256 . S
O616 Cd617 2.300 . S
O616 C623 1.275 . S
Cd617 O616 2.300 . S
Cd617 O625 2.381 . S
Cd617 O626 2.378 . S
O618 Cd619 2.385 . S
O618 C623 1.255 . S
Cd619 O618 2.385 . S
Cd619 O620 2.317 . S
O620 Cd619 2.317 . S
O620 C621 1.232 . S
C621 O620 1.232 . S
C621 O622 1.218 . S
O622 C621 1.218 . S
C623 O616 1.275 . S
C623 O618 1.255 . S
C624 O625 1.258 . S
C624 O626 1.256 . S
O625 Cd617 2.381 . S
O625 C624 1.258 . S
O626 Cd617 2.378 . S
O626 C624 1.256 . S
O627 Cd628 2.300 . S
O627 C634 1.275 . S
Cd628 O627 2.300 . S
Cd628 O636 2.381 . S
Cd628 O637 2.378 . S
O629 Cd630 2.385 . S
O629 C634 1.255 . S
Cd630 O629 2.385 . S
Cd630 O631 2.317 . S
O631 Cd630 2.317 . S
O631 C632 1.232 . S
C632 O631 1.232 . S
C632 O633 1.218 . S
O633 C632 1.218 . S
C634 O627 1.275 . S
C634 O629 1.255 . S
C635 O636 1.258 . S
C635 O637 1.256 . S
O636 Cd628 2.381 . S
O636 C635 1.258 . S
O637 Cd628 2.378 . S
O637 C635 1.256 . S
O638 Cd639 2.300 . S
O638 C645 1.275 . S
Cd639 O638 2.300 . S
Cd639 O647 2.381 . S
Cd639 O648 2.378 . S
O640 Cd641 2.385 . S
O640 C645 1.255 . S
Cd641 O640 2.385 . S
Cd641 O642 2.317 . S
O642 Cd641 2.317 . S
O642 C643 1.232 . S
C643 O642 1.232 . S
C643 O644 1.218 . S
O644 C643 1.218 . S
C645 O638 1.275 . S
C645 O640 1.255 . S
C646 O647 1.258 . S
C646 O648 1.256 . S
O647 Cd639 2.381 . S
O647 C646 1.258 . S
O648 Cd639 2.378 . S
O648 C646 1.256 . S
O649 Cd650 2.300 . S
O649 C656 1.275 . S
Cd650 O649 2.300 . S
Cd650 O658 2.381 . S
Cd650 O659 2.378 . S
O651 Cd652 2.385 . S
O651 C656 1.255 . S
Cd652 O651 2.385 . S
Cd652 O653 2.317 . S
O653 Cd652 2.317 . S
O653 C654 1.232 . S
C654 O653 1.232 . S
C654 O655 1.218 . S
O655 C654 1.218 . S
C656 O649 1.275 . S
C656 O651 1.255 . S
C657 O658 1.258 . S
C657 O659 1.256 . S
O658 Cd650 2.381 . S
O658 C657 1.258 . S
O659 Cd650 2.378 . S
O659 C657 1.256 . S
O660 Cd661 2.300 . S
O660 C667 1.275 . S
Cd661 O660 2.300 . S
Cd661 O669 2.381 . S
Cd661 O670 2.378 . S
O662 Cd663 2.385 . S
O662 C667 1.255 . S
Cd663 O662 2.385 . S
Cd663 O664 2.317 . S
O664 Cd663 2.317 . S
O664 C665 1.232 . S
C665 O664 1.232 . S
C665 O666 1.218 . S
O666 C665 1.218 . S
C667 O660 1.275 . S
C667 O662 1.255 . S
C668 O669 1.258 . S
C668 O670 1.256 . S
O669 Cd661 2.381 . S
O669 C668 1.258 . S
O670 Cd661 2.378 . S
O670 C668 1.256 . S
O671 Cd672 2.300 . S
O671 C678 1.275 . S
Cd672 O671 2.300 . S
Cd672 O680 2.381 . S
Cd672 O681 2.378 . S
O673 Cd674 2.385 . S
O673 C678 1.255 . S
Cd674 O673 2.385 . S
Cd674 O675 2.317 . S
O675 Cd674 2.317 . S
O675 C676 1.232 . S
C676 O675 1.232 . S
C676 O677 1.218 . S
O677 C676 1.218 . S
C678 O671 1.275 . S
C678 O673 1.255 . S
C679 O680 1.258 . S
C679 O681 1.256 . S
O680 Cd672 2.381 . S
O680 C679 1.258 . S
O681 Cd672 2.378 . S
O681 C679 1.256 . S
O682 Cd683 2.300 . S
O682 C689 1.275 . S
Cd683 O682 2.300 . S
Cd683 O691 2.381 . S
Cd683 O692 2.378 . S
O684 Cd685 2.385 . S
O684 C689 1.255 . S
Cd685 O684 2.385 . S
Cd685 O686 2.317 . S
O686 Cd685 2.317 . S
O686 C687 1.232 . S
C687 O686 1.232 . S
C687 O688 1.218 . S
O688 C687 1.218 . S
C689 O682 1.275 . S
C689 O684 1.255 . S
C690 O691 1.258 . S
C690 O692 1.256 . S
O691 Cd683 2.381 . S
O691 C690 1.258 . S
O692 Cd683 2.378 . S
O692 C690 1.256 . S
O693 Cd694 2.300 . S
O693 C700 1.275 . S
Cd694 O693 2.300 . S
Cd694 O702 2.381 . S
Cd694 O703 2.378 . S
O695 Cd696 2.385 . S
O695 C700 1.255 . S
Cd696 O695 2.385 . S
Cd696 O697 2.317 . S
O697 Cd696 2.317 . S
O697 C698 1.232 . S
C698 O697 1.232 . S
C698 O699 1.218 . S
O699 C698 1.218 . S
C700 O693 1.275 . S
C700 O695 1.255 . S
C701 O702 1.258 . S
C701 O703 1.256 . S
O702 Cd694 2.381 . S
O702 C701 1.258 . S
O703 Cd694 2.378 . S
O703 C701 1.256 . S
O704 Cd705 2.300 . S
O704 C711 1.275 . S
Cd705 O704 2.300 . S
Cd705 O713 2.381 . S
Cd705 O714 2.378 . S
O706 Cd707 2.385 . S
O706 C711 1.255 . S
Cd707 O706 2.385 . S
Cd707 O708 2.317 . S
O708 Cd707 2.317 . S
O708 C709 1.232 . S
C709 O708 1.232 . S
C709 O710 1.218 . S
O710 C709 1.218 . S
C711 O704 1.275 . S
C711 O706 1.255 . S
C712 O713 1.258 . S
C712 O714 1.256 . S
O713 Cd705 2.381 . S
O713 C712 1.258 . S
O714 Cd705 2.378 . S
O714 C712 1.256 . S
O715 Cd716 2.300 . S
O715 C722 1.275 . S
Cd716 O715 2.300 . S
Cd716 O724 2.381 . S
Cd716 O725 2.378 . S
O717 Cd718 2.385 . S
O717 C722 1.255 . S
Cd718 O717 2.385 . S
Cd718 O719 2.317 . S
O719 Cd718 2.317 . S
O719 C720 1.232 . S
C720 O719 1.232 . S
C720 O721 1.218 . S
O721 C720 1.218 . S
C722 O715 1.275 . S
C722 O717 1.255 . S
C723 O724 1.258 . S
C723 O725 1.256 . S
O724 Cd716 2.381 . S
O724 C723 1.258 . S
O725 Cd716 2.378 . S
O725 C723 1.256 . S
O726 Cd727 2.300 . S
O726 C733 1.275 . S
Cd727 O726 2.300 . S
Cd727 O735 2.381 . S
Cd727 O736 2.378 . S
O728 Cd729 2.385 . S
O728 C733 1.255 . S
Cd729 O728 2.385 . S
Cd729 O730 2.317 . S
O730 Cd729 2.317 . S
O730 C731 1.232 . S
C731 O730 1.232 . S
C731 O732 1.218 . S
O732 C731 1.218 . S
C733 O726 1.275 . S
C733 O728 1.255 . S
C734 O735 1.258 . S
C734 O736 1.256 . S
O735 Cd727 2.381 . S
O735 C734 1.258 . S
O736 Cd727 2.378 . S
O736 C734 1.256 . S
O737 Cd738 2.300 . S
O737 C744 1.275 . S
Cd738 O737 2.300 . S
Cd738 O746 2.381 . S
Cd738 O747 2.378 . S
O739 Cd740 2.385 . S
O739 C744 1.255 . S
Cd740 O739 2.385 . S
Cd740 O741 2.317 . S
O741 Cd740 2.317 . S
O741 C742 1.232 . S
C742 O741 1.232 . S
C742 O743 1.218 . S
O743 C742 1.218 . S
C744 O737 1.275 . S
C744 O739 1.255 . S
C745 O746 1.258 . S
C745 O747 1.256 . S
O746 Cd738 2.381 . S
O746 C745 1.258 . S
O747 Cd738 2.378 . S
O747 C745 1.256 . S
O748 Cd749 2.300 . S
O748 C755 1.275 . S
Cd749 O748 2.300 . S
Cd749 O757 2.381 . S
Cd749 O758 2.378 . S
O750 Cd751 2.385 . S
O750 C755 1.255 . S
Cd751 O750 2.385 . S
Cd751 O752 2.317 . S
O752 Cd751 2.317 . S
O752 C753 1.232 . S
C753 O752 1.232 . S
C753 O754 1.218 . S
O754 C753 1.218 . S
C755 O748 1.275 . S
C755 O750 1.255 . S
C756 O757 1.258 . S
C756 O758 1.256 . S
O757 Cd749 2.381 . S
O757 C756 1.258 . S
O758 Cd749 2.378 . S
O758 C756 1.256 . S
O759 Cd760 2.300 . S
O759 C766 1.275 . S
Cd760 O759 2.300 . S
Cd760 O768 2.381 . S
Cd760 O769 2.378 . S
O761 Cd762 2.385 . S
O761 C766 1.255 . S
Cd762 O761 2.385 . S
Cd762 O763 2.317 . S
O763 Cd762 2.317 . S
O763 C764 1.232 . S
C764 O763 1.232 . S
C764 O765 1.218 . S
O765 C764 1.218 . S
C766 O759 1.275 . S
C766 O761 1.255 . S
C767 O768 1.258 . S
C767 O769 1.256 . S
O768 Cd760 2.381 . S
O768 C767 1.258 . S
O769 Cd760 2.378 . S
O769 C767 1.256 . S
O770 Cd771 2.300 . S
O770 C777 1.275 . S
Cd771 O770 2.300 . S
Cd771 O779 2.381 . S
Cd771 O780 2.378 . S
O772 Cd773 2.385 . S
O772 C777 1.255 . S
Cd773 O772 2.385 . S
Cd773 O774 2.317 . S
O774 Cd773 2.317 . S
O774 C775 1.232 . S
C775 O774 1.232 . S
C775 O776 1.218 . S
O776 C775 1.218 . S
C777 O770 1.275 . S
C777 O772 1.255 . S
C778 O779 1.258 . S
C778 O780 1.256 . S
O779 Cd771 2.381 . S
O779 C778 1.258 . S
O780 Cd771 2.378 . S
O780 C778 1.256 . S
O781 Cd782 2.300 . S
O781 C788 1.275 . S
Cd782 O781 2.300 . S
Cd782 O790 2.381 . S
Cd782 O791 2.378 . S
O783 Cd784 2.385 . S
O783 C788 1.255 . S
Cd784 O783 2.385 . S
Cd784 O785 2.317 . S
O785 Cd784 2.317 . S
O785 C786 1.232 . S
C786 O785 1.232 . S
C786 O787 1.218 . S
O787 C786 1.218 . S
C788 O781 1.275 . S
C788 O783 1.255 . S
C789 O790 1.258 . S
C789 O791 1.256 . S
O790 Cd782 2.381 . S
O790 C789 1.258 . S
O791 Cd782 2.378 . S
O791 C789 1.256 . S
O792 Cd793 2.300 . S
O792 C799 1.275 . S
Cd793 O792 2.300 . S
Cd793 O801 2.381 . S
Cd793 O802 2.378 . S
O794 Cd795 2.385 . S
O794 C799 1.255 . S
Cd795 O794 2.385 . S
Cd795 O796 2.317 . S
O796 Cd795 2.317 . S
O796 C797 1.232 . S
C797 O796 1.232 . S
C797 O798 1.218 . S
O798 C797 1.218 . S
C799 O792 1.275 . S
C799 O794 1.255 . S
C800 O801 1.258 . S
C800 O802 1.256 . S
O801 Cd793 2.381 . S
O801 C800 1.258 . S
O802 Cd793 2.378 . S
O802 C800 1.256 . S
O803 Cd804 2.300 . S
O803 C810 1.275 . S
Cd804 O803 2.300 . S
Cd804 O812 2.381 . S
Cd804 O813 2.378 . S
O805 Cd806 2.385 . S
O805 C810 1.255 . S
Cd806 O805 2.385 . S
Cd806 O807 2.317 . S
O807 Cd806 2.317 . S
O807 C808 1.232 . S
C808 O807 1.232 . S
C808 O809 1.218 . S
O809 C808 1.218 . S
C810 O803 1.275 . S
C810 O805 1.255 . S
C811 O812 1.258 . S
C811 O813 1.256 . S
O812 Cd804 2.381 . S
O812 C811 1.258 . S
O813 Cd804 2.378 . S
O813 C811 1.256 . S
O814 Cd815 2.300 . S
O814 C821 1.275 . S
Cd815 O814 2.300 . S
Cd815 O823 2.381 . S
Cd815 O824 2.378 . S
O816 Cd817 2.385 . S
O816 C821 1.255 . S
Cd817 O816 2.385 . S
Cd817 O818 2.317 . S
O818 Cd817 2.317 . S
O818 C819 1.232 . S
C819 O818 1.232 . S
C819 O820 1.218 . S
O820 C819 1.218 . S
C821 O814 1.275 . S
C821 O816 1.255 . S
C822 O823 1.258 . S
C822 O824 1.256 . S
O823 Cd815 2.381 . S
O823 C822 1.258 . S
O824 Cd815 2.378 . S
O824 C822 1.256 . S
O825 Cd826 2.300 . S
O825 C832 1.275 . S
Cd826 O825 2.300 . S
Cd826 O834 2.381 . S
Cd826 O835 2.378 . S
O827 Cd828 2.385 . S
O827 C832 1.255 . S
Cd828 O827 2.385 . S
Cd828 O829 2.317 . S
O829 Cd828 2.317 . S
O829 C830 1.232 . S
C830 O829 1.232 . S
C830 O831 1.218 . S
O831 C830 1.218 . S
C832 O825 1.275 . S
C832 O827 1.255 . S
C833 O834 1.258 . S
C833 O835 1.256 . S
O834 Cd826 2.381 . S
O834 C833 1.258 . S
O835 Cd826 2.378 . S
O835 C833 1.256 . S
O836 Cd837 2.300 . S
O836 C843 1.275 . S
Cd837 O836 2.300 . S
Cd837 O845 2.381 . S
Cd837 O846 2.378 . S
O838 Cd839 2.385 . S
O838 C843 1.255 . S
Cd839 O838 2.385 . S
Cd839 O840 2.317 . S
O840 Cd839 2.317 . S
O840 C841 1.232 . S
C841 O840 1.232 . S
C841 O842 1.218 . S
O842 C841 1.218 . S
C843 O836 1.275 . S
C843 O838 1.255 . S
C844 O845 1.258 . S
C844 O846 1.256 . S
O845 Cd837 2.381 . S
O845 C844 1.258 . S
O846 Cd837 2.378 . S
O846 C844 1.256 . S
O847 Cd848 2.300 . S
O847 C854 1.275 . S
Cd848 O847 2.300 . S
Cd848 O856 2.381 . S
Cd848 O857 2.378 . S
O849 Cd850 2.385 . S
O849 C854 1.255 . S
Cd850 O849 2.385 . S
Cd850 O851 2.317 . S
O851 Cd850 2.317 . S
O851 C852 1.232 . S
C852 O851 1.232 . S
C852 O853 1.218 . S
O853 C852 1.218 . S
C854 O847 1.275 . S
C854 O849 1.255 . S
C855 O856 1.258 . S
C855 O857 1.256 . S
O856 Cd848 2.381 . S
O856 C855 1.258 . S
O857 Cd848 2.378 . S
O857 C855 1.256 . S
O858 Cd859 2.300 . S
O858 C865 1.275 . S
Cd859 O858 2.300 . S
Cd859 O867 2.381 . S
Cd859 O868 2.378 . S
O860 Cd861 2.385 . S
O860 C865 1.255 . S
Cd861 O860 2.385 . S
Cd861 O862 2.317 . S
O862 Cd861 2.317 . S
O862 C863 1.232 . S
C863 O862 1.232 . S
C863 O864 1.218 . S
O864 C863 1.218 . S
C865 O858 1.275 . S
C865 O860 1.255 . S
C866 O867 1.258 . S
C866 O868 1.256 . S
O867 Cd859 2.381 . S
O867 C866 1.258 . S
O868 Cd859 2.378 . S
O868 C866 1.256 . S
O869 Cd870 2.300 . S
O869 C876 1.275 . S
Cd870 O869 2.300 . S
Cd870 O878 2.381 . S
Cd870 O879 2.378 . S
O871 Cd872 2.385 . S
O871 C876 1.255 . S
Cd872 O871 2.385 . S
Cd872 O873 2.317 . S
O873 Cd872 2.317 . S
O873 C874 1.232 . S
C874 O873 1.232 . S
C874 O875 1.218 . S
O875 C874 1.218 . S
C876 O869 1.275 . S
C876 O871 1.255 . S
C877 O878 1.258 . S
C877 O879 1.256 . S
O878 Cd870 2.381 . S
O878 C877 1.258 . S
O879 Cd870 2.378 . S
O879 C877 1.256 . S
O880 Cd881 2.300 . S
O880 C887 1.275 . S
Cd881 O880 2.300 . S
Cd881 O889 2.381 . S
Cd881 O890 2.378 . S
O882 Cd883 2.385 . S
O882 C887 1.255 . S
Cd883 O882 2.385 . S
Cd883 O884 2.317 . S
O884 Cd883 2.317 . S
O884 C885 1.232 . S
C885 O884 1.232 . S
C885 O886 1.218 . S
O886 C885 1.218 . S
C887 O880 1.275 . S
C887 O882 1.255 . S
C888 O889 1.258 . S
C888 O890 1.256 . S
O889 Cd881 2.381 . S
O889 C888 1.258 . S
O890 Cd881 2.378 . S
O890 C888 1.256 . S
O891 Cd892 2.300 . S
O891 C898 1.275 . S
Cd892 O891 2.300 . S
Cd892 O900 2.381 . S
Cd892 O901 2.378 . S
O893 Cd894 2.385 . S
O893 C898 1.255 . S
Cd894 O893 2.385 . S
Cd894 O895 2.317 . S
O895 Cd894 2.317 . S
O895 C896 1.232 . S
C896 O895 1.232 . S
C896 O897 1.218 . S
O897 C896 1.218 . S
C898 O891 1.275 . S
C898 O893 1.255 . S
C899 O900 1.258 . S
C899 O901 1.256 . S
O900 Cd892 2.381 . S
O900 C899 1.258 . S
O901 Cd892 2.378 . S
O901 C899 1.256 . S
O902 Cd903 2.300 . S
O902 C909 1.275 . S
Cd903 O902 2.300 . S
Cd903 O911 2.381 . S
Cd903 O912 2.378 . S
O904 Cd905 2.385 . S
O904 C909 1.255 . S
Cd905 O904 2.385 . S
Cd905 O906 2.317 . S
O906 Cd905 2.317 . S
O906 C907 1.232 . S
C907 O906 1.232 . S
C907 O908 1.218 . S
O908 C907 1.218 . S
C909 O902 1.275 . S
C909 O904 1.255 . S
C910 O911 1.258 . S
C910 O912 1.256 . S
O911 Cd903 2.381 . S
O911 C910 1.258 . S
O912 Cd903 2.378 . S
O912 C910 1.256 . S
O913 Cd914 2.300 . S
O913 C920 1.275 . S
Cd914 O913 2.300 . S
Cd914 O922 2.381 . S
Cd914 O923 2.378 . S
O915 Cd916 2.385 . S
O915 C920 1.255 . S
Cd916 O915 2.385 . S
Cd916 O917 2.317 . S
O917 Cd916 2.317 . S
O917 C918 1.232 . S
C918 O917 1.232 . S
C918 O919 1.218 . S
O919 C918 1.218 . S
C920 O913 1.275 . S
C920 O915 1.255 . S
C921 O922 1.258 . S
C921 O923 1.256 . S
O922 Cd914 2.381 . S
O922 C921 1.258 . S
O923 Cd914 2.378 . S
O923 C921 1.256 . S
O924 Cd925 2.300 . S
O924 C931 1.275 . S
Cd925 O924 2.300 . S
Cd925 O933 2.381 . S
Cd925 O934 2.378 . S
O926 Cd927 2.385 . S
O926 C931 1.255 . S
Cd927 O926 2.385 . S
Cd927 O928 2.317 . S
O928 Cd927 2.317 . S
O928 C929 1.232 . S
C929 O928 1.232 . S
C929 O930 1.218 . S
O930 C929 1.218 . S
C931 O924 1.275 . S
C931 O926 1.255 . S
C932 O933 1.258 . S
C932 O934 1.256 . S
O933 Cd925 2.381 . S
O933 C932 1.258 . S
O934 Cd925 2.378 . S
O934 C932 1.256 . S
O935 Cd936 2.300 . S
O935 C942 1.275 . S
Cd936 O935 2.300 . S
Cd936 O944 2.381 . S
Cd936 O945 2.378 . S
O937 Cd938 2.385 . S
O937 C942 1.255 . S
Cd938 O937 2.385 . S
Cd938 O939 2.317 . S
O939 Cd938 2.317 . S
O939 C940 1.232 . S
C940 O939 1.232 . S
C940 O941 1.218 . S
O941 C940 1.218 . S
C942 O935 1.275 . S
C942 O937 1.255 . S
C943 O944 1.258 . S
C943 O945 1.256 . S
O944 Cd936 2.381 . S
O944 C943 1.258 . S
O945 Cd936 2.378 . S
O945 C943 1.256 . S
O946 Cd947 2.300 . S
O946 C953 1.275 . S
Cd947 O946 2.300 . S
Cd947 O955 2.381 . S
Cd947 O956 2.378 . S
O948 Cd949 2.385 . S
O948 C953 1.255 . S
Cd949 O948 2.385 . S
Cd949 O950 2.317 . S
O950 Cd949 2.317 . S
O950 C951 1.232 . S
C951 O950 1.232 . S
C951 O952 1.218 . S
O952 C951 1.218 . S
C953 O946 1.275 . S
C953 O948 1.255 . S
C954 O955 1.258 . S
C954 O956 1.256 . S
O955 Cd947 2.381 . S
O955 C954 1.258 . S
O956 Cd947 2.378 . S
O956 C954 1.256 . S
O957 Cd958 2.300 . S
O957 C964 1.275 . S
Cd958 O957 2.300 . S
Cd958 O966 2.381 . S
Cd958 O967 2.378 . S
O959 Cd960 2.385 . S
O959 C964 1.255 . S
Cd960 O959 2.385 . S
Cd960 O961 2.317 . S
O961 Cd960 2.317 . S
O961 C962 1.232 . S
C962 O961 1.232 . S
C962 O963 1.218 . S
O963 C962 1.218 . S
C964 O957 1.275 . S
C964 O959 1.255 . S
C965 O966 1.258 . S
C965 O967 1.256 . S
O966 Cd958 2.381 . S
O966 C965 1.258 . S
O967 Cd958 2.378 . S
O967 C965 1.256 . S
O968 Cd969 2.300 . S
O968 C975 1.275 . S
Cd969 O968 2.300 . S
Cd969 O977 2.381 . S
Cd969 O978 2.378 . S
O970 Cd971 2.385 . S
O970 C975 1.255 . S
Cd971 O970 2.385 . S
Cd971 O972 2.317 . S
O972 Cd971 2.317 . S
O972 C973 1.232 . S
C973 O972 1.232 . S
C973 O974 1.218 . S
O974 C973 1.218 . S
C975 O968 1.275 . S
C975 O970 1.255 . S
C976 O977 1.258 . S
C976 O978 1.256 . S
O977 Cd969 2.381 . S
O977 C976 1.258 . S
O978 Cd969 2.378 . S
O978 C976 1.256 . S
O979 Cd980 2.300 . S
O979 C986 1.275 . S
Cd980 O979 2.300 . S
Cd980 O988 2.381 . S
Cd980 O989 2.378 . S
O981 Cd982 2.385 . S
O981 C986 1.255 . S
Cd982 O981 2.385 . S
Cd982 O983 2.317 . S
O983 Cd982 2.317 . S
O983 C984 1.232 . S
C984 O983 1.232 . S
C984 O985 1.218 . S
O985 C984 1.218 . S
C986 O979 1.275 . S
C986 O981 1.255 . S
C987 O988 1.258 . S
C987 O989 1.256 . S
O988 Cd980 2.381 . S
O988 C987 1.258 . S
O989 Cd980 2.378 . S
O989 C987 1.256 . S
O990 Cd991 2.300 . S
O990 C997 1.275 . S
Cd991 O990 2.300 . S
Cd991 O999 2.381 . S
Cd991 O1000 2.378 . S
O992 Cd993 2.385 . S
O992 C997 1.255 . S
Cd993 O992 2.385 . S
Cd993 O994 2.317 . S
O994 Cd993 2.317 . S
O994 C995 1.232 . S
C995 O994 1.232 . S
C995 O996 1.218 . S
O996 C995 1.218 . S
C997 O990 1.275 . S
C997 O992 1.255 . S
C998 O999 1.258 . S
C998 O1000 1.256 . S
O999 Cd991 2.381 . S
O999 C998 1.258 . S
O1000 Cd991 2.378 . S
O1000 C998 1.256 . S
O1001 Cd1002 2.300 . S
O1001 C1008 1.275 . S
Cd1002 O1001 2.300 . S
Cd1002 O1010 2.381 . S
Cd1002 O1011 2.378 . S
O1003 Cd1004 2.385 . S
O1003 C1008 1.255 . S
Cd1004 O1003 2.385 . S
Cd1004 O1005 2.317 . S
O1005 Cd1004 2.317 . S
O1005 C1006 1.232 . S
C1006 O1005 1.232 . S
C1006 O1007 1.218 . S
O1007 C1006 1.218 . S
C1008 O1001 1.275 . S
C1008 O1003 1.255 . S
C1009 O1010 1.258 . S
C1009 O1011 1.256 . S
O1010 Cd1002 2.381 . S
O1010 C1009 1.258 . S
O1011 Cd1002 2.378 . S
O1011 C1009 1.256 . S
O1012 Cd1013 2.300 . S
O1012 C1019 1.275 . S
Cd1013 O1012 2.300 . S
Cd1013 O1021 2.381 . S
Cd1013 O1022 2.378 . S
O1014 Cd1015 2.385 . S
O1014 C1019 1.255 . S
Cd1015 O1014 2.385 . S
Cd1015 O1016 2.317 . S
O1016 Cd1015 2.317 . S
O1016 C1017 1.232 . S
C1017 O1016 1.232 . S
C1017 O1018 1.218 . S
O1018 C1017 1.218 . S
C1019 O1012 1.275 . S
C1019 O1014 1.255 . S
C1020 O1021 1.258 . S
C1020 O1022 1.256 . S
O1021 Cd1013 2.381 . S
O1021 C1020 1.258 . S
O1022 Cd1013 2.378 . S
O1022 C1020 1.256 . S
O1023 Cd1024 2.300 . S
O1023 C1030 1.275 . S
Cd1024 O1023 2.300 . S
Cd1024 O1032 2.381 . S
Cd1024 O1033 2.378 . S
O1025 Cd1026 2.385 . S
O1025 C1030 1.255 . S
Cd1026 O1025 2.385 . S
Cd1026 O1027 2.317 . S
O1027 Cd1026 2.317 . S
O1027 C1028 1.232 . S
C1028 O1027 1.232 . S
C1028 O1029 1.218 . S
O1029 C1028 1.218 . S
C1030 O1023 1.275 . S
C1030 O1025 1.255 . S
C1031 O1032 1.258 . S
C1031 O1033 1.256 . S
O1032 Cd1024 2.381 . S
O1032 C1031 1.258 . S
O1033 Cd1024 2.378 . S
O1033 C1031 1.256 . S
O1034 Cd1035 2.300 . S
O1034 C1041 1.275 . S
Cd1035 O1034 2.300 . S
Cd1035 O1043 2.381 . S
Cd1035 O1044 2.378 . S
O1036 Cd1037 2.385 . S
O1036 C1041 1.255 . S
Cd1037 O1036 2.385 . S
Cd1037 O1038 2.317 . S
O1038 Cd1037 2.317 . S
O1038 C1039 1.232 . S
C1039 O1038 1.232 . S
C1039 O1040 1.218 . S
O1040 C1039 1.218 . S
C1041 O1034 1.275 . S
C1041 O1036 1.255 . S
C1042 O1043 1.258 . S
C1042 O1044 1.256 . S
O1043 Cd1035 2.381 . S
O1043 C1042 1.258 . S
O1044 Cd1035 2.378 . S
O1044 C1042 1.256 . S
O1045 Cd1046 2.300 . S
O1045 C1052 1.275 . S
Cd1046 O1045 2.300 . S
Cd1046 O1054 2.381 . S
Cd1046 O1055 2.378 . S
O1047 Cd1048 2.385 . S
O1047 C1052 1.255 . S
Cd1048 O1047 2.385 . S
Cd1048 O1049 2.317 . S
O1049 Cd1048 2.317 . S
O1049 C1050 1.232 . S
C1050 O1049 1.232 . S
C1050 O1051 1.218 . S
O1051 C1050 1.218 . S
C1052 O1045 1.275 . S
C1052 O1047 1.255 . S
C1053 O1054 1.258 . S
C1053 O1055 1.256 . S
O1054 Cd1046 2.381 . S
O1054 C1053 1.258 . S
O1055 Cd1046 2.378 . S
O1055 C1053 1.256 . S
C1056 C1057 1.264 . S
C1056 C1061 1.479 . S
C1056 C1066 1.465 . S
C1057 C1056 1.264 . S
C1057 C1059 1.339 . S
C1057 H1084 0.931 . S
C1058 C1059 1.395 . S
C1058 C1060 1.320 . S
C1059 C1057 1.339 . S
C1059 C1058 1.395 . S
C1059 H1085 0.929 . S
C1060 C1058 1.320 . S
C1060 C1061 1.405 . S
C1060 H1086 0.930 . S
C1061 C1056 1.479 . S
C1061 C1060 1.405 . S
C1061 H1087 0.931 . S
U1062 O1063 2.454 . S
U1062 O1064 2.458 . S
U1062 C1065 2.984 . S
U1062 C1066 2.847 . S
U1062 C1079 2.882 . S
U1062 O1080 2.441 . S
U1062 O1081 2.420 . S
U1062 O1082 2.455 . S
U1062 O1083 2.449 . S
O1063 U1062 2.454 . S
O1063 C1065 1.353 . S
O1064 U1062 2.458 . S
O1064 C1065 1.286 . S
C1065 U1062 2.984 . S
C1065 O1063 1.353 . S
C1065 O1064 1.286 . S
C1065 C1067 1.363 . S
C1066 C1056 1.465 . S
C1066 U1062 2.847 . S
C1066 O1080 1.249 . S
C1066 O1081 1.202 . S
C1067 C1065 1.363 . S
C1067 C1069 1.408 . S
C1067 C1072 1.342 . S
C1068 C1069 1.310 . S
C1068 C1071 1.461 . S
C1068 H1088 0.932 . S
C1069 C1067 1.408 . S
C1069 C1068 1.310 . S
C1069 H1089 0.930 . S
C1070 C1071 1.474 . S
C1070 C1072 1.285 . S
C1070 H1090 0.929 . S
C1071 C1068 1.461 . S
C1071 C1070 1.474 . S
C1072 C1067 1.342 . S
C1072 C1070 1.285 . S
C1072 H1091 0.930 . S
C1073 C1076 1.424 . S
C1073 C1078 1.245 . S
C1073 C1079 1.428 . S
C1074 C1077 1.260 . S
C1074 C1078 1.477 . S
C1074 H1092 0.932 . S
C1075 C1076 1.384 . S
C1075 C1077 1.479 . S
C1075 H1093 0.929 . S
C1076 C1073 1.424 . S
C1076 C1075 1.384 . S
C1076 H1094 0.928 . S
C1077 C1074 1.260 . S
C1077 C1075 1.479 . S
C1078 C1073 1.245 . S
C1078 C1074 1.477 . S
C1078 H1095 0.932 . S
C1079 U1062 2.882 . S
C1079 C1073 1.428 . S
C1079 O1082 1.301 . S
C1079 O1083 1.282 . S
O1080 U1062 2.441 . S
O1080 C1066 1.249 . S
O1081 U1062 2.420 . S
O1081 C1066 1.202 . S
O1082 U1062 2.455 . S
O1082 C1079 1.301 . S
O1083 U1062 2.449 . S
O1083 C1079 1.282 . S
H1084 C1057 0.931 . S
H1085 C1059 0.929 . S
H1086 C1060 0.930 . S
H1087 C1061 0.931 . S
H1088 C1068 0.932 . S
H1089 C1069 0.930 . S
H1090 C1070 0.929 . S
H1091 C1072 0.930 . S
H1092 C1074 0.932 . S
H1093 C1075 0.929 . S
H1094 C1076 0.928 . S
H1095 C1078 0.932 . S
C1096 C1097 1.264 . S
C1096 C1101 1.479 . S
C1096 C1106 1.465 . S
C1097 C1096 1.264 . S
C1097 C1099 1.339 . S
C1097 H1124 0.931 . S
C1098 C1099 1.395 . S
C1098 C1100 1.320 . S
C1099 C1097 1.339 . S
C1099 C1098 1.395 . S
C1099 H1125 0.929 . S
C1100 C1098 1.320 . S
C1100 C1101 1.405 . S
C1100 H1126 0.930 . S
C1101 C1096 1.479 . S
C1101 C1100 1.405 . S
C1101 H1127 0.931 . S
U1102 O1103 2.454 . S
U1102 O1104 2.458 . S
U1102 C1105 2.984 . S
U1102 C1106 2.847 . S
U1102 C1119 2.882 . S
U1102 O1120 2.441 . S
U1102 O1121 2.420 . S
U1102 O1122 2.455 . S
U1102 O1123 2.449 . S
O1103 U1102 2.454 . S
O1103 C1105 1.353 . S
O1104 U1102 2.458 . S
O1104 C1105 1.286 . S
C1105 U1102 2.984 . S
C1105 O1103 1.353 . S
C1105 O1104 1.286 . S
C1105 C1107 1.363 . S
C1106 C1096 1.465 . S
C1106 U1102 2.847 . S
C1106 O1120 1.249 . S
C1106 O1121 1.202 . S
C1107 C1105 1.363 . S
C1107 C1109 1.408 . S
C1107 C1112 1.342 . S
C1108 C1109 1.310 . S
C1108 C1111 1.461 . S
C1108 H1128 0.932 . S
C1109 C1107 1.408 . S
C1109 C1108 1.310 . S
C1109 H1129 0.930 . S
C1110 C1111 1.474 . S
C1110 C1112 1.285 . S
C1110 H1130 0.929 . S
C1111 C1108 1.461 . S
C1111 C1110 1.474 . S
C1112 C1107 1.342 . S
C1112 C1110 1.285 . S
C1112 H1131 0.930 . S
C1113 C1116 1.424 . S
C1113 C1118 1.245 . S
C1113 C1119 1.428 . S
C1114 C1117 1.260 . S
C1114 C1118 1.477 . S
C1114 H1132 0.932 . S
C1115 C1116 1.384 . S
C1115 C1117 1.479 . S
C1115 H1133 0.929 . S
C1116 C1113 1.424 . S
C1116 C1115 1.384 . S
C1116 H1134 0.928 . S
C1117 C1114 1.260 . S
C1117 C1115 1.479 . S
C1118 C1113 1.245 . S
C1118 C1114 1.477 . S
C1118 H1135 0.932 . S
C1119 U1102 2.882 . S
C1119 C1113 1.428 . S
C1119 O1122 1.301 . S
C1119 O1123 1.282 . S
O1120 U1102 2.441 . S
O1120 C1106 1.249 . S
O1121 U1102 2.420 . S
O1121 C1106 1.202 . S
O1122 U1102 2.455 . S
O1122 C1119 1.301 . S
O1123 U1102 2.449 . S
O1123 C1119 1.282 . S
H1124 C1097 0.931 . S
H1125 C1099 0.929 . S
H1126 C1100 0.930 . S
H1127 C1101 0.931 . S
H1128 C1108 0.932 . S
H1129 C1109 0.930 . S
H1130 C1110 0.929 . S
H1131 C1112 0.930 . S
H1132 C1114 0.932 . S
H1133 C1115 0.929 . S
H1134 C1116 0.928 . S
H1135 C1118 0.932 . S
C1136 C1137 1.264 . S
C1136 C1141 1.479 . S
C1136 C1146 1.465 . S
C1137 C1136 1.264 . S
C1137 C1139 1.339 . S
C1137 H1164 0.931 . S
C1138 C1139 1.395 . S
C1138 C1140 1.320 . S
C1139 C1137 1.339 . S
C1139 C1138 1.395 . S
C1139 H1165 0.929 . S
C1140 C1138 1.320 . S
C1140 C1141 1.405 . S
C1140 H1166 0.930 . S
C1141 C1136 1.479 . S
C1141 C1140 1.405 . S
C1141 H1167 0.931 . S
U1142 O1143 2.454 . S
U1142 O1144 2.458 . S
U1142 C1145 2.984 . S
U1142 C1146 2.847 . S
U1142 C1159 2.882 . S
U1142 O1160 2.441 . S
U1142 O1161 2.420 . S
U1142 O1162 2.455 . S
U1142 O1163 2.449 . S
O1143 U1142 2.454 . S
O1143 C1145 1.353 . S
O1144 U1142 2.458 . S
O1144 C1145 1.286 . S
C1145 U1142 2.984 . S
C1145 O1143 1.353 . S
C1145 O1144 1.286 . S
C1145 C1147 1.363 . S
C1146 C1136 1.465 . S
C1146 U1142 2.847 . S
C1146 O1160 1.249 . S
C1146 O1161 1.202 . S
C1147 C1145 1.363 . S
C1147 C1149 1.408 . S
C1147 C1152 1.342 . S
C1148 C1149 1.310 . S
C1148 C1151 1.461 . S
C1148 H1168 0.932 . S
C1149 C1147 1.408 . S
C1149 C1148 1.310 . S
C1149 H1169 0.930 . S
C1150 C1151 1.474 . S
C1150 C1152 1.285 . S
C1150 H1170 0.929 . S
C1151 C1148 1.461 . S
C1151 C1150 1.474 . S
C1152 C1147 1.342 . S
C1152 C1150 1.285 . S
C1152 H1171 0.930 . S
C1153 C1156 1.424 . S
C1153 C1158 1.245 . S
C1153 C1159 1.428 . S
C1154 C1157 1.260 . S
C1154 C1158 1.477 . S
C1154 H1172 0.932 . S
C1155 C1156 1.384 . S
C1155 C1157 1.479 . S
C1155 H1173 0.929 . S
C1156 C1153 1.424 . S
C1156 C1155 1.384 . S
C1156 H1174 0.928 . S
C1157 C1154 1.260 . S
C1157 C1155 1.479 . S
C1158 C1153 1.245 . S
C1158 C1154 1.477 . S
C1158 H1175 0.932 . S
C1159 U1142 2.882 . S
C1159 C1153 1.428 . S
C1159 O1162 1.301 . S
C1159 O1163 1.282 . S
O1160 U1142 2.441 . S
O1160 C1146 1.249 . S
O1161 U1142 2.420 . S
O1161 C1146 1.202 . S
O1162 U1142 2.455 . S
O1162 C1159 1.301 . S
O1163 U1142 2.449 . S
O1163 C1159 1.282 . S
H1164 C1137 0.931 . S
H1165 C1139 0.929 . S
H1166 C1140 0.930 . S
H1167 C1141 0.931 . S
H1168 C1148 0.932 . S
H1169 C1149 0.930 . S
H1170 C1150 0.929 . S
H1171 C1152 0.930 . S
H1172 C1154 0.932 . S
H1173 C1155 0.929 . S
H1174 C1156 0.928 . S
H1175 C1158 0.932 . S
C1176 C1177 1.264 . S
C1176 C1181 1.479 . S
C1176 C1186 1.465 . S
C1177 C1176 1.264 . S
C1177 C1179 1.339 . S
C1177 H1204 0.931 . S
C1178 C1179 1.395 . S
C1178 C1180 1.320 . S
C1179 C1177 1.339 . S
C1179 C1178 1.395 . S
C1179 H1205 0.929 . S
C1180 C1178 1.320 . S
C1180 C1181 1.405 . S
C1180 H1206 0.930 . S
C1181 C1176 1.479 . S
C1181 C1180 1.405 . S
C1181 H1207 0.931 . S
U1182 O1183 2.454 . S
U1182 O1184 2.458 . S
U1182 C1185 2.984 . S
U1182 C1186 2.847 . S
U1182 C1199 2.882 . S
U1182 O1200 2.441 . S
U1182 O1201 2.420 . S
U1182 O1202 2.455 . S
U1182 O1203 2.449 . S
O1183 U1182 2.454 . S
O1183 C1185 1.353 . S
O1184 U1182 2.458 . S
O1184 C1185 1.286 . S
C1185 U1182 2.984 . S
C1185 O1183 1.353 . S
C1185 O1184 1.286 . S
C1185 C1187 1.363 . S
C1186 C1176 1.465 . S
C1186 U1182 2.847 . S
C1186 O1200 1.249 . S
C1186 O1201 1.202 . S
C1187 C1185 1.363 . S
C1187 C1189 1.408 . S
C1187 C1192 1.342 . S
C1188 C1189 1.310 . S
C1188 C1191 1.461 . S
C1188 H1208 0.932 . S
C1189 C1187 1.408 . S
C1189 C1188 1.310 . S
C1189 H1209 0.930 . S
C1190 C1191 1.474 . S
C1190 C1192 1.285 . S
C1190 H1210 0.929 . S
C1191 C1188 1.461 . S
C1191 C1190 1.474 . S
C1192 C1187 1.342 . S
C1192 C1190 1.285 . S
C1192 H1211 0.930 . S
C1193 C1196 1.424 . S
C1193 C1198 1.245 . S
C1193 C1199 1.428 . S
C1194 C1197 1.260 . S
C1194 C1198 1.477 . S
C1194 H1212 0.932 . S
C1195 C1196 1.384 . S
C1195 C1197 1.479 . S
C1195 H1213 0.929 . S
C1196 C1193 1.424 . S
C1196 C1195 1.384 . S
C1196 H1214 0.928 . S
C1197 C1194 1.260 . S
C1197 C1195 1.479 . S
C1198 C1193 1.245 . S
C1198 C1194 1.477 . S
C1198 H1215 0.932 . S
C1199 U1182 2.882 . S
C1199 C1193 1.428 . S
C1199 O1202 1.301 . S
C1199 O1203 1.282 . S
O1200 U1182 2.441 . S
O1200 C1186 1.249 . S
O1201 U1182 2.420 . S
O1201 C1186 1.202 . S
O1202 U1182 2.455 . S
O1202 C1199 1.301 . S
O1203 U1182 2.449 . S
O1203 C1199 1.282 . S
H1204 C1177 0.931 . S
H1205 C1179 0.929 . S
H1206 C1180 0.930 . S
H1207 C1181 0.931 . S
H1208 C1188 0.932 . S
H1209 C1189 0.930 . S
H1210 C1190 0.929 . S
H1211 C1192 0.930 . S
H1212 C1194 0.932 . S
H1213 C1195 0.929 . S
H1214 C1196 0.928 . S
H1215 C1198 0.932 . S
C1216 C1217 1.264 . S
C1216 C1221 1.479 . S
C1216 C1226 1.465 . S
C1217 C1216 1.264 . S
C1217 C1219 1.339 . S
C1217 H1244 0.931 . S
C1218 C1219 1.395 . S
C1218 C1220 1.320 . S
C1219 C1217 1.339 . S
C1219 C1218 1.395 . S
C1219 H1245 0.929 . S
C1220 C1218 1.320 . S
C1220 C1221 1.405 . S
C1220 H1246 0.930 . S
C1221 C1216 1.479 . S
C1221 C1220 1.405 . S
C1221 H1247 0.931 . S
U1222 O1223 2.454 . S
U1222 O1224 2.458 . S
U1222 C1225 2.984 . S
U1222 C1226 2.847 . S
U1222 C1239 2.882 . S
U1222 O1240 2.441 . S
U1222 O1241 2.420 . S
U1222 O1242 2.455 . S
U1222 O1243 2.449 . S
O1223 U1222 2.454 . S
O1223 C1225 1.353 . S
O1224 U1222 2.458 . S
O1224 C1225 1.286 . S
C1225 U1222 2.984 . S
C1225 O1223 1.353 . S
C1225 O1224 1.286 . S
C1225 C1227 1.363 . S
C1226 C1216 1.465 . S
C1226 U1222 2.847 . S
C1226 O1240 1.249 . S
C1226 O1241 1.202 . S
C1227 C1225 1.363 . S
C1227 C1229 1.408 . S
C1227 C1232 1.342 . S
C1228 C1229 1.310 . S
C1228 C1231 1.461 . S
C1228 H1248 0.932 . S
C1229 C1227 1.408 . S
C1229 C1228 1.310 . S
C1229 H1249 0.930 . S
C1230 C1231 1.474 . S
C1230 C1232 1.285 . S
C1230 H1250 0.929 . S
C1231 C1228 1.461 . S
C1231 C1230 1.474 . S
C1232 C1227 1.342 . S
C1232 C1230 1.285 . S
C1232 H1251 0.930 . S
C1233 C1236 1.424 . S
C1233 C1238 1.245 . S
C1233 C1239 1.428 . S
C1234 C1237 1.260 . S
C1234 C1238 1.477 . S
C1234 H1252 0.932 . S
C1235 C1236 1.384 . S
C1235 C1237 1.479 . S
C1235 H1253 0.929 . S
C1236 C1233 1.424 . S
C1236 C1235 1.384 . S
C1236 H1254 0.928 . S
C1237 C1234 1.260 . S
C1237 C1235 1.479 . S
C1238 C1233 1.245 . S
C1238 C1234 1.477 . S
C1238 H1255 0.932 . S
C1239 U1222 2.882 . S
C1239 C1233 1.428 . S
C1239 O1242 1.301 . S
C1239 O1243 1.282 . S
O1240 U1222 2.441 . S
O1240 C1226 1.249 . S
O1241 U1222 2.420 . S
O1241 C1226 1.202 . S
O1242 U1222 2.455 . S
O1242 C1239 1.301 . S
O1243 U1222 2.449 . S
O1243 C1239 1.282 . S
H1244 C1217 0.931 . S
H1245 C1219 0.929 . S
H1246 C1220 0.930 . S
H1247 C1221 0.931 . S
H1248 C1228 0.932 . S
H1249 C1229 0.930 . S
H1250 C1230 0.929 . S
H1251 C1232 0.930 . S
H1252 C1234 0.932 . S
H1253 C1235 0.929 . S
H1254 C1236 0.928 . S
H1255 C1238 0.932 . S
C1256 C1257 1.264 . S
C1256 C1261 1.479 . S
C1256 C1266 1.465 . S
C1257 C1256 1.264 . S
C1257 C1259 1.339 . S
C1257 H1284 0.931 . S
C1258 C1259 1.395 . S
C1258 C1260 1.320 . S
C1259 C1257 1.339 . S
C1259 C1258 1.395 . S
C1259 H1285 0.929 . S
C1260 C1258 1.320 . S
C1260 C1261 1.405 . S
C1260 H1286 0.930 . S
C1261 C1256 1.479 . S
C1261 C1260 1.405 . S
C1261 H1287 0.931 . S
U1262 O1263 2.454 . S
U1262 O1264 2.458 . S
U1262 C1265 2.984 . S
U1262 C1266 2.847 . S
U1262 C1279 2.882 . S
U1262 O1280 2.441 . S
U1262 O1281 2.420 . S
U1262 O1282 2.455 . S
U1262 O1283 2.449 . S
O1263 U1262 2.454 . S
O1263 C1265 1.353 . S
O1264 U1262 2.458 . S
O1264 C1265 1.286 . S
C1265 U1262 2.984 . S
C1265 O1263 1.353 . S
C1265 O1264 1.286 . S
C1265 C1267 1.363 . S
C1266 C1256 1.465 . S
C1266 U1262 2.847 . S
C1266 O1280 1.249 . S
C1266 O1281 1.202 . S
C1267 C1265 1.363 . S
C1267 C1269 1.408 . S
C1267 C1272 1.342 . S
C1268 C1269 1.310 . S
C1268 C1271 1.461 . S
C1268 H1288 0.932 . S
C1269 C1267 1.408 . S
C1269 C1268 1.310 . S
C1269 H1289 0.930 . S
C1270 C1271 1.474 . S
C1270 C1272 1.285 . S
C1270 H1290 0.929 . S
C1271 C1268 1.461 . S
C1271 C1270 1.474 . S
C1272 C1267 1.342 . S
C1272 C1270 1.285 . S
C1272 H1291 0.930 . S
C1273 C1276 1.424 . S
C1273 C1278 1.245 . S
C1273 C1279 1.428 . S
C1274 C1277 1.260 . S
C1274 C1278 1.477 . S
C1274 H1292 0.932 . S
C1275 C1276 1.384 . S
C1275 C1277 1.479 . S
C1275 H1293 0.929 . S
C1276 C1273 1.424 . S
C1276 C1275 1.384 . S
C1276 H1294 0.928 . S
C1277 C1274 1.260 . S
C1277 C1275 1.479 . S
C1278 C1273 1.245 . S
C1278 C1274 1.477 . S
C1278 H1295 0.932 . S
C1279 U1262 2.882 . S
C1279 C1273 1.428 . S
C1279 O1282 1.301 . S
C1279 O1283 1.282 . S
O1280 U1262 2.441 . S
O1280 C1266 1.249 . S
O1281 U1262 2.420 . S
O1281 C1266 1.202 . S
O1282 U1262 2.455 . S
O1282 C1279 1.301 . S
O1283 U1262 2.449 . S
O1283 C1279 1.282 . S
H1284 C1257 0.931 . S
H1285 C1259 0.929 . S
H1286 C1260 0.930 . S
H1287 C1261 0.931 . S
H1288 C1268 0.932 . S
H1289 C1269 0.930 . S
H1290 C1270 0.929 . S
H1291 C1272 0.930 . S
H1292 C1274 0.932 . S
H1293 C1275 0.929 . S
H1294 C1276 0.928 . S
H1295 C1278 0.932 . S
C1296 C1297 1.264 . S
C1296 C1301 1.479 . S
C1296 C1306 1.465 . S
C1297 C1296 1.264 . S
C1297 C1299 1.339 . S
C1297 H1324 0.931 . S
C1298 C1299 1.395 . S
C1298 C1300 1.320 . S
C1299 C1297 1.339 . S
C1299 C1298 1.395 . S
C1299 H1325 0.929 . S
C1300 C1298 1.320 . S
C1300 C1301 1.405 . S
C1300 H1326 0.930 . S
C1301 C1296 1.479 . S
C1301 C1300 1.405 . S
C1301 H1327 0.931 . S
U1302 O1303 2.454 . S
U1302 O1304 2.458 . S
U1302 C1305 2.984 . S
U1302 C1306 2.847 . S
U1302 C1319 2.882 . S
U1302 O1320 2.441 . S
U1302 O1321 2.420 . S
U1302 O1322 2.455 . S
U1302 O1323 2.449 . S
O1303 U1302 2.454 . S
O1303 C1305 1.353 . S
O1304 U1302 2.458 . S
O1304 C1305 1.286 . S
C1305 U1302 2.984 . S
C1305 O1303 1.353 . S
C1305 O1304 1.286 . S
C1305 C1307 1.363 . S
C1306 C1296 1.465 . S
C1306 U1302 2.847 . S
C1306 O1320 1.249 . S
C1306 O1321 1.202 . S
C1307 C1305 1.363 . S
C1307 C1309 1.408 . S
C1307 C1312 1.342 . S
C1308 C1309 1.310 . S
C1308 C1311 1.461 . S
C1308 H1328 0.932 . S
C1309 C1307 1.408 . S
C1309 C1308 1.310 . S
C1309 H1329 0.930 . S
C1310 C1311 1.474 . S
C1310 C1312 1.285 . S
C1310 H1330 0.929 . S
C1311 C1308 1.461 . S
C1311 C1310 1.474 . S
C1312 C1307 1.342 . S
C1312 C1310 1.285 . S
C1312 H1331 0.930 . S
C1313 C1316 1.424 . S
C1313 C1318 1.245 . S
C1313 C1319 1.428 . S
C1314 C1317 1.260 . S
C1314 C1318 1.477 . S
C1314 H1332 0.932 . S
C1315 C1316 1.384 . S
C1315 C1317 1.479 . S
C1315 H1333 0.929 . S
C1316 C1313 1.424 . S
C1316 C1315 1.384 . S
C1316 H1334 0.928 . S
C1317 C1314 1.260 . S
C1317 C1315 1.479 . S
C1318 C1313 1.245 . S
C1318 C1314 1.477 . S
C1318 H1335 0.932 . S
C1319 U1302 2.882 . S
C1319 C1313 1.428 . S
C1319 O1322 1.301 . S
C1319 O1323 1.282 . S
O1320 U1302 2.441 . S
O1320 C1306 1.249 . S
O1321 U1302 2.420 . S
O1321 C1306 1.202 . S
O1322 U1302 2.455 . S
O1322 C1319 1.301 . S
O1323 U1302 2.449 . S
O1323 C1319 1.282 . S
H1324 C1297 0.931 . S
H1325 C1299 0.929 . S
H1326 C1300 0.930 . S
H1327 C1301 0.931 . S
H1328 C1308 0.932 . S
H1329 C1309 0.930 . S
H1330 C1310 0.929 . S
H1331 C1312 0.930 . S
H1332 C1314 0.932 . S
H1333 C1315 0.929 . S
H1334 C1316 0.928 . S
H1335 C1318 0.932 . S
C1336 C1337 1.264 . S
C1336 C1341 1.479 . S
C1336 C1346 1.465 . S
C1337 C1336 1.264 . S
C1337 C1339 1.339 . S
C1337 H1364 0.931 . S
C1338 C1339 1.395 . S
C1338 C1340 1.320 . S
C1339 C1337 1.339 . S
C1339 C1338 1.395 . S
C1339 H1365 0.929 . S
C1340 C1338 1.320 . S
C1340 C1341 1.405 . S
C1340 H1366 0.930 . S
C1341 C1336 1.479 . S
C1341 C1340 1.405 . S
C1341 H1367 0.931 . S
U1342 O1343 2.454 . S
U1342 O1344 2.458 . S
U1342 C1345 2.984 . S
U1342 C1346 2.847 . S
U1342 C1359 2.882 . S
U1342 O1360 2.441 . S
U1342 O1361 2.420 . S
U1342 O1362 2.455 . S
U1342 O1363 2.449 . S
O1343 U1342 2.454 . S
O1343 C1345 1.353 . S
O1344 U1342 2.458 . S
O1344 C1345 1.286 . S
C1345 U1342 2.984 . S
C1345 O1343 1.353 . S
C1345 O1344 1.286 . S
C1345 C1347 1.363 . S
C1346 C1336 1.465 . S
C1346 U1342 2.847 . S
C1346 O1360 1.249 . S
C1346 O1361 1.202 . S
C1347 C1345 1.363 . S
C1347 C1349 1.408 . S
C1347 C1352 1.342 . S
C1348 C1349 1.310 . S
C1348 C1351 1.461 . S
C1348 H1368 0.932 . S
C1349 C1347 1.408 . S
C1349 C1348 1.310 . S
C1349 H1369 0.930 . S
C1350 C1351 1.474 . S
C1350 C1352 1.285 . S
C1350 H1370 0.929 . S
C1351 C1348 1.461 . S
C1351 C1350 1.474 . S
C1352 C1347 1.342 . S
C1352 C1350 1.285 . S
C1352 H1371 0.930 . S
C1353 C1356 1.424 . S
C1353 C1358 1.245 . S
C1353 C1359 1.428 . S
C1354 C1357 1.260 . S
C1354 C1358 1.477 . S
C1354 H1372 0.932 . S
C1355 C1356 1.384 . S
C1355 C1357 1.479 . S
C1355 H1373 0.929 . S
C1356 C1353 1.424 . S
C1356 C1355 1.384 . S
C1356 H1374 0.928 . S
C1357 C1354 1.260 . S
C1357 C1355 1.479 . S
C1358 C1353 1.245 . S
C1358 C1354 1.477 . S
C1358 H1375 0.932 . S
C1359 U1342 2.882 . S
C1359 C1353 1.428 . S
C1359 O1362 1.301 . S
C1359 O1363 1.282 . S
O1360 U1342 2.441 . S
O1360 C1346 1.249 . S
O1361 U1342 2.420 . S
O1361 C1346 1.202 . S
O1362 U1342 2.455 . S
O1362 C1359 1.301 . S
O1363 U1342 2.449 . S
O1363 C1359 1.282 . S
H1364 C1337 0.931 . S
H1365 C1339 0.929 . S
H1366 C1340 0.930 . S
H1367 C1341 0.931 . S
H1368 C1348 0.932 . S
H1369 C1349 0.930 . S
H1370 C1350 0.929 . S
H1371 C1352 0.930 . S
H1372 C1354 0.932 . S
H1373 C1355 0.929 . S
H1374 C1356 0.928 . S
H1375 C1358 0.932 . S
C1376 C1377 1.264 . S
C1376 C1381 1.479 . S
C1376 C1386 1.465 . S
C1377 C1376 1.264 . S
C1377 C1379 1.339 . S
C1377 H1404 0.931 . S
C1378 C1379 1.395 . S
C1378 C1380 1.320 . S
C1379 C1377 1.339 . S
C1379 C1378 1.395 . S
C1379 H1405 0.929 . S
C1380 C1378 1.320 . S
C1380 C1381 1.405 . S
C1380 H1406 0.930 . S
C1381 C1376 1.479 . S
C1381 C1380 1.405 . S
C1381 H1407 0.931 . S
U1382 O1383 2.454 . S
U1382 O1384 2.458 . S
U1382 C1385 2.984 . S
U1382 C1386 2.847 . S
U1382 C1399 2.882 . S
U1382 O1400 2.441 . S
U1382 O1401 2.420 . S
U1382 O1402 2.455 . S
U1382 O1403 2.449 . S
O1383 U1382 2.454 . S
O1383 C1385 1.353 . S
O1384 U1382 2.458 . S
O1384 C1385 1.286 . S
C1385 U1382 2.984 . S
C1385 O1383 1.353 . S
C1385 O1384 1.286 . S
C1385 C1387 1.363 . S
C1386 C1376 1.465 . S
C1386 U1382 2.847 . S
C1386 O1400 1.249 . S
C1386 O1401 1.202 . S
C1387 C1385 1.363 . S
C1387 C1389 1.408 . S
C1387 C1392 1.342 . S
C1388 C1389 1.310 . S
C1388 C1391 1.461 . S
C1388 H1408 0.932 . S
C1389 C1387 1.408 . S
C1389 C1388 1.310 . S
C1389 H1409 0.930 . S
C1390 C1391 1.474 . S
C1390 C1392 1.285 . S
C1390 H1410 0.929 . S
C1391 C1388 1.461 . S
C1391 C1390 1.474 . S
C1392 C1387 1.342 . S
C1392 C1390 1.285 . S
C1392 H1411 0.930 . S
C1393 C1396 1.424 . S
C1393 C1398 1.245 . S
C1393 C1399 1.428 . S
C1394 C1397 1.260 . S
C1394 C1398 1.477 . S
C1394 H1412 0.932 . S
C1395 C1396 1.384 . S
C1395 C1397 1.479 . S
C1395 H1413 0.929 . S
C1396 C1393 1.424 . S
C1396 C1395 1.384 . S
C1396 H1414 0.928 . S
C1397 C1394 1.260 . S
C1397 C1395 1.479 . S
C1398 C1393 1.245 . S
C1398 C1394 1.477 . S
C1398 H1415 0.932 . S
C1399 U1382 2.882 . S
C1399 C1393 1.428 . S
C1399 O1402 1.301 . S
C1399 O1403 1.282 . S
O1400 U1382 2.441 . S
O1400 C1386 1.249 . S
O1401 U1382 2.420 . S
O1401 C1386 1.202 . S
O1402 U1382 2.455 . S
O1402 C1399 1.301 . S
O1403 U1382 2.449 . S
O1403 C1399 1.282 . S
H1404 C1377 0.931 . S
H1405 C1379 0.929 . S
H1406 C1380 0.930 . S
H1407 C1381 0.931 . S
H1408 C1388 0.932 . S
H1409 C1389 0.930 . S
H1410 C1390 0.929 . S
H1411 C1392 0.930 . S
H1412 C1394 0.932 . S
H1413 C1395 0.929 . S
H1414 C1396 0.928 . S
H1415 C1398 0.932 . S
C1416 C1417 1.264 . S
C1416 C1421 1.479 . S
C1416 C1426 1.465 . S
C1417 C1416 1.264 . S
C1417 C1419 1.339 . S
C1417 H1444 0.931 . S
C1418 C1419 1.395 . S
C1418 C1420 1.320 . S
C1419 C1417 1.339 . S
C1419 C1418 1.395 . S
C1419 H1445 0.929 . S
C1420 C1418 1.320 . S
C1420 C1421 1.405 . S
C1420 H1446 0.930 . S
C1421 C1416 1.479 . S
C1421 C1420 1.405 . S
C1421 H1447 0.931 . S
U1422 O1423 2.454 . S
U1422 O1424 2.458 . S
U1422 C1425 2.984 . S
U1422 C1426 2.847 . S
U1422 C1439 2.882 . S
U1422 O1440 2.441 . S
U1422 O1441 2.420 . S
U1422 O1442 2.455 . S
U1422 O1443 2.449 . S
O1423 U1422 2.454 . S
O1423 C1425 1.353 . S
O1424 U1422 2.458 . S
O1424 C1425 1.286 . S
C1425 U1422 2.984 . S
C1425 O1423 1.353 . S
C1425 O1424 1.286 . S
C1425 C1427 1.363 . S
C1426 C1416 1.465 . S
C1426 U1422 2.847 . S
C1426 O1440 1.249 . S
C1426 O1441 1.202 . S
C1427 C1425 1.363 . S
C1427 C1429 1.408 . S
C1427 C1432 1.342 . S
C1428 C1429 1.310 . S
C1428 C1431 1.461 . S
C1428 H1448 0.932 . S
C1429 C1427 1.408 . S
C1429 C1428 1.310 . S
C1429 H1449 0.930 . S
C1430 C1431 1.474 . S
C1430 C1432 1.285 . S
C1430 H1450 0.929 . S
C1431 C1428 1.461 . S
C1431 C1430 1.474 . S
C1432 C1427 1.342 . S
C1432 C1430 1.285 . S
C1432 H1451 0.930 . S
C1433 C1436 1.424 . S
C1433 C1438 1.245 . S
C1433 C1439 1.428 . S
C1434 C1437 1.260 . S
C1434 C1438 1.477 . S
C1434 H1452 0.932 . S
C1435 C1436 1.384 . S
C1435 C1437 1.479 . S
C1435 H1453 0.929 . S
C1436 C1433 1.424 . S
C1436 C1435 1.384 . S
C1436 H1454 0.928 . S
C1437 C1434 1.260 . S
C1437 C1435 1.479 . S
C1438 C1433 1.245 . S
C1438 C1434 1.477 . S
C1438 H1455 0.932 . S
C1439 U1422 2.882 . S
C1439 C1433 1.428 . S
C1439 O1442 1.301 . S
C1439 O1443 1.282 . S
O1440 U1422 2.441 . S
O1440 C1426 1.249 . S
O1441 U1422 2.420 . S
O1441 C1426 1.202 . S
O1442 U1422 2.455 . S
O1442 C1439 1.301 . S
O1443 U1422 2.449 . S
O1443 C1439 1.282 . S
H1444 C1417 0.931 . S
H1445 C1419 0.929 . S
H1446 C1420 0.930 . S
H1447 C1421 0.931 . S
H1448 C1428 0.932 . S
H1449 C1429 0.930 . S
H1450 C1430 0.929 . S
H1451 C1432 0.930 . S
H1452 C1434 0.932 . S
H1453 C1435 0.929 . S
H1454 C1436 0.928 . S
H1455 C1438 0.932 . S
C1456 C1457 1.264 . S
C1456 C1461 1.479 . S
C1456 C1466 1.465 . S
C1457 C1456 1.264 . S
C1457 C1459 1.339 . S
C1457 H1484 0.931 . S
C1458 C1459 1.395 . S
C1458 C1460 1.320 . S
C1459 C1457 1.339 . S
C1459 C1458 1.395 . S
C1459 H1485 0.929 . S
C1460 C1458 1.320 . S
C1460 C1461 1.405 . S
C1460 H1486 0.930 . S
C1461 C1456 1.479 . S
C1461 C1460 1.405 . S
C1461 H1487 0.931 . S
U1462 O1463 2.454 . S
U1462 O1464 2.458 . S
U1462 C1465 2.984 . S
U1462 C1466 2.847 . S
U1462 C1479 2.882 . S
U1462 O1480 2.441 . S
U1462 O1481 2.420 . S
U1462 O1482 2.455 . S
U1462 O1483 2.449 . S
O1463 U1462 2.454 . S
O1463 C1465 1.353 . S
O1464 U1462 2.458 . S
O1464 C1465 1.286 . S
C1465 U1462 2.984 . S
C1465 O1463 1.353 . S
C1465 O1464 1.286 . S
C1465 C1467 1.363 . S
C1466 C1456 1.465 . S
C1466 U1462 2.847 . S
C1466 O1480 1.249 . S
C1466 O1481 1.202 . S
C1467 C1465 1.363 . S
C1467 C1469 1.408 . S
C1467 C1472 1.342 . S
C1468 C1469 1.310 . S
C1468 C1471 1.461 . S
C1468 H1488 0.932 . S
C1469 C1467 1.408 . S
C1469 C1468 1.310 . S
C1469 H1489 0.930 . S
C1470 C1471 1.474 . S
C1470 C1472 1.285 . S
C1470 H1490 0.929 . S
C1471 C1468 1.461 . S
C1471 C1470 1.474 . S
C1472 C1467 1.342 . S
C1472 C1470 1.285 . S
C1472 H1491 0.930 . S
C1473 C1476 1.424 . S
C1473 C1478 1.245 . S
C1473 C1479 1.428 . S
C1474 C1477 1.260 . S
C1474 C1478 1.477 . S
C1474 H1492 0.932 . S
C1475 C1476 1.384 . S
C1475 C1477 1.479 . S
C1475 H1493 0.929 . S
C1476 C1473 1.424 . S
C1476 C1475 1.384 . S
C1476 H1494 0.928 . S
C1477 C1474 1.260 . S
C1477 C1475 1.479 . S
C1478 C1473 1.245 . S
C1478 C1474 1.477 . S
C1478 H1495 0.932 . S
C1479 U1462 2.882 . S
C1479 C1473 1.428 . S
C1479 O1482 1.301 . S
C1479 O1483 1.282 . S
O1480 U1462 2.441 . S
O1480 C1466 1.249 . S
O1481 U1462 2.420 . S
O1481 C1466 1.202 . S
O1482 U1462 2.455 . S
O1482 C1479 1.301 . S
O1483 U1462 2.449 . S
O1483 C1479 1.282 . S
H1484 C1457 0.931 . S
H1485 C1459 0.929 . S
H1486 C1460 0.930 . S
H1487 C1461 0.931 . S
H1488 C1468 0.932 . S
H1489 C1469 0.930 . S
H1490 C1470 0.929 . S
H1491 C1472 0.930 . S
H1492 C1474 0.932 . S
H1493 C1475 0.929 . S
H1494 C1476 0.928 . S
H1495 C1478 0.932 . S
C1496 C1497 1.264 . S
C1496 C1501 1.479 . S
C1496 C1506 1.465 . S
C1497 C1496 1.264 . S
C1497 C1499 1.339 . S
C1497 H1524 0.931 . S
C1498 C1499 1.395 . S
C1498 C1500 1.320 . S
C1499 C1497 1.339 . S
C1499 C1498 1.395 . S
C1499 H1525 0.929 . S
C1500 C1498 1.320 . S
C1500 C1501 1.405 . S
C1500 H1526 0.930 . S
C1501 C1496 1.479 . S
C1501 C1500 1.405 . S
C1501 H1527 0.931 . S
U1502 O1503 2.454 . S
U1502 O1504 2.458 . S
U1502 C1505 2.984 . S
U1502 C1506 2.847 . S
U1502 C1519 2.882 . S
U1502 O1520 2.441 . S
U1502 O1521 2.420 . S
U1502 O1522 2.455 . S
U1502 O1523 2.449 . S
O1503 U1502 2.454 . S
O1503 C1505 1.353 . S
O1504 U1502 2.458 . S
O1504 C1505 1.286 . S
C1505 U1502 2.984 . S
C1505 O1503 1.353 . S
C1505 O1504 1.286 . S
C1505 C1507 1.363 . S
C1506 C1496 1.465 . S
C1506 U1502 2.847 . S
C1506 O1520 1.249 . S
C1506 O1521 1.202 . S
C1507 C1505 1.363 . S
C1507 C1509 1.408 . S
C1507 C1512 1.342 . S
C1508 C1509 1.310 . S
C1508 C1511 1.461 . S
C1508 H1528 0.932 . S
C1509 C1507 1.408 . S
C1509 C1508 1.310 . S
C1509 H1529 0.930 . S
C1510 C1511 1.474 . S
C1510 C1512 1.285 . S
C1510 H1530 0.929 . S
C1511 C1508 1.461 . S
C1511 C1510 1.474 . S
C1512 C1507 1.342 . S
C1512 C1510 1.285 . S
C1512 H1531 0.930 . S
C1513 C1516 1.424 . S
C1513 C1518 1.245 . S
C1513 C1519 1.428 . S
C1514 C1517 1.260 . S
C1514 C1518 1.477 . S
C1514 H1532 0.932 . S
C1515 C1516 1.384 . S
C1515 C1517 1.479 . S
C1515 H1533 0.929 . S
C1516 C1513 1.424 . S
C1516 C1515 1.384 . S
C1516 H1534 0.928 . S
C1517 C1514 1.260 . S
C1517 C1515 1.479 . S
C1518 C1513 1.245 . S
C1518 C1514 1.477 . S
C1518 H1535 0.932 . S
C1519 U1502 2.882 . S
C1519 C1513 1.428 . S
C1519 O1522 1.301 . S
C1519 O1523 1.282 . S
O1520 U1502 2.441 . S
O1520 C1506 1.249 . S
O1521 U1502 2.420 . S
O1521 C1506 1.202 . S
O1522 U1502 2.455 . S
O1522 C1519 1.301 . S
O1523 U1502 2.449 . S
O1523 C1519 1.282 . S
H1524 C1497 0.931 . S
H1525 C1499 0.929 . S
H1526 C1500 0.930 . S
H1527 C1501 0.931 . S
H1528 C1508 0.932 . S
H1529 C1509 0.930 . S
H1530 C1510 0.929 . S
H1531 C1512 0.930 . S
H1532 C1514 0.932 . S
H1533 C1515 0.929 . S
H1534 C1516 0.928 . S
H1535 C1518 0.932 . S
C1536 C1537 1.264 . S
C1536 C1541 1.479 . S
C1536 C1546 1.465 . S
C1537 C1536 1.264 . S
C1537 C1539 1.339 . S
C1537 H1564 0.931 . S
C1538 C1539 1.395 . S
C1538 C1540 1.320 . S
C1539 C1537 1.339 . S
C1539 C1538 1.395 . S
C1539 H1565 0.929 . S
C1540 C1538 1.320 . S
C1540 C1541 1.405 . S
C1540 H1566 0.930 . S
C1541 C1536 1.479 . S
C1541 C1540 1.405 . S
C1541 H1567 0.931 . S
U1542 O1543 2.454 . S
U1542 O1544 2.458 . S
U1542 C1545 2.984 . S
U1542 C1546 2.847 . S
U1542 C1559 2.882 . S
U1542 O1560 2.441 . S
U1542 O1561 2.420 . S
U1542 O1562 2.455 . S
U1542 O1563 2.449 . S
O1543 U1542 2.454 . S
O1543 C1545 1.353 . S
O1544 U1542 2.458 . S
O1544 C1545 1.286 . S
C1545 U1542 2.984 . S
C1545 O1543 1.353 . S
C1545 O1544 1.286 . S
C1545 C1547 1.363 . S
C1546 C1536 1.465 . S
C1546 U1542 2.847 . S
C1546 O1560 1.249 . S
C1546 O1561 1.202 . S
C1547 C1545 1.363 . S
C1547 C1549 1.408 . S
C1547 C1552 1.342 . S
C1548 C1549 1.310 . S
C1548 C1551 1.461 . S
C1548 H1568 0.932 . S
C1549 C1547 1.408 . S
C1549 C1548 1.310 . S
C1549 H1569 0.930 . S
C1550 C1551 1.474 . S
C1550 C1552 1.285 . S
C1550 H1570 0.929 . S
C1551 C1548 1.461 . S
C1551 C1550 1.474 . S
C1552 C1547 1.342 . S
C1552 C1550 1.285 . S
C1552 H1571 0.930 . S
C1553 C1556 1.424 . S
C1553 C1558 1.245 . S
C1553 C1559 1.428 . S
C1554 C1557 1.260 . S
C1554 C1558 1.477 . S
C1554 H1572 0.932 . S
C1555 C1556 1.384 . S
C1555 C1557 1.479 . S
C1555 H1573 0.929 . S
C1556 C1553 1.424 . S
C1556 C1555 1.384 . S
C1556 H1574 0.928 . S
C1557 C1554 1.260 . S
C1557 C1555 1.479 . S
C1558 C1553 1.245 . S
C1558 C1554 1.477 . S
C1558 H1575 0.932 . S
C1559 U1542 2.882 . S
C1559 C1553 1.428 . S
C1559 O1562 1.301 . S
C1559 O1563 1.282 . S
O1560 U1542 2.441 . S
O1560 C1546 1.249 . S
O1561 U1542 2.420 . S
O1561 C1546 1.202 . S
O1562 U1542 2.455 . S
O1562 C1559 1.301 . S
O1563 U1542 2.449 . S
O1563 C1559 1.282 . S
H1564 C1537 0.931 . S
H1565 C1539 0.929 . S
H1566 C1540 0.930 . S
H1567 C1541 0.931 . S
H1568 C1548 0.932 . S
H1569 C1549 0.930 . S
H1570 C1550 0.929 . S
H1571 C1552 0.930 . S
H1572 C1554 0.932 . S
H1573 C1555 0.929 . S
H1574 C1556 0.928 . S
H1575 C1558 0.932 . S
C1576 C1577 1.264 . S
C1576 C1581 1.479 . S
C1576 C1586 1.465 . S
C1577 C1576 1.264 . S
C1577 C1579 1.339 . S
C1577 H1604 0.931 . S
C1578 C1579 1.395 . S
C1578 C1580 1.320 . S
C1579 C1577 1.339 . S
C1579 C1578 1.395 . S
C1579 H1605 0.929 . S
C1580 C1578 1.320 . S
C1580 C1581 1.405 . S
C1580 H1606 0.930 . S
C1581 C1576 1.479 . S
C1581 C1580 1.405 . S
C1581 H1607 0.931 . S
U1582 O1583 2.454 . S
U1582 O1584 2.458 . S
U1582 C1585 2.984 . S
U1582 C1586 2.847 . S
U1582 C1599 2.882 . S
U1582 O1600 2.441 . S
U1582 O1601 2.420 . S
U1582 O1602 2.455 . S
U1582 O1603 2.449 . S
O1583 U1582 2.454 . S
O1583 C1585 1.353 . S
O1584 U1582 2.458 . S
O1584 C1585 1.286 . S
C1585 U1582 2.984 . S
C1585 O1583 1.353 . S
C1585 O1584 1.286 . S
C1585 C1587 1.363 . S
C1586 C1576 1.465 . S
C1586 U1582 2.847 . S
C1586 O1600 1.249 . S
C1586 O1601 1.202 . S
C1587 C1585 1.363 . S
C1587 C1589 1.408 . S
C1587 C1592 1.342 . S
C1588 C1589 1.310 . S
C1588 C1591 1.461 . S
C1588 H1608 0.932 . S
C1589 C1587 1.408 . S
C1589 C1588 1.310 . S
C1589 H1609 0.930 . S
C1590 C1591 1.474 . S
C1590 C1592 1.285 . S
C1590 H1610 0.929 . S
C1591 C1588 1.461 . S
C1591 C1590 1.474 . S
C1592 C1587 1.342 . S
C1592 C1590 1.285 . S
C1592 H1611 0.930 . S
C1593 C1596 1.424 . S
C1593 C1598 1.245 . S
C1593 C1599 1.428 . S
C1594 C1597 1.260 . S
C1594 C1598 1.477 . S
C1594 H1612 0.932 . S
C1595 C1596 1.384 . S
C1595 C1597 1.479 . S
C1595 H1613 0.929 . S
C1596 C1593 1.424 . S
C1596 C1595 1.384 . S
C1596 H1614 0.928 . S
C1597 C1594 1.260 . S
C1597 C1595 1.479 . S
C1598 C1593 1.245 . S
C1598 C1594 1.477 . S
C1598 H1615 0.932 . S
C1599 U1582 2.882 . S
C1599 C1593 1.428 . S
C1599 O1602 1.301 . S
C1599 O1603 1.282 . S
O1600 U1582 2.441 . S
O1600 C1586 1.249 . S
O1601 U1582 2.420 . S
O1601 C1586 1.202 . S
O1602 U1582 2.455 . S
O1602 C1599 1.301 . S
O1603 U1582 2.449 . S
O1603 C1599 1.282 . S
H1604 C1577 0.931 . S
H1605 C1579 0.929 . S
H1606 C1580 0.930 . S
H1607 C1581 0.931 . S
H1608 C1588 0.932 . S
H1609 C1589 0.930 . S
H1610 C1590 0.929 . S
H1611 C1592 0.930 . S
H1612 C1594 0.932 . S
H1613 C1595 0.929 . S
H1614 C1596 0.928 . S
H1615 C1598 0.932 . S
C1616 C1617 1.264 . S
C1616 C1621 1.479 . S
C1616 C1626 1.465 . S
C1617 C1616 1.264 . S
C1617 C1619 1.339 . S
C1617 H1644 0.931 . S
C1618 C1619 1.395 . S
C1618 C1620 1.320 . S
C1619 C1617 1.339 . S
C1619 C1618 1.395 . S
C1619 H1645 0.929 . S
C1620 C1618 1.320 . S
C1620 C1621 1.405 . S
C1620 H1646 0.930 . S
C1621 C1616 1.479 . S
C1621 C1620 1.405 . S
C1621 H1647 0.931 . S
U1622 O1623 2.454 . S
U1622 O1624 2.458 . S
U1622 C1625 2.984 . S
U1622 C1626 2.847 . S
U1622 C1639 2.882 . S
U1622 O1640 2.441 . S
U1622 O1641 2.420 . S
U1622 O1642 2.455 . S
U1622 O1643 2.449 . S
O1623 U1622 2.454 . S
O1623 C1625 1.353 . S
O1624 U1622 2.458 . S
O1624 C1625 1.286 . S
C1625 U1622 2.984 . S
C1625 O1623 1.353 . S
C1625 O1624 1.286 . S
C1625 C1627 1.363 . S
C1626 C1616 1.465 . S
C1626 U1622 2.847 . S
C1626 O1640 1.249 . S
C1626 O1641 1.202 . S
C1627 C1625 1.363 . S
C1627 C1629 1.408 . S
C1627 C1632 1.342 . S
C1628 C1629 1.310 . S
C1628 C1631 1.461 . S
C1628 H1648 0.932 . S
C1629 C1627 1.408 . S
C1629 C1628 1.310 . S
C1629 H1649 0.930 . S
C1630 C1631 1.474 . S
C1630 C1632 1.285 . S
C1630 H1650 0.929 . S
C1631 C1628 1.461 . S
C1631 C1630 1.474 . S
C1632 C1627 1.342 . S
C1632 C1630 1.285 . S
C1632 H1651 0.930 . S
C1633 C1636 1.424 . S
C1633 C1638 1.245 . S
C1633 C1639 1.428 . S
C1634 C1637 1.260 . S
C1634 C1638 1.477 . S
C1634 H1652 0.932 . S
C1635 C1636 1.384 . S
C1635 C1637 1.479 . S
C1635 H1653 0.929 . S
C1636 C1633 1.424 . S
C1636 C1635 1.384 . S
C1636 H1654 0.928 . S
C1637 C1634 1.260 . S
C1637 C1635 1.479 . S
C1638 C1633 1.245 . S
C1638 C1634 1.477 . S
C1638 H1655 0.932 . S
C1639 U1622 2.882 . S
C1639 C1633 1.428 . S
C1639 O1642 1.301 . S
C1639 O1643 1.282 . S
O1640 U1622 2.441 . S
O1640 C1626 1.249 . S
O1641 U1622 2.420 . S
O1641 C1626 1.202 . S
O1642 U1622 2.455 . S
O1642 C1639 1.301 . S
O1643 U1622 2.449 . S
O1643 C1639 1.282 . S
H1644 C1617 0.931 . S
H1645 C1619 0.929 . S
H1646 C1620 0.930 . S
H1647 C1621 0.931 . S
H1648 C1628 0.932 . S
H1649 C1629 0.930 . S
H1650 C1630 0.929 . S
H1651 C1632 0.930 . S
H1652 C1634 0.932 . S
H1653 C1635 0.929 . S
H1654 C1636 0.928 . S
H1655 C1638 0.932 . S
C1656 C1657 1.264 . S
C1656 C1661 1.479 . S
C1656 C1666 1.465 . S
C1657 C1656 1.264 . S
C1657 C1659 1.339 . S
C1657 H1684 0.931 . S
C1658 C1659 1.395 . S
C1658 C1660 1.320 . S
C1659 C1657 1.339 . S
C1659 C1658 1.395 . S
C1659 H1685 0.929 . S
C1660 C1658 1.320 . S
C1660 C1661 1.405 . S
C1660 H1686 0.930 . S
C1661 C1656 1.479 . S
C1661 C1660 1.405 . S
C1661 H1687 0.931 . S
U1662 O1663 2.454 . S
U1662 O1664 2.458 . S
U1662 C1665 2.984 . S
U1662 C1666 2.847 . S
U1662 C1679 2.882 . S
U1662 O1680 2.441 . S
U1662 O1681 2.420 . S
U1662 O1682 2.455 . S
U1662 O1683 2.449 . S
O1663 U1662 2.454 . S
O1663 C1665 1.353 . S
O1664 U1662 2.458 . S
O1664 C1665 1.286 . S
C1665 U1662 2.984 . S
C1665 O1663 1.353 . S
C1665 O1664 1.286 . S
C1665 C1667 1.363 . S
C1666 C1656 1.465 . S
C1666 U1662 2.847 . S
C1666 O1680 1.249 . S
C1666 O1681 1.202 . S
C1667 C1665 1.363 . S
C1667 C1669 1.408 . S
C1667 C1672 1.342 . S
C1668 C1669 1.310 . S
C1668 C1671 1.461 . S
C1668 H1688 0.932 . S
C1669 C1667 1.408 . S
C1669 C1668 1.310 . S
C1669 H1689 0.930 . S
C1670 C1671 1.474 . S
C1670 C1672 1.285 . S
C1670 H1690 0.929 . S
C1671 C1668 1.461 . S
C1671 C1670 1.474 . S
C1672 C1667 1.342 . S
C1672 C1670 1.285 . S
C1672 H1691 0.930 . S
C1673 C1676 1.424 . S
C1673 C1678 1.245 . S
C1673 C1679 1.428 . S
C1674 C1677 1.260 . S
C1674 C1678 1.477 . S
C1674 H1692 0.932 . S
C1675 C1676 1.384 . S
C1675 C1677 1.479 . S
C1675 H1693 0.929 . S
C1676 C1673 1.424 . S
C1676 C1675 1.384 . S
C1676 H1694 0.928 . S
C1677 C1674 1.260 . S
C1677 C1675 1.479 . S
C1678 C1673 1.245 . S
C1678 C1674 1.477 . S
C1678 H1695 0.932 . S
C1679 U1662 2.882 . S
C1679 C1673 1.428 . S
C1679 O1682 1.301 . S
C1679 O1683 1.282 . S
O1680 U1662 2.441 . S
O1680 C1666 1.249 . S
O1681 U1662 2.420 . S
O1681 C1666 1.202 . S
O1682 U1662 2.455 . S
O1682 C1679 1.301 . S
O1683 U1662 2.449 . S
O1683 C1679 1.282 . S
H1684 C1657 0.931 . S
H1685 C1659 0.929 . S
H1686 C1660 0.930 . S
H1687 C1661 0.931 . S
H1688 C1668 0.932 . S
H1689 C1669 0.930 . S
H1690 C1670 0.929 . S
H1691 C1672 0.930 . S
H1692 C1674 0.932 . S
H1693 C1675 0.929 . S
H1694 C1676 0.928 . S
H1695 C1678 0.932 . S
C1696 C1697 1.264 . S
C1696 C1701 1.479 . S
C1696 C1706 1.465 . S
C1697 C1696 1.264 . S
C1697 C1699 1.339 . S
C1697 H1724 0.931 . S
C1698 C1699 1.395 . S
C1698 C1700 1.320 . S
C1699 C1697 1.339 . S
C1699 C1698 1.395 . S
C1699 H1725 0.929 . S
C1700 C1698 1.320 . S
C1700 C1701 1.405 . S
C1700 H1726 0.930 . S
C1701 C1696 1.479 . S
C1701 C1700 1.405 . S
C1701 H1727 0.931 . S
U1702 O1703 2.454 . S
U1702 O1704 2.458 . S
U1702 C1705 2.984 . S
U1702 C1706 2.847 . S
U1702 C1719 2.882 . S
U1702 O1720 2.441 . S
U1702 O1721 2.420 . S
U1702 O1722 2.455 . S
U1702 O1723 2.449 . S
O1703 U1702 2.454 . S
O1703 C1705 1.353 . S
O1704 U1702 2.458 . S
O1704 C1705 1.286 . S
C1705 U1702 2.984 . S
C1705 O1703 1.353 . S
C1705 O1704 1.286 . S
C1705 C1707 1.363 . S
C1706 C1696 1.465 . S
C1706 U1702 2.847 . S
C1706 O1720 1.249 . S
C1706 O1721 1.202 . S
C1707 C1705 1.363 . S
C1707 C1709 1.408 . S
C1707 C1712 1.342 . S
C1708 C1709 1.310 . S
C1708 C1711 1.461 . S
C1708 H1728 0.932 . S
C1709 C1707 1.408 . S
C1709 C1708 1.310 . S
C1709 H1729 0.930 . S
C1710 C1711 1.474 . S
C1710 C1712 1.285 . S
C1710 H1730 0.929 . S
C1711 C1708 1.461 . S
C1711 C1710 1.474 . S
C1712 C1707 1.342 . S
C1712 C1710 1.285 . S
C1712 H1731 0.930 . S
C1713 C1716 1.424 . S
C1713 C1718 1.245 . S
C1713 C1719 1.428 . S
C1714 C1717 1.260 . S
C1714 C1718 1.477 . S
C1714 H1732 0.932 . S
C1715 C1716 1.384 . S
C1715 C1717 1.479 . S
C1715 H1733 0.929 . S
C1716 C1713 1.424 . S
C1716 C1715 1.384 . S
C1716 H1734 0.928 . S
C1717 C1714 1.260 . S
C1717 C1715 1.479 . S
C1718 C1713 1.245 . S
C1718 C1714 1.477 . S
C1718 H1735 0.932 . S
C1719 U1702 2.882 . S
C1719 C1713 1.428 . S
C1719 O1722 1.301 . S
C1719 O1723 1.282 . S
O1720 U1702 2.441 . S
O1720 C1706 1.249 . S
O1721 U1702 2.420 . S
O1721 C1706 1.202 . S
O1722 U1702 2.455 . S
O1722 C1719 1.301 . S
O1723 U1702 2.449 . S
O1723 C1719 1.282 . S
H1724 C1697 0.931 . S
H1725 C1699 0.929 . S
H1726 C1700 0.930 . S
H1727 C1701 0.931 . S
H1728 C1708 0.932 . S
H1729 C1709 0.930 . S
H1730 C1710 0.929 . S
H1731 C1712 0.930 . S
H1732 C1714 0.932 . S
H1733 C1715 0.929 . S
H1734 C1716 0.928 . S
H1735 C1718 0.932 . S
C1736 C1737 1.264 . S
C1736 C1741 1.479 . S
C1736 C1746 1.465 . S
C1737 C1736 1.264 . S
C1737 C1739 1.339 . S
C1737 H1764 0.931 . S
C1738 C1739 1.395 . S
C1738 C1740 1.320 . S
C1739 C1737 1.339 . S
C1739 C1738 1.395 . S
C1739 H1765 0.929 . S
C1740 C1738 1.320 . S
C1740 C1741 1.405 . S
C1740 H1766 0.930 . S
C1741 C1736 1.479 . S
C1741 C1740 1.405 . S
C1741 H1767 0.931 . S
U1742 O1743 2.454 . S
U1742 O1744 2.458 . S
U1742 C1745 2.984 . S
U1742 C1746 2.847 . S
U1742 C1759 2.882 . S
U1742 O1760 2.441 . S
U1742 O1761 2.420 . S
U1742 O1762 2.455 . S
U1742 O1763 2.449 . S
O1743 U1742 2.454 . S
O1743 C1745 1.353 . S
O1744 U1742 2.458 . S
O1744 C1745 1.286 . S
C1745 U1742 2.984 . S
C1745 O1743 1.353 . S
C1745 O1744 1.286 . S
C1745 C1747 1.363 . S
C1746 C1736 1.465 . S
C1746 U1742 2.847 . S
C1746 O1760 1.249 . S
C1746 O1761 1.202 . S
C1747 C1745 1.363 . S
C1747 C1749 1.408 . S
C1747 C1752 1.342 . S
C1748 C1749 1.310 . S
C1748 C1751 1.461 . S
C1748 H1768 0.932 . S
C1749 C1747 1.408 . S
C1749 C1748 1.310 . S
C1749 H1769 0.930 . S
C1750 C1751 1.474 . S
C1750 C1752 1.285 . S
C1750 H1770 0.929 . S
C1751 C1748 1.461 . S
C1751 C1750 1.474 . S
C1752 C1747 1.342 . S
C1752 C1750 1.285 . S
C1752 H1771 0.930 . S
C1753 C1756 1.424 . S
C1753 C1758 1.245 . S
C1753 C1759 1.428 . S
C1754 C1757 1.260 . S
C1754 C1758 1.477 . S
C1754 H1772 0.932 . S
C1755 C1756 1.384 . S
C1755 C1757 1.479 . S
C1755 H1773 0.929 . S
C1756 C1753 1.424 . S
C1756 C1755 1.384 . S
C1756 H1774 0.928 . S
C1757 C1754 1.260 . S
C1757 C1755 1.479 . S
C1758 C1753 1.245 . S
C1758 C1754 1.477 . S
C1758 H1775 0.932 . S
C1759 U1742 2.882 . S
C1759 C1753 1.428 . S
C1759 O1762 1.301 . S
C1759 O1763 1.282 . S
O1760 U1742 2.441 . S
O1760 C1746 1.249 . S
O1761 U1742 2.420 . S
O1761 C1746 1.202 . S
O1762 U1742 2.455 . S
O1762 C1759 1.301 . S
O1763 U1742 2.449 . S
O1763 C1759 1.282 . S
H1764 C1737 0.931 . S
H1765 C1739 0.929 . S
H1766 C1740 0.930 . S
H1767 C1741 0.931 . S
H1768 C1748 0.932 . S
H1769 C1749 0.930 . S
H1770 C1750 0.929 . S
H1771 C1752 0.930 . S
H1772 C1754 0.932 . S
H1773 C1755 0.929 . S
H1774 C1756 0.928 . S
H1775 C1758 0.932 . S
C1776 C1777 1.264 . S
C1776 C1781 1.479 . S
C1776 C1786 1.465 . S
C1777 C1776 1.264 . S
C1777 C1779 1.339 . S
C1777 H1804 0.931 . S
C1778 C1779 1.395 . S
C1778 C1780 1.320 . S
C1779 C1777 1.339 . S
C1779 C1778 1.395 . S
C1779 H1805 0.929 . S
C1780 C1778 1.320 . S
C1780 C1781 1.405 . S
C1780 H1806 0.930 . S
C1781 C1776 1.479 . S
C1781 C1780 1.405 . S
C1781 H1807 0.931 . S
U1782 O1783 2.454 . S
U1782 O1784 2.458 . S
U1782 C1785 2.984 . S
U1782 C1786 2.847 . S
U1782 C1799 2.882 . S
U1782 O1800 2.441 . S
U1782 O1801 2.420 . S
U1782 O1802 2.455 . S
U1782 O1803 2.449 . S
O1783 U1782 2.454 . S
O1783 C1785 1.353 . S
O1784 U1782 2.458 . S
O1784 C1785 1.286 . S
C1785 U1782 2.984 . S
C1785 O1783 1.353 . S
C1785 O1784 1.286 . S
C1785 C1787 1.363 . S
C1786 C1776 1.465 . S
C1786 U1782 2.847 . S
C1786 O1800 1.249 . S
C1786 O1801 1.202 . S
C1787 C1785 1.363 . S
C1787 C1789 1.408 . S
C1787 C1792 1.342 . S
C1788 C1789 1.310 . S
C1788 C1791 1.461 . S
C1788 H1808 0.932 . S
C1789 C1787 1.408 . S
C1789 C1788 1.310 . S
C1789 H1809 0.930 . S
C1790 C1791 1.474 . S
C1790 C1792 1.285 . S
C1790 H1810 0.929 . S
C1791 C1788 1.461 . S
C1791 C1790 1.474 . S
C1792 C1787 1.342 . S
C1792 C1790 1.285 . S
C1792 H1811 0.930 . S
C1793 C1796 1.424 . S
C1793 C1798 1.245 . S
C1793 C1799 1.428 . S
C1794 C1797 1.260 . S
C1794 C1798 1.477 . S
C1794 H1812 0.932 . S
C1795 C1796 1.384 . S
C1795 C1797 1.479 . S
C1795 H1813 0.929 . S
C1796 C1793 1.424 . S
C1796 C1795 1.384 . S
C1796 H1814 0.928 . S
C1797 C1794 1.260 . S
C1797 C1795 1.479 . S
C1798 C1793 1.245 . S
C1798 C1794 1.477 . S
C1798 H1815 0.932 . S
C1799 U1782 2.882 . S
C1799 C1793 1.428 . S
C1799 O1802 1.301 . S
C1799 O1803 1.282 . S
O1800 U1782 2.441 . S
O1800 C1786 1.249 . S
O1801 U1782 2.420 . S
O1801 C1786 1.202 . S
O1802 U1782 2.455 . S
O1802 C1799 1.301 . S
O1803 U1782 2.449 . S
O1803 C1799 1.282 . S
H1804 C1777 0.931 . S
H1805 C1779 0.929 . S
H1806 C1780 0.930 . S
H1807 C1781 0.931 . S
H1808 C1788 0.932 . S
H1809 C1789 0.930 . S
H1810 C1790 0.929 . S
H1811 C1792 0.930 . S
H1812 C1794 0.932 . S
H1813 C1795 0.929 . S
H1814 C1796 0.928 . S
H1815 C1798 0.932 . S
C1816 C1817 1.264 . S
C1816 C1821 1.479 . S
C1816 C1826 1.465 . S
C1817 C1816 1.264 . S
C1817 C1819 1.339 . S
C1817 H1844 0.931 . S
C1818 C1819 1.395 . S
C1818 C1820 1.320 . S
C1819 C1817 1.339 . S
C1819 C1818 1.395 . S
C1819 H1845 0.929 . S
C1820 C1818 1.320 . S
C1820 C1821 1.405 . S
C1820 H1846 0.930 . S
C1821 C1816 1.479 . S
C1821 C1820 1.405 . S
C1821 H1847 0.931 . S
U1822 O1823 2.454 . S
U1822 O1824 2.458 . S
U1822 C1825 2.984 . S
U1822 C1826 2.847 . S
U1822 C1839 2.882 . S
U1822 O1840 2.441 . S
U1822 O1841 2.420 . S
U1822 O1842 2.455 . S
U1822 O1843 2.449 . S
O1823 U1822 2.454 . S
O1823 C1825 1.353 . S
O1824 U1822 2.458 . S
O1824 C1825 1.286 . S
C1825 U1822 2.984 . S
C1825 O1823 1.353 . S
C1825 O1824 1.286 . S
C1825 C1827 1.363 . S
C1826 C1816 1.465 . S
C1826 U1822 2.847 . S
C1826 O1840 1.249 . S
C1826 O1841 1.202 . S
C1827 C1825 1.363 . S
C1827 C1829 1.408 . S
C1827 C1832 1.342 . S
C1828 C1829 1.310 . S
C1828 C1831 1.461 . S
C1828 H1848 0.932 . S
C1829 C1827 1.408 . S
C1829 C1828 1.310 . S
C1829 H1849 0.930 . S
C1830 C1831 1.474 . S
C1830 C1832 1.285 . S
C1830 H1850 0.929 . S
C1831 C1828 1.461 . S
C1831 C1830 1.474 . S
C1832 C1827 1.342 . S
C1832 C1830 1.285 . S
C1832 H1851 0.930 . S
C1833 C1836 1.424 . S
C1833 C1838 1.245 . S
C1833 C1839 1.428 . S
C1834 C1837 1.260 . S
C1834 C1838 1.477 . S
C1834 H1852 0.932 . S
C1835 C1836 1.384 . S
C1835 C1837 1.479 . S
C1835 H1853 0.929 . S
C1836 C1833 1.424 . S
C1836 C1835 1.384 . S
C1836 H1854 0.928 . S
C1837 C1834 1.260 . S
C1837 C1835 1.479 . S
C1838 C1833 1.245 . S
C1838 C1834 1.477 . S
C1838 H1855 0.932 . S
C1839 U1822 2.882 . S
C1839 C1833 1.428 . S
C1839 O1842 1.301 . S
C1839 O1843 1.282 . S
O1840 U1822 2.441 . S
O1840 C1826 1.249 . S
O1841 U1822 2.420 . S
O1841 C1826 1.202 . S
O1842 U1822 2.455 . S
O1842 C1839 1.301 . S
O1843 U1822 2.449 . S
O1843 C1839 1.282 . S
H1844 C1817 0.931 . S
H1845 C1819 0.929 . S
H1846 C1820 0.930 . S
H1847 C1821 0.931 . S
H1848 C1828 0.932 . S
H1849 C1829 0.930 . S
H1850 C1830 0.929 . S
H1851 C1832 0.930 . S
H1852 C1834 0.932 . S
H1853 C1835 0.929 . S
H1854 C1836 0.928 . S
H1855 C1838 0.932 . S
C1856 C1857 1.264 . S
C1856 C1861 1.479 . S
C1856 C1866 1.465 . S
C1857 C1856 1.264 . S
C1857 C1859 1.339 . S
C1857 H1884 0.931 . S
C1858 C1859 1.395 . S
C1858 C1860 1.320 . S
C1859 C1857 1.339 . S
C1859 C1858 1.395 . S
C1859 H1885 0.929 . S
C1860 C1858 1.320 . S
C1860 C1861 1.405 . S
C1860 H1886 0.930 . S
C1861 C1856 1.479 . S
C1861 C1860 1.405 . S
C1861 H1887 0.931 . S
U1862 O1863 2.454 . S
U1862 O1864 2.458 . S
U1862 C1865 2.984 . S
U1862 C1866 2.847 . S
U1862 C1879 2.882 . S
U1862 O1880 2.441 . S
U1862 O1881 2.420 . S
U1862 O1882 2.455 . S
U1862 O1883 2.449 . S
O1863 U1862 2.454 . S
O1863 C1865 1.353 . S
O1864 U1862 2.458 . S
O1864 C1865 1.286 . S
C1865 U1862 2.984 . S
C1865 O1863 1.353 . S
C1865 O1864 1.286 . S
C1865 C1867 1.363 . S
C1866 C1856 1.465 . S
C1866 U1862 2.847 . S
C1866 O1880 1.249 . S
C1866 O1881 1.202 . S
C1867 C1865 1.363 . S
C1867 C1869 1.408 . S
C1867 C1872 1.342 . S
C1868 C1869 1.310 . S
C1868 C1871 1.461 . S
C1868 H1888 0.932 . S
C1869 C1867 1.408 . S
C1869 C1868 1.310 . S
C1869 H1889 0.930 . S
C1870 C1871 1.474 . S
C1870 C1872 1.285 . S
C1870 H1890 0.929 . S
C1871 C1868 1.461 . S
C1871 C1870 1.474 . S
C1872 C1867 1.342 . S
C1872 C1870 1.285 . S
C1872 H1891 0.930 . S
C1873 C1876 1.424 . S
C1873 C1878 1.245 . S
C1873 C1879 1.428 . S
C1874 C1877 1.260 . S
C1874 C1878 1.477 . S
C1874 H1892 0.932 . S
C1875 C1876 1.384 . S
C1875 C1877 1.479 . S
C1875 H1893 0.929 . S
C1876 C1873 1.424 . S
C1876 C1875 1.384 . S
C1876 H1894 0.928 . S
C1877 C1874 1.260 . S
C1877 C1875 1.479 . S
C1878 C1873 1.245 . S
C1878 C1874 1.477 . S
C1878 H1895 0.932 . S
C1879 U1862 2.882 . S
C1879 C1873 1.428 . S
C1879 O1882 1.301 . S
C1879 O1883 1.282 . S
O1880 U1862 2.441 . S
O1880 C1866 1.249 . S
O1881 U1862 2.420 . S
O1881 C1866 1.202 . S
O1882 U1862 2.455 . S
O1882 C1879 1.301 . S
O1883 U1862 2.449 . S
O1883 C1879 1.282 . S
H1884 C1857 0.931 . S
H1885 C1859 0.929 . S
H1886 C1860 0.930 . S
H1887 C1861 0.931 . S
H1888 C1868 0.932 . S
H1889 C1869 0.930 . S
H1890 C1870 0.929 . S
H1891 C1872 0.930 . S
H1892 C1874 0.932 . S
H1893 C1875 0.929 . S
H1894 C1876 0.928 . S
H1895 C1878 0.932 . S
C1896 C1897 1.264 . S
C1896 C1901 1.479 . S
C1896 C1906 1.465 . S
C1897 C1896 1.264 . S
C1897 C1899 1.339 . S
C1897 H1924 0.931 . S
C1898 C1899 1.395 . S
C1898 C1900 1.320 . S
C1899 C1897 1.339 . S
C1899 C1898 1.395 . S
C1899 H1925 0.929 . S
C1900 C1898 1.320 . S
C1900 C1901 1.405 . S
C1900 H1926 0.930 . S
C1901 C1896 1.479 . S
C1901 C1900 1.405 . S
C1901 H1927 0.931 . S
U1902 O1903 2.454 . S
U1902 O1904 2.458 . S
U1902 C1905 2.984 . S
U1902 C1906 2.847 . S
U1902 C1919 2.882 . S
U1902 O1920 2.441 . S
U1902 O1921 2.420 . S
U1902 O1922 2.455 . S
U1902 O1923 2.449 . S
O1903 U1902 2.454 . S
O1903 C1905 1.353 . S
O1904 U1902 2.458 . S
O1904 C1905 1.286 . S
C1905 U1902 2.984 . S
C1905 O1903 1.353 . S
C1905 O1904 1.286 . S
C1905 C1907 1.363 . S
C1906 C1896 1.465 . S
C1906 U1902 2.847 . S
C1906 O1920 1.249 . S
C1906 O1921 1.202 . S
C1907 C1905 1.363 . S
C1907 C1909 1.408 . S
C1907 C1912 1.342 . S
C1908 C1909 1.310 . S
C1908 C1911 1.461 . S
C1908 H1928 0.932 . S
C1909 C1907 1.408 . S
C1909 C1908 1.310 . S
C1909 H1929 0.930 . S
C1910 C1911 1.474 . S
C1910 C1912 1.285 . S
C1910 H1930 0.929 . S
C1911 C1908 1.461 . S
C1911 C1910 1.474 . S
C1912 C1907 1.342 . S
C1912 C1910 1.285 . S
C1912 H1931 0.930 . S
C1913 C1916 1.424 . S
C1913 C1918 1.245 . S
C1913 C1919 1.428 . S
C1914 C1917 1.260 . S
C1914 C1918 1.477 . S
C1914 H1932 0.932 . S
C1915 C1916 1.384 . S
C1915 C1917 1.479 . S
C1915 H1933 0.929 . S
C1916 C1913 1.424 . S
C1916 C1915 1.384 . S
C1916 H1934 0.928 . S
C1917 C1914 1.260 . S
C1917 C1915 1.479 . S
C1918 C1913 1.245 . S
C1918 C1914 1.477 . S
C1918 H1935 0.932 . S
C1919 U1902 2.882 . S
C1919 C1913 1.428 . S
C1919 O1922 1.301 . S
C1919 O1923 1.282 . S
O1920 U1902 2.441 . S
O1920 C1906 1.249 . S
O1921 U1902 2.420 . S
O1921 C1906 1.202 . S
O1922 U1902 2.455 . S
O1922 C1919 1.301 . S
O1923 U1902 2.449 . S
O1923 C1919 1.282 . S
H1924 C1897 0.931 . S
H1925 C1899 0.929 . S
H1926 C1900 0.930 . S
H1927 C1901 0.931 . S
H1928 C1908 0.932 . S
H1929 C1909 0.930 . S
H1930 C1910 0.929 . S
H1931 C1912 0.930 . S
H1932 C1914 0.932 . S
H1933 C1915 0.929 . S
H1934 C1916 0.928 . S
H1935 C1918 0.932 . S
C1936 C1937 1.264 . S
C1936 C1941 1.479 . S
C1936 C1946 1.465 . S
C1937 C1936 1.264 . S
C1937 C1939 1.339 . S
C1937 H1964 0.931 . S
C1938 C1939 1.395 . S
C1938 C1940 1.320 . S
C1939 C1937 1.339 . S
C1939 C1938 1.395 . S
C1939 H1965 0.929 . S
C1940 C1938 1.320 . S
C1940 C1941 1.405 . S
C1940 H1966 0.930 . S
C1941 C1936 1.479 . S
C1941 C1940 1.405 . S
C1941 H1967 0.931 . S
U1942 O1943 2.454 . S
U1942 O1944 2.458 . S
U1942 C1945 2.984 . S
U1942 C1946 2.847 . S
U1942 C1959 2.882 . S
U1942 O1960 2.441 . S
U1942 O1961 2.420 . S
U1942 O1962 2.455 . S
U1942 O1963 2.449 . S
O1943 U1942 2.454 . S
O1943 C1945 1.353 . S
O1944 U1942 2.458 . S
O1944 C1945 1.286 . S
C1945 U1942 2.984 . S
C1945 O1943 1.353 . S
C1945 O1944 1.286 . S
C1945 C1947 1.363 . S
C1946 C1936 1.465 . S
C1946 U1942 2.847 . S
C1946 O1960 1.249 . S
C1946 O1961 1.202 . S
C1947 C1945 1.363 . S
C1947 C1949 1.408 . S
C1947 C1952 1.342 . S
C1948 C1949 1.310 . S
C1948 C1951 1.461 . S
C1948 H1968 0.932 . S
C1949 C1947 1.408 . S
C1949 C1948 1.310 . S
C1949 H1969 0.930 . S
C1950 C1951 1.474 . S
C1950 C1952 1.285 . S
C1950 H1970 0.929 . S
C1951 C1948 1.461 . S
C1951 C1950 1.474 . S
C1952 C1947 1.342 . S
C1952 C1950 1.285 . S
C1952 H1971 0.930 . S
C1953 C1956 1.424 . S
C1953 C1958 1.245 . S
C1953 C1959 1.428 . S
C1954 C1957 1.260 . S
C1954 C1958 1.477 . S
C1954 H1972 0.932 . S
C1955 C1956 1.384 . S
C1955 C1957 1.479 . S
C1955 H1973 0.929 . S
C1956 C1953 1.424 . S
C1956 C1955 1.384 . S
C1956 H1974 0.928 . S
C1957 C1954 1.260 . S
C1957 C1955 1.479 . S
C1958 C1953 1.245 . S
C1958 C1954 1.477 . S
C1958 H1975 0.932 . S
C1959 U1942 2.882 . S
C1959 C1953 1.428 . S
C1959 O1962 1.301 . S
C1959 O1963 1.282 . S
O1960 U1942 2.441 . S
O1960 C1946 1.249 . S
O1961 U1942 2.420 . S
O1961 C1946 1.202 . S
O1962 U1942 2.455 . S
O1962 C1959 1.301 . S
O1963 U1942 2.449 . S
O1963 C1959 1.282 . S
H1964 C1937 0.931 . S
H1965 C1939 0.929 . S
H1966 C1940 0.930 . S
H1967 C1941 0.931 . S
H1968 C1948 0.932 . S
H1969 C1949 0.930 . S
H1970 C1950 0.929 . S
H1971 C1952 0.930 . S
H1972 C1954 0.932 . S
H1973 C1955 0.929 . S
H1974 C1956 0.928 . S
H1975 C1958 0.932 . S
C1976 C1977 1.264 . S
C1976 C1981 1.479 . S
C1976 C1986 1.465 . S
C1977 C1976 1.264 . S
C1977 C1979 1.339 . S
C1977 H2004 0.931 . S
C1978 C1979 1.395 . S
C1978 C1980 1.320 . S
C1979 C1977 1.339 . S
C1979 C1978 1.395 . S
C1979 H2005 0.929 . S
C1980 C1978 1.320 . S
C1980 C1981 1.405 . S
C1980 H2006 0.930 . S
C1981 C1976 1.479 . S
C1981 C1980 1.405 . S
C1981 H2007 0.931 . S
U1982 O1983 2.454 . S
U1982 O1984 2.458 . S
U1982 C1985 2.984 . S
U1982 C1986 2.847 . S
U1982 C1999 2.882 . S
U1982 O2000 2.441 . S
U1982 O2001 2.420 . S
U1982 O2002 2.455 . S
U1982 O2003 2.449 . S
O1983 U1982 2.454 . S
O1983 C1985 1.353 . S
O1984 U1982 2.458 . S
O1984 C1985 1.286 . S
C1985 U1982 2.984 . S
C1985 O1983 1.353 . S
C1985 O1984 1.286 . S
C1985 C1987 1.363 . S
C1986 C1976 1.465 . S
C1986 U1982 2.847 . S
C1986 O2000 1.249 . S
C1986 O2001 1.202 . S
C1987 C1985 1.363 . S
C1987 C1989 1.408 . S
C1987 C1992 1.342 . S
C1988 C1989 1.310 . S
C1988 C1991 1.461 . S
C1988 H2008 0.932 . S
C1989 C1987 1.408 . S
C1989 C1988 1.310 . S
C1989 H2009 0.930 . S
C1990 C1991 1.474 . S
C1990 C1992 1.285 . S
C1990 H2010 0.929 . S
C1991 C1988 1.461 . S
C1991 C1990 1.474 . S
C1992 C1987 1.342 . S
C1992 C1990 1.285 . S
C1992 H2011 0.930 . S
C1993 C1996 1.424 . S
C1993 C1998 1.245 . S
C1993 C1999 1.428 . S
C1994 C1997 1.260 . S
C1994 C1998 1.477 . S
C1994 H2012 0.932 . S
C1995 C1996 1.384 . S
C1995 C1997 1.479 . S
C1995 H2013 0.929 . S
C1996 C1993 1.424 . S
C1996 C1995 1.384 . S
C1996 H2014 0.928 . S
C1997 C1994 1.260 . S
C1997 C1995 1.479 . S
C1998 C1993 1.245 . S
C1998 C1994 1.477 . S
C1998 H2015 0.932 . S
C1999 U1982 2.882 . S
C1999 C1993 1.428 . S
C1999 O2002 1.301 . S
C1999 O2003 1.282 . S
O2000 U1982 2.441 . S
O2000 C1986 1.249 . S
O2001 U1982 2.420 . S
O2001 C1986 1.202 . S
O2002 U1982 2.455 . S
O2002 C1999 1.301 . S
O2003 U1982 2.449 . S
O2003 C1999 1.282 . S
H2004 C1977 0.931 . S
H2005 C1979 0.929 . S
H2006 C1980 0.930 . S
H2007 C1981 0.931 . S
H2008 C1988 0.932 . S
H2009 C1989 0.930 . S
H2010 C1990 0.929 . S
H2011 C1992 0.930 . S
H2012 C1994 0.932 . S
H2013 C1995 0.929 . S
H2014 C1996 0.928 . S
H2015 C1998 0.932 . S
C2016 C2017 1.264 . S
C2016 C2021 1.479 . S
C2016 C2026 1.465 . S
C2017 C2016 1.264 . S
C2017 C2019 1.339 . S
C2017 H2044 0.931 . S
C2018 C2019 1.395 . S
C2018 C2020 1.320 . S
C2019 C2017 1.339 . S
C2019 C2018 1.395 . S
C2019 H2045 0.929 . S
C2020 C2018 1.320 . S
C2020 C2021 1.405 . S
C2020 H2046 0.930 . S
C2021 C2016 1.479 . S
C2021 C2020 1.405 . S
C2021 H2047 0.931 . S
U2022 O2023 2.454 . S
U2022 O2024 2.458 . S
U2022 C2025 2.984 . S
U2022 C2026 2.847 . S
U2022 C2039 2.882 . S
U2022 O2040 2.441 . S
U2022 O2041 2.420 . S
U2022 O2042 2.455 . S
U2022 O2043 2.449 . S
O2023 U2022 2.454 . S
O2023 C2025 1.353 . S
O2024 U2022 2.458 . S
O2024 C2025 1.286 . S
C2025 U2022 2.984 . S
C2025 O2023 1.353 . S
C2025 O2024 1.286 . S
C2025 C2027 1.363 . S
C2026 C2016 1.465 . S
C2026 U2022 2.847 . S
C2026 O2040 1.249 . S
C2026 O2041 1.202 . S
C2027 C2025 1.363 . S
C2027 C2029 1.408 . S
C2027 C2032 1.342 . S
C2028 C2029 1.310 . S
C2028 C2031 1.461 . S
C2028 H2048 0.932 . S
C2029 C2027 1.408 . S
C2029 C2028 1.310 . S
C2029 H2049 0.930 . S
C2030 C2031 1.474 . S
C2030 C2032 1.285 . S
C2030 H2050 0.929 . S
C2031 C2028 1.461 . S
C2031 C2030 1.474 . S
C2032 C2027 1.342 . S
C2032 C2030 1.285 . S
C2032 H2051 0.930 . S
C2033 C2036 1.424 . S
C2033 C2038 1.245 . S
C2033 C2039 1.428 . S
C2034 C2037 1.260 . S
C2034 C2038 1.477 . S
C2034 H2052 0.932 . S
C2035 C2036 1.384 . S
C2035 C2037 1.479 . S
C2035 H2053 0.929 . S
C2036 C2033 1.424 . S
C2036 C2035 1.384 . S
C2036 H2054 0.928 . S
C2037 C2034 1.260 . S
C2037 C2035 1.479 . S
C2038 C2033 1.245 . S
C2038 C2034 1.477 . S
C2038 H2055 0.932 . S
C2039 U2022 2.882 . S
C2039 C2033 1.428 . S
C2039 O2042 1.301 . S
C2039 O2043 1.282 . S
O2040 U2022 2.441 . S
O2040 C2026 1.249 . S
O2041 U2022 2.420 . S
O2041 C2026 1.202 . S
O2042 U2022 2.455 . S
O2042 C2039 1.301 . S
O2043 U2022 2.449 . S
O2043 C2039 1.282 . S
H2044 C2017 0.931 . S
H2045 C2019 0.929 . S
H2046 C2020 0.930 . S
H2047 C2021 0.931 . S
H2048 C2028 0.932 . S
H2049 C2029 0.930 . S
H2050 C2030 0.929 . S
H2051 C2032 0.930 . S
H2052 C2034 0.932 . S
H2053 C2035 0.929 . S
H2054 C2036 0.928 . S
H2055 C2038 0.932 . S
C2056 C2057 1.264 . S
C2056 C2061 1.479 . S
C2056 C2066 1.465 . S
C2057 C2056 1.264 . S
C2057 C2059 1.339 . S
C2057 H2084 0.931 . S
C2058 C2059 1.395 . S
C2058 C2060 1.320 . S
C2059 C2057 1.339 . S
C2059 C2058 1.395 . S
C2059 H2085 0.929 . S
C2060 C2058 1.320 . S
C2060 C2061 1.405 . S
C2060 H2086 0.930 . S
C2061 C2056 1.479 . S
C2061 C2060 1.405 . S
C2061 H2087 0.931 . S
U2062 O2063 2.454 . S
U2062 O2064 2.458 . S
U2062 C2065 2.984 . S
U2062 C2066 2.847 . S
U2062 C2079 2.882 . S
U2062 O2080 2.441 . S
U2062 O2081 2.420 . S
U2062 O2082 2.455 . S
U2062 O2083 2.449 . S
O2063 U2062 2.454 . S
O2063 C2065 1.353 . S
O2064 U2062 2.458 . S
O2064 C2065 1.286 . S
C2065 U2062 2.984 . S
C2065 O2063 1.353 . S
C2065 O2064 1.286 . S
C2065 C2067 1.363 . S
C2066 C2056 1.465 . S
C2066 U2062 2.847 . S
C2066 O2080 1.249 . S
C2066 O2081 1.202 . S
C2067 C2065 1.363 . S
C2067 C2069 1.408 . S
C2067 C2072 1.342 . S
C2068 C2069 1.310 . S
C2068 C2071 1.461 . S
C2068 H2088 0.932 . S
C2069 C2067 1.408 . S
C2069 C2068 1.310 . S
C2069 H2089 0.930 . S
C2070 C2071 1.474 . S
C2070 C2072 1.285 . S
C2070 H2090 0.929 . S
C2071 C2068 1.461 . S
C2071 C2070 1.474 . S
C2072 C2067 1.342 . S
C2072 C2070 1.285 . S
C2072 H2091 0.930 . S
C2073 C2076 1.424 . S
C2073 C2078 1.245 . S
C2073 C2079 1.428 . S
C2074 C2077 1.260 . S
C2074 C2078 1.477 . S
C2074 H2092 0.932 . S
C2075 C2076 1.384 . S
C2075 C2077 1.479 . S
C2075 H2093 0.929 . S
C2076 C2073 1.424 . S
C2076 C2075 1.384 . S
C2076 H2094 0.928 . S
C2077 C2074 1.260 . S
C2077 C2075 1.479 . S
C2078 C2073 1.245 . S
C2078 C2074 1.477 . S
C2078 H2095 0.932 . S
C2079 U2062 2.882 . S
C2079 C2073 1.428 . S
C2079 O2082 1.301 . S
C2079 O2083 1.282 . S
O2080 U2062 2.441 . S
O2080 C2066 1.249 . S
O2081 U2062 2.420 . S
O2081 C2066 1.202 . S
O2082 U2062 2.455 . S
O2082 C2079 1.301 . S
O2083 U2062 2.449 . S
O2083 C2079 1.282 . S
H2084 C2057 0.931 . S
H2085 C2059 0.929 . S
H2086 C2060 0.930 . S
H2087 C2061 0.931 . S
H2088 C2068 0.932 . S
H2089 C2069 0.930 . S
H2090 C2070 0.929 . S
H2091 C2072 0.930 . S
H2092 C2074 0.932 . S
H2093 C2075 0.929 . S
H2094 C2076 0.928 . S
H2095 C2078 0.932 . S
C2096 C2097 1.264 . S
C2096 C2101 1.479 . S
C2096 C2106 1.465 . S
C2097 C2096 1.264 . S
C2097 C2099 1.339 . S
C2097 H2124 0.931 . S
C2098 C2099 1.395 . S
C2098 C2100 1.320 . S
C2099 C2097 1.339 . S
C2099 C2098 1.395 . S
C2099 H2125 0.929 . S
C2100 C2098 1.320 . S
C2100 C2101 1.405 . S
C2100 H2126 0.930 . S
C2101 C2096 1.479 . S
C2101 C2100 1.405 . S
C2101 H2127 0.931 . S
U2102 O2103 2.454 . S
U2102 O2104 2.458 . S
U2102 C2105 2.984 . S
U2102 C2106 2.847 . S
U2102 C2119 2.882 . S
U2102 O2120 2.441 . S
U2102 O2121 2.420 . S
U2102 O2122 2.455 . S
U2102 O2123 2.449 . S
O2103 U2102 2.454 . S
O2103 C2105 1.353 . S
O2104 U2102 2.458 . S
O2104 C2105 1.286 . S
C2105 U2102 2.984 . S
C2105 O2103 1.353 . S
C2105 O2104 1.286 . S
C2105 C2107 1.363 . S
C2106 C2096 1.465 . S
C2106 U2102 2.847 . S
C2106 O2120 1.249 . S
C2106 O2121 1.202 . S
C2107 C2105 1.363 . S
C2107 C2109 1.408 . S
C2107 C2112 1.342 . S
C2108 C2109 1.310 . S
C2108 C2111 1.461 . S
C2108 H2128 0.932 . S
C2109 C2107 1.408 . S
C2109 C2108 1.310 . S
C2109 H2129 0.930 . S
C2110 C2111 1.474 . S
C2110 C2112 1.285 . S
C2110 H2130 0.929 . S
C2111 C2108 1.461 . S
C2111 C2110 1.474 . S
C2112 C2107 1.342 . S
C2112 C2110 1.285 . S
C2112 H2131 0.930 . S
C2113 C2116 1.424 . S
C2113 C2118 1.245 . S
C2113 C2119 1.428 . S
C2114 C2117 1.260 . S
C2114 C2118 1.477 . S
C2114 H2132 0.932 . S
C2115 C2116 1.384 . S
C2115 C2117 1.479 . S
C2115 H2133 0.929 . S
C2116 C2113 1.424 . S
C2116 C2115 1.384 . S
C2116 H2134 0.928 . S
C2117 C2114 1.260 . S
C2117 C2115 1.479 . S
C2118 C2113 1.245 . S
C2118 C2114 1.477 . S
C2118 H2135 0.932 . S
C2119 U2102 2.882 . S
C2119 C2113 1.428 . S
C2119 O2122 1.301 . S
C2119 O2123 1.282 . S
O2120 U2102 2.441 . S
O2120 C2106 1.249 . S
O2121 U2102 2.420 . S
O2121 C2106 1.202 . S
O2122 U2102 2.455 . S
O2122 C2119 1.301 . S
O2123 U2102 2.449 . S
O2123 C2119 1.282 . S
H2124 C2097 0.931 . S
H2125 C2099 0.929 . S
H2126 C2100 0.930 . S
H2127 C2101 0.931 . S
H2128 C2108 0.932 . S
H2129 C2109 0.930 . S
H2130 C2110 0.929 . S
H2131 C2112 0.930 . S
H2132 C2114 0.932 . S
H2133 C2115 0.929 . S
H2134 C2116 0.928 . S
H2135 C2118 0.932 . S
C2136 C2137 1.264 . S
C2136 C2141 1.479 . S
C2136 C2146 1.465 . S
C2137 C2136 1.264 . S
C2137 C2139 1.339 . S
C2137 H2164 0.931 . S
C2138 C2139 1.395 . S
C2138 C2140 1.320 . S
C2139 C2137 1.339 . S
C2139 C2138 1.395 . S
C2139 H2165 0.929 . S
C2140 C2138 1.320 . S
C2140 C2141 1.405 . S
C2140 H2166 0.930 . S
C2141 C2136 1.479 . S
C2141 C2140 1.405 . S
C2141 H2167 0.931 . S
U2142 O2143 2.454 . S
U2142 O2144 2.458 . S
U2142 C2145 2.984 . S
U2142 C2146 2.847 . S
U2142 C2159 2.882 . S
U2142 O2160 2.441 . S
U2142 O2161 2.420 . S
U2142 O2162 2.455 . S
U2142 O2163 2.449 . S
O2143 U2142 2.454 . S
O2143 C2145 1.353 . S
O2144 U2142 2.458 . S
O2144 C2145 1.286 . S
C2145 U2142 2.984 . S
C2145 O2143 1.353 . S
C2145 O2144 1.286 . S
C2145 C2147 1.363 . S
C2146 C2136 1.465 . S
C2146 U2142 2.847 . S
C2146 O2160 1.249 . S
C2146 O2161 1.202 . S
C2147 C2145 1.363 . S
C2147 C2149 1.408 . S
C2147 C2152 1.342 . S
C2148 C2149 1.310 . S
C2148 C2151 1.461 . S
C2148 H2168 0.932 . S
C2149 C2147 1.408 . S
C2149 C2148 1.310 . S
C2149 H2169 0.930 . S
C2150 C2151 1.474 . S
C2150 C2152 1.285 . S
C2150 H2170 0.929 . S
C2151 C2148 1.461 . S
C2151 C2150 1.474 . S
C2152 C2147 1.342 . S
C2152 C2150 1.285 . S
C2152 H2171 0.930 . S
C2153 C2156 1.424 . S
C2153 C2158 1.245 . S
C2153 C2159 1.428 . S
C2154 C2157 1.260 . S
C2154 C2158 1.477 . S
C2154 H2172 0.932 . S
C2155 C2156 1.384 . S
C2155 C2157 1.479 . S
C2155 H2173 0.929 . S
C2156 C2153 1.424 . S
C2156 C2155 1.384 . S
C2156 H2174 0.928 . S
C2157 C2154 1.260 . S
C2157 C2155 1.479 . S
C2158 C2153 1.245 . S
C2158 C2154 1.477 . S
C2158 H2175 0.932 . S
C2159 U2142 2.882 . S
C2159 C2153 1.428 . S
C2159 O2162 1.301 . S
C2159 O2163 1.282 . S
O2160 U2142 2.441 . S
O2160 C2146 1.249 . S
O2161 U2142 2.420 . S
O2161 C2146 1.202 . S
O2162 U2142 2.455 . S
O2162 C2159 1.301 . S
O2163 U2142 2.449 . S
O2163 C2159 1.282 . S
H2164 C2137 0.931 . S
H2165 C2139 0.929 . S
H2166 C2140 0.930 . S
H2167 C2141 0.931 . S
H2168 C2148 0.932 . S
H2169 C2149 0.930 . S
H2170 C2150 0.929 . S
H2171 C2152 0.930 . S
H2172 C2154 0.932 . S
H2173 C2155 0.929 . S
H2174 C2156 0.928 . S
H2175 C2158 0.932 . S
C2176 C2177 1.264 . S
C2176 C2181 1.479 . S
C2176 C2186 1.465 . S
C2177 C2176 1.264 . S
C2177 C2179 1.339 . S
C2177 H2204 0.931 . S
C2178 C2179 1.395 . S
C2178 C2180 1.320 . S
C2179 C2177 1.339 . S
C2179 C2178 1.395 . S
C2179 H2205 0.929 . S
C2180 C2178 1.320 . S
C2180 C2181 1.405 . S
C2180 H2206 0.930 . S
C2181 C2176 1.479 . S
C2181 C2180 1.405 . S
C2181 H2207 0.931 . S
U2182 O2183 2.454 . S
U2182 O2184 2.458 . S
U2182 C2185 2.984 . S
U2182 C2186 2.847 . S
U2182 C2199 2.882 . S
U2182 O2200 2.441 . S
U2182 O2201 2.420 . S
U2182 O2202 2.455 . S
U2182 O2203 2.449 . S
O2183 U2182 2.454 . S
O2183 C2185 1.353 . S
O2184 U2182 2.458 . S
O2184 C2185 1.286 . S
C2185 U2182 2.984 . S
C2185 O2183 1.353 . S
C2185 O2184 1.286 . S
C2185 C2187 1.363 . S
C2186 C2176 1.465 . S
C2186 U2182 2.847 . S
C2186 O2200 1.249 . S
C2186 O2201 1.202 . S
C2187 C2185 1.363 . S
C2187 C2189 1.408 . S
C2187 C2192 1.342 . S
C2188 C2189 1.310 . S
C2188 C2191 1.461 . S
C2188 H2208 0.932 . S
C2189 C2187 1.408 . S
C2189 C2188 1.310 . S
C2189 H2209 0.930 . S
C2190 C2191 1.474 . S
C2190 C2192 1.285 . S
C2190 H2210 0.929 . S
C2191 C2188 1.461 . S
C2191 C2190 1.474 . S
C2192 C2187 1.342 . S
C2192 C2190 1.285 . S
C2192 H2211 0.930 . S
C2193 C2196 1.424 . S
C2193 C2198 1.245 . S
C2193 C2199 1.428 . S
C2194 C2197 1.260 . S
C2194 C2198 1.477 . S
C2194 H2212 0.932 . S
C2195 C2196 1.384 . S
C2195 C2197 1.479 . S
C2195 H2213 0.929 . S
C2196 C2193 1.424 . S
C2196 C2195 1.384 . S
C2196 H2214 0.928 . S
C2197 C2194 1.260 . S
C2197 C2195 1.479 . S
C2198 C2193 1.245 . S
C2198 C2194 1.477 . S
C2198 H2215 0.932 . S
C2199 U2182 2.882 . S
C2199 C2193 1.428 . S
C2199 O2202 1.301 . S
C2199 O2203 1.282 . S
O2200 U2182 2.441 . S
O2200 C2186 1.249 . S
O2201 U2182 2.420 . S
O2201 C2186 1.202 . S
O2202 U2182 2.455 . S
O2202 C2199 1.301 . S
O2203 U2182 2.449 . S
O2203 C2199 1.282 . S
H2204 C2177 0.931 . S
H2205 C2179 0.929 . S
H2206 C2180 0.930 . S
H2207 C2181 0.931 . S
H2208 C2188 0.932 . S
H2209 C2189 0.930 . S
H2210 C2190 0.929 . S
H2211 C2192 0.930 . S
H2212 C2194 0.932 . S
H2213 C2195 0.929 . S
H2214 C2196 0.928 . S
H2215 C2198 0.932 . S
C2216 C2217 1.264 . S
C2216 C2221 1.479 . S
C2216 C2226 1.465 . S
C2217 C2216 1.264 . S
C2217 C2219 1.339 . S
C2217 H2244 0.931 . S
C2218 C2219 1.395 . S
C2218 C2220 1.320 . S
C2219 C2217 1.339 . S
C2219 C2218 1.395 . S
C2219 H2245 0.929 . S
C2220 C2218 1.320 . S
C2220 C2221 1.405 . S
C2220 H2246 0.930 . S
C2221 C2216 1.479 . S
C2221 C2220 1.405 . S
C2221 H2247 0.931 . S
U2222 O2223 2.454 . S
U2222 O2224 2.458 . S
U2222 C2225 2.984 . S
U2222 C2226 2.847 . S
U2222 C2239 2.882 . S
U2222 O2240 2.441 . S
U2222 O2241 2.420 . S
U2222 O2242 2.455 . S
U2222 O2243 2.449 . S
O2223 U2222 2.454 . S
O2223 C2225 1.353 . S
O2224 U2222 2.458 . S
O2224 C2225 1.286 . S
C2225 U2222 2.984 . S
C2225 O2223 1.353 . S
C2225 O2224 1.286 . S
C2225 C2227 1.363 . S
C2226 C2216 1.465 . S
C2226 U2222 2.847 . S
C2226 O2240 1.249 . S
C2226 O2241 1.202 . S
C2227 C2225 1.363 . S
C2227 C2229 1.408 . S
C2227 C2232 1.342 . S
C2228 C2229 1.310 . S
C2228 C2231 1.461 . S
C2228 H2248 0.932 . S
C2229 C2227 1.408 . S
C2229 C2228 1.310 . S
C2229 H2249 0.930 . S
C2230 C2231 1.474 . S
C2230 C2232 1.285 . S
C2230 H2250 0.929 . S
C2231 C2228 1.461 . S
C2231 C2230 1.474 . S
C2232 C2227 1.342 . S
C2232 C2230 1.285 . S
C2232 H2251 0.930 . S
C2233 C2236 1.424 . S
C2233 C2238 1.245 . S
C2233 C2239 1.428 . S
C2234 C2237 1.260 . S
C2234 C2238 1.477 . S
C2234 H2252 0.932 . S
C2235 C2236 1.384 . S
C2235 C2237 1.479 . S
C2235 H2253 0.929 . S
C2236 C2233 1.424 . S
C2236 C2235 1.384 . S
C2236 H2254 0.928 . S
C2237 C2234 1.260 . S
C2237 C2235 1.479 . S
C2238 C2233 1.245 . S
C2238 C2234 1.477 . S
C2238 H2255 0.932 . S
C2239 U2222 2.882 . S
C2239 C2233 1.428 . S
C2239 O2242 1.301 . S
C2239 O2243 1.282 . S
O2240 U2222 2.441 . S
O2240 C2226 1.249 . S
O2241 U2222 2.420 . S
O2241 C2226 1.202 . S
O2242 U2222 2.455 . S
O2242 C2239 1.301 . S
O2243 U2222 2.449 . S
O2243 C2239 1.282 . S
H2244 C2217 0.931 . S
H2245 C2219 0.929 . S
H2246 C2220 0.930 . S
H2247 C2221 0.931 . S
H2248 C2228 0.932 . S
H2249 C2229 0.930 . S
H2250 C2230 0.929 . S
H2251 C2232 0.930 . S
H2252 C2234 0.932 . S
H2253 C2235 0.929 . S
H2254 C2236 0.928 . S
H2255 C2238 0.932 . S
C2256 C2257 1.264 . S
C2256 C2261 1.479 . S
C2256 C2266 1.465 . S
C2257 C2256 1.264 . S
C2257 C2259 1.339 . S
C2257 H2284 0.931 . S
C2258 C2259 1.395 . S
C2258 C2260 1.320 . S
C2259 C2257 1.339 . S
C2259 C2258 1.395 . S
C2259 H2285 0.929 . S
C2260 C2258 1.320 . S
C2260 C2261 1.405 . S
C2260 H2286 0.930 . S
C2261 C2256 1.479 . S
C2261 C2260 1.405 . S
C2261 H2287 0.931 . S
U2262 O2263 2.454 . S
U2262 O2264 2.458 . S
U2262 C2265 2.984 . S
U2262 C2266 2.847 . S
U2262 C2279 2.882 . S
U2262 O2280 2.441 . S
U2262 O2281 2.420 . S
U2262 O2282 2.455 . S
U2262 O2283 2.449 . S
O2263 U2262 2.454 . S
O2263 C2265 1.353 . S
O2264 U2262 2.458 . S
O2264 C2265 1.286 . S
C2265 U2262 2.984 . S
C2265 O2263 1.353 . S
C2265 O2264 1.286 . S
C2265 C2267 1.363 . S
C2266 C2256 1.465 . S
C2266 U2262 2.847 . S
C2266 O2280 1.249 . S
C2266 O2281 1.202 . S
C2267 C2265 1.363 . S
C2267 C2269 1.408 . S
C2267 C2272 1.342 . S
C2268 C2269 1.310 . S
C2268 C2271 1.461 . S
C2268 H2288 0.932 . S
C2269 C2267 1.408 . S
C2269 C2268 1.310 . S
C2269 H2289 0.930 . S
C2270 C2271 1.474 . S
C2270 C2272 1.285 . S
C2270 H2290 0.929 . S
C2271 C2268 1.461 . S
C2271 C2270 1.474 . S
C2272 C2267 1.342 . S
C2272 C2270 1.285 . S
C2272 H2291 0.930 . S
C2273 C2276 1.424 . S
C2273 C2278 1.245 . S
C2273 C2279 1.428 . S
C2274 C2277 1.260 . S
C2274 C2278 1.477 . S
C2274 H2292 0.932 . S
C2275 C2276 1.384 . S
C2275 C2277 1.479 . S
C2275 H2293 0.929 . S
C2276 C2273 1.424 . S
C2276 C2275 1.384 . S
C2276 H2294 0.928 . S
C2277 C2274 1.260 . S
C2277 C2275 1.479 . S
C2278 C2273 1.245 . S
C2278 C2274 1.477 . S
C2278 H2295 0.932 . S
C2279 U2262 2.882 . S
C2279 C2273 1.428 . S
C2279 O2282 1.301 . S
C2279 O2283 1.282 . S
O2280 U2262 2.441 . S
O2280 C2266 1.249 . S
O2281 U2262 2.420 . S
O2281 C2266 1.202 . S
O2282 U2262 2.455 . S
O2282 C2279 1.301 . S
O2283 U2262 2.449 . S
O2283 C2279 1.282 . S
H2284 C2257 0.931 . S
H2285 C2259 0.929 . S
H2286 C2260 0.930 . S
H2287 C2261 0.931 . S
H2288 C2268 0.932 . S
H2289 C2269 0.930 . S
H2290 C2270 0.929 . S
H2291 C2272 0.930 . S
H2292 C2274 0.932 . S
H2293 C2275 0.929 . S
H2294 C2276 0.928 . S
H2295 C2278 0.932 . S
C2296 C2297 1.264 . S
C2296 C2301 1.479 . S
C2296 C2306 1.465 . S
C2297 C2296 1.264 . S
C2297 C2299 1.339 . S
C2297 H2324 0.931 . S
C2298 C2299 1.395 . S
C2298 C2300 1.320 . S
C2299 C2297 1.339 . S
C2299 C2298 1.395 . S
C2299 H2325 0.929 . S
C2300 C2298 1.320 . S
C2300 C2301 1.405 . S
C2300 H2326 0.930 . S
C2301 C2296 1.479 . S
C2301 C2300 1.405 . S
C2301 H2327 0.931 . S
U2302 O2303 2.454 . S
U2302 O2304 2.458 . S
U2302 C2305 2.984 . S
U2302 C2306 2.847 . S
U2302 C2319 2.882 . S
U2302 O2320 2.441 . S
U2302 O2321 2.420 . S
U2302 O2322 2.455 . S
U2302 O2323 2.449 . S
O2303 U2302 2.454 . S
O2303 C2305 1.353 . S
O2304 U2302 2.458 . S
O2304 C2305 1.286 . S
C2305 U2302 2.984 . S
C2305 O2303 1.353 . S
C2305 O2304 1.286 . S
C2305 C2307 1.363 . S
C2306 C2296 1.465 . S
C2306 U2302 2.847 . S
C2306 O2320 1.249 . S
C2306 O2321 1.202 . S
C2307 C2305 1.363 . S
C2307 C2309 1.408 . S
C2307 C2312 1.342 . S
C2308 C2309 1.310 . S
C2308 C2311 1.461 . S
C2308 H2328 0.932 . S
C2309 C2307 1.408 . S
C2309 C2308 1.310 . S
C2309 H2329 0.930 . S
C2310 C2311 1.474 . S
C2310 C2312 1.285 . S
C2310 H2330 0.929 . S
C2311 C2308 1.461 . S
C2311 C2310 1.474 . S
C2312 C2307 1.342 . S
C2312 C2310 1.285 . S
C2312 H2331 0.930 . S
C2313 C2316 1.424 . S
C2313 C2318 1.245 . S
C2313 C2319 1.428 . S
C2314 C2317 1.260 . S
C2314 C2318 1.477 . S
C2314 H2332 0.932 . S
C2315 C2316 1.384 . S
C2315 C2317 1.479 . S
C2315 H2333 0.929 . S
C2316 C2313 1.424 . S
C2316 C2315 1.384 . S
C2316 H2334 0.928 . S
C2317 C2314 1.260 . S
C2317 C2315 1.479 . S
C2318 C2313 1.245 . S
C2318 C2314 1.477 . S
C2318 H2335 0.932 . S
C2319 U2302 2.882 . S
C2319 C2313 1.428 . S
C2319 O2322 1.301 . S
C2319 O2323 1.282 . S
O2320 U2302 2.441 . S
O2320 C2306 1.249 . S
O2321 U2302 2.420 . S
O2321 C2306 1.202 . S
O2322 U2302 2.455 . S
O2322 C2319 1.301 . S
O2323 U2302 2.449 . S
O2323 C2319 1.282 . S
H2324 C2297 0.931 . S
H2325 C2299 0.929 . S
H2326 C2300 0.930 . S
H2327 C2301 0.931 . S
H2328 C2308 0.932 . S
H2329 C2309 0.930 . S
H2330 C2310 0.929 . S
H2331 C2312 0.930 . S
H2332 C2314 0.932 . S
H2333 C2315 0.929 . S
H2334 C2316 0.928 . S
H2335 C2318 0.932 . S
C2336 C2337 1.264 . S
C2336 C2341 1.479 . S
C2336 C2346 1.465 . S
C2337 C2336 1.264 . S
C2337 C2339 1.339 . S
C2337 H2364 0.931 . S
C2338 C2339 1.395 . S
C2338 C2340 1.320 . S
C2339 C2337 1.339 . S
C2339 C2338 1.395 . S
C2339 H2365 0.929 . S
C2340 C2338 1.320 . S
C2340 C2341 1.405 . S
C2340 H2366 0.930 . S
C2341 C2336 1.479 . S
C2341 C2340 1.405 . S
C2341 H2367 0.931 . S
U2342 O2343 2.454 . S
U2342 O2344 2.458 . S
U2342 C2345 2.984 . S
U2342 C2346 2.847 . S
U2342 C2359 2.882 . S
U2342 O2360 2.441 . S
U2342 O2361 2.420 . S
U2342 O2362 2.455 . S
U2342 O2363 2.449 . S
O2343 U2342 2.454 . S
O2343 C2345 1.353 . S
O2344 U2342 2.458 . S
O2344 C2345 1.286 . S
C2345 U2342 2.984 . S
C2345 O2343 1.353 . S
C2345 O2344 1.286 . S
C2345 C2347 1.363 . S
C2346 C2336 1.465 . S
C2346 U2342 2.847 . S
C2346 O2360 1.249 . S
C2346 O2361 1.202 . S
C2347 C2345 1.363 . S
C2347 C2349 1.408 . S
C2347 C2352 1.342 . S
C2348 C2349 1.310 . S
C2348 C2351 1.461 . S
C2348 H2368 0.932 . S
C2349 C2347 1.408 . S
C2349 C2348 1.310 . S
C2349 H2369 0.930 . S
C2350 C2351 1.474 . S
C2350 C2352 1.285 . S
C2350 H2370 0.929 . S
C2351 C2348 1.461 . S
C2351 C2350 1.474 . S
C2352 C2347 1.342 . S
C2352 C2350 1.285 . S
C2352 H2371 0.930 . S
C2353 C2356 1.424 . S
C2353 C2358 1.245 . S
C2353 C2359 1.428 . S
C2354 C2357 1.260 . S
C2354 C2358 1.477 . S
C2354 H2372 0.932 . S
C2355 C2356 1.384 . S
C2355 C2357 1.479 . S
C2355 H2373 0.929 . S
C2356 C2353 1.424 . S
C2356 C2355 1.384 . S
C2356 H2374 0.928 . S
C2357 C2354 1.260 . S
C2357 C2355 1.479 . S
C2358 C2353 1.245 . S
C2358 C2354 1.477 . S
C2358 H2375 0.932 . S
C2359 U2342 2.882 . S
C2359 C2353 1.428 . S
C2359 O2362 1.301 . S
C2359 O2363 1.282 . S
O2360 U2342 2.441 . S
O2360 C2346 1.249 . S
O2361 U2342 2.420 . S
O2361 C2346 1.202 . S
O2362 U2342 2.455 . S
O2362 C2359 1.301 . S
O2363 U2342 2.449 . S
O2363 C2359 1.282 . S
H2364 C2337 0.931 . S
H2365 C2339 0.929 . S
H2366 C2340 0.930 . S
H2367 C2341 0.931 . S
H2368 C2348 0.932 . S
H2369 C2349 0.930 . S
H2370 C2350 0.929 . S
H2371 C2352 0.930 . S
H2372 C2354 0.932 . S
H2373 C2355 0.929 . S
H2374 C2356 0.928 . S
H2375 C2358 0.932 . S
C2376 C2377 1.264 . S
C2376 C2381 1.479 . S
C2376 C2386 1.465 . S
C2377 C2376 1.264 . S
C2377 C2379 1.339 . S
C2377 H2404 0.931 . S
C2378 C2379 1.395 . S
C2378 C2380 1.320 . S
C2379 C2377 1.339 . S
C2379 C2378 1.395 . S
C2379 H2405 0.929 . S
C2380 C2378 1.320 . S
C2380 C2381 1.405 . S
C2380 H2406 0.930 . S
C2381 C2376 1.479 . S
C2381 C2380 1.405 . S
C2381 H2407 0.931 . S
U2382 O2383 2.454 . S
U2382 O2384 2.458 . S
U2382 C2385 2.984 . S
U2382 C2386 2.847 . S
U2382 C2399 2.882 . S
U2382 O2400 2.441 . S
U2382 O2401 2.420 . S
U2382 O2402 2.455 . S
U2382 O2403 2.449 . S
O2383 U2382 2.454 . S
O2383 C2385 1.353 . S
O2384 U2382 2.458 . S
O2384 C2385 1.286 . S
C2385 U2382 2.984 . S
C2385 O2383 1.353 . S
C2385 O2384 1.286 . S
C2385 C2387 1.363 . S
C2386 C2376 1.465 . S
C2386 U2382 2.847 . S
C2386 O2400 1.249 . S
C2386 O2401 1.202 . S
C2387 C2385 1.363 . S
C2387 C2389 1.408 . S
C2387 C2392 1.342 . S
C2388 C2389 1.310 . S
C2388 C2391 1.461 . S
C2388 H2408 0.932 . S
C2389 C2387 1.408 . S
C2389 C2388 1.310 . S
C2389 H2409 0.930 . S
C2390 C2391 1.474 . S
C2390 C2392 1.285 . S
C2390 H2410 0.929 . S
C2391 C2388 1.461 . S
C2391 C2390 1.474 . S
C2392 C2387 1.342 . S
C2392 C2390 1.285 . S
C2392 H2411 0.930 . S
C2393 C2396 1.424 . S
C2393 C2398 1.245 . S
C2393 C2399 1.428 . S
C2394 C2397 1.260 . S
C2394 C2398 1.477 . S
C2394 H2412 0.932 . S
C2395 C2396 1.384 . S
C2395 C2397 1.479 . S
C2395 H2413 0.929 . S
C2396 C2393 1.424 . S
C2396 C2395 1.384 . S
C2396 H2414 0.928 . S
C2397 C2394 1.260 . S
C2397 C2395 1.479 . S
C2398 C2393 1.245 . S
C2398 C2394 1.477 . S
C2398 H2415 0.932 . S
C2399 U2382 2.882 . S
C2399 C2393 1.428 . S
C2399 O2402 1.301 . S
C2399 O2403 1.282 . S
O2400 U2382 2.441 . S
O2400 C2386 1.249 . S
O2401 U2382 2.420 . S
O2401 C2386 1.202 . S
O2402 U2382 2.455 . S
O2402 C2399 1.301 . S
O2403 U2382 2.449 . S
O2403 C2399 1.282 . S
H2404 C2377 0.931 . S
H2405 C2379 0.929 . S
H2406 C2380 0.930 . S
H2407 C2381 0.931 . S
H2408 C2388 0.932 . S
H2409 C2389 0.930 . S
H2410 C2390 0.929 . S
H2411 C2392 0.930 . S
H2412 C2394 0.932 . S
H2413 C2395 0.929 . S
H2414 C2396 0.928 . S
H2415 C2398 0.932 . S
C2416 C2417 1.264 . S
C2416 C2421 1.479 . S
C2416 C2426 1.465 . S
C2417 C2416 1.264 . S
C2417 C2419 1.339 . S
C2417 H2444 0.931 . S
C2418 C2419 1.395 . S
C2418 C2420 1.320 . S
C2419 C2417 1.339 . S
C2419 C2418 1.395 . S
C2419 H2445 0.929 . S
C2420 C2418 1.320 . S
C2420 C2421 1.405 . S
C2420 H2446 0.930 . S
C2421 C2416 1.479 . S
C2421 C2420 1.405 . S
C2421 H2447 0.931 . S
U2422 O2423 2.454 . S
U2422 O2424 2.458 . S
U2422 C2425 2.984 . S
U2422 C2426 2.847 . S
U2422 C2439 2.882 . S
U2422 O2440 2.441 . S
U2422 O2441 2.420 . S
U2422 O2442 2.455 . S
U2422 O2443 2.449 . S
O2423 U2422 2.454 . S
O2423 C2425 1.353 . S
O2424 U2422 2.458 . S
O2424 C2425 1.286 . S
C2425 U2422 2.984 . S
C2425 O2423 1.353 . S
C2425 O2424 1.286 . S
C2425 C2427 1.363 . S
C2426 C2416 1.465 . S
C2426 U2422 2.847 . S
C2426 O2440 1.249 . S
C2426 O2441 1.202 . S
C2427 C2425 1.363 . S
C2427 C2429 1.408 . S
C2427 C2432 1.342 . S
C2428 C2429 1.310 . S
C2428 C2431 1.461 . S
C2428 H2448 0.932 . S
C2429 C2427 1.408 . S
C2429 C2428 1.310 . S
C2429 H2449 0.930 . S
C2430 C2431 1.474 . S
C2430 C2432 1.285 . S
C2430 H2450 0.929 . S
C2431 C2428 1.461 . S
C2431 C2430 1.474 . S
C2432 C2427 1.342 . S
C2432 C2430 1.285 . S
C2432 H2451 0.930 . S
C2433 C2436 1.424 . S
C2433 C2438 1.245 . S
C2433 C2439 1.428 . S
C2434 C2437 1.260 . S
C2434 C2438 1.477 . S
C2434 H2452 0.932 . S
C2435 C2436 1.384 . S
C2435 C2437 1.479 . S
C2435 H2453 0.929 . S
C2436 C2433 1.424 . S
C2436 C2435 1.384 . S
C2436 H2454 0.928 . S
C2437 C2434 1.260 . S
C2437 C2435 1.479 . S
C2438 C2433 1.245 . S
C2438 C2434 1.477 . S
C2438 H2455 0.932 . S
C2439 U2422 2.882 . S
C2439 C2433 1.428 . S
C2439 O2442 1.301 . S
C2439 O2443 1.282 . S
O2440 U2422 2.441 . S
O2440 C2426 1.249 . S
O2441 U2422 2.420 . S
O2441 C2426 1.202 . S
O2442 U2422 2.455 . S
O2442 C2439 1.301 . S
O2443 U2422 2.449 . S
O2443 C2439 1.282 . S
H2444 C2417 0.931 . S
H2445 C2419 0.929 . S
H2446 C2420 0.930 . S
H2447 C2421 0.931 . S
H2448 C2428 0.932 . S
H2449 C2429 0.930 . S
H2450 C2430 0.929 . S
H2451 C2432 0.930 . S
H2452 C2434 0.932 . S
H2453 C2435 0.929 . S
H2454 C2436 0.928 . S
H2455 C2438 0.932 . S
C2456 C2457 1.264 . S
C2456 C2461 1.479 . S
C2456 C2466 1.465 . S
C2457 C2456 1.264 . S
C2457 C2459 1.339 . S
C2457 H2484 0.931 . S
C2458 C2459 1.395 . S
C2458 C2460 1.320 . S
C2459 C2457 1.339 . S
C2459 C2458 1.395 . S
C2459 H2485 0.929 . S
C2460 C2458 1.320 . S
C2460 C2461 1.405 . S
C2460 H2486 0.930 . S
C2461 C2456 1.479 . S
C2461 C2460 1.405 . S
C2461 H2487 0.931 . S
U2462 O2463 2.454 . S
U2462 O2464 2.458 . S
U2462 C2465 2.984 . S
U2462 C2466 2.847 . S
U2462 C2479 2.882 . S
U2462 O2480 2.441 . S
U2462 O2481 2.420 . S
U2462 O2482 2.455 . S
U2462 O2483 2.449 . S
O2463 U2462 2.454 . S
O2463 C2465 1.353 . S
O2464 U2462 2.458 . S
O2464 C2465 1.286 . S
C2465 U2462 2.984 . S
C2465 O2463 1.353 . S
C2465 O2464 1.286 . S
C2465 C2467 1.363 . S
C2466 C2456 1.465 . S
C2466 U2462 2.847 . S
C2466 O2480 1.249 . S
C2466 O2481 1.202 . S
C2467 C2465 1.363 . S
C2467 C2469 1.408 . S
C2467 C2472 1.342 . S
C2468 C2469 1.310 . S
C2468 C2471 1.461 . S
C2468 H2488 0.932 . S
C2469 C2467 1.408 . S
C2469 C2468 1.310 . S
C2469 H2489 0.930 . S
C2470 C2471 1.474 . S
C2470 C2472 1.285 . S
C2470 H2490 0.929 . S
C2471 C2468 1.461 . S
C2471 C2470 1.474 . S
C2472 C2467 1.342 . S
C2472 C2470 1.285 . S
C2472 H2491 0.930 . S
C2473 C2476 1.424 . S
C2473 C2478 1.245 . S
C2473 C2479 1.428 . S
C2474 C2477 1.260 . S
C2474 C2478 1.477 . S
C2474 H2492 0.932 . S
C2475 C2476 1.384 . S
C2475 C2477 1.479 . S
C2475 H2493 0.929 . S
C2476 C2473 1.424 . S
C2476 C2475 1.384 . S
C2476 H2494 0.928 . S
C2477 C2474 1.260 . S
C2477 C2475 1.479 . S
C2478 C2473 1.245 . S
C2478 C2474 1.477 . S
C2478 H2495 0.932 . S
C2479 U2462 2.882 . S
C2479 C2473 1.428 . S
C2479 O2482 1.301 . S
C2479 O2483 1.282 . S
O2480 U2462 2.441 . S
O2480 C2466 1.249 . S
O2481 U2462 2.420 . S
O2481 C2466 1.202 . S
O2482 U2462 2.455 . S
O2482 C2479 1.301 . S
O2483 U2462 2.449 . S
O2483 C2479 1.282 . S
H2484 C2457 0.931 . S
H2485 C2459 0.929 . S
H2486 C2460 0.930 . S
H2487 C2461 0.931 . S
H2488 C2468 0.932 . S
H2489 C2469 0.930 . S
H2490 C2470 0.929 . S
H2491 C2472 0.930 . S
H2492 C2474 0.932 . S
H2493 C2475 0.929 . S
H2494 C2476 0.928 . S
H2495 C2478 0.932 . S
C2496 C2497 1.264 . S
C2496 C2501 1.479 . S
C2496 C2506 1.465 . S
C2497 C2496 1.264 . S
C2497 C2499 1.339 . S
C2497 H2524 0.931 . S
C2498 C2499 1.395 . S
C2498 C2500 1.320 . S
C2499 C2497 1.339 . S
C2499 C2498 1.395 . S
C2499 H2525 0.929 . S
C2500 C2498 1.320 . S
C2500 C2501 1.405 . S
C2500 H2526 0.930 . S
C2501 C2496 1.479 . S
C2501 C2500 1.405 . S
C2501 H2527 0.931 . S
U2502 O2503 2.454 . S
U2502 O2504 2.458 . S
U2502 C2505 2.984 . S
U2502 C2506 2.847 . S
U2502 C2519 2.882 . S
U2502 O2520 2.441 . S
U2502 O2521 2.420 . S
U2502 O2522 2.455 . S
U2502 O2523 2.449 . S
O2503 U2502 2.454 . S
O2503 C2505 1.353 . S
O2504 U2502 2.458 . S
O2504 C2505 1.286 . S
C2505 U2502 2.984 . S
C2505 O2503 1.353 . S
C2505 O2504 1.286 . S
C2505 C2507 1.363 . S
C2506 C2496 1.465 . S
C2506 U2502 2.847 . S
C2506 O2520 1.249 . S
C2506 O2521 1.202 . S
C2507 C2505 1.363 . S
C2507 C2509 1.408 . S
C2507 C2512 1.342 . S
C2508 C2509 1.310 . S
C2508 C2511 1.461 . S
C2508 H2528 0.932 . S
C2509 C2507 1.408 . S
C2509 C2508 1.310 . S
C2509 H2529 0.930 . S
C2510 C2511 1.474 . S
C2510 C2512 1.285 . S
C2510 H2530 0.929 . S
C2511 C2508 1.461 . S
C2511 C2510 1.474 . S
C2512 C2507 1.342 . S
C2512 C2510 1.285 . S
C2512 H2531 0.930 . S
C2513 C2516 1.424 . S
C2513 C2518 1.245 . S
C2513 C2519 1.428 . S
C2514 C2517 1.260 . S
C2514 C2518 1.477 . S
C2514 H2532 0.932 . S
C2515 C2516 1.384 . S
C2515 C2517 1.479 . S
C2515 H2533 0.929 . S
C2516 C2513 1.424 . S
C2516 C2515 1.384 . S
C2516 H2534 0.928 . S
C2517 C2514 1.260 . S
C2517 C2515 1.479 . S
C2518 C2513 1.245 . S
C2518 C2514 1.477 . S
C2518 H2535 0.932 . S
C2519 U2502 2.882 . S
C2519 C2513 1.428 . S
C2519 O2522 1.301 . S
C2519 O2523 1.282 . S
O2520 U2502 2.441 . S
O2520 C2506 1.249 . S
O2521 U2502 2.420 . S
O2521 C2506 1.202 . S
O2522 U2502 2.455 . S
O2522 C2519 1.301 . S
O2523 U2502 2.449 . S
O2523 C2519 1.282 . S
H2524 C2497 0.931 . S
H2525 C2499 0.929 . S
H2526 C2500 0.930 . S
H2527 C2501 0.931 . S
H2528 C2508 0.932 . S
H2529 C2509 0.930 . S
H2530 C2510 0.929 . S
H2531 C2512 0.930 . S
H2532 C2514 0.932 . S
H2533 C2515 0.929 . S
H2534 C2516 0.928 . S
H2535 C2518 0.932 . S
C2536 C2537 1.264 . S
C2536 C2541 1.479 . S
C2536 C2546 1.465 . S
C2537 C2536 1.264 . S
C2537 C2539 1.339 . S
C2537 H2564 0.931 . S
C2538 C2539 1.395 . S
C2538 C2540 1.320 . S
C2539 C2537 1.339 . S
C2539 C2538 1.395 . S
C2539 H2565 0.929 . S
C2540 C2538 1.320 . S
C2540 C2541 1.405 . S
C2540 H2566 0.930 . S
C2541 C2536 1.479 . S
C2541 C2540 1.405 . S
C2541 H2567 0.931 . S
U2542 O2543 2.454 . S
U2542 O2544 2.458 . S
U2542 C2545 2.984 . S
U2542 C2546 2.847 . S
U2542 C2559 2.882 . S
U2542 O2560 2.441 . S
U2542 O2561 2.420 . S
U2542 O2562 2.455 . S
U2542 O2563 2.449 . S
O2543 U2542 2.454 . S
O2543 C2545 1.353 . S
O2544 U2542 2.458 . S
O2544 C2545 1.286 . S
C2545 U2542 2.984 . S
C2545 O2543 1.353 . S
C2545 O2544 1.286 . S
C2545 C2547 1.363 . S
C2546 C2536 1.465 . S
C2546 U2542 2.847 . S
C2546 O2560 1.249 . S
C2546 O2561 1.202 . S
C2547 C2545 1.363 . S
C2547 C2549 1.408 . S
C2547 C2552 1.342 . S
C2548 C2549 1.310 . S
C2548 C2551 1.461 . S
C2548 H2568 0.932 . S
C2549 C2547 1.408 . S
C2549 C2548 1.310 . S
C2549 H2569 0.930 . S
C2550 C2551 1.474 . S
C2550 C2552 1.285 . S
C2550 H2570 0.929 . S
C2551 C2548 1.461 . S
C2551 C2550 1.474 . S
C2552 C2547 1.342 . S
C2552 C2550 1.285 . S
C2552 H2571 0.930 . S
C2553 C2556 1.424 . S
C2553 C2558 1.245 . S
C2553 C2559 1.428 . S
C2554 C2557 1.260 . S
C2554 C2558 1.477 . S
C2554 H2572 0.932 . S
C2555 C2556 1.384 . S
C2555 C2557 1.479 . S
C2555 H2573 0.929 . S
C2556 C2553 1.424 . S
C2556 C2555 1.384 . S
C2556 H2574 0.928 . S
C2557 C2554 1.260 . S
C2557 C2555 1.479 . S
C2558 C2553 1.245 . S
C2558 C2554 1.477 . S
C2558 H2575 0.932 . S
C2559 U2542 2.882 . S
C2559 C2553 1.428 . S
C2559 O2562 1.301 . S
C2559 O2563 1.282 . S
O2560 U2542 2.441 . S
O2560 C2546 1.249 . S
O2561 U2542 2.420 . S
O2561 C2546 1.202 . S
O2562 U2542 2.455 . S
O2562 C2559 1.301 . S
O2563 U2542 2.449 . S
O2563 C2559 1.282 . S
H2564 C2537 0.931 . S
H2565 C2539 0.929 . S
H2566 C2540 0.930 . S
H2567 C2541 0.931 . S
H2568 C2548 0.932 . S
H2569 C2549 0.930 . S
H2570 C2550 0.929 . S
H2571 C2552 0.930 . S
H2572 C2554 0.932 . S
H2573 C2555 0.929 . S
H2574 C2556 0.928 . S
H2575 C2558 0.932 . S
C2576 C2577 1.264 . S
C2576 C2581 1.479 . S
C2576 C2586 1.465 . S
C2577 C2576 1.264 . S
C2577 C2579 1.339 . S
C2577 H2604 0.931 . S
C2578 C2579 1.395 . S
C2578 C2580 1.320 . S
C2579 C2577 1.339 . S
C2579 C2578 1.395 . S
C2579 H2605 0.929 . S
C2580 C2578 1.320 . S
C2580 C2581 1.405 . S
C2580 H2606 0.930 . S
C2581 C2576 1.479 . S
C2581 C2580 1.405 . S
C2581 H2607 0.931 . S
U2582 O2583 2.454 . S
U2582 O2584 2.458 . S
U2582 C2585 2.984 . S
U2582 C2586 2.847 . S
U2582 C2599 2.882 . S
U2582 O2600 2.441 . S
U2582 O2601 2.420 . S
U2582 O2602 2.455 . S
U2582 O2603 2.449 . S
O2583 U2582 2.454 . S
O2583 C2585 1.353 . S
O2584 U2582 2.458 . S
O2584 C2585 1.286 . S
C2585 U2582 2.984 . S
C2585 O2583 1.353 . S
C2585 O2584 1.286 . S
C2585 C2587 1.363 . S
C2586 C2576 1.465 . S
C2586 U2582 2.847 . S
C2586 O2600 1.249 . S
C2586 O2601 1.202 . S
C2587 C2585 1.363 . S
C2587 C2589 1.408 . S
C2587 C2592 1.342 . S
C2588 C2589 1.310 . S
C2588 C2591 1.461 . S
C2588 H2608 0.932 . S
C2589 C2587 1.408 . S
C2589 C2588 1.310 . S
C2589 H2609 0.930 . S
C2590 C2591 1.474 . S
C2590 C2592 1.285 . S
C2590 H2610 0.929 . S
C2591 C2588 1.461 . S
C2591 C2590 1.474 . S
C2592 C2587 1.342 . S
C2592 C2590 1.285 . S
C2592 H2611 0.930 . S
C2593 C2596 1.424 . S
C2593 C2598 1.245 . S
C2593 C2599 1.428 . S
C2594 C2597 1.260 . S
C2594 C2598 1.477 . S
C2594 H2612 0.932 . S
C2595 C2596 1.384 . S
C2595 C2597 1.479 . S
C2595 H2613 0.929 . S
C2596 C2593 1.424 . S
C2596 C2595 1.384 . S
C2596 H2614 0.928 . S
C2597 C2594 1.260 . S
C2597 C2595 1.479 . S
C2598 C2593 1.245 . S
C2598 C2594 1.477 . S
C2598 H2615 0.932 . S
C2599 U2582 2.882 . S
C2599 C2593 1.428 . S
C2599 O2602 1.301 . S
C2599 O2603 1.282 . S
O2600 U2582 2.441 . S
O2600 C2586 1.249 . S
O2601 U2582 2.420 . S
O2601 C2586 1.202 . S
O2602 U2582 2.455 . S
O2602 C2599 1.301 . S
O2603 U2582 2.449 . S
O2603 C2599 1.282 . S
H2604 C2577 0.931 . S
H2605 C2579 0.929 . S
H2606 C2580 0.930 . S
H2607 C2581 0.931 . S
H2608 C2588 0.932 . S
H2609 C2589 0.930 . S
H2610 C2590 0.929 . S
H2611 C2592 0.930 . S
H2612 C2594 0.932 . S
H2613 C2595 0.929 . S
H2614 C2596 0.928 . S
H2615 C2598 0.932 . S
C2616 C2617 1.264 . S
C2616 C2621 1.479 . S
C2616 C2626 1.465 . S
C2617 C2616 1.264 . S
C2617 C2619 1.339 . S
C2617 H2644 0.931 . S
C2618 C2619 1.395 . S
C2618 C2620 1.320 . S
C2619 C2617 1.339 . S
C2619 C2618 1.395 . S
C2619 H2645 0.929 . S
C2620 C2618 1.320 . S
C2620 C2621 1.405 . S
C2620 H2646 0.930 . S
C2621 C2616 1.479 . S
C2621 C2620 1.405 . S
C2621 H2647 0.931 . S
U2622 O2623 2.454 . S
U2622 O2624 2.458 . S
U2622 C2625 2.984 . S
U2622 C2626 2.847 . S
U2622 C2639 2.882 . S
U2622 O2640 2.441 . S
U2622 O2641 2.420 . S
U2622 O2642 2.455 . S
U2622 O2643 2.449 . S
O2623 U2622 2.454 . S
O2623 C2625 1.353 . S
O2624 U2622 2.458 . S
O2624 C2625 1.286 . S
C2625 U2622 2.984 . S
C2625 O2623 1.353 . S
C2625 O2624 1.286 . S
C2625 C2627 1.363 . S
C2626 C2616 1.465 . S
C2626 U2622 2.847 . S
C2626 O2640 1.249 . S
C2626 O2641 1.202 . S
C2627 C2625 1.363 . S
C2627 C2629 1.408 . S
C2627 C2632 1.342 . S
C2628 C2629 1.310 . S
C2628 C2631 1.461 . S
C2628 H2648 0.932 . S
C2629 C2627 1.408 . S
C2629 C2628 1.310 . S
C2629 H2649 0.930 . S
C2630 C2631 1.474 . S
C2630 C2632 1.285 . S
C2630 H2650 0.929 . S
C2631 C2628 1.461 . S
C2631 C2630 1.474 . S
C2632 C2627 1.342 . S
C2632 C2630 1.285 . S
C2632 H2651 0.930 . S
C2633 C2636 1.424 . S
C2633 C2638 1.245 . S
C2633 C2639 1.428 . S
C2634 C2637 1.260 . S
C2634 C2638 1.477 . S
C2634 H2652 0.932 . S
C2635 C2636 1.384 . S
C2635 C2637 1.479 . S
C2635 H2653 0.929 . S
C2636 C2633 1.424 . S
C2636 C2635 1.384 . S
C2636 H2654 0.928 . S
C2637 C2634 1.260 . S
C2637 C2635 1.479 . S
C2638 C2633 1.245 . S
C2638 C2634 1.477 . S
C2638 H2655 0.932 . S
C2639 U2622 2.882 . S
C2639 C2633 1.428 . S
C2639 O2642 1.301 . S
C2639 O2643 1.282 . S
O2640 U2622 2.441 . S
O2640 C2626 1.249 . S
O2641 U2622 2.420 . S
O2641 C2626 1.202 . S
O2642 U2622 2.455 . S
O2642 C2639 1.301 . S
O2643 U2622 2.449 . S
O2643 C2639 1.282 . S
H2644 C2617 0.931 . S
H2645 C2619 0.929 . S
H2646 C2620 0.930 . S
H2647 C2621 0.931 . S
H2648 C2628 0.932 . S
H2649 C2629 0.930 . S
H2650 C2630 0.929 . S
H2651 C2632 0.930 . S
H2652 C2634 0.932 . S
H2653 C2635 0.929 . S
H2654 C2636 0.928 . S
H2655 C2638 0.932 . S
C2656 C2657 1.264 . S
C2656 C2661 1.479 . S
C2656 C2666 1.465 . S
C2657 C2656 1.264 . S
C2657 C2659 1.339 . S
C2657 H2684 0.931 . S
C2658 C2659 1.395 . S
C2658 C2660 1.320 . S
C2659 C2657 1.339 . S
C2659 C2658 1.395 . S
C2659 H2685 0.929 . S
C2660 C2658 1.320 . S
C2660 C2661 1.405 . S
C2660 H2686 0.930 . S
C2661 C2656 1.479 . S
C2661 C2660 1.405 . S
C2661 H2687 0.931 . S
U2662 O2663 2.454 . S
U2662 O2664 2.458 . S
U2662 C2665 2.984 . S
U2662 C2666 2.847 . S
U2662 C2679 2.882 . S
U2662 O2680 2.441 . S
U2662 O2681 2.420 . S
U2662 O2682 2.455 . S
U2662 O2683 2.449 . S
O2663 U2662 2.454 . S
O2663 C2665 1.353 . S
O2664 U2662 2.458 . S
O2664 C2665 1.286 . S
C2665 U2662 2.984 . S
C2665 O2663 1.353 . S
C2665 O2664 1.286 . S
C2665 C2667 1.363 . S
C2666 C2656 1.465 . S
C2666 U2662 2.847 . S
C2666 O2680 1.249 . S
C2666 O2681 1.202 . S
C2667 C2665 1.363 . S
C2667 C2669 1.408 . S
C2667 C2672 1.342 . S
C2668 C2669 1.310 . S
C2668 C2671 1.461 . S
C2668 H2688 0.932 . S
C2669 C2667 1.408 . S
C2669 C2668 1.310 . S
C2669 H2689 0.930 . S
C2670 C2671 1.474 . S
C2670 C2672 1.285 . S
C2670 H2690 0.929 . S
C2671 C2668 1.461 . S
C2671 C2670 1.474 . S
C2672 C2667 1.342 . S
C2672 C2670 1.285 . S
C2672 H2691 0.930 . S
C2673 C2676 1.424 . S
C2673 C2678 1.245 . S
C2673 C2679 1.428 . S
C2674 C2677 1.260 . S
C2674 C2678 1.477 . S
C2674 H2692 0.932 . S
C2675 C2676 1.384 . S
C2675 C2677 1.479 . S
C2675 H2693 0.929 . S
C2676 C2673 1.424 . S
C2676 C2675 1.384 . S
C2676 H2694 0.928 . S
C2677 C2674 1.260 . S
C2677 C2675 1.479 . S
C2678 C2673 1.245 . S
C2678 C2674 1.477 . S
C2678 H2695 0.932 . S
C2679 U2662 2.882 . S
C2679 C2673 1.428 . S
C2679 O2682 1.301 . S
C2679 O2683 1.282 . S
O2680 U2662 2.441 . S
O2680 C2666 1.249 . S
O2681 U2662 2.420 . S
O2681 C2666 1.202 . S
O2682 U2662 2.455 . S
O2682 C2679 1.301 . S
O2683 U2662 2.449 . S
O2683 C2679 1.282 . S
H2684 C2657 0.931 . S
H2685 C2659 0.929 . S
H2686 C2660 0.930 . S
H2687 C2661 0.931 . S
H2688 C2668 0.932 . S
H2689 C2669 0.930 . S
H2690 C2670 0.929 . S
H2691 C2672 0.930 . S
H2692 C2674 0.932 . S
H2693 C2675 0.929 . S
H2694 C2676 0.928 . S
H2695 C2678 0.932 . S
C2696 C2697 1.264 . S
C2696 C2701 1.479 . S
C2696 C2706 1.465 . S
C2697 C2696 1.264 . S
C2697 C2699 1.339 . S
C2697 H2724 0.931 . S
C2698 C2699 1.395 . S
C2698 C2700 1.320 . S
C2699 C2697 1.339 . S
C2699 C2698 1.395 . S
C2699 H2725 0.929 . S
C2700 C2698 1.320 . S
C2700 C2701 1.405 . S
C2700 H2726 0.930 . S
C2701 C2696 1.479 . S
C2701 C2700 1.405 . S
C2701 H2727 0.931 . S
U2702 O2703 2.454 . S
U2702 O2704 2.458 . S
U2702 C2705 2.984 . S
U2702 C2706 2.847 . S
U2702 C2719 2.882 . S
U2702 O2720 2.441 . S
U2702 O2721 2.420 . S
U2702 O2722 2.455 . S
U2702 O2723 2.449 . S
O2703 U2702 2.454 . S
O2703 C2705 1.353 . S
O2704 U2702 2.458 . S
O2704 C2705 1.286 . S
C2705 U2702 2.984 . S
C2705 O2703 1.353 . S
C2705 O2704 1.286 . S
C2705 C2707 1.363 . S
C2706 C2696 1.465 . S
C2706 U2702 2.847 . S
C2706 O2720 1.249 . S
C2706 O2721 1.202 . S
C2707 C2705 1.363 . S
C2707 C2709 1.408 . S
C2707 C2712 1.342 . S
C2708 C2709 1.310 . S
C2708 C2711 1.461 . S
C2708 H2728 0.932 . S
C2709 C2707 1.408 . S
C2709 C2708 1.310 . S
C2709 H2729 0.930 . S
C2710 C2711 1.474 . S
C2710 C2712 1.285 . S
C2710 H2730 0.929 . S
C2711 C2708 1.461 . S
C2711 C2710 1.474 . S
C2712 C2707 1.342 . S
C2712 C2710 1.285 . S
C2712 H2731 0.930 . S
C2713 C2716 1.424 . S
C2713 C2718 1.245 . S
C2713 C2719 1.428 . S
C2714 C2717 1.260 . S
C2714 C2718 1.477 . S
C2714 H2732 0.932 . S
C2715 C2716 1.384 . S
C2715 C2717 1.479 . S
C2715 H2733 0.929 . S
C2716 C2713 1.424 . S
C2716 C2715 1.384 . S
C2716 H2734 0.928 . S
C2717 C2714 1.260 . S
C2717 C2715 1.479 . S
C2718 C2713 1.245 . S
C2718 C2714 1.477 . S
C2718 H2735 0.932 . S
C2719 U2702 2.882 . S
C2719 C2713 1.428 . S
C2719 O2722 1.301 . S
C2719 O2723 1.282 . S
O2720 U2702 2.441 . S
O2720 C2706 1.249 . S
O2721 U2702 2.420 . S
O2721 C2706 1.202 . S
O2722 U2702 2.455 . S
O2722 C2719 1.301 . S
O2723 U2702 2.449 . S
O2723 C2719 1.282 . S
H2724 C2697 0.931 . S
H2725 C2699 0.929 . S
H2726 C2700 0.930 . S
H2727 C2701 0.931 . S
H2728 C2708 0.932 . S
H2729 C2709 0.930 . S
H2730 C2710 0.929 . S
H2731 C2712 0.930 . S
H2732 C2714 0.932 . S
H2733 C2715 0.929 . S
H2734 C2716 0.928 . S
H2735 C2718 0.932 . S
C2736 C2737 1.264 . S
C2736 C2741 1.479 . S
C2736 C2746 1.465 . S
C2737 C2736 1.264 . S
C2737 C2739 1.339 . S
C2737 H2764 0.931 . S
C2738 C2739 1.395 . S
C2738 C2740 1.320 . S
C2739 C2737 1.339 . S
C2739 C2738 1.395 . S
C2739 H2765 0.929 . S
C2740 C2738 1.320 . S
C2740 C2741 1.405 . S
C2740 H2766 0.930 . S
C2741 C2736 1.479 . S
C2741 C2740 1.405 . S
C2741 H2767 0.931 . S
U2742 O2743 2.454 . S
U2742 O2744 2.458 . S
U2742 C2745 2.984 . S
U2742 C2746 2.847 . S
U2742 C2759 2.882 . S
U2742 O2760 2.441 . S
U2742 O2761 2.420 . S
U2742 O2762 2.455 . S
U2742 O2763 2.449 . S
O2743 U2742 2.454 . S
O2743 C2745 1.353 . S
O2744 U2742 2.458 . S
O2744 C2745 1.286 . S
C2745 U2742 2.984 . S
C2745 O2743 1.353 . S
C2745 O2744 1.286 . S
C2745 C2747 1.363 . S
C2746 C2736 1.465 . S
C2746 U2742 2.847 . S
C2746 O2760 1.249 . S
C2746 O2761 1.202 . S
C2747 C2745 1.363 . S
C2747 C2749 1.408 . S
C2747 C2752 1.342 . S
C2748 C2749 1.310 . S
C2748 C2751 1.461 . S
C2748 H2768 0.932 . S
C2749 C2747 1.408 . S
C2749 C2748 1.310 . S
C2749 H2769 0.930 . S
C2750 C2751 1.474 . S
C2750 C2752 1.285 . S
C2750 H2770 0.929 . S
C2751 C2748 1.461 . S
C2751 C2750 1.474 . S
C2752 C2747 1.342 . S
C2752 C2750 1.285 . S
C2752 H2771 0.930 . S
C2753 C2756 1.424 . S
C2753 C2758 1.245 . S
C2753 C2759 1.428 . S
C2754 C2757 1.260 . S
C2754 C2758 1.477 . S
C2754 H2772 0.932 . S
C2755 C2756 1.384 . S
C2755 C2757 1.479 . S
C2755 H2773 0.929 . S
C2756 C2753 1.424 . S
C2756 C2755 1.384 . S
C2756 H2774 0.928 . S
C2757 C2754 1.260 . S
C2757 C2755 1.479 . S
C2758 C2753 1.245 . S
C2758 C2754 1.477 . S
C2758 H2775 0.932 . S
C2759 U2742 2.882 . S
C2759 C2753 1.428 . S
C2759 O2762 1.301 . S
C2759 O2763 1.282 . S
O2760 U2742 2.441 . S
O2760 C2746 1.249 . S
O2761 U2742 2.420 . S
O2761 C2746 1.202 . S
O2762 U2742 2.455 . S
O2762 C2759 1.301 . S
O2763 U2742 2.449 . S
O2763 C2759 1.282 . S
H2764 C2737 0.931 . S
H2765 C2739 0.929 . S
H2766 C2740 0.930 . S
H2767 C2741 0.931 . S
H2768 C2748 0.932 . S
H2769 C2749 0.930 . S
H2770 C2750 0.929 . S
H2771 C2752 0.930 . S
H2772 C2754 0.932 . S
H2773 C2755 0.929 . S
H2774 C2756 0.928 . S
H2775 C2758 0.932 . S
C2776 C2777 1.264 . S
C2776 C2781 1.479 . S
C2776 C2786 1.465 . S
C2777 C2776 1.264 . S
C2777 C2779 1.339 . S
C2777 H2804 0.931 . S
C2778 C2779 1.395 . S
C2778 C2780 1.320 . S
C2779 C2777 1.339 . S
C2779 C2778 1.395 . S
C2779 H2805 0.929 . S
C2780 C2778 1.320 . S
C2780 C2781 1.405 . S
C2780 H2806 0.930 . S
C2781 C2776 1.479 . S
C2781 C2780 1.405 . S
C2781 H2807 0.931 . S
U2782 O2783 2.454 . S
U2782 O2784 2.458 . S
U2782 C2785 2.984 . S
U2782 C2786 2.847 . S
U2782 C2799 2.882 . S
U2782 O2800 2.441 . S
U2782 O2801 2.420 . S
U2782 O2802 2.455 . S
U2782 O2803 2.449 . S
O2783 U2782 2.454 . S
O2783 C2785 1.353 . S
O2784 U2782 2.458 . S
O2784 C2785 1.286 . S
C2785 U2782 2.984 . S
C2785 O2783 1.353 . S
C2785 O2784 1.286 . S
C2785 C2787 1.363 . S
C2786 C2776 1.465 . S
C2786 U2782 2.847 . S
C2786 O2800 1.249 . S
C2786 O2801 1.202 . S
C2787 C2785 1.363 . S
C2787 C2789 1.408 . S
C2787 C2792 1.342 . S
C2788 C2789 1.310 . S
C2788 C2791 1.461 . S
C2788 H2808 0.932 . S
C2789 C2787 1.408 . S
C2789 C2788 1.310 . S
C2789 H2809 0.930 . S
C2790 C2791 1.474 . S
C2790 C2792 1.285 . S
C2790 H2810 0.929 . S
C2791 C2788 1.461 . S
C2791 C2790 1.474 . S
C2792 C2787 1.342 . S
C2792 C2790 1.285 . S
C2792 H2811 0.930 . S
C2793 C2796 1.424 . S
C2793 C2798 1.245 . S
C2793 C2799 1.428 . S
C2794 C2797 1.260 . S
C2794 C2798 1.477 . S
C2794 H2812 0.932 . S
C2795 C2796 1.384 . S
C2795 C2797 1.479 . S
C2795 H2813 0.929 . S
C2796 C2793 1.424 . S
C2796 C2795 1.384 . S
C2796 H2814 0.928 . S
C2797 C2794 1.260 . S
C2797 C2795 1.479 . S
C2798 C2793 1.245 . S
C2798 C2794 1.477 . S
C2798 H2815 0.932 . S
C2799 U2782 2.882 . S
C2799 C2793 1.428 . S
C2799 O2802 1.301 . S
C2799 O2803 1.282 . S
O2800 U2782 2.441 . S
O2800 C2786 1.249 . S
O2801 U2782 2.420 . S
O2801 C2786 1.202 . S
O2802 U2782 2.455 . S
O2802 C2799 1.301 . S
O2803 U2782 2.449 . S
O2803 C2799 1.282 . S
H2804 C2777 0.931 . S
H2805 C2779 0.929 . S
H2806 C2780 0.930 . S
H2807 C2781 0.931 . S
H2808 C2788 0.932 . S
H2809 C2789 0.930 . S
H2810 C2790 0.929 . S
H2811 C2792 0.930 . S
H2812 C2794 0.932 . S
H2813 C2795 0.929 . S
H2814 C2796 0.928 . S
H2815 C2798 0.932 . S
C2816 C2817 1.264 . S
C2816 C2821 1.479 . S
C2816 C2826 1.465 . S
C2817 C2816 1.264 . S
C2817 C2819 1.339 . S
C2817 H2844 0.931 . S
C2818 C2819 1.395 . S
C2818 C2820 1.320 . S
C2819 C2817 1.339 . S
C2819 C2818 1.395 . S
C2819 H2845 0.929 . S
C2820 C2818 1.320 . S
C2820 C2821 1.405 . S
C2820 H2846 0.930 . S
C2821 C2816 1.479 . S
C2821 C2820 1.405 . S
C2821 H2847 0.931 . S
U2822 O2823 2.454 . S
U2822 O2824 2.458 . S
U2822 C2825 2.984 . S
U2822 C2826 2.847 . S
U2822 C2839 2.882 . S
U2822 O2840 2.441 . S
U2822 O2841 2.420 . S
U2822 O2842 2.455 . S
U2822 O2843 2.449 . S
O2823 U2822 2.454 . S
O2823 C2825 1.353 . S
O2824 U2822 2.458 . S
O2824 C2825 1.286 . S
C2825 U2822 2.984 . S
C2825 O2823 1.353 . S
C2825 O2824 1.286 . S
C2825 C2827 1.363 . S
C2826 C2816 1.465 . S
C2826 U2822 2.847 . S
C2826 O2840 1.249 . S
C2826 O2841 1.202 . S
C2827 C2825 1.363 . S
C2827 C2829 1.408 . S
C2827 C2832 1.342 . S
C2828 C2829 1.310 . S
C2828 C2831 1.461 . S
C2828 H2848 0.932 . S
C2829 C2827 1.408 . S
C2829 C2828 1.310 . S
C2829 H2849 0.930 . S
C2830 C2831 1.474 . S
C2830 C2832 1.285 . S
C2830 H2850 0.929 . S
C2831 C2828 1.461 . S
C2831 C2830 1.474 . S
C2832 C2827 1.342 . S
C2832 C2830 1.285 . S
C2832 H2851 0.930 . S
C2833 C2836 1.424 . S
C2833 C2838 1.245 . S
C2833 C2839 1.428 . S
C2834 C2837 1.260 . S
C2834 C2838 1.477 . S
C2834 H2852 0.932 . S
C2835 C2836 1.384 . S
C2835 C2837 1.479 . S
C2835 H2853 0.929 . S
C2836 C2833 1.424 . S
C2836 C2835 1.384 . S
C2836 H2854 0.928 . S
C2837 C2834 1.260 . S
C2837 C2835 1.479 . S
C2838 C2833 1.245 . S
C2838 C2834 1.477 . S
C2838 H2855 0.932 . S
C2839 U2822 2.882 . S
C2839 C2833 1.428 . S
C2839 O2842 1.301 . S
C2839 O2843 1.282 . S
O2840 U2822 2.441 . S
O2840 C2826 1.249 . S
O2841 U2822 2.420 . S
O2841 C2826 1.202 . S
O2842 U2822 2.455 . S
O2842 C2839 1.301 . S
O2843 U2822 2.449 . S
O2843 C2839 1.282 . S
H2844 C2817 0.931 . S
H2845 C2819 0.929 . S
H2846 C2820 0.930 . S
H2847 C2821 0.931 . S
H2848 C2828 0.932 . S
H2849 C2829 0.930 . S
H2850 C2830 0.929 . S
H2851 C2832 0.930 . S
H2852 C2834 0.932 . S
H2853 C2835 0.929 . S
H2854 C2836 0.928 . S
H2855 C2838 0.932 . S
C2856 C2857 1.264 . S
C2856 C2861 1.479 . S
C2856 C2866 1.465 . S
C2857 C2856 1.264 . S
C2857 C2859 1.339 . S
C2857 H2884 0.931 . S
C2858 C2859 1.395 . S
C2858 C2860 1.320 . S
C2859 C2857 1.339 . S
C2859 C2858 1.395 . S
C2859 H2885 0.929 . S
C2860 C2858 1.320 . S
C2860 C2861 1.405 . S
C2860 H2886 0.930 . S
C2861 C2856 1.479 . S
C2861 C2860 1.405 . S
C2861 H2887 0.931 . S
U2862 O2863 2.454 . S
U2862 O2864 2.458 . S
U2862 C2865 2.984 . S
U2862 C2866 2.847 . S
U2862 C2879 2.882 . S
U2862 O2880 2.441 . S
U2862 O2881 2.420 . S
U2862 O2882 2.455 . S
U2862 O2883 2.449 . S
O2863 U2862 2.454 . S
O2863 C2865 1.353 . S
O2864 U2862 2.458 . S
O2864 C2865 1.286 . S
C2865 U2862 2.984 . S
C2865 O2863 1.353 . S
C2865 O2864 1.286 . S
C2865 C2867 1.363 . S
C2866 C2856 1.465 . S
C2866 U2862 2.847 . S
C2866 O2880 1.249 . S
C2866 O2881 1.202 . S
C2867 C2865 1.363 . S
C2867 C2869 1.408 . S
C2867 C2872 1.342 . S
C2868 C2869 1.310 . S
C2868 C2871 1.461 . S
C2868 H2888 0.932 . S
C2869 C2867 1.408 . S
C2869 C2868 1.310 . S
C2869 H2889 0.930 . S
C2870 C2871 1.474 . S
C2870 C2872 1.285 . S
C2870 H2890 0.929 . S
C2871 C2868 1.461 . S
C2871 C2870 1.474 . S
C2872 C2867 1.342 . S
C2872 C2870 1.285 . S
C2872 H2891 0.930 . S
C2873 C2876 1.424 . S
C2873 C2878 1.245 . S
C2873 C2879 1.428 . S
C2874 C2877 1.260 . S
C2874 C2878 1.477 . S
C2874 H2892 0.932 . S
C2875 C2876 1.384 . S
C2875 C2877 1.479 . S
C2875 H2893 0.929 . S
C2876 C2873 1.424 . S
C2876 C2875 1.384 . S
C2876 H2894 0.928 . S
C2877 C2874 1.260 . S
C2877 C2875 1.479 . S
C2878 C2873 1.245 . S
C2878 C2874 1.477 . S
C2878 H2895 0.932 . S
C2879 U2862 2.882 . S
C2879 C2873 1.428 . S
C2879 O2882 1.301 . S
C2879 O2883 1.282 . S
O2880 U2862 2.441 . S
O2880 C2866 1.249 . S
O2881 U2862 2.420 . S
O2881 C2866 1.202 . S
O2882 U2862 2.455 . S
O2882 C2879 1.301 . S
O2883 U2862 2.449 . S
O2883 C2879 1.282 . S
H2884 C2857 0.931 . S
H2885 C2859 0.929 . S
H2886 C2860 0.930 . S
H2887 C2861 0.931 . S
H2888 C2868 0.932 . S
H2889 C2869 0.930 . S
H2890 C2870 0.929 . S
H2891 C2872 0.930 . S
H2892 C2874 0.932 . S
H2893 C2875 0.929 . S
H2894 C2876 0.928 . S
H2895 C2878 0.932 . S
C2896 C2897 1.264 . S
C2896 C2901 1.479 . S
C2896 C2906 1.465 . S
C2897 C2896 1.264 . S
C2897 C2899 1.339 . S
C2897 H2924 0.931 . S
C2898 C2899 1.395 . S
C2898 C2900 1.320 . S
C2899 C2897 1.339 . S
C2899 C2898 1.395 . S
C2899 H2925 0.929 . S
C2900 C2898 1.320 . S
C2900 C2901 1.405 . S
C2900 H2926 0.930 . S
C2901 C2896 1.479 . S
C2901 C2900 1.405 . S
C2901 H2927 0.931 . S
U2902 O2903 2.454 . S
U2902 O2904 2.458 . S
U2902 C2905 2.984 . S
U2902 C2906 2.847 . S
U2902 C2919 2.882 . S
U2902 O2920 2.441 . S
U2902 O2921 2.420 . S
U2902 O2922 2.455 . S
U2902 O2923 2.449 . S
O2903 U2902 2.454 . S
O2903 C2905 1.353 . S
O2904 U2902 2.458 . S
O2904 C2905 1.286 . S
C2905 U2902 2.984 . S
C2905 O2903 1.353 . S
C2905 O2904 1.286 . S
C2905 C2907 1.363 . S
C2906 C2896 1.465 . S
C2906 U2902 2.847 . S
C2906 O2920 1.249 . S
C2906 O2921 1.202 . S
C2907 C2905 1.363 . S
C2907 C2909 1.408 . S
C2907 C2912 1.342 . S
C2908 C2909 1.310 . S
C2908 C2911 1.461 . S
C2908 H2928 0.932 . S
C2909 C2907 1.408 . S
C2909 C2908 1.310 . S
C2909 H2929 0.930 . S
C2910 C2911 1.474 . S
C2910 C2912 1.285 . S
C2910 H2930 0.929 . S
C2911 C2908 1.461 . S
C2911 C2910 1.474 . S
C2912 C2907 1.342 . S
C2912 C2910 1.285 . S
C2912 H2931 0.930 . S
C2913 C2916 1.424 . S
C2913 C2918 1.245 . S
C2913 C2919 1.428 . S
C2914 C2917 1.260 . S
C2914 C2918 1.477 . S
C2914 H2932 0.932 . S
C2915 C2916 1.384 . S
C2915 C2917 1.479 . S
C2915 H2933 0.929 . S
C2916 C2913 1.424 . S
C2916 C2915 1.384 . S
C2916 H2934 0.928 . S
C2917 C2914 1.260 . S
C2917 C2915 1.479 . S
C2918 C2913 1.245 . S
C2918 C2914 1.477 . S
C2918 H2935 0.932 . S
C2919 U2902 2.882 . S
C2919 C2913 1.428 . S
C2919 O2922 1.301 . S
C2919 O2923 1.282 . S
O2920 U2902 2.441 . S
O2920 C2906 1.249 . S
O2921 U2902 2.420 . S
O2921 C2906 1.202 . S
O2922 U2902 2.455 . S
O2922 C2919 1.301 . S
O2923 U2902 2.449 . S
O2923 C2919 1.282 . S
H2924 C2897 0.931 . S
H2925 C2899 0.929 . S
H2926 C2900 0.930 . S
H2927 C2901 0.931 . S
H2928 C2908 0.932 . S
H2929 C2909 0.930 . S
H2930 C2910 0.929 . S
H2931 C2912 0.930 . S
H2932 C2914 0.932 . S
H2933 C2915 0.929 . S
H2934 C2916 0.928 . S
H2935 C2918 0.932 . S
C2936 C2937 1.264 . S
C2936 C2941 1.479 . S
C2936 C2946 1.465 . S
C2937 C2936 1.264 . S
C2937 C2939 1.339 . S
C2937 H2964 0.931 . S
C2938 C2939 1.395 . S
C2938 C2940 1.320 . S
C2939 C2937 1.339 . S
C2939 C2938 1.395 . S
C2939 H2965 0.929 . S
C2940 C2938 1.320 . S
C2940 C2941 1.405 . S
C2940 H2966 0.930 . S
C2941 C2936 1.479 . S
C2941 C2940 1.405 . S
C2941 H2967 0.931 . S
U2942 O2943 2.454 . S
U2942 O2944 2.458 . S
U2942 C2945 2.984 . S
U2942 C2946 2.847 . S
U2942 C2959 2.882 . S
U2942 O2960 2.441 . S
U2942 O2961 2.420 . S
U2942 O2962 2.455 . S
U2942 O2963 2.449 . S
O2943 U2942 2.454 . S
O2943 C2945 1.353 . S
O2944 U2942 2.458 . S
O2944 C2945 1.286 . S
C2945 U2942 2.984 . S
C2945 O2943 1.353 . S
C2945 O2944 1.286 . S
C2945 C2947 1.363 . S
C2946 C2936 1.465 . S
C2946 U2942 2.847 . S
C2946 O2960 1.249 . S
C2946 O2961 1.202 . S
C2947 C2945 1.363 . S
C2947 C2949 1.408 . S
C2947 C2952 1.342 . S
C2948 C2949 1.310 . S
C2948 C2951 1.461 . S
C2948 H2968 0.932 . S
C2949 C2947 1.408 . S
C2949 C2948 1.310 . S
C2949 H2969 0.930 . S
C2950 C2951 1.474 . S
C2950 C2952 1.285 . S
C2950 H2970 0.929 . S
C2951 C2948 1.461 . S
C2951 C2950 1.474 . S
C2952 C2947 1.342 . S
C2952 C2950 1.285 . S
C2952 H2971 0.930 . S
C2953 C2956 1.424 . S
C2953 C2958 1.245 . S
C2953 C2959 1.428 . S
C2954 C2957 1.260 . S
C2954 C2958 1.477 . S
C2954 H2972 0.932 . S
C2955 C2956 1.384 . S
C2955 C2957 1.479 . S
C2955 H2973 0.929 . S
C2956 C2953 1.424 . S
C2956 C2955 1.384 . S
C2956 H2974 0.928 . S
C2957 C2954 1.260 . S
C2957 C2955 1.479 . S
C2958 C2953 1.245 . S
C2958 C2954 1.477 . S
C2958 H2975 0.932 . S
C2959 U2942 2.882 . S
C2959 C2953 1.428 . S
C2959 O2962 1.301 . S
C2959 O2963 1.282 . S
O2960 U2942 2.441 . S
O2960 C2946 1.249 . S
O2961 U2942 2.420 . S
O2961 C2946 1.202 . S
O2962 U2942 2.455 . S
O2962 C2959 1.301 . S
O2963 U2942 2.449 . S
O2963 C2959 1.282 . S
H2964 C2937 0.931 . S
H2965 C2939 0.929 . S
H2966 C2940 0.930 . S
H2967 C2941 0.931 . S
H2968 C2948 0.932 . S
H2969 C2949 0.930 . S
H2970 C2950 0.929 . S
H2971 C2952 0.930 . S
H2972 C2954 0.932 . S
H2973 C2955 0.929 . S
H2974 C2956 0.928 . S
H2975 C2958 0.932 . S
C2976 C2977 1.264 . S
C2976 C2981 1.479 . S
C2976 C2986 1.465 . S
C2977 C2976 1.264 . S
C2977 C2979 1.339 . S
C2977 H3004 0.931 . S
C2978 C2979 1.395 . S
C2978 C2980 1.320 . S
C2979 C2977 1.339 . S
C2979 C2978 1.395 . S
C2979 H3005 0.929 . S
C2980 C2978 1.320 . S
C2980 C2981 1.405 . S
C2980 H3006 0.930 . S
C2981 C2976 1.479 . S
C2981 C2980 1.405 . S
C2981 H3007 0.931 . S
U2982 O2983 2.454 . S
U2982 O2984 2.458 . S
U2982 C2985 2.984 . S
U2982 C2986 2.847 . S
U2982 C2999 2.882 . S
U2982 O3000 2.441 . S
U2982 O3001 2.420 . S
U2982 O3002 2.455 . S
U2982 O3003 2.449 . S
O2983 U2982 2.454 . S
O2983 C2985 1.353 . S
O2984 U2982 2.458 . S
O2984 C2985 1.286 . S
C2985 U2982 2.984 . S
C2985 O2983 1.353 . S
C2985 O2984 1.286 . S
C2985 C2987 1.363 . S
C2986 C2976 1.465 . S
C2986 U2982 2.847 . S
C2986 O3000 1.249 . S
C2986 O3001 1.202 . S
C2987 C2985 1.363 . S
C2987 C2989 1.408 . S
C2987 C2992 1.342 . S
C2988 C2989 1.310 . S
C2988 C2991 1.461 . S
C2988 H3008 0.932 . S
C2989 C2987 1.408 . S
C2989 C2988 1.310 . S
C2989 H3009 0.930 . S
C2990 C2991 1.474 . S
C2990 C2992 1.285 . S
C2990 H3010 0.929 . S
C2991 C2988 1.461 . S
C2991 C2990 1.474 . S
C2992 C2987 1.342 . S
C2992 C2990 1.285 . S
C2992 H3011 0.930 . S
C2993 C2996 1.424 . S
C2993 C2998 1.245 . S
C2993 C2999 1.428 . S
C2994 C2997 1.260 . S
C2994 C2998 1.477 . S
C2994 H3012 0.932 . S
C2995 C2996 1.384 . S
C2995 C2997 1.479 . S
C2995 H3013 0.929 . S
C2996 C2993 1.424 . S
C2996 C2995 1.384 . S
C2996 H3014 0.928 . S
C2997 C2994 1.260 . S
C2997 C2995 1.479 . S
C2998 C2993 1.245 . S
C2998 C2994 1.477 . S
C2998 H3015 0.932 . S
C2999 U2982 2.882 . S
C2999 C2993 1.428 . S
C2999 O3002 1.301 . S
C2999 O3003 1.282 . S
O3000 U2982 2.441 . S
O3000 C2986 1.249 . S
O3001 U2982 2.420 . S
O3001 C2986 1.202 . S
O3002 U2982 2.455 . S
O3002 C2999 1.301 . S
O3003 U2982 2.449 . S
O3003 C2999 1.282 . S
H3004 C2977 0.931 . S
H3005 C2979 0.929 . S
H3006 C2980 0.930 . S
H3007 C2981 0.931 . S
H3008 C2988 0.932 . S
H3009 C2989 0.930 . S
H3010 C2990 0.929 . S
H3011 C2992 0.930 . S
H3012 C2994 0.932 . S
H3013 C2995 0.929 . S
H3014 C2996 0.928 . S
H3015 C2998 0.932 . S
C3016 C3017 1.264 . S
C3016 C3021 1.479 . S
C3016 C3026 1.465 . S
C3017 C3016 1.264 . S
C3017 C3019 1.339 . S
C3017 H3044 0.931 . S
C3018 C3019 1.395 . S
C3018 C3020 1.320 . S
C3019 C3017 1.339 . S
C3019 C3018 1.395 . S
C3019 H3045 0.929 . S
C3020 C3018 1.320 . S
C3020 C3021 1.405 . S
C3020 H3046 0.930 . S
C3021 C3016 1.479 . S
C3021 C3020 1.405 . S
C3021 H3047 0.931 . S
U3022 O3023 2.454 . S
U3022 O3024 2.458 . S
U3022 C3025 2.984 . S
U3022 C3026 2.847 . S
U3022 C3039 2.882 . S
U3022 O3040 2.441 . S
U3022 O3041 2.420 . S
U3022 O3042 2.455 . S
U3022 O3043 2.449 . S
O3023 U3022 2.454 . S
O3023 C3025 1.353 . S
O3024 U3022 2.458 . S
O3024 C3025 1.286 . S
C3025 U3022 2.984 . S
C3025 O3023 1.353 . S
C3025 O3024 1.286 . S
C3025 C3027 1.363 . S
C3026 C3016 1.465 . S
C3026 U3022 2.847 . S
C3026 O3040 1.249 . S
C3026 O3041 1.202 . S
C3027 C3025 1.363 . S
C3027 C3029 1.408 . S
C3027 C3032 1.342 . S
C3028 C3029 1.310 . S
C3028 C3031 1.461 . S
C3028 H3048 0.932 . S
C3029 C3027 1.408 . S
C3029 C3028 1.310 . S
C3029 H3049 0.930 . S
C3030 C3031 1.474 . S
C3030 C3032 1.285 . S
C3030 H3050 0.929 . S
C3031 C3028 1.461 . S
C3031 C3030 1.474 . S
C3032 C3027 1.342 . S
C3032 C3030 1.285 . S
C3032 H3051 0.930 . S
C3033 C3036 1.424 . S
C3033 C3038 1.245 . S
C3033 C3039 1.428 . S
C3034 C3037 1.260 . S
C3034 C3038 1.477 . S
C3034 H3052 0.932 . S
C3035 C3036 1.384 . S
C3035 C3037 1.479 . S
C3035 H3053 0.929 . S
C3036 C3033 1.424 . S
C3036 C3035 1.384 . S
C3036 H3054 0.928 . S
C3037 C3034 1.260 . S
C3037 C3035 1.479 . S
C3038 C3033 1.245 . S
C3038 C3034 1.477 . S
C3038 H3055 0.932 . S
C3039 U3022 2.882 . S
C3039 C3033 1.428 . S
C3039 O3042 1.301 . S
C3039 O3043 1.282 . S
O3040 U3022 2.441 . S
O3040 C3026 1.249 . S
O3041 U3022 2.420 . S
O3041 C3026 1.202 . S
O3042 U3022 2.455 . S
O3042 C3039 1.301 . S
O3043 U3022 2.449 . S
O3043 C3039 1.282 . S
H3044 C3017 0.931 . S
H3045 C3019 0.929 . S
H3046 C3020 0.930 . S
H3047 C3021 0.931 . S
H3048 C3028 0.932 . S
H3049 C3029 0.930 . S
H3050 C3030 0.929 . S
H3051 C3032 0.930 . S
H3052 C3034 0.932 . S
H3053 C3035 0.929 . S
H3054 C3036 0.928 . S
H3055 C3038 0.932 . S
C3056 C3057 1.264 . S
C3056 C3061 1.479 . S
C3056 C3066 1.465 . S
C3057 C3056 1.264 . S
C3057 C3059 1.339 . S
C3057 H3084 0.931 . S
C3058 C3059 1.395 . S
C3058 C3060 1.320 . S
C3059 C3057 1.339 . S
C3059 C3058 1.395 . S
C3059 H3085 0.929 . S
C3060 C3058 1.320 . S
C3060 C3061 1.405 . S
C3060 H3086 0.930 . S
C3061 C3056 1.479 . S
C3061 C3060 1.405 . S
C3061 H3087 0.931 . S
U3062 O3063 2.454 . S
U3062 O3064 2.458 . S
U3062 C3065 2.984 . S
U3062 C3066 2.847 . S
U3062 C3079 2.882 . S
U3062 O3080 2.441 . S
U3062 O3081 2.420 . S
U3062 O3082 2.455 . S
U3062 O3083 2.449 . S
O3063 U3062 2.454 . S
O3063 C3065 1.353 . S
O3064 U3062 2.458 . S
O3064 C3065 1.286 . S
C3065 U3062 2.984 . S
C3065 O3063 1.353 . S
C3065 O3064 1.286 . S
C3065 C3067 1.363 . S
C3066 C3056 1.465 . S
C3066 U3062 2.847 . S
C3066 O3080 1.249 . S
C3066 O3081 1.202 . S
C3067 C3065 1.363 . S
C3067 C3069 1.408 . S
C3067 C3072 1.342 . S
C3068 C3069 1.310 . S
C3068 C3071 1.461 . S
C3068 H3088 0.932 . S
C3069 C3067 1.408 . S
C3069 C3068 1.310 . S
C3069 H3089 0.930 . S
C3070 C3071 1.474 . S
C3070 C3072 1.285 . S
C3070 H3090 0.929 . S
C3071 C3068 1.461 . S
C3071 C3070 1.474 . S
C3072 C3067 1.342 . S
C3072 C3070 1.285 . S
C3072 H3091 0.930 . S
C3073 C3076 1.424 . S
C3073 C3078 1.245 . S
C3073 C3079 1.428 . S
C3074 C3077 1.260 . S
C3074 C3078 1.477 . S
C3074 H3092 0.932 . S
C3075 C3076 1.384 . S
C3075 C3077 1.479 . S
C3075 H3093 0.929 . S
C3076 C3073 1.424 . S
C3076 C3075 1.384 . S
C3076 H3094 0.928 . S
C3077 C3074 1.260 . S
C3077 C3075 1.479 . S
C3078 C3073 1.245 . S
C3078 C3074 1.477 . S
C3078 H3095 0.932 . S
C3079 U3062 2.882 . S
C3079 C3073 1.428 . S
C3079 O3082 1.301 . S
C3079 O3083 1.282 . S
O3080 U3062 2.441 . S
O3080 C3066 1.249 . S
O3081 U3062 2.420 . S
O3081 C3066 1.202 . S
O3082 U3062 2.455 . S
O3082 C3079 1.301 . S
O3083 U3062 2.449 . S
O3083 C3079 1.282 . S
H3084 C3057 0.931 . S
H3085 C3059 0.929 . S
H3086 C3060 0.930 . S
H3087 C3061 0.931 . S
H3088 C3068 0.932 . S
H3089 C3069 0.930 . S
H3090 C3070 0.929 . S
H3091 C3072 0.930 . S
H3092 C3074 0.932 . S
H3093 C3075 0.929 . S
H3094 C3076 0.928 . S
H3095 C3078 0.932 . S
C3096 C3097 1.264 . S
C3096 C3101 1.479 . S
C3096 C3106 1.465 . S
C3097 C3096 1.264 . S
C3097 C3099 1.339 . S
C3097 H3124 0.931 . S
C3098 C3099 1.395 . S
C3098 C3100 1.320 . S
C3099 C3097 1.339 . S
C3099 C3098 1.395 . S
C3099 H3125 0.929 . S
C3100 C3098 1.320 . S
C3100 C3101 1.405 . S
C3100 H3126 0.930 . S
C3101 C3096 1.479 . S
C3101 C3100 1.405 . S
C3101 H3127 0.931 . S
U3102 O3103 2.454 . S
U3102 O3104 2.458 . S
U3102 C3105 2.984 . S
U3102 C3106 2.847 . S
U3102 C3119 2.882 . S
U3102 O3120 2.441 . S
U3102 O3121 2.420 . S
U3102 O3122 2.455 . S
U3102 O3123 2.449 . S
O3103 U3102 2.454 . S
O3103 C3105 1.353 . S
O3104 U3102 2.458 . S
O3104 C3105 1.286 . S
C3105 U3102 2.984 . S
C3105 O3103 1.353 . S
C3105 O3104 1.286 . S
C3105 C3107 1.363 . S
C3106 C3096 1.465 . S
C3106 U3102 2.847 . S
C3106 O3120 1.249 . S
C3106 O3121 1.202 . S
C3107 C3105 1.363 . S
C3107 C3109 1.408 . S
C3107 C3112 1.342 . S
C3108 C3109 1.310 . S
C3108 C3111 1.461 . S
C3108 H3128 0.932 . S
C3109 C3107 1.408 . S
C3109 C3108 1.310 . S
C3109 H3129 0.930 . S
C3110 C3111 1.474 . S
C3110 C3112 1.285 . S
C3110 H3130 0.929 . S
C3111 C3108 1.461 . S
C3111 C3110 1.474 . S
C3112 C3107 1.342 . S
C3112 C3110 1.285 . S
C3112 H3131 0.930 . S
C3113 C3116 1.424 . S
C3113 C3118 1.245 . S
C3113 C3119 1.428 . S
C3114 C3117 1.260 . S
C3114 C3118 1.477 . S
C3114 H3132 0.932 . S
C3115 C3116 1.384 . S
C3115 C3117 1.479 . S
C3115 H3133 0.929 . S
C3116 C3113 1.424 . S
C3116 C3115 1.384 . S
C3116 H3134 0.928 . S
C3117 C3114 1.260 . S
C3117 C3115 1.479 . S
C3118 C3113 1.245 . S
C3118 C3114 1.477 . S
C3118 H3135 0.932 . S
C3119 U3102 2.882 . S
C3119 C3113 1.428 . S
C3119 O3122 1.301 . S
C3119 O3123 1.282 . S
O3120 U3102 2.441 . S
O3120 C3106 1.249 . S
O3121 U3102 2.420 . S
O3121 C3106 1.202 . S
O3122 U3102 2.455 . S
O3122 C3119 1.301 . S
O3123 U3102 2.449 . S
O3123 C3119 1.282 . S
H3124 C3097 0.931 . S
H3125 C3099 0.929 . S
H3126 C3100 0.930 . S
H3127 C3101 0.931 . S
H3128 C3108 0.932 . S
H3129 C3109 0.930 . S
H3130 C3110 0.929 . S
H3131 C3112 0.930 . S
H3132 C3114 0.932 . S
H3133 C3115 0.929 . S
H3134 C3116 0.928 . S
H3135 C3118 0.932 . S
C3136 C3137 1.264 . S
C3136 C3141 1.479 . S
C3136 C3146 1.465 . S
C3137 C3136 1.264 . S
C3137 C3139 1.339 . S
C3137 H3164 0.931 . S
C3138 C3139 1.395 . S
C3138 C3140 1.320 . S
C3139 C3137 1.339 . S
C3139 C3138 1.395 . S
C3139 H3165 0.929 . S
C3140 C3138 1.320 . S
C3140 C3141 1.405 . S
C3140 H3166 0.930 . S
C3141 C3136 1.479 . S
C3141 C3140 1.405 . S
C3141 H3167 0.931 . S
U3142 O3143 2.454 . S
U3142 O3144 2.458 . S
U3142 C3145 2.984 . S
U3142 C3146 2.847 . S
U3142 C3159 2.882 . S
U3142 O3160 2.441 . S
U3142 O3161 2.420 . S
U3142 O3162 2.455 . S
U3142 O3163 2.449 . S
O3143 U3142 2.454 . S
O3143 C3145 1.353 . S
O3144 U3142 2.458 . S
O3144 C3145 1.286 . S
C3145 U3142 2.984 . S
C3145 O3143 1.353 . S
C3145 O3144 1.286 . S
C3145 C3147 1.363 . S
C3146 C3136 1.465 . S
C3146 U3142 2.847 . S
C3146 O3160 1.249 . S
C3146 O3161 1.202 . S
C3147 C3145 1.363 . S
C3147 C3149 1.408 . S
C3147 C3152 1.342 . S
C3148 C3149 1.310 . S
C3148 C3151 1.461 . S
C3148 H3168 0.932 . S
C3149 C3147 1.408 . S
C3149 C3148 1.310 . S
C3149 H3169 0.930 . S
C3150 C3151 1.474 . S
C3150 C3152 1.285 . S
C3150 H3170 0.929 . S
C3151 C3148 1.461 . S
C3151 C3150 1.474 . S
C3152 C3147 1.342 . S
C3152 C3150 1.285 . S
C3152 H3171 0.930 . S
C3153 C3156 1.424 . S
C3153 C3158 1.245 . S
C3153 C3159 1.428 . S
C3154 C3157 1.260 . S
C3154 C3158 1.477 . S
C3154 H3172 0.932 . S
C3155 C3156 1.384 . S
C3155 C3157 1.479 . S
C3155 H3173 0.929 . S
C3156 C3153 1.424 . S
C3156 C3155 1.384 . S
C3156 H3174 0.928 . S
C3157 C3154 1.260 . S
C3157 C3155 1.479 . S
C3158 C3153 1.245 . S
C3158 C3154 1.477 . S
C3158 H3175 0.932 . S
C3159 U3142 2.882 . S
C3159 C3153 1.428 . S
C3159 O3162 1.301 . S
C3159 O3163 1.282 . S
O3160 U3142 2.441 . S
O3160 C3146 1.249 . S
O3161 U3142 2.420 . S
O3161 C3146 1.202 . S
O3162 U3142 2.455 . S
O3162 C3159 1.301 . S
O3163 U3142 2.449 . S
O3163 C3159 1.282 . S
H3164 C3137 0.931 . S
H3165 C3139 0.929 . S
H3166 C3140 0.930 . S
H3167 C3141 0.931 . S
H3168 C3148 0.932 . S
H3169 C3149 0.930 . S
H3170 C3150 0.929 . S
H3171 C3152 0.930 . S
H3172 C3154 0.932 . S
H3173 C3155 0.929 . S
H3174 C3156 0.928 . S
H3175 C3158 0.932 . S
C3176 C3177 1.264 . S
C3176 C3181 1.479 . S
C3176 C3186 1.465 . S
C3177 C3176 1.264 . S
C3177 C3179 1.339 . S
C3177 H3204 0.931 . S
C3178 C3179 1.395 . S
C3178 C3180 1.320 . S
C3179 C3177 1.339 . S
C3179 C3178 1.395 . S
C3179 H3205 0.929 . S
C3180 C3178 1.320 . S
C3180 C3181 1.405 . S
C3180 H3206 0.930 . S
C3181 C3176 1.479 . S
C3181 C3180 1.405 . S
C3181 H3207 0.931 . S
U3182 O3183 2.454 . S
U3182 O3184 2.458 . S
U3182 C3185 2.984 . S
U3182 C3186 2.847 . S
U3182 C3199 2.882 . S
U3182 O3200 2.441 . S
U3182 O3201 2.420 . S
U3182 O3202 2.455 . S
U3182 O3203 2.449 . S
O3183 U3182 2.454 . S
O3183 C3185 1.353 . S
O3184 U3182 2.458 . S
O3184 C3185 1.286 . S
C3185 U3182 2.984 . S
C3185 O3183 1.353 . S
C3185 O3184 1.286 . S
C3185 C3187 1.363 . S
C3186 C3176 1.465 . S
C3186 U3182 2.847 . S
C3186 O3200 1.249 . S
C3186 O3201 1.202 . S
C3187 C3185 1.363 . S
C3187 C3189 1.408 . S
C3187 C3192 1.342 . S
C3188 C3189 1.310 . S
C3188 C3191 1.461 . S
C3188 H3208 0.932 . S
C3189 C3187 1.408 . S
C3189 C3188 1.310 . S
C3189 H3209 0.930 . S
C3190 C3191 1.474 . S
C3190 C3192 1.285 . S
C3190 H3210 0.929 . S
C3191 C3188 1.461 . S
C3191 C3190 1.474 . S
C3192 C3187 1.342 . S
C3192 C3190 1.285 . S
C3192 H3211 0.930 . S
C3193 C3196 1.424 . S
C3193 C3198 1.245 . S
C3193 C3199 1.428 . S
C3194 C3197 1.260 . S
C3194 C3198 1.477 . S
C3194 H3212 0.932 . S
C3195 C3196 1.384 . S
C3195 C3197 1.479 . S
C3195 H3213 0.929 . S
C3196 C3193 1.424 . S
C3196 C3195 1.384 . S
C3196 H3214 0.928 . S
C3197 C3194 1.260 . S
C3197 C3195 1.479 . S
C3198 C3193 1.245 . S
C3198 C3194 1.477 . S
C3198 H3215 0.932 . S
C3199 U3182 2.882 . S
C3199 C3193 1.428 . S
C3199 O3202 1.301 . S
C3199 O3203 1.282 . S
O3200 U3182 2.441 . S
O3200 C3186 1.249 . S
O3201 U3182 2.420 . S
O3201 C3186 1.202 . S
O3202 U3182 2.455 . S
O3202 C3199 1.301 . S
O3203 U3182 2.449 . S
O3203 C3199 1.282 . S
H3204 C3177 0.931 . S
H3205 C3179 0.929 . S
H3206 C3180 0.930 . S
H3207 C3181 0.931 . S
H3208 C3188 0.932 . S
H3209 C3189 0.930 . S
H3210 C3190 0.929 . S
H3211 C3192 0.930 . S
H3212 C3194 0.932 . S
H3213 C3195 0.929 . S
H3214 C3196 0.928 . S
H3215 C3198 0.932 . S
C3216 C3217 1.264 . S
C3216 C3221 1.479 . S
C3216 C3226 1.465 . S
C3217 C3216 1.264 . S
C3217 C3219 1.339 . S
C3217 H3244 0.931 . S
C3218 C3219 1.395 . S
C3218 C3220 1.320 . S
C3219 C3217 1.339 . S
C3219 C3218 1.395 . S
C3219 H3245 0.929 . S
C3220 C3218 1.320 . S
C3220 C3221 1.405 . S
C3220 H3246 0.930 . S
C3221 C3216 1.479 . S
C3221 C3220 1.405 . S
C3221 H3247 0.931 . S
U3222 O3223 2.454 . S
U3222 O3224 2.458 . S
U3222 C3225 2.984 . S
U3222 C3226 2.847 . S
U3222 C3239 2.882 . S
U3222 O3240 2.441 . S
U3222 O3241 2.420 . S
U3222 O3242 2.455 . S
U3222 O3243 2.449 . S
O3223 U3222 2.454 . S
O3223 C3225 1.353 . S
O3224 U3222 2.458 . S
O3224 C3225 1.286 . S
C3225 U3222 2.984 . S
C3225 O3223 1.353 . S
C3225 O3224 1.286 . S
C3225 C3227 1.363 . S
C3226 C3216 1.465 . S
C3226 U3222 2.847 . S
C3226 O3240 1.249 . S
C3226 O3241 1.202 . S
C3227 C3225 1.363 . S
C3227 C3229 1.408 . S
C3227 C3232 1.342 . S
C3228 C3229 1.310 . S
C3228 C3231 1.461 . S
C3228 H3248 0.932 . S
C3229 C3227 1.408 . S
C3229 C3228 1.310 . S
C3229 H3249 0.930 . S
C3230 C3231 1.474 . S
C3230 C3232 1.285 . S
C3230 H3250 0.929 . S
C3231 C3228 1.461 . S
C3231 C3230 1.474 . S
C3232 C3227 1.342 . S
C3232 C3230 1.285 . S
C3232 H3251 0.930 . S
C3233 C3236 1.424 . S
C3233 C3238 1.245 . S
C3233 C3239 1.428 . S
C3234 C3237 1.260 . S
C3234 C3238 1.477 . S
C3234 H3252 0.932 . S
C3235 C3236 1.384 . S
C3235 C3237 1.479 . S
C3235 H3253 0.929 . S
C3236 C3233 1.424 . S
C3236 C3235 1.384 . S
C3236 H3254 0.928 . S
C3237 C3234 1.260 . S
C3237 C3235 1.479 . S
C3238 C3233 1.245 . S
C3238 C3234 1.477 . S
C3238 H3255 0.932 . S
C3239 U3222 2.882 . S
C3239 C3233 1.428 . S
C3239 O3242 1.301 . S
C3239 O3243 1.282 . S
O3240 U3222 2.441 . S
O3240 C3226 1.249 . S
O3241 U3222 2.420 . S
O3241 C3226 1.202 . S
O3242 U3222 2.455 . S
O3242 C3239 1.301 . S
O3243 U3222 2.449 . S
O3243 C3239 1.282 . S
H3244 C3217 0.931 . S
H3245 C3219 0.929 . S
H3246 C3220 0.930 . S
H3247 C3221 0.931 . S
H3248 C3228 0.932 . S
H3249 C3229 0.930 . S
H3250 C3230 0.929 . S
H3251 C3232 0.930 . S
H3252 C3234 0.932 . S
H3253 C3235 0.929 . S
H3254 C3236 0.928 . S
H3255 C3238 0.932 . S
C3256 C3257 1.264 . S
C3256 C3261 1.479 . S
C3256 C3266 1.465 . S
C3257 C3256 1.264 . S
C3257 C3259 1.339 . S
C3257 H3284 0.931 . S
C3258 C3259 1.395 . S
C3258 C3260 1.320 . S
C3259 C3257 1.339 . S
C3259 C3258 1.395 . S
C3259 H3285 0.929 . S
C3260 C3258 1.320 . S
C3260 C3261 1.405 . S
C3260 H3286 0.930 . S
C3261 C3256 1.479 . S
C3261 C3260 1.405 . S
C3261 H3287 0.931 . S
U3262 O3263 2.454 . S
U3262 O3264 2.458 . S
U3262 C3265 2.984 . S
U3262 C3266 2.847 . S
U3262 C3279 2.882 . S
U3262 O3280 2.441 . S
U3262 O3281 2.420 . S
U3262 O3282 2.455 . S
U3262 O3283 2.449 . S
O3263 U3262 2.454 . S
O3263 C3265 1.353 . S
O3264 U3262 2.458 . S
O3264 C3265 1.286 . S
C3265 U3262 2.984 . S
C3265 O3263 1.353 . S
C3265 O3264 1.286 . S
C3265 C3267 1.363 . S
C3266 C3256 1.465 . S
C3266 U3262 2.847 . S
C3266 O3280 1.249 . S
C3266 O3281 1.202 . S
C3267 C3265 1.363 . S
C3267 C3269 1.408 . S
C3267 C3272 1.342 . S
C3268 C3269 1.310 . S
C3268 C3271 1.461 . S
C3268 H3288 0.932 . S
C3269 C3267 1.408 . S
C3269 C3268 1.310 . S
C3269 H3289 0.930 . S
C3270 C3271 1.474 . S
C3270 C3272 1.285 . S
C3270 H3290 0.929 . S
C3271 C3268 1.461 . S
C3271 C3270 1.474 . S
C3272 C3267 1.342 . S
C3272 C3270 1.285 . S
C3272 H3291 0.930 . S
C3273 C3276 1.424 . S
C3273 C3278 1.245 . S
C3273 C3279 1.428 . S
C3274 C3277 1.260 . S
C3274 C3278 1.477 . S
C3274 H3292 0.932 . S
C3275 C3276 1.384 . S
C3275 C3277 1.479 . S
C3275 H3293 0.929 . S
C3276 C3273 1.424 . S
C3276 C3275 1.384 . S
C3276 H3294 0.928 . S
C3277 C3274 1.260 . S
C3277 C3275 1.479 . S
C3278 C3273 1.245 . S
C3278 C3274 1.477 . S
C3278 H3295 0.932 . S
C3279 U3262 2.882 . S
C3279 C3273 1.428 . S
C3279 O3282 1.301 . S
C3279 O3283 1.282 . S
O3280 U3262 2.441 . S
O3280 C3266 1.249 . S
O3281 U3262 2.420 . S
O3281 C3266 1.202 . S
O3282 U3262 2.455 . S
O3282 C3279 1.301 . S
O3283 U3262 2.449 . S
O3283 C3279 1.282 . S
H3284 C3257 0.931 . S
H3285 C3259 0.929 . S
H3286 C3260 0.930 . S
H3287 C3261 0.931 . S
H3288 C3268 0.932 . S
H3289 C3269 0.930 . S
H3290 C3270 0.929 . S
H3291 C3272 0.930 . S
H3292 C3274 0.932 . S
H3293 C3275 0.929 . S
H3294 C3276 0.928 . S
H3295 C3278 0.932 . S
C3296 C3297 1.264 . S
C3296 C3301 1.479 . S
C3296 C3306 1.465 . S
C3297 C3296 1.264 . S
C3297 C3299 1.339 . S
C3297 H3324 0.931 . S
C3298 C3299 1.395 . S
C3298 C3300 1.320 . S
C3299 C3297 1.339 . S
C3299 C3298 1.395 . S
C3299 H3325 0.929 . S
C3300 C3298 1.320 . S
C3300 C3301 1.405 . S
C3300 H3326 0.930 . S
C3301 C3296 1.479 . S
C3301 C3300 1.405 . S
C3301 H3327 0.931 . S
U3302 O3303 2.454 . S
U3302 O3304 2.458 . S
U3302 C3305 2.984 . S
U3302 C3306 2.847 . S
U3302 C3319 2.882 . S
U3302 O3320 2.441 . S
U3302 O3321 2.420 . S
U3302 O3322 2.455 . S
U3302 O3323 2.449 . S
O3303 U3302 2.454 . S
O3303 C3305 1.353 . S
O3304 U3302 2.458 . S
O3304 C3305 1.286 . S
C3305 U3302 2.984 . S
C3305 O3303 1.353 . S
C3305 O3304 1.286 . S
C3305 C3307 1.363 . S
C3306 C3296 1.465 . S
C3306 U3302 2.847 . S
C3306 O3320 1.249 . S
C3306 O3321 1.202 . S
C3307 C3305 1.363 . S
C3307 C3309 1.408 . S
C3307 C3312 1.342 . S
C3308 C3309 1.310 . S
C3308 C3311 1.461 . S
C3308 H3328 0.932 . S
C3309 C3307 1.408 . S
C3309 C3308 1.310 . S
C3309 H3329 0.930 . S
C3310 C3311 1.474 . S
C3310 C3312 1.285 . S
C3310 H3330 0.929 . S
C3311 C3308 1.461 . S
C3311 C3310 1.474 . S
C3312 C3307 1.342 . S
C3312 C3310 1.285 . S
C3312 H3331 0.930 . S
C3313 C3316 1.424 . S
C3313 C3318 1.245 . S
C3313 C3319 1.428 . S
C3314 C3317 1.260 . S
C3314 C3318 1.477 . S
C3314 H3332 0.932 . S
C3315 C3316 1.384 . S
C3315 C3317 1.479 . S
C3315 H3333 0.929 . S
C3316 C3313 1.424 . S
C3316 C3315 1.384 . S
C3316 H3334 0.928 . S
C3317 C3314 1.260 . S
C3317 C3315 1.479 . S
C3318 C3313 1.245 . S
C3318 C3314 1.477 . S
C3318 H3335 0.932 . S
C3319 U3302 2.882 . S
C3319 C3313 1.428 . S
C3319 O3322 1.301 . S
C3319 O3323 1.282 . S
O3320 U3302 2.441 . S
O3320 C3306 1.249 . S
O3321 U3302 2.420 . S
O3321 C3306 1.202 . S
O3322 U3302 2.455 . S
O3322 C3319 1.301 . S
O3323 U3302 2.449 . S
O3323 C3319 1.282 . S
H3324 C3297 0.931 . S
H3325 C3299 0.929 . S
H3326 C3300 0.930 . S
H3327 C3301 0.931 . S
H3328 C3308 0.932 . S
H3329 C3309 0.930 . S
H3330 C3310 0.929 . S
H3331 C3312 0.930 . S
H3332 C3314 0.932 . S
H3333 C3315 0.929 . S
H3334 C3316 0.928 . S
H3335 C3318 0.932 . S
C3336 C3337 1.264 . S
C3336 C3341 1.479 . S
C3336 C3346 1.465 . S
C3337 C3336 1.264 . S
C3337 C3339 1.339 . S
C3337 H3364 0.931 . S
C3338 C3339 1.395 . S
C3338 C3340 1.320 . S
C3339 C3337 1.339 . S
C3339 C3338 1.395 . S
C3339 H3365 0.929 . S
C3340 C3338 1.320 . S
C3340 C3341 1.405 . S
C3340 H3366 0.930 . S
C3341 C3336 1.479 . S
C3341 C3340 1.405 . S
C3341 H3367 0.931 . S
U3342 O3343 2.454 . S
U3342 O3344 2.458 . S
U3342 C3345 2.984 . S
U3342 C3346 2.847 . S
U3342 C3359 2.882 . S
U3342 O3360 2.441 . S
U3342 O3361 2.420 . S
U3342 O3362 2.455 . S
U3342 O3363 2.449 . S
O3343 U3342 2.454 . S
O3343 C3345 1.353 . S
O3344 U3342 2.458 . S
O3344 C3345 1.286 . S
C3345 U3342 2.984 . S
C3345 O3343 1.353 . S
C3345 O3344 1.286 . S
C3345 C3347 1.363 . S
C3346 C3336 1.465 . S
C3346 U3342 2.847 . S
C3346 O3360 1.249 . S
C3346 O3361 1.202 . S
C3347 C3345 1.363 . S
C3347 C3349 1.408 . S
C3347 C3352 1.342 . S
C3348 C3349 1.310 . S
C3348 C3351 1.461 . S
C3348 H3368 0.932 . S
C3349 C3347 1.408 . S
C3349 C3348 1.310 . S
C3349 H3369 0.930 . S
C3350 C3351 1.474 . S
C3350 C3352 1.285 . S
C3350 H3370 0.929 . S
C3351 C3348 1.461 . S
C3351 C3350 1.474 . S
C3352 C3347 1.342 . S
C3352 C3350 1.285 . S
C3352 H3371 0.930 . S
C3353 C3356 1.424 . S
C3353 C3358 1.245 . S
C3353 C3359 1.428 . S
C3354 C3357 1.260 . S
C3354 C3358 1.477 . S
C3354 H3372 0.932 . S
C3355 C3356 1.384 . S
C3355 C3357 1.479 . S
C3355 H3373 0.929 . S
C3356 C3353 1.424 . S
C3356 C3355 1.384 . S
C3356 H3374 0.928 . S
C3357 C3354 1.260 . S
C3357 C3355 1.479 . S
C3358 C3353 1.245 . S
C3358 C3354 1.477 . S
C3358 H3375 0.932 . S
C3359 U3342 2.882 . S
C3359 C3353 1.428 . S
C3359 O3362 1.301 . S
C3359 O3363 1.282 . S
O3360 U3342 2.441 . S
O3360 C3346 1.249 . S
O3361 U3342 2.420 . S
O3361 C3346 1.202 . S
O3362 U3342 2.455 . S
O3362 C3359 1.301 . S
O3363 U3342 2.449 . S
O3363 C3359 1.282 . S
H3364 C3337 0.931 . S
H3365 C3339 0.929 . S
H3366 C3340 0.930 . S
H3367 C3341 0.931 . S
H3368 C3348 0.932 . S
H3369 C3349 0.930 . S
H3370 C3350 0.929 . S
H3371 C3352 0.930 . S
H3372 C3354 0.932 . S
H3373 C3355 0.929 . S
H3374 C3356 0.928 . S
H3375 C3358 0.932 . S
C3376 C3377 1.264 . S
C3376 C3381 1.479 . S
C3376 C3386 1.465 . S
C3377 C3376 1.264 . S
C3377 C3379 1.339 . S
C3377 H3404 0.931 . S
C3378 C3379 1.395 . S
C3378 C3380 1.320 . S
C3379 C3377 1.339 . S
C3379 C3378 1.395 . S
C3379 H3405 0.929 . S
C3380 C3378 1.320 . S
C3380 C3381 1.405 . S
C3380 H3406 0.930 . S
C3381 C3376 1.479 . S
C3381 C3380 1.405 . S
C3381 H3407 0.931 . S
U3382 O3383 2.454 . S
U3382 O3384 2.458 . S
U3382 C3385 2.984 . S
U3382 C3386 2.847 . S
U3382 C3399 2.882 . S
U3382 O3400 2.441 . S
U3382 O3401 2.420 . S
U3382 O3402 2.455 . S
U3382 O3403 2.449 . S
O3383 U3382 2.454 . S
O3383 C3385 1.353 . S
O3384 U3382 2.458 . S
O3384 C3385 1.286 . S
C3385 U3382 2.984 . S
C3385 O3383 1.353 . S
C3385 O3384 1.286 . S
C3385 C3387 1.363 . S
C3386 C3376 1.465 . S
C3386 U3382 2.847 . S
C3386 O3400 1.249 . S
C3386 O3401 1.202 . S
C3387 C3385 1.363 . S
C3387 C3389 1.408 . S
C3387 C3392 1.342 . S
C3388 C3389 1.310 . S
C3388 C3391 1.461 . S
C3388 H3408 0.932 . S
C3389 C3387 1.408 . S
C3389 C3388 1.310 . S
C3389 H3409 0.930 . S
C3390 C3391 1.474 . S
C3390 C3392 1.285 . S
C3390 H3410 0.929 . S
C3391 C3388 1.461 . S
C3391 C3390 1.474 . S
C3392 C3387 1.342 . S
C3392 C3390 1.285 . S
C3392 H3411 0.930 . S
C3393 C3396 1.424 . S
C3393 C3398 1.245 . S
C3393 C3399 1.428 . S
C3394 C3397 1.260 . S
C3394 C3398 1.477 . S
C3394 H3412 0.932 . S
C3395 C3396 1.384 . S
C3395 C3397 1.479 . S
C3395 H3413 0.929 . S
C3396 C3393 1.424 . S
C3396 C3395 1.384 . S
C3396 H3414 0.928 . S
C3397 C3394 1.260 . S
C3397 C3395 1.479 . S
C3398 C3393 1.245 . S
C3398 C3394 1.477 . S
C3398 H3415 0.932 . S
C3399 U3382 2.882 . S
C3399 C3393 1.428 . S
C3399 O3402 1.301 . S
C3399 O3403 1.282 . S
O3400 U3382 2.441 . S
O3400 C3386 1.249 . S
O3401 U3382 2.420 . S
O3401 C3386 1.202 . S
O3402 U3382 2.455 . S
O3402 C3399 1.301 . S
O3403 U3382 2.449 . S
O3403 C3399 1.282 . S
H3404 C3377 0.931 . S
H3405 C3379 0.929 . S
H3406 C3380 0.930 . S
H3407 C3381 0.931 . S
H3408 C3388 0.932 . S
H3409 C3389 0.930 . S
H3410 C3390 0.929 . S
H3411 C3392 0.930 . S
H3412 C3394 0.932 . S
H3413 C3395 0.929 . S
H3414 C3396 0.928 . S
H3415 C3398 0.932 . S
C3416 C3417 1.264 . S
C3416 C3421 1.479 . S
C3416 C3426 1.465 . S
C3417 C3416 1.264 . S
C3417 C3419 1.339 . S
C3417 H3444 0.931 . S
C3418 C3419 1.395 . S
C3418 C3420 1.320 . S
C3419 C3417 1.339 . S
C3419 C3418 1.395 . S
C3419 H3445 0.929 . S
C3420 C3418 1.320 . S
C3420 C3421 1.405 . S
C3420 H3446 0.930 . S
C3421 C3416 1.479 . S
C3421 C3420 1.405 . S
C3421 H3447 0.931 . S
U3422 O3423 2.454 . S
U3422 O3424 2.458 . S
U3422 C3425 2.984 . S
U3422 C3426 2.847 . S
U3422 C3439 2.882 . S
U3422 O3440 2.441 . S
U3422 O3441 2.420 . S
U3422 O3442 2.455 . S
U3422 O3443 2.449 . S
O3423 U3422 2.454 . S
O3423 C3425 1.353 . S
O3424 U3422 2.458 . S
O3424 C3425 1.286 . S
C3425 U3422 2.984 . S
C3425 O3423 1.353 . S
C3425 O3424 1.286 . S
C3425 C3427 1.363 . S
C3426 C3416 1.465 . S
C3426 U3422 2.847 . S
C3426 O3440 1.249 . S
C3426 O3441 1.202 . S
C3427 C3425 1.363 . S
C3427 C3429 1.408 . S
C3427 C3432 1.342 . S
C3428 C3429 1.310 . S
C3428 C3431 1.461 . S
C3428 H3448 0.932 . S
C3429 C3427 1.408 . S
C3429 C3428 1.310 . S
C3429 H3449 0.930 . S
C3430 C3431 1.474 . S
C3430 C3432 1.285 . S
C3430 H3450 0.929 . S
C3431 C3428 1.461 . S
C3431 C3430 1.474 . S
C3432 C3427 1.342 . S
C3432 C3430 1.285 . S
C3432 H3451 0.930 . S
C3433 C3436 1.424 . S
C3433 C3438 1.245 . S
C3433 C3439 1.428 . S
C3434 C3437 1.260 . S
C3434 C3438 1.477 . S
C3434 H3452 0.932 . S
C3435 C3436 1.384 . S
C3435 C3437 1.479 . S
C3435 H3453 0.929 . S
C3436 C3433 1.424 . S
C3436 C3435 1.384 . S
C3436 H3454 0.928 . S
C3437 C3434 1.260 . S
C3437 C3435 1.479 . S
C3438 C3433 1.245 . S
C3438 C3434 1.477 . S
C3438 H3455 0.932 . S
C3439 U3422 2.882 . S
C3439 C3433 1.428 . S
C3439 O3442 1.301 . S
C3439 O3443 1.282 . S
O3440 U3422 2.441 . S
O3440 C3426 1.249 . S
O3441 U3422 2.420 . S
O3441 C3426 1.202 . S
O3442 U3422 2.455 . S
O3442 C3439 1.301 . S
O3443 U3422 2.449 . S
O3443 C3439 1.282 . S
H3444 C3417 0.931 . S
H3445 C3419 0.929 . S
H3446 C3420 0.930 . S
H3447 C3421 0.931 . S
H3448 C3428 0.932 . S
H3449 C3429 0.930 . S
H3450 C3430 0.929 . S
H3451 C3432 0.930 . S
H3452 C3434 0.932 . S
H3453 C3435 0.929 . S
H3454 C3436 0.928 . S
H3455 C3438 0.932 . S
C3456 C3457 1.264 . S
C3456 C3461 1.479 . S
C3456 C3466 1.465 . S
C3457 C3456 1.264 . S
C3457 C3459 1.339 . S
C3457 H3484 0.931 . S
C3458 C3459 1.395 . S
C3458 C3460 1.320 . S
C3459 C3457 1.339 . S
C3459 C3458 1.395 . S
C3459 H3485 0.929 . S
C3460 C3458 1.320 . S
C3460 C3461 1.405 . S
C3460 H3486 0.930 . S
C3461 C3456 1.479 . S
C3461 C3460 1.405 . S
C3461 H3487 0.931 . S
U3462 O3463 2.454 . S
U3462 O3464 2.458 . S
U3462 C3465 2.984 . S
U3462 C3466 2.847 . S
U3462 C3479 2.882 . S
U3462 O3480 2.441 . S
U3462 O3481 2.420 . S
U3462 O3482 2.455 . S
U3462 O3483 2.449 . S
O3463 U3462 2.454 . S
O3463 C3465 1.353 . S
O3464 U3462 2.458 . S
O3464 C3465 1.286 . S
C3465 U3462 2.984 . S
C3465 O3463 1.353 . S
C3465 O3464 1.286 . S
C3465 C3467 1.363 . S
C3466 C3456 1.465 . S
C3466 U3462 2.847 . S
C3466 O3480 1.249 . S
C3466 O3481 1.202 . S
C3467 C3465 1.363 . S
C3467 C3469 1.408 . S
C3467 C3472 1.342 . S
C3468 C3469 1.310 . S
C3468 C3471 1.461 . S
C3468 H3488 0.932 . S
C3469 C3467 1.408 . S
C3469 C3468 1.310 . S
C3469 H3489 0.930 . S
C3470 C3471 1.474 . S
C3470 C3472 1.285 . S
C3470 H3490 0.929 . S
C3471 C3468 1.461 . S
C3471 C3470 1.474 . S
C3472 C3467 1.342 . S
C3472 C3470 1.285 . S
C3472 H3491 0.930 . S
C3473 C3476 1.424 . S
C3473 C3478 1.245 . S
C3473 C3479 1.428 . S
C3474 C3477 1.260 . S
C3474 C3478 1.477 . S
C3474 H3492 0.932 . S
C3475 C3476 1.384 . S
C3475 C3477 1.479 . S
C3475 H3493 0.929 . S
C3476 C3473 1.424 . S
C3476 C3475 1.384 . S
C3476 H3494 0.928 . S
C3477 C3474 1.260 . S
C3477 C3475 1.479 . S
C3478 C3473 1.245 . S
C3478 C3474 1.477 . S
C3478 H3495 0.932 . S
C3479 U3462 2.882 . S
C3479 C3473 1.428 . S
C3479 O3482 1.301 . S
C3479 O3483 1.282 . S
O3480 U3462 2.441 . S
O3480 C3466 1.249 . S
O3481 U3462 2.420 . S
O3481 C3466 1.202 . S
O3482 U3462 2.455 . S
O3482 C3479 1.301 . S
O3483 U3462 2.449 . S
O3483 C3479 1.282 . S
H3484 C3457 0.931 . S
H3485 C3459 0.929 . S
H3486 C3460 0.930 . S
H3487 C3461 0.931 . S
H3488 C3468 0.932 . S
H3489 C3469 0.930 . S
H3490 C3470 0.929 . S
H3491 C3472 0.930 . S
H3492 C3474 0.932 . S
H3493 C3475 0.929 . S
H3494 C3476 0.928 . S
H3495 C3478 0.932 . S
C3496 C3497 1.264 . S
C3496 C3501 1.479 . S
C3496 C3506 1.465 . S
C3497 C3496 1.264 . S
C3497 C3499 1.339 . S
C3497 H3524 0.931 . S
C3498 C3499 1.395 . S
C3498 C3500 1.320 . S
C3499 C3497 1.339 . S
C3499 C3498 1.395 . S
C3499 H3525 0.929 . S
C3500 C3498 1.320 . S
C3500 C3501 1.405 . S
C3500 H3526 0.930 . S
C3501 C3496 1.479 . S
C3501 C3500 1.405 . S
C3501 H3527 0.931 . S
U3502 O3503 2.454 . S
U3502 O3504 2.458 . S
U3502 C3505 2.984 . S
U3502 C3506 2.847 . S
U3502 C3519 2.882 . S
U3502 O3520 2.441 . S
U3502 O3521 2.420 . S
U3502 O3522 2.455 . S
U3502 O3523 2.449 . S
O3503 U3502 2.454 . S
O3503 C3505 1.353 . S
O3504 U3502 2.458 . S
O3504 C3505 1.286 . S
C3505 U3502 2.984 . S
C3505 O3503 1.353 . S
C3505 O3504 1.286 . S
C3505 C3507 1.363 . S
C3506 C3496 1.465 . S
C3506 U3502 2.847 . S
C3506 O3520 1.249 . S
C3506 O3521 1.202 . S
C3507 C3505 1.363 . S
C3507 C3509 1.408 . S
C3507 C3512 1.342 . S
C3508 C3509 1.310 . S
C3508 C3511 1.461 . S
C3508 H3528 0.932 . S
C3509 C3507 1.408 . S
C3509 C3508 1.310 . S
C3509 H3529 0.930 . S
C3510 C3511 1.474 . S
C3510 C3512 1.285 . S
C3510 H3530 0.929 . S
C3511 C3508 1.461 . S
C3511 C3510 1.474 . S
C3512 C3507 1.342 . S
C3512 C3510 1.285 . S
C3512 H3531 0.930 . S
C3513 C3516 1.424 . S
C3513 C3518 1.245 . S
C3513 C3519 1.428 . S
C3514 C3517 1.260 . S
C3514 C3518 1.477 . S
C3514 H3532 0.932 . S
C3515 C3516 1.384 . S
C3515 C3517 1.479 . S
C3515 H3533 0.929 . S
C3516 C3513 1.424 . S
C3516 C3515 1.384 . S
C3516 H3534 0.928 . S
C3517 C3514 1.260 . S
C3517 C3515 1.479 . S
C3518 C3513 1.245 . S
C3518 C3514 1.477 . S
C3518 H3535 0.932 . S
C3519 U3502 2.882 . S
C3519 C3513 1.428 . S
C3519 O3522 1.301 . S
C3519 O3523 1.282 . S
O3520 U3502 2.441 . S
O3520 C3506 1.249 . S
O3521 U3502 2.420 . S
O3521 C3506 1.202 . S
O3522 U3502 2.455 . S
O3522 C3519 1.301 . S
O3523 U3502 2.449 . S
O3523 C3519 1.282 . S
H3524 C3497 0.931 . S
H3525 C3499 0.929 . S
H3526 C3500 0.930 . S
H3527 C3501 0.931 . S
H3528 C3508 0.932 . S
H3529 C3509 0.930 . S
H3530 C3510 0.929 . S
H3531 C3512 0.930 . S
H3532 C3514 0.932 . S
H3533 C3515 0.929 . S
H3534 C3516 0.928 . S
H3535 C3518 0.932 . S
C3536 C3537 1.264 . S
C3536 C3541 1.479 . S
C3536 C3546 1.465 . S
C3537 C3536 1.264 . S
C3537 C3539 1.339 . S
C3537 H3564 0.931 . S
C3538 C3539 1.395 . S
C3538 C3540 1.320 . S
C3539 C3537 1.339 . S
C3539 C3538 1.395 . S
C3539 H3565 0.929 . S
C3540 C3538 1.320 . S
C3540 C3541 1.405 . S
C3540 H3566 0.930 . S
C3541 C3536 1.479 . S
C3541 C3540 1.405 . S
C3541 H3567 0.931 . S
U3542 O3543 2.454 . S
U3542 O3544 2.458 . S
U3542 C3545 2.984 . S
U3542 C3546 2.847 . S
U3542 C3559 2.882 . S
U3542 O3560 2.441 . S
U3542 O3561 2.420 . S
U3542 O3562 2.455 . S
U3542 O3563 2.449 . S
O3543 U3542 2.454 . S
O3543 C3545 1.353 . S
O3544 U3542 2.458 . S
O3544 C3545 1.286 . S
C3545 U3542 2.984 . S
C3545 O3543 1.353 . S
C3545 O3544 1.286 . S
C3545 C3547 1.363 . S
C3546 C3536 1.465 . S
C3546 U3542 2.847 . S
C3546 O3560 1.249 . S
C3546 O3561 1.202 . S
C3547 C3545 1.363 . S
C3547 C3549 1.408 . S
C3547 C3552 1.342 . S
C3548 C3549 1.310 . S
C3548 C3551 1.461 . S
C3548 H3568 0.932 . S
C3549 C3547 1.408 . S
C3549 C3548 1.310 . S
C3549 H3569 0.930 . S
C3550 C3551 1.474 . S
C3550 C3552 1.285 . S
C3550 H3570 0.929 . S
C3551 C3548 1.461 . S
C3551 C3550 1.474 . S
C3552 C3547 1.342 . S
C3552 C3550 1.285 . S
C3552 H3571 0.930 . S
C3553 C3556 1.424 . S
C3553 C3558 1.245 . S
C3553 C3559 1.428 . S
C3554 C3557 1.260 . S
C3554 C3558 1.477 . S
C3554 H3572 0.932 . S
C3555 C3556 1.384 . S
C3555 C3557 1.479 . S
C3555 H3573 0.929 . S
C3556 C3553 1.424 . S
C3556 C3555 1.384 . S
C3556 H3574 0.928 . S
C3557 C3554 1.260 . S
C3557 C3555 1.479 . S
C3558 C3553 1.245 . S
C3558 C3554 1.477 . S
C3558 H3575 0.932 . S
C3559 U3542 2.882 . S
C3559 C3553 1.428 . S
C3559 O3562 1.301 . S
C3559 O3563 1.282 . S
O3560 U3542 2.441 . S
O3560 C3546 1.249 . S
O3561 U3542 2.420 . S
O3561 C3546 1.202 . S
O3562 U3542 2.455 . S
O3562 C3559 1.301 . S
O3563 U3542 2.449 . S
O3563 C3559 1.282 . S
H3564 C3537 0.931 . S
H3565 C3539 0.929 . S
H3566 C3540 0.930 . S
H3567 C3541 0.931 . S
H3568 C3548 0.932 . S
H3569 C3549 0.930 . S
H3570 C3550 0.929 . S
H3571 C3552 0.930 . S
H3572 C3554 0.932 . S
H3573 C3555 0.929 . S
H3574 C3556 0.928 . S
H3575 C3558 0.932 . S
C3576 C3577 1.264 . S
C3576 C3581 1.479 . S
C3576 C3586 1.465 . S
C3577 C3576 1.264 . S
C3577 C3579 1.339 . S
C3577 H3604 0.931 . S
C3578 C3579 1.395 . S
C3578 C3580 1.320 . S
C3579 C3577 1.339 . S
C3579 C3578 1.395 . S
C3579 H3605 0.929 . S
C3580 C3578 1.320 . S
C3580 C3581 1.405 . S
C3580 H3606 0.930 . S
C3581 C3576 1.479 . S
C3581 C3580 1.405 . S
C3581 H3607 0.931 . S
U3582 O3583 2.454 . S
U3582 O3584 2.458 . S
U3582 C3585 2.984 . S
U3582 C3586 2.847 . S
U3582 C3599 2.882 . S
U3582 O3600 2.441 . S
U3582 O3601 2.420 . S
U3582 O3602 2.455 . S
U3582 O3603 2.449 . S
O3583 U3582 2.454 . S
O3583 C3585 1.353 . S
O3584 U3582 2.458 . S
O3584 C3585 1.286 . S
C3585 U3582 2.984 . S
C3585 O3583 1.353 . S
C3585 O3584 1.286 . S
C3585 C3587 1.363 . S
C3586 C3576 1.465 . S
C3586 U3582 2.847 . S
C3586 O3600 1.249 . S
C3586 O3601 1.202 . S
C3587 C3585 1.363 . S
C3587 C3589 1.408 . S
C3587 C3592 1.342 . S
C3588 C3589 1.310 . S
C3588 C3591 1.461 . S
C3588 H3608 0.932 . S
C3589 C3587 1.408 . S
C3589 C3588 1.310 . S
C3589 H3609 0.930 . S
C3590 C3591 1.474 . S
C3590 C3592 1.285 . S
C3590 H3610 0.929 . S
C3591 C3588 1.461 . S
C3591 C3590 1.474 . S
C3592 C3587 1.342 . S
C3592 C3590 1.285 . S
C3592 H3611 0.930 . S
C3593 C3596 1.424 . S
C3593 C3598 1.245 . S
C3593 C3599 1.428 . S
C3594 C3597 1.260 . S
C3594 C3598 1.477 . S
C3594 H3612 0.932 . S
C3595 C3596 1.384 . S
C3595 C3597 1.479 . S
C3595 H3613 0.929 . S
C3596 C3593 1.424 . S
C3596 C3595 1.384 . S
C3596 H3614 0.928 . S
C3597 C3594 1.260 . S
C3597 C3595 1.479 . S
C3598 C3593 1.245 . S
C3598 C3594 1.477 . S
C3598 H3615 0.932 . S
C3599 U3582 2.882 . S
C3599 C3593 1.428 . S
C3599 O3602 1.301 . S
C3599 O3603 1.282 . S
O3600 U3582 2.441 . S
O3600 C3586 1.249 . S
O3601 U3582 2.420 . S
O3601 C3586 1.202 . S
O3602 U3582 2.455 . S
O3602 C3599 1.301 . S
O3603 U3582 2.449 . S
O3603 C3599 1.282 . S
H3604 C3577 0.931 . S
H3605 C3579 0.929 . S
H3606 C3580 0.930 . S
H3607 C3581 0.931 . S
H3608 C3588 0.932 . S
H3609 C3589 0.930 . S
H3610 C3590 0.929 . S
H3611 C3592 0.930 . S
H3612 C3594 0.932 . S
H3613 C3595 0.929 . S
H3614 C3596 0.928 . S
H3615 C3598 0.932 . S
C3616 C3617 1.264 . S
C3616 C3621 1.479 . S
C3616 C3626 1.465 . S
C3617 C3616 1.264 . S
C3617 C3619 1.339 . S
C3617 H3644 0.931 . S
C3618 C3619 1.395 . S
C3618 C3620 1.320 . S
C3619 C3617 1.339 . S
C3619 C3618 1.395 . S
C3619 H3645 0.929 . S
C3620 C3618 1.320 . S
C3620 C3621 1.405 . S
C3620 H3646 0.930 . S
C3621 C3616 1.479 . S
C3621 C3620 1.405 . S
C3621 H3647 0.931 . S
U3622 O3623 2.454 . S
U3622 O3624 2.458 . S
U3622 C3625 2.984 . S
U3622 C3626 2.847 . S
U3622 C3639 2.882 . S
U3622 O3640 2.441 . S
U3622 O3641 2.420 . S
U3622 O3642 2.455 . S
U3622 O3643 2.449 . S
O3623 U3622 2.454 . S
O3623 C3625 1.353 . S
O3624 U3622 2.458 . S
O3624 C3625 1.286 . S
C3625 U3622 2.984 . S
C3625 O3623 1.353 . S
C3625 O3624 1.286 . S
C3625 C3627 1.363 . S
C3626 C3616 1.465 . S
C3626 U3622 2.847 . S
C3626 O3640 1.249 . S
C3626 O3641 1.202 . S
C3627 C3625 1.363 . S
C3627 C3629 1.408 . S
C3627 C3632 1.342 . S
C3628 C3629 1.310 . S
C3628 C3631 1.461 . S
C3628 H3648 0.932 . S
C3629 C3627 1.408 . S
C3629 C3628 1.310 . S
C3629 H3649 0.930 . S
C3630 C3631 1.474 . S
C3630 C3632 1.285 . S
C3630 H3650 0.929 . S
C3631 C3628 1.461 . S
C3631 C3630 1.474 . S
C3632 C3627 1.342 . S
C3632 C3630 1.285 . S
C3632 H3651 0.930 . S
C3633 C3636 1.424 . S
C3633 C3638 1.245 . S
C3633 C3639 1.428 . S
C3634 C3637 1.260 . S
C3634 C3638 1.477 . S
C3634 H3652 0.932 . S
C3635 C3636 1.384 . S
C3635 C3637 1.479 . S
C3635 H3653 0.929 . S
C3636 C3633 1.424 . S
C3636 C3635 1.384 . S
C3636 H3654 0.928 . S
C3637 C3634 1.260 . S
C3637 C3635 1.479 . S
C3638 C3633 1.245 . S
C3638 C3634 1.477 . S
C3638 H3655 0.932 . S
C3639 U3622 2.882 . S
C3639 C3633 1.428 . S
C3639 O3642 1.301 . S
C3639 O3643 1.282 . S
O3640 U3622 2.441 . S
O3640 C3626 1.249 . S
O3641 U3622 2.420 . S
O3641 C3626 1.202 . S
O3642 U3622 2.455 . S
O3642 C3639 1.301 . S
O3643 U3622 2.449 . S
O3643 C3639 1.282 . S
H3644 C3617 0.931 . S
H3645 C3619 0.929 . S
H3646 C3620 0.930 . S
H3647 C3621 0.931 . S
H3648 C3628 0.932 . S
H3649 C3629 0.930 . S
H3650 C3630 0.929 . S
H3651 C3632 0.930 . S
H3652 C3634 0.932 . S
H3653 C3635 0.929 . S
H3654 C3636 0.928 . S
H3655 C3638 0.932 . S
C3656 C3657 1.264 . S
C3656 C3661 1.479 . S
C3656 C3666 1.465 . S
C3657 C3656 1.264 . S
C3657 C3659 1.339 . S
C3657 H3684 0.931 . S
C3658 C3659 1.395 . S
C3658 C3660 1.320 . S
C3659 C3657 1.339 . S
C3659 C3658 1.395 . S
C3659 H3685 0.929 . S
C3660 C3658 1.320 . S
C3660 C3661 1.405 . S
C3660 H3686 0.930 . S
C3661 C3656 1.479 . S
C3661 C3660 1.405 . S
C3661 H3687 0.931 . S
U3662 O3663 2.454 . S
U3662 O3664 2.458 . S
U3662 C3665 2.984 . S
U3662 C3666 2.847 . S
U3662 C3679 2.882 . S
U3662 O3680 2.441 . S
U3662 O3681 2.420 . S
U3662 O3682 2.455 . S
U3662 O3683 2.449 . S
O3663 U3662 2.454 . S
O3663 C3665 1.353 . S
O3664 U3662 2.458 . S
O3664 C3665 1.286 . S
C3665 U3662 2.984 . S
C3665 O3663 1.353 . S
C3665 O3664 1.286 . S
C3665 C3667 1.363 . S
C3666 C3656 1.465 . S
C3666 U3662 2.847 . S
C3666 O3680 1.249 . S
C3666 O3681 1.202 . S
C3667 C3665 1.363 . S
C3667 C3669 1.408 . S
C3667 C3672 1.342 . S
C3668 C3669 1.310 . S
C3668 C3671 1.461 . S
C3668 H3688 0.932 . S
C3669 C3667 1.408 . S
C3669 C3668 1.310 . S
C3669 H3689 0.930 . S
C3670 C3671 1.474 . S
C3670 C3672 1.285 . S
C3670 H3690 0.929 . S
C3671 C3668 1.461 . S
C3671 C3670 1.474 . S
C3672 C3667 1.342 . S
C3672 C3670 1.285 . S
C3672 H3691 0.930 . S
C3673 C3676 1.424 . S
C3673 C3678 1.245 . S
C3673 C3679 1.428 . S
C3674 C3677 1.260 . S
C3674 C3678 1.477 . S
C3674 H3692 0.932 . S
C3675 C3676 1.384 . S
C3675 C3677 1.479 . S
C3675 H3693 0.929 . S
C3676 C3673 1.424 . S
C3676 C3675 1.384 . S
C3676 H3694 0.928 . S
C3677 C3674 1.260 . S
C3677 C3675 1.479 . S
C3678 C3673 1.245 . S
C3678 C3674 1.477 . S
C3678 H3695 0.932 . S
C3679 U3662 2.882 . S
C3679 C3673 1.428 . S
C3679 O3682 1.301 . S
C3679 O3683 1.282 . S
O3680 U3662 2.441 . S
O3680 C3666 1.249 . S
O3681 U3662 2.420 . S
O3681 C3666 1.202 . S
O3682 U3662 2.455 . S
O3682 C3679 1.301 . S
O3683 U3662 2.449 . S
O3683 C3679 1.282 . S
H3684 C3657 0.931 . S
H3685 C3659 0.929 . S
H3686 C3660 0.930 . S
H3687 C3661 0.931 . S
H3688 C3668 0.932 . S
H3689 C3669 0.930 . S
H3690 C3670 0.929 . S
H3691 C3672 0.930 . S
H3692 C3674 0.932 . S
H3693 C3675 0.929 . S
H3694 C3676 0.928 . S
H3695 C3678 0.932 . S
C3696 C3697 1.264 . S
C3696 C3701 1.479 . S
C3696 C3706 1.465 . S
C3697 C3696 1.264 . S
C3697 C3699 1.339 . S
C3697 H3724 0.931 . S
C3698 C3699 1.395 . S
C3698 C3700 1.320 . S
C3699 C3697 1.339 . S
C3699 C3698 1.395 . S
C3699 H3725 0.929 . S
C3700 C3698 1.320 . S
C3700 C3701 1.405 . S
C3700 H3726 0.930 . S
C3701 C3696 1.479 . S
C3701 C3700 1.405 . S
C3701 H3727 0.931 . S
U3702 O3703 2.454 . S
U3702 O3704 2.458 . S
U3702 C3705 2.984 . S
U3702 C3706 2.847 . S
U3702 C3719 2.882 . S
U3702 O3720 2.441 . S
U3702 O3721 2.420 . S
U3702 O3722 2.455 . S
U3702 O3723 2.449 . S
O3703 U3702 2.454 . S
O3703 C3705 1.353 . S
O3704 U3702 2.458 . S
O3704 C3705 1.286 . S
C3705 U3702 2.984 . S
C3705 O3703 1.353 . S
C3705 O3704 1.286 . S
C3705 C3707 1.363 . S
C3706 C3696 1.465 . S
C3706 U3702 2.847 . S
C3706 O3720 1.249 . S
C3706 O3721 1.202 . S
C3707 C3705 1.363 . S
C3707 C3709 1.408 . S
C3707 C3712 1.342 . S
C3708 C3709 1.310 . S
C3708 C3711 1.461 . S
C3708 H3728 0.932 . S
C3709 C3707 1.408 . S
C3709 C3708 1.310 . S
C3709 H3729 0.930 . S
C3710 C3711 1.474 . S
C3710 C3712 1.285 . S
C3710 H3730 0.929 . S
C3711 C3708 1.461 . S
C3711 C3710 1.474 . S
C3712 C3707 1.342 . S
C3712 C3710 1.285 . S
C3712 H3731 0.930 . S
C3713 C3716 1.424 . S
C3713 C3718 1.245 . S
C3713 C3719 1.428 . S
C3714 C3717 1.260 . S
C3714 C3718 1.477 . S
C3714 H3732 0.932 . S
C3715 C3716 1.384 . S
C3715 C3717 1.479 . S
C3715 H3733 0.929 . S
C3716 C3713 1.424 . S
C3716 C3715 1.384 . S
C3716 H3734 0.928 . S
C3717 C3714 1.260 . S
C3717 C3715 1.479 . S
C3718 C3713 1.245 . S
C3718 C3714 1.477 . S
C3718 H3735 0.932 . S
C3719 U3702 2.882 . S
C3719 C3713 1.428 . S
C3719 O3722 1.301 . S
C3719 O3723 1.282 . S
O3720 U3702 2.441 . S
O3720 C3706 1.249 . S
O3721 U3702 2.420 . S
O3721 C3706 1.202 . S
O3722 U3702 2.455 . S
O3722 C3719 1.301 . S
O3723 U3702 2.449 . S
O3723 C3719 1.282 . S
H3724 C3697 0.931 . S
H3725 C3699 0.929 . S
H3726 C3700 0.930 . S
H3727 C3701 0.931 . S
H3728 C3708 0.932 . S
H3729 C3709 0.930 . S
H3730 C3710 0.929 . S
H3731 C3712 0.930 . S
H3732 C3714 0.932 . S
H3733 C3715 0.929 . S
H3734 C3716 0.928 . S
H3735 C3718 0.932 . S
C3736 C3737 1.264 . S
C3736 C3741 1.479 . S
C3736 C3746 1.465 . S
C3737 C3736 1.264 . S
C3737 C3739 1.339 . S
C3737 H3764 0.931 . S
C3738 C3739 1.395 . S
C3738 C3740 1.320 . S
C3739 C3737 1.339 . S
C3739 C3738 1.395 . S
C3739 H3765 0.929 . S
C3740 C3738 1.320 . S
C3740 C3741 1.405 . S
C3740 H3766 0.930 . S
C3741 C3736 1.479 . S
C3741 C3740 1.405 . S
C3741 H3767 0.931 . S
U3742 O3743 2.454 . S
U3742 O3744 2.458 . S
U3742 C3745 2.984 . S
U3742 C3746 2.847 . S
U3742 C3759 2.882 . S
U3742 O3760 2.441 . S
U3742 O3761 2.420 . S
U3742 O3762 2.455 . S
U3742 O3763 2.449 . S
O3743 U3742 2.454 . S
O3743 C3745 1.353 . S
O3744 U3742 2.458 . S
O3744 C3745 1.286 . S
C3745 U3742 2.984 . S
C3745 O3743 1.353 . S
C3745 O3744 1.286 . S
C3745 C3747 1.363 . S
C3746 C3736 1.465 . S
C3746 U3742 2.847 . S
C3746 O3760 1.249 . S
C3746 O3761 1.202 . S
C3747 C3745 1.363 . S
C3747 C3749 1.408 . S
C3747 C3752 1.342 . S
C3748 C3749 1.310 . S
C3748 C3751 1.461 . S
C3748 H3768 0.932 . S
C3749 C3747 1.408 . S
C3749 C3748 1.310 . S
C3749 H3769 0.930 . S
C3750 C3751 1.474 . S
C3750 C3752 1.285 . S
C3750 H3770 0.929 . S
C3751 C3748 1.461 . S
C3751 C3750 1.474 . S
C3752 C3747 1.342 . S
C3752 C3750 1.285 . S
C3752 H3771 0.930 . S
C3753 C3756 1.424 . S
C3753 C3758 1.245 . S
C3753 C3759 1.428 . S
C3754 C3757 1.260 . S
C3754 C3758 1.477 . S
C3754 H3772 0.932 . S
C3755 C3756 1.384 . S
C3755 C3757 1.479 . S
C3755 H3773 0.929 . S
C3756 C3753 1.424 . S
C3756 C3755 1.384 . S
C3756 H3774 0.928 . S
C3757 C3754 1.260 . S
C3757 C3755 1.479 . S
C3758 C3753 1.245 . S
C3758 C3754 1.477 . S
C3758 H3775 0.932 . S
C3759 U3742 2.882 . S
C3759 C3753 1.428 . S
C3759 O3762 1.301 . S
C3759 O3763 1.282 . S
O3760 U3742 2.441 . S
O3760 C3746 1.249 . S
O3761 U3742 2.420 . S
O3761 C3746 1.202 . S
O3762 U3742 2.455 . S
O3762 C3759 1.301 . S
O3763 U3742 2.449 . S
O3763 C3759 1.282 . S
H3764 C3737 0.931 . S
H3765 C3739 0.929 . S
H3766 C3740 0.930 . S
H3767 C3741 0.931 . S
H3768 C3748 0.932 . S
H3769 C3749 0.930 . S
H3770 C3750 0.929 . S
H3771 C3752 0.930 . S
H3772 C3754 0.932 . S
H3773 C3755 0.929 . S
H3774 C3756 0.928 . S
H3775 C3758 0.932 . S
C3776 C3777 1.264 . S
C3776 C3781 1.479 . S
C3776 C3786 1.465 . S
C3777 C3776 1.264 . S
C3777 C3779 1.339 . S
C3777 H3804 0.931 . S
C3778 C3779 1.395 . S
C3778 C3780 1.320 . S
C3779 C3777 1.339 . S
C3779 C3778 1.395 . S
C3779 H3805 0.929 . S
C3780 C3778 1.320 . S
C3780 C3781 1.405 . S
C3780 H3806 0.930 . S
C3781 C3776 1.479 . S
C3781 C3780 1.405 . S
C3781 H3807 0.931 . S
U3782 O3783 2.454 . S
U3782 O3784 2.458 . S
U3782 C3785 2.984 . S
U3782 C3786 2.847 . S
U3782 C3799 2.882 . S
U3782 O3800 2.441 . S
U3782 O3801 2.420 . S
U3782 O3802 2.455 . S
U3782 O3803 2.449 . S
O3783 U3782 2.454 . S
O3783 C3785 1.353 . S
O3784 U3782 2.458 . S
O3784 C3785 1.286 . S
C3785 U3782 2.984 . S
C3785 O3783 1.353 . S
C3785 O3784 1.286 . S
C3785 C3787 1.363 . S
C3786 C3776 1.465 . S
C3786 U3782 2.847 . S
C3786 O3800 1.249 . S
C3786 O3801 1.202 . S
C3787 C3785 1.363 . S
C3787 C3789 1.408 . S
C3787 C3792 1.342 . S
C3788 C3789 1.310 . S
C3788 C3791 1.461 . S
C3788 H3808 0.932 . S
C3789 C3787 1.408 . S
C3789 C3788 1.310 . S
C3789 H3809 0.930 . S
C3790 C3791 1.474 . S
C3790 C3792 1.285 . S
C3790 H3810 0.929 . S
C3791 C3788 1.461 . S
C3791 C3790 1.474 . S
C3792 C3787 1.342 . S
C3792 C3790 1.285 . S
C3792 H3811 0.930 . S
C3793 C3796 1.424 . S
C3793 C3798 1.245 . S
C3793 C3799 1.428 . S
C3794 C3797 1.260 . S
C3794 C3798 1.477 . S
C3794 H3812 0.932 . S
C3795 C3796 1.384 . S
C3795 C3797 1.479 . S
C3795 H3813 0.929 . S
C3796 C3793 1.424 . S
C3796 C3795 1.384 . S
C3796 H3814 0.928 . S
C3797 C3794 1.260 . S
C3797 C3795 1.479 . S
C3798 C3793 1.245 . S
C3798 C3794 1.477 . S
C3798 H3815 0.932 . S
C3799 U3782 2.882 . S
C3799 C3793 1.428 . S
C3799 O3802 1.301 . S
C3799 O3803 1.282 . S
O3800 U3782 2.441 . S
O3800 C3786 1.249 . S
O3801 U3782 2.420 . S
O3801 C3786 1.202 . S
O3802 U3782 2.455 . S
O3802 C3799 1.301 . S
O3803 U3782 2.449 . S
O3803 C3799 1.282 . S
H3804 C3777 0.931 . S
H3805 C3779 0.929 . S
H3806 C3780 0.930 . S
H3807 C3781 0.931 . S
H3808 C3788 0.932 . S
H3809 C3789 0.930 . S
H3810 C3790 0.929 . S
H3811 C3792 0.930 . S
H3812 C3794 0.932 . S
H3813 C3795 0.929 . S
H3814 C3796 0.928 . S
H3815 C3798 0.932 . S
C3816 C3817 1.264 . S
C3816 C3821 1.479 . S
C3816 C3826 1.465 . S
C3817 C3816 1.264 . S
C3817 C3819 1.339 . S
C3817 H3844 0.931 . S
C3818 C3819 1.395 . S
C3818 C3820 1.320 . S
C3819 C3817 1.339 . S
C3819 C3818 1.395 . S
C3819 H3845 0.929 . S
C3820 C3818 1.320 . S
C3820 C3821 1.405 . S
C3820 H3846 0.930 . S
C3821 C3816 1.479 . S
C3821 C3820 1.405 . S
C3821 H3847 0.931 . S
U3822 O3823 2.454 . S
U3822 O3824 2.458 . S
U3822 C3825 2.984 . S
U3822 C3826 2.847 . S
U3822 C3839 2.882 . S
U3822 O3840 2.441 . S
U3822 O3841 2.420 . S
U3822 O3842 2.455 . S
U3822 O3843 2.449 . S
O3823 U3822 2.454 . S
O3823 C3825 1.353 . S
O3824 U3822 2.458 . S
O3824 C3825 1.286 . S
C3825 U3822 2.984 . S
C3825 O3823 1.353 . S
C3825 O3824 1.286 . S
C3825 C3827 1.363 . S
C3826 C3816 1.465 . S
C3826 U3822 2.847 . S
C3826 O3840 1.249 . S
C3826 O3841 1.202 . S
C3827 C3825 1.363 . S
C3827 C3829 1.408 . S
C3827 C3832 1.342 . S
C3828 C3829 1.310 . S
C3828 C3831 1.461 . S
C3828 H3848 0.932 . S
C3829 C3827 1.408 . S
C3829 C3828 1.310 . S
C3829 H3849 0.930 . S
C3830 C3831 1.474 . S
C3830 C3832 1.285 . S
C3830 H3850 0.929 . S
C3831 C3828 1.461 . S
C3831 C3830 1.474 . S
C3832 C3827 1.342 . S
C3832 C3830 1.285 . S
C3832 H3851 0.930 . S
C3833 C3836 1.424 . S
C3833 C3838 1.245 . S
C3833 C3839 1.428 . S
C3834 C3837 1.260 . S
C3834 C3838 1.477 . S
C3834 H3852 0.932 . S
C3835 C3836 1.384 . S
C3835 C3837 1.479 . S
C3835 H3853 0.929 . S
C3836 C3833 1.424 . S
C3836 C3835 1.384 . S
C3836 H3854 0.928 . S
C3837 C3834 1.260 . S
C3837 C3835 1.479 . S
C3838 C3833 1.245 . S
C3838 C3834 1.477 . S
C3838 H3855 0.932 . S
C3839 U3822 2.882 . S
C3839 C3833 1.428 . S
C3839 O3842 1.301 . S
C3839 O3843 1.282 . S
O3840 U3822 2.441 . S
O3840 C3826 1.249 . S
O3841 U3822 2.420 . S
O3841 C3826 1.202 . S
O3842 U3822 2.455 . S
O3842 C3839 1.301 . S
O3843 U3822 2.449 . S
O3843 C3839 1.282 . S
H3844 C3817 0.931 . S
H3845 C3819 0.929 . S
H3846 C3820 0.930 . S
H3847 C3821 0.931 . S
H3848 C3828 0.932 . S
H3849 C3829 0.930 . S
H3850 C3830 0.929 . S
H3851 C3832 0.930 . S
H3852 C3834 0.932 . S
H3853 C3835 0.929 . S
H3854 C3836 0.928 . S
H3855 C3838 0.932 . S
C3856 C3857 1.264 . S
C3856 C3861 1.479 . S
C3856 C3866 1.465 . S
C3857 C3856 1.264 . S
C3857 C3859 1.339 . S
C3857 H3884 0.931 . S
C3858 C3859 1.395 . S
C3858 C3860 1.320 . S
C3859 C3857 1.339 . S
C3859 C3858 1.395 . S
C3859 H3885 0.929 . S
C3860 C3858 1.320 . S
C3860 C3861 1.405 . S
C3860 H3886 0.930 . S
C3861 C3856 1.479 . S
C3861 C3860 1.405 . S
C3861 H3887 0.931 . S
U3862 O3863 2.454 . S
U3862 O3864 2.458 . S
U3862 C3865 2.984 . S
U3862 C3866 2.847 . S
U3862 C3879 2.882 . S
U3862 O3880 2.441 . S
U3862 O3881 2.420 . S
U3862 O3882 2.455 . S
U3862 O3883 2.449 . S
O3863 U3862 2.454 . S
O3863 C3865 1.353 . S
O3864 U3862 2.458 . S
O3864 C3865 1.286 . S
C3865 U3862 2.984 . S
C3865 O3863 1.353 . S
C3865 O3864 1.286 . S
C3865 C3867 1.363 . S
C3866 C3856 1.465 . S
C3866 U3862 2.847 . S
C3866 O3880 1.249 . S
C3866 O3881 1.202 . S
C3867 C3865 1.363 . S
C3867 C3869 1.408 . S
C3867 C3872 1.342 . S
C3868 C3869 1.310 . S
C3868 C3871 1.461 . S
C3868 H3888 0.932 . S
C3869 C3867 1.408 . S
C3869 C3868 1.310 . S
C3869 H3889 0.930 . S
C3870 C3871 1.474 . S
C3870 C3872 1.285 . S
C3870 H3890 0.929 . S
C3871 C3868 1.461 . S
C3871 C3870 1.474 . S
C3872 C3867 1.342 . S
C3872 C3870 1.285 . S
C3872 H3891 0.930 . S
C3873 C3876 1.424 . S
C3873 C3878 1.245 . S
C3873 C3879 1.428 . S
C3874 C3877 1.260 . S
C3874 C3878 1.477 . S
C3874 H3892 0.932 . S
C3875 C3876 1.384 . S
C3875 C3877 1.479 . S
C3875 H3893 0.929 . S
C3876 C3873 1.424 . S
C3876 C3875 1.384 . S
C3876 H3894 0.928 . S
C3877 C3874 1.260 . S
C3877 C3875 1.479 . S
C3878 C3873 1.245 . S
C3878 C3874 1.477 . S
C3878 H3895 0.932 . S
C3879 U3862 2.882 . S
C3879 C3873 1.428 . S
C3879 O3882 1.301 . S
C3879 O3883 1.282 . S
O3880 U3862 2.441 . S
O3880 C3866 1.249 . S
O3881 U3862 2.420 . S
O3881 C3866 1.202 . S
O3882 U3862 2.455 . S
O3882 C3879 1.301 . S
O3883 U3862 2.449 . S
O3883 C3879 1.282 . S
H3884 C3857 0.931 . S
H3885 C3859 0.929 . S
H3886 C3860 0.930 . S
H3887 C3861 0.931 . S
H3888 C3868 0.932 . S
H3889 C3869 0.930 . S
H3890 C3870 0.929 . S
H3891 C3872 0.930 . S
H3892 C3874 0.932 . S
H3893 C3875 0.929 . S
H3894 C3876 0.928 . S
H3895 C3878 0.932 . S
C3896 C3897 1.264 . S
C3896 C3901 1.479 . S
C3896 C3906 1.465 . S
C3897 C3896 1.264 . S
C3897 C3899 1.339 . S
C3897 H3924 0.931 . S
C3898 C3899 1.395 . S
C3898 C3900 1.320 . S
C3899 C3897 1.339 . S
C3899 C3898 1.395 . S
C3899 H3925 0.929 . S
C3900 C3898 1.320 . S
C3900 C3901 1.405 . S
C3900 H3926 0.930 . S
C3901 C3896 1.479 . S
C3901 C3900 1.405 . S
C3901 H3927 0.931 . S
U3902 O3903 2.454 . S
U3902 O3904 2.458 . S
U3902 C3905 2.984 . S
U3902 C3906 2.847 . S
U3902 C3919 2.882 . S
U3902 O3920 2.441 . S
U3902 O3921 2.420 . S
U3902 O3922 2.455 . S
U3902 O3923 2.449 . S
O3903 U3902 2.454 . S
O3903 C3905 1.353 . S
O3904 U3902 2.458 . S
O3904 C3905 1.286 . S
C3905 U3902 2.984 . S
C3905 O3903 1.353 . S
C3905 O3904 1.286 . S
C3905 C3907 1.363 . S
C3906 C3896 1.465 . S
C3906 U3902 2.847 . S
C3906 O3920 1.249 . S
C3906 O3921 1.202 . S
C3907 C3905 1.363 . S
C3907 C3909 1.408 . S
C3907 C3912 1.342 . S
C3908 C3909 1.310 . S
C3908 C3911 1.461 . S
C3908 H3928 0.932 . S
C3909 C3907 1.408 . S
C3909 C3908 1.310 . S
C3909 H3929 0.930 . S
C3910 C3911 1.474 . S
C3910 C3912 1.285 . S
C3910 H3930 0.929 . S
C3911 C3908 1.461 . S
C3911 C3910 1.474 . S
C3912 C3907 1.342 . S
C3912 C3910 1.285 . S
C3912 H3931 0.930 . S
C3913 C3916 1.424 . S
C3913 C3918 1.245 . S
C3913 C3919 1.428 . S
C3914 C3917 1.260 . S
C3914 C3918 1.477 . S
C3914 H3932 0.932 . S
C3915 C3916 1.384 . S
C3915 C3917 1.479 . S
C3915 H3933 0.929 . S
C3916 C3913 1.424 . S
C3916 C3915 1.384 . S
C3916 H3934 0.928 . S
C3917 C3914 1.260 . S
C3917 C3915 1.479 . S
C3918 C3913 1.245 . S
C3918 C3914 1.477 . S
C3918 H3935 0.932 . S
C3919 U3902 2.882 . S
C3919 C3913 1.428 . S
C3919 O3922 1.301 . S
C3919 O3923 1.282 . S
O3920 U3902 2.441 . S
O3920 C3906 1.249 . S
O3921 U3902 2.420 . S
O3921 C3906 1.202 . S
O3922 U3902 2.455 . S
O3922 C3919 1.301 . S
O3923 U3902 2.449 . S
O3923 C3919 1.282 . S
H3924 C3897 0.931 . S
H3925 C3899 0.929 . S
H3926 C3900 0.930 . S
H3927 C3901 0.931 . S
H3928 C3908 0.932 . S
H3929 C3909 0.930 . S
H3930 C3910 0.929 . S
H3931 C3912 0.930 . S
H3932 C3914 0.932 . S
H3933 C3915 0.929 . S
H3934 C3916 0.928 . S
H3935 C3918 0.932 . S
C3936 C3937 1.264 . S
C3936 C3941 1.479 . S
C3936 C3946 1.465 . S
C3937 C3936 1.264 . S
C3937 C3939 1.339 . S
C3937 H3964 0.931 . S
C3938 C3939 1.395 . S
C3938 C3940 1.320 . S
C3939 C3937 1.339 . S
C3939 C3938 1.395 . S
C3939 H3965 0.929 . S
C3940 C3938 1.320 . S
C3940 C3941 1.405 . S
C3940 H3966 0.930 . S
C3941 C3936 1.479 . S
C3941 C3940 1.405 . S
C3941 H3967 0.931 . S
U3942 O3943 2.454 . S
U3942 O3944 2.458 . S
U3942 C3945 2.984 . S
U3942 C3946 2.847 . S
U3942 C3959 2.882 . S
U3942 O3960 2.441 . S
U3942 O3961 2.420 . S
U3942 O3962 2.455 . S
U3942 O3963 2.449 . S
O3943 U3942 2.454 . S
O3943 C3945 1.353 . S
O3944 U3942 2.458 . S
O3944 C3945 1.286 . S
C3945 U3942 2.984 . S
C3945 O3943 1.353 . S
C3945 O3944 1.286 . S
C3945 C3947 1.363 . S
C3946 C3936 1.465 . S
C3946 U3942 2.847 . S
C3946 O3960 1.249 . S
C3946 O3961 1.202 . S
C3947 C3945 1.363 . S
C3947 C3949 1.408 . S
C3947 C3952 1.342 . S
C3948 C3949 1.310 . S
C3948 C3951 1.461 . S
C3948 H3968 0.932 . S
C3949 C3947 1.408 . S
C3949 C3948 1.310 . S
C3949 H3969 0.930 . S
C3950 C3951 1.474 . S
C3950 C3952 1.285 . S
C3950 H3970 0.929 . S
C3951 C3948 1.461 . S
C3951 C3950 1.474 . S
C3952 C3947 1.342 . S
C3952 C3950 1.285 . S
C3952 H3971 0.930 . S
C3953 C3956 1.424 . S
C3953 C3958 1.245 . S
C3953 C3959 1.428 . S
C3954 C3957 1.260 . S
C3954 C3958 1.477 . S
C3954 H3972 0.932 . S
C3955 C3956 1.384 . S
C3955 C3957 1.479 . S
C3955 H3973 0.929 . S
C3956 C3953 1.424 . S
C3956 C3955 1.384 . S
C3956 H3974 0.928 . S
C3957 C3954 1.260 . S
C3957 C3955 1.479 . S
C3958 C3953 1.245 . S
C3958 C3954 1.477 . S
C3958 H3975 0.932 . S
C3959 U3942 2.882 . S
C3959 C3953 1.428 . S
C3959 O3962 1.301 . S
C3959 O3963 1.282 . S
O3960 U3942 2.441 . S
O3960 C3946 1.249 . S
O3961 U3942 2.420 . S
O3961 C3946 1.202 . S
O3962 U3942 2.455 . S
O3962 C3959 1.301 . S
O3963 U3942 2.449 . S
O3963 C3959 1.282 . S
H3964 C3937 0.931 . S
H3965 C3939 0.929 . S
H3966 C3940 0.930 . S
H3967 C3941 0.931 . S
H3968 C3948 0.932 . S
H3969 C3949 0.930 . S
H3970 C3950 0.929 . S
H3971 C3952 0.930 . S
H3972 C3954 0.932 . S
H3973 C3955 0.929 . S
H3974 C3956 0.928 . S
H3975 C3958 0.932 . S
C3976 C3977 1.264 . S
C3976 C3981 1.479 . S
C3976 C3986 1.465 . S
C3977 C3976 1.264 . S
C3977 C3979 1.339 . S
C3977 H4004 0.931 . S
C3978 C3979 1.395 . S
C3978 C3980 1.320 . S
C3979 C3977 1.339 . S
C3979 C3978 1.395 . S
C3979 H4005 0.929 . S
C3980 C3978 1.320 . S
C3980 C3981 1.405 . S
C3980 H4006 0.930 . S
C3981 C3976 1.479 . S
C3981 C3980 1.405 . S
C3981 H4007 0.931 . S
U3982 O3983 2.454 . S
U3982 O3984 2.458 . S
U3982 C3985 2.984 . S
U3982 C3986 2.847 . S
U3982 C3999 2.882 . S
U3982 O4000 2.441 . S
U3982 O4001 2.420 . S
U3982 O4002 2.455 . S
U3982 O4003 2.449 . S
O3983 U3982 2.454 . S
O3983 C3985 1.353 . S
O3984 U3982 2.458 . S
O3984 C3985 1.286 . S
C3985 U3982 2.984 . S
C3985 O3983 1.353 . S
C3985 O3984 1.286 . S
C3985 C3987 1.363 . S
C3986 C3976 1.465 . S
C3986 U3982 2.847 . S
C3986 O4000 1.249 . S
C3986 O4001 1.202 . S
C3987 C3985 1.363 . S
C3987 C3989 1.408 . S
C3987 C3992 1.342 . S
C3988 C3989 1.310 . S
C3988 C3991 1.461 . S
C3988 H4008 0.932 . S
C3989 C3987 1.408 . S
C3989 C3988 1.310 . S
C3989 H4009 0.930 . S
C3990 C3991 1.474 . S
C3990 C3992 1.285 . S
C3990 H4010 0.929 . S
C3991 C3988 1.461 . S
C3991 C3990 1.474 . S
C3992 C3987 1.342 . S
C3992 C3990 1.285 . S
C3992 H4011 0.930 . S
C3993 C3996 1.424 . S
C3993 C3998 1.245 . S
C3993 C3999 1.428 . S
C3994 C3997 1.260 . S
C3994 C3998 1.477 . S
C3994 H4012 0.932 . S
C3995 C3996 1.384 . S
C3995 C3997 1.479 . S
C3995 H4013 0.929 . S
C3996 C3993 1.424 . S
C3996 C3995 1.384 . S
C3996 H4014 0.928 . S
C3997 C3994 1.260 . S
C3997 C3995 1.479 . S
C3998 C3993 1.245 . S
C3998 C3994 1.477 . S
C3998 H4015 0.932 . S
C3999 U3982 2.882 . S
C3999 C3993 1.428 . S
C3999 O4002 1.301 . S
C3999 O4003 1.282 . S
O4000 U3982 2.441 . S
O4000 C3986 1.249 . S
O4001 U3982 2.420 . S
O4001 C3986 1.202 . S
O4002 U3982 2.455 . S
O4002 C3999 1.301 . S
O4003 U3982 2.449 . S
O4003 C3999 1.282 . S
H4004 C3977 0.931 . S
H4005 C3979 0.929 . S
H4006 C3980 0.930 . S
H4007 C3981 0.931 . S
H4008 C3988 0.932 . S
H4009 C3989 0.930 . S
H4010 C3990 0.929 . S
H4011 C3992 0.930 . S
H4012 C3994 0.932 . S
H4013 C3995 0.929 . S
H4014 C3996 0.928 . S
H4015 C3998 0.932 . S
C4016 C4017 1.264 . S
C4016 C4021 1.479 . S
C4016 C4026 1.465 . S
C4017 C4016 1.264 . S
C4017 C4019 1.339 . S
C4017 H4044 0.931 . S
C4018 C4019 1.395 . S
C4018 C4020 1.320 . S
C4019 C4017 1.339 . S
C4019 C4018 1.395 . S
C4019 H4045 0.929 . S
C4020 C4018 1.320 . S
C4020 C4021 1.405 . S
C4020 H4046 0.930 . S
C4021 C4016 1.479 . S
C4021 C4020 1.405 . S
C4021 H4047 0.931 . S
U4022 O4023 2.454 . S
U4022 O4024 2.458 . S
U4022 C4025 2.984 . S
U4022 C4026 2.847 . S
U4022 C4039 2.882 . S
U4022 O4040 2.441 . S
U4022 O4041 2.420 . S
U4022 O4042 2.455 . S
U4022 O4043 2.449 . S
O4023 U4022 2.454 . S
O4023 C4025 1.353 . S
O4024 U4022 2.458 . S
O4024 C4025 1.286 . S
C4025 U4022 2.984 . S
C4025 O4023 1.353 . S
C4025 O4024 1.286 . S
C4025 C4027 1.363 . S
C4026 C4016 1.465 . S
C4026 U4022 2.847 . S
C4026 O4040 1.249 . S
C4026 O4041 1.202 . S
C4027 C4025 1.363 . S
C4027 C4029 1.408 . S
C4027 C4032 1.342 . S
C4028 C4029 1.310 . S
C4028 C4031 1.461 . S
C4028 H4048 0.932 . S
C4029 C4027 1.408 . S
C4029 C4028 1.310 . S
C4029 H4049 0.930 . S
C4030 C4031 1.474 . S
C4030 C4032 1.285 . S
C4030 H4050 0.929 . S
C4031 C4028 1.461 . S
C4031 C4030 1.474 . S
C4032 C4027 1.342 . S
C4032 C4030 1.285 . S
C4032 H4051 0.930 . S
C4033 C4036 1.424 . S
C4033 C4038 1.245 . S
C4033 C4039 1.428 . S
C4034 C4037 1.260 . S
C4034 C4038 1.477 . S
C4034 H4052 0.932 . S
C4035 C4036 1.384 . S
C4035 C4037 1.479 . S
C4035 H4053 0.929 . S
C4036 C4033 1.424 . S
C4036 C4035 1.384 . S
C4036 H4054 0.928 . S
C4037 C4034 1.260 . S
C4037 C4035 1.479 . S
C4038 C4033 1.245 . S
C4038 C4034 1.477 . S
C4038 H4055 0.932 . S
C4039 U4022 2.882 . S
C4039 C4033 1.428 . S
C4039 O4042 1.301 . S
C4039 O4043 1.282 . S
O4040 U4022 2.441 . S
O4040 C4026 1.249 . S
O4041 U4022 2.420 . S
O4041 C4026 1.202 . S
O4042 U4022 2.455 . S
O4042 C4039 1.301 . S
O4043 U4022 2.449 . S
O4043 C4039 1.282 . S
H4044 C4017 0.931 . S
H4045 C4019 0.929 . S
H4046 C4020 0.930 . S
H4047 C4021 0.931 . S
H4048 C4028 0.932 . S
H4049 C4029 0.930 . S
H4050 C4030 0.929 . S
H4051 C4032 0.930 . S
H4052 C4034 0.932 . S
H4053 C4035 0.929 . S
H4054 C4036 0.928 . S
H4055 C4038 0.932 . S
C4056 C4057 1.264 . S
C4056 C4061 1.479 . S
C4056 C4066 1.465 . S
C4057 C4056 1.264 . S
C4057 C4059 1.339 . S
C4057 H4084 0.931 . S
C4058 C4059 1.395 . S
C4058 C4060 1.320 . S
C4059 C4057 1.339 . S
C4059 C4058 1.395 . S
C4059 H4085 0.929 . S
C4060 C4058 1.320 . S
C4060 C4061 1.405 . S
C4060 H4086 0.930 . S
C4061 C4056 1.479 . S
C4061 C4060 1.405 . S
C4061 H4087 0.931 . S
U4062 O4063 2.454 . S
U4062 O4064 2.458 . S
U4062 C4065 2.984 . S
U4062 C4066 2.847 . S
U4062 C4079 2.882 . S
U4062 O4080 2.441 . S
U4062 O4081 2.420 . S
U4062 O4082 2.455 . S
U4062 O4083 2.449 . S
O4063 U4062 2.454 . S
O4063 C4065 1.353 . S
O4064 U4062 2.458 . S
O4064 C4065 1.286 . S
C4065 U4062 2.984 . S
C4065 O4063 1.353 . S
C4065 O4064 1.286 . S
C4065 C4067 1.363 . S
C4066 C4056 1.465 . S
C4066 U4062 2.847 . S
C4066 O4080 1.249 . S
C4066 O4081 1.202 . S
C4067 C4065 1.363 . S
C4067 C4069 1.408 . S
C4067 C4072 1.342 . S
C4068 C4069 1.310 . S
C4068 C4071 1.461 . S
C4068 H4088 0.932 . S
C4069 C4067 1.408 . S
C4069 C4068 1.310 . S
C4069 H4089 0.930 . S
C4070 C4071 1.474 . S
C4070 C4072 1.285 . S
C4070 H4090 0.929 . S
C4071 C4068 1.461 . S
C4071 C4070 1.474 . S
C4072 C4067 1.342 . S
C4072 C4070 1.285 . S
C4072 H4091 0.930 . S
C4073 C4076 1.424 . S
C4073 C4078 1.245 . S
C4073 C4079 1.428 . S
C4074 C4077 1.260 . S
C4074 C4078 1.477 . S
C4074 H4092 0.932 . S
C4075 C4076 1.384 . S
C4075 C4077 1.479 . S
C4075 H4093 0.929 . S
C4076 C4073 1.424 . S
C4076 C4075 1.384 . S
C4076 H4094 0.928 . S
C4077 C4074 1.260 . S
C4077 C4075 1.479 . S
C4078 C4073 1.245 . S
C4078 C4074 1.477 . S
C4078 H4095 0.932 . S
C4079 U4062 2.882 . S
C4079 C4073 1.428 . S
C4079 O4082 1.301 . S
C4079 O4083 1.282 . S
O4080 U4062 2.441 . S
O4080 C4066 1.249 . S
O4081 U4062 2.420 . S
O4081 C4066 1.202 . S
O4082 U4062 2.455 . S
O4082 C4079 1.301 . S
O4083 U4062 2.449 . S
O4083 C4079 1.282 . S
H4084 C4057 0.931 . S
H4085 C4059 0.929 . S
H4086 C4060 0.930 . S
H4087 C4061 0.931 . S
H4088 C4068 0.932 . S
H4089 C4069 0.930 . S
H4090 C4070 0.929 . S
H4091 C4072 0.930 . S
H4092 C4074 0.932 . S
H4093 C4075 0.929 . S
H4094 C4076 0.928 . S
H4095 C4078 0.932 . S
C4096 C4097 1.264 . S
C4096 C4101 1.479 . S
C4096 C4106 1.465 . S
C4097 C4096 1.264 . S
C4097 C4099 1.339 . S
C4097 H4124 0.931 . S
C4098 C4099 1.395 . S
C4098 C4100 1.320 . S
C4099 C4097 1.339 . S
C4099 C4098 1.395 . S
C4099 H4125 0.929 . S
C4100 C4098 1.320 . S
C4100 C4101 1.405 . S
C4100 H4126 0.930 . S
C4101 C4096 1.479 . S
C4101 C4100 1.405 . S
C4101 H4127 0.931 . S
U4102 O4103 2.454 . S
U4102 O4104 2.458 . S
U4102 C4105 2.984 . S
U4102 C4106 2.847 . S
U4102 C4119 2.882 . S
U4102 O4120 2.441 . S
U4102 O4121 2.420 . S
U4102 O4122 2.455 . S
U4102 O4123 2.449 . S
O4103 U4102 2.454 . S
O4103 C4105 1.353 . S
O4104 U4102 2.458 . S
O4104 C4105 1.286 . S
C4105 U4102 2.984 . S
C4105 O4103 1.353 . S
C4105 O4104 1.286 . S
C4105 C4107 1.363 . S
C4106 C4096 1.465 . S
C4106 U4102 2.847 . S
C4106 O4120 1.249 . S
C4106 O4121 1.202 . S
C4107 C4105 1.363 . S
C4107 C4109 1.408 . S
C4107 C4112 1.342 . S
C4108 C4109 1.310 . S
C4108 C4111 1.461 . S
C4108 H4128 0.932 . S
C4109 C4107 1.408 . S
C4109 C4108 1.310 . S
C4109 H4129 0.930 . S
C4110 C4111 1.474 . S
C4110 C4112 1.285 . S
C4110 H4130 0.929 . S
C4111 C4108 1.461 . S
C4111 C4110 1.474 . S
C4112 C4107 1.342 . S
C4112 C4110 1.285 . S
C4112 H4131 0.930 . S
C4113 C4116 1.424 . S
C4113 C4118 1.245 . S
C4113 C4119 1.428 . S
C4114 C4117 1.260 . S
C4114 C4118 1.477 . S
C4114 H4132 0.932 . S
C4115 C4116 1.384 . S
C4115 C4117 1.479 . S
C4115 H4133 0.929 . S
C4116 C4113 1.424 . S
C4116 C4115 1.384 . S
C4116 H4134 0.928 . S
C4117 C4114 1.260 . S
C4117 C4115 1.479 . S
C4118 C4113 1.245 . S
C4118 C4114 1.477 . S
C4118 H4135 0.932 . S
C4119 U4102 2.882 . S
C4119 C4113 1.428 . S
C4119 O4122 1.301 . S
C4119 O4123 1.282 . S
O4120 U4102 2.441 . S
O4120 C4106 1.249 . S
O4121 U4102 2.420 . S
O4121 C4106 1.202 . S
O4122 U4102 2.455 . S
O4122 C4119 1.301 . S
O4123 U4102 2.449 . S
O4123 C4119 1.282 . S
H4124 C4097 0.931 . S
H4125 C4099 0.929 . S
H4126 C4100 0.930 . S
H4127 C4101 0.931 . S
H4128 C4108 0.932 . S
H4129 C4109 0.930 . S
H4130 C4110 0.929 . S
H4131 C4112 0.930 . S
H4132 C4114 0.932 . S
H4133 C4115 0.929 . S
H4134 C4116 0.928 . S
H4135 C4118 0.932 . S
C4136 C4137 1.264 . S
C4136 C4141 1.479 . S
C4136 C4146 1.465 . S
C4137 C4136 1.264 . S
C4137 C4139 1.339 . S
C4137 H4164 0.931 . S
C4138 C4139 1.395 . S
C4138 C4140 1.320 . S
C4139 C4137 1.339 . S
C4139 C4138 1.395 . S
C4139 H4165 0.929 . S
C4140 C4138 1.320 . S
C4140 C4141 1.405 . S
C4140 H4166 0.930 . S
C4141 C4136 1.479 . S
C4141 C4140 1.405 . S
C4141 H4167 0.931 . S
U4142 O4143 2.454 . S
U4142 O4144 2.458 . S
U4142 C4145 2.984 . S
U4142 C4146 2.847 . S
U4142 C4159 2.882 . S
U4142 O4160 2.441 . S
U4142 O4161 2.420 . S
U4142 O4162 2.455 . S
U4142 O4163 2.449 . S
O4143 U4142 2.454 . S
O4143 C4145 1.353 . S
O4144 U4142 2.458 . S
O4144 C4145 1.286 . S
C4145 U4142 2.984 . S
C4145 O4143 1.353 . S
C4145 O4144 1.286 . S
C4145 C4147 1.363 . S
C4146 C4136 1.465 . S
C4146 U4142 2.847 . S
C4146 O4160 1.249 . S
C4146 O4161 1.202 . S
C4147 C4145 1.363 . S
C4147 C4149 1.408 . S
C4147 C4152 1.342 . S
C4148 C4149 1.310 . S
C4148 C4151 1.461 . S
C4148 H4168 0.932 . S
C4149 C4147 1.408 . S
C4149 C4148 1.310 . S
C4149 H4169 0.930 . S
C4150 C4151 1.474 . S
C4150 C4152 1.285 . S
C4150 H4170 0.929 . S
C4151 C4148 1.461 . S
C4151 C4150 1.474 . S
C4152 C4147 1.342 . S
C4152 C4150 1.285 . S
C4152 H4171 0.930 . S
C4153 C4156 1.424 . S
C4153 C4158 1.245 . S
C4153 C4159 1.428 . S
C4154 C4157 1.260 . S
C4154 C4158 1.477 . S
C4154 H4172 0.932 . S
C4155 C4156 1.384 . S
C4155 C4157 1.479 . S
C4155 H4173 0.929 . S
C4156 C4153 1.424 . S
C4156 C4155 1.384 . S
C4156 H4174 0.928 . S
C4157 C4154 1.260 . S
C4157 C4155 1.479 . S
C4158 C4153 1.245 . S
C4158 C4154 1.477 . S
C4158 H4175 0.932 . S
C4159 U4142 2.882 . S
C4159 C4153 1.428 . S
C4159 O4162 1.301 . S
C4159 O4163 1.282 . S
O4160 U4142 2.441 . S
O4160 C4146 1.249 . S
O4161 U4142 2.420 . S
O4161 C4146 1.202 . S
O4162 U4142 2.455 . S
O4162 C4159 1.301 . S
O4163 U4142 2.449 . S
O4163 C4159 1.282 . S
H4164 C4137 0.931 . S
H4165 C4139 0.929 . S
H4166 C4140 0.930 . S
H4167 C4141 0.931 . S
H4168 C4148 0.932 . S
H4169 C4149 0.930 . S
H4170 C4150 0.929 . S
H4171 C4152 0.930 . S
H4172 C4154 0.932 . S
H4173 C4155 0.929 . S
H4174 C4156 0.928 . S
H4175 C4158 0.932 . S
C4176 C4177 1.264 . S
C4176 C4181 1.479 . S
C4176 C4186 1.465 . S
C4177 C4176 1.264 . S
C4177 C4179 1.339 . S
C4177 H4204 0.931 . S
C4178 C4179 1.395 . S
C4178 C4180 1.320 . S
C4179 C4177 1.339 . S
C4179 C4178 1.395 . S
C4179 H4205 0.929 . S
C4180 C4178 1.320 . S
C4180 C4181 1.405 . S
C4180 H4206 0.930 . S
C4181 C4176 1.479 . S
C4181 C4180 1.405 . S
C4181 H4207 0.931 . S
U4182 O4183 2.454 . S
U4182 O4184 2.458 . S
U4182 C4185 2.984 . S
U4182 C4186 2.847 . S
U4182 C4199 2.882 . S
U4182 O4200 2.441 . S
U4182 O4201 2.420 . S
U4182 O4202 2.455 . S
U4182 O4203 2.449 . S
O4183 U4182 2.454 . S
O4183 C4185 1.353 . S
O4184 U4182 2.458 . S
O4184 C4185 1.286 . S
C4185 U4182 2.984 . S
C4185 O4183 1.353 . S
C4185 O4184 1.286 . S
C4185 C4187 1.363 . S
C4186 C4176 1.465 . S
C4186 U4182 2.847 . S
C4186 O4200 1.249 . S
C4186 O4201 1.202 . S
C4187 C4185 1.363 . S
C4187 C4189 1.408 . S
C4187 C4192 1.342 . S
C4188 C4189 1.310 . S
C4188 C4191 1.461 . S
C4188 H4208 0.932 . S
C4189 C4187 1.408 . S
C4189 C4188 1.310 . S
C4189 H4209 0.930 . S
C4190 C4191 1.474 . S
C4190 C4192 1.285 . S
C4190 H4210 0.929 . S
C4191 C4188 1.461 . S
C4191 C4190 1.474 . S
C4192 C4187 1.342 . S
C4192 C4190 1.285 . S
C4192 H4211 0.930 . S
C4193 C4196 1.424 . S
C4193 C4198 1.245 . S
C4193 C4199 1.428 . S
C4194 C4197 1.260 . S
C4194 C4198 1.477 . S
C4194 H4212 0.932 . S
C4195 C4196 1.384 . S
C4195 C4197 1.479 . S
C4195 H4213 0.929 . S
C4196 C4193 1.424 . S
C4196 C4195 1.384 . S
C4196 H4214 0.928 . S
C4197 C4194 1.260 . S
C4197 C4195 1.479 . S
C4198 C4193 1.245 . S
C4198 C4194 1.477 . S
C4198 H4215 0.932 . S
C4199 U4182 2.882 . S
C4199 C4193 1.428 . S
C4199 O4202 1.301 . S
C4199 O4203 1.282 . S
O4200 U4182 2.441 . S
O4200 C4186 1.249 . S
O4201 U4182 2.420 . S
O4201 C4186 1.202 . S
O4202 U4182 2.455 . S
O4202 C4199 1.301 . S
O4203 U4182 2.449 . S
O4203 C4199 1.282 . S
H4204 C4177 0.931 . S
H4205 C4179 0.929 . S
H4206 C4180 0.930 . S
H4207 C4181 0.931 . S
H4208 C4188 0.932 . S
H4209 C4189 0.930 . S
H4210 C4190 0.929 . S
H4211 C4192 0.930 . S
H4212 C4194 0.932 . S
H4213 C4195 0.929 . S
H4214 C4196 0.928 . S
H4215 C4198 0.932 . S
C4216 C4217 1.264 . S
C4216 C4221 1.479 . S
C4216 C4226 1.465 . S
C4217 C4216 1.264 . S
C4217 C4219 1.339 . S
C4217 H4244 0.931 . S
C4218 C4219 1.395 . S
C4218 C4220 1.320 . S
C4219 C4217 1.339 . S
C4219 C4218 1.395 . S
C4219 H4245 0.929 . S
C4220 C4218 1.320 . S
C4220 C4221 1.405 . S
C4220 H4246 0.930 . S
C4221 C4216 1.479 . S
C4221 C4220 1.405 . S
C4221 H4247 0.931 . S
U4222 O4223 2.454 . S
U4222 O4224 2.458 . S
U4222 C4225 2.984 . S
U4222 C4226 2.847 . S
U4222 C4239 2.882 . S
U4222 O4240 2.441 . S
U4222 O4241 2.420 . S
U4222 O4242 2.455 . S
U4222 O4243 2.449 . S
O4223 U4222 2.454 . S
O4223 C4225 1.353 . S
O4224 U4222 2.458 . S
O4224 C4225 1.286 . S
C4225 U4222 2.984 . S
C4225 O4223 1.353 . S
C4225 O4224 1.286 . S
C4225 C4227 1.363 . S
C4226 C4216 1.465 . S
C4226 U4222 2.847 . S
C4226 O4240 1.249 . S
C4226 O4241 1.202 . S
C4227 C4225 1.363 . S
C4227 C4229 1.408 . S
C4227 C4232 1.342 . S
C4228 C4229 1.310 . S
C4228 C4231 1.461 . S
C4228 H4248 0.932 . S
C4229 C4227 1.408 . S
C4229 C4228 1.310 . S
C4229 H4249 0.930 . S
C4230 C4231 1.474 . S
C4230 C4232 1.285 . S
C4230 H4250 0.929 . S
C4231 C4228 1.461 . S
C4231 C4230 1.474 . S
C4232 C4227 1.342 . S
C4232 C4230 1.285 . S
C4232 H4251 0.930 . S
C4233 C4236 1.424 . S
C4233 C4238 1.245 . S
C4233 C4239 1.428 . S
C4234 C4237 1.260 . S
C4234 C4238 1.477 . S
C4234 H4252 0.932 . S
C4235 C4236 1.384 . S
C4235 C4237 1.479 . S
C4235 H4253 0.929 . S
C4236 C4233 1.424 . S
C4236 C4235 1.384 . S
C4236 H4254 0.928 . S
C4237 C4234 1.260 . S
C4237 C4235 1.479 . S
C4238 C4233 1.245 . S
C4238 C4234 1.477 . S
C4238 H4255 0.932 . S
C4239 U4222 2.882 . S
C4239 C4233 1.428 . S
C4239 O4242 1.301 . S
C4239 O4243 1.282 . S
O4240 U4222 2.441 . S
O4240 C4226 1.249 . S
O4241 U4222 2.420 . S
O4241 C4226 1.202 . S
O4242 U4222 2.455 . S
O4242 C4239 1.301 . S
O4243 U4222 2.449 . S
O4243 C4239 1.282 . S
H4244 C4217 0.931 . S
H4245 C4219 0.929 . S
H4246 C4220 0.930 . S
H4247 C4221 0.931 . S
H4248 C4228 0.932 . S
H4249 C4229 0.930 . S
H4250 C4230 0.929 . S
H4251 C4232 0.930 . S
H4252 C4234 0.932 . S
H4253 C4235 0.929 . S
H4254 C4236 0.928 . S
H4255 C4238 0.932 . S
C4256 C4257 1.264 . S
C4256 C4261 1.479 . S
C4256 C4266 1.465 . S
C4257 C4256 1.264 . S
C4257 C4259 1.339 . S
C4257 H4284 0.931 . S
C4258 C4259 1.395 . S
C4258 C4260 1.320 . S
C4259 C4257 1.339 . S
C4259 C4258 1.395 . S
C4259 H4285 0.929 . S
C4260 C4258 1.320 . S
C4260 C4261 1.405 . S
C4260 H4286 0.930 . S
C4261 C4256 1.479 . S
C4261 C4260 1.405 . S
C4261 H4287 0.931 . S
U4262 O4263 2.454 . S
U4262 O4264 2.458 . S
U4262 C4265 2.984 . S
U4262 C4266 2.847 . S
U4262 C4279 2.882 . S
U4262 O4280 2.441 . S
U4262 O4281 2.420 . S
U4262 O4282 2.455 . S
U4262 O4283 2.449 . S
O4263 U4262 2.454 . S
O4263 C4265 1.353 . S
O4264 U4262 2.458 . S
O4264 C4265 1.286 . S
C4265 U4262 2.984 . S
C4265 O4263 1.353 . S
C4265 O4264 1.286 . S
C4265 C4267 1.363 . S
C4266 C4256 1.465 . S
C4266 U4262 2.847 . S
C4266 O4280 1.249 . S
C4266 O4281 1.202 . S
C4267 C4265 1.363 . S
C4267 C4269 1.408 . S
C4267 C4272 1.342 . S
C4268 C4269 1.310 . S
C4268 C4271 1.461 . S
C4268 H4288 0.932 . S
C4269 C4267 1.408 . S
C4269 C4268 1.310 . S
C4269 H4289 0.930 . S
C4270 C4271 1.474 . S
C4270 C4272 1.285 . S
C4270 H4290 0.929 . S
C4271 C4268 1.461 . S
C4271 C4270 1.474 . S
C4272 C4267 1.342 . S
C4272 C4270 1.285 . S
C4272 H4291 0.930 . S
C4273 C4276 1.424 . S
C4273 C4278 1.245 . S
C4273 C4279 1.428 . S
C4274 C4277 1.260 . S
C4274 C4278 1.477 . S
C4274 H4292 0.932 . S
C4275 C4276 1.384 . S
C4275 C4277 1.479 . S
C4275 H4293 0.929 . S
C4276 C4273 1.424 . S
C4276 C4275 1.384 . S
C4276 H4294 0.928 . S
C4277 C4274 1.260 . S
C4277 C4275 1.479 . S
C4278 C4273 1.245 . S
C4278 C4274 1.477 . S
C4278 H4295 0.932 . S
C4279 U4262 2.882 . S
C4279 C4273 1.428 . S
C4279 O4282 1.301 . S
C4279 O4283 1.282 . S
O4280 U4262 2.441 . S
O4280 C4266 1.249 . S
O4281 U4262 2.420 . S
O4281 C4266 1.202 . S
O4282 U4262 2.455 . S
O4282 C4279 1.301 . S
O4283 U4262 2.449 . S
O4283 C4279 1.282 . S
H4284 C4257 0.931 . S
H4285 C4259 0.929 . S
H4286 C4260 0.930 . S
H4287 C4261 0.931 . S
H4288 C4268 0.932 . S
H4289 C4269 0.930 . S
H4290 C4270 0.929 . S
H4291 C4272 0.930 . S
H4292 C4274 0.932 . S
H4293 C4275 0.929 . S
H4294 C4276 0.928 . S
H4295 C4278 0.932 . S
C4296 C4297 1.264 . S
C4296 C4301 1.479 . S
C4296 C4306 1.465 . S
C4297 C4296 1.264 . S
C4297 C4299 1.339 . S
C4297 H4324 0.931 . S
C4298 C4299 1.395 . S
C4298 C4300 1.320 . S
C4299 C4297 1.339 . S
C4299 C4298 1.395 . S
C4299 H4325 0.929 . S
C4300 C4298 1.320 . S
C4300 C4301 1.405 . S
C4300 H4326 0.930 . S
C4301 C4296 1.479 . S
C4301 C4300 1.405 . S
C4301 H4327 0.931 . S
U4302 O4303 2.454 . S
U4302 O4304 2.458 . S
U4302 C4305 2.984 . S
U4302 C4306 2.847 . S
U4302 C4319 2.882 . S
U4302 O4320 2.441 . S
U4302 O4321 2.420 . S
U4302 O4322 2.455 . S
U4302 O4323 2.449 . S
O4303 U4302 2.454 . S
O4303 C4305 1.353 . S
O4304 U4302 2.458 . S
O4304 C4305 1.286 . S
C4305 U4302 2.984 . S
C4305 O4303 1.353 . S
C4305 O4304 1.286 . S
C4305 C4307 1.363 . S
C4306 C4296 1.465 . S
C4306 U4302 2.847 . S
C4306 O4320 1.249 . S
C4306 O4321 1.202 . S
C4307 C4305 1.363 . S
C4307 C4309 1.408 . S
C4307 C4312 1.342 . S
C4308 C4309 1.310 . S
C4308 C4311 1.461 . S
C4308 H4328 0.932 . S
C4309 C4307 1.408 . S
C4309 C4308 1.310 . S
C4309 H4329 0.930 . S
C4310 C4311 1.474 . S
C4310 C4312 1.285 . S
C4310 H4330 0.929 . S
C4311 C4308 1.461 . S
C4311 C4310 1.474 . S
C4312 C4307 1.342 . S
C4312 C4310 1.285 . S
C4312 H4331 0.930 . S
C4313 C4316 1.424 . S
C4313 C4318 1.245 . S
C4313 C4319 1.428 . S
C4314 C4317 1.260 . S
C4314 C4318 1.477 . S
C4314 H4332 0.932 . S
C4315 C4316 1.384 . S
C4315 C4317 1.479 . S
C4315 H4333 0.929 . S
C4316 C4313 1.424 . S
C4316 C4315 1.384 . S
C4316 H4334 0.928 . S
C4317 C4314 1.260 . S
C4317 C4315 1.479 . S
C4318 C4313 1.245 . S
C4318 C4314 1.477 . S
C4318 H4335 0.932 . S
C4319 U4302 2.882 . S
C4319 C4313 1.428 . S
C4319 O4322 1.301 . S
C4319 O4323 1.282 . S
O4320 U4302 2.441 . S
O4320 C4306 1.249 . S
O4321 U4302 2.420 . S
O4321 C4306 1.202 . S
O4322 U4302 2.455 . S
O4322 C4319 1.301 . S
O4323 U4302 2.449 . S
O4323 C4319 1.282 . S
H4324 C4297 0.931 . S
H4325 C4299 0.929 . S
H4326 C4300 0.930 . S
H4327 C4301 0.931 . S
H4328 C4308 0.932 . S
H4329 C4309 0.930 . S
H4330 C4310 0.929 . S
H4331 C4312 0.930 . S
H4332 C4314 0.932 . S
H4333 C4315 0.929 . S
H4334 C4316 0.928 . S
H4335 C4318 0.932 . S
C4336 C4337 1.264 . S
C4336 C4341 1.479 . S
C4336 C4346 1.465 . S
C4337 C4336 1.264 . S
C4337 C4339 1.339 . S
C4337 H4364 0.931 . S
C4338 C4339 1.395 . S
C4338 C4340 1.320 . S
C4339 C4337 1.339 . S
C4339 C4338 1.395 . S
C4339 H4365 0.929 . S
C4340 C4338 1.320 . S
C4340 C4341 1.405 . S
C4340 H4366 0.930 . S
C4341 C4336 1.479 . S
C4341 C4340 1.405 . S
C4341 H4367 0.931 . S
U4342 O4343 2.454 . S
U4342 O4344 2.458 . S
U4342 C4345 2.984 . S
U4342 C4346 2.847 . S
U4342 C4359 2.882 . S
U4342 O4360 2.441 . S
U4342 O4361 2.420 . S
U4342 O4362 2.455 . S
U4342 O4363 2.449 . S
O4343 U4342 2.454 . S
O4343 C4345 1.353 . S
O4344 U4342 2.458 . S
O4344 C4345 1.286 . S
C4345 U4342 2.984 . S
C4345 O4343 1.353 . S
C4345 O4344 1.286 . S
C4345 C4347 1.363 . S
C4346 C4336 1.465 . S
C4346 U4342 2.847 . S
C4346 O4360 1.249 . S
C4346 O4361 1.202 . S
C4347 C4345 1.363 . S
C4347 C4349 1.408 . S
C4347 C4352 1.342 . S
C4348 C4349 1.310 . S
C4348 C4351 1.461 . S
C4348 H4368 0.932 . S
C4349 C4347 1.408 . S
C4349 C4348 1.310 . S
C4349 H4369 0.930 . S
C4350 C4351 1.474 . S
C4350 C4352 1.285 . S
C4350 H4370 0.929 . S
C4351 C4348 1.461 . S
C4351 C4350 1.474 . S
C4352 C4347 1.342 . S
C4352 C4350 1.285 . S
C4352 H4371 0.930 . S
C4353 C4356 1.424 . S
C4353 C4358 1.245 . S
C4353 C4359 1.428 . S
C4354 C4357 1.260 . S
C4354 C4358 1.477 . S
C4354 H4372 0.932 . S
C4355 C4356 1.384 . S
C4355 C4357 1.479 . S
C4355 H4373 0.929 . S
C4356 C4353 1.424 . S
C4356 C4355 1.384 . S
C4356 H4374 0.928 . S
C4357 C4354 1.260 . S
C4357 C4355 1.479 . S
C4358 C4353 1.245 . S
C4358 C4354 1.477 . S
C4358 H4375 0.932 . S
C4359 U4342 2.882 . S
C4359 C4353 1.428 . S
C4359 O4362 1.301 . S
C4359 O4363 1.282 . S
O4360 U4342 2.441 . S
O4360 C4346 1.249 . S
O4361 U4342 2.420 . S
O4361 C4346 1.202 . S
O4362 U4342 2.455 . S
O4362 C4359 1.301 . S
O4363 U4342 2.449 . S
O4363 C4359 1.282 . S
H4364 C4337 0.931 . S
H4365 C4339 0.929 . S
H4366 C4340 0.930 . S
H4367 C4341 0.931 . S
H4368 C4348 0.932 . S
H4369 C4349 0.930 . S
H4370 C4350 0.929 . S
H4371 C4352 0.930 . S
H4372 C4354 0.932 . S
H4373 C4355 0.929 . S
H4374 C4356 0.928 . S
H4375 C4358 0.932 . S
C4376 C4377 1.264 . S
C4376 C4381 1.479 . S
C4376 C4386 1.465 . S
C4377 C4376 1.264 . S
C4377 C4379 1.339 . S
C4377 H4404 0.931 . S
C4378 C4379 1.395 . S
C4378 C4380 1.320 . S
C4379 C4377 1.339 . S
C4379 C4378 1.395 . S
C4379 H4405 0.929 . S
C4380 C4378 1.320 . S
C4380 C4381 1.405 . S
C4380 H4406 0.930 . S
C4381 C4376 1.479 . S
C4381 C4380 1.405 . S
C4381 H4407 0.931 . S
U4382 O4383 2.454 . S
U4382 O4384 2.458 . S
U4382 C4385 2.984 . S
U4382 C4386 2.847 . S
U4382 C4399 2.882 . S
U4382 O4400 2.441 . S
U4382 O4401 2.420 . S
U4382 O4402 2.455 . S
U4382 O4403 2.449 . S
O4383 U4382 2.454 . S
O4383 C4385 1.353 . S
O4384 U4382 2.458 . S
O4384 C4385 1.286 . S
C4385 U4382 2.984 . S
C4385 O4383 1.353 . S
C4385 O4384 1.286 . S
C4385 C4387 1.363 . S
C4386 C4376 1.465 . S
C4386 U4382 2.847 . S
C4386 O4400 1.249 . S
C4386 O4401 1.202 . S
C4387 C4385 1.363 . S
C4387 C4389 1.408 . S
C4387 C4392 1.342 . S
C4388 C4389 1.310 . S
C4388 C4391 1.461 . S
C4388 H4408 0.932 . S
C4389 C4387 1.408 . S
C4389 C4388 1.310 . S
C4389 H4409 0.930 . S
C4390 C4391 1.474 . S
C4390 C4392 1.285 . S
C4390 H4410 0.929 . S
C4391 C4388 1.461 . S
C4391 C4390 1.474 . S
C4392 C4387 1.342 . S
C4392 C4390 1.285 . S
C4392 H4411 0.930 . S
C4393 C4396 1.424 . S
C4393 C4398 1.245 . S
C4393 C4399 1.428 . S
C4394 C4397 1.260 . S
C4394 C4398 1.477 . S
C4394 H4412 0.932 . S
C4395 C4396 1.384 . S
C4395 C4397 1.479 . S
C4395 H4413 0.929 . S
C4396 C4393 1.424 . S
C4396 C4395 1.384 . S
C4396 H4414 0.928 . S
C4397 C4394 1.260 . S
C4397 C4395 1.479 . S
C4398 C4393 1.245 . S
C4398 C4394 1.477 . S
C4398 H4415 0.932 . S
C4399 U4382 2.882 . S
C4399 C4393 1.428 . S
C4399 O4402 1.301 . S
C4399 O4403 1.282 . S
O4400 U4382 2.441 . S
O4400 C4386 1.249 . S
O4401 U4382 2.420 . S
O4401 C4386 1.202 . S
O4402 U4382 2.455 . S
O4402 C4399 1.301 . S
O4403 U4382 2.449 . S
O4403 C4399 1.282 . S
H4404 C4377 0.931 . S
H4405 C4379 0.929 . S
H4406 C4380 0.930 . S
H4407 C4381 0.931 . S
H4408 C4388 0.932 . S
H4409 C4389 0.930 . S
H4410 C4390 0.929 . S
H4411 C4392 0.930 . S
H4412 C4394 0.932 . S
H4413 C4395 0.929 . S
H4414 C4396 0.928 . S
H4415 C4398 0.932 . S
C4416 C4417 1.264 . S
C4416 C4421 1.479 . S
C4416 C4426 1.465 . S
C4417 C4416 1.264 . S
C4417 C4419 1.339 . S
C4417 H4444 0.931 . S
C4418 C4419 1.395 . S
C4418 C4420 1.320 . S
C4419 C4417 1.339 . S
C4419 C4418 1.395 . S
C4419 H4445 0.929 . S
C4420 C4418 1.320 . S
C4420 C4421 1.405 . S
C4420 H4446 0.930 . S
C4421 C4416 1.479 . S
C4421 C4420 1.405 . S
C4421 H4447 0.931 . S
U4422 O4423 2.454 . S
U4422 O4424 2.458 . S
U4422 C4425 2.984 . S
U4422 C4426 2.847 . S
U4422 C4439 2.882 . S
U4422 O4440 2.441 . S
U4422 O4441 2.420 . S
U4422 O4442 2.455 . S
U4422 O4443 2.449 . S
O4423 U4422 2.454 . S
O4423 C4425 1.353 . S
O4424 U4422 2.458 . S
O4424 C4425 1.286 . S
C4425 U4422 2.984 . S
C4425 O4423 1.353 . S
C4425 O4424 1.286 . S
C4425 C4427 1.363 . S
C4426 C4416 1.465 . S
C4426 U4422 2.847 . S
C4426 O4440 1.249 . S
C4426 O4441 1.202 . S
C4427 C4425 1.363 . S
C4427 C4429 1.408 . S
C4427 C4432 1.342 . S
C4428 C4429 1.310 . S
C4428 C4431 1.461 . S
C4428 H4448 0.932 . S
C4429 C4427 1.408 . S
C4429 C4428 1.310 . S
C4429 H4449 0.930 . S
C4430 C4431 1.474 . S
C4430 C4432 1.285 . S
C4430 H4450 0.929 . S
C4431 C4428 1.461 . S
C4431 C4430 1.474 . S
C4432 C4427 1.342 . S
C4432 C4430 1.285 . S
C4432 H4451 0.930 . S
C4433 C4436 1.424 . S
C4433 C4438 1.245 . S
C4433 C4439 1.428 . S
C4434 C4437 1.260 . S
C4434 C4438 1.477 . S
C4434 H4452 0.932 . S
C4435 C4436 1.384 . S
C4435 C4437 1.479 . S
C4435 H4453 0.929 . S
C4436 C4433 1.424 . S
C4436 C4435 1.384 . S
C4436 H4454 0.928 . S
C4437 C4434 1.260 . S
C4437 C4435 1.479 . S
C4438 C4433 1.245 . S
C4438 C4434 1.477 . S
C4438 H4455 0.932 . S
C4439 U4422 2.882 . S
C4439 C4433 1.428 . S
C4439 O4442 1.301 . S
C4439 O4443 1.282 . S
O4440 U4422 2.441 . S
O4440 C4426 1.249 . S
O4441 U4422 2.420 . S
O4441 C4426 1.202 . S
O4442 U4422 2.455 . S
O4442 C4439 1.301 . S
O4443 U4422 2.449 . S
O4443 C4439 1.282 . S
H4444 C4417 0.931 . S
H4445 C4419 0.929 . S
H4446 C4420 0.930 . S
H4447 C4421 0.931 . S
H4448 C4428 0.932 . S
H4449 C4429 0.930 . S
H4450 C4430 0.929 . S
H4451 C4432 0.930 . S
H4452 C4434 0.932 . S
H4453 C4435 0.929 . S
H4454 C4436 0.928 . S
H4455 C4438 0.932 . S
C4456 C4457 1.264 . S
C4456 C4461 1.479 . S
C4456 C4466 1.465 . S
C4457 C4456 1.264 . S
C4457 C4459 1.339 . S
C4457 H4484 0.931 . S
C4458 C4459 1.395 . S
C4458 C4460 1.320 . S
C4459 C4457 1.339 . S
C4459 C4458 1.395 . S
C4459 H4485 0.929 . S
C4460 C4458 1.320 . S
C4460 C4461 1.405 . S
C4460 H4486 0.930 . S
C4461 C4456 1.479 . S
C4461 C4460 1.405 . S
C4461 H4487 0.931 . S
U4462 O4463 2.454 . S
U4462 O4464 2.458 . S
U4462 C4465 2.984 . S
U4462 C4466 2.847 . S
U4462 C4479 2.882 . S
U4462 O4480 2.441 . S
U4462 O4481 2.420 . S
U4462 O4482 2.455 . S
U4462 O4483 2.449 . S
O4463 U4462 2.454 . S
O4463 C4465 1.353 . S
O4464 U4462 2.458 . S
O4464 C4465 1.286 . S
C4465 U4462 2.984 . S
C4465 O4463 1.353 . S
C4465 O4464 1.286 . S
C4465 C4467 1.363 . S
C4466 C4456 1.465 . S
C4466 U4462 2.847 . S
C4466 O4480 1.249 . S
C4466 O4481 1.202 . S
C4467 C4465 1.363 . S
C4467 C4469 1.408 . S
C4467 C4472 1.342 . S
C4468 C4469 1.310 . S
C4468 C4471 1.461 . S
C4468 H4488 0.932 . S
C4469 C4467 1.408 . S
C4469 C4468 1.310 . S
C4469 H4489 0.930 . S
C4470 C4471 1.474 . S
C4470 C4472 1.285 . S
C4470 H4490 0.929 . S
C4471 C4468 1.461 . S
C4471 C4470 1.474 . S
C4472 C4467 1.342 . S
C4472 C4470 1.285 . S
C4472 H4491 0.930 . S
C4473 C4476 1.424 . S
C4473 C4478 1.245 . S
C4473 C4479 1.428 . S
C4474 C4477 1.260 . S
C4474 C4478 1.477 . S
C4474 H4492 0.932 . S
C4475 C4476 1.384 . S
C4475 C4477 1.479 . S
C4475 H4493 0.929 . S
C4476 C4473 1.424 . S
C4476 C4475 1.384 . S
C4476 H4494 0.928 . S
C4477 C4474 1.260 . S
C4477 C4475 1.479 . S
C4478 C4473 1.245 . S
C4478 C4474 1.477 . S
C4478 H4495 0.932 . S
C4479 U4462 2.882 . S
C4479 C4473 1.428 . S
C4479 O4482 1.301 . S
C4479 O4483 1.282 . S
O4480 U4462 2.441 . S
O4480 C4466 1.249 . S
O4481 U4462 2.420 . S
O4481 C4466 1.202 . S
O4482 U4462 2.455 . S
O4482 C4479 1.301 . S
O4483 U4462 2.449 . S
O4483 C4479 1.282 . S
H4484 C4457 0.931 . S
H4485 C4459 0.929 . S
H4486 C4460 0.930 . S
H4487 C4461 0.931 . S
H4488 C4468 0.932 . S
H4489 C4469 0.930 . S
H4490 C4470 0.929 . S
H4491 C4472 0.930 . S
H4492 C4474 0.932 . S
H4493 C4475 0.929 . S
H4494 C4476 0.928 . S
H4495 C4478 0.932 . S
C4496 C4497 1.264 . S
C4496 C4501 1.479 . S
C4496 C4506 1.465 . S
C4497 C4496 1.264 . S
C4497 C4499 1.339 . S
C4497 H4524 0.931 . S
C4498 C4499 1.395 . S
C4498 C4500 1.320 . S
C4499 C4497 1.339 . S
C4499 C4498 1.395 . S
C4499 H4525 0.929 . S
C4500 C4498 1.320 . S
C4500 C4501 1.405 . S
C4500 H4526 0.930 . S
C4501 C4496 1.479 . S
C4501 C4500 1.405 . S
C4501 H4527 0.931 . S
U4502 O4503 2.454 . S
U4502 O4504 2.458 . S
U4502 C4505 2.984 . S
U4502 C4506 2.847 . S
U4502 C4519 2.882 . S
U4502 O4520 2.441 . S
U4502 O4521 2.420 . S
U4502 O4522 2.455 . S
U4502 O4523 2.449 . S
O4503 U4502 2.454 . S
O4503 C4505 1.353 . S
O4504 U4502 2.458 . S
O4504 C4505 1.286 . S
C4505 U4502 2.984 . S
C4505 O4503 1.353 . S
C4505 O4504 1.286 . S
C4505 C4507 1.363 . S
C4506 C4496 1.465 . S
C4506 U4502 2.847 . S
C4506 O4520 1.249 . S
C4506 O4521 1.202 . S
C4507 C4505 1.363 . S
C4507 C4509 1.408 . S
C4507 C4512 1.342 . S
C4508 C4509 1.310 . S
C4508 C4511 1.461 . S
C4508 H4528 0.932 . S
C4509 C4507 1.408 . S
C4509 C4508 1.310 . S
C4509 H4529 0.930 . S
C4510 C4511 1.474 . S
C4510 C4512 1.285 . S
C4510 H4530 0.929 . S
C4511 C4508 1.461 . S
C4511 C4510 1.474 . S
C4512 C4507 1.342 . S
C4512 C4510 1.285 . S
C4512 H4531 0.930 . S
C4513 C4516 1.424 . S
C4513 C4518 1.245 . S
C4513 C4519 1.428 . S
C4514 C4517 1.260 . S
C4514 C4518 1.477 . S
C4514 H4532 0.932 . S
C4515 C4516 1.384 . S
C4515 C4517 1.479 . S
C4515 H4533 0.929 . S
C4516 C4513 1.424 . S
C4516 C4515 1.384 . S
C4516 H4534 0.928 . S
C4517 C4514 1.260 . S
C4517 C4515 1.479 . S
C4518 C4513 1.245 . S
C4518 C4514 1.477 . S
C4518 H4535 0.932 . S
C4519 U4502 2.882 . S
C4519 C4513 1.428 . S
C4519 O4522 1.301 . S
C4519 O4523 1.282 . S
O4520 U4502 2.441 . S
O4520 C4506 1.249 . S
O4521 U4502 2.420 . S
O4521 C4506 1.202 . S
O4522 U4502 2.455 . S
O4522 C4519 1.301 . S
O4523 U4502 2.449 . S
O4523 C4519 1.282 . S
H4524 C4497 0.931 . S
H4525 C4499 0.929 . S
H4526 C4500 0.930 . S
H4527 C4501 0.931 . S
H4528 C4508 0.932 . S
H4529 C4509 0.930 . S
H4530 C4510 0.929 . S
H4531 C4512 0.930 . S
H4532 C4514 0.932 . S
H4533 C4515 0.929 . S
H4534 C4516 0.928 . S
H4535 C4518 0.932 . S
C4536 C4537 1.264 . S
C4536 C4541 1.479 . S
C4536 C4546 1.465 . S
C4537 C4536 1.264 . S
C4537 C4539 1.339 . S
C4537 H4564 0.931 . S
C4538 C4539 1.395 . S
C4538 C4540 1.320 . S
C4539 C4537 1.339 . S
C4539 C4538 1.395 . S
C4539 H4565 0.929 . S
C4540 C4538 1.320 . S
C4540 C4541 1.405 . S
C4540 H4566 0.930 . S
C4541 C4536 1.479 . S
C4541 C4540 1.405 . S
C4541 H4567 0.931 . S
U4542 O4543 2.454 . S
U4542 O4544 2.458 . S
U4542 C4545 2.984 . S
U4542 C4546 2.847 . S
U4542 C4559 2.882 . S
U4542 O4560 2.441 . S
U4542 O4561 2.420 . S
U4542 O4562 2.455 . S
U4542 O4563 2.449 . S
O4543 U4542 2.454 . S
O4543 C4545 1.353 . S
O4544 U4542 2.458 . S
O4544 C4545 1.286 . S
C4545 U4542 2.984 . S
C4545 O4543 1.353 . S
C4545 O4544 1.286 . S
C4545 C4547 1.363 . S
C4546 C4536 1.465 . S
C4546 U4542 2.847 . S
C4546 O4560 1.249 . S
C4546 O4561 1.202 . S
C4547 C4545 1.363 . S
C4547 C4549 1.408 . S
C4547 C4552 1.342 . S
C4548 C4549 1.310 . S
C4548 C4551 1.461 . S
C4548 H4568 0.932 . S
C4549 C4547 1.408 . S
C4549 C4548 1.310 . S
C4549 H4569 0.930 . S
C4550 C4551 1.474 . S
C4550 C4552 1.285 . S
C4550 H4570 0.929 . S
C4551 C4548 1.461 . S
C4551 C4550 1.474 . S
C4552 C4547 1.342 . S
C4552 C4550 1.285 . S
C4552 H4571 0.930 . S
C4553 C4556 1.424 . S
C4553 C4558 1.245 . S
C4553 C4559 1.428 . S
C4554 C4557 1.260 . S
C4554 C4558 1.477 . S
C4554 H4572 0.932 . S
C4555 C4556 1.384 . S
C4555 C4557 1.479 . S
C4555 H4573 0.929 . S
C4556 C4553 1.424 . S
C4556 C4555 1.384 . S
C4556 H4574 0.928 . S
C4557 C4554 1.260 . S
C4557 C4555 1.479 . S
C4558 C4553 1.245 . S
C4558 C4554 1.477 . S
C4558 H4575 0.932 . S
C4559 U4542 2.882 . S
C4559 C4553 1.428 . S
C4559 O4562 1.301 . S
C4559 O4563 1.282 . S
O4560 U4542 2.441 . S
O4560 C4546 1.249 . S
O4561 U4542 2.420 . S
O4561 C4546 1.202 . S
O4562 U4542 2.455 . S
O4562 C4559 1.301 . S
O4563 U4542 2.449 . S
O4563 C4559 1.282 . S
H4564 C4537 0.931 . S
H4565 C4539 0.929 . S
H4566 C4540 0.930 . S
H4567 C4541 0.931 . S
H4568 C4548 0.932 . S
H4569 C4549 0.930 . S
H4570 C4550 0.929 . S
H4571 C4552 0.930 . S
H4572 C4554 0.932 . S
H4573 C4555 0.929 . S
H4574 C4556 0.928 . S
H4575 C4558 0.932 . S
C4576 C4577 1.264 . S
C4576 C4581 1.479 . S
C4576 C4586 1.465 . S
C4577 C4576 1.264 . S
C4577 C4579 1.339 . S
C4577 H4604 0.931 . S
C4578 C4579 1.395 . S
C4578 C4580 1.320 . S
C4579 C4577 1.339 . S
C4579 C4578 1.395 . S
C4579 H4605 0.929 . S
C4580 C4578 1.320 . S
C4580 C4581 1.405 . S
C4580 H4606 0.930 . S
C4581 C4576 1.479 . S
C4581 C4580 1.405 . S
C4581 H4607 0.931 . S
U4582 O4583 2.454 . S
U4582 O4584 2.458 . S
U4582 C4585 2.984 . S
U4582 C4586 2.847 . S
U4582 C4599 2.882 . S
U4582 O4600 2.441 . S
U4582 O4601 2.420 . S
U4582 O4602 2.455 . S
U4582 O4603 2.449 . S
O4583 U4582 2.454 . S
O4583 C4585 1.353 . S
O4584 U4582 2.458 . S
O4584 C4585 1.286 . S
C4585 U4582 2.984 . S
C4585 O4583 1.353 . S
C4585 O4584 1.286 . S
C4585 C4587 1.363 . S
C4586 C4576 1.465 . S
C4586 U4582 2.847 . S
C4586 O4600 1.249 . S
C4586 O4601 1.202 . S
C4587 C4585 1.363 . S
C4587 C4589 1.408 . S
C4587 C4592 1.342 . S
C4588 C4589 1.310 . S
C4588 C4591 1.461 . S
C4588 H4608 0.932 . S
C4589 C4587 1.408 . S
C4589 C4588 1.310 . S
C4589 H4609 0.930 . S
C4590 C4591 1.474 . S
C4590 C4592 1.285 . S
C4590 H4610 0.929 . S
C4591 C4588 1.461 . S
C4591 C4590 1.474 . S
C4592 C4587 1.342 . S
C4592 C4590 1.285 . S
C4592 H4611 0.930 . S
C4593 C4596 1.424 . S
C4593 C4598 1.245 . S
C4593 C4599 1.428 . S
C4594 C4597 1.260 . S
C4594 C4598 1.477 . S
C4594 H4612 0.932 . S
C4595 C4596 1.384 . S
C4595 C4597 1.479 . S
C4595 H4613 0.929 . S
C4596 C4593 1.424 . S
C4596 C4595 1.384 . S
C4596 H4614 0.928 . S
C4597 C4594 1.260 . S
C4597 C4595 1.479 . S
C4598 C4593 1.245 . S
C4598 C4594 1.477 . S
C4598 H4615 0.932 . S
C4599 U4582 2.882 . S
C4599 C4593 1.428 . S
C4599 O4602 1.301 . S
C4599 O4603 1.282 . S
O4600 U4582 2.441 . S
O4600 C4586 1.249 . S
O4601 U4582 2.420 . S
O4601 C4586 1.202 . S
O4602 U4582 2.455 . S
O4602 C4599 1.301 . S
O4603 U4582 2.449 . S
O4603 C4599 1.282 . S
H4604 C4577 0.931 . S
H4605 C4579 0.929 . S
H4606 C4580 0.930 . S
H4607 C4581 0.931 . S
H4608 C4588 0.932 . S
H4609 C4589 0.930 . S
H4610 C4590 0.929 . S
H4611 C4592 0.930 . S
H4612 C4594 0.932 . S
H4613 C4595 0.929 . S
H4614 C4596 0.928 . S
H4615 C4598 0.932 . S
C4616 C4617 1.264 . S
C4616 C4621 1.479 . S
C4616 C4626 1.465 . S
C4617 C4616 1.264 . S
C4617 C4619 1.339 . S
C4617 H4644 0.931 . S
C4618 C4619 1.395 . S
C4618 C4620 1.320 . S
C4619 C4617 1.339 . S
C4619 C4618 1.395 . S
C4619 H4645 0.929 . S
C4620 C4618 1.320 . S
C4620 C4621 1.405 . S
C4620 H4646 0.930 . S
C4621 C4616 1.479 . S
C4621 C4620 1.405 . S
C4621 H4647 0.931 . S
U4622 O4623 2.454 . S
U4622 O4624 2.458 . S
U4622 C4625 2.984 . S
U4622 C4626 2.847 . S
U4622 C4639 2.882 . S
U4622 O4640 2.441 . S
U4622 O4641 2.420 . S
U4622 O4642 2.455 . S
U4622 O4643 2.449 . S
O4623 U4622 2.454 . S
O4623 C4625 1.353 . S
O4624 U4622 2.458 . S
O4624 C4625 1.286 . S
C4625 U4622 2.984 . S
C4625 O4623 1.353 . S
C4625 O4624 1.286 . S
C4625 C4627 1.363 . S
C4626 C4616 1.465 . S
C4626 U4622 2.847 . S
C4626 O4640 1.249 . S
C4626 O4641 1.202 . S
C4627 C4625 1.363 . S
C4627 C4629 1.408 . S
C4627 C4632 1.342 . S
C4628 C4629 1.310 . S
C4628 C4631 1.461 . S
C4628 H4648 0.932 . S
C4629 C4627 1.408 . S
C4629 C4628 1.310 . S
C4629 H4649 0.930 . S
C4630 C4631 1.474 . S
C4630 C4632 1.285 . S
C4630 H4650 0.929 . S
C4631 C4628 1.461 . S
C4631 C4630 1.474 . S
C4632 C4627 1.342 . S
C4632 C4630 1.285 . S
C4632 H4651 0.930 . S
C4633 C4636 1.424 . S
C4633 C4638 1.245 . S
C4633 C4639 1.428 . S
C4634 C4637 1.260 . S
C4634 C4638 1.477 . S
C4634 H4652 0.932 . S
C4635 C4636 1.384 . S
C4635 C4637 1.479 . S
C4635 H4653 0.929 . S
C4636 C4633 1.424 . S
C4636 C4635 1.384 . S
C4636 H4654 0.928 . S
C4637 C4634 1.260 . S
C4637 C4635 1.479 . S
C4638 C4633 1.245 . S
C4638 C4634 1.477 . S
C4638 H4655 0.932 . S
C4639 U4622 2.882 . S
C4639 C4633 1.428 . S
C4639 O4642 1.301 . S
C4639 O4643 1.282 . S
O4640 U4622 2.441 . S
O4640 C4626 1.249 . S
O4641 U4622 2.420 . S
O4641 C4626 1.202 . S
O4642 U4622 2.455 . S
O4642 C4639 1.301 . S
O4643 U4622 2.449 . S
O4643 C4639 1.282 . S
H4644 C4617 0.931 . S
H4645 C4619 0.929 . S
H4646 C4620 0.930 . S
H4647 C4621 0.931 . S
H4648 C4628 0.932 . S
H4649 C4629 0.930 . S
H4650 C4630 0.929 . S
H4651 C4632 0.930 . S
H4652 C4634 0.932 . S
H4653 C4635 0.929 . S
H4654 C4636 0.928 . S
H4655 C4638 0.932 . S
C4656 C4657 1.264 . S
C4656 C4661 1.479 . S
C4656 C4666 1.465 . S
C4657 C4656 1.264 . S
C4657 C4659 1.339 . S
C4657 H4684 0.931 . S
C4658 C4659 1.395 . S
C4658 C4660 1.320 . S
C4659 C4657 1.339 . S
C4659 C4658 1.395 . S
C4659 H4685 0.929 . S
C4660 C4658 1.320 . S
C4660 C4661 1.405 . S
C4660 H4686 0.930 . S
C4661 C4656 1.479 . S
C4661 C4660 1.405 . S
C4661 H4687 0.931 . S
U4662 O4663 2.454 . S
U4662 O4664 2.458 . S
U4662 C4665 2.984 . S
U4662 C4666 2.847 . S
U4662 C4679 2.882 . S
U4662 O4680 2.441 . S
U4662 O4681 2.420 . S
U4662 O4682 2.455 . S
U4662 O4683 2.449 . S
O4663 U4662 2.454 . S
O4663 C4665 1.353 . S
O4664 U4662 2.458 . S
O4664 C4665 1.286 . S
C4665 U4662 2.984 . S
C4665 O4663 1.353 . S
C4665 O4664 1.286 . S
C4665 C4667 1.363 . S
C4666 C4656 1.465 . S
C4666 U4662 2.847 . S
C4666 O4680 1.249 . S
C4666 O4681 1.202 . S
C4667 C4665 1.363 . S
C4667 C4669 1.408 . S
C4667 C4672 1.342 . S
C4668 C4669 1.310 . S
C4668 C4671 1.461 . S
C4668 H4688 0.932 . S
C4669 C4667 1.408 . S
C4669 C4668 1.310 . S
C4669 H4689 0.930 . S
C4670 C4671 1.474 . S
C4670 C4672 1.285 . S
C4670 H4690 0.929 . S
C4671 C4668 1.461 . S
C4671 C4670 1.474 . S
C4672 C4667 1.342 . S
C4672 C4670 1.285 . S
C4672 H4691 0.930 . S
C4673 C4676 1.424 . S
C4673 C4678 1.245 . S
C4673 C4679 1.428 . S
C4674 C4677 1.260 . S
C4674 C4678 1.477 . S
C4674 H4692 0.932 . S
C4675 C4676 1.384 . S
C4675 C4677 1.479 . S
C4675 H4693 0.929 . S
C4676 C4673 1.424 . S
C4676 C4675 1.384 . S
C4676 H4694 0.928 . S
C4677 C4674 1.260 . S
C4677 C4675 1.479 . S
C4678 C4673 1.245 . S
C4678 C4674 1.477 . S
C4678 H4695 0.932 . S
C4679 U4662 2.882 . S
C4679 C4673 1.428 . S
C4679 O4682 1.301 . S
C4679 O4683 1.282 . S
O4680 U4662 2.441 . S
O4680 C4666 1.249 . S
O4681 U4662 2.420 . S
O4681 C4666 1.202 . S
O4682 U4662 2.455 . S
O4682 C4679 1.301 . S
O4683 U4662 2.449 . S
O4683 C4679 1.282 . S
H4684 C4657 0.931 . S
H4685 C4659 0.929 . S
H4686 C4660 0.930 . S
H4687 C4661 0.931 . S
H4688 C4668 0.932 . S
H4689 C4669 0.930 . S
H4690 C4670 0.929 . S
H4691 C4672 0.930 . S
H4692 C4674 0.932 . S
H4693 C4675 0.929 . S
H4694 C4676 0.928 . S
H4695 C4678 0.932 . S
C4696 C4697 1.264 . S
C4696 C4701 1.479 . S
C4696 C4706 1.465 . S
C4697 C4696 1.264 . S
C4697 C4699 1.339 . S
C4697 H4724 0.931 . S
C4698 C4699 1.395 . S
C4698 C4700 1.320 . S
C4699 C4697 1.339 . S
C4699 C4698 1.395 . S
C4699 H4725 0.929 . S
C4700 C4698 1.320 . S
C4700 C4701 1.405 . S
C4700 H4726 0.930 . S
C4701 C4696 1.479 . S
C4701 C4700 1.405 . S
C4701 H4727 0.931 . S
U4702 O4703 2.454 . S
U4702 O4704 2.458 . S
U4702 C4705 2.984 . S
U4702 C4706 2.847 . S
U4702 C4719 2.882 . S
U4702 O4720 2.441 . S
U4702 O4721 2.420 . S
U4702 O4722 2.455 . S
U4702 O4723 2.449 . S
O4703 U4702 2.454 . S
O4703 C4705 1.353 . S
O4704 U4702 2.458 . S
O4704 C4705 1.286 . S
C4705 U4702 2.984 . S
C4705 O4703 1.353 . S
C4705 O4704 1.286 . S
C4705 C4707 1.363 . S
C4706 C4696 1.465 . S
C4706 U4702 2.847 . S
C4706 O4720 1.249 . S
C4706 O4721 1.202 . S
C4707 C4705 1.363 . S
C4707 C4709 1.408 . S
C4707 C4712 1.342 . S
C4708 C4709 1.310 . S
C4708 C4711 1.461 . S
C4708 H4728 0.932 . S
C4709 C4707 1.408 . S
C4709 C4708 1.310 . S
C4709 H4729 0.930 . S
C4710 C4711 1.474 . S
C4710 C4712 1.285 . S
C4710 H4730 0.929 . S
C4711 C4708 1.461 . S
C4711 C4710 1.474 . S
C4712 C4707 1.342 . S
C4712 C4710 1.285 . S
C4712 H4731 0.930 . S
C4713 C4716 1.424 . S
C4713 C4718 1.245 . S
C4713 C4719 1.428 . S
C4714 C4717 1.260 . S
C4714 C4718 1.477 . S
C4714 H4732 0.932 . S
C4715 C4716 1.384 . S
C4715 C4717 1.479 . S
C4715 H4733 0.929 . S
C4716 C4713 1.424 . S
C4716 C4715 1.384 . S
C4716 H4734 0.928 . S
C4717 C4714 1.260 . S
C4717 C4715 1.479 . S
C4718 C4713 1.245 . S
C4718 C4714 1.477 . S
C4718 H4735 0.932 . S
C4719 U4702 2.882 . S
C4719 C4713 1.428 . S
C4719 O4722 1.301 . S
C4719 O4723 1.282 . S
O4720 U4702 2.441 . S
O4720 C4706 1.249 . S
O4721 U4702 2.420 . S
O4721 C4706 1.202 . S
O4722 U4702 2.455 . S
O4722 C4719 1.301 . S
O4723 U4702 2.449 . S
O4723 C4719 1.282 . S
H4724 C4697 0.931 . S
H4725 C4699 0.929 . S
H4726 C4700 0.930 . S
H4727 C4701 0.931 . S
H4728 C4708 0.932 . S
H4729 C4709 0.930 . S
H4730 C4710 0.929 . S
H4731 C4712 0.930 . S
H4732 C4714 0.932 . S
H4733 C4715 0.929 . S
H4734 C4716 0.928 . S
H4735 C4718 0.932 . S
C4736 C4737 1.264 . S
C4736 C4741 1.479 . S
C4736 C4746 1.465 . S
C4737 C4736 1.264 . S
C4737 C4739 1.339 . S
C4737 H4764 0.931 . S
C4738 C4739 1.395 . S
C4738 C4740 1.320 . S
C4739 C4737 1.339 . S
C4739 C4738 1.395 . S
C4739 H4765 0.929 . S
C4740 C4738 1.320 . S
C4740 C4741 1.405 . S
C4740 H4766 0.930 . S
C4741 C4736 1.479 . S
C4741 C4740 1.405 . S
C4741 H4767 0.931 . S
U4742 O4743 2.454 . S
U4742 O4744 2.458 . S
U4742 C4745 2.984 . S
U4742 C4746 2.847 . S
U4742 C4759 2.882 . S
U4742 O4760 2.441 . S
U4742 O4761 2.420 . S
U4742 O4762 2.455 . S
U4742 O4763 2.449 . S
O4743 U4742 2.454 . S
O4743 C4745 1.353 . S
O4744 U4742 2.458 . S
O4744 C4745 1.286 . S
C4745 U4742 2.984 . S
C4745 O4743 1.353 . S
C4745 O4744 1.286 . S
C4745 C4747 1.363 . S
C4746 C4736 1.465 . S
C4746 U4742 2.847 . S
C4746 O4760 1.249 . S
C4746 O4761 1.202 . S
C4747 C4745 1.363 . S
C4747 C4749 1.408 . S
C4747 C4752 1.342 . S
C4748 C4749 1.310 . S
C4748 C4751 1.461 . S
C4748 H4768 0.932 . S
C4749 C4747 1.408 . S
C4749 C4748 1.310 . S
C4749 H4769 0.930 . S
C4750 C4751 1.474 . S
C4750 C4752 1.285 . S
C4750 H4770 0.929 . S
C4751 C4748 1.461 . S
C4751 C4750 1.474 . S
C4752 C4747 1.342 . S
C4752 C4750 1.285 . S
C4752 H4771 0.930 . S
C4753 C4756 1.424 . S
C4753 C4758 1.245 . S
C4753 C4759 1.428 . S
C4754 C4757 1.260 . S
C4754 C4758 1.477 . S
C4754 H4772 0.932 . S
C4755 C4756 1.384 . S
C4755 C4757 1.479 . S
C4755 H4773 0.929 . S
C4756 C4753 1.424 . S
C4756 C4755 1.384 . S
C4756 H4774 0.928 . S
C4757 C4754 1.260 . S
C4757 C4755 1.479 . S
C4758 C4753 1.245 . S
C4758 C4754 1.477 . S
C4758 H4775 0.932 . S
C4759 U4742 2.882 . S
C4759 C4753 1.428 . S
C4759 O4762 1.301 . S
C4759 O4763 1.282 . S
O4760 U4742 2.441 . S
O4760 C4746 1.249 . S
O4761 U4742 2.420 . S
O4761 C4746 1.202 . S
O4762 U4742 2.455 . S
O4762 C4759 1.301 . S
O4763 U4742 2.449 . S
O4763 C4759 1.282 . S
H4764 C4737 0.931 . S
H4765 C4739 0.929 . S
H4766 C4740 0.930 . S
H4767 C4741 0.931 . S
H4768 C4748 0.932 . S
H4769 C4749 0.930 . S
H4770 C4750 0.929 . S
H4771 C4752 0.930 . S
H4772 C4754 0.932 . S
H4773 C4755 0.929 . S
H4774 C4756 0.928 . S
H4775 C4758 0.932 . S
C4776 C4777 1.264 . S
C4776 C4781 1.479 . S
C4776 C4786 1.465 . S
C4777 C4776 1.264 . S
C4777 C4779 1.339 . S
C4777 H4804 0.931 . S
C4778 C4779 1.395 . S
C4778 C4780 1.320 . S
C4779 C4777 1.339 . S
C4779 C4778 1.395 . S
C4779 H4805 0.929 . S
C4780 C4778 1.320 . S
C4780 C4781 1.405 . S
C4780 H4806 0.930 . S
C4781 C4776 1.479 . S
C4781 C4780 1.405 . S
C4781 H4807 0.931 . S
U4782 O4783 2.454 . S
U4782 O4784 2.458 . S
U4782 C4785 2.984 . S
U4782 C4786 2.847 . S
U4782 C4799 2.882 . S
U4782 O4800 2.441 . S
U4782 O4801 2.420 . S
U4782 O4802 2.455 . S
U4782 O4803 2.449 . S
O4783 U4782 2.454 . S
O4783 C4785 1.353 . S
O4784 U4782 2.458 . S
O4784 C4785 1.286 . S
C4785 U4782 2.984 . S
C4785 O4783 1.353 . S
C4785 O4784 1.286 . S
C4785 C4787 1.363 . S
C4786 C4776 1.465 . S
C4786 U4782 2.847 . S
C4786 O4800 1.249 . S
C4786 O4801 1.202 . S
C4787 C4785 1.363 . S
C4787 C4789 1.408 . S
C4787 C4792 1.342 . S
C4788 C4789 1.310 . S
C4788 C4791 1.461 . S
C4788 H4808 0.932 . S
C4789 C4787 1.408 . S
C4789 C4788 1.310 . S
C4789 H4809 0.930 . S
C4790 C4791 1.474 . S
C4790 C4792 1.285 . S
C4790 H4810 0.929 . S
C4791 C4788 1.461 . S
C4791 C4790 1.474 . S
C4792 C4787 1.342 . S
C4792 C4790 1.285 . S
C4792 H4811 0.930 . S
C4793 C4796 1.424 . S
C4793 C4798 1.245 . S
C4793 C4799 1.428 . S
C4794 C4797 1.260 . S
C4794 C4798 1.477 . S
C4794 H4812 0.932 . S
C4795 C4796 1.384 . S
C4795 C4797 1.479 . S
C4795 H4813 0.929 . S
C4796 C4793 1.424 . S
C4796 C4795 1.384 . S
C4796 H4814 0.928 . S
C4797 C4794 1.260 . S
C4797 C4795 1.479 . S
C4798 C4793 1.245 . S
C4798 C4794 1.477 . S
C4798 H4815 0.932 . S
C4799 U4782 2.882 . S
C4799 C4793 1.428 . S
C4799 O4802 1.301 . S
C4799 O4803 1.282 . S
O4800 U4782 2.441 . S
O4800 C4786 1.249 . S
O4801 U4782 2.420 . S
O4801 C4786 1.202 . S
O4802 U4782 2.455 . S
O4802 C4799 1.301 . S
O4803 U4782 2.449 . S
O4803 C4799 1.282 . S
H4804 C4777 0.931 . S
H4805 C4779 0.929 . S
H4806 C4780 0.930 . S
H4807 C4781 0.931 . S
H4808 C4788 0.932 . S
H4809 C4789 0.930 . S
H4810 C4790 0.929 . S
H4811 C4792 0.930 . S
H4812 C4794 0.932 . S
H4813 C4795 0.929 . S
H4814 C4796 0.928 . S
H4815 C4798 0.932 . S
C4816 C4817 1.264 . S
C4816 C4821 1.479 . S
C4816 C4826 1.465 . S
C4817 C4816 1.264 . S
C4817 C4819 1.339 . S
C4817 H4844 0.931 . S
C4818 C4819 1.395 . S
C4818 C4820 1.320 . S
C4819 C4817 1.339 . S
C4819 C4818 1.395 . S
C4819 H4845 0.929 . S
C4820 C4818 1.320 . S
C4820 C4821 1.405 . S
C4820 H4846 0.930 . S
C4821 C4816 1.479 . S
C4821 C4820 1.405 . S
C4821 H4847 0.931 . S
U4822 O4823 2.454 . S
U4822 O4824 2.458 . S
U4822 C4825 2.984 . S
U4822 C4826 2.847 . S
U4822 C4839 2.882 . S
U4822 O4840 2.441 . S
U4822 O4841 2.420 . S
U4822 O4842 2.455 . S
U4822 O4843 2.449 . S
O4823 U4822 2.454 . S
O4823 C4825 1.353 . S
O4824 U4822 2.458 . S
O4824 C4825 1.286 . S
C4825 U4822 2.984 . S
C4825 O4823 1.353 . S
C4825 O4824 1.286 . S
C4825 C4827 1.363 . S
C4826 C4816 1.465 . S
C4826 U4822 2.847 . S
C4826 O4840 1.249 . S
C4826 O4841 1.202 . S
C4827 C4825 1.363 . S
C4827 C4829 1.408 . S
C4827 C4832 1.342 . S
C4828 C4829 1.310 . S
C4828 C4831 1.461 . S
C4828 H4848 0.932 . S
C4829 C4827 1.408 . S
C4829 C4828 1.310 . S
C4829 H4849 0.930 . S
C4830 C4831 1.474 . S
C4830 C4832 1.285 . S
C4830 H4850 0.929 . S
C4831 C4828 1.461 . S
C4831 C4830 1.474 . S
C4832 C4827 1.342 . S
C4832 C4830 1.285 . S
C4832 H4851 0.930 . S
C4833 C4836 1.424 . S
C4833 C4838 1.245 . S
C4833 C4839 1.428 . S
C4834 C4837 1.260 . S
C4834 C4838 1.477 . S
C4834 H4852 0.932 . S
C4835 C4836 1.384 . S
C4835 C4837 1.479 . S
C4835 H4853 0.929 . S
C4836 C4833 1.424 . S
C4836 C4835 1.384 . S
C4836 H4854 0.928 . S
C4837 C4834 1.260 . S
C4837 C4835 1.479 . S
C4838 C4833 1.245 . S
C4838 C4834 1.477 . S
C4838 H4855 0.932 . S
C4839 U4822 2.882 . S
C4839 C4833 1.428 . S
C4839 O4842 1.301 . S
C4839 O4843 1.282 . S
O4840 U4822 2.441 . S
O4840 C4826 1.249 . S
O4841 U4822 2.420 . S
O4841 C4826 1.202 . S
O4842 U4822 2.455 . S
O4842 C4839 1.301 . S
O4843 U4822 2.449 . S
O4843 C4839 1.282 . S
H4844 C4817 0.931 . S
H4845 C4819 0.929 . S
H4846 C4820 0.930 . S
H4847 C4821 0.931 . S
H4848 C4828 0.932 . S
H4849 C4829 0.930 . S
H4850 C4830 0.929 . S
H4851 C4832 0.930 . S
H4852 C4834 0.932 . S
H4853 C4835 0.929 . S
H4854 C4836 0.928 . S
H4855 C4838 0.932 . S
C4856 C4857 1.264 . S
C4856 C4861 1.479 . S
C4856 C4866 1.465 . S
C4857 C4856 1.264 . S
C4857 C4859 1.339 . S
C4857 H4884 0.931 . S
C4858 C4859 1.395 . S
C4858 C4860 1.320 . S
C4859 C4857 1.339 . S
C4859 C4858 1.395 . S
C4859 H4885 0.929 . S
C4860 C4858 1.320 . S
C4860 C4861 1.405 . S
C4860 H4886 0.930 . S
C4861 C4856 1.479 . S
C4861 C4860 1.405 . S
C4861 H4887 0.931 . S
U4862 O4863 2.454 . S
U4862 O4864 2.458 . S
U4862 C4865 2.984 . S
U4862 C4866 2.847 . S
U4862 C4879 2.882 . S
U4862 O4880 2.441 . S
U4862 O4881 2.420 . S
U4862 O4882 2.455 . S
U4862 O4883 2.449 . S
O4863 U4862 2.454 . S
O4863 C4865 1.353 . S
O4864 U4862 2.458 . S
O4864 C4865 1.286 . S
C4865 U4862 2.984 . S
C4865 O4863 1.353 . S
C4865 O4864 1.286 . S
C4865 C4867 1.363 . S
C4866 C4856 1.465 . S
C4866 U4862 2.847 . S
C4866 O4880 1.249 . S
C4866 O4881 1.202 . S
C4867 C4865 1.363 . S
C4867 C4869 1.408 . S
C4867 C4872 1.342 . S
C4868 C4869 1.310 . S
C4868 C4871 1.461 . S
C4868 H4888 0.932 . S
C4869 C4867 1.408 . S
C4869 C4868 1.310 . S
C4869 H4889 0.930 . S
C4870 C4871 1.474 . S
C4870 C4872 1.285 . S
C4870 H4890 0.929 . S
C4871 C4868 1.461 . S
C4871 C4870 1.474 . S
C4872 C4867 1.342 . S
C4872 C4870 1.285 . S
C4872 H4891 0.930 . S
C4873 C4876 1.424 . S
C4873 C4878 1.245 . S
C4873 C4879 1.428 . S
C4874 C4877 1.260 . S
C4874 C4878 1.477 . S
C4874 H4892 0.932 . S
C4875 C4876 1.384 . S
C4875 C4877 1.479 . S
C4875 H4893 0.929 . S
C4876 C4873 1.424 . S
C4876 C4875 1.384 . S
C4876 H4894 0.928 . S
C4877 C4874 1.260 . S
C4877 C4875 1.479 . S
C4878 C4873 1.245 . S
C4878 C4874 1.477 . S
C4878 H4895 0.932 . S
C4879 U4862 2.882 . S
C4879 C4873 1.428 . S
C4879 O4882 1.301 . S
C4879 O4883 1.282 . S
O4880 U4862 2.441 . S
O4880 C4866 1.249 . S
O4881 U4862 2.420 . S
O4881 C4866 1.202 . S
O4882 U4862 2.455 . S
O4882 C4879 1.301 . S
O4883 U4862 2.449 . S
O4883 C4879 1.282 . S
H4884 C4857 0.931 . S
H4885 C4859 0.929 . S
H4886 C4860 0.930 . S
H4887 C4861 0.931 . S
H4888 C4868 0.932 . S
H4889 C4869 0.930 . S
H4890 C4870 0.929 . S
H4891 C4872 0.930 . S
H4892 C4874 0.932 . S
H4893 C4875 0.929 . S
H4894 C4876 0.928 . S
H4895 C4878 0.932 . S
H4896 C4904 0.950 . S
H4897 C4909 0.950 . S
H4898 C4906 0.950 . S
H4899 C4908 0.950 . S
H4900 C4910 0.950 . S
H4901 C4912 0.889 1_455 S
H4902 C4914 0.897 1_455 S
H4903 C4915 0.950 . S
C4904 H4896 0.950 . S
C4904 C4905 1.386 . S
C4904 C4906 1.391 . S
C4905 C4904 1.386 . S
C4905 C4909 1.393 . S
C4906 H4898 0.950 . S
C4906 C4904 1.391 . S
C4906 C4907 1.400 . S
C4907 C4906 1.400 . S
C4907 C4908 1.398 . S
C4907 C4913 1.491 . S
C4908 H4899 0.950 . S
C4908 C4907 1.398 . S
C4908 C4909 1.391 . S
C4909 H4897 0.950 . S
C4909 C4905 1.393 . S
C4909 C4908 1.391 . S
C4910 H4900 0.950 . S
C4910 C4911 1.386 . S
C4910 C4912 1.391 . S
C4911 C4910 1.386 . S
C4911 C4915 1.393 . S
C4912 H4901 0.889 1_655 S
C4912 C4910 1.391 . S
C4912 C4913 1.400 1_655 S
C4913 C4907 1.491 . S
C4913 C4912 1.400 1_455 S
C4913 C4914 1.346 1_455 S
C4914 H4902 0.897 1_655 S
C4914 C4913 1.346 1_655 S
C4914 C4915 1.505 . S
C4915 H4903 0.950 . S
C4915 C4911 1.393 . S
C4915 C4914 1.505 . S
H4916 C4924 0.950 . S
H4917 C4929 0.950 . S
H4918 C4926 0.950 . S
H4919 C4928 0.950 . S
H4920 C4930 0.950 . S
H4921 C4932 0.950 . S
H4922 C4934 0.950 . S
H4923 C4935 0.950 . S
C4924 H4916 0.950 . S
C4924 C4925 1.386 . S
C4924 C4926 1.391 . S
C4925 C4924 1.386 . S
C4925 C4929 1.393 . S
C4926 H4918 0.950 . S
C4926 C4924 1.391 . S
C4926 C4927 1.400 . S
C4927 C4926 1.400 . S
C4927 C4928 1.398 . S
C4927 C4933 1.491 . S
C4928 H4919 0.950 . S
C4928 C4927 1.398 . S
C4928 C4929 1.391 . S
C4929 H4917 0.950 . S
C4929 C4925 1.393 . S
C4929 C4928 1.391 . S
C4930 H4920 0.950 . S
C4930 C4931 1.386 . S
C4930 C4932 1.391 . S
C4931 C4930 1.386 . S
C4931 C4935 1.393 . S
C4932 H4921 0.950 . S
C4932 C4930 1.391 . S
C4932 C4933 1.400 . S
C4933 C4927 1.491 . S
C4933 C4932 1.400 . S
C4933 C4934 1.398 . S
C4934 H4922 0.950 . S
C4934 C4933 1.398 . S
C4934 C4935 1.391 . S
C4935 H4923 0.950 . S
C4935 C4931 1.393 . S
C4935 C4934 1.391 . S
H4936 C4944 0.950 . S
H4937 C4949 0.950 . S
H4938 C4946 0.950 . S
H4939 C4948 0.950 . S
H4940 C4950 0.950 . S
H4941 C4952 0.950 . S
H4942 C4954 0.950 . S
H4943 C4955 0.950 . S
C4944 H4936 0.950 . S
C4944 C4945 1.386 . S
C4944 C4946 1.391 . S
C4945 C4944 1.386 . S
C4945 C4949 1.393 . S
C4946 H4938 0.950 . S
C4946 C4944 1.391 . S
C4946 C4947 1.400 . S
C4947 C4946 1.400 . S
C4947 C4948 1.398 . S
C4947 C4953 1.491 . S
C4948 H4939 0.950 . S
C4948 C4947 1.398 . S
C4948 C4949 1.391 . S
C4949 H4937 0.950 . S
C4949 C4945 1.393 . S
C4949 C4948 1.391 . S
C4950 H4940 0.950 . S
C4950 C4951 1.386 . S
C4950 C4952 1.391 . S
C4951 C4950 1.386 . S
C4951 C4955 1.393 . S
C4952 H4941 0.950 . S
C4952 C4950 1.391 . S
C4952 C4953 1.400 . S
C4953 C4947 1.491 . S
C4953 C4952 1.400 . S
C4953 C4954 1.398 . S
C4954 H4942 0.950 . S
C4954 C4953 1.398 . S
C4954 C4955 1.391 . S
C4955 H4943 0.950 . S
C4955 C4951 1.393 . S
C4955 C4954 1.391 . S
H4956 C4964 0.950 . S
H4957 C4969 0.950 . S
H4958 C4966 0.950 . S
H4959 C4968 0.950 . S
H4960 C4970 0.950 . S
H4961 C4972 0.950 . S
H4962 C4974 0.950 . S
H4963 C4975 0.950 . S
C4964 H4956 0.950 . S
C4964 C4965 1.386 . S
C4964 C4966 1.391 . S
C4965 C4964 1.386 . S
C4965 C4969 1.393 . S
C4966 H4958 0.950 . S
C4966 C4964 1.391 . S
C4966 C4967 1.400 . S
C4967 C4966 1.400 . S
C4967 C4968 1.398 . S
C4967 C4973 1.491 . S
C4968 H4959 0.950 . S
C4968 C4967 1.398 . S
C4968 C4969 1.391 . S
C4969 H4957 0.950 . S
C4969 C4965 1.393 . S
C4969 C4968 1.391 . S
C4970 H4960 0.950 . S
C4970 C4971 1.386 . S
C4970 C4972 1.391 . S
C4971 C4970 1.386 . S
C4971 C4975 1.393 . S
C4972 H4961 0.950 . S
C4972 C4970 1.391 . S
C4972 C4973 1.400 . S
C4973 C4967 1.491 . S
C4973 C4972 1.400 . S
C4973 C4974 1.398 . S
C4974 H4962 0.950 . S
C4974 C4973 1.398 . S
C4974 C4975 1.391 . S
C4975 H4963 0.950 . S
C4975 C4971 1.393 . S
C4975 C4974 1.391 . S
H4976 C4984 0.950 . S
H4977 C4989 0.950 . S
H4978 C4986 0.950 . S
H4979 C4988 0.950 . S
H4980 C4990 0.950 . S
H4981 C4992 0.950 1_455 S
H4982 C4994 0.894 1_455 S
H4983 C4995 0.950 . S
C4984 H4976 0.950 . S
C4984 C4985 1.386 . S
C4984 C4986 1.391 . S
C4985 C4984 1.386 . S
C4985 C4989 1.393 . S
C4986 H4978 0.950 . S
C4986 C4984 1.391 . S
C4986 C4987 1.400 . S
C4987 C4986 1.400 . S
C4987 C4988 1.398 . S
C4987 C4993 1.491 . S
C4988 H4979 0.950 . S
C4988 C4987 1.398 . S
C4988 C4989 1.391 . S
C4989 H4977 0.950 . S
C4989 C4985 1.393 . S
C4989 C4988 1.391 . S
C4990 H4980 0.950 . S
C4990 C4991 1.386 . S
C4990 C4992 1.391 . S
C4991 C4990 1.386 . S
C4991 C4995 1.393 . S
C4992 H4981 0.950 1_655 S
C4992 C4990 1.391 . S
C4992 C4993 1.400 1_655 S
C4993 C4987 1.491 . S
C4993 C4992 1.400 1_455 S
C4993 C4994 1.340 1_455 S
C4994 H4982 0.894 1_655 S
C4994 C4993 1.340 1_655 S
C4994 C4995 1.517 . S
C4995 H4983 0.950 . S
C4995 C4991 1.393 . S
C4995 C4994 1.517 . S
H4996 C5004 0.950 . S
H4997 C5009 0.950 . S
H4998 C5006 0.950 . S
H4999 C5008 0.950 . S
H5000 C5010 0.950 . S
H5001 C5012 0.950 . S
H5002 C5014 0.950 . S
H5003 C5015 0.950 . S
C5004 H4996 0.950 . S
C5004 C5005 1.386 . S
C5004 C5006 1.391 . S
C5005 C5004 1.386 . S
C5005 C5009 1.393 . S
C5006 H4998 0.950 . S
C5006 C5004 1.391 . S
C5006 C5007 1.400 . S
C5007 C5006 1.400 . S
C5007 C5008 1.398 . S
C5007 C5013 1.491 . S
C5008 H4999 0.950 . S
C5008 C5007 1.398 . S
C5008 C5009 1.391 . S
C5009 H4997 0.950 . S
C5009 C5005 1.393 . S
C5009 C5008 1.391 . S
C5010 H5000 0.950 . S
C5010 C5011 1.386 . S
C5010 C5012 1.391 . S
C5011 C5010 1.386 . S
C5011 C5015 1.393 . S
C5012 H5001 0.950 . S
C5012 C5010 1.391 . S
C5012 C5013 1.400 . S
C5013 C5007 1.491 . S
C5013 C5012 1.400 . S
C5013 C5014 1.398 . S
C5014 H5002 0.950 . S
C5014 C5013 1.398 . S
C5014 C5015 1.391 . S
C5015 H5003 0.950 . S
C5015 C5011 1.393 . S
C5015 C5014 1.391 . S
H5016 C5024 0.950 . S
H5017 C5029 0.950 . S
H5018 C5026 0.950 . S
H5019 C5028 0.950 . S
H5020 C5030 0.950 . S
H5021 C5032 0.950 . S
H5022 C5034 0.950 . S
H5023 C5035 0.950 . S
C5024 H5016 0.950 . S
C5024 C5025 1.386 . S
C5024 C5026 1.391 . S
C5025 C5024 1.386 . S
C5025 C5029 1.393 . S
C5026 H5018 0.950 . S
C5026 C5024 1.391 . S
C5026 C5027 1.400 . S
C5027 C5026 1.400 . S
C5027 C5028 1.398 . S
C5027 C5033 1.491 . S
C5028 H5019 0.950 . S
C5028 C5027 1.398 . S
C5028 C5029 1.391 . S
C5029 H5017 0.950 . S
C5029 C5025 1.393 . S
C5029 C5028 1.391 . S
C5030 H5020 0.950 . S
C5030 C5031 1.386 . S
C5030 C5032 1.391 . S
C5031 C5030 1.386 . S
C5031 C5035 1.393 . S
C5032 H5021 0.950 . S
C5032 C5030 1.391 . S
C5032 C5033 1.400 . S
C5033 C5027 1.491 . S
C5033 C5032 1.400 . S
C5033 C5034 1.398 . S
C5034 H5022 0.950 . S
C5034 C5033 1.398 . S
C5034 C5035 1.391 . S
C5035 H5023 0.950 . S
C5035 C5031 1.393 . S
C5035 C5034 1.391 . S
H5036 C5044 0.950 . S
H5037 C5049 0.950 . S
H5038 C5046 0.950 . S
H5039 C5048 0.950 . S
H5040 C5050 0.950 . S
H5041 C5052 0.950 . S
H5042 C5054 0.950 . S
H5043 C5055 0.950 . S
C5044 H5036 0.950 . S
C5044 C5045 1.386 . S
C5044 C5046 1.391 . S
C5045 C5044 1.386 . S
C5045 C5049 1.393 . S
C5046 H5038 0.950 . S
C5046 C5044 1.391 . S
C5046 C5047 1.400 . S
C5047 C5046 1.400 . S
C5047 C5048 1.398 . S
C5047 C5053 1.491 . S
C5048 H5039 0.950 . S
C5048 C5047 1.398 . S
C5048 C5049 1.391 . S
C5049 H5037 0.950 . S
C5049 C5045 1.393 . S
C5049 C5048 1.391 . S
C5050 H5040 0.950 . S
C5050 C5051 1.386 . S
C5050 C5052 1.391 . S
C5051 C5050 1.386 . S
C5051 C5055 1.393 . S
C5052 H5041 0.950 . S
C5052 C5050 1.391 . S
C5052 C5053 1.400 . S
C5053 C5047 1.491 . S
C5053 C5052 1.400 . S
C5053 C5054 1.398 . S
C5054 H5042 0.950 . S
C5054 C5053 1.398 . S
C5054 C5055 1.391 . S
C5055 H5043 0.950 . S
C5055 C5051 1.393 . S
C5055 C5054 1.391 . S
H5056 C5064 0.950 . S
H5057 C5069 0.950 . S
H5058 C5066 0.950 . S
H5059 C5068 0.950 . S
H5060 C5070 0.950 . S
H5061 C5072 0.982 . S
H5062 C5074 0.977 . S
H5063 C5075 0.950 . S
C5064 H5056 0.950 . S
C5064 C5065 1.386 . S
C5064 C5066 1.391 . S
C5065 C5064 1.386 . S
C5065 C5069 1.393 . S
C5066 H5058 0.950 . S
C5066 C5064 1.391 . S
C5066 C5067 1.400 . S
C5067 C5066 1.400 . S
C5067 C5068 1.398 . S
C5067 C5073 1.491 . S
C5068 H5059 0.950 . S
C5068 C5067 1.398 . S
C5068 C5069 1.391 . S
C5069 H5057 0.950 . S
C5069 C5065 1.393 . S
C5069 C5068 1.391 . S
C5070 H5060 0.950 . S
C5070 C5071 1.386 . S
C5070 C5072 1.345 1_565 S
C5071 C5070 1.386 . S
C5071 C5075 1.393 . S
C5072 H5061 0.982 . S
C5072 C5070 1.345 1_545 S
C5072 C5073 1.417 . S
C5073 C5067 1.491 . S
C5073 C5072 1.417 . S
C5073 C5074 1.398 1_545 S
C5074 H5062 0.977 . S
C5074 C5073 1.398 1_565 S
C5074 C5075 1.391 . S
C5075 H5063 0.950 . S
C5075 C5071 1.393 . S
C5075 C5074 1.391 . S
H5076 C5084 0.950 . S
H5077 C5089 0.950 . S
H5078 C5086 0.950 . S
H5079 C5088 0.950 . S
H5080 C5090 0.950 . S
H5081 C5092 0.950 . S
H5082 C5094 0.950 . S
H5083 C5095 0.950 . S
C5084 H5076 0.950 . S
C5084 C5085 1.386 . S
C5084 C5086 1.391 . S
C5085 C5084 1.386 . S
C5085 C5089 1.393 . S
C5086 H5078 0.950 . S
C5086 C5084 1.391 . S
C5086 C5087 1.400 . S
C5087 C5086 1.400 . S
C5087 C5088 1.398 . S
C5087 C5093 1.491 . S
C5088 H5079 0.950 . S
C5088 C5087 1.398 . S
C5088 C5089 1.391 . S
C5089 H5077 0.950 . S
C5089 C5085 1.393 . S
C5089 C5088 1.391 . S
C5090 H5080 0.950 . S
C5090 C5091 1.386 . S
C5090 C5092 1.391 . S
C5091 C5090 1.386 . S
C5091 C5095 1.393 . S
C5092 H5081 0.950 . S
C5092 C5090 1.391 . S
C5092 C5093 1.400 . S
C5093 C5087 1.491 . S
C5093 C5092 1.400 . S
C5093 C5094 1.398 . S
C5094 H5082 0.950 . S
C5094 C5093 1.398 . S
C5094 C5095 1.391 . S
C5095 H5083 0.950 . S
C5095 C5091 1.393 . S
C5095 C5094 1.391 . S
H5096 C5104 0.950 . S
H5097 C5109 0.950 . S
H5098 C5106 0.950 . S
H5099 C5108 0.950 . S
H5100 C5110 0.950 . S
H5101 C5112 0.908 1_565 S
H5102 C5114 0.910 1_565 S
H5103 C5115 0.950 . S
C5104 H5096 0.950 . S
C5104 C5105 1.386 . S
C5104 C5106 1.391 . S
C5105 C5104 1.386 . S
C5105 C5109 1.393 . S
C5106 H5098 0.950 . S
C5106 C5104 1.391 . S
C5106 C5107 1.400 . S
C5107 C5106 1.400 . S
C5107 C5108 1.398 . S
C5107 C5113 1.491 . S
C5108 H5099 0.950 . S
C5108 C5107 1.398 . S
C5108 C5109 1.391 . S
C5109 H5097 0.950 . S
C5109 C5105 1.393 . S
C5109 C5108 1.391 . S
C5110 H5100 0.950 . S
C5110 C5111 1.386 . S
C5110 C5112 1.473 . S
C5111 C5110 1.386 . S
C5111 C5115 1.393 . S
C5112 H5101 0.908 1_545 S
C5112 C5110 1.473 . S
C5112 C5113 1.364 1_545 S
C5113 C5107 1.491 . S
C5113 C5112 1.364 1_565 S
C5113 C5114 1.398 1_565 S
C5114 H5102 0.910 1_545 S
C5114 C5113 1.398 1_545 S
C5114 C5115 1.391 . S
C5115 H5103 0.950 . S
C5115 C5111 1.393 . S
C5115 C5114 1.391 . S
H5116 C5124 0.950 . S
H5117 C5129 0.950 . S
H5118 C5126 0.950 . S
H5119 C5128 0.950 . S
H5120 C5130 0.950 . S
H5121 C5132 0.950 . S
H5122 C5134 0.950 . S
H5123 C5135 0.950 . S
C5124 H5116 0.950 . S
C5124 C5125 1.386 . S
C5124 C5126 1.391 . S
C5125 C5124 1.386 . S
C5125 C5129 1.393 . S
C5126 H5118 0.950 . S
C5126 C5124 1.391 . S
C5126 C5127 1.400 . S
C5127 C5126 1.400 . S
C5127 C5128 1.398 . S
C5127 C5133 1.491 . S
C5128 H5119 0.950 . S
C5128 C5127 1.398 . S
C5128 C5129 1.391 . S
C5129 H5117 0.950 . S
C5129 C5125 1.393 . S
C5129 C5128 1.391 . S
C5130 H5120 0.950 . S
C5130 C5131 1.386 . S
C5130 C5132 1.391 . S
C5131 C5130 1.386 . S
C5131 C5135 1.393 . S
C5132 H5121 0.950 . S
C5132 C5130 1.391 . S
C5132 C5133 1.400 . S
C5133 C5127 1.491 . S
C5133 C5132 1.400 . S
C5133 C5134 1.398 . S
C5134 H5122 0.950 . S
C5134 C5133 1.398 . S
C5134 C5135 1.391 . S
C5135 H5123 0.950 . S
C5135 C5131 1.393 . S
C5135 C5134 1.391 . S
H5136 C5144 0.950 . S
H5137 C5149 0.950 . S
H5138 C5146 0.950 . S
H5139 C5148 0.950 . S
H5140 C5150 0.950 . S
H5141 C5152 0.913 1_565 S
H5142 C5154 0.934 1_565 S
H5143 C5155 0.950 . S
C5144 H5136 0.950 . S
C5144 C5145 1.386 . S
C5144 C5146 1.391 . S
C5145 C5144 1.386 . S
C5145 C5149 1.393 . S
C5146 H5138 0.950 . S
C5146 C5144 1.391 . S
C5146 C5147 1.400 . S
C5147 C5146 1.400 . S
C5147 C5148 1.398 . S
C5147 C5153 1.491 . S
C5148 H5139 0.950 . S
C5148 C5147 1.398 . S
C5148 C5149 1.391 . S
C5149 H5137 0.950 . S
C5149 C5145 1.393 . S
C5149 C5148 1.391 . S
C5150 H5140 0.950 . S
C5150 C5151 1.386 . S
C5150 C5152 1.391 . S
C5151 C5150 1.386 . S
C5151 C5155 1.393 . S
C5152 H5141 0.913 1_545 S
C5152 C5150 1.391 . S
C5152 C5153 1.400 1_545 S
C5153 C5147 1.491 . S
C5153 C5152 1.400 1_565 S
C5153 C5154 1.386 1_565 S
C5154 H5142 0.934 1_545 S
C5154 C5153 1.386 1_545 S
C5154 C5155 1.418 . S
C5155 H5143 0.950 . S
C5155 C5151 1.393 . S
C5155 C5154 1.418 . S
H5156 C5164 0.950 . S
H5157 C5169 0.950 . S
H5158 C5166 0.950 . S
H5159 C5168 0.950 . S
H5160 C5170 0.950 . S
H5161 C5172 0.950 . S
H5162 C5174 0.950 . S
H5163 C5175 0.950 . S
C5164 H5156 0.950 . S
C5164 C5165 1.386 . S
C5164 C5166 1.391 . S
C5165 C5164 1.386 . S
C5165 C5169 1.393 . S
C5166 H5158 0.950 . S
C5166 C5164 1.391 . S
C5166 C5167 1.400 . S
C5167 C5166 1.400 . S
C5167 C5168 1.398 . S
C5167 C5173 1.491 . S
C5168 H5159 0.950 . S
C5168 C5167 1.398 . S
C5168 C5169 1.391 . S
C5169 H5157 0.950 . S
C5169 C5165 1.393 . S
C5169 C5168 1.391 . S
C5170 H5160 0.950 . S
C5170 C5171 1.386 . S
C5170 C5172 1.391 . S
C5171 C5170 1.386 . S
C5171 C5175 1.393 . S
C5172 H5161 0.950 . S
C5172 C5170 1.391 . S
C5172 C5173 1.400 . S
C5173 C5167 1.491 . S
C5173 C5172 1.400 . S
C5173 C5174 1.398 . S
C5174 H5162 0.950 . S
C5174 C5173 1.398 . S
C5174 C5175 1.391 . S
C5175 H5163 0.950 . S
C5175 C5171 1.393 . S
C5175 C5174 1.391 . S
H5176 C5184 0.950 . S
H5177 C5189 0.950 . S
H5178 C5186 0.950 . S
H5179 C5188 0.950 . S
H5180 C5190 0.950 . S
H5181 C5192 0.978 . S
H5182 C5194 0.990 . S
H5183 C5195 0.950 . S
C5184 H5176 0.950 . S
C5184 C5185 1.386 . S
C5184 C5186 1.391 . S
C5185 C5184 1.386 . S
C5185 C5189 1.393 . S
C5186 H5178 0.950 . S
C5186 C5184 1.391 . S
C5186 C5187 1.400 . S
C5187 C5186 1.400 . S
C5187 C5188 1.398 . S
C5187 C5193 1.491 . S
C5188 H5179 0.950 . S
C5188 C5187 1.398 . S
C5188 C5189 1.391 . S
C5189 H5177 0.950 . S
C5189 C5185 1.393 . S
C5189 C5188 1.391 . S
C5190 H5180 0.950 . S
C5190 C5191 1.386 . S
C5190 C5192 1.391 . S
C5191 C5190 1.386 . S
C5191 C5195 1.393 . S
C5192 H5181 0.978 . S
C5192 C5190 1.391 . S
C5192 C5193 1.400 1_565 S
C5193 C5187 1.491 . S
C5193 C5192 1.400 1_545 S
C5193 C5194 1.419 . S
C5194 H5182 0.990 . S
C5194 C5193 1.419 . S
C5194 C5195 1.333 1_545 S
C5195 H5183 0.950 . S
C5195 C5191 1.393 . S
C5195 C5194 1.333 1_565 S
H5196 C5204 0.950 . S
H5197 C5209 0.950 . S
H5198 C5206 0.950 . S
H5199 C5208 0.950 . S
H5200 C5210 0.950 . S
H5201 C5212 0.950 . S
H5202 C5214 0.950 . S
H5203 C5215 0.950 . S
C5204 H5196 0.950 . S
C5204 C5205 1.386 . S
C5204 C5206 1.391 . S
C5205 C5204 1.386 . S
C5205 C5209 1.393 . S
C5206 H5198 0.950 . S
C5206 C5204 1.391 . S
C5206 C5207 1.400 . S
C5207 C5206 1.400 . S
C5207 C5208 1.398 . S
C5207 C5213 1.491 . S
C5208 H5199 0.950 . S
C5208 C5207 1.398 . S
C5208 C5209 1.391 . S
C5209 H5197 0.950 . S
C5209 C5205 1.393 . S
C5209 C5208 1.391 . S
C5210 H5200 0.950 . S
C5210 C5211 1.386 . S
C5210 C5212 1.391 . S
C5211 C5210 1.386 . S
C5211 C5215 1.393 . S
C5212 H5201 0.950 . S
C5212 C5210 1.391 . S
C5212 C5213 1.400 . S
C5213 C5207 1.491 . S
C5213 C5212 1.400 . S
C5213 C5214 1.398 . S
C5214 H5202 0.950 . S
C5214 C5213 1.398 . S
C5214 C5215 1.391 . S
C5215 H5203 0.950 . S
C5215 C5211 1.393 . S
C5215 C5214 1.391 . S
H5216 C5224 0.950 . S
H5217 C5229 0.950 . S
H5218 C5226 0.950 . S
H5219 C5228 0.950 . S
H5220 C5230 0.950 . S
H5221 C5232 1.011 . S
H5222 C5234 0.950 . S
H5223 C5235 0.950 . S
C5224 H5216 0.950 . S
C5224 C5225 1.386 . S
C5224 C5226 1.391 . S
C5225 C5224 1.386 . S
C5225 C5229 1.393 . S
C5226 H5218 0.950 . S
C5226 C5224 1.391 . S
C5226 C5227 1.400 . S
C5227 C5226 1.400 . S
C5227 C5228 1.398 . S
C5227 C5233 1.491 . S
C5228 H5219 0.950 . S
C5228 C5227 1.398 . S
C5228 C5229 1.391 . S
C5229 H5217 0.950 . S
C5229 C5225 1.393 . S
C5229 C5228 1.391 . S
C5230 H5220 0.950 . S
C5230 C5231 1.386 . S
C5230 C5232 1.307 1_556 S
C5231 C5230 1.386 . S
C5231 C5235 1.393 . S
C5232 H5221 1.011 . S
C5232 C5230 1.307 1_554 S
C5232 C5233 1.429 . S
C5233 C5227 1.491 . S
C5233 C5232 1.429 . S
C5233 C5234 1.398 1_554 S
C5234 H5222 0.950 . S
C5234 C5233 1.398 1_556 S
C5234 C5235 1.391 . S
C5235 H5223 0.950 . S
C5235 C5231 1.393 . S
C5235 C5234 1.391 . S
H5236 C5244 0.950 . S
H5237 C5249 0.950 . S
H5238 C5246 0.950 . S
H5239 C5248 0.950 . S
H5240 C5250 0.950 . S
H5241 C5252 1.023 . S
H5242 C5254 0.950 . S
H5243 C5255 0.950 . S
C5244 H5236 0.950 . S
C5244 C5245 1.386 . S
C5244 C5246 1.391 . S
C5245 C5244 1.386 . S
C5245 C5249 1.393 . S
C5246 H5238 0.950 . S
C5246 C5244 1.391 . S
C5246 C5247 1.400 . S
C5247 C5246 1.400 . S
C5247 C5248 1.398 . S
C5247 C5253 1.491 . S
C5248 H5239 0.950 . S
C5248 C5247 1.398 . S
C5248 C5249 1.391 . S
C5249 H5237 0.950 . S
C5249 C5245 1.393 . S
C5249 C5248 1.391 . S
C5250 H5240 0.950 . S
C5250 C5251 1.386 . S
C5250 C5252 1.292 1_554 S
C5251 C5250 1.386 . S
C5251 C5255 1.393 . S
C5252 H5241 1.023 . S
C5252 C5250 1.292 1_556 S
C5252 C5253 1.434 . S
C5253 C5247 1.491 . S
C5253 C5252 1.434 . S
C5253 C5254 1.398 1_556 S
C5254 H5242 0.950 . S
C5254 C5253 1.398 1_554 S
C5254 C5255 1.391 . S
C5255 H5243 0.950 . S
C5255 C5251 1.393 . S
C5255 C5254 1.391 . S
H5256 C5264 0.950 . S
H5257 C5269 0.950 . S
H5258 C5266 0.950 . S
H5259 C5268 0.950 . S
H5260 C5270 0.950 . S
H5261 C5272 0.950 . S
H5262 C5274 0.950 . S
H5263 C5275 0.950 . S
C5264 H5256 0.950 . S
C5264 C5265 1.386 . S
C5264 C5266 1.391 . S
C5265 C5264 1.386 . S
C5265 C5269 1.393 . S
C5266 H5258 0.950 . S
C5266 C5264 1.391 . S
C5266 C5267 1.400 . S
C5267 C5266 1.400 . S
C5267 C5268 1.398 . S
C5267 C5273 1.491 . S
C5268 H5259 0.950 . S
C5268 C5267 1.398 . S
C5268 C5269 1.391 . S
C5269 H5257 0.950 . S
C5269 C5265 1.393 . S
C5269 C5268 1.391 . S
C5270 H5260 0.950 . S
C5270 C5271 1.386 . S
C5270 C5272 1.391 . S
C5271 C5270 1.386 . S
C5271 C5275 1.393 . S
C5272 H5261 0.950 . S
C5272 C5270 1.391 . S
C5272 C5273 1.400 . S
C5273 C5267 1.491 . S
C5273 C5272 1.400 . S
C5273 C5274 1.398 . S
C5274 H5262 0.950 . S
C5274 C5273 1.398 . S
C5274 C5275 1.391 . S
C5275 H5263 0.950 . S
C5275 C5271 1.393 . S
C5275 C5274 1.391 . S
H5276 C5284 0.950 . S
H5277 C5289 0.950 . S
H5278 C5286 0.950 . S
H5279 C5288 0.950 . S
H5280 C5290 0.950 . S
H5281 C5292 0.950 . S
H5282 C5294 0.950 . S
H5283 C5295 0.950 . S
C5284 H5276 0.950 . S
C5284 C5285 1.386 . S
C5284 C5286 1.391 . S
C5285 C5284 1.386 . S
C5285 C5289 1.393 . S
C5286 H5278 0.950 . S
C5286 C5284 1.391 . S
C5286 C5287 1.400 . S
C5287 C5286 1.400 . S
C5287 C5288 1.398 . S
C5287 C5293 1.491 . S
C5288 H5279 0.950 . S
C5288 C5287 1.398 . S
C5288 C5289 1.391 . S
C5289 H5277 0.950 . S
C5289 C5285 1.393 . S
C5289 C5288 1.391 . S
C5290 H5280 0.950 . S
C5290 C5291 1.386 . S
C5290 C5292 1.391 . S
C5291 C5290 1.386 . S
C5291 C5295 1.393 . S
C5292 H5281 0.950 . S
C5292 C5290 1.391 . S
C5292 C5293 1.400 . S
C5293 C5287 1.491 . S
C5293 C5292 1.400 . S
C5293 C5294 1.398 . S
C5294 H5282 0.950 . S
C5294 C5293 1.398 . S
C5294 C5295 1.391 . S
C5295 H5283 0.950 . S
C5295 C5291 1.393 . S
C5295 C5294 1.391 . S
H5296 C5304 0.950 . S
H5297 C5309 0.950 . S
H5298 C5306 0.950 . S
H5299 C5308 0.950 . S
H5300 C5310 0.950 . S
H5301 C5312 0.950 . S
H5302 C5314 0.950 . S
H5303 C5315 0.950 . S
C5304 H5296 0.950 . S
C5304 C5305 1.386 . S
C5304 C5306 1.391 . S
C5305 C5304 1.386 . S
C5305 C5309 1.393 . S
C5306 H5298 0.950 . S
C5306 C5304 1.391 . S
C5306 C5307 1.400 . S
C5307 C5306 1.400 . S
C5307 C5308 1.398 . S
C5307 C5313 1.491 . S
C5308 H5299 0.950 . S
C5308 C5307 1.398 . S
C5308 C5309 1.391 . S
C5309 H5297 0.950 . S
C5309 C5305 1.393 . S
C5309 C5308 1.391 . S
C5310 H5300 0.950 . S
C5310 C5311 1.386 . S
C5310 C5312 1.391 . S
C5311 C5310 1.386 . S
C5311 C5315 1.393 . S
C5312 H5301 0.950 . S
C5312 C5310 1.391 . S
C5312 C5313 1.400 . S
C5313 C5307 1.491 . S
C5313 C5312 1.400 . S
C5313 C5314 1.398 . S
C5314 H5302 0.950 . S
C5314 C5313 1.398 . S
C5314 C5315 1.391 . S
C5315 H5303 0.950 . S
C5315 C5311 1.393 . S
C5315 C5314 1.391 . S
H5316 C5324 0.950 . S
H5317 C5329 0.950 . S
H5318 C5326 0.950 . S
H5319 C5328 0.950 . S
H5320 C5330 0.950 . S
H5321 C5332 0.950 . S
H5322 C5334 0.950 . S
H5323 C5335 0.950 . S
C5324 H5316 0.950 . S
C5324 C5325 1.386 . S
C5324 C5326 1.391 . S
C5325 C5324 1.386 . S
C5325 C5329 1.393 . S
C5326 H5318 0.950 . S
C5326 C5324 1.391 . S
C5326 C5327 1.400 . S
C5327 C5326 1.400 . S
C5327 C5328 1.398 . S
C5327 C5333 1.491 . S
C5328 H5319 0.950 . S
C5328 C5327 1.398 . S
C5328 C5329 1.391 . S
C5329 H5317 0.950 . S
C5329 C5325 1.393 . S
C5329 C5328 1.391 . S
C5330 H5320 0.950 . S
C5330 C5331 1.386 . S
C5330 C5332 1.391 . S
C5331 C5330 1.386 . S
C5331 C5335 1.393 . S
C5332 H5321 0.950 . S
C5332 C5330 1.391 . S
C5332 C5333 1.400 . S
C5333 C5327 1.491 . S
C5333 C5332 1.400 . S
C5333 C5334 1.398 . S
C5334 H5322 0.950 . S
C5334 C5333 1.398 . S
C5334 C5335 1.391 . S
C5335 H5323 0.950 . S
C5335 C5331 1.393 . S
C5335 C5334 1.391 . S
H5336 C5344 0.950 . S
H5337 C5349 0.950 . S
H5338 C5346 0.950 . S
H5339 C5348 0.950 . S
H5340 C5350 0.950 . S
H5341 C5352 0.950 . S
H5342 C5354 0.950 . S
H5343 C5355 0.950 . S
C5344 H5336 0.950 . S
C5344 C5345 1.386 . S
C5344 C5346 1.391 . S
C5345 C5344 1.386 . S
C5345 C5349 1.393 . S
C5346 H5338 0.950 . S
C5346 C5344 1.391 . S
C5346 C5347 1.400 . S
C5347 C5346 1.400 . S
C5347 C5348 1.398 . S
C5347 C5353 1.491 . S
C5348 H5339 0.950 . S
C5348 C5347 1.398 . S
C5348 C5349 1.391 . S
C5349 H5337 0.950 . S
C5349 C5345 1.393 . S
C5349 C5348 1.391 . S
C5350 H5340 0.950 . S
C5350 C5351 1.386 . S
C5350 C5352 1.391 . S
C5351 C5350 1.386 . S
C5351 C5355 1.393 . S
C5352 H5341 0.950 . S
C5352 C5350 1.391 . S
C5352 C5353 1.400 . S
C5353 C5347 1.491 . S
C5353 C5352 1.400 . S
C5353 C5354 1.398 . S
C5354 H5342 0.950 . S
C5354 C5353 1.398 . S
C5354 C5355 1.391 . S
C5355 H5343 0.950 . S
C5355 C5351 1.393 . S
C5355 C5354 1.391 . S
H5356 C5364 0.950 . S
H5357 C5369 0.950 . S
H5358 C5366 0.950 . S
H5359 C5368 0.950 . S
H5360 C5370 0.950 . S
H5361 C5372 0.950 . S
H5362 C5374 0.950 . S
H5363 C5375 0.950 . S
C5364 H5356 0.950 . S
C5364 C5365 1.386 . S
C5364 C5366 1.391 . S
C5365 C5364 1.386 . S
C5365 C5369 1.393 . S
C5366 H5358 0.950 . S
C5366 C5364 1.391 . S
C5366 C5367 1.400 . S
C5367 C5366 1.400 . S
C5367 C5368 1.398 . S
C5367 C5373 1.491 . S
C5368 H5359 0.950 . S
C5368 C5367 1.398 . S
C5368 C5369 1.391 . S
C5369 H5357 0.950 . S
C5369 C5365 1.393 . S
C5369 C5368 1.391 . S
C5370 H5360 0.950 . S
C5370 C5371 1.386 . S
C5370 C5372 1.391 . S
C5371 C5370 1.386 . S
C5371 C5375 1.393 . S
C5372 H5361 0.950 . S
C5372 C5370 1.391 . S
C5372 C5373 1.400 . S
C5373 C5367 1.491 . S
C5373 C5372 1.400 . S
C5373 C5374 1.398 . S
C5374 H5362 0.950 . S
C5374 C5373 1.398 . S
C5374 C5375 1.391 . S
C5375 H5363 0.950 . S
C5375 C5371 1.393 . S
C5375 C5374 1.391 . S
H5376 C5384 0.950 . S
H5377 C5389 0.950 . S
H5378 C5386 0.950 . S
H5379 C5388 0.950 . S
H5380 C5390 0.950 . S
H5381 C5392 0.967 . S
H5382 C5394 0.972 . S
H5383 C5395 0.950 . S
C5384 H5376 0.950 . S
C5384 C5385 1.386 . S
C5384 C5386 1.391 . S
C5385 C5384 1.386 . S
C5385 C5389 1.393 . S
C5386 H5378 0.950 . S
C5386 C5384 1.391 . S
C5386 C5387 1.400 . S
C5387 C5386 1.400 . S
C5387 C5388 1.398 . S
C5387 C5393 1.491 . S
C5388 H5379 0.950 . S
C5388 C5387 1.398 . S
C5388 C5389 1.391 . S
C5389 H5377 0.950 . S
C5389 C5385 1.393 . S
C5389 C5388 1.391 . S
C5390 H5380 0.950 . S
C5390 C5391 1.386 . S
C5390 C5392 1.391 . S
C5391 C5390 1.386 . S
C5391 C5395 1.393 . S
C5392 H5381 0.967 . S
C5392 C5390 1.391 . S
C5392 C5393 1.400 1_455 S
C5393 C5387 1.491 . S
C5393 C5392 1.400 1_655 S
C5393 C5394 1.411 . S
C5394 H5382 0.972 . S
C5394 C5393 1.411 . S
C5394 C5395 1.357 1_655 S
C5395 H5383 0.950 . S
C5395 C5391 1.393 . S
C5395 C5394 1.357 1_455 S
H5396 C5404 0.950 . S
H5397 C5409 0.950 . S
H5398 C5406 0.950 . S
H5399 C5408 0.950 . S
H5400 C5410 0.950 . S
H5401 C5412 0.950 . S
H5402 C5414 0.950 . S
H5403 C5415 0.950 . S
C5404 H5396 0.950 . S
C5404 C5405 1.386 . S
C5404 C5406 1.391 . S
C5405 C5404 1.386 . S
C5405 C5409 1.393 . S
C5406 H5398 0.950 . S
C5406 C5404 1.391 . S
C5406 C5407 1.400 . S
C5407 C5406 1.400 . S
C5407 C5408 1.398 . S
C5407 C5413 1.491 . S
C5408 H5399 0.950 . S
C5408 C5407 1.398 . S
C5408 C5409 1.391 . S
C5409 H5397 0.950 . S
C5409 C5405 1.393 . S
C5409 C5408 1.391 . S
C5410 H5400 0.950 . S
C5410 C5411 1.386 . S
C5410 C5412 1.391 . S
C5411 C5410 1.386 . S
C5411 C5415 1.393 . S
C5412 H5401 0.950 . S
C5412 C5410 1.391 . S
C5412 C5413 1.400 . S
C5413 C5407 1.491 . S
C5413 C5412 1.400 . S
C5413 C5414 1.398 . S
C5414 H5402 0.950 . S
C5414 C5413 1.398 . S
C5414 C5415 1.391 . S
C5415 H5403 0.950 . S
C5415 C5411 1.393 . S
C5415 C5414 1.391 . S
H5416 C5424 0.950 . S
H5417 C5429 0.950 . S
H5418 C5426 0.950 . S
H5419 C5428 0.950 . S
H5420 C5430 0.950 . S
H5421 C5432 0.950 . S
H5422 C5434 0.950 . S
H5423 C5435 0.950 . S
C5424 H5416 0.950 . S
C5424 C5425 1.386 . S
C5424 C5426 1.391 . S
C5425 C5424 1.386 . S
C5425 C5429 1.393 . S
C5426 H5418 0.950 . S
C5426 C5424 1.391 . S
C5426 C5427 1.400 . S
C5427 C5426 1.400 . S
C5427 C5428 1.398 . S
C5427 C5433 1.491 . S
C5428 H5419 0.950 . S
C5428 C5427 1.398 . S
C5428 C5429 1.391 . S
C5429 H5417 0.950 . S
C5429 C5425 1.393 . S
C5429 C5428 1.391 . S
C5430 H5420 0.950 . S
C5430 C5431 1.386 . S
C5430 C5432 1.391 . S
C5431 C5430 1.386 . S
C5431 C5435 1.393 . S
C5432 H5421 0.950 . S
C5432 C5430 1.391 . S
C5432 C5433 1.400 . S
C5433 C5427 1.491 . S
C5433 C5432 1.400 . S
C5433 C5434 1.398 . S
C5434 H5422 0.950 . S
C5434 C5433 1.398 . S
C5434 C5435 1.391 . S
C5435 H5423 0.950 . S
C5435 C5431 1.393 . S
C5435 C5434 1.391 . S
H5436 C5444 0.950 . S
H5437 C5449 0.950 . S
H5438 C5446 0.950 . S
H5439 C5448 0.950 . S
H5440 C5450 0.950 . S
H5441 C5452 0.950 . S
H5442 C5454 0.950 . S
H5443 C5455 0.950 . S
C5444 H5436 0.950 . S
C5444 C5445 1.386 . S
C5444 C5446 1.391 . S
C5445 C5444 1.386 . S
C5445 C5449 1.393 . S
C5446 H5438 0.950 . S
C5446 C5444 1.391 . S
C5446 C5447 1.400 . S
C5447 C5446 1.400 . S
C5447 C5448 1.398 . S
C5447 C5453 1.491 . S
C5448 H5439 0.950 . S
C5448 C5447 1.398 . S
C5448 C5449 1.391 . S
C5449 H5437 0.950 . S
C5449 C5445 1.393 . S
C5449 C5448 1.391 . S
C5450 H5440 0.950 . S
C5450 C5451 1.386 . S
C5450 C5452 1.391 . S
C5451 C5450 1.386 . S
C5451 C5455 1.393 . S
C5452 H5441 0.950 . S
C5452 C5450 1.391 . S
C5452 C5453 1.400 . S
C5453 C5447 1.491 . S
C5453 C5452 1.400 . S
C5453 C5454 1.398 . S
C5454 H5442 0.950 . S
C5454 C5453 1.398 . S
C5454 C5455 1.391 . S
C5455 H5443 0.950 . S
C5455 C5451 1.393 . S
C5455 C5454 1.391 . S
H5456 C5464 0.950 . S
H5457 C5469 0.950 . S
H5458 C5466 0.950 . S
H5459 C5468 0.950 . S
H5460 C5470 0.950 . S
H5461 C5472 0.974 . S
H5462 C5474 0.985 . S
H5463 C5475 0.950 . S
C5464 H5456 0.950 . S
C5464 C5465 1.386 . S
C5464 C5466 1.391 . S
C5465 C5464 1.386 . S
C5465 C5469 1.393 . S
C5466 H5458 0.950 . S
C5466 C5464 1.391 . S
C5466 C5467 1.400 . S
C5467 C5466 1.400 . S
C5467 C5468 1.398 . S
C5467 C5473 1.491 . S
C5468 H5459 0.950 . S
C5468 C5467 1.398 . S
C5468 C5469 1.391 . S
C5469 H5457 0.950 . S
C5469 C5465 1.393 . S
C5469 C5468 1.391 . S
C5470 H5460 0.950 . S
C5470 C5471 1.386 . S
C5470 C5472 1.391 . S
C5471 C5470 1.386 . S
C5471 C5475 1.393 . S
C5472 H5461 0.974 . S
C5472 C5470 1.391 . S
C5472 C5473 1.400 1_455 S
C5473 C5467 1.491 . S
C5473 C5472 1.400 1_655 S
C5473 C5474 1.417 . S
C5474 H5462 0.985 . S
C5474 C5473 1.417 . S
C5474 C5475 1.340 1_655 S
C5475 H5463 0.950 . S
C5475 C5471 1.393 . S
C5475 C5474 1.340 1_455 S
H5476 C5484 0.950 . S
H5477 C5489 0.950 . S
H5478 C5486 0.950 . S
H5479 C5488 0.950 . S
H5480 C5490 0.950 . S
H5481 C5492 0.950 . S
H5482 C5494 0.950 . S
H5483 C5495 0.950 . S
C5484 H5476 0.950 . S
C5484 C5485 1.386 . S
C5484 C5486 1.391 . S
C5485 C5484 1.386 . S
C5485 C5489 1.393 . S
C5486 H5478 0.950 . S
C5486 C5484 1.391 . S
C5486 C5487 1.400 . S
C5487 C5486 1.400 . S
C5487 C5488 1.398 . S
C5487 C5493 1.491 . S
C5488 H5479 0.950 . S
C5488 C5487 1.398 . S
C5488 C5489 1.391 . S
C5489 H5477 0.950 . S
C5489 C5485 1.393 . S
C5489 C5488 1.391 . S
C5490 H5480 0.950 . S
C5490 C5491 1.386 . S
C5490 C5492 1.391 . S
C5491 C5490 1.386 . S
C5491 C5495 1.393 . S
C5492 H5481 0.950 . S
C5492 C5490 1.391 . S
C5492 C5493 1.400 . S
C5493 C5487 1.491 . S
C5493 C5492 1.400 . S
C5493 C5494 1.398 . S
C5494 H5482 0.950 . S
C5494 C5493 1.398 . S
C5494 C5495 1.391 . S
C5495 H5483 0.950 . S
C5495 C5491 1.393 . S
C5495 C5494 1.391 . S
H5496 C5504 0.950 . S
H5497 C5509 0.950 . S
H5498 C5506 0.950 . S
H5499 C5508 0.950 . S
H5500 C5510 0.950 . S
H5501 C5512 0.950 . S
H5502 C5514 0.950 . S
H5503 C5515 0.950 . S
C5504 H5496 0.950 . S
C5504 C5505 1.386 . S
C5504 C5506 1.391 . S
C5505 C5504 1.386 . S
C5505 C5509 1.393 . S
C5506 H5498 0.950 . S
C5506 C5504 1.391 . S
C5506 C5507 1.400 . S
C5507 C5506 1.400 . S
C5507 C5508 1.398 . S
C5507 C5513 1.491 . S
C5508 H5499 0.950 . S
C5508 C5507 1.398 . S
C5508 C5509 1.391 . S
C5509 H5497 0.950 . S
C5509 C5505 1.393 . S
C5509 C5508 1.391 . S
C5510 H5500 0.950 . S
C5510 C5511 1.386 . S
C5510 C5512 1.391 . S
C5511 C5510 1.386 . S
C5511 C5515 1.393 . S
C5512 H5501 0.950 . S
C5512 C5510 1.391 . S
C5512 C5513 1.400 . S
C5513 C5507 1.491 . S
C5513 C5512 1.400 . S
C5513 C5514 1.398 . S
C5514 H5502 0.950 . S
C5514 C5513 1.398 . S
C5514 C5515 1.391 . S
C5515 H5503 0.950 . S
C5515 C5511 1.393 . S
C5515 C5514 1.391 . S
H5516 C5524 0.950 . S
H5517 C5529 0.950 . S
H5518 C5526 0.950 . S
H5519 C5528 0.950 . S
H5520 C5530 0.950 . S
H5521 C5532 0.950 . S
H5522 C5534 0.950 . S
H5523 C5535 0.950 . S
C5524 H5516 0.950 . S
C5524 C5525 1.386 . S
C5524 C5526 1.391 . S
C5525 C5524 1.386 . S
C5525 C5529 1.393 . S
C5526 H5518 0.950 . S
C5526 C5524 1.391 . S
C5526 C5527 1.400 . S
C5527 C5526 1.400 . S
C5527 C5528 1.398 . S
C5527 C5533 1.491 . S
C5528 H5519 0.950 . S
C5528 C5527 1.398 . S
C5528 C5529 1.391 . S
C5529 H5517 0.950 . S
C5529 C5525 1.393 . S
C5529 C5528 1.391 . S
C5530 H5520 0.950 . S
C5530 C5531 1.386 . S
C5530 C5532 1.391 . S
C5531 C5530 1.386 . S
C5531 C5535 1.393 . S
C5532 H5521 0.950 . S
C5532 C5530 1.391 . S
C5532 C5533 1.400 . S
C5533 C5527 1.491 . S
C5533 C5532 1.400 . S
C5533 C5534 1.398 . S
C5534 H5522 0.950 . S
C5534 C5533 1.398 . S
C5534 C5535 1.391 . S
C5535 H5523 0.950 . S
C5535 C5531 1.393 . S
C5535 C5534 1.391 . S
H5536 C5544 0.950 . S
H5537 C5549 0.950 . S
H5538 C5546 0.950 . S
H5539 C5548 0.950 . S
H5540 C5550 0.950 . S
H5541 C5552 0.989 . S
H5542 C5554 0.997 . S
H5543 C5555 0.950 . S
C5544 H5536 0.950 . S
C5544 C5545 1.386 . S
C5544 C5546 1.391 . S
C5545 C5544 1.386 . S
C5545 C5549 1.393 . S
C5546 H5538 0.950 . S
C5546 C5544 1.391 . S
C5546 C5547 1.400 . S
C5547 C5546 1.400 . S
C5547 C5548 1.398 . S
C5547 C5553 1.491 . S
C5548 H5539 0.950 . S
C5548 C5547 1.398 . S
C5548 C5549 1.391 . S
C5549 H5537 0.950 . S
C5549 C5545 1.393 . S
C5549 C5548 1.391 . S
C5550 H5540 0.950 . S
C5550 C5551 1.386 . S
C5550 C5552 1.391 . S
C5551 C5550 1.386 . S
C5551 C5555 1.393 . S
C5552 H5541 0.989 . S
C5552 C5550 1.391 . S
C5552 C5553 1.400 1_545 S
C5553 C5547 1.491 . S
C5553 C5552 1.400 1_565 S
C5553 C5554 1.422 . S
C5554 H5542 0.997 . S
C5554 C5553 1.422 . S
C5554 C5555 1.324 1_565 S
C5555 H5543 0.950 . S
C5555 C5551 1.393 . S
C5555 C5554 1.324 1_545 S
H5556 C5564 0.950 . S
H5557 C5569 0.950 . S
H5558 C5566 0.950 . S
H5559 C5568 0.950 . S
H5560 C5570 0.950 . S
H5561 C5572 0.950 . S
H5562 C5574 0.950 . S
H5563 C5575 0.950 . S
C5564 H5556 0.950 . S
C5564 C5565 1.386 . S
C5564 C5566 1.391 . S
C5565 C5564 1.386 . S
C5565 C5569 1.393 . S
C5566 H5558 0.950 . S
C5566 C5564 1.391 . S
C5566 C5567 1.400 . S
C5567 C5566 1.400 . S
C5567 C5568 1.398 . S
C5567 C5573 1.491 . S
C5568 H5559 0.950 . S
C5568 C5567 1.398 . S
C5568 C5569 1.391 . S
C5569 H5557 0.950 . S
C5569 C5565 1.393 . S
C5569 C5568 1.391 . S
C5570 H5560 0.950 . S
C5570 C5571 1.386 . S
C5570 C5572 1.391 . S
C5571 C5570 1.386 . S
C5571 C5575 1.393 . S
C5572 H5561 0.950 . S
C5572 C5570 1.391 . S
C5572 C5573 1.400 . S
C5573 C5567 1.491 . S
C5573 C5572 1.400 . S
C5573 C5574 1.398 . S
C5574 H5562 0.950 . S
C5574 C5573 1.398 . S
C5574 C5575 1.391 . S
C5575 H5563 0.950 . S
C5575 C5571 1.393 . S
C5575 C5574 1.391 . S
H5576 C5584 0.950 . S
H5577 C5589 0.950 . S
H5578 C5586 0.950 . S
H5579 C5588 0.950 . S
H5580 C5590 0.950 . S
H5581 C5592 0.918 1_545 S
H5582 C5594 0.925 1_545 S
H5583 C5595 0.950 . S
C5584 H5576 0.950 . S
C5584 C5585 1.386 . S
C5584 C5586 1.391 . S
C5585 C5584 1.386 . S
C5585 C5589 1.393 . S
C5586 H5578 0.950 . S
C5586 C5584 1.391 . S
C5586 C5587 1.400 . S
C5587 C5586 1.400 . S
C5587 C5588 1.398 . S
C5587 C5593 1.491 . S
C5588 H5579 0.950 . S
C5588 C5587 1.398 . S
C5588 C5589 1.391 . S
C5589 H5577 0.950 . S
C5589 C5585 1.393 . S
C5589 C5588 1.391 . S
C5590 H5580 0.950 . S
C5590 C5591 1.386 . S
C5590 C5592 1.449 . S
C5591 C5590 1.386 . S
C5591 C5595 1.393 . S
C5592 H5581 0.918 1_565 S
C5592 C5590 1.449 . S
C5592 C5593 1.375 1_565 S
C5593 C5587 1.491 . S
C5593 C5592 1.375 1_545 S
C5593 C5594 1.398 1_545 S
C5594 H5582 0.925 1_565 S
C5594 C5593 1.398 1_565 S
C5594 C5595 1.391 . S
C5595 H5583 0.950 . S
C5595 C5591 1.393 . S
C5595 C5594 1.391 . S
H5596 C5604 0.950 . S
H5597 C5609 0.950 . S
H5598 C5606 0.950 . S
H5599 C5608 0.950 . S
H5600 C5610 0.950 . S
H5601 C5612 0.950 . S
H5602 C5614 0.950 . S
H5603 C5615 0.950 . S
C5604 H5596 0.950 . S
C5604 C5605 1.386 . S
C5604 C5606 1.391 . S
C5605 C5604 1.386 . S
C5605 C5609 1.393 . S
C5606 H5598 0.950 . S
C5606 C5604 1.391 . S
C5606 C5607 1.400 . S
C5607 C5606 1.400 . S
C5607 C5608 1.398 . S
C5607 C5613 1.491 . S
C5608 H5599 0.950 . S
C5608 C5607 1.398 . S
C5608 C5609 1.391 . S
C5609 H5597 0.950 . S
C5609 C5605 1.393 . S
C5609 C5608 1.391 . S
C5610 H5600 0.950 . S
C5610 C5611 1.386 . S
C5610 C5612 1.391 . S
C5611 C5610 1.386 . S
C5611 C5615 1.393 . S
C5612 H5601 0.950 . S
C5612 C5610 1.391 . S
C5612 C5613 1.400 . S
C5613 C5607 1.491 . S
C5613 C5612 1.400 . S
C5613 C5614 1.398 . S
C5614 H5602 0.950 . S
C5614 C5613 1.398 . S
C5614 C5615 1.391 . S
C5615 H5603 0.950 . S
C5615 C5611 1.393 . S
C5615 C5614 1.391 . S
H5616 C5624 0.950 . S
H5617 C5629 0.950 . S
H5618 C5626 0.950 . S
H5619 C5628 0.950 . S
H5620 C5630 0.950 . S
H5621 C5632 1.007 . S
H5622 C5634 1.009 . S
H5623 C5635 0.950 . S
C5624 H5616 0.950 . S
C5624 C5625 1.386 . S
C5624 C5626 1.391 . S
C5625 C5624 1.386 . S
C5625 C5629 1.393 . S
C5626 H5618 0.950 . S
C5626 C5624 1.391 . S
C5626 C5627 1.400 . S
C5627 C5626 1.400 . S
C5627 C5628 1.398 . S
C5627 C5633 1.491 . S
C5628 H5619 0.950 . S
C5628 C5627 1.398 . S
C5628 C5629 1.391 . S
C5629 H5617 0.950 . S
C5629 C5625 1.393 . S
C5629 C5628 1.391 . S
C5630 H5620 0.950 . S
C5630 C5631 1.386 . S
C5630 C5632 1.311 1_565 S
C5631 C5630 1.386 . S
C5631 C5635 1.393 . S
C5632 H5621 1.007 . S
C5632 C5630 1.311 1_545 S
C5632 C5633 1.428 . S
C5633 C5627 1.491 . S
C5633 C5632 1.428 . S
C5633 C5634 1.398 1_545 S
C5634 H5622 1.009 . S
C5634 C5633 1.398 1_565 S
C5634 C5635 1.391 . S
C5635 H5623 0.950 . S
C5635 C5631 1.393 . S
C5635 C5634 1.391 . S
H5636 C5644 0.950 . S
H5637 C5649 0.950 . S
H5638 C5646 0.950 . S
H5639 C5648 0.950 . S
H5640 C5650 0.950 . S
H5641 C5652 0.950 . S
H5642 C5654 0.950 . S
H5643 C5655 0.950 . S
C5644 H5636 0.950 . S
C5644 C5645 1.386 . S
C5644 C5646 1.391 . S
C5645 C5644 1.386 . S
C5645 C5649 1.393 . S
C5646 H5638 0.950 . S
C5646 C5644 1.391 . S
C5646 C5647 1.400 . S
C5647 C5646 1.400 . S
C5647 C5648 1.398 . S
C5647 C5653 1.491 . S
C5648 H5639 0.950 . S
C5648 C5647 1.398 . S
C5648 C5649 1.391 . S
C5649 H5637 0.950 . S
C5649 C5645 1.393 . S
C5649 C5648 1.391 . S
C5650 H5640 0.950 . S
C5650 C5651 1.386 . S
C5650 C5652 1.391 . S
C5651 C5650 1.386 . S
C5651 C5655 1.393 . S
C5652 H5641 0.950 . S
C5652 C5650 1.391 . S
C5652 C5653 1.400 . S
C5653 C5647 1.491 . S
C5653 C5652 1.400 . S
C5653 C5654 1.398 . S
C5654 H5642 0.950 . S
C5654 C5653 1.398 . S
C5654 C5655 1.391 . S
C5655 H5643 0.950 . S
C5655 C5651 1.393 . S
C5655 C5654 1.391 . S
H5656 C5664 0.950 . S
H5657 C5669 0.950 . S
H5658 C5666 0.950 . S
H5659 C5668 0.950 . S
H5660 C5670 0.950 . S
H5661 C5672 0.893 1_565 S
H5662 C5674 0.895 1_565 S
H5663 C5675 0.950 . S
C5664 H5656 0.950 . S
C5664 C5665 1.386 . S
C5664 C5666 1.391 . S
C5665 C5664 1.386 . S
C5665 C5669 1.393 . S
C5666 H5658 0.950 . S
C5666 C5664 1.391 . S
C5666 C5667 1.400 . S
C5667 C5666 1.400 . S
C5667 C5668 1.398 . S
C5667 C5673 1.491 . S
C5668 H5659 0.950 . S
C5668 C5667 1.398 . S
C5668 C5669 1.391 . S
C5669 H5657 0.950 . S
C5669 C5665 1.393 . S
C5669 C5668 1.391 . S
C5670 H5660 0.950 . S
C5670 C5671 1.386 . S
C5670 C5672 1.523 . S
C5671 C5670 1.386 . S
C5671 C5675 1.393 . S
C5672 H5661 0.893 1_545 S
C5672 C5670 1.523 . S
C5672 C5673 1.338 1_545 S
C5673 C5667 1.491 . S
C5673 C5672 1.338 1_565 S
C5673 C5674 1.340 1_565 S
C5674 H5662 0.895 1_545 S
C5674 C5673 1.340 1_545 S
C5674 C5675 1.515 . S
C5675 H5663 0.950 . S
C5675 C5671 1.393 . S
C5675 C5674 1.515 . S
H5676 C5684 0.950 . S
H5677 C5689 0.950 . S
H5678 C5686 0.950 . S
H5679 C5688 0.950 . S
H5680 C5690 0.950 . S
H5681 C5692 0.950 . S
H5682 C5694 0.950 . S
H5683 C5695 0.950 . S
C5684 H5676 0.950 . S
C5684 C5685 1.386 . S
C5684 C5686 1.391 . S
C5685 C5684 1.386 . S
C5685 C5689 1.393 . S
C5686 H5678 0.950 . S
C5686 C5684 1.391 . S
C5686 C5687 1.400 . S
C5687 C5686 1.400 . S
C5687 C5688 1.398 . S
C5687 C5693 1.491 . S
C5688 H5679 0.950 . S
C5688 C5687 1.398 . S
C5688 C5689 1.391 . S
C5689 H5677 0.950 . S
C5689 C5685 1.393 . S
C5689 C5688 1.391 . S
C5690 H5680 0.950 . S
C5690 C5691 1.386 . S
C5690 C5692 1.391 . S
C5691 C5690 1.386 . S
C5691 C5695 1.393 . S
C5692 H5681 0.950 . S
C5692 C5690 1.391 . S
C5692 C5693 1.400 . S
C5693 C5687 1.491 . S
C5693 C5692 1.400 . S
C5693 C5694 1.398 . S
C5694 H5682 0.950 . S
C5694 C5693 1.398 . S
C5694 C5695 1.391 . S
C5695 H5683 0.950 . S
C5695 C5691 1.393 . S
C5695 C5694 1.391 . S
H5696 C5704 0.950 . S
H5697 C5709 0.950 . S
H5698 C5706 0.950 . S
H5699 C5708 0.950 . S
H5700 C5710 0.950 . S
H5701 C5712 0.999 . S
H5702 C5714 1.006 . S
H5703 C5715 0.950 . S
C5704 H5696 0.950 . S
C5704 C5705 1.386 . S
C5704 C5706 1.391 . S
C5705 C5704 1.386 . S
C5705 C5709 1.393 . S
C5706 H5698 0.950 . S
C5706 C5704 1.391 . S
C5706 C5707 1.400 . S
C5707 C5706 1.400 . S
C5707 C5708 1.398 . S
C5707 C5713 1.491 . S
C5708 H5699 0.950 . S
C5708 C5707 1.398 . S
C5708 C5709 1.391 . S
C5709 H5697 0.950 . S
C5709 C5705 1.393 . S
C5709 C5708 1.391 . S
C5710 H5700 0.950 . S
C5710 C5711 1.386 . S
C5710 C5712 1.323 1_554 S
C5711 C5710 1.386 . S
C5711 C5715 1.393 . S
C5712 H5701 0.999 . S
C5712 C5710 1.323 1_556 S
C5712 C5713 1.424 . S
C5713 C5707 1.491 . S
C5713 C5712 1.424 . S
C5713 C5714 1.398 1_556 S
C5714 H5702 1.006 . S
C5714 C5713 1.398 1_554 S
C5714 C5715 1.391 . S
C5715 H5703 0.950 . S
C5715 C5711 1.393 . S
C5715 C5714 1.391 . S
H5716 C5724 0.950 . S
H5717 C5729 0.950 . S
H5718 C5726 0.950 . S
H5719 C5728 0.950 . S
H5720 C5730 0.950 . S
H5721 C5732 0.988 . S
H5722 C5734 0.997 . S
H5723 C5735 0.950 . S
C5724 H5716 0.950 . S
C5724 C5725 1.386 . S
C5724 C5726 1.391 . S
C5725 C5724 1.386 . S
C5725 C5729 1.393 . S
C5726 H5718 0.950 . S
C5726 C5724 1.391 . S
C5726 C5727 1.400 . S
C5727 C5726 1.400 . S
C5727 C5728 1.398 . S
C5727 C5733 1.491 . S
C5728 H5719 0.950 . S
C5728 C5727 1.398 . S
C5728 C5729 1.391 . S
C5729 H5717 0.950 . S
C5729 C5725 1.393 . S
C5729 C5728 1.391 . S
C5730 H5720 0.950 . S
C5730 C5731 1.386 . S
C5730 C5732 1.336 1_556 S
C5731 C5730 1.386 . S
C5731 C5735 1.393 . S
C5732 H5721 0.988 . S
C5732 C5730 1.336 1_554 S
C5732 C5733 1.420 . S
C5733 C5727 1.491 . S
C5733 C5732 1.420 . S
C5733 C5734 1.398 1_554 S
C5734 H5722 0.997 . S
C5734 C5733 1.398 1_556 S
C5734 C5735 1.391 . S
C5735 H5723 0.950 . S
C5735 C5731 1.393 . S
C5735 C5734 1.391 . S
H5736 C5744 0.950 . S
H5737 C5749 0.950 . S
H5738 C5746 0.950 . S
H5739 C5748 0.950 . S
H5740 C5750 0.950 . S
H5741 C5752 0.950 . S
H5742 C5754 0.950 . S
H5743 C5755 0.950 . S
C5744 H5736 0.950 . S
C5744 C5745 1.386 . S
C5744 C5746 1.391 . S
C5745 C5744 1.386 . S
C5745 C5749 1.393 . S
C5746 H5738 0.950 . S
C5746 C5744 1.391 . S
C5746 C5747 1.400 . S
C5747 C5746 1.400 . S
C5747 C5748 1.398 . S
C5747 C5753 1.491 . S
C5748 H5739 0.950 . S
C5748 C5747 1.398 . S
C5748 C5749 1.391 . S
C5749 H5737 0.950 . S
C5749 C5745 1.393 . S
C5749 C5748 1.391 . S
C5750 H5740 0.950 . S
C5750 C5751 1.386 . S
C5750 C5752 1.391 . S
C5751 C5750 1.386 . S
C5751 C5755 1.393 . S
C5752 H5741 0.950 . S
C5752 C5750 1.391 . S
C5752 C5753 1.400 . S
C5753 C5747 1.491 . S
C5753 C5752 1.400 . S
C5753 C5754 1.398 . S
C5754 H5742 0.950 . S
C5754 C5753 1.398 . S
C5754 C5755 1.391 . S
C5755 H5743 0.950 . S
C5755 C5751 1.393 . S
C5755 C5754 1.391 . S
H5756 C5764 0.950 . S
H5757 C5769 0.950 . S
H5758 C5766 0.950 . S
H5759 C5768 0.950 . S
H5760 C5770 0.950 . S
H5761 C5772 0.950 . S
H5762 C5774 0.950 . S
H5763 C5775 0.950 . S
C5764 H5756 0.950 . S
C5764 C5765 1.386 . S
C5764 C5766 1.391 . S
C5765 C5764 1.386 . S
C5765 C5769 1.393 . S
C5766 H5758 0.950 . S
C5766 C5764 1.391 . S
C5766 C5767 1.400 . S
C5767 C5766 1.400 . S
C5767 C5768 1.398 . S
C5767 C5773 1.491 . S
C5768 H5759 0.950 . S
C5768 C5767 1.398 . S
C5768 C5769 1.391 . S
C5769 H5757 0.950 . S
C5769 C5765 1.393 . S
C5769 C5768 1.391 . S
C5770 H5760 0.950 . S
C5770 C5771 1.386 . S
C5770 C5772 1.391 . S
C5771 C5770 1.386 . S
C5771 C5775 1.393 . S
C5772 H5761 0.950 . S
C5772 C5770 1.391 . S
C5772 C5773 1.400 . S
C5773 C5767 1.491 . S
C5773 C5772 1.400 . S
C5773 C5774 1.398 . S
C5774 H5762 0.950 . S
C5774 C5773 1.398 . S
C5774 C5775 1.391 . S
C5775 H5763 0.950 . S
C5775 C5771 1.393 . S
C5775 C5774 1.391 . S
H5776 C5784 0.950 . S
H5777 C5789 0.950 . S
H5778 C5786 0.950 . S
H5779 C5788 0.950 . S
H5780 C5790 0.950 . S
H5781 C5792 0.950 . S
H5782 C5794 0.950 . S
H5783 C5795 0.950 . S
C5784 H5776 0.950 . S
C5784 C5785 1.386 . S
C5784 C5786 1.391 . S
C5785 C5784 1.386 . S
C5785 C5789 1.393 . S
C5786 H5778 0.950 . S
C5786 C5784 1.391 . S
C5786 C5787 1.400 . S
C5787 C5786 1.400 . S
C5787 C5788 1.398 . S
C5787 C5793 1.491 . S
C5788 H5779 0.950 . S
C5788 C5787 1.398 . S
C5788 C5789 1.391 . S
C5789 H5777 0.950 . S
C5789 C5785 1.393 . S
C5789 C5788 1.391 . S
C5790 H5780 0.950 . S
C5790 C5791 1.386 . S
C5790 C5792 1.391 . S
C5791 C5790 1.386 . S
C5791 C5795 1.393 . S
C5792 H5781 0.950 . S
C5792 C5790 1.391 . S
C5792 C5793 1.400 . S
C5793 C5787 1.491 . S
C5793 C5792 1.400 . S
C5793 C5794 1.398 . S
C5794 H5782 0.950 . S
C5794 C5793 1.398 . S
C5794 C5795 1.391 . S
C5795 H5783 0.950 . S
C5795 C5791 1.393 . S
C5795 C5794 1.391 . S
H5796 C5804 0.950 . S
H5797 C5809 0.950 . S
H5798 C5806 0.950 . S
H5799 C5808 0.950 . S
H5800 C5810 0.950 . S
H5801 C5812 0.950 . S
H5802 C5814 0.950 . S
H5803 C5815 0.950 . S
C5804 H5796 0.950 . S
C5804 C5805 1.386 . S
C5804 C5806 1.391 . S
C5805 C5804 1.386 . S
C5805 C5809 1.393 . S
C5806 H5798 0.950 . S
C5806 C5804 1.391 . S
C5806 C5807 1.400 . S
C5807 C5806 1.400 . S
C5807 C5808 1.398 . S
C5807 C5813 1.491 . S
C5808 H5799 0.950 . S
C5808 C5807 1.398 . S
C5808 C5809 1.391 . S
C5809 H5797 0.950 . S
C5809 C5805 1.393 . S
C5809 C5808 1.391 . S
C5810 H5800 0.950 . S
C5810 C5811 1.386 . S
C5810 C5812 1.391 . S
C5811 C5810 1.386 . S
C5811 C5815 1.393 . S
C5812 H5801 0.950 . S
C5812 C5810 1.391 . S
C5812 C5813 1.400 . S
C5813 C5807 1.491 . S
C5813 C5812 1.400 . S
C5813 C5814 1.398 . S
C5814 H5802 0.950 . S
C5814 C5813 1.398 . S
C5814 C5815 1.391 . S
C5815 H5803 0.950 . S
C5815 C5811 1.393 . S
C5815 C5814 1.391 . S
H5816 C5824 0.950 . S
H5817 C5829 0.950 . S
H5818 C5826 0.950 . S
H5819 C5828 0.950 . S
H5820 C5830 0.950 . S
H5821 C5832 0.950 . S
H5822 C5834 0.950 . S
H5823 C5835 0.950 . S
C5824 H5816 0.950 . S
C5824 C5825 1.386 . S
C5824 C5826 1.391 . S
C5825 C5824 1.386 . S
C5825 C5829 1.393 . S
C5826 H5818 0.950 . S
C5826 C5824 1.391 . S
C5826 C5827 1.400 . S
C5827 C5826 1.400 . S
C5827 C5828 1.398 . S
C5827 C5833 1.491 . S
C5828 H5819 0.950 . S
C5828 C5827 1.398 . S
C5828 C5829 1.391 . S
C5829 H5817 0.950 . S
C5829 C5825 1.393 . S
C5829 C5828 1.391 . S
C5830 H5820 0.950 . S
C5830 C5831 1.386 . S
C5830 C5832 1.391 . S
C5831 C5830 1.386 . S
C5831 C5835 1.393 . S
C5832 H5821 0.950 . S
C5832 C5830 1.391 . S
C5832 C5833 1.400 . S
C5833 C5827 1.491 . S
C5833 C5832 1.400 . S
C5833 C5834 1.398 . S
C5834 H5822 0.950 . S
C5834 C5833 1.398 . S
C5834 C5835 1.391 . S
C5835 H5823 0.950 . S
C5835 C5831 1.393 . S
C5835 C5834 1.391 . S
H5836 C5844 0.950 . S
H5837 C5849 0.950 . S
H5838 C5846 0.950 . S
H5839 C5848 0.950 . S
H5840 C5850 0.950 . S
H5841 C5852 0.950 . S
H5842 C5854 0.950 . S
H5843 C5855 0.950 . S
C5844 H5836 0.950 . S
C5844 C5845 1.386 . S
C5844 C5846 1.391 . S
C5845 C5844 1.386 . S
C5845 C5849 1.393 . S
C5846 H5838 0.950 . S
C5846 C5844 1.391 . S
C5846 C5847 1.400 . S
C5847 C5846 1.400 . S
C5847 C5848 1.398 . S
C5847 C5853 1.491 . S
C5848 H5839 0.950 . S
C5848 C5847 1.398 . S
C5848 C5849 1.391 . S
C5849 H5837 0.950 . S
C5849 C5845 1.393 . S
C5849 C5848 1.391 . S
C5850 H5840 0.950 . S
C5850 C5851 1.386 . S
C5850 C5852 1.391 . S
C5851 C5850 1.386 . S
C5851 C5855 1.393 . S
C5852 H5841 0.950 . S
C5852 C5850 1.391 . S
C5852 C5853 1.400 . S
C5853 C5847 1.491 . S
C5853 C5852 1.400 . S
C5853 C5854 1.398 . S
C5854 H5842 0.950 . S
C5854 C5853 1.398 . S
C5854 C5855 1.391 . S
C5855 H5843 0.950 . S
C5855 C5851 1.393 . S
C5855 C5854 1.391 . S
H5856 C5864 0.950 . S
H5857 C5869 0.950 . S
H5858 C5866 0.950 . S
H5859 C5868 0.950 . S
H5860 C5870 0.950 . S
H5861 C5872 0.950 . S
H5862 C5874 0.950 . S
H5863 C5875 0.950 . S
C5864 H5856 0.950 . S
C5864 C5865 1.386 . S
C5864 C5866 1.391 . S
C5865 C5864 1.386 . S
C5865 C5869 1.393 . S
C5866 H5858 0.950 . S
C5866 C5864 1.391 . S
C5866 C5867 1.400 . S
C5867 C5866 1.400 . S
C5867 C5868 1.398 . S
C5867 C5873 1.491 . S
C5868 H5859 0.950 . S
C5868 C5867 1.398 . S
C5868 C5869 1.391 . S
C5869 H5857 0.950 . S
C5869 C5865 1.393 . S
C5869 C5868 1.391 . S
C5870 H5860 0.950 . S
C5870 C5871 1.386 . S
C5870 C5872 1.391 . S
C5871 C5870 1.386 . S
C5871 C5875 1.393 . S
C5872 H5861 0.950 . S
C5872 C5870 1.391 . S
C5872 C5873 1.400 . S
C5873 C5867 1.491 . S
C5873 C5872 1.400 . S
C5873 C5874 1.398 . S
C5874 H5862 0.950 . S
C5874 C5873 1.398 . S
C5874 C5875 1.391 . S
C5875 H5863 0.950 . S
C5875 C5871 1.393 . S
C5875 C5874 1.391 . S
H5876 C5884 0.950 . S
H5877 C5889 0.950 . S
H5878 C5886 0.950 . S
H5879 C5888 0.950 . S
H5880 C5890 0.950 . S
H5881 C5892 0.950 . S
H5882 C5894 0.950 . S
H5883 C5895 0.950 . S
C5884 H5876 0.950 . S
C5884 C5885 1.386 . S
C5884 C5886 1.391 . S
C5885 C5884 1.386 . S
C5885 C5889 1.393 . S
C5886 H5878 0.950 . S
C5886 C5884 1.391 . S
C5886 C5887 1.400 . S
C5887 C5886 1.400 . S
C5887 C5888 1.398 . S
C5887 C5893 1.491 . S
C5888 H5879 0.950 . S
C5888 C5887 1.398 . S
C5888 C5889 1.391 . S
C5889 H5877 0.950 . S
C5889 C5885 1.393 . S
C5889 C5888 1.391 . S
C5890 H5880 0.950 . S
C5890 C5891 1.386 . S
C5890 C5892 1.391 . S
C5891 C5890 1.386 . S
C5891 C5895 1.393 . S
C5892 H5881 0.950 . S
C5892 C5890 1.391 . S
C5892 C5893 1.400 . S
C5893 C5887 1.491 . S
C5893 C5892 1.400 . S
C5893 C5894 1.398 . S
C5894 H5882 0.950 . S
C5894 C5893 1.398 . S
C5894 C5895 1.391 . S
C5895 H5883 0.950 . S
C5895 C5891 1.393 . S
C5895 C5894 1.391 . S
H5896 C5904 0.950 . S
H5897 C5909 0.950 . S
H5898 C5906 0.950 . S
H5899 C5908 0.950 . S
H5900 C5910 0.950 . S
H5901 C5912 0.960 1_655 S
H5902 C5914 0.954 . S
H5903 C5915 0.950 . S
C5904 H5896 0.950 . S
C5904 C5905 1.386 . S
C5904 C5906 1.391 . S
C5905 C5904 1.386 . S
C5905 C5909 1.393 . S
C5906 H5898 0.950 . S
C5906 C5904 1.391 . S
C5906 C5907 1.400 . S
C5907 C5906 1.400 . S
C5907 C5908 1.398 . S
C5907 C5913 1.491 . S
C5908 H5899 0.950 . S
C5908 C5907 1.398 . S
C5908 C5909 1.391 . S
C5909 H5897 0.950 . S
C5909 C5905 1.393 . S
C5909 C5908 1.391 . S
C5910 H5900 0.950 . S
C5910 C5911 1.386 . S
C5910 C5912 1.374 . S
C5911 C5910 1.386 . S
C5911 C5915 1.393 . S
C5912 H5901 0.960 1_455 S
C5912 C5910 1.374 . S
C5912 C5913 1.407 1_455 S
C5913 C5907 1.491 . S
C5913 C5912 1.407 1_655 S
C5913 C5914 1.398 1_655 S
C5914 H5902 0.954 . S
C5914 C5913 1.398 1_455 S
C5914 C5915 1.391 . S
C5915 H5903 0.950 . S
C5915 C5911 1.393 . S
C5915 C5914 1.391 . S
H5916 C5924 0.950 . S
H5917 C5929 0.950 . S
H5918 C5926 0.950 . S
H5919 C5928 0.950 . S
H5920 C5930 0.950 . S
H5921 C5932 0.950 . S
H5922 C5934 0.950 . S
H5923 C5935 0.950 . S
C5924 H5916 0.950 . S
C5924 C5925 1.386 . S
C5924 C5926 1.391 . S
C5925 C5924 1.386 . S
C5925 C5929 1.393 . S
C5926 H5918 0.950 . S
C5926 C5924 1.391 . S
C5926 C5927 1.400 . S
C5927 C5926 1.400 . S
C5927 C5928 1.398 . S
C5927 C5933 1.491 . S
C5928 H5919 0.950 . S
C5928 C5927 1.398 . S
C5928 C5929 1.391 . S
C5929 H5917 0.950 . S
C5929 C5925 1.393 . S
C5929 C5928 1.391 . S
C5930 H5920 0.950 . S
C5930 C5931 1.386 . S
C5930 C5932 1.391 . S
C5931 C5930 1.386 . S
C5931 C5935 1.393 . S
C5932 H5921 0.950 . S
C5932 C5930 1.391 . S
C5932 C5933 1.400 . S
C5933 C5927 1.491 . S
C5933 C5932 1.400 . S
C5933 C5934 1.398 . S
C5934 H5922 0.950 . S
C5934 C5933 1.398 . S
C5934 C5935 1.391 . S
C5935 H5923 0.950 . S
C5935 C5931 1.393 . S
C5935 C5934 1.391 . S
H5936 C5944 0.950 . S
H5937 C5949 0.950 . S
H5938 C5946 0.950 . S
H5939 C5948 0.950 . S
H5940 C5950 0.950 . S
H5941 C5952 0.950 . S
H5942 C5954 0.950 . S
H5943 C5955 0.950 . S
C5944 H5936 0.950 . S
C5944 C5945 1.386 . S
C5944 C5946 1.391 . S
C5945 C5944 1.386 . S
C5945 C5949 1.393 . S
C5946 H5938 0.950 . S
C5946 C5944 1.391 . S
C5946 C5947 1.400 . S
C5947 C5946 1.400 . S
C5947 C5948 1.398 . S
C5947 C5953 1.491 . S
C5948 H5939 0.950 . S
C5948 C5947 1.398 . S
C5948 C5949 1.391 . S
C5949 H5937 0.950 . S
C5949 C5945 1.393 . S
C5949 C5948 1.391 . S
C5950 H5940 0.950 . S
C5950 C5951 1.386 . S
C5950 C5952 1.391 . S
C5951 C5950 1.386 . S
C5951 C5955 1.393 . S
C5952 H5941 0.950 . S
C5952 C5950 1.391 . S
C5952 C5953 1.400 . S
C5953 C5947 1.491 . S
C5953 C5952 1.400 . S
C5953 C5954 1.398 . S
C5954 H5942 0.950 . S
C5954 C5953 1.398 . S
C5954 C5955 1.391 . S
C5955 H5943 0.950 . S
C5955 C5951 1.393 . S
C5955 C5954 1.391 . S
H5956 C5964 0.950 . S
H5957 C5969 0.950 . S
H5958 C5966 0.950 . S
H5959 C5968 0.950 . S
H5960 C5970 0.950 . S
H5961 C5972 0.950 . S
H5962 C5974 0.950 . S
H5963 C5975 0.950 . S
C5964 H5956 0.950 . S
C5964 C5965 1.386 . S
C5964 C5966 1.391 . S
C5965 C5964 1.386 . S
C5965 C5969 1.393 . S
C5966 H5958 0.950 . S
C5966 C5964 1.391 . S
C5966 C5967 1.400 . S
C5967 C5966 1.400 . S
C5967 C5968 1.398 . S
C5967 C5973 1.491 . S
C5968 H5959 0.950 . S
C5968 C5967 1.398 . S
C5968 C5969 1.391 . S
C5969 H5957 0.950 . S
C5969 C5965 1.393 . S
C5969 C5968 1.391 . S
C5970 H5960 0.950 . S
C5970 C5971 1.386 . S
C5970 C5972 1.391 . S
C5971 C5970 1.386 . S
C5971 C5975 1.393 . S
C5972 H5961 0.950 . S
C5972 C5970 1.391 . S
C5972 C5973 1.400 . S
C5973 C5967 1.491 . S
C5973 C5972 1.400 . S
C5973 C5974 1.398 . S
C5974 H5962 0.950 . S
C5974 C5973 1.398 . S
C5974 C5975 1.391 . S
C5975 H5963 0.950 . S
C5975 C5971 1.393 . S
C5975 C5974 1.391 . S
H5976 C5984 0.950 . S
H5977 C5989 0.950 . S
H5978 C5986 0.950 . S
H5979 C5988 0.950 . S
H5980 C5990 0.950 . S
H5981 C5992 0.887 1_655 S
H5982 C5994 0.913 1_655 S
H5983 C5995 0.950 . S
C5984 H5976 0.950 . S
C5984 C5985 1.386 . S
C5984 C5986 1.391 . S
C5985 C5984 1.386 . S
C5985 C5989 1.393 . S
C5986 H5978 0.950 . S
C5986 C5984 1.391 . S
C5986 C5987 1.400 . S
C5987 C5986 1.400 . S
C5987 C5988 1.398 . S
C5987 C5993 1.491 . S
C5988 H5979 0.950 . S
C5988 C5987 1.398 . S
C5988 C5989 1.391 . S
C5989 H5977 0.950 . S
C5989 C5985 1.393 . S
C5989 C5988 1.391 . S
C5990 H5980 0.950 . S
C5990 C5991 1.386 . S
C5990 C5992 1.391 . S
C5991 C5990 1.386 . S
C5991 C5995 1.393 . S
C5992 H5981 0.887 1_455 S
C5992 C5990 1.391 . S
C5992 C5993 1.400 1_455 S
C5993 C5987 1.491 . S
C5993 C5992 1.400 1_655 S
C5993 C5994 1.366 1_655 S
C5994 H5982 0.913 1_455 S
C5994 C5993 1.366 1_455 S
C5994 C5995 1.464 . S
C5995 H5983 0.950 . S
C5995 C5991 1.393 . S
C5995 C5994 1.464 . S
H5996 C6004 0.950 . S
H5997 C6009 0.950 . S
H5998 C6006 0.950 . S
H5999 C6008 0.950 . S
H6000 C6010 0.950 . S
H6001 C6012 0.950 . S
H6002 C6014 0.950 . S
H6003 C6015 0.950 . S
C6004 H5996 0.950 . S
C6004 C6005 1.386 . S
C6004 C6006 1.391 . S
C6005 C6004 1.386 . S
C6005 C6009 1.393 . S
C6006 H5998 0.950 . S
C6006 C6004 1.391 . S
C6006 C6007 1.400 . S
C6007 C6006 1.400 . S
C6007 C6008 1.398 . S
C6007 C6013 1.491 . S
C6008 H5999 0.950 . S
C6008 C6007 1.398 . S
C6008 C6009 1.391 . S
C6009 H5997 0.950 . S
C6009 C6005 1.393 . S
C6009 C6008 1.391 . S
C6010 H6000 0.950 . S
C6010 C6011 1.386 . S
C6010 C6012 1.391 . S
C6011 C6010 1.386 . S
C6011 C6015 1.393 . S
C6012 H6001 0.950 . S
C6012 C6010 1.391 . S
C6012 C6013 1.400 . S
C6013 C6007 1.491 . S
C6013 C6012 1.400 . S
C6013 C6014 1.398 . S
C6014 H6002 0.950 . S
C6014 C6013 1.398 . S
C6014 C6015 1.391 . S
C6015 H6003 0.950 . S
C6015 C6011 1.393 . S
C6015 C6014 1.391 . S
H6016 C6024 0.950 . S
H6017 C6029 0.950 . S
H6018 C6026 0.950 . S
H6019 C6028 0.950 . S
H6020 C6030 0.950 . S
H6021 C6032 0.950 . S
H6022 C6034 0.950 . S
H6023 C6035 0.950 . S
C6024 H6016 0.950 . S
C6024 C6025 1.386 . S
C6024 C6026 1.391 . S
C6025 C6024 1.386 . S
C6025 C6029 1.393 . S
C6026 H6018 0.950 . S
C6026 C6024 1.391 . S
C6026 C6027 1.400 . S
C6027 C6026 1.400 . S
C6027 C6028 1.398 . S
C6027 C6033 1.491 . S
C6028 H6019 0.950 . S
C6028 C6027 1.398 . S
C6028 C6029 1.391 . S
C6029 H6017 0.950 . S
C6029 C6025 1.393 . S
C6029 C6028 1.391 . S
C6030 H6020 0.950 . S
C6030 C6031 1.386 . S
C6030 C6032 1.391 . S
C6031 C6030 1.386 . S
C6031 C6035 1.393 . S
C6032 H6021 0.950 . S
C6032 C6030 1.391 . S
C6032 C6033 1.400 . S
C6033 C6027 1.491 . S
C6033 C6032 1.400 . S
C6033 C6034 1.398 . S
C6034 H6022 0.950 . S
C6034 C6033 1.398 . S
C6034 C6035 1.391 . S
C6035 H6023 0.950 . S
C6035 C6031 1.393 . S
C6035 C6034 1.391 . S
H6036 C6044 0.950 . S
H6037 C6049 0.950 . S
H6038 C6046 0.950 . S
H6039 C6048 0.950 . S
H6040 C6050 0.950 . S
H6041 C6052 0.950 . S
H6042 C6054 0.950 . S
H6043 C6055 0.950 . S
C6044 H6036 0.950 . S
C6044 C6045 1.386 . S
C6044 C6046 1.391 . S
C6045 C6044 1.386 . S
C6045 C6049 1.393 . S
C6046 H6038 0.950 . S
C6046 C6044 1.391 . S
C6046 C6047 1.400 . S
C6047 C6046 1.400 . S
C6047 C6048 1.398 . S
C6047 C6053 1.491 . S
C6048 H6039 0.950 . S
C6048 C6047 1.398 . S
C6048 C6049 1.391 . S
C6049 H6037 0.950 . S
C6049 C6045 1.393 . S
C6049 C6048 1.391 . S
C6050 H6040 0.950 . S
C6050 C6051 1.386 . S
C6050 C6052 1.391 . S
C6051 C6050 1.386 . S
C6051 C6055 1.393 . S
C6052 H6041 0.950 . S
C6052 C6050 1.391 . S
C6052 C6053 1.400 . S
C6053 C6047 1.491 . S
C6053 C6052 1.400 . S
C6053 C6054 1.398 . S
C6054 H6042 0.950 . S
C6054 C6053 1.398 . S
C6054 C6055 1.391 . S
C6055 H6043 0.950 . S
C6055 C6051 1.393 . S
C6055 C6054 1.391 . S
H6056 C6064 0.950 . S
H6057 C6069 0.950 . S
H6058 C6066 0.950 . S
H6059 C6068 0.950 . S
H6060 C6070 0.950 . S
H6061 C6072 0.950 . S
H6062 C6074 0.950 . S
H6063 C6075 0.950 . S
C6064 H6056 0.950 . S
C6064 C6065 1.386 . S
C6064 C6066 1.391 . S
C6065 C6064 1.386 . S
C6065 C6069 1.393 . S
C6066 H6058 0.950 . S
C6066 C6064 1.391 . S
C6066 C6067 1.400 . S
C6067 C6066 1.400 . S
C6067 C6068 1.398 . S
C6067 C6073 1.491 . S
C6068 H6059 0.950 . S
C6068 C6067 1.398 . S
C6068 C6069 1.391 . S
C6069 H6057 0.950 . S
C6069 C6065 1.393 . S
C6069 C6068 1.391 . S
C6070 H6060 0.950 . S
C6070 C6071 1.386 . S
C6070 C6072 1.391 . S
C6071 C6070 1.386 . S
C6071 C6075 1.393 . S
C6072 H6061 0.950 . S
C6072 C6070 1.391 . S
C6072 C6073 1.400 . S
C6073 C6067 1.491 . S
C6073 C6072 1.400 . S
C6073 C6074 1.398 . S
C6074 H6062 0.950 . S
C6074 C6073 1.398 . S
C6074 C6075 1.391 . S
C6075 H6063 0.950 . S
C6075 C6071 1.393 . S
C6075 C6074 1.391 . S
H6076 C6084 0.950 . S
H6077 C6089 0.950 . S
H6078 C6086 0.950 . S
H6079 C6088 0.950 . S
H6080 C6090 0.950 . S
H6081 C6092 0.950 . S
H6082 C6094 0.950 . S
H6083 C6095 0.950 . S
C6084 H6076 0.950 . S
C6084 C6085 1.386 . S
C6084 C6086 1.391 . S
C6085 C6084 1.386 . S
C6085 C6089 1.393 . S
C6086 H6078 0.950 . S
C6086 C6084 1.391 . S
C6086 C6087 1.400 . S
C6087 C6086 1.400 . S
C6087 C6088 1.398 . S
C6087 C6093 1.491 . S
C6088 H6079 0.950 . S
C6088 C6087 1.398 . S
C6088 C6089 1.391 . S
C6089 H6077 0.950 . S
C6089 C6085 1.393 . S
C6089 C6088 1.391 . S
C6090 H6080 0.950 . S
C6090 C6091 1.386 . S
C6090 C6092 1.391 . S
C6091 C6090 1.386 . S
C6091 C6095 1.393 . S
C6092 H6081 0.950 . S
C6092 C6090 1.391 . S
C6092 C6093 1.400 . S
C6093 C6087 1.491 . S
C6093 C6092 1.400 . S
C6093 C6094 1.398 . S
C6094 H6082 0.950 . S
C6094 C6093 1.398 . S
C6094 C6095 1.391 . S
C6095 H6083 0.950 . S
C6095 C6091 1.393 . S
C6095 C6094 1.391 . S
H6096 C6104 0.950 . S
H6097 C6109 0.950 . S
H6098 C6106 0.950 . S
H6099 C6108 0.950 . S
H6100 C6110 0.950 . S
H6101 C6112 0.950 . S
H6102 C6114 0.950 . S
H6103 C6115 0.950 . S
C6104 H6096 0.950 . S
C6104 C6105 1.386 . S
C6104 C6106 1.391 . S
C6105 C6104 1.386 . S
C6105 C6109 1.393 . S
C6106 H6098 0.950 . S
C6106 C6104 1.391 . S
C6106 C6107 1.400 . S
C6107 C6106 1.400 . S
C6107 C6108 1.398 . S
C6107 C6113 1.491 . S
C6108 H6099 0.950 . S
C6108 C6107 1.398 . S
C6108 C6109 1.391 . S
C6109 H6097 0.950 . S
C6109 C6105 1.393 . S
C6109 C6108 1.391 . S
C6110 H6100 0.950 . S
C6110 C6111 1.386 . S
C6110 C6112 1.391 . S
C6111 C6110 1.386 . S
C6111 C6115 1.393 . S
C6112 H6101 0.950 . S
C6112 C6110 1.391 . S
C6112 C6113 1.400 . S
C6113 C6107 1.491 . S
C6113 C6112 1.400 . S
C6113 C6114 1.398 . S
C6114 H6102 0.950 . S
C6114 C6113 1.398 . S
C6114 C6115 1.391 . S
C6115 H6103 0.950 . S
C6115 C6111 1.393 . S
C6115 C6114 1.391 . S
H6116 C6124 0.950 . S
H6117 C6129 0.950 . S
H6118 C6126 0.950 . S
H6119 C6128 0.950 . S
H6120 C6130 0.950 . S
H6121 C6132 0.950 . S
H6122 C6134 0.950 . S
H6123 C6135 0.950 . S
C6124 H6116 0.950 . S
C6124 C6125 1.386 . S
C6124 C6126 1.391 . S
C6125 C6124 1.386 . S
C6125 C6129 1.393 . S
C6126 H6118 0.950 . S
C6126 C6124 1.391 . S
C6126 C6127 1.400 . S
C6127 C6126 1.400 . S
C6127 C6128 1.398 . S
C6127 C6133 1.491 . S
C6128 H6119 0.950 . S
C6128 C6127 1.398 . S
C6128 C6129 1.391 . S
C6129 H6117 0.950 . S
C6129 C6125 1.393 . S
C6129 C6128 1.391 . S
C6130 H6120 0.950 . S
C6130 C6131 1.386 . S
C6130 C6132 1.391 . S
C6131 C6130 1.386 . S
C6131 C6135 1.393 . S
C6132 H6121 0.950 . S
C6132 C6130 1.391 . S
C6132 C6133 1.400 . S
C6133 C6127 1.491 . S
C6133 C6132 1.400 . S
C6133 C6134 1.398 . S
C6134 H6122 0.950 . S
C6134 C6133 1.398 . S
C6134 C6135 1.391 . S
C6135 H6123 0.950 . S
C6135 C6131 1.393 . S
C6135 C6134 1.391 . S
H6136 C6144 0.950 . S
H6137 C6149 0.950 . S
H6138 C6146 0.950 . S
H6139 C6148 0.950 . S
H6140 C6150 0.950 . S
H6141 C6152 0.950 . S
H6142 C6154 0.950 . S
H6143 C6155 0.950 . S
C6144 H6136 0.950 . S
C6144 C6145 1.386 . S
C6144 C6146 1.391 . S
C6145 C6144 1.386 . S
C6145 C6149 1.393 . S
C6146 H6138 0.950 . S
C6146 C6144 1.391 . S
C6146 C6147 1.400 . S
C6147 C6146 1.400 . S
C6147 C6148 1.398 . S
C6147 C6153 1.491 . S
C6148 H6139 0.950 . S
C6148 C6147 1.398 . S
C6148 C6149 1.391 . S
C6149 H6137 0.950 . S
C6149 C6145 1.393 . S
C6149 C6148 1.391 . S
C6150 H6140 0.950 . S
C6150 C6151 1.386 . S
C6150 C6152 1.391 . S
C6151 C6150 1.386 . S
C6151 C6155 1.393 . S
C6152 H6141 0.950 . S
C6152 C6150 1.391 . S
C6152 C6153 1.400 . S
C6153 C6147 1.491 . S
C6153 C6152 1.400 . S
C6153 C6154 1.398 . S
C6154 H6142 0.950 . S
C6154 C6153 1.398 . S
C6154 C6155 1.391 . S
C6155 H6143 0.950 . S
C6155 C6151 1.393 . S
C6155 C6154 1.391 . S
H6156 C6164 0.950 . S
H6157 C6169 0.950 . S
H6158 C6166 0.950 . S
H6159 C6168 0.950 . S
H6160 C6170 0.950 . S
H6161 C6172 0.950 . S
H6162 C6174 0.950 . S
H6163 C6175 0.950 . S
C6164 H6156 0.950 . S
C6164 C6165 1.386 . S
C6164 C6166 1.391 . S
C6165 C6164 1.386 . S
C6165 C6169 1.393 . S
C6166 H6158 0.950 . S
C6166 C6164 1.391 . S
C6166 C6167 1.400 . S
C6167 C6166 1.400 . S
C6167 C6168 1.398 . S
C6167 C6173 1.491 . S
C6168 H6159 0.950 . S
C6168 C6167 1.398 . S
C6168 C6169 1.391 . S
C6169 H6157 0.950 . S
C6169 C6165 1.393 . S
C6169 C6168 1.391 . S
C6170 H6160 0.950 . S
C6170 C6171 1.386 . S
C6170 C6172 1.391 . S
C6171 C6170 1.386 . S
C6171 C6175 1.393 . S
C6172 H6161 0.950 . S
C6172 C6170 1.391 . S
C6172 C6173 1.400 . S
C6173 C6167 1.491 . S
C6173 C6172 1.400 . S
C6173 C6174 1.398 . S
C6174 H6162 0.950 . S
C6174 C6173 1.398 . S
C6174 C6175 1.391 . S
C6175 H6163 0.950 . S
C6175 C6171 1.393 . S
C6175 C6174 1.391 . S
H6176 C6184 0.950 . S
H6177 C6189 0.950 . S
H6178 C6186 0.950 . S
H6179 C6188 0.950 . S
H6180 C6190 0.950 . S
H6181 C6192 0.950 . S
H6182 C6194 0.950 . S
H6183 C6195 0.950 . S
C6184 H6176 0.950 . S
C6184 C6185 1.386 . S
C6184 C6186 1.391 . S
C6185 C6184 1.386 . S
C6185 C6189 1.393 . S
C6186 H6178 0.950 . S
C6186 C6184 1.391 . S
C6186 C6187 1.400 . S
C6187 C6186 1.400 . S
C6187 C6188 1.398 . S
C6187 C6193 1.491 . S
C6188 H6179 0.950 . S
C6188 C6187 1.398 . S
C6188 C6189 1.391 . S
C6189 H6177 0.950 . S
C6189 C6185 1.393 . S
C6189 C6188 1.391 . S
C6190 H6180 0.950 . S
C6190 C6191 1.386 . S
C6190 C6192 1.391 . S
C6191 C6190 1.386 . S
C6191 C6195 1.393 . S
C6192 H6181 0.950 . S
C6192 C6190 1.391 . S
C6192 C6193 1.400 . S
C6193 C6187 1.491 . S
C6193 C6192 1.400 . S
C6193 C6194 1.398 . S
C6194 H6182 0.950 . S
C6194 C6193 1.398 . S
C6194 C6195 1.391 . S
C6195 H6183 0.950 . S
C6195 C6191 1.393 . S
C6195 C6194 1.391 . S
H6196 C6204 0.950 . S
H6197 C6209 0.950 . S
H6198 C6206 0.950 . S
H6199 C6208 0.950 . S
H6200 C6210 0.950 . S
H6201 C6212 0.950 . S
H6202 C6214 0.950 . S
H6203 C6215 0.950 . S
C6204 H6196 0.950 . S
C6204 C6205 1.386 . S
C6204 C6206 1.391 . S
C6205 C6204 1.386 . S
C6205 C6209 1.393 . S
C6206 H6198 0.950 . S
C6206 C6204 1.391 . S
C6206 C6207 1.400 . S
C6207 C6206 1.400 . S
C6207 C6208 1.398 . S
C6207 C6213 1.491 . S
C6208 H6199 0.950 . S
C6208 C6207 1.398 . S
C6208 C6209 1.391 . S
C6209 H6197 0.950 . S
C6209 C6205 1.393 . S
C6209 C6208 1.391 . S
C6210 H6200 0.950 . S
C6210 C6211 1.386 . S
C6210 C6212 1.391 . S
C6211 C6210 1.386 . S
C6211 C6215 1.393 . S
C6212 H6201 0.950 . S
C6212 C6210 1.391 . S
C6212 C6213 1.400 . S
C6213 C6207 1.491 . S
C6213 C6212 1.400 . S
C6213 C6214 1.398 . S
C6214 H6202 0.950 . S
C6214 C6213 1.398 . S
C6214 C6215 1.391 . S
C6215 H6203 0.950 . S
C6215 C6211 1.393 . S
C6215 C6214 1.391 . S
H6216 C6224 0.950 . S
H6217 C6229 0.950 . S
H6218 C6226 0.950 . S
H6219 C6228 0.950 . S
H6220 C6230 0.950 . S
H6221 C6232 0.950 . S
H6222 C6234 0.950 . S
H6223 C6235 0.950 . S
C6224 H6216 0.950 . S
C6224 C6225 1.386 . S
C6224 C6226 1.391 . S
C6225 C6224 1.386 . S
C6225 C6229 1.393 . S
C6226 H6218 0.950 . S
C6226 C6224 1.391 . S
C6226 C6227 1.400 . S
C6227 C6226 1.400 . S
C6227 C6228 1.398 . S
C6227 C6233 1.491 . S
C6228 H6219 0.950 . S
C6228 C6227 1.398 . S
C6228 C6229 1.391 . S
C6229 H6217 0.950 . S
C6229 C6225 1.393 . S
C6229 C6228 1.391 . S
C6230 H6220 0.950 . S
C6230 C6231 1.386 . S
C6230 C6232 1.391 . S
C6231 C6230 1.386 . S
C6231 C6235 1.393 . S
C6232 H6221 0.950 . S
C6232 C6230 1.391 . S
C6232 C6233 1.400 . S
C6233 C6227 1.491 . S
C6233 C6232 1.400 . S
C6233 C6234 1.398 . S
C6234 H6222 0.950 . S
C6234 C6233 1.398 . S
C6234 C6235 1.391 . S
C6235 H6223 0.950 . S
C6235 C6231 1.393 . S
C6235 C6234 1.391 . S
H6236 C6244 0.950 . S
H6237 C6249 0.950 . S
H6238 C6246 0.950 . S
H6239 C6248 0.950 . S
H6240 C6250 0.950 . S
H6241 C6252 0.964 . S
H6242 C6254 0.973 . S
H6243 C6255 0.950 . S
C6244 H6236 0.950 . S
C6244 C6245 1.386 . S
C6244 C6246 1.391 . S
C6245 C6244 1.386 . S
C6245 C6249 1.393 . S
C6246 H6238 0.950 . S
C6246 C6244 1.391 . S
C6246 C6247 1.400 . S
C6247 C6246 1.400 . S
C6247 C6248 1.398 . S
C6247 C6253 1.491 . S
C6248 H6239 0.950 . S
C6248 C6247 1.398 . S
C6248 C6249 1.391 . S
C6249 H6237 0.950 . S
C6249 C6245 1.393 . S
C6249 C6248 1.391 . S
C6250 H6240 0.950 . S
C6250 C6251 1.386 . S
C6250 C6252 1.391 . S
C6251 C6250 1.386 . S
C6251 C6255 1.393 . S
C6252 H6241 0.964 . S
C6252 C6250 1.391 . S
C6252 C6253 1.400 1_554 S
C6253 C6247 1.491 . S
C6253 C6252 1.400 1_556 S
C6253 C6254 1.411 . S
C6254 H6242 0.973 . S
C6254 C6253 1.411 . S
C6254 C6255 1.356 1_556 S
C6255 H6243 0.950 . S
C6255 C6251 1.393 . S
C6255 C6254 1.356 1_554 S
H6256 C6264 0.950 . S
H6257 C6269 0.950 . S
H6258 C6266 0.950 . S
H6259 C6268 0.950 . S
H6260 C6270 0.950 . S
H6261 C6272 0.950 . S
H6262 C6274 0.950 . S
H6263 C6275 0.950 . S
C6264 H6256 0.950 . S
C6264 C6265 1.386 . S
C6264 C6266 1.391 . S
C6265 C6264 1.386 . S
C6265 C6269 1.393 . S
C6266 H6258 0.950 . S
C6266 C6264 1.391 . S
C6266 C6267 1.400 . S
C6267 C6266 1.400 . S
C6267 C6268 1.398 . S
C6267 C6273 1.491 . S
C6268 H6259 0.950 . S
C6268 C6267 1.398 . S
C6268 C6269 1.391 . S
C6269 H6257 0.950 . S
C6269 C6265 1.393 . S
C6269 C6268 1.391 . S
C6270 H6260 0.950 . S
C6270 C6271 1.386 . S
C6270 C6272 1.391 . S
C6271 C6270 1.386 . S
C6271 C6275 1.393 . S
C6272 H6261 0.950 . S
C6272 C6270 1.391 . S
C6272 C6273 1.400 . S
C6273 C6267 1.491 . S
C6273 C6272 1.400 . S
C6273 C6274 1.398 . S
C6274 H6262 0.950 . S
C6274 C6273 1.398 . S
C6274 C6275 1.391 . S
C6275 H6263 0.950 . S
C6275 C6271 1.393 . S
C6275 C6274 1.391 . S
H6276 C6284 0.950 . S
H6277 C6289 0.950 . S
H6278 C6286 0.950 . S
H6279 C6288 0.950 . S
H6280 C6290 0.950 . S
H6281 C6292 0.950 1_554 S
H6282 C6294 0.913 1_554 S
H6283 C6295 0.950 . S
C6284 H6276 0.950 . S
C6284 C6285 1.386 . S
C6284 C6286 1.391 . S
C6285 C6284 1.386 . S
C6285 C6289 1.393 . S
C6286 H6278 0.950 . S
C6286 C6284 1.391 . S
C6286 C6287 1.400 . S
C6287 C6286 1.400 . S
C6287 C6288 1.398 . S
C6287 C6293 1.491 . S
C6288 H6279 0.950 . S
C6288 C6287 1.398 . S
C6288 C6289 1.391 . S
C6289 H6277 0.950 . S
C6289 C6285 1.393 . S
C6289 C6288 1.391 . S
C6290 H6280 0.950 . S
C6290 C6291 1.386 . S
C6290 C6292 1.391 . S
C6291 C6290 1.386 . S
C6291 C6295 1.393 . S
C6292 H6281 0.950 1_556 S
C6292 C6290 1.391 . S
C6292 C6293 1.400 1_556 S
C6293 C6287 1.491 . S
C6293 C6292 1.400 1_554 S
C6293 C6294 1.365 1_554 S
C6294 H6282 0.913 1_556 S
C6294 C6293 1.365 1_556 S
C6294 C6295 1.464 . S
C6295 H6283 0.950 . S
C6295 C6291 1.393 . S
C6295 C6294 1.464 . S
H6296 C6304 0.950 . S
H6297 C6309 0.950 . S
H6298 C6306 0.950 . S
H6299 C6308 0.950 . S
H6300 C6310 0.950 . S
H6301 C6312 0.950 . S
H6302 C6314 0.950 . S
H6303 C6315 0.950 . S
C6304 H6296 0.950 . S
C6304 C6305 1.386 . S
C6304 C6306 1.391 . S
C6305 C6304 1.386 . S
C6305 C6309 1.393 . S
C6306 H6298 0.950 . S
C6306 C6304 1.391 . S
C6306 C6307 1.400 . S
C6307 C6306 1.400 . S
C6307 C6308 1.398 . S
C6307 C6313 1.491 . S
C6308 H6299 0.950 . S
C6308 C6307 1.398 . S
C6308 C6309 1.391 . S
C6309 H6297 0.950 . S
C6309 C6305 1.393 . S
C6309 C6308 1.391 . S
C6310 H6300 0.950 . S
C6310 C6311 1.386 . S
C6310 C6312 1.391 . S
C6311 C6310 1.386 . S
C6311 C6315 1.393 . S
C6312 H6301 0.950 . S
C6312 C6310 1.391 . S
C6312 C6313 1.400 . S
C6313 C6307 1.491 . S
C6313 C6312 1.400 . S
C6313 C6314 1.398 . S
C6314 H6302 0.950 . S
C6314 C6313 1.398 . S
C6314 C6315 1.391 . S
C6315 H6303 0.950 . S
C6315 C6311 1.393 . S
C6315 C6314 1.391 . S
H6316 C6324 0.950 . S
H6317 C6329 0.950 . S
H6318 C6326 0.950 . S
H6319 C6328 0.950 . S
H6320 C6330 0.950 . S
H6321 C6332 0.950 . S
H6322 C6334 0.950 . S
H6323 C6335 0.950 . S
C6324 H6316 0.950 . S
C6324 C6325 1.386 . S
C6324 C6326 1.391 . S
C6325 C6324 1.386 . S
C6325 C6329 1.393 . S
C6326 H6318 0.950 . S
C6326 C6324 1.391 . S
C6326 C6327 1.400 . S
C6327 C6326 1.400 . S
C6327 C6328 1.398 . S
C6327 C6333 1.491 . S
C6328 H6319 0.950 . S
C6328 C6327 1.398 . S
C6328 C6329 1.391 . S
C6329 H6317 0.950 . S
C6329 C6325 1.393 . S
C6329 C6328 1.391 . S
C6330 H6320 0.950 . S
C6330 C6331 1.386 . S
C6330 C6332 1.391 . S
C6331 C6330 1.386 . S
C6331 C6335 1.393 . S
C6332 H6321 0.950 . S
C6332 C6330 1.391 . S
C6332 C6333 1.400 . S
C6333 C6327 1.491 . S
C6333 C6332 1.400 . S
C6333 C6334 1.398 . S
C6334 H6322 0.950 . S
C6334 C6333 1.398 . S
C6334 C6335 1.391 . S
C6335 H6323 0.950 . S
C6335 C6331 1.393 . S
C6335 C6334 1.391 . S
H6336 C6344 0.950 . S
H6337 C6349 0.950 . S
H6338 C6346 0.950 . S
H6339 C6348 0.950 . S
H6340 C6350 0.950 . S
H6341 C6352 0.950 . S
H6342 C6354 0.950 . S
H6343 C6355 0.950 . S
C6344 H6336 0.950 . S
C6344 C6345 1.386 . S
C6344 C6346 1.391 . S
C6345 C6344 1.386 . S
C6345 C6349 1.393 . S
C6346 H6338 0.950 . S
C6346 C6344 1.391 . S
C6346 C6347 1.400 . S
C6347 C6346 1.400 . S
C6347 C6348 1.398 . S
C6347 C6353 1.491 . S
C6348 H6339 0.950 . S
C6348 C6347 1.398 . S
C6348 C6349 1.391 . S
C6349 H6337 0.950 . S
C6349 C6345 1.393 . S
C6349 C6348 1.391 . S
C6350 H6340 0.950 . S
C6350 C6351 1.386 . S
C6350 C6352 1.391 . S
C6351 C6350 1.386 . S
C6351 C6355 1.393 . S
C6352 H6341 0.950 . S
C6352 C6350 1.391 . S
C6352 C6353 1.400 . S
C6353 C6347 1.491 . S
C6353 C6352 1.400 . S
C6353 C6354 1.398 . S
C6354 H6342 0.950 . S
C6354 C6353 1.398 . S
C6354 C6355 1.391 . S
C6355 H6343 0.950 . S
C6355 C6351 1.393 . S
C6355 C6354 1.391 . S
H6356 C6364 0.950 . S
H6357 C6369 0.950 . S
H6358 C6366 0.950 . S
H6359 C6368 0.950 . S
H6360 C6370 0.950 . S
H6361 C6372 0.950 . S
H6362 C6374 0.950 . S
H6363 C6375 0.950 . S
C6364 H6356 0.950 . S
C6364 C6365 1.386 . S
C6364 C6366 1.391 . S
C6365 C6364 1.386 . S
C6365 C6369 1.393 . S
C6366 H6358 0.950 . S
C6366 C6364 1.391 . S
C6366 C6367 1.400 . S
C6367 C6366 1.400 . S
C6367 C6368 1.398 . S
C6367 C6373 1.491 . S
C6368 H6359 0.950 . S
C6368 C6367 1.398 . S
C6368 C6369 1.391 . S
C6369 H6357 0.950 . S
C6369 C6365 1.393 . S
C6369 C6368 1.391 . S
C6370 H6360 0.950 . S
C6370 C6371 1.386 . S
C6370 C6372 1.391 . S
C6371 C6370 1.386 . S
C6371 C6375 1.393 . S
C6372 H6361 0.950 . S
C6372 C6370 1.391 . S
C6372 C6373 1.400 . S
C6373 C6367 1.491 . S
C6373 C6372 1.400 . S
C6373 C6374 1.398 . S
C6374 H6362 0.950 . S
C6374 C6373 1.398 . S
C6374 C6375 1.391 . S
C6375 H6363 0.950 . S
C6375 C6371 1.393 . S
C6375 C6374 1.391 . S
H6376 C6384 0.950 . S
H6377 C6389 0.950 . S
H6378 C6386 0.950 . S
H6379 C6388 0.950 . S
H6380 C6390 0.950 . S
H6381 C6392 0.950 . S
H6382 C6394 1.029 . S
H6383 C6395 0.950 . S
C6384 H6376 0.950 . S
C6384 C6385 1.386 . S
C6384 C6386 1.391 . S
C6385 C6384 1.386 . S
C6385 C6389 1.393 . S
C6386 H6378 0.950 . S
C6386 C6384 1.391 . S
C6386 C6387 1.400 . S
C6387 C6386 1.400 . S
C6387 C6388 1.398 . S
C6387 C6393 1.491 . S
C6388 H6379 0.950 . S
C6388 C6387 1.398 . S
C6388 C6389 1.391 . S
C6389 H6377 0.950 . S
C6389 C6385 1.393 . S
C6389 C6388 1.391 . S
C6390 H6380 0.950 . S
C6390 C6391 1.386 . S
C6390 C6392 1.391 . S
C6391 C6390 1.386 . S
C6391 C6395 1.393 . S
C6392 H6381 0.950 . S
C6392 C6390 1.391 . S
C6392 C6393 1.400 1_655 S
C6393 C6387 1.491 . S
C6393 C6392 1.400 1_455 S
C6393 C6394 1.434 . S
C6394 H6382 1.029 . S
C6394 C6393 1.434 . S
C6394 C6395 1.285 1_455 S
C6395 H6383 0.950 . S
C6395 C6391 1.393 . S
C6395 C6394 1.285 1_655 S
H6396 C6404 0.950 . S
H6397 C6409 0.950 . S
H6398 C6406 0.950 . S
H6399 C6408 0.950 . S
H6400 C6410 0.950 . S
H6401 C6412 0.950 . S
H6402 C6414 0.950 . S
H6403 C6415 0.950 . S
C6404 H6396 0.950 . S
C6404 C6405 1.386 . S
C6404 C6406 1.391 . S
C6405 C6404 1.386 . S
C6405 C6409 1.393 . S
C6406 H6398 0.950 . S
C6406 C6404 1.391 . S
C6406 C6407 1.400 . S
C6407 C6406 1.400 . S
C6407 C6408 1.398 . S
C6407 C6413 1.491 . S
C6408 H6399 0.950 . S
C6408 C6407 1.398 . S
C6408 C6409 1.391 . S
C6409 H6397 0.950 . S
C6409 C6405 1.393 . S
C6409 C6408 1.391 . S
C6410 H6400 0.950 . S
C6410 C6411 1.386 . S
C6410 C6412 1.391 . S
C6411 C6410 1.386 . S
C6411 C6415 1.393 . S
C6412 H6401 0.950 . S
C6412 C6410 1.391 . S
C6412 C6413 1.400 . S
C6413 C6407 1.491 . S
C6413 C6412 1.400 . S
C6413 C6414 1.398 . S
C6414 H6402 0.950 . S
C6414 C6413 1.398 . S
C6414 C6415 1.391 . S
C6415 H6403 0.950 . S
C6415 C6411 1.393 . S
C6415 C6414 1.391 . S
H6416 C6424 0.950 . S
H6417 C6429 0.950 . S
H6418 C6426 0.950 . S
H6419 C6428 0.950 . S
H6420 C6430 0.950 . S
H6421 C6432 0.950 . S
H6422 C6434 0.950 . S
H6423 C6435 0.950 . S
C6424 H6416 0.950 . S
C6424 C6425 1.386 . S
C6424 C6426 1.391 . S
C6425 C6424 1.386 . S
C6425 C6429 1.393 . S
C6426 H6418 0.950 . S
C6426 C6424 1.391 . S
C6426 C6427 1.400 . S
C6427 C6426 1.400 . S
C6427 C6428 1.398 . S
C6427 C6433 1.491 . S
C6428 H6419 0.950 . S
C6428 C6427 1.398 . S
C6428 C6429 1.391 . S
C6429 H6417 0.950 . S
C6429 C6425 1.393 . S
C6429 C6428 1.391 . S
C6430 H6420 0.950 . S
C6430 C6431 1.386 . S
C6430 C6432 1.391 . S
C6431 C6430 1.386 . S
C6431 C6435 1.393 . S
C6432 H6421 0.950 . S
C6432 C6430 1.391 . S
C6432 C6433 1.400 . S
C6433 C6427 1.491 . S
C6433 C6432 1.400 . S
C6433 C6434 1.398 . S
C6434 H6422 0.950 . S
C6434 C6433 1.398 . S
C6434 C6435 1.391 . S
C6435 H6423 0.950 . S
C6435 C6431 1.393 . S
C6435 C6434 1.391 . S
H6436 C6444 0.950 . S
H6437 C6449 0.950 . S
H6438 C6446 0.950 . S
H6439 C6448 0.950 . S
H6440 C6450 0.950 . S
H6441 C6452 0.950 . S
H6442 C6454 0.950 . S
H6443 C6455 0.950 . S
C6444 H6436 0.950 . S
C6444 C6445 1.386 . S
C6444 C6446 1.391 . S
C6445 C6444 1.386 . S
C6445 C6449 1.393 . S
C6446 H6438 0.950 . S
C6446 C6444 1.391 . S
C6446 C6447 1.400 . S
C6447 C6446 1.400 . S
C6447 C6448 1.398 . S
C6447 C6453 1.491 . S
C6448 H6439 0.950 . S
C6448 C6447 1.398 . S
C6448 C6449 1.391 . S
C6449 H6437 0.950 . S
C6449 C6445 1.393 . S
C6449 C6448 1.391 . S
C6450 H6440 0.950 . S
C6450 C6451 1.386 . S
C6450 C6452 1.391 . S
C6451 C6450 1.386 . S
C6451 C6455 1.393 . S
C6452 H6441 0.950 . S
C6452 C6450 1.391 . S
C6452 C6453 1.400 . S
C6453 C6447 1.491 . S
C6453 C6452 1.400 . S
C6453 C6454 1.398 . S
C6454 H6442 0.950 . S
C6454 C6453 1.398 . S
C6454 C6455 1.391 . S
C6455 H6443 0.950 . S
C6455 C6451 1.393 . S
C6455 C6454 1.391 . S
H6456 C6464 0.950 . S
H6457 C6469 0.950 . S
H6458 C6466 0.950 . S
H6459 C6468 0.950 . S
H6460 C6470 0.950 . S
H6461 C6472 0.994 . S
H6462 C6474 1.001 . S
H6463 C6475 0.950 . S
C6464 H6456 0.950 . S
C6464 C6465 1.386 . S
C6464 C6466 1.391 . S
C6465 C6464 1.386 . S
C6465 C6469 1.393 . S
C6466 H6458 0.950 . S
C6466 C6464 1.391 . S
C6466 C6467 1.400 . S
C6467 C6466 1.400 . S
C6467 C6468 1.398 . S
C6467 C6473 1.491 . S
C6468 H6459 0.950 . S
C6468 C6467 1.398 . S
C6468 C6469 1.391 . S
C6469 H6457 0.950 . S
C6469 C6465 1.393 . S
C6469 C6468 1.391 . S
C6470 H6460 0.950 . S
C6470 C6471 1.386 . S
C6470 C6472 1.328 1_655 S
C6471 C6470 1.386 . S
C6471 C6475 1.393 . S
C6472 H6461 0.994 . S
C6472 C6470 1.328 1_455 S
C6472 C6473 1.422 . S
C6473 C6467 1.491 . S
C6473 C6472 1.422 . S
C6473 C6474 1.398 1_455 S
C6474 H6462 1.001 . S
C6474 C6473 1.398 1_655 S
C6474 C6475 1.391 . S
C6475 H6463 0.950 . S
C6475 C6471 1.393 . S
C6475 C6474 1.391 . S
H6476 C6484 0.950 . S
H6477 C6489 0.950 . S
H6478 C6486 0.950 . S
H6479 C6488 0.950 . S
H6480 C6490 0.950 . S
H6481 C6492 0.950 . S
H6482 C6494 0.950 . S
H6483 C6495 0.950 . S
C6484 H6476 0.950 . S
C6484 C6485 1.386 . S
C6484 C6486 1.391 . S
C6485 C6484 1.386 . S
C6485 C6489 1.393 . S
C6486 H6478 0.950 . S
C6486 C6484 1.391 . S
C6486 C6487 1.400 . S
C6487 C6486 1.400 . S
C6487 C6488 1.398 . S
C6487 C6493 1.491 . S
C6488 H6479 0.950 . S
C6488 C6487 1.398 . S
C6488 C6489 1.391 . S
C6489 H6477 0.950 . S
C6489 C6485 1.393 . S
C6489 C6488 1.391 . S
C6490 H6480 0.950 . S
C6490 C6491 1.386 . S
C6490 C6492 1.391 . S
C6491 C6490 1.386 . S
C6491 C6495 1.393 . S
C6492 H6481 0.950 . S
C6492 C6490 1.391 . S
C6492 C6493 1.400 . S
C6493 C6487 1.491 . S
C6493 C6492 1.400 . S
C6493 C6494 1.398 . S
C6494 H6482 0.950 . S
C6494 C6493 1.398 . S
C6494 C6495 1.391 . S
C6495 H6483 0.950 . S
C6495 C6491 1.393 . S
C6495 C6494 1.391 . S
H6496 C6504 0.950 . S
H6497 C6509 0.950 . S
H6498 C6506 0.950 . S
H6499 C6508 0.950 . S
H6500 C6510 0.950 . S
H6501 C6512 0.950 . S
H6502 C6514 0.950 . S
H6503 C6515 0.950 . S
C6504 H6496 0.950 . S
C6504 C6505 1.386 . S
C6504 C6506 1.391 . S
C6505 C6504 1.386 . S
C6505 C6509 1.393 . S
C6506 H6498 0.950 . S
C6506 C6504 1.391 . S
C6506 C6507 1.400 . S
C6507 C6506 1.400 . S
C6507 C6508 1.398 . S
C6507 C6513 1.491 . S
C6508 H6499 0.950 . S
C6508 C6507 1.398 . S
C6508 C6509 1.391 . S
C6509 H6497 0.950 . S
C6509 C6505 1.393 . S
C6509 C6508 1.391 . S
C6510 H6500 0.950 . S
C6510 C6511 1.386 . S
C6510 C6512 1.391 . S
C6511 C6510 1.386 . S
C6511 C6515 1.393 . S
C6512 H6501 0.950 . S
C6512 C6510 1.391 . S
C6512 C6513 1.400 . S
C6513 C6507 1.491 . S
C6513 C6512 1.400 . S
C6513 C6514 1.398 . S
C6514 H6502 0.950 . S
C6514 C6513 1.398 . S
C6514 C6515 1.391 . S
C6515 H6503 0.950 . S
C6515 C6511 1.393 . S
C6515 C6514 1.391 . S
H6516 C6524 0.950 . S
H6517 C6529 0.950 . S
H6518 C6526 0.950 . S
H6519 C6528 0.950 . S
H6520 C6530 0.950 . S
H6521 C6532 0.950 . S
H6522 C6534 0.950 . S
H6523 C6535 0.950 . S
C6524 H6516 0.950 . S
C6524 C6525 1.386 . S
C6524 C6526 1.391 . S
C6525 C6524 1.386 . S
C6525 C6529 1.393 . S
C6526 H6518 0.950 . S
C6526 C6524 1.391 . S
C6526 C6527 1.400 . S
C6527 C6526 1.400 . S
C6527 C6528 1.398 . S
C6527 C6533 1.491 . S
C6528 H6519 0.950 . S
C6528 C6527 1.398 . S
C6528 C6529 1.391 . S
C6529 H6517 0.950 . S
C6529 C6525 1.393 . S
C6529 C6528 1.391 . S
C6530 H6520 0.950 . S
C6530 C6531 1.386 . S
C6530 C6532 1.391 . S
C6531 C6530 1.386 . S
C6531 C6535 1.393 . S
C6532 H6521 0.950 . S
C6532 C6530 1.391 . S
C6532 C6533 1.400 . S
C6533 C6527 1.491 . S
C6533 C6532 1.400 . S
C6533 C6534 1.398 . S
C6534 H6522 0.950 . S
C6534 C6533 1.398 . S
C6534 C6535 1.391 . S
C6535 H6523 0.950 . S
C6535 C6531 1.393 . S
C6535 C6534 1.391 . S
H6536 C6544 0.950 . S
H6537 C6549 0.950 . S
H6538 C6546 0.950 . S
H6539 C6548 0.950 . S
H6540 C6550 0.950 . S
H6541 C6552 0.950 . S
H6542 C6554 0.950 . S
H6543 C6555 0.950 . S
C6544 H6536 0.950 . S
C6544 C6545 1.386 . S
C6544 C6546 1.391 . S
C6545 C6544 1.386 . S
C6545 C6549 1.393 . S
C6546 H6538 0.950 . S
C6546 C6544 1.391 . S
C6546 C6547 1.400 . S
C6547 C6546 1.400 . S
C6547 C6548 1.398 . S
C6547 C6553 1.491 . S
C6548 H6539 0.950 . S
C6548 C6547 1.398 . S
C6548 C6549 1.391 . S
C6549 H6537 0.950 . S
C6549 C6545 1.393 . S
C6549 C6548 1.391 . S
C6550 H6540 0.950 . S
C6550 C6551 1.386 . S
C6550 C6552 1.391 . S
C6551 C6550 1.386 . S
C6551 C6555 1.393 . S
C6552 H6541 0.950 . S
C6552 C6550 1.391 . S
C6552 C6553 1.400 . S
C6553 C6547 1.491 . S
C6553 C6552 1.400 . S
C6553 C6554 1.398 . S
C6554 H6542 0.950 . S
C6554 C6553 1.398 . S
C6554 C6555 1.391 . S
C6555 H6543 0.950 . S
C6555 C6551 1.393 . S
C6555 C6554 1.391 . S
H6556 C6564 0.950 . S
H6557 C6569 0.950 . S
H6558 C6566 0.950 . S
H6559 C6568 0.950 . S
H6560 C6570 0.950 . S
H6561 C6572 0.950 . S
H6562 C6574 0.950 . S
H6563 C6575 0.950 . S
C6564 H6556 0.950 . S
C6564 C6565 1.386 . S
C6564 C6566 1.391 . S
C6565 C6564 1.386 . S
C6565 C6569 1.393 . S
C6566 H6558 0.950 . S
C6566 C6564 1.391 . S
C6566 C6567 1.400 . S
C6567 C6566 1.400 . S
C6567 C6568 1.398 . S
C6567 C6573 1.491 . S
C6568 H6559 0.950 . S
C6568 C6567 1.398 . S
C6568 C6569 1.391 . S
C6569 H6557 0.950 . S
C6569 C6565 1.393 . S
C6569 C6568 1.391 . S
C6570 H6560 0.950 . S
C6570 C6571 1.386 . S
C6570 C6572 1.391 . S
C6571 C6570 1.386 . S
C6571 C6575 1.393 . S
C6572 H6561 0.950 . S
C6572 C6570 1.391 . S
C6572 C6573 1.400 . S
C6573 C6567 1.491 . S
C6573 C6572 1.400 . S
C6573 C6574 1.398 . S
C6574 H6562 0.950 . S
C6574 C6573 1.398 . S
C6574 C6575 1.391 . S
C6575 H6563 0.950 . S
C6575 C6571 1.393 . S
C6575 C6574 1.391 . S
H6576 C6584 0.950 . S
H6577 C6589 0.950 . S
H6578 C6586 0.950 . S
H6579 C6588 0.950 . S
H6580 C6590 0.950 . S
H6581 C6592 0.950 . S
H6582 C6594 0.950 . S
H6583 C6595 0.950 . S
C6584 H6576 0.950 . S
C6584 C6585 1.386 . S
C6584 C6586 1.391 . S
C6585 C6584 1.386 . S
C6585 C6589 1.393 . S
C6586 H6578 0.950 . S
C6586 C6584 1.391 . S
C6586 C6587 1.400 . S
C6587 C6586 1.400 . S
C6587 C6588 1.398 . S
C6587 C6593 1.491 . S
C6588 H6579 0.950 . S
C6588 C6587 1.398 . S
C6588 C6589 1.391 . S
C6589 H6577 0.950 . S
C6589 C6585 1.393 . S
C6589 C6588 1.391 . S
C6590 H6580 0.950 . S
C6590 C6591 1.386 . S
C6590 C6592 1.391 . S
C6591 C6590 1.386 . S
C6591 C6595 1.393 . S
C6592 H6581 0.950 . S
C6592 C6590 1.391 . S
C6592 C6593 1.400 . S
C6593 C6587 1.491 . S
C6593 C6592 1.400 . S
C6593 C6594 1.398 . S
C6594 H6582 0.950 . S
C6594 C6593 1.398 . S
C6594 C6595 1.391 . S
C6595 H6583 0.950 . S
C6595 C6591 1.393 . S
C6595 C6594 1.391 . S
H6596 C6604 0.950 . S
H6597 C6609 0.950 . S
H6598 C6606 0.950 . S
H6599 C6608 0.950 . S
H6600 C6610 0.950 . S
H6601 C6612 0.950 . S
H6602 C6614 0.950 . S
H6603 C6615 0.950 . S
C6604 H6596 0.950 . S
C6604 C6605 1.386 . S
C6604 C6606 1.391 . S
C6605 C6604 1.386 . S
C6605 C6609 1.393 . S
C6606 H6598 0.950 . S
C6606 C6604 1.391 . S
C6606 C6607 1.400 . S
C6607 C6606 1.400 . S
C6607 C6608 1.398 . S
C6607 C6613 1.491 . S
C6608 H6599 0.950 . S
C6608 C6607 1.398 . S
C6608 C6609 1.391 . S
C6609 H6597 0.950 . S
C6609 C6605 1.393 . S
C6609 C6608 1.391 . S
C6610 H6600 0.950 . S
C6610 C6611 1.386 . S
C6610 C6612 1.391 . S
C6611 C6610 1.386 . S
C6611 C6615 1.393 . S
C6612 H6601 0.950 . S
C6612 C6610 1.391 . S
C6612 C6613 1.400 . S
C6613 C6607 1.491 . S
C6613 C6612 1.400 . S
C6613 C6614 1.398 . S
C6614 H6602 0.950 . S
C6614 C6613 1.398 . S
C6614 C6615 1.391 . S
C6615 H6603 0.950 . S
C6615 C6611 1.393 . S
C6615 C6614 1.391 . S
H6616 C6624 0.950 . S
H6617 C6629 0.950 . S
H6618 C6626 0.950 . S
H6619 C6628 0.950 . S
H6620 C6630 0.950 . S
H6621 C6632 0.950 . S
H6622 C6634 0.950 . S
H6623 C6635 0.950 . S
C6624 H6616 0.950 . S
C6624 C6625 1.386 . S
C6624 C6626 1.391 . S
C6625 C6624 1.386 . S
C6625 C6629 1.393 . S
C6626 H6618 0.950 . S
C6626 C6624 1.391 . S
C6626 C6627 1.400 . S
C6627 C6626 1.400 . S
C6627 C6628 1.398 . S
C6627 C6633 1.491 . S
C6628 H6619 0.950 . S
C6628 C6627 1.398 . S
C6628 C6629 1.391 . S
C6629 H6617 0.950 . S
C6629 C6625 1.393 . S
C6629 C6628 1.391 . S
C6630 H6620 0.950 . S
C6630 C6631 1.386 . S
C6630 C6632 1.391 . S
C6631 C6630 1.386 . S
C6631 C6635 1.393 . S
C6632 H6621 0.950 . S
C6632 C6630 1.391 . S
C6632 C6633 1.400 . S
C6633 C6627 1.491 . S
C6633 C6632 1.400 . S
C6633 C6634 1.398 . S
C6634 H6622 0.950 . S
C6634 C6633 1.398 . S
C6634 C6635 1.391 . S
C6635 H6623 0.950 . S
C6635 C6631 1.393 . S
C6635 C6634 1.391 . S
H6636 C6644 0.950 . S
H6637 C6649 0.950 . S
H6638 C6646 0.950 . S
H6639 C6648 0.950 . S
H6640 C6650 0.950 . S
H6641 C6652 0.950 . S
H6642 C6654 0.950 . S
H6643 C6655 0.950 . S
C6644 H6636 0.950 . S
C6644 C6645 1.386 . S
C6644 C6646 1.391 . S
C6645 C6644 1.386 . S
C6645 C6649 1.393 . S
C6646 H6638 0.950 . S
C6646 C6644 1.391 . S
C6646 C6647 1.400 . S
C6647 C6646 1.400 . S
C6647 C6648 1.398 . S
C6647 C6653 1.491 . S
C6648 H6639 0.950 . S
C6648 C6647 1.398 . S
C6648 C6649 1.391 . S
C6649 H6637 0.950 . S
C6649 C6645 1.393 . S
C6649 C6648 1.391 . S
C6650 H6640 0.950 . S
C6650 C6651 1.386 . S
C6650 C6652 1.391 . S
C6651 C6650 1.386 . S
C6651 C6655 1.393 . S
C6652 H6641 0.950 . S
C6652 C6650 1.391 . S
C6652 C6653 1.400 . S
C6653 C6647 1.491 . S
C6653 C6652 1.400 . S
C6653 C6654 1.398 . S
C6654 H6642 0.950 . S
C6654 C6653 1.398 . S
C6654 C6655 1.391 . S
C6655 H6643 0.950 . S
C6655 C6651 1.393 . S
C6655 C6654 1.391 . S
H6656 C6664 0.950 . S
H6657 C6669 0.950 . S
H6658 C6666 0.950 . S
H6659 C6668 0.950 . S
H6660 C6670 0.950 . S
H6661 C6672 0.950 . S
H6662 C6674 0.950 . S
H6663 C6675 0.950 . S
C6664 H6656 0.950 . S
C6664 C6665 1.386 . S
C6664 C6666 1.391 . S
C6665 C6664 1.386 . S
C6665 C6669 1.393 . S
C6666 H6658 0.950 . S
C6666 C6664 1.391 . S
C6666 C6667 1.400 . S
C6667 C6666 1.400 . S
C6667 C6668 1.398 . S
C6667 C6673 1.491 . S
C6668 H6659 0.950 . S
C6668 C6667 1.398 . S
C6668 C6669 1.391 . S
C6669 H6657 0.950 . S
C6669 C6665 1.393 . S
C6669 C6668 1.391 . S
C6670 H6660 0.950 . S
C6670 C6671 1.386 . S
C6670 C6672 1.391 . S
C6671 C6670 1.386 . S
C6671 C6675 1.393 . S
C6672 H6661 0.950 . S
C6672 C6670 1.391 . S
C6672 C6673 1.400 . S
C6673 C6667 1.491 . S
C6673 C6672 1.400 . S
C6673 C6674 1.398 . S
C6674 H6662 0.950 . S
C6674 C6673 1.398 . S
C6674 C6675 1.391 . S
C6675 H6663 0.950 . S
C6675 C6671 1.393 . S
C6675 C6674 1.391 . S
H6676 C6684 0.950 . S
H6677 C6689 0.950 . S
H6678 C6686 0.950 . S
H6679 C6688 0.950 . S
H6680 C6690 0.950 . S
H6681 C6692 0.950 . S
H6682 C6694 0.950 . S
H6683 C6695 0.950 . S
C6684 H6676 0.950 . S
C6684 C6685 1.386 . S
C6684 C6686 1.391 . S
C6685 C6684 1.386 . S
C6685 C6689 1.393 . S
C6686 H6678 0.950 . S
C6686 C6684 1.391 . S
C6686 C6687 1.400 . S
C6687 C6686 1.400 . S
C6687 C6688 1.398 . S
C6687 C6693 1.491 . S
C6688 H6679 0.950 . S
C6688 C6687 1.398 . S
C6688 C6689 1.391 . S
C6689 H6677 0.950 . S
C6689 C6685 1.393 . S
C6689 C6688 1.391 . S
C6690 H6680 0.950 . S
C6690 C6691 1.386 . S
C6690 C6692 1.391 . S
C6691 C6690 1.386 . S
C6691 C6695 1.393 . S
C6692 H6681 0.950 . S
C6692 C6690 1.391 . S
C6692 C6693 1.400 . S
C6693 C6687 1.491 . S
C6693 C6692 1.400 . S
C6693 C6694 1.398 . S
C6694 H6682 0.950 . S
C6694 C6693 1.398 . S
C6694 C6695 1.391 . S
C6695 H6683 0.950 . S
C6695 C6691 1.393 . S
C6695 C6694 1.391 . S
H6696 C6704 0.950 . S
H6697 C6709 0.950 . S
H6698 C6706 0.950 . S
H6699 C6708 0.950 . S
H6700 C6710 0.950 . S
H6701 C6712 0.950 . S
H6702 C6714 0.950 . S
H6703 C6715 0.950 . S
C6704 H6696 0.950 . S
C6704 C6705 1.386 . S
C6704 C6706 1.391 . S
C6705 C6704 1.386 . S
C6705 C6709 1.393 . S
C6706 H6698 0.950 . S
C6706 C6704 1.391 . S
C6706 C6707 1.400 . S
C6707 C6706 1.400 . S
C6707 C6708 1.398 . S
C6707 C6713 1.491 . S
C6708 H6699 0.950 . S
C6708 C6707 1.398 . S
C6708 C6709 1.391 . S
C6709 H6697 0.950 . S
C6709 C6705 1.393 . S
C6709 C6708 1.391 . S
C6710 H6700 0.950 . S
C6710 C6711 1.386 . S
C6710 C6712 1.391 . S
C6711 C6710 1.386 . S
C6711 C6715 1.393 . S
C6712 H6701 0.950 . S
C6712 C6710 1.391 . S
C6712 C6713 1.400 . S
C6713 C6707 1.491 . S
C6713 C6712 1.400 . S
C6713 C6714 1.398 . S
C6714 H6702 0.950 . S
C6714 C6713 1.398 . S
C6714 C6715 1.391 . S
C6715 H6703 0.950 . S
C6715 C6711 1.393 . S
C6715 C6714 1.391 . S
H6716 C6724 0.950 . S
H6717 C6729 0.950 . S
H6718 C6726 0.950 . S
H6719 C6728 0.950 . S
H6720 C6730 0.950 . S
H6721 C6732 0.968 . S
H6722 C6734 0.981 . S
H6723 C6735 0.950 . S
C6724 H6716 0.950 . S
C6724 C6725 1.386 . S
C6724 C6726 1.391 . S
C6725 C6724 1.386 . S
C6725 C6729 1.393 . S
C6726 H6718 0.950 . S
C6726 C6724 1.391 . S
C6726 C6727 1.400 . S
C6727 C6726 1.400 . S
C6727 C6728 1.398 . S
C6727 C6733 1.491 . S
C6728 H6719 0.950 . S
C6728 C6727 1.398 . S
C6728 C6729 1.391 . S
C6729 H6717 0.950 . S
C6729 C6725 1.393 . S
C6729 C6728 1.391 . S
C6730 H6720 0.950 . S
C6730 C6731 1.386 . S
C6730 C6732 1.364 1_556 S
C6731 C6730 1.386 . S
C6731 C6735 1.393 . S
C6732 H6721 0.968 . S
C6732 C6730 1.364 1_554 S
C6732 C6733 1.410 . S
C6733 C6727 1.491 . S
C6733 C6732 1.410 . S
C6733 C6734 1.398 1_554 S
C6734 H6722 0.981 . S
C6734 C6733 1.398 1_556 S
C6734 C6735 1.391 . S
C6735 H6723 0.950 . S
C6735 C6731 1.393 . S
C6735 C6734 1.391 . S
H6736 C6744 0.950 . S
H6737 C6749 0.950 . S
H6738 C6746 0.950 . S
H6739 C6748 0.950 . S
H6740 C6750 0.950 . S
H6741 C6752 0.950 . S
H6742 C6754 0.950 . S
H6743 C6755 0.950 . S
C6744 H6736 0.950 . S
C6744 C6745 1.386 . S
C6744 C6746 1.391 . S
C6745 C6744 1.386 . S
C6745 C6749 1.393 . S
C6746 H6738 0.950 . S
C6746 C6744 1.391 . S
C6746 C6747 1.400 . S
C6747 C6746 1.400 . S
C6747 C6748 1.398 . S
C6747 C6753 1.491 . S
C6748 H6739 0.950 . S
C6748 C6747 1.398 . S
C6748 C6749 1.391 . S
C6749 H6737 0.950 . S
C6749 C6745 1.393 . S
C6749 C6748 1.391 . S
C6750 H6740 0.950 . S
C6750 C6751 1.386 . S
C6750 C6752 1.391 . S
C6751 C6750 1.386 . S
C6751 C6755 1.393 . S
C6752 H6741 0.950 . S
C6752 C6750 1.391 . S
C6752 C6753 1.400 . S
C6753 C6747 1.491 . S
C6753 C6752 1.400 . S
C6753 C6754 1.398 . S
C6754 H6742 0.950 . S
C6754 C6753 1.398 . S
C6754 C6755 1.391 . S
C6755 H6743 0.950 . S
C6755 C6751 1.393 . S
C6755 C6754 1.391 . S
H6756 C6764 0.950 . S
H6757 C6769 0.950 . S
H6758 C6766 0.950 . S
H6759 C6768 0.950 . S
H6760 C6770 0.950 . S
H6761 C6772 0.988 . S
H6762 C6774 0.979 . S
H6763 C6775 0.950 . S
C6764 H6756 0.950 . S
C6764 C6765 1.386 . S
C6764 C6766 1.391 . S
C6765 C6764 1.386 . S
C6765 C6769 1.393 . S
C6766 H6758 0.950 . S
C6766 C6764 1.391 . S
C6766 C6767 1.400 . S
C6767 C6766 1.400 . S
C6767 C6768 1.398 . S
C6767 C6773 1.491 . S
C6768 H6759 0.950 . S
C6768 C6767 1.398 . S
C6768 C6769 1.391 . S
C6769 H6757 0.950 . S
C6769 C6765 1.393 . S
C6769 C6768 1.391 . S
C6770 H6760 0.950 . S
C6770 C6771 1.386 . S
C6770 C6772 1.336 1_554 S
C6771 C6770 1.386 . S
C6771 C6775 1.393 . S
C6772 H6761 0.988 . S
C6772 C6770 1.336 1_556 S
C6772 C6773 1.420 . S
C6773 C6767 1.491 . S
C6773 C6772 1.420 . S
C6773 C6774 1.398 1_556 S
C6774 H6762 0.979 . S
C6774 C6773 1.398 1_554 S
C6774 C6775 1.391 . S
C6775 H6763 0.950 . S
C6775 C6771 1.393 . S
C6775 C6774 1.391 . S
H6776 C6784 0.950 . S
H6777 C6789 0.950 . S
H6778 C6786 0.950 . S
H6779 C6788 0.950 . S
H6780 C6790 0.950 . S
H6781 C6792 0.950 . S
H6782 C6794 0.950 . S
H6783 C6795 0.950 . S
C6784 H6776 0.950 . S
C6784 C6785 1.386 . S
C6784 C6786 1.391 . S
C6785 C6784 1.386 . S
C6785 C6789 1.393 . S
C6786 H6778 0.950 . S
C6786 C6784 1.391 . S
C6786 C6787 1.400 . S
C6787 C6786 1.400 . S
C6787 C6788 1.398 . S
C6787 C6793 1.491 . S
C6788 H6779 0.950 . S
C6788 C6787 1.398 . S
C6788 C6789 1.391 . S
C6789 H6777 0.950 . S
C6789 C6785 1.393 . S
C6789 C6788 1.391 . S
C6790 H6780 0.950 . S
C6790 C6791 1.386 . S
C6790 C6792 1.391 . S
C6791 C6790 1.386 . S
C6791 C6795 1.393 . S
C6792 H6781 0.950 . S
C6792 C6790 1.391 . S
C6792 C6793 1.400 . S
C6793 C6787 1.491 . S
C6793 C6792 1.400 . S
C6793 C6794 1.398 . S
C6794 H6782 0.950 . S
C6794 C6793 1.398 . S
C6794 C6795 1.391 . S
C6795 H6783 0.950 . S
C6795 C6791 1.393 . S
C6795 C6794 1.391 . S
H6796 C6804 0.950 . S
H6797 C6809 0.950 . S
H6798 C6806 0.950 . S
H6799 C6808 0.950 . S
H6800 C6810 0.950 . S
H6801 C6812 0.950 . S
H6802 C6814 0.950 . S
H6803 C6815 0.950 . S
C6804 H6796 0.950 . S
C6804 C6805 1.386 . S
C6804 C6806 1.391 . S
C6805 C6804 1.386 . S
C6805 C6809 1.393 . S
C6806 H6798 0.950 . S
C6806 C6804 1.391 . S
C6806 C6807 1.400 . S
C6807 C6806 1.400 . S
C6807 C6808 1.398 . S
C6807 C6813 1.491 . S
C6808 H6799 0.950 . S
C6808 C6807 1.398 . S
C6808 C6809 1.391 . S
C6809 H6797 0.950 . S
C6809 C6805 1.393 . S
C6809 C6808 1.391 . S
C6810 H6800 0.950 . S
C6810 C6811 1.386 . S
C6810 C6812 1.391 . S
C6811 C6810 1.386 . S
C6811 C6815 1.393 . S
C6812 H6801 0.950 . S
C6812 C6810 1.391 . S
C6812 C6813 1.400 . S
C6813 C6807 1.491 . S
C6813 C6812 1.400 . S
C6813 C6814 1.398 . S
C6814 H6802 0.950 . S
C6814 C6813 1.398 . S
C6814 C6815 1.391 . S
C6815 H6803 0.950 . S
C6815 C6811 1.393 . S
C6815 C6814 1.391 . S
H6816 C6824 0.950 . S
H6817 C6829 0.950 . S
H6818 C6826 0.950 . S
H6819 C6828 0.950 . S
H6820 C6830 0.950 . S
H6821 C6832 0.950 . S
H6822 C6834 0.950 . S
H6823 C6835 0.950 . S
C6824 H6816 0.950 . S
C6824 C6825 1.386 . S
C6824 C6826 1.391 . S
C6825 C6824 1.386 . S
C6825 C6829 1.393 . S
C6826 H6818 0.950 . S
C6826 C6824 1.391 . S
C6826 C6827 1.400 . S
C6827 C6826 1.400 . S
C6827 C6828 1.398 . S
C6827 C6833 1.491 . S
C6828 H6819 0.950 . S
C6828 C6827 1.398 . S
C6828 C6829 1.391 . S
C6829 H6817 0.950 . S
C6829 C6825 1.393 . S
C6829 C6828 1.391 . S
C6830 H6820 0.950 . S
C6830 C6831 1.386 . S
C6830 C6832 1.391 . S
C6831 C6830 1.386 . S
C6831 C6835 1.393 . S
C6832 H6821 0.950 . S
C6832 C6830 1.391 . S
C6832 C6833 1.400 . S
C6833 C6827 1.491 . S
C6833 C6832 1.400 . S
C6833 C6834 1.398 . S
C6834 H6822 0.950 . S
C6834 C6833 1.398 . S
C6834 C6835 1.391 . S
C6835 H6823 0.950 . S
C6835 C6831 1.393 . S
C6835 C6834 1.391 . S
H6836 C6844 0.950 . S
H6837 C6849 0.950 . S
H6838 C6846 0.950 . S
H6839 C6848 0.950 . S
H6840 C6850 0.950 . S
H6841 C6852 0.950 . S
H6842 C6854 0.950 . S
H6843 C6855 0.950 . S
C6844 H6836 0.950 . S
C6844 C6845 1.386 . S
C6844 C6846 1.391 . S
C6845 C6844 1.386 . S
C6845 C6849 1.393 . S
C6846 H6838 0.950 . S
C6846 C6844 1.391 . S
C6846 C6847 1.400 . S
C6847 C6846 1.400 . S
C6847 C6848 1.398 . S
C6847 C6853 1.491 . S
C6848 H6839 0.950 . S
C6848 C6847 1.398 . S
C6848 C6849 1.391 . S
C6849 H6837 0.950 . S
C6849 C6845 1.393 . S
C6849 C6848 1.391 . S
C6850 H6840 0.950 . S
C6850 C6851 1.386 . S
C6850 C6852 1.391 . S
C6851 C6850 1.386 . S
C6851 C6855 1.393 . S
C6852 H6841 0.950 . S
C6852 C6850 1.391 . S
C6852 C6853 1.400 . S
C6853 C6847 1.491 . S
C6853 C6852 1.400 . S
C6853 C6854 1.398 . S
C6854 H6842 0.950 . S
C6854 C6853 1.398 . S
C6854 C6855 1.391 . S
C6855 H6843 0.950 . S
C6855 C6851 1.393 . S
C6855 C6854 1.391 . S
H6856 C6864 0.950 . S
H6857 C6869 0.950 . S
H6858 C6866 0.950 . S
H6859 C6868 0.950 . S
H6860 C6870 0.950 . S
H6861 C6872 0.950 . S
H6862 C6874 0.950 . S
H6863 C6875 0.950 . S
C6864 H6856 0.950 . S
C6864 C6865 1.386 . S
C6864 C6866 1.391 . S
C6865 C6864 1.386 . S
C6865 C6869 1.393 . S
C6866 H6858 0.950 . S
C6866 C6864 1.391 . S
C6866 C6867 1.400 . S
C6867 C6866 1.400 . S
C6867 C6868 1.398 . S
C6867 C6873 1.491 . S
C6868 H6859 0.950 . S
C6868 C6867 1.398 . S
C6868 C6869 1.391 . S
C6869 H6857 0.950 . S
C6869 C6865 1.393 . S
C6869 C6868 1.391 . S
C6870 H6860 0.950 . S
C6870 C6871 1.386 . S
C6870 C6872 1.391 . S
C6871 C6870 1.386 . S
C6871 C6875 1.393 . S
C6872 H6861 0.950 . S
C6872 C6870 1.391 . S
C6872 C6873 1.400 . S
C6873 C6867 1.491 . S
C6873 C6872 1.400 . S
C6873 C6874 1.398 . S
C6874 H6862 0.950 . S
C6874 C6873 1.398 . S
C6874 C6875 1.391 . S
C6875 H6863 0.950 . S
C6875 C6871 1.393 . S
C6875 C6874 1.391 . S
H6876 C6884 0.950 . S
H6877 C6889 0.950 . S
H6878 C6886 0.950 . S
H6879 C6888 0.950 . S
H6880 C6890 0.950 . S
H6881 C6892 0.950 . S
H6882 C6894 0.950 . S
H6883 C6895 0.950 . S
C6884 H6876 0.950 . S
C6884 C6885 1.386 . S
C6884 C6886 1.391 . S
C6885 C6884 1.386 . S
C6885 C6889 1.393 . S
C6886 H6878 0.950 . S
C6886 C6884 1.391 . S
C6886 C6887 1.400 . S
C6887 C6886 1.400 . S
C6887 C6888 1.398 . S
C6887 C6893 1.491 . S
C6888 H6879 0.950 . S
C6888 C6887 1.398 . S
C6888 C6889 1.391 . S
C6889 H6877 0.950 . S
C6889 C6885 1.393 . S
C6889 C6888 1.391 . S
C6890 H6880 0.950 . S
C6890 C6891 1.386 . S
C6890 C6892 1.391 . S
C6891 C6890 1.386 . S
C6891 C6895 1.393 . S
C6892 H6881 0.950 . S
C6892 C6890 1.391 . S
C6892 C6893 1.400 . S
C6893 C6887 1.491 . S
C6893 C6892 1.400 . S
C6893 C6894 1.398 . S
C6894 H6882 0.950 . S
C6894 C6893 1.398 . S
C6894 C6895 1.391 . S
C6895 H6883 0.950 . S
C6895 C6891 1.393 . S
C6895 C6894 1.391 . S
H6896 C6904 0.950 . S
H6897 C6909 0.950 . S
H6898 C6906 0.950 . S
H6899 C6908 0.950 . S
H6900 C6910 0.950 . S
H6901 C6912 0.950 . S
H6902 C6914 0.950 . S
H6903 C6915 0.950 . S
C6904 H6896 0.950 . S
C6904 C6905 1.386 . S
C6904 C6906 1.391 . S
C6905 C6904 1.386 . S
C6905 C6909 1.393 . S
C6906 H6898 0.950 . S
C6906 C6904 1.391 . S
C6906 C6907 1.400 . S
C6907 C6906 1.400 . S
C6907 C6908 1.398 . S
C6907 C6913 1.491 . S
C6908 H6899 0.950 . S
C6908 C6907 1.398 . S
C6908 C6909 1.391 . S
C6909 H6897 0.950 . S
C6909 C6905 1.393 . S
C6909 C6908 1.391 . S
C6910 H6900 0.950 . S
C6910 C6911 1.386 . S
C6910 C6912 1.391 . S
C6911 C6910 1.386 . S
C6911 C6915 1.393 . S
C6912 H6901 0.950 . S
C6912 C6910 1.391 . S
C6912 C6913 1.400 . S
C6913 C6907 1.491 . S
C6913 C6912 1.400 . S
C6913 C6914 1.398 . S
C6914 H6902 0.950 . S
C6914 C6913 1.398 . S
C6914 C6915 1.391 . S
C6915 H6903 0.950 . S
C6915 C6911 1.393 . S
C6915 C6914 1.391 . S
H6916 C6924 0.950 . S
H6917 C6929 0.950 . S
H6918 C6926 0.950 . S
H6919 C6928 0.950 . S
H6920 C6930 0.950 . S
H6921 C6932 0.950 . S
H6922 C6934 0.950 . S
H6923 C6935 0.950 . S
C6924 H6916 0.950 . S
C6924 C6925 1.386 . S
C6924 C6926 1.391 . S
C6925 C6924 1.386 . S
C6925 C6929 1.393 . S
C6926 H6918 0.950 . S
C6926 C6924 1.391 . S
C6926 C6927 1.400 . S
C6927 C6926 1.400 . S
C6927 C6928 1.398 . S
C6927 C6933 1.491 . S
C6928 H6919 0.950 . S
C6928 C6927 1.398 . S
C6928 C6929 1.391 . S
C6929 H6917 0.950 . S
C6929 C6925 1.393 . S
C6929 C6928 1.391 . S
C6930 H6920 0.950 . S
C6930 C6931 1.386 . S
C6930 C6932 1.391 . S
C6931 C6930 1.386 . S
C6931 C6935 1.393 . S
C6932 H6921 0.950 . S
C6932 C6930 1.391 . S
C6932 C6933 1.400 . S
C6933 C6927 1.491 . S
C6933 C6932 1.400 . S
C6933 C6934 1.398 . S
C6934 H6922 0.950 . S
C6934 C6933 1.398 . S
C6934 C6935 1.391 . S
C6935 H6923 0.950 . S
C6935 C6931 1.393 . S
C6935 C6934 1.391 . S
H6936 C6944 0.950 . S
H6937 C6949 0.950 . S
H6938 C6946 0.950 . S
H6939 C6948 0.950 . S
H6940 C6950 0.950 . S
H6941 C6952 0.950 . S
H6942 C6954 0.950 . S
H6943 C6955 0.950 . S
C6944 H6936 0.950 . S
C6944 C6945 1.386 . S
C6944 C6946 1.391 . S
C6945 C6944 1.386 . S
C6945 C6949 1.393 . S
C6946 H6938 0.950 . S
C6946 C6944 1.391 . S
C6946 C6947 1.400 . S
C6947 C6946 1.400 . S
C6947 C6948 1.398 . S
C6947 C6953 1.491 . S
C6948 H6939 0.950 . S
C6948 C6947 1.398 . S
C6948 C6949 1.391 . S
C6949 H6937 0.950 . S
C6949 C6945 1.393 . S
C6949 C6948 1.391 . S
C6950 H6940 0.950 . S
C6950 C6951 1.386 . S
C6950 C6952 1.391 . S
C6951 C6950 1.386 . S
C6951 C6955 1.393 . S
C6952 H6941 0.950 . S
C6952 C6950 1.391 . S
C6952 C6953 1.400 . S
C6953 C6947 1.491 . S
C6953 C6952 1.400 . S
C6953 C6954 1.398 . S
C6954 H6942 0.950 . S
C6954 C6953 1.398 . S
C6954 C6955 1.391 . S
C6955 H6943 0.950 . S
C6955 C6951 1.393 . S
C6955 C6954 1.391 . S
H6956 C6964 0.950 . S
H6957 C6969 0.950 . S
H6958 C6966 0.950 . S
H6959 C6968 0.950 . S
H6960 C6970 0.950 . S
H6961 C6972 0.950 . S
H6962 C6974 0.950 . S
H6963 C6975 0.950 . S
C6964 H6956 0.950 . S
C6964 C6965 1.386 . S
C6964 C6966 1.391 . S
C6965 C6964 1.386 . S
C6965 C6969 1.393 . S
C6966 H6958 0.950 . S
C6966 C6964 1.391 . S
C6966 C6967 1.400 . S
C6967 C6966 1.400 . S
C6967 C6968 1.398 . S
C6967 C6973 1.491 . S
C6968 H6959 0.950 . S
C6968 C6967 1.398 . S
C6968 C6969 1.391 . S
C6969 H6957 0.950 . S
C6969 C6965 1.393 . S
C6969 C6968 1.391 . S
C6970 H6960 0.950 . S
C6970 C6971 1.386 . S
C6970 C6972 1.391 . S
C6971 C6970 1.386 . S
C6971 C6975 1.393 . S
C6972 H6961 0.950 . S
C6972 C6970 1.391 . S
C6972 C6973 1.400 . S
C6973 C6967 1.491 . S
C6973 C6972 1.400 . S
C6973 C6974 1.398 . S
C6974 H6962 0.950 . S
C6974 C6973 1.398 . S
C6974 C6975 1.391 . S
C6975 H6963 0.950 . S
C6975 C6971 1.393 . S
C6975 C6974 1.391 . S
H6976 C6984 0.950 . S
H6977 C6989 0.950 . S
H6978 C6986 0.950 . S
H6979 C6988 0.950 . S
H6980 C6990 0.950 . S
H6981 C6992 0.950 . S
H6982 C6994 0.950 . S
H6983 C6995 0.950 . S
C6984 H6976 0.950 . S
C6984 C6985 1.386 . S
C6984 C6986 1.391 . S
C6985 C6984 1.386 . S
C6985 C6989 1.393 . S
C6986 H6978 0.950 . S
C6986 C6984 1.391 . S
C6986 C6987 1.400 . S
C6987 C6986 1.400 . S
C6987 C6988 1.398 . S
C6987 C6993 1.491 . S
C6988 H6979 0.950 . S
C6988 C6987 1.398 . S
C6988 C6989 1.391 . S
C6989 H6977 0.950 . S
C6989 C6985 1.393 . S
C6989 C6988 1.391 . S
C6990 H6980 0.950 . S
C6990 C6991 1.386 . S
C6990 C6992 1.391 . S
C6991 C6990 1.386 . S
C6991 C6995 1.393 . S
C6992 H6981 0.950 . S
C6992 C6990 1.391 . S
C6992 C6993 1.400 . S
C6993 C6987 1.491 . S
C6993 C6992 1.400 . S
C6993 C6994 1.398 . S
C6994 H6982 0.950 . S
C6994 C6993 1.398 . S
C6994 C6995 1.391 . S
C6995 H6983 0.950 . S
C6995 C6991 1.393 . S
C6995 C6994 1.391 . S
H6996 C7004 0.950 . S
H6997 C7009 0.950 . S
H6998 C7006 0.950 . S
H6999 C7008 0.950 . S
H7000 C7010 0.950 . S
H7001 C7012 0.950 . S
H7002 C7014 0.950 . S
H7003 C7015 0.950 . S
C7004 H6996 0.950 . S
C7004 C7005 1.386 . S
C7004 C7006 1.391 . S
C7005 C7004 1.386 . S
C7005 C7009 1.393 . S
C7006 H6998 0.950 . S
C7006 C7004 1.391 . S
C7006 C7007 1.400 . S
C7007 C7006 1.400 . S
C7007 C7008 1.398 . S
C7007 C7013 1.491 . S
C7008 H6999 0.950 . S
C7008 C7007 1.398 . S
C7008 C7009 1.391 . S
C7009 H6997 0.950 . S
C7009 C7005 1.393 . S
C7009 C7008 1.391 . S
C7010 H7000 0.950 . S
C7010 C7011 1.386 . S
C7010 C7012 1.391 . S
C7011 C7010 1.386 . S
C7011 C7015 1.393 . S
C7012 H7001 0.950 . S
C7012 C7010 1.391 . S
C7012 C7013 1.400 . S
C7013 C7007 1.491 . S
C7013 C7012 1.400 . S
C7013 C7014 1.398 . S
C7014 H7002 0.950 . S
C7014 C7013 1.398 . S
C7014 C7015 1.391 . S
C7015 H7003 0.950 . S
C7015 C7011 1.393 . S
C7015 C7014 1.391 . S
H7016 C7024 0.950 . S
H7017 C7029 0.950 . S
H7018 C7026 0.950 . S
H7019 C7028 0.950 . S
H7020 C7030 0.950 . S
H7021 C7032 0.950 . S
H7022 C7034 0.950 . S
H7023 C7035 0.950 . S
C7024 H7016 0.950 . S
C7024 C7025 1.386 . S
C7024 C7026 1.391 . S
C7025 C7024 1.386 . S
C7025 C7029 1.393 . S
C7026 H7018 0.950 . S
C7026 C7024 1.391 . S
C7026 C7027 1.400 . S
C7027 C7026 1.400 . S
C7027 C7028 1.398 . S
C7027 C7033 1.491 . S
C7028 H7019 0.950 . S
C7028 C7027 1.398 . S
C7028 C7029 1.391 . S
C7029 H7017 0.950 . S
C7029 C7025 1.393 . S
C7029 C7028 1.391 . S
C7030 H7020 0.950 . S
C7030 C7031 1.386 . S
C7030 C7032 1.391 . S
C7031 C7030 1.386 . S
C7031 C7035 1.393 . S
C7032 H7021 0.950 . S
C7032 C7030 1.391 . S
C7032 C7033 1.400 . S
C7033 C7027 1.491 . S
C7033 C7032 1.400 . S
C7033 C7034 1.398 . S
C7034 H7022 0.950 . S
C7034 C7033 1.398 . S
C7034 C7035 1.391 . S
C7035 H7023 0.950 . S
C7035 C7031 1.393 . S
C7035 C7034 1.391 . S
H7036 C7044 0.950 . S
H7037 C7049 0.950 . S
H7038 C7046 0.950 . S
H7039 C7048 0.950 . S
H7040 C7050 0.950 . S
H7041 C7052 0.950 . S
H7042 C7054 0.950 . S
H7043 C7055 0.950 . S
C7044 H7036 0.950 . S
C7044 C7045 1.386 . S
C7044 C7046 1.391 . S
C7045 C7044 1.386 . S
C7045 C7049 1.393 . S
C7046 H7038 0.950 . S
C7046 C7044 1.391 . S
C7046 C7047 1.400 . S
C7047 C7046 1.400 . S
C7047 C7048 1.398 . S
C7047 C7053 1.491 . S
C7048 H7039 0.950 . S
C7048 C7047 1.398 . S
C7048 C7049 1.391 . S
C7049 H7037 0.950 . S
C7049 C7045 1.393 . S
C7049 C7048 1.391 . S
C7050 H7040 0.950 . S
C7050 C7051 1.386 . S
C7050 C7052 1.391 . S
C7051 C7050 1.386 . S
C7051 C7055 1.393 . S
C7052 H7041 0.950 . S
C7052 C7050 1.391 . S
C7052 C7053 1.400 . S
C7053 C7047 1.491 . S
C7053 C7052 1.400 . S
C7053 C7054 1.398 . S
C7054 H7042 0.950 . S
C7054 C7053 1.398 . S
C7054 C7055 1.391 . S
C7055 H7043 0.950 . S
C7055 C7051 1.393 . S
C7055 C7054 1.391 . S
H7056 C7064 0.950 . S
H7057 C7069 0.950 . S
H7058 C7066 0.950 . S
H7059 C7068 0.950 . S
H7060 C7070 0.950 . S
H7061 C7072 0.950 . S
H7062 C7074 0.950 . S
H7063 C7075 0.950 . S
C7064 H7056 0.950 . S
C7064 C7065 1.386 . S
C7064 C7066 1.391 . S
C7065 C7064 1.386 . S
C7065 C7069 1.393 . S
C7066 H7058 0.950 . S
C7066 C7064 1.391 . S
C7066 C7067 1.400 . S
C7067 C7066 1.400 . S
C7067 C7068 1.398 . S
C7067 C7073 1.491 . S
C7068 H7059 0.950 . S
C7068 C7067 1.398 . S
C7068 C7069 1.391 . S
C7069 H7057 0.950 . S
C7069 C7065 1.393 . S
C7069 C7068 1.391 . S
C7070 H7060 0.950 . S
C7070 C7071 1.386 . S
C7070 C7072 1.391 . S
C7071 C7070 1.386 . S
C7071 C7075 1.393 . S
C7072 H7061 0.950 . S
C7072 C7070 1.391 . S
C7072 C7073 1.400 . S
C7073 C7067 1.491 . S
C7073 C7072 1.400 . S
C7073 C7074 1.398 . S
C7074 H7062 0.950 . S
C7074 C7073 1.398 . S
C7074 C7075 1.391 . S
C7075 H7063 0.950 . S
C7075 C7071 1.393 . S
C7075 C7074 1.391 . S
H7076 C7084 0.950 . S
H7077 C7089 0.950 . S
H7078 C7086 0.950 . S
H7079 C7088 0.950 . S
H7080 C7090 0.950 . S
H7081 C7092 0.950 . S
H7082 C7094 0.950 . S
H7083 C7095 0.950 . S
C7084 H7076 0.950 . S
C7084 C7085 1.386 . S
C7084 C7086 1.391 . S
C7085 C7084 1.386 . S
C7085 C7089 1.393 . S
C7086 H7078 0.950 . S
C7086 C7084 1.391 . S
C7086 C7087 1.400 . S
C7087 C7086 1.400 . S
C7087 C7088 1.398 . S
C7087 C7093 1.491 . S
C7088 H7079 0.950 . S
C7088 C7087 1.398 . S
C7088 C7089 1.391 . S
C7089 H7077 0.950 . S
C7089 C7085 1.393 . S
C7089 C7088 1.391 . S
C7090 H7080 0.950 . S
C7090 C7091 1.386 . S
C7090 C7092 1.391 . S
C7091 C7090 1.386 . S
C7091 C7095 1.393 . S
C7092 H7081 0.950 . S
C7092 C7090 1.391 . S
C7092 C7093 1.400 . S
C7093 C7087 1.491 . S
C7093 C7092 1.400 . S
C7093 C7094 1.398 . S
C7094 H7082 0.950 . S
C7094 C7093 1.398 . S
C7094 C7095 1.391 . S
C7095 H7083 0.950 . S
C7095 C7091 1.393 . S
C7095 C7094 1.391 . S
H7096 C7104 0.950 . S
H7097 C7109 0.950 . S
H7098 C7106 0.950 . S
H7099 C7108 0.950 . S
H7100 C7110 0.950 . S
H7101 C7112 0.950 . S
H7102 C7114 0.950 . S
H7103 C7115 0.950 . S
C7104 H7096 0.950 . S
C7104 C7105 1.386 . S
C7104 C7106 1.391 . S
C7105 C7104 1.386 . S
C7105 C7109 1.393 . S
C7106 H7098 0.950 . S
C7106 C7104 1.391 . S
C7106 C7107 1.400 . S
C7107 C7106 1.400 . S
C7107 C7108 1.398 . S
C7107 C7113 1.491 . S
C7108 H7099 0.950 . S
C7108 C7107 1.398 . S
C7108 C7109 1.391 . S
C7109 H7097 0.950 . S
C7109 C7105 1.393 . S
C7109 C7108 1.391 . S
C7110 H7100 0.950 . S
C7110 C7111 1.386 . S
C7110 C7112 1.391 . S
C7111 C7110 1.386 . S
C7111 C7115 1.393 . S
C7112 H7101 0.950 . S
C7112 C7110 1.391 . S
C7112 C7113 1.400 . S
C7113 C7107 1.491 . S
C7113 C7112 1.400 . S
C7113 C7114 1.398 . S
C7114 H7102 0.950 . S
C7114 C7113 1.398 . S
C7114 C7115 1.391 . S
C7115 H7103 0.950 . S
C7115 C7111 1.393 . S
C7115 C7114 1.391 . S
H7116 C7124 0.950 . S
H7117 C7129 0.950 . S
H7118 C7126 0.950 . S
H7119 C7128 0.950 . S
H7120 C7130 0.950 . S
H7121 C7132 0.950 . S
H7122 C7134 0.950 . S
H7123 C7135 0.950 . S
C7124 H7116 0.950 . S
C7124 C7125 1.386 . S
C7124 C7126 1.391 . S
C7125 C7124 1.386 . S
C7125 C7129 1.393 . S
C7126 H7118 0.950 . S
C7126 C7124 1.391 . S
C7126 C7127 1.400 . S
C7127 C7126 1.400 . S
C7127 C7128 1.398 . S
C7127 C7133 1.491 . S
C7128 H7119 0.950 . S
C7128 C7127 1.398 . S
C7128 C7129 1.391 . S
C7129 H7117 0.950 . S
C7129 C7125 1.393 . S
C7129 C7128 1.391 . S
C7130 H7120 0.950 . S
C7130 C7131 1.386 . S
C7130 C7132 1.391 . S
C7131 C7130 1.386 . S
C7131 C7135 1.393 . S
C7132 H7121 0.950 . S
C7132 C7130 1.391 . S
C7132 C7133 1.400 . S
C7133 C7127 1.491 . S
C7133 C7132 1.400 . S
C7133 C7134 1.398 . S
C7134 H7122 0.950 . S
C7134 C7133 1.398 . S
C7134 C7135 1.391 . S
C7135 H7123 0.950 . S
C7135 C7131 1.393 . S
C7135 C7134 1.391 . S
H7136 C7144 0.950 . S
H7137 C7149 0.950 . S
H7138 C7146 0.950 . S
H7139 C7148 0.950 . S
H7140 C7150 0.950 . S
H7141 C7152 0.950 . S
H7142 C7154 0.950 . S
H7143 C7155 0.950 . S
C7144 H7136 0.950 . S
C7144 C7145 1.386 . S
C7144 C7146 1.391 . S
C7145 C7144 1.386 . S
C7145 C7149 1.393 . S
C7146 H7138 0.950 . S
C7146 C7144 1.391 . S
C7146 C7147 1.400 . S
C7147 C7146 1.400 . S
C7147 C7148 1.398 . S
C7147 C7153 1.491 . S
C7148 H7139 0.950 . S
C7148 C7147 1.398 . S
C7148 C7149 1.391 . S
C7149 H7137 0.950 . S
C7149 C7145 1.393 . S
C7149 C7148 1.391 . S
C7150 H7140 0.950 . S
C7150 C7151 1.386 . S
C7150 C7152 1.391 . S
C7151 C7150 1.386 . S
C7151 C7155 1.393 . S
C7152 H7141 0.950 . S
C7152 C7150 1.391 . S
C7152 C7153 1.400 . S
C7153 C7147 1.491 . S
C7153 C7152 1.400 . S
C7153 C7154 1.398 . S
C7154 H7142 0.950 . S
C7154 C7153 1.398 . S
C7154 C7155 1.391 . S
C7155 H7143 0.950 . S
C7155 C7151 1.393 . S
C7155 C7154 1.391 . S
H7156 C7164 0.950 . S
H7157 C7169 0.950 . S
H7158 C7166 0.950 . S
H7159 C7168 0.950 . S
H7160 C7170 0.950 . S
H7161 C7172 0.950 . S
H7162 C7174 0.950 . S
H7163 C7175 0.950 . S
C7164 H7156 0.950 . S
C7164 C7165 1.386 . S
C7164 C7166 1.391 . S
C7165 C7164 1.386 . S
C7165 C7169 1.393 . S
C7166 H7158 0.950 . S
C7166 C7164 1.391 . S
C7166 C7167 1.400 . S
C7167 C7166 1.400 . S
C7167 C7168 1.398 . S
C7167 C7173 1.491 . S
C7168 H7159 0.950 . S
C7168 C7167 1.398 . S
C7168 C7169 1.391 . S
C7169 H7157 0.950 . S
C7169 C7165 1.393 . S
C7169 C7168 1.391 . S
C7170 H7160 0.950 . S
C7170 C7171 1.386 . S
C7170 C7172 1.391 . S
C7171 C7170 1.386 . S
C7171 C7175 1.393 . S
C7172 H7161 0.950 . S
C7172 C7170 1.391 . S
C7172 C7173 1.400 . S
C7173 C7167 1.491 . S
C7173 C7172 1.400 . S
C7173 C7174 1.398 . S
C7174 H7162 0.950 . S
C7174 C7173 1.398 . S
C7174 C7175 1.391 . S
C7175 H7163 0.950 . S
C7175 C7171 1.393 . S
C7175 C7174 1.391 . S
H7176 C7184 0.950 . S
H7177 C7189 0.950 . S
H7178 C7186 0.950 . S
H7179 C7188 0.950 . S
H7180 C7190 0.950 . S
H7181 C7192 0.950 . S
H7182 C7194 0.950 . S
H7183 C7195 0.950 . S
C7184 H7176 0.950 . S
C7184 C7185 1.386 . S
C7184 C7186 1.391 . S
C7185 C7184 1.386 . S
C7185 C7189 1.393 . S
C7186 H7178 0.950 . S
C7186 C7184 1.391 . S
C7186 C7187 1.400 . S
C7187 C7186 1.400 . S
C7187 C7188 1.398 . S
C7187 C7193 1.491 . S
C7188 H7179 0.950 . S
C7188 C7187 1.398 . S
C7188 C7189 1.391 . S
C7189 H7177 0.950 . S
C7189 C7185 1.393 . S
C7189 C7188 1.391 . S
C7190 H7180 0.950 . S
C7190 C7191 1.386 . S
C7190 C7192 1.391 . S
C7191 C7190 1.386 . S
C7191 C7195 1.393 . S
C7192 H7181 0.950 . S
C7192 C7190 1.391 . S
C7192 C7193 1.400 . S
C7193 C7187 1.491 . S
C7193 C7192 1.400 . S
C7193 C7194 1.398 . S
C7194 H7182 0.950 . S
C7194 C7193 1.398 . S
C7194 C7195 1.391 . S
C7195 H7183 0.950 . S
C7195 C7191 1.393 . S
C7195 C7194 1.391 . S
H7196 C7204 0.950 . S
H7197 C7209 0.950 . S
H7198 C7206 0.950 . S
H7199 C7208 0.950 . S
H7200 C7210 0.950 . S
H7201 C7212 0.950 . S
H7202 C7214 0.950 . S
H7203 C7215 0.950 . S
C7204 H7196 0.950 . S
C7204 C7205 1.386 . S
C7204 C7206 1.391 . S
C7205 C7204 1.386 . S
C7205 C7209 1.393 . S
C7206 H7198 0.950 . S
C7206 C7204 1.391 . S
C7206 C7207 1.400 . S
C7207 C7206 1.400 . S
C7207 C7208 1.398 . S
C7207 C7213 1.491 . S
C7208 H7199 0.950 . S
C7208 C7207 1.398 . S
C7208 C7209 1.391 . S
C7209 H7197 0.950 . S
C7209 C7205 1.393 . S
C7209 C7208 1.391 . S
C7210 H7200 0.950 . S
C7210 C7211 1.386 . S
C7210 C7212 1.391 . S
C7211 C7210 1.386 . S
C7211 C7215 1.393 . S
C7212 H7201 0.950 . S
C7212 C7210 1.391 . S
C7212 C7213 1.400 . S
C7213 C7207 1.491 . S
C7213 C7212 1.400 . S
C7213 C7214 1.398 . S
C7214 H7202 0.950 . S
C7214 C7213 1.398 . S
C7214 C7215 1.391 . S
C7215 H7203 0.950 . S
C7215 C7211 1.393 . S
C7215 C7214 1.391 . S
H7216 C7224 0.950 . S
H7217 C7229 0.950 . S
H7218 C7226 0.950 . S
H7219 C7228 0.950 . S
H7220 C7230 0.950 . S
H7221 C7232 0.950 . S
H7222 C7234 0.950 . S
H7223 C7235 0.950 . S
C7224 H7216 0.950 . S
C7224 C7225 1.386 . S
C7224 C7226 1.391 . S
C7225 C7224 1.386 . S
C7225 C7229 1.393 . S
C7226 H7218 0.950 . S
C7226 C7224 1.391 . S
C7226 C7227 1.400 . S
C7227 C7226 1.400 . S
C7227 C7228 1.398 . S
C7227 C7233 1.491 . S
C7228 H7219 0.950 . S
C7228 C7227 1.398 . S
C7228 C7229 1.391 . S
C7229 H7217 0.950 . S
C7229 C7225 1.393 . S
C7229 C7228 1.391 . S
C7230 H7220 0.950 . S
C7230 C7231 1.386 . S
C7230 C7232 1.391 . S
C7231 C7230 1.386 . S
C7231 C7235 1.393 . S
C7232 H7221 0.950 . S
C7232 C7230 1.391 . S
C7232 C7233 1.400 . S
C7233 C7227 1.491 . S
C7233 C7232 1.400 . S
C7233 C7234 1.398 . S
C7234 H7222 0.950 . S
C7234 C7233 1.398 . S
C7234 C7235 1.391 . S
C7235 H7223 0.950 . S
C7235 C7231 1.393 . S
C7235 C7234 1.391 . S
H7236 C7244 0.950 . S
H7237 C7249 0.950 . S
H7238 C7246 0.950 . S
H7239 C7248 0.950 . S
H7240 C7250 0.950 . S
H7241 C7252 0.950 . S
H7242 C7254 0.950 . S
H7243 C7255 0.950 . S
C7244 H7236 0.950 . S
C7244 C7245 1.386 . S
C7244 C7246 1.391 . S
C7245 C7244 1.386 . S
C7245 C7249 1.393 . S
C7246 H7238 0.950 . S
C7246 C7244 1.391 . S
C7246 C7247 1.400 . S
C7247 C7246 1.400 . S
C7247 C7248 1.398 . S
C7247 C7253 1.491 . S
C7248 H7239 0.950 . S
C7248 C7247 1.398 . S
C7248 C7249 1.391 . S
C7249 H7237 0.950 . S
C7249 C7245 1.393 . S
C7249 C7248 1.391 . S
C7250 H7240 0.950 . S
C7250 C7251 1.386 . S
C7250 C7252 1.391 . S
C7251 C7250 1.386 . S
C7251 C7255 1.393 . S
C7252 H7241 0.950 . S
C7252 C7250 1.391 . S
C7252 C7253 1.400 . S
C7253 C7247 1.491 . S
C7253 C7252 1.400 . S
C7253 C7254 1.398 . S
C7254 H7242 0.950 . S
C7254 C7253 1.398 . S
C7254 C7255 1.391 . S
C7255 H7243 0.950 . S
C7255 C7251 1.393 . S
C7255 C7254 1.391 . S
H7256 C7264 0.950 . S
H7257 C7269 0.950 . S
H7258 C7266 0.950 . S
H7259 C7268 0.950 . S
H7260 C7270 0.950 . S
H7261 C7272 0.950 . S
H7262 C7274 0.950 . S
H7263 C7275 0.950 . S
C7264 H7256 0.950 . S
C7264 C7265 1.386 . S
C7264 C7266 1.391 . S
C7265 C7264 1.386 . S
C7265 C7269 1.393 . S
C7266 H7258 0.950 . S
C7266 C7264 1.391 . S
C7266 C7267 1.400 . S
C7267 C7266 1.400 . S
C7267 C7268 1.398 . S
C7267 C7273 1.491 . S
C7268 H7259 0.950 . S
C7268 C7267 1.398 . S
C7268 C7269 1.391 . S
C7269 H7257 0.950 . S
C7269 C7265 1.393 . S
C7269 C7268 1.391 . S
C7270 H7260 0.950 . S
C7270 C7271 1.386 . S
C7270 C7272 1.391 . S
C7271 C7270 1.386 . S
C7271 C7275 1.393 . S
C7272 H7261 0.950 . S
C7272 C7270 1.391 . S
C7272 C7273 1.400 . S
C7273 C7267 1.491 . S
C7273 C7272 1.400 . S
C7273 C7274 1.398 . S
C7274 H7262 0.950 . S
C7274 C7273 1.398 . S
C7274 C7275 1.391 . S
C7275 H7263 0.950 . S
C7275 C7271 1.393 . S
C7275 C7274 1.391 . S
H7276 C7284 0.950 . S
H7277 C7289 0.950 . S
H7278 C7286 0.950 . S
H7279 C7288 0.950 . S
H7280 C7290 0.950 . S
H7281 C7292 0.950 . S
H7282 C7294 0.950 . S
H7283 C7295 0.950 . S
C7284 H7276 0.950 . S
C7284 C7285 1.386 . S
C7284 C7286 1.391 . S
C7285 C7284 1.386 . S
C7285 C7289 1.393 . S
C7286 H7278 0.950 . S
C7286 C7284 1.391 . S
C7286 C7287 1.400 . S
C7287 C7286 1.400 . S
C7287 C7288 1.398 . S
C7287 C7293 1.491 . S
C7288 H7279 0.950 . S
C7288 C7287 1.398 . S
C7288 C7289 1.391 . S
C7289 H7277 0.950 . S
C7289 C7285 1.393 . S
C7289 C7288 1.391 . S
C7290 H7280 0.950 . S
C7290 C7291 1.386 . S
C7290 C7292 1.391 . S
C7291 C7290 1.386 . S
C7291 C7295 1.393 . S
C7292 H7281 0.950 . S
C7292 C7290 1.391 . S
C7292 C7293 1.400 . S
C7293 C7287 1.491 . S
C7293 C7292 1.400 . S
C7293 C7294 1.398 . S
C7294 H7282 0.950 . S
C7294 C7293 1.398 . S
C7294 C7295 1.391 . S
C7295 H7283 0.950 . S
C7295 C7291 1.393 . S
C7295 C7294 1.391 . S
H7296 C7304 0.950 . S
H7297 C7309 0.950 . S
H7298 C7306 0.950 . S
H7299 C7308 0.950 . S
H7300 C7310 0.950 . S
H7301 C7312 0.950 . S
H7302 C7314 0.950 . S
H7303 C7315 0.950 . S
C7304 H7296 0.950 . S
C7304 C7305 1.386 . S
C7304 C7306 1.391 . S
C7305 C7304 1.386 . S
C7305 C7309 1.393 . S
C7306 H7298 0.950 . S
C7306 C7304 1.391 . S
C7306 C7307 1.400 . S
C7307 C7306 1.400 . S
C7307 C7308 1.398 . S
C7307 C7313 1.491 . S
C7308 H7299 0.950 . S
C7308 C7307 1.398 . S
C7308 C7309 1.391 . S
C7309 H7297 0.950 . S
C7309 C7305 1.393 . S
C7309 C7308 1.391 . S
C7310 H7300 0.950 . S
C7310 C7311 1.386 . S
C7310 C7312 1.391 . S
C7311 C7310 1.386 . S
C7311 C7315 1.393 . S
C7312 H7301 0.950 . S
C7312 C7310 1.391 . S
C7312 C7313 1.400 . S
C7313 C7307 1.491 . S
C7313 C7312 1.400 . S
C7313 C7314 1.398 . S
C7314 H7302 0.950 . S
C7314 C7313 1.398 . S
C7314 C7315 1.391 . S
C7315 H7303 0.950 . S
C7315 C7311 1.393 . S
C7315 C7314 1.391 . S
H7316 C7324 0.950 . S
H7317 C7329 0.950 . S
H7318 C7326 0.950 . S
H7319 C7328 0.950 . S
H7320 C7330 0.950 . S
H7321 C7332 0.950 . S
H7322 C7334 0.950 . S
H7323 C7335 0.950 . S
C7324 H7316 0.950 . S
C7324 C7325 1.386 . S
C7324 C7326 1.391 . S
C7325 C7324 1.386 . S
C7325 C7329 1.393 . S
C7326 H7318 0.950 . S
C7326 C7324 1.391 . S
C7326 C7327 1.400 . S
C7327 C7326 1.400 . S
C7327 C7328 1.398 . S
C7327 C7333 1.491 . S
C7328 H7319 0.950 . S
C7328 C7327 1.398 . S
C7328 C7329 1.391 . S
C7329 H7317 0.950 . S
C7329 C7325 1.393 . S
C7329 C7328 1.391 . S
C7330 H7320 0.950 . S
C7330 C7331 1.386 . S
C7330 C7332 1.391 . S
C7331 C7330 1.386 . S
C7331 C7335 1.393 . S
C7332 H7321 0.950 . S
C7332 C7330 1.391 . S
C7332 C7333 1.400 . S
C7333 C7327 1.491 . S
C7333 C7332 1.400 . S
C7333 C7334 1.398 . S
C7334 H7322 0.950 . S
C7334 C7333 1.398 . S
C7334 C7335 1.391 . S
C7335 H7323 0.950 . S
C7335 C7331 1.393 . S
C7335 C7334 1.391 . S
H7336 C7344 0.950 . S
H7337 C7349 0.950 . S
H7338 C7346 0.950 . S
H7339 C7348 0.950 . S
H7340 C7350 0.950 . S
H7341 C7352 0.950 . S
H7342 C7354 0.950 . S
H7343 C7355 0.950 . S
C7344 H7336 0.950 . S
C7344 C7345 1.386 . S
C7344 C7346 1.391 . S
C7345 C7344 1.386 . S
C7345 C7349 1.393 . S
C7346 H7338 0.950 . S
C7346 C7344 1.391 . S
C7346 C7347 1.400 . S
C7347 C7346 1.400 . S
C7347 C7348 1.398 . S
C7347 C7353 1.491 . S
C7348 H7339 0.950 . S
C7348 C7347 1.398 . S
C7348 C7349 1.391 . S
C7349 H7337 0.950 . S
C7349 C7345 1.393 . S
C7349 C7348 1.391 . S
C7350 H7340 0.950 . S
C7350 C7351 1.386 . S
C7350 C7352 1.391 . S
C7351 C7350 1.386 . S
C7351 C7355 1.393 . S
C7352 H7341 0.950 . S
C7352 C7350 1.391 . S
C7352 C7353 1.400 . S
C7353 C7347 1.491 . S
C7353 C7352 1.400 . S
C7353 C7354 1.398 . S
C7354 H7342 0.950 . S
C7354 C7353 1.398 . S
C7354 C7355 1.391 . S
C7355 H7343 0.950 . S
C7355 C7351 1.393 . S
C7355 C7354 1.391 . S
H7356 C7364 0.950 . S
H7357 C7369 0.950 . S
H7358 C7366 0.950 . S
H7359 C7368 0.950 . S
H7360 C7370 0.950 . S
H7361 C7372 0.950 . S
H7362 C7374 0.950 . S
H7363 C7375 0.950 . S
C7364 H7356 0.950 . S
C7364 C7365 1.386 . S
C7364 C7366 1.391 . S
C7365 C7364 1.386 . S
C7365 C7369 1.393 . S
C7366 H7358 0.950 . S
C7366 C7364 1.391 . S
C7366 C7367 1.400 . S
C7367 C7366 1.400 . S
C7367 C7368 1.398 . S
C7367 C7373 1.491 . S
C7368 H7359 0.950 . S
C7368 C7367 1.398 . S
C7368 C7369 1.391 . S
C7369 H7357 0.950 . S
C7369 C7365 1.393 . S
C7369 C7368 1.391 . S
C7370 H7360 0.950 . S
C7370 C7371 1.386 . S
C7370 C7372 1.391 . S
C7371 C7370 1.386 . S
C7371 C7375 1.393 . S
C7372 H7361 0.950 . S
C7372 C7370 1.391 . S
C7372 C7373 1.400 . S
C7373 C7367 1.491 . S
C7373 C7372 1.400 . S
C7373 C7374 1.398 . S
C7374 H7362 0.950 . S
C7374 C7373 1.398 . S
C7374 C7375 1.391 . S
C7375 H7363 0.950 . S
C7375 C7371 1.393 . S
C7375 C7374 1.391 . S
H7376 C7384 0.950 . S
H7377 C7389 0.950 . S
H7378 C7386 0.950 . S
H7379 C7388 0.950 . S
H7380 C7390 0.950 . S
H7381 C7392 0.950 . S
H7382 C7394 0.950 . S
H7383 C7395 0.950 . S
C7384 H7376 0.950 . S
C7384 C7385 1.386 . S
C7384 C7386 1.391 . S
C7385 C7384 1.386 . S
C7385 C7389 1.393 . S
C7386 H7378 0.950 . S
C7386 C7384 1.391 . S
C7386 C7387 1.400 . S
C7387 C7386 1.400 . S
C7387 C7388 1.398 . S
C7387 C7393 1.491 . S
C7388 H7379 0.950 . S
C7388 C7387 1.398 . S
C7388 C7389 1.391 . S
C7389 H7377 0.950 . S
C7389 C7385 1.393 . S
C7389 C7388 1.391 . S
C7390 H7380 0.950 . S
C7390 C7391 1.386 . S
C7390 C7392 1.391 . S
C7391 C7390 1.386 . S
C7391 C7395 1.393 . S
C7392 H7381 0.950 . S
C7392 C7390 1.391 . S
C7392 C7393 1.400 . S
C7393 C7387 1.491 . S
C7393 C7392 1.400 . S
C7393 C7394 1.398 . S
C7394 H7382 0.950 . S
C7394 C7393 1.398 . S
C7394 C7395 1.391 . S
C7395 H7383 0.950 . S
C7395 C7391 1.393 . S
C7395 C7394 1.391 . S
H7396 C7404 0.950 . S
H7397 C7409 0.950 . S
H7398 C7406 0.950 . S
H7399 C7408 0.950 . S
H7400 C7410 0.950 . S
H7401 C7412 0.950 . S
H7402 C7414 0.950 . S
H7403 C7415 0.950 . S
C7404 H7396 0.950 . S
C7404 C7405 1.386 . S
C7404 C7406 1.391 . S
C7405 C7404 1.386 . S
C7405 C7409 1.393 . S
C7406 H7398 0.950 . S
C7406 C7404 1.391 . S
C7406 C7407 1.400 . S
C7407 C7406 1.400 . S
C7407 C7408 1.398 . S
C7407 C7413 1.491 . S
C7408 H7399 0.950 . S
C7408 C7407 1.398 . S
C7408 C7409 1.391 . S
C7409 H7397 0.950 . S
C7409 C7405 1.393 . S
C7409 C7408 1.391 . S
C7410 H7400 0.950 . S
C7410 C7411 1.386 . S
C7410 C7412 1.391 . S
C7411 C7410 1.386 . S
C7411 C7415 1.393 . S
C7412 H7401 0.950 . S
C7412 C7410 1.391 . S
C7412 C7413 1.400 . S
C7413 C7407 1.491 . S
C7413 C7412 1.400 . S
C7413 C7414 1.398 . S
C7414 H7402 0.950 . S
C7414 C7413 1.398 . S
C7414 C7415 1.391 . S
C7415 H7403 0.950 . S
C7415 C7411 1.393 . S
C7415 C7414 1.391 . S
H7416 C7424 0.950 . S
H7417 C7429 0.950 . S
H7418 C7426 0.950 . S
H7419 C7428 0.950 . S
H7420 C7430 0.950 . S
H7421 C7432 0.950 . S
H7422 C7434 0.950 . S
H7423 C7435 0.950 . S
C7424 H7416 0.950 . S
C7424 C7425 1.386 . S
C7424 C7426 1.391 . S
C7425 C7424 1.386 . S
C7425 C7429 1.393 . S
C7426 H7418 0.950 . S
C7426 C7424 1.391 . S
C7426 C7427 1.400 . S
C7427 C7426 1.400 . S
C7427 C7428 1.398 . S
C7427 C7433 1.491 . S
C7428 H7419 0.950 . S
C7428 C7427 1.398 . S
C7428 C7429 1.391 . S
C7429 H7417 0.950 . S
C7429 C7425 1.393 . S
C7429 C7428 1.391 . S
C7430 H7420 0.950 . S
C7430 C7431 1.386 . S
C7430 C7432 1.391 . S
C7431 C7430 1.386 . S
C7431 C7435 1.393 . S
C7432 H7421 0.950 . S
C7432 C7430 1.391 . S
C7432 C7433 1.400 . S
C7433 C7427 1.491 . S
C7433 C7432 1.400 . S
C7433 C7434 1.398 . S
C7434 H7422 0.950 . S
C7434 C7433 1.398 . S
C7434 C7435 1.391 . S
C7435 H7423 0.950 . S
C7435 C7431 1.393 . S
C7435 C7434 1.391 . S
H7436 C7444 0.950 . S
H7437 C7449 0.950 . S
H7438 C7446 0.950 . S
H7439 C7448 0.950 . S
H7440 C7450 0.950 . S
H7441 C7452 0.950 . S
H7442 C7454 0.950 . S
H7443 C7455 0.950 . S
C7444 H7436 0.950 . S
C7444 C7445 1.386 . S
C7444 C7446 1.391 . S
C7445 C7444 1.386 . S
C7445 C7449 1.393 . S
C7446 H7438 0.950 . S
C7446 C7444 1.391 . S
C7446 C7447 1.400 . S
C7447 C7446 1.400 . S
C7447 C7448 1.398 . S
C7447 C7453 1.491 . S
C7448 H7439 0.950 . S
C7448 C7447 1.398 . S
C7448 C7449 1.391 . S
C7449 H7437 0.950 . S
C7449 C7445 1.393 . S
C7449 C7448 1.391 . S
C7450 H7440 0.950 . S
C7450 C7451 1.386 . S
C7450 C7452 1.391 . S
C7451 C7450 1.386 . S
C7451 C7455 1.393 . S
C7452 H7441 0.950 . S
C7452 C7450 1.391 . S
C7452 C7453 1.400 . S
C7453 C7447 1.491 . S
C7453 C7452 1.400 . S
C7453 C7454 1.398 . S
C7454 H7442 0.950 . S
C7454 C7453 1.398 . S
C7454 C7455 1.391 . S
C7455 H7443 0.950 . S
C7455 C7451 1.393 . S
C7455 C7454 1.391 . S
H7456 C7464 0.950 . S
H7457 C7469 0.950 . S
H7458 C7466 0.950 . S
H7459 C7468 0.950 . S
H7460 C7470 0.950 . S
H7461 C7472 0.950 . S
H7462 C7474 0.950 . S
H7463 C7475 0.950 . S
C7464 H7456 0.950 . S
C7464 C7465 1.386 . S
C7464 C7466 1.391 . S
C7465 C7464 1.386 . S
C7465 C7469 1.393 . S
C7466 H7458 0.950 . S
C7466 C7464 1.391 . S
C7466 C7467 1.400 . S
C7467 C7466 1.400 . S
C7467 C7468 1.398 . S
C7467 C7473 1.491 . S
C7468 H7459 0.950 . S
C7468 C7467 1.398 . S
C7468 C7469 1.391 . S
C7469 H7457 0.950 . S
C7469 C7465 1.393 . S
C7469 C7468 1.391 . S
C7470 H7460 0.950 . S
C7470 C7471 1.386 . S
C7470 C7472 1.391 . S
C7471 C7470 1.386 . S
C7471 C7475 1.393 . S
C7472 H7461 0.950 . S
C7472 C7470 1.391 . S
C7472 C7473 1.400 . S
C7473 C7467 1.491 . S
C7473 C7472 1.400 . S
C7473 C7474 1.398 . S
C7474 H7462 0.950 . S
C7474 C7473 1.398 . S
C7474 C7475 1.391 . S
C7475 H7463 0.950 . S
C7475 C7471 1.393 . S
C7475 C7474 1.391 . S
H7476 C7484 0.950 . S
H7477 C7489 0.950 . S
H7478 C7486 0.950 . S
H7479 C7488 0.950 . S
H7480 C7490 0.950 . S
H7481 C7492 0.950 . S
H7482 C7494 0.950 . S
H7483 C7495 0.950 . S
C7484 H7476 0.950 . S
C7484 C7485 1.386 . S
C7484 C7486 1.391 . S
C7485 C7484 1.386 . S
C7485 C7489 1.393 . S
C7486 H7478 0.950 . S
C7486 C7484 1.391 . S
C7486 C7487 1.400 . S
C7487 C7486 1.400 . S
C7487 C7488 1.398 . S
C7487 C7493 1.491 . S
C7488 H7479 0.950 . S
C7488 C7487 1.398 . S
C7488 C7489 1.391 . S
C7489 H7477 0.950 . S
C7489 C7485 1.393 . S
C7489 C7488 1.391 . S
C7490 H7480 0.950 . S
C7490 C7491 1.386 . S
C7490 C7492 1.391 . S
C7491 C7490 1.386 . S
C7491 C7495 1.393 . S
C7492 H7481 0.950 . S
C7492 C7490 1.391 . S
C7492 C7493 1.400 . S
C7493 C7487 1.491 . S
C7493 C7492 1.400 . S
C7493 C7494 1.398 . S
C7494 H7482 0.950 . S
C7494 C7493 1.398 . S
C7494 C7495 1.391 . S
C7495 H7483 0.950 . S
C7495 C7491 1.393 . S
C7495 C7494 1.391 . S
H7496 C7504 0.950 . S
H7497 C7509 0.950 . S
H7498 C7506 0.950 . S
H7499 C7508 0.950 . S
H7500 C7510 0.950 . S
H7501 C7512 0.950 . S
H7502 C7514 0.950 . S
H7503 C7515 0.950 . S
C7504 H7496 0.950 . S
C7504 C7505 1.386 . S
C7504 C7506 1.391 . S
C7505 C7504 1.386 . S
C7505 C7509 1.393 . S
C7506 H7498 0.950 . S
C7506 C7504 1.391 . S
C7506 C7507 1.400 . S
C7507 C7506 1.400 . S
C7507 C7508 1.398 . S
C7507 C7513 1.491 . S
C7508 H7499 0.950 . S
C7508 C7507 1.398 . S
C7508 C7509 1.391 . S
C7509 H7497 0.950 . S
C7509 C7505 1.393 . S
C7509 C7508 1.391 . S
C7510 H7500 0.950 . S
C7510 C7511 1.386 . S
C7510 C7512 1.391 . S
C7511 C7510 1.386 . S
C7511 C7515 1.393 . S
C7512 H7501 0.950 . S
C7512 C7510 1.391 . S
C7512 C7513 1.400 . S
C7513 C7507 1.491 . S
C7513 C7512 1.400 . S
C7513 C7514 1.398 . S
C7514 H7502 0.950 . S
C7514 C7513 1.398 . S
C7514 C7515 1.391 . S
C7515 H7503 0.950 . S
C7515 C7511 1.393 . S
C7515 C7514 1.391 . S
H7516 C7524 0.950 . S
H7517 C7529 0.950 . S
H7518 C7526 0.950 . S
H7519 C7528 0.950 . S
H7520 C7530 0.950 . S
H7521 C7532 0.950 . S
H7522 C7534 0.950 . S
H7523 C7535 0.950 . S
C7524 H7516 0.950 . S
C7524 C7525 1.386 . S
C7524 C7526 1.391 . S
C7525 C7524 1.386 . S
C7525 C7529 1.393 . S
C7526 H7518 0.950 . S
C7526 C7524 1.391 . S
C7526 C7527 1.400 . S
C7527 C7526 1.400 . S
C7527 C7528 1.398 . S
C7527 C7533 1.491 . S
C7528 H7519 0.950 . S
C7528 C7527 1.398 . S
C7528 C7529 1.391 . S
C7529 H7517 0.950 . S
C7529 C7525 1.393 . S
C7529 C7528 1.391 . S
C7530 H7520 0.950 . S
C7530 C7531 1.386 . S
C7530 C7532 1.391 . S
C7531 C7530 1.386 . S
C7531 C7535 1.393 . S
C7532 H7521 0.950 . S
C7532 C7530 1.391 . S
C7532 C7533 1.400 . S
C7533 C7527 1.491 . S
C7533 C7532 1.400 . S
C7533 C7534 1.398 . S
C7534 H7522 0.950 . S
C7534 C7533 1.398 . S
C7534 C7535 1.391 . S
C7535 H7523 0.950 . S
C7535 C7531 1.393 . S
C7535 C7534 1.391 . S
H7536 C7544 0.950 . S
H7537 C7549 0.950 . S
H7538 C7546 0.950 . S
H7539 C7548 0.950 . S
H7540 C7550 0.950 . S
H7541 C7552 0.950 . S
H7542 C7554 0.950 . S
H7543 C7555 0.950 . S
C7544 H7536 0.950 . S
C7544 C7545 1.386 . S
C7544 C7546 1.391 . S
C7545 C7544 1.386 . S
C7545 C7549 1.393 . S
C7546 H7538 0.950 . S
C7546 C7544 1.391 . S
C7546 C7547 1.400 . S
C7547 C7546 1.400 . S
C7547 C7548 1.398 . S
C7547 C7553 1.491 . S
C7548 H7539 0.950 . S
C7548 C7547 1.398 . S
C7548 C7549 1.391 . S
C7549 H7537 0.950 . S
C7549 C7545 1.393 . S
C7549 C7548 1.391 . S
C7550 H7540 0.950 . S
C7550 C7551 1.386 . S
C7550 C7552 1.391 . S
C7551 C7550 1.386 . S
C7551 C7555 1.393 . S
C7552 H7541 0.950 . S
C7552 C7550 1.391 . S
C7552 C7553 1.400 . S
C7553 C7547 1.491 . S
C7553 C7552 1.400 . S
C7553 C7554 1.398 . S
C7554 H7542 0.950 . S
C7554 C7553 1.398 . S
C7554 C7555 1.391 . S
C7555 H7543 0.950 . S
C7555 C7551 1.393 . S
C7555 C7554 1.391 . S
H7556 C7564 0.950 . S
H7557 C7569 0.950 . S
H7558 C7566 0.950 . S
H7559 C7568 0.950 . S
H7560 C7570 0.950 . S
H7561 C7572 0.950 . S
H7562 C7574 0.950 . S
H7563 C7575 0.950 . S
C7564 H7556 0.950 . S
C7564 C7565 1.386 . S
C7564 C7566 1.391 . S
C7565 C7564 1.386 . S
C7565 C7569 1.393 . S
C7566 H7558 0.950 . S
C7566 C7564 1.391 . S
C7566 C7567 1.400 . S
C7567 C7566 1.400 . S
C7567 C7568 1.398 . S
C7567 C7573 1.491 . S
C7568 H7559 0.950 . S
C7568 C7567 1.398 . S
C7568 C7569 1.391 . S
C7569 H7557 0.950 . S
C7569 C7565 1.393 . S
C7569 C7568 1.391 . S
C7570 H7560 0.950 . S
C7570 C7571 1.386 . S
C7570 C7572 1.391 . S
C7571 C7570 1.386 . S
C7571 C7575 1.393 . S
C7572 H7561 0.950 . S
C7572 C7570 1.391 . S
C7572 C7573 1.400 . S
C7573 C7567 1.491 . S
C7573 C7572 1.400 . S
C7573 C7574 1.398 . S
C7574 H7562 0.950 . S
C7574 C7573 1.398 . S
C7574 C7575 1.391 . S
C7575 H7563 0.950 . S
C7575 C7571 1.393 . S
C7575 C7574 1.391 . S
H7576 C7584 0.950 . S
H7577 C7589 0.950 . S
H7578 C7586 0.950 . S
H7579 C7588 0.950 . S
H7580 C7590 0.950 . S
H7581 C7592 0.950 . S
H7582 C7594 0.950 . S
H7583 C7595 0.950 . S
C7584 H7576 0.950 . S
C7584 C7585 1.386 . S
C7584 C7586 1.391 . S
C7585 C7584 1.386 . S
C7585 C7589 1.393 . S
C7586 H7578 0.950 . S
C7586 C7584 1.391 . S
C7586 C7587 1.400 . S
C7587 C7586 1.400 . S
C7587 C7588 1.398 . S
C7587 C7593 1.491 . S
C7588 H7579 0.950 . S
C7588 C7587 1.398 . S
C7588 C7589 1.391 . S
C7589 H7577 0.950 . S
C7589 C7585 1.393 . S
C7589 C7588 1.391 . S
C7590 H7580 0.950 . S
C7590 C7591 1.386 . S
C7590 C7592 1.391 . S
C7591 C7590 1.386 . S
C7591 C7595 1.393 . S
C7592 H7581 0.950 . S
C7592 C7590 1.391 . S
C7592 C7593 1.400 . S
C7593 C7587 1.491 . S
C7593 C7592 1.400 . S
C7593 C7594 1.398 . S
C7594 H7582 0.950 . S
C7594 C7593 1.398 . S
C7594 C7595 1.391 . S
C7595 H7583 0.950 . S
C7595 C7591 1.393 . S
C7595 C7594 1.391 . S
H7596 C7604 0.950 . S
H7597 C7609 0.950 . S
H7598 C7606 0.950 . S
H7599 C7608 0.950 . S
H7600 C7610 0.950 . S
H7601 C7612 0.950 . S
H7602 C7614 0.950 . S
H7603 C7615 0.950 . S
C7604 H7596 0.950 . S
C7604 C7605 1.386 . S
C7604 C7606 1.391 . S
C7605 C7604 1.386 . S
C7605 C7609 1.393 . S
C7606 H7598 0.950 . S
C7606 C7604 1.391 . S
C7606 C7607 1.400 . S
C7607 C7606 1.400 . S
C7607 C7608 1.398 . S
C7607 C7613 1.491 . S
C7608 H7599 0.950 . S
C7608 C7607 1.398 . S
C7608 C7609 1.391 . S
C7609 H7597 0.950 . S
C7609 C7605 1.393 . S
C7609 C7608 1.391 . S
C7610 H7600 0.950 . S
C7610 C7611 1.386 . S
C7610 C7612 1.391 . S
C7611 C7610 1.386 . S
C7611 C7615 1.393 . S
C7612 H7601 0.950 . S
C7612 C7610 1.391 . S
C7612 C7613 1.400 . S
C7613 C7607 1.491 . S
C7613 C7612 1.400 . S
C7613 C7614 1.398 . S
C7614 H7602 0.950 . S
C7614 C7613 1.398 . S
C7614 C7615 1.391 . S
C7615 H7603 0.950 . S
C7615 C7611 1.393 . S
C7615 C7614 1.391 . S
H7616 C7624 0.950 . S
H7617 C7629 0.950 . S
H7618 C7626 0.950 . S
H7619 C7628 0.950 . S
H7620 C7630 0.950 . S
H7621 C7632 0.950 . S
H7622 C7634 0.950 . S
H7623 C7635 0.950 . S
C7624 H7616 0.950 . S
C7624 C7625 1.386 . S
C7624 C7626 1.391 . S
C7625 C7624 1.386 . S
C7625 C7629 1.393 . S
C7626 H7618 0.950 . S
C7626 C7624 1.391 . S
C7626 C7627 1.400 . S
C7627 C7626 1.400 . S
C7627 C7628 1.398 . S
C7627 C7633 1.491 . S
C7628 H7619 0.950 . S
C7628 C7627 1.398 . S
C7628 C7629 1.391 . S
C7629 H7617 0.950 . S
C7629 C7625 1.393 . S
C7629 C7628 1.391 . S
C7630 H7620 0.950 . S
C7630 C7631 1.386 . S
C7630 C7632 1.391 . S
C7631 C7630 1.386 . S
C7631 C7635 1.393 . S
C7632 H7621 0.950 . S
C7632 C7630 1.391 . S
C7632 C7633 1.400 . S
C7633 C7627 1.491 . S
C7633 C7632 1.400 . S
C7633 C7634 1.398 . S
C7634 H7622 0.950 . S
C7634 C7633 1.398 . S
C7634 C7635 1.391 . S
C7635 H7623 0.950 . S
C7635 C7631 1.393 . S
C7635 C7634 1.391 . S
H7636 C7644 0.950 . S
H7637 C7649 0.950 . S
H7638 C7646 0.950 . S
H7639 C7648 0.950 . S
H7640 C7650 0.950 . S
H7641 C7652 0.950 . S
H7642 C7654 0.950 . S
H7643 C7655 0.950 . S
C7644 H7636 0.950 . S
C7644 C7645 1.386 . S
C7644 C7646 1.391 . S
C7645 C7644 1.386 . S
C7645 C7649 1.393 . S
C7646 H7638 0.950 . S
C7646 C7644 1.391 . S
C7646 C7647 1.400 . S
C7647 C7646 1.400 . S
C7647 C7648 1.398 . S
C7647 C7653 1.491 . S
C7648 H7639 0.950 . S
C7648 C7647 1.398 . S
C7648 C7649 1.391 . S
C7649 H7637 0.950 . S
C7649 C7645 1.393 . S
C7649 C7648 1.391 . S
C7650 H7640 0.950 . S
C7650 C7651 1.386 . S
C7650 C7652 1.391 . S
C7651 C7650 1.386 . S
C7651 C7655 1.393 . S
C7652 H7641 0.950 . S
C7652 C7650 1.391 . S
C7652 C7653 1.400 . S
C7653 C7647 1.491 . S
C7653 C7652 1.400 . S
C7653 C7654 1.398 . S
C7654 H7642 0.950 . S
C7654 C7653 1.398 . S
C7654 C7655 1.391 . S
C7655 H7643 0.950 . S
C7655 C7651 1.393 . S
C7655 C7654 1.391 . S
H7656 C7664 0.950 . S
H7657 C7669 0.950 . S
H7658 C7666 0.950 . S
H7659 C7668 0.950 . S
H7660 C7670 0.950 . S
H7661 C7672 0.950 . S
H7662 C7674 0.950 . S
H7663 C7675 0.950 . S
C7664 H7656 0.950 . S
C7664 C7665 1.386 . S
C7664 C7666 1.391 . S
C7665 C7664 1.386 . S
C7665 C7669 1.393 . S
C7666 H7658 0.950 . S
C7666 C7664 1.391 . S
C7666 C7667 1.400 . S
C7667 C7666 1.400 . S
C7667 C7668 1.398 . S
C7667 C7673 1.491 . S
C7668 H7659 0.950 . S
C7668 C7667 1.398 . S
C7668 C7669 1.391 . S
C7669 H7657 0.950 . S
C7669 C7665 1.393 . S
C7669 C7668 1.391 . S
C7670 H7660 0.950 . S
C7670 C7671 1.386 . S
C7670 C7672 1.391 . S
C7671 C7670 1.386 . S
C7671 C7675 1.393 . S
C7672 H7661 0.950 . S
C7672 C7670 1.391 . S
C7672 C7673 1.400 . S
C7673 C7667 1.491 . S
C7673 C7672 1.400 . S
C7673 C7674 1.398 . S
C7674 H7662 0.950 . S
C7674 C7673 1.398 . S
C7674 C7675 1.391 . S
C7675 H7663 0.950 . S
C7675 C7671 1.393 . S
C7675 C7674 1.391 . S
H7676 C7684 0.950 . S
H7677 C7689 0.950 . S
H7678 C7686 0.950 . S
H7679 C7688 0.950 . S
H7680 C7690 0.950 . S
H7681 C7692 0.950 . S
H7682 C7694 0.950 . S
H7683 C7695 0.950 . S
C7684 H7676 0.950 . S
C7684 C7685 1.386 . S
C7684 C7686 1.391 . S
C7685 C7684 1.386 . S
C7685 C7689 1.393 . S
C7686 H7678 0.950 . S
C7686 C7684 1.391 . S
C7686 C7687 1.400 . S
C7687 C7686 1.400 . S
C7687 C7688 1.398 . S
C7687 C7693 1.491 . S
C7688 H7679 0.950 . S
C7688 C7687 1.398 . S
C7688 C7689 1.391 . S
C7689 H7677 0.950 . S
C7689 C7685 1.393 . S
C7689 C7688 1.391 . S
C7690 H7680 0.950 . S
C7690 C7691 1.386 . S
C7690 C7692 1.391 . S
C7691 C7690 1.386 . S
C7691 C7695 1.393 . S
C7692 H7681 0.950 . S
C7692 C7690 1.391 . S
C7692 C7693 1.400 . S
C7693 C7687 1.491 . S
C7693 C7692 1.400 . S
C7693 C7694 1.398 . S
C7694 H7682 0.950 . S
C7694 C7693 1.398 . S
C7694 C7695 1.391 . S
C7695 H7683 0.950 . S
C7695 C7691 1.393 . S
C7695 C7694 1.391 . S
H7696 C7704 0.950 . S
H7697 C7709 0.950 . S
H7698 C7706 0.950 . S
H7699 C7708 0.950 . S
H7700 C7710 0.950 . S
H7701 C7712 0.950 . S
H7702 C7714 0.950 . S
H7703 C7715 0.950 . S
C7704 H7696 0.950 . S
C7704 C7705 1.386 . S
C7704 C7706 1.391 . S
C7705 C7704 1.386 . S
C7705 C7709 1.393 . S
C7706 H7698 0.950 . S
C7706 C7704 1.391 . S
C7706 C7707 1.400 . S
C7707 C7706 1.400 . S
C7707 C7708 1.398 . S
C7707 C7713 1.491 . S
C7708 H7699 0.950 . S
C7708 C7707 1.398 . S
C7708 C7709 1.391 . S
C7709 H7697 0.950 . S
C7709 C7705 1.393 . S
C7709 C7708 1.391 . S
C7710 H7700 0.950 . S
C7710 C7711 1.386 . S
C7710 C7712 1.391 . S
C7711 C7710 1.386 . S
C7711 C7715 1.393 . S
C7712 H7701 0.950 . S
C7712 C7710 1.391 . S
C7712 C7713 1.400 . S
C7713 C7707 1.491 . S
C7713 C7712 1.400 . S
C7713 C7714 1.398 . S
C7714 H7702 0.950 . S
C7714 C7713 1.398 . S
C7714 C7715 1.391 . S
C7715 H7703 0.950 . S
C7715 C7711 1.393 . S
C7715 C7714 1.391 . S
H7716 C7724 0.950 . S
H7717 C7729 0.950 . S
H7718 C7726 0.950 . S
H7719 C7728 0.950 . S
H7720 C7730 0.950 . S
H7721 C7732 0.950 . S
H7722 C7734 0.950 . S
H7723 C7735 0.950 . S
C7724 H7716 0.950 . S
C7724 C7725 1.386 . S
C7724 C7726 1.391 . S
C7725 C7724 1.386 . S
C7725 C7729 1.393 . S
C7726 H7718 0.950 . S
C7726 C7724 1.391 . S
C7726 C7727 1.400 . S
C7727 C7726 1.400 . S
C7727 C7728 1.398 . S
C7727 C7733 1.491 . S
C7728 H7719 0.950 . S
C7728 C7727 1.398 . S
C7728 C7729 1.391 . S
C7729 H7717 0.950 . S
C7729 C7725 1.393 . S
C7729 C7728 1.391 . S
C7730 H7720 0.950 . S
C7730 C7731 1.386 . S
C7730 C7732 1.391 . S
C7731 C7730 1.386 . S
C7731 C7735 1.393 . S
C7732 H7721 0.950 . S
C7732 C7730 1.391 . S
C7732 C7733 1.400 . S
C7733 C7727 1.491 . S
C7733 C7732 1.400 . S
C7733 C7734 1.398 . S
C7734 H7722 0.950 . S
C7734 C7733 1.398 . S
C7734 C7735 1.391 . S
C7735 H7723 0.950 . S
C7735 C7731 1.393 . S
C7735 C7734 1.391 . S
H7736 C7744 0.950 . S
H7737 C7749 0.950 . S
H7738 C7746 0.950 . S
H7739 C7748 0.950 . S
H7740 C7750 0.950 . S
H7741 C7752 0.950 . S
H7742 C7754 0.950 . S
H7743 C7755 0.950 . S
C7744 H7736 0.950 . S
C7744 C7745 1.386 . S
C7744 C7746 1.391 . S
C7745 C7744 1.386 . S
C7745 C7749 1.393 . S
C7746 H7738 0.950 . S
C7746 C7744 1.391 . S
C7746 C7747 1.400 . S
C7747 C7746 1.400 . S
C7747 C7748 1.398 . S
C7747 C7753 1.491 . S
C7748 H7739 0.950 . S
C7748 C7747 1.398 . S
C7748 C7749 1.391 . S
C7749 H7737 0.950 . S
C7749 C7745 1.393 . S
C7749 C7748 1.391 . S
C7750 H7740 0.950 . S
C7750 C7751 1.386 . S
C7750 C7752 1.391 . S
C7751 C7750 1.386 . S
C7751 C7755 1.393 . S
C7752 H7741 0.950 . S
C7752 C7750 1.391 . S
C7752 C7753 1.400 . S
C7753 C7747 1.491 . S
C7753 C7752 1.400 . S
C7753 C7754 1.398 . S
C7754 H7742 0.950 . S
C7754 C7753 1.398 . S
C7754 C7755 1.391 . S
C7755 H7743 0.950 . S
C7755 C7751 1.393 . S
C7755 C7754 1.391 . S
H7756 C7764 0.950 . S
H7757 C7769 0.950 . S
H7758 C7766 0.950 . S
H7759 C7768 0.950 . S
H7760 C7770 0.950 . S
H7761 C7772 0.950 . S
H7762 C7774 0.950 . S
H7763 C7775 0.950 . S
C7764 H7756 0.950 . S
C7764 C7765 1.386 . S
C7764 C7766 1.391 . S
C7765 C7764 1.386 . S
C7765 C7769 1.393 . S
C7766 H7758 0.950 . S
C7766 C7764 1.391 . S
C7766 C7767 1.400 . S
C7767 C7766 1.400 . S
C7767 C7768 1.398 . S
C7767 C7773 1.491 . S
C7768 H7759 0.950 . S
C7768 C7767 1.398 . S
C7768 C7769 1.391 . S
C7769 H7757 0.950 . S
C7769 C7765 1.393 . S
C7769 C7768 1.391 . S
C7770 H7760 0.950 . S
C7770 C7771 1.386 . S
C7770 C7772 1.391 . S
C7771 C7770 1.386 . S
C7771 C7775 1.393 . S
C7772 H7761 0.950 . S
C7772 C7770 1.391 . S
C7772 C7773 1.400 . S
C7773 C7767 1.491 . S
C7773 C7772 1.400 . S
C7773 C7774 1.398 . S
C7774 H7762 0.950 . S
C7774 C7773 1.398 . S
C7774 C7775 1.391 . S
C7775 H7763 0.950 . S
C7775 C7771 1.393 . S
C7775 C7774 1.391 . S
H7776 C7784 0.950 . S
H7777 C7789 0.950 . S
H7778 C7786 0.950 . S
H7779 C7788 0.950 . S
H7780 C7790 0.950 . S
H7781 C7792 0.950 . S
H7782 C7794 0.950 . S
H7783 C7795 0.950 . S
C7784 H7776 0.950 . S
C7784 C7785 1.386 . S
C7784 C7786 1.391 . S
C7785 C7784 1.386 . S
C7785 C7789 1.393 . S
C7786 H7778 0.950 . S
C7786 C7784 1.391 . S
C7786 C7787 1.400 . S
C7787 C7786 1.400 . S
C7787 C7788 1.398 . S
C7787 C7793 1.491 . S
C7788 H7779 0.950 . S
C7788 C7787 1.398 . S
C7788 C7789 1.391 . S
C7789 H7777 0.950 . S
C7789 C7785 1.393 . S
C7789 C7788 1.391 . S
C7790 H7780 0.950 . S
C7790 C7791 1.386 . S
C7790 C7792 1.391 . S
C7791 C7790 1.386 . S
C7791 C7795 1.393 . S
C7792 H7781 0.950 . S
C7792 C7790 1.391 . S
C7792 C7793 1.400 . S
C7793 C7787 1.491 . S
C7793 C7792 1.400 . S
C7793 C7794 1.398 . S
C7794 H7782 0.950 . S
C7794 C7793 1.398 . S
C7794 C7795 1.391 . S
C7795 H7783 0.950 . S
C7795 C7791 1.393 . S
C7795 C7794 1.391 . S
H7796 C7804 0.950 . S
H7797 C7809 0.950 . S
H7798 C7806 0.950 . S
H7799 C7808 0.950 . S
H7800 C7810 0.950 . S
H7801 C7812 0.950 . S
H7802 C7814 0.950 . S
H7803 C7815 0.950 . S
C7804 H7796 0.950 . S
C7804 C7805 1.386 . S
C7804 C7806 1.391 . S
C7805 C7804 1.386 . S
C7805 C7809 1.393 . S
C7806 H7798 0.950 . S
C7806 C7804 1.391 . S
C7806 C7807 1.400 . S
C7807 C7806 1.400 . S
C7807 C7808 1.398 . S
C7807 C7813 1.491 . S
C7808 H7799 0.950 . S
C7808 C7807 1.398 . S
C7808 C7809 1.391 . S
C7809 H7797 0.950 . S
C7809 C7805 1.393 . S
C7809 C7808 1.391 . S
C7810 H7800 0.950 . S
C7810 C7811 1.386 . S
C7810 C7812 1.391 . S
C7811 C7810 1.386 . S
C7811 C7815 1.393 . S
C7812 H7801 0.950 . S
C7812 C7810 1.391 . S
C7812 C7813 1.400 . S
C7813 C7807 1.491 . S
C7813 C7812 1.400 . S
C7813 C7814 1.398 . S
C7814 H7802 0.950 . S
C7814 C7813 1.398 . S
C7814 C7815 1.391 . S
C7815 H7803 0.950 . S
C7815 C7811 1.393 . S
C7815 C7814 1.391 . S
H7816 C7824 0.950 . S
H7817 C7829 0.950 . S
H7818 C7826 0.950 . S
H7819 C7828 0.950 . S
H7820 C7830 0.950 . S
H7821 C7832 0.950 . S
H7822 C7834 0.950 . S
H7823 C7835 0.950 . S
C7824 H7816 0.950 . S
C7824 C7825 1.386 . S
C7824 C7826 1.391 . S
C7825 C7824 1.386 . S
C7825 C7829 1.393 . S
C7826 H7818 0.950 . S
C7826 C7824 1.391 . S
C7826 C7827 1.400 . S
C7827 C7826 1.400 . S
C7827 C7828 1.398 . S
C7827 C7833 1.491 . S
C7828 H7819 0.950 . S
C7828 C7827 1.398 . S
C7828 C7829 1.391 . S
C7829 H7817 0.950 . S
C7829 C7825 1.393 . S
C7829 C7828 1.391 . S
C7830 H7820 0.950 . S
C7830 C7831 1.386 . S
C7830 C7832 1.391 . S
C7831 C7830 1.386 . S
C7831 C7835 1.393 . S
C7832 H7821 0.950 . S
C7832 C7830 1.391 . S
C7832 C7833 1.400 . S
C7833 C7827 1.491 . S
C7833 C7832 1.400 . S
C7833 C7834 1.398 . S
C7834 H7822 0.950 . S
C7834 C7833 1.398 . S
C7834 C7835 1.391 . S
C7835 H7823 0.950 . S
C7835 C7831 1.393 . S
C7835 C7834 1.391 . S
H7836 C7844 0.950 . S
H7837 C7849 0.950 . S
H7838 C7846 0.950 . S
H7839 C7848 0.950 . S
H7840 C7850 0.950 . S
H7841 C7852 0.950 . S
H7842 C7854 0.950 . S
H7843 C7855 0.950 . S
C7844 H7836 0.950 . S
C7844 C7845 1.386 . S
C7844 C7846 1.391 . S
C7845 C7844 1.386 . S
C7845 C7849 1.393 . S
C7846 H7838 0.950 . S
C7846 C7844 1.391 . S
C7846 C7847 1.400 . S
C7847 C7846 1.400 . S
C7847 C7848 1.398 . S
C7847 C7853 1.491 . S
C7848 H7839 0.950 . S
C7848 C7847 1.398 . S
C7848 C7849 1.391 . S
C7849 H7837 0.950 . S
C7849 C7845 1.393 . S
C7849 C7848 1.391 . S
C7850 H7840 0.950 . S
C7850 C7851 1.386 . S
C7850 C7852 1.391 . S
C7851 C7850 1.386 . S
C7851 C7855 1.393 . S
C7852 H7841 0.950 . S
C7852 C7850 1.391 . S
C7852 C7853 1.400 . S
C7853 C7847 1.491 . S
C7853 C7852 1.400 . S
C7853 C7854 1.398 . S
C7854 H7842 0.950 . S
C7854 C7853 1.398 . S
C7854 C7855 1.391 . S
C7855 H7843 0.950 . S
C7855 C7851 1.393 . S
C7855 C7854 1.391 . S
H7856 C7864 0.950 . S
H7857 C7869 0.950 . S
H7858 C7866 0.950 . S
H7859 C7868 0.950 . S
H7860 C7870 0.950 . S
H7861 C7872 0.950 . S
H7862 C7874 0.950 . S
H7863 C7875 0.950 . S
C7864 H7856 0.950 . S
C7864 C7865 1.386 . S
C7864 C7866 1.391 . S
C7865 C7864 1.386 . S
C7865 C7869 1.393 . S
C7866 H7858 0.950 . S
C7866 C7864 1.391 . S
C7866 C7867 1.400 . S
C7867 C7866 1.400 . S
C7867 C7868 1.398 . S
C7867 C7873 1.491 . S
C7868 H7859 0.950 . S
C7868 C7867 1.398 . S
C7868 C7869 1.391 . S
C7869 H7857 0.950 . S
C7869 C7865 1.393 . S
C7869 C7868 1.391 . S
C7870 H7860 0.950 . S
C7870 C7871 1.386 . S
C7870 C7872 1.391 . S
C7871 C7870 1.386 . S
C7871 C7875 1.393 . S
C7872 H7861 0.950 . S
C7872 C7870 1.391 . S
C7872 C7873 1.400 . S
C7873 C7867 1.491 . S
C7873 C7872 1.400 . S
C7873 C7874 1.398 . S
C7874 H7862 0.950 . S
C7874 C7873 1.398 . S
C7874 C7875 1.391 . S
C7875 H7863 0.950 . S
C7875 C7871 1.393 . S
C7875 C7874 1.391 . S
H7876 C7884 0.950 . S
H7877 C7889 0.950 . S
H7878 C7886 0.950 . S
H7879 C7888 0.950 . S
H7880 C7890 0.950 . S
H7881 C7892 0.950 . S
H7882 C7894 0.950 . S
H7883 C7895 0.950 . S
C7884 H7876 0.950 . S
C7884 C7885 1.386 . S
C7884 C7886 1.391 . S
C7885 C7884 1.386 . S
C7885 C7889 1.393 . S
C7886 H7878 0.950 . S
C7886 C7884 1.391 . S
C7886 C7887 1.400 . S
C7887 C7886 1.400 . S
C7887 C7888 1.398 . S
C7887 C7893 1.491 . S
C7888 H7879 0.950 . S
C7888 C7887 1.398 . S
C7888 C7889 1.391 . S
C7889 H7877 0.950 . S
C7889 C7885 1.393 . S
C7889 C7888 1.391 . S
C7890 H7880 0.950 . S
C7890 C7891 1.386 . S
C7890 C7892 1.391 . S
C7891 C7890 1.386 . S
C7891 C7895 1.393 . S
C7892 H7881 0.950 . S
C7892 C7890 1.391 . S
C7892 C7893 1.400 . S
C7893 C7887 1.491 . S
C7893 C7892 1.400 . S
C7893 C7894 1.398 . S
C7894 H7882 0.950 . S
C7894 C7893 1.398 . S
C7894 C7895 1.391 . S
C7895 H7883 0.950 . S
C7895 C7891 1.393 . S
C7895 C7894 1.391 . S
H7896 C7904 0.950 . S
H7897 C7909 0.950 . S
H7898 C7906 0.950 . S
H7899 C7908 0.950 . S
H7900 C7910 0.950 . S
H7901 C7912 0.950 . S
H7902 C7914 0.950 . S
H7903 C7915 0.950 . S
C7904 H7896 0.950 . S
C7904 C7905 1.386 . S
C7904 C7906 1.391 . S
C7905 C7904 1.386 . S
C7905 C7909 1.393 . S
C7906 H7898 0.950 . S
C7906 C7904 1.391 . S
C7906 C7907 1.400 . S
C7907 C7906 1.400 . S
C7907 C7908 1.398 . S
C7907 C7913 1.491 . S
C7908 H7899 0.950 . S
C7908 C7907 1.398 . S
C7908 C7909 1.391 . S
C7909 H7897 0.950 . S
C7909 C7905 1.393 . S
C7909 C7908 1.391 . S
C7910 H7900 0.950 . S
C7910 C7911 1.386 . S
C7910 C7912 1.391 . S
C7911 C7910 1.386 . S
C7911 C7915 1.393 . S
C7912 H7901 0.950 . S
C7912 C7910 1.391 . S
C7912 C7913 1.400 . S
C7913 C7907 1.491 . S
C7913 C7912 1.400 . S
C7913 C7914 1.398 . S
C7914 H7902 0.950 . S
C7914 C7913 1.398 . S
C7914 C7915 1.391 . S
C7915 H7903 0.950 . S
C7915 C7911 1.393 . S
C7915 C7914 1.391 . S
H7916 C7924 0.950 . S
H7917 C7929 0.950 . S
H7918 C7926 0.950 . S
H7919 C7928 0.950 . S
H7920 C7930 0.950 . S
H7921 C7932 0.950 . S
H7922 C7934 0.950 . S
H7923 C7935 0.950 . S
C7924 H7916 0.950 . S
C7924 C7925 1.386 . S
C7924 C7926 1.391 . S
C7925 C7924 1.386 . S
C7925 C7929 1.393 . S
C7926 H7918 0.950 . S
C7926 C7924 1.391 . S
C7926 C7927 1.400 . S
C7927 C7926 1.400 . S
C7927 C7928 1.398 . S
C7927 C7933 1.491 . S
C7928 H7919 0.950 . S
C7928 C7927 1.398 . S
C7928 C7929 1.391 . S
C7929 H7917 0.950 . S
C7929 C7925 1.393 . S
C7929 C7928 1.391 . S
C7930 H7920 0.950 . S
C7930 C7931 1.386 . S
C7930 C7932 1.391 . S
C7931 C7930 1.386 . S
C7931 C7935 1.393 . S
C7932 H7921 0.950 . S
C7932 C7930 1.391 . S
C7932 C7933 1.400 . S
C7933 C7927 1.491 . S
C7933 C7932 1.400 . S
C7933 C7934 1.398 . S
C7934 H7922 0.950 . S
C7934 C7933 1.398 . S
C7934 C7935 1.391 . S
C7935 H7923 0.950 . S
C7935 C7931 1.393 . S
C7935 C7934 1.391 . S
H7936 C7944 0.950 . S
H7937 C7949 0.950 . S
H7938 C7946 0.950 . S
H7939 C7948 0.950 . S
H7940 C7950 0.950 . S
H7941 C7952 0.950 . S
H7942 C7954 0.950 . S
H7943 C7955 0.950 . S
C7944 H7936 0.950 . S
C7944 C7945 1.386 . S
C7944 C7946 1.391 . S
C7945 C7944 1.386 . S
C7945 C7949 1.393 . S
C7946 H7938 0.950 . S
C7946 C7944 1.391 . S
C7946 C7947 1.400 . S
C7947 C7946 1.400 . S
C7947 C7948 1.398 . S
C7947 C7953 1.491 . S
C7948 H7939 0.950 . S
C7948 C7947 1.398 . S
C7948 C7949 1.391 . S
C7949 H7937 0.950 . S
C7949 C7945 1.393 . S
C7949 C7948 1.391 . S
C7950 H7940 0.950 . S
C7950 C7951 1.386 . S
C7950 C7952 1.391 . S
C7951 C7950 1.386 . S
C7951 C7955 1.393 . S
C7952 H7941 0.950 . S
C7952 C7950 1.391 . S
C7952 C7953 1.400 . S
C7953 C7947 1.491 . S
C7953 C7952 1.400 . S
C7953 C7954 1.398 . S
C7954 H7942 0.950 . S
C7954 C7953 1.398 . S
C7954 C7955 1.391 . S
C7955 H7943 0.950 . S
C7955 C7951 1.393 . S
C7955 C7954 1.391 . S
H7956 C7964 0.950 . S
H7957 C7969 0.950 . S
H7958 C7966 0.950 . S
H7959 C7968 0.950 . S
H7960 C7970 0.950 . S
H7961 C7972 0.950 . S
H7962 C7974 0.950 . S
H7963 C7975 0.950 . S
C7964 H7956 0.950 . S
C7964 C7965 1.386 . S
C7964 C7966 1.391 . S
C7965 C7964 1.386 . S
C7965 C7969 1.393 . S
C7966 H7958 0.950 . S
C7966 C7964 1.391 . S
C7966 C7967 1.400 . S
C7967 C7966 1.400 . S
C7967 C7968 1.398 . S
C7967 C7973 1.491 . S
C7968 H7959 0.950 . S
C7968 C7967 1.398 . S
C7968 C7969 1.391 . S
C7969 H7957 0.950 . S
C7969 C7965 1.393 . S
C7969 C7968 1.391 . S
C7970 H7960 0.950 . S
C7970 C7971 1.386 . S
C7970 C7972 1.391 . S
C7971 C7970 1.386 . S
C7971 C7975 1.393 . S
C7972 H7961 0.950 . S
C7972 C7970 1.391 . S
C7972 C7973 1.400 . S
C7973 C7967 1.491 . S
C7973 C7972 1.400 . S
C7973 C7974 1.398 . S
C7974 H7962 0.950 . S
C7974 C7973 1.398 . S
C7974 C7975 1.391 . S
C7975 H7963 0.950 . S
C7975 C7971 1.393 . S
C7975 C7974 1.391 . S
H7976 C7984 0.950 . S
H7977 C7989 0.950 . S
H7978 C7986 0.950 . S
H7979 C7988 0.950 . S
H7980 C7990 0.950 . S
H7981 C7992 0.950 . S
H7982 C7994 0.950 . S
H7983 C7995 0.950 . S
C7984 H7976 0.950 . S
C7984 C7985 1.386 . S
C7984 C7986 1.391 . S
C7985 C7984 1.386 . S
C7985 C7989 1.393 . S
C7986 H7978 0.950 . S
C7986 C7984 1.391 . S
C7986 C7987 1.400 . S
C7987 C7986 1.400 . S
C7987 C7988 1.398 . S
C7987 C7993 1.491 . S
C7988 H7979 0.950 . S
C7988 C7987 1.398 . S
C7988 C7989 1.391 . S
C7989 H7977 0.950 . S
C7989 C7985 1.393 . S
C7989 C7988 1.391 . S
C7990 H7980 0.950 . S
C7990 C7991 1.386 . S
C7990 C7992 1.391 . S
C7991 C7990 1.386 . S
C7991 C7995 1.393 . S
C7992 H7981 0.950 . S
C7992 C7990 1.391 . S
C7992 C7993 1.400 . S
C7993 C7987 1.491 . S
C7993 C7992 1.400 . S
C7993 C7994 1.398 . S
C7994 H7982 0.950 . S
C7994 C7993 1.398 . S
C7994 C7995 1.391 . S
C7995 H7983 0.950 . S
C7995 C7991 1.393 . S
C7995 C7994 1.391 . S
H7996 C8004 0.950 . S
H7997 C8009 0.950 . S
H7998 C8006 0.950 . S
H7999 C8008 0.950 . S
H8000 C8010 0.950 . S
H8001 C8012 0.950 . S
H8002 C8014 0.950 . S
H8003 C8015 0.950 . S
C8004 H7996 0.950 . S
C8004 C8005 1.386 . S
C8004 C8006 1.391 . S
C8005 C8004 1.386 . S
C8005 C8009 1.393 . S
C8006 H7998 0.950 . S
C8006 C8004 1.391 . S
C8006 C8007 1.400 . S
C8007 C8006 1.400 . S
C8007 C8008 1.398 . S
C8007 C8013 1.491 . S
C8008 H7999 0.950 . S
C8008 C8007 1.398 . S
C8008 C8009 1.391 . S
C8009 H7997 0.950 . S
C8009 C8005 1.393 . S
C8009 C8008 1.391 . S
C8010 H8000 0.950 . S
C8010 C8011 1.386 . S
C8010 C8012 1.391 . S
C8011 C8010 1.386 . S
C8011 C8015 1.393 . S
C8012 H8001 0.950 . S
C8012 C8010 1.391 . S
C8012 C8013 1.400 . S
C8013 C8007 1.491 . S
C8013 C8012 1.400 . S
C8013 C8014 1.398 . S
C8014 H8002 0.950 . S
C8014 C8013 1.398 . S
C8014 C8015 1.391 . S
C8015 H8003 0.950 . S
C8015 C8011 1.393 . S
C8015 C8014 1.391 . S
H8016 C8024 0.950 . S
H8017 C8029 0.950 . S
H8018 C8026 0.950 . S
H8019 C8028 0.950 . S
H8020 C8030 0.950 . S
H8021 C8032 0.950 . S
H8022 C8034 0.950 . S
H8023 C8035 0.950 . S
C8024 H8016 0.950 . S
C8024 C8025 1.386 . S
C8024 C8026 1.391 . S
C8025 C8024 1.386 . S
C8025 C8029 1.393 . S
C8026 H8018 0.950 . S
C8026 C8024 1.391 . S
C8026 C8027 1.400 . S
C8027 C8026 1.400 . S
C8027 C8028 1.398 . S
C8027 C8033 1.491 . S
C8028 H8019 0.950 . S
C8028 C8027 1.398 . S
C8028 C8029 1.391 . S
C8029 H8017 0.950 . S
C8029 C8025 1.393 . S
C8029 C8028 1.391 . S
C8030 H8020 0.950 . S
C8030 C8031 1.386 . S
C8030 C8032 1.391 . S
C8031 C8030 1.386 . S
C8031 C8035 1.393 . S
C8032 H8021 0.950 . S
C8032 C8030 1.391 . S
C8032 C8033 1.400 . S
C8033 C8027 1.491 . S
C8033 C8032 1.400 . S
C8033 C8034 1.398 . S
C8034 H8022 0.950 . S
C8034 C8033 1.398 . S
C8034 C8035 1.391 . S
C8035 H8023 0.950 . S
C8035 C8031 1.393 . S
C8035 C8034 1.391 . S
H8036 C8044 0.950 . S
H8037 C8049 0.950 . S
H8038 C8046 0.950 . S
H8039 C8048 0.950 . S
H8040 C8050 0.950 . S
H8041 C8052 0.950 . S
H8042 C8054 0.950 . S
H8043 C8055 0.950 . S
C8044 H8036 0.950 . S
C8044 C8045 1.386 . S
C8044 C8046 1.391 . S
C8045 C8044 1.386 . S
C8045 C8049 1.393 . S
C8046 H8038 0.950 . S
C8046 C8044 1.391 . S
C8046 C8047 1.400 . S
C8047 C8046 1.400 . S
C8047 C8048 1.398 . S
C8047 C8053 1.491 . S
C8048 H8039 0.950 . S
C8048 C8047 1.398 . S
C8048 C8049 1.391 . S
C8049 H8037 0.950 . S
C8049 C8045 1.393 . S
C8049 C8048 1.391 . S
C8050 H8040 0.950 . S
C8050 C8051 1.386 . S
C8050 C8052 1.391 . S
C8051 C8050 1.386 . S
C8051 C8055 1.393 . S
C8052 H8041 0.950 . S
C8052 C8050 1.391 . S
C8052 C8053 1.400 . S
C8053 C8047 1.491 . S
C8053 C8052 1.400 . S
C8053 C8054 1.398 . S
C8054 H8042 0.950 . S
C8054 C8053 1.398 . S
C8054 C8055 1.391 . S
C8055 H8043 0.950 . S
C8055 C8051 1.393 . S
C8055 C8054 1.391 . S
H8056 C8064 0.950 . S
H8057 C8069 0.950 . S
H8058 C8066 0.950 . S
H8059 C8068 0.950 . S
H8060 C8070 0.950 . S
H8061 C8072 0.950 . S
H8062 C8074 0.950 . S
H8063 C8075 0.950 . S
C8064 H8056 0.950 . S
C8064 C8065 1.386 . S
C8064 C8066 1.391 . S
C8065 C8064 1.386 . S
C8065 C8069 1.393 . S
C8066 H8058 0.950 . S
C8066 C8064 1.391 . S
C8066 C8067 1.400 . S
C8067 C8066 1.400 . S
C8067 C8068 1.398 . S
C8067 C8073 1.491 . S
C8068 H8059 0.950 . S
C8068 C8067 1.398 . S
C8068 C8069 1.391 . S
C8069 H8057 0.950 . S
C8069 C8065 1.393 . S
C8069 C8068 1.391 . S
C8070 H8060 0.950 . S
C8070 C8071 1.386 . S
C8070 C8072 1.391 . S
C8071 C8070 1.386 . S
C8071 C8075 1.393 . S
C8072 H8061 0.950 . S
C8072 C8070 1.391 . S
C8072 C8073 1.400 . S
C8073 C8067 1.491 . S
C8073 C8072 1.400 . S
C8073 C8074 1.398 . S
C8074 H8062 0.950 . S
C8074 C8073 1.398 . S
C8074 C8075 1.391 . S
C8075 H8063 0.950 . S
C8075 C8071 1.393 . S
C8075 C8074 1.391 . S
H8076 C8084 0.950 . S
H8077 C8089 0.950 . S
H8078 C8086 0.950 . S
H8079 C8088 0.950 . S
H8080 C8090 0.950 . S
H8081 C8092 0.950 . S
H8082 C8094 0.950 . S
H8083 C8095 0.950 . S
C8084 H8076 0.950 . S
C8084 C8085 1.386 . S
C8084 C8086 1.391 . S
C8085 C8084 1.386 . S
C8085 C8089 1.393 . S
C8086 H8078 0.950 . S
C8086 C8084 1.391 . S
C8086 C8087 1.400 . S
C8087 C8086 1.400 . S
C8087 C8088 1.398 . S
C8087 C8093 1.491 . S
C8088 H8079 0.950 . S
C8088 C8087 1.398 . S
C8088 C8089 1.391 . S
C8089 H8077 0.950 . S
C8089 C8085 1.393 . S
C8089 C8088 1.391 . S
C8090 H8080 0.950 . S
C8090 C8091 1.386 . S
C8090 C8092 1.391 . S
C8091 C8090 1.386 . S
C8091 C8095 1.393 . S
C8092 H8081 0.950 . S
C8092 C8090 1.391 . S
C8092 C8093 1.400 . S
C8093 C8087 1.491 . S
C8093 C8092 1.400 . S
C8093 C8094 1.398 . S
C8094 H8082 0.950 . S
C8094 C8093 1.398 . S
C8094 C8095 1.391 . S
C8095 H8083 0.950 . S
C8095 C8091 1.393 . S
C8095 C8094 1.391 . S
H8096 C8104 0.950 . S
H8097 C8109 0.950 . S
H8098 C8106 0.950 . S
H8099 C8108 0.950 . S
H8100 C8110 0.950 . S
H8101 C8112 0.950 . S
H8102 C8114 0.950 . S
H8103 C8115 0.950 . S
C8104 H8096 0.950 . S
C8104 C8105 1.386 . S
C8104 C8106 1.391 . S
C8105 C8104 1.386 . S
C8105 C8109 1.393 . S
C8106 H8098 0.950 . S
C8106 C8104 1.391 . S
C8106 C8107 1.400 . S
C8107 C8106 1.400 . S
C8107 C8108 1.398 . S
C8107 C8113 1.491 . S
C8108 H8099 0.950 . S
C8108 C8107 1.398 . S
C8108 C8109 1.391 . S
C8109 H8097 0.950 . S
C8109 C8105 1.393 . S
C8109 C8108 1.391 . S
C8110 H8100 0.950 . S
C8110 C8111 1.386 . S
C8110 C8112 1.391 . S
C8111 C8110 1.386 . S
C8111 C8115 1.393 . S
C8112 H8101 0.950 . S
C8112 C8110 1.391 . S
C8112 C8113 1.400 . S
C8113 C8107 1.491 . S
C8113 C8112 1.400 . S
C8113 C8114 1.398 . S
C8114 H8102 0.950 . S
C8114 C8113 1.398 . S
C8114 C8115 1.391 . S
C8115 H8103 0.950 . S
C8115 C8111 1.393 . S
C8115 C8114 1.391 . S
H8116 C8124 0.950 . S
H8117 C8129 0.950 . S
H8118 C8126 0.950 . S
H8119 C8128 0.950 . S
H8120 C8130 0.950 . S
H8121 C8132 0.950 . S
H8122 C8134 0.950 . S
H8123 C8135 0.950 . S
C8124 H8116 0.950 . S
C8124 C8125 1.386 . S
C8124 C8126 1.391 . S
C8125 C8124 1.386 . S
C8125 C8129 1.393 . S
C8126 H8118 0.950 . S
C8126 C8124 1.391 . S
C8126 C8127 1.400 . S
C8127 C8126 1.400 . S
C8127 C8128 1.398 . S
C8127 C8133 1.491 . S
C8128 H8119 0.950 . S
C8128 C8127 1.398 . S
C8128 C8129 1.391 . S
C8129 H8117 0.950 . S
C8129 C8125 1.393 . S
C8129 C8128 1.391 . S
C8130 H8120 0.950 . S
C8130 C8131 1.386 . S
C8130 C8132 1.391 . S
C8131 C8130 1.386 . S
C8131 C8135 1.393 . S
C8132 H8121 0.950 . S
C8132 C8130 1.391 . S
C8132 C8133 1.400 . S
C8133 C8127 1.491 . S
C8133 C8132 1.400 . S
C8133 C8134 1.398 . S
C8134 H8122 0.950 . S
C8134 C8133 1.398 . S
C8134 C8135 1.391 . S
C8135 H8123 0.950 . S
C8135 C8131 1.393 . S
C8135 C8134 1.391 . S
H8136 C8144 0.950 . S
H8137 C8149 0.950 . S
H8138 C8146 0.950 . S
H8139 C8148 0.950 . S
H8140 C8150 0.950 . S
H8141 C8152 0.950 . S
H8142 C8154 0.950 . S
H8143 C8155 0.950 . S
C8144 H8136 0.950 . S
C8144 C8145 1.386 . S
C8144 C8146 1.391 . S
C8145 C8144 1.386 . S
C8145 C8149 1.393 . S
C8146 H8138 0.950 . S
C8146 C8144 1.391 . S
C8146 C8147 1.400 . S
C8147 C8146 1.400 . S
C8147 C8148 1.398 . S
C8147 C8153 1.491 . S
C8148 H8139 0.950 . S
C8148 C8147 1.398 . S
C8148 C8149 1.391 . S
C8149 H8137 0.950 . S
C8149 C8145 1.393 . S
C8149 C8148 1.391 . S
C8150 H8140 0.950 . S
C8150 C8151 1.386 . S
C8150 C8152 1.391 . S
C8151 C8150 1.386 . S
C8151 C8155 1.393 . S
C8152 H8141 0.950 . S
C8152 C8150 1.391 . S
C8152 C8153 1.400 . S
C8153 C8147 1.491 . S
C8153 C8152 1.400 . S
C8153 C8154 1.398 . S
C8154 H8142 0.950 . S
C8154 C8153 1.398 . S
C8154 C8155 1.391 . S
C8155 H8143 0.950 . S
C8155 C8151 1.393 . S
C8155 C8154 1.391 . S
H8156 C8164 0.950 . S
H8157 C8169 0.950 . S
H8158 C8166 0.950 . S
H8159 C8168 0.950 . S
H8160 C8170 0.950 . S
H8161 C8172 0.950 . S
H8162 C8174 0.950 . S
H8163 C8175 0.950 . S
C8164 H8156 0.950 . S
C8164 C8165 1.386 . S
C8164 C8166 1.391 . S
C8165 C8164 1.386 . S
C8165 C8169 1.393 . S
C8166 H8158 0.950 . S
C8166 C8164 1.391 . S
C8166 C8167 1.400 . S
C8167 C8166 1.400 . S
C8167 C8168 1.398 . S
C8167 C8173 1.491 . S
C8168 H8159 0.950 . S
C8168 C8167 1.398 . S
C8168 C8169 1.391 . S
C8169 H8157 0.950 . S
C8169 C8165 1.393 . S
C8169 C8168 1.391 . S
C8170 H8160 0.950 . S
C8170 C8171 1.386 . S
C8170 C8172 1.391 . S
C8171 C8170 1.386 . S
C8171 C8175 1.393 . S
C8172 H8161 0.950 . S
C8172 C8170 1.391 . S
C8172 C8173 1.400 . S
C8173 C8167 1.491 . S
C8173 C8172 1.400 . S
C8173 C8174 1.398 . S
C8174 H8162 0.950 . S
C8174 C8173 1.398 . S
C8174 C8175 1.391 . S
C8175 H8163 0.950 . S
C8175 C8171 1.393 . S
C8175 C8174 1.391 . S
H8176 C8184 0.950 . S
H8177 C8189 0.950 . S
H8178 C8186 0.950 . S
H8179 C8188 0.950 . S
H8180 C8190 0.950 . S
H8181 C8192 0.950 . S
H8182 C8194 0.950 . S
H8183 C8195 0.950 . S
C8184 H8176 0.950 . S
C8184 C8185 1.386 . S
C8184 C8186 1.391 . S
C8185 C8184 1.386 . S
C8185 C8189 1.393 . S
C8186 H8178 0.950 . S
C8186 C8184 1.391 . S
C8186 C8187 1.400 . S
C8187 C8186 1.400 . S
C8187 C8188 1.398 . S
C8187 C8193 1.491 . S
C8188 H8179 0.950 . S
C8188 C8187 1.398 . S
C8188 C8189 1.391 . S
C8189 H8177 0.950 . S
C8189 C8185 1.393 . S
C8189 C8188 1.391 . S
C8190 H8180 0.950 . S
C8190 C8191 1.386 . S
C8190 C8192 1.391 . S
C8191 C8190 1.386 . S
C8191 C8195 1.393 . S
C8192 H8181 0.950 . S
C8192 C8190 1.391 . S
C8192 C8193 1.400 . S
C8193 C8187 1.491 . S
C8193 C8192 1.400 . S
C8193 C8194 1.398 . S
C8194 H8182 0.950 . S
C8194 C8193 1.398 . S
C8194 C8195 1.391 . S
C8195 H8183 0.950 . S
C8195 C8191 1.393 . S
C8195 C8194 1.391 . S
H8196 C8204 0.950 . S
H8197 C8209 0.950 . S
H8198 C8206 0.950 . S
H8199 C8208 0.950 . S
H8200 C8210 0.950 . S
H8201 C8212 0.950 . S
H8202 C8214 0.950 . S
H8203 C8215 0.950 . S
C8204 H8196 0.950 . S
C8204 C8205 1.386 . S
C8204 C8206 1.391 . S
C8205 C8204 1.386 . S
C8205 C8209 1.393 . S
C8206 H8198 0.950 . S
C8206 C8204 1.391 . S
C8206 C8207 1.400 . S
C8207 C8206 1.400 . S
C8207 C8208 1.398 . S
C8207 C8213 1.491 . S
C8208 H8199 0.950 . S
C8208 C8207 1.398 . S
C8208 C8209 1.391 . S
C8209 H8197 0.950 . S
C8209 C8205 1.393 . S
C8209 C8208 1.391 . S
C8210 H8200 0.950 . S
C8210 C8211 1.386 . S
C8210 C8212 1.391 . S
C8211 C8210 1.386 . S
C8211 C8215 1.393 . S
C8212 H8201 0.950 . S
C8212 C8210 1.391 . S
C8212 C8213 1.400 . S
C8213 C8207 1.491 . S
C8213 C8212 1.400 . S
C8213 C8214 1.398 . S
C8214 H8202 0.950 . S
C8214 C8213 1.398 . S
C8214 C8215 1.391 . S
C8215 H8203 0.950 . S
C8215 C8211 1.393 . S
C8215 C8214 1.391 . S
H8216 C8224 0.950 . S
H8217 C8229 0.950 . S
H8218 C8226 0.950 . S
H8219 C8228 0.950 . S
H8220 C8230 0.950 . S
H8221 C8232 0.950 . S
H8222 C8234 0.950 . S
H8223 C8235 0.950 . S
C8224 H8216 0.950 . S
C8224 C8225 1.386 . S
C8224 C8226 1.391 . S
C8225 C8224 1.386 . S
C8225 C8229 1.393 . S
C8226 H8218 0.950 . S
C8226 C8224 1.391 . S
C8226 C8227 1.400 . S
C8227 C8226 1.400 . S
C8227 C8228 1.398 . S
C8227 C8233 1.491 . S
C8228 H8219 0.950 . S
C8228 C8227 1.398 . S
C8228 C8229 1.391 . S
C8229 H8217 0.950 . S
C8229 C8225 1.393 . S
C8229 C8228 1.391 . S
C8230 H8220 0.950 . S
C8230 C8231 1.386 . S
C8230 C8232 1.391 . S
C8231 C8230 1.386 . S
C8231 C8235 1.393 . S
C8232 H8221 0.950 . S
C8232 C8230 1.391 . S
C8232 C8233 1.400 . S
C8233 C8227 1.491 . S
C8233 C8232 1.400 . S
C8233 C8234 1.398 . S
C8234 H8222 0.950 . S
C8234 C8233 1.398 . S
C8234 C8235 1.391 . S
C8235 H8223 0.950 . S
C8235 C8231 1.393 . S
C8235 C8234 1.391 . S
H8236 C8244 0.950 . S
H8237 C8249 0.950 . S
H8238 C8246 0.950 . S
H8239 C8248 0.950 . S
H8240 C8250 0.950 . S
H8241 C8252 0.950 . S
H8242 C8254 0.950 . S
H8243 C8255 0.950 . S
C8244 H8236 0.950 . S
C8244 C8245 1.386 . S
C8244 C8246 1.391 . S
C8245 C8244 1.386 . S
C8245 C8249 1.393 . S
C8246 H8238 0.950 . S
C8246 C8244 1.391 . S
C8246 C8247 1.400 . S
C8247 C8246 1.400 . S
C8247 C8248 1.398 . S
C8247 C8253 1.491 . S
C8248 H8239 0.950 . S
C8248 C8247 1.398 . S
C8248 C8249 1.391 . S
C8249 H8237 0.950 . S
C8249 C8245 1.393 . S
C8249 C8248 1.391 . S
C8250 H8240 0.950 . S
C8250 C8251 1.386 . S
C8250 C8252 1.391 . S
C8251 C8250 1.386 . S
C8251 C8255 1.393 . S
C8252 H8241 0.950 . S
C8252 C8250 1.391 . S
C8252 C8253 1.400 . S
C8253 C8247 1.491 . S
C8253 C8252 1.400 . S
C8253 C8254 1.398 . S
C8254 H8242 0.950 . S
C8254 C8253 1.398 . S
C8254 C8255 1.391 . S
C8255 H8243 0.950 . S
C8255 C8251 1.393 . S
C8255 C8254 1.391 . S
H8256 C8264 0.950 . S
H8257 C8269 0.950 . S
H8258 C8266 0.950 . S
H8259 C8268 0.950 . S
H8260 C8270 0.950 . S
H8261 C8272 0.950 . S
H8262 C8274 0.950 . S
H8263 C8275 0.950 . S
C8264 H8256 0.950 . S
C8264 C8265 1.386 . S
C8264 C8266 1.391 . S
C8265 C8264 1.386 . S
C8265 C8269 1.393 . S
C8266 H8258 0.950 . S
C8266 C8264 1.391 . S
C8266 C8267 1.400 . S
C8267 C8266 1.400 . S
C8267 C8268 1.398 . S
C8267 C8273 1.491 . S
C8268 H8259 0.950 . S
C8268 C8267 1.398 . S
C8268 C8269 1.391 . S
C8269 H8257 0.950 . S
C8269 C8265 1.393 . S
C8269 C8268 1.391 . S
C8270 H8260 0.950 . S
C8270 C8271 1.386 . S
C8270 C8272 1.391 . S
C8271 C8270 1.386 . S
C8271 C8275 1.393 . S
C8272 H8261 0.950 . S
C8272 C8270 1.391 . S
C8272 C8273 1.400 . S
C8273 C8267 1.491 . S
C8273 C8272 1.400 . S
C8273 C8274 1.398 . S
C8274 H8262 0.950 . S
C8274 C8273 1.398 . S
C8274 C8275 1.391 . S
C8275 H8263 0.950 . S
C8275 C8271 1.393 . S
C8275 C8274 1.391 . S
H8276 C8284 0.950 . S
H8277 C8289 0.950 . S
H8278 C8286 0.950 . S
H8279 C8288 0.950 . S
H8280 C8290 0.950 . S
H8281 C8292 0.950 . S
H8282 C8294 0.950 . S
H8283 C8295 0.950 . S
C8284 H8276 0.950 . S
C8284 C8285 1.386 . S
C8284 C8286 1.391 . S
C8285 C8284 1.386 . S
C8285 C8289 1.393 . S
C8286 H8278 0.950 . S
C8286 C8284 1.391 . S
C8286 C8287 1.400 . S
C8287 C8286 1.400 . S
C8287 C8288 1.398 . S
C8287 C8293 1.491 . S
C8288 H8279 0.950 . S
C8288 C8287 1.398 . S
C8288 C8289 1.391 . S
C8289 H8277 0.950 . S
C8289 C8285 1.393 . S
C8289 C8288 1.391 . S
C8290 H8280 0.950 . S
C8290 C8291 1.386 . S
C8290 C8292 1.391 . S
C8291 C8290 1.386 . S
C8291 C8295 1.393 . S
C8292 H8281 0.950 . S
C8292 C8290 1.391 . S
C8292 C8293 1.400 . S
C8293 C8287 1.491 . S
C8293 C8292 1.400 . S
C8293 C8294 1.398 . S
C8294 H8282 0.950 . S
C8294 C8293 1.398 . S
C8294 C8295 1.391 . S
C8295 H8283 0.950 . S
C8295 C8291 1.393 . S
C8295 C8294 1.391 . S
H8296 C8304 0.950 . S
H8297 C8309 0.950 . S
H8298 C8306 0.950 . S
H8299 C8308 0.950 . S
H8300 C8310 0.950 . S
H8301 C8312 0.950 . S
H8302 C8314 0.950 . S
H8303 C8315 0.950 . S
C8304 H8296 0.950 . S
C8304 C8305 1.386 . S
C8304 C8306 1.391 . S
C8305 C8304 1.386 . S
C8305 C8309 1.393 . S
C8306 H8298 0.950 . S
C8306 C8304 1.391 . S
C8306 C8307 1.400 . S
C8307 C8306 1.400 . S
C8307 C8308 1.398 . S
C8307 C8313 1.491 . S
C8308 H8299 0.950 . S
C8308 C8307 1.398 . S
C8308 C8309 1.391 . S
C8309 H8297 0.950 . S
C8309 C8305 1.393 . S
C8309 C8308 1.391 . S
C8310 H8300 0.950 . S
C8310 C8311 1.386 . S
C8310 C8312 1.391 . S
C8311 C8310 1.386 . S
C8311 C8315 1.393 . S
C8312 H8301 0.950 . S
C8312 C8310 1.391 . S
C8312 C8313 1.400 . S
C8313 C8307 1.491 . S
C8313 C8312 1.400 . S
C8313 C8314 1.398 . S
C8314 H8302 0.950 . S
C8314 C8313 1.398 . S
C8314 C8315 1.391 . S
C8315 H8303 0.950 . S
C8315 C8311 1.393 . S
C8315 C8314 1.391 . S
H8316 C8324 0.950 . S
H8317 C8329 0.950 . S
H8318 C8326 0.950 . S
H8319 C8328 0.950 . S
H8320 C8330 0.950 . S
H8321 C8332 0.950 . S
H8322 C8334 0.950 . S
H8323 C8335 0.950 . S
C8324 H8316 0.950 . S
C8324 C8325 1.386 . S
C8324 C8326 1.391 . S
C8325 C8324 1.386 . S
C8325 C8329 1.393 . S
C8326 H8318 0.950 . S
C8326 C8324 1.391 . S
C8326 C8327 1.400 . S
C8327 C8326 1.400 . S
C8327 C8328 1.398 . S
C8327 C8333 1.491 . S
C8328 H8319 0.950 . S
C8328 C8327 1.398 . S
C8328 C8329 1.391 . S
C8329 H8317 0.950 . S
C8329 C8325 1.393 . S
C8329 C8328 1.391 . S
C8330 H8320 0.950 . S
C8330 C8331 1.386 . S
C8330 C8332 1.391 . S
C8331 C8330 1.386 . S
C8331 C8335 1.393 . S
C8332 H8321 0.950 . S
C8332 C8330 1.391 . S
C8332 C8333 1.400 . S
C8333 C8327 1.491 . S
C8333 C8332 1.400 . S
C8333 C8334 1.398 . S
C8334 H8322 0.950 . S
C8334 C8333 1.398 . S
C8334 C8335 1.391 . S
C8335 H8323 0.950 . S
C8335 C8331 1.393 . S
C8335 C8334 1.391 . S
H8336 C8344 0.950 . S
H8337 C8349 0.950 . S
H8338 C8346 0.950 . S
H8339 C8348 0.950 . S
H8340 C8350 0.950 . S
H8341 C8352 0.950 . S
H8342 C8354 0.950 . S
H8343 C8355 0.950 . S
C8344 H8336 0.950 . S
C8344 C8345 1.386 . S
C8344 C8346 1.391 . S
C8345 C8344 1.386 . S
C8345 C8349 1.393 . S
C8346 H8338 0.950 . S
C8346 C8344 1.391 . S
C8346 C8347 1.400 . S
C8347 C8346 1.400 . S
C8347 C8348 1.398 . S
C8347 C8353 1.491 . S
C8348 H8339 0.950 . S
C8348 C8347 1.398 . S
C8348 C8349 1.391 . S
C8349 H8337 0.950 . S
C8349 C8345 1.393 . S
C8349 C8348 1.391 . S
C8350 H8340 0.950 . S
C8350 C8351 1.386 . S
C8350 C8352 1.391 . S
C8351 C8350 1.386 . S
C8351 C8355 1.393 . S
C8352 H8341 0.950 . S
C8352 C8350 1.391 . S
C8352 C8353 1.400 . S
C8353 C8347 1.491 . S
C8353 C8352 1.400 . S
C8353 C8354 1.398 . S
C8354 H8342 0.950 . S
C8354 C8353 1.398 . S
C8354 C8355 1.391 . S
C8355 H8343 0.950 . S
C8355 C8351 1.393 . S
C8355 C8354 1.391 . S
H8356 C8364 0.950 . S
H8357 C8369 0.950 . S
H8358 C8366 0.950 . S
H8359 C8368 0.950 . S
H8360 C8370 0.950 . S
H8361 C8372 0.950 . S
H8362 C8374 0.950 . S
H8363 C8375 0.950 . S
C8364 H8356 0.950 . S
C8364 C8365 1.386 . S
C8364 C8366 1.391 . S
C8365 C8364 1.386 . S
C8365 C8369 1.393 . S
C8366 H8358 0.950 . S
C8366 C8364 1.391 . S
C8366 C8367 1.400 . S
C8367 C8366 1.400 . S
C8367 C8368 1.398 . S
C8367 C8373 1.491 . S
C8368 H8359 0.950 . S
C8368 C8367 1.398 . S
C8368 C8369 1.391 . S
C8369 H8357 0.950 . S
C8369 C8365 1.393 . S
C8369 C8368 1.391 . S
C8370 H8360 0.950 . S
C8370 C8371 1.386 . S
C8370 C8372 1.391 . S
C8371 C8370 1.386 . S
C8371 C8375 1.393 . S
C8372 H8361 0.950 . S
C8372 C8370 1.391 . S
C8372 C8373 1.400 . S
C8373 C8367 1.491 . S
C8373 C8372 1.400 . S
C8373 C8374 1.398 . S
C8374 H8362 0.950 . S
C8374 C8373 1.398 . S
C8374 C8375 1.391 . S
C8375 H8363 0.950 . S
C8375 C8371 1.393 . S
C8375 C8374 1.391 . S
H8376 C8384 0.950 . S
H8377 C8389 0.950 . S
H8378 C8386 0.950 . S
H8379 C8388 0.950 . S
H8380 C8390 0.950 . S
H8381 C8392 0.950 . S
H8382 C8394 0.950 . S
H8383 C8395 0.950 . S
C8384 H8376 0.950 . S
C8384 C8385 1.386 . S
C8384 C8386 1.391 . S
C8385 C8384 1.386 . S
C8385 C8389 1.393 . S
C8386 H8378 0.950 . S
C8386 C8384 1.391 . S
C8386 C8387 1.400 . S
C8387 C8386 1.400 . S
C8387 C8388 1.398 . S
C8387 C8393 1.491 . S
C8388 H8379 0.950 . S
C8388 C8387 1.398 . S
C8388 C8389 1.391 . S
C8389 H8377 0.950 . S
C8389 C8385 1.393 . S
C8389 C8388 1.391 . S
C8390 H8380 0.950 . S
C8390 C8391 1.386 . S
C8390 C8392 1.391 . S
C8391 C8390 1.386 . S
C8391 C8395 1.393 . S
C8392 H8381 0.950 . S
C8392 C8390 1.391 . S
C8392 C8393 1.400 . S
C8393 C8387 1.491 . S
C8393 C8392 1.400 . S
C8393 C8394 1.398 . S
C8394 H8382 0.950 . S
C8394 C8393 1.398 . S
C8394 C8395 1.391 . S
C8395 H8383 0.950 . S
C8395 C8391 1.393 . S
C8395 C8394 1.391 . S
H8396 C8404 0.950 . S
H8397 C8409 0.950 . S
H8398 C8406 0.950 . S
H8399 C8408 0.950 . S
H8400 C8410 0.950 . S
H8401 C8412 0.950 . S
H8402 C8414 0.950 . S
H8403 C8415 0.950 . S
C8404 H8396 0.950 . S
C8404 C8405 1.386 . S
C8404 C8406 1.391 . S
C8405 C8404 1.386 . S
C8405 C8409 1.393 . S
C8406 H8398 0.950 . S
C8406 C8404 1.391 . S
C8406 C8407 1.400 . S
C8407 C8406 1.400 . S
C8407 C8408 1.398 . S
C8407 C8413 1.491 . S
C8408 H8399 0.950 . S
C8408 C8407 1.398 . S
C8408 C8409 1.391 . S
C8409 H8397 0.950 . S
C8409 C8405 1.393 . S
C8409 C8408 1.391 . S
C8410 H8400 0.950 . S
C8410 C8411 1.386 . S
C8410 C8412 1.391 . S
C8411 C8410 1.386 . S
C8411 C8415 1.393 . S
C8412 H8401 0.950 . S
C8412 C8410 1.391 . S
C8412 C8413 1.400 . S
C8413 C8407 1.491 . S
C8413 C8412 1.400 . S
C8413 C8414 1.398 . S
C8414 H8402 0.950 . S
C8414 C8413 1.398 . S
C8414 C8415 1.391 . S
C8415 H8403 0.950 . S
C8415 C8411 1.393 . S
C8415 C8414 1.391 . S
H8416 C8424 0.950 . S
H8417 C8429 0.950 . S
H8418 C8426 0.950 . S
H8419 C8428 0.950 . S
H8420 C8430 0.950 . S
H8421 C8432 0.950 . S
H8422 C8434 0.950 . S
H8423 C8435 0.950 . S
C8424 H8416 0.950 . S
C8424 C8425 1.386 . S
C8424 C8426 1.391 . S
C8425 C8424 1.386 . S
C8425 C8429 1.393 . S
C8426 H8418 0.950 . S
C8426 C8424 1.391 . S
C8426 C8427 1.400 . S
C8427 C8426 1.400 . S
C8427 C8428 1.398 . S
C8427 C8433 1.491 . S
C8428 H8419 0.950 . S
C8428 C8427 1.398 . S
C8428 C8429 1.391 . S
C8429 H8417 0.950 . S
C8429 C8425 1.393 . S
C8429 C8428 1.391 . S
C8430 H8420 0.950 . S
C8430 C8431 1.386 . S
C8430 C8432 1.391 . S
C8431 C8430 1.386 . S
C8431 C8435 1.393 . S
C8432 H8421 0.950 . S
C8432 C8430 1.391 . S
C8432 C8433 1.400 . S
C8433 C8427 1.491 . S
C8433 C8432 1.400 . S
C8433 C8434 1.398 . S
C8434 H8422 0.950 . S
C8434 C8433 1.398 . S
C8434 C8435 1.391 . S
C8435 H8423 0.950 . S
C8435 C8431 1.393 . S
C8435 C8434 1.391 . S
H8436 C8444 0.950 . S
H8437 C8449 0.950 . S
H8438 C8446 0.950 . S
H8439 C8448 0.950 . S
H8440 C8450 0.950 . S
H8441 C8452 0.950 . S
H8442 C8454 0.950 . S
H8443 C8455 0.950 . S
C8444 H8436 0.950 . S
C8444 C8445 1.386 . S
C8444 C8446 1.391 . S
C8445 C8444 1.386 . S
C8445 C8449 1.393 . S
C8446 H8438 0.950 . S
C8446 C8444 1.391 . S
C8446 C8447 1.400 . S
C8447 C8446 1.400 . S
C8447 C8448 1.398 . S
C8447 C8453 1.491 . S
C8448 H8439 0.950 . S
C8448 C8447 1.398 . S
C8448 C8449 1.391 . S
C8449 H8437 0.950 . S
C8449 C8445 1.393 . S
C8449 C8448 1.391 . S
C8450 H8440 0.950 . S
C8450 C8451 1.386 . S
C8450 C8452 1.391 . S
C8451 C8450 1.386 . S
C8451 C8455 1.393 . S
C8452 H8441 0.950 . S
C8452 C8450 1.391 . S
C8452 C8453 1.400 . S
C8453 C8447 1.491 . S
C8453 C8452 1.400 . S
C8453 C8454 1.398 . S
C8454 H8442 0.950 . S
C8454 C8453 1.398 . S
C8454 C8455 1.391 . S
C8455 H8443 0.950 . S
C8455 C8451 1.393 . S
C8455 C8454 1.391 . S
H8456 C8464 0.950 . S
H8457 C8469 0.950 . S
H8458 C8466 0.950 . S
H8459 C8468 0.950 . S
H8460 C8470 0.950 . S
H8461 C8472 0.950 . S
H8462 C8474 0.950 . S
H8463 C8475 0.950 . S
C8464 H8456 0.950 . S
C8464 C8465 1.386 . S
C8464 C8466 1.391 . S
C8465 C8464 1.386 . S
C8465 C8469 1.393 . S
C8466 H8458 0.950 . S
C8466 C8464 1.391 . S
C8466 C8467 1.400 . S
C8467 C8466 1.400 . S
C8467 C8468 1.398 . S
C8467 C8473 1.491 . S
C8468 H8459 0.950 . S
C8468 C8467 1.398 . S
C8468 C8469 1.391 . S
C8469 H8457 0.950 . S
C8469 C8465 1.393 . S
C8469 C8468 1.391 . S
C8470 H8460 0.950 . S
C8470 C8471 1.386 . S
C8470 C8472 1.391 . S
C8471 C8470 1.386 . S
C8471 C8475 1.393 . S
C8472 H8461 0.950 . S
C8472 C8470 1.391 . S
C8472 C8473 1.400 . S
C8473 C8467 1.491 . S
C8473 C8472 1.400 . S
C8473 C8474 1.398 . S
C8474 H8462 0.950 . S
C8474 C8473 1.398 . S
C8474 C8475 1.391 . S
C8475 H8463 0.950 . S
C8475 C8471 1.393 . S
C8475 C8474 1.391 . S
H8476 C8484 0.950 . S
H8477 C8489 0.950 . S
H8478 C8486 0.950 . S
H8479 C8488 0.950 . S
H8480 C8490 0.950 . S
H8481 C8492 0.950 . S
H8482 C8494 0.950 . S
H8483 C8495 0.950 . S
C8484 H8476 0.950 . S
C8484 C8485 1.386 . S
C8484 C8486 1.391 . S
C8485 C8484 1.386 . S
C8485 C8489 1.393 . S
C8486 H8478 0.950 . S
C8486 C8484 1.391 . S
C8486 C8487 1.400 . S
C8487 C8486 1.400 . S
C8487 C8488 1.398 . S
C8487 C8493 1.491 . S
C8488 H8479 0.950 . S
C8488 C8487 1.398 . S
C8488 C8489 1.391 . S
C8489 H8477 0.950 . S
C8489 C8485 1.393 . S
C8489 C8488 1.391 . S
C8490 H8480 0.950 . S
C8490 C8491 1.386 . S
C8490 C8492 1.391 . S
C8491 C8490 1.386 . S
C8491 C8495 1.393 . S
C8492 H8481 0.950 . S
C8492 C8490 1.391 . S
C8492 C8493 1.400 . S
C8493 C8487 1.491 . S
C8493 C8492 1.400 . S
C8493 C8494 1.398 . S
C8494 H8482 0.950 . S
C8494 C8493 1.398 . S
C8494 C8495 1.391 . S
C8495 H8483 0.950 . S
C8495 C8491 1.393 . S
C8495 C8494 1.391 . S
H8496 C8504 0.950 . S
H8497 C8509 0.950 . S
H8498 C8506 0.950 . S
H8499 C8508 0.950 . S
H8500 C8510 0.950 . S
H8501 C8512 0.950 . S
H8502 C8514 0.950 . S
H8503 C8515 0.950 . S
C8504 H8496 0.950 . S
C8504 C8505 1.386 . S
C8504 C8506 1.391 . S
C8505 C8504 1.386 . S
C8505 C8509 1.393 . S
C8506 H8498 0.950 . S
C8506 C8504 1.391 . S
C8506 C8507 1.400 . S
C8507 C8506 1.400 . S
C8507 C8508 1.398 . S
C8507 C8513 1.491 . S
C8508 H8499 0.950 . S
C8508 C8507 1.398 . S
C8508 C8509 1.391 . S
C8509 H8497 0.950 . S
C8509 C8505 1.393 . S
C8509 C8508 1.391 . S
C8510 H8500 0.950 . S
C8510 C8511 1.386 . S
C8510 C8512 1.391 . S
C8511 C8510 1.386 . S
C8511 C8515 1.393 . S
C8512 H8501 0.950 . S
C8512 C8510 1.391 . S
C8512 C8513 1.400 . S
C8513 C8507 1.491 . S
C8513 C8512 1.400 . S
C8513 C8514 1.398 . S
C8514 H8502 0.950 . S
C8514 C8513 1.398 . S
C8514 C8515 1.391 . S
C8515 H8503 0.950 . S
C8515 C8511 1.393 . S
C8515 C8514 1.391 . S
H8516 C8524 0.950 . S
H8517 C8529 0.950 . S
H8518 C8526 0.950 . S
H8519 C8528 0.950 . S
H8520 C8530 0.950 . S
H8521 C8532 0.950 . S
H8522 C8534 0.950 . S
H8523 C8535 0.950 . S
C8524 H8516 0.950 . S
C8524 C8525 1.386 . S
C8524 C8526 1.391 . S
C8525 C8524 1.386 . S
C8525 C8529 1.393 . S
C8526 H8518 0.950 . S
C8526 C8524 1.391 . S
C8526 C8527 1.400 . S
C8527 C8526 1.400 . S
C8527 C8528 1.398 . S
C8527 C8533 1.491 . S
C8528 H8519 0.950 . S
C8528 C8527 1.398 . S
C8528 C8529 1.391 . S
C8529 H8517 0.950 . S
C8529 C8525 1.393 . S
C8529 C8528 1.391 . S
C8530 H8520 0.950 . S
C8530 C8531 1.386 . S
C8530 C8532 1.391 . S
C8531 C8530 1.386 . S
C8531 C8535 1.393 . S
C8532 H8521 0.950 . S
C8532 C8530 1.391 . S
C8532 C8533 1.400 . S
C8533 C8527 1.491 . S
C8533 C8532 1.400 . S
C8533 C8534 1.398 . S
C8534 H8522 0.950 . S
C8534 C8533 1.398 . S
C8534 C8535 1.391 . S
C8535 H8523 0.950 . S
C8535 C8531 1.393 . S
C8535 C8534 1.391 . S
H8536 C8544 0.950 . S
H8537 C8549 0.950 . S
H8538 C8546 0.950 . S
H8539 C8548 0.950 . S
H8540 C8550 0.950 . S
H8541 C8552 0.950 . S
H8542 C8554 0.950 . S
H8543 C8555 0.950 . S
C8544 H8536 0.950 . S
C8544 C8545 1.386 . S
C8544 C8546 1.391 . S
C8545 C8544 1.386 . S
C8545 C8549 1.393 . S
C8546 H8538 0.950 . S
C8546 C8544 1.391 . S
C8546 C8547 1.400 . S
C8547 C8546 1.400 . S
C8547 C8548 1.398 . S
C8547 C8553 1.491 . S
C8548 H8539 0.950 . S
C8548 C8547 1.398 . S
C8548 C8549 1.391 . S
C8549 H8537 0.950 . S
C8549 C8545 1.393 . S
C8549 C8548 1.391 . S
C8550 H8540 0.950 . S
C8550 C8551 1.386 . S
C8550 C8552 1.391 . S
C8551 C8550 1.386 . S
C8551 C8555 1.393 . S
C8552 H8541 0.950 . S
C8552 C8550 1.391 . S
C8552 C8553 1.400 . S
C8553 C8547 1.491 . S
C8553 C8552 1.400 . S
C8553 C8554 1.398 . S
C8554 H8542 0.950 . S
C8554 C8553 1.398 . S
C8554 C8555 1.391 . S
C8555 H8543 0.950 . S
C8555 C8551 1.393 . S
C8555 C8554 1.391 . S
H8556 C8564 0.950 . S
H8557 C8569 0.950 . S
H8558 C8566 0.950 . S
H8559 C8568 0.950 . S
H8560 C8570 0.950 . S
H8561 C8572 0.950 . S
H8562 C8574 0.950 . S
H8563 C8575 0.950 . S
C8564 H8556 0.950 . S
C8564 C8565 1.386 . S
C8564 C8566 1.391 . S
C8565 C8564 1.386 . S
C8565 C8569 1.393 . S
C8566 H8558 0.950 . S
C8566 C8564 1.391 . S
C8566 C8567 1.400 . S
C8567 C8566 1.400 . S
C8567 C8568 1.398 . S
C8567 C8573 1.491 . S
C8568 H8559 0.950 . S
C8568 C8567 1.398 . S
C8568 C8569 1.391 . S
C8569 H8557 0.950 . S
C8569 C8565 1.393 . S
C8569 C8568 1.391 . S
C8570 H8560 0.950 . S
C8570 C8571 1.386 . S
C8570 C8572 1.391 . S
C8571 C8570 1.386 . S
C8571 C8575 1.393 . S
C8572 H8561 0.950 . S
C8572 C8570 1.391 . S
C8572 C8573 1.400 . S
C8573 C8567 1.491 . S
C8573 C8572 1.400 . S
C8573 C8574 1.398 . S
C8574 H8562 0.950 . S
C8574 C8573 1.398 . S
C8574 C8575 1.391 . S
C8575 H8563 0.950 . S
C8575 C8571 1.393 . S
C8575 C8574 1.391 . S
H8576 C8584 0.950 . S
H8577 C8589 0.950 . S
H8578 C8586 0.950 . S
H8579 C8588 0.950 . S
H8580 C8590 0.950 . S
H8581 C8592 0.950 . S
H8582 C8594 0.950 . S
H8583 C8595 0.950 . S
C8584 H8576 0.950 . S
C8584 C8585 1.386 . S
C8584 C8586 1.391 . S
C8585 C8584 1.386 . S
C8585 C8589 1.393 . S
C8586 H8578 0.950 . S
C8586 C8584 1.391 . S
C8586 C8587 1.400 . S
C8587 C8586 1.400 . S
C8587 C8588 1.398 . S
C8587 C8593 1.491 . S
C8588 H8579 0.950 . S
C8588 C8587 1.398 . S
C8588 C8589 1.391 . S
C8589 H8577 0.950 . S
C8589 C8585 1.393 . S
C8589 C8588 1.391 . S
C8590 H8580 0.950 . S
C8590 C8591 1.386 . S
C8590 C8592 1.391 . S
C8591 C8590 1.386 . S
C8591 C8595 1.393 . S
C8592 H8581 0.950 . S
C8592 C8590 1.391 . S
C8592 C8593 1.400 . S
C8593 C8587 1.491 . S
C8593 C8592 1.400 . S
C8593 C8594 1.398 . S
C8594 H8582 0.950 . S
C8594 C8593 1.398 . S
C8594 C8595 1.391 . S
C8595 H8583 0.950 . S
C8595 C8591 1.393 . S
C8595 C8594 1.391 . S
H8596 C8604 0.950 . S
H8597 C8609 0.950 . S
H8598 C8606 0.950 . S
H8599 C8608 0.950 . S
H8600 C8610 0.950 . S
H8601 C8612 0.950 . S
H8602 C8614 0.950 . S
H8603 C8615 0.950 . S
C8604 H8596 0.950 . S
C8604 C8605 1.386 . S
C8604 C8606 1.391 . S
C8605 C8604 1.386 . S
C8605 C8609 1.393 . S
C8606 H8598 0.950 . S
C8606 C8604 1.391 . S
C8606 C8607 1.400 . S
C8607 C8606 1.400 . S
C8607 C8608 1.398 . S
C8607 C8613 1.491 . S
C8608 H8599 0.950 . S
C8608 C8607 1.398 . S
C8608 C8609 1.391 . S
C8609 H8597 0.950 . S
C8609 C8605 1.393 . S
C8609 C8608 1.391 . S
C8610 H8600 0.950 . S
C8610 C8611 1.386 . S
C8610 C8612 1.391 . S
C8611 C8610 1.386 . S
C8611 C8615 1.393 . S
C8612 H8601 0.950 . S
C8612 C8610 1.391 . S
C8612 C8613 1.400 . S
C8613 C8607 1.491 . S
C8613 C8612 1.400 . S
C8613 C8614 1.398 . S
C8614 H8602 0.950 . S
C8614 C8613 1.398 . S
C8614 C8615 1.391 . S
C8615 H8603 0.950 . S
C8615 C8611 1.393 . S
C8615 C8614 1.391 . S
H8616 C8624 0.950 . S
H8617 C8629 0.950 . S
H8618 C8626 0.950 . S
H8619 C8628 0.950 . S
H8620 C8630 0.950 . S
H8621 C8632 0.950 . S
H8622 C8634 0.950 . S
H8623 C8635 0.950 . S
C8624 H8616 0.950 . S
C8624 C8625 1.386 . S
C8624 C8626 1.391 . S
C8625 C8624 1.386 . S
C8625 C8629 1.393 . S
C8626 H8618 0.950 . S
C8626 C8624 1.391 . S
C8626 C8627 1.400 . S
C8627 C8626 1.400 . S
C8627 C8628 1.398 . S
C8627 C8633 1.491 . S
C8628 H8619 0.950 . S
C8628 C8627 1.398 . S
C8628 C8629 1.391 . S
C8629 H8617 0.950 . S
C8629 C8625 1.393 . S
C8629 C8628 1.391 . S
C8630 H8620 0.950 . S
C8630 C8631 1.386 . S
C8630 C8632 1.391 . S
C8631 C8630 1.386 . S
C8631 C8635 1.393 . S
C8632 H8621 0.950 . S
C8632 C8630 1.391 . S
C8632 C8633 1.400 . S
C8633 C8627 1.491 . S
C8633 C8632 1.400 . S
C8633 C8634 1.398 . S
C8634 H8622 0.950 . S
C8634 C8633 1.398 . S
C8634 C8635 1.391 . S
C8635 H8623 0.950 . S
C8635 C8631 1.393 . S
C8635 C8634 1.391 . S
H8636 C8644 0.950 . S
H8637 C8649 0.950 . S
H8638 C8646 0.950 . S
H8639 C8648 0.950 . S
H8640 C8650 0.950 . S
H8641 C8652 0.950 . S
H8642 C8654 0.950 . S
H8643 C8655 0.950 . S
C8644 H8636 0.950 . S
C8644 C8645 1.386 . S
C8644 C8646 1.391 . S
C8645 C8644 1.386 . S
C8645 C8649 1.393 . S
C8646 H8638 0.950 . S
C8646 C8644 1.391 . S
C8646 C8647 1.400 . S
C8647 C8646 1.400 . S
C8647 C8648 1.398 . S
C8647 C8653 1.491 . S
C8648 H8639 0.950 . S
C8648 C8647 1.398 . S
C8648 C8649 1.391 . S
C8649 H8637 0.950 . S
C8649 C8645 1.393 . S
C8649 C8648 1.391 . S
C8650 H8640 0.950 . S
C8650 C8651 1.386 . S
C8650 C8652 1.391 . S
C8651 C8650 1.386 . S
C8651 C8655 1.393 . S
C8652 H8641 0.950 . S
C8652 C8650 1.391 . S
C8652 C8653 1.400 . S
C8653 C8647 1.491 . S
C8653 C8652 1.400 . S
C8653 C8654 1.398 . S
C8654 H8642 0.950 . S
C8654 C8653 1.398 . S
C8654 C8655 1.391 . S
C8655 H8643 0.950 . S
C8655 C8651 1.393 . S
C8655 C8654 1.391 . S
H8656 C8664 0.950 . S
H8657 C8669 0.950 . S
H8658 C8666 0.950 . S
H8659 C8668 0.950 . S
H8660 C8670 0.950 . S
H8661 C8672 0.950 . S
H8662 C8674 0.950 . S
H8663 C8675 0.950 . S
C8664 H8656 0.950 . S
C8664 C8665 1.386 . S
C8664 C8666 1.391 . S
C8665 C8664 1.386 . S
C8665 C8669 1.393 . S
C8666 H8658 0.950 . S
C8666 C8664 1.391 . S
C8666 C8667 1.400 . S
C8667 C8666 1.400 . S
C8667 C8668 1.398 . S
C8667 C8673 1.491 . S
C8668 H8659 0.950 . S
C8668 C8667 1.398 . S
C8668 C8669 1.391 . S
C8669 H8657 0.950 . S
C8669 C8665 1.393 . S
C8669 C8668 1.391 . S
C8670 H8660 0.950 . S
C8670 C8671 1.386 . S
C8670 C8672 1.391 . S
C8671 C8670 1.386 . S
C8671 C8675 1.393 . S
C8672 H8661 0.950 . S
C8672 C8670 1.391 . S
C8672 C8673 1.400 . S
C8673 C8667 1.491 . S
C8673 C8672 1.400 . S
C8673 C8674 1.398 . S
C8674 H8662 0.950 . S
C8674 C8673 1.398 . S
C8674 C8675 1.391 . S
C8675 H8663 0.950 . S
C8675 C8671 1.393 . S
C8675 C8674 1.391 . S
H8676 C8684 0.950 . S
H8677 C8689 0.950 . S
H8678 C8686 0.950 . S
H8679 C8688 0.950 . S
H8680 C8690 0.950 . S
H8681 C8692 0.950 . S
H8682 C8694 0.950 . S
H8683 C8695 0.950 . S
C8684 H8676 0.950 . S
C8684 C8685 1.386 . S
C8684 C8686 1.391 . S
C8685 C8684 1.386 . S
C8685 C8689 1.393 . S
C8686 H8678 0.950 . S
C8686 C8684 1.391 . S
C8686 C8687 1.400 . S
C8687 C8686 1.400 . S
C8687 C8688 1.398 . S
C8687 C8693 1.491 . S
C8688 H8679 0.950 . S
C8688 C8687 1.398 . S
C8688 C8689 1.391 . S
C8689 H8677 0.950 . S
C8689 C8685 1.393 . S
C8689 C8688 1.391 . S
C8690 H8680 0.950 . S
C8690 C8691 1.386 . S
C8690 C8692 1.391 . S
C8691 C8690 1.386 . S
C8691 C8695 1.393 . S
C8692 H8681 0.950 . S
C8692 C8690 1.391 . S
C8692 C8693 1.400 . S
C8693 C8687 1.491 . S
C8693 C8692 1.400 . S
C8693 C8694 1.398 . S
C8694 H8682 0.950 . S
C8694 C8693 1.398 . S
C8694 C8695 1.391 . S
C8695 H8683 0.950 . S
C8695 C8691 1.393 . S
C8695 C8694 1.391 . S
H8696 C8704 0.950 . S
H8697 C8709 0.950 . S
H8698 C8706 0.950 . S
H8699 C8708 0.950 . S
H8700 C8710 0.950 . S
H8701 C8712 0.950 . S
H8702 C8714 0.950 . S
H8703 C8715 0.950 . S
C8704 H8696 0.950 . S
C8704 C8705 1.386 . S
C8704 C8706 1.391 . S
C8705 C8704 1.386 . S
C8705 C8709 1.393 . S
C8706 H8698 0.950 . S
C8706 C8704 1.391 . S
C8706 C8707 1.400 . S
C8707 C8706 1.400 . S
C8707 C8708 1.398 . S
C8707 C8713 1.491 . S
C8708 H8699 0.950 . S
C8708 C8707 1.398 . S
C8708 C8709 1.391 . S
C8709 H8697 0.950 . S
C8709 C8705 1.393 . S
C8709 C8708 1.391 . S
C8710 H8700 0.950 . S
C8710 C8711 1.386 . S
C8710 C8712 1.391 . S
C8711 C8710 1.386 . S
C8711 C8715 1.393 . S
C8712 H8701 0.950 . S
C8712 C8710 1.391 . S
C8712 C8713 1.400 . S
C8713 C8707 1.491 . S
C8713 C8712 1.400 . S
C8713 C8714 1.398 . S
C8714 H8702 0.950 . S
C8714 C8713 1.398 . S
C8714 C8715 1.391 . S
C8715 H8703 0.950 . S
C8715 C8711 1.393 . S
C8715 C8714 1.391 . S
H8716 C8724 0.950 . S
H8717 C8729 0.950 . S
H8718 C8726 0.950 . S
H8719 C8728 0.950 . S
H8720 C8730 0.950 . S
H8721 C8732 0.950 . S
H8722 C8734 0.950 . S
H8723 C8735 0.950 . S
C8724 H8716 0.950 . S
C8724 C8725 1.386 . S
C8724 C8726 1.391 . S
C8725 C8724 1.386 . S
C8725 C8729 1.393 . S
C8726 H8718 0.950 . S
C8726 C8724 1.391 . S
C8726 C8727 1.400 . S
C8727 C8726 1.400 . S
C8727 C8728 1.398 . S
C8727 C8733 1.491 . S
C8728 H8719 0.950 . S
C8728 C8727 1.398 . S
C8728 C8729 1.391 . S
C8729 H8717 0.950 . S
C8729 C8725 1.393 . S
C8729 C8728 1.391 . S
C8730 H8720 0.950 . S
C8730 C8731 1.386 . S
C8730 C8732 1.391 . S
C8731 C8730 1.386 . S
C8731 C8735 1.393 . S
C8732 H8721 0.950 . S
C8732 C8730 1.391 . S
C8732 C8733 1.400 . S
C8733 C8727 1.491 . S
C8733 C8732 1.400 . S
C8733 C8734 1.398 . S
C8734 H8722 0.950 . S
C8734 C8733 1.398 . S
C8734 C8735 1.391 . S
C8735 H8723 0.950 . S
C8735 C8731 1.393 . S
C8735 C8734 1.391 . S
H8736 C8744 0.950 . S
H8737 C8749 0.950 . S
H8738 C8746 0.950 . S
H8739 C8748 0.950 . S
H8740 C8750 0.950 . S
H8741 C8752 0.950 . S
H8742 C8754 0.950 . S
H8743 C8755 0.950 . S
C8744 H8736 0.950 . S
C8744 C8745 1.386 . S
C8744 C8746 1.391 . S
C8745 C8744 1.386 . S
C8745 C8749 1.393 . S
C8746 H8738 0.950 . S
C8746 C8744 1.391 . S
C8746 C8747 1.400 . S
C8747 C8746 1.400 . S
C8747 C8748 1.398 . S
C8747 C8753 1.491 . S
C8748 H8739 0.950 . S
C8748 C8747 1.398 . S
C8748 C8749 1.391 . S
C8749 H8737 0.950 . S
C8749 C8745 1.393 . S
C8749 C8748 1.391 . S
C8750 H8740 0.950 . S
C8750 C8751 1.386 . S
C8750 C8752 1.391 . S
C8751 C8750 1.386 . S
C8751 C8755 1.393 . S
C8752 H8741 0.950 . S
C8752 C8750 1.391 . S
C8752 C8753 1.400 . S
C8753 C8747 1.491 . S
C8753 C8752 1.400 . S
C8753 C8754 1.398 . S
C8754 H8742 0.950 . S
C8754 C8753 1.398 . S
C8754 C8755 1.391 . S
C8755 H8743 0.950 . S
C8755 C8751 1.393 . S
C8755 C8754 1.391 . S
H8756 C8764 0.950 . S
H8757 C8769 0.950 . S
H8758 C8766 0.950 . S
H8759 C8768 0.950 . S
H8760 C8770 0.950 . S
H8761 C8772 0.950 . S
H8762 C8774 0.950 . S
H8763 C8775 0.950 . S
C8764 H8756 0.950 . S
C8764 C8765 1.386 . S
C8764 C8766 1.391 . S
C8765 C8764 1.386 . S
C8765 C8769 1.393 . S
C8766 H8758 0.950 . S
C8766 C8764 1.391 . S
C8766 C8767 1.400 . S
C8767 C8766 1.400 . S
C8767 C8768 1.398 . S
C8767 C8773 1.491 . S
C8768 H8759 0.950 . S
C8768 C8767 1.398 . S
C8768 C8769 1.391 . S
C8769 H8757 0.950 . S
C8769 C8765 1.393 . S
C8769 C8768 1.391 . S
C8770 H8760 0.950 . S
C8770 C8771 1.386 . S
C8770 C8772 1.391 . S
C8771 C8770 1.386 . S
C8771 C8775 1.393 . S
C8772 H8761 0.950 . S
C8772 C8770 1.391 . S
C8772 C8773 1.400 . S
C8773 C8767 1.491 . S
C8773 C8772 1.400 . S
C8773 C8774 1.398 . S
C8774 H8762 0.950 . S
C8774 C8773 1.398 . S
C8774 C8775 1.391 . S
C8775 H8763 0.950 . S
C8775 C8771 1.393 . S
C8775 C8774 1.391 . S
H8776 C8784 0.950 . S
H8777 C8789 0.950 . S
H8778 C8786 0.950 . S
H8779 C8788 0.950 . S
H8780 C8790 0.950 . S
H8781 C8792 0.950 . S
H8782 C8794 0.950 . S
H8783 C8795 0.950 . S
C8784 H8776 0.950 . S
C8784 C8785 1.386 . S
C8784 C8786 1.391 . S
C8785 C8784 1.386 . S
C8785 C8789 1.393 . S
C8786 H8778 0.950 . S
C8786 C8784 1.391 . S
C8786 C8787 1.400 . S
C8787 C8786 1.400 . S
C8787 C8788 1.398 . S
C8787 C8793 1.491 . S
C8788 H8779 0.950 . S
C8788 C8787 1.398 . S
C8788 C8789 1.391 . S
C8789 H8777 0.950 . S
C8789 C8785 1.393 . S
C8789 C8788 1.391 . S
C8790 H8780 0.950 . S
C8790 C8791 1.386 . S
C8790 C8792 1.391 . S
C8791 C8790 1.386 . S
C8791 C8795 1.393 . S
C8792 H8781 0.950 . S
C8792 C8790 1.391 . S
C8792 C8793 1.400 . S
C8793 C8787 1.491 . S
C8793 C8792 1.400 . S
C8793 C8794 1.398 . S
C8794 H8782 0.950 . S
C8794 C8793 1.398 . S
C8794 C8795 1.391 . S
C8795 H8783 0.950 . S
C8795 C8791 1.393 . S
C8795 C8794 1.391 . S
H8796 C8804 0.950 . S
H8797 C8809 0.950 . S
H8798 C8806 0.950 . S
H8799 C8808 0.950 . S
H8800 C8810 0.950 . S
H8801 C8812 0.950 . S
H8802 C8814 0.950 . S
H8803 C8815 0.950 . S
C8804 H8796 0.950 . S
C8804 C8805 1.386 . S
C8804 C8806 1.391 . S
C8805 C8804 1.386 . S
C8805 C8809 1.393 . S
C8806 H8798 0.950 . S
C8806 C8804 1.391 . S
C8806 C8807 1.400 . S
C8807 C8806 1.400 . S
C8807 C8808 1.398 . S
C8807 C8813 1.491 . S
C8808 H8799 0.950 . S
C8808 C8807 1.398 . S
C8808 C8809 1.391 . S
C8809 H8797 0.950 . S
C8809 C8805 1.393 . S
C8809 C8808 1.391 . S
C8810 H8800 0.950 . S
C8810 C8811 1.386 . S
C8810 C8812 1.391 . S
C8811 C8810 1.386 . S
C8811 C8815 1.393 . S
C8812 H8801 0.950 . S
C8812 C8810 1.391 . S
C8812 C8813 1.400 . S
C8813 C8807 1.491 . S
C8813 C8812 1.400 . S
C8813 C8814 1.398 . S
C8814 H8802 0.950 . S
C8814 C8813 1.398 . S
C8814 C8815 1.391 . S
C8815 H8803 0.950 . S
C8815 C8811 1.393 . S
C8815 C8814 1.391 . S
H8816 C8824 0.950 . S
H8817 C8829 0.950 . S
H8818 C8826 0.950 . S
H8819 C8828 0.950 . S
H8820 C8830 0.950 . S
H8821 C8832 0.950 . S
H8822 C8834 0.950 . S
H8823 C8835 0.950 . S
C8824 H8816 0.950 . S
C8824 C8825 1.386 . S
C8824 C8826 1.391 . S
C8825 C8824 1.386 . S
C8825 C8829 1.393 . S
C8826 H8818 0.950 . S
C8826 C8824 1.391 . S
C8826 C8827 1.400 . S
C8827 C8826 1.400 . S
C8827 C8828 1.398 . S
C8827 C8833 1.491 . S
C8828 H8819 0.950 . S
C8828 C8827 1.398 . S
C8828 C8829 1.391 . S
C8829 H8817 0.950 . S
C8829 C8825 1.393 . S
C8829 C8828 1.391 . S
C8830 H8820 0.950 . S
C8830 C8831 1.386 . S
C8830 C8832 1.391 . S
C8831 C8830 1.386 . S
C8831 C8835 1.393 . S
C8832 H8821 0.950 . S
C8832 C8830 1.391 . S
C8832 C8833 1.400 . S
C8833 C8827 1.491 . S
C8833 C8832 1.400 . S
C8833 C8834 1.398 . S
C8834 H8822 0.950 . S
C8834 C8833 1.398 . S
C8834 C8835 1.391 . S
C8835 H8823 0.950 . S
C8835 C8831 1.393 . S
C8835 C8834 1.391 . S
H8836 C8844 0.950 . S
H8837 C8849 0.950 . S
H8838 C8846 0.950 . S
H8839 C8848 0.950 . S
H8840 C8850 0.950 . S
H8841 C8852 0.950 . S
H8842 C8854 0.950 . S
H8843 C8855 0.950 . S
C8844 H8836 0.950 . S
C8844 C8845 1.386 . S
C8844 C8846 1.391 . S
C8845 C8844 1.386 . S
C8845 C8849 1.393 . S
C8846 H8838 0.950 . S
C8846 C8844 1.391 . S
C8846 C8847 1.400 . S
C8847 C8846 1.400 . S
C8847 C8848 1.398 . S
C8847 C8853 1.491 . S
C8848 H8839 0.950 . S
C8848 C8847 1.398 . S
C8848 C8849 1.391 . S
C8849 H8837 0.950 . S
C8849 C8845 1.393 . S
C8849 C8848 1.391 . S
C8850 H8840 0.950 . S
C8850 C8851 1.386 . S
C8850 C8852 1.391 . S
C8851 C8850 1.386 . S
C8851 C8855 1.393 . S
C8852 H8841 0.950 . S
C8852 C8850 1.391 . S
C8852 C8853 1.400 . S
C8853 C8847 1.491 . S
C8853 C8852 1.400 . S
C8853 C8854 1.398 . S
C8854 H8842 0.950 . S
C8854 C8853 1.398 . S
C8854 C8855 1.391 . S
C8855 H8843 0.950 . S
C8855 C8851 1.393 . S
C8855 C8854 1.391 . S
H8856 C8864 0.950 . S
H8857 C8869 0.950 . S
H8858 C8866 0.950 . S
H8859 C8868 0.950 . S
H8860 C8870 0.950 . S
H8861 C8872 0.950 . S
H8862 C8874 0.950 . S
H8863 C8875 0.950 . S
C8864 H8856 0.950 . S
C8864 C8865 1.386 . S
C8864 C8866 1.391 . S
C8865 C8864 1.386 . S
C8865 C8869 1.393 . S
C8866 H8858 0.950 . S
C8866 C8864 1.391 . S
C8866 C8867 1.400 . S
C8867 C8866 1.400 . S
C8867 C8868 1.398 . S
C8867 C8873 1.491 . S
C8868 H8859 0.950 . S
C8868 C8867 1.398 . S
C8868 C8869 1.391 . S
C8869 H8857 0.950 . S
C8869 C8865 1.393 . S
C8869 C8868 1.391 . S
C8870 H8860 0.950 . S
C8870 C8871 1.386 . S
C8870 C8872 1.391 . S
C8871 C8870 1.386 . S
C8871 C8875 1.393 . S
C8872 H8861 0.950 . S
C8872 C8870 1.391 . S
C8872 C8873 1.400 . S
C8873 C8867 1.491 . S
C8873 C8872 1.400 . S
C8873 C8874 1.398 . S
C8874 H8862 0.950 . S
C8874 C8873 1.398 . S
C8874 C8875 1.391 . S
C8875 H8863 0.950 . S
C8875 C8871 1.393 . S
C8875 C8874 1.391 . S
H8876 C8884 0.950 . S
H8877 C8889 0.950 . S
H8878 C8886 0.950 . S
H8879 C8888 0.950 . S
H8880 C8890 0.950 . S
H8881 C8892 0.950 . S
H8882 C8894 0.950 . S
H8883 C8895 0.950 . S
C8884 H8876 0.950 . S
C8884 C8885 1.386 . S
C8884 C8886 1.391 . S
C8885 C8884 1.386 . S
C8885 C8889 1.393 . S
C8886 H8878 0.950 . S
C8886 C8884 1.391 . S
C8886 C8887 1.400 . S
C8887 C8886 1.400 . S
C8887 C8888 1.398 . S
C8887 C8893 1.491 . S
C8888 H8879 0.950 . S
C8888 C8887 1.398 . S
C8888 C8889 1.391 . S
C8889 H8877 0.950 . S
C8889 C8885 1.393 . S
C8889 C8888 1.391 . S
C8890 H8880 0.950 . S
C8890 C8891 1.386 . S
C8890 C8892 1.391 . S
C8891 C8890 1.386 . S
C8891 C8895 1.393 . S
C8892 H8881 0.950 . S
C8892 C8890 1.391 . S
C8892 C8893 1.400 . S
C8893 C8887 1.491 . S
C8893 C8892 1.400 . S
C8893 C8894 1.398 . S
C8894 H8882 0.950 . S
C8894 C8893 1.398 . S
C8894 C8895 1.391 . S
C8895 H8883 0.950 . S
C8895 C8891 1.393 . S
C8895 C8894 1.391 . S
H8896 C8904 0.950 . S
H8897 C8909 0.950 . S
H8898 C8906 0.950 . S
H8899 C8908 0.950 . S
H8900 C8910 0.950 . S
H8901 C8912 0.950 . S
H8902 C8914 0.950 . S
H8903 C8915 0.950 . S
C8904 H8896 0.950 . S
C8904 C8905 1.386 . S
C8904 C8906 1.391 . S
C8905 C8904 1.386 . S
C8905 C8909 1.393 . S
C8906 H8898 0.950 . S
C8906 C8904 1.391 . S
C8906 C8907 1.400 . S
C8907 C8906 1.400 . S
C8907 C8908 1.398 . S
C8907 C8913 1.491 . S
C8908 H8899 0.950 . S
C8908 C8907 1.398 . S
C8908 C8909 1.391 . S
C8909 H8897 0.950 . S
C8909 C8905 1.393 . S
C8909 C8908 1.391 . S
C8910 H8900 0.950 . S
C8910 C8911 1.386 . S
C8910 C8912 1.391 . S
C8911 C8910 1.386 . S
C8911 C8915 1.393 . S
C8912 H8901 0.950 . S
C8912 C8910 1.391 . S
C8912 C8913 1.400 . S
C8913 C8907 1.491 . S
C8913 C8912 1.400 . S
C8913 C8914 1.398 . S
C8914 H8902 0.950 . S
C8914 C8913 1.398 . S
C8914 C8915 1.391 . S
C8915 H8903 0.950 . S
C8915 C8911 1.393 . S
C8915 C8914 1.391 . S
H8916 C8924 0.950 . S
H8917 C8929 0.950 . S
H8918 C8926 0.950 . S
H8919 C8928 0.950 . S
H8920 C8930 0.950 . S
H8921 C8932 0.950 . S
H8922 C8934 0.950 . S
H8923 C8935 0.950 . S
C8924 H8916 0.950 . S
C8924 C8925 1.386 . S
C8924 C8926 1.391 . S
C8925 C8924 1.386 . S
C8925 C8929 1.393 . S
C8926 H8918 0.950 . S
C8926 C8924 1.391 . S
C8926 C8927 1.400 . S
C8927 C8926 1.400 . S
C8927 C8928 1.398 . S
C8927 C8933 1.491 . S
C8928 H8919 0.950 . S
C8928 C8927 1.398 . S
C8928 C8929 1.391 . S
C8929 H8917 0.950 . S
C8929 C8925 1.393 . S
C8929 C8928 1.391 . S
C8930 H8920 0.950 . S
C8930 C8931 1.386 . S
C8930 C8932 1.391 . S
C8931 C8930 1.386 . S
C8931 C8935 1.393 . S
C8932 H8921 0.950 . S
C8932 C8930 1.391 . S
C8932 C8933 1.400 . S
C8933 C8927 1.491 . S
C8933 C8932 1.400 . S
C8933 C8934 1.398 . S
C8934 H8922 0.950 . S
C8934 C8933 1.398 . S
C8934 C8935 1.391 . S
C8935 H8923 0.950 . S
C8935 C8931 1.393 . S
C8935 C8934 1.391 . S
H8936 C8944 0.950 . S
H8937 C8949 0.950 . S
H8938 C8946 0.950 . S
H8939 C8948 0.950 . S
H8940 C8950 0.950 . S
H8941 C8952 0.950 . S
H8942 C8954 0.950 . S
H8943 C8955 0.950 . S
C8944 H8936 0.950 . S
C8944 C8945 1.386 . S
C8944 C8946 1.391 . S
C8945 C8944 1.386 . S
C8945 C8949 1.393 . S
C8946 H8938 0.950 . S
C8946 C8944 1.391 . S
C8946 C8947 1.400 . S
C8947 C8946 1.400 . S
C8947 C8948 1.398 . S
C8947 C8953 1.491 . S
C8948 H8939 0.950 . S
C8948 C8947 1.398 . S
C8948 C8949 1.391 . S
C8949 H8937 0.950 . S
C8949 C8945 1.393 . S
C8949 C8948 1.391 . S
C8950 H8940 0.950 . S
C8950 C8951 1.386 . S
C8950 C8952 1.391 . S
C8951 C8950 1.386 . S
C8951 C8955 1.393 . S
C8952 H8941 0.950 . S
C8952 C8950 1.391 . S
C8952 C8953 1.400 . S
C8953 C8947 1.491 . S
C8953 C8952 1.400 . S
C8953 C8954 1.398 . S
C8954 H8942 0.950 . S
C8954 C8953 1.398 . S
C8954 C8955 1.391 . S
C8955 H8943 0.950 . S
C8955 C8951 1.393 . S
C8955 C8954 1.391 . S
H8956 C8964 0.950 . S
H8957 C8969 0.950 . S
H8958 C8966 0.950 . S
H8959 C8968 0.950 . S
H8960 C8970 0.950 . S
H8961 C8972 0.950 . S
H8962 C8974 0.950 . S
H8963 C8975 0.950 . S
C8964 H8956 0.950 . S
C8964 C8965 1.386 . S
C8964 C8966 1.391 . S
C8965 C8964 1.386 . S
C8965 C8969 1.393 . S
C8966 H8958 0.950 . S
C8966 C8964 1.391 . S
C8966 C8967 1.400 . S
C8967 C8966 1.400 . S
C8967 C8968 1.398 . S
C8967 C8973 1.491 . S
C8968 H8959 0.950 . S
C8968 C8967 1.398 . S
C8968 C8969 1.391 . S
C8969 H8957 0.950 . S
C8969 C8965 1.393 . S
C8969 C8968 1.391 . S
C8970 H8960 0.950 . S
C8970 C8971 1.386 . S
C8970 C8972 1.391 . S
C8971 C8970 1.386 . S
C8971 C8975 1.393 . S
C8972 H8961 0.950 . S
C8972 C8970 1.391 . S
C8972 C8973 1.400 . S
C8973 C8967 1.491 . S
C8973 C8972 1.400 . S
C8973 C8974 1.398 . S
C8974 H8962 0.950 . S
C8974 C8973 1.398 . S
C8974 C8975 1.391 . S
C8975 H8963 0.950 . S
C8975 C8971 1.393 . S
C8975 C8974 1.391 . S
H8976 C8984 0.950 . S
H8977 C8989 0.950 . S
H8978 C8986 0.950 . S
H8979 C8988 0.950 . S
H8980 C8990 0.950 . S
H8981 C8992 0.950 . S
H8982 C8994 0.950 . S
H8983 C8995 0.950 . S
C8984 H8976 0.950 . S
C8984 C8985 1.386 . S
C8984 C8986 1.391 . S
C8985 C8984 1.386 . S
C8985 C8989 1.393 . S
C8986 H8978 0.950 . S
C8986 C8984 1.391 . S
C8986 C8987 1.400 . S
C8987 C8986 1.400 . S
C8987 C8988 1.398 . S
C8987 C8993 1.491 . S
C8988 H8979 0.950 . S
C8988 C8987 1.398 . S
C8988 C8989 1.391 . S
C8989 H8977 0.950 . S
C8989 C8985 1.393 . S
C8989 C8988 1.391 . S
C8990 H8980 0.950 . S
C8990 C8991 1.386 . S
C8990 C8992 1.391 . S
C8991 C8990 1.386 . S
C8991 C8995 1.393 . S
C8992 H8981 0.950 . S
C8992 C8990 1.391 . S
C8992 C8993 1.400 . S
C8993 C8987 1.491 . S
C8993 C8992 1.400 . S
C8993 C8994 1.398 . S
C8994 H8982 0.950 . S
C8994 C8993 1.398 . S
C8994 C8995 1.391 . S
C8995 H8983 0.950 . S
C8995 C8991 1.393 . S
C8995 C8994 1.391 . S
H8996 C9004 0.950 . S
H8997 C9009 0.950 . S
H8998 C9006 0.950 . S
H8999 C9008 0.950 . S
H9000 C9010 0.950 . S
H9001 C9012 0.950 . S
H9002 C9014 0.950 . S
H9003 C9015 0.950 . S
C9004 H8996 0.950 . S
C9004 C9005 1.386 . S
C9004 C9006 1.391 . S
C9005 C9004 1.386 . S
C9005 C9009 1.393 . S
C9006 H8998 0.950 . S
C9006 C9004 1.391 . S
C9006 C9007 1.400 . S
C9007 C9006 1.400 . S
C9007 C9008 1.398 . S
C9007 C9013 1.491 . S
C9008 H8999 0.950 . S
C9008 C9007 1.398 . S
C9008 C9009 1.391 . S
C9009 H8997 0.950 . S
C9009 C9005 1.393 . S
C9009 C9008 1.391 . S
C9010 H9000 0.950 . S
C9010 C9011 1.386 . S
C9010 C9012 1.391 . S
C9011 C9010 1.386 . S
C9011 C9015 1.393 . S
C9012 H9001 0.950 . S
C9012 C9010 1.391 . S
C9012 C9013 1.400 . S
C9013 C9007 1.491 . S
C9013 C9012 1.400 . S
C9013 C9014 1.398 . S
C9014 H9002 0.950 . S
C9014 C9013 1.398 . S
C9014 C9015 1.391 . S
C9015 H9003 0.950 . S
C9015 C9011 1.393 . S
C9015 C9014 1.391 . S
H9016 C9024 0.950 . S
H9017 C9029 0.950 . S
H9018 C9026 0.950 . S
H9019 C9028 0.950 . S
H9020 C9030 0.950 . S
H9021 C9032 0.950 . S
H9022 C9034 0.950 . S
H9023 C9035 0.950 . S
C9024 H9016 0.950 . S
C9024 C9025 1.386 . S
C9024 C9026 1.391 . S
C9025 C9024 1.386 . S
C9025 C9029 1.393 . S
C9026 H9018 0.950 . S
C9026 C9024 1.391 . S
C9026 C9027 1.400 . S
C9027 C9026 1.400 . S
C9027 C9028 1.398 . S
C9027 C9033 1.491 . S
C9028 H9019 0.950 . S
C9028 C9027 1.398 . S
C9028 C9029 1.391 . S
C9029 H9017 0.950 . S
C9029 C9025 1.393 . S
C9029 C9028 1.391 . S
C9030 H9020 0.950 . S
C9030 C9031 1.386 . S
C9030 C9032 1.391 . S
C9031 C9030 1.386 . S
C9031 C9035 1.393 . S
C9032 H9021 0.950 . S
C9032 C9030 1.391 . S
C9032 C9033 1.400 . S
C9033 C9027 1.491 . S
C9033 C9032 1.400 . S
C9033 C9034 1.398 . S
C9034 H9022 0.950 . S
C9034 C9033 1.398 . S
C9034 C9035 1.391 . S
C9035 H9023 0.950 . S
C9035 C9031 1.393 . S
C9035 C9034 1.391 . S
H9036 C9044 0.950 . S
H9037 C9049 0.950 . S
H9038 C9046 0.950 . S
H9039 C9048 0.950 . S
H9040 C9050 0.950 . S
H9041 C9052 0.950 . S
H9042 C9054 0.950 . S
H9043 C9055 0.950 . S
C9044 H9036 0.950 . S
C9044 C9045 1.386 . S
C9044 C9046 1.391 . S
C9045 C9044 1.386 . S
C9045 C9049 1.393 . S
C9046 H9038 0.950 . S
C9046 C9044 1.391 . S
C9046 C9047 1.400 . S
C9047 C9046 1.400 . S
C9047 C9048 1.398 . S
C9047 C9053 1.491 . S
C9048 H9039 0.950 . S
C9048 C9047 1.398 . S
C9048 C9049 1.391 . S
C9049 H9037 0.950 . S
C9049 C9045 1.393 . S
C9049 C9048 1.391 . S
C9050 H9040 0.950 . S
C9050 C9051 1.386 . S
C9050 C9052 1.391 . S
C9051 C9050 1.386 . S
C9051 C9055 1.393 . S
C9052 H9041 0.950 . S
C9052 C9050 1.391 . S
C9052 C9053 1.400 . S
C9053 C9047 1.491 . S
C9053 C9052 1.400 . S
C9053 C9054 1.398 . S
C9054 H9042 0.950 . S
C9054 C9053 1.398 . S
C9054 C9055 1.391 . S
C9055 H9043 0.950 . S
C9055 C9051 1.393 . S
C9055 C9054 1.391 . S
H9056 C9064 0.950 . S
H9057 C9069 0.950 . S
H9058 C9066 0.950 . S
H9059 C9068 0.950 . S
H9060 C9070 0.950 . S
H9061 C9072 0.950 . S
H9062 C9074 0.950 . S
H9063 C9075 0.950 . S
C9064 H9056 0.950 . S
C9064 C9065 1.386 . S
C9064 C9066 1.391 . S
C9065 C9064 1.386 . S
C9065 C9069 1.393 . S
C9066 H9058 0.950 . S
C9066 C9064 1.391 . S
C9066 C9067 1.400 . S
C9067 C9066 1.400 . S
C9067 C9068 1.398 . S
C9067 C9073 1.491 . S
C9068 H9059 0.950 . S
C9068 C9067 1.398 . S
C9068 C9069 1.391 . S
C9069 H9057 0.950 . S
C9069 C9065 1.393 . S
C9069 C9068 1.391 . S
C9070 H9060 0.950 . S
C9070 C9071 1.386 . S
C9070 C9072 1.391 . S
C9071 C9070 1.386 . S
C9071 C9075 1.393 . S
C9072 H9061 0.950 . S
C9072 C9070 1.391 . S
C9072 C9073 1.400 . S
C9073 C9067 1.491 . S
C9073 C9072 1.400 . S
C9073 C9074 1.398 . S
C9074 H9062 0.950 . S
C9074 C9073 1.398 . S
C9074 C9075 1.391 . S
C9075 H9063 0.950 . S
C9075 C9071 1.393 . S
C9075 C9074 1.391 . S
H9076 C9084 0.950 . S
H9077 C9089 0.950 . S
H9078 C9086 0.950 . S
H9079 C9088 0.950 . S
H9080 C9090 0.950 . S
H9081 C9092 0.950 . S
H9082 C9094 0.950 . S
H9083 C9095 0.950 . S
C9084 H9076 0.950 . S
C9084 C9085 1.386 . S
C9084 C9086 1.391 . S
C9085 C9084 1.386 . S
C9085 C9089 1.393 . S
C9086 H9078 0.950 . S
C9086 C9084 1.391 . S
C9086 C9087 1.400 . S
C9087 C9086 1.400 . S
C9087 C9088 1.398 . S
C9087 C9093 1.491 . S
C9088 H9079 0.950 . S
C9088 C9087 1.398 . S
C9088 C9089 1.391 . S
C9089 H9077 0.950 . S
C9089 C9085 1.393 . S
C9089 C9088 1.391 . S
C9090 H9080 0.950 . S
C9090 C9091 1.386 . S
C9090 C9092 1.391 . S
C9091 C9090 1.386 . S
C9091 C9095 1.393 . S
C9092 H9081 0.950 . S
C9092 C9090 1.391 . S
C9092 C9093 1.400 . S
C9093 C9087 1.491 . S
C9093 C9092 1.400 . S
C9093 C9094 1.398 . S
C9094 H9082 0.950 . S
C9094 C9093 1.398 . S
C9094 C9095 1.391 . S
C9095 H9083 0.950 . S
C9095 C9091 1.393 . S
C9095 C9094 1.391 . S
H9096 C9104 0.950 . S
H9097 C9109 0.950 . S
H9098 C9106 0.950 . S
H9099 C9108 0.950 . S
H9100 C9110 0.950 . S
H9101 C9112 0.950 . S
H9102 C9114 0.950 . S
H9103 C9115 0.950 . S
C9104 H9096 0.950 . S
C9104 C9105 1.386 . S
C9104 C9106 1.391 . S
C9105 C9104 1.386 . S
C9105 C9109 1.393 . S
C9106 H9098 0.950 . S
C9106 C9104 1.391 . S
C9106 C9107 1.400 . S
C9107 C9106 1.400 . S
C9107 C9108 1.398 . S
C9107 C9113 1.491 . S
C9108 H9099 0.950 . S
C9108 C9107 1.398 . S
C9108 C9109 1.391 . S
C9109 H9097 0.950 . S
C9109 C9105 1.393 . S
C9109 C9108 1.391 . S
C9110 H9100 0.950 . S
C9110 C9111 1.386 . S
C9110 C9112 1.391 . S
C9111 C9110 1.386 . S
C9111 C9115 1.393 . S
C9112 H9101 0.950 . S
C9112 C9110 1.391 . S
C9112 C9113 1.400 . S
C9113 C9107 1.491 . S
C9113 C9112 1.400 . S
C9113 C9114 1.398 . S
C9114 H9102 0.950 . S
C9114 C9113 1.398 . S
C9114 C9115 1.391 . S
C9115 H9103 0.950 . S
C9115 C9111 1.393 . S
C9115 C9114 1.391 . S
H9116 C9124 0.950 . S
H9117 C9129 0.950 . S
H9118 C9126 0.950 . S
H9119 C9128 0.950 . S
H9120 C9130 0.950 . S
H9121 C9132 0.950 . S
H9122 C9134 0.950 . S
H9123 C9135 0.950 . S
C9124 H9116 0.950 . S
C9124 C9125 1.386 . S
C9124 C9126 1.391 . S
C9125 C9124 1.386 . S
C9125 C9129 1.393 . S
C9126 H9118 0.950 . S
C9126 C9124 1.391 . S
C9126 C9127 1.400 . S
C9127 C9126 1.400 . S
C9127 C9128 1.398 . S
C9127 C9133 1.491 . S
C9128 H9119 0.950 . S
C9128 C9127 1.398 . S
C9128 C9129 1.391 . S
C9129 H9117 0.950 . S
C9129 C9125 1.393 . S
C9129 C9128 1.391 . S
C9130 H9120 0.950 . S
C9130 C9131 1.386 . S
C9130 C9132 1.391 . S
C9131 C9130 1.386 . S
C9131 C9135 1.393 . S
C9132 H9121 0.950 . S
C9132 C9130 1.391 . S
C9132 C9133 1.400 . S
C9133 C9127 1.491 . S
C9133 C9132 1.400 . S
C9133 C9134 1.398 . S
C9134 H9122 0.950 . S
C9134 C9133 1.398 . S
C9134 C9135 1.391 . S
C9135 H9123 0.950 . S
C9135 C9131 1.393 . S
C9135 C9134 1.391 . S
H9136 C9144 0.950 . S
H9137 C9149 0.950 . S
H9138 C9146 0.950 . S
H9139 C9148 0.950 . S
H9140 C9150 0.950 . S
H9141 C9152 0.950 . S
H9142 C9154 0.950 . S
H9143 C9155 0.950 . S
C9144 H9136 0.950 . S
C9144 C9145 1.386 . S
C9144 C9146 1.391 . S
C9145 C9144 1.386 . S
C9145 C9149 1.393 . S
C9146 H9138 0.950 . S
C9146 C9144 1.391 . S
C9146 C9147 1.400 . S
C9147 C9146 1.400 . S
C9147 C9148 1.398 . S
C9147 C9153 1.491 . S
C9148 H9139 0.950 . S
C9148 C9147 1.398 . S
C9148 C9149 1.391 . S
C9149 H9137 0.950 . S
C9149 C9145 1.393 . S
C9149 C9148 1.391 . S
C9150 H9140 0.950 . S
C9150 C9151 1.386 . S
C9150 C9152 1.391 . S
C9151 C9150 1.386 . S
C9151 C9155 1.393 . S
C9152 H9141 0.950 . S
C9152 C9150 1.391 . S
C9152 C9153 1.400 . S
C9153 C9147 1.491 . S
C9153 C9152 1.400 . S
C9153 C9154 1.398 . S
C9154 H9142 0.950 . S
C9154 C9153 1.398 . S
C9154 C9155 1.391 . S
C9155 H9143 0.950 . S
C9155 C9151 1.393 . S
C9155 C9154 1.391 . S
H9156 C9164 0.950 . S
H9157 C9169 0.950 . S
H9158 C9166 0.950 . S
H9159 C9168 0.950 . S
H9160 C9170 0.950 . S
H9161 C9172 0.950 . S
H9162 C9174 0.950 . S
H9163 C9175 0.950 . S
C9164 H9156 0.950 . S
C9164 C9165 1.386 . S
C9164 C9166 1.391 . S
C9165 C9164 1.386 . S
C9165 C9169 1.393 . S
C9166 H9158 0.950 . S
C9166 C9164 1.391 . S
C9166 C9167 1.400 . S
C9167 C9166 1.400 . S
C9167 C9168 1.398 . S
C9167 C9173 1.491 . S
C9168 H9159 0.950 . S
C9168 C9167 1.398 . S
C9168 C9169 1.391 . S
C9169 H9157 0.950 . S
C9169 C9165 1.393 . S
C9169 C9168 1.391 . S
C9170 H9160 0.950 . S
C9170 C9171 1.386 . S
C9170 C9172 1.391 . S
C9171 C9170 1.386 . S
C9171 C9175 1.393 . S
C9172 H9161 0.950 . S
C9172 C9170 1.391 . S
C9172 C9173 1.400 . S
C9173 C9167 1.491 . S
C9173 C9172 1.400 . S
C9173 C9174 1.398 . S
C9174 H9162 0.950 . S
C9174 C9173 1.398 . S
C9174 C9175 1.391 . S
C9175 H9163 0.950 . S
C9175 C9171 1.393 . S
C9175 C9174 1.391 . S
H9176 C9184 0.950 . S
H9177 C9189 0.950 . S
H9178 C9186 0.950 . S
H9179 C9188 0.950 . S
H9180 C9190 0.950 . S
H9181 C9192 0.950 . S
H9182 C9194 0.950 . S
H9183 C9195 0.950 . S
C9184 H9176 0.950 . S
C9184 C9185 1.386 . S
C9184 C9186 1.391 . S
C9185 C9184 1.386 . S
C9185 C9189 1.393 . S
C9186 H9178 0.950 . S
C9186 C9184 1.391 . S
C9186 C9187 1.400 . S
C9187 C9186 1.400 . S
C9187 C9188 1.398 . S
C9187 C9193 1.491 . S
C9188 H9179 0.950 . S
C9188 C9187 1.398 . S
C9188 C9189 1.391 . S
C9189 H9177 0.950 . S
C9189 C9185 1.393 . S
C9189 C9188 1.391 . S
C9190 H9180 0.950 . S
C9190 C9191 1.386 . S
C9190 C9192 1.391 . S
C9191 C9190 1.386 . S
C9191 C9195 1.393 . S
C9192 H9181 0.950 . S
C9192 C9190 1.391 . S
C9192 C9193 1.400 . S
C9193 C9187 1.491 . S
C9193 C9192 1.400 . S
C9193 C9194 1.398 . S
C9194 H9182 0.950 . S
C9194 C9193 1.398 . S
C9194 C9195 1.391 . S
C9195 H9183 0.950 . S
C9195 C9191 1.393 . S
C9195 C9194 1.391 . S
H9196 C9204 0.950 . S
H9197 C9209 0.950 . S
H9198 C9206 0.950 . S
H9199 C9208 0.950 . S
H9200 C9210 0.950 . S
H9201 C9212 0.950 . S
H9202 C9214 0.950 . S
H9203 C9215 0.950 . S
C9204 H9196 0.950 . S
C9204 C9205 1.386 . S
C9204 C9206 1.391 . S
C9205 C9204 1.386 . S
C9205 C9209 1.393 . S
C9206 H9198 0.950 . S
C9206 C9204 1.391 . S
C9206 C9207 1.400 . S
C9207 C9206 1.400 . S
C9207 C9208 1.398 . S
C9207 C9213 1.491 . S
C9208 H9199 0.950 . S
C9208 C9207 1.398 . S
C9208 C9209 1.391 . S
C9209 H9197 0.950 . S
C9209 C9205 1.393 . S
C9209 C9208 1.391 . S
C9210 H9200 0.950 . S
C9210 C9211 1.386 . S
C9210 C9212 1.391 . S
C9211 C9210 1.386 . S
C9211 C9215 1.393 . S
C9212 H9201 0.950 . S
C9212 C9210 1.391 . S
C9212 C9213 1.400 . S
C9213 C9207 1.491 . S
C9213 C9212 1.400 . S
C9213 C9214 1.398 . S
C9214 H9202 0.950 . S
C9214 C9213 1.398 . S
C9214 C9215 1.391 . S
C9215 H9203 0.950 . S
C9215 C9211 1.393 . S
C9215 C9214 1.391 . S
H9216 C9224 0.950 . S
H9217 C9229 0.950 . S
H9218 C9226 0.950 . S
H9219 C9228 0.950 . S
H9220 C9230 0.950 . S
H9221 C9232 0.950 . S
H9222 C9234 0.950 . S
H9223 C9235 0.950 . S
C9224 H9216 0.950 . S
C9224 C9225 1.386 . S
C9224 C9226 1.391 . S
C9225 C9224 1.386 . S
C9225 C9229 1.393 . S
C9226 H9218 0.950 . S
C9226 C9224 1.391 . S
C9226 C9227 1.400 . S
C9227 C9226 1.400 . S
C9227 C9228 1.398 . S
C9227 C9233 1.491 . S
C9228 H9219 0.950 . S
C9228 C9227 1.398 . S
C9228 C9229 1.391 . S
C9229 H9217 0.950 . S
C9229 C9225 1.393 . S
C9229 C9228 1.391 . S
C9230 H9220 0.950 . S
C9230 C9231 1.386 . S
C9230 C9232 1.391 . S
C9231 C9230 1.386 . S
C9231 C9235 1.393 . S
C9232 H9221 0.950 . S
C9232 C9230 1.391 . S
C9232 C9233 1.400 . S
C9233 C9227 1.491 . S
C9233 C9232 1.400 . S
C9233 C9234 1.398 . S
C9234 H9222 0.950 . S
C9234 C9233 1.398 . S
C9234 C9235 1.391 . S
C9235 H9223 0.950 . S
C9235 C9231 1.393 . S
C9235 C9234 1.391 . S
H9236 C9244 0.950 . S
H9237 C9249 0.950 . S
H9238 C9246 0.950 . S
H9239 C9248 0.950 . S
H9240 C9250 0.950 . S
H9241 C9252 0.950 . S
H9242 C9254 0.950 . S
H9243 C9255 0.950 . S
C9244 H9236 0.950 . S
C9244 C9245 1.386 . S
C9244 C9246 1.391 . S
C9245 C9244 1.386 . S
C9245 C9249 1.393 . S
C9246 H9238 0.950 . S
C9246 C9244 1.391 . S
C9246 C9247 1.400 . S
C9247 C9246 1.400 . S
C9247 C9248 1.398 . S
C9247 C9253 1.491 . S
C9248 H9239 0.950 . S
C9248 C9247 1.398 . S
C9248 C9249 1.391 . S
C9249 H9237 0.950 . S
C9249 C9245 1.393 . S
C9249 C9248 1.391 . S
C9250 H9240 0.950 . S
C9250 C9251 1.386 . S
C9250 C9252 1.391 . S
C9251 C9250 1.386 . S
C9251 C9255 1.393 . S
C9252 H9241 0.950 . S
C9252 C9250 1.391 . S
C9252 C9253 1.400 . S
C9253 C9247 1.491 . S
C9253 C9252 1.400 . S
C9253 C9254 1.398 . S
C9254 H9242 0.950 . S
C9254 C9253 1.398 . S
C9254 C9255 1.391 . S
C9255 H9243 0.950 . S
C9255 C9251 1.393 . S
C9255 C9254 1.391 . S
H9256 C9264 0.950 . S
H9257 C9269 0.950 . S
H9258 C9266 0.950 . S
H9259 C9268 0.950 . S
H9260 C9270 0.950 . S
H9261 C9272 0.950 . S
H9262 C9274 0.950 . S
H9263 C9275 0.950 . S
C9264 H9256 0.950 . S
C9264 C9265 1.386 . S
C9264 C9266 1.391 . S
C9265 C9264 1.386 . S
C9265 C9269 1.393 . S
C9266 H9258 0.950 . S
C9266 C9264 1.391 . S
C9266 C9267 1.400 . S
C9267 C9266 1.400 . S
C9267 C9268 1.398 . S
C9267 C9273 1.491 . S
C9268 H9259 0.950 . S
C9268 C9267 1.398 . S
C9268 C9269 1.391 . S
C9269 H9257 0.950 . S
C9269 C9265 1.393 . S
C9269 C9268 1.391 . S
C9270 H9260 0.950 . S
C9270 C9271 1.386 . S
C9270 C9272 1.391 . S
C9271 C9270 1.386 . S
C9271 C9275 1.393 . S
C9272 H9261 0.950 . S
C9272 C9270 1.391 . S
C9272 C9273 1.400 . S
C9273 C9267 1.491 . S
C9273 C9272 1.400 . S
C9273 C9274 1.398 . S
C9274 H9262 0.950 . S
C9274 C9273 1.398 . S
C9274 C9275 1.391 . S
C9275 H9263 0.950 . S
C9275 C9271 1.393 . S
C9275 C9274 1.391 . S
H9276 C9284 0.950 . S
H9277 C9289 0.950 . S
H9278 C9286 0.950 . S
H9279 C9288 0.950 . S
H9280 C9290 0.950 . S
H9281 C9292 0.950 . S
H9282 C9294 0.950 . S
H9283 C9295 0.950 . S
C9284 H9276 0.950 . S
C9284 C9285 1.386 . S
C9284 C9286 1.391 . S
C9285 C9284 1.386 . S
C9285 C9289 1.393 . S
C9286 H9278 0.950 . S
C9286 C9284 1.391 . S
C9286 C9287 1.400 . S
C9287 C9286 1.400 . S
C9287 C9288 1.398 . S
C9287 C9293 1.491 . S
C9288 H9279 0.950 . S
C9288 C9287 1.398 . S
C9288 C9289 1.391 . S
C9289 H9277 0.950 . S
C9289 C9285 1.393 . S
C9289 C9288 1.391 . S
C9290 H9280 0.950 . S
C9290 C9291 1.386 . S
C9290 C9292 1.391 . S
C9291 C9290 1.386 . S
C9291 C9295 1.393 . S
C9292 H9281 0.950 . S
C9292 C9290 1.391 . S
C9292 C9293 1.400 . S
C9293 C9287 1.491 . S
C9293 C9292 1.400 . S
C9293 C9294 1.398 . S
C9294 H9282 0.950 . S
C9294 C9293 1.398 . S
C9294 C9295 1.391 . S
C9295 H9283 0.950 . S
C9295 C9291 1.393 . S
C9295 C9294 1.391 . S
H9296 C9304 0.950 . S
H9297 C9309 0.950 . S
H9298 C9306 0.950 . S
H9299 C9308 0.950 . S
H9300 C9310 0.950 . S
H9301 C9312 0.950 . S
H9302 C9314 0.950 . S
H9303 C9315 0.950 . S
C9304 H9296 0.950 . S
C9304 C9305 1.386 . S
C9304 C9306 1.391 . S
C9305 C9304 1.386 . S
C9305 C9309 1.393 . S
C9306 H9298 0.950 . S
C9306 C9304 1.391 . S
C9306 C9307 1.400 . S
C9307 C9306 1.400 . S
C9307 C9308 1.398 . S
C9307 C9313 1.491 . S
C9308 H9299 0.950 . S
C9308 C9307 1.398 . S
C9308 C9309 1.391 . S
C9309 H9297 0.950 . S
C9309 C9305 1.393 . S
C9309 C9308 1.391 . S
C9310 H9300 0.950 . S
C9310 C9311 1.386 . S
C9310 C9312 1.391 . S
C9311 C9310 1.386 . S
C9311 C9315 1.393 . S
C9312 H9301 0.950 . S
C9312 C9310 1.391 . S
C9312 C9313 1.400 . S
C9313 C9307 1.491 . S
C9313 C9312 1.400 . S
C9313 C9314 1.398 . S
C9314 H9302 0.950 . S
C9314 C9313 1.398 . S
C9314 C9315 1.391 . S
C9315 H9303 0.950 . S
C9315 C9311 1.393 . S
C9315 C9314 1.391 . S
H9316 C9324 0.950 . S
H9317 C9329 0.950 . S
H9318 C9326 0.950 . S
H9319 C9328 0.950 . S
H9320 C9330 0.950 . S
H9321 C9332 0.950 . S
H9322 C9334 0.950 . S
H9323 C9335 0.950 . S
C9324 H9316 0.950 . S
C9324 C9325 1.386 . S
C9324 C9326 1.391 . S
C9325 C9324 1.386 . S
C9325 C9329 1.393 . S
C9326 H9318 0.950 . S
C9326 C9324 1.391 . S
C9326 C9327 1.400 . S
C9327 C9326 1.400 . S
C9327 C9328 1.398 . S
C9327 C9333 1.491 . S
C9328 H9319 0.950 . S
C9328 C9327 1.398 . S
C9328 C9329 1.391 . S
C9329 H9317 0.950 . S
C9329 C9325 1.393 . S
C9329 C9328 1.391 . S
C9330 H9320 0.950 . S
C9330 C9331 1.386 . S
C9330 C9332 1.391 . S
C9331 C9330 1.386 . S
C9331 C9335 1.393 . S
C9332 H9321 0.950 . S
C9332 C9330 1.391 . S
C9332 C9333 1.400 . S
C9333 C9327 1.491 . S
C9333 C9332 1.400 . S
C9333 C9334 1.398 . S
C9334 H9322 0.950 . S
C9334 C9333 1.398 . S
C9334 C9335 1.391 . S
C9335 H9323 0.950 . S
C9335 C9331 1.393 . S
C9335 C9334 1.391 . S
H9336 C9344 0.950 . S
H9337 C9349 0.950 . S
H9338 C9346 0.950 . S
H9339 C9348 0.950 . S
H9340 C9350 0.950 . S
H9341 C9352 0.950 . S
H9342 C9354 0.950 . S
H9343 C9355 0.950 . S
C9344 H9336 0.950 . S
C9344 C9345 1.386 . S
C9344 C9346 1.391 . S
C9345 C9344 1.386 . S
C9345 C9349 1.393 . S
C9346 H9338 0.950 . S
C9346 C9344 1.391 . S
C9346 C9347 1.400 . S
C9347 C9346 1.400 . S
C9347 C9348 1.398 . S
C9347 C9353 1.491 . S
C9348 H9339 0.950 . S
C9348 C9347 1.398 . S
C9348 C9349 1.391 . S
C9349 H9337 0.950 . S
C9349 C9345 1.393 . S
C9349 C9348 1.391 . S
C9350 H9340 0.950 . S
C9350 C9351 1.386 . S
C9350 C9352 1.391 . S
C9351 C9350 1.386 . S
C9351 C9355 1.393 . S
C9352 H9341 0.950 . S
C9352 C9350 1.391 . S
C9352 C9353 1.400 . S
C9353 C9347 1.491 . S
C9353 C9352 1.400 . S
C9353 C9354 1.398 . S
C9354 H9342 0.950 . S
C9354 C9353 1.398 . S
C9354 C9355 1.391 . S
C9355 H9343 0.950 . S
C9355 C9351 1.393 . S
C9355 C9354 1.391 . S
H9356 C9364 0.950 . S
H9357 C9369 0.950 . S
H9358 C9366 0.950 . S
H9359 C9368 0.950 . S
H9360 C9370 0.950 . S
H9361 C9372 0.950 . S
H9362 C9374 0.950 . S
H9363 C9375 0.950 . S
C9364 H9356 0.950 . S
C9364 C9365 1.386 . S
C9364 C9366 1.391 . S
C9365 C9364 1.386 . S
C9365 C9369 1.393 . S
C9366 H9358 0.950 . S
C9366 C9364 1.391 . S
C9366 C9367 1.400 . S
C9367 C9366 1.400 . S
C9367 C9368 1.398 . S
C9367 C9373 1.491 . S
C9368 H9359 0.950 . S
C9368 C9367 1.398 . S
C9368 C9369 1.391 . S
C9369 H9357 0.950 . S
C9369 C9365 1.393 . S
C9369 C9368 1.391 . S
C9370 H9360 0.950 . S
C9370 C9371 1.386 . S
C9370 C9372 1.391 . S
C9371 C9370 1.386 . S
C9371 C9375 1.393 . S
C9372 H9361 0.950 . S
C9372 C9370 1.391 . S
C9372 C9373 1.400 . S
C9373 C9367 1.491 . S
C9373 C9372 1.400 . S
C9373 C9374 1.398 . S
C9374 H9362 0.950 . S
C9374 C9373 1.398 . S
C9374 C9375 1.391 . S
C9375 H9363 0.950 . S
C9375 C9371 1.393 . S
C9375 C9374 1.391 . S
H9376 C9384 0.950 . S
H9377 C9389 0.950 . S
H9378 C9386 0.950 . S
H9379 C9388 0.950 . S
H9380 C9390 0.950 . S
H9381 C9392 0.950 . S
H9382 C9394 0.950 . S
H9383 C9395 0.950 . S
C9384 H9376 0.950 . S
C9384 C9385 1.386 . S
C9384 C9386 1.391 . S
C9385 C9384 1.386 . S
C9385 C9389 1.393 . S
C9386 H9378 0.950 . S
C9386 C9384 1.391 . S
C9386 C9387 1.400 . S
C9387 C9386 1.400 . S
C9387 C9388 1.398 . S
C9387 C9393 1.491 . S
C9388 H9379 0.950 . S
C9388 C9387 1.398 . S
C9388 C9389 1.391 . S
C9389 H9377 0.950 . S
C9389 C9385 1.393 . S
C9389 C9388 1.391 . S
C9390 H9380 0.950 . S
C9390 C9391 1.386 . S
C9390 C9392 1.391 . S
C9391 C9390 1.386 . S
C9391 C9395 1.393 . S
C9392 H9381 0.950 . S
C9392 C9390 1.391 . S
C9392 C9393 1.400 . S
C9393 C9387 1.491 . S
C9393 C9392 1.400 . S
C9393 C9394 1.398 . S
C9394 H9382 0.950 . S
C9394 C9393 1.398 . S
C9394 C9395 1.391 . S
C9395 H9383 0.950 . S
C9395 C9391 1.393 . S
C9395 C9394 1.391 . S
H9396 C9404 0.950 . S
H9397 C9409 0.950 . S
H9398 C9406 0.950 . S
H9399 C9408 0.950 . S
H9400 C9410 0.950 . S
H9401 C9412 0.950 . S
H9402 C9414 0.950 . S
H9403 C9415 0.950 . S
C9404 H9396 0.950 . S
C9404 C9405 1.386 . S
C9404 C9406 1.391 . S
C9405 C9404 1.386 . S
C9405 C9409 1.393 . S
C9406 H9398 0.950 . S
C9406 C9404 1.391 . S
C9406 C9407 1.400 . S
C9407 C9406 1.400 . S
C9407 C9408 1.398 . S
C9407 C9413 1.491 . S
C9408 H9399 0.950 . S
C9408 C9407 1.398 . S
C9408 C9409 1.391 . S
C9409 H9397 0.950 . S
C9409 C9405 1.393 . S
C9409 C9408 1.391 . S
C9410 H9400 0.950 . S
C9410 C9411 1.386 . S
C9410 C9412 1.391 . S
C9411 C9410 1.386 . S
C9411 C9415 1.393 . S
C9412 H9401 0.950 . S
C9412 C9410 1.391 . S
C9412 C9413 1.400 . S
C9413 C9407 1.491 . S
C9413 C9412 1.400 . S
C9413 C9414 1.398 . S
C9414 H9402 0.950 . S
C9414 C9413 1.398 . S
C9414 C9415 1.391 . S
C9415 H9403 0.950 . S
C9415 C9411 1.393 . S
C9415 C9414 1.391 . S
H9416 C9424 0.950 . S
H9417 C9429 0.950 . S
H9418 C9426 0.950 . S
H9419 C9428 0.950 . S
H9420 C9430 0.950 . S
H9421 C9432 0.950 . S
H9422 C9434 0.950 . S
H9423 C9435 0.950 . S
C9424 H9416 0.950 . S
C9424 C9425 1.386 . S
C9424 C9426 1.391 . S
C9425 C9424 1.386 . S
C9425 C9429 1.393 . S
C9426 H9418 0.950 . S
C9426 C9424 1.391 . S
C9426 C9427 1.400 . S
C9427 C9426 1.400 . S
C9427 C9428 1.398 . S
C9427 C9433 1.491 . S
C9428 H9419 0.950 . S
C9428 C9427 1.398 . S
C9428 C9429 1.391 . S
C9429 H9417 0.950 . S
C9429 C9425 1.393 . S
C9429 C9428 1.391 . S
C9430 H9420 0.950 . S
C9430 C9431 1.386 . S
C9430 C9432 1.391 . S
C9431 C9430 1.386 . S
C9431 C9435 1.393 . S
C9432 H9421 0.950 . S
C9432 C9430 1.391 . S
C9432 C9433 1.400 . S
C9433 C9427 1.491 . S
C9433 C9432 1.400 . S
C9433 C9434 1.398 . S
C9434 H9422 0.950 . S
C9434 C9433 1.398 . S
C9434 C9435 1.391 . S
C9435 H9423 0.950 . S
C9435 C9431 1.393 . S
C9435 C9434 1.391 . S
H9436 C9444 0.950 . S
H9437 C9449 0.950 . S
H9438 C9446 0.950 . S
H9439 C9448 0.950 . S
H9440 C9450 0.950 . S
H9441 C9452 0.950 . S
H9442 C9454 0.950 . S
H9443 C9455 0.950 . S
C9444 H9436 0.950 . S
C9444 C9445 1.386 . S
C9444 C9446 1.391 . S
C9445 C9444 1.386 . S
C9445 C9449 1.393 . S
C9446 H9438 0.950 . S
C9446 C9444 1.391 . S
C9446 C9447 1.400 . S
C9447 C9446 1.400 . S
C9447 C9448 1.398 . S
C9447 C9453 1.491 . S
C9448 H9439 0.950 . S
C9448 C9447 1.398 . S
C9448 C9449 1.391 . S
C9449 H9437 0.950 . S
C9449 C9445 1.393 . S
C9449 C9448 1.391 . S
C9450 H9440 0.950 . S
C9450 C9451 1.386 . S
C9450 C9452 1.391 . S
C9451 C9450 1.386 . S
C9451 C9455 1.393 . S
C9452 H9441 0.950 . S
C9452 C9450 1.391 . S
C9452 C9453 1.400 . S
C9453 C9447 1.491 . S
C9453 C9452 1.400 . S
C9453 C9454 1.398 . S
C9454 H9442 0.950 . S
C9454 C9453 1.398 . S
C9454 C9455 1.391 . S
C9455 H9443 0.950 . S
C9455 C9451 1.393 . S
C9455 C9454 1.391 . S
H9456 C9464 0.950 . S
H9457 C9469 0.950 . S
H9458 C9466 0.950 . S
H9459 C9468 0.950 . S
H9460 C9470 0.950 . S
H9461 C9472 0.950 . S
H9462 C9474 0.950 . S
H9463 C9475 0.950 . S
C9464 H9456 0.950 . S
C9464 C9465 1.386 . S
C9464 C9466 1.391 . S
C9465 C9464 1.386 . S
C9465 C9469 1.393 . S
C9466 H9458 0.950 . S
C9466 C9464 1.391 . S
C9466 C9467 1.400 . S
C9467 C9466 1.400 . S
C9467 C9468 1.398 . S
C9467 C9473 1.491 . S
C9468 H9459 0.950 . S
C9468 C9467 1.398 . S
C9468 C9469 1.391 . S
C9469 H9457 0.950 . S
C9469 C9465 1.393 . S
C9469 C9468 1.391 . S
C9470 H9460 0.950 . S
C9470 C9471 1.386 . S
C9470 C9472 1.391 . S
C9471 C9470 1.386 . S
C9471 C9475 1.393 . S
C9472 H9461 0.950 . S
C9472 C9470 1.391 . S
C9472 C9473 1.400 . S
C9473 C9467 1.491 . S
C9473 C9472 1.400 . S
C9473 C9474 1.398 . S
C9474 H9462 0.950 . S
C9474 C9473 1.398 . S
C9474 C9475 1.391 . S
C9475 H9463 0.950 . S
C9475 C9471 1.393 . S
C9475 C9474 1.391 . S
H9476 C9484 0.950 . S
H9477 C9489 0.950 . S
H9478 C9486 0.950 . S
H9479 C9488 0.950 . S
H9480 C9490 0.950 . S
H9481 C9492 0.950 . S
H9482 C9494 0.950 . S
H9483 C9495 0.950 . S
C9484 H9476 0.950 . S
C9484 C9485 1.386 . S
C9484 C9486 1.391 . S
C9485 C9484 1.386 . S
C9485 C9489 1.393 . S
C9486 H9478 0.950 . S
C9486 C9484 1.391 . S
C9486 C9487 1.400 . S
C9487 C9486 1.400 . S
C9487 C9488 1.398 . S
C9487 C9493 1.491 . S
C9488 H9479 0.950 . S
C9488 C9487 1.398 . S
C9488 C9489 1.391 . S
C9489 H9477 0.950 . S
C9489 C9485 1.393 . S
C9489 C9488 1.391 . S
C9490 H9480 0.950 . S
C9490 C9491 1.386 . S
C9490 C9492 1.391 . S
C9491 C9490 1.386 . S
C9491 C9495 1.393 . S
C9492 H9481 0.950 . S
C9492 C9490 1.391 . S
C9492 C9493 1.400 . S
C9493 C9487 1.491 . S
C9493 C9492 1.400 . S
C9493 C9494 1.398 . S
C9494 H9482 0.950 . S
C9494 C9493 1.398 . S
C9494 C9495 1.391 . S
C9495 H9483 0.950 . S
C9495 C9491 1.393 . S
C9495 C9494 1.391 . S
H9496 C9504 0.950 . S
H9497 C9509 0.950 . S
H9498 C9506 0.950 . S
H9499 C9508 0.950 . S
H9500 C9510 0.950 . S
H9501 C9512 0.950 . S
H9502 C9514 0.950 . S
H9503 C9515 0.950 . S
C9504 H9496 0.950 . S
C9504 C9505 1.386 . S
C9504 C9506 1.391 . S
C9505 C9504 1.386 . S
C9505 C9509 1.393 . S
C9506 H9498 0.950 . S
C9506 C9504 1.391 . S
C9506 C9507 1.400 . S
C9507 C9506 1.400 . S
C9507 C9508 1.398 . S
C9507 C9513 1.491 . S
C9508 H9499 0.950 . S
C9508 C9507 1.398 . S
C9508 C9509 1.391 . S
C9509 H9497 0.950 . S
C9509 C9505 1.393 . S
C9509 C9508 1.391 . S
C9510 H9500 0.950 . S
C9510 C9511 1.386 . S
C9510 C9512 1.391 . S
C9511 C9510 1.386 . S
C9511 C9515 1.393 . S
C9512 H9501 0.950 . S
C9512 C9510 1.391 . S
C9512 C9513 1.400 . S
C9513 C9507 1.491 . S
C9513 C9512 1.400 . S
C9513 C9514 1.398 . S
C9514 H9502 0.950 . S
C9514 C9513 1.398 . S
C9514 C9515 1.391 . S
C9515 H9503 0.950 . S
C9515 C9511 1.393 . S
C9515 C9514 1.391 . S
H9516 C9524 0.950 . S
H9517 C9529 0.950 . S
H9518 C9526 0.950 . S
H9519 C9528 0.950 . S
H9520 C9530 0.950 . S
H9521 C9532 0.950 . S
H9522 C9534 0.950 . S
H9523 C9535 0.950 . S
C9524 H9516 0.950 . S
C9524 C9525 1.386 . S
C9524 C9526 1.391 . S
C9525 C9524 1.386 . S
C9525 C9529 1.393 . S
C9526 H9518 0.950 . S
C9526 C9524 1.391 . S
C9526 C9527 1.400 . S
C9527 C9526 1.400 . S
C9527 C9528 1.398 . S
C9527 C9533 1.491 . S
C9528 H9519 0.950 . S
C9528 C9527 1.398 . S
C9528 C9529 1.391 . S
C9529 H9517 0.950 . S
C9529 C9525 1.393 . S
C9529 C9528 1.391 . S
C9530 H9520 0.950 . S
C9530 C9531 1.386 . S
C9530 C9532 1.391 . S
C9531 C9530 1.386 . S
C9531 C9535 1.393 . S
C9532 H9521 0.950 . S
C9532 C9530 1.391 . S
C9532 C9533 1.400 . S
C9533 C9527 1.491 . S
C9533 C9532 1.400 . S
C9533 C9534 1.398 . S
C9534 H9522 0.950 . S
C9534 C9533 1.398 . S
C9534 C9535 1.391 . S
C9535 H9523 0.950 . S
C9535 C9531 1.393 . S
C9535 C9534 1.391 . S
H9536 C9544 0.950 . S
H9537 C9549 0.950 . S
H9538 C9546 0.950 . S
H9539 C9548 0.950 . S
H9540 C9550 0.950 . S
H9541 C9552 0.950 . S
H9542 C9554 0.950 . S
H9543 C9555 0.950 . S
C9544 H9536 0.950 . S
C9544 C9545 1.386 . S
C9544 C9546 1.391 . S
C9545 C9544 1.386 . S
C9545 C9549 1.393 . S
C9546 H9538 0.950 . S
C9546 C9544 1.391 . S
C9546 C9547 1.400 . S
C9547 C9546 1.400 . S
C9547 C9548 1.398 . S
C9547 C9553 1.491 . S
C9548 H9539 0.950 . S
C9548 C9547 1.398 . S
C9548 C9549 1.391 . S
C9549 H9537 0.950 . S
C9549 C9545 1.393 . S
C9549 C9548 1.391 . S
C9550 H9540 0.950 . S
C9550 C9551 1.386 . S
C9550 C9552 1.391 . S
C9551 C9550 1.386 . S
C9551 C9555 1.393 . S
C9552 H9541 0.950 . S
C9552 C9550 1.391 . S
C9552 C9553 1.400 . S
C9553 C9547 1.491 . S
C9553 C9552 1.400 . S
C9553 C9554 1.398 . S
C9554 H9542 0.950 . S
C9554 C9553 1.398 . S
C9554 C9555 1.391 . S
C9555 H9543 0.950 . S
C9555 C9551 1.393 . S
C9555 C9554 1.391 . S
H9556 C9564 0.950 . S
H9557 C9569 0.950 . S
H9558 C9566 0.950 . S
H9559 C9568 0.950 . S
H9560 C9570 0.950 . S
H9561 C9572 0.950 . S
H9562 C9574 0.950 . S
H9563 C9575 0.950 . S
C9564 H9556 0.950 . S
C9564 C9565 1.386 . S
C9564 C9566 1.391 . S
C9565 C9564 1.386 . S
C9565 C9569 1.393 . S
C9566 H9558 0.950 . S
C9566 C9564 1.391 . S
C9566 C9567 1.400 . S
C9567 C9566 1.400 . S
C9567 C9568 1.398 . S
C9567 C9573 1.491 . S
C9568 H9559 0.950 . S
C9568 C9567 1.398 . S
C9568 C9569 1.391 . S
C9569 H9557 0.950 . S
C9569 C9565 1.393 . S
C9569 C9568 1.391 . S
C9570 H9560 0.950 . S
C9570 C9571 1.386 . S
C9570 C9572 1.391 . S
C9571 C9570 1.386 . S
C9571 C9575 1.393 . S
C9572 H9561 0.950 . S
C9572 C9570 1.391 . S
C9572 C9573 1.400 . S
C9573 C9567 1.491 . S
C9573 C9572 1.400 . S
C9573 C9574 1.398 . S
C9574 H9562 0.950 . S
C9574 C9573 1.398 . S
C9574 C9575 1.391 . S
C9575 H9563 0.950 . S
C9575 C9571 1.393 . S
C9575 C9574 1.391 . S
H9576 C9584 0.950 . S
H9577 C9589 0.950 . S
H9578 C9586 0.950 . S
H9579 C9588 0.950 . S
H9580 C9590 0.950 . S
H9581 C9592 0.950 . S
H9582 C9594 0.950 . S
H9583 C9595 0.950 . S
C9584 H9576 0.950 . S
C9584 C9585 1.386 . S
C9584 C9586 1.391 . S
C9585 C9584 1.386 . S
C9585 C9589 1.393 . S
C9586 H9578 0.950 . S
C9586 C9584 1.391 . S
C9586 C9587 1.400 . S
C9587 C9586 1.400 . S
C9587 C9588 1.398 . S
C9587 C9593 1.491 . S
C9588 H9579 0.950 . S
C9588 C9587 1.398 . S
C9588 C9589 1.391 . S
C9589 H9577 0.950 . S
C9589 C9585 1.393 . S
C9589 C9588 1.391 . S
C9590 H9580 0.950 . S
C9590 C9591 1.386 . S
C9590 C9592 1.391 . S
C9591 C9590 1.386 . S
C9591 C9595 1.393 . S
C9592 H9581 0.950 . S
C9592 C9590 1.391 . S
C9592 C9593 1.400 . S
C9593 C9587 1.491 . S
C9593 C9592 1.400 . S
C9593 C9594 1.398 . S
C9594 H9582 0.950 . S
C9594 C9593 1.398 . S
C9594 C9595 1.391 . S
C9595 H9583 0.950 . S
C9595 C9591 1.393 . S
C9595 C9594 1.391 . S
H9596 C9604 0.950 . S
H9597 C9609 0.950 . S
H9598 C9606 0.950 . S
H9599 C9608 0.950 . S
H9600 C9610 0.950 . S
H9601 C9612 0.950 . S
H9602 C9614 0.950 . S
H9603 C9615 0.950 . S
C9604 H9596 0.950 . S
C9604 C9605 1.386 . S
C9604 C9606 1.391 . S
C9605 C9604 1.386 . S
C9605 C9609 1.393 . S
C9606 H9598 0.950 . S
C9606 C9604 1.391 . S
C9606 C9607 1.400 . S
C9607 C9606 1.400 . S
C9607 C9608 1.398 . S
C9607 C9613 1.491 . S
C9608 H9599 0.950 . S
C9608 C9607 1.398 . S
C9608 C9609 1.391 . S
C9609 H9597 0.950 . S
C9609 C9605 1.393 . S
C9609 C9608 1.391 . S
C9610 H9600 0.950 . S
C9610 C9611 1.386 . S
C9610 C9612 1.391 . S
C9611 C9610 1.386 . S
C9611 C9615 1.393 . S
C9612 H9601 0.950 . S
C9612 C9610 1.391 . S
C9612 C9613 1.400 . S
C9613 C9607 1.491 . S
C9613 C9612 1.400 . S
C9613 C9614 1.398 . S
C9614 H9602 0.950 . S
C9614 C9613 1.398 . S
C9614 C9615 1.391 . S
C9615 H9603 0.950 . S
C9615 C9611 1.393 . S
C9615 C9614 1.391 . S
H9616 C9624 0.950 . S
H9617 C9629 0.950 . S
H9618 C9626 0.950 . S
H9619 C9628 0.950 . S
H9620 C9630 0.950 . S
H9621 C9632 0.950 . S
H9622 C9634 0.950 . S
H9623 C9635 0.950 . S
C9624 H9616 0.950 . S
C9624 C9625 1.386 . S
C9624 C9626 1.391 . S
C9625 C9624 1.386 . S
C9625 C9629 1.393 . S
C9626 H9618 0.950 . S
C9626 C9624 1.391 . S
C9626 C9627 1.400 . S
C9627 C9626 1.400 . S
C9627 C9628 1.398 . S
C9627 C9633 1.491 . S
C9628 H9619 0.950 . S
C9628 C9627 1.398 . S
C9628 C9629 1.391 . S
C9629 H9617 0.950 . S
C9629 C9625 1.393 . S
C9629 C9628 1.391 . S
C9630 H9620 0.950 . S
C9630 C9631 1.386 . S
C9630 C9632 1.391 . S
C9631 C9630 1.386 . S
C9631 C9635 1.393 . S
C9632 H9621 0.950 . S
C9632 C9630 1.391 . S
C9632 C9633 1.400 . S
C9633 C9627 1.491 . S
C9633 C9632 1.400 . S
C9633 C9634 1.398 . S
C9634 H9622 0.950 . S
C9634 C9633 1.398 . S
C9634 C9635 1.391 . S
C9635 H9623 0.950 . S
C9635 C9631 1.393 . S
C9635 C9634 1.391 . S
H9636 C9644 0.950 . S
H9637 C9649 0.950 . S
H9638 C9646 0.950 . S
H9639 C9648 0.950 . S
H9640 C9650 0.950 . S
H9641 C9652 0.950 . S
H9642 C9654 0.950 . S
H9643 C9655 0.950 . S
C9644 H9636 0.950 . S
C9644 C9645 1.386 . S
C9644 C9646 1.391 . S
C9645 C9644 1.386 . S
C9645 C9649 1.393 . S
C9646 H9638 0.950 . S
C9646 C9644 1.391 . S
C9646 C9647 1.400 . S
C9647 C9646 1.400 . S
C9647 C9648 1.398 . S
C9647 C9653 1.491 . S
C9648 H9639 0.950 . S
C9648 C9647 1.398 . S
C9648 C9649 1.391 . S
C9649 H9637 0.950 . S
C9649 C9645 1.393 . S
C9649 C9648 1.391 . S
C9650 H9640 0.950 . S
C9650 C9651 1.386 . S
C9650 C9652 1.391 . S
C9651 C9650 1.386 . S
C9651 C9655 1.393 . S
C9652 H9641 0.950 . S
C9652 C9650 1.391 . S
C9652 C9653 1.400 . S
C9653 C9647 1.491 . S
C9653 C9652 1.400 . S
C9653 C9654 1.398 . S
C9654 H9642 0.950 . S
C9654 C9653 1.398 . S
C9654 C9655 1.391 . S
C9655 H9643 0.950 . S
C9655 C9651 1.393 . S
C9655 C9654 1.391 . S
H9656 C9664 0.950 . S
H9657 C9669 0.950 . S
H9658 C9666 0.950 . S
H9659 C9668 0.950 . S
H9660 C9670 0.950 . S
H9661 C9672 0.950 . S
H9662 C9674 0.950 . S
H9663 C9675 0.950 . S
C9664 H9656 0.950 . S
C9664 C9665 1.386 . S
C9664 C9666 1.391 . S
C9665 C9664 1.386 . S
C9665 C9669 1.393 . S
C9666 H9658 0.950 . S
C9666 C9664 1.391 . S
C9666 C9667 1.400 . S
C9667 C9666 1.400 . S
C9667 C9668 1.398 . S
C9667 C9673 1.491 . S
C9668 H9659 0.950 . S
C9668 C9667 1.398 . S
C9668 C9669 1.391 . S
C9669 H9657 0.950 . S
C9669 C9665 1.393 . S
C9669 C9668 1.391 . S
C9670 H9660 0.950 . S
C9670 C9671 1.386 . S
C9670 C9672 1.391 . S
C9671 C9670 1.386 . S
C9671 C9675 1.393 . S
C9672 H9661 0.950 . S
C9672 C9670 1.391 . S
C9672 C9673 1.400 . S
C9673 C9667 1.491 . S
C9673 C9672 1.400 . S
C9673 C9674 1.398 . S
C9674 H9662 0.950 . S
C9674 C9673 1.398 . S
C9674 C9675 1.391 . S
C9675 H9663 0.950 . S
C9675 C9671 1.393 . S
C9675 C9674 1.391 . S
H9676 C9684 0.950 . S
H9677 C9689 0.950 . S
H9678 C9686 0.950 . S
H9679 C9688 0.950 . S
H9680 C9690 0.950 . S
H9681 C9692 0.950 . S
H9682 C9694 0.950 . S
H9683 C9695 0.950 . S
C9684 H9676 0.950 . S
C9684 C9685 1.386 . S
C9684 C9686 1.391 . S
C9685 C9684 1.386 . S
C9685 C9689 1.393 . S
C9686 H9678 0.950 . S
C9686 C9684 1.391 . S
C9686 C9687 1.400 . S
C9687 C9686 1.400 . S
C9687 C9688 1.398 . S
C9687 C9693 1.491 . S
C9688 H9679 0.950 . S
C9688 C9687 1.398 . S
C9688 C9689 1.391 . S
C9689 H9677 0.950 . S
C9689 C9685 1.393 . S
C9689 C9688 1.391 . S
C9690 H9680 0.950 . S
C9690 C9691 1.386 . S
C9690 C9692 1.391 . S
C9691 C9690 1.386 . S
C9691 C9695 1.393 . S
C9692 H9681 0.950 . S
C9692 C9690 1.391 . S
C9692 C9693 1.400 . S
C9693 C9687 1.491 . S
C9693 C9692 1.400 . S
C9693 C9694 1.398 . S
C9694 H9682 0.950 . S
C9694 C9693 1.398 . S
C9694 C9695 1.391 . S
C9695 H9683 0.950 . S
C9695 C9691 1.393 . S
C9695 C9694 1.391 . S
H9696 C9704 0.950 . S
H9697 C9709 0.950 . S
H9698 C9706 0.950 . S
H9699 C9708 0.950 . S
H9700 C9710 0.950 . S
H9701 C9712 0.950 . S
H9702 C9714 0.950 . S
H9703 C9715 0.950 . S
C9704 H9696 0.950 . S
C9704 C9705 1.386 . S
C9704 C9706 1.391 . S
C9705 C9704 1.386 . S
C9705 C9709 1.393 . S
C9706 H9698 0.950 . S
C9706 C9704 1.391 . S
C9706 C9707 1.400 . S
C9707 C9706 1.400 . S
C9707 C9708 1.398 . S
C9707 C9713 1.491 . S
C9708 H9699 0.950 . S
C9708 C9707 1.398 . S
C9708 C9709 1.391 . S
C9709 H9697 0.950 . S
C9709 C9705 1.393 . S
C9709 C9708 1.391 . S
C9710 H9700 0.950 . S
C9710 C9711 1.386 . S
C9710 C9712 1.391 . S
C9711 C9710 1.386 . S
C9711 C9715 1.393 . S
C9712 H9701 0.950 . S
C9712 C9710 1.391 . S
C9712 C9713 1.400 . S
C9713 C9707 1.491 . S
C9713 C9712 1.400 . S
C9713 C9714 1.398 . S
C9714 H9702 0.950 . S
C9714 C9713 1.398 . S
C9714 C9715 1.391 . S
C9715 H9703 0.950 . S
C9715 C9711 1.393 . S
C9715 C9714 1.391 . S
H9716 C9724 0.950 . S
H9717 C9729 0.950 . S
H9718 C9726 0.950 . S
H9719 C9728 0.950 . S
H9720 C9730 0.950 . S
H9721 C9732 0.950 . S
H9722 C9734 0.950 . S
H9723 C9735 0.950 . S
C9724 H9716 0.950 . S
C9724 C9725 1.386 . S
C9724 C9726 1.391 . S
C9725 C9724 1.386 . S
C9725 C9729 1.393 . S
C9726 H9718 0.950 . S
C9726 C9724 1.391 . S
C9726 C9727 1.400 . S
C9727 C9726 1.400 . S
C9727 C9728 1.398 . S
C9727 C9733 1.491 . S
C9728 H9719 0.950 . S
C9728 C9727 1.398 . S
C9728 C9729 1.391 . S
C9729 H9717 0.950 . S
C9729 C9725 1.393 . S
C9729 C9728 1.391 . S
C9730 H9720 0.950 . S
C9730 C9731 1.386 . S
C9730 C9732 1.391 . S
C9731 C9730 1.386 . S
C9731 C9735 1.393 . S
C9732 H9721 0.950 . S
C9732 C9730 1.391 . S
C9732 C9733 1.400 . S
C9733 C9727 1.491 . S
C9733 C9732 1.400 . S
C9733 C9734 1.398 . S
C9734 H9722 0.950 . S
C9734 C9733 1.398 . S
C9734 C9735 1.391 . S
C9735 H9723 0.950 . S
C9735 C9731 1.393 . S
C9735 C9734 1.391 . S
H9736 C9744 0.950 . S
H9737 C9749 0.950 . S
H9738 C9746 0.950 . S
H9739 C9748 0.950 . S
H9740 C9750 0.950 . S
H9741 C9752 0.950 . S
H9742 C9754 0.950 . S
H9743 C9755 0.950 . S
C9744 H9736 0.950 . S
C9744 C9745 1.386 . S
C9744 C9746 1.391 . S
C9745 C9744 1.386 . S
C9745 C9749 1.393 . S
C9746 H9738 0.950 . S
C9746 C9744 1.391 . S
C9746 C9747 1.400 . S
C9747 C9746 1.400 . S
C9747 C9748 1.398 . S
C9747 C9753 1.491 . S
C9748 H9739 0.950 . S
C9748 C9747 1.398 . S
C9748 C9749 1.391 . S
C9749 H9737 0.950 . S
C9749 C9745 1.393 . S
C9749 C9748 1.391 . S
C9750 H9740 0.950 . S
C9750 C9751 1.386 . S
C9750 C9752 1.391 . S
C9751 C9750 1.386 . S
C9751 C9755 1.393 . S
C9752 H9741 0.950 . S
C9752 C9750 1.391 . S
C9752 C9753 1.400 . S
C9753 C9747 1.491 . S
C9753 C9752 1.400 . S
C9753 C9754 1.398 . S
C9754 H9742 0.950 . S
C9754 C9753 1.398 . S
C9754 C9755 1.391 . S
C9755 H9743 0.950 . S
C9755 C9751 1.393 . S
C9755 C9754 1.391 . S
H9756 C9764 0.950 . S
H9757 C9769 0.950 . S
H9758 C9766 0.950 . S
H9759 C9768 0.950 . S
H9760 C9770 0.950 . S
H9761 C9772 0.950 . S
H9762 C9774 0.950 . S
H9763 C9775 0.950 . S
C9764 H9756 0.950 . S
C9764 C9765 1.386 . S
C9764 C9766 1.391 . S
C9765 C9764 1.386 . S
C9765 C9769 1.393 . S
C9766 H9758 0.950 . S
C9766 C9764 1.391 . S
C9766 C9767 1.400 . S
C9767 C9766 1.400 . S
C9767 C9768 1.398 . S
C9767 C9773 1.491 . S
C9768 H9759 0.950 . S
C9768 C9767 1.398 . S
C9768 C9769 1.391 . S
C9769 H9757 0.950 . S
C9769 C9765 1.393 . S
C9769 C9768 1.391 . S
C9770 H9760 0.950 . S
C9770 C9771 1.386 . S
C9770 C9772 1.391 . S
C9771 C9770 1.386 . S
C9771 C9775 1.393 . S
C9772 H9761 0.950 . S
C9772 C9770 1.391 . S
C9772 C9773 1.400 . S
C9773 C9767 1.491 . S
C9773 C9772 1.400 . S
C9773 C9774 1.398 . S
C9774 H9762 0.950 . S
C9774 C9773 1.398 . S
C9774 C9775 1.391 . S
C9775 H9763 0.950 . S
C9775 C9771 1.393 . S
C9775 C9774 1.391 . S
H9776 C9784 0.950 . S
H9777 C9789 0.950 . S
H9778 C9786 0.950 . S
H9779 C9788 0.950 . S
H9780 C9790 0.950 . S
H9781 C9792 0.950 . S
H9782 C9794 0.950 . S
H9783 C9795 0.950 . S
C9784 H9776 0.950 . S
C9784 C9785 1.386 . S
C9784 C9786 1.391 . S
C9785 C9784 1.386 . S
C9785 C9789 1.393 . S
C9786 H9778 0.950 . S
C9786 C9784 1.391 . S
C9786 C9787 1.400 . S
C9787 C9786 1.400 . S
C9787 C9788 1.398 . S
C9787 C9793 1.491 . S
C9788 H9779 0.950 . S
C9788 C9787 1.398 . S
C9788 C9789 1.391 . S
C9789 H9777 0.950 . S
C9789 C9785 1.393 . S
C9789 C9788 1.391 . S
C9790 H9780 0.950 . S
C9790 C9791 1.386 . S
C9790 C9792 1.391 . S
C9791 C9790 1.386 . S
C9791 C9795 1.393 . S
C9792 H9781 0.950 . S
C9792 C9790 1.391 . S
C9792 C9793 1.400 . S
C9793 C9787 1.491 . S
C9793 C9792 1.400 . S
C9793 C9794 1.398 . S
C9794 H9782 0.950 . S
C9794 C9793 1.398 . S
C9794 C9795 1.391 . S
C9795 H9783 0.950 . S
C9795 C9791 1.393 . S
C9795 C9794 1.391 . S
H9796 C9804 0.950 . S
H9797 C9809 0.950 . S
H9798 C9806 0.950 . S
H9799 C9808 0.950 . S
H9800 C9810 0.950 . S
H9801 C9812 0.950 . S
H9802 C9814 0.950 . S
H9803 C9815 0.950 . S
C9804 H9796 0.950 . S
C9804 C9805 1.386 . S
C9804 C9806 1.391 . S
C9805 C9804 1.386 . S
C9805 C9809 1.393 . S
C9806 H9798 0.950 . S
C9806 C9804 1.391 . S
C9806 C9807 1.400 . S
C9807 C9806 1.400 . S
C9807 C9808 1.398 . S
C9807 C9813 1.491 . S
C9808 H9799 0.950 . S
C9808 C9807 1.398 . S
C9808 C9809 1.391 . S
C9809 H9797 0.950 . S
C9809 C9805 1.393 . S
C9809 C9808 1.391 . S
C9810 H9800 0.950 . S
C9810 C9811 1.386 . S
C9810 C9812 1.391 . S
C9811 C9810 1.386 . S
C9811 C9815 1.393 . S
C9812 H9801 0.950 . S
C9812 C9810 1.391 . S
C9812 C9813 1.400 . S
C9813 C9807 1.491 . S
C9813 C9812 1.400 . S
C9813 C9814 1.398 . S
C9814 H9802 0.950 . S
C9814 C9813 1.398 . S
C9814 C9815 1.391 . S
C9815 H9803 0.950 . S
C9815 C9811 1.393 . S
C9815 C9814 1.391 . S
H9816 C9824 0.950 . S
H9817 C9829 0.950 . S
H9818 C9826 0.950 . S
H9819 C9828 0.950 . S
H9820 C9830 0.950 . S
H9821 C9832 0.950 . S
H9822 C9834 0.950 . S
H9823 C9835 0.950 . S
C9824 H9816 0.950 . S
C9824 C9825 1.386 . S
C9824 C9826 1.391 . S
C9825 C9824 1.386 . S
C9825 C9829 1.393 . S
C9826 H9818 0.950 . S
C9826 C9824 1.391 . S
C9826 C9827 1.400 . S
C9827 C9826 1.400 . S
C9827 C9828 1.398 . S
C9827 C9833 1.491 . S
C9828 H9819 0.950 . S
C9828 C9827 1.398 . S
C9828 C9829 1.391 . S
C9829 H9817 0.950 . S
C9829 C9825 1.393 . S
C9829 C9828 1.391 . S
C9830 H9820 0.950 . S
C9830 C9831 1.386 . S
C9830 C9832 1.391 . S
C9831 C9830 1.386 . S
C9831 C9835 1.393 . S
C9832 H9821 0.950 . S
C9832 C9830 1.391 . S
C9832 C9833 1.400 . S
C9833 C9827 1.491 . S
C9833 C9832 1.400 . S
C9833 C9834 1.398 . S
C9834 H9822 0.950 . S
C9834 C9833 1.398 . S
C9834 C9835 1.391 . S
C9835 H9823 0.950 . S
C9835 C9831 1.393 . S
C9835 C9834 1.391 . S
H9836 C9844 0.950 . S
H9837 C9849 0.950 . S
H9838 C9846 0.950 . S
H9839 C9848 0.950 . S
H9840 C9850 0.950 . S
H9841 C9852 0.950 . S
H9842 C9854 0.950 . S
H9843 C9855 0.950 . S
C9844 H9836 0.950 . S
C9844 C9845 1.386 . S
C9844 C9846 1.391 . S
C9845 C9844 1.386 . S
C9845 C9849 1.393 . S
C9846 H9838 0.950 . S
C9846 C9844 1.391 . S
C9846 C9847 1.400 . S
C9847 C9846 1.400 . S
C9847 C9848 1.398 . S
C9847 C9853 1.491 . S
C9848 H9839 0.950 . S
C9848 C9847 1.398 . S
C9848 C9849 1.391 . S
C9849 H9837 0.950 . S
C9849 C9845 1.393 . S
C9849 C9848 1.391 . S
C9850 H9840 0.950 . S
C9850 C9851 1.386 . S
C9850 C9852 1.391 . S
C9851 C9850 1.386 . S
C9851 C9855 1.393 . S
C9852 H9841 0.950 . S
C9852 C9850 1.391 . S
C9852 C9853 1.400 . S
C9853 C9847 1.491 . S
C9853 C9852 1.400 . S
C9853 C9854 1.398 . S
C9854 H9842 0.950 . S
C9854 C9853 1.398 . S
C9854 C9855 1.391 . S
C9855 H9843 0.950 . S
C9855 C9851 1.393 . S
C9855 C9854 1.391 . S
H9856 C9864 0.950 . S
H9857 C9869 0.950 . S
H9858 C9866 0.950 . S
H9859 C9868 0.950 . S
H9860 C9870 0.950 . S
H9861 C9872 0.950 . S
H9862 C9874 0.950 . S
H9863 C9875 0.950 . S
C9864 H9856 0.950 . S
C9864 C9865 1.386 . S
C9864 C9866 1.391 . S
C9865 C9864 1.386 . S
C9865 C9869 1.393 . S
C9866 H9858 0.950 . S
C9866 C9864 1.391 . S
C9866 C9867 1.400 . S
C9867 C9866 1.400 . S
C9867 C9868 1.398 . S
C9867 C9873 1.491 . S
C9868 H9859 0.950 . S
C9868 C9867 1.398 . S
C9868 C9869 1.391 . S
C9869 H9857 0.950 . S
C9869 C9865 1.393 . S
C9869 C9868 1.391 . S
C9870 H9860 0.950 . S
C9870 C9871 1.386 . S
C9870 C9872 1.391 . S
C9871 C9870 1.386 . S
C9871 C9875 1.393 . S
C9872 H9861 0.950 . S
C9872 C9870 1.391 . S
C9872 C9873 1.400 . S
C9873 C9867 1.491 . S
C9873 C9872 1.400 . S
C9873 C9874 1.398 . S
C9874 H9862 0.950 . S
C9874 C9873 1.398 . S
C9874 C9875 1.391 . S
C9875 H9863 0.950 . S
C9875 C9871 1.393 . S
C9875 C9874 1.391 . S
H9876 C9884 0.950 . S
H9877 C9889 0.950 . S
H9878 C9886 0.950 . S
H9879 C9888 0.950 . S
H9880 C9890 0.950 . S
H9881 C9892 0.950 . S
H9882 C9894 0.950 . S
H9883 C9895 0.950 . S
C9884 H9876 0.950 . S
C9884 C9885 1.386 . S
C9884 C9886 1.391 . S
C9885 C9884 1.386 . S
C9885 C9889 1.393 . S
C9886 H9878 0.950 . S
C9886 C9884 1.391 . S
C9886 C9887 1.400 . S
C9887 C9886 1.400 . S
C9887 C9888 1.398 . S
C9887 C9893 1.491 . S
C9888 H9879 0.950 . S
C9888 C9887 1.398 . S
C9888 C9889 1.391 . S
C9889 H9877 0.950 . S
C9889 C9885 1.393 . S
C9889 C9888 1.391 . S
C9890 H9880 0.950 . S
C9890 C9891 1.386 . S
C9890 C9892 1.391 . S
C9891 C9890 1.386 . S
C9891 C9895 1.393 . S
C9892 H9881 0.950 . S
C9892 C9890 1.391 . S
C9892 C9893 1.400 . S
C9893 C9887 1.491 . S
C9893 C9892 1.400 . S
C9893 C9894 1.398 . S
C9894 H9882 0.950 . S
C9894 C9893 1.398 . S
C9894 C9895 1.391 . S
C9895 H9883 0.950 . S
C9895 C9891 1.393 . S
C9895 C9894 1.391 . S
H9896 C9904 0.950 . S
H9897 C9909 0.950 . S
H9898 C9906 0.950 . S
H9899 C9908 0.950 . S
H9900 C9910 0.950 . S
H9901 C9912 0.950 . S
H9902 C9914 0.950 . S
H9903 C9915 0.950 . S
C9904 H9896 0.950 . S
C9904 C9905 1.386 . S
C9904 C9906 1.391 . S
C9905 C9904 1.386 . S
C9905 C9909 1.393 . S
C9906 H9898 0.950 . S
C9906 C9904 1.391 . S
C9906 C9907 1.400 . S
C9907 C9906 1.400 . S
C9907 C9908 1.398 . S
C9907 C9913 1.491 . S
C9908 H9899 0.950 . S
C9908 C9907 1.398 . S
C9908 C9909 1.391 . S
C9909 H9897 0.950 . S
C9909 C9905 1.393 . S
C9909 C9908 1.391 . S
C9910 H9900 0.950 . S
C9910 C9911 1.386 . S
C9910 C9912 1.391 . S
C9911 C9910 1.386 . S
C9911 C9915 1.393 . S
C9912 H9901 0.950 . S
C9912 C9910 1.391 . S
C9912 C9913 1.400 . S
C9913 C9907 1.491 . S
C9913 C9912 1.400 . S
C9913 C9914 1.398 . S
C9914 H9902 0.950 . S
C9914 C9913 1.398 . S
C9914 C9915 1.391 . S
C9915 H9903 0.950 . S
C9915 C9911 1.393 . S
C9915 C9914 1.391 . S
H9916 C9924 0.950 . S
H9917 C9929 0.950 . S
H9918 C9926 0.950 . S
H9919 C9928 0.950 . S
H9920 C9930 0.950 . S
H9921 C9932 0.950 . S
H9922 C9934 0.950 . S
H9923 C9935 0.950 . S
C9924 H9916 0.950 . S
C9924 C9925 1.386 . S
C9924 C9926 1.391 . S
C9925 C9924 1.386 . S
C9925 C9929 1.393 . S
C9926 H9918 0.950 . S
C9926 C9924 1.391 . S
C9926 C9927 1.400 . S
C9927 C9926 1.400 . S
C9927 C9928 1.398 . S
C9927 C9933 1.491 . S
C9928 H9919 0.950 . S
C9928 C9927 1.398 . S
C9928 C9929 1.391 . S
C9929 H9917 0.950 . S
C9929 C9925 1.393 . S
C9929 C9928 1.391 . S
C9930 H9920 0.950 . S
C9930 C9931 1.386 . S
C9930 C9932 1.391 . S
C9931 C9930 1.386 . S
C9931 C9935 1.393 . S
C9932 H9921 0.950 . S
C9932 C9930 1.391 . S
C9932 C9933 1.400 . S
C9933 C9927 1.491 . S
C9933 C9932 1.400 . S
C9933 C9934 1.398 . S
C9934 H9922 0.950 . S
C9934 C9933 1.398 . S
C9934 C9935 1.391 . S
C9935 H9923 0.950 . S
C9935 C9931 1.393 . S
C9935 C9934 1.391 . S
H9936 C9944 0.950 . S
H9937 C9949 0.950 . S
H9938 C9946 0.950 . S
H9939 C9948 0.950 . S
H9940 C9950 0.950 . S
H9941 C9952 0.950 . S
H9942 C9954 0.950 . S
H9943 C9955 0.950 . S
C9944 H9936 0.950 . S
C9944 C9945 1.386 . S
C9944 C9946 1.391 . S
C9945 C9944 1.386 . S
C9945 C9949 1.393 . S
C9946 H9938 0.950 . S
C9946 C9944 1.391 . S
C9946 C9947 1.400 . S
C9947 C9946 1.400 . S
C9947 C9948 1.398 . S
C9947 C9953 1.491 . S
C9948 H9939 0.950 . S
C9948 C9947 1.398 . S
C9948 C9949 1.391 . S
C9949 H9937 0.950 . S
C9949 C9945 1.393 . S
C9949 C9948 1.391 . S
C9950 H9940 0.950 . S
C9950 C9951 1.386 . S
C9950 C9952 1.391 . S
C9951 C9950 1.386 . S
C9951 C9955 1.393 . S
C9952 H9941 0.950 . S
C9952 C9950 1.391 . S
C9952 C9953 1.400 . S
C9953 C9947 1.491 . S
C9953 C9952 1.400 . S
C9953 C9954 1.398 . S
C9954 H9942 0.950 . S
C9954 C9953 1.398 . S
C9954 C9955 1.391 . S
C9955 H9943 0.950 . S
C9955 C9951 1.393 . S
C9955 C9954 1.391 . S
H9956 C9964 0.950 . S
H9957 C9969 0.950 . S
H9958 C9966 0.950 . S
H9959 C9968 0.950 . S
H9960 C9970 0.950 . S
H9961 C9972 0.950 . S
H9962 C9974 0.950 . S
H9963 C9975 0.950 . S
C9964 H9956 0.950 . S
C9964 C9965 1.386 . S
C9964 C9966 1.391 . S
C9965 C9964 1.386 . S
C9965 C9969 1.393 . S
C9966 H9958 0.950 . S
C9966 C9964 1.391 . S
C9966 C9967 1.400 . S
C9967 C9966 1.400 . S
C9967 C9968 1.398 . S
C9967 C9973 1.491 . S
C9968 H9959 0.950 . S
C9968 C9967 1.398 . S
C9968 C9969 1.391 . S
C9969 H9957 0.950 . S
C9969 C9965 1.393 . S
C9969 C9968 1.391 . S
C9970 H9960 0.950 . S
C9970 C9971 1.386 . S
C9970 C9972 1.391 . S
C9971 C9970 1.386 . S
C9971 C9975 1.393 . S
C9972 H9961 0.950 . S
C9972 C9970 1.391 . S
C9972 C9973 1.400 . S
C9973 C9967 1.491 . S
C9973 C9972 1.400 . S
C9973 C9974 1.398 . S
C9974 H9962 0.950 . S
C9974 C9973 1.398 . S
C9974 C9975 1.391 . S
C9975 H9963 0.950 . S
C9975 C9971 1.393 . S
C9975 C9974 1.391 . S
H9976 C9984 0.950 . S
H9977 C9989 0.950 . S
H9978 C9986 0.950 . S
H9979 C9988 0.950 . S
H9980 C9990 0.950 . S
H9981 C9992 0.950 . S
H9982 C9994 0.950 . S
H9983 C9995 0.950 . S
C9984 H9976 0.950 . S
C9984 C9985 1.386 . S
C9984 C9986 1.391 . S
C9985 C9984 1.386 . S
C9985 C9989 1.393 . S
C9986 H9978 0.950 . S
C9986 C9984 1.391 . S
C9986 C9987 1.400 . S
C9987 C9986 1.400 . S
C9987 C9988 1.398 . S
C9987 C9993 1.491 . S
C9988 H9979 0.950 . S
C9988 C9987 1.398 . S
C9988 C9989 1.391 . S
C9989 H9977 0.950 . S
C9989 C9985 1.393 . S
C9989 C9988 1.391 . S
C9990 H9980 0.950 . S
C9990 C9991 1.386 . S
C9990 C9992 1.391 . S
C9991 C9990 1.386 . S
C9991 C9995 1.393 . S
C9992 H9981 0.950 . S
C9992 C9990 1.391 . S
C9992 C9993 1.400 . S
C9993 C9987 1.491 . S
C9993 C9992 1.400 . S
C9993 C9994 1.398 . S
C9994 H9982 0.950 . S
C9994 C9993 1.398 . S
C9994 C9995 1.391 . S
C9995 H9983 0.950 . S
C9995 C9991 1.393 . S
C9995 C9994 1.391 . S
H9996 C10004 0.950 . S
H9997 C10009 0.950 . S
H9998 C10006 0.950 . S
H9999 C10008 0.950 . S
H10000 C10010 0.950 . S
H10001 C10012 0.950 . S
H10002 C10014 0.950 . S
H10003 C10015 0.950 . S
C10004 H9996 0.950 . S
C10004 C10005 1.386 . S
C10004 C10006 1.391 . S
C10005 C10004 1.386 . S
C10005 C10009 1.393 . S
C10006 H9998 0.950 . S
C10006 C10004 1.391 . S
C10006 C10007 1.400 . S
C10007 C10006 1.400 . S
C10007 C10008 1.398 . S
C10007 C10013 1.491 . S
C10008 H9999 0.950 . S
C10008 C10007 1.398 . S
C10008 C10009 1.391 . S
C10009 H9997 0.950 . S
C10009 C10005 1.393 . S
C10009 C10008 1.391 . S
C10010 H10000 0.950 . S
C10010 C10011 1.386 . S
C10010 C10012 1.391 . S
C10011 C10010 1.386 . S
C10011 C10015 1.393 . S
C10012 H10001 0.950 . S
C10012 C10010 1.391 . S
C10012 C10013 1.400 . S
C10013 C10007 1.491 . S
C10013 C10012 1.400 . S
C10013 C10014 1.398 . S
C10014 H10002 0.950 . S
C10014 C10013 1.398 . S
C10014 C10015 1.391 . S
C10015 H10003 0.950 . S
C10015 C10011 1.393 . S
C10015 C10014 1.391 . S
H10016 C10024 0.950 . S
H10017 C10029 0.950 . S
H10018 C10026 0.950 . S
H10019 C10028 0.950 . S
H10020 C10030 0.950 . S
H10021 C10032 0.950 . S
H10022 C10034 0.950 . S
H10023 C10035 0.950 . S
C10024 H10016 0.950 . S
C10024 C10025 1.386 . S
C10024 C10026 1.391 . S
C10025 C10024 1.386 . S
C10025 C10029 1.393 . S
C10026 H10018 0.950 . S
C10026 C10024 1.391 . S
C10026 C10027 1.400 . S
C10027 C10026 1.400 . S
C10027 C10028 1.398 . S
C10027 C10033 1.491 . S
C10028 H10019 0.950 . S
C10028 C10027 1.398 . S
C10028 C10029 1.391 . S
C10029 H10017 0.950 . S
C10029 C10025 1.393 . S
C10029 C10028 1.391 . S
C10030 H10020 0.950 . S
C10030 C10031 1.386 . S
C10030 C10032 1.391 . S
C10031 C10030 1.386 . S
C10031 C10035 1.393 . S
C10032 H10021 0.950 . S
C10032 C10030 1.391 . S
C10032 C10033 1.400 . S
C10033 C10027 1.491 . S
C10033 C10032 1.400 . S
C10033 C10034 1.398 . S
C10034 H10022 0.950 . S
C10034 C10033 1.398 . S
C10034 C10035 1.391 . S
C10035 H10023 0.950 . S
C10035 C10031 1.393 . S
C10035 C10034 1.391 . S
H10036 C10044 0.950 . S
H10037 C10049 0.950 . S
H10038 C10046 0.950 . S
H10039 C10048 0.950 . S
H10040 C10050 0.950 . S
H10041 C10052 0.950 . S
H10042 C10054 0.950 . S
H10043 C10055 0.950 . S
C10044 H10036 0.950 . S
C10044 C10045 1.386 . S
C10044 C10046 1.391 . S
C10045 C10044 1.386 . S
C10045 C10049 1.393 . S
C10046 H10038 0.950 . S
C10046 C10044 1.391 . S
C10046 C10047 1.400 . S
C10047 C10046 1.400 . S
C10047 C10048 1.398 . S
C10047 C10053 1.491 . S
C10048 H10039 0.950 . S
C10048 C10047 1.398 . S
C10048 C10049 1.391 . S
C10049 H10037 0.950 . S
C10049 C10045 1.393 . S
C10049 C10048 1.391 . S
C10050 H10040 0.950 . S
C10050 C10051 1.386 . S
C10050 C10052 1.391 . S
C10051 C10050 1.386 . S
C10051 C10055 1.393 . S
C10052 H10041 0.950 . S
C10052 C10050 1.391 . S
C10052 C10053 1.400 . S
C10053 C10047 1.491 . S
C10053 C10052 1.400 . S
C10053 C10054 1.398 . S
C10054 H10042 0.950 . S
C10054 C10053 1.398 . S
C10054 C10055 1.391 . S
C10055 H10043 0.950 . S
C10055 C10051 1.393 . S
C10055 C10054 1.391 . S
H10056 C10064 0.950 . S
H10057 C10069 0.950 . S
H10058 C10066 0.950 . S
H10059 C10068 0.950 . S
H10060 C10070 0.950 . S
H10061 C10072 0.950 . S
H10062 C10074 0.950 . S
H10063 C10075 0.950 . S
C10064 H10056 0.950 . S
C10064 C10065 1.386 . S
C10064 C10066 1.391 . S
C10065 C10064 1.386 . S
C10065 C10069 1.393 . S
C10066 H10058 0.950 . S
C10066 C10064 1.391 . S
C10066 C10067 1.400 . S
C10067 C10066 1.400 . S
C10067 C10068 1.398 . S
C10067 C10073 1.491 . S
C10068 H10059 0.950 . S
C10068 C10067 1.398 . S
C10068 C10069 1.391 . S
C10069 H10057 0.950 . S
C10069 C10065 1.393 . S
C10069 C10068 1.391 . S
C10070 H10060 0.950 . S
C10070 C10071 1.386 . S
C10070 C10072 1.391 . S
C10071 C10070 1.386 . S
C10071 C10075 1.393 . S
C10072 H10061 0.950 . S
C10072 C10070 1.391 . S
C10072 C10073 1.400 . S
C10073 C10067 1.491 . S
C10073 C10072 1.400 . S
C10073 C10074 1.398 . S
C10074 H10062 0.950 . S
C10074 C10073 1.398 . S
C10074 C10075 1.391 . S
C10075 H10063 0.950 . S
C10075 C10071 1.393 . S
C10075 C10074 1.391 . S
H10076 C10084 0.950 . S
H10077 C10089 0.950 . S
H10078 C10086 0.950 . S
H10079 C10088 0.950 . S
H10080 C10090 0.950 . S
H10081 C10092 0.950 . S
H10082 C10094 0.950 . S
H10083 C10095 0.950 . S
C10084 H10076 0.950 . S
C10084 C10085 1.386 . S
C10084 C10086 1.391 . S
C10085 C10084 1.386 . S
C10085 C10089 1.393 . S
C10086 H10078 0.950 . S
C10086 C10084 1.391 . S
C10086 C10087 1.400 . S
C10087 C10086 1.400 . S
C10087 C10088 1.398 . S
C10087 C10093 1.491 . S
C10088 H10079 0.950 . S
C10088 C10087 1.398 . S
C10088 C10089 1.391 . S
C10089 H10077 0.950 . S
C10089 C10085 1.393 . S
C10089 C10088 1.391 . S
C10090 H10080 0.950 . S
C10090 C10091 1.386 . S
C10090 C10092 1.391 . S
C10091 C10090 1.386 . S
C10091 C10095 1.393 . S
C10092 H10081 0.950 . S
C10092 C10090 1.391 . S
C10092 C10093 1.400 . S
C10093 C10087 1.491 . S
C10093 C10092 1.400 . S
C10093 C10094 1.398 . S
C10094 H10082 0.950 . S
C10094 C10093 1.398 . S
C10094 C10095 1.391 . S
C10095 H10083 0.950 . S
C10095 C10091 1.393 . S
C10095 C10094 1.391 . S
H10096 C10104 0.950 . S
H10097 C10109 0.950 . S
H10098 C10106 0.950 . S
H10099 C10108 0.950 . S
H10100 C10110 0.950 . S
H10101 C10112 0.950 . S
H10102 C10114 0.950 . S
H10103 C10115 0.950 . S
C10104 H10096 0.950 . S
C10104 C10105 1.386 . S
C10104 C10106 1.391 . S
C10105 C10104 1.386 . S
C10105 C10109 1.393 . S
C10106 H10098 0.950 . S
C10106 C10104 1.391 . S
C10106 C10107 1.400 . S
C10107 C10106 1.400 . S
C10107 C10108 1.398 . S
C10107 C10113 1.491 . S
C10108 H10099 0.950 . S
C10108 C10107 1.398 . S
C10108 C10109 1.391 . S
C10109 H10097 0.950 . S
C10109 C10105 1.393 . S
C10109 C10108 1.391 . S
C10110 H10100 0.950 . S
C10110 C10111 1.386 . S
C10110 C10112 1.391 . S
C10111 C10110 1.386 . S
C10111 C10115 1.393 . S
C10112 H10101 0.950 . S
C10112 C10110 1.391 . S
C10112 C10113 1.400 . S
C10113 C10107 1.491 . S
C10113 C10112 1.400 . S
C10113 C10114 1.398 . S
C10114 H10102 0.950 . S
C10114 C10113 1.398 . S
C10114 C10115 1.391 . S
C10115 H10103 0.950 . S
C10115 C10111 1.393 . S
C10115 C10114 1.391 . S
H10116 C10124 0.950 . S
H10117 C10129 0.950 . S
H10118 C10126 0.950 . S
H10119 C10128 0.950 . S
H10120 C10130 0.950 . S
H10121 C10132 0.950 . S
H10122 C10134 0.950 . S
H10123 C10135 0.950 . S
C10124 H10116 0.950 . S
C10124 C10125 1.386 . S
C10124 C10126 1.391 . S
C10125 C10124 1.386 . S
C10125 C10129 1.393 . S
C10126 H10118 0.950 . S
C10126 C10124 1.391 . S
C10126 C10127 1.400 . S
C10127 C10126 1.400 . S
C10127 C10128 1.398 . S
C10127 C10133 1.491 . S
C10128 H10119 0.950 . S
C10128 C10127 1.398 . S
C10128 C10129 1.391 . S
C10129 H10117 0.950 . S
C10129 C10125 1.393 . S
C10129 C10128 1.391 . S
C10130 H10120 0.950 . S
C10130 C10131 1.386 . S
C10130 C10132 1.391 . S
C10131 C10130 1.386 . S
C10131 C10135 1.393 . S
C10132 H10121 0.950 . S
C10132 C10130 1.391 . S
C10132 C10133 1.400 . S
C10133 C10127 1.491 . S
C10133 C10132 1.400 . S
C10133 C10134 1.398 . S
C10134 H10122 0.950 . S
C10134 C10133 1.398 . S
C10134 C10135 1.391 . S
C10135 H10123 0.950 . S
C10135 C10131 1.393 . S
C10135 C10134 1.391 . S
H10136 C10144 0.950 . S
H10137 C10149 0.950 . S
H10138 C10146 0.950 . S
H10139 C10148 0.950 . S
H10140 C10150 0.950 . S
H10141 C10152 0.950 . S
H10142 C10154 0.950 . S
H10143 C10155 0.950 . S
C10144 H10136 0.950 . S
C10144 C10145 1.386 . S
C10144 C10146 1.391 . S
C10145 C10144 1.386 . S
C10145 C10149 1.393 . S
C10146 H10138 0.950 . S
C10146 C10144 1.391 . S
C10146 C10147 1.400 . S
C10147 C10146 1.400 . S
C10147 C10148 1.398 . S
C10147 C10153 1.491 . S
C10148 H10139 0.950 . S
C10148 C10147 1.398 . S
C10148 C10149 1.391 . S
C10149 H10137 0.950 . S
C10149 C10145 1.393 . S
C10149 C10148 1.391 . S
C10150 H10140 0.950 . S
C10150 C10151 1.386 . S
C10150 C10152 1.391 . S
C10151 C10150 1.386 . S
C10151 C10155 1.393 . S
C10152 H10141 0.950 . S
C10152 C10150 1.391 . S
C10152 C10153 1.400 . S
C10153 C10147 1.491 . S
C10153 C10152 1.400 . S
C10153 C10154 1.398 . S
C10154 H10142 0.950 . S
C10154 C10153 1.398 . S
C10154 C10155 1.391 . S
C10155 H10143 0.950 . S
C10155 C10151 1.393 . S
C10155 C10154 1.391 . S
H10156 C10164 0.950 . S
H10157 C10169 0.950 . S
H10158 C10166 0.950 . S
H10159 C10168 0.950 . S
H10160 C10170 0.950 . S
H10161 C10172 0.950 . S
H10162 C10174 0.950 . S
H10163 C10175 0.950 . S
C10164 H10156 0.950 . S
C10164 C10165 1.386 . S
C10164 C10166 1.391 . S
C10165 C10164 1.386 . S
C10165 C10169 1.393 . S
C10166 H10158 0.950 . S
C10166 C10164 1.391 . S
C10166 C10167 1.400 . S
C10167 C10166 1.400 . S
C10167 C10168 1.398 . S
C10167 C10173 1.491 . S
C10168 H10159 0.950 . S
C10168 C10167 1.398 . S
C10168 C10169 1.391 . S
C10169 H10157 0.950 . S
C10169 C10165 1.393 . S
C10169 C10168 1.391 . S
C10170 H10160 0.950 . S
C10170 C10171 1.386 . S
C10170 C10172 1.391 . S
C10171 C10170 1.386 . S
C10171 C10175 1.393 . S
C10172 H10161 0.950 . S
C10172 C10170 1.391 . S
C10172 C10173 1.400 . S
C10173 C10167 1.491 . S
C10173 C10172 1.400 . S
C10173 C10174 1.398 . S
C10174 H10162 0.950 . S
C10174 C10173 1.398 . S
C10174 C10175 1.391 . S
C10175 H10163 0.950 . S
C10175 C10171 1.393 . S
C10175 C10174 1.391 . S
H10176 C10184 0.950 . S
H10177 C10189 0.950 . S
H10178 C10186 0.950 . S
H10179 C10188 0.950 . S
H10180 C10190 0.950 . S
H10181 C10192 0.950 . S
H10182 C10194 0.950 . S
H10183 C10195 0.950 . S
C10184 H10176 0.950 . S
C10184 C10185 1.386 . S
C10184 C10186 1.391 . S
C10185 C10184 1.386 . S
C10185 C10189 1.393 . S
C10186 H10178 0.950 . S
C10186 C10184 1.391 . S
C10186 C10187 1.400 . S
C10187 C10186 1.400 . S
C10187 C10188 1.398 . S
C10187 C10193 1.491 . S
C10188 H10179 0.950 . S
C10188 C10187 1.398 . S
C10188 C10189 1.391 . S
C10189 H10177 0.950 . S
C10189 C10185 1.393 . S
C10189 C10188 1.391 . S
C10190 H10180 0.950 . S
C10190 C10191 1.386 . S
C10190 C10192 1.391 . S
C10191 C10190 1.386 . S
C10191 C10195 1.393 . S
C10192 H10181 0.950 . S
C10192 C10190 1.391 . S
C10192 C10193 1.400 . S
C10193 C10187 1.491 . S
C10193 C10192 1.400 . S
C10193 C10194 1.398 . S
C10194 H10182 0.950 . S
C10194 C10193 1.398 . S
C10194 C10195 1.391 . S
C10195 H10183 0.950 . S
C10195 C10191 1.393 . S
C10195 C10194 1.391 . S
H10196 C10204 0.950 . S
H10197 C10209 0.950 . S
H10198 C10206 0.950 . S
H10199 C10208 0.950 . S
H10200 C10210 0.950 . S
H10201 C10212 0.950 . S
H10202 C10214 0.950 . S
H10203 C10215 0.950 . S
C10204 H10196 0.950 . S
C10204 C10205 1.386 . S
C10204 C10206 1.391 . S
C10205 C10204 1.386 . S
C10205 C10209 1.393 . S
C10206 H10198 0.950 . S
C10206 C10204 1.391 . S
C10206 C10207 1.400 . S
C10207 C10206 1.400 . S
C10207 C10208 1.398 . S
C10207 C10213 1.491 . S
C10208 H10199 0.950 . S
C10208 C10207 1.398 . S
C10208 C10209 1.391 . S
C10209 H10197 0.950 . S
C10209 C10205 1.393 . S
C10209 C10208 1.391 . S
C10210 H10200 0.950 . S
C10210 C10211 1.386 . S
C10210 C10212 1.391 . S
C10211 C10210 1.386 . S
C10211 C10215 1.393 . S
C10212 H10201 0.950 . S
C10212 C10210 1.391 . S
C10212 C10213 1.400 . S
C10213 C10207 1.491 . S
C10213 C10212 1.400 . S
C10213 C10214 1.398 . S
C10214 H10202 0.950 . S
C10214 C10213 1.398 . S
C10214 C10215 1.391 . S
C10215 H10203 0.950 . S
C10215 C10211 1.393 . S
C10215 C10214 1.391 . S
H10216 C10224 0.950 . S
H10217 C10229 0.950 . S
H10218 C10226 0.950 . S
H10219 C10228 0.950 . S
H10220 C10230 0.950 . S
H10221 C10232 0.950 . S
H10222 C10234 0.950 . S
H10223 C10235 0.950 . S
C10224 H10216 0.950 . S
C10224 C10225 1.386 . S
C10224 C10226 1.391 . S
C10225 C10224 1.386 . S
C10225 C10229 1.393 . S
C10226 H10218 0.950 . S
C10226 C10224 1.391 . S
C10226 C10227 1.400 . S
C10227 C10226 1.400 . S
C10227 C10228 1.398 . S
C10227 C10233 1.491 . S
C10228 H10219 0.950 . S
C10228 C10227 1.398 . S
C10228 C10229 1.391 . S
C10229 H10217 0.950 . S
C10229 C10225 1.393 . S
C10229 C10228 1.391 . S
C10230 H10220 0.950 . S
C10230 C10231 1.386 . S
C10230 C10232 1.391 . S
C10231 C10230 1.386 . S
C10231 C10235 1.393 . S
C10232 H10221 0.950 . S
C10232 C10230 1.391 . S
C10232 C10233 1.400 . S
C10233 C10227 1.491 . S
C10233 C10232 1.400 . S
C10233 C10234 1.398 . S
C10234 H10222 0.950 . S
C10234 C10233 1.398 . S
C10234 C10235 1.391 . S
C10235 H10223 0.950 . S
C10235 C10231 1.393 . S
C10235 C10234 1.391 . S
H10236 C10244 0.950 . S
H10237 C10249 0.950 . S
H10238 C10246 0.950 . S
H10239 C10248 0.950 . S
H10240 C10250 0.950 . S
H10241 C10252 0.950 . S
H10242 C10254 0.950 . S
H10243 C10255 0.950 . S
C10244 H10236 0.950 . S
C10244 C10245 1.386 . S
C10244 C10246 1.391 . S
C10245 C10244 1.386 . S
C10245 C10249 1.393 . S
C10246 H10238 0.950 . S
C10246 C10244 1.391 . S
C10246 C10247 1.400 . S
C10247 C10246 1.400 . S
C10247 C10248 1.398 . S
C10247 C10253 1.491 . S
C10248 H10239 0.950 . S
C10248 C10247 1.398 . S
C10248 C10249 1.391 . S
C10249 H10237 0.950 . S
C10249 C10245 1.393 . S
C10249 C10248 1.391 . S
C10250 H10240 0.950 . S
C10250 C10251 1.386 . S
C10250 C10252 1.391 . S
C10251 C10250 1.386 . S
C10251 C10255 1.393 . S
C10252 H10241 0.950 . S
C10252 C10250 1.391 . S
C10252 C10253 1.400 . S
C10253 C10247 1.491 . S
C10253 C10252 1.400 . S
C10253 C10254 1.398 . S
C10254 H10242 0.950 . S
C10254 C10253 1.398 . S
C10254 C10255 1.391 . S
C10255 H10243 0.950 . S
C10255 C10251 1.393 . S
C10255 C10254 1.391 . S
H10256 C10264 0.950 . S
H10257 C10269 0.950 . S
H10258 C10266 0.950 . S
H10259 C10268 0.950 . S
H10260 C10270 0.950 . S
H10261 C10272 0.950 . S
H10262 C10274 0.950 . S
H10263 C10275 0.950 . S
C10264 H10256 0.950 . S
C10264 C10265 1.386 . S
C10264 C10266 1.391 . S
C10265 C10264 1.386 . S
C10265 C10269 1.393 . S
C10266 H10258 0.950 . S
C10266 C10264 1.391 . S
C10266 C10267 1.400 . S
C10267 C10266 1.400 . S
C10267 C10268 1.398 . S
C10267 C10273 1.491 . S
C10268 H10259 0.950 . S
C10268 C10267 1.398 . S
C10268 C10269 1.391 . S
C10269 H10257 0.950 . S
C10269 C10265 1.393 . S
C10269 C10268 1.391 . S
C10270 H10260 0.950 . S
C10270 C10271 1.386 . S
C10270 C10272 1.391 . S
C10271 C10270 1.386 . S
C10271 C10275 1.393 . S
C10272 H10261 0.950 . S
C10272 C10270 1.391 . S
C10272 C10273 1.400 . S
C10273 C10267 1.491 . S
C10273 C10272 1.400 . S
C10273 C10274 1.398 . S
C10274 H10262 0.950 . S
C10274 C10273 1.398 . S
C10274 C10275 1.391 . S
C10275 H10263 0.950 . S
C10275 C10271 1.393 . S
C10275 C10274 1.391 . S
H10276 C10284 0.950 . S
H10277 C10289 0.950 . S
H10278 C10286 0.950 . S
H10279 C10288 0.950 . S
H10280 C10290 0.950 . S
H10281 C10292 0.950 . S
H10282 C10294 0.950 . S
H10283 C10295 0.950 . S
C10284 H10276 0.950 . S
C10284 C10285 1.386 . S
C10284 C10286 1.391 . S
C10285 C10284 1.386 . S
C10285 C10289 1.393 . S
C10286 H10278 0.950 . S
C10286 C10284 1.391 . S
C10286 C10287 1.400 . S
C10287 C10286 1.400 . S
C10287 C10288 1.398 . S
C10287 C10293 1.491 . S
C10288 H10279 0.950 . S
C10288 C10287 1.398 . S
C10288 C10289 1.391 . S
C10289 H10277 0.950 . S
C10289 C10285 1.393 . S
C10289 C10288 1.391 . S
C10290 H10280 0.950 . S
C10290 C10291 1.386 . S
C10290 C10292 1.391 . S
C10291 C10290 1.386 . S
C10291 C10295 1.393 . S
C10292 H10281 0.950 . S
C10292 C10290 1.391 . S
C10292 C10293 1.400 . S
C10293 C10287 1.491 . S
C10293 C10292 1.400 . S
C10293 C10294 1.398 . S
C10294 H10282 0.950 . S
C10294 C10293 1.398 . S
C10294 C10295 1.391 . S
C10295 H10283 0.950 . S
C10295 C10291 1.393 . S
C10295 C10294 1.391 . S
H10296 C10304 0.950 . S
H10297 C10309 0.950 . S
H10298 C10306 0.950 . S
H10299 C10308 0.950 . S
H10300 C10310 0.950 . S
H10301 C10312 0.950 . S
H10302 C10314 0.950 . S
H10303 C10315 0.950 . S
C10304 H10296 0.950 . S
C10304 C10305 1.386 . S
C10304 C10306 1.391 . S
C10305 C10304 1.386 . S
C10305 C10309 1.393 . S
C10306 H10298 0.950 . S
C10306 C10304 1.391 . S
C10306 C10307 1.400 . S
C10307 C10306 1.400 . S
C10307 C10308 1.398 . S
C10307 C10313 1.491 . S
C10308 H10299 0.950 . S
C10308 C10307 1.398 . S
C10308 C10309 1.391 . S
C10309 H10297 0.950 . S
C10309 C10305 1.393 . S
C10309 C10308 1.391 . S
C10310 H10300 0.950 . S
C10310 C10311 1.386 . S
C10310 C10312 1.391 . S
C10311 C10310 1.386 . S
C10311 C10315 1.393 . S
C10312 H10301 0.950 . S
C10312 C10310 1.391 . S
C10312 C10313 1.400 . S
C10313 C10307 1.491 . S
C10313 C10312 1.400 . S
C10313 C10314 1.398 . S
C10314 H10302 0.950 . S
C10314 C10313 1.398 . S
C10314 C10315 1.391 . S
C10315 H10303 0.950 . S
C10315 C10311 1.393 . S
C10315 C10314 1.391 . S
H10316 C10324 0.950 . S
H10317 C10329 0.950 . S
H10318 C10326 0.950 . S
H10319 C10328 0.950 . S
H10320 C10330 0.950 . S
H10321 C10332 0.950 . S
H10322 C10334 0.950 . S
H10323 C10335 0.950 . S
C10324 H10316 0.950 . S
C10324 C10325 1.386 . S
C10324 C10326 1.391 . S
C10325 C10324 1.386 . S
C10325 C10329 1.393 . S
C10326 H10318 0.950 . S
C10326 C10324 1.391 . S
C10326 C10327 1.400 . S
C10327 C10326 1.400 . S
C10327 C10328 1.398 . S
C10327 C10333 1.491 . S
C10328 H10319 0.950 . S
C10328 C10327 1.398 . S
C10328 C10329 1.391 . S
C10329 H10317 0.950 . S
C10329 C10325 1.393 . S
C10329 C10328 1.391 . S
C10330 H10320 0.950 . S
C10330 C10331 1.386 . S
C10330 C10332 1.391 . S
C10331 C10330 1.386 . S
C10331 C10335 1.393 . S
C10332 H10321 0.950 . S
C10332 C10330 1.391 . S
C10332 C10333 1.400 . S
C10333 C10327 1.491 . S
C10333 C10332 1.400 . S
C10333 C10334 1.398 . S
C10334 H10322 0.950 . S
C10334 C10333 1.398 . S
C10334 C10335 1.391 . S
C10335 H10323 0.950 . S
C10335 C10331 1.393 . S
C10335 C10334 1.391 . S
H10336 C10344 0.950 . S
H10337 C10349 0.950 . S
H10338 C10346 0.950 . S
H10339 C10348 0.950 . S
H10340 C10350 0.950 . S
H10341 C10352 0.950 . S
H10342 C10354 0.950 . S
H10343 C10355 0.950 . S
C10344 H10336 0.950 . S
C10344 C10345 1.386 . S
C10344 C10346 1.391 . S
C10345 C10344 1.386 . S
C10345 C10349 1.393 . S
C10346 H10338 0.950 . S
C10346 C10344 1.391 . S
C10346 C10347 1.400 . S
C10347 C10346 1.400 . S
C10347 C10348 1.398 . S
C10347 C10353 1.491 . S
C10348 H10339 0.950 . S
C10348 C10347 1.398 . S
C10348 C10349 1.391 . S
C10349 H10337 0.950 . S
C10349 C10345 1.393 . S
C10349 C10348 1.391 . S
C10350 H10340 0.950 . S
C10350 C10351 1.386 . S
C10350 C10352 1.391 . S
C10351 C10350 1.386 . S
C10351 C10355 1.393 . S
C10352 H10341 0.950 . S
C10352 C10350 1.391 . S
C10352 C10353 1.400 . S
C10353 C10347 1.491 . S
C10353 C10352 1.400 . S
C10353 C10354 1.398 . S
C10354 H10342 0.950 . S
C10354 C10353 1.398 . S
C10354 C10355 1.391 . S
C10355 H10343 0.950 . S
C10355 C10351 1.393 . S
C10355 C10354 1.391 . S
H10356 C10364 0.950 . S
H10357 C10369 0.950 . S
H10358 C10366 0.950 . S
H10359 C10368 0.950 . S
H10360 C10370 0.950 . S
H10361 C10372 0.950 . S
H10362 C10374 0.950 . S
H10363 C10375 0.950 . S
C10364 H10356 0.950 . S
C10364 C10365 1.386 . S
C10364 C10366 1.391 . S
C10365 C10364 1.386 . S
C10365 C10369 1.393 . S
C10366 H10358 0.950 . S
C10366 C10364 1.391 . S
C10366 C10367 1.400 . S
C10367 C10366 1.400 . S
C10367 C10368 1.398 . S
C10367 C10373 1.491 . S
C10368 H10359 0.950 . S
C10368 C10367 1.398 . S
C10368 C10369 1.391 . S
C10369 H10357 0.950 . S
C10369 C10365 1.393 . S
C10369 C10368 1.391 . S
C10370 H10360 0.950 . S
C10370 C10371 1.386 . S
C10370 C10372 1.391 . S
C10371 C10370 1.386 . S
C10371 C10375 1.393 . S
C10372 H10361 0.950 . S
C10372 C10370 1.391 . S
C10372 C10373 1.400 . S
C10373 C10367 1.491 . S
C10373 C10372 1.400 . S
C10373 C10374 1.398 . S
C10374 H10362 0.950 . S
C10374 C10373 1.398 . S
C10374 C10375 1.391 . S
C10375 H10363 0.950 . S
C10375 C10371 1.393 . S
C10375 C10374 1.391 . S
H10376 C10384 0.950 . S
H10377 C10389 0.950 . S
H10378 C10386 0.950 . S
H10379 C10388 0.950 . S
H10380 C10390 0.950 . S
H10381 C10392 0.950 . S
H10382 C10394 0.950 . S
H10383 C10395 0.950 . S
C10384 H10376 0.950 . S
C10384 C10385 1.386 . S
C10384 C10386 1.391 . S
C10385 C10384 1.386 . S
C10385 C10389 1.393 . S
C10386 H10378 0.950 . S
C10386 C10384 1.391 . S
C10386 C10387 1.400 . S
C10387 C10386 1.400 . S
C10387 C10388 1.398 . S
C10387 C10393 1.491 . S
C10388 H10379 0.950 . S
C10388 C10387 1.398 . S
C10388 C10389 1.391 . S
C10389 H10377 0.950 . S
C10389 C10385 1.393 . S
C10389 C10388 1.391 . S
C10390 H10380 0.950 . S
C10390 C10391 1.386 . S
C10390 C10392 1.391 . S
C10391 C10390 1.386 . S
C10391 C10395 1.393 . S
C10392 H10381 0.950 . S
C10392 C10390 1.391 . S
C10392 C10393 1.400 . S
C10393 C10387 1.491 . S
C10393 C10392 1.400 . S
C10393 C10394 1.398 . S
C10394 H10382 0.950 . S
C10394 C10393 1.398 . S
C10394 C10395 1.391 . S
C10395 H10383 0.950 . S
C10395 C10391 1.393 . S
C10395 C10394 1.391 . S
H10396 C10404 0.950 . S
H10397 C10409 0.950 . S
H10398 C10406 0.950 . S
H10399 C10408 0.950 . S
H10400 C10410 0.950 . S
H10401 C10412 0.950 . S
H10402 C10414 0.950 . S
H10403 C10415 0.950 . S
C10404 H10396 0.950 . S
C10404 C10405 1.386 . S
C10404 C10406 1.391 . S
C10405 C10404 1.386 . S
C10405 C10409 1.393 . S
C10406 H10398 0.950 . S
C10406 C10404 1.391 . S
C10406 C10407 1.400 . S
C10407 C10406 1.400 . S
C10407 C10408 1.398 . S
C10407 C10413 1.491 . S
C10408 H10399 0.950 . S
C10408 C10407 1.398 . S
C10408 C10409 1.391 . S
C10409 H10397 0.950 . S
C10409 C10405 1.393 . S
C10409 C10408 1.391 . S
C10410 H10400 0.950 . S
C10410 C10411 1.386 . S
C10410 C10412 1.391 . S
C10411 C10410 1.386 . S
C10411 C10415 1.393 . S
C10412 H10401 0.950 . S
C10412 C10410 1.391 . S
C10412 C10413 1.400 . S
C10413 C10407 1.491 . S
C10413 C10412 1.400 . S
C10413 C10414 1.398 . S
C10414 H10402 0.950 . S
C10414 C10413 1.398 . S
C10414 C10415 1.391 . S
C10415 H10403 0.950 . S
C10415 C10411 1.393 . S
C10415 C10414 1.391 . S
H10416 C10424 0.950 . S
H10417 C10429 0.950 . S
H10418 C10426 0.950 . S
H10419 C10428 0.950 . S
H10420 C10430 0.950 . S
H10421 C10432 0.950 . S
H10422 C10434 0.950 . S
H10423 C10435 0.950 . S
C10424 H10416 0.950 . S
C10424 C10425 1.386 . S
C10424 C10426 1.391 . S
C10425 C10424 1.386 . S
C10425 C10429 1.393 . S
C10426 H10418 0.950 . S
C10426 C10424 1.391 . S
C10426 C10427 1.400 . S
C10427 C10426 1.400 . S
C10427 C10428 1.398 . S
C10427 C10433 1.491 . S
C10428 H10419 0.950 . S
C10428 C10427 1.398 . S
C10428 C10429 1.391 . S
C10429 H10417 0.950 . S
C10429 C10425 1.393 . S
C10429 C10428 1.391 . S
C10430 H10420 0.950 . S
C10430 C10431 1.386 . S
C10430 C10432 1.391 . S
C10431 C10430 1.386 . S
C10431 C10435 1.393 . S
C10432 H10421 0.950 . S
C10432 C10430 1.391 . S
C10432 C10433 1.400 . S
C10433 C10427 1.491 . S
C10433 C10432 1.400 . S
C10433 C10434 1.398 . S
C10434 H10422 0.950 . S
C10434 C10433 1.398 . S
C10434 C10435 1.391 . S
C10435 H10423 0.950 . S
C10435 C10431 1.393 . S
C10435 C10434 1.391 . S
H10436 C10444 0.950 . S
H10437 C10449 0.950 . S
H10438 C10446 0.950 . S
H10439 C10448 0.950 . S
H10440 C10450 0.950 . S
H10441 C10452 0.950 . S
H10442 C10454 0.950 . S
H10443 C10455 0.950 . S
C10444 H10436 0.950 . S
C10444 C10445 1.386 . S
C10444 C10446 1.391 . S
C10445 C10444 1.386 . S
C10445 C10449 1.393 . S
C10446 H10438 0.950 . S
C10446 C10444 1.391 . S
C10446 C10447 1.400 . S
C10447 C10446 1.400 . S
C10447 C10448 1.398 . S
C10447 C10453 1.491 . S
C10448 H10439 0.950 . S
C10448 C10447 1.398 . S
C10448 C10449 1.391 . S
C10449 H10437 0.950 . S
C10449 C10445 1.393 . S
C10449 C10448 1.391 . S
C10450 H10440 0.950 . S
C10450 C10451 1.386 . S
C10450 C10452 1.391 . S
C10451 C10450 1.386 . S
C10451 C10455 1.393 . S
C10452 H10441 0.950 . S
C10452 C10450 1.391 . S
C10452 C10453 1.400 . S
C10453 C10447 1.491 . S
C10453 C10452 1.400 . S
C10453 C10454 1.398 . S
C10454 H10442 0.950 . S
C10454 C10453 1.398 . S
C10454 C10455 1.391 . S
C10455 H10443 0.950 . S
C10455 C10451 1.393 . S
C10455 C10454 1.391 . S
H10456 C10464 0.950 . S
H10457 C10469 0.950 . S
H10458 C10466 0.950 . S
H10459 C10468 0.950 . S
H10460 C10470 0.950 . S
H10461 C10472 0.950 . S
H10462 C10474 0.950 . S
H10463 C10475 0.950 . S
C10464 H10456 0.950 . S
C10464 C10465 1.386 . S
C10464 C10466 1.391 . S
C10465 C10464 1.386 . S
C10465 C10469 1.393 . S
C10466 H10458 0.950 . S
C10466 C10464 1.391 . S
C10466 C10467 1.400 . S
C10467 C10466 1.400 . S
C10467 C10468 1.398 . S
C10467 C10473 1.491 . S
C10468 H10459 0.950 . S
C10468 C10467 1.398 . S
C10468 C10469 1.391 . S
C10469 H10457 0.950 . S
C10469 C10465 1.393 . S
C10469 C10468 1.391 . S
C10470 H10460 0.950 . S
C10470 C10471 1.386 . S
C10470 C10472 1.391 . S
C10471 C10470 1.386 . S
C10471 C10475 1.393 . S
C10472 H10461 0.950 . S
C10472 C10470 1.391 . S
C10472 C10473 1.400 . S
C10473 C10467 1.491 . S
C10473 C10472 1.400 . S
C10473 C10474 1.398 . S
C10474 H10462 0.950 . S
C10474 C10473 1.398 . S
C10474 C10475 1.391 . S
C10475 H10463 0.950 . S
C10475 C10471 1.393 . S
C10475 C10474 1.391 . S
H10476 C10484 0.950 . S
H10477 C10489 0.950 . S
H10478 C10486 0.950 . S
H10479 C10488 0.950 . S
H10480 C10490 0.950 . S
H10481 C10492 0.950 . S
H10482 C10494 0.950 . S
H10483 C10495 0.950 . S
C10484 H10476 0.950 . S
C10484 C10485 1.386 . S
C10484 C10486 1.391 . S
C10485 C10484 1.386 . S
C10485 C10489 1.393 . S
C10486 H10478 0.950 . S
C10486 C10484 1.391 . S
C10486 C10487 1.400 . S
C10487 C10486 1.400 . S
C10487 C10488 1.398 . S
C10487 C10493 1.491 . S
C10488 H10479 0.950 . S
C10488 C10487 1.398 . S
C10488 C10489 1.391 . S
C10489 H10477 0.950 . S
C10489 C10485 1.393 . S
C10489 C10488 1.391 . S
C10490 H10480 0.950 . S
C10490 C10491 1.386 . S
C10490 C10492 1.391 . S
C10491 C10490 1.386 . S
C10491 C10495 1.393 . S
C10492 H10481 0.950 . S
C10492 C10490 1.391 . S
C10492 C10493 1.400 . S
C10493 C10487 1.491 . S
C10493 C10492 1.400 . S
C10493 C10494 1.398 . S
C10494 H10482 0.950 . S
C10494 C10493 1.398 . S
C10494 C10495 1.391 . S
C10495 H10483 0.950 . S
C10495 C10491 1.393 . S
C10495 C10494 1.391 . S
H10496 C10504 0.950 . S
H10497 C10509 0.950 . S
H10498 C10506 0.950 . S
H10499 C10508 0.950 . S
H10500 C10510 0.950 . S
H10501 C10512 0.950 . S
H10502 C10514 0.950 . S
H10503 C10515 0.950 . S
C10504 H10496 0.950 . S
C10504 C10505 1.386 . S
C10504 C10506 1.391 . S
C10505 C10504 1.386 . S
C10505 C10509 1.393 . S
C10506 H10498 0.950 . S
C10506 C10504 1.391 . S
C10506 C10507 1.400 . S
C10507 C10506 1.400 . S
C10507 C10508 1.398 . S
C10507 C10513 1.491 . S
C10508 H10499 0.950 . S
C10508 C10507 1.398 . S
C10508 C10509 1.391 . S
C10509 H10497 0.950 . S
C10509 C10505 1.393 . S
C10509 C10508 1.391 . S
C10510 H10500 0.950 . S
C10510 C10511 1.386 . S
C10510 C10512 1.391 . S
C10511 C10510 1.386 . S
C10511 C10515 1.393 . S
C10512 H10501 0.950 . S
C10512 C10510 1.391 . S
C10512 C10513 1.400 . S
C10513 C10507 1.491 . S
C10513 C10512 1.400 . S
C10513 C10514 1.398 . S
C10514 H10502 0.950 . S
C10514 C10513 1.398 . S
C10514 C10515 1.391 . S
C10515 H10503 0.950 . S
C10515 C10511 1.393 . S
C10515 C10514 1.391 . S
H10516 C10524 0.950 . S
H10517 C10529 0.950 . S
H10518 C10526 0.950 . S
H10519 C10528 0.950 . S
H10520 C10530 0.950 . S
H10521 C10532 0.950 . S
H10522 C10534 0.950 . S
H10523 C10535 0.950 . S
C10524 H10516 0.950 . S
C10524 C10525 1.386 . S
C10524 C10526 1.391 . S
C10525 C10524 1.386 . S
C10525 C10529 1.393 . S
C10526 H10518 0.950 . S
C10526 C10524 1.391 . S
C10526 C10527 1.400 . S
C10527 C10526 1.400 . S
C10527 C10528 1.398 . S
C10527 C10533 1.491 . S
C10528 H10519 0.950 . S
C10528 C10527 1.398 . S
C10528 C10529 1.391 . S
C10529 H10517 0.950 . S
C10529 C10525 1.393 . S
C10529 C10528 1.391 . S
C10530 H10520 0.950 . S
C10530 C10531 1.386 . S
C10530 C10532 1.391 . S
C10531 C10530 1.386 . S
C10531 C10535 1.393 . S
C10532 H10521 0.950 . S
C10532 C10530 1.391 . S
C10532 C10533 1.400 . S
C10533 C10527 1.491 . S
C10533 C10532 1.400 . S
C10533 C10534 1.398 . S
C10534 H10522 0.950 . S
C10534 C10533 1.398 . S
C10534 C10535 1.391 . S
C10535 H10523 0.950 . S
C10535 C10531 1.393 . S
C10535 C10534 1.391 . S
H10536 C10544 0.950 . S
H10537 C10549 0.950 . S
H10538 C10546 0.950 . S
H10539 C10548 0.950 . S
H10540 C10550 0.950 . S
H10541 C10552 0.950 . S
H10542 C10554 0.950 . S
H10543 C10555 0.950 . S
C10544 H10536 0.950 . S
C10544 C10545 1.386 . S
C10544 C10546 1.391 . S
C10545 C10544 1.386 . S
C10545 C10549 1.393 . S
C10546 H10538 0.950 . S
C10546 C10544 1.391 . S
C10546 C10547 1.400 . S
C10547 C10546 1.400 . S
C10547 C10548 1.398 . S
C10547 C10553 1.491 . S
C10548 H10539 0.950 . S
C10548 C10547 1.398 . S
C10548 C10549 1.391 . S
C10549 H10537 0.950 . S
C10549 C10545 1.393 . S
C10549 C10548 1.391 . S
C10550 H10540 0.950 . S
C10550 C10551 1.386 . S
C10550 C10552 1.391 . S
C10551 C10550 1.386 . S
C10551 C10555 1.393 . S
C10552 H10541 0.950 . S
C10552 C10550 1.391 . S
C10552 C10553 1.400 . S
C10553 C10547 1.491 . S
C10553 C10552 1.400 . S
C10553 C10554 1.398 . S
C10554 H10542 0.950 . S
C10554 C10553 1.398 . S
C10554 C10555 1.391 . S
C10555 H10543 0.950 . S
C10555 C10551 1.393 . S
C10555 C10554 1.391 . S
H10556 C10564 0.950 . S
H10557 C10569 0.950 . S
H10558 C10566 0.950 . S
H10559 C10568 0.950 . S
H10560 C10570 0.950 . S
H10561 C10572 0.950 . S
H10562 C10574 0.950 . S
H10563 C10575 0.950 . S
C10564 H10556 0.950 . S
C10564 C10565 1.386 . S
C10564 C10566 1.391 . S
C10565 C10564 1.386 . S
C10565 C10569 1.393 . S
C10566 H10558 0.950 . S
C10566 C10564 1.391 . S
C10566 C10567 1.400 . S
C10567 C10566 1.400 . S
C10567 C10568 1.398 . S
C10567 C10573 1.491 . S
C10568 H10559 0.950 . S
C10568 C10567 1.398 . S
C10568 C10569 1.391 . S
C10569 H10557 0.950 . S
C10569 C10565 1.393 . S
C10569 C10568 1.391 . S
C10570 H10560 0.950 . S
C10570 C10571 1.386 . S
C10570 C10572 1.391 . S
C10571 C10570 1.386 . S
C10571 C10575 1.393 . S
C10572 H10561 0.950 . S
C10572 C10570 1.391 . S
C10572 C10573 1.400 . S
C10573 C10567 1.491 . S
C10573 C10572 1.400 . S
C10573 C10574 1.398 . S
C10574 H10562 0.950 . S
C10574 C10573 1.398 . S
C10574 C10575 1.391 . S
C10575 H10563 0.950 . S
C10575 C10571 1.393 . S
C10575 C10574 1.391 . S
H10576 C10584 0.950 . S
H10577 C10589 0.950 . S
H10578 C10586 0.950 . S
H10579 C10588 0.950 . S
H10580 C10590 0.950 . S
H10581 C10592 0.950 . S
H10582 C10594 0.950 . S
H10583 C10595 0.950 . S
C10584 H10576 0.950 . S
C10584 C10585 1.386 . S
C10584 C10586 1.391 . S
C10585 C10584 1.386 . S
C10585 C10589 1.393 . S
C10586 H10578 0.950 . S
C10586 C10584 1.391 . S
C10586 C10587 1.400 . S
C10587 C10586 1.400 . S
C10587 C10588 1.398 . S
C10587 C10593 1.491 . S
C10588 H10579 0.950 . S
C10588 C10587 1.398 . S
C10588 C10589 1.391 . S
C10589 H10577 0.950 . S
C10589 C10585 1.393 . S
C10589 C10588 1.391 . S
C10590 H10580 0.950 . S
C10590 C10591 1.386 . S
C10590 C10592 1.391 . S
C10591 C10590 1.386 . S
C10591 C10595 1.393 . S
C10592 H10581 0.950 . S
C10592 C10590 1.391 . S
C10592 C10593 1.400 . S
C10593 C10587 1.491 . S
C10593 C10592 1.400 . S
C10593 C10594 1.398 . S
C10594 H10582 0.950 . S
C10594 C10593 1.398 . S
C10594 C10595 1.391 . S
C10595 H10583 0.950 . S
C10595 C10591 1.393 . S
C10595 C10594 1.391 . S
H10596 C10604 0.950 . S
H10597 C10609 0.950 . S
H10598 C10606 0.950 . S
H10599 C10608 0.950 . S
H10600 C10610 0.950 . S
H10601 C10612 0.950 . S
H10602 C10614 0.950 . S
H10603 C10615 0.950 . S
C10604 H10596 0.950 . S
C10604 C10605 1.386 . S
C10604 C10606 1.391 . S
C10605 C10604 1.386 . S
C10605 C10609 1.393 . S
C10606 H10598 0.950 . S
C10606 C10604 1.391 . S
C10606 C10607 1.400 . S
C10607 C10606 1.400 . S
C10607 C10608 1.398 . S
C10607 C10613 1.491 . S
C10608 H10599 0.950 . S
C10608 C10607 1.398 . S
C10608 C10609 1.391 . S
C10609 H10597 0.950 . S
C10609 C10605 1.393 . S
C10609 C10608 1.391 . S
C10610 H10600 0.950 . S
C10610 C10611 1.386 . S
C10610 C10612 1.391 . S
C10611 C10610 1.386 . S
C10611 C10615 1.393 . S
C10612 H10601 0.950 . S
C10612 C10610 1.391 . S
C10612 C10613 1.400 . S
C10613 C10607 1.491 . S
C10613 C10612 1.400 . S
C10613 C10614 1.398 . S
C10614 H10602 0.950 . S
C10614 C10613 1.398 . S
C10614 C10615 1.391 . S
C10615 H10603 0.950 . S
C10615 C10611 1.393 . S
C10615 C10614 1.391 . S
H10616 C10624 0.950 . S
H10617 C10629 0.950 . S
H10618 C10626 0.950 . S
H10619 C10628 0.950 . S
H10620 C10630 0.950 . S
H10621 C10632 0.950 . S
H10622 C10634 0.950 . S
H10623 C10635 0.950 . S
C10624 H10616 0.950 . S
C10624 C10625 1.386 . S
C10624 C10626 1.391 . S
C10625 C10624 1.386 . S
C10625 C10629 1.393 . S
C10626 H10618 0.950 . S
C10626 C10624 1.391 . S
C10626 C10627 1.400 . S
C10627 C10626 1.400 . S
C10627 C10628 1.398 . S
C10627 C10633 1.491 . S
C10628 H10619 0.950 . S
C10628 C10627 1.398 . S
C10628 C10629 1.391 . S
C10629 H10617 0.950 . S
C10629 C10625 1.393 . S
C10629 C10628 1.391 . S
C10630 H10620 0.950 . S
C10630 C10631 1.386 . S
C10630 C10632 1.391 . S
C10631 C10630 1.386 . S
C10631 C10635 1.393 . S
C10632 H10621 0.950 . S
C10632 C10630 1.391 . S
C10632 C10633 1.400 . S
C10633 C10627 1.491 . S
C10633 C10632 1.400 . S
C10633 C10634 1.398 . S
C10634 H10622 0.950 . S
C10634 C10633 1.398 . S
C10634 C10635 1.391 . S
C10635 H10623 0.950 . S
C10635 C10631 1.393 . S
C10635 C10634 1.391 . S
H10636 C10644 0.950 . S
H10637 C10649 0.950 . S
H10638 C10646 0.950 . S
H10639 C10648 0.950 . S
H10640 C10650 0.950 . S
H10641 C10652 0.950 . S
H10642 C10654 0.950 . S
H10643 C10655 0.950 . S
C10644 H10636 0.950 . S
C10644 C10645 1.386 . S
C10644 C10646 1.391 . S
C10645 C10644 1.386 . S
C10645 C10649 1.393 . S
C10646 H10638 0.950 . S
C10646 C10644 1.391 . S
C10646 C10647 1.400 . S
C10647 C10646 1.400 . S
C10647 C10648 1.398 . S
C10647 C10653 1.491 . S
C10648 H10639 0.950 . S
C10648 C10647 1.398 . S
C10648 C10649 1.391 . S
C10649 H10637 0.950 . S
C10649 C10645 1.393 . S
C10649 C10648 1.391 . S
C10650 H10640 0.950 . S
C10650 C10651 1.386 . S
C10650 C10652 1.391 . S
C10651 C10650 1.386 . S
C10651 C10655 1.393 . S
C10652 H10641 0.950 . S
C10652 C10650 1.391 . S
C10652 C10653 1.400 . S
C10653 C10647 1.491 . S
C10653 C10652 1.400 . S
C10653 C10654 1.398 . S
C10654 H10642 0.950 . S
C10654 C10653 1.398 . S
C10654 C10655 1.391 . S
C10655 H10643 0.950 . S
C10655 C10651 1.393 . S
C10655 C10654 1.391 . S
C4911 C2071 1.545 . S
C4905 C8 1.536 . S
C4931 C4031 1.548 . S
C4925 C19 1.536 . S
C4951 C2151 1.539 . S
C4945 C30 1.540 . S
C4971 C3951 1.543 . S
C4965 C41 1.548 . S
C4991 C2311 1.546 . S
C4985 C52 1.537 . S
C5005 C63 1.550 . S
C5011 C4111 1.536 . S
C5031 C2231 1.546 . S
C5025 C74 1.545 . S
C5051 C4191 1.536 . S
C5045 C85 1.545 . S
C5071 C4831 1.545 . S
C5065 C96 1.546 . S
C5085 C107 1.547 . S
C5091 C4591 1.545 . S
C5111 C4871 1.548 . S
C5105 C118 1.536 . S
C5125 C129 1.549 . S
C5131 C4791 1.535 . S
C5151 C4671 1.537 . S
C5145 C140 1.550 . S
C5171 C2791 1.549 . S
C5165 C151 1.536 . S
C5191 C2831 1.536 . S
C5185 C162 1.549 . S
C5205 C173 1.545 . S
C5211 C2711 1.536 . S
C5225 C184 1.539 . S
C5231 C4471 1.550 . S
C5251 C2471 1.548 . S
C5245 C195 1.542 . S
C5271 C4271 1.538 . S
C5265 C206 1.550 . S
C5291 C2391 1.537 . S
C5285 C217 1.542 . S
C5305 C228 1.536 . S
C5311 C2431 1.547 . S
C5331 C4551 1.542 . S
C5325 C239 1.549 . S
C5351 C4431 1.537 . S
C5345 C250 1.543 . S
C5365 C261 1.547 . S
C5371 C4511 1.543 . S
C5385 C272 1.556 . S
C5391 C1111 1.537 . S
C5405 C283 1.561 . S
C5411 C3071 1.538 . S
C5431 C1191 1.539 . S
C5425 C294 1.556 . S
C5445 C305 1.559 . S
C5451 C2991 1.545 . S
C5471 C1351 1.538 . S
C5465 C316 1.557 . S
C5485 C327 1.558 . S
C5491 C3151 1.543 . S
C5511 C1271 1.545 . S
C5505 C338 1.560 . S
C5531 C3231 1.545 . S
C5525 C349 1.560 . S
C5545 C360 1.556 . S
C5551 C3871 1.539 . S
C5571 C3631 1.538 . S
C5565 C371 1.561 . S
C5585 C382 1.561 . S
C5591 C3911 1.541 . S
C5611 C3831 1.535 . S
C5605 C393 1.560 . S
C5631 C3711 1.534 . S
C5625 C404 1.559 . S
C5645 C415 1.560 . S
C5651 C1831 1.536 . S
C5665 C426 1.556 . S
C5671 C1871 1.531 . S
C5691 C1751 1.529 . S
C5685 C437 1.556 . S
C5705 C448 1.560 . S
C5711 C3511 1.534 . S
C5731 C1511 1.535 . S
C5725 C459 1.560 . S
C5745 C470 1.561 . S
C5751 C3311 1.538 . S
C5771 C1431 1.543 . S
C5765 C481 1.561 . S
C5785 C492 1.560 . S
C5791 C1471 1.536 . S
C5811 C3591 1.543 . S
C5805 C503 1.561 . S
C5831 C3471 1.535 . S
C5825 C514 1.560 . S
C5851 C3551 1.538 . S
C5845 C525 1.556 . S
C5865 C536 1.538 . S
C5871 C3991 1.550 . S
C5891 C2111 1.545 . S
C5885 C547 1.537 . S
C5911 C4071 1.549 . S
C5905 C558 1.536 . S
C5931 C2031 1.550 . S
C5925 C569 1.541 . S
C5945 C580 1.546 . S
C5951 C4231 1.536 . S
C5971 C2191 1.548 . S
C5965 C591 1.535 . S
C5991 C4151 1.538 . S
C5985 C602 1.550 . S
C6011 C2271 1.539 . S
C6005 C613 1.550 . S
C6025 C624 1.538 . S
C6031 C2911 1.550 . S
C6051 C2671 1.546 . S
C6045 C635 1.545 . S
C6071 C2951 1.545 . S
C6065 C646 1.546 . S
C6085 C657 1.548 . S
C6091 C2871 1.535 . S
C6105 C668 1.549 . S
C6111 C2751 1.536 . S
C6125 C679 1.536 . S
C6131 C4711 1.548 . S
C6145 C690 1.537 . S
C6151 C4751 1.545 . S
C6171 C4631 1.549 . S
C6165 C701 1.541 . S
C6185 C712 1.536 . S
C6191 C2551 1.547 . S
C6211 C4391 1.545 . S
C6205 C723 1.536 . S
C6231 C2351 1.548 . S
C6225 C734 1.544 . S
C6251 C4311 1.535 . S
C6245 C745 1.549 . S
C6265 C756 1.545 . S
C6271 C4351 1.546 . S
C6285 C767 1.550 . S
C6291 C2631 1.538 . S
C6311 C2511 1.535 . S
C6305 C778 1.548 . S
C6325 C789 1.550 . S
C6331 C2591 1.536 . S
C6345 C800 1.557 . S
C6351 C3031 1.540 . S
C6371 C1151 1.530 . S
C6365 C811 1.558 . S
C6391 C3111 1.541 . S
C6385 C822 1.557 . S
C6405 C833 1.561 . S
C6411 C1071 1.544 . S
C6431 C3271 1.538 . S
C6425 C844 1.557 . S
C6451 C1231 1.530 . S
C6445 C855 1.557 . S
C6465 C866 1.560 . S
C6471 C3191 1.535 . S
C6485 C877 1.561 . S
C6491 C1311 1.542 . S
C6511 C1951 1.536 . S
C6505 C888 1.556 . S
C6525 C899 1.557 . S
C6531 C1711 1.529 . S
C6551 C1991 1.539 . S
C6545 C910 1.561 . S
C6571 C1911 1.545 . S
C6565 C921 1.559 . S
C6585 C932 1.555 . S
C6591 C1791 1.532 . S
C6605 C943 1.561 . S
C6611 C3751 1.543 . S
C6631 C3791 1.529 . S
C6625 C954 1.557 . S
C6645 C965 1.559 . S
C6651 C3671 1.533 . S
C6671 C1591 1.538 . S
C6665 C976 1.556 . S
C6691 C3431 1.531 . S
C6685 C987 1.558 . S
C6705 C998 1.556 . S
C6711 C1391 1.534 . S
C6725 C1009 1.560 . S
C6731 C3351 1.536 . S
C6745 C1020 1.556 . S
C6751 C3391 1.531 . S
C6765 C1031 1.557 . S
C6771 C1671 1.529 . S
C6785 C1042 1.556 . S
C6791 C1551 1.529 . S
C6811 C1631 1.545 . S
C6805 C1053 1.560 . S
C6831 C1418 1.623 . S
C6825 C5 1.292 . S
C6851 C1458 1.635 . S
C6845 C16 1.342 . S
C6865 C27 1.298 . S
C6871 C1498 1.628 . S
C6885 C38 1.291 . S
C6891 C1378 1.622 . S
C6905 C49 1.289 . S
C6911 C1658 1.616 . S
C6931 C1538 1.613 . S
C6925 C60 1.297 . S
C6951 C1578 1.625 . S
C6945 C71 1.332 . S
C6965 C82 1.312 . S
C6971 C1618 1.616 . S
C6985 C93 1.293 . S
C6991 C1178 1.613 . S
C7005 C104 1.327 . S
C7011 C1058 1.641 . S
C7025 C115 1.332 . S
C7031 C1098 1.641 . S
C7051 C1138 1.621 . S
C7045 C126 1.324 . S
C7065 C137 1.289 . S
C7071 C1258 1.615 . S
C7085 C148 1.295 . S
C7091 C1298 1.613 . S
C7105 C159 1.319 . S
C7111 C1338 1.638 . S
C7125 C170 1.333 . S
C7131 C1218 1.641 . S
C7151 C1778 1.618 . S
C7145 C181 1.318 . S
C7165 C192 1.325 . S
C7171 C3858 1.622 . S
C7191 C1698 1.617 . S
C7185 C203 1.288 . S
C7211 C3898 1.629 . S
C7205 C214 1.337 . S
C7225 C225 1.298 . S
C7231 C3818 1.628 . S
C7245 C236 1.315 . S
C7251 C3778 1.618 . S
C7271 C3658 1.638 . S
C7265 C247 1.344 . S
C7291 C3738 1.631 . S
C7285 C258 1.303 . S
C7311 C2378 1.708 . S
C7305 C269 1.622 . S
C7331 C2418 1.708 . S
C7325 C280 1.625 . S
C7351 C2458 1.709 . S
C7345 C291 1.619 . S
C7365 C302 1.597 . S
C7371 C2338 1.717 . S
C7385 C313 1.618 . S
C7391 C2618 1.711 . S
C7411 C2498 1.712 . S
C7405 C324 1.612 . S
C7425 C335 1.595 . S
C7431 C2538 1.717 . S
C7451 C2578 1.714 . S
C7445 C346 1.602 . S
C7465 C357 1.600 . S
C7471 C2138 1.714 . S
C7491 C2018 1.718 . S
C7485 C368 1.595 . S
C7505 C379 1.594 . S
C7511 C2058 1.717 . S
C7531 C2098 1.709 . S
C7525 C390 1.624 . S
C7551 C2218 1.709 . S
C7545 C401 1.622 . S
C7565 C412 1.597 . S
C7571 C2258 1.716 . S
C7591 C2298 1.718 . S
C7585 C423 1.595 . S
C7611 C2178 1.708 . S
C7605 C434 1.621 . S
C7631 C2738 1.716 . S
C7625 C445 1.595 . S
C7651 C4818 1.717 . S
C7645 C456 1.594 . S
C7671 C2658 1.713 . S
C7665 C467 1.612 . S
C7685 C478 1.598 . S
C7691 C4858 1.716 . S
C7705 C489 1.623 . S
C7711 C4778 1.708 . S
C7731 C4738 1.718 . S
C7725 C500 1.596 . S
C7751 C4618 1.709 . S
C7745 C511 1.622 . S
C7771 C4698 1.710 . S
C7765 C522 1.618 . S
C7785 C533 1.330 . S
C7791 C3338 1.640 . S
C7811 C3378 1.632 . S
C7805 C544 1.341 . S
C7825 C555 1.298 . S
C7831 C3418 1.627 . S
C7851 C3298 1.627 . S
C7845 C566 1.296 . S
C7865 C577 1.298 . S
C7871 C3578 1.614 . S
C7885 C588 1.295 . S
C7891 C3458 1.625 . S
C7905 C599 1.294 . S
C7911 C3498 1.625 . S
C7925 C610 1.291 . S
C7931 C3538 1.613 . S
C7945 C621 1.343 . S
C7951 C3098 1.638 . S
C7971 C2978 1.637 . S
C7965 C632 1.316 . S
C7991 C3018 1.639 . S
C7985 C643 1.343 . S
C8005 C654 1.344 . S
C8011 C3058 1.639 . S
C8025 C665 1.316 . S
C8031 C3178 1.618 . S
C8045 C676 1.307 . S
C8051 C3218 1.633 . S
C8065 C687 1.344 . S
C8071 C3258 1.638 . S
C8085 C698 1.343 . S
C8091 C3138 1.636 . S
C8111 C3698 1.632 . S
C8105 C709 1.305 . S
C8131 C1938 1.619 . S
C8125 C720 1.319 . S
C8151 C3618 1.625 . S
C8145 C731 1.330 . S
C8171 C1978 1.614 . S
C8165 C742 1.292 . S
C8191 C1898 1.615 . S
C8185 C753 1.307 . S
C8211 C1858 1.640 . S
C8205 C764 1.323 . S
C8225 C775 1.342 . S
C8231 C1738 1.634 . S
C8251 C1818 1.635 . S
C8245 C786 1.343 . S
C8265 C797 1.593 . S
C8271 C4298 1.717 . S
C8285 C808 1.599 . S
C8291 C4338 1.716 . S
C8311 C4378 1.710 . S
C8305 C819 1.618 . S
C8325 C830 1.604 . S
C8331 C4258 1.716 . S
C8351 C4538 1.715 . S
C8345 C841 1.605 . S
C8365 C852 1.595 . S
C8371 C4418 1.717 . S
C8385 C863 1.622 . S
C8391 C4458 1.709 . S
C8411 C4498 1.714 . S
C8405 C874 1.602 . S
C8431 C4058 1.713 . S
C8425 C885 1.603 . S
C8451 C3938 1.717 . S
C8445 C896 1.596 . S
C8471 C3978 1.713 . S
C8465 C907 1.608 . S
C8491 C4018 1.715 . S
C8485 C918 1.602 . S
C8505 C929 1.603 . S
C8511 C4138 1.715 . S
C8531 C4178 1.717 . S
C8525 C940 1.594 . S
C8545 C951 1.595 . S
C8551 C4218 1.718 . S
C8565 C962 1.622 . S
C8571 C4098 1.708 . S
C8585 C973 1.604 . S
C8591 C4658 1.713 . S
C8605 C984 1.620 . S
C8611 C2898 1.709 . S
C8625 C995 1.624 . S
C8631 C4578 1.709 . S
C8651 C2938 1.717 . S
C8645 C1006 1.594 . S
C8665 C1017 1.594 . S
C8671 C2858 1.716 . S
C8685 C1028 1.625 . S
C8691 C2818 1.708 . S
C8705 C1039 1.608 . S
C8711 C2698 1.713 . S
C8731 C2778 1.712 . S
C8725 C1050 1.612 . S
C8745 C7 1.630 . S
C8751 C1077 1.646 . S
C8765 C18 1.624 . S
C8771 C1117 1.636 . S
C8785 C29 1.616 . S
C8791 C1157 1.629 . S
C8811 C1197 1.658 . S
C8805 C40 1.645 . S
C8831 C1237 1.630 . S
C8825 C51 1.617 . S
C8845 C62 1.614 . S
C8851 C1277 1.628 . S
C8865 C73 1.644 . S
C8871 C1317 1.656 . S
C8885 C84 1.642 . S
C8891 C1357 1.656 . S
C8911 C1397 1.640 . S
C8905 C95 1.629 . S
C8931 C1437 1.628 . S
C8925 C106 1.613 . S
C8945 C117 1.644 . S
C8951 C1477 1.657 . S
C8971 C1517 1.630 . S
C8965 C128 1.614 . S
C8985 C139 1.613 . S
C8991 C1557 1.628 . S
C9005 C150 1.619 . S
C9011 C1597 1.635 . S
C9025 C161 1.614 . S
C9031 C1637 1.629 . S
C9045 C172 1.614 . S
C9051 C1677 1.629 . S
C9065 C183 1.624 . S
C9071 C1717 1.640 . S
C9085 C194 1.644 . S
C9091 C1757 1.658 . S
C9111 C1797 1.657 . S
C9105 C205 1.645 . S
C9131 C1837 1.630 . S
C9125 C216 1.617 . S
C9151 C1877 1.638 . S
C9145 C227 1.621 . S
C9171 C1917 1.628 . S
C9165 C238 1.613 . S
C9185 C249 1.637 . S
C9191 C1957 1.648 . S
C9211 C1997 1.657 . S
C9205 C260 1.645 . S
C9225 C271 1.738 . S
C9231 C2037 1.739 . S
C9245 C282 1.734 . S
C9251 C2077 1.736 . S
C9265 C293 1.731 . S
C9271 C2117 1.734 . S
C9291 C2157 1.746 . S
C9285 C304 1.742 . S
C9305 C315 1.729 . S
C9311 C2197 1.734 . S
C9331 C2237 1.746 . S
C9325 C326 1.743 . S
C9345 C337 1.732 . S
C9351 C2277 1.735 . S
C9365 C348 1.732 . S
C9371 C2317 1.735 . S
C9391 C2357 1.737 . S
C9385 C359 1.730 . S
C9405 C370 1.729 . S
C9411 C2397 1.734 . S
C9431 C2437 1.736 . S
C9425 C381 1.733 . S
C9445 C392 1.742 . S
C9451 C2477 1.744 . S
C9471 C2517 1.746 . S
C9465 C403 1.743 . S
C9491 C2557 1.742 . S
C9485 C414 1.736 . S
C9511 C2597 1.735 . S
C9505 C425 1.729 . S
C9525 C436 1.730 . S
C9531 C2637 1.736 . S
C9545 C447 1.730 . S
C9551 C2677 1.736 . S
C9565 C458 1.731 . S
C9571 C2717 1.734 . S
C9585 C469 1.741 . S
C9591 C2757 1.746 . S
C9605 C480 1.735 . S
C9611 C2797 1.741 . S
C9625 C491 1.731 . S
C9631 C2837 1.734 . S
C9651 C2877 1.746 . S
C9645 C502 1.741 . S
C9665 C513 1.730 . S
C9671 C2917 1.734 . S
C9691 C2957 1.736 . S
C9685 C524 1.733 . S
C9705 C535 1.626 . S
C9711 C2997 1.643 . S
C9731 C3037 1.658 . S
C9725 C546 1.644 . S
C9751 C3077 1.658 . S
C9745 C557 1.645 . S
C9771 C3117 1.630 . S
C9765 C568 1.614 . S
C9785 C579 1.636 . S
C9791 C3157 1.647 . S
C9805 C590 1.614 . S
C9811 C3197 1.628 . S
C9831 C3237 1.658 . S
C9825 C601 1.645 . S
C9851 C3277 1.630 . S
C9845 C612 1.618 . S
C9865 C623 1.614 . S
C9871 C3317 1.630 . S
C9885 C634 1.644 . S
C9891 C3357 1.658 . S
C9905 C645 1.620 . S
C9911 C3397 1.632 . S
C9925 C656 1.613 . S
C9931 C3437 1.629 . S
C9945 C667 1.643 . S
C9951 C3477 1.657 . S
C9971 C3517 1.643 . S
C9965 C678 1.626 . S
C9991 C3557 1.630 . S
C9985 C689 1.614 . S
C10011 C3597 1.655 . S
C10005 C700 1.643 . S
C10031 C3637 1.651 . S
C10025 C711 1.640 . S
C10045 C722 1.637 . S
C10051 C3677 1.648 . S
C10065 C733 1.613 . S
C10071 C3717 1.629 . S
C10091 C3757 1.654 . S
C10085 C744 1.639 . S
C10105 C755 1.621 . S
C10111 C3797 1.638 . S
C10131 C3837 1.632 . S
C10125 C766 1.620 . S
C10151 C3877 1.650 . S
C10145 C777 1.639 . S
C10171 C3917 1.658 . S
C10165 C788 1.645 . S
C10185 C799 1.730 . S
C10191 C3957 1.736 . S
C10205 C810 1.743 . S
C10211 C3997 1.746 . S
C10225 C821 1.730 . S
C10231 C4037 1.736 . S
C10245 C832 1.737 . S
C10251 C4077 1.739 . S
C10271 C4117 1.736 . S
C10265 C843 1.730 . S
C10291 C4157 1.743 . S
C10285 C854 1.741 . S
C10311 C4197 1.734 . S
C10305 C865 1.731 . S
C10325 C876 1.743 . S
C10331 C4237 1.746 . S
C10345 C887 1.730 . S
C10351 C4277 1.734 . S
C10371 C4317 1.739 . S
C10365 C898 1.738 . S
C10391 C4357 1.739 . S
C10385 C909 1.732 . S
C10411 C4397 1.738 . S
C10405 C920 1.732 . S
C10431 C4437 1.735 . S
C10425 C931 1.729 . S
C10451 C4477 1.746 . S
C10445 C942 1.741 . S
C10471 C4517 1.735 . S
C10465 C953 1.731 . S
C10491 C4557 1.736 . S
C10485 C964 1.730 . S
C10511 C4597 1.738 . S
C10505 C975 1.732 . S
C10531 C4637 1.745 . S
C10525 C986 1.740 . S
C10551 C4677 1.734 . S
C10545 C997 1.729 . S
C10565 C1008 1.729 . S
C10571 C4717 1.735 . S
C10591 C4757 1.735 . S
C10585 C1019 1.729 . S
C10605 C1030 1.731 . S
C10611 C4797 1.737 . S
C10631 C4837 1.736 . S
C10625 C1041 1.733 . S
C10651 C4877 1.739 . S
C10645 C1052 1.737 . S
