# Generated by pormake.
# Topology ssb, (4,4)-cn, num edge types: 1
# Building blocks:
#     Node 0, Type 0, BuildingBlock: ESEHIV_clean_sbu_0, # of connection points: 4
#     Node 1, Type 0, BuildingBlock: ESEHIV_clean_sbu_0, # of connection points: 4
#     Node 2, Type 0, BuildingBlock: ESEHIV_clean_sbu_0, # of connection points: 4
#     Node 3, Type 0, BuildingBlock: ESEHIV_clean_sbu_0, # of connection points: 4
#     Node 4, Type 0, BuildingBlock: ESEHIV_clean_sbu_0, # of connection points: 4
#     Node 5, Type 0, BuildingBlock: ESEHIV_clean_sbu_0, # of connection points: 4
#     Node 6, Type 0, BuildingBlock: ESEHIV_clean_sbu_0, # of connection points: 4
#     Node 7, Type 0, BuildingBlock: ESEHIV_clean_sbu_0, # of connection points: 4
#     Node 8, Type 1, BuildingBlock: KOZSID_clean_sbu_0, # of connection points: 4
#     Node 9, Type 1, BuildingBlock: KOZSID_clean_sbu_0, # of connection points: 4
#     Node 10, Type 1, BuildingBlock: KOZSID_clean_sbu_0, # of connection points: 4
#     Node 11, Type 1, BuildingBlock: KOZSID_clean_sbu_0, # of connection points: 4
#     Node 12, Type 1, BuildingBlock: KOZSID_clean_sbu_0, # of connection points: 4
#     Node 13, Type 1, BuildingBlock: KOZSID_clean_sbu_0, # of connection points: 4
#     Node 14, Type 1, BuildingBlock: KOZSID_clean_sbu_0, # of connection points: 4
#     Node 15, Type 1, BuildingBlock: KOZSID_clean_sbu_0, # of connection points: 4
#     Edge 16, Type (0, 1), None
#     Edge 17, Type (0, 1), None
#     Edge 18, Type (0, 1), None
#     Edge 19, Type (0, 1), None
#     Edge 20, Type (0, 1), None
#     Edge 21, Type (0, 1), None
#     Edge 22, Type (0, 1), None
#     Edge 23, Type (0, 1), None
#     Edge 24, Type (0, 1), None
#     Edge 25, Type (0, 1), None
#     Edge 26, Type (0, 1), None
#     Edge 27, Type (0, 1), None
#     Edge 28, Type (0, 1), None
#     Edge 29, Type (0, 1), None
#     Edge 30, Type (0, 1), None
#     Edge 31, Type (0, 1), None
#     Edge 32, Type (0, 1), None
#     Edge 33, Type (0, 1), None
#     Edge 34, Type (0, 1), None
#     Edge 35, Type (0, 1), None
#     Edge 36, Type (0, 1), None
#     Edge 37, Type (0, 1), None
#     Edge 38, Type (0, 1), None
#     Edge 39, Type (0, 1), None
#     Edge 40, Type (0, 1), None
#     Edge 41, Type (0, 1), None
#     Edge 42, Type (0, 1), None
#     Edge 43, Type (0, 1), None
#     Edge 44, Type (0, 1), None
#     Edge 45, Type (0, 1), None
#     Edge 46, Type (0, 1), None
#     Edge 47, Type (0, 1), None
# Relax obj value: 0.015
# Max RMSD: 0.128
# Mean RMSD: 0.067
data_MOF--net-ssb--node1-ESEHIV_clean_sbu_0--node2-KOZSID_clean_sbu_0--edge1-none
_symmetry_space_group_name_H-M    P1
_symmetry_Int_Tables_number       1
_symmetry_cell_setting            triclinic
loop_
_symmetry_equiv_pos_as_xyz
'x, y, z'
_cell_length_a     28.501513
_cell_length_b     28.44718
_cell_length_c     20.612453
_cell_angle_alpha  94.577035
_cell_angle_beta   98.382698
_cell_angle_gamma 90.342973
loop_
_atom_site_label
_atom_site_type_symbol
_atom_site_fract_x
_atom_site_fract_y
_atom_site_fract_z
_atom_type_partial_charge
Cu0 Cu 0.3189 0.29134 0.32995 0.0
N1 N 0.3292 0.22907 0.3648 0.0
N2 N 0.33146 0.16272 0.42233 0.0
C3 C 0.3072 0.18701 0.37271 0.0
C4 C 0.36915 0.19095 0.4458 0.0
C5 C 0.36785 0.23009 0.41112 0.0
O6 O 0.2843 0.31965 0.39987 0.0
C7 C 0.39545 0.27532 0.26828 0.0
O8 O 0.36543 0.24028 0.24709 0.0
H9 H 0.27393 0.17515 0.34383 0.0
H10 H 0.39248 0.25968 0.42229 0.0
N11 N 0.28815 0.31988 0.25204 0.0
N12 N 0.27387 0.38099 0.18551 0.0
C13 C 0.30371 0.36215 0.23441 0.0
C14 C 0.24657 0.31172 0.2123 0.0
C15 C 0.23791 0.34868 0.17175 0.0
C16 C 0.24495 0.29682 0.39776 0.0
O17 O 0.23343 0.26409 0.34928 0.0
H18 H 0.3356 0.38005 0.25968 0.0
H19 H 0.22304 0.28205 0.2142 0.0
O20 O 0.38428 0.30539 0.31331 0.0
H21 H 0.39552 0.18454 0.48743 0.0
H22 H 0.20676 0.35165 0.13554 0.0
Cu23 Cu 0.81487 0.31149 0.32252 0.0
N24 N 0.76813 0.27651 0.26102 0.0
N25 N 0.69155 0.26854 0.21122 0.0
C26 C 0.73219 0.2954 0.22071 0.0
C27 C 0.70275 0.23134 0.24658 0.0
C28 C 0.74933 0.23568 0.27538 0.0
O29 O 0.805 0.37761 0.30696 0.0
C30 C 0.82512 0.24869 0.41498 0.0
O31 O 0.85012 0.23035 0.37098 0.0
H32 H 0.73503 0.3296 0.20209 0.0
H33 H 0.76628 0.21256 0.3102 0.0
N34 N 0.88165 0.30379 0.32433 0.0
N35 N 0.95757 0.30368 0.37362 0.0
C36 C 0.91307 0.31811 0.3783 0.0
C37 C 0.90761 0.27985 0.28348 0.0
C38 C 0.95443 0.27977 0.31381 0.0
C39 C 0.8221 0.38649 0.25528 0.0
O40 O 0.84019 0.35189 0.2214 0.0
H41 H 0.90279 0.33617 0.42218 0.0
H42 H 0.8932 0.26166 0.23665 0.0
O43 O 0.80432 0.28789 0.40581 0.0
H44 H 0.67814 0.20381 0.25403 0.0
H45 H 0.98341 0.26155 0.29481 0.0
Cu46 Cu 0.80299 0.80492 0.31627 0.0
N47 N 0.81973 0.7493 0.26094 0.0
N48 N 0.82109 0.68165 0.19201 0.0
C49 C 0.81445 0.72982 0.19666 0.0
C50 C 0.82935 0.6707 0.25455 0.0
C51 C 0.8274 0.71091 0.29525 0.0
O52 O 0.73288 0.8016 0.2915 0.0
C53 C 0.88783 0.79705 0.39932 0.0
O54 O 0.90085 0.80935 0.34443 0.0
H55 H 0.80318 0.74962 0.15461 0.0
H56 H 0.82621 0.71114 0.34728 0.0
N57 N 0.81444 0.87336 0.32702 0.0
N58 N 0.81593 0.94749 0.38091 0.0
C59 C 0.80114 0.9015 0.37837 0.0
C60 C 0.83846 0.90326 0.29578 0.0
C61 C 0.83925 0.94832 0.32833 0.0
C62 C 0.72017 0.81477 0.23329 0.0
O63 O 0.75324 0.82986 0.20141 0.0
H64 H 0.78201 0.88798 0.41479 0.0
H65 H 0.85529 0.89303 0.25318 0.0
O66 O 0.84303 0.79176 0.40138 0.0
H67 H 0.83344 0.63521 0.26981 0.0
H68 H 0.85644 0.97932 0.31467 0.0
Cu69 Cu 0.29389 0.79743 0.26819 0.0
N70 N 0.32556 0.82175 0.2033 0.0
N71 N 0.3891 0.83645 0.15388 0.0
C72 C 0.37132 0.81179 0.19863 0.0
C73 C 0.35262 0.86303 0.1291 0.0
C74 C 0.31358 0.85398 0.15969 0.0
O75 O 0.30694 0.7307 0.26548 0.0
C76 C 0.29854 0.87483 0.35069 0.0
O77 O 0.27325 0.88782 0.29679 0.0
H78 H 0.39163 0.78789 0.22958 0.0
H79 H 0.27941 0.87058 0.15179 0.0
N80 N 0.22728 0.80138 0.26508 0.0
N81 N 0.16179 0.80191 0.31465 0.0
C82 C 0.20796 0.79027 0.31792 0.0
C83 C 0.19171 0.82017 0.22549 0.0
C84 C 0.15115 0.82028 0.25586 0.0
C85 C 0.28491 0.70881 0.21361 0.0
O86 O 0.25856 0.73292 0.17067 0.0
H87 H 0.22853 0.77555 0.35958 0.0
H88 H 0.19551 0.83509 0.17985 0.0
O89 O 0.31656 0.83393 0.35006 0.0
H90 H 0.35392 0.88738 0.09163 0.0
H91 H 0.11738 0.83519 0.23773 0.0
Cu92 Cu 0.30876 0.82908 0.80988 0.0
N93 N 0.37562 0.83629 0.83868 0.0
N94 N 0.4514 0.83259 0.88969 0.0
C95 C 0.41685 0.81166 0.84305 0.0
C96 C 0.43119 0.87158 0.91381 0.0
C97 C 0.38576 0.87382 0.88258 0.0
O98 O 0.28947 0.79832 0.88962 0.0
C99 C 0.31558 0.9053 0.72661 0.0
O100 O 0.34148 0.87259 0.70131 0.0
H101 H 0.4207 0.77861 0.81481 0.0
H102 H 0.36012 0.89978 0.89449 0.0
N103 N 0.27624 0.78699 0.74081 0.0
N104 N 0.2015 0.76826 0.68855 0.0
C105 C 0.23762 0.80098 0.70013 0.0
C106 C 0.26438 0.74274 0.75208 0.0
C107 C 0.21879 0.73196 0.72233 0.0
C108 C 0.31412 0.76198 0.90746 0.0
O109 O 0.34923 0.7501 0.87533 0.0
H110 H 0.23472 0.83617 0.68389 0.0
H111 H 0.28457 0.72148 0.78667 0.0
O112 O 0.295 0.89476 0.77604 0.0
H113 H 0.44773 0.89619 0.95347 0.0
H114 H 0.19868 0.70086 0.72941 0.0
Cu115 Cu 0.29909 0.32571 0.83873 0.0
N116 N 0.28918 0.38782 0.86718 0.0
N117 N 0.28541 0.4633 0.90343 0.0
C118 C 0.30698 0.43173 0.86527 0.0
C119 C 0.25378 0.43836 0.92986 0.0
C120 C 0.25624 0.3924 0.90759 0.0
O121 O 0.34236 0.30329 0.91452 0.0
C122 C 0.21557 0.32944 0.75452 0.0
O123 O 0.24439 0.35948 0.73432 0.0
H124 H 0.33484 0.44016 0.83744 0.0
H125 H 0.23597 0.3634 0.9211 0.0
N126 N 0.32807 0.30575 0.76627 0.0
N127 N 0.34363 0.24002 0.70608 0.0
C128 C 0.31196 0.26343 0.73812 0.0
C129 C 0.3721 0.31017 0.75081 0.0
C130 C 0.38161 0.26973 0.71297 0.0
C131 C 0.38163 0.32718 0.92759 0.0
O132 O 0.38773 0.36183 0.89111 0.0
H133 H 0.28013 0.24739 0.74971 0.0
H134 H 0.39733 0.33796 0.77094 0.0
O135 O 0.23174 0.3067 0.80456 0.0
H136 H 0.23085 0.45244 0.96388 0.0
H137 H 0.41518 0.2616 0.69643 0.0
Cu138 Cu 0.79103 0.3014 0.79874 0.0
N139 N 0.82427 0.32649 0.7365 0.0
N140 N 0.88658 0.33641 0.68297 0.0
C141 C 0.86727 0.31072 0.72512 0.0
C142 C 0.85403 0.36958 0.6669 0.0
C143 C 0.81572 0.36338 0.69988 0.0
O144 O 0.799 0.23092 0.77809 0.0
C145 C 0.79915 0.38485 0.88869 0.0
O146 O 0.77475 0.40056 0.83604 0.0
H147 H 0.88484 0.28191 0.74949 0.0
H148 H 0.78453 0.38495 0.69844 0.0
N149 N 0.72479 0.30906 0.79169 0.0
N150 N 0.65796 0.3125 0.83828 0.0
C151 C 0.70209 0.29492 0.83988 0.0
C152 C 0.69348 0.33608 0.75674 0.0
C153 C 0.65208 0.33801 0.78519 0.0
C154 C 0.78103 0.214 0.71941 0.0
O155 O 0.75818 0.24315 0.6802 0.0
H156 H 0.71937 0.27462 0.87844 0.0
H157 H 0.70136 0.35602 0.71699 0.0
O158 O 0.81256 0.34129 0.88512 0.0
H159 H 0.8577 0.39676 0.63403 0.0
H160 H 0.62171 0.35957 0.77109 0.0
Cu161 Cu 0.80909 0.77586 0.78349 0.0
N162 N 0.79411 0.71191 0.76856 0.0
N163 N 0.79217 0.63957 0.80178 0.0
C164 C 0.81344 0.68228 0.81176 0.0
C165 C 0.75811 0.64207 0.74936 0.0
C166 C 0.75978 0.68691 0.7282 0.0
O167 O 0.7841 0.79503 0.86741 0.0
C168 C 0.89025 0.75568 0.72452 0.0
O169 O 0.85924 0.72568 0.6902 0.0
H170 H 0.8394 0.69349 0.85403 0.0
H171 H 0.73539 0.7011 0.6898 0.0
N172 N 0.77824 0.8128 0.72112 0.0
N173 N 0.76605 0.87867 0.66977 0.0
C174 C 0.79624 0.85487 0.71109 0.0
C175 C 0.73495 0.80946 0.68481 0.0
C176 C 0.72735 0.85019 0.6528 0.0
C177 C 0.7408 0.78191 0.86739 0.0
O178 O 0.71804 0.75964 0.81371 0.0
H179 H 0.83007 0.86858 0.73645 0.0
H180 H 0.71001 0.78053 0.68349 0.0
O181 O 0.87726 0.78184 0.77237 0.0
H182 H 0.73204 0.61464 0.73062 0.0
H183 H 0.69558 0.8584 0.62043 0.0
C184 C 0.14356 0.36747 0.69113 0.0
C185 C 0.15598 0.41275 0.71887 0.0
C186 C 0.13421 0.44328 0.67659 0.0
C187 C 0.10919 0.41518 0.62594 0.0
N188 N 0.11291 0.36858 0.63403 0.0
Co189 Co 0.08069 0.31595 0.57291 0.0
N190 N 0.05217 0.36018 0.5073 0.0
C191 C 0.05995 0.40729 0.51083 0.0
C192 C 0.03489 0.42869 0.4596 0.0
C193 C 1.00925 0.39318 0.42139 0.0
C194 C 0.01997 0.35204 0.45172 0.0
N195 N 0.04713 0.26301 0.51284 0.0
C196 C 1.01448 0.26396 0.45766 0.0
C197 C 0.99637 0.21919 0.43563 0.0
C198 C 0.01818 0.18891 0.47803 0.0
C199 C 0.04796 0.21676 0.52378 0.0
N200 N 0.11043 0.27139 0.638 0.0
C201 C 0.10473 0.22399 0.63257 0.0
C202 C 0.13197 0.20202 0.68127 0.0
C203 C 0.15733 0.23739 0.71984 0.0
C204 C 0.14398 0.27912 0.69245 0.0
N205 N 0.02289 0.32244 0.61801 0.0
C206 C 0.93322 0.33148 0.66274 0.0
C207 C 0.95616 0.28798 0.66014 0.0
C208 C 1.00063 0.28429 0.63791 0.0
C209 C 0.95718 0.37047 0.6454 0.0
C210 C 1.00146 0.36533 0.62416 0.0
N211 N 0.13786 0.31043 0.52636 0.0
C212 C 0.18803 0.2627 0.46329 0.0
C213 C 0.21262 0.30246 0.44872 0.0
C214 C 0.20087 0.34623 0.47694 0.0
C215 C 0.16352 0.34942 0.51507 0.0
C216 C 0.15174 0.26728 0.50235 0.0
H217 H 0.1554 0.38404 0.53351 0.0
H218 H 0.13458 0.23546 0.51124 0.0
H219 H 0.01594 0.25011 0.63603 0.0
H220 H 0.01716 0.39671 0.6117 0.0
C221 C 0.08574 0.43095 0.56723 0.0
C222 C 0.16575 0.32497 0.7177 0.0
C223 C 0.99766 0.30643 0.42641 0.0
C224 C 0.07541 0.20094 0.57926 0.0
H225 H 0.17992 0.42261 0.76377 0.0
H226 H 0.13774 0.48135 0.68101 0.0
H227 H 0.0338 0.46596 0.45236 0.0
H228 H 0.98459 0.39715 0.37707 0.0
H229 H 0.9692 0.20937 0.39437 0.0
H230 H 1.01191 0.15126 0.47687 0.0
H231 H 0.13414 0.16456 0.68698 0.0
H232 H 0.18325 0.23273 0.76254 0.0
H233 H 0.93942 0.25662 0.67351 0.0
H234 H 0.94192 0.40519 0.64832 0.0
H235 H 0.19603 0.22784 0.44321 0.0
H236 H 0.21864 0.37807 0.46701 0.0
C237 C 0.74126 0.14015 0.65046 0.0
C238 C 0.69549 0.15502 0.65505 0.0
C239 C 0.66614 0.13055 0.6051 0.0
C240 C 0.69534 0.10188 0.57289 0.0
N241 N 0.74137 0.10535 0.60061 0.0
Co242 Co 0.79564 0.07337 0.56396 0.0
N243 N 0.7539 0.04171 0.48459 0.0
C244 C 0.70625 0.04546 0.47178 0.0
C245 C 0.68581 0.01641 0.41865 0.0
C246 C 0.72237 0.99169 0.39701 0.0
C247 C 0.76332 1.00686 0.43824 0.0
N248 N 0.85023 0.04292 0.5256 0.0
C249 C 0.85166 1.01152 0.47178 0.0
C250 C 0.89808 1.0022 0.46308 0.0
C251 C 0.92661 0.02702 0.51367 0.0
C252 C 0.89639 0.04964 0.551 0.0
N253 N 0.83748 0.10325 0.64448 0.0
C254 C 0.88452 0.09639 0.65981 0.0
C255 C 0.90503 0.12368 0.71469 0.0
C256 C 0.86921 0.1503 0.7349 0.0
C257 C 0.82862 0.13789 0.69109 0.0
N258 N 0.78684 0.01609 0.61008 0.0
C259 C 0.77313 0.92571 0.65138 0.0
C260 C 0.8188 0.9444 0.6526 0.0
C261 C 0.8248 0.98951 0.63252 0.0
C262 C 0.73463 0.95419 0.63308 0.0
C263 C 0.74223 0.99903 0.61341 0.0
N264 N 0.80391 0.13096 0.51825 0.0
C265 C 0.85265 0.19728 0.50118 0.0
C266 C 0.81446 0.2171 0.46349 0.0
C267 C 0.77048 0.19396 0.45482 0.0
C268 C 0.76611 0.15089 0.48195 0.0
C269 C 0.84669 0.15462 0.52784 0.0
H270 H 0.73217 0.13382 0.47164 0.0
H271 H 0.87757 0.14115 0.55485 0.0
H272 H 0.86043 1.00158 0.63371 0.0
H273 H 0.71127 0.01861 0.59971 0.0
C274 C 0.6815 0.07371 0.51395 0.0
C275 C 0.78346 0.16264 0.69212 0.0
C276 C 0.8103 0.98701 0.43074 0.0
C277 C 0.90969 0.07259 0.61394 0.0
H278 H 0.68472 0.18206 0.68959 0.0
H279 H 0.62828 0.13463 0.59218 0.0
H280 H 0.64847 1.01241 0.39935 0.0
H281 H 0.71921 0.96486 0.35628 0.0
H282 H 0.9103 0.97859 0.42561 0.0
H283 H 0.96494 0.02696 0.52389 0.0
H284 H 0.94232 0.12661 0.73464 0.0
H285 H 0.87307 0.17737 0.77534 0.0
H286 H 0.84991 0.92395 0.66714 0.0
H287 H 0.69867 0.94203 0.63375 0.0
H288 H 0.88785 0.21313 0.50646 0.0
H289 H 0.74056 0.20705 0.42306 0.0
C290 C 0.12724 0.81644 0.6514 0.0
C291 C 0.14322 0.85719 0.69001 0.0
C292 C 0.11704 0.89342 0.66492 0.0
C293 C 0.08582 0.8729 0.61351 0.0
N294 N 0.08895 0.82566 0.6063 0.0
Co295 Co 0.04349 0.7824 0.54544 0.0
N296 N 1.00005 0.83433 0.51825 0.0
C297 C 1.0107 0.8806 0.53043 0.0
C298 C 0.97488 0.90878 0.50597 0.0
C299 C 0.93892 0.87884 0.47658 0.0
C300 C 0.95498 0.83342 0.48456 0.0
N301 N 0.9974 0.73916 0.48588 0.0
C302 C 0.95172 0.74563 0.45773 0.0
C303 C 0.93283 0.70448 0.42293 0.0
C304 C 0.96752 0.67158 0.42797 0.0
C305 C 1.00565 0.69416 0.46601 0.0
N306 N 0.08761 0.72993 0.5709 0.0
C307 C 0.08558 0.68674 0.53824 0.0
C308 C 0.12443 0.66001 0.55483 0.0
C309 C 0.15376 0.68798 0.60015 0.0
C310 C 0.1306 0.73029 0.61053 0.0
N311 N 1.00702 0.77304 0.61855 0.0
C312 C 0.93641 0.76142 0.69945 0.0
C313 C 0.95555 0.7225 0.66659 0.0
C314 C 0.99102 0.72894 0.62734 0.0
C315 C 0.9566 0.80588 0.69571 0.0
C316 C 0.99173 0.81089 0.6551 0.0
N317 N 0.07938 0.79225 0.47162 0.0
C318 C 0.08317 0.7977 0.35542 0.0
C319 C 0.13303 0.80003 0.36727 0.0
C320 C 0.15483 0.80027 0.43271 0.0
C321 C 0.12781 0.79637 0.4833 0.0
C322 C 0.05709 0.79396 0.40817 0.0
H323 H 0.14697 0.79641 0.53183 0.0
H324 H 0.01892 0.79199 0.39729 0.0
H325 H 1.00318 0.69838 0.60073 0.0
H326 H 1.00403 0.84602 0.65047 0.0
C327 C 0.05046 0.89612 0.57489 0.0
C328 C 0.15307 0.77138 0.65291 0.0
C329 C 0.92685 0.79097 0.45592 0.0
C330 C 0.04743 0.67279 0.49045 0.0
H331 H 0.171 0.86077 0.73186 0.0
H332 H 0.11952 0.93013 0.68334 0.0
H333 H 0.97469 0.94661 0.51154 0.0
H334 H 0.9047 0.88916 0.45238 0.0
H335 H 0.89778 0.6987 0.39639 0.0
H336 H 0.96476 0.63516 0.40787 0.0
H337 H 0.13164 0.62511 0.53401 0.0
H338 H 0.18941 0.67853 0.61917 0.0
H339 H 0.94129 0.6873 0.66821 0.0
H340 H 0.94283 0.83704 0.71961 0.0
H341 H 0.06445 0.79786 0.30584 0.0
H342 H 0.19293 0.80372 0.44554 0.0
C343 C 0.36147 0.97311 0.68376 0.0
C344 C 0.4052 0.9591 0.71437 0.0
C345 C 0.439 0.97887 0.68369 0.0
C346 C 0.41442 1.00447 0.63665 0.0
N347 N 0.36698 1.00296 0.63625 0.0
Co348 Co 0.3193 0.03617 0.57471 0.0
N349 N 0.36782 0.05879 0.5225 0.0
C350 C 0.41377 0.04625 0.52993 0.0
C351 C 0.43855 0.06377 0.48466 0.0
C352 C 0.40662 0.08969 0.44679 0.0
C353 C 0.36413 0.08757 0.47194 0.0
N354 N 0.27161 0.07196 0.5153 0.0
C355 C 0.27753 0.10439 0.47098 0.0
C356 C 0.23477 0.12474 0.4485 0.0
C357 C 0.20103 0.10525 0.47944 0.0
C358 C 0.22477 0.07424 0.51945 0.0
N359 N 0.27004 1.01086 0.62502 0.0
C360 C 0.22305 0.01867 0.61229 0.0
C361 C 0.1966 0.99394 0.64896 0.0
C362 C 0.22832 0.96746 0.68625 0.0
C363 C 0.27268 0.97778 0.67064 0.0
N364 N 0.32959 0.0948 0.6341 0.0
C365 C 0.33943 0.1906 0.68235 0.0
C366 C 0.2954 0.16674 0.6739 0.0
C367 C 0.29165 0.11906 0.65192 0.0
C368 C 0.37903 0.16427 0.67061 0.0
C369 C 0.37338 0.1167 0.64713 0.0
N370 N 0.31004 0.97848 0.51331 0.0
C371 C 0.26308 0.93485 0.42124 0.0
C372 C 0.30161 0.90663 0.41083 0.0
C373 C 0.34312 0.912 0.45555 0.0
C374 C 0.34666 0.94816 0.50611 0.0
C375 C 0.26775 0.96976 0.47319 0.0
H376 H 0.37996 0.95158 0.53722 0.0
H377 H 0.2371 0.99008 0.47868 0.0
H378 H 0.25727 0.10304 0.64684 0.0
H379 H 0.40474 0.09882 0.63755 0.0
C380 C 0.4335 0.02295 0.58474 0.0
C381 C 0.31604 0.95391 0.69864 0.0
C382 C 0.32308 0.11736 0.45003 0.0
C383 C 0.20479 0.04825 0.56386 0.0
H384 H 0.41185 0.93532 0.75304 0.0
H385 H 0.4768 0.97295 0.69212 0.0
H386 H 0.47588 0.0598 0.48122 0.0
H387 H 0.41429 0.10965 0.40691 0.0
H388 H 0.2282 0.15134 0.41411 0.0
H389 H 0.16377 0.11374 0.47468 0.0
H390 H 0.15853 0.99444 0.64743 0.0
H391 H 0.21976 0.94279 0.72027 0.0
H392 H 0.26325 0.18456 0.68256 0.0
H393 H 0.41419 0.18011 0.67868 0.0
H394 H 0.22963 0.93062 0.38859 0.0
H395 H 0.37349 0.89022 0.44953 0.0
C396 C 0.6529 0.86074 0.17416 0.0
C397 C 0.66979 0.90441 0.20316 0.0
C398 C 0.65076 0.93724 0.16246 0.0
C399 C 0.62316 0.91192 0.11119 0.0
N400 N 0.62303 0.86498 0.11711 0.0
Co401 Co 0.58657 0.81605 0.05385 0.0
N402 N 0.56533 0.86303 0.9892 0.0
C403 C 0.57956 0.90859 0.99318 0.0
C404 C 0.56185 0.93149 0.939 0.0
C405 C 0.53385 0.89863 0.89878 0.0
C406 C 0.5355 0.85772 0.93141 0.0
N407 N 0.54688 0.76784 0.99236 0.0
C408 C 0.51167 0.77416 0.94124 0.0
C409 C 0.48701 0.73236 0.91966 0.0
C410 C 0.50654 0.69882 0.95889 0.0
C411 C 0.54181 0.72187 1.00246 0.0
N412 N 0.61121 0.76835 0.11692 0.0
C413 C 0.60084 0.72168 0.10959 0.0
C414 C 0.62307 0.69747 0.16002 0.0
C415 C 0.65123 0.7302 0.20022 0.0
C416 C 0.64377 0.77286 0.17275 0.0
N417 N 0.52888 0.82744 0.09828 0.0
C418 C 0.43697 0.83447 0.13694 0.0
C419 C 0.46501 0.79496 0.14837 0.0
C420 C 0.51021 0.79232 0.12937 0.0
C421 C 0.45711 0.87169 0.10895 0.0
C422 C 0.50292 0.86776 0.091 0.0
N423 N 0.64325 0.80429 1.00754 0.0
C424 C 0.6851 0.75206 0.93782 0.0
C425 C 0.71432 0.78891 0.92484 0.0
C426 C 0.70967 0.83307 0.9581 0.0
C427 C 0.67422 0.83992 0.99915 0.0
C428 C 0.65067 0.76022 0.97934 0.0
H429 H 0.6714 0.87478 0.02167 0.0
H430 H 0.62918 0.73062 0.986 0.0
H431 H 0.52861 0.76062 0.139 0.0
H432 H 0.51624 0.89746 0.06995 0.0
C433 C 0.60392 0.92991 0.05205 0.0
C434 C 0.66967 0.81633 0.20014 0.0
C435 C 0.50004 0.81955 0.91356 0.0
C436 C 0.56796 0.70262 0.05668 0.0
H437 H 0.69487 0.91143 0.24773 0.0
H438 H 0.65835 0.9748 0.16775 0.0
H439 H 0.56628 0.96839 0.93148 0.0
H440 H 0.51139 0.90507 0.85341 0.0
H441 H 0.45744 0.72649 0.88069 0.0
H442 H 0.49498 0.66239 0.9576 0.0
H443 H 0.61914 0.66047 0.16707 0.0
H444 H 0.6747 0.72353 0.2446 0.0
H445 H 0.45171 0.76515 0.17015 0.0
H446 H 0.43771 0.90377 0.10072 0.0
H447 H 0.6874 0.71709 0.91354 0.0
H448 H 0.73109 0.86284 0.94934 0.0
C449 C 0.24267 0.6332 0.16948 0.0
C450 C 0.19863 0.64389 0.18714 0.0
C451 C 0.16566 0.62305 0.13821 0.0
C452 C 0.19152 0.60099 0.09378 0.0
N453 N 0.23884 0.60555 0.11256 0.0
Co454 Co 0.29009 0.58122 0.06354 0.0
N455 N 0.24308 0.56038 0.98504 0.0
C456 C 0.19561 0.56558 0.97726 0.0
C457 C 0.17362 0.55079 0.91519 0.0
C458 C 0.20936 0.53454 0.88209 0.0
C459 C 0.25107 0.54055 0.92605 0.0
N460 N 0.34137 0.55605 1.01438 0.0
C461 C 0.33766 0.5304 0.95549 0.0
C462 C 0.38163 0.51816 0.93921 0.0
C463 C 0.41445 0.53631 0.99037 0.0
C464 C 0.38855 0.55785 0.03513 0.0
N465 N 0.33736 0.60401 0.14159 0.0
C466 C 0.38488 0.59856 0.14949 0.0
C467 C 0.40804 0.62262 0.20558 0.0
C468 C 0.37332 0.64585 0.234 0.0
C469 C 0.33098 0.63437 0.19351 0.0
N470 N 0.2851 0.51703 0.10137 0.0
C471 C 0.27781 0.42681 0.15683 0.0
C472 C 0.32141 0.45102 0.15987 0.0
C473 C 0.32426 0.49497 0.13193 0.0
C474 C 0.23808 0.44914 0.12432 0.0
C475 C 0.24238 0.49337 0.09777 0.0
N476 N 0.29492 0.64479 0.02569 0.0
C477 C 0.34384 0.70647 0.99227 0.0
C478 C 0.30472 0.72855 0.95825 0.0
C479 C 0.25992 0.70933 0.96288 0.0
C480 C 0.25586 0.66824 0.99726 0.0
C481 C 0.33836 0.66556 0.02493 0.0
H482 H 0.22072 0.65514 0.9985 0.0
H483 H 0.37017 0.65035 0.04748 0.0
H484 H 0.3589 0.51035 0.13554 0.0
H485 H 0.21041 0.5077 0.07397 0.0
C486 C 0.17305 0.58321 0.02982 0.0
C487 C 0.28631 0.6571 0.20082 0.0
C488 C 0.293 0.5133 0.91748 0.0
C489 C 0.4069 0.57727 0.0984 0.0
H490 H 0.19136 0.6672 0.2285 0.0
H491 H 0.12755 0.62668 0.13316 0.0
H492 H 0.136 0.55003 0.89705 0.0
H493 H 0.205 0.51646 0.83327 0.0
H494 H 0.38915 0.49757 0.89565 0.0
H495 H 0.45257 0.53305 0.9951 0.0
H496 H 0.44593 0.62564 0.22143 0.0
H497 H 0.37871 0.67027 0.27754 0.0
H498 H 0.35373 0.43588 0.18303 0.0
H499 H 0.2032 0.43295 0.11983 0.0
H500 H 0.37952 0.71935 0.99076 0.0
H501 H 0.2283 0.72414 0.93711 0.0
C502 C 0.45228 0.35633 1.01379 0.0
C503 C 0.43734 0.4028 1.01532 0.0
C504 C 0.47508 0.43021 0.0453 0.0
C505 C 0.51086 0.39941 0.06111 0.0
N506 N 0.49803 0.35392 0.04408 0.0
Co507 Co 0.53753 0.29827 0.06754 0.0
N508 N 0.5865 0.33738 0.12919 0.0
C509 C 0.58808 0.38486 0.13678 0.0
C510 C 0.6231 0.40274 0.1853 0.0
C511 C 0.64605 0.36426 0.20905 0.0
C512 C 0.6246 0.32481 0.17229 0.0
N513 N 0.57716 0.24206 0.0899 0.0
C514 C 0.61896 0.23818 0.13094 0.0
C515 C 0.6383 0.1939 0.12003 0.0
C516 C 0.60774 0.16914 0.07239 0.0
C517 C 0.57199 0.19953 0.05537 0.0
N518 N 0.4883 0.2591 1.00626 0.0
C519 C 0.49376 0.21425 0.9829 0.0
C520 C 0.45527 0.1957 0.94084 0.0
C521 C 0.42314 0.23111 0.9367 0.0
C522 C 0.44391 0.26948 0.97681 0.0
N523 N 0.57393 0.30664 0.99393 0.0
C524 C 0.62865 0.31152 0.89032 0.0
C525 C 0.57901 0.31575 0.87894 0.0
C526 C 0.55232 0.31313 0.93137 0.0
C527 C 0.64984 0.30658 0.95493 0.0
C528 C 0.62235 0.30451 1.00514 0.0
N529 N 0.50117 0.29029 0.14118 0.0
C530 C 0.45114 0.2414 0.19393 0.0
C531 C 0.43695 0.28053 0.2322 0.0
C532 C 0.45829 0.32421 0.22698 0.0
C533 C 0.49028 0.32827 0.1815 0.0
C534 C 0.4831 0.24693 0.14929 0.0
H535 H 0.50448 0.36277 0.17751 0.0
H536 H 0.49159 0.21629 0.11933 0.0
H537 H 0.51427 0.31588 0.92106 0.0
H538 H 0.64116 0.3007 0.05302 0.0
C539 C 0.55305 0.4112 0.1027 0.0
C540 C 0.42252 0.31637 0.97927 0.0
C541 C 0.64475 0.277 0.17422 0.0
C542 C 0.53356 0.18938 1.00632 0.0
H543 H 0.40254 0.41564 0.9975 0.0
H544 H 0.47557 0.46784 0.0579 0.0
H545 H 0.63035 0.43937 0.20256 0.0
H546 H 0.67533 0.36557 0.24887 0.0
H547 H 0.67235 0.18105 0.14051 0.0
H548 H 0.61213 0.13379 0.05074 0.0
H549 H 0.45083 0.16041 0.9167 0.0
H550 H 0.3888 0.22891 0.90634 0.0
H551 H 0.56089 0.32012 0.82993 0.0
H552 H 0.68794 0.30483 0.96751 0.0
H553 H 0.43608 0.20664 0.19633 0.0
H554 H 0.44848 0.35551 0.25503 0.0
C555 C 0.77149 0.62054 0.11229 0.0
C556 C 0.72857 0.64048 0.12154 0.0
C557 C 0.69397 0.60789 0.09555 0.0
C558 C 0.71748 0.56977 0.07213 0.0
N559 N 0.76507 0.57601 0.08099 0.0
Co560 Co 0.81138 0.52911 0.04971 0.0
N561 N 0.76045 0.4815 1.0106 0.0
C562 C 0.71374 0.48555 1.01484 0.0
C563 C 0.68666 0.44805 0.98369 0.0
C564 C 0.7179 0.41848 0.95744 0.0
C565 C 0.76252 0.43948 0.97386 0.0
N566 N 0.85791 0.48284 1.01673 0.0
C567 C 0.85117 0.44099 0.9783 0.0
C568 C 0.8939 0.42238 0.96511 0.0
C569 C 0.92875 0.45324 0.99552 0.0
C570 C 0.90554 0.48908 0.02543 0.0
N571 N 0.86253 0.57656 0.08971 0.0
C572 C 0.90967 0.57057 0.0908 0.0
C573 C 0.93679 0.60811 0.12175 0.0
C574 C 0.90519 0.64009 0.14184 0.0
C575 C 0.86032 0.62043 0.12188 0.0
N576 N 0.81655 0.49886 0.13427 0.0
C577 C 0.82112 0.43309 0.22928 0.0
C578 C 0.86232 0.44985 0.20919 0.0
C579 C 0.85935 0.48317 0.16281 0.0
C580 C 0.77834 0.45435 0.20812 0.0
C581 C 0.777 0.48765 0.16129 0.0
N582 N 0.80556 0.55833 0.96516 0.0
C583 C 0.84136 0.59682 0.88412 0.0
C584 C 0.79677 0.6057 0.85 0.0
C585 C 0.75674 0.588 0.87188 0.0
C586 C 0.76191 0.56465 0.92938 0.0
C587 C 0.84497 0.57292 0.94098 0.0
H588 H 0.72998 0.55335 0.9449 0.0
H589 H 0.87988 0.56784 0.96552 0.0
H590 H 0.89182 0.49333 0.14787 0.0
H591 H 0.74316 0.50161 0.14506 0.0
C592 C 0.69608 0.52726 0.04255 0.0
C593 C 0.81721 0.6453 0.13622 0.0
C594 C 0.80516 0.41822 0.95124 0.0
C595 C 0.92714 0.52991 0.06006 0.0
H596 H 0.72314 0.6751 0.14462 0.0
H597 H 0.65607 0.61133 0.09362 0.0
H598 H 0.64854 0.44345 0.97872 0.0
H599 H 0.7089 0.38561 0.92817 0.0
H600 H 0.89918 0.39006 0.93584 0.0
H601 H 0.96653 0.45034 0.99484 0.0
H602 H 0.97504 0.61194 0.12847 0.0
H603 H 0.91399 0.67424 0.16804 0.0
H604 H 0.89638 0.4346 0.22536 0.0
H605 H 0.74558 0.44242 0.22286 0.0
H606 H 0.87321 0.61008 0.86835 0.0
H607 H 0.72151 0.59479 0.84725 0.0
loop_
_geom_bond_atom_site_label_1
_geom_bond_atom_site_label_2
_geom_bond_distance
_geom_bond_site_symmetry_2
_ccdc_geom_bond_type
Cu0 N1 1.999 . S
Cu0 O6 1.974 . S
Cu0 N11 1.985 . S
Cu0 O20 1.959 . S
N1 Cu0 1.999 . S
N1 C3 1.263 . S
N1 C5 1.389 . S
N2 C3 1.358 . S
N2 C4 1.400 . S
C3 N1 1.263 . S
C3 N2 1.358 . S
C3 H9 0.930 . S
C4 N2 1.400 . S
C4 C5 1.351 . S
C4 H21 0.930 . S
C5 N1 1.389 . S
C5 C4 1.351 . S
C5 H10 0.930 . S
O6 Cu0 1.974 . S
O6 C16 1.282 . S
C7 O8 1.261 . S
C7 O20 1.251 . S
O8 C7 1.261 . S
H9 C3 0.930 . S
H10 C5 0.930 . S
N11 Cu0 1.985 . S
N11 C13 1.335 . S
N11 C14 1.390 . S
N12 C13 1.345 . S
N12 C15 1.336 . S
C13 N11 1.335 . S
C13 N12 1.345 . S
C13 H18 0.930 . S
C14 N11 1.390 . S
C14 C15 1.346 . S
C14 H19 0.930 . S
C15 N12 1.336 . S
C15 C14 1.346 . S
C15 H22 0.929 . S
C16 O6 1.282 . S
C16 O17 1.216 . S
O17 C16 1.216 . S
H18 C13 0.930 . S
H19 C14 0.930 . S
O20 Cu0 1.959 . S
O20 C7 1.251 . S
H21 C4 0.930 . S
H22 C15 0.929 . S
Cu23 N24 1.999 . S
Cu23 O29 1.974 . S
Cu23 N34 1.985 . S
Cu23 O43 1.959 . S
N24 Cu23 1.999 . S
N24 C26 1.263 . S
N24 C28 1.389 . S
N25 C26 1.358 . S
N25 C27 1.400 . S
C26 N24 1.263 . S
C26 N25 1.358 . S
C26 H32 0.930 . S
C27 N25 1.400 . S
C27 C28 1.351 . S
C27 H44 0.930 . S
C28 N24 1.389 . S
C28 C27 1.351 . S
C28 H33 0.930 . S
O29 Cu23 1.974 . S
O29 C39 1.282 . S
C30 O31 1.261 . S
C30 O43 1.251 . S
O31 C30 1.261 . S
H32 C26 0.930 . S
H33 C28 0.930 . S
N34 Cu23 1.985 . S
N34 C36 1.335 . S
N34 C37 1.390 . S
N35 C36 1.345 . S
N35 C38 1.336 . S
C36 N34 1.335 . S
C36 N35 1.345 . S
C36 H41 0.930 . S
C37 N34 1.390 . S
C37 C38 1.346 . S
C37 H42 0.930 . S
C38 N35 1.336 . S
C38 C37 1.346 . S
C38 H45 0.929 . S
C39 O29 1.282 . S
C39 O40 1.216 . S
O40 C39 1.216 . S
H41 C36 0.930 . S
H42 C37 0.930 . S
O43 Cu23 1.959 . S
O43 C30 1.251 . S
H44 C27 0.930 . S
H45 C38 0.929 . S
Cu46 N47 1.999 . S
Cu46 O52 1.974 . S
Cu46 N57 1.985 . S
Cu46 O66 1.959 . S
N47 Cu46 1.999 . S
N47 C49 1.263 . S
N47 C51 1.389 . S
N48 C49 1.358 . S
N48 C50 1.400 . S
C49 N47 1.263 . S
C49 N48 1.358 . S
C49 H55 0.930 . S
C50 N48 1.400 . S
C50 C51 1.351 . S
C50 H67 0.930 . S
C51 N47 1.389 . S
C51 C50 1.351 . S
C51 H56 0.930 . S
O52 Cu46 1.974 . S
O52 C62 1.282 . S
C53 O54 1.261 . S
C53 O66 1.251 . S
O54 C53 1.261 . S
H55 C49 0.930 . S
H56 C51 0.930 . S
N57 Cu46 1.985 . S
N57 C59 1.335 . S
N57 C60 1.390 . S
N58 C59 1.345 . S
N58 C61 1.336 . S
C59 N57 1.335 . S
C59 N58 1.345 . S
C59 H64 0.930 . S
C60 N57 1.390 . S
C60 C61 1.346 . S
C60 H65 0.930 . S
C61 N58 1.336 . S
C61 C60 1.346 . S
C61 H68 0.929 . S
C62 O52 1.282 . S
C62 O63 1.216 . S
O63 C62 1.216 . S
H64 C59 0.930 . S
H65 C60 0.930 . S
O66 Cu46 1.959 . S
O66 C53 1.251 . S
H67 C50 0.930 . S
H68 C61 0.929 . S
Cu69 N70 1.999 . S
Cu69 O75 1.974 . S
Cu69 N80 1.985 . S
Cu69 O89 1.959 . S
N70 Cu69 1.999 . S
N70 C72 1.263 . S
N70 C74 1.389 . S
N71 C72 1.358 . S
N71 C73 1.400 . S
C72 N70 1.263 . S
C72 N71 1.358 . S
C72 H78 0.930 . S
C73 N71 1.400 . S
C73 C74 1.351 . S
C73 H90 0.930 . S
C74 N70 1.389 . S
C74 C73 1.351 . S
C74 H79 0.930 . S
O75 Cu69 1.974 . S
O75 C85 1.282 . S
C76 O77 1.261 . S
C76 O89 1.251 . S
O77 C76 1.261 . S
H78 C72 0.930 . S
H79 C74 0.930 . S
N80 Cu69 1.985 . S
N80 C82 1.335 . S
N80 C83 1.390 . S
N81 C82 1.345 . S
N81 C84 1.336 . S
C82 N80 1.335 . S
C82 N81 1.345 . S
C82 H87 0.930 . S
C83 N80 1.390 . S
C83 C84 1.346 . S
C83 H88 0.930 . S
C84 N81 1.336 . S
C84 C83 1.346 . S
C84 H91 0.929 . S
C85 O75 1.282 . S
C85 O86 1.216 . S
O86 C85 1.216 . S
H87 C82 0.930 . S
H88 C83 0.930 . S
O89 Cu69 1.959 . S
O89 C76 1.251 . S
H90 C73 0.930 . S
H91 C84 0.929 . S
Cu92 N93 1.999 . S
Cu92 O98 1.974 . S
Cu92 N103 1.985 . S
Cu92 O112 1.959 . S
N93 Cu92 1.999 . S
N93 C95 1.263 . S
N93 C97 1.389 . S
N94 C95 1.358 . S
N94 C96 1.400 . S
C95 N93 1.263 . S
C95 N94 1.358 . S
C95 H101 0.930 . S
C96 N94 1.400 . S
C96 C97 1.351 . S
C96 H113 0.930 . S
C97 N93 1.389 . S
C97 C96 1.351 . S
C97 H102 0.930 . S
O98 Cu92 1.974 . S
O98 C108 1.282 . S
C99 O100 1.261 . S
C99 O112 1.251 . S
O100 C99 1.261 . S
H101 C95 0.930 . S
H102 C97 0.930 . S
N103 Cu92 1.985 . S
N103 C105 1.335 . S
N103 C106 1.390 . S
N104 C105 1.345 . S
N104 C107 1.336 . S
C105 N103 1.335 . S
C105 N104 1.345 . S
C105 H110 0.930 . S
C106 N103 1.390 . S
C106 C107 1.346 . S
C106 H111 0.930 . S
C107 N104 1.336 . S
C107 C106 1.346 . S
C107 H114 0.929 . S
C108 O98 1.282 . S
C108 O109 1.216 . S
O109 C108 1.216 . S
H110 C105 0.930 . S
H111 C106 0.930 . S
O112 Cu92 1.959 . S
O112 C99 1.251 . S
H113 C96 0.930 . S
H114 C107 0.929 . S
Cu115 N116 1.999 . S
Cu115 O121 1.974 . S
Cu115 N126 1.985 . S
Cu115 O135 1.959 . S
N116 Cu115 1.999 . S
N116 C118 1.263 . S
N116 C120 1.389 . S
N117 C118 1.358 . S
N117 C119 1.400 . S
C118 N116 1.263 . S
C118 N117 1.358 . S
C118 H124 0.930 . S
C119 N117 1.400 . S
C119 C120 1.351 . S
C119 H136 0.930 . S
C120 N116 1.389 . S
C120 C119 1.351 . S
C120 H125 0.930 . S
O121 Cu115 1.974 . S
O121 C131 1.282 . S
C122 O123 1.261 . S
C122 O135 1.251 . S
O123 C122 1.261 . S
H124 C118 0.930 . S
H125 C120 0.930 . S
N126 Cu115 1.985 . S
N126 C128 1.335 . S
N126 C129 1.390 . S
N127 C128 1.345 . S
N127 C130 1.336 . S
C128 N126 1.335 . S
C128 N127 1.345 . S
C128 H133 0.930 . S
C129 N126 1.390 . S
C129 C130 1.346 . S
C129 H134 0.930 . S
C130 N127 1.336 . S
C130 C129 1.346 . S
C130 H137 0.929 . S
C131 O121 1.282 . S
C131 O132 1.216 . S
O132 C131 1.216 . S
H133 C128 0.930 . S
H134 C129 0.930 . S
O135 Cu115 1.959 . S
O135 C122 1.251 . S
H136 C119 0.930 . S
H137 C130 0.929 . S
Cu138 N139 1.999 . S
Cu138 O144 1.974 . S
Cu138 N149 1.985 . S
Cu138 O158 1.959 . S
N139 Cu138 1.999 . S
N139 C141 1.263 . S
N139 C143 1.389 . S
N140 C141 1.358 . S
N140 C142 1.400 . S
C141 N139 1.263 . S
C141 N140 1.358 . S
C141 H147 0.930 . S
C142 N140 1.400 . S
C142 C143 1.351 . S
C142 H159 0.930 . S
C143 N139 1.389 . S
C143 C142 1.351 . S
C143 H148 0.930 . S
O144 Cu138 1.974 . S
O144 C154 1.282 . S
C145 O146 1.261 . S
C145 O158 1.251 . S
O146 C145 1.261 . S
H147 C141 0.930 . S
H148 C143 0.930 . S
N149 Cu138 1.985 . S
N149 C151 1.335 . S
N149 C152 1.390 . S
N150 C151 1.345 . S
N150 C153 1.336 . S
C151 N149 1.335 . S
C151 N150 1.345 . S
C151 H156 0.930 . S
C152 N149 1.390 . S
C152 C153 1.346 . S
C152 H157 0.930 . S
C153 N150 1.336 . S
C153 C152 1.346 . S
C153 H160 0.929 . S
C154 O144 1.282 . S
C154 O155 1.216 . S
O155 C154 1.216 . S
H156 C151 0.930 . S
H157 C152 0.930 . S
O158 Cu138 1.959 . S
O158 C145 1.251 . S
H159 C142 0.930 . S
H160 C153 0.929 . S
Cu161 N162 1.999 . S
Cu161 O167 1.974 . S
Cu161 N172 1.985 . S
Cu161 O181 1.959 . S
N162 Cu161 1.999 . S
N162 C164 1.263 . S
N162 C166 1.389 . S
N163 C164 1.358 . S
N163 C165 1.400 . S
C164 N162 1.263 . S
C164 N163 1.358 . S
C164 H170 0.930 . S
C165 N163 1.400 . S
C165 C166 1.351 . S
C165 H182 0.930 . S
C166 N162 1.389 . S
C166 C165 1.351 . S
C166 H171 0.930 . S
O167 Cu161 1.974 . S
O167 C177 1.282 . S
C168 O169 1.261 . S
C168 O181 1.251 . S
O169 C168 1.261 . S
H170 C164 0.930 . S
H171 C166 0.930 . S
N172 Cu161 1.985 . S
N172 C174 1.335 . S
N172 C175 1.390 . S
N173 C174 1.345 . S
N173 C176 1.336 . S
C174 N172 1.335 . S
C174 N173 1.345 . S
C174 H179 0.930 . S
C175 N172 1.390 . S
C175 C176 1.346 . S
C175 H180 0.930 . S
C176 N173 1.336 . S
C176 C175 1.346 . S
C176 H183 0.929 . S
C177 O167 1.282 . S
C177 O178 1.216 . S
O178 C177 1.216 . S
H179 C174 0.930 . S
H180 C175 0.930 . S
O181 Cu161 1.959 . S
O181 C168 1.251 . S
H182 C165 0.930 . S
H183 C176 0.929 . S
C184 C185 1.443 . S
C184 N188 1.376 . S
C184 C222 1.389 . S
C185 C184 1.443 . S
C185 C186 1.340 . S
C185 H225 0.951 . S
C186 C185 1.340 . S
C186 C187 1.439 . S
C186 H226 0.950 . S
C187 C186 1.439 . S
C187 N188 1.374 . S
C187 C221 1.395 . S
N188 C184 1.376 . S
N188 C187 1.374 . S
N188 Co189 2.008 . S
Co189 N188 2.008 . S
Co189 N190 1.995 . S
Co189 N195 2.008 . S
Co189 N200 1.995 . S
Co189 N205 2.282 . S
Co189 N211 2.282 . S
N190 Co189 1.995 . S
N190 C191 1.376 . S
N190 C194 1.383 1_455 S
C191 N190 1.376 . S
C191 C192 1.446 . S
C191 C221 1.391 . S
C192 C191 1.446 . S
C192 C193 1.339 1_455 S
C192 H227 0.949 . S
C193 C192 1.339 1_655 S
C193 C194 1.439 . S
C193 H228 0.950 . S
C194 N190 1.383 1_655 S
C194 C193 1.439 . S
C194 C223 1.392 . S
N195 Co189 2.008 . S
N195 C196 1.376 1_455 S
N195 C199 1.374 . S
C196 N195 1.376 1_655 S
C196 C197 1.443 . S
C196 C223 1.389 . S
C197 C196 1.443 . S
C197 C198 1.340 . S
C197 H229 0.951 . S
C198 C197 1.340 . S
C198 C199 1.439 1_655 S
C198 H230 0.950 . S
C199 N195 1.374 . S
C199 C198 1.439 1_455 S
C199 C224 1.395 . S
N200 Co189 1.995 . S
N200 C201 1.376 . S
N200 C204 1.383 . S
C201 N200 1.376 . S
C201 C202 1.446 . S
C201 C224 1.391 . S
C202 C201 1.446 . S
C202 C203 1.339 . S
C202 H231 0.949 . S
C203 C202 1.339 . S
C203 C204 1.439 . S
C203 H232 0.950 . S
C204 N200 1.383 . S
C204 C203 1.439 . S
C204 C222 1.392 . S
N205 Co189 2.282 . S
N205 C208 1.332 . S
N205 C210 1.332 1_455 S
C206 C207 1.386 . S
C206 C209 1.388 . S
C207 C206 1.386 . S
C207 C208 1.382 1_655 S
C207 H233 0.950 . S
C208 N205 1.332 . S
C208 C207 1.382 1_455 S
C208 H219 0.952 . S
C209 C206 1.388 . S
C209 C210 1.382 . S
C209 H234 0.950 . S
C210 N205 1.332 1_655 S
C210 C209 1.382 . S
C210 H220 0.948 1_655 S
N211 Co189 2.282 . S
N211 C215 1.332 . S
N211 C216 1.332 . S
C212 C213 1.388 . S
C212 C216 1.382 . S
C212 H235 0.950 . S
C213 C212 1.388 . S
C213 C214 1.386 . S
C214 C213 1.386 . S
C214 C215 1.382 . S
C214 H236 0.950 . S
C215 N211 1.332 . S
C215 C214 1.382 . S
C215 H217 0.952 . S
C216 N211 1.332 . S
C216 C212 1.382 . S
C216 H218 0.948 . S
H217 C215 0.952 . S
H218 C216 0.948 . S
H219 C208 0.952 . S
H220 C210 0.948 1_455 S
C221 C187 1.395 . S
C221 C191 1.391 . S
C222 C184 1.389 . S
C222 C204 1.392 . S
C223 C194 1.392 . S
C223 C196 1.389 . S
C224 C199 1.395 . S
C224 C201 1.391 . S
H225 C185 0.951 . S
H226 C186 0.950 . S
H227 C192 0.949 . S
H228 C193 0.950 . S
H229 C197 0.951 . S
H230 C198 0.950 . S
H231 C202 0.949 . S
H232 C203 0.950 . S
H233 C207 0.950 . S
H234 C209 0.950 . S
H235 C212 0.950 . S
H236 C214 0.950 . S
C237 C238 1.443 . S
C237 N241 1.376 . S
C237 C275 1.389 . S
C238 C237 1.443 . S
C238 C239 1.340 . S
C238 H278 0.951 . S
C239 C238 1.340 . S
C239 C240 1.439 . S
C239 H279 0.950 . S
C240 C239 1.439 . S
C240 N241 1.374 . S
C240 C274 1.395 . S
N241 C237 1.376 . S
N241 C240 1.374 . S
N241 Co242 2.008 . S
Co242 N241 2.008 . S
Co242 N243 1.995 . S
Co242 N248 2.008 . S
Co242 N253 1.995 . S
Co242 N258 2.282 . S
Co242 N264 2.282 . S
N243 Co242 1.995 . S
N243 C244 1.376 . S
N243 C247 1.384 1_545 S
C244 N243 1.376 . S
C244 C245 1.446 . S
C244 C274 1.391 . S
C245 C244 1.446 . S
C245 C246 1.339 1_545 S
C245 H280 0.949 . S
C246 C245 1.339 1_565 S
C246 C247 1.438 . S
C246 H281 0.950 . S
C247 N243 1.384 1_565 S
C247 C246 1.438 . S
C247 C276 1.391 . S
N248 Co242 2.008 . S
N248 C249 1.376 1_545 S
N248 C252 1.374 . S
C249 N248 1.376 1_565 S
C249 C250 1.443 . S
C249 C276 1.389 . S
C250 C249 1.443 . S
C250 C251 1.340 . S
C250 H282 0.951 . S
C251 C250 1.340 . S
C251 C252 1.439 1_565 S
C251 H283 0.950 . S
C252 N248 1.374 . S
C252 C251 1.439 1_545 S
C252 C277 1.395 . S
N253 Co242 1.995 . S
N253 C254 1.376 . S
N253 C257 1.383 . S
C254 N253 1.376 . S
C254 C255 1.446 . S
C254 C277 1.391 . S
C255 C254 1.446 . S
C255 C256 1.339 . S
C255 H284 0.949 . S
C256 C255 1.339 . S
C256 C257 1.439 . S
C256 H285 0.950 . S
C257 N253 1.383 . S
C257 C256 1.439 . S
C257 C275 1.392 . S
N258 Co242 2.282 . S
N258 C261 1.332 1_545 S
N258 C263 1.332 1_545 S
C259 C260 1.386 . S
C259 C262 1.388 . S
C260 C259 1.386 . S
C260 C261 1.382 . S
C260 H286 0.950 . S
C261 N258 1.332 1_565 S
C261 C260 1.382 . S
C261 H272 0.952 1_565 S
C262 C259 1.388 . S
C262 C263 1.382 . S
C262 H287 0.950 . S
C263 N258 1.332 1_565 S
C263 C262 1.382 . S
C263 H273 0.948 . S
N264 Co242 2.282 . S
N264 C268 1.332 . S
N264 C269 1.332 . S
C265 C266 1.388 . S
C265 C269 1.382 . S
C265 H288 0.950 . S
C266 C265 1.388 . S
C266 C267 1.386 . S
C267 C266 1.386 . S
C267 C268 1.382 . S
C267 H289 0.950 . S
C268 N264 1.332 . S
C268 C267 1.382 . S
C268 H270 0.952 . S
C269 N264 1.332 . S
C269 C265 1.382 . S
C269 H271 0.948 . S
H270 C268 0.952 . S
H271 C269 0.948 . S
H272 C261 0.952 1_545 S
H273 C263 0.948 . S
C274 C240 1.395 . S
C274 C244 1.391 . S
C275 C237 1.389 . S
C275 C257 1.392 . S
C276 C247 1.391 . S
C276 C249 1.389 . S
C277 C252 1.395 . S
C277 C254 1.391 . S
H278 C238 0.951 . S
H279 C239 0.950 . S
H280 C245 0.949 . S
H281 C246 0.950 . S
H282 C250 0.951 . S
H283 C251 0.950 . S
H284 C255 0.949 . S
H285 C256 0.950 . S
H286 C260 0.950 . S
H287 C262 0.950 . S
H288 C265 0.950 . S
H289 C267 0.950 . S
C290 C291 1.443 . S
C290 N294 1.376 . S
C290 C328 1.389 . S
C291 C290 1.443 . S
C291 C292 1.340 . S
C291 H331 0.951 . S
C292 C291 1.340 . S
C292 C293 1.439 . S
C292 H332 0.950 . S
C293 C292 1.439 . S
C293 N294 1.374 . S
C293 C327 1.395 . S
N294 C290 1.376 . S
N294 C293 1.374 . S
N294 Co295 2.008 . S
Co295 N294 2.008 . S
Co295 N296 1.995 1_455 S
Co295 N301 2.008 1_455 S
Co295 N306 1.995 . S
Co295 N311 2.282 1_455 S
Co295 N317 2.282 . S
N296 Co295 1.995 1_655 S
N296 C297 1.376 . S
N296 C300 1.383 . S
C297 N296 1.376 . S
C297 C298 1.446 . S
C297 C327 1.391 1_655 S
C298 C297 1.446 . S
C298 C299 1.339 . S
C298 H333 0.949 . S
C299 C298 1.339 . S
C299 C300 1.439 . S
C299 H334 0.950 . S
C300 N296 1.383 . S
C300 C299 1.439 . S
C300 C329 1.392 . S
N301 Co295 2.008 1_655 S
N301 C302 1.376 . S
N301 C305 1.374 . S
C302 N301 1.376 . S
C302 C303 1.443 . S
C302 C329 1.389 . S
C303 C302 1.443 . S
C303 C304 1.340 . S
C303 H335 0.951 . S
C304 C303 1.340 . S
C304 C305 1.439 . S
C304 H336 0.950 . S
C305 N301 1.374 . S
C305 C304 1.439 . S
C305 C330 1.395 . S
N306 Co295 1.995 . S
N306 C307 1.376 . S
N306 C310 1.383 . S
C307 N306 1.376 . S
C307 C308 1.446 . S
C307 C330 1.391 1_455 S
C308 C307 1.446 . S
C308 C309 1.339 . S
C308 H337 0.949 . S
C309 C308 1.339 . S
C309 C310 1.439 . S
C309 H338 0.950 . S
C310 N306 1.383 . S
C310 C309 1.439 . S
C310 C328 1.392 . S
N311 Co295 2.282 1_655 S
N311 C314 1.332 . S
N311 C316 1.332 . S
C312 C313 1.386 . S
C312 C315 1.388 . S
C313 C312 1.386 . S
C313 C314 1.382 . S
C313 H339 0.950 . S
C314 N311 1.332 . S
C314 C313 1.382 . S
C314 H325 0.952 . S
C315 C312 1.388 . S
C315 C316 1.382 . S
C315 H340 0.950 . S
C316 N311 1.332 . S
C316 C315 1.382 . S
C316 H326 0.948 . S
N317 Co295 2.282 . S
N317 C321 1.332 . S
N317 C322 1.332 . S
C318 C319 1.388 . S
C318 C322 1.382 . S
C318 H341 0.950 . S
C319 C318 1.388 . S
C319 C320 1.386 . S
C320 C319 1.386 . S
C320 C321 1.382 . S
C320 H342 0.950 . S
C321 N317 1.332 . S
C321 C320 1.382 . S
C321 H323 0.952 . S
C322 N317 1.332 . S
C322 C318 1.382 . S
C322 H324 0.948 . S
H323 C321 0.952 . S
H324 C322 0.948 . S
H325 C314 0.952 . S
H326 C316 0.948 . S
C327 C293 1.395 . S
C327 C297 1.391 1_455 S
C328 C290 1.389 . S
C328 C310 1.392 . S
C329 C300 1.392 . S
C329 C302 1.389 . S
C330 C305 1.395 . S
C330 C307 1.391 1_655 S
H331 C291 0.951 . S
H332 C292 0.950 . S
H333 C298 0.949 . S
H334 C299 0.950 . S
H335 C303 0.951 . S
H336 C304 0.950 . S
H337 C308 0.949 . S
H338 C309 0.950 . S
H339 C313 0.950 . S
H340 C315 0.950 . S
H341 C318 0.950 . S
H342 C320 0.950 . S
C343 C344 1.443 . S
C343 N347 1.376 . S
C343 C381 1.389 . S
C344 C343 1.443 . S
C344 C345 1.340 . S
C344 H384 0.951 . S
C345 C344 1.340 . S
C345 C346 1.439 . S
C345 H385 0.950 . S
C346 C345 1.439 . S
C346 N347 1.374 . S
C346 C380 1.395 1_565 S
N347 C343 1.376 . S
N347 C346 1.374 . S
N347 Co348 2.008 1_565 S
Co348 N347 2.008 1_545 S
Co348 N349 1.995 . S
Co348 N354 2.008 . S
Co348 N359 1.995 1_545 S
Co348 N364 2.282 . S
Co348 N370 2.282 1_545 S
N349 Co348 1.995 . S
N349 C350 1.376 . S
N349 C353 1.383 . S
C350 N349 1.376 . S
C350 C351 1.446 . S
C350 C380 1.391 . S
C351 C350 1.446 . S
C351 C352 1.339 . S
C351 H386 0.949 . S
C352 C351 1.339 . S
C352 C353 1.439 . S
C352 H387 0.950 . S
C353 N349 1.383 . S
C353 C352 1.439 . S
C353 C382 1.392 . S
N354 Co348 2.008 . S
N354 C355 1.376 . S
N354 C358 1.374 . S
C355 N354 1.376 . S
C355 C356 1.443 . S
C355 C382 1.389 . S
C356 C355 1.443 . S
C356 C357 1.340 . S
C356 H388 0.951 . S
C357 C356 1.340 . S
C357 C358 1.439 . S
C357 H389 0.950 . S
C358 N354 1.374 . S
C358 C357 1.439 . S
C358 C383 1.395 . S
N359 Co348 1.995 1_565 S
N359 C360 1.376 . S
N359 C363 1.383 . S
C360 N359 1.376 . S
C360 C361 1.446 . S
C360 C383 1.391 1_565 S
C361 C360 1.446 . S
C361 C362 1.339 . S
C361 H390 0.949 . S
C362 C361 1.339 . S
C362 C363 1.439 . S
C362 H391 0.950 . S
C363 N359 1.383 . S
C363 C362 1.439 . S
C363 C381 1.392 . S
N364 Co348 2.282 . S
N364 C367 1.332 . S
N364 C369 1.332 . S
C365 C366 1.386 . S
C365 C368 1.388 . S
C366 C365 1.386 . S
C366 C367 1.382 . S
C366 H392 0.950 . S
C367 N364 1.332 . S
C367 C366 1.382 . S
C367 H378 0.952 . S
C368 C365 1.388 . S
C368 C369 1.382 . S
C368 H393 0.950 . S
C369 N364 1.332 . S
C369 C368 1.382 . S
C369 H379 0.948 . S
N370 Co348 2.282 1_565 S
N370 C374 1.332 . S
N370 C375 1.332 . S
C371 C372 1.388 . S
C371 C375 1.382 . S
C371 H394 0.950 . S
C372 C371 1.388 . S
C372 C373 1.386 . S
C373 C372 1.386 . S
C373 C374 1.382 . S
C373 H395 0.950 . S
C374 N370 1.332 . S
C374 C373 1.382 . S
C374 H376 0.952 . S
C375 N370 1.332 . S
C375 C371 1.382 . S
C375 H377 0.948 . S
H376 C374 0.952 . S
H377 C375 0.948 . S
H378 C367 0.952 . S
H379 C369 0.948 . S
C380 C346 1.395 1_545 S
C380 C350 1.391 . S
C381 C343 1.389 . S
C381 C363 1.392 . S
C382 C353 1.392 . S
C382 C355 1.389 . S
C383 C358 1.395 . S
C383 C360 1.391 1_545 S
H384 C344 0.951 . S
H385 C345 0.950 . S
H386 C351 0.949 . S
H387 C352 0.950 . S
H388 C356 0.951 . S
H389 C357 0.950 . S
H390 C361 0.949 . S
H391 C362 0.950 . S
H392 C366 0.950 . S
H393 C368 0.950 . S
H394 C371 0.950 . S
H395 C373 0.950 . S
C396 C397 1.443 . S
C396 N400 1.376 . S
C396 C434 1.389 . S
C397 C396 1.443 . S
C397 C398 1.340 . S
C397 H437 0.951 . S
C398 C397 1.340 . S
C398 C399 1.439 . S
C398 H438 0.950 . S
C399 C398 1.439 . S
C399 N400 1.374 . S
C399 C433 1.395 . S
N400 C396 1.376 . S
N400 C399 1.374 . S
N400 Co401 2.008 . S
Co401 N400 2.008 . S
Co401 N402 1.995 1_554 S
Co401 N407 2.008 1_554 S
Co401 N412 1.995 . S
Co401 N417 2.282 . S
Co401 N423 2.282 1_554 S
N402 Co401 1.995 1_556 S
N402 C403 1.376 . S
N402 C406 1.383 . S
C403 N402 1.376 . S
C403 C404 1.446 . S
C403 C433 1.391 1_556 S
C404 C403 1.446 . S
C404 C405 1.339 . S
C404 H439 0.949 . S
C405 C404 1.339 . S
C405 C406 1.439 . S
C405 H440 0.950 . S
C406 N402 1.383 . S
C406 C405 1.439 . S
C406 C435 1.392 . S
N407 Co401 2.008 1_556 S
N407 C408 1.376 . S
N407 C411 1.374 . S
C408 N407 1.376 . S
C408 C409 1.443 . S
C408 C435 1.389 . S
C409 C408 1.443 . S
C409 C410 1.340 . S
C409 H441 0.951 . S
C410 C409 1.340 . S
C410 C411 1.439 . S
C410 H442 0.950 . S
C411 N407 1.374 . S
C411 C410 1.439 . S
C411 C436 1.395 . S
N412 Co401 1.995 . S
N412 C413 1.376 . S
N412 C416 1.383 . S
C413 N412 1.376 . S
C413 C414 1.446 . S
C413 C436 1.391 1_554 S
C414 C413 1.446 . S
C414 C415 1.339 . S
C414 H443 0.949 . S
C415 C414 1.339 . S
C415 C416 1.439 . S
C415 H444 0.950 . S
C416 N412 1.383 . S
C416 C415 1.439 . S
C416 C434 1.392 . S
N417 Co401 2.282 . S
N417 C420 1.332 . S
N417 C422 1.332 . S
C418 C419 1.386 . S
C418 C421 1.388 . S
C419 C418 1.386 . S
C419 C420 1.382 . S
C419 H445 0.950 . S
C420 N417 1.332 . S
C420 C419 1.382 . S
C420 H431 0.952 . S
C421 C418 1.388 . S
C421 C422 1.382 . S
C421 H446 0.950 . S
C422 N417 1.332 . S
C422 C421 1.382 . S
C422 H432 0.948 . S
N423 Co401 2.282 1_556 S
N423 C427 1.332 . S
N423 C428 1.332 . S
C424 C425 1.388 . S
C424 C428 1.382 . S
C424 H447 0.950 . S
C425 C424 1.388 . S
C425 C426 1.386 . S
C426 C425 1.386 . S
C426 C427 1.382 . S
C426 H448 0.950 . S
C427 N423 1.332 . S
C427 C426 1.382 . S
C427 H429 0.952 . S
C428 N423 1.332 . S
C428 C424 1.382 . S
C428 H430 0.948 . S
H429 C427 0.952 . S
H430 C428 0.948 . S
H431 C420 0.952 . S
H432 C422 0.948 . S
C433 C399 1.395 . S
C433 C403 1.391 1_554 S
C434 C396 1.389 . S
C434 C416 1.392 . S
C435 C406 1.392 . S
C435 C408 1.389 . S
C436 C411 1.395 . S
C436 C413 1.391 1_556 S
H437 C397 0.951 . S
H438 C398 0.950 . S
H439 C404 0.949 . S
H440 C405 0.950 . S
H441 C409 0.951 . S
H442 C410 0.950 . S
H443 C414 0.949 . S
H444 C415 0.950 . S
H445 C419 0.950 . S
H446 C421 0.950 . S
H447 C424 0.950 . S
H448 C426 0.950 . S
C449 C450 1.443 . S
C449 N453 1.376 . S
C449 C487 1.389 . S
C450 C449 1.443 . S
C450 C451 1.340 . S
C450 H490 0.951 . S
C451 C450 1.340 . S
C451 C452 1.439 . S
C451 H491 0.950 . S
C452 C451 1.439 . S
C452 N453 1.374 . S
C452 C486 1.395 1_554 S
N453 C449 1.376 . S
N453 C452 1.374 . S
N453 Co454 2.008 . S
Co454 N453 2.008 . S
Co454 N455 1.995 1_554 S
Co454 N460 2.008 . S
Co454 N465 1.995 . S
Co454 N470 2.282 . S
Co454 N476 2.282 1_554 S
N455 Co454 1.995 1_556 S
N455 C456 1.376 . S
N455 C459 1.383 . S
C456 N455 1.376 . S
C456 C457 1.446 . S
C456 C486 1.391 . S
C457 C456 1.446 . S
C457 C458 1.339 . S
C457 H492 0.949 . S
C458 C457 1.339 . S
C458 C459 1.439 . S
C458 H493 0.950 . S
C459 N455 1.383 . S
C459 C458 1.439 . S
C459 C488 1.392 . S
N460 Co454 2.008 . S
N460 C461 1.376 1_554 S
N460 C464 1.374 . S
C461 N460 1.376 1_556 S
C461 C462 1.443 . S
C461 C488 1.389 . S
C462 C461 1.443 . S
C462 C463 1.340 1_556 S
C462 H494 0.951 . S
C463 C462 1.340 1_554 S
C463 C464 1.439 . S
C463 H495 0.950 . S
C464 N460 1.374 . S
C464 C463 1.439 . S
C464 C489 1.395 . S
N465 Co454 1.995 . S
N465 C466 1.376 . S
N465 C469 1.383 . S
C466 N465 1.376 . S
C466 C467 1.446 . S
C466 C489 1.391 . S
C467 C466 1.446 . S
C467 C468 1.339 . S
C467 H496 0.949 . S
C468 C467 1.339 . S
C468 C469 1.439 . S
C468 H497 0.950 . S
C469 N465 1.383 . S
C469 C468 1.439 . S
C469 C487 1.392 . S
N470 Co454 2.282 . S
N470 C473 1.332 . S
N470 C475 1.332 . S
C471 C472 1.386 . S
C471 C474 1.388 . S
C472 C471 1.386 . S
C472 C473 1.382 . S
C472 H498 0.950 . S
C473 N470 1.332 . S
C473 C472 1.382 . S
C473 H484 0.952 . S
C474 C471 1.388 . S
C474 C475 1.382 . S
C474 H499 0.950 . S
C475 N470 1.332 . S
C475 C474 1.382 . S
C475 H485 0.948 . S
N476 Co454 2.282 1_556 S
N476 C480 1.332 . S
N476 C481 1.332 . S
C477 C478 1.388 . S
C477 C481 1.382 . S
C477 H500 0.950 . S
C478 C477 1.388 . S
C478 C479 1.386 . S
C479 C478 1.386 . S
C479 C480 1.382 . S
C479 H501 0.950 . S
C480 N476 1.332 . S
C480 C479 1.382 . S
C480 H482 0.952 . S
C481 N476 1.332 . S
C481 C477 1.382 . S
C481 H483 0.948 . S
H482 C480 0.952 . S
H483 C481 0.948 . S
H484 C473 0.952 . S
H485 C475 0.948 . S
C486 C452 1.395 1_556 S
C486 C456 1.391 . S
C487 C449 1.389 . S
C487 C469 1.392 . S
C488 C459 1.392 . S
C488 C461 1.389 . S
C489 C464 1.395 . S
C489 C466 1.391 . S
H490 C450 0.951 . S
H491 C451 0.950 . S
H492 C457 0.949 . S
H493 C458 0.950 . S
H494 C462 0.951 . S
H495 C463 0.950 . S
H496 C467 0.949 . S
H497 C468 0.950 . S
H498 C472 0.950 . S
H499 C474 0.950 . S
H500 C477 0.950 . S
H501 C479 0.950 . S
C502 C503 1.443 . S
C502 N506 1.376 1_556 S
C502 C540 1.389 . S
C503 C502 1.443 . S
C503 C504 1.340 1_556 S
C503 H543 0.951 . S
C504 C503 1.340 1_554 S
C504 C505 1.439 . S
C504 H544 0.950 . S
C505 C504 1.439 . S
C505 N506 1.374 . S
C505 C539 1.395 . S
N506 C502 1.376 1_554 S
N506 C505 1.374 . S
N506 Co507 2.008 . S
Co507 N506 2.008 . S
Co507 N508 1.995 . S
Co507 N513 2.008 . S
Co507 N518 1.998 . S
Co507 N523 2.282 1_554 S
Co507 N529 2.282 . S
N508 Co507 1.995 . S
N508 C509 1.376 . S
N508 C512 1.383 . S
C509 N508 1.376 . S
C509 C510 1.446 . S
C509 C539 1.391 . S
C510 C509 1.446 . S
C510 C511 1.339 . S
C510 H545 0.949 . S
C511 C510 1.339 . S
C511 C512 1.439 . S
C511 H546 0.950 . S
C512 N508 1.383 . S
C512 C511 1.439 . S
C512 C541 1.392 . S
N513 Co507 2.008 . S
N513 C514 1.376 . S
N513 C517 1.374 . S
C514 N513 1.376 . S
C514 C515 1.443 . S
C514 C541 1.389 . S
C515 C514 1.443 . S
C515 C516 1.340 . S
C515 H547 0.951 . S
C516 C515 1.340 . S
C516 C517 1.439 . S
C516 H548 0.950 . S
C517 N513 1.374 . S
C517 C516 1.439 . S
C517 C542 1.395 . S
N518 Co507 1.998 . S
N518 C519 1.376 1_554 S
N518 C522 1.380 1_554 S
C519 N518 1.376 1_556 S
C519 C520 1.446 . S
C519 C542 1.391 1_556 S
C520 C519 1.446 . S
C520 C521 1.339 . S
C520 H549 0.949 . S
C521 C520 1.339 . S
C521 C522 1.439 . S
C521 H550 0.950 . S
C522 N518 1.380 1_556 S
C522 C521 1.439 . S
C522 C540 1.392 . S
N523 Co507 2.282 1_556 S
N523 C526 1.332 . S
N523 C528 1.332 . S
C524 C525 1.386 . S
C524 C527 1.388 . S
C525 C524 1.386 . S
C525 C526 1.382 . S
C525 H551 0.950 . S
C526 N523 1.332 . S
C526 C525 1.382 . S
C526 H537 0.952 . S
C527 C524 1.388 . S
C527 C528 1.382 . S
C527 H552 0.950 . S
C528 N523 1.332 . S
C528 C527 1.382 . S
C528 H538 0.948 1_556 S
N529 Co507 2.282 . S
N529 C533 1.332 . S
N529 C534 1.332 . S
C530 C531 1.388 . S
C530 C534 1.382 . S
C530 H553 0.950 . S
C531 C530 1.388 . S
C531 C532 1.386 . S
C532 C531 1.386 . S
C532 C533 1.382 . S
C532 H554 0.950 . S
C533 N529 1.332 . S
C533 C532 1.382 . S
C533 H535 0.952 . S
C534 N529 1.332 . S
C534 C530 1.382 . S
C534 H536 0.948 . S
H535 C533 0.952 . S
H536 C534 0.948 . S
H537 C526 0.952 . S
H538 C528 0.948 1_554 S
C539 C505 1.395 . S
C539 C509 1.391 . S
C540 C502 1.389 . S
C540 C522 1.392 . S
C541 C512 1.392 . S
C541 C514 1.389 . S
C542 C517 1.395 . S
C542 C519 1.391 1_554 S
H543 C503 0.951 . S
H544 C504 0.950 . S
H545 C510 0.949 . S
H546 C511 0.950 . S
H547 C515 0.951 . S
H548 C516 0.950 . S
H549 C520 0.949 . S
H550 C521 0.950 . S
H551 C525 0.950 . S
H552 C527 0.950 . S
H553 C530 0.950 . S
H554 C532 0.950 . S
C555 C556 1.443 . S
C555 N559 1.376 . S
C555 C593 1.389 . S
C556 C555 1.443 . S
C556 C557 1.340 . S
C556 H596 0.951 . S
C557 C556 1.340 . S
C557 C558 1.439 . S
C557 H597 0.950 . S
C558 C557 1.439 . S
C558 N559 1.374 . S
C558 C592 1.395 1_554 S
N559 C555 1.376 . S
N559 C558 1.374 . S
N559 Co560 2.008 . S
Co560 N559 2.008 . S
Co560 N561 1.995 1_554 S
Co560 N566 2.008 . S
Co560 N571 1.995 . S
Co560 N576 2.282 . S
Co560 N582 2.282 1_554 S
N561 Co560 1.995 1_556 S
N561 C562 1.376 . S
N561 C565 1.383 . S
C562 N561 1.376 . S
C562 C563 1.446 . S
C562 C592 1.391 . S
C563 C562 1.446 . S
C563 C564 1.339 . S
C563 H598 0.949 . S
C564 C563 1.339 . S
C564 C565 1.439 . S
C564 H599 0.950 . S
C565 N561 1.383 . S
C565 C564 1.439 . S
C565 C594 1.392 . S
N566 Co560 2.008 . S
N566 C567 1.376 1_554 S
N566 C570 1.374 . S
C567 N566 1.376 1_556 S
C567 C568 1.443 . S
C567 C594 1.389 . S
C568 C567 1.443 . S
C568 C569 1.340 1_556 S
C568 H600 0.951 . S
C569 C568 1.340 1_554 S
C569 C570 1.439 . S
C569 H601 0.950 . S
C570 N566 1.374 . S
C570 C569 1.439 . S
C570 C595 1.395 . S
N571 Co560 1.995 . S
N571 C572 1.376 . S
N571 C575 1.383 . S
C572 N571 1.376 . S
C572 C573 1.446 . S
C572 C595 1.391 . S
C573 C572 1.446 . S
C573 C574 1.339 . S
C573 H602 0.949 . S
C574 C573 1.339 . S
C574 C575 1.439 . S
C574 H603 0.950 . S
C575 N571 1.383 . S
C575 C574 1.439 . S
C575 C593 1.392 . S
N576 Co560 2.282 . S
N576 C579 1.332 . S
N576 C581 1.332 . S
C577 C578 1.386 . S
C577 C580 1.388 . S
C578 C577 1.386 . S
C578 C579 1.382 . S
C578 H604 0.950 . S
C579 N576 1.332 . S
C579 C578 1.382 . S
C579 H590 0.952 . S
C580 C577 1.388 . S
C580 C581 1.382 . S
C580 H605 0.950 . S
C581 N576 1.332 . S
C581 C580 1.382 . S
C581 H591 0.948 . S
N582 Co560 2.282 1_556 S
N582 C586 1.332 . S
N582 C587 1.332 . S
C583 C584 1.388 . S
C583 C587 1.382 . S
C583 H606 0.950 . S
C584 C583 1.388 . S
C584 C585 1.386 . S
C585 C584 1.386 . S
C585 C586 1.382 . S
C585 H607 0.950 . S
C586 N582 1.332 . S
C586 C585 1.382 . S
C586 H588 0.952 . S
C587 N582 1.332 . S
C587 C583 1.382 . S
C587 H589 0.948 . S
H588 C586 0.952 . S
H589 C587 0.948 . S
H590 C579 0.952 . S
H591 C581 0.948 . S
C592 C558 1.395 1_556 S
C592 C562 1.391 . S
C593 C555 1.389 . S
C593 C575 1.392 . S
C594 C565 1.392 . S
C594 C567 1.389 . S
C595 C570 1.395 . S
C595 C572 1.391 . S
H596 C556 0.951 . S
H597 C557 0.950 . S
H598 C563 0.949 . S
H599 C564 0.950 . S
H600 C568 0.951 . S
H601 C569 0.950 . S
H602 C573 0.949 . S
H603 C574 0.950 . S
H604 C578 0.950 . S
H605 C580 0.950 . S
H606 C583 0.950 . S
H607 C585 0.950 . S
C213 C16 1.961 . S
C266 C30 1.262 . S
C329 C53 1.972 . S
C372 C76 1.345 . S
N104 C328 1.592 . S
C365 N127 1.102 . S
C206 N140 1.507 . S
C259 N173 0.900 . S
C312 C168 1.637 . S
C381 C99 2.323 . S
C222 C122 1.761 . S
C275 C154 2.038 . S
C223 N35 1.623 . S
C276 N58 1.928 . S
C319 N81 1.535 . S
C382 N2 1.943 . S
C425 C177 1.865 . S
C108 C478 2.068 . S
C131 C540 2.113 . S
C145 C594 2.014 . S
N25 C541 1.728 . S
N48 C593 1.899 . S
N71 C418 1.630 . S
C471 N12 1.562 . S
C531 C7 1.617 . S
C39 C577 1.359 . S
C62 C434 1.871 . S
C85 C487 1.153 . S
C435 N94 1.733 . S
C488 N117 1.335 . S
N150 C524 1.518 . S
C584 N163 0.992 . S
