# Generated by pormake.
# Topology myd, (4,6)-cn, num edge types: 1
# Building blocks:
#     Node 0, Type 0, BuildingBlock: KOZSID_clean_sbu_0, # of connection points: 4
#     Node 1, Type 0, BuildingBlock: KOZSID_clean_sbu_0, # of connection points: 4
#     Node 2, Type 0, BuildingBlock: KOZSID_clean_sbu_0, # of connection points: 4
#     Node 3, Type 0, BuildingBlock: KOZSID_clean_sbu_0, # of connection points: 4
#     Node 4, Type 0, BuildingBlock: KOZSID_clean_sbu_0, # of connection points: 4
#     Node 5, Type 0, BuildingBlock: KOZSID_clean_sbu_0, # of connection points: 4
#     Node 6, Type 0, BuildingBlock: KOZSID_clean_sbu_0, # of connection points: 4
#     Node 7, Type 0, BuildingBlock: KOZSID_clean_sbu_0, # of connection points: 4
#     Node 8, Type 0, BuildingBlock: KOZSID_clean_sbu_0, # of connection points: 4
#     Node 9, Type 0, BuildingBlock: KOZSID_clean_sbu_0, # of connection points: 4
#     Node 10, Type 0, BuildingBlock: KOZSID_clean_sbu_0, # of connection points: 4
#     Node 11, Type 0, BuildingBlock: KOZSID_clean_sbu_0, # of connection points: 4
#     Node 12, Type 1, BuildingBlock: MIDCAF_clean_sbu_0, # of connection points: 6
#     Node 13, Type 1, BuildingBlock: MIDCAF_clean_sbu_0, # of connection points: 6
#     Node 14, Type 1, BuildingBlock: MIDCAF_clean_sbu_0, # of connection points: 6
#     Node 15, Type 1, BuildingBlock: MIDCAF_clean_sbu_0, # of connection points: 6
#     Node 16, Type 1, BuildingBlock: MIDCAF_clean_sbu_0, # of connection points: 6
#     Node 17, Type 1, BuildingBlock: MIDCAF_clean_sbu_0, # of connection points: 6
#     Node 18, Type 1, BuildingBlock: MIDCAF_clean_sbu_0, # of connection points: 6
#     Node 19, Type 1, BuildingBlock: MIDCAF_clean_sbu_0, # of connection points: 6
#     Edge 20, Type (0, 1), BuildingBlock: TEMPAE_clean_linker_10, # of connection points: 2
#     Edge 21, Type (0, 1), BuildingBlock: TEMPAE_clean_linker_10, # of connection points: 2
#     Edge 22, Type (0, 1), BuildingBlock: TEMPAE_clean_linker_10, # of connection points: 2
#     Edge 23, Type (0, 1), BuildingBlock: TEMPAE_clean_linker_10, # of connection points: 2
#     Edge 24, Type (0, 1), BuildingBlock: TEMPAE_clean_linker_10, # of connection points: 2
#     Edge 25, Type (0, 1), BuildingBlock: TEMPAE_clean_linker_10, # of connection points: 2
#     Edge 26, Type (0, 1), BuildingBlock: TEMPAE_clean_linker_10, # of connection points: 2
#     Edge 27, Type (0, 1), BuildingBlock: TEMPAE_clean_linker_10, # of connection points: 2
#     Edge 28, Type (0, 1), BuildingBlock: TEMPAE_clean_linker_10, # of connection points: 2
#     Edge 29, Type (0, 1), BuildingBlock: TEMPAE_clean_linker_10, # of connection points: 2
#     Edge 30, Type (0, 1), BuildingBlock: TEMPAE_clean_linker_10, # of connection points: 2
#     Edge 31, Type (0, 1), BuildingBlock: TEMPAE_clean_linker_10, # of connection points: 2
#     Edge 32, Type (0, 1), BuildingBlock: TEMPAE_clean_linker_10, # of connection points: 2
#     Edge 33, Type (0, 1), BuildingBlock: TEMPAE_clean_linker_10, # of connection points: 2
#     Edge 34, Type (0, 1), BuildingBlock: TEMPAE_clean_linker_10, # of connection points: 2
#     Edge 35, Type (0, 1), BuildingBlock: TEMPAE_clean_linker_10, # of connection points: 2
#     Edge 36, Type (0, 1), BuildingBlock: TEMPAE_clean_linker_10, # of connection points: 2
#     Edge 37, Type (0, 1), BuildingBlock: TEMPAE_clean_linker_10, # of connection points: 2
#     Edge 38, Type (0, 1), BuildingBlock: TEMPAE_clean_linker_10, # of connection points: 2
#     Edge 39, Type (0, 1), BuildingBlock: TEMPAE_clean_linker_10, # of connection points: 2
#     Edge 40, Type (0, 1), BuildingBlock: TEMPAE_clean_linker_10, # of connection points: 2
#     Edge 41, Type (0, 1), BuildingBlock: TEMPAE_clean_linker_10, # of connection points: 2
#     Edge 42, Type (0, 1), BuildingBlock: TEMPAE_clean_linker_10, # of connection points: 2
#     Edge 43, Type (0, 1), BuildingBlock: TEMPAE_clean_linker_10, # of connection points: 2
#     Edge 44, Type (0, 1), BuildingBlock: TEMPAE_clean_linker_10, # of connection points: 2
#     Edge 45, Type (0, 1), BuildingBlock: TEMPAE_clean_linker_10, # of connection points: 2
#     Edge 46, Type (0, 1), BuildingBlock: TEMPAE_clean_linker_10, # of connection points: 2
#     Edge 47, Type (0, 1), BuildingBlock: TEMPAE_clean_linker_10, # of connection points: 2
#     Edge 48, Type (0, 1), BuildingBlock: TEMPAE_clean_linker_10, # of connection points: 2
#     Edge 49, Type (0, 1), BuildingBlock: TEMPAE_clean_linker_10, # of connection points: 2
#     Edge 50, Type (0, 1), BuildingBlock: TEMPAE_clean_linker_10, # of connection points: 2
#     Edge 51, Type (0, 1), BuildingBlock: TEMPAE_clean_linker_10, # of connection points: 2
#     Edge 52, Type (0, 1), BuildingBlock: TEMPAE_clean_linker_10, # of connection points: 2
#     Edge 53, Type (0, 1), BuildingBlock: TEMPAE_clean_linker_10, # of connection points: 2
#     Edge 54, Type (0, 1), BuildingBlock: TEMPAE_clean_linker_10, # of connection points: 2
#     Edge 55, Type (0, 1), BuildingBlock: TEMPAE_clean_linker_10, # of connection points: 2
#     Edge 56, Type (0, 1), BuildingBlock: TEMPAE_clean_linker_10, # of connection points: 2
#     Edge 57, Type (0, 1), BuildingBlock: TEMPAE_clean_linker_10, # of connection points: 2
#     Edge 58, Type (0, 1), BuildingBlock: TEMPAE_clean_linker_10, # of connection points: 2
#     Edge 59, Type (0, 1), BuildingBlock: TEMPAE_clean_linker_10, # of connection points: 2
#     Edge 60, Type (0, 1), BuildingBlock: TEMPAE_clean_linker_10, # of connection points: 2
#     Edge 61, Type (0, 1), BuildingBlock: TEMPAE_clean_linker_10, # of connection points: 2
#     Edge 62, Type (0, 1), BuildingBlock: TEMPAE_clean_linker_10, # of connection points: 2
#     Edge 63, Type (0, 1), BuildingBlock: TEMPAE_clean_linker_10, # of connection points: 2
#     Edge 64, Type (0, 1), BuildingBlock: TEMPAE_clean_linker_10, # of connection points: 2
#     Edge 65, Type (0, 1), BuildingBlock: TEMPAE_clean_linker_10, # of connection points: 2
#     Edge 66, Type (0, 1), BuildingBlock: TEMPAE_clean_linker_10, # of connection points: 2
#     Edge 67, Type (0, 1), BuildingBlock: TEMPAE_clean_linker_10, # of connection points: 2
# Relax obj value: 0.146
# Max RMSD: 0.124
# Mean RMSD: 0.101
data_MOF--net-myd--node1-KOZSID_clean_sbu_0--node2-MIDCAF_clean_sbu_0--edge1-TEMPAE_clean_linker_10
_symmetry_space_group_name_H-M    P1
_symmetry_Int_Tables_number       1
_symmetry_cell_setting            triclinic
loop_
_symmetry_equiv_pos_as_xyz
'x, y, z'
_cell_length_a     51.000774
_cell_length_b     51.085942
_cell_length_c     50.858972
_cell_angle_alpha  91.514062
_cell_angle_beta   90.401822
_cell_angle_gamma 92.12366
loop_
_atom_site_label
_atom_site_type_symbol
_atom_site_fract_x
_atom_site_fract_y
_atom_site_fract_z
_atom_type_partial_charge
C0 C 0.97155 0.28813 0.32869 0.0
C1 C 0.94564 0.29191 0.33558 0.0
C2 C 0.93081 0.27298 0.32241 0.0
C3 C 0.94836 0.25887 0.30815 0.0
N4 N 0.97362 0.26727 0.3118 0.0
Co5 Co 0.00515 0.25392 0.293 0.0
N6 N 0.98273 0.23027 0.26934 0.0
C7 C 0.95649 0.2258 0.27091 0.0
C8 C 0.94652 0.20837 0.25216 0.0
C9 C 0.96757 0.20162 0.23742 0.0
C10 C 0.98924 0.21562 0.24792 0.0
N11 N 0.03662 0.24094 0.27387 0.0
C12 C 0.03802 0.22629 0.25124 0.0
C13 C 0.06387 0.22397 0.24331 0.0
C14 C 0.07924 0.23733 0.26163 0.0
C15 C 0.06208 0.24734 0.27952 0.0
N16 N 0.0274 0.2779 0.31656 0.0
C17 C 0.05392 0.27957 0.31774 0.0
C18 C 0.06358 0.29889 0.3348 0.0
C19 C 0.04196 0.3106 0.3447 0.0
C20 C 0.02028 0.29776 0.33299 0.0
N21 N 0.00801 0.2248 0.3185 0.0
C22 C 0.01383 0.17827 0.34688 0.0
C23 C 0.03527 0.19523 0.34223 0.0
C24 C 0.03192 0.21818 0.32839 0.0
C25 C 0.98913 0.18594 0.33861 0.0
C26 C 0.98667 0.20915 0.32487 0.0
N27 N 0.00276 0.28216 0.26739 0.0
C28 C 0.02482 0.31313 0.2393 0.0
C29 C 0.00149 0.31717 0.22585 0.0
C30 C 0.97843 0.30455 0.23446 0.0
C31 C 0.97951 0.28711 0.25518 0.0
C32 C 0.02495 0.29593 0.26007 0.0
H33 H 0.96155 0.27725 0.26062 0.0
H34 H 0.0434 0.29353 0.26947 0.0
H35 H 0.04921 0.22981 0.32554 0.0
H36 H 0.96729 0.21368 0.31935 0.0
C37 C 0.94151 0.23972 0.28898 0.0
C38 C 0.99336 0.3057 0.33739 0.0
C39 C 0.01536 0.21504 0.2363 0.0
C40 C 0.06902 0.26521 0.30001 0.0
H41 H 0.93805 0.30728 0.34807 0.0
H42 H 0.90963 0.27063 0.32222 0.0
H43 H 0.92625 0.20189 0.24913 0.0
H44 H 0.96692 0.18828 0.22052 0.0
H45 H 0.07103 0.21435 0.22575 0.0
H46 H 0.10034 0.2404 0.26126 0.0
H47 H 0.08392 0.30465 0.33858 0.0
H48 H 0.04213 0.32721 0.35836 0.0
H49 H 0.05485 0.19048 0.34845 0.0
H50 H 0.97167 0.17401 0.34259 0.0
H51 H 0.043 0.323 0.23359 0.0
H52 H 0.95988 0.30733 0.22461 0.0
C53 C 0.97476 0.71917 0.15212 0.0
C54 C 0.95027 0.71409 0.14067 0.0
C55 C 0.93414 0.73282 0.15063 0.0
C56 C 0.94963 0.74816 0.16758 0.0
N57 N 0.97443 0.74021 0.16872 0.0
Co58 Co 0.00312 0.75575 0.19101 0.0
N59 N 0.97782 0.77152 0.21546 0.0
C60 C 0.95253 0.776 0.20998 0.0
C61 C 0.93992 0.78777 0.23063 0.0
C62 C 0.95853 0.79109 0.25015 0.0
C63 C 0.98157 0.78108 0.24029 0.0
N64 N 0.03191 0.77162 0.21301 0.0
C65 C 0.03128 0.78144 0.23797 0.0
C66 C 0.0561 0.79074 0.24593 0.0
C67 C 0.07251 0.787 0.22493 0.0
C68 C 0.05695 0.77553 0.20535 0.0
N69 N 0.02792 0.73944 0.16644 0.0
C70 C 0.05332 0.74651 0.16337 0.0
C71 C 0.06556 0.73023 0.14569 0.0
C72 C 0.04657 0.7119 0.13734 0.0
C73 C 0.02381 0.71803 0.15048 0.0
N74 N 0.00383 0.78775 0.17039 0.0
C75 C 0.01406 0.83423 0.14316 0.0
C76 C 0.01075 0.80995 0.12957 0.0
C77 C 0.00554 0.78695 0.14355 0.0
C78 C 0.01103 0.83462 0.17049 0.0
C79 C 0.00574 0.81146 0.18355 0.0
N80 N 0.00342 0.72439 0.21217 0.0
C81 C 0.02893 0.69631 0.23859 0.0
C82 C 0.00617 0.68481 0.24936 0.0
C83 C 0.98181 0.6927 0.23958 0.0
C84 C 0.98087 0.71276 0.22132 0.0
C85 C 0.0271 0.71537 0.21976 0.0
H86 H 0.962 0.71941 0.21515 0.0
H87 H 0.04513 0.72374 0.21232 0.0
H88 H 0.00373 0.76844 0.13279 0.0
H89 H 0.0045 0.81279 0.20464 0.0
C90 C 0.94053 0.76556 0.18692 0.0
C91 C 0.99819 0.70427 0.1468 0.0
C92 C 0.00721 0.78401 0.25361 0.0
C93 C 0.06578 0.76412 0.18163 0.0
H94 H 0.94455 0.69832 0.12696 0.0
H95 H 0.91325 0.734 0.14723 0.0
H96 H 0.91951 0.79279 0.23163 0.0
H97 H 0.95558 0.80041 0.2692 0.0
H98 H 0.06177 0.79946 0.26484 0.0
H99 H 0.09344 0.79123 0.2244 0.0
H100 H 0.08615 0.73062 0.14064 0.0
H101 H 0.04916 0.69579 0.12347 0.0
H102 H 0.01242 0.80864 0.10838 0.0
H103 H 0.01375 0.8526 0.1821 0.0
H104 H 0.04835 0.69175 0.24529 0.0
H105 H 0.96348 0.68399 0.24628 0.0
C106 C 0.33971 0.96941 0.28282 0.0
C107 C 0.34803 0.94405 0.28541 0.0
C108 C 0.33766 0.92973 0.26455 0.0
C109 C 0.32373 0.94713 0.25046 0.0
N110 N 0.32523 0.97185 0.26062 0.0
Co111 Co 0.30632 0.00284 0.24796 0.0
N112 N 0.28536 0.98047 0.22197 0.0
C113 C 0.28854 0.95482 0.21598 0.0
C114 C 0.2718 0.94492 0.19672 0.0
C115 C 0.25672 0.96535 0.19032 0.0
C116 C 0.26497 0.98655 0.20638 0.0
N117 N 0.28689 0.03374 0.23581 0.0
C118 C 0.2652 0.03454 0.22023 0.0
C119 C 0.25629 0.05986 0.21906 0.0
C120 C 0.27311 0.07553 0.23405 0.0
C121 C 0.29109 0.05901 0.24386 0.0
N122 N 0.32742 0.02494 0.27427 0.0
C123 C 0.32768 0.05134 0.27724 0.0
C124 C 0.34206 0.06064 0.29861 0.0
C125 C 0.35095 0.03888 0.31035 0.0
C126 C 0.34159 0.01741 0.29533 0.0
N127 N 0.33344 0.00953 0.2201 0.0
C128 C 0.36141 0.02138 0.17344 0.0
C129 C 0.35608 0.04086 0.19223 0.0
C130 C 0.34252 0.03455 0.21518 0.0
C131 C 0.35456 0.99549 0.17966 0.0
C132 C 0.3411 0.99005 0.203 0.0
N133 N 0.27894 0.99682 0.27476 0.0
C134 C 0.24885 0.01511 0.30608 0.0
C135 C 0.23441 0.99141 0.30685 0.0
C136 C 0.24378 0.96985 0.29263 0.0
C137 C 0.26609 0.97294 0.27685 0.0
C138 C 0.27086 0.01735 0.29014 0.0
H139 H 0.27226 0.95611 0.2658 0.0
H140 H 0.28055 0.03616 0.28993 0.0
H141 H 0.33922 0.05052 0.22825 0.0
H142 H 0.33664 0.96997 0.20633 0.0
C143 C 0.30633 0.94021 0.22991 0.0
C144 C 0.34476 0.99016 0.30267 0.0
C145 C 0.25219 0.01169 0.20689 0.0
C146 C 0.31024 0.06613 0.2629 0.0
H147 H 0.35956 0.93652 0.30129 0.0
H148 H 0.33887 0.90884 0.26093 0.0
H149 H 0.27034 0.92508 0.1887 0.0
H150 H 0.2411 0.96454 0.17578 0.0
H151 H 0.23905 0.06643 0.20908 0.0
H152 H 0.27166 0.09631 0.23827 0.0
H153 H 0.34416 0.0807 0.30594 0.0
H154 H 0.36192 0.03889 0.32862 0.0
H155 H 0.36209 0.0611 0.1892 0.0
H156 H 0.3587 0.97942 0.1662 0.0
H157 H 0.24289 0.03214 0.31736 0.0
H158 H 0.23338 0.95098 0.29279 0.0
C159 C 0.66552 0.46546 0.22807 0.0
C160 C 0.65235 0.44188 0.22154 0.0
C161 C 0.66017 0.42411 0.23946 0.0
C162 C 0.67775 0.4377 0.25575 0.0
N163 N 0.68135 0.4629 0.24919 0.0
Co164 Co 0.70568 0.48919 0.26645 0.0
N165 N 0.72675 0.46146 0.28178 0.0
C166 C 0.71925 0.43602 0.28376 0.0
C167 C 0.73897 0.42094 0.29263 0.0
C168 C 0.76 0.438 0.29686 0.0
C169 C 0.75172 0.46285 0.291 0.0
N170 N 0.72968 0.51556 0.28401 0.0
C171 C 0.75354 0.51263 0.29522 0.0
C172 C 0.76256 0.53606 0.30723 0.0
C173 C 0.74368 0.55406 0.3032 0.0
C174 C 0.72409 0.54073 0.2892 0.0
N175 N 0.68459 0.51652 0.25062 0.0
C176 C 0.68374 0.54167 0.25886 0.0
C177 C 0.66789 0.55597 0.2431 0.0
C178 C 0.6583 0.53859 0.22388 0.0
C179 C 0.66894 0.51465 0.22899 0.0
N180 N 0.68367 0.48992 0.29796 0.0
C181 C 0.65643 0.50385 0.34368 0.0
C182 C 0.64358 0.50215 0.31912 0.0
C183 C 0.65753 0.49493 0.29649 0.0
C184 C 0.68244 0.49618 0.34498 0.0
C185 C 0.6956 0.48931 0.32209 0.0
N186 N 0.72825 0.4895 0.23558 0.0
C187 C 0.75704 0.51463 0.20779 0.0
C188 C 0.76731 0.49167 0.19757 0.0
C189 C 0.75677 0.46747 0.2055 0.0
C190 C 0.73697 0.4668 0.22446 0.0
C191 C 0.7375 0.51313 0.2267 0.0
H192 H 0.72954 0.44803 0.23095 0.0
H193 H 0.7308 0.53125 0.23503 0.0
H194 H 0.64758 0.49479 0.27767 0.0
H195 H 0.71601 0.48505 0.32397 0.0
C196 C 0.69569 0.42627 0.27242 0.0
C197 C 0.66263 0.49006 0.21431 0.0
C198 C 0.7668 0.4875 0.29705 0.0
C199 C 0.70206 0.5518 0.27762 0.0
H200 H 0.63899 0.43763 0.20526 0.0
H201 H 0.6551 0.40335 0.23939 0.0
H202 H 0.73857 0.39988 0.29451 0.0
H203 H 0.77915 0.43257 0.30361 0.0
H204 H 0.78061 0.53973 0.31822 0.0
H205 H 0.74443 0.57452 0.30934 0.0
H206 H 0.66471 0.57678 0.24456 0.0
H207 H 0.6451 0.54296 0.20797 0.0
H208 H 0.62332 0.50749 0.31718 0.0
H209 H 0.69294 0.49618 0.36357 0.0
H210 H 0.76484 0.53363 0.20201 0.0
H211 H 0.7644 0.44932 0.19782 0.0
C212 C 0.30067 0.3532 0.97483 0.0
C213 C 0.30032 0.36869 0.95278 0.0
C214 C 0.28029 0.3587 0.93677 0.0
C215 C 0.26892 0.3384 0.95034 0.0
N216 N 0.28054 0.33526 0.97375 0.0
Co217 Co 0.2666 0.31295 0.00172 0.0
N218 N 0.24835 0.28923 0.97576 0.0
C219 C 0.24143 0.29557 0.95121 0.0
C220 C 0.2282 0.27532 0.93793 0.0
C221 C 0.22654 0.25525 0.95539 0.0
C222 C 0.23889 0.2644 0.97848 0.0
N223 N 0.25235 0.29091 0.0298 0.0
C224 C 0.24241 0.26598 0.02828 0.0
C225 C 0.23457 0.25791 0.053 0.0
C226 C 0.23924 0.27887 0.07017 0.0
C227 C 0.24986 0.29851 0.05517 0.0
N228 N 0.28502 0.33699 0.02724 0.0
C229 C 0.27785 0.34113 0.05229 0.0
C230 C 0.2921 0.36153 0.06423 0.0
C231 C 0.30931 0.37042 0.04538 0.0
C232 C 0.30538 0.35418 0.02323 0.0
N233 N 0.23513 0.33408 0.00406 0.0
C234 C 0.18937 0.36276 0.01187 0.0
C235 C 0.18809 0.33546 0.00768 0.0
C236 C 0.21094 0.32162 0.00444 0.0
C237 C 0.2144 0.37539 0.01115 0.0
C238 C 0.23685 0.36081 0.00676 0.0
N239 N 0.29739 0.29137 1.0001 0.0
C240 C 0.32782 0.26553 0.02357 0.0
C241 C 0.33366 0.25147 0.00045 0.0
C242 C 0.32248 0.25949 0.97673 0.0
C243 C 0.30472 0.27975 0.97695 0.0
C244 C 0.30956 0.28514 0.02302 0.0
H245 H 0.29575 0.28499 0.95863 0.0
H246 H 0.30426 0.29429 0.04146 0.0
H247 H 0.20888 0.30061 0.00258 0.0
H248 H 0.25569 0.37112 0.00618 0.0
C249 C 0.25037 0.31945 0.94061 0.0
C250 C 0.3187 0.35678 0.99756 0.0
C251 C 0.23819 0.25059 0.00349 0.0
C252 C 0.26099 0.32274 0.0645 0.0
H253 H 0.31311 0.38544 0.9487 0.0
H254 H 0.2751 0.36512 0.91737 0.0
H255 H 0.22097 0.27501 0.91786 0.0
H256 H 0.21666 0.23637 0.9518 0.0
H257 H 0.22606 0.23902 0.05809 0.0
H258 H 0.23596 0.27942 0.09117 0.0
H259 H 0.29057 0.3688 0.08432 0.0
H260 H 0.32266 0.38729 0.04763 0.0
H261 H 0.16957 0.32445 0.00687 0.0
H262 H 0.21694 0.39633 0.01443 0.0
H263 H 0.33656 0.26086 0.04225 0.0
H264 H 0.32625 0.2494 0.95825 0.0
C265 C 0.22199 0.65188 0.46574 0.0
C266 C 0.22388 0.63797 0.44211 0.0
C267 C 0.24699 0.64653 0.43079 0.0
C268 C 0.2578 0.66512 0.44813 0.0
N269 N 0.2429 0.66859 0.46952 0.0
Co270 Co 0.24995 0.69384 0.49898 0.0
N271 N 0.27333 0.71563 0.47706 0.0
C272 C 0.28564 0.7074 0.45517 0.0
C273 C 0.30152 0.72668 0.4447 0.0
C274 C 0.29908 0.7482 0.46114 0.0
C275 C 0.28164 0.74086 0.48075 0.0
N276 N 0.25652 0.71933 0.52838 0.0
C277 C 0.2653 0.74464 0.5276 0.0
C278 C 0.2659 0.75597 0.55274 0.0
C279 C 0.25781 0.73676 0.56966 0.0
C280 C 0.25247 0.71484 0.55402 0.0
N281 N 0.22699 0.67137 0.52068 0.0
C282 C 0.22662 0.67109 0.54709 0.0
C283 C 0.20745 0.654 0.5562 0.0
C284 C 0.19516 0.64313 0.53408 0.0
C285 C 0.20754 0.65425 0.51269 0.0
N286 N 0.28054 0.67454 0.51006 0.0
C287 C 0.32527 0.64887 0.52735 0.0
C288 C 0.32426 0.67626 0.52831 0.0
C289 C 0.30231 0.68853 0.51903 0.0
C290 C 0.30285 0.63458 0.51773 0.0
C291 C 0.28059 0.64777 0.50956 0.0
N292 N 0.21991 0.71391 0.48856 0.0
C293 C 0.18502 0.74119 0.50269 0.0
C294 C 0.18521 0.75344 0.47845 0.0
C295 C 0.20143 0.74386 0.45853 0.0
C296 C 0.21836 0.7237 0.46388 0.0
C297 C 0.20255 0.72157 0.50737 0.0
H298 H 0.23137 0.71721 0.44859 0.0
H299 H 0.20327 0.71401 0.5269 0.0
H300 H 0.30308 0.70961 0.51933 0.0
H301 H 0.26351 0.63638 0.50268 0.0
C302 C 0.27826 0.6833 0.44277 0.0
C303 C 0.20106 0.6482 0.48499 0.0
C304 C 0.27508 0.75743 0.50367 0.0
C305 C 0.23939 0.69156 0.56181 0.0
H306 H 0.21002 0.62335 0.43394 0.0
H307 H 0.25424 0.64088 0.41159 0.0
H308 H 0.3128 0.72557 0.42679 0.0
H309 H 0.30921 0.767 0.45902 0.0
H310 H 0.27163 0.77595 0.55837 0.0
H311 H 0.25508 0.73889 0.59068 0.0
H312 H 0.20182 0.65115 0.57643 0.0
H313 H 0.17872 0.6291 0.53371 0.0
H314 H 0.34028 0.68854 0.53629 0.0
H315 H 0.30245 0.61341 0.51615 0.0
H316 H 0.17278 0.748 0.5186 0.0
H317 H 0.20174 0.75255 0.43933 0.0
C318 C 0.78258 0.83002 0.4675 0.0
C319 C 0.78651 0.83713 0.44165 0.0
C320 C 0.76685 0.82488 0.42709 0.0
C321 C 0.75212 0.81107 0.44484 0.0
N322 N 0.76073 0.81434 0.46995 0.0
Co323 Co 0.74687 0.79595 0.50158 0.0
N324 N 0.72204 0.77337 0.47941 0.0
C325 C 0.71669 0.7759 0.45355 0.0
C326 C 0.6988 0.75742 0.44369 0.0
C327 C 0.69255 0.74204 0.46445 0.0
C328 C 0.70712 0.75206 0.48582 0.0
N329 N 0.73408 0.77656 0.53302 0.0
C330 C 0.71875 0.75435 0.53422 0.0
C331 C 0.71625 0.74605 0.55987 0.0
C332 C 0.73075 0.76351 0.57538 0.0
C333 C 0.74136 0.78133 0.55837 0.0
N334 N 0.77139 0.81914 0.52359 0.0
C335 C 0.77269 0.82062 0.55016 0.0
C336 C 0.79261 0.83718 0.55955 0.0
C337 C 0.80501 0.84638 0.5377 0.0
C338 C 0.79189 0.83492 0.51611 0.0
N339 N 0.71839 0.82179 0.50639 0.0
C340 C 0.67148 0.84897 0.51393 0.0
C341 C 0.68618 0.84101 0.53525 0.0
C342 C 0.7095 0.82808 0.5311 0.0
C343 C 0.68174 0.84509 0.48877 0.0
C344 C 0.70509 0.83163 0.48547 0.0
N345 N 0.7743 0.76986 0.49741 0.0
C346 C 0.80619 0.7429 0.51775 0.0
C347 C 0.80701 0.72675 0.49524 0.0
C348 C 0.79229 0.7335 0.47322 0.0
C349 C 0.77635 0.75524 0.47462 0.0
C350 C 0.78992 0.7642 0.51838 0.0
H351 H 0.76527 0.75959 0.45739 0.0
H352 H 0.7896 0.7753 0.53642 0.0
H353 H 0.7195 0.82294 0.54839 0.0
H354 H 0.71152 0.829 0.46578 0.0
C355 C 0.73146 0.79332 0.43838 0.0
C356 C 0.80059 0.83791 0.48893 0.0
C357 C 0.70686 0.74018 0.51152 0.0
C358 C 0.75887 0.80225 0.56531 0.0
H359 H 0.80236 0.84935 0.43404 0.0
H360 H 0.76422 0.82517 0.40597 0.0
H361 H 0.69202 0.75473 0.42355 0.0
H362 H 0.67929 0.72499 0.4638 0.0
H363 H 0.70541 0.72892 0.5666 0.0
H364 H 0.73371 0.76291 0.59644 0.0
H365 H 0.79865 0.84061 0.57983 0.0
H366 H 0.82247 0.85906 0.53775 0.0
H367 H 0.67956 0.84449 0.5552 0.0
H368 H 0.6713 0.85147 0.4716 0.0
H369 H 0.81731 0.73858 0.53523 0.0
H370 H 0.79291 0.72196 0.45507 0.0
C371 C 0.47783 0.8014 0.84647 0.0
C372 C 0.45437 0.8074 0.85857 0.0
C373 C 0.43671 0.78733 0.85218 0.0
C374 C 0.45012 0.77038 0.83634 0.0
N375 N 0.47513 0.77857 0.83238 0.0
Co376 Co 0.50081 0.76091 0.8096 0.0
N377 N 0.47253 0.74066 0.79017 0.0
C378 C 0.44761 0.73688 0.7982 0.0
C379 C 0.43213 0.72329 0.77996 0.0
C380 C 0.44839 0.71794 0.75932 0.0
C381 C 0.47314 0.72828 0.76632 0.0
N382 N 0.52653 0.74308 0.78717 0.0
C383 C 0.52284 0.72936 0.7642 0.0
C384 C 0.54623 0.71892 0.75583 0.0
C385 C 0.56503 0.72647 0.77426 0.0
C386 C 0.55217 0.74096 0.79291 0.0
N387 N 0.52874 0.78156 0.82894 0.0
C388 C 0.5542 0.77571 0.83028 0.0
C389 C 0.56889 0.79397 0.84494 0.0
C390 C 0.55148 0.81232 0.85331 0.0
C391 C 0.5271 0.80424 0.84319 0.0
N392 N 0.50342 0.7324 0.83469 0.0
C393 C 0.51721 0.6906 0.86656 0.0
C394 C 0.51771 0.7166 0.87659 0.0
C395 C 0.51029 0.73711 0.8605 0.0
C396 C 0.50773 0.68615 0.84083 0.0
C397 C 0.50152 0.70707 0.82527 0.0
N398 N 0.49906 0.78858 0.78389 0.0
C399 C 0.52173 0.81339 0.75092 0.0
C400 C 0.4979 0.81867 0.73869 0.0
C401 C 0.47453 0.81042 0.75098 0.0
C402 C 0.47555 0.79561 0.77373 0.0
C403 C 0.52188 0.79836 0.77338 0.0
H404 H 0.45737 0.78857 0.78218 0.0
H405 H 0.54063 0.79342 0.78131 0.0
H406 H 0.51125 0.75688 0.86859 0.0
H407 H 0.49628 0.70254 0.80511 0.0
C408 C 0.43851 0.75042 0.82037 0.0
C409 C 0.50246 0.81721 0.8491 0.0
C410 C 0.49718 0.72395 0.75123 0.0
C411 C 0.56395 0.75599 0.81366 0.0
H412 H 0.4501 0.82462 0.87033 0.0
H413 H 0.41608 0.78618 0.85708 0.0
H414 H 0.41125 0.71883 0.78097 0.0
H415 H 0.4426 0.70751 0.74131 0.0
H416 H 0.54937 0.70679 0.73845 0.0
H417 H 0.58571 0.72246 0.77371 0.0
H418 H 0.58989 0.79453 0.84824 0.0
H419 H 0.55613 0.82956 0.86552 0.0
H420 H 0.52459 0.72136 0.89637 0.0
H421 H 0.50555 0.66658 0.83225 0.0
H422 H 0.54027 0.82001 0.74268 0.0
H423 H 0.45559 0.81409 0.74238 0.0
C424 C 0.53786 0.29256 0.67018 0.0
C425 C 0.56334 0.29802 0.66202 0.0
C426 C 0.57836 0.27887 0.67171 0.0
C427 C 0.56128 0.26295 0.68524 0.0
N428 N 0.53613 0.27037 0.68423 0.0
Co429 Co 0.50536 0.25447 0.70318 0.0
N430 N 0.52847 0.23055 0.7226 0.0
C431 C 0.55436 0.2272 0.71878 0.0
C432 C 0.56499 0.20962 0.73531 0.0
C433 C 0.54475 0.20149 0.75087 0.0
C434 C 0.52289 0.21475 0.74291 0.0
N435 N 0.47471 0.23915 0.72277 0.0
C436 C 0.47431 0.22291 0.74348 0.0
C437 C 0.44898 0.21827 0.75244 0.0
C438 C 0.43285 0.23227 0.73699 0.0
C439 C 0.44916 0.24472 0.71958 0.0
N440 N 0.48245 0.27853 0.68358 0.0
C441 C 0.45593 0.27885 0.68392 0.0
C442 C 0.44602 0.29895 0.66997 0.0
C443 C 0.46748 0.31256 0.66071 0.0
C444 C 0.48933 0.29997 0.66961 0.0
N445 N 0.49995 0.22665 0.6749 0.0
C446 C 0.49013 0.18028 0.64386 0.0
C447 C 0.46973 0.19584 0.6523 0.0
C448 C 0.47506 0.21883 0.66701 0.0
C449 C 0.51581 0.18957 0.64959 0.0
C450 C 0.52022 0.21264 0.66489 0.0
N451 N 0.51009 0.28128 0.73162 0.0
C452 C 0.49008 0.31039 0.763 0.0
C453 C 0.51345 0.31336 0.77731 0.0
C454 C 0.53563 0.30105 0.76753 0.0
C455 C 0.53358 0.28529 0.74458 0.0
C456 C 0.48891 0.29459 0.74037 0.0
H457 H 0.5509 0.27595 0.7379 0.0
H458 H 0.4703 0.29271 0.73082 0.0
H459 H 0.45841 0.22935 0.67233 0.0
H460 H 0.54017 0.21839 0.66866 0.0
C461 C 0.56867 0.24287 0.7015 0.0
C462 C 0.51625 0.30981 0.66558 0.0
C463 C 0.49751 0.21232 0.75578 0.0
C464 C 0.44142 0.26313 0.70128 0.0
H465 H 0.5705 0.31463 0.65102 0.0
H466 H 0.59943 0.27751 0.67023 0.0
H467 H 0.58524 0.20411 0.73657 0.0
H468 H 0.54606 0.1878 0.76667 0.0
H469 H 0.44288 0.20644 0.76881 0.0
H470 H 0.41183 0.23385 0.7388 0.0
H471 H 0.42571 0.30412 0.6682 0.0
H472 H 0.46718 0.33033 0.6496 0.0
H473 H 0.44941 0.19001 0.64853 0.0
H474 H 0.53253 0.17901 0.64262 0.0
H475 H 0.47234 0.31937 0.76972 0.0
H476 H 0.55437 0.30333 0.77765 0.0
C477 C 0.84357 0.47252 0.79005 0.0
C478 C 0.8546 0.44873 0.79503 0.0
C479 C 0.84516 0.43132 0.77584 0.0
C480 C 0.82901 0.44547 0.76028 0.0
N481 N 0.82791 0.47061 0.76854 0.0
Co482 Co 0.80675 0.4978 0.75283 0.0
N483 N 0.78262 0.47105 0.73614 0.0
C484 C 0.78775 0.44567 0.73156 0.0
C485 C 0.767 0.43179 0.71996 0.0
C486 C 0.74781 0.44963 0.71689 0.0
C487 C 0.75805 0.47356 0.72666 0.0
N488 N 0.78579 0.52506 0.73689 0.0
C489 C 0.76109 0.52317 0.72698 0.0
C490 C 0.75399 0.547 0.7171 0.0
C491 C 0.77517 0.5642 0.72103 0.0
C492 C 0.79404 0.54998 0.73298 0.0
N493 N 0.83103 0.52415 0.76993 0.0
C494 C 0.83472 0.54922 0.76306 0.0
C495 C 0.85191 0.56287 0.77983 0.0
C496 C 0.85929 0.54516 0.79825 0.0
C497 C 0.84619 0.52163 0.79163 0.0
N498 N 0.8286 0.49754 0.72115 0.0
C499 C 0.85784 0.50773 0.67585 0.0
C500 C 0.87045 0.50462 0.70012 0.0
C501 C 0.85541 0.49961 0.72265 0.0
C502 C 0.83064 0.50401 0.67444 0.0
C503 C 0.81649 0.49859 0.6971 0.0
N504 N 0.78443 0.49907 0.78387 0.0
C505 C 0.75733 0.52516 0.81182 0.0
C506 C 0.74604 0.50269 0.82309 0.0
C507 C 0.75581 0.47826 0.81509 0.0
C508 C 0.77466 0.47686 0.79518 0.0
C509 C 0.77676 0.52295 0.79298 0.0
H510 H 0.78084 0.45786 0.78845 0.0
H511 H 0.78468 0.54076 0.78486 0.0
H512 H 0.86531 0.49849 0.74141 0.0
H513 H 0.79547 0.49661 0.69522 0.0
C514 C 0.8102 0.43488 0.74237 0.0
C515 C 0.84879 0.49683 0.80535 0.0
C516 C 0.74504 0.49863 0.72468 0.0
C517 C 0.81742 0.56013 0.74498 0.0
H518 H 0.86774 0.44439 0.81101 0.0
H519 H 0.84839 0.41051 0.77446 0.0
H520 H 0.76557 0.41101 0.71522 0.0
H521 H 0.72861 0.44547 0.70826 0.0
H522 H 0.73556 0.55143 0.70784 0.0
H523 H 0.77626 0.5848 0.71658 0.0
H524 H 0.85723 0.58357 0.77971 0.0
H525 H 0.87247 0.5492 0.81474 0.0
H526 H 0.89158 0.50711 0.70185 0.0
H527 H 0.82026 0.50583 0.65595 0.0
H528 H 0.75067 0.54457 0.81643 0.0
H529 H 0.74873 0.4602 0.82362 0.0
C530 C 0.17276 0.04208 0.78742 0.0
C531 C 0.1627 0.06662 0.79193 0.0
C532 C 0.17007 0.08151 0.77091 0.0
C533 C 0.18414 0.06524 0.75481 0.0
N534 N 0.18585 0.04111 0.76442 0.0
Co535 Co 0.20509 0.0118 0.74867 0.0
N536 N 0.22754 0.03614 0.72822 0.0
C537 C 0.22206 0.06098 0.7226 0.0
C538 C 0.2411 0.07297 0.70768 0.0
C539 C 0.25947 0.0544 0.70343 0.0
C540 C 0.25055 0.03199 0.71603 0.0
N541 N 0.22403 0.98232 0.73285 0.0
C542 C 0.24703 0.98253 0.7197 0.0
C543 C 0.25267 0.95738 0.71097 0.0
C544 C 0.23225 0.94111 0.71873 0.0
C545 C 0.21528 0.95711 0.73175 0.0
N546 N 0.18251 0.98806 0.7696 0.0
C547 C 0.1779 0.9623 0.76487 0.0
C548 C 0.16245 0.95105 0.78391 0.0
C549 C 0.15723 0.97106 0.80161 0.0
C550 C 0.16981 0.99344 0.79233 0.0
N551 N 0.18012 0.00855 0.71897 0.0
C552 C 0.14719 0.99442 0.67619 0.0
C553 C 0.13667 0.99882 0.70128 0.0
C554 C 0.15356 0.00602 0.72252 0.0
C555 C 0.17403 0.99852 0.6727 0.0
C556 C 0.19003 0.00564 0.69413 0.0
N557 N 0.23063 0.01408 0.77749 0.0
C558 C 0.26012 0.99137 0.8052 0.0
C559 C 0.27394 0.01486 0.81167 0.0
C560 C 0.26444 0.03825 0.80195 0.0
C561 C 0.24274 0.03743 0.7849 0.0
C562 C 0.23851 0.99144 0.78834 0.0
H563 H 0.23639 0.0555 0.77687 0.0
H564 H 0.22902 0.97287 0.78303 0.0
H565 H 0.14535 0.00859 0.7419 0.0
H566 H 0.21072 0.00747 0.69052 0.0
C567 C 0.20101 0.07334 0.73471 0.0
C568 C 0.16903 0.01978 0.80468 0.0
C569 C 0.26251 0.00637 0.71311 0.0
C570 C 0.19323 0.94891 0.74637 0.0
H571 H 0.1516 0.07313 0.80878 0.0
H572 H 0.16702 0.10218 0.76858 0.0
H573 H 0.24187 0.09298 0.70117 0.0
H574 H 0.27706 0.05687 0.69184 0.0
H575 H 0.26957 0.95148 0.69982 0.0
H576 H 0.23038 0.92006 0.71579 0.0
H577 H 0.157 0.9305 0.78568 0.0
H578 H 0.14586 0.96931 0.8194 0.0
H579 H 0.11581 0.99602 0.70456 0.0
H580 H 0.18278 0.99551 0.65354 0.0
H581 H 0.26664 0.97276 0.81199 0.0
H582 H 0.27404 0.05699 0.80695 0.0
C583 C 0.72797 0.17338 0.96397 0.0
C584 C 0.72233 0.16174 0.93955 0.0
C585 C 0.74102 0.17131 0.92265 0.0
C586 C 0.75696 0.18815 0.9377 0.0
N587 N 0.74945 0.18956 0.96296 0.0
Co588 Co 0.766 0.21161 0.99138 0.0
N589 N 0.78227 0.23552 0.96561 0.0
C590 C 0.78571 0.23008 0.93981 0.0
C591 C 0.79671 0.25083 0.9267 0.0
C592 C 0.80075 0.27033 0.94548 0.0
C593 C 0.79223 0.26025 0.96921 0.0
N594 N 0.78267 0.23347 0.01986 0.0
C595 C 0.7937 0.25796 0.01905 0.0
C596 C 0.80421 0.26554 0.04348 0.0
C597 C 0.79959 0.24494 0.0599 0.0
C598 C 0.78664 0.2259 0.04469 0.0
N599 N 0.74925 0.18743 0.01659 0.0
C600 C 0.75655 0.18443 0.04173 0.0
C601 C 0.74 0.16712 0.05446 0.0
C602 C 0.72125 0.15891 0.03608 0.0
C603 C 0.72745 0.17169 0.01312 0.0
N604 N 0.79756 0.19043 0.99068 0.0
C605 C 0.84375 0.16396 0.00187 0.0
C606 C 0.81915 0.15047 0.00053 0.0
C607 C 0.79636 0.16399 0.99451 0.0
C608 C 0.84464 0.19042 0.99528 0.0
C609 C 0.82161 0.20321 0.9902 0.0
N610 N 0.7353 0.23351 0.99329 0.0
C611 C 0.70767 0.2593 0.0211 0.0
C612 C 0.70058 0.27445 0.99985 0.0
C613 C 0.70931 0.26689 0.97468 0.0
C614 C 0.72637 0.24608 0.97179 0.0
C615 C 0.72515 0.23928 0.01749 0.0
H616 H 0.73357 0.24124 0.95243 0.0
H617 H 0.73161 0.22959 0.03475 0.0
H618 H 0.77767 0.15333 0.99428 0.0
H619 H 0.82347 0.22395 0.9873 0.0
C620 C 0.77448 0.2072 0.92798 0.0
C621 C 0.71322 0.1683 0.98795 0.0
C622 C 0.79679 0.27333 0.99504 0.0
C623 C 0.77472 0.2025 0.05371 0.0
H624 H 0.70621 0.14812 0.93448 0.0
H625 H 0.74182 0.16772 0.9016 0.0
H626 H 0.80051 0.25199 0.90585 0.0
H627 H 0.8094 0.28959 0.94209 0.0
H628 H 0.81449 0.28385 0.0488 0.0
H629 H 0.80454 0.24424 0.08059 0.0
H630 H 0.74048 0.16228 0.07505 0.0
H631 H 0.70479 0.14543 0.03931 0.0
H632 H 0.81723 0.12992 0.00509 0.0
H633 H 0.86303 0.20165 0.9947 0.0
H634 H 0.70071 0.26355 0.04076 0.0
H635 H 0.70425 0.27777 0.9575 0.0
Zn636 Zn 0.09913 0.08782 0.07297 0.0
Zn637 Zn 0.04795 0.03991 0.01121 0.0
Zn638 Zn 0.07559 0.06398 0.04396 0.0
C639 C 0.09306 0.05095 0.98399 0.0
C640 C 0.05497 0.00493 0.05173 0.0
O641 O 0.05242 0.0964 0.06346 0.0
O642 O 0.08601 0.12349 0.07159 0.0
C643 C 0.13324 0.08826 0.03584 0.0
O644 O 0.09688 0.06557 0.0049 0.0
O645 O 0.07313 0.03563 0.98237 0.0
O646 O 0.04022 0.00855 0.03222 0.0
O647 O 0.07205 0.02305 0.05883 0.0
O648 O 0.13511 0.08453 0.06014 0.0
O649 O 0.11098 0.08266 0.0243 0.0
O650 O 0.09091 0.03881 0.07596 0.0
O651 O 0.092 0.07016 0.10625 0.0
C652 C 0.09526 0.04648 0.10007 0.0
O653 O 0.0362 0.08234 0.04375 0.0
O654 O 0.01951 0.06488 0.00687 0.0
C655 C 0.06158 0.11899 0.07213 0.0
C656 C 0.01783 0.08077 0.02614 0.0
Zn657 Zn 0.98578 0.49702 0.00793 0.0
Zn658 Zn 0.9176 0.41097 0.09122 0.0
Zn659 Zn 0.96 0.47051 0.03724 0.0
C660 C 0.92487 0.47377 0.08287 0.0
C661 C 0.91834 0.42902 0.03093 0.0
O662 O 0.0009 0.45606 0.03777 0.0
O663 O 0.01606 0.47353 0.00143 0.0
C664 C 0.97408 0.52783 0.05388 0.0
O665 O 0.93776 0.49047 0.06908 0.0
O666 O 0.92977 0.44965 0.07842 0.0
O667 O 0.92558 0.43044 0.05505 0.0
O668 O 0.92914 0.44593 0.01583 0.0
O669 O 0.99029 0.52595 0.03526 0.0
O670 O 0.95684 0.50919 0.05726 0.0
O671 O 0.93872 0.46575 0.99877 0.0
O672 O 0.95797 0.49994 0.98034 0.0
C673 C 0.94016 0.48207 0.97989 0.0
O674 O 0.98663 0.4432 0.05663 0.0
O675 O 0.94915 0.42952 0.07174 0.0
C676 C 0.01903 0.45833 0.02033 0.0
C677 C 0.97396 0.42733 0.07127 0.0
Zn678 Zn 0.00736 0.96969 0.47803 0.0
Zn679 Zn 0.09184 0.92044 0.40323 0.0
Zn680 Zn 0.03631 0.94535 0.44743 0.0
C681 C 0.09456 0.92361 0.45797 0.0
C682 C 0.0303 0.89839 0.41269 0.0
O683 O 0.03614 0.98615 0.43263 0.0
O684 O 0.00775 0.0038 0.45961 0.0
C685 C 0.0498 0.9528 0.50824 0.0
O686 O 0.0704 0.92622 0.46471 0.0
O687 O 0.10374 0.93611 0.43862 0.0
O688 O 0.05367 0.90686 0.40918 0.0
O689 O 0.01559 0.91192 0.42771 0.0
O690 O 0.02955 0.96623 0.50997 0.0
O691 O 0.05609 0.94248 0.48596 0.0
O692 O 0.99728 0.92325 0.4451 0.0
O693 O 0.97589 0.94571 0.47528 0.0
C694 C 0.97651 0.92673 0.45894 0.0
O695 O 0.05311 0.97075 0.41734 0.0
O696 O 0.05789 0.9365 0.39189 0.0
C697 C 0.02281 0.00594 0.44009 0.0
C698 C 0.06157 0.96084 0.3957 0.0
Zn699 Zn 0.94521 0.56104 0.4131 0.0
Zn700 Zn 0.99231 0.51412 0.47852 0.0
Zn701 Zn 0.96642 0.5387 0.44535 0.0
C702 C 0.97713 0.47767 0.43862 0.0
C703 C 0.02648 0.55305 0.46108 0.0
O704 O 0.93721 0.5642 0.46549 0.0
O705 O 0.91252 0.5696 0.43058 0.0
C706 C 0.93551 0.51438 0.39415 0.0
O707 O 0.96227 0.49659 0.43291 0.0
O708 O 0.99372 0.48089 0.4571 0.0
O709 O 0.02367 0.53814 0.48032 0.0
O710 O 0.00809 0.5539 0.44365 0.0
O711 O 0.94132 0.53558 0.38315 0.0
O712 O 0.943 0.5115 0.41817 0.0
O713 O 0.99442 0.56363 0.42145 0.0
O714 O 0.96732 0.59238 0.40665 0.0
C715 C 0.99031 0.58454 0.40852 0.0
O716 O 0.94851 0.54707 0.48453 0.0
O717 O 0.96758 0.5173 0.50818 0.0
C718 C 0.91682 0.57384 0.45475 0.0
C719 C 0.95099 0.53488 0.50625 0.0
Zn720 Zn 0.41377 0.91929 0.56721 0.0
Zn721 Zn 0.4647 0.96928 0.50736 0.0
Zn722 Zn 0.43585 0.94613 0.54052 0.0
C723 C 0.4205 0.95428 0.479 0.0
C724 C 0.45353 0.00522 0.54961 0.0
O725 O 0.46044 0.91617 0.56029 0.0
O726 O 0.43045 0.885 0.56637 0.0
C727 C 0.37967 0.91896 0.52883 0.0
O728 O 0.41599 0.94256 0.50078 0.0
O729 O 0.44066 0.96905 0.47677 0.0
O730 O 0.4679 0.00175 0.52975 0.0
O731 O 0.43757 0.98667 0.55674 0.0
O732 O 0.37767 0.91949 0.55349 0.0
O733 O 0.40173 0.92637 0.51855 0.0
O734 O 0.41693 0.97046 0.57218 0.0
O735 O 0.41954 0.93928 0.60054 0.0
C736 C 0.41238 0.96192 0.59541 0.0
O737 O 0.47609 0.9298 0.54136 0.0
O738 O 0.49498 0.94597 0.50603 0.0
C739 C 0.45407 0.89301 0.56838 0.0
C740 C 0.49563 0.93113 0.52543 0.0
Zn741 Zn 0.52916 0.51907 0.54646 0.0
Zn742 Zn 0.57714 0.57569 0.60217 0.0
Zn743 Zn 0.55367 0.54894 0.57612 0.0
C744 C 0.57827 0.53675 0.63163 0.0
C745 C 0.60891 0.57788 0.56421 0.0
O746 O 0.51295 0.56346 0.57624 0.0
O747 O 0.49856 0.54085 0.54124 0.0
C748 C 0.53997 0.48861 0.58847 0.0
O749 O 0.57332 0.52732 0.60824 0.0
O750 O 0.5719 0.55988 0.63699 0.0
O751 O 0.61299 0.57428 0.58828 0.0
O752 O 0.58634 0.57037 0.55432 0.0
O753 O 0.52407 0.48893 0.5694 0.0
O754 O 0.55546 0.50873 0.59333 0.0
O755 O 0.57228 0.55181 0.53654 0.0
O756 O 0.55435 0.51619 0.51731 0.0
C757 C 0.57062 0.53536 0.51689 0.0
O758 O 0.5289 0.57972 0.59562 0.0
O759 O 0.56075 0.60959 0.59666 0.0
C760 C 0.495 0.55834 0.5587 0.0
C761 C 0.53711 0.60346 0.60117 0.0
Zn762 Zn 0.52432 0.49331 0.00697 0.0
Zn763 Zn 0.5832 0.44593 0.95257 0.0
Zn764 Zn 0.55568 0.46728 0.97955 0.0
C765 C 0.6092 0.44121 0.99554 0.0
C766 C 0.54265 0.41538 0.94532 0.0
O767 O 0.55781 0.50865 0.96603 0.0
O768 O 0.52251 0.52433 0.98458 0.0
C769 C 0.56628 0.47949 0.03991 0.0
O770 O 0.58566 0.4463 0.00277 0.0
O771 O 0.61641 0.4475 0.97284 0.0
O772 O 0.56623 0.41057 0.95 0.0
O773 O 0.53368 0.43706 0.95441 0.0
O774 O 0.54793 0.49538 0.0385 0.0
O775 O 0.57092 0.46418 0.02012 0.0
O776 O 0.51587 0.44793 0.97411 0.0
O777 O 0.49368 0.46828 0.00515 0.0
C778 C 0.49469 0.45053 0.98747 0.0
O779 O 0.57792 0.4941 0.95261 0.0
O780 O 0.58357 0.46621 0.91978 0.0
C781 C 0.54132 0.52702 0.96878 0.0
C782 C 0.58632 0.4892 0.92917 0.0
Zn783 Zn 0.50433 0.03357 0.98128 0.0
Zn784 Zn 0.426 0.09021 0.89671 0.0
Zn785 Zn 0.47845 0.0561 0.94723 0.0
C786 C 0.48579 0.09653 0.91132 0.0
C787 C 0.44553 0.03662 0.90544 0.0
O788 O 0.45561 0.06289 0.98311 0.0
O789 O 0.47689 0.03671 0.00903 0.0
C790 C 0.53616 0.07619 0.96489 0.0
O791 O 0.50245 0.08622 0.92629 0.0
O792 O 0.46308 0.08567 0.91127 0.0
O793 O 0.44975 0.06099 0.90434 0.0
O794 O 0.46077 0.025 0.9208 0.0
O795 O 0.53395 0.06004 0.98319 0.0
O796 O 0.51811 0.0768 0.94704 0.0
O797 O 0.48036 0.01367 0.9341 0.0
O798 O 0.50959 -0.00075 0.96185 0.0
C799 C 0.49523 0.99533 0.94166 0.0
O800 O 0.44338 0.07948 0.96179 0.0
O801 O 0.41435 0.09806 0.93396 0.0
C802 C 0.45818 0.05178 0.00533 0.0
C803 C 0.42268 0.09301 0.95709 0.0
C804 C 0.00319 0.13004 0.35059 0.0
C805 C 0.01728 0.15264 0.35974 0.0
C806 C 0.00605 0.10577 0.36249 0.0
C807 C 0.02343 0.10392 0.38415 0.0
C808 C 0.03816 0.1265 0.39314 0.0
C809 C 0.0349 0.15055 0.38088 0.0
C810 C 0.98997 0.08221 0.35225 0.0
C811 C 0.05683 0.12543 0.41622 0.0
C812 C 0.00678 0.05089 0.43295 0.0
C813 C 0.02403 0.03111 0.42589 0.0
C814 C 0.00667 0.07462 0.4197 0.0
C815 C 0.02433 0.07898 0.39881 0.0
C816 C 0.04214 0.05934 0.39176 0.0
C817 C 0.04172 0.0356 0.40532 0.0
C818 C 0.9873 0.09492 0.4279 0.0
C819 C 0.06146 0.06331 0.36975 0.0
H820 H 0.98994 0.13128 0.33395 0.0
H821 H 0.04575 0.16788 0.38826 0.0
H822 H 0.00293 0.06577 0.34763 0.0
H823 H 0.97612 0.07551 0.36762 0.0
H824 H 0.97852 0.08651 0.33431 0.0
H825 H 0.06839 0.14411 0.41947 0.0
H826 H 0.04564 0.12119 0.43434 0.0
H827 H 0.0706 0.10934 0.41313 0.0
H828 H 0.99298 0.04777 0.44877 0.0
H829 H 0.05522 0.02063 0.39975 0.0
H830 H 0.97401 0.09876 0.41119 0.0
H831 H 0.99784 0.11369 0.43334 0.0
H832 H 0.97518 0.0887 0.44486 0.0
H833 H 0.05074 0.06573 0.35097 0.0
H834 H 0.07469 0.04663 0.36734 0.0
H835 H 0.07359 0.08152 0.37354 0.0
C836 C 0.97827 0.3317 0.37678 0.0
C837 C 0.98828 0.33117 0.3512 0.0
C838 C 0.97379 0.3556 0.3901 0.0
C839 C 0.97983 0.37959 0.37768 0.0
C840 C 0.98967 0.37907 0.35166 0.0
C841 C 0.9938 0.35485 0.33876 0.0
C842 C 0.96326 0.35516 0.41775 0.0
C843 C 0.99665 0.40408 0.33776 0.0
C844 C 0.95519 0.4438 0.40754 0.0
C845 C 0.97694 0.4527 0.42277 0.0
C846 C 0.95567 0.42002 0.39276 0.0
C847 C 0.97858 0.40502 0.39291 0.0
C848 C 0.00061 0.41416 0.40802 0.0
C849 C 0.99945 0.43765 0.42281 0.0
C850 C 0.93167 0.41085 0.37712 0.0
C851 C 0.02558 0.39914 0.40857 0.0
H852 H 0.97415 0.31334 0.38642 0.0
H853 H 0.00158 0.35438 0.31897 0.0
H854 H 0.97848 0.36323 0.43173 0.0
H855 H 0.94606 0.36776 0.41949 0.0
H856 H 0.95735 0.33505 0.42373 0.0
H857 H 0.00225 0.4004 0.31695 0.0
H858 H 0.97986 0.41728 0.33821 0.0
H859 H 0.01331 0.41456 0.34812 0.0
H860 H 0.93768 0.45515 0.40756 0.0
H861 H 0.01651 0.44442 0.43424 0.0
H862 H 0.9253 0.39083 0.38291 0.0
H863 H 0.93644 0.40979 0.35588 0.0
H864 H 0.91505 0.42407 0.37996 0.0
H865 H 0.02156 0.37938 0.41648 0.0
H866 H 0.0412 0.40924 0.42081 0.0
H867 H 0.0331 0.39638 0.38831 0.0
C868 C 0.01143 0.88302 0.13841 0.0
C869 C 0.02135 0.85906 0.12953 0.0
C870 C 0.01915 0.9068 0.12701 0.0
C871 C 0.03688 0.9068 0.10573 0.0
C872 C 0.04696 0.88277 0.09654 0.0
C873 C 0.03916 0.85923 0.10859 0.0
C874 C 0.00784 0.93191 0.13741 0.0
C875 C 0.06573 0.88188 0.07375 0.0
C876 C 0.03055 0.96227 0.05816 0.0
C877 C 0.05136 0.97976 0.06577 0.0
C878 C 0.02599 0.93848 0.07074 0.0
C879 C 0.0427 0.9316 0.09155 0.0
C880 C 0.06395 0.9489 0.09927 0.0
C881 C 0.06791 0.97283 0.08637 0.0
C882 C 0.00295 0.92085 0.06195 0.0
C883 C 0.0823 0.94228 0.12132 0.0
H884 H 0.99731 0.88323 0.15422 0.0
H885 H 0.04733 0.841 0.10179 0.0
H886 H 0.02382 0.94665 0.14213 0.0
H887 H 0.99523 0.94024 0.12212 0.0
H888 H 0.99591 0.92887 0.15535 0.0
H889 H 0.07288 0.86189 0.06982 0.0
H890 H 0.05587 0.88853 0.05572 0.0
H891 H 0.08285 0.89547 0.07771 0.0
H892 H 0.01744 0.96725 0.04235 0.0
H893 H 0.08388 0.98606 0.09243 0.0
H894 H 0.98899 0.91839 0.07842 0.0
H895 H 0.00974 0.90112 0.05633 0.0
H896 H 0.99223 0.92872 0.04497 0.0
H897 H 0.07123 0.94072 0.13995 0.0
H898 H 0.09853 0.95722 0.12421 0.0
H899 H 0.09085 0.92295 0.11722 0.0
C900 C 0.99014 0.67443 0.10752 0.0
C901 C 0.99554 0.67762 0.13445 0.0
C902 C 0.98525 0.64937 0.09603 0.0
C903 C 0.98596 0.62695 0.11186 0.0
C904 C 0.99157 0.63018 0.13913 0.0
C905 C 0.99623 0.65554 0.15011 0.0
C906 C 0.97941 0.64689 0.06692 0.0
C907 C 0.99277 0.60687 0.15666 0.0
C908 C 0.9547 0.56327 0.08258 0.0
C909 C 0.97654 0.55151 0.07146 0.0
C910 C 0.95745 0.58752 0.09651 0.0
C911 C 0.98264 0.60014 0.09942 0.0
C912 C 0.0048 0.58775 0.08904 0.0
C913 C 0.00146 0.56375 0.0752 0.0
C914 C 0.93335 0.6001 0.1073 0.0
C915 C 0.03202 0.60029 0.0917 0.0
H916 H 0.98936 0.69165 0.09556 0.0
H917 H 0.00014 0.65817 0.17102 0.0
H918 H 0.99479 0.63554 0.05699 0.0
H919 H 0.96042 0.636 0.06349 0.0
H920 H 0.9785 0.66627 0.0576 0.0
H921 H 0.99662 0.61274 0.17756 0.0
H922 H 0.97402 0.59518 0.15538 0.0
H923 H 0.00851 0.59393 0.14991 0.0
H924 H 0.9354 0.5542 0.07932 0.0
H925 H 0.0185 0.55469 0.06682 0.0
H926 H 0.9307 0.61917 0.09785 0.0
H927 H 0.9358 0.60419 0.12873 0.0
H928 H 0.91531 0.58758 0.10396 0.0
H929 H 0.03302 0.61885 0.08085 0.0
H930 H 0.04737 0.58737 0.08393 0.0
H931 H 0.03656 0.60526 0.11265 0.0
C932 C 0.39195 0.01184 0.1357 0.0
C933 C 0.37368 0.02818 0.14764 0.0
C934 C 0.40352 0.01808 0.11148 0.0
C935 C 0.39687 0.04134 0.09876 0.0
C936 C 0.37837 0.05786 0.11058 0.0
C937 C 0.36696 0.05106 0.13473 0.0
C938 C 0.42315 -0.00014 0.09964 0.0
C939 C 0.3708 0.08288 0.09783 0.0
C940 C 0.44928 0.06548 0.0514 0.0
C941 C 0.43962 0.05545 0.02718 0.0
C942 C 0.43472 0.06262 0.07458 0.0
C943 C 0.41017 0.0487 0.07367 0.0
C944 C 0.39966 0.03984 0.04893 0.0
C945 C 0.41448 0.04348 0.02591 0.0
C946 C 0.44649 0.07297 0.10029 0.0
C947 C 0.37368 0.02478 0.047 0.0
H948 H 0.39761 0.99432 0.1455 0.0
H949 H 0.35253 0.06364 0.1434 0.0
H950 H 0.41698 0.99374 0.07936 0.0
H951 H 0.44258 0.01022 0.09827 0.0
H952 H 0.42542 0.98204 0.11137 0.0
H953 H 0.35585 0.09345 0.10931 0.0
H954 H 0.38841 0.09606 0.09577 0.0
H955 H 0.36292 0.07851 0.07774 0.0
H956 H 0.4689 0.07442 0.0524 0.0
H957 H 0.40726 0.03523 0.00726 0.0
H958 H 0.45242 0.05634 0.1123 0.0
H959 H 0.43181 0.0839 0.11174 0.0
H960 H 0.464 0.08611 0.09729 0.0
H961 H 0.37571 0.00521 0.05559 0.0
H962 H 0.36679 0.02201 0.02631 0.0
H963 H 0.35849 0.03499 0.05843 0.0
C964 C 0.66408 0.4948 0.16552 0.0
C965 C 0.64945 0.48988 0.18814 0.0
C966 C 0.65234 0.49243 0.14039 0.0
C967 C 0.62542 0.48469 0.13794 0.0
C968 C 0.61059 0.47992 0.16091 0.0
C969 C 0.62271 0.48295 0.18573 0.0
C970 C 0.66869 0.4983 0.11649 0.0
C971 C 0.58191 0.47152 0.15926 0.0
C972 C 0.5849 0.50384 0.07916 0.0
C973 C 0.58295 0.48046 0.064 0.0
C974 C 0.59945 0.50565 0.10264 0.0
C975 C 0.61214 0.4834 0.11163 0.0
C976 C 0.61081 0.45982 0.09617 0.0
C977 C 0.59637 0.45869 0.07236 0.0
C978 C 0.60074 0.53134 0.11813 0.0
C979 C 0.62384 0.43555 0.10519 0.0
H980 H 0.68479 0.50016 0.16751 0.0
H981 H 0.61144 0.47928 0.20335 0.0
H982 H 0.66833 0.48101 0.10281 0.0
H983 H 0.66026 0.51468 0.10574 0.0
H984 H 0.68942 0.50368 0.1217 0.0
H985 H 0.57358 0.46712 0.17884 0.0
H986 H 0.57052 0.48723 0.15048 0.0
H987 H 0.57927 0.45383 0.14625 0.0
H988 H 0.57494 0.52093 0.07263 0.0
H989 H 0.59487 0.44059 0.06081 0.0
H990 H 0.62146 0.53739 0.12253 0.0
H991 H 0.59066 0.52895 0.13721 0.0
H992 H 0.59142 0.54731 0.10747 0.0
H993 H 0.64479 0.44006 0.11004 0.0
H994 H 0.62262 0.41942 0.09008 0.0
H995 H 0.61428 0.42862 0.1234 0.0
C996 C 0.33605 0.96844 0.34558 0.0
C997 C 0.35312 0.9832 0.32974 0.0
C998 C 0.34384 0.96074 0.37076 0.0
C999 C 0.36928 0.96806 0.38037 0.0
C1000 C 0.38664 0.98276 0.36424 0.0
C1001 C 0.37843 0.98991 0.33905 0.0
C1002 C 0.32485 0.94482 0.38709 0.0
C1003 C 0.4139 0.9911 0.37366 0.0
C1004 C 0.38596 0.97483 0.45326 0.0
C1005 C 0.40155 0.95321 0.45693 0.0
C1006 C 0.37392 0.97901 0.42887 0.0
C1007 C 0.3777 0.96118 0.40753 0.0
C1008 C 0.39193 0.93829 0.41175 0.0
C1009 C 0.40388 0.93467 0.4364 0.0
C1010 C 0.35893 0.00364 0.4254 0.0
C1011 C 0.3962 0.91859 0.38972 0.0
H1012 H 0.31659 0.9629 0.33816 0.0
H1013 H 0.39184 0.00073 0.32653 0.0
H1014 H 0.33377 0.92625 0.39264 0.0
H1015 H 0.32056 0.95575 0.4056 0.0
H1016 H 0.30607 0.9401 0.37651 0.0
H1017 H 0.42498 0.00245 0.35877 0.0
H1018 H 0.41272 0.00334 0.39193 0.0
H1019 H 0.42509 0.97361 0.37846 0.0
H1020 H 0.38467 0.98945 0.46901 0.0
H1021 H 0.41643 0.91826 0.43909 0.0
H1022 H 0.33985 0.99904 0.41542 0.0
H1023 H 0.37032 0.01721 0.41275 0.0
H1024 H 0.35523 0.0139 0.44448 0.0
H1025 H 0.37761 0.91395 0.37884 0.0
H1026 H 0.40403 0.90011 0.39705 0.0
H1027 H 0.41041 0.92703 0.37555 0.0
C1028 C 0.65773 0.53049 0.38591 0.0
C1029 C 0.64348 0.51402 0.36792 0.0
C1030 C 0.64702 0.53817 0.41016 0.0
C1031 C 0.62132 0.52935 0.41661 0.0
C1032 C 0.60624 0.51404 0.39791 0.0
C1033 C 0.6175 0.50653 0.3738 0.0
C1034 C 0.66372 0.55463 0.42939 0.0
C1035 C 0.57862 0.50449 0.40389 0.0
C1036 C 0.60352 0.5163 0.48746 0.0
C1037 C 0.58782 0.53739 0.49385 0.0
C1038 C 0.61552 0.51418 0.46282 0.0
C1039 C 0.61131 0.53345 0.44387 0.0
C1040 C 0.59645 0.55552 0.45071 0.0
C1041 C 0.58478 0.5572 0.4757 0.0
C1042 C 0.63157 0.49057 0.45662 0.0
C1043 C 0.59156 0.57653 0.43115 0.0
H1044 H 0.67759 0.53701 0.38126 0.0
H1045 H 0.60632 0.49388 0.36006 0.0
H1046 H 0.6526 0.5713 0.43733 0.0
H1047 H 0.66913 0.54257 0.44628 0.0
H1048 H 0.68204 0.56245 0.42028 0.0
H1049 H 0.5686 0.49512 0.38641 0.0
H1050 H 0.57908 0.48998 0.41973 0.0
H1051 H 0.56686 0.52101 0.4111 0.0
H1052 H 0.60551 0.50081 0.50145 0.0
H1053 H 0.57211 0.5732 0.48049 0.0
H1054 H 0.65107 0.49682 0.44899 0.0
H1055 H 0.62156 0.4782 0.44105 0.0
H1056 H 0.63451 0.4784 0.47412 0.0
H1057 H 0.61006 0.58272 0.42138 0.0
H1058 H 0.58284 0.59401 0.44056 0.0
H1059 H 0.57788 0.56857 0.41561 0.0
C1060 C 0.14235 0.36494 0.02751 0.0
C1061 C 0.16472 0.37753 0.01673 0.0
C1062 C 0.11839 0.37753 0.02985 0.0
C1063 C 0.11684 0.40398 0.02267 0.0
C1064 C 0.13963 0.41746 0.01351 0.0
C1065 C 0.16302 0.40399 0.01009 0.0
C1066 C 0.09446 0.36212 0.03903 0.0
C1067 C 0.13915 0.44602 0.00667 0.0
C1068 C 0.05238 0.43065 0.99898 0.0
C1069 C 0.04301 0.443 0.02177 0.0
C1070 C 0.07584 0.41713 0.99934 0.0
C1071 C 0.09099 0.41692 0.02279 0.0
C1072 C 0.08151 0.42931 0.04597 0.0
C1073 C 0.05732 0.44177 0.04529 0.0
C1074 C 0.08445 0.40313 0.97452 0.0
C1075 C 0.09741 0.43046 0.07114 0.0
H1076 H 0.14325 0.34498 0.03394 0.0
H1077 H 0.17971 0.41424 0.00157 0.0
H1078 H 0.08589 0.37195 0.05648 0.0
H1079 H 0.07923 0.36131 0.0233 0.0
H1080 H 0.09896 0.34176 0.04416 0.0
H1081 H 0.15915 0.4546 0.00336 0.0
H1082 H 0.12733 0.44818 0.98852 0.0
H1083 H 0.12976 0.45746 0.02264 0.0
H1084 H 0.04116 0.43142 0.98084 0.0
H1085 H 0.05015 0.45154 0.06286 0.0
H1086 H 0.08869 0.38248 0.97867 0.0
H1087 H 0.10281 0.4126 0.96721 0.0
H1088 H 0.06938 0.40326 0.95865 0.0
H1089 H 0.1038 0.41071 0.07624 0.0
H1090 H 0.0863 0.43871 0.08795 0.0
H1091 H 0.11542 0.44292 0.06835 0.0
C1092 C 0.17202 0.60811 0.47747 0.0
C1093 C 0.17549 0.63538 0.47721 0.0
C1094 C 0.14752 0.59589 0.47128 0.0
C1095 C 0.12598 0.61137 0.46481 0.0
C1096 C 0.12977 0.63896 0.46368 0.0
C1097 C 0.15454 0.65064 0.46993 0.0
C1098 C 0.14442 0.56646 0.4727 0.0
C1099 C 0.10741 0.65622 0.45705 0.0
C1100 C 0.06407 0.57538 0.43734 0.0
C1101 C 0.0503 0.57052 0.46056 0.0
C1102 C 0.08855 0.58928 0.43814 0.0
C1103 C 0.09901 0.59894 0.46264 0.0
C1104 C 0.08424 0.59537 0.4858 0.0
C1105 C 0.06033 0.581 0.48449 0.0
C1106 C 0.10373 0.5925 0.41303 0.0
C1107 C 0.09412 0.60594 0.51223 0.0
H1108 H 0.1884 0.59642 0.48301 0.0
H1109 H 0.15743 0.67177 0.46966 0.0
H1110 H 0.13158 0.56127 0.48944 0.0
H1111 H 0.13484 0.55818 0.45451 0.0
H1112 H 0.16353 0.55708 0.47539 0.0
H1113 H 0.11419 0.67685 0.45413 0.0
H1114 H 0.09705 0.64874 0.43897 0.0
H1115 H 0.09295 0.6559 0.47325 0.0
H1116 H 0.05636 0.56727 0.41882 0.0
H1117 H 0.0495 0.57763 0.50245 0.0
H1118 H 0.12107 0.58001 0.41343 0.0
H1119 H 0.11111 0.61306 0.41122 0.0
H1120 H 0.09167 0.58684 0.39536 0.0
H1121 H 0.11205 0.59574 0.51793 0.0
H1122 H 0.07932 0.6033 0.52796 0.0
H1123 H 0.09953 0.62711 0.51113 0.0
C1124 C 0.84613 0.83307 0.47159 0.0
C1125 C 0.82724 0.84912 0.48276 0.0
C1126 C 0.87117 0.84334 0.46498 0.0
C1127 C 0.87741 0.87036 0.4695 0.0
C1128 C 0.85809 0.88672 0.48031 0.0
C1129 C 0.83324 0.8759 0.48675 0.0
C1130 C 0.89109 0.82518 0.45362 0.0
C1131 C 0.86378 0.91562 0.48541 0.0
C1132 C 0.9475 0.89559 0.48242 0.0
C1133 C 0.95399 0.90765 0.45879 0.0
C1134 C 0.92322 0.88225 0.48563 0.0
C1135 C 0.90462 0.88128 0.46479 0.0
C1136 C 0.91159 0.89237 0.44035 0.0
C1137 C 0.9363 0.90541 0.4376 0.0
C1138 C 0.91695 0.87048 0.51188 0.0
C1139 C 0.89236 0.89189 0.41766 0.0
H1140 H 0.84129 0.81241 0.46819 0.0
H1141 H 0.81842 0.88836 0.49493 0.0
H1142 H 0.89872 0.8328 0.43481 0.0
H1143 H 0.90804 0.8243 0.46732 0.0
H1144 H 0.88277 0.80499 0.45001 0.0
H1145 H 0.84628 0.92588 0.49262 0.0
H1146 H 0.8797 0.91844 0.5003 0.0
H1147 H 0.87071 0.92494 0.46714 0.0
H1148 H 0.96109 0.89762 0.49891 0.0
H1149 H 0.9411 0.91519 0.4195 0.0
H1150 H 0.9095 0.84991 0.50912 0.0
H1151 H 0.90126 0.88158 0.52163 0.0
H1152 H 0.93432 0.87083 0.52521 0.0
H1153 H 0.88349 0.87191 0.41437 0.0
H1154 H 0.90173 0.89836 0.39916 0.0
H1155 H 0.87617 0.90511 0.4224 0.0
C1156 C 0.34896 0.61043 0.54583 0.0
C1157 C 0.34981 0.63584 0.53578 0.0
C1158 C 0.37211 0.59796 0.55277 0.0
C1159 C 0.39673 0.61144 0.55042 0.0
C1160 C 0.39769 0.63743 0.54154 0.0
C1161 C 0.37447 0.64898 0.53373 0.0
C1162 C 0.3703 0.56997 0.56155 0.0
C1163 C 0.42346 0.65273 0.53918 0.0
C1164 C 0.45927 0.58456 0.57978 0.0
C1165 C 0.47026 0.57269 0.5575 0.0
C1166 C 0.43511 0.59706 0.57803 0.0
C1167 C 0.42167 0.5974 0.5535 0.0
C1168 C 0.43272 0.58526 0.53109 0.0
C1169 C 0.45679 0.57322 0.53336 0.0
C1170 C 0.42393 0.60978 0.60236 0.0
C1171 C 0.41921 0.58511 0.50452 0.0
H1172 H 0.33025 0.60007 0.54812 0.0
H1173 H 0.37599 0.6682 0.52532 0.0
H1174 H 0.37953 0.55708 0.54664 0.0
H1175 H 0.38122 0.56802 0.58028 0.0
H1176 H 0.34968 0.56285 0.56429 0.0
H1177 H 0.42061 0.67379 0.53551 0.0
H1178 H 0.43538 0.65123 0.55738 0.0
H1179 H 0.43489 0.64441 0.52269 0.0
H1180 H 0.46931 0.58371 0.59857 0.0
H1181 H 0.46514 0.56416 0.51597 0.0
H1182 H 0.40507 0.5997 0.60739 0.0
H1183 H 0.41969 0.63052 0.59865 0.0
H1184 H 0.43742 0.6091 0.61955 0.0
H1185 H 0.39893 0.57668 0.50602 0.0
H1186 H 0.42978 0.57365 0.48935 0.0
H1187 H 0.41777 0.60547 0.49774 0.0
C1188 C 0.53691 0.64605 0.86929 0.0
C1189 C 0.52653 0.66808 0.88219 0.0
C1190 C 0.54273 0.62339 0.88291 0.0
C1191 C 0.53938 0.62294 0.91047 0.0
C1192 C 0.53115 0.64579 0.92401 0.0
C1193 C 0.52439 0.66786 0.90973 0.0
C1194 C 0.55091 0.59938 0.86752 0.0
C1195 C 0.52834 0.6465 0.95353 0.0
C1196 C 0.51852 0.55902 0.94193 0.0
C1197 C 0.54217 0.55038 0.95217 0.0
C1198 C 0.51763 0.58213 0.9278 0.0
C1199 C 0.54089 0.59764 0.92446 0.0
C1200 C 0.56503 0.58883 0.93442 0.0
C1201 C 0.56545 0.565 0.94786 0.0
C1202 C 0.49164 0.59002 0.91661 0.0
C1203 C 0.59015 0.60508 0.93196 0.0
H1204 H 0.54 0.64613 0.84826 0.0
H1205 H 0.51655 0.68452 0.92021 0.0
H1206 H 0.56899 0.59159 0.87608 0.0
H1207 H 0.53527 0.58376 0.86868 0.0
H1208 H 0.55444 0.60344 0.84646 0.0
H1209 H 0.52602 0.66675 0.96148 0.0
H1210 H 0.51086 0.63437 0.95908 0.0
H1211 H 0.54571 0.63815 0.963 0.0
H1212 H 0.50052 0.54756 0.94501 0.0
H1213 H 0.58372 0.55841 0.95594 0.0
H1214 H 0.49352 0.59363 0.89527 0.0
H1215 H 0.48565 0.60854 0.92629 0.0
H1216 H 0.47579 0.57485 0.91935 0.0
H1217 H 0.59265 0.61202 0.91162 0.0
H1218 H 0.60764 0.59403 0.93746 0.0
H1219 H 0.58928 0.6227 0.94511 0.0
C1220 C 0.49517 0.84667 0.8886 0.0
C1221 C 0.5028 0.84372 0.8623 0.0
C1222 C 0.49333 0.87164 0.90062 0.0
C1223 C 0.50027 0.89429 0.88633 0.0
C1224 C 0.50906 0.89131 0.86004 0.0
C1225 C 0.51008 0.86606 0.8483 0.0
C1226 C 0.48364 0.87377 0.92855 0.0
C1227 C 0.5174 0.9148 0.84434 0.0
C1228 C 0.47528 0.96026 0.91094 0.0
C1229 C 0.49639 0.96997 0.92663 0.0
C1230 C 0.47628 0.93579 0.89751 0.0
C1231 C 0.49917 0.92092 0.89932 0.0
C1232 C 0.5208 0.93107 0.9145 0.0
C1233 C 0.51902 0.95521 0.92817 0.0
C1234 C 0.45259 0.92556 0.88195 0.0
C1235 C 0.54583 0.91633 0.91649 0.0
H1236 H 0.49009 0.82935 0.89961 0.0
H1237 H 0.51628 0.86375 0.82805 0.0
H1238 H 0.49914 0.88312 0.94142 0.0
H1239 H 0.46643 0.88642 0.92947 0.0
H1240 H 0.47793 0.85437 0.93655 0.0
H1241 H 0.52429 0.90917 0.82437 0.0
H1242 H 0.50077 0.928 0.84232 0.0
H1243 H 0.53344 0.92614 0.85483 0.0
H1244 H 0.45769 0.97144 0.90972 0.0
H1245 H 0.53557 0.96269 0.93996 0.0
H1246 H 0.44491 0.90706 0.8905 0.0
H1247 H 0.45816 0.92094 0.86135 0.0
H1248 H 0.43664 0.93979 0.88179 0.0
H1249 H 0.54194 0.89755 0.92648 0.0
H1250 H 0.56146 0.92768 0.92761 0.0
H1251 H 0.55321 0.91148 0.89655 0.0
C1252 C 0.52286 0.35815 0.67412 0.0
C1253 C 0.52172 0.33684 0.65621 0.0
C1254 C 0.52843 0.38377 0.66564 0.0
C1255 C 0.53283 0.38813 0.63857 0.0
C1256 C 0.53213 0.36644 0.62053 0.0
C1257 C 0.52657 0.34106 0.62958 0.0
C1258 C 0.52894 0.40624 0.68552 0.0
C1259 C 0.53655 0.37011 0.59152 0.0
C1260 C 0.5145 0.45253 0.60915 0.0
C1261 C 0.53901 0.46504 0.60492 0.0
C1262 C 0.5123 0.42804 0.62086 0.0
C1263 C 0.53524 0.41544 0.62862 0.0
C1264 C 0.56012 0.42839 0.62537 0.0
C1265 C 0.56172 0.4531 0.61347 0.0
C1266 C 0.48538 0.41515 0.62388 0.0
C1267 C 0.58502 0.41568 0.63349 0.0
H1268 H 0.5193 0.35472 0.69476 0.0
H1269 H 0.52584 0.32445 0.61584 0.0
H1270 H 0.54734 0.41833 0.68371 0.0
H1271 H 0.51239 0.41912 0.68161 0.0
H1272 H 0.52737 0.3994 0.70602 0.0
H1273 H 0.53727 0.35114 0.5804 0.0
H1274 H 0.52047 0.38149 0.58325 0.0
H1275 H 0.55518 0.38146 0.5884 0.0
H1276 H 0.49686 0.4617 0.60255 0.0
H1277 H 0.58072 0.46245 0.60978 0.0
H1278 H 0.48229 0.40941 0.64454 0.0
H1279 H 0.48375 0.397 0.6114 0.0
H1280 H 0.46943 0.42816 0.61816 0.0
H1281 H 0.58392 0.41019 0.65442 0.0
H1282 H 0.60266 0.42875 0.63083 0.0
H1283 H 0.5874 0.39738 0.62166 0.0
C1284 C 0.46184 0.1505 0.61403 0.0
C1285 C 0.48435 0.15441 0.63003 0.0
C1286 C 0.45508 0.12587 0.60249 0.0
C1287 C 0.47168 0.10467 0.60609 0.0
C1288 C 0.49467 0.10846 0.62173 0.0
C1289 C 0.50053 0.13312 0.63376 0.0
C1290 C 0.43022 0.12261 0.58623 0.0
C1291 C 0.51332 0.08655 0.62543 0.0
C1292 C 0.44788 0.03418 0.5901 0.0
C1293 C 0.4565 0.0308 0.56418 0.0
C1294 C 0.4519 0.05835 0.60382 0.0
C1295 C 0.46609 0.07917 0.59177 0.0
C1296 C 0.47527 0.07566 0.5658 0.0
C1297 C 0.47 0.05179 0.55226 0.0
C1298 C 0.44113 0.06155 0.63123 0.0
C1299 C 0.49111 0.09697 0.55238 0.0
H1300 H 0.44941 0.16674 0.6103 0.0
H1301 H 0.5177 0.13555 0.64637 0.0
H1302 H 0.43515 0.11865 0.56533 0.0
H1303 H 0.41818 0.10556 0.59297 0.0
H1304 H 0.41819 0.14029 0.58735 0.0
H1305 H 0.53034 0.09263 0.63822 0.0
H1306 H 0.50289 0.06956 0.63428 0.0
H1307 H 0.52077 0.07982 0.60605 0.0
H1308 H 0.4387 0.01777 0.59991 0.0
H1309 H 0.47699 0.04946 0.53228 0.0
H1310 H 0.42916 0.07923 0.63258 0.0
H1311 H 0.45751 0.06443 0.64559 0.0
H1312 H 0.42879 0.04428 0.63697 0.0
H1313 H 0.47936 0.11468 0.55061 0.0
H1314 H 0.49755 0.09078 0.53242 0.0
H1315 H 0.50876 0.10267 0.56439 0.0
C1316 C 0.88978 0.49867 0.63986 0.0
C1317 C 0.87238 0.51564 0.65199 0.0
C1318 C 0.90143 0.50485 0.61568 0.0
C1319 C 0.896 0.52886 0.60367 0.0
C1320 C 0.87902 0.54642 0.61636 0.0
C1321 C 0.86713 0.53942 0.64018 0.0
C1322 C 0.9191 0.48538 0.60267 0.0
C1323 C 0.87322 0.57246 0.60467 0.0
C1324 C 0.94672 0.54901 0.55291 0.0
C1325 C 0.93456 0.54012 0.5294 0.0
C1326 C 0.93369 0.54714 0.57709 0.0
C1327 C 0.90813 0.53538 0.57783 0.0
C1328 C 0.89521 0.52775 0.55387 0.0
C1329 C 0.90859 0.53029 0.52989 0.0
C1330 C 0.94798 0.55621 0.60197 0.0
C1331 C 0.86803 0.51503 0.55371 0.0
H1332 H 0.89356 0.48017 0.64887 0.0
H1333 H 0.85359 0.55251 0.64961 0.0
H1334 H 0.91125 0.4796 0.58286 0.0
H1335 H 0.93894 0.49448 0.59995 0.0
H1336 H 0.92099 0.46744 0.61431 0.0
H1337 H 0.86092 0.58457 0.61778 0.0
H1338 H 0.89181 0.58361 0.60074 0.0
H1339 H 0.86285 0.56926 0.58555 0.0
H1340 H 0.967 0.55618 0.55254 0.0
H1341 H 0.89944 0.52286 0.51174 0.0
H1342 H 0.95358 0.53894 0.61323 0.0
H1343 H 0.93504 0.56799 0.6147 0.0
H1344 H 0.96606 0.56814 0.59781 0.0
H1345 H 0.8688 0.49541 0.56249 0.0
H1346 H 0.85972 0.51264 0.5335 0.0
H1347 H 0.85456 0.52676 0.56585 0.0
C1348 C 0.11877 0.00255 0.63738 0.0
C1349 C 0.13108 0.98478 0.65338 0.0
C1350 C 0.10691 0.99421 0.61339 0.0
C1351 C 0.10733 0.96743 0.60527 0.0
C1352 C 0.11956 0.94937 0.62162 0.0
C1353 C 0.13146 0.95832 0.64541 0.0
C1354 C 0.09425 0.01416 0.59652 0.0
C1355 C 0.1203 0.92068 0.61384 0.0
C1356 C 0.05301 0.94826 0.55652 0.0
C1357 C 0.06586 0.9504 0.53234 0.0
C1358 C 0.06667 0.95195 0.58042 0.0
C1359 C 0.09388 0.95841 0.58024 0.0
C1360 C 0.10735 0.95876 0.55588 0.0
C1361 C 0.09314 0.95462 0.53213 0.0
C1362 C 0.05157 0.95066 0.60582 0.0
C1363 C 0.13638 0.9654 0.55476 0.0
H1364 H 0.11911 0.0231 0.64331 0.0
H1365 H 0.14155 0.94473 0.6576 0.0
H1366 H 0.10344 0.01423 0.5768 0.0
H1367 H 0.07312 0.00884 0.59362 0.0
H1368 H 0.09606 0.03428 0.60534 0.0
H1369 H 0.13039 0.90914 0.62883 0.0
H1370 H 0.10004 0.91238 0.61097 0.0
H1371 H 0.13058 0.91832 0.59483 0.0
H1372 H 0.0319 0.94482 0.55671 0.0
H1373 H 0.10308 0.95653 0.51346 0.0
H1374 H 0.05032 0.97068 0.61463 0.0
H1375 H 0.06184 0.93863 0.62021 0.0
H1376 H 0.03132 0.9423 0.60278 0.0
H1377 H 0.13983 0.98665 0.55916 0.0
H1378 H 0.14461 0.96079 0.53507 0.0
H1379 H 0.1472 0.95462 0.56977 0.0
C1380 C 0.84394 0.48671 0.8529 0.0
C1381 C 0.85993 0.49546 0.83238 0.0
C1382 C 0.85443 0.48281 0.87812 0.0
C1383 C 0.88168 0.48732 0.88278 0.0
C1384 C 0.89791 0.49592 0.8619 0.0
C1385 C 0.88682 0.49992 0.83697 0.0
C1386 C 0.83636 0.47397 0.89979 0.0
C1387 C 0.92707 0.50075 0.86586 0.0
C1388 C 0.91014 0.5049 0.95045 0.0
C1389 C 0.92113 0.48139 0.95775 0.0
C1390 C 0.89589 0.5066 0.92689 0.0
C1391 C 0.89317 0.48441 0.90969 0.0
C1392 C 0.90321 0.46021 0.91755 0.0
C1393 C 0.9169 0.45892 0.94169 0.0
C1394 C 0.88488 0.53256 0.91984 0.0
C1395 C 0.90096 0.43613 0.89976 0.0
H1396 H 0.82319 0.48278 0.84911 0.0
H1397 H 0.89925 0.506 0.82086 0.0
H1398 H 0.84287 0.45522 0.90768 0.0
H1399 H 0.83717 0.48863 0.91629 0.0
H1400 H 0.81568 0.47122 0.89295 0.0
H1401 H 0.93711 0.5064 0.84743 0.0
H1402 H 0.93075 0.51661 0.8809 0.0
H1403 H 0.93599 0.48285 0.87327 0.0
H1404 H 0.91338 0.52228 0.96292 0.0
H1405 H 0.92565 0.44082 0.94719 0.0
H1406 H 0.86405 0.52986 0.91356 0.0
H1407 H 0.89591 0.54081 0.90305 0.0
H1408 H 0.88612 0.54703 0.93654 0.0
H1409 H 0.88055 0.43289 0.8924 0.0
H1410 H 0.90698 0.41827 0.90987 0.0
H1411 H 0.91368 0.439 0.88238 0.0
C1412 C 0.17893 0.03264 0.85169 0.0
C1413 C 0.16051 0.02429 0.83238 0.0
C1414 C 0.17113 0.03882 0.8776 0.0
C1415 C 0.14418 0.03698 0.88426 0.0
C1416 C 0.12551 0.02879 0.86459 0.0
C1417 C 0.13391 0.02252 0.83893 0.0
C1418 C 0.19173 0.04717 0.89787 0.0
C1419 C 0.09659 0.02664 0.87066 0.0
C1420 C 0.12105 0.02533 0.95414 0.0
C1421 C 0.11181 0.04986 0.96188 0.0
C1422 C 0.1329 0.02128 0.92958 0.0
C1423 C 0.13544 0.04224 0.912 0.0
C1424 C 0.12749 0.0675 0.92032 0.0
C1425 C 0.11563 0.07099 0.94515 0.0
C1426 C 0.14111 0.99406 0.9218 0.0
C1427 C 0.12999 0.09045 0.90234 0.0
H1428 H 0.19949 0.03438 0.84644 0.0
H1429 H 0.11965 0.01657 0.82382 0.0
H1430 H 0.18736 0.0667 0.90646 0.0
H1431 H 0.19143 0.03319 0.9142 0.0
H1432 H 0.21178 0.04813 0.88946 0.0
H1433 H 0.08453 0.02081 0.85304 0.0
H1434 H 0.09301 0.01195 0.88603 0.0
H1435 H 0.08988 0.04569 0.87855 0.0
H1436 H 0.11771 0.00884 0.96686 0.0
H1437 H 0.10777 0.08976 0.95066 0.0
H1438 H 0.16135 0.99472 0.91396 0.0
H1439 H 0.12795 0.98585 0.90593 0.0
H1440 H 0.14027 0.98056 0.93857 0.0
H1441 H 0.15028 0.09241 0.89472 0.0
H1442 H 0.125 0.10916 0.91241 0.0
H1443 H 0.11668 0.08705 0.88514 0.0
C1444 C 0.62683 0.84792 0.53435 0.0
C1445 C 0.64533 0.86043 0.51814 0.0
C1446 C 0.60179 0.85798 0.53816 0.0
C1447 C 0.59518 0.88141 0.52584 0.0
C1448 C 0.61405 0.89446 0.50996 0.0
C1449 C 0.63876 0.88365 0.50605 0.0
C1450 C 0.58215 0.84313 0.55476 0.0
C1451 C 0.60804 0.91977 0.49691 0.0
C1452 C 0.52478 0.89673 0.50886 0.0
C1453 C 0.51879 0.91503 0.52868 0.0
C1454 C 0.54902 0.88457 0.50859 0.0
C1455 C 0.56811 0.89152 0.52817 0.0
C1456 C 0.5617 0.9093 0.54886 0.0
C1457 C 0.53696 0.92072 0.54896 0.0
C1458 C 0.5546 0.86511 0.48666 0.0
C1459 C 0.5815 0.91755 0.56994 0.0
H1460 H 0.63174 0.82983 0.54357 0.0
H1461 H 0.65308 0.89352 0.49374 0.0
H1462 H 0.5746 0.85614 0.57054 0.0
H1463 H 0.5651 0.83632 0.54238 0.0
H1464 H 0.5907 0.82584 0.56392 0.0
H1465 H 0.62538 0.92844 0.48675 0.0
H1466 H 0.59199 0.91625 0.48226 0.0
H1467 H 0.60116 0.93423 0.51174 0.0
H1468 H 0.51071 0.89252 0.49308 0.0
H1469 H 0.53242 0.93524 0.56403 0.0
H1470 H 0.56242 0.847 0.49479 0.0
H1471 H 0.56979 0.87357 0.47352 0.0
H1472 H 0.53681 0.85975 0.47468 0.0
H1473 H 0.59061 0.9002 0.5783 0.0
H1474 H 0.57258 0.92908 0.58617 0.0
H1475 H 0.59745 0.92973 0.56115 0.0
C1476 C 0.66565 0.17227 0.97757 0.0
C1477 C 0.68608 0.1567 0.98571 0.0
C1478 C 0.64031 0.16132 0.97254 0.0
C1479 C 0.63543 0.13404 0.97528 0.0
C1480 C 0.6562 0.11823 0.9833 0.0
C1481 C 0.68127 0.12977 0.98846 0.0
C1482 C 0.61876 0.17896 0.96441 0.0
C1483 C 0.65197 0.08907 0.9863 0.0
C1484 C 0.56743 0.10562 0.99011 0.0
C1485 C 0.55932 0.0946 0.9657 0.0
C1486 C 0.59151 0.11959 0.99311 0.0
C1487 C 0.60836 0.12216 0.97128 0.0
C1488 C 0.59979 0.11202 0.94624 0.0
C1489 C 0.57517 0.09855 0.94368 0.0
C1490 C 0.59937 0.13061 0.01999 0.0
C1491 C 0.61723 0.11412 0.9225 0.0
H1492 H 0.66961 0.19304 0.97495 0.0
H1493 H 0.6973 0.11768 0.99406 0.0
H1494 H 0.61046 0.17222 0.94507 0.0
H1495 H 0.60257 0.17795 0.97884 0.0
H1496 H 0.6258 0.19971 0.96297 0.0
H1497 H 0.67034 0.07938 0.99166 0.0
H1498 H 0.63719 0.08518 0.00175 0.0
H1499 H 0.64415 0.07998 0.96765 0.0
H1500 H 0.55511 0.10269 0.00716 0.0
H1501 H 0.56903 0.08984 0.92485 0.0
H1502 H 0.60586 0.1515 0.01873 0.0
H1503 H 0.61617 0.11985 0.02768 0.0
H1504 H 0.58307 0.12908 0.03432 0.0
H1505 H 0.62471 0.13461 0.92033 0.0
H1506 H 0.60685 0.10755 0.90407 0.0
H1507 H 0.63451 0.10186 0.92519 0.0
C1508 C 0.36448 0.36955 0.01612 0.0
C1509 C 0.34773 0.3641 0.99435 0.0
C1510 C 0.39005 0.38038 0.01307 0.0
C1511 C 0.39985 0.38491 0.98757 0.0
C1512 C 0.38467 0.37611 0.96552 0.0
C1513 C 0.35924 0.36523 0.9692 0.0
C1514 C 0.40619 0.38806 0.03724 0.0
C1515 C 0.39481 0.37931 0.93792 0.0
C1516 C 0.44635 0.44443 0.9833 0.0
C1517 C 0.47103 0.43326 0.98302 0.0
C1518 C 0.42316 0.42879 0.98366 0.0
C1519 C 0.42456 0.40116 0.98409 0.0
C1520 C 0.44947 0.38968 0.98269 0.0
C1521 C 0.47246 0.40593 0.98231 0.0
C1522 C 0.39714 0.44196 0.98466 0.0
C1523 C 0.4521 0.36038 0.98312 0.0
H1524 H 0.35799 0.36555 0.03576 0.0
H1525 H 0.34855 0.35785 0.95203 0.0
H1526 H 0.42587 0.3796 0.03589 0.0
H1527 H 0.40913 0.4097 0.03848 0.0
H1528 H 0.39671 0.38149 0.05565 0.0
H1529 H 0.38172 0.36934 0.92292 0.0
H1530 H 0.39651 0.40046 0.93351 0.0
H1531 H 0.41471 0.3714 0.93612 0.0
H1532 H 0.44521 0.46559 0.98399 0.0
H1533 H 0.49154 0.39728 0.98291 0.0
H1534 H 0.38745 0.43798 0.00369 0.0
H1535 H 0.38394 0.43384 0.96878 0.0
H1536 H 0.39933 0.46352 0.98255 0.0
H1537 H 0.4511 0.35396 0.00377 0.0
H1538 H 0.47117 0.35446 0.97487 0.0
H1539 H 0.436 0.34989 0.97194 0.0
C1540 C 0.87287 0.12484 0.00444 0.0
C1541 C 0.86844 0.1513 0.01044 0.0
C1542 C 0.89695 0.1137 0.01069 0.0
C1543 C 0.91742 0.12946 0.0227 0.0
C1544 C 0.91272 0.1558 0.02982 0.0
C1545 C 0.88826 0.16619 0.02406 0.0
C1546 C 0.90086 0.08527 0.00348 0.0
C1547 C 0.93397 0.17346 0.04234 0.0
C1548 C 0.97794 0.09647 0.04949 0.0
C1549 C 0.99439 0.09693 0.02755 0.0
C1550 C 0.95294 0.1074 0.04853 0.0
C1551 C 0.94446 0.11927 0.02517 0.0
C1552 C 0.96172 0.1209 0.00352 0.0
C1553 C 0.98625 0.10942 0.00487 0.0
C1554 C 0.93511 0.10489 0.07194 0.0
C1555 C 0.95394 0.13402 0.97851 0.0
H1556 H 0.85791 0.11297 0.99403 0.0
H1557 H 0.88493 0.18633 0.0299 0.0
H1558 H 0.91492 0.0839 0.987 0.0
H1559 H 0.90938 0.0751 0.02037 0.0
H1560 H 0.88221 0.07484 0.9974 0.0
H1561 H 0.92668 0.19292 0.0484 0.0
H1562 H 0.94236 0.16422 0.05984 0.0
H1563 H 0.95018 0.17648 0.02816 0.0
H1564 H 0.98392 0.08618 0.06677 0.0
H1565 H 0.99891 0.10961 0.98783 0.0
H1566 H 0.9187 0.09072 0.06697 0.0
H1567 H 0.92638 0.12391 0.077 0.0
H1568 H 0.94559 0.09794 0.08952 0.0
H1569 H 0.93725 0.12283 0.96896 0.0
H1570 H 0.97033 0.13535 0.96427 0.0
H1571 H 0.94733 0.15408 0.98305 0.0
C1572 C 0.03385 0.18012 0.20679 0.0
C1573 C 0.01855 0.20217 0.20982 0.0
C1574 C 0.03692 0.16787 0.182 0.0
C1575 C 0.02336 0.17713 0.15984 0.0
C1576 C 0.00687 0.19868 0.16307 0.0
C1577 C 0.00505 0.21123 0.18792 0.0
C1578 C 0.05521 0.14537 0.17945 0.0
C1579 C 0.99129 0.20855 0.14028 0.0
C1580 C 0.05713 0.16191 0.09548 0.0
C1581 C 0.04597 0.1371 0.08855 0.0
C1582 C 0.04887 0.17594 0.1178 0.0
C1583 C 0.02821 0.1654 0.13316 0.0
C1584 C 0.01469 0.14195 0.12441 0.0
C1585 C 0.02394 0.12786 0.10236 0.0
C1586 C 0.06414 0.20064 0.12639 0.0
C1587 C 0.99179 0.13064 0.13953 0.0
H1588 H 0.04369 0.17265 0.22384 0.0
H1589 H 0.99285 0.22805 0.19035 0.0
H1590 H 0.04431 0.12755 0.1718 0.0
H1591 H 0.07089 0.15017 0.16514 0.0
H1592 H 0.06456 0.1408 0.1985 0.0
H1593 H 0.97713 0.22342 0.14666 0.0
H1594 H 0.00476 0.2175 0.12574 0.0
H1595 H 0.98035 0.19202 0.13007 0.0
H1596 H 0.07402 0.16936 0.08478 0.0
H1597 H 0.01527 0.10869 0.09735 0.0
H1598 H 0.0756 0.19685 0.14445 0.0
H1599 H 0.05071 0.21659 0.13128 0.0
H1600 H 0.07797 0.20755 0.11105 0.0
H1601 H 0.99916 0.12087 0.1572 0.0
H1602 H 0.9801 0.11592 0.12746 0.0
H1603 H 0.97875 0.14631 0.14633 0.0
C1604 C 0.0194 0.32897 0.182 0.0
C1605 C 0.0016 0.33363 0.20234 0.0
C1606 C 0.01919 0.34365 0.15907 0.0
C1607 C 0.00101 0.36372 0.15668 0.0
C1608 C 0.98355 0.36903 0.17757 0.0
C1609 C 0.98386 0.3537 0.20006 0.0
C1610 C 0.03769 0.33703 0.13704 0.0
C1611 C 0.96411 0.39053 0.17594 0.0
C1612 C 0.00658 0.41669 0.10568 0.0
C1613 C 0.98612 0.40858 0.08854 0.0
C1614 C 0.01279 0.40154 0.12742 0.0
C1615 C 0.99846 0.37769 0.13156 0.0
C1616 C 0.97946 0.36844 0.1128 0.0
C1617 C 0.97331 0.38418 0.09169 0.0
C1618 C 0.03305 0.41217 0.14707 0.0
C1619 C 0.96419 0.34283 0.11603 0.0
H1620 H 0.033 0.31326 0.18371 0.0
H1621 H 0.9703 0.35744 0.21593 0.0
H1622 H 0.02626 0.32901 0.11981 0.0
H1623 H 0.04858 0.35492 0.13063 0.0
H1624 H 0.05206 0.32236 0.14283 0.0
H1625 H 0.95351 0.39361 0.19471 0.0
H1626 H 0.9743 0.40923 0.17072 0.0
H1627 H 0.94946 0.38554 0.16019 0.0
H1628 H 0.01617 0.43578 0.10338 0.0
H1629 H 0.95742 0.37802 0.07836 0.0
H1630 H 0.0461 0.39654 0.15328 0.0
H1631 H 0.02296 0.41955 0.1649 0.0
H1632 H 0.04525 0.42851 0.13903 0.0
H1633 H 0.97761 0.32697 0.12073 0.0
H1634 H 0.9527 0.33689 0.09807 0.0
H1635 H 0.95037 0.34478 0.13266 0.0
C1636 C 0.01551 0.82482 0.28073 0.0
C1637 C 0.00834 0.79812 0.27948 0.0
C1638 C 0.0153 0.83901 0.30468 0.0
C1639 C 0.00731 0.82622 0.32785 0.0
C1640 C 0.99923 0.79938 0.32647 0.0
C1641 C -0.00014 0.7856 0.3022 0.0
C1642 C 0.02428 0.86753 0.30525 0.0
C1643 C 0.99038 0.78518 0.35067 0.0
C1644 C 0.03965 0.85766 0.38818 0.0
C1645 C 0.02099 0.87559 0.39635 0.0
C1646 C 0.03473 0.84024 0.36694 0.0
C1647 C 0.01029 0.8404 0.3537 0.0
C1648 C 0.99034 0.85663 0.36348 0.0
C1649 C 0.99597 0.87424 0.38477 0.0
C1650 C 0.05667 0.8235 0.35719 0.0
C1651 C 0.96382 0.85691 0.35021 0.0
H1652 H 0.02129 0.83457 0.26288 0.0
H1653 H 0.99369 0.76506 0.30091 0.0
H1654 H 0.009 0.87975 0.31421 0.0
H1655 H 0.04224 0.8703 0.31761 0.0
H1656 H 0.02867 0.87481 0.2853 0.0
H1657 H 0.9826 0.76499 0.34591 0.0
H1658 H 0.0071 0.78396 0.3646 0.0
H1659 H 0.97496 0.7962 0.36093 0.0
H1660 H 0.05896 0.85852 0.3973 0.0
H1661 H 0.98154 0.88814 0.39099 0.0
H1662 H 0.0641 0.83109 0.33829 0.0
H1663 H 0.04947 0.80299 0.35344 0.0
H1664 H 0.07333 0.82347 0.37137 0.0
H1665 H 0.96556 0.8678 0.33168 0.0
H1666 H 0.94914 0.86653 0.36287 0.0
H1667 H 0.95653 0.83669 0.345 0.0
C1668 C 0.98804 0.66395 0.2903 0.0
C1669 C 0.00819 0.66627 0.27169 0.0
C1670 C 0.9905 0.64822 0.31234 0.0
C1671 C 0.01428 0.63552 0.31688 0.0
C1672 C 0.03472 0.63763 0.2984 0.0
C1673 C 0.03109 0.65216 0.27567 0.0
C1674 C 0.96766 0.64553 0.33098 0.0
C1675 C 0.0607 0.62517 0.30299 0.0
C1676 C 0.01776 0.6197 0.38892 0.0
C1677 C 0.00837 0.59363 0.38816 0.0
C1678 C 0.02306 0.63285 0.3655 0.0
C1679 C 0.01732 0.61993 0.34099 0.0
C1680 C 0.01032 0.59284 0.34029 0.0
C1681 C 0.00667 0.57985 0.364 0.0
C1682 C 0.03212 0.66129 0.36708 0.0
C1683 C 0.00288 0.57839 0.31487 0.0
H1684 H 0.9704 0.67486 0.28818 0.0
H1685 H 0.04658 0.6526 0.26126 0.0
H1686 H 0.96324 0.62456 0.33489 0.0
H1687 H 0.97277 0.6555 0.35006 0.0
H1688 H 0.94964 0.6542 0.32313 0.0
H1689 H 0.07495 0.6293 0.28708 0.0
H1690 H 0.06933 0.63259 0.32198 0.0
H1691 H 0.05784 0.60364 0.30444 0.0
H1692 H 0.01872 0.63044 0.4076 0.0
H1693 H 0.99876 0.55982 0.36346 0.0
H1694 H 0.01504 0.67383 0.36445 0.0
H1695 H 0.04635 0.6658 0.35126 0.0
H1696 H 0.0414 0.66652 0.38643 0.0
H1697 H 0.98284 0.58379 0.30893 0.0
H1698 H 0.00282 0.5568 0.31704 0.0
H1699 H 0.01632 0.58381 0.29873 0.0
C1700 C 0.20518 0.99711 0.19941 0.0
C1701 C 0.22656 0.0137 0.1929 0.0
C1702 C 0.18156 0.99708 0.18503 0.0
C1703 C 0.17885 0.01501 0.16453 0.0
C1704 C 0.20034 0.03204 0.15813 0.0
C1705 C 0.22416 0.03061 0.17189 0.0
C1706 C 0.15966 0.9777 0.19154 0.0
C1707 C 0.19812 0.05202 0.13692 0.0
C1708 C 0.1284 0.01281 0.10934 0.0
C1709 C 0.11078 0.03126 0.11868 0.0
C1710 C 0.14929 0.00507 0.12523 0.0
C1711 C 0.15332 0.01708 0.15045 0.0
C1712 C 0.1344 0.03406 0.1607 0.0
C1713 C 0.11302 0.04037 0.14493 0.0
C1714 C 0.16821 0.98574 0.11411 0.0
C1715 C 0.1382 0.04796 0.18713 0.0
H1716 H 0.20722 0.98369 0.21541 0.0
H1717 H 0.24093 0.04282 0.1663 0.0
H1718 H 0.14264 0.98818 0.19943 0.0
H1719 H 0.15287 0.96677 0.17345 0.0
H1720 H 0.1658 0.96343 0.20629 0.0
H1721 H 0.2161 0.06485 0.13554 0.0
H1722 H 0.19458 0.04195 0.11758 0.0
H1723 H 0.18117 0.06452 0.14088 0.0
H1724 H 0.12714 0.00588 0.08902 0.0
H1725 H 0.09945 0.0546 0.15234 0.0
H1726 H 0.17516 0.97267 0.12958 0.0
H1727 H 0.18559 0.9965 0.1062 0.0
H1728 H 0.1591 0.97354 0.09785 0.0
H1729 H 0.14302 0.03394 0.20254 0.0
H1730 H 0.12054 0.05856 0.1933 0.0
H1731 H 0.15497 0.06237 0.18602 0.0
C1732 C 0.78797 0.49453 0.15339 0.0
C1733 C 0.7906 0.49326 0.18069 0.0
C1734 C 0.81025 0.49579 0.13731 0.0
C1735 C 0.83561 0.49575 0.14897 0.0
C1736 C 0.83818 0.49565 0.17672 0.0
C1737 C 0.81559 0.49438 0.19226 0.0
C1738 C 0.80665 0.49582 0.10784 0.0
C1739 C 0.86477 0.49542 0.18994 0.0
C1740 C 0.88721 0.46017 0.11084 0.0
C1741 C 0.90306 0.48056 0.1008 0.0
C1742 C 0.86541 0.46499 0.1264 0.0
C1743 C 0.85893 0.49109 0.1323 0.0
C1744 C 0.8747 0.51203 0.12243 0.0
C1745 C 0.89667 0.50651 0.10673 0.0
C1746 C 0.84913 0.44196 0.13629 0.0
C1747 C 0.86839 0.54015 0.12846 0.0
H1748 H 0.7685 0.49406 0.14465 0.0
H1749 H 0.81739 0.49377 0.2135 0.0
H1750 H 0.81966 0.51112 0.09914 0.0
H1751 H 0.81221 0.47663 0.09925 0.0
H1752 H 0.78604 0.49925 0.10206 0.0
H1753 H 0.86353 0.49862 0.21158 0.0
H1754 H 0.87367 0.47623 0.18598 0.0
H1755 H 0.87813 0.51076 0.18183 0.0
H1756 H 0.89131 0.4401 0.10617 0.0
H1757 H 0.90861 0.5224 0.099 0.0
H1758 H 0.82865 0.44281 0.12896 0.0
H1759 H 0.84849 0.44277 0.15809 0.0
H1760 H 0.85695 0.42281 0.12993 0.0
H1761 H 0.84747 0.54345 0.12393 0.0
H1762 H 0.88084 0.55408 0.11718 0.0
H1763 H 0.87146 0.54454 0.14976 0.0
C1764 C 0.20252 0.9683 0.33675 0.0
C1765 C 0.20915 0.98989 0.32136 0.0
C1766 C 0.17842 0.96667 0.35001 0.0
C1767 C 0.16041 0.987 0.34763 0.0
C1768 C 0.16719 0.00902 0.33247 0.0
C1769 C 0.19142 0.01018 0.31953 0.0
C1770 C 0.17198 0.9429 0.3661 0.0
C1771 C 0.1485 0.03097 0.3292 0.0
C1772 C 0.08916 0.96538 0.3562 0.0
C1773 C 0.08449 0.97297 0.38238 0.0
C1774 C 0.11341 0.97083 0.34436 0.0
C1775 C 0.13366 0.9841 0.35914 0.0
C1776 C 0.1286 0.99322 0.38513 0.0
C1777 C 0.10396 0.98761 0.39647 0.0
C1778 C 0.11778 0.96104 0.3165 0.0
C1779 C 0.14967 0.0075 0.40148 0.0
H1780 H 0.21622 0.95271 0.3385 0.0
H1781 H 0.1962 0.02677 0.30736 0.0
H1782 H 0.16624 0.94902 0.38629 0.0
H1783 H 0.15501 0.93165 0.35713 0.0
H1784 H 0.18874 0.92971 0.36746 0.0
H1785 H 0.15757 0.04772 0.31862 0.0
H1786 H 0.13088 0.02357 0.31799 0.0
H1787 H 0.14171 0.03816 0.34867 0.0
H1788 H 0.07414 0.95396 0.34532 0.0
H1789 H 0.10057 0.99321 0.41684 0.0
H1790 H 0.13244 0.94552 0.31649 0.0
H1791 H 0.12577 0.97714 0.30436 0.0
H1792 H 0.09944 0.95284 0.30707 0.0
H1793 H 0.16527 0.99377 0.40626 0.0
H1794 H 0.14188 0.01572 0.42017 0.0
H1795 H 0.15896 0.02367 0.39027 0.0
C1796 C 0.79433 0.47284 0.33472 0.0
C1797 C 0.79235 0.48679 0.31145 0.0
C1798 C 0.8183 0.47144 0.34813 0.0
C1799 C 0.84032 0.48653 0.33959 0.0
C1800 C 0.83816 0.50155 0.31662 0.0
C1801 C 0.81442 0.50081 0.30238 0.0
C1802 C 0.81945 0.45409 0.37167 0.0
C1803 C 0.86051 0.51924 0.30759 0.0
C1804 C 0.88778 0.51137 0.39287 0.0
C1805 C 0.91134 0.50083 0.38451 0.0
C1806 C 0.86449 0.50659 0.37861 0.0
C1807 C 0.86439 0.48934 0.35635 0.0
C1808 C 0.88767 0.47643 0.34946 0.0
C1809 C 0.91123 0.48315 0.36305 0.0
C1810 C 0.84054 0.52146 0.38646 0.0
C1811 C 0.88818 0.45641 0.32716 0.0
H1812 H 0.7771 0.46272 0.34245 0.0
H1813 H 0.81279 0.51189 0.28458 0.0
H1814 H 0.83979 0.44929 0.37711 0.0
H1815 H 0.8102 0.46396 0.38873 0.0
H1816 H 0.80799 0.43548 0.36765 0.0
H1817 H 0.85435 0.53238 0.2918 0.0
H1818 H 0.86858 0.53149 0.32431 0.0
H1819 H 0.87652 0.50721 0.29988 0.0
H1820 H 0.88809 0.52536 0.4093 0.0
H1821 H 0.92956 0.47524 0.35644 0.0
H1822 H 0.82576 0.50785 0.3951 0.0
H1823 H 0.83145 0.53025 0.36903 0.0
H1824 H 0.84526 0.53736 0.40125 0.0
H1825 H 0.9031 0.44163 0.33091 0.0
H1826 H 0.89372 0.46629 0.30875 0.0
H1827 H 0.86879 0.44614 0.32411 0.0
C1828 C 0.1988 0.22185 0.0123 0.0
C1829 C 0.22481 0.22428 0.00389 0.0
C1830 C 0.1857 0.19726 0.01289 0.0
C1831 C 0.19877 0.1746 0.00429 0.0
C1832 C 0.22464 0.17721 0.99443 0.0
C1833 C 0.23743 0.2021 0.99444 0.0
C1834 C 0.15821 0.19548 0.02372 0.0
C1835 C 0.23896 0.15367 0.98441 0.0
C1836 C 0.17533 0.11426 0.0398 0.0
C1837 C 0.15425 0.10487 0.02375 0.0
C1838 C 0.19085 0.13617 0.03302 0.0
C1839 C 0.18634 0.14822 0.00878 0.0
C1840 C 0.16739 0.13682 0.99095 0.0
C1841 C 0.1511 0.11561 0.9989 0.0
C1842 C 0.21019 0.14798 0.05309 0.0
C1843 C 0.16294 0.14813 0.96427 0.0
H1844 H 0.18887 0.23924 0.01881 0.0
H1845 H 0.25736 0.20424 0.9873 0.0
H1846 H 0.14467 0.18567 0.00909 0.0
H1847 H 0.15791 0.18344 0.04158 0.0
H1848 H 0.15063 0.21504 0.02896 0.0
H1849 H 0.25751 0.15936 0.97437 0.0
H1850 H 0.24376 0.14105 0.00106 0.0
H1851 H 0.22627 0.14173 0.97052 0.0
H1852 H 0.17831 0.10598 0.05895 0.0
H1853 H 0.13503 0.10855 0.98632 0.0
H1854 H 0.20323 0.16719 0.06033 0.0
H1855 H 0.22967 0.15159 0.04409 0.0
H1856 H 0.21262 0.13526 0.07026 0.0
H1857 H 0.1497 0.16481 0.96624 0.0
H1858 H 0.1536 0.13333 0.95044 0.0
H1859 H 0.18165 0.15555 0.95571 0.0
C1860 C 0.18364 0.80028 0.46608 0.0
C1861 C 0.1706 0.7777 0.4752 0.0
C1862 C 0.17093 0.82412 0.46505 0.0
C1863 C 0.14444 0.82534 0.47306 0.0
C1864 C 0.13113 0.80253 0.48213 0.0
C1865 C 0.14444 0.779 0.48326 0.0
C1866 C 0.18584 0.848 0.45529 0.0
C1867 C 0.10278 0.80294 0.49044 0.0
C1868 C 0.11771 0.89302 0.4872 0.0
C1869 C 0.10595 0.8981 0.46304 0.0
C1870 C 0.13 0.86914 0.49104 0.0
C1871 C 0.13026 0.85007 0.47023 0.0
C1872 C 0.11765 0.85495 0.44611 0.0
C1873 C 0.10566 0.87885 0.44287 0.0
C1874 C 0.14324 0.86458 0.51705 0.0
C1875 C 0.11718 0.83511 0.42351 0.0
H1876 H 0.20404 0.79944 0.46037 0.0
H1877 H 0.13438 0.76154 0.49037 0.0
H1878 H 0.17652 0.85467 0.43699 0.0
H1879 H 0.18511 0.86431 0.47007 0.0
H1880 H 0.20672 0.8441 0.45115 0.0
H1881 H 0.09557 0.78377 0.49795 0.0
H1882 H 0.1003 0.81824 0.50601 0.0
H1883 H 0.0903 0.808 0.4735 0.0
H1884 H 0.11781 0.90789 0.50281 0.0
H1885 H 0.09613 0.88245 0.42436 0.0
H1886 H 0.16461 0.86262 0.51405 0.0
H1887 H 0.13558 0.84598 0.52537 0.0
H1888 H 0.14027 0.8808 0.53159 0.0
H1889 H 0.13751 0.8306 0.41779 0.0
H1890 H 0.10675 0.84211 0.40595 0.0
H1891 H 0.1074 0.81652 0.42965 0.0
C1892 C 0.81237 0.67916 0.48418 0.0
C1893 C 0.82278 0.70285 0.49505 0.0
C1894 C 0.82736 0.65667 0.48298 0.0
C1895 C 0.8535 0.65792 0.49271 0.0
C1896 C 0.86362 0.6814 0.50498 0.0
C1897 C 0.84815 0.70358 0.50598 0.0
C1898 C 0.81577 0.63204 0.46978 0.0
C1899 C 0.89141 0.68368 0.51542 0.0
C1900 C 0.89124 0.59446 0.49197 0.0
C1901 C 0.90267 0.59559 0.46707 0.0
C1902 C 0.87553 0.61495 0.50119 0.0
C1903 C 0.8716 0.63684 0.48511 0.0
C1904 C 0.88427 0.63839 0.46056 0.0
C1905 C 0.89953 0.61783 0.45194 0.0
C1906 C 0.86242 0.61273 0.52756 0.0
C1907 C 0.88106 0.66141 0.44283 0.0
H1908 H 0.79254 0.67829 0.47629 0.0
H1909 H 0.85635 0.72183 0.51443 0.0
H1910 H 0.82498 0.62914 0.45026 0.0
H1911 H 0.81988 0.61467 0.48158 0.0
H1912 H 0.79422 0.63296 0.46685 0.0
H1913 H 0.89483 0.70147 0.52819 0.0
H1914 H 0.89611 0.66618 0.52676 0.0
H1915 H 0.90523 0.68473 0.49869 0.0
H1916 H 0.89372 0.57732 0.50367 0.0
H1917 H 0.90882 0.61897 0.43285 0.0
H1918 H 0.84095 0.60961 0.52462 0.0
H1919 H 0.86557 0.63118 0.53935 0.0
H1920 H 0.86982 0.5962 0.53891 0.0
H1921 H 0.86021 0.66246 0.4367 0.0
H1922 H 0.89323 0.66002 0.42484 0.0
H1923 H 0.88658 0.68001 0.45354 0.0
C1924 C 0.27688 0.80315 0.4871 0.0
C1925 C 0.28598 0.78482 0.5047 0.0
C1926 C 0.28935 0.82807 0.48537 0.0
C1927 C 0.31124 0.83473 0.50182 0.0
C1928 C 0.32027 0.81623 0.5198 0.0
C1929 C 0.30778 0.79138 0.52068 0.0
C1930 C 0.27952 0.84697 0.46558 0.0
C1931 C 0.3433 0.82257 0.53802 0.0
C1932 C 0.36508 0.88667 0.49356 0.0
C1933 C 0.35867 0.90437 0.51381 0.0
C1934 C 0.34814 0.86503 0.48707 0.0
C1935 C 0.32453 0.86119 0.50129 0.0
C1936 C 0.3165 0.881 0.5191 0.0
C1937 C 0.33358 0.9025 0.52492 0.0
C1938 C 0.35699 0.8448 0.46724 0.0
C1939 C 0.29154 0.87787 0.53471 0.0
H1940 H 0.26042 0.79768 0.47423 0.0
H1941 H 0.31539 0.77682 0.53355 0.0
H1942 H 0.27506 0.86589 0.47543 0.0
H1943 H 0.29505 0.85111 0.45094 0.0
H1944 H 0.26163 0.83918 0.45502 0.0
H1945 H 0.34731 0.80625 0.55132 0.0
H1946 H 0.36118 0.82684 0.52637 0.0
H1947 H 0.3395 0.84033 0.55023 0.0
H1948 H 0.38439 0.88806 0.4848 0.0
H1949 H 0.32844 0.91638 0.54038 0.0
H1950 H 0.34017 0.83661 0.45532 0.0
H1951 H 0.36566 0.82839 0.47774 0.0
H1952 H 0.37206 0.85315 0.45386 0.0
H1953 H 0.27507 0.87014 0.52208 0.0
H1954 H 0.28589 0.89669 0.54411 0.0
H1955 H 0.29451 0.86358 0.55042 0.0
C1956 C 0.48611 0.68141 0.72723 0.0
C1957 C 0.49599 0.70737 0.72668 0.0
C1958 C 0.48704 0.66479 0.70489 0.0
C1959 C 0.49937 0.67392 0.68185 0.0
C1960 C 0.50865 0.7004 0.68096 0.0
C1961 C 0.50667 0.71688 0.70338 0.0
C1962 C 0.47638 0.63693 0.70653 0.0
C1963 C 0.52243 0.71081 0.65702 0.0
C1964 C 0.53921 0.62413 0.64517 0.0
C1965 C 0.52469 0.61935 0.62192 0.0
C1966 C 0.53105 0.64175 0.66461 0.0
C1967 C 0.50729 0.65469 0.66111 0.0
C1968 C 0.49197 0.6494 0.638 0.0
C1969 C 0.50098 0.63181 0.61844 0.0
C1970 C 0.54839 0.64707 0.68856 0.0
C1971 C 0.46622 0.66235 0.6339 0.0
H1972 H 0.47834 0.67386 0.74543 0.0
H1973 H 0.51449 0.73691 0.70309 0.0
H1974 H 0.4653 0.631 0.68834 0.0
H1975 H 0.49288 0.62353 0.70843 0.0
H1976 H 0.4633 0.63431 0.72372 0.0
H1977 H 0.5255 0.73246 0.65818 0.0
H1978 H 0.54186 0.70186 0.65521 0.0
H1979 H 0.51105 0.70538 0.63891 0.0
H1980 H 0.55762 0.6145 0.64783 0.0
H1981 H 0.49005 0.62854 0.60026 0.0
H1982 H 0.53766 0.64171 0.70664 0.0
H1983 H 0.55386 0.66828 0.69035 0.0
H1984 H 0.56669 0.63594 0.68778 0.0
H1985 H 0.45127 0.65339 0.64699 0.0
H1986 H 0.45913 0.65999 0.61325 0.0
H1987 H 0.46794 0.68356 0.63916 0.0
C1988 C 0.47834 0.84874 0.70611 0.0
C1989 C 0.49757 0.83099 0.71244 0.0
C1990 C 0.47657 0.85872 0.68072 0.0
C1991 C 0.49457 0.85091 0.66114 0.0
C1992 C 0.51474 0.83392 0.66769 0.0
C1993 C 0.51587 0.82401 0.69316 0.0
C1994 C 0.45479 0.87691 0.67459 0.0
C1995 C 0.53446 0.82533 0.64753 0.0
C1996 C 0.46405 0.85348 0.59347 0.0
C1997 C 0.47147 0.87898 0.5862 0.0
C1998 C 0.47317 0.84319 0.61696 0.0
C1999 C 0.49045 0.85865 0.63341 0.0
C2000 C 0.50066 0.88299 0.6245 0.0
C2001 C 0.49099 0.89294 0.60094 0.0
C2002 C 0.46206 0.81695 0.62544 0.0
C2003 C 0.5198 0.89972 0.64099 0.0
H2004 H 0.46443 0.85461 0.72095 0.0
H2005 H 0.53061 0.81001 0.69764 0.0
H2006 H 0.46301 0.89522 0.66613 0.0
H2007 H 0.44129 0.86746 0.65967 0.0
H2008 H 0.44323 0.88211 0.69229 0.0
H2009 H 0.5513 0.81572 0.65671 0.0
H2010 H 0.52482 0.81122 0.63325 0.0
H2011 H 0.54204 0.84229 0.63629 0.0
H2012 H 0.44922 0.84243 0.58199 0.0
H2013 H 0.49692 0.91265 0.59548 0.0
H2014 H 0.44806 0.81999 0.64176 0.0
H2015 H 0.47785 0.8047 0.63289 0.0
H2016 H 0.45154 0.80602 0.60914 0.0
H2017 H 0.50898 0.91001 0.65678 0.0
H2018 H 0.53022 0.91468 0.62906 0.0
H2019 H 0.5345 0.88754 0.65055 0.0
C2020 C 0.50021 0.35166 0.80538 0.0
C2021 C 0.51406 0.3285 0.80264 0.0
C2022 C 0.49995 0.36577 0.82939 0.0
C2023 C 0.51426 0.35678 0.85106 0.0
C2024 C 0.52777 0.33311 0.84863 0.0
C2025 C 0.52745 0.31922 0.82446 0.0
C2026 C 0.48528 0.39089 0.83121 0.0
C2027 C 0.5435 0.32302 0.87124 0.0
C2028 C 0.54626 0.40661 0.89809 0.0
C2029 C 0.53164 0.40313 0.92103 0.0
C2030 C 0.5402 0.39221 0.87504 0.0
C2031 C 0.51863 0.37404 0.87475 0.0
C2032 C 0.5027 0.37153 0.8974 0.0
C2033 C 0.50959 0.38604 0.92056 0.0
C2034 C 0.55785 0.39547 0.85148 0.0
C2035 C 0.47917 0.35277 0.89755 0.0
H2036 H 0.48995 0.35909 0.78857 0.0
H2037 H 0.53767 0.30103 0.82266 0.0
H2038 H 0.4734 0.39155 0.84939 0.0
H2039 H 0.4995 0.40786 0.83226 0.0
H2040 H 0.47214 0.39318 0.81398 0.0
H2041 H 0.5509 0.30319 0.86692 0.0
H2042 H 0.56054 0.33663 0.87554 0.0
H2043 H 0.5314 0.32223 0.88925 0.0
H2044 H 0.56336 0.41988 0.89855 0.0
H2045 H 0.49849 0.38316 0.93834 0.0
H2046 H 0.54615 0.40009 0.83385 0.0
H2047 H 0.56769 0.37685 0.84709 0.0
H2048 H 0.57321 0.41125 0.85471 0.0
H2049 H 0.467 0.3549 0.87961 0.0
H2050 H 0.46677 0.3559 0.91515 0.0
H2051 H 0.48585 0.33235 0.89743 0.0
C2052 C 0.48603 0.17177 0.78025 0.0
C2053 C 0.49557 0.19778 0.78064 0.0
C2054 C 0.48654 0.15691 0.80308 0.0
C2055 C 0.49684 0.16844 0.82684 0.0
C2056 C 0.50643 0.19484 0.82725 0.0
C2057 C 0.50579 0.20917 0.80405 0.0
C2058 C 0.47614 0.12885 0.80175 0.0
C2059 C 0.51731 0.20792 0.85216 0.0
C2060 C 0.47127 0.13524 0.88775 0.0
C2061 C 0.4915 0.11843 0.89361 0.0
C2062 C 0.47342 0.15269 0.86702 0.0
C2063 C 0.49628 0.15311 0.85143 0.0
C2064 C 0.51747 0.13726 0.8582 0.0
C2065 C 0.5149 0.12016 0.87943 0.0
C2066 C 0.45055 0.16953 0.86088 0.0
C2067 C 0.54213 0.13708 0.84199 0.0
H2068 H 0.47859 0.16296 0.76191 0.0
H2069 H 0.51353 0.22924 0.80406 0.0
H2070 H 0.49153 0.11561 0.80828 0.0
H2071 H 0.4593 0.12639 0.81528 0.0
H2072 H 0.46959 0.1226 0.7816 0.0
H2073 H 0.5242 0.2285 0.84911 0.0
H2074 H 0.50205 0.20782 0.8676 0.0
H2075 H 0.53396 0.19683 0.85968 0.0
H2076 H 0.4532 0.13403 0.89885 0.0
H2077 H 0.53044 0.10698 0.88378 0.0
H2078 H 0.4412 0.16262 0.84206 0.0
H2079 H 0.45739 0.19018 0.8584 0.0
H2080 H 0.43544 0.16895 0.87651 0.0
H2081 H 0.53762 0.12786 0.8224 0.0
H2082 H 0.55784 0.12605 0.85147 0.0
H2083 H 0.54962 0.15738 0.8387 0.0
C2084 C 0.71511 0.4927 0.68581 0.0
C2085 C 0.71853 0.49901 0.71259 0.0
C2086 C 0.6905 0.49434 0.67362 0.0
C2087 C 0.66896 0.50296 0.68854 0.0
C2088 C 0.67221 0.50842 0.71589 0.0
C2089 C 0.69707 0.50647 0.72759 0.0
C2090 C 0.68797 0.48842 0.64446 0.0
C2091 C 0.64977 0.51769 0.73245 0.0
C2092 C 0.62167 0.54446 0.65223 0.0
C2093 C 0.60031 0.52696 0.64702 0.0
C2094 C 0.64387 0.53678 0.66578 0.0
C2095 C 0.64479 0.51088 0.67474 0.0
C2096 C 0.62316 0.49304 0.66988 0.0
C2097 C 0.60114 0.50126 0.65574 0.0
C2098 C 0.66653 0.55642 0.67012 0.0
C2099 C 0.62339 0.4653 0.67927 0.0
H2100 H 0.73191 0.48707 0.67429 0.0
H2101 H 0.69992 0.51133 0.74833 0.0
H2102 H 0.67037 0.47556 0.64021 0.0
H2103 H 0.68547 0.50692 0.63394 0.0
H2104 H 0.7055 0.47877 0.63647 0.0
H2105 H 0.65445 0.51762 0.75382 0.0
H2106 H 0.64521 0.53797 0.72714 0.0
H2107 H 0.63186 0.50515 0.72856 0.0
H2108 H 0.62124 0.56429 0.64514 0.0
H2109 H 0.58454 0.48786 0.65194 0.0
H2110 H 0.68446 0.54905 0.66066 0.0
H2111 H 0.67084 0.55908 0.69145 0.0
H2112 H 0.66252 0.57586 0.66199 0.0
H2113 H 0.63681 0.45383 0.6668 0.0
H2114 H 0.60356 0.45555 0.67825 0.0
H2115 H 0.6308 0.46486 0.69982 0.0
C2116 C 0.28113 0.00011 0.66831 0.0
C2117 C 0.28529 0.00415 0.69537 0.0
C2118 C 0.30235 0.99755 0.65114 0.0
C2119 C 0.32831 -0.00085 0.66136 0.0
C2120 C 0.33249 0.00442 0.68863 0.0
C2121 C 0.31085 0.00683 0.70536 0.0
C2122 C 0.29688 0.99153 0.62236 0.0
C2123 C 0.3598 0.00628 0.7003 0.0
C2124 C 0.37826 0.95604 0.62944 0.0
C2125 C 0.39233 0.97329 0.61308 0.0
C2126 C 0.35714 0.9642 0.64449 0.0
C2127 C 0.35052 0.99078 0.64462 0.0
C2128 C 0.36483 0.00864 0.62872 0.0
C2129 C 0.38493 -0.00056 0.61229 0.0
C2130 C 0.34152 0.94407 0.65984 0.0
C2131 C 0.35884 0.03733 0.62901 0.0
H2132 H 0.26119 0.99845 0.66073 0.0
H2133 H 0.31386 0.01033 0.7263 0.0
H2134 H 0.3094 0.00423 0.60987 0.0
H2135 H 0.30168 0.97092 0.61766 0.0
H2136 H 0.27599 0.99419 0.61705 0.0
H2137 H 0.35993 0.01397 0.72094 0.0
H2138 H 0.36823 0.98656 0.70005 0.0
H2139 H 0.37278 0.01914 0.68838 0.0
H2140 H 0.38295 0.93553 0.62969 0.0
H2141 H 0.39463 0.01266 0.59892 0.0
H2142 H 0.32049 0.94418 0.65409 0.0
H2143 H 0.34283 0.94898 0.68118 0.0
H2144 H 0.34848 0.9239 0.65655 0.0
H2145 H 0.33896 0.03989 0.62072 0.0
H2146 H 0.37326 0.04903 0.61748 0.0
H2147 H 0.35887 0.04523 0.64955 0.0
C2148 C 0.71932 0.52847 0.85601 0.0
C2149 C 0.7234 0.50494 0.84171 0.0
C2150 C 0.69658 0.53191 0.87095 0.0
C2151 C 0.67821 0.51076 0.87334 0.0
C2152 C 0.68275 0.48653 0.86028 0.0
C2153 C 0.70478 0.48416 0.8441 0.0
C2154 C 0.69196 0.55836 0.88372 0.0
C2155 C 0.66419 0.46305 0.86318 0.0
C2156 C 0.63206 0.50494 0.93094 0.0
C2157 C 0.6077 0.50532 0.91811 0.0
C2158 C 0.65548 0.50824 0.91694 0.0
C2159 C 0.65436 0.51351 0.88977 0.0
C2160 C 0.62974 0.51755 0.87768 0.0
C2161 C 0.60658 0.51258 0.89181 0.0
C2162 C 0.68103 0.50257 0.9305 0.0
C2163 C 0.62775 0.52477 0.84918 0.0
H2164 H 0.73369 0.54454 0.85549 0.0
H2165 H 0.70693 0.46602 0.83301 0.0
H2166 H 0.67256 0.56529 0.8775 0.0
H2167 H 0.69156 0.55682 0.90541 0.0
H2168 H 0.70731 0.57331 0.87857 0.0
H2169 H 0.67194 0.44495 0.85403 0.0
H2170 H 0.66048 0.45953 0.8843 0.0
H2171 H 0.64506 0.4668 0.85377 0.0
H2172 H 0.63287 0.49867 0.95115 0.0
H2173 H 0.58773 0.51253 0.88182 0.0
H2174 H 0.69691 0.51673 0.92506 0.0
H2175 H 0.68713 0.48276 0.92413 0.0
H2176 H 0.67913 0.50299 0.95225 0.0
H2177 H 0.64349 0.53932 0.84414 0.0
H2178 H 0.60841 0.53295 0.8446 0.0
H2179 H 0.63011 0.50705 0.83646 0.0
C2180 C 0.30195 0.99694 0.84752 0.0
C2181 C 0.29891 0.01458 0.82707 0.0
C2182 C 0.32582 0.99577 0.86133 0.0
C2183 C 0.34703 0.01299 0.85491 0.0
C2184 C 0.34418 0.0307 0.8342 0.0
C2185 C 0.32027 0.03115 0.82045 0.0
C2186 C 0.32819 0.97644 0.88309 0.0
C2187 C 0.36625 0.0496 0.82688 0.0
C2188 C 0.39731 0.03703 0.90566 0.0
C2189 C 0.41998 0.0252 0.89665 0.0
C2190 C 0.37308 0.03209 0.89311 0.0
C2191 C 0.37141 0.01442 0.87124 0.0
C2192 C 0.39385 0.00054 0.86354 0.0
C2193 C 0.41808 0.00628 0.87629 0.0
C2194 C 0.34981 0.04742 0.90202 0.0
C2195 C 0.39269 0.98101 0.84077 0.0
H2196 H 0.28555 0.98418 0.85299 0.0
H2197 H 0.31843 0.04437 0.80428 0.0
H2198 H 0.34619 0.96512 0.88054 0.0
H2199 H 0.32995 0.98712 0.90233 0.0
H2200 H 0.31097 0.96251 0.88374 0.0
H2201 H 0.36116 0.06155 0.80977 0.0
H2202 H 0.37119 0.06304 0.84385 0.0
H2203 H 0.38411 0.03874 0.8221 0.0
H2204 H 0.39882 0.05128 0.92175 0.0
H2205 H 0.43571 0.9972 0.86931 0.0
H2206 H 0.33247 0.03411 0.9049 0.0
H2207 H 0.34459 0.06134 0.88659 0.0
H2208 H 0.35388 0.05877 0.92064 0.0
H2209 H 0.37475 0.96812 0.84175 0.0
H2210 H 0.41015 0.96864 0.84033 0.0
H2211 H 0.39183 0.99163 0.82205 0.0
C2212 C 0.66729 0.71307 0.52363 0.0
C2213 C 0.69313 0.71436 0.51469 0.0
C2214 C 0.65417 0.68879 0.52716 0.0
C2215 C 0.66731 0.6653 0.5216 0.0
C2216 C 0.69312 0.66667 0.51143 0.0
C2217 C 0.70577 0.69127 0.50813 0.0
C2218 C 0.62669 0.6883 0.53803 0.0
C2219 C 0.70769 0.64217 0.50498 0.0
C2220 C 0.6471 0.60961 0.56551 0.0
C2221 C 0.62735 0.59612 0.55053 0.0
C2222 C 0.66069 0.63162 0.55594 0.0
C2223 C 0.65548 0.6398 0.53016 0.0
C2224 C 0.63742 0.62487 0.51394 0.0
C2225 C 0.6231 0.60352 0.52454 0.0
C2226 C 0.6792 0.64725 0.57426 0.0
C2227 C 0.63218 0.63219 0.48591 0.0
H2228 H 0.65754 0.73111 0.52825 0.0
H2229 H 0.72569 0.6925 0.50083 0.0
H2230 H 0.61344 0.67556 0.52544 0.0
H2231 H 0.62676 0.67995 0.55795 0.0
H2232 H 0.61856 0.70817 0.53943 0.0
H2233 H 0.72606 0.64647 0.49403 0.0
H2234 H 0.71286 0.63239 0.52342 0.0
H2235 H 0.69506 0.62813 0.4931 0.0
H2236 H 0.65075 0.6042 0.58563 0.0
H2237 H 0.60792 0.59337 0.51284 0.0
H2238 H 0.67147 0.66702 0.57807 0.0
H2239 H 0.69873 0.65 0.56508 0.0
H2240 H 0.68179 0.63772 0.59344 0.0
H2241 H 0.61898 0.64896 0.48576 0.0
H2242 H 0.62262 0.61565 0.47437 0.0
H2243 H 0.65065 0.63834 0.47603 0.0
C2244 C 0.66779 0.30733 0.98595 0.0
C2245 C 0.68595 0.29896 0.00448 0.0
C2246 C 0.6553 0.33123 0.98955 0.0
C2247 C 0.66077 0.34704 0.01242 0.0
C2248 C 0.67829 0.33829 0.03165 0.0
C2249 C 0.6909 0.31461 0.02731 0.0
C2250 C 0.63681 0.33993 0.96844 0.0
C2251 C 0.6844 0.35433 0.05646 0.0
C2252 C 0.65114 0.41904 0.00154 0.0
C2253 C 0.62484 0.42153 0.00884 0.0
C2254 C 0.66368 0.39527 0.00412 0.0
C2255 C 0.64981 0.37365 0.01494 0.0
C2256 C 0.62445 0.37707 0.02541 0.0
C2257 C 0.61214 0.40099 0.02208 0.0
C2258 C 0.69076 0.39261 0.99274 0.0
C2259 C 0.60936 0.35479 0.03797 0.0
H2260 H 0.66346 0.29531 0.96848 0.0
H2261 H 0.70528 0.3088 0.04159 0.0
H2262 H 0.61739 0.34396 0.97704 0.0
H2263 H 0.6446 0.35843 0.96 0.0
H2264 H 0.63399 0.32504 0.95225 0.0
H2265 H 0.69545 0.34317 0.07106 0.0
H2266 H 0.69633 0.37211 0.05159 0.0
H2267 H 0.66604 0.36095 0.06567 0.0
H2268 H 0.66111 0.4349 0.99141 0.0
H2269 H 0.59177 0.40262 0.02763 0.0
H2270 H 0.68945 0.37989 0.9747 0.0
H2271 H 0.70386 0.38315 0.00683 0.0
H2272 H 0.69988 0.41184 0.9875 0.0
H2273 H 0.60162 0.34091 0.0224 0.0
H2274 H 0.59254 0.36186 0.0496 0.0
H2275 H 0.6223 0.34381 0.05101 0.0
C2276 C 0.36568 0.22056 0.98018 0.0
C2277 C 0.34973 0.22759 0.00138 0.0
C2278 C 0.37855 0.19673 0.9796 0.0
C2279 C 0.37601 0.17967 0.00106 0.0
C2280 C 0.36134 0.18732 0.02325 0.0
C2281 C 0.34805 0.21092 0.02298 0.0
C2282 C 0.39395 0.18932 0.95541 0.0
C2283 C 0.35862 0.17009 0.04681 0.0
C2284 C 0.38258 0.11007 0.97661 0.0
C2285 C 0.4098 0.10762 0.97841 0.0
C2286 C 0.37069 0.13257 0.9864 0.0
C2287 C 0.38645 0.15284 0.99865 0.0
C2288 C 0.41323 0.14856 0.00412 0.0
C2289 C 0.4247 0.12586 0.99383 0.0
C2290 C 0.342 0.13603 0.98041 0.0
C2291 C 0.43044 0.16918 0.01816 0.0
H2292 H 0.36775 0.23346 0.96369 0.0
H2293 H 0.33555 0.21573 0.03941 0.0
H2294 H 0.41432 0.18481 0.961 0.0
H2295 H 0.38486 0.17139 0.94585 0.0
H2296 H 0.39472 0.20511 0.9408 0.0
H2297 H 0.3523 0.18132 0.06452 0.0
H2298 H 0.34367 0.15421 0.04253 0.0
H2299 H 0.37738 0.16078 0.05135 0.0
H2300 H 0.37107 0.09585 0.96474 0.0
H2301 H 0.44578 0.12404 0.99523 0.0
H2302 H 0.34017 0.15026 0.96444 0.0
H2303 H 0.33181 0.14403 0.99787 0.0
H2304 H 0.33184 0.1173 0.974 0.0
H2305 H 0.43638 0.18453 0.00412 0.0
H2306 H 0.4485 0.16075 0.02619 0.0
H2307 H 0.41971 0.17877 0.03446 0.0
C2308 C 0.80249 0.32123 0.00644 0.0
C2309 C 0.8129 0.29815 0.99633 0.0
C2310 C 0.81812 0.34446 0.00863 0.0
C2311 C 0.84463 0.34445 0.00037 0.0
C2312 C 0.85482 0.32127 0.98928 0.0
C2313 C 0.83895 0.2983 0.9878 0.0
C2314 C 0.8067 0.36857 0.02111 0.0
C2315 C 0.88293 0.32031 0.98027 0.0
C2316 C 0.88617 0.40823 0.99774 0.0
C2317 C 0.89944 0.40785 0.02195 0.0
C2318 C 0.86798 0.38782 0.99028 0.0
C2319 C 0.86294 0.36689 0.0076 0.0
C2320 C 0.87643 0.36652 0.03192 0.0
C2321 C 0.89467 0.38668 0.0385 0.0
C2322 C 0.85429 0.38853 0.96395 0.0
C2323 C 0.87189 0.34461 0.05101 0.0
H2324 H 0.78235 0.32091 0.01313 0.0
H2325 H 0.84699 0.28026 0.98025 0.0
H2326 H 0.81576 0.37238 0.04081 0.0
H2327 H 0.81121 0.38598 0.00913 0.0
H2328 H 0.7851 0.36637 0.02347 0.0
H2329 H 0.8866 0.30214 0.96859 0.0
H2330 H 0.88811 0.33749 0.96819 0.0
H2331 H 0.89624 0.32109 0.99764 0.0
H2332 H 0.88991 0.42441 0.98476 0.0
H2333 H 0.90552 0.38549 0.0567 0.0
H2334 H 0.83275 0.38879 0.96678 0.0
H2335 H 0.85833 0.37055 0.95216 0.0
H2336 H 0.86062 0.40592 0.9526 0.0
H2337 H 0.85071 0.34234 0.05564 0.0
H2338 H 0.88297 0.34807 0.06974 0.0
H2339 H 0.87797 0.3258 0.042 0.0
loop_
_geom_bond_atom_site_label_1
_geom_bond_atom_site_label_2
_geom_bond_distance
_geom_bond_site_symmetry_2
_ccdc_geom_bond_type
C0 C1 1.443 . S
C0 N4 1.376 . S
C0 C38 1.389 . S
C1 C0 1.443 . S
C1 C2 1.340 . S
C1 H41 0.951 . S
C2 C1 1.340 . S
C2 C3 1.439 . S
C2 H42 0.950 . S
C3 C2 1.439 . S
C3 N4 1.374 . S
C3 C37 1.395 . S
N4 C0 1.376 . S
N4 C3 1.374 . S
N4 Co5 2.008 1_655 S
Co5 N4 2.008 1_455 S
Co5 N6 1.995 1_455 S
Co5 N11 2.008 . S
Co5 N16 1.995 . S
Co5 N21 2.282 . S
Co5 N27 2.282 . S
N6 Co5 1.995 1_655 S
N6 C7 1.376 . S
N6 C10 1.383 . S
C7 N6 1.376 . S
C7 C8 1.446 . S
C7 C37 1.391 . S
C8 C7 1.446 . S
C8 C9 1.339 . S
C8 H43 0.949 . S
C9 C8 1.339 . S
C9 C10 1.439 . S
C9 H44 0.950 . S
C10 N6 1.383 . S
C10 C9 1.439 . S
C10 C39 1.392 1_655 S
N11 Co5 2.008 . S
N11 C12 1.376 . S
N11 C15 1.374 . S
C12 N11 1.376 . S
C12 C13 1.443 . S
C12 C39 1.389 . S
C13 C12 1.443 . S
C13 C14 1.340 . S
C13 H45 0.951 . S
C14 C13 1.340 . S
C14 C15 1.439 . S
C14 H46 0.950 . S
C15 N11 1.374 . S
C15 C14 1.439 . S
C15 C40 1.395 . S
N16 Co5 1.995 . S
N16 C17 1.376 . S
N16 C20 1.383 . S
C17 N16 1.376 . S
C17 C18 1.446 . S
C17 C40 1.391 . S
C18 C17 1.446 . S
C18 C19 1.339 . S
C18 H47 0.949 . S
C19 C18 1.339 . S
C19 C20 1.439 . S
C19 H48 0.950 . S
C20 N16 1.383 . S
C20 C19 1.439 . S
C20 C38 1.392 1_455 S
N21 Co5 2.282 . S
N21 C24 1.332 . S
N21 C26 1.332 1_455 S
C22 C23 1.386 . S
C22 C25 1.388 . S
C23 C22 1.386 . S
C23 C24 1.382 . S
C23 H49 0.950 . S
C24 N21 1.332 . S
C24 C23 1.382 . S
C24 H35 0.952 . S
C25 C22 1.388 . S
C25 C26 1.382 1_455 S
C25 H50 0.950 1_455 S
C26 N21 1.332 1_655 S
C26 C25 1.382 1_655 S
C26 H36 0.948 . S
N27 Co5 2.282 . S
N27 C31 1.332 1_455 S
N27 C32 1.332 . S
C28 C29 1.388 1_455 S
C28 C32 1.382 . S
C28 H51 0.950 . S
C29 C28 1.388 1_655 S
C29 C30 1.386 . S
C30 C29 1.386 . S
C30 C31 1.382 . S
C30 H52 0.950 . S
C31 N27 1.332 1_655 S
C31 C30 1.382 . S
C31 H33 0.952 . S
C32 N27 1.332 . S
C32 C28 1.382 . S
C32 H34 0.948 . S
H33 C31 0.952 . S
H34 C32 0.948 . S
H35 C24 0.952 . S
H36 C26 0.948 . S
C37 C3 1.395 . S
C37 C7 1.391 . S
C38 C0 1.389 . S
C38 C20 1.392 1_655 S
C39 C10 1.392 1_455 S
C39 C12 1.389 . S
C40 C15 1.395 . S
C40 C17 1.391 . S
H41 C1 0.951 . S
H42 C2 0.950 . S
H43 C8 0.949 . S
H44 C9 0.950 . S
H45 C13 0.951 . S
H46 C14 0.950 . S
H47 C18 0.949 . S
H48 C19 0.950 . S
H49 C23 0.950 . S
H50 C25 0.950 1_655 S
H51 C28 0.950 . S
H52 C30 0.950 . S
C53 C54 1.443 . S
C53 N57 1.376 . S
C53 C91 1.389 . S
C54 C53 1.443 . S
C54 C55 1.340 . S
C54 H94 0.951 . S
C55 C54 1.340 . S
C55 C56 1.439 . S
C55 H95 0.950 . S
C56 C55 1.439 . S
C56 N57 1.374 . S
C56 C90 1.395 . S
N57 C53 1.376 . S
N57 C56 1.374 . S
N57 Co58 2.008 1_655 S
Co58 N57 2.008 1_455 S
Co58 N59 1.995 1_455 S
Co58 N64 2.008 . S
Co58 N69 1.995 . S
Co58 N74 2.282 . S
Co58 N80 2.282 1_455 S
N59 Co58 1.995 1_655 S
N59 C60 1.376 . S
N59 C63 1.383 . S
C60 N59 1.376 . S
C60 C61 1.446 . S
C60 C90 1.391 . S
C61 C60 1.446 . S
C61 C62 1.339 . S
C61 H96 0.949 . S
C62 C61 1.339 . S
C62 C63 1.439 . S
C62 H97 0.950 . S
C63 N59 1.383 . S
C63 C62 1.439 . S
C63 C92 1.392 1_655 S
N64 Co58 2.008 . S
N64 C65 1.376 . S
N64 C68 1.374 . S
C65 N64 1.376 . S
C65 C66 1.443 . S
C65 C92 1.389 . S
C66 C65 1.443 . S
C66 C67 1.340 . S
C66 H98 0.951 . S
C67 C66 1.340 . S
C67 C68 1.439 . S
C67 H99 0.950 . S
C68 N64 1.374 . S
C68 C67 1.439 . S
C68 C93 1.395 . S
N69 Co58 1.995 . S
N69 C70 1.376 . S
N69 C73 1.383 . S
C70 N69 1.376 . S
C70 C71 1.446 . S
C70 C93 1.391 . S
C71 C70 1.446 . S
C71 C72 1.339 . S
C71 H100 0.949 . S
C72 C71 1.339 . S
C72 C73 1.439 . S
C72 H101 0.950 . S
C73 N69 1.383 . S
C73 C72 1.439 . S
C73 C91 1.392 1_455 S
N74 Co58 2.282 . S
N74 C77 1.332 . S
N74 C79 1.332 1_455 S
C75 C76 1.386 . S
C75 C78 1.388 1_455 S
C76 C75 1.386 . S
C76 C77 1.382 . S
C76 H102 0.950 . S
C77 N74 1.332 . S
C77 C76 1.382 . S
C77 H88 0.952 . S
C78 C75 1.388 1_655 S
C78 C79 1.382 . S
C78 H103 0.950 . S
C79 N74 1.332 1_655 S
C79 C78 1.382 . S
C79 H89 0.948 . S
N80 Co58 2.282 1_655 S
N80 C84 1.332 . S
N80 C85 1.332 1_655 S
C81 C82 1.388 1_455 S
C81 C85 1.382 . S
C81 H104 0.950 . S
C82 C81 1.388 1_655 S
C82 C83 1.386 . S
C83 C82 1.386 . S
C83 C84 1.382 . S
C83 H105 0.950 . S
C84 N80 1.332 . S
C84 C83 1.382 . S
C84 H86 0.952 . S
C85 N80 1.332 1_455 S
C85 C81 1.382 . S
C85 H87 0.948 . S
H86 C84 0.952 . S
H87 C85 0.948 . S
H88 C77 0.952 . S
H89 C79 0.948 . S
C90 C56 1.395 . S
C90 C60 1.391 . S
C91 C53 1.389 . S
C91 C73 1.392 1_655 S
C92 C63 1.392 1_455 S
C92 C65 1.389 . S
C93 C68 1.395 . S
C93 C70 1.391 . S
H94 C54 0.951 . S
H95 C55 0.950 . S
H96 C61 0.949 . S
H97 C62 0.950 . S
H98 C66 0.951 . S
H99 C67 0.950 . S
H100 C71 0.949 . S
H101 C72 0.950 . S
H102 C76 0.950 . S
H103 C78 0.950 . S
H104 C81 0.950 . S
H105 C83 0.950 . S
C106 C107 1.443 . S
C106 N110 1.376 . S
C106 C144 1.389 . S
C107 C106 1.443 . S
C107 C108 1.340 . S
C107 H147 0.951 . S
C108 C107 1.340 . S
C108 C109 1.439 . S
C108 H148 0.950 . S
C109 C108 1.439 . S
C109 N110 1.374 . S
C109 C143 1.395 . S
N110 C106 1.376 . S
N110 C109 1.374 . S
N110 Co111 2.008 1_565 S
Co111 N110 2.008 1_545 S
Co111 N112 1.995 1_545 S
Co111 N117 2.008 . S
Co111 N122 1.995 . S
Co111 N127 2.282 . S
Co111 N133 2.282 . S
N112 Co111 1.995 1_565 S
N112 C113 1.376 . S
N112 C116 1.383 . S
C113 N112 1.376 . S
C113 C114 1.446 . S
C113 C143 1.391 . S
C114 C113 1.446 . S
C114 C115 1.339 . S
C114 H149 0.949 . S
C115 C114 1.339 . S
C115 C116 1.439 . S
C115 H150 0.950 . S
C116 N112 1.383 . S
C116 C115 1.439 . S
C116 C145 1.392 1_565 S
N117 Co111 2.008 . S
N117 C118 1.376 . S
N117 C121 1.374 . S
C118 N117 1.376 . S
C118 C119 1.443 . S
C118 C145 1.389 . S
C119 C118 1.443 . S
C119 C120 1.340 . S
C119 H151 0.951 . S
C120 C119 1.340 . S
C120 C121 1.439 . S
C120 H152 0.950 . S
C121 N117 1.374 . S
C121 C120 1.439 . S
C121 C146 1.395 . S
N122 Co111 1.995 . S
N122 C123 1.376 . S
N122 C126 1.383 . S
C123 N122 1.376 . S
C123 C124 1.446 . S
C123 C146 1.391 . S
C124 C123 1.446 . S
C124 C125 1.339 . S
C124 H153 0.949 . S
C125 C124 1.339 . S
C125 C126 1.439 . S
C125 H154 0.950 . S
C126 N122 1.383 . S
C126 C125 1.439 . S
C126 C144 1.392 1_545 S
N127 Co111 2.282 . S
N127 C130 1.332 . S
N127 C132 1.312 1_545 S
C128 C129 1.386 . S
C128 C131 1.388 . S
C129 C128 1.386 . S
C129 C130 1.382 . S
C129 H155 0.950 . S
C130 N127 1.332 . S
C130 C129 1.382 . S
C130 H141 0.952 . S
C131 C128 1.388 . S
C131 C132 1.376 1_545 S
C131 H156 0.950 1_545 S
C132 N127 1.312 1_565 S
C132 C131 1.376 1_565 S
C132 H142 0.977 . S
N133 Co111 2.282 . S
N133 C137 1.332 1_545 S
N133 C138 1.332 . S
C134 C135 1.388 1_545 S
C134 C138 1.382 . S
C134 H157 0.950 . S
C135 C134 1.388 1_565 S
C135 C136 1.386 . S
C136 C135 1.386 . S
C136 C137 1.382 . S
C136 H158 0.950 . S
C137 N133 1.332 1_565 S
C137 C136 1.382 . S
C137 H139 0.952 . S
C138 N133 1.332 . S
C138 C134 1.382 . S
C138 H140 0.948 . S
H139 C137 0.952 . S
H140 C138 0.948 . S
H141 C130 0.952 . S
H142 C132 0.977 . S
C143 C109 1.395 . S
C143 C113 1.391 . S
C144 C106 1.389 . S
C144 C126 1.392 1_565 S
C145 C116 1.392 1_545 S
C145 C118 1.389 . S
C146 C121 1.395 . S
C146 C123 1.391 . S
H147 C107 0.951 . S
H148 C108 0.950 . S
H149 C114 0.949 . S
H150 C115 0.950 . S
H151 C119 0.951 . S
H152 C120 0.950 . S
H153 C124 0.949 . S
H154 C125 0.950 . S
H155 C129 0.950 . S
H156 C131 0.950 1_565 S
H157 C134 0.950 . S
H158 C136 0.950 . S
C159 C160 1.443 . S
C159 N163 1.376 . S
C159 C197 1.389 . S
C160 C159 1.443 . S
C160 C161 1.340 . S
C160 H200 0.951 . S
C161 C160 1.340 . S
C161 C162 1.439 . S
C161 H201 0.950 . S
C162 C161 1.439 . S
C162 N163 1.374 . S
C162 C196 1.395 . S
N163 C159 1.376 . S
N163 C162 1.374 . S
N163 Co164 2.008 . S
Co164 N163 2.008 . S
Co164 N165 1.995 . S
Co164 N170 2.008 . S
Co164 N175 1.995 . S
Co164 N180 2.282 . S
Co164 N186 2.282 . S
N165 Co164 1.995 . S
N165 C166 1.376 . S
N165 C169 1.383 . S
C166 N165 1.376 . S
C166 C167 1.446 . S
C166 C196 1.391 . S
C167 C166 1.446 . S
C167 C168 1.339 . S
C167 H202 0.949 . S
C168 C167 1.339 . S
C168 C169 1.439 . S
C168 H203 0.950 . S
C169 N165 1.383 . S
C169 C168 1.439 . S
C169 C198 1.392 . S
N170 Co164 2.008 . S
N170 C171 1.376 . S
N170 C174 1.374 . S
C171 N170 1.376 . S
C171 C172 1.443 . S
C171 C198 1.389 . S
C172 C171 1.443 . S
C172 C173 1.340 . S
C172 H204 0.951 . S
C173 C172 1.340 . S
C173 C174 1.439 . S
C173 H205 0.950 . S
C174 N170 1.374 . S
C174 C173 1.439 . S
C174 C199 1.395 . S
N175 Co164 1.995 . S
N175 C176 1.376 . S
N175 C179 1.383 . S
C176 N175 1.376 . S
C176 C177 1.446 . S
C176 C199 1.391 . S
C177 C176 1.446 . S
C177 C178 1.339 . S
C177 H206 0.949 . S
C178 C177 1.339 . S
C178 C179 1.439 . S
C178 H207 0.950 . S
C179 N175 1.383 . S
C179 C178 1.439 . S
C179 C197 1.392 . S
N180 Co164 2.282 . S
N180 C183 1.332 . S
N180 C185 1.332 . S
C181 C182 1.386 . S
C181 C184 1.388 . S
C182 C181 1.386 . S
C182 C183 1.382 . S
C182 H208 0.950 . S
C183 N180 1.332 . S
C183 C182 1.382 . S
C183 H194 0.952 . S
C184 C181 1.388 . S
C184 C185 1.382 . S
C184 H209 0.950 . S
C185 N180 1.332 . S
C185 C184 1.382 . S
C185 H195 0.948 . S
N186 Co164 2.282 . S
N186 C190 1.332 . S
N186 C191 1.332 . S
C187 C188 1.388 . S
C187 C191 1.382 . S
C187 H210 0.950 . S
C188 C187 1.388 . S
C188 C189 1.386 . S
C189 C188 1.386 . S
C189 C190 1.382 . S
C189 H211 0.950 . S
C190 N186 1.332 . S
C190 C189 1.382 . S
C190 H192 0.952 . S
C191 N186 1.332 . S
C191 C187 1.382 . S
C191 H193 0.948 . S
H192 C190 0.952 . S
H193 C191 0.948 . S
H194 C183 0.952 . S
H195 C185 0.948 . S
C196 C162 1.395 . S
C196 C166 1.391 . S
C197 C159 1.389 . S
C197 C179 1.392 . S
C198 C169 1.392 . S
C198 C171 1.389 . S
C199 C174 1.395 . S
C199 C176 1.391 . S
H200 C160 0.951 . S
H201 C161 0.950 . S
H202 C167 0.949 . S
H203 C168 0.950 . S
H204 C172 0.951 . S
H205 C173 0.950 . S
H206 C177 0.949 . S
H207 C178 0.950 . S
H208 C182 0.950 . S
H209 C184 0.950 . S
H210 C187 0.950 . S
H211 C189 0.950 . S
C212 C213 1.443 . S
C212 N216 1.376 . S
C212 C250 1.389 . S
C213 C212 1.443 . S
C213 C214 1.340 . S
C213 H253 0.951 . S
C214 C213 1.340 . S
C214 C215 1.439 . S
C214 H254 0.950 . S
C215 C214 1.439 . S
C215 N216 1.374 . S
C215 C249 1.395 . S
N216 C212 1.376 . S
N216 C215 1.374 . S
N216 Co217 2.008 1_556 S
Co217 N216 2.008 1_554 S
Co217 N218 1.995 1_554 S
Co217 N223 2.008 . S
Co217 N228 1.995 . S
Co217 N233 2.282 . S
Co217 N239 2.287 . S
N218 Co217 1.995 1_556 S
N218 C219 1.376 . S
N218 C222 1.383 . S
C219 N218 1.376 . S
C219 C220 1.446 . S
C219 C249 1.391 . S
C220 C219 1.446 . S
C220 C221 1.339 . S
C220 H255 0.949 . S
C221 C220 1.339 . S
C221 C222 1.439 . S
C221 H256 0.950 . S
C222 N218 1.383 . S
C222 C221 1.439 . S
C222 C251 1.392 1_556 S
N223 Co217 2.008 . S
N223 C224 1.376 . S
N223 C227 1.374 . S
C224 N223 1.376 . S
C224 C225 1.443 . S
C224 C251 1.389 . S
C225 C224 1.443 . S
C225 C226 1.340 . S
C225 H257 0.951 . S
C226 C225 1.340 . S
C226 C227 1.439 . S
C226 H258 0.950 . S
C227 N223 1.374 . S
C227 C226 1.439 . S
C227 C252 1.395 . S
N228 Co217 1.995 . S
N228 C229 1.376 . S
N228 C232 1.383 . S
C229 N228 1.376 . S
C229 C230 1.446 . S
C229 C252 1.391 . S
C230 C229 1.446 . S
C230 C231 1.339 . S
C230 H259 0.949 . S
C231 C230 1.339 . S
C231 C232 1.439 . S
C231 H260 0.950 . S
C232 N228 1.383 . S
C232 C231 1.439 . S
C232 C250 1.392 1_554 S
N233 Co217 2.282 . S
N233 C236 1.332 . S
N233 C238 1.332 1_554 S
C234 C235 1.386 . S
C234 C237 1.388 1_554 S
C235 C234 1.386 . S
C235 C236 1.382 . S
C235 H261 0.950 . S
C236 N233 1.332 . S
C236 C235 1.382 . S
C236 H247 0.952 . S
C237 C234 1.388 1_556 S
C237 C238 1.382 . S
C237 H262 0.950 . S
C238 N233 1.332 1_556 S
C238 C237 1.382 . S
C238 H248 0.948 . S
N239 Co217 2.287 . S
N239 C243 1.293 1_554 S
N239 C244 1.362 . S
C240 C241 1.388 1_554 S
C240 C244 1.382 . S
C240 H263 0.950 . S
C241 C240 1.388 1_556 S
C241 C242 1.386 . S
C242 C241 1.386 . S
C242 C243 1.382 . S
C242 H264 0.950 . S
C243 N239 1.293 1_556 S
C243 C242 1.382 . S
C243 H245 0.952 . S
C244 N239 1.362 . S
C244 C240 1.382 . S
C244 H246 0.948 . S
H245 C243 0.952 . S
H246 C244 0.948 . S
H247 C236 0.952 . S
H248 C238 0.948 . S
C249 C215 1.395 . S
C249 C219 1.391 . S
C250 C212 1.389 . S
C250 C232 1.392 1_556 S
C251 C222 1.392 1_554 S
C251 C224 1.389 . S
C252 C227 1.395 . S
C252 C229 1.391 . S
H253 C213 0.951 . S
H254 C214 0.950 . S
H255 C220 0.949 . S
H256 C221 0.950 . S
H257 C225 0.951 . S
H258 C226 0.950 . S
H259 C230 0.949 . S
H260 C231 0.950 . S
H261 C235 0.950 . S
H262 C237 0.950 . S
H263 C240 0.950 . S
H264 C242 0.950 . S
C265 C266 1.443 . S
C265 N269 1.376 . S
C265 C303 1.389 . S
C266 C265 1.443 . S
C266 C267 1.340 . S
C266 H306 0.951 . S
C267 C266 1.340 . S
C267 C268 1.439 . S
C267 H307 0.950 . S
C268 C267 1.439 . S
C268 N269 1.374 . S
C268 C302 1.395 . S
N269 C265 1.376 . S
N269 C268 1.374 . S
N269 Co270 2.008 . S
Co270 N269 2.008 . S
Co270 N271 1.995 . S
Co270 N276 2.008 . S
Co270 N281 1.995 . S
Co270 N286 2.282 . S
Co270 N292 2.282 . S
N271 Co270 1.995 . S
N271 C272 1.376 . S
N271 C275 1.383 . S
C272 N271 1.376 . S
C272 C273 1.446 . S
C272 C302 1.391 . S
C273 C272 1.446 . S
C273 C274 1.339 . S
C273 H308 0.949 . S
C274 C273 1.339 . S
C274 C275 1.439 . S
C274 H309 0.950 . S
C275 N271 1.383 . S
C275 C274 1.439 . S
C275 C304 1.392 . S
N276 Co270 2.008 . S
N276 C277 1.376 . S
N276 C280 1.374 . S
C277 N276 1.376 . S
C277 C278 1.443 . S
C277 C304 1.389 . S
C278 C277 1.443 . S
C278 C279 1.340 . S
C278 H310 0.951 . S
C279 C278 1.340 . S
C279 C280 1.439 . S
C279 H311 0.950 . S
C280 N276 1.374 . S
C280 C279 1.439 . S
C280 C305 1.395 . S
N281 Co270 1.995 . S
N281 C282 1.376 . S
N281 C285 1.383 . S
C282 N281 1.376 . S
C282 C283 1.446 . S
C282 C305 1.391 . S
C283 C282 1.446 . S
C283 C284 1.339 . S
C283 H312 0.949 . S
C284 C283 1.339 . S
C284 C285 1.439 . S
C284 H313 0.950 . S
C285 N281 1.383 . S
C285 C284 1.439 . S
C285 C303 1.392 . S
N286 Co270 2.282 . S
N286 C289 1.332 . S
N286 C291 1.332 . S
C287 C288 1.386 . S
C287 C290 1.388 . S
C288 C287 1.386 . S
C288 C289 1.382 . S
C288 H314 0.950 . S
C289 N286 1.332 . S
C289 C288 1.382 . S
C289 H300 0.952 . S
C290 C287 1.388 . S
C290 C291 1.382 . S
C290 H315 0.950 . S
C291 N286 1.332 . S
C291 C290 1.382 . S
C291 H301 0.948 . S
N292 Co270 2.282 . S
N292 C296 1.332 . S
N292 C297 1.332 . S
C293 C294 1.388 . S
C293 C297 1.382 . S
C293 H316 0.950 . S
C294 C293 1.388 . S
C294 C295 1.386 . S
C295 C294 1.386 . S
C295 C296 1.382 . S
C295 H317 0.950 . S
C296 N292 1.332 . S
C296 C295 1.382 . S
C296 H298 0.952 . S
C297 N292 1.332 . S
C297 C293 1.382 . S
C297 H299 0.948 . S
H298 C296 0.952 . S
H299 C297 0.948 . S
H300 C289 0.952 . S
H301 C291 0.948 . S
C302 C268 1.395 . S
C302 C272 1.391 . S
C303 C265 1.389 . S
C303 C285 1.392 . S
C304 C275 1.392 . S
C304 C277 1.389 . S
C305 C280 1.395 . S
C305 C282 1.391 . S
H306 C266 0.951 . S
H307 C267 0.950 . S
H308 C273 0.949 . S
H309 C274 0.950 . S
H310 C278 0.951 . S
H311 C279 0.950 . S
H312 C283 0.949 . S
H313 C284 0.950 . S
H314 C288 0.950 . S
H315 C290 0.950 . S
H316 C293 0.950 . S
H317 C295 0.950 . S
C318 C319 1.443 . S
C318 N322 1.376 . S
C318 C356 1.389 . S
C319 C318 1.443 . S
C319 C320 1.340 . S
C319 H359 0.951 . S
C320 C319 1.340 . S
C320 C321 1.439 . S
C320 H360 0.950 . S
C321 C320 1.439 . S
C321 N322 1.374 . S
C321 C355 1.395 . S
N322 C318 1.376 . S
N322 C321 1.374 . S
N322 Co323 2.008 . S
Co323 N322 2.008 . S
Co323 N324 1.995 . S
Co323 N329 2.008 . S
Co323 N334 1.995 . S
Co323 N339 2.282 . S
Co323 N345 2.282 . S
N324 Co323 1.995 . S
N324 C325 1.376 . S
N324 C328 1.383 . S
C325 N324 1.376 . S
C325 C326 1.446 . S
C325 C355 1.391 . S
C326 C325 1.446 . S
C326 C327 1.339 . S
C326 H361 0.949 . S
C327 C326 1.339 . S
C327 C328 1.439 . S
C327 H362 0.950 . S
C328 N324 1.383 . S
C328 C327 1.439 . S
C328 C357 1.392 . S
N329 Co323 2.008 . S
N329 C330 1.376 . S
N329 C333 1.374 . S
C330 N329 1.376 . S
C330 C331 1.443 . S
C330 C357 1.389 . S
C331 C330 1.443 . S
C331 C332 1.340 . S
C331 H363 0.951 . S
C332 C331 1.340 . S
C332 C333 1.439 . S
C332 H364 0.950 . S
C333 N329 1.374 . S
C333 C332 1.439 . S
C333 C358 1.395 . S
N334 Co323 1.995 . S
N334 C335 1.376 . S
N334 C338 1.383 . S
C335 N334 1.376 . S
C335 C336 1.446 . S
C335 C358 1.391 . S
C336 C335 1.446 . S
C336 C337 1.339 . S
C336 H365 0.949 . S
C337 C336 1.339 . S
C337 C338 1.439 . S
C337 H366 0.950 . S
C338 N334 1.383 . S
C338 C337 1.439 . S
C338 C356 1.392 . S
N339 Co323 2.282 . S
N339 C342 1.332 . S
N339 C344 1.332 . S
C340 C341 1.386 . S
C340 C343 1.388 . S
C341 C340 1.386 . S
C341 C342 1.382 . S
C341 H367 0.950 . S
C342 N339 1.332 . S
C342 C341 1.382 . S
C342 H353 0.952 . S
C343 C340 1.388 . S
C343 C344 1.382 . S
C343 H368 0.950 . S
C344 N339 1.332 . S
C344 C343 1.382 . S
C344 H354 0.948 . S
N345 Co323 2.282 . S
N345 C349 1.332 . S
N345 C350 1.332 . S
C346 C347 1.388 . S
C346 C350 1.382 . S
C346 H369 0.950 . S
C347 C346 1.388 . S
C347 C348 1.386 . S
C348 C347 1.386 . S
C348 C349 1.382 . S
C348 H370 0.950 . S
C349 N345 1.332 . S
C349 C348 1.382 . S
C349 H351 0.952 . S
C350 N345 1.332 . S
C350 C346 1.382 . S
C350 H352 0.948 . S
H351 C349 0.952 . S
H352 C350 0.948 . S
H353 C342 0.952 . S
H354 C344 0.948 . S
C355 C321 1.395 . S
C355 C325 1.391 . S
C356 C318 1.389 . S
C356 C338 1.392 . S
C357 C328 1.392 . S
C357 C330 1.389 . S
C358 C333 1.395 . S
C358 C335 1.391 . S
H359 C319 0.951 . S
H360 C320 0.950 . S
H361 C326 0.949 . S
H362 C327 0.950 . S
H363 C331 0.951 . S
H364 C332 0.950 . S
H365 C336 0.949 . S
H366 C337 0.950 . S
H367 C341 0.950 . S
H368 C343 0.950 . S
H369 C346 0.950 . S
H370 C348 0.950 . S
C371 C372 1.443 . S
C371 N375 1.376 . S
C371 C409 1.389 . S
C372 C371 1.443 . S
C372 C373 1.340 . S
C372 H412 0.951 . S
C373 C372 1.340 . S
C373 C374 1.439 . S
C373 H413 0.950 . S
C374 C373 1.439 . S
C374 N375 1.374 . S
C374 C408 1.395 . S
N375 C371 1.376 . S
N375 C374 1.374 . S
N375 Co376 2.008 . S
Co376 N375 2.008 . S
Co376 N377 1.995 . S
Co376 N382 2.008 . S
Co376 N387 1.995 . S
Co376 N392 2.282 . S
Co376 N398 2.282 . S
N377 Co376 1.995 . S
N377 C378 1.376 . S
N377 C381 1.383 . S
C378 N377 1.376 . S
C378 C379 1.446 . S
C378 C408 1.391 . S
C379 C378 1.446 . S
C379 C380 1.339 . S
C379 H414 0.949 . S
C380 C379 1.339 . S
C380 C381 1.439 . S
C380 H415 0.950 . S
C381 N377 1.383 . S
C381 C380 1.439 . S
C381 C410 1.392 . S
N382 Co376 2.008 . S
N382 C383 1.376 . S
N382 C386 1.374 . S
C383 N382 1.376 . S
C383 C384 1.443 . S
C383 C410 1.389 . S
C384 C383 1.443 . S
C384 C385 1.340 . S
C384 H416 0.951 . S
C385 C384 1.340 . S
C385 C386 1.439 . S
C385 H417 0.950 . S
C386 N382 1.374 . S
C386 C385 1.439 . S
C386 C411 1.395 . S
N387 Co376 1.995 . S
N387 C388 1.376 . S
N387 C391 1.383 . S
C388 N387 1.376 . S
C388 C389 1.446 . S
C388 C411 1.391 . S
C389 C388 1.446 . S
C389 C390 1.339 . S
C389 H418 0.949 . S
C390 C389 1.339 . S
C390 C391 1.439 . S
C390 H419 0.950 . S
C391 N387 1.383 . S
C391 C390 1.439 . S
C391 C409 1.392 . S
N392 Co376 2.282 . S
N392 C395 1.332 . S
N392 C397 1.332 . S
C393 C394 1.386 . S
C393 C396 1.388 . S
C394 C393 1.386 . S
C394 C395 1.382 . S
C394 H420 0.950 . S
C395 N392 1.332 . S
C395 C394 1.382 . S
C395 H406 0.952 . S
C396 C393 1.388 . S
C396 C397 1.382 . S
C396 H421 0.950 . S
C397 N392 1.332 . S
C397 C396 1.382 . S
C397 H407 0.948 . S
N398 Co376 2.282 . S
N398 C402 1.332 . S
N398 C403 1.332 . S
C399 C400 1.388 . S
C399 C403 1.382 . S
C399 H422 0.950 . S
C400 C399 1.388 . S
C400 C401 1.386 . S
C401 C400 1.386 . S
C401 C402 1.382 . S
C401 H423 0.950 . S
C402 N398 1.332 . S
C402 C401 1.382 . S
C402 H404 0.952 . S
C403 N398 1.332 . S
C403 C399 1.382 . S
C403 H405 0.948 . S
H404 C402 0.952 . S
H405 C403 0.948 . S
H406 C395 0.952 . S
H407 C397 0.948 . S
C408 C374 1.395 . S
C408 C378 1.391 . S
C409 C371 1.389 . S
C409 C391 1.392 . S
C410 C381 1.392 . S
C410 C383 1.389 . S
C411 C386 1.395 . S
C411 C388 1.391 . S
H412 C372 0.951 . S
H413 C373 0.950 . S
H414 C379 0.949 . S
H415 C380 0.950 . S
H416 C384 0.951 . S
H417 C385 0.950 . S
H418 C389 0.949 . S
H419 C390 0.950 . S
H420 C394 0.950 . S
H421 C396 0.950 . S
H422 C399 0.950 . S
H423 C401 0.950 . S
C424 C425 1.443 . S
C424 N428 1.376 . S
C424 C462 1.389 . S
C425 C424 1.443 . S
C425 C426 1.340 . S
C425 H465 0.951 . S
C426 C425 1.340 . S
C426 C427 1.439 . S
C426 H466 0.950 . S
C427 C426 1.439 . S
C427 N428 1.374 . S
C427 C461 1.395 . S
N428 C424 1.376 . S
N428 C427 1.374 . S
N428 Co429 2.008 . S
Co429 N428 2.008 . S
Co429 N430 1.995 . S
Co429 N435 2.008 . S
Co429 N440 1.995 . S
Co429 N445 2.282 . S
Co429 N451 2.282 . S
N430 Co429 1.995 . S
N430 C431 1.376 . S
N430 C434 1.383 . S
C431 N430 1.376 . S
C431 C432 1.446 . S
C431 C461 1.391 . S
C432 C431 1.446 . S
C432 C433 1.339 . S
C432 H467 0.949 . S
C433 C432 1.339 . S
C433 C434 1.439 . S
C433 H468 0.950 . S
C434 N430 1.383 . S
C434 C433 1.439 . S
C434 C463 1.392 . S
N435 Co429 2.008 . S
N435 C436 1.376 . S
N435 C439 1.374 . S
C436 N435 1.376 . S
C436 C437 1.443 . S
C436 C463 1.389 . S
C437 C436 1.443 . S
C437 C438 1.340 . S
C437 H469 0.951 . S
C438 C437 1.340 . S
C438 C439 1.439 . S
C438 H470 0.950 . S
C439 N435 1.374 . S
C439 C438 1.439 . S
C439 C464 1.395 . S
N440 Co429 1.995 . S
N440 C441 1.376 . S
N440 C444 1.383 . S
C441 N440 1.376 . S
C441 C442 1.446 . S
C441 C464 1.391 . S
C442 C441 1.446 . S
C442 C443 1.339 . S
C442 H471 0.949 . S
C443 C442 1.339 . S
C443 C444 1.439 . S
C443 H472 0.950 . S
C444 N440 1.383 . S
C444 C443 1.439 . S
C444 C462 1.392 . S
N445 Co429 2.282 . S
N445 C448 1.332 . S
N445 C450 1.332 . S
C446 C447 1.386 . S
C446 C449 1.388 . S
C447 C446 1.386 . S
C447 C448 1.382 . S
C447 H473 0.950 . S
C448 N445 1.332 . S
C448 C447 1.382 . S
C448 H459 0.952 . S
C449 C446 1.388 . S
C449 C450 1.382 . S
C449 H474 0.950 . S
C450 N445 1.332 . S
C450 C449 1.382 . S
C450 H460 0.948 . S
N451 Co429 2.282 . S
N451 C455 1.332 . S
N451 C456 1.332 . S
C452 C453 1.388 . S
C452 C456 1.382 . S
C452 H475 0.950 . S
C453 C452 1.388 . S
C453 C454 1.386 . S
C454 C453 1.386 . S
C454 C455 1.382 . S
C454 H476 0.950 . S
C455 N451 1.332 . S
C455 C454 1.382 . S
C455 H457 0.952 . S
C456 N451 1.332 . S
C456 C452 1.382 . S
C456 H458 0.948 . S
H457 C455 0.952 . S
H458 C456 0.948 . S
H459 C448 0.952 . S
H460 C450 0.948 . S
C461 C427 1.395 . S
C461 C431 1.391 . S
C462 C424 1.389 . S
C462 C444 1.392 . S
C463 C434 1.392 . S
C463 C436 1.389 . S
C464 C439 1.395 . S
C464 C441 1.391 . S
H465 C425 0.951 . S
H466 C426 0.950 . S
H467 C432 0.949 . S
H468 C433 0.950 . S
H469 C437 0.951 . S
H470 C438 0.950 . S
H471 C442 0.949 . S
H472 C443 0.950 . S
H473 C447 0.950 . S
H474 C449 0.950 . S
H475 C452 0.950 . S
H476 C454 0.950 . S
C477 C478 1.443 . S
C477 N481 1.376 . S
C477 C515 1.389 . S
C478 C477 1.443 . S
C478 C479 1.340 . S
C478 H518 0.951 . S
C479 C478 1.340 . S
C479 C480 1.439 . S
C479 H519 0.950 . S
C480 C479 1.439 . S
C480 N481 1.374 . S
C480 C514 1.395 . S
N481 C477 1.376 . S
N481 C480 1.374 . S
N481 Co482 2.008 . S
Co482 N481 2.008 . S
Co482 N483 1.995 . S
Co482 N488 2.008 . S
Co482 N493 1.995 . S
Co482 N498 2.282 . S
Co482 N504 2.282 . S
N483 Co482 1.995 . S
N483 C484 1.376 . S
N483 C487 1.383 . S
C484 N483 1.376 . S
C484 C485 1.446 . S
C484 C514 1.391 . S
C485 C484 1.446 . S
C485 C486 1.339 . S
C485 H520 0.949 . S
C486 C485 1.339 . S
C486 C487 1.439 . S
C486 H521 0.950 . S
C487 N483 1.383 . S
C487 C486 1.439 . S
C487 C516 1.392 . S
N488 Co482 2.008 . S
N488 C489 1.376 . S
N488 C492 1.374 . S
C489 N488 1.376 . S
C489 C490 1.443 . S
C489 C516 1.389 . S
C490 C489 1.443 . S
C490 C491 1.340 . S
C490 H522 0.951 . S
C491 C490 1.340 . S
C491 C492 1.439 . S
C491 H523 0.950 . S
C492 N488 1.374 . S
C492 C491 1.439 . S
C492 C517 1.395 . S
N493 Co482 1.995 . S
N493 C494 1.376 . S
N493 C497 1.383 . S
C494 N493 1.376 . S
C494 C495 1.446 . S
C494 C517 1.391 . S
C495 C494 1.446 . S
C495 C496 1.339 . S
C495 H524 0.949 . S
C496 C495 1.339 . S
C496 C497 1.439 . S
C496 H525 0.950 . S
C497 N493 1.383 . S
C497 C496 1.439 . S
C497 C515 1.392 . S
N498 Co482 2.282 . S
N498 C501 1.332 . S
N498 C503 1.332 . S
C499 C500 1.386 . S
C499 C502 1.388 . S
C500 C499 1.386 . S
C500 C501 1.382 . S
C500 H526 0.950 . S
C501 N498 1.332 . S
C501 C500 1.382 . S
C501 H512 0.952 . S
C502 C499 1.388 . S
C502 C503 1.382 . S
C502 H527 0.950 . S
C503 N498 1.332 . S
C503 C502 1.382 . S
C503 H513 0.948 . S
N504 Co482 2.282 . S
N504 C508 1.332 . S
N504 C509 1.332 . S
C505 C506 1.388 . S
C505 C509 1.382 . S
C505 H528 0.950 . S
C506 C505 1.388 . S
C506 C507 1.386 . S
C507 C506 1.386 . S
C507 C508 1.382 . S
C507 H529 0.950 . S
C508 N504 1.332 . S
C508 C507 1.382 . S
C508 H510 0.952 . S
C509 N504 1.332 . S
C509 C505 1.382 . S
C509 H511 0.948 . S
H510 C508 0.952 . S
H511 C509 0.948 . S
H512 C501 0.952 . S
H513 C503 0.948 . S
C514 C480 1.395 . S
C514 C484 1.391 . S
C515 C477 1.389 . S
C515 C497 1.392 . S
C516 C487 1.392 . S
C516 C489 1.389 . S
C517 C492 1.395 . S
C517 C494 1.391 . S
H518 C478 0.951 . S
H519 C479 0.950 . S
H520 C485 0.949 . S
H521 C486 0.950 . S
H522 C490 0.951 . S
H523 C491 0.950 . S
H524 C495 0.949 . S
H525 C496 0.950 . S
H526 C500 0.950 . S
H527 C502 0.950 . S
H528 C505 0.950 . S
H529 C507 0.950 . S
C530 C531 1.443 . S
C530 N534 1.376 . S
C530 C568 1.389 . S
C531 C530 1.443 . S
C531 C532 1.340 . S
C531 H571 0.951 . S
C532 C531 1.340 . S
C532 C533 1.439 . S
C532 H572 0.950 . S
C533 C532 1.439 . S
C533 N534 1.374 . S
C533 C567 1.395 . S
N534 C530 1.376 . S
N534 C533 1.374 . S
N534 Co535 2.008 . S
Co535 N534 2.008 . S
Co535 N536 1.995 . S
Co535 N541 2.008 1_545 S
Co535 N546 1.995 1_545 S
Co535 N551 2.282 1_545 S
Co535 N557 2.282 . S
N536 Co535 1.995 . S
N536 C537 1.376 . S
N536 C540 1.383 . S
C537 N536 1.376 . S
C537 C538 1.446 . S
C537 C567 1.391 . S
C538 C537 1.446 . S
C538 C539 1.339 . S
C538 H573 0.949 . S
C539 C538 1.339 . S
C539 C540 1.439 . S
C539 H574 0.950 . S
C540 N536 1.383 . S
C540 C539 1.439 . S
C540 C569 1.392 1_545 S
N541 Co535 2.008 1_565 S
N541 C542 1.376 . S
N541 C545 1.374 . S
C542 N541 1.376 . S
C542 C543 1.443 . S
C542 C569 1.389 . S
C543 C542 1.443 . S
C543 C544 1.340 . S
C543 H575 0.951 . S
C544 C543 1.340 . S
C544 C545 1.439 . S
C544 H576 0.950 . S
C545 N541 1.374 . S
C545 C544 1.439 . S
C545 C570 1.395 . S
N546 Co535 1.995 1_565 S
N546 C547 1.376 . S
N546 C550 1.383 . S
C547 N546 1.376 . S
C547 C548 1.446 . S
C547 C570 1.391 . S
C548 C547 1.446 . S
C548 C549 1.339 . S
C548 H577 0.949 . S
C549 C548 1.339 . S
C549 C550 1.439 . S
C549 H578 0.950 . S
C550 N546 1.383 . S
C550 C549 1.439 . S
C550 C568 1.392 1_565 S
N551 Co535 2.282 1_565 S
N551 C554 1.332 . S
N551 C556 1.332 1_565 S
C552 C553 1.386 . S
C552 C555 1.388 1_565 S
C553 C552 1.386 . S
C553 C554 1.382 . S
C553 H579 0.950 . S
C554 N551 1.332 . S
C554 C553 1.382 . S
C554 H565 0.952 . S
C555 C552 1.388 1_545 S
C555 C556 1.382 . S
C555 H580 0.950 . S
C556 N551 1.332 1_545 S
C556 C555 1.382 . S
C556 H566 0.948 . S
N557 Co535 2.282 . S
N557 C561 1.332 . S
N557 C562 1.332 1_545 S
C558 C559 1.388 1_565 S
C558 C562 1.382 . S
C558 H581 0.950 . S
C559 C558 1.388 1_545 S
C559 C560 1.386 . S
C560 C559 1.386 . S
C560 C561 1.382 . S
C560 H582 0.950 . S
C561 N557 1.332 . S
C561 C560 1.382 . S
C561 H563 0.952 . S
C562 N557 1.332 1_565 S
C562 C558 1.382 . S
C562 H564 0.948 . S
H563 C561 0.952 . S
H564 C562 0.948 . S
H565 C554 0.952 . S
H566 C556 0.948 . S
C567 C533 1.395 . S
C567 C537 1.391 . S
C568 C530 1.389 . S
C568 C550 1.392 1_545 S
C569 C540 1.392 1_565 S
C569 C542 1.389 . S
C570 C545 1.395 . S
C570 C547 1.391 . S
H571 C531 0.951 . S
H572 C532 0.950 . S
H573 C538 0.949 . S
H574 C539 0.950 . S
H575 C543 0.951 . S
H576 C544 0.950 . S
H577 C548 0.949 . S
H578 C549 0.950 . S
H579 C553 0.950 . S
H580 C555 0.950 . S
H581 C558 0.950 . S
H582 C560 0.950 . S
C583 C584 1.443 . S
C583 N587 1.376 . S
C583 C621 1.389 . S
C584 C583 1.443 . S
C584 C585 1.340 . S
C584 H624 0.951 . S
C585 C584 1.340 . S
C585 C586 1.439 . S
C585 H625 0.950 . S
C586 C585 1.439 . S
C586 N587 1.374 . S
C586 C620 1.395 . S
N587 C583 1.376 . S
N587 C586 1.374 . S
N587 Co588 2.008 1_556 S
Co588 N587 2.008 1_554 S
Co588 N589 1.995 1_554 S
Co588 N594 2.008 . S
Co588 N599 1.995 . S
Co588 N604 2.282 . S
Co588 N610 2.282 1_554 S
N589 Co588 1.995 1_556 S
N589 C590 1.376 . S
N589 C593 1.383 . S
C590 N589 1.376 . S
C590 C591 1.446 . S
C590 C620 1.391 . S
C591 C590 1.446 . S
C591 C592 1.339 . S
C591 H626 0.949 . S
C592 C591 1.339 . S
C592 C593 1.439 . S
C592 H627 0.950 . S
C593 N589 1.383 . S
C593 C592 1.439 . S
C593 C622 1.392 1_556 S
N594 Co588 2.008 . S
N594 C595 1.376 . S
N594 C598 1.374 . S
C595 N594 1.376 . S
C595 C596 1.443 . S
C595 C622 1.389 . S
C596 C595 1.443 . S
C596 C597 1.340 . S
C596 H628 0.951 . S
C597 C596 1.340 . S
C597 C598 1.439 . S
C597 H629 0.950 . S
C598 N594 1.374 . S
C598 C597 1.439 . S
C598 C623 1.395 . S
N599 Co588 1.995 . S
N599 C600 1.376 . S
N599 C603 1.383 . S
C600 N599 1.376 . S
C600 C601 1.446 . S
C600 C623 1.391 . S
C601 C600 1.446 . S
C601 C602 1.339 . S
C601 H630 0.949 . S
C602 C601 1.339 . S
C602 C603 1.439 . S
C602 H631 0.950 . S
C603 N599 1.383 . S
C603 C602 1.439 . S
C603 C621 1.392 1_554 S
N604 Co588 2.282 . S
N604 C607 1.332 . S
N604 C609 1.332 1_554 S
C605 C606 1.386 . S
C605 C608 1.388 1_554 S
C606 C605 1.386 . S
C606 C607 1.382 . S
C606 H632 0.950 . S
C607 N604 1.332 . S
C607 C606 1.382 . S
C607 H618 0.952 . S
C608 C605 1.388 1_556 S
C608 C609 1.382 . S
C608 H633 0.950 . S
C609 N604 1.332 1_556 S
C609 C608 1.382 . S
C609 H619 0.948 . S
N610 Co588 2.282 1_556 S
N610 C614 1.332 . S
N610 C615 1.332 1_556 S
C611 C612 1.388 1_554 S
C611 C615 1.382 . S
C611 H634 0.950 . S
C612 C611 1.388 1_556 S
C612 C613 1.386 . S
C613 C612 1.386 . S
C613 C614 1.382 . S
C613 H635 0.950 . S
C614 N610 1.332 . S
C614 C613 1.382 . S
C614 H616 0.952 . S
C615 N610 1.332 1_554 S
C615 C611 1.382 . S
C615 H617 0.948 . S
H616 C614 0.952 . S
H617 C615 0.948 . S
H618 C607 0.952 . S
H619 C609 0.948 . S
C620 C586 1.395 . S
C620 C590 1.391 . S
C621 C583 1.389 . S
C621 C603 1.392 1_556 S
C622 C593 1.392 1_554 S
C622 C595 1.389 . S
C623 C598 1.395 . S
C623 C600 1.391 . S
H624 C584 0.951 . S
H625 C585 0.950 . S
H626 C591 0.949 . S
H627 C592 0.950 . S
H628 C596 0.951 . S
H629 C597 0.950 . S
H630 C601 0.949 . S
H631 C602 0.950 . S
H632 C606 0.950 . S
H633 C608 0.950 . S
H634 C611 0.950 . S
H635 C613 0.950 . S
Zn636 O642 1.920 . S
Zn636 O648 1.898 . S
Zn636 O651 1.905 . S
Zn637 O645 1.905 1_554 S
Zn637 O646 1.898 . S
Zn637 O654 1.920 . S
Zn638 O641 2.080 . S
Zn638 O644 2.114 . S
Zn638 O647 2.120 . S
Zn638 O649 2.120 . S
Zn638 O650 2.114 . S
Zn638 O653 2.080 . S
C639 O644 1.166 1_556 S
C639 O645 1.182 . S
C640 O646 1.167 . S
C640 O647 1.299 . S
O641 Zn638 2.080 . S
O641 C655 1.305 . S
O642 Zn636 1.920 . S
O642 C655 1.234 . S
C643 O648 1.167 . S
C643 O649 1.299 . S
O644 Zn638 2.114 . S
O644 C639 1.166 1_554 S
O645 Zn637 1.905 1_556 S
O645 C639 1.182 . S
O646 Zn637 1.898 . S
O646 C640 1.167 . S
O647 Zn638 2.120 . S
O647 C640 1.299 . S
O648 Zn636 1.898 . S
O648 C643 1.167 . S
O649 Zn638 2.120 . S
O649 C643 1.299 . S
O650 Zn638 2.114 . S
O650 C652 1.166 . S
O651 Zn636 1.905 . S
O651 C652 1.182 . S
C652 O650 1.166 . S
C652 O651 1.182 . S
O653 Zn638 2.080 . S
O653 C656 1.305 . S
O654 Zn637 1.920 . S
O654 C656 1.234 . S
C655 O641 1.305 . S
C655 O642 1.234 . S
C656 O653 1.305 . S
C656 O654 1.234 . S
Zn657 O663 1.920 1_655 S
Zn657 O669 1.898 . S
Zn657 O672 1.905 1_554 S
Zn658 O666 1.905 . S
Zn658 O667 1.898 . S
Zn658 O675 1.920 . S
Zn659 O662 2.080 . S
Zn659 O665 2.114 . S
Zn659 O668 2.120 . S
Zn659 O670 2.120 . S
Zn659 O671 2.114 . S
Zn659 O674 2.080 . S
C660 O665 1.166 . S
C660 O666 1.182 . S
C661 O667 1.167 . S
C661 O668 1.299 . S
O662 Zn659 2.080 . S
O662 C676 1.305 1_655 S
O663 Zn657 1.920 1_455 S
O663 C676 1.234 . S
C664 O669 1.167 . S
C664 O670 1.299 . S
O665 Zn659 2.114 . S
O665 C660 1.166 . S
O666 Zn658 1.905 . S
O666 C660 1.182 . S
O667 Zn658 1.898 . S
O667 C661 1.167 . S
O668 Zn659 2.120 . S
O668 C661 1.299 . S
O669 Zn657 1.898 . S
O669 C664 1.167 . S
O670 Zn659 2.120 . S
O670 C664 1.299 . S
O671 Zn659 2.114 . S
O671 C673 1.166 1_554 S
O672 Zn657 1.905 1_556 S
O672 C673 1.182 . S
C673 O671 1.166 1_556 S
C673 O672 1.182 . S
O674 Zn659 2.080 . S
O674 C677 1.305 . S
O675 Zn658 1.920 . S
O675 C677 1.234 . S
C676 O662 1.305 1_455 S
C676 O663 1.234 . S
C677 O674 1.305 . S
C677 O675 1.234 . S
Zn678 O684 1.920 1_565 S
Zn678 O690 1.898 . S
Zn678 O693 1.905 1_455 S
Zn679 O687 1.905 . S
Zn679 O688 1.898 . S
Zn679 O696 1.920 . S
Zn680 O683 2.080 . S
Zn680 O686 2.114 . S
Zn680 O689 2.120 . S
Zn680 O691 2.120 . S
Zn680 O692 2.114 . S
Zn680 O695 2.080 . S
C681 O686 1.166 . S
C681 O687 1.182 . S
C682 O688 1.167 . S
C682 O689 1.299 . S
O683 Zn680 2.080 . S
O683 C697 1.305 . S
O684 Zn678 1.920 1_545 S
O684 C697 1.234 1_545 S
C685 O690 1.167 . S
C685 O691 1.299 . S
O686 Zn680 2.114 . S
O686 C681 1.166 . S
O687 Zn679 1.905 . S
O687 C681 1.182 . S
O688 Zn679 1.898 . S
O688 C682 1.167 . S
O689 Zn680 2.120 . S
O689 C682 1.299 . S
O690 Zn678 1.898 . S
O690 C685 1.167 . S
O691 Zn680 2.120 . S
O691 C685 1.299 . S
O692 Zn680 2.114 . S
O692 C694 1.166 1_455 S
O693 Zn678 1.905 1_655 S
O693 C694 1.182 . S
C694 O692 1.166 1_655 S
C694 O693 1.182 . S
O695 Zn680 2.080 . S
O695 C698 1.305 . S
O696 Zn679 1.920 . S
O696 C698 1.234 . S
C697 O683 1.305 . S
C697 O684 1.234 1_565 S
C698 O695 1.305 . S
C698 O696 1.234 . S
Zn699 O705 1.920 . S
Zn699 O711 1.898 . S
Zn699 O714 1.905 . S
Zn700 O708 1.905 . S
Zn700 O709 1.898 1_655 S
Zn700 O717 1.920 . S
Zn701 O704 2.080 . S
Zn701 O707 2.114 . S
Zn701 O710 2.120 . S
Zn701 O712 2.120 . S
Zn701 O713 2.114 . S
Zn701 O716 2.080 . S
C702 O707 1.166 . S
C702 O708 1.182 . S
C703 O709 1.167 . S
C703 O710 1.299 1_455 S
O704 Zn701 2.080 . S
O704 C718 1.305 . S
O705 Zn699 1.920 . S
O705 C718 1.234 . S
C706 O711 1.167 . S
C706 O712 1.299 . S
O707 Zn701 2.114 . S
O707 C702 1.166 . S
O708 Zn700 1.905 . S
O708 C702 1.182 . S
O709 Zn700 1.898 1_455 S
O709 C703 1.167 . S
O710 Zn701 2.120 . S
O710 C703 1.299 1_655 S
O711 Zn699 1.898 . S
O711 C706 1.167 . S
O712 Zn701 2.120 . S
O712 C706 1.299 . S
O713 Zn701 2.114 . S
O713 C715 1.166 . S
O714 Zn699 1.905 . S
O714 C715 1.182 . S
C715 O713 1.166 . S
C715 O714 1.182 . S
O716 Zn701 2.080 . S
O716 C719 1.305 . S
O717 Zn700 1.920 . S
O717 C719 1.234 . S
C718 O704 1.305 . S
C718 O705 1.234 . S
C719 O716 1.305 . S
C719 O717 1.234 . S
Zn720 O726 1.920 . S
Zn720 O732 1.898 . S
Zn720 O735 1.905 . S
Zn721 O729 1.905 . S
Zn721 O730 1.898 1_565 S
Zn721 O738 1.920 . S
Zn722 O725 2.080 . S
Zn722 O728 2.114 . S
Zn722 O731 2.120 . S
Zn722 O733 2.120 . S
Zn722 O734 2.114 . S
Zn722 O737 2.080 . S
C723 O728 1.166 . S
C723 O729 1.182 . S
C724 O730 1.167 . S
C724 O731 1.299 1_545 S
O725 Zn722 2.080 . S
O725 C739 1.305 . S
O726 Zn720 1.920 . S
O726 C739 1.234 . S
C727 O732 1.167 . S
C727 O733 1.299 . S
O728 Zn722 2.114 . S
O728 C723 1.166 . S
O729 Zn721 1.905 . S
O729 C723 1.182 . S
O730 Zn721 1.898 1_545 S
O730 C724 1.167 . S
O731 Zn722 2.120 . S
O731 C724 1.299 1_565 S
O732 Zn720 1.898 . S
O732 C727 1.167 . S
O733 Zn722 2.120 . S
O733 C727 1.299 . S
O734 Zn722 2.114 . S
O734 C736 1.166 . S
O735 Zn720 1.905 . S
O735 C736 1.182 . S
C736 O734 1.166 . S
C736 O735 1.182 . S
O737 Zn722 2.080 . S
O737 C740 1.305 . S
O738 Zn721 1.920 . S
O738 C740 1.234 . S
C739 O725 1.305 . S
C739 O726 1.234 . S
C740 O737 1.305 . S
C740 O738 1.234 . S
Zn741 O747 1.920 . S
Zn741 O753 1.898 . S
Zn741 O756 1.905 . S
Zn742 O750 1.905 . S
Zn742 O751 1.898 . S
Zn742 O759 1.920 . S
Zn743 O746 2.080 . S
Zn743 O749 2.114 . S
Zn743 O752 2.120 . S
Zn743 O754 2.120 . S
Zn743 O755 2.114 . S
Zn743 O758 2.080 . S
C744 O749 1.166 . S
C744 O750 1.182 . S
C745 O751 1.167 . S
C745 O752 1.299 . S
O746 Zn743 2.080 . S
O746 C760 1.305 . S
O747 Zn741 1.920 . S
O747 C760 1.234 . S
C748 O753 1.167 . S
C748 O754 1.299 . S
O749 Zn743 2.114 . S
O749 C744 1.166 . S
O750 Zn742 1.905 . S
O750 C744 1.182 . S
O751 Zn742 1.898 . S
O751 C745 1.167 . S
O752 Zn743 2.120 . S
O752 C745 1.299 . S
O753 Zn741 1.898 . S
O753 C748 1.167 . S
O754 Zn743 2.120 . S
O754 C748 1.299 . S
O755 Zn743 2.114 . S
O755 C757 1.166 . S
O756 Zn741 1.905 . S
O756 C757 1.182 . S
C757 O755 1.166 . S
C757 O756 1.182 . S
O758 Zn743 2.080 . S
O758 C761 1.305 . S
O759 Zn742 1.920 . S
O759 C761 1.234 . S
C760 O746 1.305 . S
C760 O747 1.234 . S
C761 O758 1.305 . S
C761 O759 1.234 . S
Zn762 O768 1.920 1_554 S
Zn762 O774 1.898 . S
Zn762 O777 1.905 1_554 S
Zn763 O771 1.905 . S
Zn763 O772 1.898 . S
Zn763 O780 1.920 . S
Zn764 O767 2.080 . S
Zn764 O770 2.114 . S
Zn764 O773 2.120 . S
Zn764 O775 2.120 1_556 S
Zn764 O776 2.114 . S
Zn764 O779 2.080 . S
C765 O770 1.166 . S
C765 O771 1.182 . S
C766 O772 1.167 . S
C766 O773 1.299 . S
O767 Zn764 2.080 . S
O767 C781 1.305 . S
O768 Zn762 1.920 1_556 S
O768 C781 1.234 . S
C769 O774 1.167 . S
C769 O775 1.299 . S
O770 Zn764 2.114 . S
O770 C765 1.166 . S
O771 Zn763 1.905 . S
O771 C765 1.182 . S
O772 Zn763 1.898 . S
O772 C766 1.167 . S
O773 Zn764 2.120 . S
O773 C766 1.299 . S
O774 Zn762 1.898 . S
O774 C769 1.167 . S
O775 Zn764 2.120 1_554 S
O775 C769 1.299 . S
O776 Zn764 2.114 . S
O776 C778 1.166 . S
O777 Zn762 1.905 1_556 S
O777 C778 1.182 . S
C778 O776 1.166 . S
C778 O777 1.182 . S
O779 Zn764 2.080 . S
O779 C782 1.305 . S
O780 Zn763 1.920 . S
O780 C782 1.234 . S
C781 O767 1.305 . S
C781 O768 1.234 . S
C782 O779 1.305 . S
C782 O780 1.234 . S
Zn783 O789 1.920 1_556 S
Zn783 O795 1.898 . S
Zn783 O798 1.907 1_545 S
Zn784 O792 1.905 . S
Zn784 O793 1.898 . S
Zn784 O801 1.920 . S
Zn785 O788 2.080 . S
Zn785 O791 2.114 . S
Zn785 O794 2.120 . S
Zn785 O796 2.120 . S
Zn785 O797 2.114 . S
Zn785 O800 2.080 . S
C786 O791 1.166 . S
C786 O792 1.182 . S
C787 O793 1.167 . S
C787 O794 1.299 . S
O788 Zn785 2.080 . S
O788 C802 1.305 . S
O789 Zn783 1.920 1_554 S
O789 C802 1.234 1_554 S
C790 O795 1.167 . S
C790 O796 1.299 . S
O791 Zn785 2.114 . S
O791 C786 1.166 . S
O792 Zn784 1.905 . S
O792 C786 1.182 . S
O793 Zn784 1.898 . S
O793 C787 1.167 . S
O794 Zn785 2.120 . S
O794 C787 1.299 . S
O795 Zn783 1.898 . S
O795 C790 1.167 . S
O796 Zn785 2.120 . S
O796 C790 1.299 . S
O797 Zn785 2.114 . S
O797 C799 1.166 . S
O798 Zn783 1.907 1_565 S
O798 C799 1.184 1_565 S
C799 O797 1.166 . S
C799 O798 1.184 1_545 S
O800 Zn785 2.080 . S
O800 C803 1.305 . S
O801 Zn784 1.920 . S
O801 C803 1.234 . S
C802 O788 1.305 . S
C802 O789 1.234 1_556 S
C803 O800 1.305 . S
C803 O801 1.234 . S
C804 C805 1.391 . S
C804 C806 1.394 . S
C804 H820 0.931 . S
C805 C804 1.391 . S
C805 C809 1.376 . S
C806 C804 1.394 . S
C806 C807 1.369 . S
C806 C810 1.531 . S
C807 C806 1.369 . S
C807 C808 1.410 . S
C807 C815 1.503 . S
C808 C807 1.410 . S
C808 C809 1.392 . S
C808 C811 1.511 . S
C809 C805 1.376 . S
C809 C808 1.392 . S
C809 H821 0.929 . S
C810 C806 1.531 . S
C810 H822 0.960 . S
C810 H823 0.962 1_455 S
C810 H824 0.960 . S
C811 C808 1.511 . S
C811 H825 0.961 . S
C811 H826 0.961 . S
C811 H827 0.961 . S
C812 C813 1.370 . S
C812 C814 1.363 . S
C812 H828 0.931 1_455 S
C813 C812 1.370 . S
C813 C817 1.408 . S
C814 C812 1.363 . S
C814 C815 1.370 . S
C814 C818 1.524 1_455 S
C815 C807 1.503 . S
C815 C814 1.370 . S
C815 C816 1.403 . S
C816 C815 1.403 . S
C816 C817 1.404 . S
C816 C819 1.539 . S
C817 C813 1.408 . S
C817 C816 1.404 . S
C817 H829 0.930 . S
C818 C814 1.524 1_655 S
C818 H830 0.956 . S
C818 H831 0.961 . S
C818 H832 0.961 . S
C819 C816 1.539 . S
C819 H833 0.958 . S
C819 H834 0.961 . S
C819 H835 0.960 . S
H820 C804 0.931 . S
H821 C809 0.929 . S
H822 C810 0.960 . S
H823 C810 0.962 1_655 S
H824 C810 0.960 . S
H825 C811 0.961 . S
H826 C811 0.961 . S
H827 C811 0.961 . S
H828 C812 0.931 1_655 S
H829 C817 0.930 . S
H830 C818 0.956 . S
H831 C818 0.961 . S
H832 C818 0.961 . S
H833 C819 0.958 . S
H834 C819 0.961 . S
H835 C819 0.960 . S
C836 C837 1.391 . S
C836 C838 1.394 . S
C836 H852 0.931 . S
C837 C836 1.391 . S
C837 C841 1.376 . S
C838 C836 1.394 . S
C838 C839 1.369 . S
C838 C842 1.531 . S
C839 C838 1.369 . S
C839 C840 1.410 . S
C839 C847 1.503 . S
C840 C839 1.410 . S
C840 C841 1.392 . S
C840 C843 1.511 . S
C841 C837 1.376 . S
C841 C840 1.392 . S
C841 H853 0.929 . S
C842 C838 1.531 . S
C842 H854 0.960 1_655 S
C842 H855 0.962 . S
C842 H856 0.960 1_655 S
C843 C840 1.511 . S
C843 H857 0.961 . S
C843 H858 0.961 . S
C843 H859 0.963 1_655 S
C844 C845 1.370 . S
C844 C846 1.363 . S
C844 H860 0.931 . S
C845 C844 1.370 . S
C845 C849 1.408 . S
C846 C844 1.363 . S
C846 C847 1.370 . S
C846 C850 1.524 . S
C847 C839 1.503 . S
C847 C846 1.370 . S
C847 C848 1.403 1_655 S
C848 C847 1.403 1_455 S
C848 C849 1.404 1_455 S
C848 C851 1.539 . S
C849 C845 1.408 . S
C849 C848 1.404 1_655 S
C849 H861 0.930 1_655 S
C850 C846 1.524 . S
C850 H862 0.956 . S
C850 H863 0.961 . S
C850 H864 0.961 . S
C851 C848 1.539 . S
C851 H865 0.958 . S
C851 H866 0.961 . S
C851 H867 0.960 . S
H852 C836 0.931 . S
H853 C841 0.929 . S
H854 C842 0.960 1_455 S
H855 C842 0.962 . S
H856 C842 0.960 1_455 S
H857 C843 0.961 . S
H858 C843 0.961 . S
H859 C843 0.963 1_455 S
H860 C844 0.931 . S
H861 C849 0.930 1_455 S
H862 C850 0.956 . S
H863 C850 0.961 . S
H864 C850 0.961 . S
H865 C851 0.958 . S
H866 C851 0.961 . S
H867 C851 0.960 . S
C868 C869 1.391 . S
C868 C870 1.394 . S
C868 H884 0.902 1_455 S
C869 C868 1.391 . S
C869 C873 1.376 . S
C870 C868 1.394 . S
C870 C871 1.369 . S
C870 C874 1.531 . S
C871 C870 1.369 . S
C871 C872 1.410 . S
C871 C879 1.503 . S
C872 C871 1.410 . S
C872 C873 1.392 . S
C872 C875 1.511 . S
C873 C869 1.376 . S
C873 C872 1.392 . S
C873 H885 0.929 . S
C874 C870 1.531 . S
C874 H886 0.960 . S
C874 H887 0.962 1_455 S
C874 H888 0.960 1_455 S
C875 C872 1.511 . S
C875 H889 0.961 . S
C875 H890 0.961 . S
C875 H891 0.961 . S
C876 C877 1.370 . S
C876 C878 1.363 . S
C876 H892 0.931 . S
C877 C876 1.370 . S
C877 C881 1.408 . S
C878 C876 1.363 . S
C878 C879 1.370 . S
C878 C882 1.524 . S
C879 C871 1.503 . S
C879 C878 1.370 . S
C879 C880 1.403 . S
C880 C879 1.403 . S
C880 C881 1.404 . S
C880 C883 1.539 . S
C881 C877 1.408 . S
C881 C880 1.404 . S
C881 H893 0.930 . S
C882 C878 1.524 . S
C882 H894 0.956 . S
C882 H895 0.961 . S
C882 H896 0.961 . S
C883 C880 1.539 . S
C883 H897 0.958 . S
C883 H898 0.961 . S
C883 H899 0.960 . S
H884 C868 0.902 1_655 S
H885 C873 0.929 . S
H886 C874 0.960 . S
H887 C874 0.962 1_655 S
H888 C874 0.960 1_655 S
H889 C875 0.961 . S
H890 C875 0.961 . S
H891 C875 0.961 . S
H892 C876 0.931 . S
H893 C881 0.930 . S
H894 C882 0.956 . S
H895 C882 0.961 . S
H896 C882 0.961 . S
H897 C883 0.958 . S
H898 C883 0.961 . S
H899 C883 0.960 . S
C900 C901 1.391 . S
C900 C902 1.394 . S
C900 H916 0.931 . S
C901 C900 1.391 . S
C901 C905 1.376 1_655 S
C902 C900 1.394 . S
C902 C903 1.369 . S
C902 C906 1.531 . S
C903 C902 1.369 . S
C903 C904 1.410 1_655 S
C903 C911 1.503 . S
C904 C903 1.410 1_455 S
C904 C905 1.392 . S
C904 C907 1.511 . S
C905 C901 1.376 1_455 S
C905 C904 1.392 . S
C905 H917 0.929 . S
C906 C902 1.531 . S
C906 H918 0.960 . S
C906 H919 0.962 . S
C906 H920 0.960 . S
C907 C904 1.511 . S
C907 H921 0.961 . S
C907 H922 0.961 . S
C907 H923 0.961 . S
C908 C909 1.370 . S
C908 C910 1.363 . S
C908 H924 0.931 . S
C909 C908 1.370 . S
C909 C913 1.408 . S
C910 C908 1.363 . S
C910 C911 1.370 . S
C910 C914 1.524 . S
C911 C903 1.503 . S
C911 C910 1.370 . S
C911 C912 1.403 . S
C912 C911 1.403 . S
C912 C913 1.404 . S
C912 C915 1.539 1_655 S
C913 C909 1.408 . S
C913 C912 1.404 . S
C913 H925 0.930 . S
C914 C910 1.524 . S
C914 H926 0.956 . S
C914 H927 0.961 . S
C914 H928 0.961 . S
C915 C912 1.539 1_455 S
C915 H929 0.958 1_455 S
C915 H930 0.961 . S
C915 H931 0.960 . S
H916 C900 0.931 . S
H917 C905 0.929 . S
H918 C906 0.960 . S
H919 C906 0.962 . S
H920 C906 0.960 . S
H921 C907 0.961 . S
H922 C907 0.961 . S
H923 C907 0.961 . S
H924 C908 0.931 . S
H925 C913 0.930 . S
H926 C914 0.956 . S
H927 C914 0.961 . S
H928 C914 0.961 . S
H929 C915 0.958 1_655 S
H930 C915 0.961 . S
H931 C915 0.960 . S
C932 C933 1.391 . S
C932 C934 1.394 . S
C932 H948 0.931 . S
C933 C932 1.391 . S
C933 C937 1.376 . S
C934 C932 1.394 . S
C934 C935 1.369 . S
C934 C938 1.531 . S
C935 C934 1.369 . S
C935 C936 1.410 . S
C935 C943 1.503 . S
C936 C935 1.410 . S
C936 C937 1.392 . S
C936 C939 1.511 . S
C937 C933 1.376 . S
C937 C936 1.392 . S
C937 H949 0.929 . S
C938 C934 1.531 . S
C938 H950 0.972 . S
C938 H951 0.962 . S
C938 H952 0.960 1_545 S
C939 C936 1.511 . S
C939 H953 0.961 . S
C939 H954 0.961 . S
C939 H955 0.961 . S
C940 C941 1.370 . S
C940 C942 1.363 . S
C940 H956 0.931 . S
C941 C940 1.370 . S
C941 C945 1.408 . S
C942 C940 1.363 . S
C942 C943 1.370 . S
C942 C946 1.524 . S
C943 C935 1.503 . S
C943 C942 1.370 . S
C943 C944 1.403 . S
C944 C943 1.403 . S
C944 C945 1.404 . S
C944 C947 1.539 1_545 S
C945 C941 1.408 . S
C945 C944 1.404 . S
C945 H957 0.930 . S
C946 C942 1.524 . S
C946 H958 0.956 . S
C946 H959 0.961 . S
C946 H960 0.961 . S
C947 C944 1.539 1_565 S
C947 H961 0.958 . S
C947 H962 0.961 . S
C947 H963 0.959 . S
H948 C932 0.931 . S
H949 C937 0.929 . S
H950 C938 0.972 . S
H951 C938 0.962 . S
H952 C938 0.960 1_565 S
H953 C939 0.961 . S
H954 C939 0.961 . S
H955 C939 0.961 . S
H956 C940 0.931 . S
H957 C945 0.930 . S
H958 C946 0.956 . S
H959 C946 0.961 . S
H960 C946 0.961 . S
H961 C947 0.958 . S
H962 C947 0.961 . S
H963 C947 0.959 . S
C964 C965 1.391 . S
C964 C966 1.394 . S
C964 H980 0.931 . S
C965 C964 1.391 . S
C965 C969 1.376 . S
C966 C964 1.394 . S
C966 C967 1.369 . S
C966 C970 1.531 . S
C967 C966 1.369 . S
C967 C968 1.410 . S
C967 C975 1.503 . S
C968 C967 1.410 . S
C968 C969 1.392 . S
C968 C971 1.511 . S
C969 C965 1.376 . S
C969 C968 1.392 . S
C969 H981 0.929 . S
C970 C966 1.531 . S
C970 H982 0.960 . S
C970 H983 0.962 . S
C970 H984 0.960 . S
C971 C968 1.511 . S
C971 H985 0.961 . S
C971 H986 0.961 . S
C971 H987 0.961 . S
C972 C973 1.370 . S
C972 C974 1.363 . S
C972 H988 0.931 . S
C973 C972 1.370 . S
C973 C977 1.408 . S
C974 C972 1.363 . S
C974 C975 1.370 . S
C974 C978 1.524 . S
C975 C967 1.503 . S
C975 C974 1.370 . S
C975 C976 1.403 . S
C976 C975 1.403 . S
C976 C977 1.404 . S
C976 C979 1.539 . S
C977 C973 1.408 . S
C977 C976 1.404 . S
C977 H989 0.930 . S
C978 C974 1.524 . S
C978 H990 0.956 . S
C978 H991 0.961 . S
C978 H992 0.961 . S
C979 C976 1.539 . S
C979 H993 0.958 . S
C979 H994 0.961 . S
C979 H995 0.960 . S
H980 C964 0.931 . S
H981 C969 0.929 . S
H982 C970 0.960 . S
H983 C970 0.962 . S
H984 C970 0.960 . S
H985 C971 0.961 . S
H986 C971 0.961 . S
H987 C971 0.961 . S
H988 C972 0.931 . S
H989 C977 0.930 . S
H990 C978 0.956 . S
H991 C978 0.961 . S
H992 C978 0.961 . S
H993 C979 0.958 . S
H994 C979 0.961 . S
H995 C979 0.960 . S
C996 C997 1.391 . S
C996 C998 1.394 . S
C996 H1012 0.931 . S
C997 C996 1.391 . S
C997 C1001 1.376 . S
C998 C996 1.394 . S
C998 C999 1.369 . S
C998 C1002 1.531 . S
C999 C998 1.369 . S
C999 C1000 1.410 . S
C999 C1007 1.503 . S
C1000 C999 1.410 . S
C1000 C1001 1.392 . S
C1000 C1003 1.511 . S
C1001 C997 1.376 . S
C1001 C1000 1.392 . S
C1001 H1013 0.929 1_565 S
C1002 C998 1.531 . S
C1002 H1014 0.960 . S
C1002 H1015 0.962 . S
C1002 H1016 0.960 . S
C1003 C1000 1.511 . S
C1003 H1017 0.961 1_565 S
C1003 H1018 0.961 . S
C1003 H1019 0.961 . S
C1004 C1005 1.370 . S
C1004 C1006 1.363 . S
C1004 H1020 0.931 . S
C1005 C1004 1.370 . S
C1005 C1009 1.408 . S
C1006 C1004 1.363 . S
C1006 C1007 1.370 . S
C1006 C1010 1.524 1_565 S
C1007 C999 1.503 . S
C1007 C1006 1.370 . S
C1007 C1008 1.403 . S
C1008 C1007 1.403 . S
C1008 C1009 1.404 . S
C1008 C1011 1.539 . S
C1009 C1005 1.408 . S
C1009 C1008 1.404 . S
C1009 H1021 0.930 . S
C1010 C1006 1.524 1_545 S
C1010 H1022 0.956 . S
C1010 H1023 0.961 . S
C1010 H1024 0.961 . S
C1011 C1008 1.539 . S
C1011 H1025 0.958 . S
C1011 H1026 0.961 . S
C1011 H1027 0.960 . S
H1012 C996 0.931 . S
H1013 C1001 0.929 1_545 S
H1014 C1002 0.960 . S
H1015 C1002 0.962 . S
H1016 C1002 0.960 . S
H1017 C1003 0.961 1_545 S
H1018 C1003 0.961 . S
H1019 C1003 0.961 . S
H1020 C1004 0.931 . S
H1021 C1009 0.930 . S
H1022 C1010 0.956 . S
H1023 C1010 0.961 . S
H1024 C1010 0.961 . S
H1025 C1011 0.958 . S
H1026 C1011 0.961 . S
H1027 C1011 0.960 . S
C1028 C1029 1.391 . S
C1028 C1030 1.394 . S
C1028 H1044 0.931 . S
C1029 C1028 1.391 . S
C1029 C1033 1.376 . S
C1030 C1028 1.394 . S
C1030 C1031 1.369 . S
C1030 C1034 1.531 . S
C1031 C1030 1.369 . S
C1031 C1032 1.410 . S
C1031 C1039 1.503 . S
C1032 C1031 1.410 . S
C1032 C1033 1.392 . S
C1032 C1035 1.511 . S
C1033 C1029 1.376 . S
C1033 C1032 1.392 . S
C1033 H1045 0.929 . S
C1034 C1030 1.531 . S
C1034 H1046 0.960 . S
C1034 H1047 0.962 . S
C1034 H1048 0.960 . S
C1035 C1032 1.511 . S
C1035 H1049 0.961 . S
C1035 H1050 0.961 . S
C1035 H1051 0.961 . S
C1036 C1037 1.370 . S
C1036 C1038 1.363 . S
C1036 H1052 0.931 . S
C1037 C1036 1.370 . S
C1037 C1041 1.408 . S
C1038 C1036 1.363 . S
C1038 C1039 1.370 . S
C1038 C1042 1.524 . S
C1039 C1031 1.503 . S
C1039 C1038 1.370 . S
C1039 C1040 1.403 . S
C1040 C1039 1.403 . S
C1040 C1041 1.404 . S
C1040 C1043 1.539 . S
C1041 C1037 1.408 . S
C1041 C1040 1.404 . S
C1041 H1053 0.930 . S
C1042 C1038 1.524 . S
C1042 H1054 0.956 . S
C1042 H1055 0.961 . S
C1042 H1056 0.961 . S
C1043 C1040 1.539 . S
C1043 H1057 0.958 . S
C1043 H1058 0.961 . S
C1043 H1059 0.960 . S
H1044 C1028 0.931 . S
H1045 C1033 0.929 . S
H1046 C1034 0.960 . S
H1047 C1034 0.962 . S
H1048 C1034 0.960 . S
H1049 C1035 0.961 . S
H1050 C1035 0.961 . S
H1051 C1035 0.961 . S
H1052 C1036 0.931 . S
H1053 C1041 0.930 . S
H1054 C1042 0.956 . S
H1055 C1042 0.961 . S
H1056 C1042 0.961 . S
H1057 C1043 0.958 . S
H1058 C1043 0.961 . S
H1059 C1043 0.960 . S
C1060 C1061 1.391 . S
C1060 C1062 1.394 . S
C1060 H1076 0.931 . S
C1061 C1060 1.391 . S
C1061 C1065 1.376 . S
C1062 C1060 1.394 . S
C1062 C1063 1.369 . S
C1062 C1066 1.531 . S
C1063 C1062 1.369 . S
C1063 C1064 1.410 . S
C1063 C1071 1.503 . S
C1064 C1063 1.410 . S
C1064 C1065 1.392 . S
C1064 C1067 1.511 . S
C1065 C1061 1.376 . S
C1065 C1064 1.392 . S
C1065 H1077 0.929 . S
C1066 C1062 1.531 . S
C1066 H1078 0.960 . S
C1066 H1079 0.962 . S
C1066 H1080 0.960 . S
C1067 C1064 1.511 . S
C1067 H1081 0.950 1_554 S
C1067 H1082 0.961 . S
C1067 H1083 0.961 . S
C1068 C1069 1.370 . S
C1068 C1070 1.363 . S
C1068 H1084 0.931 1_554 S
C1069 C1068 1.370 . S
C1069 C1073 1.408 . S
C1070 C1068 1.363 . S
C1070 C1071 1.370 . S
C1070 C1074 1.524 1_554 S
C1071 C1063 1.503 . S
C1071 C1070 1.370 . S
C1071 C1072 1.403 . S
C1072 C1071 1.403 . S
C1072 C1073 1.404 . S
C1072 C1075 1.539 . S
C1073 C1069 1.408 . S
C1073 C1072 1.404 . S
C1073 H1085 0.930 . S
C1074 C1070 1.524 1_556 S
C1074 H1086 0.956 . S
C1074 H1087 0.961 . S
C1074 H1088 0.961 . S
C1075 C1072 1.539 . S
C1075 H1089 0.958 . S
C1075 H1090 0.961 . S
C1075 H1091 0.960 . S
H1076 C1060 0.931 . S
H1077 C1065 0.929 . S
H1078 C1066 0.960 . S
H1079 C1066 0.962 . S
H1080 C1066 0.960 . S
H1081 C1067 0.950 1_556 S
H1082 C1067 0.961 . S
H1083 C1067 0.961 . S
H1084 C1068 0.931 1_556 S
H1085 C1073 0.930 . S
H1086 C1074 0.956 . S
H1087 C1074 0.961 . S
H1088 C1074 0.961 . S
H1089 C1075 0.958 . S
H1090 C1075 0.961 . S
H1091 C1075 0.960 . S
C1092 C1093 1.391 . S
C1092 C1094 1.394 . S
C1092 H1108 0.931 . S
C1093 C1092 1.391 . S
C1093 C1097 1.376 . S
C1094 C1092 1.394 . S
C1094 C1095 1.369 . S
C1094 C1098 1.531 . S
C1095 C1094 1.369 . S
C1095 C1096 1.410 . S
C1095 C1103 1.503 . S
C1096 C1095 1.410 . S
C1096 C1097 1.392 . S
C1096 C1099 1.511 . S
C1097 C1093 1.376 . S
C1097 C1096 1.392 . S
C1097 H1109 0.929 . S
C1098 C1094 1.531 . S
C1098 H1110 0.960 . S
C1098 H1111 0.962 . S
C1098 H1112 0.960 . S
C1099 C1096 1.511 . S
C1099 H1113 0.961 . S
C1099 H1114 0.961 . S
C1099 H1115 0.961 . S
C1100 C1101 1.370 . S
C1100 C1102 1.363 . S
C1100 H1116 0.931 . S
C1101 C1100 1.370 . S
C1101 C1105 1.408 . S
C1102 C1100 1.363 . S
C1102 C1103 1.370 . S
C1102 C1106 1.524 . S
C1103 C1095 1.503 . S
C1103 C1102 1.370 . S
C1103 C1104 1.403 . S
C1104 C1103 1.403 . S
C1104 C1105 1.404 . S
C1104 C1107 1.539 . S
C1105 C1101 1.408 . S
C1105 C1104 1.404 . S
C1105 H1117 0.930 . S
C1106 C1102 1.524 . S
C1106 H1118 0.956 . S
C1106 H1119 0.961 . S
C1106 H1120 0.961 . S
C1107 C1104 1.539 . S
C1107 H1121 0.958 . S
C1107 H1122 0.961 . S
C1107 H1123 0.960 . S
H1108 C1092 0.931 . S
H1109 C1097 0.929 . S
H1110 C1098 0.960 . S
H1111 C1098 0.962 . S
H1112 C1098 0.960 . S
H1113 C1099 0.961 . S
H1114 C1099 0.961 . S
H1115 C1099 0.961 . S
H1116 C1100 0.931 . S
H1117 C1105 0.930 . S
H1118 C1106 0.956 . S
H1119 C1106 0.961 . S
H1120 C1106 0.961 . S
H1121 C1107 0.958 . S
H1122 C1107 0.961 . S
H1123 C1107 0.960 . S
C1124 C1125 1.391 . S
C1124 C1126 1.394 . S
C1124 H1140 0.931 . S
C1125 C1124 1.391 . S
C1125 C1129 1.376 . S
C1126 C1124 1.394 . S
C1126 C1127 1.369 . S
C1126 C1130 1.531 . S
C1127 C1126 1.369 . S
C1127 C1128 1.410 . S
C1127 C1135 1.503 . S
C1128 C1127 1.410 . S
C1128 C1129 1.392 . S
C1128 C1131 1.511 . S
C1129 C1125 1.376 . S
C1129 C1128 1.392 . S
C1129 H1141 0.929 . S
C1130 C1126 1.531 . S
C1130 H1142 0.960 . S
C1130 H1143 0.962 . S
C1130 H1144 0.960 . S
C1131 C1128 1.511 . S
C1131 H1145 0.961 . S
C1131 H1146 0.961 . S
C1131 H1147 0.961 . S
C1132 C1133 1.370 . S
C1132 C1134 1.363 . S
C1132 H1148 0.931 . S
C1133 C1132 1.370 . S
C1133 C1137 1.408 . S
C1134 C1132 1.363 . S
C1134 C1135 1.370 . S
C1134 C1138 1.524 . S
C1135 C1127 1.503 . S
C1135 C1134 1.370 . S
C1135 C1136 1.403 . S
C1136 C1135 1.403 . S
C1136 C1137 1.404 . S
C1136 C1139 1.539 . S
C1137 C1133 1.408 . S
C1137 C1136 1.404 . S
C1137 H1149 0.930 . S
C1138 C1134 1.524 . S
C1138 H1150 0.956 . S
C1138 H1151 0.961 . S
C1138 H1152 0.961 . S
C1139 C1136 1.539 . S
C1139 H1153 0.958 . S
C1139 H1154 0.961 . S
C1139 H1155 0.960 . S
H1140 C1124 0.931 . S
H1141 C1129 0.929 . S
H1142 C1130 0.960 . S
H1143 C1130 0.962 . S
H1144 C1130 0.960 . S
H1145 C1131 0.961 . S
H1146 C1131 0.961 . S
H1147 C1131 0.961 . S
H1148 C1132 0.931 . S
H1149 C1137 0.930 . S
H1150 C1138 0.956 . S
H1151 C1138 0.961 . S
H1152 C1138 0.961 . S
H1153 C1139 0.958 . S
H1154 C1139 0.961 . S
H1155 C1139 0.960 . S
C1156 C1157 1.391 . S
C1156 C1158 1.394 . S
C1156 H1172 0.931 . S
C1157 C1156 1.391 . S
C1157 C1161 1.376 . S
C1158 C1156 1.394 . S
C1158 C1159 1.369 . S
C1158 C1162 1.531 . S
C1159 C1158 1.369 . S
C1159 C1160 1.410 . S
C1159 C1167 1.503 . S
C1160 C1159 1.410 . S
C1160 C1161 1.392 . S
C1160 C1163 1.511 . S
C1161 C1157 1.376 . S
C1161 C1160 1.392 . S
C1161 H1173 0.929 . S
C1162 C1158 1.531 . S
C1162 H1174 0.960 . S
C1162 H1175 0.962 . S
C1162 H1176 0.960 . S
C1163 C1160 1.511 . S
C1163 H1177 0.961 . S
C1163 H1178 0.961 . S
C1163 H1179 0.961 . S
C1164 C1165 1.370 . S
C1164 C1166 1.363 . S
C1164 H1180 0.931 . S
C1165 C1164 1.370 . S
C1165 C1169 1.408 . S
C1166 C1164 1.363 . S
C1166 C1167 1.370 . S
C1166 C1170 1.524 . S
C1167 C1159 1.503 . S
C1167 C1166 1.370 . S
C1167 C1168 1.403 . S
C1168 C1167 1.403 . S
C1168 C1169 1.404 . S
C1168 C1171 1.539 . S
C1169 C1165 1.408 . S
C1169 C1168 1.404 . S
C1169 H1181 0.930 . S
C1170 C1166 1.524 . S
C1170 H1182 0.956 . S
C1170 H1183 0.961 . S
C1170 H1184 0.961 . S
C1171 C1168 1.539 . S
C1171 H1185 0.958 . S
C1171 H1186 0.961 . S
C1171 H1187 0.960 . S
H1172 C1156 0.931 . S
H1173 C1161 0.929 . S
H1174 C1162 0.960 . S
H1175 C1162 0.962 . S
H1176 C1162 0.960 . S
H1177 C1163 0.961 . S
H1178 C1163 0.961 . S
H1179 C1163 0.961 . S
H1180 C1164 0.931 . S
H1181 C1169 0.930 . S
H1182 C1170 0.956 . S
H1183 C1170 0.961 . S
H1184 C1170 0.961 . S
H1185 C1171 0.958 . S
H1186 C1171 0.961 . S
H1187 C1171 0.960 . S
C1188 C1189 1.391 . S
C1188 C1190 1.394 . S
C1188 H1204 0.931 . S
C1189 C1188 1.391 . S
C1189 C1193 1.376 . S
C1190 C1188 1.394 . S
C1190 C1191 1.369 . S
C1190 C1194 1.531 . S
C1191 C1190 1.369 . S
C1191 C1192 1.410 . S
C1191 C1199 1.503 . S
C1192 C1191 1.410 . S
C1192 C1193 1.392 . S
C1192 C1195 1.511 . S
C1193 C1189 1.376 . S
C1193 C1192 1.392 . S
C1193 H1205 0.929 . S
C1194 C1190 1.531 . S
C1194 H1206 0.960 . S
C1194 H1207 0.962 . S
C1194 H1208 0.960 . S
C1195 C1192 1.511 . S
C1195 H1209 0.961 . S
C1195 H1210 0.961 . S
C1195 H1211 0.961 . S
C1196 C1197 1.370 . S
C1196 C1198 1.363 . S
C1196 H1212 0.931 . S
C1197 C1196 1.370 . S
C1197 C1201 1.408 . S
C1198 C1196 1.363 . S
C1198 C1199 1.370 . S
C1198 C1202 1.524 . S
C1199 C1191 1.503 . S
C1199 C1198 1.370 . S
C1199 C1200 1.403 . S
C1200 C1199 1.403 . S
C1200 C1201 1.404 . S
C1200 C1203 1.539 . S
C1201 C1197 1.408 . S
C1201 C1200 1.404 . S
C1201 H1213 0.930 . S
C1202 C1198 1.524 . S
C1202 H1214 0.956 . S
C1202 H1215 0.961 . S
C1202 H1216 0.961 . S
C1203 C1200 1.539 . S
C1203 H1217 0.958 . S
C1203 H1218 0.961 . S
C1203 H1219 0.960 . S
H1204 C1188 0.931 . S
H1205 C1193 0.929 . S
H1206 C1194 0.960 . S
H1207 C1194 0.962 . S
H1208 C1194 0.960 . S
H1209 C1195 0.961 . S
H1210 C1195 0.961 . S
H1211 C1195 0.961 . S
H1212 C1196 0.931 . S
H1213 C1201 0.930 . S
H1214 C1202 0.956 . S
H1215 C1202 0.961 . S
H1216 C1202 0.961 . S
H1217 C1203 0.958 . S
H1218 C1203 0.961 . S
H1219 C1203 0.960 . S
C1220 C1221 1.391 . S
C1220 C1222 1.394 . S
C1220 H1236 0.931 . S
C1221 C1220 1.391 . S
C1221 C1225 1.376 . S
C1222 C1220 1.394 . S
C1222 C1223 1.369 . S
C1222 C1226 1.531 . S
C1223 C1222 1.369 . S
C1223 C1224 1.410 . S
C1223 C1231 1.503 . S
C1224 C1223 1.410 . S
C1224 C1225 1.392 . S
C1224 C1227 1.511 . S
C1225 C1221 1.376 . S
C1225 C1224 1.392 . S
C1225 H1237 0.929 . S
C1226 C1222 1.531 . S
C1226 H1238 0.960 . S
C1226 H1239 0.962 . S
C1226 H1240 0.960 . S
C1227 C1224 1.511 . S
C1227 H1241 0.961 . S
C1227 H1242 0.961 . S
C1227 H1243 0.961 . S
C1228 C1229 1.370 . S
C1228 C1230 1.363 . S
C1228 H1244 0.931 . S
C1229 C1228 1.370 . S
C1229 C1233 1.408 . S
C1230 C1228 1.363 . S
C1230 C1231 1.370 . S
C1230 C1234 1.524 . S
C1231 C1223 1.503 . S
C1231 C1230 1.370 . S
C1231 C1232 1.403 . S
C1232 C1231 1.403 . S
C1232 C1233 1.404 . S
C1232 C1235 1.539 . S
C1233 C1229 1.408 . S
C1233 C1232 1.404 . S
C1233 H1245 0.930 . S
C1234 C1230 1.524 . S
C1234 H1246 0.956 . S
C1234 H1247 0.961 . S
C1234 H1248 0.961 . S
C1235 C1232 1.539 . S
C1235 H1249 0.958 . S
C1235 H1250 0.961 . S
C1235 H1251 0.960 . S
H1236 C1220 0.931 . S
H1237 C1225 0.929 . S
H1238 C1226 0.960 . S
H1239 C1226 0.962 . S
H1240 C1226 0.960 . S
H1241 C1227 0.961 . S
H1242 C1227 0.961 . S
H1243 C1227 0.961 . S
H1244 C1228 0.931 . S
H1245 C1233 0.930 . S
H1246 C1234 0.956 . S
H1247 C1234 0.961 . S
H1248 C1234 0.961 . S
H1249 C1235 0.958 . S
H1250 C1235 0.961 . S
H1251 C1235 0.960 . S
C1252 C1253 1.391 . S
C1252 C1254 1.394 . S
C1252 H1268 0.931 . S
C1253 C1252 1.391 . S
C1253 C1257 1.376 . S
C1254 C1252 1.394 . S
C1254 C1255 1.369 . S
C1254 C1258 1.531 . S
C1255 C1254 1.369 . S
C1255 C1256 1.410 . S
C1255 C1263 1.503 . S
C1256 C1255 1.410 . S
C1256 C1257 1.392 . S
C1256 C1259 1.511 . S
C1257 C1253 1.376 . S
C1257 C1256 1.392 . S
C1257 H1269 0.929 . S
C1258 C1254 1.531 . S
C1258 H1270 0.960 . S
C1258 H1271 0.962 . S
C1258 H1272 0.960 . S
C1259 C1256 1.511 . S
C1259 H1273 0.961 . S
C1259 H1274 0.961 . S
C1259 H1275 0.961 . S
C1260 C1261 1.370 . S
C1260 C1262 1.363 . S
C1260 H1276 0.931 . S
C1261 C1260 1.370 . S
C1261 C1265 1.408 . S
C1262 C1260 1.363 . S
C1262 C1263 1.370 . S
C1262 C1266 1.524 . S
C1263 C1255 1.503 . S
C1263 C1262 1.370 . S
C1263 C1264 1.403 . S
C1264 C1263 1.403 . S
C1264 C1265 1.404 . S
C1264 C1267 1.539 . S
C1265 C1261 1.408 . S
C1265 C1264 1.404 . S
C1265 H1277 0.930 . S
C1266 C1262 1.524 . S
C1266 H1278 0.956 . S
C1266 H1279 0.961 . S
C1266 H1280 0.961 . S
C1267 C1264 1.539 . S
C1267 H1281 0.958 . S
C1267 H1282 0.961 . S
C1267 H1283 0.960 . S
H1268 C1252 0.931 . S
H1269 C1257 0.929 . S
H1270 C1258 0.960 . S
H1271 C1258 0.962 . S
H1272 C1258 0.960 . S
H1273 C1259 0.961 . S
H1274 C1259 0.961 . S
H1275 C1259 0.961 . S
H1276 C1260 0.931 . S
H1277 C1265 0.930 . S
H1278 C1266 0.956 . S
H1279 C1266 0.961 . S
H1280 C1266 0.961 . S
H1281 C1267 0.958 . S
H1282 C1267 0.961 . S
H1283 C1267 0.960 . S
C1284 C1285 1.391 . S
C1284 C1286 1.394 . S
C1284 H1300 0.931 . S
C1285 C1284 1.391 . S
C1285 C1289 1.376 . S
C1286 C1284 1.394 . S
C1286 C1287 1.369 . S
C1286 C1290 1.531 . S
C1287 C1286 1.369 . S
C1287 C1288 1.410 . S
C1287 C1295 1.503 . S
C1288 C1287 1.410 . S
C1288 C1289 1.392 . S
C1288 C1291 1.511 . S
C1289 C1285 1.376 . S
C1289 C1288 1.392 . S
C1289 H1301 0.929 . S
C1290 C1286 1.531 . S
C1290 H1302 0.960 . S
C1290 H1303 0.962 . S
C1290 H1304 0.960 . S
C1291 C1288 1.511 . S
C1291 H1305 0.961 . S
C1291 H1306 0.961 . S
C1291 H1307 0.961 . S
C1292 C1293 1.370 . S
C1292 C1294 1.363 . S
C1292 H1308 0.931 . S
C1293 C1292 1.370 . S
C1293 C1297 1.408 . S
C1294 C1292 1.363 . S
C1294 C1295 1.370 . S
C1294 C1298 1.524 . S
C1295 C1287 1.503 . S
C1295 C1294 1.370 . S
C1295 C1296 1.403 . S
C1296 C1295 1.403 . S
C1296 C1297 1.404 . S
C1296 C1299 1.539 . S
C1297 C1293 1.408 . S
C1297 C1296 1.404 . S
C1297 H1309 0.930 . S
C1298 C1294 1.524 . S
C1298 H1310 0.956 . S
C1298 H1311 0.961 . S
C1298 H1312 0.961 . S
C1299 C1296 1.539 . S
C1299 H1313 0.958 . S
C1299 H1314 0.961 . S
C1299 H1315 0.960 . S
H1300 C1284 0.931 . S
H1301 C1289 0.929 . S
H1302 C1290 0.960 . S
H1303 C1290 0.962 . S
H1304 C1290 0.960 . S
H1305 C1291 0.961 . S
H1306 C1291 0.961 . S
H1307 C1291 0.961 . S
H1308 C1292 0.931 . S
H1309 C1297 0.930 . S
H1310 C1298 0.956 . S
H1311 C1298 0.961 . S
H1312 C1298 0.961 . S
H1313 C1299 0.958 . S
H1314 C1299 0.961 . S
H1315 C1299 0.960 . S
C1316 C1317 1.391 . S
C1316 C1318 1.394 . S
C1316 H1332 0.931 . S
C1317 C1316 1.391 . S
C1317 C1321 1.376 . S
C1318 C1316 1.394 . S
C1318 C1319 1.369 . S
C1318 C1322 1.531 . S
C1319 C1318 1.369 . S
C1319 C1320 1.410 . S
C1319 C1327 1.503 . S
C1320 C1319 1.410 . S
C1320 C1321 1.392 . S
C1320 C1323 1.511 . S
C1321 C1317 1.376 . S
C1321 C1320 1.392 . S
C1321 H1333 0.929 . S
C1322 C1318 1.531 . S
C1322 H1334 0.960 . S
C1322 H1335 0.962 . S
C1322 H1336 0.960 . S
C1323 C1320 1.511 . S
C1323 H1337 0.961 . S
C1323 H1338 0.961 . S
C1323 H1339 0.961 . S
C1324 C1325 1.370 . S
C1324 C1326 1.363 . S
C1324 H1340 0.931 . S
C1325 C1324 1.370 . S
C1325 C1329 1.408 . S
C1326 C1324 1.363 . S
C1326 C1327 1.370 . S
C1326 C1330 1.524 . S
C1327 C1319 1.503 . S
C1327 C1326 1.370 . S
C1327 C1328 1.403 . S
C1328 C1327 1.403 . S
C1328 C1329 1.404 . S
C1328 C1331 1.539 . S
C1329 C1325 1.408 . S
C1329 C1328 1.404 . S
C1329 H1341 0.930 . S
C1330 C1326 1.524 . S
C1330 H1342 0.956 . S
C1330 H1343 0.961 . S
C1330 H1344 0.961 . S
C1331 C1328 1.539 . S
C1331 H1345 0.958 . S
C1331 H1346 0.961 . S
C1331 H1347 0.960 . S
H1332 C1316 0.931 . S
H1333 C1321 0.929 . S
H1334 C1322 0.960 . S
H1335 C1322 0.962 . S
H1336 C1322 0.960 . S
H1337 C1323 0.961 . S
H1338 C1323 0.961 . S
H1339 C1323 0.961 . S
H1340 C1324 0.931 . S
H1341 C1329 0.930 . S
H1342 C1330 0.956 . S
H1343 C1330 0.961 . S
H1344 C1330 0.961 . S
H1345 C1331 0.958 . S
H1346 C1331 0.961 . S
H1347 C1331 0.960 . S
C1348 C1349 1.391 . S
C1348 C1350 1.394 . S
C1348 H1364 0.931 1_565 S
C1349 C1348 1.391 . S
C1349 C1353 1.376 . S
C1350 C1348 1.394 . S
C1350 C1351 1.369 . S
C1350 C1354 1.531 1_565 S
C1351 C1350 1.369 . S
C1351 C1352 1.410 . S
C1351 C1359 1.503 . S
C1352 C1351 1.410 . S
C1352 C1353 1.392 . S
C1352 C1355 1.511 . S
C1353 C1349 1.376 . S
C1353 C1352 1.392 . S
C1353 H1365 0.929 . S
C1354 C1350 1.531 1_545 S
C1354 H1366 0.960 . S
C1354 H1367 0.962 . S
C1354 H1368 0.960 . S
C1355 C1352 1.511 . S
C1355 H1369 0.961 . S
C1355 H1370 0.961 . S
C1355 H1371 0.961 . S
C1356 C1357 1.370 . S
C1356 C1358 1.363 . S
C1356 H1372 0.931 . S
C1357 C1356 1.370 . S
C1357 C1361 1.408 . S
C1358 C1356 1.363 . S
C1358 C1359 1.370 . S
C1358 C1362 1.524 . S
C1359 C1351 1.503 . S
C1359 C1358 1.370 . S
C1359 C1360 1.403 . S
C1360 C1359 1.403 . S
C1360 C1361 1.404 . S
C1360 C1363 1.539 . S
C1361 C1357 1.408 . S
C1361 C1360 1.404 . S
C1361 H1373 0.930 . S
C1362 C1358 1.524 . S
C1362 H1374 0.956 . S
C1362 H1375 0.961 . S
C1362 H1376 0.961 . S
C1363 C1360 1.539 . S
C1363 H1377 0.958 1_565 S
C1363 H1378 0.961 . S
C1363 H1379 0.960 . S
H1364 C1348 0.931 1_545 S
H1365 C1353 0.929 . S
H1366 C1354 0.960 . S
H1367 C1354 0.962 . S
H1368 C1354 0.960 . S
H1369 C1355 0.961 . S
H1370 C1355 0.961 . S
H1371 C1355 0.961 . S
H1372 C1356 0.931 . S
H1373 C1361 0.930 . S
H1374 C1362 0.956 . S
H1375 C1362 0.961 . S
H1376 C1362 0.961 . S
H1377 C1363 0.958 1_545 S
H1378 C1363 0.961 . S
H1379 C1363 0.960 . S
C1380 C1381 1.391 . S
C1380 C1382 1.394 . S
C1380 H1396 0.931 . S
C1381 C1380 1.391 . S
C1381 C1385 1.376 . S
C1382 C1380 1.394 . S
C1382 C1383 1.369 . S
C1382 C1386 1.531 . S
C1383 C1382 1.369 . S
C1383 C1384 1.410 . S
C1383 C1391 1.503 . S
C1384 C1383 1.410 . S
C1384 C1385 1.392 . S
C1384 C1387 1.511 . S
C1385 C1381 1.376 . S
C1385 C1384 1.392 . S
C1385 H1397 0.929 . S
C1386 C1382 1.531 . S
C1386 H1398 0.960 . S
C1386 H1399 0.962 . S
C1386 H1400 0.960 . S
C1387 C1384 1.511 . S
C1387 H1401 0.961 . S
C1387 H1402 0.961 . S
C1387 H1403 0.961 . S
C1388 C1389 1.370 . S
C1388 C1390 1.363 . S
C1388 H1404 0.931 . S
C1389 C1388 1.370 . S
C1389 C1393 1.408 . S
C1390 C1388 1.363 . S
C1390 C1391 1.370 . S
C1390 C1394 1.524 . S
C1391 C1383 1.503 . S
C1391 C1390 1.370 . S
C1391 C1392 1.403 . S
C1392 C1391 1.403 . S
C1392 C1393 1.404 . S
C1392 C1395 1.539 . S
C1393 C1389 1.408 . S
C1393 C1392 1.404 . S
C1393 H1405 0.930 . S
C1394 C1390 1.524 . S
C1394 H1406 0.956 . S
C1394 H1407 0.961 . S
C1394 H1408 0.961 . S
C1395 C1392 1.539 . S
C1395 H1409 0.958 . S
C1395 H1410 0.961 . S
C1395 H1411 0.960 . S
H1396 C1380 0.931 . S
H1397 C1385 0.929 . S
H1398 C1386 0.960 . S
H1399 C1386 0.962 . S
H1400 C1386 0.960 . S
H1401 C1387 0.961 . S
H1402 C1387 0.961 . S
H1403 C1387 0.961 . S
H1404 C1388 0.931 . S
H1405 C1393 0.930 . S
H1406 C1394 0.956 . S
H1407 C1394 0.961 . S
H1408 C1394 0.961 . S
H1409 C1395 0.958 . S
H1410 C1395 0.961 . S
H1411 C1395 0.960 . S
C1412 C1413 1.391 . S
C1412 C1414 1.394 . S
C1412 H1428 0.931 . S
C1413 C1412 1.391 . S
C1413 C1417 1.376 . S
C1414 C1412 1.394 . S
C1414 C1415 1.369 . S
C1414 C1418 1.531 . S
C1415 C1414 1.369 . S
C1415 C1416 1.410 . S
C1415 C1423 1.503 . S
C1416 C1415 1.410 . S
C1416 C1417 1.392 . S
C1416 C1419 1.511 . S
C1417 C1413 1.376 . S
C1417 C1416 1.392 . S
C1417 H1429 0.929 . S
C1418 C1414 1.531 . S
C1418 H1430 0.960 . S
C1418 H1431 0.962 . S
C1418 H1432 0.960 . S
C1419 C1416 1.511 . S
C1419 H1433 0.961 . S
C1419 H1434 0.961 . S
C1419 H1435 0.961 . S
C1420 C1421 1.370 . S
C1420 C1422 1.363 . S
C1420 H1436 0.931 . S
C1421 C1420 1.370 . S
C1421 C1425 1.408 . S
C1422 C1420 1.363 . S
C1422 C1423 1.370 . S
C1422 C1426 1.524 1_545 S
C1423 C1415 1.503 . S
C1423 C1422 1.370 . S
C1423 C1424 1.403 . S
C1424 C1423 1.403 . S
C1424 C1425 1.404 . S
C1424 C1427 1.539 . S
C1425 C1421 1.408 . S
C1425 C1424 1.404 . S
C1425 H1437 0.930 . S
C1426 C1422 1.524 1_565 S
C1426 H1438 0.956 . S
C1426 H1439 0.961 . S
C1426 H1440 0.961 . S
C1427 C1424 1.539 . S
C1427 H1441 0.958 . S
C1427 H1442 0.961 . S
C1427 H1443 0.960 . S
H1428 C1412 0.931 . S
H1429 C1417 0.929 . S
H1430 C1418 0.960 . S
H1431 C1418 0.962 . S
H1432 C1418 0.960 . S
H1433 C1419 0.961 . S
H1434 C1419 0.961 . S
H1435 C1419 0.961 . S
H1436 C1420 0.931 . S
H1437 C1425 0.930 . S
H1438 C1426 0.956 . S
H1439 C1426 0.961 . S
H1440 C1426 0.961 . S
H1441 C1427 0.958 . S
H1442 C1427 0.961 . S
H1443 C1427 0.960 . S
C1444 C1445 1.391 . S
C1444 C1446 1.394 . S
C1444 H1460 0.931 . S
C1445 C1444 1.391 . S
C1445 C1449 1.376 . S
C1446 C1444 1.394 . S
C1446 C1447 1.369 . S
C1446 C1450 1.531 . S
C1447 C1446 1.369 . S
C1447 C1448 1.410 . S
C1447 C1455 1.503 . S
C1448 C1447 1.410 . S
C1448 C1449 1.392 . S
C1448 C1451 1.511 . S
C1449 C1445 1.376 . S
C1449 C1448 1.392 . S
C1449 H1461 0.929 . S
C1450 C1446 1.531 . S
C1450 H1462 0.960 . S
C1450 H1463 0.962 . S
C1450 H1464 0.960 . S
C1451 C1448 1.511 . S
C1451 H1465 0.961 . S
C1451 H1466 0.961 . S
C1451 H1467 0.961 . S
C1452 C1453 1.370 . S
C1452 C1454 1.363 . S
C1452 H1468 0.931 . S
C1453 C1452 1.370 . S
C1453 C1457 1.408 . S
C1454 C1452 1.363 . S
C1454 C1455 1.370 . S
C1454 C1458 1.524 . S
C1455 C1447 1.503 . S
C1455 C1454 1.370 . S
C1455 C1456 1.403 . S
C1456 C1455 1.403 . S
C1456 C1457 1.404 . S
C1456 C1459 1.539 . S
C1457 C1453 1.408 . S
C1457 C1456 1.404 . S
C1457 H1469 0.930 . S
C1458 C1454 1.524 . S
C1458 H1470 0.956 . S
C1458 H1471 0.961 . S
C1458 H1472 0.961 . S
C1459 C1456 1.539 . S
C1459 H1473 0.958 . S
C1459 H1474 0.961 . S
C1459 H1475 0.960 . S
H1460 C1444 0.931 . S
H1461 C1449 0.929 . S
H1462 C1450 0.960 . S
H1463 C1450 0.962 . S
H1464 C1450 0.960 . S
H1465 C1451 0.961 . S
H1466 C1451 0.961 . S
H1467 C1451 0.961 . S
H1468 C1452 0.931 . S
H1469 C1457 0.930 . S
H1470 C1458 0.956 . S
H1471 C1458 0.961 . S
H1472 C1458 0.961 . S
H1473 C1459 0.958 . S
H1474 C1459 0.961 . S
H1475 C1459 0.960 . S
C1476 C1477 1.391 . S
C1476 C1478 1.394 . S
C1476 H1492 0.931 . S
C1477 C1476 1.391 . S
C1477 C1481 1.376 . S
C1478 C1476 1.394 . S
C1478 C1479 1.369 . S
C1478 C1482 1.531 . S
C1479 C1478 1.369 . S
C1479 C1480 1.410 . S
C1479 C1487 1.503 . S
C1480 C1479 1.410 . S
C1480 C1481 1.392 . S
C1480 C1483 1.511 . S
C1481 C1477 1.376 . S
C1481 C1480 1.392 . S
C1481 H1493 0.940 . S
C1482 C1478 1.531 . S
C1482 H1494 0.960 . S
C1482 H1495 0.962 . S
C1482 H1496 0.960 . S
C1483 C1480 1.511 . S
C1483 H1497 0.961 1_556 S
C1483 H1498 0.961 . S
C1483 H1499 0.961 . S
C1484 C1485 1.370 . S
C1484 C1486 1.363 . S
C1484 H1500 0.931 . S
C1485 C1484 1.370 . S
C1485 C1489 1.408 . S
C1486 C1484 1.363 . S
C1486 C1487 1.370 . S
C1486 C1490 1.524 1_556 S
C1487 C1479 1.503 . S
C1487 C1486 1.370 . S
C1487 C1488 1.403 . S
C1488 C1487 1.403 . S
C1488 C1489 1.404 . S
C1488 C1491 1.539 . S
C1489 C1485 1.408 . S
C1489 C1488 1.404 . S
C1489 H1501 0.930 . S
C1490 C1486 1.524 1_554 S
C1490 H1502 0.956 . S
C1490 H1503 0.961 . S
C1490 H1504 0.961 . S
C1491 C1488 1.539 . S
C1491 H1505 0.958 . S
C1491 H1506 0.961 . S
C1491 H1507 0.960 . S
H1492 C1476 0.931 . S
H1493 C1481 0.940 . S
H1494 C1482 0.960 . S
H1495 C1482 0.962 . S
H1496 C1482 0.960 . S
H1497 C1483 0.961 1_554 S
H1498 C1483 0.961 . S
H1499 C1483 0.961 . S
H1500 C1484 0.931 . S
H1501 C1489 0.930 . S
H1502 C1490 0.956 . S
H1503 C1490 0.961 . S
H1504 C1490 0.961 . S
H1505 C1491 0.958 . S
H1506 C1491 0.961 . S
H1507 C1491 0.960 . S
C1508 C1509 1.391 1_554 S
C1508 C1510 1.394 . S
C1508 H1524 0.931 . S
C1509 C1508 1.391 1_556 S
C1509 C1513 1.376 . S
C1510 C1508 1.394 . S
C1510 C1511 1.369 1_554 S
C1510 C1514 1.531 . S
C1511 C1510 1.369 1_556 S
C1511 C1512 1.410 . S
C1511 C1519 1.503 . S
C1512 C1511 1.410 . S
C1512 C1513 1.392 . S
C1512 C1515 1.511 . S
C1513 C1509 1.376 . S
C1513 C1512 1.392 . S
C1513 H1525 0.929 . S
C1514 C1510 1.531 . S
C1514 H1526 0.960 . S
C1514 H1527 0.962 . S
C1514 H1528 0.960 . S
C1515 C1512 1.511 . S
C1515 H1529 0.961 . S
C1515 H1530 0.961 . S
C1515 H1531 0.961 . S
C1516 C1517 1.370 . S
C1516 C1518 1.363 . S
C1516 H1532 0.931 . S
C1517 C1516 1.370 . S
C1517 C1521 1.408 . S
C1518 C1516 1.363 . S
C1518 C1519 1.370 . S
C1518 C1522 1.524 . S
C1519 C1511 1.503 . S
C1519 C1518 1.370 . S
C1519 C1520 1.403 . S
C1520 C1519 1.403 . S
C1520 C1521 1.404 . S
C1520 C1523 1.539 . S
C1521 C1517 1.408 . S
C1521 C1520 1.404 . S
C1521 H1533 0.930 . S
C1522 C1518 1.524 . S
C1522 H1534 0.956 1_556 S
C1522 H1535 0.961 . S
C1522 H1536 0.961 . S
C1523 C1520 1.539 . S
C1523 H1537 0.958 1_556 S
C1523 H1538 0.961 . S
C1523 H1539 0.960 . S
H1524 C1508 0.931 . S
H1525 C1513 0.929 . S
H1526 C1514 0.960 . S
H1527 C1514 0.962 . S
H1528 C1514 0.960 . S
H1529 C1515 0.961 . S
H1530 C1515 0.961 . S
H1531 C1515 0.961 . S
H1532 C1516 0.931 . S
H1533 C1521 0.930 . S
H1534 C1522 0.956 1_554 S
H1535 C1522 0.961 . S
H1536 C1522 0.961 . S
H1537 C1523 0.958 1_554 S
H1538 C1523 0.961 . S
H1539 C1523 0.960 . S
C1540 C1541 1.391 . S
C1540 C1542 1.394 . S
C1540 H1556 0.931 . S
C1541 C1540 1.391 . S
C1541 C1545 1.376 . S
C1542 C1540 1.394 . S
C1542 C1543 1.369 . S
C1542 C1546 1.531 . S
C1543 C1542 1.369 . S
C1543 C1544 1.410 . S
C1543 C1551 1.503 . S
C1544 C1543 1.410 . S
C1544 C1545 1.392 . S
C1544 C1547 1.511 1_554 S
C1545 C1541 1.376 . S
C1545 C1544 1.392 . S
C1545 H1557 0.928 . S
C1546 C1542 1.531 . S
C1546 H1558 0.960 . S
C1546 H1559 0.962 . S
C1546 H1560 0.960 . S
C1547 C1544 1.511 1_556 S
C1547 H1561 0.961 . S
C1547 H1562 0.961 1_556 S
C1547 H1563 0.961 . S
C1548 C1549 1.370 . S
C1548 C1550 1.363 . S
C1548 H1564 0.931 . S
C1549 C1548 1.370 . S
C1549 C1553 1.408 . S
C1550 C1548 1.363 . S
C1550 C1551 1.370 . S
C1550 C1554 1.524 . S
C1551 C1543 1.503 . S
C1551 C1550 1.370 . S
C1551 C1552 1.403 . S
C1552 C1551 1.403 . S
C1552 C1553 1.404 . S
C1552 C1555 1.539 1_554 S
C1553 C1549 1.408 . S
C1553 C1552 1.404 . S
C1553 H1565 0.930 1_554 S
C1554 C1550 1.524 . S
C1554 H1566 0.956 . S
C1554 H1567 0.961 . S
C1554 H1568 0.961 . S
C1555 C1552 1.539 1_556 S
C1555 H1569 0.958 . S
C1555 H1570 0.961 . S
C1555 H1571 0.960 . S
H1556 C1540 0.931 . S
H1557 C1545 0.928 . S
H1558 C1546 0.960 . S
H1559 C1546 0.962 . S
H1560 C1546 0.960 . S
H1561 C1547 0.961 . S
H1562 C1547 0.961 1_554 S
H1563 C1547 0.961 . S
H1564 C1548 0.931 . S
H1565 C1553 0.930 1_556 S
H1566 C1554 0.956 . S
H1567 C1554 0.961 . S
H1568 C1554 0.961 . S
H1569 C1555 0.958 . S
H1570 C1555 0.961 . S
H1571 C1555 0.960 . S
C1572 C1573 1.391 . S
C1572 C1574 1.394 . S
C1572 H1588 0.931 . S
C1573 C1572 1.391 . S
C1573 C1577 1.376 . S
C1574 C1572 1.394 . S
C1574 C1575 1.369 . S
C1574 C1578 1.531 . S
C1575 C1574 1.369 . S
C1575 C1576 1.410 . S
C1575 C1583 1.503 . S
C1576 C1575 1.410 . S
C1576 C1577 1.392 . S
C1576 C1579 1.527 . S
C1577 C1573 1.376 . S
C1577 C1576 1.392 . S
C1577 H1589 0.929 . S
C1578 C1574 1.531 . S
C1578 H1590 0.960 . S
C1578 H1591 0.962 . S
C1578 H1592 0.960 . S
C1579 C1576 1.527 . S
C1579 H1593 0.953 1_455 S
C1579 H1594 0.977 . S
C1579 H1595 0.937 1_455 S
C1580 C1581 1.370 . S
C1580 C1582 1.363 . S
C1580 H1596 0.931 . S
C1581 C1580 1.370 . S
C1581 C1585 1.408 . S
C1582 C1580 1.363 . S
C1582 C1583 1.370 . S
C1582 C1586 1.524 . S
C1583 C1575 1.503 . S
C1583 C1582 1.370 . S
C1583 C1584 1.403 . S
C1584 C1583 1.403 . S
C1584 C1585 1.404 . S
C1584 C1587 1.539 . S
C1585 C1581 1.408 . S
C1585 C1584 1.404 . S
C1585 H1597 0.930 . S
C1586 C1582 1.524 . S
C1586 H1598 0.956 . S
C1586 H1599 0.961 . S
C1586 H1600 0.961 . S
C1587 C1584 1.539 . S
C1587 H1601 0.958 . S
C1587 H1602 0.961 1_455 S
C1587 H1603 0.960 1_455 S
H1588 C1572 0.931 . S
H1589 C1577 0.929 . S
H1590 C1578 0.960 . S
H1591 C1578 0.962 . S
H1592 C1578 0.960 . S
H1593 C1579 0.953 1_655 S
H1594 C1579 0.977 . S
H1595 C1579 0.937 1_655 S
H1596 C1580 0.931 . S
H1597 C1585 0.930 . S
H1598 C1586 0.956 . S
H1599 C1586 0.961 . S
H1600 C1586 0.961 . S
H1601 C1587 0.958 . S
H1602 C1587 0.961 1_655 S
H1603 C1587 0.960 1_655 S
C1604 C1605 1.391 1_455 S
C1604 C1606 1.394 . S
C1604 H1620 0.931 . S
C1605 C1604 1.391 1_655 S
C1605 C1609 1.376 . S
C1606 C1604 1.394 . S
C1606 C1607 1.369 1_455 S
C1606 C1610 1.531 . S
C1607 C1606 1.369 1_655 S
C1607 C1608 1.410 . S
C1607 C1615 1.503 . S
C1608 C1607 1.410 . S
C1608 C1609 1.392 . S
C1608 C1611 1.511 . S
C1609 C1605 1.376 . S
C1609 C1608 1.392 . S
C1609 H1621 0.929 . S
C1610 C1606 1.531 . S
C1610 H1622 0.960 . S
C1610 H1623 0.962 . S
C1610 H1624 0.960 . S
C1611 C1608 1.511 . S
C1611 H1625 0.961 . S
C1611 H1626 0.961 . S
C1611 H1627 0.961 . S
C1612 C1613 1.370 . S
C1612 C1614 1.363 . S
C1612 H1628 0.931 . S
C1613 C1612 1.370 . S
C1613 C1617 1.408 . S
C1614 C1612 1.363 . S
C1614 C1615 1.370 . S
C1614 C1618 1.524 1_655 S
C1615 C1607 1.503 . S
C1615 C1614 1.370 . S
C1615 C1616 1.403 . S
C1616 C1615 1.403 . S
C1616 C1617 1.404 . S
C1616 C1619 1.539 . S
C1617 C1613 1.408 . S
C1617 C1616 1.404 . S
C1617 H1629 0.930 . S
C1618 C1614 1.524 1_455 S
C1618 H1630 0.956 . S
C1618 H1631 0.961 1_455 S
C1618 H1632 0.961 . S
C1619 C1616 1.539 . S
C1619 H1633 0.958 . S
C1619 H1634 0.961 . S
C1619 H1635 0.960 . S
H1620 C1604 0.931 . S
H1621 C1609 0.929 . S
H1622 C1610 0.960 . S
H1623 C1610 0.962 . S
H1624 C1610 0.960 . S
H1625 C1611 0.961 . S
H1626 C1611 0.961 . S
H1627 C1611 0.961 . S
H1628 C1612 0.931 . S
H1629 C1617 0.930 . S
H1630 C1618 0.956 . S
H1631 C1618 0.961 1_655 S
H1632 C1618 0.961 . S
H1633 C1619 0.958 . S
H1634 C1619 0.961 . S
H1635 C1619 0.960 . S
C1636 C1637 1.391 . S
C1636 C1638 1.394 . S
C1636 H1652 0.931 . S
C1637 C1636 1.391 . S
C1637 C1641 1.377 . S
C1638 C1636 1.394 . S
C1638 C1639 1.369 . S
C1638 C1642 1.531 . S
C1639 C1638 1.369 . S
C1639 C1640 1.410 1_455 S
C1639 C1647 1.503 . S
C1640 C1639 1.410 1_655 S
C1640 C1641 1.392 1_655 S
C1640 C1643 1.511 . S
C1641 C1637 1.377 . S
C1641 C1640 1.392 1_455 S
C1641 H1653 0.928 1_455 S
C1642 C1638 1.531 . S
C1642 H1654 0.960 . S
C1642 H1655 0.962 . S
C1642 H1656 0.960 . S
C1643 C1640 1.511 . S
C1643 H1657 0.961 . S
C1643 H1658 0.961 . S
C1643 H1659 0.961 . S
C1644 C1645 1.370 . S
C1644 C1646 1.363 . S
C1644 H1660 0.931 . S
C1645 C1644 1.370 . S
C1645 C1649 1.408 1_455 S
C1646 C1644 1.363 . S
C1646 C1647 1.370 . S
C1646 C1650 1.524 . S
C1647 C1639 1.503 . S
C1647 C1646 1.370 . S
C1647 C1648 1.403 1_455 S
C1648 C1647 1.403 1_655 S
C1648 C1649 1.404 . S
C1648 C1651 1.539 . S
C1649 C1645 1.408 1_655 S
C1649 C1648 1.404 . S
C1649 H1661 0.930 . S
C1650 C1646 1.524 . S
C1650 H1662 0.956 . S
C1650 H1663 0.961 . S
C1650 H1664 0.961 . S
C1651 C1648 1.539 . S
C1651 H1665 0.958 . S
C1651 H1666 0.961 . S
C1651 H1667 0.960 . S
H1652 C1636 0.931 . S
H1653 C1641 0.928 1_655 S
H1654 C1642 0.960 . S
H1655 C1642 0.962 . S
H1656 C1642 0.960 . S
H1657 C1643 0.961 . S
H1658 C1643 0.961 . S
H1659 C1643 0.961 . S
H1660 C1644 0.931 . S
H1661 C1649 0.930 . S
H1662 C1650 0.956 . S
H1663 C1650 0.961 . S
H1664 C1650 0.961 . S
H1665 C1651 0.958 . S
H1666 C1651 0.961 . S
H1667 C1651 0.960 . S
C1668 C1669 1.391 . S
C1668 C1670 1.394 . S
C1668 H1684 0.931 . S
C1669 C1668 1.391 . S
C1669 C1673 1.376 . S
C1670 C1668 1.394 . S
C1670 C1671 1.369 . S
C1670 C1674 1.531 . S
C1671 C1670 1.369 . S
C1671 C1672 1.410 . S
C1671 C1679 1.503 . S
C1672 C1671 1.410 . S
C1672 C1673 1.392 . S
C1672 C1675 1.511 1_655 S
C1673 C1669 1.376 . S
C1673 C1672 1.392 . S
C1673 H1685 0.929 1_655 S
C1674 C1670 1.531 . S
C1674 H1686 0.960 . S
C1674 H1687 0.962 . S
C1674 H1688 0.960 . S
C1675 C1672 1.511 1_455 S
C1675 H1689 0.961 . S
C1675 H1690 0.961 . S
C1675 H1691 0.961 . S
C1676 C1677 1.370 . S
C1676 C1678 1.363 . S
C1676 H1692 0.931 . S
C1677 C1676 1.370 . S
C1677 C1681 1.408 . S
C1678 C1676 1.363 . S
C1678 C1679 1.370 . S
C1678 C1682 1.524 1_655 S
C1679 C1671 1.503 . S
C1679 C1678 1.370 . S
C1679 C1680 1.403 . S
C1680 C1679 1.403 . S
C1680 C1681 1.404 . S
C1680 C1683 1.539 . S
C1681 C1677 1.408 . S
C1681 C1680 1.404 . S
C1681 H1693 0.930 . S
C1682 C1678 1.524 1_455 S
C1682 H1694 0.956 1_455 S
C1682 H1695 0.961 . S
C1682 H1696 0.961 . S
C1683 C1680 1.539 . S
C1683 H1697 0.958 . S
C1683 H1698 0.961 . S
C1683 H1699 0.960 . S
H1684 C1668 0.931 . S
H1685 C1673 0.929 1_455 S
H1686 C1674 0.960 . S
H1687 C1674 0.962 . S
H1688 C1674 0.960 . S
H1689 C1675 0.961 . S
H1690 C1675 0.961 . S
H1691 C1675 0.961 . S
H1692 C1676 0.931 . S
H1693 C1681 0.930 . S
H1694 C1682 0.956 1_655 S
H1695 C1682 0.961 . S
H1696 C1682 0.961 . S
H1697 C1683 0.958 . S
H1698 C1683 0.961 . S
H1699 C1683 0.960 . S
C1700 C1701 1.391 . S
C1700 C1702 1.394 . S
C1700 H1716 0.931 . S
C1701 C1700 1.391 . S
C1701 C1705 1.376 . S
C1702 C1700 1.394 . S
C1702 C1703 1.369 . S
C1702 C1706 1.531 . S
C1703 C1702 1.369 . S
C1703 C1704 1.410 . S
C1703 C1711 1.503 . S
C1704 C1703 1.410 . S
C1704 C1705 1.392 . S
C1704 C1707 1.511 . S
C1705 C1701 1.376 . S
C1705 C1704 1.392 . S
C1705 H1717 0.929 . S
C1706 C1702 1.531 . S
C1706 H1718 0.960 . S
C1706 H1719 0.962 . S
C1706 H1720 0.960 . S
C1707 C1704 1.511 . S
C1707 H1721 0.961 . S
C1707 H1722 0.961 . S
C1707 H1723 0.961 . S
C1708 C1709 1.370 . S
C1708 C1710 1.363 . S
C1708 H1724 0.931 . S
C1709 C1708 1.370 . S
C1709 C1713 1.408 . S
C1710 C1708 1.363 . S
C1710 C1711 1.370 . S
C1710 C1714 1.524 1_545 S
C1711 C1703 1.503 . S
C1711 C1710 1.370 . S
C1711 C1712 1.403 . S
C1712 C1711 1.403 . S
C1712 C1713 1.404 . S
C1712 C1715 1.539 . S
C1713 C1709 1.408 . S
C1713 C1712 1.404 . S
C1713 H1725 0.930 . S
C1714 C1710 1.524 1_565 S
C1714 H1726 0.956 . S
C1714 H1727 0.961 . S
C1714 H1728 0.961 . S
C1715 C1712 1.539 . S
C1715 H1729 0.958 . S
C1715 H1730 0.961 . S
C1715 H1731 0.960 . S
H1716 C1700 0.931 . S
H1717 C1705 0.929 . S
H1718 C1706 0.960 . S
H1719 C1706 0.962 . S
H1720 C1706 0.960 . S
H1721 C1707 0.961 . S
H1722 C1707 0.961 . S
H1723 C1707 0.961 . S
H1724 C1708 0.931 . S
H1725 C1713 0.930 . S
H1726 C1714 0.956 . S
H1727 C1714 0.961 . S
H1728 C1714 0.961 . S
H1729 C1715 0.958 . S
H1730 C1715 0.961 . S
H1731 C1715 0.960 . S
C1732 C1733 1.391 . S
C1732 C1734 1.394 . S
C1732 H1748 0.931 . S
C1733 C1732 1.391 . S
C1733 C1737 1.376 . S
C1734 C1732 1.394 . S
C1734 C1735 1.369 . S
C1734 C1738 1.531 . S
C1735 C1734 1.369 . S
C1735 C1736 1.410 . S
C1735 C1743 1.503 . S
C1736 C1735 1.410 . S
C1736 C1737 1.392 . S
C1736 C1739 1.511 . S
C1737 C1733 1.376 . S
C1737 C1736 1.392 . S
C1737 H1749 0.929 . S
C1738 C1734 1.531 . S
C1738 H1750 0.960 . S
C1738 H1751 0.962 . S
C1738 H1752 0.960 . S
C1739 C1736 1.511 . S
C1739 H1753 0.961 . S
C1739 H1754 0.961 . S
C1739 H1755 0.961 . S
C1740 C1741 1.370 . S
C1740 C1742 1.363 . S
C1740 H1756 0.931 . S
C1741 C1740 1.370 . S
C1741 C1745 1.408 . S
C1742 C1740 1.363 . S
C1742 C1743 1.370 . S
C1742 C1746 1.524 . S
C1743 C1735 1.503 . S
C1743 C1742 1.370 . S
C1743 C1744 1.403 . S
C1744 C1743 1.403 . S
C1744 C1745 1.404 . S
C1744 C1747 1.539 . S
C1745 C1741 1.408 . S
C1745 C1744 1.404 . S
C1745 H1757 0.930 . S
C1746 C1742 1.524 . S
C1746 H1758 0.956 . S
C1746 H1759 0.961 . S
C1746 H1760 0.961 . S
C1747 C1744 1.539 . S
C1747 H1761 0.958 . S
C1747 H1762 0.961 . S
C1747 H1763 0.960 . S
H1748 C1732 0.931 . S
H1749 C1737 0.929 . S
H1750 C1738 0.960 . S
H1751 C1738 0.962 . S
H1752 C1738 0.960 . S
H1753 C1739 0.961 . S
H1754 C1739 0.961 . S
H1755 C1739 0.961 . S
H1756 C1740 0.931 . S
H1757 C1745 0.930 . S
H1758 C1746 0.956 . S
H1759 C1746 0.961 . S
H1760 C1746 0.961 . S
H1761 C1747 0.958 . S
H1762 C1747 0.961 . S
H1763 C1747 0.960 . S
C1764 C1765 1.391 . S
C1764 C1766 1.394 . S
C1764 H1780 0.931 . S
C1765 C1764 1.391 . S
C1765 C1769 1.376 1_565 S
C1766 C1764 1.394 . S
C1766 C1767 1.369 . S
C1766 C1770 1.531 . S
C1767 C1766 1.369 . S
C1767 C1768 1.410 1_565 S
C1767 C1775 1.503 . S
C1768 C1767 1.410 1_545 S
C1768 C1769 1.392 . S
C1768 C1771 1.511 . S
C1769 C1765 1.376 1_545 S
C1769 C1768 1.392 . S
C1769 H1781 0.929 . S
C1770 C1766 1.531 . S
C1770 H1782 0.960 . S
C1770 H1783 0.962 . S
C1770 H1784 0.960 . S
C1771 C1768 1.511 . S
C1771 H1785 0.961 . S
C1771 H1786 0.961 . S
C1771 H1787 0.961 . S
C1772 C1773 1.370 . S
C1772 C1774 1.363 . S
C1772 H1788 0.931 . S
C1773 C1772 1.370 . S
C1773 C1777 1.408 . S
C1774 C1772 1.363 . S
C1774 C1775 1.370 . S
C1774 C1778 1.524 . S
C1775 C1767 1.503 . S
C1775 C1774 1.370 . S
C1775 C1776 1.403 . S
C1776 C1775 1.403 . S
C1776 C1777 1.404 . S
C1776 C1779 1.539 1_565 S
C1777 C1773 1.408 . S
C1777 C1776 1.404 . S
C1777 H1789 0.930 . S
C1778 C1774 1.524 . S
C1778 H1790 0.956 . S
C1778 H1791 0.961 . S
C1778 H1792 0.961 . S
C1779 C1776 1.539 1_545 S
C1779 H1793 0.958 1_545 S
C1779 H1794 0.961 . S
C1779 H1795 0.960 . S
H1780 C1764 0.931 . S
H1781 C1769 0.929 . S
H1782 C1770 0.960 . S
H1783 C1770 0.962 . S
H1784 C1770 0.960 . S
H1785 C1771 0.961 . S
H1786 C1771 0.961 . S
H1787 C1771 0.961 . S
H1788 C1772 0.931 . S
H1789 C1777 0.930 . S
H1790 C1778 0.956 . S
H1791 C1778 0.961 . S
H1792 C1778 0.961 . S
H1793 C1779 0.958 1_565 S
H1794 C1779 0.961 . S
H1795 C1779 0.960 . S
C1796 C1797 1.391 . S
C1796 C1798 1.394 . S
C1796 H1812 0.931 . S
C1797 C1796 1.391 . S
C1797 C1801 1.376 . S
C1798 C1796 1.394 . S
C1798 C1799 1.369 . S
C1798 C1802 1.531 . S
C1799 C1798 1.369 . S
C1799 C1800 1.410 . S
C1799 C1807 1.503 . S
C1800 C1799 1.410 . S
C1800 C1801 1.392 . S
C1800 C1803 1.511 . S
C1801 C1797 1.376 . S
C1801 C1800 1.392 . S
C1801 H1813 0.929 . S
C1802 C1798 1.531 . S
C1802 H1814 0.960 . S
C1802 H1815 0.962 . S
C1802 H1816 0.960 . S
C1803 C1800 1.511 . S
C1803 H1817 0.961 . S
C1803 H1818 0.961 . S
C1803 H1819 0.961 . S
C1804 C1805 1.370 . S
C1804 C1806 1.363 . S
C1804 H1820 0.931 . S
C1805 C1804 1.370 . S
C1805 C1809 1.408 . S
C1806 C1804 1.363 . S
C1806 C1807 1.370 . S
C1806 C1810 1.524 . S
C1807 C1799 1.503 . S
C1807 C1806 1.370 . S
C1807 C1808 1.403 . S
C1808 C1807 1.403 . S
C1808 C1809 1.404 . S
C1808 C1811 1.539 . S
C1809 C1805 1.408 . S
C1809 C1808 1.404 . S
C1809 H1821 0.930 . S
C1810 C1806 1.524 . S
C1810 H1822 0.956 . S
C1810 H1823 0.961 . S
C1810 H1824 0.961 . S
C1811 C1808 1.539 . S
C1811 H1825 0.958 . S
C1811 H1826 0.961 . S
C1811 H1827 0.960 . S
H1812 C1796 0.931 . S
H1813 C1801 0.929 . S
H1814 C1802 0.960 . S
H1815 C1802 0.962 . S
H1816 C1802 0.960 . S
H1817 C1803 0.961 . S
H1818 C1803 0.961 . S
H1819 C1803 0.961 . S
H1820 C1804 0.931 . S
H1821 C1809 0.930 . S
H1822 C1810 0.956 . S
H1823 C1810 0.961 . S
H1824 C1810 0.961 . S
H1825 C1811 0.958 . S
H1826 C1811 0.961 . S
H1827 C1811 0.960 . S
C1828 C1829 1.391 . S
C1828 C1830 1.394 . S
C1828 H1844 0.931 . S
C1829 C1828 1.391 . S
C1829 C1833 1.376 . S
C1830 C1828 1.394 . S
C1830 C1831 1.369 . S
C1830 C1834 1.531 . S
C1831 C1830 1.369 . S
C1831 C1832 1.410 . S
C1831 C1839 1.503 . S
C1832 C1831 1.410 . S
C1832 C1833 1.392 . S
C1832 C1835 1.511 . S
C1833 C1829 1.376 . S
C1833 C1832 1.392 . S
C1833 H1845 0.929 . S
C1834 C1830 1.531 . S
C1834 H1846 0.960 . S
C1834 H1847 0.962 . S
C1834 H1848 0.960 . S
C1835 C1832 1.511 . S
C1835 H1849 0.961 . S
C1835 H1850 0.961 . S
C1835 H1851 0.957 . S
C1836 C1837 1.370 . S
C1836 C1838 1.363 . S
C1836 H1852 0.931 . S
C1837 C1836 1.370 . S
C1837 C1841 1.408 . S
C1838 C1836 1.363 . S
C1838 C1839 1.370 . S
C1838 C1842 1.524 . S
C1839 C1831 1.503 . S
C1839 C1838 1.370 . S
C1839 C1840 1.403 1_554 S
C1840 C1839 1.403 1_556 S
C1840 C1841 1.404 1_556 S
C1840 C1843 1.539 . S
C1841 C1837 1.408 . S
C1841 C1840 1.404 1_554 S
C1841 H1853 0.930 1_554 S
C1842 C1838 1.524 . S
C1842 H1854 0.956 . S
C1842 H1855 0.961 . S
C1842 H1856 0.961 . S
C1843 C1840 1.539 . S
C1843 H1857 0.958 . S
C1843 H1858 0.961 . S
C1843 H1859 0.960 . S
H1844 C1828 0.931 . S
H1845 C1833 0.929 . S
H1846 C1834 0.960 . S
H1847 C1834 0.962 . S
H1848 C1834 0.960 . S
H1849 C1835 0.961 . S
H1850 C1835 0.961 . S
H1851 C1835 0.957 . S
H1852 C1836 0.931 . S
H1853 C1841 0.930 1_556 S
H1854 C1842 0.956 . S
H1855 C1842 0.961 . S
H1856 C1842 0.961 . S
H1857 C1843 0.958 . S
H1858 C1843 0.961 . S
H1859 C1843 0.960 . S
C1860 C1861 1.391 . S
C1860 C1862 1.394 . S
C1860 H1876 0.931 . S
C1861 C1860 1.391 . S
C1861 C1865 1.376 . S
C1862 C1860 1.394 . S
C1862 C1863 1.369 . S
C1862 C1866 1.531 . S
C1863 C1862 1.369 . S
C1863 C1864 1.410 . S
C1863 C1871 1.503 . S
C1864 C1863 1.410 . S
C1864 C1865 1.392 . S
C1864 C1867 1.511 . S
C1865 C1861 1.376 . S
C1865 C1864 1.392 . S
C1865 H1877 0.929 . S
C1866 C1862 1.531 . S
C1866 H1878 0.960 . S
C1866 H1879 0.962 . S
C1866 H1880 0.960 . S
C1867 C1864 1.511 . S
C1867 H1881 0.961 . S
C1867 H1882 0.961 . S
C1867 H1883 0.961 . S
C1868 C1869 1.370 . S
C1868 C1870 1.363 . S
C1868 H1884 0.931 . S
C1869 C1868 1.370 . S
C1869 C1873 1.408 . S
C1870 C1868 1.363 . S
C1870 C1871 1.370 . S
C1870 C1874 1.524 . S
C1871 C1863 1.503 . S
C1871 C1870 1.370 . S
C1871 C1872 1.403 . S
C1872 C1871 1.403 . S
C1872 C1873 1.404 . S
C1872 C1875 1.539 . S
C1873 C1869 1.408 . S
C1873 C1872 1.404 . S
C1873 H1885 0.930 . S
C1874 C1870 1.524 . S
C1874 H1886 0.956 . S
C1874 H1887 0.961 . S
C1874 H1888 0.961 . S
C1875 C1872 1.539 . S
C1875 H1889 0.958 . S
C1875 H1890 0.961 . S
C1875 H1891 0.960 . S
H1876 C1860 0.931 . S
H1877 C1865 0.929 . S
H1878 C1866 0.960 . S
H1879 C1866 0.962 . S
H1880 C1866 0.960 . S
H1881 C1867 0.961 . S
H1882 C1867 0.961 . S
H1883 C1867 0.961 . S
H1884 C1868 0.931 . S
H1885 C1873 0.930 . S
H1886 C1874 0.956 . S
H1887 C1874 0.961 . S
H1888 C1874 0.961 . S
H1889 C1875 0.958 . S
H1890 C1875 0.961 . S
H1891 C1875 0.960 . S
C1892 C1893 1.391 . S
C1892 C1894 1.394 . S
C1892 H1908 0.931 . S
C1893 C1892 1.391 . S
C1893 C1897 1.376 . S
C1894 C1892 1.394 . S
C1894 C1895 1.369 . S
C1894 C1898 1.531 . S
C1895 C1894 1.369 . S
C1895 C1896 1.410 . S
C1895 C1903 1.503 . S
C1896 C1895 1.410 . S
C1896 C1897 1.392 . S
C1896 C1899 1.511 . S
C1897 C1893 1.376 . S
C1897 C1896 1.392 . S
C1897 H1909 0.929 . S
C1898 C1894 1.531 . S
C1898 H1910 0.960 . S
C1898 H1911 0.962 . S
C1898 H1912 0.960 . S
C1899 C1896 1.511 . S
C1899 H1913 0.961 . S
C1899 H1914 0.961 . S
C1899 H1915 0.961 . S
C1900 C1901 1.370 . S
C1900 C1902 1.363 . S
C1900 H1916 0.931 . S
C1901 C1900 1.370 . S
C1901 C1905 1.408 . S
C1902 C1900 1.363 . S
C1902 C1903 1.370 . S
C1902 C1906 1.524 . S
C1903 C1895 1.503 . S
C1903 C1902 1.370 . S
C1903 C1904 1.403 . S
C1904 C1903 1.403 . S
C1904 C1905 1.404 . S
C1904 C1907 1.539 . S
C1905 C1901 1.408 . S
C1905 C1904 1.404 . S
C1905 H1917 0.930 . S
C1906 C1902 1.524 . S
C1906 H1918 0.956 . S
C1906 H1919 0.961 . S
C1906 H1920 0.961 . S
C1907 C1904 1.539 . S
C1907 H1921 0.958 . S
C1907 H1922 0.961 . S
C1907 H1923 0.960 . S
H1908 C1892 0.931 . S
H1909 C1897 0.929 . S
H1910 C1898 0.960 . S
H1911 C1898 0.962 . S
H1912 C1898 0.960 . S
H1913 C1899 0.961 . S
H1914 C1899 0.961 . S
H1915 C1899 0.961 . S
H1916 C1900 0.931 . S
H1917 C1905 0.930 . S
H1918 C1906 0.956 . S
H1919 C1906 0.961 . S
H1920 C1906 0.961 . S
H1921 C1907 0.958 . S
H1922 C1907 0.961 . S
H1923 C1907 0.960 . S
C1924 C1925 1.391 . S
C1924 C1926 1.394 . S
C1924 H1940 0.931 . S
C1925 C1924 1.391 . S
C1925 C1929 1.376 . S
C1926 C1924 1.394 . S
C1926 C1927 1.369 . S
C1926 C1930 1.531 . S
C1927 C1926 1.369 . S
C1927 C1928 1.410 . S
C1927 C1935 1.503 . S
C1928 C1927 1.410 . S
C1928 C1929 1.392 . S
C1928 C1931 1.511 . S
C1929 C1925 1.376 . S
C1929 C1928 1.392 . S
C1929 H1941 0.929 . S
C1930 C1926 1.531 . S
C1930 H1942 0.960 . S
C1930 H1943 0.962 . S
C1930 H1944 0.960 . S
C1931 C1928 1.511 . S
C1931 H1945 0.961 . S
C1931 H1946 0.961 . S
C1931 H1947 0.961 . S
C1932 C1933 1.370 . S
C1932 C1934 1.363 . S
C1932 H1948 0.931 . S
C1933 C1932 1.370 . S
C1933 C1937 1.408 . S
C1934 C1932 1.363 . S
C1934 C1935 1.370 . S
C1934 C1938 1.524 . S
C1935 C1927 1.503 . S
C1935 C1934 1.370 . S
C1935 C1936 1.403 . S
C1936 C1935 1.403 . S
C1936 C1937 1.404 . S
C1936 C1939 1.539 . S
C1937 C1933 1.408 . S
C1937 C1936 1.404 . S
C1937 H1949 0.930 . S
C1938 C1934 1.524 . S
C1938 H1950 0.956 . S
C1938 H1951 0.961 . S
C1938 H1952 0.961 . S
C1939 C1936 1.539 . S
C1939 H1953 0.958 . S
C1939 H1954 0.961 . S
C1939 H1955 0.960 . S
H1940 C1924 0.931 . S
H1941 C1929 0.929 . S
H1942 C1930 0.960 . S
H1943 C1930 0.962 . S
H1944 C1930 0.960 . S
H1945 C1931 0.961 . S
H1946 C1931 0.961 . S
H1947 C1931 0.961 . S
H1948 C1932 0.931 . S
H1949 C1937 0.930 . S
H1950 C1938 0.956 . S
H1951 C1938 0.961 . S
H1952 C1938 0.961 . S
H1953 C1939 0.958 . S
H1954 C1939 0.961 . S
H1955 C1939 0.960 . S
C1956 C1957 1.391 . S
C1956 C1958 1.394 . S
C1956 H1972 0.931 . S
C1957 C1956 1.391 . S
C1957 C1961 1.376 . S
C1958 C1956 1.394 . S
C1958 C1959 1.369 . S
C1958 C1962 1.531 . S
C1959 C1958 1.369 . S
C1959 C1960 1.410 . S
C1959 C1967 1.503 . S
C1960 C1959 1.410 . S
C1960 C1961 1.392 . S
C1960 C1963 1.511 . S
C1961 C1957 1.376 . S
C1961 C1960 1.392 . S
C1961 H1973 0.929 . S
C1962 C1958 1.531 . S
C1962 H1974 0.960 . S
C1962 H1975 0.962 . S
C1962 H1976 0.960 . S
C1963 C1960 1.511 . S
C1963 H1977 0.961 . S
C1963 H1978 0.961 . S
C1963 H1979 0.961 . S
C1964 C1965 1.370 . S
C1964 C1966 1.363 . S
C1964 H1980 0.931 . S
C1965 C1964 1.370 . S
C1965 C1969 1.408 . S
C1966 C1964 1.363 . S
C1966 C1967 1.370 . S
C1966 C1970 1.524 . S
C1967 C1959 1.503 . S
C1967 C1966 1.370 . S
C1967 C1968 1.403 . S
C1968 C1967 1.403 . S
C1968 C1969 1.404 . S
C1968 C1971 1.539 . S
C1969 C1965 1.408 . S
C1969 C1968 1.404 . S
C1969 H1981 0.930 . S
C1970 C1966 1.524 . S
C1970 H1982 0.956 . S
C1970 H1983 0.961 . S
C1970 H1984 0.961 . S
C1971 C1968 1.539 . S
C1971 H1985 0.958 . S
C1971 H1986 0.961 . S
C1971 H1987 0.960 . S
H1972 C1956 0.931 . S
H1973 C1961 0.929 . S
H1974 C1962 0.960 . S
H1975 C1962 0.962 . S
H1976 C1962 0.960 . S
H1977 C1963 0.961 . S
H1978 C1963 0.961 . S
H1979 C1963 0.961 . S
H1980 C1964 0.931 . S
H1981 C1969 0.930 . S
H1982 C1970 0.956 . S
H1983 C1970 0.961 . S
H1984 C1970 0.961 . S
H1985 C1971 0.958 . S
H1986 C1971 0.961 . S
H1987 C1971 0.960 . S
C1988 C1989 1.391 . S
C1988 C1990 1.394 . S
C1988 H2004 0.931 . S
C1989 C1988 1.391 . S
C1989 C1993 1.376 . S
C1990 C1988 1.394 . S
C1990 C1991 1.369 . S
C1990 C1994 1.531 . S
C1991 C1990 1.369 . S
C1991 C1992 1.410 . S
C1991 C1999 1.503 . S
C1992 C1991 1.410 . S
C1992 C1993 1.392 . S
C1992 C1995 1.511 . S
C1993 C1989 1.376 . S
C1993 C1992 1.392 . S
C1993 H2005 0.929 . S
C1994 C1990 1.531 . S
C1994 H2006 0.960 . S
C1994 H2007 0.962 . S
C1994 H2008 0.960 . S
C1995 C1992 1.511 . S
C1995 H2009 0.961 . S
C1995 H2010 0.961 . S
C1995 H2011 0.961 . S
C1996 C1997 1.370 . S
C1996 C1998 1.363 . S
C1996 H2012 0.931 . S
C1997 C1996 1.370 . S
C1997 C2001 1.408 . S
C1998 C1996 1.363 . S
C1998 C1999 1.370 . S
C1998 C2002 1.524 . S
C1999 C1991 1.503 . S
C1999 C1998 1.370 . S
C1999 C2000 1.403 . S
C2000 C1999 1.403 . S
C2000 C2001 1.404 . S
C2000 C2003 1.539 . S
C2001 C1997 1.408 . S
C2001 C2000 1.404 . S
C2001 H2013 0.930 . S
C2002 C1998 1.524 . S
C2002 H2014 0.956 . S
C2002 H2015 0.961 . S
C2002 H2016 0.961 . S
C2003 C2000 1.539 . S
C2003 H2017 0.958 . S
C2003 H2018 0.961 . S
C2003 H2019 0.960 . S
H2004 C1988 0.931 . S
H2005 C1993 0.929 . S
H2006 C1994 0.960 . S
H2007 C1994 0.962 . S
H2008 C1994 0.960 . S
H2009 C1995 0.961 . S
H2010 C1995 0.961 . S
H2011 C1995 0.961 . S
H2012 C1996 0.931 . S
H2013 C2001 0.930 . S
H2014 C2002 0.956 . S
H2015 C2002 0.961 . S
H2016 C2002 0.961 . S
H2017 C2003 0.958 . S
H2018 C2003 0.961 . S
H2019 C2003 0.960 . S
C2020 C2021 1.391 . S
C2020 C2022 1.394 . S
C2020 H2036 0.931 . S
C2021 C2020 1.391 . S
C2021 C2025 1.376 . S
C2022 C2020 1.394 . S
C2022 C2023 1.369 . S
C2022 C2026 1.531 . S
C2023 C2022 1.369 . S
C2023 C2024 1.410 . S
C2023 C2031 1.503 . S
C2024 C2023 1.410 . S
C2024 C2025 1.392 . S
C2024 C2027 1.511 . S
C2025 C2021 1.376 . S
C2025 C2024 1.392 . S
C2025 H2037 0.929 . S
C2026 C2022 1.531 . S
C2026 H2038 0.960 . S
C2026 H2039 0.962 . S
C2026 H2040 0.960 . S
C2027 C2024 1.511 . S
C2027 H2041 0.961 . S
C2027 H2042 0.961 . S
C2027 H2043 0.961 . S
C2028 C2029 1.370 . S
C2028 C2030 1.363 . S
C2028 H2044 0.931 . S
C2029 C2028 1.370 . S
C2029 C2033 1.408 . S
C2030 C2028 1.363 . S
C2030 C2031 1.370 . S
C2030 C2034 1.524 . S
C2031 C2023 1.503 . S
C2031 C2030 1.370 . S
C2031 C2032 1.403 . S
C2032 C2031 1.403 . S
C2032 C2033 1.404 . S
C2032 C2035 1.539 . S
C2033 C2029 1.408 . S
C2033 C2032 1.404 . S
C2033 H2045 0.930 . S
C2034 C2030 1.524 . S
C2034 H2046 0.956 . S
C2034 H2047 0.961 . S
C2034 H2048 0.961 . S
C2035 C2032 1.539 . S
C2035 H2049 0.958 . S
C2035 H2050 0.961 . S
C2035 H2051 0.960 . S
H2036 C2020 0.931 . S
H2037 C2025 0.929 . S
H2038 C2026 0.960 . S
H2039 C2026 0.962 . S
H2040 C2026 0.960 . S
H2041 C2027 0.961 . S
H2042 C2027 0.961 . S
H2043 C2027 0.961 . S
H2044 C2028 0.931 . S
H2045 C2033 0.930 . S
H2046 C2034 0.956 . S
H2047 C2034 0.961 . S
H2048 C2034 0.961 . S
H2049 C2035 0.958 . S
H2050 C2035 0.961 . S
H2051 C2035 0.960 . S
C2052 C2053 1.391 . S
C2052 C2054 1.394 . S
C2052 H2068 0.931 . S
C2053 C2052 1.391 . S
C2053 C2057 1.376 . S
C2054 C2052 1.394 . S
C2054 C2055 1.369 . S
C2054 C2058 1.531 . S
C2055 C2054 1.369 . S
C2055 C2056 1.410 . S
C2055 C2063 1.503 . S
C2056 C2055 1.410 . S
C2056 C2057 1.392 . S
C2056 C2059 1.511 . S
C2057 C2053 1.376 . S
C2057 C2056 1.392 . S
C2057 H2069 0.929 . S
C2058 C2054 1.531 . S
C2058 H2070 0.960 . S
C2058 H2071 0.962 . S
C2058 H2072 0.960 . S
C2059 C2056 1.511 . S
C2059 H2073 0.961 . S
C2059 H2074 0.961 . S
C2059 H2075 0.961 . S
C2060 C2061 1.370 . S
C2060 C2062 1.363 . S
C2060 H2076 0.931 . S
C2061 C2060 1.370 . S
C2061 C2065 1.408 . S
C2062 C2060 1.363 . S
C2062 C2063 1.370 . S
C2062 C2066 1.524 . S
C2063 C2055 1.503 . S
C2063 C2062 1.370 . S
C2063 C2064 1.403 . S
C2064 C2063 1.403 . S
C2064 C2065 1.404 . S
C2064 C2067 1.539 . S
C2065 C2061 1.408 . S
C2065 C2064 1.404 . S
C2065 H2077 0.930 . S
C2066 C2062 1.524 . S
C2066 H2078 0.956 . S
C2066 H2079 0.961 . S
C2066 H2080 0.961 . S
C2067 C2064 1.539 . S
C2067 H2081 0.958 . S
C2067 H2082 0.961 . S
C2067 H2083 0.960 . S
H2068 C2052 0.931 . S
H2069 C2057 0.929 . S
H2070 C2058 0.960 . S
H2071 C2058 0.962 . S
H2072 C2058 0.960 . S
H2073 C2059 0.961 . S
H2074 C2059 0.961 . S
H2075 C2059 0.961 . S
H2076 C2060 0.931 . S
H2077 C2065 0.930 . S
H2078 C2066 0.956 . S
H2079 C2066 0.961 . S
H2080 C2066 0.961 . S
H2081 C2067 0.958 . S
H2082 C2067 0.961 . S
H2083 C2067 0.960 . S
C2084 C2085 1.391 . S
C2084 C2086 1.394 . S
C2084 H2100 0.931 . S
C2085 C2084 1.391 . S
C2085 C2089 1.376 . S
C2086 C2084 1.394 . S
C2086 C2087 1.369 . S
C2086 C2090 1.531 . S
C2087 C2086 1.369 . S
C2087 C2088 1.410 . S
C2087 C2095 1.503 . S
C2088 C2087 1.410 . S
C2088 C2089 1.392 . S
C2088 C2091 1.511 . S
C2089 C2085 1.376 . S
C2089 C2088 1.392 . S
C2089 H2101 0.929 . S
C2090 C2086 1.531 . S
C2090 H2102 0.960 . S
C2090 H2103 0.962 . S
C2090 H2104 0.960 . S
C2091 C2088 1.511 . S
C2091 H2105 0.961 . S
C2091 H2106 0.961 . S
C2091 H2107 0.961 . S
C2092 C2093 1.370 . S
C2092 C2094 1.363 . S
C2092 H2108 0.931 . S
C2093 C2092 1.370 . S
C2093 C2097 1.408 . S
C2094 C2092 1.363 . S
C2094 C2095 1.370 . S
C2094 C2098 1.524 . S
C2095 C2087 1.503 . S
C2095 C2094 1.370 . S
C2095 C2096 1.403 . S
C2096 C2095 1.403 . S
C2096 C2097 1.404 . S
C2096 C2099 1.539 . S
C2097 C2093 1.408 . S
C2097 C2096 1.404 . S
C2097 H2109 0.930 . S
C2098 C2094 1.524 . S
C2098 H2110 0.956 . S
C2098 H2111 0.961 . S
C2098 H2112 0.961 . S
C2099 C2096 1.539 . S
C2099 H2113 0.958 . S
C2099 H2114 0.961 . S
C2099 H2115 0.960 . S
H2100 C2084 0.931 . S
H2101 C2089 0.929 . S
H2102 C2090 0.960 . S
H2103 C2090 0.962 . S
H2104 C2090 0.960 . S
H2105 C2091 0.961 . S
H2106 C2091 0.961 . S
H2107 C2091 0.961 . S
H2108 C2092 0.931 . S
H2109 C2097 0.930 . S
H2110 C2098 0.956 . S
H2111 C2098 0.961 . S
H2112 C2098 0.961 . S
H2113 C2099 0.958 . S
H2114 C2099 0.961 . S
H2115 C2099 0.960 . S
C2116 C2117 1.391 . S
C2116 C2118 1.394 . S
C2116 H2132 0.931 . S
C2117 C2116 1.391 . S
C2117 C2121 1.376 . S
C2118 C2116 1.394 . S
C2118 C2119 1.369 . S
C2118 C2122 1.531 . S
C2119 C2118 1.369 . S
C2119 C2120 1.410 . S
C2119 C2127 1.503 . S
C2120 C2119 1.410 . S
C2120 C2121 1.392 . S
C2120 C2123 1.511 . S
C2121 C2117 1.376 . S
C2121 C2120 1.392 . S
C2121 H2133 0.929 . S
C2122 C2118 1.531 . S
C2122 H2134 0.960 . S
C2122 H2135 0.962 . S
C2122 H2136 0.960 . S
C2123 C2120 1.511 . S
C2123 H2137 0.961 . S
C2123 H2138 0.961 . S
C2123 H2139 0.961 . S
C2124 C2125 1.370 . S
C2124 C2126 1.363 . S
C2124 H2140 0.931 . S
C2125 C2124 1.370 . S
C2125 C2129 1.408 . S
C2126 C2124 1.363 . S
C2126 C2127 1.370 . S
C2126 C2130 1.524 . S
C2127 C2119 1.503 . S
C2127 C2126 1.370 . S
C2127 C2128 1.397 1_565 S
C2128 C2127 1.397 1_545 S
C2128 C2129 1.403 1_545 S
C2128 C2131 1.547 . S
C2129 C2125 1.408 . S
C2129 C2128 1.403 1_565 S
C2129 H2141 0.930 1_565 S
C2130 C2126 1.524 . S
C2130 H2142 0.956 . S
C2130 H2143 0.961 . S
C2130 H2144 0.961 . S
C2131 C2128 1.547 . S
C2131 H2145 0.958 . S
C2131 H2146 0.961 . S
C2131 H2147 0.960 . S
H2132 C2116 0.931 . S
H2133 C2121 0.929 . S
H2134 C2122 0.960 . S
H2135 C2122 0.962 . S
H2136 C2122 0.960 . S
H2137 C2123 0.961 . S
H2138 C2123 0.961 . S
H2139 C2123 0.961 . S
H2140 C2124 0.931 . S
H2141 C2129 0.930 1_545 S
H2142 C2130 0.956 . S
H2143 C2130 0.961 . S
H2144 C2130 0.961 . S
H2145 C2131 0.958 . S
H2146 C2131 0.961 . S
H2147 C2131 0.960 . S
C2148 C2149 1.391 . S
C2148 C2150 1.394 . S
C2148 H2164 0.931 . S
C2149 C2148 1.391 . S
C2149 C2153 1.376 . S
C2150 C2148 1.394 . S
C2150 C2151 1.369 . S
C2150 C2154 1.531 . S
C2151 C2150 1.369 . S
C2151 C2152 1.410 . S
C2151 C2159 1.503 . S
C2152 C2151 1.410 . S
C2152 C2153 1.392 . S
C2152 C2155 1.511 . S
C2153 C2149 1.376 . S
C2153 C2152 1.392 . S
C2153 H2165 0.929 . S
C2154 C2150 1.531 . S
C2154 H2166 0.960 . S
C2154 H2167 0.962 . S
C2154 H2168 0.960 . S
C2155 C2152 1.511 . S
C2155 H2169 0.961 . S
C2155 H2170 0.961 . S
C2155 H2171 0.961 . S
C2156 C2157 1.370 . S
C2156 C2158 1.363 . S
C2156 H2172 0.931 . S
C2157 C2156 1.370 . S
C2157 C2161 1.408 . S
C2158 C2156 1.363 . S
C2158 C2159 1.370 . S
C2158 C2162 1.524 . S
C2159 C2151 1.503 . S
C2159 C2158 1.370 . S
C2159 C2160 1.403 . S
C2160 C2159 1.403 . S
C2160 C2161 1.404 . S
C2160 C2163 1.539 . S
C2161 C2157 1.408 . S
C2161 C2160 1.404 . S
C2161 H2173 0.930 . S
C2162 C2158 1.524 . S
C2162 H2174 0.956 . S
C2162 H2175 0.961 . S
C2162 H2176 0.961 . S
C2163 C2160 1.539 . S
C2163 H2177 0.958 . S
C2163 H2178 0.961 . S
C2163 H2179 0.960 . S
H2164 C2148 0.931 . S
H2165 C2153 0.929 . S
H2166 C2154 0.960 . S
H2167 C2154 0.962 . S
H2168 C2154 0.960 . S
H2169 C2155 0.961 . S
H2170 C2155 0.961 . S
H2171 C2155 0.961 . S
H2172 C2156 0.931 . S
H2173 C2161 0.930 . S
H2174 C2162 0.956 . S
H2175 C2162 0.961 . S
H2176 C2162 0.961 . S
H2177 C2163 0.958 . S
H2178 C2163 0.961 . S
H2179 C2163 0.960 . S
C2180 C2181 1.391 . S
C2180 C2182 1.394 . S
C2180 H2196 0.931 . S
C2181 C2180 1.391 . S
C2181 C2185 1.376 . S
C2182 C2180 1.394 . S
C2182 C2183 1.369 . S
C2182 C2186 1.531 1_545 S
C2183 C2182 1.369 . S
C2183 C2184 1.410 . S
C2183 C2191 1.503 . S
C2184 C2183 1.410 . S
C2184 C2185 1.392 . S
C2184 C2187 1.511 . S
C2185 C2181 1.376 . S
C2185 C2184 1.392 . S
C2185 H2197 0.929 . S
C2186 C2182 1.531 1_565 S
C2186 H2198 0.960 . S
C2186 H2199 0.962 1_565 S
C2186 H2200 0.960 . S
C2187 C2184 1.511 . S
C2187 H2201 0.961 . S
C2187 H2202 0.961 . S
C2187 H2203 0.961 . S
C2188 C2189 1.370 . S
C2188 C2190 1.363 . S
C2188 H2204 0.931 . S
C2189 C2188 1.370 . S
C2189 C2193 1.408 . S
C2190 C2188 1.363 . S
C2190 C2191 1.370 . S
C2190 C2194 1.524 . S
C2191 C2183 1.503 . S
C2191 C2190 1.370 . S
C2191 C2192 1.403 . S
C2192 C2191 1.403 . S
C2192 C2193 1.404 . S
C2192 C2195 1.539 1_545 S
C2193 C2189 1.408 . S
C2193 C2192 1.404 . S
C2193 H2205 0.958 . S
C2194 C2190 1.524 . S
C2194 H2206 0.956 . S
C2194 H2207 0.961 . S
C2194 H2208 0.961 . S
C2195 C2192 1.539 1_565 S
C2195 H2209 0.958 . S
C2195 H2210 0.961 . S
C2195 H2211 0.960 . S
H2196 C2180 0.931 . S
H2197 C2185 0.929 . S
H2198 C2186 0.960 . S
H2199 C2186 0.962 1_545 S
H2200 C2186 0.960 . S
H2201 C2187 0.961 . S
H2202 C2187 0.961 . S
H2203 C2187 0.961 . S
H2204 C2188 0.931 . S
H2205 C2193 0.958 . S
H2206 C2194 0.956 . S
H2207 C2194 0.961 . S
H2208 C2194 0.961 . S
H2209 C2195 0.958 . S
H2210 C2195 0.961 . S
H2211 C2195 0.960 . S
C2212 C2213 1.391 . S
C2212 C2214 1.394 . S
C2212 H2228 0.931 . S
C2213 C2212 1.391 . S
C2213 C2217 1.376 . S
C2214 C2212 1.394 . S
C2214 C2215 1.369 . S
C2214 C2218 1.531 . S
C2215 C2214 1.369 . S
C2215 C2216 1.410 . S
C2215 C2223 1.503 . S
C2216 C2215 1.410 . S
C2216 C2217 1.392 . S
C2216 C2219 1.511 . S
C2217 C2213 1.376 . S
C2217 C2216 1.392 . S
C2217 H2229 0.929 . S
C2218 C2214 1.531 . S
C2218 H2230 0.960 . S
C2218 H2231 0.962 . S
C2218 H2232 0.960 . S
C2219 C2216 1.511 . S
C2219 H2233 0.961 . S
C2219 H2234 0.961 . S
C2219 H2235 0.961 . S
C2220 C2221 1.370 . S
C2220 C2222 1.363 . S
C2220 H2236 0.931 . S
C2221 C2220 1.370 . S
C2221 C2225 1.408 . S
C2222 C2220 1.363 . S
C2222 C2223 1.370 . S
C2222 C2226 1.524 . S
C2223 C2215 1.503 . S
C2223 C2222 1.370 . S
C2223 C2224 1.403 . S
C2224 C2223 1.403 . S
C2224 C2225 1.404 . S
C2224 C2227 1.539 . S
C2225 C2221 1.408 . S
C2225 C2224 1.404 . S
C2225 H2237 0.930 . S
C2226 C2222 1.524 . S
C2226 H2238 0.956 . S
C2226 H2239 0.961 . S
C2226 H2240 0.961 . S
C2227 C2224 1.539 . S
C2227 H2241 0.958 . S
C2227 H2242 0.961 . S
C2227 H2243 0.960 . S
H2228 C2212 0.931 . S
H2229 C2217 0.929 . S
H2230 C2218 0.960 . S
H2231 C2218 0.962 . S
H2232 C2218 0.960 . S
H2233 C2219 0.961 . S
H2234 C2219 0.961 . S
H2235 C2219 0.961 . S
H2236 C2220 0.931 . S
H2237 C2225 0.930 . S
H2238 C2226 0.956 . S
H2239 C2226 0.961 . S
H2240 C2226 0.961 . S
H2241 C2227 0.958 . S
H2242 C2227 0.961 . S
H2243 C2227 0.960 . S
C2244 C2245 1.391 . S
C2244 C2246 1.394 . S
C2244 H2260 0.931 . S
C2245 C2244 1.391 . S
C2245 C2249 1.376 . S
C2246 C2244 1.394 . S
C2246 C2247 1.369 . S
C2246 C2250 1.531 . S
C2247 C2246 1.369 . S
C2247 C2248 1.410 . S
C2247 C2255 1.503 . S
C2248 C2247 1.410 . S
C2248 C2249 1.392 . S
C2248 C2251 1.506 1_556 S
C2249 C2245 1.376 . S
C2249 C2248 1.392 . S
C2249 H2261 0.929 . S
C2250 C2246 1.531 . S
C2250 H2262 0.960 . S
C2250 H2263 0.962 . S
C2250 H2264 0.960 . S
C2251 C2248 1.506 1_554 S
C2251 H2265 0.947 1_554 S
C2251 H2266 0.945 1_554 S
C2251 H2267 0.997 . S
C2252 C2253 1.370 . S
C2252 C2254 1.363 . S
C2252 H2268 0.931 . S
C2253 C2252 1.370 . S
C2253 C2257 1.408 1_556 S
C2254 C2252 1.363 . S
C2254 C2255 1.370 . S
C2254 C2258 1.524 . S
C2255 C2247 1.503 . S
C2255 C2254 1.370 . S
C2255 C2256 1.403 1_556 S
C2256 C2255 1.403 1_554 S
C2256 C2257 1.404 . S
C2256 C2259 1.539 . S
C2257 C2253 1.408 1_554 S
C2257 C2256 1.404 . S
C2257 H2269 0.930 . S
C2258 C2254 1.524 . S
C2258 H2270 0.956 . S
C2258 H2271 0.961 . S
C2258 H2272 0.961 . S
C2259 C2256 1.539 . S
C2259 H2273 0.958 . S
C2259 H2274 0.961 . S
C2259 H2275 0.960 . S
H2260 C2244 0.931 . S
H2261 C2249 0.929 . S
H2262 C2250 0.960 . S
H2263 C2250 0.962 . S
H2264 C2250 0.960 . S
H2265 C2251 0.947 1_556 S
H2266 C2251 0.945 1_556 S
H2267 C2251 0.997 . S
H2268 C2252 0.931 . S
H2269 C2257 0.930 . S
H2270 C2258 0.956 . S
H2271 C2258 0.961 . S
H2272 C2258 0.961 . S
H2273 C2259 0.958 . S
H2274 C2259 0.961 . S
H2275 C2259 0.960 . S
C2276 C2277 1.391 . S
C2276 C2278 1.394 . S
C2276 H2292 0.931 . S
C2277 C2276 1.391 . S
C2277 C2281 1.376 1_556 S
C2278 C2276 1.394 . S
C2278 C2279 1.369 . S
C2278 C2282 1.531 . S
C2279 C2278 1.369 . S
C2279 C2280 1.410 1_556 S
C2279 C2287 1.503 . S
C2280 C2279 1.410 1_554 S
C2280 C2281 1.392 . S
C2280 C2283 1.511 . S
C2281 C2277 1.376 1_554 S
C2281 C2280 1.392 . S
C2281 H2293 0.929 . S
C2282 C2278 1.531 . S
C2282 H2294 0.960 . S
C2282 H2295 0.962 . S
C2282 H2296 0.960 . S
C2283 C2280 1.511 . S
C2283 H2297 0.961 . S
C2283 H2298 0.961 . S
C2283 H2299 0.961 . S
C2284 C2285 1.370 . S
C2284 C2286 1.363 . S
C2284 H2300 0.931 . S
C2285 C2284 1.370 . S
C2285 C2289 1.408 . S
C2286 C2284 1.363 . S
C2286 C2287 1.370 . S
C2286 C2290 1.524 . S
C2287 C2279 1.503 . S
C2287 C2286 1.370 . S
C2287 C2288 1.403 . S
C2288 C2287 1.403 . S
C2288 C2289 1.404 . S
C2288 C2291 1.539 . S
C2289 C2285 1.408 . S
C2289 C2288 1.404 . S
C2289 H2301 0.930 . S
C2290 C2286 1.524 . S
C2290 H2302 0.956 . S
C2290 H2303 0.961 . S
C2290 H2304 0.961 . S
C2291 C2288 1.539 . S
C2291 H2305 0.958 . S
C2291 H2306 0.961 . S
C2291 H2307 0.960 . S
H2292 C2276 0.931 . S
H2293 C2281 0.929 . S
H2294 C2282 0.960 . S
H2295 C2282 0.962 . S
H2296 C2282 0.960 . S
H2297 C2283 0.961 . S
H2298 C2283 0.961 . S
H2299 C2283 0.961 . S
H2300 C2284 0.931 . S
H2301 C2289 0.930 . S
H2302 C2290 0.956 . S
H2303 C2290 0.961 . S
H2304 C2290 0.961 . S
H2305 C2291 0.958 . S
H2306 C2291 0.961 . S
H2307 C2291 0.960 . S
C2308 C2309 1.391 . S
C2308 C2310 1.394 . S
C2308 H2324 0.931 . S
C2309 C2308 1.391 . S
C2309 C2313 1.376 . S
C2310 C2308 1.394 . S
C2310 C2311 1.369 . S
C2310 C2314 1.531 . S
C2311 C2310 1.369 . S
C2311 C2312 1.410 . S
C2311 C2319 1.503 . S
C2312 C2311 1.410 . S
C2312 C2313 1.392 . S
C2312 C2315 1.511 1_554 S
C2313 C2309 1.376 . S
C2313 C2312 1.392 . S
C2313 H2325 0.929 1_554 S
C2314 C2310 1.531 . S
C2314 H2326 0.960 . S
C2314 H2327 0.962 . S
C2314 H2328 0.960 . S
C2315 C2312 1.511 1_556 S
C2315 H2329 0.961 . S
C2315 H2330 0.961 . S
C2315 H2331 0.961 1_556 S
C2316 C2317 1.370 . S
C2316 C2318 1.363 . S
C2316 H2332 0.931 1_554 S
C2317 C2316 1.370 . S
C2317 C2321 1.408 . S
C2318 C2316 1.363 . S
C2318 C2319 1.370 . S
C2318 C2322 1.524 1_554 S
C2319 C2311 1.503 . S
C2319 C2318 1.370 . S
C2319 C2320 1.403 . S
C2320 C2319 1.403 . S
C2320 C2321 1.404 . S
C2320 C2323 1.539 . S
C2321 C2317 1.408 . S
C2321 C2320 1.404 . S
C2321 H2333 0.930 . S
C2322 C2318 1.524 1_556 S
C2322 H2334 0.956 . S
C2322 H2335 0.961 . S
C2322 H2336 0.961 . S
C2323 C2320 1.539 . S
C2323 H2337 0.958 . S
C2323 H2338 0.961 . S
C2323 H2339 0.960 . S
H2324 C2308 0.931 . S
H2325 C2313 0.929 1_556 S
H2326 C2314 0.960 . S
H2327 C2314 0.962 . S
H2328 C2314 0.960 . S
H2329 C2315 0.961 . S
H2330 C2315 0.961 . S
H2331 C2315 0.961 1_554 S
H2332 C2316 0.931 1_556 S
H2333 C2321 0.930 . S
H2334 C2322 0.956 . S
H2335 C2322 0.961 . S
H2336 C2322 0.961 . S
H2337 C2323 0.958 . S
H2338 C2323 0.961 . S
H2339 C2323 0.960 . S
C805 C22 1.670 . S
C813 C697 1.622 1_545 S
C845 C702 1.725 . S
C837 C38 1.798 . S
C877 C640 1.629 1_565 S
C869 C75 1.698 . S
C901 C91 1.729 . S
C909 C664 1.630 . S
C933 C128 1.681 . S
C941 C802 1.639 1_554 S
C965 C197 1.678 . S
C973 C769 1.630 . S
C1005 C723 1.754 . S
C997 C144 1.857 . S
C1029 C181 1.699 . S
C1037 C757 1.612 . S
C1069 C676 1.667 . S
C1061 C234 1.735 . S
C1101 C703 1.672 . S
C1093 C303 1.746 . S
C1125 C356 1.759 . S
C1133 C694 1.669 . S
C1157 C287 1.765 . S
C1165 C760 1.669 . S
C1197 C781 1.586 . S
C1189 C393 1.631 . S
C1229 C799 1.762 1_565 S
C1221 C409 1.842 . S
C1253 C462 1.910 . S
C1261 C748 1.819 . S
C1293 C724 1.468 . S
C1285 C446 1.571 . S
C1317 C499 1.646 . S
C1325 C719 1.615 . S
C1349 C552 1.575 . S
C1357 C685 1.532 . S
C1389 C673 1.641 . S
C1381 C515 1.719 . S
C1413 C568 1.981 . S
C1421 C639 1.891 . S
C1453 C740 1.733 . S
C1445 C340 1.813 . S
C1485 C790 1.590 . S
C1477 C621 1.675 . S
C1509 C250 1.662 . S
C1517 C778 1.627 . S
C1541 C605 1.689 . S
C1549 C656 1.598 1_655 S
C1581 C655 1.281 . S
C1573 C39 1.421 . S
C1605 C29 1.093 . S
C1613 C677 0.983 . S
C1645 C682 1.209 . S
C1637 C92 1.406 . S
C1677 C715 1.040 . S
C1669 C82 1.233 . S
C1701 C145 1.423 . S
C1709 C652 1.235 . S
C1733 C188 1.155 . S
C1741 C660 1.059 . S
C1773 C698 1.085 . S
C1765 C135 1.210 . S
C1797 C198 1.351 . S
C1805 C706 1.175 . S
C1829 C251 1.340 . S
C1837 C643 1.202 . S
C1869 C681 1.016 . S
C1861 C294 1.185 . S
C1893 C347 1.207 . S
C1901 C718 1.037 . S
C1925 C304 1.412 . S
C1933 C727 1.209 . S
C1965 C761 1.250 . S
C1957 C410 1.379 . S
C1989 C400 1.151 . S
C1997 C739 1.064 . S
C2021 C453 1.088 . S
C2029 C766 1.003 . S
C2053 C463 1.528 . S
C2061 C786 1.302 . S
C2085 C516 1.408 . S
C2093 C744 1.281 . S
C2125 C736 1.307 . S
C2117 C569 1.454 . S
C2149 C506 1.082 . S
C2157 C782 1.004 . S
C2189 C787 1.044 . S
C2181 C559 1.125 . S
C2221 C745 1.221 . S
C2213 C357 1.330 . S
C2253 C765 1.070 . S
C2245 C612 1.188 . S
C2285 C803 1.016 . S
C2277 C241 1.167 . S
C2309 C622 1.393 . S
C2317 C661 1.140 . S
