# Generated by pormake.
# Topology ssa, (4,4)-cn, num edge types: 1
# Building blocks:
#     Node 0, Type 0, BuildingBlock: ESEHIV_clean_sbu_0, # of connection points: 4
#     Node 1, Type 0, BuildingBlock: ESEHIV_clean_sbu_0, # of connection points: 4
#     Node 2, Type 0, BuildingBlock: ESEHIV_clean_sbu_0, # of connection points: 4
#     Node 3, Type 0, BuildingBlock: ESEHIV_clean_sbu_0, # of connection points: 4
#     Node 4, Type 0, BuildingBlock: ESEHIV_clean_sbu_0, # of connection points: 4
#     Node 5, Type 0, BuildingBlock: ESEHIV_clean_sbu_0, # of connection points: 4
#     Node 6, Type 1, BuildingBlock: NAWXER_clean_sbu_0, # of connection points: 4
#     Node 7, Type 1, BuildingBlock: NAWXER_clean_sbu_0, # of connection points: 4
#     Node 8, Type 1, BuildingBlock: NAWXER_clean_sbu_0, # of connection points: 4
#     Node 9, Type 1, BuildingBlock: NAWXER_clean_sbu_0, # of connection points: 4
#     Node 10, Type 1, BuildingBlock: NAWXER_clean_sbu_0, # of connection points: 4
#     Node 11, Type 1, BuildingBlock: NAWXER_clean_sbu_0, # of connection points: 4
#     Edge 12, Type (0, 1), BuildingBlock: OJICUG_clean_linker_0, # of connection points: 2
#     Edge 13, Type (0, 1), BuildingBlock: OJICUG_clean_linker_0, # of connection points: 2
#     Edge 14, Type (0, 1), BuildingBlock: OJICUG_clean_linker_0, # of connection points: 2
#     Edge 15, Type (0, 1), BuildingBlock: OJICUG_clean_linker_0, # of connection points: 2
#     Edge 16, Type (0, 1), BuildingBlock: OJICUG_clean_linker_0, # of connection points: 2
#     Edge 17, Type (0, 1), BuildingBlock: OJICUG_clean_linker_0, # of connection points: 2
#     Edge 18, Type (0, 1), BuildingBlock: OJICUG_clean_linker_0, # of connection points: 2
#     Edge 19, Type (0, 1), BuildingBlock: OJICUG_clean_linker_0, # of connection points: 2
#     Edge 20, Type (0, 1), BuildingBlock: OJICUG_clean_linker_0, # of connection points: 2
#     Edge 21, Type (0, 1), BuildingBlock: OJICUG_clean_linker_0, # of connection points: 2
#     Edge 22, Type (0, 1), BuildingBlock: OJICUG_clean_linker_0, # of connection points: 2
#     Edge 23, Type (0, 1), BuildingBlock: OJICUG_clean_linker_0, # of connection points: 2
#     Edge 24, Type (0, 1), BuildingBlock: OJICUG_clean_linker_0, # of connection points: 2
#     Edge 25, Type (0, 1), BuildingBlock: OJICUG_clean_linker_0, # of connection points: 2
#     Edge 26, Type (0, 1), BuildingBlock: OJICUG_clean_linker_0, # of connection points: 2
#     Edge 27, Type (0, 1), BuildingBlock: OJICUG_clean_linker_0, # of connection points: 2
#     Edge 28, Type (0, 1), BuildingBlock: OJICUG_clean_linker_0, # of connection points: 2
#     Edge 29, Type (0, 1), BuildingBlock: OJICUG_clean_linker_0, # of connection points: 2
#     Edge 30, Type (0, 1), BuildingBlock: OJICUG_clean_linker_0, # of connection points: 2
#     Edge 31, Type (0, 1), BuildingBlock: OJICUG_clean_linker_0, # of connection points: 2
#     Edge 32, Type (0, 1), BuildingBlock: OJICUG_clean_linker_0, # of connection points: 2
#     Edge 33, Type (0, 1), BuildingBlock: OJICUG_clean_linker_0, # of connection points: 2
#     Edge 34, Type (0, 1), BuildingBlock: OJICUG_clean_linker_0, # of connection points: 2
#     Edge 35, Type (0, 1), BuildingBlock: OJICUG_clean_linker_0, # of connection points: 2
# Relax obj value: 0.020
# Max RMSD: 0.110
# Mean RMSD: 0.058
data_MOF--net-ssa--node1-ESEHIV_clean_sbu_0--node2-NAWXER_clean_sbu_0--edge1-OJICUG_clean_linker_0
_symmetry_space_group_name_H-M    P1
_symmetry_Int_Tables_number       1
_symmetry_cell_setting            triclinic
loop_
_symmetry_equiv_pos_as_xyz
'x, y, z'
_cell_length_a     32.720383
_cell_length_b     36.27665
_cell_length_c     28.259999
_cell_angle_alpha  87.787555
_cell_angle_beta   91.269354
_cell_angle_gamma 123.59434
loop_
_atom_site_label
_atom_site_type_symbol
_atom_site_fract_x
_atom_site_fract_y
_atom_site_fract_z
_atom_type_partial_charge
Cu0 Cu 0.97625 0.46871 0.04121 0.0
N1 N 0.93707 0.40696 0.03262 0.0
N2 N 0.89606 0.34614 0.989 0.0
C3 C 0.92661 0.39065 0.98873 0.0
C4 C 0.88718 0.33359 0.03525 0.0
C5 C 0.91232 0.37125 0.06215 0.0
O6 O 0.95613 0.49144 0.98829 0.0
C7 C 0.05178 0.46746 0.08143 0.0
O8 O 1.01328 0.43586 0.10496 0.0
H9 H 0.94049 0.41142 0.95687 0.0
H10 H 0.91155 0.37247 0.10027 0.0
N11 N 0.96755 0.49249 0.0948 0.0
N12 N 0.99212 0.5487 0.14344 0.0
C13 C 0.99614 0.53657 0.10014 0.0
C14 C 0.94363 0.47556 0.13618 0.0
C15 C 0.95859 0.51031 0.16625 0.0
C16 C 0.90973 0.4738 0.98789 0.0
O17 O 0.88325 0.44615 0.02276 0.0
H18 H 0.02147 0.55912 0.07307 0.0
H19 H 0.91949 0.44059 0.14489 0.0
O20 O 0.04516 0.48762 0.04711 0.0
H21 H 0.86265 0.2999 0.04856 0.0
H22 H 0.94815 0.5072 0.20299 0.0
Cu23 Cu 0.48749 0.99828 0.5144 0.0
N24 N 0.52281 0.99567 0.46547 0.0
N25 N 0.54818 0.9639 0.41882 0.0
C26 C 0.51291 0.9574 0.44846 0.0
C27 C 0.58127 1.00817 0.41662 0.0
C28 C 0.56555 0.02771 0.44554 0.0
O29 O 0.41866 0.952 0.50057 0.0
C30 C 0.55588 0.9975 0.57854 0.0
O31 O 0.57485 0.99134 0.54166 0.0
H32 H 0.48216 0.92521 0.46029 0.0
H33 H 0.58538 0.06239 0.45362 0.0
N34 N 0.49931 0.05481 0.51944 0.0
N35 N 0.52175 0.11553 0.55934 0.0
C36 C 0.49887 0.07109 0.5614 0.0
C37 C 0.52271 0.09026 0.48944 0.0
C38 C 0.53663 0.1278 0.51399 0.0
C39 C 0.39444 0.95874 0.4693 0.0
O40 O 0.41319 0.9992 0.45224 0.0
H41 H 0.48533 0.05103 0.59374 0.0
H42 H 0.53173 0.08935 0.45312 0.0
O43 O 0.51362 0.99158 0.57481 0.0
H44 H 0.61525 0.02512 0.39683 0.0
H45 H 0.55734 0.16155 0.49996 0.0
Cu46 Cu 0.54584 0.5175 0.03147 0.0
N47 N 0.55796 0.47312 0.02542 0.0
N48 N 0.57494 0.4302 0.98714 0.0
C49 C 0.56475 0.46146 0.98304 0.0
C50 C 0.57441 0.42165 0.03416 0.0
C51 C 0.56449 0.4486 0.05777 0.0
O52 O 0.58034 0.55638 0.97618 0.0
C53 C 0.45222 0.46372 0.07085 0.0
O54 O 0.47286 0.44451 0.09046 0.0
H55 H 0.56142 0.47521 0.94964 0.0
H56 H 0.56236 0.45026 0.09569 0.0
N57 N 0.57118 0.54975 0.08609 0.0
N58 N 0.58123 0.59818 0.13897 0.0
C59 C 0.55654 0.57556 0.10048 0.0
C60 C 0.60607 0.55557 0.11691 0.0
C61 C 0.61271 0.58597 0.14951 0.0
C62 C 0.62618 0.58659 0.97897 0.0
O63 O 0.64595 0.59978 0.02094 0.0
H64 H 0.52972 0.57916 0.08161 0.0
H65 H 0.62624 0.54007 0.11488 0.0
O66 O 0.4756 0.49339 0.03822 0.0
H67 H 0.58104 0.39787 0.05031 0.0
H68 H 0.63919 0.5987 0.1781 0.0
Cu69 Cu 1.01557 0.48267 0.54122 0.0
N70 N 0.05777 0.46323 0.53301 0.0
N71 N 0.10225 0.44796 0.48842 0.0
C72 C 0.06695 0.45632 0.48909 0.0
C73 C 0.11559 0.4489 0.53416 0.0
C74 C 0.08825 0.45864 0.56168 0.0
O75 O 0.03337 0.5238 0.4872 0.0
C76 C 0.94397 0.40346 0.58004 0.0
O77 O 0.9837 0.41195 0.60252 0.0
H78 H 0.04946 0.4595 0.45767 0.0
H79 H 0.092 0.46401 0.59935 0.0
N80 N 0.02248 0.51536 0.59415 0.0
N81 N 0.99803 0.54793 0.64163 0.0
C82 C 0.9878 0.52324 0.60317 0.0
C83 C 0.05669 0.53613 0.62801 0.0
C84 C 0.04165 0.55632 0.65743 0.0
C85 C 0.07952 0.55332 0.48686 0.0
O86 O 0.10617 0.55448 0.52296 0.0
H87 H 0.95563 0.51118 0.58111 0.0
H88 H 0.08999 0.53662 0.63114 0.0
O89 O 0.94821 0.43043 0.54706 0.0
H90 H 0.14499 0.44555 0.54643 0.0
H91 H 0.06088 0.5749 0.68846 0.0
Cu92 Cu 0.48531 0.01101 0.03782 0.0
N93 N 0.47196 0.05522 0.04147 0.0
N94 N 0.465 0.10784 1.00551 0.0
C95 C 0.4557 0.0668 1.00301 0.0
C96 C 0.48667 0.12219 0.04815 0.0
C97 C 0.4908 0.08969 0.0703 0.0
O98 O 0.51067 0.02236 0.97343 0.0
C99 C 0.40363 0.9514 0.0906 0.0
O100 O 0.41761 0.9886 0.11089 0.0
H101 H 0.44366 0.04802 0.97099 0.0
H102 H 0.5108 0.09304 0.10256 0.0
N103 N 0.534 0.01499 0.07827 0.0
N104 N 0.57683 0.99066 0.11504 0.0
C105 C 0.53893 0.98072 0.08588 0.0
C106 C 0.57026 0.0482 0.10344 0.0
C107 C 0.59671 0.03328 0.12613 0.0
C108 C 0.54636 0.06281 0.9681 0.0
O109 O 0.56491 0.08708 1.00568 0.0
H110 H 0.51513 0.94908 0.06964 0.0
H111 H 0.57725 0.08093 0.10511 0.0
O112 O 0.42652 0.95284 0.05387 0.0
H113 H 0.50231 0.15527 0.06067 0.0
H114 H 0.62757 0.0522 0.14966 0.0
Cu115 Cu 0.55523 0.53774 0.49779 0.0
N116 N 0.60774 0.58202 0.46026 0.0
N117 N 0.65077 0.64784 0.42107 0.0
C118 C 0.61338 0.62132 0.45111 0.0
C119 C 0.66952 0.62391 0.41074 0.0
C120 C 0.64296 0.58333 0.43509 0.0
O121 O 0.4983 0.53863 0.47536 0.0
C122 C 0.61707 0.57897 0.57726 0.0
O123 O 0.64484 0.61217 0.54766 0.0
H124 H 0.58861 0.62921 0.4649 0.0
H125 H 0.64814 0.55643 0.43352 0.0
N126 N 0.53977 0.4797 0.4941 0.0
N127 N 0.51873 0.41687 0.53465 0.0
C128 C 0.55155 0.46113 0.5296 0.0
C129 C 0.49871 0.44555 0.47487 0.0
C130 C 0.48582 0.40689 0.49954 0.0
C131 C 0.49523 0.54222 0.43035 0.0
O132 O 0.52689 0.54157 0.40325 0.0
H133 H 0.57997 0.48051 0.55511 0.0
H134 H 0.47615 0.44905 0.44895 0.0
O135 O 0.57349 0.54921 0.5648 0.0
H136 H 0.69965 0.63448 0.38672 0.0
H137 H 0.4526 0.37463 0.49438 0.0
C138 C 0.34612 0.53064 0.31017 0.0
C139 C 0.22009 0.50232 0.1896 0.0
O140 O 0.3145 0.48985 0.30219 0.0
Zn141 Zn 0.25317 0.44979 0.25818 0.0
O142 O 0.34509 0.5604 0.28572 0.0
Zn143 Zn 0.28602 0.52013 0.24792 0.0
O144 O 0.23142 0.48822 0.30273 0.0
O145 O 0.20352 0.41715 0.30816 0.0
O146 O 0.25497 0.54042 0.20271 0.0
O147 O 0.21659 0.46778 0.208 0.0
O148 O 0.27757 0.42252 0.21831 0.0
O149 O 0.31389 0.49374 0.20155 0.0
C150 C 0.20346 0.44993 0.32283 0.0
C151 C 0.30834 0.4567 0.19352 0.0
C152 C 0.7798 0.26638 0.68882 0.0
C153 C 0.65434 0.16746 0.80729 0.0
O154 O 0.74337 0.26765 0.70093 0.0
Zn155 Zn 0.71613 0.21958 0.74959 0.0
O156 O 0.78635 0.23782 0.70923 0.0
Zn157 Zn 0.75331 0.18573 0.76194 0.0
O158 O 0.7323 0.13267 0.72578 0.0
O159 O 0.68861 0.16121 0.7102 0.0
O160 O 0.68804 0.16045 0.80122 0.0
O161 O 0.65663 0.20019 0.78592 0.0
O162 O 0.76965 0.24629 0.80469 0.0
O163 O 0.80191 0.20688 0.81395 0.0
C164 C 0.69628 0.13064 0.70466 0.0
C165 C 0.79915 0.23878 0.8266 0.0
C166 C 0.56775 0.83529 0.32903 0.0
C167 C 0.57347 0.73786 0.21766 0.0
O168 O 0.61036 0.85009 0.31216 0.0
Zn169 Zn 0.64473 0.83319 0.26236 0.0
O170 O 0.53126 0.79773 0.31657 0.0
Zn171 Zn 0.5667 0.78557 0.272 0.0
O172 O 0.61278 0.77526 0.31728 0.0
O173 O 0.69071 0.82591 0.30106 0.0
O174 O 0.53478 0.731 0.23663 0.0
O175 O 0.61444 0.77473 0.22357 0.0
O176 O 0.66527 0.88172 0.21489 0.0
O177 O 0.5849 0.83645 0.22016 0.0
C178 C 0.65836 0.79136 0.32443 0.0
C179 C 0.62266 0.87155 0.20232 0.0
C180 C 0.80663 0.51228 0.84649 0.0
C181 C 0.72379 0.54376 0.71833 0.0
O182 O 0.76654 0.48319 0.82673 0.0
Zn183 Zn 0.76147 0.52363 0.78211 0.0
O184 O 0.82663 0.55314 0.83495 0.0
Zn185 Zn 0.81743 0.59447 0.78793 0.0
O186 O 0.80249 0.62725 0.83156 0.0
O187 O 0.7423 0.55695 0.82661 0.0
O188 O 0.76298 0.57755 0.73486 0.0
O189 O 0.70955 0.50509 0.73443 0.0
O190 O 0.8255 0.54799 0.7408 0.0
O191 O 0.87879 0.61936 0.75124 0.0
C192 C 0.75905 0.59529 0.84253 0.0
C193 C 0.86758 0.58349 0.73233 0.0
C194 C 0.27491 0.80383 0.21641 0.0
C195 C 0.18648 0.68967 0.34286 0.0
O196 O 0.23928 0.80335 0.23516 0.0
Zn197 Zn 0.18593 0.76921 0.28992 0.0
O198 O 0.28548 0.77669 0.23212 0.0
Zn199 Zn 0.2349 0.74717 0.28158 0.0
O200 O 0.16914 0.71318 0.2409 0.0
O201 O 0.12276 0.73827 0.25516 0.0
O202 O 0.22445 0.69726 0.32146 0.0
O203 O 0.17088 0.71471 0.33437 0.0
O204 O 0.20645 0.81651 0.33572 0.0
O205 O 0.25917 0.79696 0.33275 0.0
C206 C 0.12923 0.71132 0.23425 0.0
C207 C 0.24597 0.82082 0.35036 0.0
C208 C 0.57436 0.33723 0.82802 0.0
C209 C 0.55126 0.2296 0.71064 0.0
O210 O 0.60894 0.33726 0.80808 0.0
Zn211 Zn 0.56706 0.28678 0.76744 0.0
O212 O 0.52982 0.30982 0.81543 0.0
Zn213 Zn 0.48859 0.25694 0.7676 0.0
O214 O 0.44762 0.2086 0.81423 0.0
O215 O 0.52685 0.23635 0.82154 0.0
O216 O 0.51181 0.22556 0.72396 0.0
O217 O 0.59236 0.26065 0.72685 0.0
O218 O 0.54322 0.31483 0.7154 0.0
O219 O 0.4631 0.28092 0.71979 0.0
C220 C 0.48272 0.20971 0.83633 0.0
C221 C 0.50357 0.31007 0.6999 0.0
C222 C 0.1374 0.52305 0.11082 0.0
C223 C 0.10074 0.47954 0.09848 0.0
H224 H 0.20422 0.5648 0.14988 0.0
C225 C 0.10666 0.44518 0.11207 0.0
H226 H 0.13317 0.55004 0.10165 0.0
C227 C 0.14671 0.4534 0.13946 0.0
C228 C 0.18194 0.49626 0.15481 0.0
H229 H 0.07881 0.4113 0.10339 0.0
H230 H 0.14878 0.4255 0.15029 0.0
C231 C 0.17774 0.53137 0.13887 0.0
C232 C 0.63771 0.03494 0.62029 0.0
C233 C 0.5893 0.02458 0.61751 0.0
H234 H 0.70986 0.07647 0.65045 0.0
C235 C 0.57586 0.04617 0.64744 0.0
H236 H 0.64933 0.01888 0.59778 0.0
C237 C 0.61067 0.07962 0.67644 0.0
C238 C 0.65967 0.09183 0.67717 0.0
H239 H 0.53907 0.03906 0.64667 0.0
H240 H 0.59934 0.09675 0.69762 0.0
C241 C 0.6725 0.06802 0.65024 0.0
C242 C 0.62123 0.67101 0.17489 0.0
C243 C 0.57843 0.6323 0.15978 0.0
H244 H 0.65321 0.73476 0.20365 0.0
C245 C 0.53331 0.62851 0.16279 0.0
H246 H 0.65646 0.67503 0.1724 0.0
C247 C 0.53113 0.66281 0.18106 0.0
C248 C 0.57425 0.70187 0.19552 0.0
H249 H 0.49972 0.59881 0.15143 0.0
H250 H 0.49591 0.65882 0.18376 0.0
C251 C 0.61925 0.70548 0.19213 0.0
C252 C 0.98557 0.59667 0.69123 0.0
C253 C 0.9667 0.55987 0.66209 0.0
H254 H 0.96932 0.63407 0.73559 0.0
C255 C 0.91586 0.5341 0.65349 0.0
H256 H 0.02453 0.61751 0.69834 0.0
C257 C 0.8847 0.54382 0.6742 0.0
C258 C 0.90305 0.57965 0.70436 0.0
H259 H 0.89948 0.50518 0.63201 0.0
H260 H 0.84565 0.52215 0.66765 0.0
C261 C 0.95405 0.60659 0.71201 0.0
C262 C 0.32724 0.90721 0.13782 0.0
C263 C 0.36605 0.90931 0.11485 0.0
H264 H 0.26801 0.87238 0.18679 0.0
C265 C 0.37261 0.87433 0.1223 0.0
H266 H 0.32153 0.93384 0.13298 0.0
C267 C 0.34234 0.83909 0.15434 0.0
C268 C 0.30464 0.83806 0.17884 0.0
H269 H 0.40286 0.87556 0.10564 0.0
H270 H 0.34938 0.81348 0.16097 0.0
C271 C 0.29669 0.87194 0.16894 0.0
C272 C 0.46825 0.35296 0.5912 0.0
C273 C 0.51438 0.38908 0.57526 0.0
H274 H 0.42827 0.30017 0.64321 0.0
C275 C 0.55621 0.39907 0.60135 0.0
H276 H 0.43504 0.34459 0.57264 0.0
C277 C 0.55226 0.37376 0.64183 0.0
C278 C 0.50626 0.33771 0.65789 0.0
H279 H 0.59228 0.42642 0.59029 0.0
H280 H 0.58558 0.38259 0.66058 0.0
C281 C 0.46423 0.32772 0.63209 0.0
C282 C 0.59888 0.93808 0.39113 0.0
C283 C 0.55246 0.93022 0.39883 0.0
H284 H 0.63994 0.91386 0.36465 0.0
C285 C 0.51045 0.88883 0.38731 0.0
H286 H 0.63189 0.96908 0.4007 0.0
C287 C 0.51495 0.85669 0.3667 0.0
C288 C 0.56157 0.86534 0.35751 0.0
H289 H 0.47415 0.88184 0.39289 0.0
H290 H 0.48204 0.82584 0.35647 0.0
C291 C 0.60338 0.90606 0.37092 0.0
C292 C 0.71042 0.6281 0.94231 0.0
C293 C 0.65939 0.5966 0.93833 0.0
H294 H 0.78243 0.65301 0.91485 0.0
C295 C 0.64193 0.56966 0.89878 0.0
H296 H 0.72518 0.64954 0.97229 0.0
C297 C 0.67471 0.57132 0.86653 0.0
C298 C 0.72583 0.6004 0.87245 0.0
H299 H 0.60308 0.54516 0.89432 0.0
H300 H 0.65993 0.54834 0.83784 0.0
C301 C 0.74335 0.63017 0.90948 0.0
C302 C 0.15445 0.60115 0.43766 0.0
C303 C 0.10479 0.58457 0.44643 0.0
H304 H 0.21925 0.64692 0.3974 0.0
C305 C 0.08144 0.60031 0.41843 0.0
H306 H 0.17321 0.58909 0.45843 0.0
C307 C 0.10808 0.63387 0.38407 0.0
C308 C 0.15827 0.65163 0.37646 0.0
H309 H 0.04329 0.58806 0.42438 0.0
H310 H 0.08949 0.6464 0.36384 0.0
C311 C 0.18084 0.63407 0.40265 0.0
C312 C 0.4288 0.11643 0.93087 0.0
C313 C 0.46612 0.13454 0.96549 0.0
H314 H 0.40383 0.12622 0.86317 0.0
C315 C 0.50708 0.17792 0.95796 0.0
H316 H 0.3969 0.08299 0.93568 0.0
C317 C 0.51172 0.20188 0.91619 0.0
C318 C 0.4749 0.18377 0.88123 0.0
H319 H 0.53684 0.19263 0.98336 0.0
H320 H 0.54464 0.23472 0.91109 0.0
C321 C 0.43275 0.14109 0.88945 0.0
C322 C 0.46982 0.57564 0.36736 0.0
C323 C 0.45705 0.54643 0.40692 0.0
H324 H 0.44449 0.59471 0.30628 0.0
C325 C 0.40737 0.51676 0.41812 0.0
H326 H 0.50803 0.59878 0.35793 0.0
C327 C 0.37113 0.51378 0.38792 0.0
C328 C 0.38392 0.5412 0.34676 0.0
H329 H 0.39657 0.4936 0.448 0.0
H330 H 0.33299 0.48851 0.39553 0.0
C331 C 0.43357 0.5735 0.33788 0.0
C332 C 0.8636 0.27618 0.94635 0.0
C333 C 0.87351 0.31916 0.94797 0.0
H334 H 0.8336 0.21724 0.90607 0.0
C335 C 0.86081 0.33571 0.9086 0.0
H336 H 0.87319 0.26265 0.97608 0.0
C337 C 0.83791 0.30982 0.8691 0.0
C338 C 0.82771 0.2668 0.86729 0.0
H339 H 0.86738 0.36841 0.90883 0.0
H340 H 0.82774 0.32349 0.83995 0.0
C341 C 0.84142 0.25041 0.90614 0.0
C342 C 0.83366 0.45201 0.94192 0.0
C343 C 0.88441 0.48239 0.94929 0.0
H344 H 0.76916 0.43711 0.90325 0.0
C345 C 0.90941 0.52124 0.92105 0.0
H346 H 0.81341 0.42145 0.9629 0.0
C347 C 0.88384 0.53038 0.88748 0.0
C348 C 0.83288 0.5005 0.8808 0.0
H349 H 0.94836 0.54517 0.92584 0.0
H350 H 0.90413 0.56113 0.8668 0.0
C351 C 0.80822 0.46078 0.9077 0.0
C352 C 0.3186 0.92765 0.41835 0.0
C353 C 0.35096 0.92105 0.44531 0.0
H354 H 0.2592 0.90093 0.36807 0.0
C355 C 0.34492 0.87961 0.44409 0.0
H356 H 0.3223 0.95922 0.41836 0.0
C357 C 0.30954 0.84669 0.41455 0.0
C358 C 0.27845 0.85385 0.38617 0.0
H359 H 0.36935 0.87341 0.46395 0.0
H360 H 0.30741 0.81587 0.41297 0.0
C361 C 0.28236 0.89424 0.38955 0.0
C362 C 0.60318 0.43152 0.9058 0.0
C363 C 0.58109 0.40844 0.94881 0.0
H364 H 0.61985 0.42721 0.83365 0.0
C365 C 0.56198 0.36298 0.95257 0.0
H366 H 0.61856 0.46667 0.90201 0.0
C367 C 0.56233 0.3406 0.91356 0.0
C368 C 0.58293 0.3633 0.87027 0.0
H369 H 0.54436 0.34426 0.98493 0.0
H370 H 0.54486 0.30507 0.9167 0.0
C371 C 0.6044 0.40916 0.86689 0.0
C372 C 0.14096 0.41704 0.44377 0.0
C373 C 0.12596 0.44653 0.44657 0.0
H374 H 0.17591 0.39376 0.40164 0.0
C375 C 0.13457 0.47517 0.40756 0.0
H376 H 0.13463 0.39455 0.47328 0.0
C377 C 0.15845 0.47512 0.36719 0.0
C378 C 0.17364 0.44583 0.36416 0.0
H379 H 0.12399 0.49861 0.40878 0.0
H380 H 0.1655 0.49848 0.33836 0.0
C381 C 0.16406 0.41629 0.40266 0.0
C382 C 0.57287 0.0666 0.88467 0.0
C383 C 0.56307 0.08539 0.92137 0.0
H384 H 0.60996 0.07876 0.81868 0.0
C385 C 0.57549 0.12921 0.9157 0.0
H386 H 0.56361 0.03297 0.88827 0.0
C387 C 0.60087 0.15511 0.87561 0.0
C388 C 0.61525 0.13778 0.84124 0.0
H389 H 0.56793 0.14426 0.9436 0.0
H390 H 0.61287 0.18959 0.87363 0.0
C391 C 0.59932 0.09284 0.84505 0.0
C392 C 0.68685 0.70638 0.35674 0.0
C393 C 0.663 0.69019 0.40086 0.0
H394 H 0.70551 0.75273 0.29822 0.0
C395 C 0.64699 0.71422 0.42299 0.0
H396 H 0.69963 0.68895 0.33843 0.0
C397 C 0.65003 0.75039 0.39974 0.0
C398 C 0.6706 0.76449 0.35439 0.0
H399 H 0.62981 0.70389 0.45748 0.0
H400 H 0.63364 0.76578 0.41608 0.0
C401 C 0.6907 0.74327 0.33379 0.0
C402 C 0.49622 0.1291 0.63469 0.0
C403 C 0.53115 0.14366 0.59857 0.0
H404 H 0.47544 0.14479 0.69828 0.0
C405 C 0.57514 0.1858 0.60166 0.0
H406 H 0.46207 0.09689 0.63333 0.0
C407 C 0.58339 0.2131 0.63962 0.0
C408 C 0.54732 0.19908 0.67458 0.0
H409 H 0.60308 0.19762 0.5747 0.0
H410 H 0.61698 0.24578 0.64055 0.0
C411 C 0.50397 0.15658 0.6719 0.0
C412 C 0.40148 0.49282 0.09428 0.0
C413 C 0.40905 0.45827 0.09506 0.0
H414 H 0.36415 0.51951 0.12481 0.0
C415 C 0.37967 0.42115 0.12542 0.0
H416 H 0.42377 0.52212 0.07188 0.0
C417 C 0.34524 0.41949 0.15577 0.0
C418 C 0.3398 0.45525 0.15709 0.0
H419 H 0.38463 0.39398 0.12706 0.0
H420 H 0.32455 0.39109 0.17973 0.0
C421 C 0.36753 0.49144 0.12508 0.0
C422 C 0.85696 0.36893 0.60794 0.0
C423 C 0.89622 0.36507 0.59734 0.0
H424 H 0.78893 0.34072 0.64572 0.0
C425 C 0.89368 0.32654 0.61233 0.0
H426 H 0.85844 0.3987 0.5975 0.0
C427 C 0.85444 0.29372 0.63967 0.0
C428 C 0.81671 0.29863 0.65347 0.0
H429 H 0.92349 0.32275 0.60482 0.0
H430 H 0.855 0.26531 0.65179 0.0
C431 C 0.81746 0.33594 0.63592 0.0
C432 C 0.55643 0.91482 0.13321 0.0
C433 C 0.59078 0.96093 0.13249 0.0
H434 H 0.53997 0.85084 0.15458 0.0
C435 C 0.63821 0.97712 0.15048 0.0
H436 H 0.51948 0.9008 0.12023 0.0
C437 C 0.65014 0.94802 0.17033 0.0
C438 C 0.6148 0.90211 0.17293 0.0
H439 H 0.6659 0.01231 0.14998 0.0
H440 H 0.68621 0.96164 0.18566 0.0
C441 C 0.56823 0.88596 0.15311 0.0
C442 C 0.69005 0.603 0.62875 0.0
C443 C 0.64107 0.57048 0.61769 0.0
H444 H 0.75425 0.61977 0.66788 0.0
C445 C 0.6186 0.52863 0.64105 0.0
H446 H 0.70871 0.63557 0.61164 0.0
C447 C 0.64537 0.51912 0.67305 0.0
C448 C 0.69482 0.55156 0.68296 0.0
H449 H 0.5808 0.50281 0.63367 0.0
H450 H 0.62734 0.48656 0.69014 0.0
C451 C 0.71642 0.59373 0.66086 0.0
C452 C 0.07201 0.62097 0.14567 0.0
C453 C 0.02396 0.5922 0.16308 0.0
H454 H 0.14217 0.68133 0.15399 0.0
C455 C 1.00893 0.6061 0.20107 0.0
H456 H 0.0855 0.61149 0.11711 0.0
C457 C 0.04184 0.64706 0.22206 0.0
C458 C 0.0905 0.67448 0.20582 0.0
H459 H 0.97217 0.58491 0.21518 0.0
H460 H 0.03015 0.65594 0.25272 0.0
C461 C 0.10473 0.66126 0.16685 0.0
loop_
_geom_bond_atom_site_label_1
_geom_bond_atom_site_label_2
_geom_bond_distance
_geom_bond_site_symmetry_2
_ccdc_geom_bond_type
Cu0 N1 1.999 1_554 S
Cu0 O6 1.974 1_554 S
Cu0 N11 1.985 1_655 S
Cu0 O20 1.959 1_655 S
N1 Cu0 1.999 1_556 S
N1 C3 1.263 . S
N1 C5 1.389 1_556 S
N2 C3 1.358 . S
N2 C4 1.400 . S
C3 N1 1.263 . S
C3 N2 1.358 . S
C3 H9 0.930 . S
C4 N2 1.400 . S
C4 C5 1.351 1_556 S
C4 H21 0.930 . S
C5 N1 1.389 1_554 S
C5 C4 1.351 1_554 S
C5 H10 0.930 . S
O6 Cu0 1.974 1_556 S
O6 C16 1.282 . S
C7 O8 1.261 . S
C7 O20 1.251 . S
O8 C7 1.261 . S
H9 C3 0.930 . S
H10 C5 0.930 . S
N11 Cu0 1.985 1_455 S
N11 C13 1.335 . S
N11 C14 1.390 . S
N12 C13 1.345 . S
N12 C15 1.336 . S
C13 N11 1.335 . S
C13 N12 1.345 . S
C13 H18 0.930 . S
C14 N11 1.390 . S
C14 C15 1.346 . S
C14 H19 0.930 1_554 S
C15 N12 1.336 . S
C15 C14 1.346 . S
C15 H22 0.929 . S
C16 O6 1.282 . S
C16 O17 1.216 1_655 S
O17 C16 1.216 1_455 S
H18 C13 0.930 . S
H19 C14 0.930 1_556 S
O20 Cu0 1.959 1_455 S
O20 C7 1.251 . S
H21 C4 0.930 . S
H22 C15 0.929 . S
Cu23 N24 1.999 . S
Cu23 O29 1.974 . S
Cu23 N34 1.985 1_565 S
Cu23 O43 1.959 1_565 S
N24 Cu23 1.999 . S
N24 C26 1.263 . S
N24 C28 1.389 . S
N25 C26 1.358 . S
N25 C27 1.400 . S
C26 N24 1.263 . S
C26 N25 1.358 . S
C26 H32 0.930 . S
C27 N25 1.400 . S
C27 C28 1.351 . S
C27 H44 0.930 . S
C28 N24 1.389 . S
C28 C27 1.351 . S
C28 H33 0.930 . S
O29 Cu23 1.974 . S
O29 C39 1.282 . S
C30 O31 1.261 . S
C30 O43 1.251 . S
O31 C30 1.261 . S
H32 C26 0.930 . S
H33 C28 0.930 . S
N34 Cu23 1.985 1_545 S
N34 C36 1.335 . S
N34 C37 1.390 . S
N35 C36 1.345 . S
N35 C38 1.336 . S
C36 N34 1.335 . S
C36 N35 1.345 . S
C36 H41 0.930 . S
C37 N34 1.390 . S
C37 C38 1.346 . S
C37 H42 0.930 . S
C38 N35 1.336 . S
C38 C37 1.346 . S
C38 H45 0.929 . S
C39 O29 1.282 . S
C39 O40 1.216 1_565 S
O40 C39 1.216 1_545 S
H41 C36 0.930 . S
H42 C37 0.930 . S
O43 Cu23 1.959 1_545 S
O43 C30 1.251 . S
H44 C27 0.930 . S
H45 C38 0.929 . S
Cu46 N47 1.999 . S
Cu46 O52 1.974 . S
Cu46 N57 1.985 1_556 S
Cu46 O66 1.959 1_556 S
N47 Cu46 1.999 . S
N47 C49 1.263 . S
N47 C51 1.389 . S
N48 C49 1.358 . S
N48 C50 1.400 . S
C49 N47 1.263 . S
C49 N48 1.358 . S
C49 H55 0.930 . S
C50 N48 1.400 . S
C50 C51 1.351 . S
C50 H67 0.930 . S
C51 N47 1.389 . S
C51 C50 1.351 . S
C51 H56 0.930 . S
O52 Cu46 1.974 . S
O52 C62 1.282 . S
C53 O54 1.261 . S
C53 O66 1.251 . S
O54 C53 1.261 . S
H55 C49 0.930 . S
H56 C51 0.930 . S
N57 Cu46 1.985 1_554 S
N57 C59 1.335 . S
N57 C60 1.390 . S
N58 C59 1.345 . S
N58 C61 1.336 . S
C59 N57 1.335 . S
C59 N58 1.345 . S
C59 H64 0.930 . S
C60 N57 1.390 . S
C60 C61 1.346 . S
C60 H65 0.930 . S
C61 N58 1.336 . S
C61 C60 1.346 . S
C61 H68 0.929 . S
C62 O52 1.282 . S
C62 O63 1.216 1_556 S
O63 C62 1.216 1_554 S
H64 C59 0.930 . S
H65 C60 0.930 . S
O66 Cu46 1.959 1_554 S
O66 C53 1.251 . S
H67 C50 0.930 . S
H68 C61 0.929 . S
Cu69 N70 1.999 1_655 S
Cu69 O75 1.974 1_655 S
Cu69 N80 1.985 . S
Cu69 O89 1.959 . S
N70 Cu69 1.999 1_455 S
N70 C72 1.263 . S
N70 C74 1.389 1_455 S
N71 C72 1.358 . S
N71 C73 1.400 . S
C72 N70 1.263 . S
C72 N71 1.358 . S
C72 H78 0.930 . S
C73 N71 1.400 . S
C73 C74 1.351 1_455 S
C73 H90 0.930 1_455 S
C74 N70 1.389 1_655 S
C74 C73 1.351 1_655 S
C74 H79 0.930 . S
O75 Cu69 1.974 1_455 S
O75 C85 1.282 . S
C76 O77 1.261 1_655 S
C76 O89 1.251 . S
O77 C76 1.261 1_455 S
H78 C72 0.930 . S
H79 C74 0.930 . S
N80 Cu69 1.985 . S
N80 C82 1.335 . S
N80 C83 1.390 . S
N81 C82 1.345 . S
N81 C84 1.336 . S
C82 N80 1.335 . S
C82 N81 1.345 . S
C82 H87 0.930 . S
C83 N80 1.390 . S
C83 C84 1.346 . S
C83 H88 0.930 1_655 S
C84 N81 1.336 . S
C84 C83 1.346 . S
C84 H91 0.929 . S
C85 O75 1.282 . S
C85 O86 1.216 . S
O86 C85 1.216 . S
H87 C82 0.930 . S
H88 C83 0.930 1_455 S
O89 Cu69 1.959 . S
O89 C76 1.251 . S
H90 C73 0.930 1_655 S
H91 C84 0.929 . S
Cu92 N93 1.999 1_554 S
Cu92 O98 1.974 1_554 S
Cu92 N103 1.985 1_545 S
Cu92 O112 1.959 1_545 S
N93 Cu92 1.999 1_556 S
N93 C95 1.263 . S
N93 C97 1.389 1_556 S
N94 C95 1.358 . S
N94 C96 1.400 . S
C95 N93 1.263 . S
C95 N94 1.358 . S
C95 H101 0.930 . S
C96 N94 1.400 . S
C96 C97 1.351 1_556 S
C96 H113 0.930 . S
C97 N93 1.389 1_554 S
C97 C96 1.351 1_554 S
C97 H102 0.930 . S
O98 Cu92 1.974 1_556 S
O98 C108 1.282 . S
C99 O100 1.261 . S
C99 O112 1.251 . S
O100 C99 1.261 . S
H101 C95 0.930 . S
H102 C97 0.930 . S
N103 Cu92 1.985 1_565 S
N103 C105 1.335 . S
N103 C106 1.390 . S
N104 C105 1.345 . S
N104 C107 1.336 . S
C105 N103 1.335 . S
C105 N104 1.345 . S
C105 H110 0.930 . S
C106 N103 1.390 . S
C106 C107 1.346 . S
C106 H111 0.931 . S
C107 N104 1.336 . S
C107 C106 1.346 . S
C107 H114 0.929 . S
C108 O98 1.282 . S
C108 O109 1.216 . S
O109 C108 1.216 . S
H110 C105 0.930 . S
H111 C106 0.931 . S
O112 Cu92 1.959 1_565 S
O112 C99 1.251 . S
H113 C96 0.930 . S
H114 C107 0.929 . S
Cu115 N116 1.999 . S
Cu115 O121 1.974 . S
Cu115 N126 1.985 . S
Cu115 O135 1.959 . S
N116 Cu115 1.999 . S
N116 C118 1.263 . S
N116 C120 1.389 . S
N117 C118 1.358 . S
N117 C119 1.400 . S
C118 N116 1.263 . S
C118 N117 1.358 . S
C118 H124 0.930 . S
C119 N117 1.400 . S
C119 C120 1.351 . S
C119 H136 0.930 . S
C120 N116 1.389 . S
C120 C119 1.351 . S
C120 H125 0.930 . S
O121 Cu115 1.974 . S
O121 C131 1.282 . S
C122 O123 1.261 . S
C122 O135 1.251 . S
O123 C122 1.261 . S
H124 C118 0.930 . S
H125 C120 0.930 . S
N126 Cu115 1.985 . S
N126 C128 1.335 . S
N126 C129 1.390 . S
N127 C128 1.345 . S
N127 C130 1.336 . S
C128 N126 1.335 . S
C128 N127 1.345 . S
C128 H133 0.930 . S
C129 N126 1.390 . S
C129 C130 1.346 . S
C129 H134 0.930 . S
C130 N127 1.336 . S
C130 C129 1.346 . S
C130 H137 0.929 . S
C131 O121 1.282 . S
C131 O132 1.216 . S
O132 C131 1.216 . S
H133 C128 0.930 . S
H134 C129 0.930 . S
O135 Cu115 1.959 . S
O135 C122 1.251 . S
H136 C119 0.930 . S
H137 C130 0.929 . S
C138 O140 1.247 . S
C138 O142 1.258 . S
C139 O146 1.247 . S
C139 O147 1.258 . S
O140 C138 1.247 . S
O140 Zn141 2.028 . S
Zn141 O140 2.028 . S
Zn141 O145 2.035 . S
Zn141 O147 2.035 . S
Zn141 O148 2.028 . S
O142 C138 1.258 . S
O142 Zn143 2.035 . S
Zn143 O142 2.035 . S
Zn143 O144 2.028 . S
Zn143 O146 2.028 . S
Zn143 O149 2.035 . S
O144 Zn143 2.028 . S
O144 C150 1.247 . S
O145 Zn141 2.035 . S
O145 C150 1.258 . S
O146 C139 1.247 . S
O146 Zn143 2.028 . S
O147 C139 1.258 . S
O147 Zn141 2.035 . S
O148 Zn141 2.028 . S
O148 C151 1.247 . S
O149 Zn143 2.035 . S
O149 C151 1.258 . S
C150 O144 1.247 . S
C150 O145 1.258 . S
C151 O148 1.247 . S
C151 O149 1.258 . S
C152 O154 1.247 . S
C152 O156 1.258 . S
C153 O160 1.247 . S
C153 O161 1.258 . S
O154 C152 1.247 . S
O154 Zn155 2.028 . S
Zn155 O154 2.028 . S
Zn155 O159 2.035 . S
Zn155 O161 2.035 . S
Zn155 O162 2.028 . S
O156 C152 1.258 . S
O156 Zn157 2.035 . S
Zn157 O156 2.035 . S
Zn157 O158 2.028 . S
Zn157 O160 2.028 . S
Zn157 O163 2.035 . S
O158 Zn157 2.028 . S
O158 C164 1.247 . S
O159 Zn155 2.035 . S
O159 C164 1.258 . S
O160 C153 1.247 . S
O160 Zn157 2.028 . S
O161 C153 1.258 . S
O161 Zn155 2.035 . S
O162 Zn155 2.028 . S
O162 C165 1.247 . S
O163 Zn157 2.035 . S
O163 C165 1.258 . S
C164 O158 1.247 . S
C164 O159 1.258 . S
C165 O162 1.247 . S
C165 O163 1.258 . S
C166 O168 1.247 . S
C166 O170 1.258 . S
C167 O174 1.247 . S
C167 O175 1.258 . S
O168 C166 1.247 . S
O168 Zn169 2.028 . S
Zn169 O168 2.028 . S
Zn169 O173 2.035 . S
Zn169 O175 2.035 . S
Zn169 O176 2.028 . S
O170 C166 1.258 . S
O170 Zn171 2.035 . S
Zn171 O170 2.035 . S
Zn171 O172 2.028 . S
Zn171 O174 2.028 . S
Zn171 O177 2.035 . S
O172 Zn171 2.028 . S
O172 C178 1.247 . S
O173 Zn169 2.035 . S
O173 C178 1.258 . S
O174 C167 1.247 . S
O174 Zn171 2.028 . S
O175 C167 1.258 . S
O175 Zn169 2.035 . S
O176 Zn169 2.028 . S
O176 C179 1.247 . S
O177 Zn171 2.035 . S
O177 C179 1.258 . S
C178 O172 1.247 . S
C178 O173 1.258 . S
C179 O176 1.247 . S
C179 O177 1.258 . S
C180 O182 1.247 . S
C180 O184 1.258 . S
C181 O188 1.247 . S
C181 O189 1.258 . S
O182 C180 1.247 . S
O182 Zn183 2.028 . S
Zn183 O182 2.028 . S
Zn183 O187 2.035 . S
Zn183 O189 2.035 . S
Zn183 O190 2.028 . S
O184 C180 1.258 . S
O184 Zn185 2.035 . S
Zn185 O184 2.035 . S
Zn185 O186 2.028 . S
Zn185 O188 2.028 . S
Zn185 O191 2.035 . S
O186 Zn185 2.028 . S
O186 C192 1.247 . S
O187 Zn183 2.035 . S
O187 C192 1.258 . S
O188 C181 1.247 . S
O188 Zn185 2.028 . S
O189 C181 1.258 . S
O189 Zn183 2.035 . S
O190 Zn183 2.028 . S
O190 C193 1.247 . S
O191 Zn185 2.035 . S
O191 C193 1.258 . S
C192 O186 1.247 . S
C192 O187 1.258 . S
C193 O190 1.247 . S
C193 O191 1.258 . S
C194 O196 1.247 . S
C194 O198 1.258 . S
C195 O202 1.247 . S
C195 O203 1.258 . S
O196 C194 1.247 . S
O196 Zn197 2.028 . S
Zn197 O196 2.028 . S
Zn197 O201 2.035 . S
Zn197 O203 2.035 . S
Zn197 O204 2.028 . S
O198 C194 1.258 . S
O198 Zn199 2.035 . S
Zn199 O198 2.035 . S
Zn199 O200 2.028 . S
Zn199 O202 2.028 . S
Zn199 O205 2.035 . S
O200 Zn199 2.028 . S
O200 C206 1.247 . S
O201 Zn197 2.035 . S
O201 C206 1.258 . S
O202 C195 1.247 . S
O202 Zn199 2.028 . S
O203 C195 1.258 . S
O203 Zn197 2.035 . S
O204 Zn197 2.028 . S
O204 C207 1.247 . S
O205 Zn199 2.035 . S
O205 C207 1.258 . S
C206 O200 1.247 . S
C206 O201 1.258 . S
C207 O204 1.247 . S
C207 O205 1.258 . S
C208 O210 1.247 . S
C208 O212 1.258 . S
C209 O216 1.247 . S
C209 O217 1.258 . S
O210 C208 1.247 . S
O210 Zn211 2.028 . S
Zn211 O210 2.028 . S
Zn211 O215 2.035 . S
Zn211 O217 2.035 . S
Zn211 O218 2.028 . S
O212 C208 1.258 . S
O212 Zn213 2.035 . S
Zn213 O212 2.035 . S
Zn213 O214 2.028 . S
Zn213 O216 2.028 . S
Zn213 O219 2.035 . S
O214 Zn213 2.028 . S
O214 C220 1.247 . S
O215 Zn211 2.035 . S
O215 C220 1.258 . S
O216 C209 1.247 . S
O216 Zn213 2.028 . S
O217 C209 1.258 . S
O217 Zn211 2.035 . S
O218 Zn211 2.028 . S
O218 C221 1.247 . S
O219 Zn213 2.035 . S
O219 C221 1.258 . S
C220 O214 1.247 . S
C220 O215 1.258 . S
C221 O218 1.247 . S
C221 O219 1.258 . S
C222 C223 1.387 . S
C222 H226 0.950 . S
C222 C231 1.390 . S
C223 C222 1.387 . S
C223 C225 1.387 . S
H224 C231 0.950 . S
C225 C223 1.387 . S
C225 C227 1.390 . S
C225 H229 0.950 . S
H226 C222 0.950 . S
C227 C225 1.390 . S
C227 C228 1.387 . S
C227 H230 0.950 . S
C228 C227 1.387 . S
C228 C231 1.387 . S
H229 C225 0.950 . S
H230 C227 0.950 . S
C231 C222 1.390 . S
C231 H224 0.950 . S
C231 C228 1.387 . S
C232 C233 1.387 . S
C232 H236 0.950 . S
C232 C241 1.390 . S
C233 C232 1.387 . S
C233 C235 1.387 . S
H234 C241 0.950 . S
C235 C233 1.387 . S
C235 C237 1.390 . S
C235 H239 0.950 . S
H236 C232 0.950 . S
C237 C235 1.390 . S
C237 C238 1.387 . S
C237 H240 0.950 . S
C238 C237 1.387 . S
C238 C241 1.387 . S
H239 C235 0.950 . S
H240 C237 0.950 . S
C241 C232 1.390 . S
C241 H234 0.950 . S
C241 C238 1.387 . S
C242 C243 1.387 . S
C242 H246 0.950 . S
C242 C251 1.390 . S
C243 C242 1.387 . S
C243 C245 1.387 . S
H244 C251 0.950 . S
C245 C243 1.387 . S
C245 C247 1.390 . S
C245 H249 0.950 . S
H246 C242 0.950 . S
C247 C245 1.390 . S
C247 C248 1.387 . S
C247 H250 0.950 . S
C248 C247 1.387 . S
C248 C251 1.387 . S
H249 C245 0.950 . S
H250 C247 0.950 . S
C251 C242 1.390 . S
C251 H244 0.950 . S
C251 C248 1.387 . S
C252 C253 1.387 . S
C252 H256 0.950 . S
C252 C261 1.390 . S
C253 C252 1.387 . S
C253 C255 1.387 . S
H254 C261 0.950 . S
C255 C253 1.387 . S
C255 C257 1.390 . S
C255 H259 0.950 . S
H256 C252 0.950 . S
C257 C255 1.390 . S
C257 C258 1.387 . S
C257 H260 0.950 . S
C258 C257 1.387 . S
C258 C261 1.387 . S
H259 C255 0.950 . S
H260 C257 0.950 . S
C261 C252 1.390 . S
C261 H254 0.950 . S
C261 C258 1.387 . S
C262 C263 1.387 . S
C262 H266 0.950 . S
C262 C271 1.390 . S
C263 C262 1.387 . S
C263 C265 1.387 . S
H264 C271 0.950 . S
C265 C263 1.387 . S
C265 C267 1.390 . S
C265 H269 0.950 . S
H266 C262 0.950 . S
C267 C265 1.390 . S
C267 C268 1.387 . S
C267 H270 0.950 . S
C268 C267 1.387 . S
C268 C271 1.387 . S
H269 C265 0.950 . S
H270 C267 0.950 . S
C271 C262 1.390 . S
C271 H264 0.950 . S
C271 C268 1.387 . S
C272 C273 1.387 . S
C272 H276 0.950 . S
C272 C281 1.390 . S
C273 C272 1.387 . S
C273 C275 1.387 . S
H274 C281 0.950 . S
C275 C273 1.387 . S
C275 C277 1.390 . S
C275 H279 0.950 . S
H276 C272 0.950 . S
C277 C275 1.390 . S
C277 C278 1.387 . S
C277 H280 0.950 . S
C278 C277 1.387 . S
C278 C281 1.387 . S
H279 C275 0.950 . S
H280 C277 0.950 . S
C281 C272 1.390 . S
C281 H274 0.950 . S
C281 C278 1.387 . S
C282 C283 1.387 . S
C282 H286 0.950 . S
C282 C291 1.390 . S
C283 C282 1.387 . S
C283 C285 1.387 . S
H284 C291 0.950 . S
C285 C283 1.387 . S
C285 C287 1.390 . S
C285 H289 0.950 . S
H286 C282 0.950 . S
C287 C285 1.390 . S
C287 C288 1.387 . S
C287 H290 0.950 . S
C288 C287 1.387 . S
C288 C291 1.387 . S
H289 C285 0.950 . S
H290 C287 0.950 . S
C291 C282 1.390 . S
C291 H284 0.950 . S
C291 C288 1.387 . S
C292 C293 1.387 . S
C292 H296 0.950 . S
C292 C301 1.390 . S
C293 C292 1.387 . S
C293 C295 1.387 . S
H294 C301 0.950 . S
C295 C293 1.387 . S
C295 C297 1.390 . S
C295 H299 0.950 . S
H296 C292 0.950 . S
C297 C295 1.390 . S
C297 C298 1.387 . S
C297 H300 0.950 . S
C298 C297 1.387 . S
C298 C301 1.387 . S
H299 C295 0.950 . S
H300 C297 0.950 . S
C301 C292 1.390 . S
C301 H294 0.950 . S
C301 C298 1.387 . S
C302 C303 1.387 . S
C302 H306 0.950 . S
C302 C311 1.390 . S
C303 C302 1.387 . S
C303 C305 1.387 . S
H304 C311 0.950 . S
C305 C303 1.387 . S
C305 C307 1.390 . S
C305 H309 0.950 . S
H306 C302 0.950 . S
C307 C305 1.390 . S
C307 C308 1.387 . S
C307 H310 0.950 . S
C308 C307 1.387 . S
C308 C311 1.387 . S
H309 C305 0.950 . S
H310 C307 0.950 . S
C311 C302 1.390 . S
C311 H304 0.950 . S
C311 C308 1.387 . S
C312 C313 1.387 . S
C312 H316 0.950 . S
C312 C321 1.390 . S
C313 C312 1.387 . S
C313 C315 1.387 . S
H314 C321 0.950 . S
C315 C313 1.387 . S
C315 C317 1.390 . S
C315 H319 0.950 . S
H316 C312 0.950 . S
C317 C315 1.390 . S
C317 C318 1.387 . S
C317 H320 0.950 . S
C318 C317 1.387 . S
C318 C321 1.387 . S
H319 C315 0.950 . S
H320 C317 0.950 . S
C321 C312 1.390 . S
C321 H314 0.950 . S
C321 C318 1.387 . S
C322 C323 1.387 . S
C322 H326 0.950 . S
C322 C331 1.390 . S
C323 C322 1.387 . S
C323 C325 1.387 . S
H324 C331 0.950 . S
C325 C323 1.387 . S
C325 C327 1.390 . S
C325 H329 0.950 . S
H326 C322 0.950 . S
C327 C325 1.390 . S
C327 C328 1.387 . S
C327 H330 0.950 . S
C328 C327 1.387 . S
C328 C331 1.387 . S
H329 C325 0.950 . S
H330 C327 0.950 . S
C331 C322 1.390 . S
C331 H324 0.950 . S
C331 C328 1.387 . S
C332 C333 1.387 . S
C332 H336 0.950 . S
C332 C341 1.390 . S
C333 C332 1.387 . S
C333 C335 1.387 . S
H334 C341 0.950 . S
C335 C333 1.387 . S
C335 C337 1.390 . S
C335 H339 0.950 . S
H336 C332 0.950 . S
C337 C335 1.390 . S
C337 C338 1.387 . S
C337 H340 0.950 . S
C338 C337 1.387 . S
C338 C341 1.387 . S
H339 C335 0.950 . S
H340 C337 0.950 . S
C341 C332 1.390 . S
C341 H334 0.950 . S
C341 C338 1.387 . S
C342 C343 1.387 . S
C342 H346 0.950 . S
C342 C351 1.390 . S
C343 C342 1.387 . S
C343 C345 1.387 . S
H344 C351 0.950 . S
C345 C343 1.387 . S
C345 C347 1.390 . S
C345 H349 0.950 . S
H346 C342 0.950 . S
C347 C345 1.390 . S
C347 C348 1.387 . S
C347 H350 0.950 . S
C348 C347 1.387 . S
C348 C351 1.387 . S
H349 C345 0.950 . S
H350 C347 0.950 . S
C351 C342 1.390 . S
C351 H344 0.950 . S
C351 C348 1.387 . S
C352 C353 1.387 . S
C352 H356 0.950 . S
C352 C361 1.390 . S
C353 C352 1.387 . S
C353 C355 1.387 . S
H354 C361 0.950 . S
C355 C353 1.387 . S
C355 C357 1.390 . S
C355 H359 0.950 . S
H356 C352 0.950 . S
C357 C355 1.390 . S
C357 C358 1.387 . S
C357 H360 0.950 . S
C358 C357 1.387 . S
C358 C361 1.387 . S
H359 C355 0.950 . S
H360 C357 0.950 . S
C361 C352 1.390 . S
C361 H354 0.950 . S
C361 C358 1.387 . S
C362 C363 1.387 . S
C362 H366 0.950 . S
C362 C371 1.390 . S
C363 C362 1.387 . S
C363 C365 1.387 . S
H364 C371 0.950 . S
C365 C363 1.387 . S
C365 C367 1.390 . S
C365 H369 0.950 . S
H366 C362 0.950 . S
C367 C365 1.390 . S
C367 C368 1.387 . S
C367 H370 0.950 . S
C368 C367 1.387 . S
C368 C371 1.387 . S
H369 C365 0.950 . S
H370 C367 0.950 . S
C371 C362 1.390 . S
C371 H364 0.950 . S
C371 C368 1.387 . S
C372 C373 1.387 . S
C372 H376 0.950 . S
C372 C381 1.390 . S
C373 C372 1.387 . S
C373 C375 1.387 . S
H374 C381 0.950 . S
C375 C373 1.387 . S
C375 C377 1.390 . S
C375 H379 0.950 . S
H376 C372 0.950 . S
C377 C375 1.390 . S
C377 C378 1.387 . S
C377 H380 0.950 . S
C378 C377 1.387 . S
C378 C381 1.387 . S
H379 C375 0.950 . S
H380 C377 0.950 . S
C381 C372 1.390 . S
C381 H374 0.950 . S
C381 C378 1.387 . S
C382 C383 1.387 . S
C382 H386 0.950 . S
C382 C391 1.390 . S
C383 C382 1.387 . S
C383 C385 1.387 . S
H384 C391 0.950 . S
C385 C383 1.387 . S
C385 C387 1.390 . S
C385 H389 0.950 . S
H386 C382 0.950 . S
C387 C385 1.390 . S
C387 C388 1.387 . S
C387 H390 0.950 . S
C388 C387 1.387 . S
C388 C391 1.387 . S
H389 C385 0.950 . S
H390 C387 0.950 . S
C391 C382 1.390 . S
C391 H384 0.950 . S
C391 C388 1.387 . S
C392 C393 1.387 . S
C392 H396 0.950 . S
C392 C401 1.390 . S
C393 C392 1.387 . S
C393 C395 1.387 . S
H394 C401 0.950 . S
C395 C393 1.387 . S
C395 C397 1.390 . S
C395 H399 0.950 . S
H396 C392 0.950 . S
C397 C395 1.390 . S
C397 C398 1.387 . S
C397 H400 0.950 . S
C398 C397 1.387 . S
C398 C401 1.387 . S
H399 C395 0.950 . S
H400 C397 0.950 . S
C401 C392 1.390 . S
C401 H394 0.950 . S
C401 C398 1.387 . S
C402 C403 1.387 . S
C402 H406 0.950 . S
C402 C411 1.390 . S
C403 C402 1.387 . S
C403 C405 1.387 . S
H404 C411 0.950 . S
C405 C403 1.387 . S
C405 C407 1.390 . S
C405 H409 0.950 . S
H406 C402 0.950 . S
C407 C405 1.390 . S
C407 C408 1.387 . S
C407 H410 0.950 . S
C408 C407 1.387 . S
C408 C411 1.387 . S
H409 C405 0.950 . S
H410 C407 0.950 . S
C411 C402 1.390 . S
C411 H404 0.950 . S
C411 C408 1.387 . S
C412 C413 1.387 . S
C412 H416 0.950 . S
C412 C421 1.390 . S
C413 C412 1.387 . S
C413 C415 1.387 . S
H414 C421 0.950 . S
C415 C413 1.387 . S
C415 C417 1.390 . S
C415 H419 0.950 . S
H416 C412 0.950 . S
C417 C415 1.390 . S
C417 C418 1.387 . S
C417 H420 0.950 . S
C418 C417 1.387 . S
C418 C421 1.387 . S
H419 C415 0.950 . S
H420 C417 0.950 . S
C421 C412 1.390 . S
C421 H414 0.950 . S
C421 C418 1.387 . S
C422 C423 1.387 . S
C422 H426 0.950 . S
C422 C431 1.390 . S
C423 C422 1.387 . S
C423 C425 1.387 . S
H424 C431 0.950 . S
C425 C423 1.387 . S
C425 C427 1.390 . S
C425 H429 0.950 . S
H426 C422 0.950 . S
C427 C425 1.390 . S
C427 C428 1.387 . S
C427 H430 0.950 . S
C428 C427 1.387 . S
C428 C431 1.387 . S
H429 C425 0.950 . S
H430 C427 0.950 . S
C431 C422 1.390 . S
C431 H424 0.950 . S
C431 C428 1.387 . S
C432 C433 1.387 . S
C432 H436 0.950 . S
C432 C441 1.390 . S
C433 C432 1.387 . S
C433 C435 1.387 . S
H434 C441 0.950 . S
C435 C433 1.387 . S
C435 C437 1.390 . S
C435 H439 0.950 . S
H436 C432 0.950 . S
C437 C435 1.390 . S
C437 C438 1.387 . S
C437 H440 0.950 . S
C438 C437 1.387 . S
C438 C441 1.387 . S
H439 C435 0.950 . S
H440 C437 0.950 . S
C441 C432 1.390 . S
C441 H434 0.950 . S
C441 C438 1.387 . S
C442 C443 1.387 . S
C442 H446 0.950 . S
C442 C451 1.390 . S
C443 C442 1.387 . S
C443 C445 1.387 . S
H444 C451 0.950 . S
C445 C443 1.387 . S
C445 C447 1.390 . S
C445 H449 0.950 . S
H446 C442 0.950 . S
C447 C445 1.390 . S
C447 C448 1.387 . S
C447 H450 0.950 . S
C448 C447 1.387 . S
C448 C451 1.387 . S
H449 C445 0.950 . S
H450 C447 0.950 . S
C451 C442 1.390 . S
C451 H444 0.950 . S
C451 C448 1.387 . S
C452 C453 1.387 . S
C452 H456 0.950 . S
C452 C461 1.390 . S
C453 C452 1.387 . S
C453 C455 1.387 . S
H454 C461 0.950 . S
C455 C453 1.387 . S
C455 C457 1.390 . S
C455 H459 0.950 . S
H456 C452 0.950 . S
C457 C455 1.390 . S
C457 C458 1.387 . S
C457 H460 0.950 . S
C458 C457 1.387 . S
C458 C461 1.387 . S
H459 C455 0.950 . S
H460 C457 0.950 . S
C461 C452 1.390 . S
C461 H454 0.950 . S
C461 C458 1.387 . S
C223 C7 1.819 . S
C228 C139 1.788 . S
C233 C30 1.600 . S
C238 C164 1.569 . S
C248 C167 1.645 . S
C243 N58 1.625 . S
C258 C193 1.444 . S
C253 N81 1.412 . S
C268 C194 1.726 . S
C263 C99 1.762 . S
C278 C221 1.438 . S
C273 N127 1.424 . S
C283 N25 1.650 . S
C288 C166 1.647 . S
C293 C62 1.608 . S
C298 C192 1.570 . S
C308 C195 1.743 . S
C303 C85 1.766 . S
C318 C220 1.450 . S
C313 N94 1.458 . S
C323 C131 1.796 . S
C328 C138 1.751 . S
C338 C165 1.443 . S
C333 N2 1.441 . S
C348 C180 1.754 . S
C343 C16 1.767 . S
C353 C39 1.562 . S
C358 C207 1.550 . S
C368 C208 1.640 . S
C363 N48 1.622 . S
C373 N71 1.416 . S
C378 C150 1.443 . S
C383 C108 1.744 . S
C388 C153 1.730 . S
C393 N117 1.413 . S
C398 C178 1.432 . S
C403 N35 1.613 . S
C408 C209 1.641 . S
C418 C151 1.575 . S
C413 C53 1.593 . S
C423 C76 1.792 . S
C428 C152 1.771 . S
C433 N104 1.413 . S
C438 C179 1.435 . S
C443 C122 1.744 . S
C448 C181 1.723 . S
C453 N12 1.394 . S
C458 C206 1.425 . S
