# Generated by pormake.
# Topology pth, (4,4)-cn, num edge types: 1
# Building blocks:
#     Node 0, Type 0, BuildingBlock: CEKHIL_clean_sbu_0, # of connection points: 4
#     Node 1, Type 0, BuildingBlock: CEKHIL_clean_sbu_0, # of connection points: 4
#     Node 2, Type 0, BuildingBlock: CEKHIL_clean_sbu_0, # of connection points: 4
#     Node 3, Type 1, BuildingBlock: NAWXER_clean_sbu_0, # of connection points: 4
#     Node 4, Type 1, BuildingBlock: NAWXER_clean_sbu_0, # of connection points: 4
#     Node 5, Type 1, BuildingBlock: NAWXER_clean_sbu_0, # of connection points: 4
#     Edge 6, Type (0, 1), BuildingBlock: KIFKEQ_clean_linker_1, # of connection points: 2
#     Edge 7, Type (0, 1), BuildingBlock: KIFKEQ_clean_linker_1, # of connection points: 2
#     Edge 8, Type (0, 1), BuildingBlock: KIFKEQ_clean_linker_1, # of connection points: 2
#     Edge 9, Type (0, 1), BuildingBlock: KIFKEQ_clean_linker_1, # of connection points: 2
#     Edge 10, Type (0, 1), BuildingBlock: KIFKEQ_clean_linker_1, # of connection points: 2
#     Edge 11, Type (0, 1), BuildingBlock: KIFKEQ_clean_linker_1, # of connection points: 2
#     Edge 12, Type (0, 1), BuildingBlock: KIFKEQ_clean_linker_1, # of connection points: 2
#     Edge 13, Type (0, 1), BuildingBlock: KIFKEQ_clean_linker_1, # of connection points: 2
#     Edge 14, Type (0, 1), BuildingBlock: KIFKEQ_clean_linker_1, # of connection points: 2
#     Edge 15, Type (0, 1), BuildingBlock: KIFKEQ_clean_linker_1, # of connection points: 2
#     Edge 16, Type (0, 1), BuildingBlock: KIFKEQ_clean_linker_1, # of connection points: 2
#     Edge 17, Type (0, 1), BuildingBlock: KIFKEQ_clean_linker_1, # of connection points: 2
# Relax obj value: 0.003
# Max RMSD: 0.042
# Mean RMSD: 0.026
data_MOF--net-pth--node1-CEKHIL_clean_sbu_0--node2-NAWXER_clean_sbu_0--edge1-KIFKEQ_clean_linker_1
_symmetry_space_group_name_H-M    P1
_symmetry_Int_Tables_number       1
_symmetry_cell_setting            triclinic
loop_
_symmetry_equiv_pos_as_xyz
'x, y, z'
_cell_length_a     23.009633
_cell_length_b     23.057522
_cell_length_c     57.897135
_cell_angle_alpha  90.748562
_cell_angle_beta   90.071733
_cell_angle_gamma 120.23447
loop_
_atom_site_label
_atom_site_type_symbol
_atom_site_fract_x
_atom_site_fract_y
_atom_site_fract_z
_atom_type_partial_charge
Co0 Co 0.05619 0.0531 0.09129 0.0
O1 O 0.01771 0.98579 0.11508 0.0
O2 O 0.10319 1.00344 0.09299 0.0
C3 C 0.05841 0.13609 0.11353 0.0
O4 O 0.11512 0.11846 0.06646 0.0
Co5 Co 0.99081 0.13061 0.07109 0.0
O6 O 0.07891 0.18837 0.05626 0.0
C7 C 0.93754 0.98753 0.05834 0.0
C8 C 0.06418 0.97142 0.11009 0.0
C9 C 0.12229 0.16959 0.05532 0.0
O10 O 0.98961 0.98857 0.06727 0.0
O11 O 0.92662 0.03663 0.06022 0.0
O12 O 0.10602 0.12158 0.11535 0.0
O13 O 0.01084 0.09921 0.09914 0.0
Co14 Co 0.02865 0.06269 0.40792 0.0
O15 O 0.9862 0.09121 0.38538 0.0
O16 O 0.07319 0.15955 0.4074 0.0
C17 C 0.03208 0.9859 0.38388 0.0
O18 O 0.09119 0.05716 0.43184 0.0
Co19 Co 0.97065 0.91878 0.42605 0.0
O20 O 0.05993 0.95115 0.44058 0.0
C21 C 0.91579 1.00389 0.44289 0.0
C22 C 0.03215 0.15242 0.39076 0.0
C23 C 0.10137 0.01395 0.44218 0.0
O24 O 0.96276 0.05598 0.43265 0.0
O25 O 0.90859 0.94525 0.44078 0.0
O26 O 0.07817 0.04896 0.38295 0.0
O27 O 0.98514 0.97157 0.39868 0.0
Co28 Co 0.01715 0.04508 0.74252 0.0
O29 O 0.08969 0.09363 0.72091 0.0
O30 O 0.0694 1.00127 0.73882 0.0
C31 C 0.9377 0.04784 0.71996 0.0
O32 O 0.94819 0.97669 0.7647 0.0
Co33 Co 0.93009 0.09659 0.76516 0.0
O34 O 0.87214 1.00397 0.77626 0.0
C35 C 0.07066 0.1485 0.7814 0.0
C36 C 0.10472 0.04685 0.72384 0.0
C37 C 0.89413 0.9632 0.77555 0.0
O38 O 0.07574 0.10418 0.76905 0.0
O39 O 0.01902 0.15574 0.78074 0.0
O40 O 0.95451 1.00238 0.71647 0.0
O41 O 0.96979 0.09041 0.73642 0.0
C42 C 0.02282 0.63523 0.27451 0.0
C43 C 0.03094 0.47785 0.21733 0.0
O44 O 0.08073 0.64272 0.27036 0.0
Zn45 Zn 0.12886 0.60315 0.25014 0.0
O46 O 0.97127 0.5887 0.26399 0.0
Zn47 Zn 0.01916 0.5528 0.24566 0.0
O48 O 0.05308 0.51346 0.27186 0.0
O49 O 0.16387 0.56786 0.27405 0.0
O50 O 0.97694 0.47565 0.2239 0.0
O51 O 0.0874 0.5226 0.22596 0.0
O52 O 0.18393 0.68064 0.23036 0.0
O53 O 0.07497 0.63313 0.22287 0.0
C54 C 0.1071 0.52157 0.28126 0.0
C55 C 0.1357 0.67792 0.21859 0.0
C56 C 0.62207 0.10227 0.61203 0.0
C57 C 0.47582 0.12251 0.55375 0.0
O58 O 0.5741 0.0473 0.60367 0.0
Zn59 Zn 0.49401 0.01022 0.57973 0.0
O60 O 0.62969 0.15786 0.60498 0.0
Zn61 Zn 0.55387 0.11989 0.58249 0.0
O62 O 0.46827 0.07332 0.60435 0.0
O63 O 0.41666 0.96277 0.60038 0.0
O64 O 0.52811 0.17258 0.56261 0.0
O65 O 0.46036 0.06276 0.55903 0.0
O66 O 0.52244 0.9664 0.55656 0.0
O67 O 0.5883 0.07637 0.55765 0.0
C68 C 0.42048 0.01496 0.60977 0.0
C69 C 0.57385 0.0191 0.54917 0.0
C70 C 0.50259 0.44226 0.94725 0.0
C71 C 0.64162 0.58008 0.88239 0.0
O72 O 0.49198 0.4888 0.94057 0.0
Zn73 Zn 0.52397 0.56496 0.91569 0.0
O74 O 0.54657 0.43319 0.93704 0.0
Zn75 Zn 0.57628 0.50786 0.91504 0.0
O76 O 0.61869 0.59274 0.93779 0.0
O77 O 0.56137 0.64563 0.9354 0.0
O78 O 0.64908 0.53486 0.89207 0.0
O79 O 0.59747 0.59349 0.88992 0.0
O80 O 0.44249 0.5322 0.89676 0.0
O81 O 0.48904 0.46896 0.8936 0.0
C82 C 0.60975 0.64106 0.94415 0.0
C83 C 0.44242 0.48114 0.88798 0.0
H84 H 0.96318 0.17305 0.11175 0.0
H85 H 0.14589 0.21683 0.14761 0.0
H86 H 0.95406 0.25526 0.13596 0.0
H87 H 0.13617 0.29849 0.17218 0.0
H88 H 0.13932 0.48808 0.19512 0.0
H89 H 0.1453 0.40708 0.16972 0.0
H90 H 0.93073 0.27495 0.17564 0.0
H91 H 0.92444 0.35753 0.20112 0.0
C92 C 1.00157 0.20036 0.1248 0.0
C93 C 0.05554 0.18862 0.12769 0.0
C94 C 0.99591 0.2471 0.13882 0.0
C95 C 0.04419 0.28347 0.15607 0.0
C96 C 0.09845 0.27197 0.15886 0.0
C97 C 0.10407 0.2251 0.14483 0.0
C98 C 0.09309 0.4419 0.19103 0.0
C99 C 0.03132 0.42916 0.20035 0.0
C100 C 0.09675 0.39514 0.17653 0.0
C101 C 0.03878 0.33398 0.17087 0.0
C102 C 0.97642 0.32175 0.17959 0.0
C103 C 0.9727 0.36895 0.19419 0.0
H104 H 0.88271 0.10375 0.4445 0.0
H105 H 0.8367 0.91615 0.4756 0.0
H106 H 0.79579 0.10646 0.46812 0.0
H107 H 0.75224 0.91974 0.49938 0.0
H108 H 0.56302 0.90886 0.52579 0.0
H109 H 0.64338 0.90684 0.49865 0.0
H110 H 0.77047 0.1218 0.50672 0.0
H111 H 0.68976 0.12407 0.53297 0.0
C112 C 0.85465 0.06354 0.45649 0.0
C113 C 0.86662 0.00967 0.458 0.0
C114 C 0.80476 0.06496 0.47005 0.0
C115 C 0.76616 0.01282 0.48556 0.0
C116 C 0.77933 0.95983 0.48727 0.0
C117 C 0.82851 0.95817 0.47369 0.0
C118 C 0.60781 0.95564 0.52158 0.0
C119 C 0.61983 0.01643 0.53169 0.0
C120 C 0.65423 0.95458 0.50613 0.0
C121 C 0.71396 0.01422 0.50053 0.0
C122 C 0.72491 0.07502 0.51028 0.0
C123 C 0.67854 0.07612 0.52556 0.0
H124 H 0.93425 0.87135 0.78454 0.0
H125 H 0.77205 0.91095 0.79667 0.0
H126 H 0.87589 0.76952 0.80756 0.0
H127 H 0.71475 0.81045 0.81966 0.0
H128 H 0.59381 0.60341 0.84346 0.0
H129 H 0.65632 0.68931 0.81506 0.0
H130 H 0.84272 0.73532 0.8487 0.0
H131 H 0.77923 0.64718 0.87702 0.0
C132 C 0.88605 0.85826 0.79196 0.0
C133 C 0.85785 0.89952 0.78864 0.0
C134 C 0.85286 0.80007 0.80527 0.0
C135 C 0.79038 0.78139 0.81534 0.0
C136 C 0.76217 0.82245 0.81183 0.0
C137 C 0.79536 0.88057 0.79872 0.0
C138 C 0.6483 0.6305 0.84437 0.0
C139 C 0.68172 0.61873 0.86241 0.0
C140 C 0.68412 0.68028 0.82825 0.0
C141 C 0.75445 0.72046 0.82991 0.0
C142 C 0.78854 0.70528 0.84692 0.0
C143 C 0.75236 0.65464 0.86308 0.0
H144 H 0.02461 0.9344 0.15451 0.0
H145 H 0.13486 0.90879 0.09888 0.0
H146 H 0.05477 0.86919 0.1798 0.0
H147 H 0.16358 0.84203 0.12409 0.0
H148 H 0.10492 0.65272 0.17315 0.0
H149 H 0.09279 0.726 0.14568 0.0
H150 H 0.16886 0.88465 0.19727 0.0
H151 H 0.18275 0.81159 0.22454 0.0
C152 C 0.05456 0.91415 0.14759 0.0
C153 C 0.07706 0.92648 0.12465 0.0
C154 C 0.07247 0.8775 0.16215 0.0
C155 C 0.11214 0.85119 0.15398 0.0
C156 C 0.13318 0.86195 0.13086 0.0
C157 C 0.11654 0.89993 0.11644 0.0
C158 C 0.1216 0.70419 0.17824 0.0
C159 C 0.14623 0.72719 0.20072 0.0
C160 C 0.11421 0.74591 0.16261 0.0
C161 C 0.12938 0.81079 0.1694 0.0
C162 C 0.15654 0.83472 0.19162 0.0
C163 C 0.16541 0.79341 0.2071 0.0
H164 H 0.12775 0.94066 0.47273 0.0
H165 H 0.21101 0.14185 0.44679 0.0
H166 H 0.22154 0.9799 0.49967 0.0
H167 H 0.30575 0.18114 0.47404 0.0
H168 H 0.49669 0.18303 0.51143 0.0
H169 H 0.40777 0.16415 0.48341 0.0
H170 H 0.25729 0.05494 0.53485 0.0
H171 H 0.34523 0.07305 0.56235 0.0
C172 C 0.16618 0.99327 0.47265 0.0
C173 C 0.16131 0.03805 0.45761 0.0
C174 C 0.21986 0.01588 0.48825 0.0
C175 C 0.27063 0.08386 0.48922 0.0
C176 C 0.26731 0.12853 0.47372 0.0
C177 C 0.21292 0.10596 0.45818 0.0
C178 C 0.44469 0.15723 0.51686 0.0
C179 C 0.42758 0.12969 0.539 0.0
C180 C 0.39383 0.14599 0.50084 0.0
C181 C 0.32548 0.10681 0.50681 0.0
C182 C 0.30931 0.08406 0.52956 0.0
C183 C 0.35967 0.09507 0.54539 0.0
H184 H 0.20339 0.18016 0.7813 0.0
H185 H 0.06412 0.22277 0.81714 0.0
H186 H 0.29501 0.26333 0.80586 0.0
H187 H 0.15439 0.30374 0.84183 0.0
H188 H 0.3392 0.49215 0.86839 0.0
H189 H 0.25196 0.41273 0.84174 0.0
H190 H 0.33749 0.28361 0.84457 0.0
H191 H 0.42514 0.36331 0.87042 0.0
C192 C 0.19216 0.2066 0.79454 0.0
C193 C 0.12642 0.19488 0.79713 0.0
C194 C 0.24461 0.25431 0.80865 0.0
C195 C 0.23232 0.29094 0.82574 0.0
C196 C 0.16627 0.27796 0.82853 0.0
C197 C 0.11423 0.23087 0.81443 0.0
C198 C 0.3394 0.44694 0.86323 0.0
C199 C 0.38913 0.43422 0.87162 0.0
C200 C 0.28924 0.40116 0.84803 0.0
C201 C 0.28746 0.34145 0.84099 0.0
C202 C 0.33767 0.32932 0.84926 0.0
C203 C 0.3878 0.37505 0.86429 0.0
H204 H 0.90091 0.14315 0.72318 0.0
H205 H 0.86653 0.9701 0.68256 0.0
H206 H 0.82606 0.15936 0.69762 0.0
H207 H 0.7922 0.98678 0.65679 0.0
H208 H 0.60721 0.98943 0.63169 0.0
H209 H 0.68245 0.97758 0.65782 0.0
H210 H 0.81748 0.19211 0.65769 0.0
H211 H 0.74078 0.20445 0.6313 0.0
C212 C 0.87721 0.10839 0.70881 0.0
C213 C 0.88939 0.05501 0.70498 0.0
C214 C 0.83479 0.11815 0.69403 0.0
C215 C 0.80316 0.07456 0.67511 0.0
C216 C 0.81513 0.02093 0.67136 0.0
C217 C 0.85778 0.01131 0.6861 0.0
C218 C 0.65281 0.03449 0.63715 0.0
C219 C 0.66798 0.09807 0.62919 0.0
C220 C 0.6963 0.02742 0.6521 0.0
C221 C 0.7565 0.08364 0.65965 0.0
C222 C 0.7713 0.14769 0.65223 0.0
C223 C 0.72749 0.15484 0.6371 0.0
H224 H 0.9578 0.89925 0.03185 0.0
H225 H 0.80493 0.94477 0.05277 0.0
H226 H 0.87809 0.81466 1.00443 0.0
H227 H 0.72509 0.85945 0.0262 0.0
H228 H 0.62332 0.76226 0.95763 0.0
H229 H 0.70248 0.84248 0.98605 0.0
H230 H 0.77853 0.70869 0.99952 0.0
H231 H 0.70144 0.63011 0.9707 0.0
C232 C 0.90684 0.89016 0.03095 0.0
C233 C 0.8879 0.92906 0.04432 0.0
C234 C 0.86104 0.84175 0.01522 0.0
C235 C 0.79518 0.83082 1.01276 0.0
C236 C 0.77571 0.86766 0.02704 0.0
C237 C 0.82145 0.91623 0.04249 0.0
C238 C 0.65692 0.75007 0.96669 0.0
C239 C 0.65605 0.68986 0.9618 0.0
C240 C 0.70216 0.79586 0.9831 0.0
C241 C 0.74714 0.7822 0.99519 0.0
C242 C 0.74568 0.72164 0.99036 0.0
C243 C 0.70097 0.67627 0.97387 0.0
H244 H 0.93597 0.85325 0.38141 0.0
H245 H 0.12244 1.00047 0.35045 0.0
H246 H 0.92978 0.76722 0.35484 0.0
H247 H 0.11588 0.91451 0.3237 0.0
H248 H 0.12573 0.73157 0.30014 0.0
H249 H 0.12577 0.81437 0.3261 0.0
H250 H 0.91362 0.73289 0.31311 0.0
H251 H 0.91317 0.64807 0.28678 0.0
C252 C 0.97574 0.86728 0.36893 0.0
C253 C 0.03005 0.93367 0.36814 0.0
C254 C 0.97175 0.81802 0.35356 0.0
C255 C 0.02221 0.83388 0.33713 0.0
C256 C 0.07648 0.9004 0.33633 0.0
C257 C 0.08031 0.94974 0.35164 0.0
C258 C 0.07871 0.73078 0.30268 0.0
C259 C 0.01935 0.68305 0.29116 0.0
C260 C 0.07903 0.77889 0.31754 0.0
C261 C 0.02004 0.781 0.32148 0.0
C262 C 0.95999 0.73248 0.31045 0.0
C263 C 0.95967 0.68399 0.29536 0.0
H264 H 0.11343 0.93517 0.71456 0.0
H265 H 0.20782 0.14613 0.69957 0.0
H266 H 0.1862 0.9228 0.68689 0.0
H267 H 0.28389 0.13532 0.67304 0.0
H268 H 0.36261 0.09116 0.60896 0.0
H269 H 0.28687 0.09654 0.63681 0.0
H270 H 0.2908 0.9402 0.67616 0.0
H271 H 0.36372 0.93223 0.64698 0.0
C272 C 0.15086 0.9793 0.70568 0.0
C273 C 0.15466 0.04161 0.70914 0.0
C274 C 0.19295 0.97228 0.68981 0.0
C275 C 0.24083 0.02773 0.67727 0.0
C276 C 0.24641 0.09074 0.68166 0.0
C277 C 0.20331 0.09736 0.69713 0.0
C278 C 0.34649 0.05733 0.62344 0.0
C279 C 0.36891 0.01127 0.62584 0.0
C280 C 0.3037 0.06102 0.63968 0.0
C281 C 0.28343 0.02003 0.65926 0.0
C282 C 0.30465 0.97245 0.66132 0.0
C283 C 0.34649 0.96769 0.64463 0.0
H284 H 0.15785 0.28291 0.03068 0.0
H285 H 0.22362 0.14198 0.04621 0.0
H286 H 0.2557 0.34518 1.00654 0.0
H287 H 0.32276 0.2055 0.02206 0.0
H288 H 0.44606 0.30556 0.95313 0.0
H289 H 0.35685 0.23666 0.98064 0.0
H290 H 0.3764 0.41684 1.01188 0.0
H291 H 0.46344 0.48452 0.98443 0.0
C292 C 0.19325 0.26522 0.02906 0.0
C293 C 0.18267 0.20743 0.04057 0.0
C294 C 0.2498 0.30129 0.01527 0.0
C295 C 0.29766 0.28085 1.01255 0.0
C296 C 0.28685 0.22252 0.02375 0.0
C297 C 0.23014 0.18638 0.03769 0.0
C298 C 0.43232 0.33014 0.96631 0.0
C299 C 0.46118 0.40028 0.96653 0.0
C300 C 0.38111 0.29082 0.98199 0.0
C301 C 0.35833 0.32122 0.9981 0.0
C302 C 0.39123 0.39162 0.99931 0.0
C303 C 0.4416 0.43048 0.98369 0.0
H304 H 0.95367 0.15277 0.35537 0.0
H305 H 0.13442 0.28324 0.3944 0.0
H306 H 0.97542 0.24559 0.33034 0.0
H307 H 0.1559 0.37663 0.3694 0.0
H308 H 0.20497 0.50036 0.30069 0.0
H309 H 0.1876 0.41392 0.32869 0.0
H310 H 0.9766 0.35142 0.33179 0.0
H311 H 0.9934 0.43597 0.30403 0.0
C312 C 0.9976 0.20149 0.35881 0.0
C313 C 0.04201 0.21055 0.37698 0.0
C314 C 0.01011 0.25486 0.34446 0.0
C315 C 0.0675 0.31875 0.34784 0.0
C316 C 0.11165 0.32802 0.36617 0.0
C317 C 0.0989 0.2746 0.38063 0.0
C318 C 0.15514 0.46853 0.30756 0.0
C319 C 0.10056 0.47473 0.29986 0.0
C320 C 0.14514 0.41909 0.32362 0.0
C321 C 0.0804 0.37498 0.33223 0.0
C322 C 0.02674 0.38329 0.32515 0.0
C323 C 0.03663 0.43225 0.30924 0.0
loop_
_geom_bond_atom_site_label_1
_geom_bond_atom_site_label_2
_geom_bond_distance
_geom_bond_site_symmetry_2
_ccdc_geom_bond_type
Co0 O1 2.216 1_445 S
Co0 O2 2.091 1_545 S
Co0 O4 2.004 . S
Co0 O10 2.021 1_445 S
Co0 O12 2.137 . S
Co0 O13 2.244 1_455 S
O1 Co0 2.216 1_665 S
O1 C8 1.247 1_655 S
O2 Co0 2.091 1_565 S
O2 C8 1.261 . S
C3 O12 1.247 . S
C3 O13 1.272 1_455 S
O4 Co0 2.004 . S
O4 C9 1.259 . S
Co5 O6 2.061 1_655 S
Co5 O11 2.052 . S
Co5 O13 2.135 . S
O6 Co5 2.061 1_455 S
O6 C9 1.235 . S
C7 O10 1.238 . S
C7 O11 1.241 1_565 S
C8 O1 1.247 1_455 S
C8 O2 1.261 . S
C9 O4 1.259 . S
C9 O6 1.235 . S
O10 Co0 2.021 1_665 S
O10 C7 1.238 . S
O11 Co5 2.052 . S
O11 C7 1.241 1_545 S
O12 Co0 2.137 . S
O12 C3 1.247 . S
O13 Co0 2.244 1_655 S
O13 C3 1.272 1_655 S
O13 Co5 2.135 . S
Co14 O15 2.216 1_455 S
Co14 O16 2.091 . S
Co14 O18 2.004 . S
Co14 O24 2.021 . S
Co14 O26 2.137 . S
Co14 O27 2.244 1_545 S
O15 Co14 2.216 1_655 S
O15 C22 1.247 1_655 S
O16 Co14 2.091 . S
O16 C22 1.261 . S
C17 O26 1.247 1_565 S
C17 O27 1.272 . S
O18 Co14 2.004 . S
O18 C23 1.259 . S
Co19 O20 2.061 1_655 S
Co19 O25 2.052 . S
Co19 O27 2.135 1_655 S
O20 Co19 2.061 1_455 S
O20 C23 1.235 1_565 S
C21 O24 1.238 1_655 S
C21 O25 1.241 1_545 S
C22 O15 1.247 1_455 S
C22 O16 1.261 . S
C23 O18 1.259 . S
C23 O20 1.235 1_545 S
O24 Co14 2.021 . S
O24 C21 1.238 1_455 S
O25 Co19 2.052 . S
O25 C21 1.241 1_565 S
O26 Co14 2.137 . S
O26 C17 1.247 1_545 S
O27 Co14 2.244 1_565 S
O27 C17 1.272 . S
O27 Co19 2.135 1_455 S
Co28 O29 2.216 . S
Co28 O30 2.091 1_545 S
Co28 O32 2.004 1_445 S
Co28 O38 2.021 . S
Co28 O40 2.137 1_445 S
Co28 O41 2.244 1_455 S
O29 Co28 2.216 . S
O29 C36 1.247 . S
O30 Co28 2.091 1_565 S
O30 C36 1.261 1_565 S
C31 O40 1.247 1_545 S
C31 O41 1.272 . S
O32 Co28 2.004 1_665 S
O32 C37 1.259 . S
Co33 O34 2.061 . S
Co33 O39 2.052 1_655 S
Co33 O41 2.135 . S
O34 Co33 2.061 . S
O34 C37 1.235 1_545 S
C35 O38 1.238 . S
C35 O39 1.241 . S
C36 O29 1.247 . S
C36 O30 1.261 1_545 S
C37 O32 1.259 . S
C37 O34 1.235 1_565 S
O38 Co28 2.021 . S
O38 C35 1.238 . S
O39 Co33 2.052 1_455 S
O39 C35 1.241 . S
O40 Co28 2.137 1_665 S
O40 C31 1.247 1_565 S
O41 Co28 2.244 1_655 S
O41 C31 1.272 . S
O41 Co33 2.135 . S
C42 O44 1.247 . S
C42 O46 1.258 1_455 S
C43 O50 1.247 1_455 S
C43 O51 1.258 . S
O44 C42 1.247 . S
O44 Zn45 2.028 . S
Zn45 O44 2.028 . S
Zn45 O49 2.035 . S
Zn45 O51 2.035 . S
Zn45 O52 2.028 . S
O46 C42 1.258 1_655 S
O46 Zn47 2.035 . S
Zn47 O46 2.035 . S
Zn47 O48 2.028 . S
Zn47 O50 2.028 . S
Zn47 O53 2.035 . S
O48 Zn47 2.028 . S
O48 C54 1.247 1_655 S
O49 Zn45 2.035 . S
O49 C54 1.258 . S
O50 C43 1.247 1_655 S
O50 Zn47 2.028 . S
O51 C43 1.258 . S
O51 Zn45 2.035 . S
O52 Zn45 2.028 . S
O52 C55 1.247 . S
O53 Zn47 2.035 . S
O53 C55 1.258 1_655 S
C54 O48 1.247 1_455 S
C54 O49 1.258 . S
C55 O52 1.247 . S
C55 O53 1.258 1_455 S
C56 O58 1.247 1_545 S
C56 O60 1.258 . S
C57 O64 1.247 . S
C57 O65 1.258 1_545 S
O58 C56 1.247 1_565 S
O58 Zn59 2.028 . S
Zn59 O58 2.028 . S
Zn59 O63 2.035 . S
Zn59 O65 2.035 . S
Zn59 O66 2.028 . S
O60 C56 1.258 . S
O60 Zn61 2.035 . S
Zn61 O60 2.035 . S
Zn61 O62 2.028 . S
Zn61 O64 2.028 . S
Zn61 O67 2.035 . S
O62 Zn61 2.028 . S
O62 C68 1.247 . S
O63 Zn59 2.035 . S
O63 C68 1.258 1_565 S
O64 C57 1.247 . S
O64 Zn61 2.028 . S
O65 C57 1.258 1_565 S
O65 Zn59 2.035 . S
O66 Zn59 2.028 . S
O66 C69 1.247 1_565 S
O67 Zn61 2.035 . S
O67 C69 1.258 . S
C68 O62 1.247 . S
C68 O63 1.258 1_545 S
C69 O66 1.247 1_545 S
C69 O67 1.258 . S
C70 O72 1.247 . S
C70 O74 1.258 . S
C71 O78 1.247 . S
C71 O79 1.258 . S
O72 C70 1.247 . S
O72 Zn73 2.028 . S
Zn73 O72 2.028 . S
Zn73 O77 2.035 . S
Zn73 O79 2.035 . S
Zn73 O80 2.028 . S
O74 C70 1.258 . S
O74 Zn75 2.035 . S
Zn75 O74 2.035 . S
Zn75 O76 2.028 . S
Zn75 O78 2.028 . S
Zn75 O81 2.035 . S
O76 Zn75 2.028 . S
O76 C82 1.247 . S
O77 Zn73 2.035 . S
O77 C82 1.258 . S
O78 C71 1.247 . S
O78 Zn75 2.028 . S
O79 C71 1.258 . S
O79 Zn73 2.035 . S
O80 Zn73 2.028 . S
O80 C83 1.247 . S
O81 Zn75 2.035 . S
O81 C83 1.258 . S
C82 O76 1.247 . S
C82 O77 1.258 . S
C83 O80 1.247 . S
C83 O81 1.258 . S
H84 C92 0.950 . S
H85 C97 0.950 . S
H86 C94 0.950 . S
H87 C96 0.950 . S
H88 C98 0.950 . S
H89 C100 0.950 . S
H90 C102 0.950 . S
H91 C103 0.950 . S
C92 H84 0.950 . S
C92 C93 1.386 1_655 S
C92 C94 1.391 . S
C93 C92 1.386 1_455 S
C93 C97 1.393 . S
C94 H86 0.950 . S
C94 C92 1.391 . S
C94 C95 1.400 1_655 S
C95 C94 1.400 1_455 S
C95 C96 1.398 . S
C95 C101 1.491 . S
C96 H87 0.950 . S
C96 C95 1.398 . S
C96 C97 1.391 . S
C97 H85 0.950 . S
C97 C93 1.393 . S
C97 C96 1.391 . S
C98 H88 0.950 . S
C98 C99 1.386 . S
C98 C100 1.391 . S
C99 C98 1.386 . S
C99 C103 1.393 1_455 S
C100 H89 0.950 . S
C100 C98 1.391 . S
C100 C101 1.400 . S
C101 C95 1.491 . S
C101 C100 1.400 . S
C101 C102 1.398 1_455 S
C102 H90 0.950 . S
C102 C101 1.398 1_655 S
C102 C103 1.391 . S
C103 H91 0.950 . S
C103 C99 1.393 1_655 S
C103 C102 1.391 . S
H104 C112 0.950 . S
H105 C117 0.950 1_565 S
H106 C114 0.950 . S
H107 C116 0.950 1_565 S
H108 C118 0.952 . S
H109 C120 0.949 . S
H110 C122 0.950 . S
H111 C123 0.950 . S
C112 H104 0.950 . S
C112 C113 1.386 . S
C112 C114 1.391 . S
C113 C112 1.386 . S
C113 C117 1.393 . S
C114 H106 0.950 . S
C114 C112 1.391 . S
C114 C115 1.400 . S
C115 C114 1.400 . S
C115 C116 1.398 . S
C115 C121 1.491 . S
C116 H107 0.950 1_545 S
C116 C115 1.398 . S
C116 C117 1.391 . S
C117 H105 0.950 1_545 S
C117 C113 1.393 . S
C117 C116 1.391 . S
C118 H108 0.952 . S
C118 C119 1.386 . S
C118 C120 1.391 . S
C119 C118 1.386 . S
C119 C123 1.393 . S
C120 H109 0.949 . S
C120 C118 1.391 . S
C120 C121 1.400 . S
C121 C115 1.491 . S
C121 C120 1.400 . S
C121 C122 1.398 . S
C122 H110 0.950 . S
C122 C121 1.398 . S
C122 C123 1.391 . S
C123 H111 0.950 . S
C123 C119 1.393 . S
C123 C122 1.391 . S
H124 C132 0.950 . S
H125 C137 0.950 . S
H126 C134 0.950 . S
H127 C136 0.950 . S
H128 C138 0.950 . S
H129 C140 0.950 . S
H130 C142 0.950 . S
H131 C143 0.950 . S
C132 H124 0.950 . S
C132 C133 1.386 . S
C132 C134 1.391 . S
C133 C132 1.386 . S
C133 C137 1.393 . S
C134 H126 0.950 . S
C134 C132 1.391 . S
C134 C135 1.400 . S
C135 C134 1.400 . S
C135 C136 1.398 . S
C135 C141 1.491 . S
C136 H127 0.950 . S
C136 C135 1.398 . S
C136 C137 1.391 . S
C137 H125 0.950 . S
C137 C133 1.393 . S
C137 C136 1.391 . S
C138 H128 0.950 . S
C138 C139 1.386 . S
C138 C140 1.391 . S
C139 C138 1.386 . S
C139 C143 1.393 . S
C140 H129 0.950 . S
C140 C138 1.391 . S
C140 C141 1.400 . S
C141 C135 1.491 . S
C141 C140 1.400 . S
C141 C142 1.398 . S
C142 H130 0.950 . S
C142 C141 1.398 . S
C142 C143 1.391 . S
C143 H131 0.950 . S
C143 C139 1.393 . S
C143 C142 1.391 . S
H144 C152 0.950 . S
H145 C157 0.950 . S
H146 C154 0.950 . S
H147 C156 0.950 . S
H148 C158 0.950 . S
H149 C160 0.950 . S
H150 C162 0.950 . S
H151 C163 0.950 . S
C152 H144 0.950 . S
C152 C153 1.386 . S
C152 C154 1.391 . S
C153 C152 1.386 . S
C153 C157 1.393 1_455 S
C154 H146 0.950 . S
C154 C152 1.391 . S
C154 C155 1.400 . S
C155 C154 1.400 . S
C155 C156 1.398 1_455 S
C155 C161 1.491 . S
C156 H147 0.950 . S
C156 C155 1.398 1_655 S
C156 C157 1.391 . S
C157 H145 0.950 . S
C157 C153 1.393 1_655 S
C157 C156 1.391 . S
C158 H148 0.950 . S
C158 C159 1.386 1_655 S
C158 C160 1.391 . S
C159 C158 1.386 1_455 S
C159 C163 1.393 . S
C160 H149 0.950 . S
C160 C158 1.391 . S
C160 C161 1.400 1_655 S
C161 C155 1.491 . S
C161 C160 1.400 1_455 S
C161 C162 1.398 . S
C162 H150 0.950 . S
C162 C161 1.398 . S
C162 C163 1.391 . S
C163 H151 0.950 . S
C163 C159 1.393 . S
C163 C162 1.391 . S
H164 C172 0.950 . S
H165 C177 0.950 . S
H166 C174 0.950 . S
H167 C176 0.950 . S
H168 C178 0.950 . S
H169 C180 0.950 . S
H170 C182 0.950 . S
H171 C183 0.950 . S
C172 H164 0.950 . S
C172 C173 1.386 . S
C172 C174 1.391 . S
C173 C172 1.386 . S
C173 C177 1.393 . S
C174 H166 0.950 . S
C174 C172 1.391 . S
C174 C175 1.400 . S
C175 C174 1.400 . S
C175 C176 1.398 . S
C175 C181 1.491 . S
C176 H167 0.950 . S
C176 C175 1.398 . S
C176 C177 1.391 . S
C177 H165 0.950 . S
C177 C173 1.393 . S
C177 C176 1.391 . S
C178 H168 0.950 . S
C178 C179 1.386 . S
C178 C180 1.391 . S
C179 C178 1.386 . S
C179 C183 1.393 . S
C180 H169 0.950 . S
C180 C178 1.391 . S
C180 C181 1.400 . S
C181 C175 1.491 . S
C181 C180 1.400 . S
C181 C182 1.398 . S
C182 H170 0.950 . S
C182 C181 1.398 . S
C182 C183 1.391 . S
C183 H171 0.950 . S
C183 C179 1.393 . S
C183 C182 1.391 . S
H184 C192 0.950 . S
H185 C197 0.950 . S
H186 C194 0.950 . S
H187 C196 0.950 . S
H188 C198 0.950 . S
H189 C200 0.950 . S
H190 C202 0.950 . S
H191 C203 0.950 . S
C192 H184 0.950 . S
C192 C193 1.386 . S
C192 C194 1.391 . S
C193 C192 1.386 . S
C193 C197 1.393 . S
C194 H186 0.950 . S
C194 C192 1.391 . S
C194 C195 1.400 . S
C195 C194 1.400 . S
C195 C196 1.398 . S
C195 C201 1.491 . S
C196 H187 0.950 . S
C196 C195 1.398 . S
C196 C197 1.391 . S
C197 H185 0.950 . S
C197 C193 1.393 . S
C197 C196 1.391 . S
C198 H188 0.950 . S
C198 C199 1.386 . S
C198 C200 1.391 . S
C199 C198 1.386 . S
C199 C203 1.393 . S
C200 H189 0.950 . S
C200 C198 1.391 . S
C200 C201 1.400 . S
C201 C195 1.491 . S
C201 C200 1.400 . S
C201 C202 1.398 . S
C202 H190 0.950 . S
C202 C201 1.398 . S
C202 C203 1.391 . S
C203 H191 0.950 . S
C203 C199 1.393 . S
C203 C202 1.391 . S
H204 C212 0.950 . S
H205 C217 0.950 . S
H206 C214 0.950 . S
H207 C216 0.950 . S
H208 C218 0.950 . S
H209 C220 0.950 . S
H210 C222 0.950 . S
H211 C223 0.950 . S
C212 H204 0.950 . S
C212 C213 1.386 . S
C212 C214 1.391 . S
C213 C212 1.386 . S
C213 C217 1.393 1_545 S
C214 H206 0.950 . S
C214 C212 1.391 . S
C214 C215 1.400 . S
C215 C214 1.400 . S
C215 C216 1.398 1_545 S
C215 C221 1.491 . S
C216 H207 0.950 . S
C216 C215 1.398 1_565 S
C216 C217 1.391 . S
C217 H205 0.950 . S
C217 C213 1.393 1_565 S
C217 C216 1.391 . S
C218 H208 0.950 . S
C218 C219 1.386 1_565 S
C218 C220 1.391 . S
C219 C218 1.386 1_545 S
C219 C223 1.393 . S
C220 H209 0.950 . S
C220 C218 1.391 . S
C220 C221 1.400 1_565 S
C221 C215 1.491 . S
C221 C220 1.400 1_545 S
C221 C222 1.398 . S
C222 H210 0.950 . S
C222 C221 1.398 . S
C222 C223 1.391 . S
C223 H211 0.950 . S
C223 C219 1.393 . S
C223 C222 1.391 . S
H224 C232 0.950 . S
H225 C237 0.950 . S
H226 C234 0.950 . S
H227 C236 0.950 . S
H228 C238 0.950 . S
H229 C240 0.950 . S
H230 C242 0.950 . S
H231 C243 0.950 . S
C232 H224 0.950 . S
C232 C233 1.386 . S
C232 C234 1.391 1_554 S
C233 C232 1.386 . S
C233 C237 1.393 . S
C234 H226 0.950 . S
C234 C232 1.391 1_556 S
C234 C235 1.400 . S
C235 C234 1.400 . S
C235 C236 1.398 1_556 S
C235 C241 1.491 . S
C236 H227 0.950 . S
C236 C235 1.398 1_554 S
C236 C237 1.391 . S
C237 H225 0.950 . S
C237 C233 1.393 . S
C237 C236 1.391 . S
C238 H228 0.950 . S
C238 C239 1.386 . S
C238 C240 1.391 . S
C239 C238 1.386 . S
C239 C243 1.393 . S
C240 H229 0.950 . S
C240 C238 1.391 . S
C240 C241 1.400 . S
C241 C235 1.491 . S
C241 C240 1.400 . S
C241 C242 1.398 . S
C242 H230 0.950 . S
C242 C241 1.398 . S
C242 C243 1.391 . S
C243 H231 0.950 . S
C243 C239 1.393 . S
C243 C242 1.391 . S
H244 C252 0.950 . S
H245 C257 0.950 . S
H246 C254 0.950 . S
H247 C256 0.950 . S
H248 C258 0.950 . S
H249 C260 0.950 . S
H250 C262 0.950 . S
H251 C263 0.950 . S
C252 H244 0.950 . S
C252 C253 1.386 1_655 S
C252 C254 1.391 . S
C253 C252 1.386 1_455 S
C253 C257 1.393 . S
C254 H246 0.950 . S
C254 C252 1.391 . S
C254 C255 1.400 1_655 S
C255 C254 1.400 1_455 S
C255 C256 1.398 . S
C255 C261 1.491 . S
C256 H247 0.950 . S
C256 C255 1.398 . S
C256 C257 1.391 . S
C257 H245 0.950 . S
C257 C253 1.393 . S
C257 C256 1.391 . S
C258 H248 0.950 . S
C258 C259 1.386 . S
C258 C260 1.391 . S
C259 C258 1.386 . S
C259 C263 1.393 1_455 S
C260 H249 0.950 . S
C260 C258 1.391 . S
C260 C261 1.400 . S
C261 C255 1.491 . S
C261 C260 1.400 . S
C261 C262 1.398 1_455 S
C262 H250 0.950 . S
C262 C261 1.398 1_655 S
C262 C263 1.391 . S
C263 H251 0.950 . S
C263 C259 1.393 1_655 S
C263 C262 1.391 . S
H264 C272 0.950 . S
H265 C277 0.950 . S
H266 C274 0.950 . S
H267 C276 0.950 . S
H268 C278 0.950 . S
H269 C280 0.950 . S
H270 C282 0.950 . S
H271 C283 0.950 . S
C272 H264 0.950 . S
C272 C273 1.386 . S
C272 C274 1.391 . S
C273 C272 1.386 . S
C273 C277 1.393 . S
C274 H266 0.950 . S
C274 C272 1.391 . S
C274 C275 1.400 . S
C275 C274 1.400 . S
C275 C276 1.398 . S
C275 C281 1.491 . S
C276 H267 0.950 . S
C276 C275 1.398 . S
C276 C277 1.391 . S
C277 H265 0.950 . S
C277 C273 1.393 . S
C277 C276 1.391 . S
C278 H268 0.950 . S
C278 C279 1.386 . S
C278 C280 1.391 . S
C279 C278 1.386 . S
C279 C283 1.393 . S
C280 H269 0.950 . S
C280 C278 1.391 . S
C280 C281 1.400 . S
C281 C275 1.491 . S
C281 C280 1.400 . S
C281 C282 1.398 . S
C282 H270 0.950 . S
C282 C281 1.398 . S
C282 C283 1.391 . S
C283 H271 0.950 . S
C283 C279 1.393 . S
C283 C282 1.391 . S
H284 C292 0.950 1_556 S
H285 C297 0.950 . S
H286 C294 0.950 . S
H287 C296 0.950 . S
H288 C298 0.950 . S
H289 C300 0.950 . S
H290 C302 0.950 . S
H291 C303 0.950 . S
C292 H284 0.950 1_554 S
C292 C293 1.386 . S
C292 C294 1.391 1_554 S
C293 C292 1.386 . S
C293 C297 1.393 . S
C294 H286 0.950 . S
C294 C292 1.391 1_556 S
C294 C295 1.400 . S
C295 C294 1.400 . S
C295 C296 1.398 1_556 S
C295 C301 1.491 . S
C296 H287 0.950 . S
C296 C295 1.398 1_554 S
C296 C297 1.391 . S
C297 H285 0.950 . S
C297 C293 1.393 . S
C297 C296 1.391 . S
C298 H288 0.950 . S
C298 C299 1.386 . S
C298 C300 1.391 . S
C299 C298 1.386 . S
C299 C303 1.393 . S
C300 H289 0.950 . S
C300 C298 1.391 . S
C300 C301 1.400 . S
C301 C295 1.491 . S
C301 C300 1.400 . S
C301 C302 1.398 . S
C302 H290 0.950 . S
C302 C301 1.398 . S
C302 C303 1.391 . S
C303 H291 0.950 . S
C303 C299 1.393 . S
C303 C302 1.391 . S
H304 C312 0.950 . S
H305 C317 0.950 . S
H306 C314 0.950 . S
H307 C316 0.950 . S
H308 C318 0.950 . S
H309 C320 0.950 . S
H310 C322 0.950 . S
H311 C323 0.950 . S
C312 H304 0.950 . S
C312 C313 1.386 1_655 S
C312 C314 1.391 . S
C313 C312 1.386 1_455 S
C313 C317 1.393 . S
C314 H306 0.950 . S
C314 C312 1.391 . S
C314 C315 1.400 1_655 S
C315 C314 1.400 1_455 S
C315 C316 1.398 . S
C315 C321 1.491 . S
C316 H307 0.950 . S
C316 C315 1.398 . S
C316 C317 1.391 . S
C317 H305 0.950 . S
C317 C313 1.393 . S
C317 C316 1.391 . S
C318 H308 0.950 . S
C318 C319 1.386 . S
C318 C320 1.391 . S
C319 C318 1.386 . S
C319 C323 1.393 1_455 S
C320 H309 0.950 . S
C320 C318 1.391 . S
C320 C321 1.400 . S
C321 C315 1.491 . S
C321 C320 1.400 . S
C321 C322 1.398 1_455 S
C322 H310 0.950 . S
C322 C321 1.398 1_655 S
C322 C323 1.391 . S
C323 H311 0.950 . S
C323 C319 1.393 1_655 S
C323 C322 1.391 . S
C99 C43 1.469 . S
C93 C3 1.464 . S
C113 C21 1.478 . S
C119 C69 1.505 . S
C133 C37 1.461 . S
C139 C71 1.479 . S
C153 C8 1.472 . S
C159 C55 1.470 . S
C179 C57 1.478 . S
C173 C23 1.450 . S
C193 C35 1.449 . S
C199 C83 1.478 . S
C219 C56 1.470 . S
C213 C31 1.464 . S
C233 C7 1.462 . S
C239 C82 1.481 . S
C259 C42 1.470 . S
C253 C17 1.467 . S
C279 C68 1.443 . S
C273 C36 1.443 . S
C299 C70 1.480 . S
C293 C9 1.453 . S
C313 C22 1.475 . S
C319 C54 1.474 . S
