# Generated by pormake.
# Topology iac, (4,6)-cn, num edge types: 1
# Building blocks:
#     Node 0, Type 0, BuildingBlock: GALJAG_clean_sbu_0, # of connection points: 4
#     Node 1, Type 0, BuildingBlock: GALJAG_clean_sbu_0, # of connection points: 4
#     Node 2, Type 0, BuildingBlock: GALJAG_clean_sbu_0, # of connection points: 4
#     Node 3, Type 0, BuildingBlock: GALJAG_clean_sbu_0, # of connection points: 4
#     Node 4, Type 0, BuildingBlock: GALJAG_clean_sbu_0, # of connection points: 4
#     Node 5, Type 0, BuildingBlock: GALJAG_clean_sbu_0, # of connection points: 4
#     Node 6, Type 0, BuildingBlock: GALJAG_clean_sbu_0, # of connection points: 4
#     Node 7, Type 0, BuildingBlock: GALJAG_clean_sbu_0, # of connection points: 4
#     Node 8, Type 0, BuildingBlock: GALJAG_clean_sbu_0, # of connection points: 4
#     Node 9, Type 0, BuildingBlock: GALJAG_clean_sbu_0, # of connection points: 4
#     Node 10, Type 0, BuildingBlock: GALJAG_clean_sbu_0, # of connection points: 4
#     Node 11, Type 0, BuildingBlock: GALJAG_clean_sbu_0, # of connection points: 4
#     Node 12, Type 0, BuildingBlock: GALJAG_clean_sbu_0, # of connection points: 4
#     Node 13, Type 0, BuildingBlock: GALJAG_clean_sbu_0, # of connection points: 4
#     Node 14, Type 0, BuildingBlock: GALJAG_clean_sbu_0, # of connection points: 4
#     Node 15, Type 0, BuildingBlock: GALJAG_clean_sbu_0, # of connection points: 4
#     Node 16, Type 0, BuildingBlock: GALJAG_clean_sbu_0, # of connection points: 4
#     Node 17, Type 0, BuildingBlock: GALJAG_clean_sbu_0, # of connection points: 4
#     Node 18, Type 0, BuildingBlock: GALJAG_clean_sbu_0, # of connection points: 4
#     Node 19, Type 0, BuildingBlock: GALJAG_clean_sbu_0, # of connection points: 4
#     Node 20, Type 0, BuildingBlock: GALJAG_clean_sbu_0, # of connection points: 4
#     Node 21, Type 0, BuildingBlock: GALJAG_clean_sbu_0, # of connection points: 4
#     Node 22, Type 0, BuildingBlock: GALJAG_clean_sbu_0, # of connection points: 4
#     Node 23, Type 0, BuildingBlock: GALJAG_clean_sbu_0, # of connection points: 4
#     Node 24, Type 1, BuildingBlock: FUNLAD_clean_sbu_0, # of connection points: 6
#     Node 25, Type 1, BuildingBlock: FUNLAD_clean_sbu_0, # of connection points: 6
#     Node 26, Type 1, BuildingBlock: FUNLAD_clean_sbu_0, # of connection points: 6
#     Node 27, Type 1, BuildingBlock: FUNLAD_clean_sbu_0, # of connection points: 6
#     Node 28, Type 1, BuildingBlock: FUNLAD_clean_sbu_0, # of connection points: 6
#     Node 29, Type 1, BuildingBlock: FUNLAD_clean_sbu_0, # of connection points: 6
#     Node 30, Type 1, BuildingBlock: FUNLAD_clean_sbu_0, # of connection points: 6
#     Node 31, Type 1, BuildingBlock: FUNLAD_clean_sbu_0, # of connection points: 6
#     Node 32, Type 1, BuildingBlock: FUNLAD_clean_sbu_0, # of connection points: 6
#     Node 33, Type 1, BuildingBlock: FUNLAD_clean_sbu_0, # of connection points: 6
#     Node 34, Type 1, BuildingBlock: FUNLAD_clean_sbu_0, # of connection points: 6
#     Node 35, Type 1, BuildingBlock: FUNLAD_clean_sbu_0, # of connection points: 6
#     Node 36, Type 1, BuildingBlock: FUNLAD_clean_sbu_0, # of connection points: 6
#     Node 37, Type 1, BuildingBlock: FUNLAD_clean_sbu_0, # of connection points: 6
#     Node 38, Type 1, BuildingBlock: FUNLAD_clean_sbu_0, # of connection points: 6
#     Node 39, Type 1, BuildingBlock: FUNLAD_clean_sbu_0, # of connection points: 6
#     Edge 40, Type (0, 1), BuildingBlock: OJICUG_clean_linker_0, # of connection points: 2
#     Edge 41, Type (0, 1), BuildingBlock: OJICUG_clean_linker_0, # of connection points: 2
#     Edge 42, Type (0, 1), BuildingBlock: OJICUG_clean_linker_0, # of connection points: 2
#     Edge 43, Type (0, 1), BuildingBlock: OJICUG_clean_linker_0, # of connection points: 2
#     Edge 44, Type (0, 1), BuildingBlock: OJICUG_clean_linker_0, # of connection points: 2
#     Edge 45, Type (0, 1), BuildingBlock: OJICUG_clean_linker_0, # of connection points: 2
#     Edge 46, Type (0, 1), BuildingBlock: OJICUG_clean_linker_0, # of connection points: 2
#     Edge 47, Type (0, 1), BuildingBlock: OJICUG_clean_linker_0, # of connection points: 2
#     Edge 48, Type (0, 1), BuildingBlock: OJICUG_clean_linker_0, # of connection points: 2
#     Edge 49, Type (0, 1), BuildingBlock: OJICUG_clean_linker_0, # of connection points: 2
#     Edge 50, Type (0, 1), BuildingBlock: OJICUG_clean_linker_0, # of connection points: 2
#     Edge 51, Type (0, 1), BuildingBlock: OJICUG_clean_linker_0, # of connection points: 2
#     Edge 52, Type (0, 1), BuildingBlock: OJICUG_clean_linker_0, # of connection points: 2
#     Edge 53, Type (0, 1), BuildingBlock: OJICUG_clean_linker_0, # of connection points: 2
#     Edge 54, Type (0, 1), BuildingBlock: OJICUG_clean_linker_0, # of connection points: 2
#     Edge 55, Type (0, 1), BuildingBlock: OJICUG_clean_linker_0, # of connection points: 2
#     Edge 56, Type (0, 1), BuildingBlock: OJICUG_clean_linker_0, # of connection points: 2
#     Edge 57, Type (0, 1), BuildingBlock: OJICUG_clean_linker_0, # of connection points: 2
#     Edge 58, Type (0, 1), BuildingBlock: OJICUG_clean_linker_0, # of connection points: 2
#     Edge 59, Type (0, 1), BuildingBlock: OJICUG_clean_linker_0, # of connection points: 2
#     Edge 60, Type (0, 1), BuildingBlock: OJICUG_clean_linker_0, # of connection points: 2
#     Edge 61, Type (0, 1), BuildingBlock: OJICUG_clean_linker_0, # of connection points: 2
#     Edge 62, Type (0, 1), BuildingBlock: OJICUG_clean_linker_0, # of connection points: 2
#     Edge 63, Type (0, 1), BuildingBlock: OJICUG_clean_linker_0, # of connection points: 2
#     Edge 64, Type (0, 1), BuildingBlock: OJICUG_clean_linker_0, # of connection points: 2
#     Edge 65, Type (0, 1), BuildingBlock: OJICUG_clean_linker_0, # of connection points: 2
#     Edge 66, Type (0, 1), BuildingBlock: OJICUG_clean_linker_0, # of connection points: 2
#     Edge 67, Type (0, 1), BuildingBlock: OJICUG_clean_linker_0, # of connection points: 2
#     Edge 68, Type (0, 1), BuildingBlock: OJICUG_clean_linker_0, # of connection points: 2
#     Edge 69, Type (0, 1), BuildingBlock: OJICUG_clean_linker_0, # of connection points: 2
#     Edge 70, Type (0, 1), BuildingBlock: OJICUG_clean_linker_0, # of connection points: 2
#     Edge 71, Type (0, 1), BuildingBlock: OJICUG_clean_linker_0, # of connection points: 2
#     Edge 72, Type (0, 1), BuildingBlock: OJICUG_clean_linker_0, # of connection points: 2
#     Edge 73, Type (0, 1), BuildingBlock: OJICUG_clean_linker_0, # of connection points: 2
#     Edge 74, Type (0, 1), BuildingBlock: OJICUG_clean_linker_0, # of connection points: 2
#     Edge 75, Type (0, 1), BuildingBlock: OJICUG_clean_linker_0, # of connection points: 2
#     Edge 76, Type (0, 1), BuildingBlock: OJICUG_clean_linker_0, # of connection points: 2
#     Edge 77, Type (0, 1), BuildingBlock: OJICUG_clean_linker_0, # of connection points: 2
#     Edge 78, Type (0, 1), BuildingBlock: OJICUG_clean_linker_0, # of connection points: 2
#     Edge 79, Type (0, 1), BuildingBlock: OJICUG_clean_linker_0, # of connection points: 2
#     Edge 80, Type (0, 1), BuildingBlock: OJICUG_clean_linker_0, # of connection points: 2
#     Edge 81, Type (0, 1), BuildingBlock: OJICUG_clean_linker_0, # of connection points: 2
#     Edge 82, Type (0, 1), BuildingBlock: OJICUG_clean_linker_0, # of connection points: 2
#     Edge 83, Type (0, 1), BuildingBlock: OJICUG_clean_linker_0, # of connection points: 2
#     Edge 84, Type (0, 1), BuildingBlock: OJICUG_clean_linker_0, # of connection points: 2
#     Edge 85, Type (0, 1), BuildingBlock: OJICUG_clean_linker_0, # of connection points: 2
#     Edge 86, Type (0, 1), BuildingBlock: OJICUG_clean_linker_0, # of connection points: 2
#     Edge 87, Type (0, 1), BuildingBlock: OJICUG_clean_linker_0, # of connection points: 2
#     Edge 88, Type (0, 1), BuildingBlock: OJICUG_clean_linker_0, # of connection points: 2
#     Edge 89, Type (0, 1), BuildingBlock: OJICUG_clean_linker_0, # of connection points: 2
#     Edge 90, Type (0, 1), BuildingBlock: OJICUG_clean_linker_0, # of connection points: 2
#     Edge 91, Type (0, 1), BuildingBlock: OJICUG_clean_linker_0, # of connection points: 2
#     Edge 92, Type (0, 1), BuildingBlock: OJICUG_clean_linker_0, # of connection points: 2
#     Edge 93, Type (0, 1), BuildingBlock: OJICUG_clean_linker_0, # of connection points: 2
#     Edge 94, Type (0, 1), BuildingBlock: OJICUG_clean_linker_0, # of connection points: 2
#     Edge 95, Type (0, 1), BuildingBlock: OJICUG_clean_linker_0, # of connection points: 2
#     Edge 96, Type (0, 1), BuildingBlock: OJICUG_clean_linker_0, # of connection points: 2
#     Edge 97, Type (0, 1), BuildingBlock: OJICUG_clean_linker_0, # of connection points: 2
#     Edge 98, Type (0, 1), BuildingBlock: OJICUG_clean_linker_0, # of connection points: 2
#     Edge 99, Type (0, 1), BuildingBlock: OJICUG_clean_linker_0, # of connection points: 2
#     Edge 100, Type (0, 1), BuildingBlock: OJICUG_clean_linker_0, # of connection points: 2
#     Edge 101, Type (0, 1), BuildingBlock: OJICUG_clean_linker_0, # of connection points: 2
#     Edge 102, Type (0, 1), BuildingBlock: OJICUG_clean_linker_0, # of connection points: 2
#     Edge 103, Type (0, 1), BuildingBlock: OJICUG_clean_linker_0, # of connection points: 2
#     Edge 104, Type (0, 1), BuildingBlock: OJICUG_clean_linker_0, # of connection points: 2
#     Edge 105, Type (0, 1), BuildingBlock: OJICUG_clean_linker_0, # of connection points: 2
#     Edge 106, Type (0, 1), BuildingBlock: OJICUG_clean_linker_0, # of connection points: 2
#     Edge 107, Type (0, 1), BuildingBlock: OJICUG_clean_linker_0, # of connection points: 2
#     Edge 108, Type (0, 1), BuildingBlock: OJICUG_clean_linker_0, # of connection points: 2
#     Edge 109, Type (0, 1), BuildingBlock: OJICUG_clean_linker_0, # of connection points: 2
#     Edge 110, Type (0, 1), BuildingBlock: OJICUG_clean_linker_0, # of connection points: 2
#     Edge 111, Type (0, 1), BuildingBlock: OJICUG_clean_linker_0, # of connection points: 2
#     Edge 112, Type (0, 1), BuildingBlock: OJICUG_clean_linker_0, # of connection points: 2
#     Edge 113, Type (0, 1), BuildingBlock: OJICUG_clean_linker_0, # of connection points: 2
#     Edge 114, Type (0, 1), BuildingBlock: OJICUG_clean_linker_0, # of connection points: 2
#     Edge 115, Type (0, 1), BuildingBlock: OJICUG_clean_linker_0, # of connection points: 2
#     Edge 116, Type (0, 1), BuildingBlock: OJICUG_clean_linker_0, # of connection points: 2
#     Edge 117, Type (0, 1), BuildingBlock: OJICUG_clean_linker_0, # of connection points: 2
#     Edge 118, Type (0, 1), BuildingBlock: OJICUG_clean_linker_0, # of connection points: 2
#     Edge 119, Type (0, 1), BuildingBlock: OJICUG_clean_linker_0, # of connection points: 2
#     Edge 120, Type (0, 1), BuildingBlock: OJICUG_clean_linker_0, # of connection points: 2
#     Edge 121, Type (0, 1), BuildingBlock: OJICUG_clean_linker_0, # of connection points: 2
#     Edge 122, Type (0, 1), BuildingBlock: OJICUG_clean_linker_0, # of connection points: 2
#     Edge 123, Type (0, 1), BuildingBlock: OJICUG_clean_linker_0, # of connection points: 2
#     Edge 124, Type (0, 1), BuildingBlock: OJICUG_clean_linker_0, # of connection points: 2
#     Edge 125, Type (0, 1), BuildingBlock: OJICUG_clean_linker_0, # of connection points: 2
#     Edge 126, Type (0, 1), BuildingBlock: OJICUG_clean_linker_0, # of connection points: 2
#     Edge 127, Type (0, 1), BuildingBlock: OJICUG_clean_linker_0, # of connection points: 2
#     Edge 128, Type (0, 1), BuildingBlock: OJICUG_clean_linker_0, # of connection points: 2
#     Edge 129, Type (0, 1), BuildingBlock: OJICUG_clean_linker_0, # of connection points: 2
#     Edge 130, Type (0, 1), BuildingBlock: OJICUG_clean_linker_0, # of connection points: 2
#     Edge 131, Type (0, 1), BuildingBlock: OJICUG_clean_linker_0, # of connection points: 2
#     Edge 132, Type (0, 1), BuildingBlock: OJICUG_clean_linker_0, # of connection points: 2
#     Edge 133, Type (0, 1), BuildingBlock: OJICUG_clean_linker_0, # of connection points: 2
#     Edge 134, Type (0, 1), BuildingBlock: OJICUG_clean_linker_0, # of connection points: 2
#     Edge 135, Type (0, 1), BuildingBlock: OJICUG_clean_linker_0, # of connection points: 2
# Relax obj value: 0.395
# Max RMSD: 0.313
# Mean RMSD: 0.175
data_MOF--net-iac--node1-GALJAG_clean_sbu_0--node2-FUNLAD_clean_sbu_0--edge1-OJICUG_clean_linker_0
_symmetry_space_group_name_H-M    P1
_symmetry_Int_Tables_number       1
_symmetry_cell_setting            triclinic
loop_
_symmetry_equiv_pos_as_xyz
'x, y, z'
_cell_length_a     40.657645
_cell_length_b     38.824398
_cell_length_c     45.211923
_cell_angle_alpha  89.623114
_cell_angle_beta   92.125295
_cell_angle_gamma 89.47982
loop_
_atom_site_label
_atom_site_type_symbol
_atom_site_fract_x
_atom_site_fract_y
_atom_site_fract_z
_atom_type_partial_charge
In0 In 0.07898 0.19083 0.13816 0.0
O1 O 0.10764 0.13987 0.13113 0.0
O2 O 0.0982 0.17364 0.09467 0.0
C3 C 0.04961 0.24521 0.11121 0.0
C4 C 0.03093 0.16289 0.16988 0.0
C5 C 0.12629 0.22768 0.16592 0.0
O6 O 0.05395 0.21717 0.09791 0.0
O7 O 0.05782 0.24464 0.13832 0.0
O8 O 0.1023 0.2155 0.17922 0.0
O9 O 0.12751 0.21943 0.13913 0.0
C10 C 0.11165 0.1462 0.10401 0.0
O11 O 0.05992 0.16686 0.18009 0.0
O12 O 0.02694 0.16969 0.14261 0.0
In13 In 0.05129 0.76215 0.4027 0.0
O14 O 0.08271 0.75135 0.36104 0.0
O15 O 0.10762 0.77169 0.39845 0.0
C16 C 0.98901 0.76303 0.37485 0.0
C17 C 0.05716 0.70174 0.43484 0.0
C18 C 0.04731 0.82196 0.43512 0.0
O19 O 0.0142 0.77519 0.36317 0.0
O20 O 0.99518 0.75025 0.40016 0.0
O21 O 0.04552 0.79225 0.44629 0.0
O22 O 0.05125 0.82178 0.40753 0.0
C23 C 0.10991 0.7613 0.37222 0.0
O24 O 0.06097 0.73116 0.44604 0.0
O25 O 0.05094 0.7025 0.40724 0.0
In26 In 0.59893 0.68791 0.66587 0.0
O27 O 0.62703 0.72909 0.64203 0.0
O28 O 0.57509 0.72579 0.63373 0.0
C29 C 0.61585 0.64353 0.6238 0.0
C30 C 0.63958 0.70286 0.71163 0.0
C31 C 0.54133 0.68589 0.69342 0.0
O32 O 0.63226 0.6447 0.64806 0.0
O33 O 0.58984 0.66135 0.62266 0.0
O34 O 0.55503 0.65834 0.68523 0.0
O35 O 0.55638 0.71293 0.68723 0.0
C36 C 0.60168 0.74073 0.62825 0.0
O37 O 0.62805 0.72486 0.69341 0.0
O38 O 0.63124 0.67203 0.70652 0.0
In39 In 0.54798 0.26509 0.9012 0.0
O40 O 0.57834 0.25173 0.85959 0.0
O41 O 0.60464 0.27074 0.89685 0.0
C42 C 0.48628 0.26755 0.87267 0.0
C43 C 0.55288 0.20504 0.93365 0.0
C44 C 0.54559 0.32542 0.93318 0.0
O45 O 0.51175 0.27985 0.86159 0.0
O46 O 0.49188 0.25395 0.89777 0.0
O47 O 0.54082 0.29605 0.94416 0.0
O48 O 0.55177 0.32465 0.906 0.0
C49 C 0.60616 0.25961 0.87077 0.0
O50 O 0.55796 0.23437 0.94465 0.0
O51 O 0.54552 0.20582 0.90626 0.0
In52 In 0.1754 0.03025 0.25137 0.0
O53 O 0.22283 0.9991 0.25943 0.0
O54 O 0.17879 0.97175 0.24907 0.0
C55 C 0.20589 0.09177 0.25299 0.0
C56 C 0.13824 0.0286 0.2005 0.0
C57 C 0.14637 0.02846 0.30374 0.0
O58 O 0.17927 0.08586 0.26517 0.0
O59 O 0.21691 0.06693 0.23834 0.0
O60 O 0.13006 0.03111 0.27951 0.0
O61 O 0.17698 0.0247 0.30134 0.0
C62 C 0.20935 0.97031 0.2551 0.0
O63 O 0.12755 0.04065 0.22412 0.0
O64 O 0.16779 0.01845 0.20229 0.0
In65 In 0.30204 0.9034 0.57271 0.0
O66 O 0.26535 0.94606 0.58512 0.0
O67 O 0.25336 0.91509 0.54783 0.0
C68 C 0.36216 0.93315 0.57431 0.0
C69 C 0.293 0.86427 0.6219 0.0
C70 C 0.31008 0.87396 0.51989 0.0
O71 O 0.33587 0.95014 0.56936 0.0
O72 O 0.35779 0.90212 0.58151 0.0
O73 O 0.29498 0.85879 0.54017 0.0
O74 O 0.31995 0.90377 0.52616 0.0
C75 C 0.24495 0.93941 0.56427 0.0
O76 O 0.30118 0.85146 0.59762 0.0
O77 O 0.29021 0.89665 0.62154 0.0
In78 In 0.42418 0.01445 0.74741 0.0
O79 O 0.39049 0.05629 0.72489 0.0
O80 O 0.39622 0.056 0.7717 0.0
C81 C 0.38621 0.95816 0.75494 0.0
C82 C 0.46225 0.019 0.69962 0.0
C83 C 0.46771 0.00244 0.79302 0.0
O84 O 0.38063 0.98643 0.76749 0.0
O85 O 0.40897 0.95924 0.73674 0.0
O86 O 0.45969 0.03256 0.78475 0.0
O87 O 0.45486 0.97897 0.77768 0.0
C88 C 0.3833 0.07034 0.74898 0.0
O89 O 0.46689 0.03759 0.72216 0.0
O90 O 0.43787 0.99918 0.70074 0.0
In91 In 0.2846 0.06836 0.0341 0.0
O92 O 0.33145 0.05745 0.01027 0.0
O93 O 0.33188 0.04974 0.05701 0.0
C94 C 0.25119 0.01049 0.04573 0.0
C95 C 0.29554 0.12034 0.07181 0.0
C96 C 0.25493 0.09825 0.98607 0.0
O97 O 0.27389 0.01157 0.02762 0.0
O98 O 0.24464 0.03895 0.05762 0.0
O99 O 0.24681 0.10542 0.01199 0.0
O100 O 0.27661 0.07502 0.98456 0.0
C101 C 0.34762 0.04883 0.03353 0.0
O102 O 0.30442 0.12127 0.04538 0.0
O103 O 0.28037 0.09344 0.07905 0.0
In104 In 0.79833 0.40475 0.06542 0.0
O105 O 0.76936 0.36668 0.09387 0.0
O106 O 0.81599 0.38298 0.11064 0.0
C107 C 0.80404 0.36956 0.01463 0.0
C108 C 0.7435 0.4442 0.05951 0.0
C109 C 0.85574 0.43931 0.06148 0.0
O110 O 0.80535 0.35446 0.03951 0.0
O111 O 0.79856 0.40145 0.01568 0.0
O112 O 0.82894 0.45494 0.0657 0.0
O113 O 0.85363 0.407 0.06186 0.0
C114 C 0.79099 0.36472 0.11456 0.0
O115 O 0.76225 0.44557 0.08245 0.0
O116 O 0.75239 0.42316 0.04024 0.0
In117 In 0.92599 0.50857 0.24871 0.0
O118 O 0.96846 0.53295 0.2241 0.0
O119 O 0.93898 0.49587 0.20139 0.0
C120 C 0.96835 0.49692 0.29527 0.0
C121 C 0.88436 0.56362 0.25129 0.0
C122 C 0.88951 0.45086 0.25315 0.0
O123 O 0.96076 0.52698 0.28654 0.0
O124 O 0.95569 0.47335 0.27994 0.0
O125 O 0.88081 0.47921 0.26407 0.0
O126 O 0.91493 0.45245 0.23807 0.0
C127 C 0.96327 0.51584 0.20078 0.0
O128 O 0.89279 0.55102 0.22698 0.0
O129 O 0.89624 0.54807 0.27386 0.0
In130 In 0.77903 0.57172 0.53635 0.0
O131 O 0.82766 0.55639 0.55825 0.0
O132 O 0.82697 0.57013 0.51249 0.0
C133 C 0.75396 0.50895 0.5462 0.0
C134 C 0.78291 0.6212 0.57724 0.0
C135 C 0.74678 0.59883 0.48834 0.0
O136 O 0.77647 0.51418 0.52847 0.0
O137 O 0.74325 0.53568 0.55855 0.0
O138 O 0.74011 0.60762 0.51424 0.0
O139 O 0.76828 0.57545 0.48698 0.0
C140 C 0.84357 0.56006 0.53507 0.0
O141 O 0.79475 0.62461 0.55198 0.0
O142 O 0.76826 0.59309 0.58157 0.0
In143 In 0.68037 0.51516 0.75575 0.0
O144 O 0.67852 0.45622 0.75728 0.0
O145 O 0.72519 0.48051 0.76084 0.0
C146 C 0.73061 0.55798 0.76686 0.0
C147 C 0.64671 0.52033 0.70301 0.0
C148 C 0.64049 0.52855 0.80032 0.0
O149 O 0.71742 0.55537 0.74116 0.0
O150 O 0.71815 0.53948 0.78638 0.0
O151 O 0.65288 0.55189 0.78489 0.0
O152 O 0.64723 0.49812 0.79258 0.0
C153 C 0.70943 0.4528 0.76006 0.0
O154 O 0.6375 0.53552 0.72582 0.0
O155 O 0.67354 0.50406 0.70646 0.0
In156 In 1.00049 0.84984 0.91884 0.0
O157 O 0.02692 0.86979 0.87909 0.0
O158 O 0.05557 0.8613 0.91896 0.0
C159 C 0.97588 0.81221 0.87419 0.0
C160 C 0.00613 0.80221 0.96221 0.0
C161 C 0.96545 0.89945 0.94559 0.0
O162 O 0.994 0.79958 0.89477 0.0
O163 O 0.9699 0.84414 0.87609 0.0
O164 O 0.95246 0.87253 0.93554 0.0
O165 O 0.99562 0.90225 0.94059 0.0
C166 C 0.05513 0.86909 0.89172 0.0
O167 O 0.03104 0.81727 0.95254 0.0
O168 O 0.97903 0.81195 0.9505 0.0
In169 In 0.03868 0.26115 0.6651 0.0
O170 O 0.02759 0.29227 0.62202 0.0
O171 O 0.04115 0.32056 0.66026 0.0
C172 C 0.04423 0.20151 0.63271 0.0
C173 C 0.1002 0.25993 0.69381 0.0
C174 C 0.98027 0.26254 0.69567 0.0
O175 O 0.046 0.23126 0.62162 0.0
O176 O 0.03929 0.20158 0.66014 0.0
O177 O 0.00746 0.27278 0.70659 0.0
O178 O 0.98243 0.25155 0.6696 0.0
C179 C 0.03336 0.32151 0.63294 0.0
O180 O 0.07482 0.2476 0.70501 0.0
O181 O 0.09458 0.27305 0.66854 0.0
In182 In 0.49523 0.33512 0.41358 0.0
O183 O 0.53257 0.31151 0.38428 0.0
O184 O 0.54099 0.36347 0.39674 0.0
C185 C 0.44476 0.32632 0.37497 0.0
C186 C 0.5001 0.27561 0.44303 0.0
C187 C 0.48 0.37966 0.45643 0.0
O188 O 0.47068 0.34124 0.36749 0.0
O189 O 0.44378 0.31854 0.40197 0.0
O190 O 0.47288 0.38646 0.42954 0.0
O191 O 0.49698 0.35279 0.46069 0.0
C192 C 0.55072 0.33747 0.38258 0.0
O193 O 0.52343 0.29688 0.44319 0.0
O194 O 0.475 0.2841 0.42743 0.0
In195 In 0.54234 0.76448 0.1646 0.0
O196 O 0.54844 0.73506 0.12076 0.0
O197 O 0.54071 0.70489 0.1588 0.0
C198 C 0.54057 0.82381 0.13102 0.0
C199 C 0.48376 0.7707 0.19502 0.0
C200 C 0.60368 0.76001 0.19376 0.0
O201 O 0.53265 0.79474 0.12089 0.0
O202 O 0.54862 0.82329 0.1583 0.0
O203 O 0.57789 0.74765 0.20422 0.0
O204 O 0.59853 0.77476 0.16909 0.0
C205 C 0.54564 0.70519 0.13135 0.0
O206 O 0.51136 0.7804 0.20544 0.0
O207 O 0.48563 0.75762 0.16965 0.0
In208 In 0.91379 0.99846 0.81255 0.0
O209 O 0.95711 0.97764 0.78673 0.0
O210 O 0.92516 0.01451 0.76572 0.0
C211 C 0.95269 0.00142 0.86236 0.0
C212 C 0.87898 0.0575 0.81121 0.0
C213 C 0.87216 0.94484 0.80946 0.0
O214 O 0.95606 0.97802 0.84343 0.0
O215 O 0.92951 0.02235 0.85641 0.0
O216 O 0.88361 0.95577 0.83395 0.0
O217 O 0.88152 0.96106 0.78722 0.0
C218 C 0.94945 0.99449 0.76353 0.0
O219 O 0.86529 0.02845 0.81188 0.0
O220 O 0.91006 0.0567 0.81132 0.0
In221 In 0.79585 0.12304 0.49693 0.0
O222 O 0.83291 0.0811 0.48427 0.0
O223 O 0.84748 0.11678 0.51766 0.0
C224 C 0.73746 0.08997 0.49897 0.0
C225 C 0.78758 0.15196 0.54997 0.0
C226 C 0.80306 0.16194 0.44728 0.0
O227 O 0.76466 0.07447 0.50277 0.0
O228 O 0.73988 0.12103 0.49123 0.0
O229 O 0.80102 0.17492 0.47267 0.0
O230 O 0.8012 0.1295 0.44685 0.0
C231 C 0.85491 0.09065 0.50282 0.0
O232 O 0.78595 0.1695 0.52627 0.0
O233 O 0.7949 0.1206 0.54681 0.0
In234 In 0.6712 0.01208 0.32067 0.0
O235 O 0.71087 0.97316 0.33754 0.0
O236 O 0.67858 0.95814 0.30203 0.0
C237 C 0.70356 0.0728 0.31642 0.0
C238 C 0.64066 0.01911 0.26729 0.0
C239 C 0.63406 0.00643 0.36921 0.0
O240 O 0.71751 0.044 0.31352 0.0
O241 O 0.67432 0.07093 0.32447 0.0
O242 O 0.6217 0.01221 0.34366 0.0
O243 O 0.66507 0.00394 0.37041 0.0
C244 C 0.70287 0.95028 0.31899 0.0
O245 O 0.62478 0.01704 0.29074 0.0
O246 O 0.67143 0.01574 0.27085 0.0
In247 In 0.81855 0.94516 0.03195 0.0
O248 O 0.77015 0.95486 0.05315 0.0
O249 O 0.77218 0.96291 0.00651 0.0
C250 C 0.84604 0.00622 0.01927 0.0
C251 C 0.84549 0.9192 0.08275 0.0
C252 C 0.81708 0.88762 0.99927 0.0
O253 O 0.83305 0.99965 0.04342 0.0
O254 O 0.84685 0.98123 0.00161 0.0
O255 O 0.84059 0.9087 0.99841 0.0
O256 O 0.79434 0.89599 0.01614 0.0
C257 C 0.75533 0.96415 0.0294 0.0
O258 O 0.85776 0.91336 0.05807 0.0
O259 O 0.82088 0.9391 0.08174 0.0
In260 In 0.2939 0.62546 0.00199 0.0
O261 O 0.284 0.67313 0.02953 0.0
O262 O 0.29261 0.62528 0.05198 0.0
C263 C 0.30285 0.66622 0.95404 0.0
C264 C 0.35229 0.59169 0.00692 0.0
C265 C 0.23521 0.59285 0.00274 0.0
O266 O 0.30138 0.67798 0.97989 0.0
O267 O 0.29965 0.63397 0.95225 0.0
O268 O 0.26207 0.57737 0.00843 0.0
O269 O 0.2383 0.62348 0.99407 0.0
C270 C 0.2855 0.65687 0.05386 0.0
O271 O 0.33114 0.58514 0.98664 0.0
O272 O 0.34424 0.61537 0.02423 0.0
In273 In 0.16857 0.51724 0.82136 0.0
O274 O 0.21578 0.48737 0.81057 0.0
O275 O 0.18059 0.46114 0.83533 0.0
C276 C 0.19709 0.57972 0.81677 0.0
C277 C 0.13451 0.51709 0.76908 0.0
C278 C 0.13139 0.51704 0.86973 0.0
O279 O 0.21235 0.55397 0.82802 0.0
O280 O 0.1674 0.57429 0.80957 0.0
O281 O 0.12623 0.49724 0.84807 0.0
O282 O 0.15629 0.53611 0.86771 0.0
C283 C 0.20776 0.45958 0.82281 0.0
O284 O 0.1216 0.52552 0.79287 0.0
O285 O 0.16388 0.50678 0.77198 0.0
In286 In 0.30958 0.45299 0.5251 0.0
O287 O 0.33091 0.44871 0.57241 0.0
O288 O 0.33161 0.40372 0.54647 0.0
C289 C 0.29805 0.42586 0.47129 0.0
C290 C 0.24747 0.45814 0.54167 0.0
C291 C 0.33981 0.51291 0.51439 0.0
O292 O 0.32312 0.41752 0.48726 0.0
O293 O 0.28034 0.4493 0.48173 0.0
O294 O 0.31295 0.51102 0.5271 0.0
O295 O 0.35182 0.4843 0.50678 0.0
C296 C 0.33754 0.41707 0.57136 0.0
O297 O 0.26807 0.48178 0.54587 0.0
O298 O 0.25867 0.43105 0.53039 0.0
In299 In 0.42639 0.52042 0.31003 0.0
O300 O 0.46933 0.50001 0.28472 0.0
O301 O 0.44014 0.54031 0.26483 0.0
C302 C 0.45985 0.51632 0.36266 0.0
C303 C 0.39113 0.57953 0.30724 0.0
C304 C 0.38831 0.46578 0.29735 0.0
O305 O 0.47313 0.52499 0.33908 0.0
O306 O 0.42962 0.50934 0.35983 0.0
O307 O 0.37931 0.48909 0.31468 0.0
O308 O 0.41733 0.46846 0.28905 0.0
C309 C 0.46344 0.5189 0.26233 0.0
O310 O 0.38138 0.55197 0.29551 0.0
O311 O 0.41923 0.57767 0.32007 0.0
C312 C 0.02775 0.01269 0.97248 0.0
N313 N 1.00227 0.08017 0.03931 0.0
C314 C 0.99639 0.09974 0.01454 0.0
C315 C 0.96477 0.11288 0.00846 0.0
C316 C 0.93999 0.10533 0.02827 0.0
C317 C 0.94966 0.09427 0.05704 0.0
C318 C 0.98116 0.08069 0.06187 0.0
Zn319 Zn 0.02997 0.03647 0.03569 0.0
C320 C 0.98824 0.97421 0.03677 0.0
N321 N 0.0863 0.94482 0.02505 0.0
C322 C 0.1072 0.94459 0.00228 0.0
C323 C 0.09248 0.92503 0.04962 0.0
C324 C 0.12408 0.91159 0.0552 0.0
C325 C 0.14858 0.91894 0.03505 0.0
C326 C 0.13866 0.93073 0.0066 0.0
Zn327 Zn 0.05832 0.98836 0.02894 0.0
O328 O 0.01843 0.03581 0.99004 0.0
C329 C 0.09941 0.05122 0.02713 0.0
O330 O 0.04688 0.98891 0.98234 0.0
H331 H 0.07502 0.92452 0.06709 0.0
H332 H 0.01411 0.10013 0.99729 0.0
H333 H 0.10189 0.96014 0.98275 0.0
O334 O 0.0713 0.06526 0.02921 0.0
O335 O 0.1016 0.01867 0.02502 0.0
H336 H 0.98637 0.06544 0.0816 0.0
O337 O 0.06911 0.98847 0.07476 0.0
O338 O 0.04246 0.03669 0.08202 0.0
O339 O 0.01599 0.95945 0.03407 0.0
O340 O 0.98716 0.00653 0.04091 0.0
C341 C 0.06103 0.01248 0.09199 0.0
H342 H 0.95858 0.12268 0.98644 0.0
H343 H 0.93172 0.08912 0.07359 0.0
H344 H 0.13058 0.90152 0.07707 0.0
H345 H 0.15649 0.93603 0.98998 0.0
C346 C 0.35853 0.78134 0.25675 0.0
N347 N 0.26697 0.74755 0.22236 0.0
C348 C 0.27609 0.76678 0.19884 0.0
C349 C 0.27323 0.75366 0.17031 0.0
C350 C 0.26086 0.7204 0.16593 0.0
C351 C 0.24909 0.70225 0.19034 0.0
C352 C 0.2525 0.71638 0.21861 0.0
Zn353 Zn 0.28405 0.76295 0.26285 0.0
C354 C 0.31757 0.70655 0.29605 0.0
N355 N 0.32556 0.79724 0.34489 0.0
C356 C 0.33452 0.83025 0.35073 0.0
C357 C 0.32074 0.77436 0.36724 0.0
C358 C 0.32319 0.78468 0.3966 0.0
C359 C 0.3295 0.81925 0.40329 0.0
C360 C 0.33643 0.84194 0.37994 0.0
Zn361 Zn 0.30905 0.78256 0.30359 0.0
O362 O 0.3323 0.77054 0.24366 0.0
C363 C 0.2759 0.83923 0.26982 0.0
O364 O 0.35688 0.79063 0.28373 0.0
H365 H 0.31269 0.7485 0.3625 0.0
H366 H 0.28794 0.7913 0.20236 0.0
H367 H 0.33801 0.84818 0.33275 0.0
O368 O 0.26889 0.81423 0.25282 0.0
O369 O 0.29362 0.83375 0.29313 0.0
H370 H 0.24555 0.70153 0.23767 0.0
O371 O 0.2609 0.77392 0.32305 0.0
O372 O 0.2365 0.75497 0.28253 0.0
O373 O 0.32475 0.73161 0.31282 0.0
O374 O 0.29907 0.71178 0.27321 0.0
C375 C 0.23483 0.76303 0.30974 0.0
H376 H 0.28295 0.76844 0.15227 0.0
H377 H 0.23889 0.67672 0.18782 0.0
H378 H 0.31854 0.76599 0.4138 0.0
H379 H 0.34123 0.86892 0.3839 0.0
C380 C 0.54076 0.01728 0.59609 0.0
N381 N 0.58092 0.93541 0.55002 0.0
C382 C 0.60179 0.92981 0.57375 0.0
C383 C 0.61082 0.89631 0.5819 0.0
C384 C 0.59822 0.86863 0.56531 0.0
C385 C 0.5787 0.8754 0.53969 0.0
C386 C 0.57008 0.90921 0.53253 0.0
Zn387 Zn 0.5626 0.9827 0.54169 0.0
C388 C 0.48847 0.98099 0.53603 0.0
N389 N 0.5222 0.07995 0.52256 0.0
C390 C 0.53399 0.10674 0.53884 0.0
C391 C 0.50141 0.08481 0.49867 0.0
C392 C 0.49355 0.118 0.48899 0.0
C393 C 0.5072 0.14617 0.50422 0.0
C394 C 0.5266 0.14036 0.53008 0.0
Zn395 Zn 0.54018 0.03285 0.53136 0.0
O396 O 0.55496 0.99006 0.58745 0.0
C397 C 0.61396 0.03514 0.53725 0.0
O398 O 0.5339 0.0411 0.57744 0.0
H399 H 0.49242 0.06294 0.4862 0.0
H400 H 0.61013 0.95122 0.58717 0.0
H401 H 0.55051 0.10206 0.55776 0.0
O402 O 0.61101 0.00353 0.54403 0.0
O403 O 0.58817 0.05337 0.53279 0.0
H404 H 0.55351 0.91441 0.51374 0.0
O405 O 0.54667 0.02472 0.48486 0.0
O406 O 0.57016 0.97529 0.49621 0.0
O407 O 0.4921 0.01265 0.52991 0.0
O408 O 0.51393 0.9619 0.53956 0.0
C409 C 0.56235 0.99807 0.47693 0.0
H410 H 0.62564 0.8921 0.60202 0.0
H411 H 0.56885 0.8547 0.52619 0.0
H412 H 0.47873 0.12146 0.46877 0.0
H413 H 0.53714 0.16152 0.54259 0.0
C414 C 0.31389 0.19952 0.76453 0.0
N415 N 0.26333 0.22927 0.83889 0.0
C416 C 0.24526 0.20044 0.83377 0.0
C417 C 0.23557 0.18 0.85728 0.0
C418 C 0.24468 0.1892 0.88636 0.0
C419 C 0.26163 0.2202 0.89114 0.0
C420 C 0.27084 0.23995 0.8669 0.0
Zn421 Zn 0.28243 0.25309 0.80319 0.0
C422 C 0.355 0.26977 0.81369 0.0
N423 N 0.32268 0.2981 0.72667 0.0
C424 C 0.31375 0.28598 0.69942 0.0
C425 C 0.34202 0.32633 0.72987 0.0
C426 C 0.35205 0.34439 0.70501 0.0
C427 C 0.34171 0.33358 0.67655 0.0
C428 C 0.32289 0.30345 0.674 0.0
Zn429 Zn 0.30396 0.27531 0.76309 0.0
O430 O 0.29854 0.20419 0.78817 0.0
C431 C 0.2314 0.25865 0.75265 0.0
O432 O 0.31915 0.22534 0.74794 0.0
H433 H 0.34886 0.3355 0.75176 0.0
H434 H 0.23961 0.19235 0.81133 0.0
H435 H 0.29844 0.26343 0.6974 0.0
O436 O 0.23538 0.24826 0.77932 0.0
O437 O 0.25619 0.27086 0.73984 0.0
H438 H 0.28528 0.26293 0.87041 0.0
O439 O 0.28859 0.32498 0.77888 0.0
O440 O 0.26667 0.30223 0.81801 0.0
O441 O 0.35123 0.27954 0.7868 0.0
O442 O 0.33001 0.25823 0.82671 0.0
C443 C 0.27265 0.32869 0.80242 0.0
H444 H 0.22229 0.15646 0.85268 0.0
H445 H 0.26948 0.22801 0.91322 0.0
H446 H 0.36699 0.36712 0.70811 0.0
H447 H 0.31384 0.29432 0.65266 0.0
C448 C 0.1143 0.99606 0.54628 0.0
N449 N 0.06671 0.04535 0.47383 0.0
C450 C 0.09605 0.06098 0.46996 0.0
C451 C 0.10816 0.06429 0.44157 0.0
C452 C 0.08984 0.05129 0.41717 0.0
C453 C 0.05841 0.03814 0.4217 0.0
C454 C 0.04731 0.03536 0.45031 0.0
Zn455 Zn 0.05497 0.02565 0.51381 0.0
C456 C 0.04265 0.94822 0.50498 0.0
N457 N 0.03019 0.97773 0.59457 0.0
C458 C 0.05004 0.98584 0.61839 0.0
C459 C 1.00028 0.96313 0.59799 0.0
C460 C 0.98802 0.95926 0.62625 0.0
C461 C 0.007 0.9701 0.65099 0.0
C462 C 0.03897 0.98191 0.64699 0.0
Zn463 Zn 0.04205 0.99786 0.55466 0.0
O464 O 0.10551 0.01354 0.52343 0.0
C465 C 0.054 0.07521 0.56352 0.0
O466 O 0.09264 0.98608 0.56385 0.0
H467 H 0.98489 0.95693 0.57878 0.0
H468 H 0.11113 0.06857 0.48898 0.0
H469 H 0.07343 0.99811 0.61527 0.0
O470 O 0.05959 0.07513 0.53591 0.0
O471 O 0.04726 0.04683 0.57601 0.0
H472 H 0.02438 0.02236 0.4538 0.0
O473 O 0.99138 0.01084 0.54513 0.0
O474 O 0.0047 0.03719 0.50433 0.0
O475 O 0.03679 0.94845 0.53251 0.0
O476 O 0.05009 0.97645 0.4926 0.0
C477 C 0.9829 0.02804 0.52203 0.0
H478 H 0.13231 0.07517 0.43893 0.0
H479 H 0.04359 0.02745 0.40367 0.0
H480 H 0.96325 0.94984 0.62863 0.0
H481 H 0.05413 0.99087 0.66553 0.0
C482 C 0.28117 0.78804 0.73118 0.0
N483 N 0.35812 0.72869 0.76951 0.0
C484 C 0.35836 0.70957 0.74438 0.0
C485 C 0.38807 0.69657 0.73418 0.0
C486 C 0.41758 0.70335 0.75013 0.0
C487 C 0.41615 0.72111 0.77701 0.0
C488 C 0.38614 0.73388 0.78616 0.0
Zn489 Zn 0.31665 0.75367 0.78223 0.0
C490 C 0.32992 0.82909 0.79204 0.0
N491 N 0.23206 0.80939 0.8108 0.0
C492 C 0.20474 0.81321 0.79277 0.0
C493 C 0.23276 0.82219 0.83877 0.0
C494 C 0.20474 0.8372 0.85028 0.0
C495 C 0.17564 0.84074 0.83258 0.0
C496 C 0.17653 0.82947 0.80299 0.0
Zn497 Zn 0.27301 0.78319 0.79688 0.0
O498 O 0.3044 0.76682 0.73751 0.0
C499 C 0.25966 0.70793 0.7867 0.0
O500 O 0.26287 0.79837 0.75167 0.0
H501 H 0.25487 0.82008 0.85266 0.0
H502 H 0.33573 0.70567 0.73155 0.0
H503 H 0.20455 0.80326 0.7705 0.0
O504 O 0.28974 0.70784 0.77995 0.0
O505 O 0.24548 0.73642 0.79246 0.0
H506 H 0.38549 0.74921 0.806 0.0
O507 O 0.28472 0.76736 0.8415 0.0
O508 O 0.32846 0.73999 0.82694 0.0
O509 O 0.30068 0.82898 0.80105 0.0
O510 O 0.34314 0.80078 0.78455 0.0
C511 C 0.3094 0.74793 0.84748 0.0
H512 H 0.38817 0.68321 0.71323 0.0
H513 H 0.43829 0.72651 0.79016 0.0
H514 H 0.206 0.84473 0.87325 0.0
H515 H 0.15562 0.83251 0.78771 0.0
C516 C 0.54756 0.94829 0.05821 0.0
N517 N 0.56173 0.04625 0.09309 0.0
C518 C 0.54243 0.03283 0.11417 0.0
C519 C 0.55205 0.03485 0.14398 0.0
C520 C 0.58175 0.05095 0.15212 0.0
C521 C 0.59916 0.06803 0.13015 0.0
C522 C 0.58871 0.06519 0.10051 0.0
Zn523 Zn 0.55582 0.02697 0.05152 0.0
C524 C 0.61915 0.00316 0.02854 0.0
N525 N 0.54424 0.97972 0.96747 0.0
C526 C 0.51682 0.9624 0.95828 0.0
C527 C 0.56573 0.99222 0.94773 0.0
C528 C 0.55849 0.99047 0.9175 0.0
C529 C 0.52888 0.97574 0.90746 0.0
C530 C 0.50865 0.95998 0.92805 0.0
Zn531 Zn 0.54938 0.99853 0.00935 0.0
O532 O 0.55222 0.97683 0.07126 0.0
C533 C 0.48613 0.0217 0.03231 0.0
O534 O 0.54491 0.94822 0.03 0.0
H535 H 0.58712 0.0064 0.95535 0.0
H536 H 0.52121 0.01762 0.10779 0.0
H537 H 0.49993 0.95297 0.97432 0.0
O538 O 0.50471 0.0334 0.05298 0.0
O539 O 0.49853 0.00599 0.01084 0.0
H540 H 0.60368 0.07562 0.08337 0.0
O541 O 0.55328 0.04897 0.9896 0.0
O542 O 0.5593 0.07718 0.03117 0.0
O543 O 0.60024 0.99124 0.0083 0.0
O544 O 0.6071 0.01977 0.04971 0.0
C545 C 0.55689 0.07748 0.00299 0.0
H546 H 0.53792 0.02118 0.16008 0.0
H547 H 0.62183 0.08139 0.13558 0.0
H548 H 0.57481 0.00258 0.90222 0.0
H549 H 0.48547 0.94852 0.92108 0.0
C550 C 0.26765 0.22368 0.26749 0.0
N551 N 0.32357 0.26931 0.20403 0.0
C552 C 0.34179 0.23985 0.20707 0.0
C553 C 0.34474 0.21783 0.18316 0.0
C554 C 0.32875 0.22632 0.15605 0.0
C555 C 0.31416 0.25904 0.15242 0.0
C556 C 0.31184 0.28041 0.177 0.0
Zn557 Zn 0.30152 0.28569 0.24115 0.0
C558 C 0.22893 0.29878 0.22704 0.0
N559 N 0.24956 0.31148 0.31741 0.0
C560 C 0.25849 0.29345 0.34237 0.0
C561 C 0.23777 0.3443 0.31881 0.0
C562 C 0.23961 0.36203 0.34555 0.0
C563 C 0.25333 0.34548 0.37089 0.0
C564 C 0.26057 0.3101 0.36957 0.0
Zn565 Zn 0.27033 0.29644 0.27924 0.0
O566 O 0.28798 0.23361 0.24866 0.0
C567 C 0.34235 0.28324 0.29399 0.0
O568 O 0.2558 0.24544 0.28513 0.0
H569 H 0.23083 0.35815 0.29866 0.0
H570 H 0.35055 0.23124 0.22876 0.0
H571 H 0.26793 0.26742 0.34074 0.0
O572 O 0.34558 0.28 0.26638 0.0
O573 O 0.31397 0.28782 0.30398 0.0
H574 H 0.29736 0.30388 0.17512 0.0
O575 O 0.28572 0.34733 0.27304 0.0
O576 O 0.31505 0.33705 0.23429 0.0
O577 O 0.22695 0.30484 0.25448 0.0
O578 O 0.2568 0.29204 0.21655 0.0
C579 C 0.30539 0.35778 0.25389 0.0
H580 H 0.3566 0.19294 0.18658 0.0
H581 H 0.30161 0.26645 0.13177 0.0
H582 H 0.23356 0.38925 0.34558 0.0
H583 H 0.27038 0.29618 0.38882 0.0
C584 C 0.61419 0.50279 0.0411 0.0
N585 N 0.5625 0.55019 0.96951 0.0
C586 C 0.59131 0.56588 0.96345 0.0
C587 C 0.60098 0.56874 0.93416 0.0
C588 C 0.58078 0.55513 0.91129 0.0
C589 C 0.54996 0.5421 0.91802 0.0
C590 C 0.54132 0.53974 0.94739 0.0
Zn591 Zn 0.55362 0.53074 0.01042 0.0
C592 C 0.54224 0.4525 0.00229 0.0
N593 N 0.53298 0.48284 0.09206 0.0
C594 C 0.55486 0.49128 0.11434 0.0
C595 C 0.50275 0.47027 0.09788 0.0
C596 C 0.4922 0.4697 0.1269 0.0
C597 C 0.51333 0.48146 0.14983 0.0
C598 C 0.54559 0.49038 0.14361 0.0
Zn599 Zn 0.54204 0.50236 0.05134 0.0
O600 O 0.60495 0.52035 0.01841 0.0
C601 C 0.55315 0.58029 0.05983 0.0
O602 O 0.59281 0.49191 0.05851 0.0
H603 H 0.48573 0.46371 0.0799 0.0
H604 H 0.60793 0.57365 0.98135 0.0
H605 H 0.57839 0.50221 0.10948 0.0
O606 O 0.55797 0.58063 0.03207 0.0
O607 O 0.54719 0.55163 0.0722 0.0
H608 H 0.51887 0.52666 0.95248 0.0
O609 O 0.49107 0.51384 0.04387 0.0
O610 O 0.50256 0.54085 0.00292 0.0
O611 O 0.53676 0.45274 0.02989 0.0
O612 O 0.54913 0.48083 0.98974 0.0
C613 C 0.48154 0.53106 0.02113 0.0
H614 H 0.62506 0.57884 0.92972 0.0
H615 H 0.53366 0.53163 0.90091 0.0
H616 H 0.46713 0.46246 0.13114 0.0
H617 H 0.56236 0.49993 0.16077 0.0
C618 C 0.78331 0.28227 0.22149 0.0
N619 N 0.85909 0.21953 0.25855 0.0
C620 C 0.85732 0.20611 0.23082 0.0
C621 C 0.88483 0.19077 0.21866 0.0
C622 C 0.9146 0.18763 0.23546 0.0
C623 C 0.9149 0.19966 0.26489 0.0
C624 C 0.88708 0.21611 0.27578 0.0
Zn625 Zn 0.81835 0.24587 0.27301 0.0
C626 C 0.83142 0.32056 0.28392 0.0
N627 N 0.73213 0.29971 0.29979 0.0
C628 C 0.70375 0.29552 0.28341 0.0
C629 C 0.73232 0.31681 0.326 0.0
C630 C 0.7028 0.32856 0.33754 0.0
C631 C 0.67288 0.32267 0.32189 0.0
C632 C 0.67382 0.30707 0.29396 0.0
Zn633 Zn 0.77362 0.2749 0.28622 0.0
O634 O 0.80738 0.2627 0.22904 0.0
C635 C 0.76051 0.20015 0.27613 0.0
O636 O 0.76249 0.29017 0.24073 0.0
H637 H 0.75517 0.3199 0.33867 0.0
H638 H 0.83469 0.20799 0.21759 0.0
H639 H 0.70407 0.28176 0.26271 0.0
O640 O 0.79031 0.20031 0.26853 0.0
O641 O 0.74661 0.22848 0.28246 0.0
H642 H 0.88807 0.22652 0.29791 0.0
O643 O 0.78568 0.25956 0.3312 0.0
O644 O 0.82865 0.22992 0.31743 0.0
O645 O 0.80118 0.32046 0.29021 0.0
O646 O 0.84574 0.29224 0.27788 0.0
C647 C 0.80951 0.23903 0.33765 0.0
H648 H 0.88266 0.18272 0.19585 0.0
H649 H 0.93645 0.19706 0.27948 0.0
H650 H 0.70326 0.34025 0.35923 0.0
H651 H 0.65145 0.30253 0.28087 0.0
C652 C 0.03634 0.44811 0.56241 0.0
N653 N 0.05516 0.54632 0.59582 0.0
C654 C 0.03486 0.53468 0.61688 0.0
C655 C 0.04459 0.53626 0.64668 0.0
C656 C 0.07548 0.54982 0.65461 0.0
C657 C 0.09405 0.56542 0.63272 0.0
C658 C 0.08331 0.5634 0.60316 0.0
Zn659 Zn 0.0494 0.5261 0.5548 0.0
C660 C 0.11159 0.49598 0.5358 0.0
N661 N 0.03836 0.47718 0.47171 0.0
C662 C 0.01028 0.46136 0.46208 0.0
C663 C 0.0614 0.48737 0.45246 0.0
C664 C 0.05521 0.48494 0.42209 0.0
C665 C 0.02516 0.47171 0.41149 0.0
C666 C 1.00319 0.45818 0.43174 0.0
Zn667 Zn 0.04287 0.49702 0.51316 0.0
O668 O 0.04252 0.47643 0.57542 0.0
C669 C 0.98058 0.52616 0.53352 0.0
O670 O 0.03368 0.44809 0.53421 0.0
H671 H 0.08339 0.50025 0.4605 0.0
H672 H 0.01273 0.52092 0.61051 0.0
H673 H 0.99219 0.45378 0.47776 0.0
O674 O 0.9993 0.53587 0.55482 0.0
O675 O 0.99237 0.50943 0.51227 0.0
H676 H 0.09901 0.57245 0.58601 0.0
O677 O 0.05183 0.54636 0.49248 0.0
O678 O 0.05636 0.57544 0.53367 0.0
O679 O 0.09312 0.48443 0.51503 0.0
O680 O 0.09973 0.51576 0.5549 0.0
C681 C 0.05589 0.57505 0.50548 0.0
H682 H 0.02963 0.5239 0.66293 0.0
H683 H 0.11779 0.57663 0.63817 0.0
H684 H 0.0728 0.49537 0.40706 0.0
H685 H 0.97963 0.44795 0.42429 0.0
C686 C 0.81665 0.69356 0.26715 0.0
N687 N 0.76384 0.72436 0.34033 0.0
C688 C 0.74488 0.69629 0.33467 0.0
C689 C 0.73286 0.67689 0.35786 0.0
C690 C 0.7406 0.6863 0.38718 0.0
C691 C 0.75876 0.71646 0.39238 0.0
C692 C 0.77022 0.73522 0.36846 0.0
Zn693 Zn 0.78482 0.74781 0.30551 0.0
C694 C 0.85674 0.76352 0.3174 0.0
N695 N 0.82744 0.79232 0.23042 0.0
C696 C 0.82225 0.78116 0.2022 0.0
C697 C 0.84498 0.8213 0.23641 0.0
C698 C 0.85656 0.84139 0.21348 0.0
C699 C 0.84999 0.8316 0.18409 0.0
C700 C 0.83348 0.80052 0.17852 0.0
Zn701 Zn 0.80651 0.76854 0.26507 0.0
O702 O 0.80063 0.69853 0.29041 0.0
C703 C 0.73479 0.75334 0.25299 0.0
O704 O 0.82277 0.71918 0.25062 0.0
H705 H 0.84884 0.82968 0.25902 0.0
H706 H 0.7401 0.68812 0.31211 0.0
H707 H 0.80822 0.75805 0.19803 0.0
O708 O 0.73813 0.74433 0.28011 0.0
O709 O 0.76016 0.76379 0.23995 0.0
H710 H 0.78532 0.75764 0.37239 0.0
O711 O 0.78919 0.81751 0.27951 0.0
O712 O 0.76938 0.79715 0.32048 0.0
O713 O 0.85279 0.77324 0.29053 0.0
O714 O 0.83183 0.75178 0.33041 0.0
C715 C 0.77392 0.82244 0.30317 0.0
H716 H 0.71873 0.65398 0.3529 0.0
H717 H 0.7657 0.72438 0.41465 0.0
H718 H 0.86934 0.86508 0.21865 0.0
H719 H 0.82755 0.79234 0.15611 0.0
C720 C 0.85579 0.26286 0.75856 0.0
N721 N 0.76457 0.23084 0.72265 0.0
C722 C 0.77366 0.25168 0.70011 0.0
C723 C 0.77161 0.24032 0.671 0.0
C724 C 0.7602 0.20706 0.66489 0.0
C725 C 0.74862 0.187 0.68831 0.0
C726 C 0.75112 0.19946 0.71726 0.0
Zn727 Zn 0.78092 0.24515 0.7639 0.0
C728 C 0.81233 0.18798 0.79782 0.0
N729 N 0.82278 0.27877 0.84579 0.0
C730 C 0.83775 0.30955 0.85027 0.0
C731 C 0.81282 0.2593 0.86889 0.0
C732 C 0.81528 0.27183 0.89766 0.0
C733 C 0.82811 0.30475 0.90275 0.0
C734 C 0.84082 0.32306 0.87881 0.0
Zn735 Zn 0.80621 0.26421 0.80474 0.0
O736 O 0.82957 0.25244 0.74522 0.0
C737 C 0.77441 0.3212 0.77135 0.0
O738 O 0.85421 0.27115 0.78574 0.0
H739 H 0.8006 0.23509 0.86484 0.0
H740 H 0.78496 0.27622 0.7048 0.0
H741 H 0.84538 0.32462 0.83157 0.0
O742 O 0.76659 0.29647 0.75438 0.0
O743 O 0.79263 0.31547 0.79429 0.0
H744 H 0.74428 0.18321 0.73552 0.0
O745 O 0.75759 0.25766 0.82319 0.0
O746 O 0.73289 0.23831 0.7829 0.0
O747 O 0.81993 0.21292 0.81465 0.0
O748 O 0.79477 0.19357 0.77443 0.0
C749 C 0.73127 0.24749 0.80987 0.0
H750 H 0.78127 0.25651 0.65383 0.0
H751 H 0.73921 0.16134 0.68448 0.0
H752 H 0.80488 0.25695 0.91531 0.0
H753 H 0.85144 0.34832 0.88185 0.0
C754 C 0.81293 0.67065 0.79552 0.0
N755 N 0.82779 0.74003 0.72759 0.0
C756 C 0.84839 0.71451 0.71894 0.0
C757 C 0.84418 0.70017 0.69097 0.0
C758 C 0.8189 0.71263 0.67183 0.0
C759 C 0.80069 0.74168 0.67981 0.0
C760 C 0.8056 0.75517 0.70818 0.0
Zn761 Zn 0.82146 0.7438 0.77184 0.0
C762 C 0.7494 0.73941 0.78306 0.0
N763 N 0.80253 0.74291 0.86371 0.0
C764 C 0.82705 0.73431 0.88385 0.0
C765 C 0.77727 0.76402 0.87117 0.0
C766 C 0.7777 0.78003 0.89862 0.0
C767 C 0.8047 0.77488 0.91837 0.0
C768 C 0.82884 0.75046 0.91142 0.0
Zn769 Zn 0.80949 0.73796 0.81923 0.0
O770 O 0.82009 0.68969 0.7738 0.0
C771 C 0.8817 0.74208 0.80735 0.0
O772 O 0.80877 0.68419 0.82065 0.0
H773 H 0.75851 0.77158 0.85484 0.0
H774 H 0.86558 0.70261 0.73481 0.0
H775 H 0.84692 0.71747 0.87766 0.0
O776 O 0.87234 0.74461 0.78037 0.0
O777 O 0.86064 0.73826 0.82708 0.0
H778 H 0.78932 0.77525 0.71564 0.0
O779 O 0.81035 0.79287 0.8172 0.0
O780 O 0.82189 0.79719 0.77031 0.0
O781 O 0.7583 0.73641 0.81008 0.0
O782 O 0.77062 0.74371 0.76361 0.0
C783 C 0.81675 0.81143 0.79492 0.0
H784 H 0.85849 0.67762 0.68534 0.0
H785 H 0.78084 0.75162 0.66546 0.0
H786 H 0.75881 0.79898 0.90299 0.0
H787 H 0.84993 0.7457 0.92627 0.0
C788 C 0.52908 0.52176 0.47604 0.0
N789 N 0.50023 0.57734 0.54896 0.0
C790 C 0.49524 0.60125 0.52706 0.0
C791 C 0.46392 0.61548 0.52194 0.0
C792 C 0.43827 0.60415 0.53941 0.0
C793 C 0.4465 0.58692 0.56619 0.0
C794 C 0.47794 0.57281 0.57022 0.0
Zn795 Zn 0.53135 0.53753 0.54125 0.0
C796 C 0.49913 0.47115 0.53948 0.0
N797 N 0.59682 0.45686 0.52062 0.0
C798 C 0.6185 0.4603 0.49873 0.0
C799 C 0.60021 0.43121 0.5412 0.0
C800 C 0.62976 0.41275 0.54404 0.0
C801 C 0.65562 0.42193 0.52592 0.0
C802 C 0.64807 0.44202 0.50046 0.0
Zn803 Zn 0.56644 0.49707 0.52861 0.0
O804 O 0.51664 0.53975 0.49614 0.0
C805 C 0.59909 0.56314 0.5316 0.0
O806 O 0.55323 0.50181 0.48261 0.0
H807 H 0.58208 0.42831 0.55793 0.0
H808 H 0.51369 0.60494 0.51074 0.0
H809 H 0.61501 0.48049 0.48229 0.0
O810 O 0.56939 0.57198 0.53535 0.0
O811 O 0.60586 0.53191 0.52605 0.0
H812 H 0.48261 0.55394 0.58761 0.0
O813 O 0.57942 0.49292 0.57386 0.0
O814 O 0.54656 0.53471 0.58689 0.0
O815 O 0.52817 0.46315 0.53268 0.0
O816 O 0.49241 0.50204 0.54619 0.0
C817 C 0.56906 0.5128 0.5937 0.0
H818 H 0.45863 0.62948 0.50148 0.0
H819 H 0.42761 0.57829 0.58074 0.0
H820 H 0.63431 0.39659 0.56342 0.0
H821 H 0.66689 0.44916 0.48529 0.0
C822 C 0.03447 0.52516 0.09345 0.0
N823 N 0.06371 0.44495 0.03952 0.0
C824 C 0.08111 0.43408 0.0641 0.0
C825 C 0.07929 0.39988 0.07323 0.0
C826 C 0.05939 0.37696 0.05684 0.0
C827 C 0.04453 0.38802 0.02996 0.0
C828 C 0.04699 0.42248 0.02166 0.0
Zn829 Zn 0.05275 0.49555 0.03501 0.0
C830 C 0.97836 0.50197 0.02973 0.0
N831 N 0.02216 0.59954 0.02727 0.0
C832 C 0.03876 0.62255 0.04467 0.0
C833 C 1.00015 0.61005 0.00566 0.0
C834 C 0.99508 0.64508 0.0001 0.0
C835 C 0.01313 0.66935 0.01676 0.0
C836 C 0.03476 0.65782 0.03962 0.0
Zn837 Zn 0.03416 0.54895 0.03137 0.0
O838 O 0.04631 0.49858 0.08137 0.0
C839 C 0.10858 0.5417 0.03624 0.0
O840 O 0.02862 0.55194 0.07781 0.0
H841 H 0.9875 0.59123 0.99199 0.0
H842 H 0.09417 0.45247 0.07791 0.0
H843 H 0.05608 0.61354 0.0618 0.0
O844 O 0.10314 0.50964 0.03883 0.0
O845 O 0.08436 0.56263 0.0348 0.0
H846 H 0.03309 0.43184 0.00235 0.0
O847 O 0.04087 0.54589 0.98447 0.0
O848 O 0.05853 0.49251 0.98924 0.0
O849 O 0.98317 0.53424 0.02798 0.0
O850 O 1.00303 0.48176 0.03101 0.0
C851 C 0.05305 0.51892 0.9731 0.0
H852 H 0.09173 0.39192 0.09379 0.0
H853 H 0.02908 0.37099 0.01675 0.0
H854 H 0.97848 0.65305 0.982 0.0
H855 H 0.04895 0.67585 0.05296 0.0
C856 C 0.13341 0.08759 0.09163 0.0
C857 C 0.12636 0.1218 0.08325 0.0
H858 H 0.13522 0.03548 0.07694 0.0
C859 C 0.12755 0.13106 0.05316 0.0
H860 H 0.13383 0.07986 0.11471 0.0
C861 C 0.12821 0.10557 0.03159 0.0
C862 C 0.1268 0.07089 0.04016 0.0
H863 H 0.12365 0.15754 0.04605 0.0
H864 H 0.12306 0.11294 0.00871 0.0
C865 C 0.13492 0.06221 0.06985 0.0
C866 C 0.17138 0.77171 0.37036 0.0
C867 C 0.14183 0.76098 0.35612 0.0
H868 H 0.22324 0.78058 0.36738 0.0
C869 C 0.14332 0.75016 0.32646 0.0
H870 H 0.17146 0.78019 0.39314 0.0
C871 C 0.17329 0.75038 0.31151 0.0
C872 C 0.20283 0.76134 0.32574 0.0
H873 H 0.12122 0.74168 0.31465 0.0
H874 H 0.17321 0.74215 0.28867 0.0
C875 C 0.20127 0.77186 0.35549 0.0
C876 C 0.57363 0.78173 0.59334 0.0
C877 C 0.6025 0.77086 0.60868 0.0
H878 H 0.54975 0.82135 0.5676 0.0
C879 C 0.63127 0.79032 0.60674 0.0
H880 H 0.55116 0.76704 0.59435 0.0
C881 C 0.63057 0.82144 0.59114 0.0
C882 C 0.60113 0.83329 0.57721 0.0
H883 H 0.65392 0.78226 0.61825 0.0
H884 H 0.65269 0.83677 0.5908 0.0
C885 C 0.57294 0.81268 0.57776 0.0
C886 C 0.42503 0.25586 0.87194 0.0
C887 C 0.45263 0.26884 0.85769 0.0
H888 H 0.37304 0.24615 0.86966 0.0
C889 C 0.44759 0.2829 0.82906 0.0
H890 H 0.4278 0.24489 0.89399 0.0
C891 C 0.41604 0.28359 0.81501 0.0
C892 C 0.38844 0.27039 0.82918 0.0
H893 H 0.46813 0.29318 0.81735 0.0
H894 H 0.41335 0.29433 0.79288 0.0
C895 C 0.39348 0.25667 0.85796 0.0
C896 C 0.04875 0.88671 0.4397 0.0
C897 C 0.04517 0.8542 0.453 0.0
H898 H 0.05064 0.94139 0.44538 0.0
C899 C 0.03975 0.85285 0.48362 0.0
H900 H 0.0529 0.88883 0.41624 0.0
C901 C 0.03829 0.88318 0.5005 0.0
C902 C 0.04233 0.9157 0.48723 0.0
H903 H 0.03682 0.82828 0.49464 0.0
H904 H 0.03444 0.88108 0.52401 0.0
C905 C 0.04742 0.91694 0.45653 0.0
C906 C 0.50325 0.71845 0.7243 0.0
C907 C 0.51044 0.68782 0.70944 0.0
H908 H 0.46857 0.74722 0.74837 0.0
C909 C 0.48739 0.66107 0.70905 0.0
H910 H 0.52053 0.73954 0.72508 0.0
C911 C 0.45711 0.66556 0.72261 0.0
C912 C 0.44993 0.69659 0.7371 0.0
H913 H 0.49236 0.63725 0.69762 0.0
H914 H 0.43932 0.64497 0.72165 0.0
C915 C 0.4735 0.72276 0.73794 0.0
C916 C 0.55061 0.14038 0.93778 0.0
C917 C 0.55484 0.1725 0.9515 0.0
H918 H 0.54817 0.08563 0.94301 0.0
C919 C 0.56052 0.17315 0.98243 0.0
H920 H 0.54624 0.13884 0.91405 0.0
C921 C 0.56152 0.14247 0.99922 0.0
C922 C 0.55703 0.11033 0.98548 0.0
H923 H 0.56388 0.19743 0.99375 0.0
H924 H 0.56561 0.14398 0.02298 0.0
C925 C 0.55177 0.10979 0.95448 0.0
C926 C 0.14603 0.26197 0.20929 0.0
C927 C 0.15027 0.25082 0.18022 0.0
H928 H 0.16737 0.28767 0.24682 0.0
C929 C 0.1777 0.26186 0.16493 0.0
H930 H 0.12465 0.25445 0.22131 0.0
C931 C 0.20201 0.28121 0.17938 0.0
C932 C 0.19922 0.28977 0.20935 0.0
H933 H 0.18116 0.25423 0.14224 0.0
H934 H 0.22403 0.28733 0.16769 0.0
C935 C 0.17024 0.2815 0.22372 0.0
C936 C 0.12509 0.99835 0.15339 0.0
C937 C 0.1173 0.02424 0.17348 0.0
H938 H 0.11259 0.97341 0.11276 0.0
C939 C 0.08925 0.04501 0.16774 0.0
H940 H 0.14636 0.98172 0.15744 0.0
C941 C 0.06998 0.04066 0.14168 0.0
C942 C 0.07803 0.01485 0.12142 0.0
H943 H 0.08273 0.06514 0.18299 0.0
H944 H 0.04923 0.05783 0.13715 0.0
C945 C 0.10547 0.9934 0.12791 0.0
C946 C 0.34044 0.87225 0.47313 0.0
C947 C 0.31599 0.85863 0.49088 0.0
H948 H 0.36478 0.86978 0.4321 0.0
C949 C 0.29695 0.83117 0.4803 0.0
H950 H 0.35571 0.89328 0.48095 0.0
C951 C 0.30161 0.8182 0.45203 0.0
C952 C 0.32592 0.83197 0.43398 0.0
H953 H 0.2778 0.82042 0.49351 0.0
H954 H 0.28543 0.79803 0.44406 0.0
C955 C 0.34553 0.85889 0.44508 0.0
C956 C 0.49952 0.04915 0.66486 0.0
C957 C 0.48461 0.01879 0.67458 0.0
H958 H 0.52895 0.07271 0.63183 0.0
C959 C 0.49105 0.98778 0.66004 0.0
H960 H 0.49494 0.07338 0.67579 0.0
C961 C 0.51153 0.98712 0.63591 0.0
C962 C 0.5252 0.01768 0.62516 0.0
H963 H 0.48007 0.96397 0.66725 0.0
H964 H 0.51518 0.96291 0.62465 0.0
C965 C 0.51912 0.04873 0.63993 0.0
C966 C 0.25168 0.10739 0.93163 0.0
C967 C 0.24481 0.11924 0.96 0.0
H968 H 0.25693 0.1203 0.88612 0.0
C969 C 0.23338 0.1532 0.96339 0.0
H970 H 0.26054 0.08132 0.92842 0.0
C971 C 0.23155 0.17576 0.93911 0.0
C972 C 0.24063 0.16449 0.91105 0.0
H973 H 0.22803 0.163 0.98509 0.0
H974 H 0.22432 0.20232 0.94248 0.0
C975 C 0.2495 0.12974 0.90738 0.0
C976 C 0.09879 0.04484 0.33422 0.0
C977 C 0.13152 0.03339 0.33262 0.0
H978 H 0.06024 0.0608 0.36217 0.0
C979 C 0.15077 0.02916 0.35883 0.0
H980 H 0.08355 0.04882 0.3143 0.0
C981 C 0.13746 0.03596 0.38619 0.0
C982 C 0.10468 0.04736 0.38791 0.0
H983 H 0.17614 0.02051 0.35823 0.0
H984 H 0.15267 0.03143 0.40604 0.0
C985 C 0.08552 0.05187 0.3616 0.0
C986 C 0.27006 0.85736 0.67227 0.0
C987 C 0.28721 0.84326 0.64871 0.0
H988 H 0.25371 0.85052 0.71641 0.0
C989 C 0.2993 0.80931 0.65137 0.0
H990 H 0.2602 0.88335 0.67079 0.0
C991 C 0.29586 0.79055 0.67768 0.0
C992 C 0.2796 0.80506 0.70163 0.0
H993 H 0.31251 0.7977 0.63355 0.0
H994 H 0.30678 0.76503 0.67958 0.0
C995 C 0.26602 0.83837 0.69831 0.0
C996 C 0.48801 0.96119 0.83218 0.0
C997 C 0.48721 0.99485 0.82041 0.0
H998 H 0.50186 0.92869 0.8692 0.0
C999 C 0.50262 0.0214 0.83636 0.0
H1000 H 0.47622 0.94021 0.82035 0.0
C1001 C 0.5175 0.01468 0.86412 0.0
C1002 C 0.51694 0.98136 0.87652 0.0
H1003 H 0.50228 0.04754 0.82782 0.0
H1004 H 0.5281 0.03593 0.87649 0.0
C1005 C 0.50252 0.95456 0.86014 0.0
C1006 C 0.29978 0.14232 0.12334 0.0
C1007 C 0.30392 0.14776 0.09304 0.0
H1008 H 0.30477 0.16293 0.16692 0.0
C1009 C 0.31708 0.1791 0.08338 0.0
H1010 H 0.28976 0.11841 0.1314 0.0
C1011 C 0.32569 0.20471 0.10378 0.0
C1012 C 0.32183 0.19904 0.13413 0.0
H1013 H 0.32053 0.18389 0.06008 0.0
H1014 H 0.33544 0.22883 0.09591 0.0
C1015 C 0.30876 0.16764 0.14368 0.0
C1016 C 0.23352 0.95181 0.03002 0.0
C1017 C 0.23128 0.97948 0.04978 0.0
H1018 H 0.20876 0.90857 0.0106 0.0
C1019 C 0.2069 0.9792 0.07084 0.0
H1020 H 0.25261 0.95102 0.01395 0.0
C1021 C 0.18235 0.95444 0.06939 0.0
C1022 C 0.1814 0.93014 0.04634 0.0
H1023 H 0.20509 0.9998 0.08678 0.0
H1024 H 0.16186 0.95751 0.0838 0.0
C1025 C 0.20869 0.9272 0.02834 0.0
C1026 C 0.69308 0.47125 0.07975 0.0
C1027 C 0.71252 0.46398 0.05554 0.0
H1028 H 0.64616 0.48896 0.09402 0.0
C1029 C 0.70064 0.47274 0.02686 0.0
H1030 H 0.70166 0.46456 0.10204 0.0
C1031 C 0.66934 0.48742 0.0223 0.0
C1032 C 0.64902 0.49266 0.0463 0.0
H1033 H 0.71528 0.46742 0.00784 0.0
H1034 H 0.66041 0.49293 0.99988 0.0
C1035 C 0.66135 0.48504 0.07512 0.0
C1036 C 0.84586 0.4167 0.27761 0.0
C1037 C 0.87425 0.41765 0.26086 0.0
H1038 H 0.81031 0.38526 0.29853 0.0
C1039 C 0.88959 0.38643 0.25347 0.0
H1040 H 0.83373 0.44034 0.28396 0.0
C1041 C 0.87664 0.35493 0.26235 0.0
C1042 C 0.84785 0.35387 0.27861 0.0
H1043 H 0.91177 0.3863 0.24092 0.0
H1044 H 0.88871 0.33138 0.2557 0.0
C1045 C 0.83269 0.38515 0.28625 0.0
C1046 C 0.89334 0.54514 0.50742 0.0
C1047 C 0.87867 0.55208 0.53437 0.0
H1048 H 0.93749 0.5307 0.48609 0.0
C1049 C 0.89756 0.55033 0.56089 0.0
H1050 H 0.87905 0.54617 0.48672 0.0
C1051 C 0.93083 0.54196 0.56051 0.0
C1052 C 0.94549 0.53461 0.53364 0.0
H1053 H 0.88668 0.55561 0.58193 0.0
H1054 H 0.94498 0.54088 0.58129 0.0
C1055 C 0.92656 0.53609 0.50708 0.0
C1056 C 0.2508 0.13295 0.24111 0.0
C1057 C 0.22317 0.12464 0.25733 0.0
H1058 H 0.28693 0.17094 0.23182 0.0
C1059 C 0.21205 0.14794 0.27849 0.0
H1060 H 0.25999 0.11531 0.22483 0.0
C1061 C 0.22764 0.17938 0.28286 0.0
C1062 C 0.25455 0.18837 0.26597 0.0
H1063 H 0.19103 0.14203 0.2916 0.0
H1064 H 0.21789 0.19706 0.29885 0.0
C1065 C 0.2663 0.16467 0.2453 0.0
C1066 C 0.4225 0.92413 0.56732 0.0
C1067 C 0.39484 0.94617 0.56619 0.0
H1068 H 0.47342 0.9174 0.55803 0.0
C1069 C 0.39792 0.97927 0.55388 0.0
H1070 H 0.42087 0.89829 0.57629 0.0
C1071 C 0.42797 0.9901 0.543 0.0
C1072 C 0.45567 0.96804 0.54409 0.0
H1073 H 0.37698 0.99672 0.55228 0.0
H1074 H 0.42956 0.01595 0.53405 0.0
C1075 C 0.45253 0.93491 0.55639 0.0
C1076 C 0.8613 0.61947 0.2304 0.0
C1077 C 0.86389 0.59522 0.25364 0.0
H1078 H 0.84454 0.66987 0.21643 0.0
C1079 C 0.84865 0.60255 0.28028 0.0
H1080 H 0.87291 0.61455 0.20965 0.0
C1081 C 0.83201 0.6338 0.28398 0.0
C1082 C 0.83071 0.65887 0.26134 0.0
H1083 H 0.8501 0.58434 0.29855 0.0
H1084 H 0.82125 0.6388 0.30512 0.0
C1085 C 0.84513 0.65116 0.23432 0.0
C1086 C 0.75781 0.41667 0.77588 0.0
C1087 C 0.7263 0.41924 0.76216 0.0
H1088 H 0.7978 0.3833 0.78977 0.0
C1089 C 0.7115 0.38976 0.75016 0.0
H1090 H 0.76972 0.43916 0.78527 0.0
C1091 C 0.72797 0.35807 0.75196 0.0
C1092 C 0.7591 0.35529 0.76645 0.0
H1093 H 0.68734 0.39123 0.73927 0.0
H1094 H 0.71584 0.33554 0.74289 0.0
C1095 C 0.77391 0.38484 0.77837 0.0
C1096 C 0.94738 0.95405 0.96825 0.0
C1097 C 0.95141 0.9183 0.97011 0.0
H1098 H 0.95196 0.0015 0.99133 0.0
C1099 C 0.95289 0.90219 0.99804 0.0
H1100 H 0.9459 0.96689 0.94689 0.0
C1101 C 0.95758 0.92198 0.0235 0.0
C1102 C 0.96044 0.95783 0.0209 0.0
H1103 H 0.95587 0.87446 0.99985 0.0
H1104 H 0.96481 0.90907 0.04408 0.0
C1105 C 0.95047 0.97379 0.99391 0.0
C1106 C 0.94727 0.27453 0.74146 0.0
C1107 C 0.94849 0.26328 0.71189 0.0
H1108 H 0.91766 0.28335 0.77929 0.0
C1109 C 0.91882 0.25257 0.69789 0.0
H1110 H 0.9695 0.28301 0.75306 0.0
C1111 C 0.88904 0.25291 0.71289 0.0
C1112 C 0.88775 0.26389 0.74253 0.0
H1113 H 0.91856 0.24377 0.6752 0.0
H1114 H 0.86695 0.24424 0.70117 0.0
C1115 C 0.91742 0.27478 0.75654 0.0
C1116 C 0.53092 0.23296 0.47471 0.0
C1117 C 0.50151 0.24357 0.46017 0.0
H1118 H 0.55579 0.1934 0.49997 0.0
C1119 C 0.47326 0.22326 0.46201 0.0
H1120 H 0.55298 0.2483 0.47363 0.0
C1121 C 0.47466 0.19218 0.47749 0.0
C1122 C 0.50437 0.18092 0.49119 0.0
H1123 H 0.45014 0.23118 0.45124 0.0
H1124 H 0.45267 0.17671 0.47832 0.0
C1125 C 0.53239 0.20177 0.49003 0.0
C1126 C 0.64187 0.74284 0.2373 0.0
C1127 C 0.63725 0.75745 0.20882 0.0
H1128 H 0.67576 0.72998 0.27342 0.0
C1129 C 0.66525 0.76976 0.19475 0.0
H1130 H 0.62102 0.73304 0.24887 0.0
C1131 C 0.69676 0.76777 0.20874 0.0
C1132 C 0.70139 0.75356 0.23738 0.0
H1133 H 0.66282 0.78111 0.17283 0.0
H1134 H 0.71749 0.77786 0.19718 0.0
C1135 C 0.67339 0.74103 0.25138 0.0
C1136 C 0.04499 0.13675 0.62838 0.0
C1137 C 0.0477 0.16932 0.61499 0.0
H1138 H 0.04507 0.082 0.62296 0.0
C1139 C 0.0537 0.17073 0.58448 0.0
H1140 H 0.04048 0.13456 0.65178 0.0
C1141 C 0.05649 0.1404 0.56778 0.0
C1142 C 0.05332 0.1078 0.58114 0.0
H1143 H 0.05602 0.19536 0.5734 0.0
H1144 H 0.06066 0.14253 0.54432 0.0
C1145 C 0.04772 0.10651 0.61175 0.0
C1146 C 0.60536 0.36169 0.36811 0.0
C1147 C 0.58117 0.33613 0.36567 0.0
H1148 H 0.65356 0.3777 0.356 0.0
C1149 C 0.58679 0.30745 0.3477 0.0
H1150 H 0.60168 0.38404 0.38185 0.0
C1151 C 0.61611 0.30383 0.33307 0.0
C1152 C 0.6408 0.32879 0.33591 0.0
H1153 H 0.56868 0.28726 0.34531 0.0
H1154 H 0.61983 0.2807 0.32031 0.0
C1155 C 0.63505 0.35795 0.35345 0.0
C1156 C 0.53574 0.85419 0.0813 0.0
C1157 C 0.54153 0.85557 0.11222 0.0
H1158 H 0.53324 0.88201 0.03991 0.0
C1159 C 0.54911 0.88757 0.12496 0.0
H1160 H 0.52994 0.82994 0.07071 0.0
C1161 C 0.5509 0.91733 0.10737 0.0
C1162 C 0.54537 0.91606 0.0764 0.0
H1163 H 0.55375 0.88967 0.14862 0.0
H1164 H 0.55683 0.94142 0.11817 0.0
C1165 C 0.53773 0.88404 0.0636 0.0
C1166 C 0.95281 0.75598 0.85903 0.0
C1167 C 0.95953 0.79042 0.85196 0.0
H1168 H 0.92204 0.71271 0.84949 0.0
C1169 C 0.94663 0.80481 0.82545 0.0
H1170 H 0.96267 0.74433 0.87936 0.0
C1171 C 0.92451 0.78612 0.80774 0.0
C1172 C 0.91441 0.75343 0.81701 0.0
H1173 H 0.95183 0.83123 0.8195 0.0
H1174 H 0.91237 0.79888 0.78888 0.0
C1175 C 0.9299 0.73773 0.84185 0.0
C1176 C 0.97063 0.03384 0.90725 0.0
C1177 C 0.97414 0.00482 0.88926 0.0
H1178 H 0.98532 0.05944 0.94704 0.0
C1179 C 0.99782 0.97956 0.89747 0.0
H1180 H 0.95282 0.05391 0.90142 0.0
C1181 C 0.01677 0.98279 0.92387 0.0
C1182 C 0.01231 0.01134 0.94236 0.0
H1183 H 1.00111 0.95695 0.88395 0.0
H1184 H 0.034 0.96239 0.93027 0.0
C1185 C 0.9895 0.03711 0.93337 0.0
C1186 C 0.78399 0.14552 0.60461 0.0
C1187 C 0.77991 0.16618 0.5791 0.0
H1188 H 0.78104 0.14221 0.65158 0.0
C1189 C 0.76736 0.19978 0.58166 0.0
H1190 H 0.79349 0.11944 0.60329 0.0
C1191 C 0.75958 0.21267 0.60937 0.0
C1192 C 0.76436 0.19225 0.63505 0.0
H1193 H 0.76354 0.21609 0.56229 0.0
H1194 H 0.7501 0.23875 0.61073 0.0
C1195 C 0.77639 0.15842 0.63227 0.0
C1196 C 0.58343 0.01944 0.39764 0.0
C1197 C 0.61395 0.00239 0.39562 0.0
H1198 H 0.54303 0.03183 0.42523 0.0
C1199 C 0.62557 0.98172 0.41938 0.0
H1200 H 0.57392 0.03554 0.37957 0.0
C1201 C 0.60745 0.97861 0.44489 0.0
C1202 C 0.57766 0.99689 0.44765 0.0
H1203 H 0.64887 0.9681 0.41833 0.0
H1204 H 0.61769 0.96312 0.46307 0.0
C1205 C 0.56569 0.01719 0.42366 0.0
C1206 C 0.84472 0.91199 0.1372 0.0
C1207 C 0.85466 0.89971 0.10982 0.0
H1208 H 0.83572 0.89995 0.18227 0.0
C1209 C 0.86781 0.86624 0.108 0.0
H1210 H 0.83447 0.93771 0.13912 0.0
C1211 C 0.86815 0.84434 0.1327 0.0
C1212 C 0.85593 0.85591 0.15958 0.0
H1213 H 0.87546 0.85615 0.08703 0.0
H1214 H 0.87655 0.81796 0.13044 0.0
C1215 C 0.84552 0.89036 0.16191 0.0
C1216 C 0.99458 0.96973 0.73366 0.0
C1217 C 0.965 0.98853 0.73509 0.0
H1218 H 0.03126 0.94899 0.70559 0.0
C1219 C 0.94902 1.00009 0.70876 0.0
H1220 H 0.00725 0.96038 0.75367 0.0
C1221 C 0.96223 0.99289 0.68148 0.0
C1222 C 0.99193 0.9744 0.67996 0.0
H1223 H 0.92605 0.01441 0.70917 0.0
H1224 H 0.9496 0.00256 0.66155 0.0
C1225 C 0.00816 0.96304 0.70627 0.0
C1226 C 0.82156 0.16843 0.39535 0.0
C1227 C 0.80703 0.18293 0.42013 0.0
H1228 H 0.83478 0.17526 0.3503 0.0
C1229 C 0.79565 0.21723 0.41837 0.0
H1230 H 0.83071 0.14213 0.3961 0.0
C1231 C 0.79738 0.23609 0.39187 0.0
C1232 C 0.8115 0.22138 0.36693 0.0
H1233 H 0.7843 0.22905 0.43714 0.0
H1234 H 0.78716 0.26195 0.39073 0.0
C1235 C 0.82417 0.18757 0.3692 0.0
C1236 C 0.59148 0.0356 0.23506 0.0
C1237 C 0.62511 0.02722 0.23809 0.0
H1238 H 0.55141 0.05082 0.20555 0.0
C1239 C 0.64448 0.02826 0.21306 0.0
H1240 H 0.57607 0.03537 0.2541 0.0
C1241 C 0.63049 0.0371 0.18543 0.0
C1242 C 0.59679 0.04528 0.18218 0.0
H1243 H 0.67051 0.02201 0.21472 0.0
H1244 H 0.64599 0.03647 0.16647 0.0
C1245 C 0.57743 0.04458 0.20733 0.0
C1246 C 0.84232 0.84587 0.96457 0.0
C1247 C 0.81556 0.85603 0.98134 0.0
H1248 H 0.85996 0.81144 0.9318 0.0
C1249 C 0.78667 0.83641 0.98004 0.0
H1250 H 0.86498 0.86037 0.96534 0.0
C1251 C 0.78384 0.8084 0.96095 0.0
C1252 C 0.80997 0.79926 0.94306 0.0
H1253 H 0.76573 0.84348 0.99291 0.0
H1254 H 0.76076 0.79467 0.95932 0.0
C1255 C 0.83959 0.81762 0.94567 0.0
C1256 C 0.85818 0.06657 0.03401 0.0
C1257 C 0.86212 0.03938 0.01403 0.0
H1258 H 0.87941 0.11199 0.05285 0.0
C1259 C 0.88503 0.04256 0.99185 0.0
H1260 H 0.83979 0.06531 0.05072 0.0
C1261 C 0.90758 0.06942 0.99296 0.0
C1262 C 0.90762 0.09306 0.01656 0.0
H1263 H 0.88794 0.02241 0.97565 0.0
H1264 H 0.92771 0.06835 0.97795 0.0
C1265 C 0.88055 0.09361 0.03497 0.0
C1266 C 0.3984 0.56775 0.03875 0.0
C1267 C 0.38409 0.57335 0.01037 0.0
H1268 H 0.44016 0.5487 0.06437 0.0
C1269 C 0.40101 0.56258 0.98551 0.0
H1270 H 0.38569 0.57572 0.05825 0.0
C1271 C 0.43255 0.54799 0.98896 0.0
C1272 C 0.44705 0.54284 0.01737 0.0
H1273 H 0.39044 0.56673 0.96341 0.0
H1274 H 0.44578 0.54113 0.96945 0.0
C1275 C 0.42939 0.5521 0.04225 0.0
C1276 C 0.24737 0.61445 0.80779 0.0
C1277 C 0.21308 0.61275 0.8098 0.0
H1278 H 0.2888 0.64553 0.79799 0.0
C1279 C 0.19393 0.64233 0.80298 0.0
H1280 H 0.26271 0.59199 0.81258 0.0
C1281 C 0.20886 0.67316 0.79477 0.0
C1282 C 0.24317 0.67479 0.79253 0.0
H1283 H 0.16738 0.6417 0.80417 0.0
H1284 H 0.19356 0.69571 0.79026 0.0
C1285 C 0.26222 0.64502 0.79899 0.0
C1286 C 0.20121 0.49334 0.55948 0.0
C1287 C 0.21222 0.46458 0.54393 0.0
H1288 H 0.1604 0.52598 0.56896 0.0
C1289 C 0.18973 0.4452 0.52685 0.0
H1290 H 0.21825 0.50871 0.57269 0.0
C1291 C 0.1569 0.45553 0.52411 0.0
C1292 C 0.14609 0.48502 0.53881 0.0
H1293 H 0.19777 0.42308 0.51444 0.0
H1294 H 0.14008 0.44061 0.51028 0.0
C1295 C 0.16827 0.50335 0.55712 0.0
C1296 C 0.8444 0.89382 0.83117 0.0
C1297 C 0.8521 0.91361 0.80634 0.0
H1298 H 0.82627 0.84584 0.84699 0.0
C1299 C 0.84314 0.90167 0.77792 0.0
H1300 H 0.85084 0.90257 0.85332 0.0
C1301 C 0.82924 0.86924 0.77424 0.0
C1302 C 0.82382 0.84829 0.79893 0.0
H1303 H 0.84845 0.91658 0.75836 0.0
H1304 H 0.82436 0.85991 0.75199 0.0
C1305 C 0.8302 0.86143 0.8275 0.0
C1306 C 0.67741 0.0959 0.50771 0.0
C1307 C 0.70582 0.07506 0.50772 0.0
H1308 H 0.62665 0.1001 0.51781 0.0
C1309 C 0.70428 0.04128 0.51899 0.0
H1310 H 0.67785 0.1222 0.49958 0.0
C1311 C 0.67479 0.02855 0.52973 0.0
C1312 C 0.64633 0.04945 0.5296 0.0
H1313 H 0.72589 0.02473 0.51966 0.0
H1314 H 0.67419 0.0022 0.53771 0.0
C1315 C 0.64811 0.08333 0.51857 0.0
C1316 C 0.21841 0.39735 0.83602 0.0
C1317 C 0.22696 0.42703 0.82017 0.0
H1318 H 0.22643 0.34326 0.84325 0.0
C1319 C 0.25248 0.42461 0.80009 0.0
H1320 H 0.19889 0.39834 0.85167 0.0
C1321 C 0.26806 0.39294 0.79499 0.0
C1322 C 0.25879 0.36298 0.81014 0.0
H1323 H 0.25964 0.44696 0.78748 0.0
H1324 H 0.28688 0.39179 0.77867 0.0
C1325 C 0.23427 0.36577 0.83121 0.0
C1326 C 0.34325 0.61363 0.28647 0.0
C1327 C 0.37112 0.61134 0.30575 0.0
H1328 H 0.30424 0.64562 0.26831 0.0
C1329 C 0.3797 0.63967 0.32338 0.0
H1330 H 0.336 0.59205 0.2727 0.0
C1331 C 0.36119 0.67009 0.32125 0.0
C1332 C 0.33404 0.6729 0.30113 0.0
H1333 H 0.40088 0.63845 0.33862 0.0
H1334 H 0.3689 0.6918 0.33467 0.0
C1335 C 0.32499 0.64422 0.28402 0.0
C1336 C 0.63875 0.59157 0.59886 0.0
C1337 C 0.62651 0.62538 0.59736 0.0
H1338 H 0.64252 0.54398 0.57568 0.0
C1339 C 0.61927 0.64057 0.56956 0.0
H1340 H 0.6451 0.57961 0.62005 0.0
C1341 C 0.61852 0.62052 0.54414 0.0
C1342 C 0.62368 0.58489 0.54663 0.0
H1343 H 0.61086 0.66711 0.56786 0.0
H1344 H 0.60802 0.6316 0.52381 0.0
C1345 C 0.6379 0.57142 0.57324 0.0
C1346 C 0.66822 0.26388 0.86941 0.0
C1347 C 0.63801 0.25571 0.85501 0.0
H1348 H 0.72067 0.26743 0.86694 0.0
C1349 C 0.63883 0.24368 0.82566 0.0
H1350 H 0.66879 0.2731 0.89198 0.0
C1351 C 0.66889 0.24033 0.81111 0.0
C1352 C 0.6991 0.24881 0.8255 0.0
H1353 H 0.61617 0.23703 0.81379 0.0
H1354 H 0.66838 0.23143 0.78845 0.0
C1355 C 0.69815 0.26048 0.85496 0.0
C1356 C 0.04907 0.28072 0.0651 0.0
C1357 C 0.04374 0.27804 0.09556 0.0
H1358 H 0.05892 0.31457 0.02887 0.0
C1359 C 0.03957 0.30807 0.11212 0.0
H1360 H 0.05252 0.25789 0.05189 0.0
C1361 C 0.04358 0.34022 0.09911 0.0
C1362 C 0.05177 0.3429 0.0693 0.0
H1363 H 0.03521 0.30671 0.1356 0.0
H1364 H 0.04133 0.36299 0.11264 0.0
C1365 C 0.05306 0.31305 0.05202 0.0
C1366 C 0.92779 0.75063 0.37503 0.0
C1367 C 0.95506 0.76374 0.36033 0.0
H1368 H 0.87582 0.74043 0.37346 0.0
C1369 C 0.94941 0.77749 0.33167 0.0
H1370 H 0.93102 0.73988 0.39712 0.0
C1371 C 0.91764 0.77781 0.31805 0.0
C1372 C 0.89035 0.7645 0.33264 0.0
H1373 H 0.96964 0.78787 0.3196 0.0
H1374 H 0.91454 0.78837 0.29588 0.0
C1375 C 0.89598 0.75104 0.36144 0.0
C1376 C 0.54952 0.39014 0.9376 0.0
C1377 C 0.54411 0.35791 0.95084 0.0
H1378 H 0.55302 0.44479 0.94313 0.0
C1379 C 0.53733 0.35709 0.98121 0.0
H1380 H 0.55475 0.39189 0.91433 0.0
C1381 C 0.53628 0.38758 0.99789 0.0
C1382 C 0.54196 0.41983 0.98468 0.0
H1383 H 0.53298 0.33277 0.9922 0.0
H1384 H 0.53127 0.38583 0.02121 0.0
C1385 C 0.54847 0.42058 0.95423 0.0
C1386 C 0.00497 0.17797 0.21689 0.0
C1387 C 1.00279 0.16112 0.18955 0.0
H1388 H 0.97957 0.201 0.2519 0.0
C1389 C 0.97223 0.14865 0.17937 0.0
H1390 H 0.02821 0.18827 0.22514 0.0
C1391 C 0.944 0.15461 0.19554 0.0
C1392 C 0.94541 0.17473 0.22153 0.0
H1393 H 0.96995 0.13538 0.1584 0.0
H1394 H 0.92099 0.14443 0.18683 0.0
C1395 C 0.97669 0.18521 0.23241 0.0
C1396 C 0.06263 0.67023 0.48396 0.0
C1397 C 0.05856 0.66925 0.45288 0.0
H1398 H 0.06506 0.64167 0.52491 0.0
C1399 C 0.05485 0.63694 0.43934 0.0
H1400 H 0.06554 0.69464 0.49518 0.0
C1401 C 0.05475 0.60655 0.45638 0.0
C1402 C 0.05818 0.6075 0.48754 0.0
H1403 H 0.05168 0.63511 0.41551 0.0
H1404 H 0.05142 0.58226 0.44505 0.0
C1405 C 0.06238 0.63981 0.50106 0.0
C1406 C 0.67239 0.74779 0.73737 0.0
C1407 C 0.66301 0.71307 0.73542 0.0
H1408 H 0.70766 0.78355 0.75488 0.0
C1409 C 0.67837 0.68856 0.75438 0.0
H1410 H 0.66074 0.76735 0.72324 0.0
C1411 C 0.70469 0.69827 0.77318 0.0
C1412 C 0.71582 0.73239 0.7729 0.0
H1413 H 0.67146 0.6617 0.75337 0.0
H1414 H 0.71818 0.6786 0.78585 0.0
C1415 C 0.69891 0.75728 0.75571 0.0
C1416 C 0.6348 0.49552 0.65321 0.0
C1417 C 0.62648 0.51897 0.67523 0.0
H1418 H 0.62273 0.47449 0.61084 0.0
C1419 C 0.59801 0.53954 0.67097 0.0
H1420 H 0.65643 0.47914 0.65593 0.0
C1421 C 0.57849 0.53695 0.64487 0.0
C1422 C 0.58692 0.51342 0.62282 0.0
H1423 H 0.59098 0.55779 0.68767 0.0
H1424 H 0.55715 0.55368 0.64179 0.0
C1425 C 0.61519 0.49262 0.62745 0.0
C1426 C 0.80691 0.37123 0.95984 0.0
C1427 C 0.81031 0.35235 0.98639 0.0
H1428 H 0.80973 0.37106 0.91286 0.0
C1429 C 0.82099 0.3179 0.98556 0.0
H1430 H 0.79874 0.39788 0.95977 0.0
C1431 C 0.8279 0.30258 0.95851 0.0
C1432 C 0.82417 0.32146 0.93187 0.0
H1433 H 0.82416 0.30289 0.00576 0.0
H1434 H 0.83606 0.27595 0.95844 0.0
C1435 C 0.81368 0.35598 0.93293 0.0
C1436 C 0.99857 0.54944 0.16677 0.0
C1437 C 0.98434 0.51811 0.17498 0.0
H1438 H 0.02554 0.5765 0.13399 0.0
C1439 C 0.98967 0.48874 0.15785 0.0
H1440 H 0.99478 0.57243 0.1797 0.0
C1441 C 0.00824 0.49073 0.13255 0.0
C1442 C 0.021 0.52241 0.1233 0.0
H1443 H 0.97917 0.46423 0.16387 0.0
H1444 H 0.01103 0.46778 0.11932 0.0
C1445 C 0.01625 0.55173 0.14078 0.0
C1446 C 0.72578 0.65319 0.4644 0.0
C1447 C 0.73609 0.61874 0.46185 0.0
H1448 H 0.71891 0.70195 0.44239 0.0
C1449 C 0.74224 0.60554 0.43376 0.0
H1450 H 0.72092 0.66399 0.48585 0.0
C1451 C 0.74116 0.62715 0.40903 0.0
C1452 C 0.73404 0.66244 0.41194 0.0
H1453 H 0.75015 0.57904 0.4312 0.0
H1454 H 0.74847 0.61668 0.3881 0.0
C1455 C 0.72496 0.67496 0.43961 0.0
C1456 C 0.60592 0.51015 0.84182 0.0
C1457 C 0.62235 0.53636 0.82707 0.0
H1458 H 0.5798 0.49579 0.88007 0.0
C1459 C 0.62346 0.56957 0.83932 0.0
H1460 H 0.60482 0.48433 0.83292 0.0
C1461 C 0.60941 0.5761 0.8665 0.0
C1462 C 0.59354 0.54966 0.8815 0.0
H1463 H 0.63616 0.59023 0.82843 0.0
H1464 H 0.61125 0.60161 0.87593 0.0
C1465 C 0.5915 0.51678 0.86871 0.0
C1466 C 0.75723 0.33494 0.15277 0.0
C1467 C 0.788 0.34211 0.14091 0.0
H1468 H 0.73139 0.3108 0.18804 0.0
C1469 C 0.81644 0.32782 0.15474 0.0
H1470 H 0.7349 0.34572 0.14254 0.0
C1471 C 0.81433 0.30698 0.17991 0.0
C1472 C 0.7838 0.30067 0.19254 0.0
H1473 H 0.84045 0.33273 0.14606 0.0
H1474 H 0.83696 0.29691 0.19017 0.0
C1475 C 0.7552 0.31492 0.17871 0.0
C1476 C 0.98653 0.45621 0.33555 0.0
C1477 C 0.98701 0.48952 0.32314 0.0
H1478 H 0.99824 0.4244 0.37353 0.0
C1479 C 1.00277 0.51602 0.3389 0.0
H1480 H 0.97445 0.43528 0.32388 0.0
C1481 C 0.01668 0.50962 0.3671 0.0
C1482 C 0.01469 0.47673 0.38013 0.0
H1483 H 1.00342 0.5419 0.32985 0.0
H1484 H 0.02757 0.53084 0.37932 0.0
C1485 C 1.0 0.44994 0.36394 0.0
C1486 C 0.80287 0.67867 0.59463 0.0
C1487 C 0.78888 0.64651 0.60088 0.0
H1488 H 0.8232 0.72541 0.61256 0.0
C1489 C 0.78318 0.6375 0.63033 0.0
H1490 H 0.80747 0.68621 0.57206 0.0
C1491 C 0.7926 0.65954 0.65322 0.0
C1492 C 0.80744 0.69112 0.64702 0.0
H1493 H 0.77254 0.61289 0.63581 0.0
H1494 H 0.78881 0.6517 0.67589 0.0
C1495 C 0.81189 0.70101 0.61762 0.0
C1496 C 0.74049 0.45133 0.52556 0.0
C1497 C 0.73778 0.47543 0.54843 0.0
H1498 H 0.71575 0.41174 0.50096 0.0
C1499 C 0.71489 0.46996 0.57028 0.0
H1500 H 0.75871 0.45438 0.50888 0.0
C1501 C 0.69102 0.44479 0.56624 0.0
C1502 C 0.689 0.42621 0.53954 0.0
H1503 H 0.71312 0.48749 0.58873 0.0
H1504 H 0.67107 0.44457 0.58146 0.0
C1505 C 0.71619 0.42647 0.52124 0.0
C1506 C 0.19465 0.96712 0.58422 0.0
C1507 C 0.21298 0.95734 0.55989 0.0
H1508 H 0.14841 0.98647 0.59897 0.0
C1509 C 0.19948 0.96249 0.53115 0.0
H1510 H 0.20451 0.96315 0.60659 0.0
C1511 C 0.16797 0.97677 0.52678 0.0
C1512 C 0.14895 0.98501 0.5511 0.0
H1513 H 0.21318 0.95512 0.51205 0.0
H1514 H 0.15793 0.97993 0.50438 0.0
C1515 C 0.16262 0.9803 0.57987 0.0
C1516 C 0.34481 0.92508 0.78345 0.0
C1517 C 0.37118 0.92535 0.7642 0.0
H1518 H 0.31125 0.89445 0.80773 0.0
C1519 C 0.38507 0.89379 0.75581 0.0
H1520 H 0.33385 0.94901 0.7906 0.0
C1521 C 0.37276 0.86265 0.76621 0.0
C1522 C 0.34594 0.86222 0.78499 0.0
H1523 H 0.40573 0.8931 0.74137 0.0
H1524 H 0.38375 0.83884 0.7588 0.0
C1525 C 0.33214 0.89384 0.79355 0.0
C1526 C 0.39742 0.0317 0.00687 0.0
C1527 C 0.38264 0.03997 0.03347 0.0
H1528 H 0.44204 0.01893 0.98576 0.0
C1529 C 0.40182 0.04104 0.05988 0.0
H1530 H 0.383 0.03065 0.98626 0.0
C1531 C 0.43559 0.03489 0.05955 0.0
C1532 C 0.45046 0.027 0.03288 0.0
H1533 H 0.39089 0.04747 0.08065 0.0
H1534 H 0.45003 0.03639 0.08012 0.0
C1535 C 0.43109 0.02494 0.00662 0.0
C1536 C 0.76514 0.58947 0.80416 0.0
C1537 C 0.75727 0.58207 0.77434 0.0
H1538 H 0.78997 0.62327 0.83455 0.0
C1539 C 0.77361 0.5994 0.75205 0.0
H1540 H 0.7532 0.57605 0.82184 0.0
C1541 C 0.79536 0.62582 0.75937 0.0
C1542 C 0.80046 0.63585 0.7891 0.0
H1543 H 0.76844 0.59368 0.72893 0.0
H1544 H 0.80593 0.64021 0.7415 0.0
C1545 C 0.78647 0.61628 0.8115 0.0
C1546 C 0.88919 0.49265 0.05167 0.0
C1547 C 0.88652 0.45656 0.05322 0.0
H1548 H 0.92034 0.53572 0.04257 0.0
C1549 C 0.91326 0.43618 0.04479 0.0
H1550 H 0.86881 0.50902 0.05766 0.0
C1551 C 0.94212 0.45126 0.03562 0.0
C1552 C 0.94541 0.48728 0.03479 0.0
H1553 H 0.91197 0.40832 0.04525 0.0
H1554 H 0.96227 0.43443 0.02983 0.0
C1555 C 0.91848 0.50791 0.04263 0.0
C1556 C 0.34726 0.10907 0.77769 0.0
C1557 C 0.36251 0.10179 0.75106 0.0
H1558 H 0.31945 0.14492 0.80247 0.0
C1559 C 0.35947 0.12586 0.7277 0.0
H1560 H 0.34902 0.09098 0.79605 0.0
C1561 C 0.34287 0.15739 0.73154 0.0
C1562 C 0.32842 0.16502 0.75859 0.0
H1563 H 0.37108 0.12097 0.70695 0.0
H1564 H 0.34197 0.17603 0.7136 0.0
C1565 C 0.33019 0.14005 0.78131 0.0
C1566 C 0.25746 0.93489 0.2741 0.0
C1567 C 0.2277 0.93739 0.25738 0.0
H1568 H 0.29604 0.9016 0.29145 0.0
C1569 C 0.21508 0.90792 0.2434 0.0
H1570 H 0.26769 0.95728 0.28511 0.0
C1571 C 0.23164 0.87635 0.24642 0.0
C1572 C 0.26076 0.87347 0.26405 0.0
H1573 H 0.19227 0.90921 0.23024 0.0
H1574 H 0.22096 0.85395 0.23577 0.0
C1575 C 0.27366 0.90309 0.27771 0.0
C1576 C 0.45832 0.43492 0.47711 0.0
C1577 C 0.47094 0.40146 0.48146 0.0
H1578 H 0.45331 0.48484 0.4962 0.0
C1579 C 0.47825 0.38973 0.51049 0.0
H1580 H 0.45133 0.44425 0.45511 0.0
C1581 C 0.47914 0.41289 0.53389 0.0
C1582 C 0.4736 0.44799 0.52818 0.0
H1583 H 0.48663 0.36353 0.51474 0.0
H1584 H 0.49001 0.40449 0.55501 0.0
C1585 C 0.45871 0.45793 0.50082 0.0
C1586 C 0.42173 0.76475 0.19709 0.0
C1587 C 0.45183 0.77444 0.21091 0.0
H1588 H 0.36944 0.75962 0.20014 0.0
C1589 C 0.45083 0.78762 0.23992 0.0
H1590 H 0.42123 0.75459 0.17482 0.0
C1591 C 0.4208 0.79052 0.25467 0.0
C1592 C 0.3907 0.78053 0.24085 0.0
H1593 H 0.47336 0.79544 0.25139 0.0
H1594 H 0.42125 0.8003 0.27705 0.0
C1595 C 0.39181 0.76778 0.21171 0.0
C1596 C 0.03885 0.75709 0.99027 0.0
C1597 C 0.00824 0.77179 0.98181 0.0
H1598 H 0.06431 0.71272 0.00824 0.0
C1599 C 0.97926 0.75458 0.98886 0.0
H1600 H 0.06154 0.76984 0.98512 0.0
C1601 C 0.98083 0.72195 0.00186 0.0
C1602 C 0.0114 0.70613 0.00833 0.0
H1603 H 0.95528 0.76543 0.98282 0.0
H1604 H 0.95815 0.70847 0.00572 0.0
C1605 C 0.04041 0.72447 0.00353 0.0
C1606 C 0.13895 0.24494 0.73739 0.0
C1607 C 0.13381 0.25903 0.70879 0.0
H1608 H 0.1733 0.23362 0.7735 0.0
C1609 C 0.16128 0.2723 0.69454 0.0
H1610 H 0.11851 0.23443 0.74908 0.0
C1611 C 0.19283 0.27171 0.7085 0.0
C1612 C 0.19798 0.2579 0.73722 0.0
H1613 H 0.15841 0.2833 0.67251 0.0
H1614 H 0.21318 0.28243 0.6968 0.0
C1615 C 0.17051 0.24443 0.7514 0.0
C1616 C 0.55393 0.67537 0.08245 0.0
C1617 C 0.54821 0.67333 0.113 0.0
H1618 H 0.56019 0.64804 0.04171 0.0
C1619 C 0.54508 0.64051 0.12581 0.0
H1620 H 0.55656 0.70021 0.07179 0.0
C1621 C 0.54726 0.61064 0.10859 0.0
C1622 C 0.55267 0.61255 0.07795 0.0
H1623 H 0.54076 0.63783 0.1492 0.0
H1624 H 0.54439 0.58592 0.1194 0.0
C1625 C 0.55613 0.64541 0.06516 0.0
C1626 C 0.11539 0.87953 0.88658 0.0
C1627 C 0.08517 0.86836 0.8745 0.0
H1628 H 0.16721 0.88246 0.88189 0.0
C1629 C 0.08435 0.85161 0.84712 0.0
H1630 H 0.11656 0.89269 0.90765 0.0
C1631 C 0.11343 0.84369 0.83312 0.0
C1632 C 0.14426 0.85345 0.84556 0.0
H1633 H 0.06132 0.84225 0.83751 0.0
H1634 H 0.11138 0.82819 0.8134 0.0
C1635 C 0.14453 0.87296 0.8719 0.0
C1636 C 0.0384 0.386 0.62833 0.0
C1637 C 0.03245 0.35398 0.61492 0.0
H1638 H 0.04402 0.44041 0.62256 0.0
C1639 C 0.02667 0.35327 0.58399 0.0
H1640 H 0.04294 0.38762 0.65204 0.0
C1641 C 0.0274 0.38369 0.56691 0.0
C1642 C 0.03381 0.41568 0.58031 0.0
H1643 H 0.02204 0.32907 0.57287 0.0
H1644 H 0.02331 0.38205 0.54315 0.0
C1645 C 0.039 0.41636 0.61132 0.0
C1646 C 0.42375 0.31627 0.32313 0.0
C1647 C 0.41917 0.31469 0.35373 0.0
H1648 H 0.40306 0.30619 0.27982 0.0
C1649 C 0.39079 0.29926 0.36431 0.0
H1650 H 0.44572 0.32757 0.3145 0.0
C1651 C 0.36686 0.28661 0.34468 0.0
C1652 C 0.37084 0.28905 0.31406 0.0
H1653 H 0.38683 0.2973 0.38783 0.0
H1654 H 0.34465 0.27598 0.35347 0.0
C1655 C 0.39974 0.30339 0.30337 0.0
C1656 C 0.51207 0.51093 0.39357 0.0
C1657 C 0.47784 0.51664 0.39152 0.0
H1658 H 0.55538 0.50739 0.42228 0.0
C1659 C 0.46098 0.52422 0.41716 0.0
H1660 H 0.52556 0.50503 0.37399 0.0
C1661 C 0.47811 0.52681 0.4443 0.0
C1662 C 0.51226 0.52081 0.44659 0.0
H1663 H 0.43465 0.52893 0.41614 0.0
H1664 H 0.46442 0.53288 0.46368 0.0
C1665 C 0.52911 0.51238 0.42105 0.0
C1666 C 0.28224 0.65406 0.10872 0.0
C1667 C 0.27823 0.67303 0.08228 0.0
H1668 H 0.28001 0.65417 0.1558 0.0
C1669 C 0.26647 0.70709 0.08325 0.0
H1670 H 0.29116 0.62768 0.10861 0.0
C1671 C 0.25944 0.72214 0.11031 0.0
C1672 C 0.26421 0.70342 0.1369 0.0
H1673 H 0.26276 0.72216 0.06313 0.0
H1674 H 0.2506 0.74853 0.11044 0.0
C1675 C 0.2754 0.66911 0.13574 0.0
C1676 C 0.10646 0.54852 0.91172 0.0
C1677 C 0.10923 0.5184 0.89492 0.0
H1678 H 0.08505 0.57272 0.949 0.0
C1679 C 0.09024 0.48967 0.90212 0.0
H1680 H 0.12056 0.57114 0.90645 0.0
C1681 C 0.07025 0.49041 0.92667 0.0
C1682 C 0.06798 0.5203 0.94384 0.0
H1683 H 0.09179 0.46617 0.88943 0.0
H1684 H 0.0573 0.46731 0.93276 0.0
C1685 C 0.0857 0.54961 0.93573 0.0
C1686 C 0.34433 0.41175 0.62619 0.0
C1687 C 0.34578 0.39646 0.59821 0.0
H1688 H 0.34131 0.404 0.67272 0.0
C1689 C 0.35059 0.36069 0.59644 0.0
H1690 H 0.34061 0.43929 0.62827 0.0
C1691 C 0.35152 0.34033 0.62209 0.0
C1692 C 0.34731 0.35533 0.64998 0.0
H1693 H 0.35206 0.34823 0.57515 0.0
H1694 H 0.35422 0.31269 0.61993 0.0
C1695 C 0.34491 0.39143 0.65177 0.0
C1696 C 0.46228 0.52331 0.20751 0.0
C1697 C 0.47816 0.5117 0.23384 0.0
H1698 H 0.46065 0.52184 0.1602 0.0
C1699 C 0.50569 0.4897 0.23247 0.0
H1700 H 0.44079 0.53998 0.20794 0.0
C1701 C 0.51701 0.47931 0.20512 0.0
C1702 C 0.50051 0.49019 0.17887 0.0
H1703 H 0.51818 0.4802 0.25251 0.0
H1704 H 0.53841 0.46254 0.20444 0.0
C1705 C 0.47323 0.51244 0.18025 0.0
C1706 C 0.3219 0.67511 0.90265 0.0
C1707 C 0.30735 0.68848 0.92784 0.0
H1708 H 0.3351 0.68401 0.85788 0.0
C1709 C 0.29624 0.72289 0.92739 0.0
H1710 H 0.33083 0.64874 0.90246 0.0
C1711 C 0.29806 0.74298 0.90162 0.0
C1712 C 0.31204 0.72935 0.87619 0.0
H1713 H 0.28489 0.7338 0.94655 0.0
H1714 H 0.28786 0.76886 0.90134 0.0
C1715 C 0.32465 0.69547 0.87725 0.0
C1716 C 0.08623 0.53719 0.73754 0.0
C1717 C 0.11837 0.52357 0.73992 0.0
H1718 H 0.04747 0.55685 0.70849 0.0
C1719 C 0.13622 0.51911 0.71425 0.0
H1720 H 0.07203 0.54112 0.75706 0.0
C1721 C 0.12242 0.52853 0.68672 0.0
C1722 C 0.09043 0.54247 0.68426 0.0
H1723 H 0.16109 0.5088 0.71543 0.0
H1724 H 0.13664 0.52432 0.66724 0.0
C1725 C 0.07228 0.54641 0.70987 0.0
C1726 C 0.30695 0.37954 0.43429 0.0
C1727 C 0.28761 0.40671 0.44457 0.0
H1728 H 0.3113 0.33904 0.40289 0.0
C1729 C 0.25672 0.41357 0.43064 0.0
H1730 H 0.33081 0.37362 0.44463 0.0
C1731 C 0.2452 0.39336 0.40709 0.0
C1732 C 0.26436 0.36589 0.39698 0.0
H1733 H 0.2411 0.43417 0.43831 0.0
H1734 H 0.22117 0.39902 0.39699 0.0
C1735 C 0.29549 0.3594 0.41068 0.0
C1736 C 0.35357 0.57029 0.5352 0.0
C1737 C 0.3583 0.54517 0.51345 0.0
H1738 H 0.37596 0.61094 0.5604 0.0
C1739 C 0.38429 0.54858 0.49429 0.0
H1740 H 0.33327 0.56849 0.54998 0.0
C1741 C 0.40786 0.57384 0.49948 0.0
C1742 C 0.40651 0.5948 0.52475 0.0
H1743 H 0.388 0.52993 0.47696 0.0
H1744 H 0.42947 0.57339 0.48623 0.0
C1745 C 0.37774 0.59493 0.54097 0.0
C1746 C 0.90059 0.06902 0.53639 0.0
C1747 C 0.88658 0.07229 0.50763 0.0
H1748 H 0.94168 0.05108 0.56354 0.0
C1749 C 0.90344 0.05872 0.48375 0.0
H1750 H 0.8879 0.07913 0.55516 0.0
C1751 C 0.93463 0.04358 0.48844 0.0
C1752 C 0.94875 0.04057 0.51721 0.0
H1753 H 0.89309 0.06102 0.46139 0.0
H1754 H 0.94786 0.03452 0.46959 0.0
C1755 C 0.93115 0.05275 0.5412 0.0
C1756 C 0.70029 0.13651 0.30715 0.0
C1757 C 0.71835 0.1055 0.30658 0.0
H1758 H 0.69896 0.19052 0.29726 0.0
C1759 C 0.7494 0.10547 0.2939 0.0
H1760 H 0.67608 0.1373 0.31636 0.0
C1761 C 0.76233 0.13587 0.28248 0.0
C1762 C 0.74454 0.16708 0.28349 0.0
H1763 H 0.76372 0.08189 0.29271 0.0
H1764 H 0.78668 0.13504 0.27355 0.0
C1765 C 0.71323 0.16694 0.29578 0.0
C1766 C 0.70655 0.98613 0.05501 0.0
C1767 C 0.72096 0.97578 0.02873 0.0
H1768 H 0.66292 0.00371 0.0754 0.0
C1769 C 0.70223 0.97635 0.00207 0.0
H1770 H 0.72068 0.98618 0.07581 0.0
C1771 C 0.66912 0.98597 0.00189 0.0
C1772 C 0.65455 0.99577 0.02828 0.0
H1773 H 0.71292 0.96856 0.98154 0.0
H1774 H 0.65485 0.98544 0.98118 0.0
C1775 C 0.67364 0.99637 0.05475 0.0
C1776 C 0.33355 0.43703 0.29435 0.0
C1777 C 0.36581 0.4398 0.28474 0.0
H1778 H 0.28833 0.4094 0.29114 0.0
C1779 C 0.37604 0.41876 0.26156 0.0
H1780 H 0.32483 0.45342 0.31177 0.0
C1781 C 0.35498 0.39415 0.24923 0.0
C1782 C 0.32337 0.38986 0.26009 0.0
H1783 H 0.4006 0.42086 0.25324 0.0
H1784 H 0.36425 0.37711 0.23252 0.0
C1785 C 0.31252 0.41222 0.28218 0.0
C1786 C 0.19978 0.54449 0.02029 0.0
C1787 C 0.2029 0.57866 0.01031 0.0
H1788 H 0.16749 0.50583 0.03669 0.0
C1789 C 0.17528 0.6006 0.01029 0.0
H1790 H 0.22078 0.5271 0.02088 0.0
C1791 C 0.14525 0.58881 0.02004 0.0
C1792 C 0.1418 0.55457 0.02973 0.0
H1793 H 0.17692 0.62719 0.00313 0.0
H1794 H 0.1245 0.60655 0.01936 0.0
C1795 C 0.16941 0.53245 0.02971 0.0
C1796 C 0.72575 0.9045 0.28724 0.0
C1797 C 0.72179 0.91793 0.31563 0.0
H1798 H 0.74631 0.86448 0.26117 0.0
C1799 C 0.73619 0.90039 0.34022 0.0
H1800 H 0.7151 0.91765 0.26791 0.0
C1801 C 0.75337 0.86924 0.33645 0.0
C1802 C 0.75753 0.85605 0.30793 0.0
H1803 H 0.73345 0.91029 0.36235 0.0
H1804 H 0.76351 0.85559 0.35572 0.0
C1805 C 0.74387 0.87424 0.28339 0.0
C1806 C 0.82917 0.09203 0.7954 0.0
C1807 C 0.8603 0.09007 0.80988 0.0
H1808 H 0.78952 0.12507 0.77973 0.0
C1809 C 0.8743 0.11989 0.82202 0.0
H1810 H 0.81799 0.06927 0.7858 0.0
C1811 C 0.85773 0.15139 0.81931 0.0
C1812 C 0.82727 0.1538 0.80367 0.0
H1813 H 0.89822 0.1189 0.8334 0.0
H1814 H 0.86947 0.17412 0.82843 0.0
C1815 C 0.81296 0.12383 0.79191 0.0
loop_
_geom_bond_atom_site_label_1
_geom_bond_atom_site_label_2
_geom_bond_distance
_geom_bond_site_symmetry_2
_ccdc_geom_bond_type
In0 O1 2.294 . S
In0 O2 2.326 . S
In0 O6 2.266 . S
In0 O7 2.326 . S
In0 O8 2.266 . S
In0 O9 2.326 . S
In0 O11 2.294 . S
In0 O12 2.326 . S
O1 In0 2.294 . S
O1 C10 1.240 . S
O2 In0 2.326 . S
O2 C10 1.252 . S
C3 O6 1.252 . S
C3 O7 1.260 . S
C4 O11 1.240 . S
C4 O12 1.252 . S
C5 O8 1.252 . S
C5 O9 1.260 . S
O6 In0 2.266 . S
O6 C3 1.252 . S
O7 In0 2.326 . S
O7 C3 1.260 . S
O8 In0 2.266 . S
O8 C5 1.252 . S
O9 In0 2.326 . S
O9 C5 1.260 . S
C10 O1 1.240 . S
C10 O2 1.252 . S
O11 In0 2.294 . S
O11 C4 1.240 . S
O12 In0 2.326 . S
O12 C4 1.252 . S
In13 O14 2.294 . S
In13 O15 2.326 . S
In13 O19 2.266 . S
In13 O20 2.326 1_455 S
In13 O21 2.266 . S
In13 O22 2.326 . S
In13 O24 2.294 . S
In13 O25 2.326 . S
O14 In13 2.294 . S
O14 C23 1.240 . S
O15 In13 2.326 . S
O15 C23 1.252 . S
C16 O19 1.252 1_655 S
C16 O20 1.260 . S
C17 O24 1.240 . S
C17 O25 1.252 . S
C18 O21 1.252 . S
C18 O22 1.260 . S
O19 In13 2.266 . S
O19 C16 1.252 1_455 S
O20 In13 2.326 1_655 S
O20 C16 1.260 . S
O21 In13 2.266 . S
O21 C18 1.252 . S
O22 In13 2.326 . S
O22 C18 1.260 . S
C23 O14 1.240 . S
C23 O15 1.252 . S
O24 In13 2.294 . S
O24 C17 1.240 . S
O25 In13 2.326 . S
O25 C17 1.252 . S
In26 O27 2.294 . S
In26 O28 2.326 . S
In26 O32 2.266 . S
In26 O33 2.326 . S
In26 O34 2.266 . S
In26 O35 2.326 . S
In26 O37 2.294 . S
In26 O38 2.326 . S
O27 In26 2.294 . S
O27 C36 1.240 . S
O28 In26 2.326 . S
O28 C36 1.252 . S
C29 O32 1.252 . S
C29 O33 1.260 . S
C30 O37 1.240 . S
C30 O38 1.252 . S
C31 O34 1.252 . S
C31 O35 1.260 . S
O32 In26 2.266 . S
O32 C29 1.252 . S
O33 In26 2.326 . S
O33 C29 1.260 . S
O34 In26 2.266 . S
O34 C31 1.252 . S
O35 In26 2.326 . S
O35 C31 1.260 . S
C36 O27 1.240 . S
C36 O28 1.252 . S
O37 In26 2.294 . S
O37 C30 1.240 . S
O38 In26 2.326 . S
O38 C30 1.252 . S
In39 O40 2.294 . S
In39 O41 2.326 . S
In39 O45 2.266 . S
In39 O46 2.326 . S
In39 O47 2.266 . S
In39 O48 2.326 . S
In39 O50 2.294 . S
In39 O51 2.326 . S
O40 In39 2.294 . S
O40 C49 1.240 . S
O41 In39 2.326 . S
O41 C49 1.252 . S
C42 O45 1.252 . S
C42 O46 1.260 . S
C43 O50 1.240 . S
C43 O51 1.252 . S
C44 O47 1.252 . S
C44 O48 1.260 . S
O45 In39 2.266 . S
O45 C42 1.252 . S
O46 In39 2.326 . S
O46 C42 1.260 . S
O47 In39 2.266 . S
O47 C44 1.252 . S
O48 In39 2.326 . S
O48 C44 1.260 . S
C49 O40 1.240 . S
C49 O41 1.252 . S
O50 In39 2.294 . S
O50 C43 1.240 . S
O51 In39 2.326 . S
O51 C43 1.252 . S
In52 O53 2.294 1_545 S
In52 O54 2.326 1_545 S
In52 O58 2.266 . S
In52 O59 2.326 . S
In52 O60 2.266 . S
In52 O61 2.326 . S
In52 O63 2.294 . S
In52 O64 2.326 . S
O53 In52 2.294 1_565 S
O53 C62 1.240 . S
O54 In52 2.326 1_565 S
O54 C62 1.252 . S
C55 O58 1.252 . S
C55 O59 1.260 . S
C56 O63 1.240 . S
C56 O64 1.252 . S
C57 O60 1.252 . S
C57 O61 1.260 . S
O58 In52 2.266 . S
O58 C55 1.252 . S
O59 In52 2.326 . S
O59 C55 1.260 . S
O60 In52 2.266 . S
O60 C57 1.252 . S
O61 In52 2.326 . S
O61 C57 1.260 . S
C62 O53 1.240 . S
C62 O54 1.252 . S
O63 In52 2.294 . S
O63 C56 1.240 . S
O64 In52 2.326 . S
O64 C56 1.252 . S
In65 O66 2.294 . S
In65 O67 2.326 . S
In65 O71 2.266 . S
In65 O72 2.326 . S
In65 O73 2.266 . S
In65 O74 2.326 . S
In65 O76 2.294 . S
In65 O77 2.326 . S
O66 In65 2.294 . S
O66 C75 1.240 . S
O67 In65 2.326 . S
O67 C75 1.252 . S
C68 O71 1.252 . S
C68 O72 1.260 . S
C69 O76 1.240 . S
C69 O77 1.252 . S
C70 O73 1.252 . S
C70 O74 1.260 . S
O71 In65 2.266 . S
O71 C68 1.252 . S
O72 In65 2.326 . S
O72 C68 1.260 . S
O73 In65 2.266 . S
O73 C70 1.252 . S
O74 In65 2.326 . S
O74 C70 1.260 . S
C75 O66 1.240 . S
C75 O67 1.252 . S
O76 In65 2.294 . S
O76 C69 1.240 . S
O77 In65 2.326 . S
O77 C69 1.252 . S
In78 O79 2.294 . S
In78 O80 2.326 . S
In78 O84 2.266 1_545 S
In78 O85 2.326 1_545 S
In78 O86 2.266 . S
In78 O87 2.326 . S
In78 O89 2.294 . S
In78 O90 2.326 . S
O79 In78 2.294 . S
O79 C88 1.240 . S
O80 In78 2.326 . S
O80 C88 1.252 . S
C81 O84 1.252 . S
C81 O85 1.260 . S
C82 O89 1.240 . S
C82 O90 1.252 . S
C83 O86 1.252 . S
C83 O87 1.260 . S
O84 In78 2.266 1_565 S
O84 C81 1.252 . S
O85 In78 2.326 1_565 S
O85 C81 1.260 . S
O86 In78 2.266 . S
O86 C83 1.252 . S
O87 In78 2.326 . S
O87 C83 1.260 . S
C88 O79 1.240 . S
C88 O80 1.252 . S
O89 In78 2.294 . S
O89 C82 1.240 . S
O90 In78 2.326 . S
O90 C82 1.252 . S
In91 O92 2.294 . S
In91 O93 2.326 . S
In91 O97 2.266 . S
In91 O98 2.326 . S
In91 O99 2.266 . S
In91 O100 2.326 1_554 S
In91 O102 2.294 . S
In91 O103 2.326 . S
O92 In91 2.294 . S
O92 C101 1.240 . S
O93 In91 2.326 . S
O93 C101 1.252 . S
C94 O97 1.252 . S
C94 O98 1.260 . S
C95 O102 1.240 . S
C95 O103 1.252 . S
C96 O99 1.252 1_556 S
C96 O100 1.260 . S
O97 In91 2.266 . S
O97 C94 1.252 . S
O98 In91 2.326 . S
O98 C94 1.260 . S
O99 In91 2.266 . S
O99 C96 1.252 1_554 S
O100 In91 2.326 1_556 S
O100 C96 1.260 . S
C101 O92 1.240 . S
C101 O93 1.252 . S
O102 In91 2.294 . S
O102 C95 1.240 . S
O103 In91 2.326 . S
O103 C95 1.252 . S
In104 O105 2.294 . S
In104 O106 2.326 . S
In104 O110 2.266 . S
In104 O111 2.326 . S
In104 O112 2.266 . S
In104 O113 2.326 . S
In104 O115 2.294 . S
In104 O116 2.326 . S
O105 In104 2.294 . S
O105 C114 1.240 . S
O106 In104 2.326 . S
O106 C114 1.252 . S
C107 O110 1.252 . S
C107 O111 1.260 . S
C108 O115 1.240 . S
C108 O116 1.252 . S
C109 O112 1.252 . S
C109 O113 1.260 . S
O110 In104 2.266 . S
O110 C107 1.252 . S
O111 In104 2.326 . S
O111 C107 1.260 . S
O112 In104 2.266 . S
O112 C109 1.252 . S
O113 In104 2.326 . S
O113 C109 1.260 . S
C114 O105 1.240 . S
C114 O106 1.252 . S
O115 In104 2.294 . S
O115 C108 1.240 . S
O116 In104 2.326 . S
O116 C108 1.252 . S
In117 O118 2.294 . S
In117 O119 2.326 . S
In117 O123 2.266 . S
In117 O124 2.326 . S
In117 O125 2.266 . S
In117 O126 2.326 . S
In117 O128 2.294 . S
In117 O129 2.326 . S
O118 In117 2.294 . S
O118 C127 1.240 . S
O119 In117 2.326 . S
O119 C127 1.252 . S
C120 O123 1.252 . S
C120 O124 1.260 . S
C121 O128 1.240 . S
C121 O129 1.252 . S
C122 O125 1.252 . S
C122 O126 1.260 . S
O123 In117 2.266 . S
O123 C120 1.252 . S
O124 In117 2.326 . S
O124 C120 1.260 . S
O125 In117 2.266 . S
O125 C122 1.252 . S
O126 In117 2.326 . S
O126 C122 1.260 . S
C127 O118 1.240 . S
C127 O119 1.252 . S
O128 In117 2.294 . S
O128 C121 1.240 . S
O129 In117 2.326 . S
O129 C121 1.252 . S
In130 O131 2.294 . S
In130 O132 2.326 . S
In130 O136 2.266 . S
In130 O137 2.326 . S
In130 O138 2.266 . S
In130 O139 2.326 . S
In130 O141 2.294 . S
In130 O142 2.326 . S
O131 In130 2.294 . S
O131 C140 1.240 . S
O132 In130 2.326 . S
O132 C140 1.252 . S
C133 O136 1.252 . S
C133 O137 1.260 . S
C134 O141 1.240 . S
C134 O142 1.252 . S
C135 O138 1.252 . S
C135 O139 1.260 . S
O136 In130 2.266 . S
O136 C133 1.252 . S
O137 In130 2.326 . S
O137 C133 1.260 . S
O138 In130 2.266 . S
O138 C135 1.252 . S
O139 In130 2.326 . S
O139 C135 1.260 . S
C140 O131 1.240 . S
C140 O132 1.252 . S
O141 In130 2.294 . S
O141 C134 1.240 . S
O142 In130 2.326 . S
O142 C134 1.252 . S
In143 O144 2.294 . S
In143 O145 2.326 . S
In143 O149 2.266 . S
In143 O150 2.326 . S
In143 O151 2.266 . S
In143 O152 2.326 . S
In143 O154 2.294 . S
In143 O155 2.326 . S
O144 In143 2.294 . S
O144 C153 1.240 . S
O145 In143 2.326 . S
O145 C153 1.252 . S
C146 O149 1.252 . S
C146 O150 1.260 . S
C147 O154 1.240 . S
C147 O155 1.252 . S
C148 O151 1.252 . S
C148 O152 1.260 . S
O149 In143 2.266 . S
O149 C146 1.252 . S
O150 In143 2.326 . S
O150 C146 1.260 . S
O151 In143 2.266 . S
O151 C148 1.252 . S
O152 In143 2.326 . S
O152 C148 1.260 . S
C153 O144 1.240 . S
C153 O145 1.252 . S
O154 In143 2.294 . S
O154 C147 1.240 . S
O155 In143 2.326 . S
O155 C147 1.252 . S
In156 O157 2.296 . S
In156 O158 2.330 . S
In156 O162 2.264 1_455 S
In156 O163 2.322 1_455 S
In156 O164 2.266 1_455 S
In156 O165 2.325 1_455 S
In156 O167 2.294 . S
In156 O168 2.327 . S
O157 In156 2.296 . S
O157 C166 1.240 . S
O158 In156 2.330 . S
O158 C166 1.252 . S
C159 O162 1.252 . S
C159 O163 1.260 . S
C160 O167 1.240 . S
C160 O168 1.252 . S
C161 O164 1.252 . S
C161 O165 1.260 . S
O162 In156 2.264 1_655 S
O162 C159 1.252 . S
O163 In156 2.322 1_655 S
O163 C159 1.260 . S
O164 In156 2.266 1_655 S
O164 C161 1.252 . S
O165 In156 2.325 1_655 S
O165 C161 1.260 . S
C166 O157 1.240 . S
C166 O158 1.252 . S
O167 In156 2.294 . S
O167 C160 1.240 . S
O168 In156 2.327 . S
O168 C160 1.252 . S
In169 O170 2.294 . S
In169 O171 2.326 . S
In169 O175 2.266 . S
In169 O176 2.326 . S
In169 O177 2.266 . S
In169 O178 2.326 1_455 S
In169 O180 2.294 . S
In169 O181 2.326 . S
O170 In169 2.294 . S
O170 C179 1.240 . S
O171 In169 2.326 . S
O171 C179 1.252 . S
C172 O175 1.252 . S
C172 O176 1.260 . S
C173 O180 1.240 . S
C173 O181 1.252 . S
C174 O177 1.252 1_655 S
C174 O178 1.260 . S
O175 In169 2.266 . S
O175 C172 1.252 . S
O176 In169 2.326 . S
O176 C172 1.260 . S
O177 In169 2.266 . S
O177 C174 1.252 1_455 S
O178 In169 2.326 1_655 S
O178 C174 1.260 . S
C179 O170 1.240 . S
C179 O171 1.252 . S
O180 In169 2.294 . S
O180 C173 1.240 . S
O181 In169 2.326 . S
O181 C173 1.252 . S
In182 O183 2.294 . S
In182 O184 2.326 . S
In182 O188 2.266 . S
In182 O189 2.326 . S
In182 O190 2.266 . S
In182 O191 2.326 . S
In182 O193 2.294 . S
In182 O194 2.326 . S
O183 In182 2.294 . S
O183 C192 1.240 . S
O184 In182 2.326 . S
O184 C192 1.252 . S
C185 O188 1.252 . S
C185 O189 1.260 . S
C186 O193 1.240 . S
C186 O194 1.252 . S
C187 O190 1.252 . S
C187 O191 1.260 . S
O188 In182 2.266 . S
O188 C185 1.252 . S
O189 In182 2.326 . S
O189 C185 1.260 . S
O190 In182 2.266 . S
O190 C187 1.252 . S
O191 In182 2.326 . S
O191 C187 1.260 . S
C192 O183 1.240 . S
C192 O184 1.252 . S
O193 In182 2.294 . S
O193 C186 1.240 . S
O194 In182 2.326 . S
O194 C186 1.252 . S
In195 O196 2.294 . S
In195 O197 2.326 . S
In195 O201 2.266 . S
In195 O202 2.326 . S
In195 O203 2.266 . S
In195 O204 2.326 . S
In195 O206 2.294 . S
In195 O207 2.326 . S
O196 In195 2.294 . S
O196 C205 1.240 . S
O197 In195 2.326 . S
O197 C205 1.252 . S
C198 O201 1.252 . S
C198 O202 1.260 . S
C199 O206 1.240 . S
C199 O207 1.252 . S
C200 O203 1.252 . S
C200 O204 1.260 . S
O201 In195 2.266 . S
O201 C198 1.252 . S
O202 In195 2.326 . S
O202 C198 1.260 . S
O203 In195 2.266 . S
O203 C200 1.252 . S
O204 In195 2.326 . S
O204 C200 1.260 . S
C205 O196 1.240 . S
C205 O197 1.252 . S
O206 In195 2.294 . S
O206 C199 1.240 . S
O207 In195 2.326 . S
O207 C199 1.252 . S
In208 O209 2.294 . S
In208 O210 2.326 . S
In208 O214 2.266 1_545 S
In208 O215 2.326 . S
In208 O216 2.266 1_545 S
In208 O217 2.326 1_545 S
In208 O219 2.294 . S
In208 O220 2.326 . S
O209 In208 2.294 . S
O209 C218 1.240 . S
O210 In208 2.326 . S
O210 C218 1.252 . S
C211 O214 1.252 . S
C211 O215 1.259 1_565 S
C212 O219 1.240 . S
C212 O220 1.252 . S
C213 O216 1.252 . S
C213 O217 1.260 . S
O214 In208 2.266 1_565 S
O214 C211 1.252 . S
O215 In208 2.326 . S
O215 C211 1.259 1_545 S
O216 In208 2.266 1_565 S
O216 C213 1.252 . S
O217 In208 2.326 1_565 S
O217 C213 1.260 . S
C218 O209 1.240 . S
C218 O210 1.252 . S
O219 In208 2.294 . S
O219 C212 1.240 . S
O220 In208 2.326 . S
O220 C212 1.252 . S
In221 O222 2.294 . S
In221 O223 2.326 . S
In221 O227 2.266 . S
In221 O228 2.326 . S
In221 O229 2.266 . S
In221 O230 2.326 . S
In221 O232 2.294 . S
In221 O233 2.326 . S
O222 In221 2.294 . S
O222 C231 1.240 . S
O223 In221 2.326 . S
O223 C231 1.252 . S
C224 O227 1.252 . S
C224 O228 1.260 . S
C225 O232 1.240 . S
C225 O233 1.252 . S
C226 O229 1.252 . S
C226 O230 1.260 . S
O227 In221 2.266 . S
O227 C224 1.252 . S
O228 In221 2.326 . S
O228 C224 1.260 . S
O229 In221 2.266 . S
O229 C226 1.252 . S
O230 In221 2.326 . S
O230 C226 1.260 . S
C231 O222 1.240 . S
C231 O223 1.252 . S
O232 In221 2.294 . S
O232 C225 1.240 . S
O233 In221 2.326 . S
O233 C225 1.252 . S
In234 O235 2.294 1_545 S
In234 O236 2.326 1_545 S
In234 O240 2.266 . S
In234 O241 2.326 . S
In234 O242 2.266 . S
In234 O243 2.326 . S
In234 O245 2.294 . S
In234 O246 2.326 . S
O235 In234 2.294 1_565 S
O235 C244 1.240 . S
O236 In234 2.326 1_565 S
O236 C244 1.252 . S
C237 O240 1.252 . S
C237 O241 1.260 . S
C238 O245 1.240 . S
C238 O246 1.252 . S
C239 O242 1.252 . S
C239 O243 1.260 . S
O240 In234 2.266 . S
O240 C237 1.252 . S
O241 In234 2.326 . S
O241 C237 1.260 . S
O242 In234 2.266 . S
O242 C239 1.252 . S
O243 In234 2.326 . S
O243 C239 1.260 . S
C244 O235 1.240 . S
C244 O236 1.252 . S
O245 In234 2.294 . S
O245 C238 1.240 . S
O246 In234 2.326 . S
O246 C238 1.252 . S
In247 O248 2.294 . S
In247 O249 2.326 . S
In247 O253 2.266 . S
In247 O254 2.326 . S
In247 O255 2.266 . S
In247 O256 2.326 1_554 S
In247 O258 2.294 . S
In247 O259 2.326 . S
O248 In247 2.294 . S
O248 C257 1.240 . S
O249 In247 2.326 . S
O249 C257 1.252 . S
C250 O253 1.252 . S
C250 O254 1.260 . S
C251 O258 1.240 . S
C251 O259 1.252 . S
C252 O255 1.252 1_556 S
C252 O256 1.260 . S
O253 In247 2.266 . S
O253 C250 1.252 . S
O254 In247 2.326 . S
O254 C250 1.260 . S
O255 In247 2.266 . S
O255 C252 1.252 1_554 S
O256 In247 2.326 1_556 S
O256 C252 1.260 . S
C257 O248 1.240 . S
C257 O249 1.252 . S
O258 In247 2.294 . S
O258 C251 1.240 . S
O259 In247 2.326 . S
O259 C251 1.252 . S
In260 O261 2.307 . S
In260 O262 2.346 . S
In260 O266 2.254 1_554 S
In260 O267 2.306 1_554 S
In260 O268 2.264 1_554 S
In260 O269 2.325 1_554 S
In260 O271 2.296 . S
In260 O272 2.328 . S
O261 In260 2.307 . S
O261 C270 1.240 . S
O262 In260 2.346 . S
O262 C270 1.252 . S
C263 O266 1.252 . S
C263 O267 1.260 . S
C264 O271 1.240 . S
C264 O272 1.252 . S
C265 O268 1.252 . S
C265 O269 1.260 . S
O266 In260 2.254 1_556 S
O266 C263 1.252 . S
O267 In260 2.306 1_556 S
O267 C263 1.260 . S
O268 In260 2.264 1_556 S
O268 C265 1.252 . S
O269 In260 2.325 1_556 S
O269 C265 1.260 . S
C270 O261 1.240 . S
C270 O262 1.252 . S
O271 In260 2.296 . S
O271 C264 1.240 . S
O272 In260 2.328 . S
O272 C264 1.252 . S
In273 O274 2.294 . S
In273 O275 2.326 . S
In273 O279 2.266 . S
In273 O280 2.326 . S
In273 O281 2.266 . S
In273 O282 2.326 . S
In273 O284 2.294 . S
In273 O285 2.326 . S
O274 In273 2.294 . S
O274 C283 1.240 . S
O275 In273 2.326 . S
O275 C283 1.252 . S
C276 O279 1.252 . S
C276 O280 1.260 . S
C277 O284 1.240 . S
C277 O285 1.252 . S
C278 O281 1.252 . S
C278 O282 1.260 . S
O279 In273 2.266 . S
O279 C276 1.252 . S
O280 In273 2.326 . S
O280 C276 1.260 . S
O281 In273 2.266 . S
O281 C278 1.252 . S
O282 In273 2.326 . S
O282 C278 1.260 . S
C283 O274 1.240 . S
C283 O275 1.252 . S
O284 In273 2.294 . S
O284 C277 1.240 . S
O285 In273 2.326 . S
O285 C277 1.252 . S
In286 O287 2.294 . S
In286 O288 2.326 . S
In286 O292 2.266 . S
In286 O293 2.326 . S
In286 O294 2.266 . S
In286 O295 2.326 . S
In286 O297 2.294 . S
In286 O298 2.326 . S
O287 In286 2.294 . S
O287 C296 1.240 . S
O288 In286 2.326 . S
O288 C296 1.252 . S
C289 O292 1.252 . S
C289 O293 1.260 . S
C290 O297 1.240 . S
C290 O298 1.252 . S
C291 O294 1.252 . S
C291 O295 1.260 . S
O292 In286 2.266 . S
O292 C289 1.252 . S
O293 In286 2.326 . S
O293 C289 1.260 . S
O294 In286 2.266 . S
O294 C291 1.252 . S
O295 In286 2.326 . S
O295 C291 1.260 . S
C296 O287 1.240 . S
C296 O288 1.252 . S
O297 In286 2.294 . S
O297 C290 1.240 . S
O298 In286 2.326 . S
O298 C290 1.252 . S
In299 O300 2.294 . S
In299 O301 2.326 . S
In299 O305 2.266 . S
In299 O306 2.326 . S
In299 O307 2.266 . S
In299 O308 2.326 . S
In299 O310 2.294 . S
In299 O311 2.326 . S
O300 In299 2.294 . S
O300 C309 1.240 . S
O301 In299 2.326 . S
O301 C309 1.252 . S
C302 O305 1.252 . S
C302 O306 1.260 . S
C303 O310 1.240 . S
C303 O311 1.252 . S
C304 O307 1.252 . S
C304 O308 1.260 . S
O305 In299 2.266 . S
O305 C302 1.252 . S
O306 In299 2.326 . S
O306 C302 1.260 . S
O307 In299 2.266 . S
O307 C304 1.252 . S
O308 In299 2.326 . S
O308 C304 1.260 . S
C309 O300 1.240 . S
C309 O301 1.252 . S
O310 In299 2.294 . S
O310 C303 1.240 . S
O311 In299 2.326 . S
O311 C303 1.252 . S
C312 O328 1.251 1_455 S
C312 O330 1.254 . S
N313 C314 1.333 1_565 S
N313 C318 1.307 . S
N313 Zn319 2.017 1_665 S
C314 N313 1.333 1_545 S
C314 C315 1.379 . S
C314 H332 0.952 . S
C315 C314 1.379 . S
C315 C316 1.390 1_545 S
C315 H342 0.949 . S
C316 C315 1.390 1_565 S
C316 C317 1.357 . S
C317 C316 1.357 . S
C317 C318 1.370 . S
C317 H343 0.950 . S
C318 N313 1.307 . S
C318 C317 1.370 . S
C318 H336 0.948 . S
Zn319 N313 2.017 1_445 S
Zn319 O328 2.044 1_454 S
Zn319 O334 2.047 . S
Zn319 O338 2.022 1_545 S
Zn319 O340 2.013 1_545 S
C320 O339 1.246 . S
C320 O340 1.249 . S
N321 C322 1.307 1_554 S
N321 C323 1.333 . S
N321 Zn327 2.020 . S
C322 N321 1.307 1_556 S
C322 C326 1.370 . S
C322 H333 0.948 . S
C323 N321 1.333 . S
C323 C324 1.379 . S
C323 H331 0.952 1_545 S
C324 C323 1.379 . S
C324 C325 1.390 1_554 S
C324 H344 0.949 . S
C325 C324 1.390 1_556 S
C325 C326 1.357 . S
C326 C322 1.370 . S
C326 C325 1.357 . S
C326 H345 0.950 . S
Zn327 N321 2.020 . S
Zn327 O330 2.025 1_554 S
Zn327 O335 2.024 . S
Zn327 O337 2.039 . S
Zn327 O339 2.034 1_545 S
O328 C312 1.251 1_655 S
O328 Zn319 2.044 1_656 S
C329 O334 1.246 . S
C329 O335 1.249 . S
O330 C312 1.254 . S
O330 Zn327 2.025 1_556 S
H331 C323 0.952 1_565 S
H332 C314 0.952 . S
H333 C322 0.948 . S
O334 Zn319 2.047 . S
O334 C329 1.246 . S
O335 Zn327 2.024 . S
O335 C329 1.249 . S
H336 C318 0.948 . S
O337 Zn327 2.039 . S
O337 C341 1.251 1_545 S
O338 Zn319 2.022 1_565 S
O338 C341 1.254 . S
O339 C320 1.246 . S
O339 Zn327 2.034 1_565 S
O340 Zn319 2.013 1_565 S
O340 C320 1.249 . S
C341 O337 1.251 1_565 S
C341 O338 1.254 . S
H342 C315 0.949 . S
H343 C317 0.950 . S
H344 C324 0.949 . S
H345 C326 0.950 . S
C346 O362 1.251 . S
C346 O364 1.254 . S
N347 C348 1.333 . S
N347 C352 1.307 . S
N347 Zn353 2.020 . S
C348 N347 1.333 . S
C348 C349 1.379 . S
C348 H366 0.952 . S
C349 C348 1.379 . S
C349 C350 1.390 . S
C349 H376 0.949 . S
C350 C349 1.390 . S
C350 C351 1.357 . S
C351 C350 1.357 . S
C351 C352 1.370 . S
C351 H377 0.950 . S
C352 N347 1.307 . S
C352 C351 1.370 . S
C352 H370 0.948 . S
Zn353 N347 2.020 . S
Zn353 O362 2.039 . S
Zn353 O368 2.034 . S
Zn353 O372 2.025 . S
Zn353 O374 2.024 . S
C354 O373 1.246 . S
C354 O374 1.249 . S
N355 C356 1.307 . S
N355 C357 1.333 . S
N355 Zn361 2.020 . S
C356 N355 1.307 . S
C356 C360 1.370 . S
C356 H367 0.948 . S
C357 N355 1.333 . S
C357 C358 1.379 . S
C357 H365 0.952 . S
C358 C357 1.379 . S
C358 C359 1.390 . S
C358 H378 0.949 . S
C359 C358 1.390 . S
C359 C360 1.357 . S
C360 C356 1.370 . S
C360 C359 1.357 . S
C360 H379 0.950 . S
Zn361 N355 2.020 . S
Zn361 O364 2.025 . S
Zn361 O369 2.024 . S
Zn361 O371 2.039 . S
Zn361 O373 2.034 . S
O362 C346 1.251 . S
O362 Zn353 2.039 . S
C363 O368 1.246 . S
C363 O369 1.249 . S
O364 C346 1.254 . S
O364 Zn361 2.025 . S
H365 C357 0.952 . S
H366 C348 0.952 . S
H367 C356 0.948 . S
O368 Zn353 2.034 . S
O368 C363 1.246 . S
O369 Zn361 2.024 . S
O369 C363 1.249 . S
H370 C352 0.948 . S
O371 Zn361 2.039 . S
O371 C375 1.251 . S
O372 Zn353 2.025 . S
O372 C375 1.254 . S
O373 C354 1.246 . S
O373 Zn361 2.034 . S
O374 Zn353 2.024 . S
O374 C354 1.249 . S
C375 O371 1.251 . S
C375 O372 1.254 . S
H376 C349 0.949 . S
H377 C351 0.950 . S
H378 C358 0.949 . S
H379 C360 0.950 . S
C380 O396 1.251 . S
C380 O398 1.254 . S
N381 C382 1.333 . S
N381 C386 1.307 . S
N381 Zn387 2.020 . S
C382 N381 1.333 . S
C382 C383 1.379 . S
C382 H400 0.952 . S
C383 C382 1.379 . S
C383 C384 1.390 . S
C383 H410 0.949 . S
C384 C383 1.390 . S
C384 C385 1.357 . S
C385 C384 1.357 . S
C385 C386 1.370 . S
C385 H411 0.950 . S
C386 N381 1.307 . S
C386 C385 1.370 . S
C386 H404 0.948 . S
Zn387 N381 2.020 . S
Zn387 O396 2.039 1_565 S
Zn387 O402 2.034 1_565 S
Zn387 O406 2.025 . S
Zn387 O408 2.024 . S
C388 O407 1.246 1_565 S
C388 O408 1.249 . S
N389 C390 1.307 . S
N389 C391 1.333 . S
N389 Zn395 2.020 . S
C390 N389 1.307 . S
C390 C394 1.370 . S
C390 H401 0.948 . S
C391 N389 1.333 . S
C391 C392 1.379 . S
C391 H399 0.952 . S
C392 C391 1.379 . S
C392 C393 1.390 . S
C392 H412 0.949 . S
C393 C392 1.390 . S
C393 C394 1.357 . S
C394 C390 1.370 . S
C394 C393 1.357 . S
C394 H413 0.950 . S
Zn395 N389 2.020 . S
Zn395 O398 2.025 . S
Zn395 O403 2.024 . S
Zn395 O405 2.039 . S
Zn395 O407 2.034 . S
O396 C380 1.251 . S
O396 Zn387 2.039 1_545 S
C397 O402 1.246 . S
C397 O403 1.249 . S
O398 C380 1.254 . S
O398 Zn395 2.025 . S
H399 C391 0.952 . S
H400 C382 0.952 . S
H401 C390 0.948 . S
O402 Zn387 2.034 1_545 S
O402 C397 1.246 . S
O403 Zn395 2.024 . S
O403 C397 1.249 . S
H404 C386 0.948 . S
O405 Zn395 2.039 . S
O405 C409 1.251 . S
O406 Zn387 2.025 . S
O406 C409 1.254 1_565 S
O407 C388 1.246 1_545 S
O407 Zn395 2.034 . S
O408 Zn387 2.024 . S
O408 C388 1.249 . S
C409 O405 1.251 . S
C409 O406 1.254 1_545 S
H410 C383 0.949 . S
H411 C385 0.950 . S
H412 C392 0.949 . S
H413 C394 0.950 . S
C414 O430 1.251 . S
C414 O432 1.254 . S
N415 C416 1.333 . S
N415 C420 1.307 . S
N415 Zn421 2.020 . S
C416 N415 1.333 . S
C416 C417 1.379 . S
C416 H434 0.952 . S
C417 C416 1.379 . S
C417 C418 1.390 . S
C417 H444 0.949 . S
C418 C417 1.390 . S
C418 C419 1.357 . S
C419 C418 1.357 . S
C419 C420 1.370 . S
C419 H445 0.950 . S
C420 N415 1.307 . S
C420 C419 1.370 . S
C420 H438 0.948 . S
Zn421 N415 2.020 . S
Zn421 O430 2.039 . S
Zn421 O436 2.034 . S
Zn421 O440 2.025 . S
Zn421 O442 2.024 . S
C422 O441 1.246 . S
C422 O442 1.249 . S
N423 C424 1.307 . S
N423 C425 1.333 . S
N423 Zn429 2.020 . S
C424 N423 1.307 . S
C424 C428 1.370 . S
C424 H435 0.948 . S
C425 N423 1.333 . S
C425 C426 1.379 . S
C425 H433 0.952 . S
C426 C425 1.379 . S
C426 C427 1.390 . S
C426 H446 0.949 . S
C427 C426 1.390 . S
C427 C428 1.357 . S
C428 C424 1.370 . S
C428 C427 1.357 . S
C428 H447 0.950 . S
Zn429 N423 2.020 . S
Zn429 O432 2.025 . S
Zn429 O437 2.024 . S
Zn429 O439 2.039 . S
Zn429 O441 2.034 . S
O430 C414 1.251 . S
O430 Zn421 2.039 . S
C431 O436 1.246 . S
C431 O437 1.249 . S
O432 C414 1.254 . S
O432 Zn429 2.025 . S
H433 C425 0.952 . S
H434 C416 0.952 . S
H435 C424 0.948 . S
O436 Zn421 2.034 . S
O436 C431 1.246 . S
O437 Zn429 2.024 . S
O437 C431 1.249 . S
H438 C420 0.948 . S
O439 Zn429 2.039 . S
O439 C443 1.251 . S
O440 Zn421 2.025 . S
O440 C443 1.254 . S
O441 C422 1.246 . S
O441 Zn429 2.034 . S
O442 Zn421 2.024 . S
O442 C422 1.249 . S
C443 O439 1.251 . S
C443 O440 1.254 . S
H444 C417 0.949 . S
H445 C419 0.950 . S
H446 C426 0.949 . S
H447 C428 0.950 . S
C448 O464 1.251 1_565 S
C448 O466 1.254 . S
N449 C450 1.333 . S
N449 C454 1.307 . S
N449 Zn455 2.020 . S
C450 N449 1.333 . S
C450 C451 1.379 . S
C450 H468 0.952 . S
C451 C450 1.379 . S
C451 C452 1.390 . S
C451 H478 0.949 . S
C452 C451 1.390 . S
C452 C453 1.357 . S
C453 C452 1.357 . S
C453 C454 1.370 . S
C453 H479 0.950 . S
C454 N449 1.307 . S
C454 C453 1.370 . S
C454 H472 0.948 . S
Zn455 N449 2.020 . S
Zn455 O464 2.039 . S
Zn455 O470 2.034 . S
Zn455 O474 2.025 . S
Zn455 O476 2.024 1_545 S
C456 O475 1.246 . S
C456 O476 1.249 . S
N457 C458 1.307 . S
N457 C459 1.333 1_455 S
N457 Zn463 2.020 1_565 S
C458 N457 1.307 . S
C458 C462 1.370 . S
C458 H469 0.948 1_565 S
C459 N457 1.333 1_655 S
C459 C460 1.379 . S
C459 H467 0.952 . S
C460 C459 1.379 . S
C460 C461 1.390 . S
C460 H480 0.949 . S
C461 C460 1.390 . S
C461 C462 1.357 1_655 S
C462 C458 1.370 . S
C462 C461 1.357 1_455 S
C462 H481 0.950 . S
Zn463 N457 2.020 1_545 S
Zn463 O466 2.025 1_545 S
Zn463 O471 2.024 . S
Zn463 O473 2.039 1_455 S
Zn463 O475 2.034 1_545 S
O464 C448 1.251 1_545 S
O464 Zn455 2.039 . S
C465 O470 1.246 . S
C465 O471 1.249 . S
O466 C448 1.254 . S
O466 Zn463 2.025 1_565 S
H467 C459 0.952 . S
H468 C450 0.952 . S
H469 C458 0.948 1_545 S
O470 Zn455 2.034 . S
O470 C465 1.246 . S
O471 Zn463 2.024 . S
O471 C465 1.249 . S
H472 C454 0.948 . S
O473 Zn463 2.039 1_655 S
O473 C477 1.251 . S
O474 Zn455 2.025 . S
O474 C477 1.254 1_455 S
O475 C456 1.246 . S
O475 Zn463 2.034 1_565 S
O476 Zn455 2.024 1_565 S
O476 C456 1.249 . S
C477 O473 1.251 . S
C477 O474 1.254 1_655 S
H478 C451 0.949 . S
H479 C453 0.950 . S
H480 C460 0.949 . S
H481 C462 0.950 . S
C482 O498 1.251 . S
C482 O500 1.254 . S
N483 C484 1.333 . S
N483 C488 1.307 . S
N483 Zn489 2.020 . S
C484 N483 1.333 . S
C484 C485 1.379 . S
C484 H502 0.952 . S
C485 C484 1.379 . S
C485 C486 1.390 . S
C485 H512 0.949 . S
C486 C485 1.390 . S
C486 C487 1.357 . S
C487 C486 1.357 . S
C487 C488 1.370 . S
C487 H513 0.950 . S
C488 N483 1.307 . S
C488 C487 1.370 . S
C488 H506 0.948 . S
Zn489 N483 2.020 . S
Zn489 O498 2.039 . S
Zn489 O504 2.034 . S
Zn489 O508 2.025 . S
Zn489 O510 2.024 . S
C490 O509 1.246 . S
C490 O510 1.249 . S
N491 C492 1.307 . S
N491 C493 1.333 . S
N491 Zn497 2.020 . S
C492 N491 1.307 . S
C492 C496 1.370 . S
C492 H503 0.948 . S
C493 N491 1.333 . S
C493 C494 1.379 . S
C493 H501 0.952 . S
C494 C493 1.379 . S
C494 C495 1.390 . S
C494 H514 0.949 . S
C495 C494 1.390 . S
C495 C496 1.357 . S
C496 C492 1.370 . S
C496 C495 1.357 . S
C496 H515 0.950 . S
Zn497 N491 2.020 . S
Zn497 O500 2.025 . S
Zn497 O505 2.024 . S
Zn497 O507 2.039 . S
Zn497 O509 2.034 . S
O498 C482 1.251 . S
O498 Zn489 2.039 . S
C499 O504 1.246 . S
C499 O505 1.249 . S
O500 C482 1.254 . S
O500 Zn497 2.025 . S
H501 C493 0.952 . S
H502 C484 0.952 . S
H503 C492 0.948 . S
O504 Zn489 2.034 . S
O504 C499 1.246 . S
O505 Zn497 2.024 . S
O505 C499 1.249 . S
H506 C488 0.948 . S
O507 Zn497 2.039 . S
O507 C511 1.251 . S
O508 Zn489 2.025 . S
O508 C511 1.254 . S
O509 C490 1.246 . S
O509 Zn497 2.034 . S
O510 Zn489 2.024 . S
O510 C490 1.249 . S
C511 O507 1.251 . S
C511 O508 1.254 . S
H512 C485 0.949 . S
H513 C487 0.950 . S
H514 C494 0.949 . S
H515 C496 0.950 . S
C516 O532 1.251 . S
C516 O534 1.254 . S
N517 C518 1.333 . S
N517 C522 1.307 . S
N517 Zn523 2.020 . S
C518 N517 1.333 . S
C518 C519 1.379 . S
C518 H536 0.952 1_545 S
C519 C518 1.379 . S
C519 C520 1.390 . S
C519 H546 0.949 . S
C520 C519 1.390 . S
C520 C521 1.357 . S
C521 C520 1.357 . S
C521 C522 1.370 . S
C521 H547 0.950 . S
C522 N517 1.307 . S
C522 C521 1.370 . S
C522 H540 0.948 . S
Zn523 N517 2.020 . S
Zn523 O532 2.039 1_545 S
Zn523 O538 2.034 . S
Zn523 O542 2.025 . S
Zn523 O544 2.014 1_545 S
C524 O543 1.246 . S
C524 O544 1.262 . S
N525 C526 1.307 . S
N525 C527 1.333 . S
N525 Zn531 2.020 1_556 S
C526 N525 1.307 . S
C526 C530 1.370 . S
C526 H537 0.948 . S
C527 N525 1.333 . S
C527 C528 1.379 . S
C527 H535 0.952 1_565 S
C528 C527 1.379 . S
C528 C529 1.390 . S
C528 H548 0.949 1_565 S
C529 C528 1.390 . S
C529 C530 1.357 . S
C530 C526 1.370 . S
C530 C529 1.357 . S
C530 H549 0.950 . S
Zn531 N525 2.020 1_554 S
Zn531 O534 2.025 . S
Zn531 O539 2.024 1_565 S
Zn531 O541 2.039 1_564 S
Zn531 O543 2.034 . S
O532 C516 1.251 . S
O532 Zn523 2.039 1_565 S
C533 O538 1.246 . S
C533 O539 1.249 . S
O534 C516 1.254 . S
O534 Zn531 2.025 . S
H535 C527 0.952 1_545 S
H536 C518 0.952 1_565 S
H537 C526 0.948 . S
O538 Zn523 2.034 . S
O538 C533 1.246 . S
O539 Zn531 2.024 1_545 S
O539 C533 1.249 . S
H540 C522 0.948 . S
O541 Zn531 2.039 1_546 S
O541 C545 1.251 1_556 S
O542 Zn523 2.025 . S
O542 C545 1.254 . S
O543 C524 1.246 . S
O543 Zn531 2.034 . S
O544 Zn523 2.014 1_565 S
O544 C524 1.262 . S
C545 O541 1.251 1_554 S
C545 O542 1.254 . S
H546 C519 0.949 . S
H547 C521 0.950 . S
H548 C528 0.949 1_545 S
H549 C530 0.950 . S
C550 O566 1.251 . S
C550 O568 1.254 . S
N551 C552 1.333 . S
N551 C556 1.307 . S
N551 Zn557 2.020 . S
C552 N551 1.333 . S
C552 C553 1.379 . S
C552 H570 0.952 . S
C553 C552 1.379 . S
C553 C554 1.390 . S
C553 H580 0.949 . S
C554 C553 1.390 . S
C554 C555 1.357 . S
C555 C554 1.357 . S
C555 C556 1.370 . S
C555 H581 0.950 . S
C556 N551 1.307 . S
C556 C555 1.370 . S
C556 H574 0.948 . S
Zn557 N551 2.020 . S
Zn557 O566 2.039 . S
Zn557 O572 2.034 . S
Zn557 O576 2.025 . S
Zn557 O578 2.024 . S
C558 O577 1.246 . S
C558 O578 1.249 . S
N559 C560 1.307 . S
N559 C561 1.333 . S
N559 Zn565 2.020 . S
C560 N559 1.307 . S
C560 C564 1.370 . S
C560 H571 0.948 . S
C561 N559 1.333 . S
C561 C562 1.379 . S
C561 H569 0.952 . S
C562 C561 1.379 . S
C562 C563 1.390 . S
C562 H582 0.949 . S
C563 C562 1.390 . S
C563 C564 1.357 . S
C564 C560 1.370 . S
C564 C563 1.357 . S
C564 H583 0.950 . S
Zn565 N559 2.020 . S
Zn565 O568 2.025 . S
Zn565 O573 2.024 . S
Zn565 O575 2.039 . S
Zn565 O577 2.034 . S
O566 C550 1.251 . S
O566 Zn557 2.039 . S
C567 O572 1.246 . S
C567 O573 1.249 . S
O568 C550 1.254 . S
O568 Zn565 2.025 . S
H569 C561 0.952 . S
H570 C552 0.952 . S
H571 C560 0.948 . S
O572 Zn557 2.034 . S
O572 C567 1.246 . S
O573 Zn565 2.024 . S
O573 C567 1.249 . S
H574 C556 0.948 . S
O575 Zn565 2.039 . S
O575 C579 1.251 . S
O576 Zn557 2.025 . S
O576 C579 1.254 . S
O577 C558 1.246 . S
O577 Zn565 2.034 . S
O578 Zn557 2.024 . S
O578 C558 1.249 . S
C579 O575 1.251 . S
C579 O576 1.254 . S
H580 C553 0.949 . S
H581 C555 0.950 . S
H582 C562 0.949 . S
H583 C564 0.950 . S
C584 O600 1.251 . S
C584 O602 1.254 . S
N585 C586 1.333 . S
N585 C590 1.307 . S
N585 Zn591 2.020 1_556 S
C586 N585 1.333 . S
C586 C587 1.379 . S
C586 H604 0.952 . S
C587 C586 1.379 . S
C587 C588 1.390 . S
C587 H614 0.949 . S
C588 C587 1.390 . S
C588 C589 1.357 . S
C589 C588 1.357 . S
C589 C590 1.370 . S
C589 H615 0.950 . S
C590 N585 1.307 . S
C590 C589 1.370 . S
C590 H608 0.948 . S
Zn591 N585 2.020 1_554 S
Zn591 O600 2.039 . S
Zn591 O606 2.034 . S
Zn591 O610 2.025 . S
Zn591 O612 2.024 1_554 S
C592 O611 1.246 . S
C592 O612 1.249 1_554 S
N593 C594 1.307 . S
N593 C595 1.333 . S
N593 Zn599 2.020 . S
C594 N593 1.307 . S
C594 C598 1.370 . S
C594 H605 0.948 . S
C595 N593 1.333 . S
C595 C596 1.379 . S
C595 H603 0.952 . S
C596 C595 1.379 . S
C596 C597 1.390 . S
C596 H616 0.949 . S
C597 C596 1.390 . S
C597 C598 1.357 . S
C598 C594 1.370 . S
C598 C597 1.357 . S
C598 H617 0.950 . S
Zn599 N593 2.020 . S
Zn599 O602 2.025 . S
Zn599 O607 2.024 . S
Zn599 O609 2.039 . S
Zn599 O611 2.034 . S
O600 C584 1.251 . S
O600 Zn591 2.039 . S
C601 O606 1.246 . S
C601 O607 1.249 . S
O602 C584 1.254 . S
O602 Zn599 2.025 . S
H603 C595 0.952 . S
H604 C586 0.952 . S
H605 C594 0.948 . S
O606 Zn591 2.034 . S
O606 C601 1.246 . S
O607 Zn599 2.024 . S
O607 C601 1.249 . S
H608 C590 0.948 . S
O609 Zn599 2.039 . S
O609 C613 1.251 . S
O610 Zn591 2.025 . S
O610 C613 1.254 . S
O611 C592 1.246 . S
O611 Zn599 2.034 . S
O612 Zn591 2.024 1_556 S
O612 C592 1.249 1_556 S
C613 O609 1.251 . S
C613 O610 1.254 . S
H614 C587 0.949 . S
H615 C589 0.950 . S
H616 C596 0.949 . S
H617 C598 0.950 . S
C618 O634 1.251 . S
C618 O636 1.254 . S
N619 C620 1.333 . S
N619 C624 1.307 . S
N619 Zn625 2.020 . S
C620 N619 1.333 . S
C620 C621 1.379 . S
C620 H638 0.952 . S
C621 C620 1.379 . S
C621 C622 1.390 . S
C621 H648 0.949 . S
C622 C621 1.390 . S
C622 C623 1.357 . S
C623 C622 1.357 . S
C623 C624 1.370 . S
C623 H649 0.950 . S
C624 N619 1.307 . S
C624 C623 1.370 . S
C624 H642 0.948 . S
Zn625 N619 2.020 . S
Zn625 O634 2.039 . S
Zn625 O640 2.034 . S
Zn625 O644 2.025 . S
Zn625 O646 2.024 . S
C626 O645 1.246 . S
C626 O646 1.249 . S
N627 C628 1.307 . S
N627 C629 1.333 . S
N627 Zn633 2.020 . S
C628 N627 1.307 . S
C628 C632 1.370 . S
C628 H639 0.948 . S
C629 N627 1.333 . S
C629 C630 1.379 . S
C629 H637 0.952 . S
C630 C629 1.379 . S
C630 C631 1.390 . S
C630 H650 0.949 . S
C631 C630 1.390 . S
C631 C632 1.357 . S
C632 C628 1.370 . S
C632 C631 1.357 . S
C632 H651 0.950 . S
Zn633 N627 2.020 . S
Zn633 O636 2.025 . S
Zn633 O641 2.024 . S
Zn633 O643 2.039 . S
Zn633 O645 2.034 . S
O634 C618 1.251 . S
O634 Zn625 2.039 . S
C635 O640 1.246 . S
C635 O641 1.249 . S
O636 C618 1.254 . S
O636 Zn633 2.025 . S
H637 C629 0.952 . S
H638 C620 0.952 . S
H639 C628 0.948 . S
O640 Zn625 2.034 . S
O640 C635 1.246 . S
O641 Zn633 2.024 . S
O641 C635 1.249 . S
H642 C624 0.948 . S
O643 Zn633 2.039 . S
O643 C647 1.251 . S
O644 Zn625 2.025 . S
O644 C647 1.254 . S
O645 C626 1.246 . S
O645 Zn633 2.034 . S
O646 Zn625 2.024 . S
O646 C626 1.249 . S
C647 O643 1.251 . S
C647 O644 1.254 . S
H648 C621 0.949 . S
H649 C623 0.950 . S
H650 C630 0.949 . S
H651 C632 0.950 . S
C652 O668 1.251 . S
C652 O670 1.254 . S
N653 C654 1.333 . S
N653 C658 1.307 . S
N653 Zn659 2.020 . S
C654 N653 1.333 . S
C654 C655 1.379 . S
C654 H672 0.952 . S
C655 C654 1.379 . S
C655 C656 1.390 . S
C655 H682 0.949 . S
C656 C655 1.390 . S
C656 C657 1.357 . S
C657 C656 1.357 . S
C657 C658 1.370 . S
C657 H683 0.950 . S
C658 N653 1.307 . S
C658 C657 1.370 . S
C658 H676 0.948 . S
Zn659 N653 2.020 . S
Zn659 O668 2.039 . S
Zn659 O674 2.034 . S
Zn659 O678 2.025 . S
Zn659 O680 2.024 . S
C660 O679 1.246 . S
C660 O680 1.249 . S
N661 C662 1.307 1_455 S
N661 C663 1.333 . S
N661 Zn667 2.020 . S
C662 N661 1.307 1_655 S
C662 C666 1.370 . S
C662 H673 0.948 . S
C663 N661 1.333 . S
C663 C664 1.379 . S
C663 H671 0.952 . S
C664 C663 1.379 . S
C664 C665 1.390 1_455 S
C664 H684 0.949 . S
C665 C664 1.390 1_655 S
C665 C666 1.357 . S
C666 C662 1.370 . S
C666 C665 1.357 . S
C666 H685 0.950 . S
Zn667 N661 2.020 . S
Zn667 O670 2.025 . S
Zn667 O675 2.024 1_455 S
Zn667 O677 2.039 . S
Zn667 O679 2.034 . S
O668 C652 1.251 . S
O668 Zn659 2.039 . S
C669 O674 1.246 1_655 S
C669 O675 1.249 . S
O670 C652 1.254 . S
O670 Zn667 2.025 . S
H671 C663 0.952 . S
H672 C654 0.952 . S
H673 C662 0.948 . S
O674 Zn659 2.034 . S
O674 C669 1.246 1_455 S
O675 Zn667 2.024 1_655 S
O675 C669 1.249 . S
H676 C658 0.948 . S
O677 Zn667 2.039 . S
O677 C681 1.251 . S
O678 Zn659 2.025 . S
O678 C681 1.254 . S
O679 C660 1.246 . S
O679 Zn667 2.034 . S
O680 Zn659 2.024 . S
O680 C660 1.249 . S
C681 O677 1.251 . S
C681 O678 1.254 . S
H682 C655 0.949 . S
H683 C657 0.950 . S
H684 C664 0.949 . S
H685 C666 0.950 . S
C686 O702 1.251 . S
C686 O704 1.254 . S
N687 C688 1.333 . S
N687 C692 1.307 . S
N687 Zn693 2.020 . S
C688 N687 1.333 . S
C688 C689 1.379 . S
C688 H706 0.952 . S
C689 C688 1.379 . S
C689 C690 1.390 . S
C689 H716 0.949 . S
C690 C689 1.390 . S
C690 C691 1.357 . S
C691 C690 1.357 . S
C691 C692 1.370 . S
C691 H717 0.950 . S
C692 N687 1.307 . S
C692 C691 1.370 . S
C692 H710 0.948 . S
Zn693 N687 2.020 . S
Zn693 O702 2.039 . S
Zn693 O708 2.034 . S
Zn693 O712 2.025 . S
Zn693 O714 2.024 . S
C694 O713 1.246 . S
C694 O714 1.249 . S
N695 C696 1.307 . S
N695 C697 1.333 . S
N695 Zn701 2.020 . S
C696 N695 1.307 . S
C696 C700 1.370 . S
C696 H707 0.948 . S
C697 N695 1.333 . S
C697 C698 1.379 . S
C697 H705 0.952 . S
C698 C697 1.379 . S
C698 C699 1.390 . S
C698 H718 0.949 . S
C699 C698 1.390 . S
C699 C700 1.357 . S
C700 C696 1.370 . S
C700 C699 1.357 . S
C700 H719 0.950 . S
Zn701 N695 2.020 . S
Zn701 O704 2.025 . S
Zn701 O709 2.024 . S
Zn701 O711 2.039 . S
Zn701 O713 2.034 . S
O702 C686 1.251 . S
O702 Zn693 2.039 . S
C703 O708 1.246 . S
C703 O709 1.249 . S
O704 C686 1.254 . S
O704 Zn701 2.025 . S
H705 C697 0.952 . S
H706 C688 0.952 . S
H707 C696 0.948 . S
O708 Zn693 2.034 . S
O708 C703 1.246 . S
O709 Zn701 2.024 . S
O709 C703 1.249 . S
H710 C692 0.948 . S
O711 Zn701 2.039 . S
O711 C715 1.251 . S
O712 Zn693 2.025 . S
O712 C715 1.254 . S
O713 C694 1.246 . S
O713 Zn701 2.034 . S
O714 Zn693 2.024 . S
O714 C694 1.249 . S
C715 O711 1.251 . S
C715 O712 1.254 . S
H716 C689 0.949 . S
H717 C691 0.950 . S
H718 C698 0.949 . S
H719 C700 0.950 . S
C720 O736 1.251 . S
C720 O738 1.254 . S
N721 C722 1.333 . S
N721 C726 1.307 . S
N721 Zn727 2.020 . S
C722 N721 1.333 . S
C722 C723 1.379 . S
C722 H740 0.952 . S
C723 C722 1.379 . S
C723 C724 1.390 . S
C723 H750 0.949 . S
C724 C723 1.390 . S
C724 C725 1.357 . S
C725 C724 1.357 . S
C725 C726 1.370 . S
C725 H751 0.950 . S
C726 N721 1.307 . S
C726 C725 1.370 . S
C726 H744 0.948 . S
Zn727 N721 2.020 . S
Zn727 O736 2.039 . S
Zn727 O742 2.034 . S
Zn727 O746 2.025 . S
Zn727 O748 2.024 . S
C728 O747 1.246 . S
C728 O748 1.249 . S
N729 C730 1.307 . S
N729 C731 1.333 . S
N729 Zn735 2.020 . S
C730 N729 1.307 . S
C730 C734 1.370 . S
C730 H741 0.948 . S
C731 N729 1.333 . S
C731 C732 1.379 . S
C731 H739 0.952 . S
C732 C731 1.379 . S
C732 C733 1.390 . S
C732 H752 0.949 . S
C733 C732 1.390 . S
C733 C734 1.357 . S
C734 C730 1.370 . S
C734 C733 1.357 . S
C734 H753 0.950 . S
Zn735 N729 2.020 . S
Zn735 O738 2.025 . S
Zn735 O743 2.024 . S
Zn735 O745 2.039 . S
Zn735 O747 2.034 . S
O736 C720 1.251 . S
O736 Zn727 2.039 . S
C737 O742 1.246 . S
C737 O743 1.249 . S
O738 C720 1.254 . S
O738 Zn735 2.025 . S
H739 C731 0.952 . S
H740 C722 0.952 . S
H741 C730 0.948 . S
O742 Zn727 2.034 . S
O742 C737 1.246 . S
O743 Zn735 2.024 . S
O743 C737 1.249 . S
H744 C726 0.948 . S
O745 Zn735 2.039 . S
O745 C749 1.251 . S
O746 Zn727 2.025 . S
O746 C749 1.254 . S
O747 C728 1.246 . S
O747 Zn735 2.034 . S
O748 Zn727 2.024 . S
O748 C728 1.249 . S
C749 O745 1.251 . S
C749 O746 1.254 . S
H750 C723 0.949 . S
H751 C725 0.950 . S
H752 C732 0.949 . S
H753 C734 0.950 . S
C754 O770 1.251 . S
C754 O772 1.254 . S
N755 C756 1.333 . S
N755 C760 1.307 . S
N755 Zn761 2.020 . S
C756 N755 1.333 . S
C756 C757 1.379 . S
C756 H774 0.952 . S
C757 C756 1.379 . S
C757 C758 1.390 . S
C757 H784 0.949 . S
C758 C757 1.390 . S
C758 C759 1.357 . S
C759 C758 1.357 . S
C759 C760 1.370 . S
C759 H785 0.950 . S
C760 N755 1.307 . S
C760 C759 1.370 . S
C760 H778 0.948 . S
Zn761 N755 2.020 . S
Zn761 O770 2.039 . S
Zn761 O776 2.034 . S
Zn761 O780 2.025 . S
Zn761 O782 2.024 . S
C762 O781 1.246 . S
C762 O782 1.249 . S
N763 C764 1.307 . S
N763 C765 1.333 . S
N763 Zn769 2.020 . S
C764 N763 1.307 . S
C764 C768 1.370 . S
C764 H775 0.948 . S
C765 N763 1.333 . S
C765 C766 1.379 . S
C765 H773 0.952 . S
C766 C765 1.379 . S
C766 C767 1.390 . S
C766 H786 0.949 . S
C767 C766 1.390 . S
C767 C768 1.357 . S
C768 C764 1.370 . S
C768 C767 1.357 . S
C768 H787 0.950 . S
Zn769 N763 2.020 . S
Zn769 O772 2.025 . S
Zn769 O777 2.024 . S
Zn769 O779 2.039 . S
Zn769 O781 2.034 . S
O770 C754 1.251 . S
O770 Zn761 2.039 . S
C771 O776 1.246 . S
C771 O777 1.249 . S
O772 C754 1.254 . S
O772 Zn769 2.025 . S
H773 C765 0.952 . S
H774 C756 0.952 . S
H775 C764 0.948 . S
O776 Zn761 2.034 . S
O776 C771 1.246 . S
O777 Zn769 2.024 . S
O777 C771 1.249 . S
H778 C760 0.948 . S
O779 Zn769 2.039 . S
O779 C783 1.251 . S
O780 Zn761 2.025 . S
O780 C783 1.254 . S
O781 C762 1.246 . S
O781 Zn769 2.034 . S
O782 Zn761 2.024 . S
O782 C762 1.249 . S
C783 O779 1.251 . S
C783 O780 1.254 . S
H784 C757 0.949 . S
H785 C759 0.950 . S
H786 C766 0.949 . S
H787 C768 0.950 . S
C788 O804 1.251 . S
C788 O806 1.254 . S
N789 C790 1.333 . S
N789 C794 1.307 . S
N789 Zn795 2.020 . S
C790 N789 1.333 . S
C790 C791 1.379 . S
C790 H808 0.952 . S
C791 C790 1.379 . S
C791 C792 1.390 . S
C791 H818 0.949 . S
C792 C791 1.390 . S
C792 C793 1.357 . S
C793 C792 1.357 . S
C793 C794 1.370 . S
C793 H819 0.950 . S
C794 N789 1.307 . S
C794 C793 1.370 . S
C794 H812 0.948 . S
Zn795 N789 2.020 . S
Zn795 O804 2.039 . S
Zn795 O810 2.034 . S
Zn795 O814 2.025 . S
Zn795 O816 2.024 . S
C796 O815 1.246 . S
C796 O816 1.249 . S
N797 C798 1.307 . S
N797 C799 1.333 . S
N797 Zn803 2.020 . S
C798 N797 1.307 . S
C798 C802 1.370 . S
C798 H809 0.948 . S
C799 N797 1.333 . S
C799 C800 1.379 . S
C799 H807 0.952 . S
C800 C799 1.379 . S
C800 C801 1.390 . S
C800 H820 0.949 . S
C801 C800 1.390 . S
C801 C802 1.357 . S
C802 C798 1.370 . S
C802 C801 1.357 . S
C802 H821 0.950 . S
Zn803 N797 2.020 . S
Zn803 O806 2.025 . S
Zn803 O811 2.024 . S
Zn803 O813 2.039 . S
Zn803 O815 2.034 . S
O804 C788 1.251 . S
O804 Zn795 2.039 . S
C805 O810 1.246 . S
C805 O811 1.249 . S
O806 C788 1.254 . S
O806 Zn803 2.025 . S
H807 C799 0.952 . S
H808 C790 0.952 . S
H809 C798 0.948 . S
O810 Zn795 2.034 . S
O810 C805 1.246 . S
O811 Zn803 2.024 . S
O811 C805 1.249 . S
H812 C794 0.948 . S
O813 Zn803 2.039 . S
O813 C817 1.251 . S
O814 Zn795 2.025 . S
O814 C817 1.254 . S
O815 C796 1.246 . S
O815 Zn803 2.034 . S
O816 Zn795 2.024 . S
O816 C796 1.249 . S
C817 O813 1.251 . S
C817 O814 1.254 . S
H818 C791 0.949 . S
H819 C793 0.950 . S
H820 C800 0.949 . S
H821 C802 0.950 . S
C822 O838 1.251 . S
C822 O840 1.254 . S
N823 C824 1.333 . S
N823 C828 1.307 . S
N823 Zn829 2.020 . S
C824 N823 1.333 . S
C824 C825 1.379 . S
C824 H842 0.952 . S
C825 C824 1.379 . S
C825 C826 1.390 . S
C825 H852 0.949 . S
C826 C825 1.390 . S
C826 C827 1.357 . S
C827 C826 1.357 . S
C827 C828 1.370 . S
C827 H853 0.950 . S
C828 N823 1.307 . S
C828 C827 1.370 . S
C828 H846 0.948 . S
Zn829 N823 2.020 . S
Zn829 O838 2.039 . S
Zn829 O844 2.034 . S
Zn829 O848 2.025 1_554 S
Zn829 O850 2.024 . S
C830 O849 1.246 . S
C830 O850 1.249 1_655 S
N831 C832 1.307 . S
N831 C833 1.333 1_554 S
N831 Zn837 2.020 . S
C832 N831 1.307 . S
C832 C836 1.370 . S
C832 H843 0.948 . S
C833 N831 1.333 1_556 S
C833 C834 1.379 . S
C833 H841 0.952 . S
C834 C833 1.379 . S
C834 C835 1.390 . S
C834 H854 0.948 1_455 S
C835 C834 1.390 . S
C835 C836 1.357 1_556 S
C836 C832 1.370 . S
C836 C835 1.357 1_554 S
C836 H855 0.950 . S
Zn837 N831 2.020 . S
Zn837 O840 2.025 . S
Zn837 O845 2.024 . S
Zn837 O847 2.039 1_554 S
Zn837 O849 2.034 1_455 S
O838 C822 1.251 . S
O838 Zn829 2.039 . S
C839 O844 1.246 . S
C839 O845 1.249 . S
O840 C822 1.254 . S
O840 Zn837 2.025 . S
H841 C833 0.952 . S
H842 C824 0.952 . S
H843 C832 0.948 . S
O844 Zn829 2.034 . S
O844 C839 1.246 . S
O845 Zn837 2.024 . S
O845 C839 1.249 . S
H846 C828 0.948 . S
O847 Zn837 2.039 1_556 S
O847 C851 1.251 . S
O848 Zn829 2.025 1_556 S
O848 C851 1.254 . S
O849 C830 1.246 . S
O849 Zn837 2.034 1_655 S
O850 Zn829 2.024 . S
O850 C830 1.249 1_455 S
C851 O847 1.251 . S
C851 O848 1.254 . S
H852 C825 0.949 . S
H853 C827 0.950 . S
H854 C834 0.948 1_655 S
H855 C836 0.950 . S
C856 C857 1.387 . S
C856 H860 0.950 . S
C856 C865 1.390 . S
C857 C856 1.387 . S
C857 C859 1.387 . S
H858 C865 0.950 . S
C859 C857 1.387 . S
C859 C861 1.390 . S
C859 H863 0.950 . S
H860 C856 0.950 . S
C861 C859 1.390 . S
C861 C862 1.387 . S
C861 H864 0.915 1_455 S
C862 C861 1.387 . S
C862 C865 1.387 . S
H863 C859 0.950 . S
H864 C861 0.915 1_655 S
C865 C856 1.390 . S
C865 H858 0.950 . S
C865 C862 1.387 . S
C866 C867 1.387 . S
C866 H870 0.950 . S
C866 C875 1.390 . S
C867 C866 1.387 . S
C867 C869 1.387 . S
H868 C875 0.950 . S
C869 C867 1.387 . S
C869 C871 1.390 . S
C869 H873 0.950 . S
H870 C866 0.950 . S
C871 C869 1.390 . S
C871 C872 1.387 . S
C871 H874 0.950 . S
C872 C871 1.387 . S
C872 C875 1.387 . S
H873 C869 0.950 . S
H874 C871 0.950 . S
C875 C866 1.390 . S
C875 H868 0.950 . S
C875 C872 1.387 . S
C876 C877 1.387 . S
C876 H880 0.950 . S
C876 C885 1.390 . S
C877 C876 1.387 . S
C877 C879 1.387 . S
H878 C885 0.950 . S
C879 C877 1.387 . S
C879 C881 1.390 . S
C879 H883 0.950 . S
H880 C876 0.950 . S
C881 C879 1.390 . S
C881 C882 1.387 . S
C881 H884 0.950 . S
C882 C881 1.387 . S
C882 C885 1.387 . S
H883 C879 0.950 . S
H884 C881 0.950 . S
C885 C876 1.390 . S
C885 H878 0.950 . S
C885 C882 1.387 . S
C886 C887 1.387 . S
C886 H890 0.950 . S
C886 C895 1.390 . S
C887 C886 1.387 . S
C887 C889 1.387 . S
H888 C895 0.950 . S
C889 C887 1.387 . S
C889 C891 1.390 . S
C889 H893 0.950 . S
H890 C886 0.950 . S
C891 C889 1.390 . S
C891 C892 1.387 . S
C891 H894 0.950 . S
C892 C891 1.387 . S
C892 C895 1.387 . S
H893 C889 0.950 . S
H894 C891 0.950 . S
C895 C886 1.390 . S
C895 H888 0.950 . S
C895 C892 1.387 . S
C896 C897 1.387 . S
C896 H900 0.950 . S
C896 C905 1.390 . S
C897 C896 1.387 . S
C897 C899 1.387 . S
H898 C905 0.950 . S
C899 C897 1.387 . S
C899 C901 1.390 . S
C899 H903 0.950 . S
H900 C896 0.950 . S
C901 C899 1.390 . S
C901 C902 1.387 . S
C901 H904 0.950 . S
C902 C901 1.387 . S
C902 C905 1.387 . S
H903 C899 0.950 . S
H904 C901 0.950 . S
C905 C896 1.390 . S
C905 H898 0.950 . S
C905 C902 1.387 . S
C906 C907 1.387 . S
C906 H910 0.950 . S
C906 C915 1.390 . S
C907 C906 1.387 . S
C907 C909 1.387 . S
H908 C915 0.950 . S
C909 C907 1.387 . S
C909 C911 1.390 . S
C909 H913 0.950 . S
H910 C906 0.950 . S
C911 C909 1.390 . S
C911 C912 1.387 . S
C911 H914 0.950 . S
C912 C911 1.387 . S
C912 C915 1.387 . S
H913 C909 0.950 . S
H914 C911 0.950 . S
C915 C906 1.390 . S
C915 H908 0.950 . S
C915 C912 1.387 . S
C916 C917 1.387 . S
C916 H920 0.950 . S
C916 C925 1.390 . S
C917 C916 1.387 . S
C917 C919 1.387 . S
H918 C925 0.950 . S
C919 C917 1.387 . S
C919 C921 1.390 . S
C919 H923 0.950 . S
H920 C916 0.950 . S
C921 C919 1.390 . S
C921 C922 1.387 . S
C921 H924 0.950 . S
C922 C921 1.387 . S
C922 C925 1.387 . S
H923 C919 0.950 . S
H924 C921 0.950 . S
C925 C916 1.390 . S
C925 H918 0.950 . S
C925 C922 1.387 . S
C926 C927 1.387 . S
C926 H930 0.950 . S
C926 C935 1.390 . S
C927 C926 1.387 . S
C927 C929 1.387 . S
H928 C935 0.950 . S
C929 C927 1.387 . S
C929 C931 1.390 . S
C929 H933 0.950 . S
H930 C926 0.950 . S
C931 C929 1.390 . S
C931 C932 1.387 . S
C931 H934 0.950 . S
C932 C931 1.387 . S
C932 C935 1.387 . S
H933 C929 0.950 . S
H934 C931 0.950 . S
C935 C926 1.390 . S
C935 H928 0.950 . S
C935 C932 1.387 . S
C936 C937 1.387 . S
C936 H940 0.950 . S
C936 C945 1.390 . S
C937 C936 1.387 . S
C937 C939 1.387 1_545 S
H938 C945 0.950 . S
C939 C937 1.387 1_565 S
C939 C941 1.390 . S
C939 H943 0.950 . S
H940 C936 0.950 . S
C941 C939 1.390 . S
C941 C942 1.387 . S
C941 H944 0.950 . S
C942 C941 1.387 . S
C942 C945 1.387 1_565 S
H943 C939 0.950 . S
H944 C941 0.950 . S
C945 C936 1.390 . S
C945 H938 0.950 . S
C945 C942 1.387 1_545 S
C946 C947 1.387 . S
C946 H950 0.950 . S
C946 C955 1.390 . S
C947 C946 1.387 . S
C947 C949 1.387 . S
H948 C955 0.950 . S
C949 C947 1.387 . S
C949 C951 1.390 . S
C949 H953 0.950 . S
H950 C946 0.950 . S
C951 C949 1.390 . S
C951 C952 1.387 . S
C951 H954 0.950 . S
C952 C951 1.387 . S
C952 C955 1.387 . S
H953 C949 0.950 . S
H954 C951 0.950 . S
C955 C946 1.390 . S
C955 H948 0.950 . S
C955 C952 1.387 . S
C956 C957 1.387 . S
C956 H960 0.950 . S
C956 C965 1.390 . S
C957 C956 1.387 . S
C957 C959 1.387 . S
H958 C965 0.950 . S
C959 C957 1.387 . S
C959 C961 1.390 . S
C959 H963 0.950 1_545 S
H960 C956 0.950 . S
C961 C959 1.390 . S
C961 C962 1.387 . S
C961 H964 0.950 1_545 S
C962 C961 1.387 . S
C962 C965 1.387 . S
H963 C959 0.950 1_565 S
H964 C961 0.950 1_565 S
C965 C956 1.390 . S
C965 H958 0.950 . S
C965 C962 1.387 . S
C966 C967 1.387 . S
C966 H970 0.950 . S
C966 C975 1.390 . S
C967 C966 1.387 . S
C967 C969 1.387 . S
H968 C975 0.950 . S
C969 C967 1.387 . S
C969 C971 1.390 . S
C969 H973 0.950 . S
H970 C966 0.950 . S
C971 C969 1.390 . S
C971 C972 1.387 . S
C971 H974 0.950 . S
C972 C971 1.387 . S
C972 C975 1.387 . S
H973 C969 0.950 . S
H974 C971 0.950 . S
C975 C966 1.390 . S
C975 H968 0.950 . S
C975 C972 1.387 . S
C976 C977 1.387 . S
C976 H980 0.950 . S
C976 C985 1.390 . S
C977 C976 1.387 . S
C977 C979 1.387 . S
H978 C985 0.950 . S
C979 C977 1.387 . S
C979 C981 1.390 . S
C979 H983 0.950 1_545 S
H980 C976 0.950 . S
C981 C979 1.390 . S
C981 C982 1.387 . S
C981 H984 0.950 . S
C982 C981 1.387 . S
C982 C985 1.387 . S
H983 C979 0.950 1_565 S
H984 C981 0.950 . S
C985 C976 1.390 . S
C985 H978 0.950 . S
C985 C982 1.387 . S
C986 C987 1.387 . S
C986 H990 0.950 . S
C986 C995 1.390 . S
C987 C986 1.387 . S
C987 C989 1.387 . S
H988 C995 0.950 . S
C989 C987 1.387 . S
C989 C991 1.390 . S
C989 H993 0.950 . S
H990 C986 0.950 . S
C991 C989 1.390 . S
C991 C992 1.387 . S
C991 H994 0.950 . S
C992 C991 1.387 . S
C992 C995 1.387 . S
H993 C989 0.950 . S
H994 C991 0.950 . S
C995 C986 1.390 . S
C995 H988 0.950 . S
C995 C992 1.387 . S
C996 C997 1.387 . S
C996 H1000 0.950 . S
C996 C1005 1.390 . S
C997 C996 1.387 . S
C997 C999 1.387 1_565 S
H998 C1005 0.950 . S
C999 C997 1.387 1_545 S
C999 C1001 1.390 . S
C999 H1003 0.950 . S
H1000 C996 0.950 . S
C1001 C999 1.390 . S
C1001 C1002 1.387 1_545 S
C1001 H1004 0.950 . S
C1002 C1001 1.387 1_565 S
C1002 C1005 1.387 . S
H1003 C999 0.950 . S
H1004 C1001 0.950 . S
C1005 C996 1.390 . S
C1005 H998 0.950 . S
C1005 C1002 1.387 . S
C1006 C1007 1.387 . S
C1006 H1010 0.950 . S
C1006 C1015 1.390 . S
C1007 C1006 1.387 . S
C1007 C1009 1.387 . S
H1008 C1015 0.950 . S
C1009 C1007 1.387 . S
C1009 C1011 1.390 . S
C1009 H1013 0.950 . S
H1010 C1006 0.950 . S
C1011 C1009 1.390 . S
C1011 C1012 1.387 . S
C1011 H1014 0.950 . S
C1012 C1011 1.387 . S
C1012 C1015 1.387 . S
H1013 C1009 0.950 . S
H1014 C1011 0.950 . S
C1015 C1006 1.390 . S
C1015 H1008 0.950 . S
C1015 C1012 1.387 . S
C1016 C1017 1.387 . S
C1016 H1020 0.950 . S
C1016 C1025 1.390 . S
C1017 C1016 1.387 . S
C1017 C1019 1.397 . S
H1018 C1025 0.950 . S
C1019 C1017 1.397 . S
C1019 C1021 1.384 1_554 S
C1019 H1023 0.946 1_554 S
H1020 C1016 0.950 . S
C1021 C1019 1.384 1_556 S
C1021 C1022 1.387 . S
C1021 H1024 0.950 . S
C1022 C1021 1.387 . S
C1022 C1025 1.387 1_556 S
H1023 C1019 0.946 1_556 S
H1024 C1021 0.950 . S
C1025 C1016 1.390 . S
C1025 H1018 0.950 . S
C1025 C1022 1.387 1_554 S
C1026 C1027 1.387 . S
C1026 H1030 0.950 . S
C1026 C1035 1.390 . S
C1027 C1026 1.387 . S
C1027 C1029 1.387 . S
H1028 C1035 0.950 . S
C1029 C1027 1.387 . S
C1029 C1031 1.390 . S
C1029 H1033 0.950 . S
H1030 C1026 0.950 . S
C1031 C1029 1.390 . S
C1031 C1032 1.387 . S
C1031 H1034 0.950 . S
C1032 C1031 1.387 . S
C1032 C1035 1.387 . S
H1033 C1029 0.950 . S
H1034 C1031 0.950 . S
C1035 C1026 1.390 . S
C1035 H1028 0.950 . S
C1035 C1032 1.387 . S
C1036 C1037 1.387 . S
C1036 H1040 0.950 . S
C1036 C1045 1.390 . S
C1037 C1036 1.387 . S
C1037 C1039 1.387 . S
H1038 C1045 0.950 . S
C1039 C1037 1.387 . S
C1039 C1041 1.390 . S
C1039 H1043 0.950 . S
H1040 C1036 0.950 . S
C1041 C1039 1.390 . S
C1041 C1042 1.387 . S
C1041 H1044 0.950 . S
C1042 C1041 1.387 . S
C1042 C1045 1.387 . S
H1043 C1039 0.950 . S
H1044 C1041 0.950 . S
C1045 C1036 1.390 . S
C1045 H1038 0.950 . S
C1045 C1042 1.387 . S
C1046 C1047 1.387 . S
C1046 H1050 0.950 . S
C1046 C1055 1.390 . S
C1047 C1046 1.387 . S
C1047 C1049 1.387 . S
H1048 C1055 0.950 . S
C1049 C1047 1.387 . S
C1049 C1051 1.390 . S
C1049 H1053 0.950 . S
H1050 C1046 0.950 . S
C1051 C1049 1.390 . S
C1051 C1052 1.387 . S
C1051 H1054 0.950 . S
C1052 C1051 1.387 . S
C1052 C1055 1.387 . S
H1053 C1049 0.950 . S
H1054 C1051 0.950 . S
C1055 C1046 1.390 . S
C1055 H1048 0.950 . S
C1055 C1052 1.387 . S
C1056 C1057 1.387 . S
C1056 H1060 0.950 . S
C1056 C1065 1.390 . S
C1057 C1056 1.387 . S
C1057 C1059 1.387 . S
H1058 C1065 0.950 . S
C1059 C1057 1.387 . S
C1059 C1061 1.390 . S
C1059 H1063 0.950 . S
H1060 C1056 0.950 . S
C1061 C1059 1.390 . S
C1061 C1062 1.387 . S
C1061 H1064 0.950 . S
C1062 C1061 1.387 . S
C1062 C1065 1.387 . S
H1063 C1059 0.950 . S
H1064 C1061 0.950 . S
C1065 C1056 1.390 . S
C1065 H1058 0.950 . S
C1065 C1062 1.387 . S
C1066 C1067 1.387 . S
C1066 H1070 0.950 . S
C1066 C1075 1.390 . S
C1067 C1066 1.387 . S
C1067 C1069 1.387 . S
H1068 C1075 0.950 . S
C1069 C1067 1.387 . S
C1069 C1071 1.390 . S
C1069 H1073 0.950 . S
H1070 C1066 0.950 . S
C1071 C1069 1.390 . S
C1071 C1072 1.387 . S
C1071 H1074 0.950 . S
C1072 C1071 1.387 . S
C1072 C1075 1.387 . S
H1073 C1069 0.950 . S
H1074 C1071 0.950 . S
C1075 C1066 1.390 . S
C1075 H1068 0.950 . S
C1075 C1072 1.387 . S
C1076 C1077 1.387 . S
C1076 H1080 0.950 . S
C1076 C1085 1.390 . S
C1077 C1076 1.387 . S
C1077 C1079 1.387 . S
H1078 C1085 0.950 . S
C1079 C1077 1.387 . S
C1079 C1081 1.390 . S
C1079 H1083 0.950 . S
H1080 C1076 0.950 . S
C1081 C1079 1.390 . S
C1081 C1082 1.387 . S
C1081 H1084 0.950 . S
C1082 C1081 1.387 . S
C1082 C1085 1.387 . S
H1083 C1079 0.950 . S
H1084 C1081 0.950 . S
C1085 C1076 1.390 . S
C1085 H1078 0.950 . S
C1085 C1082 1.387 . S
C1086 C1087 1.387 . S
C1086 H1090 0.950 . S
C1086 C1095 1.390 . S
C1087 C1086 1.387 . S
C1087 C1089 1.387 . S
H1088 C1095 0.950 . S
C1089 C1087 1.387 . S
C1089 C1091 1.390 . S
C1089 H1093 0.950 . S
H1090 C1086 0.950 . S
C1091 C1089 1.390 . S
C1091 C1092 1.387 . S
C1091 H1094 0.950 . S
C1092 C1091 1.387 . S
C1092 C1095 1.387 . S
H1093 C1089 0.950 . S
H1094 C1091 0.950 . S
C1095 C1086 1.390 . S
C1095 H1088 0.950 . S
C1095 C1092 1.387 . S
C1096 C1097 1.387 . S
C1096 H1100 0.945 1_455 S
C1096 C1105 1.390 . S
C1097 C1096 1.387 . S
C1097 C1099 1.387 . S
H1098 C1105 0.950 . S
C1099 C1097 1.387 . S
C1099 C1101 1.390 . S
C1099 H1103 0.950 . S
H1100 C1096 0.945 1_655 S
C1101 C1099 1.390 . S
C1101 C1102 1.387 . S
C1101 H1104 0.950 . S
C1102 C1101 1.387 . S
C1102 C1105 1.387 . S
H1103 C1099 0.950 . S
H1104 C1101 0.950 . S
C1105 C1096 1.390 . S
C1105 H1098 0.950 . S
C1105 C1102 1.387 . S
C1106 C1107 1.387 . S
C1106 H1110 0.950 . S
C1106 C1115 1.390 . S
C1107 C1106 1.387 . S
C1107 C1109 1.387 . S
H1108 C1115 0.950 . S
C1109 C1107 1.387 . S
C1109 C1111 1.390 . S
C1109 H1113 0.950 . S
H1110 C1106 0.950 . S
C1111 C1109 1.390 . S
C1111 C1112 1.387 . S
C1111 H1114 0.950 . S
C1112 C1111 1.387 . S
C1112 C1115 1.387 . S
H1113 C1109 0.950 . S
H1114 C1111 0.950 . S
C1115 C1106 1.390 . S
C1115 H1108 0.950 . S
C1115 C1112 1.387 . S
C1116 C1117 1.387 . S
C1116 H1120 0.950 . S
C1116 C1125 1.390 . S
C1117 C1116 1.387 . S
C1117 C1119 1.387 . S
H1118 C1125 0.950 . S
C1119 C1117 1.387 . S
C1119 C1121 1.390 . S
C1119 H1123 0.950 . S
H1120 C1116 0.950 . S
C1121 C1119 1.390 . S
C1121 C1122 1.387 . S
C1121 H1124 0.950 . S
C1122 C1121 1.387 . S
C1122 C1125 1.387 . S
H1123 C1119 0.950 . S
H1124 C1121 0.950 . S
C1125 C1116 1.390 . S
C1125 H1118 0.950 . S
C1125 C1122 1.387 . S
C1126 C1127 1.387 . S
C1126 H1130 0.950 . S
C1126 C1135 1.390 . S
C1127 C1126 1.387 . S
C1127 C1129 1.387 . S
H1128 C1135 0.950 . S
C1129 C1127 1.387 . S
C1129 C1131 1.390 . S
C1129 H1133 0.950 . S
H1130 C1126 0.950 . S
C1131 C1129 1.390 . S
C1131 C1132 1.387 . S
C1131 H1134 0.950 . S
C1132 C1131 1.387 . S
C1132 C1135 1.387 . S
H1133 C1129 0.950 . S
H1134 C1131 0.950 . S
C1135 C1126 1.390 . S
C1135 H1128 0.950 . S
C1135 C1132 1.387 . S
C1136 C1137 1.387 . S
C1136 H1140 0.950 . S
C1136 C1145 1.390 . S
C1137 C1136 1.387 . S
C1137 C1139 1.387 . S
H1138 C1145 0.950 . S
C1139 C1137 1.387 . S
C1139 C1141 1.390 . S
C1139 H1143 0.950 . S
H1140 C1136 0.950 . S
C1141 C1139 1.390 . S
C1141 C1142 1.387 . S
C1141 H1144 0.950 . S
C1142 C1141 1.387 . S
C1142 C1145 1.387 . S
H1143 C1139 0.950 . S
H1144 C1141 0.950 . S
C1145 C1136 1.390 . S
C1145 H1138 0.950 . S
C1145 C1142 1.387 . S
C1146 C1147 1.387 . S
C1146 H1150 0.950 . S
C1146 C1155 1.390 . S
C1147 C1146 1.387 . S
C1147 C1149 1.387 . S
H1148 C1155 0.950 . S
C1149 C1147 1.387 . S
C1149 C1151 1.390 . S
C1149 H1153 0.950 . S
H1150 C1146 0.950 . S
C1151 C1149 1.390 . S
C1151 C1152 1.387 . S
C1151 H1154 0.950 . S
C1152 C1151 1.387 . S
C1152 C1155 1.387 . S
H1153 C1149 0.950 . S
H1154 C1151 0.950 . S
C1155 C1146 1.390 . S
C1155 H1148 0.950 . S
C1155 C1152 1.387 . S
C1156 C1157 1.387 . S
C1156 H1160 0.950 . S
C1156 C1165 1.390 . S
C1157 C1156 1.387 . S
C1157 C1159 1.387 . S
H1158 C1165 0.950 . S
C1159 C1157 1.387 . S
C1159 C1161 1.390 . S
C1159 H1163 0.950 . S
H1160 C1156 0.950 . S
C1161 C1159 1.390 . S
C1161 C1162 1.387 . S
C1161 H1164 0.950 . S
C1162 C1161 1.387 . S
C1162 C1165 1.387 . S
H1163 C1159 0.950 . S
H1164 C1161 0.950 . S
C1165 C1156 1.390 . S
C1165 H1158 0.950 . S
C1165 C1162 1.387 . S
C1166 C1167 1.387 . S
C1166 H1170 0.950 . S
C1166 C1175 1.390 . S
C1167 C1166 1.387 . S
C1167 C1169 1.387 . S
H1168 C1175 0.950 . S
C1169 C1167 1.387 . S
C1169 C1171 1.390 . S
C1169 H1173 0.950 . S
H1170 C1166 0.950 . S
C1171 C1169 1.390 . S
C1171 C1172 1.387 . S
C1171 H1174 0.950 . S
C1172 C1171 1.387 . S
C1172 C1175 1.387 . S
H1173 C1169 0.950 . S
H1174 C1171 0.950 . S
C1175 C1166 1.390 . S
C1175 H1168 0.950 . S
C1175 C1172 1.387 . S
C1176 C1177 1.387 1_565 S
C1176 H1180 0.950 . S
C1176 C1185 1.390 1_565 S
C1177 C1176 1.387 1_545 S
C1177 C1179 1.387 . S
H1178 C1185 0.950 1_565 S
C1179 C1177 1.387 . S
C1179 C1181 1.390 1_655 S
C1179 H1183 0.950 . S
H1180 C1176 0.950 . S
C1181 C1179 1.390 1_455 S
C1181 C1182 1.387 1_455 S
C1181 H1184 0.950 . S
C1182 C1181 1.387 1_655 S
C1182 C1185 1.387 . S
H1183 C1179 0.950 . S
H1184 C1181 0.950 . S
C1185 C1176 1.390 1_545 S
C1185 H1178 0.950 1_545 S
C1185 C1182 1.387 . S
C1186 C1187 1.387 . S
C1186 H1190 0.950 . S
C1186 C1195 1.390 . S
C1187 C1186 1.387 . S
C1187 C1189 1.387 . S
H1188 C1195 0.950 . S
C1189 C1187 1.387 . S
C1189 C1191 1.390 . S
C1189 H1193 0.950 . S
H1190 C1186 0.950 . S
C1191 C1189 1.390 . S
C1191 C1192 1.387 . S
C1191 H1194 0.950 . S
C1192 C1191 1.387 . S
C1192 C1195 1.387 . S
H1193 C1189 0.950 . S
H1194 C1191 0.950 . S
C1195 C1186 1.390 . S
C1195 H1188 0.950 . S
C1195 C1192 1.387 . S
C1196 C1197 1.387 . S
C1196 H1200 0.950 . S
C1196 C1205 1.390 . S
C1197 C1196 1.387 . S
C1197 C1199 1.387 1_545 S
H1198 C1205 0.950 . S
C1199 C1197 1.387 1_565 S
C1199 C1201 1.390 . S
C1199 H1203 0.950 . S
H1200 C1196 0.950 . S
C1201 C1199 1.390 . S
C1201 C1202 1.387 1_565 S
C1201 H1204 0.950 . S
C1202 C1201 1.387 1_545 S
C1202 C1205 1.387 . S
H1203 C1199 0.950 . S
H1204 C1201 0.950 . S
C1205 C1196 1.390 . S
C1205 H1198 0.950 . S
C1205 C1202 1.387 . S
C1206 C1207 1.387 . S
C1206 H1210 0.950 . S
C1206 C1215 1.390 . S
C1207 C1206 1.387 . S
C1207 C1209 1.387 . S
H1208 C1215 0.950 . S
C1209 C1207 1.387 . S
C1209 C1211 1.390 . S
C1209 H1213 0.950 . S
H1210 C1206 0.950 . S
C1211 C1209 1.390 . S
C1211 C1212 1.387 . S
C1211 H1214 0.950 . S
C1212 C1211 1.387 . S
C1212 C1215 1.387 . S
H1213 C1209 0.950 . S
H1214 C1211 0.950 . S
C1215 C1206 1.390 . S
C1215 H1208 0.950 . S
C1215 C1212 1.387 . S
C1216 C1217 1.387 1_565 S
C1216 H1220 0.950 . S
C1216 C1225 1.390 . S
C1217 C1216 1.387 1_545 S
C1217 C1219 1.387 . S
H1218 C1225 0.950 . S
C1219 C1217 1.387 . S
C1219 C1221 1.390 . S
C1219 H1223 0.950 . S
H1220 C1216 0.950 . S
C1221 C1219 1.390 . S
C1221 C1222 1.387 1_545 S
C1221 H1224 0.950 . S
C1222 C1221 1.387 1_565 S
C1222 C1225 1.387 . S
H1223 C1219 0.950 . S
H1224 C1221 0.950 . S
C1225 C1216 1.390 . S
C1225 H1218 0.950 . S
C1225 C1222 1.387 . S
C1226 C1227 1.387 . S
C1226 H1230 0.950 . S
C1226 C1235 1.390 . S
C1227 C1226 1.387 . S
C1227 C1229 1.387 . S
H1228 C1235 0.950 . S
C1229 C1227 1.387 . S
C1229 C1231 1.390 . S
C1229 H1233 0.950 . S
H1230 C1226 0.950 . S
C1231 C1229 1.390 . S
C1231 C1232 1.387 . S
C1231 H1234 0.950 . S
C1232 C1231 1.387 . S
C1232 C1235 1.387 . S
H1233 C1229 0.950 . S
H1234 C1231 0.950 . S
C1235 C1226 1.390 . S
C1235 H1228 0.950 . S
C1235 C1232 1.387 . S
C1236 C1237 1.387 . S
C1236 H1240 0.950 . S
C1236 C1245 1.390 . S
C1237 C1236 1.387 . S
C1237 C1239 1.387 . S
H1238 C1245 0.950 . S
C1239 C1237 1.387 . S
C1239 C1241 1.390 . S
C1239 H1243 0.950 1_545 S
H1240 C1236 0.950 . S
C1241 C1239 1.390 . S
C1241 C1242 1.387 . S
C1241 H1244 0.950 . S
C1242 C1241 1.387 . S
C1242 C1245 1.387 . S
H1243 C1239 0.950 1_565 S
H1244 C1241 0.950 . S
C1245 C1236 1.390 . S
C1245 H1238 0.950 . S
C1245 C1242 1.387 . S
C1246 C1247 1.387 . S
C1246 H1250 0.950 . S
C1246 C1255 1.390 . S
C1247 C1246 1.387 . S
C1247 C1249 1.387 . S
H1248 C1255 0.950 . S
C1249 C1247 1.387 . S
C1249 C1251 1.390 . S
C1249 H1253 0.950 . S
H1250 C1246 0.950 . S
C1251 C1249 1.390 . S
C1251 C1252 1.387 . S
C1251 H1254 0.950 . S
C1252 C1251 1.387 . S
C1252 C1255 1.387 . S
H1253 C1249 0.950 . S
H1254 C1251 0.950 . S
C1255 C1246 1.390 . S
C1255 H1248 0.950 . S
C1255 C1252 1.387 . S
C1256 C1257 1.387 . S
C1256 H1260 0.950 . S
C1256 C1265 1.390 . S
C1257 C1256 1.387 . S
C1257 C1259 1.387 . S
H1258 C1265 0.950 1_545 S
C1259 C1257 1.387 . S
C1259 C1261 1.390 . S
C1259 H1263 0.950 . S
H1260 C1256 0.950 . S
C1261 C1259 1.390 . S
C1261 C1262 1.387 . S
C1261 H1264 0.950 . S
C1262 C1261 1.387 . S
C1262 C1265 1.387 . S
H1263 C1259 0.950 . S
H1264 C1261 0.950 . S
C1265 C1256 1.390 . S
C1265 H1258 0.950 1_565 S
C1265 C1262 1.387 . S
C1266 C1267 1.387 . S
C1266 H1270 0.950 . S
C1266 C1275 1.390 . S
C1267 C1266 1.387 . S
C1267 C1269 1.387 1_554 S
H1268 C1275 0.950 . S
C1269 C1267 1.387 1_556 S
C1269 C1271 1.390 . S
C1269 H1273 0.950 . S
H1270 C1266 0.950 . S
C1271 C1269 1.390 . S
C1271 C1272 1.387 1_556 S
C1271 H1274 0.950 . S
C1272 C1271 1.387 1_554 S
C1272 C1275 1.387 . S
H1273 C1269 0.950 . S
H1274 C1271 0.950 . S
C1275 C1266 1.390 . S
C1275 H1268 0.950 . S
C1275 C1272 1.387 . S
C1276 C1277 1.387 . S
C1276 H1280 0.950 . S
C1276 C1285 1.390 . S
C1277 C1276 1.387 . S
C1277 C1279 1.387 . S
H1278 C1285 0.950 . S
C1279 C1277 1.387 . S
C1279 C1281 1.390 . S
C1279 H1283 0.950 . S
H1280 C1276 0.950 . S
C1281 C1279 1.390 . S
C1281 C1282 1.387 . S
C1281 H1284 0.950 . S
C1282 C1281 1.387 . S
C1282 C1285 1.387 . S
H1283 C1279 0.950 . S
H1284 C1281 0.950 . S
C1285 C1276 1.390 . S
C1285 H1278 0.950 . S
C1285 C1282 1.387 . S
C1286 C1287 1.387 . S
C1286 H1290 0.950 . S
C1286 C1295 1.390 . S
C1287 C1286 1.387 . S
C1287 C1289 1.387 . S
H1288 C1295 0.950 . S
C1289 C1287 1.387 . S
C1289 C1291 1.390 . S
C1289 H1293 0.950 . S
H1290 C1286 0.950 . S
C1291 C1289 1.390 . S
C1291 C1292 1.387 . S
C1291 H1294 0.950 . S
C1292 C1291 1.387 . S
C1292 C1295 1.387 . S
H1293 C1289 0.950 . S
H1294 C1291 0.950 . S
C1295 C1286 1.390 . S
C1295 H1288 0.950 . S
C1295 C1292 1.387 . S
C1296 C1297 1.387 . S
C1296 H1300 0.950 . S
C1296 C1305 1.390 . S
C1297 C1296 1.387 . S
C1297 C1299 1.387 . S
H1298 C1305 0.950 . S
C1299 C1297 1.387 . S
C1299 C1301 1.390 . S
C1299 H1303 0.950 . S
H1300 C1296 0.950 . S
C1301 C1299 1.390 . S
C1301 C1302 1.387 . S
C1301 H1304 0.950 . S
C1302 C1301 1.387 . S
C1302 C1305 1.387 . S
H1303 C1299 0.950 . S
H1304 C1301 0.950 . S
C1305 C1296 1.390 . S
C1305 H1298 0.950 . S
C1305 C1302 1.387 . S
C1306 C1307 1.387 . S
C1306 H1310 0.950 . S
C1306 C1315 1.390 . S
C1307 C1306 1.387 . S
C1307 C1309 1.387 . S
H1308 C1315 0.950 . S
C1309 C1307 1.387 . S
C1309 C1311 1.390 . S
C1309 H1313 0.950 . S
H1310 C1306 0.950 . S
C1311 C1309 1.390 . S
C1311 C1312 1.387 . S
C1311 H1314 0.950 . S
C1312 C1311 1.387 . S
C1312 C1315 1.387 . S
H1313 C1309 0.950 . S
H1314 C1311 0.950 . S
C1315 C1306 1.390 . S
C1315 H1308 0.950 . S
C1315 C1312 1.387 . S
C1316 C1317 1.387 . S
C1316 H1320 0.950 . S
C1316 C1325 1.390 . S
C1317 C1316 1.387 . S
C1317 C1319 1.387 . S
H1318 C1325 0.950 . S
C1319 C1317 1.387 . S
C1319 C1321 1.390 . S
C1319 H1323 0.950 . S
H1320 C1316 0.950 . S
C1321 C1319 1.390 . S
C1321 C1322 1.387 . S
C1321 H1324 0.950 . S
C1322 C1321 1.387 . S
C1322 C1325 1.387 . S
H1323 C1319 0.950 . S
H1324 C1321 0.950 . S
C1325 C1316 1.390 . S
C1325 H1318 0.950 . S
C1325 C1322 1.387 . S
C1326 C1327 1.387 . S
C1326 H1330 0.950 . S
C1326 C1335 1.390 . S
C1327 C1326 1.387 . S
C1327 C1329 1.387 . S
H1328 C1335 0.950 . S
C1329 C1327 1.387 . S
C1329 C1331 1.390 . S
C1329 H1333 0.950 . S
H1330 C1326 0.950 . S
C1331 C1329 1.390 . S
C1331 C1332 1.387 . S
C1331 H1334 0.950 . S
C1332 C1331 1.387 . S
C1332 C1335 1.387 . S
H1333 C1329 0.950 . S
H1334 C1331 0.950 . S
C1335 C1326 1.390 . S
C1335 H1328 0.950 . S
C1335 C1332 1.387 . S
C1336 C1337 1.387 . S
C1336 H1340 0.950 . S
C1336 C1345 1.390 . S
C1337 C1336 1.387 . S
C1337 C1339 1.387 . S
H1338 C1345 0.950 . S
C1339 C1337 1.387 . S
C1339 C1341 1.390 . S
C1339 H1343 0.950 . S
H1340 C1336 0.950 . S
C1341 C1339 1.390 . S
C1341 C1342 1.387 . S
C1341 H1344 0.950 . S
C1342 C1341 1.387 . S
C1342 C1345 1.387 . S
H1343 C1339 0.950 . S
H1344 C1341 0.950 . S
C1345 C1336 1.390 . S
C1345 H1338 0.950 . S
C1345 C1342 1.387 . S
C1346 C1347 1.387 . S
C1346 H1350 0.950 . S
C1346 C1355 1.390 . S
C1347 C1346 1.387 . S
C1347 C1349 1.387 . S
H1348 C1355 0.950 . S
C1349 C1347 1.387 . S
C1349 C1351 1.390 . S
C1349 H1353 0.950 . S
H1350 C1346 0.950 . S
C1351 C1349 1.390 . S
C1351 C1352 1.387 . S
C1351 H1354 0.950 . S
C1352 C1351 1.387 . S
C1352 C1355 1.387 . S
H1353 C1349 0.950 . S
H1354 C1351 0.950 . S
C1355 C1346 1.390 . S
C1355 H1348 0.950 . S
C1355 C1352 1.387 . S
C1356 C1357 1.387 . S
C1356 H1360 0.950 . S
C1356 C1365 1.390 . S
C1357 C1356 1.387 . S
C1357 C1359 1.387 . S
H1358 C1365 0.950 . S
C1359 C1357 1.387 . S
C1359 C1361 1.390 . S
C1359 H1363 0.950 . S
H1360 C1356 0.950 . S
C1361 C1359 1.390 . S
C1361 C1362 1.387 . S
C1361 H1364 0.950 . S
C1362 C1361 1.387 . S
C1362 C1365 1.387 . S
H1363 C1359 0.950 . S
H1364 C1361 0.950 . S
C1365 C1356 1.390 . S
C1365 H1358 0.950 . S
C1365 C1362 1.387 . S
C1366 C1367 1.387 . S
C1366 H1370 0.950 . S
C1366 C1375 1.390 . S
C1367 C1366 1.387 . S
C1367 C1369 1.387 . S
H1368 C1375 0.950 . S
C1369 C1367 1.387 . S
C1369 C1371 1.390 . S
C1369 H1373 0.950 . S
H1370 C1366 0.950 . S
C1371 C1369 1.390 . S
C1371 C1372 1.387 . S
C1371 H1374 0.950 . S
C1372 C1371 1.387 . S
C1372 C1375 1.387 . S
H1373 C1369 0.950 . S
H1374 C1371 0.950 . S
C1375 C1366 1.390 . S
C1375 H1368 0.950 . S
C1375 C1372 1.387 . S
C1376 C1377 1.387 . S
C1376 H1380 0.950 . S
C1376 C1385 1.390 . S
C1377 C1376 1.387 . S
C1377 C1379 1.387 . S
H1378 C1385 0.950 . S
C1379 C1377 1.387 . S
C1379 C1381 1.390 . S
C1379 H1383 0.950 . S
H1380 C1376 0.950 . S
C1381 C1379 1.390 . S
C1381 C1382 1.387 . S
C1381 H1384 0.950 . S
C1382 C1381 1.387 . S
C1382 C1385 1.387 . S
H1383 C1379 0.950 . S
H1384 C1381 0.950 . S
C1385 C1376 1.390 . S
C1385 H1378 0.950 . S
C1385 C1382 1.387 . S
C1386 C1387 1.387 1_655 S
C1386 H1390 0.950 . S
C1386 C1395 1.390 . S
C1387 C1386 1.387 1_455 S
C1387 C1389 1.387 1_455 S
H1388 C1395 0.950 . S
C1389 C1387 1.387 1_655 S
C1389 C1391 1.390 . S
C1389 H1393 0.958 . S
H1390 C1386 0.950 . S
C1391 C1389 1.390 . S
C1391 C1392 1.387 . S
C1391 H1394 0.950 . S
C1392 C1391 1.387 . S
C1392 C1395 1.387 . S
H1393 C1389 0.958 . S
H1394 C1391 0.950 . S
C1395 C1386 1.390 . S
C1395 H1388 0.950 . S
C1395 C1392 1.387 . S
C1396 C1397 1.387 . S
C1396 H1400 0.950 . S
C1396 C1405 1.390 . S
C1397 C1396 1.387 . S
C1397 C1399 1.387 . S
H1398 C1405 0.950 . S
C1399 C1397 1.387 . S
C1399 C1401 1.390 . S
C1399 H1403 0.950 . S
H1400 C1396 0.950 . S
C1401 C1399 1.390 . S
C1401 C1402 1.387 . S
C1401 H1404 0.950 . S
C1402 C1401 1.387 . S
C1402 C1405 1.387 . S
H1403 C1399 0.950 . S
H1404 C1401 0.950 . S
C1405 C1396 1.390 . S
C1405 H1398 0.950 . S
C1405 C1402 1.387 . S
C1406 C1407 1.387 . S
C1406 H1410 0.950 . S
C1406 C1415 1.390 . S
C1407 C1406 1.387 . S
C1407 C1409 1.387 . S
H1408 C1415 0.950 . S
C1409 C1407 1.387 . S
C1409 C1411 1.390 . S
C1409 H1413 0.950 . S
H1410 C1406 0.950 . S
C1411 C1409 1.390 . S
C1411 C1412 1.387 . S
C1411 H1414 0.950 . S
C1412 C1411 1.387 . S
C1412 C1415 1.387 . S
H1413 C1409 0.950 . S
H1414 C1411 0.950 . S
C1415 C1406 1.390 . S
C1415 H1408 0.950 . S
C1415 C1412 1.387 . S
C1416 C1417 1.387 . S
C1416 H1420 0.950 . S
C1416 C1425 1.390 . S
C1417 C1416 1.387 . S
C1417 C1419 1.387 . S
H1418 C1425 0.950 . S
C1419 C1417 1.387 . S
C1419 C1421 1.390 . S
C1419 H1423 0.950 . S
H1420 C1416 0.950 . S
C1421 C1419 1.390 . S
C1421 C1422 1.387 . S
C1421 H1424 0.950 . S
C1422 C1421 1.387 . S
C1422 C1425 1.387 . S
H1423 C1419 0.950 . S
H1424 C1421 0.950 . S
C1425 C1416 1.390 . S
C1425 H1418 0.950 . S
C1425 C1422 1.387 . S
C1426 C1427 1.387 . S
C1426 H1430 0.950 . S
C1426 C1435 1.390 . S
C1427 C1426 1.387 . S
C1427 C1429 1.387 . S
H1428 C1435 0.950 . S
C1429 C1427 1.387 . S
C1429 C1431 1.390 . S
C1429 H1433 0.950 . S
H1430 C1426 0.950 . S
C1431 C1429 1.390 . S
C1431 C1432 1.387 . S
C1431 H1434 0.950 . S
C1432 C1431 1.387 . S
C1432 C1435 1.387 . S
H1433 C1429 0.950 . S
H1434 C1431 0.950 . S
C1435 C1426 1.390 . S
C1435 H1428 0.950 . S
C1435 C1432 1.387 . S
C1436 C1437 1.387 . S
C1436 H1440 0.950 . S
C1436 C1445 1.390 . S
C1437 C1436 1.387 . S
C1437 C1439 1.387 . S
H1438 C1445 0.950 . S
C1439 C1437 1.387 . S
C1439 C1441 1.390 . S
C1439 H1443 0.950 . S
H1440 C1436 0.950 . S
C1441 C1439 1.390 . S
C1441 C1442 1.387 1_655 S
C1441 H1444 0.935 1_655 S
C1442 C1441 1.387 1_455 S
C1442 C1445 1.387 1_455 S
H1443 C1439 0.950 . S
H1444 C1441 0.935 1_455 S
C1445 C1436 1.390 . S
C1445 H1438 0.950 . S
C1445 C1442 1.387 1_655 S
C1446 C1447 1.387 . S
C1446 H1450 0.950 . S
C1446 C1455 1.390 . S
C1447 C1446 1.387 . S
C1447 C1449 1.387 . S
H1448 C1455 0.950 . S
C1449 C1447 1.387 . S
C1449 C1451 1.390 . S
C1449 H1453 0.950 . S
H1450 C1446 0.950 . S
C1451 C1449 1.390 . S
C1451 C1452 1.387 . S
C1451 H1454 0.950 . S
C1452 C1451 1.387 . S
C1452 C1455 1.387 . S
H1453 C1449 0.950 . S
H1454 C1451 0.950 . S
C1455 C1446 1.390 . S
C1455 H1448 0.950 . S
C1455 C1452 1.387 . S
C1456 C1457 1.387 . S
C1456 H1460 0.950 . S
C1456 C1465 1.390 . S
C1457 C1456 1.387 . S
C1457 C1459 1.387 . S
H1458 C1465 0.950 . S
C1459 C1457 1.387 . S
C1459 C1461 1.390 . S
C1459 H1463 0.950 . S
H1460 C1456 0.950 . S
C1461 C1459 1.390 . S
C1461 C1462 1.387 . S
C1461 H1464 0.950 . S
C1462 C1461 1.387 . S
C1462 C1465 1.387 . S
H1463 C1459 0.950 . S
H1464 C1461 0.950 . S
C1465 C1456 1.390 . S
C1465 H1458 0.950 . S
C1465 C1462 1.387 . S
C1466 C1467 1.387 . S
C1466 H1470 0.950 . S
C1466 C1475 1.390 . S
C1467 C1466 1.387 . S
C1467 C1469 1.387 . S
H1468 C1475 0.950 . S
C1469 C1467 1.387 . S
C1469 C1471 1.390 . S
C1469 H1473 0.950 . S
H1470 C1466 0.950 . S
C1471 C1469 1.390 . S
C1471 C1472 1.387 . S
C1471 H1474 0.950 . S
C1472 C1471 1.387 . S
C1472 C1475 1.387 . S
H1473 C1469 0.950 . S
H1474 C1471 0.950 . S
C1475 C1466 1.390 . S
C1475 H1468 0.950 . S
C1475 C1472 1.387 . S
C1476 C1477 1.387 . S
C1476 H1480 0.950 . S
C1476 C1485 1.390 . S
C1477 C1476 1.387 . S
C1477 C1479 1.387 . S
H1478 C1485 0.950 . S
C1479 C1477 1.387 . S
C1479 C1481 1.390 . S
C1479 H1483 0.950 . S
H1480 C1476 0.950 . S
C1481 C1479 1.390 . S
C1481 C1482 1.387 . S
C1481 H1484 0.950 1_655 S
C1482 C1481 1.387 . S
C1482 C1485 1.387 . S
H1483 C1479 0.950 . S
H1484 C1481 0.950 1_455 S
C1485 C1476 1.390 . S
C1485 H1478 0.950 . S
C1485 C1482 1.387 . S
C1486 C1487 1.387 . S
C1486 H1490 0.950 . S
C1486 C1495 1.390 . S
C1487 C1486 1.387 . S
C1487 C1489 1.387 . S
H1488 C1495 0.950 . S
C1489 C1487 1.387 . S
C1489 C1491 1.390 . S
C1489 H1493 0.950 . S
H1490 C1486 0.950 . S
C1491 C1489 1.390 . S
C1491 C1492 1.387 . S
C1491 H1494 0.950 . S
C1492 C1491 1.387 . S
C1492 C1495 1.387 . S
H1493 C1489 0.950 . S
H1494 C1491 0.950 . S
C1495 C1486 1.390 . S
C1495 H1488 0.950 . S
C1495 C1492 1.387 . S
C1496 C1497 1.387 . S
C1496 H1500 0.950 . S
C1496 C1505 1.390 . S
C1497 C1496 1.387 . S
C1497 C1499 1.387 . S
H1498 C1505 0.950 . S
C1499 C1497 1.387 . S
C1499 C1501 1.390 . S
C1499 H1503 0.950 . S
H1500 C1496 0.950 . S
C1501 C1499 1.390 . S
C1501 C1502 1.387 . S
C1501 H1504 0.950 . S
C1502 C1501 1.387 . S
C1502 C1505 1.387 . S
H1503 C1499 0.950 . S
H1504 C1501 0.950 . S
C1505 C1496 1.390 . S
C1505 H1498 0.950 . S
C1505 C1502 1.387 . S
C1506 C1507 1.387 . S
C1506 H1510 0.950 . S
C1506 C1515 1.390 . S
C1507 C1506 1.387 . S
C1507 C1509 1.387 . S
H1508 C1515 0.950 . S
C1509 C1507 1.387 . S
C1509 C1511 1.390 . S
C1509 H1513 0.950 . S
H1510 C1506 0.950 . S
C1511 C1509 1.390 . S
C1511 C1512 1.387 . S
C1511 H1514 0.950 . S
C1512 C1511 1.387 . S
C1512 C1515 1.387 . S
H1513 C1509 0.950 . S
H1514 C1511 0.950 . S
C1515 C1506 1.390 . S
C1515 H1508 0.950 . S
C1515 C1512 1.387 . S
C1516 C1517 1.387 . S
C1516 H1520 0.950 . S
C1516 C1525 1.390 . S
C1517 C1516 1.387 . S
C1517 C1519 1.387 . S
H1518 C1525 0.950 . S
C1519 C1517 1.387 . S
C1519 C1521 1.390 . S
C1519 H1523 0.950 . S
H1520 C1516 0.950 . S
C1521 C1519 1.390 . S
C1521 C1522 1.387 . S
C1521 H1524 0.950 . S
C1522 C1521 1.387 . S
C1522 C1525 1.387 . S
H1523 C1519 0.950 . S
H1524 C1521 0.950 . S
C1525 C1516 1.390 . S
C1525 H1518 0.950 . S
C1525 C1522 1.387 . S
C1526 C1527 1.387 . S
C1526 H1530 0.950 . S
C1526 C1535 1.390 . S
C1527 C1526 1.387 . S
C1527 C1529 1.387 . S
H1528 C1535 0.950 . S
C1529 C1527 1.387 . S
C1529 C1531 1.390 . S
C1529 H1533 0.950 . S
H1530 C1526 0.950 . S
C1531 C1529 1.390 . S
C1531 C1532 1.387 . S
C1531 H1534 0.950 . S
C1532 C1531 1.387 . S
C1532 C1535 1.387 . S
H1533 C1529 0.950 . S
H1534 C1531 0.950 . S
C1535 C1526 1.390 . S
C1535 H1528 0.950 . S
C1535 C1532 1.387 . S
C1536 C1537 1.387 . S
C1536 H1540 0.950 . S
C1536 C1545 1.390 . S
C1537 C1536 1.387 . S
C1537 C1539 1.387 . S
H1538 C1545 0.950 . S
C1539 C1537 1.387 . S
C1539 C1541 1.390 . S
C1539 H1543 0.950 . S
H1540 C1536 0.950 . S
C1541 C1539 1.390 . S
C1541 C1542 1.387 . S
C1541 H1544 0.950 . S
C1542 C1541 1.387 . S
C1542 C1545 1.387 . S
H1543 C1539 0.950 . S
H1544 C1541 0.950 . S
C1545 C1536 1.390 . S
C1545 H1538 0.950 . S
C1545 C1542 1.387 . S
C1546 C1547 1.387 . S
C1546 H1550 0.950 . S
C1546 C1555 1.390 . S
C1547 C1546 1.387 . S
C1547 C1549 1.387 . S
H1548 C1555 0.950 . S
C1549 C1547 1.387 . S
C1549 C1551 1.390 . S
C1549 H1553 0.950 . S
H1550 C1546 0.950 . S
C1551 C1549 1.390 . S
C1551 C1552 1.387 . S
C1551 H1554 0.950 1_554 S
C1552 C1551 1.387 . S
C1552 C1555 1.387 . S
H1553 C1549 0.950 . S
H1554 C1551 0.950 1_556 S
C1555 C1546 1.390 . S
C1555 H1548 0.950 . S
C1555 C1552 1.387 . S
C1556 C1557 1.387 . S
C1556 H1560 0.950 . S
C1556 C1565 1.390 . S
C1557 C1556 1.387 . S
C1557 C1559 1.387 . S
H1558 C1565 0.950 . S
C1559 C1557 1.387 . S
C1559 C1561 1.390 . S
C1559 H1563 0.950 . S
H1560 C1556 0.950 . S
C1561 C1559 1.390 . S
C1561 C1562 1.387 . S
C1561 H1564 0.950 . S
C1562 C1561 1.387 . S
C1562 C1565 1.387 . S
H1563 C1559 0.950 . S
H1564 C1561 0.950 . S
C1565 C1556 1.390 . S
C1565 H1558 0.950 . S
C1565 C1562 1.387 . S
C1566 C1567 1.387 . S
C1566 H1570 0.950 . S
C1566 C1575 1.390 . S
C1567 C1566 1.387 . S
C1567 C1569 1.387 . S
H1568 C1575 0.950 . S
C1569 C1567 1.387 . S
C1569 C1571 1.390 . S
C1569 H1573 0.950 . S
H1570 C1566 0.950 . S
C1571 C1569 1.390 . S
C1571 C1572 1.387 . S
C1571 H1574 0.950 . S
C1572 C1571 1.387 . S
C1572 C1575 1.387 . S
H1573 C1569 0.950 . S
H1574 C1571 0.950 . S
C1575 C1566 1.390 . S
C1575 H1568 0.950 . S
C1575 C1572 1.387 . S
C1576 C1577 1.387 . S
C1576 H1580 0.950 . S
C1576 C1585 1.390 . S
C1577 C1576 1.387 . S
C1577 C1579 1.387 . S
H1578 C1585 0.950 . S
C1579 C1577 1.387 . S
C1579 C1581 1.390 . S
C1579 H1583 0.950 . S
H1580 C1576 0.950 . S
C1581 C1579 1.390 . S
C1581 C1582 1.387 . S
C1581 H1584 0.950 . S
C1582 C1581 1.387 . S
C1582 C1585 1.387 . S
H1583 C1579 0.950 . S
H1584 C1581 0.950 . S
C1585 C1576 1.390 . S
C1585 H1578 0.950 . S
C1585 C1582 1.387 . S
C1586 C1587 1.387 . S
C1586 H1590 0.950 . S
C1586 C1595 1.390 . S
C1587 C1586 1.387 . S
C1587 C1589 1.387 . S
H1588 C1595 0.950 . S
C1589 C1587 1.387 . S
C1589 C1591 1.390 . S
C1589 H1593 0.950 . S
H1590 C1586 0.950 . S
C1591 C1589 1.390 . S
C1591 C1592 1.387 . S
C1591 H1594 0.950 . S
C1592 C1591 1.387 . S
C1592 C1595 1.387 . S
H1593 C1589 0.950 . S
H1594 C1591 0.950 . S
C1595 C1586 1.390 . S
C1595 H1588 0.950 . S
C1595 C1592 1.387 . S
C1596 C1597 1.387 . S
C1596 H1600 0.950 . S
C1596 C1605 1.390 . S
C1597 C1596 1.387 . S
C1597 C1599 1.387 1_455 S
H1598 C1605 0.950 . S
C1599 C1597 1.387 1_655 S
C1599 C1601 1.390 . S
C1599 H1603 0.950 . S
H1600 C1596 0.950 . S
C1601 C1599 1.390 . S
C1601 C1602 1.387 . S
C1601 H1604 0.950 . S
C1602 C1601 1.387 . S
C1602 C1605 1.387 1_655 S
H1603 C1599 0.950 . S
H1604 C1601 0.950 . S
C1605 C1596 1.390 . S
C1605 H1598 0.950 . S
C1605 C1602 1.387 1_455 S
C1606 C1607 1.387 . S
C1606 H1610 0.950 . S
C1606 C1615 1.390 . S
C1607 C1606 1.387 . S
C1607 C1609 1.387 . S
H1608 C1615 0.950 . S
C1609 C1607 1.387 . S
C1609 C1611 1.390 . S
C1609 H1613 0.950 . S
H1610 C1606 0.950 . S
C1611 C1609 1.390 . S
C1611 C1612 1.387 . S
C1611 H1614 0.950 . S
C1612 C1611 1.387 . S
C1612 C1615 1.387 . S
H1613 C1609 0.950 . S
H1614 C1611 0.950 . S
C1615 C1606 1.390 . S
C1615 H1608 0.950 . S
C1615 C1612 1.387 . S
C1616 C1617 1.387 . S
C1616 H1620 0.950 . S
C1616 C1625 1.390 . S
C1617 C1616 1.387 . S
C1617 C1619 1.387 . S
H1618 C1625 0.950 . S
C1619 C1617 1.387 . S
C1619 C1621 1.390 . S
C1619 H1623 0.950 . S
H1620 C1616 0.950 . S
C1621 C1619 1.390 . S
C1621 C1622 1.387 . S
C1621 H1624 0.950 . S
C1622 C1621 1.387 . S
C1622 C1625 1.387 . S
H1623 C1619 0.950 . S
H1624 C1621 0.950 . S
C1625 C1616 1.390 . S
C1625 H1618 0.950 . S
C1625 C1622 1.387 . S
C1626 C1627 1.387 . S
C1626 H1630 0.950 . S
C1626 C1635 1.390 . S
C1627 C1626 1.387 . S
C1627 C1629 1.387 . S
H1628 C1635 0.950 . S
C1629 C1627 1.387 . S
C1629 C1631 1.390 . S
C1629 H1633 0.950 . S
H1630 C1626 0.950 . S
C1631 C1629 1.390 . S
C1631 C1632 1.387 . S
C1631 H1634 0.950 . S
C1632 C1631 1.387 . S
C1632 C1635 1.387 . S
H1633 C1629 0.950 . S
H1634 C1631 0.950 . S
C1635 C1626 1.390 . S
C1635 H1628 0.950 . S
C1635 C1632 1.387 . S
C1636 C1637 1.387 . S
C1636 H1640 0.952 1_455 S
C1636 C1645 1.390 . S
C1637 C1636 1.387 . S
C1637 C1639 1.387 . S
H1638 C1645 0.950 1_655 S
C1639 C1637 1.387 . S
C1639 C1641 1.390 . S
C1639 H1643 0.950 . S
H1640 C1636 0.952 1_655 S
C1641 C1639 1.390 . S
C1641 C1642 1.387 . S
C1641 H1644 0.950 . S
C1642 C1641 1.387 . S
C1642 C1645 1.387 . S
H1643 C1639 0.950 . S
H1644 C1641 0.950 . S
C1645 C1636 1.390 . S
C1645 H1638 0.950 1_455 S
C1645 C1642 1.387 . S
C1646 C1647 1.387 . S
C1646 H1650 0.950 . S
C1646 C1655 1.390 . S
C1647 C1646 1.387 . S
C1647 C1649 1.387 . S
H1648 C1655 0.950 . S
C1649 C1647 1.387 . S
C1649 C1651 1.390 . S
C1649 H1653 0.950 . S
H1650 C1646 0.950 . S
C1651 C1649 1.390 . S
C1651 C1652 1.387 . S
C1651 H1654 0.950 . S
C1652 C1651 1.387 . S
C1652 C1655 1.387 . S
H1653 C1649 0.950 . S
H1654 C1651 0.950 . S
C1655 C1646 1.390 . S
C1655 H1648 0.950 . S
C1655 C1652 1.387 . S
C1656 C1657 1.387 . S
C1656 H1660 0.950 . S
C1656 C1665 1.390 . S
C1657 C1656 1.387 . S
C1657 C1659 1.387 . S
H1658 C1665 0.950 . S
C1659 C1657 1.387 . S
C1659 C1661 1.390 . S
C1659 H1663 0.950 . S
H1660 C1656 0.950 . S
C1661 C1659 1.390 . S
C1661 C1662 1.387 . S
C1661 H1664 0.950 . S
C1662 C1661 1.387 . S
C1662 C1665 1.387 . S
H1663 C1659 0.950 . S
H1664 C1661 0.950 . S
C1665 C1656 1.390 . S
C1665 H1658 0.950 . S
C1665 C1662 1.387 . S
C1666 C1667 1.387 . S
C1666 H1670 0.950 . S
C1666 C1675 1.390 . S
C1667 C1666 1.387 . S
C1667 C1669 1.387 . S
H1668 C1675 0.950 . S
C1669 C1667 1.387 . S
C1669 C1671 1.390 . S
C1669 H1673 0.950 . S
H1670 C1666 0.950 . S
C1671 C1669 1.390 . S
C1671 C1672 1.387 . S
C1671 H1674 0.950 . S
C1672 C1671 1.387 . S
C1672 C1675 1.387 . S
H1673 C1669 0.950 . S
H1674 C1671 0.950 . S
C1675 C1666 1.390 . S
C1675 H1668 0.950 . S
C1675 C1672 1.387 . S
C1676 C1677 1.387 . S
C1676 H1680 0.950 . S
C1676 C1685 1.390 . S
C1677 C1676 1.387 . S
C1677 C1679 1.387 . S
H1678 C1685 0.950 . S
C1679 C1677 1.387 . S
C1679 C1681 1.390 . S
C1679 H1683 0.950 . S
H1680 C1676 0.950 . S
C1681 C1679 1.390 . S
C1681 C1682 1.387 . S
C1681 H1684 0.950 . S
C1682 C1681 1.387 . S
C1682 C1685 1.387 . S
H1683 C1679 0.950 . S
H1684 C1681 0.950 . S
C1685 C1676 1.390 . S
C1685 H1678 0.950 . S
C1685 C1682 1.387 . S
C1686 C1687 1.387 . S
C1686 H1690 0.950 . S
C1686 C1695 1.390 . S
C1687 C1686 1.387 . S
C1687 C1689 1.387 . S
H1688 C1695 0.950 . S
C1689 C1687 1.387 . S
C1689 C1691 1.390 . S
C1689 H1693 0.950 . S
H1690 C1686 0.950 . S
C1691 C1689 1.390 . S
C1691 C1692 1.387 . S
C1691 H1694 0.950 . S
C1692 C1691 1.387 . S
C1692 C1695 1.387 . S
H1693 C1689 0.950 . S
H1694 C1691 0.950 . S
C1695 C1686 1.390 . S
C1695 H1688 0.950 . S
C1695 C1692 1.387 . S
C1696 C1697 1.387 . S
C1696 H1700 0.950 . S
C1696 C1705 1.390 . S
C1697 C1696 1.387 . S
C1697 C1699 1.387 . S
H1698 C1705 0.950 . S
C1699 C1697 1.387 . S
C1699 C1701 1.390 . S
C1699 H1703 0.950 . S
H1700 C1696 0.950 . S
C1701 C1699 1.390 . S
C1701 C1702 1.387 . S
C1701 H1704 0.950 . S
C1702 C1701 1.387 . S
C1702 C1705 1.387 . S
H1703 C1699 0.950 . S
H1704 C1701 0.950 . S
C1705 C1696 1.390 . S
C1705 H1698 0.950 . S
C1705 C1702 1.387 . S
C1706 C1707 1.387 . S
C1706 H1710 0.950 . S
C1706 C1715 1.390 . S
C1707 C1706 1.387 . S
C1707 C1709 1.387 . S
H1708 C1715 0.950 . S
C1709 C1707 1.387 . S
C1709 C1711 1.390 . S
C1709 H1713 0.950 . S
H1710 C1706 0.950 . S
C1711 C1709 1.390 . S
C1711 C1712 1.387 . S
C1711 H1714 0.950 . S
C1712 C1711 1.387 . S
C1712 C1715 1.387 . S
H1713 C1709 0.950 . S
H1714 C1711 0.950 . S
C1715 C1706 1.390 . S
C1715 H1708 0.950 . S
C1715 C1712 1.387 . S
C1716 C1717 1.387 . S
C1716 H1720 0.950 . S
C1716 C1725 1.390 . S
C1717 C1716 1.387 . S
C1717 C1719 1.387 . S
H1718 C1725 0.950 . S
C1719 C1717 1.387 . S
C1719 C1721 1.390 . S
C1719 H1723 0.950 . S
H1720 C1716 0.950 . S
C1721 C1719 1.390 . S
C1721 C1722 1.387 . S
C1721 H1724 0.950 . S
C1722 C1721 1.387 . S
C1722 C1725 1.387 . S
H1723 C1719 0.950 . S
H1724 C1721 0.950 . S
C1725 C1716 1.390 . S
C1725 H1718 0.950 . S
C1725 C1722 1.387 . S
C1726 C1727 1.387 . S
C1726 H1730 0.950 . S
C1726 C1735 1.390 . S
C1727 C1726 1.387 . S
C1727 C1729 1.387 . S
H1728 C1735 0.950 . S
C1729 C1727 1.387 . S
C1729 C1731 1.390 . S
C1729 H1733 0.950 . S
H1730 C1726 0.950 . S
C1731 C1729 1.390 . S
C1731 C1732 1.387 . S
C1731 H1734 0.950 . S
C1732 C1731 1.387 . S
C1732 C1735 1.387 . S
H1733 C1729 0.950 . S
H1734 C1731 0.950 . S
C1735 C1726 1.390 . S
C1735 H1728 0.950 . S
C1735 C1732 1.387 . S
C1736 C1737 1.387 . S
C1736 H1740 0.950 . S
C1736 C1745 1.390 . S
C1737 C1736 1.387 . S
C1737 C1739 1.387 . S
H1738 C1745 0.950 . S
C1739 C1737 1.387 . S
C1739 C1741 1.390 . S
C1739 H1743 0.950 . S
H1740 C1736 0.950 . S
C1741 C1739 1.390 . S
C1741 C1742 1.387 . S
C1741 H1744 0.950 . S
C1742 C1741 1.387 . S
C1742 C1745 1.387 . S
H1743 C1739 0.950 . S
H1744 C1741 0.950 . S
C1745 C1736 1.390 . S
C1745 H1738 0.950 . S
C1745 C1742 1.387 . S
C1746 C1747 1.387 . S
C1746 H1750 0.950 . S
C1746 C1755 1.390 . S
C1747 C1746 1.387 . S
C1747 C1749 1.387 . S
H1748 C1755 0.950 . S
C1749 C1747 1.387 . S
C1749 C1751 1.390 . S
C1749 H1753 0.950 . S
H1750 C1746 0.950 . S
C1751 C1749 1.390 . S
C1751 C1752 1.387 . S
C1751 H1754 0.950 . S
C1752 C1751 1.387 . S
C1752 C1755 1.387 . S
H1753 C1749 0.950 . S
H1754 C1751 0.950 . S
C1755 C1746 1.390 . S
C1755 H1748 0.950 . S
C1755 C1752 1.387 . S
C1756 C1757 1.387 . S
C1756 H1760 0.950 . S
C1756 C1765 1.390 . S
C1757 C1756 1.387 . S
C1757 C1759 1.387 . S
H1758 C1765 0.950 . S
C1759 C1757 1.387 . S
C1759 C1761 1.390 . S
C1759 H1763 0.950 . S
H1760 C1756 0.950 . S
C1761 C1759 1.390 . S
C1761 C1762 1.387 . S
C1761 H1764 0.950 . S
C1762 C1761 1.387 . S
C1762 C1765 1.387 . S
H1763 C1759 0.950 . S
H1764 C1761 0.950 . S
C1765 C1756 1.390 . S
C1765 H1758 0.950 . S
C1765 C1762 1.387 . S
C1766 C1767 1.387 . S
C1766 H1770 0.950 . S
C1766 C1775 1.390 . S
C1767 C1766 1.387 . S
C1767 C1769 1.387 . S
H1768 C1775 0.950 . S
C1769 C1767 1.387 . S
C1769 C1771 1.390 . S
C1769 H1773 0.950 1_554 S
H1770 C1766 0.950 . S
C1771 C1769 1.390 . S
C1771 C1772 1.387 . S
C1771 H1774 0.950 1_554 S
C1772 C1771 1.387 . S
C1772 C1775 1.387 . S
H1773 C1769 0.950 1_556 S
H1774 C1771 0.950 1_556 S
C1775 C1766 1.390 . S
C1775 H1768 0.950 . S
C1775 C1772 1.387 . S
C1776 C1777 1.387 . S
C1776 H1780 0.950 . S
C1776 C1785 1.390 . S
C1777 C1776 1.387 . S
C1777 C1779 1.387 . S
H1778 C1785 0.950 . S
C1779 C1777 1.387 . S
C1779 C1781 1.390 . S
C1779 H1783 0.950 . S
H1780 C1776 0.950 . S
C1781 C1779 1.390 . S
C1781 C1782 1.387 . S
C1781 H1784 0.950 . S
C1782 C1781 1.387 . S
C1782 C1785 1.387 . S
H1783 C1779 0.950 . S
H1784 C1781 0.950 . S
C1785 C1776 1.390 . S
C1785 H1778 0.950 . S
C1785 C1782 1.387 . S
C1786 C1787 1.387 1_556 S
C1786 H1790 0.950 . S
C1786 C1795 1.390 1_556 S
C1787 C1786 1.387 1_554 S
C1787 C1789 1.387 . S
H1788 C1795 0.950 1_556 S
C1789 C1787 1.387 . S
C1789 C1791 1.390 . S
C1789 H1793 0.950 . S
H1790 C1786 0.950 . S
C1791 C1789 1.390 . S
C1791 C1792 1.387 . S
C1791 H1794 0.950 . S
C1792 C1791 1.387 . S
C1792 C1795 1.387 . S
H1793 C1789 0.950 . S
H1794 C1791 0.950 . S
C1795 C1786 1.390 1_554 S
C1795 H1788 0.950 1_554 S
C1795 C1792 1.387 . S
C1796 C1797 1.387 . S
C1796 H1800 0.950 . S
C1796 C1805 1.390 . S
C1797 C1796 1.387 . S
C1797 C1799 1.387 . S
H1798 C1805 0.950 . S
C1799 C1797 1.387 . S
C1799 C1801 1.390 . S
C1799 H1803 0.950 . S
H1800 C1796 0.950 . S
C1801 C1799 1.390 . S
C1801 C1802 1.387 . S
C1801 H1804 0.950 . S
C1802 C1801 1.387 . S
C1802 C1805 1.387 . S
H1803 C1799 0.950 . S
H1804 C1801 0.950 . S
C1805 C1796 1.390 . S
C1805 H1798 0.950 . S
C1805 C1802 1.387 . S
C1806 C1807 1.387 . S
C1806 H1810 0.950 . S
C1806 C1815 1.390 . S
C1807 C1806 1.387 . S
C1807 C1809 1.387 . S
H1808 C1815 0.950 . S
C1809 C1807 1.387 . S
C1809 C1811 1.390 . S
C1809 H1813 0.950 . S
H1810 C1806 0.950 . S
C1811 C1809 1.390 . S
C1811 C1812 1.387 . S
C1811 H1814 0.950 . S
C1812 C1811 1.387 . S
C1812 C1815 1.387 . S
H1813 C1809 0.950 . S
H1814 C1811 0.950 . S
C1815 C1806 1.390 . S
C1815 H1808 0.950 . S
C1815 C1812 1.387 . S
C862 C329 1.460 . S
C857 C10 1.444 . S
C867 C23 2.137 . S
C872 C375 2.121 . S
C877 C36 1.129 . S
C882 C384 1.124 . S
C892 C422 1.925 . S
C887 C42 1.975 . S
C897 C18 1.911 . S
C902 C456 1.877 . S
C912 C486 1.082 . S
C907 C31 1.094 . S
C922 C545 1.874 1_556 S
C917 C43 1.886 . S
C927 C5 1.391 . S
C932 C558 1.367 . S
C937 C56 1.743 . S
C942 C341 1.698 . S
C947 C70 1.421 . S
C952 C359 1.389 . S
C962 C380 1.979 . S
C957 C82 2.008 . S
C972 C418 1.181 . S
C967 C96 1.231 . S
C977 C57 1.525 . S
C982 C452 1.471 . S
C992 C482 1.902 . S
C987 C69 1.932 . S
C1002 C529 1.469 . S
C997 C83 1.515 1_565 S
C1012 C554 0.993 . S
C1007 C95 1.008 . S
C1022 C325 0.953 . S
C1017 C94 0.981 . S
C1032 C584 1.808 . S
C1027 C108 1.803 . S
C1037 C122 1.708 . S
C1042 C626 1.679 . S
C1052 C669 0.708 . S
C1047 C140 0.707 . S
C1057 C55 1.706 . S
C1062 C550 1.654 . S
C1072 C388 1.742 . S
C1067 C68 1.773 . S
C1077 C121 1.615 . S
C1082 C686 1.630 . S
C1092 C737 1.826 . S
C1087 C153 1.817 . S
C1097 C161 1.251 1_455 S
C1102 C320 1.279 1_556 S
C1112 C720 1.884 . S
C1107 C174 1.898 . S
C1117 C186 1.030 . S
C1122 C393 1.021 . S
C1127 C200 1.705 . S
C1132 C703 1.658 . S
C1142 C465 1.651 . S
C1137 C172 1.680 . S
C1152 C631 0.922 . S
C1147 C192 0.928 . S
C1162 C516 1.635 . S
C1157 C198 1.646 . S
C1172 C771 1.193 . S
C1167 C159 1.185 . S
C1182 C312 1.448 1_655 S
C1177 C211 1.490 1_545 S
C1187 C225 1.293 . S
C1192 C724 1.274 . S
C1202 C409 1.737 . S
C1197 C239 1.763 . S
C1207 C251 1.135 . S
C1212 C699 1.117 . S
C1217 C218 1.376 . S
C1222 C461 1.337 . S
C1227 C226 1.696 . S
C1232 C647 1.674 . S
C1242 C520 1.332 . S
C1237 C238 1.361 . S
C1247 C252 0.883 . S
C1252 C767 0.876 . S
C1257 C250 0.864 . S
C1262 C316 0.859 . S
C1267 C264 1.589 . S
C1272 C613 1.586 . S
C1277 C276 1.522 . S
C1282 C499 1.524 . S
C1287 C290 0.485 . S
C1292 C660 0.515 . S
C1302 C783 1.437 . S
C1297 C213 1.458 . S
C1312 C397 1.557 . S
C1307 C224 1.557 . S
C1322 C443 1.387 . S
C1317 C283 1.386 . S
C1332 C354 1.616 . S
C1327 C303 1.622 . S
C1337 C29 1.460 . S
C1342 C805 1.463 . S
C1352 C749 2.120 . S
C1347 C49 2.136 . S
C1362 C826 1.130 . S
C1357 C3 1.139 . S
C1367 C16 1.974 . S
C1372 C694 1.924 . S
C1377 C44 1.911 . S
C1382 C592 1.877 1_556 S
C1392 C622 1.077 . S
C1387 C4 1.088 . S
C1402 C681 1.877 . S
C1397 C17 1.888 . S
C1412 C762 1.363 . S
C1407 C30 1.378 . S
C1422 C817 1.700 . S
C1417 C147 1.744 . S
C1427 C107 1.423 1_556 S
C1432 C733 1.392 . S
C1437 C127 2.011 . S
C1442 C822 1.982 . S
C1452 C690 1.177 . S
C1447 C135 1.229 . S
C1462 C588 1.470 . S
C1457 C148 1.523 . S
C1467 C114 1.930 . S
C1472 C618 1.900 . S
C1482 C665 1.467 . S
C1477 C120 1.513 . S
C1487 C134 1.008 . S
C1492 C758 0.989 . S
C1502 C801 0.953 . S
C1497 C133 0.980 . S
C1512 C448 1.810 . S
C1507 C75 1.804 . S
C1522 C490 1.681 . S
C1517 C81 1.709 . S
C1527 C101 0.709 . S
C1532 C533 0.710 . S
C1542 C754 1.654 . S
C1537 C146 1.706 . S
C1547 C109 1.774 . S
C1552 C830 1.742 . S
C1562 C414 1.626 . S
C1557 C88 1.611 . S
C1572 C363 1.824 . S
C1567 C62 1.815 . S
C1577 C187 1.251 . S
C1582 C796 1.280 . S
C1592 C346 1.874 . S
C1587 C199 1.890 . S
C1602 C835 1.022 1_655 S
C1597 C160 1.030 . S
C1607 C173 1.699 . S
C1612 C431 1.650 . S
C1617 C205 1.674 . S
C1622 C601 1.645 . S
C1627 C166 0.927 . S
C1632 C495 0.918 . S
C1637 C179 1.636 . S
C1642 C652 1.625 . S
C1647 C185 1.187 . S
C1652 C567 1.197 . S
C1662 C788 1.452 . S
C1657 C302 1.493 . S
C1667 C270 1.296 . S
C1672 C350 1.278 . S
C1682 C851 1.736 . S
C1677 C278 1.763 . S
C1687 C296 1.138 . S
C1692 C427 1.120 . S
C1697 C309 1.377 . S
C1702 C597 1.336 . S
C1712 C511 1.675 . S
C1707 C263 1.697 . S
C1717 C277 1.363 . S
C1722 C656 1.334 . S
C1732 C563 0.873 . S
C1727 C289 0.882 . S
C1742 C792 0.854 . S
C1737 C291 0.860 . S
C1752 C477 1.586 . S
C1747 C231 1.588 . S
C1757 C237 1.519 . S
C1762 C635 1.522 . S
C1772 C524 0.514 . S
C1767 C257 0.483 . S
C1782 C579 1.437 . S
C1777 C304 1.458 . S
C1787 C265 1.559 1_554 S
C1792 C839 1.559 . S
C1802 C715 1.386 . S
C1797 C244 1.385 . S
C1812 C728 1.615 . S
C1807 C212 1.621 . S
